# Generated by pormake.
# Topology gis, (4)-cn, num edge types: 1
# Building blocks:
#     Node 0, Type 0, BuildingBlock: QUQFOY_clean_sbu_1, # of connection points: 4
#     Node 1, Type 0, BuildingBlock: QUQFOY_clean_sbu_1, # of connection points: 4
#     Node 2, Type 0, BuildingBlock: QUQFOY_clean_sbu_1, # of connection points: 4
#     Node 3, Type 0, BuildingBlock: QUQFOY_clean_sbu_1, # of connection points: 4
#     Node 4, Type 0, BuildingBlock: QUQFOY_clean_sbu_1, # of connection points: 4
#     Node 5, Type 0, BuildingBlock: QUQFOY_clean_sbu_1, # of connection points: 4
#     Node 6, Type 0, BuildingBlock: QUQFOY_clean_sbu_1, # of connection points: 4
#     Node 7, Type 0, BuildingBlock: QUQFOY_clean_sbu_1, # of connection points: 4
#     Node 8, Type 0, BuildingBlock: QUQFOY_clean_sbu_1, # of connection points: 4
#     Node 9, Type 0, BuildingBlock: QUQFOY_clean_sbu_1, # of connection points: 4
#     Node 10, Type 0, BuildingBlock: QUQFOY_clean_sbu_1, # of connection points: 4
#     Node 11, Type 0, BuildingBlock: QUQFOY_clean_sbu_1, # of connection points: 4
#     Node 12, Type 0, BuildingBlock: QUQFOY_clean_sbu_1, # of connection points: 4
#     Node 13, Type 0, BuildingBlock: QUQFOY_clean_sbu_1, # of connection points: 4
#     Node 14, Type 0, BuildingBlock: QUQFOY_clean_sbu_1, # of connection points: 4
#     Node 15, Type 0, BuildingBlock: QUQFOY_clean_sbu_1, # of connection points: 4
#     Edge 16, Type (0, 0), BuildingBlock: TEMPAE_clean_linker_10, # of connection points: 2
#     Edge 17, Type (0, 0), BuildingBlock: TEMPAE_clean_linker_10, # of connection points: 2
#     Edge 18, Type (0, 0), BuildingBlock: TEMPAE_clean_linker_10, # of connection points: 2
#     Edge 19, Type (0, 0), BuildingBlock: TEMPAE_clean_linker_10, # of connection points: 2
#     Edge 20, Type (0, 0), BuildingBlock: TEMPAE_clean_linker_10, # of connection points: 2
#     Edge 21, Type (0, 0), BuildingBlock: TEMPAE_clean_linker_10, # of connection points: 2
#     Edge 22, Type (0, 0), BuildingBlock: TEMPAE_clean_linker_10, # of connection points: 2
#     Edge 23, Type (0, 0), BuildingBlock: TEMPAE_clean_linker_10, # of connection points: 2
#     Edge 24, Type (0, 0), BuildingBlock: TEMPAE_clean_linker_10, # of connection points: 2
#     Edge 25, Type (0, 0), BuildingBlock: TEMPAE_clean_linker_10, # of connection points: 2
#     Edge 26, Type (0, 0), BuildingBlock: TEMPAE_clean_linker_10, # of connection points: 2
#     Edge 27, Type (0, 0), BuildingBlock: TEMPAE_clean_linker_10, # of connection points: 2
#     Edge 28, Type (0, 0), BuildingBlock: TEMPAE_clean_linker_10, # of connection points: 2
#     Edge 29, Type (0, 0), BuildingBlock: TEMPAE_clean_linker_10, # of connection points: 2
#     Edge 30, Type (0, 0), BuildingBlock: TEMPAE_clean_linker_10, # of connection points: 2
#     Edge 31, Type (0, 0), BuildingBlock: TEMPAE_clean_linker_10, # of connection points: 2
#     Edge 32, Type (0, 0), BuildingBlock: TEMPAE_clean_linker_10, # of connection points: 2
#     Edge 33, Type (0, 0), BuildingBlock: TEMPAE_clean_linker_10, # of connection points: 2
#     Edge 34, Type (0, 0), BuildingBlock: TEMPAE_clean_linker_10, # of connection points: 2
#     Edge 35, Type (0, 0), BuildingBlock: TEMPAE_clean_linker_10, # of connection points: 2
#     Edge 36, Type (0, 0), BuildingBlock: TEMPAE_clean_linker_10, # of connection points: 2
#     Edge 37, Type (0, 0), BuildingBlock: TEMPAE_clean_linker_10, # of connection points: 2
#     Edge 38, Type (0, 0), BuildingBlock: TEMPAE_clean_linker_10, # of connection points: 2
#     Edge 39, Type (0, 0), BuildingBlock: TEMPAE_clean_linker_10, # of connection points: 2
#     Edge 40, Type (0, 0), BuildingBlock: TEMPAE_clean_linker_10, # of connection points: 2
#     Edge 41, Type (0, 0), BuildingBlock: TEMPAE_clean_linker_10, # of connection points: 2
#     Edge 42, Type (0, 0), BuildingBlock: TEMPAE_clean_linker_10, # of connection points: 2
#     Edge 43, Type (0, 0), BuildingBlock: TEMPAE_clean_linker_10, # of connection points: 2
#     Edge 44, Type (0, 0), BuildingBlock: TEMPAE_clean_linker_10, # of connection points: 2
#     Edge 45, Type (0, 0), BuildingBlock: TEMPAE_clean_linker_10, # of connection points: 2
#     Edge 46, Type (0, 0), BuildingBlock: TEMPAE_clean_linker_10, # of connection points: 2
#     Edge 47, Type (0, 0), BuildingBlock: TEMPAE_clean_linker_10, # of connection points: 2
# Relax obj value: 0.009
# Max RMSD: 0.059
# Mean RMSD: 0.059
data_MOF--net-gis--node1-QUQFOY_clean_sbu_1--edge1-TEMPAE_clean_linker_10
_symmetry_space_group_name_H-M    P1
_symmetry_Int_Tables_number       1
_symmetry_cell_setting            triclinic
loop_
_symmetry_equiv_pos_as_xyz
'x, y, z'
_cell_length_a     54.735404
_cell_length_b     54.749732
_cell_length_c     42.731575
_cell_angle_alpha  89.999808
_cell_angle_beta   89.970256
_cell_angle_gamma 90.062271
loop_
_atom_site_label
_atom_site_type_symbol
_atom_site_fract_x
_atom_site_fract_y
_atom_site_fract_z
_atom_type_partial_charge
O0 O 0.14815 0.65496 0.14941 0.0
Cd1 Cd 0.14501 0.6188 0.1629 0.0
Cd2 Cd 0.14143 0.61426 0.10154 0.0
O3 O 0.15687 0.64871 0.09971 0.0
O4 O 0.15868 0.61836 0.20607 0.0
O5 O 0.17559 0.5985 0.16655 0.0
C6 C 0.17639 0.60517 0.19556 0.0
C7 C 0.15419 0.58256 0.06865 0.0
C8 C 0.15489 0.6631 0.12291 0.0
C9 C 0.09603 0.60695 0.14097 0.0
O10 O 0.10496 0.6126 0.11445 0.0
O11 O 0.10992 0.60494 0.16465 0.0
O12 O 0.14162 0.60073 0.05824 0.0
O13 O 0.16062 0.58294 0.09775 0.0
O14 O 0.65029 0.85089 0.36825 0.0
Cd15 Cd 0.6492 0.88743 0.35566 0.0
Cd16 Cd 0.64386 0.89082 0.41674 0.0
O17 O 0.65729 0.85561 0.41864 0.0
O18 O 0.66362 0.88793 0.31283 0.0
O19 O 0.6807 0.90648 0.35325 0.0
C20 C 0.68164 0.90033 0.32407 0.0
C21 C 0.6578 0.9222 0.44919 0.0
C22 C 0.65546 0.84182 0.39483 0.0
C23 C 0.60023 0.90136 0.37607 0.0
O24 O 0.60789 0.89439 0.40268 0.0
O25 O 0.61497 0.90325 0.35321 0.0
O26 O 0.64434 0.90471 0.4598 0.0
O27 O 0.66455 0.92116 0.42022 0.0
O28 O 0.36317 0.35815 0.64865 0.0
Cd29 Cd 0.3654 0.3932 0.66546 0.0
Cd30 Cd 0.36981 0.403 0.60366 0.0
O31 O 0.3589 0.36677 0.5985 0.0
O32 O 0.34997 0.39172 0.7076 0.0
O33 O 0.33486 0.41354 0.66857 0.0
C34 C 0.33286 0.40561 0.69696 0.0
C35 C 0.35545 0.43345 0.56987 0.0
C36 C 0.35941 0.35128 0.62068 0.0
C37 C 0.41378 0.41103 0.64656 0.0
O38 O 0.40518 0.40966 0.61897 0.0
O39 O 0.40031 0.40657 0.6701 0.0
O40 O 0.37053 0.41692 0.56059 0.0
O41 O 0.3473 0.43193 0.59819 0.0
O42 O 0.90886 0.11152 0.89704 0.0
Cd43 Cd 0.87245 0.11318 0.91031 0.0
Cd44 Cd 0.86826 0.11701 0.84923 0.0
O45 O 0.90341 0.10348 0.84702 0.0
O46 O 0.87215 0.09962 0.9536 0.0
O47 O 0.85312 0.08193 0.91399 0.0
C48 C 0.85946 0.08153 0.94312 0.0
C49 C 0.83636 0.10218 0.81833 0.0
C50 C 0.91754 0.10574 0.87043 0.0
C51 C 0.85845 0.1617 0.88827 0.0
O52 O 0.86496 0.15333 0.86181 0.0
O53 O 0.85689 0.14757 0.91178 0.0
O54 O 0.85365 0.11535 0.80663 0.0
O55 O 0.83788 0.09624 0.84755 0.0
O56 O 0.14376 0.35375 0.86229 0.0
Cd57 Cd 0.14132 0.38852 0.84452 0.0
Cd58 Cd 0.1347 0.39925 0.90599 0.0
O59 O 0.14512 0.363 0.91254 0.0
O60 O 0.15789 0.38684 0.80311 0.0
O61 O 0.17136 0.40973 0.84214 0.0
C62 C 0.17426 0.40151 0.81401 0.0
C63 C 0.14876 0.42984 0.93992 0.0
C64 C 0.14607 0.34726 0.89066 0.0
C65 C 0.0922 0.40641 0.86036 0.0
O66 O 0.09996 0.40604 0.88843 0.0
O67 O 0.10635 0.40109 0.8378 0.0
O68 O 0.13285 0.41387 0.94866 0.0
O69 O 0.15771 0.42781 0.91206 0.0
O70 O 0.86736 0.85259 0.14992 0.0
Cd71 Cd 0.86992 0.88709 0.16857 0.0
Cd72 Cd 0.876 0.89862 0.10665 0.0
O73 O 0.86591 0.8623 0.09981 0.0
O74 O 0.85428 0.8843 0.2105 0.0
O75 O 0.83975 0.90794 0.1729 0.0
C76 C 0.83756 0.89905 0.20079 0.0
C77 C 0.86218 0.92904 0.07233 0.0
C78 C 0.86505 0.84635 0.12145 0.0
C79 C 0.91876 0.90574 0.15203 0.0
O80 O 0.91069 0.90567 0.12411 0.0
O81 O 0.90495 0.89988 0.17472 0.0
O82 O 0.87811 0.91304 0.0639 0.0
O83 O 0.85302 0.92711 0.1001 0.0
O84 O 0.40687 0.61732 0.397 0.0
Cd85 Cd 0.37205 0.6205 0.41457 0.0
Cd86 Cd 0.36158 0.62633 0.35303 0.0
O87 O 0.39784 0.61589 0.34671 0.0
O88 O 0.37347 0.60481 0.45654 0.0
O89 O 0.35051 0.59074 0.41795 0.0
C90 C 0.35862 0.58838 0.4462 0.0
C91 C 0.33082 0.61138 0.32006 0.0
C92 C 0.41349 0.61486 0.36868 0.0
C93 C 0.35443 0.66953 0.3974 0.0
O94 O 0.35476 0.66135 0.36953 0.0
O95 O 0.35976 0.65571 0.42027 0.0
O96 O 0.34668 0.62712 0.3105 0.0
O97 O 0.3331 0.60308 0.34822 0.0
O98 O 0.65673 0.15298 0.64631 0.0
Cd99 Cd 0.64878 0.11969 0.6663 0.0
Cd100 Cd 0.6382 0.1085 0.60513 0.0
O101 O 0.64753 0.14474 0.59712 0.0
O102 O 0.66446 0.12198 0.70821 0.0
O103 O 0.67619 0.09548 0.67222 0.0
C104 C 0.67942 0.10513 0.69951 0.0
C105 C 0.65231 0.07736 0.57226 0.0
C106 C 0.65479 0.15966 0.61796 0.0
C107 C 0.59734 0.1045 0.65278 0.0
O108 O 0.6044 0.10184 0.62466 0.0
O109 O 0.61216 0.11165 0.6738 0.0
O110 O 0.63583 0.09262 0.5633 0.0
O111 O 0.66173 0.08041 0.59972 0.0
O112 O 0.85211 0.35228 0.8667 0.0
Cd113 Cd 0.8589 0.38752 0.85086 0.0
Cd114 Cd 0.86791 0.39272 0.91272 0.0
O115 O 0.85496 0.35771 0.91775 0.0
O116 O 0.84553 0.38635 0.80754 0.0
O117 O 0.83007 0.41001 0.8444 0.0
C118 C 0.82894 0.4016 0.81619 0.0
C119 C 0.85433 0.42531 0.94327 0.0
C120 C 0.85065 0.34398 0.89444 0.0
C121 C 0.91032 0.39895 0.86882 0.0
O122 O 0.90319 0.39545 0.89674 0.0
O123 O 0.8951 0.39877 0.84633 0.0
O124 O 0.86837 0.40859 0.95458 0.0
O125 O 0.84695 0.42289 0.91469 0.0
O126 O 0.35707 0.16127 0.63721 0.0
Cd127 Cd 0.36403 0.12639 0.65411 0.0
Cd128 Cd 0.37515 0.12053 0.59251 0.0
O129 O 0.36273 0.15565 0.58657 0.0
O130 O 0.34953 0.12774 0.69685 0.0
O131 O 0.33539 0.10342 0.65983 0.0
C132 C 0.33346 0.11203 0.68788 0.0
C133 C 0.36193 0.08836 0.56087 0.0
C134 C 0.35697 0.16941 0.60933 0.0
C135 C 0.41614 0.11493 0.63895 0.0
O136 O 0.40982 0.11739 0.61053 0.0
O137 O 0.40027 0.11598 0.66067 0.0
O138 O 0.3769 0.10473 0.55063 0.0
O139 O 0.3536 0.09078 0.58902 0.0
O140 O 0.6549 0.65282 0.3641 0.0
Cd141 Cd 0.64655 0.61971 0.34389 0.0
Cd142 Cd 0.63581 0.60857 0.40535 0.0
O143 O 0.6457 0.64465 0.41333 0.0
O144 O 0.66158 0.62244 0.30162 0.0
O145 O 0.67398 0.59568 0.33688 0.0
C146 C 0.67675 0.60558 0.30965 0.0
C147 C 0.64955 0.57732 0.43828 0.0
C148 C 0.65316 0.65947 0.39249 0.0
C149 C 0.59496 0.60489 0.35769 0.0
O150 O 0.60196 0.60225 0.38583 0.0
O151 O 0.60986 0.61187 0.33666 0.0
O152 O 0.63324 0.59279 0.44721 0.0
O153 O 0.65901 0.58022 0.41081 0.0
O154 O 0.10724 0.89666 0.11056 0.0
Cd155 Cd 0.14238 0.89378 0.09406 0.0
Cd156 Cd 0.15221 0.88961 0.15547 0.0
O157 O 0.116 0.9005 0.16072 0.0
O158 O 0.14199 0.90961 0.05216 0.0
O159 O 0.1636 0.92377 0.09201 0.0
C160 C 0.15625 0.9262 0.06343 0.0
C161 C 0.18276 0.90498 0.18832 0.0
C162 C 0.10046 0.90037 0.13858 0.0
C163 C 0.16015 0.84543 0.11305 0.0
O164 O 0.1591 0.85416 0.1406 0.0
O165 O 0.15533 0.85875 0.08952 0.0
O166 O 0.16657 0.88975 0.19827 0.0
O167 O 0.18088 0.91263 0.15982 0.0
O168 O 0.85577 0.65763 0.13534 0.0
Cd169 Cd 0.86255 0.62354 0.15388 0.0
Cd170 Cd 0.87307 0.61379 0.0926 0.0
O171 O 0.86477 0.65039 0.08582 0.0
O172 O 0.84688 0.62491 0.19589 0.0
O173 O 0.8344 0.59996 0.15852 0.0
C174 C 0.8315 0.60869 0.18637 0.0
C175 C 0.8578 0.58324 0.0598 0.0
C176 C 0.85794 0.66498 0.10727 0.0
C177 C 0.91354 0.60708 0.13997 0.0
O178 O 0.90664 0.6057 0.11165 0.0
O179 O 0.89879 0.61395 0.16121 0.0
O180 O 0.87446 0.59826 0.05054 0.0
O181 O 0.84874 0.58638 0.08745 0.0
O182 O 0.15723 0.15901 0.8703 0.0
Cd183 Cd 0.15057 0.12515 0.85094 0.0
Cd184 Cd 0.14131 0.11429 0.91284 0.0
O185 O 0.14965 0.15085 0.91999 0.0
O186 O 0.16519 0.12774 0.80837 0.0
O187 O 0.17898 0.10221 0.84427 0.0
C188 C 0.18106 0.11161 0.81665 0.0
C189 C 0.1562 0.08374 0.94593 0.0
C190 C 0.15572 0.16587 0.89864 0.0
C191 C 0.10007 0.10782 0.86626 0.0
O192 O 0.10753 0.10625 0.89432 0.0
O193 O 0.11433 0.11506 0.84464 0.0
O194 O 0.13972 0.09897 0.95502 0.0
O195 O 0.16535 0.08668 0.9183 0.0
O196 O 0.60344 0.3943 0.6078 0.0
Cd197 Cd 0.63952 0.39089 0.59399 0.0
Cd198 Cd 0.64479 0.3876 0.65518 0.0
O199 O 0.61034 0.40292 0.65738 0.0
O200 O 0.64022 0.4048 0.55096 0.0
O201 O 0.6601 0.42131 0.59075 0.0
C202 C 0.65358 0.42231 0.56171 0.0
C203 C 0.67654 0.40123 0.68736 0.0
C204 C 0.59568 0.40111 0.63445 0.0
C205 C 0.65197 0.34206 0.6161 0.0
O206 O 0.64673 0.35105 0.64271 0.0
O207 O 0.65334 0.35584 0.59224 0.0
O208 O 0.6587 0.38838 0.69823 0.0
O209 O 0.67585 0.40734 0.65816 0.0
O210 O 0.3664 0.85828 0.35863 0.0
Cd211 Cd 0.36981 0.89343 0.34243 0.0
Cd212 Cd 0.37339 0.90273 0.40427 0.0
O213 O 0.36162 0.86671 0.40875 0.0
O214 O 0.35504 0.89281 0.29992 0.0
O215 O 0.33991 0.91464 0.33895 0.0
C216 C 0.33817 0.90709 0.31037 0.0
C217 C 0.35869 0.93332 0.43759 0.0
C218 C 0.36203 0.85134 0.38642 0.0
C219 C 0.41819 0.9103 0.36271 0.0
O220 O 0.40914 0.90896 0.39008 0.0
O221 O 0.40504 0.90611 0.33883 0.0
O222 O 0.37331 0.91655 0.44739 0.0
O223 O 0.3512 0.93198 0.40897 0.0
C224 C 0.15169 0.80589 0.08618 0.0
C225 C 0.1646 0.81902 0.10896 0.0
C226 C 0.15228 0.78024 0.08563 0.0
C227 C 0.16673 0.76754 0.10779 0.0
C228 C 0.18131 0.78087 0.12921 0.0
C229 C 0.17972 0.80645 0.12993 0.0
C230 C 0.13595 0.76678 0.06296 0.0
C231 C 0.19758 0.76807 0.15254 0.0
C232 C 0.14459 0.70593 0.13682 0.0
C233 C 0.15853 0.68967 0.11888 0.0
C234 C 0.14688 0.73124 0.13298 0.0
C235 C 0.16412 0.74061 0.11135 0.0
C236 C 0.17858 0.72428 0.0935 0.0
C237 C 0.1753 0.69893 0.09709 0.0
C238 C 0.1306 0.74795 0.15189 0.0
C239 C 0.19765 0.7336 0.07094 0.0
H240 H 0.13983 0.81558 0.07011 0.0
H241 H 0.18987 0.81662 0.1474 0.0
H242 H 0.14624 0.75219 0.05072 0.0
H243 H 0.12089 0.75783 0.07607 0.0
H244 H 0.12784 0.77916 0.0452 0.0
H245 H 0.21054 0.78089 0.16398 0.0
H246 H 0.18619 0.75944 0.17096 0.0
H247 H 0.20815 0.75334 0.14094 0.0
H248 H 0.13139 0.69883 0.15343 0.0
H249 H 0.18617 0.68635 0.0833 0.0
H250 H 0.1203 0.76026 0.13605 0.0
H251 H 0.14187 0.75962 0.16744 0.0
H252 H 0.11733 0.7377 0.16655 0.0
H253 H 0.18897 0.74509 0.0527 0.0
H254 H 0.20774 0.71853 0.05929 0.0
H255 H 0.21095 0.74533 0.08356 0.0
C256 C 0.45785 0.90148 0.33633 0.0
C257 C 0.44474 0.9143 0.35919 0.0
C258 C 0.48351 0.90154 0.33628 0.0
C259 C 0.49626 0.91537 0.35907 0.0
C260 C 0.48301 0.92989 0.38061 0.0
C261 C 0.45739 0.92882 0.3808 0.0
C262 C 0.49689 0.8853 0.31344 0.0
C263 C 0.49589 0.94551 0.40461 0.0
C264 C 0.55701 0.89158 0.38874 0.0
C265 C 0.5738 0.90548 0.37151 0.0
C266 C 0.5318 0.8944 0.38442 0.0
C267 C 0.52309 0.91214 0.36307 0.0
C268 C 0.53995 0.92655 0.34592 0.0
C269 C 0.56518 0.92274 0.34995 0.0
C270 C 0.5145 0.87817 0.40256 0.0
C271 C 0.53133 0.94615 0.32369 0.0
H272 H 0.44809 0.89008 0.31976 0.0
H273 H 0.44724 0.93891 0.39834 0.0
H274 H 0.51187 0.89545 0.30177 0.0
H275 H 0.50531 0.86984 0.32632 0.0
H276 H 0.48454 0.87774 0.29522 0.0
H277 H 0.48322 0.95855 0.41616 0.0
H278 H 0.50402 0.93365 0.42289 0.0
H279 H 0.511 0.95595 0.39358 0.0
H280 H 0.56363 0.87802 0.40516 0.0
H281 H 0.57817 0.93357 0.33673 0.0
H282 H 0.50215 0.86839 0.38621 0.0
H283 H 0.5029 0.88942 0.4182 0.0
H284 H 0.52428 0.86446 0.41704 0.0
H285 H 0.51983 0.93799 0.30506 0.0
H286 H 0.54677 0.95607 0.31255 0.0
H287 H 0.51979 0.95951 0.33645 0.0
C288 C 0.37122 0.30847 0.63194 0.0
C289 C 0.35727 0.32486 0.61425 0.0
C290 C 0.36954 0.28324 0.62711 0.0
C291 C 0.35287 0.27403 0.60468 0.0
C292 C 0.33871 0.29049 0.58662 0.0
C293 C 0.34138 0.31583 0.59128 0.0
C294 C 0.38551 0.26642 0.64627 0.0
C295 C 0.32029 0.28133 0.56312 0.0
C296 C 0.36576 0.20845 0.58133 0.0
C297 C 0.3524 0.19568 0.60406 0.0
C298 C 0.36504 0.23408 0.57995 0.0
C299 C 0.35006 0.24711 0.60122 0.0
C300 C 0.33498 0.2341 0.62241 0.0
C301 C 0.33666 0.20855 0.62396 0.0
C302 C 0.38185 0.24721 0.55752 0.0
C303 C 0.3182 0.24722 0.64484 0.0
H304 H 0.38375 0.31545 0.64945 0.0
H305 H 0.33051 0.32853 0.57771 0.0
H306 H 0.37398 0.25491 0.66172 0.0
H307 H 0.39586 0.25398 0.63065 0.0
H308 H 0.39872 0.2766 0.66109 0.0
H309 H 0.31141 0.29647 0.5501 0.0
H310 H 0.32918 0.2689 0.54609 0.0
H311 H 0.30595 0.27062 0.57535 0.0
H312 H 0.37807 0.19853 0.56604 0.0
H313 H 0.32613 0.19866 0.64135 0.0
H314 H 0.39701 0.25576 0.57086 0.0
H315 H 0.37203 0.26206 0.54517 0.0
H316 H 0.38983 0.23464 0.53985 0.0
H317 H 0.32918 0.25599 0.66355 0.0
H318 H 0.30491 0.23458 0.656 0.0
H319 H 0.30799 0.26186 0.63257 0.0
C320 C 0.06104 0.11775 0.83877 0.0
C321 C 0.074 0.10298 0.85976 0.0
C322 C 0.03542 0.11643 0.83698 0.0
C323 C 0.02264 0.09947 0.85602 0.0
C324 C 0.03591 0.08318 0.87531 0.0
C325 C 0.0614 0.08541 0.87733 0.0
C326 C 0.02197 0.13447 0.81659 0.0
C327 C 0.02309 0.06437 0.8953 0.0
C328 C 0.95988 0.11639 0.88674 0.0
C329 C 0.94433 0.10353 0.86654 0.0
C330 C 0.98531 0.11556 0.88305 0.0
C331 C 0.99557 0.10095 0.85907 0.0
C332 C 0.97999 0.08764 0.83879 0.0
C333 C 0.95449 0.08937 0.84248 0.0
C334 C 1.00119 0.13047 0.90478 0.0
C335 C 0.99028 0.07136 0.81352 0.0
H336 H 0.07075 0.13147 0.82533 0.0
H337 H 0.07144 0.07382 0.89339 0.0
H338 H 0.00778 0.12511 0.80247 0.0
H339 H 0.01254 0.14802 0.83165 0.0
H340 H 0.03448 0.14442 0.80055 0.0
H341 H 0.03604 0.05075 0.90508 0.0
H342 H 0.01373 0.07359 0.91505 0.0
H343 H 0.00895 0.05462 0.88151 0.0
H344 H 0.95213 0.12761 0.90514 0.0
H345 H 0.94251 0.07936 0.82687 0.0
H346 H 0.01333 0.14265 0.89101 0.0
H347 H 0.01305 0.1182 0.91875 0.0
H348 H 0.99028 0.14185 0.92115 0.0
H349 H 1.00186 0.08219 0.79733 0.0
H350 H 0.97573 0.06217 0.79975 0.0
H351 H 1.00215 0.0572 0.82418 0.0
C352 C 0.16367 0.31253 0.92179 0.0
C353 C 0.14846 0.32096 0.89774 0.0
C354 C 0.16699 0.28729 0.92674 0.0
C355 C 0.1542 0.2703 0.90778 0.0
C356 C 0.13803 0.2789 0.88439 0.0
C357 C 0.13568 0.30406 0.87937 0.0
C358 C 0.18483 0.27884 0.95136 0.0
C359 C 0.12351 0.2615 0.86417 0.0
C360 C 0.1748 0.20631 0.88763 0.0
C361 C 0.15892 0.1921 0.90583 0.0
C362 C 0.17503 0.23186 0.8902 0.0
C363 C 0.15842 0.24351 0.91075 0.0
C364 C 0.14338 0.22916 0.93056 0.0
C365 C 0.14403 0.20355 0.92812 0.0
C366 C 0.19186 0.2464 0.86928 0.0
C367 C 0.12511 0.24081 0.95239 0.0
H368 H 0.17364 0.32562 0.93593 0.0
H369 H 0.12365 0.31057 0.86101 0.0
H370 H 0.17609 0.2653 0.96711 0.0
H371 H 0.20049 0.2696 0.93989 0.0
H372 H 0.19193 0.29422 0.96567 0.0
H373 H 0.11026 0.27116 0.84888 0.0
H374 H 0.13608 0.25081 0.84911 0.0
H375 H 0.11334 0.24833 0.87903 0.0
H376 H 0.18651 0.19747 0.87058 0.0
H377 H 0.13163 0.1926 0.9421 0.0
H378 H 0.20079 0.26132 0.88264 0.0
H379 H 0.1811 0.25495 0.8502 0.0
H380 H 0.20623 0.23479 0.85853 0.0
H381 H 0.13354 0.25614 0.96548 0.0
H382 H 0.11749 0.22747 0.96939 0.0
H383 H 0.1098 0.24846 0.93847 0.0
C384 C 0.95782 0.89627 0.17953 0.0
C385 C 0.94508 0.91011 0.1573 0.0
C386 C 0.98348 0.89658 0.18052 0.0
C387 C 0.99658 0.91162 0.15936 0.0
C388 C 0.98364 0.92721 0.13876 0.0
C389 C 0.95804 0.92594 0.13759 0.0
C390 C 0.99651 0.87925 0.20232 0.0
C391 C 0.99686 0.94409 0.11652 0.0
C392 C 0.06557 0.91883 0.16857 0.0
C393 C 0.0741 0.90306 0.14515 0.0
C394 C 0.04033 0.92198 0.17356 0.0
C395 C 0.02343 0.90841 0.15538 0.0
C396 C 0.03211 0.8919 0.13242 0.0
C397 C 0.05728 0.88975 0.12727 0.0
C398 C 0.03173 0.94024 0.19759 0.0
C399 C 0.01481 0.87655 0.1131 0.0
H400 H 0.94782 0.88388 0.19465 0.0
H401 H 0.94819 0.93682 0.12056 0.0
H402 H 1.00462 0.86414 0.18848 0.0
H403 H 0.01167 0.88863 0.21463 0.0
H404 H 0.98396 0.87124 0.22001 0.0
H405 H 0.98436 0.95779 0.10597 0.0
H406 H 0.01186 0.95384 0.12875 0.0
H407 H 1.00517 0.93325 0.09735 0.0
H408 H 0.0786 0.92922 0.18229 0.0
H409 H 0.06387 0.87732 0.1094 0.0
H410 H 0.01937 0.93133 0.2147 0.0
H411 H 0.0211 0.95486 0.18586 0.0
H412 H 0.04717 0.94877 0.21047 0.0
H413 H 1.00229 0.86617 0.12864 0.0
H414 H 0.02459 0.8634 0.09777 0.0
H415 H 1.00339 0.88853 0.09814 0.0
C416 C 0.33528 0.70913 0.38219 0.0
C417 C 0.35035 0.6959 0.40253 0.0
C418 C 0.33425 0.73472 0.38359 0.0
C419 C 0.34932 0.7474 0.40511 0.0
C420 C 0.3636 0.73404 0.42681 0.0
C421 C 0.36367 0.70839 0.42554 0.0
C422 C 0.31817 0.74822 0.36071 0.0
C423 C 0.38038 0.74678 0.4496 0.0
C424 C 0.37265 0.80821 0.37506 0.0
C425 C 0.35895 0.82496 0.39254 0.0
C426 C 0.37013 0.78302 0.3797 0.0
C427 C 0.35286 0.77425 0.40168 0.0
C428 C 0.3389 0.79107 0.41946 0.0
C429 C 0.34241 0.81633 0.41503 0.0
C430 C 0.38592 0.7658 0.36087 0.0
C431 C 0.31984 0.78239 0.44244 0.0
H432 H 0.32479 0.69948 0.36456 0.0
H433 H 0.37547 0.69821 0.44117 0.0
H434 H 0.30816 0.76317 0.37267 0.0
H435 H 0.32966 0.75664 0.34223 0.0
H436 H 0.30472 0.73591 0.34929 0.0
H437 H 0.38781 0.73404 0.46744 0.0
H438 H 0.39593 0.75497 0.4366 0.0
H439 H 0.37074 0.76186 0.46172 0.0
H440 H 0.38567 0.81488 0.35791 0.0
H441 H 0.33172 0.82931 0.42843 0.0
H442 H 0.3743 0.75459 0.34517 0.0
H443 H 0.39572 0.75308 0.37671 0.0
H444 H 0.3996 0.77562 0.34634 0.0
H445 H 0.3055 0.77195 0.42984 0.0
H446 H 0.31104 0.79776 0.45512 0.0
H447 H 0.32813 0.76983 0.45979 0.0
C448 C 0.55724 0.08423 0.64341 0.0
C449 C 0.57106 0.10157 0.6598 0.0
C450 C 0.53164 0.08414 0.64511 0.0
C451 C 0.51955 0.10237 0.6628 0.0
C452 C 0.53348 0.11899 0.68094 0.0
C453 C 0.55914 0.11818 0.67953 0.0
C454 C 0.51755 0.06561 0.62615 0.0
C455 C 0.52138 0.13901 0.69962 0.0
C456 C 0.4598 0.12297 0.62669 0.0
C457 C 0.4424 0.11213 0.64636 0.0
C458 C 0.48485 0.12056 0.63254 0.0
C459 C 0.49285 0.10634 0.65824 0.0
C460 C 0.47538 0.09539 0.67835 0.0
C461 C 0.45028 0.09872 0.67242 0.0
C462 C 0.50278 0.13307 0.61091 0.0
C463 C 0.4832 0.07961 0.7055 0.0
H464 H 0.56646 0.07124 0.62832 0.0
H465 H 0.5698 0.13173 0.69205 0.0
H466 H 0.50223 0.05795 0.64006 0.0
H467 H 0.50958 0.07464 0.60528 0.0
H468 H 0.52936 0.05037 0.61808 0.0
H469 H 0.53435 0.14806 0.71591 0.0
H470 H 0.51407 0.15301 0.68334 0.0
H471 H 0.50575 0.13174 0.71327 0.0
H472 H 0.45378 0.13363 0.60675 0.0
H473 H 0.43684 0.09025 0.6876 0.0
H474 H 0.51373 0.1192 0.59822 0.0
H475 H 0.51569 0.14448 0.62462 0.0
H476 H 0.49356 0.14488 0.59339 0.0
H477 H 0.49301 0.06331 0.69657 0.0
H478 H 0.46744 0.07341 0.71985 0.0
H479 H 0.4961 0.08972 0.72076 0.0
C480 C 0.86831 0.20452 0.87372 0.0
C481 C 0.8545 0.18825 0.89184 0.0
C482 C 0.86566 0.22983 0.87705 0.0
C483 C 0.84814 0.23917 0.89832 0.0
C484 C 0.83381 0.22282 0.91636 0.0
C485 C 0.83748 0.19748 0.9133 0.0
C486 C 0.88181 0.24658 0.85799 0.0
C487 C 0.81445 0.23208 0.93851 0.0
C488 C 0.85939 0.30495 0.9223 0.0
C489 C 0.84647 0.31757 0.89909 0.0
C490 C 0.85919 0.27931 0.92337 0.0
C491 C 0.8451 0.26609 0.90129 0.0
C492 C 0.83048 0.2789 0.87943 0.0
C493 C 0.83171 0.30449 0.87819 0.0
C494 C 0.87555 0.26641 0.94649 0.0
C495 C 0.81457 0.26554 0.85619 0.0
H496 H 0.88169 0.19743 0.85736 0.0
H497 H 0.82671 0.18489 0.92722 0.0
H498 H 0.87048 0.25783 0.84204 0.0
H499 H 0.8918 0.25929 0.87368 0.0
H500 H 0.89536 0.23637 0.84372 0.0
H501 H 0.80455 0.21699 0.95041 0.0
H502 H 0.82282 0.24399 0.95657 0.0
H503 H 0.80104 0.24337 0.9255 0.0
H504 H 0.87099 0.31505 0.9383 0.0
H505 H 0.82155 0.31427 0.86038 0.0
H506 H 0.89085 0.25759 0.93374 0.0
H507 H 0.86541 0.25179 0.9589 0.0
H508 H 0.88334 0.27916 0.9641 0.0
H509 H 0.82622 0.2569 0.83805 0.0
H510 H 0.80149 0.27799 0.84435 0.0
H511 H 0.80415 0.25076 0.86796 0.0
C512 C 0.64289 0.69777 0.42139 0.0
C513 C 0.65799 0.68531 0.40028 0.0
C514 C 0.64421 0.72332 0.42427 0.0
C515 C 0.6615 0.73652 0.40623 0.0
C516 C 0.67814 0.72371 0.38689 0.0
C517 C 0.67591 0.6983 0.38375 0.0
C518 C 0.6258 0.73629 0.44465 0.0
C519 C 0.69731 0.73697 0.36797 0.0
C520 C 0.64501 0.7998 0.37708 0.0
C521 C 0.65751 0.81498 0.39811 0.0
C522 C 0.6458 0.77433 0.38001 0.0
C523 C 0.66 0.76364 0.40407 0.0
C524 C 0.67291 0.77883 0.42523 0.0
C525 C 0.67122 0.80439 0.42227 0.0
C526 C 0.63131 0.75886 0.35734 0.0
C527 C 0.68874 0.76809 0.45063 0.0
H528 H 0.62891 0.68776 0.43402 0.0
H529 H 0.68775 0.68863 0.3676 0.0
H530 H 0.63487 0.75023 0.45946 0.0
H531 H 0.61244 0.74596 0.42957 0.0
H532 H 0.61566 0.72343 0.46002 0.0
H533 H 0.71116 0.72426 0.35818 0.0
H534 H 0.68846 0.74673 0.34826 0.0
H535 H 0.70676 0.75083 0.38256 0.0
H536 H 0.63413 0.80788 0.3586 0.0
H537 H 0.68096 0.81608 0.43852 0.0
H538 H 0.61895 0.74639 0.37036 0.0
H539 H 0.64387 0.74734 0.3433 0.0
H540 H 0.62016 0.77006 0.34105 0.0
H541 H 0.67768 0.75608 0.46602 0.0
H542 H 0.69755 0.78238 0.46525 0.0
H543 H 0.7032 0.75658 0.44 0.0
C544 C 0.83739 0.70471 0.11772 0.0
C545 C 0.8546 0.69125 0.10067 0.0
C546 C 0.8368 0.7303 0.11604 0.0
C547 C 0.85441 0.74275 0.09769 0.0
C548 C 0.8709 0.72916 0.07897 0.0
C549 C 0.87058 0.70349 0.08037 0.0
C550 C 0.81843 0.74402 0.13566 0.0
C551 C 0.89028 0.74166 0.05957 0.0
C552 C 0.84907 0.8119 0.08827 0.0
C553 C 0.8628 0.82007 0.11391 0.0
C554 C 0.8462 0.78673 0.08238 0.0
C555 C 0.85795 0.76953 0.10208 0.0
C556 C 0.87253 0.77785 0.12729 0.0
C557 C 0.87447 0.80294 0.13313 0.0
C558 C 0.83004 0.77854 0.05578 0.0
C559 C 0.88589 0.76023 0.14844 0.0
H560 H 0.82487 0.69524 0.13323 0.0
H561 H 0.88402 0.69311 0.06732 0.0
H562 H 0.82776 0.75224 0.15616 0.0
H563 H 0.81015 0.75913 0.122 0.0
H564 H 0.80361 0.7319 0.14434 0.0
H565 H 0.89925 0.72886 0.04299 0.0
H566 H 0.88241 0.75709 0.04615 0.0
H567 H 0.90447 0.74931 0.07534 0.0
H568 H 0.83998 0.82513 0.07345 0.0
H569 H 0.88538 0.80922 0.15274 0.0
H570 H 0.81406 0.76848 0.06529 0.0
H571 H 0.84004 0.76577 0.04025 0.0
H572 H 0.82331 0.79414 0.04158 0.0
H573 H 0.87253 0.74901 0.16166 0.0
H574 H 0.89792 0.76974 0.16548 0.0
H575 H 0.89723 0.74756 0.1343 0.0
C576 C 0.64278 0.29976 0.63397 0.0
C577 C 0.65477 0.31528 0.61287 0.0
C578 C 0.6443 0.27431 0.63105 0.0
C579 C 0.65875 0.26403 0.60693 0.0
C580 C 0.67118 0.27959 0.58571 0.0
C581 C 0.66875 0.30508 0.58866 0.0
C582 C 0.6303 0.25843 0.65378 0.0
C583 C 0.68728 0.2693 0.56025 0.0
C584 C 0.67651 0.19906 0.62684 0.0
C585 C 0.65896 0.18564 0.61026 0.0
C586 C 0.678 0.22454 0.62387 0.0
C587 C 0.66098 0.23696 0.60468 0.0
C588 C 0.64405 0.22335 0.58661 0.0
C589 C 0.64347 0.19776 0.58931 0.0
C590 C 0.69683 0.23827 0.6428 0.0
C591 C 0.62524 0.23587 0.56639 0.0
H592 H 0.6317 0.30753 0.6525 0.0
H593 H 0.67811 0.31704 0.57236 0.0
H594 H 0.61825 0.24565 0.64081 0.0
H595 H 0.6432 0.24724 0.66772 0.0
H596 H 0.6189 0.26931 0.67016 0.0
H597 H 0.69573 0.28384 0.54568 0.0
H598 H 0.70203 0.25812 0.57082 0.0
H599 H 0.67652 0.25705 0.54483 0.0
H600 H 0.68864 0.18967 0.64288 0.0
H601 H 0.62975 0.18741 0.57666 0.0
H602 H 0.68773 0.24771 0.66258 0.0
H603 H 0.70587 0.25243 0.62825 0.0
H604 H 0.71103 0.22591 0.65247 0.0
H605 H 0.61169 0.24517 0.58159 0.0
H606 H 0.61538 0.22278 0.55105 0.0
H607 H 0.6339 0.25006 0.55155 0.0
C608 C 0.05368 0.39676 0.83173 0.0
C609 C 0.0659 0.41044 0.85463 0.0
C610 C 0.02804 0.39674 0.83004 0.0
C611 C 0.01443 0.41131 0.85117 0.0
C612 C 0.02684 0.42673 0.87253 0.0
C613 C 0.05243 0.42577 0.8744 0.0
C614 C 0.01558 0.37956 0.80748 0.0
C615 C 0.01306 0.44312 0.89477 0.0
C616 C 0.94557 0.41793 0.84002 0.0
C617 C 0.93675 0.40179 0.86285 0.0
C618 C 0.97087 0.42138 0.83585 0.0
C619 C 0.98754 0.40775 0.85424 0.0
C620 C 0.97858 0.39083 0.87654 0.0
C621 C 0.95334 0.38838 0.88091 0.0
C622 C 0.97975 0.44007 0.81251 0.0
C623 C 0.99564 0.37538 0.89603 0.0
H624 H 0.06406 0.38474 0.81658 0.0
H625 H 0.06188 0.43652 0.89195 0.0
H626 H 0.00733 0.36419 0.82073 0.0
H627 H 1.00058 0.38896 0.79489 0.0
H628 H 0.02852 0.37191 0.79001 0.0
H629 H 0.02523 0.45678 0.90605 0.0
H630 H 0.99821 0.45289 0.88232 0.0
H631 H 1.00448 0.4319 0.91341 0.0
H632 H 0.9327 0.42841 0.82619 0.0
H633 H 0.94652 0.37568 0.89833 0.0
H634 H 0.99258 0.43156 0.79565 0.0
H635 H 0.98995 0.45468 0.82491 0.0
H636 H 0.96449 0.44856 0.79927 0.0
H637 H 0.00857 0.36539 0.88065 0.0
H638 H 0.98569 0.36188 0.9107 0.0
H639 H 0.00664 0.38725 0.91166 0.0
C640 C 0.55693 0.61843 0.33045 0.0
C641 C 0.56869 0.60201 0.35057 0.0
C642 C 0.53129 0.61918 0.32866 0.0
C643 C 0.51721 0.60266 0.3468 0.0
C644 C 0.52917 0.58464 0.36496 0.0
C645 C 0.55475 0.5848 0.36704 0.0
C646 C 0.51932 0.63899 0.30951 0.0
C647 C 0.51493 0.56623 0.38395 0.0
C648 C 0.45695 0.62327 0.38153 0.0
C649 C 0.43983 0.61217 0.36172 0.0
C650 C 0.48208 0.62095 0.37616 0.0
C651 C 0.49044 0.60655 0.35081 0.0
C652 C 0.47326 0.59535 0.33054 0.0
C653 C 0.44808 0.59859 0.33597 0.0
C654 C 0.49969 0.63374 0.39793 0.0
C655 C 0.48148 0.57938 0.30376 0.0
H656 H 0.56768 0.63187 0.31787 0.0
H657 H 0.56385 0.57194 0.38242 0.0
H658 H 0.50391 0.63154 0.29563 0.0
H659 H 0.51173 0.65307 0.32546 0.0
H660 H 0.53245 0.64799 0.29335 0.0
H661 H 0.5267 0.55113 0.3925 0.0
H662 H 0.50665 0.57543 0.40452 0.0
H663 H 0.49982 0.55836 0.36987 0.0
H664 H 0.45064 0.63406 0.40122 0.0
H665 H 0.43486 0.58993 0.32068 0.0
H666 H 0.51271 0.64507 0.38429 0.0
H667 H 0.51053 0.62003 0.41103 0.0
H668 H 0.4902 0.64567 0.4151 0.0
H669 H 0.49453 0.58942 0.2886 0.0
H670 H 0.46592 0.57299 0.2892 0.0
H671 H 0.49125 0.5632 0.31309 0.0
C672 C 0.56072 0.4225 0.66073 0.0
C673 C 0.56926 0.40537 0.63894 0.0
C674 C 0.53551 0.42648 0.66474 0.0
C675 C 0.51858 0.4124 0.64729 0.0
C676 C 0.52722 0.39479 0.62568 0.0
C677 C 0.55242 0.39179 0.62142 0.0
C678 C 0.52699 0.44593 0.68725 0.0
C679 C 0.50984 0.3789 0.6072 0.0
C680 C 0.45314 0.402 0.67345 0.0
C681 C 0.44025 0.41511 0.65067 0.0
C682 C 0.47881 0.40189 0.6737 0.0
C683 C 0.49177 0.41584 0.65122 0.0
C684 C 0.47875 0.43069 0.62985 0.0
C685 C 0.45312 0.4298 0.62944 0.0
C686 C 0.49194 0.38532 0.69636 0.0
C687 C 0.49186 0.44645 0.60619 0.0
H688 H 0.57375 0.4331 0.67418 0.0
H689 H 0.55898 0.37834 0.6048 0.0
H690 H 0.51565 0.45954 0.67465 0.0
H691 H 0.51532 0.43771 0.70568 0.0
H692 H 0.54248 0.45558 0.69865 0.0
H693 H 0.51954 0.36525 0.59254 0.0
H694 H 0.49733 0.36907 0.62333 0.0
H695 H 0.4984 0.39042 0.59169 0.0
H696 H 0.44321 0.39046 0.6897 0.0
H697 H 0.44314 0.44009 0.61195 0.0
H698 H 0.50701 0.3952 0.7082 0.0
H699 H 0.50021 0.36987 0.6833 0.0
H700 H 0.47946 0.37776 0.71445 0.0
H701 H 0.50704 0.45661 0.61747 0.0
H702 H 0.47936 0.45975 0.59485 0.0
H703 H 0.49993 0.43472 0.58773 0.0
C704 C 0.05882 0.59026 0.1681 0.0
C705 C 0.06922 0.60459 0.14435 0.0
C706 C 0.03327 0.58824 0.17112 0.0
C707 C 0.0179 0.60143 0.15049 0.0
C708 C 0.02841 0.61625 0.12688 0.0
C709 C 0.05387 0.61737 0.12385 0.0
C710 C 0.02273 0.57175 0.19601 0.0
C711 C 0.01275 0.63106 0.10481 0.0
C712 C 0.95263 0.58516 0.13 0.0
C713 C 0.93951 0.60251 0.14727 0.0
C714 C 0.97808 0.58321 0.13287 0.0
C715 C 0.9908 0.59957 0.15272 0.0
C716 C 0.97748 0.61628 0.17144 0.0
C717 C 0.9519 0.61732 0.1688 0.0
C718 C 0.99148 0.56463 0.1132 0.0
C719 C 0.99034 0.6344 0.19237 0.0
H720 H 0.07064 0.58031 0.18394 0.0
H721 H 0.06181 0.62872 0.1057 0.0
H722 H 0.01064 0.58233 0.21181 0.0
H723 H 0.01134 0.55738 0.18493 0.0
H724 H 0.03714 0.56281 0.21027 0.0
H725 H 0.02381 0.64269 0.08887 0.0
H726 H 1.00131 0.61869 0.09038 0.0
H727 H 1.0002 0.64298 0.11831 0.0
H728 H 0.94302 0.57354 0.11353 0.0
H729 H 0.94179 0.63087 0.18201 0.0
H730 H 1.00546 0.55501 0.12738 0.0
H731 H 1.00111 0.57404 0.09379 0.0
H732 H 0.97887 0.55087 0.10296 0.0
H733 H 1.00439 0.62518 0.20682 0.0
H734 H 0.97742 0.64408 0.20813 0.0
H735 H 0.99986 0.64818 0.17771 0.0
C736 C 0.14687 0.55885 0.01965 0.0
C737 C 0.15907 0.56111 0.04838 0.0
C738 C 0.14848 0.53739 1.00185 0.0
C739 C 0.16302 0.51776 0.0127 0.0
C740 C 0.17656 0.52045 0.04075 0.0
C741 C 0.17423 0.54201 0.05845 0.0
C742 C 0.13347 0.53522 0.97231 0.0
C743 C 0.19269 0.50017 0.05273 0.0
C744 C 0.14058 0.4553 0.98721 0.0
C745 C 0.15478 0.45087 0.96046 0.0
C746 C 0.14373 0.47658 0.00503 0.0
C747 C 0.16186 0.49374 0.99628 0.0
C748 C 0.17718 0.48877 0.97032 0.0
C749 C 0.1733 0.46748 0.95249 0.0
C750 C 0.12676 0.48126 0.03227 0.0
C751 C 0.19706 0.50635 0.96068 0.0
H752 H 0.1351 0.57348 0.01164 0.0
H753 H 0.18385 0.54367 0.08051 0.0
H754 H 0.14516 0.52953 0.95242 0.0
H755 H 0.11927 0.52094 0.97546 0.0
H756 H 0.12428 0.55264 0.96607 0.0
H757 H 0.20454 0.50631 0.07232 0.0
H758 H 0.18118 0.48483 0.06115 0.0
H759 H 0.20441 0.49301 0.03363 0.0
H760 H 0.12621 0.4426 0.99357 0.0
H761 H 0.18445 0.46412 0.93197 0.0
H762 H 0.11538 0.49758 0.02732 0.0
H763 H 0.13741 0.48516 0.05376 0.0
H764 H 0.11443 0.46555 0.03696 0.0
H765 H 0.18873 0.52317 0.95095 0.0
H766 H 0.20938 0.4984 0.94271 0.0
H767 H 0.20812 0.51182 0.98129 0.0
C768 C 0.72219 0.92084 0.31534 0.0
C769 C 0.70351 0.90541 0.3046 0.0
C770 C 0.74408 0.92351 0.29836 0.0
C771 C 0.74752 0.91005 0.27039 0.0
C772 C 0.72834 0.89517 0.2589 0.0
C773 C 0.70653 0.89322 0.27598 0.0
C774 C 0.76387 0.93998 0.311 0.0
C775 C 0.73132 0.88022 0.22943 0.0
C776 C 0.79872 0.92199 0.2119 0.0
C777 C 0.81571 0.90399 0.22036 0.0
C778 C 0.77692 0.92509 0.22895 0.0
C779 C 0.77182 0.90949 0.25461 0.0
C780 C 0.78928 0.89182 0.26376 0.0
C781 C 0.81106 0.88945 0.24673 0.0
C782 C 0.75901 0.94449 0.21889 0.0
C783 C 0.78447 0.87456 0.29067 0.0
H784 H 0.71994 0.93044 0.33733 0.0
H785 H 0.69222 0.88123 0.26749 0.0
H786 H 0.77934 0.92876 0.31958 0.0
H787 H 0.77105 0.952 0.2922 0.0
H788 H 0.75724 0.95155 0.3306 0.0
H789 H 0.7142 0.87066 0.22269 0.0
H790 H 0.73713 0.89205 0.20971 0.0
H791 H 0.74583 0.86635 0.23296 0.0
H792 H 0.80225 0.93339 0.19166 0.0
H793 H 0.82404 0.87546 0.25343 0.0
H794 H 0.75308 0.95547 0.23935 0.0
H795 H 0.74247 0.93574 0.20891 0.0
H796 H 0.76689 0.95696 0.20101 0.0
H797 H 0.77999 0.88499 0.31217 0.0
H798 H 0.80034 0.86255 0.29567 0.0
H799 H 0.76846 0.86287 0.28516 0.0
C800 C 0.33322 0.47273 0.55902 0.0
C801 C 0.34983 0.45468 0.54953 0.0
C802 C 0.33049 0.49445 0.54175 0.0
C803 C 0.34503 0.49834 0.51475 0.0
C804 C 0.36091 0.47965 0.50429 0.0
C805 C 0.36295 0.45802 0.52164 0.0
C806 C 0.31293 0.5137 0.55323 0.0
C807 C 0.37696 0.48309 0.47584 0.0
C808 C 0.33523 0.54951 0.45571 0.0
C809 C 0.35271 0.56664 0.46551 0.0
C810 C 0.33147 0.5277 0.4725 0.0
C811 C 0.34586 0.52275 0.49931 0.0
C812 C 0.36288 0.54041 0.50988 0.0
C813 C 0.36594 0.56217 0.49303 0.0
C814 C 0.31277 0.50957 0.46088 0.0
C815 C 0.37883 0.53579 0.53812 0.0
H816 H 0.32289 0.47023 0.58043 0.0
H817 H 0.3758 0.44418 0.51405 0.0
H818 H 0.32334 0.52926 0.56319 0.0
H819 H 0.30185 0.52089 0.53355 0.0
H820 H 0.30044 0.50654 0.57157 0.0
H821 H 0.38705 0.46619 0.46956 0.0
H822 H 0.36585 0.48882 0.45544 0.0
H823 H 0.39045 0.49781 0.48044 0.0
H824 H 0.32482 0.55289 0.43458 0.0
H825 H 0.37948 0.57528 0.50082 0.0
H826 H 0.30113 0.50314 0.48049 0.0
H827 H 0.3222 0.49335 0.45109 0.0
H828 H 0.30088 0.51745 0.44241 0.0
H829 H 0.36742 0.53099 0.55868 0.0
H830 H 0.39027 0.55187 0.54422 0.0
H831 H 0.39106 0.52005 0.53344 0.0
C832 C 0.71689 0.08004 0.71074 0.0
C833 C 0.70086 0.09891 0.71919 0.0
C834 C 0.7388 0.07622 0.72728 0.0
C835 C 0.74497 0.09194 0.75241 0.0
C836 C 0.72833 0.11031 0.76183 0.0
C837 C 0.70643 0.11341 0.7453 0.0
C838 C 0.75579 0.05607 0.71701 0.0
C839 C 0.73426 0.12767 0.78825 0.0
C840 C 0.79591 0.08108 0.81132 0.0
C841 C 0.81439 0.09625 0.79945 0.0
C842 C 0.77367 0.07815 0.79521 0.0
C843 C 0.76971 0.09107 0.76695 0.0
C844 C 0.78877 0.10547 0.75418 0.0
C845 C 0.81091 0.1077 0.77043 0.0
C846 C 0.75403 0.06216 0.80919 0.0
C847 C 0.78527 0.11981 0.7243 0.0
H848 H 0.71265 0.06865 0.69071 0.0
H849 H 0.69417 0.12802 0.75207 0.0
H850 H 0.77207 0.06411 0.70545 0.0
H851 H 0.76233 0.04553 0.73754 0.0
H852 H 0.74687 0.04333 0.70031 0.0
H853 H 0.71879 0.14006 0.79382 0.0
H854 H 0.73913 0.11735 0.80967 0.0
H855 H 0.75033 0.13898 0.78179 0.0
H856 H 0.79851 0.07203 0.83363 0.0
H857 H 0.82507 0.11945 0.76102 0.0
H858 H 0.74586 0.05023 0.79099 0.0
H859 H 0.73918 0.07377 0.81871 0.0
H860 H 0.76116 0.05053 0.82843 0.0
H861 H 0.77865 0.10769 0.70532 0.0
H862 H 0.80239 0.12882 0.7164 0.0
H863 H 0.77118 0.13409 0.728 0.0
C864 C 0.86129 0.45182 0.9899 0.0
C865 C 0.84879 0.44754 0.96178 0.0
C866 C 0.85908 0.47412 0.00577 0.0
C867 C 0.84365 0.49254 0.99356 0.0
C868 C 0.82979 0.4878 0.96622 0.0
C869 C 0.83269 0.46541 0.95046 0.0
C870 C 0.87441 0.47846 0.03465 0.0
C871 C 0.81273 0.50675 0.95287 0.0
C872 C 0.83308 0.54528 0.04992 0.0
C873 C 0.85125 0.56177 0.04035 0.0
C874 C 0.82924 0.52323 0.03369 0.0
C875 C 0.84421 0.51742 0.00769 0.0
C876 C 0.86174 0.53456 0.99708 0.0
C877 C 0.86489 0.55656 0.01336 0.0
C878 C 0.80998 0.50568 0.04528 0.0
C879 C 0.87827 0.52904 0.96965 0.0
H880 H 0.87375 0.43814 0.99888 0.0
H881 H 0.82283 0.46218 0.92886 0.0
H882 H 0.88799 0.49306 0.02988 0.0
H883 H 0.86277 0.48478 0.05429 0.0
H884 H 0.88435 0.46179 0.04219 0.0
H885 H 0.80072 0.49906 0.93439 0.0
H886 H 0.80115 0.51468 0.97162 0.0
H887 H 0.82354 0.5219 0.94255 0.0
H888 H 0.82234 0.54923 0.07063 0.0
H889 H 0.87894 0.56919 0.0057 0.0
H890 H 0.81891 0.48981 0.05663 0.0
H891 H 0.79899 0.49859 0.02544 0.0
H892 H 0.79751 0.51434 0.06253 0.0
H893 H 0.89044 0.51352 0.97563 0.0
H894 H 0.88982 0.54493 0.96307 0.0
H895 H 0.86734 0.52352 0.94899 0.0
C896 C 0.2056 0.11934 0.76841 0.0
C897 C 0.20203 0.10582 0.79593 0.0
C898 C 0.2269 0.1167 0.75049 0.0
C899 C 0.24504 0.09986 0.76002 0.0
C900 C 0.24092 0.08506 0.78671 0.0
C901 C 0.21953 0.08834 0.80452 0.0
C902 C 0.23058 0.13301 0.72235 0.0
C903 C 0.2596 0.06656 0.79726 0.0
C904 C 0.29453 0.08909 0.69892 0.0
C905 C 0.31238 0.10598 0.70833 0.0
C906 C 0.27304 0.08573 0.71655 0.0
C907 C 0.2692 0.09987 0.74388 0.0
C908 C 0.28769 0.11608 0.7542 0.0
C909 C 0.30907 0.11879 0.73645 0.0
C910 C 0.254 0.06788 0.70514 0.0
C911 C 0.28431 0.13168 0.78305 0.0
H912 H 0.19217 0.13284 0.76147 0.0
H913 H 0.21686 0.0777 0.82564 0.0
H914 H 0.24601 0.14572 0.7268 0.0
H915 H 0.2354 0.12196 0.7015 0.0
H916 H 0.21407 0.14398 0.71685 0.0
H917 H 0.25222 0.05414 0.81553 0.0
H918 H 0.26598 0.05545 0.77714 0.0
H919 H 0.27575 0.07616 0.80698 0.0
H920 H 0.297 0.079 0.67733 0.0
H921 H 0.32276 0.13183 0.74401 0.0
H922 H 0.23808 0.07805 0.6958 0.0
H923 H 0.24733 0.05637 0.72475 0.0
H924 H 0.26115 0.05582 0.68636 0.0
H925 H 0.26914 0.14477 0.77916 0.0
H926 H 0.30103 0.1422 0.78904 0.0
H927 H 0.27925 0.12016 0.80339 0.0
C928 C 0.67424 0.53964 0.44976 0.0
C929 C 0.65556 0.55592 0.45812 0.0
C930 C 0.6781 0.51798 0.4668 0.0
C931 C 0.66262 0.51231 0.49238 0.0
C932 C 0.64437 0.52915 0.50159 0.0
C933 C 0.64122 0.55079 0.48454 0.0
C934 C 0.69811 0.50075 0.45671 0.0
C935 C 0.62726 0.52374 0.52848 0.0
C936 C 0.64725 0.44677 0.51311 0.0
C937 C 0.65911 0.44392 0.54198 0.0
C938 C 0.64919 0.46856 0.49604 0.0
C939 C 0.6637 0.48791 0.5078 0.0
C940 C 0.67701 0.48459 0.53591 0.0
C941 C 0.67438 0.46269 0.55285 0.0
C942 C 0.63446 0.47139 0.46636 0.0
C943 C 0.6931 0.50457 0.54886 0.0
H944 H 0.68551 0.54355 0.42949 0.0
H945 H 0.62674 0.56324 0.49122 0.0
H946 H 0.709 0.49479 0.47723 0.0
H947 H 0.68991 0.48416 0.44613 0.0
H948 H 0.71057 0.50923 0.43928 0.0
H949 H 0.61487 0.53928 0.53369 0.0
H950 H 0.61595 0.50751 0.52279 0.0
H951 H 0.6378 0.51938 0.54991 0.0
H952 H 0.63543 0.43238 0.50447 0.0
H953 H 0.68374 0.46058 0.57503 0.0
H954 H 0.64632 0.47765 0.4469 0.0
H955 H 0.62017 0.48549 0.46989 0.0
H956 H 0.62542 0.45408 0.45925 0.0
H957 H 0.70484 0.51232 0.53014 0.0
H958 H 0.70494 0.49791 0.56816 0.0
H959 H 0.68156 0.51961 0.55799 0.0
C960 C 0.3125 0.89962 0.26312 0.0
C961 C 0.31649 0.91271 0.29087 0.0
C962 C 0.29063 0.90202 0.24634 0.0
C963 C 0.27239 0.91826 0.25722 0.0
C964 C 0.2769 0.93267 0.28414 0.0
C965 C 0.29882 0.92955 0.30087 0.0
C966 C 0.28649 0.88605 0.21799 0.0
C967 C 0.25816 0.95061 0.29604 0.0
C968 C 0.22131 0.92874 0.19839 0.0
C969 C 0.20404 0.9114 0.20818 0.0
C970 C 0.24308 0.9324 0.21528 0.0
C971 C 0.24784 0.91803 0.24217 0.0
C972 C 0.22993 0.90134 0.25291 0.0
C973 C 0.2082 0.89841 0.23597 0.0
C974 C 0.26145 0.95082 0.20355 0.0
C975 C 0.23432 0.88542 0.28123 0.0
H976 H 0.32603 0.88657 0.25517 0.0
H977 H 0.30184 0.93986 0.32217 0.0
H978 H 0.27135 0.87306 0.22276 0.0
H979 H 0.28101 0.89733 0.19761 0.0
H980 H 0.30301 0.87541 0.21154 0.0
H981 H 0.26579 0.9629 0.31428 0.0
H982 H 0.251 0.96189 0.27652 0.0
H983 H 0.24248 0.94053 0.30625 0.0
H984 H 0.21816 0.93898 0.17706 0.0
H985 H 0.19496 0.88499 0.24379 0.0
H986 H 0.27732 0.94115 0.19322 0.0
H987 H 0.26839 0.96215 0.22316 0.0
H988 H 0.25356 0.96304 0.18543 0.0
H989 H 0.24964 0.87269 0.2764 0.0
H990 H 0.21796 0.87449 0.28768 0.0
H991 H 0.23965 0.89675 0.30163 0.0
C992 C 0.6443 0.05066 0.52607 0.0
C993 C 0.65854 0.05596 0.55251 0.0
C994 C 0.64766 0.02901 0.50909 0.0
C995 C 0.66602 0.01232 0.51841 0.0
C996 C 0.68139 0.01817 0.54402 0.0
C997 C 0.67732 0.03984 0.56097 0.0
C998 C 0.63067 0.02342 0.48217 0.0
C999 C 0.7015 1.00111 0.55423 0.0
C1000 C 0.6512 0.94664 0.49777 0.0
C1001 C 0.66317 0.94383 0.46895 0.0
C1002 C 0.65294 0.96846 0.51481 0.0
C1003 C 0.66734 0.9879 0.50305 0.0
C1004 C 0.68076 0.98464 0.475 0.0
C1005 C 0.67834 0.9627 0.4581 0.0
C1006 C 0.6381 0.97121 0.54442 0.0
C1007 C 0.69673 1.00473 0.46207 0.0
H1008 H 0.62975 0.06299 0.51929 0.0
H1009 H 0.68851 0.04387 0.58126 0.0
H1010 H 0.6413 0.01909 0.46079 0.0
H1011 H 0.61946 0.00711 0.48788 0.0
H1012 H 0.61817 0.03885 0.47688 0.0
H1013 H 0.71384 0.00971 0.57169 0.0
H1014 H 0.69339 0.98448 0.56483 0.0
H1015 H 0.71249 0.99519 0.53377 0.0
H1016 H 0.63946 0.93217 0.50639 0.0
H1017 H 0.68779 0.96064 0.43596 0.0
H1018 H 0.6237 0.98519 0.54081 0.0
H1019 H 0.64985 0.97761 0.56391 0.0
H1020 H 0.62918 0.95384 0.55155 0.0
H1021 H 0.68509 0.01966 0.45286 0.0
H1022 H 0.70868 0.99813 0.44283 0.0
H1023 H 0.70835 0.01261 0.48081 0.0
C1024 C 0.29256 0.42656 0.70555 0.0
C1025 C 0.31069 0.4104 0.71598 0.0
C1026 C 0.27029 0.42889 0.72176 0.0
C1027 C 0.26593 0.41438 0.74866 0.0
C1028 C 0.28457 0.3988 0.75995 0.0
C1029 C 0.30675 0.39716 0.74364 0.0
C1030 C 0.25107 0.44609 0.70937 0.0
C1031 C 0.28062 0.38279 0.78831 0.0
C1032 C 0.21346 0.42463 0.80571 0.0
C1033 C 0.19652 0.40711 0.79551 0.0
C1034 C 0.23567 0.42818 0.78973 0.0
C1035 C 0.24123 0.41353 0.76334 0.0
C1036 C 0.22382 0.39641 0.75238 0.0
C1037 C 0.20164 0.39356 0.76842 0.0
C1038 C 0.25354 0.44698 0.80172 0.0
C1039 C 0.22909 0.38018 0.72459 0.0
H1040 H 0.29551 0.43697 0.6843 0.0
H1041 H 0.32063 0.38462 0.75191 0.0
H1042 H 0.23571 0.43541 0.69936 0.0
H1043 H 0.24353 0.45742 0.72861 0.0
H1044 H 0.25838 0.45835 0.69088 0.0
H1045 H 0.29743 0.37279 0.79518 0.0
H1046 H 0.27443 0.39391 0.80848 0.0
H1047 H 0.26605 0.36923 0.78328 0.0
H1048 H 0.20957 0.43527 0.82651 0.0
H1049 H 0.1887 0.37996 0.76036 0.0
H1050 H 0.26017 0.45863 0.78223 0.0
H1051 H 0.26969 0.43766 0.81187 0.0
H1052 H 0.24535 0.45886 0.82 0.0
H1053 H 0.23431 0.39138 0.70402 0.0
H1054 H 0.21318 0.36863 0.71812 0.0
H1055 H 0.24476 0.36805 0.73002 0.0
C1056 C 0.83874 0.04129 0.95332 0.0
C1057 C 0.85425 0.06014 0.96338 0.0
C1058 C 0.83599 0.01979 0.97104 0.0
C1059 C 0.84944 0.01691 0.99912 0.0
C1060 C 0.86435 0.03629 0.00996 0.0
C1061 C 0.86638 0.05771 0.99212 0.0
C1062 C 0.81948 0.99977 0.95907 0.0
C1063 C 0.87928 0.03392 0.03953 0.0
C1064 C 0.83818 0.96692 0.05947 0.0
C1065 C 0.85644 0.95002 0.05162 0.0
C1066 C 0.83469 0.98822 0.04155 0.0
C1067 C 0.85012 0.9929 0.01559 0.0
C1068 C 0.86794 0.97543 0.00693 0.0
C1069 C 0.87072 0.95416 0.02485 0.0
C1070 C 0.81512 0.00613 0.05109 0.0
C1071 C 0.88501 0.97978 0.97969 0.0
H1072 H 0.82916 0.04309 0.93124 0.0
H1073 H 0.87841 0.07215 1.00012 0.0
H1074 H 0.8307 0.98422 0.95071 0.0
H1075 H 0.8076 0.99284 0.97816 0.0
H1076 H 0.80777 0.00608 0.93945 0.0
H1077 H 0.8888 0.05118 0.04574 0.0
H1078 H 0.86745 0.02847 0.05941 0.0
H1079 H 0.89319 0.01937 0.03645 0.0
H1080 H 0.82698 0.96379 0.08001 0.0
H1081 H 0.88488 0.94124 0.01855 0.0
H1082 H 0.80422 0.01178 0.03044 0.0
H1083 H 0.82374 0.02281 0.06086 0.0
H1084 H 0.80261 0.99839 0.06901 0.0
H1085 H 0.87445 0.98384 0.95818 0.0
H1086 H 0.89702 0.96384 0.97503 0.0
H1087 H 0.89671 0.9959 0.98461 0.0
C1088 C 0.21669 0.58448 0.20521 0.0
C1089 C 0.19796 0.60001 0.2155 0.0
C1090 C 0.23852 0.5821 0.22235 0.0
C1091 C 0.24184 0.59598 0.25002 0.0
C1092 C 0.22255 0.61083 0.26117 0.0
C1093 C 0.20081 0.61248 0.24396 0.0
C1094 C 0.25841 0.56561 0.2101 0.0
C1095 C 0.22539 0.6262 0.29031 0.0
C1096 C 0.29311 0.58652 0.309 0.0
C1097 C 0.3096 0.60489 0.30011 0.0
C1098 C 0.27156 0.58234 0.29182 0.0
C1099 C 0.26619 0.59723 0.26559 0.0
C1100 C 0.28326 0.61513 0.25586 0.0
C1101 C 0.30481 0.61857 0.27304 0.0
C1102 C 0.25411 0.56267 0.30246 0.0
C1103 C 0.27818 0.63165 0.2283 0.0
H1104 H 0.21457 0.57465 0.18336 0.0
H1105 H 0.18646 0.62453 0.25213 0.0
H1106 H 0.2736 0.57685 0.20068 0.0
H1107 H 0.26598 0.55424 0.22927 0.0
H1108 H 0.25173 0.55341 0.19117 0.0
H1109 H 0.20816 0.63559 0.29693 0.0
H1110 H 0.23139 0.61473 0.31026 0.0
H1111 H 0.23971 0.64025 0.28641 0.0
H1112 H 0.29676 0.57576 0.32977 0.0
H1113 H 0.31742 0.63282 0.26596 0.0
H1114 H 0.24812 0.5514 0.28228 0.0
H1115 H 0.23755 0.57119 0.31268 0.0
H1116 H 0.26241 0.55052 0.32036 0.0
H1117 H 0.27381 0.62065 0.20723 0.0
H1118 H 0.29387 0.64378 0.22277 0.0
H1119 H 0.26202 0.64321 0.23343 0.0
C1120 C 0.33805 0.04988 0.55081 0.0
C1121 C 0.35609 0.06662 0.54155 0.0
C1122 C 0.33422 0.0281 0.53399 0.0
C1123 C 0.34912 0.02276 0.50776 0.0
C1124 C 0.36677 0.04 0.49775 0.0
C1125 C 0.36987 0.06177 0.51457 0.0
C1126 C 0.31485 0.01043 0.54496 0.0
C1127 C 0.38329 0.03494 0.47017 0.0
C1128 C 0.36537 0.95766 0.4862 0.0
C1129 C 0.35292 0.9546 0.45777 0.0
C1130 C 0.36332 0.97933 0.50347 0.0
C1131 C 0.34811 0.99834 0.49237 0.0
C1132 C 0.33418 0.99474 0.46481 0.0
C1133 C 0.33692 0.97298 0.44764 0.0
C1134 C 0.37871 0.98245 0.53255 0.0
C1135 C 0.31733 0.01435 0.45262 0.0
H1136 H 0.32721 0.05358 0.57151 0.0
H1137 H 0.38387 0.07457 0.50723 0.0
H1138 H 0.30352 1.00423 0.52494 0.0
H1139 H 0.32366 0.99402 0.55514 0.0
H1140 H 0.30271 0.01863 0.56296 0.0
H1141 H 0.39529 0.05071 0.46449 0.0
H1142 H 0.39501 0.01891 0.47535 0.0
H1143 H 0.37229 0.0304 0.44917 0.0
H1144 H 0.37774 0.94356 0.49429 0.0
H1145 H 0.3271 0.97069 0.42581 0.0
H1146 H 0.36723 0.98849 0.55248 0.0
H1147 H 0.39266 0.99682 0.52846 0.0
H1148 H 0.38822 0.96532 0.53929 0.0
H1149 H 0.30596 0.02184 0.47186 0.0
H1150 H 0.3051 0.00741 0.43387 0.0
H1151 H 0.3283 0.02964 0.44297 0.0
C1152 C 0.79288 0.58484 0.19578 0.0
C1153 C 0.81011 0.60209 0.20598 0.0
C1154 C 0.77107 0.58093 0.21252 0.0
C1155 C 0.76627 0.59484 0.23979 0.0
C1156 C 0.78415 0.61139 0.25096 0.0
C1157 C 0.80587 0.61468 0.23406 0.0
C1158 C 0.75268 0.56276 0.20022 0.0
C1159 C 0.77976 0.62674 0.2798 0.0
C1160 C 0.70188 0.61331 0.26193 0.0
C1161 C 0.69793 0.59972 0.28931 0.0
C1162 C 0.72357 0.61094 0.24473 0.0
C1163 C 0.74171 0.59433 0.25487 0.0
C1164 C 0.73719 0.57936 0.2813 0.0
C1165 C 0.71539 0.58235 0.29837 0.0
C1166 C 0.72766 0.62739 0.21682 0.0
C1167 C 0.75587 0.56109 0.29247 0.0
H1168 H 0.79608 0.57492 0.17422 0.0
H1169 H 0.81908 0.62797 0.24225 0.0
H1170 H 0.74572 0.55105 0.21946 0.0
H1171 H 0.73682 0.57265 0.19023 0.0
H1172 H 0.76056 0.5509 0.1817 0.0
H1173 H 0.79613 0.63752 0.28658 0.0
H1174 H 0.76446 0.63957 0.27542 0.0
H1175 H 0.77442 0.615 0.29982 0.0
H1176 H 0.68848 0.6267 0.25462 0.0
H1177 H 0.71243 0.57166 0.31939 0.0
H1178 H 0.73326 0.6165 0.19615 0.0
H1179 H 0.74269 0.6404 0.22199 0.0
H1180 H 0.71108 0.63803 0.21064 0.0
H1181 H 0.76308 0.55031 0.27252 0.0
H1182 H 0.74816 0.54834 0.31015 0.0
H1183 H 0.77152 0.57089 0.30318 0.0
C1184 C 0.14958 0.95282 0.01682 0.0
C1185 C 0.16217 0.9483 0.04482 0.0
C1186 C 0.1523 0.97501 1.00082 0.0
C1187 C 0.16832 0.99306 0.01277 0.0
C1188 C 0.18221 0.98806 0.03999 0.0
C1189 C 0.1788 0.9658 0.05589 0.0
C1190 C 0.13691 0.97966 0.97208 0.0
C1191 C 0.19988 0.00661 0.05306 0.0
C1192 C 0.18003 0.04528 0.95594 0.0
C1193 C 0.16237 0.06226 0.96555 0.0
C1194 C 0.18336 0.02321 0.97229 0.0
C1195 C 0.16839 0.01789 0.99848 0.0
C1196 C 0.15142 0.03553 0.00916 0.0
C1197 C 0.14877 0.05752 0.99273 0.0
C1198 C 0.20204 1.00512 0.96064 0.0
C1199 C 0.13491 0.03056 0.03679 0.0
H1200 H 0.13671 0.93942 0.00805 0.0
H1201 H 0.18872 0.96238 0.07739 0.0
H1202 H 0.1238 0.99464 0.9769 0.0
H1203 H 0.1486 0.98558 0.95228 0.0
H1204 H 0.12644 0.96323 0.96476 0.0
H1205 H 0.21177 0.99868 0.0715 0.0
H1206 H 0.21159 0.01414 0.03416 0.0
H1207 H 0.18957 0.02209 0.06335 0.0
H1208 H 0.19073 0.04885 0.93508 0.0
H1209 H 0.13512 0.07054 1.00043 0.0
H1210 H 0.1926 0.98946 0.94946 0.0
H1211 H 0.21294 0.9978 0.98042 0.0
H1212 H 0.21466 0.01339 0.94323 0.0
H1213 H 0.12226 0.01535 0.03104 0.0
H1214 H 0.12388 0.04678 0.0434 0.0
H1215 H 0.14581 0.02481 0.05737 0.0
C1216 C 0.70091 0.39473 0.73595 0.0
C1217 C 0.69795 0.40692 0.70733 0.0
C1218 C 0.72237 0.39731 0.75356 0.0
C1219 C 0.74123 0.41286 0.74264 0.0
C1220 C 0.73779 0.42634 0.71468 0.0
C1221 C 0.71628 0.42301 0.69714 0.0
C1222 C 0.72538 0.38231 0.78298 0.0
C1223 C 0.75721 0.44353 0.70268 0.0
C1224 C 0.79076 0.42502 0.80318 0.0
C1225 C 0.80813 0.40725 0.79519 0.0
C1226 C 0.76949 0.42819 0.78513 0.0
C1227 C 0.7653 0.41287 0.75894 0.0
C1228 C 0.78328 0.39564 0.75008 0.0
C1229 C 0.80454 0.39322 0.76811 0.0
C1230 C 0.75104 0.44719 0.79486 0.0
C1231 C 0.77946 0.37868 0.72261 0.0
H1232 H 0.68688 0.38225 0.74402 0.0
H1233 H 0.71405 0.43263 0.67516 0.0
H1234 H 0.74044 0.36899 0.77973 0.0
H1235 H 0.7304 0.39422 0.80295 0.0
H1236 H 0.7085 0.3721 0.78917 0.0
H1237 H 0.75042 0.45515 0.68322 0.0
H1238 H 0.76387 0.45552 0.72181 0.0
H1239 H 0.77307 0.43287 0.69408 0.0
H1240 H 0.79348 0.43605 0.82396 0.0
H1241 H 0.81783 0.37944 0.76171 0.0
H1242 H 0.73469 0.43805 0.80482 0.0
H1243 H 0.74492 0.45793 0.77429 0.0
H1244 H 0.75851 0.45991 0.81272 0.0
H1245 H 0.76378 0.36638 0.72745 0.0
H1246 H 0.7958 0.36728 0.7177 0.0
H1247 H 0.77496 0.38928 0.70127 0.0
loop_
_geom_bond_atom_site_label_1
_geom_bond_atom_site_label_2
_geom_bond_distance
_geom_bond_site_symmetry_2
_ccdc_geom_bond_type
O0 Cd1 2.223 . S
O0 C8 1.315 . S
Cd1 O0 2.223 . S
Cd1 O4 2.297 . S
Cd1 O5 2.439 . S
Cd1 O11 2.240 . S
Cd2 O3 2.240 . S
Cd2 O10 2.223 . S
Cd2 O12 2.297 . S
Cd2 O13 2.439 . S
O3 Cd2 2.240 . S
O3 C8 1.279 . S
O4 Cd1 2.297 . S
O4 C6 1.247 . S
O5 Cd1 2.439 . S
O5 C6 1.208 . S
C6 O4 1.247 . S
C6 O5 1.208 . S
C7 O12 1.247 . S
C7 O13 1.208 . S
C8 O0 1.315 . S
C8 O3 1.279 . S
C9 O10 1.315 . S
C9 O11 1.279 . S
O10 Cd2 2.223 . S
O10 C9 1.315 . S
O11 Cd1 2.240 . S
O11 C9 1.279 . S
O12 Cd2 2.297 . S
O12 C7 1.247 . S
O13 Cd2 2.439 . S
O13 C7 1.208 . S
O14 Cd15 2.223 . S
O14 C22 1.315 . S
Cd15 O14 2.223 . S
Cd15 O18 2.297 . S
Cd15 O19 2.439 . S
Cd15 O25 2.240 . S
Cd16 O17 2.240 . S
Cd16 O24 2.223 . S
Cd16 O26 2.297 . S
Cd16 O27 2.439 . S
O17 Cd16 2.240 . S
O17 C22 1.279 . S
O18 Cd15 2.297 . S
O18 C20 1.247 . S
O19 Cd15 2.439 . S
O19 C20 1.208 . S
C20 O18 1.247 . S
C20 O19 1.208 . S
C21 O26 1.247 . S
C21 O27 1.208 . S
C22 O14 1.315 . S
C22 O17 1.279 . S
C23 O24 1.315 . S
C23 O25 1.279 . S
O24 Cd16 2.223 . S
O24 C23 1.315 . S
O25 Cd15 2.240 . S
O25 C23 1.279 . S
O26 Cd16 2.297 . S
O26 C21 1.247 . S
O27 Cd16 2.439 . S
O27 C21 1.208 . S
O28 Cd29 2.223 . S
O28 C36 1.315 . S
Cd29 O28 2.223 . S
Cd29 O32 2.297 . S
Cd29 O33 2.439 . S
Cd29 O39 2.240 . S
Cd30 O31 2.240 . S
Cd30 O38 2.223 . S
Cd30 O40 2.297 . S
Cd30 O41 2.439 . S
O31 Cd30 2.240 . S
O31 C36 1.279 . S
O32 Cd29 2.297 . S
O32 C34 1.247 . S
O33 Cd29 2.439 . S
O33 C34 1.208 . S
C34 O32 1.247 . S
C34 O33 1.208 . S
C35 O40 1.247 . S
C35 O41 1.208 . S
C36 O28 1.315 . S
C36 O31 1.279 . S
C37 O38 1.315 . S
C37 O39 1.279 . S
O38 Cd30 2.223 . S
O38 C37 1.315 . S
O39 Cd29 2.240 . S
O39 C37 1.279 . S
O40 Cd30 2.297 . S
O40 C35 1.247 . S
O41 Cd30 2.439 . S
O41 C35 1.208 . S
O42 Cd43 2.223 . S
O42 C50 1.315 . S
Cd43 O42 2.223 . S
Cd43 O46 2.297 . S
Cd43 O47 2.439 . S
Cd43 O53 2.240 . S
Cd44 O45 2.240 . S
Cd44 O52 2.223 . S
Cd44 O54 2.297 . S
Cd44 O55 2.439 . S
O45 Cd44 2.240 . S
O45 C50 1.279 . S
O46 Cd43 2.297 . S
O46 C48 1.247 . S
O47 Cd43 2.439 . S
O47 C48 1.208 . S
C48 O46 1.247 . S
C48 O47 1.208 . S
C49 O54 1.247 . S
C49 O55 1.208 . S
C50 O42 1.315 . S
C50 O45 1.279 . S
C51 O52 1.315 . S
C51 O53 1.279 . S
O52 Cd44 2.223 . S
O52 C51 1.315 . S
O53 Cd43 2.240 . S
O53 C51 1.279 . S
O54 Cd44 2.297 . S
O54 C49 1.247 . S
O55 Cd44 2.439 . S
O55 C49 1.208 . S
O56 Cd57 2.223 . S
O56 C64 1.315 . S
Cd57 O56 2.223 . S
Cd57 O60 2.297 . S
Cd57 O61 2.439 . S
Cd57 O67 2.240 . S
Cd58 O59 2.240 . S
Cd58 O66 2.223 . S
Cd58 O68 2.297 . S
Cd58 O69 2.439 . S
O59 Cd58 2.240 . S
O59 C64 1.279 . S
O60 Cd57 2.297 . S
O60 C62 1.247 . S
O61 Cd57 2.439 . S
O61 C62 1.208 . S
C62 O60 1.247 . S
C62 O61 1.208 . S
C63 O68 1.247 . S
C63 O69 1.208 . S
C64 O56 1.315 . S
C64 O59 1.279 . S
C65 O66 1.315 . S
C65 O67 1.279 . S
O66 Cd58 2.223 . S
O66 C65 1.315 . S
O67 Cd57 2.240 . S
O67 C65 1.279 . S
O68 Cd58 2.297 . S
O68 C63 1.247 . S
O69 Cd58 2.439 . S
O69 C63 1.208 . S
O70 Cd71 2.223 . S
O70 C78 1.315 . S
Cd71 O70 2.223 . S
Cd71 O74 2.297 . S
Cd71 O75 2.439 . S
Cd71 O81 2.240 . S
Cd72 O73 2.240 . S
Cd72 O80 2.223 . S
Cd72 O82 2.297 . S
Cd72 O83 2.439 . S
O73 Cd72 2.240 . S
O73 C78 1.279 . S
O74 Cd71 2.297 . S
O74 C76 1.247 . S
O75 Cd71 2.439 . S
O75 C76 1.208 . S
C76 O74 1.247 . S
C76 O75 1.208 . S
C77 O82 1.247 . S
C77 O83 1.208 . S
C78 O70 1.315 . S
C78 O73 1.279 . S
C79 O80 1.315 . S
C79 O81 1.279 . S
O80 Cd72 2.223 . S
O80 C79 1.315 . S
O81 Cd71 2.240 . S
O81 C79 1.279 . S
O82 Cd72 2.297 . S
O82 C77 1.247 . S
O83 Cd72 2.439 . S
O83 C77 1.208 . S
O84 Cd85 2.223 . S
O84 C92 1.315 . S
Cd85 O84 2.223 . S
Cd85 O88 2.297 . S
Cd85 O89 2.439 . S
Cd85 O95 2.240 . S
Cd86 O87 2.240 . S
Cd86 O94 2.223 . S
Cd86 O96 2.297 . S
Cd86 O97 2.439 . S
O87 Cd86 2.240 . S
O87 C92 1.279 . S
O88 Cd85 2.297 . S
O88 C90 1.247 . S
O89 Cd85 2.439 . S
O89 C90 1.208 . S
C90 O88 1.247 . S
C90 O89 1.208 . S
C91 O96 1.247 . S
C91 O97 1.208 . S
C92 O84 1.315 . S
C92 O87 1.279 . S
C93 O94 1.315 . S
C93 O95 1.279 . S
O94 Cd86 2.223 . S
O94 C93 1.315 . S
O95 Cd85 2.240 . S
O95 C93 1.279 . S
O96 Cd86 2.297 . S
O96 C91 1.247 . S
O97 Cd86 2.439 . S
O97 C91 1.208 . S
O98 Cd99 2.223 . S
O98 C106 1.315 . S
Cd99 O98 2.223 . S
Cd99 O102 2.297 . S
Cd99 O103 2.439 . S
Cd99 O109 2.240 . S
Cd100 O101 2.240 . S
Cd100 O108 2.223 . S
Cd100 O110 2.297 . S
Cd100 O111 2.439 . S
O101 Cd100 2.240 . S
O101 C106 1.279 . S
O102 Cd99 2.297 . S
O102 C104 1.247 . S
O103 Cd99 2.439 . S
O103 C104 1.208 . S
C104 O102 1.247 . S
C104 O103 1.208 . S
C105 O110 1.247 . S
C105 O111 1.208 . S
C106 O98 1.315 . S
C106 O101 1.279 . S
C107 O108 1.315 . S
C107 O109 1.279 . S
O108 Cd100 2.223 . S
O108 C107 1.315 . S
O109 Cd99 2.240 . S
O109 C107 1.279 . S
O110 Cd100 2.297 . S
O110 C105 1.247 . S
O111 Cd100 2.439 . S
O111 C105 1.208 . S
O112 Cd113 2.223 . S
O112 C120 1.315 . S
Cd113 O112 2.223 . S
Cd113 O116 2.297 . S
Cd113 O117 2.439 . S
Cd113 O123 2.240 . S
Cd114 O115 2.240 . S
Cd114 O122 2.223 . S
Cd114 O124 2.297 . S
Cd114 O125 2.439 . S
O115 Cd114 2.240 . S
O115 C120 1.279 . S
O116 Cd113 2.297 . S
O116 C118 1.247 . S
O117 Cd113 2.439 . S
O117 C118 1.208 . S
C118 O116 1.247 . S
C118 O117 1.208 . S
C119 O124 1.247 . S
C119 O125 1.208 . S
C120 O112 1.315 . S
C120 O115 1.279 . S
C121 O122 1.315 . S
C121 O123 1.279 . S
O122 Cd114 2.223 . S
O122 C121 1.315 . S
O123 Cd113 2.240 . S
O123 C121 1.279 . S
O124 Cd114 2.297 . S
O124 C119 1.247 . S
O125 Cd114 2.439 . S
O125 C119 1.208 . S
O126 Cd127 2.223 . S
O126 C134 1.315 . S
Cd127 O126 2.223 . S
Cd127 O130 2.297 . S
Cd127 O131 2.439 . S
Cd127 O137 2.240 . S
Cd128 O129 2.240 . S
Cd128 O136 2.223 . S
Cd128 O138 2.297 . S
Cd128 O139 2.439 . S
O129 Cd128 2.240 . S
O129 C134 1.279 . S
O130 Cd127 2.297 . S
O130 C132 1.247 . S
O131 Cd127 2.439 . S
O131 C132 1.208 . S
C132 O130 1.247 . S
C132 O131 1.208 . S
C133 O138 1.247 . S
C133 O139 1.208 . S
C134 O126 1.315 . S
C134 O129 1.279 . S
C135 O136 1.315 . S
C135 O137 1.279 . S
O136 Cd128 2.223 . S
O136 C135 1.315 . S
O137 Cd127 2.240 . S
O137 C135 1.279 . S
O138 Cd128 2.297 . S
O138 C133 1.247 . S
O139 Cd128 2.439 . S
O139 C133 1.208 . S
O140 Cd141 2.223 . S
O140 C148 1.315 . S
Cd141 O140 2.223 . S
Cd141 O144 2.297 . S
Cd141 O145 2.439 . S
Cd141 O151 2.240 . S
Cd142 O143 2.240 . S
Cd142 O150 2.223 . S
Cd142 O152 2.297 . S
Cd142 O153 2.439 . S
O143 Cd142 2.240 . S
O143 C148 1.279 . S
O144 Cd141 2.297 . S
O144 C146 1.247 . S
O145 Cd141 2.439 . S
O145 C146 1.208 . S
C146 O144 1.247 . S
C146 O145 1.208 . S
C147 O152 1.247 . S
C147 O153 1.208 . S
C148 O140 1.315 . S
C148 O143 1.279 . S
C149 O150 1.315 . S
C149 O151 1.279 . S
O150 Cd142 2.223 . S
O150 C149 1.315 . S
O151 Cd141 2.240 . S
O151 C149 1.279 . S
O152 Cd142 2.297 . S
O152 C147 1.247 . S
O153 Cd142 2.439 . S
O153 C147 1.208 . S
O154 Cd155 2.223 . S
O154 C162 1.315 . S
Cd155 O154 2.223 . S
Cd155 O158 2.297 . S
Cd155 O159 2.439 . S
Cd155 O165 2.240 . S
Cd156 O157 2.240 . S
Cd156 O164 2.223 . S
Cd156 O166 2.297 . S
Cd156 O167 2.439 . S
O157 Cd156 2.240 . S
O157 C162 1.279 . S
O158 Cd155 2.297 . S
O158 C160 1.247 . S
O159 Cd155 2.439 . S
O159 C160 1.208 . S
C160 O158 1.247 . S
C160 O159 1.208 . S
C161 O166 1.247 . S
C161 O167 1.208 . S
C162 O154 1.315 . S
C162 O157 1.279 . S
C163 O164 1.315 . S
C163 O165 1.279 . S
O164 Cd156 2.223 . S
O164 C163 1.315 . S
O165 Cd155 2.240 . S
O165 C163 1.279 . S
O166 Cd156 2.297 . S
O166 C161 1.247 . S
O167 Cd156 2.439 . S
O167 C161 1.208 . S
O168 Cd169 2.223 . S
O168 C176 1.315 . S
Cd169 O168 2.223 . S
Cd169 O172 2.297 . S
Cd169 O173 2.439 . S
Cd169 O179 2.240 . S
Cd170 O171 2.240 . S
Cd170 O178 2.223 . S
Cd170 O180 2.297 . S
Cd170 O181 2.439 . S
O171 Cd170 2.240 . S
O171 C176 1.279 . S
O172 Cd169 2.297 . S
O172 C174 1.247 . S
O173 Cd169 2.439 . S
O173 C174 1.208 . S
C174 O172 1.247 . S
C174 O173 1.208 . S
C175 O180 1.247 . S
C175 O181 1.208 . S
C176 O168 1.315 . S
C176 O171 1.279 . S
C177 O178 1.315 . S
C177 O179 1.279 . S
O178 Cd170 2.223 . S
O178 C177 1.315 . S
O179 Cd169 2.240 . S
O179 C177 1.279 . S
O180 Cd170 2.297 . S
O180 C175 1.247 . S
O181 Cd170 2.439 . S
O181 C175 1.208 . S
O182 Cd183 2.223 . S
O182 C190 1.315 . S
Cd183 O182 2.223 . S
Cd183 O186 2.297 . S
Cd183 O187 2.439 . S
Cd183 O193 2.240 . S
Cd184 O185 2.240 . S
Cd184 O192 2.223 . S
Cd184 O194 2.297 . S
Cd184 O195 2.439 . S
O185 Cd184 2.240 . S
O185 C190 1.279 . S
O186 Cd183 2.297 . S
O186 C188 1.247 . S
O187 Cd183 2.439 . S
O187 C188 1.208 . S
C188 O186 1.247 . S
C188 O187 1.208 . S
C189 O194 1.247 . S
C189 O195 1.208 . S
C190 O182 1.315 . S
C190 O185 1.279 . S
C191 O192 1.315 . S
C191 O193 1.279 . S
O192 Cd184 2.223 . S
O192 C191 1.315 . S
O193 Cd183 2.240 . S
O193 C191 1.279 . S
O194 Cd184 2.297 . S
O194 C189 1.247 . S
O195 Cd184 2.439 . S
O195 C189 1.208 . S
O196 Cd197 2.223 . S
O196 C204 1.315 . S
Cd197 O196 2.223 . S
Cd197 O200 2.297 . S
Cd197 O201 2.439 . S
Cd197 O207 2.240 . S
Cd198 O199 2.240 . S
Cd198 O206 2.223 . S
Cd198 O208 2.297 . S
Cd198 O209 2.439 . S
O199 Cd198 2.240 . S
O199 C204 1.279 . S
O200 Cd197 2.297 . S
O200 C202 1.247 . S
O201 Cd197 2.439 . S
O201 C202 1.208 . S
C202 O200 1.247 . S
C202 O201 1.208 . S
C203 O208 1.247 . S
C203 O209 1.208 . S
C204 O196 1.315 . S
C204 O199 1.279 . S
C205 O206 1.315 . S
C205 O207 1.279 . S
O206 Cd198 2.223 . S
O206 C205 1.315 . S
O207 Cd197 2.240 . S
O207 C205 1.279 . S
O208 Cd198 2.297 . S
O208 C203 1.247 . S
O209 Cd198 2.439 . S
O209 C203 1.208 . S
O210 Cd211 2.223 . S
O210 C218 1.315 . S
Cd211 O210 2.223 . S
Cd211 O214 2.297 . S
Cd211 O215 2.439 . S
Cd211 O221 2.240 . S
Cd212 O213 2.240 . S
Cd212 O220 2.223 . S
Cd212 O222 2.297 . S
Cd212 O223 2.439 . S
O213 Cd212 2.240 . S
O213 C218 1.279 . S
O214 Cd211 2.297 . S
O214 C216 1.247 . S
O215 Cd211 2.439 . S
O215 C216 1.208 . S
C216 O214 1.247 . S
C216 O215 1.208 . S
C217 O222 1.247 . S
C217 O223 1.208 . S
C218 O210 1.315 . S
C218 O213 1.279 . S
C219 O220 1.315 . S
C219 O221 1.279 . S
O220 Cd212 2.223 . S
O220 C219 1.315 . S
O221 Cd211 2.240 . S
O221 C219 1.279 . S
O222 Cd212 2.297 . S
O222 C217 1.247 . S
O223 Cd212 2.439 . S
O223 C217 1.208 . S
C224 C225 1.391 . S
C224 C226 1.394 . S
C224 H240 0.931 . S
C225 C224 1.391 . S
C225 C229 1.376 . S
C226 C224 1.394 . S
C226 C227 1.369 . S
C226 C230 1.531 . S
C227 C226 1.369 . S
C227 C228 1.410 . S
C227 C235 1.503 . S
C228 C227 1.410 . S
C228 C229 1.392 . S
C228 C231 1.511 . S
C229 C225 1.376 . S
C229 C228 1.392 . S
C229 H241 0.929 . S
C230 C226 1.531 . S
C230 H242 0.960 . S
C230 H243 0.962 . S
C230 H244 0.960 . S
C231 C228 1.511 . S
C231 H245 0.961 . S
C231 H246 0.961 . S
C231 H247 0.961 . S
C232 C233 1.370 . S
C232 C234 1.363 . S
C232 H248 0.931 . S
C233 C232 1.370 . S
C233 C237 1.408 . S
C234 C232 1.363 . S
C234 C235 1.370 . S
C234 C238 1.524 . S
C235 C227 1.503 . S
C235 C234 1.370 . S
C235 C236 1.403 . S
C236 C235 1.403 . S
C236 C237 1.404 . S
C236 C239 1.539 . S
C237 C233 1.408 . S
C237 C236 1.404 . S
C237 H249 0.930 . S
C238 C234 1.524 . S
C238 H250 0.956 . S
C238 H251 0.961 . S
C238 H252 0.961 . S
C239 C236 1.539 . S
C239 H253 0.958 . S
C239 H254 0.961 . S
C239 H255 0.960 . S
H240 C224 0.931 . S
H241 C229 0.929 . S
H242 C230 0.960 . S
H243 C230 0.962 . S
H244 C230 0.960 . S
H245 C231 0.961 . S
H246 C231 0.961 . S
H247 C231 0.961 . S
H248 C232 0.931 . S
H249 C237 0.930 . S
H250 C238 0.956 . S
H251 C238 0.961 . S
H252 C238 0.961 . S
H253 C239 0.958 . S
H254 C239 0.961 . S
H255 C239 0.960 . S
C256 C257 1.391 . S
C256 C258 1.394 . S
C256 H272 0.931 . S
C257 C256 1.391 . S
C257 C261 1.376 . S
C258 C256 1.394 . S
C258 C259 1.369 . S
C258 C262 1.531 . S
C259 C258 1.369 . S
C259 C260 1.410 . S
C259 C267 1.503 . S
C260 C259 1.410 . S
C260 C261 1.392 . S
C260 C263 1.511 . S
C261 C257 1.376 . S
C261 C260 1.392 . S
C261 H273 0.929 . S
C262 C258 1.531 . S
C262 H274 0.960 . S
C262 H275 0.962 . S
C262 H276 0.960 . S
C263 C260 1.511 . S
C263 H277 0.961 . S
C263 H278 0.961 . S
C263 H279 0.961 . S
C264 C265 1.370 . S
C264 C266 1.363 . S
C264 H280 0.931 . S
C265 C264 1.370 . S
C265 C269 1.408 . S
C266 C264 1.363 . S
C266 C267 1.370 . S
C266 C270 1.524 . S
C267 C259 1.503 . S
C267 C266 1.370 . S
C267 C268 1.403 . S
C268 C267 1.403 . S
C268 C269 1.404 . S
C268 C271 1.539 . S
C269 C265 1.408 . S
C269 C268 1.404 . S
C269 H281 0.930 . S
C270 C266 1.524 . S
C270 H282 0.956 . S
C270 H283 0.961 . S
C270 H284 0.961 . S
C271 C268 1.539 . S
C271 H285 0.958 . S
C271 H286 0.961 . S
C271 H287 0.960 . S
H272 C256 0.931 . S
H273 C261 0.929 . S
H274 C262 0.960 . S
H275 C262 0.962 . S
H276 C262 0.960 . S
H277 C263 0.961 . S
H278 C263 0.961 . S
H279 C263 0.961 . S
H280 C264 0.931 . S
H281 C269 0.930 . S
H282 C270 0.956 . S
H283 C270 0.961 . S
H284 C270 0.961 . S
H285 C271 0.958 . S
H286 C271 0.961 . S
H287 C271 0.960 . S
C288 C289 1.391 . S
C288 C290 1.394 . S
C288 H304 0.931 . S
C289 C288 1.391 . S
C289 C293 1.376 . S
C290 C288 1.394 . S
C290 C291 1.369 . S
C290 C294 1.531 . S
C291 C290 1.369 . S
C291 C292 1.410 . S
C291 C299 1.503 . S
C292 C291 1.410 . S
C292 C293 1.392 . S
C292 C295 1.511 . S
C293 C289 1.376 . S
C293 C292 1.392 . S
C293 H305 0.929 . S
C294 C290 1.531 . S
C294 H306 0.960 . S
C294 H307 0.962 . S
C294 H308 0.960 . S
C295 C292 1.511 . S
C295 H309 0.961 . S
C295 H310 0.961 . S
C295 H311 0.961 . S
C296 C297 1.370 . S
C296 C298 1.363 . S
C296 H312 0.931 . S
C297 C296 1.370 . S
C297 C301 1.408 . S
C298 C296 1.363 . S
C298 C299 1.370 . S
C298 C302 1.524 . S
C299 C291 1.503 . S
C299 C298 1.370 . S
C299 C300 1.403 . S
C300 C299 1.403 . S
C300 C301 1.404 . S
C300 C303 1.539 . S
C301 C297 1.408 . S
C301 C300 1.404 . S
C301 H313 0.930 . S
C302 C298 1.524 . S
C302 H314 0.956 . S
C302 H315 0.961 . S
C302 H316 0.961 . S
C303 C300 1.539 . S
C303 H317 0.958 . S
C303 H318 0.961 . S
C303 H319 0.960 . S
H304 C288 0.931 . S
H305 C293 0.929 . S
H306 C294 0.960 . S
H307 C294 0.962 . S
H308 C294 0.960 . S
H309 C295 0.961 . S
H310 C295 0.961 . S
H311 C295 0.961 . S
H312 C296 0.931 . S
H313 C301 0.930 . S
H314 C302 0.956 . S
H315 C302 0.961 . S
H316 C302 0.961 . S
H317 C303 0.958 . S
H318 C303 0.961 . S
H319 C303 0.960 . S
C320 C321 1.391 . S
C320 C322 1.394 . S
C320 H336 0.931 . S
C321 C320 1.391 . S
C321 C325 1.376 . S
C322 C320 1.394 . S
C322 C323 1.369 . S
C322 C326 1.531 . S
C323 C322 1.369 . S
C323 C324 1.410 . S
C323 C331 1.503 1_455 S
C324 C323 1.410 . S
C324 C325 1.392 . S
C324 C327 1.511 . S
C325 C321 1.376 . S
C325 C324 1.392 . S
C325 H337 0.929 . S
C326 C322 1.531 . S
C326 H338 0.960 1_455 S
C326 H339 0.962 . S
C326 H340 0.960 . S
C327 C324 1.511 . S
C327 H341 0.961 . S
C327 H342 0.961 1_455 S
C327 H343 0.961 . S
C328 C329 1.370 . S
C328 C330 1.363 . S
C328 H344 0.931 . S
C329 C328 1.370 . S
C329 C333 1.408 . S
C330 C328 1.363 . S
C330 C331 1.370 . S
C330 C334 1.524 . S
C331 C323 1.503 1_655 S
C331 C330 1.370 . S
C331 C332 1.403 . S
C332 C331 1.403 . S
C332 C333 1.404 . S
C332 C335 1.539 . S
C333 C329 1.408 . S
C333 C332 1.404 . S
C333 H345 0.930 . S
C334 C330 1.524 . S
C334 H346 0.956 . S
C334 H347 0.961 1_655 S
C334 H348 0.961 . S
C335 C332 1.539 . S
C335 H349 0.958 . S
C335 H350 0.961 . S
C335 H351 0.970 . S
H336 C320 0.931 . S
H337 C325 0.929 . S
H338 C326 0.960 1_655 S
H339 C326 0.962 . S
H340 C326 0.960 . S
H341 C327 0.961 . S
H342 C327 0.961 1_655 S
H343 C327 0.961 . S
H344 C328 0.931 . S
H345 C333 0.930 . S
H346 C334 0.956 . S
H347 C334 0.961 1_455 S
H348 C334 0.961 . S
H349 C335 0.958 . S
H350 C335 0.961 . S
H351 C335 0.970 . S
C352 C353 1.391 . S
C352 C354 1.394 . S
C352 H368 0.931 . S
C353 C352 1.391 . S
C353 C357 1.376 . S
C354 C352 1.394 . S
C354 C355 1.369 . S
C354 C358 1.531 . S
C355 C354 1.369 . S
C355 C356 1.410 . S
C355 C363 1.503 . S
C356 C355 1.410 . S
C356 C357 1.392 . S
C356 C359 1.511 . S
C357 C353 1.376 . S
C357 C356 1.392 . S
C357 H369 0.929 . S
C358 C354 1.531 . S
C358 H370 0.960 . S
C358 H371 0.962 . S
C358 H372 0.960 . S
C359 C356 1.511 . S
C359 H373 0.961 . S
C359 H374 0.961 . S
C359 H375 0.961 . S
C360 C361 1.370 . S
C360 C362 1.363 . S
C360 H376 0.931 . S
C361 C360 1.370 . S
C361 C365 1.408 . S
C362 C360 1.363 . S
C362 C363 1.370 . S
C362 C366 1.524 . S
C363 C355 1.503 . S
C363 C362 1.370 . S
C363 C364 1.403 . S
C364 C363 1.403 . S
C364 C365 1.404 . S
C364 C367 1.539 . S
C365 C361 1.408 . S
C365 C364 1.404 . S
C365 H377 0.930 . S
C366 C362 1.524 . S
C366 H378 0.956 . S
C366 H379 0.961 . S
C366 H380 0.961 . S
C367 C364 1.539 . S
C367 H381 0.958 . S
C367 H382 0.961 . S
C367 H383 0.960 . S
H368 C352 0.931 . S
H369 C357 0.929 . S
H370 C358 0.960 . S
H371 C358 0.962 . S
H372 C358 0.960 . S
H373 C359 0.961 . S
H374 C359 0.961 . S
H375 C359 0.961 . S
H376 C360 0.931 . S
H377 C365 0.930 . S
H378 C366 0.956 . S
H379 C366 0.961 . S
H380 C366 0.961 . S
H381 C367 0.958 . S
H382 C367 0.961 . S
H383 C367 0.960 . S
C384 C385 1.391 . S
C384 C386 1.394 . S
C384 H400 0.931 . S
C385 C384 1.391 . S
C385 C389 1.376 . S
C386 C384 1.394 . S
C386 C387 1.369 . S
C386 C390 1.531 . S
C387 C386 1.369 . S
C387 C388 1.410 . S
C387 C395 1.503 1_655 S
C388 C387 1.410 . S
C388 C389 1.392 . S
C388 C391 1.511 . S
C389 C385 1.376 . S
C389 C388 1.392 . S
C389 H401 0.929 . S
C390 C386 1.531 . S
C390 H402 0.960 1_655 S
C390 H403 0.962 . S
C390 H404 0.960 . S
C391 C388 1.511 . S
C391 H405 0.961 . S
C391 H406 0.961 1_655 S
C391 H407 0.961 . S
C392 C393 1.370 . S
C392 C394 1.363 . S
C392 H408 0.931 . S
C393 C392 1.370 . S
C393 C397 1.408 . S
C394 C392 1.363 . S
C394 C395 1.370 . S
C394 C398 1.524 . S
C395 C387 1.503 1_455 S
C395 C394 1.370 . S
C395 C396 1.403 . S
C396 C395 1.403 . S
C396 C397 1.404 . S
C396 C399 1.539 . S
C397 C393 1.408 . S
C397 C396 1.404 . S
C397 H409 0.930 . S
C398 C394 1.524 . S
C398 H410 0.956 . S
C398 H411 0.961 1_455 S
C398 H412 0.961 . S
C399 C396 1.539 . S
C399 H413 0.958 . S
C399 H414 0.961 . S
C399 H415 0.970 . S
H400 C384 0.931 . S
H401 C389 0.929 . S
H402 C390 0.960 1_455 S
H403 C390 0.962 . S
H404 C390 0.960 . S
H405 C391 0.961 . S
H406 C391 0.961 1_455 S
H407 C391 0.961 . S
H408 C392 0.931 . S
H409 C397 0.930 . S
H410 C398 0.956 . S
H411 C398 0.961 1_655 S
H412 C398 0.961 . S
H413 C399 0.958 . S
H414 C399 0.961 . S
H415 C399 0.970 . S
C416 C417 1.391 . S
C416 C418 1.394 . S
C416 H432 0.931 . S
C417 C416 1.391 . S
C417 C421 1.376 . S
C418 C416 1.394 . S
C418 C419 1.369 . S
C418 C422 1.531 . S
C419 C418 1.369 . S
C419 C420 1.410 . S
C419 C427 1.503 . S
C420 C419 1.410 . S
C420 C421 1.392 . S
C420 C423 1.511 . S
C421 C417 1.376 . S
C421 C420 1.392 . S
C421 H433 0.929 . S
C422 C418 1.531 . S
C422 H434 0.960 . S
C422 H435 0.962 . S
C422 H436 0.960 . S
C423 C420 1.511 . S
C423 H437 0.961 . S
C423 H438 0.961 . S
C423 H439 0.961 . S
C424 C425 1.370 . S
C424 C426 1.363 . S
C424 H440 0.931 . S
C425 C424 1.370 . S
C425 C429 1.408 . S
C426 C424 1.363 . S
C426 C427 1.370 . S
C426 C430 1.524 . S
C427 C419 1.503 . S
C427 C426 1.370 . S
C427 C428 1.403 . S
C428 C427 1.403 . S
C428 C429 1.404 . S
C428 C431 1.539 . S
C429 C425 1.408 . S
C429 C428 1.404 . S
C429 H441 0.930 . S
C430 C426 1.524 . S
C430 H442 0.956 . S
C430 H443 0.961 . S
C430 H444 0.961 . S
C431 C428 1.539 . S
C431 H445 0.958 . S
C431 H446 0.961 . S
C431 H447 0.960 . S
H432 C416 0.931 . S
H433 C421 0.929 . S
H434 C422 0.960 . S
H435 C422 0.962 . S
H436 C422 0.960 . S
H437 C423 0.961 . S
H438 C423 0.961 . S
H439 C423 0.961 . S
H440 C424 0.931 . S
H441 C429 0.930 . S
H442 C430 0.956 . S
H443 C430 0.961 . S
H444 C430 0.961 . S
H445 C431 0.958 . S
H446 C431 0.961 . S
H447 C431 0.960 . S
C448 C449 1.391 . S
C448 C450 1.394 . S
C448 H464 0.931 . S
C449 C448 1.391 . S
C449 C453 1.376 . S
C450 C448 1.394 . S
C450 C451 1.369 . S
C450 C454 1.531 . S
C451 C450 1.369 . S
C451 C452 1.410 . S
C451 C459 1.503 . S
C452 C451 1.410 . S
C452 C453 1.392 . S
C452 C455 1.511 . S
C453 C449 1.376 . S
C453 C452 1.392 . S
C453 H465 0.929 . S
C454 C450 1.531 . S
C454 H466 0.960 . S
C454 H467 0.962 . S
C454 H468 0.960 . S
C455 C452 1.511 . S
C455 H469 0.961 . S
C455 H470 0.961 . S
C455 H471 0.961 . S
C456 C457 1.370 . S
C456 C458 1.363 . S
C456 H472 0.931 . S
C457 C456 1.370 . S
C457 C461 1.408 . S
C458 C456 1.363 . S
C458 C459 1.370 . S
C458 C462 1.524 . S
C459 C451 1.503 . S
C459 C458 1.370 . S
C459 C460 1.403 . S
C460 C459 1.403 . S
C460 C461 1.404 . S
C460 C463 1.539 . S
C461 C457 1.408 . S
C461 C460 1.404 . S
C461 H473 0.930 . S
C462 C458 1.524 . S
C462 H474 0.956 . S
C462 H475 0.961 . S
C462 H476 0.961 . S
C463 C460 1.539 . S
C463 H477 0.958 . S
C463 H478 0.961 . S
C463 H479 0.960 . S
H464 C448 0.931 . S
H465 C453 0.929 . S
H466 C454 0.960 . S
H467 C454 0.962 . S
H468 C454 0.960 . S
H469 C455 0.961 . S
H470 C455 0.961 . S
H471 C455 0.961 . S
H472 C456 0.931 . S
H473 C461 0.930 . S
H474 C462 0.956 . S
H475 C462 0.961 . S
H476 C462 0.961 . S
H477 C463 0.958 . S
H478 C463 0.961 . S
H479 C463 0.960 . S
C480 C481 1.391 . S
C480 C482 1.394 . S
C480 H496 0.931 . S
C481 C480 1.391 . S
C481 C485 1.376 . S
C482 C480 1.394 . S
C482 C483 1.369 . S
C482 C486 1.531 . S
C483 C482 1.369 . S
C483 C484 1.410 . S
C483 C491 1.503 . S
C484 C483 1.410 . S
C484 C485 1.392 . S
C484 C487 1.511 . S
C485 C481 1.376 . S
C485 C484 1.392 . S
C485 H497 0.929 . S
C486 C482 1.531 . S
C486 H498 0.960 . S
C486 H499 0.962 . S
C486 H500 0.960 . S
C487 C484 1.511 . S
C487 H501 0.961 . S
C487 H502 0.961 . S
C487 H503 0.961 . S
C488 C489 1.370 . S
C488 C490 1.363 . S
C488 H504 0.931 . S
C489 C488 1.370 . S
C489 C493 1.408 . S
C490 C488 1.363 . S
C490 C491 1.370 . S
C490 C494 1.524 . S
C491 C483 1.503 . S
C491 C490 1.370 . S
C491 C492 1.403 . S
C492 C491 1.403 . S
C492 C493 1.404 . S
C492 C495 1.539 . S
C493 C489 1.408 . S
C493 C492 1.404 . S
C493 H505 0.930 . S
C494 C490 1.524 . S
C494 H506 0.956 . S
C494 H507 0.961 . S
C494 H508 0.961 . S
C495 C492 1.539 . S
C495 H509 0.958 . S
C495 H510 0.961 . S
C495 H511 0.960 . S
H496 C480 0.931 . S
H497 C485 0.929 . S
H498 C486 0.960 . S
H499 C486 0.962 . S
H500 C486 0.960 . S
H501 C487 0.961 . S
H502 C487 0.961 . S
H503 C487 0.961 . S
H504 C488 0.931 . S
H505 C493 0.930 . S
H506 C494 0.956 . S
H507 C494 0.961 . S
H508 C494 0.961 . S
H509 C495 0.958 . S
H510 C495 0.961 . S
H511 C495 0.960 . S
C512 C513 1.391 . S
C512 C514 1.394 . S
C512 H528 0.931 . S
C513 C512 1.391 . S
C513 C517 1.376 . S
C514 C512 1.394 . S
C514 C515 1.369 . S
C514 C518 1.531 . S
C515 C514 1.369 . S
C515 C516 1.410 . S
C515 C523 1.503 . S
C516 C515 1.410 . S
C516 C517 1.392 . S
C516 C519 1.511 . S
C517 C513 1.376 . S
C517 C516 1.392 . S
C517 H529 0.929 . S
C518 C514 1.531 . S
C518 H530 0.960 . S
C518 H531 0.962 . S
C518 H532 0.960 . S
C519 C516 1.511 . S
C519 H533 0.961 . S
C519 H534 0.961 . S
C519 H535 0.961 . S
C520 C521 1.370 . S
C520 C522 1.363 . S
C520 H536 0.931 . S
C521 C520 1.370 . S
C521 C525 1.408 . S
C522 C520 1.363 . S
C522 C523 1.370 . S
C522 C526 1.524 . S
C523 C515 1.503 . S
C523 C522 1.370 . S
C523 C524 1.403 . S
C524 C523 1.403 . S
C524 C525 1.404 . S
C524 C527 1.539 . S
C525 C521 1.408 . S
C525 C524 1.404 . S
C525 H537 0.930 . S
C526 C522 1.524 . S
C526 H538 0.956 . S
C526 H539 0.961 . S
C526 H540 0.961 . S
C527 C524 1.539 . S
C527 H541 0.958 . S
C527 H542 0.961 . S
C527 H543 0.960 . S
H528 C512 0.931 . S
H529 C517 0.929 . S
H530 C518 0.960 . S
H531 C518 0.962 . S
H532 C518 0.960 . S
H533 C519 0.961 . S
H534 C519 0.961 . S
H535 C519 0.961 . S
H536 C520 0.931 . S
H537 C525 0.930 . S
H538 C526 0.956 . S
H539 C526 0.961 . S
H540 C526 0.961 . S
H541 C527 0.958 . S
H542 C527 0.961 . S
H543 C527 0.960 . S
C544 C545 1.391 . S
C544 C546 1.394 . S
C544 H560 0.931 . S
C545 C544 1.391 . S
C545 C549 1.376 . S
C546 C544 1.394 . S
C546 C547 1.369 . S
C546 C550 1.531 . S
C547 C546 1.369 . S
C547 C548 1.410 . S
C547 C555 1.503 . S
C548 C547 1.410 . S
C548 C549 1.392 . S
C548 C551 1.511 . S
C549 C545 1.376 . S
C549 C548 1.392 . S
C549 H561 0.929 . S
C550 C546 1.531 . S
C550 H562 0.960 . S
C550 H563 0.962 . S
C550 H564 0.960 . S
C551 C548 1.511 . S
C551 H565 0.961 . S
C551 H566 0.961 . S
C551 H567 0.961 . S
C552 C553 1.370 . S
C552 C554 1.363 . S
C552 H568 0.931 . S
C553 C552 1.370 . S
C553 C557 1.408 . S
C554 C552 1.363 . S
C554 C555 1.370 . S
C554 C558 1.524 . S
C555 C547 1.503 . S
C555 C554 1.370 . S
C555 C556 1.403 . S
C556 C555 1.403 . S
C556 C557 1.404 . S
C556 C559 1.539 . S
C557 C553 1.408 . S
C557 C556 1.404 . S
C557 H569 0.930 . S
C558 C554 1.524 . S
C558 H570 0.956 . S
C558 H571 0.961 . S
C558 H572 0.961 . S
C559 C556 1.539 . S
C559 H573 0.958 . S
C559 H574 0.961 . S
C559 H575 0.960 . S
H560 C544 0.931 . S
H561 C549 0.929 . S
H562 C550 0.960 . S
H563 C550 0.962 . S
H564 C550 0.960 . S
H565 C551 0.961 . S
H566 C551 0.961 . S
H567 C551 0.961 . S
H568 C552 0.931 . S
H569 C557 0.930 . S
H570 C558 0.956 . S
H571 C558 0.961 . S
H572 C558 0.961 . S
H573 C559 0.958 . S
H574 C559 0.961 . S
H575 C559 0.960 . S
C576 C577 1.391 . S
C576 C578 1.394 . S
C576 H592 0.931 . S
C577 C576 1.391 . S
C577 C581 1.376 . S
C578 C576 1.394 . S
C578 C579 1.369 . S
C578 C582 1.531 . S
C579 C578 1.369 . S
C579 C580 1.410 . S
C579 C587 1.503 . S
C580 C579 1.410 . S
C580 C581 1.392 . S
C580 C583 1.511 . S
C581 C577 1.376 . S
C581 C580 1.392 . S
C581 H593 0.929 . S
C582 C578 1.531 . S
C582 H594 0.960 . S
C582 H595 0.962 . S
C582 H596 0.960 . S
C583 C580 1.511 . S
C583 H597 0.961 . S
C583 H598 0.961 . S
C583 H599 0.961 . S
C584 C585 1.370 . S
C584 C586 1.363 . S
C584 H600 0.931 . S
C585 C584 1.370 . S
C585 C589 1.408 . S
C586 C584 1.363 . S
C586 C587 1.370 . S
C586 C590 1.524 . S
C587 C579 1.503 . S
C587 C586 1.370 . S
C587 C588 1.403 . S
C588 C587 1.403 . S
C588 C589 1.404 . S
C588 C591 1.539 . S
C589 C585 1.408 . S
C589 C588 1.404 . S
C589 H601 0.930 . S
C590 C586 1.524 . S
C590 H602 0.956 . S
C590 H603 0.961 . S
C590 H604 0.961 . S
C591 C588 1.539 . S
C591 H605 0.958 . S
C591 H606 0.961 . S
C591 H607 0.960 . S
H592 C576 0.931 . S
H593 C581 0.929 . S
H594 C582 0.960 . S
H595 C582 0.962 . S
H596 C582 0.960 . S
H597 C583 0.961 . S
H598 C583 0.961 . S
H599 C583 0.961 . S
H600 C584 0.931 . S
H601 C589 0.930 . S
H602 C590 0.956 . S
H603 C590 0.961 . S
H604 C590 0.961 . S
H605 C591 0.958 . S
H606 C591 0.961 . S
H607 C591 0.960 . S
C608 C609 1.391 . S
C608 C610 1.394 . S
C608 H624 0.931 . S
C609 C608 1.391 . S
C609 C613 1.376 . S
C610 C608 1.394 . S
C610 C611 1.369 . S
C610 C614 1.531 . S
C611 C610 1.369 . S
C611 C612 1.410 . S
C611 C619 1.503 1_455 S
C612 C611 1.410 . S
C612 C613 1.392 . S
C612 C615 1.511 . S
C613 C609 1.376 . S
C613 C612 1.392 . S
C613 H625 0.929 . S
C614 C610 1.531 . S
C614 H626 0.960 1_455 S
C614 H627 0.962 . S
C614 H628 0.960 . S
C615 C612 1.511 . S
C615 H629 0.961 . S
C615 H630 0.961 1_455 S
C615 H631 0.961 . S
C616 C617 1.370 . S
C616 C618 1.363 . S
C616 H632 0.931 . S
C617 C616 1.370 . S
C617 C621 1.408 . S
C618 C616 1.363 . S
C618 C619 1.370 . S
C618 C622 1.524 . S
C619 C611 1.503 1_655 S
C619 C618 1.370 . S
C619 C620 1.403 . S
C620 C619 1.403 . S
C620 C621 1.404 . S
C620 C623 1.539 . S
C621 C617 1.408 . S
C621 C620 1.404 . S
C621 H633 0.930 . S
C622 C618 1.524 . S
C622 H634 0.956 . S
C622 H635 0.961 1_655 S
C622 H636 0.961 . S
C623 C620 1.539 . S
C623 H637 0.958 . S
C623 H638 0.961 . S
C623 H639 0.970 . S
H624 C608 0.931 . S
H625 C613 0.929 . S
H626 C614 0.960 1_655 S
H627 C614 0.962 . S
H628 C614 0.960 . S
H629 C615 0.961 . S
H630 C615 0.961 1_655 S
H631 C615 0.961 . S
H632 C616 0.931 . S
H633 C621 0.930 . S
H634 C622 0.956 . S
H635 C622 0.961 1_455 S
H636 C622 0.961 . S
H637 C623 0.958 . S
H638 C623 0.961 . S
H639 C623 0.970 . S
C640 C641 1.391 . S
C640 C642 1.394 . S
C640 H656 0.931 . S
C641 C640 1.391 . S
C641 C645 1.376 . S
C642 C640 1.394 . S
C642 C643 1.369 . S
C642 C646 1.531 . S
C643 C642 1.369 . S
C643 C644 1.410 . S
C643 C651 1.503 . S
C644 C643 1.410 . S
C644 C645 1.392 . S
C644 C647 1.511 . S
C645 C641 1.376 . S
C645 C644 1.392 . S
C645 H657 0.929 . S
C646 C642 1.531 . S
C646 H658 0.960 . S
C646 H659 0.962 . S
C646 H660 0.960 . S
C647 C644 1.511 . S
C647 H661 0.961 . S
C647 H662 0.961 . S
C647 H663 0.961 . S
C648 C649 1.370 . S
C648 C650 1.363 . S
C648 H664 0.931 . S
C649 C648 1.370 . S
C649 C653 1.408 . S
C650 C648 1.363 . S
C650 C651 1.370 . S
C650 C654 1.524 . S
C651 C643 1.503 . S
C651 C650 1.370 . S
C651 C652 1.403 . S
C652 C651 1.403 . S
C652 C653 1.404 . S
C652 C655 1.539 . S
C653 C649 1.408 . S
C653 C652 1.404 . S
C653 H665 0.930 . S
C654 C650 1.524 . S
C654 H666 0.956 . S
C654 H667 0.961 . S
C654 H668 0.961 . S
C655 C652 1.539 . S
C655 H669 0.958 . S
C655 H670 0.961 . S
C655 H671 0.960 . S
H656 C640 0.931 . S
H657 C645 0.929 . S
H658 C646 0.960 . S
H659 C646 0.962 . S
H660 C646 0.960 . S
H661 C647 0.961 . S
H662 C647 0.961 . S
H663 C647 0.961 . S
H664 C648 0.931 . S
H665 C653 0.930 . S
H666 C654 0.956 . S
H667 C654 0.961 . S
H668 C654 0.961 . S
H669 C655 0.958 . S
H670 C655 0.961 . S
H671 C655 0.960 . S
C672 C673 1.391 . S
C672 C674 1.394 . S
C672 H688 0.931 . S
C673 C672 1.391 . S
C673 C677 1.376 . S
C674 C672 1.394 . S
C674 C675 1.369 . S
C674 C678 1.531 . S
C675 C674 1.369 . S
C675 C676 1.410 . S
C675 C683 1.503 . S
C676 C675 1.410 . S
C676 C677 1.392 . S
C676 C679 1.511 . S
C677 C673 1.376 . S
C677 C676 1.392 . S
C677 H689 0.929 . S
C678 C674 1.531 . S
C678 H690 0.960 . S
C678 H691 0.962 . S
C678 H692 0.960 . S
C679 C676 1.511 . S
C679 H693 0.961 . S
C679 H694 0.961 . S
C679 H695 0.961 . S
C680 C681 1.370 . S
C680 C682 1.363 . S
C680 H696 0.931 . S
C681 C680 1.370 . S
C681 C685 1.408 . S
C682 C680 1.363 . S
C682 C683 1.370 . S
C682 C686 1.524 . S
C683 C675 1.503 . S
C683 C682 1.370 . S
C683 C684 1.403 . S
C684 C683 1.403 . S
C684 C685 1.404 . S
C684 C687 1.539 . S
C685 C681 1.408 . S
C685 C684 1.404 . S
C685 H697 0.930 . S
C686 C682 1.524 . S
C686 H698 0.956 . S
C686 H699 0.961 . S
C686 H700 0.961 . S
C687 C684 1.539 . S
C687 H701 0.958 . S
C687 H702 0.961 . S
C687 H703 0.960 . S
H688 C672 0.931 . S
H689 C677 0.929 . S
H690 C678 0.960 . S
H691 C678 0.962 . S
H692 C678 0.960 . S
H693 C679 0.961 . S
H694 C679 0.961 . S
H695 C679 0.961 . S
H696 C680 0.931 . S
H697 C685 0.930 . S
H698 C686 0.956 . S
H699 C686 0.961 . S
H700 C686 0.961 . S
H701 C687 0.958 . S
H702 C687 0.961 . S
H703 C687 0.960 . S
C704 C705 1.391 . S
C704 C706 1.394 . S
C704 H720 0.931 . S
C705 C704 1.391 . S
C705 C709 1.376 . S
C706 C704 1.394 . S
C706 C707 1.369 . S
C706 C710 1.531 . S
C707 C706 1.369 . S
C707 C708 1.410 . S
C707 C715 1.503 1_455 S
C708 C707 1.410 . S
C708 C709 1.392 . S
C708 C711 1.511 . S
C709 C705 1.376 . S
C709 C708 1.392 . S
C709 H721 0.929 . S
C710 C706 1.531 . S
C710 H722 0.960 1_455 S
C710 H723 0.962 . S
C710 H724 0.960 . S
C711 C708 1.511 . S
C711 H725 0.961 . S
C711 H726 0.961 1_455 S
C711 H727 0.961 . S
C712 C713 1.370 . S
C712 C714 1.363 . S
C712 H728 0.931 . S
C713 C712 1.370 . S
C713 C717 1.408 . S
C714 C712 1.363 . S
C714 C715 1.370 . S
C714 C718 1.524 . S
C715 C707 1.503 1_655 S
C715 C714 1.370 . S
C715 C716 1.403 . S
C716 C715 1.403 . S
C716 C717 1.404 . S
C716 C719 1.539 . S
C717 C713 1.408 . S
C717 C716 1.404 . S
C717 H729 0.930 . S
C718 C714 1.524 . S
C718 H730 0.956 . S
C718 H731 0.961 1_655 S
C718 H732 0.961 . S
C719 C716 1.539 . S
C719 H733 0.958 . S
C719 H734 0.961 . S
C719 H735 0.970 . S
H720 C704 0.931 . S
H721 C709 0.929 . S
H722 C710 0.960 1_655 S
H723 C710 0.962 . S
H724 C710 0.960 . S
H725 C711 0.961 . S
H726 C711 0.961 1_655 S
H727 C711 0.961 . S
H728 C712 0.931 . S
H729 C717 0.930 . S
H730 C718 0.956 . S
H731 C718 0.961 1_455 S
H732 C718 0.961 . S
H733 C719 0.958 . S
H734 C719 0.961 . S
H735 C719 0.970 . S
C736 C737 1.391 . S
C736 C738 1.394 . S
C736 H752 0.931 . S
C737 C736 1.391 . S
C737 C741 1.376 . S
C738 C736 1.394 . S
C738 C739 1.369 . S
C738 C742 1.531 1_554 S
C739 C738 1.369 . S
C739 C740 1.410 . S
C739 C747 1.503 1_554 S
C740 C739 1.410 . S
C740 C741 1.392 . S
C740 C743 1.511 . S
C741 C737 1.376 . S
C741 C740 1.392 . S
C741 H753 0.929 . S
C742 C738 1.531 1_556 S
C742 H754 0.960 . S
C742 H755 0.962 . S
C742 H756 0.960 . S
C743 C740 1.511 . S
C743 H757 0.961 . S
C743 H758 0.961 . S
C743 H759 0.961 . S
C744 C745 1.370 . S
C744 C746 1.363 . S
C744 H760 0.931 . S
C745 C744 1.370 . S
C745 C749 1.408 . S
C746 C744 1.363 . S
C746 C747 1.370 . S
C746 C750 1.524 1_556 S
C747 C739 1.503 1_556 S
C747 C746 1.370 . S
C747 C748 1.403 . S
C748 C747 1.403 . S
C748 C749 1.404 . S
C748 C751 1.539 . S
C749 C745 1.408 . S
C749 C748 1.404 . S
C749 H761 0.930 . S
C750 C746 1.524 1_554 S
C750 H762 0.956 . S
C750 H763 0.961 . S
C750 H764 0.961 . S
C751 C748 1.539 . S
C751 H765 0.958 . S
C751 H766 0.961 . S
C751 H767 0.960 . S
H752 C736 0.931 . S
H753 C741 0.929 . S
H754 C742 0.960 . S
H755 C742 0.962 . S
H756 C742 0.960 . S
H757 C743 0.961 . S
H758 C743 0.961 . S
H759 C743 0.961 . S
H760 C744 0.931 . S
H761 C749 0.930 . S
H762 C750 0.956 . S
H763 C750 0.961 . S
H764 C750 0.961 . S
H765 C751 0.958 . S
H766 C751 0.961 . S
H767 C751 0.960 . S
C768 C769 1.391 . S
C768 C770 1.394 . S
C768 H784 0.931 . S
C769 C768 1.391 . S
C769 C773 1.376 . S
C770 C768 1.394 . S
C770 C771 1.369 . S
C770 C774 1.531 . S
C771 C770 1.369 . S
C771 C772 1.410 . S
C771 C779 1.503 . S
C772 C771 1.410 . S
C772 C773 1.392 . S
C772 C775 1.511 . S
C773 C769 1.376 . S
C773 C772 1.392 . S
C773 H785 0.929 . S
C774 C770 1.531 . S
C774 H786 0.960 . S
C774 H787 0.962 . S
C774 H788 0.960 . S
C775 C772 1.511 . S
C775 H789 0.961 . S
C775 H790 0.961 . S
C775 H791 0.961 . S
C776 C777 1.370 . S
C776 C778 1.363 . S
C776 H792 0.931 . S
C777 C776 1.370 . S
C777 C781 1.408 . S
C778 C776 1.363 . S
C778 C779 1.370 . S
C778 C782 1.524 . S
C779 C771 1.503 . S
C779 C778 1.370 . S
C779 C780 1.403 . S
C780 C779 1.403 . S
C780 C781 1.404 . S
C780 C783 1.539 . S
C781 C777 1.408 . S
C781 C780 1.404 . S
C781 H793 0.930 . S
C782 C778 1.524 . S
C782 H794 0.956 . S
C782 H795 0.961 . S
C782 H796 0.961 . S
C783 C780 1.539 . S
C783 H797 0.958 . S
C783 H798 0.961 . S
C783 H799 0.960 . S
H784 C768 0.931 . S
H785 C773 0.929 . S
H786 C774 0.960 . S
H787 C774 0.962 . S
H788 C774 0.960 . S
H789 C775 0.961 . S
H790 C775 0.961 . S
H791 C775 0.961 . S
H792 C776 0.931 . S
H793 C781 0.930 . S
H794 C782 0.956 . S
H795 C782 0.961 . S
H796 C782 0.961 . S
H797 C783 0.958 . S
H798 C783 0.961 . S
H799 C783 0.960 . S
C800 C801 1.391 . S
C800 C802 1.394 . S
C800 H816 0.931 . S
C801 C800 1.391 . S
C801 C805 1.376 . S
C802 C800 1.394 . S
C802 C803 1.369 . S
C802 C806 1.531 . S
C803 C802 1.369 . S
C803 C804 1.410 . S
C803 C811 1.503 . S
C804 C803 1.410 . S
C804 C805 1.392 . S
C804 C807 1.511 . S
C805 C801 1.376 . S
C805 C804 1.392 . S
C805 H817 0.929 . S
C806 C802 1.531 . S
C806 H818 0.960 . S
C806 H819 0.962 . S
C806 H820 0.960 . S
C807 C804 1.511 . S
C807 H821 0.961 . S
C807 H822 0.961 . S
C807 H823 0.961 . S
C808 C809 1.370 . S
C808 C810 1.363 . S
C808 H824 0.931 . S
C809 C808 1.370 . S
C809 C813 1.408 . S
C810 C808 1.363 . S
C810 C811 1.370 . S
C810 C814 1.524 . S
C811 C803 1.503 . S
C811 C810 1.370 . S
C811 C812 1.403 . S
C812 C811 1.403 . S
C812 C813 1.404 . S
C812 C815 1.539 . S
C813 C809 1.408 . S
C813 C812 1.404 . S
C813 H825 0.930 . S
C814 C810 1.524 . S
C814 H826 0.956 . S
C814 H827 0.961 . S
C814 H828 0.961 . S
C815 C812 1.539 . S
C815 H829 0.958 . S
C815 H830 0.961 . S
C815 H831 0.960 . S
H816 C800 0.931 . S
H817 C805 0.929 . S
H818 C806 0.960 . S
H819 C806 0.962 . S
H820 C806 0.960 . S
H821 C807 0.961 . S
H822 C807 0.961 . S
H823 C807 0.961 . S
H824 C808 0.931 . S
H825 C813 0.930 . S
H826 C814 0.956 . S
H827 C814 0.961 . S
H828 C814 0.961 . S
H829 C815 0.958 . S
H830 C815 0.961 . S
H831 C815 0.960 . S
C832 C833 1.391 . S
C832 C834 1.394 . S
C832 H848 0.931 . S
C833 C832 1.391 . S
C833 C837 1.376 . S
C834 C832 1.394 . S
C834 C835 1.369 . S
C834 C838 1.531 . S
C835 C834 1.369 . S
C835 C836 1.410 . S
C835 C843 1.503 . S
C836 C835 1.410 . S
C836 C837 1.392 . S
C836 C839 1.511 . S
C837 C833 1.376 . S
C837 C836 1.392 . S
C837 H849 0.929 . S
C838 C834 1.531 . S
C838 H850 0.960 . S
C838 H851 0.962 . S
C838 H852 0.960 . S
C839 C836 1.511 . S
C839 H853 0.961 . S
C839 H854 0.961 . S
C839 H855 0.961 . S
C840 C841 1.370 . S
C840 C842 1.363 . S
C840 H856 0.931 . S
C841 C840 1.370 . S
C841 C845 1.408 . S
C842 C840 1.363 . S
C842 C843 1.370 . S
C842 C846 1.524 . S
C843 C835 1.503 . S
C843 C842 1.370 . S
C843 C844 1.403 . S
C844 C843 1.403 . S
C844 C845 1.404 . S
C844 C847 1.539 . S
C845 C841 1.408 . S
C845 C844 1.404 . S
C845 H857 0.930 . S
C846 C842 1.524 . S
C846 H858 0.956 . S
C846 H859 0.961 . S
C846 H860 0.961 . S
C847 C844 1.539 . S
C847 H861 0.958 . S
C847 H862 0.961 . S
C847 H863 0.960 . S
H848 C832 0.931 . S
H849 C837 0.929 . S
H850 C838 0.960 . S
H851 C838 0.962 . S
H852 C838 0.960 . S
H853 C839 0.961 . S
H854 C839 0.961 . S
H855 C839 0.961 . S
H856 C840 0.931 . S
H857 C845 0.930 . S
H858 C846 0.956 . S
H859 C846 0.961 . S
H860 C846 0.961 . S
H861 C847 0.958 . S
H862 C847 0.961 . S
H863 C847 0.960 . S
C864 C865 1.391 . S
C864 C866 1.394 . S
C864 H880 0.931 . S
C865 C864 1.391 . S
C865 C869 1.376 . S
C866 C864 1.394 . S
C866 C867 1.369 . S
C866 C870 1.531 . S
C867 C866 1.369 . S
C867 C868 1.410 . S
C867 C875 1.503 1_556 S
C868 C867 1.410 . S
C868 C869 1.392 . S
C868 C871 1.511 1_556 S
C869 C865 1.376 . S
C869 C868 1.392 . S
C869 H881 0.929 . S
C870 C866 1.531 . S
C870 H882 0.960 . S
C870 H883 0.962 . S
C870 H884 0.960 . S
C871 C868 1.511 1_554 S
C871 H885 0.961 . S
C871 H886 0.961 . S
C871 H887 0.961 1_554 S
C872 C873 1.370 . S
C872 C874 1.363 . S
C872 H888 0.931 . S
C873 C872 1.370 . S
C873 C877 1.408 . S
C874 C872 1.363 . S
C874 C875 1.370 . S
C874 C878 1.524 . S
C875 C867 1.503 1_554 S
C875 C874 1.370 . S
C875 C876 1.396 1_554 S
C876 C875 1.396 1_556 S
C876 C877 1.385 1_556 S
C876 C879 1.564 . S
C877 C873 1.408 . S
C877 C876 1.385 1_554 S
C877 H889 0.930 . S
C878 C874 1.524 . S
C878 H890 0.956 . S
C878 H891 0.961 . S
C878 H892 0.961 . S
C879 C876 1.564 . S
C879 H893 0.958 . S
C879 H894 0.961 . S
C879 H895 0.960 . S
H880 C864 0.931 . S
H881 C869 0.929 . S
H882 C870 0.960 . S
H883 C870 0.962 . S
H884 C870 0.960 . S
H885 C871 0.961 . S
H886 C871 0.961 . S
H887 C871 0.961 1_556 S
H888 C872 0.931 . S
H889 C877 0.930 . S
H890 C878 0.956 . S
H891 C878 0.961 . S
H892 C878 0.961 . S
H893 C879 0.958 . S
H894 C879 0.961 . S
H895 C879 0.960 . S
C896 C897 1.391 . S
C896 C898 1.394 . S
C896 H912 0.931 . S
C897 C896 1.391 . S
C897 C901 1.376 . S
C898 C896 1.394 . S
C898 C899 1.369 . S
C898 C902 1.531 . S
C899 C898 1.369 . S
C899 C900 1.410 . S
C899 C907 1.503 . S
C900 C899 1.410 . S
C900 C901 1.392 . S
C900 C903 1.511 . S
C901 C897 1.376 . S
C901 C900 1.392 . S
C901 H913 0.929 . S
C902 C898 1.531 . S
C902 H914 0.960 . S
C902 H915 0.962 . S
C902 H916 0.960 . S
C903 C900 1.511 . S
C903 H917 0.961 . S
C903 H918 0.961 . S
C903 H919 0.961 . S
C904 C905 1.370 . S
C904 C906 1.363 . S
C904 H920 0.931 . S
C905 C904 1.370 . S
C905 C909 1.408 . S
C906 C904 1.363 . S
C906 C907 1.370 . S
C906 C910 1.524 . S
C907 C899 1.503 . S
C907 C906 1.370 . S
C907 C908 1.403 . S
C908 C907 1.403 . S
C908 C909 1.404 . S
C908 C911 1.539 . S
C909 C905 1.408 . S
C909 C908 1.404 . S
C909 H921 0.930 . S
C910 C906 1.524 . S
C910 H922 0.956 . S
C910 H923 0.961 . S
C910 H924 0.961 . S
C911 C908 1.539 . S
C911 H925 0.958 . S
C911 H926 0.961 . S
C911 H927 0.960 . S
H912 C896 0.931 . S
H913 C901 0.929 . S
H914 C902 0.960 . S
H915 C902 0.962 . S
H916 C902 0.960 . S
H917 C903 0.961 . S
H918 C903 0.961 . S
H919 C903 0.961 . S
H920 C904 0.931 . S
H921 C909 0.930 . S
H922 C910 0.956 . S
H923 C910 0.961 . S
H924 C910 0.961 . S
H925 C911 0.958 . S
H926 C911 0.961 . S
H927 C911 0.960 . S
C928 C929 1.391 . S
C928 C930 1.394 . S
C928 H944 0.931 . S
C929 C928 1.391 . S
C929 C933 1.376 . S
C930 C928 1.394 . S
C930 C931 1.369 . S
C930 C934 1.531 . S
C931 C930 1.369 . S
C931 C932 1.410 . S
C931 C939 1.503 . S
C932 C931 1.410 . S
C932 C933 1.392 . S
C932 C935 1.511 . S
C933 C929 1.376 . S
C933 C932 1.392 . S
C933 H945 0.929 . S
C934 C930 1.531 . S
C934 H946 0.960 . S
C934 H947 0.962 . S
C934 H948 0.960 . S
C935 C932 1.511 . S
C935 H949 0.961 . S
C935 H950 0.961 . S
C935 H951 0.961 . S
C936 C937 1.370 . S
C936 C938 1.363 . S
C936 H952 0.931 . S
C937 C936 1.370 . S
C937 C941 1.408 . S
C938 C936 1.363 . S
C938 C939 1.370 . S
C938 C942 1.524 . S
C939 C931 1.503 . S
C939 C938 1.370 . S
C939 C940 1.403 . S
C940 C939 1.403 . S
C940 C941 1.404 . S
C940 C943 1.539 . S
C941 C937 1.408 . S
C941 C940 1.404 . S
C941 H953 0.930 . S
C942 C938 1.524 . S
C942 H954 0.956 . S
C942 H955 0.961 . S
C942 H956 0.961 . S
C943 C940 1.539 . S
C943 H957 0.958 . S
C943 H958 0.961 . S
C943 H959 0.960 . S
H944 C928 0.931 . S
H945 C933 0.929 . S
H946 C934 0.960 . S
H947 C934 0.962 . S
H948 C934 0.960 . S
H949 C935 0.961 . S
H950 C935 0.961 . S
H951 C935 0.961 . S
H952 C936 0.931 . S
H953 C941 0.930 . S
H954 C942 0.956 . S
H955 C942 0.961 . S
H956 C942 0.961 . S
H957 C943 0.958 . S
H958 C943 0.961 . S
H959 C943 0.960 . S
C960 C961 1.391 . S
C960 C962 1.394 . S
C960 H976 0.931 . S
C961 C960 1.391 . S
C961 C965 1.376 . S
C962 C960 1.394 . S
C962 C963 1.369 . S
C962 C966 1.531 . S
C963 C962 1.369 . S
C963 C964 1.410 . S
C963 C971 1.503 . S
C964 C963 1.410 . S
C964 C965 1.392 . S
C964 C967 1.511 . S
C965 C961 1.376 . S
C965 C964 1.392 . S
C965 H977 0.929 . S
C966 C962 1.531 . S
C966 H978 0.960 . S
C966 H979 0.962 . S
C966 H980 0.960 . S
C967 C964 1.511 . S
C967 H981 0.961 . S
C967 H982 0.961 . S
C967 H983 0.961 . S
C968 C969 1.370 . S
C968 C970 1.363 . S
C968 H984 0.931 . S
C969 C968 1.370 . S
C969 C973 1.408 . S
C970 C968 1.363 . S
C970 C971 1.370 . S
C970 C974 1.524 . S
C971 C963 1.503 . S
C971 C970 1.370 . S
C971 C972 1.403 . S
C972 C971 1.403 . S
C972 C973 1.404 . S
C972 C975 1.539 . S
C973 C969 1.408 . S
C973 C972 1.404 . S
C973 H985 0.930 . S
C974 C970 1.524 . S
C974 H986 0.956 . S
C974 H987 0.961 . S
C974 H988 0.961 . S
C975 C972 1.539 . S
C975 H989 0.958 . S
C975 H990 0.961 . S
C975 H991 0.960 . S
H976 C960 0.931 . S
H977 C965 0.929 . S
H978 C966 0.960 . S
H979 C966 0.962 . S
H980 C966 0.960 . S
H981 C967 0.961 . S
H982 C967 0.961 . S
H983 C967 0.961 . S
H984 C968 0.931 . S
H985 C973 0.930 . S
H986 C974 0.956 . S
H987 C974 0.961 . S
H988 C974 0.961 . S
H989 C975 0.958 . S
H990 C975 0.961 . S
H991 C975 0.960 . S
C992 C993 1.391 . S
C992 C994 1.394 . S
C992 H1008 0.931 . S
C993 C992 1.391 . S
C993 C997 1.376 . S
C994 C992 1.394 . S
C994 C995 1.369 . S
C994 C998 1.531 . S
C995 C994 1.369 . S
C995 C996 1.410 . S
C995 C1003 1.503 1_545 S
C996 C995 1.410 . S
C996 C997 1.392 . S
C996 C999 1.511 1_545 S
C997 C993 1.376 . S
C997 C996 1.392 . S
C997 H1009 0.929 . S
C998 C994 1.531 . S
C998 H1010 0.960 . S
C998 H1011 0.962 . S
C998 H1012 0.960 . S
C999 C996 1.511 1_565 S
C999 H1013 0.961 . S
C999 H1014 0.961 . S
C999 H1015 0.961 . S
C1000 C1001 1.370 . S
C1000 C1002 1.363 . S
C1000 H1016 0.931 . S
C1001 C1000 1.370 . S
C1001 C1005 1.408 . S
C1002 C1000 1.363 . S
C1002 C1003 1.370 . S
C1002 C1006 1.524 . S
C1003 C995 1.503 1_565 S
C1003 C1002 1.370 . S
C1003 C1004 1.403 . S
C1004 C1003 1.403 . S
C1004 C1005 1.404 . S
C1004 C1007 1.539 1_565 S
C1005 C1001 1.408 . S
C1005 C1004 1.404 . S
C1005 H1017 0.930 . S
C1006 C1002 1.524 . S
C1006 H1018 0.956 . S
C1006 H1019 0.961 . S
C1006 H1020 0.961 . S
C1007 C1004 1.539 1_545 S
C1007 H1021 0.958 . S
C1007 H1022 0.961 1_545 S
C1007 H1023 0.960 . S
H1008 C992 0.931 . S
H1009 C997 0.929 . S
H1010 C998 0.960 . S
H1011 C998 0.962 . S
H1012 C998 0.960 . S
H1013 C999 0.961 . S
H1014 C999 0.961 . S
H1015 C999 0.961 . S
H1016 C1000 0.931 . S
H1017 C1005 0.930 . S
H1018 C1006 0.956 . S
H1019 C1006 0.961 . S
H1020 C1006 0.961 . S
H1021 C1007 0.958 . S
H1022 C1007 0.961 1_565 S
H1023 C1007 0.960 . S
C1024 C1025 1.391 . S
C1024 C1026 1.394 . S
C1024 H1040 0.931 . S
C1025 C1024 1.391 . S
C1025 C1029 1.376 . S
C1026 C1024 1.394 . S
C1026 C1027 1.369 . S
C1026 C1030 1.531 . S
C1027 C1026 1.369 . S
C1027 C1028 1.410 . S
C1027 C1035 1.503 . S
C1028 C1027 1.410 . S
C1028 C1029 1.392 . S
C1028 C1031 1.511 . S
C1029 C1025 1.376 . S
C1029 C1028 1.392 . S
C1029 H1041 0.929 . S
C1030 C1026 1.531 . S
C1030 H1042 0.960 . S
C1030 H1043 0.962 . S
C1030 H1044 0.960 . S
C1031 C1028 1.511 . S
C1031 H1045 0.961 . S
C1031 H1046 0.961 . S
C1031 H1047 0.961 . S
C1032 C1033 1.370 . S
C1032 C1034 1.363 . S
C1032 H1048 0.931 . S
C1033 C1032 1.370 . S
C1033 C1037 1.408 . S
C1034 C1032 1.363 . S
C1034 C1035 1.370 . S
C1034 C1038 1.524 . S
C1035 C1027 1.503 . S
C1035 C1034 1.370 . S
C1035 C1036 1.403 . S
C1036 C1035 1.403 . S
C1036 C1037 1.404 . S
C1036 C1039 1.539 . S
C1037 C1033 1.408 . S
C1037 C1036 1.404 . S
C1037 H1049 0.930 . S
C1038 C1034 1.524 . S
C1038 H1050 0.956 . S
C1038 H1051 0.961 . S
C1038 H1052 0.961 . S
C1039 C1036 1.539 . S
C1039 H1053 0.958 . S
C1039 H1054 0.961 . S
C1039 H1055 0.960 . S
H1040 C1024 0.931 . S
H1041 C1029 0.929 . S
H1042 C1030 0.960 . S
H1043 C1030 0.962 . S
H1044 C1030 0.960 . S
H1045 C1031 0.961 . S
H1046 C1031 0.961 . S
H1047 C1031 0.961 . S
H1048 C1032 0.931 . S
H1049 C1037 0.930 . S
H1050 C1038 0.956 . S
H1051 C1038 0.961 . S
H1052 C1038 0.961 . S
H1053 C1039 0.958 . S
H1054 C1039 0.961 . S
H1055 C1039 0.960 . S
C1056 C1057 1.391 . S
C1056 C1058 1.394 . S
C1056 H1072 0.931 . S
C1057 C1056 1.391 . S
C1057 C1061 1.376 . S
C1058 C1056 1.394 . S
C1058 C1059 1.369 . S
C1058 C1062 1.531 1_545 S
C1059 C1058 1.369 . S
C1059 C1060 1.410 . S
C1059 C1067 1.503 1_546 S
C1060 C1059 1.410 . S
C1060 C1061 1.392 . S
C1060 C1063 1.511 1_556 S
C1061 C1057 1.376 . S
C1061 C1060 1.392 . S
C1061 H1073 0.929 . S
C1062 C1058 1.531 1_565 S
C1062 H1074 0.960 . S
C1062 H1075 0.962 . S
C1062 H1076 0.960 . S
C1063 C1060 1.511 1_554 S
C1063 H1077 0.961 . S
C1063 H1078 0.961 . S
C1063 H1079 0.961 . S
C1064 C1065 1.370 . S
C1064 C1066 1.363 . S
C1064 H1080 0.931 . S
C1065 C1064 1.370 . S
C1065 C1069 1.408 . S
C1066 C1064 1.363 . S
C1066 C1067 1.370 . S
C1066 C1070 1.524 1_565 S
C1067 C1059 1.503 1_564 S
C1067 C1066 1.370 . S
C1067 C1068 1.403 . S
C1068 C1067 1.403 . S
C1068 C1069 1.404 . S
C1068 C1071 1.539 1_554 S
C1069 C1065 1.408 . S
C1069 C1068 1.404 . S
C1069 H1081 0.930 . S
C1070 C1066 1.524 1_545 S
C1070 H1082 0.956 . S
C1070 H1083 0.961 . S
C1070 H1084 0.961 . S
C1071 C1068 1.539 1_556 S
C1071 H1085 0.958 . S
C1071 H1086 0.961 . S
C1071 H1087 0.960 . S
H1072 C1056 0.931 . S
H1073 C1061 0.929 . S
H1074 C1062 0.960 . S
H1075 C1062 0.962 . S
H1076 C1062 0.960 . S
H1077 C1063 0.961 . S
H1078 C1063 0.961 . S
H1079 C1063 0.961 . S
H1080 C1064 0.931 . S
H1081 C1069 0.930 . S
H1082 C1070 0.956 . S
H1083 C1070 0.961 . S
H1084 C1070 0.961 . S
H1085 C1071 0.958 . S
H1086 C1071 0.961 . S
H1087 C1071 0.960 . S
C1088 C1089 1.391 . S
C1088 C1090 1.394 . S
C1088 H1104 0.931 . S
C1089 C1088 1.391 . S
C1089 C1093 1.376 . S
C1090 C1088 1.394 . S
C1090 C1091 1.369 . S
C1090 C1094 1.531 . S
C1091 C1090 1.369 . S
C1091 C1092 1.410 . S
C1091 C1099 1.503 . S
C1092 C1091 1.410 . S
C1092 C1093 1.392 . S
C1092 C1095 1.511 . S
C1093 C1089 1.376 . S
C1093 C1092 1.392 . S
C1093 H1105 0.929 . S
C1094 C1090 1.531 . S
C1094 H1106 0.960 . S
C1094 H1107 0.962 . S
C1094 H1108 0.960 . S
C1095 C1092 1.511 . S
C1095 H1109 0.961 . S
C1095 H1110 0.961 . S
C1095 H1111 0.961 . S
C1096 C1097 1.370 . S
C1096 C1098 1.363 . S
C1096 H1112 0.931 . S
C1097 C1096 1.370 . S
C1097 C1101 1.408 . S
C1098 C1096 1.363 . S
C1098 C1099 1.370 . S
C1098 C1102 1.524 . S
C1099 C1091 1.503 . S
C1099 C1098 1.370 . S
C1099 C1100 1.403 . S
C1100 C1099 1.403 . S
C1100 C1101 1.404 . S
C1100 C1103 1.539 . S
C1101 C1097 1.408 . S
C1101 C1100 1.404 . S
C1101 H1113 0.930 . S
C1102 C1098 1.524 . S
C1102 H1114 0.956 . S
C1102 H1115 0.961 . S
C1102 H1116 0.961 . S
C1103 C1100 1.539 . S
C1103 H1117 0.958 . S
C1103 H1118 0.961 . S
C1103 H1119 0.960 . S
H1104 C1088 0.931 . S
H1105 C1093 0.929 . S
H1106 C1094 0.960 . S
H1107 C1094 0.962 . S
H1108 C1094 0.960 . S
H1109 C1095 0.961 . S
H1110 C1095 0.961 . S
H1111 C1095 0.961 . S
H1112 C1096 0.931 . S
H1113 C1101 0.930 . S
H1114 C1102 0.956 . S
H1115 C1102 0.961 . S
H1116 C1102 0.961 . S
H1117 C1103 0.958 . S
H1118 C1103 0.961 . S
H1119 C1103 0.960 . S
C1120 C1121 1.391 . S
C1120 C1122 1.394 . S
C1120 H1136 0.931 . S
C1121 C1120 1.391 . S
C1121 C1125 1.376 . S
C1122 C1120 1.394 . S
C1122 C1123 1.369 . S
C1122 C1126 1.531 . S
C1123 C1122 1.369 . S
C1123 C1124 1.410 . S
C1123 C1131 1.503 1_545 S
C1124 C1123 1.410 . S
C1124 C1125 1.392 . S
C1124 C1127 1.511 1_545 S
C1125 C1121 1.376 . S
C1125 C1124 1.392 . S
C1125 H1137 0.929 . S
C1126 C1122 1.531 . S
C1126 H1138 0.960 . S
C1126 H1139 0.962 . S
C1126 H1140 0.960 . S
C1127 C1124 1.511 1_565 S
C1127 H1141 0.961 . S
C1127 H1142 0.961 . S
C1127 H1143 0.961 . S
C1128 C1129 1.370 . S
C1128 C1130 1.363 . S
C1128 H1144 0.931 . S
C1129 C1128 1.370 . S
C1129 C1133 1.408 . S
C1130 C1128 1.363 . S
C1130 C1131 1.370 . S
C1130 C1134 1.524 . S
C1131 C1123 1.503 1_565 S
C1131 C1130 1.370 . S
C1131 C1132 1.403 . S
C1132 C1131 1.403 . S
C1132 C1133 1.404 . S
C1132 C1135 1.539 1_565 S
C1133 C1129 1.408 . S
C1133 C1132 1.404 . S
C1133 H1145 0.930 . S
C1134 C1130 1.524 . S
C1134 H1146 0.956 . S
C1134 H1147 0.961 . S
C1134 H1148 0.961 . S
C1135 C1132 1.539 1_545 S
C1135 H1149 0.958 . S
C1135 H1150 0.961 . S
C1135 H1151 0.960 . S
H1136 C1120 0.931 . S
H1137 C1125 0.929 . S
H1138 C1126 0.960 . S
H1139 C1126 0.962 . S
H1140 C1126 0.960 . S
H1141 C1127 0.961 . S
H1142 C1127 0.961 . S
H1143 C1127 0.961 . S
H1144 C1128 0.931 . S
H1145 C1133 0.930 . S
H1146 C1134 0.956 . S
H1147 C1134 0.961 . S
H1148 C1134 0.961 . S
H1149 C1135 0.958 . S
H1150 C1135 0.961 . S
H1151 C1135 0.960 . S
C1152 C1153 1.391 . S
C1152 C1154 1.394 . S
C1152 H1168 0.931 . S
C1153 C1152 1.391 . S
C1153 C1157 1.376 . S
C1154 C1152 1.394 . S
C1154 C1155 1.369 . S
C1154 C1158 1.531 . S
C1155 C1154 1.369 . S
C1155 C1156 1.410 . S
C1155 C1163 1.503 . S
C1156 C1155 1.410 . S
C1156 C1157 1.392 . S
C1156 C1159 1.511 . S
C1157 C1153 1.376 . S
C1157 C1156 1.392 . S
C1157 H1169 0.929 . S
C1158 C1154 1.531 . S
C1158 H1170 0.960 . S
C1158 H1171 0.962 . S
C1158 H1172 0.960 . S
C1159 C1156 1.511 . S
C1159 H1173 0.961 . S
C1159 H1174 0.961 . S
C1159 H1175 0.961 . S
C1160 C1161 1.370 . S
C1160 C1162 1.363 . S
C1160 H1176 0.931 . S
C1161 C1160 1.370 . S
C1161 C1165 1.408 . S
C1162 C1160 1.363 . S
C1162 C1163 1.370 . S
C1162 C1166 1.524 . S
C1163 C1155 1.503 . S
C1163 C1162 1.370 . S
C1163 C1164 1.403 . S
C1164 C1163 1.403 . S
C1164 C1165 1.404 . S
C1164 C1167 1.539 . S
C1165 C1161 1.408 . S
C1165 C1164 1.404 . S
C1165 H1177 0.930 . S
C1166 C1162 1.524 . S
C1166 H1178 0.956 . S
C1166 H1179 0.961 . S
C1166 H1180 0.961 . S
C1167 C1164 1.539 . S
C1167 H1181 0.958 . S
C1167 H1182 0.961 . S
C1167 H1183 0.960 . S
H1168 C1152 0.931 . S
H1169 C1157 0.929 . S
H1170 C1158 0.960 . S
H1171 C1158 0.962 . S
H1172 C1158 0.960 . S
H1173 C1159 0.961 . S
H1174 C1159 0.961 . S
H1175 C1159 0.961 . S
H1176 C1160 0.931 . S
H1177 C1165 0.930 . S
H1178 C1166 0.956 . S
H1179 C1166 0.961 . S
H1180 C1166 0.961 . S
H1181 C1167 0.958 . S
H1182 C1167 0.961 . S
H1183 C1167 0.960 . S
C1184 C1185 1.391 . S
C1184 C1186 1.394 . S
C1184 H1200 0.931 . S
C1185 C1184 1.391 . S
C1185 C1189 1.376 . S
C1186 C1184 1.394 . S
C1186 C1187 1.369 . S
C1186 C1190 1.531 1_565 S
C1187 C1186 1.369 . S
C1187 C1188 1.410 . S
C1187 C1195 1.503 1_564 S
C1188 C1187 1.410 . S
C1188 C1189 1.392 . S
C1188 C1191 1.511 1_554 S
C1189 C1185 1.376 . S
C1189 C1188 1.392 . S
C1189 H1201 0.929 . S
C1190 C1186 1.531 1_545 S
C1190 H1202 0.960 . S
C1190 H1203 0.962 . S
C1190 H1204 0.960 . S
C1191 C1188 1.511 1_556 S
C1191 H1205 0.961 . S
C1191 H1206 0.961 . S
C1191 H1207 0.961 . S
C1192 C1193 1.370 . S
C1192 C1194 1.363 . S
C1192 H1208 0.931 . S
C1193 C1192 1.370 . S
C1193 C1197 1.408 . S
C1194 C1192 1.363 . S
C1194 C1195 1.370 . S
C1194 C1198 1.524 1_545 S
C1195 C1187 1.503 1_546 S
C1195 C1194 1.370 . S
C1195 C1196 1.403 . S
C1196 C1195 1.403 . S
C1196 C1197 1.404 . S
C1196 C1199 1.539 1_556 S
C1197 C1193 1.408 . S
C1197 C1196 1.404 . S
C1197 H1209 0.930 . S
C1198 C1194 1.524 1_565 S
C1198 H1210 0.956 . S
C1198 H1211 0.961 . S
C1198 H1212 0.961 . S
C1199 C1196 1.539 1_554 S
C1199 H1213 0.958 . S
C1199 H1214 0.961 . S
C1199 H1215 0.960 . S
H1200 C1184 0.931 . S
H1201 C1189 0.929 . S
H1202 C1190 0.960 . S
H1203 C1190 0.962 . S
H1204 C1190 0.960 . S
H1205 C1191 0.961 . S
H1206 C1191 0.961 . S
H1207 C1191 0.961 . S
H1208 C1192 0.931 . S
H1209 C1197 0.930 . S
H1210 C1198 0.956 . S
H1211 C1198 0.961 . S
H1212 C1198 0.961 . S
H1213 C1199 0.958 . S
H1214 C1199 0.961 . S
H1215 C1199 0.960 . S
C1216 C1217 1.391 . S
C1216 C1218 1.394 . S
C1216 H1232 0.931 . S
C1217 C1216 1.391 . S
C1217 C1221 1.376 . S
C1218 C1216 1.394 . S
C1218 C1219 1.369 . S
C1218 C1222 1.531 . S
C1219 C1218 1.369 . S
C1219 C1220 1.410 . S
C1219 C1227 1.503 . S
C1220 C1219 1.410 . S
C1220 C1221 1.392 . S
C1220 C1223 1.511 . S
C1221 C1217 1.376 . S
C1221 C1220 1.392 . S
C1221 H1233 0.929 . S
C1222 C1218 1.531 . S
C1222 H1234 0.960 . S
C1222 H1235 0.962 . S
C1222 H1236 0.960 . S
C1223 C1220 1.511 . S
C1223 H1237 0.961 . S
C1223 H1238 0.961 . S
C1223 H1239 0.961 . S
C1224 C1225 1.370 . S
C1224 C1226 1.363 . S
C1224 H1240 0.931 . S
C1225 C1224 1.370 . S
C1225 C1229 1.408 . S
C1226 C1224 1.363 . S
C1226 C1227 1.370 . S
C1226 C1230 1.524 . S
C1227 C1219 1.503 . S
C1227 C1226 1.370 . S
C1227 C1228 1.403 . S
C1228 C1227 1.403 . S
C1228 C1229 1.404 . S
C1228 C1231 1.539 . S
C1229 C1225 1.408 . S
C1229 C1228 1.404 . S
C1229 H1241 0.930 . S
C1230 C1226 1.524 . S
C1230 H1242 0.956 . S
C1230 H1243 0.961 . S
C1230 H1244 0.961 . S
C1231 C1228 1.539 . S
C1231 H1245 0.958 . S
C1231 H1246 0.961 . S
C1231 H1247 0.960 . S
H1232 C1216 0.931 . S
H1233 C1221 0.929 . S
H1234 C1222 0.960 . S
H1235 C1222 0.962 . S
H1236 C1222 0.960 . S
H1237 C1223 0.961 . S
H1238 C1223 0.961 . S
H1239 C1223 0.961 . S
H1240 C1224 0.931 . S
H1241 C1229 0.930 . S
H1242 C1230 0.956 . S
H1243 C1230 0.961 . S
H1244 C1230 0.961 . S
H1245 C1231 0.958 . S
H1246 C1231 0.961 . S
H1247 C1231 0.960 . S
C225 C163 1.435 . S
C233 C8 1.430 . S
C257 C219 1.442 . S
C265 C23 1.433 . S
C289 C36 1.410 . S
C297 C134 1.422 . S
C321 C191 1.433 . S
C329 C50 1.429 . S
C353 C64 1.447 . S
C361 C190 1.436 . S
C385 C79 1.416 . S
C393 C162 1.422 . S
C417 C93 1.427 . S
C425 C218 1.429 . S
C449 C107 1.443 . S
C457 C135 1.435 . S
C481 C51 1.408 . S
C489 C120 1.421 . S
C513 C148 1.440 . S
C521 C22 1.432 . S
C545 C176 1.412 . S
C553 C78 1.423 . S
C577 C205 1.442 . S
C585 C106 1.435 . S
C609 C65 1.401 . S
C617 C121 1.416 . S
C641 C149 1.446 . S
C649 C92 1.436 . S
C673 C204 1.398 . S
C681 C37 1.416 . S
C705 C9 1.443 . S
C713 C177 1.434 . S
C737 C7 1.409 . S
C745 C63 1.433 . S
C769 C20 1.404 . S
C777 C76 1.425 . S
C801 C35 1.439 . S
C809 C90 1.415 . S
C833 C104 1.407 . S
C841 C49 1.424 . S
C865 C119 1.442 . S
C873 C175 1.420 . S
C897 C188 1.418 . S
C905 C132 1.417 . S
C929 C147 1.435 . S
C937 C202 1.427 . S
C961 C216 1.409 . S
C969 C161 1.419 . S
C993 C105 1.416 . S
C1001 C21 1.431 . S
C1025 C34 1.403 . S
C1033 C62 1.426 . S
C1057 C48 1.431 . S
C1065 C77 1.415 . S
C1089 C6 1.405 . S
C1097 C91 1.425 . S
C1121 C133 1.399 . S
C1129 C217 1.426 . S
C1153 C174 1.411 . S
C1161 C146 1.433 . S
C1185 C160 1.442 . S
C1193 C189 1.421 . S
C1217 C203 1.426 . S
C1225 C118 1.415 . S
