# Generated by pormake.
# Topology umn, (4)-cn, num edge types: 1
# Building blocks:
#     Node 0, Type 0, BuildingBlock: GALJAG_clean_sbu_0, # of connection points: 4
#     Node 1, Type 0, BuildingBlock: GALJAG_clean_sbu_0, # of connection points: 4
#     Node 2, Type 0, BuildingBlock: GALJAG_clean_sbu_0, # of connection points: 4
#     Node 3, Type 0, BuildingBlock: GALJAG_clean_sbu_0, # of connection points: 4
#     Node 4, Type 0, BuildingBlock: GALJAG_clean_sbu_0, # of connection points: 4
#     Node 5, Type 0, BuildingBlock: GALJAG_clean_sbu_0, # of connection points: 4
#     Node 6, Type 0, BuildingBlock: GALJAG_clean_sbu_0, # of connection points: 4
#     Node 7, Type 0, BuildingBlock: GALJAG_clean_sbu_0, # of connection points: 4
#     Node 8, Type 0, BuildingBlock: GALJAG_clean_sbu_0, # of connection points: 4
#     Node 9, Type 0, BuildingBlock: GALJAG_clean_sbu_0, # of connection points: 4
#     Node 10, Type 0, BuildingBlock: GALJAG_clean_sbu_0, # of connection points: 4
#     Node 11, Type 0, BuildingBlock: GALJAG_clean_sbu_0, # of connection points: 4
#     Node 12, Type 0, BuildingBlock: GALJAG_clean_sbu_0, # of connection points: 4
#     Node 13, Type 0, BuildingBlock: GALJAG_clean_sbu_0, # of connection points: 4
#     Node 14, Type 0, BuildingBlock: GALJAG_clean_sbu_0, # of connection points: 4
#     Node 15, Type 0, BuildingBlock: GALJAG_clean_sbu_0, # of connection points: 4
#     Node 16, Type 0, BuildingBlock: GALJAG_clean_sbu_0, # of connection points: 4
#     Node 17, Type 0, BuildingBlock: GALJAG_clean_sbu_0, # of connection points: 4
#     Node 18, Type 0, BuildingBlock: GALJAG_clean_sbu_0, # of connection points: 4
#     Node 19, Type 0, BuildingBlock: GALJAG_clean_sbu_0, # of connection points: 4
#     Node 20, Type 0, BuildingBlock: GALJAG_clean_sbu_0, # of connection points: 4
#     Node 21, Type 0, BuildingBlock: GALJAG_clean_sbu_0, # of connection points: 4
#     Node 22, Type 0, BuildingBlock: GALJAG_clean_sbu_0, # of connection points: 4
#     Node 23, Type 0, BuildingBlock: GALJAG_clean_sbu_0, # of connection points: 4
#     Node 24, Type 0, BuildingBlock: GALJAG_clean_sbu_0, # of connection points: 4
#     Node 25, Type 0, BuildingBlock: GALJAG_clean_sbu_0, # of connection points: 4
#     Node 26, Type 0, BuildingBlock: GALJAG_clean_sbu_0, # of connection points: 4
#     Node 27, Type 0, BuildingBlock: GALJAG_clean_sbu_0, # of connection points: 4
#     Node 28, Type 0, BuildingBlock: GALJAG_clean_sbu_0, # of connection points: 4
#     Node 29, Type 0, BuildingBlock: GALJAG_clean_sbu_0, # of connection points: 4
#     Node 30, Type 0, BuildingBlock: GALJAG_clean_sbu_0, # of connection points: 4
#     Node 31, Type 0, BuildingBlock: GALJAG_clean_sbu_0, # of connection points: 4
#     Node 32, Type 0, BuildingBlock: GALJAG_clean_sbu_0, # of connection points: 4
#     Node 33, Type 0, BuildingBlock: GALJAG_clean_sbu_0, # of connection points: 4
#     Node 34, Type 0, BuildingBlock: GALJAG_clean_sbu_0, # of connection points: 4
#     Node 35, Type 0, BuildingBlock: GALJAG_clean_sbu_0, # of connection points: 4
#     Edge 36, Type (0, 0), BuildingBlock: AJUNOK_clean_linker_0, # of connection points: 2
#     Edge 37, Type (0, 0), BuildingBlock: AJUNOK_clean_linker_0, # of connection points: 2
#     Edge 38, Type (0, 0), BuildingBlock: AJUNOK_clean_linker_0, # of connection points: 2
#     Edge 39, Type (0, 0), BuildingBlock: AJUNOK_clean_linker_0, # of connection points: 2
#     Edge 40, Type (0, 0), BuildingBlock: AJUNOK_clean_linker_0, # of connection points: 2
#     Edge 41, Type (0, 0), BuildingBlock: AJUNOK_clean_linker_0, # of connection points: 2
#     Edge 42, Type (0, 0), BuildingBlock: AJUNOK_clean_linker_0, # of connection points: 2
#     Edge 43, Type (0, 0), BuildingBlock: AJUNOK_clean_linker_0, # of connection points: 2
#     Edge 44, Type (0, 0), BuildingBlock: AJUNOK_clean_linker_0, # of connection points: 2
#     Edge 45, Type (0, 0), BuildingBlock: AJUNOK_clean_linker_0, # of connection points: 2
#     Edge 46, Type (0, 0), BuildingBlock: AJUNOK_clean_linker_0, # of connection points: 2
#     Edge 47, Type (0, 0), BuildingBlock: AJUNOK_clean_linker_0, # of connection points: 2
#     Edge 48, Type (0, 0), BuildingBlock: AJUNOK_clean_linker_0, # of connection points: 2
#     Edge 49, Type (0, 0), BuildingBlock: AJUNOK_clean_linker_0, # of connection points: 2
#     Edge 50, Type (0, 0), BuildingBlock: AJUNOK_clean_linker_0, # of connection points: 2
#     Edge 51, Type (0, 0), BuildingBlock: AJUNOK_clean_linker_0, # of connection points: 2
#     Edge 52, Type (0, 0), BuildingBlock: AJUNOK_clean_linker_0, # of connection points: 2
#     Edge 53, Type (0, 0), BuildingBlock: AJUNOK_clean_linker_0, # of connection points: 2
#     Edge 54, Type (0, 0), BuildingBlock: AJUNOK_clean_linker_0, # of connection points: 2
#     Edge 55, Type (0, 0), BuildingBlock: AJUNOK_clean_linker_0, # of connection points: 2
#     Edge 56, Type (0, 0), BuildingBlock: AJUNOK_clean_linker_0, # of connection points: 2
#     Edge 57, Type (0, 0), BuildingBlock: AJUNOK_clean_linker_0, # of connection points: 2
#     Edge 58, Type (0, 0), BuildingBlock: AJUNOK_clean_linker_0, # of connection points: 2
#     Edge 59, Type (0, 0), BuildingBlock: AJUNOK_clean_linker_0, # of connection points: 2
#     Edge 60, Type (0, 0), BuildingBlock: AJUNOK_clean_linker_0, # of connection points: 2
#     Edge 61, Type (0, 0), BuildingBlock: AJUNOK_clean_linker_0, # of connection points: 2
#     Edge 62, Type (0, 0), BuildingBlock: AJUNOK_clean_linker_0, # of connection points: 2
#     Edge 63, Type (0, 0), BuildingBlock: AJUNOK_clean_linker_0, # of connection points: 2
#     Edge 64, Type (0, 0), BuildingBlock: AJUNOK_clean_linker_0, # of connection points: 2
#     Edge 65, Type (0, 0), BuildingBlock: AJUNOK_clean_linker_0, # of connection points: 2
#     Edge 66, Type (0, 0), BuildingBlock: AJUNOK_clean_linker_0, # of connection points: 2
#     Edge 67, Type (0, 0), BuildingBlock: AJUNOK_clean_linker_0, # of connection points: 2
#     Edge 68, Type (0, 0), BuildingBlock: AJUNOK_clean_linker_0, # of connection points: 2
#     Edge 69, Type (0, 0), BuildingBlock: AJUNOK_clean_linker_0, # of connection points: 2
#     Edge 70, Type (0, 0), BuildingBlock: AJUNOK_clean_linker_0, # of connection points: 2
#     Edge 71, Type (0, 0), BuildingBlock: AJUNOK_clean_linker_0, # of connection points: 2
#     Edge 72, Type (0, 0), BuildingBlock: AJUNOK_clean_linker_0, # of connection points: 2
#     Edge 73, Type (0, 0), BuildingBlock: AJUNOK_clean_linker_0, # of connection points: 2
#     Edge 74, Type (0, 0), BuildingBlock: AJUNOK_clean_linker_0, # of connection points: 2
#     Edge 75, Type (0, 0), BuildingBlock: AJUNOK_clean_linker_0, # of connection points: 2
#     Edge 76, Type (0, 0), BuildingBlock: AJUNOK_clean_linker_0, # of connection points: 2
#     Edge 77, Type (0, 0), BuildingBlock: AJUNOK_clean_linker_0, # of connection points: 2
#     Edge 78, Type (0, 0), BuildingBlock: AJUNOK_clean_linker_0, # of connection points: 2
#     Edge 79, Type (0, 0), BuildingBlock: AJUNOK_clean_linker_0, # of connection points: 2
#     Edge 80, Type (0, 0), BuildingBlock: AJUNOK_clean_linker_0, # of connection points: 2
#     Edge 81, Type (0, 0), BuildingBlock: AJUNOK_clean_linker_0, # of connection points: 2
#     Edge 82, Type (0, 0), BuildingBlock: AJUNOK_clean_linker_0, # of connection points: 2
#     Edge 83, Type (0, 0), BuildingBlock: AJUNOK_clean_linker_0, # of connection points: 2
#     Edge 84, Type (0, 0), BuildingBlock: AJUNOK_clean_linker_0, # of connection points: 2
#     Edge 85, Type (0, 0), BuildingBlock: AJUNOK_clean_linker_0, # of connection points: 2
#     Edge 86, Type (0, 0), BuildingBlock: AJUNOK_clean_linker_0, # of connection points: 2
#     Edge 87, Type (0, 0), BuildingBlock: AJUNOK_clean_linker_0, # of connection points: 2
#     Edge 88, Type (0, 0), BuildingBlock: AJUNOK_clean_linker_0, # of connection points: 2
#     Edge 89, Type (0, 0), BuildingBlock: AJUNOK_clean_linker_0, # of connection points: 2
#     Edge 90, Type (0, 0), BuildingBlock: AJUNOK_clean_linker_0, # of connection points: 2
#     Edge 91, Type (0, 0), BuildingBlock: AJUNOK_clean_linker_0, # of connection points: 2
#     Edge 92, Type (0, 0), BuildingBlock: AJUNOK_clean_linker_0, # of connection points: 2
#     Edge 93, Type (0, 0), BuildingBlock: AJUNOK_clean_linker_0, # of connection points: 2
#     Edge 94, Type (0, 0), BuildingBlock: AJUNOK_clean_linker_0, # of connection points: 2
#     Edge 95, Type (0, 0), BuildingBlock: AJUNOK_clean_linker_0, # of connection points: 2
#     Edge 96, Type (0, 0), BuildingBlock: AJUNOK_clean_linker_0, # of connection points: 2
#     Edge 97, Type (0, 0), BuildingBlock: AJUNOK_clean_linker_0, # of connection points: 2
#     Edge 98, Type (0, 0), BuildingBlock: AJUNOK_clean_linker_0, # of connection points: 2
#     Edge 99, Type (0, 0), BuildingBlock: AJUNOK_clean_linker_0, # of connection points: 2
#     Edge 100, Type (0, 0), BuildingBlock: AJUNOK_clean_linker_0, # of connection points: 2
#     Edge 101, Type (0, 0), BuildingBlock: AJUNOK_clean_linker_0, # of connection points: 2
#     Edge 102, Type (0, 0), BuildingBlock: AJUNOK_clean_linker_0, # of connection points: 2
#     Edge 103, Type (0, 0), BuildingBlock: AJUNOK_clean_linker_0, # of connection points: 2
#     Edge 104, Type (0, 0), BuildingBlock: AJUNOK_clean_linker_0, # of connection points: 2
#     Edge 105, Type (0, 0), BuildingBlock: AJUNOK_clean_linker_0, # of connection points: 2
#     Edge 106, Type (0, 0), BuildingBlock: AJUNOK_clean_linker_0, # of connection points: 2
#     Edge 107, Type (0, 0), BuildingBlock: AJUNOK_clean_linker_0, # of connection points: 2
# Relax obj value: 0.191
# Max RMSD: 0.184
# Mean RMSD: 0.184
data_MOF--net-umn--node1-GALJAG_clean_sbu_0--edge1-AJUNOK_clean_linker_0
_symmetry_space_group_name_H-M    P1
_symmetry_Int_Tables_number       1
_symmetry_cell_setting            triclinic
loop_
_symmetry_equiv_pos_as_xyz
'x, y, z'
_cell_length_a     62.656683
_cell_length_b     62.698516
_cell_length_c     26.659985
_cell_angle_alpha  90.007599
_cell_angle_beta   89.986133
_cell_angle_gamma 120.09458
loop_
_atom_site_label
_atom_site_type_symbol
_atom_site_fract_x
_atom_site_fract_y
_atom_site_fract_z
_atom_type_partial_charge
In0 In 0.35111 0.0906 0.23219 0.0
O1 O 0.35948 0.10106 0.31552 0.0
O2 O 0.32204 0.0823 0.28994 0.0
C3 C 0.38676 0.09589 0.16825 0.0
C4 C 0.34018 0.12428 0.20241 0.0
C5 C 0.32963 0.04233 0.2394 0.0
O6 O 0.39089 0.0997 0.21504 0.0
O7 O 0.36539 0.0907 0.15461 0.0
O8 O 0.32152 0.05228 0.20927 0.0
O9 O 0.34894 0.05669 0.26346 0.0
C10 C 0.33665 0.09126 0.32662 0.0
O11 O 0.3272 0.10177 0.19018 0.0
O12 O 0.3595 0.12984 0.22743 0.0
In13 In 0.88552 0.25358 0.23449 0.0
O14 O 0.87558 0.25264 0.31819 0.0
O15 O 0.89345 0.23313 0.29318 0.0
C16 C 0.88087 0.28422 0.17048 0.0
C17 C 0.85103 0.20947 0.20319 0.0
C18 C 0.93414 0.27911 0.23918 0.0
O19 O 0.87727 0.28473 0.21732 0.0
O20 O 0.88552 0.26769 0.15673 0.0
O21 O 0.92298 0.25846 0.21693 0.0
O22 O 0.92074 0.28722 0.25612 0.0
C23 C 0.88497 0.23933 0.32969 0.0
O24 O 0.87341 0.21902 0.18996 0.0
O25 O 0.84593 0.22296 0.23026 0.0
In26 In 0.72536 0.62922 0.23414 0.0
O27 O 0.75957 0.65392 0.1902 0.0
O28 O 0.75758 0.62269 0.22741 0.0
C29 C 0.69996 0.65251 0.23928 0.0
C30 C 0.738 0.6395 0.3313 0.0
C31 C 0.69529 0.59355 0.16952 0.0
O32 O 0.72077 0.66209 0.21783 0.0
O33 O 0.69161 0.6308 0.25522 0.0
O34 O 0.69477 0.58946 0.2163 0.0
O35 O 0.71155 0.61493 0.15609 0.0
C36 C 0.77026 0.64198 0.20149 0.0
O37 O 0.72506 0.61731 0.3162 0.0
O38 O 0.74472 0.65553 0.29728 0.0
In39 In 0.08541 0.3535 0.30055 0.0
O40 O 0.09752 0.36525 0.21862 0.0
O41 O 0.07778 0.32701 0.23744 0.0
C42 C 0.09066 0.38932 0.36425 0.0
C43 C 0.11762 0.34071 0.33234 0.0
C44 C 0.03662 0.33037 0.29529 0.0
O45 O 0.09464 0.39325 0.31752 0.0
O46 O 0.08564 0.36808 0.37833 0.0
O47 O 0.04771 0.32092 0.31774 0.0
O48 O 0.0502 0.35184 0.27828 0.0
C49 C 0.08774 0.34303 0.20351 0.0
O50 O 0.09499 0.32871 0.34388 0.0
O51 O 0.12422 0.36015 0.30703 0.0
In52 In 0.62573 0.72927 0.30063 0.0
O53 O 0.61393 0.72946 0.21867 0.0
O54 O 0.65219 0.74841 0.23755 0.0
C55 C 0.59013 0.69889 0.36511 0.0
C56 C 0.63823 0.7741 0.33297 0.0
C57 C 0.64895 0.70383 0.29529 0.0
O58 O 0.5861 0.69835 0.3183 0.0
O59 O 0.61139 0.71538 0.3787 0.0
O60 O 0.65857 0.7246 0.31693 0.0
O61 O 0.62727 0.69559 0.27919 0.0
C62 C 0.63617 0.74213 0.20359 0.0
O63 O 0.65032 0.76359 0.34439 0.0
O64 O 0.61891 0.76126 0.30722 0.0
In65 In 0.25013 0.89096 0.29694 0.0
O66 O 0.24757 0.87799 0.2152 0.0
O67 O 0.22976 0.89815 0.23635 0.0
C68 C 0.28035 0.88533 0.36097 0.0
C69 C 0.20518 0.85958 0.3304 0.0
C70 C 0.27739 0.93938 0.28827 0.0
O71 O 0.2805 0.88136 0.31426 0.0
O72 O 0.26445 0.89089 0.3745 0.0
O73 O 0.25936 0.92957 0.31852 0.0
O74 O 0.28201 0.92475 0.26449 0.0
C75 C 0.23492 0.88781 0.20163 0.0
O76 O 0.21577 0.88249 0.33931 0.0
O77 O 0.21796 0.85243 0.30649 0.0
In78 In 0.6238 0.8909 0.79993 0.0
O79 O 0.61287 0.88041 0.71722 0.0
O80 O 0.65094 0.89912 0.73778 0.0
C81 C 0.58792 0.88518 0.86375 0.0
C82 C 0.63455 0.85692 0.82938 0.0
C83 C 0.64706 0.93966 0.79705 0.0
O84 O 0.58406 0.88159 0.8169 0.0
O85 O 0.6092 0.8902 0.87779 0.0
O86 O 0.65654 0.9283 0.81833 0.0
O87 O 0.6255 0.92634 0.78011 0.0
C88 C 0.63524 0.89003 0.70304 0.0
O89 O 0.64729 0.87929 0.84259 0.0
O90 O 0.61559 0.85162 0.80341 0.0
In91 In 0.08535 0.72741 0.7994 0.0
O92 O 0.09377 0.76179 0.84154 0.0
O93 O 0.12374 0.76 0.8069 0.0
C94 C 0.03706 0.69853 0.79291 0.0
C95 C 0.08657 0.74268 0.7048 0.0
C96 C 0.09261 0.69794 0.86228 0.0
O97 O 0.04652 0.7164 0.82357 0.0
O98 O 0.05199 0.69496 0.7675 0.0
O99 O 0.0961 0.69782 0.81533 0.0
O100 O 0.08684 0.71358 0.87659 0.0
C101 C 0.11658 0.77267 0.8312 0.0
O102 O 0.0972 0.73057 0.71668 0.0
O103 O 0.07632 0.74719 0.74075 0.0
In104 In 0.25097 0.35332 0.79379 0.0
O105 O 0.24927 0.36482 0.71235 0.0
O106 O 0.23084 0.32662 0.73175 0.0
C107 C 0.28246 0.38831 0.85776 0.0
C108 C 0.20665 0.34114 0.82891 0.0
C109 C 0.27744 0.33134 0.78476 0.0
O110 O 0.28208 0.39275 0.81136 0.0
O111 O 0.26609 0.36702 0.87154 0.0
O112 O 0.25703 0.32117 0.80803 0.0
O113 O 0.28454 0.35271 0.76805 0.0
C114 C 0.23644 0.34253 0.69774 0.0
O115 O 0.21698 0.32867 0.8386 0.0
O116 O 0.21946 0.36061 0.80356 0.0
In117 In 0.88576 0.6258 0.73397 0.0
O118 O 0.87776 0.65227 0.69276 0.0
O119 O 0.84746 0.61999 0.72534 0.0
C120 C 0.93392 0.64599 0.74471 0.0
C121 C 0.88294 0.63784 0.82926 0.0
C122 C 0.8798 0.59039 0.66855 0.0
O123 O 0.92484 0.65461 0.7137 0.0
O124 O 0.91877 0.6267 0.76784 0.0
O125 O 0.87543 0.5858 0.71507 0.0
O126 O 0.88588 0.6121 0.65587 0.0
C127 C 0.85485 0.64015 0.70208 0.0
O128 O 0.87278 0.61533 0.8156 0.0
O129 O 0.89337 0.65339 0.79457 0.0
In130 In 0.35027 0.25271 0.73326 0.0
O131 O 0.35942 0.25188 0.81686 0.0
O132 O 0.32183 0.23329 0.79297 0.0
C133 C 0.38638 0.28398 0.6711 0.0
C134 C 0.33999 0.20838 0.70201 0.0
C135 C 0.32836 0.27934 0.73452 0.0
O136 O 0.38994 0.2838 0.71802 0.0
O137 O 0.36545 0.26734 0.65604 0.0
O138 O 0.3183 0.25835 0.71357 0.0
O139 O 0.34946 0.28678 0.75314 0.0
C140 C 0.33673 0.23915 0.82904 0.0
O141 O 0.32731 0.21807 0.68891 0.0
O142 O 0.35873 0.22182 0.7288 0.0
In143 In 0.72441 0.09037 0.73095 0.0
O144 O 0.75837 0.10022 0.68587 0.0
O145 O 0.75636 0.12924 0.72414 0.0
C146 C 0.69836 0.04179 0.73868 0.0
C147 C 0.73898 0.09254 0.8265 0.0
C148 C 0.6941 0.09564 0.66678 0.0
O149 O 0.7187 0.05244 0.71529 0.0
O150 O 0.69067 0.05563 0.75506 0.0
O151 O 0.69399 0.09973 0.71346 0.0
O152 O 0.71005 0.09011 0.65324 0.0
C153 C 0.76902 0.12283 0.69767 0.0
O154 O 0.7259 0.102 0.81371 0.0
O155 O 0.74473 0.0831 0.79105 0.0
In156 In 0.01507 0.42446 0.56706 0.0
O157 O -0.00879 0.43554 0.52445 0.0
O158 O 0.02347 0.4637 0.5616 0.0
C159 C -0.00676 0.3762 0.57516 0.0
C160 C 0.00086 0.42557 0.66139 0.0
C161 C 0.0509 0.42942 0.50394 0.0
O162 O 0.9853 0.38613 0.54459 0.0
O163 O 0.01255 0.39054 0.59922 0.0
O164 O 0.05487 0.43336 0.55073 0.0
O165 O 0.02959 0.42425 0.48985 0.0
C166 C 0.00418 0.45808 0.53645 0.0
O167 O 0.02367 0.43542 0.65006 0.0
O168 O 0.98615 0.41641 0.62492 0.0
In169 In 0.5543 0.58736 0.56718 0.0
O170 O 0.54155 0.55255 0.52287 0.0
O171 O 0.51462 0.5569 0.56428 0.0
C172 C 0.60294 0.61294 0.5713 0.0
C173 C 0.55444 0.57333 0.66228 0.0
C174 C 0.5499 0.61866 0.50457 0.0
O175 O 0.59177 0.59246 0.5484 0.0
O176 O 0.5895 0.62081 0.58917 0.0
O177 O 0.54586 0.61845 0.55138 0.0
O178 O 0.55455 0.60224 0.48993 0.0
C179 C 0.51932 0.54316 0.53711 0.0
O180 O 0.54482 0.58646 0.65105 0.0
O181 O 0.56282 0.56714 0.62555 0.0
In182 In 0.38994 0.96001 0.56569 0.0
O183 O 0.39181 0.94995 0.64838 0.0
O184 O 0.40952 0.98775 0.62623 0.0
C185 C 0.35974 0.92416 0.5018 0.0
C186 C 0.43479 0.97321 0.53246 0.0
C187 C 0.36239 0.98092 0.57147 0.0
O188 O 0.35994 0.92004 0.54845 0.0
O189 O 0.37572 0.94559 0.48792 0.0
O190 O 0.38301 -0.00863 0.54907 0.0
O191 O 0.35554 0.95974 0.58895 0.0
C192 C 0.40439 0.97253 0.66141 0.0
O193 O 0.42384 0.9849 0.52108 0.0
O194 O 0.42231 0.95387 0.55839 0.0
In195 In 0.75383 0.68716 0.63404 0.0
O196 O 0.76411 0.69621 0.55052 0.0
O197 O 0.74554 0.65871 0.57508 0.0
C198 C 0.75847 0.72298 0.69674 0.0
C199 C 0.78798 0.6771 0.66544 0.0
C200 C 0.70519 0.66415 0.62875 0.0
O201 O 0.76264 0.72684 0.64998 0.0
O202 O 0.7535 0.70179 0.71127 0.0
O203 O 0.71619 0.65477 0.65192 0.0
O204 O 0.71878 0.68555 0.61127 0.0
C205 C 0.75436 0.67349 0.53876 0.0
O206 O 0.7656 0.66448 0.67883 0.0
O207 O 0.79326 0.69574 0.63841 0.0
In208 In 0.29007 0.05968 0.63005 0.0
O209 O 0.27898 0.06063 0.54782 0.0
O210 O 0.3171 0.07821 0.56761 0.0
C211 C 0.25419 0.03057 0.69524 0.0
C212 C 0.30386 0.10488 0.662 0.0
C213 C 0.31098 0.03205 0.62553 0.0
O214 O 0.25008 0.02984 0.64841 0.0
O215 O 0.27571 0.04664 0.70844 0.0
O216 O 0.32154 0.05291 0.64693 0.0
O217 O 0.28965 0.02499 0.6086 0.0
C218 C 0.30136 0.07269 0.53329 0.0
O219 O 0.31555 0.09393 0.67326 0.0
O220 O 0.28436 0.09233 0.63654 0.0
In221 In 0.91766 0.22479 0.63185 0.0
O222 O 0.8822 0.21352 0.67299 0.0
O223 O 0.88688 0.18543 0.63754 0.0
C224 C 0.94323 0.27334 0.62458 0.0
C225 C 0.90341 0.22232 0.53607 0.0
C226 C 0.94853 0.22026 0.69584 0.0
O227 O 0.92488 0.26276 0.65393 0.0
O228 O 0.94902 0.25942 0.60137 0.0
O229 O 0.94899 0.21668 0.64904 0.0
O230 O 0.93196 0.22485 0.70958 0.0
C231 C 0.87286 0.19095 0.66156 0.0
O232 O 0.91673 0.21325 0.54966 0.0
O233 O 0.89711 0.23161 0.57102 0.0
In234 In 0.29112 0.22381 0.13359 0.0
O235 O 0.31544 0.21409 0.17823 0.0
O236 O 0.28478 0.18509 0.13911 0.0
C237 C 0.31467 0.27262 0.13232 0.0
C238 C 0.30244 0.22261 0.03646 0.0
C239 C 0.25431 0.21788 0.19526 0.0
O240 O 0.32386 0.26095 0.15333 0.0
O241 O 0.29325 0.25957 0.11459 0.0
O242 O 0.25123 0.21487 0.14816 0.0
O243 O 0.27515 0.22216 0.2106 0.0
C244 C 0.30381 0.19159 0.16579 0.0
O245 O 0.28009 0.21226 0.05105 0.0
O246 O 0.31817 0.23264 0.07084 0.0
In247 In 0.75168 0.06108 0.12995 0.0
O248 O 0.76504 0.06319 0.04883 0.0
O249 O 0.74497 0.08133 0.06836 0.0
C250 C 0.75729 0.03112 0.19464 0.0
C251 C 0.78289 0.10618 0.16276 0.0
C252 C 0.70336 0.034 0.1196 0.0
O253 O 0.76143 0.03093 0.14803 0.0
O254 O 0.75149 0.04688 0.20775 0.0
O255 O 0.71286 0.05165 0.15073 0.0
O256 O 0.71813 0.02949 0.09613 0.0
C257 C 0.75537 0.07584 0.0343 0.0
O258 O 0.75994 0.09562 0.17142 0.0
O259 O 0.79012 0.09331 0.13949 0.0
In260 In 0.91793 0.68793 0.12909 0.0
O261 O 0.883 0.66412 0.17207 0.0
O262 O 0.88733 0.6966 0.13577 0.0
C263 C 0.94454 0.66618 0.12142 0.0
C264 C 0.90168 0.67362 0.03523 0.0
C265 C 0.94899 0.72393 0.19166 0.0
O266 O 0.92689 0.65861 0.15255 0.0
O267 O 0.94909 0.68505 0.0962 0.0
O268 O 0.94878 0.72782 0.14489 0.0
O269 O 0.9329 0.70265 0.20603 0.0
C270 C 0.87359 0.6773 0.16083 0.0
O271 O 0.91525 0.6964 0.04616 0.0
O272 O 0.89623 0.65899 0.07179 0.0
In273 In 0.55135 0.95845 0.06844 0.0
O274 O 0.53989 0.94841 0.1508 0.0
O275 O 0.55871 0.98632 0.1285 0.0
C276 C 0.54651 0.92279 1.00506 0.0
C277 C 0.51757 0.96923 0.03785 0.0
C278 C 0.59993 0.98108 0.07428 0.0
O279 O 0.5432 0.91894 0.05197 0.0
O280 O 0.55095 0.94385 0.99103 0.0
O281 O 0.58935 0.98851 0.04421 0.0
O282 O 0.58601 0.96199 0.09933 0.0
C283 C 0.54931 0.97093 0.16381 0.0
O284 O 0.54024 0.98266 0.02727 0.0
O285 O 0.51193 0.94967 0.06193 0.0
In286 In 0.0179 0.58807 0.06656 0.0
O287 O -0.00676 0.55271 0.02542 0.0
O288 O 0.02591 0.55699 0.06072 0.0
C289 C -0.00376 0.61468 0.0751 0.0
C290 C 0.00543 0.57374 0.16204 0.0
C291 C 0.05359 0.61875 1.00278 0.0
O292 O -0.01187 0.59674 0.04465 0.0
O293 O 0.01566 0.61966 0.09865 0.0
O294 O 0.05779 0.61847 0.04935 0.0
O295 O 0.03212 0.60282 0.98903 0.0
C296 C 0.00626 0.54314 0.03676 0.0
O297 O 0.02797 0.58672 0.14883 0.0
O298 O -0.01002 0.5677 0.12681 0.0
In299 In 0.39198 0.42367 0.06838 0.0
O300 O 0.39115 0.43546 0.14999 0.0
O301 O 0.41199 0.41801 0.13187 0.0
C302 C 0.36186 0.42686 1.00022 0.0
C303 C 0.43654 0.45747 0.03727 0.0
C304 C 0.36686 0.37518 0.07765 0.0
O305 O 0.36125 0.43189 0.04622 0.0
O306 O 0.37817 0.42142 0.98923 0.0
O307 O 0.3876 0.38605 0.05565 0.0
O308 O 0.35851 0.38877 0.09208 0.0
C309 C 0.40472 0.42702 0.16553 0.0
O310 O 0.42725 0.43482 0.02675 0.0
O311 O 0.42261 0.46309 0.06137 0.0
In312 In 0.68284 0.7571 0.90041 0.0
O313 O 0.65815 0.76636 0.85596 0.0
O314 O 0.68934 0.79571 0.8935 0.0
C315 C 0.66247 0.70871 0.9065 0.0
C316 C 0.66954 0.75835 0.99573 0.0
C317 C 0.71864 0.76313 0.83612 0.0
O318 O 0.65188 0.71857 0.88356 0.0
O319 O 0.68356 0.72334 0.9242 0.0
O320 O 0.72282 0.76715 0.88284 0.0
O321 O 0.69712 0.7575 0.82256 0.0
C322 C 0.67007 0.78901 0.86743 0.0
O323 O 0.69224 0.76884 0.98324 0.0
O324 O 0.65456 0.74822 0.96013 0.0
In325 In 0.21789 0.92068 0.90152 0.0
O326 O 0.20676 0.88578 0.85877 0.0
O327 O 0.17844 0.89012 0.89436 0.0
C328 C 0.26619 0.94695 0.91132 0.0
C329 C 0.21594 0.90462 0.99558 0.0
C330 C 0.21396 0.95192 0.83777 0.0
O331 O 0.25635 0.9294 0.87994 0.0
O332 O 0.25173 0.95177 0.9353 0.0
O333 O 0.20911 0.95155 0.88422 0.0
O334 O 0.21936 0.9359 0.82423 0.0
C335 C 0.18409 0.87638 0.86959 0.0
O336 O 0.20682 0.91824 0.98455 0.0
O337 O 0.22485 0.8989 0.95896 0.0
In338 In 0.05902 0.29679 0.89956 0.0
O339 O 0.09397 0.31954 0.85583 0.0
O340 O 0.0898 0.28813 0.89631 0.0
C341 C 0.0333 0.3197 0.90272 0.0
C342 C 0.07228 0.30985 0.99551 0.0
C343 C 0.02828 0.26098 0.83627 0.0
O344 O 0.05412 0.32929 0.88109 0.0
O345 O 0.02522 0.29824 0.91997 0.0
O346 O 0.02826 0.25709 0.88309 0.0
O347 O 0.04463 0.28219 0.82199 0.0
C348 C 0.10348 0.30679 0.86955 0.0
O349 O 0.05915 0.28724 0.98309 0.0
O350 O 0.07877 0.32486 0.95954 0.0
In351 In 0.41808 0.01797 0.96461 0.0
O352 O 0.43111 0.02856 0.88304 0.0
O353 O 0.41037 0.99047 0.90335 0.0
C354 C 0.42439 0.05452 0.02735 0.0
C355 C 0.44936 0.00417 0.99737 0.0
C356 C 0.36958 -0.00294 0.95747 0.0
O357 O 0.42836 0.0582 0.98054 0.0
O358 O 0.41872 0.03315 0.04176 0.0
O359 O 0.37942 0.98906 0.98805 0.0
O360 O 0.3842 0.01586 0.93242 0.0
C361 C 0.42098 0.00613 0.86895 0.0
O362 O 0.42643 -0.00819 1.00633 0.0
O363 O 0.45655 0.02421 0.97385 0.0
In364 In 0.95719 0.39468 0.96572 0.0
O365 O 0.98178 0.42872 1.01026 0.0
O366 O 0.95041 0.42669 0.97362 0.0
C367 C 0.98099 0.36978 0.95831 0.0
C368 C 0.96705 0.40797 0.86881 0.0
C369 C 0.92164 0.36378 0.02972 0.0
O370 O -0.00968 0.39028 0.98092 0.0
O371 O 0.95927 0.36146 0.94236 0.0
O372 O 0.91746 0.36398 0.98315 0.0
O373 O 0.94303 0.37991 0.04347 0.0
C374 C 0.96974 0.43935 0.99944 0.0
O375 O 0.94493 0.39464 0.88405 0.0
O376 O 0.98321 0.41473 0.9026 0.0
In377 In 0.58507 0.55759 0.96565 0.0
O378 O 0.58448 0.54585 0.88339 0.0
O379 O 0.56621 0.56565 0.90327 0.0
C380 C 0.61553 0.55227 0.0293 0.0
C381 C 0.5401 0.52562 0.99829 0.0
C382 C 0.61202 0.60623 0.96129 0.0
O383 O 0.61537 0.5481 0.98261 0.0
O384 O 0.59934 0.55735 0.0434 0.0
O385 O 0.59111 0.59558 0.98253 0.0
O386 O 0.61941 0.59226 0.94429 0.0
C387 C 0.57213 0.55582 0.86889 0.0
O388 O 0.55085 0.5483 1.00936 0.0
O389 O 0.55281 0.51888 0.97287 0.0
In390 In 0.9562 0.55789 0.4634 0.0
O391 O 0.9799 0.54809 0.50973 0.0
O392 O 0.94946 0.5191 0.46986 0.0
C393 C 0.97885 0.60649 0.45738 0.0
C394 C 0.96962 0.55653 0.36822 0.0
C395 C 0.92002 0.55216 0.52636 0.0
O396 O -0.01145 0.59563 0.47982 0.0
O397 O 0.95725 0.59285 0.44096 0.0
O398 O 0.91617 0.54813 0.47957 0.0
O399 O 0.94139 0.55766 0.54067 0.0
C400 C 0.96824 0.52556 0.49737 0.0
O401 O 0.9469 0.54686 0.38002 0.0
O402 O 0.98442 0.56574 0.40436 0.0
In403 In 0.41842 0.39473 0.46828 0.0
O404 O 0.42755 0.42919 0.51103 0.0
O405 O 0.45713 0.42658 0.47668 0.0
C406 C 0.37035 0.36709 0.45649 0.0
C407 C 0.42074 0.41052 0.37387 0.0
C408 C 0.42368 0.36448 0.53265 0.0
O409 O 0.37935 0.38458 0.4881 0.0
O410 O 0.38551 0.36296 0.43344 0.0
O411 O 0.42874 0.36498 0.48631 0.0
O412 O 0.41714 0.37971 0.54568 0.0
C413 C 0.45038 0.43958 0.50103 0.0
O414 O 0.43072 0.39781 0.38598 0.0
O415 O 0.41082 0.41557 0.40966 0.0
In416 In 0.58318 0.02115 0.4643 0.0
O417 O 0.54863 -0.00204 0.50877 0.0
O418 O 0.55223 0.02941 0.46921 0.0
C419 C 0.61045 -0.0 0.4588 0.0
C420 C 0.56819 0.00709 0.36958 0.0
C421 C 0.614 0.05686 0.52744 0.0
O422 O 0.58997 0.98977 0.4819 0.0
O423 O 0.61721 0.02103 0.44051 0.0
O424 O 0.61367 0.06091 0.48077 0.0
O425 O 0.59784 0.03556 0.54174 0.0
C426 C 0.53881 0.01054 0.49569 0.0
O427 O 0.58123 0.02986 0.38094 0.0
O428 O 0.56284 -0.00758 0.40595 0.0
In429 In 0.21929 0.29391 0.3965 0.0
O430 O 0.20833 0.28533 0.47949 0.0
O431 O 0.22725 0.32283 0.45438 0.0
C432 C 0.21401 0.258 0.33339 0.0
C433 C 0.1855 0.30471 0.36636 0.0
C434 C 0.26767 0.31523 0.40421 0.0
O435 O 0.21004 0.25405 0.38018 0.0
O436 O 0.21936 0.27934 0.31928 0.0
O437 O 0.25783 0.32325 0.37359 0.0
O438 O 0.25311 0.29613 0.42863 0.0
C439 C 0.21799 0.30811 0.4908 0.0
O440 O 0.20808 0.31788 0.35458 0.0
O441 O 0.17998 0.2853 0.39095 0.0
In442 In 0.68344 0.92195 0.40072 0.0
O443 O 0.69258 0.9209 0.48411 0.0
O444 O 0.65499 0.90194 0.45985 0.0
C445 C 0.7189 0.9523 0.33657 0.0
C446 C 0.67326 0.87757 0.3705 0.0
C447 C 0.66203 0.949 0.4053 0.0
O448 O 0.72314 0.95234 0.38325 0.0
O449 O 0.69751 0.93608 0.32283 0.0
O450 O 0.6518 0.92834 0.38294 0.0
O451 O 0.68321 0.95606 0.42321 0.0
C452 C 0.66987 0.90784 0.49601 0.0
O453 O 0.66036 0.88702 0.35728 0.0
O454 O 0.69213 0.8913 0.39673 0.0
In455 In 0.05682 0.75799 0.40044 0.0
O456 O 0.05651 0.76904 0.48287 0.0
O457 O 0.07578 0.75019 0.46309 0.0
C458 C 0.02738 0.76374 0.33466 0.0
C459 C 0.10175 0.79172 0.371 0.0
C460 C 0.03076 0.7092 0.40342 0.0
O461 O 0.02617 0.76678 0.38149 0.0
O462 O 0.04402 0.75908 0.32181 0.0
O463 O 0.05152 0.72043 0.3816 0.0
O464 O 0.02298 0.72271 0.42119 0.0
C465 C 0.0693 0.75957 0.49747 0.0
O466 O 0.09216 0.76919 0.35903 0.0
O467 O 0.088 0.79728 0.39592 0.0
C468 C 0.29841 0.97348 0.22744 0.0
C469 C 0.29058 0.96573 0.277 0.0
C470 C 0.31058 -0.00153 0.21482 0.0
C471 C 0.31577 0.01626 0.25178 0.0
H472 H 0.2948 0.96012 0.1981 0.0
H473 H 0.31639 0.00394 0.17638 0.0
S474 S 0.29907 0.00559 0.38645 0.0
N475 N 0.28833 0.9777 0.36268 0.0
N476 N 0.31217 0.02494 0.33925 0.0
C477 C 0.30812 0.00883 0.30134 0.0
C478 C 0.2952 0.9834 0.31394 0.0
C479 C -0.00185 0.3297 0.27113 0.0
C480 C 0.01017 0.31662 0.28383 0.0
C481 C 0.97359 0.31735 0.25549 0.0
C482 C 0.96047 0.29159 0.25089 0.0
H483 H 0.00778 0.34964 0.2733 0.0
H484 H 0.96481 0.32804 0.24682 0.0
S485 S 0.98332 0.24877 0.28044 0.0
N486 N 0.00705 0.27647 0.29171 0.0
N487 N 0.96078 0.25323 0.26138 0.0
C488 C 0.9722 0.27824 0.26337 0.0
C489 C -0.0029 0.29078 0.28026 0.0
C490 C 0.6619 0.65339 0.25967 0.0
C491 C 0.68743 0.66633 0.25092 0.0
C492 C 0.64968 0.66569 0.27524 0.0
C493 C 0.6627 0.69124 0.28367 0.0
H494 H 0.65126 0.6336 0.25439 0.0
H495 H 0.62988 0.65512 0.28078 0.0
S496 S 0.72985 0.73348 0.26679 0.0
N497 N 0.72545 0.706 0.25185 0.0
N498 N 0.70242 0.72918 0.28203 0.0
C499 C 0.68828 0.7044 0.27553 0.0
C500 C 0.70068 0.69192 0.25873 0.0
C501 C 0.64795 0.97859 0.77659 0.0
C502 C 0.66093 0.96612 0.78607 0.0
C503 C 0.66023 0.00305 0.76036 0.0
C504 C 0.68579 0.01561 0.75192 0.0
H505 H 0.62812 0.96933 0.78151 0.0
H506 H 0.64963 0.01213 0.75401 0.0
S507 S 0.72827 -0.00863 0.77209 0.0
N508 N 0.70075 0.96819 0.7869 0.0
N509 N 0.72387 0.01425 0.75548 0.0
C510 C 0.69904 0.00344 0.76139 0.0
C511 C 0.68658 0.97865 0.77888 0.0
C512 C 0.00293 0.68006 0.73186 0.0
C513 C 0.01069 0.68473 0.78216 0.0
C514 C 0.97788 0.66767 0.71969 0.0
C515 C 0.96003 0.65894 0.75763 0.0
H516 H 0.01634 0.68652 0.70169 0.0
H517 H 0.97244 0.66463 0.68059 0.0
S518 S 0.9709 0.66633 0.89489 0.0
N519 N -0.00119 0.68012 0.86993 0.0
N520 N 0.95145 0.65573 0.8472 0.0
C521 C 0.96752 0.66322 0.80807 0.0
C522 C -0.00698 0.67647 0.82037 0.0
C523 C 0.28999 0.28009 0.75295 0.0
C524 C 0.31542 0.29298 0.74302 0.0
C525 C 0.2779 0.29264 0.76813 0.0
C526 C 0.29084 0.31843 0.77287 0.0
H527 H 0.27955 0.26016 0.75054 0.0
H528 H 0.25826 0.28212 0.77549 0.0
S529 S 0.35753 0.36057 0.74945 0.0
N530 N 0.35313 0.33275 0.73815 0.0
N531 N 0.33029 0.35648 0.76561 0.0
C532 C 0.3162 0.33154 0.76212 0.0
C533 C 0.32854 0.31875 0.74743 0.0
C534 C 0.97585 0.33251 0.55124 0.0
C535 C 0.97941 0.35012 0.58743 0.0
C536 C 0.96427 0.30758 0.56412 0.0
C537 C 0.95546 0.29967 0.61314 0.0
H538 H 0.98257 0.33808 0.51331 0.0
H539 H 0.96199 0.29437 0.53536 0.0
S540 S 0.95963 0.3391 0.72042 0.0
N541 N 0.97324 0.35853 0.67357 0.0
N542 N 0.95048 0.31134 0.69741 0.0
C543 C 0.95838 0.31716 0.64923 0.0
C544 C 0.97069 0.34257 0.63641 0.0
C545 C 0.64189 0.65104 0.5915 0.0
C546 C 0.62934 0.62552 0.58275 0.0
C547 C 0.66637 0.66331 0.60764 0.0
C548 C 0.67886 0.65034 0.61671 0.0
H549 H 0.63272 0.66162 0.58587 0.0
H550 H 0.67557 0.68308 0.61316 0.0
S551 S 0.65405 0.58326 0.59997 0.0
N552 N 0.63099 0.58759 0.5843 0.0
N553 N 0.67713 0.61071 0.61548 0.0
C554 C 0.6665 0.62478 0.60848 0.0
C555 C 0.64167 0.61234 0.59109 0.0
C556 C 0.3494 0.03137 0.60718 0.0
C557 C 0.32374 0.01841 0.61444 0.0
C558 C 0.3617 0.01918 0.59105 0.0
C559 C 0.34874 -0.00637 0.5827 0.0
H560 H 0.35998 0.05114 0.61282 0.0
H561 H 0.38154 0.02974 0.58624 0.0
S562 S 0.28145 0.95134 0.59692 0.0
N563 N 0.28573 0.97877 0.61196 0.0
N564 N 0.30904 0.9557 0.58289 0.0
C565 C 0.32313 0.98043 0.59023 0.0
C566 C 0.31056 -0.00712 0.60583 0.0
C567 C 0.32856 0.33649 0.09844 0.0
C568 C 0.35417 0.34896 0.09056 0.0
C569 C 0.31602 0.31189 0.11366 0.0
C570 C 0.32877 0.29916 0.12258 0.0
H571 H 0.31809 0.34573 0.09232 0.0
H572 H 0.29617 0.30273 0.11814 0.0
S573 S 0.39608 0.32396 0.10961 0.0
N574 N 0.39203 0.34717 0.094 0.0
N575 N 0.3684 0.30081 0.12352 0.0
C576 C 0.35447 0.31157 0.11601 0.0
C577 C 0.36719 0.33652 0.09957 0.0
C578 C 0.63447 -0.00162 0.13445 0.0
C579 C 0.62635 -0.00498 0.08437 0.0
C580 C 0.65959 0.01159 0.14592 0.0
C581 C 0.67716 0.02103 0.10748 0.0
H582 H 0.62128 0.99099 0.16496 0.0
H583 H 0.66531 0.01399 0.18485 0.0
S584 S 0.66531 0.01734 0.97062 0.0
N585 N 0.63758 0.00261 0.99633 0.0
N586 N 0.6851 0.02665 0.01774 0.0
C587 C 0.66931 0.01776 0.05729 0.0
C588 C 0.64373 0.00494 0.04571 0.0
C589 C 0.96227 0.64957 0.06069 0.0
C590 C 0.95741 0.6527 0.11087 0.0
C591 C 0.97441 0.63664 0.04895 0.0
C592 C 0.98265 0.62725 0.08722 0.0
H593 H 0.95636 0.65691 0.03033 0.0
H594 H 0.97783 0.63444 1.00997 0.0
S595 S 0.97436 0.63044 0.2242 0.0
N596 N 0.96114 0.64496 0.19878 0.0
N597 N 0.985 0.62146 0.17687 0.0
C598 C 0.97797 0.6303 0.13748 0.0
C599 C 0.96502 0.64284 0.14933 0.0
C600 C 0.61219 0.64488 0.94131 0.0
C601 C 0.62542 0.63265 0.95043 0.0
C602 C 0.62428 0.66934 0.92492 0.0
C603 C 0.64997 0.68237 0.91816 0.0
H604 H 0.59232 0.63531 0.94558 0.0
H605 H 0.61352 0.67826 0.91859 0.0
S606 S 0.69292 0.65865 0.93809 0.0
N607 N 0.66542 0.63515 0.95179 0.0
N608 N 0.68831 0.68148 0.92219 0.0
C609 C 0.66343 0.67042 0.92773 0.0
C610 C 0.65108 0.64542 0.9436 0.0
C611 C 0.33514 0.98178 0.89707 0.0
C612 C 0.34314 0.98405 0.9471 0.0
C613 C 0.31003 0.96919 0.88535 0.0
C614 C 0.29236 0.95931 0.92355 0.0
H615 H 0.3484 0.98946 0.86674 0.0
H616 H 0.3044 0.96761 0.84646 0.0
S617 S 0.3038 0.9602 0.06018 0.0
N618 N 0.33161 0.97497 0.03481 0.0
N619 N 0.28416 0.95213 1.01298 0.0
C620 C 0.30007 0.96152 0.97369 0.0
C621 C 0.32562 0.97371 0.98548 0.0
C622 C -0.00523 0.32026 0.91918 0.0
C623 C 0.0205 0.33332 0.91341 0.0
C624 C 0.98219 0.33223 0.93464 0.0
C625 C -0.00499 0.35751 0.94598 0.0
H626 H 0.98429 0.30063 0.91182 0.0
H627 H 0.96228 0.32155 0.93801 0.0
S628 S 0.0626 0.39983 0.93779 0.0
N629 N 0.05851 0.37275 0.92036 0.0
N630 N 0.03482 0.3953 0.95034 0.0
C631 C 0.02079 0.37078 0.9407 0.0
C632 C 0.03356 0.35866 0.924 0.0
C633 C -0.0071 0.67098 0.42921 0.0
C634 C 0.01764 0.68257 0.41335 0.0
C635 C 0.98052 0.64632 0.44415 0.0
C636 C -0.00733 0.63268 0.44486 0.0
H637 H 0.98304 0.68106 0.43039 0.0
H638 H 0.96139 0.63793 0.45568 0.0
S639 S 0.05674 0.65378 0.40397 0.0
N640 N 0.05343 0.67813 0.39683 0.0
N641 N 0.03011 0.63171 0.42596 0.0
C642 C 0.01723 0.64382 0.42849 0.0
C643 C 0.02973 0.66882 0.41231 0.0
C644 C 0.30127 0.33077 0.46654 0.0
C645 C 0.29395 0.32869 0.41603 0.0
C646 C 0.32618 0.34373 0.47979 0.0
C647 C 0.34436 0.35423 0.44268 0.0
H648 H 0.2876 0.32262 0.49607 0.0
H649 H 0.33127 0.34515 0.51901 0.0
S650 S 0.3348 0.35427 0.30545 0.0
N651 N 0.30666 0.33872 0.3291 0.0
N652 N 0.35378 0.36233 0.35381 0.0
C653 C 0.33734 0.35227 0.39209 0.0
C654 C 0.31197 0.33968 0.37875 0.0
C655 C 0.6235 0.94947 0.42393 0.0
C656 C 0.64912 0.96251 0.41611 0.0
C657 C 0.61118 0.96165 0.44005 0.0
C658 C 0.62409 0.98725 0.44784 0.0
H659 H 0.61301 0.92967 0.41878 0.0
H660 H 0.59137 0.95106 0.44527 0.0
S661 S 0.69126 0.02971 0.43197 0.0
N662 N 0.68703 0.00225 0.41741 0.0
N663 N 0.66371 0.02529 0.44651 0.0
C664 C 0.64967 0.00051 0.43974 0.0
C665 C 0.66225 0.98808 0.42414 0.0
C666 C 0.33486 0.09241 0.46911 0.0
C667 C 0.3094 0.07893 0.4802 0.0
C668 C 0.34354 0.09698 0.41953 0.0
C669 C 0.32714 0.08833 0.37883 0.0
H670 H 0.34838 0.09911 0.49902 0.0
H671 H 0.36328 0.10691 0.41316 0.0
S672 S 0.2586 0.05306 0.38722 0.0
N673 N 0.26788 0.05774 0.44618 0.0
N674 N 0.28397 0.06633 0.353 0.0
C675 C 0.30156 0.07543 0.38932 0.0
C676 C 0.29275 0.07075 0.43993 0.0
C677 C 0.88379 0.23636 0.47225 0.0
C678 C 0.89703 0.22415 0.48315 0.0
C679 C 0.87932 0.24062 0.42269 0.0
C680 C 0.8878 0.23276 0.38192 0.0
H681 H 0.87729 0.24329 0.50226 0.0
H682 H 0.86961 0.25062 0.41639 0.0
S683 S 0.92221 0.1987 0.3899 0.0
N684 N 0.91767 0.20338 0.44889 0.0
N685 N 0.90924 0.21111 0.35587 0.0
C686 C 0.90038 0.21978 0.39227 0.0
C687 C 0.90499 0.21555 0.4428 0.0
C688 C 0.76221 0.68076 0.4463 0.0
C689 C 0.75167 0.66423 0.48643 0.0
C690 C 0.75833 0.67236 0.39652 0.0
C691 C 0.74366 0.64708 0.38471 0.0
H692 H 0.7732 0.7004 0.45324 0.0
H693 H 0.76651 0.68597 0.36697 0.0
S694 S 0.71238 0.59603 0.47613 0.0
N695 N 0.72638 0.6211 0.51102 0.0
N696 N 0.71911 0.60556 0.41751 0.0
C697 C 0.73351 0.63028 0.42448 0.0
C698 C 0.7375 0.63879 0.47527 0.0
C699 C 0.07353 0.31008 0.13808 0.0
C700 C 0.08615 0.33543 0.15019 0.0
C701 C 0.0697 0.3019 0.08816 0.0
C702 C 0.07837 0.31871 0.04817 0.0
H703 H 0.066 0.29629 0.16742 0.0
H704 H 0.05939 0.28225 0.08095 0.0
S705 S 0.11374 0.38712 0.05938 0.0
N706 N 0.10816 0.37725 0.11793 0.0
N707 N 0.10119 0.3621 0.02414 0.0
C708 C 0.09171 0.34416 0.05972 0.0
C709 C 0.09554 0.35246 0.11065 0.0
C710 C 0.66915 0.76125 0.13817 0.0
C711 C 0.64378 0.748 0.15022 0.0
C712 C 0.67738 0.76524 0.08826 0.0
C713 C 0.6606 0.75619 0.04823 0.0
H714 H 0.68293 0.76814 0.16759 0.0
H715 H 0.69706 0.77494 0.08113 0.0
S716 S 0.59212 0.72182 0.0592 0.0
N717 N 0.60195 0.72694 0.11779 0.0
N718 N 0.61719 0.73446 0.02404 0.0
C719 C 0.63512 0.74368 0.05968 0.0
C720 C 0.62677 0.73959 0.11059 0.0
C721 C 0.21566 0.90236 0.13808 0.0
C722 C 0.22811 0.88935 0.14885 0.0
C723 C 0.21098 0.90648 0.0886 0.0
C724 C 0.21846 0.8977 0.04772 0.0
H725 H 0.21001 0.91008 0.16812 0.0
H726 H 0.20202 0.91722 0.08243 0.0
S727 S 0.25015 0.861 0.05537 0.0
N728 N 0.24669 0.86663 0.1144 0.0
N729 N 0.23781 0.87409 0.02145 0.0
C730 C 0.2301 0.88382 0.05795 0.0
C731 C 0.23493 0.87972 0.10844 0.0
C732 C 0.66875 0.90581 0.63854 0.0
C733 C 0.64331 0.89234 0.64993 0.0
C734 C 0.67728 0.91015 0.58885 0.0
C735 C 0.66074 0.90116 0.5484 0.0
H736 H 0.68231 0.91363 0.66828 0.0
H737 H 0.69695 0.92112 0.58219 0.0
S738 S 0.59234 0.86334 0.55771 0.0
N739 N 0.60177 0.86905 0.61652 0.0
N740 N 0.61758 0.87693 0.52315 0.0
C741 C 0.63525 0.88694 0.55923 0.0
C742 C 0.6266 0.88261 0.60992 0.0
C743 C 0.0884 0.74548 0.56232 0.0
C744 C 0.0753 0.75775 0.55072 0.0
C745 C 0.09273 0.7414 0.61209 0.0
C746 C 0.08419 0.74945 0.65244 0.0
H747 H 0.09493 0.73836 0.53269 0.0
H748 H 0.10228 0.73128 0.61887 0.0
S749 S 0.05051 0.78415 0.64264 0.0
N750 N 0.05499 0.77905 0.58388 0.0
N751 N 0.06316 0.77163 0.67738 0.0
C752 C 0.07184 0.76257 0.64142 0.0
C753 C 0.0674 0.76666 0.59063 0.0
C754 C 0.2118 0.30085 0.5835 0.0
C755 C 0.2205 0.31741 0.54307 0.0
C756 C 0.21631 0.30932 0.6332 0.0
C757 C 0.22979 0.33473 0.64467 0.0
H758 H 0.20199 0.28115 0.57682 0.0
H759 H 0.2097 0.2957 0.66288 0.0
S760 S 0.25515 0.38587 0.55253 0.0
N761 N 0.24207 0.36065 0.5179 0.0
N762 N 0.2506 0.37636 0.61133 0.0
C763 C 0.23779 0.35152 0.60469 0.0
C764 C 0.23314 0.34293 0.55395 0.0
C765 C 0.90286 0.68047 0.94235 0.0
C766 C 0.89431 0.66417 0.98322 0.0
C767 C 0.89823 0.67167 0.89288 0.0
C768 C 0.8849 0.64619 0.88211 0.0
H769 H 0.9138 0.70017 0.9485 0.0
H770 H 0.90582 0.68506 0.86282 0.0
S771 S 0.85696 0.59574 0.97563 0.0
N772 N 0.87056 0.62117 1.00956 0.0
N773 N 0.86214 0.60484 0.91658 0.0
C774 C 0.87549 0.6297 0.92254 0.0
C775 C 0.88012 0.63863 0.97304 0.0
C776 C 0.33583 0.23826 0.97167 0.0
C777 C 0.31043 0.22462 0.98329 0.0
C778 C 0.34428 0.24227 0.92191 0.0
C779 C 0.3277 0.23279 0.88159 0.0
H780 H 0.34943 0.24644 1.00126 0.0
H781 H 0.36392 0.25337 0.91507 0.0
S782 S 0.25936 0.19439 0.89155 0.0
N783 N 0.26887 0.20066 0.95025 0.0
N784 N 0.28454 0.20795 0.85678 0.0
C785 C 0.30225 0.21842 0.89268 0.0
C786 C 0.29367 0.2144 0.94345 0.0
C787 C 0.73688 0.09855 0.9191 0.0
C788 C 0.74565 0.09052 0.87913 0.0
C789 C 0.74096 0.09446 0.96905 0.0
C790 C 0.75393 0.08211 0.98113 0.0
H791 H 0.7262 0.10748 0.91187 0.0
H792 H 0.73323 0.10048 0.99841 0.0
S793 S 0.78214 0.05872 0.89032 0.0
N794 N 0.76915 0.07071 0.8551 0.0
N795 N 0.77653 0.06297 0.94885 0.0
C796 C 0.76353 0.07473 0.94159 0.0
C797 C 0.75947 0.07894 0.89068 0.0
C798 C 0.00804 0.43342 0.75376 0.0
C799 C -0.00849 0.42278 0.71365 0.0
C800 C -0.00031 0.42919 0.80356 0.0
C801 C 0.97447 0.41403 0.81543 0.0
H802 H 0.02765 0.44472 0.74678 0.0
H803 H 0.01332 0.43746 0.83306 0.0
S804 S 0.92342 0.38233 0.72414 0.0
N805 N 0.94843 0.39694 0.68914 0.0
N806 N 0.93299 0.38893 0.78276 0.0
C807 C 0.95765 0.40379 0.77571 0.0
C808 C 0.9661 0.40817 0.72488 0.0
C809 C 0.55195 0.56897 0.80465 0.0
C810 C 0.56617 0.55781 0.81574 0.0
C811 C 0.54772 0.57342 0.75508 0.0
C812 C 0.55745 0.56683 0.71444 0.0
H813 H 0.54438 0.57485 0.83458 0.0
H814 H 0.5371 0.58248 0.74868 0.0
S815 S 0.5953 0.53635 0.72284 0.0
N816 N 0.58942 0.5397 0.78176 0.0
N817 N 0.5815 0.54785 0.68863 0.0
C818 C 0.57118 0.55503 0.72491 0.0
C819 C 0.57551 0.55057 0.77549 0.0
C820 C 0.40536 0.97277 0.80404 0.0
C821 C 0.41944 -0.0019 0.81594 0.0
C822 C 0.40132 0.96447 0.75415 0.0
C823 C 0.41121 0.98115 0.71406 0.0
H824 H 0.39673 0.95917 0.83347 0.0
H825 H 0.38973 0.94492 0.74701 0.0
S826 S 0.45137 0.04921 0.72487 0.0
N827 N 0.44461 0.03959 0.78343 0.0
N828 N 0.43731 0.0242 0.68981 0.0
C829 C 0.42624 0.00646 0.72549 0.0
C830 C 0.43028 0.01488 0.77632 0.0
C831 C 0.56512 0.00498 0.22711 0.0
C832 C 0.55153 0.97948 0.21656 0.0
C833 C 0.56977 0.01388 0.27654 0.0
C834 C 0.56098 -0.00234 0.31752 0.0
H835 H 0.57288 0.01829 0.19693 0.0
H836 H 0.58091 0.03358 0.28259 0.0
S837 S 0.52265 0.92927 0.31041 0.0
N838 N 0.52812 0.93825 0.25131 0.0
N839 N 0.53657 0.95475 0.34414 0.0
C840 C 0.5465 0.97213 0.3075 0.0
C841 C 0.54186 0.9631 0.2571 0.0
C842 C 0.96264 0.55099 0.27516 0.0
C843 C 0.97896 0.5589 0.31601 0.0
C844 C 0.97146 0.55522 0.22564 0.0
C845 C -0.00303 0.56757 0.21488 0.0
H846 H 0.94292 0.54201 0.28138 0.0
H847 H 0.95807 0.54924 0.19553 0.0
S848 S 0.0475 0.59088 0.30839 0.0
N849 N 0.02204 0.57878 0.34228 0.0
N850 N 0.03836 0.58674 0.24936 0.0
C851 C 0.01347 0.57494 0.25532 0.0
C852 C 0.00454 0.5706 0.30578 0.0
C853 C 0.42474 0.41462 0.2316 0.0
C854 C 0.41046 0.42555 0.21911 0.0
C855 C 0.42865 0.41052 0.28162 0.0
C856 C 0.41855 0.41725 0.32136 0.0
H857 H 0.43251 0.40855 0.20244 0.0
H858 H 0.4392 0.40147 0.28905 0.0
S859 S 0.38088 0.44775 0.30924 0.0
N860 N 0.38705 0.44393 0.25083 0.0
N861 N 0.39444 0.43648 0.34483 0.0
C862 C 0.40491 0.42898 0.3095 0.0
C863 C 0.40087 0.43307 0.25845 0.0
C864 C 0.30061 0.15048 0.1585 0.0
C865 C 0.3131 0.17468 0.17733 0.0
C866 C 0.30984 0.13452 0.16588 0.0
C867 C 0.33193 0.14216 0.19231 0.0
H868 H 0.28363 0.1438 0.13751 0.0
H869 H 0.29944 0.116 0.15092 0.0
S870 S 0.37167 0.2037 0.24958 0.0
N871 N 0.3487 0.20555 0.22383 0.0
N872 N 0.36607 0.17552 0.23765 0.0
C873 C 0.34465 0.16632 0.21138 0.0
C874 C 0.3352 0.18257 0.20398 0.0
C875 C 0.82445 0.14374 0.15872 0.0
C876 C 0.79979 0.13237 0.17484 0.0
C877 C 0.84064 0.16883 0.16697 0.0
C878 C 0.83285 0.18353 0.19181 0.0
H879 H 0.83134 0.13326 0.13921 0.0
H880 H 0.85952 0.17666 0.15417 0.0
S881 S 0.77005 0.16271 0.24135 0.0
N882 N 0.76822 0.13771 0.21662 0.0
N883 N 0.79877 0.18495 0.23233 0.0
C884 C 0.80821 0.17244 0.20806 0.0
C885 C 0.79166 0.14684 0.19958 0.0
C886 C 0.80795 0.63825 0.20678 0.0
C887 C 0.7964 0.65109 0.1892 0.0
C888 C 0.83306 0.64719 0.19836 0.0
C889 C 0.84758 0.66933 0.1721 0.0
H890 H 0.79759 0.62122 0.22754 0.0
H891 H 0.84107 0.63654 0.21235 0.0
S892 S 0.82618 0.70992 0.11796 0.0
N893 N 0.80135 0.68707 0.1441 0.0
N894 N 0.84858 0.70389 0.12833 0.0
C895 C 0.83629 0.6824 0.15431 0.0
C896 C 0.81068 0.67325 0.16278 0.0
C897 C 0.1592 0.34477 0.3264 0.0
C898 C 0.13463 0.33143 0.34315 0.0
C899 C 0.17532 0.33567 0.33302 0.0
C900 C 0.1675 0.31286 0.3566 0.0
H901 H 0.16605 0.36235 0.30769 0.0
H902 H 0.19413 0.34675 0.31985 0.0
S903 S 0.10491 0.2706 0.40708 0.0
N904 N 0.10317 0.29415 0.38426 0.0
N905 N 0.13349 0.27703 0.39665 0.0
C906 C 0.14295 0.29926 0.37344 0.0
C907 C 0.12653 0.30857 0.36681 0.0
C908 C 0.64323 0.83678 0.33399 0.0
C909 C 0.66538 0.85152 0.36008 0.0
C910 C 0.63434 0.81164 0.32642 0.0
C911 C 0.64725 0.80028 0.34463 0.0
H912 H 0.63251 0.84463 0.31954 0.0
H913 H 0.61729 0.80111 0.30576 0.0
S914 S 0.7062 0.83069 0.41555 0.0
N915 N 0.70006 0.85295 0.40429 0.0
N916 N 0.68334 0.80566 0.39004 0.0
C917 C 0.66943 0.81478 0.37085 0.0
C918 C 0.67852 0.84042 0.37851 0.0
C919 C 0.14261 0.8017 0.33626 0.0
C920 C 0.12784 0.80969 0.36012 0.0
C921 C 0.16772 0.81787 0.32785 0.0
C922 C 0.17903 0.84267 0.34292 0.0
H923 H 0.1348 0.78273 0.32418 0.0
H924 H 0.17827 0.81086 0.309 0.0
S925 S 0.1485 0.87286 0.40702 0.0
N926 N 0.12631 0.84406 0.39884 0.0
N927 N 0.17356 0.87451 0.38295 0.0
C928 C 0.1645 0.85094 0.36691 0.0
C929 C 0.13888 0.83445 0.37547 0.0
C930 C 0.66505 0.84664 0.86486 0.0
C931 C 0.64261 0.83891 0.83974 0.0
C932 C 0.67403 0.83051 0.87257 0.0
C933 C 0.66092 0.80601 0.85548 0.0
H934 H 0.67593 0.86539 0.87845 0.0
H935 H 0.69132 0.8373 0.89246 0.0
S936 S 0.60111 0.77657 0.78757 0.0
N937 N 0.6074 0.8051 0.79774 0.0
N938 N 0.62428 0.77472 0.81228 0.0
C939 C 0.63844 0.798 0.83023 0.0
C940 C 0.62926 0.81446 0.82242 0.0
C941 C 0.15814 0.81034 0.82747 0.0
C942 C 0.13334 0.79898 0.84265 0.0
C943 C 0.17421 0.83551 0.83521 0.0
C944 C 0.16611 0.85033 0.85847 0.0
H945 H 0.16526 0.79975 0.80921 0.0
H946 H 0.19321 0.84332 0.82328 0.0
S947 S 0.10279 0.82965 0.90474 0.0
N948 N 0.1013 0.80451 0.88167 0.0
N949 N 0.13156 0.85189 0.8963 0.0
C950 C 0.1413 0.83927 0.87364 0.0
C951 C 0.12492 0.81358 0.86579 0.0
C952 C 0.14417 0.33661 0.83233 0.0
C953 C 0.1295 0.31458 0.8588 0.0
C954 C 0.16924 0.34534 0.82402 0.0
C955 C 0.18062 0.33237 0.84177 0.0
H956 H 0.13631 0.34735 0.81807 0.0
H957 H 0.17969 0.36228 0.803 0.0
S958 S 0.15045 0.27377 0.91376 0.0
N959 N 0.1282 0.28001 0.90317 0.0
N960 N 0.17538 0.29642 0.88744 0.0
C961 C 0.16621 0.31034 0.8685 0.0
C962 C 0.14063 0.30142 0.87697 0.0
C963 C 0.8137 0.63694 0.70788 0.0
C964 C 0.83825 0.64988 0.69098 0.0
C965 C 0.79784 0.6463 0.70066 0.0
C966 C 0.80588 0.66892 0.67614 0.0
H967 H 0.80663 0.61948 0.72717 0.0
H968 H 0.77902 0.63548 0.71395 0.0
S969 S 0.86856 0.71019 0.62506 0.0
N970 N 0.87 0.68665 0.64895 0.0
N971 N 0.84009 0.70421 0.63522 0.0
C972 C 0.83043 0.68216 0.65922 0.0
C973 C 0.84662 0.67263 0.66661 0.0
C974 C 0.30968 0.16789 0.66482 0.0
C975 C 0.33194 0.18236 0.69075 0.0
C976 C 0.30054 0.14277 0.65659 0.0
C977 C 0.31333 0.13112 0.67392 0.0
H978 H 0.29901 0.17595 0.6511 0.0
H979 H 0.28337 0.13246 0.63622 0.0
S980 S 0.37264 0.16078 0.74362 0.0
N981 N 0.36668 0.18326 0.73357 0.0
N982 N 0.34953 0.13597 0.71802 0.0
C983 C 0.33568 0.14536 0.6998 0.0
C984 C 0.345 0.171 0.70816 0.0
C985 C 0.83195 0.18042 0.69713 0.0
C986 C 0.84666 0.17291 0.67138 0.0
C987 C 0.80673 0.16426 0.70433 0.0
C988 C 0.79523 0.13998 0.68598 0.0
H989 H 0.83992 0.19899 0.71175 0.0
H990 H 0.79624 0.17084 0.72487 0.0
S991 S 0.82546 0.11127 0.61529 0.0
N992 N 0.84788 0.1396 0.627 0.0
N993 N 0.80043 0.1092 0.64047 0.0
C994 C 0.80969 0.13223 0.6599 0.0
C995 C 0.83542 0.14868 0.65269 0.0
C996 C 0.97394 0.4683 0.49922 0.0
C997 C -0.00403 0.47596 0.52589 0.0
C998 C 0.96481 0.4843 0.49126 0.0
C999 C 0.97734 0.50856 0.50975 0.0
H1000 H 0.96353 0.44973 0.48447 0.0
H1001 H 0.94789 0.47761 0.47004 0.0
S1002 S 0.03573 0.53764 0.58258 0.0
N1003 N 0.03006 0.5094 0.57119 0.0
N1004 N 0.01288 0.53949 0.5563 0.0
C1005 C -0.00065 0.51646 0.53672 0.0
C1006 C 0.0087 0.50017 0.5447 0.0
C1007 C 0.50821 0.50226 0.50108 0.0
C1008 C 0.50094 0.51712 0.52697 0.0
C1009 C 0.49187 0.4771 0.49398 0.0
C1010 C 0.46758 0.4658 0.51237 0.0
H1011 H 0.52678 0.51003 0.4865 0.0
H1012 H 0.49833 0.4665 0.47348 0.0
S1013 S 0.43932 0.49652 0.58278 0.0
N1014 N 0.46778 0.51874 0.57118 0.0
N1015 N 0.43698 0.47137 0.55765 0.0
C1016 C 0.46001 0.48042 0.5383 0.0
C1017 C 0.47669 0.5061 0.54558 0.0
C1018 C 0.49825 0.97996 0.53231 0.0
C1019 C 0.51263 0.00214 0.50612 0.0
C1020 C 0.47297 0.97046 0.53956 0.0
C1021 C 0.46109 0.98279 0.5209 0.0
H1022 H 0.5065 0.96966 0.54706 0.0
H1023 H 0.46275 0.95341 0.56033 0.0
S1024 S 0.4904 0.04159 0.44955 0.0
N1025 N 0.51315 0.03624 0.46134 0.0
N1026 N 0.4656 0.01839 0.47499 0.0
C1027 C 0.47523 0.00501 0.4946 0.0
C1028 C 0.50101 0.01472 0.48727 0.0
C1029 C 0.49125 0.00891 0.99564 0.0
C1030 C 0.46629 -0.00503 1.00956 0.0
C1031 C 0.50752 0.00015 1.004 0.0
C1032 C 0.49948 0.9771 0.02665 0.0
H1033 H 0.49832 0.02673 0.97782 0.0
H1034 H 0.52661 0.01169 0.99292 0.0
S1035 S 0.43586 0.93327 0.0699 0.0
N1036 N 0.43421 0.95685 0.04695 0.0
N1037 N 0.46486 0.94037 0.06276 0.0
C1038 C 0.47455 0.96289 0.04071 0.0
C1039 C 0.45795 0.97184 0.03221 0.0
C1040 C 0.97565 0.50244 1.00061 0.0
C1041 C -0.00217 0.51693 0.02679 0.0
C1042 C 0.96639 0.47723 0.99308 0.0
C1043 C 0.97894 0.46553 1.0115 0.0
H1044 H 0.96525 0.51059 0.98587 0.0
H1045 H 0.94938 0.46692 0.97216 0.0
S1046 S 0.03756 0.49508 0.08356 0.0
N1047 N 0.03198 0.51767 0.07186 0.0
N1048 N 0.01456 0.47026 0.05775 0.0
C1049 C 0.00107 0.47974 0.03809 0.0
C1050 C 0.01054 0.50546 0.04564 0.0
C1051 C 0.4776 0.46757 1.00332 0.0
C1052 C 0.4626 0.47554 0.02628 0.0
C1053 C 0.50274 0.4838 0.99537 0.0
C1054 C 0.51387 0.50862 1.01014 0.0
H1055 H 0.46994 0.44855 0.99166 0.0
H1056 H 0.51348 0.4768 0.97728 0.0
S1057 S 0.48268 0.53885 0.07141 0.0
N1058 N 0.46064 0.50997 0.06342 0.0
N1059 N 0.50794 0.54053 0.04851 0.0
C1060 C 0.4991 0.51689 0.03309 0.0
C1061 C 0.47344 0.50035 0.04108 0.0
C1062 C 0.42423 0.06953 0.11414 0.0
C1063 C 0.42183 0.07165 0.06205 0.0
C1064 C 0.41531 0.08002 0.14901 0.0
C1065 C 0.40316 0.09253 0.13298 0.0
H1066 H 0.4316 0.05831 0.12811 0.0
H1067 H 0.41592 0.07634 0.18853 0.0
S1068 S 0.39523 0.10624 1.00119 0.0
N1069 N 0.40924 0.08995 0.99651 0.0
N1070 N 0.39183 0.109 0.06187 0.0
C1071 C 0.40251 0.09654 0.08119 0.0
C1072 C 0.41204 0.0863 0.04573 0.0
C1073 C 0.89703 0.32875 0.15145 0.0
C1074 C 0.8845 0.30409 0.13525 0.0
C1075 C 0.90736 0.34826 0.11674 0.0
C1076 C 0.90503 0.34384 0.06463 0.0
H1077 H 0.90076 0.33299 0.19098 0.0
H1078 H 0.91852 0.36688 0.13081 0.0
S1079 S 0.87055 0.28264 1.00334 0.0
N1080 N 0.86799 0.27637 0.06396 0.0
N1081 N 0.8867 0.31299 0.99889 0.0
C1082 C 0.89048 0.31937 0.04816 0.0
C1083 C 0.88042 0.2995 0.08346 0.0
C1084 C 0.63149 0.55346 0.11583 0.0
C1085 C 0.63581 0.55618 0.06371 0.0
C1086 C 0.6511 0.56337 0.15038 0.0
C1087 C 0.67572 0.57692 0.13402 0.0
H1088 H 0.6128 0.54492 0.13007 0.0
H1089 H 0.64683 0.56225 0.19001 0.0
S1090 S 0.69707 0.58686 1.0018 0.0
N1091 N 0.66668 0.57106 0.99764 0.0
N1092 N 0.70342 0.59029 0.06239 0.0
C1093 C 0.68031 0.57815 0.08211 0.0
C1094 C 0.66038 0.56761 0.04697 0.0
C1095 C 0.08924 0.40368 0.45114 0.0
C1096 C 0.08722 0.40592 0.39897 0.0
C1097 C 0.07981 0.41385 0.48563 0.0
C1098 C 0.06751 0.42613 0.46912 0.0
H1099 H 0.09681 0.39268 0.46543 0.0
H1100 H 0.08024 0.41016 0.52521 0.0
S1101 S 0.06015 0.43984 0.33699 0.0
N1102 N 0.07461 0.42396 0.33289 0.0
N1103 N 0.05625 0.44237 0.39753 0.0
C1104 C 0.0671 0.43017 0.41729 0.0
C1105 C 0.07715 0.42027 0.38223 0.0
C1106 C 0.55128 0.63477 0.41808 0.0
C1107 C 0.55368 0.63895 0.47026 0.0
C1108 C 0.56086 0.65444 0.38373 0.0
C1109 C 0.57372 0.67904 0.40035 0.0
H1110 H 0.54323 0.61617 0.40361 0.0
H1111 H 0.56003 0.65032 0.34407 0.0
S1112 S 0.58234 0.69998 0.53274 0.0
N1113 N 0.56734 0.6696 0.53662 0.0
N1114 N 0.58598 0.7065 0.47223 0.0
C1115 C 0.57459 0.68345 0.45228 0.0
C1116 C 0.56437 0.66342 0.48722 0.0
C1117 C 0.34409 0.90942 0.41502 0.0
C1118 C 0.33964 0.90762 0.46712 0.0
C1119 C 0.32457 0.89961 0.38024 0.0
C1120 C 0.2999 0.88818 0.39637 0.0
H1121 H 0.3628 0.91986 0.40097 0.0
H1122 H 0.32891 0.90296 0.34067 0.0
S1123 S 0.27824 0.87613 0.52837 0.0
N1124 N 0.30862 0.89106 0.53285 0.0
N1125 N 0.27203 0.8733 0.46772 0.0
C1126 C 0.2952 0.88459 0.44823 0.0
C1127 C 0.31505 0.89412 0.48358 0.0
C1128 C 0.57357 0.88595 0.95096 0.0
C1129 C 0.57109 0.88801 0.89889 0.0
C1130 C 0.56305 0.8948 0.98588 0.0
C1131 C 0.55012 0.90653 0.96991 0.0
H1132 H 0.58504 0.87883 0.96484 0.0
H1133 H 0.56696 0.89443 0.02535 0.0
S1134 S 0.53543 0.91353 0.8383 0.0
N1135 N 0.55207 0.89989 0.83351 0.0
N1136 N 0.53294 0.91715 0.89897 0.0
C1137 C 0.5458 0.90688 0.9182 0.0
C1138 C 0.55609 0.89743 0.8827 0.0
C1139 C 0.06783 0.63418 0.91574 0.0
C1140 C 0.07024 0.63865 0.96784 0.0
C1141 C 0.0778 0.65366 0.88095 0.0
C1142 C 0.09003 0.67833 0.89709 0.0
H1143 H 0.05678 0.61553 0.90177 0.0
H1144 H 0.07388 0.64936 0.84148 0.0
S1145 S 0.10429 0.69994 0.02885 0.0
N1146 N 0.08851 0.66958 0.03342 0.0
N1147 N 0.10654 0.70614 0.96823 0.0
C1148 C 0.09434 0.68299 0.94882 0.0
C1149 C 0.08465 0.66315 0.98418 0.0
C1150 C 0.29855 0.404 0.94389 0.0
C1151 C 0.30302 0.40428 0.89203 0.0
C1152 C 0.31802 0.41366 0.97881 0.0
C1153 C 0.34261 0.42328 0.96317 0.0
H1154 H 0.27978 0.39506 0.95778 0.0
H1155 H 0.31357 0.41175 0.01842 0.0
S1156 S 0.36431 0.43003 0.83147 0.0
N1157 N 0.33403 0.41689 0.82666 0.0
N1158 N 0.37048 0.43428 0.89208 0.0
C1159 C 0.3474 0.425 0.91127 0.0
C1160 C 0.32764 0.4157 0.87573 0.0
C1161 C 0.89458 0.56107 0.64832 0.0
C1162 C 0.88275 0.57395 0.63271 0.0
C1163 C 0.90482 0.55201 0.61315 0.0
C1164 C 0.90307 0.55498 0.56116 0.0
H1165 H 0.89797 0.55996 0.68782 0.0
H1166 H 0.91556 0.54404 0.62685 0.0
S1167 S 0.87034 0.58379 0.5012 0.0
N1168 N 0.86738 0.58673 0.56199 0.0
N1169 N 0.8859 0.56904 0.49605 0.0
C1170 C 0.88909 0.56557 0.54517 0.0
C1171 C 0.87913 0.57525 0.58095 0.0
C1172 C 0.40198 0.30084 0.5853 0.0
C1173 C 0.40259 0.30478 0.63748 0.0
C1174 C 0.41136 0.32063 0.55118 0.0
C1175 C 0.42112 0.34502 0.56803 0.0
H1176 H 0.3928 0.28222 0.57059 0.0
H1177 H 0.40899 0.31658 0.5114 0.0
S1178 S 0.42942 0.3655 0.70076 0.0
N1179 N 0.41615 0.33519 0.70424 0.0
N1180 N 0.43307 0.37222 0.64034 0.0
C1181 C 0.42347 0.34932 0.62011 0.0
C1182 C 0.41441 0.32924 0.65481 0.0
C1183 C 0.63018 0.07175 0.61383 0.0
C1184 C 0.63437 0.07331 0.56166 0.0
C1185 C 0.64986 0.08153 0.64819 0.0
C1186 C 0.67444 0.09267 0.63157 0.0
H1187 H 0.61152 0.06155 0.62827 0.0
H1188 H 0.6457 0.0784 0.68786 0.0
S1189 S 0.69546 0.10402 0.49914 0.0
N1190 N 0.66506 0.08934 0.49528 0.0
N1191 N 0.70197 0.10702 0.55966 0.0
C1192 C 0.67891 0.09599 0.57961 0.0
C1193 C 0.65889 0.08652 0.54468 0.0
C1194 C 0.75731 0.7378 0.78327 0.0
C1195 C 0.75495 0.73964 0.73109 0.0
C1196 C 0.74787 0.74799 0.81766 0.0
C1197 C 0.73521 0.75991 0.80106 0.0
H1198 H 0.76516 0.72707 0.7977 0.0
H1199 H 0.74857 0.74458 0.8573 0.0
S1200 S 0.72679 0.77244 0.66874 0.0
N1201 N 0.74157 0.75687 0.6648 0.0
N1202 N 0.72318 0.77533 0.72927 0.0
C1203 C 0.73443 0.76353 0.74915 0.0
C1204 C 0.74449 0.75361 0.71418 0.0
C1205 C 0.22477 0.98639 0.71537 0.0
C1206 C 0.23755 0.01115 0.73096 0.0
C1207 C 0.21518 0.96709 0.75056 0.0
C1208 C 0.21749 0.9718 0.80257 0.0
H1209 H 0.22408 0.98187 0.67596 0.0
H1210 H 0.20726 0.94835 0.73693 0.0
S1211 S 0.24583 0.03342 0.86234 0.0
N1212 N 0.24959 0.03934 0.80158 0.0
N1213 N 0.2309 0.00308 0.86754 0.0
C1214 C 0.22804 -0.00358 0.81843 0.0
C1215 C 0.23828 0.01608 0.78264 0.0
C1216 C -0.00693 0.2362 0.71475 0.0
C1217 C 0.96841 0.22386 0.73105 0.0
C1218 C 0.01263 0.24648 0.74939 0.0
C1219 C 0.00826 0.24431 0.80152 0.0
H1220 H -0.0027 0.23981 0.67518 0.0
H1221 H 0.03126 0.2575 0.73521 0.0
S1222 S 0.94703 0.21025 0.86307 0.0
N1223 N 0.94072 0.20761 0.80247 0.0
N1224 N 0.97741 0.22627 0.86739 0.0
C1225 C 0.98376 0.22992 0.8181 0.0
C1226 C 0.96385 0.21989 0.78288 0.0
C1227 C 0.23904 0.21889 0.28148 0.0
C1228 C 0.23746 0.22133 0.22924 0.0
C1229 C 0.22886 0.22846 0.3156 0.0
C1230 C 0.2172 0.2413 0.29866 0.0
H1231 H 0.2496 0.21091 0.29619 0.0
H1232 H 0.2321 0.22771 0.35531 0.0
S1233 S 0.20509 0.24974 0.16603 0.0
N1234 N 0.22053 0.23482 0.16252 0.0
N1235 N 0.20206 0.2534 0.22647 0.0
C1236 C 0.21371 0.24207 0.24668 0.0
C1237 C 0.22364 0.2319 0.21198 0.0
C1238 C 0.74316 0.98705 0.21453 0.0
C1239 C 0.75456 0.01175 0.23032 0.0
C1240 C 0.73343 0.96767 0.24958 0.0
C1241 C 0.7353 0.9723 0.30161 0.0
H1242 H 0.73977 0.98258 0.17502 0.0
H1243 H 0.72302 0.94891 0.23581 0.0
S1244 S 0.76682 0.03387 0.36196 0.0
N1245 N 0.76953 0.03986 0.30122 0.0
N1246 N 0.75194 0.00352 0.3669 0.0
C1247 C 0.74879 -0.00307 0.31772 0.0
C1248 C 0.75822 0.01664 0.28209 0.0
C1249 C 0.98326 0.74892 0.31377 0.0
C1250 C 0.00805 0.76062 0.29838 0.0
C1251 C 0.96401 0.7389 0.27847 0.0
C1252 C 0.96883 0.74072 0.22652 0.0
H1253 H 0.97864 0.74553 0.35323 0.0
H1254 H 0.94522 0.72828 0.29204 0.0
S1255 S 0.0306 0.77326 0.16701 0.0
N1256 N 0.03641 0.77605 0.22784 0.0
N1257 N 0.00025 0.75784 0.16164 0.0
C1258 C -0.0065 0.75457 0.21072 0.0
C1259 C 0.01311 0.76433 0.24665 0.0
loop_
_geom_bond_atom_site_label_1
_geom_bond_atom_site_label_2
_geom_bond_distance
_geom_bond_site_symmetry_2
_ccdc_geom_bond_type
In0 O1 2.294 . S
In0 O2 2.326 . S
In0 O6 2.266 . S
In0 O7 2.326 . S
In0 O8 2.266 . S
In0 O9 2.326 . S
In0 O11 2.294 . S
In0 O12 2.326 . S
O1 In0 2.294 . S
O1 C10 1.240 . S
O2 In0 2.326 . S
O2 C10 1.252 . S
C3 O6 1.252 . S
C3 O7 1.260 . S
C4 O11 1.240 . S
C4 O12 1.252 . S
C5 O8 1.252 . S
C5 O9 1.260 . S
O6 In0 2.266 . S
O6 C3 1.252 . S
O7 In0 2.326 . S
O7 C3 1.260 . S
O8 In0 2.266 . S
O8 C5 1.252 . S
O9 In0 2.326 . S
O9 C5 1.260 . S
C10 O1 1.240 . S
C10 O2 1.252 . S
O11 In0 2.294 . S
O11 C4 1.240 . S
O12 In0 2.326 . S
O12 C4 1.252 . S
In13 O14 2.294 . S
In13 O15 2.326 . S
In13 O19 2.266 . S
In13 O20 2.326 . S
In13 O21 2.266 . S
In13 O22 2.326 . S
In13 O24 2.294 . S
In13 O25 2.326 . S
O14 In13 2.294 . S
O14 C23 1.240 . S
O15 In13 2.326 . S
O15 C23 1.252 . S
C16 O19 1.252 . S
C16 O20 1.260 . S
C17 O24 1.240 . S
C17 O25 1.252 . S
C18 O21 1.252 . S
C18 O22 1.260 . S
O19 In13 2.266 . S
O19 C16 1.252 . S
O20 In13 2.326 . S
O20 C16 1.260 . S
O21 In13 2.266 . S
O21 C18 1.252 . S
O22 In13 2.326 . S
O22 C18 1.260 . S
C23 O14 1.240 . S
C23 O15 1.252 . S
O24 In13 2.294 . S
O24 C17 1.240 . S
O25 In13 2.326 . S
O25 C17 1.252 . S
In26 O27 2.294 . S
In26 O28 2.326 . S
In26 O32 2.266 . S
In26 O33 2.326 . S
In26 O34 2.266 . S
In26 O35 2.326 . S
In26 O37 2.294 . S
In26 O38 2.326 . S
O27 In26 2.294 . S
O27 C36 1.240 . S
O28 In26 2.326 . S
O28 C36 1.252 . S
C29 O32 1.252 . S
C29 O33 1.260 . S
C30 O37 1.240 . S
C30 O38 1.252 . S
C31 O34 1.252 . S
C31 O35 1.260 . S
O32 In26 2.266 . S
O32 C29 1.252 . S
O33 In26 2.326 . S
O33 C29 1.260 . S
O34 In26 2.266 . S
O34 C31 1.252 . S
O35 In26 2.326 . S
O35 C31 1.260 . S
C36 O27 1.240 . S
C36 O28 1.252 . S
O37 In26 2.294 . S
O37 C30 1.240 . S
O38 In26 2.326 . S
O38 C30 1.252 . S
In39 O40 2.294 . S
In39 O41 2.326 . S
In39 O45 2.266 . S
In39 O46 2.326 . S
In39 O47 2.266 . S
In39 O48 2.326 . S
In39 O50 2.294 . S
In39 O51 2.326 . S
O40 In39 2.294 . S
O40 C49 1.240 . S
O41 In39 2.326 . S
O41 C49 1.252 . S
C42 O45 1.252 . S
C42 O46 1.260 . S
C43 O50 1.240 . S
C43 O51 1.252 . S
C44 O47 1.252 . S
C44 O48 1.260 . S
O45 In39 2.266 . S
O45 C42 1.252 . S
O46 In39 2.326 . S
O46 C42 1.260 . S
O47 In39 2.266 . S
O47 C44 1.252 . S
O48 In39 2.326 . S
O48 C44 1.260 . S
C49 O40 1.240 . S
C49 O41 1.252 . S
O50 In39 2.294 . S
O50 C43 1.240 . S
O51 In39 2.326 . S
O51 C43 1.252 . S
In52 O53 2.294 . S
In52 O54 2.326 . S
In52 O58 2.266 . S
In52 O59 2.326 . S
In52 O60 2.266 . S
In52 O61 2.326 . S
In52 O63 2.294 . S
In52 O64 2.326 . S
O53 In52 2.294 . S
O53 C62 1.240 . S
O54 In52 2.326 . S
O54 C62 1.252 . S
C55 O58 1.252 . S
C55 O59 1.260 . S
C56 O63 1.240 . S
C56 O64 1.252 . S
C57 O60 1.252 . S
C57 O61 1.260 . S
O58 In52 2.266 . S
O58 C55 1.252 . S
O59 In52 2.326 . S
O59 C55 1.260 . S
O60 In52 2.266 . S
O60 C57 1.252 . S
O61 In52 2.326 . S
O61 C57 1.260 . S
C62 O53 1.240 . S
C62 O54 1.252 . S
O63 In52 2.294 . S
O63 C56 1.240 . S
O64 In52 2.326 . S
O64 C56 1.252 . S
In65 O66 2.294 . S
In65 O67 2.326 . S
In65 O71 2.266 . S
In65 O72 2.326 . S
In65 O73 2.266 . S
In65 O74 2.326 . S
In65 O76 2.294 . S
In65 O77 2.326 . S
O66 In65 2.294 . S
O66 C75 1.240 . S
O67 In65 2.326 . S
O67 C75 1.252 . S
C68 O71 1.252 . S
C68 O72 1.260 . S
C69 O76 1.240 . S
C69 O77 1.252 . S
C70 O73 1.252 . S
C70 O74 1.260 . S
O71 In65 2.266 . S
O71 C68 1.252 . S
O72 In65 2.326 . S
O72 C68 1.260 . S
O73 In65 2.266 . S
O73 C70 1.252 . S
O74 In65 2.326 . S
O74 C70 1.260 . S
C75 O66 1.240 . S
C75 O67 1.252 . S
O76 In65 2.294 . S
O76 C69 1.240 . S
O77 In65 2.326 . S
O77 C69 1.252 . S
In78 O79 2.294 . S
In78 O80 2.326 . S
In78 O84 2.266 . S
In78 O85 2.326 . S
In78 O86 2.266 . S
In78 O87 2.326 . S
In78 O89 2.294 . S
In78 O90 2.326 . S
O79 In78 2.294 . S
O79 C88 1.240 . S
O80 In78 2.326 . S
O80 C88 1.252 . S
C81 O84 1.252 . S
C81 O85 1.260 . S
C82 O89 1.240 . S
C82 O90 1.252 . S
C83 O86 1.252 . S
C83 O87 1.260 . S
O84 In78 2.266 . S
O84 C81 1.252 . S
O85 In78 2.326 . S
O85 C81 1.260 . S
O86 In78 2.266 . S
O86 C83 1.252 . S
O87 In78 2.326 . S
O87 C83 1.260 . S
C88 O79 1.240 . S
C88 O80 1.252 . S
O89 In78 2.294 . S
O89 C82 1.240 . S
O90 In78 2.326 . S
O90 C82 1.252 . S
In91 O92 2.294 . S
In91 O93 2.326 . S
In91 O97 2.266 . S
In91 O98 2.326 . S
In91 O99 2.266 . S
In91 O100 2.326 . S
In91 O102 2.294 . S
In91 O103 2.326 . S
O92 In91 2.294 . S
O92 C101 1.240 . S
O93 In91 2.326 . S
O93 C101 1.252 . S
C94 O97 1.252 . S
C94 O98 1.260 . S
C95 O102 1.240 . S
C95 O103 1.252 . S
C96 O99 1.252 . S
C96 O100 1.260 . S
O97 In91 2.266 . S
O97 C94 1.252 . S
O98 In91 2.326 . S
O98 C94 1.260 . S
O99 In91 2.266 . S
O99 C96 1.252 . S
O100 In91 2.326 . S
O100 C96 1.260 . S
C101 O92 1.240 . S
C101 O93 1.252 . S
O102 In91 2.294 . S
O102 C95 1.240 . S
O103 In91 2.326 . S
O103 C95 1.252 . S
In104 O105 2.294 . S
In104 O106 2.326 . S
In104 O110 2.266 . S
In104 O111 2.326 . S
In104 O112 2.266 . S
In104 O113 2.326 . S
In104 O115 2.294 . S
In104 O116 2.326 . S
O105 In104 2.294 . S
O105 C114 1.240 . S
O106 In104 2.326 . S
O106 C114 1.252 . S
C107 O110 1.252 . S
C107 O111 1.260 . S
C108 O115 1.240 . S
C108 O116 1.252 . S
C109 O112 1.252 . S
C109 O113 1.260 . S
O110 In104 2.266 . S
O110 C107 1.252 . S
O111 In104 2.326 . S
O111 C107 1.260 . S
O112 In104 2.266 . S
O112 C109 1.252 . S
O113 In104 2.326 . S
O113 C109 1.260 . S
C114 O105 1.240 . S
C114 O106 1.252 . S
O115 In104 2.294 . S
O115 C108 1.240 . S
O116 In104 2.326 . S
O116 C108 1.252 . S
In117 O118 2.294 . S
In117 O119 2.326 . S
In117 O123 2.266 . S
In117 O124 2.326 . S
In117 O125 2.266 . S
In117 O126 2.326 . S
In117 O128 2.294 . S
In117 O129 2.326 . S
O118 In117 2.294 . S
O118 C127 1.240 . S
O119 In117 2.326 . S
O119 C127 1.252 . S
C120 O123 1.252 . S
C120 O124 1.260 . S
C121 O128 1.240 . S
C121 O129 1.252 . S
C122 O125 1.252 . S
C122 O126 1.260 . S
O123 In117 2.266 . S
O123 C120 1.252 . S
O124 In117 2.326 . S
O124 C120 1.260 . S
O125 In117 2.266 . S
O125 C122 1.252 . S
O126 In117 2.326 . S
O126 C122 1.260 . S
C127 O118 1.240 . S
C127 O119 1.252 . S
O128 In117 2.294 . S
O128 C121 1.240 . S
O129 In117 2.326 . S
O129 C121 1.252 . S
In130 O131 2.294 . S
In130 O132 2.326 . S
In130 O136 2.266 . S
In130 O137 2.326 . S
In130 O138 2.266 . S
In130 O139 2.326 . S
In130 O141 2.294 . S
In130 O142 2.326 . S
O131 In130 2.294 . S
O131 C140 1.240 . S
O132 In130 2.326 . S
O132 C140 1.252 . S
C133 O136 1.252 . S
C133 O137 1.260 . S
C134 O141 1.240 . S
C134 O142 1.252 . S
C135 O138 1.252 . S
C135 O139 1.260 . S
O136 In130 2.266 . S
O136 C133 1.252 . S
O137 In130 2.326 . S
O137 C133 1.260 . S
O138 In130 2.266 . S
O138 C135 1.252 . S
O139 In130 2.326 . S
O139 C135 1.260 . S
C140 O131 1.240 . S
C140 O132 1.252 . S
O141 In130 2.294 . S
O141 C134 1.240 . S
O142 In130 2.326 . S
O142 C134 1.252 . S
In143 O144 2.294 . S
In143 O145 2.326 . S
In143 O149 2.266 . S
In143 O150 2.326 . S
In143 O151 2.266 . S
In143 O152 2.326 . S
In143 O154 2.294 . S
In143 O155 2.326 . S
O144 In143 2.294 . S
O144 C153 1.240 . S
O145 In143 2.326 . S
O145 C153 1.252 . S
C146 O149 1.252 . S
C146 O150 1.260 . S
C147 O154 1.240 . S
C147 O155 1.252 . S
C148 O151 1.252 . S
C148 O152 1.260 . S
O149 In143 2.266 . S
O149 C146 1.252 . S
O150 In143 2.326 . S
O150 C146 1.260 . S
O151 In143 2.266 . S
O151 C148 1.252 . S
O152 In143 2.326 . S
O152 C148 1.260 . S
C153 O144 1.240 . S
C153 O145 1.252 . S
O154 In143 2.294 . S
O154 C147 1.240 . S
O155 In143 2.326 . S
O155 C147 1.252 . S
In156 O157 2.294 . S
In156 O158 2.326 . S
In156 O162 2.266 1_455 S
In156 O163 2.326 . S
In156 O164 2.266 . S
In156 O165 2.326 . S
In156 O167 2.294 . S
In156 O168 2.326 . S
O157 In156 2.294 . S
O157 C166 1.240 . S
O158 In156 2.326 . S
O158 C166 1.252 . S
C159 O162 1.252 1_455 S
C159 O163 1.260 . S
C160 O167 1.240 . S
C160 O168 1.252 . S
C161 O164 1.252 . S
C161 O165 1.260 . S
O162 In156 2.266 1_655 S
O162 C159 1.252 1_655 S
O163 In156 2.326 . S
O163 C159 1.260 . S
O164 In156 2.266 . S
O164 C161 1.252 . S
O165 In156 2.326 . S
O165 C161 1.260 . S
C166 O157 1.240 . S
C166 O158 1.252 . S
O167 In156 2.294 . S
O167 C160 1.240 . S
O168 In156 2.326 . S
O168 C160 1.252 . S
In169 O170 2.294 . S
In169 O171 2.326 . S
In169 O175 2.266 . S
In169 O176 2.326 . S
In169 O177 2.266 . S
In169 O178 2.326 . S
In169 O180 2.294 . S
In169 O181 2.326 . S
O170 In169 2.294 . S
O170 C179 1.240 . S
O171 In169 2.326 . S
O171 C179 1.252 . S
C172 O175 1.252 . S
C172 O176 1.260 . S
C173 O180 1.240 . S
C173 O181 1.252 . S
C174 O177 1.252 . S
C174 O178 1.260 . S
O175 In169 2.266 . S
O175 C172 1.252 . S
O176 In169 2.326 . S
O176 C172 1.260 . S
O177 In169 2.266 . S
O177 C174 1.252 . S
O178 In169 2.326 . S
O178 C174 1.260 . S
C179 O170 1.240 . S
C179 O171 1.252 . S
O180 In169 2.294 . S
O180 C173 1.240 . S
O181 In169 2.326 . S
O181 C173 1.252 . S
In182 O183 2.294 . S
In182 O184 2.326 . S
In182 O188 2.266 . S
In182 O189 2.326 . S
In182 O190 2.266 1_565 S
In182 O191 2.326 . S
In182 O193 2.294 . S
In182 O194 2.326 . S
O183 In182 2.294 . S
O183 C192 1.240 . S
O184 In182 2.326 . S
O184 C192 1.252 . S
C185 O188 1.252 . S
C185 O189 1.260 . S
C186 O193 1.240 . S
C186 O194 1.252 . S
C187 O190 1.252 1_565 S
C187 O191 1.260 . S
O188 In182 2.266 . S
O188 C185 1.252 . S
O189 In182 2.326 . S
O189 C185 1.260 . S
O190 In182 2.266 1_545 S
O190 C187 1.252 1_545 S
O191 In182 2.326 . S
O191 C187 1.260 . S
C192 O183 1.240 . S
C192 O184 1.252 . S
O193 In182 2.294 . S
O193 C186 1.240 . S
O194 In182 2.326 . S
O194 C186 1.252 . S
In195 O196 2.294 . S
In195 O197 2.326 . S
In195 O201 2.266 . S
In195 O202 2.326 . S
In195 O203 2.266 . S
In195 O204 2.326 . S
In195 O206 2.294 . S
In195 O207 2.326 . S
O196 In195 2.294 . S
O196 C205 1.240 . S
O197 In195 2.326 . S
O197 C205 1.252 . S
C198 O201 1.252 . S
C198 O202 1.260 . S
C199 O206 1.240 . S
C199 O207 1.252 . S
C200 O203 1.252 . S
C200 O204 1.260 . S
O201 In195 2.266 . S
O201 C198 1.252 . S
O202 In195 2.326 . S
O202 C198 1.260 . S
O203 In195 2.266 . S
O203 C200 1.252 . S
O204 In195 2.326 . S
O204 C200 1.260 . S
C205 O196 1.240 . S
C205 O197 1.252 . S
O206 In195 2.294 . S
O206 C199 1.240 . S
O207 In195 2.326 . S
O207 C199 1.252 . S
In208 O209 2.294 . S
In208 O210 2.326 . S
In208 O214 2.266 . S
In208 O215 2.326 . S
In208 O216 2.266 . S
In208 O217 2.326 . S
In208 O219 2.294 . S
In208 O220 2.326 . S
O209 In208 2.294 . S
O209 C218 1.240 . S
O210 In208 2.326 . S
O210 C218 1.252 . S
C211 O214 1.252 . S
C211 O215 1.260 . S
C212 O219 1.240 . S
C212 O220 1.252 . S
C213 O216 1.252 . S
C213 O217 1.260 . S
O214 In208 2.266 . S
O214 C211 1.252 . S
O215 In208 2.326 . S
O215 C211 1.260 . S
O216 In208 2.266 . S
O216 C213 1.252 . S
O217 In208 2.326 . S
O217 C213 1.260 . S
C218 O209 1.240 . S
C218 O210 1.252 . S
O219 In208 2.294 . S
O219 C212 1.240 . S
O220 In208 2.326 . S
O220 C212 1.252 . S
In221 O222 2.294 . S
In221 O223 2.326 . S
In221 O227 2.266 . S
In221 O228 2.326 . S
In221 O229 2.266 . S
In221 O230 2.326 . S
In221 O232 2.294 . S
In221 O233 2.326 . S
O222 In221 2.294 . S
O222 C231 1.240 . S
O223 In221 2.326 . S
O223 C231 1.252 . S
C224 O227 1.252 . S
C224 O228 1.260 . S
C225 O232 1.240 . S
C225 O233 1.252 . S
C226 O229 1.252 . S
C226 O230 1.260 . S
O227 In221 2.266 . S
O227 C224 1.252 . S
O228 In221 2.326 . S
O228 C224 1.260 . S
O229 In221 2.266 . S
O229 C226 1.252 . S
O230 In221 2.326 . S
O230 C226 1.260 . S
C231 O222 1.240 . S
C231 O223 1.252 . S
O232 In221 2.294 . S
O232 C225 1.240 . S
O233 In221 2.326 . S
O233 C225 1.252 . S
In234 O235 2.294 . S
In234 O236 2.326 . S
In234 O240 2.266 . S
In234 O241 2.326 . S
In234 O242 2.266 . S
In234 O243 2.326 . S
In234 O245 2.294 . S
In234 O246 2.326 . S
O235 In234 2.294 . S
O235 C244 1.240 . S
O236 In234 2.326 . S
O236 C244 1.252 . S
C237 O240 1.252 . S
C237 O241 1.260 . S
C238 O245 1.240 . S
C238 O246 1.252 . S
C239 O242 1.252 . S
C239 O243 1.260 . S
O240 In234 2.266 . S
O240 C237 1.252 . S
O241 In234 2.326 . S
O241 C237 1.260 . S
O242 In234 2.266 . S
O242 C239 1.252 . S
O243 In234 2.326 . S
O243 C239 1.260 . S
C244 O235 1.240 . S
C244 O236 1.252 . S
O245 In234 2.294 . S
O245 C238 1.240 . S
O246 In234 2.326 . S
O246 C238 1.252 . S
In247 O248 2.294 . S
In247 O249 2.326 . S
In247 O253 2.266 . S
In247 O254 2.326 . S
In247 O255 2.266 . S
In247 O256 2.326 . S
In247 O258 2.294 . S
In247 O259 2.326 . S
O248 In247 2.294 . S
O248 C257 1.240 . S
O249 In247 2.326 . S
O249 C257 1.252 . S
C250 O253 1.252 . S
C250 O254 1.260 . S
C251 O258 1.240 . S
C251 O259 1.252 . S
C252 O255 1.252 . S
C252 O256 1.260 . S
O253 In247 2.266 . S
O253 C250 1.252 . S
O254 In247 2.326 . S
O254 C250 1.260 . S
O255 In247 2.266 . S
O255 C252 1.252 . S
O256 In247 2.326 . S
O256 C252 1.260 . S
C257 O248 1.240 . S
C257 O249 1.252 . S
O258 In247 2.294 . S
O258 C251 1.240 . S
O259 In247 2.326 . S
O259 C251 1.252 . S
In260 O261 2.294 . S
In260 O262 2.326 . S
In260 O266 2.266 . S
In260 O267 2.326 . S
In260 O268 2.266 . S
In260 O269 2.326 . S
In260 O271 2.294 . S
In260 O272 2.326 . S
O261 In260 2.294 . S
O261 C270 1.240 . S
O262 In260 2.326 . S
O262 C270 1.252 . S
C263 O266 1.252 . S
C263 O267 1.260 . S
C264 O271 1.240 . S
C264 O272 1.252 . S
C265 O268 1.252 . S
C265 O269 1.260 . S
O266 In260 2.266 . S
O266 C263 1.252 . S
O267 In260 2.326 . S
O267 C263 1.260 . S
O268 In260 2.266 . S
O268 C265 1.252 . S
O269 In260 2.326 . S
O269 C265 1.260 . S
C270 O261 1.240 . S
C270 O262 1.252 . S
O271 In260 2.294 . S
O271 C264 1.240 . S
O272 In260 2.326 . S
O272 C264 1.252 . S
In273 O274 2.294 . S
In273 O275 2.326 . S
In273 O279 2.266 . S
In273 O280 2.326 1_554 S
In273 O281 2.266 1_565 S
In273 O282 2.326 . S
In273 O284 2.294 . S
In273 O285 2.326 . S
O274 In273 2.294 . S
O274 C283 1.240 . S
O275 In273 2.326 . S
O275 C283 1.252 . S
C276 O279 1.252 . S
C276 O280 1.260 1_554 S
C277 O284 1.240 . S
C277 O285 1.252 . S
C278 O281 1.252 1_565 S
C278 O282 1.260 . S
O279 In273 2.266 . S
O279 C276 1.252 . S
O280 In273 2.326 1_556 S
O280 C276 1.260 1_556 S
O281 In273 2.266 1_545 S
O281 C278 1.252 1_545 S
O282 In273 2.326 . S
O282 C278 1.260 . S
C283 O274 1.240 . S
C283 O275 1.252 . S
O284 In273 2.294 . S
O284 C277 1.240 . S
O285 In273 2.326 . S
O285 C277 1.252 . S
In286 O287 2.294 . S
In286 O288 2.326 . S
In286 O292 2.266 1_455 S
In286 O293 2.326 . S
In286 O294 2.266 . S
In286 O295 2.326 1_554 S
In286 O297 2.294 . S
In286 O298 2.326 . S
O287 In286 2.294 . S
O287 C296 1.240 . S
O288 In286 2.326 . S
O288 C296 1.252 . S
C289 O292 1.252 1_455 S
C289 O293 1.260 . S
C290 O297 1.240 . S
C290 O298 1.252 . S
C291 O294 1.252 . S
C291 O295 1.260 1_554 S
O292 In286 2.266 1_655 S
O292 C289 1.252 1_655 S
O293 In286 2.326 . S
O293 C289 1.260 . S
O294 In286 2.266 . S
O294 C291 1.252 . S
O295 In286 2.326 1_556 S
O295 C291 1.260 1_556 S
C296 O287 1.240 . S
C296 O288 1.252 . S
O297 In286 2.294 . S
O297 C290 1.240 . S
O298 In286 2.326 . S
O298 C290 1.252 . S
In299 O300 2.294 . S
In299 O301 2.326 . S
In299 O305 2.266 . S
In299 O306 2.326 1_554 S
In299 O307 2.266 . S
In299 O308 2.326 . S
In299 O310 2.294 . S
In299 O311 2.326 . S
O300 In299 2.294 . S
O300 C309 1.240 . S
O301 In299 2.326 . S
O301 C309 1.252 . S
C302 O305 1.252 . S
C302 O306 1.260 1_554 S
C303 O310 1.240 . S
C303 O311 1.252 . S
C304 O307 1.252 . S
C304 O308 1.260 . S
O305 In299 2.266 . S
O305 C302 1.252 . S
O306 In299 2.326 1_556 S
O306 C302 1.260 1_556 S
O307 In299 2.266 . S
O307 C304 1.252 . S
O308 In299 2.326 . S
O308 C304 1.260 . S
C309 O300 1.240 . S
C309 O301 1.252 . S
O310 In299 2.294 . S
O310 C303 1.240 . S
O311 In299 2.326 . S
O311 C303 1.252 . S
In312 O313 2.294 . S
In312 O314 2.326 . S
In312 O318 2.266 . S
In312 O319 2.326 . S
In312 O320 2.266 . S
In312 O321 2.326 . S
In312 O323 2.294 . S
In312 O324 2.326 . S
O313 In312 2.294 . S
O313 C322 1.240 . S
O314 In312 2.326 . S
O314 C322 1.252 . S
C315 O318 1.252 . S
C315 O319 1.260 . S
C316 O323 1.240 . S
C316 O324 1.252 . S
C317 O320 1.252 . S
C317 O321 1.260 . S
O318 In312 2.266 . S
O318 C315 1.252 . S
O319 In312 2.326 . S
O319 C315 1.260 . S
O320 In312 2.266 . S
O320 C317 1.252 . S
O321 In312 2.326 . S
O321 C317 1.260 . S
C322 O313 1.240 . S
C322 O314 1.252 . S
O323 In312 2.294 . S
O323 C316 1.240 . S
O324 In312 2.326 . S
O324 C316 1.252 . S
In325 O326 2.294 . S
In325 O327 2.326 . S
In325 O331 2.266 . S
In325 O332 2.326 . S
In325 O333 2.266 . S
In325 O334 2.326 . S
In325 O336 2.294 . S
In325 O337 2.326 . S
O326 In325 2.294 . S
O326 C335 1.240 . S
O327 In325 2.326 . S
O327 C335 1.252 . S
C328 O331 1.252 . S
C328 O332 1.260 . S
C329 O336 1.240 . S
C329 O337 1.252 . S
C330 O333 1.252 . S
C330 O334 1.260 . S
O331 In325 2.266 . S
O331 C328 1.252 . S
O332 In325 2.326 . S
O332 C328 1.260 . S
O333 In325 2.266 . S
O333 C330 1.252 . S
O334 In325 2.326 . S
O334 C330 1.260 . S
C335 O326 1.240 . S
C335 O327 1.252 . S
O336 In325 2.294 . S
O336 C329 1.240 . S
O337 In325 2.326 . S
O337 C329 1.252 . S
In338 O339 2.294 . S
In338 O340 2.326 . S
In338 O344 2.266 . S
In338 O345 2.326 . S
In338 O346 2.266 . S
In338 O347 2.326 . S
In338 O349 2.294 . S
In338 O350 2.326 . S
O339 In338 2.294 . S
O339 C348 1.240 . S
O340 In338 2.326 . S
O340 C348 1.252 . S
C341 O344 1.252 . S
C341 O345 1.260 . S
C342 O349 1.240 . S
C342 O350 1.252 . S
C343 O346 1.252 . S
C343 O347 1.260 . S
O344 In338 2.266 . S
O344 C341 1.252 . S
O345 In338 2.326 . S
O345 C341 1.260 . S
O346 In338 2.266 . S
O346 C343 1.252 . S
O347 In338 2.326 . S
O347 C343 1.260 . S
C348 O339 1.240 . S
C348 O340 1.252 . S
O349 In338 2.294 . S
O349 C342 1.240 . S
O350 In338 2.326 . S
O350 C342 1.252 . S
In351 O352 2.294 . S
In351 O353 2.326 . S
In351 O357 2.266 . S
In351 O358 2.326 1_556 S
In351 O359 2.266 1_545 S
In351 O360 2.326 . S
In351 O362 2.294 . S
In351 O363 2.326 . S
O352 In351 2.294 . S
O352 C361 1.240 . S
O353 In351 2.326 . S
O353 C361 1.252 . S
C354 O357 1.252 . S
C354 O358 1.260 1_556 S
C355 O362 1.240 . S
C355 O363 1.252 . S
C356 O359 1.252 1_545 S
C356 O360 1.260 . S
O357 In351 2.266 . S
O357 C354 1.252 . S
O358 In351 2.326 1_554 S
O358 C354 1.260 1_554 S
O359 In351 2.266 1_565 S
O359 C356 1.252 1_565 S
O360 In351 2.326 . S
O360 C356 1.260 . S
C361 O352 1.240 . S
C361 O353 1.252 . S
O362 In351 2.294 . S
O362 C355 1.240 . S
O363 In351 2.326 . S
O363 C355 1.252 . S
In364 O365 2.294 . S
In364 O366 2.326 . S
In364 O370 2.266 1_655 S
In364 O371 2.326 . S
In364 O372 2.266 . S
In364 O373 2.326 1_556 S
In364 O375 2.294 . S
In364 O376 2.326 . S
O365 In364 2.294 . S
O365 C374 1.240 . S
O366 In364 2.326 . S
O366 C374 1.252 . S
C367 O370 1.252 1_655 S
C367 O371 1.260 . S
C368 O375 1.240 . S
C368 O376 1.252 . S
C369 O372 1.252 . S
C369 O373 1.260 1_556 S
O370 In364 2.266 1_455 S
O370 C367 1.252 1_455 S
O371 In364 2.326 . S
O371 C367 1.260 . S
O372 In364 2.266 . S
O372 C369 1.252 . S
O373 In364 2.326 1_554 S
O373 C369 1.260 1_554 S
C374 O365 1.240 . S
C374 O366 1.252 . S
O375 In364 2.294 . S
O375 C368 1.240 . S
O376 In364 2.326 . S
O376 C368 1.252 . S
In377 O378 2.294 . S
In377 O379 2.326 . S
In377 O383 2.266 . S
In377 O384 2.326 1_556 S
In377 O385 2.266 . S
In377 O386 2.326 . S
In377 O388 2.294 . S
In377 O389 2.326 . S
O378 In377 2.294 . S
O378 C387 1.240 . S
O379 In377 2.326 . S
O379 C387 1.252 . S
C380 O383 1.252 . S
C380 O384 1.260 1_556 S
C381 O388 1.240 . S
C381 O389 1.252 . S
C382 O385 1.252 . S
C382 O386 1.260 . S
O383 In377 2.266 . S
O383 C380 1.252 . S
O384 In377 2.326 1_554 S
O384 C380 1.260 1_554 S
O385 In377 2.266 . S
O385 C382 1.252 . S
O386 In377 2.326 . S
O386 C382 1.260 . S
C387 O378 1.240 . S
C387 O379 1.252 . S
O388 In377 2.294 . S
O388 C381 1.240 . S
O389 In377 2.326 . S
O389 C381 1.252 . S
In390 O391 2.294 . S
In390 O392 2.326 . S
In390 O396 2.266 1_655 S
In390 O397 2.326 . S
In390 O398 2.266 . S
In390 O399 2.326 . S
In390 O401 2.294 . S
In390 O402 2.326 . S
O391 In390 2.294 . S
O391 C400 1.240 . S
O392 In390 2.326 . S
O392 C400 1.252 . S
C393 O396 1.252 1_655 S
C393 O397 1.260 . S
C394 O401 1.240 . S
C394 O402 1.252 . S
C395 O398 1.252 . S
C395 O399 1.260 . S
O396 In390 2.266 1_455 S
O396 C393 1.252 1_455 S
O397 In390 2.326 . S
O397 C393 1.260 . S
O398 In390 2.266 . S
O398 C395 1.252 . S
O399 In390 2.326 . S
O399 C395 1.260 . S
C400 O391 1.240 . S
C400 O392 1.252 . S
O401 In390 2.294 . S
O401 C394 1.240 . S
O402 In390 2.326 . S
O402 C394 1.252 . S
In403 O404 2.294 . S
In403 O405 2.326 . S
In403 O409 2.266 . S
In403 O410 2.326 . S
In403 O411 2.266 . S
In403 O412 2.326 . S
In403 O414 2.294 . S
In403 O415 2.326 . S
O404 In403 2.294 . S
O404 C413 1.240 . S
O405 In403 2.326 . S
O405 C413 1.252 . S
C406 O409 1.252 . S
C406 O410 1.260 . S
C407 O414 1.240 . S
C407 O415 1.252 . S
C408 O411 1.252 . S
C408 O412 1.260 . S
O409 In403 2.266 . S
O409 C406 1.252 . S
O410 In403 2.326 . S
O410 C406 1.260 . S
O411 In403 2.266 . S
O411 C408 1.252 . S
O412 In403 2.326 . S
O412 C408 1.260 . S
C413 O404 1.240 . S
C413 O405 1.252 . S
O414 In403 2.294 . S
O414 C407 1.240 . S
O415 In403 2.326 . S
O415 C407 1.252 . S
In416 O417 2.294 . S
In416 O418 2.326 . S
In416 O422 2.266 1_545 S
In416 O423 2.326 . S
In416 O424 2.266 . S
In416 O425 2.326 . S
In416 O427 2.294 . S
In416 O428 2.326 . S
O417 In416 2.294 . S
O417 C426 1.240 . S
O418 In416 2.326 . S
O418 C426 1.252 . S
C419 O422 1.252 1_545 S
C419 O423 1.260 . S
C420 O427 1.240 . S
C420 O428 1.252 . S
C421 O424 1.252 . S
C421 O425 1.260 . S
O422 In416 2.266 1_565 S
O422 C419 1.252 1_565 S
O423 In416 2.326 . S
O423 C419 1.260 . S
O424 In416 2.266 . S
O424 C421 1.252 . S
O425 In416 2.326 . S
O425 C421 1.260 . S
C426 O417 1.240 . S
C426 O418 1.252 . S
O427 In416 2.294 . S
O427 C420 1.240 . S
O428 In416 2.326 . S
O428 C420 1.252 . S
In429 O430 2.294 . S
In429 O431 2.326 . S
In429 O435 2.266 . S
In429 O436 2.326 . S
In429 O437 2.266 . S
In429 O438 2.326 . S
In429 O440 2.294 . S
In429 O441 2.326 . S
O430 In429 2.294 . S
O430 C439 1.240 . S
O431 In429 2.326 . S
O431 C439 1.252 . S
C432 O435 1.252 . S
C432 O436 1.260 . S
C433 O440 1.240 . S
C433 O441 1.252 . S
C434 O437 1.252 . S
C434 O438 1.260 . S
O435 In429 2.266 . S
O435 C432 1.252 . S
O436 In429 2.326 . S
O436 C432 1.260 . S
O437 In429 2.266 . S
O437 C434 1.252 . S
O438 In429 2.326 . S
O438 C434 1.260 . S
C439 O430 1.240 . S
C439 O431 1.252 . S
O440 In429 2.294 . S
O440 C433 1.240 . S
O441 In429 2.326 . S
O441 C433 1.252 . S
In442 O443 2.294 . S
In442 O444 2.326 . S
In442 O448 2.266 . S
In442 O449 2.326 . S
In442 O450 2.266 . S
In442 O451 2.326 . S
In442 O453 2.294 . S
In442 O454 2.326 . S
O443 In442 2.294 . S
O443 C452 1.240 . S
O444 In442 2.326 . S
O444 C452 1.252 . S
C445 O448 1.252 . S
C445 O449 1.260 . S
C446 O453 1.240 . S
C446 O454 1.252 . S
C447 O450 1.252 . S
C447 O451 1.260 . S
O448 In442 2.266 . S
O448 C445 1.252 . S
O449 In442 2.326 . S
O449 C445 1.260 . S
O450 In442 2.266 . S
O450 C447 1.252 . S
O451 In442 2.326 . S
O451 C447 1.260 . S
C452 O443 1.240 . S
C452 O444 1.252 . S
O453 In442 2.294 . S
O453 C446 1.240 . S
O454 In442 2.326 . S
O454 C446 1.252 . S
In455 O456 2.294 . S
In455 O457 2.326 . S
In455 O461 2.266 . S
In455 O462 2.326 . S
In455 O463 2.266 . S
In455 O464 2.326 . S
In455 O466 2.294 . S
In455 O467 2.326 . S
O456 In455 2.294 . S
O456 C465 1.240 . S
O457 In455 2.326 . S
O457 C465 1.252 . S
C458 O461 1.252 . S
C458 O462 1.260 . S
C459 O466 1.240 . S
C459 O467 1.252 . S
C460 O463 1.252 . S
C460 O464 1.260 . S
O461 In455 2.266 . S
O461 C458 1.252 . S
O462 In455 2.326 . S
O462 C458 1.260 . S
O463 In455 2.266 . S
O463 C460 1.252 . S
O464 In455 2.326 . S
O464 C460 1.260 . S
C465 O456 1.240 . S
C465 O457 1.252 . S
O466 In455 2.294 . S
O466 C459 1.240 . S
O467 In455 2.326 . S
O467 C459 1.252 . S
C468 C469 1.369 . S
C468 C470 1.419 1_565 S
C468 H472 0.930 . S
C469 C468 1.369 . S
C469 C478 1.429 . S
C470 C468 1.419 1_545 S
C470 C471 1.363 . S
C470 H473 0.929 . S
C471 C470 1.363 . S
C471 C477 1.428 . S
H472 C468 0.930 . S
H473 C470 0.929 . S
S474 N475 1.613 1_545 S
S474 N476 1.610 . S
N475 S474 1.613 1_565 S
N475 C478 1.350 . S
N476 S474 1.610 . S
N476 C477 1.351 . S
C477 C471 1.428 . S
C477 N476 1.351 . S
C477 C478 1.434 1_545 S
C478 C469 1.429 . S
C478 N475 1.350 . S
C478 C477 1.434 1_565 S
C479 C480 1.369 . S
C479 C481 1.419 1_455 S
C479 H483 0.930 . S
C480 C479 1.369 . S
C480 C489 1.429 . S
C481 C479 1.419 1_655 S
C481 C482 1.363 . S
C481 H484 0.929 . S
C482 C481 1.363 . S
C482 C488 1.428 . S
H483 C479 0.930 . S
H484 C481 0.929 . S
S485 N486 1.613 1_655 S
S485 N487 1.610 . S
N486 S485 1.613 1_455 S
N486 C489 1.350 . S
N487 S485 1.610 . S
N487 C488 1.351 . S
C488 C482 1.428 . S
C488 N487 1.351 . S
C488 C489 1.434 1_655 S
C489 C480 1.429 . S
C489 N486 1.350 . S
C489 C488 1.434 1_455 S
C490 C491 1.369 . S
C490 C492 1.419 . S
C490 H494 0.930 . S
C491 C490 1.369 . S
C491 C500 1.429 . S
C492 C490 1.419 . S
C492 C493 1.363 . S
C492 H495 0.929 . S
C493 C492 1.363 . S
C493 C499 1.428 . S
H494 C490 0.930 . S
H495 C492 0.929 . S
S496 N497 1.613 . S
S496 N498 1.610 . S
N497 S496 1.613 . S
N497 C500 1.350 . S
N498 S496 1.610 . S
N498 C499 1.351 . S
C499 C493 1.428 . S
C499 N498 1.351 . S
C499 C500 1.434 . S
C500 C491 1.429 . S
C500 N497 1.350 . S
C500 C499 1.434 . S
C501 C502 1.369 . S
C501 C503 1.419 1_565 S
C501 H505 0.930 . S
C502 C501 1.369 . S
C502 C511 1.429 . S
C503 C501 1.419 1_545 S
C503 C504 1.363 . S
C503 H506 0.929 . S
C504 C503 1.363 . S
C504 C510 1.428 . S
H505 C501 0.930 . S
H506 C503 0.929 . S
S507 N508 1.613 . S
S507 N509 1.610 1_565 S
N508 S507 1.613 . S
N508 C511 1.350 . S
N509 S507 1.610 1_545 S
N509 C510 1.351 . S
C510 C504 1.428 . S
C510 N509 1.351 . S
C510 C511 1.434 1_545 S
C511 C502 1.429 . S
C511 N508 1.350 . S
C511 C510 1.434 1_565 S
C512 C513 1.369 . S
C512 C514 1.419 1_455 S
C512 H516 0.930 . S
C513 C512 1.369 . S
C513 C522 1.429 . S
C514 C512 1.419 1_655 S
C514 C515 1.363 . S
C514 H517 0.929 . S
C515 C514 1.363 . S
C515 C521 1.428 . S
H516 C512 0.930 . S
H517 C514 0.929 . S
S518 N519 1.613 1_655 S
S518 N520 1.610 . S
N519 S518 1.613 1_455 S
N519 C522 1.350 . S
N520 S518 1.610 . S
N520 C521 1.351 . S
C521 C515 1.428 . S
C521 N520 1.351 . S
C521 C522 1.434 1_655 S
C522 C513 1.429 . S
C522 N519 1.350 . S
C522 C521 1.434 1_455 S
C523 C524 1.369 . S
C523 C525 1.419 . S
C523 H527 0.930 . S
C524 C523 1.369 . S
C524 C533 1.429 . S
C525 C523 1.419 . S
C525 C526 1.363 . S
C525 H528 0.929 . S
C526 C525 1.363 . S
C526 C532 1.428 . S
H527 C523 0.930 . S
H528 C525 0.929 . S
S529 N530 1.613 . S
S529 N531 1.610 . S
N530 S529 1.613 . S
N530 C533 1.350 . S
N531 S529 1.610 . S
N531 C532 1.351 . S
C532 C526 1.428 . S
C532 N531 1.351 . S
C532 C533 1.434 . S
C533 C524 1.429 . S
C533 N530 1.350 . S
C533 C532 1.434 . S
C534 C535 1.369 . S
C534 C536 1.419 . S
C534 H538 0.930 1_655 S
C535 C534 1.369 . S
C535 C544 1.429 . S
C536 C534 1.419 . S
C536 C537 1.363 . S
C536 H539 0.929 . S
C537 C536 1.363 . S
C537 C543 1.428 . S
H538 C534 0.930 1_455 S
H539 C536 0.929 . S
S540 N541 1.613 . S
S540 N542 1.610 . S
N541 S540 1.613 . S
N541 C544 1.350 . S
N542 S540 1.610 . S
N542 C543 1.351 . S
C543 C537 1.428 . S
C543 N542 1.351 . S
C543 C544 1.434 . S
C544 C535 1.429 . S
C544 N541 1.350 . S
C544 C543 1.434 . S
C545 C546 1.369 . S
C545 C547 1.419 . S
C545 H549 0.930 . S
C546 C545 1.369 . S
C546 C555 1.429 . S
C547 C545 1.419 . S
C547 C548 1.363 . S
C547 H550 0.929 . S
C548 C547 1.363 . S
C548 C554 1.428 . S
H549 C545 0.930 . S
H550 C547 0.929 . S
S551 N552 1.613 . S
S551 N553 1.610 . S
N552 S551 1.613 . S
N552 C555 1.350 . S
N553 S551 1.610 . S
N553 C554 1.351 . S
C554 C548 1.428 . S
C554 N553 1.351 . S
C554 C555 1.434 . S
C555 C546 1.429 . S
C555 N552 1.350 . S
C555 C554 1.434 . S
C556 C557 1.369 . S
C556 C558 1.419 . S
C556 H560 0.930 . S
C557 C556 1.369 . S
C557 C566 1.429 . S
C558 C556 1.419 . S
C558 C559 1.363 . S
C558 H561 0.929 . S
C559 C558 1.363 . S
C559 C565 1.428 1_545 S
H560 C556 0.930 . S
H561 C558 0.929 . S
S562 N563 1.613 . S
S562 N564 1.610 . S
N563 S562 1.613 . S
N563 C566 1.350 1_565 S
N564 S562 1.610 . S
N564 C565 1.351 . S
C565 C559 1.428 1_565 S
C565 N564 1.351 . S
C565 C566 1.434 1_565 S
C566 C557 1.429 . S
C566 N563 1.350 1_545 S
C566 C565 1.434 1_545 S
C567 C568 1.369 . S
C567 C569 1.419 . S
C567 H571 0.930 . S
C568 C567 1.369 . S
C568 C577 1.429 . S
C569 C567 1.419 . S
C569 C570 1.363 . S
C569 H572 0.929 . S
C570 C569 1.363 . S
C570 C576 1.428 . S
H571 C567 0.930 . S
H572 C569 0.929 . S
S573 N574 1.619 . S
S573 N575 1.610 1_556 S
N574 S573 1.619 . S
N574 C577 1.334 1_556 S
N575 S573 1.610 1_554 S
N575 C576 1.351 . S
C576 C570 1.428 . S
C576 N575 1.351 . S
C576 C577 1.434 . S
C577 C568 1.429 . S
C577 N574 1.334 1_554 S
C577 C576 1.434 . S
C578 C579 1.369 . S
C578 C580 1.419 . S
C578 H582 0.930 . S
C579 C578 1.369 . S
C579 C588 1.429 . S
C580 C578 1.419 . S
C580 C581 1.363 . S
C580 H583 0.929 . S
C581 C580 1.363 . S
C581 C587 1.428 . S
H582 C578 0.930 . S
H583 C580 0.929 . S
S584 N585 1.613 . S
S584 N586 1.610 1_556 S
N585 S584 1.613 . S
N585 C588 1.350 1_556 S
N586 S584 1.610 1_554 S
N586 C587 1.351 . S
C587 C581 1.428 . S
C587 N586 1.351 . S
C587 C588 1.434 . S
C588 C579 1.429 . S
C588 N585 1.350 1_554 S
C588 C587 1.434 . S
C589 C590 1.369 . S
C589 C591 1.419 . S
C589 H593 0.930 . S
C590 C589 1.369 . S
C590 C599 1.429 . S
C591 C589 1.419 . S
C591 C592 1.363 . S
C591 H594 0.929 . S
C592 C591 1.363 . S
C592 C598 1.428 . S
H593 C589 0.930 . S
H594 C591 0.929 . S
S595 N596 1.613 1_455 S
S595 N597 1.610 . S
N596 S595 1.613 1_655 S
N596 C599 1.350 . S
N597 S595 1.610 . S
N597 C598 1.351 1_455 S
C598 C592 1.428 . S
C598 N597 1.351 1_655 S
C598 C599 1.434 . S
C599 C590 1.429 . S
C599 N596 1.350 . S
C599 C598 1.434 . S
C600 C601 1.369 . S
C600 C602 1.419 . S
C600 H604 0.930 . S
C601 C600 1.369 . S
C601 C610 1.429 . S
C602 C600 1.419 . S
C602 C603 1.363 . S
C602 H605 0.929 . S
C603 C602 1.363 . S
C603 C609 1.428 . S
H604 C600 0.930 . S
H605 C602 0.929 . S
S606 N607 1.613 . S
S606 N608 1.610 1_554 S
N607 S606 1.613 . S
N607 C610 1.350 1_554 S
N608 S606 1.610 1_556 S
N608 C609 1.351 . S
C609 C603 1.428 . S
C609 N608 1.351 . S
C609 C610 1.434 . S
C610 C601 1.429 . S
C610 N607 1.350 1_556 S
C610 C609 1.434 . S
C611 C612 1.369 . S
C611 C613 1.419 . S
C611 H615 0.930 . S
C612 C611 1.369 . S
C612 C621 1.429 . S
C613 C611 1.419 . S
C613 C614 1.363 . S
C613 H616 0.929 . S
C614 C613 1.363 . S
C614 C620 1.428 . S
H615 C611 0.930 . S
H616 C613 0.929 . S
S617 N618 1.613 . S
S617 N619 1.610 1_554 S
N618 S617 1.613 . S
N618 C621 1.350 1_554 S
N619 S617 1.610 1_556 S
N619 C620 1.351 . S
C620 C614 1.428 . S
C620 N619 1.351 . S
C620 C621 1.434 . S
C621 C612 1.429 . S
C621 N618 1.350 1_556 S
C621 C620 1.434 . S
C622 C623 1.369 . S
C622 C624 1.419 1_455 S
C622 H626 0.930 . S
C623 C622 1.369 . S
C623 C632 1.429 . S
C624 C622 1.419 1_655 S
C624 C625 1.363 1_655 S
C624 H627 0.929 . S
C625 C624 1.363 1_455 S
C625 C631 1.428 . S
H626 C622 0.930 . S
H627 C624 0.929 . S
S628 N629 1.613 . S
S628 N630 1.610 . S
N629 S628 1.613 . S
N629 C632 1.350 . S
N630 S628 1.610 . S
N630 C631 1.351 . S
C631 C625 1.428 . S
C631 N630 1.351 . S
C631 C632 1.434 . S
C632 C623 1.429 . S
C632 N629 1.350 . S
C632 C631 1.434 . S
C633 C634 1.369 . S
C633 C635 1.419 . S
C633 H637 0.930 . S
C634 C633 1.369 . S
C634 C643 1.429 . S
C635 C633 1.419 . S
C635 C636 1.363 . S
C635 H638 0.929 1_455 S
C636 C635 1.363 . S
C636 C642 1.428 . S
H637 C633 0.930 . S
H638 C635 0.929 1_655 S
S639 N640 1.613 . S
S639 N641 1.610 . S
N640 S639 1.613 . S
N640 C643 1.350 . S
N641 S639 1.610 . S
N641 C642 1.351 . S
C642 C636 1.428 . S
C642 N641 1.351 . S
C642 C643 1.434 . S
C643 C634 1.429 . S
C643 N640 1.350 . S
C643 C642 1.434 . S
C644 C645 1.369 . S
C644 C646 1.419 . S
C644 H648 0.930 . S
C645 C644 1.369 . S
C645 C654 1.429 . S
C646 C644 1.419 . S
C646 C647 1.363 . S
C646 H649 0.929 . S
C647 C646 1.363 . S
C647 C653 1.428 . S
H648 C644 0.930 . S
H649 C646 0.929 . S
S650 N651 1.613 . S
S650 N652 1.610 . S
N651 S650 1.613 . S
N651 C654 1.350 . S
N652 S650 1.610 . S
N652 C653 1.351 . S
C653 C647 1.428 . S
C653 N652 1.351 . S
C653 C654 1.434 . S
C654 C645 1.429 . S
C654 N651 1.350 . S
C654 C653 1.434 . S
C655 C656 1.369 . S
C655 C657 1.419 . S
C655 H659 0.930 . S
C656 C655 1.369 . S
C656 C665 1.429 . S
C657 C655 1.419 . S
C657 C658 1.363 . S
C657 H660 0.929 . S
C658 C657 1.363 . S
C658 C664 1.428 1_565 S
H659 C655 0.930 . S
H660 C657 0.929 . S
S661 N662 1.613 . S
S661 N663 1.610 . S
N662 S661 1.613 . S
N662 C665 1.350 1_545 S
N663 S661 1.610 . S
N663 C664 1.351 . S
C664 C658 1.428 1_545 S
C664 N663 1.351 . S
C664 C665 1.434 1_545 S
C665 C656 1.429 . S
C665 N662 1.350 1_565 S
C665 C664 1.434 1_565 S
C666 C667 1.369 . S
C666 C668 1.419 . S
C666 H670 0.930 . S
C667 C666 1.369 . S
C667 C676 1.429 . S
C668 C666 1.419 . S
C668 C669 1.363 . S
C668 H671 0.929 . S
C669 C668 1.363 . S
C669 C675 1.428 . S
H670 C666 0.930 . S
H671 C668 0.929 . S
S672 N673 1.613 . S
S672 N674 1.610 . S
N673 S672 1.613 . S
N673 C676 1.350 . S
N674 S672 1.610 . S
N674 C675 1.351 . S
C675 C669 1.428 . S
C675 N674 1.351 . S
C675 C676 1.434 . S
C676 C667 1.429 . S
C676 N673 1.350 . S
C676 C675 1.434 . S
C677 C678 1.369 . S
C677 C679 1.419 . S
C677 H681 0.930 . S
C678 C677 1.369 . S
C678 C687 1.429 . S
C679 C677 1.419 . S
C679 C680 1.363 . S
C679 H682 0.929 . S
C680 C679 1.363 . S
C680 C686 1.428 . S
H681 C677 0.930 . S
H682 C679 0.929 . S
S683 N684 1.613 . S
S683 N685 1.610 . S
N684 S683 1.613 . S
N684 C687 1.350 . S
N685 S683 1.610 . S
N685 C686 1.351 . S
C686 C680 1.428 . S
C686 N685 1.351 . S
C686 C687 1.434 . S
C687 C678 1.429 . S
C687 N684 1.350 . S
C687 C686 1.434 . S
C688 C689 1.369 . S
C688 C690 1.419 . S
C688 H692 0.930 . S
C689 C688 1.369 . S
C689 C698 1.429 . S
C690 C688 1.419 . S
C690 C691 1.363 . S
C690 H693 0.929 . S
C691 C690 1.363 . S
C691 C697 1.428 . S
H692 C688 0.930 . S
H693 C690 0.929 . S
S694 N695 1.613 . S
S694 N696 1.610 . S
N695 S694 1.613 . S
N695 C698 1.350 . S
N696 S694 1.610 . S
N696 C697 1.351 . S
C697 C691 1.428 . S
C697 N696 1.351 . S
C697 C698 1.434 . S
C698 C689 1.429 . S
C698 N695 1.350 . S
C698 C697 1.434 . S
C699 C700 1.369 . S
C699 C701 1.419 . S
C699 H703 0.930 . S
C700 C699 1.369 . S
C700 C709 1.429 . S
C701 C699 1.419 . S
C701 C702 1.363 . S
C701 H704 0.929 . S
C702 C701 1.363 . S
C702 C708 1.428 . S
H703 C699 0.930 . S
H704 C701 0.929 . S
S705 N706 1.613 . S
S705 N707 1.610 . S
N706 S705 1.613 . S
N706 C709 1.350 . S
N707 S705 1.610 . S
N707 C708 1.351 . S
C708 C702 1.428 . S
C708 N707 1.351 . S
C708 C709 1.434 . S
C709 C700 1.429 . S
C709 N706 1.350 . S
C709 C708 1.434 . S
C710 C711 1.369 . S
C710 C712 1.419 . S
C710 H714 0.930 . S
C711 C710 1.369 . S
C711 C720 1.429 . S
C712 C710 1.419 . S
C712 C713 1.363 . S
C712 H715 0.929 . S
C713 C712 1.363 . S
C713 C719 1.428 . S
H714 C710 0.930 . S
H715 C712 0.929 . S
S716 N717 1.613 . S
S716 N718 1.610 . S
N717 S716 1.613 . S
N717 C720 1.350 . S
N718 S716 1.610 . S
N718 C719 1.351 . S
C719 C713 1.428 . S
C719 N718 1.351 . S
C719 C720 1.434 . S
C720 C711 1.429 . S
C720 N717 1.350 . S
C720 C719 1.434 . S
C721 C722 1.369 . S
C721 C723 1.419 . S
C721 H725 0.930 . S
C722 C721 1.369 . S
C722 C731 1.429 . S
C723 C721 1.419 . S
C723 C724 1.363 . S
C723 H726 0.929 . S
C724 C723 1.363 . S
C724 C730 1.428 . S
H725 C721 0.930 . S
H726 C723 0.929 . S
S727 N728 1.613 . S
S727 N729 1.610 . S
N728 S727 1.613 . S
N728 C731 1.350 . S
N729 S727 1.610 . S
N729 C730 1.351 . S
C730 C724 1.428 . S
C730 N729 1.351 . S
C730 C731 1.434 . S
C731 C722 1.429 . S
C731 N728 1.350 . S
C731 C730 1.434 . S
C732 C733 1.369 . S
C732 C734 1.419 . S
C732 H736 0.930 . S
C733 C732 1.369 . S
C733 C742 1.429 . S
C734 C732 1.419 . S
C734 C735 1.363 . S
C734 H737 0.929 . S
C735 C734 1.363 . S
C735 C741 1.428 . S
H736 C732 0.930 . S
H737 C734 0.929 . S
S738 N739 1.613 . S
S738 N740 1.610 . S
N739 S738 1.613 . S
N739 C742 1.350 . S
N740 S738 1.610 . S
N740 C741 1.351 . S
C741 C735 1.428 . S
C741 N740 1.351 . S
C741 C742 1.434 . S
C742 C733 1.429 . S
C742 N739 1.350 . S
C742 C741 1.434 . S
C743 C744 1.369 . S
C743 C745 1.419 . S
C743 H747 0.930 . S
C744 C743 1.369 . S
C744 C753 1.429 . S
C745 C743 1.419 . S
C745 C746 1.363 . S
C745 H748 0.929 . S
C746 C745 1.363 . S
C746 C752 1.428 . S
H747 C743 0.930 . S
H748 C745 0.929 . S
S749 N750 1.613 . S
S749 N751 1.610 . S
N750 S749 1.613 . S
N750 C753 1.350 . S
N751 S749 1.610 . S
N751 C752 1.351 . S
C752 C746 1.428 . S
C752 N751 1.351 . S
C752 C753 1.434 . S
C753 C744 1.429 . S
C753 N750 1.350 . S
C753 C752 1.434 . S
C754 C755 1.369 . S
C754 C756 1.419 . S
C754 H758 0.930 . S
C755 C754 1.369 . S
C755 C764 1.429 . S
C756 C754 1.419 . S
C756 C757 1.363 . S
C756 H759 0.929 . S
C757 C756 1.363 . S
C757 C763 1.428 . S
H758 C754 0.930 . S
H759 C756 0.929 . S
S760 N761 1.613 . S
S760 N762 1.610 . S
N761 S760 1.613 . S
N761 C764 1.350 . S
N762 S760 1.610 . S
N762 C763 1.351 . S
C763 C757 1.428 . S
C763 N762 1.351 . S
C763 C764 1.434 . S
C764 C755 1.429 . S
C764 N761 1.350 . S
C764 C763 1.434 . S
C765 C766 1.369 . S
C765 C767 1.419 . S
C765 H769 0.930 . S
C766 C765 1.369 . S
C766 C775 1.429 . S
C767 C765 1.419 . S
C767 C768 1.363 . S
C767 H770 0.929 . S
C768 C767 1.363 . S
C768 C774 1.428 . S
H769 C765 0.930 . S
H770 C767 0.929 . S
S771 N772 1.613 1_556 S
S771 N773 1.610 . S
N772 S771 1.613 1_554 S
N772 C775 1.350 1_554 S
N773 S771 1.610 . S
N773 C774 1.351 . S
C774 C768 1.428 . S
C774 N773 1.351 . S
C774 C775 1.434 . S
C775 C766 1.429 . S
C775 N772 1.350 1_556 S
C775 C774 1.434 . S
C776 C777 1.369 . S
C776 C778 1.419 . S
C776 H780 0.930 . S
C777 C776 1.369 . S
C777 C786 1.429 . S
C778 C776 1.419 . S
C778 C779 1.363 . S
C778 H781 0.929 . S
C779 C778 1.363 . S
C779 C785 1.428 . S
H780 C776 0.930 . S
H781 C778 0.929 . S
S782 N783 1.613 . S
S782 N784 1.610 . S
N783 S782 1.613 . S
N783 C786 1.350 . S
N784 S782 1.610 . S
N784 C785 1.351 . S
C785 C779 1.428 . S
C785 N784 1.351 . S
C785 C786 1.434 . S
C786 C777 1.429 . S
C786 N783 1.350 . S
C786 C785 1.434 . S
C787 C788 1.369 . S
C787 C789 1.419 . S
C787 H791 0.930 . S
C788 C787 1.369 . S
C788 C797 1.429 . S
C789 C787 1.419 . S
C789 C790 1.363 . S
C789 H792 0.929 . S
C790 C789 1.363 . S
C790 C796 1.428 . S
H791 C787 0.930 . S
H792 C789 0.929 . S
S793 N794 1.613 . S
S793 N795 1.610 . S
N794 S793 1.613 . S
N794 C797 1.350 . S
N795 S793 1.610 . S
N795 C796 1.351 . S
C796 C790 1.428 . S
C796 N795 1.351 . S
C796 C797 1.434 . S
C797 C788 1.429 . S
C797 N794 1.350 . S
C797 C796 1.434 . S
C798 C799 1.369 . S
C798 C800 1.419 1_455 S
C798 H802 0.930 . S
C799 C798 1.369 . S
C799 C808 1.431 . S
C800 C798 1.419 1_655 S
C800 C801 1.363 . S
C800 H803 0.929 . S
C801 C800 1.363 . S
C801 C807 1.428 . S
H802 C798 0.930 . S
H803 C800 0.929 . S
S804 N805 1.613 . S
S804 N806 1.610 . S
N805 S804 1.613 . S
N805 C808 1.352 1_655 S
N806 S804 1.610 . S
N806 C807 1.351 . S
C807 C801 1.428 . S
C807 N806 1.351 . S
C807 C808 1.428 1_655 S
C808 C799 1.431 . S
C808 N805 1.352 1_455 S
C808 C807 1.428 1_455 S
C809 C810 1.369 . S
C809 C811 1.419 . S
C809 H813 0.930 . S
C810 C809 1.369 . S
C810 C819 1.429 . S
C811 C809 1.419 . S
C811 C812 1.363 . S
C811 H814 0.929 . S
C812 C811 1.363 . S
C812 C818 1.428 . S
H813 C809 0.930 . S
H814 C811 0.929 . S
S815 N816 1.613 . S
S815 N817 1.610 . S
N816 S815 1.613 . S
N816 C819 1.350 . S
N817 S815 1.610 . S
N817 C818 1.351 . S
C818 C812 1.428 . S
C818 N817 1.351 . S
C818 C819 1.434 . S
C819 C810 1.429 . S
C819 N816 1.350 . S
C819 C818 1.434 . S
C820 C821 1.369 1_565 S
C820 C822 1.419 . S
C820 H824 0.930 . S
C821 C820 1.369 1_545 S
C821 C830 1.429 . S
C822 C820 1.419 . S
C822 C823 1.363 . S
C822 H825 0.929 . S
C823 C822 1.363 . S
C823 C829 1.428 1_565 S
H824 C820 0.930 . S
H825 C822 0.929 . S
S826 N827 1.613 . S
S826 N828 1.610 . S
N827 S826 1.613 . S
N827 C830 1.350 . S
N828 S826 1.610 . S
N828 C829 1.351 . S
C829 C823 1.428 1_545 S
C829 N828 1.351 . S
C829 C830 1.434 . S
C830 C821 1.429 . S
C830 N827 1.350 . S
C830 C829 1.434 . S
C831 C832 1.369 1_545 S
C831 C833 1.419 . S
C831 H835 0.930 . S
C832 C831 1.369 1_565 S
C832 C841 1.429 . S
C833 C831 1.419 . S
C833 C834 1.363 . S
C833 H836 0.929 . S
C834 C833 1.363 . S
C834 C840 1.428 1_545 S
H835 C831 0.930 . S
H836 C833 0.929 . S
S837 N838 1.613 . S
S837 N839 1.610 . S
N838 S837 1.613 . S
N838 C841 1.350 . S
N839 S837 1.610 . S
N839 C840 1.351 . S
C840 C834 1.428 1_565 S
C840 N839 1.351 . S
C840 C841 1.434 . S
C841 C832 1.429 . S
C841 N838 1.350 . S
C841 C840 1.434 . S
C842 C843 1.369 . S
C842 C844 1.419 1_655 S
C842 H846 0.930 . S
C843 C842 1.369 . S
C843 C852 1.429 . S
C844 C842 1.419 1_455 S
C844 C845 1.363 . S
C844 H847 0.929 . S
C845 C844 1.363 . S
C845 C851 1.428 . S
H846 C842 0.930 . S
H847 C844 0.929 . S
S848 N849 1.613 1_455 S
S848 N850 1.610 . S
N849 S848 1.613 1_655 S
N849 C852 1.350 . S
N850 S848 1.610 . S
N850 C851 1.351 . S
C851 C845 1.428 . S
C851 N850 1.351 . S
C851 C852 1.434 1_455 S
C852 C843 1.429 . S
C852 N849 1.350 . S
C852 C851 1.434 1_655 S
C853 C854 1.369 . S
C853 C855 1.419 . S
C853 H857 0.930 . S
C854 C853 1.369 . S
C854 C863 1.429 . S
C855 C853 1.419 . S
C855 C856 1.363 . S
C855 H858 0.929 . S
C856 C855 1.363 . S
C856 C862 1.428 . S
H857 C853 0.930 . S
H858 C855 0.929 . S
S859 N860 1.613 . S
S859 N861 1.610 . S
N860 S859 1.613 . S
N860 C863 1.350 . S
N861 S859 1.610 . S
N861 C862 1.351 . S
C862 C856 1.428 . S
C862 N861 1.351 . S
C862 C863 1.434 . S
C863 C854 1.429 . S
C863 N860 1.350 . S
C863 C862 1.434 . S
C864 C865 1.369 . S
C864 C866 1.419 . S
C864 H868 0.930 . S
C865 C864 1.369 . S
C865 C874 1.429 . S
C866 C864 1.419 . S
C866 C867 1.363 . S
C866 H869 0.929 . S
C867 C866 1.363 . S
C867 C873 1.428 . S
H868 C864 0.930 . S
H869 C866 0.929 . S
S870 N871 1.613 . S
S870 N872 1.610 . S
N871 S870 1.613 . S
N871 C874 1.350 . S
N872 S870 1.610 . S
N872 C873 1.351 . S
C873 C867 1.428 . S
C873 N872 1.351 . S
C873 C874 1.434 . S
C874 C865 1.429 . S
C874 N871 1.350 . S
C874 C873 1.434 . S
C875 C876 1.369 . S
C875 C877 1.419 . S
C875 H879 0.930 . S
C876 C875 1.369 . S
C876 C885 1.429 . S
C877 C875 1.419 . S
C877 C878 1.363 . S
C877 H880 0.929 . S
C878 C877 1.363 . S
C878 C884 1.428 . S
H879 C875 0.930 . S
H880 C877 0.929 . S
S881 N882 1.613 . S
S881 N883 1.610 . S
N882 S881 1.613 . S
N882 C885 1.350 . S
N883 S881 1.610 . S
N883 C884 1.351 . S
C884 C878 1.428 . S
C884 N883 1.351 . S
C884 C885 1.434 . S
C885 C876 1.429 . S
C885 N882 1.350 . S
C885 C884 1.434 . S
C886 C887 1.369 . S
C886 C888 1.419 . S
C886 H890 0.930 . S
C887 C886 1.369 . S
C887 C896 1.429 . S
C888 C886 1.419 . S
C888 C889 1.363 . S
C888 H891 0.929 . S
C889 C888 1.363 . S
C889 C895 1.428 . S
H890 C886 0.930 . S
H891 C888 0.929 . S
S892 N893 1.613 . S
S892 N894 1.610 . S
N893 S892 1.613 . S
N893 C896 1.350 . S
N894 S892 1.610 . S
N894 C895 1.351 . S
C895 C889 1.428 . S
C895 N894 1.351 . S
C895 C896 1.434 . S
C896 C887 1.429 . S
C896 N893 1.350 . S
C896 C895 1.434 . S
C897 C898 1.369 . S
C897 C899 1.419 . S
C897 H901 0.930 . S
C898 C897 1.369 . S
C898 C907 1.429 . S
C899 C897 1.419 . S
C899 C900 1.363 . S
C899 H902 0.929 . S
C900 C899 1.363 . S
C900 C906 1.428 . S
H901 C897 0.930 . S
H902 C899 0.929 . S
S903 N904 1.613 . S
S903 N905 1.610 . S
N904 S903 1.613 . S
N904 C907 1.350 . S
N905 S903 1.610 . S
N905 C906 1.351 . S
C906 C900 1.428 . S
C906 N905 1.351 . S
C906 C907 1.434 . S
C907 C898 1.429 . S
C907 N904 1.350 . S
C907 C906 1.434 . S
C908 C909 1.369 . S
C908 C910 1.419 . S
C908 H912 0.930 . S
C909 C908 1.369 . S
C909 C918 1.429 . S
C910 C908 1.419 . S
C910 C911 1.363 . S
C910 H913 0.929 . S
C911 C910 1.363 . S
C911 C917 1.428 . S
H912 C908 0.930 . S
H913 C910 0.929 . S
S914 N915 1.613 . S
S914 N916 1.610 . S
N915 S914 1.613 . S
N915 C918 1.350 . S
N916 S914 1.610 . S
N916 C917 1.351 . S
C917 C911 1.428 . S
C917 N916 1.351 . S
C917 C918 1.434 . S
C918 C909 1.429 . S
C918 N915 1.350 . S
C918 C917 1.434 . S
C919 C920 1.369 . S
C919 C921 1.419 . S
C919 H923 0.930 . S
C920 C919 1.369 . S
C920 C929 1.429 . S
C921 C919 1.419 . S
C921 C922 1.363 . S
C921 H924 0.929 . S
C922 C921 1.363 . S
C922 C928 1.428 . S
H923 C919 0.930 . S
H924 C921 0.929 . S
S925 N926 1.613 . S
S925 N927 1.610 . S
N926 S925 1.613 . S
N926 C929 1.350 . S
N927 S925 1.610 . S
N927 C928 1.351 . S
C928 C922 1.428 . S
C928 N927 1.351 . S
C928 C929 1.434 . S
C929 C920 1.429 . S
C929 N926 1.350 . S
C929 C928 1.434 . S
C930 C931 1.369 . S
C930 C932 1.419 . S
C930 H934 0.930 . S
C931 C930 1.369 . S
C931 C940 1.429 . S
C932 C930 1.419 . S
C932 C933 1.363 . S
C932 H935 0.929 . S
C933 C932 1.363 . S
C933 C939 1.428 . S
H934 C930 0.930 . S
H935 C932 0.929 . S
S936 N937 1.613 . S
S936 N938 1.610 . S
N937 S936 1.613 . S
N937 C940 1.350 . S
N938 S936 1.610 . S
N938 C939 1.351 . S
C939 C933 1.428 . S
C939 N938 1.351 . S
C939 C940 1.434 . S
C940 C931 1.429 . S
C940 N937 1.350 . S
C940 C939 1.434 . S
C941 C942 1.369 . S
C941 C943 1.419 . S
C941 H945 0.930 . S
C942 C941 1.369 . S
C942 C951 1.429 . S
C943 C941 1.419 . S
C943 C944 1.363 . S
C943 H946 0.929 . S
C944 C943 1.363 . S
C944 C950 1.428 . S
H945 C941 0.930 . S
H946 C943 0.929 . S
S947 N948 1.613 . S
S947 N949 1.610 . S
N948 S947 1.613 . S
N948 C951 1.350 . S
N949 S947 1.610 . S
N949 C950 1.351 . S
C950 C944 1.428 . S
C950 N949 1.351 . S
C950 C951 1.434 . S
C951 C942 1.429 . S
C951 N948 1.350 . S
C951 C950 1.434 . S
C952 C953 1.369 . S
C952 C954 1.419 . S
C952 H956 0.930 . S
C953 C952 1.369 . S
C953 C962 1.429 . S
C954 C952 1.419 . S
C954 C955 1.363 . S
C954 H957 0.929 . S
C955 C954 1.363 . S
C955 C961 1.428 . S
H956 C952 0.930 . S
H957 C954 0.929 . S
S958 N959 1.613 . S
S958 N960 1.610 . S
N959 S958 1.613 . S
N959 C962 1.350 . S
N960 S958 1.610 . S
N960 C961 1.351 . S
C961 C955 1.428 . S
C961 N960 1.351 . S
C961 C962 1.434 . S
C962 C953 1.429 . S
C962 N959 1.350 . S
C962 C961 1.434 . S
C963 C964 1.369 . S
C963 C965 1.419 . S
C963 H967 0.930 . S
C964 C963 1.369 . S
C964 C973 1.429 . S
C965 C963 1.419 . S
C965 C966 1.363 . S
C965 H968 0.929 . S
C966 C965 1.363 . S
C966 C972 1.428 . S
H967 C963 0.930 . S
H968 C965 0.929 . S
S969 N970 1.613 . S
S969 N971 1.610 . S
N970 S969 1.613 . S
N970 C973 1.350 . S
N971 S969 1.610 . S
N971 C972 1.351 . S
C972 C966 1.428 . S
C972 N971 1.351 . S
C972 C973 1.434 . S
C973 C964 1.429 . S
C973 N970 1.350 . S
C973 C972 1.434 . S
C974 C975 1.369 . S
C974 C976 1.419 . S
C974 H978 0.930 . S
C975 C974 1.369 . S
C975 C984 1.429 . S
C976 C974 1.419 . S
C976 C977 1.363 . S
C976 H979 0.929 . S
C977 C976 1.363 . S
C977 C983 1.428 . S
H978 C974 0.930 . S
H979 C976 0.929 . S
S980 N981 1.613 . S
S980 N982 1.610 . S
N981 S980 1.613 . S
N981 C984 1.350 . S
N982 S980 1.610 . S
N982 C983 1.351 . S
C983 C977 1.428 . S
C983 N982 1.351 . S
C983 C984 1.434 . S
C984 C975 1.429 . S
C984 N981 1.350 . S
C984 C983 1.434 . S
C985 C986 1.369 . S
C985 C987 1.419 . S
C985 H989 0.930 . S
C986 C985 1.369 . S
C986 C995 1.429 . S
C987 C985 1.419 . S
C987 C988 1.363 . S
C987 H990 0.929 . S
C988 C987 1.363 . S
C988 C994 1.428 . S
H989 C985 0.930 . S
H990 C987 0.929 . S
S991 N992 1.613 . S
S991 N993 1.610 . S
N992 S991 1.613 . S
N992 C995 1.350 . S
N993 S991 1.610 . S
N993 C994 1.351 . S
C994 C988 1.428 . S
C994 N993 1.351 . S
C994 C995 1.434 . S
C995 C986 1.429 . S
C995 N992 1.350 . S
C995 C994 1.434 . S
C996 C997 1.369 1_655 S
C996 C998 1.419 . S
C996 H1000 0.930 . S
C997 C996 1.369 1_455 S
C997 C1006 1.429 . S
C998 C996 1.419 . S
C998 C999 1.363 . S
C998 H1001 0.929 . S
C999 C998 1.363 . S
C999 C1005 1.428 1_655 S
H1000 C996 0.930 . S
H1001 C998 0.929 . S
S1002 N1003 1.613 . S
S1002 N1004 1.610 . S
N1003 S1002 1.613 . S
N1003 C1006 1.350 . S
N1004 S1002 1.610 . S
N1004 C1005 1.351 . S
C1005 C999 1.428 1_455 S
C1005 N1004 1.351 . S
C1005 C1006 1.434 . S
C1006 C997 1.429 . S
C1006 N1003 1.350 . S
C1006 C1005 1.434 . S
C1007 C1008 1.369 . S
C1007 C1009 1.419 . S
C1007 H1011 0.930 . S
C1008 C1007 1.369 . S
C1008 C1017 1.429 . S
C1009 C1007 1.419 . S
C1009 C1010 1.363 . S
C1009 H1012 0.929 . S
C1010 C1009 1.363 . S
C1010 C1016 1.428 . S
H1011 C1007 0.930 . S
H1012 C1009 0.929 . S
S1013 N1014 1.613 . S
S1013 N1015 1.610 . S
N1014 S1013 1.613 . S
N1014 C1017 1.350 . S
N1015 S1013 1.610 . S
N1015 C1016 1.351 . S
C1016 C1010 1.428 . S
C1016 N1015 1.351 . S
C1016 C1017 1.434 . S
C1017 C1008 1.429 . S
C1017 N1014 1.350 . S
C1017 C1016 1.434 . S
C1018 C1019 1.369 . S
C1018 C1020 1.419 1_545 S
C1018 H1022 0.930 . S
C1019 C1018 1.369 . S
C1019 C1028 1.429 . S
C1020 C1018 1.419 1_565 S
C1020 C1021 1.363 . S
C1020 H1023 0.929 . S
C1021 C1020 1.363 . S
C1021 C1027 1.428 . S
H1022 C1018 0.930 . S
H1023 C1020 0.929 . S
S1024 N1025 1.613 . S
S1024 N1026 1.610 1_545 S
N1025 S1024 1.613 . S
N1025 C1028 1.350 . S
N1026 S1024 1.610 1_565 S
N1026 C1027 1.351 . S
C1027 C1021 1.428 . S
C1027 N1026 1.351 . S
C1027 C1028 1.434 1_565 S
C1028 C1019 1.429 . S
C1028 N1025 1.350 . S
C1028 C1027 1.434 1_545 S
C1029 C1030 1.369 1_554 S
C1029 C1031 1.419 . S
C1029 H1033 0.930 . S
C1030 C1029 1.369 1_556 S
C1030 C1039 1.429 1_545 S
C1031 C1029 1.419 . S
C1031 C1032 1.363 1_545 S
C1031 H1034 0.929 . S
C1032 C1031 1.363 1_565 S
C1032 C1038 1.428 1_554 S
H1033 C1029 0.930 . S
H1034 C1031 0.929 . S
S1035 N1036 1.613 . S
S1035 N1037 1.610 . S
N1036 S1035 1.613 . S
N1036 C1039 1.350 . S
N1037 S1035 1.610 . S
N1037 C1038 1.351 . S
C1038 C1032 1.428 1_556 S
C1038 N1037 1.351 . S
C1038 C1039 1.434 . S
C1039 C1030 1.429 1_565 S
C1039 N1036 1.350 . S
C1039 C1038 1.434 . S
C1040 C1041 1.369 1_556 S
C1040 C1042 1.419 1_455 S
C1040 H1044 0.930 . S
C1041 C1040 1.369 1_554 S
C1041 C1050 1.429 . S
C1042 C1040 1.419 1_655 S
C1042 C1043 1.363 . S
C1042 H1045 0.929 . S
C1043 C1042 1.363 . S
C1043 C1049 1.428 1_556 S
H1044 C1040 0.930 . S
H1045 C1042 0.929 . S
S1046 N1047 1.613 1_655 S
S1046 N1048 1.610 . S
N1047 S1046 1.613 1_455 S
N1047 C1050 1.350 . S
N1048 S1046 1.610 . S
N1048 C1049 1.351 . S
C1049 C1043 1.428 1_554 S
C1049 N1048 1.351 . S
C1049 C1050 1.434 1_655 S
C1050 C1041 1.429 . S
C1050 N1047 1.350 . S
C1050 C1049 1.434 1_455 S
C1051 C1052 1.369 . S
C1051 C1053 1.419 . S
C1051 H1055 0.930 . S
C1052 C1051 1.369 . S
C1052 C1061 1.429 1_554 S
C1053 C1051 1.419 . S
C1053 C1054 1.363 1_554 S
C1053 H1056 0.929 . S
C1054 C1053 1.363 1_556 S
C1054 C1060 1.428 . S
H1055 C1051 0.930 . S
H1056 C1053 0.929 . S
S1057 N1058 1.613 . S
S1057 N1059 1.610 . S
N1058 S1057 1.613 . S
N1058 C1061 1.350 . S
N1059 S1057 1.610 . S
N1059 C1060 1.351 . S
C1060 C1054 1.428 . S
C1060 N1059 1.351 . S
C1060 C1061 1.434 . S
C1061 C1052 1.429 1_556 S
C1061 N1058 1.350 . S
C1061 C1060 1.434 . S
C1062 C1063 1.369 . S
C1062 C1064 1.419 . S
C1062 H1066 0.930 . S
C1063 C1062 1.369 . S
C1063 C1072 1.429 . S
C1064 C1062 1.419 . S
C1064 C1065 1.363 . S
C1064 H1067 0.929 . S
C1065 C1064 1.363 . S
C1065 C1071 1.428 . S
H1066 C1062 0.930 . S
H1067 C1064 0.929 . S
S1068 N1069 1.613 . S
S1068 N1070 1.610 . S
N1069 S1068 1.613 . S
N1069 C1072 1.350 . S
N1070 S1068 1.610 . S
N1070 C1071 1.351 . S
C1071 C1065 1.428 . S
C1071 N1070 1.351 . S
C1071 C1072 1.434 . S
C1072 C1063 1.429 . S
C1072 N1069 1.350 . S
C1072 C1071 1.434 . S
C1073 C1074 1.369 . S
C1073 C1075 1.419 . S
C1073 H1077 0.930 . S
C1074 C1073 1.369 . S
C1074 C1083 1.429 . S
C1075 C1073 1.419 . S
C1075 C1076 1.363 . S
C1075 H1078 0.929 . S
C1076 C1075 1.363 . S
C1076 C1082 1.428 . S
H1077 C1073 0.930 . S
H1078 C1075 0.929 . S
S1079 N1080 1.613 . S
S1079 N1081 1.610 . S
N1080 S1079 1.613 . S
N1080 C1083 1.350 . S
N1081 S1079 1.610 . S
N1081 C1082 1.351 . S
C1082 C1076 1.428 . S
C1082 N1081 1.351 . S
C1082 C1083 1.434 . S
C1083 C1074 1.429 . S
C1083 N1080 1.350 . S
C1083 C1082 1.434 . S
C1084 C1085 1.369 . S
C1084 C1086 1.419 . S
C1084 H1088 0.930 . S
C1085 C1084 1.369 . S
C1085 C1094 1.429 . S
C1086 C1084 1.419 . S
C1086 C1087 1.363 . S
C1086 H1089 0.929 . S
C1087 C1086 1.363 . S
C1087 C1093 1.428 . S
H1088 C1084 0.930 . S
H1089 C1086 0.929 . S
S1090 N1091 1.613 1_554 S
S1090 N1092 1.610 . S
N1091 S1090 1.613 1_556 S
N1091 C1094 1.350 1_556 S
N1092 S1090 1.610 . S
N1092 C1093 1.351 . S
C1093 C1087 1.428 . S
C1093 N1092 1.351 . S
C1093 C1094 1.434 . S
C1094 C1085 1.429 . S
C1094 N1091 1.350 1_554 S
C1094 C1093 1.434 . S
C1095 C1096 1.369 . S
C1095 C1097 1.419 . S
C1095 H1099 0.930 . S
C1096 C1095 1.369 . S
C1096 C1105 1.429 . S
C1097 C1095 1.419 . S
C1097 C1098 1.363 . S
C1097 H1100 0.929 . S
C1098 C1097 1.363 . S
C1098 C1104 1.428 . S
H1099 C1095 0.930 . S
H1100 C1097 0.929 . S
S1101 N1102 1.613 . S
S1101 N1103 1.610 . S
N1102 S1101 1.613 . S
N1102 C1105 1.350 . S
N1103 S1101 1.610 . S
N1103 C1104 1.351 . S
C1104 C1098 1.428 . S
C1104 N1103 1.351 . S
C1104 C1105 1.434 . S
C1105 C1096 1.429 . S
C1105 N1102 1.350 . S
C1105 C1104 1.434 . S
C1106 C1107 1.369 . S
C1106 C1108 1.419 . S
C1106 H1110 0.930 . S
C1107 C1106 1.369 . S
C1107 C1116 1.429 . S
C1108 C1106 1.419 . S
C1108 C1109 1.363 . S
C1108 H1111 0.929 . S
C1109 C1108 1.363 . S
C1109 C1115 1.428 . S
H1110 C1106 0.930 . S
H1111 C1108 0.929 . S
S1112 N1113 1.613 . S
S1112 N1114 1.610 . S
N1113 S1112 1.613 . S
N1113 C1116 1.350 . S
N1114 S1112 1.610 . S
N1114 C1115 1.351 . S
C1115 C1109 1.428 . S
C1115 N1114 1.351 . S
C1115 C1116 1.434 . S
C1116 C1107 1.429 . S
C1116 N1113 1.350 . S
C1116 C1115 1.434 . S
C1117 C1118 1.369 . S
C1117 C1119 1.419 . S
C1117 H1121 0.930 . S
C1118 C1117 1.369 . S
C1118 C1127 1.429 . S
C1119 C1117 1.419 . S
C1119 C1120 1.363 . S
C1119 H1122 0.929 . S
C1120 C1119 1.363 . S
C1120 C1126 1.428 . S
H1121 C1117 0.930 . S
H1122 C1119 0.929 . S
S1123 N1124 1.613 . S
S1123 N1125 1.610 . S
N1124 S1123 1.613 . S
N1124 C1127 1.350 . S
N1125 S1123 1.610 . S
N1125 C1126 1.351 . S
C1126 C1120 1.428 . S
C1126 N1125 1.351 . S
C1126 C1127 1.434 . S
C1127 C1118 1.429 . S
C1127 N1124 1.350 . S
C1127 C1126 1.434 . S
C1128 C1129 1.369 . S
C1128 C1130 1.419 . S
C1128 H1132 0.930 . S
C1129 C1128 1.369 . S
C1129 C1138 1.429 . S
C1130 C1128 1.419 . S
C1130 C1131 1.363 . S
C1130 H1133 0.929 . S
C1131 C1130 1.363 . S
C1131 C1137 1.428 . S
H1132 C1128 0.930 . S
H1133 C1130 0.929 . S
S1134 N1135 1.613 . S
S1134 N1136 1.610 . S
N1135 S1134 1.613 . S
N1135 C1138 1.350 . S
N1136 S1134 1.610 . S
N1136 C1137 1.351 . S
C1137 C1131 1.428 . S
C1137 N1136 1.351 . S
C1137 C1138 1.434 . S
C1138 C1129 1.429 . S
C1138 N1135 1.350 . S
C1138 C1137 1.434 . S
C1139 C1140 1.369 . S
C1139 C1141 1.419 . S
C1139 H1143 0.930 . S
C1140 C1139 1.369 . S
C1140 C1149 1.429 . S
C1141 C1139 1.419 . S
C1141 C1142 1.363 . S
C1141 H1144 0.929 . S
C1142 C1141 1.363 . S
C1142 C1148 1.428 . S
H1143 C1139 0.930 . S
H1144 C1141 0.929 . S
S1145 N1146 1.613 . S
S1145 N1147 1.610 . S
N1146 S1145 1.613 . S
N1146 C1149 1.350 . S
N1147 S1145 1.610 . S
N1147 C1148 1.351 . S
C1148 C1142 1.428 . S
C1148 N1147 1.351 . S
C1148 C1149 1.434 . S
C1149 C1140 1.429 . S
C1149 N1146 1.350 . S
C1149 C1148 1.434 . S
C1150 C1151 1.369 . S
C1150 C1152 1.419 . S
C1150 H1154 0.930 . S
C1151 C1150 1.369 . S
C1151 C1160 1.429 . S
C1152 C1150 1.419 . S
C1152 C1153 1.363 . S
C1152 H1155 0.929 . S
C1153 C1152 1.363 . S
C1153 C1159 1.428 . S
H1154 C1150 0.930 . S
H1155 C1152 0.929 . S
S1156 N1157 1.613 . S
S1156 N1158 1.610 . S
N1157 S1156 1.613 . S
N1157 C1160 1.350 . S
N1158 S1156 1.610 . S
N1158 C1159 1.351 . S
C1159 C1153 1.428 . S
C1159 N1158 1.351 . S
C1159 C1160 1.434 . S
C1160 C1151 1.429 . S
C1160 N1157 1.350 . S
C1160 C1159 1.434 . S
C1161 C1162 1.369 . S
C1161 C1163 1.419 . S
C1161 H1165 0.930 . S
C1162 C1161 1.369 . S
C1162 C1171 1.429 . S
C1163 C1161 1.419 . S
C1163 C1164 1.363 . S
C1163 H1166 0.929 . S
C1164 C1163 1.363 . S
C1164 C1170 1.428 . S
H1165 C1161 0.930 . S
H1166 C1163 0.929 . S
S1167 N1168 1.613 . S
S1167 N1169 1.610 . S
N1168 S1167 1.613 . S
N1168 C1171 1.350 . S
N1169 S1167 1.610 . S
N1169 C1170 1.351 . S
C1170 C1164 1.428 . S
C1170 N1169 1.351 . S
C1170 C1171 1.434 . S
C1171 C1162 1.429 . S
C1171 N1168 1.350 . S
C1171 C1170 1.434 . S
C1172 C1173 1.369 . S
C1172 C1174 1.419 . S
C1172 H1176 0.930 . S
C1173 C1172 1.369 . S
C1173 C1182 1.429 . S
C1174 C1172 1.419 . S
C1174 C1175 1.363 . S
C1174 H1177 0.929 . S
C1175 C1174 1.363 . S
C1175 C1181 1.428 . S
H1176 C1172 0.930 . S
H1177 C1174 0.929 . S
S1178 N1179 1.613 . S
S1178 N1180 1.610 . S
N1179 S1178 1.613 . S
N1179 C1182 1.350 . S
N1180 S1178 1.610 . S
N1180 C1181 1.351 . S
C1181 C1175 1.428 . S
C1181 N1180 1.351 . S
C1181 C1182 1.434 . S
C1182 C1173 1.429 . S
C1182 N1179 1.350 . S
C1182 C1181 1.434 . S
C1183 C1184 1.369 . S
C1183 C1185 1.419 . S
C1183 H1187 0.930 . S
C1184 C1183 1.369 . S
C1184 C1193 1.429 . S
C1185 C1183 1.419 . S
C1185 C1186 1.363 . S
C1185 H1188 0.929 . S
C1186 C1185 1.363 . S
C1186 C1192 1.428 . S
H1187 C1183 0.930 . S
H1188 C1185 0.929 . S
S1189 N1190 1.613 . S
S1189 N1191 1.610 . S
N1190 S1189 1.613 . S
N1190 C1193 1.350 . S
N1191 S1189 1.610 . S
N1191 C1192 1.351 . S
C1192 C1186 1.428 . S
C1192 N1191 1.351 . S
C1192 C1193 1.434 . S
C1193 C1184 1.429 . S
C1193 N1190 1.350 . S
C1193 C1192 1.434 . S
C1194 C1195 1.369 . S
C1194 C1196 1.419 . S
C1194 H1198 0.930 . S
C1195 C1194 1.369 . S
C1195 C1204 1.429 . S
C1196 C1194 1.419 . S
C1196 C1197 1.363 . S
C1196 H1199 0.929 . S
C1197 C1196 1.363 . S
C1197 C1203 1.428 . S
H1198 C1194 0.930 . S
H1199 C1196 0.929 . S
S1200 N1201 1.613 . S
S1200 N1202 1.610 . S
N1201 S1200 1.613 . S
N1201 C1204 1.350 . S
N1202 S1200 1.610 . S
N1202 C1203 1.351 . S
C1203 C1197 1.428 . S
C1203 N1202 1.351 . S
C1203 C1204 1.434 . S
C1204 C1195 1.429 . S
C1204 N1201 1.350 . S
C1204 C1203 1.434 . S
C1205 C1206 1.369 . S
C1205 C1207 1.419 1_545 S
C1205 H1209 0.930 . S
C1206 C1205 1.369 . S
C1206 C1215 1.429 . S
C1207 C1205 1.419 1_565 S
C1207 C1208 1.363 . S
C1207 H1210 0.929 . S
C1208 C1207 1.363 . S
C1208 C1214 1.428 . S
H1209 C1205 0.930 . S
H1210 C1207 0.929 . S
S1211 N1212 1.613 . S
S1211 N1213 1.610 1_545 S
N1212 S1211 1.613 . S
N1212 C1215 1.350 . S
N1213 S1211 1.610 1_565 S
N1213 C1214 1.351 . S
C1214 C1208 1.428 . S
C1214 N1213 1.351 . S
C1214 C1215 1.434 1_565 S
C1215 C1206 1.429 . S
C1215 N1212 1.350 . S
C1215 C1214 1.434 1_545 S
C1216 C1217 1.369 . S
C1216 C1218 1.419 1_655 S
C1216 H1220 0.930 . S
C1217 C1216 1.369 . S
C1217 C1226 1.429 . S
C1218 C1216 1.419 1_455 S
C1218 C1219 1.363 . S
C1218 H1221 0.929 . S
C1219 C1218 1.363 . S
C1219 C1225 1.428 . S
H1220 C1216 0.930 . S
H1221 C1218 0.929 . S
S1222 N1223 1.613 . S
S1222 N1224 1.610 1_655 S
N1223 S1222 1.613 . S
N1223 C1226 1.350 . S
N1224 S1222 1.610 1_455 S
N1224 C1225 1.351 . S
C1225 C1219 1.428 . S
C1225 N1224 1.351 . S
C1225 C1226 1.434 1_455 S
C1226 C1217 1.429 . S
C1226 N1223 1.350 . S
C1226 C1225 1.434 1_655 S
C1227 C1228 1.369 . S
C1227 C1229 1.419 . S
C1227 H1231 0.930 . S
C1228 C1227 1.369 . S
C1228 C1237 1.429 . S
C1229 C1227 1.419 . S
C1229 C1230 1.363 . S
C1229 H1232 0.929 . S
C1230 C1229 1.363 . S
C1230 C1236 1.428 . S
H1231 C1227 0.930 . S
H1232 C1229 0.929 . S
S1233 N1234 1.613 . S
S1233 N1235 1.610 . S
N1234 S1233 1.613 . S
N1234 C1237 1.350 . S
N1235 S1233 1.610 . S
N1235 C1236 1.351 . S
C1236 C1230 1.428 . S
C1236 N1235 1.351 . S
C1236 C1237 1.434 . S
C1237 C1228 1.429 . S
C1237 N1234 1.350 . S
C1237 C1236 1.434 . S
C1238 C1239 1.377 . S
C1238 C1240 1.392 1_545 S
C1238 H1242 0.953 . S
C1239 C1238 1.377 . S
C1239 C1248 1.429 . S
C1240 C1238 1.392 1_565 S
C1240 C1241 1.363 . S
C1240 H1243 0.929 . S
C1241 C1240 1.363 . S
C1241 C1247 1.433 . S
H1242 C1238 0.953 . S
H1243 C1240 0.929 . S
S1244 N1245 1.613 . S
S1244 N1246 1.611 1_545 S
N1245 S1244 1.613 . S
N1245 C1248 1.350 . S
N1246 S1244 1.611 1_565 S
N1246 C1247 1.369 . S
C1247 C1241 1.433 . S
C1247 N1246 1.369 . S
C1247 C1248 1.414 1_565 S
C1248 C1239 1.429 . S
C1248 N1245 1.350 . S
C1248 C1247 1.414 1_545 S
C1249 C1250 1.369 1_655 S
C1249 C1251 1.419 . S
C1249 H1253 0.930 . S
C1250 C1249 1.369 1_455 S
C1250 C1259 1.429 . S
C1251 C1249 1.419 . S
C1251 C1252 1.363 . S
C1251 H1254 0.929 . S
C1252 C1251 1.363 . S
C1252 C1258 1.428 1_655 S
H1253 C1249 0.930 . S
H1254 C1251 0.929 . S
S1255 N1256 1.613 . S
S1255 N1257 1.610 . S
N1256 S1255 1.613 . S
N1256 C1259 1.350 . S
N1257 S1255 1.610 . S
N1257 C1258 1.351 . S
C1258 C1252 1.428 1_455 S
C1258 N1257 1.351 . S
C1258 C1259 1.434 . S
C1259 C1250 1.429 . S
C1259 N1256 1.350 . S
C1259 C1258 1.434 . S
C469 C70 1.239 . S
C471 C5 1.235 . S
C480 C44 1.238 . S
C482 C18 1.237 . S
C491 C29 1.237 . S
C493 C57 1.238 . S
C502 C83 1.237 . S
C504 C146 1.238 . S
C513 C94 1.239 . S
C515 C120 1.235 . S
C524 C135 1.235 . S
C526 C109 1.238 . S
C535 C159 1.234 1_655 S
C537 C224 1.239 . S
C546 C172 1.236 . S
C548 C200 1.238 . S
C557 C213 1.239 . S
C559 C187 1.236 1_545 S
C568 C304 1.240 . S
C570 C237 1.235 . S
C579 C278 1.239 1_545 S
C581 C252 1.235 . S
C590 C263 1.239 . S
C592 C289 1.235 1_655 S
C601 C382 1.240 . S
C603 C315 1.235 . S
C612 C356 1.240 1_565 S
C614 C328 1.235 . S
C623 C341 1.238 . S
C625 C367 1.237 1_455 S
C634 C460 1.240 . S
C636 C393 1.235 1_455 S
C645 C434 1.239 . S
C647 C406 1.235 . S
C656 C447 1.235 . S
C658 C419 1.239 1_565 S
C667 C218 1.656 . S
C669 C10 1.648 . S
C678 C225 1.656 . S
C680 C23 1.645 . S
C689 C205 1.646 . S
C691 C30 1.650 . S
C700 C49 1.655 . S
C702 C342 1.648 1_554 S
C711 C62 1.647 . S
C713 C316 1.649 1_554 S
C722 C75 1.656 . S
C724 C329 1.647 1_554 S
C733 C88 1.653 . S
C735 C452 1.650 . S
C744 C465 1.656 . S
C746 C95 1.646 . S
C755 C439 1.644 . S
C757 C114 1.653 . S
C766 C264 1.645 1_556 S
C768 C121 1.652 . S
C777 C238 1.650 1_556 S
C779 C140 1.653 . S
C788 C147 1.644 . S
C790 C257 1.653 1_556 S
C799 C160 1.644 . S
C801 C368 1.653 . S
C810 C387 1.650 . S
C812 C173 1.647 . S
C821 C361 1.656 . S
C823 C192 1.646 . S
C832 C283 1.654 . S
C834 C420 1.649 . S
C843 C394 1.648 . S
C845 C290 1.653 . S
C854 C309 1.650 . S
C856 C407 1.652 . S
C865 C244 1.642 . S
C867 C4 1.645 . S
C876 C251 1.641 . S
C878 C17 1.644 . S
C887 C36 1.641 . S
C889 C270 1.644 . S
C898 C43 1.642 . S
C900 C433 1.645 . S
C909 C446 1.645 . S
C911 C56 1.641 . S
C920 C459 1.644 . S
C922 C69 1.642 . S
C931 C82 1.644 . S
C933 C322 1.643 . S
C942 C101 1.641 . S
C944 C335 1.645 . S
C953 C348 1.643 . S
C955 C108 1.642 . S
C964 C127 1.642 . S
C966 C199 1.645 . S
C975 C134 1.643 . S
C977 C212 1.642 . S
C986 C231 1.645 . S
C988 C153 1.641 . S
C997 C166 1.645 . S
C999 C400 1.642 . S
C1008 C179 1.643 . S
C1010 C413 1.643 . S
C1019 C426 1.644 . S
C1021 C186 1.641 . S
C1030 C355 1.642 . S
C1032 C277 1.645 . S
C1041 C296 1.644 . S
C1043 C374 1.641 . S
C1052 C303 1.643 . S
C1054 C381 1.643 . S
C1063 C354 1.641 1_554 S
C1065 C3 1.640 . S
C1074 C16 1.634 . S
C1076 C369 1.636 1_554 S
C1085 C380 1.639 1_554 S
C1087 C31 1.637 . S
C1096 C42 1.637 . S
C1098 C161 1.635 . S
C1107 C174 1.638 . S
C1109 C55 1.636 . S
C1118 C185 1.640 . S
C1120 C68 1.640 . S
C1129 C81 1.639 . S
C1131 C276 1.637 1_556 S
C1140 C291 1.635 1_556 S
C1142 C96 1.635 . S
C1151 C107 1.634 . S
C1153 C302 1.635 1_556 S
C1162 C122 1.636 . S
C1164 C395 1.638 . S
C1173 C133 1.635 . S
C1175 C408 1.635 . S
C1184 C421 1.640 . S
C1186 C148 1.639 . S
C1195 C198 1.638 . S
C1197 C317 1.636 . S
C1206 C211 1.640 . S
C1208 C330 1.640 . S
C1217 C226 1.639 . S
C1219 C343 1.640 . S
C1228 C239 1.638 . S
C1230 C432 1.637 . S
C1239 C250 1.641 . S
C1241 C445 1.640 . S
C1250 C458 1.635 . S
C1252 C265 1.637 . S
