# Generated by pormake.
# Topology hjm, (4)-cn, num edge types: 1
# Building blocks:
#     Node 0, Type 0, BuildingBlock: QUQFOY_clean_sbu_3, # of connection points: 4
#     Node 1, Type 0, BuildingBlock: QUQFOY_clean_sbu_3, # of connection points: 4
#     Node 2, Type 0, BuildingBlock: QUQFOY_clean_sbu_3, # of connection points: 4
#     Node 3, Type 0, BuildingBlock: QUQFOY_clean_sbu_3, # of connection points: 4
#     Node 4, Type 0, BuildingBlock: QUQFOY_clean_sbu_3, # of connection points: 4
#     Node 5, Type 0, BuildingBlock: QUQFOY_clean_sbu_3, # of connection points: 4
#     Node 6, Type 0, BuildingBlock: QUQFOY_clean_sbu_3, # of connection points: 4
#     Node 7, Type 0, BuildingBlock: QUQFOY_clean_sbu_3, # of connection points: 4
#     Edge 8, Type (0, 0), BuildingBlock: XIVTED_clean_linker_0, # of connection points: 2
#     Edge 9, Type (0, 0), BuildingBlock: XIVTED_clean_linker_0, # of connection points: 2
#     Edge 10, Type (0, 0), BuildingBlock: XIVTED_clean_linker_0, # of connection points: 2
#     Edge 11, Type (0, 0), BuildingBlock: XIVTED_clean_linker_0, # of connection points: 2
#     Edge 12, Type (0, 0), BuildingBlock: XIVTED_clean_linker_0, # of connection points: 2
#     Edge 13, Type (0, 0), BuildingBlock: XIVTED_clean_linker_0, # of connection points: 2
#     Edge 14, Type (0, 0), BuildingBlock: XIVTED_clean_linker_0, # of connection points: 2
#     Edge 15, Type (0, 0), BuildingBlock: XIVTED_clean_linker_0, # of connection points: 2
#     Edge 16, Type (0, 0), BuildingBlock: XIVTED_clean_linker_0, # of connection points: 2
#     Edge 17, Type (0, 0), BuildingBlock: XIVTED_clean_linker_0, # of connection points: 2
#     Edge 18, Type (0, 0), BuildingBlock: XIVTED_clean_linker_0, # of connection points: 2
#     Edge 19, Type (0, 0), BuildingBlock: XIVTED_clean_linker_0, # of connection points: 2
#     Edge 20, Type (0, 0), BuildingBlock: XIVTED_clean_linker_0, # of connection points: 2
#     Edge 21, Type (0, 0), BuildingBlock: XIVTED_clean_linker_0, # of connection points: 2
#     Edge 22, Type (0, 0), BuildingBlock: XIVTED_clean_linker_0, # of connection points: 2
#     Edge 23, Type (0, 0), BuildingBlock: XIVTED_clean_linker_0, # of connection points: 2
# Relax obj value: 0.092
# Max RMSD: 0.137
# Mean RMSD: 0.137
data_MOF--net-hjm--node1-QUQFOY_clean_sbu_3--edge1-XIVTED_clean_linker_0
_symmetry_space_group_name_H-M    P1
_symmetry_Int_Tables_number       1
_symmetry_cell_setting            triclinic
loop_
_symmetry_equiv_pos_as_xyz
'x, y, z'
_cell_length_a     27.448941
_cell_length_b     23.633611
_cell_length_c     26.983593
_cell_angle_alpha  89.88367
_cell_angle_beta   59.577345
_cell_angle_gamma 89.996514
loop_
_atom_site_label
_atom_site_type_symbol
_atom_site_fract_x
_atom_site_fract_y
_atom_site_fract_z
_atom_type_partial_charge
C0 C 0.17765 0.36443 0.17678 0.0
O1 O 0.18947 0.4132 0.18745 0.0
Cd2 Cd 0.19978 0.4366 0.2669 0.0
O3 O 0.1723 0.32203 0.20867 0.0
Cd4 Cd 0.17946 0.3063 0.29645 0.0
C5 C 0.31457 0.35513 0.23457 0.0
O6 O 0.12126 0.38737 0.3427 0.0
O7 O 0.15951 0.35131 0.38801 0.0
O8 O 0.10801 0.23065 0.32982 0.0
C9 C 0.12365 0.38513 0.38811 0.0
O10 O 0.29413 0.4048 0.24213 0.0
C11 C 0.13432 0.19777 0.34554 0.0
O12 O 0.28269 0.31198 0.24705 0.0
O13 O 0.18286 0.21384 0.33469 0.0
C14 C 0.77861 0.28523 0.24886 0.0
O15 O 0.79177 0.33422 0.22645 0.0
Cd16 Cd 0.82998 0.35427 0.1277 0.0
O17 O 0.78627 0.24137 0.21807 0.0
Cd18 Cd 0.82476 0.21899 0.11427 0.0
C19 C 0.72032 0.29891 0.11621 0.0
O20 O 0.90148 0.28349 0.08682 0.0
O21 O 0.89586 0.25176 0.01555 0.0
O22 O 0.86526 0.1308 0.12505 0.0
C23 C 0.92357 0.27976 0.03311 0.0
O24 O 0.74783 0.3423 0.11617 0.0
C25 C 0.85094 0.10107 0.09532 0.0
O26 O 0.73803 0.24934 0.11714 0.0
O27 O 0.82118 0.12536 0.07776 0.0
C28 C 0.9347 0.70024 0.66395 0.0
O29 O 0.96254 0.72098 0.68547 0.0
Cd30 Cd 0.93705 0.80377 0.74176 0.0
O31 O 0.88931 0.72374 0.67198 0.0
Cd32 Cd 0.8292 0.80674 0.72639 0.0
C33 C 0.93641 0.89778 0.64465 0.0
O34 O 0.8399 0.78322 0.80642 0.0
O35 O 0.79838 0.86286 0.81609 0.0
O36 O 0.74735 0.74895 0.74533 0.0
C37 C 0.81292 0.82408 0.83852 0.0
O38 O 0.95953 0.88037 0.67252 0.0
C39 C 0.72065 0.78872 0.73782 0.0
O40 O 0.8896 0.87698 0.65433 0.0
O41 O 0.74529 0.83641 0.72296 0.0
C42 C 0.15532 0.60393 0.8144 0.0
O43 O 0.13599 0.62096 0.78308 0.0
Cd44 Cd 0.15538 0.70837 0.73562 0.0
O45 O 0.18838 0.63496 0.82322 0.0
Cd46 Cd 0.23424 0.73037 0.78691 0.0
C47 C 0.10678 0.79654 0.85192 0.0
O48 O 0.25549 0.70456 0.69293 0.0
O49 O 0.27215 0.79206 0.69859 0.0
O50 O 0.31487 0.69293 0.7927 0.0
C51 C 0.27771 0.75005 0.66707 0.0
O52 O 0.10047 0.77718 0.81155 0.0
C53 C 0.32977 0.74073 0.80203 0.0
O54 O 0.15069 0.78443 0.85437 0.0
O55 O 0.29817 0.78248 0.80813 0.0
C56 C 0.72661 0.82939 0.24566 0.0
O57 O 0.72624 0.8762 0.26882 0.0
Cd58 Cd 0.70409 0.88559 0.3648 0.0
O59 O 0.71428 0.78311 0.27427 0.0
Cd60 Cd 0.68479 0.75503 0.37565 0.0
C61 C 0.81066 0.80292 0.35487 0.0
O62 O 0.6188 0.83076 0.41103 0.0
O63 O 0.63112 0.79345 0.47641 0.0
O64 O 0.62476 0.67873 0.37314 0.0
C65 C 0.60171 0.8251 0.46373 0.0
O66 O 0.79052 0.85254 0.36067 0.0
C67 C 0.63687 0.64347 0.40086 0.0
O68 O 0.78164 0.7601 0.35692 0.0
O69 O 0.67372 0.65892 0.41324 0.0
C70 C 0.35398 0.75554 0.26606 0.0
O71 O 0.35782 0.80262 0.24162 0.0
Cd72 Cd 0.35686 0.81169 0.1547 0.0
O73 O 0.34963 0.70926 0.24418 0.0
Cd74 Cd 0.34705 0.67854 0.15714 0.0
C75 C 0.2265 0.75334 0.19947 0.0
O76 O 0.4228 0.74067 0.09516 0.0
O77 O 0.37891 0.70466 0.05577 0.0
O78 O 0.4027 0.59452 0.14839 0.0
C79 C 0.421 0.73247 0.04994 0.0
O80 O 0.25752 0.79739 0.18372 0.0
C81 C 0.37232 0.56054 0.13922 0.0
O82 O 0.24785 0.70476 0.19654 0.0
O83 O 0.32802 0.58082 0.14235 0.0
C84 C 0.34949 0.14041 0.68553 0.0
O85 O 0.35813 0.16452 0.72234 0.0
Cd86 Cd 0.32075 0.25379 0.76162 0.0
O87 O 0.31812 0.16348 0.66877 0.0
Cd88 Cd 0.25756 0.25047 0.69166 0.0
C89 C 0.37325 0.33364 0.63694 0.0
O90 O 0.22315 0.24209 0.79234 0.0
O91 O 0.21006 0.32434 0.76763 0.0
O92 O 0.18829 0.18979 0.68603 0.0
C93 C 0.1999 0.28981 0.80774 0.0
O94 O 0.37368 0.3206 0.68255 0.0
C95 C 0.17098 0.22726 0.66486 0.0
O96 O 0.33639 0.31252 0.62691 0.0
O97 O 0.19643 0.27458 0.65265 0.0
C98 C 0.5816 0.05855 0.79835 0.0
O99 O 0.54675 0.0819 0.78691 0.0
Cd100 Cd 0.55192 0.17472 0.75284 0.0
O101 O 0.62441 0.08565 0.79281 0.0
Cd102 Cd 0.66528 0.1827 0.75903 0.0
C103 C 0.54762 0.2486 0.86417 0.0
O104 O 0.64896 0.17482 0.68004 0.0
O105 O 0.68111 0.25591 0.68535 0.0
O106 O 0.75902 0.13985 0.72523 0.0
C107 C 0.66799 0.22239 0.6574 0.0
O108 O 0.52334 0.23528 0.83627 0.0
C109 C 0.77887 0.18268 0.73745 0.0
O110 O 0.59818 0.23314 0.84668 0.0
O111 O 0.74529 0.22369 0.76174 0.0
H112 H 0.02824 0.15545 0.38182 0.0
H113 H 0.04144 0.94302 0.60535 0.0
H114 H 0.17817 0.12517 0.39169 0.0
H115 H 0.89915 0.95003 0.57863 0.0
H116 H 0.09106 0.01107 0.52775 0.0
H117 H 0.97999 0.0799 0.45243 0.0
C118 C 0.05128 0.13238 0.39815 0.0
C119 C 0.10726 0.14687 0.38101 0.0
C120 C 0.04904 -0.00232 0.53867 0.0
C121 C 0.05206 0.06114 0.46244 0.0
C122 C 0.02046 0.95896 0.5833 0.0
C123 C 0.96589 0.94071 0.59873 0.0
C124 C 0.02293 0.01881 0.50919 0.0
C125 C 0.94113 0.96288 0.56828 0.0
C126 C 0.02363 0.08943 0.43864 0.0
C127 C 0.13498 0.11563 0.40373 0.0
N128 N 0.96978 0.00089 0.52506 0.0
N129 N 0.10696 0.07468 0.4436 0.0
H130 H 0.10521 0.84577 0.94473 0.0
H131 H 0.82848 0.02748 0.03095 0.0
H132 H 0.00674 0.83044 0.8614 0.0
H133 H 0.92945 0.04548 0.11118 0.0
H134 H 0.88367 0.94402 0.98004 0.0
H135 H 0.03355 0.90918 0.01531 0.0
C136 C 0.06846 0.85554 0.94132 0.0
C137 C 0.0625 0.83329 0.89646 0.0
C138 C 0.89334 0.96582 0.0093 0.0
C139 C 0.97999 0.90586 0.97749 0.0
C140 C 0.86162 0.01333 0.03864 0.0
C141 C 0.87503 0.04412 0.0746 0.0
C142 C 0.93915 0.94936 0.01555 0.0
C143 C 0.91802 0.02344 0.08338 0.0
C144 C 0.0274 0.89164 0.98183 0.0
C145 C 0.01356 0.84707 0.89476 0.0
N146 N 0.94912 0.97791 0.05334 0.0
N147 N 0.97446 0.88278 0.93437 0.0
H148 H 0.46952 0.36896 0.63369 0.0
H149 H 0.54797 0.60321 0.39137 0.0
H150 H 0.37589 0.38946 0.54578 0.0
H151 H 0.65219 0.56242 0.46402 0.0
H152 H 0.48716 0.52232 0.4427 0.0
H153 H 0.53861 0.43745 0.56851 0.0
C154 C 0.46346 0.38782 0.60059 0.0
C155 C 0.41645 0.37367 0.59559 0.0
C156 C 0.52376 0.53068 0.44678 0.0
C157 C 0.49582 0.45272 0.52046 0.0
C158 C 0.55863 0.57674 0.41733 0.0
C159 C 0.60504 0.58992 0.42374 0.0
C160 C 0.53522 0.49783 0.48316 0.0
C161 C 0.61672 0.55417 0.45803 0.0
C162 C 0.50318 0.42687 0.56312 0.0
C163 C 0.41136 0.3992 0.55134 0.0
N164 N 0.58176 0.51022 0.48683 0.0
N165 N 0.45028 0.43789 0.51579 0.0
H166 H 0.47499 0.51336 0.10741 0.0
H167 H 0.43566 0.27761 0.9219 0.0
H168 H 0.31552 0.47703 0.11876 0.0
H169 H 0.58968 0.2997 0.92609 0.0
H170 H 0.38787 0.34244 0.00277 0.0
H171 H 0.51412 0.42715 0.05146 0.0
C172 C 0.44784 0.48669 0.09908 0.0
C173 C 0.39216 0.50291 0.11696 0.0
C174 C 0.43196 0.33268 0.98646 0.0
C175 C 0.437 0.40454 0.05215 0.0
C176 C 0.45941 0.29581 0.94003 0.0
C177 C 0.51709 0.28389 0.91645 0.0
C178 C 0.46249 0.35847 0.00919 0.0
C179 C 0.54536 0.30812 0.9424 0.0
C180 C 0.47032 0.43753 0.06688 0.0
C181 C 0.3589 0.46651 0.1052 0.0
N182 N 0.51797 0.34484 0.98687 0.0
N183 N 0.38208 0.41945 0.07281 0.0
H184 H 0.97383 0.29252 0.9163 0.0
H185 H 0.14814 0.56412 0.91381 0.0
H186 H 0.98475 0.348 0.06272 0.0
H187 H 0.12266 0.51532 0.77451 0.0
H188 H 0.1045 0.47468 0.96262 0.0
H189 H 0.04537 0.36273 0.85699 0.0
C190 C 0.99166 0.31909 0.9358 0.0
C191 C 0.97229 0.31556 -0.00528 0.0
C192 C 0.10915 0.48338 0.92102 0.0
C193 C 0.05338 0.39623 0.92762 0.0
C194 C 0.13423 0.53421 0.89315 0.0
C195 C 0.13777 0.54748 0.8408 0.0
C196 C 0.08816 0.44578 0.89585 0.0
C197 C 0.1195 0.50723 0.81555 0.0
C198 C 0.03239 0.35923 0.90204 0.0
C199 C 0.99757 0.35026 0.01765 0.0
N200 N 0.09504 0.45846 0.84354 0.0
N201 N 0.03619 0.3898 0.98424 0.0
H202 H 0.13401 0.40799 0.48211 0.0
H203 H 0.89814 0.65064 0.59663 0.0
H204 H 0.03702 0.45167 0.40202 0.0
H205 H 0.01929 0.63106 0.65276 0.0
H206 H 0.93816 0.56719 0.53568 0.0
H207 H 0.08152 0.4794 0.55612 0.0
C208 C 0.10146 0.43231 0.48037 0.0
C209 C 0.09034 0.42461 0.43555 0.0
C210 C 0.95573 0.5811 0.56161 0.0
C211 C 0.03028 0.50576 0.51967 0.0
C212 C 0.93288 0.62866 0.5964 0.0
C213 C 0.95588 0.64827 0.62922 0.0
C214 C 1.00162 0.55291 0.55995 0.0
C215 C 1.0007 0.61791 0.62756 0.0
C216 C 0.07162 0.47303 0.52245 0.0
C217 C 0.04747 0.45686 0.43543 0.0
N218 N 0.02226 0.57189 0.59328 0.0
N219 N 0.01919 0.49622 0.47667 0.0
H220 H 0.49995 0.98777 0.80564 0.0
H221 H 0.52083 0.78227 0.0225 0.0
H222 H 0.63731 0.9951 0.84014 0.0
H223 H 0.40746 0.75534 0.95791 0.0
H224 H 0.57322 0.85091 0.94593 0.0
H225 H 0.47272 0.89649 0.85297 0.0
C226 C 0.52504 0.96981 0.8224 0.0
C227 C 0.57029 -0.00018 0.82007 0.0
C228 C 0.53753 0.8293 0.94779 0.0
C229 C 0.53993 0.89393 0.8731 0.0
C230 C 0.50751 0.79022 -0.00843 0.0
C231 C 0.45884 0.76441 -0.00263 0.0
C232 C 0.51805 0.84332 0.91031 0.0
C233 C 0.44413 0.77516 0.95556 0.0
C234 C 0.50974 0.91718 0.84889 0.0
C235 C 0.60162 0.97381 0.84176 0.0
N236 N 0.47294 0.81482 0.91442 0.0
N237 N 0.58535 0.92253 0.86815 0.0
H238 H 0.51677 0.86782 0.45222 0.0
H239 H 0.41352 0.07746 0.71649 0.0
H240 H 0.5789 0.86103 0.57043 0.0
H241 H 0.34892 0.07822 0.60003 0.0
H242 H 0.46539 0.99096 0.67156 0.0
H243 H 0.44551 0.93599 0.51427 0.0
C244 C 0.51502 0.88049 0.49167 0.0
C245 C 0.5543 0.85972 0.50585 0.0
C246 C 0.43946 0.00975 0.65617 0.0
C247 C 0.47334 0.93842 0.57678 0.0
C248 C 0.40992 0.0593 0.68166 0.0
C249 C 0.37742 0.08568 0.66139 0.0
C250 C 0.43681 0.98649 0.60985 0.0
C251 C 0.37387 0.05974 0.61666 0.0
C252 C 0.47432 0.91936 0.52713 0.0
C253 C 0.54959 0.87655 0.55784 0.0
N254 N 0.40369 0.01187 0.59203 0.0
N255 N 0.51033 0.91578 0.59113 0.0
H256 H 0.35344 0.66353 0.32803 0.0
H257 H 0.30395 0.84559 0.59924 0.0
H258 H 0.35226 0.84632 0.3299 0.0
H259 H 0.30446 0.66305 0.59293 0.0
H260 H 0.33255 0.84812 0.49696 0.0
H261 H 0.34579 0.66364 0.42196 0.0
C262 C 0.3518 0.7037 0.34807 0.0
C263 C 0.35287 0.75493 0.32132 0.0
C264 C 0.32681 0.8076 0.51802 0.0
C265 C 0.34387 0.75549 0.42912 0.0
C266 C 0.31063 0.80619 0.57622 0.0
C267 C 0.3009 0.75408 0.60464 0.0
C268 C 0.33329 0.75652 0.48857 0.0
C269 C 0.31054 0.70421 0.5729 0.0
C270 C 0.34753 0.7038 0.40173 0.0
C271 C 0.35116 0.80576 0.34915 0.0
N272 N 0.32572 0.70669 0.5168 0.0
N273 N 0.34624 0.80476 0.40181 0.0
H274 H 0.82867 0.73967 0.89713 0.0
H275 H 0.74097 0.92122 0.17779 0.0
H276 H 0.77157 0.91267 0.91501 0.0
H277 H 0.74449 0.73842 0.17545 0.0
H278 H 0.76309 0.92131 0.07814 0.0
H279 H 0.80923 0.74141 -0.00435 0.0
C280 C 0.8121 0.77817 0.92181 0.0
C281 C 0.80154 0.82614 0.89797 0.0
C282 C 0.75892 0.88125 0.09953 0.0
C283 C 0.77932 0.82827 0.01084 0.0
C284 C 0.74645 0.88103 0.15637 0.0
C285 C 0.74068 0.82959 0.18513 0.0
C286 C 0.76627 0.82974 0.07101 0.0
C287 C 0.74832 0.77898 0.15507 0.0
C288 C 0.80085 0.77898 0.97812 0.0
C289 C 0.78007 0.87475 0.93193 0.0
N290 N 0.76089 0.78035 0.09951 0.0
N291 N 0.76976 0.87466 0.98682 0.0
H292 H 0.77031 0.36701 0.32432 0.0
H293 H 0.63868 0.15764 0.59356 0.0
H294 H 0.73421 0.19053 0.31575 0.0
H295 H 0.71388 0.31846 0.59257 0.0
H296 H 0.65867 0.17593 0.49628 0.0
H297 H 0.73585 0.35585 0.42676 0.0
C298 C 0.75488 0.32595 0.34398 0.0
C299 C 0.75555 0.27943 0.31128 0.0
C300 C 0.67059 0.20737 0.51736 0.0
C301 C 0.71596 0.26668 0.42844 0.0
C302 C 0.6591 0.19707 0.57297 0.0
C303 C 0.67531 0.23638 0.60086 0.0
C304 C 0.69842 0.25737 0.48934 0.0
C305 C 0.70108 0.28692 0.57236 0.0
C306 C 0.73533 0.31969 0.40243 0.0
C307 C 0.73489 0.22738 0.33914 0.0
N308 N 0.71223 0.29587 0.5178 0.0
N309 N 0.71603 0.2224 0.39616 0.0
H310 H 0.19055 0.44478 0.098 0.0
H311 H 0.13952 0.22679 0.90369 0.0
H312 H 0.14601 0.26905 0.14214 0.0
H313 H 0.21241 0.39253 0.84623 0.0
H314 H 0.12127 0.24909 6e-05 0.0
H315 H 0.18059 0.43252 0.01392 0.0
C316 C 0.17847 0.40359 0.09019 0.0
C317 C 0.16983 0.35759 0.12685 0.0
C318 C 0.14052 0.28091 0.96664 0.0
C319 C 0.15817 0.34354 0.03063 0.0
C320 C 0.15062 0.26833 0.91187 0.0
C321 C 0.17774 0.30785 0.8673 0.0
C322 C 0.15855 0.33305 0.97647 0.0
C323 C 0.19134 0.36102 0.87968 0.0
C324 C 0.17268 0.39675 0.04219 0.0
C325 C 0.15375 0.30548 0.11473 0.0
N326 N 0.18233 0.37184 0.9331 0.0
N327 N 0.1488 0.29978 0.06739 0.0
H328 H 0.39204 0.43551 0.22117 0.0
H329 H 0.64674 0.21711 0.12115 0.0
H330 H 0.37706 0.2577 0.19496 0.0
H331 H 0.66499 0.39826 0.12541 0.0
H332 H 0.54925 0.23088 0.14387 0.0
H333 H 0.49286 0.42244 0.18377 0.0
C334 C 0.40997 0.3937 0.20735 0.0
C335 C 0.37595 0.34764 0.2113 0.0
C336 C 0.57481 0.26762 0.13926 0.0
C337 C 0.49166 0.33227 0.16847 0.0
C338 C 0.63057 0.25981 0.12613 0.0
C339 C 0.6641 0.30656 0.12186 0.0
C340 C 0.55225 0.32252 0.14861 0.0
C341 C 0.64077 0.36088 0.12862 0.0
C342 C 0.46764 0.38626 0.18594 0.0
C343 C 0.40161 0.2944 0.19293 0.0
N344 N 0.58621 0.36729 0.14221 0.0
N345 N 0.45789 0.28814 0.17249 0.0
H346 H 0.65592 0.69262 0.7742 0.0
H347 H 0.38796 0.83917 0.78445 0.0
H348 H 0.65317 0.86627 0.72578 0.0
H349 H 0.39695 0.66032 0.81125 0.0
H350 H 0.48324 0.85061 0.76816 0.0
H351 H 0.55918 0.68088 0.79386 0.0
C352 C 0.63511 0.7282 0.76737 0.0
C353 C 0.66284 0.78043 0.74798 0.0
C354 C 0.46408 0.80902 0.77871 0.0
C355 C 0.55205 0.76728 0.77054 0.0
C356 C 0.40954 0.80245 0.78817 0.0
C357 C 0.38441 0.7487 0.79946 0.0
C358 C 0.4934 0.76174 0.78183 0.0
C359 C 0.41478 0.70251 0.80275 0.0
C360 C 0.57985 0.72146 0.77868 0.0
C361 C 0.63363 0.82513 0.74029 0.0
N362 N 0.46767 0.71011 0.79413 0.0
N363 N 0.5799 0.81749 0.75151 0.0
H364 H 0.14655 0.66921 0.2345 0.0
H365 H 0.88798 0.88521 0.33815 0.0
H366 H 0.16523 0.85095 0.22052 0.0
H367 H 0.86999 0.70388 0.33551 0.0
H368 H 0.9886 0.8728 0.30253 0.0
H369 H 0.04447 0.68056 0.27719 0.0
C370 C 0.12929 0.71149 0.24025 0.0
C371 C 0.16471 0.75919 0.22369 0.0
C372 C 0.96261 0.83568 0.31002 0.0
C373 C 0.0477 0.77244 0.273 0.0
C374 C 0.90498 0.8427 0.33068 0.0
C375 C 0.87032 0.79552 0.33967 0.0
C376 C 0.98598 0.78107 0.29822 0.0
C377 C 0.895 0.74151 0.32911 0.0
C378 C 0.07095 0.71792 0.26473 0.0
C379 C 0.13976 0.8129 0.23238 0.0
N380 N 0.95132 0.73579 0.3087 0.0
N381 N 0.0829 0.81803 0.25645 0.0
H382 H 0.10956 0.30675 0.64636 0.0
H383 H 0.85788 0.09748 0.70109 0.0
H384 H 0.11369 0.12817 0.67788 0.0
H385 H 0.83678 0.27663 0.73656 0.0
H386 H 0.95772 0.10644 0.67352 0.0
H387 H 0.01599 0.29435 0.65774 0.0
C388 C 0.09126 0.26473 0.65463 0.0
C389 C 0.11926 0.2185 0.66169 0.0
C390 C 0.93106 0.14366 0.68736 0.0
C391 C 0.01207 0.20415 0.67511 0.0
C392 C 0.87419 0.1386 0.70313 0.0
C393 C 0.83886 0.1863 0.72168 0.0
C394 C 0.95277 0.19693 0.68926 0.0
C395 C 0.86228 0.23863 0.72312 0.0
C396 C 0.03767 0.25779 0.66156 0.0
C397 C 0.09338 0.16503 0.67251 0.0
N398 N 0.91772 0.24256 0.70699 0.0
N399 N 0.04105 0.15933 0.67921 0.0
loop_
_geom_bond_atom_site_label_1
_geom_bond_atom_site_label_2
_geom_bond_distance
_geom_bond_site_symmetry_2
_ccdc_geom_bond_type
C0 O1 1.306 . S
C0 O3 1.160 . S
O1 C0 1.306 . S
O1 Cd2 2.228 . S
Cd2 O1 2.228 . S
Cd2 O6 2.273 . S
Cd2 O10 2.277 . S
O3 C0 1.160 . S
O3 Cd4 2.203 . S
Cd4 O3 2.203 . S
Cd4 O6 2.411 . S
Cd4 O7 2.333 . S
Cd4 O8 2.352 . S
Cd4 O12 2.277 . S
Cd4 O13 2.356 . S
C5 O10 1.209 . S
C5 O12 1.226 . S
O6 Cd2 2.273 . S
O6 Cd4 2.411 . S
O6 C9 1.320 . S
O7 Cd4 2.333 . S
O7 C9 1.214 . S
O8 Cd4 2.352 . S
O8 C11 1.258 . S
C9 O6 1.320 . S
C9 O7 1.214 . S
O10 Cd2 2.277 . S
O10 C5 1.209 . S
C11 O8 1.258 . S
C11 O13 1.282 . S
O12 Cd4 2.277 . S
O12 C5 1.226 . S
O13 Cd4 2.356 . S
O13 C11 1.282 . S
C14 O15 1.306 . S
C14 O17 1.160 . S
O15 C14 1.306 . S
O15 Cd16 2.228 . S
Cd16 O15 2.228 . S
Cd16 O20 2.273 . S
Cd16 O24 2.277 . S
O17 C14 1.160 . S
O17 Cd18 2.203 . S
Cd18 O17 2.203 . S
Cd18 O20 2.411 . S
Cd18 O21 2.333 . S
Cd18 O22 2.352 . S
Cd18 O26 2.277 . S
Cd18 O27 2.356 . S
C19 O24 1.209 . S
C19 O26 1.226 . S
O20 Cd16 2.273 . S
O20 Cd18 2.411 . S
O20 C23 1.320 . S
O21 Cd18 2.333 . S
O21 C23 1.214 . S
O22 Cd18 2.352 . S
O22 C25 1.258 . S
C23 O20 1.320 . S
C23 O21 1.214 . S
O24 Cd16 2.277 . S
O24 C19 1.209 . S
C25 O22 1.258 . S
C25 O27 1.282 . S
O26 Cd18 2.277 . S
O26 C19 1.226 . S
O27 Cd18 2.356 . S
O27 C25 1.282 . S
C28 O29 1.306 . S
C28 O31 1.160 . S
O29 C28 1.306 . S
O29 Cd30 2.228 . S
Cd30 O29 2.228 . S
Cd30 O34 2.273 . S
Cd30 O38 2.277 . S
O31 C28 1.160 . S
O31 Cd32 2.203 . S
Cd32 O31 2.203 . S
Cd32 O34 2.411 . S
Cd32 O35 2.333 . S
Cd32 O36 2.352 . S
Cd32 O40 2.277 . S
Cd32 O41 2.356 . S
C33 O38 1.209 . S
C33 O40 1.226 . S
O34 Cd30 2.273 . S
O34 Cd32 2.411 . S
O34 C37 1.320 . S
O35 Cd32 2.333 . S
O35 C37 1.214 . S
O36 Cd32 2.352 . S
O36 C39 1.258 . S
C37 O34 1.320 . S
C37 O35 1.214 . S
O38 Cd30 2.277 . S
O38 C33 1.209 . S
C39 O36 1.258 . S
C39 O41 1.282 . S
O40 Cd32 2.277 . S
O40 C33 1.226 . S
O41 Cd32 2.356 . S
O41 C39 1.282 . S
C42 O43 1.306 . S
C42 O45 1.160 . S
O43 C42 1.306 . S
O43 Cd44 2.228 . S
Cd44 O43 2.228 . S
Cd44 O48 2.273 . S
Cd44 O52 2.277 . S
O45 C42 1.160 . S
O45 Cd46 2.203 . S
Cd46 O45 2.203 . S
Cd46 O48 2.411 . S
Cd46 O49 2.333 . S
Cd46 O50 2.352 . S
Cd46 O54 2.277 . S
Cd46 O55 2.356 . S
C47 O52 1.209 . S
C47 O54 1.226 . S
O48 Cd44 2.273 . S
O48 Cd46 2.411 . S
O48 C51 1.320 . S
O49 Cd46 2.333 . S
O49 C51 1.214 . S
O50 Cd46 2.352 . S
O50 C53 1.258 . S
C51 O48 1.320 . S
C51 O49 1.214 . S
O52 Cd44 2.277 . S
O52 C47 1.209 . S
C53 O50 1.258 . S
C53 O55 1.282 . S
O54 Cd46 2.277 . S
O54 C47 1.226 . S
O55 Cd46 2.356 . S
O55 C53 1.282 . S
C56 O57 1.306 . S
C56 O59 1.160 . S
O57 C56 1.306 . S
O57 Cd58 2.228 . S
Cd58 O57 2.228 . S
Cd58 O62 2.273 . S
Cd58 O66 2.277 . S
O59 C56 1.160 . S
O59 Cd60 2.203 . S
Cd60 O59 2.203 . S
Cd60 O62 2.411 . S
Cd60 O63 2.333 . S
Cd60 O64 2.352 . S
Cd60 O68 2.277 . S
Cd60 O69 2.356 . S
C61 O66 1.209 . S
C61 O68 1.226 . S
O62 Cd58 2.273 . S
O62 Cd60 2.411 . S
O62 C65 1.320 . S
O63 Cd60 2.333 . S
O63 C65 1.214 . S
O64 Cd60 2.352 . S
O64 C67 1.258 . S
C65 O62 1.320 . S
C65 O63 1.214 . S
O66 Cd58 2.277 . S
O66 C61 1.209 . S
C67 O64 1.258 . S
C67 O69 1.282 . S
O68 Cd60 2.277 . S
O68 C61 1.226 . S
O69 Cd60 2.356 . S
O69 C67 1.282 . S
C70 O71 1.306 . S
C70 O73 1.160 . S
O71 C70 1.306 . S
O71 Cd72 2.228 . S
Cd72 O71 2.228 . S
Cd72 O76 2.273 . S
Cd72 O80 2.277 . S
O73 C70 1.160 . S
O73 Cd74 2.203 . S
Cd74 O73 2.203 . S
Cd74 O76 2.411 . S
Cd74 O77 2.333 . S
Cd74 O78 2.352 . S
Cd74 O82 2.277 . S
Cd74 O83 2.356 . S
C75 O80 1.209 . S
C75 O82 1.226 . S
O76 Cd72 2.273 . S
O76 Cd74 2.411 . S
O76 C79 1.320 . S
O77 Cd74 2.333 . S
O77 C79 1.214 . S
O78 Cd74 2.352 . S
O78 C81 1.258 . S
C79 O76 1.320 . S
C79 O77 1.214 . S
O80 Cd72 2.277 . S
O80 C75 1.209 . S
C81 O78 1.258 . S
C81 O83 1.282 . S
O82 Cd74 2.277 . S
O82 C75 1.226 . S
O83 Cd74 2.356 . S
O83 C81 1.282 . S
C84 O85 1.306 . S
C84 O87 1.160 . S
O85 C84 1.306 . S
O85 Cd86 2.228 . S
Cd86 O85 2.228 . S
Cd86 O90 2.273 . S
Cd86 O94 2.277 . S
O87 C84 1.160 . S
O87 Cd88 2.203 . S
Cd88 O87 2.203 . S
Cd88 O90 2.411 . S
Cd88 O91 2.333 . S
Cd88 O92 2.352 . S
Cd88 O96 2.277 . S
Cd88 O97 2.356 . S
C89 O94 1.209 . S
C89 O96 1.226 . S
O90 Cd86 2.273 . S
O90 Cd88 2.411 . S
O90 C93 1.320 . S
O91 Cd88 2.333 . S
O91 C93 1.214 . S
O92 Cd88 2.352 . S
O92 C95 1.258 . S
C93 O90 1.320 . S
C93 O91 1.214 . S
O94 Cd86 2.277 . S
O94 C89 1.209 . S
C95 O92 1.258 . S
C95 O97 1.282 . S
O96 Cd88 2.277 . S
O96 C89 1.226 . S
O97 Cd88 2.356 . S
O97 C95 1.282 . S
C98 O99 1.306 . S
C98 O101 1.160 . S
O99 C98 1.306 . S
O99 Cd100 2.228 . S
Cd100 O99 2.228 . S
Cd100 O104 2.273 . S
Cd100 O108 2.277 . S
O101 C98 1.160 . S
O101 Cd102 2.203 . S
Cd102 O101 2.203 . S
Cd102 O104 2.411 . S
Cd102 O105 2.333 . S
Cd102 O106 2.352 . S
Cd102 O110 2.277 . S
Cd102 O111 2.356 . S
C103 O108 1.209 . S
C103 O110 1.226 . S
O104 Cd100 2.273 . S
O104 Cd102 2.411 . S
O104 C107 1.320 . S
O105 Cd102 2.333 . S
O105 C107 1.214 . S
O106 Cd102 2.352 . S
O106 C109 1.258 . S
C107 O104 1.320 . S
C107 O105 1.214 . S
O108 Cd100 2.277 . S
O108 C103 1.209 . S
C109 O106 1.258 . S
C109 O111 1.282 . S
O110 Cd102 2.277 . S
O110 C103 1.226 . S
O111 Cd102 2.356 . S
O111 C109 1.282 . S
H112 C118 0.930 . S
H113 C122 0.930 . S
H114 C127 0.929 . S
H115 C125 0.929 . S
H116 C120 0.929 1_545 S
H117 C126 0.929 1_565 S
C118 H112 0.930 . S
C118 C119 1.367 . S
C118 C126 1.378 . S
C119 C118 1.367 . S
C119 C127 1.433 . S
C120 H116 0.929 1_565 S
C120 C122 1.378 . S
C120 C124 1.350 . S
C121 C124 1.463 1_445 S
C121 C126 1.350 . S
C121 N129 1.427 . S
C122 H113 0.930 . S
C122 C120 1.378 . S
C122 C123 1.367 . S
C123 C122 1.367 . S
C123 C125 1.433 . S
C124 C120 1.350 . S
C124 C121 1.463 1_665 S
C124 N128 1.427 . S
C125 H115 0.929 . S
C125 C123 1.433 . S
C125 N128 1.384 . S
C126 H117 0.929 1_545 S
C126 C118 1.378 . S
C126 C121 1.350 . S
C127 H114 0.929 . S
C127 C119 1.433 . S
C127 N129 1.384 . S
N128 C124 1.427 . S
N128 C125 1.384 . S
N129 C121 1.427 . S
N129 C127 1.384 . S
H130 C136 0.930 . S
H131 C140 0.930 . S
H132 C145 0.929 . S
H133 C143 0.929 . S
H134 C138 0.929 . S
H135 C144 0.929 1_554 S
C136 H130 0.930 . S
C136 C137 1.367 . S
C136 C144 1.378 . S
C137 C136 1.367 . S
C137 C145 1.433 . S
C138 H134 0.929 . S
C138 C140 1.378 1_556 S
C138 C142 1.350 1_556 S
C139 C142 1.463 1_466 S
C139 C144 1.350 . S
C139 N147 1.427 . S
C140 H131 0.930 . S
C140 C138 1.378 1_554 S
C140 C141 1.367 . S
C141 C140 1.367 . S
C141 C143 1.433 . S
C142 C138 1.350 1_554 S
C142 C139 1.463 1_644 S
C142 N146 1.427 . S
C143 H133 0.929 . S
C143 C141 1.433 . S
C143 N146 1.384 . S
C144 H135 0.929 1_556 S
C144 C136 1.378 . S
C144 C139 1.350 . S
C145 H132 0.929 . S
C145 C137 1.433 . S
C145 N147 1.384 . S
N146 C142 1.427 . S
N146 C143 1.384 . S
N147 C139 1.427 . S
N147 C145 1.384 . S
H148 C154 0.930 . S
H149 C158 0.930 . S
H150 C163 0.929 . S
H151 C161 0.929 . S
H152 C156 0.929 . S
H153 C162 0.929 . S
C154 H148 0.930 . S
C154 C155 1.367 . S
C154 C162 1.378 . S
C155 C154 1.367 . S
C155 C163 1.433 . S
C156 H152 0.929 . S
C156 C158 1.378 . S
C156 C160 1.350 . S
C157 C160 1.463 . S
C157 C162 1.350 . S
C157 N165 1.427 . S
C158 H149 0.930 . S
C158 C156 1.378 . S
C158 C159 1.367 . S
C159 C158 1.367 . S
C159 C161 1.433 . S
C160 C156 1.350 . S
C160 C157 1.463 . S
C160 N164 1.427 . S
C161 H151 0.929 . S
C161 C159 1.433 . S
C161 N164 1.384 . S
C162 H153 0.929 . S
C162 C154 1.378 . S
C162 C157 1.350 . S
C163 H150 0.929 . S
C163 C155 1.433 . S
C163 N165 1.384 . S
N164 C160 1.427 . S
N164 C161 1.384 . S
N165 C157 1.427 . S
N165 C163 1.384 . S
H166 C172 0.930 . S
H167 C176 0.930 . S
H168 C181 0.929 . S
H169 C179 0.929 . S
H170 C174 0.929 . S
H171 C180 0.929 . S
C172 H166 0.930 . S
C172 C173 1.367 . S
C172 C180 1.378 . S
C173 C172 1.367 . S
C173 C181 1.433 . S
C174 H170 0.929 . S
C174 C176 1.378 . S
C174 C178 1.350 . S
C175 C178 1.463 1_554 S
C175 C180 1.350 . S
C175 N183 1.427 . S
C176 H167 0.930 . S
C176 C174 1.378 . S
C176 C177 1.367 . S
C177 C176 1.367 . S
C177 C179 1.433 . S
C178 C174 1.350 . S
C178 C175 1.463 1_556 S
C178 N182 1.427 . S
C179 H169 0.929 . S
C179 C177 1.433 . S
C179 N182 1.384 . S
C180 H171 0.929 . S
C180 C172 1.378 . S
C180 C175 1.350 . S
C181 H168 0.929 . S
C181 C173 1.433 . S
C181 N183 1.384 . S
N182 C178 1.427 . S
N182 C179 1.384 . S
N183 C175 1.427 . S
N183 C181 1.384 . S
H184 C190 0.930 . S
H185 C194 0.930 . S
H186 C199 0.929 . S
H187 C197 0.929 . S
H188 C192 0.929 . S
H189 C198 0.929 . S
C190 H184 0.930 . S
C190 C191 1.367 . S
C190 C198 1.378 . S
C191 C190 1.367 . S
C191 C199 1.433 . S
C192 H188 0.929 . S
C192 C194 1.378 . S
C192 C196 1.350 . S
C193 C196 1.463 1_654 S
C193 C198 1.350 . S
C193 N201 1.427 . S
C194 H185 0.930 . S
C194 C192 1.378 . S
C194 C195 1.367 . S
C195 C194 1.367 . S
C195 C197 1.433 . S
C196 C192 1.350 . S
C196 C193 1.463 1_456 S
C196 N200 1.427 1_455 S
C197 H187 0.929 . S
C197 C195 1.433 . S
C197 N200 1.384 1_455 S
C198 H189 0.929 . S
C198 C190 1.378 . S
C198 C193 1.350 . S
C199 H186 0.929 . S
C199 C191 1.433 . S
C199 N201 1.384 . S
N200 C196 1.427 1_655 S
N200 C197 1.384 1_655 S
N201 C193 1.427 . S
N201 C199 1.384 . S
H202 C208 0.930 . S
H203 C212 0.930 . S
H204 C217 0.929 . S
H205 C215 0.929 . S
H206 C210 0.929 . S
H207 C216 0.929 . S
C208 H202 0.930 . S
C208 C209 1.367 . S
C208 C216 1.378 . S
C209 C208 1.367 . S
C209 C217 1.433 . S
C210 H206 0.929 . S
C210 C212 1.378 . S
C210 C214 1.350 . S
C211 C214 1.463 1_455 S
C211 C216 1.350 . S
C211 N219 1.427 . S
C212 H203 0.930 . S
C212 C210 1.378 . S
C212 C213 1.367 . S
C213 C212 1.367 . S
C213 C215 1.433 . S
C214 C210 1.350 . S
C214 C211 1.463 1_655 S
C214 N218 1.427 . S
C215 H205 0.929 . S
C215 C213 1.433 . S
C215 N218 1.384 . S
C216 H207 0.929 . S
C216 C208 1.378 . S
C216 C211 1.350 . S
C217 H204 0.929 . S
C217 C209 1.433 . S
C217 N219 1.384 . S
N218 C214 1.427 . S
N218 C215 1.384 . S
N219 C211 1.427 . S
N219 C217 1.384 . S
H220 C226 0.930 . S
H221 C230 0.930 . S
H222 C235 0.929 . S
H223 C233 0.929 . S
H224 C228 0.929 1_556 S
H225 C234 0.929 1_554 S
C226 H220 0.930 . S
C226 C227 1.367 . S
C226 C234 1.378 . S
C227 C226 1.367 . S
C227 C235 1.433 . S
C228 H224 0.929 1_554 S
C228 C230 1.378 . S
C228 C232 1.350 . S
C229 C232 1.463 1_546 S
C229 C234 1.350 . S
C229 N237 1.427 . S
C230 H221 0.930 . S
C230 C228 1.378 . S
C230 C231 1.367 . S
C231 C230 1.367 . S
C231 C233 1.433 . S
C232 C228 1.350 . S
C232 C229 1.463 1_564 S
C232 N236 1.427 . S
C233 H223 0.929 . S
C233 C231 1.433 . S
C233 N236 1.384 . S
C234 H225 0.929 1_556 S
C234 C226 1.378 . S
C234 C229 1.350 . S
C235 H222 0.929 . S
C235 C227 1.433 . S
C235 N237 1.384 . S
N236 C232 1.427 . S
N236 C233 1.384 . S
N237 C229 1.427 . S
N237 C235 1.384 . S
H238 C244 0.930 . S
H239 C248 0.930 . S
H240 C253 0.929 . S
H241 C251 0.929 . S
H242 C246 0.929 . S
H243 C252 0.929 . S
C244 H238 0.930 . S
C244 C245 1.367 . S
C244 C252 1.378 . S
C245 C244 1.367 . S
C245 C253 1.433 . S
C246 H242 0.929 . S
C246 C248 1.378 . S
C246 C250 1.350 . S
C247 C250 1.463 1_565 S
C247 C252 1.350 . S
C247 N255 1.427 . S
C248 H239 0.930 . S
C248 C246 1.378 . S
C248 C249 1.367 . S
C249 C248 1.367 . S
C249 C251 1.433 . S
C250 C246 1.350 . S
C250 C247 1.463 1_545 S
C250 N254 1.427 . S
C251 H241 0.929 . S
C251 C249 1.433 . S
C251 N254 1.384 . S
C252 H243 0.929 . S
C252 C244 1.378 . S
C252 C247 1.350 . S
C253 H240 0.929 . S
C253 C245 1.433 . S
C253 N255 1.384 . S
N254 C250 1.427 . S
N254 C251 1.384 . S
N255 C247 1.427 . S
N255 C253 1.384 . S
H256 C262 0.930 . S
H257 C266 0.930 . S
H258 C271 0.929 . S
H259 C269 0.929 . S
H260 C264 0.929 . S
H261 C270 0.929 . S
C262 H256 0.930 . S
C262 C263 1.367 . S
C262 C270 1.378 . S
C263 C262 1.367 . S
C263 C271 1.433 . S
C264 H260 0.929 . S
C264 C266 1.378 . S
C264 C268 1.350 . S
C265 C268 1.463 . S
C265 C270 1.350 . S
C265 N273 1.427 . S
C266 H257 0.930 . S
C266 C264 1.378 . S
C266 C267 1.367 . S
C267 C266 1.367 . S
C267 C269 1.433 . S
C268 C264 1.350 . S
C268 C265 1.463 . S
C268 N272 1.427 . S
C269 H259 0.929 . S
C269 C267 1.433 . S
C269 N272 1.384 . S
C270 H261 0.929 . S
C270 C262 1.378 . S
C270 C265 1.350 . S
C271 H258 0.929 . S
C271 C263 1.433 . S
C271 N273 1.384 . S
N272 C268 1.427 . S
N272 C269 1.384 . S
N273 C265 1.427 . S
N273 C271 1.384 . S
H274 C280 0.930 . S
H275 C284 0.930 . S
H276 C289 0.929 . S
H277 C287 0.929 . S
H278 C282 0.929 . S
H279 C288 0.929 . S
C280 H274 0.930 . S
C280 C281 1.367 . S
C280 C288 1.378 . S
C281 C280 1.367 . S
C281 C289 1.433 . S
C282 H278 0.929 . S
C282 C284 1.378 . S
C282 C286 1.350 . S
C283 C286 1.463 1_556 S
C283 C288 1.350 . S
C283 N291 1.427 . S
C284 H275 0.930 . S
C284 C282 1.378 . S
C284 C285 1.367 . S
C285 C284 1.367 . S
C285 C287 1.433 . S
C286 C282 1.350 . S
C286 C283 1.463 1_554 S
C286 N290 1.427 . S
C287 H277 0.929 . S
C287 C285 1.433 . S
C287 N290 1.384 . S
C288 H279 0.929 . S
C288 C280 1.378 . S
C288 C283 1.350 . S
C289 H276 0.929 . S
C289 C281 1.433 . S
C289 N291 1.384 . S
N290 C286 1.427 . S
N290 C287 1.384 . S
N291 C283 1.427 . S
N291 C289 1.384 . S
H292 C298 0.930 . S
H293 C302 0.930 . S
H294 C307 0.929 . S
H295 C305 0.929 . S
H296 C300 0.929 . S
H297 C306 0.929 . S
C298 H292 0.930 . S
C298 C299 1.367 . S
C298 C306 1.378 . S
C299 C298 1.367 . S
C299 C307 1.433 . S
C300 H296 0.929 . S
C300 C302 1.378 . S
C300 C304 1.350 . S
C301 C304 1.463 . S
C301 C306 1.350 . S
C301 N309 1.427 . S
C302 H293 0.930 . S
C302 C300 1.378 . S
C302 C303 1.367 . S
C303 C302 1.367 . S
C303 C305 1.433 . S
C304 C300 1.350 . S
C304 C301 1.463 . S
C304 N308 1.427 . S
C305 H295 0.929 . S
C305 C303 1.433 . S
C305 N308 1.384 . S
C306 H297 0.929 . S
C306 C298 1.378 . S
C306 C301 1.350 . S
C307 H294 0.929 . S
C307 C299 1.433 . S
C307 N309 1.384 . S
N308 C304 1.427 . S
N308 C305 1.384 . S
N309 C301 1.427 . S
N309 C307 1.384 . S
H310 C316 0.930 . S
H311 C320 0.930 . S
H312 C325 0.929 . S
H313 C323 0.929 . S
H314 C318 0.929 . S
H315 C324 0.929 . S
C316 H310 0.930 . S
C316 C317 1.367 . S
C316 C324 1.378 . S
C317 C316 1.367 . S
C317 C325 1.433 . S
C318 H314 0.929 . S
C318 C320 1.378 . S
C318 C322 1.350 . S
C319 C322 1.463 1_554 S
C319 C324 1.350 . S
C319 N327 1.427 . S
C320 H311 0.930 . S
C320 C318 1.378 . S
C320 C321 1.367 . S
C321 C320 1.367 . S
C321 C323 1.433 . S
C322 C318 1.350 . S
C322 C319 1.463 1_556 S
C322 N326 1.427 . S
C323 H313 0.929 . S
C323 C321 1.433 . S
C323 N326 1.384 . S
C324 H315 0.929 . S
C324 C316 1.378 . S
C324 C319 1.350 . S
C325 H312 0.929 . S
C325 C317 1.433 . S
C325 N327 1.384 . S
N326 C322 1.427 . S
N326 C323 1.384 . S
N327 C319 1.427 . S
N327 C325 1.384 . S
H328 C334 0.930 . S
H329 C338 0.930 . S
H330 C343 0.929 . S
H331 C341 0.929 . S
H332 C336 0.929 . S
H333 C342 0.929 . S
C334 H328 0.930 . S
C334 C335 1.367 . S
C334 C342 1.378 . S
C335 C334 1.367 . S
C335 C343 1.433 . S
C336 H332 0.929 . S
C336 C338 1.378 . S
C336 C340 1.350 . S
C337 C340 1.463 . S
C337 C342 1.350 . S
C337 N345 1.427 . S
C338 H329 0.930 . S
C338 C336 1.378 . S
C338 C339 1.367 . S
C339 C338 1.367 . S
C339 C341 1.433 . S
C340 C336 1.350 . S
C340 C337 1.463 . S
C340 N344 1.427 . S
C341 H331 0.929 . S
C341 C339 1.433 . S
C341 N344 1.384 . S
C342 H333 0.929 . S
C342 C334 1.378 . S
C342 C337 1.350 . S
C343 H330 0.929 . S
C343 C335 1.433 . S
C343 N345 1.384 . S
N344 C340 1.427 . S
N344 C341 1.384 . S
N345 C337 1.427 . S
N345 C343 1.384 . S
H346 C352 0.930 . S
H347 C356 0.930 . S
H348 C361 0.929 . S
H349 C359 0.929 . S
H350 C354 0.929 . S
H351 C360 0.929 . S
C352 H346 0.930 . S
C352 C353 1.367 . S
C352 C360 1.378 . S
C353 C352 1.367 . S
C353 C361 1.433 . S
C354 H350 0.929 . S
C354 C356 1.378 . S
C354 C358 1.350 . S
C355 C358 1.463 . S
C355 C360 1.350 . S
C355 N363 1.427 . S
C356 H347 0.930 . S
C356 C354 1.378 . S
C356 C357 1.367 . S
C357 C356 1.367 . S
C357 C359 1.433 . S
C358 C354 1.350 . S
C358 C355 1.463 . S
C358 N362 1.427 . S
C359 H349 0.929 . S
C359 C357 1.433 . S
C359 N362 1.384 . S
C360 H351 0.929 . S
C360 C352 1.378 . S
C360 C355 1.350 . S
C361 H348 0.929 . S
C361 C353 1.433 . S
C361 N363 1.384 . S
N362 C358 1.427 . S
N362 C359 1.384 . S
N363 C355 1.427 . S
N363 C361 1.384 . S
H364 C370 0.930 . S
H365 C374 0.930 . S
H366 C379 0.929 . S
H367 C377 0.929 . S
H368 C372 0.929 . S
H369 C378 0.929 . S
C370 H364 0.930 . S
C370 C371 1.367 . S
C370 C378 1.378 . S
C371 C370 1.367 . S
C371 C379 1.433 . S
C372 H368 0.929 . S
C372 C374 1.378 . S
C372 C376 1.350 . S
C373 C376 1.463 1_455 S
C373 C378 1.350 . S
C373 N381 1.427 . S
C374 H365 0.930 . S
C374 C372 1.378 . S
C374 C375 1.367 . S
C375 C374 1.367 . S
C375 C377 1.433 . S
C376 C372 1.350 . S
C376 C373 1.463 1_655 S
C376 N380 1.427 . S
C377 H367 0.929 . S
C377 C375 1.433 . S
C377 N380 1.384 . S
C378 H369 0.929 . S
C378 C370 1.378 . S
C378 C373 1.350 . S
C379 H366 0.929 . S
C379 C371 1.433 . S
C379 N381 1.384 . S
N380 C376 1.427 . S
N380 C377 1.384 . S
N381 C373 1.427 . S
N381 C379 1.384 . S
H382 C388 0.930 . S
H383 C392 0.930 . S
H384 C397 0.929 . S
H385 C395 0.929 . S
H386 C390 0.929 . S
H387 C396 0.929 . S
C388 H382 0.930 . S
C388 C389 1.367 . S
C388 C396 1.378 . S
C389 C388 1.367 . S
C389 C397 1.433 . S
C390 H386 0.929 . S
C390 C392 1.378 . S
C390 C394 1.350 . S
C391 C394 1.463 1_455 S
C391 C396 1.350 . S
C391 N399 1.427 . S
C392 H383 0.930 . S
C392 C390 1.378 . S
C392 C393 1.367 . S
C393 C392 1.367 . S
C393 C395 1.433 . S
C394 C390 1.350 . S
C394 C391 1.463 1_655 S
C394 N398 1.427 . S
C395 H385 0.929 . S
C395 C393 1.433 . S
C395 N398 1.384 . S
C396 H387 0.929 . S
C396 C388 1.378 . S
C396 C391 1.350 . S
C397 H384 0.929 . S
C397 C389 1.433 . S
C397 N399 1.384 . S
N398 C394 1.427 . S
N398 C395 1.384 . S
N399 C391 1.427 . S
N399 C397 1.384 . S
C119 C11 1.826 . S
C123 C33 1.840 . S
C137 C47 1.837 . S
C141 C25 1.821 . S
C155 C89 1.840 . S
C159 C67 1.827 . S
C173 C81 1.828 . S
C177 C103 1.842 . S
C191 C23 1.260 . S
C195 C42 1.249 . S
C209 C9 1.258 . S
C213 C28 1.248 . S
C227 C98 1.239 . S
C231 C79 1.251 . S
C245 C65 1.253 . S
C249 C84 1.237 . S
C263 C70 1.513 . S
C267 C51 1.521 . S
C281 C37 1.519 . S
C285 C56 1.506 . S
C299 C14 1.505 . S
C303 C107 1.517 . S
C317 C0 1.505 . S
C321 C93 1.517 . S
C335 C5 1.539 . S
C339 C19 1.537 . S
C353 C39 1.583 . S
C357 C53 1.579 . S
C371 C75 1.536 . S
C375 C61 1.540 . S
C389 C95 1.578 . S
C393 C109 1.584 . S
