# Generated by pormake.
# Topology pcb, (4)-cn, num edge types: 1
# Building blocks:
#     Node 0, Type 0, BuildingBlock: TATPOV_clean_sbu_0, # of connection points: 4
#     Node 1, Type 0, BuildingBlock: TATPOV_clean_sbu_0, # of connection points: 4
#     Node 2, Type 0, BuildingBlock: TATPOV_clean_sbu_0, # of connection points: 4
#     Node 3, Type 0, BuildingBlock: TATPOV_clean_sbu_0, # of connection points: 4
#     Node 4, Type 0, BuildingBlock: TATPOV_clean_sbu_0, # of connection points: 4
#     Node 5, Type 0, BuildingBlock: TATPOV_clean_sbu_0, # of connection points: 4
#     Node 6, Type 0, BuildingBlock: TATPOV_clean_sbu_0, # of connection points: 4
#     Node 7, Type 0, BuildingBlock: TATPOV_clean_sbu_0, # of connection points: 4
#     Node 8, Type 0, BuildingBlock: TATPOV_clean_sbu_0, # of connection points: 4
#     Node 9, Type 0, BuildingBlock: TATPOV_clean_sbu_0, # of connection points: 4
#     Node 10, Type 0, BuildingBlock: TATPOV_clean_sbu_0, # of connection points: 4
#     Node 11, Type 0, BuildingBlock: TATPOV_clean_sbu_0, # of connection points: 4
#     Node 12, Type 0, BuildingBlock: TATPOV_clean_sbu_0, # of connection points: 4
#     Node 13, Type 0, BuildingBlock: TATPOV_clean_sbu_0, # of connection points: 4
#     Node 14, Type 0, BuildingBlock: TATPOV_clean_sbu_0, # of connection points: 4
#     Node 15, Type 0, BuildingBlock: TATPOV_clean_sbu_0, # of connection points: 4
#     Edge 16, Type (0, 0), BuildingBlock: UVAHIK_clean_linker_0, # of connection points: 2
#     Edge 17, Type (0, 0), BuildingBlock: UVAHIK_clean_linker_0, # of connection points: 2
#     Edge 18, Type (0, 0), BuildingBlock: UVAHIK_clean_linker_0, # of connection points: 2
#     Edge 19, Type (0, 0), BuildingBlock: UVAHIK_clean_linker_0, # of connection points: 2
#     Edge 20, Type (0, 0), BuildingBlock: UVAHIK_clean_linker_0, # of connection points: 2
#     Edge 21, Type (0, 0), BuildingBlock: UVAHIK_clean_linker_0, # of connection points: 2
#     Edge 22, Type (0, 0), BuildingBlock: UVAHIK_clean_linker_0, # of connection points: 2
#     Edge 23, Type (0, 0), BuildingBlock: UVAHIK_clean_linker_0, # of connection points: 2
#     Edge 24, Type (0, 0), BuildingBlock: UVAHIK_clean_linker_0, # of connection points: 2
#     Edge 25, Type (0, 0), BuildingBlock: UVAHIK_clean_linker_0, # of connection points: 2
#     Edge 26, Type (0, 0), BuildingBlock: UVAHIK_clean_linker_0, # of connection points: 2
#     Edge 27, Type (0, 0), BuildingBlock: UVAHIK_clean_linker_0, # of connection points: 2
#     Edge 28, Type (0, 0), BuildingBlock: UVAHIK_clean_linker_0, # of connection points: 2
#     Edge 29, Type (0, 0), BuildingBlock: UVAHIK_clean_linker_0, # of connection points: 2
#     Edge 30, Type (0, 0), BuildingBlock: UVAHIK_clean_linker_0, # of connection points: 2
#     Edge 31, Type (0, 0), BuildingBlock: UVAHIK_clean_linker_0, # of connection points: 2
#     Edge 32, Type (0, 0), BuildingBlock: UVAHIK_clean_linker_0, # of connection points: 2
#     Edge 33, Type (0, 0), BuildingBlock: UVAHIK_clean_linker_0, # of connection points: 2
#     Edge 34, Type (0, 0), BuildingBlock: UVAHIK_clean_linker_0, # of connection points: 2
#     Edge 35, Type (0, 0), BuildingBlock: UVAHIK_clean_linker_0, # of connection points: 2
#     Edge 36, Type (0, 0), BuildingBlock: UVAHIK_clean_linker_0, # of connection points: 2
#     Edge 37, Type (0, 0), BuildingBlock: UVAHIK_clean_linker_0, # of connection points: 2
#     Edge 38, Type (0, 0), BuildingBlock: UVAHIK_clean_linker_0, # of connection points: 2
#     Edge 39, Type (0, 0), BuildingBlock: UVAHIK_clean_linker_0, # of connection points: 2
#     Edge 40, Type (0, 0), BuildingBlock: UVAHIK_clean_linker_0, # of connection points: 2
#     Edge 41, Type (0, 0), BuildingBlock: UVAHIK_clean_linker_0, # of connection points: 2
#     Edge 42, Type (0, 0), BuildingBlock: UVAHIK_clean_linker_0, # of connection points: 2
#     Edge 43, Type (0, 0), BuildingBlock: UVAHIK_clean_linker_0, # of connection points: 2
#     Edge 44, Type (0, 0), BuildingBlock: UVAHIK_clean_linker_0, # of connection points: 2
#     Edge 45, Type (0, 0), BuildingBlock: UVAHIK_clean_linker_0, # of connection points: 2
#     Edge 46, Type (0, 0), BuildingBlock: UVAHIK_clean_linker_0, # of connection points: 2
#     Edge 47, Type (0, 0), BuildingBlock: UVAHIK_clean_linker_0, # of connection points: 2
# Relax obj value: 0.184
# Max RMSD: 0.077
# Mean RMSD: 0.077
data_MOF--net-pcb--node1-TATPOV_clean_sbu_0--edge1-UVAHIK_clean_linker_0
_symmetry_space_group_name_H-M    P1
_symmetry_Int_Tables_number       1
_symmetry_cell_setting            triclinic
loop_
_symmetry_equiv_pos_as_xyz
'x, y, z'
_cell_length_a     60.546415
_cell_length_b     59.348171
_cell_length_c     59.374071
_cell_angle_alpha  89.871437
_cell_angle_beta   90.069296
_cell_angle_gamma 90.054595
loop_
_atom_site_label
_atom_site_type_symbol
_atom_site_fract_x
_atom_site_fract_y
_atom_site_fract_z
_atom_type_partial_charge
Zn0 Zn 0.12833 0.13467 0.13459 0.0
Zn1 Zn 0.15628 0.15391 0.16154 0.0
O2 O 0.12665 0.16086 0.17722 0.0
O3 O 0.10439 0.13903 0.15764 0.0
O4 O 0.17858 0.16937 0.1811 0.0
O5 O 0.14597 0.10606 0.1348 0.0
O6 O 0.16553 0.12025 0.16263 0.0
C7 C 0.10766 0.15222 0.17403 0.0
C8 C 0.14977 0.17106 0.11304 0.0
O9 O 0.16095 0.17049 0.13123 0.0
O10 O 0.13344 0.15797 0.11057 0.0
C11 C 0.17988 0.16682 0.2023 0.0
O12 O 0.16622 0.15293 0.21248 0.0
C13 C 0.16053 0.10371 0.14992 0.0
Zn14 Zn 0.88222 0.12931 0.11527 0.0
Zn15 Zn 0.85332 0.15351 0.13735 0.0
O16 O 0.8825 0.1608 0.15384 0.0
O17 O 0.90528 0.1363 0.13864 0.0
O18 O 0.83151 0.17202 0.15453 0.0
O19 O 0.87836 0.14897 0.08784 0.0
O20 O 0.85016 0.16508 0.10468 0.0
C21 C 0.90139 0.15142 0.15308 0.0
C22 C 0.84696 0.10263 0.13279 0.0
O23 O 0.84183 0.12119 0.14213 0.0
O24 O 0.86304 0.1018 0.1192 0.0
C25 C 0.82669 0.16631 0.17456 0.0
O26 O 0.83605 0.14836 0.18337 0.0
C27 C 0.86208 0.16232 0.08722 0.0
Zn28 Zn 0.88547 0.84929 0.16115 0.0
Zn29 Zn 0.85193 0.83044 0.18166 0.0
O30 O 0.8789 0.8214 0.20123 0.0
O31 O 0.90553 0.8425 0.18726 0.0
O32 O 0.82645 0.81655 0.19836 0.0
O33 O 0.86918 0.8786 0.15927 0.0
O34 O 0.84317 0.86413 0.18076 0.0
C35 C 0.8987 0.82868 0.2019 0.0
C36 C 0.86517 0.81505 0.1344 0.0
O37 O 0.85123 0.81513 0.15047 0.0
O38 O 0.88232 0.82722 0.13557 0.0
C39 C 0.8086 0.81073 0.18869 0.0
O40 O 0.80655 0.81354 0.16683 0.0
C41 C 0.85131 0.8808 0.17006 0.0
Zn42 Zn 0.10631 0.84107 0.13569 0.0
Zn43 Zn 0.14297 0.82242 0.15226 0.0
O44 O 0.1181 0.80994 0.17289 0.0
O45 O 0.08777 0.82264 0.15668 0.0
O46 O 0.16997 0.80674 0.16433 0.0
O47 O 0.11305 0.82866 0.10508 0.0
O48 O 0.14288 0.81253 0.11887 0.0
C49 C 0.09711 0.81102 0.17181 0.0
C50 C 0.13735 0.87357 0.15348 0.0
O51 O 0.1493 0.85618 0.15653 0.0
O52 O 0.11807 0.87159 0.14539 0.0
C53 C 0.18222 0.81492 0.17967 0.0
O54 O 0.17744 0.83473 0.18818 0.0
C55 C 0.12999 0.8165 0.10234 0.0
Zn56 Zn 0.12075 0.89013 0.85396 0.0
Zn57 Zn 0.14477 0.86297 0.82956 0.0
O58 O 0.11359 0.85889 0.81618 0.0
O59 O 0.09524 0.88635 0.83246 0.0
O60 O 0.16312 0.84238 0.81054 0.0
O61 O 0.14291 0.91501 0.84953 0.0
O62 O 0.15939 0.89402 0.82408 0.0
C63 C 0.09596 0.87037 0.81839 0.0
C64 C 0.13761 0.85332 0.87961 0.0
O65 O 0.14842 0.84978 0.86157 0.0
O66 O 0.12348 0.869 0.88039 0.0
C67 C 0.16386 0.82127 0.81412 0.0
O68 O 0.15228 0.81259 0.83071 0.0
C69 C 0.15746 0.91269 0.83443 0.0
Zn70 Zn 0.1372 0.15188 0.87463 0.0
Zn71 Zn 0.15816 0.17977 0.84706 0.0
O72 O 0.12553 0.18387 0.83797 0.0
O73 O 0.10792 0.16268 0.86256 0.0
O74 O 0.1737 0.20207 0.82716 0.0
O75 O 0.15103 0.16622 0.90144 0.0
O76 O 0.16704 0.19096 0.87902 0.0
C77 C 0.10754 0.17628 0.84611 0.0
C78 C 0.16758 0.12913 0.84542 0.0
O79 O 0.17143 0.14891 0.83799 0.0
O80 O 0.15339 0.12598 0.86074 0.0
C81 C 0.17683 0.19885 0.80626 0.0
O82 O 0.16985 0.18007 0.79698 0.0
C83 C 0.16329 0.18326 0.89872 0.0
Zn84 Zn 0.87117 0.10169 0.83288 0.0
Zn85 Zn 0.84544 0.13126 0.81183 0.0
O86 O 0.87687 0.13966 0.801 0.0
O87 O 0.89806 0.11489 0.81825 0.0
O88 O 0.82621 0.15236 0.79403 0.0
O89 O 0.8559 0.07582 0.81808 0.0
O90 O 0.83245 0.1 0.80324 0.0
C91 C 0.89596 0.13155 0.80508 0.0
C92 C 0.84676 0.13093 0.86301 0.0
O93 O 0.84006 0.13994 0.84477 0.0
O94 O 0.85962 0.1141 0.86247 0.0
C95 C 0.82246 0.17257 0.79991 0.0
O96 O 0.83143 0.18037 0.81848 0.0
C97 C 0.8388 0.07978 0.8065 0.0
Zn98 Zn 0.85774 0.86069 0.88287 0.0
Zn99 Zn 0.83651 0.8293 0.86057 0.0
O100 O 0.86674 0.82942 0.84458 0.0
O101 O 0.88215 0.85931 0.85988 0.0
O102 O 0.81913 0.80662 0.84288 0.0
O103 O 0.85873 0.84055 0.91013 0.0
O104 O 0.83668 0.8165 0.89302 0.0
C105 C 0.88259 0.8435 0.8456 0.0
C106 C 0.81854 0.87794 0.86388 0.0
O107 O 0.81842 0.85833 0.8552 0.0
O108 O 0.83313 0.88304 0.87827 0.0
C109 C 0.81448 0.81173 0.82263 0.0
O110 O 0.8217 0.83093 0.81438 0.0
C111 C 0.84736 0.82265 0.91047 0.0
Zn112 Zn 0.61036 0.62524 0.6451 0.0
Zn113 Zn 0.63908 0.64385 0.67184 0.0
O114 O 0.60915 0.65429 0.68481 0.0
O115 O 0.58554 0.63332 0.66602 0.0
O116 O 0.66089 0.65928 0.69213 0.0
O117 O 0.62606 0.59563 0.64803 0.0
O118 O 0.64634 0.6099 0.67533 0.0
C119 C 0.58945 0.64759 0.68132 0.0
C120 C 0.63616 0.65775 0.6221 0.0
O121 O 0.64669 0.65738 0.64068 0.0
O122 O 0.61863 0.64633 0.61996 0.0
C123 C 0.66291 0.68049 0.69007 0.0
O124 O 0.65067 0.69112 0.67517 0.0
C125 C 0.64041 0.59316 0.66334 0.0
Zn126 Zn 0.36844 0.67724 0.60282 0.0
Zn127 Zn 0.34043 0.69371 0.63368 0.0
O128 O 0.37071 0.70345 0.64606 0.0
O129 O 0.39375 0.69046 0.62053 0.0
O130 O 0.3192 0.7072 0.65564 0.0
O131 O 0.35408 0.69606 0.57868 0.0
O132 O 0.32995 0.70782 0.60374 0.0
C133 C 0.39033 0.70089 0.63878 0.0
C134 C 0.34277 0.6429 0.62589 0.0
O135 O 0.33508 0.6598 0.63644 0.0
O136 O 0.35688 0.64577 0.61037 0.0
C137 C 0.31404 0.69803 0.67426 0.0
O138 O 0.32306 0.6787 0.67993 0.0
C139 C 0.3372 0.7076 0.58361 0.0
Zn140 Zn 0.40059 0.38746 0.66267 0.0
Zn141 Zn 0.36534 0.3659 0.67786 0.0
O142 O 0.39165 0.35321 0.69639 0.0
O143 O 0.42039 0.37305 0.68547 0.0
O144 O 0.34023 0.34896 0.69194 0.0
O145 O 0.38663 0.4172 0.66968 0.0
O146 O 0.35672 0.39956 0.68139 0.0
C147 C 0.41216 0.35785 0.69785 0.0
C148 C 0.37901 0.35925 0.6292 0.0
O149 O 0.36533 0.35535 0.64501 0.0
O150 O 0.39542 0.3721 0.63259 0.0
C151 C 0.32022 0.34934 0.68548 0.0
O152 O 0.31457 0.36199 0.66823 0.0
C153 C 0.36721 0.41781 0.67749 0.0
Zn154 Zn 0.60139 0.33343 0.61726 0.0
Zn155 Zn 0.63621 0.31431 0.63691 0.0
O156 O 0.60926 0.29861 0.65177 0.0
O157 O 0.58084 0.31237 0.63319 0.0
O158 O 0.66162 0.29869 0.65211 0.0
O159 O 0.61301 0.32491 0.58681 0.0
O160 O 0.64197 0.30918 0.60291 0.0
C161 C 0.58853 0.29927 0.64808 0.0
C162 C 0.62784 0.36454 0.64336 0.0
O163 O 0.64 0.34729 0.64625 0.0
O164 O 0.61016 0.36301 0.632 0.0
C165 C 0.66615 0.30338 0.67248 0.0
O166 O 0.65434 0.31864 0.68298 0.0
C167 C 0.63115 0.31446 0.58523 0.0
Zn168 Zn 0.63644 0.3872 0.32491 0.0
Zn169 Zn 0.66353 0.35565 0.30792 0.0
O170 O 0.63308 0.34577 0.2963 0.0
O171 O 0.61084 0.37218 0.30902 0.0
O172 O 0.68342 0.33284 0.29384 0.0
O173 O 0.65343 0.41134 0.30867 0.0
O174 O 0.67616 0.38553 0.29546 0.0
C175 C 0.61384 0.35422 0.29795 0.0
C176 C 0.65931 0.36078 0.35891 0.0
O177 O 0.66743 0.35079 0.34187 0.0
O178 O 0.64595 0.377 0.35622 0.0
C179 C 0.68539 0.31287 0.30128 0.0
O180 O 0.67436 0.30675 0.31934 0.0
C181 C 0.6701 0.406 0.29705 0.0
Zn182 Zn 0.64727 0.61304 0.38058 0.0
Zn183 Zn 0.65296 0.65054 0.35686 0.0
O184 O 0.61915 0.64741 0.35535 0.0
O185 O 0.61463 0.61503 0.37299 0.0
O186 O 0.66024 0.67827 0.33901 0.0
O187 O 0.65955 0.6279 0.40816 0.0
O188 O 0.66468 0.65892 0.38849 0.0
C189 C 0.60656 0.63168 0.3624 0.0
C190 C 0.67519 0.6057 0.3432 0.0
O191 O 0.67013 0.62614 0.33912 0.0
O192 O 0.66802 0.59603 0.36072 0.0
C193 C 0.65747 0.6791 0.31781 0.0
O194 O 0.64804 0.66199 0.30758 0.0
C195 C 0.66617 0.64809 0.40699 0.0
Zn196 Zn 0.327 0.62179 0.38426 0.0
Zn197 Zn 0.32293 0.64262 0.34473 0.0
O198 O 0.35666 0.64187 0.34803 0.0
O199 O 0.36018 0.62684 0.38179 0.0
O200 O 0.31758 0.65917 0.31573 0.0
O201 O 0.3129 0.59405 0.37147 0.0
O202 O 0.30899 0.61132 0.33887 0.0
C203 C 0.36884 0.63537 0.3643 0.0
C204 C 0.3021 0.66178 0.38821 0.0
O205 O 0.30747 0.66367 0.36757 0.0
O206 O 0.30777 0.64463 0.39945 0.0
C207 C 0.32222 0.68003 0.31458 0.0
O208 O 0.33168 0.6898 0.33193 0.0
C209 C 0.30635 0.59391 0.35122 0.0
Zn210 Zn 0.39333 0.35998 0.36106 0.0
Zn211 Zn 0.36303 0.33083 0.34797 0.0
O212 O 0.39086 0.32119 0.32996 0.0
O213 O 0.41477 0.34776 0.33879 0.0
O214 O 0.34015 0.30908 0.3367 0.0
O215 O 0.39154 0.34742 0.3925 0.0
O216 O 0.36419 0.32516 0.38232 0.0
C217 C 0.40975 0.33038 0.32763 0.0
C218 C 0.35636 0.38188 0.3412 0.0
O219 O 0.34974 0.36164 0.33862 0.0
O220 O 0.37443 0.38579 0.35118 0.0
C221 C 0.33673 0.30912 0.31558 0.0
O222 O 0.34812 0.32306 0.30286 0.0
C223 C 0.37704 0.33286 0.39749 0.0
C224 C 0.3168 0.29412 0.28195 0.0
C225 C 0.32017 0.29392 0.30536 0.0
C226 C 0.30107 0.28004 0.27213 0.0
C227 C 0.2689 0.22815 0.28144 0.0
H228 H 0.23286 0.25234 0.23308 0.0
C229 C 0.19726 0.17851 0.23892 0.0
C230 C 0.19604 0.18024 0.21532 0.0
C231 C 0.21201 0.192 0.25109 0.0
C232 C 0.24292 0.24528 0.24644 0.0
H233 H 0.30973 0.27866 0.33685 0.0
H234 H 0.28203 0.25412 0.31963 0.0
H235 H 0.25913 0.27673 0.25227 0.0
H236 H 0.2097 0.19712 0.18599 0.0
H237 H 0.23538 0.22039 0.20714 0.0
H238 H 0.25265 0.19661 0.27543 0.0
C239 C 0.29175 0.26507 0.30889 0.0
C240 C 0.25798 0.25925 0.25743 0.0
C241 C 0.30753 0.2792 0.31875 0.0
C242 C 0.2101 0.19544 0.20416 0.0
C243 C 0.22474 0.2089 0.21629 0.0
C244 C 0.25377 0.21414 0.27043 0.0
C245 C 0.28827 0.26544 0.28548 0.0
C246 C 0.27138 0.25078 0.27483 0.0
C247 C 0.22572 0.20751 0.23989 0.0
C248 C 0.24086 0.2225 0.25259 0.0
H249 H 0.32633 0.30515 0.27113 0.0
H250 H 0.29907 0.28045 0.25401 0.0
H251 H 0.27912 0.22109 0.29468 0.0
H252 H 0.18666 0.16695 0.24802 0.0
H253 H 0.21233 0.19064 0.26928 0.0
C254 C 0.70836 0.30231 0.26806 0.0
C255 C 0.69937 0.29656 0.28912 0.0
C256 C 0.72114 0.28687 0.25618 0.0
C257 C 0.75602 0.23718 0.2629 0.0
H258 H 0.74551 0.22979 0.19888 0.0
C259 C 0.8042 0.17262 0.20933 0.0
C260 C 0.81101 0.17988 0.18789 0.0
C261 C 0.78957 0.18563 0.22201 0.0
C262 C 0.7488 0.23181 0.2167 0.0
H263 H 0.69694 0.27017 0.31435 0.0
H264 H 0.71954 0.24316 0.29352 0.0
H265 H 0.72195 0.25487 0.22064 0.0
H266 H 0.8079 0.20646 0.16295 0.0
H267 H 0.78279 0.22931 0.1852 0.0
H268 H 0.7832 0.21455 0.25889 0.0
C269 C 0.71661 0.25966 0.2863 0.0
C270 C 0.73527 0.24613 0.22915 0.0
C271 C 0.70363 0.27508 0.29815 0.0
C272 C 0.80288 0.20034 0.17936 0.0
C273 C 0.78836 0.21338 0.19207 0.0
C274 C 0.76967 0.22295 0.25041 0.0
C275 C 0.72534 0.26538 0.26513 0.0
C276 C 0.73891 0.24915 0.25231 0.0
C277 C 0.78154 0.20618 0.21354 0.0
C278 C 0.76636 0.22031 0.22711 0.0
H279 H 0.70541 0.31872 0.26063 0.0
H280 H 0.72792 0.29183 0.24003 0.0
H281 H 0.75929 0.23937 0.28071 0.0
H282 H 0.8101 0.15687 0.21633 0.0
H283 H 0.78443 0.17947 0.23837 0.0
C284 C 0.79068 0.80186 0.22556 0.0
C285 C 0.79051 0.80055 0.20195 0.0
C286 C 0.77403 0.79164 0.23821 0.0
C287 C 0.71803 0.76589 0.23415 0.0
H288 H 0.73666 0.73542 0.28879 0.0
C289 C 0.66723 0.69723 0.28094 0.0
C290 C 0.66788 0.69742 0.30462 0.0
C291 C 0.67978 0.71265 0.26851 0.0
C292 C 0.73111 0.74412 0.27375 0.0
H293 H 0.77255 0.78781 0.17303 0.0
H294 H 0.74384 0.7693 0.19513 0.0
H295 H 0.7635 0.75647 0.26686 0.0
H296 H 0.68105 0.71491 0.33378 0.0
H297 H 0.70289 0.74171 0.31207 0.0
H298 H 0.68569 0.75265 0.24086 0.0
C299 C 0.75656 0.77866 0.20389 0.0
C300 C 0.7465 0.75625 0.26117 0.0
C301 C 0.77311 0.78913 0.19121 0.0
C302 C 0.68032 0.71415 0.31557 0.0
C303 C 0.69292 0.72946 0.30315 0.0
C304 C 0.70263 0.75353 0.24669 0.0
C305 C 0.75695 0.77959 0.22757 0.0
C306 C 0.7402 0.76727 0.24119 0.0
C307 C 0.69326 0.72846 0.27953 0.0
C308 C 0.70905 0.74251 0.2666 0.0
H309 H 0.80372 0.81079 0.23432 0.0
H310 H 0.77461 0.79314 0.25637 0.0
H311 H 0.71253 0.77441 0.21901 0.0
H312 H 0.65775 0.68462 0.27199 0.0
H313 H 0.67978 0.71145 0.25031 0.0
C314 C 0.31422 0.71731 0.29663 0.0
C315 C 0.31417 0.69367 0.29539 0.0
C316 C 0.30373 0.73018 0.28006 0.0
C317 C 0.25865 0.7248 0.23895 0.0
H318 H 0.2766 0.78517 0.22177 0.0
C319 C 0.20483 0.77963 0.18091 0.0
C320 C 0.20088 0.80161 0.18872 0.0
C321 C 0.22142 0.76643 0.19057 0.0
C322 C 0.27139 0.76834 0.22645 0.0
H323 H 0.30455 0.66505 0.27493 0.0
H324 H 0.28671 0.68753 0.24574 0.0
H325 H 0.30154 0.76173 0.24415 0.0
H326 H 0.21186 0.82727 0.21218 0.0
H327 H 0.24074 0.80414 0.22913 0.0
H328 H 0.22839 0.7315 0.22164 0.0
C329 C 0.2943 0.69611 0.25985 0.0
C330 C 0.28565 0.75492 0.23928 0.0
C331 C 0.30463 0.68323 0.27652 0.0
C332 C 0.21442 0.81038 0.20583 0.0
C333 C 0.23108 0.79719 0.21544 0.0
C334 C 0.24449 0.73814 0.22605 0.0
C335 C 0.29312 0.7197 0.26178 0.0
C336 C 0.27927 0.73313 0.24602 0.0
C337 C 0.23448 0.77494 0.20818 0.0
C338 C 0.25053 0.76019 0.22 0.0
H339 H 0.32144 0.72588 0.31095 0.0
H340 H 0.303 0.74827 0.28223 0.0
H341 H 0.25297 0.70829 0.24418 0.0
H342 H 0.1948 0.7724 0.16764 0.0
H343 H 0.22384 0.74943 0.18444 0.0
C344 C 0.28966 0.73054 0.68377 0.0
C345 C 0.29775 0.709 0.68913 0.0
C346 C 0.27408 0.74094 0.69751 0.0
C347 C 0.25111 0.74027 0.75495 0.0
H348 H 0.20464 0.77562 0.72703 0.0
C349 C 0.1816 0.78411 0.80566 0.0
C350 C 0.17781 0.80676 0.79984 0.0
C351 C 0.19517 0.7706 0.79228 0.0
C352 C 0.21758 0.76587 0.73505 0.0
H353 H 0.29582 0.68147 0.71314 0.0
H354 H 0.26828 0.69958 0.73705 0.0
H355 H 0.23027 0.75462 0.70346 0.0
H356 H 0.18507 0.83292 0.77533 0.0
H357 H 0.2086 0.80932 0.752 0.0
H358 H 0.23831 0.75165 0.78658 0.0
C359 C 0.27425 0.70851 0.72234 0.0
C360 C 0.23229 0.7539 0.72157 0.0
C361 C 0.28996 0.69811 0.7086 0.0
C362 C 0.18766 0.81554 0.78028 0.0
C363 C 0.20103 0.802 0.76683 0.0
C364 C 0.23627 0.75217 0.76846 0.0
C365 C 0.26608 0.73002 0.71688 0.0
C366 C 0.24948 0.74129 0.73135 0.0
C367 C 0.20497 0.77943 0.77273 0.0
C368 C 0.21961 0.76538 0.7586 0.0
H369 H 0.29543 0.73947 0.66897 0.0
H370 H 0.26848 0.7577 0.69306 0.0
H371 H 0.26428 0.7309 0.763 0.0
H372 H 0.17425 0.77687 0.82064 0.0
H373 H 0.19785 0.75321 0.79712 0.0
C374 C 0.19363 0.23714 0.80206 0.0
C375 C 0.18875 0.21595 0.79277 0.0
C376 C 0.2057 0.25301 0.7898 0.0
C377 C 0.22554 0.26743 0.73235 0.0
H378 H 0.27071 0.29987 0.76542 0.0
C379 C 0.28127 0.33576 0.69116 0.0
C380 C 0.30369 0.33526 0.69731 0.0
C381 C 0.26587 0.32227 0.7025 0.0
C382 C 0.25825 0.29088 0.75589 0.0
H383 H 0.19227 0.19498 0.76313 0.0
H384 H 0.21381 0.22252 0.74189 0.0
H385 H 0.24637 0.27414 0.78534 0.0
H386 H 0.32755 0.32001 0.72003 0.0
H387 H 0.30091 0.29642 0.73943 0.0
H388 H 0.23811 0.28363 0.70274 0.0
C389 C 0.20799 0.22701 0.75852 0.0
C390 C 0.24407 0.27633 0.76738 0.0
C391 C 0.19577 0.21116 0.77075 0.0
C392 C 0.31038 0.32095 0.71493 0.0
C393 C 0.29507 0.3075 0.72619 0.0
C394 C 0.23981 0.28198 0.72082 0.0
C395 C 0.21333 0.24802 0.76802 0.0
C396 C 0.22765 0.26427 0.75575 0.0
C397 C 0.27261 0.30804 0.7202 0.0
C398 C 0.2565 0.29366 0.73245 0.0
H399 H 0.18825 0.24146 0.81889 0.0
H400 H 0.20913 0.26918 0.79746 0.0
H401 H 0.21291 0.2586 0.72292 0.0
H402 H 0.27558 0.34661 0.67767 0.0
H403 H 0.24865 0.32319 0.69761 0.0
C404 C 0.80069 0.17963 0.76477 0.0
C405 C 0.8078 0.18694 0.78608 0.0
C406 C 0.78646 0.19289 0.75185 0.0
C407 C 0.76467 0.25103 0.74591 0.0
H408 H 0.71791 0.22101 0.71281 0.0
C409 C 0.69033 0.29781 0.70626 0.0
C410 C 0.68387 0.29116 0.68452 0.0
C411 C 0.70646 0.28575 0.71802 0.0
C412 C 0.73103 0.22961 0.72176 0.0
H413 H 0.80566 0.21398 0.81048 0.0
H414 H 0.78038 0.23692 0.78815 0.0
H415 H 0.74395 0.19873 0.73476 0.0
H416 H 0.68953 0.26682 0.65792 0.0
H417 H 0.71762 0.24569 0.67855 0.0
H418 H 0.75131 0.28197 0.73318 0.0
C419 C 0.78614 0.22112 0.78123 0.0
C420 C 0.746 0.21685 0.73432 0.0
C421 C 0.80053 0.20791 0.7941 0.0
C422 C 0.6941 0.27236 0.67466 0.0
C423 C 0.7101 0.26019 0.6865 0.0
C424 C 0.74957 0.2638 0.73347 0.0
C425 C 0.77884 0.21371 0.75999 0.0
C426 C 0.76302 0.22739 0.74654 0.0
C427 C 0.71634 0.26668 0.70835 0.0
C428 C 0.73262 0.25321 0.72126 0.0
H429 H 0.80614 0.16364 0.75801 0.0
H430 H 0.78152 0.18685 0.7354 0.0
H431 H 0.77777 0.25967 0.75483 0.0
H432 H 0.68279 0.31225 0.71431 0.0
H433 H 0.71082 0.29102 0.7349 0.0
C434 C 0.79167 0.80477 0.78827 0.0
C435 C 0.80012 0.797 0.80892 0.0
C436 C 0.77719 0.79144 0.77576 0.0
C437 C 0.75905 0.73342 0.76621 0.0
H438 H 0.70562 0.76169 0.74378 0.0
C439 C 0.68949 0.68279 0.72241 0.0
C440 C 0.67887 0.69312 0.70404 0.0
C441 C 0.70439 0.69496 0.73567 0.0
C442 C 0.72059 0.75359 0.74964 0.0
H443 H 0.80046 0.76892 0.83238 0.0
H444 H 0.77525 0.74549 0.81029 0.0
H445 H 0.73188 0.78373 0.76567 0.0
H446 H 0.67583 0.72415 0.68492 0.0
H447 H 0.70214 0.74515 0.7076 0.0
H448 H 0.748 0.70338 0.7498 0.0
C449 C 0.77985 0.76194 0.80389 0.0
C450 C 0.73558 0.76621 0.76224 0.0
C451 C 0.79418 0.77539 0.81655 0.0
C452 C 0.68359 0.71576 0.69907 0.0
C453 C 0.6986 0.72785 0.71219 0.0
C454 C 0.74412 0.72081 0.7534 0.0
C455 C 0.77101 0.76998 0.78351 0.0
C456 C 0.755 0.7563 0.77054 0.0
C457 C 0.70909 0.71766 0.73074 0.0
C458 C 0.72476 0.73079 0.74485 0.0
H459 H 0.79593 0.82133 0.7819 0.0
H460 H 0.77082 0.79792 0.75996 0.0
H461 H 0.77399 0.72543 0.77229 0.0
H462 H 0.68613 0.66538 0.7267 0.0
H463 H 0.71195 0.68667 0.74999 0.0
C464 C 0.18191 0.17887 0.93544 0.0
C465 C 0.17352 0.1933 0.9188 0.0
C466 C 0.18775 0.18718 0.9565 0.0
C467 C 0.16767 0.22901 0.99469 0.0
H468 H 0.20854 0.19771 0.03411 0.0
C469 C 0.14132 0.18988 0.0765 0.0
C470 C 0.15625 0.18598 0.09419 0.0
C471 C 0.148 0.20127 0.05714 0.0
C472 C 0.19735 0.20722 0.02351 0.0
H473 H 0.16595 0.22794 0.91038 0.0
H474 H 0.1757 0.24266 0.94783 0.0
H475 H 0.21551 0.19883 0.9938 0.0
H476 H 0.18953 0.19237 0.10613 0.0
H477 H 0.20137 0.21217 0.07194 0.0
H478 H 0.14887 0.23636 0.02427 0.0
C479 C 0.17797 0.22489 0.9444 0.0
C480 C 0.20128 0.20771 0.00034 0.0
C481 C 0.17247 0.21654 0.92301 0.0
C482 C 0.17768 0.19501 0.09269 0.0
C483 C 0.18447 0.20631 0.07313 0.0
C484 C 0.16382 0.22866 0.01789 0.0
C485 C 0.18499 0.21013 0.96158 0.0
C486 C 0.18562 0.21715 0.98557 0.0
C487 C 0.16985 0.20899 0.05487 0.0
C488 C 0.17777 0.21634 0.03232 0.0
H489 H 0.18294 0.16088 0.9325 0.0
H490 H 0.19275 0.17523 0.96933 0.0
H491 H 0.15533 0.23656 0.98383 0.0
H492 H 0.12461 0.18336 0.07722 0.0
H493 H 0.13635 0.20267 0.04335 0.0
C494 C 0.84052 0.12656 0.90424 0.0
C495 C 0.84023 0.14035 0.88501 0.0
C496 C 0.83623 0.13559 0.92544 0.0
C497 C 0.84454 0.18604 0.95721 0.0
H498 H 0.81098 0.15366 0.00252 0.0
C499 C 0.87145 0.17451 0.04823 0.0
C500 C 0.85562 0.17223 0.06535 0.0
C501 C 0.86494 0.17894 0.02612 0.0
C502 C 0.82001 0.16331 0.99006 0.0
H503 H 0.83467 0.17432 0.87274 0.0
H504 H 0.82783 0.19035 0.9102 0.0
H505 H 0.80648 0.14404 0.96287 0.0
H506 H 0.82074 0.17459 0.07317 0.0
H507 H 0.80929 0.18193 0.03425 0.0
H508 H 0.85922 0.20424 0.98457 0.0
C509 C 0.83108 0.17247 0.90867 0.0
C510 C 0.81755 0.15767 0.96738 0.0
C511 C 0.83494 0.1633 0.88731 0.0
C512 C 0.83329 0.17626 0.06029 0.0
C513 C 0.82673 0.18036 0.03803 0.0
C514 C 0.84718 0.19154 0.97995 0.0
C515 C 0.8319 0.1587 0.92793 0.0
C516 C 0.83046 0.16833 0.95086 0.0
C517 C 0.84245 0.18088 0.02061 0.0
C518 C 0.83562 0.17957 0.99665 0.0
H519 H 0.84444 0.1088 0.90297 0.0
H520 H 0.83726 0.12464 0.94003 0.0
H521 H 0.85475 0.19447 0.9448 0.0
H522 H 0.88879 0.17163 0.05169 0.0
H523 H 0.87745 0.17905 0.01308 0.0
C524 C 0.86517 0.80901 0.94559 0.0
C525 C 0.84657 0.80939 0.93148 0.0
C526 C 0.86408 0.79902 0.9668 0.0
C527 C 0.8261 0.79259 0.01218 0.0
H528 H 0.87505 0.76058 0.03965 0.0
C529 C 0.83924 0.79522 0.10791 0.0
C530 C 0.8607 0.80249 0.11338 0.0
C531 C 0.83456 0.78692 0.08634 0.0
C532 C 0.86113 0.76936 0.03225 0.0
H533 H 0.81246 0.7989 0.928 0.0
H534 H 0.81029 0.78199 0.96582 0.0
H535 H 0.87215 0.76256 -0.00133 0.0
H536 H 0.89437 0.80502 0.10121 0.0
H537 H 0.88629 0.79087 0.0639 0.0
H538 H 0.81605 0.80105 0.0456 0.0
C539 C 0.82579 0.78913 0.96016 0.0
C540 C 0.85944 0.77039 0.00881 0.0
C541 C 0.82704 0.79873 0.93859 0.0
C542 C 0.87763 0.79975 0.09748 0.0
C543 C 0.87301 0.79138 0.07609 0.0
C544 C 0.82789 0.79173 0.03565 0.0
C545 C 0.84424 0.78954 0.97457 0.0
C546 C 0.84251 0.78295 -0.00142 0.0
C547 C 0.8513 0.78555 0.06998 0.0
C548 C 0.84608 0.78109 0.04591 0.0
H549 H 0.88046 0.81701 0.94044 0.0
H550 H 0.87847 0.79987 0.97763 0.0
H551 H 0.81295 0.80249 0.00473 0.0
H552 H 0.82585 0.79704 0.11984 0.0
H553 H 0.81771 0.78236 0.08222 0.0
C554 C 0.11803 0.80677 0.06347 0.0
C555 C 0.135 0.808 0.07954 0.0
C556 C 0.12277 0.80182 0.04109 0.0
C557 C 0.16638 0.81076 0.00051 0.0
H558 H 0.12346 0.78253 0.96105 0.0
C559 C 0.16178 0.82964 0.90466 0.0
C560 C 0.14107 0.83915 0.89974 0.0
C561 C 0.16512 0.81804 0.92499 0.0
C562 C 0.13583 0.79013 0.97183 0.0
H563 H 0.17016 0.80376 0.08506 0.0
H564 H 0.17856 0.79535 0.04553 0.0
H565 H 0.12234 0.77488 0.00145 0.0
H566 H 0.10736 0.8429 0.91138 0.0
H567 H 0.11301 0.82235 0.94637 0.0
H568 H 0.17902 0.82702 0.97093 0.0
C569 C 0.16156 0.79822 0.0504 0.0
C570 C 0.13516 0.78583 0.99494 0.0
C571 C 0.15675 0.80295 0.07299 0.0
C572 C 0.12353 0.8359 0.91483 0.0
C573 C 0.12671 0.82394 0.93476 0.0
C574 C 0.16714 0.81493 0.97732 0.0
C575 C 0.14464 0.79811 0.03413 0.0
C576 C 0.14959 0.79714 0.00966 0.0
C577 C 0.1476 0.81526 0.94027 0.0
C578 C 0.15109 0.80563 0.963 0.0
H579 H 0.10109 0.81042 0.06803 0.0
H580 H 0.10936 0.80222 0.029 0.0
H581 H 0.17769 0.81979 0.01138 0.0
H582 H 0.17556 0.83195 0.89327 0.0
H583 H 0.1814 0.81159 0.92896 0.0
C584 C 0.0845 0.18056 0.19434 0.0
C585 C 0.08878 0.15809 0.18843 0.0
C586 C 0.06389 0.18653 0.20327 0.0
C587 C 0.01406 0.19188 0.19596 0.0
H588 H 0.97792 0.15032 0.23039 0.0
C589 C 0.93408 0.14127 0.17609 0.0
C590 C 0.91899 0.15774 0.16902 0.0
C591 C 0.95233 0.14715 0.18907 0.0
C592 C 0.98775 0.16246 0.22112 0.0
H593 H 0.07612 0.12399 0.18913 0.0
H594 H 0.0406 0.13414 0.20501 0.0
H595 H 0.0179 0.15056 0.23575 0.0
H596 H 0.91046 0.19313 0.17076 0.0
H597 H 0.94326 0.20371 0.1929 0.0
H598 H 0.98413 0.20235 0.17989 0.0
C599 C 0.05284 0.14728 0.20279 0.0
C600 C 0.01062 0.16259 0.22418 0.0
C601 C 0.07312 0.14144 0.1935 0.0
C602 C 0.92192 0.18014 0.17605 0.0
C603 C 0.94059 0.18617 0.18868 0.0
C604 C 0.99116 0.19179 0.19295 0.0
C605 C 0.04758 0.16999 0.20683 0.0
C606 C 0.0241 0.17611 0.21041 0.0
C607 C 0.95617 0.16973 0.19496 0.0
C608 C 0.97803 0.17591 0.20433 0.0
H609 H 0.09636 0.19369 0.19047 0.0
H610 H 0.06027 0.20415 0.20622 0.0
H611 H 0.02398 0.2025 0.18509 0.0
H612 H 0.93209 0.12384 0.17104 0.0
H613 H 0.9642 0.13415 0.19328 0.0
C614 C 0.82724 0.91069 0.18729 0.0
C615 C 0.83972 0.90261 0.16907 0.0
C616 C 0.81795 0.93233 0.18643 0.0
C617 C 0.80261 0.97799 0.14712 0.0
H618 H 0.82803 0.01918 0.19062 0.0
C619 C 0.83577 0.06344 0.12338 0.0
C620 C 0.83501 0.08166 0.13837 0.0
C621 C 0.82693 0.04263 0.12944 0.0
C622 C 0.82017 0.00795 0.17869 0.0
H623 H 0.85123 0.91007 0.1353 0.0
H624 H 0.83475 0.94731 0.13362 0.0
H625 H 0.82924 0.97866 0.19774 0.0
H626 H 0.82349 0.09276 0.17108 0.0
H627 H 0.80837 0.05591 0.18196 0.0
H628 H 0.79492 0.0071 0.12732 0.0
C629 C 0.83221 0.93719 0.1486 0.0
C630 C 0.82087 0.98474 0.18278 0.0
C631 C 0.84185 0.91596 0.14967 0.0
C632 C 0.82428 0.07896 0.1592 0.0
C633 C 0.8157 0.05791 0.16544 0.0
C634 C 0.80183 0.00114 0.14307 0.0
C635 C 0.82049 0.94577 0.16707 0.0
C636 C 0.81326 0.96957 0.1664 0.0
C637 C 0.81732 0.03944 0.15074 0.0
C638 C 0.81181 0.01624 0.15817 0.0
H639 H 0.82539 0.90067 0.20244 0.0
H640 H 0.8091 0.9387 0.20092 0.0
H641 H 0.79638 0.96659 0.13437 0.0
H642 H 0.8438 0.06507 0.10715 0.0
H643 H 0.82878 0.02869 0.11785 0.0
C644 C 0.9232 0.79706 0.21198 0.0
C645 C 0.91508 0.81853 0.21703 0.0
C646 C 0.94361 0.7901 0.22047 0.0
C647 C 0.99514 0.81864 0.23799 0.0
H648 H 0.01788 0.75836 0.22873 0.0
C649 C 0.0839 0.80794 0.21131 0.0
C650 C 0.08305 0.8004 0.18895 0.0
C651 C 0.06609 0.80387 0.22581 0.0
C652 C 0.0118 0.77522 0.2319 0.0
H653 H 0.92023 0.8486 0.23679 0.0
H654 H 0.95494 0.83579 0.25334 0.0
H655 H 0.97868 0.76368 0.23668 0.0
H656 H 0.06443 0.78095 0.16472 0.0
H657 H 0.03376 0.77315 0.19014 0.0
H658 H 0.02814 0.83014 0.23264 0.0
C659 C 0.94636 0.82467 0.24186 0.0
C660 C 0.98927 0.77837 0.23616 0.0
C661 C 0.92628 0.83192 0.23272 0.0
C662 C 0.06545 0.78672 0.182 0.0
C663 C 0.04795 0.78221 0.19659 0.0
C664 C 0.01766 0.81543 0.23432 0.0
C665 C 0.95614 0.80439 0.23454 0.0
C666 C 0.98036 0.80027 0.23766 0.0
C667 C 0.04749 0.79186 0.21818 0.0
C668 C 0.02597 0.79385 0.22984 0.0
H669 H 0.91489 0.78661 0.19964 0.0
H670 H 0.95031 0.77445 0.21417 0.0
H671 H 0.9893 0.83583 0.23889 0.0
H672 H 0.09722 0.81878 0.21688 0.0
H673 H 0.06607 0.81156 0.24234 0.0
C674 C 0.17523 0.07369 0.17564 0.0
C675 C 0.16981 0.08103 0.15381 0.0
C676 C 0.17936 0.05082 0.1798 0.0
C677 C 0.18945 0.99547 0.15239 0.0
H678 H 0.14781 0.97252 0.19643 0.0
C679 C 0.16869 0.90032 0.16106 0.0
C680 C 0.14588 0.89625 0.15904 0.0
C681 C 0.17657 0.92221 0.16478 0.0
C682 C 0.15974 0.97867 0.18429 0.0
H683 H 0.16641 0.07077 0.11897 0.0
H684 H 0.17395 0.03116 0.12612 0.0
H685 H 0.15509 0.01291 0.19436 0.0
H686 H 0.11346 0.91171 0.1603 0.0
H687 H 0.12715 0.94966 0.16705 0.0
H688 H 0.19311 0.96127 0.14151 0.0
C689 C 0.1749 0.04285 0.14007 0.0
C690 C 0.16408 0.00176 0.18324 0.0
C691 C 0.17043 0.06554 0.13599 0.0
C692 C 0.13112 0.9143 0.16164 0.0
C693 C 0.13895 0.93602 0.16571 0.0
C694 C 0.18526 0.97231 0.15359 0.0
C695 C 0.17856 0.03509 0.16213 0.0
C696 C 0.17829 0.0105 0.16668 0.0
C697 C 0.16174 0.94028 0.16701 0.0
C698 C 0.16968 0.96383 0.16894 0.0
H699 H 0.1748 0.08529 0.1897 0.0
H700 H 0.18225 0.04529 0.19695 0.0
H701 H 0.20058 0.00174 0.13956 0.0
H702 H 0.18046 0.88673 0.15912 0.0
H703 H 0.19422 0.92506 0.16571 0.0
C704 C 0.91416 0.86104 0.82541 0.0
C705 C 0.90182 0.84166 0.83046 0.0
C706 C 0.93367 0.85949 0.81314 0.0
C707 C 0.97941 0.8219 0.80638 0.0
H708 H 9e-05 0.86992 0.7673 0.0
C709 C 0.07171 0.84151 0.79994 0.0
C710 C 0.07553 0.86395 0.80642 0.0
C711 C 0.05062 0.8347 0.79296 0.0
C712 C 0.99455 0.85618 0.77793 0.0
H713 H 0.89963 0.80552 0.82578 0.0
H714 H 0.93445 0.80269 0.80471 0.0
H715 H 0.96051 0.86485 0.77339 0.0
H716 H 0.06103 0.89724 0.80864 0.0
H717 H 0.02455 0.88554 0.79641 0.0
H718 H 0.01343 0.81433 0.81237 0.0
C719 C 0.92875 0.8191 0.81011 0.0
C720 C 0.97192 0.85327 0.7814 0.0
C721 C 0.90888 0.82072 0.82212 0.0
C722 C 0.05851 0.87979 0.80393 0.0
C723 C 0.03762 0.87309 0.7967 0.0
C724 C 0.00207 0.82484 0.80295 0.0
C725 C 0.9415 0.83847 0.80585 0.0
C726 C 0.96422 0.83695 0.79668 0.0
C727 C 0.03318 0.85032 0.792 0.0
C728 C 0.00988 0.84285 0.78974 0.0
H729 H 0.90902 0.87743 0.83146 0.0
H730 H 0.94326 0.87468 0.81047 0.0
H731 H 0.97397 0.80922 0.8183 0.0
H732 H 0.08456 0.82894 0.80169 0.0
H733 H 0.0477 0.81708 0.78932 0.0
C734 C 0.17797 0.947 0.84578 0.0
C735 C 0.17147 0.93216 0.82868 0.0
C736 C 0.1883 0.96731 0.8405 0.0
C737 C 0.18484 0.01023 0.79884 0.0
H738 H 0.22806 0.03877 0.83769 0.0
C739 C 0.18313 0.1058 0.81394 0.0
C740 C 0.17984 0.10946 0.83706 0.0
C741 C 0.19121 0.08498 0.80639 0.0
C742 C 0.21624 0.03104 0.82636 0.0
H743 H 0.17147 0.92626 0.79269 0.0
H744 H 0.18893 0.96254 0.78328 0.0
H745 H 0.22587 0.99772 0.83617 0.0
H746 H 0.18398 0.09532 0.87044 0.0
H747 H 0.19833 0.0595 0.85751 0.0
H748 H 0.1738 0.04351 0.79066 0.0
C749 C 0.18637 0.95814 0.80079 0.0
C750 C 0.21502 0.00757 0.82549 0.0
C751 C 0.17646 0.93744 0.80617 0.0
C752 C 0.18628 0.09283 0.85252 0.0
C753 C 0.19471 0.07237 0.84508 0.0
C754 C 0.186 0.03375 0.7998 0.0
C755 C 0.19196 0.97344 0.81793 0.0
C756 C 0.19839 0.997 0.81281 0.0
C757 C 0.19659 0.06787 0.82193 0.0
C758 C 0.20075 0.04433 0.81472 0.0
H759 H 0.17436 0.94326 0.86327 0.0
H760 H 0.19209 0.97887 0.85406 0.0
H761 H 0.17182 0.00253 0.78896 0.0
H762 H 0.17819 0.11842 0.80174 0.0
H763 H 0.19244 0.08192 0.78846 0.0
C764 C 0.06673 0.18054 0.84882 0.0
C765 C 0.08607 0.1823 0.83592 0.0
C766 C 0.04608 0.18345 0.83885 0.0
C767 C 0.00389 0.19701 0.81516 0.0
H768 H 0.99506 0.15434 0.76662 0.0
C769 C 0.91703 0.16603 0.79353 0.0
C770 C 0.91609 0.14254 0.7964 0.0
C771 C 0.93741 0.17678 0.79037 0.0
C772 C 0.99729 0.16666 0.77987 0.0
H773 H 0.09907 0.18946 0.80266 0.0
H774 H 0.06266 0.19398 0.78498 0.0
H775 H 0.03253 0.16439 0.77812 0.0
H776 H 0.9352 0.1117 0.796 0.0
H777 H 0.97051 0.13027 0.79019 0.0
H778 H 0.96872 0.19799 0.8181 0.0
C779 C 0.06362 0.19057 0.80288 0.0
C780 C 0.01874 0.17253 0.78636 0.0
C781 C 0.0844 0.18804 0.813 0.0
C782 C 0.93549 0.12985 0.79399 0.0
C783 C 0.95571 0.14051 0.79047 0.0
C784 C 0.98247 0.19125 0.80859 0.0
C785 C 0.04426 0.18789 0.81567 0.0
C786 C 0.02221 0.18684 0.80485 0.0
C787 C 0.95704 0.16413 0.78959 0.0
C788 C 0.97898 0.17511 0.79168 0.0
H789 H 0.06752 0.17626 0.86655 0.0
H790 H 0.03148 0.18097 0.8491 0.0
H791 H 0.00613 0.20828 0.82932 0.0
H792 H 0.9023 0.17621 0.79536 0.0
H793 H 0.93796 0.19501 0.78964 0.0
C794 C 0.79426 0.89382 0.83349 0.0
C795 C 0.80399 0.89586 0.85491 0.0
C796 C 0.78534 0.91274 0.82268 0.0
C797 C 0.77384 0.97441 0.83041 0.0
H798 H 0.80528 0.97993 0.77384 0.0
C799 C 0.80227 0.06081 0.80074 0.0
C800 C 0.82541 0.06045 0.79898 0.0
C801 C 0.79022 0.04065 0.79963 0.0
C802 C 0.79603 0.97864 0.7894 0.0
H803 H 0.80965 0.91861 0.88284 0.0
H804 H 0.79442 0.95139 0.86415 0.0
H805 H 0.79921 0.94285 0.79009 0.0
H806 H 0.85385 0.03946 0.79226 0.0
H807 H 0.8331 0.00461 0.79006 0.0
H808 H 0.77278 0.01039 0.83085 0.0
C809 C 0.79354 0.93536 0.85552 0.0
C810 C 0.79234 0.95731 0.79867 0.0
C811 C 0.80252 0.91655 0.86622 0.0
C812 C 0.83602 0.04014 0.79378 0.0
C813 C 0.82404 0.02016 0.79235 0.0
C814 C 0.77766 0.99576 0.8212 0.0
C815 C 0.78586 0.93397 0.83319 0.0
C816 C 0.78256 0.95508 0.82004 0.0
C817 C 0.80115 0.01998 0.79638 0.0
C818 C 0.79015 -0.00187 0.80138 0.0
H819 H 0.795 0.87804 0.82438 0.0
H820 H 0.77926 0.91104 0.8056 0.0
H821 H 0.76575 0.97321 0.84663 0.0
H822 H 0.79373 0.0763 0.80482 0.0
H823 H 0.77259 0.04106 0.80265 0.0
C824 C 0.67346 0.68262 0.43031 0.0
C825 C 0.67439 0.65911 0.42766 0.0
C826 C 0.67764 0.69234 0.45139 0.0
C827 C 0.69647 0.6786 0.51004 0.0
H828 H 0.64518 0.71339 0.5275 0.0
C829 C 0.66698 0.67725 0.6014 0.0
C830 C 0.6448 0.67028 0.60243 0.0
C831 C 0.67568 0.68592 0.5813 0.0
C832 C 0.65979 0.70394 0.52292 0.0
H833 H 0.68243 0.62759 0.44427 0.0
H834 H 0.68947 0.64428 0.48069 0.0
H835 H 0.65383 0.7089 0.4878 0.0
H836 H 0.61391 0.66877 0.58393 0.0
H837 H 0.62896 0.68345 0.54918 0.0
H838 H 0.70105 0.67164 0.54503 0.0
C839 C 0.68564 0.6554 0.46675 0.0
C840 C 0.66493 0.70157 0.50012 0.0
C841 C 0.68131 0.64575 0.44586 0.0
C842 C 0.63114 0.67372 0.58362 0.0
C843 C 0.63975 0.68246 0.5637 0.0
C844 C 0.69121 0.68078 0.53283 0.0
C845 C 0.68306 0.67871 0.47003 0.0
C846 C 0.68245 0.6876 0.4934 0.0
C847 C 0.66229 0.68796 0.56202 0.0
C848 C 0.67194 0.69221 0.53939 0.0
H849 H 0.66827 0.69335 0.41651 0.0
H850 H 0.67567 0.71037 0.45335 0.0
H851 H 0.71043 0.66821 0.5054 0.0
H852 H 0.67787 0.67494 0.6157 0.0
H853 H 0.69307 0.69016 0.5806 0.0
C854 C 0.30183 0.72055 0.56601 0.0
C855 C 0.32497 0.71897 0.56534 0.0
C856 C 0.29 0.72635 0.54657 0.0
C857 C 0.2951 0.74525 0.48698 0.0
H858 H 0.26383 0.68983 0.47418 0.0
C859 C 0.3053 0.69963 0.40493 0.0
C860 C 0.29226 0.68071 0.40038 0.0
C861 C 0.2999 0.71387 0.42279 0.0
C862 C 0.27172 0.7059 0.47719 0.0
H863 H 0.35402 0.72471 0.54483 0.0
H864 H 0.3335 0.73513 0.51113 0.0
H865 H 0.27209 0.69949 0.51256 0.0
H866 H 0.26195 0.66325 0.40848 0.0
H867 H 0.25132 0.68917 0.43838 0.0
H868 H 0.2954 0.75132 0.45147 0.0
C869 C 0.3244 0.73179 0.52648 0.0
C870 C 0.27652 0.71141 0.49947 0.0
C871 C 0.33616 0.72558 0.54571 0.0
C872 C 0.27228 0.67778 0.41187 0.0
C873 C 0.26643 0.69247 0.42923 0.0
C874 C 0.28986 0.74001 0.46463 0.0
C875 C 0.30121 0.7311 0.52637 0.0
C876 C 0.28955 0.7303 0.50445 0.0
C877 C 0.28107 0.70961 0.43615 0.0
C878 C 0.27956 0.71937 0.45931 0.0
H879 H 0.29281 0.71556 0.58096 0.0
H880 H 0.27213 0.72569 0.54691 0.0
H881 H 0.30489 0.76014 0.49044 0.0
H882 H 0.32091 0.70203 0.39632 0.0
H883 H 0.31176 0.72671 0.42735 0.0
C884 C 0.39291 0.32835 0.43589 0.0
C885 C 0.37488 0.3257 0.42124 0.0
C886 C 0.39064 0.32416 0.45886 0.0
C887 C 0.3499 0.32734 0.50321 0.0
H888 H 0.39816 0.30353 0.53905 0.0
C889 C 0.3557 0.33944 0.60021 0.0
C890 C 0.37605 0.34884 0.60678 0.0
C891 C 0.35297 0.33059 0.57851 0.0
C892 C 0.38446 0.31008 0.52929 0.0
H893 H 0.34049 0.31575 0.41901 0.0
H894 H 0.33638 0.30874 0.45959 0.0
H895 H 0.39789 0.29771 0.49838 0.0
H896 H 0.40964 0.35565 0.59601 0.0
H897 H 0.40493 0.34021 0.55849 0.0
H898 H 0.33707 0.34068 0.53405 0.0
C899 C 0.3523 0.31398 0.45311 0.0
C900 C 0.38429 0.30673 0.50604 0.0
C901 C 0.35467 0.31789 0.42993 0.0
C902 C 0.39372 0.34864 0.59148 0.0
C903 C 0.39109 0.33958 0.57002 0.0
C904 C 0.35005 0.33066 0.52654 0.0
C905 C 0.37021 0.3174 0.46782 0.0
C906 C 0.36754 0.31619 0.49264 0.0
C907 C 0.37066 0.33064 0.5632 0.0
C908 C 0.36785 0.32291 0.53963 0.0
H909 H 0.40872 0.33424 0.42969 0.0
H910 H 0.40468 0.32727 0.46974 0.0
H911 H 0.33682 0.33492 0.49331 0.0
H912 H 0.34177 0.33936 0.61164 0.0
H913 H 0.33705 0.32381 0.57367 0.0
C914 C 0.66035 0.3668 0.40054 0.0
C915 C 0.66451 0.35284 0.38195 0.0
C916 C 0.66334 0.35876 0.42244 0.0
C917 C 0.65928 0.30722 0.4545 0.0
H918 H 0.68259 0.344 0.50296 0.0
C919 C 0.62564 0.30752 0.54431 0.0
C920 C 0.64017 0.31011 0.56257 0.0
C921 C 0.63361 0.30726 0.5223 0.0
C922 C 0.67642 0.33329 0.4896 0.0
H923 H 0.67572 0.3197 0.37172 0.0
H924 H 0.68045 0.30547 0.41019 0.0
H925 H 0.68847 0.35547 0.46385 0.0
H926 H 0.67453 0.31336 0.57227 0.0
H927 H 0.68853 0.3135 0.53347 0.0
H928 H 0.64612 0.28575 0.48029 0.0
C929 C 0.67505 0.32269 0.4077 0.0
C930 C 0.67963 0.33995 0.46725 0.0
C931 C 0.6724 0.33086 0.38572 0.0
C932 C 0.66299 0.31124 0.55848 0.0
C933 C 0.67097 0.31143 0.53633 0.0
C934 C 0.65584 0.3007 0.47686 0.0
C935 C 0.67027 0.33649 0.42626 0.0
C936 C 0.67049 0.32736 0.44952 0.0
C937 C 0.65627 0.30998 0.51804 0.0
C938 C 0.6638 0.31405 0.49463 0.0
H939 H 0.65436 0.38383 0.3982 0.0
H940 H 0.65928 0.3697 0.43642 0.0
H941 H 0.65195 0.29725 0.44117 0.0
H942 H 0.60796 0.30654 0.54701 0.0
H943 H 0.62186 0.30634 0.50855 0.0
C944 C 0.57166 0.68063 0.70023 0.0
C945 C 0.5706 0.65811 0.69301 0.0
C946 C 0.5523 0.69213 0.70606 0.0
C947 C 0.50898 0.71361 0.69147 0.0
H948 H 0.45608 0.6835 0.71264 0.0
C949 C 0.43005 0.71119 0.64189 0.0
C950 C 0.4095 0.70816 0.65236 0.0
C951 C 0.44914 0.71378 0.65474 0.0
C952 C 0.47062 0.69262 0.70718 0.0
H953 H 0.54908 0.62927 0.68865 0.0
H954 H 0.51557 0.64908 0.69878 0.0
H955 H 0.49214 0.66991 0.72463 0.0
H956 H 0.3925 0.70723 0.68447 0.0
H957 H 0.42614 0.71143 0.70709 0.0
H958 H 0.48748 0.7355 0.67297 0.0
C959 C 0.53112 0.65805 0.69998 0.0
C960 C 0.49133 0.68468 0.71391 0.0
C961 C 0.55033 0.64669 0.69393 0.0
C962 C 0.40816 0.70948 0.67596 0.0
C963 C 0.4274 0.71181 0.6889 0.0
C964 C 0.48828 0.7216 0.68481 0.0
C965 C 0.5317 0.68118 0.70504 0.0
C966 C 0.5107 0.69413 0.70488 0.0
C967 C 0.44817 0.71321 0.6784 0.0
C968 C 0.46896 0.71022 0.69137 0.0
H969 H 0.58711 0.68982 0.69972 0.0
H970 H 0.55328 0.7099 0.71008 0.0
H971 H 0.52354 0.72137 0.68423 0.0
H972 H 0.43155 0.71043 0.62373 0.0
H973 H 0.46485 0.71453 0.64606 0.0
C974 C 0.34236 0.60122 0.61935 0.0
C975 C 0.33633 0.61977 0.63266 0.0
C976 C 0.33828 0.57927 0.62678 0.0
C977 C 0.33435 0.5474 0.6788 0.0
H978 H 0.31913 0.49825 0.63872 0.0
C979 C 0.36975 0.45872 0.68575 0.0
C980 C 0.35663 0.43999 0.68033 0.0
C981 C 0.36114 0.48044 0.68439 0.0
C982 C 0.32295 0.51179 0.65029 0.0
H983 H 0.32043 0.6298 0.66382 0.0
H984 H 0.31359 0.59134 0.67689 0.0
H985 H 0.31454 0.53716 0.62601 0.0
H986 H 0.32391 0.42909 0.67035 0.0
H987 H 0.30885 0.46742 0.66742 0.0
H988 H 0.34386 0.52203 0.70263 0.0
C989 C 0.32147 0.59387 0.66072 0.0
C990 C 0.32054 0.53405 0.64293 0.0
C991 C 0.32534 0.61587 0.65317 0.0
C992 C 0.33431 0.44328 0.67474 0.0
C993 C 0.32576 0.46515 0.67294 0.0
C994 C 0.33696 0.52515 0.68607 0.0
C995 C 0.32825 0.57534 0.64776 0.0
C996 C 0.3269 0.55206 0.65684 0.0
C997 C 0.3393 0.48395 0.67722 0.0
C998 C 0.33198 0.50713 0.67161 0.0
H999 H 0.35076 0.60363 0.60343 0.0
H1000 H 0.34393 0.56534 0.61653 0.0
H1001 H 0.33951 0.56091 0.68987 0.0
H1002 H 0.38701 0.45662 0.69014 0.0
H1003 H 0.37205 0.49457 0.68757 0.0
C1004 C 0.57732 0.2837 0.68568 0.0
C1005 C 0.57279 0.28712 0.66271 0.0
C1006 C 0.56014 0.27844 0.70063 0.0
C1007 C 0.49845 0.2693 0.70238 0.0
H1008 H 0.50135 0.31745 0.74619 0.0
C1009 C 0.44853 0.35172 0.7163 0.0
C1010 C 0.42725 0.34372 0.71144 0.0
C1011 C 0.46507 0.33694 0.72319 0.0
C1012 C 0.5002 0.30374 0.73423 0.0
H1013 H 0.54763 0.28478 0.63689 0.0
H1014 H 0.51797 0.27594 0.66249 0.0
H1015 H 0.53522 0.30185 0.73123 0.0
H1016 H 0.40579 0.31451 0.71285 0.0
H1017 H 0.43475 0.28853 0.72513 0.0
H1018 H 0.46349 0.27331 0.70307 0.0
C1019 C 0.53448 0.2772 0.66937 0.0
C1020 C 0.51973 0.2945 0.72582 0.0
C1021 C 0.55152 0.28255 0.65457 0.0
C1022 C 0.42214 0.32111 0.71624 0.0
C1023 C 0.43879 0.3062 0.72314 0.0
C1024 C 0.47892 0.27891 0.71039 0.0
C1025 C 0.53826 0.27643 0.69277 0.0
C1026 C 0.51904 0.27858 0.70831 0.0
C1027 C 0.46077 0.31371 0.72537 0.0
C1028 C 0.47968 0.29762 0.7249 0.0
H1029 H 0.59365 0.28701 0.69239 0.0
H1030 H 0.56374 0.27756 0.71849 0.0
H1031 H 0.49732 0.25634 0.68962 0.0
H1032 H 0.45289 0.36915 0.71309 0.0
H1033 H 0.48168 0.34356 0.72459 0.0
C1034 C 0.6525 0.55607 0.64877 0.0
C1035 C 0.64952 0.57048 0.66722 0.0
C1036 C 0.65762 0.53344 0.6521 0.0
C1037 C 0.64415 0.48919 0.69045 0.0
H1038 H 0.68093 0.45367 0.65059 0.0
C1039 C 0.61864 0.40377 0.65514 0.0
C1040 C 0.63437 0.38654 0.65294 0.0
C1041 C 0.62483 0.42499 0.663 0.0
C1042 C 0.6709 0.46328 0.6622 0.0
H1043 H 0.65057 0.57295 0.70358 0.0
H1044 H 0.65887 0.5328 0.70951 0.0
H1045 H 0.68658 0.49438 0.65309 0.0
H1046 H 0.66884 0.37784 0.65781 0.0
H1047 H 0.67978 0.41535 0.67104 0.0
H1048 H 0.62749 0.45832 0.69842 0.0
C1049 C 0.65756 0.53924 0.69248 0.0
C1050 C 0.67407 0.48656 0.66356 0.0
C1051 C 0.65289 0.56214 0.68911 0.0
C1052 C 0.65636 0.39082 0.65931 0.0
C1053 C 0.66263 0.41223 0.66685 0.0
C1054 C 0.64082 0.46595 0.68892 0.0
C1055 C 0.65945 0.52461 0.67397 0.0
C1056 C 0.66014 0.49984 0.677 0.0
C1057 C 0.64693 0.42956 0.66858 0.0
C1058 C 0.65358 0.45293 0.67409 0.0
H1059 H 0.65007 0.56215 0.63172 0.0
H1060 H 0.6587 0.52255 0.63752 0.0
H1061 H 0.63306 0.49901 0.70084 0.0
H1062 H 0.60155 0.40097 0.65051 0.0
H1063 H 0.61243 0.43811 0.66385 0.0
C1064 C 0.43287 0.29912 0.31197 0.0
C1065 C 0.42603 0.3217 0.31152 0.0
C1066 C 0.45196 0.29261 0.30028 0.0
C1067 C 0.49519 0.31414 0.26048 0.0
H1068 H 0.53597 0.29208 0.30578 0.0
C1069 C 0.57622 0.35528 0.28118 0.0
C1070 C 0.59458 0.34264 0.2881 0.0
C1071 C 0.55668 0.34455 0.27495 0.0
C1072 C 0.52486 0.29761 0.29257 0.0
H1073 H 0.43208 0.35464 0.29711 0.0
H1074 H 0.46484 0.34347 0.27664 0.0
H1075 H 0.49651 0.28659 0.31095 0.0
H1076 H 0.60739 0.30888 0.2929 0.0
H1077 H 0.57264 0.29001 0.2828 0.0
H1078 H 0.52357 0.32725 0.24336 0.0
C1079 C 0.45584 0.33062 0.28581 0.0
C1080 C 0.50217 0.29441 0.2955 0.0
C1081 C 0.43715 0.33713 0.29772 0.0
C1082 C 0.59344 0.31899 0.28756 0.0
C1083 C 0.57363 0.30821 0.2818 0.0
C1084 C 0.51785 0.31751 0.25767 0.0
C1085 C 0.46408 0.30856 0.28774 0.0
C1086 C 0.48706 0.30407 0.28028 0.0
C1087 C 0.55493 0.32096 0.27593 0.0
C1088 C 0.53274 0.31056 0.27445 0.0
H1089 H 0.42451 0.28699 0.32262 0.0
H1090 H 0.4579 0.27549 0.30204 0.0
H1091 H 0.48395 0.32132 0.24822 0.0
H1092 H 0.57672 0.37353 0.28135 0.0
H1093 H 0.54246 0.35485 0.27084 0.0
C1094 C 0.70048 0.43368 0.29906 0.0
C1095 C 0.6831 0.42414 0.28681 0.0
C1096 C 0.70869 0.45487 0.29317 0.0
C1097 C 0.68532 0.50599 0.26855 0.0
H1098 H 0.73933 0.53095 0.29318 0.0
C1099 C 0.68394 0.59424 0.30369 0.0
C1100 C 0.68789 0.59226 0.32691 0.0
C1101 C 0.69148 0.57752 0.28895 0.0
C1102 C 0.72433 0.52431 0.28576 0.0
H1103 H 0.66184 0.42784 0.25778 0.0
H1104 H 0.6768 0.46452 0.24671 0.0
H1105 H 0.73779 0.49109 0.2832 0.0
H1106 H 0.7049 0.57308 0.35268 0.0
H1107 H 0.7183 0.54427 0.32715 0.0
H1108 H 0.67146 0.5388 0.27232 0.0
C1109 C 0.68382 0.45605 0.26121 0.0
C1110 C 0.72336 0.50144 0.2802 0.0
C1111 C 0.67538 0.43498 0.26736 0.0
C1112 C 0.70149 0.57484 0.33484 0.0
C1113 C 0.70934 0.55845 0.32013 0.0
C1114 C 0.68639 0.52886 0.27384 0.0
C1115 C 0.69964 0.46689 0.27485 0.0
C1116 C 0.70334 0.49168 0.27307 0.0
C1117 C 0.7034 0.55892 0.29725 0.0
C1118 C 0.70539 0.53788 0.28396 0.0
H1119 H 0.70642 0.42563 0.31432 0.0
H1120 H 0.72066 0.46259 0.30431 0.0
H1121 H 0.66955 0.49929 0.26316 0.0
H1122 H 0.67348 0.60756 0.2972 0.0
H1123 H 0.68672 0.57832 0.27137 0.0
C1124 C 0.57174 0.65348 0.35479 0.0
C1125 C 0.58237 0.63286 0.359 0.0
C1126 C 0.54864 0.65457 0.35367 0.0
C1127 C 0.49932 0.65094 0.34309 0.0
H1128 H 0.46787 0.61197 0.38461 0.0
C1129 C 0.40379 0.64086 0.34211 0.0
C1130 C 0.39318 0.63739 0.36288 0.0
C1131 C 0.42689 0.64144 0.34085 0.0
C1132 C 0.47632 0.6232 0.37307 0.0
H1133 H 0.57723 0.59702 0.36397 0.0
H1134 H 0.53727 0.59875 0.36123 0.0
H1135 H 0.50781 0.61108 0.38365 0.0
H1136 H 0.39846 0.63291 0.39876 0.0
H1137 H 0.43847 0.63464 0.3967 0.0
H1138 H 0.46763 0.66366 0.33321 0.0
C1139 C 0.54656 0.61427 0.35964 0.0
C1140 C 0.49932 0.6224 0.37224 0.0
C1141 C 0.56953 0.61324 0.36106 0.0
C1142 C 0.40611 0.63528 0.38243 0.0
C1143 C 0.42911 0.63614 0.38122 0.0
C1144 C 0.47621 0.65189 0.34407 0.0
C1145 C 0.53575 0.63501 0.35649 0.0
C1146 C 0.51116 0.63615 0.35717 0.0
C1147 C 0.43985 0.6388 0.36038 0.0
C1148 C 0.46442 0.63803 0.35912 0.0
H1149 H 0.58121 0.6689 0.35316 0.0
H1150 H 0.54091 0.67086 0.35138 0.0
H1151 H 0.50786 0.66166 0.33115 0.0
H1152 H 0.39428 0.64252 0.32674 0.0
H1153 H 0.43455 0.64331 0.32449 0.0
C1154 C 0.35414 0.42188 0.32906 0.0
C1155 C 0.34353 0.40109 0.33223 0.0
C1156 C 0.34234 0.44067 0.32191 0.0
C1157 C 0.28827 0.46543 0.32655 0.0
H1158 H 0.31801 0.51249 0.29282 0.0
C1159 C 0.29716 0.56888 0.31839 0.0
C1160 C 0.29761 0.57265 0.34174 0.0
C1161 C 0.29333 0.54718 0.30997 0.0
C1162 C 0.30892 0.49956 0.30176 0.0
H1163 H 0.31227 0.38344 0.3296 0.0
H1164 H 0.29128 0.4168 0.31748 0.0
H1165 H 0.33041 0.47382 0.28947 0.0
H1166 H 0.29191 0.5573 0.37442 0.0
H1167 H 0.2858 0.51981 0.36 0.0
H1168 H 0.2673 0.49133 0.33953 0.0
C1169 C 0.30887 0.41834 0.32043 0.0
C1170 C 0.31624 0.47735 0.30001 0.0
C1171 C 0.32085 0.3993 0.32736 0.0
C1172 C 0.29204 0.55489 0.35633 0.0
C1173 C 0.28822 0.53333 0.34797 0.0
C1174 C 0.28077 0.48765 0.32812 0.0
C1175 C 0.31952 0.43927 0.31786 0.0
C1176 C 0.30703 0.46038 0.31363 0.0
C1177 C 0.28985 0.52894 0.32477 0.0
C1178 C 0.29207 0.5052 0.31702 0.0
H1179 H 0.37163 0.42381 0.33246 0.0
H1180 H 0.35101 0.45659 0.32058 0.0
H1181 H 0.28067 0.4527 0.3371 0.0
H1182 H 0.30116 0.58231 0.3067 0.0
H1183 H 0.29432 0.54447 0.29196 0.0
loop_
_geom_bond_atom_site_label_1
_geom_bond_atom_site_label_2
_geom_bond_distance
_geom_bond_site_symmetry_2
_ccdc_geom_bond_type
Zn0 O3 2.031 . S
Zn0 O5 2.049 . S
Zn0 O10 2.067 . S
Zn1 O2 1.962 . S
Zn1 O4 1.986 . S
Zn1 O6 1.996 . S
Zn1 O9 1.943 . S
O2 Zn1 1.962 . S
O2 C7 1.254 . S
O3 Zn0 2.031 . S
O3 C7 1.269 . S
O4 Zn1 1.986 . S
O4 C11 1.262 . S
O5 Zn0 2.049 . S
O5 C13 1.260 . S
O6 Zn1 1.996 . S
O6 C13 1.257 . S
C7 O2 1.254 . S
C7 O3 1.269 . S
C8 O9 1.249 . S
C8 O10 1.270 . S
O9 Zn1 1.943 . S
O9 C8 1.249 . S
O10 Zn0 2.067 . S
O10 C8 1.270 . S
C11 O4 1.262 . S
C11 O12 1.232 . S
O12 C11 1.232 . S
C13 O5 1.260 . S
C13 O6 1.257 . S
Zn14 O17 2.031 . S
Zn14 O19 2.049 . S
Zn14 O24 2.067 . S
Zn15 O16 1.962 . S
Zn15 O18 1.986 . S
Zn15 O20 1.996 . S
Zn15 O23 1.943 . S
O16 Zn15 1.962 . S
O16 C21 1.254 . S
O17 Zn14 2.031 . S
O17 C21 1.269 . S
O18 Zn15 1.986 . S
O18 C25 1.262 . S
O19 Zn14 2.049 . S
O19 C27 1.260 . S
O20 Zn15 1.996 . S
O20 C27 1.257 . S
C21 O16 1.254 . S
C21 O17 1.269 . S
C22 O23 1.249 . S
C22 O24 1.270 . S
O23 Zn15 1.943 . S
O23 C22 1.249 . S
O24 Zn14 2.067 . S
O24 C22 1.270 . S
C25 O18 1.262 . S
C25 O26 1.232 . S
O26 C25 1.232 . S
C27 O19 1.260 . S
C27 O20 1.257 . S
Zn28 O31 2.031 . S
Zn28 O33 2.049 . S
Zn28 O38 2.067 . S
Zn29 O30 1.962 . S
Zn29 O32 1.986 . S
Zn29 O34 1.996 . S
Zn29 O37 1.943 . S
O30 Zn29 1.962 . S
O30 C35 1.254 . S
O31 Zn28 2.031 . S
O31 C35 1.269 . S
O32 Zn29 1.986 . S
O32 C39 1.262 . S
O33 Zn28 2.049 . S
O33 C41 1.260 . S
O34 Zn29 1.996 . S
O34 C41 1.257 . S
C35 O30 1.254 . S
C35 O31 1.269 . S
C36 O37 1.249 . S
C36 O38 1.270 . S
O37 Zn29 1.943 . S
O37 C36 1.249 . S
O38 Zn28 2.067 . S
O38 C36 1.270 . S
C39 O32 1.262 . S
C39 O40 1.232 . S
O40 C39 1.232 . S
C41 O33 1.260 . S
C41 O34 1.257 . S
Zn42 O45 2.031 . S
Zn42 O47 2.049 . S
Zn42 O52 2.067 . S
Zn43 O44 1.962 . S
Zn43 O46 1.986 . S
Zn43 O48 1.996 . S
Zn43 O51 1.943 . S
O44 Zn43 1.962 . S
O44 C49 1.254 . S
O45 Zn42 2.031 . S
O45 C49 1.269 . S
O46 Zn43 1.986 . S
O46 C53 1.262 . S
O47 Zn42 2.049 . S
O47 C55 1.260 . S
O48 Zn43 1.996 . S
O48 C55 1.257 . S
C49 O44 1.254 . S
C49 O45 1.269 . S
C50 O51 1.249 . S
C50 O52 1.270 . S
O51 Zn43 1.943 . S
O51 C50 1.249 . S
O52 Zn42 2.067 . S
O52 C50 1.270 . S
C53 O46 1.262 . S
C53 O54 1.232 . S
O54 C53 1.232 . S
C55 O47 1.260 . S
C55 O48 1.257 . S
Zn56 O59 2.031 . S
Zn56 O61 2.049 . S
Zn56 O66 2.067 . S
Zn57 O58 1.962 . S
Zn57 O60 1.986 . S
Zn57 O62 1.996 . S
Zn57 O65 1.943 . S
O58 Zn57 1.962 . S
O58 C63 1.254 . S
O59 Zn56 2.031 . S
O59 C63 1.269 . S
O60 Zn57 1.986 . S
O60 C67 1.262 . S
O61 Zn56 2.049 . S
O61 C69 1.260 . S
O62 Zn57 1.996 . S
O62 C69 1.257 . S
C63 O58 1.254 . S
C63 O59 1.269 . S
C64 O65 1.249 . S
C64 O66 1.270 . S
O65 Zn57 1.943 . S
O65 C64 1.249 . S
O66 Zn56 2.067 . S
O66 C64 1.270 . S
C67 O60 1.262 . S
C67 O68 1.232 . S
O68 C67 1.232 . S
C69 O61 1.260 . S
C69 O62 1.257 . S
Zn70 O73 2.031 . S
Zn70 O75 2.049 . S
Zn70 O80 2.067 . S
Zn71 O72 1.962 . S
Zn71 O74 1.986 . S
Zn71 O76 1.996 . S
Zn71 O79 1.943 . S
O72 Zn71 1.962 . S
O72 C77 1.254 . S
O73 Zn70 2.031 . S
O73 C77 1.269 . S
O74 Zn71 1.986 . S
O74 C81 1.262 . S
O75 Zn70 2.049 . S
O75 C83 1.260 . S
O76 Zn71 1.996 . S
O76 C83 1.257 . S
C77 O72 1.254 . S
C77 O73 1.269 . S
C78 O79 1.249 . S
C78 O80 1.270 . S
O79 Zn71 1.943 . S
O79 C78 1.249 . S
O80 Zn70 2.067 . S
O80 C78 1.270 . S
C81 O74 1.262 . S
C81 O82 1.232 . S
O82 C81 1.232 . S
C83 O75 1.260 . S
C83 O76 1.257 . S
Zn84 O87 2.031 . S
Zn84 O89 2.049 . S
Zn84 O94 2.067 . S
Zn85 O86 1.962 . S
Zn85 O88 1.986 . S
Zn85 O90 1.996 . S
Zn85 O93 1.943 . S
O86 Zn85 1.962 . S
O86 C91 1.254 . S
O87 Zn84 2.031 . S
O87 C91 1.269 . S
O88 Zn85 1.986 . S
O88 C95 1.262 . S
O89 Zn84 2.049 . S
O89 C97 1.260 . S
O90 Zn85 1.996 . S
O90 C97 1.257 . S
C91 O86 1.254 . S
C91 O87 1.269 . S
C92 O93 1.249 . S
C92 O94 1.270 . S
O93 Zn85 1.943 . S
O93 C92 1.249 . S
O94 Zn84 2.067 . S
O94 C92 1.270 . S
C95 O88 1.262 . S
C95 O96 1.232 . S
O96 C95 1.232 . S
C97 O89 1.260 . S
C97 O90 1.257 . S
Zn98 O101 2.031 . S
Zn98 O103 2.049 . S
Zn98 O108 2.067 . S
Zn99 O100 1.962 . S
Zn99 O102 1.986 . S
Zn99 O104 1.996 . S
Zn99 O107 1.943 . S
O100 Zn99 1.962 . S
O100 C105 1.254 . S
O101 Zn98 2.031 . S
O101 C105 1.269 . S
O102 Zn99 1.986 . S
O102 C109 1.262 . S
O103 Zn98 2.049 . S
O103 C111 1.260 . S
O104 Zn99 1.996 . S
O104 C111 1.257 . S
C105 O100 1.254 . S
C105 O101 1.269 . S
C106 O107 1.249 . S
C106 O108 1.270 . S
O107 Zn99 1.943 . S
O107 C106 1.249 . S
O108 Zn98 2.067 . S
O108 C106 1.270 . S
C109 O102 1.262 . S
C109 O110 1.232 . S
O110 C109 1.232 . S
C111 O103 1.260 . S
C111 O104 1.257 . S
Zn112 O115 2.031 . S
Zn112 O117 2.049 . S
Zn112 O122 2.067 . S
Zn113 O114 1.962 . S
Zn113 O116 1.986 . S
Zn113 O118 1.996 . S
Zn113 O121 1.943 . S
O114 Zn113 1.962 . S
O114 C119 1.254 . S
O115 Zn112 2.031 . S
O115 C119 1.269 . S
O116 Zn113 1.986 . S
O116 C123 1.262 . S
O117 Zn112 2.049 . S
O117 C125 1.260 . S
O118 Zn113 1.996 . S
O118 C125 1.257 . S
C119 O114 1.254 . S
C119 O115 1.269 . S
C120 O121 1.249 . S
C120 O122 1.270 . S
O121 Zn113 1.943 . S
O121 C120 1.249 . S
O122 Zn112 2.067 . S
O122 C120 1.270 . S
C123 O116 1.262 . S
C123 O124 1.232 . S
O124 C123 1.232 . S
C125 O117 1.260 . S
C125 O118 1.257 . S
Zn126 O129 2.031 . S
Zn126 O131 2.049 . S
Zn126 O136 2.067 . S
Zn127 O128 1.962 . S
Zn127 O130 1.986 . S
Zn127 O132 1.996 . S
Zn127 O135 1.943 . S
O128 Zn127 1.962 . S
O128 C133 1.254 . S
O129 Zn126 2.031 . S
O129 C133 1.269 . S
O130 Zn127 1.986 . S
O130 C137 1.262 . S
O131 Zn126 2.049 . S
O131 C139 1.260 . S
O132 Zn127 1.996 . S
O132 C139 1.257 . S
C133 O128 1.254 . S
C133 O129 1.269 . S
C134 O135 1.249 . S
C134 O136 1.270 . S
O135 Zn127 1.943 . S
O135 C134 1.249 . S
O136 Zn126 2.067 . S
O136 C134 1.270 . S
C137 O130 1.262 . S
C137 O138 1.232 . S
O138 C137 1.232 . S
C139 O131 1.260 . S
C139 O132 1.257 . S
Zn140 O143 2.031 . S
Zn140 O145 2.049 . S
Zn140 O150 2.067 . S
Zn141 O142 1.962 . S
Zn141 O144 1.986 . S
Zn141 O146 1.996 . S
Zn141 O149 1.943 . S
O142 Zn141 1.962 . S
O142 C147 1.254 . S
O143 Zn140 2.031 . S
O143 C147 1.269 . S
O144 Zn141 1.986 . S
O144 C151 1.262 . S
O145 Zn140 2.049 . S
O145 C153 1.260 . S
O146 Zn141 1.996 . S
O146 C153 1.257 . S
C147 O142 1.254 . S
C147 O143 1.269 . S
C148 O149 1.249 . S
C148 O150 1.270 . S
O149 Zn141 1.943 . S
O149 C148 1.249 . S
O150 Zn140 2.067 . S
O150 C148 1.270 . S
C151 O144 1.262 . S
C151 O152 1.232 . S
O152 C151 1.232 . S
C153 O145 1.260 . S
C153 O146 1.257 . S
Zn154 O157 2.031 . S
Zn154 O159 2.049 . S
Zn154 O164 2.067 . S
Zn155 O156 1.962 . S
Zn155 O158 1.986 . S
Zn155 O160 1.996 . S
Zn155 O163 1.943 . S
O156 Zn155 1.962 . S
O156 C161 1.254 . S
O157 Zn154 2.031 . S
O157 C161 1.269 . S
O158 Zn155 1.986 . S
O158 C165 1.262 . S
O159 Zn154 2.049 . S
O159 C167 1.260 . S
O160 Zn155 1.996 . S
O160 C167 1.257 . S
C161 O156 1.254 . S
C161 O157 1.269 . S
C162 O163 1.249 . S
C162 O164 1.270 . S
O163 Zn155 1.943 . S
O163 C162 1.249 . S
O164 Zn154 2.067 . S
O164 C162 1.270 . S
C165 O158 1.262 . S
C165 O166 1.232 . S
O166 C165 1.232 . S
C167 O159 1.260 . S
C167 O160 1.257 . S
Zn168 O171 2.031 . S
Zn168 O173 2.049 . S
Zn168 O178 2.067 . S
Zn169 O170 1.962 . S
Zn169 O172 1.986 . S
Zn169 O174 1.996 . S
Zn169 O177 1.943 . S
O170 Zn169 1.962 . S
O170 C175 1.254 . S
O171 Zn168 2.031 . S
O171 C175 1.269 . S
O172 Zn169 1.986 . S
O172 C179 1.262 . S
O173 Zn168 2.049 . S
O173 C181 1.260 . S
O174 Zn169 1.996 . S
O174 C181 1.257 . S
C175 O170 1.254 . S
C175 O171 1.269 . S
C176 O177 1.249 . S
C176 O178 1.270 . S
O177 Zn169 1.943 . S
O177 C176 1.249 . S
O178 Zn168 2.067 . S
O178 C176 1.270 . S
C179 O172 1.262 . S
C179 O180 1.232 . S
O180 C179 1.232 . S
C181 O173 1.260 . S
C181 O174 1.257 . S
Zn182 O185 2.031 . S
Zn182 O187 2.049 . S
Zn182 O192 2.067 . S
Zn183 O184 1.962 . S
Zn183 O186 1.986 . S
Zn183 O188 1.996 . S
Zn183 O191 1.943 . S
O184 Zn183 1.962 . S
O184 C189 1.254 . S
O185 Zn182 2.031 . S
O185 C189 1.269 . S
O186 Zn183 1.986 . S
O186 C193 1.262 . S
O187 Zn182 2.049 . S
O187 C195 1.260 . S
O188 Zn183 1.996 . S
O188 C195 1.257 . S
C189 O184 1.254 . S
C189 O185 1.269 . S
C190 O191 1.249 . S
C190 O192 1.270 . S
O191 Zn183 1.943 . S
O191 C190 1.249 . S
O192 Zn182 2.067 . S
O192 C190 1.270 . S
C193 O186 1.262 . S
C193 O194 1.232 . S
O194 C193 1.232 . S
C195 O187 1.260 . S
C195 O188 1.257 . S
Zn196 O199 2.031 . S
Zn196 O201 2.049 . S
Zn196 O206 2.067 . S
Zn197 O198 1.962 . S
Zn197 O200 1.986 . S
Zn197 O202 1.996 . S
Zn197 O205 1.943 . S
O198 Zn197 1.962 . S
O198 C203 1.254 . S
O199 Zn196 2.031 . S
O199 C203 1.269 . S
O200 Zn197 1.986 . S
O200 C207 1.262 . S
O201 Zn196 2.049 . S
O201 C209 1.260 . S
O202 Zn197 1.996 . S
O202 C209 1.257 . S
C203 O198 1.254 . S
C203 O199 1.269 . S
C204 O205 1.249 . S
C204 O206 1.270 . S
O205 Zn197 1.943 . S
O205 C204 1.249 . S
O206 Zn196 2.067 . S
O206 C204 1.270 . S
C207 O200 1.262 . S
C207 O208 1.232 . S
O208 C207 1.232 . S
C209 O201 1.260 . S
C209 O202 1.257 . S
Zn210 O213 2.031 . S
Zn210 O215 2.049 . S
Zn210 O220 2.067 . S
Zn211 O212 1.962 . S
Zn211 O214 1.986 . S
Zn211 O216 1.996 . S
Zn211 O219 1.943 . S
O212 Zn211 1.962 . S
O212 C217 1.254 . S
O213 Zn210 2.031 . S
O213 C217 1.269 . S
O214 Zn211 1.986 . S
O214 C221 1.262 . S
O215 Zn210 2.049 . S
O215 C223 1.260 . S
O216 Zn211 1.996 . S
O216 C223 1.257 . S
C217 O212 1.254 . S
C217 O213 1.269 . S
C218 O219 1.249 . S
C218 O220 1.270 . S
O219 Zn211 1.943 . S
O219 C218 1.249 . S
O220 Zn210 2.067 . S
O220 C218 1.270 . S
C221 O214 1.262 . S
C221 O222 1.232 . S
O222 C221 1.232 . S
C223 O215 1.260 . S
C223 O216 1.257 . S
C224 C225 1.349 . S
C224 C226 1.327 . S
C224 H249 0.950 . S
C225 C224 1.349 . S
C225 C241 1.349 . S
C226 C224 1.327 . S
C226 C245 1.429 . S
C226 H250 0.950 . S
C227 C244 1.574 . S
C227 C246 1.368 . S
C227 H251 0.949 . S
H228 C232 0.949 . S
C229 C230 1.349 . S
C229 C231 1.327 . S
C229 H252 0.950 . S
C230 C229 1.349 . S
C230 C242 1.349 . S
C231 C229 1.327 . S
C231 C247 1.429 . S
C231 H253 0.950 . S
C232 H228 0.949 . S
C232 C240 1.574 . S
C232 C248 1.368 . S
H233 C241 0.950 . S
H234 C239 0.950 . S
H235 C240 0.949 . S
H236 C242 0.950 . S
H237 C243 0.950 . S
H238 C244 0.949 . S
C239 H234 0.950 . S
C239 C241 1.327 . S
C239 C245 1.429 . S
C240 C232 1.574 . S
C240 H235 0.949 . S
C240 C246 1.368 . S
C241 C225 1.349 . S
C241 H233 0.950 . S
C241 C239 1.327 . S
C242 C230 1.349 . S
C242 H236 0.950 . S
C242 C243 1.327 . S
C243 H237 0.950 . S
C243 C242 1.327 . S
C243 C247 1.429 . S
C244 C227 1.574 . S
C244 H238 0.949 . S
C244 C248 1.368 . S
C245 C226 1.429 . S
C245 C239 1.429 . S
C245 C246 1.523 . S
C246 C227 1.368 . S
C246 C240 1.368 . S
C246 C245 1.523 . S
C247 C231 1.429 . S
C247 C243 1.429 . S
C247 C248 1.523 . S
C248 C232 1.368 . S
C248 C244 1.368 . S
C248 C247 1.523 . S
H249 C224 0.950 . S
H250 C226 0.950 . S
H251 C227 0.949 . S
H252 C229 0.950 . S
H253 C231 0.950 . S
C254 C255 1.349 . S
C254 C256 1.327 . S
C254 H279 0.950 . S
C255 C254 1.349 . S
C255 C271 1.349 . S
C256 C254 1.327 . S
C256 C275 1.429 . S
C256 H280 0.950 . S
C257 C274 1.574 . S
C257 C276 1.368 . S
C257 H281 0.949 . S
H258 C262 0.949 . S
C259 C260 1.349 . S
C259 C261 1.327 . S
C259 H282 0.950 . S
C260 C259 1.349 . S
C260 C272 1.349 . S
C261 C259 1.327 . S
C261 C277 1.429 . S
C261 H283 0.950 . S
C262 H258 0.949 . S
C262 C270 1.574 . S
C262 C278 1.368 . S
H263 C271 0.950 . S
H264 C269 0.950 . S
H265 C270 0.949 . S
H266 C272 0.950 . S
H267 C273 0.950 . S
H268 C274 0.949 . S
C269 H264 0.950 . S
C269 C271 1.327 . S
C269 C275 1.429 . S
C270 C262 1.574 . S
C270 H265 0.949 . S
C270 C276 1.368 . S
C271 C255 1.349 . S
C271 H263 0.950 . S
C271 C269 1.327 . S
C272 C260 1.349 . S
C272 H266 0.950 . S
C272 C273 1.327 . S
C273 H267 0.950 . S
C273 C272 1.327 . S
C273 C277 1.429 . S
C274 C257 1.574 . S
C274 H268 0.949 . S
C274 C278 1.368 . S
C275 C256 1.429 . S
C275 C269 1.429 . S
C275 C276 1.523 . S
C276 C257 1.368 . S
C276 C270 1.368 . S
C276 C275 1.523 . S
C277 C261 1.429 . S
C277 C273 1.429 . S
C277 C278 1.523 . S
C278 C262 1.368 . S
C278 C274 1.368 . S
C278 C277 1.523 . S
H279 C254 0.950 . S
H280 C256 0.950 . S
H281 C257 0.949 . S
H282 C259 0.950 . S
H283 C261 0.950 . S
C284 C285 1.349 . S
C284 C286 1.327 . S
C284 H309 0.950 . S
C285 C284 1.349 . S
C285 C301 1.349 . S
C286 C284 1.327 . S
C286 C305 1.429 . S
C286 H310 0.950 . S
C287 C304 1.574 . S
C287 C306 1.368 . S
C287 H311 0.949 . S
H288 C292 0.949 . S
C289 C290 1.349 . S
C289 C291 1.327 . S
C289 H312 0.950 . S
C290 C289 1.349 . S
C290 C302 1.349 . S
C291 C289 1.327 . S
C291 C307 1.429 . S
C291 H313 0.950 . S
C292 H288 0.949 . S
C292 C300 1.574 . S
C292 C308 1.368 . S
H293 C301 0.950 . S
H294 C299 0.950 . S
H295 C300 0.949 . S
H296 C302 0.950 . S
H297 C303 0.950 . S
H298 C304 0.949 . S
C299 H294 0.950 . S
C299 C301 1.327 . S
C299 C305 1.429 . S
C300 C292 1.574 . S
C300 H295 0.949 . S
C300 C306 1.368 . S
C301 C285 1.349 . S
C301 H293 0.950 . S
C301 C299 1.327 . S
C302 C290 1.349 . S
C302 H296 0.950 . S
C302 C303 1.327 . S
C303 H297 0.950 . S
C303 C302 1.327 . S
C303 C307 1.429 . S
C304 C287 1.574 . S
C304 H298 0.949 . S
C304 C308 1.368 . S
C305 C286 1.429 . S
C305 C299 1.429 . S
C305 C306 1.523 . S
C306 C287 1.368 . S
C306 C300 1.368 . S
C306 C305 1.523 . S
C307 C291 1.429 . S
C307 C303 1.429 . S
C307 C308 1.523 . S
C308 C292 1.368 . S
C308 C304 1.368 . S
C308 C307 1.523 . S
H309 C284 0.950 . S
H310 C286 0.950 . S
H311 C287 0.949 . S
H312 C289 0.950 . S
H313 C291 0.950 . S
C314 C315 1.349 . S
C314 C316 1.327 . S
C314 H339 0.950 . S
C315 C314 1.349 . S
C315 C331 1.349 . S
C316 C314 1.327 . S
C316 C335 1.429 . S
C316 H340 0.950 . S
C317 C334 1.574 . S
C317 C336 1.368 . S
C317 H341 0.949 . S
H318 C322 0.949 . S
C319 C320 1.349 . S
C319 C321 1.327 . S
C319 H342 0.950 . S
C320 C319 1.349 . S
C320 C332 1.349 . S
C321 C319 1.327 . S
C321 C337 1.429 . S
C321 H343 0.950 . S
C322 H318 0.949 . S
C322 C330 1.574 . S
C322 C338 1.368 . S
H323 C331 0.950 . S
H324 C329 0.950 . S
H325 C330 0.949 . S
H326 C332 0.950 . S
H327 C333 0.950 . S
H328 C334 0.949 . S
C329 H324 0.950 . S
C329 C331 1.327 . S
C329 C335 1.429 . S
C330 C322 1.574 . S
C330 H325 0.949 . S
C330 C336 1.368 . S
C331 C315 1.349 . S
C331 H323 0.950 . S
C331 C329 1.327 . S
C332 C320 1.349 . S
C332 H326 0.950 . S
C332 C333 1.327 . S
C333 H327 0.950 . S
C333 C332 1.327 . S
C333 C337 1.429 . S
C334 C317 1.574 . S
C334 H328 0.949 . S
C334 C338 1.368 . S
C335 C316 1.429 . S
C335 C329 1.429 . S
C335 C336 1.523 . S
C336 C317 1.368 . S
C336 C330 1.368 . S
C336 C335 1.523 . S
C337 C321 1.429 . S
C337 C333 1.429 . S
C337 C338 1.523 . S
C338 C322 1.368 . S
C338 C334 1.368 . S
C338 C337 1.523 . S
H339 C314 0.950 . S
H340 C316 0.950 . S
H341 C317 0.949 . S
H342 C319 0.950 . S
H343 C321 0.950 . S
C344 C345 1.349 . S
C344 C346 1.327 . S
C344 H369 0.950 . S
C345 C344 1.349 . S
C345 C361 1.349 . S
C346 C344 1.327 . S
C346 C365 1.429 . S
C346 H370 0.950 . S
C347 C364 1.574 . S
C347 C366 1.368 . S
C347 H371 0.949 . S
H348 C352 0.949 . S
C349 C350 1.349 . S
C349 C351 1.327 . S
C349 H372 0.950 . S
C350 C349 1.349 . S
C350 C362 1.349 . S
C351 C349 1.327 . S
C351 C367 1.429 . S
C351 H373 0.950 . S
C352 H348 0.949 . S
C352 C360 1.574 . S
C352 C368 1.368 . S
H353 C361 0.950 . S
H354 C359 0.950 . S
H355 C360 0.949 . S
H356 C362 0.950 . S
H357 C363 0.950 . S
H358 C364 0.949 . S
C359 H354 0.950 . S
C359 C361 1.327 . S
C359 C365 1.429 . S
C360 C352 1.574 . S
C360 H355 0.949 . S
C360 C366 1.368 . S
C361 C345 1.349 . S
C361 H353 0.950 . S
C361 C359 1.327 . S
C362 C350 1.349 . S
C362 H356 0.950 . S
C362 C363 1.327 . S
C363 H357 0.950 . S
C363 C362 1.327 . S
C363 C367 1.429 . S
C364 C347 1.574 . S
C364 H358 0.949 . S
C364 C368 1.368 . S
C365 C346 1.429 . S
C365 C359 1.429 . S
C365 C366 1.523 . S
C366 C347 1.368 . S
C366 C360 1.368 . S
C366 C365 1.523 . S
C367 C351 1.429 . S
C367 C363 1.429 . S
C367 C368 1.523 . S
C368 C352 1.368 . S
C368 C364 1.368 . S
C368 C367 1.523 . S
H369 C344 0.950 . S
H370 C346 0.950 . S
H371 C347 0.949 . S
H372 C349 0.950 . S
H373 C351 0.950 . S
C374 C375 1.349 . S
C374 C376 1.327 . S
C374 H399 0.950 . S
C375 C374 1.349 . S
C375 C391 1.349 . S
C376 C374 1.327 . S
C376 C395 1.429 . S
C376 H400 0.950 . S
C377 C394 1.574 . S
C377 C396 1.368 . S
C377 H401 0.949 . S
H378 C382 0.949 . S
C379 C380 1.349 . S
C379 C381 1.327 . S
C379 H402 0.950 . S
C380 C379 1.349 . S
C380 C392 1.349 . S
C381 C379 1.327 . S
C381 C397 1.429 . S
C381 H403 0.950 . S
C382 H378 0.949 . S
C382 C390 1.574 . S
C382 C398 1.368 . S
H383 C391 0.950 . S
H384 C389 0.950 . S
H385 C390 0.949 . S
H386 C392 0.950 . S
H387 C393 0.950 . S
H388 C394 0.949 . S
C389 H384 0.950 . S
C389 C391 1.327 . S
C389 C395 1.429 . S
C390 C382 1.574 . S
C390 H385 0.949 . S
C390 C396 1.368 . S
C391 C375 1.349 . S
C391 H383 0.950 . S
C391 C389 1.327 . S
C392 C380 1.349 . S
C392 H386 0.950 . S
C392 C393 1.327 . S
C393 H387 0.950 . S
C393 C392 1.327 . S
C393 C397 1.429 . S
C394 C377 1.574 . S
C394 H388 0.949 . S
C394 C398 1.368 . S
C395 C376 1.429 . S
C395 C389 1.429 . S
C395 C396 1.523 . S
C396 C377 1.368 . S
C396 C390 1.368 . S
C396 C395 1.523 . S
C397 C381 1.429 . S
C397 C393 1.429 . S
C397 C398 1.523 . S
C398 C382 1.368 . S
C398 C394 1.368 . S
C398 C397 1.523 . S
H399 C374 0.950 . S
H400 C376 0.950 . S
H401 C377 0.949 . S
H402 C379 0.950 . S
H403 C381 0.950 . S
C404 C405 1.349 . S
C404 C406 1.327 . S
C404 H429 0.950 . S
C405 C404 1.349 . S
C405 C421 1.349 . S
C406 C404 1.327 . S
C406 C425 1.429 . S
C406 H430 0.950 . S
C407 C424 1.574 . S
C407 C426 1.368 . S
C407 H431 0.949 . S
H408 C412 0.949 . S
C409 C410 1.349 . S
C409 C411 1.327 . S
C409 H432 0.950 . S
C410 C409 1.349 . S
C410 C422 1.349 . S
C411 C409 1.327 . S
C411 C427 1.429 . S
C411 H433 0.950 . S
C412 H408 0.949 . S
C412 C420 1.574 . S
C412 C428 1.368 . S
H413 C421 0.950 . S
H414 C419 0.950 . S
H415 C420 0.949 . S
H416 C422 0.950 . S
H417 C423 0.950 . S
H418 C424 0.949 . S
C419 H414 0.950 . S
C419 C421 1.327 . S
C419 C425 1.429 . S
C420 C412 1.574 . S
C420 H415 0.949 . S
C420 C426 1.368 . S
C421 C405 1.349 . S
C421 H413 0.950 . S
C421 C419 1.327 . S
C422 C410 1.349 . S
C422 H416 0.950 . S
C422 C423 1.327 . S
C423 H417 0.950 . S
C423 C422 1.327 . S
C423 C427 1.429 . S
C424 C407 1.574 . S
C424 H418 0.949 . S
C424 C428 1.368 . S
C425 C406 1.429 . S
C425 C419 1.429 . S
C425 C426 1.523 . S
C426 C407 1.368 . S
C426 C420 1.368 . S
C426 C425 1.523 . S
C427 C411 1.429 . S
C427 C423 1.429 . S
C427 C428 1.523 . S
C428 C412 1.368 . S
C428 C424 1.368 . S
C428 C427 1.523 . S
H429 C404 0.950 . S
H430 C406 0.950 . S
H431 C407 0.949 . S
H432 C409 0.950 . S
H433 C411 0.950 . S
C434 C435 1.349 . S
C434 C436 1.327 . S
C434 H459 0.950 . S
C435 C434 1.349 . S
C435 C451 1.349 . S
C436 C434 1.327 . S
C436 C455 1.429 . S
C436 H460 0.950 . S
C437 C454 1.574 . S
C437 C456 1.368 . S
C437 H461 0.949 . S
H438 C442 0.949 . S
C439 C440 1.349 . S
C439 C441 1.327 . S
C439 H462 0.950 . S
C440 C439 1.349 . S
C440 C452 1.349 . S
C441 C439 1.327 . S
C441 C457 1.429 . S
C441 H463 0.950 . S
C442 H438 0.949 . S
C442 C450 1.574 . S
C442 C458 1.368 . S
H443 C451 0.950 . S
H444 C449 0.950 . S
H445 C450 0.949 . S
H446 C452 0.950 . S
H447 C453 0.950 . S
H448 C454 0.949 . S
C449 H444 0.950 . S
C449 C451 1.327 . S
C449 C455 1.429 . S
C450 C442 1.574 . S
C450 H445 0.949 . S
C450 C456 1.368 . S
C451 C435 1.349 . S
C451 H443 0.950 . S
C451 C449 1.327 . S
C452 C440 1.349 . S
C452 H446 0.950 . S
C452 C453 1.327 . S
C453 H447 0.950 . S
C453 C452 1.327 . S
C453 C457 1.429 . S
C454 C437 1.574 . S
C454 H448 0.949 . S
C454 C458 1.368 . S
C455 C436 1.429 . S
C455 C449 1.429 . S
C455 C456 1.523 . S
C456 C437 1.368 . S
C456 C450 1.368 . S
C456 C455 1.523 . S
C457 C441 1.429 . S
C457 C453 1.429 . S
C457 C458 1.523 . S
C458 C442 1.368 . S
C458 C454 1.368 . S
C458 C457 1.523 . S
H459 C434 0.950 . S
H460 C436 0.950 . S
H461 C437 0.949 . S
H462 C439 0.950 . S
H463 C441 0.950 . S
C464 C465 1.349 . S
C464 C466 1.327 . S
C464 H489 0.950 . S
C465 C464 1.349 . S
C465 C481 1.349 . S
C466 C464 1.327 . S
C466 C485 1.429 . S
C466 H490 0.950 . S
C467 C484 1.574 . S
C467 C486 1.368 1_554 S
C467 H491 0.949 1_554 S
H468 C472 0.949 . S
C469 C470 1.349 . S
C469 C471 1.327 . S
C469 H492 0.950 . S
C470 C469 1.349 . S
C470 C482 1.349 . S
C471 C469 1.327 . S
C471 C487 1.429 . S
C471 H493 0.950 . S
C472 H468 0.949 . S
C472 C480 1.568 1_554 S
C472 C488 1.368 . S
H473 C481 0.950 . S
H474 C479 0.950 . S
H475 C480 0.952 . S
H476 C482 0.950 . S
H477 C483 0.950 . S
H478 C484 0.949 . S
C479 H474 0.950 . S
C479 C481 1.327 . S
C479 C485 1.429 . S
C480 C472 1.568 1_556 S
C480 H475 0.952 . S
C480 C486 1.370 . S
C481 C465 1.349 . S
C481 H473 0.950 . S
C481 C479 1.327 . S
C482 C470 1.349 . S
C482 H476 0.950 . S
C482 C483 1.327 . S
C483 H477 0.950 . S
C483 C482 1.327 . S
C483 C487 1.429 . S
C484 C467 1.574 . S
C484 H478 0.949 . S
C484 C488 1.368 . S
C485 C466 1.429 . S
C485 C479 1.429 . S
C485 C486 1.523 . S
C486 C467 1.368 1_556 S
C486 C480 1.370 . S
C486 C485 1.523 . S
C487 C471 1.429 . S
C487 C483 1.429 . S
C487 C488 1.523 . S
C488 C472 1.368 . S
C488 C484 1.368 . S
C488 C487 1.523 . S
H489 C464 0.950 . S
H490 C466 0.950 . S
H491 C467 0.949 1_556 S
H492 C469 0.950 . S
H493 C471 0.950 . S
C494 C495 1.349 . S
C494 C496 1.327 . S
C494 H519 0.950 . S
C495 C494 1.349 . S
C495 C511 1.349 . S
C496 C494 1.327 . S
C496 C515 1.429 . S
C496 H520 0.950 . S
C497 C514 1.574 . S
C497 C516 1.368 . S
C497 H521 0.949 . S
H498 C502 0.981 . S
C499 C500 1.349 . S
C499 C501 1.327 . S
C499 H522 0.950 . S
C500 C499 1.349 . S
C500 C512 1.349 . S
C501 C499 1.327 . S
C501 C517 1.429 . S
C501 H523 0.950 . S
C502 H498 0.981 . S
C502 C510 1.524 1_554 S
C502 C518 1.384 . S
H503 C511 0.950 . S
H504 C509 0.950 . S
H505 C510 0.949 . S
H506 C512 0.950 . S
H507 C513 0.950 . S
H508 C514 0.949 1_554 S
C509 H504 0.950 . S
C509 C511 1.327 . S
C509 C515 1.429 . S
C510 C502 1.524 1_556 S
C510 H505 0.949 . S
C510 C516 1.368 . S
C511 C495 1.349 . S
C511 H503 0.950 . S
C511 C509 1.327 . S
C512 C500 1.349 . S
C512 H506 0.950 . S
C512 C513 1.327 . S
C513 H507 0.950 . S
C513 C512 1.327 . S
C513 C517 1.429 . S
C514 C497 1.574 . S
C514 H508 0.949 1_556 S
C514 C518 1.368 1_556 S
C515 C496 1.429 . S
C515 C509 1.429 . S
C515 C516 1.523 . S
C516 C497 1.368 . S
C516 C510 1.368 . S
C516 C515 1.523 . S
C517 C501 1.429 . S
C517 C513 1.429 . S
C517 C518 1.523 . S
C518 C502 1.384 . S
C518 C514 1.368 1_554 S
C518 C517 1.523 . S
H519 C494 0.950 . S
H520 C496 0.950 . S
H521 C497 0.949 . S
H522 C499 0.950 . S
H523 C501 0.950 . S
C524 C525 1.349 . S
C524 C526 1.327 . S
C524 H549 0.950 . S
C525 C524 1.349 . S
C525 C541 1.349 . S
C526 C524 1.327 . S
C526 C545 1.429 . S
C526 H550 0.950 . S
C527 C544 1.550 1_556 S
C527 C546 1.376 . S
C527 H551 0.964 . S
H528 C532 0.949 . S
C529 C530 1.349 . S
C529 C531 1.327 . S
C529 H552 0.950 . S
C530 C529 1.349 . S
C530 C542 1.349 . S
C531 C529 1.327 . S
C531 C547 1.429 . S
C531 H553 0.950 . S
C532 H528 0.949 . S
C532 C540 1.574 . S
C532 C548 1.368 . S
H533 C541 0.950 . S
H534 C539 0.950 . S
H535 C540 0.949 1_556 S
H536 C542 0.950 . S
H537 C543 0.950 . S
H538 C544 0.949 . S
C539 H534 0.950 . S
C539 C541 1.327 . S
C539 C545 1.429 . S
C540 C532 1.574 . S
C540 H535 0.949 1_554 S
C540 C546 1.368 1_554 S
C541 C525 1.349 . S
C541 H533 0.950 . S
C541 C539 1.327 . S
C542 C530 1.349 . S
C542 H536 0.950 . S
C542 C543 1.327 . S
C543 H537 0.950 . S
C543 C542 1.327 . S
C543 C547 1.429 . S
C544 C527 1.550 1_554 S
C544 H538 0.949 . S
C544 C548 1.368 . S
C545 C526 1.429 . S
C545 C539 1.429 . S
C545 C546 1.523 . S
C546 C527 1.376 . S
C546 C540 1.368 1_556 S
C546 C545 1.523 . S
C547 C531 1.429 . S
C547 C543 1.429 . S
C547 C548 1.523 . S
C548 C532 1.368 . S
C548 C544 1.368 . S
C548 C547 1.523 . S
H549 C524 0.950 . S
H550 C526 0.950 . S
H551 C527 0.964 . S
H552 C529 0.950 . S
H553 C531 0.950 . S
C554 C555 1.349 . S
C554 C556 1.327 . S
C554 H579 0.950 . S
C555 C554 1.349 . S
C555 C571 1.349 . S
C556 C554 1.327 . S
C556 C575 1.429 . S
C556 H580 0.950 . S
C557 C574 1.566 1_554 S
C557 C576 1.371 . S
C557 H581 0.954 . S
H558 C562 0.949 . S
C559 C560 1.349 . S
C559 C561 1.327 . S
C559 H582 0.950 . S
C560 C559 1.349 . S
C560 C572 1.349 . S
C561 C559 1.327 . S
C561 C577 1.429 . S
C561 H583 0.950 . S
C562 H558 0.949 . S
C562 C570 1.574 . S
C562 C578 1.368 . S
H563 C571 0.950 . S
H564 C569 0.950 . S
H565 C570 0.949 1_554 S
H566 C572 0.950 . S
H567 C573 0.950 . S
H568 C574 0.949 . S
C569 H564 0.950 . S
C569 C571 1.327 . S
C569 C575 1.429 . S
C570 C562 1.574 . S
C570 H565 0.949 1_556 S
C570 C576 1.368 1_556 S
C571 C555 1.349 . S
C571 H563 0.950 . S
C571 C569 1.327 . S
C572 C560 1.349 . S
C572 H566 0.950 . S
C572 C573 1.327 . S
C573 H567 0.950 . S
C573 C572 1.327 . S
C573 C577 1.429 . S
C574 C557 1.566 1_556 S
C574 H568 0.949 . S
C574 C578 1.368 . S
C575 C556 1.429 . S
C575 C569 1.429 . S
C575 C576 1.523 . S
C576 C557 1.371 . S
C576 C570 1.368 1_554 S
C576 C575 1.523 . S
C577 C561 1.429 . S
C577 C573 1.429 . S
C577 C578 1.523 . S
C578 C562 1.368 . S
C578 C574 1.368 . S
C578 C577 1.523 . S
H579 C554 0.950 . S
H580 C556 0.950 . S
H581 C557 0.954 . S
H582 C559 0.950 . S
H583 C561 0.950 . S
C584 C585 1.349 . S
C584 C586 1.327 . S
C584 H609 0.950 . S
C585 C584 1.349 . S
C585 C601 1.349 . S
C586 C584 1.327 . S
C586 C605 1.429 . S
C586 H610 0.950 . S
C587 C604 1.574 1_455 S
C587 C606 1.368 . S
C587 H611 0.949 . S
H588 C592 0.949 . S
C589 C590 1.349 . S
C589 C591 1.327 . S
C589 H612 0.950 . S
C590 C589 1.349 . S
C590 C602 1.349 . S
C591 C589 1.327 . S
C591 C607 1.429 . S
C591 H613 0.950 . S
C592 H588 0.949 . S
C592 C600 1.574 1_655 S
C592 C608 1.368 . S
H593 C601 0.950 . S
H594 C599 0.950 . S
H595 C600 0.949 . S
H596 C602 0.950 . S
H597 C603 0.950 . S
H598 C604 0.949 . S
C599 H594 0.950 . S
C599 C601 1.327 . S
C599 C605 1.429 . S
C600 C592 1.574 1_455 S
C600 H595 0.949 . S
C600 C606 1.368 . S
C601 C585 1.349 . S
C601 H593 0.950 . S
C601 C599 1.327 . S
C602 C590 1.349 . S
C602 H596 0.950 . S
C602 C603 1.327 . S
C603 H597 0.950 . S
C603 C602 1.327 . S
C603 C607 1.429 . S
C604 C587 1.574 1_655 S
C604 H598 0.949 . S
C604 C608 1.368 . S
C605 C586 1.429 . S
C605 C599 1.429 . S
C605 C606 1.523 . S
C606 C587 1.368 . S
C606 C600 1.368 . S
C606 C605 1.523 . S
C607 C591 1.429 . S
C607 C603 1.429 . S
C607 C608 1.523 . S
C608 C592 1.368 . S
C608 C604 1.368 . S
C608 C607 1.523 . S
H609 C584 0.950 . S
H610 C586 0.950 . S
H611 C587 0.949 . S
H612 C589 0.950 . S
H613 C591 0.950 . S
C614 C615 1.349 . S
C614 C616 1.327 . S
C614 H639 0.950 . S
C615 C614 1.349 . S
C615 C631 1.349 . S
C616 C614 1.327 . S
C616 C635 1.429 . S
C616 H640 0.950 . S
C617 C634 1.601 . S
C617 C636 1.359 1_545 S
C617 H641 0.934 1_545 S
H618 C622 0.949 . S
C619 C620 1.349 . S
C619 C621 1.327 . S
C619 H642 0.950 . S
C620 C619 1.349 . S
C620 C632 1.349 . S
C621 C619 1.327 . S
C621 C637 1.429 . S
C621 H643 0.950 . S
C622 H618 0.949 . S
C622 C630 1.574 . S
C622 C638 1.368 . S
H623 C631 0.950 . S
H624 C629 0.950 . S
H625 C630 0.949 1_565 S
H626 C632 0.950 . S
H627 C633 0.950 . S
H628 C634 0.949 . S
C629 H624 0.950 . S
C629 C631 1.327 . S
C629 C635 1.429 . S
C630 C622 1.574 . S
C630 H625 0.949 1_545 S
C630 C636 1.368 1_545 S
C631 C615 1.349 . S
C631 H623 0.950 . S
C631 C629 1.327 . S
C632 C620 1.349 . S
C632 H626 0.950 . S
C632 C633 1.327 . S
C633 H627 0.950 . S
C633 C632 1.327 . S
C633 C637 1.429 . S
C634 C617 1.601 . S
C634 H628 0.949 . S
C634 C638 1.368 . S
C635 C616 1.429 . S
C635 C629 1.429 . S
C635 C636 1.523 . S
C636 C617 1.359 1_565 S
C636 C630 1.368 1_565 S
C636 C635 1.523 . S
C637 C621 1.429 . S
C637 C633 1.429 . S
C637 C638 1.523 . S
C638 C622 1.368 . S
C638 C634 1.368 . S
C638 C637 1.523 . S
H639 C614 0.950 . S
H640 C616 0.950 . S
H641 C617 0.934 1_565 S
H642 C619 0.950 . S
H643 C621 0.950 . S
C644 C645 1.349 . S
C644 C646 1.327 . S
C644 H669 0.950 . S
C645 C644 1.349 . S
C645 C661 1.349 . S
C646 C644 1.327 . S
C646 C665 1.429 . S
C646 H670 0.950 . S
C647 C664 1.574 1_655 S
C647 C666 1.368 . S
C647 H671 0.949 . S
H648 C652 0.949 . S
C649 C650 1.349 . S
C649 C651 1.327 . S
C649 H672 0.950 . S
C650 C649 1.349 . S
C650 C662 1.349 . S
C651 C649 1.327 . S
C651 C667 1.429 . S
C651 H673 0.950 . S
C652 H648 0.949 . S
C652 C660 1.574 1_455 S
C652 C668 1.368 . S
H653 C661 0.950 . S
H654 C659 0.950 . S
H655 C660 0.949 . S
H656 C662 0.950 . S
H657 C663 0.950 . S
H658 C664 0.949 . S
C659 H654 0.950 . S
C659 C661 1.327 . S
C659 C665 1.429 . S
C660 C652 1.574 1_655 S
C660 H655 0.949 . S
C660 C666 1.368 . S
C661 C645 1.349 . S
C661 H653 0.950 . S
C661 C659 1.327 . S
C662 C650 1.349 . S
C662 H656 0.950 . S
C662 C663 1.327 . S
C663 H657 0.950 . S
C663 C662 1.327 . S
C663 C667 1.429 . S
C664 C647 1.574 1_455 S
C664 H658 0.949 . S
C664 C668 1.368 . S
C665 C646 1.429 . S
C665 C659 1.429 . S
C665 C666 1.523 . S
C666 C647 1.368 . S
C666 C660 1.368 . S
C666 C665 1.523 . S
C667 C651 1.429 . S
C667 C663 1.429 . S
C667 C668 1.523 . S
C668 C652 1.368 . S
C668 C664 1.368 . S
C668 C667 1.523 . S
H669 C644 0.950 . S
H670 C646 0.950 . S
H671 C647 0.949 . S
H672 C649 0.950 . S
H673 C651 0.950 . S
C674 C675 1.349 . S
C674 C676 1.327 . S
C674 H699 0.950 . S
C675 C674 1.349 . S
C675 C691 1.349 . S
C676 C674 1.327 . S
C676 C695 1.429 . S
C676 H700 0.950 . S
C677 C694 1.572 1_545 S
C677 C696 1.369 . S
C677 H701 0.950 . S
H678 C682 0.949 . S
C679 C680 1.349 . S
C679 C681 1.327 . S
C679 H702 0.950 . S
C680 C679 1.349 . S
C680 C692 1.349 . S
C681 C679 1.327 . S
C681 C697 1.429 . S
C681 H703 0.950 . S
C682 H678 0.949 . S
C682 C690 1.574 . S
C682 C698 1.368 . S
H683 C691 0.950 . S
H684 C689 0.950 . S
H685 C690 0.949 1_545 S
H686 C692 0.950 . S
H687 C693 0.950 . S
H688 C694 0.949 . S
C689 H684 0.950 . S
C689 C691 1.327 . S
C689 C695 1.429 . S
C690 C682 1.574 . S
C690 H685 0.949 1_565 S
C690 C696 1.368 1_565 S
C691 C675 1.349 . S
C691 H683 0.950 . S
C691 C689 1.327 . S
C692 C680 1.349 . S
C692 H686 0.950 . S
C692 C693 1.327 . S
C693 H687 0.950 . S
C693 C692 1.327 . S
C693 C697 1.429 . S
C694 C677 1.572 1_565 S
C694 H688 0.949 . S
C694 C698 1.368 . S
C695 C676 1.429 . S
C695 C689 1.429 . S
C695 C696 1.523 . S
C696 C677 1.369 . S
C696 C690 1.368 1_545 S
C696 C695 1.523 . S
C697 C681 1.429 . S
C697 C693 1.429 . S
C697 C698 1.523 . S
C698 C682 1.368 . S
C698 C694 1.368 . S
C698 C697 1.523 . S
H699 C674 0.950 . S
H700 C676 0.950 . S
H701 C677 0.950 . S
H702 C679 0.950 . S
H703 C681 0.950 . S
C704 C705 1.349 . S
C704 C706 1.327 . S
C704 H729 0.950 . S
C705 C704 1.349 . S
C705 C721 1.349 . S
C706 C704 1.327 . S
C706 C725 1.429 . S
C706 H730 0.950 . S
C707 C724 1.574 1_655 S
C707 C726 1.368 . S
C707 H731 0.949 . S
H708 C712 0.949 . S
C709 C710 1.349 . S
C709 C711 1.327 . S
C709 H732 0.950 . S
C710 C709 1.349 . S
C710 C722 1.349 . S
C711 C709 1.327 . S
C711 C727 1.429 . S
C711 H733 0.950 . S
C712 H708 0.949 . S
C712 C720 1.574 1_455 S
C712 C728 1.368 . S
H713 C721 0.950 . S
H714 C719 0.950 . S
H715 C720 0.949 . S
H716 C722 0.950 . S
H717 C723 0.950 . S
H718 C724 0.949 . S
C719 H714 0.950 . S
C719 C721 1.327 . S
C719 C725 1.429 . S
C720 C712 1.574 1_655 S
C720 H715 0.949 . S
C720 C726 1.368 . S
C721 C705 1.349 . S
C721 H713 0.950 . S
C721 C719 1.327 . S
C722 C710 1.349 . S
C722 H716 0.950 . S
C722 C723 1.327 . S
C723 H717 0.950 . S
C723 C722 1.327 . S
C723 C727 1.429 . S
C724 C707 1.574 1_455 S
C724 H718 0.949 . S
C724 C728 1.368 . S
C725 C706 1.429 . S
C725 C719 1.429 . S
C725 C726 1.523 . S
C726 C707 1.368 . S
C726 C720 1.368 . S
C726 C725 1.523 . S
C727 C711 1.429 . S
C727 C723 1.429 . S
C727 C728 1.523 . S
C728 C712 1.368 . S
C728 C724 1.368 . S
C728 C727 1.523 . S
H729 C704 0.950 . S
H730 C706 0.950 . S
H731 C707 0.949 . S
H732 C709 0.950 . S
H733 C711 0.950 . S
C734 C735 1.349 . S
C734 C736 1.327 . S
C734 H759 0.950 . S
C735 C734 1.349 . S
C735 C751 1.349 . S
C736 C734 1.327 . S
C736 C755 1.429 . S
C736 H760 0.950 . S
C737 C754 1.574 . S
C737 C756 1.368 1_545 S
C737 H761 0.949 1_545 S
H738 C742 0.949 . S
C739 C740 1.349 . S
C739 C741 1.327 . S
C739 H762 0.950 . S
C740 C739 1.349 . S
C740 C752 1.349 . S
C741 C739 1.327 . S
C741 C757 1.429 . S
C741 H763 0.950 . S
C742 H738 0.949 . S
C742 C750 1.581 . S
C742 C758 1.368 . S
H743 C751 0.950 . S
H744 C749 0.950 . S
H745 C750 0.945 1_565 S
H746 C752 0.950 . S
H747 C753 0.950 . S
H748 C754 0.949 . S
C749 H744 0.950 . S
C749 C751 1.327 . S
C749 C755 1.429 . S
C750 C742 1.581 . S
C750 H745 0.945 1_545 S
C750 C756 1.366 1_545 S
C751 C735 1.349 . S
C751 H743 0.950 . S
C751 C749 1.327 . S
C752 C740 1.349 . S
C752 H746 0.950 . S
C752 C753 1.327 . S
C753 H747 0.950 . S
C753 C752 1.327 . S
C753 C757 1.429 . S
C754 C737 1.574 . S
C754 H748 0.949 . S
C754 C758 1.368 . S
C755 C736 1.429 . S
C755 C749 1.429 . S
C755 C756 1.523 . S
C756 C737 1.368 1_565 S
C756 C750 1.366 1_565 S
C756 C755 1.523 . S
C757 C741 1.429 . S
C757 C753 1.429 . S
C757 C758 1.523 . S
C758 C742 1.368 . S
C758 C754 1.368 . S
C758 C757 1.523 . S
H759 C734 0.950 . S
H760 C736 0.950 . S
H761 C737 0.949 1_565 S
H762 C739 0.950 . S
H763 C741 0.950 . S
C764 C765 1.349 . S
C764 C766 1.327 . S
C764 H789 0.950 . S
C765 C764 1.349 . S
C765 C781 1.349 . S
C766 C764 1.327 . S
C766 C785 1.429 . S
C766 H790 0.950 . S
C767 C784 1.574 1_455 S
C767 C786 1.368 . S
C767 H791 0.949 . S
H768 C772 0.949 . S
C769 C770 1.349 . S
C769 C771 1.327 . S
C769 H792 0.950 . S
C770 C769 1.349 . S
C770 C782 1.349 . S
C771 C769 1.327 . S
C771 C787 1.429 . S
C771 H793 0.950 . S
C772 H768 0.949 . S
C772 C780 1.574 1_655 S
C772 C788 1.368 . S
H773 C781 0.950 . S
H774 C779 0.950 . S
H775 C780 0.949 . S
H776 C782 0.950 . S
H777 C783 0.950 . S
H778 C784 0.949 . S
C779 H774 0.950 . S
C779 C781 1.327 . S
C779 C785 1.429 . S
C780 C772 1.574 1_455 S
C780 H775 0.949 . S
C780 C786 1.368 . S
C781 C765 1.349 . S
C781 H773 0.950 . S
C781 C779 1.327 . S
C782 C770 1.349 . S
C782 H776 0.950 . S
C782 C783 1.327 . S
C783 H777 0.950 . S
C783 C782 1.327 . S
C783 C787 1.429 . S
C784 C767 1.574 1_655 S
C784 H778 0.949 . S
C784 C788 1.368 . S
C785 C766 1.429 . S
C785 C779 1.429 . S
C785 C786 1.523 . S
C786 C767 1.368 . S
C786 C780 1.368 . S
C786 C785 1.523 . S
C787 C771 1.429 . S
C787 C783 1.429 . S
C787 C788 1.523 . S
C788 C772 1.368 . S
C788 C784 1.368 . S
C788 C787 1.523 . S
H789 C764 0.950 . S
H790 C766 0.950 . S
H791 C767 0.949 . S
H792 C769 0.950 . S
H793 C771 0.950 . S
C794 C795 1.349 . S
C794 C796 1.327 . S
C794 H819 0.950 . S
C795 C794 1.349 . S
C795 C811 1.349 . S
C796 C794 1.327 . S
C796 C815 1.429 . S
C796 H820 0.950 . S
C797 C814 1.523 1_565 S
C797 C816 1.368 . S
C797 H821 0.949 . S
H798 C802 0.949 1_545 S
C799 C800 1.349 . S
C799 C801 1.327 . S
C799 H822 0.950 . S
C800 C799 1.349 . S
C800 C812 1.349 . S
C801 C799 1.327 . S
C801 C817 1.429 . S
C801 H823 0.950 . S
C802 H798 0.949 1_565 S
C802 C810 1.574 . S
C802 C818 1.368 1_565 S
H803 C811 0.950 . S
H804 C809 0.950 . S
H805 C810 0.949 . S
H806 C812 0.950 . S
H807 C813 0.950 . S
H808 C814 0.982 . S
C809 H804 0.950 . S
C809 C811 1.327 . S
C809 C815 1.429 . S
C810 C802 1.574 . S
C810 H805 0.949 . S
C810 C816 1.368 . S
C811 C795 1.349 . S
C811 H803 0.950 . S
C811 C809 1.327 . S
C812 C800 1.349 . S
C812 H806 0.950 . S
C812 C813 1.327 . S
C813 H807 0.950 . S
C813 C812 1.327 . S
C813 C817 1.429 . S
C814 C797 1.523 1_545 S
C814 H808 0.982 . S
C814 C818 1.384 . S
C815 C796 1.429 . S
C815 C809 1.429 . S
C815 C816 1.523 . S
C816 C797 1.368 . S
C816 C810 1.368 . S
C816 C815 1.523 . S
C817 C801 1.429 . S
C817 C813 1.429 . S
C817 C818 1.523 . S
C818 C802 1.368 1_545 S
C818 C814 1.384 . S
C818 C817 1.523 . S
H819 C794 0.950 . S
H820 C796 0.950 . S
H821 C797 0.949 . S
H822 C799 0.950 . S
H823 C801 0.950 . S
C824 C825 1.349 . S
C824 C826 1.327 . S
C824 H849 0.950 . S
C825 C824 1.349 . S
C825 C841 1.349 . S
C826 C824 1.327 . S
C826 C845 1.429 . S
C826 H850 0.950 . S
C827 C844 1.574 . S
C827 C846 1.368 . S
C827 H851 0.949 . S
H828 C832 0.949 . S
C829 C830 1.349 . S
C829 C831 1.327 . S
C829 H852 0.950 . S
C830 C829 1.349 . S
C830 C842 1.349 . S
C831 C829 1.327 . S
C831 C847 1.429 . S
C831 H853 0.950 . S
C832 H828 0.949 . S
C832 C840 1.574 . S
C832 C848 1.368 . S
H833 C841 0.950 . S
H834 C839 0.950 . S
H835 C840 0.949 . S
H836 C842 0.950 . S
H837 C843 0.950 . S
H838 C844 0.949 . S
C839 H834 0.950 . S
C839 C841 1.327 . S
C839 C845 1.429 . S
C840 C832 1.574 . S
C840 H835 0.949 . S
C840 C846 1.368 . S
C841 C825 1.349 . S
C841 H833 0.950 . S
C841 C839 1.327 . S
C842 C830 1.349 . S
C842 H836 0.950 . S
C842 C843 1.327 . S
C843 H837 0.950 . S
C843 C842 1.327 . S
C843 C847 1.429 . S
C844 C827 1.574 . S
C844 H838 0.949 . S
C844 C848 1.368 . S
C845 C826 1.429 . S
C845 C839 1.429 . S
C845 C846 1.523 . S
C846 C827 1.368 . S
C846 C840 1.368 . S
C846 C845 1.523 . S
C847 C831 1.429 . S
C847 C843 1.429 . S
C847 C848 1.523 . S
C848 C832 1.368 . S
C848 C844 1.368 . S
C848 C847 1.523 . S
H849 C824 0.950 . S
H850 C826 0.950 . S
H851 C827 0.949 . S
H852 C829 0.950 . S
H853 C831 0.950 . S
C854 C855 1.349 . S
C854 C856 1.327 . S
C854 H879 0.950 . S
C855 C854 1.349 . S
C855 C871 1.349 . S
C856 C854 1.327 . S
C856 C875 1.429 . S
C856 H880 0.950 . S
C857 C874 1.574 . S
C857 C876 1.368 . S
C857 H881 0.949 . S
H858 C862 0.949 . S
C859 C860 1.349 . S
C859 C861 1.327 . S
C859 H882 0.950 . S
C860 C859 1.349 . S
C860 C872 1.349 . S
C861 C859 1.327 . S
C861 C877 1.429 . S
C861 H883 0.950 . S
C862 H858 0.949 . S
C862 C870 1.574 . S
C862 C878 1.368 . S
H863 C871 0.950 . S
H864 C869 0.950 . S
H865 C870 0.949 . S
H866 C872 0.950 . S
H867 C873 0.950 . S
H868 C874 0.949 . S
C869 H864 0.950 . S
C869 C871 1.327 . S
C869 C875 1.429 . S
C870 C862 1.574 . S
C870 H865 0.949 . S
C870 C876 1.368 . S
C871 C855 1.349 . S
C871 H863 0.950 . S
C871 C869 1.327 . S
C872 C860 1.349 . S
C872 H866 0.950 . S
C872 C873 1.327 . S
C873 H867 0.950 . S
C873 C872 1.327 . S
C873 C877 1.429 . S
C874 C857 1.574 . S
C874 H868 0.949 . S
C874 C878 1.368 . S
C875 C856 1.429 . S
C875 C869 1.429 . S
C875 C876 1.523 . S
C876 C857 1.368 . S
C876 C870 1.368 . S
C876 C875 1.523 . S
C877 C861 1.429 . S
C877 C873 1.429 . S
C877 C878 1.523 . S
C878 C862 1.368 . S
C878 C874 1.368 . S
C878 C877 1.523 . S
H879 C854 0.950 . S
H880 C856 0.950 . S
H881 C857 0.949 . S
H882 C859 0.950 . S
H883 C861 0.950 . S
C884 C885 1.349 . S
C884 C886 1.327 . S
C884 H909 0.950 . S
C885 C884 1.349 . S
C885 C901 1.349 . S
C886 C884 1.327 . S
C886 C905 1.429 . S
C886 H910 0.950 . S
C887 C904 1.574 . S
C887 C906 1.368 . S
C887 H911 0.949 . S
H888 C892 0.949 . S
C889 C890 1.349 . S
C889 C891 1.327 . S
C889 H912 0.950 . S
C890 C889 1.349 . S
C890 C902 1.349 . S
C891 C889 1.327 . S
C891 C907 1.429 . S
C891 H913 0.950 . S
C892 H888 0.949 . S
C892 C900 1.574 . S
C892 C908 1.368 . S
H893 C901 0.950 . S
H894 C899 0.950 . S
H895 C900 0.949 . S
H896 C902 0.950 . S
H897 C903 0.950 . S
H898 C904 0.949 . S
C899 H894 0.950 . S
C899 C901 1.327 . S
C899 C905 1.429 . S
C900 C892 1.574 . S
C900 H895 0.949 . S
C900 C906 1.368 . S
C901 C885 1.349 . S
C901 H893 0.950 . S
C901 C899 1.327 . S
C902 C890 1.349 . S
C902 H896 0.950 . S
C902 C903 1.327 . S
C903 H897 0.950 . S
C903 C902 1.327 . S
C903 C907 1.429 . S
C904 C887 1.574 . S
C904 H898 0.949 . S
C904 C908 1.368 . S
C905 C886 1.429 . S
C905 C899 1.429 . S
C905 C906 1.523 . S
C906 C887 1.368 . S
C906 C900 1.368 . S
C906 C905 1.523 . S
C907 C891 1.429 . S
C907 C903 1.429 . S
C907 C908 1.523 . S
C908 C892 1.368 . S
C908 C904 1.368 . S
C908 C907 1.523 . S
H909 C884 0.950 . S
H910 C886 0.950 . S
H911 C887 0.949 . S
H912 C889 0.950 . S
H913 C891 0.950 . S
C914 C915 1.349 . S
C914 C916 1.327 . S
C914 H939 0.950 . S
C915 C914 1.349 . S
C915 C931 1.349 . S
C916 C914 1.327 . S
C916 C935 1.429 . S
C916 H940 0.950 . S
C917 C934 1.574 . S
C917 C936 1.368 . S
C917 H941 0.949 . S
H918 C922 0.949 . S
C919 C920 1.349 . S
C919 C921 1.327 . S
C919 H942 0.950 . S
C920 C919 1.349 . S
C920 C932 1.349 . S
C921 C919 1.327 . S
C921 C937 1.429 . S
C921 H943 0.950 . S
C922 H918 0.949 . S
C922 C930 1.574 . S
C922 C938 1.368 . S
H923 C931 0.950 . S
H924 C929 0.950 . S
H925 C930 0.949 . S
H926 C932 0.950 . S
H927 C933 0.950 . S
H928 C934 0.949 . S
C929 H924 0.950 . S
C929 C931 1.327 . S
C929 C935 1.429 . S
C930 C922 1.574 . S
C930 H925 0.949 . S
C930 C936 1.368 . S
C931 C915 1.349 . S
C931 H923 0.950 . S
C931 C929 1.327 . S
C932 C920 1.349 . S
C932 H926 0.950 . S
C932 C933 1.327 . S
C933 H927 0.950 . S
C933 C932 1.327 . S
C933 C937 1.429 . S
C934 C917 1.574 . S
C934 H928 0.949 . S
C934 C938 1.368 . S
C935 C916 1.429 . S
C935 C929 1.429 . S
C935 C936 1.523 . S
C936 C917 1.368 . S
C936 C930 1.368 . S
C936 C935 1.523 . S
C937 C921 1.429 . S
C937 C933 1.429 . S
C937 C938 1.523 . S
C938 C922 1.368 . S
C938 C934 1.368 . S
C938 C937 1.523 . S
H939 C914 0.950 . S
H940 C916 0.950 . S
H941 C917 0.949 . S
H942 C919 0.950 . S
H943 C921 0.950 . S
C944 C945 1.349 . S
C944 C946 1.327 . S
C944 H969 0.950 . S
C945 C944 1.349 . S
C945 C961 1.349 . S
C946 C944 1.327 . S
C946 C965 1.429 . S
C946 H970 0.950 . S
C947 C964 1.574 . S
C947 C966 1.368 . S
C947 H971 0.949 . S
H948 C952 0.949 . S
C949 C950 1.349 . S
C949 C951 1.327 . S
C949 H972 0.950 . S
C950 C949 1.349 . S
C950 C962 1.349 . S
C951 C949 1.327 . S
C951 C967 1.429 . S
C951 H973 0.950 . S
C952 H948 0.949 . S
C952 C960 1.574 . S
C952 C968 1.368 . S
H953 C961 0.950 . S
H954 C959 0.950 . S
H955 C960 0.949 . S
H956 C962 0.950 . S
H957 C963 0.950 . S
H958 C964 0.949 . S
C959 H954 0.950 . S
C959 C961 1.327 . S
C959 C965 1.429 . S
C960 C952 1.574 . S
C960 H955 0.949 . S
C960 C966 1.368 . S
C961 C945 1.349 . S
C961 H953 0.950 . S
C961 C959 1.327 . S
C962 C950 1.349 . S
C962 H956 0.950 . S
C962 C963 1.327 . S
C963 H957 0.950 . S
C963 C962 1.327 . S
C963 C967 1.429 . S
C964 C947 1.574 . S
C964 H958 0.949 . S
C964 C968 1.368 . S
C965 C946 1.429 . S
C965 C959 1.429 . S
C965 C966 1.523 . S
C966 C947 1.368 . S
C966 C960 1.368 . S
C966 C965 1.523 . S
C967 C951 1.429 . S
C967 C963 1.429 . S
C967 C968 1.523 . S
C968 C952 1.368 . S
C968 C964 1.368 . S
C968 C967 1.523 . S
H969 C944 0.950 . S
H970 C946 0.950 . S
H971 C947 0.949 . S
H972 C949 0.950 . S
H973 C951 0.950 . S
C974 C975 1.349 . S
C974 C976 1.327 . S
C974 H999 0.950 . S
C975 C974 1.349 . S
C975 C991 1.349 . S
C976 C974 1.327 . S
C976 C995 1.429 . S
C976 H1000 0.950 . S
C977 C994 1.574 . S
C977 C996 1.368 . S
C977 H1001 0.949 . S
H978 C982 0.949 . S
C979 C980 1.349 . S
C979 C981 1.327 . S
C979 H1002 0.950 . S
C980 C979 1.349 . S
C980 C992 1.349 . S
C981 C979 1.327 . S
C981 C997 1.429 . S
C981 H1003 0.950 . S
C982 H978 0.949 . S
C982 C990 1.574 . S
C982 C998 1.368 . S
H983 C991 0.950 . S
H984 C989 0.950 . S
H985 C990 0.949 . S
H986 C992 0.950 . S
H987 C993 0.950 . S
H988 C994 0.949 . S
C989 H984 0.950 . S
C989 C991 1.327 . S
C989 C995 1.429 . S
C990 C982 1.574 . S
C990 H985 0.949 . S
C990 C996 1.368 . S
C991 C975 1.349 . S
C991 H983 0.950 . S
C991 C989 1.327 . S
C992 C980 1.349 . S
C992 H986 0.950 . S
C992 C993 1.327 . S
C993 H987 0.950 . S
C993 C992 1.327 . S
C993 C997 1.429 . S
C994 C977 1.574 . S
C994 H988 0.949 . S
C994 C998 1.368 . S
C995 C976 1.429 . S
C995 C989 1.429 . S
C995 C996 1.523 . S
C996 C977 1.368 . S
C996 C990 1.368 . S
C996 C995 1.523 . S
C997 C981 1.429 . S
C997 C993 1.429 . S
C997 C998 1.523 . S
C998 C982 1.368 . S
C998 C994 1.368 . S
C998 C997 1.523 . S
H999 C974 0.950 . S
H1000 C976 0.950 . S
H1001 C977 0.949 . S
H1002 C979 0.950 . S
H1003 C981 0.950 . S
C1004 C1005 1.349 . S
C1004 C1006 1.327 . S
C1004 H1029 0.950 . S
C1005 C1004 1.349 . S
C1005 C1021 1.349 . S
C1006 C1004 1.327 . S
C1006 C1025 1.429 . S
C1006 H1030 0.950 . S
C1007 C1024 1.574 . S
C1007 C1026 1.368 . S
C1007 H1031 0.949 . S
H1008 C1012 0.949 . S
C1009 C1010 1.349 . S
C1009 C1011 1.327 . S
C1009 H1032 0.950 . S
C1010 C1009 1.349 . S
C1010 C1022 1.349 . S
C1011 C1009 1.327 . S
C1011 C1027 1.429 . S
C1011 H1033 0.950 . S
C1012 H1008 0.949 . S
C1012 C1020 1.574 . S
C1012 C1028 1.368 . S
H1013 C1021 0.950 . S
H1014 C1019 0.950 . S
H1015 C1020 0.949 . S
H1016 C1022 0.950 . S
H1017 C1023 0.950 . S
H1018 C1024 0.949 . S
C1019 H1014 0.950 . S
C1019 C1021 1.327 . S
C1019 C1025 1.429 . S
C1020 C1012 1.574 . S
C1020 H1015 0.949 . S
C1020 C1026 1.368 . S
C1021 C1005 1.349 . S
C1021 H1013 0.950 . S
C1021 C1019 1.327 . S
C1022 C1010 1.349 . S
C1022 H1016 0.950 . S
C1022 C1023 1.327 . S
C1023 H1017 0.950 . S
C1023 C1022 1.327 . S
C1023 C1027 1.429 . S
C1024 C1007 1.574 . S
C1024 H1018 0.949 . S
C1024 C1028 1.368 . S
C1025 C1006 1.429 . S
C1025 C1019 1.429 . S
C1025 C1026 1.523 . S
C1026 C1007 1.368 . S
C1026 C1020 1.368 . S
C1026 C1025 1.523 . S
C1027 C1011 1.429 . S
C1027 C1023 1.429 . S
C1027 C1028 1.523 . S
C1028 C1012 1.368 . S
C1028 C1024 1.368 . S
C1028 C1027 1.523 . S
H1029 C1004 0.950 . S
H1030 C1006 0.950 . S
H1031 C1007 0.949 . S
H1032 C1009 0.950 . S
H1033 C1011 0.950 . S
C1034 C1035 1.349 . S
C1034 C1036 1.327 . S
C1034 H1059 0.950 . S
C1035 C1034 1.349 . S
C1035 C1051 1.349 . S
C1036 C1034 1.327 . S
C1036 C1055 1.429 . S
C1036 H1060 0.950 . S
C1037 C1054 1.574 . S
C1037 C1056 1.368 . S
C1037 H1061 0.949 . S
H1038 C1042 0.949 . S
C1039 C1040 1.349 . S
C1039 C1041 1.327 . S
C1039 H1062 0.950 . S
C1040 C1039 1.349 . S
C1040 C1052 1.349 . S
C1041 C1039 1.327 . S
C1041 C1057 1.429 . S
C1041 H1063 0.950 . S
C1042 H1038 0.949 . S
C1042 C1050 1.574 . S
C1042 C1058 1.368 . S
H1043 C1051 0.950 . S
H1044 C1049 0.950 . S
H1045 C1050 0.949 . S
H1046 C1052 0.950 . S
H1047 C1053 0.950 . S
H1048 C1054 0.949 . S
C1049 H1044 0.950 . S
C1049 C1051 1.327 . S
C1049 C1055 1.429 . S
C1050 C1042 1.574 . S
C1050 H1045 0.949 . S
C1050 C1056 1.368 . S
C1051 C1035 1.349 . S
C1051 H1043 0.950 . S
C1051 C1049 1.327 . S
C1052 C1040 1.349 . S
C1052 H1046 0.950 . S
C1052 C1053 1.327 . S
C1053 H1047 0.950 . S
C1053 C1052 1.327 . S
C1053 C1057 1.429 . S
C1054 C1037 1.574 . S
C1054 H1048 0.949 . S
C1054 C1058 1.368 . S
C1055 C1036 1.429 . S
C1055 C1049 1.429 . S
C1055 C1056 1.523 . S
C1056 C1037 1.368 . S
C1056 C1050 1.368 . S
C1056 C1055 1.523 . S
C1057 C1041 1.429 . S
C1057 C1053 1.429 . S
C1057 C1058 1.523 . S
C1058 C1042 1.368 . S
C1058 C1054 1.368 . S
C1058 C1057 1.523 . S
H1059 C1034 0.950 . S
H1060 C1036 0.950 . S
H1061 C1037 0.949 . S
H1062 C1039 0.950 . S
H1063 C1041 0.950 . S
C1064 C1065 1.349 . S
C1064 C1066 1.327 . S
C1064 H1089 0.950 . S
C1065 C1064 1.349 . S
C1065 C1081 1.349 . S
C1066 C1064 1.327 . S
C1066 C1085 1.429 . S
C1066 H1090 0.950 . S
C1067 C1084 1.574 . S
C1067 C1086 1.368 . S
C1067 H1091 0.949 . S
H1068 C1072 0.949 . S
C1069 C1070 1.349 . S
C1069 C1071 1.327 . S
C1069 H1092 0.950 . S
C1070 C1069 1.349 . S
C1070 C1082 1.349 . S
C1071 C1069 1.327 . S
C1071 C1087 1.429 . S
C1071 H1093 0.950 . S
C1072 H1068 0.949 . S
C1072 C1080 1.574 . S
C1072 C1088 1.368 . S
H1073 C1081 0.950 . S
H1074 C1079 0.950 . S
H1075 C1080 0.949 . S
H1076 C1082 0.950 . S
H1077 C1083 0.950 . S
H1078 C1084 0.949 . S
C1079 H1074 0.950 . S
C1079 C1081 1.327 . S
C1079 C1085 1.429 . S
C1080 C1072 1.574 . S
C1080 H1075 0.949 . S
C1080 C1086 1.368 . S
C1081 C1065 1.349 . S
C1081 H1073 0.950 . S
C1081 C1079 1.327 . S
C1082 C1070 1.349 . S
C1082 H1076 0.950 . S
C1082 C1083 1.327 . S
C1083 H1077 0.950 . S
C1083 C1082 1.327 . S
C1083 C1087 1.429 . S
C1084 C1067 1.574 . S
C1084 H1078 0.949 . S
C1084 C1088 1.368 . S
C1085 C1066 1.429 . S
C1085 C1079 1.429 . S
C1085 C1086 1.523 . S
C1086 C1067 1.368 . S
C1086 C1080 1.368 . S
C1086 C1085 1.523 . S
C1087 C1071 1.429 . S
C1087 C1083 1.429 . S
C1087 C1088 1.523 . S
C1088 C1072 1.368 . S
C1088 C1084 1.368 . S
C1088 C1087 1.523 . S
H1089 C1064 0.950 . S
H1090 C1066 0.950 . S
H1091 C1067 0.949 . S
H1092 C1069 0.950 . S
H1093 C1071 0.950 . S
C1094 C1095 1.349 . S
C1094 C1096 1.327 . S
C1094 H1119 0.950 . S
C1095 C1094 1.349 . S
C1095 C1111 1.349 . S
C1096 C1094 1.327 . S
C1096 C1115 1.429 . S
C1096 H1120 0.950 . S
C1097 C1114 1.574 . S
C1097 C1116 1.368 . S
C1097 H1121 0.949 . S
H1098 C1102 0.949 . S
C1099 C1100 1.349 . S
C1099 C1101 1.327 . S
C1099 H1122 0.950 . S
C1100 C1099 1.349 . S
C1100 C1112 1.349 . S
C1101 C1099 1.327 . S
C1101 C1117 1.429 . S
C1101 H1123 0.950 . S
C1102 H1098 0.949 . S
C1102 C1110 1.574 . S
C1102 C1118 1.368 . S
H1103 C1111 0.950 . S
H1104 C1109 0.950 . S
H1105 C1110 0.949 . S
H1106 C1112 0.950 . S
H1107 C1113 0.950 . S
H1108 C1114 0.949 . S
C1109 H1104 0.950 . S
C1109 C1111 1.327 . S
C1109 C1115 1.429 . S
C1110 C1102 1.574 . S
C1110 H1105 0.949 . S
C1110 C1116 1.368 . S
C1111 C1095 1.349 . S
C1111 H1103 0.950 . S
C1111 C1109 1.327 . S
C1112 C1100 1.349 . S
C1112 H1106 0.950 . S
C1112 C1113 1.327 . S
C1113 H1107 0.950 . S
C1113 C1112 1.327 . S
C1113 C1117 1.429 . S
C1114 C1097 1.574 . S
C1114 H1108 0.949 . S
C1114 C1118 1.368 . S
C1115 C1096 1.429 . S
C1115 C1109 1.429 . S
C1115 C1116 1.523 . S
C1116 C1097 1.368 . S
C1116 C1110 1.368 . S
C1116 C1115 1.523 . S
C1117 C1101 1.429 . S
C1117 C1113 1.429 . S
C1117 C1118 1.523 . S
C1118 C1102 1.368 . S
C1118 C1114 1.368 . S
C1118 C1117 1.523 . S
H1119 C1094 0.950 . S
H1120 C1096 0.950 . S
H1121 C1097 0.949 . S
H1122 C1099 0.950 . S
H1123 C1101 0.950 . S
C1124 C1125 1.349 . S
C1124 C1126 1.327 . S
C1124 H1149 0.950 . S
C1125 C1124 1.349 . S
C1125 C1141 1.349 . S
C1126 C1124 1.327 . S
C1126 C1145 1.429 . S
C1126 H1150 0.950 . S
C1127 C1144 1.574 . S
C1127 C1146 1.368 . S
C1127 H1151 0.949 . S
H1128 C1132 0.949 . S
C1129 C1130 1.349 . S
C1129 C1131 1.327 . S
C1129 H1152 0.950 . S
C1130 C1129 1.349 . S
C1130 C1142 1.349 . S
C1131 C1129 1.327 . S
C1131 C1147 1.429 . S
C1131 H1153 0.950 . S
C1132 H1128 0.949 . S
C1132 C1140 1.574 . S
C1132 C1148 1.368 . S
H1133 C1141 0.950 . S
H1134 C1139 0.950 . S
H1135 C1140 0.949 . S
H1136 C1142 0.950 . S
H1137 C1143 0.950 . S
H1138 C1144 0.949 . S
C1139 H1134 0.950 . S
C1139 C1141 1.327 . S
C1139 C1145 1.429 . S
C1140 C1132 1.574 . S
C1140 H1135 0.949 . S
C1140 C1146 1.368 . S
C1141 C1125 1.349 . S
C1141 H1133 0.950 . S
C1141 C1139 1.327 . S
C1142 C1130 1.349 . S
C1142 H1136 0.950 . S
C1142 C1143 1.327 . S
C1143 H1137 0.950 . S
C1143 C1142 1.327 . S
C1143 C1147 1.429 . S
C1144 C1127 1.574 . S
C1144 H1138 0.949 . S
C1144 C1148 1.368 . S
C1145 C1126 1.429 . S
C1145 C1139 1.429 . S
C1145 C1146 1.523 . S
C1146 C1127 1.368 . S
C1146 C1140 1.368 . S
C1146 C1145 1.523 . S
C1147 C1131 1.429 . S
C1147 C1143 1.429 . S
C1147 C1148 1.523 . S
C1148 C1132 1.368 . S
C1148 C1144 1.368 . S
C1148 C1147 1.523 . S
H1149 C1124 0.950 . S
H1150 C1126 0.950 . S
H1151 C1127 0.949 . S
H1152 C1129 0.950 . S
H1153 C1131 0.950 . S
C1154 C1155 1.349 . S
C1154 C1156 1.327 . S
C1154 H1179 0.950 . S
C1155 C1154 1.349 . S
C1155 C1171 1.349 . S
C1156 C1154 1.327 . S
C1156 C1175 1.429 . S
C1156 H1180 0.950 . S
C1157 C1174 1.574 . S
C1157 C1176 1.368 . S
C1157 H1181 0.949 . S
H1158 C1162 0.949 . S
C1159 C1160 1.349 . S
C1159 C1161 1.327 . S
C1159 H1182 0.950 . S
C1160 C1159 1.349 . S
C1160 C1172 1.349 . S
C1161 C1159 1.327 . S
C1161 C1177 1.429 . S
C1161 H1183 0.950 . S
C1162 H1158 0.949 . S
C1162 C1170 1.574 . S
C1162 C1178 1.368 . S
H1163 C1171 0.950 . S
H1164 C1169 0.950 . S
H1165 C1170 0.949 . S
H1166 C1172 0.950 . S
H1167 C1173 0.950 . S
H1168 C1174 0.949 . S
C1169 H1164 0.950 . S
C1169 C1171 1.327 . S
C1169 C1175 1.429 . S
C1170 C1162 1.574 . S
C1170 H1165 0.949 . S
C1170 C1176 1.368 . S
C1171 C1155 1.349 . S
C1171 H1163 0.950 . S
C1171 C1169 1.327 . S
C1172 C1160 1.349 . S
C1172 H1166 0.950 . S
C1172 C1173 1.327 . S
C1173 H1167 0.950 . S
C1173 C1172 1.327 . S
C1173 C1177 1.429 . S
C1174 C1157 1.574 . S
C1174 H1168 0.949 . S
C1174 C1178 1.368 . S
C1175 C1156 1.429 . S
C1175 C1169 1.429 . S
C1175 C1176 1.523 . S
C1176 C1157 1.368 . S
C1176 C1170 1.368 . S
C1176 C1175 1.523 . S
C1177 C1161 1.429 . S
C1177 C1173 1.429 . S
C1177 C1178 1.523 . S
C1178 C1162 1.368 . S
C1178 C1174 1.368 . S
C1178 C1177 1.523 . S
H1179 C1154 0.950 . S
H1180 C1156 0.950 . S
H1181 C1157 0.949 . S
H1182 C1159 0.950 . S
H1183 C1161 0.950 . S
C225 C221 0.839 . S
C230 C11 0.839 . S
C255 C179 0.839 . S
C260 C25 0.839 . S
C285 C39 0.839 . S
C290 C193 0.839 . S
C315 C207 0.839 . S
C320 C53 0.839 . S
C345 C137 0.839 . S
C350 C67 0.839 . S
C375 C81 0.839 . S
C380 C151 0.839 . S
C405 C95 0.839 . S
C410 C165 0.839 . S
C435 C109 0.839 . S
C440 C123 0.839 . S
C465 C83 1.214 . S
C470 C8 1.347 . S
C495 C92 1.347 . S
C500 C27 1.214 . S
C525 C111 1.214 . S
C530 C36 1.347 . S
C555 C55 1.214 . S
C560 C64 1.347 . S
C585 C7 1.326 . S
C590 C21 1.326 . S
C615 C41 1.214 . S
C620 C22 1.347 . S
C645 C35 1.326 . S
C650 C49 1.326 . S
C675 C13 1.214 . S
C680 C50 1.347 . S
C705 C105 1.326 . S
C710 C63 1.326 . S
C735 C69 1.214 . S
C740 C78 1.347 . S
C765 C77 1.326 . S
C770 C91 1.326 . S
C795 C106 1.347 . S
C800 C97 1.214 . S
C825 C195 1.214 . S
C830 C120 1.347 . S
C855 C139 1.214 . S
C860 C204 1.347 . S
C885 C223 1.214 . S
C890 C148 1.347 . S
C915 C176 1.347 . S
C920 C167 1.214 . S
C945 C119 1.326 . S
C950 C133 1.326 . S
C975 C134 1.347 . S
C980 C153 1.214 . S
C1005 C161 1.326 . S
C1010 C147 1.326 . S
C1035 C125 1.214 . S
C1040 C162 1.347 . S
C1065 C217 1.326 . S
C1070 C175 1.326 . S
C1095 C181 1.214 . S
C1100 C190 1.347 . S
C1125 C189 1.326 . S
C1130 C203 1.326 . S
C1155 C218 1.347 . S
C1160 C209 1.214 . S
