# Generated by pormake.
# Topology utg, (3)-cn, num edge types: 1
# Building blocks:
#     Node 0, Type 0, BuildingBlock: OLANEW_clean_sbu_2, # of connection points: 3
#     Node 1, Type 0, BuildingBlock: OLANEW_clean_sbu_2, # of connection points: 3
#     Node 2, Type 0, BuildingBlock: OLANEW_clean_sbu_2, # of connection points: 3
#     Node 3, Type 0, BuildingBlock: OLANEW_clean_sbu_2, # of connection points: 3
#     Node 4, Type 0, BuildingBlock: OLANEW_clean_sbu_2, # of connection points: 3
#     Node 5, Type 0, BuildingBlock: OLANEW_clean_sbu_2, # of connection points: 3
#     Node 6, Type 0, BuildingBlock: OLANEW_clean_sbu_2, # of connection points: 3
#     Node 7, Type 0, BuildingBlock: OLANEW_clean_sbu_2, # of connection points: 3
#     Node 8, Type 0, BuildingBlock: OLANEW_clean_sbu_2, # of connection points: 3
#     Node 9, Type 0, BuildingBlock: OLANEW_clean_sbu_2, # of connection points: 3
#     Node 10, Type 0, BuildingBlock: OLANEW_clean_sbu_2, # of connection points: 3
#     Node 11, Type 0, BuildingBlock: OLANEW_clean_sbu_2, # of connection points: 3
#     Node 12, Type 0, BuildingBlock: OLANEW_clean_sbu_2, # of connection points: 3
#     Node 13, Type 0, BuildingBlock: OLANEW_clean_sbu_2, # of connection points: 3
#     Node 14, Type 0, BuildingBlock: OLANEW_clean_sbu_2, # of connection points: 3
#     Node 15, Type 0, BuildingBlock: OLANEW_clean_sbu_2, # of connection points: 3
#     Edge 16, Type (0, 0), BuildingBlock: MIFKUJ_clean_linker_0, # of connection points: 2
#     Edge 17, Type (0, 0), BuildingBlock: MIFKUJ_clean_linker_0, # of connection points: 2
#     Edge 18, Type (0, 0), BuildingBlock: MIFKUJ_clean_linker_0, # of connection points: 2
#     Edge 19, Type (0, 0), BuildingBlock: MIFKUJ_clean_linker_0, # of connection points: 2
#     Edge 20, Type (0, 0), BuildingBlock: MIFKUJ_clean_linker_0, # of connection points: 2
#     Edge 21, Type (0, 0), BuildingBlock: MIFKUJ_clean_linker_0, # of connection points: 2
#     Edge 22, Type (0, 0), BuildingBlock: MIFKUJ_clean_linker_0, # of connection points: 2
#     Edge 23, Type (0, 0), BuildingBlock: MIFKUJ_clean_linker_0, # of connection points: 2
#     Edge 24, Type (0, 0), BuildingBlock: MIFKUJ_clean_linker_0, # of connection points: 2
#     Edge 25, Type (0, 0), BuildingBlock: MIFKUJ_clean_linker_0, # of connection points: 2
#     Edge 26, Type (0, 0), BuildingBlock: MIFKUJ_clean_linker_0, # of connection points: 2
#     Edge 27, Type (0, 0), BuildingBlock: MIFKUJ_clean_linker_0, # of connection points: 2
#     Edge 28, Type (0, 0), BuildingBlock: MIFKUJ_clean_linker_0, # of connection points: 2
#     Edge 29, Type (0, 0), BuildingBlock: MIFKUJ_clean_linker_0, # of connection points: 2
#     Edge 30, Type (0, 0), BuildingBlock: MIFKUJ_clean_linker_0, # of connection points: 2
#     Edge 31, Type (0, 0), BuildingBlock: MIFKUJ_clean_linker_0, # of connection points: 2
#     Edge 32, Type (0, 0), BuildingBlock: MIFKUJ_clean_linker_0, # of connection points: 2
#     Edge 33, Type (0, 0), BuildingBlock: MIFKUJ_clean_linker_0, # of connection points: 2
#     Edge 34, Type (0, 0), BuildingBlock: MIFKUJ_clean_linker_0, # of connection points: 2
#     Edge 35, Type (0, 0), BuildingBlock: MIFKUJ_clean_linker_0, # of connection points: 2
#     Edge 36, Type (0, 0), BuildingBlock: MIFKUJ_clean_linker_0, # of connection points: 2
#     Edge 37, Type (0, 0), BuildingBlock: MIFKUJ_clean_linker_0, # of connection points: 2
#     Edge 38, Type (0, 0), BuildingBlock: MIFKUJ_clean_linker_0, # of connection points: 2
#     Edge 39, Type (0, 0), BuildingBlock: MIFKUJ_clean_linker_0, # of connection points: 2
# Relax obj value: 0.003
# Max RMSD: 0.052
# Mean RMSD: 0.052
data_MOF--net-utg--node1-OLANEW_clean_sbu_2--edge1-MIFKUJ_clean_linker_0
_symmetry_space_group_name_H-M    P1
_symmetry_Int_Tables_number       1
_symmetry_cell_setting            triclinic
loop_
_symmetry_equiv_pos_as_xyz
'x, y, z'
_cell_length_a     54.886544
_cell_length_b     55.019659
_cell_length_c     110.02844
_cell_angle_alpha  90.098668
_cell_angle_beta   89.988379
_cell_angle_gamma 90.08472
loop_
_atom_site_label
_atom_site_type_symbol
_atom_site_fract_x
_atom_site_fract_y
_atom_site_fract_z
_atom_type_partial_charge
O0 O 0.10386 0.15765 0.17821 0.0
Cd1 Cd 0.10679 0.13426 0.19706 0.0
O2 O 0.14139 0.1495 0.1725 0.0
Cd3 Cd 0.1522 0.1341 0.18993 0.0
O4 O 0.17495 0.14306 0.20559 0.0
C5 C 0.16991 0.16302 0.21084 0.0
O6 O 0.15079 0.17532 0.20714 0.0
C7 C 0.12084 0.15926 0.17038 0.0
C8 C 0.07534 0.09426 0.19725 0.0
O9 O 0.06804 0.11535 0.20061 0.0
O10 O 0.09751 0.09207 0.19377 0.0
O11 O 0.82535 0.61373 0.42225 0.0
Cd12 Cd 0.84863 0.61797 0.44109 0.0
O13 O 0.8433 0.64445 0.41312 0.0
Cd14 Cd 0.85697 0.65854 0.43037 0.0
O15 O 0.84747 0.68101 0.44606 0.0
C16 C 0.82732 0.67587 0.45115 0.0
O17 O 0.81486 0.65708 0.44715 0.0
C18 C 0.82882 0.6264 0.41274 0.0
C19 C 0.88883 0.58692 0.44085 0.0
O20 O 0.86791 0.57955 0.4445 0.0
O21 O 0.89082 0.60908 0.43741 0.0
O22 O 0.39502 0.33692 0.67177 0.0
Cd23 Cd 0.39261 0.3594 0.69093 0.0
O24 O 0.35525 0.33586 0.66925 0.0
Cd25 Cd 0.34521 0.35183 0.6867 0.0
O26 O 0.3201 0.34773 0.70196 0.0
C27 C 0.30033 0.33684 0.69934 0.0
O28 O 0.2965 0.33033 0.68801 0.0
C29 C 0.37656 0.33085 0.66548 0.0
C30 C 0.42402 0.39937 0.69115 0.0
O31 O 0.43155 0.37815 0.6941 0.0
O32 O 0.4016 0.40173 0.6881 0.0
O33 O 0.66578 0.88847 0.93164 0.0
Cd34 Cd 0.64428 0.88788 0.95111 0.0
O35 O 0.6524 0.85244 0.92608 0.0
Cd36 Cd 0.63937 0.84264 0.94413 0.0
O37 O 0.64982 0.81742 0.95852 0.0
C38 C 0.66795 0.80418 0.95571 0.0
O39 O 0.67785 0.80687 0.94491 0.0
C40 C 0.66417 0.87177 0.92368 0.0
C41 C 0.60374 0.9185 0.95086 0.0
O42 O 0.62496 0.92663 0.95356 0.0
O43 O 0.60166 0.89585 0.9483 0.0
O44 O 0.10917 0.3389 0.06677 0.0
Cd45 Cd 0.11131 0.36261 0.04799 0.0
O46 O 0.14745 0.32725 0.06548 0.0
Cd47 Cd 0.15684 0.34336 0.048 0.0
O48 O 0.18036 0.33512 0.03252 0.0
C49 C 0.17252 0.32025 0.02458 0.0
O50 O 0.14994 0.31246 0.02541 0.0
C51 C 0.12717 0.32722 0.07107 0.0
C52 C 0.07999 0.40264 0.04822 0.0
O53 O 0.07243 0.38156 0.04497 0.0
O54 O 0.10235 0.40481 0.05141 0.0
O55 O 0.66071 0.61247 0.30452 0.0
Cd56 Cd 0.63351 0.61852 0.28716 0.0
O57 O 0.64613 0.64405 0.3144 0.0
Cd58 Cd 0.63005 0.65953 0.29803 0.0
O59 O 0.63911 0.68586 0.28387 0.0
C60 C 0.65367 0.70257 0.28725 0.0
O61 O 0.66073 0.70309 0.29866 0.0
C62 C 0.65972 0.62535 0.31411 0.0
C63 C 0.59567 0.58444 0.28716 0.0
O64 O 0.61567 0.58027 0.28152 0.0
O65 O 0.59351 0.60478 0.29275 0.0
O66 O 0.38796 0.15106 0.56195 0.0
Cd67 Cd 0.38219 0.1234 0.54475 0.0
O68 O 0.34853 0.15347 0.5654 0.0
Cd69 Cd 0.33616 0.13506 0.54895 0.0
O70 O 0.30969 0.14299 0.53469 0.0
C71 C 0.29529 0.16018 0.5375 0.0
O72 O 0.29736 0.17021 0.5483 0.0
C73 C 0.37029 0.15888 0.56832 0.0
C74 C 0.41801 0.0874 0.54387 0.0
O75 O 0.42086 0.10768 0.53832 0.0
O76 O 0.39822 0.08416 0.54984 0.0
O77 O 0.84573 0.86295 0.82075 0.0
Cd78 Cd 0.87507 0.85687 0.80431 0.0
O79 O 0.83129 0.82569 0.81943 0.0
Cd80 Cd 0.85047 0.81434 0.80303 0.0
O81 O 0.84233 0.79279 0.78685 0.0
C82 C 0.82544 0.80104 0.78014 0.0
O83 O 0.81609 0.82239 0.78277 0.0
C84 C 0.83153 0.84638 0.82459 0.0
C85 C 0.9101 0.89374 0.80434 0.0
O86 O 0.89085 0.89541 0.7978 0.0
O87 O 0.91287 0.87456 0.81078 0.0
O88 O 0.61408 0.6672 0.67392 0.0
Cd89 Cd 0.6183 0.64467 0.69295 0.0
O90 O 0.63999 0.64455 0.66371 0.0
Cd91 Cd 0.65455 0.62993 0.68061 0.0
O92 O 0.67765 0.64111 0.69579 0.0
C93 C 0.67673 0.66378 0.69798 0.0
O94 O 0.66188 0.67729 0.69151 0.0
C95 C 0.62431 0.66155 0.66393 0.0
C96 C 0.58721 0.60446 0.69323 0.0
O97 O 0.5798 0.62547 0.69664 0.0
O98 O 0.60941 0.6024 0.68976 0.0
O99 O 0.33232 0.10201 0.93048 0.0
Cd100 Cd 0.35331 0.10593 0.94999 0.0
O101 O 0.35474 0.12962 0.92133 0.0
Cd102 Cd 0.36667 0.14413 0.9388 0.0
O103 O 0.35064 0.16828 0.95238 0.0
C104 C 0.32754 0.16925 0.95167 0.0
O105 O 0.31649 0.15563 0.94354 0.0
C106 C 0.33845 0.11318 0.92084 0.0
C107 C 0.39436 0.07603 0.95052 0.0
O108 O 0.37329 0.06789 0.95347 0.0
O109 O 0.3961 0.09841 0.94742 0.0
O110 O 0.88882 0.82151 0.18534 0.0
Cd111 Cd 0.88533 0.84583 0.20389 0.0
O112 O 0.85923 0.84051 0.17583 0.0
Cd113 Cd 0.84506 0.85554 0.19277 0.0
O114 O 0.81808 0.84782 0.20687 0.0
C115 C 0.79883 0.83738 0.20309 0.0
O116 O 0.7964 0.83348 0.19137 0.0
C117 C 0.87654 0.82517 0.17572 0.0
C118 C 0.91541 0.88679 0.2027 0.0
O119 O 0.92367 0.86623 0.20626 0.0
O120 O 0.89285 0.88808 0.19976 0.0
O121 O 0.15671 0.39298 0.41831 0.0
Cd122 Cd 0.13111 0.38939 0.43643 0.0
O123 O 0.17829 0.36085 0.42338 0.0
Cd124 Cd 0.15901 0.34969 0.43979 0.0
O125 O 0.16112 0.32288 0.45437 0.0
C126 C 0.16571 0.30122 0.45104 0.0
O127 O 0.16701 0.29642 0.43935 0.0
C128 C 0.17422 0.37846 0.4162 0.0
C129 C 0.09206 0.42188 0.4363 0.0
O130 O 0.11323 0.42853 0.43994 0.0
O131 O 0.08934 0.39989 0.43267 0.0
O132 O 0.61838 0.82753 0.55529 0.0
Cd133 Cd 0.62489 0.85357 0.53758 0.0
O134 O 0.64952 0.8428 0.56531 0.0
Cd135 Cd 0.66505 0.85819 0.54878 0.0
O136 O 0.68844 0.84566 0.53399 0.0
C137 C 0.68457 0.82372 0.5309 0.0
O138 O 0.66668 0.81186 0.53618 0.0
C139 C 0.63088 0.82905 0.56499 0.0
C140 C 0.59314 0.89321 0.5381 0.0
O141 O 0.58718 0.87333 0.53279 0.0
O142 O 0.61421 0.89442 0.5431 0.0
O143 O 0.15262 0.11708 0.82107 0.0
Cd144 Cd 0.1203 0.12595 0.80645 0.0
O145 O 0.17851 0.14259 0.81264 0.0
Cd146 Cd 0.15558 0.15712 0.7982 0.0
O147 O 0.1582 0.1857 0.78452 0.0
C148 C 0.16783 0.20538 0.78824 0.0
O149 O 0.17345 0.20737 0.79981 0.0
C150 C 0.17357 0.12696 0.82077 0.0
C151 C 0.08557 0.0888 0.80605 0.0
O152 O 0.10362 0.08872 0.79866 0.0
O153 O 0.08388 0.10652 0.81358 0.0
O154 O 0.89057 0.67167 0.0626 0.0
Cd155 Cd 0.88807 0.64932 0.04341 0.0
O156 O 0.85767 0.65488 0.07036 0.0
Cd157 Cd 0.84518 0.64208 0.05264 0.0
O158 O 0.82085 0.65087 0.03755 0.0
C159 C 0.79946 0.65752 0.04047 0.0
O160 O 0.7932 0.65711 0.052 0.0
C161 C 0.87628 0.66848 0.07156 0.0
C162 C 0.91886 0.6089 0.04386 0.0
O163 O 0.92679 0.6299 0.04073 0.0
O164 O 0.89628 0.60693 0.04668 0.0
O165 O 0.33849 0.38112 0.30671 0.0
Cd166 Cd 0.36573 0.37145 0.28977 0.0
O167 O 0.35001 0.34848 0.31668 0.0
Cd168 Cd 0.3639 0.33069 0.30037 0.0
O169 O 0.34962 0.30579 0.28662 0.0
C170 C 0.32754 0.30986 0.28381 0.0
O171 O 0.31657 0.32872 0.2887 0.0
C172 C 0.33835 0.36844 0.31637 0.0
C173 C 0.404 0.40494 0.2887 0.0
O174 O 0.38521 0.40727 0.28188 0.0
O175 O 0.4048 0.3867 0.29591 0.0
H176 H 0.34254 0.26618 0.27425 0.0
H177 H 0.31797 0.23696 0.26268 0.0
H178 H 0.25659 0.28575 0.26432 0.0
H179 H 0.28078 0.31475 0.27596 0.0
H180 H 0.24342 0.24041 0.27032 0.0
H181 H 0.29049 0.27853 0.23831 0.0
H182 H 0.32838 0.29091 0.22795 0.0
H183 H 0.35057 0.21626 0.22544 0.0
H184 H 0.31293 0.20347 0.23592 0.0
H185 H 0.16319 0.20443 0.22402 0.0
H186 H 0.19216 0.22447 0.23751 0.0
H187 H 0.2436 0.16636 0.23179 0.0
H188 H 0.21467 0.1462 0.2181 0.0
H189 H 0.26487 0.21047 0.22914 0.0
H190 H 0.21551 0.17196 0.25896 0.0
H191 H 0.17745 0.15949 0.26911 0.0
H192 H 0.1596 0.23426 0.27586 0.0
H193 H 0.1974 0.24722 0.26561 0.0
C194 C 0.32387 0.27075 0.27205 0.0
C195 C 0.31361 0.29279 0.27604 0.0
C196 C 0.30986 0.25404 0.26543 0.0
C197 C 0.28544 0.25919 0.26263 0.0
C198 C 0.27534 0.28133 0.26644 0.0
C199 C 0.28926 0.29795 0.27306 0.0
C200 C 0.27 0.24149 0.25593 0.0
C201 C 0.24802 0.23399 0.26128 0.0
C202 C 0.27645 0.23239 0.24433 0.0
C203 C 0.29905 0.24008 0.23803 0.0
C204 C 0.30355 0.26478 0.23564 0.0
C205 C 0.32496 0.27187 0.22973 0.0
C206 C 0.34191 0.25439 0.22608 0.0
C207 C 0.33745 0.22978 0.2283 0.0
C208 C 0.31608 0.2226 0.23421 0.0
C209 C 0.18054 0.19571 0.22572 0.0
C210 C 0.18661 0.17371 0.21997 0.0
C211 C 0.19706 0.20717 0.23348 0.0
C212 C 0.21998 0.19682 0.23574 0.0
C213 C 0.22599 0.17463 0.23019 0.0
C214 C 0.2094 0.16309 0.22242 0.0
C215 C 0.23794 0.21 0.24339 0.0
C216 C 0.26041 0.21659 0.23825 0.0
C217 C 0.23198 0.21826 0.25521 0.0
C218 C 0.20924 0.21056 0.26144 0.0
C219 C 0.20339 0.18576 0.26253 0.0
C220 C 0.18187 0.1786 0.26832 0.0
C221 C 0.1661 0.19607 0.27311 0.0
C222 C 0.17184 0.22075 0.27215 0.0
C223 C 0.19333 0.22801 0.26636 0.0
H224 H 0.14944 0.19049 0.27758 0.0
H225 H 0.35847 0.25991 0.2215 0.0
H226 H 0.72652 0.84074 0.52021 0.0
H227 H 0.75483 0.81796 0.50727 0.0
H228 H 0.70795 0.75511 0.50935 0.0
H229 H 0.67986 0.7775 0.52234 0.0
H230 H 0.75437 0.74303 0.51365 0.0
H231 H 0.71081 0.79069 0.48378 0.0
H232 H 0.69593 0.82864 0.47451 0.0
H233 H 0.76956 0.85356 0.47004 0.0
H234 H 0.78487 0.81585 0.47944 0.0
H235 H 0.78681 0.66753 0.46482 0.0
H236 H 0.76733 0.695 0.47923 0.0
H237 H 0.82407 0.74801 0.47335 0.0
H238 H 0.84374 0.72054 0.45877 0.0
H239 H 0.77855 0.76817 0.47208 0.0
H240 H 0.82218 0.71827 0.4998 0.0
H241 H 0.83695 0.68005 0.50883 0.0
H242 H 0.76347 0.6593 0.51736 0.0
H243 H 0.74821 0.69724 0.50822 0.0
C244 C 0.72216 0.82213 0.51782 0.0
C245 C 0.70095 0.81092 0.52233 0.0
C246 C 0.73835 0.80915 0.51042 0.0
C247 C 0.73349 0.78483 0.50734 0.0
C248 C 0.71214 0.7738 0.51167 0.0
C249 C 0.69604 0.78669 0.51906 0.0
C250 C 0.75073 0.77046 0.49982 0.0
C251 C 0.75952 0.74845 0.50452 0.0
C252 C 0.75817 0.77795 0.48809 0.0
C253 C 0.74897 0.80059 0.48244 0.0
C254 C 0.72382 0.80435 0.48092 0.0
C255 C 0.71531 0.8258 0.47562 0.0
C256 C 0.73178 0.84354 0.47173 0.0
C257 C 0.75681 0.83983 0.47309 0.0
C258 C 0.76542 0.81842 0.47839 0.0
C259 C 0.79533 0.68492 0.46665 0.0
C260 C 0.81683 0.69184 0.46064 0.0
C261 C 0.7842 0.70058 0.47494 0.0
C262 C 0.79435 0.72348 0.47744 0.0
C263 C 0.81598 0.73039 0.47157 0.0
C264 C 0.82724 0.71463 0.46329 0.0
C265 C 0.78158 0.74041 0.48578 0.0
C266 C 0.77369 0.76292 0.48126 0.0
C267 C 0.77495 0.73339 0.4977 0.0
C268 C 0.78404 0.71055 0.50324 0.0
C269 C 0.80914 0.70548 0.50352 0.0
C270 C 0.81761 0.68388 0.50867 0.0
C271 C 0.80116 0.66724 0.51365 0.0
C272 C 0.7762 0.6722 0.5135 0.0
C273 C 0.76763 0.69377 0.50835 0.0
H274 H 0.80775 0.65052 0.51763 0.0
H275 H 0.72516 0.86013 0.46763 0.0
H276 H 0.25906 0.30971 0.69668 0.0
H277 H 0.2327 0.29385 0.7126 0.0
H278 H 0.27541 0.33144 0.73969 0.0
H279 H 0.30239 0.34694 0.72375 0.0
H280 H 0.2693 0.28623 0.74602 0.0
H281 H 0.21582 0.34865 0.7327 0.0
H282 H 0.19247 0.37332 0.7181 0.0
H283 H 0.15159 0.31026 0.70735 0.0
H284 H 0.17493 0.28512 0.72176 0.0
H285 H 0.19219 0.24746 0.79331 0.0
H286 H 0.21045 0.27574 0.77886 0.0
H287 H 0.18021 0.23457 0.74907 0.0
H288 H 0.16177 0.20609 0.76349 0.0
H289 H 0.17889 0.28559 0.74541 0.0
H290 H 0.23615 0.22308 0.7572 0.0
H291 H 0.25951 0.19874 0.77195 0.0
H292 H 0.29328 0.2636 0.78575 0.0
H293 H 0.26983 0.28837 0.77119 0.0
C294 C 0.26272 0.3149 0.706 0.0
C295 C 0.28293 0.3295 0.70895 0.0
C296 C 0.24747 0.30594 0.71511 0.0
C297 C 0.25188 0.31163 0.72735 0.0
C298 C 0.27162 0.32683 0.7303 0.0
C299 C 0.28701 0.3357 0.72118 0.0
C300 C 0.2372 0.29994 0.73708 0.0
C301 C 0.24953 0.2866 0.74602 0.0
C302 C 0.21137 0.29991 0.73695 0.0
C303 C 0.19727 0.31495 0.72826 0.0
C304 C 0.20198 0.33999 0.72715 0.0
C305 C 0.18872 0.35407 0.71892 0.0
C306 C 0.1706 0.34335 0.71178 0.0
C307 C 0.16565 0.31854 0.71288 0.0
C308 C 0.17887 0.30437 0.72109 0.0
C309 C 0.18906 0.24458 0.7837 0.0
C310 C 0.17578 0.22432 0.77955 0.0
C311 C 0.19954 0.26078 0.77546 0.0
C312 C 0.19694 0.25704 0.76291 0.0
C313 C 0.18244 0.23773 0.75873 0.0
C314 C 0.172 0.22143 0.76698 0.0
C315 C 0.21108 0.27192 0.75419 0.0
C316 C 0.19865 0.28567 0.74545 0.0
C317 C 0.23684 0.27247 0.75451 0.0
C318 C 0.25104 0.25759 0.76321 0.0
C319 C 0.2484 0.23217 0.76345 0.0
C320 C 0.26168 0.21829 0.77176 0.0
C321 C 0.27781 0.22962 0.77981 0.0
C322 C 0.28075 0.25485 0.77953 0.0
C323 C 0.26748 0.26882 0.77125 0.0
H324 H 0.28808 0.21885 0.78623 0.0
H325 H 0.16035 0.35429 0.70542 0.0
H326 H 0.70783 0.77546 0.95246 0.0
H327 H 0.72606 0.74731 0.96687 0.0
H328 H 0.66992 0.76418 0.993 0.0
H329 H 0.65173 0.79292 0.97863 0.0
H330 H 0.71344 0.76498 0.0034 0.0
H331 H 0.67086 0.70912 0.97791 0.0
H332 H 0.65787 0.69027 0.95862 0.0
H333 H 0.73189 0.6706 0.95076 0.0
H334 H 0.7454 0.68964 0.96993 0.0
H335 H 0.75313 0.67408 0.04407 0.0
H336 H 0.72719 0.69549 0.0296 0.0
H337 H 0.78194 0.68684 0.00181 0.0
H338 H 0.80798 0.66513 0.01621 0.0
H339 H 0.7357 0.68014 0.99285 0.0
H340 H 0.77821 0.73922 0.0175 0.0
H341 H 0.79116 0.75829 0.03674 0.0
H342 H 0.71646 0.77183 0.04613 0.0
H343 H 0.70305 0.75253 0.027 0.0
C344 C 0.69922 0.77312 0.96124 0.0
C345 C 0.6783 0.78645 0.96439 0.0
C346 C 0.70961 0.75686 0.96945 0.0
C347 C 0.69917 0.75334 0.98096 0.0
C348 C 0.67822 0.76654 0.98414 0.0
C349 C 0.66784 0.78293 0.97592 0.0
C350 C 0.71097 0.7368 0.98984 0.0
C351 C 0.71785 0.74628 0.00118 0.0
C352 C 0.71722 0.71254 0.98685 0.0
C353 C 0.70916 0.70099 0.97532 0.0
C354 C 0.6844 0.70094 0.97203 0.0
C355 C 0.67694 0.69019 0.96112 0.0
C356 C 0.69405 0.67929 0.95346 0.0
C357 C 0.71866 0.67907 0.9567 0.0
C358 C 0.72622 0.68981 0.96759 0.0
C359 C 0.75959 0.67647 0.03485 0.0
C360 C 0.78276 0.66811 0.03133 0.0
C361 C 0.74474 0.68878 0.0266 0.0
C362 C 0.7528 0.6931 0.01469 0.0
C363 C 0.7754 0.68377 0.01097 0.0
C364 C 0.79029 0.67141 0.01922 0.0
C365 C 0.73828 0.70843 0.00632 0.0
C366 C 0.73098 0.69875 -0.00491 0.0
C367 C 0.73158 0.73251 0.00941 0.0
C368 C 0.73962 0.74419 0.02089 0.0
C369 C 0.76454 0.74609 0.02371 0.0
C370 C 0.77197 0.75697 0.03459 0.0
C371 C 0.75464 0.7662 0.04267 0.0
C372 C 0.72986 0.76463 0.03988 0.0
C373 C 0.72233 0.75374 0.02901 0.0
H374 H 0.76043 0.77462 0.05109 0.0
H375 H 0.68823 0.67097 0.94502 0.0
H376 H 0.16137 0.28878 0.0062 0.0
H377 H 0.18969 0.26572 0.99357 0.0
H378 H 0.25037 0.30234 0.01053 0.0
H379 H 0.22209 0.32587 0.02309 0.0
H380 H 0.25844 0.29524 0.98636 0.0
H381 H 0.23381 0.24703 0.02036 0.0
H382 H 0.20469 0.22776 0.03445 0.0
H383 H 0.17376 0.18691 0.00494 0.0
H384 H 0.20248 0.2062 0.99064 0.0
H385 H 0.34427 0.20343 0.96792 0.0
H386 H 0.31981 0.23144 0.98027 0.0
H387 H 0.25404 0.20085 0.96515 0.0
H388 H 0.27816 0.17284 0.95292 0.0
H389 H 0.25112 0.20556 0.98956 0.0
H390 H 0.27553 0.25524 0.95548 0.0
H391 H 0.30509 0.27462 0.94166 0.0
H392 H 0.33747 0.31243 0.97178 0.0
H393 H 0.30828 0.29301 0.98581 0.0
C394 C 0.18071 0.29222 0.00714 0.0
C395 C 0.18947 0.30896 0.01576 0.0
C396 C 0.19689 0.27894 -6e-05 0.0
C397 C 0.22215 0.28193 0.0013 0.0
C398 C 0.23094 0.29965 0.00938 0.0
C399 C 0.21474 0.31305 0.01656 0.0
C400 C 0.23925 0.26556 -0.00519 0.0
C401 C 0.25708 0.27564 0.98718 0.0
C402 C 0.23737 0.23998 -0.00418 0.0
C403 C 0.22016 0.22822 0.00441 0.0
C404 C 0.22068 0.23407 0.01686 0.0
C405 C 0.20427 0.22312 0.02489 0.0
C406 C 0.18735 0.20617 0.02059 0.0
C407 C 0.18686 0.20007 0.00826 0.0
C408 C 0.20321 0.21099 0.00019 0.0
C409 C 0.32459 0.20265 0.96727 0.0
C410 C 0.31316 0.18591 0.95944 0.0
C411 C 0.31066 0.21874 0.97427 0.0
C412 C 0.28511 0.21835 0.97355 0.0
C413 C 0.27372 0.20147 0.96585 0.0
C414 C 0.28757 0.18549 0.95884 0.0
C415 C 0.26998 0.23518 0.98089 0.0
C416 C 0.25257 0.22516 0.98876 0.0
C417 C 0.27238 0.26076 0.98013 0.0
C418 C 0.28991 0.27245 0.97171 0.0
C419 C 0.28909 0.26752 0.95917 0.0
C420 C 0.30575 0.27855 0.95129 0.0
C421 C 0.3232 0.29469 0.95584 0.0
C422 C 0.32397 0.29989 0.96827 0.0
C423 C 0.30737 0.28889 0.97619 0.0
H424 H 0.33607 0.30321 0.94973 0.0
H425 H 0.17465 0.19771 0.02682 0.0
H426 H 0.68645 0.73879 0.29174 0.0
H427 H 0.70676 0.76497 0.27704 0.0
H428 H 0.6653 0.73207 0.24803 0.0
H429 H 0.64513 0.70537 0.26271 0.0
H430 H 0.71219 0.73343 0.24247 0.0
H431 H 0.65458 0.79108 0.25739 0.0
H432 H 0.63199 0.81455 0.2728 0.0
H433 H 0.69882 0.84652 0.28537 0.0
H434 H 0.72188 0.82298 0.27014 0.0
H435 H 0.75678 0.81325 0.19761 0.0
H436 H 0.72846 0.79378 0.21166 0.0
H437 H 0.77091 0.81957 0.24205 0.0
H438 H 0.79938 0.83934 0.22802 0.0
H439 H 0.72115 0.8229 0.24619 0.0
H440 H 0.77864 0.76291 0.23228 0.0
H441 H 0.80127 0.73938 0.21689 0.0
H442 H 0.73399 0.71177 0.20247 0.0
H443 H 0.71093 0.73542 0.21768 0.0
C444 C 0.68141 0.73726 0.28225 0.0
C445 C 0.66421 0.71991 0.2784 0.0
C446 C 0.69296 0.75239 0.27385 0.0
C447 C 0.68741 0.75067 0.26143 0.0
C448 C 0.66984 0.73374 0.25758 0.0
C449 C 0.65829 0.71853 0.26598 0.0
C450 C 0.70123 0.76534 0.25243 0.0
C451 C 0.71372 0.75305 0.24315 0.0
C452 C 0.70378 0.79088 0.2535 0.0
C453 C 0.68998 0.80509 0.26268 0.0
C454 C 0.66449 0.80296 0.2635 0.0
C455 C 0.6516 0.81631 0.2722 0.0
C456 C 0.66397 0.83198 0.28008 0.0
C457 C 0.68926 0.83437 0.27927 0.0
C458 C 0.70225 0.82105 0.27059 0.0
C459 C 0.76002 0.81502 0.20728 0.0
C460 C 0.7805 0.82766 0.2117 0.0
C461 C 0.74381 0.80383 0.2153 0.0
C462 C 0.74778 0.80494 0.22788 0.0
C463 C 0.76756 0.81845 0.23236 0.0
C464 C 0.78384 0.82967 0.22433 0.0
C465 C 0.73203 0.79092 0.2363 0.0
C466 C 0.71933 0.80331 0.24547 0.0
C467 C 0.72922 0.76545 0.23515 0.0
C468 C 0.74306 0.75114 0.22603 0.0
C469 C 0.76867 0.75198 0.22576 0.0
C470 C 0.78157 0.73859 0.21709 0.0
C471 C 0.76908 0.72414 0.20869 0.0
C472 C 0.74365 0.723 0.20897 0.0
C473 C 0.73065 0.73638 0.21762 0.0
H474 H 0.7791 0.71379 0.20198 0.0
H475 H 0.65395 0.8423 0.2868 0.0
H476 H 0.28512 0.14357 0.51449 0.0
H477 H 0.2579 0.16212 0.49951 0.0
H478 H 0.23899 0.21802 0.52539 0.0
H479 H 0.26552 0.19932 0.54043 0.0
H480 H 0.19985 0.20489 0.51303 0.0
H481 H 0.2828 0.22699 0.50314 0.0
H482 H 0.3258 0.21895 0.49801 0.0
H483 H 0.3035 0.17951 0.46618 0.0
H484 H 0.26034 0.18708 0.47122 0.0
H485 H 0.16853 0.3058 0.47581 0.0
H486 H 0.18514 0.27636 0.4902 0.0
H487 H 0.19549 0.22492 0.46103 0.0
H488 H 0.1791 0.25427 0.44658 0.0
H489 H 0.23644 0.23115 0.47397 0.0
H490 H 0.1529 0.21454 0.48283 0.0
H491 H 0.11036 0.22427 0.48811 0.0
H492 H 0.1339 0.25512 0.52201 0.0
H493 H 0.17664 0.24589 0.51686 0.0
C494 C 0.27498 0.15968 0.51701 0.0
C495 C 0.27767 0.1701 0.52861 0.0
C496 C 0.25948 0.1703 0.50844 0.0
C497 C 0.24667 0.19168 0.51127 0.0
C498 C 0.24867 0.20155 0.52299 0.0
C499 C 0.26397 0.19087 0.53157 0.0
C500 C 0.23217 0.20466 0.50192 0.0
C501 C 0.20787 0.21074 0.50451 0.0
C502 C 0.24245 0.21186 0.49068 0.0
C503 C 0.26837 0.20735 0.48763 0.0
C504 C 0.28708 0.21645 0.4951 0.0
C505 C 0.31147 0.212 0.4922 0.0
C506 C 0.31737 0.19866 0.48179 0.0
C507 C 0.2989 0.18979 0.47425 0.0
C508 C 0.27447 0.19416 0.47712 0.0
C509 C 0.17395 0.28808 0.47249 0.0
C510 C 0.17265 0.28246 0.46003 0.0
C511 C 0.18336 0.27122 0.48074 0.0
C512 C 0.1915 0.2484 0.47669 0.0
C513 C 0.18935 0.24242 0.46434 0.0
C514 C 0.17992 0.25924 0.4561 0.0
C515 C 0.2042 0.23169 0.48515 0.0
C516 C 0.22824 0.22497 0.4824 0.0
C517 C 0.19371 0.22412 0.49626 0.0
C518 C 0.16801 0.22968 0.49941 0.0
C519 C 0.14904 0.22357 0.49137 0.0
C520 C 0.12488 0.22897 0.49434 0.0
C521 C 0.11944 0.24035 0.50537 0.0
C522 C 0.13815 0.24632 0.51346 0.0
C523 C 0.16234 0.24098 0.51052 0.0
H524 H 0.10072 0.24451 0.50766 0.0
H525 H 0.33627 0.19524 0.47956 0.0
H526 H 0.78917 0.81366 0.76448 0.0
H527 H 0.76649 0.78706 0.7508 0.0
H528 H 0.81248 0.72683 0.76078 0.0
H529 H 0.83555 0.75347 0.77448 0.0
H530 H 0.80127 0.72699 0.73616 0.0
H531 H 0.7588 0.73132 0.77395 0.0
H532 H 0.73999 0.75145 0.79164 0.0
H533 H 0.68935 0.78776 0.76815 0.0
H534 H 0.7081 0.76812 0.75028 0.0
H535 H 0.71413 0.64291 0.71087 0.0
H536 H 0.74173 0.66305 0.72526 0.0
H537 H 0.70342 0.73062 0.71999 0.0
H538 H 0.67584 0.71074 0.70574 0.0
H539 H 0.71227 0.72199 0.7438 0.0
H540 H 0.75728 0.71989 0.70593 0.0
H541 H 0.77642 0.69981 0.6883 0.0
H542 H 0.82226 0.65856 0.71221 0.0
H543 H 0.80314 0.67819 0.73 0.0
C544 C 0.79471 0.79484 0.76368 0.0
C545 C 0.814 0.78562 0.77068 0.0
C546 C 0.78166 0.77963 0.75588 0.0
C547 C 0.7875 0.75488 0.75497 0.0
C548 C 0.8076 0.74586 0.76142 0.0
C549 C 0.82073 0.76111 0.76924 0.0
C550 C 0.77176 0.73839 0.74774 0.0
C551 C 0.78188 0.72554 0.73794 0.0
C552 C 0.74644 0.73663 0.75004 0.0
C553 C 0.73499 0.74838 0.76077 0.0
C554 C 0.74377 0.74373 0.77254 0.0
C555 C 0.7331 0.75503 0.78261 0.0
C556 C 0.71352 0.77091 0.78102 0.0
C557 C 0.70453 0.77547 0.76936 0.0
C558 C 0.71516 0.76424 0.75927 0.0
C559 C 0.71153 0.66202 0.71284 0.0
C560 C 0.69283 0.67524 0.70714 0.0
C561 C 0.72737 0.67351 0.72101 0.0
C562 C 0.72474 0.69838 0.72361 0.0
C563 C 0.70579 0.71142 0.71811 0.0
C564 C 0.69006 0.70002 0.70994 0.0
C565 C 0.74162 0.71112 0.732 0.0
C566 C 0.7317 0.72321 0.74208 0.0
C567 C 0.76708 0.71207 0.72997 0.0
C568 C 0.77857 0.70028 0.71929 0.0
C569 C 0.77129 0.70638 0.70743 0.0
C570 C 0.78216 0.69511 0.69741 0.0
C571 C 0.80049 0.67786 0.69914 0.0
C572 C 0.80802 0.67189 0.71089 0.0
C573 C 0.79718 0.68309 0.72094 0.0
H574 H 0.80889 0.66916 0.69137 0.0
H575 H 0.70528 0.77965 0.78882 0.0
H576 H 0.15373 0.167 0.15216 0.0
H577 H 0.15098 0.19644 0.13568 0.0
H578 H 0.07858 0.21607 0.14728 0.0
H579 H 0.08106 0.18644 0.16383 0.0
H580 H 0.08336 0.21384 0.12195 0.0
H581 H 0.12395 0.25109 0.15578 0.0
H582 H 0.15446 0.25385 0.17217 0.0
H583 H 0.21215 0.25121 0.14584 0.0
H584 H 0.18198 0.24808 0.12929 0.0
H585 H 0.0867 0.32172 0.08559 0.0
H586 H 0.08212 0.29461 0.1031 0.0
H587 H 0.15663 0.2712 0.09884 0.0
H588 H 0.16153 0.29847 0.08164 0.0
H589 H 0.14697 0.27805 0.12192 0.0
H590 H 0.10731 0.23709 0.08837 0.0
H591 H 0.07742 0.23309 0.07174 0.0
H592 H 0.01876 0.2419 0.0972 0.0
H593 H 0.04834 0.24625 0.11396 0.0
C594 C 0.13706 0.1773 0.15114 0.0
C595 C 0.11771 0.17453 0.15941 0.0
C596 C 0.13556 0.19419 0.14173 0.0
C597 C 0.11476 0.20874 0.14041 0.0
C598 C 0.09484 0.2051 0.1482 0.0
C599 C 0.09632 0.18817 0.15765 0.0
C600 C 0.11451 0.22856 0.13131 0.0
C601 C 0.097 0.22813 0.12203 0.0
C602 C 0.13249 0.24702 0.13138 0.0
C603 C 0.15069 0.24917 0.1413 0.0
C604 C 0.14314 0.25094 0.15349 0.0
C605 C 0.16038 0.25259 0.16281 0.0
C606 C 0.18523 0.25265 0.16005 0.0
C607 C 0.19289 0.25114 0.14796 0.0
C608 C 0.17573 0.24945 0.13861 0.0
C609 C 0.10215 0.31095 0.08846 0.0
C610 C 0.12445 0.31222 0.08217 0.0
C611 C 0.09946 0.29535 0.09842 0.0
C612 C 0.11893 0.28061 0.10218 0.0
C613 C 0.14133 0.28237 0.09611 0.0
C614 C 0.14408 0.29798 0.08624 0.0
C615 C 0.11622 0.26302 0.11232 0.0
C616 C 0.13315 0.26393 0.12187 0.0
C617 C 0.0978 0.24495 0.11244 0.0
C618 C 0.08003 0.24228 0.10238 0.0
C619 C 0.08804 0.23837 0.0904 0.0
C620 C 0.07116 0.236 0.08096 0.0
C621 C 0.04621 0.23732 0.0834 0.0
C622 C 0.03809 0.24093 0.09531 0.0
C623 C 0.0549 0.24333 0.10478 0.0
H624 H 0.03317 0.23548 0.07608 0.0
H625 H 0.19855 0.25393 0.16728 0.0
H626 H 0.65749 0.64429 0.33706 0.0
H627 H 0.68753 0.63998 0.35327 0.0
H628 H 0.72952 0.59132 0.33074 0.0
H629 H 0.69912 0.59494 0.3146 0.0
H630 H 0.7318 0.57686 0.35349 0.0
H631 H 0.74411 0.65182 0.33269 0.0
H632 H 0.73259 0.69147 0.32401 0.0
H633 H 0.71328 0.71753 0.35953 0.0
H634 H 0.72435 0.6779 0.36841 0.0
H635 H 0.83617 0.6448 0.38995 0.0
H636 H 0.81006 0.63977 0.37213 0.0
H637 H 0.76236 0.59293 0.39272 0.0
H638 H 0.78882 0.59716 0.4104 0.0
H639 H 0.76641 0.65415 0.36916 0.0
H640 H 0.7309 0.55488 0.37463 0.0
H641 H 0.74621 0.51505 0.38145 0.0
H642 H 0.8195 0.53714 0.37336 0.0
H643 H 0.8046 0.57697 0.36633 0.0
C644 C 0.67293 0.63238 0.33561 0.0
C645 C 0.67606 0.62016 0.32449 0.0
C646 C 0.69015 0.63002 0.34487 0.0
C647 C 0.71108 0.61579 0.34311 0.0
C648 C 0.71358 0.60251 0.33228 0.0
C649 C 0.69619 0.60462 0.32306 0.0
C650 C 0.73093 0.61591 0.35228 0.0
C651 C 0.73938 0.59373 0.35694 0.0
C652 C 0.74141 0.6379 0.35648 0.0
C653 C 0.73486 0.66182 0.3512 0.0
C654 C 0.73725 0.66596 0.33864 0.0
C655 C 0.73082 0.68843 0.33368 0.0
C656 C 0.72216 0.70699 0.34121 0.0
C657 C 0.71997 0.70313 0.35371 0.0
C658 C 0.72634 0.68067 0.35871 0.0
C659 C 0.82034 0.63309 0.39061 0.0
C660 C 0.81455 0.62141 0.4016 0.0
C661 C 0.80538 0.63028 0.38043 0.0
C662 C 0.78426 0.61588 0.38103 0.0
C663 C 0.77878 0.60375 0.39192 0.0
C664 C 0.7939 0.60629 0.40206 0.0
C665 C 0.76699 0.61509 0.37063 0.0
C666 C 0.75897 0.63721 0.36572 0.0
C667 C 0.75751 0.59301 0.36595 0.0
C668 C 0.76663 0.569 0.37006 0.0
C669 C 0.75027 0.55121 0.37426 0.0
C670 C 0.75888 0.52863 0.37817 0.0
C671 C 0.78382 0.5236 0.37788 0.0
C672 C 0.80019 0.5411 0.37363 0.0
C673 C 0.79168 0.56369 0.3697 0.0
H674 H 0.79045 0.50612 0.38092 0.0
H675 H 0.71719 0.72437 0.33735 0.0
H676 H 0.414 0.17615 0.57705 0.0
H677 H 0.42012 0.20705 0.59286 0.0
H678 H 0.34245 0.21096 0.59844 0.0
H679 H 0.33614 0.18031 0.58277 0.0
H680 H 0.3635 0.25597 0.59533 0.0
H681 H 0.37797 0.1825 0.61862 0.0
H682 H 0.39896 0.14397 0.62317 0.0
H683 H 0.46714 0.18193 0.62608 0.0
H684 H 0.44656 0.22066 0.62139 0.0
H685 H 0.34068 0.31276 0.65089 0.0
H686 H 0.34502 0.28593 0.63346 0.0
H687 H 0.42327 0.28916 0.63686 0.0
H688 H 0.41907 0.31576 0.65464 0.0
H689 H 0.40877 0.24355 0.63383 0.0
H690 H 0.39392 0.31774 0.61316 0.0
H691 H 0.37344 0.3565 0.60858 0.0
H692 H 0.3073 0.31819 0.60023 0.0
H693 H 0.32727 0.2792 0.60493 0.0
C694 C 0.39826 0.1834 0.58174 0.0
C695 C 0.37458 0.17579 0.57861 0.0
C696 C 0.4018 0.20105 0.59076 0.0
C697 C 0.38173 0.21133 0.59677 0.0
C698 C 0.35818 0.20336 0.59385 0.0
C699 C 0.35463 0.18573 0.58491 0.0
C700 C 0.38486 0.23094 0.60589 0.0
C701 C 0.37328 0.25325 0.60378 0.0
C702 C 0.39845 0.22767 0.61668 0.0
C703 C 0.41079 0.20441 0.6195 0.0
C704 C 0.39747 0.18259 0.62012 0.0
C705 C 0.40928 0.16073 0.62275 0.0
C706 C 0.43438 0.16049 0.62487 0.0
C707 C 0.4477 0.18214 0.62441 0.0
C708 C 0.43598 0.20404 0.62177 0.0
C709 C 0.35887 0.30805 0.64789 0.0
C710 C 0.37954 0.31645 0.65418 0.0
C711 C 0.36132 0.29276 0.63785 0.0
C712 C 0.38449 0.28576 0.63374 0.0
C713 C 0.40522 0.29439 0.63986 0.0
C714 C 0.40278 0.30966 0.64998 0.0
C715 C 0.38669 0.26839 0.62345 0.0
C716 C 0.39933 0.24651 0.6253 0.0
C717 C 0.37419 0.27211 0.61236 0.0
C718 C 0.36209 0.29553 0.60947 0.0
C719 C 0.37496 0.31758 0.61043 0.0
C720 C 0.36345 0.3396 0.6078 0.0
C721 C 0.33908 0.33981 0.60414 0.0
C722 C 0.32618 0.318 0.60307 0.0
C723 C 0.33761 0.29593 0.6057 0.0
H724 H 0.33019 0.35688 0.60211 0.0
H725 H 0.44349 0.14355 0.62691 0.0
H726 H 0.66461 0.83937 0.90484 0.0
H727 H 0.69238 0.83876 0.88754 0.0
H728 H 0.72363 0.90685 0.89922 0.0
H729 H 0.69571 0.90778 0.91657 0.0
H730 H 0.7192 0.90319 0.87384 0.0
H731 H 0.75148 0.85672 0.90707 0.0
H732 H 0.75 0.82569 0.9232 0.0
H733 H 0.73768 0.77009 0.89646 0.0
H734 H 0.73872 0.80086 0.88018 0.0
H735 H 0.82839 0.8872 0.83895 0.0
H736 H 0.79967 0.89473 0.85558 0.0
H737 H 0.76735 0.82415 0.84969 0.0
H738 H 0.79617 0.81628 0.83334 0.0
H739 H 0.77403 0.83155 0.87299 0.0
H740 H 0.74002 0.87757 0.83983 0.0
H741 H 0.74039 0.90832 0.82355 0.0
H742 H 0.75532 0.96427 0.84978 0.0
H743 H 0.75534 0.93377 0.86621 0.0
C744 C 0.67708 0.85446 0.90365 0.0
C745 C 0.67815 0.87347 0.9122 0.0
C746 C 0.69298 0.85404 0.89376 0.0
C747 C 0.71034 0.87252 0.89225 0.0
C748 C 0.71042 0.89235 0.90028 0.0
C749 C 0.69447 0.89282 0.9102 0.0
C750 C 0.72953 0.87007 0.88286 0.0
C751 C 0.73143 0.88772 0.87372 0.0
C752 C 0.74526 0.84973 0.88266 0.0
C753 C 0.74497 0.83113 0.89242 0.0
C754 C 0.74829 0.8379 0.90464 0.0
C755 C 0.74755 0.82036 0.91381 0.0
C756 C 0.74369 0.79594 0.91086 0.0
C757 C 0.74065 0.78901 0.89873 0.0
C758 C 0.74133 0.8065 0.88953 0.0
C759 C 0.81519 0.87328 0.84122 0.0
C760 C 0.8146 0.85113 0.83481 0.0
C761 C 0.7987 0.87767 0.85068 0.0
C762 C 0.78117 0.8601 0.85379 0.0
C763 C 0.78071 0.83796 0.84746 0.0
C764 C 0.79723 0.83351 0.83809 0.0
C765 C 0.76344 0.86439 0.86376 0.0
C766 C 0.76189 0.8471 0.87309 0.0
C767 C 0.74802 0.88501 0.86408 0.0
C768 C 0.74795 0.90336 0.85423 0.0
C769 C 0.74357 0.8964 0.84211 0.0
C770 C 0.74368 0.91379 0.83286 0.0
C771 C 0.74795 0.93822 0.83563 0.0
C772 C 0.75206 0.94533 0.84765 0.0
C773 C 0.752 0.92801 0.85694 0.0
H774 H 0.74802 0.95166 0.82845 0.0
H775 H 0.74311 0.78239 0.91797 0.0
H776 H 0.59976 0.70457 0.66233 0.0
H777 H 0.59651 0.73113 0.6447 0.0
H778 H 0.63465 0.67821 0.62286 0.0
H779 H 0.63869 0.65184 0.6406 0.0
H780 H 0.65396 0.72013 0.61944 0.0
H781 H 0.57238 0.69075 0.61903 0.0
H782 H 0.53194 0.68061 0.62738 0.0
H783 H 0.51953 0.75583 0.63576 0.0
H784 H 0.56005 0.76639 0.62761 0.0
H785 H 0.59731 0.79227 0.56614 0.0
H786 H 0.59216 0.76256 0.58244 0.0
H787 H 0.64613 0.80024 0.60389 0.0
H788 H 0.6518 0.82969 0.58755 0.0
H789 H 0.5792 0.76272 0.6058 0.0
H790 H 0.68196 0.7596 0.618 0.0
H791 H 0.72172 0.7665 0.6081 0.0
H792 H 0.69028 0.74973 0.57335 0.0
H793 H 0.65045 0.7424 0.58306 0.0
C794 C 0.60714 0.69838 0.65373 0.0
C795 C 0.61959 0.67611 0.65288 0.0
C796 C 0.60516 0.71358 0.64363 0.0
C797 C 0.61518 0.70664 0.6324 0.0
C798 C 0.62683 0.684 0.63143 0.0
C799 C 0.62907 0.66891 0.64157 0.0
C800 C 0.61519 0.72378 0.62198 0.0
C801 C 0.63756 0.72932 0.61645 0.0
C802 C 0.59377 0.73559 0.61791 0.0
C803 C 0.56935 0.72933 0.62279 0.0
C804 C 0.56111 0.70511 0.62274 0.0
C805 C 0.53815 0.69929 0.62742 0.0
C806 C 0.5232 0.71756 0.63212 0.0
C807 C 0.53114 0.7417 0.63212 0.0
C808 C 0.55409 0.74761 0.62746 0.0
C809 C 0.60787 0.79443 0.57439 0.0
C810 C 0.6252 0.81319 0.57548 0.0
C811 C 0.60486 0.77744 0.58371 0.0
C812 C 0.61909 0.77891 0.59427 0.0
C813 C 0.63532 0.79847 0.59569 0.0
C814 C 0.63847 0.81535 0.58636 0.0
C815 C 0.61801 0.75932 0.60351 0.0
C816 C 0.59552 0.75338 0.6088 0.0
C817 C 0.6392 0.74664 0.60716 0.0
C818 C 0.66318 0.75069 0.60125 0.0
C819 C 0.68357 0.75729 0.60826 0.0
C820 C 0.70611 0.76129 0.60268 0.0
C821 C 0.7085 0.75863 0.5901 0.0
C822 C 0.68838 0.75187 0.58308 0.0
C823 C 0.66582 0.74781 0.58862 0.0
H824 H 0.72596 0.76176 0.5858 0.0
H825 H 0.50543 0.71301 0.63574 0.0
H826 H 0.34801 0.13204 0.89833 0.0
H827 H 0.32217 0.12974 0.88029 0.0
H828 H 0.27197 0.08316 0.89948 0.0
H829 H 0.29797 0.0849 0.91747 0.0
H830 H 0.27559 0.06963 0.87599 0.0
H831 H 0.26195 0.14377 0.89802 0.0
H832 H 0.27371 0.18217 0.90804 0.0
H833 H 0.30166 0.20935 0.87423 0.0
H834 H 0.29037 0.17095 0.86405 0.0
H835 H 0.16886 0.09753 0.8408 0.0
H836 H 0.19898 0.09084 0.85688 0.0
H837 H 0.25025 0.13654 0.83787 0.0
H838 H 0.22036 0.14354 0.82191 0.0
H839 H 0.24618 0.14953 0.86121 0.0
H840 H 0.25768 0.07497 0.83903 0.0
H841 H 0.2447 0.03657 0.82941 0.0
H842 H 0.219 0.01027 0.86383 0.0
H843 H 0.23154 0.04867 0.87364 0.0
C844 C 0.33169 0.12097 0.89866 0.0
C845 C 0.32489 0.10891 0.9094 0.0
C846 C 0.31689 0.11973 0.88835 0.0
C847 C 0.29488 0.1067 0.88864 0.0
C848 C 0.28882 0.09342 0.89908 0.0
C849 C 0.3037 0.09449 0.90937 0.0
C850 C 0.27734 0.10845 0.87842 0.0
C851 C 0.26898 0.08707 0.87281 0.0
C852 C 0.26887 0.13123 0.87422 0.0
C853 C 0.27555 0.1544 0.8803 0.0
C854 C 0.27076 0.15787 0.89275 0.0
C855 C 0.27732 0.17964 0.89845 0.0
C856 C 0.28849 0.19816 0.89178 0.0
C857 C 0.29305 0.19497 0.87939 0.0
C858 C 0.28657 0.17321 0.87364 0.0
C859 C 0.18664 0.10596 0.83999 0.0
C860 C 0.19213 0.12118 0.8301 0.0
C861 C 0.20386 0.10203 0.84916 0.0
C862 C 0.2269 0.11313 0.84854 0.0
C863 C 0.23258 0.12785 0.83854 0.0
C864 C 0.21543 0.1318 0.82941 0.0
C865 C 0.24464 0.11074 0.85863 0.0
C866 C 0.2529 0.13206 0.8643 0.0
C867 C 0.2528 0.08792 0.86292 0.0
C868 C 0.24533 0.06479 0.85705 0.0
C869 C 0.24908 0.06108 0.84453 0.0
C870 C 0.24184 0.0393 0.83905 0.0
C871 C 0.23098 0.02102 0.846 0.0
C872 C 0.22739 0.02446 0.85846 0.0
C873 C 0.23458 0.04622 0.86399 0.0
H874 H 0.22538 0.00416 0.84174 0.0
H875 H 0.29355 0.215 0.89621 0.0
H876 H 0.85895 0.83235 0.15275 0.0
H877 H 0.8625 0.80502 0.13531 0.0
H878 H 0.90654 0.75613 0.15663 0.0
H879 H 0.90378 0.78377 0.17396 0.0
H880 H 0.92312 0.75687 0.13448 0.0
H881 H 0.84463 0.7465 0.15255 0.0
H882 H 0.80464 0.75936 0.16049 0.0
H883 H 0.78478 0.78614 0.12523 0.0
H884 H 0.8248 0.77373 0.11711 0.0
H885 H 0.85403 0.66104 0.09348 0.0
H886 H 0.85781 0.68571 0.11187 0.0
H887 H 0.90999 0.73194 0.09378 0.0
H888 H 0.90695 0.70686 0.07553 0.0
H889 H 0.8457 0.72999 0.11543 0.0
H890 H 0.94763 0.75908 0.11384 0.0
H891 H 0.98729 0.74201 0.10767 0.0
H892 H 0.95978 0.66972 0.11303 0.0
H893 H 0.92008 0.68635 0.11939 0.0
C894 C 0.86965 0.81593 0.15368 0.0
C895 C 0.88089 0.81012 0.16477 0.0
C896 C 0.87157 0.80026 0.14372 0.0
C897 C 0.88433 0.77824 0.14474 0.0
C898 C 0.89652 0.77296 0.15563 0.0
C899 C 0.89488 0.78878 0.16554 0.0
C900 C 0.88403 0.76022 0.13467 0.0
C901 C 0.90621 0.75101 0.1303 0.0
C902 C 0.86193 0.752 0.12942 0.0
C903 C 0.83779 0.75939 0.13425 0.0
C904 C 0.83179 0.75528 0.14651 0.0
C905 C 0.80912 0.76247 0.15104 0.0
C906 C 0.79221 0.77361 0.14338 0.0
C907 C 0.79791 0.77753 0.13116 0.0
C908 C 0.82058 0.77041 0.12658 0.0
C909 C 0.86659 0.67624 0.09348 0.0
C910 C 0.88019 0.68198 0.08304 0.0
C911 C 0.86868 0.69039 0.10399 0.0
C912 C 0.88427 0.71065 0.10426 0.0
C913 C 0.89819 0.71615 0.09391 0.0
C914 C 0.89635 0.70183 0.08345 0.0
C915 C 0.88484 0.72684 0.11509 0.0
C916 C 0.86266 0.73578 0.1196 0.0
C917 C 0.9069 0.73417 0.12069 0.0
C918 C 0.9308 0.72399 0.11698 0.0
C919 C 0.95008 0.73955 0.11375 0.0
C920 C 0.97256 0.72994 0.11021 0.0
C921 C 0.97603 0.70479 0.10992 0.0
C922 C 0.95704 0.68919 0.11321 0.0
C923 C 0.93454 0.6987 0.11677 0.0
H924 H 0.99345 0.6974 0.10717 0.0
H925 H 0.77466 0.77916 0.1469 0.0
H926 H 0.21519 0.35291 0.41061 0.0
H927 H 0.24271 0.35886 0.39356 0.0
H928 H 0.19826 0.41796 0.38061 0.0
H929 H 0.17027 0.4121 0.39779 0.0
H930 H 0.21211 0.38573 0.36227 0.0
H931 H 0.25076 0.43163 0.39348 0.0
H932 H 0.26683 0.43978 0.41401 0.0
H933 H 0.3178 0.38117 0.41006 0.0
H934 H 0.3018 0.37242 0.38957 0.0
H935 H 0.30494 0.40539 0.3177 0.0
H936 H 0.27717 0.4144 0.33454 0.0
H937 H 0.30961 0.35685 0.35559 0.0
H938 H 0.33743 0.34783 0.33891 0.0
H939 H 0.3007 0.39698 0.36941 0.0
H940 H 0.25766 0.34717 0.34003 0.0
H941 H 0.2412 0.33752 0.31973 0.0
H942 H 0.19837 0.40276 0.32047 0.0
H943 H 0.21485 0.41295 0.34073 0.0
C944 C 0.21114 0.36722 0.40418 0.0
C945 C 0.19051 0.38209 0.40561 0.0
C946 C 0.22702 0.37066 0.39445 0.0
C947 C 0.22273 0.38908 0.38593 0.0
C948 C 0.20195 0.40374 0.38715 0.0
C949 C 0.18603 0.40038 0.39697 0.0
C950 C 0.23992 0.39238 0.37567 0.0
C951 C 0.2314 0.3888 0.36379 0.0
C952 C 0.26514 0.39601 0.3777 0.0
C953 C 0.27496 0.40129 0.39 0.0
C954 C 0.26528 0.42037 0.39702 0.0
C955 C 0.2744 0.42511 0.40865 0.0
C956 C 0.2933 0.41098 0.41334 0.0
C957 C 0.30316 0.3921 0.40641 0.0
C958 C 0.2941 0.38727 0.39478 0.0
C959 C 0.30638 0.39487 0.32598 0.0
C960 C 0.3233 0.37577 0.32693 0.0
C961 C 0.29043 0.39999 0.33557 0.0
C962 C 0.29116 0.38611 0.34626 0.0
C963 C 0.30873 0.36777 0.34742 0.0
C964 C 0.32457 0.36258 0.33784 0.0
C965 C 0.27297 0.38967 0.35606 0.0
C966 C 0.28134 0.3945 0.36787 0.0
C967 C 0.24764 0.38711 0.35396 0.0
C968 C 0.23772 0.38098 0.34181 0.0
C969 C 0.24489 0.35956 0.33581 0.0
C970 C 0.23553 0.35397 0.32433 0.0
C971 C 0.21881 0.36956 0.31879 0.0
C972 C 0.21137 0.39073 0.32476 0.0
C973 C 0.22071 0.39642 0.33624 0.0
H974 H 0.21157 0.36519 0.3099 0.0
H975 H 0.30034 0.41468 0.42235 0.0
H976 H 0.02597 0.09431 0.20049 0.0
H977 H -0.00144 0.05932 0.20106 0.0
H978 H 0.05963 0.01123 0.19553 0.0
H979 H 0.08703 0.04625 0.19452 0.0
H980 H 0.02337 -0.00362 0.18232 0.0
H981 H 0.03207 0.01945 0.22402 0.0
H982 H 0.03157 0.04704 0.2417 0.0
H983 H 0.95528 0.06028 0.23622 0.0
H984 H 0.9554 0.033 0.21839 0.0
H985 H 0.96515 0.88785 0.20317 0.0
H986 H 0.99177 0.92348 0.20178 0.0
H987 H 0.92887 0.97006 0.19933 0.0
H988 H 0.90206 0.93446 0.20054 0.0
H989 H 0.96545 0.98545 0.21652 0.0
H990 H 0.95798 0.96055 0.17469 0.0
H991 H 0.95978 0.93139 0.15768 0.0
H992 H 0.0359 0.91969 0.16447 0.0
H993 H 0.03446 0.94853 0.18165 0.0
C994 C 0.03357 0.07629 0.19939 0.0
C995 C 0.05869 0.07305 0.19751 0.0
C996 C 0.01788 0.05626 0.19978 0.0
C997 C 0.02704 0.03255 0.19855 0.0
C998 C 0.0521 0.02931 0.19652 0.0
C999 C 0.06776 0.04936 0.19598 0.0
C1000 C 0.01051 0.01114 0.19931 0.0
C1001 C 0.01096 0.99388 0.18989 0.0
C1002 C 0.99396 0.00797 0.20908 0.0
C1003 C 0.99381 0.02438 0.2198 0.0
C1004 C 0.01523 0.02839 0.22652 0.0
C1005 C 0.01501 0.04395 0.23658 0.0
C1006 C 0.99342 0.05546 0.24006 0.0
C1007 C 0.972 0.05138 0.2335 0.0
C1008 C 0.97213 0.03586 0.22343 0.0
C1009 C 0.95697 0.90567 0.20234 0.0
C1010 C 0.9315 0.90835 0.20195 0.0
C1011 C 0.9722 0.92598 0.20151 0.0
C1012 C 0.96226 0.94935 0.2004 0.0
C1013 C 0.93686 0.95215 0.20017 0.0
C1014 C 0.9216 0.9318 0.20082 0.0
C1015 C 0.97843 0.97087 0.19956 0.0
C1016 C 0.97789 0.98808 0.20897 0.0
C1017 C 0.99513 0.97381 0.18988 0.0
C1018 C 0.99604 0.95651 0.17954 0.0
C1019 C 0.97505 0.95159 0.17263 0.0
C1020 C 0.97601 0.93515 0.16294 0.0
C1021 C -0.00208 0.92364 0.16001 0.0
C1022 C 0.01893 0.92859 0.16676 0.0
C1023 C 0.01805 0.945 0.17647 0.0
H1024 H -0.00137 0.91092 0.15251 0.0
H1025 H 0.99329 0.06749 0.24785 0.0
H1026 H 0.04352 0.41114 0.4352 0.0
H1027 H 0.00931 0.43946 0.43588 0.0
H1028 H 0.05956 0.49978 0.43784 0.0
H1029 H 0.0938 0.47141 0.43774 0.0
H1030 H 0.02497 0.50779 0.45279 0.0
H1031 H 0.02672 0.48369 0.41104 0.0
H1032 H 0.02721 0.45528 0.39368 0.0
H1033 H 0.95782 0.42658 0.40462 0.0
H1034 H 0.95705 0.4546 0.42214 0.0
H1035 H 0.93681 0.59848 0.43731 0.0
H1036 H 0.97157 0.57065 0.43651 0.0
H1037 H 0.92339 0.50988 0.44254 0.0
H1038 H 0.88857 0.53756 0.44346 0.0
H1039 H 0.95688 0.50298 0.42324 0.0
H1040 H 0.95652 0.52864 0.46524 0.0
H1041 H 0.95679 0.55883 0.48183 0.0
H1042 H 0.02513 0.58701 0.46905 0.0
H1043 H 0.02509 0.55719 0.45227 0.0
C1044 C 0.04726 0.43045 0.43574 0.0
C1045 C 0.07134 0.43906 0.43638 0.0
C1046 C 0.02768 0.44666 0.43605 0.0
C1047 C 0.03178 0.47186 0.43669 0.0
C1048 C 0.05587 0.48045 0.43734 0.0
C1049 C 0.07544 0.46422 0.43725 0.0
C1050 C 0.011 0.48921 0.43697 0.0
C1051 C 0.01031 0.50692 0.44619 0.0
C1052 C 0.99156 0.48795 0.42851 0.0
C1053 C 0.99194 0.47109 0.41797 0.0
C1054 C 0.01165 0.47119 0.40979 0.0
C1055 C 0.01196 0.45518 0.39992 0.0
C1056 C 0.99259 0.43909 0.39806 0.0
C1057 C 0.97283 0.43903 0.40607 0.0
C1058 C 0.97243 0.45499 0.41597 0.0
C1059 C 0.93361 0.5792 0.43849 0.0
C1060 C 0.90994 0.57022 0.44048 0.0
C1061 C 0.95349 0.56335 0.43806 0.0
C1062 C 0.95003 0.53824 0.43952 0.0
C1063 C 0.92642 0.5292 0.44139 0.0
C1064 C 0.90657 0.54506 0.44197 0.0
C1065 C 0.97101 0.52134 0.43901 0.0
C1066 C 0.97167 0.50379 0.42977 0.0
C1067 C 0.9906 0.52298 0.44732 0.0
C1068 C 0.99067 0.54085 0.45743 0.0
C1069 C 0.9715 0.54142 0.4659 0.0
C1070 C 0.97163 0.55843 0.47535 0.0
C1071 C 0.99093 0.57487 0.47647 0.0
C1072 C 0.01017 0.57429 0.46816 0.0
C1073 C 0.01012 0.55732 0.45869 0.0
H1074 H 0.991 0.58803 0.4838 0.0
H1075 H 0.99287 0.42671 0.39041 0.0
H1076 H 0.53774 0.60455 0.69588 0.0
H1077 H 0.51017 0.56969 0.69551 0.0
H1078 H 0.57139 0.52157 0.69049 0.0
H1079 H 0.59899 0.55651 0.69041 0.0
H1080 H 0.53642 0.50806 0.6762 0.0
H1081 H 0.54099 0.52784 0.71846 0.0
H1082 H 0.53891 0.55405 0.73663 0.0
H1083 H 0.4634 0.56849 0.72949 0.0
H1084 H 0.46511 0.54261 0.71118 0.0
H1085 H 0.4737 0.399 0.69264 0.0
H1086 H 0.5013 0.434 0.69283 0.0
H1087 H 0.43984 0.48246 0.69035 0.0
H1088 H 0.41209 0.44755 0.68999 0.0
H1089 H 0.47474 0.49529 0.70855 0.0
H1090 H 0.47145 0.47425 0.66605 0.0
H1091 H 0.47461 0.44659 0.64846 0.0
H1092 H 0.54961 0.43268 0.65707 0.0
H1093 H 0.54679 0.46001 0.67482 0.0
C1094 C 0.54535 0.58654 0.69473 0.0
C1095 C 0.57056 0.58328 0.69322 0.0
C1096 C 0.52956 0.56659 0.69458 0.0
C1097 C 0.5387 0.54291 0.69317 0.0
C1098 C 0.56389 0.53964 0.6916 0.0
C1099 C 0.57966 0.55962 0.69159 0.0
C1100 C 0.52197 0.52161 0.69312 0.0
C1101 C 0.5232 0.50512 0.68338 0.0
C1102 C 0.50436 0.51791 0.70237 0.0
C1103 C 0.50325 0.53347 0.71338 0.0
C1104 C 0.52399 0.53675 0.72071 0.0
C1105 C 0.52287 0.55152 0.73105 0.0
C1106 C 0.50105 0.56298 0.7342 0.0
C1107 C 0.48029 0.55963 0.72703 0.0
C1108 C 0.48132 0.54489 0.71668 0.0
C1109 C 0.46605 0.4171 0.69212 0.0
C1110 C 0.44072 0.42052 0.69128 0.0
C1111 C 0.48184 0.43705 0.6922 0.0
C1112 C 0.47258 0.46077 0.69155 0.0
C1113 C 0.44731 0.46428 0.69085 0.0
C1114 C 0.43151 0.44432 0.69061 0.0
C1115 C 0.4893 0.48193 0.69166 0.0
C1116 C 0.48804 0.49832 0.70141 0.0
C1117 C 0.50708 0.48536 0.68252 0.0
C1118 C 0.50883 0.46898 0.67183 0.0
C1119 C 0.48855 0.46512 0.66425 0.0
C1120 C 0.4903 0.44954 0.65424 0.0
C1121 C 0.51228 0.43783 0.65167 0.0
C1122 C 0.53258 0.44173 0.65908 0.0
C1123 C 0.53093 0.45728 0.66911 0.0
H1124 H 0.51359 0.42578 0.64391 0.0
H1125 H 0.50022 0.5744 0.7422 0.0
H1126 H 0.4423 0.08919 0.94874 0.0
H1127 H 0.4779 0.06256 0.9488 0.0
H1128 H 0.4309 -4e-05 0.9521 0.0
H1129 H 0.39531 0.02656 0.95248 0.0
H1130 H 0.46769 0.99457 0.96646 0.0
H1131 H 0.45927 0.01657 0.92461 0.0
H1132 H 0.45526 0.04424 0.90713 0.0
H1133 H 0.52469 0.07618 0.91551 0.0
H1134 H 0.52897 0.0489 0.93315 0.0
H1135 H 0.55568 0.90576 0.94906 0.0
H1136 H 0.52029 0.93279 0.94904 0.0
H1137 H 0.56778 0.99498 0.95219 0.0
H1138 H 0.60329 0.9681 0.9523 0.0
H1139 H 0.53115 0.00035 0.93447 0.0
H1140 H 0.53873 0.97682 0.97648 0.0
H1141 H 0.54209 0.94763 0.99338 0.0
H1142 H 0.47294 0.91657 0.98369 0.0
H1143 H 0.46932 0.94537 0.96662 0.0
C1144 C 0.43956 0.06974 0.94947 0.0
C1145 C 0.41598 0.05997 0.95057 0.0
C1146 C 0.45993 0.05452 0.94944 0.0
C1147 C 0.45712 0.02917 0.95025 0.0
C1148 C 0.43358 0.01942 0.95144 0.0
C1149 C 0.41323 0.03466 0.95164 0.0
C1150 C 0.47869 0.01282 0.95002 0.0
C1151 C 0.48136 0.99565 0.95936 0.0
C1152 C 0.49683 0.01443 0.94089 0.0
C1153 C 0.49432 0.03085 0.93028 0.0
C1154 C 0.4736 0.02962 0.92278 0.0
C1155 C 0.47129 0.04521 0.91283 0.0
C1156 C 0.48968 0.062 0.91023 0.0
C1157 C 0.51044 0.06319 0.91755 0.0
C1158 C 0.51283 0.04765 0.92752 0.0
C1159 C 0.55861 0.92519 0.94975 0.0
C1160 C 0.58229 0.93479 0.95072 0.0
C1161 C 0.53836 0.94059 0.94977 0.0
C1162 C 0.54143 0.96585 0.95069 0.0
C1163 C 0.56504 0.97552 0.95148 0.0
C1164 C 0.58529 0.96013 0.95158 0.0
C1165 C 0.51999 0.98221 0.95087 0.0
C1166 C 0.5174 -0.00066 0.94154 0.0
C1167 C 0.50177 0.98036 0.95991 0.0
C1168 C 0.50388 0.96309 0.9702 0.0
C1169 C 0.52433 0.96363 0.97789 0.0
C1170 C 0.52627 0.94718 0.98751 0.0
C1171 C 0.50777 0.93021 0.98958 0.0
C1172 C 0.48727 0.9297 0.98206 0.0
C1173 C 0.48526 0.9461 0.97242 0.0
H1174 H 0.5093 0.9175 -0.00296 0.0
H1175 H 0.48786 0.07406 0.90252 0.0
H1176 H 0.96858 0.60882 0.04287 0.0
H1177 H 0.99582 0.57383 0.04385 0.0
H1178 H 0.93375 0.52585 0.04643 0.0
H1179 H 0.90643 0.56092 0.04591 0.0
H1180 H 0.96671 0.51155 0.0616 0.0
H1181 H 0.96788 0.53309 0.0195 0.0
H1182 H 0.9726 0.56009 0.00178 0.0
H1183 H 0.04707 0.57379 0.01162 0.0
H1184 H 0.0427 0.54711 0.0295 0.0
H1185 H 0.03041 0.40267 0.04587 0.0
H1186 H 0.00317 0.43785 0.0455 0.0
H1187 H 0.0648 0.48578 0.04986 0.0
H1188 H 0.09217 0.45068 0.05035 0.0
H1189 H 0.03232 0.49969 0.03115 0.0
H1190 H 0.03001 0.47674 0.07334 0.0
H1191 H 0.02435 0.44841 0.09046 0.0
H1192 H 0.9504 0.43564 0.07941 0.0
H1193 H 0.95572 0.46365 0.06212 0.0
C1194 C 0.96072 0.59081 0.04362 0.0
C1195 C 0.93534 0.58763 0.04426 0.0
C1196 C 0.97633 0.57078 0.04412 0.0
C1197 C 0.96688 0.5471 0.045 0.0
C1198 C 0.94151 0.54391 0.04572 0.0
C1199 C 0.9259 0.56397 0.04539 0.0
C1200 C 0.98343 0.5257 0.04535 0.0
C1201 C 0.98081 0.50882 0.05483 0.0
C1202 C 0.00218 0.52226 0.03665 0.0
C1203 C 0.00489 0.53829 0.0259 0.0
C1204 C 0.98521 0.542 0.01794 0.0
C1205 C 0.98783 0.55722 0.00786 0.0
C1206 C 0.0101 0.56869 0.0056 0.0
C1207 C 0.02982 0.56491 0.01339 0.0
C1208 C 0.02729 0.54973 0.02349 0.0
C1209 C 0.03817 0.42069 0.04678 0.0
C1210 C 0.06345 0.42389 0.04815 0.0
C1211 C 0.02258 0.44075 0.0466 0.0
C1212 C 0.03198 0.46439 0.04771 0.0
C1213 C 0.0572 0.46767 0.049 0.0
C1214 C 0.07279 0.4476 0.04932 0.0
C1215 C 0.0155 0.4857 0.04736 0.0
C1216 C 0.01816 0.50251 0.03789 0.0
C1217 C 0.9966 0.4889 0.05595 0.0
C1218 C 0.99335 0.4721 0.06636 0.0
C1219 C 0.0126 0.46773 0.0745 0.0
C1220 C 0.00944 0.45176 0.08424 0.0
C1221 C 0.98705 0.44018 0.086 0.0
C1222 C 0.96774 0.44459 0.07803 0.0
C1223 C 0.97082 0.46053 0.06826 0.0
H1224 H 0.98463 0.42783 0.09355 0.0
H1225 H 0.01209 0.58047 -0.00221 0.0
H1226 H 0.55203 0.58713 0.29911 0.0
H1227 H 0.51959 0.55664 0.29966 0.0
H1228 H 0.56146 0.51036 0.27586 0.0
H1229 H 0.59415 0.54054 0.27546 0.0
H1230 H 0.49095 0.53788 0.28293 0.0
H1231 H 0.55138 0.45127 0.28299 0.0
H1232 H 0.59183 0.43831 0.29029 0.0
H1233 H 0.5904 0.49395 0.3177 0.0
H1234 H 0.54982 0.50701 0.31068 0.0
H1235 H 0.41521 0.4368 0.27051 0.0
H1236 H 0.448 0.46692 0.2702 0.0
H1237 H 0.46987 0.44478 0.30621 0.0
H1238 H 0.43794 0.4138 0.30625 0.0
H1239 H 0.50818 0.45228 0.29407 0.0
H1240 H 0.43525 0.49866 0.29995 0.0
H1241 H 0.39365 0.51278 0.29531 0.0
H1242 H 0.41803 0.53993 0.26081 0.0
H1243 H 0.45972 0.5257 0.26519 0.0
C1244 C 0.55435 0.57046 0.294 0.0
C1245 C 0.57574 0.56622 0.28729 0.0
C1246 C 0.53575 0.55307 0.29429 0.0
C1247 C 0.53817 0.53109 0.28791 0.0
C1248 C 0.55933 0.527 0.28103 0.0
C1249 C 0.57798 0.54433 0.28077 0.0
C1250 C 0.51857 0.51244 0.28846 0.0
C1251 C 0.49471 0.51916 0.28536 0.0
C1252 C 0.52334 0.48811 0.29188 0.0
C1253 C 0.54768 0.48027 0.29621 0.0
C1254 C 0.55967 0.46068 0.2906 0.0
C1255 C 0.58263 0.45333 0.29469 0.0
C1256 C 0.59372 0.46536 0.30442 0.0
C1257 C 0.58184 0.48471 0.31012 0.0
C1258 C 0.55888 0.49212 0.30608 0.0
C1259 C 0.42706 0.43834 0.27834 0.0
C1260 C 0.42396 0.42301 0.28842 0.0
C1261 C 0.44573 0.45568 0.2782 0.0
C1262 C 0.4612 0.45854 0.28829 0.0
C1263 C 0.45823 0.443 0.29831 0.0
C1264 C 0.43992 0.42532 0.29834 0.0
C1265 C 0.48049 0.47762 0.28843 0.0
C1266 C 0.50435 0.47098 0.29162 0.0
C1267 C 0.47556 0.5022 0.28547 0.0
C1268 C 0.45055 0.51093 0.28286 0.0
C1269 C 0.4317 0.50752 0.29135 0.0
C1270 C 0.40812 0.51556 0.28877 0.0
C1271 C 0.40319 0.52719 0.27776 0.0
C1272 C 0.42186 0.53089 0.26933 0.0
C1273 C 0.44548 0.52287 0.27186 0.0
H1274 H 0.38491 0.53339 0.27578 0.0
H1275 H 0.61149 0.45964 0.30757 0.0
H1276 H 0.41753 0.0429 0.55493 0.0
H1277 H 0.44873 0.0113 0.55394 0.0
H1278 H 0.49257 0.05693 0.53075 0.0
H1279 H 0.46133 0.08855 0.53158 0.0
H1280 H 0.4912 0.01137 0.52225 0.0
H1281 H 0.50727 0.04985 0.56044 0.0
H1282 H 0.49739 0.06575 0.58081 0.0
H1283 H 0.47677 0.99418 0.59248 0.0
H1284 H 0.4862 0.9779 0.57211 0.0
H1285 H 0.60029 0.93749 0.54891 0.0
H1286 H 0.57203 0.9718 0.5497 0.0
H1287 H 0.51914 0.93035 0.52935 0.0
H1288 H 0.54737 0.8961 0.52839 0.0
H1289 H 0.52772 0.97626 0.55954 0.0
H1290 H 0.48707 0.96849 0.51109 0.0
H1291 H 0.49955 0.95497 0.49063 0.0
H1292 H 0.57439 0.9697 0.49936 0.0
H1293 H 0.56232 0.9836 0.51981 0.0
C1294 C 0.43382 0.04625 0.54963 0.0
C1295 C 0.43696 0.06828 0.54335 0.0
C1296 C 0.45168 0.02819 0.54911 0.0
C1297 C 0.47309 0.03184 0.54236 0.0
C1298 C 0.4762 0.05373 0.53601 0.0
C1299 C 0.45835 0.07181 0.53653 0.0
C1300 C 0.49212 0.01271 0.54182 0.0
C1301 C 0.49919 0.00369 0.53041 0.0
C1302 C 0.50287 0.00298 0.55244 0.0
C1303 C 0.49724 0.0127 0.56471 0.0
C1304 C 0.50045 0.03753 0.56732 0.0
C1305 C 0.49496 0.04661 0.57887 0.0
C1306 C 0.4864 0.031 0.58793 0.0
C1307 C 0.48337 0.00626 0.58545 0.0
C1308 C 0.48881 -0.00291 0.57391 0.0
C1309 C 0.58268 0.93569 0.54457 0.0
C1310 C 0.57612 0.91408 0.53854 0.0
C1311 C 0.56651 0.9553 0.54506 0.0
C1312 C 0.54356 0.95373 0.53949 0.0
C1313 C 0.5369 0.93211 0.53355 0.0
C1314 C 0.55304 0.91251 0.53305 0.0
C1315 C 0.52647 0.97462 0.53999 0.0
C1316 C 0.51974 0.98394 0.55139 0.0
C1317 C 0.51636 0.98493 0.52935 0.0
C1318 C 0.52379 0.97686 0.51702 0.0
C1319 C 0.50618 0.96892 0.50863 0.0
C1320 C 0.51318 0.96118 0.49703 0.0
C1321 C 0.53775 0.9614 0.49371 0.0
C1322 C 0.55537 0.96944 0.50196 0.0
C1323 C 0.54846 0.97723 0.51356 0.0
H1324 H 0.54314 0.95538 0.48473 0.0
H1325 H 0.48217 0.03806 0.59687 0.0
H1326 H 0.9495 0.89821 0.81937 0.0
H1327 H 0.97903 0.93147 0.82015 0.0
H1328 H 0.94221 0.96683 0.7904 0.0
H1329 H 0.91222 0.93398 0.7898 0.0
H1330 H 0.0113 0.94806 0.80499 0.0
H1331 H 0.94638 0.02779 0.79319 0.0
H1332 H 0.90315 0.03892 0.79576 0.0
H1333 H 0.89802 0.99242 0.82695 0.0
H1334 H 0.94128 0.98126 0.82468 0.0
H1335 H 0.0812 0.05164 0.78965 0.0
H1336 H 0.05135 0.01864 0.7897 0.0
H1337 H 0.01931 0.04759 0.82248 0.0
H1338 H 0.04869 0.08102 0.82229 0.0
H1339 H 0.98477 0.03406 0.80776 0.0
H1340 H 0.05738 -0.00266 0.82292 0.0
H1341 H 0.10082 0.98596 0.82299 0.0
H1342 H 0.0909 0.94598 0.7898 0.0
H1343 H 0.04745 0.95739 0.78945 0.0
C1344 C 0.94768 0.91307 0.813 0.0
C1345 C 0.92843 0.91352 0.80457 0.0
C1346 C 0.96462 0.93205 0.81344 0.0
C1347 C 0.9627 0.95183 0.80544 0.0
C1348 C 0.9438 0.95203 0.79684 0.0
C1349 C 0.92672 0.93317 0.79646 0.0
C1350 C 0.98049 0.97219 0.80611 0.0
C1351 C 0.00548 0.96686 0.80558 0.0
C1352 C 0.97298 -0.00328 0.80715 0.0
C1353 C 0.947 0.00351 0.80868 0.0
C1354 C 0.93604 0.02001 0.80062 0.0
C1355 C 0.91153 0.02631 0.80202 0.0
C1356 C 0.89783 0.01632 0.81149 0.0
C1357 C 0.90863 7e-05 0.8196 0.0
C1358 C 0.93314 0.99373 0.81825 0.0
C1359 C 0.06779 0.051 0.79687 0.0
C1360 C 0.06737 0.06891 0.80599 0.0
C1361 C 0.05079 0.03205 0.79691 0.0
C1362 C 0.03327 0.03041 0.80619 0.0
C1363 C 0.03265 0.04845 0.81523 0.0
C1364 C 0.0495 0.06752 0.81513 0.0
C1365 C 0.01556 0.00995 0.80646 0.0
C1366 C 0.99058 0.01526 0.80714 0.0
C1367 C 0.02311 0.98537 0.80592 0.0
C1368 C 0.04921 0.97841 0.80611 0.0
C1369 C 0.0645 0.98627 0.81559 0.0
C1370 C 0.08912 0.97979 0.81569 0.0
C1371 C 0.09863 0.9653 0.80639 0.0
C1372 C 0.08352 0.95722 0.79699 0.0
C1373 C 0.05889 0.96367 0.79685 0.0
H1374 H 0.11769 0.9603 0.80648 0.0
H1375 H 0.87885 0.02121 0.81255 0.0
loop_
_geom_bond_atom_site_label_1
_geom_bond_atom_site_label_2
_geom_bond_distance
_geom_bond_site_symmetry_2
_ccdc_geom_bond_type
O0 Cd1 2.300 . S
O0 C7 1.275 . S
Cd1 O0 2.300 . S
Cd1 O9 2.381 . S
Cd1 O10 2.378 . S
O2 Cd3 2.385 . S
O2 C7 1.255 . S
Cd3 O2 2.385 . S
Cd3 O4 2.317 . S
O4 Cd3 2.317 . S
O4 C5 1.232 . S
C5 O4 1.232 . S
C5 O6 1.218 . S
O6 C5 1.218 . S
C7 O0 1.275 . S
C7 O2 1.255 . S
C8 O9 1.258 . S
C8 O10 1.256 . S
O9 Cd1 2.381 . S
O9 C8 1.258 . S
O10 Cd1 2.378 . S
O10 C8 1.256 . S
O11 Cd12 2.300 . S
O11 C18 1.275 . S
Cd12 O11 2.300 . S
Cd12 O20 2.381 . S
Cd12 O21 2.378 . S
O13 Cd14 2.385 . S
O13 C18 1.255 . S
Cd14 O13 2.385 . S
Cd14 O15 2.317 . S
O15 Cd14 2.317 . S
O15 C16 1.232 . S
C16 O15 1.232 . S
C16 O17 1.218 . S
O17 C16 1.218 . S
C18 O11 1.275 . S
C18 O13 1.255 . S
C19 O20 1.258 . S
C19 O21 1.256 . S
O20 Cd12 2.381 . S
O20 C19 1.258 . S
O21 Cd12 2.378 . S
O21 C19 1.256 . S
O22 Cd23 2.300 . S
O22 C29 1.275 . S
Cd23 O22 2.300 . S
Cd23 O31 2.381 . S
Cd23 O32 2.378 . S
O24 Cd25 2.385 . S
O24 C29 1.255 . S
Cd25 O24 2.385 . S
Cd25 O26 2.317 . S
O26 Cd25 2.317 . S
O26 C27 1.232 . S
C27 O26 1.232 . S
C27 O28 1.218 . S
O28 C27 1.218 . S
C29 O22 1.275 . S
C29 O24 1.255 . S
C30 O31 1.258 . S
C30 O32 1.256 . S
O31 Cd23 2.381 . S
O31 C30 1.258 . S
O32 Cd23 2.378 . S
O32 C30 1.256 . S
O33 Cd34 2.300 . S
O33 C40 1.275 . S
Cd34 O33 2.300 . S
Cd34 O42 2.381 . S
Cd34 O43 2.378 . S
O35 Cd36 2.385 . S
O35 C40 1.255 . S
Cd36 O35 2.385 . S
Cd36 O37 2.317 . S
O37 Cd36 2.317 . S
O37 C38 1.232 . S
C38 O37 1.232 . S
C38 O39 1.218 . S
O39 C38 1.218 . S
C40 O33 1.275 . S
C40 O35 1.255 . S
C41 O42 1.258 . S
C41 O43 1.256 . S
O42 Cd34 2.381 . S
O42 C41 1.258 . S
O43 Cd34 2.378 . S
O43 C41 1.256 . S
O44 Cd45 2.300 . S
O44 C51 1.275 . S
Cd45 O44 2.300 . S
Cd45 O53 2.381 . S
Cd45 O54 2.378 . S
O46 Cd47 2.385 . S
O46 C51 1.255 . S
Cd47 O46 2.385 . S
Cd47 O48 2.317 . S
O48 Cd47 2.317 . S
O48 C49 1.232 . S
C49 O48 1.232 . S
C49 O50 1.218 . S
O50 C49 1.218 . S
C51 O44 1.275 . S
C51 O46 1.255 . S
C52 O53 1.258 . S
C52 O54 1.256 . S
O53 Cd45 2.381 . S
O53 C52 1.258 . S
O54 Cd45 2.378 . S
O54 C52 1.256 . S
O55 Cd56 2.300 . S
O55 C62 1.275 . S
Cd56 O55 2.300 . S
Cd56 O64 2.381 . S
Cd56 O65 2.378 . S
O57 Cd58 2.385 . S
O57 C62 1.255 . S
Cd58 O57 2.385 . S
Cd58 O59 2.317 . S
O59 Cd58 2.317 . S
O59 C60 1.232 . S
C60 O59 1.232 . S
C60 O61 1.218 . S
O61 C60 1.218 . S
C62 O55 1.275 . S
C62 O57 1.255 . S
C63 O64 1.258 . S
C63 O65 1.256 . S
O64 Cd56 2.381 . S
O64 C63 1.258 . S
O65 Cd56 2.378 . S
O65 C63 1.256 . S
O66 Cd67 2.300 . S
O66 C73 1.275 . S
Cd67 O66 2.300 . S
Cd67 O75 2.381 . S
Cd67 O76 2.378 . S
O68 Cd69 2.385 . S
O68 C73 1.255 . S
Cd69 O68 2.385 . S
Cd69 O70 2.317 . S
O70 Cd69 2.317 . S
O70 C71 1.232 . S
C71 O70 1.232 . S
C71 O72 1.218 . S
O72 C71 1.218 . S
C73 O66 1.275 . S
C73 O68 1.255 . S
C74 O75 1.258 . S
C74 O76 1.256 . S
O75 Cd67 2.381 . S
O75 C74 1.258 . S
O76 Cd67 2.378 . S
O76 C74 1.256 . S
O77 Cd78 2.300 . S
O77 C84 1.275 . S
Cd78 O77 2.300 . S
Cd78 O86 2.381 . S
Cd78 O87 2.378 . S
O79 Cd80 2.385 . S
O79 C84 1.255 . S
Cd80 O79 2.385 . S
Cd80 O81 2.317 . S
O81 Cd80 2.317 . S
O81 C82 1.232 . S
C82 O81 1.232 . S
C82 O83 1.218 . S
O83 C82 1.218 . S
C84 O77 1.275 . S
C84 O79 1.255 . S
C85 O86 1.258 . S
C85 O87 1.256 . S
O86 Cd78 2.381 . S
O86 C85 1.258 . S
O87 Cd78 2.378 . S
O87 C85 1.256 . S
O88 Cd89 2.300 . S
O88 C95 1.275 . S
Cd89 O88 2.300 . S
Cd89 O97 2.381 . S
Cd89 O98 2.378 . S
O90 Cd91 2.385 . S
O90 C95 1.255 . S
Cd91 O90 2.385 . S
Cd91 O92 2.317 . S
O92 Cd91 2.317 . S
O92 C93 1.232 . S
C93 O92 1.232 . S
C93 O94 1.218 . S
O94 C93 1.218 . S
C95 O88 1.275 . S
C95 O90 1.255 . S
C96 O97 1.258 . S
C96 O98 1.256 . S
O97 Cd89 2.381 . S
O97 C96 1.258 . S
O98 Cd89 2.378 . S
O98 C96 1.256 . S
O99 Cd100 2.300 . S
O99 C106 1.275 . S
Cd100 O99 2.300 . S
Cd100 O108 2.381 . S
Cd100 O109 2.378 . S
O101 Cd102 2.385 . S
O101 C106 1.255 . S
Cd102 O101 2.385 . S
Cd102 O103 2.317 . S
O103 Cd102 2.317 . S
O103 C104 1.232 . S
C104 O103 1.232 . S
C104 O105 1.218 . S
O105 C104 1.218 . S
C106 O99 1.275 . S
C106 O101 1.255 . S
C107 O108 1.258 . S
C107 O109 1.256 . S
O108 Cd100 2.381 . S
O108 C107 1.258 . S
O109 Cd100 2.378 . S
O109 C107 1.256 . S
O110 Cd111 2.300 . S
O110 C117 1.275 . S
Cd111 O110 2.300 . S
Cd111 O119 2.381 . S
Cd111 O120 2.378 . S
O112 Cd113 2.385 . S
O112 C117 1.255 . S
Cd113 O112 2.385 . S
Cd113 O114 2.317 . S
O114 Cd113 2.317 . S
O114 C115 1.232 . S
C115 O114 1.232 . S
C115 O116 1.218 . S
O116 C115 1.218 . S
C117 O110 1.275 . S
C117 O112 1.255 . S
C118 O119 1.258 . S
C118 O120 1.256 . S
O119 Cd111 2.381 . S
O119 C118 1.258 . S
O120 Cd111 2.378 . S
O120 C118 1.256 . S
O121 Cd122 2.300 . S
O121 C128 1.275 . S
Cd122 O121 2.300 . S
Cd122 O130 2.381 . S
Cd122 O131 2.378 . S
O123 Cd124 2.385 . S
O123 C128 1.255 . S
Cd124 O123 2.385 . S
Cd124 O125 2.317 . S
O125 Cd124 2.317 . S
O125 C126 1.232 . S
C126 O125 1.232 . S
C126 O127 1.218 . S
O127 C126 1.218 . S
C128 O121 1.275 . S
C128 O123 1.255 . S
C129 O130 1.258 . S
C129 O131 1.256 . S
O130 Cd122 2.381 . S
O130 C129 1.258 . S
O131 Cd122 2.378 . S
O131 C129 1.256 . S
O132 Cd133 2.300 . S
O132 C139 1.275 . S
Cd133 O132 2.300 . S
Cd133 O141 2.381 . S
Cd133 O142 2.378 . S
O134 Cd135 2.385 . S
O134 C139 1.255 . S
Cd135 O134 2.385 . S
Cd135 O136 2.317 . S
O136 Cd135 2.317 . S
O136 C137 1.232 . S
C137 O136 1.232 . S
C137 O138 1.218 . S
O138 C137 1.218 . S
C139 O132 1.275 . S
C139 O134 1.255 . S
C140 O141 1.258 . S
C140 O142 1.256 . S
O141 Cd133 2.381 . S
O141 C140 1.258 . S
O142 Cd133 2.378 . S
O142 C140 1.256 . S
O143 Cd144 2.300 . S
O143 C150 1.275 . S
Cd144 O143 2.300 . S
Cd144 O152 2.381 . S
Cd144 O153 2.378 . S
O145 Cd146 2.385 . S
O145 C150 1.255 . S
Cd146 O145 2.385 . S
Cd146 O147 2.317 . S
O147 Cd146 2.317 . S
O147 C148 1.232 . S
C148 O147 1.232 . S
C148 O149 1.218 . S
O149 C148 1.218 . S
C150 O143 1.275 . S
C150 O145 1.255 . S
C151 O152 1.258 . S
C151 O153 1.256 . S
O152 Cd144 2.381 . S
O152 C151 1.258 . S
O153 Cd144 2.378 . S
O153 C151 1.256 . S
O154 Cd155 2.300 . S
O154 C161 1.275 . S
Cd155 O154 2.300 . S
Cd155 O163 2.381 . S
Cd155 O164 2.378 . S
O156 Cd157 2.385 . S
O156 C161 1.255 . S
Cd157 O156 2.385 . S
Cd157 O158 2.317 . S
O158 Cd157 2.317 . S
O158 C159 1.232 . S
C159 O158 1.232 . S
C159 O160 1.218 . S
O160 C159 1.218 . S
C161 O154 1.275 . S
C161 O156 1.255 . S
C162 O163 1.258 . S
C162 O164 1.256 . S
O163 Cd155 2.381 . S
O163 C162 1.258 . S
O164 Cd155 2.378 . S
O164 C162 1.256 . S
O165 Cd166 2.300 . S
O165 C172 1.275 . S
Cd166 O165 2.300 . S
Cd166 O174 2.381 . S
Cd166 O175 2.378 . S
O167 Cd168 2.385 . S
O167 C172 1.255 . S
Cd168 O167 2.385 . S
Cd168 O169 2.317 . S
O169 Cd168 2.317 . S
O169 C170 1.232 . S
C170 O169 1.232 . S
C170 O171 1.218 . S
O171 C170 1.218 . S
C172 O165 1.275 . S
C172 O167 1.255 . S
C173 O174 1.258 . S
C173 O175 1.256 . S
O174 Cd166 2.381 . S
O174 C173 1.258 . S
O175 Cd166 2.378 . S
O175 C173 1.256 . S
H176 C194 0.951 . S
H177 C196 0.951 . S
H178 C198 0.950 . S
H179 C199 0.950 . S
H180 C201 0.950 . S
H181 C204 0.950 . S
H182 C205 0.950 . S
H183 C207 0.950 . S
H184 C208 0.950 . S
H185 C209 0.951 . S
H186 C211 0.951 . S
H187 C213 0.950 . S
H188 C214 0.950 . S
H189 C216 0.950 . S
H190 C219 0.950 . S
H191 C220 0.950 . S
H192 C222 0.950 . S
H193 C223 0.950 . S
C194 H176 0.951 . S
C194 C195 1.366 . S
C194 C196 1.388 . S
C195 C194 1.366 . S
C195 C199 1.385 . S
C196 H177 0.951 . S
C196 C194 1.388 . S
C196 C197 1.366 . S
C197 C196 1.366 . S
C197 C198 1.414 . S
C197 C200 1.499 . S
C198 H178 0.950 . S
C198 C197 1.414 . S
C198 C199 1.374 . S
C199 H179 0.950 . S
C199 C195 1.385 . S
C199 C198 1.374 . S
C200 C197 1.499 . S
C200 C201 1.373 . S
C200 C202 1.389 . S
C201 H180 0.950 . S
C201 C200 1.373 . S
C201 C217 1.377 . S
C202 C200 1.389 . S
C202 C203 1.524 . S
C202 C216 1.377 . S
C203 C202 1.524 . S
C203 C204 1.397 . S
C203 C208 1.363 . S
C204 H181 0.950 . S
C204 C203 1.397 . S
C204 C205 1.334 . S
C205 H182 0.950 . S
C205 C204 1.334 . S
C205 C206 1.287 . S
C206 C205 1.287 . S
C206 C207 1.524 . S
C206 H225 0.913 . S
C207 H183 0.950 . S
C207 C206 1.524 . S
C207 C208 1.415 . S
C208 H184 0.950 . S
C208 C203 1.363 . S
C208 C207 1.415 . S
C209 H185 0.951 . S
C209 C210 1.366 . S
C209 C211 1.388 . S
C210 C209 1.366 . S
C210 C214 1.385 . S
C211 H186 0.951 . S
C211 C209 1.388 . S
C211 C212 1.366 . S
C212 C211 1.366 . S
C212 C213 1.414 . S
C212 C215 1.499 . S
C213 H187 0.950 . S
C213 C212 1.414 . S
C213 C214 1.374 . S
C214 H188 0.950 . S
C214 C210 1.385 . S
C214 C213 1.374 . S
C215 C212 1.499 . S
C215 C216 1.373 . S
C215 C217 1.389 . S
C216 H189 0.950 . S
C216 C202 1.377 . S
C216 C215 1.373 . S
C217 C201 1.377 . S
C217 C215 1.389 . S
C217 C218 1.524 . S
C218 C217 1.524 . S
C218 C219 1.397 . S
C218 C223 1.363 . S
C219 H190 0.950 . S
C219 C218 1.397 . S
C219 C220 1.334 . S
C220 H191 0.950 . S
C220 C219 1.334 . S
C220 C221 1.287 . S
C221 C220 1.287 . S
C221 C222 1.524 . S
C221 H224 0.999 . S
C222 H192 0.950 . S
C222 C221 1.524 . S
C222 C223 1.415 . S
C223 H193 0.950 . S
C223 C218 1.363 . S
C223 C222 1.415 . S
H224 C221 0.999 . S
H225 C206 0.913 . S
H226 C244 0.951 . S
H227 C246 0.951 . S
H228 C248 0.950 . S
H229 C249 0.950 . S
H230 C251 0.950 . S
H231 C254 0.950 . S
H232 C255 0.950 . S
H233 C257 0.950 . S
H234 C258 0.950 . S
H235 C259 0.951 . S
H236 C261 0.951 . S
H237 C263 0.950 . S
H238 C264 0.950 . S
H239 C266 0.950 . S
H240 C269 0.950 . S
H241 C270 0.950 . S
H242 C272 0.950 . S
H243 C273 0.950 . S
C244 H226 0.951 . S
C244 C245 1.366 . S
C244 C246 1.388 . S
C245 C244 1.366 . S
C245 C249 1.385 . S
C246 H227 0.951 . S
C246 C244 1.388 . S
C246 C247 1.366 . S
C247 C246 1.366 . S
C247 C248 1.414 . S
C247 C250 1.499 . S
C248 H228 0.950 . S
C248 C247 1.414 . S
C248 C249 1.374 . S
C249 H229 0.950 . S
C249 C245 1.385 . S
C249 C248 1.374 . S
C250 C247 1.499 . S
C250 C251 1.373 . S
C250 C252 1.389 . S
C251 H230 0.950 . S
C251 C250 1.373 . S
C251 C267 1.377 . S
C252 C250 1.389 . S
C252 C253 1.524 . S
C252 C266 1.377 . S
C253 C252 1.524 . S
C253 C254 1.397 . S
C253 C258 1.363 . S
C254 H231 0.950 . S
C254 C253 1.397 . S
C254 C255 1.334 . S
C255 H232 0.950 . S
C255 C254 1.334 . S
C255 C256 1.287 . S
C256 C255 1.287 . S
C256 C257 1.524 . S
C256 H275 0.913 . S
C257 H233 0.950 . S
C257 C256 1.524 . S
C257 C258 1.415 . S
C258 H234 0.950 . S
C258 C253 1.363 . S
C258 C257 1.415 . S
C259 H235 0.951 . S
C259 C260 1.366 . S
C259 C261 1.388 . S
C260 C259 1.366 . S
C260 C264 1.385 . S
C261 H236 0.951 . S
C261 C259 1.388 . S
C261 C262 1.366 . S
C262 C261 1.366 . S
C262 C263 1.414 . S
C262 C265 1.499 . S
C263 H237 0.950 . S
C263 C262 1.414 . S
C263 C264 1.374 . S
C264 H238 0.950 . S
C264 C260 1.385 . S
C264 C263 1.374 . S
C265 C262 1.499 . S
C265 C266 1.373 . S
C265 C267 1.389 . S
C266 H239 0.950 . S
C266 C252 1.377 . S
C266 C265 1.373 . S
C267 C251 1.377 . S
C267 C265 1.389 . S
C267 C268 1.524 . S
C268 C267 1.524 . S
C268 C269 1.397 . S
C268 C273 1.363 . S
C269 H240 0.950 . S
C269 C268 1.397 . S
C269 C270 1.334 . S
C270 H241 0.950 . S
C270 C269 1.334 . S
C270 C271 1.287 . S
C271 C270 1.287 . S
C271 C272 1.524 . S
C271 H274 0.999 . S
C272 H242 0.950 . S
C272 C271 1.524 . S
C272 C273 1.415 . S
C273 H243 0.950 . S
C273 C268 1.363 . S
C273 C272 1.415 . S
H274 C271 0.999 . S
H275 C256 0.913 . S
H276 C294 0.951 . S
H277 C296 0.951 . S
H278 C298 0.950 . S
H279 C299 0.950 . S
H280 C301 0.950 . S
H281 C304 0.950 . S
H282 C305 0.950 . S
H283 C307 0.950 . S
H284 C308 0.950 . S
H285 C309 0.951 . S
H286 C311 0.951 . S
H287 C313 0.950 . S
H288 C314 0.950 . S
H289 C316 0.950 . S
H290 C319 0.950 . S
H291 C320 0.950 . S
H292 C322 0.950 . S
H293 C323 0.950 . S
C294 H276 0.951 . S
C294 C295 1.366 . S
C294 C296 1.388 . S
C295 C294 1.366 . S
C295 C299 1.385 . S
C296 H277 0.951 . S
C296 C294 1.388 . S
C296 C297 1.366 . S
C297 C296 1.366 . S
C297 C298 1.414 . S
C297 C300 1.499 . S
C298 H278 0.950 . S
C298 C297 1.414 . S
C298 C299 1.374 . S
C299 H279 0.950 . S
C299 C295 1.385 . S
C299 C298 1.374 . S
C300 C297 1.499 . S
C300 C301 1.373 . S
C300 C302 1.389 . S
C301 H280 0.950 . S
C301 C300 1.373 . S
C301 C317 1.377 . S
C302 C300 1.389 . S
C302 C303 1.524 . S
C302 C316 1.377 . S
C303 C302 1.524 . S
C303 C304 1.397 . S
C303 C308 1.363 . S
C304 H281 0.950 . S
C304 C303 1.397 . S
C304 C305 1.334 . S
C305 H282 0.950 . S
C305 C304 1.334 . S
C305 C306 1.287 . S
C306 C305 1.287 . S
C306 C307 1.524 . S
C306 H325 0.913 . S
C307 H283 0.950 . S
C307 C306 1.524 . S
C307 C308 1.415 . S
C308 H284 0.950 . S
C308 C303 1.363 . S
C308 C307 1.415 . S
C309 H285 0.951 . S
C309 C310 1.366 . S
C309 C311 1.388 . S
C310 C309 1.366 . S
C310 C314 1.385 . S
C311 H286 0.951 . S
C311 C309 1.388 . S
C311 C312 1.366 . S
C312 C311 1.366 . S
C312 C313 1.414 . S
C312 C315 1.499 . S
C313 H287 0.950 . S
C313 C312 1.414 . S
C313 C314 1.374 . S
C314 H288 0.950 . S
C314 C310 1.385 . S
C314 C313 1.374 . S
C315 C312 1.499 . S
C315 C316 1.373 . S
C315 C317 1.389 . S
C316 H289 0.950 . S
C316 C302 1.377 . S
C316 C315 1.373 . S
C317 C301 1.377 . S
C317 C315 1.389 . S
C317 C318 1.524 . S
C318 C317 1.524 . S
C318 C319 1.397 . S
C318 C323 1.363 . S
C319 H290 0.950 . S
C319 C318 1.397 . S
C319 C320 1.334 . S
C320 H291 0.950 . S
C320 C319 1.334 . S
C320 C321 1.287 . S
C321 C320 1.287 . S
C321 C322 1.524 . S
C321 H324 0.999 . S
C322 H292 0.950 . S
C322 C321 1.524 . S
C322 C323 1.415 . S
C323 H293 0.950 . S
C323 C318 1.363 . S
C323 C322 1.415 . S
H324 C321 0.999 . S
H325 C306 0.913 . S
H326 C344 0.951 . S
H327 C346 0.951 . S
H328 C348 0.950 . S
H329 C349 0.950 . S
H330 C351 0.950 . S
H331 C354 0.950 . S
H332 C355 0.950 . S
H333 C357 0.950 . S
H334 C358 0.950 . S
H335 C359 0.951 . S
H336 C361 0.951 . S
H337 C363 0.950 . S
H338 C364 0.950 . S
H339 C366 0.950 . S
H340 C369 0.950 . S
H341 C370 0.950 . S
H342 C372 0.950 . S
H343 C373 0.950 . S
C344 H326 0.951 . S
C344 C345 1.366 . S
C344 C346 1.388 . S
C345 C344 1.366 . S
C345 C349 1.385 . S
C346 H327 0.951 . S
C346 C344 1.388 . S
C346 C347 1.366 . S
C347 C346 1.366 . S
C347 C348 1.414 . S
C347 C350 1.499 . S
C348 H328 0.950 . S
C348 C347 1.414 . S
C348 C349 1.374 . S
C349 H329 0.950 . S
C349 C345 1.385 . S
C349 C348 1.374 . S
C350 C347 1.499 . S
C350 C351 1.373 1_556 S
C350 C352 1.389 . S
C351 H330 0.950 . S
C351 C350 1.373 1_554 S
C351 C367 1.377 . S
C352 C350 1.389 . S
C352 C353 1.524 . S
C352 C366 1.377 . S
C353 C352 1.524 . S
C353 C354 1.397 . S
C353 C358 1.363 . S
C354 H331 0.950 . S
C354 C353 1.397 . S
C354 C355 1.334 . S
C355 H332 0.950 . S
C355 C354 1.334 . S
C355 C356 1.287 . S
C356 C355 1.287 . S
C356 C357 1.524 . S
C356 H375 0.913 . S
C357 H333 0.950 . S
C357 C356 1.524 . S
C357 C358 1.415 . S
C358 H334 0.950 . S
C358 C353 1.363 . S
C358 C357 1.415 . S
C359 H335 0.951 . S
C359 C360 1.366 . S
C359 C361 1.388 . S
C360 C359 1.366 . S
C360 C364 1.385 . S
C361 H336 0.951 . S
C361 C359 1.388 . S
C361 C362 1.366 . S
C362 C361 1.366 . S
C362 C363 1.414 . S
C362 C365 1.499 . S
C363 H337 0.950 . S
C363 C362 1.414 . S
C363 C364 1.374 . S
C364 H338 0.950 . S
C364 C360 1.385 . S
C364 C363 1.374 . S
C365 C362 1.499 . S
C365 C366 1.373 1_554 S
C365 C367 1.389 . S
C366 H339 0.950 . S
C366 C352 1.377 . S
C366 C365 1.373 1_556 S
C367 C351 1.377 . S
C367 C365 1.389 . S
C367 C368 1.524 . S
C368 C367 1.524 . S
C368 C369 1.397 . S
C368 C373 1.363 . S
C369 H340 0.950 . S
C369 C368 1.397 . S
C369 C370 1.334 . S
C370 H341 0.950 . S
C370 C369 1.334 . S
C370 C371 1.287 . S
C371 C370 1.287 . S
C371 C372 1.524 . S
C371 H374 0.999 . S
C372 H342 0.950 . S
C372 C371 1.524 . S
C372 C373 1.415 . S
C373 H343 0.950 . S
C373 C368 1.363 . S
C373 C372 1.415 . S
H374 C371 0.999 . S
H375 C356 0.913 . S
H376 C394 0.951 . S
H377 C396 0.951 . S
H378 C398 0.950 . S
H379 C399 0.950 . S
H380 C401 0.950 . S
H381 C404 0.950 . S
H382 C405 0.950 . S
H383 C407 0.950 . S
H384 C408 0.950 1_556 S
H385 C409 0.951 . S
H386 C411 0.951 . S
H387 C413 0.950 . S
H388 C414 0.950 . S
H389 C416 0.950 . S
H390 C419 0.950 . S
H391 C420 0.950 . S
H392 C422 0.950 . S
H393 C423 0.950 1_554 S
C394 H376 0.951 . S
C394 C395 1.366 . S
C394 C396 1.388 . S
C395 C394 1.366 . S
C395 C399 1.385 . S
C396 H377 0.951 . S
C396 C394 1.388 . S
C396 C397 1.366 . S
C397 C396 1.366 . S
C397 C398 1.414 . S
C397 C400 1.499 . S
C398 H378 0.950 . S
C398 C397 1.414 . S
C398 C399 1.374 . S
C399 H379 0.950 . S
C399 C395 1.385 . S
C399 C398 1.374 . S
C400 C397 1.499 . S
C400 C401 1.373 . S
C400 C402 1.389 . S
C401 H380 0.950 . S
C401 C400 1.373 . S
C401 C417 1.377 1_554 S
C402 C400 1.389 . S
C402 C403 1.524 . S
C402 C416 1.377 1_554 S
C403 C402 1.524 . S
C403 C404 1.397 . S
C403 C408 1.363 . S
C404 H381 0.950 . S
C404 C403 1.397 . S
C404 C405 1.334 . S
C405 H382 0.950 . S
C405 C404 1.334 . S
C405 C406 1.287 . S
C406 C405 1.287 . S
C406 C407 1.524 . S
C406 H425 0.913 . S
C407 H383 0.950 . S
C407 C406 1.524 . S
C407 C408 1.415 . S
C408 H384 0.950 1_554 S
C408 C403 1.363 . S
C408 C407 1.415 . S
C409 H385 0.951 . S
C409 C410 1.366 . S
C409 C411 1.388 . S
C410 C409 1.366 . S
C410 C414 1.385 . S
C411 H386 0.951 . S
C411 C409 1.388 . S
C411 C412 1.366 . S
C412 C411 1.366 . S
C412 C413 1.414 . S
C412 C415 1.499 . S
C413 H387 0.950 . S
C413 C412 1.414 . S
C413 C414 1.374 . S
C414 H388 0.950 . S
C414 C410 1.385 . S
C414 C413 1.374 . S
C415 C412 1.499 . S
C415 C416 1.373 . S
C415 C417 1.389 . S
C416 H389 0.950 . S
C416 C402 1.377 1_556 S
C416 C415 1.373 . S
C417 C401 1.377 1_556 S
C417 C415 1.389 . S
C417 C418 1.524 . S
C418 C417 1.524 . S
C418 C419 1.397 . S
C418 C423 1.363 . S
C419 H390 0.950 . S
C419 C418 1.397 . S
C419 C420 1.334 . S
C420 H391 0.950 . S
C420 C419 1.334 . S
C420 C421 1.287 . S
C421 C420 1.287 . S
C421 C422 1.524 . S
C421 H424 0.999 . S
C422 H392 0.950 . S
C422 C421 1.524 . S
C422 C423 1.415 . S
C423 H393 0.950 1_556 S
C423 C418 1.363 . S
C423 C422 1.415 . S
H424 C421 0.999 . S
H425 C406 0.913 . S
H426 C444 0.951 . S
H427 C446 0.951 . S
H428 C448 0.950 . S
H429 C449 0.950 . S
H430 C451 0.950 . S
H431 C454 0.950 . S
H432 C455 0.950 . S
H433 C457 0.950 . S
H434 C458 0.950 . S
H435 C459 0.951 . S
H436 C461 0.951 . S
H437 C463 0.950 . S
H438 C464 0.950 . S
H439 C466 0.950 . S
H440 C469 0.950 . S
H441 C470 0.950 . S
H442 C472 0.950 . S
H443 C473 0.950 . S
C444 H426 0.951 . S
C444 C445 1.366 . S
C444 C446 1.388 . S
C445 C444 1.366 . S
C445 C449 1.385 . S
C446 H427 0.951 . S
C446 C444 1.388 . S
C446 C447 1.366 . S
C447 C446 1.366 . S
C447 C448 1.414 . S
C447 C450 1.499 . S
C448 H428 0.950 . S
C448 C447 1.414 . S
C448 C449 1.374 . S
C449 H429 0.950 . S
C449 C445 1.385 . S
C449 C448 1.374 . S
C450 C447 1.499 . S
C450 C451 1.373 . S
C450 C452 1.389 . S
C451 H430 0.950 . S
C451 C450 1.373 . S
C451 C467 1.377 . S
C452 C450 1.389 . S
C452 C453 1.524 . S
C452 C466 1.377 . S
C453 C452 1.524 . S
C453 C454 1.397 . S
C453 C458 1.363 . S
C454 H431 0.950 . S
C454 C453 1.397 . S
C454 C455 1.334 . S
C455 H432 0.950 . S
C455 C454 1.334 . S
C455 C456 1.287 . S
C456 C455 1.287 . S
C456 C457 1.524 . S
C456 H475 0.913 . S
C457 H433 0.950 . S
C457 C456 1.524 . S
C457 C458 1.415 . S
C458 H434 0.950 . S
C458 C453 1.363 . S
C458 C457 1.415 . S
C459 H435 0.951 . S
C459 C460 1.366 . S
C459 C461 1.388 . S
C460 C459 1.366 . S
C460 C464 1.385 . S
C461 H436 0.951 . S
C461 C459 1.388 . S
C461 C462 1.366 . S
C462 C461 1.366 . S
C462 C463 1.414 . S
C462 C465 1.499 . S
C463 H437 0.950 . S
C463 C462 1.414 . S
C463 C464 1.374 . S
C464 H438 0.950 . S
C464 C460 1.385 . S
C464 C463 1.374 . S
C465 C462 1.499 . S
C465 C466 1.373 . S
C465 C467 1.389 . S
C466 H439 0.950 . S
C466 C452 1.377 . S
C466 C465 1.373 . S
C467 C451 1.377 . S
C467 C465 1.389 . S
C467 C468 1.524 . S
C468 C467 1.524 . S
C468 C469 1.397 . S
C468 C473 1.363 . S
C469 H440 0.950 . S
C469 C468 1.397 . S
C469 C470 1.334 . S
C470 H441 0.950 . S
C470 C469 1.334 . S
C470 C471 1.287 . S
C471 C470 1.287 . S
C471 C472 1.524 . S
C471 H474 0.999 . S
C472 H442 0.950 . S
C472 C471 1.524 . S
C472 C473 1.415 . S
C473 H443 0.950 . S
C473 C468 1.363 . S
C473 C472 1.415 . S
H474 C471 0.999 . S
H475 C456 0.913 . S
H476 C494 0.951 . S
H477 C496 0.951 . S
H478 C498 0.950 . S
H479 C499 0.950 . S
H480 C501 0.950 . S
H481 C504 0.950 . S
H482 C505 0.950 . S
H483 C507 0.950 . S
H484 C508 0.950 . S
H485 C509 0.951 . S
H486 C511 0.951 . S
H487 C513 0.950 . S
H488 C514 0.950 . S
H489 C516 0.950 . S
H490 C519 0.950 . S
H491 C520 0.950 . S
H492 C522 0.950 . S
H493 C523 0.950 . S
C494 H476 0.951 . S
C494 C495 1.366 . S
C494 C496 1.388 . S
C495 C494 1.366 . S
C495 C499 1.385 . S
C496 H477 0.951 . S
C496 C494 1.388 . S
C496 C497 1.366 . S
C497 C496 1.366 . S
C497 C498 1.414 . S
C497 C500 1.499 . S
C498 H478 0.950 . S
C498 C497 1.414 . S
C498 C499 1.374 . S
C499 H479 0.950 . S
C499 C495 1.385 . S
C499 C498 1.374 . S
C500 C497 1.499 . S
C500 C501 1.373 . S
C500 C502 1.389 . S
C501 H480 0.950 . S
C501 C500 1.373 . S
C501 C517 1.377 . S
C502 C500 1.389 . S
C502 C503 1.524 . S
C502 C516 1.377 . S
C503 C502 1.524 . S
C503 C504 1.397 . S
C503 C508 1.363 . S
C504 H481 0.950 . S
C504 C503 1.397 . S
C504 C505 1.334 . S
C505 H482 0.950 . S
C505 C504 1.334 . S
C505 C506 1.287 . S
C506 C505 1.287 . S
C506 C507 1.524 . S
C506 H525 0.913 . S
C507 H483 0.950 . S
C507 C506 1.524 . S
C507 C508 1.415 . S
C508 H484 0.950 . S
C508 C503 1.363 . S
C508 C507 1.415 . S
C509 H485 0.951 . S
C509 C510 1.366 . S
C509 C511 1.388 . S
C510 C509 1.366 . S
C510 C514 1.385 . S
C511 H486 0.951 . S
C511 C509 1.388 . S
C511 C512 1.366 . S
C512 C511 1.366 . S
C512 C513 1.414 . S
C512 C515 1.499 . S
C513 H487 0.950 . S
C513 C512 1.414 . S
C513 C514 1.374 . S
C514 H488 0.950 . S
C514 C510 1.385 . S
C514 C513 1.374 . S
C515 C512 1.499 . S
C515 C516 1.373 . S
C515 C517 1.389 . S
C516 H489 0.950 . S
C516 C502 1.377 . S
C516 C515 1.373 . S
C517 C501 1.377 . S
C517 C515 1.389 . S
C517 C518 1.524 . S
C518 C517 1.524 . S
C518 C519 1.397 . S
C518 C523 1.363 . S
C519 H490 0.950 . S
C519 C518 1.397 . S
C519 C520 1.334 . S
C520 H491 0.950 . S
C520 C519 1.334 . S
C520 C521 1.287 . S
C521 C520 1.287 . S
C521 C522 1.524 . S
C521 H524 0.999 . S
C522 H492 0.950 . S
C522 C521 1.524 . S
C522 C523 1.415 . S
C523 H493 0.950 . S
C523 C518 1.363 . S
C523 C522 1.415 . S
H524 C521 0.999 . S
H525 C506 0.913 . S
H526 C544 0.951 . S
H527 C546 0.951 . S
H528 C548 0.950 . S
H529 C549 0.950 . S
H530 C551 0.950 . S
H531 C554 0.950 . S
H532 C555 0.950 . S
H533 C557 0.950 . S
H534 C558 0.950 . S
H535 C559 0.951 . S
H536 C561 0.951 . S
H537 C563 0.950 . S
H538 C564 0.950 . S
H539 C566 0.950 . S
H540 C569 0.950 . S
H541 C570 0.950 . S
H542 C572 0.950 . S
H543 C573 0.950 . S
C544 H526 0.951 . S
C544 C545 1.366 . S
C544 C546 1.388 . S
C545 C544 1.366 . S
C545 C549 1.385 . S
C546 H527 0.951 . S
C546 C544 1.388 . S
C546 C547 1.366 . S
C547 C546 1.366 . S
C547 C548 1.414 . S
C547 C550 1.499 . S
C548 H528 0.950 . S
C548 C547 1.414 . S
C548 C549 1.374 . S
C549 H529 0.950 . S
C549 C545 1.385 . S
C549 C548 1.374 . S
C550 C547 1.499 . S
C550 C551 1.373 . S
C550 C552 1.389 . S
C551 H530 0.950 . S
C551 C550 1.373 . S
C551 C567 1.377 . S
C552 C550 1.389 . S
C552 C553 1.524 . S
C552 C566 1.377 . S
C553 C552 1.524 . S
C553 C554 1.397 . S
C553 C558 1.363 . S
C554 H531 0.950 . S
C554 C553 1.397 . S
C554 C555 1.334 . S
C555 H532 0.950 . S
C555 C554 1.334 . S
C555 C556 1.287 . S
C556 C555 1.287 . S
C556 C557 1.524 . S
C556 H575 0.913 . S
C557 H533 0.950 . S
C557 C556 1.524 . S
C557 C558 1.415 . S
C558 H534 0.950 . S
C558 C553 1.363 . S
C558 C557 1.415 . S
C559 H535 0.951 . S
C559 C560 1.366 . S
C559 C561 1.388 . S
C560 C559 1.366 . S
C560 C564 1.385 . S
C561 H536 0.951 . S
C561 C559 1.388 . S
C561 C562 1.366 . S
C562 C561 1.366 . S
C562 C563 1.414 . S
C562 C565 1.499 . S
C563 H537 0.950 . S
C563 C562 1.414 . S
C563 C564 1.374 . S
C564 H538 0.950 . S
C564 C560 1.385 . S
C564 C563 1.374 . S
C565 C562 1.499 . S
C565 C566 1.373 . S
C565 C567 1.389 . S
C566 H539 0.950 . S
C566 C552 1.377 . S
C566 C565 1.373 . S
C567 C551 1.377 . S
C567 C565 1.389 . S
C567 C568 1.524 . S
C568 C567 1.524 . S
C568 C569 1.397 . S
C568 C573 1.363 . S
C569 H540 0.950 . S
C569 C568 1.397 . S
C569 C570 1.334 . S
C570 H541 0.950 . S
C570 C569 1.334 . S
C570 C571 1.287 . S
C571 C570 1.287 . S
C571 C572 1.524 . S
C571 H574 0.999 . S
C572 H542 0.950 . S
C572 C571 1.524 . S
C572 C573 1.415 . S
C573 H543 0.950 . S
C573 C568 1.363 . S
C573 C572 1.415 . S
H574 C571 0.999 . S
H575 C556 0.913 . S
H576 C594 0.951 . S
H577 C596 0.951 . S
H578 C598 0.950 . S
H579 C599 0.950 . S
H580 C601 0.950 . S
H581 C604 0.950 . S
H582 C605 0.950 . S
H583 C607 0.950 . S
H584 C608 0.950 . S
H585 C609 0.951 . S
H586 C611 0.951 . S
H587 C613 0.950 . S
H588 C614 0.950 . S
H589 C616 0.950 . S
H590 C619 0.950 . S
H591 C620 0.950 . S
H592 C622 0.950 . S
H593 C623 0.950 . S
C594 H576 0.951 . S
C594 C595 1.366 . S
C594 C596 1.388 . S
C595 C594 1.366 . S
C595 C599 1.385 . S
C596 H577 0.951 . S
C596 C594 1.388 . S
C596 C597 1.366 . S
C597 C596 1.366 . S
C597 C598 1.414 . S
C597 C600 1.499 . S
C598 H578 0.950 . S
C598 C597 1.414 . S
C598 C599 1.374 . S
C599 H579 0.950 . S
C599 C595 1.385 . S
C599 C598 1.374 . S
C600 C597 1.499 . S
C600 C601 1.373 . S
C600 C602 1.389 . S
C601 H580 0.950 . S
C601 C600 1.373 . S
C601 C617 1.377 . S
C602 C600 1.389 . S
C602 C603 1.524 . S
C602 C616 1.377 . S
C603 C602 1.524 . S
C603 C604 1.397 . S
C603 C608 1.363 . S
C604 H581 0.950 . S
C604 C603 1.397 . S
C604 C605 1.334 . S
C605 H582 0.950 . S
C605 C604 1.334 . S
C605 C606 1.287 . S
C606 C605 1.287 . S
C606 C607 1.524 . S
C606 H625 0.913 . S
C607 H583 0.950 . S
C607 C606 1.524 . S
C607 C608 1.415 . S
C608 H584 0.950 . S
C608 C603 1.363 . S
C608 C607 1.415 . S
C609 H585 0.951 . S
C609 C610 1.366 . S
C609 C611 1.388 . S
C610 C609 1.366 . S
C610 C614 1.385 . S
C611 H586 0.951 . S
C611 C609 1.388 . S
C611 C612 1.366 . S
C612 C611 1.366 . S
C612 C613 1.414 . S
C612 C615 1.499 . S
C613 H587 0.950 . S
C613 C612 1.414 . S
C613 C614 1.374 . S
C614 H588 0.950 . S
C614 C610 1.385 . S
C614 C613 1.374 . S
C615 C612 1.499 . S
C615 C616 1.373 . S
C615 C617 1.389 . S
C616 H589 0.950 . S
C616 C602 1.377 . S
C616 C615 1.373 . S
C617 C601 1.377 . S
C617 C615 1.389 . S
C617 C618 1.524 . S
C618 C617 1.524 . S
C618 C619 1.397 . S
C618 C623 1.363 . S
C619 H590 0.950 . S
C619 C618 1.397 . S
C619 C620 1.334 . S
C620 H591 0.950 . S
C620 C619 1.334 . S
C620 C621 1.287 . S
C621 C620 1.287 . S
C621 C622 1.524 . S
C621 H624 0.999 . S
C622 H592 0.950 . S
C622 C621 1.524 . S
C622 C623 1.415 . S
C623 H593 0.950 . S
C623 C618 1.363 . S
C623 C622 1.415 . S
H624 C621 0.999 . S
H625 C606 0.913 . S
H626 C644 0.951 . S
H627 C646 0.951 . S
H628 C648 0.950 . S
H629 C649 0.950 . S
H630 C651 0.950 . S
H631 C654 0.950 . S
H632 C655 0.950 . S
H633 C657 0.950 . S
H634 C658 0.950 . S
H635 C659 0.951 . S
H636 C661 0.951 . S
H637 C663 0.950 . S
H638 C664 0.950 . S
H639 C666 0.950 . S
H640 C669 0.950 . S
H641 C670 0.950 . S
H642 C672 0.950 . S
H643 C673 0.950 . S
C644 H626 0.951 . S
C644 C645 1.366 . S
C644 C646 1.388 . S
C645 C644 1.366 . S
C645 C649 1.385 . S
C646 H627 0.951 . S
C646 C644 1.388 . S
C646 C647 1.366 . S
C647 C646 1.366 . S
C647 C648 1.414 . S
C647 C650 1.499 . S
C648 H628 0.950 . S
C648 C647 1.414 . S
C648 C649 1.374 . S
C649 H629 0.950 . S
C649 C645 1.385 . S
C649 C648 1.374 . S
C650 C647 1.499 . S
C650 C651 1.373 . S
C650 C652 1.389 . S
C651 H630 0.950 . S
C651 C650 1.373 . S
C651 C667 1.377 . S
C652 C650 1.389 . S
C652 C653 1.524 . S
C652 C666 1.377 . S
C653 C652 1.524 . S
C653 C654 1.397 . S
C653 C658 1.363 . S
C654 H631 0.950 . S
C654 C653 1.397 . S
C654 C655 1.334 . S
C655 H632 0.950 . S
C655 C654 1.334 . S
C655 C656 1.287 . S
C656 C655 1.287 . S
C656 C657 1.524 . S
C656 H675 0.913 . S
C657 H633 0.950 . S
C657 C656 1.524 . S
C657 C658 1.415 . S
C658 H634 0.950 . S
C658 C653 1.363 . S
C658 C657 1.415 . S
C659 H635 0.951 . S
C659 C660 1.366 . S
C659 C661 1.388 . S
C660 C659 1.366 . S
C660 C664 1.385 . S
C661 H636 0.951 . S
C661 C659 1.388 . S
C661 C662 1.366 . S
C662 C661 1.366 . S
C662 C663 1.414 . S
C662 C665 1.499 . S
C663 H637 0.950 . S
C663 C662 1.414 . S
C663 C664 1.374 . S
C664 H638 0.950 . S
C664 C660 1.385 . S
C664 C663 1.374 . S
C665 C662 1.499 . S
C665 C666 1.373 . S
C665 C667 1.389 . S
C666 H639 0.950 . S
C666 C652 1.377 . S
C666 C665 1.373 . S
C667 C651 1.377 . S
C667 C665 1.389 . S
C667 C668 1.524 . S
C668 C667 1.524 . S
C668 C669 1.397 . S
C668 C673 1.363 . S
C669 H640 0.950 . S
C669 C668 1.397 . S
C669 C670 1.334 . S
C670 H641 0.950 . S
C670 C669 1.334 . S
C670 C671 1.287 . S
C671 C670 1.287 . S
C671 C672 1.524 . S
C671 H674 0.999 . S
C672 H642 0.950 . S
C672 C671 1.524 . S
C672 C673 1.415 . S
C673 H643 0.950 . S
C673 C668 1.363 . S
C673 C672 1.415 . S
H674 C671 0.999 . S
H675 C656 0.913 . S
H676 C694 0.951 . S
H677 C696 0.951 . S
H678 C698 0.950 . S
H679 C699 0.950 . S
H680 C701 0.950 . S
H681 C704 0.950 . S
H682 C705 0.950 . S
H683 C707 0.950 . S
H684 C708 0.950 . S
H685 C709 0.951 . S
H686 C711 0.951 . S
H687 C713 0.950 . S
H688 C714 0.950 . S
H689 C716 0.950 . S
H690 C719 0.950 . S
H691 C720 0.950 . S
H692 C722 0.950 . S
H693 C723 0.950 . S
C694 H676 0.951 . S
C694 C695 1.366 . S
C694 C696 1.388 . S
C695 C694 1.366 . S
C695 C699 1.385 . S
C696 H677 0.951 . S
C696 C694 1.388 . S
C696 C697 1.366 . S
C697 C696 1.366 . S
C697 C698 1.414 . S
C697 C700 1.499 . S
C698 H678 0.950 . S
C698 C697 1.414 . S
C698 C699 1.374 . S
C699 H679 0.950 . S
C699 C695 1.385 . S
C699 C698 1.374 . S
C700 C697 1.499 . S
C700 C701 1.373 . S
C700 C702 1.389 . S
C701 H680 0.950 . S
C701 C700 1.373 . S
C701 C717 1.377 . S
C702 C700 1.389 . S
C702 C703 1.524 . S
C702 C716 1.377 . S
C703 C702 1.524 . S
C703 C704 1.397 . S
C703 C708 1.363 . S
C704 H681 0.950 . S
C704 C703 1.397 . S
C704 C705 1.334 . S
C705 H682 0.950 . S
C705 C704 1.334 . S
C705 C706 1.287 . S
C706 C705 1.287 . S
C706 C707 1.524 . S
C706 H725 0.913 . S
C707 H683 0.950 . S
C707 C706 1.524 . S
C707 C708 1.415 . S
C708 H684 0.950 . S
C708 C703 1.363 . S
C708 C707 1.415 . S
C709 H685 0.951 . S
C709 C710 1.366 . S
C709 C711 1.388 . S
C710 C709 1.366 . S
C710 C714 1.385 . S
C711 H686 0.951 . S
C711 C709 1.388 . S
C711 C712 1.366 . S
C712 C711 1.366 . S
C712 C713 1.414 . S
C712 C715 1.499 . S
C713 H687 0.950 . S
C713 C712 1.414 . S
C713 C714 1.374 . S
C714 H688 0.950 . S
C714 C710 1.385 . S
C714 C713 1.374 . S
C715 C712 1.499 . S
C715 C716 1.373 . S
C715 C717 1.389 . S
C716 H689 0.950 . S
C716 C702 1.377 . S
C716 C715 1.373 . S
C717 C701 1.377 . S
C717 C715 1.389 . S
C717 C718 1.524 . S
C718 C717 1.524 . S
C718 C719 1.397 . S
C718 C723 1.363 . S
C719 H690 0.950 . S
C719 C718 1.397 . S
C719 C720 1.334 . S
C720 H691 0.950 . S
C720 C719 1.334 . S
C720 C721 1.287 . S
C721 C720 1.287 . S
C721 C722 1.524 . S
C721 H724 0.999 . S
C722 H692 0.950 . S
C722 C721 1.524 . S
C722 C723 1.415 . S
C723 H693 0.950 . S
C723 C718 1.363 . S
C723 C722 1.415 . S
H724 C721 0.999 . S
H725 C706 0.913 . S
H726 C744 0.951 . S
H727 C746 0.951 . S
H728 C748 0.950 . S
H729 C749 0.950 . S
H730 C751 0.950 . S
H731 C754 0.950 . S
H732 C755 0.950 . S
H733 C757 0.950 . S
H734 C758 0.950 . S
H735 C759 0.951 . S
H736 C761 0.951 . S
H737 C763 0.950 . S
H738 C764 0.950 . S
H739 C766 0.950 . S
H740 C769 0.950 . S
H741 C770 0.950 . S
H742 C772 0.950 . S
H743 C773 0.950 . S
C744 H726 0.951 . S
C744 C745 1.366 . S
C744 C746 1.388 . S
C745 C744 1.366 . S
C745 C749 1.385 . S
C746 H727 0.951 . S
C746 C744 1.388 . S
C746 C747 1.366 . S
C747 C746 1.366 . S
C747 C748 1.414 . S
C747 C750 1.499 . S
C748 H728 0.950 . S
C748 C747 1.414 . S
C748 C749 1.374 . S
C749 H729 0.950 . S
C749 C745 1.385 . S
C749 C748 1.374 . S
C750 C747 1.499 . S
C750 C751 1.373 . S
C750 C752 1.389 . S
C751 H730 0.950 . S
C751 C750 1.373 . S
C751 C767 1.377 . S
C752 C750 1.389 . S
C752 C753 1.524 . S
C752 C766 1.377 . S
C753 C752 1.524 . S
C753 C754 1.397 . S
C753 C758 1.363 . S
C754 H731 0.950 . S
C754 C753 1.397 . S
C754 C755 1.334 . S
C755 H732 0.950 . S
C755 C754 1.334 . S
C755 C756 1.287 . S
C756 C755 1.287 . S
C756 C757 1.524 . S
C756 H775 0.913 . S
C757 H733 0.950 . S
C757 C756 1.524 . S
C757 C758 1.415 . S
C758 H734 0.950 . S
C758 C753 1.363 . S
C758 C757 1.415 . S
C759 H735 0.951 . S
C759 C760 1.366 . S
C759 C761 1.388 . S
C760 C759 1.366 . S
C760 C764 1.385 . S
C761 H736 0.951 . S
C761 C759 1.388 . S
C761 C762 1.366 . S
C762 C761 1.366 . S
C762 C763 1.414 . S
C762 C765 1.499 . S
C763 H737 0.950 . S
C763 C762 1.414 . S
C763 C764 1.374 . S
C764 H738 0.950 . S
C764 C760 1.385 . S
C764 C763 1.374 . S
C765 C762 1.499 . S
C765 C766 1.373 . S
C765 C767 1.389 . S
C766 H739 0.950 . S
C766 C752 1.377 . S
C766 C765 1.373 . S
C767 C751 1.377 . S
C767 C765 1.389 . S
C767 C768 1.524 . S
C768 C767 1.524 . S
C768 C769 1.397 . S
C768 C773 1.363 . S
C769 H740 0.950 . S
C769 C768 1.397 . S
C769 C770 1.334 . S
C770 H741 0.950 . S
C770 C769 1.334 . S
C770 C771 1.287 . S
C771 C770 1.287 . S
C771 C772 1.524 . S
C771 H774 0.999 . S
C772 H742 0.950 . S
C772 C771 1.524 . S
C772 C773 1.415 . S
C773 H743 0.950 . S
C773 C768 1.363 . S
C773 C772 1.415 . S
H774 C771 0.999 . S
H775 C756 0.913 . S
H776 C794 0.951 . S
H777 C796 0.951 . S
H778 C798 0.950 . S
H779 C799 0.950 . S
H780 C801 0.950 . S
H781 C804 0.950 . S
H782 C805 0.950 . S
H783 C807 0.950 . S
H784 C808 0.950 . S
H785 C809 0.951 . S
H786 C811 0.951 . S
H787 C813 0.950 . S
H788 C814 0.950 . S
H789 C816 0.950 . S
H790 C819 0.950 . S
H791 C820 0.950 . S
H792 C822 0.950 . S
H793 C823 0.950 . S
C794 H776 0.951 . S
C794 C795 1.366 . S
C794 C796 1.388 . S
C795 C794 1.366 . S
C795 C799 1.385 . S
C796 H777 0.951 . S
C796 C794 1.388 . S
C796 C797 1.366 . S
C797 C796 1.366 . S
C797 C798 1.414 . S
C797 C800 1.499 . S
C798 H778 0.950 . S
C798 C797 1.414 . S
C798 C799 1.374 . S
C799 H779 0.950 . S
C799 C795 1.385 . S
C799 C798 1.374 . S
C800 C797 1.499 . S
C800 C801 1.373 . S
C800 C802 1.389 . S
C801 H780 0.950 . S
C801 C800 1.373 . S
C801 C817 1.377 . S
C802 C800 1.389 . S
C802 C803 1.524 . S
C802 C816 1.377 . S
C803 C802 1.524 . S
C803 C804 1.397 . S
C803 C808 1.363 . S
C804 H781 0.950 . S
C804 C803 1.397 . S
C804 C805 1.334 . S
C805 H782 0.950 . S
C805 C804 1.334 . S
C805 C806 1.287 . S
C806 C805 1.287 . S
C806 C807 1.524 . S
C806 H825 0.913 . S
C807 H783 0.950 . S
C807 C806 1.524 . S
C807 C808 1.415 . S
C808 H784 0.950 . S
C808 C803 1.363 . S
C808 C807 1.415 . S
C809 H785 0.951 . S
C809 C810 1.366 . S
C809 C811 1.388 . S
C810 C809 1.366 . S
C810 C814 1.385 . S
C811 H786 0.951 . S
C811 C809 1.388 . S
C811 C812 1.366 . S
C812 C811 1.366 . S
C812 C813 1.414 . S
C812 C815 1.499 . S
C813 H787 0.950 . S
C813 C812 1.414 . S
C813 C814 1.374 . S
C814 H788 0.950 . S
C814 C810 1.385 . S
C814 C813 1.374 . S
C815 C812 1.499 . S
C815 C816 1.373 . S
C815 C817 1.389 . S
C816 H789 0.950 . S
C816 C802 1.377 . S
C816 C815 1.373 . S
C817 C801 1.377 . S
C817 C815 1.389 . S
C817 C818 1.524 . S
C818 C817 1.524 . S
C818 C819 1.397 . S
C818 C823 1.363 . S
C819 H790 0.950 . S
C819 C818 1.397 . S
C819 C820 1.334 . S
C820 H791 0.950 . S
C820 C819 1.334 . S
C820 C821 1.287 . S
C821 C820 1.287 . S
C821 C822 1.524 . S
C821 H824 0.999 . S
C822 H792 0.950 . S
C822 C821 1.524 . S
C822 C823 1.415 . S
C823 H793 0.950 . S
C823 C818 1.363 . S
C823 C822 1.415 . S
H824 C821 0.999 . S
H825 C806 0.913 . S
H826 C844 0.951 . S
H827 C846 0.951 . S
H828 C848 0.950 . S
H829 C849 0.950 . S
H830 C851 0.950 . S
H831 C854 0.950 . S
H832 C855 0.950 . S
H833 C857 0.950 . S
H834 C858 0.950 . S
H835 C859 0.951 . S
H836 C861 0.951 . S
H837 C863 0.950 . S
H838 C864 0.950 . S
H839 C866 0.950 . S
H840 C869 0.950 . S
H841 C870 0.950 . S
H842 C872 0.950 . S
H843 C873 0.950 . S
C844 H826 0.951 . S
C844 C845 1.366 . S
C844 C846 1.388 . S
C845 C844 1.366 . S
C845 C849 1.385 . S
C846 H827 0.951 . S
C846 C844 1.388 . S
C846 C847 1.366 . S
C847 C846 1.366 . S
C847 C848 1.414 . S
C847 C850 1.499 . S
C848 H828 0.950 . S
C848 C847 1.414 . S
C848 C849 1.374 . S
C849 H829 0.950 . S
C849 C845 1.385 . S
C849 C848 1.374 . S
C850 C847 1.499 . S
C850 C851 1.373 . S
C850 C852 1.389 . S
C851 H830 0.950 . S
C851 C850 1.373 . S
C851 C867 1.377 . S
C852 C850 1.389 . S
C852 C853 1.524 . S
C852 C866 1.377 . S
C853 C852 1.524 . S
C853 C854 1.397 . S
C853 C858 1.363 . S
C854 H831 0.950 . S
C854 C853 1.397 . S
C854 C855 1.334 . S
C855 H832 0.950 . S
C855 C854 1.334 . S
C855 C856 1.287 . S
C856 C855 1.287 . S
C856 C857 1.524 . S
C856 H875 0.913 . S
C857 H833 0.950 . S
C857 C856 1.524 . S
C857 C858 1.415 . S
C858 H834 0.950 . S
C858 C853 1.363 . S
C858 C857 1.415 . S
C859 H835 0.951 . S
C859 C860 1.366 . S
C859 C861 1.388 . S
C860 C859 1.366 . S
C860 C864 1.385 . S
C861 H836 0.951 . S
C861 C859 1.388 . S
C861 C862 1.366 . S
C862 C861 1.366 . S
C862 C863 1.414 . S
C862 C865 1.499 . S
C863 H837 0.950 . S
C863 C862 1.414 . S
C863 C864 1.374 . S
C864 H838 0.950 . S
C864 C860 1.385 . S
C864 C863 1.374 . S
C865 C862 1.499 . S
C865 C866 1.373 . S
C865 C867 1.389 . S
C866 H839 0.950 . S
C866 C852 1.377 . S
C866 C865 1.373 . S
C867 C851 1.377 . S
C867 C865 1.389 . S
C867 C868 1.524 . S
C868 C867 1.524 . S
C868 C869 1.397 . S
C868 C873 1.363 . S
C869 H840 0.950 . S
C869 C868 1.397 . S
C869 C870 1.334 . S
C870 H841 0.950 . S
C870 C869 1.334 . S
C870 C871 1.287 . S
C871 C870 1.287 . S
C871 C872 1.524 . S
C871 H874 0.999 . S
C872 H842 0.950 . S
C872 C871 1.524 . S
C872 C873 1.415 . S
C873 H843 0.950 . S
C873 C868 1.363 . S
C873 C872 1.415 . S
H874 C871 0.999 . S
H875 C856 0.913 . S
H876 C894 0.951 . S
H877 C896 0.951 . S
H878 C898 0.950 . S
H879 C899 0.950 . S
H880 C901 0.950 . S
H881 C904 0.950 . S
H882 C905 0.950 . S
H883 C907 0.950 . S
H884 C908 0.950 . S
H885 C909 0.951 . S
H886 C911 0.951 . S
H887 C913 0.950 . S
H888 C914 0.950 . S
H889 C916 0.950 . S
H890 C919 0.950 . S
H891 C920 0.950 . S
H892 C922 0.950 . S
H893 C923 0.950 . S
C894 H876 0.951 . S
C894 C895 1.366 . S
C894 C896 1.388 . S
C895 C894 1.366 . S
C895 C899 1.385 . S
C896 H877 0.951 . S
C896 C894 1.388 . S
C896 C897 1.366 . S
C897 C896 1.366 . S
C897 C898 1.414 . S
C897 C900 1.499 . S
C898 H878 0.950 . S
C898 C897 1.414 . S
C898 C899 1.374 . S
C899 H879 0.950 . S
C899 C895 1.385 . S
C899 C898 1.374 . S
C900 C897 1.499 . S
C900 C901 1.373 . S
C900 C902 1.389 . S
C901 H880 0.950 . S
C901 C900 1.373 . S
C901 C917 1.377 . S
C902 C900 1.389 . S
C902 C903 1.524 . S
C902 C916 1.377 . S
C903 C902 1.524 . S
C903 C904 1.397 . S
C903 C908 1.363 . S
C904 H881 0.950 . S
C904 C903 1.397 . S
C904 C905 1.334 . S
C905 H882 0.950 . S
C905 C904 1.334 . S
C905 C906 1.287 . S
C906 C905 1.287 . S
C906 C907 1.524 . S
C906 H925 0.913 . S
C907 H883 0.950 . S
C907 C906 1.524 . S
C907 C908 1.415 . S
C908 H884 0.950 . S
C908 C903 1.363 . S
C908 C907 1.415 . S
C909 H885 0.951 . S
C909 C910 1.366 . S
C909 C911 1.388 . S
C910 C909 1.366 . S
C910 C914 1.385 . S
C911 H886 0.951 . S
C911 C909 1.388 . S
C911 C912 1.366 . S
C912 C911 1.366 . S
C912 C913 1.414 . S
C912 C915 1.499 . S
C913 H887 0.950 . S
C913 C912 1.414 . S
C913 C914 1.374 . S
C914 H888 0.950 . S
C914 C910 1.385 . S
C914 C913 1.374 . S
C915 C912 1.499 . S
C915 C916 1.373 . S
C915 C917 1.389 . S
C916 H889 0.950 . S
C916 C902 1.377 . S
C916 C915 1.373 . S
C917 C901 1.377 . S
C917 C915 1.389 . S
C917 C918 1.524 . S
C918 C917 1.524 . S
C918 C919 1.397 . S
C918 C923 1.363 . S
C919 H890 0.950 . S
C919 C918 1.397 . S
C919 C920 1.334 . S
C920 H891 0.950 . S
C920 C919 1.334 . S
C920 C921 1.287 . S
C921 C920 1.287 . S
C921 C922 1.524 . S
C921 H924 0.999 . S
C922 H892 0.950 . S
C922 C921 1.524 . S
C922 C923 1.415 . S
C923 H893 0.950 . S
C923 C918 1.363 . S
C923 C922 1.415 . S
H924 C921 0.999 . S
H925 C906 0.913 . S
H926 C944 0.951 . S
H927 C946 0.951 . S
H928 C948 0.950 . S
H929 C949 0.950 . S
H930 C951 0.950 . S
H931 C954 0.950 . S
H932 C955 0.950 . S
H933 C957 0.950 . S
H934 C958 0.950 . S
H935 C959 0.951 . S
H936 C961 0.951 . S
H937 C963 0.950 . S
H938 C964 0.950 . S
H939 C966 0.950 . S
H940 C969 0.950 . S
H941 C970 0.950 . S
H942 C972 0.950 . S
H943 C973 0.950 . S
C944 H926 0.951 . S
C944 C945 1.366 . S
C944 C946 1.388 . S
C945 C944 1.366 . S
C945 C949 1.385 . S
C946 H927 0.951 . S
C946 C944 1.388 . S
C946 C947 1.366 . S
C947 C946 1.366 . S
C947 C948 1.414 . S
C947 C950 1.499 . S
C948 H928 0.950 . S
C948 C947 1.414 . S
C948 C949 1.374 . S
C949 H929 0.950 . S
C949 C945 1.385 . S
C949 C948 1.374 . S
C950 C947 1.499 . S
C950 C951 1.373 . S
C950 C952 1.389 . S
C951 H930 0.950 . S
C951 C950 1.373 . S
C951 C967 1.377 . S
C952 C950 1.389 . S
C952 C953 1.524 . S
C952 C966 1.377 . S
C953 C952 1.524 . S
C953 C954 1.397 . S
C953 C958 1.363 . S
C954 H931 0.950 . S
C954 C953 1.397 . S
C954 C955 1.334 . S
C955 H932 0.950 . S
C955 C954 1.334 . S
C955 C956 1.287 . S
C956 C955 1.287 . S
C956 C957 1.524 . S
C956 H975 0.913 . S
C957 H933 0.950 . S
C957 C956 1.524 . S
C957 C958 1.415 . S
C958 H934 0.950 . S
C958 C953 1.363 . S
C958 C957 1.415 . S
C959 H935 0.951 . S
C959 C960 1.366 . S
C959 C961 1.388 . S
C960 C959 1.366 . S
C960 C964 1.385 . S
C961 H936 0.951 . S
C961 C959 1.388 . S
C961 C962 1.366 . S
C962 C961 1.366 . S
C962 C963 1.414 . S
C962 C965 1.499 . S
C963 H937 0.950 . S
C963 C962 1.414 . S
C963 C964 1.374 . S
C964 H938 0.950 . S
C964 C960 1.385 . S
C964 C963 1.374 . S
C965 C962 1.499 . S
C965 C966 1.373 . S
C965 C967 1.389 . S
C966 H939 0.950 . S
C966 C952 1.377 . S
C966 C965 1.373 . S
C967 C951 1.377 . S
C967 C965 1.389 . S
C967 C968 1.524 . S
C968 C967 1.524 . S
C968 C969 1.397 . S
C968 C973 1.363 . S
C969 H940 0.950 . S
C969 C968 1.397 . S
C969 C970 1.334 . S
C970 H941 0.950 . S
C970 C969 1.334 . S
C970 C971 1.287 . S
C971 C970 1.287 . S
C971 C972 1.524 . S
C971 H974 0.999 . S
C972 H942 0.950 . S
C972 C971 1.524 . S
C972 C973 1.415 . S
C973 H943 0.950 . S
C973 C968 1.363 . S
C973 C972 1.415 . S
H974 C971 0.999 . S
H975 C956 0.913 . S
H976 C994 0.951 . S
H977 C996 0.951 . S
H978 C998 0.950 . S
H979 C999 0.950 . S
H980 C1001 0.950 . S
H981 C1004 0.937 1_565 S
H982 C1005 0.950 . S
H983 C1007 0.950 . S
H984 C1008 0.950 1_655 S
H985 C1009 0.951 . S
H986 C1011 0.951 . S
H987 C1013 0.950 . S
H988 C1014 0.950 . S
H989 C1016 0.950 . S
H990 C1019 0.937 1_545 S
H991 C1020 0.950 . S
H992 C1022 0.950 . S
H993 C1023 0.950 1_455 S
C994 H976 0.951 . S
C994 C995 1.366 . S
C994 C996 1.388 . S
C995 C994 1.366 . S
C995 C999 1.385 . S
C996 H977 0.951 . S
C996 C994 1.388 . S
C996 C997 1.366 . S
C997 C996 1.366 . S
C997 C998 1.414 . S
C997 C1000 1.499 . S
C998 H978 0.950 . S
C998 C997 1.414 . S
C998 C999 1.374 . S
C999 H979 0.950 . S
C999 C995 1.385 . S
C999 C998 1.374 . S
C1000 C997 1.499 . S
C1000 C1001 1.373 . S
C1000 C1002 1.389 . S
C1001 H980 0.950 . S
C1001 C1000 1.373 . S
C1001 C1017 1.377 1_445 S
C1002 C1000 1.389 . S
C1002 C1003 1.524 . S
C1002 C1016 1.377 1_445 S
C1003 C1002 1.524 . S
C1003 C1004 1.397 . S
C1003 C1008 1.363 . S
C1004 H981 0.937 1_545 S
C1004 C1003 1.397 . S
C1004 C1005 1.334 . S
C1005 H982 0.950 . S
C1005 C1004 1.334 . S
C1005 C1006 1.287 . S
C1006 C1005 1.287 . S
C1006 C1007 1.524 . S
C1006 H1025 0.913 . S
C1007 H983 0.950 . S
C1007 C1006 1.524 . S
C1007 C1008 1.415 . S
C1008 H984 0.950 1_455 S
C1008 C1003 1.363 . S
C1008 C1007 1.415 . S
C1009 H985 0.951 . S
C1009 C1010 1.366 . S
C1009 C1011 1.388 . S
C1010 C1009 1.366 . S
C1010 C1014 1.385 . S
C1011 H986 0.951 . S
C1011 C1009 1.388 . S
C1011 C1012 1.366 . S
C1012 C1011 1.366 . S
C1012 C1013 1.414 . S
C1012 C1015 1.499 . S
C1013 H987 0.950 . S
C1013 C1012 1.414 . S
C1013 C1014 1.374 . S
C1014 H988 0.950 . S
C1014 C1010 1.385 . S
C1014 C1013 1.374 . S
C1015 C1012 1.499 . S
C1015 C1016 1.373 . S
C1015 C1017 1.389 . S
C1016 H989 0.950 . S
C1016 C1002 1.377 1_665 S
C1016 C1015 1.373 . S
C1017 C1001 1.377 1_665 S
C1017 C1015 1.389 . S
C1017 C1018 1.524 . S
C1018 C1017 1.524 . S
C1018 C1019 1.397 . S
C1018 C1023 1.363 . S
C1019 H990 0.937 1_565 S
C1019 C1018 1.397 . S
C1019 C1020 1.334 . S
C1020 H991 0.950 . S
C1020 C1019 1.334 . S
C1020 C1021 1.287 . S
C1021 C1020 1.287 . S
C1021 C1022 1.524 . S
C1021 H1024 0.999 . S
C1022 H992 0.950 . S
C1022 C1021 1.524 . S
C1022 C1023 1.415 . S
C1023 H993 0.950 1_655 S
C1023 C1018 1.363 . S
C1023 C1022 1.415 . S
H1024 C1021 0.999 . S
H1025 C1006 0.913 . S
H1026 C1044 0.951 . S
H1027 C1046 0.951 . S
H1028 C1048 0.950 . S
H1029 C1049 0.950 . S
H1030 C1051 0.950 . S
H1031 C1054 0.950 . S
H1032 C1055 0.950 . S
H1033 C1057 0.950 . S
H1034 C1058 0.950 . S
H1035 C1059 0.951 . S
H1036 C1061 0.951 . S
H1037 C1063 0.950 . S
H1038 C1064 0.950 . S
H1039 C1066 0.950 . S
H1040 C1069 0.950 . S
H1041 C1070 0.950 . S
H1042 C1072 0.950 . S
H1043 C1073 0.950 . S
C1044 H1026 0.951 . S
C1044 C1045 1.366 . S
C1044 C1046 1.388 . S
C1045 C1044 1.366 . S
C1045 C1049 1.385 . S
C1046 H1027 0.951 . S
C1046 C1044 1.388 . S
C1046 C1047 1.366 . S
C1047 C1046 1.366 . S
C1047 C1048 1.414 . S
C1047 C1050 1.499 . S
C1048 H1028 0.950 . S
C1048 C1047 1.414 . S
C1048 C1049 1.374 . S
C1049 H1029 0.950 . S
C1049 C1045 1.385 . S
C1049 C1048 1.374 . S
C1050 C1047 1.499 . S
C1050 C1051 1.373 . S
C1050 C1052 1.389 1_455 S
C1051 H1030 0.950 . S
C1051 C1050 1.373 . S
C1051 C1067 1.377 . S
C1052 C1050 1.389 1_655 S
C1052 C1053 1.524 . S
C1052 C1066 1.377 . S
C1053 C1052 1.524 . S
C1053 C1054 1.397 . S
C1053 C1058 1.363 . S
C1054 H1031 0.950 . S
C1054 C1053 1.397 . S
C1054 C1055 1.334 . S
C1055 H1032 0.950 . S
C1055 C1054 1.334 . S
C1055 C1056 1.287 . S
C1056 C1055 1.287 . S
C1056 C1057 1.524 . S
C1056 H1075 0.913 . S
C1057 H1033 0.950 . S
C1057 C1056 1.524 . S
C1057 C1058 1.415 . S
C1058 H1034 0.950 . S
C1058 C1053 1.363 . S
C1058 C1057 1.415 . S
C1059 H1035 0.951 . S
C1059 C1060 1.366 . S
C1059 C1061 1.388 . S
C1060 C1059 1.366 . S
C1060 C1064 1.385 . S
C1061 H1036 0.951 . S
C1061 C1059 1.388 . S
C1061 C1062 1.366 . S
C1062 C1061 1.366 . S
C1062 C1063 1.414 . S
C1062 C1065 1.499 . S
C1063 H1037 0.950 . S
C1063 C1062 1.414 . S
C1063 C1064 1.374 . S
C1064 H1038 0.950 . S
C1064 C1060 1.385 . S
C1064 C1063 1.374 . S
C1065 C1062 1.499 . S
C1065 C1066 1.373 . S
C1065 C1067 1.389 1_655 S
C1066 H1039 0.950 . S
C1066 C1052 1.377 . S
C1066 C1065 1.373 . S
C1067 C1051 1.377 . S
C1067 C1065 1.389 1_455 S
C1067 C1068 1.524 . S
C1068 C1067 1.524 . S
C1068 C1069 1.397 . S
C1068 C1073 1.363 . S
C1069 H1040 0.950 . S
C1069 C1068 1.397 . S
C1069 C1070 1.334 . S
C1070 H1041 0.950 . S
C1070 C1069 1.334 . S
C1070 C1071 1.287 . S
C1071 C1070 1.287 . S
C1071 C1072 1.524 . S
C1071 H1074 0.999 . S
C1072 H1042 0.950 . S
C1072 C1071 1.524 . S
C1072 C1073 1.415 . S
C1073 H1043 0.950 . S
C1073 C1068 1.363 . S
C1073 C1072 1.415 . S
H1074 C1071 0.999 . S
H1075 C1056 0.913 . S
H1076 C1094 0.951 . S
H1077 C1096 0.951 . S
H1078 C1098 0.950 . S
H1079 C1099 0.950 . S
H1080 C1101 0.950 . S
H1081 C1104 0.950 . S
H1082 C1105 0.950 . S
H1083 C1107 0.950 . S
H1084 C1108 0.950 . S
H1085 C1109 0.951 . S
H1086 C1111 0.951 . S
H1087 C1113 0.950 . S
H1088 C1114 0.950 . S
H1089 C1116 0.950 . S
H1090 C1119 0.950 . S
H1091 C1120 0.950 . S
H1092 C1122 0.950 . S
H1093 C1123 0.950 . S
C1094 H1076 0.951 . S
C1094 C1095 1.366 . S
C1094 C1096 1.388 . S
C1095 C1094 1.366 . S
C1095 C1099 1.385 . S
C1096 H1077 0.951 . S
C1096 C1094 1.388 . S
C1096 C1097 1.366 . S
C1097 C1096 1.366 . S
C1097 C1098 1.414 . S
C1097 C1100 1.499 . S
C1098 H1078 0.950 . S
C1098 C1097 1.414 . S
C1098 C1099 1.374 . S
C1099 H1079 0.950 . S
C1099 C1095 1.385 . S
C1099 C1098 1.374 . S
C1100 C1097 1.499 . S
C1100 C1101 1.373 . S
C1100 C1102 1.389 . S
C1101 H1080 0.950 . S
C1101 C1100 1.373 . S
C1101 C1117 1.377 . S
C1102 C1100 1.389 . S
C1102 C1103 1.524 . S
C1102 C1116 1.377 . S
C1103 C1102 1.524 . S
C1103 C1104 1.397 . S
C1103 C1108 1.363 . S
C1104 H1081 0.950 . S
C1104 C1103 1.397 . S
C1104 C1105 1.334 . S
C1105 H1082 0.950 . S
C1105 C1104 1.334 . S
C1105 C1106 1.287 . S
C1106 C1105 1.287 . S
C1106 C1107 1.524 . S
C1106 H1125 0.913 . S
C1107 H1083 0.950 . S
C1107 C1106 1.524 . S
C1107 C1108 1.415 . S
C1108 H1084 0.950 . S
C1108 C1103 1.363 . S
C1108 C1107 1.415 . S
C1109 H1085 0.951 . S
C1109 C1110 1.366 . S
C1109 C1111 1.388 . S
C1110 C1109 1.366 . S
C1110 C1114 1.385 . S
C1111 H1086 0.951 . S
C1111 C1109 1.388 . S
C1111 C1112 1.366 . S
C1112 C1111 1.366 . S
C1112 C1113 1.414 . S
C1112 C1115 1.499 . S
C1113 H1087 0.950 . S
C1113 C1112 1.414 . S
C1113 C1114 1.374 . S
C1114 H1088 0.950 . S
C1114 C1110 1.385 . S
C1114 C1113 1.374 . S
C1115 C1112 1.499 . S
C1115 C1116 1.373 . S
C1115 C1117 1.389 . S
C1116 H1089 0.950 . S
C1116 C1102 1.377 . S
C1116 C1115 1.373 . S
C1117 C1101 1.377 . S
C1117 C1115 1.389 . S
C1117 C1118 1.524 . S
C1118 C1117 1.524 . S
C1118 C1119 1.397 . S
C1118 C1123 1.363 . S
C1119 H1090 0.950 . S
C1119 C1118 1.397 . S
C1119 C1120 1.334 . S
C1120 H1091 0.950 . S
C1120 C1119 1.334 . S
C1120 C1121 1.287 . S
C1121 C1120 1.287 . S
C1121 C1122 1.524 . S
C1121 H1124 0.999 . S
C1122 H1092 0.950 . S
C1122 C1121 1.524 . S
C1122 C1123 1.415 . S
C1123 H1093 0.950 . S
C1123 C1118 1.363 . S
C1123 C1122 1.415 . S
H1124 C1121 0.999 . S
H1125 C1106 0.913 . S
H1126 C1144 0.951 . S
H1127 C1146 0.951 . S
H1128 C1148 0.950 . S
H1129 C1149 0.950 . S
H1130 C1151 0.953 . S
H1131 C1154 0.950 . S
H1132 C1155 0.950 . S
H1133 C1157 0.950 . S
H1134 C1158 0.950 . S
H1135 C1159 0.951 . S
H1136 C1161 0.951 . S
H1137 C1163 0.950 . S
H1138 C1164 0.950 . S
H1139 C1166 0.953 . S
H1140 C1169 0.950 . S
H1141 C1170 0.950 . S
H1142 C1172 0.950 . S
H1143 C1173 0.950 . S
C1144 H1126 0.951 . S
C1144 C1145 1.366 . S
C1144 C1146 1.388 . S
C1145 C1144 1.366 . S
C1145 C1149 1.385 . S
C1146 H1127 0.951 . S
C1146 C1144 1.388 . S
C1146 C1147 1.366 . S
C1147 C1146 1.366 . S
C1147 C1148 1.414 . S
C1147 C1150 1.499 . S
C1148 H1128 0.950 . S
C1148 C1147 1.414 . S
C1148 C1149 1.374 . S
C1149 H1129 0.950 . S
C1149 C1145 1.385 . S
C1149 C1148 1.374 . S
C1150 C1147 1.499 . S
C1150 C1151 1.344 1_545 S
C1150 C1152 1.389 . S
C1151 H1130 0.953 . S
C1151 C1150 1.344 1_565 S
C1151 C1167 1.404 . S
C1152 C1150 1.389 . S
C1152 C1153 1.524 . S
C1152 C1166 1.404 . S
C1153 C1152 1.524 . S
C1153 C1154 1.397 . S
C1153 C1158 1.363 . S
C1154 H1131 0.950 . S
C1154 C1153 1.397 . S
C1154 C1155 1.334 . S
C1155 H1132 0.950 . S
C1155 C1154 1.334 . S
C1155 C1156 1.287 . S
C1156 C1155 1.287 . S
C1156 C1157 1.524 . S
C1156 H1175 0.913 . S
C1157 H1133 0.950 . S
C1157 C1156 1.524 . S
C1157 C1158 1.415 . S
C1158 H1134 0.950 . S
C1158 C1153 1.363 . S
C1158 C1157 1.415 . S
C1159 H1135 0.951 . S
C1159 C1160 1.366 . S
C1159 C1161 1.388 . S
C1160 C1159 1.366 . S
C1160 C1164 1.385 . S
C1161 H1136 0.951 . S
C1161 C1159 1.388 . S
C1161 C1162 1.366 . S
C1162 C1161 1.366 . S
C1162 C1163 1.414 . S
C1162 C1165 1.499 . S
C1163 H1137 0.950 . S
C1163 C1162 1.414 . S
C1163 C1164 1.374 . S
C1164 H1138 0.950 . S
C1164 C1160 1.385 . S
C1164 C1163 1.374 . S
C1165 C1162 1.499 . S
C1165 C1166 1.345 1_565 S
C1165 C1167 1.389 . S
C1166 H1139 0.953 . S
C1166 C1152 1.404 . S
C1166 C1165 1.345 1_545 S
C1167 C1151 1.404 . S
C1167 C1165 1.389 . S
C1167 C1168 1.524 . S
C1168 C1167 1.524 . S
C1168 C1169 1.397 . S
C1168 C1173 1.363 . S
C1169 H1140 0.950 . S
C1169 C1168 1.397 . S
C1169 C1170 1.334 . S
C1170 H1141 0.950 . S
C1170 C1169 1.334 . S
C1170 C1171 1.287 . S
C1171 C1170 1.287 . S
C1171 C1172 1.524 . S
C1171 H1174 0.999 . S
C1172 H1142 0.950 . S
C1172 C1171 1.524 . S
C1172 C1173 1.415 . S
C1173 H1143 0.950 . S
C1173 C1168 1.363 . S
C1173 C1172 1.415 . S
H1174 C1171 0.999 . S
H1175 C1156 0.913 . S
H1176 C1194 0.951 . S
H1177 C1196 0.951 . S
H1178 C1198 0.950 . S
H1179 C1199 0.950 . S
H1180 C1201 0.950 . S
H1181 C1204 0.950 . S
H1182 C1205 0.950 . S
H1183 C1207 0.950 . S
H1184 C1208 0.950 . S
H1185 C1209 0.951 . S
H1186 C1211 0.951 . S
H1187 C1213 0.950 . S
H1188 C1214 0.950 . S
H1189 C1216 0.950 . S
H1190 C1219 0.950 . S
H1191 C1220 0.950 . S
H1192 C1222 0.950 . S
H1193 C1223 0.950 . S
C1194 H1176 0.951 . S
C1194 C1195 1.366 . S
C1194 C1196 1.388 . S
C1195 C1194 1.366 . S
C1195 C1199 1.385 . S
C1196 H1177 0.951 . S
C1196 C1194 1.388 . S
C1196 C1197 1.366 . S
C1197 C1196 1.366 . S
C1197 C1198 1.414 . S
C1197 C1200 1.499 . S
C1198 H1178 0.950 . S
C1198 C1197 1.414 . S
C1198 C1199 1.374 . S
C1199 H1179 0.950 . S
C1199 C1195 1.385 . S
C1199 C1198 1.374 . S
C1200 C1197 1.499 . S
C1200 C1201 1.373 . S
C1200 C1202 1.389 1_655 S
C1201 H1180 0.950 . S
C1201 C1200 1.373 . S
C1201 C1217 1.377 . S
C1202 C1200 1.389 1_455 S
C1202 C1203 1.524 . S
C1202 C1216 1.377 . S
C1203 C1202 1.524 . S
C1203 C1204 1.397 1_455 S
C1203 C1208 1.363 . S
C1204 H1181 0.950 . S
C1204 C1203 1.397 1_655 S
C1204 C1205 1.334 . S
C1205 H1182 0.950 . S
C1205 C1204 1.334 . S
C1205 C1206 1.287 1_655 S
C1206 C1205 1.287 1_455 S
C1206 C1207 1.524 . S
C1206 H1225 0.913 . S
C1207 H1183 0.950 . S
C1207 C1206 1.524 . S
C1207 C1208 1.415 . S
C1208 H1184 0.950 . S
C1208 C1203 1.363 . S
C1208 C1207 1.415 . S
C1209 H1185 0.951 . S
C1209 C1210 1.366 . S
C1209 C1211 1.388 . S
C1210 C1209 1.366 . S
C1210 C1214 1.385 . S
C1211 H1186 0.951 . S
C1211 C1209 1.388 . S
C1211 C1212 1.366 . S
C1212 C1211 1.366 . S
C1212 C1213 1.414 . S
C1212 C1215 1.499 . S
C1213 H1187 0.950 . S
C1213 C1212 1.414 . S
C1213 C1214 1.374 . S
C1214 H1188 0.950 . S
C1214 C1210 1.385 . S
C1214 C1213 1.374 . S
C1215 C1212 1.499 . S
C1215 C1216 1.373 . S
C1215 C1217 1.389 1_455 S
C1216 H1189 0.950 . S
C1216 C1202 1.377 . S
C1216 C1215 1.373 . S
C1217 C1201 1.377 . S
C1217 C1215 1.389 1_655 S
C1217 C1218 1.524 . S
C1218 C1217 1.524 . S
C1218 C1219 1.397 1_655 S
C1218 C1223 1.363 . S
C1219 H1190 0.950 . S
C1219 C1218 1.397 1_455 S
C1219 C1220 1.334 . S
C1220 H1191 0.950 . S
C1220 C1219 1.334 . S
C1220 C1221 1.287 1_455 S
C1221 C1220 1.287 1_655 S
C1221 C1222 1.524 . S
C1221 H1224 0.999 . S
C1222 H1192 0.950 . S
C1222 C1221 1.524 . S
C1222 C1223 1.415 . S
C1223 H1193 0.950 . S
C1223 C1218 1.363 . S
C1223 C1222 1.415 . S
H1224 C1221 0.999 . S
H1225 C1206 0.913 . S
H1226 C1244 0.951 . S
H1227 C1246 0.951 . S
H1228 C1248 0.950 . S
H1229 C1249 0.950 . S
H1230 C1251 0.950 . S
H1231 C1254 0.950 . S
H1232 C1255 0.950 . S
H1233 C1257 0.950 . S
H1234 C1258 0.950 . S
H1235 C1259 0.951 . S
H1236 C1261 0.951 . S
H1237 C1263 0.950 . S
H1238 C1264 0.950 . S
H1239 C1266 0.950 . S
H1240 C1269 0.950 . S
H1241 C1270 0.950 . S
H1242 C1272 0.950 . S
H1243 C1273 0.950 . S
C1244 H1226 0.951 . S
C1244 C1245 1.366 . S
C1244 C1246 1.388 . S
C1245 C1244 1.366 . S
C1245 C1249 1.385 . S
C1246 H1227 0.951 . S
C1246 C1244 1.388 . S
C1246 C1247 1.366 . S
C1247 C1246 1.366 . S
C1247 C1248 1.414 . S
C1247 C1250 1.499 . S
C1248 H1228 0.950 . S
C1248 C1247 1.414 . S
C1248 C1249 1.374 . S
C1249 H1229 0.950 . S
C1249 C1245 1.385 . S
C1249 C1248 1.374 . S
C1250 C1247 1.499 . S
C1250 C1251 1.373 . S
C1250 C1252 1.389 . S
C1251 H1230 0.950 . S
C1251 C1250 1.373 . S
C1251 C1267 1.377 . S
C1252 C1250 1.389 . S
C1252 C1253 1.524 . S
C1252 C1266 1.377 . S
C1253 C1252 1.524 . S
C1253 C1254 1.397 . S
C1253 C1258 1.363 . S
C1254 H1231 0.950 . S
C1254 C1253 1.397 . S
C1254 C1255 1.334 . S
C1255 H1232 0.950 . S
C1255 C1254 1.334 . S
C1255 C1256 1.287 . S
C1256 C1255 1.287 . S
C1256 C1257 1.524 . S
C1256 H1275 0.913 . S
C1257 H1233 0.950 . S
C1257 C1256 1.524 . S
C1257 C1258 1.415 . S
C1258 H1234 0.950 . S
C1258 C1253 1.363 . S
C1258 C1257 1.415 . S
C1259 H1235 0.951 . S
C1259 C1260 1.366 . S
C1259 C1261 1.388 . S
C1260 C1259 1.366 . S
C1260 C1264 1.385 . S
C1261 H1236 0.951 . S
C1261 C1259 1.388 . S
C1261 C1262 1.366 . S
C1262 C1261 1.366 . S
C1262 C1263 1.414 . S
C1262 C1265 1.499 . S
C1263 H1237 0.950 . S
C1263 C1262 1.414 . S
C1263 C1264 1.374 . S
C1264 H1238 0.950 . S
C1264 C1260 1.385 . S
C1264 C1263 1.374 . S
C1265 C1262 1.499 . S
C1265 C1266 1.373 . S
C1265 C1267 1.389 . S
C1266 H1239 0.950 . S
C1266 C1252 1.377 . S
C1266 C1265 1.373 . S
C1267 C1251 1.377 . S
C1267 C1265 1.389 . S
C1267 C1268 1.524 . S
C1268 C1267 1.524 . S
C1268 C1269 1.397 . S
C1268 C1273 1.363 . S
C1269 H1240 0.950 . S
C1269 C1268 1.397 . S
C1269 C1270 1.334 . S
C1270 H1241 0.950 . S
C1270 C1269 1.334 . S
C1270 C1271 1.287 . S
C1271 C1270 1.287 . S
C1271 C1272 1.524 . S
C1271 H1274 0.999 . S
C1272 H1242 0.950 . S
C1272 C1271 1.524 . S
C1272 C1273 1.415 . S
C1273 H1243 0.950 . S
C1273 C1268 1.363 . S
C1273 C1272 1.415 . S
H1274 C1271 0.999 . S
H1275 C1256 0.913 . S
H1276 C1294 0.951 . S
H1277 C1296 0.951 . S
H1278 C1298 0.950 . S
H1279 C1299 0.950 . S
H1280 C1301 0.950 . S
H1281 C1304 0.950 . S
H1282 C1305 0.950 . S
H1283 C1307 0.950 . S
H1284 C1308 0.950 . S
H1285 C1309 0.951 . S
H1286 C1311 0.951 . S
H1287 C1313 0.950 . S
H1288 C1314 0.950 . S
H1289 C1316 0.950 . S
H1290 C1319 0.950 . S
H1291 C1320 0.950 . S
H1292 C1322 0.950 . S
H1293 C1323 0.950 . S
C1294 H1276 0.951 . S
C1294 C1295 1.366 . S
C1294 C1296 1.388 . S
C1295 C1294 1.366 . S
C1295 C1299 1.385 . S
C1296 H1277 0.951 . S
C1296 C1294 1.388 . S
C1296 C1297 1.366 . S
C1297 C1296 1.366 . S
C1297 C1298 1.414 . S
C1297 C1300 1.499 . S
C1298 H1278 0.950 . S
C1298 C1297 1.414 . S
C1298 C1299 1.374 . S
C1299 H1279 0.950 . S
C1299 C1295 1.385 . S
C1299 C1298 1.374 . S
C1300 C1297 1.499 . S
C1300 C1301 1.373 . S
C1300 C1302 1.389 . S
C1301 H1280 0.950 . S
C1301 C1300 1.373 . S
C1301 C1317 1.377 1_545 S
C1302 C1300 1.389 . S
C1302 C1303 1.524 . S
C1302 C1316 1.377 1_545 S
C1303 C1302 1.524 . S
C1303 C1304 1.397 . S
C1303 C1308 1.363 . S
C1304 H1281 0.950 . S
C1304 C1303 1.397 . S
C1304 C1305 1.334 . S
C1305 H1282 0.950 . S
C1305 C1304 1.334 . S
C1305 C1306 1.287 . S
C1306 C1305 1.287 . S
C1306 C1307 1.524 . S
C1306 H1325 0.913 . S
C1307 H1283 0.950 . S
C1307 C1306 1.524 . S
C1307 C1308 1.415 . S
C1308 H1284 0.950 . S
C1308 C1303 1.363 . S
C1308 C1307 1.415 . S
C1309 H1285 0.951 . S
C1309 C1310 1.366 . S
C1309 C1311 1.388 . S
C1310 C1309 1.366 . S
C1310 C1314 1.385 . S
C1311 H1286 0.951 . S
C1311 C1309 1.388 . S
C1311 C1312 1.366 . S
C1312 C1311 1.366 . S
C1312 C1313 1.414 . S
C1312 C1315 1.499 . S
C1313 H1287 0.950 . S
C1313 C1312 1.414 . S
C1313 C1314 1.374 . S
C1314 H1288 0.950 . S
C1314 C1310 1.385 . S
C1314 C1313 1.374 . S
C1315 C1312 1.499 . S
C1315 C1316 1.373 . S
C1315 C1317 1.389 . S
C1316 H1289 0.950 . S
C1316 C1302 1.377 1_565 S
C1316 C1315 1.373 . S
C1317 C1301 1.377 1_565 S
C1317 C1315 1.389 . S
C1317 C1318 1.524 . S
C1318 C1317 1.524 . S
C1318 C1319 1.397 . S
C1318 C1323 1.363 . S
C1319 H1290 0.950 . S
C1319 C1318 1.397 . S
C1319 C1320 1.334 . S
C1320 H1291 0.950 . S
C1320 C1319 1.334 . S
C1320 C1321 1.287 . S
C1321 C1320 1.287 . S
C1321 C1322 1.524 . S
C1321 H1324 0.999 . S
C1322 H1292 0.950 . S
C1322 C1321 1.524 . S
C1322 C1323 1.415 . S
C1323 H1293 0.950 . S
C1323 C1318 1.363 . S
C1323 C1322 1.415 . S
H1324 C1321 0.999 . S
H1325 C1306 0.913 . S
H1326 C1344 0.951 . S
H1327 C1346 0.951 . S
H1328 C1348 0.950 . S
H1329 C1349 0.950 . S
H1330 C1351 0.950 . S
H1331 C1354 0.950 1_565 S
H1332 C1355 0.950 . S
H1333 C1357 0.950 . S
H1334 C1358 0.950 . S
H1335 C1359 0.951 . S
H1336 C1361 0.951 . S
H1337 C1363 0.950 . S
H1338 C1364 0.950 . S
H1339 C1366 0.950 . S
H1340 C1369 0.950 1_545 S
H1341 C1370 0.950 . S
H1342 C1372 0.950 . S
H1343 C1373 0.950 . S
C1344 H1326 0.951 . S
C1344 C1345 1.366 . S
C1344 C1346 1.388 . S
C1345 C1344 1.366 . S
C1345 C1349 1.385 . S
C1346 H1327 0.951 . S
C1346 C1344 1.388 . S
C1346 C1347 1.366 . S
C1347 C1346 1.366 . S
C1347 C1348 1.414 . S
C1347 C1350 1.499 . S
C1348 H1328 0.950 . S
C1348 C1347 1.414 . S
C1348 C1349 1.374 . S
C1349 H1329 0.950 . S
C1349 C1345 1.385 . S
C1349 C1348 1.374 . S
C1350 C1347 1.499 . S
C1350 C1351 1.373 1_655 S
C1350 C1352 1.389 1_565 S
C1351 H1330 0.950 . S
C1351 C1350 1.373 1_455 S
C1351 C1367 1.377 . S
C1352 C1350 1.389 1_545 S
C1352 C1353 1.524 . S
C1352 C1366 1.377 . S
C1353 C1352 1.524 . S
C1353 C1354 1.397 . S
C1353 C1358 1.363 . S
C1354 H1331 0.950 1_545 S
C1354 C1353 1.397 . S
C1354 C1355 1.334 . S
C1355 H1332 0.950 . S
C1355 C1354 1.334 . S
C1355 C1356 1.287 . S
C1356 C1355 1.287 . S
C1356 C1357 1.524 . S
C1356 H1375 0.913 . S
C1357 H1333 0.950 . S
C1357 C1356 1.524 . S
C1357 C1358 1.415 . S
C1358 H1334 0.950 . S
C1358 C1353 1.363 . S
C1358 C1357 1.415 . S
C1359 H1335 0.951 . S
C1359 C1360 1.366 . S
C1359 C1361 1.388 . S
C1360 C1359 1.366 . S
C1360 C1364 1.385 . S
C1361 H1336 0.951 . S
C1361 C1359 1.388 . S
C1361 C1362 1.366 . S
C1362 C1361 1.366 . S
C1362 C1363 1.414 . S
C1362 C1365 1.499 . S
C1363 H1337 0.950 . S
C1363 C1362 1.414 . S
C1363 C1364 1.374 . S
C1364 H1338 0.950 . S
C1364 C1360 1.385 . S
C1364 C1363 1.374 . S
C1365 C1362 1.499 . S
C1365 C1366 1.373 1_455 S
C1365 C1367 1.389 1_545 S
C1366 H1339 0.950 . S
C1366 C1352 1.377 . S
C1366 C1365 1.373 1_655 S
C1367 C1351 1.377 . S
C1367 C1365 1.389 1_565 S
C1367 C1368 1.524 . S
C1368 C1367 1.524 . S
C1368 C1369 1.397 . S
C1368 C1373 1.363 . S
C1369 H1340 0.950 1_565 S
C1369 C1368 1.397 . S
C1369 C1370 1.334 . S
C1370 H1341 0.950 . S
C1370 C1369 1.334 . S
C1370 C1371 1.287 . S
C1371 C1370 1.287 . S
C1371 C1372 1.524 . S
C1371 H1374 0.999 . S
C1372 H1342 0.950 . S
C1372 C1371 1.524 . S
C1372 C1373 1.415 . S
C1373 H1343 0.950 . S
C1373 C1368 1.363 . S
C1373 C1372 1.415 . S
H1374 C1371 0.999 . S
H1375 C1356 0.913 . S
C195 C170 1.392 . S
C210 C5 1.392 . S
C245 C137 1.392 . S
C260 C16 1.392 . S
C295 C27 1.393 . S
C310 C148 1.392 . S
C345 C38 1.394 . S
C360 C159 1.392 . S
C395 C49 1.392 . S
C410 C104 1.393 . S
C445 C60 1.393 . S
C460 C115 1.392 . S
C495 C71 1.392 . S
C510 C126 1.393 . S
C545 C82 1.393 . S
C560 C93 1.393 . S
C595 C7 1.530 . S
C610 C51 1.530 . S
C645 C62 1.530 . S
C660 C18 1.530 . S
C695 C73 1.531 . S
C710 C29 1.530 . S
C745 C40 1.530 . S
C760 C84 1.530 . S
C795 C95 1.530 . S
C810 C139 1.530 . S
C845 C106 1.530 . S
C860 C150 1.530 . S
C895 C117 1.530 . S
C910 C161 1.530 . S
C945 C128 1.530 . S
C960 C172 1.530 . S
C995 C8 1.590 . S
C1010 C118 1.591 . S
C1045 C129 1.591 . S
C1060 C19 1.590 . S
C1095 C96 1.590 . S
C1110 C30 1.591 . S
C1145 C107 1.591 . S
C1160 C41 1.590 . S
C1195 C162 1.590 . S
C1210 C52 1.591 . S
C1245 C63 1.591 . S
C1260 C173 1.591 . S
C1295 C74 1.591 . S
C1310 C140 1.590 . S
C1345 C85 1.591 . S
C1360 C151 1.591 . S
