# Generated by pormake.
# Topology wiv, (6)-cn, num edge types: 1
# Building blocks:
#     Node 0, Type 0, BuildingBlock: FUNLAD_clean_sbu_0, # of connection points: 6
#     Node 1, Type 0, BuildingBlock: FUNLAD_clean_sbu_0, # of connection points: 6
#     Node 2, Type 0, BuildingBlock: FUNLAD_clean_sbu_0, # of connection points: 6
#     Node 3, Type 0, BuildingBlock: FUNLAD_clean_sbu_0, # of connection points: 6
#     Node 4, Type 0, BuildingBlock: FUNLAD_clean_sbu_0, # of connection points: 6
#     Node 5, Type 0, BuildingBlock: FUNLAD_clean_sbu_0, # of connection points: 6
#     Node 6, Type 0, BuildingBlock: FUNLAD_clean_sbu_0, # of connection points: 6
#     Node 7, Type 0, BuildingBlock: FUNLAD_clean_sbu_0, # of connection points: 6
#     Node 8, Type 0, BuildingBlock: FUNLAD_clean_sbu_0, # of connection points: 6
#     Node 9, Type 0, BuildingBlock: FUNLAD_clean_sbu_0, # of connection points: 6
#     Node 10, Type 0, BuildingBlock: FUNLAD_clean_sbu_0, # of connection points: 6
#     Node 11, Type 0, BuildingBlock: FUNLAD_clean_sbu_0, # of connection points: 6
#     Node 12, Type 0, BuildingBlock: FUNLAD_clean_sbu_0, # of connection points: 6
#     Node 13, Type 0, BuildingBlock: FUNLAD_clean_sbu_0, # of connection points: 6
#     Node 14, Type 0, BuildingBlock: FUNLAD_clean_sbu_0, # of connection points: 6
#     Node 15, Type 0, BuildingBlock: FUNLAD_clean_sbu_0, # of connection points: 6
#     Edge 16, Type (0, 0), None
#     Edge 17, Type (0, 0), None
#     Edge 18, Type (0, 0), None
#     Edge 19, Type (0, 0), None
#     Edge 20, Type (0, 0), None
#     Edge 21, Type (0, 0), None
#     Edge 22, Type (0, 0), None
#     Edge 23, Type (0, 0), None
#     Edge 24, Type (0, 0), None
#     Edge 25, Type (0, 0), None
#     Edge 26, Type (0, 0), None
#     Edge 27, Type (0, 0), None
#     Edge 28, Type (0, 0), None
#     Edge 29, Type (0, 0), None
#     Edge 30, Type (0, 0), None
#     Edge 31, Type (0, 0), None
#     Edge 32, Type (0, 0), None
#     Edge 33, Type (0, 0), None
#     Edge 34, Type (0, 0), None
#     Edge 35, Type (0, 0), None
#     Edge 36, Type (0, 0), None
#     Edge 37, Type (0, 0), None
#     Edge 38, Type (0, 0), None
#     Edge 39, Type (0, 0), None
#     Edge 40, Type (0, 0), None
#     Edge 41, Type (0, 0), None
#     Edge 42, Type (0, 0), None
#     Edge 43, Type (0, 0), None
#     Edge 44, Type (0, 0), None
#     Edge 45, Type (0, 0), None
#     Edge 46, Type (0, 0), None
#     Edge 47, Type (0, 0), None
#     Edge 48, Type (0, 0), None
#     Edge 49, Type (0, 0), None
#     Edge 50, Type (0, 0), None
#     Edge 51, Type (0, 0), None
#     Edge 52, Type (0, 0), None
#     Edge 53, Type (0, 0), None
#     Edge 54, Type (0, 0), None
#     Edge 55, Type (0, 0), None
#     Edge 56, Type (0, 0), None
#     Edge 57, Type (0, 0), None
#     Edge 58, Type (0, 0), None
#     Edge 59, Type (0, 0), None
#     Edge 60, Type (0, 0), None
#     Edge 61, Type (0, 0), None
#     Edge 62, Type (0, 0), None
#     Edge 63, Type (0, 0), None
# Relax obj value: 0.205
# Max RMSD: 0.176
# Mean RMSD: 0.176
data_MOF--net-wiv--node1-FUNLAD_clean_sbu_0--edge1-none
_symmetry_space_group_name_H-M    P1
_symmetry_Int_Tables_number       1
_symmetry_cell_setting            triclinic
loop_
_symmetry_equiv_pos_as_xyz
'x, y, z'
_cell_length_a     37.889689
_cell_length_b     37.889659
_cell_length_c     6.7885392
_cell_angle_alpha  90.017687
_cell_angle_beta   90.0173
_cell_angle_gamma 89.999659
loop_
_atom_site_label
_atom_site_type_symbol
_atom_site_fract_x
_atom_site_fract_y
_atom_site_fract_z
_atom_type_partial_charge
C0 C 0.37106 0.10968 0.58474 0.0
N1 N 0.34626 0.19036 -0.01669 0.0
C2 C 0.35928 0.21322 0.8467 0.0
C3 C 0.35509 0.24956 0.87152 0.0
C4 C 0.33858 0.26232 0.04209 0.0
C5 C 0.3245 0.23835 0.17731 0.0
C6 C 0.32766 0.20227 0.14188 0.0
Zn7 Zn 0.36125 0.13833 -0.02358 0.0
C8 C 0.29825 0.09281 0.87215 0.0
N9 N 0.39116 1.02887 0.01904 0.0
C10 C 0.42619 1.0207 0.00626 0.0
C11 C 0.36863 1.00714 0.11753 0.0
C12 C 0.38117 0.97708 0.21501 0.0
C13 C 0.41743 0.96896 0.21361 0.0
C14 C 0.43991 0.99081 0.10276 0.0
Zn15 Zn 0.37416 0.08091 -0.01724 0.0
O16 O 0.3639 0.13808 0.67467 0.0
C17 C 0.43599 0.13233 0.06691 0.0
O18 O 0.38199 0.08244 0.67662 0.0
H19 H 0.3412 1.01449 0.13332 0.0
H20 H 0.37447 0.2035 0.72338 0.0
H21 H 0.44404 0.03842 0.93112 0.0
O22 O 0.41335 0.15477 0.01093 0.0
O23 O 0.42781 0.09962 0.06146 0.0
H24 H 0.31679 0.18393 0.24739 0.0
O25 O 0.36609 0.07945 0.28513 0.0
O26 O 0.35975 0.13689 0.28345 0.0
O27 O 0.31876 0.06618 0.89503 0.0
O28 O 0.3086 0.12295 0.93216 0.0
C29 C 0.36515 0.10848 0.37566 0.0
H30 H 0.36653 0.26751 0.76499 0.0
H31 H 0.31213 0.24749 0.31163 0.0
H32 H 0.36257 0.96084 0.29532 0.0
H33 H 0.46787 0.98518 0.09279 0.0
C34 C 0.10852 0.69754 0.50221 0.0
N35 N 1.02892 0.67151 0.85872 0.0
C36 C 1.00721 0.69404 0.76012 0.0
C37 C 0.97714 0.68152 0.66264 0.0
C38 C 0.96899 0.64526 0.66413 0.0
C39 C 0.99083 0.62278 0.77503 0.0
C40 C 1.02074 0.63648 0.87153 0.0
Zn41 Zn 0.08095 0.68852 0.89501 0.0
C42 C 0.13238 0.62671 0.81095 0.0
N43 N 0.19038 0.71646 0.89476 0.0
C44 C 0.20225 0.73509 0.73628 0.0
C45 C 0.21328 0.70341 0.0312 0.0
C46 C 0.24961 0.70762 0.00626 0.0
C47 C 0.26233 0.72416 0.83575 0.0
C48 C 0.23833 0.73827 0.70072 0.0
Zn49 Zn 0.13836 0.70144 0.90156 0.0
O50 O 0.07948 0.69659 0.59262 0.0
C51 C 0.09282 0.76443 0.00573 0.0
O52 O 0.13691 0.70295 0.59454 0.0
H53 H 0.20359 0.6882 0.15445 0.0
H54 H 1.01457 0.72146 0.74427 0.0
H55 H 0.18389 0.74599 0.63091 0.0
O56 O 0.0662 0.74391 -0.01727 0.0
O57 O 0.12296 0.75409 -0.05416 0.0
H58 H 0.03845 0.61863 -0.0533 0.0
O59 O 0.13812 0.69879 0.20332 0.0
O60 O 0.08249 0.6807 0.20114 0.0
O61 O 0.15482 0.64935 0.86702 0.0
O62 O 0.09967 0.63488 0.81634 0.0
C63 C 0.10973 0.69163 0.29313 0.0
H64 H 0.96089 0.70012 0.58227 0.0
H65 H 0.98519 0.59481 0.78505 0.0
H66 H 0.26759 0.69615 0.11264 0.0
H67 H 0.24743 0.75066 0.56644 0.0
C68 C 0.69165 0.953 0.58466 0.0
N69 N 0.71647 0.87234 -0.01687 0.0
C70 C 0.70341 0.84945 0.84666 0.0
C71 C 0.7076 0.81312 0.87162 0.0
C72 C 0.72414 0.80039 0.04218 0.0
C73 C 0.73826 0.82439 0.17724 0.0
C74 C 0.7351 0.86047 0.14166 0.0
Zn75 Zn 0.70146 0.92437 -0.02375 0.0
C76 C 0.76445 0.96989 0.87207 0.0
N77 N 0.67155 0.03381 0.01913 0.0
C78 C 0.63652 0.04199 0.00631 0.0
C79 C 0.69409 0.05555 0.11765 0.0
C80 C 0.68157 0.08562 0.21512 0.0
C81 C 0.64531 0.09375 0.21367 0.0
C82 C 0.62282 0.07189 0.10279 0.0
Zn83 Zn 0.68855 0.98178 -0.01721 0.0
O84 O 0.69879 0.9246 0.67449 0.0
C85 C 0.62672 0.93035 0.06683 0.0
O86 O 0.68071 0.98024 0.67662 0.0
H87 H 0.72152 0.0482 0.13348 0.0
H88 H 0.68819 0.85914 0.72337 0.0
H89 H 0.61867 1.02426 0.93114 0.0
O90 O 0.64936 0.90791 0.01074 0.0
O91 O 0.63491 0.96306 0.06142 0.0
H92 H 0.746 0.87883 0.24706 0.0
O93 O 0.69663 0.98325 0.2852 0.0
O94 O 0.70298 0.92581 0.28329 0.0
O95 O 0.74394 0.99652 0.89511 0.0
O96 O 0.75412 0.93975 0.932 0.0
C97 C 0.69757 0.95421 0.37561 0.0
H98 H 0.69613 0.79514 0.76521 0.0
H99 H 0.75065 0.81529 0.31156 0.0
H100 H 0.70018 0.10187 0.29545 0.0
H101 H 0.59485 0.07752 0.09279 0.0
C102 C 0.95423 0.36516 0.50219 0.0
N103 N 0.03385 0.39118 0.85889 0.0
C104 C 0.05556 0.36864 0.7603 0.0
C105 C 0.08561 0.38115 0.66276 0.0
C106 C 0.09376 0.41741 0.66417 0.0
C107 C 0.07192 0.4399 0.77509 0.0
C108 C 0.04203 0.42621 0.87164 0.0
Zn109 Zn 0.9818 0.37418 0.89509 0.0
C110 C 0.93038 0.436 0.81097 0.0
N111 N 0.87235 0.34628 0.89449 0.0
C112 C 0.86045 0.32769 0.73583 0.0
C113 C 0.84948 0.3593 0.03113 0.0
C114 C 0.81315 0.3551 0.00627 0.0
C115 C 0.80039 0.3386 0.83562 0.0
C116 C 0.82436 0.32453 0.70035 0.0
Zn117 Zn 0.92439 0.36127 0.90144 0.0
O118 O 0.98327 0.3661 0.5927 0.0
C119 C 0.9699 0.29827 0.00571 0.0
O120 O 0.92583 0.35976 0.59439 0.0
H121 H 0.8592 0.37448 0.15453 0.0
H122 H 0.04819 0.34121 0.74449 0.0
H123 H 0.87879 0.31681 0.63028 0.0
O124 O 0.99653 0.31878 -0.01717 0.0
O125 O 0.93976 0.30861 -0.05435 0.0
H126 H 1.02432 0.44408 -0.0532 0.0
O127 O 0.92463 0.36393 0.20319 0.0
O128 O 0.98027 0.38202 0.20127 0.0
O129 O 0.90794 0.41337 0.86699 0.0
O130 O 0.96309 0.42782 0.81642 0.0
C131 C 0.95303 0.37108 0.29313 0.0
H132 H 0.10185 0.36253 0.5824 0.0
H133 H 0.07756 0.46787 0.78505 0.0
H134 H 0.79519 0.36654 0.11284 0.0
H135 H 0.81524 0.31217 0.56596 0.0
C136 C 0.37107 0.45303 0.54307 0.0
N137 N 0.34627 0.37235 0.14442 0.0
C138 C 0.35932 0.34948 0.28101 0.0
C139 C 0.35511 0.31315 0.25616 0.0
C140 C 0.33859 0.30039 0.08559 0.0
C141 C 0.3245 0.32436 -0.04963 0.0
C142 C 0.32767 0.36045 -0.01417 0.0
Zn143 Zn 0.36127 0.42439 0.15138 0.0
C144 C 0.29826 0.46989 0.25569 0.0
N145 N 0.39115 0.53385 0.10876 0.0
C146 C 0.42619 0.54203 0.12152 0.0
C147 C 0.36861 0.55558 0.01027 0.0
C148 C 0.38113 0.58563 0.91275 0.0
C149 C 0.4174 0.59376 0.91412 0.0
C150 C 0.43989 0.57192 0.02499 0.0
Zn151 Zn 0.37417 0.4818 0.14505 0.0
O152 O 0.36393 0.42463 0.45313 0.0
C153 C 0.436 0.43039 0.06091 0.0
O154 O 0.38201 0.48027 0.45122 0.0
H155 H 0.34118 0.54822 -0.00551 0.0
H156 H 0.37451 0.3592 0.40434 0.0
H157 H 0.44405 0.52431 0.19666 0.0
O158 O 0.41337 0.40795 0.11691 0.0
O159 O 0.42781 0.4631 0.06637 0.0
H160 H 0.31678 0.37879 0.88033 0.0
O161 O 0.36609 0.48327 0.84266 0.0
O162 O 0.35975 0.42583 0.84433 0.0
O163 O 0.31877 0.49652 0.23279 0.0
O164 O 0.30861 0.43975 0.19562 0.0
C165 C 0.36515 0.45423 0.75214 0.0
H166 H 0.36657 0.29519 0.36268 0.0
H167 H 0.31212 0.31524 0.81604 0.0
H168 H 0.36252 0.60188 0.83245 0.0
H169 H 0.46785 0.57754 0.03493 0.0
C170 C 0.4542 0.69757 0.12555 0.0
N171 N 0.5338 0.67153 0.76903 0.0
C172 C 0.55552 0.69407 0.86766 0.0
C173 C 0.58558 0.68156 -0.03482 0.0
C174 C 0.59373 0.6453 -0.03628 0.0
C175 C 0.57189 0.62281 0.85278 0.0
C176 C 0.54199 0.6365 0.75624 0.0
Zn177 Zn 0.48177 0.68854 0.73273 0.0
C178 C 0.43033 0.62673 0.8168 0.0
N179 N 0.37234 0.71648 0.73304 0.0
C180 C 0.36046 0.7351 0.8916 0.0
C181 C 0.34944 0.70342 0.59655 0.0
C182 C 0.31311 0.70762 0.6215 0.0
C183 C 0.30039 0.72416 0.79209 0.0
C184 C 0.32439 0.73827 0.92718 0.0
Zn185 Zn 0.42436 0.70146 0.7262 0.0
O186 O 0.48324 0.69662 0.03515 0.0
C187 C 0.4699 0.76445 0.62202 0.0
O188 O 0.42581 0.70298 0.03324 0.0
H189 H 0.35913 0.68821 0.47323 0.0
H190 H 0.54815 0.7215 0.88349 0.0
H191 H 0.37882 0.746 -0.00298 0.0
O192 O 0.49652 0.74393 0.64504 0.0
O193 O 0.43975 0.75411 0.68194 0.0
H194 H 0.52427 0.61864 0.68106 0.0
O195 O 0.42459 0.69879 0.42444 0.0
O196 O 0.48023 0.6807 0.42657 0.0
O197 O 0.4079 0.64936 0.7607 0.0
O198 O 0.46305 0.6349 0.81137 0.0
C199 C 0.45299 0.69164 0.33461 0.0
H200 H 0.60182 0.70017 0.04557 0.0
H201 H 0.57753 0.59484 0.84279 0.0
H202 H 0.29513 0.69616 0.51507 0.0
H203 H 0.31528 0.75065 0.06151 0.0
C204 C 0.69163 0.60973 0.54322 0.0
N205 N 0.71645 0.69039 0.14483 0.0
C206 C 0.7034 0.71328 0.28128 0.0
C207 C 0.7076 0.74961 0.25635 0.0
C208 C 0.72414 0.76233 0.08583 0.0
C209 C 0.73825 0.73833 -0.0492 0.0
C210 C 0.73508 0.70226 -0.01364 0.0
Zn211 Zn 0.70144 0.63836 0.15166 0.0
C212 C 0.76444 0.59283 0.25582 0.0
N213 N 0.67153 0.52892 0.10873 0.0
C214 C 0.6365 0.52074 0.12152 0.0
C215 C 0.69406 0.50718 0.01023 0.0
C216 C 0.68153 0.47711 0.91276 0.0
C217 C 0.64527 0.46898 0.91417 0.0
C218 C 0.62279 0.49084 0.02503 0.0
Zn219 Zn 0.68853 0.58095 0.14509 0.0
O220 O 0.69878 0.63813 0.45341 0.0
C221 C 0.62671 0.63237 0.06101 0.0
O222 O 0.6807 0.58248 0.45123 0.0
H223 H 0.72149 0.51454 -0.00556 0.0
H224 H 0.68819 0.70359 0.40454 0.0
H225 H 0.61865 0.53847 0.19668 0.0
O226 O 0.64934 0.65482 0.11711 0.0
O227 O 0.63489 0.59966 0.06641 0.0
H228 H 0.74598 0.6839 0.88098 0.0
O229 O 0.6966 0.57948 0.8427 0.0
O230 O 0.70295 0.63692 0.84463 0.0
O231 O 0.74392 0.56621 0.23281 0.0
O232 O 0.75409 0.62298 0.19595 0.0
C233 C 0.69755 0.60852 0.7523 0.0
H234 H 0.69614 0.76759 0.36274 0.0
H235 H 0.75064 0.74744 0.81652 0.0
H236 H 0.70014 0.46086 0.83244 0.0
H237 H 0.59483 0.48521 0.035 0.0
C238 C 0.60848 0.36517 0.12562 0.0
N239 N 0.52887 0.3912 0.76893 0.0
C240 C 0.50716 0.36867 0.86752 0.0
C241 C 0.47711 0.38119 -0.03496 0.0
C242 C 0.46896 0.41745 -0.03641 0.0
C243 C 0.4908 0.43993 0.85271 0.0
C244 C 0.52069 0.42623 0.75617 0.0
Zn245 Zn 0.58091 0.37419 0.73272 0.0
C246 C 0.63233 0.43601 0.81692 0.0
N247 N 0.69036 0.34627 0.73327 0.0
C248 C 0.70226 0.32769 0.89186 0.0
C249 C 0.71323 0.3593 0.59667 0.0
C250 C 0.74956 0.3551 0.62152 0.0
C251 C 0.76232 0.3386 0.79211 0.0
C252 C 0.73835 0.32452 0.92733 0.0
Zn253 Zn 0.63832 0.36127 0.72638 0.0
O254 O 0.57945 0.36612 0.0351 0.0
C255 C 0.5928 0.29828 0.62207 0.0
O256 O 0.63688 0.35977 0.0334 0.0
H257 H 0.70351 0.37448 0.47332 0.0
H258 H 0.51453 0.34124 0.88334 0.0
H259 H 0.68392 0.31681 -0.00263 0.0
O260 O 0.56618 0.31879 0.64494 0.0
O261 O 0.62294 0.30862 0.6821 0.0
H262 H 0.5384 0.44409 0.68102 0.0
O263 O 0.63808 0.36392 0.42463 0.0
O264 O 0.58244 0.38202 0.42659 0.0
O265 O 0.65477 0.41337 0.76091 0.0
O266 O 0.59962 0.42783 0.81144 0.0
C267 C 0.60968 0.37108 0.3347 0.0
H268 H 0.46087 0.36258 0.04541 0.0
H269 H 0.48516 0.4679 0.84274 0.0
H270 H 0.76751 0.36654 0.51499 0.0
H271 H 0.74747 0.31216 0.06167 0.0
C272 C 0.87107 0.60969 0.08472 0.0
N273 N 0.84628 0.69036 0.4833 0.0
C274 C 0.85932 0.71323 0.34674 0.0
C275 C 0.85512 0.74957 0.37157 0.0
C276 C 0.8386 0.76233 0.5421 0.0
C277 C 0.82451 0.73836 0.67728 0.0
C278 C 0.82768 0.70227 0.64184 0.0
Zn279 Zn 0.86127 0.63833 0.4764 0.0
C280 C 0.79827 0.59282 0.37208 0.0
N281 N 0.89117 0.52887 0.51903 0.0
C282 C 0.9262 0.5207 0.50626 0.0
C283 C 0.86864 0.50715 0.61753 0.0
C284 C 0.88117 0.47709 0.71504 0.0
C285 C 0.91743 0.46896 0.71364 0.0
C286 C 0.93991 0.49081 0.60279 0.0
Zn287 Zn 0.87418 0.58091 0.48274 0.0
O288 O 0.86392 0.63808 0.17465 0.0
C289 C 0.93601 0.63233 0.56691 0.0
O290 O 0.88201 0.58244 0.1766 0.0
H291 H 0.84121 0.5145 0.63332 0.0
H292 H 0.87452 0.70351 0.22345 0.0
H293 H 0.94405 0.53841 0.43111 0.0
O294 O 0.91337 0.65477 0.51092 0.0
O295 O 0.92782 0.59962 0.56144 0.0
H296 H 0.81679 0.68393 0.74732 0.0
O297 O 0.86611 0.57946 0.78511 0.0
O298 O 0.85976 0.63689 0.78343 0.0
O299 O 0.81878 0.56619 0.39499 0.0
O300 O 0.80862 0.62296 0.43212 0.0
C301 C 0.86516 0.60849 0.87564 0.0
H302 H 0.86658 0.76752 0.26508 0.0
H303 H 0.81214 0.74749 0.81158 0.0
H304 H 0.86257 0.46085 0.79537 0.0
H305 H 0.96788 0.48518 0.59284 0.0
C306 C 0.6085 0.19756 0.00221 0.0
N307 N 0.52891 0.17152 0.35871 0.0
C308 C 0.50719 0.19405 0.26011 0.0
C309 C 0.47712 0.18153 0.16264 0.0
C310 C 0.46897 0.14527 0.16416 0.0
C311 C 0.49082 0.12279 0.27504 0.0
C312 C 0.52072 0.13649 0.37153 0.0
Zn313 Zn 0.58093 0.18854 0.39501 0.0
C314 C 0.63237 0.12672 0.31092 0.0
N315 N 0.69037 0.21648 0.39476 0.0
C316 C 0.70224 0.2351 0.23627 0.0
C317 C 0.71327 0.20343 0.53121 0.0
C318 C 0.74959 0.20763 0.50627 0.0
C319 C 0.76232 0.22417 0.33575 0.0
C320 C 0.73832 0.23828 0.20071 0.0
Zn321 Zn 0.63835 0.20146 0.40156 0.0
O322 O 0.57947 0.1966 0.09261 0.0
C323 C 0.59281 0.26444 0.50577 0.0
O324 O 0.6369 0.20297 0.09454 0.0
H325 H 0.70357 0.18821 0.65447 0.0
H326 H 0.51455 0.22147 0.24426 0.0
H327 H 0.68388 0.246 0.13089 0.0
O328 O 0.56619 0.24393 0.48274 0.0
O329 O 0.62295 0.25411 0.44584 0.0
H330 H 0.53844 0.11864 0.44669 0.0
O331 O 0.63811 0.1988 0.70332 0.0
O332 O 0.58247 0.18071 0.70114 0.0
O333 O 0.65481 0.14936 0.36702 0.0
O334 O 0.59966 0.1349 0.31633 0.0
C335 C 0.60971 0.19165 0.79313 0.0
H336 H 0.46087 0.20013 0.08227 0.0
H337 H 0.48518 0.09482 0.28505 0.0
H338 H 0.76757 0.19617 0.61266 0.0
H339 H 0.74742 0.25066 0.06643 0.0
C340 C 0.19164 0.45298 0.08466 0.0
N341 N 0.21646 0.37232 0.48314 0.0
C342 C 0.2034 0.34942 0.34664 0.0
C343 C 0.20759 0.31309 0.37162 0.0
C344 C 0.22411 0.30037 0.54222 0.0
C345 C 0.23823 0.32436 0.67731 0.0
C346 C 0.23507 0.36044 0.64171 0.0
Zn347 Zn 0.20145 0.42435 0.47624 0.0
C348 C 0.26444 0.46987 0.37203 0.0
N349 N 0.17156 0.5338 0.51913 0.0
C350 C 0.13653 0.54197 0.50632 0.0
C351 C 0.1941 0.55553 0.61764 0.0
C352 C 0.18158 0.5856 0.7151 0.0
C353 C 0.14532 0.59373 0.71365 0.0
C354 C 0.12283 0.57188 0.6028 0.0
Zn355 Zn 0.18855 0.48176 0.4828 0.0
O356 O 0.19879 0.42458 0.17448 0.0
C357 C 0.12672 0.43034 0.56686 0.0
O358 O 0.18071 0.48022 0.17663 0.0
H359 H 0.22152 0.54817 0.63346 0.0
H360 H 0.1882 0.35912 0.22332 0.0
H361 H 0.11867 0.52425 0.43117 0.0
O362 O 0.14935 0.40789 0.51076 0.0
O363 O 0.1349 0.46305 0.56143 0.0
H364 H 0.24598 0.3788 0.74713 0.0
O365 O 0.19663 0.48323 0.78521 0.0
O366 O 0.20298 0.4258 0.78329 0.0
O367 O 0.24393 0.4965 0.39511 0.0
O368 O 0.25411 0.43973 0.43196 0.0
C369 C 0.19757 0.45419 0.87561 0.0
H370 H 0.19612 0.29512 0.26519 0.0
H371 H 0.25061 0.31526 0.81166 0.0
H372 H 0.20019 0.60185 0.79543 0.0
H373 H 0.09486 0.57751 0.59282 0.0
C374 C 0.45424 0.86515 0.00211 0.0
N375 N 0.53385 0.89118 0.35882 0.0
C376 C 0.55556 0.86864 0.26022 0.0
C377 C 0.58562 0.88116 0.1627 0.0
C378 C 0.59376 0.91742 0.16416 0.0
C379 C 0.57192 0.93991 0.27506 0.0
C380 C 0.54203 0.92621 0.37159 0.0
Zn381 Zn 0.48181 0.87417 0.39502 0.0
C382 C 0.43038 0.93599 0.31088 0.0
N383 N 0.37236 0.84626 0.39441 0.0
C384 C 0.36045 0.82768 0.23574 0.0
C385 C 0.34949 0.85928 0.53107 0.0
C386 C 0.31315 0.85509 0.50621 0.0
C387 C 0.30039 0.83859 0.33555 0.0
C388 C 0.32437 0.82452 0.20026 0.0
Zn389 Zn 0.42439 0.86126 0.40136 0.0
O390 O 0.48327 0.86609 0.09263 0.0
C391 C 0.46991 0.79827 0.50568 0.0
O392 O 0.42584 0.85974 0.09432 0.0
H393 H 0.3592 0.87446 0.65447 0.0
H394 H 0.5482 0.84121 0.24439 0.0
H395 H 0.37879 0.81681 0.13018 0.0
O396 O 0.49653 0.81878 0.48277 0.0
O397 O 0.43977 0.8086 0.44559 0.0
H398 H 0.52432 0.94408 0.44675 0.0
O399 O 0.42464 0.86392 0.70311 0.0
O400 O 0.48027 0.88201 0.7012 0.0
O401 O 0.40794 0.91336 0.3669 0.0
O402 O 0.46309 0.92782 0.31636 0.0
C403 C 0.45303 0.87108 0.79305 0.0
H404 H 0.60185 0.86254 0.08233 0.0
H405 H 0.57756 0.96787 0.28503 0.0
H406 H 0.2952 0.86652 0.61279 0.0
H407 H 0.31524 0.81216 0.06587 0.0
C408 C 0.87108 0.95304 0.0431 0.0
N409 N 0.84627 0.87236 0.64444 0.0
C410 C 0.8593 0.84949 0.78109 0.0
C411 C 0.8551 0.81316 0.75624 0.0
C412 C 0.8386 0.8004 0.5856 0.0
C413 C 0.82452 0.82437 0.45033 0.0
C414 C 0.82769 0.86045 0.4858 0.0
Zn415 Zn 0.86127 0.92439 0.65141 0.0
C416 C 0.79827 0.9699 0.75573 0.0
N417 N 0.89116 0.03386 0.60878 0.0
C418 C 0.92619 0.04203 0.62148 0.0
C419 C 0.86861 0.05558 0.51034 0.0
C420 C 0.88113 0.08564 0.41282 0.0
C421 C 0.91739 0.09377 0.41413 0.0
C422 C 0.93989 0.07192 0.52494 0.0
Zn423 Zn 0.87417 0.98181 0.64506 0.0
O424 O 0.86393 0.92464 -0.04684 0.0
C425 C 0.936 0.93039 0.56092 0.0
O426 O 0.88202 0.98028 -0.04876 0.0
H427 H 0.84118 0.04823 0.49461 0.0
H428 H 0.87448 0.85921 0.90448 0.0
H429 H 0.94406 1.02431 0.69658 0.0
O430 O 0.91337 0.90795 0.61695 0.0
O431 O 0.92782 0.9631 0.56637 0.0
H432 H 0.81681 0.87879 0.38025 0.0
O433 O 0.86609 0.98328 0.34268 0.0
O434 O 0.85975 0.92584 0.34436 0.0
O435 O 0.81878 0.99653 0.73281 0.0
O436 O 0.80861 0.93976 0.69565 0.0
C437 C 0.86515 0.95424 0.25216 0.0
H438 H 0.86654 0.7952 0.86282 0.0
H439 H 0.81216 0.81524 0.31595 0.0
H440 H 0.86251 0.10189 0.33256 0.0
H441 H 0.96786 0.07755 0.53484 0.0
C442 C 0.95419 0.19757 0.62556 0.0
N443 N 0.03379 0.17153 0.26904 0.0
C444 C 0.0555 0.19406 0.36772 0.0
C445 C 0.08557 0.18154 0.46528 0.0
C446 C 0.09371 0.14528 0.46378 0.0
C447 C 0.07187 0.1228 0.3528 0.0
C448 C 0.04197 0.1365 0.25623 0.0
Zn449 Zn 0.98176 0.18855 0.23274 0.0
C450 C 0.93032 0.12673 0.3168 0.0
N451 N 0.87232 0.21648 0.23305 0.0
C452 C 0.86045 0.23511 0.39161 0.0
C453 C 0.84943 0.20343 0.09655 0.0
C454 C 0.8131 0.20763 0.1215 0.0
C455 C 0.80038 0.22417 0.29209 0.0
C456 C 0.82438 0.23828 0.42718 0.0
Zn457 Zn 0.92435 0.20146 0.22621 0.0
O458 O 0.98323 0.19662 0.53516 0.0
C459 C 0.96989 0.26445 0.12202 0.0
O460 O 0.9258 0.20299 0.53325 0.0
H461 H 0.85912 0.18822 -0.02676 0.0
H462 H 0.04814 0.22149 0.38357 0.0
H463 H 0.87881 0.246 0.49703 0.0
O464 O 0.99651 0.24393 0.14507 0.0
O465 O 0.93974 0.25412 0.18195 0.0
H466 H 1.02426 0.11864 0.181 0.0
O467 O 0.92458 0.1988 0.92445 0.0
O468 O 0.98022 0.18071 0.92657 0.0
O469 O 0.90789 0.14937 0.26072 0.0
O470 O 0.96304 0.13491 0.31136 0.0
C471 C 0.95298 0.19164 0.83462 0.0
H472 H 0.1018 0.20015 0.54571 0.0
H473 H 0.0775 0.09483 0.34278 0.0
H474 H 0.79512 0.19617 0.01507 0.0
H475 H 0.81527 0.25066 0.56152 0.0
C476 C 0.19161 0.10971 0.04331 0.0
N477 N 0.21641 0.19036 0.64493 0.0
C478 C 0.20334 0.21326 0.7813 0.0
C479 C 0.20754 0.24959 0.75635 0.0
C480 C 0.2241 0.26231 0.58589 0.0
C481 C 0.23823 0.23831 0.45094 0.0
C482 C 0.23506 0.20223 0.48652 0.0
Zn483 Zn 0.20141 0.13834 0.65176 0.0
C484 C 0.26441 0.09282 0.75592 0.0
N485 N 0.17151 1.0289 0.60881 0.0
C486 C 0.13648 1.02072 0.62159 0.0
C487 C 0.19405 1.00717 0.51031 0.0
C488 C 0.18152 0.9771 0.4128 0.0
C489 C 0.14526 0.96897 0.4142 0.0
C490 C 0.12278 0.99082 0.52507 0.0
Zn491 Zn 0.18851 0.08093 0.64518 0.0
O492 O 0.19876 0.13811 -0.04649 0.0
C493 C 0.12668 0.13235 0.56109 0.0
O494 O 0.18068 0.08246 -0.04868 0.0
H495 H 0.22147 1.01452 0.49453 0.0
H496 H 0.18811 0.20357 0.90449 0.0
H497 H 0.11863 0.03844 0.69675 0.0
O498 O 0.14931 0.15479 0.61722 0.0
O499 O 0.13486 0.09964 0.56648 0.0
H500 H 0.24598 0.18387 0.38121 0.0
O501 O 0.19657 0.07946 0.3428 0.0
O502 O 0.20292 0.1369 0.34473 0.0
O503 O 0.2439 0.06619 0.7329 0.0
O504 O 0.25406 0.12296 0.69604 0.0
C505 C 0.19752 0.1085 0.25239 0.0
H506 H 0.19605 0.26757 0.86266 0.0
H507 H 0.25064 0.24741 0.31671 0.0
H508 H 0.20013 0.96085 0.33248 0.0
H509 H 0.09481 0.98519 0.53502 0.0
C510 C 0.10848 0.86516 0.62559 0.0
N511 N 1.02887 0.89118 0.26892 0.0
C512 C 1.00716 0.86866 0.36754 0.0
C513 C 0.9771 0.88118 0.46507 0.0
C514 C 0.96896 0.91744 0.4636 0.0
C515 C 0.9908 0.93992 0.35267 0.0
C516 C 1.02069 0.92621 0.25613 0.0
Zn517 Zn 0.0809 0.87417 0.2327 0.0
C518 C 0.13233 0.93599 0.31691 0.0
N519 N 0.19036 0.84627 0.23323 0.0
C520 C 0.20227 0.82768 0.39183 0.0
C521 C 0.21323 0.85929 0.09662 0.0
C522 C 0.24956 0.85509 0.12146 0.0
C523 C 0.26232 0.83859 0.29205 0.0
C524 C 0.23835 0.82451 0.42728 0.0
Zn525 Zn 0.13832 0.86126 0.22635 0.0
O526 O 0.07944 0.8661 0.53508 0.0
C527 C 0.09281 0.79826 0.12202 0.0
O528 O 0.13688 0.85975 0.53338 0.0
H529 H 0.20351 0.87447 -0.02672 0.0
H530 H 1.01452 0.84123 0.38338 0.0
H531 H 0.18393 0.8168 0.49735 0.0
O532 O 0.06618 0.81877 0.14493 0.0
O533 O 0.12295 0.80861 0.18207 0.0
H534 H 0.03839 0.94407 0.18095 0.0
O535 O 0.13808 0.86391 0.9246 0.0
O536 O 0.08244 0.882 0.92656 0.0
O537 O 0.15477 0.91336 0.26088 0.0
O538 O 0.09962 0.92781 0.31143 0.0
C539 C 0.10968 0.87107 0.83468 0.0
H540 H 0.96087 0.86258 0.54546 0.0
H541 H 0.98516 0.96789 0.34268 0.0
H542 H 0.26751 0.86653 0.01492 0.0
H543 H 0.24748 0.81215 0.56162 0.0
loop_
_geom_bond_atom_site_label_1
_geom_bond_atom_site_label_2
_geom_bond_distance
_geom_bond_site_symmetry_2
_ccdc_geom_bond_type
C0 O16 1.251 . S
C0 O18 1.254 . S
N1 C2 1.333 1_554 S
N1 C6 1.307 . S
N1 Zn7 2.020 . S
C2 N1 1.333 1_556 S
C2 C3 1.379 . S
C2 H20 0.952 . S
C3 C2 1.379 . S
C3 C4 1.390 1_556 S
C3 H30 0.949 . S
C4 C3 1.390 1_554 S
C4 C5 1.357 . S
C5 C4 1.357 . S
C5 C6 1.370 . S
C5 H31 0.950 . S
C6 N1 1.307 . S
C6 C5 1.370 . S
C6 H24 0.948 . S
Zn7 N1 2.020 . S
Zn7 O16 2.039 1_554 S
Zn7 O22 2.034 . S
Zn7 O26 2.025 . S
Zn7 O28 2.024 . S
C8 O27 1.246 . S
C8 O28 1.249 . S
N9 C10 1.307 . S
N9 C11 1.333 . S
N9 Zn15 2.020 1_565 S
C10 N9 1.307 . S
C10 C14 1.370 . S
C10 H21 0.948 1_554 S
C11 N9 1.333 . S
C11 C12 1.379 . S
C11 H19 0.952 . S
C12 C11 1.379 . S
C12 C13 1.390 . S
C12 H32 0.949 . S
C13 C12 1.390 . S
C13 C14 1.357 . S
C14 C10 1.370 . S
C14 C13 1.357 . S
C14 H33 0.950 1_554 S
Zn15 N9 2.020 1_545 S
Zn15 O18 2.025 1_554 S
Zn15 O23 2.024 . S
Zn15 O25 2.039 . S
Zn15 O27 2.034 . S
O16 C0 1.251 . S
O16 Zn7 2.039 1_556 S
C17 O22 1.246 . S
C17 O23 1.249 . S
O18 C0 1.254 . S
O18 Zn15 2.025 1_556 S
H19 C11 0.952 . S
H20 C2 0.952 . S
H21 C10 0.948 1_556 S
O22 Zn7 2.034 . S
O22 C17 1.246 . S
O23 Zn15 2.024 . S
O23 C17 1.249 . S
H24 C6 0.948 . S
O25 Zn15 2.039 . S
O25 C29 1.251 . S
O26 Zn7 2.025 . S
O26 C29 1.254 . S
O27 C8 1.246 . S
O27 Zn15 2.034 . S
O28 Zn7 2.024 . S
O28 C8 1.249 . S
C29 O25 1.251 . S
C29 O26 1.254 . S
H30 C3 0.949 . S
H31 C5 0.950 . S
H32 C12 0.949 . S
H33 C14 0.950 1_556 S
C34 O50 1.251 . S
C34 O52 1.254 . S
N35 C36 1.333 . S
N35 C40 1.307 . S
N35 Zn41 2.020 1_655 S
C36 N35 1.333 . S
C36 C37 1.379 . S
C36 H54 0.952 . S
C37 C36 1.379 . S
C37 C38 1.390 . S
C37 H64 0.949 . S
C38 C37 1.390 . S
C38 C39 1.357 . S
C39 C38 1.357 . S
C39 C40 1.370 . S
C39 H65 0.950 1_556 S
C40 N35 1.307 . S
C40 C39 1.370 . S
C40 H58 0.948 1_556 S
Zn41 N35 2.020 1_455 S
Zn41 O50 2.039 . S
Zn41 O56 2.034 . S
Zn41 O60 2.025 1_556 S
Zn41 O62 2.024 . S
C42 O61 1.246 . S
C42 O62 1.249 . S
N43 C44 1.307 . S
N43 C45 1.333 1_556 S
N43 Zn49 2.020 . S
C44 N43 1.307 . S
C44 C48 1.370 . S
C44 H55 0.948 . S
C45 N43 1.333 1_554 S
C45 C46 1.379 . S
C45 H53 0.952 . S
C46 C45 1.379 . S
C46 C47 1.390 1_554 S
C46 H66 0.949 . S
C47 C46 1.390 1_556 S
C47 C48 1.357 . S
C48 C44 1.370 . S
C48 C47 1.357 . S
C48 H67 0.950 . S
Zn49 N43 2.020 . S
Zn49 O52 2.025 . S
Zn49 O57 2.024 . S
Zn49 O59 2.039 1_556 S
Zn49 O61 2.034 . S
O50 C34 1.251 . S
O50 Zn41 2.039 . S
C51 O56 1.246 . S
C51 O57 1.249 . S
O52 C34 1.254 . S
O52 Zn49 2.025 . S
H53 C45 0.952 . S
H54 C36 0.952 . S
H55 C44 0.948 . S
O56 Zn41 2.034 . S
O56 C51 1.246 . S
O57 Zn49 2.024 . S
O57 C51 1.249 . S
H58 C40 0.948 1_554 S
O59 Zn49 2.039 1_554 S
O59 C63 1.251 . S
O60 Zn41 2.025 1_554 S
O60 C63 1.254 . S
O61 C42 1.246 . S
O61 Zn49 2.034 . S
O62 Zn41 2.024 . S
O62 C42 1.249 . S
C63 O59 1.251 . S
C63 O60 1.254 . S
H64 C37 0.949 . S
H65 C39 0.950 1_554 S
H66 C46 0.949 . S
H67 C48 0.950 . S
C68 O84 1.251 . S
C68 O86 1.254 . S
N69 C70 1.333 1_554 S
N69 C74 1.307 . S
N69 Zn75 2.020 . S
C70 N69 1.333 1_556 S
C70 C71 1.379 . S
C70 H88 0.952 . S
C71 C70 1.379 . S
C71 C72 1.390 1_556 S
C71 H98 0.949 . S
C72 C71 1.390 1_554 S
C72 C73 1.357 . S
C73 C72 1.357 . S
C73 C74 1.370 . S
C73 H99 0.950 . S
C74 N69 1.307 . S
C74 C73 1.370 . S
C74 H92 0.948 . S
Zn75 N69 2.020 . S
Zn75 O84 2.039 1_554 S
Zn75 O90 2.034 . S
Zn75 O94 2.025 . S
Zn75 O96 2.024 . S
C76 O95 1.246 . S
C76 O96 1.249 . S
N77 C78 1.307 . S
N77 C79 1.333 . S
N77 Zn83 2.020 1_545 S
C78 N77 1.307 . S
C78 C82 1.370 . S
C78 H89 0.948 1_554 S
C79 N77 1.333 . S
C79 C80 1.379 . S
C79 H87 0.952 . S
C80 C79 1.379 . S
C80 C81 1.390 . S
C80 H100 0.949 . S
C81 C80 1.390 . S
C81 C82 1.357 . S
C82 C78 1.370 . S
C82 C81 1.357 . S
C82 H101 0.950 1_554 S
Zn83 N77 2.020 1_565 S
Zn83 O86 2.025 1_554 S
Zn83 O91 2.024 . S
Zn83 O93 2.039 . S
Zn83 O95 2.034 . S
O84 C68 1.251 . S
O84 Zn75 2.039 1_556 S
C85 O90 1.246 . S
C85 O91 1.249 . S
O86 C68 1.254 . S
O86 Zn83 2.025 1_556 S
H87 C79 0.952 . S
H88 C70 0.952 . S
H89 C78 0.948 1_556 S
O90 Zn75 2.034 . S
O90 C85 1.246 . S
O91 Zn83 2.024 . S
O91 C85 1.249 . S
H92 C74 0.948 . S
O93 Zn83 2.039 . S
O93 C97 1.251 . S
O94 Zn75 2.025 . S
O94 C97 1.254 . S
O95 C76 1.246 . S
O95 Zn83 2.034 . S
O96 Zn75 2.024 . S
O96 C76 1.249 . S
C97 O93 1.251 . S
C97 O94 1.254 . S
H98 C71 0.949 . S
H99 C73 0.950 . S
H100 C80 0.949 . S
H101 C82 0.950 1_556 S
C102 O118 1.251 . S
C102 O120 1.254 . S
N103 C104 1.333 . S
N103 C108 1.307 . S
N103 Zn109 2.020 1_455 S
C104 N103 1.333 . S
C104 C105 1.379 . S
C104 H122 0.952 . S
C105 C104 1.379 . S
C105 C106 1.390 . S
C105 H132 0.949 . S
C106 C105 1.390 . S
C106 C107 1.357 . S
C107 C106 1.357 . S
C107 C108 1.370 . S
C107 H133 0.950 1_556 S
C108 N103 1.307 . S
C108 C107 1.370 . S
C108 H126 0.948 1_556 S
Zn109 N103 2.020 1_655 S
Zn109 O118 2.039 . S
Zn109 O124 2.034 . S
Zn109 O128 2.025 1_556 S
Zn109 O130 2.024 . S
C110 O129 1.246 . S
C110 O130 1.249 . S
N111 C112 1.307 . S
N111 C113 1.333 1_556 S
N111 Zn117 2.020 . S
C112 N111 1.307 . S
C112 C116 1.370 . S
C112 H123 0.948 . S
C113 N111 1.333 1_554 S
C113 C114 1.379 . S
C113 H121 0.952 . S
C114 C113 1.379 . S
C114 C115 1.390 1_554 S
C114 H134 0.949 . S
C115 C114 1.390 1_556 S
C115 C116 1.357 . S
C116 C112 1.370 . S
C116 C115 1.357 . S
C116 H135 0.950 . S
Zn117 N111 2.020 . S
Zn117 O120 2.025 . S
Zn117 O125 2.024 . S
Zn117 O127 2.039 1_556 S
Zn117 O129 2.034 . S
O118 C102 1.251 . S
O118 Zn109 2.039 . S
C119 O124 1.246 . S
C119 O125 1.249 . S
O120 C102 1.254 . S
O120 Zn117 2.025 . S
H121 C113 0.952 . S
H122 C104 0.952 . S
H123 C112 0.948 . S
O124 Zn109 2.034 . S
O124 C119 1.246 . S
O125 Zn117 2.024 . S
O125 C119 1.249 . S
H126 C108 0.948 1_554 S
O127 Zn117 2.039 1_554 S
O127 C131 1.251 . S
O128 Zn109 2.025 1_554 S
O128 C131 1.254 . S
O129 C110 1.246 . S
O129 Zn117 2.034 . S
O130 Zn109 2.024 . S
O130 C110 1.249 . S
C131 O127 1.251 . S
C131 O128 1.254 . S
H132 C105 0.949 . S
H133 C107 0.950 1_554 S
H134 C114 0.949 . S
H135 C116 0.950 . S
C136 O152 1.251 . S
C136 O154 1.254 . S
N137 C138 1.333 . S
N137 C142 1.307 1_554 S
N137 Zn143 2.020 . S
C138 N137 1.333 . S
C138 C139 1.379 . S
C138 H156 0.952 . S
C139 C138 1.379 . S
C139 C140 1.390 . S
C139 H166 0.949 . S
C140 C139 1.390 . S
C140 C141 1.357 . S
C141 C140 1.357 . S
C141 C142 1.370 1_554 S
C141 H167 0.950 1_554 S
C142 N137 1.307 1_556 S
C142 C141 1.370 1_556 S
C142 H160 0.948 . S
Zn143 N137 2.020 . S
Zn143 O152 2.039 . S
Zn143 O158 2.034 . S
Zn143 O162 2.025 1_554 S
Zn143 O164 2.024 . S
C144 O163 1.246 . S
C144 O164 1.249 . S
N145 C146 1.307 . S
N145 C147 1.333 1_554 S
N145 Zn151 2.020 . S
C146 N145 1.307 . S
C146 C150 1.370 . S
C146 H157 0.948 . S
C147 N145 1.333 1_556 S
C147 C148 1.379 . S
C147 H155 0.952 . S
C148 C147 1.379 . S
C148 C149 1.390 1_556 S
C148 H168 0.949 . S
C149 C148 1.390 1_554 S
C149 C150 1.357 . S
C150 C146 1.370 . S
C150 C149 1.357 . S
C150 H169 0.950 . S
Zn151 N145 2.020 . S
Zn151 O154 2.025 . S
Zn151 O159 2.024 . S
Zn151 O161 2.039 1_554 S
Zn151 O163 2.034 . S
O152 C136 1.251 . S
O152 Zn143 2.039 . S
C153 O158 1.246 . S
C153 O159 1.249 . S
O154 C136 1.254 . S
O154 Zn151 2.025 . S
H155 C147 0.952 . S
H156 C138 0.952 . S
H157 C146 0.948 . S
O158 Zn143 2.034 . S
O158 C153 1.246 . S
O159 Zn151 2.024 . S
O159 C153 1.249 . S
H160 C142 0.948 . S
O161 Zn151 2.039 1_556 S
O161 C165 1.251 . S
O162 Zn143 2.025 1_556 S
O162 C165 1.254 . S
O163 C144 1.246 . S
O163 Zn151 2.034 . S
O164 Zn143 2.024 . S
O164 C144 1.249 . S
C165 O161 1.251 . S
C165 O162 1.254 . S
H166 C139 0.949 . S
H167 C141 0.950 1_556 S
H168 C148 0.949 . S
H169 C150 0.950 . S
C170 O186 1.251 . S
C170 O188 1.254 . S
N171 C172 1.333 1_556 S
N171 C176 1.307 . S
N171 Zn177 2.020 . S
C172 N171 1.333 1_554 S
C172 C173 1.379 . S
C172 H190 0.952 . S
C173 C172 1.379 . S
C173 C174 1.390 1_554 S
C173 H200 0.949 . S
C174 C173 1.390 1_556 S
C174 C175 1.357 . S
C175 C174 1.357 . S
C175 C176 1.370 . S
C175 H201 0.950 . S
C176 N171 1.307 . S
C176 C175 1.370 . S
C176 H194 0.948 . S
Zn177 N171 2.020 . S
Zn177 O186 2.039 1_556 S
Zn177 O192 2.034 . S
Zn177 O196 2.025 . S
Zn177 O198 2.024 . S
C178 O197 1.246 . S
C178 O198 1.249 . S
N179 C180 1.307 1_556 S
N179 C181 1.333 . S
N179 Zn185 2.020 . S
C180 N179 1.307 1_554 S
C180 C184 1.370 1_554 S
C180 H191 0.948 . S
C181 N179 1.333 . S
C181 C182 1.379 . S
C181 H189 0.952 . S
C182 C181 1.379 . S
C182 C183 1.390 . S
C182 H202 0.949 . S
C183 C182 1.390 . S
C183 C184 1.357 . S
C184 C180 1.370 1_556 S
C184 C183 1.357 . S
C184 H203 0.950 1_556 S
Zn185 N179 2.020 . S
Zn185 O188 2.025 1_556 S
Zn185 O193 2.024 . S
Zn185 O195 2.039 . S
Zn185 O197 2.034 . S
O186 C170 1.251 . S
O186 Zn177 2.039 1_554 S
C187 O192 1.246 . S
C187 O193 1.249 . S
O188 C170 1.254 . S
O188 Zn185 2.025 1_554 S
H189 C181 0.952 . S
H190 C172 0.952 . S
H191 C180 0.948 . S
O192 Zn177 2.034 . S
O192 C187 1.246 . S
O193 Zn185 2.024 . S
O193 C187 1.249 . S
H194 C176 0.948 . S
O195 Zn185 2.039 . S
O195 C199 1.251 . S
O196 Zn177 2.025 . S
O196 C199 1.254 . S
O197 C178 1.246 . S
O197 Zn185 2.034 . S
O198 Zn177 2.024 . S
O198 C178 1.249 . S
C199 O195 1.251 . S
C199 O196 1.254 . S
H200 C173 0.949 . S
H201 C175 0.950 . S
H202 C182 0.949 . S
H203 C184 0.950 1_554 S
C204 O220 1.251 . S
C204 O222 1.254 . S
N205 C206 1.333 . S
N205 C210 1.307 1_554 S
N205 Zn211 2.020 . S
C206 N205 1.333 . S
C206 C207 1.379 . S
C206 H224 0.952 . S
C207 C206 1.379 . S
C207 C208 1.390 . S
C207 H234 0.949 . S
C208 C207 1.390 . S
C208 C209 1.357 . S
C209 C208 1.357 . S
C209 C210 1.370 1_554 S
C209 H235 0.950 1_554 S
C210 N205 1.307 1_556 S
C210 C209 1.370 1_556 S
C210 H228 0.948 . S
Zn211 N205 2.020 . S
Zn211 O220 2.039 . S
Zn211 O226 2.034 . S
Zn211 O230 2.025 1_554 S
Zn211 O232 2.024 . S
C212 O231 1.246 . S
C212 O232 1.249 . S
N213 C214 1.307 . S
N213 C215 1.333 1_554 S
N213 Zn219 2.020 . S
C214 N213 1.307 . S
C214 C218 1.370 . S
C214 H225 0.948 . S
C215 N213 1.333 1_556 S
C215 C216 1.379 . S
C215 H223 0.952 . S
C216 C215 1.379 . S
C216 C217 1.390 1_556 S
C216 H236 0.949 . S
C217 C216 1.390 1_554 S
C217 C218 1.357 . S
C218 C214 1.370 . S
C218 C217 1.357 . S
C218 H237 0.950 . S
Zn219 N213 2.020 . S
Zn219 O222 2.025 . S
Zn219 O227 2.024 . S
Zn219 O229 2.039 1_554 S
Zn219 O231 2.034 . S
O220 C204 1.251 . S
O220 Zn211 2.039 . S
C221 O226 1.246 . S
C221 O227 1.249 . S
O222 C204 1.254 . S
O222 Zn219 2.025 . S
H223 C215 0.952 . S
H224 C206 0.952 . S
H225 C214 0.948 . S
O226 Zn211 2.034 . S
O226 C221 1.246 . S
O227 Zn219 2.024 . S
O227 C221 1.249 . S
H228 C210 0.948 . S
O229 Zn219 2.039 1_556 S
O229 C233 1.251 . S
O230 Zn211 2.025 1_556 S
O230 C233 1.254 . S
O231 C212 1.246 . S
O231 Zn219 2.034 . S
O232 Zn211 2.024 . S
O232 C212 1.249 . S
C233 O229 1.251 . S
C233 O230 1.254 . S
H234 C207 0.949 . S
H235 C209 0.950 1_556 S
H236 C216 0.949 . S
H237 C218 0.950 . S
C238 O254 1.251 . S
C238 O256 1.254 . S
N239 C240 1.333 1_556 S
N239 C244 1.307 . S
N239 Zn245 2.020 . S
C240 N239 1.333 1_554 S
C240 C241 1.379 . S
C240 H258 0.952 . S
C241 C240 1.379 . S
C241 C242 1.390 1_554 S
C241 H268 0.949 . S
C242 C241 1.390 1_556 S
C242 C243 1.357 . S
C243 C242 1.357 . S
C243 C244 1.370 . S
C243 H269 0.950 . S
C244 N239 1.307 . S
C244 C243 1.370 . S
C244 H262 0.948 . S
Zn245 N239 2.020 . S
Zn245 O254 2.039 1_556 S
Zn245 O260 2.034 . S
Zn245 O264 2.025 . S
Zn245 O266 2.024 . S
C246 O265 1.246 . S
C246 O266 1.249 . S
N247 C248 1.307 1_556 S
N247 C249 1.333 . S
N247 Zn253 2.020 . S
C248 N247 1.307 1_554 S
C248 C252 1.370 1_554 S
C248 H259 0.948 . S
C249 N247 1.333 . S
C249 C250 1.379 . S
C249 H257 0.952 . S
C250 C249 1.379 . S
C250 C251 1.390 . S
C250 H270 0.949 . S
C251 C250 1.390 . S
C251 C252 1.357 . S
C252 C248 1.370 1_556 S
C252 C251 1.357 . S
C252 H271 0.950 1_556 S
Zn253 N247 2.020 . S
Zn253 O256 2.025 1_556 S
Zn253 O261 2.024 . S
Zn253 O263 2.039 . S
Zn253 O265 2.034 . S
O254 C238 1.251 . S
O254 Zn245 2.039 1_554 S
C255 O260 1.246 . S
C255 O261 1.249 . S
O256 C238 1.254 . S
O256 Zn253 2.025 1_554 S
H257 C249 0.952 . S
H258 C240 0.952 . S
H259 C248 0.948 . S
O260 Zn245 2.034 . S
O260 C255 1.246 . S
O261 Zn253 2.024 . S
O261 C255 1.249 . S
H262 C244 0.948 . S
O263 Zn253 2.039 . S
O263 C267 1.251 . S
O264 Zn245 2.025 . S
O264 C267 1.254 . S
O265 C246 1.246 . S
O265 Zn253 2.034 . S
O266 Zn245 2.024 . S
O266 C246 1.249 . S
C267 O263 1.251 . S
C267 O264 1.254 . S
H268 C241 0.949 . S
H269 C243 0.950 . S
H270 C250 0.949 . S
H271 C252 0.950 1_554 S
C272 O288 1.251 . S
C272 O290 1.254 . S
N273 C274 1.333 . S
N273 C278 1.307 . S
N273 Zn279 2.020 . S
C274 N273 1.333 . S
C274 C275 1.379 . S
C274 H292 0.952 . S
C275 C274 1.379 . S
C275 C276 1.390 . S
C275 H302 0.949 . S
C276 C275 1.390 . S
C276 C277 1.357 . S
C277 C276 1.357 . S
C277 C278 1.370 . S
C277 H303 0.950 . S
C278 N273 1.307 . S
C278 C277 1.370 . S
C278 H296 0.948 . S
Zn279 N273 2.020 . S
Zn279 O288 2.039 . S
Zn279 O294 2.034 . S
Zn279 O298 2.025 . S
Zn279 O300 2.024 . S
C280 O299 1.246 . S
C280 O300 1.249 . S
N281 C282 1.307 . S
N281 C283 1.333 . S
N281 Zn287 2.020 . S
C282 N281 1.307 . S
C282 C286 1.370 . S
C282 H293 0.948 . S
C283 N281 1.333 . S
C283 C284 1.379 . S
C283 H291 0.952 . S
C284 C283 1.379 . S
C284 C285 1.390 . S
C284 H304 0.949 . S
C285 C284 1.390 . S
C285 C286 1.357 . S
C286 C282 1.370 . S
C286 C285 1.357 . S
C286 H305 0.950 . S
Zn287 N281 2.020 . S
Zn287 O290 2.025 . S
Zn287 O295 2.024 . S
Zn287 O297 2.039 . S
Zn287 O299 2.034 . S
O288 C272 1.251 . S
O288 Zn279 2.039 . S
C289 O294 1.246 . S
C289 O295 1.249 . S
O290 C272 1.254 . S
O290 Zn287 2.025 . S
H291 C283 0.952 . S
H292 C274 0.952 . S
H293 C282 0.948 . S
O294 Zn279 2.034 . S
O294 C289 1.246 . S
O295 Zn287 2.024 . S
O295 C289 1.249 . S
H296 C278 0.948 . S
O297 Zn287 2.039 . S
O297 C301 1.251 1_556 S
O298 Zn279 2.025 . S
O298 C301 1.254 1_556 S
O299 C280 1.246 . S
O299 Zn287 2.034 . S
O300 Zn279 2.024 . S
O300 C280 1.249 . S
C301 O297 1.251 1_554 S
C301 O298 1.254 1_554 S
H302 C275 0.949 . S
H303 C277 0.950 . S
H304 C284 0.949 . S
H305 C286 0.950 . S
C306 O322 1.251 1_556 S
C306 O324 1.254 1_556 S
N307 C308 1.333 . S
N307 C312 1.307 . S
N307 Zn313 2.020 . S
C308 N307 1.333 . S
C308 C309 1.379 . S
C308 H326 0.952 . S
C309 C308 1.379 . S
C309 C310 1.390 . S
C309 H336 0.949 . S
C310 C309 1.390 . S
C310 C311 1.357 . S
C311 C310 1.357 . S
C311 C312 1.370 . S
C311 H337 0.950 . S
C312 N307 1.307 . S
C312 C311 1.370 . S
C312 H330 0.948 . S
Zn313 N307 2.020 . S
Zn313 O322 2.039 . S
Zn313 O328 2.034 . S
Zn313 O332 2.025 . S
Zn313 O334 2.024 . S
C314 O333 1.246 . S
C314 O334 1.249 . S
N315 C316 1.307 . S
N315 C317 1.333 . S
N315 Zn321 2.020 . S
C316 N315 1.307 . S
C316 C320 1.370 . S
C316 H327 0.948 . S
C317 N315 1.333 . S
C317 C318 1.379 . S
C317 H325 0.952 . S
C318 C317 1.379 . S
C318 C319 1.390 . S
C318 H338 0.949 . S
C319 C318 1.390 . S
C319 C320 1.357 . S
C320 C316 1.370 . S
C320 C319 1.357 . S
C320 H339 0.950 . S
Zn321 N315 2.020 . S
Zn321 O324 2.025 . S
Zn321 O329 2.024 . S
Zn321 O331 2.039 . S
Zn321 O333 2.034 . S
O322 C306 1.251 1_554 S
O322 Zn313 2.039 . S
C323 O328 1.246 . S
C323 O329 1.249 . S
O324 C306 1.254 1_554 S
O324 Zn321 2.025 . S
H325 C317 0.952 . S
H326 C308 0.952 . S
H327 C316 0.948 . S
O328 Zn313 2.034 . S
O328 C323 1.246 . S
O329 Zn321 2.024 . S
O329 C323 1.249 . S
H330 C312 0.948 . S
O331 Zn321 2.039 . S
O331 C335 1.251 . S
O332 Zn313 2.025 . S
O332 C335 1.254 . S
O333 C314 1.246 . S
O333 Zn321 2.034 . S
O334 Zn313 2.024 . S
O334 C314 1.249 . S
C335 O331 1.251 . S
C335 O332 1.254 . S
H336 C309 0.949 . S
H337 C311 0.950 . S
H338 C318 0.949 . S
H339 C320 0.950 . S
C340 O356 1.251 . S
C340 O358 1.254 . S
N341 C342 1.333 . S
N341 C346 1.307 . S
N341 Zn347 2.020 . S
C342 N341 1.333 . S
C342 C343 1.379 . S
C342 H360 0.952 . S
C343 C342 1.379 . S
C343 C344 1.390 . S
C343 H370 0.949 . S
C344 C343 1.390 . S
C344 C345 1.357 . S
C345 C344 1.357 . S
C345 C346 1.370 . S
C345 H371 0.950 . S
C346 N341 1.307 . S
C346 C345 1.370 . S
C346 H364 0.948 . S
Zn347 N341 2.020 . S
Zn347 O356 2.039 . S
Zn347 O362 2.034 . S
Zn347 O366 2.025 . S
Zn347 O368 2.024 . S
C348 O367 1.246 . S
C348 O368 1.249 . S
N349 C350 1.307 . S
N349 C351 1.333 . S
N349 Zn355 2.020 . S
C350 N349 1.307 . S
C350 C354 1.370 . S
C350 H361 0.948 . S
C351 N349 1.333 . S
C351 C352 1.379 . S
C351 H359 0.952 . S
C352 C351 1.379 . S
C352 C353 1.390 . S
C352 H372 0.949 . S
C353 C352 1.390 . S
C353 C354 1.357 . S
C354 C350 1.370 . S
C354 C353 1.357 . S
C354 H373 0.950 . S
Zn355 N349 2.020 . S
Zn355 O358 2.025 . S
Zn355 O363 2.024 . S
Zn355 O365 2.039 . S
Zn355 O367 2.034 . S
O356 C340 1.251 . S
O356 Zn347 2.039 . S
C357 O362 1.246 . S
C357 O363 1.249 . S
O358 C340 1.254 . S
O358 Zn355 2.025 . S
H359 C351 0.952 . S
H360 C342 0.952 . S
H361 C350 0.948 . S
O362 Zn347 2.034 . S
O362 C357 1.246 . S
O363 Zn355 2.024 . S
O363 C357 1.249 . S
H364 C346 0.948 . S
O365 Zn355 2.039 . S
O365 C369 1.251 1_556 S
O366 Zn347 2.025 . S
O366 C369 1.254 1_556 S
O367 C348 1.246 . S
O367 Zn355 2.034 . S
O368 Zn347 2.024 . S
O368 C348 1.249 . S
C369 O365 1.251 1_554 S
C369 O366 1.254 1_554 S
H370 C343 0.949 . S
H371 C345 0.950 . S
H372 C352 0.949 . S
H373 C354 0.950 . S
C374 O390 1.251 1_556 S
C374 O392 1.254 1_556 S
N375 C376 1.333 . S
N375 C380 1.307 . S
N375 Zn381 2.020 . S
C376 N375 1.333 . S
C376 C377 1.379 . S
C376 H394 0.952 . S
C377 C376 1.379 . S
C377 C378 1.390 . S
C377 H404 0.949 . S
C378 C377 1.390 . S
C378 C379 1.357 . S
C379 C378 1.357 . S
C379 C380 1.370 . S
C379 H405 0.950 . S
C380 N375 1.307 . S
C380 C379 1.370 . S
C380 H398 0.948 . S
Zn381 N375 2.020 . S
Zn381 O390 2.039 . S
Zn381 O396 2.034 . S
Zn381 O400 2.025 . S
Zn381 O402 2.024 . S
C382 O401 1.246 . S
C382 O402 1.249 . S
N383 C384 1.307 . S
N383 C385 1.333 . S
N383 Zn389 2.020 . S
C384 N383 1.307 . S
C384 C388 1.370 . S
C384 H395 0.948 . S
C385 N383 1.333 . S
C385 C386 1.379 . S
C385 H393 0.952 . S
C386 C385 1.379 . S
C386 C387 1.390 . S
C386 H406 0.949 . S
C387 C386 1.390 . S
C387 C388 1.357 . S
C388 C384 1.370 . S
C388 C387 1.357 . S
C388 H407 0.950 . S
Zn389 N383 2.020 . S
Zn389 O392 2.025 . S
Zn389 O397 2.024 . S
Zn389 O399 2.039 . S
Zn389 O401 2.034 . S
O390 C374 1.251 1_554 S
O390 Zn381 2.039 . S
C391 O396 1.246 . S
C391 O397 1.249 . S
O392 C374 1.254 1_554 S
O392 Zn389 2.025 . S
H393 C385 0.952 . S
H394 C376 0.952 . S
H395 C384 0.948 . S
O396 Zn381 2.034 . S
O396 C391 1.246 . S
O397 Zn389 2.024 . S
O397 C391 1.249 . S
H398 C380 0.948 . S
O399 Zn389 2.039 . S
O399 C403 1.251 . S
O400 Zn381 2.025 . S
O400 C403 1.254 . S
O401 C382 1.246 . S
O401 Zn389 2.034 . S
O402 Zn381 2.024 . S
O402 C382 1.249 . S
C403 O399 1.251 . S
C403 O400 1.254 . S
H404 C377 0.949 . S
H405 C379 0.950 . S
H406 C386 0.949 . S
H407 C388 0.950 . S
C408 O424 1.251 1_554 S
C408 O426 1.254 1_554 S
N409 C410 1.333 . S
N409 C414 1.307 . S
N409 Zn415 2.020 . S
C410 N409 1.333 . S
C410 C411 1.379 . S
C410 H428 0.952 . S
C411 C410 1.379 . S
C411 C412 1.390 . S
C411 H438 0.949 . S
C412 C411 1.390 . S
C412 C413 1.357 . S
C413 C412 1.357 . S
C413 C414 1.370 . S
C413 H439 0.950 . S
C414 N409 1.307 . S
C414 C413 1.370 . S
C414 H432 0.948 . S
Zn415 N409 2.020 . S
Zn415 O424 2.039 . S
Zn415 O430 2.034 . S
Zn415 O434 2.025 . S
Zn415 O436 2.024 . S
C416 O435 1.246 . S
C416 O436 1.249 . S
N417 C418 1.307 . S
N417 C419 1.333 . S
N417 Zn423 2.020 1_545 S
C418 N417 1.307 . S
C418 C422 1.370 . S
C418 H429 0.948 . S
C419 N417 1.333 . S
C419 C420 1.379 . S
C419 H427 0.952 . S
C420 C419 1.379 . S
C420 C421 1.390 . S
C420 H440 0.949 . S
C421 C420 1.390 . S
C421 C422 1.357 . S
C422 C418 1.370 . S
C422 C421 1.357 . S
C422 H441 0.950 . S
Zn423 N417 2.020 1_565 S
Zn423 O426 2.025 . S
Zn423 O431 2.024 . S
Zn423 O433 2.039 . S
Zn423 O435 2.034 . S
O424 C408 1.251 1_556 S
O424 Zn415 2.039 . S
C425 O430 1.246 . S
C425 O431 1.249 . S
O426 C408 1.254 1_556 S
O426 Zn423 2.025 . S
H427 C419 0.952 . S
H428 C410 0.952 . S
H429 C418 0.948 . S
O430 Zn415 2.034 . S
O430 C425 1.246 . S
O431 Zn423 2.024 . S
O431 C425 1.249 . S
H432 C414 0.948 . S
O433 Zn423 2.039 . S
O433 C437 1.251 . S
O434 Zn415 2.025 . S
O434 C437 1.254 . S
O435 C416 1.246 . S
O435 Zn423 2.034 . S
O436 Zn415 2.024 . S
O436 C416 1.249 . S
C437 O433 1.251 . S
C437 O434 1.254 . S
H438 C411 0.949 . S
H439 C413 0.950 . S
H440 C420 0.949 . S
H441 C422 0.950 . S
C442 O458 1.251 . S
C442 O460 1.254 . S
N443 C444 1.333 . S
N443 C448 1.307 . S
N443 Zn449 2.020 1_455 S
C444 N443 1.333 . S
C444 C445 1.379 . S
C444 H462 0.952 . S
C445 C444 1.379 . S
C445 C446 1.390 . S
C445 H472 0.949 . S
C446 C445 1.390 . S
C446 C447 1.357 . S
C447 C446 1.357 . S
C447 C448 1.370 . S
C447 H473 0.950 . S
C448 N443 1.307 . S
C448 C447 1.370 . S
C448 H466 0.948 . S
Zn449 N443 2.020 1_655 S
Zn449 O458 2.039 . S
Zn449 O464 2.034 . S
Zn449 O468 2.025 . S
Zn449 O470 2.024 . S
C450 O469 1.246 . S
C450 O470 1.249 . S
N451 C452 1.307 . S
N451 C453 1.333 . S
N451 Zn457 2.020 . S
C452 N451 1.307 . S
C452 C456 1.370 . S
C452 H463 0.948 . S
C453 N451 1.333 . S
C453 C454 1.379 . S
C453 H461 0.952 . S
C454 C453 1.379 . S
C454 C455 1.390 . S
C454 H474 0.949 . S
C455 C454 1.390 . S
C455 C456 1.357 . S
C456 C452 1.370 . S
C456 C455 1.357 . S
C456 H475 0.950 . S
Zn457 N451 2.020 . S
Zn457 O460 2.025 . S
Zn457 O465 2.024 . S
Zn457 O467 2.039 . S
Zn457 O469 2.034 . S
O458 C442 1.251 . S
O458 Zn449 2.039 . S
C459 O464 1.246 . S
C459 O465 1.249 . S
O460 C442 1.254 . S
O460 Zn457 2.025 . S
H461 C453 0.952 . S
H462 C444 0.952 . S
H463 C452 0.948 . S
O464 Zn449 2.034 . S
O464 C459 1.246 . S
O465 Zn457 2.024 . S
O465 C459 1.249 . S
H466 C448 0.948 . S
O467 Zn457 2.039 . S
O467 C471 1.251 1_554 S
O468 Zn449 2.025 . S
O468 C471 1.254 1_554 S
O469 C450 1.246 . S
O469 Zn457 2.034 . S
O470 Zn449 2.024 . S
O470 C450 1.249 . S
C471 O467 1.251 1_556 S
C471 O468 1.254 1_556 S
H472 C445 0.949 . S
H473 C447 0.950 . S
H474 C454 0.949 . S
H475 C456 0.950 . S
C476 O492 1.251 1_554 S
C476 O494 1.254 1_554 S
N477 C478 1.333 . S
N477 C482 1.307 . S
N477 Zn483 2.020 . S
C478 N477 1.333 . S
C478 C479 1.379 . S
C478 H496 0.952 . S
C479 C478 1.379 . S
C479 C480 1.390 . S
C479 H506 0.949 . S
C480 C479 1.390 . S
C480 C481 1.357 . S
C481 C480 1.357 . S
C481 C482 1.370 . S
C481 H507 0.950 . S
C482 N477 1.307 . S
C482 C481 1.370 . S
C482 H500 0.948 . S
Zn483 N477 2.020 . S
Zn483 O492 2.039 . S
Zn483 O498 2.034 . S
Zn483 O502 2.025 . S
Zn483 O504 2.024 . S
C484 O503 1.246 . S
C484 O504 1.249 . S
N485 C486 1.307 . S
N485 C487 1.333 . S
N485 Zn491 2.020 1_565 S
C486 N485 1.307 . S
C486 C490 1.370 . S
C486 H497 0.948 . S
C487 N485 1.333 . S
C487 C488 1.379 . S
C487 H495 0.952 . S
C488 C487 1.379 . S
C488 C489 1.390 . S
C488 H508 0.949 . S
C489 C488 1.390 . S
C489 C490 1.357 . S
C490 C486 1.370 . S
C490 C489 1.357 . S
C490 H509 0.950 . S
Zn491 N485 2.020 1_545 S
Zn491 O494 2.025 . S
Zn491 O499 2.024 . S
Zn491 O501 2.039 . S
Zn491 O503 2.034 . S
O492 C476 1.251 1_556 S
O492 Zn483 2.039 . S
C493 O498 1.246 . S
C493 O499 1.249 . S
O494 C476 1.254 1_556 S
O494 Zn491 2.025 . S
H495 C487 0.952 . S
H496 C478 0.952 . S
H497 C486 0.948 . S
O498 Zn483 2.034 . S
O498 C493 1.246 . S
O499 Zn491 2.024 . S
O499 C493 1.249 . S
H500 C482 0.948 . S
O501 Zn491 2.039 . S
O501 C505 1.251 . S
O502 Zn483 2.025 . S
O502 C505 1.254 . S
O503 C484 1.246 . S
O503 Zn491 2.034 . S
O504 Zn483 2.024 . S
O504 C484 1.249 . S
C505 O501 1.251 . S
C505 O502 1.254 . S
H506 C479 0.949 . S
H507 C481 0.950 . S
H508 C488 0.949 . S
H509 C490 0.950 . S
C510 O526 1.251 . S
C510 O528 1.254 . S
N511 C512 1.333 . S
N511 C516 1.307 . S
N511 Zn517 2.020 1_655 S
C512 N511 1.333 . S
C512 C513 1.379 . S
C512 H530 0.952 . S
C513 C512 1.379 . S
C513 C514 1.390 . S
C513 H540 0.949 . S
C514 C513 1.390 . S
C514 C515 1.357 . S
C515 C514 1.357 . S
C515 C516 1.370 . S
C515 H541 0.950 . S
C516 N511 1.307 . S
C516 C515 1.370 . S
C516 H534 0.948 . S
Zn517 N511 2.020 1_455 S
Zn517 O526 2.039 . S
Zn517 O532 2.034 . S
Zn517 O536 2.025 . S
Zn517 O538 2.024 . S
C518 O537 1.246 . S
C518 O538 1.249 . S
N519 C520 1.307 . S
N519 C521 1.333 . S
N519 Zn525 2.020 . S
C520 N519 1.307 . S
C520 C524 1.370 . S
C520 H531 0.948 . S
C521 N519 1.333 . S
C521 C522 1.379 . S
C521 H529 0.952 . S
C522 C521 1.379 . S
C522 C523 1.390 . S
C522 H542 0.949 . S
C523 C522 1.390 . S
C523 C524 1.357 . S
C524 C520 1.370 . S
C524 C523 1.357 . S
C524 H543 0.950 . S
Zn525 N519 2.020 . S
Zn525 O528 2.025 . S
Zn525 O533 2.024 . S
Zn525 O535 2.039 . S
Zn525 O537 2.034 . S
O526 C510 1.251 . S
O526 Zn517 2.039 . S
C527 O532 1.246 . S
C527 O533 1.249 . S
O528 C510 1.254 . S
O528 Zn525 2.025 . S
H529 C521 0.952 . S
H530 C512 0.952 . S
H531 C520 0.948 . S
O532 Zn517 2.034 . S
O532 C527 1.246 . S
O533 Zn525 2.024 . S
O533 C527 1.249 . S
H534 C516 0.948 . S
O535 Zn525 2.039 . S
O535 C539 1.251 1_554 S
O536 Zn517 2.025 . S
O536 C539 1.254 1_554 S
O537 C518 1.246 . S
O537 Zn525 2.034 . S
O538 Zn517 2.024 . S
O538 C518 1.249 . S
C539 O535 1.251 1_556 S
C539 O536 1.254 1_556 S
H540 C513 0.949 . S
H541 C515 0.950 . S
H542 C522 0.949 . S
H543 C524 0.950 . S
C382 C13 2.299 . S
C289 C38 2.299 . S
C81 C314 2.299 . S
C106 C357 2.299 . S
C149 C178 2.299 1_554 S
C221 C174 2.300 1_554 S
C217 C246 2.299 1_554 S
C153 C242 2.299 1_554 S
C110 C285 2.300 . S
C310 C17 2.300 . S
C42 C353 2.300 . S
C85 C378 2.300 . S
C421 C450 2.299 . S
C493 C446 2.299 . S
C518 C489 2.299 . S
C514 C425 2.299 . S
C4 C140 1.231 . S
C183 C47 1.231 . S
C72 C208 1.231 . S
C115 C251 1.232 . S
C276 C412 1.230 . S
C455 C319 1.230 . S
C344 C480 1.230 . S
C387 C523 1.230 . S
C484 C8 3.174 1_556 S
C51 C527 3.174 1_556 S
C76 C416 3.174 1_554 S
C119 C459 3.174 1_556 S
C144 C348 3.176 . S
C187 C391 3.176 . S
C212 C280 3.176 . S
C323 C255 3.176 . S
C29 C0 0.947 . S
C34 C63 0.947 . S
C97 C68 0.947 . S
C131 C102 0.947 . S
C136 C165 0.947 . S
C170 C199 0.947 . S
C233 C204 0.947 . S
C267 C238 0.947 . S
C301 C272 0.947 . S
C335 C306 0.947 . S
C340 C369 0.947 . S
C374 C403 0.947 . S
C437 C408 0.946 . S
C471 C442 0.946 . S
C476 C505 0.947 . S
C510 C539 0.947 . S
