# Generated by pormake.
# Topology sxa, (6)-cn, num edge types: 1
# Building blocks:
#     Node 0, Type 0, BuildingBlock: IZENUY_clean_sbu_0, # of connection points: 6
#     Node 1, Type 0, BuildingBlock: IZENUY_clean_sbu_0, # of connection points: 6
#     Node 2, Type 0, BuildingBlock: IZENUY_clean_sbu_0, # of connection points: 6
#     Node 3, Type 0, BuildingBlock: IZENUY_clean_sbu_0, # of connection points: 6
#     Edge 4, Type (0, 0), BuildingBlock: KIFKEQ_clean_linker_1, # of connection points: 2
#     Edge 5, Type (0, 0), BuildingBlock: KIFKEQ_clean_linker_1, # of connection points: 2
#     Edge 6, Type (0, 0), BuildingBlock: KIFKEQ_clean_linker_1, # of connection points: 2
#     Edge 7, Type (0, 0), BuildingBlock: KIFKEQ_clean_linker_1, # of connection points: 2
#     Edge 8, Type (0, 0), BuildingBlock: KIFKEQ_clean_linker_1, # of connection points: 2
#     Edge 9, Type (0, 0), BuildingBlock: KIFKEQ_clean_linker_1, # of connection points: 2
#     Edge 10, Type (0, 0), BuildingBlock: KIFKEQ_clean_linker_1, # of connection points: 2
#     Edge 11, Type (0, 0), BuildingBlock: KIFKEQ_clean_linker_1, # of connection points: 2
#     Edge 12, Type (0, 0), BuildingBlock: KIFKEQ_clean_linker_1, # of connection points: 2
#     Edge 13, Type (0, 0), BuildingBlock: KIFKEQ_clean_linker_1, # of connection points: 2
#     Edge 14, Type (0, 0), BuildingBlock: KIFKEQ_clean_linker_1, # of connection points: 2
#     Edge 15, Type (0, 0), BuildingBlock: KIFKEQ_clean_linker_1, # of connection points: 2
# Relax obj value: 0.274
# Max RMSD: 0.267
# Mean RMSD: 0.267
data_MOF--net-sxa--node1-IZENUY_clean_sbu_0--edge1-KIFKEQ_clean_linker_1
_symmetry_space_group_name_H-M    P1
_symmetry_Int_Tables_number       1
_symmetry_cell_setting            triclinic
loop_
_symmetry_equiv_pos_as_xyz
'x, y, z'
_cell_length_a     25.192595
_cell_length_b     28.075245
_cell_length_c     16.521201
_cell_angle_alpha  90.01358
_cell_angle_beta   90.062441
_cell_angle_gamma 89.931389
loop_
_atom_site_label
_atom_site_type_symbol
_atom_site_fract_x
_atom_site_fract_y
_atom_site_fract_z
_atom_type_partial_charge
Fe0 Fe 0.00708 0.83337 0.3511 0.0
Fe1 Fe -0.0072 0.72247 0.35732 0.0
O2 O 0.0007 0.77673 0.30246 0.0
Fe3 Fe 0.0027 0.77447 0.195 0.0
O4 O 0.07123 0.79108 0.19746 0.0
O5 O 0.06028 0.85273 0.28027 0.0
O6 O 0.0602 0.81328 0.41678 0.0
C7 C 0.07118 0.77364 0.44856 0.0
C8 C 0.95666 0.86549 0.21552 0.0
O9 O 0.04352 0.73675 0.43447 0.0
C10 C 0.91599 0.72118 0.22834 0.0
O11 O 0.95526 0.82239 0.42792 0.0
O12 O 0.93845 0.74567 0.41712 0.0
O13 O -0.01651 0.8361 0.17552 0.0
O14 O 0.9544 0.86114 0.2911 0.0
C15 C 0.04689 0.68432 0.22916 0.0
O16 O 0.94071 0.70085 0.28657 0.0
O17 O 0.93433 0.75728 0.19184 0.0
C18 C 0.92681 0.78636 0.44398 0.0
O19 O 0.04627 0.69116 0.30425 0.0
O20 O 0.02229 0.7125 0.18396 0.0
C21 C 0.08819 0.82903 0.22967 0.0
Fe22 Fe 0.50197 0.30503 0.19046 0.0
Fe23 Fe 0.50556 0.35503 0.35599 0.0
O24 O 0.49975 0.30143 0.29795 0.0
Fe25 Fe 0.49188 0.24422 0.344 0.0
O26 O 0.54711 0.21734 0.28869 0.0
O27 O 0.52434 0.24423 0.1708 0.0
O28 O 0.56972 0.32399 0.19428 0.0
C29 C 0.58549 0.36041 0.23236 0.0
C30 C 0.41765 0.24692 0.21137 0.0
O31 O 0.55862 0.37916 0.28963 0.0
C32 C 0.42481 0.30219 0.43931 0.0
O33 O 0.4802 0.3666 0.18083 0.0
O34 O 0.45291 0.38625 0.30071 0.0
O35 O 0.44226 0.22472 0.26755 0.0
O36 O 0.43416 0.28627 0.18408 0.0
C37 C 0.56891 0.29034 0.44484 0.0
O38 O 0.45355 0.33892 0.42995 0.0
O39 O 0.43586 0.26335 0.4048 0.0
C40 C 0.45391 0.39385 0.2257 0.0
O41 O 0.55896 0.33143 0.41803 0.0
O42 O 0.54041 0.25482 0.42581 0.0
C43 C 0.54845 0.21392 0.21291 0.0
Fe44 Fe 0.00231 0.27387 0.99084 0.0
Fe45 Fe -0.00787 0.33505 0.8377 0.0
O46 O 8e-05 0.27771 0.88337 0.0
Fe47 Fe 0.00596 0.22423 0.82496 0.0
O48 O 0.95346 0.19284 0.8799 0.0
O49 O -0.01946 0.2124 1.00002 0.0
O50 O 0.93451 0.29275 0.99721 0.0
C51 C 0.91794 0.33218 0.97015 0.0
C52 C 0.08583 0.21838 0.94881 0.0
O53 O 0.94253 0.35449 0.91421 0.0
C54 C 0.06916 0.2891 0.73666 0.0
O55 O 0.02471 0.3345 1.01089 0.0
O56 O 0.04741 0.3617 0.89327 0.0
O57 O 0.05905 0.19989 0.89121 0.0
O58 O 0.07006 0.25474 0.98711 0.0
C59 C 0.92505 0.27736 0.74196 0.0
O60 O 0.04059 0.32459 0.75585 0.0
O61 O 0.05929 0.24796 0.7632 0.0
C62 C 0.04894 0.36477 0.96909 0.0
O63 O 0.93607 0.31612 0.77672 0.0
O64 O 0.95388 0.24059 0.75107 0.0
C65 C 0.95441 0.18521 0.95491 0.0
Fe66 Fe 0.49161 0.8542 0.82563 0.0
Fe67 Fe 0.50361 0.74364 0.84284 0.0
O68 O 0.4951 0.80137 0.88625 0.0
Fe69 Fe 0.4896 0.80645 0.99323 0.0
O70 O 0.42225 0.82656 0.98337 0.0
O71 O 0.4385 0.88083 0.88856 0.0
O72 O 0.43844 0.83055 0.76343 0.0
C73 C 0.4289 0.78919 0.73745 0.0
C74 C 0.54144 0.89332 0.95694 0.0
O75 O 0.45765 0.75394 0.75749 0.0
C76 C 0.57415 0.74717 0.97947 0.0
O77 O 0.54394 0.83596 0.75345 0.0
O78 O 0.56173 0.76164 0.78633 0.0
O79 O 0.51265 0.86771 1.00111 0.0
O80 O 0.54413 0.88478 0.88217 0.0
C81 C 0.4431 0.71526 0.97069 0.0
O82 O 0.5507 0.72454 0.9228 0.0
O83 O 0.55682 0.78653 1.00582 0.0
C84 C 0.57357 0.79944 0.74949 0.0
O85 O 0.44656 0.71792 0.89498 0.0
O86 O 0.46557 0.74625 1.01348 0.0
C87 C 0.40873 0.86276 0.94268 0.0
H88 H 0.09846 0.44328 0.90213 0.0
H89 H 0.04109 0.38729 0.1292 0.0
H90 H 0.11508 0.51993 0.96735 0.0
H91 H 0.05449 0.46376 0.19273 0.0
H92 H 0.08624 0.60396 0.3062 0.0
H93 H 0.10357 0.52611 0.24505 0.0
H94 H 0.0651 0.5839 1.00953 0.0
H95 H 0.05104 0.66114 1.06947 0.0
C96 C 0.0899 0.4471 0.96604 0.0
C97 C 0.06776 0.4091 1.00982 0.0
C98 C 0.09891 0.49129 1.00355 0.0
C99 C 0.08523 0.49888 1.08549 0.0
C100 C 0.06618 0.45982 0.13007 0.0
C101 C 0.05798 0.41565 0.09304 0.0
C102 C 0.08282 0.60015 0.24117 0.0
C103 C 0.06648 0.63883 0.1932 0.0
C104 C 0.09219 0.55531 0.20592 0.0
C105 C 0.08495 0.54794 0.12197 0.0
C106 C 0.07181 0.58758 1.07393 0.0
C107 C 0.06312 0.63222 0.10882 0.0
H108 H 0.41057 0.47261 0.30272 0.0
H109 H 0.45261 0.41862 1.06652 0.0
H110 H 0.39151 0.55045 0.24263 0.0
H111 H 0.43666 0.49589 1.00777 0.0
H112 H 0.39773 0.63547 0.9013 0.0
H113 H 0.38391 0.55796 0.9648 0.0
H114 H 0.43819 0.6153 0.19325 0.0
H115 H 0.44887 0.69261 0.13119 0.0
C116 C 0.41515 0.47708 0.238 0.0
C117 C 0.43377 0.43927 0.18993 0.0
C118 C 0.40476 0.52195 0.20339 0.0
C119 C 0.41314 0.53025 0.11997 0.0
C120 C 0.4289 0.49145 1.07173 0.0
C121 C 0.43866 0.4468 0.10597 0.0
C122 C 0.40543 0.63173 0.9655 0.0
C123 C 0.42508 0.67037 1.01056 0.0
C124 C 0.39808 0.58702 1.00203 0.0
C125 C 0.41096 0.57952 1.08433 0.0
C126 C 0.42729 0.61912 0.1302 0.0
C127 C 0.43385 0.6638 0.09408 0.0
H128 H 0.54496 0.91727 0.11621 0.0
H129 H 0.58372 0.9723 0.87952 0.0
H130 H 0.56016 0.99458 0.17525 0.0
H131 H 0.60203 0.05023 0.93982 0.0
H132 H 0.54097 0.19087 1.05283 0.0
H133 H 0.55334 0.11385 0.99039 0.0
H134 H 0.61179 0.05771 0.21733 0.0
H135 H 0.59638 0.13492 0.28132 0.0
C136 C 0.55809 0.94571 1.07673 0.0
C137 C 0.56217 0.93849 0.99258 0.0
C138 C 0.56742 0.99037 0.1111 0.0
C139 C 0.58187 1.02947 1.06275 0.0
C140 C 0.58975 1.02146 0.97912 0.0
C141 C 0.57984 0.97654 0.9444 0.0
C142 C 0.55721 0.16239 1.08954 0.0
C143 C 0.56676 0.16917 0.17281 0.0
C144 C 0.56478 0.11791 1.05317 0.0
C145 C 0.5829 0.07872 0.09852 0.0
C146 C 0.59636 0.08646 0.18054 0.0
C147 C 0.58804 0.13099 0.21734 0.0
H148 H 0.90378 0.94306 0.28025 0.0
H149 H 0.96916 0.88917 1.05665 0.0
H150 H 0.88637 1.01949 0.21452 0.0
H151 H 0.95463 0.96543 0.99271 0.0
H152 H 0.91821 0.10404 0.87699 0.0
H153 H 0.9028 1.02585 0.93793 0.0
H154 H 0.93522 0.08505 0.17449 0.0
H155 H 0.94758 0.16259 0.11456 0.0
C156 C 0.91399 0.94729 0.21699 0.0
C157 C 0.93849 0.90994 0.17435 0.0
C158 C 0.90446 0.99135 0.17922 0.0
C159 C 0.91977 0.99941 0.09811 0.0
C160 C 0.94156 0.96102 1.05463 0.0
C161 C 0.95043 0.91703 1.09192 0.0
C162 C 0.92059 0.10048 0.94217 0.0
C163 C 0.93489 0.13964 0.99048 0.0
C164 C 0.91237 0.05545 0.9773 0.0
C165 C 0.91864 0.04841 1.0615 0.0
C166 C 0.92944 0.08848 0.10984 0.0
C167 C 0.93709 0.13328 1.07501 0.0
H168 H 0.36821 0.708 0.71842 0.0
H169 H 0.37704 0.85512 0.64473 0.0
H170 H 0.28099 0.7012 0.65387 0.0
H171 H 0.29176 0.84806 0.57745 0.0
H172 H 0.1168 0.84476 0.53688 0.0
H173 H 0.20233 0.84522 0.60445 0.0
H174 H 0.22613 0.69785 0.53797 0.0
H175 H 0.13857 0.69709 0.47313 0.0
C176 C 0.35218 0.7386 0.68678 0.0
C177 C 0.37992 0.78217 0.68715 0.0
C178 C 0.30187 0.73477 0.64968 0.0
C179 C 0.27798 0.7743 0.61121 0.0
C180 C 0.30727 0.81708 0.60847 0.0
C181 C 0.35693 0.82105 0.64634 0.0
C182 C 0.13987 0.81217 0.53753 0.0
C183 C 0.12045 0.7709 0.49936 0.0
C184 C 0.18965 0.81255 0.57555 0.0
C185 C 0.22265 0.77192 0.57558 0.0
C186 C 0.20234 0.72995 0.53991 0.0
C187 C 0.15186 0.7294 0.50268 0.0
H188 H 0.13268 0.36869 0.72006 0.0
H189 H 0.11761 0.22324 0.63974 0.0
H190 H 0.21899 0.37425 0.65286 0.0
H191 H 0.20173 0.22919 0.56916 0.0
H192 H 0.37582 0.22894 0.51799 0.0
H193 H 0.2912 0.22867 0.58767 0.0
H194 H 0.27295 0.37903 0.5385 0.0
H195 H 0.35984 0.37942 0.4721 0.0
C196 C 0.14716 0.33822 0.68643 0.0
C197 C 0.11795 0.29546 0.68572 0.0
C198 C 0.19696 0.34133 0.64765 0.0
C199 C 0.21883 0.30193 0.60604 0.0
C200 C 0.188 0.26001 0.60248 0.0
C201 C 0.13895 0.25668 0.64228 0.0
C202 C 0.35411 0.26215 0.5227 0.0
C203 C 0.37505 0.30419 0.48918 0.0
C204 C 0.30477 0.26195 0.56202 0.0
C205 C 0.27357 0.3036 0.56794 0.0
C206 C 0.29526 0.34611 0.53618 0.0
C207 C 0.34536 0.34643 0.49786 0.0
H208 H 0.87552 0.35078 0.66404 0.0
H209 H 0.8604 0.20013 0.70868 0.0
H210 H 0.79076 0.35107 0.59446 0.0
H211 H 0.7734 0.20053 0.64245 0.0
H212 H 0.63284 0.21088 0.46118 0.0
H213 H 0.71925 0.20541 0.52833 0.0
H214 H 0.70132 0.35032 0.61268 0.0
H215 H 0.61708 0.35619 0.54205 0.0
C216 C 0.85396 0.31754 0.65908 0.0
C217 C 0.87519 0.27544 0.69219 0.0
C218 C 0.80455 0.31774 0.61982 0.0
C219 C 0.77356 0.27604 0.61358 0.0
C220 C 0.79554 0.23349 0.64499 0.0
C221 C 0.84571 0.23316 0.68322 0.0
C222 C 0.6472 0.24133 0.49494 0.0
C223 C 0.61776 0.28403 0.49582 0.0
C224 C 0.69706 0.23828 0.5337 0.0
C225 C 0.71877 0.27767 0.57549 0.0
C226 C 0.68772 0.31952 0.57922 0.0
C227 C 0.6386 0.3228 0.5394 0.0
H228 H 0.85443 0.7168 0.47737 0.0
H229 H 0.88267 0.8667 0.517 0.0
H230 H 0.77036 0.72281 0.5466 0.0
H231 H 0.79783 0.87245 0.58974 0.0
H232 H 0.61556 0.87071 0.65117 0.0
H233 H 0.70089 0.8702 0.57916 0.0
H234 H 0.7345 0.73058 0.67617 0.0
H235 H 0.64994 0.73044 0.74493 0.0
C236 C 0.84323 0.75114 0.50193 0.0
C237 C 0.87634 0.79114 0.49193 0.0
C238 C 0.79456 0.75454 0.54231 0.0
C239 C 0.77688 0.79801 0.57523 0.0
C240 C 0.80968 0.83835 0.56505 0.0
C241 C 0.85872 0.83497 0.52393 0.0
C242 C 0.64106 0.83979 0.65649 0.0
C243 C 0.62495 0.80035 0.70324 0.0
C244 C 0.69035 0.83964 0.61569 0.0
C245 C 0.72494 0.8001 0.62065 0.0
C246 C 0.7089 0.76126 0.66861 0.0
C247 C 0.65997 0.76129 0.70867 0.0
H248 H 0.31316 0.86351 0.86862 0.0
H249 H 0.39737 0.91391 1.07915 0.0
H250 H 0.2289 0.87425 0.94002 0.0
H251 H 0.31317 0.92481 0.15047 0.0
H252 H 0.11784 0.92327 0.21683 0.0
H253 H 0.19296 0.95418 0.13655 0.0
H254 H 0.24134 0.8101 1.08322 0.0
H255 H 0.16836 0.77941 0.16328 0.0
C256 C 0.31326 0.87974 0.92816 0.0
C257 C 0.36105 0.88774 0.96905 0.0
C258 C 0.26526 0.88599 0.96887 0.0
C259 C 0.26509 0.90015 1.0505 0.0
C260 C 0.31254 0.91447 1.08728 0.0
C261 C 0.36053 0.908 1.04672 0.0
C262 C 0.14533 0.89844 0.1892 0.0
C263 C 0.13717 0.84898 0.19542 0.0
C264 C 0.18759 0.91609 0.1428 0.0
C265 C 0.22128 0.88426 0.10222 0.0
C266 C 0.21468 0.83513 0.11234 0.0
C267 C 0.17324 0.81766 0.15861 0.0
H268 H 0.1723 0.1869 0.86454 0.0
H269 H 0.10582 0.19743 0.10438 0.0
H270 H 0.25986 0.17068 0.92371 0.0
H271 H 0.1923 0.18212 0.16343 0.0
H272 H 0.35344 0.17346 0.26183 0.0
H273 H 0.2763 0.14096 0.18969 0.0
H274 H 0.30811 0.23548 0.98903 0.0
H275 H 0.38414 0.26702 1.05946 0.0
C276 C 0.17614 0.18381 0.92966 0.0
C277 C 0.13323 0.1945 0.98029 0.0
C278 C 0.22605 0.1747 0.96359 0.0
C279 C 0.23314 0.17626 1.04825 0.0
C280 C 0.18838 0.18063 0.09818 0.0
C281 C 0.1389 0.18996 1.0644 0.0
C282 C 0.34417 0.18656 0.20179 0.0
C283 C 0.37381 0.22369 0.16733 0.0
C284 C 0.30038 0.16782 0.16035 0.0
C285 C 0.28613 0.18562 1.08362 0.0
C286 C 0.31827 0.22032 1.04731 0.0
C287 C 0.36138 0.23919 1.08868 0.0
H288 H 0.60546 0.38097 1.07673 0.0
H289 H 0.67212 0.3917 0.31663 0.0
H290 H 0.6919 0.39599 1.01774 0.0
H291 H 0.75964 0.40763 0.25752 0.0
H292 H 0.88478 0.31206 0.12208 0.0
H293 H 0.80842 0.34314 0.1923 0.0
H294 H 0.77556 0.43736 0.99142 0.0
H295 H 0.85302 0.40531 0.91951 0.0
C296 C 0.63857 0.38841 0.11673 0.0
C297 C 0.63293 0.38407 0.20086 0.0
C298 C 0.68804 0.39757 1.08298 0.0
C299 C 0.73284 0.40197 0.13295 0.0
C300 C 0.7258 0.40359 0.2176 0.0
C301 C 0.67591 0.39467 0.2515 0.0
C302 C 0.86171 0.33972 0.09278 0.0
C303 C 0.87396 0.35527 1.01414 0.0
C304 C 0.8184 0.35833 0.13401 0.0
C305 C 0.78587 0.39281 0.09758 0.0
C306 C 0.79992 0.41066 1.02085 0.0
C307 C 0.84392 0.39218 0.97955 0.0
H308 H 0.83075 0.68761 0.31278 0.0
H309 H 0.89108 0.70943 1.07126 0.0
H310 H 0.74189 0.67335 0.2567 0.0
H311 H 0.80332 0.69557 1.01544 0.0
H312 H 0.64127 0.67729 0.92472 0.0
H313 H 0.7219 0.64827 0.9918 0.0
H314 H 0.68838 0.73877 0.19716 0.0
H315 H 0.60854 0.76714 0.13128 0.0
C316 C 0.82528 0.6876 0.24772 0.0
C317 C 0.86696 0.70052 0.19616 0.0
C318 C 0.77464 0.6796 0.21564 0.0
C319 C 0.76561 0.684 0.13179 0.0
C320 C 0.80893 0.69163 1.08011 0.0
C321 C 0.85908 0.70012 0.1121 0.0
C322 C 0.65078 0.69015 0.98483 0.0
C323 C 0.61945 0.72528 1.02196 0.0
C324 C 0.69667 0.67344 1.02327 0.0
C325 C 0.71141 0.69128 0.09966 0.0
C326 C 0.67781 0.72378 0.1389 0.0
C327 C 0.63249 0.74072 0.10038 0.0
loop_
_geom_bond_atom_site_label_1
_geom_bond_atom_site_label_2
_geom_bond_distance
_geom_bond_site_symmetry_2
_ccdc_geom_bond_type
Fe0 O2 1.918 . S
Fe0 O5 1.997 . S
Fe0 O6 2.002 . S
Fe0 O11 1.976 . S
Fe0 O14 1.996 . S
Fe1 O2 1.918 1_655 S
Fe1 O9 1.997 1_655 S
Fe1 O12 1.996 . S
Fe1 O16 1.976 . S
Fe1 O19 2.002 1_655 S
O2 Fe0 1.918 . S
O2 Fe1 1.918 1_455 S
O2 Fe3 1.918 . S
Fe3 O2 1.918 . S
Fe3 O4 2.002 . S
Fe3 O13 1.976 . S
Fe3 O17 1.996 1_455 S
Fe3 O20 1.997 . S
O4 Fe3 2.002 . S
O4 C21 1.295 . S
O5 Fe0 1.997 . S
O5 C21 1.235 . S
O6 Fe0 2.002 . S
O6 C7 1.295 . S
C7 O6 1.295 . S
C7 O9 1.235 . S
C8 O13 1.287 . S
C8 O14 1.255 . S
O9 Fe1 1.997 1_455 S
O9 C7 1.235 . S
C10 O16 1.287 . S
C10 O17 1.255 . S
O11 Fe0 1.976 . S
O11 C18 1.287 1_455 S
O12 Fe1 1.996 . S
O12 C18 1.255 . S
O13 Fe3 1.976 . S
O13 C8 1.287 . S
O14 Fe0 1.996 . S
O14 C8 1.255 . S
C15 O19 1.295 . S
C15 O20 1.235 . S
O16 Fe1 1.976 . S
O16 C10 1.287 . S
O17 Fe3 1.996 1_655 S
O17 C10 1.255 . S
C18 O11 1.287 1_655 S
C18 O12 1.255 . S
O19 Fe1 2.002 1_455 S
O19 C15 1.295 . S
O20 Fe3 1.997 . S
O20 C15 1.235 . S
C21 O4 1.295 . S
C21 O5 1.235 . S
Fe22 O24 1.918 . S
Fe22 O27 1.997 . S
Fe22 O28 2.002 . S
Fe22 O33 1.976 . S
Fe22 O36 1.996 . S
Fe23 O24 1.918 . S
Fe23 O31 1.997 . S
Fe23 O34 1.996 . S
Fe23 O38 1.976 . S
Fe23 O41 2.002 . S
O24 Fe22 1.918 . S
O24 Fe23 1.918 . S
O24 Fe25 1.918 . S
Fe25 O24 1.918 . S
Fe25 O26 2.002 . S
Fe25 O35 1.976 . S
Fe25 O39 1.996 . S
Fe25 O42 1.997 . S
O26 Fe25 2.002 . S
O26 C43 1.295 . S
O27 Fe22 1.997 . S
O27 C43 1.235 . S
O28 Fe22 2.002 . S
O28 C29 1.295 . S
C29 O28 1.295 . S
C29 O31 1.235 . S
C30 O35 1.287 . S
C30 O36 1.255 . S
O31 Fe23 1.997 . S
O31 C29 1.235 . S
C32 O38 1.287 . S
C32 O39 1.255 . S
O33 Fe22 1.976 . S
O33 C40 1.287 . S
O34 Fe23 1.996 . S
O34 C40 1.255 . S
O35 Fe25 1.976 . S
O35 C30 1.287 . S
O36 Fe22 1.996 . S
O36 C30 1.255 . S
C37 O41 1.295 . S
C37 O42 1.235 . S
O38 Fe23 1.976 . S
O38 C32 1.287 . S
O39 Fe25 1.996 . S
O39 C32 1.255 . S
C40 O33 1.287 . S
C40 O34 1.255 . S
O41 Fe23 2.002 . S
O41 C37 1.295 . S
O42 Fe25 1.997 . S
O42 C37 1.235 . S
C43 O26 1.295 . S
C43 O27 1.235 . S
Fe44 O46 1.918 . S
Fe44 O49 1.997 . S
Fe44 O50 2.002 1_455 S
Fe44 O55 1.976 . S
Fe44 O58 1.996 . S
Fe45 O46 1.918 1_655 S
Fe45 O53 1.997 . S
Fe45 O56 1.996 1_655 S
Fe45 O60 1.976 1_655 S
Fe45 O63 2.002 . S
O46 Fe44 1.918 . S
O46 Fe45 1.918 1_455 S
O46 Fe47 1.918 . S
Fe47 O46 1.918 . S
Fe47 O48 2.002 . S
Fe47 O57 1.976 . S
Fe47 O61 1.996 . S
Fe47 O64 1.997 . S
O48 Fe47 2.002 . S
O48 C65 1.295 . S
O49 Fe44 1.997 . S
O49 C65 1.235 . S
O50 Fe44 2.002 1_655 S
O50 C51 1.295 . S
C51 O50 1.295 . S
C51 O53 1.235 . S
C52 O57 1.287 . S
C52 O58 1.255 . S
O53 Fe45 1.997 . S
O53 C51 1.235 . S
C54 O60 1.287 . S
C54 O61 1.255 . S
O55 Fe44 1.976 . S
O55 C62 1.287 . S
O56 Fe45 1.996 1_455 S
O56 C62 1.255 . S
O57 Fe47 1.976 . S
O57 C52 1.287 . S
O58 Fe44 1.996 . S
O58 C52 1.255 . S
C59 O63 1.295 . S
C59 O64 1.235 1_655 S
O60 Fe45 1.976 1_455 S
O60 C54 1.287 . S
O61 Fe47 1.996 . S
O61 C54 1.255 . S
C62 O55 1.287 . S
C62 O56 1.255 . S
O63 Fe45 2.002 . S
O63 C59 1.295 . S
O64 Fe47 1.997 . S
O64 C59 1.235 1_455 S
C65 O48 1.295 . S
C65 O49 1.235 . S
Fe66 O68 1.918 . S
Fe66 O71 1.997 . S
Fe66 O72 2.002 . S
Fe66 O77 1.976 . S
Fe66 O80 1.996 . S
Fe67 O68 1.918 . S
Fe67 O75 1.997 . S
Fe67 O78 1.996 . S
Fe67 O82 1.976 . S
Fe67 O85 2.002 . S
O68 Fe66 1.918 . S
O68 Fe67 1.918 . S
O68 Fe69 1.918 . S
Fe69 O68 1.918 . S
Fe69 O70 2.002 . S
Fe69 O79 1.976 . S
Fe69 O83 1.996 . S
Fe69 O86 1.997 . S
O70 Fe69 2.002 . S
O70 C87 1.295 . S
O71 Fe66 1.997 . S
O71 C87 1.235 . S
O72 Fe66 2.002 . S
O72 C73 1.295 . S
C73 O72 1.295 . S
C73 O75 1.235 . S
C74 O79 1.287 . S
C74 O80 1.255 . S
O75 Fe67 1.997 . S
O75 C73 1.235 . S
C76 O82 1.287 . S
C76 O83 1.255 . S
O77 Fe66 1.976 . S
O77 C84 1.287 . S
O78 Fe67 1.996 . S
O78 C84 1.255 . S
O79 Fe69 1.976 . S
O79 C74 1.287 . S
O80 Fe66 1.996 . S
O80 C74 1.255 . S
C81 O85 1.295 . S
C81 O86 1.235 . S
O82 Fe67 1.976 . S
O82 C76 1.287 . S
O83 Fe69 1.996 . S
O83 C76 1.255 . S
C84 O77 1.287 . S
C84 O78 1.255 . S
O85 Fe67 2.002 . S
O85 C81 1.295 . S
O86 Fe69 1.997 . S
O86 C81 1.235 . S
C87 O70 1.295 . S
C87 O71 1.235 . S
H88 C96 0.950 . S
H89 C101 0.950 . S
H90 C98 0.950 . S
H91 C100 0.950 1_554 S
H92 C102 0.950 . S
H93 C104 0.950 . S
H94 C106 0.950 1_556 S
H95 C107 0.950 . S
C96 H88 0.950 . S
C96 C97 1.386 1_655 S
C96 C98 1.391 . S
C97 C96 1.386 1_455 S
C97 C101 1.393 . S
C98 H90 0.950 . S
C98 C96 1.391 . S
C98 C99 1.400 1_655 S
C99 C98 1.400 1_455 S
C99 C100 1.398 . S
C99 C105 1.491 1_556 S
C100 H91 0.950 1_556 S
C100 C99 1.398 . S
C100 C101 1.391 . S
C101 H89 0.950 . S
C101 C97 1.393 . S
C101 C100 1.391 . S
C102 H92 0.950 . S
C102 C103 1.386 . S
C102 C104 1.391 . S
C103 C102 1.386 . S
C103 C107 1.393 1_455 S
C104 H93 0.950 . S
C104 C102 1.391 . S
C104 C105 1.400 . S
C105 C99 1.491 1_554 S
C105 C104 1.400 . S
C105 C106 1.398 1_455 S
C106 H94 0.950 1_554 S
C106 C105 1.398 1_655 S
C106 C107 1.391 . S
C107 H95 0.950 . S
C107 C103 1.393 1_655 S
C107 C106 1.391 . S
H108 C116 0.950 . S
H109 C121 0.950 . S
H110 C118 0.950 . S
H111 C120 0.950 . S
H112 C122 0.950 . S
H113 C124 0.950 . S
H114 C126 0.950 . S
H115 C127 0.950 . S
C116 H108 0.950 . S
C116 C117 1.386 . S
C116 C118 1.391 . S
C117 C116 1.386 . S
C117 C121 1.393 . S
C118 H110 0.950 . S
C118 C116 1.391 . S
C118 C119 1.400 . S
C119 C118 1.400 . S
C119 C120 1.398 . S
C119 C125 1.491 1_554 S
C120 H111 0.950 . S
C120 C119 1.398 . S
C120 C121 1.391 . S
C121 H109 0.950 . S
C121 C117 1.393 . S
C121 C120 1.391 . S
C122 H112 0.950 . S
C122 C123 1.386 . S
C122 C124 1.391 . S
C123 C122 1.386 . S
C123 C127 1.393 . S
C124 H113 0.950 . S
C124 C122 1.391 . S
C124 C125 1.400 . S
C125 C119 1.491 1_556 S
C125 C124 1.400 . S
C125 C126 1.398 . S
C126 H114 0.950 . S
C126 C125 1.398 . S
C126 C127 1.391 . S
C127 H115 0.950 . S
C127 C123 1.393 . S
C127 C126 1.391 . S
H128 C136 0.950 . S
H129 C141 0.950 . S
H130 C138 0.950 . S
H131 C140 0.950 . S
H132 C142 0.950 . S
H133 C144 0.950 . S
H134 C146 0.950 . S
H135 C147 0.950 . S
C136 H128 0.950 . S
C136 C137 1.386 . S
C136 C138 1.391 . S
C137 C136 1.386 . S
C137 C141 1.393 . S
C138 H130 0.950 . S
C138 C136 1.391 . S
C138 C139 1.400 . S
C139 C138 1.400 . S
C139 C140 1.398 . S
C139 C145 1.491 1_566 S
C140 H131 0.950 . S
C140 C139 1.398 . S
C140 C141 1.391 . S
C141 H129 0.950 . S
C141 C137 1.393 . S
C141 C140 1.391 . S
C142 H132 0.950 . S
C142 C143 1.386 . S
C142 C144 1.391 . S
C143 C142 1.386 . S
C143 C147 1.393 . S
C144 H133 0.950 . S
C144 C142 1.391 . S
C144 C145 1.400 . S
C145 C139 1.491 1_544 S
C145 C144 1.400 . S
C145 C146 1.398 . S
C146 H134 0.950 . S
C146 C145 1.398 . S
C146 C147 1.391 . S
C147 H135 0.950 . S
C147 C143 1.393 . S
C147 C146 1.391 . S
H148 C156 0.950 . S
H149 C161 0.950 . S
H150 C158 0.950 . S
H151 C160 0.950 . S
H152 C162 0.950 . S
H153 C164 0.950 . S
H154 C166 0.949 . S
H155 C167 0.950 . S
C156 H148 0.950 . S
C156 C157 1.386 1_655 S
C156 C158 1.391 . S
C157 C156 1.386 1_455 S
C157 C161 1.393 . S
C158 H150 0.950 . S
C158 C156 1.391 . S
C158 C159 1.400 1_655 S
C159 C158 1.400 1_455 S
C159 C160 1.398 1_554 S
C159 C165 1.491 1_564 S
C160 H151 0.950 . S
C160 C159 1.398 1_556 S
C160 C161 1.391 1_556 S
C161 H149 0.950 . S
C161 C157 1.393 . S
C161 C160 1.391 1_554 S
C162 H152 0.950 . S
C162 C163 1.386 . S
C162 C164 1.391 . S
C163 C162 1.386 . S
C163 C167 1.393 1_455 S
C164 H153 0.950 . S
C164 C162 1.391 . S
C164 C165 1.400 . S
C165 C159 1.491 1_546 S
C165 C164 1.400 . S
C165 C166 1.399 1_456 S
C166 H154 0.949 . S
C166 C165 1.399 1_654 S
C166 C167 1.391 1_554 S
C167 H155 0.950 . S
C167 C163 1.393 1_655 S
C167 C166 1.391 1_556 S
H168 C176 0.950 . S
H169 C181 0.950 . S
H170 C178 0.950 . S
H171 C180 0.950 . S
H172 C182 0.950 . S
H173 C184 0.950 . S
H174 C186 0.950 . S
H175 C187 0.950 . S
C176 H168 0.950 . S
C176 C177 1.386 . S
C176 C178 1.391 . S
C177 C176 1.386 . S
C177 C181 1.393 . S
C178 H170 0.950 . S
C178 C176 1.391 . S
C178 C179 1.400 . S
C179 C178 1.400 . S
C179 C180 1.398 . S
C179 C185 1.491 . S
C180 H171 0.950 . S
C180 C179 1.398 . S
C180 C181 1.391 . S
C181 H169 0.950 . S
C181 C177 1.393 . S
C181 C180 1.391 . S
C182 H172 0.950 . S
C182 C183 1.386 . S
C182 C184 1.391 . S
C183 C182 1.386 . S
C183 C187 1.393 . S
C184 H173 0.950 . S
C184 C182 1.391 . S
C184 C185 1.400 . S
C185 C179 1.491 . S
C185 C184 1.400 . S
C185 C186 1.398 . S
C186 H174 0.950 . S
C186 C185 1.398 . S
C186 C187 1.391 . S
C187 H175 0.950 . S
C187 C183 1.393 . S
C187 C186 1.391 . S
H188 C196 0.950 . S
H189 C201 0.950 . S
H190 C198 0.950 . S
H191 C200 0.950 . S
H192 C202 0.950 . S
H193 C204 0.950 . S
H194 C206 0.950 . S
H195 C207 0.950 . S
C196 H188 0.950 . S
C196 C197 1.386 . S
C196 C198 1.391 . S
C197 C196 1.386 . S
C197 C201 1.393 . S
C198 H190 0.950 . S
C198 C196 1.391 . S
C198 C199 1.400 . S
C199 C198 1.400 . S
C199 C200 1.398 . S
C199 C205 1.491 . S
C200 H191 0.950 . S
C200 C199 1.398 . S
C200 C201 1.391 . S
C201 H189 0.950 . S
C201 C197 1.393 . S
C201 C200 1.391 . S
C202 H192 0.950 . S
C202 C203 1.386 . S
C202 C204 1.391 . S
C203 C202 1.386 . S
C203 C207 1.393 . S
C204 H193 0.950 . S
C204 C202 1.391 . S
C204 C205 1.400 . S
C205 C199 1.491 . S
C205 C204 1.400 . S
C205 C206 1.398 . S
C206 H194 0.950 . S
C206 C205 1.398 . S
C206 C207 1.391 . S
C207 H195 0.950 . S
C207 C203 1.393 . S
C207 C206 1.391 . S
H208 C216 0.950 . S
H209 C221 0.950 . S
H210 C218 0.950 . S
H211 C220 0.950 . S
H212 C222 0.950 . S
H213 C224 0.950 . S
H214 C226 0.950 . S
H215 C227 0.950 . S
C216 H208 0.950 . S
C216 C217 1.386 . S
C216 C218 1.391 . S
C217 C216 1.386 . S
C217 C221 1.393 . S
C218 H210 0.950 . S
C218 C216 1.391 . S
C218 C219 1.400 . S
C219 C218 1.400 . S
C219 C220 1.398 . S
C219 C225 1.491 . S
C220 H211 0.950 . S
C220 C219 1.398 . S
C220 C221 1.391 . S
C221 H209 0.950 . S
C221 C217 1.393 . S
C221 C220 1.391 . S
C222 H212 0.950 . S
C222 C223 1.386 . S
C222 C224 1.391 . S
C223 C222 1.386 . S
C223 C227 1.393 . S
C224 H213 0.950 . S
C224 C222 1.391 . S
C224 C225 1.400 . S
C225 C219 1.491 . S
C225 C224 1.400 . S
C225 C226 1.398 . S
C226 H214 0.950 . S
C226 C225 1.398 . S
C226 C227 1.391 . S
C227 H215 0.950 . S
C227 C223 1.393 . S
C227 C226 1.391 . S
H228 C236 0.950 . S
H229 C241 0.950 . S
H230 C238 0.950 . S
H231 C240 0.950 . S
H232 C242 0.950 . S
H233 C244 0.950 . S
H234 C246 0.950 . S
H235 C247 0.950 . S
C236 H228 0.950 . S
C236 C237 1.386 . S
C236 C238 1.391 . S
C237 C236 1.386 . S
C237 C241 1.393 . S
C238 H230 0.950 . S
C238 C236 1.391 . S
C238 C239 1.400 . S
C239 C238 1.400 . S
C239 C240 1.398 . S
C239 C245 1.491 . S
C240 H231 0.950 . S
C240 C239 1.398 . S
C240 C241 1.391 . S
C241 H229 0.950 . S
C241 C237 1.393 . S
C241 C240 1.391 . S
C242 H232 0.950 . S
C242 C243 1.386 . S
C242 C244 1.391 . S
C243 C242 1.386 . S
C243 C247 1.393 . S
C244 H233 0.950 . S
C244 C242 1.391 . S
C244 C245 1.400 . S
C245 C239 1.491 . S
C245 C244 1.400 . S
C245 C246 1.398 . S
C246 H234 0.950 . S
C246 C245 1.398 . S
C246 C247 1.391 . S
C247 H235 0.950 . S
C247 C243 1.393 . S
C247 C246 1.391 . S
H248 C256 0.950 . S
H249 C261 0.950 . S
H250 C258 0.950 . S
H251 C260 0.950 1_554 S
H252 C262 0.950 . S
H253 C264 0.950 . S
H254 C266 0.950 1_556 S
H255 C267 0.950 . S
C256 H248 0.950 . S
C256 C257 1.386 . S
C256 C258 1.391 . S
C257 C256 1.386 . S
C257 C261 1.393 . S
C258 H250 0.950 . S
C258 C256 1.391 . S
C258 C259 1.400 . S
C259 C258 1.400 . S
C259 C260 1.398 . S
C259 C265 1.491 1_556 S
C260 H251 0.950 1_556 S
C260 C259 1.398 . S
C260 C261 1.391 . S
C261 H249 0.950 . S
C261 C257 1.393 . S
C261 C260 1.391 . S
C262 H252 0.950 . S
C262 C263 1.386 . S
C262 C264 1.391 . S
C263 C262 1.386 . S
C263 C267 1.393 . S
C264 H253 0.950 . S
C264 C262 1.391 . S
C264 C265 1.400 . S
C265 C259 1.491 1_554 S
C265 C264 1.400 . S
C265 C266 1.398 . S
C266 H254 0.950 1_554 S
C266 C265 1.398 . S
C266 C267 1.391 . S
C267 H255 0.950 . S
C267 C263 1.393 . S
C267 C266 1.391 . S
H268 C276 0.950 . S
H269 C281 0.950 . S
H270 C278 0.950 . S
H271 C280 0.950 . S
H272 C282 0.950 . S
H273 C284 0.950 . S
H274 C286 0.950 . S
H275 C287 0.950 . S
C276 H268 0.950 . S
C276 C277 1.386 . S
C276 C278 1.391 . S
C277 C276 1.386 . S
C277 C281 1.393 . S
C278 H270 0.950 . S
C278 C276 1.391 . S
C278 C279 1.400 . S
C279 C278 1.400 . S
C279 C280 1.398 . S
C279 C285 1.491 1_556 S
C280 H271 0.950 . S
C280 C279 1.398 . S
C280 C281 1.391 . S
C281 H269 0.950 . S
C281 C277 1.393 . S
C281 C280 1.391 . S
C282 H272 0.950 . S
C282 C283 1.386 . S
C282 C284 1.391 . S
C283 C282 1.386 . S
C283 C287 1.393 . S
C284 H273 0.950 . S
C284 C282 1.391 . S
C284 C285 1.400 . S
C285 C279 1.491 1_554 S
C285 C284 1.400 . S
C285 C286 1.398 . S
C286 H274 0.950 . S
C286 C285 1.398 . S
C286 C287 1.391 . S
C287 H275 0.950 . S
C287 C283 1.393 . S
C287 C286 1.391 . S
H288 C296 0.950 . S
H289 C301 0.950 . S
H290 C298 0.950 1_556 S
H291 C300 0.950 . S
H292 C302 0.950 . S
H293 C304 0.950 1_554 S
H294 C306 0.950 . S
H295 C307 0.950 . S
C296 H288 0.950 . S
C296 C297 1.386 . S
C296 C298 1.391 . S
C297 C296 1.386 . S
C297 C301 1.393 . S
C298 H290 0.950 1_554 S
C298 C296 1.391 . S
C298 C299 1.400 . S
C299 C298 1.400 . S
C299 C300 1.398 . S
C299 C305 1.491 1_554 S
C300 H291 0.950 . S
C300 C299 1.398 . S
C300 C301 1.391 . S
C301 H289 0.950 . S
C301 C297 1.393 . S
C301 C300 1.391 . S
C302 H292 0.950 . S
C302 C303 1.386 . S
C302 C304 1.391 . S
C303 C302 1.386 . S
C303 C307 1.393 . S
C304 H293 0.950 1_556 S
C304 C302 1.391 . S
C304 C305 1.400 . S
C305 C299 1.491 1_556 S
C305 C304 1.400 . S
C305 C306 1.398 . S
C306 H294 0.950 . S
C306 C305 1.398 . S
C306 C307 1.391 . S
C307 H295 0.950 . S
C307 C303 1.393 . S
C307 C306 1.391 . S
H308 C316 0.950 . S
H309 C321 0.950 . S
H310 C318 0.950 1_556 S
H311 C320 0.950 . S
H312 C322 0.950 . S
H313 C324 0.950 1_554 S
H314 C326 0.950 . S
H315 C327 0.950 . S
C316 H308 0.950 . S
C316 C317 1.386 . S
C316 C318 1.391 . S
C317 C316 1.386 . S
C317 C321 1.393 . S
C318 H310 0.950 1_554 S
C318 C316 1.391 . S
C318 C319 1.400 . S
C319 C318 1.400 . S
C319 C320 1.398 . S
C319 C325 1.491 1_554 S
C320 H311 0.950 . S
C320 C319 1.398 . S
C320 C321 1.391 . S
C321 H309 0.950 . S
C321 C317 1.393 . S
C321 C320 1.391 . S
C322 H312 0.950 . S
C322 C323 1.386 . S
C322 C324 1.391 . S
C323 C322 1.386 . S
C323 C327 1.393 . S
C324 H313 0.950 1_556 S
C324 C322 1.391 . S
C324 C325 1.400 . S
C325 C319 1.491 1_556 S
C325 C324 1.400 . S
C325 C326 1.398 . S
C326 H314 0.950 . S
C326 C325 1.398 . S
C326 C327 1.391 . S
C327 H315 0.950 . S
C327 C323 1.393 . S
C327 C326 1.391 . S
C97 C62 1.586 . S
C103 C15 1.571 . S
C117 C40 1.587 . S
C123 C81 1.568 . S
C137 C74 1.588 . S
C143 C43 1.567 . S
C157 C8 1.586 . S
C163 C65 1.578 . S
C177 C73 2.220 . S
C183 C7 2.211 . S
C197 C54 2.146 . S
C203 C32 2.158 . S
C217 C59 2.218 . S
C223 C37 2.219 . S
C237 C18 2.150 . S
C243 C84 2.163 . S
C257 C87 0.389 . S
C263 C21 0.387 . S
C277 C52 0.266 . S
C283 C30 0.272 . S
C297 C29 0.446 . S
C303 C51 0.448 . S
C317 C10 0.289 . S
C323 C76 0.269 . S
