# Generated by pormake.
# Topology qtz-a, (4)-cn, num edge types: 1
# Building blocks:
#     Node 0, Type 0, BuildingBlock: NAHDIM_clean_sbu_0, # of connection points: 4
#     Node 1, Type 0, BuildingBlock: NAHDIM_clean_sbu_0, # of connection points: 4
#     Node 2, Type 0, BuildingBlock: NAHDIM_clean_sbu_0, # of connection points: 4
#     Node 3, Type 0, BuildingBlock: NAHDIM_clean_sbu_0, # of connection points: 4
#     Node 4, Type 0, BuildingBlock: NAHDIM_clean_sbu_0, # of connection points: 4
#     Node 5, Type 0, BuildingBlock: NAHDIM_clean_sbu_0, # of connection points: 4
#     Node 6, Type 0, BuildingBlock: NAHDIM_clean_sbu_0, # of connection points: 4
#     Node 7, Type 0, BuildingBlock: NAHDIM_clean_sbu_0, # of connection points: 4
#     Node 8, Type 0, BuildingBlock: NAHDIM_clean_sbu_0, # of connection points: 4
#     Node 9, Type 0, BuildingBlock: NAHDIM_clean_sbu_0, # of connection points: 4
#     Node 10, Type 0, BuildingBlock: NAHDIM_clean_sbu_0, # of connection points: 4
#     Node 11, Type 0, BuildingBlock: NAHDIM_clean_sbu_0, # of connection points: 4
#     Edge 12, Type (0, 0), BuildingBlock: TEMPAE_clean_linker_10, # of connection points: 2
#     Edge 13, Type (0, 0), BuildingBlock: TEMPAE_clean_linker_10, # of connection points: 2
#     Edge 14, Type (0, 0), BuildingBlock: TEMPAE_clean_linker_10, # of connection points: 2
#     Edge 15, Type (0, 0), BuildingBlock: TEMPAE_clean_linker_10, # of connection points: 2
#     Edge 16, Type (0, 0), BuildingBlock: TEMPAE_clean_linker_10, # of connection points: 2
#     Edge 17, Type (0, 0), BuildingBlock: TEMPAE_clean_linker_10, # of connection points: 2
#     Edge 18, Type (0, 0), BuildingBlock: TEMPAE_clean_linker_10, # of connection points: 2
#     Edge 19, Type (0, 0), BuildingBlock: TEMPAE_clean_linker_10, # of connection points: 2
#     Edge 20, Type (0, 0), BuildingBlock: TEMPAE_clean_linker_10, # of connection points: 2
#     Edge 21, Type (0, 0), BuildingBlock: TEMPAE_clean_linker_10, # of connection points: 2
#     Edge 22, Type (0, 0), BuildingBlock: TEMPAE_clean_linker_10, # of connection points: 2
#     Edge 23, Type (0, 0), BuildingBlock: TEMPAE_clean_linker_10, # of connection points: 2
#     Edge 24, Type (0, 0), BuildingBlock: TEMPAE_clean_linker_10, # of connection points: 2
#     Edge 25, Type (0, 0), BuildingBlock: TEMPAE_clean_linker_10, # of connection points: 2
#     Edge 26, Type (0, 0), BuildingBlock: TEMPAE_clean_linker_10, # of connection points: 2
#     Edge 27, Type (0, 0), BuildingBlock: TEMPAE_clean_linker_10, # of connection points: 2
#     Edge 28, Type (0, 0), BuildingBlock: TEMPAE_clean_linker_10, # of connection points: 2
#     Edge 29, Type (0, 0), BuildingBlock: TEMPAE_clean_linker_10, # of connection points: 2
#     Edge 30, Type (0, 0), BuildingBlock: TEMPAE_clean_linker_10, # of connection points: 2
#     Edge 31, Type (0, 0), BuildingBlock: TEMPAE_clean_linker_10, # of connection points: 2
#     Edge 32, Type (0, 0), BuildingBlock: TEMPAE_clean_linker_10, # of connection points: 2
#     Edge 33, Type (0, 0), BuildingBlock: TEMPAE_clean_linker_10, # of connection points: 2
#     Edge 34, Type (0, 0), BuildingBlock: TEMPAE_clean_linker_10, # of connection points: 2
#     Edge 35, Type (0, 0), BuildingBlock: TEMPAE_clean_linker_10, # of connection points: 2
# Relax obj value: 0.793
# Max RMSD: 0.439
# Mean RMSD: 0.311
data_MOF--net-qtz-a--node1-NAHDIM_clean_sbu_0--edge1-TEMPAE_clean_linker_10
_symmetry_space_group_name_H-M    P1
_symmetry_Int_Tables_number       1
_symmetry_cell_setting            triclinic
loop_
_symmetry_equiv_pos_as_xyz
'x, y, z'
_cell_length_a     50.071157
_cell_length_b     38.956715
_cell_length_c     41.927279
_cell_angle_alpha  90.01724
_cell_angle_beta   77.184148
_cell_angle_gamma 112.84661
loop_
_atom_site_label
_atom_site_type_symbol
_atom_site_fract_x
_atom_site_fract_y
_atom_site_fract_z
_atom_type_partial_charge
C0 C 0.30008 0.2166 0.09945 0.0
O1 O 0.28345 0.23559 0.09923 0.0
O2 O 0.32806 0.14221 0.12879 0.0
Zn3 Zn 0.3142 0.15029 0.08862 0.0
O4 O 0.3492 0.16927 0.04877 0.0
C5 C 0.28553 0.06918 0.09349 0.0
O6 O 0.29165 0.07132 0.12249 0.0
O7 O 0.29034 0.18243 0.09371 0.0
C8 C 0.36215 0.14683 0.04219 0.0
O9 O 0.35331 0.11664 0.0624 0.0
C10 C 0.35565 0.15395 0.12827 0.0
O11 O 0.37511 0.17834 0.1041 0.0
O12 O 0.28994 0.09908 0.07695 0.0
C13 C 0.39814 0.50465 0.57087 0.0
O14 O 0.40146 0.50577 0.60111 0.0
O15 O 0.4592 0.50083 0.59881 0.0
Zn16 Zn 0.4614 0.51685 0.55176 0.0
O17 O 0.48949 0.57095 0.5374 0.0
C18 C 0.47782 0.50024 0.48855 0.0
O19 O 0.47133 0.52942 0.4851 0.0
O20 O 0.42045 0.50954 0.5472 0.0
C21 C 0.51703 0.57743 0.52705 0.0
O22 O 0.52568 0.55023 0.53058 0.0
C23 C 0.47615 0.48893 0.60963 0.0
O24 O 0.4719 0.48237 0.64146 0.0
O25 O 0.47495 0.4869 0.51742 0.0
C26 C 0.81074 0.20488 0.78944 0.0
O27 O 0.82111 0.19176 0.81058 0.0
O28 O 0.87832 0.28036 0.81039 0.0
Zn29 Zn 0.87157 0.2626 0.76683 0.0
O30 O 0.88283 0.31088 0.73901 0.0
C31 C 0.92506 0.25134 0.75005 0.0
O32 O 0.93194 0.27825 0.76951 0.0
O33 O 0.82841 0.23271 0.76904 0.0
C34 C 0.905 0.3251 0.71441 0.0
O35 O 0.92201 0.30689 0.70403 0.0
C36 C 0.86072 0.29394 0.82664 0.0
O37 O 0.83487 0.28599 0.8194 0.0
O38 O 0.89851 0.23707 0.74647 0.0
C39 C 0.49727 0.92667 0.18344 0.0
O40 O 0.50349 0.95919 0.16798 0.0
O41 O 0.42443 0.94467 0.18763 0.0
Zn42 Zn 0.43969 0.90634 0.16808 0.0
O43 O 0.40676 0.856 0.16951 0.0
C44 C 0.43772 0.91829 0.10196 0.0
O45 O 0.40909 0.9038 0.11625 0.0
O46 O 0.47123 0.90112 0.18747 0.0
C47 C 0.41432 0.8303 0.15733 0.0
O48 O 0.4423 0.83472 0.15315 0.0
C49 C 0.39765 0.93964 0.1883 0.0
O50 O 0.37965 0.90747 0.18093 0.0
O51 O 0.45645 0.92284 0.11942 0.0
C52 C 0.7594 0.52084 0.38728 0.0
O53 O 0.76196 0.52752 0.35579 0.0
O54 O 0.66204 0.495 0.42247 0.0
Zn55 Zn 0.69906 0.50301 0.38753 0.0
O56 O 0.69176 0.46173 0.35771 0.0
C57 C 0.68864 0.55468 0.34865 0.0
O58 O 0.66247 0.52663 0.35287 0.0
O59 O 0.73362 0.50898 0.40672 0.0
C60 C 0.66863 0.43137 0.36485 0.0
O61 O 0.64973 0.42554 0.39356 0.0
C62 C 0.65453 0.47784 0.45086 0.0
O63 O 0.67179 0.46304 0.45928 0.0
O64 O 0.70851 0.55082 0.36085 0.0
C65 C 0.06685 0.62046 0.83343 0.0
O66 O 0.05352 0.58423 0.83201 0.0
O67 O 0.98944 0.57783 0.82643 0.0
Zn68 Zn 0.02576 0.61748 0.7972 0.0
O69 O 0.04195 0.58932 0.76311 0.0
C70 C 0.03512 0.68445 0.75856 0.0
O71 O 0.06191 0.6969 0.76421 0.0
O72 O 0.05762 0.64221 0.821 0.0
C73 C 0.03716 0.58632 0.73447 0.0
O74 O 0.02163 0.60335 0.72538 0.0
C75 C 0.96846 0.56122 0.81243 0.0
O76 O 0.97038 0.57484 0.78295 0.0
O77 O 0.01554 0.65345 0.77332 0.0
C78 C 0.93808 0.57593 0.48237 0.0
O79 O 0.94591 0.54865 0.48888 0.0
O80 O 0.01113 0.59428 0.49645 0.0
Zn81 Zn 0.97852 0.60958 0.52075 0.0
O82 O 0.95581 0.56875 0.55802 0.0
C83 C 0.0212 0.68035 0.535 0.0
O84 O 0.04067 0.67419 0.51165 0.0
O85 O 0.95029 0.60746 0.49293 0.0
C86 C 0.95982 0.57111 0.587 0.0
O87 O 0.97796 0.60298 0.59472 0.0
C88 C 0.02765 0.58902 0.51333 0.0
O89 O 0.02551 0.59913 0.54336 0.0
O90 O 0.9938 0.65856 0.54037 0.0
C91 C 0.26114 0.73697 0.89998 0.0
O92 O 0.28628 0.73779 0.88138 0.0
O93 O 0.33055 0.82271 0.8927 0.0
Zn94 Zn 0.29915 0.79466 0.93323 0.0
O95 O 0.31521 0.7703 0.96209 0.0
C96 C 0.31006 0.86258 0.9637 0.0
O97 O 0.33778 0.86713 0.9508 0.0
O98 O 0.26188 0.75812 0.92308 0.0
C99 C 0.34315 0.78299 0.95981 0.0
O100 O 0.36124 0.8086 0.93578 0.0
C101 C 0.32631 0.83145 0.8656 0.0
O102 O 0.29909 0.8191 0.8612 0.0
O103 O 0.28893 0.83312 0.95924 0.0
C104 C 0.49363 0.35052 0.16447 0.0
O105 O 0.51582 0.33958 0.15738 0.0
O106 O 0.55022 0.45359 0.19592 0.0
Zn107 Zn 0.52836 0.39785 0.2065 0.0
O108 O 0.55693 0.37226 0.19976 0.0
C109 C 0.53262 0.40793 0.27134 0.0
O110 O 0.56077 0.42091 0.2551 0.0
O111 O 0.49463 0.37546 0.18425 0.0
C112 C 0.58359 0.38885 0.18293 0.0
O113 O 0.59011 0.41814 0.16258 0.0
C114 C 0.5611 0.47624 0.1701 0.0
O115 O 0.55894 0.46355 0.14134 0.0
O116 O 0.5125 0.39391 0.25551 0.0
C117 C 0.19032 0.42231 0.53599 0.0
O118 O 0.17866 0.44674 0.53293 0.0
O119 O 0.11843 0.38804 0.50766 0.0
Zn120 Zn 0.12934 0.37452 0.54798 0.0
O121 O 0.1194 0.40969 0.57926 0.0
C122 C 0.08665 0.29447 0.55881 0.0
O123 O 0.08603 0.29659 0.52774 0.0
O124 O 0.17328 0.38772 0.54112 0.0
C125 C 0.09398 0.40048 0.5991 0.0
O126 O 0.07423 0.36587 0.6017 0.0
C127 C 0.09105 0.38203 0.51119 0.0
O128 O 0.07144 0.35869 0.53593 0.0
O129 O 0.10442 0.32218 0.56995 0.0
C130 C 0.58927 0.1262 0.81958 0.0
O131 O 0.57423 0.13201 0.84747 0.0
O132 O 0.51101 0.04991 0.78337 0.0
Zn133 Zn 0.53052 0.08468 0.81455 0.0
O134 O 0.5121 0.12189 0.82747 0.0
C135 C 0.50719 0.01908 0.86346 0.0
O136 O 0.50135 0.99838 0.83913 0.0
O137 O 0.57504 0.10754 0.79946 0.0
C138 C 0.48405 0.10615 0.83946 0.0
O139 O 0.47047 0.07003 0.83767 0.0
C140 C 0.49482 0.05589 0.76649 0.0
O141 O 0.4942 0.08923 0.76466 0.0
O142 O 0.5201 0.05445 0.85771 0.0
C143 C 0.65227 0.84294 0.22859 0.0
O144 O 0.67199 0.8386 0.20426 0.0
O145 O 0.66395 0.75523 0.2338 0.0
Zn146 Zn 0.66899 0.79534 0.26552 0.0
O147 O 0.65038 0.77058 0.31235 0.0
C148 C 0.73205 0.81491 0.2602 0.0
O149 O 0.76051 0.83714 0.25285 0.0
O150 O 0.64758 0.82734 0.25705 0.0
C151 C 0.63368 0.73581 0.31748 0.0
O152 O 0.62929 0.71624 0.29225 0.0
C153 C 0.64068 0.74232 0.2226 0.0
O154 O 0.62072 0.75692 0.23041 0.0
O155 O 0.71278 0.82802 0.25843 0.0
C156 C 0.38879 0.17715 0.98486 0.0
C157 C 0.38485 0.15207 0.01121 0.0
C158 C 0.40715 0.17785 0.95393 0.0
C159 C 0.42181 0.15296 0.94946 0.0
C160 C 0.41931 0.12929 0.97657 0.0
C161 C 0.40087 0.12916 0.00705 0.0
C162 C 0.40944 0.20362 0.92566 0.0
C163 C 0.43471 0.10244 0.97302 0.0
C164 C 0.43679 0.10861 0.87131 0.0
C165 C 0.46804 0.12514 0.86163 0.0
C166 C 0.42115 0.11986 0.89833 0.0
C167 C 0.43721 0.14828 0.91614 0.0
C168 C 0.46852 0.16753 0.90457 0.0
C169 C 0.48363 0.15576 0.87729 0.0
C170 C 0.3877 0.09886 0.90959 0.0
C171 C 0.48639 0.19817 0.92272 0.0
H172 H 0.37651 0.195 0.98796 0.0
H173 H 0.39824 0.11004 0.02741 0.0
H174 H 0.4329 0.21765 0.91126 0.0
H175 H 0.39614 0.18701 0.90886 0.0
H176 H 0.40093 0.22531 0.93417 0.0
H177 H 0.43257 0.08834 0.99705 0.0
H178 H 0.42484 0.08061 0.95711 0.0
H179 H 0.45879 0.11737 0.96105 0.0
H180 H 0.42461 0.08524 0.85899 0.0
H181 H 0.5078 0.16872 0.86989 0.0
H182 H 0.37663 0.11857 0.9157 0.0
H183 H 0.38229 0.08024 0.9322 0.0
H184 H 0.3782 0.0814 0.89067 0.0
H185 H 0.47486 0.21706 0.93072 0.0
H186 H 0.50911 0.21504 0.90738 0.0
H187 H 0.48872 0.18549 0.9451 0.0
C188 C 0.62275 0.73729 0.37882 0.0
C189 C 0.61888 0.71723 0.35122 0.0
C190 C 0.60818 0.71957 0.41076 0.0
C191 C 0.58941 0.68096 0.41507 0.0
C192 C 0.58578 0.66053 0.38729 0.0
C193 C 0.60042 0.67893 0.35578 0.0
C194 C 0.61265 0.74212 0.43984 0.0
C195 C 0.56617 0.61918 0.39078 0.0
C196 C 0.56754 0.61715 0.49273 0.0
C197 C 0.53727 0.61065 0.50391 0.0
C198 C 0.58558 0.6422 0.46504 0.0
C199 C 0.57307 0.66146 0.4484 0.0
C200 C 0.54332 0.65766 0.46142 0.0
C201 C 0.52573 0.63226 0.48909 0.0
C202 C 0.61721 0.6455 0.45204 0.0
C203 C 0.52923 0.67794 0.44452 0.0
H204 H 0.63706 0.76686 0.37549 0.0
H205 H 0.5972 0.66316 0.33466 0.0
H206 H 0.59094 0.7417 0.45389 0.0
H207 H 0.62126 0.72945 0.45672 0.0
H208 H 0.62848 0.77169 0.43237 0.0
H209 H 0.56639 0.60723 0.36671 0.0
H210 H 0.57368 0.60359 0.40648 0.0
H211 H 0.5428 0.61442 0.403 0.0
H212 H 0.57676 0.60105 0.50448 0.0
H213 H 0.5024 0.62756 0.49766 0.0
H214 H 0.63273 0.67518 0.44482 0.0
H215 H 0.61841 0.63027 0.42975 0.0
H216 H 0.62498 0.6335 0.47037 0.0
H217 H 0.50768 0.67638 0.46019 0.0
H218 H 0.52502 0.66521 0.42149 0.0
H219 H 0.54448 0.70779 0.43772 0.0
C220 C 0.95793 0.53681 0.63857 0.0
C221 C 0.94788 0.53674 0.60985 0.0
C222 C 0.94973 0.50334 0.65809 0.0
C223 C 0.93107 0.46912 0.64861 0.0
C224 C 0.91967 0.46916 0.62061 0.0
C225 C 0.92826 0.50294 0.60154 0.0
C226 C 0.96215 0.50442 0.68795 0.0
C227 C 0.89927 0.43331 0.61005 0.0
C228 C 0.93707 0.37871 0.67178 0.0
C229 C 0.91196 0.36233 0.6981 0.0
C230 C 0.94386 0.41382 0.65594 0.0
C231 C 0.92501 0.43297 0.66657 0.0
C232 C 0.89985 0.41685 0.69337 0.0
C233 C 0.89366 0.38176 0.70888 0.0
C234 C 0.97084 0.43001 0.6273 0.0
C235 C 0.87901 0.43619 0.7051 0.0
H236 H 0.97311 0.56279 0.6452 0.0
H237 H 0.9202 0.50266 0.57955 0.0
H238 H 0.94418 0.48802 0.70954 0.0
H239 H 0.97863 0.49139 0.68322 0.0
H240 H 0.97329 0.53344 0.69423 0.0
H241 H 0.89027 0.43851 0.58944 0.0
H242 H 0.91169 0.41538 0.60209 0.0
H243 H 0.88029 0.41739 0.63097 0.0
H244 H 0.95142 0.36402 0.66337 0.0
H245 H 0.87428 0.36941 0.7293 0.0
H246 H 0.98449 0.45946 0.6303 0.0
H247 H 0.96346 0.43002 0.60423 0.0
H248 H 0.98514 0.41387 0.62456 0.0
H249 H 0.89176 0.46556 0.7093 0.0
H250 H 0.86215 0.42172 0.72817 0.0
H251 H 0.86713 0.43704 0.68589 0.0
C252 C 0.40617 0.78045 0.11864 0.0
C253 C 0.39587 0.8048 0.13715 0.0
C254 C 0.39492 0.7658 0.09151 0.0
C255 C 0.3734 0.77642 0.08255 0.0
C256 C 0.36037 0.79715 0.10353 0.0
C257 C 0.37143 0.81054 0.13096 0.0
C258 C 0.40827 0.74217 0.07068 0.0
C259 C 0.33748 0.80937 0.09483 0.0
C260 C 0.38053 0.80314 0.99366 0.0
C261 C 0.35408 0.77627 0.98815 0.0
C262 C 0.38796 0.80217 0.02383 0.0
C263 C 0.3689 0.77294 0.04868 0.0
C264 C 0.34376 0.74371 0.04205 0.0
C265 C 0.33634 0.74602 0.01196 0.0
C266 C 0.41501 0.834 0.02993 0.0
C267 C 0.32361 0.71133 0.06741 0.0
H268 H 0.4246 0.77513 0.12372 0.0
H269 H 0.36289 0.82871 0.1455 0.0
H270 H 0.39125 0.72042 0.06041 0.0
H271 H 0.42624 0.76022 0.04978 0.0
H272 H 0.41817 0.72837 0.085 0.0
H273 H 0.32696 0.82126 0.11557 0.0
H274 H 0.34849 0.83112 0.07361 0.0
H275 H 0.3197 0.78559 0.08746 0.0
H276 H 0.39439 0.82654 0.97534 0.0
H277 H 0.31604 0.72492 0.0076 0.0
H278 H 0.43077 0.823 0.03618 0.0
H279 H 0.40814 0.84825 0.05115 0.0
H280 H 0.42703 0.8551 0.00833 0.0
H281 H 0.33673 0.70239 0.08118 0.0
H282 H 0.31005 0.68699 0.05597 0.0
H283 H 0.30811 0.72005 0.08536 0.0
C284 C 0.62935 0.39315 0.33745 0.0
C285 C 0.65951 0.40852 0.33813 0.0
C286 C 0.62084 0.38116 0.3084 0.0
C287 C 0.64305 0.38356 0.27979 0.0
C288 C 0.67288 0.39355 0.28196 0.0
C289 C 0.68099 0.407 0.31094 0.0
C290 C 0.58842 0.36907 0.30772 0.0
C291 C 0.69662 0.39275 0.25304 0.0
C292 C 0.60427 0.35213 0.21109 0.0
C293 C 0.60684 0.38662 0.19788 0.0
C294 C 0.61952 0.35055 0.23505 0.0
C295 C 0.63609 0.38414 0.24722 0.0
C296 C 0.64087 0.41907 0.23167 0.0
C297 C 0.62684 0.41978 0.20647 0.0
C298 C 0.61564 0.31278 0.249 0.0
C299 C 0.65753 0.45574 0.24433 0.0
H300 H 0.61264 0.39373 0.35867 0.0
H301 H 0.70429 0.41796 0.31176 0.0
H302 H 0.58625 0.38551 0.28759 0.0
H303 H 0.57922 0.33923 0.30298 0.0
H304 H 0.57457 0.37231 0.33124 0.0
H305 H 0.71466 0.38816 0.26136 0.0
H306 H 0.68708 0.3704 0.23738 0.0
H307 H 0.70686 0.41997 0.23778 0.0
H308 H 0.58892 0.32642 0.20425 0.0
H309 H 0.62865 0.44647 0.19642 0.0
H310 H 0.59346 0.29948 0.26644 0.0
H311 H 0.63317 0.31473 0.26198 0.0
H312 H 0.6162 0.29411 0.22906 0.0
H313 H 0.64582 0.45644 0.26997 0.0
H314 H 0.65935 0.48034 0.22923 0.0
H315 H 0.68037 0.45862 0.24456 0.0
C316 C 0.10587 0.46673 0.61224 0.0
C317 C 0.08599 0.42897 0.61745 0.0
C318 C 0.0984 0.494 0.6293 0.0
C319 C 0.0705 0.48321 0.65224 0.0
C320 C 0.05004 0.44532 0.65701 0.0
C321 C 0.05802 0.41867 0.63954 0.0
C322 C 0.12043 0.5343 0.62304 0.0
C323 C 0.01988 0.43282 0.68093 0.0
C324 C 0.06186 0.54136 0.72321 0.0
C325 C 0.04715 0.56164 0.71253 0.0
C326 C 0.07006 0.51633 0.70346 0.0
C327 C 0.06315 0.51116 0.67237 0.0
C328 C 0.04875 0.53205 0.66116 0.0
C329 C 0.04119 0.5573 0.68128 0.0
C330 C 0.08592 0.49516 0.716 0.0
C331 C 0.04155 0.52857 0.62787 0.0
H332 H 0.12732 0.47506 0.5948 0.0
H333 H 0.04231 0.38972 0.64331 0.0
H334 H 0.10997 0.55202 0.61479 0.0
H335 H 0.12668 0.54441 0.64616 0.0
H336 H 0.14105 0.5382 0.6041 0.0
H337 H 0.00524 0.40337 0.67894 0.0
H338 H 0.02282 0.43527 0.7064 0.0
H339 H 0.00846 0.45115 0.67671 0.0
H340 H 0.06675 0.54472 0.74722 0.0
H341 H 0.03021 0.57325 0.67259 0.0
H342 H 0.10729 0.50006 0.69806 0.0
H343 H 0.07205 0.46467 0.71866 0.0
H344 H 0.09074 0.5035 0.74013 0.0
H345 H 0.05982 0.55095 0.61013 0.0
H346 H 0.02067 0.53267 0.62863 0.0
H347 H 0.03918 0.50119 0.61847 0.0
C348 C 0.2805 0.03438 0.04355 0.0
C349 C 0.28151 0.03466 0.07674 0.0
C350 C 0.28262 0.00484 0.0255 0.0
C351 C 0.28565 0.97477 0.04106 0.0
C352 C 0.28488 0.97378 0.07501 0.0
C353 C 0.28282 0.00375 0.09246 0.0
C354 C 0.28336 0.0069 0.98932 0.0
C355 C 0.28793 0.9421 0.09251 0.0
C356 C 0.27415 0.88608 0.99807 0.0
C357 C 0.30367 0.89122 0.98343 0.0
C358 C 0.26791 0.91299 0.017 0.0
C359 C 0.29175 0.9458 0.02131 0.0
C360 C 0.32159 0.95119 0.00657 0.0
C361 C 0.32719 0.92381 0.98784 0.0
C362 C 0.23584 0.90633 0.0324 0.0
C363 C 0.34764 0.98588 0.01059 0.0
H364 H 0.27948 0.0581 0.03117 0.0
H365 H 0.28363 0.00368 0.11808 0.0
H366 H 0.30598 0.01112 0.97473 0.0
H367 H 0.26739 0.98027 0.98315 0.0
H368 H 0.27789 0.0302 0.98168 0.0
H369 H 0.28327 0.94317 0.11958 0.0
H370 H 0.27251 0.91469 0.08694 0.0
H371 H 0.31099 0.94361 0.08369 0.0
H372 H 0.25586 0.86096 0.99481 0.0
H373 H 0.35006 0.92802 0.97663 0.0
H374 H 0.23065 0.92927 0.02344 0.0
H375 H 0.23232 0.90648 0.05946 0.0
H376 H 0.21987 0.87928 0.02678 0.0
H377 H 0.3454 0.01128 0.00184 0.0
H378 H 0.36945 0.98622 0.99684 0.0
H379 H 0.34776 0.98763 0.03698 0.0
C380 C 0.49527 0.40689 0.32256 0.0
C381 C 0.52487 0.41408 0.30646 0.0
C382 C 0.48831 0.41747 0.35433 0.0
C383 C 0.51145 0.43519 0.37053 0.0
C384 C 0.54109 0.44027 0.35527 0.0
C385 C 0.54749 0.43006 0.32327 0.0
C386 C 0.45644 0.41179 0.3697 0.0
C387 C 0.56637 0.45845 0.37187 0.0
C388 C 0.49879 0.50495 0.42839 0.0
C389 C 0.48828 0.48392 0.45903 0.0
C390 C 0.50714 0.48966 0.39957 0.0
C391 C 0.50511 0.45241 0.40141 0.0
C392 C 0.4956 0.43146 0.43242 0.0
C393 C 0.48708 0.44743 0.46092 0.0
C394 C 0.51743 0.51313 0.36705 0.0
C395 C 0.49383 0.392 0.43537 0.0
H396 H 0.47766 0.39452 0.30981 0.0
H397 H 0.57046 0.4358 0.31107 0.0
H398 H 0.44927 0.39796 0.39506 0.0
H399 H 0.45484 0.4394 0.37137 0.0
H400 H 0.4407 0.39465 0.35529 0.0
H401 H 0.58652 0.45346 0.35992 0.0
H402 H 0.5725 0.4891 0.37056 0.0
H403 H 0.55957 0.44789 0.39823 0.0
H404 H 0.50019 0.53341 0.42683 0.0
H405 H 0.47874 0.43106 0.48454 0.0
H406 H 0.50243 0.49923 0.35081 0.0
H407 H 0.54021 0.51586 0.35445 0.0
H408 H 0.51776 0.54163 0.36993 0.0
H409 H 0.47679 0.37361 0.42302 0.0
H410 H 0.48793 0.38042 0.46139 0.0
H411 H 0.51552 0.39117 0.42283 0.0
C412 C 0.06398 0.25384 0.61157 0.0
C413 C 0.06037 0.26848 0.58307 0.0
C414 C 0.04021 0.24006 0.63963 0.0
C415 C 0.01291 0.24294 0.6395 0.0
C416 C 0.0084 0.2544 0.60976 0.0
C417 C 0.03212 0.26638 0.58165 0.0
C418 C 0.04533 0.22602 0.67032 0.0
C419 C 0.9799 0.25864 0.60858 0.0
C420 C 0.94395 0.21279 0.7106 0.0
C421 C 0.9491 0.24615 0.72566 0.0
C422 C 0.96552 0.21016 0.68388 0.0
C423 C 0.99204 0.24222 0.67113 0.0
C424 C 0.99765 0.27551 0.68709 0.0
C425 C 0.97639 0.27677 0.71453 0.0
C426 C 0.95925 0.17365 0.66859 0.0
C427 C 0.02514 0.3108 0.67383 0.0
H428 H 0.08588 0.25545 0.61261 0.0
H429 H 0.02944 0.27812 0.55971 0.0
H430 H 0.05055 0.24869 0.68687 0.0
H431 H 0.02498 0.20213 0.6838 0.0
H432 H 0.0643 0.21713 0.66453 0.0
H433 H 0.97866 0.26383 0.583 0.0
H434 H 0.96014 0.23328 0.62054 0.0
H435 H 0.97866 0.28258 0.62229 0.0
H436 H 0.92287 0.18901 0.71929 0.0
H437 H 0.98034 0.30276 0.72586 0.0
H438 H 0.98 0.16881 0.65986 0.0
H439 H 0.94988 0.17439 0.64712 0.0
H440 H 0.94275 0.14964 0.68625 0.0
H441 H 0.04562 0.30563 0.67233 0.0
H442 H 0.02613 0.33429 0.68921 0.0
H443 H 0.02527 0.31953 0.6486 0.0
C444 C 0.47769 0.94111 0.04963 0.0
C445 C 0.44762 0.92972 0.0662 0.0
C446 C 0.48723 0.95295 0.01588 0.0
C447 C 0.46625 0.95372 0.99842 0.0
C448 C 0.43575 0.9414 0.01485 0.0
C449 C 0.42681 0.92949 0.04851 0.0
C450 C 0.51987 0.96533 0.99902 0.0
C451 C 0.41265 0.94159 0.99707 0.0
C452 C 0.49596 0.02448 0.92378 0.0
C453 C 0.49697 0.00195 0.89781 0.0
C454 C 0.48564 0.00897 0.95654 0.0
C455 C 0.47659 0.97001 0.96361 0.0
C456 C 0.47762 0.94706 0.93753 0.0
C457 C 0.4875 0.96328 0.90488 0.0
C458 C 0.4842 0.0343 0.98359 0.0
C459 C 0.46799 0.90537 0.94401 0.0
H460 H 0.49384 0.941 0.06305 0.0
H461 H 0.40346 0.92046 0.06107 0.0
H462 H 0.52243 0.94983 0.97712 0.0
H463 H 0.52944 0.99552 0.9903 0.0
H464 H 0.53301 0.96081 0.01553 0.0
H465 H 0.38985 0.93127 0.0135 0.0
H466 H 0.41851 0.97039 0.9864 0.0
H467 H 0.41231 0.92374 0.97644 0.0
H468 H 0.50282 0.05434 0.91853 0.0
H469 H 0.488 0.94569 0.8849 0.0
H470 H 0.49855 0.0331 -9e-05 0.0
H471 H 0.46101 0.02463 0.9989 0.0
H472 H 0.49152 0.0639 0.9739 0.0
H473 H 0.47736 0.89889 0.96373 0.0
H474 H 0.47497 0.89268 0.92165 0.0
H475 H 0.44331 0.89192 0.95238 0.0
C476 C 0.70958 0.76212 0.30378 0.0
C477 C 0.72274 0.77525 0.27071 0.0
C478 C 0.70226 0.72487 0.31482 0.0
C479 C 0.7085 0.70045 0.29212 0.0
C480 C 0.72113 0.7135 0.25844 0.0
C481 C 0.72837 0.751 0.24816 0.0
C482 C 0.68871 0.71198 0.35091 0.0
C483 C 0.72808 0.68834 0.23351 0.0
C484 C 0.72194 0.62126 0.32845 0.0
C485 C 0.69425 0.59116 0.33193 0.0
C486 C 0.72706 0.65671 0.31472 0.0
C487 C 0.70393 0.66225 0.3042 0.0
C488 C 0.6762 0.63178 0.30674 0.0
C489 C 0.67168 0.59654 0.32057 0.0
C490 C 0.757 0.6885 0.31229 0.0
C491 C 0.65116 0.63664 0.29545 0.0
H492 H 0.70564 0.78129 0.32114 0.0
H493 H 0.7387 0.76151 0.22256 0.0
H494 H 0.66754 0.68684 0.35417 0.0
H495 H 0.70411 0.7039 0.3615 0.0
H496 H 0.68409 0.734 0.36505 0.0
H497 H 0.73356 0.70093 0.2079 0.0
H498 H 0.74745 0.68308 0.23732 0.0
H499 H 0.70894 0.66084 0.23666 0.0
H500 H 0.73956 0.61734 0.337 0.0
H501 H 0.65025 0.57339 0.323 0.0
H502 H 0.75409 0.71044 0.32784 0.0
H503 H 0.76684 0.70156 0.28662 0.0
H504 H 0.77305 0.67918 0.32026 0.0
H505 H 0.64562 0.65862 0.30852 0.0
H506 H 0.63066 0.61039 0.29987 0.0
H507 H 0.65838 0.64615 0.26883 0.0
C508 C 0.0078 0.67597 0.71444 0.0
C509 C 0.03071 0.69907 0.72843 0.0
C510 C 0.0083 0.68315 0.6816 0.0
C511 C 0.03132 0.7155 0.66282 0.0
C512 C 0.05211 0.74159 0.67813 0.0
C513 C 0.05199 0.73267 0.71067 0.0
C514 C 0.98609 0.65387 0.6662 0.0
C515 C 0.07585 0.77749 0.65956 0.0
C516 C 0.05185 0.69373 0.57565 0.0
C517 C 0.03108 0.70107 0.56241 0.0
C518 C 0.05409 0.70134 0.60781 0.0
C519 C 0.036 0.71816 0.62651 0.0
C520 C 0.01805 0.73025 0.61153 0.0
C521 C 0.01514 0.72059 0.57983 0.0
C522 C 0.073 0.68708 0.62297 0.0
C523 C -0.00019 0.75021 0.62998 0.0
H524 H 0.99093 0.65024 0.72812 0.0
H525 H 0.06943 0.75108 0.72155 0.0
H526 H 0.97492 0.66676 0.65299 0.0
H527 H 0.99803 0.64084 0.64796 0.0
H528 H 0.96866 0.63136 0.68462 0.0
H529 H 0.08391 0.79895 0.67655 0.0
H530 H 0.0952 0.77203 0.64576 0.0
H531 H 0.06741 0.78895 0.64161 0.0
H532 H 0.06393 0.67825 0.56228 0.0
H533 H -0.00089 0.72633 0.56948 0.0
H534 H 0.05826 0.66323 0.64166 0.0
H535 H 0.08734 0.70919 0.63562 0.0
H536 H 0.08749 0.67742 0.60442 0.0
H537 H 0.9788 0.72942 0.64576 0.0
H538 H 0.99384 0.76625 0.61288 0.0
H539 H 0.01212 0.76961 0.64612 0.0
C540 C 0.36962 0.9734 0.17044 0.0
C541 C 0.38925 0.97209 0.18912 0.0
C542 C 0.36491 0.00607 0.16611 0.0
C543 C 0.37936 0.03785 0.18185 0.0
C544 C 0.39763 0.03586 0.20259 0.0
C545 C 0.40288 0.00317 0.20544 0.0
C546 C 0.34579 0.00718 0.14312 0.0
C547 C 0.41246 0.06862 0.22077 0.0
C548 C 0.39222 0.12734 0.13419 0.0
C549 C 0.36553 0.13153 0.14761 0.0
C550 C 0.3981 0.09833 0.14666 0.0
C551 C 0.37723 0.07376 0.17389 0.0
C552 C 0.35197 0.08061 0.18983 0.0
C553 C 0.34614 0.10911 0.17616 0.0
C554 C 0.42502 0.09167 0.12845 0.0
C555 C 0.32986 0.05603 0.21973 0.0
H556 H 0.35926 0.94956 0.15751 0.0
H557 H 0.41798 0.00212 0.22002 0.0
H558 H 0.32713 0.01437 0.15622 0.0
H559 H 0.35929 0.02919 0.12247 0.0
H560 H 0.33629 0.98006 0.13273 0.0
H561 H 0.42137 0.06044 0.24018 0.0
H562 H 0.43126 0.09071 0.20327 0.0
H563 H 0.39648 0.08099 0.23224 0.0
H564 H 0.4073 0.14455 0.11208 0.0
H565 H 0.32562 0.11254 0.18681 0.0
H566 H 0.41753 0.06602 0.1155 0.0
H567 H 0.43737 0.08708 0.14579 0.0
H568 H 0.44061 0.11541 0.11 0.0
H569 H 0.31524 0.02941 0.21204 0.0
H570 H 0.3155 0.06965 0.23322 0.0
H571 H 0.34154 0.04901 0.23671 0.0
C572 C 0.60923 0.49252 0.46492 0.0
C573 C 0.62685 0.47559 0.47422 0.0
C574 C 0.5837 0.49236 0.48704 0.0
C575 C 0.57564 0.475 0.51938 0.0
C576 C 0.59271 0.45675 0.52861 0.0
C577 C 0.61821 0.45737 0.50593 0.0
C578 C 0.56624 0.5122 0.47597 0.0
C579 C 0.58435 0.43714 0.56262 0.0
C580 C 0.53052 0.50979 0.58639 0.0
C581 C 0.50142 0.48459 0.58732 0.0
C582 C 0.55496 0.50707 0.56424 0.0
C583 C 0.55007 0.4773 0.54385 0.0
C584 C 0.52069 0.45057 0.54611 0.0
C585 C 0.49657 0.45484 0.56761 0.0
C586 C 0.58581 0.53684 0.56171 0.0
C587 C 0.51483 0.41764 0.52576 0.0
H588 H 0.61561 0.50654 0.44041 0.0
H589 H 0.63157 0.44397 0.51321 0.0
H590 H 0.54188 0.49671 0.48585 0.0
H591 H 0.57271 0.54017 0.48531 0.0
H592 H 0.57087 0.51616 0.44875 0.0
H593 H 0.59855 0.42184 0.56511 0.0
H594 H 0.58666 0.45791 0.58104 0.0
H595 H 0.56065 0.41702 0.56865 0.0
H596 H 0.53402 0.53256 0.60202 0.0
H597 H 0.47394 0.43491 0.56912 0.0
H598 H 0.59484 0.55169 0.53662 0.0
H599 H 0.60114 0.5239 0.56572 0.0
H600 H 0.58584 0.55774 0.57976 0.0
H601 H 0.52437 0.42749 0.49928 0.0
H602 H 0.49063 0.39998 0.52964 0.0
H603 H 0.52611 0.40004 0.53221 0.0
C604 C 0.94311 0.50815 0.85705 0.0
C605 C 0.94651 0.52295 0.82518 0.0
C606 C 0.92612 0.46994 0.86714 0.0
C607 C 0.91303 0.44602 0.84446 0.0
C608 C 0.91514 0.46126 0.81286 0.0
C609 C 0.93149 0.49958 0.80382 0.0
C610 C 0.92367 0.45504 0.90134 0.0
C611 C 0.90181 0.43676 0.78768 0.0
C612 C 0.90455 0.3464 0.8381 0.0
C613 C 0.87347 0.3283 0.84288 0.0
C614 C 0.91794 0.38457 0.84204 0.0
C615 C 0.89972 0.4047 0.85176 0.0
C616 C 0.86834 0.38524 0.86157 0.0
C617 C 0.8555 0.34717 0.85677 0.0
C618 C 0.95154 0.40415 0.83165 0.0
C619 C 0.84824 0.40542 0.8736 0.0
H620 H 0.95451 0.52616 0.87377 0.0
H621 H 0.93398 0.51074 0.77915 0.0
H622 H 0.90148 0.43219 0.91155 0.0
H623 H 0.94084 0.44349 0.90053 0.0
H624 H 0.92745 0.47748 0.91827 0.0
H625 H 0.90468 0.45329 0.76468 0.0
H626 H 0.91263 0.41678 0.78142 0.0
H627 H 0.87762 0.42012 0.79779 0.0
H628 H 0.91866 0.33189 0.82801 0.0
H629 H 0.83142 0.33313 0.86134 0.0
H630 H 0.96014 0.42403 0.8495 0.0
H631 H 0.95805 0.42049 0.80747 0.0
H632 H 0.96252 0.38405 0.82932 0.0
H633 H 0.85793 0.427 0.88978 0.0
H634 H 0.82564 0.38573 0.88722 0.0
H635 H 0.84582 0.41982 0.85224 0.0
C636 C 0.05874 0.55539 0.52353 0.0
C637 C 0.04407 0.56501 0.5024 0.0
C638 C 0.06916 0.52693 0.51713 0.0
C639 C 0.06498 0.50774 0.48874 0.0
C640 C 0.0525 0.51943 0.46589 0.0
C641 C 0.04205 0.5479 0.47305 0.0
C642 C 0.0824 0.51545 0.54223 0.0
C643 C 0.04826 0.50018 0.43505 0.0
C644 C 0.1051 0.44238 0.47758 0.0
C645 C 0.08292 0.40991 0.49627 0.0
C646 C 0.09892 0.4738 0.47202 0.0
C647 C 0.07005 0.47263 0.48575 0.0
C648 C 0.04689 0.43865 0.50155 0.0
C649 C 0.05355 0.40756 0.50625 0.0
C650 C 0.124 0.50926 0.45433 0.0
C651 C 0.01574 0.43612 0.51658 0.0
H652 H 0.06066 0.56864 0.54613 0.0
H653 H 0.03095 0.55536 0.45645 0.0
H654 H 0.06567 0.48905 0.55669 0.0
H655 H 0.10235 0.51021 0.53016 0.0
H656 H 0.08898 0.53706 0.55952 0.0
H657 H 0.044 0.51706 0.41696 0.0
H658 H 0.06813 0.49458 0.42333 0.0
H659 H 0.02886 0.47284 0.44143 0.0
H660 H 0.1278 0.44433 0.46939 0.0
H661 H 0.03613 0.38239 0.52023 0.0
H662 H 0.1324 0.52863 0.47263 0.0
H663 H 0.11607 0.52367 0.43807 0.0
H664 H 0.14291 0.50364 0.43939 0.0
H665 H 0.01604 0.45204 0.53856 0.0
H666 H -0.00046 0.40675 0.52428 0.0
H667 H 0.00774 0.44872 0.49899 0.0
C668 C 0.34993 0.86547 0.80913 0.0
C669 C 0.35135 0.86018 0.8417 0.0
C670 C 0.37281 0.89492 0.78734 0.0
C671 C 0.39696 0.92028 0.79891 0.0
C672 C 0.39873 0.91446 0.83162 0.0
C673 C 0.37616 0.88421 0.85238 0.0
C674 C 0.3706 0.89937 0.75239 0.0
C675 C 0.42395 0.94095 0.84521 0.0
C676 C 0.47292 0.98931 0.75537 0.0
C677 C 0.46942 0.02288 0.76141 0.0
C678 C 0.44823 0.95489 0.76305 0.0
C679 C 0.41981 0.95432 0.77815 0.0
C680 C 0.41569 0.9883 0.7802 0.0
C681 C 0.44063 0.02234 0.77129 0.0
C682 C 0.45321 0.91922 0.75873 0.0
C683 C 0.38579 0.98902 0.79619 0.0
H684 H 0.33086 0.84678 0.80072 0.0
H685 H 0.37737 0.88039 0.87756 0.0
H686 H 0.36111 0.92043 0.75019 0.0
H687 H 0.3929 0.90929 0.73501 0.0
H688 H 0.35578 0.87266 0.74493 0.0
H689 H 0.42145 0.93299 0.87149 0.0
H690 H 0.44558 0.94135 0.83099 0.0
H691 H 0.42501 0.96985 0.84284 0.0
H692 H 0.4952 0.98977 0.74734 0.0
H693 H 0.43784 0.04827 0.77597 0.0
H694 H 0.43409 0.89718 0.7516 0.0
H695 H 0.45522 0.9088 0.78234 0.0
H696 H 0.47403 0.92384 0.73984 0.0
H697 H 0.36763 0.96724 0.78748 0.0
H698 H 0.38521 0.0167 0.7912 0.0
H699 H 0.38122 0.98297 0.82319 0.0
C700 C 0.59091 0.54291 0.14559 0.0
C701 C 0.57605 0.51678 0.1733 0.0
C702 C 0.60464 0.58136 0.14903 0.0
C703 C 0.60312 0.59385 0.18086 0.0
C704 C 0.58862 0.56752 0.20885 0.0
C705 C 0.57539 0.52942 0.20473 0.0
C706 C 0.62061 0.60866 0.11869 0.0
C707 C 0.58655 0.57962 0.24325 0.0
C708 C 0.65284 0.68845 0.20176 0.0
C709 C 0.63346 0.70709 0.20646 0.0
C710 C 0.64413 0.65242 0.19104 0.0
C711 C 0.61521 0.63446 0.18541 0.0
C712 C 0.59628 0.65402 0.18828 0.0
C713 C 0.60571 0.69016 0.19856 0.0
C714 C 0.66523 0.63286 0.18788 0.0
C715 C 0.5652 0.63582 0.18275 0.0
H716 H 0.59179 0.53336 0.12125 0.0
H717 H 0.56412 0.50951 0.22635 0.0
H718 H 0.60941 0.62805 0.11743 0.0
H719 H 0.64389 0.62591 0.11996 0.0
H720 H 0.62113 0.59436 0.09578 0.0
H721 H 0.57488 0.55553 0.26243 0.0
H722 H 0.60924 0.59569 0.24686 0.0
H723 H 0.57439 0.59838 0.24689 0.0
H724 H 0.6744 0.70133 0.20766 0.0
H725 H 0.59065 0.70441 0.2019 0.0
H726 H 0.66309 0.6144 0.16761 0.0
H727 H 0.65989 0.61523 0.21107 0.0
H728 H 0.6888 0.65328 0.1834 0.0
H729 H 0.56577 0.62322 0.15901 0.0
H730 H 0.55443 0.65596 0.18279 0.0
H731 H 0.5511 0.61288 0.20247 0.0
C732 C 0.46432 0.30236 0.13204 0.0
C733 C 0.46681 0.3323 0.1514 0.0
C734 C 0.43826 0.28338 0.1212 0.0
C735 C 0.41401 0.29445 0.13016 0.0
C736 C 0.41671 0.32531 0.14894 0.0
C737 C 0.44306 0.34386 0.15932 0.0
C738 C 0.43651 0.25054 0.10141 0.0
C739 C 0.39147 0.33823 0.15874 0.0
C740 C 0.35215 0.26449 0.08449 0.0
C741 C 0.32966 0.23507 0.10621 0.0
C742 C 0.3801 0.28351 0.09153 0.0
C743 C 0.3853 0.27305 0.1212 0.0
C744 C 0.36251 0.24316 0.14311 0.0
C745 C 0.33483 0.22462 0.13538 0.0
C746 C 0.40396 0.31497 0.06746 0.0
C747 C 0.36733 0.23083 0.17474 0.0
H748 H 0.48253 0.29317 0.12583 0.0
H749 H 0.44482 0.36708 0.17415 0.0
H750 H 0.42578 0.2245 0.11837 0.0
H751 H 0.42312 0.24804 0.08305 0.0
H752 H 0.45908 0.2527 0.08838 0.0
H753 H 0.39762 0.36372 0.17211 0.0
H754 H 0.38469 0.34425 0.13663 0.0
H755 H 0.37173 0.31566 0.17475 0.0
H756 H 0.34783 0.2726 0.06204 0.0
H757 H 0.31705 0.20223 0.15235 0.0
H758 H 0.42434 0.3091 0.05986 0.0
H759 H 0.41019 0.34146 0.07938 0.0
H760 H 0.39661 0.31907 0.04515 0.0
H761 H 0.38707 0.22347 0.1694 0.0
H762 H 0.34769 0.20624 0.18851 0.0
H763 H 0.37196 0.25414 0.1907 0.0
C764 C 0.23983 0.47365 0.53501 0.0
C765 C 0.22203 0.43524 0.53723 0.0
C766 C 0.26907 0.48643 0.53914 0.0
C767 C 0.28082 0.46017 0.54553 0.0
C768 C 0.26331 0.42139 0.54681 0.0
C769 C 0.23411 0.40938 0.54266 0.0
C770 C 0.28711 0.52801 0.53751 0.0
C771 C 0.27517 0.39255 0.55336 0.0
C772 C 0.36464 0.49119 0.53206 0.0
C773 C 0.36833 0.4952 0.56429 0.0
C774 C 0.33634 0.48021 0.52554 0.0
C775 C 0.31112 0.47318 0.55185 0.0
C776 C 0.31472 0.47789 0.58434 0.0
C777 C 0.3433 0.48881 0.59018 0.0
C778 C 0.33336 0.47551 0.49057 0.0
C779 C 0.28832 0.47083 0.61301 0.0
H780 H 0.2307 0.49385 0.53079 0.0
H781 H 0.22054 0.37966 0.54434 0.0
H782 H 0.29221 0.53541 0.56166 0.0
H783 H 0.30875 0.53607 0.51915 0.0
H784 H 0.2752 0.54477 0.5309 0.0
H785 H 0.25919 0.36355 0.55223 0.0
H786 H 0.29649 0.39783 0.5352 0.0
H787 H 0.27995 0.39476 0.57806 0.0
H788 H 0.38385 0.49608 0.51186 0.0
H789 H 0.34594 0.49191 0.61513 0.0
H790 H 0.32233 0.49316 0.48358 0.0
H791 H 0.31903 0.44602 0.48843 0.0
H792 H 0.3553 0.48311 0.47278 0.0
H793 H 0.27636 0.48853 0.60887 0.0
H794 H 0.29501 0.47675 0.63665 0.0
H795 H 0.27231 0.44122 0.61515 0.0
C796 C 0.63797 0.16206 0.83359 0.0
C797 C 0.62197 0.138 0.81329 0.0
C798 C 0.66872 0.17192 0.82908 0.0
C799 C 0.68373 0.15702 0.80389 0.0
C800 C 0.66773 0.1328 0.78323 0.0
C801 C 0.63705 0.12375 0.78805 0.0
C802 C 0.68516 0.1983 0.85128 0.0
C803 C 0.68299 0.1162 0.75626 0.0
C804 C 0.7673 0.21033 0.77359 0.0
C805 C 0.77832 0.19064 0.79153 0.0
C806 C 0.73658 0.19934 0.77706 0.0
C807 C 0.71634 0.1676 0.7987 0.0
C808 C 0.72726 0.14687 0.81613 0.0
C809 C 0.75819 0.15879 0.81249 0.0
C810 C 0.72577 0.22237 0.75829 0.0
C811 C 0.70627 0.11257 0.83911 0.0
H812 H 0.62646 0.17321 0.8531 0.0
H813 H 0.62476 0.10491 0.77241 0.0
H814 H 0.69564 0.18444 0.86463 0.0
H815 H 0.70338 0.22336 0.83639 0.0
H816 H 0.67023 0.2076 0.86957 0.0
H817 H 0.66725 0.09736 0.74267 0.0
H818 H 0.70103 0.13885 0.73854 0.0
H819 H 0.69356 0.1001 0.76682 0.0
H820 H 0.78266 0.23506 0.75739 0.0
H821 H 0.76655 0.14339 0.82632 0.0
H822 H 0.71236 0.23435 0.77578 0.0
H823 H 0.71103 0.20441 0.74336 0.0
H824 H 0.74446 0.24566 0.74173 0.0
H825 H 0.69237 0.12054 0.85975 0.0
H826 H 0.71835 0.09836 0.84939 0.0
H827 H 0.69086 0.09237 0.82602 0.0
C828 C 0.61574 0.87188 0.24871 0.0
C829 C 0.63319 0.86191 0.22238 0.0
C830 C 0.59529 0.88644 0.24352 0.0
C831 C 0.59191 0.89056 0.2113 0.0
C832 C 0.61028 0.88192 0.18448 0.0
C833 C 0.63088 0.86795 0.19033 0.0
C834 C 0.57646 0.89595 0.27267 0.0
C835 C 0.6071 0.88557 0.14979 0.0
C836 C 0.516 0.88104 0.20149 0.0
C837 C 0.52102 0.91819 0.19282 0.0
C838 C 0.53885 0.87183 0.20784 0.0
C839 C 0.56733 0.90053 0.20596 0.0
C840 C 0.57235 0.93824 0.19821 0.0
C841 C 0.54916 0.94662 0.19148 0.0
C842 C 0.53267 0.83121 0.21575 0.0
C843 C 0.60233 0.9696 0.19651 0.0
H844 H 0.61764 0.86761 0.27353 0.0
H845 H 0.64428 0.86027 0.16988 0.0
H846 H 0.57694 0.9242 0.2678 0.0
H847 H 0.55289 0.8757 0.27689 0.0
H848 H 0.5841 0.89515 0.29548 0.0
H849 H 0.62452 0.88032 0.13145 0.0
H850 H 0.58486 0.86522 0.14781 0.0
H851 H 0.60845 0.91393 0.14349 0.0
H852 H 0.49437 0.85886 0.20244 0.0
H853 H 0.55315 0.9754 0.18491 0.0
H854 H 0.53731 0.82732 0.23985 0.0
H855 H 0.54772 0.82262 0.19698 0.0
H856 H 0.50921 0.81232 0.21654 0.0
H857 H 0.6092 0.96852 0.21977 0.0
H858 H 0.6021 0.99757 0.19202 0.0
H859 H 0.61952 0.96624 0.17647 0.0
C860 C 0.90337 0.59685 0.46112 0.0
C861 C 0.91372 0.56891 0.46549 0.0
C862 C 0.87888 0.58956 0.44725 0.0
C863 C 0.86447 0.55351 0.4375 0.0
C864 C 0.87525 0.52547 0.4411 0.0
C865 C 0.89975 0.53351 0.45506 0.0
C866 C 0.868 0.62016 0.44372 0.0
C867 C 0.86049 0.48672 0.4309 0.0
C868 C 0.78354 0.52266 0.43382 0.0
C869 C 0.78622 0.5284 0.40004 0.0
C870 C 0.80886 0.53068 0.44632 0.0
C871 C 0.83751 0.54473 0.4245 0.0
C872 C 0.84038 0.55035 0.39037 0.0
C873 C 0.81468 0.54211 0.37853 0.0
C874 C 0.80494 0.5243 0.48291 0.0
C875 C 0.8706 0.5652 0.36638 0.0
H876 H 0.91405 0.62428 0.4691 0.0
H877 H 0.90764 0.51177 0.45827 0.0
H878 H 0.86731 0.62471 0.41785 0.0
H879 H 0.8449 0.61166 0.45899 0.0
H880 H 0.88237 0.64709 0.4513 0.0
H881 H 0.87236 0.46856 0.43411 0.0
H882 H 0.83712 0.47321 0.4457 0.0
H883 H 0.85962 0.48844 0.40476 0.0
H884 H 0.76163 0.51208 0.45061 0.0
H885 H 0.81695 0.54662 0.35239 0.0
H886 H 0.81707 0.55097 0.49257 0.0
H887 H 0.8147 0.50433 0.48803 0.0
H888 H 0.78111 0.51309 0.49652 0.0
H889 H 0.88468 0.59313 0.3725 0.0
H890 H 0.86897 0.56775 0.34056 0.0
H891 H 0.88222 0.54644 0.3683 0.0
C892 C 0.10349 0.61157 0.86088 0.0
C893 C 0.09405 0.63573 0.8461 0.0
C894 C 0.13036 0.62541 0.87092 0.0
C895 C 0.14823 0.66425 0.86584 0.0
C896 C 0.13864 0.68884 0.85135 0.0
C897 C 0.11158 0.67428 0.84178 0.0
C898 C 0.13979 0.59846 0.88662 0.0
C899 C 0.1572 0.73046 0.84549 0.0
C900 C 0.20552 0.70977 0.9151 0.0
C901 C 0.23223 0.71475 0.89236 0.0
C902 C 0.1779 0.69211 0.9072 0.0
C903 C 0.17701 0.67943 0.8757 0.0
C904 C 0.20379 0.68316 0.85302 0.0
C905 C 0.23114 0.70065 0.86171 0.0
C906 C 0.14976 0.68819 0.93215 0.0
C907 C 0.20364 0.67004 0.81914 0.0
H908 H 0.09001 0.58174 0.86434 0.0
H909 H 0.10449 0.6931 0.83025 0.0
H910 H 0.1613 0.59949 0.87141 0.0
H911 H 0.14343 0.60674 0.91113 0.0
H912 H 0.12296 0.56918 0.88957 0.0
H913 H 0.14653 0.74574 0.83398 0.0
H914 H 0.16086 0.74203 0.86908 0.0
H915 H 0.17948 0.73593 0.82926 0.0
H916 H 0.20621 0.72032 0.93896 0.0
H917 H 0.25172 0.70449 0.84403 0.0
H918 H 0.13323 0.65875 0.93566 0.0
H919 H 0.13946 0.70561 0.92307 0.0
H920 H 0.15411 0.69695 0.95636 0.0
H921 H 0.18804 0.6403 0.8209 0.0
H922 H 0.22616 0.67299 0.80515 0.0
H923 H 0.19562 0.68658 0.80506 0.0
loop_
_geom_bond_atom_site_label_1
_geom_bond_atom_site_label_2
_geom_bond_distance
_geom_bond_site_symmetry_2
_ccdc_geom_bond_type
C0 O1 1.160 . S
C0 O7 1.185 . S
O1 C0 1.160 . S
O2 Zn3 1.899 . S
O2 C10 1.284 . S
Zn3 O2 1.899 . S
Zn3 O4 2.032 . S
Zn3 O7 2.086 . S
Zn3 O12 1.977 . S
O4 Zn3 2.032 . S
O4 C8 1.278 . S
C5 O6 1.203 . S
C5 O12 1.267 . S
O6 C5 1.203 . S
O7 C0 1.185 . S
O7 Zn3 2.086 . S
C8 O4 1.278 . S
C8 O9 1.211 1_554 S
O9 C8 1.211 1_556 S
C10 O2 1.284 . S
C10 O11 1.273 . S
O11 C10 1.273 . S
O12 Zn3 1.977 . S
O12 C5 1.267 . S
C13 O14 1.160 . S
C13 O20 1.185 . S
O14 C13 1.160 . S
O15 Zn16 1.899 . S
O15 C23 1.284 . S
Zn16 O15 1.899 . S
Zn16 O17 2.032 . S
Zn16 O20 2.086 . S
Zn16 O25 1.977 . S
O17 Zn16 2.032 . S
O17 C21 1.278 . S
C18 O19 1.203 . S
C18 O25 1.267 . S
O19 C18 1.203 . S
O20 C13 1.185 . S
O20 Zn16 2.086 . S
C21 O17 1.278 . S
C21 O22 1.211 . S
O22 C21 1.211 . S
C23 O15 1.284 . S
C23 O24 1.273 . S
O24 C23 1.273 . S
O25 Zn16 1.977 . S
O25 C18 1.267 . S
C26 O27 1.160 . S
C26 O33 1.185 . S
O27 C26 1.160 . S
O28 Zn29 1.899 . S
O28 C36 1.284 . S
Zn29 O28 1.899 . S
Zn29 O30 2.032 . S
Zn29 O33 2.086 . S
Zn29 O38 1.977 . S
O30 Zn29 2.032 . S
O30 C34 1.278 . S
C31 O32 1.203 . S
C31 O38 1.267 . S
O32 C31 1.203 . S
O33 C26 1.185 . S
O33 Zn29 2.086 . S
C34 O30 1.278 . S
C34 O35 1.211 . S
O35 C34 1.211 . S
C36 O28 1.284 . S
C36 O37 1.273 . S
O37 C36 1.273 . S
O38 Zn29 1.977 . S
O38 C31 1.267 . S
C39 O40 1.160 . S
C39 O46 1.185 . S
O40 C39 1.160 . S
O41 Zn42 1.899 . S
O41 C49 1.284 . S
Zn42 O41 1.899 . S
Zn42 O43 2.032 . S
Zn42 O46 2.086 . S
Zn42 O51 1.977 . S
O43 Zn42 2.032 . S
O43 C47 1.278 . S
C44 O45 1.203 . S
C44 O51 1.267 . S
O45 C44 1.203 . S
O46 C39 1.185 . S
O46 Zn42 2.086 . S
C47 O43 1.278 . S
C47 O48 1.211 . S
O48 C47 1.211 . S
C49 O41 1.284 . S
C49 O50 1.273 . S
O50 C49 1.273 . S
O51 Zn42 1.977 . S
O51 C44 1.267 . S
C52 O53 1.160 . S
C52 O59 1.185 . S
O53 C52 1.160 . S
O54 Zn55 1.899 . S
O54 C62 1.284 . S
Zn55 O54 1.899 . S
Zn55 O56 2.032 . S
Zn55 O59 2.086 . S
Zn55 O64 1.977 . S
O56 Zn55 2.032 . S
O56 C60 1.278 . S
C57 O58 1.203 . S
C57 O64 1.267 . S
O58 C57 1.203 . S
O59 C52 1.185 . S
O59 Zn55 2.086 . S
C60 O56 1.278 . S
C60 O61 1.211 . S
O61 C60 1.211 . S
C62 O54 1.284 . S
C62 O63 1.273 . S
O63 C62 1.273 . S
O64 Zn55 1.977 . S
O64 C57 1.267 . S
C65 O66 1.160 . S
C65 O72 1.185 . S
O66 C65 1.160 . S
O67 Zn68 1.899 . S
O67 C75 1.284 . S
Zn68 O67 1.899 . S
Zn68 O69 2.032 . S
Zn68 O72 2.086 . S
Zn68 O77 1.977 . S
O69 Zn68 2.032 . S
O69 C73 1.278 . S
C70 O71 1.203 . S
C70 O77 1.267 . S
O71 C70 1.203 . S
O72 C65 1.185 . S
O72 Zn68 2.086 . S
C73 O69 1.278 . S
C73 O74 1.211 . S
O74 C73 1.211 . S
C75 O67 1.284 . S
C75 O76 1.273 . S
O76 C75 1.273 . S
O77 Zn68 1.977 . S
O77 C70 1.267 . S
C78 O79 1.160 . S
C78 O85 1.185 . S
O79 C78 1.160 . S
O80 Zn81 1.899 . S
O80 C88 1.284 . S
Zn81 O80 1.899 . S
Zn81 O82 2.032 . S
Zn81 O85 2.086 . S
Zn81 O90 1.977 . S
O82 Zn81 2.032 . S
O82 C86 1.278 . S
C83 O84 1.203 . S
C83 O90 1.267 . S
O84 C83 1.203 . S
O85 C78 1.185 . S
O85 Zn81 2.086 . S
C86 O82 1.278 . S
C86 O87 1.211 . S
O87 C86 1.211 . S
C88 O80 1.284 . S
C88 O89 1.273 . S
O89 C88 1.273 . S
O90 Zn81 1.977 . S
O90 C83 1.267 . S
C91 O92 1.160 . S
C91 O98 1.185 . S
O92 C91 1.160 . S
O93 Zn94 1.899 . S
O93 C101 1.284 . S
Zn94 O93 1.899 . S
Zn94 O95 2.032 . S
Zn94 O98 2.086 . S
Zn94 O103 1.977 . S
O95 Zn94 2.032 . S
O95 C99 1.278 . S
C96 O97 1.203 . S
C96 O103 1.267 . S
O97 C96 1.203 . S
O98 C91 1.185 . S
O98 Zn94 2.086 . S
C99 O95 1.278 . S
C99 O100 1.211 . S
O100 C99 1.211 . S
C101 O93 1.284 . S
C101 O102 1.273 . S
O102 C101 1.273 . S
O103 Zn94 1.977 . S
O103 C96 1.267 . S
C104 O105 1.160 . S
C104 O111 1.185 . S
O105 C104 1.160 . S
O106 Zn107 1.899 . S
O106 C114 1.284 . S
Zn107 O106 1.899 . S
Zn107 O108 2.032 . S
Zn107 O111 2.086 . S
Zn107 O116 1.977 . S
O108 Zn107 2.032 . S
O108 C112 1.278 . S
C109 O110 1.203 . S
C109 O116 1.267 . S
O110 C109 1.203 . S
O111 C104 1.185 . S
O111 Zn107 2.086 . S
C112 O108 1.278 . S
C112 O113 1.211 . S
O113 C112 1.211 . S
C114 O106 1.284 . S
C114 O115 1.273 . S
O115 C114 1.273 . S
O116 Zn107 1.977 . S
O116 C109 1.267 . S
C117 O118 1.160 . S
C117 O124 1.185 . S
O118 C117 1.160 . S
O119 Zn120 1.899 . S
O119 C127 1.284 . S
Zn120 O119 1.899 . S
Zn120 O121 2.032 . S
Zn120 O124 2.086 . S
Zn120 O129 1.977 . S
O121 Zn120 2.032 . S
O121 C125 1.278 . S
C122 O123 1.203 . S
C122 O129 1.267 . S
O123 C122 1.203 . S
O124 C117 1.185 . S
O124 Zn120 2.086 . S
C125 O121 1.278 . S
C125 O126 1.211 . S
O126 C125 1.211 . S
C127 O119 1.284 . S
C127 O128 1.273 . S
O128 C127 1.273 . S
O129 Zn120 1.977 . S
O129 C122 1.267 . S
C130 O131 1.160 . S
C130 O137 1.185 . S
O131 C130 1.160 . S
O132 Zn133 1.899 . S
O132 C140 1.284 . S
Zn133 O132 1.899 . S
Zn133 O134 2.032 . S
Zn133 O137 2.086 . S
Zn133 O142 1.977 . S
O134 Zn133 2.032 . S
O134 C138 1.278 . S
C135 O136 1.203 . S
C135 O142 1.267 . S
O136 C135 1.203 . S
O137 C130 1.185 . S
O137 Zn133 2.086 . S
C138 O134 1.278 . S
C138 O139 1.211 . S
O139 C138 1.211 . S
C140 O132 1.284 . S
C140 O141 1.273 . S
O141 C140 1.273 . S
O142 Zn133 1.977 . S
O142 C135 1.267 . S
C143 O144 1.160 . S
C143 O150 1.185 . S
O144 C143 1.160 . S
O145 Zn146 1.899 . S
O145 C153 1.284 . S
Zn146 O145 1.899 . S
Zn146 O147 2.032 . S
Zn146 O150 2.086 . S
Zn146 O155 1.977 . S
O147 Zn146 2.032 . S
O147 C151 1.278 . S
C148 O149 1.203 . S
C148 O155 1.267 . S
O149 C148 1.203 . S
O150 C143 1.185 . S
O150 Zn146 2.086 . S
C151 O147 1.278 . S
C151 O152 1.211 . S
O152 C151 1.211 . S
C153 O145 1.284 . S
C153 O154 1.273 . S
O154 C153 1.273 . S
O155 Zn146 1.977 . S
O155 C148 1.267 . S
C156 C157 1.391 1_556 S
C156 C158 1.394 . S
C156 H172 0.931 . S
C157 C156 1.391 1_554 S
C157 C161 1.376 . S
C158 C156 1.394 . S
C158 C159 1.369 . S
C158 C162 1.531 . S
C159 C158 1.369 . S
C159 C160 1.410 . S
C159 C167 1.503 . S
C160 C159 1.410 . S
C160 C161 1.392 1_556 S
C160 C163 1.511 . S
C161 C157 1.376 . S
C161 C160 1.392 1_554 S
C161 H173 0.929 . S
C162 C158 1.531 . S
C162 H174 0.960 . S
C162 H175 0.962 . S
C162 H176 0.960 . S
C163 C160 1.511 . S
C163 H177 0.961 . S
C163 H178 0.961 . S
C163 H179 0.961 . S
C164 C165 1.370 . S
C164 C166 1.363 . S
C164 H180 0.931 . S
C165 C164 1.370 . S
C165 C169 1.408 . S
C166 C164 1.363 . S
C166 C167 1.370 . S
C166 C170 1.524 . S
C167 C159 1.503 . S
C167 C166 1.370 . S
C167 C168 1.403 . S
C168 C167 1.403 . S
C168 C169 1.404 . S
C168 C171 1.539 . S
C169 C165 1.408 . S
C169 C168 1.404 . S
C169 H181 0.930 . S
C170 C166 1.524 . S
C170 H182 0.956 . S
C170 H183 0.961 . S
C170 H184 0.961 . S
C171 C168 1.539 . S
C171 H185 0.958 . S
C171 H186 0.961 . S
C171 H187 0.960 . S
H172 C156 0.931 . S
H173 C161 0.929 . S
H174 C162 0.960 . S
H175 C162 0.962 . S
H176 C162 0.960 . S
H177 C163 0.961 . S
H178 C163 0.961 . S
H179 C163 0.961 . S
H180 C164 0.931 . S
H181 C169 0.930 . S
H182 C170 0.956 . S
H183 C170 0.961 . S
H184 C170 0.961 . S
H185 C171 0.958 . S
H186 C171 0.961 . S
H187 C171 0.960 . S
C188 C189 1.391 . S
C188 C190 1.394 . S
C188 H204 0.931 . S
C189 C188 1.391 . S
C189 C193 1.376 . S
C190 C188 1.394 . S
C190 C191 1.369 . S
C190 C194 1.531 . S
C191 C190 1.369 . S
C191 C192 1.410 . S
C191 C199 1.503 . S
C192 C191 1.410 . S
C192 C193 1.392 . S
C192 C195 1.511 . S
C193 C189 1.376 . S
C193 C192 1.392 . S
C193 H205 0.929 . S
C194 C190 1.531 . S
C194 H206 0.960 . S
C194 H207 0.962 . S
C194 H208 0.960 . S
C195 C192 1.511 . S
C195 H209 0.961 . S
C195 H210 0.961 . S
C195 H211 0.961 . S
C196 C197 1.370 . S
C196 C198 1.363 . S
C196 H212 0.931 . S
C197 C196 1.370 . S
C197 C201 1.408 . S
C198 C196 1.363 . S
C198 C199 1.370 . S
C198 C202 1.524 . S
C199 C191 1.503 . S
C199 C198 1.370 . S
C199 C200 1.403 . S
C200 C199 1.403 . S
C200 C201 1.404 . S
C200 C203 1.539 . S
C201 C197 1.408 . S
C201 C200 1.404 . S
C201 H213 0.930 . S
C202 C198 1.524 . S
C202 H214 0.956 . S
C202 H215 0.961 . S
C202 H216 0.961 . S
C203 C200 1.539 . S
C203 H217 0.958 . S
C203 H218 0.961 . S
C203 H219 0.960 . S
H204 C188 0.931 . S
H205 C193 0.929 . S
H206 C194 0.960 . S
H207 C194 0.962 . S
H208 C194 0.960 . S
H209 C195 0.961 . S
H210 C195 0.961 . S
H211 C195 0.961 . S
H212 C196 0.931 . S
H213 C201 0.930 . S
H214 C202 0.956 . S
H215 C202 0.961 . S
H216 C202 0.961 . S
H217 C203 0.958 . S
H218 C203 0.961 . S
H219 C203 0.960 . S
C220 C221 1.391 . S
C220 C222 1.394 . S
C220 H236 0.931 . S
C221 C220 1.391 . S
C221 C225 1.376 . S
C222 C220 1.394 . S
C222 C223 1.369 . S
C222 C226 1.531 . S
C223 C222 1.369 . S
C223 C224 1.410 . S
C223 C231 1.503 . S
C224 C223 1.410 . S
C224 C225 1.392 . S
C224 C227 1.511 . S
C225 C221 1.376 . S
C225 C224 1.392 . S
C225 H237 0.929 . S
C226 C222 1.531 . S
C226 H238 0.960 . S
C226 H239 0.962 . S
C226 H240 0.960 . S
C227 C224 1.511 . S
C227 H241 0.961 . S
C227 H242 0.961 . S
C227 H243 0.961 . S
C228 C229 1.370 . S
C228 C230 1.363 . S
C228 H244 0.931 . S
C229 C228 1.370 . S
C229 C233 1.408 . S
C230 C228 1.363 . S
C230 C231 1.370 . S
C230 C234 1.524 . S
C231 C223 1.503 . S
C231 C230 1.370 . S
C231 C232 1.403 . S
C232 C231 1.403 . S
C232 C233 1.404 . S
C232 C235 1.539 . S
C233 C229 1.408 . S
C233 C232 1.404 . S
C233 H245 0.930 . S
C234 C230 1.524 . S
C234 H246 0.956 . S
C234 H247 0.961 . S
C234 H248 0.961 . S
C235 C232 1.539 . S
C235 H249 0.958 . S
C235 H250 0.961 . S
C235 H251 0.960 . S
H236 C220 0.931 . S
H237 C225 0.929 . S
H238 C226 0.960 . S
H239 C226 0.962 . S
H240 C226 0.960 . S
H241 C227 0.961 . S
H242 C227 0.961 . S
H243 C227 0.961 . S
H244 C228 0.931 . S
H245 C233 0.930 . S
H246 C234 0.956 . S
H247 C234 0.961 . S
H248 C234 0.961 . S
H249 C235 0.958 . S
H250 C235 0.961 . S
H251 C235 0.960 . S
C252 C253 1.391 . S
C252 C254 1.394 . S
C252 H268 0.931 . S
C253 C252 1.391 . S
C253 C257 1.376 . S
C254 C252 1.394 . S
C254 C255 1.369 . S
C254 C258 1.531 . S
C255 C254 1.369 . S
C255 C256 1.410 . S
C255 C263 1.503 1_554 S
C256 C255 1.410 . S
C256 C257 1.392 . S
C256 C259 1.511 . S
C257 C253 1.376 . S
C257 C256 1.392 . S
C257 H269 0.929 . S
C258 C254 1.531 . S
C258 H270 0.960 . S
C258 H271 0.962 . S
C258 H272 0.960 . S
C259 C256 1.511 . S
C259 H273 0.961 . S
C259 H274 0.961 1_554 S
C259 H275 0.961 . S
C260 C261 1.370 . S
C260 C262 1.363 . S
C260 H276 0.931 . S
C261 C260 1.370 . S
C261 C265 1.408 . S
C262 C260 1.363 . S
C262 C263 1.370 . S
C262 C266 1.524 . S
C263 C255 1.503 1_556 S
C263 C262 1.370 . S
C263 C264 1.403 . S
C264 C263 1.403 . S
C264 C265 1.404 . S
C264 C267 1.546 . S
C265 C261 1.408 . S
C265 C264 1.404 . S
C265 H277 0.930 . S
C266 C262 1.524 . S
C266 H278 0.956 . S
C266 H279 0.961 . S
C266 H280 0.961 . S
C267 C264 1.546 . S
C267 H281 0.956 1_556 S
C267 H282 0.972 . S
C267 H283 0.944 1_556 S
H268 C252 0.931 . S
H269 C257 0.929 . S
H270 C258 0.960 . S
H271 C258 0.962 . S
H272 C258 0.960 . S
H273 C259 0.961 . S
H274 C259 0.961 1_556 S
H275 C259 0.961 . S
H276 C260 0.931 . S
H277 C265 0.930 . S
H278 C266 0.956 . S
H279 C266 0.961 . S
H280 C266 0.961 . S
H281 C267 0.956 1_554 S
H282 C267 0.972 . S
H283 C267 0.944 1_554 S
C284 C285 1.391 . S
C284 C286 1.394 . S
C284 H300 0.931 . S
C285 C284 1.391 . S
C285 C289 1.376 . S
C286 C284 1.394 . S
C286 C287 1.369 . S
C286 C290 1.531 . S
C287 C286 1.369 . S
C287 C288 1.410 . S
C287 C295 1.503 . S
C288 C287 1.410 . S
C288 C289 1.392 . S
C288 C291 1.511 . S
C289 C285 1.376 . S
C289 C288 1.392 . S
C289 H301 0.929 . S
C290 C286 1.531 . S
C290 H302 0.960 . S
C290 H303 0.962 . S
C290 H304 0.960 . S
C291 C288 1.511 . S
C291 H305 0.961 . S
C291 H306 0.961 . S
C291 H307 0.961 . S
C292 C293 1.370 . S
C292 C294 1.363 . S
C292 H308 0.931 . S
C293 C292 1.370 . S
C293 C297 1.408 . S
C294 C292 1.363 . S
C294 C295 1.370 . S
C294 C298 1.524 . S
C295 C287 1.503 . S
C295 C294 1.370 . S
C295 C296 1.403 . S
C296 C295 1.403 . S
C296 C297 1.404 . S
C296 C299 1.539 . S
C297 C293 1.408 . S
C297 C296 1.404 . S
C297 H309 0.930 . S
C298 C294 1.524 . S
C298 H310 0.956 . S
C298 H311 0.961 . S
C298 H312 0.961 . S
C299 C296 1.539 . S
C299 H313 0.958 . S
C299 H314 0.961 . S
C299 H315 0.960 . S
H300 C284 0.931 . S
H301 C289 0.929 . S
H302 C290 0.960 . S
H303 C290 0.962 . S
H304 C290 0.960 . S
H305 C291 0.961 . S
H306 C291 0.961 . S
H307 C291 0.961 . S
H308 C292 0.931 . S
H309 C297 0.930 . S
H310 C298 0.956 . S
H311 C298 0.961 . S
H312 C298 0.961 . S
H313 C299 0.958 . S
H314 C299 0.961 . S
H315 C299 0.960 . S
C316 C317 1.391 . S
C316 C318 1.394 . S
C316 H332 0.931 . S
C317 C316 1.391 . S
C317 C321 1.376 . S
C318 C316 1.394 . S
C318 C319 1.369 . S
C318 C322 1.531 . S
C319 C318 1.369 . S
C319 C320 1.410 . S
C319 C327 1.503 . S
C320 C319 1.410 . S
C320 C321 1.392 . S
C320 C323 1.511 . S
C321 C317 1.376 . S
C321 C320 1.392 . S
C321 H333 0.929 . S
C322 C318 1.531 . S
C322 H334 0.960 . S
C322 H335 0.962 . S
C322 H336 0.960 . S
C323 C320 1.511 . S
C323 H337 0.961 . S
C323 H338 0.961 . S
C323 H339 0.961 . S
C324 C325 1.370 . S
C324 C326 1.363 . S
C324 H340 0.931 . S
C325 C324 1.370 . S
C325 C329 1.408 . S
C326 C324 1.363 . S
C326 C327 1.370 . S
C326 C330 1.524 . S
C327 C319 1.503 . S
C327 C326 1.370 . S
C327 C328 1.403 . S
C328 C327 1.403 . S
C328 C329 1.404 . S
C328 C331 1.539 . S
C329 C325 1.408 . S
C329 C328 1.404 . S
C329 H341 0.930 . S
C330 C326 1.524 . S
C330 H342 0.956 . S
C330 H343 0.961 . S
C330 H344 0.961 . S
C331 C328 1.539 . S
C331 H345 0.958 . S
C331 H346 0.961 . S
C331 H347 0.960 . S
H332 C316 0.931 . S
H333 C321 0.929 . S
H334 C322 0.960 . S
H335 C322 0.962 . S
H336 C322 0.960 . S
H337 C323 0.961 . S
H338 C323 0.961 . S
H339 C323 0.961 . S
H340 C324 0.931 . S
H341 C329 0.930 . S
H342 C330 0.956 . S
H343 C330 0.961 . S
H344 C330 0.961 . S
H345 C331 0.958 . S
H346 C331 0.961 . S
H347 C331 0.960 . S
C348 C349 1.391 1_556 S
C348 C350 1.394 . S
C348 H364 0.931 . S
C349 C348 1.391 1_554 S
C349 C353 1.376 . S
C350 C348 1.394 . S
C350 C351 1.369 . S
C350 C354 1.531 . S
C351 C350 1.369 . S
C351 C352 1.410 1_546 S
C351 C359 1.503 1_545 S
C352 C351 1.410 1_564 S
C352 C353 1.392 1_565 S
C352 C355 1.511 . S
C353 C349 1.376 . S
C353 C352 1.392 1_545 S
C353 H365 0.929 . S
C354 C350 1.531 . S
C354 H366 0.960 . S
C354 H367 0.962 . S
C354 H368 0.960 . S
C355 C352 1.511 . S
C355 H369 0.961 . S
C355 H370 0.961 . S
C355 H371 0.961 . S
C356 C357 1.370 . S
C356 C358 1.363 . S
C356 H372 0.931 . S
C357 C356 1.370 . S
C357 C361 1.408 . S
C358 C356 1.363 . S
C358 C359 1.370 . S
C358 C362 1.524 . S
C359 C351 1.503 1_565 S
C359 C358 1.370 . S
C359 C360 1.403 . S
C360 C359 1.403 . S
C360 C361 1.404 . S
C360 C363 1.539 . S
C361 C357 1.408 . S
C361 C360 1.404 . S
C361 H373 0.930 . S
C362 C358 1.524 . S
C362 H374 0.956 . S
C362 H375 0.961 . S
C362 H376 0.961 . S
C363 C360 1.539 . S
C363 H377 0.958 1_565 S
C363 H378 0.961 1_556 S
C363 H379 0.960 1_556 S
H364 C348 0.931 . S
H365 C353 0.929 . S
H366 C354 0.960 . S
H367 C354 0.962 . S
H368 C354 0.960 . S
H369 C355 0.961 . S
H370 C355 0.961 . S
H371 C355 0.961 . S
H372 C356 0.931 . S
H373 C361 0.930 . S
H374 C362 0.956 . S
H375 C362 0.961 . S
H376 C362 0.961 . S
H377 C363 0.958 1_545 S
H378 C363 0.961 1_554 S
H379 C363 0.960 1_554 S
C380 C381 1.391 . S
C380 C382 1.394 . S
C380 H396 0.931 . S
C381 C380 1.391 . S
C381 C385 1.376 . S
C382 C380 1.394 . S
C382 C383 1.369 . S
C382 C386 1.531 . S
C383 C382 1.369 . S
C383 C384 1.410 . S
C383 C391 1.503 . S
C384 C383 1.410 . S
C384 C385 1.392 . S
C384 C387 1.511 . S
C385 C381 1.376 . S
C385 C384 1.392 . S
C385 H397 0.929 . S
C386 C382 1.531 . S
C386 H398 0.960 . S
C386 H399 0.962 . S
C386 H400 0.960 . S
C387 C384 1.511 . S
C387 H401 0.961 . S
C387 H402 0.961 . S
C387 H403 0.961 . S
C388 C389 1.370 . S
C388 C390 1.363 . S
C388 H404 0.931 . S
C389 C388 1.370 . S
C389 C393 1.408 . S
C390 C388 1.363 . S
C390 C391 1.370 . S
C390 C394 1.524 . S
C391 C383 1.503 . S
C391 C390 1.370 . S
C391 C392 1.403 . S
C392 C391 1.403 . S
C392 C393 1.404 . S
C392 C395 1.539 . S
C393 C389 1.408 . S
C393 C392 1.404 . S
C393 H405 0.930 . S
C394 C390 1.524 . S
C394 H406 0.956 . S
C394 H407 0.961 . S
C394 H408 0.961 . S
C395 C392 1.539 . S
C395 H409 0.958 . S
C395 H410 0.961 . S
C395 H411 0.960 . S
H396 C380 0.931 . S
H397 C385 0.929 . S
H398 C386 0.960 . S
H399 C386 0.962 . S
H400 C386 0.960 . S
H401 C387 0.961 . S
H402 C387 0.961 . S
H403 C387 0.961 . S
H404 C388 0.931 . S
H405 C393 0.930 . S
H406 C394 0.956 . S
H407 C394 0.961 . S
H408 C394 0.961 . S
H409 C395 0.958 . S
H410 C395 0.961 . S
H411 C395 0.960 . S
C412 C413 1.391 . S
C412 C414 1.394 . S
C412 H428 0.931 . S
C413 C412 1.391 . S
C413 C417 1.376 . S
C414 C412 1.394 . S
C414 C415 1.369 . S
C414 C418 1.531 . S
C415 C414 1.369 . S
C415 C416 1.410 . S
C415 C423 1.503 1_455 S
C416 C415 1.410 . S
C416 C417 1.392 . S
C416 C419 1.511 1_455 S
C417 C413 1.376 . S
C417 C416 1.392 . S
C417 H429 0.929 . S
C418 C414 1.531 . S
C418 H430 0.960 . S
C418 H431 0.962 . S
C418 H432 0.960 . S
C419 C416 1.511 1_655 S
C419 H433 0.961 . S
C419 H434 0.961 . S
C419 H435 0.961 . S
C420 C421 1.370 . S
C420 C422 1.363 . S
C420 H436 0.931 . S
C421 C420 1.370 . S
C421 C425 1.408 . S
C422 C420 1.363 . S
C422 C423 1.370 . S
C422 C426 1.524 . S
C423 C415 1.503 1_655 S
C423 C422 1.370 . S
C423 C424 1.403 . S
C424 C423 1.403 . S
C424 C425 1.404 . S
C424 C427 1.539 1_655 S
C425 C421 1.408 . S
C425 C424 1.404 . S
C425 H437 0.930 . S
C426 C422 1.524 . S
C426 H438 0.956 . S
C426 H439 0.961 . S
C426 H440 0.961 . S
C427 C424 1.539 1_455 S
C427 H441 0.958 . S
C427 H442 0.961 1_455 S
C427 H443 0.960 . S
H428 C412 0.931 . S
H429 C417 0.929 . S
H430 C418 0.960 . S
H431 C418 0.962 . S
H432 C418 0.960 . S
H433 C419 0.961 . S
H434 C419 0.961 . S
H435 C419 0.961 . S
H436 C420 0.931 . S
H437 C425 0.930 . S
H438 C426 0.956 . S
H439 C426 0.961 . S
H440 C426 0.961 . S
H441 C427 0.958 . S
H442 C427 0.961 1_655 S
H443 C427 0.960 . S
C444 C445 1.391 . S
C444 C446 1.394 . S
C444 H460 0.931 . S
C445 C444 1.391 . S
C445 C449 1.376 . S
C446 C444 1.394 . S
C446 C447 1.369 1_554 S
C446 C450 1.531 1_554 S
C447 C446 1.369 1_556 S
C447 C448 1.410 . S
C447 C455 1.503 . S
C448 C447 1.410 . S
C448 C449 1.392 1_556 S
C448 C451 1.511 . S
C449 C445 1.376 . S
C449 C448 1.392 1_554 S
C449 H461 0.929 . S
C450 C446 1.531 1_556 S
C450 H462 0.960 . S
C450 H463 0.962 1_556 S
C450 H464 0.960 1_556 S
C451 C448 1.511 . S
C451 H465 0.961 . S
C451 H466 0.961 . S
C451 H467 0.961 . S
C452 C453 1.370 . S
C452 C454 1.363 . S
C452 H468 0.931 . S
C453 C452 1.370 . S
C453 C457 1.408 1_545 S
C454 C452 1.363 . S
C454 C455 1.370 1_545 S
C454 C458 1.524 . S
C455 C447 1.503 . S
C455 C454 1.370 1_565 S
C455 C456 1.403 . S
C456 C455 1.403 . S
C456 C457 1.404 . S
C456 C459 1.539 . S
C457 C453 1.408 1_565 S
C457 C456 1.404 . S
C457 H469 0.930 . S
C458 C454 1.524 . S
C458 H470 0.956 1_556 S
C458 H471 0.961 1_556 S
C458 H472 0.961 . S
C459 C456 1.539 . S
C459 H473 0.958 . S
C459 H474 0.961 . S
C459 H475 0.960 . S
H460 C444 0.931 . S
H461 C449 0.929 . S
H462 C450 0.960 . S
H463 C450 0.962 1_554 S
H464 C450 0.960 1_554 S
H465 C451 0.961 . S
H466 C451 0.961 . S
H467 C451 0.961 . S
H468 C452 0.931 . S
H469 C457 0.930 . S
H470 C458 0.956 1_554 S
H471 C458 0.961 1_554 S
H472 C458 0.961 . S
H473 C459 0.958 . S
H474 C459 0.961 . S
H475 C459 0.960 . S
C476 C477 1.391 . S
C476 C478 1.394 . S
C476 H492 0.931 . S
C477 C476 1.391 . S
C477 C481 1.376 . S
C478 C476 1.394 . S
C478 C479 1.369 . S
C478 C482 1.531 . S
C479 C478 1.369 . S
C479 C480 1.410 . S
C479 C487 1.503 . S
C480 C479 1.410 . S
C480 C481 1.392 . S
C480 C483 1.511 . S
C481 C477 1.376 . S
C481 C480 1.392 . S
C481 H493 0.929 . S
C482 C478 1.531 . S
C482 H494 0.960 . S
C482 H495 0.962 . S
C482 H496 0.960 . S
C483 C480 1.511 . S
C483 H497 0.961 . S
C483 H498 0.961 . S
C483 H499 0.961 . S
C484 C485 1.370 . S
C484 C486 1.363 . S
C484 H500 0.931 . S
C485 C484 1.370 . S
C485 C489 1.408 . S
C486 C484 1.363 . S
C486 C487 1.370 . S
C486 C490 1.524 . S
C487 C479 1.503 . S
C487 C486 1.370 . S
C487 C488 1.403 . S
C488 C487 1.403 . S
C488 C489 1.404 . S
C488 C491 1.539 . S
C489 C485 1.408 . S
C489 C488 1.404 . S
C489 H501 0.930 . S
C490 C486 1.524 . S
C490 H502 0.956 . S
C490 H503 0.961 . S
C490 H504 0.961 . S
C491 C488 1.539 . S
C491 H505 0.958 . S
C491 H506 0.961 . S
C491 H507 0.960 . S
H492 C476 0.931 . S
H493 C481 0.929 . S
H494 C482 0.960 . S
H495 C482 0.962 . S
H496 C482 0.960 . S
H497 C483 0.961 . S
H498 C483 0.961 . S
H499 C483 0.961 . S
H500 C484 0.931 . S
H501 C489 0.930 . S
H502 C490 0.956 . S
H503 C490 0.961 . S
H504 C490 0.961 . S
H505 C491 0.958 . S
H506 C491 0.961 . S
H507 C491 0.960 . S
C508 C509 1.391 . S
C508 C510 1.394 . S
C508 H524 0.931 . S
C509 C508 1.391 . S
C509 C513 1.376 . S
C510 C508 1.394 . S
C510 C511 1.369 1_455 S
C510 C514 1.531 . S
C511 C510 1.369 1_655 S
C511 C512 1.410 . S
C511 C519 1.503 . S
C512 C511 1.410 . S
C512 C513 1.392 1_655 S
C512 C515 1.511 . S
C513 C509 1.376 . S
C513 C512 1.392 1_455 S
C513 H525 0.929 1_455 S
C514 C510 1.531 . S
C514 H526 0.960 . S
C514 H527 0.962 . S
C514 H528 0.960 . S
C515 C512 1.511 . S
C515 H529 0.961 . S
C515 H530 0.961 . S
C515 H531 0.961 . S
C516 C517 1.370 1_455 S
C516 C518 1.363 . S
C516 H532 0.931 . S
C517 C516 1.370 1_655 S
C517 C521 1.408 . S
C518 C516 1.363 . S
C518 C519 1.370 1_455 S
C518 C522 1.524 . S
C519 C511 1.503 . S
C519 C518 1.370 1_655 S
C519 C520 1.403 . S
C520 C519 1.403 . S
C520 C521 1.404 . S
C520 C523 1.539 . S
C521 C517 1.408 . S
C521 C520 1.404 . S
C521 H533 0.930 . S
C522 C518 1.524 . S
C522 H534 0.956 . S
C522 H535 0.961 . S
C522 H536 0.961 . S
C523 C520 1.539 . S
C523 H537 0.958 . S
C523 H538 0.961 . S
C523 H539 0.960 . S
H524 C508 0.931 . S
H525 C513 0.929 1_655 S
H526 C514 0.960 . S
H527 C514 0.962 . S
H528 C514 0.960 . S
H529 C515 0.961 . S
H530 C515 0.961 . S
H531 C515 0.961 . S
H532 C516 0.931 . S
H533 C521 0.930 . S
H534 C522 0.956 . S
H535 C522 0.961 . S
H536 C522 0.961 . S
H537 C523 0.958 . S
H538 C523 0.961 . S
H539 C523 0.960 . S
C540 C541 1.391 . S
C540 C542 1.394 . S
C540 H556 0.931 . S
C541 C540 1.391 . S
C541 C545 1.376 . S
C542 C540 1.394 . S
C542 C543 1.369 . S
C542 C546 1.531 . S
C543 C542 1.369 . S
C543 C544 1.410 . S
C543 C551 1.503 . S
C544 C543 1.410 . S
C544 C545 1.392 . S
C544 C547 1.511 . S
C545 C541 1.376 . S
C545 C544 1.392 . S
C545 H557 0.929 . S
C546 C542 1.531 . S
C546 H558 0.960 . S
C546 H559 0.962 . S
C546 H560 0.960 . S
C547 C544 1.511 . S
C547 H561 0.961 . S
C547 H562 0.961 1_565 S
C547 H563 0.961 . S
C548 C549 1.370 . S
C548 C550 1.363 . S
C548 H564 0.931 . S
C549 C548 1.370 . S
C549 C553 1.408 . S
C550 C548 1.363 . S
C550 C551 1.370 1_545 S
C550 C554 1.524 1_545 S
C551 C543 1.503 . S
C551 C550 1.370 1_565 S
C551 C552 1.403 1_565 S
C552 C551 1.403 1_545 S
C552 C553 1.404 . S
C552 C555 1.539 1_545 S
C553 C549 1.408 . S
C553 C552 1.404 . S
C553 H565 0.930 . S
C554 C550 1.524 1_565 S
C554 H566 0.956 . S
C554 H567 0.961 . S
C554 H568 0.961 1_565 S
C555 C552 1.539 1_565 S
C555 H569 0.958 . S
C555 H570 0.961 1_565 S
C555 H571 0.960 . S
H556 C540 0.931 . S
H557 C545 0.929 . S
H558 C546 0.960 . S
H559 C546 0.962 . S
H560 C546 0.960 . S
H561 C547 0.961 . S
H562 C547 0.961 1_545 S
H563 C547 0.961 . S
H564 C548 0.931 . S
H565 C553 0.930 . S
H566 C554 0.956 . S
H567 C554 0.961 . S
H568 C554 0.961 1_545 S
H569 C555 0.958 . S
H570 C555 0.961 1_545 S
H571 C555 0.960 . S
C572 C573 1.391 . S
C572 C574 1.394 . S
C572 H588 0.931 . S
C573 C572 1.391 . S
C573 C577 1.376 . S
C574 C572 1.394 . S
C574 C575 1.369 . S
C574 C578 1.531 . S
C575 C574 1.369 . S
C575 C576 1.410 . S
C575 C583 1.503 . S
C576 C575 1.410 . S
C576 C577 1.392 . S
C576 C579 1.511 . S
C577 C573 1.376 . S
C577 C576 1.392 . S
C577 H589 0.929 . S
C578 C574 1.531 . S
C578 H590 0.960 . S
C578 H591 0.962 . S
C578 H592 0.960 . S
C579 C576 1.511 . S
C579 H593 0.961 . S
C579 H594 0.961 . S
C579 H595 0.961 . S
C580 C581 1.370 . S
C580 C582 1.363 . S
C580 H596 0.931 . S
C581 C580 1.370 . S
C581 C585 1.408 . S
C582 C580 1.363 . S
C582 C583 1.370 . S
C582 C586 1.524 . S
C583 C575 1.503 . S
C583 C582 1.370 . S
C583 C584 1.403 . S
C584 C583 1.403 . S
C584 C585 1.404 . S
C584 C587 1.539 . S
C585 C581 1.408 . S
C585 C584 1.404 . S
C585 H597 0.930 . S
C586 C582 1.524 . S
C586 H598 0.956 . S
C586 H599 0.961 . S
C586 H600 0.961 . S
C587 C584 1.539 . S
C587 H601 0.958 . S
C587 H602 0.961 . S
C587 H603 0.960 . S
H588 C572 0.931 . S
H589 C577 0.929 . S
H590 C578 0.960 . S
H591 C578 0.962 . S
H592 C578 0.960 . S
H593 C579 0.961 . S
H594 C579 0.961 . S
H595 C579 0.961 . S
H596 C580 0.931 . S
H597 C585 0.930 . S
H598 C586 0.956 . S
H599 C586 0.961 . S
H600 C586 0.961 . S
H601 C587 0.958 . S
H602 C587 0.961 . S
H603 C587 0.960 . S
C604 C605 1.391 1_455 S
C604 C606 1.394 1_455 S
C604 H620 0.931 . S
C605 C604 1.391 1_655 S
C605 C609 1.376 . S
C606 C604 1.394 1_655 S
C606 C607 1.369 . S
C606 C610 1.531 1_655 S
C607 C606 1.369 . S
C607 C608 1.410 . S
C607 C615 1.503 . S
C608 C607 1.410 . S
C608 C609 1.392 . S
C608 C611 1.511 . S
C609 C605 1.376 . S
C609 C608 1.392 . S
C609 H621 0.929 . S
C610 C606 1.531 1_455 S
C610 H622 0.960 1_455 S
C610 H623 0.962 . S
C610 H624 0.960 . S
C611 C608 1.511 . S
C611 H625 0.961 . S
C611 H626 0.961 . S
C611 H627 0.961 . S
C612 C613 1.370 . S
C612 C614 1.363 . S
C612 H628 0.931 . S
C613 C612 1.370 . S
C613 C617 1.408 . S
C614 C612 1.363 . S
C614 C615 1.370 . S
C614 C618 1.524 . S
C615 C607 1.503 . S
C615 C614 1.370 . S
C615 C616 1.403 . S
C616 C615 1.403 . S
C616 C617 1.404 . S
C616 C619 1.539 . S
C617 C613 1.408 . S
C617 C616 1.404 . S
C617 H629 0.930 . S
C618 C614 1.524 . S
C618 H630 0.956 . S
C618 H631 0.961 . S
C618 H632 0.961 . S
C619 C616 1.539 . S
C619 H633 0.958 . S
C619 H634 0.961 . S
C619 H635 0.960 . S
H620 C604 0.931 . S
H621 C609 0.929 . S
H622 C610 0.960 1_655 S
H623 C610 0.962 . S
H624 C610 0.960 . S
H625 C611 0.961 . S
H626 C611 0.961 . S
H627 C611 0.961 . S
H628 C612 0.931 . S
H629 C617 0.930 . S
H630 C618 0.956 . S
H631 C618 0.961 . S
H632 C618 0.961 . S
H633 C619 0.958 . S
H634 C619 0.961 . S
H635 C619 0.960 . S
C636 C637 1.395 1_655 S
C636 C638 1.394 1_655 S
C636 H652 0.931 . S
C637 C636 1.395 1_455 S
C637 C641 1.389 . S
C638 C636 1.394 1_455 S
C638 C639 1.369 . S
C638 C642 1.526 . S
C639 C638 1.369 . S
C639 C640 1.410 . S
C639 C647 1.503 . S
C640 C639 1.410 . S
C640 C641 1.392 . S
C640 C643 1.511 . S
C641 C637 1.389 . S
C641 C640 1.392 . S
C641 H653 0.929 . S
C642 C638 1.526 . S
C642 H654 0.971 . S
C642 H655 0.975 . S
C642 H656 0.941 1_455 S
C643 C640 1.511 . S
C643 H657 0.961 . S
C643 H658 0.961 . S
C643 H659 0.961 . S
C644 C645 1.370 . S
C644 C646 1.363 . S
C644 H660 0.931 . S
C645 C644 1.370 . S
C645 C649 1.408 . S
C646 C644 1.363 . S
C646 C647 1.370 . S
C646 C650 1.524 . S
C647 C639 1.503 . S
C647 C646 1.370 . S
C647 C648 1.403 . S
C648 C647 1.403 . S
C648 C649 1.404 . S
C648 C651 1.539 . S
C649 C645 1.408 . S
C649 C648 1.404 . S
C649 H661 0.930 . S
C650 C646 1.524 . S
C650 H662 0.956 . S
C650 H663 0.961 . S
C650 H664 0.961 . S
C651 C648 1.539 . S
C651 H665 0.958 1_455 S
C651 H666 0.961 . S
C651 H667 0.960 . S
H652 C636 0.931 . S
H653 C641 0.929 . S
H654 C642 0.971 . S
H655 C642 0.975 . S
H656 C642 0.941 1_655 S
H657 C643 0.961 . S
H658 C643 0.961 . S
H659 C643 0.961 . S
H660 C644 0.931 . S
H661 C649 0.930 . S
H662 C650 0.956 . S
H663 C650 0.961 . S
H664 C650 0.961 . S
H665 C651 0.958 1_655 S
H666 C651 0.961 . S
H667 C651 0.960 . S
C668 C669 1.391 . S
C668 C670 1.394 . S
C668 H684 0.931 . S
C669 C668 1.391 . S
C669 C673 1.376 . S
C670 C668 1.394 . S
C670 C671 1.369 . S
C670 C674 1.531 . S
C671 C670 1.369 . S
C671 C672 1.410 . S
C671 C679 1.503 . S
C672 C671 1.410 . S
C672 C673 1.392 . S
C672 C675 1.511 . S
C673 C669 1.376 . S
C673 C672 1.392 . S
C673 H685 0.929 . S
C674 C670 1.531 . S
C674 H686 0.960 . S
C674 H687 0.962 . S
C674 H688 0.960 . S
C675 C672 1.511 . S
C675 H689 0.961 . S
C675 H690 0.961 . S
C675 H691 0.961 . S
C676 C677 1.370 . S
C676 C678 1.363 1_545 S
C676 H692 0.931 . S
C677 C676 1.370 . S
C677 C681 1.408 . S
C678 C676 1.363 1_565 S
C678 C679 1.370 . S
C678 C682 1.524 . S
C679 C671 1.503 . S
C679 C678 1.370 . S
C679 C680 1.403 1_565 S
C680 C679 1.403 1_545 S
C680 C681 1.404 . S
C680 C683 1.542 1_545 S
C681 C677 1.408 . S
C681 C680 1.404 . S
C681 H693 0.930 . S
C682 C678 1.524 . S
C682 H694 0.956 . S
C682 H695 0.961 . S
C682 H696 0.961 . S
C683 C680 1.542 1_565 S
C683 H697 0.945 1_565 S
C683 H698 0.946 1_565 S
C683 H699 0.986 . S
H684 C668 0.931 . S
H685 C673 0.929 . S
H686 C674 0.960 . S
H687 C674 0.962 . S
H688 C674 0.960 . S
H689 C675 0.961 . S
H690 C675 0.961 . S
H691 C675 0.961 . S
H692 C676 0.931 . S
H693 C681 0.930 . S
H694 C682 0.956 . S
H695 C682 0.961 . S
H696 C682 0.961 . S
H697 C683 0.945 1_545 S
H698 C683 0.946 1_545 S
H699 C683 0.986 . S
C700 C701 1.391 . S
C700 C702 1.394 . S
C700 H716 0.931 . S
C701 C700 1.391 . S
C701 C705 1.376 . S
C702 C700 1.394 . S
C702 C703 1.369 . S
C702 C706 1.531 . S
C703 C702 1.369 . S
C703 C704 1.410 . S
C703 C711 1.503 . S
C704 C703 1.410 . S
C704 C705 1.392 . S
C704 C707 1.511 . S
C705 C701 1.376 . S
C705 C704 1.392 . S
C705 H717 0.929 . S
C706 C702 1.531 . S
C706 H718 0.960 . S
C706 H719 0.962 . S
C706 H720 0.960 . S
C707 C704 1.511 . S
C707 H721 0.961 . S
C707 H722 0.961 . S
C707 H723 0.961 . S
C708 C709 1.370 . S
C708 C710 1.363 . S
C708 H724 0.931 . S
C709 C708 1.370 . S
C709 C713 1.408 . S
C710 C708 1.363 . S
C710 C711 1.370 . S
C710 C714 1.524 . S
C711 C703 1.503 . S
C711 C710 1.370 . S
C711 C712 1.403 . S
C712 C711 1.403 . S
C712 C713 1.404 . S
C712 C715 1.539 . S
C713 C709 1.408 . S
C713 C712 1.404 . S
C713 H725 0.930 . S
C714 C710 1.524 . S
C714 H726 0.956 . S
C714 H727 0.961 . S
C714 H728 0.961 . S
C715 C712 1.539 . S
C715 H729 0.958 . S
C715 H730 0.961 . S
C715 H731 0.960 . S
H716 C700 0.931 . S
H717 C705 0.929 . S
H718 C706 0.960 . S
H719 C706 0.962 . S
H720 C706 0.960 . S
H721 C707 0.961 . S
H722 C707 0.961 . S
H723 C707 0.961 . S
H724 C708 0.931 . S
H725 C713 0.930 . S
H726 C714 0.956 . S
H727 C714 0.961 . S
H728 C714 0.961 . S
H729 C715 0.958 . S
H730 C715 0.961 . S
H731 C715 0.960 . S
C732 C733 1.391 . S
C732 C734 1.394 . S
C732 H748 0.931 . S
C733 C732 1.391 . S
C733 C737 1.376 . S
C734 C732 1.394 . S
C734 C735 1.369 . S
C734 C738 1.531 . S
C735 C734 1.369 . S
C735 C736 1.410 . S
C735 C743 1.503 . S
C736 C735 1.410 . S
C736 C737 1.392 . S
C736 C739 1.511 . S
C737 C733 1.376 . S
C737 C736 1.392 . S
C737 H749 0.929 . S
C738 C734 1.531 . S
C738 H750 0.960 . S
C738 H751 0.962 . S
C738 H752 0.960 . S
C739 C736 1.511 . S
C739 H753 0.961 . S
C739 H754 0.961 . S
C739 H755 0.961 . S
C740 C741 1.370 . S
C740 C742 1.363 . S
C740 H756 0.931 . S
C741 C740 1.370 . S
C741 C745 1.408 . S
C742 C740 1.363 . S
C742 C743 1.370 . S
C742 C746 1.524 . S
C743 C735 1.503 . S
C743 C742 1.370 . S
C743 C744 1.403 . S
C744 C743 1.403 . S
C744 C745 1.404 . S
C744 C747 1.539 . S
C745 C741 1.408 . S
C745 C744 1.404 . S
C745 H757 0.930 . S
C746 C742 1.524 . S
C746 H758 0.956 . S
C746 H759 0.961 . S
C746 H760 0.961 . S
C747 C744 1.539 . S
C747 H761 0.958 . S
C747 H762 0.961 . S
C747 H763 0.960 . S
H748 C732 0.931 . S
H749 C737 0.929 . S
H750 C738 0.960 . S
H751 C738 0.962 . S
H752 C738 0.960 . S
H753 C739 0.961 . S
H754 C739 0.961 . S
H755 C739 0.961 . S
H756 C740 0.931 . S
H757 C745 0.930 . S
H758 C746 0.956 . S
H759 C746 0.961 . S
H760 C746 0.961 . S
H761 C747 0.958 . S
H762 C747 0.961 . S
H763 C747 0.960 . S
C764 C765 1.391 . S
C764 C766 1.394 . S
C764 H780 0.931 . S
C765 C764 1.391 . S
C765 C769 1.376 . S
C766 C764 1.394 . S
C766 C767 1.369 . S
C766 C770 1.531 . S
C767 C766 1.369 . S
C767 C768 1.410 . S
C767 C775 1.503 . S
C768 C767 1.410 . S
C768 C769 1.392 . S
C768 C771 1.511 . S
C769 C765 1.376 . S
C769 C768 1.392 . S
C769 H781 0.929 . S
C770 C766 1.531 . S
C770 H782 0.960 . S
C770 H783 0.962 . S
C770 H784 0.960 . S
C771 C768 1.511 . S
C771 H785 0.961 . S
C771 H786 0.961 . S
C771 H787 0.961 . S
C772 C773 1.370 . S
C772 C774 1.363 . S
C772 H788 0.931 . S
C773 C772 1.370 . S
C773 C777 1.408 . S
C774 C772 1.363 . S
C774 C775 1.370 . S
C774 C778 1.524 . S
C775 C767 1.503 . S
C775 C774 1.370 . S
C775 C776 1.403 . S
C776 C775 1.403 . S
C776 C777 1.404 . S
C776 C779 1.539 . S
C777 C773 1.408 . S
C777 C776 1.404 . S
C777 H789 0.930 . S
C778 C774 1.524 . S
C778 H790 0.956 . S
C778 H791 0.961 . S
C778 H792 0.961 . S
C779 C776 1.539 . S
C779 H793 0.958 . S
C779 H794 0.961 . S
C779 H795 0.960 . S
H780 C764 0.931 . S
H781 C769 0.929 . S
H782 C770 0.960 . S
H783 C770 0.962 . S
H784 C770 0.960 . S
H785 C771 0.961 . S
H786 C771 0.961 . S
H787 C771 0.961 . S
H788 C772 0.931 . S
H789 C777 0.930 . S
H790 C778 0.956 . S
H791 C778 0.961 . S
H792 C778 0.961 . S
H793 C779 0.958 . S
H794 C779 0.961 . S
H795 C779 0.960 . S
C796 C797 1.391 . S
C796 C798 1.394 . S
C796 H812 0.931 . S
C797 C796 1.391 . S
C797 C801 1.376 . S
C798 C796 1.394 . S
C798 C799 1.369 . S
C798 C802 1.531 . S
C799 C798 1.369 . S
C799 C800 1.410 . S
C799 C807 1.503 . S
C800 C799 1.410 . S
C800 C801 1.392 . S
C800 C803 1.511 . S
C801 C797 1.376 . S
C801 C800 1.392 . S
C801 H813 0.929 . S
C802 C798 1.531 . S
C802 H814 0.960 . S
C802 H815 0.962 . S
C802 H816 0.960 . S
C803 C800 1.511 . S
C803 H817 0.961 . S
C803 H818 0.961 . S
C803 H819 0.961 . S
C804 C805 1.370 . S
C804 C806 1.363 . S
C804 H820 0.931 . S
C805 C804 1.370 . S
C805 C809 1.408 . S
C806 C804 1.363 . S
C806 C807 1.370 . S
C806 C810 1.524 . S
C807 C799 1.503 . S
C807 C806 1.370 . S
C807 C808 1.403 . S
C808 C807 1.403 . S
C808 C809 1.404 . S
C808 C811 1.539 . S
C809 C805 1.408 . S
C809 C808 1.404 . S
C809 H821 0.930 . S
C810 C806 1.524 . S
C810 H822 0.956 . S
C810 H823 0.961 . S
C810 H824 0.961 . S
C811 C808 1.539 . S
C811 H825 0.958 . S
C811 H826 0.961 . S
C811 H827 0.960 . S
H812 C796 0.931 . S
H813 C801 0.929 . S
H814 C802 0.960 . S
H815 C802 0.962 . S
H816 C802 0.960 . S
H817 C803 0.961 . S
H818 C803 0.961 . S
H819 C803 0.961 . S
H820 C804 0.931 . S
H821 C809 0.930 . S
H822 C810 0.956 . S
H823 C810 0.961 . S
H824 C810 0.961 . S
H825 C811 0.958 . S
H826 C811 0.961 . S
H827 C811 0.960 . S
C828 C829 1.391 . S
C828 C830 1.394 . S
C828 H844 0.931 . S
C829 C828 1.391 . S
C829 C833 1.376 . S
C830 C828 1.394 . S
C830 C831 1.369 . S
C830 C834 1.531 . S
C831 C830 1.369 . S
C831 C832 1.410 . S
C831 C839 1.503 . S
C832 C831 1.410 . S
C832 C833 1.392 . S
C832 C835 1.511 . S
C833 C829 1.376 . S
C833 C832 1.392 . S
C833 H845 0.929 . S
C834 C830 1.531 . S
C834 H846 0.960 . S
C834 H847 0.962 . S
C834 H848 0.960 . S
C835 C832 1.511 . S
C835 H849 0.961 . S
C835 H850 0.961 . S
C835 H851 0.961 . S
C836 C837 1.370 . S
C836 C838 1.363 . S
C836 H852 0.931 . S
C837 C836 1.370 . S
C837 C841 1.408 . S
C838 C836 1.363 . S
C838 C839 1.370 . S
C838 C842 1.524 . S
C839 C831 1.503 . S
C839 C838 1.370 . S
C839 C840 1.403 . S
C840 C839 1.403 . S
C840 C841 1.404 . S
C840 C843 1.539 . S
C841 C837 1.408 . S
C841 C840 1.404 . S
C841 H853 0.930 . S
C842 C838 1.524 . S
C842 H854 0.956 . S
C842 H855 0.961 . S
C842 H856 0.961 . S
C843 C840 1.539 . S
C843 H857 0.958 . S
C843 H858 0.961 . S
C843 H859 0.960 . S
H844 C828 0.931 . S
H845 C833 0.929 . S
H846 C834 0.960 . S
H847 C834 0.962 . S
H848 C834 0.960 . S
H849 C835 0.961 . S
H850 C835 0.961 . S
H851 C835 0.961 . S
H852 C836 0.931 . S
H853 C841 0.930 . S
H854 C842 0.956 . S
H855 C842 0.961 . S
H856 C842 0.961 . S
H857 C843 0.958 . S
H858 C843 0.961 . S
H859 C843 0.960 . S
C860 C861 1.391 . S
C860 C862 1.394 . S
C860 H876 0.931 . S
C861 C860 1.391 . S
C861 C865 1.376 . S
C862 C860 1.394 . S
C862 C863 1.369 . S
C862 C866 1.531 . S
C863 C862 1.369 . S
C863 C864 1.410 . S
C863 C871 1.503 . S
C864 C863 1.410 . S
C864 C865 1.392 . S
C864 C867 1.511 . S
C865 C861 1.376 . S
C865 C864 1.392 . S
C865 H877 0.929 . S
C866 C862 1.531 . S
C866 H878 0.960 . S
C866 H879 0.962 . S
C866 H880 0.960 . S
C867 C864 1.511 . S
C867 H881 0.961 . S
C867 H882 0.961 . S
C867 H883 0.961 . S
C868 C869 1.370 . S
C868 C870 1.363 . S
C868 H884 0.931 . S
C869 C868 1.370 . S
C869 C873 1.408 . S
C870 C868 1.363 . S
C870 C871 1.370 . S
C870 C874 1.524 . S
C871 C863 1.503 . S
C871 C870 1.370 . S
C871 C872 1.403 . S
C872 C871 1.403 . S
C872 C873 1.404 . S
C872 C875 1.539 . S
C873 C869 1.408 . S
C873 C872 1.404 . S
C873 H885 0.930 . S
C874 C870 1.524 . S
C874 H886 0.956 . S
C874 H887 0.961 . S
C874 H888 0.961 . S
C875 C872 1.539 . S
C875 H889 0.958 . S
C875 H890 0.961 . S
C875 H891 0.960 . S
H876 C860 0.931 . S
H877 C865 0.929 . S
H878 C866 0.960 . S
H879 C866 0.962 . S
H880 C866 0.960 . S
H881 C867 0.961 . S
H882 C867 0.961 . S
H883 C867 0.961 . S
H884 C868 0.931 . S
H885 C873 0.930 . S
H886 C874 0.956 . S
H887 C874 0.961 . S
H888 C874 0.961 . S
H889 C875 0.958 . S
H890 C875 0.961 . S
H891 C875 0.960 . S
C892 C893 1.391 . S
C892 C894 1.394 . S
C892 H908 0.931 . S
C893 C892 1.391 . S
C893 C897 1.376 . S
C894 C892 1.394 . S
C894 C895 1.369 . S
C894 C898 1.531 . S
C895 C894 1.369 . S
C895 C896 1.410 . S
C895 C903 1.503 . S
C896 C895 1.410 . S
C896 C897 1.392 . S
C896 C899 1.511 . S
C897 C893 1.376 . S
C897 C896 1.392 . S
C897 H909 0.929 . S
C898 C894 1.531 . S
C898 H910 0.960 . S
C898 H911 0.962 . S
C898 H912 0.960 . S
C899 C896 1.511 . S
C899 H913 0.961 . S
C899 H914 0.961 . S
C899 H915 0.961 . S
C900 C901 1.370 . S
C900 C902 1.363 . S
C900 H916 0.931 . S
C901 C900 1.370 . S
C901 C905 1.408 . S
C902 C900 1.363 . S
C902 C903 1.370 . S
C902 C906 1.524 . S
C903 C895 1.503 . S
C903 C902 1.370 . S
C903 C904 1.403 . S
C904 C903 1.403 . S
C904 C905 1.404 . S
C904 C907 1.539 . S
C905 C901 1.408 . S
C905 C904 1.404 . S
C905 H917 0.930 . S
C906 C902 1.524 . S
C906 H918 0.956 . S
C906 H919 0.961 . S
C906 H920 0.961 . S
C907 C904 1.539 . S
C907 H921 0.958 . S
C907 H922 0.961 . S
C907 H923 0.960 . S
H908 C892 0.931 . S
H909 C897 0.929 . S
H910 C898 0.960 . S
H911 C898 0.962 . S
H912 C898 0.960 . S
H913 C899 0.961 . S
H914 C899 0.961 . S
H915 C899 0.961 . S
H916 C900 0.931 . S
H917 C905 0.930 . S
H918 C906 0.956 . S
H919 C906 0.961 . S
H920 C906 0.961 . S
H921 C907 0.958 . S
H922 C907 0.961 . S
H923 C907 0.960 . S
C157 C8 0.585 . S
C165 C138 0.796 . S
C189 C151 0.466 . S
C197 C21 0.729 . S
C221 C86 0.530 . S
C229 C34 0.598 . S
C253 C47 0.888 . S
C261 C99 0.705 . S
C285 C60 0.623 . S
C293 C112 0.812 . S
C317 C125 0.588 . S
C325 C73 0.546 . S
C349 C5 1.014 . S
C357 C96 1.606 . S
C381 C109 0.744 . S
C389 C18 0.691 . S
C413 C122 0.671 . S
C421 C31 0.718 . S
C445 C44 0.720 . S
C453 C135 0.677 . S
C477 C148 1.022 . S
C485 C57 1.605 . S
C509 C70 0.715 . S
C517 C83 0.740 . S
C541 C49 0.696 . S
C549 C10 0.506 . S
C573 C62 0.560 . S
C581 C23 0.622 . S
C605 C75 0.824 1_655 S
C613 C36 0.768 . S
C637 C88 0.716 1_455 S
C645 C127 0.768 . S
C669 C101 0.486 . S
C677 C140 0.598 . S
C701 C114 0.696 . S
C709 C153 0.504 . S
C733 C104 1.820 . S
C741 C0 1.608 . S
C765 C117 1.534 . S
C773 C13 1.547 . S
C797 C130 1.532 . S
C805 C26 1.537 . S
C829 C143 1.672 . S
C837 C39 1.781 . S
C861 C78 1.458 . S
C869 C52 1.515 . S
C893 C65 1.454 . S
C901 C91 1.515 . S
