# Generated by pormake.
# Topology afi, (4)-cn, num edge types: 1
# Building blocks:
#     Node 0, Type 0, BuildingBlock: QUQFOY_clean_sbu_1, # of connection points: 4
#     Node 1, Type 0, BuildingBlock: QUQFOY_clean_sbu_1, # of connection points: 4
#     Node 2, Type 0, BuildingBlock: QUQFOY_clean_sbu_1, # of connection points: 4
#     Node 3, Type 0, BuildingBlock: QUQFOY_clean_sbu_1, # of connection points: 4
#     Node 4, Type 0, BuildingBlock: QUQFOY_clean_sbu_1, # of connection points: 4
#     Node 5, Type 0, BuildingBlock: QUQFOY_clean_sbu_1, # of connection points: 4
#     Node 6, Type 0, BuildingBlock: QUQFOY_clean_sbu_1, # of connection points: 4
#     Node 7, Type 0, BuildingBlock: QUQFOY_clean_sbu_1, # of connection points: 4
#     Node 8, Type 0, BuildingBlock: QUQFOY_clean_sbu_1, # of connection points: 4
#     Node 9, Type 0, BuildingBlock: QUQFOY_clean_sbu_1, # of connection points: 4
#     Node 10, Type 0, BuildingBlock: QUQFOY_clean_sbu_1, # of connection points: 4
#     Node 11, Type 0, BuildingBlock: QUQFOY_clean_sbu_1, # of connection points: 4
#     Node 12, Type 0, BuildingBlock: QUQFOY_clean_sbu_1, # of connection points: 4
#     Node 13, Type 0, BuildingBlock: QUQFOY_clean_sbu_1, # of connection points: 4
#     Node 14, Type 0, BuildingBlock: QUQFOY_clean_sbu_1, # of connection points: 4
#     Node 15, Type 0, BuildingBlock: QUQFOY_clean_sbu_1, # of connection points: 4
#     Node 16, Type 0, BuildingBlock: QUQFOY_clean_sbu_1, # of connection points: 4
#     Node 17, Type 0, BuildingBlock: QUQFOY_clean_sbu_1, # of connection points: 4
#     Node 18, Type 0, BuildingBlock: QUQFOY_clean_sbu_1, # of connection points: 4
#     Node 19, Type 0, BuildingBlock: QUQFOY_clean_sbu_1, # of connection points: 4
#     Node 20, Type 0, BuildingBlock: QUQFOY_clean_sbu_1, # of connection points: 4
#     Node 21, Type 0, BuildingBlock: QUQFOY_clean_sbu_1, # of connection points: 4
#     Node 22, Type 0, BuildingBlock: QUQFOY_clean_sbu_1, # of connection points: 4
#     Node 23, Type 0, BuildingBlock: QUQFOY_clean_sbu_1, # of connection points: 4
#     Edge 24, Type (0, 0), BuildingBlock: XUDNAN_clean_linker_2, # of connection points: 2
#     Edge 25, Type (0, 0), BuildingBlock: XUDNAN_clean_linker_2, # of connection points: 2
#     Edge 26, Type (0, 0), BuildingBlock: XUDNAN_clean_linker_2, # of connection points: 2
#     Edge 27, Type (0, 0), BuildingBlock: XUDNAN_clean_linker_2, # of connection points: 2
#     Edge 28, Type (0, 0), BuildingBlock: XUDNAN_clean_linker_2, # of connection points: 2
#     Edge 29, Type (0, 0), BuildingBlock: XUDNAN_clean_linker_2, # of connection points: 2
#     Edge 30, Type (0, 0), BuildingBlock: XUDNAN_clean_linker_2, # of connection points: 2
#     Edge 31, Type (0, 0), BuildingBlock: XUDNAN_clean_linker_2, # of connection points: 2
#     Edge 32, Type (0, 0), BuildingBlock: XUDNAN_clean_linker_2, # of connection points: 2
#     Edge 33, Type (0, 0), BuildingBlock: XUDNAN_clean_linker_2, # of connection points: 2
#     Edge 34, Type (0, 0), BuildingBlock: XUDNAN_clean_linker_2, # of connection points: 2
#     Edge 35, Type (0, 0), BuildingBlock: XUDNAN_clean_linker_2, # of connection points: 2
#     Edge 36, Type (0, 0), BuildingBlock: XUDNAN_clean_linker_2, # of connection points: 2
#     Edge 37, Type (0, 0), BuildingBlock: XUDNAN_clean_linker_2, # of connection points: 2
#     Edge 38, Type (0, 0), BuildingBlock: XUDNAN_clean_linker_2, # of connection points: 2
#     Edge 39, Type (0, 0), BuildingBlock: XUDNAN_clean_linker_2, # of connection points: 2
#     Edge 40, Type (0, 0), BuildingBlock: XUDNAN_clean_linker_2, # of connection points: 2
#     Edge 41, Type (0, 0), BuildingBlock: XUDNAN_clean_linker_2, # of connection points: 2
#     Edge 42, Type (0, 0), BuildingBlock: XUDNAN_clean_linker_2, # of connection points: 2
#     Edge 43, Type (0, 0), BuildingBlock: XUDNAN_clean_linker_2, # of connection points: 2
#     Edge 44, Type (0, 0), BuildingBlock: XUDNAN_clean_linker_2, # of connection points: 2
#     Edge 45, Type (0, 0), BuildingBlock: XUDNAN_clean_linker_2, # of connection points: 2
#     Edge 46, Type (0, 0), BuildingBlock: XUDNAN_clean_linker_2, # of connection points: 2
#     Edge 47, Type (0, 0), BuildingBlock: XUDNAN_clean_linker_2, # of connection points: 2
#     Edge 48, Type (0, 0), BuildingBlock: XUDNAN_clean_linker_2, # of connection points: 2
#     Edge 49, Type (0, 0), BuildingBlock: XUDNAN_clean_linker_2, # of connection points: 2
#     Edge 50, Type (0, 0), BuildingBlock: XUDNAN_clean_linker_2, # of connection points: 2
#     Edge 51, Type (0, 0), BuildingBlock: XUDNAN_clean_linker_2, # of connection points: 2
#     Edge 52, Type (0, 0), BuildingBlock: XUDNAN_clean_linker_2, # of connection points: 2
#     Edge 53, Type (0, 0), BuildingBlock: XUDNAN_clean_linker_2, # of connection points: 2
#     Edge 54, Type (0, 0), BuildingBlock: XUDNAN_clean_linker_2, # of connection points: 2
#     Edge 55, Type (0, 0), BuildingBlock: XUDNAN_clean_linker_2, # of connection points: 2
#     Edge 56, Type (0, 0), BuildingBlock: XUDNAN_clean_linker_2, # of connection points: 2
#     Edge 57, Type (0, 0), BuildingBlock: XUDNAN_clean_linker_2, # of connection points: 2
#     Edge 58, Type (0, 0), BuildingBlock: XUDNAN_clean_linker_2, # of connection points: 2
#     Edge 59, Type (0, 0), BuildingBlock: XUDNAN_clean_linker_2, # of connection points: 2
#     Edge 60, Type (0, 0), BuildingBlock: XUDNAN_clean_linker_2, # of connection points: 2
#     Edge 61, Type (0, 0), BuildingBlock: XUDNAN_clean_linker_2, # of connection points: 2
#     Edge 62, Type (0, 0), BuildingBlock: XUDNAN_clean_linker_2, # of connection points: 2
#     Edge 63, Type (0, 0), BuildingBlock: XUDNAN_clean_linker_2, # of connection points: 2
#     Edge 64, Type (0, 0), BuildingBlock: XUDNAN_clean_linker_2, # of connection points: 2
#     Edge 65, Type (0, 0), BuildingBlock: XUDNAN_clean_linker_2, # of connection points: 2
#     Edge 66, Type (0, 0), BuildingBlock: XUDNAN_clean_linker_2, # of connection points: 2
#     Edge 67, Type (0, 0), BuildingBlock: XUDNAN_clean_linker_2, # of connection points: 2
#     Edge 68, Type (0, 0), BuildingBlock: XUDNAN_clean_linker_2, # of connection points: 2
#     Edge 69, Type (0, 0), BuildingBlock: XUDNAN_clean_linker_2, # of connection points: 2
#     Edge 70, Type (0, 0), BuildingBlock: XUDNAN_clean_linker_2, # of connection points: 2
#     Edge 71, Type (0, 0), BuildingBlock: XUDNAN_clean_linker_2, # of connection points: 2
# Relax obj value: 0.129
# Max RMSD: 0.169
# Mean RMSD: 0.169
data_MOF--net-afi--node1-QUQFOY_clean_sbu_1--edge1-XUDNAN_clean_linker_2
_symmetry_space_group_name_H-M    P1
_symmetry_Int_Tables_number       1
_symmetry_cell_setting            triclinic
loop_
_symmetry_equiv_pos_as_xyz
'x, y, z'
_cell_length_a     68.344885
_cell_length_b     68.390267
_cell_length_c     44.597041
_cell_angle_alpha  89.991347
_cell_angle_beta   89.981522
_cell_angle_gamma 120.03087
loop_
_atom_site_label
_atom_site_type_symbol
_atom_site_fract_x
_atom_site_fract_y
_atom_site_fract_z
_atom_type_partial_charge
O0 O 0.48648 0.13154 0.22903 0.0
Cd1 Cd 0.45551 0.1254 0.21414 0.0
Cd2 Cd 0.46395 0.10192 0.17164 0.0
O3 O 0.49476 0.11438 0.19359 0.0
O4 O 0.4502 0.14599 0.24009 0.0
O5 O 0.45237 0.14895 0.19076 0.0
C6 C 0.44997 0.15646 0.21625 0.0
C7 C 0.46279 0.10861 0.12028 0.0
C8 C 0.49989 0.12576 0.21778 0.0
C9 C 0.42455 0.07521 0.21326 0.0
O10 O 0.43649 0.07449 0.19182 0.0
O11 O 0.4288 0.09406 0.22429 0.0
O12 O 0.46704 0.09328 0.12973 0.0
O13 O 0.45926 0.12029 0.14013 0.0
O14 O 0.35135 0.4827 0.24293 0.0
Cd15 Cd 0.32703 0.45031 0.2334 0.0
Cd16 Cd 0.35726 0.46211 0.17897 0.0
O17 O 0.37382 0.49212 0.20341 0.0
O18 O 0.30718 0.44327 0.26922 0.0
O19 O 0.29532 0.44336 0.22328 0.0
C20 C 0.29122 0.44094 0.25171 0.0
C21 C 0.36148 0.46554 0.12622 0.0
C22 C 0.36889 0.49693 0.22888 0.0
C23 C 0.34868 0.42225 0.21965 0.0
O24 O 0.35742 0.43393 0.1961 0.0
O25 O 0.33639 0.42623 0.23702 0.0
O26 O 0.3779 0.46932 0.14383 0.0
O27 O 0.34229 0.46004 0.13846 0.0
O28 O 0.87114 0.36218 0.23044 0.0
Cd29 Cd 0.87601 0.33506 0.22734 0.0
Cd30 Cd 0.89283 0.35433 0.1683 0.0
O31 O 0.88262 0.37623 0.18496 0.0
O32 O 0.861 0.3172 0.26403 0.0
O33 O 0.8501 0.30385 0.21824 0.0
C34 C 0.84741 0.30088 0.24688 0.0
C35 C 0.88661 0.34628 0.11661 0.0
C36 C 0.87481 0.37693 0.21061 0.0
C37 C 0.92462 0.35048 0.21293 0.0
O38 O 0.92154 0.35576 0.18668 0.0
O39 O 0.90866 0.34205 0.23194 0.0
O40 O 0.90232 0.36551 0.12631 0.0
O41 O 0.87433 0.33128 0.13634 0.0
O42 O 0.52597 0.87162 0.2406 0.0
Cd43 Cd 0.55767 0.8784 0.22872 0.0
Cd44 Cd 0.54551 0.89343 0.1762 0.0
O45 O 0.51544 0.88222 0.19983 0.0
O46 O 0.56561 0.86537 0.26336 0.0
O47 O 0.56272 0.85267 0.21716 0.0
C48 C 0.56629 0.85109 0.24526 0.0
C49 C 0.54424 0.88436 0.12516 0.0
C50 C 0.51136 0.87422 0.22634 0.0
C51 C 0.58583 0.92749 0.2125 0.0
O52 O 0.57324 0.92364 0.1897 0.0
O53 O 0.58261 0.91171 0.23038 0.0
O54 O 0.5394 0.89932 0.1343 0.0
O55 O 0.5494 0.87404 0.14519 0.0
O56 O 0.6515 0.51771 0.23543 0.0
Cd57 Cd 0.67655 0.54989 0.22495 0.0
Cd58 Cd 0.64498 0.54097 0.17768 0.0
O59 O 0.62684 0.50991 0.19895 0.0
O60 O 0.69609 0.55566 0.26074 0.0
O61 O 0.70829 0.5565 0.21484 0.0
C62 C 0.71222 0.55847 0.24329 0.0
C63 C 0.65356 0.54259 0.12652 0.0
C64 C 0.63276 0.5043 0.22303 0.0
C65 C 0.655 0.57935 0.21939 0.0
O66 O 0.64335 0.56768 0.19715 0.0
O67 O 0.66922 0.57518 0.23179 0.0
O68 O 0.63366 0.53764 0.13558 0.0
O69 O 0.66871 0.54656 0.14667 0.0
O70 O 0.13581 0.64604 0.22842 0.0
Cd71 Cd 0.13161 0.67331 0.22091 0.0
Cd72 Cd 0.1047 0.64607 0.17183 0.0
O73 O 0.11823 0.62676 0.1877 0.0
O74 O 0.15495 0.69786 0.24622 0.0
O75 O 0.15399 0.70009 0.1968 0.0
C76 C 0.16362 0.70919 0.22197 0.0
C77 C 0.09783 0.64319 0.11962 0.0
C78 C 0.12944 0.629 0.21149 0.0
C79 C 0.08242 0.65821 0.22276 0.0
O80 O 0.08045 0.64792 0.19816 0.0
O81 O 0.10162 0.6699 0.235 0.0
O82 O 0.08566 0.62705 0.13787 0.0
O83 O 0.11422 0.66143 0.13088 0.0
O84 O 0.87554 0.52546 0.28201 0.0
Cd85 Cd 0.88329 0.55672 0.29709 0.0
Cd86 Cd 0.89837 0.54428 0.34568 0.0
O87 O 0.88685 0.51437 0.32149 0.0
O88 O 0.86493 0.56516 0.27142 0.0
O89 O 0.86065 0.56083 0.32066 0.0
C90 C 0.85426 0.565 0.29535 0.0
C91 C 0.88816 0.54294 0.3962 0.0
C92 C 0.87835 0.51064 0.29527 0.0
C93 C 0.93237 0.58473 0.30969 0.0
O94 O 0.92871 0.57205 0.33236 0.0
O95 O 0.91633 0.58165 0.29238 0.0
O96 O 0.90322 0.53794 0.38797 0.0
O97 O 0.87847 0.54835 0.37553 0.0
O98 O 0.36471 0.87267 0.28815 0.0
Cd99 Cd 0.33774 0.87775 0.29127 0.0
Cd100 Cd 0.35991 0.89715 0.35189 0.0
O101 O 0.37941 0.8846 0.33329 0.0
O102 O 0.31981 0.86258 0.2547 0.0
O103 O 0.30655 0.85182 0.30057 0.0
C104 C 0.30355 0.84898 0.27195 0.0
C105 C 0.36296 0.89994 0.4049 0.0
C106 C 0.3795 0.8762 0.30785 0.0
C107 C 0.35323 0.92656 0.3049 0.0
O108 O 0.35924 0.92414 0.33103 0.0
O109 O 0.34464 0.91032 0.28636 0.0
O110 O 0.3792 0.91307 0.38738 0.0
O111 O 0.34439 0.88501 0.39248 0.0
O112 O 0.48948 0.35775 0.2912 0.0
Cd113 Cd 0.45773 0.32995 0.29508 0.0
Cd114 Cd 0.45924 0.3541 0.35031 0.0
O115 O 0.49186 0.37465 0.3345 0.0
O116 O 0.45615 0.31324 0.2577 0.0
O117 O 0.45319 0.29873 0.30273 0.0
C118 C 0.45345 0.29657 0.274 0.0
C119 C 0.45573 0.34609 0.40203 0.0
C120 C 0.50049 0.37369 0.30964 0.0
C121 C 0.424 0.34621 0.30311 0.0
O122 O 0.433 0.35528 0.32809 0.0
O123 O 0.43106 0.33509 0.28833 0.0
O124 O 0.45973 0.3654 0.39194 0.0
O125 O 0.45329 0.33098 0.38265 0.0
O126 O 0.13269 0.48417 0.29076 0.0
Cd127 Cd 0.12445 0.45231 0.30455 0.0
Cd128 Cd 0.10099 0.46104 0.34653 0.0
O129 O 0.11457 0.49216 0.32515 0.0
O130 O 0.14461 0.4461 0.27905 0.0
O131 O 0.1461 0.44655 0.32852 0.0
C132 C 0.1538 0.44415 0.30318 0.0
C133 C 0.10742 0.45924 0.39779 0.0
C134 C 0.12692 0.49765 0.3018 0.0
C135 C 0.07396 0.4228 0.30375 0.0
O136 O 0.07329 0.43425 0.32584 0.0
O137 O 0.09281 0.42698 0.29275 0.0
O138 O 0.09246 0.46409 0.38849 0.0
O139 O 0.11882 0.45541 0.37783 0.0
O140 O 0.64639 0.13098 0.29188 0.0
Cd141 Cd 0.67387 0.12707 0.29919 0.0
Cd142 Cd 0.6473 0.10058 0.34862 0.0
O143 O 0.62748 0.11359 0.3329 0.0
O144 O 0.6982 0.15047 0.27367 0.0
O145 O 0.70061 0.14971 0.32309 0.0
C146 C 0.70954 0.15934 0.29784 0.0
C147 C 0.64562 0.09484 0.40105 0.0
C148 C 0.62944 0.12459 0.309 0.0
C149 C 0.65912 0.07801 0.29779 0.0
O150 O 0.64902 0.07615 0.32254 0.0
O151 O 0.67063 0.09714 0.28529 0.0
O152 O 0.62916 0.08212 0.38354 0.0
O153 O 0.66352 0.11111 0.38889 0.0
O154 O 0.51324 0.64388 0.29207 0.0
Cd155 Cd 0.54591 0.66905 0.29802 0.0
Cd156 Cd 0.54239 0.6488 0.35322 0.0
O157 O 0.50983 0.62831 0.33662 0.0
O158 O 0.55124 0.69453 0.27141 0.0
O159 O 0.55342 0.69704 0.32102 0.0
C160 C 0.55487 0.70648 0.29535 0.0
C161 C 0.54498 0.65681 0.40491 0.0
C162 C 0.50153 0.62881 0.31126 0.0
C163 C 0.57726 0.65165 0.30787 0.0
O164 O 0.56905 0.64649 0.33423 0.0
O165 O 0.57011 0.66068 0.2893 0.0
O166 O 0.54046 0.6373 0.39504 0.0
O167 O 0.5482 0.67207 0.38535 0.0
O168 O 0.51484 0.87206 0.78962 0.0
Cd169 Cd 0.54691 0.87716 0.79302 0.0
Cd170 Cd 0.54328 0.89171 0.85299 0.0
O171 O 0.51114 0.88117 0.83603 0.0
O172 O 0.55048 0.86311 0.75591 0.0
O173 O 0.55238 0.85136 0.80143 0.0
C174 C 0.55313 0.84929 0.77272 0.0
C175 C 0.54477 0.8845 0.90439 0.0
C176 C 0.50315 0.8744 0.80988 0.0
C177 C 0.57963 0.92512 0.81018 0.0
O178 O 0.57057 0.92113 0.83607 0.0
O179 O 0.57266 0.90982 0.7903 0.0
O180 O 0.54086 0.90008 0.89528 0.0
O181 O 0.54801 0.87286 0.88422 0.0
O182 O 0.64253 0.51451 0.7916 0.0
Cd183 Cd 0.66902 0.54623 0.79955 0.0
Cd184 Cd 0.64784 0.54215 0.85395 0.0
O185 O 0.6268 0.51006 0.83625 0.0
O186 O 0.69446 0.55045 0.77351 0.0
O187 O 0.69581 0.55063 0.82319 0.0
C188 C 0.7055 0.55203 0.79773 0.0
C189 C 0.65591 0.54393 0.90557 0.0
C190 C 0.62713 0.50251 0.81027 0.0
C191 C 0.65313 0.57879 0.81002 0.0
O192 O 0.64648 0.56951 0.8356 0.0
O193 O 0.66284 0.57211 0.79184 0.0
O194 O 0.6365 0.53997 0.89595 0.0
O195 O 0.671 0.54699 0.8858 0.0
O196 O 0.12743 0.6406 0.78903 0.0
Cd197 Cd 0.12191 0.66704 0.79657 0.0
Cd198 Cd 0.09662 0.64025 0.84599 0.0
O199 O 0.11045 0.62125 0.82996 0.0
O200 O 0.14465 0.69218 0.77148 0.0
O201 O 0.1433 0.69407 0.82093 0.0
C202 C 0.15277 0.70355 0.79583 0.0
C203 C 0.09215 0.6393 0.89858 0.0
C204 C 0.12163 0.62371 0.80606 0.0
C205 C 0.0725 0.65075 0.79596 0.0
O206 O 0.07125 0.64092 0.82075 0.0
O207 O 0.0914 0.66252 0.78301 0.0
O208 O 0.07934 0.62239 0.88175 0.0
O209 O 0.10776 0.65723 0.88561 0.0
O210 O 0.48323 0.12917 0.78815 0.0
Cd211 Cd 0.45203 0.12439 0.79961 0.0
Cd212 Cd 0.46086 0.10121 0.84764 0.0
O213 O 0.49135 0.11292 0.82512 0.0
O214 O 0.44663 0.13776 0.76302 0.0
O215 O 0.44801 0.1514 0.80812 0.0
C216 C 0.44562 0.15255 0.77959 0.0
C217 C 0.46078 0.10826 0.89915 0.0
C218 C 0.49653 0.12363 0.80037 0.0
C219 C 0.42062 0.0738 0.80761 0.0
O220 O 0.43285 0.07352 0.82895 0.0
O221 O 0.42515 0.09227 0.79506 0.0
O222 O 0.46463 0.09274 0.88936 0.0
O223 O 0.45706 0.11996 0.87954 0.0
O224 O 0.35882 0.48819 0.78677 0.0
Cd225 Cd 0.33227 0.45595 0.79057 0.0
Cd226 Cd 0.35524 0.4606 0.85175 0.0
O227 O 0.37384 0.49235 0.832 0.0
O228 O 0.31474 0.45226 0.75321 0.0
O229 O 0.30064 0.44996 0.79846 0.0
C230 C 0.29805 0.44936 0.76973 0.0
C231 C 0.3593 0.46205 0.90467 0.0
C232 C 0.37357 0.50014 0.80618 0.0
C233 C 0.34902 0.42387 0.806 0.0
O234 O 0.35514 0.43295 0.83179 0.0
O235 O 0.33991 0.43073 0.78711 0.0
O236 O 0.37537 0.4653 0.88676 0.0
O237 O 0.34031 0.45757 0.89273 0.0
O238 O 0.87155 0.35343 0.783 0.0
Cd239 Cd 0.87891 0.32946 0.79717 0.0
Cd240 Cd 0.89699 0.35786 0.84468 0.0
O241 O 0.88533 0.3766 0.82155 0.0
O242 O 0.85893 0.30246 0.77264 0.0
O243 O 0.85647 0.30342 0.82207 0.0
C244 C 0.84887 0.29254 0.79716 0.0
C245 C 0.88838 0.34961 0.89573 0.0
C246 C 0.8756 0.37155 0.79607 0.0
C247 C 0.92837 0.34933 0.80581 0.0
O248 O 0.92619 0.35901 0.82891 0.0
O249 O 0.91141 0.3365 0.78974 0.0
O250 O 0.90365 0.36941 0.88685 0.0
O251 O 0.87763 0.33445 0.87546 0.0
O252 O 0.13333 0.48337 0.72673 0.0
Cd253 Cd 0.1269 0.45216 0.71248 0.0
Cd254 Cd 0.10253 0.45972 0.67036 0.0
O255 O 0.11494 0.49063 0.6919 0.0
O256 O 0.14781 0.44712 0.73813 0.0
O257 O 0.14996 0.4484 0.68872 0.0
C258 C 0.15781 0.44631 0.71411 0.0
C259 C 0.10858 0.45845 0.61884 0.0
C260 C 0.12695 0.49635 0.71557 0.0
C261 C 0.07661 0.42098 0.71298 0.0
O262 O 0.07545 0.43233 0.69111 0.0
O263 O 0.09568 0.42572 0.72381 0.0
O264 O 0.09324 0.46255 0.62876 0.0
O265 O 0.1206 0.45508 0.63833 0.0
O266 O 0.64447 0.12925 0.73291 0.0
Cd267 Cd 0.67247 0.1256 0.73002 0.0
Cd268 Cd 0.64697 0.09984 0.67484 0.0
O269 O 0.62708 0.11272 0.69058 0.0
O270 O 0.68973 0.14251 0.76617 0.0
O271 O 0.70353 0.15187 0.7204 0.0
C272 C 0.70619 0.15559 0.7489 0.0
C273 C 0.64538 0.09444 0.62228 0.0
C274 C 0.62822 0.12326 0.71462 0.0
C275 C 0.6571 0.0758 0.72553 0.0
O276 O 0.64805 0.07481 0.70019 0.0
O277 O 0.66776 0.09434 0.7396 0.0
O278 O 0.62884 0.08174 0.6397 0.0
O279 O 0.66331 0.11054 0.63459 0.0
O280 O 0.51868 0.65083 0.73302 0.0
Cd281 Cd 0.55025 0.67523 0.71929 0.0
Cd282 Cd 0.54262 0.64421 0.67673 0.0
O283 O 0.51134 0.62572 0.69744 0.0
O284 O 0.5556 0.70144 0.74445 0.0
O285 O 0.55452 0.70193 0.69496 0.0
C286 C 0.55663 0.71209 0.72017 0.0
C287 C 0.54463 0.65316 0.62574 0.0
C288 C 0.5055 0.6318 0.72119 0.0
C289 C 0.58091 0.65567 0.71948 0.0
O290 O 0.56957 0.64356 0.69732 0.0
O291 O 0.57635 0.66999 0.73073 0.0
O292 O 0.54008 0.63333 0.63453 0.0
O293 O 0.54807 0.66802 0.64607 0.0
O294 O 0.86841 0.51324 0.73228 0.0
Cd295 Cd 0.87321 0.54519 0.72808 0.0
Cd296 Cd 0.88818 0.54119 0.6686 0.0
O297 O 0.87762 0.50923 0.68605 0.0
O298 O 0.85861 0.54891 0.76458 0.0
O299 O 0.84718 0.5502 0.71866 0.0
C300 C 0.84477 0.55114 0.74727 0.0
C301 C 0.88208 0.54248 0.61676 0.0
C302 C 0.87091 0.50145 0.71231 0.0
C303 C 0.92143 0.57761 0.71142 0.0
O304 O 0.91752 0.56833 0.6857 0.0
O305 O 0.90597 0.57098 0.73109 0.0
O306 O 0.89737 0.5385 0.62687 0.0
O307 O 0.87003 0.54584 0.63616 0.0
O308 O 0.35103 0.86776 0.74223 0.0
Cd309 Cd 0.32573 0.87432 0.73225 0.0
Cd310 Cd 0.3566 0.89517 0.67917 0.0
O311 O 0.37408 0.88268 0.70354 0.0
O312 O 0.30545 0.86007 0.76734 0.0
O313 O 0.29473 0.84868 0.72092 0.0
C314 C 0.29012 0.8463 0.74921 0.0
C315 C 0.36161 0.89707 0.62651 0.0
C316 C 0.36917 0.87243 0.72865 0.0
C317 C 0.34547 0.92413 0.72065 0.0
O318 O 0.355 0.92238 0.69712 0.0
O319 O 0.33344 0.9072 0.73722 0.0
O320 O 0.37749 0.91 0.64462 0.0
O321 O 0.34252 0.88247 0.63818 0.0
O322 O 0.48443 0.3524 0.73052 0.0
Cd323 Cd 0.45289 0.32781 0.71711 0.0
Cd324 Cd 0.46078 0.3593 0.67419 0.0
O325 O 0.49192 0.37785 0.69534 0.0
O326 O 0.44771 0.30239 0.7439 0.0
O327 O 0.44819 0.30023 0.69453 0.0
C328 C 0.44627 0.29088 0.72035 0.0
C329 C 0.45872 0.3505 0.62305 0.0
C330 C 0.4976 0.3716 0.71907 0.0
C331 C 0.42228 0.3475 0.7169 0.0
O332 O 0.43366 0.35964 0.69477 0.0
O333 O 0.42684 0.3332 0.72821 0.0
O334 O 0.46327 0.3703 0.63197 0.0
O335 O 0.45545 0.33563 0.64332 0.0
H336 H 0.40861 0.03138 0.19481 0.0
H337 H 0.403 0.07127 0.2665 0.0
H338 H 0.38048 0.03669 0.29609 0.0
H339 H 0.35075 0.98077 0.20554 0.0
H340 H 0.36081 0.96158 0.19686 0.0
H341 H 0.37383 0.98911 0.17961 0.0
H342 H 0.41287 0.99731 0.1994 0.0
H343 H 0.39999 0.96999 0.21693 0.0
H344 H 0.41659 0.99503 0.23902 0.0
H345 H 0.3648 0.99906 0.3215 0.0
H346 H 0.3531 0.96017 0.33823 0.0
H347 H 0.36619 0.94423 0.24901 0.0
C348 C 0.4021 0.03278 0.21635 0.0
C349 C 0.40763 0.05409 0.22827 0.0
C350 C 0.39894 0.05517 0.25673 0.0
C351 C 0.38613 0.0356 0.2738 0.0
C352 C 0.3817 0.01497 0.26189 0.0
C353 C 0.38898 0.01335 0.23353 0.0
C354 C 0.38303 0.98931 0.22667 0.0
C355 C 0.36609 0.97962 0.20062 0.0
C356 C 0.40439 0.98784 0.22014 0.0
C357 C 0.37218 0.97791 0.25604 0.0
C358 C 0.37155 0.99298 0.27609 0.0
C359 C 0.36456 0.98692 0.30574 0.0
C360 C 0.35806 0.96488 0.3151 0.0
C361 C 0.35832 0.94916 0.29474 0.0
C362 C 0.36517 0.95574 0.26478 0.0
H363 H 0.40645 0.37217 0.32452 0.0
H364 H 0.40344 0.33071 0.24889 0.0
H365 H 0.3803 0.34277 0.22106 0.0
H366 H 0.3478 0.36305 0.31457 0.0
H367 H 0.35666 0.39168 0.32542 0.0
H368 H 0.37049 0.37746 0.34113 0.0
H369 H 0.40914 0.4101 0.32298 0.0
H370 H 0.39546 0.42429 0.307 0.0
H371 H 0.41302 0.41772 0.28383 0.0
H372 H 0.36376 0.36439 0.198 0.0
H373 H 0.35073 0.39103 0.18372 0.0
H374 H 0.36138 0.41613 0.27494 0.0
C375 C 0.40038 0.36511 0.30247 0.0
C376 C 0.40688 0.35053 0.28896 0.0
C377 C 0.39876 0.34191 0.25984 0.0
C378 C 0.38555 0.34864 0.24377 0.0
C379 C 0.38017 0.36368 0.25724 0.0
C380 C 0.38689 0.37146 0.28616 0.0
C381 C 0.37989 0.38855 0.29466 0.0
C382 C 0.36268 0.37964 0.32047 0.0
C383 C 0.40061 0.41152 0.30257 0.0
C384 C 0.36904 0.38977 0.26562 0.0
C385 C 0.3694 0.3753 0.2443 0.0
C386 C 0.36271 0.3753 0.21473 0.0
C387 C 0.35546 0.3905 0.20676 0.0
C388 C 0.35461 0.40513 0.22842 0.0
C389 C 0.36119 0.40453 0.25826 0.0
H390 H 0.94261 0.36355 0.26861 0.0
H391 H 0.95851 0.3515 0.1788 0.0
H392 H 0.99775 0.36405 0.19487 0.0
H393 H 0.99261 0.41435 0.27842 0.0
H394 H 0.99536 0.41061 0.3179 0.0
H395 H 0.96785 0.39715 0.30081 0.0
H396 H 0.96042 0.35825 0.32001 0.0
H397 H 0.98799 0.37162 0.33719 0.0
H398 H 0.98011 0.34887 0.31087 0.0
H399 H 0.03559 0.38017 0.21988 0.0
H400 H 0.07016 0.40249 0.24958 0.0
H401 H 0.03003 0.40663 0.3222 0.0
C402 C 0.9542 0.36296 0.25256 0.0
C403 C 0.94751 0.35616 0.22262 0.0
C404 C 0.96331 0.35644 0.2019 0.0
C405 C 0.98555 0.36341 0.2109 0.0
C406 C 0.99169 0.37031 0.24054 0.0
C407 C 0.97651 0.37035 0.26097 0.0
C408 C 0.98797 0.38115 0.29034 0.0
C409 C 0.98582 0.40205 0.29725 0.0
C410 C 0.97856 0.36394 0.31612 0.0
C411 C 0.01211 0.38765 0.28306 0.0
C412 C 0.01378 0.38075 0.25449 0.0
C413 C 0.03446 0.38553 0.24234 0.0
C414 C 0.05402 0.39821 0.25947 0.0
C415 C 0.05285 0.40637 0.28828 0.0
C416 C 0.03151 0.40056 0.30037 0.0
H417 H 0.59663 0.94598 0.26815 0.0
H418 H 0.612 0.962 0.17398 0.0
H419 H 0.63746 0.00218 0.18708 0.0
H420 H 0.59102 0.99235 0.28384 0.0
H421 H 0.60252 0.99696 0.32122 0.0
H422 H 0.58923 0.96912 0.30518 0.0
H423 H 0.62556 0.96703 0.31456 0.0
H424 H 0.639 0.99493 0.33071 0.0
H425 H 0.65219 0.98887 0.29987 0.0
H426 H 0.65848 0.04075 0.20998 0.0
H427 H 0.67021 0.07522 0.23964 0.0
H428 H 0.63865 0.03429 0.31867 0.0
C429 C 0.60596 0.95786 0.25041 0.0
C430 C 0.60283 0.95094 0.22012 0.0
C431 C 0.61447 0.96702 0.19734 0.0
C432 C 0.62901 0.9898 0.2046 0.0
C433 C 0.63142 0.99619 0.2347 0.0
C434 C 0.62004 0.9807 0.25723 0.0
C435 C 0.62301 0.99226 0.28723 0.0
C436 C 0.60009 0.98738 0.3001 0.0
C437 C 0.6357 0.98536 0.3094 0.0
C438 C 0.63736 0.01673 0.27796 0.0
C439 C 0.6425 0.01859 0.24774 0.0
C440 C 0.65473 0.0395 0.23371 0.0
C441 C 0.66134 0.05901 0.25082 0.0
C442 C 0.65534 0.0575 0.28154 0.0
C443 C 0.64361 0.03604 0.29532 0.0
H444 H 0.58069 0.63658 0.25277 0.0
H445 H 0.61119 0.65238 0.34114 0.0
H446 H 0.63822 0.64033 0.32499 0.0
H447 H 0.58135 0.58616 0.24536 0.0
H448 H 0.58675 0.58871 0.20558 0.0
H449 H 0.57244 0.60199 0.2224 0.0
H450 H 0.60257 0.64059 0.20053 0.0
H451 H 0.61705 0.6274 0.18368 0.0
H452 H 0.63204 0.65115 0.2085 0.0
H453 H 0.66021 0.62469 0.30033 0.0
H454 H 0.67267 0.60218 0.27171 0.0
H455 H 0.62581 0.59368 0.20032 0.0
C456 C 0.59346 0.63802 0.26844 0.0
C457 C 0.59424 0.64577 0.29801 0.0
C458 C 0.61054 0.64667 0.31832 0.0
C459 C 0.626 0.64001 0.30927 0.0
C460 C 0.62466 0.63223 0.28 0.0
C461 C 0.60862 0.63093 0.25999 0.0
C462 C 0.6089 0.61934 0.23116 0.0
C463 C 0.58601 0.59777 0.22584 0.0
C464 C 0.61554 0.6356 0.20438 0.0
C465 C 0.62729 0.61386 0.23832 0.0
C466 C 0.63652 0.62197 0.26629 0.0
C467 C 0.6532 0.61836 0.27834 0.0
C468 C 0.66018 0.60554 0.26181 0.0
C469 C 0.65019 0.59606 0.23371 0.0
C470 C 0.63388 0.60078 0.22159 0.0
H471 H 0.03859 0.63746 0.2023 0.0
H472 H 0.07989 0.66966 0.2808 0.0
H473 H 0.04551 0.65792 0.31076 0.0
H474 H 0.99284 0.65067 0.22135 0.0
H475 H 0.97118 0.62391 0.20683 0.0
H476 H 0.99907 0.63757 0.19056 0.0
H477 H 1.0016 0.60151 0.20004 0.0
H478 H 0.97387 0.58784 0.21652 0.0
H479 H 0.99749 0.59018 0.2375 0.0
H480 H 0.00712 0.63681 0.3341 0.0
H481 H 0.96704 0.61118 0.34771 0.0
H482 H 0.95048 0.59524 0.25378 0.0
C483 C 0.04042 0.64259 0.22558 0.0
C484 C 0.06196 0.65447 0.23915 0.0
C485 C 0.06361 0.66066 0.26979 0.0
C486 C 0.04416 0.65406 0.28706 0.0
C487 C 0.02317 0.64168 0.27326 0.0
C488 C 0.02117 0.63641 0.24307 0.0
C489 C 0.99663 0.62177 0.23415 0.0
C490 C 0.98951 0.63423 0.2119 0.0
C491 C 0.99215 0.59898 0.22131 0.0
C492 C 0.98526 0.61882 0.26428 0.0
C493 C 1.00085 0.63046 0.28657 0.0
C494 C 0.99465 0.62818 0.31674 0.0
C495 C 0.97193 0.61355 0.3243 0.0
C496 C 0.95573 0.60171 0.30172 0.0
C497 C 0.96246 0.6047 0.27136 0.0
H498 H 0.58846 0.94394 0.75455 0.0
H499 H 0.60943 0.95879 0.84748 0.0
H500 H 0.63635 0.99848 0.8337 0.0
H501 H 0.64358 0.98375 0.71893 0.0
H502 H 0.63013 0.99128 0.69 0.0
H503 H 0.61565 0.96336 0.70614 0.0
H504 H 0.5817 0.96863 0.71977 0.0
H505 H 0.59603 0.99647 0.70371 0.0
H506 H 0.58644 0.99261 0.74206 0.0
H507 H 0.6582 0.0369 0.81069 0.0
H508 H 0.67057 0.07183 0.78187 0.0
H509 H 0.63354 0.03219 0.70428 0.0
C510 C 0.59921 0.95539 0.77186 0.0
C511 C 0.59719 0.94828 0.80201 0.0
C512 C 0.61091 0.96391 0.82422 0.0
C513 C 0.62631 0.9864 0.81655 0.0
C514 C 0.6276 0.99296 0.78664 0.0
C515 C 0.61429 0.97792 0.76468 0.0
C516 C 0.61671 0.98976 0.73504 0.0
C517 C 0.62715 0.98155 0.71112 0.0
C518 C 0.59387 0.98669 0.72456 0.0
C519 C 0.63294 0.01394 0.74395 0.0
C520 C 0.63945 0.01534 0.7736 0.0
C521 C 0.6534 0.036 0.78739 0.0
C522 C 0.66033 0.05577 0.77076 0.0
C523 C 0.653 0.05481 0.74075 0.0
C524 C 0.6396 0.03353 0.72704 0.0
H525 H 0.64075 0.58414 0.75407 0.0
H526 H 0.65195 0.61141 0.84417 0.0
H527 H 0.63965 0.63827 0.82809 0.0
H528 H 0.65561 0.6367 0.71215 0.0
H529 H 0.633 0.62191 0.68561 0.0
H530 H 0.64639 0.60772 0.70273 0.0
H531 H 0.60741 0.57597 0.72146 0.0
H532 H 0.59394 0.59002 0.70442 0.0
H533 H 0.59001 0.58327 0.74383 0.0
H534 H 0.62368 0.66004 0.8032 0.0
H535 H 0.6012 0.67215 0.77366 0.0
H536 H 0.59759 0.62847 0.70061 0.0
C537 C 0.64123 0.59624 0.77016 0.0
C538 C 0.64771 0.59612 0.80019 0.0
C539 C 0.64727 0.6115 0.82099 0.0
C540 C 0.64044 0.62684 0.812 0.0
C541 C 0.63382 0.62631 0.78227 0.0
C542 C 0.63393 0.61124 0.76173 0.0
C543 C 0.62324 0.61203 0.73232 0.0
C544 C 0.6406 0.62007 0.70669 0.0
C545 C 0.60242 0.58896 0.72511 0.0
C546 C 0.61661 0.62953 0.73972 0.0
C547 C 0.62339 0.63797 0.76836 0.0
C548 C 0.61842 0.65368 0.78067 0.0
C549 C 0.60565 0.66048 0.76363 0.0
C550 C 0.59757 0.65125 0.73476 0.0
C551 C 0.6036 0.63594 0.7225 0.0
H552 H 0.94025 0.5855 0.76701 0.0
H553 H 0.95543 0.60715 0.67434 0.0
H554 H 0.99548 0.63268 0.68798 0.0
H555 H 0.98183 0.63959 0.80329 0.0
H556 H 0.98866 0.62519 0.83166 0.0
H557 H 0.96068 0.61185 0.81573 0.0
H558 H 0.96426 0.5771 0.80107 0.0
H559 H 0.9922 0.59031 0.81683 0.0
H560 H 0.98779 0.58108 0.77832 0.0
H561 H 0.03416 0.65302 0.71074 0.0
H562 H 0.06896 0.66427 0.73945 0.0
H563 H 0.02875 0.62744 0.81682 0.0
C564 C 0.95187 0.59616 0.74977 0.0
C565 C 0.94474 0.59471 0.71972 0.0
C566 C 0.96057 0.60823 0.69754 0.0
C567 C 0.98329 0.62283 0.70512 0.0
C568 C 0.98987 0.6235 0.7349 0.0
C569 C 0.97463 0.61043 0.75685 0.0
C570 C 0.98641 0.61205 0.78628 0.0
C571 C 0.97895 0.62282 0.81068 0.0
C572 C 0.98243 0.58876 0.79618 0.0
C573 C 0.01076 0.62761 0.77728 0.0
C574 C 0.01233 0.63443 0.74776 0.0
C575 C 0.03312 0.64797 0.73395 0.0
C576 C 0.05282 0.65427 0.75051 0.0
C577 C 0.05164 0.64673 0.78045 0.0
C578 C 0.03026 0.63361 0.79409 0.0
H579 H 0.40495 0.03024 0.8275 0.0
H580 H 0.39662 0.06892 0.75646 0.0
H581 H 0.37259 0.03389 0.7287 0.0
H582 H 0.4105 0.99277 0.78289 0.0
H583 H 0.39459 0.96812 0.80598 0.0
H584 H 0.40832 0.99572 0.82274 0.0
H585 H 0.3702 0.9882 0.84522 0.0
H586 H 0.35634 0.96039 0.82876 0.0
H587 H 0.34619 0.97963 0.82092 0.0
H588 H 0.35628 0.9962 0.70409 0.0
H589 H 0.34426 0.95715 0.68765 0.0
H590 H 0.35973 0.94206 0.7759 0.0
C591 C 0.39751 0.03128 0.80657 0.0
C592 C 0.4028 0.0524 0.79421 0.0
C593 C 0.39286 0.05301 0.76654 0.0
C594 C 0.37914 0.03316 0.75051 0.0
C595 C 0.37503 0.01273 0.76269 0.0
C596 C 0.38343 0.01154 0.79043 0.0
C597 C 0.37756 0.98755 0.79757 0.0
C598 C 0.39902 0.98597 0.80257 0.0
C599 C 0.36162 0.9784 0.82473 0.0
C600 C 0.36553 0.97572 0.76894 0.0
C601 C 0.36426 0.99055 0.74907 0.0
C602 C 0.35645 0.98421 0.71977 0.0
C603 C 0.34977 0.96211 0.71056 0.0
C604 C 0.35058 0.94664 0.7308 0.0
C605 C 0.35823 0.95345 0.76041 0.0
H606 H 0.3616 0.41832 0.75031 0.0
H607 H 0.35046 0.39154 0.84073 0.0
H608 H 0.36312 0.36487 0.82512 0.0
H609 H 0.34714 0.3657 0.70906 0.0
H610 H 0.36972 0.38049 0.68245 0.0
H611 H 0.35614 0.39457 0.69932 0.0
H612 H 0.39501 0.42663 0.71786 0.0
H613 H 0.40867 0.41268 0.70108 0.0
H614 H 0.41254 0.41963 0.74042 0.0
H615 H 0.37944 0.34321 0.80055 0.0
H616 H 0.4021 0.3312 0.77123 0.0
H617 H 0.4053 0.37434 0.69769 0.0
C618 C 0.3612 0.40637 0.76659 0.0
C619 C 0.35464 0.40659 0.79657 0.0
C620 C 0.35519 0.39139 0.81759 0.0
C621 C 0.36223 0.37615 0.80886 0.0
C622 C 0.36892 0.37659 0.77917 0.0
C623 C 0.36868 0.39148 0.75843 0.0
C624 C 0.37942 0.39065 0.72909 0.0
C625 C 0.36206 0.38235 0.70347 0.0
C626 C 0.40014 0.41376 0.7217 0.0
C627 C 0.38624 0.37332 0.73674 0.0
C628 C 0.37951 0.36501 0.76546 0.0
C629 C 0.38465 0.34948 0.77798 0.0
C630 C 0.39752 0.34273 0.76105 0.0
C631 C 0.40554 0.35184 0.7321 0.0
C632 C 0.39934 0.36697 0.71964 0.0
H633 H 0.03246 0.40296 0.6944 0.0
H634 H 0.07361 0.40199 0.7679 0.0
H635 H 0.03937 0.3799 0.79828 0.0
H636 H 0.99509 0.41101 0.73637 0.0
H637 H 0.97012 0.39277 0.71498 0.0
H638 H 0.99741 0.40577 0.69726 0.0
H639 H 0.99062 0.3665 0.68093 0.0
H640 H 0.96313 0.35334 0.69837 0.0
H641 H 0.98321 0.34473 0.7087 0.0
H642 H 0.00192 0.36455 0.82385 0.0
H643 H 0.96281 0.35235 0.8403 0.0
H644 H 0.9453 0.35997 0.74937 0.0
C645 C 0.03421 0.39755 0.71655 0.0
C646 C 0.05576 0.40427 0.72871 0.0
C647 C 0.05732 0.39699 0.75795 0.0
C648 C 0.03794 0.38444 0.77547 0.0
C649 C 0.01704 0.37882 0.76325 0.0
C650 C 0.01497 0.38465 0.73421 0.0
C651 C 0.99063 0.3775 0.72703 0.0
C652 C 0.98819 0.39798 0.71842 0.0
C653 C 0.98135 0.35944 0.70229 0.0
C654 C 0.97957 0.36768 0.75696 0.0
C655 C 0.9951 0.36863 0.7776 0.0
C656 C 0.98942 0.36302 0.80768 0.0
C657 C 0.96728 0.35623 0.81688 0.0
C658 C 0.95109 0.35476 0.79592 0.0
C659 C 0.95726 0.36026 0.76557 0.0
H660 H 0.44815 0.17746 0.26745 0.0
H661 H 0.44786 0.18212 0.17037 0.0
H662 H 0.44691 0.21769 0.17477 0.0
H663 H 0.41104 0.20034 0.28265 0.0
H664 H 0.42659 0.21539 0.31555 0.0
H665 H 0.42574 0.18961 0.30466 0.0
H666 H 0.46952 0.21053 0.3038 0.0
H667 H 0.47052 0.23638 0.31456 0.0
H668 H 0.48475 0.23548 0.281 0.0
H669 H 0.448 0.25361 0.18983 0.0
H670 H 0.45087 0.28729 0.21415 0.0
H671 H 0.45066 0.25922 0.30158 0.0
C672 C 0.44759 0.18578 0.24707 0.0
C673 C 0.44799 0.17697 0.21853 0.0
C674 C 0.44749 0.18852 0.19245 0.0
C675 C 0.44694 0.20871 0.19474 0.0
C676 C 0.44685 0.21705 0.22325 0.0
C677 C 0.4471 0.20592 0.24895 0.0
C678 C 0.44786 0.21889 0.27688 0.0
C679 C 0.42653 0.20524 0.29606 0.0
C680 C 0.46945 0.22573 0.29512 0.0
C681 C 0.44828 0.23926 0.26289 0.0
C682 C 0.44758 0.2378 0.23194 0.0
C683 C 0.44841 0.25486 0.21403 0.0
C684 C 0.45009 0.27396 0.2281 0.0
C685 C 0.45097 0.27589 0.2598 0.0
C686 C 0.44991 0.2582 0.27734 0.0
H687 H 0.17624 0.44361 0.25281 0.0
H688 H 0.17513 0.43589 0.34952 0.0
H689 H 0.20852 0.43093 0.3462 0.0
H690 H 0.19487 0.40334 0.234 0.0
H691 H 0.21259 0.42052 0.20368 0.0
H692 H 0.18746 0.42142 0.21348 0.0
H693 H 0.21139 0.46482 0.22035 0.0
H694 H 0.23654 0.46406 0.21059 0.0
H695 H 0.23514 0.47639 0.24567 0.0
H696 H 0.24331 0.42927 0.33256 0.0
H697 H 0.27761 0.43214 0.3101 0.0
H698 H 0.25612 0.44135 0.2222 0.0
C699 C 0.18278 0.44054 0.27329 0.0
C700 C 0.17302 0.44001 0.30145 0.0
C701 C 0.1823 0.43628 0.32773 0.0
C702 C 0.20121 0.43338 0.32603 0.0
C703 C 0.21055 0.43423 0.29791 0.0
C704 C 0.20164 0.43773 0.27201 0.0
C705 C 0.21563 0.43934 0.24478 0.0
C706 C 0.20181 0.42 0.22269 0.0
C707 C 0.22524 0.46253 0.22946 0.0
C708 C 0.23409 0.43663 0.25945 0.0
C709 C 0.23071 0.43347 0.29006 0.0
C710 C 0.24602 0.43153 0.3086 0.0
C711 C 0.26547 0.43321 0.2956 0.0
C712 C 0.26951 0.4369 0.26436 0.0
C713 C 0.25339 0.43828 0.24607 0.0
H714 H 0.73192 0.18299 0.24765 0.0
H715 H 0.73763 0.18283 0.34461 0.0
H716 H 0.7744 0.21831 0.34184 0.0
H717 H 0.79143 0.20528 0.23109 0.0
H718 H 0.79134 0.2221 0.20002 0.0
H719 H 0.76598 0.19623 0.20961 0.0
H720 H 0.74419 0.21806 0.21444 0.0
H721 H 0.76946 0.24397 0.20489 0.0
H722 H 0.75473 0.24201 0.23929 0.0
H723 H 0.80964 0.25454 0.32858 0.0
H724 H 0.84095 0.2889 0.30601 0.0
H725 H 0.81229 0.2652 0.21755 0.0
C726 C 0.74095 0.19029 0.26833 0.0
C727 C 0.73192 0.18013 0.29638 0.0
C728 C 0.74424 0.1903 0.32288 0.0
C729 C 0.76514 0.21043 0.32152 0.0
C730 C 0.77347 0.22007 0.29349 0.0
C731 C 0.76179 0.21031 0.26737 0.0
C732 C 0.77413 0.22438 0.24017 0.0
C733 C 0.78114 0.21121 0.21898 0.0
C734 C 0.75977 0.23259 0.22374 0.0
C735 C 0.79449 0.24375 0.25508 0.0
C736 C 0.79381 0.24089 0.28584 0.0
C737 C 0.81042 0.25688 0.30452 0.0
C738 C 0.82812 0.27637 0.29146 0.0
C739 C 0.8291 0.27972 0.25999 0.0
C740 C 0.81211 0.26305 0.24163 0.0
H741 H 0.56118 0.81368 0.21529 0.0
H742 H 0.57811 0.84669 0.3022 0.0
H743 H 0.57945 0.81422 0.32381 0.0
H744 H 0.52442 0.75931 0.2419 0.0
H745 H 0.53261 0.74487 0.21529 0.0
H746 H 0.53537 0.7717 0.20568 0.0
H747 H 0.57791 0.78791 0.19421 0.0
H748 H 0.57524 0.76104 0.20357 0.0
H749 H 0.59598 0.78631 0.22238 0.0
H750 H 0.57544 0.77684 0.33717 0.0
H751 H 0.56772 0.73754 0.34072 0.0
H752 H 0.55372 0.72895 0.24518 0.0
C753 C 0.56566 0.81429 0.2387 0.0
C754 C 0.56962 0.83275 0.25702 0.0
C755 C 0.57505 0.83274 0.28769 0.0
C756 C 0.57589 0.81439 0.3002 0.0
C757 C 0.57135 0.7962 0.28173 0.0
C758 C 0.56654 0.79606 0.25159 0.0
C759 C 0.56107 0.77387 0.2371 0.0
C760 C 0.53694 0.76173 0.22425 0.0
C761 C 0.5786 0.77751 0.21289 0.0
C762 C 0.56308 0.76142 0.26394 0.0
C763 C 0.56914 0.77463 0.28944 0.0
C764 C 0.57097 0.76641 0.31728 0.0
C765 C 0.56647 0.74406 0.3191 0.0
C766 C 0.56022 0.73022 0.29323 0.0
C767 C 0.55868 0.73916 0.26532 0.0
H768 H 0.74884 0.56105 0.21371 0.0
H769 H 0.72486 0.56609 0.30197 0.0
H770 H 0.76007 0.5714 0.32448 0.0
H771 H 0.77374 0.52925 0.23597 0.0
H772 H 0.79765 0.54292 0.21104 0.0
H773 H 0.77147 0.54161 0.20136 0.0
H774 H 0.79235 0.58519 0.19601 0.0
H775 H 0.81865 0.58663 0.20567 0.0
H776 H 0.80897 0.60262 0.22686 0.0
H777 H 0.79618 0.57284 0.33811 0.0
H778 H 0.83121 0.57078 0.34156 0.0
H779 H 0.83214 0.56556 0.24461 0.0
C780 C 0.75117 0.56364 0.23769 0.0
C781 C 0.73411 0.56319 0.25605 0.0
C782 C 0.73769 0.56637 0.28741 0.0
C783 C 0.75767 0.56947 0.30045 0.0
C784 C 0.774 0.56949 0.28183 0.0
C785 C 0.77107 0.56678 0.25112 0.0
C786 C 0.79079 0.56628 0.23645 0.0
C787 C 0.78294 0.54367 0.22026 0.0
C788 C 0.80344 0.58638 0.21498 0.0
C789 C 0.80495 0.5686 0.26378 0.0
C790 C 0.79504 0.57058 0.28972 0.0
C791 C 0.80431 0.57162 0.31793 0.0
C792 C 0.82416 0.5704 0.31968 0.0
C793 C 0.83448 0.56819 0.29337 0.0
C794 C 0.82484 0.56759 0.2651 0.0
H795 H 0.18711 0.73203 0.27199 0.0
H796 H 0.18666 0.73732 0.175 0.0
H797 H 0.2216 0.77457 0.17752 0.0
H798 H 0.20799 0.7913 0.28813 0.0
H799 H 0.2251 0.79181 0.31921 0.0
H800 H 0.19959 0.76605 0.30979 0.0
H801 H 0.22238 0.74524 0.30513 0.0
H802 H 0.24794 0.7709 0.31452 0.0
H803 H 0.24636 0.75625 0.28022 0.0
H804 H 0.25736 0.81037 0.19055 0.0
H805 H 0.2914 0.84222 0.21291 0.0
H806 H 0.26827 0.81359 0.30154 0.0
C807 C 0.19424 0.74106 0.25125 0.0
C808 C 0.18414 0.73177 0.22326 0.0
C809 C 0.19408 0.74412 0.19668 0.0
C810 C 0.2139 0.76528 0.1979 0.0
C811 C 0.22347 0.77386 0.22587 0.0
C812 C 0.21395 0.76216 0.25207 0.0
C813 C 0.22788 0.77481 0.27919 0.0
C814 C 0.21433 0.78138 0.30032 0.0
C815 C 0.23666 0.76097 0.29572 0.0
C816 C 0.24693 0.79538 0.26415 0.0
C817 C 0.24401 0.79453 0.2334 0.0
C818 C 0.25975 0.81129 0.2146 0.0
C819 C 0.27905 0.82929 0.22754 0.0
C820 C 0.28247 0.83044 0.259 0.0
C821 C 0.26605 0.81331 0.27748 0.0
H822 H 0.55813 0.73552 0.77049 0.0
H823 H 0.56025 0.73976 0.67329 0.0
H824 H 0.56189 0.77668 0.67634 0.0
H825 H 0.52201 0.75759 0.78126 0.0
H826 H 0.53566 0.77283 0.815 0.0
H827 H 0.53658 0.74779 0.80521 0.0
H828 H 0.58035 0.77032 0.80752 0.0
H829 H 0.57956 0.79546 0.81744 0.0
H830 H 0.59569 0.7956 0.78536 0.0
H831 H 0.56095 0.81188 0.69008 0.0
H832 H 0.55747 0.84276 0.7132 0.0
H833 H 0.55573 0.81515 0.80149 0.0
C834 C 0.55927 0.74433 0.7498 0.0
C835 C 0.55916 0.73482 0.72162 0.0
C836 C 0.5604 0.74678 0.69511 0.0
C837 C 0.56136 0.76775 0.69664 0.0
C838 C 0.56112 0.77647 0.72482 0.0
C839 C 0.56017 0.76516 0.75092 0.0
C840 C 0.559 0.77759 0.77833 0.0
C841 C 0.537 0.76308 0.79598 0.0
C842 C 0.5799 0.78519 0.79834 0.0
C843 C 0.55908 0.79754 0.76359 0.0
C844 C 0.56046 0.79666 0.73273 0.0
C845 C 0.56004 0.81284 0.71422 0.0
C846 C 0.55802 0.83029 0.72759 0.0
C847 C 0.55638 0.83139 0.75918 0.0
C848 C 0.55711 0.81487 0.77733 0.0
H849 H 0.72853 0.5521 0.74741 0.0
H850 H 0.73388 0.55746 0.84443 0.0
H851 H 0.77116 0.55992 0.84169 0.0
H852 H 0.75227 0.51694 0.73903 0.0
H853 H 0.76703 0.52989 0.70471 0.0
H854 H 0.74156 0.53016 0.71411 0.0
H855 H 0.76289 0.57378 0.70945 0.0
H856 H 0.78845 0.57365 0.69996 0.0
H857 H 0.78824 0.59039 0.73104 0.0
H858 H 0.80678 0.55977 0.82859 0.0
H859 H 0.83825 0.55692 0.80626 0.0
H860 H 0.80967 0.55158 0.71765 0.0
C861 C 0.73764 0.55406 0.76809 0.0
C862 C 0.72832 0.55467 0.79616 0.0
C863 C 0.7407 0.55701 0.82268 0.0
C864 C 0.7619 0.55846 0.82134 0.0
C865 C 0.77047 0.55757 0.79332 0.0
C866 C 0.75876 0.55548 0.76716 0.0
C867 C 0.7713 0.55399 0.74002 0.0
C868 C 0.7572 0.5314 0.72351 0.0
C869 C 0.77813 0.57416 0.71887 0.0
C870 C 0.79176 0.55524 0.75502 0.0
C871 C 0.791 0.55744 0.78576 0.0
C872 C 0.80763 0.55822 0.80454 0.0
C873 C 0.82543 0.55654 0.79161 0.0
C874 C 0.82646 0.55408 0.76018 0.0
C875 C 0.80946 0.55363 0.7417 0.0
H876 H 0.2569 0.80989 0.71859 0.0
H877 H 0.2749 0.84064 0.80686 0.0
H878 H 0.24074 0.80827 0.82807 0.0
H879 H 0.19539 0.78464 0.72692 0.0
H880 H 0.18948 0.75946 0.70666 0.0
H881 H 0.21442 0.78595 0.69797 0.0
H882 H 0.23921 0.76768 0.70717 0.0
H883 H 0.21438 0.74121 0.71608 0.0
H884 H 0.23731 0.75412 0.74259 0.0
H885 H 0.20609 0.77143 0.84045 0.0
H886 H 0.17276 0.733 0.84263 0.0
H887 H 0.17738 0.72632 0.74643 0.0
C888 C 0.25344 0.80999 0.74226 0.0
C889 C 0.26853 0.82782 0.76103 0.0
C890 C 0.26357 0.82718 0.79201 0.0
C891 C 0.24419 0.80888 0.8043 0.0
C892 C 0.22989 0.79136 0.78532 0.0
C893 C 0.23417 0.7918 0.75495 0.0
C894 C 0.21661 0.77033 0.73977 0.0
C895 C 0.20318 0.77541 0.71646 0.0
C896 C 0.22754 0.75759 0.72558 0.0
C897 C 0.20203 0.75765 0.76643 0.0
C898 C 0.2099 0.7701 0.79248 0.0
C899 C 0.19963 0.76158 0.82015 0.0
C900 C 0.18076 0.73973 0.82119 0.0
C901 C 0.17243 0.72669 0.79473 0.0
C902 C 0.18323 0.7359 0.76705 0.0
H903 H 0.44717 0.26978 0.77192 0.0
H904 H 0.43905 0.26053 0.67549 0.0
H905 H 0.43573 0.22297 0.68075 0.0
H906 H 0.48168 0.24536 0.78104 0.0
H907 H 0.46966 0.23233 0.8166 0.0
H908 H 0.46971 0.25765 0.80547 0.0
H909 H 0.42627 0.23743 0.81258 0.0
H910 H 0.42608 0.21202 0.82377 0.0
H911 H 0.40855 0.21129 0.79311 0.0
H912 H 0.43505 0.18743 0.6963 0.0
H913 H 0.43783 0.15657 0.7206 0.0
H914 H 0.44687 0.18926 0.80704 0.0
C915 C 0.44441 0.25976 0.7519 0.0
C916 C 0.44324 0.26801 0.72327 0.0
C917 C 0.43993 0.2545 0.69763 0.0
C918 C 0.43798 0.23315 0.70042 0.0
C919 C 0.4394 0.22564 0.72897 0.0
C920 C 0.44255 0.23853 0.75426 0.0
C921 C 0.4446 0.22706 0.78218 0.0
C922 C 0.46779 0.24146 0.79719 0.0
C923 C 0.42522 0.22163 0.8042 0.0
C924 C 0.44238 0.20576 0.76862 0.0
C925 C 0.43923 0.20522 0.73794 0.0
C926 C 0.43738 0.1876 0.72032 0.0
C927 C 0.43901 0.17016 0.73438 0.0
C928 C 0.44254 0.17048 0.76576 0.0
C929 C 0.44402 0.18845 0.78307 0.0
H930 H 0.17932 0.44482 0.76495 0.0
H931 H 0.1825 0.44292 0.66784 0.0
H932 H 0.21772 0.44119 0.6717 0.0
H933 H 0.23758 0.48073 0.77683 0.0
H934 H 0.23868 0.46692 0.81069 0.0
H935 H 0.21289 0.4662 0.8003 0.0
H936 H 0.1914 0.42245 0.80243 0.0
H937 H 0.21715 0.42304 0.81291 0.0
H938 H 0.20146 0.40709 0.78058 0.0
H939 H 0.25363 0.44186 0.68624 0.0
H940 H 0.28767 0.44507 0.71006 0.0
H941 H 0.26097 0.44675 0.79778 0.0
C942 C 0.18723 0.44374 0.74445 0.0
C943 C 0.17812 0.44392 0.71606 0.0
C944 C 0.18914 0.44274 0.68982 0.0
C945 C 0.20912 0.44172 0.6918 0.0
C946 C 0.21777 0.44185 0.72018 0.0
C947 C 0.20714 0.44278 0.74603 0.0
C948 C 0.22042 0.44377 0.77374 0.0
C949 C 0.22783 0.46571 0.79141 0.0
C950 C 0.20679 0.42284 0.79358 0.0
C951 C 0.24041 0.44361 0.75945 0.0
C952 C 0.23848 0.44234 0.72855 0.0
C953 C 0.25523 0.44269 0.71041 0.0
C954 C 0.27453 0.44455 0.72419 0.0
C955 C 0.27698 0.44612 0.75581 0.0
C956 C 0.25954 0.44542 0.77359 0.0
H957 H 0.82703 0.2677 0.74751 0.0
H958 H 0.82406 0.2666 0.84479 0.0
H959 H 0.78802 0.23035 0.84287 0.0
H960 H 0.76922 0.24719 0.73531 0.0
H961 H 0.7671 0.2305 0.7029 0.0
H962 H 0.79359 0.25526 0.71187 0.0
H963 H 0.81333 0.23131 0.71279 0.0
H964 H 0.7869 0.20646 0.7036 0.0
H965 H 0.8023 0.20672 0.73655 0.0
H966 H 0.75127 0.19578 0.83028 0.0
H967 H 0.71659 0.1647 0.80817 0.0
H968 H 0.74341 0.18843 0.71889 0.0
C969 C 0.81902 0.25968 0.76846 0.0
C970 C 0.82841 0.26992 0.79634 0.0
C971 C 0.81723 0.25901 0.8232 0.0
C972 C 0.79676 0.23843 0.82232 0.0
C973 C 0.78777 0.22903 0.79443 0.0
C974 C 0.79859 0.23922 0.76798 0.0
C975 C 0.78486 0.22615 0.74094 0.0
C976 C 0.77831 0.24064 0.72163 0.0
C977 C 0.79761 0.21712 0.72238 0.0
C978 C 0.76442 0.20716 0.7563 0.0
C979 C 0.76652 0.2091 0.78715 0.0
C980 C 0.74952 0.19398 0.80617 0.0
C981 C 0.72985 0.17642 0.79335 0.0
C982 C 0.7273 0.17411 0.76177 0.0
C983 C 0.74491 0.18967 0.74308 0.0
H984 H 0.46876 0.08599 0.07352 0.0
H985 H 0.45468 0.13991 0.09304 0.0
H986 H 0.4529 0.14603 0.03867 0.0
H987 H 0.50412 0.11201 1.00903 0.0
H988 H 0.49359 0.08579 0.98888 0.0
H989 H 0.49387 0.08585 0.02927 0.0
H990 H 0.45093 0.05695 0.02991 0.0
H991 H 0.45051 0.0568 0.98954 0.0
H992 H 0.43181 0.06335 1.01012 0.0
H993 H 0.45243 0.14598 0.98163 0.0
H994 H 0.45324 0.13971 0.92711 0.0
H995 H 0.46761 0.0858 0.94536 0.0
C996 C 0.46534 0.09913 0.06642 0.0
C997 C 0.46188 0.11249 0.08763 0.0
C998 C 0.4574 0.12947 0.07728 0.0
C999 C 0.45637 0.13307 0.04642 0.0
C1000 C 0.45983 0.11956 0.02613 0.0
C1001 C 0.46423 0.10293 0.03575 0.0
C1002 C 0.4672 0.09061 1.00946 0.0
C1003 C 0.49112 0.09377 1.00915 0.0
C1004 C 0.44903 0.06544 1.00979 0.0
C1005 C 0.46377 0.10287 0.9835 0.0
C1006 C 0.45955 0.11952 0.99352 0.0
C1007 C 0.45574 0.13299 0.97357 0.0
C1008 C 0.45624 0.1293 0.94262 0.0
C1009 C 0.4605 0.11228 0.93186 0.0
C1010 C 0.46433 0.09897 0.95275 0.0
H1011 H 0.32866 0.45389 0.95081 0.0
H1012 H 0.39892 0.47451 0.93321 0.0
H1013 H 0.40664 0.47823 0.98726 0.0
H1014 H 0.33925 0.49116 0.01434 0.0
H1015 H 0.31496 0.47093 0.03536 0.0
H1016 H 0.31452 0.46999 0.99497 0.0
H1017 H 0.30488 0.42825 0.99653 0.0
H1018 H 0.30524 0.42904 0.03692 0.0
H1019 H 0.32299 0.42086 0.01705 0.0
H1020 H 0.40737 0.47981 0.04239 0.0
H1021 H 0.40082 0.47822 0.09668 0.0
H1022 H 0.33004 0.45626 0.08087 0.0
C1023 C 0.34564 0.45921 0.95838 0.0
C1024 C 0.36317 0.46392 0.93761 0.0
C1025 C 0.38516 0.47077 0.9485 0.0
C1026 C 0.38978 0.47299 0.97925 0.0
C1027 C 0.37225 0.46827 0.99907 0.0
C1028 C 0.3506 0.46146 0.98927 0.0
C1029 C 0.33492 0.45717 0.01578 0.0
C1030 C 0.32535 0.47327 0.01506 0.0
C1031 C 0.31588 0.43235 0.01661 0.0
C1032 C 0.35121 0.46261 0.04185 0.0
C1033 C 0.37264 0.46904 0.03147 0.0
C1034 C 0.39066 0.4748 0.05084 0.0
C1035 C 0.38673 0.47384 0.08173 0.0
C1036 C 0.36492 0.46712 0.0932 0.0
C1037 C 0.34692 0.46153 0.07286 0.0
H1038 H 0.91 0.37784 0.94304 0.0
H1039 H 0.8567 0.30981 0.92203 0.0
H1040 H 0.85004 0.30133 0.97627 0.0
H1041 H 0.93237 0.36323 1.00603 0.0
H1042 H 0.93859 0.38819 0.02707 0.0
H1043 H 0.93867 0.38889 0.98672 0.0
H1044 H 0.90943 0.40249 0.98754 0.0
H1045 H 0.90931 0.40188 0.02791 0.0
H1046 H 0.88319 0.38618 1.00752 0.0
H1047 H 0.84964 0.30039 0.03356 0.0
H1048 H 0.85555 0.30714 0.08824 0.0
H1049 H 0.90931 0.37568 0.07082 0.0
C1050 C 0.89683 0.36117 0.94976 0.0
C1051 C 0.88383 0.3445 0.92821 0.0
C1052 C 0.86686 0.32288 0.93808 0.0
C1053 C 0.86296 0.3179 0.96886 0.0
C1054 C 0.87618 0.33472 0.98951 0.0
C1055 C 0.89277 0.35592 0.98029 0.0
C1056 C 0.90487 0.37099 1.00681 0.0
C1057 C 0.93012 0.37824 1.00664 0.0
C1058 C 0.90149 0.3916 1.00748 0.0
C1059 C 0.89256 0.35498 0.03246 0.0
C1060 C 0.87604 0.33414 0.02212 0.0
C1061 C 0.86253 0.31667 0.04185 0.0
C1062 C 0.86602 0.32065 0.07288 0.0
C1063 C 0.8829 0.34191 0.08389 0.0
C1064 C 0.89628 0.35921 0.06323 0.0
H1065 H 0.53632 0.90549 0.07853 0.0
H1066 H 0.55289 0.85328 0.09804 0.0
H1067 H 0.55439 0.84701 0.04359 0.0
H1068 H 0.50091 0.87854 0.0142 0.0
H1069 H 0.5107 0.90474 0.99427 0.0
H1070 H 0.51037 0.90449 0.03464 0.0
H1071 H 0.55303 0.93444 0.03532 0.0
H1072 H 0.5535 0.93475 0.99496 0.0
H1073 H 0.57274 0.92892 0.01546 0.0
H1074 H 0.55467 0.84713 0.98619 0.0
H1075 H 0.55366 0.85362 0.93168 0.0
H1076 H 0.53725 0.90598 0.9509 0.0
C1077 C 0.54013 0.89261 0.07145 0.0
C1078 C 0.54443 0.87983 0.09262 0.0
C1079 C 0.54948 0.86326 0.08227 0.0
C1080 C 0.55038 0.85958 0.05137 0.0
C1081 C 0.5462 0.87262 0.03112 0.0
C1082 C 0.54115 0.88879 0.04082 0.0
C1083 C 0.53771 0.90088 0.0147 0.0
C1084 C 0.51348 0.89691 0.01445 0.0
C1085 C 0.5553 0.92625 0.01515 0.0
C1086 C 0.54167 0.88908 0.98868 0.0
C1087 C 0.5465 0.87279 0.99849 0.0
C1088 C 0.55087 0.85983 0.97832 0.0
C1089 C 0.55027 0.86364 0.9474 0.0
C1090 C 0.54539 0.88031 0.93696 0.0
C1091 C 0.54105 0.8931 0.95805 0.0
H1092 H 0.62512 0.53605 0.07946 0.0
H1093 H 0.69359 0.55184 0.09982 0.0
H1094 H 0.7019 0.55391 0.04551 0.0
H1095 H 0.617 0.50104 0.01529 0.0
H1096 H 0.60087 0.51095 0.9949 0.0
H1097 H 0.60048 0.5107 0.03528 0.0
H1098 H 0.61353 0.5534 0.03571 0.0
H1099 H 0.61397 0.55378 0.99534 0.0
H1100 H 0.63897 0.57293 0.01605 0.0
H1101 H 0.70252 0.5542 0.98827 0.0
H1102 H 0.69539 0.55282 0.93365 0.0
H1103 H 0.62659 0.53703 0.9516 0.0
C1104 C 0.64188 0.53992 0.07258 0.0
C1105 C 0.6587 0.54376 0.09398 0.0
C1106 C 0.68041 0.54882 0.08389 0.0
C1107 C 0.68529 0.55003 0.05307 0.0
C1108 C 0.66829 0.54617 0.03259 0.0
C1109 C 0.64703 0.54122 0.04199 0.0
C1110 C 0.63171 0.53784 0.0156 0.0
C1111 C 0.61132 0.5137 0.01526 0.0
C1112 C 0.62411 0.55555 0.01569 0.0
C1113 C 0.64765 0.54165 0.9898 0.0
C1114 C 0.66867 0.54641 0.99997 0.0
C1115 C 0.68611 0.55049 0.98011 0.0
C1116 C 0.6819 0.54967 0.94911 0.0
C1117 C 0.66045 0.54484 0.93827 0.0
C1118 C 0.64319 0.5408 0.95906 0.0
H1119 H 0.11989 0.66871 0.9428 0.0
H1120 H 0.05692 0.6058 0.92914 0.0
H1121 H 0.05128 0.60122 0.98365 0.0
H1122 H 0.13772 0.65037 1.00701 0.0
H1123 H 0.14979 0.67701 0.02646 0.0
H1124 H 0.14864 0.67633 0.98611 0.0
H1125 H 0.12693 0.69835 0.98684 0.0
H1126 H 0.12805 0.69913 0.02722 0.0
H1127 H 0.10122 0.68751 1.00831 0.0
H1128 H 0.05272 0.60218 0.03889 0.0
H1129 H 0.06117 0.60864 0.0927 0.0
H1130 H 0.12328 0.67096 0.07258 0.0
C1131 C 0.10482 0.65412 0.95132 0.0
C1132 C 0.08883 0.63763 0.93158 0.0
C1133 C 0.06944 0.61866 0.94368 0.0
C1134 C 0.06603 0.6159 0.97468 0.0
C1135 C 0.08214 0.63224 0.99349 0.0
C1136 C 0.10115 0.65101 0.98244 0.0
C1137 C 0.11609 0.66558 1.00798 0.0
C1138 C 0.13944 0.66742 1.00681 0.0
C1139 C 0.11819 0.68904 1.00756 0.0
C1140 C 0.10255 0.65189 0.03496 0.0
C1141 C 0.083 0.63279 0.02589 0.0
C1142 C 0.06791 0.61713 0.04632 0.0
C1143 C 0.07292 0.62096 0.0769 0.0
C1144 C 0.09288 0.64033 0.08698 0.0
C1145 C 0.10782 0.65608 0.06563 0.0
H1146 H 0.90455 0.53473 0.57179 0.0
H1147 H 0.85215 0.55174 0.58741 0.0
H1148 H 0.84724 0.55304 0.53253 0.0
H1149 H 0.9296 0.57043 0.50826 0.0
H1150 H 0.93555 0.55075 0.48917 0.0
H1151 H 0.93447 0.55084 0.5295 0.0
H1152 H 0.90421 0.5083 0.52922 0.0
H1153 H 0.90517 0.50808 0.48887 0.0
H1154 H 0.87866 0.49882 0.50781 0.0
H1155 H 0.84879 0.55309 0.47522 0.0
H1156 H 0.85662 0.55185 0.42124 0.0
H1157 H 0.90776 0.53449 0.44423 0.0
C1158 C 0.89198 0.5387 0.56377 0.0
C1159 C 0.87872 0.54314 0.58396 0.0
C1160 C 0.86249 0.54826 0.5724 0.0
C1161 C 0.85958 0.54903 0.54126 0.0
C1162 C 0.873 0.54459 0.522 0.0
C1163 C 0.88885 0.53949 0.53289 0.0
C1164 C 0.90131 0.53554 0.50768 0.0
C1165 C 0.92673 0.55293 0.50872 0.0
C1166 C 0.89707 0.51124 0.50845 0.0
C1167 C 0.89011 0.53931 0.48079 0.0
C1168 C 0.8738 0.54449 0.4894 0.0
C1169 C 0.86148 0.54897 0.46829 0.0
C1170 C 0.86604 0.54822 0.43766 0.0
C1171 C 0.88276 0.54302 0.42844 0.0
C1172 C 0.8948 0.53842 0.45045 0.0
H1173 H 0.33144 0.87392 0.58026 0.0
H1174 H 0.4007 0.92619 0.5981 0.0
H1175 H 0.40794 0.93205 0.54401 0.0
H1176 H 0.34413 0.85073 0.51433 0.0
H1177 H 0.31903 0.8454 0.49429 0.0
H1178 H 0.31895 0.84481 0.53469 0.0
H1179 H 0.30629 0.87471 0.53587 0.0
H1180 H 0.30639 0.87544 0.49548 0.0
H1181 H 0.32286 0.90114 0.51643 0.0
H1182 H 0.40807 0.93322 0.48886 0.0
H1183 H 0.40135 0.92905 0.43458 0.0
H1184 H 0.3321 0.87583 0.45018 0.0
C1185 C 0.34814 0.88651 0.57273 0.0
C1186 C 0.3655 0.89959 0.59358 0.0
C1187 C 0.38709 0.91593 0.58275 0.0
C1188 C 0.39142 0.91943 0.55198 0.0
C1189 C 0.37401 0.90644 0.53209 0.0
C1190 C 0.35281 0.89024 0.54184 0.0
C1191 C 0.33722 0.87877 0.51529 0.0
C1192 C 0.32937 0.85342 0.51461 0.0
C1193 C 0.31699 0.88276 0.51581 0.0
C1194 C 0.35302 0.89117 0.48926 0.0
C1195 C 0.37412 0.90704 0.49968 0.0
C1196 C 0.39164 0.92081 0.48036 0.0
C1197 C 0.3876 0.9183 0.44948 0.0
C1198 C 0.36619 0.9021 0.43795 0.0
C1199 C 0.34865 0.88835 0.45823 0.0
H1200 H 0.46438 0.37841 0.57558 0.0
H1201 H 0.4495 0.31039 0.59685 0.0
H1202 H 0.44671 0.30153 0.54269 0.0
H1203 H 0.42663 0.36368 0.51285 0.0
H1204 H 0.44542 0.38848 0.49153 0.0
H1205 H 0.44628 0.38937 0.53189 0.0
H1206 H 0.48906 0.40265 0.53064 0.0
H1207 H 0.48834 0.40185 0.49028 0.0
H1208 H 0.49865 0.38608 0.51068 0.0
H1209 H 0.44571 0.3003 0.48557 0.0
H1210 H 0.4468 0.30689 0.43085 0.0
H1211 H 0.46213 0.37565 0.44758 0.0
C1212 C 0.46054 0.36163 0.56892 0.0
C1213 C 0.45716 0.34509 0.59055 0.0
C1214 C 0.45216 0.32336 0.58075 0.0
C1215 C 0.45053 0.31816 0.55001 0.0
C1216 C 0.45393 0.33487 0.5293 0.0
C1217 C 0.45884 0.35617 0.53839 0.0
C1218 C 0.4618 0.37116 0.51175 0.0
C1219 C 0.44397 0.3786 0.51203 0.0
C1220 C 0.48589 0.39164 0.51079 0.0
C1221 C 0.4578 0.355 0.48618 0.0
C1222 C 0.45328 0.33414 0.4967 0.0
C1223 C 0.4492 0.31657 0.47713 0.0
C1224 C 0.44984 0.32047 0.44607 0.0
C1225 C 0.4545 0.34176 0.43484 0.0
C1226 C 0.45845 0.35915 0.45534 0.0
H1227 H 0.08604 0.46537 0.57286 0.0
H1228 H 0.1391 0.44964 0.59063 0.0
H1229 H 0.14473 0.44813 0.53605 0.0
H1230 H 0.06238 0.42923 0.50881 0.0
H1231 H 0.05635 0.4486 0.48902 0.0
H1232 H 0.05665 0.44851 0.5294 0.0
H1233 H 0.08634 0.49122 0.5295 0.0
H1234 H 0.08612 0.49144 0.48912 0.0
H1235 H 0.11235 0.50114 0.50897 0.0
H1236 H 0.14436 0.44823 0.47903 0.0
H1237 H 0.13812 0.45008 0.42471 0.0
H1238 H 0.08538 0.46585 0.44474 0.0
C1239 C 0.09887 0.46161 0.56534 0.0
C1240 C 0.11213 0.45761 0.5861 0.0
C1241 C 0.12873 0.45277 0.57521 0.0
C1242 C 0.13205 0.45187 0.54423 0.0
C1243 C 0.11866 0.45588 0.5244 0.0
C1244 C 0.10241 0.46067 0.53456 0.0
C1245 C 0.09024 0.46434 0.50869 0.0
C1246 C 0.0649 0.44661 0.50901 0.0
C1247 C 0.094 0.48847 0.5091 0.0
C1248 C 0.10214 0.46085 0.48232 0.0
C1249 C 0.11848 0.45598 0.4918 0.0
C1250 C 0.13161 0.45205 0.4714 0.0
C1251 C 0.12794 0.45313 0.44057 0.0
C1252 C 0.11127 0.45812 0.43038 0.0
C1253 C 0.09827 0.46202 0.4517 0.0
H1254 H 0.67379 0.1219 0.44677 0.0
H1255 H 0.61234 0.05824 0.42975 0.0
H1256 H 0.60695 0.05101 0.48392 0.0
H1257 H 0.69254 0.10251 0.51162 0.0
H1258 H 0.70301 0.12869 0.53182 0.0
H1259 H 0.70297 0.1287 0.49141 0.0
H1260 H 0.67968 0.14912 0.49142 0.0
H1261 H 0.67963 0.14914 0.53181 0.0
H1262 H 0.65328 0.13684 0.51157 0.0
H1263 H 0.60687 0.05093 0.53917 0.0
H1264 H 0.61213 0.05798 0.59339 0.0
H1265 H 0.67365 0.12168 0.5767 0.0
C1266 C 0.65935 0.10635 0.45448 0.0
C1267 C 0.6435 0.09062 0.43389 0.0
C1268 C 0.62471 0.07058 0.44494 0.0
C1269 C 0.6215 0.06627 0.47575 0.0
C1270 C 0.63721 0.08213 0.49542 0.0
C1271 C 0.6558 0.10177 0.4854 0.0
C1272 C 0.66962 0.11623 0.51173 0.0
C1273 C 0.69345 0.1192 0.51163 0.0
C1274 C 0.6706 0.13919 0.51162 0.0
C1275 C 0.65571 0.10169 0.53797 0.0
C1276 C 0.63716 0.08208 0.52784 0.0
C1277 C 0.6214 0.06616 0.54743 0.0
C1278 C 0.62454 0.07037 0.57825 0.0
C1279 C 0.64332 0.09036 0.58942 0.0
C1280 C 0.65922 0.10616 0.5689 0.0
H1281 H 0.53817 0.62722 0.45046 0.0
H1282 H 0.55452 0.69627 0.43357 0.0
H1283 H 0.55629 0.70312 0.4883 0.0
H1284 H 0.50263 0.61762 0.51438 0.0
H1285 H 0.51208 0.60073 0.5338 0.0
H1286 H 0.51229 0.60151 0.49343 0.0
H1287 H 0.55493 0.61416 0.4933 0.0
H1288 H 0.55486 0.61341 0.53367 0.0
H1289 H 0.57442 0.63891 0.51418 0.0
H1290 H 0.55614 0.70212 0.54551 0.0
H1291 H 0.55414 0.69343 0.59969 0.0
H1292 H 0.53785 0.62501 0.57825 0.0
C1293 C 0.54216 0.64382 0.45818 0.0
C1294 C 0.54623 0.66123 0.43766 0.0
C1295 C 0.55135 0.68268 0.44882 0.0
C1296 C 0.55239 0.68671 0.47988 0.0
C1297 C 0.54825 0.66913 0.49947 0.0
C1298 C 0.54324 0.64811 0.48899 0.0
C1299 C 0.53942 0.632 0.51455 0.0
C1300 C 0.51516 0.61177 0.514 0.0
C1301 C 0.55695 0.62417 0.51388 0.0
C1302 C 0.54308 0.6472 0.54115 0.0
C1303 C 0.54815 0.66856 0.53207 0.0
C1304 C 0.55219 0.68544 0.55281 0.0
C1305 C 0.55101 0.68035 0.58355 0.0
C1306 C 0.54585 0.65854 0.59329 0.0
C1307 C 0.54185 0.64185 0.57164 0.0
H1308 H 0.53623 0.12166 0.199 0.0
H1309 H 0.50973 0.1402 0.27567 0.0
H1310 H 0.54132 0.14418 0.30651 0.0
H1311 H 0.55414 0.08897 0.23779 0.0
H1312 H 0.57978 0.0982 0.21665 0.0
H1313 H 0.55603 0.09843 0.1996 0.0
H1314 H 0.58116 0.14098 0.18733 0.0
H1315 H 0.60506 0.14086 0.2042 0.0
H1316 H 0.59666 0.16057 0.21702 0.0
H1317 H 0.57261 0.14123 0.33085 0.0
H1318 H 0.60443 0.13566 0.34551 0.0
H1319 H 0.61278 0.12225 0.25276 0.0
C1320 C 0.5373 0.12693 0.22213 0.0
C1321 C 0.52044 0.13057 0.23485 0.0
C1322 C 0.52244 0.13739 0.26527 0.0
C1323 C 0.54033 0.13967 0.28308 0.0
C1324 C 0.55637 0.13549 0.27007 0.0
C1325 C 0.55532 0.12969 0.24017 0.0
C1326 C 0.57457 0.1257 0.23202 0.0
C1327 C 0.56559 0.10138 0.22087 0.0
C1328 C 0.5903 0.14307 0.20877 0.0
C1329 C 0.58614 0.12952 0.2622 0.0
C1330 C 0.57528 0.13504 0.28388 0.0
C1331 C 0.58161 0.13744 0.31398 0.0
C1332 C 0.59958 0.13416 0.32213 0.0
C1333 C 0.6112 0.12895 0.30018 0.0
C1334 C 0.6045 0.12681 0.26983 0.0
H1335 H 0.48638 0.60995 0.25621 0.0
H1336 H 0.46523 0.60679 0.34862 0.0
H1337 H 0.42722 0.57529 0.33561 0.0
H1338 H 0.43188 0.5939 0.21979 0.0
H1339 H 0.4354 0.57679 0.19196 0.0
H1340 H 0.45982 0.60107 0.20749 0.0
H1341 H 0.47636 0.57579 0.22324 0.0
H1342 H 0.45205 0.55149 0.20777 0.0
H1343 H 0.45971 0.55135 0.2464 0.0
H1344 H 0.39257 0.54322 0.31335 0.0
H1345 H 0.3646 0.51012 0.28513 0.0
H1346 H 0.40905 0.5323 0.20752 0.0
C1347 C 0.47354 0.60294 0.27351 0.0
C1348 C 0.4785 0.61095 0.30332 0.0
C1349 C 0.46162 0.60093 0.32564 0.0
C1350 C 0.44001 0.58317 0.3184 0.0
C1351 C 0.43572 0.57548 0.28885 0.0
C1352 C 0.45207 0.58487 0.2668 0.0
C1353 C 0.44389 0.57189 0.23761 0.0
C1354 C 0.44267 0.58681 0.21274 0.0
C1355 C 0.45889 0.56205 0.22822 0.0
C1356 C 0.42051 0.55346 0.24683 0.0
C1357 C 0.41601 0.55618 0.27629 0.0
C1358 C 0.39585 0.54097 0.29024 0.0
C1359 C 0.38005 0.52218 0.27392 0.0
C1360 C 0.3846 0.51849 0.24403 0.0
C1361 C 0.40498 0.53464 0.23022 0.0
H1362 H 0.88036 0.47359 0.3159 0.0
H1363 H 0.86502 0.50066 0.2369 0.0
H1364 H 0.85999 0.46808 0.20745 0.0
H1365 H 0.91219 0.45347 0.27955 0.0
H1366 H 0.90177 0.42806 0.30153 0.0
H1367 H 0.90237 0.45256 0.31734 0.0
H1368 H 0.8595 0.42893 0.3288 0.0
H1369 H 0.85879 0.40429 0.31313 0.0
H1370 H 0.84004 0.41351 0.29895 0.0
H1371 H 0.86098 0.43514 0.18502 0.0
H1372 H 0.86497 0.40209 0.1723 0.0
H1373 H 0.87741 0.39506 0.266 0.0
C1374 C 0.87557 0.47248 0.29255 0.0
C1375 C 0.87313 0.48976 0.27879 0.0
C1376 C 0.86696 0.48767 0.24807 0.0
C1377 C 0.86405 0.4692 0.23107 0.0
C1378 C 0.86704 0.45274 0.24512 0.0
C1379 C 0.87234 0.45398 0.27524 0.0
C1380 C 0.8753 0.43431 0.28455 0.0
C1381 C 0.89933 0.4426 0.29643 0.0
C1382 C 0.85733 0.41937 0.30773 0.0
C1383 C 0.87144 0.42222 0.25479 0.0
C1384 C 0.86673 0.43315 0.23232 0.0
C1385 C 0.86421 0.42615 0.2025 0.0
C1386 C 0.8666 0.40746 0.19546 0.0
C1387 C 0.87118 0.39588 0.2182 0.0
C1388 C 0.87339 0.40328 0.24825 0.0
H1389 H 0.47541 0.87782 0.20458 0.0
H1390 H 0.49986 0.86022 0.28425 0.0
H1391 H 0.46729 0.8562 0.31276 0.0
H1392 H 0.45669 0.91087 0.24038 0.0
H1393 H 0.4317 0.90164 0.21784 0.0
H1394 H 0.45582 0.90114 0.20256 0.0
H1395 H 0.43083 0.85854 0.19053 0.0
H1396 H 0.40656 0.85893 0.20564 0.0
H1397 H 0.41442 0.83918 0.22 0.0
H1398 H 0.43503 0.85872 0.33441 0.0
H1399 H 0.40299 0.86454 0.3465 0.0
H1400 H 0.39786 0.87822 0.2527 0.0
C1401 C 0.47368 0.8727 0.22785 0.0
C1402 C 0.49029 0.86939 0.24209 0.0
C1403 C 0.48743 0.86286 0.27271 0.0
C1404 C 0.46895 0.8605 0.28919 0.0
C1405 C 0.45322 0.86441 0.27472 0.0
C1406 C 0.45515 0.87004 0.24465 0.0
C1407 C 0.43624 0.87412 0.23491 0.0
C1408 C 0.44568 0.89838 0.22325 0.0
C1409 C 0.42111 0.85664 0.21138 0.0
C1410 C 0.42385 0.87055 0.2644 0.0
C1411 C 0.43394 0.86498 0.28707 0.0
C1412 C 0.42666 0.86261 0.31675 0.0
C1413 C 0.40855 0.86604 0.32344 0.0
C1414 C 0.39781 0.8715 0.30049 0.0
C1415 C 0.40545 0.87354 0.27058 0.0
H1416 H 0.59189 0.46919 0.20312 0.0
H1417 H 0.63755 0.49174 0.2794 0.0
H1418 H 0.60954 0.45942 0.30885 0.0
H1419 H 0.54202 0.45156 0.2431 0.0
H1420 H 0.52471 0.42686 0.22074 0.0
H1421 H 0.54907 0.45063 0.20436 0.0
H1422 H 0.565 0.42479 0.18887 0.0
H1423 H 0.54056 0.40085 0.205 0.0
H1424 H 0.5685 0.40777 0.21689 0.0
H1425 H 0.57486 0.42804 0.33238 0.0
H1426 H 0.53701 0.3966 0.34636 0.0
H1427 H 0.51482 0.39236 0.2543 0.0
C1428 C 0.59618 0.46708 0.2258 0.0
C1429 C 0.61694 0.4831 0.23888 0.0
C1430 C 0.62182 0.47973 0.26874 0.0
C1431 C 0.60599 0.46141 0.28576 0.0
C1432 C 0.58548 0.4463 0.27251 0.0
C1433 C 0.58067 0.44863 0.24304 0.0
C1434 C 0.55705 0.43028 0.23458 0.0
C1435 C 0.54235 0.44045 0.22515 0.0
C1436 C 0.55783 0.41501 0.20987 0.0
C1437 C 0.54916 0.41776 0.26414 0.0
C1438 C 0.5658 0.42736 0.28577 0.0
C1439 C 0.56185 0.42001 0.31549 0.0
C1440 C 0.54033 0.40228 0.32327 0.0
C1441 C 0.52325 0.39192 0.3013 0.0
C1442 C 0.52782 0.39967 0.27135 0.0
H1443 H 0.12566 0.61163 0.26752 0.0
H1444 H 0.14198 0.6049 0.17556 0.0
H1445 H 0.14727 0.57295 0.19043 0.0
H1446 H 0.16284 0.59473 0.30539 0.0
H1447 H 0.14218 0.57885 0.33386 0.0
H1448 H 0.14282 0.60311 0.31695 0.0
H1449 H 0.10071 0.57847 0.30201 0.0
H1450 H 0.09993 0.55419 0.31885 0.0
H1451 H 0.09195 0.55326 0.28014 0.0
H1452 H 0.14933 0.54116 0.21475 0.0
H1453 H 0.1438 0.50874 0.24505 0.0
H1454 H 0.12283 0.53392 0.3207 0.0
C1455 C 0.13086 0.60371 0.25072 0.0
C1456 C 0.13387 0.61087 0.22052 0.0
C1457 C 0.13984 0.5997 0.19884 0.0
C1458 C 0.14297 0.58167 0.20712 0.0
C1459 C 0.13966 0.57484 0.23706 0.0
C1460 C 0.13345 0.58531 0.25847 0.0
C1461 C 0.12848 0.57308 0.28831 0.0
C1462 C 0.14508 0.58836 0.31256 0.0
C1463 C 0.1038 0.56422 0.29787 0.0
C1464 C 0.13257 0.5539 0.28023 0.0
C1465 C 0.1395 0.55558 0.25075 0.0
C1466 C 0.14397 0.5397 0.23788 0.0
C1467 C 0.14081 0.52134 0.25537 0.0
C1468 C 0.13283 0.51872 0.2853 0.0
C1469 C 0.12898 0.53545 0.29795 0.0
H1470 H 0.48793 0.87927 0.75537 0.0
H1471 H 0.46712 0.8605 0.84778 0.0
H1472 H 0.42919 0.85445 0.8354 0.0
H1473 H 0.4608 0.91127 0.74633 0.0
H1474 H 0.45308 0.90346 0.70771 0.0
H1475 H 0.47763 0.90382 0.72299 0.0
H1476 H 0.46154 0.8621 0.70706 0.0
H1477 H 0.43688 0.86159 0.69176 0.0
H1478 H 0.43375 0.84103 0.71949 0.0
H1479 H 0.39427 0.85161 0.81347 0.0
H1480 H 0.36565 0.85567 0.78521 0.0
H1481 H 0.40988 0.87861 0.7074 0.0
C1482 C 0.47524 0.87349 0.77286 0.0
C1483 C 0.48027 0.87004 0.80246 0.0
C1484 C 0.4635 0.86312 0.82496 0.0
C1485 C 0.44193 0.85954 0.81809 0.0
C1486 C 0.43755 0.86322 0.78871 0.0
C1487 C 0.45379 0.87028 0.76652 0.0
C1488 C 0.44539 0.87496 0.73743 0.0
C1489 C 0.4601 0.89985 0.72808 0.0
C1490 C 0.44432 0.85896 0.71246 0.0
C1491 C 0.42195 0.86969 0.74683 0.0
C1492 C 0.41767 0.86256 0.77634 0.0
C1493 C 0.39739 0.85712 0.79034 0.0
C1494 C 0.38122 0.85947 0.77399 0.0
C1495 C 0.38548 0.86752 0.744 0.0
C1496 C 0.40604 0.87235 0.73019 0.0
H1497 H 0.60855 0.48946 0.7546 0.0
H1498 H 0.60423 0.46507 0.8455 0.0
H1499 H 0.5729 0.42757 0.83026 0.0
H1500 H 0.54955 0.46242 0.74328 0.0
H1501 H 0.55061 0.45633 0.70418 0.0
H1502 H 0.57435 0.48027 0.7213 0.0
H1503 H 0.60057 0.4651 0.70444 0.0
H1504 H 0.57686 0.44104 0.68731 0.0
H1505 H 0.59373 0.43691 0.71489 0.0
H1506 H 0.54172 0.39337 0.80558 0.0
H1507 H 0.5098 0.36581 0.77517 0.0
H1508 H 0.53239 0.41325 0.70082 0.0
C1509 C 0.60125 0.47607 0.77113 0.0
C1510 C 0.60894 0.47994 0.80113 0.0
C1511 C 0.5986 0.46231 0.8224 0.0
C1512 C 0.58092 0.44098 0.81389 0.0
C1513 C 0.57363 0.43773 0.78415 0.0
C1514 C 0.58326 0.45486 0.76318 0.0
C1515 C 0.57085 0.4476 0.73347 0.0
C1516 C 0.56074 0.46254 0.72508 0.0
C1517 C 0.58644 0.44766 0.70856 0.0
C1518 C 0.55256 0.42378 0.74111 0.0
C1519 C 0.5548 0.41832 0.77028 0.0
C1520 C 0.5398 0.39743 0.78271 0.0
C1521 C 0.52172 0.38186 0.76514 0.0
C1522 C 0.5185 0.38734 0.73554 0.0
C1523 C 0.53439 0.40851 0.7233 0.0
H1524 H 0.11943 0.607 0.74994 0.0
H1525 H 0.13469 0.60024 0.84241 0.0
H1526 H 0.14181 0.56942 0.82772 0.0
H1527 H 0.08796 0.54852 0.73613 0.0
H1528 H 0.09688 0.5503 0.6977 0.0
H1529 H 0.09612 0.57379 0.71462 0.0
H1530 H 0.13831 0.60004 0.70115 0.0
H1531 H 0.13921 0.57658 0.68419 0.0
H1532 H 0.15898 0.59274 0.71338 0.0
H1533 H 0.14597 0.53881 0.80343 0.0
H1534 H 0.14256 0.50732 0.77288 0.0
H1535 H 0.12138 0.53172 0.6966 0.0
C1536 C 0.12476 0.59931 0.76692 0.0
C1537 C 0.12695 0.60614 0.7972 0.0
C1538 C 0.13314 0.59528 0.81907 0.0
C1539 C 0.13732 0.57789 0.8109 0.0
C1540 C 0.13483 0.57139 0.78086 0.0
C1541 C 0.1284 0.58154 0.75926 0.0
C1542 C 0.12453 0.56974 0.72924 0.0
C1543 C 0.09991 0.56001 0.71883 0.0
C1544 C 0.14126 0.58573 0.7056 0.0
C1545 C 0.1295 0.55117 0.73743 0.0
C1546 C 0.1359 0.55278 0.76714 0.0
C1547 C 0.14102 0.53739 0.78012 0.0
C1548 C 0.13908 0.51957 0.76249 0.0
C1549 C 0.13165 0.51698 0.73229 0.0
C1550 C 0.12713 0.53324 0.71956 0.0
H1551 H 0.61091 0.12172 0.77025 0.0
H1552 H 0.60302 0.13297 0.67643 0.0
H1553 H 0.57046 0.13779 0.68938 0.0
H1554 H 0.55261 0.08766 0.78461 0.0
H1555 H 0.55382 0.09775 0.82228 0.0
H1556 H 0.57817 0.09809 0.80632 0.0
H1557 H 0.60235 0.14098 0.81708 0.0
H1558 H 0.57804 0.14078 0.83313 0.0
H1559 H 0.59331 0.15986 0.80287 0.0
H1560 H 0.53841 0.14021 0.71213 0.0
H1561 H 0.5064 0.13634 0.74189 0.0
H1562 H 0.53308 0.12048 0.82083 0.0
C1563 C 0.60259 0.12568 0.75256 0.0
C1564 C 0.60962 0.12738 0.7224 0.0
C1565 C 0.59794 0.1318 0.69967 0.0
C1566 C 0.57954 0.13465 0.70685 0.0
C1567 C 0.57288 0.13266 0.73678 0.0
C1568 C 0.58387 0.12802 0.75925 0.0
C1569 C 0.57196 0.12455 0.78914 0.0
C1570 C 0.56364 0.10059 0.80129 0.0
C1571 C 0.58734 0.14262 0.8119 0.0
C1572 C 0.55238 0.1277 0.7799 0.0
C1573 C 0.55355 0.13281 0.74972 0.0
C1574 C 0.53733 0.13626 0.73579 0.0
C1575 C 0.51921 0.13406 0.75299 0.0
C1576 C 0.51716 0.12807 0.78377 0.0
C1577 C 0.53416 0.12508 0.7974 0.0
H1578 H 0.39276 0.51451 0.75108 0.0
H1579 H 0.39562 0.53693 0.84276 0.0
H1580 H 0.4274 0.57464 0.82915 0.0
H1581 H 0.4515 0.54081 0.74167 0.0
H1582 H 0.45147 0.54795 0.70277 0.0
H1583 H 0.42708 0.5239 0.7186 0.0
H1584 H 0.40189 0.54029 0.70174 0.0
H1585 H 0.42625 0.56443 0.68582 0.0
H1586 H 0.40911 0.5684 0.71316 0.0
H1587 H 0.45967 0.60903 0.80623 0.0
H1588 H 0.49263 0.63672 0.77733 0.0
H1589 H 0.47053 0.59103 0.70114 0.0
C1590 C 0.39977 0.52755 0.7681 0.0
C1591 C 0.39158 0.52303 0.79786 0.0
C1592 C 0.4016 0.54019 0.81981 0.0
C1593 C 0.41954 0.56163 0.81224 0.0
C1594 C 0.4274 0.56547 0.78274 0.0
C1595 C 0.41799 0.54885 0.76108 0.0
C1596 C 0.43104 0.55657 0.73188 0.0
C1597 C 0.44085 0.54141 0.72324 0.0
C1598 C 0.41618 0.55748 0.70666 0.0
C1599 C 0.44949 0.58004 0.74063 0.0
C1600 C 0.44677 0.58497 0.76987 0.0
C1601 C 0.46193 0.6054 0.78328 0.0
C1602 C 0.48061 0.62104 0.7666 0.0
C1603 C 0.48424 0.61606 0.73692 0.0
C1604 C 0.46823 0.59537 0.72371 0.0
H1605 H 0.87984 0.41164 0.81661 0.0
H1606 H 0.85952 0.36731 0.73904 0.0
H1607 H 0.85376 0.39465 0.71027 0.0
H1608 H 0.83974 0.43224 0.80364 0.0
H1609 H 0.8596 0.46043 0.81609 0.0
H1610 H 0.86061 0.4366 0.83155 0.0
H1611 H 0.9027 0.45479 0.81607 0.0
H1612 H 0.9018 0.47859 0.80049 0.0
H1613 H 0.91057 0.46268 0.77748 0.0
H1614 H 0.85428 0.42834 0.68799 0.0
H1615 H 0.85834 0.46536 0.67504 0.0
H1616 H 0.87605 0.48707 0.76736 0.0
C1617 C 0.87384 0.40753 0.79374 0.0
C1618 C 0.87018 0.3873 0.78016 0.0
C1619 C 0.86243 0.38264 0.75007 0.0
C1620 C 0.85908 0.39808 0.73346 0.0
C1621 C 0.86324 0.41801 0.74728 0.0
C1622 C 0.87015 0.42269 0.77684 0.0
C1623 C 0.87406 0.44572 0.78594 0.0
C1624 C 0.85751 0.44361 0.81078 0.0
C1625 C 0.89875 0.46136 0.79555 0.0
C1626 C 0.86885 0.45343 0.75666 0.0
C1627 C 0.86267 0.43719 0.73464 0.0
C1628 C 0.85867 0.44105 0.70516 0.0
C1629 C 0.8611 0.46211 0.69797 0.0
C1630 C 0.86719 0.4789 0.72026 0.0
C1631 C 0.87087 0.47434 0.75001 0.0
loop_
_geom_bond_atom_site_label_1
_geom_bond_atom_site_label_2
_geom_bond_distance
_geom_bond_site_symmetry_2
_ccdc_geom_bond_type
O0 Cd1 2.223 . S
O0 C8 1.315 . S
Cd1 O0 2.223 . S
Cd1 O4 2.297 . S
Cd1 O5 2.439 . S
Cd1 O11 2.240 . S
Cd2 O3 2.240 . S
Cd2 O10 2.223 . S
Cd2 O12 2.297 . S
Cd2 O13 2.439 . S
O3 Cd2 2.240 . S
O3 C8 1.279 . S
O4 Cd1 2.297 . S
O4 C6 1.247 . S
O5 Cd1 2.439 . S
O5 C6 1.208 . S
C6 O4 1.247 . S
C6 O5 1.208 . S
C7 O12 1.247 . S
C7 O13 1.208 . S
C8 O0 1.315 . S
C8 O3 1.279 . S
C9 O10 1.315 . S
C9 O11 1.279 . S
O10 Cd2 2.223 . S
O10 C9 1.315 . S
O11 Cd1 2.240 . S
O11 C9 1.279 . S
O12 Cd2 2.297 . S
O12 C7 1.247 . S
O13 Cd2 2.439 . S
O13 C7 1.208 . S
O14 Cd15 2.223 . S
O14 C22 1.315 . S
Cd15 O14 2.223 . S
Cd15 O18 2.297 . S
Cd15 O19 2.439 . S
Cd15 O25 2.240 . S
Cd16 O17 2.240 . S
Cd16 O24 2.223 . S
Cd16 O26 2.297 . S
Cd16 O27 2.439 . S
O17 Cd16 2.240 . S
O17 C22 1.279 . S
O18 Cd15 2.297 . S
O18 C20 1.247 . S
O19 Cd15 2.439 . S
O19 C20 1.208 . S
C20 O18 1.247 . S
C20 O19 1.208 . S
C21 O26 1.247 . S
C21 O27 1.208 . S
C22 O14 1.315 . S
C22 O17 1.279 . S
C23 O24 1.315 . S
C23 O25 1.279 . S
O24 Cd16 2.223 . S
O24 C23 1.315 . S
O25 Cd15 2.240 . S
O25 C23 1.279 . S
O26 Cd16 2.297 . S
O26 C21 1.247 . S
O27 Cd16 2.439 . S
O27 C21 1.208 . S
O28 Cd29 2.223 . S
O28 C36 1.315 . S
Cd29 O28 2.223 . S
Cd29 O32 2.297 . S
Cd29 O33 2.439 . S
Cd29 O39 2.240 . S
Cd30 O31 2.240 . S
Cd30 O38 2.223 . S
Cd30 O40 2.297 . S
Cd30 O41 2.439 . S
O31 Cd30 2.240 . S
O31 C36 1.279 . S
O32 Cd29 2.297 . S
O32 C34 1.247 . S
O33 Cd29 2.439 . S
O33 C34 1.208 . S
C34 O32 1.247 . S
C34 O33 1.208 . S
C35 O40 1.247 . S
C35 O41 1.208 . S
C36 O28 1.315 . S
C36 O31 1.279 . S
C37 O38 1.315 . S
C37 O39 1.279 . S
O38 Cd30 2.223 . S
O38 C37 1.315 . S
O39 Cd29 2.240 . S
O39 C37 1.279 . S
O40 Cd30 2.297 . S
O40 C35 1.247 . S
O41 Cd30 2.439 . S
O41 C35 1.208 . S
O42 Cd43 2.223 . S
O42 C50 1.315 . S
Cd43 O42 2.223 . S
Cd43 O46 2.297 . S
Cd43 O47 2.439 . S
Cd43 O53 2.240 . S
Cd44 O45 2.240 . S
Cd44 O52 2.223 . S
Cd44 O54 2.297 . S
Cd44 O55 2.439 . S
O45 Cd44 2.240 . S
O45 C50 1.279 . S
O46 Cd43 2.297 . S
O46 C48 1.247 . S
O47 Cd43 2.439 . S
O47 C48 1.208 . S
C48 O46 1.247 . S
C48 O47 1.208 . S
C49 O54 1.247 . S
C49 O55 1.208 . S
C50 O42 1.315 . S
C50 O45 1.279 . S
C51 O52 1.315 . S
C51 O53 1.279 . S
O52 Cd44 2.223 . S
O52 C51 1.315 . S
O53 Cd43 2.240 . S
O53 C51 1.279 . S
O54 Cd44 2.297 . S
O54 C49 1.247 . S
O55 Cd44 2.439 . S
O55 C49 1.208 . S
O56 Cd57 2.223 . S
O56 C64 1.315 . S
Cd57 O56 2.223 . S
Cd57 O60 2.297 . S
Cd57 O61 2.439 . S
Cd57 O67 2.240 . S
Cd58 O59 2.240 . S
Cd58 O66 2.223 . S
Cd58 O68 2.297 . S
Cd58 O69 2.439 . S
O59 Cd58 2.240 . S
O59 C64 1.279 . S
O60 Cd57 2.297 . S
O60 C62 1.247 . S
O61 Cd57 2.439 . S
O61 C62 1.208 . S
C62 O60 1.247 . S
C62 O61 1.208 . S
C63 O68 1.247 . S
C63 O69 1.208 . S
C64 O56 1.315 . S
C64 O59 1.279 . S
C65 O66 1.315 . S
C65 O67 1.279 . S
O66 Cd58 2.223 . S
O66 C65 1.315 . S
O67 Cd57 2.240 . S
O67 C65 1.279 . S
O68 Cd58 2.297 . S
O68 C63 1.247 . S
O69 Cd58 2.439 . S
O69 C63 1.208 . S
O70 Cd71 2.223 . S
O70 C78 1.315 . S
Cd71 O70 2.223 . S
Cd71 O74 2.297 . S
Cd71 O75 2.439 . S
Cd71 O81 2.240 . S
Cd72 O73 2.240 . S
Cd72 O80 2.223 . S
Cd72 O82 2.297 . S
Cd72 O83 2.439 . S
O73 Cd72 2.240 . S
O73 C78 1.279 . S
O74 Cd71 2.297 . S
O74 C76 1.247 . S
O75 Cd71 2.439 . S
O75 C76 1.208 . S
C76 O74 1.247 . S
C76 O75 1.208 . S
C77 O82 1.247 . S
C77 O83 1.208 . S
C78 O70 1.315 . S
C78 O73 1.279 . S
C79 O80 1.315 . S
C79 O81 1.279 . S
O80 Cd72 2.223 . S
O80 C79 1.315 . S
O81 Cd71 2.240 . S
O81 C79 1.279 . S
O82 Cd72 2.297 . S
O82 C77 1.247 . S
O83 Cd72 2.439 . S
O83 C77 1.208 . S
O84 Cd85 2.223 . S
O84 C92 1.315 . S
Cd85 O84 2.223 . S
Cd85 O88 2.297 . S
Cd85 O89 2.439 . S
Cd85 O95 2.240 . S
Cd86 O87 2.240 . S
Cd86 O94 2.223 . S
Cd86 O96 2.297 . S
Cd86 O97 2.439 . S
O87 Cd86 2.240 . S
O87 C92 1.279 . S
O88 Cd85 2.297 . S
O88 C90 1.247 . S
O89 Cd85 2.439 . S
O89 C90 1.208 . S
C90 O88 1.247 . S
C90 O89 1.208 . S
C91 O96 1.247 . S
C91 O97 1.208 . S
C92 O84 1.315 . S
C92 O87 1.279 . S
C93 O94 1.315 . S
C93 O95 1.279 . S
O94 Cd86 2.223 . S
O94 C93 1.315 . S
O95 Cd85 2.240 . S
O95 C93 1.279 . S
O96 Cd86 2.297 . S
O96 C91 1.247 . S
O97 Cd86 2.439 . S
O97 C91 1.208 . S
O98 Cd99 2.223 . S
O98 C106 1.315 . S
Cd99 O98 2.223 . S
Cd99 O102 2.297 . S
Cd99 O103 2.439 . S
Cd99 O109 2.240 . S
Cd100 O101 2.240 . S
Cd100 O108 2.223 . S
Cd100 O110 2.297 . S
Cd100 O111 2.439 . S
O101 Cd100 2.240 . S
O101 C106 1.279 . S
O102 Cd99 2.297 . S
O102 C104 1.247 . S
O103 Cd99 2.439 . S
O103 C104 1.208 . S
C104 O102 1.247 . S
C104 O103 1.208 . S
C105 O110 1.247 . S
C105 O111 1.208 . S
C106 O98 1.315 . S
C106 O101 1.279 . S
C107 O108 1.315 . S
C107 O109 1.279 . S
O108 Cd100 2.223 . S
O108 C107 1.315 . S
O109 Cd99 2.240 . S
O109 C107 1.279 . S
O110 Cd100 2.297 . S
O110 C105 1.247 . S
O111 Cd100 2.439 . S
O111 C105 1.208 . S
O112 Cd113 2.223 . S
O112 C120 1.315 . S
Cd113 O112 2.223 . S
Cd113 O116 2.297 . S
Cd113 O117 2.439 . S
Cd113 O123 2.240 . S
Cd114 O115 2.240 . S
Cd114 O122 2.223 . S
Cd114 O124 2.297 . S
Cd114 O125 2.439 . S
O115 Cd114 2.240 . S
O115 C120 1.279 . S
O116 Cd113 2.297 . S
O116 C118 1.247 . S
O117 Cd113 2.439 . S
O117 C118 1.208 . S
C118 O116 1.247 . S
C118 O117 1.208 . S
C119 O124 1.247 . S
C119 O125 1.208 . S
C120 O112 1.315 . S
C120 O115 1.279 . S
C121 O122 1.315 . S
C121 O123 1.279 . S
O122 Cd114 2.223 . S
O122 C121 1.315 . S
O123 Cd113 2.240 . S
O123 C121 1.279 . S
O124 Cd114 2.297 . S
O124 C119 1.247 . S
O125 Cd114 2.439 . S
O125 C119 1.208 . S
O126 Cd127 2.223 . S
O126 C134 1.315 . S
Cd127 O126 2.223 . S
Cd127 O130 2.297 . S
Cd127 O131 2.439 . S
Cd127 O137 2.240 . S
Cd128 O129 2.240 . S
Cd128 O136 2.223 . S
Cd128 O138 2.297 . S
Cd128 O139 2.439 . S
O129 Cd128 2.240 . S
O129 C134 1.279 . S
O130 Cd127 2.297 . S
O130 C132 1.247 . S
O131 Cd127 2.439 . S
O131 C132 1.208 . S
C132 O130 1.247 . S
C132 O131 1.208 . S
C133 O138 1.247 . S
C133 O139 1.208 . S
C134 O126 1.315 . S
C134 O129 1.279 . S
C135 O136 1.315 . S
C135 O137 1.279 . S
O136 Cd128 2.223 . S
O136 C135 1.315 . S
O137 Cd127 2.240 . S
O137 C135 1.279 . S
O138 Cd128 2.297 . S
O138 C133 1.247 . S
O139 Cd128 2.439 . S
O139 C133 1.208 . S
O140 Cd141 2.223 . S
O140 C148 1.315 . S
Cd141 O140 2.223 . S
Cd141 O144 2.297 . S
Cd141 O145 2.439 . S
Cd141 O151 2.240 . S
Cd142 O143 2.240 . S
Cd142 O150 2.223 . S
Cd142 O152 2.297 . S
Cd142 O153 2.439 . S
O143 Cd142 2.240 . S
O143 C148 1.279 . S
O144 Cd141 2.297 . S
O144 C146 1.247 . S
O145 Cd141 2.439 . S
O145 C146 1.208 . S
C146 O144 1.247 . S
C146 O145 1.208 . S
C147 O152 1.247 . S
C147 O153 1.208 . S
C148 O140 1.315 . S
C148 O143 1.279 . S
C149 O150 1.315 . S
C149 O151 1.279 . S
O150 Cd142 2.223 . S
O150 C149 1.315 . S
O151 Cd141 2.240 . S
O151 C149 1.279 . S
O152 Cd142 2.297 . S
O152 C147 1.247 . S
O153 Cd142 2.439 . S
O153 C147 1.208 . S
O154 Cd155 2.223 . S
O154 C162 1.315 . S
Cd155 O154 2.223 . S
Cd155 O158 2.297 . S
Cd155 O159 2.439 . S
Cd155 O165 2.240 . S
Cd156 O157 2.240 . S
Cd156 O164 2.223 . S
Cd156 O166 2.297 . S
Cd156 O167 2.439 . S
O157 Cd156 2.240 . S
O157 C162 1.279 . S
O158 Cd155 2.297 . S
O158 C160 1.247 . S
O159 Cd155 2.439 . S
O159 C160 1.208 . S
C160 O158 1.247 . S
C160 O159 1.208 . S
C161 O166 1.247 . S
C161 O167 1.208 . S
C162 O154 1.315 . S
C162 O157 1.279 . S
C163 O164 1.315 . S
C163 O165 1.279 . S
O164 Cd156 2.223 . S
O164 C163 1.315 . S
O165 Cd155 2.240 . S
O165 C163 1.279 . S
O166 Cd156 2.297 . S
O166 C161 1.247 . S
O167 Cd156 2.439 . S
O167 C161 1.208 . S
O168 Cd169 2.223 . S
O168 C176 1.315 . S
Cd169 O168 2.223 . S
Cd169 O172 2.297 . S
Cd169 O173 2.439 . S
Cd169 O179 2.240 . S
Cd170 O171 2.240 . S
Cd170 O178 2.223 . S
Cd170 O180 2.297 . S
Cd170 O181 2.439 . S
O171 Cd170 2.240 . S
O171 C176 1.279 . S
O172 Cd169 2.297 . S
O172 C174 1.247 . S
O173 Cd169 2.439 . S
O173 C174 1.208 . S
C174 O172 1.247 . S
C174 O173 1.208 . S
C175 O180 1.247 . S
C175 O181 1.208 . S
C176 O168 1.315 . S
C176 O171 1.279 . S
C177 O178 1.315 . S
C177 O179 1.279 . S
O178 Cd170 2.223 . S
O178 C177 1.315 . S
O179 Cd169 2.240 . S
O179 C177 1.279 . S
O180 Cd170 2.297 . S
O180 C175 1.247 . S
O181 Cd170 2.439 . S
O181 C175 1.208 . S
O182 Cd183 2.223 . S
O182 C190 1.315 . S
Cd183 O182 2.223 . S
Cd183 O186 2.297 . S
Cd183 O187 2.439 . S
Cd183 O193 2.240 . S
Cd184 O185 2.240 . S
Cd184 O192 2.223 . S
Cd184 O194 2.297 . S
Cd184 O195 2.439 . S
O185 Cd184 2.240 . S
O185 C190 1.279 . S
O186 Cd183 2.297 . S
O186 C188 1.247 . S
O187 Cd183 2.439 . S
O187 C188 1.208 . S
C188 O186 1.247 . S
C188 O187 1.208 . S
C189 O194 1.247 . S
C189 O195 1.208 . S
C190 O182 1.315 . S
C190 O185 1.279 . S
C191 O192 1.315 . S
C191 O193 1.279 . S
O192 Cd184 2.223 . S
O192 C191 1.315 . S
O193 Cd183 2.240 . S
O193 C191 1.279 . S
O194 Cd184 2.297 . S
O194 C189 1.247 . S
O195 Cd184 2.439 . S
O195 C189 1.208 . S
O196 Cd197 2.223 . S
O196 C204 1.315 . S
Cd197 O196 2.223 . S
Cd197 O200 2.297 . S
Cd197 O201 2.439 . S
Cd197 O207 2.240 . S
Cd198 O199 2.240 . S
Cd198 O206 2.223 . S
Cd198 O208 2.297 . S
Cd198 O209 2.439 . S
O199 Cd198 2.240 . S
O199 C204 1.279 . S
O200 Cd197 2.297 . S
O200 C202 1.247 . S
O201 Cd197 2.439 . S
O201 C202 1.208 . S
C202 O200 1.247 . S
C202 O201 1.208 . S
C203 O208 1.247 . S
C203 O209 1.208 . S
C204 O196 1.315 . S
C204 O199 1.279 . S
C205 O206 1.315 . S
C205 O207 1.279 . S
O206 Cd198 2.223 . S
O206 C205 1.315 . S
O207 Cd197 2.240 . S
O207 C205 1.279 . S
O208 Cd198 2.297 . S
O208 C203 1.247 . S
O209 Cd198 2.439 . S
O209 C203 1.208 . S
O210 Cd211 2.223 . S
O210 C218 1.315 . S
Cd211 O210 2.223 . S
Cd211 O214 2.297 . S
Cd211 O215 2.439 . S
Cd211 O221 2.240 . S
Cd212 O213 2.240 . S
Cd212 O220 2.223 . S
Cd212 O222 2.297 . S
Cd212 O223 2.439 . S
O213 Cd212 2.240 . S
O213 C218 1.279 . S
O214 Cd211 2.297 . S
O214 C216 1.247 . S
O215 Cd211 2.439 . S
O215 C216 1.208 . S
C216 O214 1.247 . S
C216 O215 1.208 . S
C217 O222 1.247 . S
C217 O223 1.208 . S
C218 O210 1.315 . S
C218 O213 1.279 . S
C219 O220 1.315 . S
C219 O221 1.279 . S
O220 Cd212 2.223 . S
O220 C219 1.315 . S
O221 Cd211 2.240 . S
O221 C219 1.279 . S
O222 Cd212 2.297 . S
O222 C217 1.247 . S
O223 Cd212 2.439 . S
O223 C217 1.208 . S
O224 Cd225 2.223 . S
O224 C232 1.315 . S
Cd225 O224 2.223 . S
Cd225 O228 2.297 . S
Cd225 O229 2.439 . S
Cd225 O235 2.240 . S
Cd226 O227 2.240 . S
Cd226 O234 2.223 . S
Cd226 O236 2.297 . S
Cd226 O237 2.439 . S
O227 Cd226 2.240 . S
O227 C232 1.279 . S
O228 Cd225 2.297 . S
O228 C230 1.247 . S
O229 Cd225 2.439 . S
O229 C230 1.208 . S
C230 O228 1.247 . S
C230 O229 1.208 . S
C231 O236 1.247 . S
C231 O237 1.208 . S
C232 O224 1.315 . S
C232 O227 1.279 . S
C233 O234 1.315 . S
C233 O235 1.279 . S
O234 Cd226 2.223 . S
O234 C233 1.315 . S
O235 Cd225 2.240 . S
O235 C233 1.279 . S
O236 Cd226 2.297 . S
O236 C231 1.247 . S
O237 Cd226 2.439 . S
O237 C231 1.208 . S
O238 Cd239 2.223 . S
O238 C246 1.315 . S
Cd239 O238 2.223 . S
Cd239 O242 2.297 . S
Cd239 O243 2.439 . S
Cd239 O249 2.240 . S
Cd240 O241 2.240 . S
Cd240 O248 2.223 . S
Cd240 O250 2.297 . S
Cd240 O251 2.439 . S
O241 Cd240 2.240 . S
O241 C246 1.279 . S
O242 Cd239 2.297 . S
O242 C244 1.247 . S
O243 Cd239 2.439 . S
O243 C244 1.208 . S
C244 O242 1.247 . S
C244 O243 1.208 . S
C245 O250 1.247 . S
C245 O251 1.208 . S
C246 O238 1.315 . S
C246 O241 1.279 . S
C247 O248 1.315 . S
C247 O249 1.279 . S
O248 Cd240 2.223 . S
O248 C247 1.315 . S
O249 Cd239 2.240 . S
O249 C247 1.279 . S
O250 Cd240 2.297 . S
O250 C245 1.247 . S
O251 Cd240 2.439 . S
O251 C245 1.208 . S
O252 Cd253 2.223 . S
O252 C260 1.315 . S
Cd253 O252 2.223 . S
Cd253 O256 2.297 . S
Cd253 O257 2.439 . S
Cd253 O263 2.240 . S
Cd254 O255 2.240 . S
Cd254 O262 2.223 . S
Cd254 O264 2.297 . S
Cd254 O265 2.439 . S
O255 Cd254 2.240 . S
O255 C260 1.279 . S
O256 Cd253 2.297 . S
O256 C258 1.247 . S
O257 Cd253 2.439 . S
O257 C258 1.208 . S
C258 O256 1.247 . S
C258 O257 1.208 . S
C259 O264 1.247 . S
C259 O265 1.208 . S
C260 O252 1.315 . S
C260 O255 1.279 . S
C261 O262 1.315 . S
C261 O263 1.279 . S
O262 Cd254 2.223 . S
O262 C261 1.315 . S
O263 Cd253 2.240 . S
O263 C261 1.279 . S
O264 Cd254 2.297 . S
O264 C259 1.247 . S
O265 Cd254 2.439 . S
O265 C259 1.208 . S
O266 Cd267 2.223 . S
O266 C274 1.315 . S
Cd267 O266 2.223 . S
Cd267 O270 2.297 . S
Cd267 O271 2.439 . S
Cd267 O277 2.240 . S
Cd268 O269 2.240 . S
Cd268 O276 2.223 . S
Cd268 O278 2.297 . S
Cd268 O279 2.439 . S
O269 Cd268 2.240 . S
O269 C274 1.279 . S
O270 Cd267 2.297 . S
O270 C272 1.247 . S
O271 Cd267 2.439 . S
O271 C272 1.208 . S
C272 O270 1.247 . S
C272 O271 1.208 . S
C273 O278 1.247 . S
C273 O279 1.208 . S
C274 O266 1.315 . S
C274 O269 1.279 . S
C275 O276 1.315 . S
C275 O277 1.279 . S
O276 Cd268 2.223 . S
O276 C275 1.315 . S
O277 Cd267 2.240 . S
O277 C275 1.279 . S
O278 Cd268 2.297 . S
O278 C273 1.247 . S
O279 Cd268 2.439 . S
O279 C273 1.208 . S
O280 Cd281 2.223 . S
O280 C288 1.315 . S
Cd281 O280 2.223 . S
Cd281 O284 2.297 . S
Cd281 O285 2.439 . S
Cd281 O291 2.240 . S
Cd282 O283 2.240 . S
Cd282 O290 2.223 . S
Cd282 O292 2.297 . S
Cd282 O293 2.439 . S
O283 Cd282 2.240 . S
O283 C288 1.279 . S
O284 Cd281 2.297 . S
O284 C286 1.247 . S
O285 Cd281 2.439 . S
O285 C286 1.208 . S
C286 O284 1.247 . S
C286 O285 1.208 . S
C287 O292 1.247 . S
C287 O293 1.208 . S
C288 O280 1.315 . S
C288 O283 1.279 . S
C289 O290 1.315 . S
C289 O291 1.279 . S
O290 Cd282 2.223 . S
O290 C289 1.315 . S
O291 Cd281 2.240 . S
O291 C289 1.279 . S
O292 Cd282 2.297 . S
O292 C287 1.247 . S
O293 Cd282 2.439 . S
O293 C287 1.208 . S
O294 Cd295 2.223 . S
O294 C302 1.315 . S
Cd295 O294 2.223 . S
Cd295 O298 2.297 . S
Cd295 O299 2.439 . S
Cd295 O305 2.240 . S
Cd296 O297 2.240 . S
Cd296 O304 2.223 . S
Cd296 O306 2.297 . S
Cd296 O307 2.439 . S
O297 Cd296 2.240 . S
O297 C302 1.279 . S
O298 Cd295 2.297 . S
O298 C300 1.247 . S
O299 Cd295 2.439 . S
O299 C300 1.208 . S
C300 O298 1.247 . S
C300 O299 1.208 . S
C301 O306 1.247 . S
C301 O307 1.208 . S
C302 O294 1.315 . S
C302 O297 1.279 . S
C303 O304 1.315 . S
C303 O305 1.279 . S
O304 Cd296 2.223 . S
O304 C303 1.315 . S
O305 Cd295 2.240 . S
O305 C303 1.279 . S
O306 Cd296 2.297 . S
O306 C301 1.247 . S
O307 Cd296 2.439 . S
O307 C301 1.208 . S
O308 Cd309 2.223 . S
O308 C316 1.315 . S
Cd309 O308 2.223 . S
Cd309 O312 2.297 . S
Cd309 O313 2.439 . S
Cd309 O319 2.240 . S
Cd310 O311 2.240 . S
Cd310 O318 2.223 . S
Cd310 O320 2.297 . S
Cd310 O321 2.439 . S
O311 Cd310 2.240 . S
O311 C316 1.279 . S
O312 Cd309 2.297 . S
O312 C314 1.247 . S
O313 Cd309 2.439 . S
O313 C314 1.208 . S
C314 O312 1.247 . S
C314 O313 1.208 . S
C315 O320 1.247 . S
C315 O321 1.208 . S
C316 O308 1.315 . S
C316 O311 1.279 . S
C317 O318 1.315 . S
C317 O319 1.279 . S
O318 Cd310 2.223 . S
O318 C317 1.315 . S
O319 Cd309 2.240 . S
O319 C317 1.279 . S
O320 Cd310 2.297 . S
O320 C315 1.247 . S
O321 Cd310 2.439 . S
O321 C315 1.208 . S
O322 Cd323 2.223 . S
O322 C330 1.315 . S
Cd323 O322 2.223 . S
Cd323 O326 2.297 . S
Cd323 O327 2.439 . S
Cd323 O333 2.240 . S
Cd324 O325 2.240 . S
Cd324 O332 2.223 . S
Cd324 O334 2.297 . S
Cd324 O335 2.439 . S
O325 Cd324 2.240 . S
O325 C330 1.279 . S
O326 Cd323 2.297 . S
O326 C328 1.247 . S
O327 Cd323 2.439 . S
O327 C328 1.208 . S
C328 O326 1.247 . S
C328 O327 1.208 . S
C329 O334 1.247 . S
C329 O335 1.208 . S
C330 O322 1.315 . S
C330 O325 1.279 . S
C331 O332 1.315 . S
C331 O333 1.279 . S
O332 Cd324 2.223 . S
O332 C331 1.315 . S
O333 Cd323 2.240 . S
O333 C331 1.279 . S
O334 Cd324 2.297 . S
O334 C329 1.247 . S
O335 Cd324 2.439 . S
O335 C329 1.208 . S
H336 C348 0.930 . S
H337 C350 0.930 . S
H338 C351 0.930 . S
H339 C355 0.959 1_545 S
H340 C355 0.959 . S
H341 C355 0.961 1_545 S
H342 C356 0.960 . S
H343 C356 0.961 . S
H344 C356 0.959 . S
H345 C359 0.929 . S
H346 C360 0.931 . S
H347 C362 0.930 . S
C348 H336 0.930 . S
C348 C349 1.399 . S
C348 C353 1.399 . S
C349 C348 1.399 . S
C349 C350 1.376 . S
C350 H337 0.930 . S
C350 C349 1.376 . S
C350 C351 1.388 . S
C351 H338 0.930 . S
C351 C350 1.388 . S
C351 C352 1.390 . S
C352 C351 1.390 . S
C352 C353 1.394 . S
C352 C358 1.465 1_545 S
C353 C348 1.399 . S
C353 C352 1.394 . S
C353 C354 1.516 1_545 S
C354 C353 1.516 1_565 S
C354 C355 1.502 . S
C354 C356 1.561 . S
C354 C357 1.526 . S
C355 H339 0.959 1_565 S
C355 H340 0.959 . S
C355 H341 0.961 1_565 S
C355 C354 1.502 . S
C356 H342 0.960 . S
C356 H343 0.961 . S
C356 H344 0.959 . S
C356 C354 1.561 . S
C357 C354 1.526 . S
C357 C358 1.396 . S
C357 C362 1.390 . S
C358 C352 1.465 1_565 S
C358 C357 1.396 . S
C358 C359 1.399 . S
C359 H345 0.929 . S
C359 C358 1.399 . S
C359 C360 1.385 . S
C360 H346 0.931 . S
C360 C359 1.385 . S
C360 C361 1.389 . S
C361 C360 1.389 . S
C361 C362 1.387 . S
C362 H347 0.930 . S
C362 C357 1.390 . S
C362 C361 1.387 . S
H363 C375 0.930 . S
H364 C377 0.930 . S
H365 C378 0.930 . S
H366 C382 0.959 . S
H367 C382 0.959 . S
H368 C382 0.961 . S
H369 C383 0.960 . S
H370 C383 0.961 . S
H371 C383 0.959 . S
H372 C386 0.929 . S
H373 C387 0.931 . S
H374 C389 0.930 . S
C375 H363 0.930 . S
C375 C376 1.399 . S
C375 C380 1.399 . S
C376 C375 1.399 . S
C376 C377 1.376 . S
C377 H364 0.930 . S
C377 C376 1.376 . S
C377 C378 1.388 . S
C378 H365 0.930 . S
C378 C377 1.388 . S
C378 C379 1.390 . S
C379 C378 1.390 . S
C379 C380 1.394 . S
C379 C385 1.465 . S
C380 C375 1.399 . S
C380 C379 1.394 . S
C380 C381 1.516 . S
C381 C380 1.516 . S
C381 C382 1.502 . S
C381 C383 1.561 . S
C381 C384 1.526 . S
C382 H366 0.959 . S
C382 H367 0.959 . S
C382 H368 0.961 . S
C382 C381 1.502 . S
C383 H369 0.960 . S
C383 H370 0.961 . S
C383 H371 0.959 . S
C383 C381 1.561 . S
C384 C381 1.526 . S
C384 C385 1.396 . S
C384 C389 1.390 . S
C385 C379 1.465 . S
C385 C384 1.396 . S
C385 C386 1.399 . S
C386 H372 0.929 . S
C386 C385 1.399 . S
C386 C387 1.385 . S
C387 H373 0.931 . S
C387 C386 1.385 . S
C387 C388 1.389 . S
C388 C387 1.389 . S
C388 C389 1.387 . S
C389 H374 0.930 . S
C389 C384 1.390 . S
C389 C388 1.387 . S
H390 C402 0.930 . S
H391 C404 0.930 . S
H392 C405 0.930 1_455 S
H393 C409 0.959 . S
H394 C409 0.959 . S
H395 C409 0.961 . S
H396 C410 0.960 . S
H397 C410 0.961 . S
H398 C410 0.959 . S
H399 C413 0.929 . S
H400 C414 0.931 . S
H401 C416 0.930 . S
C402 H390 0.930 . S
C402 C403 1.399 . S
C402 C407 1.399 . S
C403 C402 1.399 . S
C403 C404 1.376 . S
C404 H391 0.930 . S
C404 C403 1.376 . S
C404 C405 1.388 . S
C405 H392 0.930 1_655 S
C405 C404 1.388 . S
C405 C406 1.390 . S
C406 C405 1.390 . S
C406 C407 1.394 . S
C406 C412 1.465 1_655 S
C407 C402 1.399 . S
C407 C406 1.394 . S
C407 C408 1.516 . S
C408 C407 1.516 . S
C408 C409 1.502 . S
C408 C410 1.561 . S
C408 C411 1.526 1_655 S
C409 H393 0.959 . S
C409 H394 0.959 . S
C409 H395 0.961 . S
C409 C408 1.502 . S
C410 H396 0.960 . S
C410 H397 0.961 . S
C410 H398 0.959 . S
C410 C408 1.561 . S
C411 C408 1.526 1_455 S
C411 C412 1.396 . S
C411 C416 1.390 . S
C412 C406 1.465 1_455 S
C412 C411 1.396 . S
C412 C413 1.399 . S
C413 H399 0.929 . S
C413 C412 1.399 . S
C413 C414 1.385 . S
C414 H400 0.931 . S
C414 C413 1.385 . S
C414 C415 1.389 . S
C415 C414 1.389 . S
C415 C416 1.387 . S
C416 H401 0.930 . S
C416 C411 1.390 . S
C416 C415 1.387 . S
H417 C429 0.930 . S
H418 C431 0.930 . S
H419 C432 0.930 1_545 S
H420 C436 0.959 . S
H421 C436 0.959 . S
H422 C436 0.961 . S
H423 C437 0.960 . S
H424 C437 0.961 . S
H425 C437 0.959 . S
H426 C440 0.929 . S
H427 C441 0.931 . S
H428 C443 0.930 . S
C429 H417 0.930 . S
C429 C430 1.399 . S
C429 C434 1.399 . S
C430 C429 1.399 . S
C430 C431 1.376 . S
C431 H418 0.930 . S
C431 C430 1.376 . S
C431 C432 1.388 . S
C432 H419 0.930 1_565 S
C432 C431 1.388 . S
C432 C433 1.390 . S
C433 C432 1.390 . S
C433 C434 1.394 . S
C433 C439 1.465 1_565 S
C434 C429 1.399 . S
C434 C433 1.394 . S
C434 C435 1.516 . S
C435 C434 1.516 . S
C435 C436 1.502 . S
C435 C437 1.561 . S
C435 C438 1.526 1_565 S
C436 H420 0.959 . S
C436 H421 0.959 . S
C436 H422 0.961 . S
C436 C435 1.502 . S
C437 H423 0.960 . S
C437 H424 0.961 . S
C437 H425 0.959 . S
C437 C435 1.561 . S
C438 C435 1.526 1_545 S
C438 C439 1.396 . S
C438 C443 1.390 . S
C439 C433 1.465 1_545 S
C439 C438 1.396 . S
C439 C440 1.399 . S
C440 H426 0.929 . S
C440 C439 1.399 . S
C440 C441 1.385 . S
C441 H427 0.931 . S
C441 C440 1.385 . S
C441 C442 1.389 . S
C442 C441 1.389 . S
C442 C443 1.387 . S
C443 H428 0.930 . S
C443 C438 1.390 . S
C443 C442 1.387 . S
H444 C456 0.930 . S
H445 C458 0.930 . S
H446 C459 0.930 . S
H447 C463 0.959 . S
H448 C463 0.959 . S
H449 C463 0.961 . S
H450 C464 0.960 . S
H451 C464 0.961 . S
H452 C464 0.959 . S
H453 C467 0.929 . S
H454 C468 0.931 . S
H455 C470 0.930 . S
C456 H444 0.930 . S
C456 C457 1.399 . S
C456 C461 1.399 . S
C457 C456 1.399 . S
C457 C458 1.376 . S
C458 H445 0.930 . S
C458 C457 1.376 . S
C458 C459 1.388 . S
C459 H446 0.930 . S
C459 C458 1.388 . S
C459 C460 1.390 . S
C460 C459 1.390 . S
C460 C461 1.394 . S
C460 C466 1.465 . S
C461 C456 1.399 . S
C461 C460 1.394 . S
C461 C462 1.516 . S
C462 C461 1.516 . S
C462 C463 1.502 . S
C462 C464 1.561 . S
C462 C465 1.526 . S
C463 H447 0.959 . S
C463 H448 0.959 . S
C463 H449 0.961 . S
C463 C462 1.502 . S
C464 H450 0.960 . S
C464 H451 0.961 . S
C464 H452 0.959 . S
C464 C462 1.561 . S
C465 C462 1.526 . S
C465 C466 1.396 . S
C465 C470 1.390 . S
C466 C460 1.465 . S
C466 C465 1.396 . S
C466 C467 1.399 . S
C467 H453 0.929 . S
C467 C466 1.399 . S
C467 C468 1.385 . S
C468 H454 0.931 . S
C468 C467 1.385 . S
C468 C469 1.389 . S
C469 C468 1.389 . S
C469 C470 1.387 . S
C470 H455 0.930 . S
C470 C465 1.390 . S
C470 C469 1.387 . S
H471 C483 0.930 . S
H472 C485 0.930 . S
H473 C486 0.930 . S
H474 C490 0.959 . S
H475 C490 0.959 . S
H476 C490 0.961 . S
H477 C491 0.963 1_455 S
H478 C491 0.961 . S
H479 C491 0.959 . S
H480 C494 0.931 . S
H481 C495 0.931 . S
H482 C497 0.930 . S
C483 H471 0.930 . S
C483 C484 1.399 . S
C483 C488 1.399 . S
C484 C483 1.399 . S
C484 C485 1.376 . S
C485 H472 0.930 . S
C485 C484 1.376 . S
C485 C486 1.388 . S
C486 H473 0.930 . S
C486 C485 1.388 . S
C486 C487 1.390 . S
C487 C486 1.390 . S
C487 C488 1.394 . S
C487 C493 1.465 1_455 S
C488 C483 1.399 . S
C488 C487 1.394 . S
C488 C489 1.516 1_455 S
C489 C488 1.516 1_655 S
C489 C490 1.502 . S
C489 C491 1.561 . S
C489 C492 1.526 . S
C490 H474 0.959 . S
C490 H475 0.959 . S
C490 H476 0.961 . S
C490 C489 1.502 . S
C491 H477 0.963 1_655 S
C491 H478 0.961 . S
C491 H479 0.959 . S
C491 C489 1.561 . S
C492 C489 1.526 . S
C492 C493 1.396 . S
C492 C497 1.390 . S
C493 C487 1.465 1_655 S
C493 C492 1.396 . S
C493 C494 1.399 . S
C494 H480 0.931 . S
C494 C493 1.399 . S
C494 C495 1.385 . S
C495 H481 0.931 . S
C495 C494 1.385 . S
C495 C496 1.389 . S
C496 C495 1.389 . S
C496 C497 1.387 . S
C497 H482 0.930 . S
C497 C492 1.390 . S
C497 C496 1.387 . S
H498 C510 0.930 . S
H499 C512 0.930 . S
H500 C513 0.882 1_545 S
H501 C517 0.959 . S
H502 C517 0.959 . S
H503 C517 0.961 . S
H504 C518 0.960 . S
H505 C518 0.961 . S
H506 C518 0.959 . S
H507 C521 0.929 . S
H508 C522 0.931 . S
H509 C524 0.930 . S
C510 H498 0.930 . S
C510 C511 1.399 . S
C510 C515 1.399 . S
C511 C510 1.399 . S
C511 C512 1.376 . S
C512 H499 0.930 . S
C512 C511 1.376 . S
C512 C513 1.388 . S
C513 H500 0.882 1_565 S
C513 C512 1.388 . S
C513 C514 1.390 . S
C514 C513 1.390 . S
C514 C515 1.394 . S
C514 C520 1.465 1_565 S
C515 C510 1.399 . S
C515 C514 1.394 . S
C515 C516 1.516 . S
C516 C515 1.516 . S
C516 C517 1.502 . S
C516 C518 1.561 . S
C516 C519 1.526 1_565 S
C517 H501 0.959 . S
C517 H502 0.959 . S
C517 H503 0.961 . S
C517 C516 1.502 . S
C518 H504 0.960 . S
C518 H505 0.961 . S
C518 H506 0.959 . S
C518 C516 1.561 . S
C519 C516 1.526 1_545 S
C519 C520 1.396 . S
C519 C524 1.390 . S
C520 C514 1.465 1_545 S
C520 C519 1.396 . S
C520 C521 1.399 . S
C521 H507 0.929 . S
C521 C520 1.399 . S
C521 C522 1.385 . S
C522 H508 0.931 . S
C522 C521 1.385 . S
C522 C523 1.389 . S
C523 C522 1.389 . S
C523 C524 1.387 . S
C524 H509 0.930 . S
C524 C519 1.390 . S
C524 C523 1.387 . S
H525 C537 0.930 . S
H526 C539 0.930 . S
H527 C540 0.930 . S
H528 C544 0.959 . S
H529 C544 0.959 . S
H530 C544 0.961 . S
H531 C545 0.960 . S
H532 C545 0.961 . S
H533 C545 0.959 . S
H534 C548 0.929 . S
H535 C549 0.931 . S
H536 C551 0.930 . S
C537 H525 0.930 . S
C537 C538 1.399 . S
C537 C542 1.399 . S
C538 C537 1.399 . S
C538 C539 1.376 . S
C539 H526 0.930 . S
C539 C538 1.376 . S
C539 C540 1.388 . S
C540 H527 0.930 . S
C540 C539 1.388 . S
C540 C541 1.390 . S
C541 C540 1.390 . S
C541 C542 1.394 . S
C541 C547 1.465 . S
C542 C537 1.399 . S
C542 C541 1.394 . S
C542 C543 1.516 . S
C543 C542 1.516 . S
C543 C544 1.502 . S
C543 C545 1.561 . S
C543 C546 1.526 . S
C544 H528 0.959 . S
C544 H529 0.959 . S
C544 H530 0.961 . S
C544 C543 1.502 . S
C545 H531 0.960 . S
C545 H532 0.961 . S
C545 H533 0.959 . S
C545 C543 1.561 . S
C546 C543 1.526 . S
C546 C547 1.396 . S
C546 C551 1.390 . S
C547 C541 1.465 . S
C547 C546 1.396 . S
C547 C548 1.399 . S
C548 H534 0.929 . S
C548 C547 1.399 . S
C548 C549 1.385 . S
C549 H535 0.931 . S
C549 C548 1.385 . S
C549 C550 1.389 . S
C550 C549 1.389 . S
C550 C551 1.387 . S
C551 H536 0.930 . S
C551 C546 1.390 . S
C551 C550 1.387 . S
H552 C564 0.930 . S
H553 C566 0.930 . S
H554 C567 0.930 . S
H555 C571 0.959 . S
H556 C571 0.959 . S
H557 C571 0.961 . S
H558 C572 0.960 . S
H559 C572 0.961 1_455 S
H560 C572 0.959 1_455 S
H561 C575 0.929 . S
H562 C576 0.931 . S
H563 C578 0.930 . S
C564 H552 0.930 . S
C564 C565 1.399 . S
C564 C569 1.399 . S
C565 C564 1.399 . S
C565 C566 1.376 . S
C566 H553 0.930 . S
C566 C565 1.376 . S
C566 C567 1.388 . S
C567 H554 0.930 . S
C567 C566 1.388 . S
C567 C568 1.390 . S
C568 C567 1.390 . S
C568 C569 1.394 . S
C568 C574 1.465 1_655 S
C569 C564 1.399 . S
C569 C568 1.394 . S
C569 C570 1.516 . S
C570 C569 1.516 . S
C570 C571 1.502 . S
C570 C572 1.561 . S
C570 C573 1.526 1_655 S
C571 H555 0.959 . S
C571 H556 0.959 . S
C571 H557 0.961 . S
C571 C570 1.502 . S
C572 H558 0.960 . S
C572 H559 0.961 1_655 S
C572 H560 0.959 1_655 S
C572 C570 1.561 . S
C573 C570 1.526 1_455 S
C573 C574 1.396 . S
C573 C578 1.390 . S
C574 C568 1.465 1_455 S
C574 C573 1.396 . S
C574 C575 1.399 . S
C575 H561 0.929 . S
C575 C574 1.399 . S
C575 C576 1.385 . S
C576 H562 0.931 . S
C576 C575 1.385 . S
C576 C577 1.389 . S
C577 C576 1.389 . S
C577 C578 1.387 . S
C578 H563 0.930 . S
C578 C573 1.390 . S
C578 C577 1.387 . S
H579 C591 0.930 . S
H580 C593 0.930 . S
H581 C594 0.930 . S
H582 C598 0.959 . S
H583 C598 0.959 . S
H584 C598 0.961 . S
H585 C599 0.960 . S
H586 C599 0.961 . S
H587 C599 0.959 . S
H588 C602 0.929 1_545 S
H589 C603 0.931 . S
H590 C605 0.930 . S
C591 H579 0.930 . S
C591 C592 1.399 . S
C591 C596 1.399 . S
C592 C591 1.399 . S
C592 C593 1.376 . S
C593 H580 0.930 . S
C593 C592 1.376 . S
C593 C594 1.388 . S
C594 H581 0.930 . S
C594 C593 1.388 . S
C594 C595 1.390 . S
C595 C594 1.390 . S
C595 C596 1.394 . S
C595 C601 1.465 1_545 S
C596 C591 1.399 . S
C596 C595 1.394 . S
C596 C597 1.516 1_545 S
C597 C596 1.516 1_565 S
C597 C598 1.502 . S
C597 C599 1.561 . S
C597 C600 1.526 . S
C598 H582 0.959 . S
C598 H583 0.959 . S
C598 H584 0.961 . S
C598 C597 1.502 . S
C599 H585 0.960 . S
C599 H586 0.961 . S
C599 H587 0.959 . S
C599 C597 1.561 . S
C600 C597 1.526 . S
C600 C601 1.396 . S
C600 C605 1.390 . S
C601 C595 1.465 1_565 S
C601 C600 1.396 . S
C601 C602 1.399 . S
C602 H588 0.929 1_565 S
C602 C601 1.399 . S
C602 C603 1.385 . S
C603 H589 0.931 . S
C603 C602 1.385 . S
C603 C604 1.389 . S
C604 C603 1.389 . S
C604 C605 1.387 . S
C605 H590 0.930 . S
C605 C600 1.390 . S
C605 C604 1.387 . S
H606 C618 0.930 . S
H607 C620 0.930 . S
H608 C621 0.930 . S
H609 C625 0.959 . S
H610 C625 0.959 . S
H611 C625 0.961 . S
H612 C626 0.960 . S
H613 C626 0.961 . S
H614 C626 0.959 . S
H615 C629 0.929 . S
H616 C630 0.931 . S
H617 C632 0.930 . S
C618 H606 0.930 . S
C618 C619 1.399 . S
C618 C623 1.399 . S
C619 C618 1.399 . S
C619 C620 1.376 . S
C620 H607 0.930 . S
C620 C619 1.376 . S
C620 C621 1.388 . S
C621 H608 0.930 . S
C621 C620 1.388 . S
C621 C622 1.390 . S
C622 C621 1.390 . S
C622 C623 1.394 . S
C622 C628 1.465 . S
C623 C618 1.399 . S
C623 C622 1.394 . S
C623 C624 1.516 . S
C624 C623 1.516 . S
C624 C625 1.502 . S
C624 C626 1.561 . S
C624 C627 1.526 . S
C625 H609 0.959 . S
C625 H610 0.959 . S
C625 H611 0.961 . S
C625 C624 1.502 . S
C626 H612 0.960 . S
C626 H613 0.961 . S
C626 H614 0.959 . S
C626 C624 1.561 . S
C627 C624 1.526 . S
C627 C628 1.396 . S
C627 C632 1.390 . S
C628 C622 1.465 . S
C628 C627 1.396 . S
C628 C629 1.399 . S
C629 H615 0.929 . S
C629 C628 1.399 . S
C629 C630 1.385 . S
C630 H616 0.931 . S
C630 C629 1.385 . S
C630 C631 1.389 . S
C631 C630 1.389 . S
C631 C632 1.387 . S
C632 H617 0.930 . S
C632 C627 1.390 . S
C632 C631 1.387 . S
H633 C645 0.930 . S
H634 C647 0.930 . S
H635 C648 0.930 . S
H636 C652 0.959 . S
H637 C652 0.959 . S
H638 C652 0.961 . S
H639 C653 0.960 . S
H640 C653 0.961 . S
H641 C653 0.959 . S
H642 C656 0.929 1_455 S
H643 C657 0.931 . S
H644 C659 0.930 . S
C645 H633 0.930 . S
C645 C646 1.399 . S
C645 C650 1.399 . S
C646 C645 1.399 . S
C646 C647 1.376 . S
C647 H634 0.930 . S
C647 C646 1.376 . S
C647 C648 1.388 . S
C648 H635 0.930 . S
C648 C647 1.388 . S
C648 C649 1.390 . S
C649 C648 1.390 . S
C649 C650 1.394 . S
C649 C655 1.465 1_455 S
C650 C645 1.399 . S
C650 C649 1.394 . S
C650 C651 1.516 1_455 S
C651 C650 1.516 1_655 S
C651 C652 1.502 . S
C651 C653 1.561 . S
C651 C654 1.526 . S
C652 H636 0.959 . S
C652 H637 0.959 . S
C652 H638 0.961 . S
C652 C651 1.502 . S
C653 H639 0.960 . S
C653 H640 0.961 . S
C653 H641 0.959 . S
C653 C651 1.561 . S
C654 C651 1.526 . S
C654 C655 1.396 . S
C654 C659 1.390 . S
C655 C649 1.465 1_655 S
C655 C654 1.396 . S
C655 C656 1.399 . S
C656 H642 0.929 1_655 S
C656 C655 1.399 . S
C656 C657 1.385 . S
C657 H643 0.931 . S
C657 C656 1.385 . S
C657 C658 1.389 . S
C658 C657 1.389 . S
C658 C659 1.387 . S
C659 H644 0.930 . S
C659 C654 1.390 . S
C659 C658 1.387 . S
H660 C672 0.930 . S
H661 C674 0.930 . S
H662 C675 0.930 . S
H663 C679 0.959 . S
H664 C679 0.959 . S
H665 C679 0.961 . S
H666 C680 0.960 . S
H667 C680 0.961 . S
H668 C680 0.959 . S
H669 C683 0.929 . S
H670 C684 0.931 . S
H671 C686 0.930 . S
C672 H660 0.930 . S
C672 C673 1.399 . S
C672 C677 1.399 . S
C673 C672 1.399 . S
C673 C674 1.376 . S
C674 H661 0.930 . S
C674 C673 1.376 . S
C674 C675 1.388 . S
C675 H662 0.930 . S
C675 C674 1.388 . S
C675 C676 1.390 . S
C676 C675 1.390 . S
C676 C677 1.394 . S
C676 C682 1.465 . S
C677 C672 1.399 . S
C677 C676 1.394 . S
C677 C678 1.516 . S
C678 C677 1.516 . S
C678 C679 1.502 . S
C678 C680 1.561 . S
C678 C681 1.526 . S
C679 H663 0.959 . S
C679 H664 0.959 . S
C679 H665 0.961 . S
C679 C678 1.502 . S
C680 H666 0.960 . S
C680 H667 0.961 . S
C680 H668 0.959 . S
C680 C678 1.561 . S
C681 C678 1.526 . S
C681 C682 1.396 . S
C681 C686 1.390 . S
C682 C676 1.465 . S
C682 C681 1.396 . S
C682 C683 1.399 . S
C683 H669 0.929 . S
C683 C682 1.399 . S
C683 C684 1.385 . S
C684 H670 0.931 . S
C684 C683 1.385 . S
C684 C685 1.389 . S
C685 C684 1.389 . S
C685 C686 1.387 . S
C686 H671 0.930 . S
C686 C681 1.390 . S
C686 C685 1.387 . S
H687 C699 0.930 . S
H688 C701 0.930 . S
H689 C702 0.930 . S
H690 C706 0.959 . S
H691 C706 0.959 . S
H692 C706 0.961 . S
H693 C707 0.960 . S
H694 C707 0.961 . S
H695 C707 0.959 . S
H696 C710 0.929 . S
H697 C711 0.931 . S
H698 C713 0.930 . S
C699 H687 0.930 . S
C699 C700 1.399 . S
C699 C704 1.399 . S
C700 C699 1.399 . S
C700 C701 1.376 . S
C701 H688 0.930 . S
C701 C700 1.376 . S
C701 C702 1.388 . S
C702 H689 0.930 . S
C702 C701 1.388 . S
C702 C703 1.390 . S
C703 C702 1.390 . S
C703 C704 1.394 . S
C703 C709 1.465 . S
C704 C699 1.399 . S
C704 C703 1.394 . S
C704 C705 1.516 . S
C705 C704 1.516 . S
C705 C706 1.502 . S
C705 C707 1.561 . S
C705 C708 1.526 . S
C706 H690 0.959 . S
C706 H691 0.959 . S
C706 H692 0.961 . S
C706 C705 1.502 . S
C707 H693 0.960 . S
C707 H694 0.961 . S
C707 H695 0.959 . S
C707 C705 1.561 . S
C708 C705 1.526 . S
C708 C709 1.396 . S
C708 C713 1.390 . S
C709 C703 1.465 . S
C709 C708 1.396 . S
C709 C710 1.399 . S
C710 H696 0.929 . S
C710 C709 1.399 . S
C710 C711 1.385 . S
C711 H697 0.931 . S
C711 C710 1.385 . S
C711 C712 1.389 . S
C712 C711 1.389 . S
C712 C713 1.387 . S
C713 H698 0.930 . S
C713 C708 1.390 . S
C713 C712 1.387 . S
H714 C726 0.930 . S
H715 C728 0.930 . S
H716 C729 0.930 . S
H717 C733 0.959 . S
H718 C733 0.959 . S
H719 C733 0.961 . S
H720 C734 0.960 . S
H721 C734 0.961 . S
H722 C734 0.959 . S
H723 C737 0.929 . S
H724 C738 0.931 . S
H725 C740 0.930 . S
C726 H714 0.930 . S
C726 C727 1.399 . S
C726 C731 1.399 . S
C727 C726 1.399 . S
C727 C728 1.376 . S
C728 H715 0.930 . S
C728 C727 1.376 . S
C728 C729 1.388 . S
C729 H716 0.930 . S
C729 C728 1.388 . S
C729 C730 1.390 . S
C730 C729 1.390 . S
C730 C731 1.394 . S
C730 C736 1.465 . S
C731 C726 1.399 . S
C731 C730 1.394 . S
C731 C732 1.516 . S
C732 C731 1.516 . S
C732 C733 1.502 . S
C732 C734 1.561 . S
C732 C735 1.526 . S
C733 H717 0.959 . S
C733 H718 0.959 . S
C733 H719 0.961 . S
C733 C732 1.502 . S
C734 H720 0.960 . S
C734 H721 0.961 . S
C734 H722 0.959 . S
C734 C732 1.561 . S
C735 C732 1.526 . S
C735 C736 1.396 . S
C735 C740 1.390 . S
C736 C730 1.465 . S
C736 C735 1.396 . S
C736 C737 1.399 . S
C737 H723 0.929 . S
C737 C736 1.399 . S
C737 C738 1.385 . S
C738 H724 0.931 . S
C738 C737 1.385 . S
C738 C739 1.389 . S
C739 C738 1.389 . S
C739 C740 1.387 . S
C740 H725 0.930 . S
C740 C735 1.390 . S
C740 C739 1.387 . S
H741 C753 0.930 . S
H742 C755 0.930 . S
H743 C756 0.930 . S
H744 C760 0.959 . S
H745 C760 0.959 . S
H746 C760 0.961 . S
H747 C761 0.960 . S
H748 C761 0.961 . S
H749 C761 0.959 . S
H750 C764 0.929 . S
H751 C765 0.931 . S
H752 C767 0.930 . S
C753 H741 0.930 . S
C753 C754 1.399 . S
C753 C758 1.399 . S
C754 C753 1.399 . S
C754 C755 1.376 . S
C755 H742 0.930 . S
C755 C754 1.376 . S
C755 C756 1.388 . S
C756 H743 0.930 . S
C756 C755 1.388 . S
C756 C757 1.390 . S
C757 C756 1.390 . S
C757 C758 1.394 . S
C757 C763 1.465 . S
C758 C753 1.399 . S
C758 C757 1.394 . S
C758 C759 1.516 . S
C759 C758 1.516 . S
C759 C760 1.502 . S
C759 C761 1.561 . S
C759 C762 1.526 . S
C760 H744 0.959 . S
C760 H745 0.959 . S
C760 H746 0.961 . S
C760 C759 1.502 . S
C761 H747 0.960 . S
C761 H748 0.961 . S
C761 H749 0.959 . S
C761 C759 1.561 . S
C762 C759 1.526 . S
C762 C763 1.396 . S
C762 C767 1.390 . S
C763 C757 1.465 . S
C763 C762 1.396 . S
C763 C764 1.399 . S
C764 H750 0.929 . S
C764 C763 1.399 . S
C764 C765 1.385 . S
C765 H751 0.931 . S
C765 C764 1.385 . S
C765 C766 1.389 . S
C766 C765 1.389 . S
C766 C767 1.387 . S
C767 H752 0.930 . S
C767 C762 1.390 . S
C767 C766 1.387 . S
H768 C780 0.930 . S
H769 C782 0.930 . S
H770 C783 0.930 . S
H771 C787 0.959 . S
H772 C787 0.959 . S
H773 C787 0.961 . S
H774 C788 0.960 . S
H775 C788 0.961 . S
H776 C788 0.959 . S
H777 C791 0.929 . S
H778 C792 0.931 . S
H779 C794 0.930 . S
C780 H768 0.930 . S
C780 C781 1.399 . S
C780 C785 1.399 . S
C781 C780 1.399 . S
C781 C782 1.376 . S
C782 H769 0.930 . S
C782 C781 1.376 . S
C782 C783 1.388 . S
C783 H770 0.930 . S
C783 C782 1.388 . S
C783 C784 1.390 . S
C784 C783 1.390 . S
C784 C785 1.394 . S
C784 C790 1.465 . S
C785 C780 1.399 . S
C785 C784 1.394 . S
C785 C786 1.516 . S
C786 C785 1.516 . S
C786 C787 1.502 . S
C786 C788 1.561 . S
C786 C789 1.526 . S
C787 H771 0.959 . S
C787 H772 0.959 . S
C787 H773 0.961 . S
C787 C786 1.502 . S
C788 H774 0.960 . S
C788 H775 0.961 . S
C788 H776 0.959 . S
C788 C786 1.561 . S
C789 C786 1.526 . S
C789 C790 1.396 . S
C789 C794 1.390 . S
C790 C784 1.465 . S
C790 C789 1.396 . S
C790 C791 1.399 . S
C791 H777 0.929 . S
C791 C790 1.399 . S
C791 C792 1.385 . S
C792 H778 0.931 . S
C792 C791 1.385 . S
C792 C793 1.389 . S
C793 C792 1.389 . S
C793 C794 1.387 . S
C794 H779 0.930 . S
C794 C789 1.390 . S
C794 C793 1.387 . S
H795 C807 0.930 . S
H796 C809 0.930 . S
H797 C810 0.930 . S
H798 C814 0.959 . S
H799 C814 0.959 . S
H800 C814 0.961 . S
H801 C815 0.960 . S
H802 C815 0.961 . S
H803 C815 0.959 . S
H804 C818 0.929 . S
H805 C819 0.931 . S
H806 C821 0.930 . S
C807 H795 0.930 . S
C807 C808 1.399 . S
C807 C812 1.399 . S
C808 C807 1.399 . S
C808 C809 1.376 . S
C809 H796 0.930 . S
C809 C808 1.376 . S
C809 C810 1.388 . S
C810 H797 0.930 . S
C810 C809 1.388 . S
C810 C811 1.390 . S
C811 C810 1.390 . S
C811 C812 1.394 . S
C811 C817 1.465 . S
C812 C807 1.399 . S
C812 C811 1.394 . S
C812 C813 1.516 . S
C813 C812 1.516 . S
C813 C814 1.502 . S
C813 C815 1.561 . S
C813 C816 1.526 . S
C814 H798 0.959 . S
C814 H799 0.959 . S
C814 H800 0.961 . S
C814 C813 1.502 . S
C815 H801 0.960 . S
C815 H802 0.961 . S
C815 H803 0.959 . S
C815 C813 1.561 . S
C816 C813 1.526 . S
C816 C817 1.396 . S
C816 C821 1.390 . S
C817 C811 1.465 . S
C817 C816 1.396 . S
C817 C818 1.399 . S
C818 H804 0.929 . S
C818 C817 1.399 . S
C818 C819 1.385 . S
C819 H805 0.931 . S
C819 C818 1.385 . S
C819 C820 1.389 . S
C820 C819 1.389 . S
C820 C821 1.387 . S
C821 H806 0.930 . S
C821 C816 1.390 . S
C821 C820 1.387 . S
H822 C834 0.930 . S
H823 C836 0.930 . S
H824 C837 0.930 . S
H825 C841 0.959 . S
H826 C841 0.959 . S
H827 C841 0.961 . S
H828 C842 0.960 . S
H829 C842 0.961 . S
H830 C842 0.959 . S
H831 C845 0.929 . S
H832 C846 0.931 . S
H833 C848 0.930 . S
C834 H822 0.930 . S
C834 C835 1.399 . S
C834 C839 1.399 . S
C835 C834 1.399 . S
C835 C836 1.376 . S
C836 H823 0.930 . S
C836 C835 1.376 . S
C836 C837 1.388 . S
C837 H824 0.930 . S
C837 C836 1.388 . S
C837 C838 1.390 . S
C838 C837 1.390 . S
C838 C839 1.394 . S
C838 C844 1.465 . S
C839 C834 1.399 . S
C839 C838 1.394 . S
C839 C840 1.516 . S
C840 C839 1.516 . S
C840 C841 1.502 . S
C840 C842 1.561 . S
C840 C843 1.526 . S
C841 H825 0.959 . S
C841 H826 0.959 . S
C841 H827 0.961 . S
C841 C840 1.502 . S
C842 H828 0.960 . S
C842 H829 0.961 . S
C842 H830 0.959 . S
C842 C840 1.561 . S
C843 C840 1.526 . S
C843 C844 1.396 . S
C843 C848 1.390 . S
C844 C838 1.465 . S
C844 C843 1.396 . S
C844 C845 1.399 . S
C845 H831 0.929 . S
C845 C844 1.399 . S
C845 C846 1.385 . S
C846 H832 0.931 . S
C846 C845 1.385 . S
C846 C847 1.389 . S
C847 C846 1.389 . S
C847 C848 1.387 . S
C848 H833 0.930 . S
C848 C843 1.390 . S
C848 C847 1.387 . S
H849 C861 0.930 . S
H850 C863 0.930 . S
H851 C864 0.930 . S
H852 C868 0.959 . S
H853 C868 0.959 . S
H854 C868 0.961 . S
H855 C869 0.960 . S
H856 C869 0.961 . S
H857 C869 0.959 . S
H858 C872 0.929 . S
H859 C873 0.931 . S
H860 C875 0.930 . S
C861 H849 0.930 . S
C861 C862 1.399 . S
C861 C866 1.399 . S
C862 C861 1.399 . S
C862 C863 1.376 . S
C863 H850 0.930 . S
C863 C862 1.376 . S
C863 C864 1.388 . S
C864 H851 0.930 . S
C864 C863 1.388 . S
C864 C865 1.390 . S
C865 C864 1.390 . S
C865 C866 1.394 . S
C865 C871 1.465 . S
C866 C861 1.399 . S
C866 C865 1.394 . S
C866 C867 1.516 . S
C867 C866 1.516 . S
C867 C868 1.502 . S
C867 C869 1.561 . S
C867 C870 1.526 . S
C868 H852 0.959 . S
C868 H853 0.959 . S
C868 H854 0.961 . S
C868 C867 1.502 . S
C869 H855 0.960 . S
C869 H856 0.961 . S
C869 H857 0.959 . S
C869 C867 1.561 . S
C870 C867 1.526 . S
C870 C871 1.396 . S
C870 C875 1.390 . S
C871 C865 1.465 . S
C871 C870 1.396 . S
C871 C872 1.399 . S
C872 H858 0.929 . S
C872 C871 1.399 . S
C872 C873 1.385 . S
C873 H859 0.931 . S
C873 C872 1.385 . S
C873 C874 1.389 . S
C874 C873 1.389 . S
C874 C875 1.387 . S
C875 H860 0.930 . S
C875 C870 1.390 . S
C875 C874 1.387 . S
H876 C888 0.930 . S
H877 C890 0.930 . S
H878 C891 0.930 . S
H879 C895 0.959 . S
H880 C895 0.959 . S
H881 C895 0.961 . S
H882 C896 0.960 . S
H883 C896 0.961 . S
H884 C896 0.959 . S
H885 C899 0.929 . S
H886 C900 0.931 . S
H887 C902 0.930 . S
C888 H876 0.930 . S
C888 C889 1.399 . S
C888 C893 1.399 . S
C889 C888 1.399 . S
C889 C890 1.376 . S
C890 H877 0.930 . S
C890 C889 1.376 . S
C890 C891 1.388 . S
C891 H878 0.930 . S
C891 C890 1.388 . S
C891 C892 1.390 . S
C892 C891 1.390 . S
C892 C893 1.394 . S
C892 C898 1.465 . S
C893 C888 1.399 . S
C893 C892 1.394 . S
C893 C894 1.516 . S
C894 C893 1.516 . S
C894 C895 1.502 . S
C894 C896 1.561 . S
C894 C897 1.526 . S
C895 H879 0.959 . S
C895 H880 0.959 . S
C895 H881 0.961 . S
C895 C894 1.502 . S
C896 H882 0.960 . S
C896 H883 0.961 . S
C896 H884 0.959 . S
C896 C894 1.561 . S
C897 C894 1.526 . S
C897 C898 1.396 . S
C897 C902 1.390 . S
C898 C892 1.465 . S
C898 C897 1.396 . S
C898 C899 1.399 . S
C899 H885 0.929 . S
C899 C898 1.399 . S
C899 C900 1.385 . S
C900 H886 0.931 . S
C900 C899 1.385 . S
C900 C901 1.389 . S
C901 C900 1.389 . S
C901 C902 1.387 . S
C902 H887 0.930 . S
C902 C897 1.390 . S
C902 C901 1.387 . S
H903 C915 0.930 . S
H904 C917 0.930 . S
H905 C918 0.930 . S
H906 C922 0.959 . S
H907 C922 0.959 . S
H908 C922 0.961 . S
H909 C923 0.960 . S
H910 C923 0.961 . S
H911 C923 0.959 . S
H912 C926 0.929 . S
H913 C927 0.931 . S
H914 C929 0.930 . S
C915 H903 0.930 . S
C915 C916 1.399 . S
C915 C920 1.399 . S
C916 C915 1.399 . S
C916 C917 1.376 . S
C917 H904 0.930 . S
C917 C916 1.376 . S
C917 C918 1.388 . S
C918 H905 0.930 . S
C918 C917 1.388 . S
C918 C919 1.390 . S
C919 C918 1.390 . S
C919 C920 1.394 . S
C919 C925 1.465 . S
C920 C915 1.399 . S
C920 C919 1.394 . S
C920 C921 1.516 . S
C921 C920 1.516 . S
C921 C922 1.502 . S
C921 C923 1.561 . S
C921 C924 1.526 . S
C922 H906 0.959 . S
C922 H907 0.959 . S
C922 H908 0.961 . S
C922 C921 1.502 . S
C923 H909 0.960 . S
C923 H910 0.961 . S
C923 H911 0.959 . S
C923 C921 1.561 . S
C924 C921 1.526 . S
C924 C925 1.396 . S
C924 C929 1.390 . S
C925 C919 1.465 . S
C925 C924 1.396 . S
C925 C926 1.399 . S
C926 H912 0.929 . S
C926 C925 1.399 . S
C926 C927 1.385 . S
C927 H913 0.931 . S
C927 C926 1.385 . S
C927 C928 1.389 . S
C928 C927 1.389 . S
C928 C929 1.387 . S
C929 H914 0.930 . S
C929 C924 1.390 . S
C929 C928 1.387 . S
H930 C942 0.930 . S
H931 C944 0.930 . S
H932 C945 0.930 . S
H933 C949 0.959 . S
H934 C949 0.959 . S
H935 C949 0.961 . S
H936 C950 0.960 . S
H937 C950 0.961 . S
H938 C950 0.959 . S
H939 C953 0.929 . S
H940 C954 0.931 . S
H941 C956 0.930 . S
C942 H930 0.930 . S
C942 C943 1.399 . S
C942 C947 1.399 . S
C943 C942 1.399 . S
C943 C944 1.376 . S
C944 H931 0.930 . S
C944 C943 1.376 . S
C944 C945 1.388 . S
C945 H932 0.930 . S
C945 C944 1.388 . S
C945 C946 1.390 . S
C946 C945 1.390 . S
C946 C947 1.394 . S
C946 C952 1.465 . S
C947 C942 1.399 . S
C947 C946 1.394 . S
C947 C948 1.516 . S
C948 C947 1.516 . S
C948 C949 1.502 . S
C948 C950 1.561 . S
C948 C951 1.526 . S
C949 H933 0.959 . S
C949 H934 0.959 . S
C949 H935 0.961 . S
C949 C948 1.502 . S
C950 H936 0.960 . S
C950 H937 0.961 . S
C950 H938 0.959 . S
C950 C948 1.561 . S
C951 C948 1.526 . S
C951 C952 1.396 . S
C951 C956 1.390 . S
C952 C946 1.465 . S
C952 C951 1.396 . S
C952 C953 1.399 . S
C953 H939 0.929 . S
C953 C952 1.399 . S
C953 C954 1.385 . S
C954 H940 0.931 . S
C954 C953 1.385 . S
C954 C955 1.389 . S
C955 C954 1.389 . S
C955 C956 1.387 . S
C956 H941 0.930 . S
C956 C951 1.390 . S
C956 C955 1.387 . S
H957 C969 0.930 . S
H958 C971 0.930 . S
H959 C972 0.930 . S
H960 C976 0.959 . S
H961 C976 0.959 . S
H962 C976 0.961 . S
H963 C977 0.960 . S
H964 C977 0.961 . S
H965 C977 0.959 . S
H966 C980 0.929 . S
H967 C981 0.931 . S
H968 C983 0.930 . S
C969 H957 0.930 . S
C969 C970 1.399 . S
C969 C974 1.399 . S
C970 C969 1.399 . S
C970 C971 1.376 . S
C971 H958 0.930 . S
C971 C970 1.376 . S
C971 C972 1.388 . S
C972 H959 0.930 . S
C972 C971 1.388 . S
C972 C973 1.390 . S
C973 C972 1.390 . S
C973 C974 1.394 . S
C973 C979 1.465 . S
C974 C969 1.399 . S
C974 C973 1.394 . S
C974 C975 1.516 . S
C975 C974 1.516 . S
C975 C976 1.502 . S
C975 C977 1.561 . S
C975 C978 1.526 . S
C976 H960 0.959 . S
C976 H961 0.959 . S
C976 H962 0.961 . S
C976 C975 1.502 . S
C977 H963 0.960 . S
C977 H964 0.961 . S
C977 H965 0.959 . S
C977 C975 1.561 . S
C978 C975 1.526 . S
C978 C979 1.396 . S
C978 C983 1.390 . S
C979 C973 1.465 . S
C979 C978 1.396 . S
C979 C980 1.399 . S
C980 H966 0.929 . S
C980 C979 1.399 . S
C980 C981 1.385 . S
C981 H967 0.931 . S
C981 C980 1.385 . S
C981 C982 1.389 . S
C982 C981 1.389 . S
C982 C983 1.387 . S
C983 H968 0.930 . S
C983 C978 1.390 . S
C983 C982 1.387 . S
H984 C996 0.930 . S
H985 C998 0.930 . S
H986 C999 0.930 . S
H987 C1003 0.962 . S
H988 C1003 0.980 . S
H989 C1003 0.938 1_554 S
H990 C1004 0.957 1_554 S
H991 C1004 0.964 . S
H992 C1004 0.959 . S
H993 C1007 0.929 . S
H994 C1008 0.931 . S
H995 C1010 0.930 . S
C996 H984 0.930 . S
C996 C997 1.399 . S
C996 C1001 1.399 . S
C997 C996 1.399 . S
C997 C998 1.376 . S
C998 H985 0.930 . S
C998 C997 1.376 . S
C998 C999 1.388 . S
C999 H986 0.930 . S
C999 C998 1.388 . S
C999 C1000 1.390 . S
C1000 C999 1.390 . S
C1000 C1001 1.394 . S
C1000 C1006 1.465 1_554 S
C1001 C996 1.399 . S
C1001 C1000 1.394 . S
C1001 C1002 1.516 1_554 S
C1002 C1001 1.516 1_556 S
C1002 C1003 1.502 . S
C1002 C1004 1.561 . S
C1002 C1005 1.526 . S
C1003 H987 0.962 . S
C1003 H988 0.980 . S
C1003 H989 0.938 1_556 S
C1003 C1002 1.502 . S
C1004 H990 0.957 1_556 S
C1004 H991 0.964 . S
C1004 H992 0.959 . S
C1004 C1002 1.561 . S
C1005 C1002 1.526 . S
C1005 C1006 1.396 . S
C1005 C1010 1.390 . S
C1006 C1000 1.465 1_556 S
C1006 C1005 1.396 . S
C1006 C1007 1.399 . S
C1007 H993 0.929 . S
C1007 C1006 1.399 . S
C1007 C1008 1.385 . S
C1008 H994 0.931 . S
C1008 C1007 1.385 . S
C1008 C1009 1.389 . S
C1009 C1008 1.389 . S
C1009 C1010 1.387 . S
C1010 H995 0.930 . S
C1010 C1005 1.390 . S
C1010 C1009 1.387 . S
H1011 C1023 0.930 . S
H1012 C1025 0.930 . S
H1013 C1026 0.930 . S
H1014 C1030 0.962 . S
H1015 C1030 0.980 . S
H1016 C1030 0.939 1_556 S
H1017 C1031 0.957 1_556 S
H1018 C1031 0.964 . S
H1019 C1031 0.959 . S
H1020 C1034 0.929 . S
H1021 C1035 0.931 . S
H1022 C1037 0.930 . S
C1023 H1011 0.930 . S
C1023 C1024 1.399 . S
C1023 C1028 1.399 . S
C1024 C1023 1.399 . S
C1024 C1025 1.376 . S
C1025 H1012 0.930 . S
C1025 C1024 1.376 . S
C1025 C1026 1.388 . S
C1026 H1013 0.930 . S
C1026 C1025 1.388 . S
C1026 C1027 1.390 . S
C1027 C1026 1.390 . S
C1027 C1028 1.394 . S
C1027 C1033 1.465 1_556 S
C1028 C1023 1.399 . S
C1028 C1027 1.394 . S
C1028 C1029 1.516 1_556 S
C1029 C1028 1.516 1_554 S
C1029 C1030 1.502 . S
C1029 C1031 1.561 . S
C1029 C1032 1.526 . S
C1030 H1014 0.962 . S
C1030 H1015 0.980 . S
C1030 H1016 0.939 1_554 S
C1030 C1029 1.502 . S
C1031 H1017 0.957 1_554 S
C1031 H1018 0.964 . S
C1031 H1019 0.959 . S
C1031 C1029 1.561 . S
C1032 C1029 1.526 . S
C1032 C1033 1.396 . S
C1032 C1037 1.390 . S
C1033 C1027 1.465 1_554 S
C1033 C1032 1.396 . S
C1033 C1034 1.399 . S
C1034 H1020 0.929 . S
C1034 C1033 1.399 . S
C1034 C1035 1.385 . S
C1035 H1021 0.931 . S
C1035 C1034 1.385 . S
C1035 C1036 1.389 . S
C1036 C1035 1.389 . S
C1036 C1037 1.387 . S
C1037 H1022 0.930 . S
C1037 C1032 1.390 . S
C1037 C1036 1.387 . S
H1038 C1050 0.930 . S
H1039 C1052 0.930 . S
H1040 C1053 0.930 . S
H1041 C1057 0.962 . S
H1042 C1057 0.980 . S
H1043 C1057 0.939 1_556 S
H1044 C1058 0.957 1_556 S
H1045 C1058 0.964 . S
H1046 C1058 0.959 . S
H1047 C1061 0.929 . S
H1048 C1062 0.931 . S
H1049 C1064 0.930 . S
C1050 H1038 0.930 . S
C1050 C1051 1.399 . S
C1050 C1055 1.399 . S
C1051 C1050 1.399 . S
C1051 C1052 1.376 . S
C1052 H1039 0.930 . S
C1052 C1051 1.376 . S
C1052 C1053 1.388 . S
C1053 H1040 0.930 . S
C1053 C1052 1.388 . S
C1053 C1054 1.390 . S
C1054 C1053 1.390 . S
C1054 C1055 1.394 . S
C1054 C1060 1.465 1_556 S
C1055 C1050 1.399 . S
C1055 C1054 1.394 . S
C1055 C1056 1.516 1_556 S
C1056 C1055 1.516 1_554 S
C1056 C1057 1.502 . S
C1056 C1058 1.561 . S
C1056 C1059 1.526 . S
C1057 H1041 0.962 . S
C1057 H1042 0.980 . S
C1057 H1043 0.939 1_554 S
C1057 C1056 1.502 . S
C1058 H1044 0.957 1_554 S
C1058 H1045 0.964 . S
C1058 H1046 0.959 . S
C1058 C1056 1.561 . S
C1059 C1056 1.526 . S
C1059 C1060 1.396 . S
C1059 C1064 1.390 . S
C1060 C1054 1.465 1_554 S
C1060 C1059 1.396 . S
C1060 C1061 1.399 . S
C1061 H1047 0.929 . S
C1061 C1060 1.399 . S
C1061 C1062 1.385 . S
C1062 H1048 0.931 . S
C1062 C1061 1.385 . S
C1062 C1063 1.389 . S
C1063 C1062 1.389 . S
C1063 C1064 1.387 . S
C1064 H1049 0.930 . S
C1064 C1059 1.390 . S
C1064 C1063 1.387 . S
H1065 C1077 0.930 . S
H1066 C1079 0.930 . S
H1067 C1080 0.930 . S
H1068 C1084 0.962 . S
H1069 C1084 0.980 . S
H1070 C1084 0.939 1_554 S
H1071 C1085 0.957 1_554 S
H1072 C1085 0.964 . S
H1073 C1085 0.959 . S
H1074 C1088 0.929 . S
H1075 C1089 0.931 . S
H1076 C1091 0.930 . S
C1077 H1065 0.930 . S
C1077 C1078 1.399 . S
C1077 C1082 1.399 . S
C1078 C1077 1.399 . S
C1078 C1079 1.376 . S
C1079 H1066 0.930 . S
C1079 C1078 1.376 . S
C1079 C1080 1.388 . S
C1080 H1067 0.930 . S
C1080 C1079 1.388 . S
C1080 C1081 1.390 . S
C1081 C1080 1.390 . S
C1081 C1082 1.394 . S
C1081 C1087 1.465 1_554 S
C1082 C1077 1.399 . S
C1082 C1081 1.394 . S
C1082 C1083 1.516 1_554 S
C1083 C1082 1.516 1_556 S
C1083 C1084 1.502 . S
C1083 C1085 1.561 . S
C1083 C1086 1.526 . S
C1084 H1068 0.962 . S
C1084 H1069 0.980 . S
C1084 H1070 0.939 1_556 S
C1084 C1083 1.502 . S
C1085 H1071 0.957 1_556 S
C1085 H1072 0.964 . S
C1085 H1073 0.959 . S
C1085 C1083 1.561 . S
C1086 C1083 1.526 . S
C1086 C1087 1.396 . S
C1086 C1091 1.390 . S
C1087 C1081 1.465 1_556 S
C1087 C1086 1.396 . S
C1087 C1088 1.399 . S
C1088 H1074 0.929 . S
C1088 C1087 1.399 . S
C1088 C1089 1.385 . S
C1089 H1075 0.931 . S
C1089 C1088 1.385 . S
C1089 C1090 1.389 . S
C1090 C1089 1.389 . S
C1090 C1091 1.387 . S
C1091 H1076 0.930 . S
C1091 C1086 1.390 . S
C1091 C1090 1.387 . S
H1092 C1104 0.930 . S
H1093 C1106 0.930 . S
H1094 C1107 0.930 . S
H1095 C1111 0.962 . S
H1096 C1111 0.980 . S
H1097 C1111 0.939 1_554 S
H1098 C1112 0.957 1_554 S
H1099 C1112 0.964 . S
H1100 C1112 0.959 . S
H1101 C1115 0.929 . S
H1102 C1116 0.931 . S
H1103 C1118 0.930 . S
C1104 H1092 0.930 . S
C1104 C1105 1.399 . S
C1104 C1109 1.399 . S
C1105 C1104 1.399 . S
C1105 C1106 1.376 . S
C1106 H1093 0.930 . S
C1106 C1105 1.376 . S
C1106 C1107 1.388 . S
C1107 H1094 0.930 . S
C1107 C1106 1.388 . S
C1107 C1108 1.390 . S
C1108 C1107 1.390 . S
C1108 C1109 1.394 . S
C1108 C1114 1.465 1_554 S
C1109 C1104 1.399 . S
C1109 C1108 1.394 . S
C1109 C1110 1.516 1_554 S
C1110 C1109 1.516 1_556 S
C1110 C1111 1.502 . S
C1110 C1112 1.561 . S
C1110 C1113 1.526 . S
C1111 H1095 0.962 . S
C1111 H1096 0.980 . S
C1111 H1097 0.939 1_556 S
C1111 C1110 1.502 . S
C1112 H1098 0.957 1_556 S
C1112 H1099 0.964 . S
C1112 H1100 0.959 . S
C1112 C1110 1.561 . S
C1113 C1110 1.526 . S
C1113 C1114 1.396 . S
C1113 C1118 1.390 . S
C1114 C1108 1.465 1_556 S
C1114 C1113 1.396 . S
C1114 C1115 1.399 . S
C1115 H1101 0.929 . S
C1115 C1114 1.399 . S
C1115 C1116 1.385 . S
C1116 H1102 0.931 . S
C1116 C1115 1.385 . S
C1116 C1117 1.389 . S
C1117 C1116 1.389 . S
C1117 C1118 1.387 . S
C1118 H1103 0.930 . S
C1118 C1113 1.390 . S
C1118 C1117 1.387 . S
H1119 C1131 0.930 . S
H1120 C1133 0.930 . S
H1121 C1134 0.930 . S
H1122 C1138 0.962 . S
H1123 C1138 0.980 . S
H1124 C1138 0.939 1_556 S
H1125 C1139 0.957 1_556 S
H1126 C1139 0.964 . S
H1127 C1139 0.959 . S
H1128 C1142 0.929 . S
H1129 C1143 0.931 . S
H1130 C1145 0.930 . S
C1131 H1119 0.930 . S
C1131 C1132 1.399 . S
C1131 C1136 1.399 . S
C1132 C1131 1.399 . S
C1132 C1133 1.376 . S
C1133 H1120 0.930 . S
C1133 C1132 1.376 . S
C1133 C1134 1.388 . S
C1134 H1121 0.930 . S
C1134 C1133 1.388 . S
C1134 C1135 1.390 . S
C1135 C1134 1.390 . S
C1135 C1136 1.394 . S
C1135 C1141 1.465 1_556 S
C1136 C1131 1.399 . S
C1136 C1135 1.394 . S
C1136 C1137 1.516 1_556 S
C1137 C1136 1.516 1_554 S
C1137 C1138 1.502 . S
C1137 C1139 1.561 . S
C1137 C1140 1.526 . S
C1138 H1122 0.962 . S
C1138 H1123 0.980 . S
C1138 H1124 0.939 1_554 S
C1138 C1137 1.502 . S
C1139 H1125 0.957 1_554 S
C1139 H1126 0.964 . S
C1139 H1127 0.959 . S
C1139 C1137 1.561 . S
C1140 C1137 1.526 . S
C1140 C1141 1.396 . S
C1140 C1145 1.390 . S
C1141 C1135 1.465 1_554 S
C1141 C1140 1.396 . S
C1141 C1142 1.399 . S
C1142 H1128 0.929 . S
C1142 C1141 1.399 . S
C1142 C1143 1.385 . S
C1143 H1129 0.931 . S
C1143 C1142 1.385 . S
C1143 C1144 1.389 . S
C1144 C1143 1.389 . S
C1144 C1145 1.387 . S
C1145 H1130 0.930 . S
C1145 C1140 1.390 . S
C1145 C1144 1.387 . S
H1146 C1158 0.930 . S
H1147 C1160 0.930 . S
H1148 C1161 0.930 . S
H1149 C1165 0.959 . S
H1150 C1165 0.959 . S
H1151 C1165 0.961 . S
H1152 C1166 0.960 . S
H1153 C1166 0.961 . S
H1154 C1166 0.959 . S
H1155 C1169 0.929 . S
H1156 C1170 0.931 . S
H1157 C1172 0.930 . S
C1158 H1146 0.930 . S
C1158 C1159 1.399 . S
C1158 C1163 1.399 . S
C1159 C1158 1.399 . S
C1159 C1160 1.376 . S
C1160 H1147 0.930 . S
C1160 C1159 1.376 . S
C1160 C1161 1.388 . S
C1161 H1148 0.930 . S
C1161 C1160 1.388 . S
C1161 C1162 1.390 . S
C1162 C1161 1.390 . S
C1162 C1163 1.394 . S
C1162 C1168 1.465 . S
C1163 C1158 1.399 . S
C1163 C1162 1.394 . S
C1163 C1164 1.516 . S
C1164 C1163 1.516 . S
C1164 C1165 1.502 . S
C1164 C1166 1.561 . S
C1164 C1167 1.526 . S
C1165 H1149 0.959 . S
C1165 H1150 0.959 . S
C1165 H1151 0.961 . S
C1165 C1164 1.502 . S
C1166 H1152 0.960 . S
C1166 H1153 0.961 . S
C1166 H1154 0.959 . S
C1166 C1164 1.561 . S
C1167 C1164 1.526 . S
C1167 C1168 1.396 . S
C1167 C1172 1.390 . S
C1168 C1162 1.465 . S
C1168 C1167 1.396 . S
C1168 C1169 1.399 . S
C1169 H1155 0.929 . S
C1169 C1168 1.399 . S
C1169 C1170 1.385 . S
C1170 H1156 0.931 . S
C1170 C1169 1.385 . S
C1170 C1171 1.389 . S
C1171 C1170 1.389 . S
C1171 C1172 1.387 . S
C1172 H1157 0.930 . S
C1172 C1167 1.390 . S
C1172 C1171 1.387 . S
H1173 C1185 0.930 . S
H1174 C1187 0.930 . S
H1175 C1188 0.930 . S
H1176 C1192 0.959 . S
H1177 C1192 0.959 . S
H1178 C1192 0.961 . S
H1179 C1193 0.960 . S
H1180 C1193 0.961 . S
H1181 C1193 0.959 . S
H1182 C1196 0.929 . S
H1183 C1197 0.931 . S
H1184 C1199 0.930 . S
C1185 H1173 0.930 . S
C1185 C1186 1.399 . S
C1185 C1190 1.399 . S
C1186 C1185 1.399 . S
C1186 C1187 1.376 . S
C1187 H1174 0.930 . S
C1187 C1186 1.376 . S
C1187 C1188 1.388 . S
C1188 H1175 0.930 . S
C1188 C1187 1.388 . S
C1188 C1189 1.390 . S
C1189 C1188 1.390 . S
C1189 C1190 1.394 . S
C1189 C1195 1.465 . S
C1190 C1185 1.399 . S
C1190 C1189 1.394 . S
C1190 C1191 1.516 . S
C1191 C1190 1.516 . S
C1191 C1192 1.502 . S
C1191 C1193 1.561 . S
C1191 C1194 1.526 . S
C1192 H1176 0.959 . S
C1192 H1177 0.959 . S
C1192 H1178 0.961 . S
C1192 C1191 1.502 . S
C1193 H1179 0.960 . S
C1193 H1180 0.961 . S
C1193 H1181 0.959 . S
C1193 C1191 1.561 . S
C1194 C1191 1.526 . S
C1194 C1195 1.396 . S
C1194 C1199 1.390 . S
C1195 C1189 1.465 . S
C1195 C1194 1.396 . S
C1195 C1196 1.399 . S
C1196 H1182 0.929 . S
C1196 C1195 1.399 . S
C1196 C1197 1.385 . S
C1197 H1183 0.931 . S
C1197 C1196 1.385 . S
C1197 C1198 1.389 . S
C1198 C1197 1.389 . S
C1198 C1199 1.387 . S
C1199 H1184 0.930 . S
C1199 C1194 1.390 . S
C1199 C1198 1.387 . S
H1200 C1212 0.930 . S
H1201 C1214 0.930 . S
H1202 C1215 0.930 . S
H1203 C1219 0.959 . S
H1204 C1219 0.959 . S
H1205 C1219 0.961 . S
H1206 C1220 0.960 . S
H1207 C1220 0.961 . S
H1208 C1220 0.959 . S
H1209 C1223 0.929 . S
H1210 C1224 0.931 . S
H1211 C1226 0.930 . S
C1212 H1200 0.930 . S
C1212 C1213 1.399 . S
C1212 C1217 1.399 . S
C1213 C1212 1.399 . S
C1213 C1214 1.376 . S
C1214 H1201 0.930 . S
C1214 C1213 1.376 . S
C1214 C1215 1.388 . S
C1215 H1202 0.930 . S
C1215 C1214 1.388 . S
C1215 C1216 1.390 . S
C1216 C1215 1.390 . S
C1216 C1217 1.394 . S
C1216 C1222 1.465 . S
C1217 C1212 1.399 . S
C1217 C1216 1.394 . S
C1217 C1218 1.516 . S
C1218 C1217 1.516 . S
C1218 C1219 1.502 . S
C1218 C1220 1.561 . S
C1218 C1221 1.526 . S
C1219 H1203 0.959 . S
C1219 H1204 0.959 . S
C1219 H1205 0.961 . S
C1219 C1218 1.502 . S
C1220 H1206 0.960 . S
C1220 H1207 0.961 . S
C1220 H1208 0.959 . S
C1220 C1218 1.561 . S
C1221 C1218 1.526 . S
C1221 C1222 1.396 . S
C1221 C1226 1.390 . S
C1222 C1216 1.465 . S
C1222 C1221 1.396 . S
C1222 C1223 1.399 . S
C1223 H1209 0.929 . S
C1223 C1222 1.399 . S
C1223 C1224 1.385 . S
C1224 H1210 0.931 . S
C1224 C1223 1.385 . S
C1224 C1225 1.389 . S
C1225 C1224 1.389 . S
C1225 C1226 1.387 . S
C1226 H1211 0.930 . S
C1226 C1221 1.390 . S
C1226 C1225 1.387 . S
H1227 C1239 0.930 . S
H1228 C1241 0.930 . S
H1229 C1242 0.930 . S
H1230 C1246 0.959 . S
H1231 C1246 0.959 . S
H1232 C1246 0.961 . S
H1233 C1247 0.960 . S
H1234 C1247 0.961 . S
H1235 C1247 0.959 . S
H1236 C1250 0.929 . S
H1237 C1251 0.931 . S
H1238 C1253 0.930 . S
C1239 H1227 0.930 . S
C1239 C1240 1.399 . S
C1239 C1244 1.399 . S
C1240 C1239 1.399 . S
C1240 C1241 1.376 . S
C1241 H1228 0.930 . S
C1241 C1240 1.376 . S
C1241 C1242 1.388 . S
C1242 H1229 0.930 . S
C1242 C1241 1.388 . S
C1242 C1243 1.390 . S
C1243 C1242 1.390 . S
C1243 C1244 1.394 . S
C1243 C1249 1.465 . S
C1244 C1239 1.399 . S
C1244 C1243 1.394 . S
C1244 C1245 1.516 . S
C1245 C1244 1.516 . S
C1245 C1246 1.502 . S
C1245 C1247 1.561 . S
C1245 C1248 1.526 . S
C1246 H1230 0.959 . S
C1246 H1231 0.959 . S
C1246 H1232 0.961 . S
C1246 C1245 1.502 . S
C1247 H1233 0.960 . S
C1247 H1234 0.961 . S
C1247 H1235 0.959 . S
C1247 C1245 1.561 . S
C1248 C1245 1.526 . S
C1248 C1249 1.396 . S
C1248 C1253 1.390 . S
C1249 C1243 1.465 . S
C1249 C1248 1.396 . S
C1249 C1250 1.399 . S
C1250 H1236 0.929 . S
C1250 C1249 1.399 . S
C1250 C1251 1.385 . S
C1251 H1237 0.931 . S
C1251 C1250 1.385 . S
C1251 C1252 1.389 . S
C1252 C1251 1.389 . S
C1252 C1253 1.387 . S
C1253 H1238 0.930 . S
C1253 C1248 1.390 . S
C1253 C1252 1.387 . S
H1254 C1266 0.930 . S
H1255 C1268 0.930 . S
H1256 C1269 0.930 . S
H1257 C1273 0.959 . S
H1258 C1273 0.959 . S
H1259 C1273 0.961 . S
H1260 C1274 0.960 . S
H1261 C1274 0.961 . S
H1262 C1274 0.959 . S
H1263 C1277 0.929 . S
H1264 C1278 0.931 . S
H1265 C1280 0.930 . S
C1266 H1254 0.930 . S
C1266 C1267 1.399 . S
C1266 C1271 1.399 . S
C1267 C1266 1.399 . S
C1267 C1268 1.376 . S
C1268 H1255 0.930 . S
C1268 C1267 1.376 . S
C1268 C1269 1.388 . S
C1269 H1256 0.930 . S
C1269 C1268 1.388 . S
C1269 C1270 1.390 . S
C1270 C1269 1.390 . S
C1270 C1271 1.394 . S
C1270 C1276 1.465 . S
C1271 C1266 1.399 . S
C1271 C1270 1.394 . S
C1271 C1272 1.516 . S
C1272 C1271 1.516 . S
C1272 C1273 1.502 . S
C1272 C1274 1.561 . S
C1272 C1275 1.526 . S
C1273 H1257 0.959 . S
C1273 H1258 0.959 . S
C1273 H1259 0.961 . S
C1273 C1272 1.502 . S
C1274 H1260 0.960 . S
C1274 H1261 0.961 . S
C1274 H1262 0.959 . S
C1274 C1272 1.561 . S
C1275 C1272 1.526 . S
C1275 C1276 1.396 . S
C1275 C1280 1.390 . S
C1276 C1270 1.465 . S
C1276 C1275 1.396 . S
C1276 C1277 1.399 . S
C1277 H1263 0.929 . S
C1277 C1276 1.399 . S
C1277 C1278 1.385 . S
C1278 H1264 0.931 . S
C1278 C1277 1.385 . S
C1278 C1279 1.389 . S
C1279 C1278 1.389 . S
C1279 C1280 1.387 . S
C1280 H1265 0.930 . S
C1280 C1275 1.390 . S
C1280 C1279 1.387 . S
H1281 C1293 0.930 . S
H1282 C1295 0.930 . S
H1283 C1296 0.930 . S
H1284 C1300 0.959 . S
H1285 C1300 0.959 . S
H1286 C1300 0.961 . S
H1287 C1301 0.960 . S
H1288 C1301 0.961 . S
H1289 C1301 0.959 . S
H1290 C1304 0.929 . S
H1291 C1305 0.931 . S
H1292 C1307 0.930 . S
C1293 H1281 0.930 . S
C1293 C1294 1.399 . S
C1293 C1298 1.399 . S
C1294 C1293 1.399 . S
C1294 C1295 1.376 . S
C1295 H1282 0.930 . S
C1295 C1294 1.376 . S
C1295 C1296 1.388 . S
C1296 H1283 0.930 . S
C1296 C1295 1.388 . S
C1296 C1297 1.390 . S
C1297 C1296 1.390 . S
C1297 C1298 1.394 . S
C1297 C1303 1.465 . S
C1298 C1293 1.399 . S
C1298 C1297 1.394 . S
C1298 C1299 1.516 . S
C1299 C1298 1.516 . S
C1299 C1300 1.502 . S
C1299 C1301 1.561 . S
C1299 C1302 1.526 . S
C1300 H1284 0.959 . S
C1300 H1285 0.959 . S
C1300 H1286 0.961 . S
C1300 C1299 1.502 . S
C1301 H1287 0.960 . S
C1301 H1288 0.961 . S
C1301 H1289 0.959 . S
C1301 C1299 1.561 . S
C1302 C1299 1.526 . S
C1302 C1303 1.396 . S
C1302 C1307 1.390 . S
C1303 C1297 1.465 . S
C1303 C1302 1.396 . S
C1303 C1304 1.399 . S
C1304 H1290 0.929 . S
C1304 C1303 1.399 . S
C1304 C1305 1.385 . S
C1305 H1291 0.931 . S
C1305 C1304 1.385 . S
C1305 C1306 1.389 . S
C1306 C1305 1.389 . S
C1306 C1307 1.387 . S
C1307 H1292 0.930 . S
C1307 C1302 1.390 . S
C1307 C1306 1.387 . S
H1308 C1320 0.930 . S
H1309 C1322 0.930 . S
H1310 C1323 0.930 . S
H1311 C1327 0.959 . S
H1312 C1327 0.959 . S
H1313 C1327 0.961 . S
H1314 C1328 0.960 . S
H1315 C1328 0.961 . S
H1316 C1328 0.959 . S
H1317 C1331 0.929 . S
H1318 C1332 0.931 . S
H1319 C1334 0.930 . S
C1320 H1308 0.930 . S
C1320 C1321 1.399 . S
C1320 C1325 1.399 . S
C1321 C1320 1.399 . S
C1321 C1322 1.376 . S
C1322 H1309 0.930 . S
C1322 C1321 1.376 . S
C1322 C1323 1.388 . S
C1323 H1310 0.930 . S
C1323 C1322 1.388 . S
C1323 C1324 1.390 . S
C1324 C1323 1.390 . S
C1324 C1325 1.394 . S
C1324 C1330 1.465 . S
C1325 C1320 1.399 . S
C1325 C1324 1.394 . S
C1325 C1326 1.516 . S
C1326 C1325 1.516 . S
C1326 C1327 1.502 . S
C1326 C1328 1.561 . S
C1326 C1329 1.526 . S
C1327 H1311 0.959 . S
C1327 H1312 0.959 . S
C1327 H1313 0.961 . S
C1327 C1326 1.502 . S
C1328 H1314 0.960 . S
C1328 H1315 0.961 . S
C1328 H1316 0.959 . S
C1328 C1326 1.561 . S
C1329 C1326 1.526 . S
C1329 C1330 1.396 . S
C1329 C1334 1.390 . S
C1330 C1324 1.465 . S
C1330 C1329 1.396 . S
C1330 C1331 1.399 . S
C1331 H1317 0.929 . S
C1331 C1330 1.399 . S
C1331 C1332 1.385 . S
C1332 H1318 0.931 . S
C1332 C1331 1.385 . S
C1332 C1333 1.389 . S
C1333 C1332 1.389 . S
C1333 C1334 1.387 . S
C1334 H1319 0.930 . S
C1334 C1329 1.390 . S
C1334 C1333 1.387 . S
H1335 C1347 0.930 . S
H1336 C1349 0.930 . S
H1337 C1350 0.930 . S
H1338 C1354 0.959 . S
H1339 C1354 0.959 . S
H1340 C1354 0.961 . S
H1341 C1355 0.960 . S
H1342 C1355 0.961 . S
H1343 C1355 0.959 . S
H1344 C1358 0.929 . S
H1345 C1359 0.931 . S
H1346 C1361 0.930 . S
C1347 H1335 0.930 . S
C1347 C1348 1.399 . S
C1347 C1352 1.399 . S
C1348 C1347 1.399 . S
C1348 C1349 1.376 . S
C1349 H1336 0.930 . S
C1349 C1348 1.376 . S
C1349 C1350 1.388 . S
C1350 H1337 0.930 . S
C1350 C1349 1.388 . S
C1350 C1351 1.390 . S
C1351 C1350 1.390 . S
C1351 C1352 1.394 . S
C1351 C1357 1.465 . S
C1352 C1347 1.399 . S
C1352 C1351 1.394 . S
C1352 C1353 1.516 . S
C1353 C1352 1.516 . S
C1353 C1354 1.502 . S
C1353 C1355 1.561 . S
C1353 C1356 1.526 . S
C1354 H1338 0.959 . S
C1354 H1339 0.959 . S
C1354 H1340 0.961 . S
C1354 C1353 1.502 . S
C1355 H1341 0.960 . S
C1355 H1342 0.961 . S
C1355 H1343 0.959 . S
C1355 C1353 1.561 . S
C1356 C1353 1.526 . S
C1356 C1357 1.396 . S
C1356 C1361 1.390 . S
C1357 C1351 1.465 . S
C1357 C1356 1.396 . S
C1357 C1358 1.399 . S
C1358 H1344 0.929 . S
C1358 C1357 1.399 . S
C1358 C1359 1.385 . S
C1359 H1345 0.931 . S
C1359 C1358 1.385 . S
C1359 C1360 1.389 . S
C1360 C1359 1.389 . S
C1360 C1361 1.387 . S
C1361 H1346 0.930 . S
C1361 C1356 1.390 . S
C1361 C1360 1.387 . S
H1362 C1374 0.930 . S
H1363 C1376 0.930 . S
H1364 C1377 0.930 . S
H1365 C1381 0.959 . S
H1366 C1381 0.959 . S
H1367 C1381 0.961 . S
H1368 C1382 0.960 . S
H1369 C1382 0.961 . S
H1370 C1382 0.959 . S
H1371 C1385 0.929 . S
H1372 C1386 0.931 . S
H1373 C1388 0.930 . S
C1374 H1362 0.930 . S
C1374 C1375 1.399 . S
C1374 C1379 1.399 . S
C1375 C1374 1.399 . S
C1375 C1376 1.376 . S
C1376 H1363 0.930 . S
C1376 C1375 1.376 . S
C1376 C1377 1.388 . S
C1377 H1364 0.930 . S
C1377 C1376 1.388 . S
C1377 C1378 1.390 . S
C1378 C1377 1.390 . S
C1378 C1379 1.394 . S
C1378 C1384 1.465 . S
C1379 C1374 1.399 . S
C1379 C1378 1.394 . S
C1379 C1380 1.516 . S
C1380 C1379 1.516 . S
C1380 C1381 1.502 . S
C1380 C1382 1.561 . S
C1380 C1383 1.526 . S
C1381 H1365 0.959 . S
C1381 H1366 0.959 . S
C1381 H1367 0.961 . S
C1381 C1380 1.502 . S
C1382 H1368 0.960 . S
C1382 H1369 0.961 . S
C1382 H1370 0.959 . S
C1382 C1380 1.561 . S
C1383 C1380 1.526 . S
C1383 C1384 1.396 . S
C1383 C1388 1.390 . S
C1384 C1378 1.465 . S
C1384 C1383 1.396 . S
C1384 C1385 1.399 . S
C1385 H1371 0.929 . S
C1385 C1384 1.399 . S
C1385 C1386 1.385 . S
C1386 H1372 0.931 . S
C1386 C1385 1.385 . S
C1386 C1387 1.389 . S
C1387 C1386 1.389 . S
C1387 C1388 1.387 . S
C1388 H1373 0.930 . S
C1388 C1383 1.390 . S
C1388 C1387 1.387 . S
H1389 C1401 0.930 . S
H1390 C1403 0.930 . S
H1391 C1404 0.930 . S
H1392 C1408 0.959 . S
H1393 C1408 0.959 . S
H1394 C1408 0.961 . S
H1395 C1409 0.960 . S
H1396 C1409 0.961 . S
H1397 C1409 0.959 . S
H1398 C1412 0.929 . S
H1399 C1413 0.931 . S
H1400 C1415 0.930 . S
C1401 H1389 0.930 . S
C1401 C1402 1.399 . S
C1401 C1406 1.399 . S
C1402 C1401 1.399 . S
C1402 C1403 1.376 . S
C1403 H1390 0.930 . S
C1403 C1402 1.376 . S
C1403 C1404 1.388 . S
C1404 H1391 0.930 . S
C1404 C1403 1.388 . S
C1404 C1405 1.390 . S
C1405 C1404 1.390 . S
C1405 C1406 1.394 . S
C1405 C1411 1.465 . S
C1406 C1401 1.399 . S
C1406 C1405 1.394 . S
C1406 C1407 1.516 . S
C1407 C1406 1.516 . S
C1407 C1408 1.502 . S
C1407 C1409 1.561 . S
C1407 C1410 1.526 . S
C1408 H1392 0.959 . S
C1408 H1393 0.959 . S
C1408 H1394 0.961 . S
C1408 C1407 1.502 . S
C1409 H1395 0.960 . S
C1409 H1396 0.961 . S
C1409 H1397 0.959 . S
C1409 C1407 1.561 . S
C1410 C1407 1.526 . S
C1410 C1411 1.396 . S
C1410 C1415 1.390 . S
C1411 C1405 1.465 . S
C1411 C1410 1.396 . S
C1411 C1412 1.399 . S
C1412 H1398 0.929 . S
C1412 C1411 1.399 . S
C1412 C1413 1.385 . S
C1413 H1399 0.931 . S
C1413 C1412 1.385 . S
C1413 C1414 1.389 . S
C1414 C1413 1.389 . S
C1414 C1415 1.387 . S
C1415 H1400 0.930 . S
C1415 C1410 1.390 . S
C1415 C1414 1.387 . S
H1416 C1428 0.930 . S
H1417 C1430 0.930 . S
H1418 C1431 0.930 . S
H1419 C1435 0.959 . S
H1420 C1435 0.959 . S
H1421 C1435 0.961 . S
H1422 C1436 0.960 . S
H1423 C1436 0.961 . S
H1424 C1436 0.959 . S
H1425 C1439 0.929 . S
H1426 C1440 0.931 . S
H1427 C1442 0.930 . S
C1428 H1416 0.930 . S
C1428 C1429 1.399 . S
C1428 C1433 1.399 . S
C1429 C1428 1.399 . S
C1429 C1430 1.376 . S
C1430 H1417 0.930 . S
C1430 C1429 1.376 . S
C1430 C1431 1.388 . S
C1431 H1418 0.930 . S
C1431 C1430 1.388 . S
C1431 C1432 1.390 . S
C1432 C1431 1.390 . S
C1432 C1433 1.394 . S
C1432 C1438 1.465 . S
C1433 C1428 1.399 . S
C1433 C1432 1.394 . S
C1433 C1434 1.516 . S
C1434 C1433 1.516 . S
C1434 C1435 1.502 . S
C1434 C1436 1.561 . S
C1434 C1437 1.526 . S
C1435 H1419 0.959 . S
C1435 H1420 0.959 . S
C1435 H1421 0.961 . S
C1435 C1434 1.502 . S
C1436 H1422 0.960 . S
C1436 H1423 0.961 . S
C1436 H1424 0.959 . S
C1436 C1434 1.561 . S
C1437 C1434 1.526 . S
C1437 C1438 1.396 . S
C1437 C1442 1.390 . S
C1438 C1432 1.465 . S
C1438 C1437 1.396 . S
C1438 C1439 1.399 . S
C1439 H1425 0.929 . S
C1439 C1438 1.399 . S
C1439 C1440 1.385 . S
C1440 H1426 0.931 . S
C1440 C1439 1.385 . S
C1440 C1441 1.389 . S
C1441 C1440 1.389 . S
C1441 C1442 1.387 . S
C1442 H1427 0.930 . S
C1442 C1437 1.390 . S
C1442 C1441 1.387 . S
H1443 C1455 0.930 . S
H1444 C1457 0.930 . S
H1445 C1458 0.930 . S
H1446 C1462 0.959 . S
H1447 C1462 0.959 . S
H1448 C1462 0.961 . S
H1449 C1463 0.960 . S
H1450 C1463 0.961 . S
H1451 C1463 0.959 . S
H1452 C1466 0.929 . S
H1453 C1467 0.931 . S
H1454 C1469 0.930 . S
C1455 H1443 0.930 . S
C1455 C1456 1.399 . S
C1455 C1460 1.399 . S
C1456 C1455 1.399 . S
C1456 C1457 1.376 . S
C1457 H1444 0.930 . S
C1457 C1456 1.376 . S
C1457 C1458 1.388 . S
C1458 H1445 0.930 . S
C1458 C1457 1.388 . S
C1458 C1459 1.390 . S
C1459 C1458 1.390 . S
C1459 C1460 1.394 . S
C1459 C1465 1.465 . S
C1460 C1455 1.399 . S
C1460 C1459 1.394 . S
C1460 C1461 1.516 . S
C1461 C1460 1.516 . S
C1461 C1462 1.502 . S
C1461 C1463 1.561 . S
C1461 C1464 1.526 . S
C1462 H1446 0.959 . S
C1462 H1447 0.959 . S
C1462 H1448 0.961 . S
C1462 C1461 1.502 . S
C1463 H1449 0.960 . S
C1463 H1450 0.961 . S
C1463 H1451 0.959 . S
C1463 C1461 1.561 . S
C1464 C1461 1.526 . S
C1464 C1465 1.396 . S
C1464 C1469 1.390 . S
C1465 C1459 1.465 . S
C1465 C1464 1.396 . S
C1465 C1466 1.399 . S
C1466 H1452 0.929 . S
C1466 C1465 1.399 . S
C1466 C1467 1.385 . S
C1467 H1453 0.931 . S
C1467 C1466 1.385 . S
C1467 C1468 1.389 . S
C1468 C1467 1.389 . S
C1468 C1469 1.387 . S
C1469 H1454 0.930 . S
C1469 C1464 1.390 . S
C1469 C1468 1.387 . S
H1470 C1482 0.930 . S
H1471 C1484 0.930 . S
H1472 C1485 0.930 . S
H1473 C1489 0.959 . S
H1474 C1489 0.959 . S
H1475 C1489 0.961 . S
H1476 C1490 0.960 . S
H1477 C1490 0.961 . S
H1478 C1490 0.959 . S
H1479 C1493 0.929 . S
H1480 C1494 0.931 . S
H1481 C1496 0.930 . S
C1482 H1470 0.930 . S
C1482 C1483 1.399 . S
C1482 C1487 1.399 . S
C1483 C1482 1.399 . S
C1483 C1484 1.376 . S
C1484 H1471 0.930 . S
C1484 C1483 1.376 . S
C1484 C1485 1.388 . S
C1485 H1472 0.930 . S
C1485 C1484 1.388 . S
C1485 C1486 1.390 . S
C1486 C1485 1.390 . S
C1486 C1487 1.394 . S
C1486 C1492 1.465 . S
C1487 C1482 1.399 . S
C1487 C1486 1.394 . S
C1487 C1488 1.516 . S
C1488 C1487 1.516 . S
C1488 C1489 1.502 . S
C1488 C1490 1.561 . S
C1488 C1491 1.526 . S
C1489 H1473 0.959 . S
C1489 H1474 0.959 . S
C1489 H1475 0.961 . S
C1489 C1488 1.502 . S
C1490 H1476 0.960 . S
C1490 H1477 0.961 . S
C1490 H1478 0.959 . S
C1490 C1488 1.561 . S
C1491 C1488 1.526 . S
C1491 C1492 1.396 . S
C1491 C1496 1.390 . S
C1492 C1486 1.465 . S
C1492 C1491 1.396 . S
C1492 C1493 1.399 . S
C1493 H1479 0.929 . S
C1493 C1492 1.399 . S
C1493 C1494 1.385 . S
C1494 H1480 0.931 . S
C1494 C1493 1.385 . S
C1494 C1495 1.389 . S
C1495 C1494 1.389 . S
C1495 C1496 1.387 . S
C1496 H1481 0.930 . S
C1496 C1491 1.390 . S
C1496 C1495 1.387 . S
H1497 C1509 0.930 . S
H1498 C1511 0.930 . S
H1499 C1512 0.930 . S
H1500 C1516 0.959 . S
H1501 C1516 0.959 . S
H1502 C1516 0.961 . S
H1503 C1517 0.960 . S
H1504 C1517 0.961 . S
H1505 C1517 0.959 . S
H1506 C1520 0.929 . S
H1507 C1521 0.931 . S
H1508 C1523 0.930 . S
C1509 H1497 0.930 . S
C1509 C1510 1.399 . S
C1509 C1514 1.399 . S
C1510 C1509 1.399 . S
C1510 C1511 1.376 . S
C1511 H1498 0.930 . S
C1511 C1510 1.376 . S
C1511 C1512 1.388 . S
C1512 H1499 0.930 . S
C1512 C1511 1.388 . S
C1512 C1513 1.390 . S
C1513 C1512 1.390 . S
C1513 C1514 1.394 . S
C1513 C1519 1.465 . S
C1514 C1509 1.399 . S
C1514 C1513 1.394 . S
C1514 C1515 1.516 . S
C1515 C1514 1.516 . S
C1515 C1516 1.502 . S
C1515 C1517 1.561 . S
C1515 C1518 1.526 . S
C1516 H1500 0.959 . S
C1516 H1501 0.959 . S
C1516 H1502 0.961 . S
C1516 C1515 1.502 . S
C1517 H1503 0.960 . S
C1517 H1504 0.961 . S
C1517 H1505 0.959 . S
C1517 C1515 1.561 . S
C1518 C1515 1.526 . S
C1518 C1519 1.396 . S
C1518 C1523 1.390 . S
C1519 C1513 1.465 . S
C1519 C1518 1.396 . S
C1519 C1520 1.399 . S
C1520 H1506 0.929 . S
C1520 C1519 1.399 . S
C1520 C1521 1.385 . S
C1521 H1507 0.931 . S
C1521 C1520 1.385 . S
C1521 C1522 1.389 . S
C1522 C1521 1.389 . S
C1522 C1523 1.387 . S
C1523 H1508 0.930 . S
C1523 C1518 1.390 . S
C1523 C1522 1.387 . S
H1524 C1536 0.930 . S
H1525 C1538 0.930 . S
H1526 C1539 0.930 . S
H1527 C1543 0.959 . S
H1528 C1543 0.959 . S
H1529 C1543 0.961 . S
H1530 C1544 0.960 . S
H1531 C1544 0.961 . S
H1532 C1544 0.959 . S
H1533 C1547 0.929 . S
H1534 C1548 0.931 . S
H1535 C1550 0.930 . S
C1536 H1524 0.930 . S
C1536 C1537 1.399 . S
C1536 C1541 1.399 . S
C1537 C1536 1.399 . S
C1537 C1538 1.376 . S
C1538 H1525 0.930 . S
C1538 C1537 1.376 . S
C1538 C1539 1.388 . S
C1539 H1526 0.930 . S
C1539 C1538 1.388 . S
C1539 C1540 1.390 . S
C1540 C1539 1.390 . S
C1540 C1541 1.394 . S
C1540 C1546 1.465 . S
C1541 C1536 1.399 . S
C1541 C1540 1.394 . S
C1541 C1542 1.516 . S
C1542 C1541 1.516 . S
C1542 C1543 1.502 . S
C1542 C1544 1.561 . S
C1542 C1545 1.526 . S
C1543 H1527 0.959 . S
C1543 H1528 0.959 . S
C1543 H1529 0.961 . S
C1543 C1542 1.502 . S
C1544 H1530 0.960 . S
C1544 H1531 0.961 . S
C1544 H1532 0.959 . S
C1544 C1542 1.561 . S
C1545 C1542 1.526 . S
C1545 C1546 1.396 . S
C1545 C1550 1.390 . S
C1546 C1540 1.465 . S
C1546 C1545 1.396 . S
C1546 C1547 1.399 . S
C1547 H1533 0.929 . S
C1547 C1546 1.399 . S
C1547 C1548 1.385 . S
C1548 H1534 0.931 . S
C1548 C1547 1.385 . S
C1548 C1549 1.389 . S
C1549 C1548 1.389 . S
C1549 C1550 1.387 . S
C1550 H1535 0.930 . S
C1550 C1545 1.390 . S
C1550 C1549 1.387 . S
H1551 C1563 0.930 . S
H1552 C1565 0.930 . S
H1553 C1566 0.930 . S
H1554 C1570 0.959 . S
H1555 C1570 0.959 . S
H1556 C1570 0.961 . S
H1557 C1571 0.960 . S
H1558 C1571 0.961 . S
H1559 C1571 0.959 . S
H1560 C1574 0.929 . S
H1561 C1575 0.931 . S
H1562 C1577 0.930 . S
C1563 H1551 0.930 . S
C1563 C1564 1.399 . S
C1563 C1568 1.399 . S
C1564 C1563 1.399 . S
C1564 C1565 1.376 . S
C1565 H1552 0.930 . S
C1565 C1564 1.376 . S
C1565 C1566 1.388 . S
C1566 H1553 0.930 . S
C1566 C1565 1.388 . S
C1566 C1567 1.390 . S
C1567 C1566 1.390 . S
C1567 C1568 1.394 . S
C1567 C1573 1.465 . S
C1568 C1563 1.399 . S
C1568 C1567 1.394 . S
C1568 C1569 1.516 . S
C1569 C1568 1.516 . S
C1569 C1570 1.502 . S
C1569 C1571 1.561 . S
C1569 C1572 1.526 . S
C1570 H1554 0.959 . S
C1570 H1555 0.959 . S
C1570 H1556 0.961 . S
C1570 C1569 1.502 . S
C1571 H1557 0.960 . S
C1571 H1558 0.961 . S
C1571 H1559 0.959 . S
C1571 C1569 1.561 . S
C1572 C1569 1.526 . S
C1572 C1573 1.396 . S
C1572 C1577 1.390 . S
C1573 C1567 1.465 . S
C1573 C1572 1.396 . S
C1573 C1574 1.399 . S
C1574 H1560 0.929 . S
C1574 C1573 1.399 . S
C1574 C1575 1.385 . S
C1575 H1561 0.931 . S
C1575 C1574 1.385 . S
C1575 C1576 1.389 . S
C1576 C1575 1.389 . S
C1576 C1577 1.387 . S
C1577 H1562 0.930 . S
C1577 C1572 1.390 . S
C1577 C1576 1.387 . S
H1578 C1590 0.930 . S
H1579 C1592 0.930 . S
H1580 C1593 0.930 . S
H1581 C1597 0.959 . S
H1582 C1597 0.959 . S
H1583 C1597 0.961 . S
H1584 C1598 0.960 . S
H1585 C1598 0.961 . S
H1586 C1598 0.959 . S
H1587 C1601 0.929 . S
H1588 C1602 0.931 . S
H1589 C1604 0.930 . S
C1590 H1578 0.930 . S
C1590 C1591 1.399 . S
C1590 C1595 1.399 . S
C1591 C1590 1.399 . S
C1591 C1592 1.376 . S
C1592 H1579 0.930 . S
C1592 C1591 1.376 . S
C1592 C1593 1.388 . S
C1593 H1580 0.930 . S
C1593 C1592 1.388 . S
C1593 C1594 1.390 . S
C1594 C1593 1.390 . S
C1594 C1595 1.394 . S
C1594 C1600 1.465 . S
C1595 C1590 1.399 . S
C1595 C1594 1.394 . S
C1595 C1596 1.516 . S
C1596 C1595 1.516 . S
C1596 C1597 1.502 . S
C1596 C1598 1.561 . S
C1596 C1599 1.526 . S
C1597 H1581 0.959 . S
C1597 H1582 0.959 . S
C1597 H1583 0.961 . S
C1597 C1596 1.502 . S
C1598 H1584 0.960 . S
C1598 H1585 0.961 . S
C1598 H1586 0.959 . S
C1598 C1596 1.561 . S
C1599 C1596 1.526 . S
C1599 C1600 1.396 . S
C1599 C1604 1.390 . S
C1600 C1594 1.465 . S
C1600 C1599 1.396 . S
C1600 C1601 1.399 . S
C1601 H1587 0.929 . S
C1601 C1600 1.399 . S
C1601 C1602 1.385 . S
C1602 H1588 0.931 . S
C1602 C1601 1.385 . S
C1602 C1603 1.389 . S
C1603 C1602 1.389 . S
C1603 C1604 1.387 . S
C1604 H1589 0.930 . S
C1604 C1599 1.390 . S
C1604 C1603 1.387 . S
H1605 C1617 0.930 . S
H1606 C1619 0.930 . S
H1607 C1620 0.930 . S
H1608 C1624 0.959 . S
H1609 C1624 0.959 . S
H1610 C1624 0.961 . S
H1611 C1625 0.960 . S
H1612 C1625 0.961 . S
H1613 C1625 0.959 . S
H1614 C1628 0.929 . S
H1615 C1629 0.931 . S
H1616 C1631 0.930 . S
C1617 H1605 0.930 . S
C1617 C1618 1.399 . S
C1617 C1622 1.399 . S
C1618 C1617 1.399 . S
C1618 C1619 1.376 . S
C1619 H1606 0.930 . S
C1619 C1618 1.376 . S
C1619 C1620 1.388 . S
C1620 H1607 0.930 . S
C1620 C1619 1.388 . S
C1620 C1621 1.390 . S
C1621 C1620 1.390 . S
C1621 C1622 1.394 . S
C1621 C1627 1.465 . S
C1622 C1617 1.399 . S
C1622 C1621 1.394 . S
C1622 C1623 1.516 . S
C1623 C1622 1.516 . S
C1623 C1624 1.502 . S
C1623 C1625 1.561 . S
C1623 C1626 1.526 . S
C1624 H1608 0.959 . S
C1624 H1609 0.959 . S
C1624 H1610 0.961 . S
C1624 C1623 1.502 . S
C1625 H1611 0.960 . S
C1625 H1612 0.961 . S
C1625 H1613 0.959 . S
C1625 C1623 1.561 . S
C1626 C1623 1.526 . S
C1626 C1627 1.396 . S
C1626 C1631 1.390 . S
C1627 C1621 1.465 . S
C1627 C1626 1.396 . S
C1627 C1628 1.399 . S
C1628 H1614 0.929 . S
C1628 C1627 1.399 . S
C1628 C1629 1.385 . S
C1629 H1615 0.931 . S
C1629 C1628 1.385 . S
C1629 C1630 1.389 . S
C1630 C1629 1.389 . S
C1630 C1631 1.387 . S
C1631 H1616 0.930 . S
C1631 C1626 1.390 . S
C1631 C1630 1.387 . S
C349 C9 1.781 . S
C361 C107 1.782 . S
C376 C121 1.801 . S
C388 C23 1.804 . S
C403 C37 1.802 . S
C415 C135 1.798 . S
C430 C51 1.801 . S
C442 C149 1.797 . S
C457 C163 1.784 . S
C469 C65 1.782 . S
C484 C79 1.797 . S
C496 C93 1.801 . S
C511 C177 1.785 . S
C523 C275 1.789 . S
C538 C191 1.798 . S
C550 C289 1.802 . S
C565 C303 1.799 . S
C577 C205 1.803 . S
C592 C219 1.804 . S
C604 C317 1.800 . S
C619 C233 1.781 . S
C631 C331 1.782 . S
C646 C261 1.800 . S
C658 C247 1.796 . S
C673 C6 1.514 . S
C685 C118 1.474 . S
C700 C132 1.487 . S
C712 C20 1.464 . S
C727 C146 1.516 . S
C739 C34 1.465 . S
C754 C48 1.459 . S
C766 C160 1.494 . S
C781 C62 1.468 . S
C793 C90 1.515 . S
C808 C76 1.489 . S
C820 C104 1.463 . S
C835 C286 1.489 . S
C847 C174 1.456 . S
C862 C188 1.512 . S
C874 C300 1.495 . S
C889 C314 1.470 . S
C901 C202 1.514 . S
C916 C328 1.499 . S
C928 C216 1.457 . S
C943 C258 1.513 . S
C955 C230 1.494 . S
C970 C244 1.504 . S
C982 C272 1.459 . S
C997 C7 1.586 . S
C1009 C217 1.577 . S
C1024 C231 1.524 . S
C1036 C21 1.524 . S
C1051 C245 1.570 . S
C1063 C35 1.580 . S
C1078 C49 1.586 . S
C1090 C175 1.577 . S
C1105 C63 1.570 . S
C1117 C189 1.580 . S
C1132 C203 1.556 . S
C1144 C77 1.546 . S
C1159 C301 1.595 . S
C1171 C91 1.590 . S
C1186 C315 1.588 . S
C1198 C105 1.579 . S
C1213 C329 1.566 . S
C1225 C119 1.576 . S
C1240 C259 1.595 . S
C1252 C133 1.596 . S
C1267 C147 1.532 . S
C1279 C273 1.541 . S
C1294 C161 1.569 . S
C1306 C287 1.579 . S
C1321 C8 1.369 . S
C1333 C148 1.371 . S
C1348 C162 1.370 . S
C1360 C22 1.369 . S
C1375 C92 1.368 . S
C1387 C36 1.370 . S
C1402 C50 1.369 . S
C1414 C106 1.371 . S
C1429 C64 1.366 . S
C1441 C120 1.369 . S
C1456 C78 1.370 . S
C1468 C134 1.369 . S
C1483 C176 1.370 . S
C1495 C316 1.370 . S
C1510 C190 1.367 . S
C1522 C330 1.366 . S
C1537 C204 1.367 . S
C1549 C260 1.367 . S
C1564 C274 1.371 . S
C1576 C218 1.371 . S
C1591 C232 1.367 . S
C1603 C288 1.366 . S
C1618 C246 1.369 . S
C1630 C302 1.370 . S
