# Generated by pormake.
# Topology yfj, (5)-cn, num edge types: 1
# Building blocks:
#     Node 0, Type 0, BuildingBlock: BEQFEK_clean_sbu_0, # of connection points: 5
#     Node 1, Type 0, BuildingBlock: BEQFEK_clean_sbu_0, # of connection points: 5
#     Node 2, Type 0, BuildingBlock: BEQFEK_clean_sbu_0, # of connection points: 5
#     Node 3, Type 0, BuildingBlock: BEQFEK_clean_sbu_0, # of connection points: 5
#     Node 4, Type 0, BuildingBlock: BEQFEK_clean_sbu_0, # of connection points: 5
#     Node 5, Type 0, BuildingBlock: BEQFEK_clean_sbu_0, # of connection points: 5
#     Node 6, Type 0, BuildingBlock: BEQFEK_clean_sbu_0, # of connection points: 5
#     Node 7, Type 0, BuildingBlock: BEQFEK_clean_sbu_0, # of connection points: 5
#     Node 8, Type 0, BuildingBlock: BEQFEK_clean_sbu_0, # of connection points: 5
#     Node 9, Type 0, BuildingBlock: BEQFEK_clean_sbu_0, # of connection points: 5
#     Node 10, Type 0, BuildingBlock: BEQFEK_clean_sbu_0, # of connection points: 5
#     Node 11, Type 0, BuildingBlock: BEQFEK_clean_sbu_0, # of connection points: 5
#     Node 12, Type 0, BuildingBlock: BEQFEK_clean_sbu_0, # of connection points: 5
#     Node 13, Type 0, BuildingBlock: BEQFEK_clean_sbu_0, # of connection points: 5
#     Node 14, Type 0, BuildingBlock: BEQFEK_clean_sbu_0, # of connection points: 5
#     Node 15, Type 0, BuildingBlock: BEQFEK_clean_sbu_0, # of connection points: 5
#     Edge 16, Type (0, 0), BuildingBlock: ZUJKAS_clean_linker_0, # of connection points: 2
#     Edge 17, Type (0, 0), BuildingBlock: ZUJKAS_clean_linker_0, # of connection points: 2
#     Edge 18, Type (0, 0), BuildingBlock: ZUJKAS_clean_linker_0, # of connection points: 2
#     Edge 19, Type (0, 0), BuildingBlock: ZUJKAS_clean_linker_0, # of connection points: 2
#     Edge 20, Type (0, 0), BuildingBlock: ZUJKAS_clean_linker_0, # of connection points: 2
#     Edge 21, Type (0, 0), BuildingBlock: ZUJKAS_clean_linker_0, # of connection points: 2
#     Edge 22, Type (0, 0), BuildingBlock: ZUJKAS_clean_linker_0, # of connection points: 2
#     Edge 23, Type (0, 0), BuildingBlock: ZUJKAS_clean_linker_0, # of connection points: 2
#     Edge 24, Type (0, 0), BuildingBlock: ZUJKAS_clean_linker_0, # of connection points: 2
#     Edge 25, Type (0, 0), BuildingBlock: ZUJKAS_clean_linker_0, # of connection points: 2
#     Edge 26, Type (0, 0), BuildingBlock: ZUJKAS_clean_linker_0, # of connection points: 2
#     Edge 27, Type (0, 0), BuildingBlock: ZUJKAS_clean_linker_0, # of connection points: 2
#     Edge 28, Type (0, 0), BuildingBlock: ZUJKAS_clean_linker_0, # of connection points: 2
#     Edge 29, Type (0, 0), BuildingBlock: ZUJKAS_clean_linker_0, # of connection points: 2
#     Edge 30, Type (0, 0), BuildingBlock: ZUJKAS_clean_linker_0, # of connection points: 2
#     Edge 31, Type (0, 0), BuildingBlock: ZUJKAS_clean_linker_0, # of connection points: 2
#     Edge 32, Type (0, 0), BuildingBlock: ZUJKAS_clean_linker_0, # of connection points: 2
#     Edge 33, Type (0, 0), BuildingBlock: ZUJKAS_clean_linker_0, # of connection points: 2
#     Edge 34, Type (0, 0), BuildingBlock: ZUJKAS_clean_linker_0, # of connection points: 2
#     Edge 35, Type (0, 0), BuildingBlock: ZUJKAS_clean_linker_0, # of connection points: 2
#     Edge 36, Type (0, 0), BuildingBlock: ZUJKAS_clean_linker_0, # of connection points: 2
#     Edge 37, Type (0, 0), BuildingBlock: ZUJKAS_clean_linker_0, # of connection points: 2
#     Edge 38, Type (0, 0), BuildingBlock: ZUJKAS_clean_linker_0, # of connection points: 2
#     Edge 39, Type (0, 0), BuildingBlock: ZUJKAS_clean_linker_0, # of connection points: 2
#     Edge 40, Type (0, 0), BuildingBlock: ZUJKAS_clean_linker_0, # of connection points: 2
#     Edge 41, Type (0, 0), BuildingBlock: ZUJKAS_clean_linker_0, # of connection points: 2
#     Edge 42, Type (0, 0), BuildingBlock: ZUJKAS_clean_linker_0, # of connection points: 2
#     Edge 43, Type (0, 0), BuildingBlock: ZUJKAS_clean_linker_0, # of connection points: 2
#     Edge 44, Type (0, 0), BuildingBlock: ZUJKAS_clean_linker_0, # of connection points: 2
#     Edge 45, Type (0, 0), BuildingBlock: ZUJKAS_clean_linker_0, # of connection points: 2
#     Edge 46, Type (0, 0), BuildingBlock: ZUJKAS_clean_linker_0, # of connection points: 2
#     Edge 47, Type (0, 0), BuildingBlock: ZUJKAS_clean_linker_0, # of connection points: 2
#     Edge 48, Type (0, 0), BuildingBlock: ZUJKAS_clean_linker_0, # of connection points: 2
#     Edge 49, Type (0, 0), BuildingBlock: ZUJKAS_clean_linker_0, # of connection points: 2
#     Edge 50, Type (0, 0), BuildingBlock: ZUJKAS_clean_linker_0, # of connection points: 2
#     Edge 51, Type (0, 0), BuildingBlock: ZUJKAS_clean_linker_0, # of connection points: 2
#     Edge 52, Type (0, 0), BuildingBlock: ZUJKAS_clean_linker_0, # of connection points: 2
#     Edge 53, Type (0, 0), BuildingBlock: ZUJKAS_clean_linker_0, # of connection points: 2
#     Edge 54, Type (0, 0), BuildingBlock: ZUJKAS_clean_linker_0, # of connection points: 2
#     Edge 55, Type (0, 0), BuildingBlock: ZUJKAS_clean_linker_0, # of connection points: 2
# Relax obj value: 0.517
# Max RMSD: 0.221
# Mean RMSD: 0.221
data_MOF--net-yfj--node1-BEQFEK_clean_sbu_0--edge1-ZUJKAS_clean_linker_0
_symmetry_space_group_name_H-M    P1
_symmetry_Int_Tables_number       1
_symmetry_cell_setting            triclinic
loop_
_symmetry_equiv_pos_as_xyz
'x, y, z'
_cell_length_a     58.402756
_cell_length_b     58.367772
_cell_length_c     61.3216
_cell_angle_alpha  89.989401
_cell_angle_beta   90.015669
_cell_angle_gamma 89.985392
loop_
_atom_site_label
_atom_site_type_symbol
_atom_site_fract_x
_atom_site_fract_y
_atom_site_fract_z
_atom_type_partial_charge
Co0 Co 0.09519 0.1365 0.35487 0.0
Co1 Co 0.11377 0.15241 0.30876 0.0
C2 C 0.14196 0.12373 0.33878 0.0
O3 O 0.12626 0.12351 0.35311 0.0
O4 O 0.13945 0.13439 0.32086 0.0
C5 C 0.08816 0.10456 0.38934 0.0
O6 O 0.10098 0.09165 0.37674 0.0
C7 C 0.13418 0.1469 0.26485 0.0
C8 C 0.12921 0.18127 0.25062 0.0
C9 C 0.13908 0.16011 0.24653 0.0
N10 N 0.12198 0.15969 0.27902 0.0
N11 N 0.11882 0.18012 0.27022 0.0
C12 C 0.14316 0.12345 0.26988 0.0
H13 H 0.13479 0.11629 0.28457 0.0
H14 H 0.13995 0.11164 0.2561 0.0
H15 H 0.16194 0.12437 0.27245 0.0
C16 C 0.06082 0.11374 0.32722 0.0
N17 N 0.07829 0.12854 0.32965 0.0
N18 N 0.08613 0.13448 0.31029 0.0
C19 C 0.07397 0.12314 0.29496 0.0
C20 C 0.0576 0.10958 0.30516 0.0
C21 C 0.04994 0.10109 0.34576 0.0
H22 H 0.04699 0.11295 0.35959 0.0
H23 H 0.06164 0.08726 0.35123 0.0
H24 H 0.03342 0.09326 0.34093 0.0
O25 O 0.09774 0.16991 0.35798 0.0
O26 O 0.11185 0.1818 0.32628 0.0
H27 H 0.08269 0.14128 0.26572 0.0
H28 H 0.06473 0.1164 0.2615 0.0
C29 C 0.0792 0.12349 0.2711 0.0
H30 H 0.09462 0.11293 0.26795 0.0
H31 H 0.11041 0.19361 0.278 0.0
O32 O 0.0821 0.12427 0.38257 0.0
C33 C 0.10508 0.18589 0.34572 0.0
Co34 Co 0.86745 0.59543 0.60591 0.0
Co35 Co 0.85366 0.61745 0.56067 0.0
C36 C 0.88351 0.64215 0.5924 0.0
O37 O 0.88269 0.6255 0.60573 0.0
O38 O 0.87283 0.64149 0.57431 0.0
C39 C 0.898 0.58255 0.64049 0.0
O40 O 0.91346 0.59257 0.62819 0.0
C41 C 0.85975 0.6411 0.51841 0.0
C42 C 0.82807 0.63191 0.50086 0.0
C43 C 0.84799 0.6447 0.49891 0.0
N44 N 0.84722 0.62715 0.53123 0.0
N45 N 0.82833 0.62169 0.52057 0.0
C46 C 0.88309 0.64961 0.52442 0.0
H47 H 0.89137 0.63778 0.53617 0.0
H48 H 0.89405 0.65128 0.50972 0.0
H49 H 0.88149 0.66665 0.53228 0.0
C50 C 0.88813 0.5608 0.57693 0.0
N51 N 0.87472 0.57924 0.58011 0.0
N52 N 0.86991 0.58871 0.56112 0.0
C53 C 0.88077 0.57674 0.54534 0.0
C54 C 0.89263 0.55868 0.55485 0.0
C55 C 0.89914 0.54738 0.59488 0.0
H56 H 0.88719 0.54567 0.60882 0.0
H57 H 0.91476 0.55648 0.60041 0.0
H58 H 0.90423 0.53008 0.58916 0.0
O59 O 0.83429 0.6 0.60855 0.0
O60 O 0.82376 0.61622 0.57736 0.0
H61 H 0.86432 0.58756 0.51588 0.0
H62 H 0.88947 0.56997 0.51171 0.0
C63 C 0.88179 0.5837 0.5219 0.0
H64 H 0.89235 0.59939 0.52032 0.0
H65 H 0.81549 0.61114 0.52684 0.0
O66 O 0.87763 0.58047 0.6334 0.0
C67 C 0.81895 0.60872 0.59639 0.0
Co68 Co 0.40817 0.36685 0.85544 0.0
Co69 Co 0.38757 0.35158 0.80993 0.0
C70 C 0.36075 0.37978 0.84146 0.0
O71 O 0.37717 0.37995 0.85503 0.0
O72 O 0.36239 0.36927 0.82338 0.0
C73 C 0.41608 0.39775 0.89058 0.0
O74 O 0.40242 0.41077 0.87891 0.0
C75 C 0.36393 0.35842 0.76808 0.0
C76 C 0.37171 0.32665 0.75007 0.0
C77 C 0.35944 0.34697 0.7486 0.0
N78 N 0.37782 0.34534 0.78046 0.0
N79 N 0.38247 0.3264 0.76953 0.0
C80 C 0.35624 0.38193 0.77454 0.0
H81 H 0.36858 0.38971 0.78612 0.0
H82 H 0.35451 0.39313 0.76 0.0
H83 H 0.33938 0.38073 0.78278 0.0
C84 C 0.44132 0.38995 0.82689 0.0
N85 N 0.42393 0.37515 0.82975 0.0
N86 N 0.41536 0.36939 0.81063 0.0
C87 C 0.42706 0.38072 0.79498 0.0
C88 C 0.44382 0.39419 0.80475 0.0
C89 C 0.45264 0.40254 0.84523 0.0
H90 H 0.45662 0.39045 0.85865 0.0
H91 H 0.44072 0.41577 0.85153 0.0
H92 H 0.46864 0.4111 0.83998 0.0
O93 O 0.40545 0.33337 0.85812 0.0
O94 O 0.39007 0.32185 0.82681 0.0
H95 H 0.41739 0.36244 0.76609 0.0
H96 H 0.43558 0.38704 0.76127 0.0
C97 C 0.42125 0.38022 0.77123 0.0
H98 H 0.4059 0.39095 0.76828 0.0
H99 H 0.39272 0.31315 0.77548 0.0
O100 O 0.42242 0.37851 0.88288 0.0
C101 C 0.39755 0.31755 0.84598 0.0
Co102 Co 0.63655 0.90969 0.10633 0.0
Co103 Co 0.64886 0.88626 0.06121 0.0
C104 C 0.62081 0.86205 0.09434 0.0
O105 O 0.62238 0.87909 0.10716 0.0
O106 O 0.63035 0.86221 0.07567 0.0
C107 C 0.60601 0.92071 0.14087 0.0
O108 O 0.59185 0.9086 0.12885 0.0
C109 C 0.64662 0.85893 0.02035 0.0
C110 C 0.66834 0.8791 0.99801 0.0
C111 C 0.65485 0.85963 0.99913 0.0
N112 N 0.65491 0.87709 0.03139 0.0
N113 N 0.66803 0.88896 0.01792 0.0
C114 C 0.62992 0.84209 0.02955 0.0
H115 H 0.63881 0.83135 0.04183 0.0
H116 H 0.61579 0.85139 0.03776 0.0
H117 H 0.62257 0.83087 0.01674 0.0
C118 C 0.61373 0.94263 0.07727 0.0
N119 N 0.62794 0.92478 0.0804 0.0
N120 N 0.63173 0.91447 0.06163 0.0
C121 C 0.61916 0.92502 0.0461 0.0
C122 C 0.60749 0.94332 0.05546 0.0
C123 C 0.60348 0.95643 0.09537 0.0
H124 H 0.61626 0.95902 0.10851 0.0
H125 H 0.58856 0.94708 0.10214 0.0
H126 H 0.5975 0.97335 0.08945 0.0
O127 O 0.66985 0.90612 0.10825 0.0
O128 O 0.67909 0.88827 0.07746 0.0
H129 H 0.63267 0.91861 0.01437 0.0
H130 H 0.60264 0.92548 0.01442 0.0
C131 C 0.61637 0.91624 0.02333 0.0
H132 H 0.61242 0.89766 0.02373 0.0
H133 H 0.67649 0.90405 0.02221 0.0
O134 O 0.62596 0.92496 0.13356 0.0
C135 C 0.68466 0.89671 0.09596 0.0
Co136 Co 0.09267 0.36708 0.90721 0.0
Co137 Co 0.1118 0.35085 0.953 0.0
C138 C 0.1399 0.37903 0.92242 0.0
O139 O 0.12393 0.37954 0.90837 0.0
O140 O 0.13749 0.36847 0.9404 0.0
C141 C 0.08577 0.39885 0.87257 0.0
O142 O 0.09917 0.4115 0.88487 0.0
C143 C 0.13428 0.35672 0.99554 0.0
C144 C 0.12646 0.32433 0.01251 0.0
C145 C 0.13851 0.34469 0.01476 0.0
N146 N 0.12077 0.34393 0.98255 0.0
N147 N 0.11606 0.32462 0.99286 0.0
C148 C 0.1419 0.38047 0.98988 0.0
H149 H 0.12997 0.38838 0.97798 0.0
H150 H 0.14285 0.39131 1.00473 0.0
H151 H 0.15911 0.37971 0.98231 0.0
C152 C 0.05928 0.39055 0.93543 0.0
N153 N 0.07645 0.37544 0.9327 0.0
N154 N 0.08433 0.36907 0.95192 0.0
C155 C 0.07236 0.38023 0.9675 0.0
C156 C 0.0562 0.39431 0.9576 0.0
C157 C 0.04868 0.40371 0.91705 0.0
H158 H 0.04489 0.39196 0.90331 0.0
H159 H 0.06098 0.41685 0.91131 0.0
H160 H 0.03268 0.41244 0.92201 0.0
O161 O 0.09475 0.33355 0.90419 0.0
O162 O 0.10928 0.32147 0.93569 0.0
H163 H 0.06247 0.38515 1.00107 0.0
H164 H 0.09239 0.38938 0.99532 0.0
C165 C 0.07722 0.37876 0.99141 0.0
H166 H 0.08091 0.36078 0.99605 0.0
H167 H 0.10609 0.31146 0.98634 0.0
O168 O 0.07926 0.3794 0.87963 0.0
C169 C 0.10214 0.31748 0.91635 0.0
Co170 Co 0.63165 0.59431 0.15366 0.0
Co171 Co 0.64729 0.61414 0.19957 0.0
C172 C 0.61848 0.64137 0.16882 0.0
O173 O 0.61894 0.62557 0.15459 0.0
O174 O 0.6285 0.63915 0.18711 0.0
C175 C 0.60033 0.58693 0.11877 0.0
O176 O 0.58762 0.6008 0.13053 0.0
C177 C 0.64845 0.64083 0.24087 0.0
C178 C 0.66704 0.61765 0.26309 0.0
C179 C 0.65563 0.63847 0.26239 0.0
N180 N 0.65464 0.622 0.22956 0.0
N181 N 0.66608 0.60839 0.24295 0.0
C182 C 0.6375 0.66144 0.23078 0.0
H183 H 0.64538 0.66495 0.21468 0.0
H184 H 0.61898 0.65802 0.22848 0.0
H185 H 0.63968 0.67691 0.24106 0.0
C186 C 0.60901 0.56056 0.18184 0.0
N187 N 0.6237 0.57808 0.17919 0.0
N188 N 0.6291 0.58666 0.19841 0.0
C189 C 0.61707 0.57531 0.21384 0.0
C190 C 0.60421 0.55823 0.20385 0.0
C191 C 0.59714 0.54868 0.16341 0.0
H192 H 0.60956 0.54499 0.1502 0.0
H193 H 0.58362 0.56009 0.15682 0.0
H194 H 0.58906 0.53245 0.16881 0.0
O195 O 0.66484 0.59672 0.1507 0.0
O196 O 0.67679 0.61174 0.18199 0.0
H197 H 0.63192 0.57727 0.24555 0.0
H198 H 0.60134 0.57392 0.24581 0.0
C199 C 0.61582 0.58233 0.23727 0.0
H200 H 0.61399 0.6012 0.23847 0.0
H201 H 0.67287 0.59255 0.23843 0.0
O202 O 0.61957 0.58039 0.12629 0.0
C203 C 0.68086 0.60435 0.16272 0.0
Co204 Co 0.4091 0.13415 0.4041 0.0
Co205 Co 0.38595 0.14642 0.44943 0.0
C206 C 0.36153 0.11837 0.41668 0.0
O207 O 0.37834 0.12033 0.40367 0.0
O208 O 0.36194 0.12748 0.43552 0.0
C209 C 0.41885 0.10252 0.37041 0.0
O210 O 0.40711 0.08907 0.38346 0.0
C211 C 0.35762 0.14656 0.48965 0.0
C212 C 0.38031 0.16359 0.51341 0.0
C213 C 0.35926 0.15281 0.51151 0.0
N214 N 0.37705 0.15271 0.47932 0.0
N215 N 0.39037 0.1632 0.49361 0.0
C216 C 0.33718 0.13682 0.47826 0.0
H217 H 0.34004 0.1183 0.47518 0.0
H218 H 0.32132 0.13907 0.48797 0.0
H219 H 0.3348 0.14561 0.46239 0.0
C220 C 0.44225 0.11137 0.43291 0.0
N221 N 0.4244 0.1256 0.42996 0.0
N222 N 0.41415 0.12921 0.4488 0.0
C223 C 0.42467 0.11634 0.46415 0.0
C224 C 0.44297 0.10482 0.45462 0.0
C225 C 0.45611 0.10138 0.41472 0.0
H226 H 0.45824 0.11415 0.40149 0.0
H227 H 0.44711 0.08615 0.40813 0.0
H228 H 0.47322 0.09587 0.42056 0.0
O229 O 0.40563 0.16746 0.40196 0.0
O230 O 0.38761 0.17649 0.43273 0.0
H231 H 0.42031 0.12812 0.49679 0.0
H232 H 0.42342 0.09763 0.49467 0.0
C233 C 0.41579 0.11295 0.48682 0.0
H234 H 0.39688 0.11127 0.48652 0.0
H235 H 0.40655 0.16973 0.48995 0.0
O236 O 0.42366 0.12272 0.37676 0.0
C237 C 0.396 0.18216 0.41422 0.0
Co238 Co 0.86375 0.90856 0.65412 0.0
Co239 Co 0.85212 0.88651 0.69999 0.0
C240 C 0.88098 0.86206 0.66756 0.0
O241 O 0.87853 0.87811 0.65373 0.0
O242 O 0.87199 0.86316 0.68641 0.0
C243 C 0.89394 0.92102 0.61946 0.0
O244 O 0.90936 0.91135 0.63206 0.0
C245 C 0.85333 0.85873 0.74056 0.0
C246 C 0.83495 0.88078 0.76395 0.0
C247 C 0.84676 0.86025 0.76232 0.0
N248 N 0.84634 0.87775 0.72999 0.0
N249 N 0.83509 0.89069 0.74408 0.0
C250 C 0.86442 0.83871 0.72955 0.0
H251 H 0.85624 0.83566 0.7135 0.0
H252 H 0.88281 0.84257 0.72696 0.0
H253 H 0.86281 0.82285 0.73938 0.0
C254 C 0.88626 0.94277 0.68232 0.0
N255 N 0.87215 0.92476 0.67966 0.0
N256 N 0.86835 0.91513 0.69878 0.0
C257 C 0.88093 0.92622 0.71397 0.0
C258 C 0.89247 0.94423 0.70406 0.0
C259 C 0.89621 0.95654 0.66407 0.0
H260 H 0.88369 0.95815 0.65058 0.0
H261 H 0.91187 0.94792 0.65797 0.0
H262 H 0.90115 0.97387 0.66989 0.0
O263 O 0.83057 0.90436 0.6525 0.0
O264 O 0.82187 0.88697 0.68365 0.0
H265 H 0.86976 0.92156 0.74679 0.0
H266 H 0.90016 0.92558 0.7442 0.0
C267 C 0.88491 0.9175 0.73662 0.0
H268 H 0.88718 0.89863 0.73633 0.0
H269 H 0.8278 0.9065 0.7402 0.0
O270 O 0.8735 0.92314 0.62636 0.0
C271 C 0.81603 0.89489 0.66502 0.0
Co272 Co 0.59233 0.63476 0.85524 0.0
Co273 Co 0.61444 0.64751 0.80963 0.0
C274 C 0.6397 0.61934 0.84165 0.0
O275 O 0.62354 0.62148 0.85539 0.0
O276 O 0.6384 0.62815 0.82273 0.0
C277 C 0.58323 0.60309 0.88915 0.0
O278 O 0.59562 0.58988 0.87643 0.0
C279 C 0.64144 0.64746 0.76851 0.0
C280 C 0.61918 0.66718 0.74629 0.0
C281 C 0.63954 0.65498 0.74704 0.0
N282 N 0.62279 0.65433 0.77972 0.0
N283 N 0.60973 0.66636 0.76634 0.0
C284 C 0.66146 0.63556 0.7787 0.0
H285 H 0.66526 0.64334 0.79478 0.0
H286 H 0.65715 0.61723 0.78114 0.0
H287 H 0.67705 0.63693 0.76847 0.0
C288 C 0.55908 0.61156 0.82666 0.0
N289 N 0.57672 0.62609 0.82952 0.0
N290 N 0.58638 0.63034 0.81051 0.0
C291 C 0.5757 0.61768 0.79513 0.0
C292 C 0.55791 0.60556 0.80482 0.0
C293 C 0.5459 0.60085 0.84493 0.0
H294 H 0.54328 0.61346 0.8582 0.0
H295 H 0.55573 0.58609 0.85143 0.0
H296 H 0.52903 0.5945 0.83922 0.0
O297 O 0.59487 0.66815 0.85741 0.0
O298 O 0.61317 0.67727 0.82678 0.0
H299 H 0.58037 0.63081 0.76298 0.0
H300 H 0.57572 0.60039 0.76383 0.0
C301 C 0.58415 0.61495 0.77224 0.0
H302 H 0.60296 0.61233 0.77229 0.0
H303 H 0.59413 0.67372 0.7708 0.0
O304 O 0.578 0.62311 0.88257 0.0
C305 C 0.60452 0.68286 0.84518 0.0
Co306 Co 0.36712 0.09169 0.10648 0.0
Co307 Co 0.35317 0.11455 0.06138 0.0
C308 C 0.38221 0.13921 0.09349 0.0
O309 O 0.38103 0.12239 0.10658 0.0
O310 O 0.37218 0.13873 0.07507 0.0
C311 C 0.39832 0.08231 0.1409 0.0
O312 O 0.41175 0.09502 0.12868 0.0
C313 C 0.35316 0.14257 0.02088 0.0
C314 C 0.33481 0.12027 0.9977 0.0
C315 C 0.34644 0.14091 0.99914 0.0
N316 N 0.34646 0.12351 0.03156 0.0
N317 N 0.33517 0.11044 0.01761 0.0
C318 C 0.36382 0.16279 0.03188 0.0
H319 H 0.35502 0.16593 0.04761 0.0
H320 H 0.38214 0.15911 0.0352 0.0
H321 H 0.36238 0.17854 0.02186 0.0
C322 C 0.38996 0.0591 0.07734 0.0
N323 N 0.37515 0.07644 0.08049 0.0
N324 N 0.37071 0.08647 0.0617 0.0
C325 C 0.38349 0.07625 0.04611 0.0
C326 C 0.39599 0.05847 0.05547 0.0
C327 C 0.40121 0.04615 0.09549 0.0
H328 H 0.41574 0.05637 0.1019 0.0
H329 H 0.40794 0.02944 0.08977 0.0
H330 H 0.38879 0.04314 0.10885 0.0
O331 O 0.33389 0.09505 0.10911 0.0
O332 O 0.32336 0.11246 0.07847 0.0
H333 H 0.40042 0.07695 0.01461 0.0
H334 H 0.38827 0.10394 0.02357 0.0
C335 C 0.38589 0.08508 0.0233 0.0
H336 H 0.37002 0.08119 0.01413 0.0
H337 H 0.32812 0.09454 0.02156 0.0
O338 O 0.37859 0.07691 0.13373 0.0
C339 C 0.31853 0.10413 0.09721 0.0
Co340 Co 0.90895 0.86928 0.35593 0.0
Co341 Co 0.8876 0.8554 0.31031 0.0
C342 C 0.86211 0.88465 0.34194 0.0
O343 O 0.87832 0.8835 0.35574 0.0
O344 O 0.86343 0.87468 0.32353 0.0
C345 C 0.92053 0.90007 0.39058 0.0
O346 O 0.9106 0.91533 0.37799 0.0
C347 C 0.86052 0.85542 0.26916 0.0
C348 C 0.88303 0.83621 0.24679 0.0
C349 C 0.86251 0.84812 0.24762 0.0
N350 N 0.87927 0.84873 0.28032 0.0
N351 N 0.89248 0.83699 0.26684 0.0
C352 C 0.84035 0.86697 0.27941 0.0
H353 H 0.83684 0.85925 0.29557 0.0
H354 H 0.84432 0.88541 0.28164 0.0
H355 H 0.82472 0.8652 0.26928 0.0
C356 C 0.9429 0.89158 0.3274 0.0
N357 N 0.92513 0.87723 0.33031 0.0
N358 N 0.91563 0.87276 0.31126 0.0
C359 C 0.92648 0.88522 0.29583 0.0
C360 C 0.94427 0.89732 0.30552 0.0
C361 C 0.9562 0.90237 0.34554 0.0
H362 H 0.95793 0.89024 0.35934 0.0
H363 H 0.94708 0.91794 0.35119 0.0
H364 H 0.97347 0.90758 0.33987 0.0
O365 O 0.90542 0.83612 0.35832 0.0
O366 O 0.88934 0.82538 0.32716 0.0
H367 H 0.9222 0.87238 0.26353 0.0
H368 H 0.92622 0.90289 0.26474 0.0
C369 C 0.91804 0.88805 0.27294 0.0
H370 H 0.89918 0.89031 0.27293 0.0
H371 H 0.90818 0.8298 0.27125 0.0
O372 O 0.9232 0.87972 0.3836 0.0
C373 C 0.89703 0.82063 0.34616 0.0
Co374 Co 0.12923 0.40643 0.60679 0.0
Co375 Co 0.14691 0.38723 0.56128 0.0
C376 C 0.11692 0.35975 0.59114 0.0
O377 O 0.11521 0.37585 0.60495 0.0
O378 O 0.12912 0.36176 0.57408 0.0
C379 C 0.0983 0.41394 0.64221 0.0
O380 O 0.08534 0.39997 0.63083 0.0
C381 C 0.14641 0.36102 0.51972 0.0
C382 C 0.16762 0.38255 0.49813 0.0
C383 C 0.15435 0.36286 0.49839 0.0
N384 N 0.15409 0.37909 0.53133 0.0
N385 N 0.16701 0.39171 0.51832 0.0
C386 C 0.13351 0.34136 0.52949 0.0
H387 H 0.14231 0.33571 0.54457 0.0
H388 H 0.11595 0.34702 0.53381 0.0
H389 H 0.13262 0.32645 0.51836 0.0
C390 C 0.10687 0.43992 0.5783 0.0
N391 N 0.12216 0.42298 0.58125 0.0
N392 N 0.12819 0.41449 0.56218 0.0
C393 C 0.11613 0.42543 0.5465 0.0
C394 C 0.10237 0.44202 0.55619 0.0
C395 C 0.09383 0.45091 0.59652 0.0
H396 H 0.10565 0.45512 0.61009 0.0
H397 H 0.08078 0.43869 0.60265 0.0
H398 H 0.08502 0.46674 0.5911 0.0
O399 O 0.16251 0.40292 0.6104 0.0
O400 O 0.17615 0.39019 0.57884 0.0
H401 H 0.13252 0.42191 0.51561 0.0
H402 H 0.10233 0.42769 0.51374 0.0
C403 C 0.11563 0.4183 0.52307 0.0
H404 H 0.1124 0.39961 0.52196 0.0
H405 H 0.17509 0.40684 0.52312 0.0
O406 O 0.11734 0.42048 0.63424 0.0
C407 C 0.17922 0.39638 0.59863 0.0
Co408 Co 0.59524 0.86577 0.4037 0.0
Co409 Co 0.61688 0.85207 0.44927 0.0
C410 C 0.64237 0.88107 0.41773 0.0
O411 O 0.62584 0.87991 0.40428 0.0
O412 O 0.64147 0.871 0.43613 0.0
C413 C 0.58543 0.89738 0.36962 0.0
O414 O 0.5967 0.91134 0.38254 0.0
C415 C 0.64208 0.85362 0.49139 0.0
C416 C 0.62193 0.82989 0.5118 0.0
C417 C 0.64061 0.84453 0.51233 0.0
N418 N 0.6248 0.84513 0.47924 0.0
N419 N 0.61296 0.83082 0.49156 0.0
C420 C 0.6608 0.86827 0.48231 0.0
H421 H 0.6537 0.8852 0.47758 0.0
H422 H 0.67512 0.87061 0.49394 0.0
H423 H 0.66773 0.85992 0.4675 0.0
C424 C 0.56154 0.88833 0.4322 0.0
N425 N 0.57919 0.87381 0.4293 0.0
N426 N 0.58876 0.86934 0.4483 0.0
C427 C 0.57792 0.88173 0.46378 0.0
C428 C 0.56025 0.89412 0.45412 0.0
C429 C 0.54871 0.89943 0.4139 0.0
H430 H 0.55828 0.91475 0.4083 0.0
H431 H 0.53145 0.90503 0.41919 0.0
H432 H 0.54688 0.88731 0.4001 0.0
O433 O 0.59875 0.83246 0.40112 0.0
O434 O 0.61533 0.82228 0.43228 0.0
H435 H 0.57591 0.89655 0.49615 0.0
H436 H 0.60436 0.88853 0.48707 0.0
C437 C 0.58598 0.88373 0.48686 0.0
H438 H 0.58419 0.86689 0.49502 0.0
H439 H 0.59858 0.82182 0.48619 0.0
O440 O 0.58119 0.87712 0.37615 0.0
C441 C 0.60757 0.81725 0.41338 0.0
Co442 Co 0.12961 0.09604 0.65477 0.0
Co443 Co 0.14625 0.11599 0.70037 0.0
C444 C 0.11655 0.14285 0.66981 0.0
O445 O 0.11552 0.12666 0.65602 0.0
O446 O 0.12818 0.14107 0.68726 0.0
C447 C 0.09906 0.08785 0.61918 0.0
O448 O 0.0858 0.10168 0.6304 0.0
C449 C 0.14578 0.14294 0.74149 0.0
C450 C 0.16567 0.12104 0.76387 0.0
C451 C 0.15305 0.14114 0.76305 0.0
N452 N 0.15312 0.12443 0.73032 0.0
N453 N 0.16531 0.11161 0.74379 0.0
C454 C 0.13402 0.16296 0.73109 0.0
H455 H 0.14301 0.16749 0.71578 0.0
H456 H 0.1161 0.15825 0.7271 0.0
H457 H 0.13415 0.1783 0.74173 0.0
C458 C 0.107 0.06271 0.68319 0.0
N459 N 0.12215 0.0798 0.68035 0.0
N460 N 0.12791 0.08843 0.69945 0.0
C461 C 0.11586 0.07736 0.71505 0.0
C462 C 0.10231 0.06063 0.70528 0.0
C463 C 0.09432 0.05157 0.66481 0.0
H464 H 0.08131 0.0637 0.65845 0.0
H465 H 0.08551 0.0357 0.67003 0.0
H466 H 0.1064 0.0474 0.65144 0.0
O467 O 0.16293 0.09936 0.65166 0.0
O468 O 0.17567 0.11353 0.68305 0.0
H469 H 0.10217 0.07482 0.74786 0.0
H470 H 0.11239 0.10293 0.7399 0.0
C471 C 0.11547 0.08423 0.73856 0.0
H472 H 0.13233 0.08034 0.74595 0.0
H473 H 0.17303 0.09616 0.73938 0.0
O474 O 0.11817 0.08171 0.6273 0.0
C475 C 0.17924 0.10661 0.66357 0.0
Co476 Co 0.90707 0.63101 0.90386 0.0
Co477 Co 0.88605 0.64612 0.94913 0.0
C478 C 0.86007 0.61685 0.91761 0.0
O479 O 0.8766 0.61679 0.90415 0.0
O480 O 0.86131 0.62777 0.93553 0.0
C481 C 0.91843 0.60033 0.86888 0.0
O482 O 0.90749 0.58525 0.88088 0.0
C483 C 0.86246 0.63989 0.99123 0.0
C484 C 0.87107 0.67173 0.00882 0.0
C485 C 0.85852 0.65162 0.01069 0.0
N486 N 0.87634 0.65262 0.97853 0.0
N487 N 0.88146 0.6716 0.9892 0.0
C488 C 0.85432 0.61645 0.9851 0.0
H489 H 0.86625 0.60843 0.97329 0.0
H490 H 0.85284 0.60536 0.99973 0.0
H491 H 0.83727 0.61782 0.97722 0.0
C492 C 0.9404 0.60836 0.93272 0.0
N493 N 0.92299 0.62308 0.9296 0.0
N494 N 0.91423 0.62884 0.94866 0.0
C495 C 0.92588 0.6176 0.96444 0.0
C496 C 0.9427 0.60414 0.95482 0.0
C497 C 0.95284 0.59625 0.91479 0.0
H498 H 0.95572 0.60808 0.90092 0.0
H499 H 0.94238 0.58157 0.90911 0.0
H500 H 0.96955 0.58957 0.92064 0.0
O501 O 0.90361 0.66435 0.90123 0.0
O502 O 0.88811 0.67593 0.93241 0.0
H503 H 0.91537 0.63498 0.99356 0.0
H504 H 0.9333 0.61016 0.99819 0.0
C505 C 0.91932 0.61735 0.98801 0.0
H506 H 0.90385 0.6066 0.99019 0.0
H507 H 0.89186 0.68459 0.98299 0.0
O508 O 0.92161 0.62045 0.87628 0.0
C509 C 0.8956 0.68019 0.91327 0.0
Co510 Co 0.36705 0.40484 0.15463 0.0
Co511 Co 0.35216 0.38432 0.2005 0.0
C512 C 0.38134 0.35793 0.16951 0.0
O513 O 0.38043 0.37388 0.15546 0.0
O514 O 0.3713 0.35969 0.18784 0.0
C515 C 0.3989 0.41308 0.12051 0.0
O516 O 0.41195 0.40049 0.1332 0.0
C517 C 0.35294 0.35837 0.24231 0.0
C518 C 0.33108 0.3796 0.26357 0.0
C519 C 0.3447 0.36014 0.26354 0.0
N520 N 0.34511 0.37626 0.23053 0.0
N521 N 0.33182 0.38871 0.24335 0.0
C522 C 0.36645 0.339 0.23285 0.0
H523 H 0.35861 0.33358 0.21722 0.0
H524 H 0.38419 0.3449 0.22967 0.0
H525 H 0.36683 0.32389 0.24379 0.0
C526 C 0.38976 0.43848 0.18304 0.0
N527 N 0.37498 0.42104 0.18025 0.0
N528 N 0.36982 0.41213 0.19938 0.0
C529 C 0.38202 0.42317 0.21487 0.0
C530 C 0.39494 0.44033 0.20505 0.0
C531 C 0.40161 0.4505 0.16467 0.0
H532 H 0.3895 0.45324 0.151 0.0
H533 H 0.41602 0.43973 0.15887 0.0
H534 H 0.40859 0.46728 0.16991 0.0
O535 O 0.33381 0.4019 0.15182 0.0
O536 O 0.32253 0.38635 0.18311 0.0
H537 H 0.36664 0.41861 0.24611 0.0
H538 H 0.39666 0.42532 0.24732 0.0
C539 C 0.38342 0.41567 0.23817 0.0
H540 H 0.38725 0.39706 0.23891 0.0
H541 H 0.32351 0.40366 0.23839 0.0
O542 O 0.37902 0.4187 0.12715 0.0
C543 C 0.31809 0.39384 0.16395 0.0
H544 H 0.06388 0.12773 0.42065 0.0
H545 H 0.06182 0.11875 0.45965 0.0
H546 H 0.10081 0.0571 0.4489 0.0
H547 H 0.10292 0.06577 0.40994 0.0
H548 H 0.04814 0.07219 0.48361 0.0
H549 H 0.13806 0.10302 0.49189 0.0
H550 H 0.11981 0.11205 0.46971 0.0
H551 H 0.13144 0.08363 0.46993 0.0
C552 C 0.07165 0.11204 0.4265 0.0
C553 C 0.08376 0.09759 0.4122 0.0
C554 C 0.07041 0.10693 0.44876 0.0
C555 C 0.0813 0.08737 0.45707 0.0
C556 C 0.09236 0.07231 0.44273 0.0
H557 H 0.12228 0.05969 0.59105 0.0
H558 H 0.11613 0.05571 0.55176 0.0
C559 C 0.09353 0.07732 0.42048 0.0
C560 C 0.08296 0.08383 0.48089 0.0
H561 H 0.11977 0.09017 0.52363 0.0
C562 C 0.06378 0.07599 0.49243 0.0
C563 C 0.10347 0.08868 0.49219 0.0
C564 C 0.12442 0.09742 0.48044 0.0
C565 C 0.06459 0.07292 0.51517 0.0
C566 C 0.08494 0.0784 0.52661 0.0
C567 C 0.10421 0.08587 0.51489 0.0
C568 C 0.08646 0.07792 0.55079 0.0
C569 C 0.04372 0.06363 0.52663 0.0
C570 C 0.07158 0.09136 0.56341 0.0
C571 C 0.07493 0.0935 0.58588 0.0
C572 C 0.09348 0.08255 0.59616 0.0
C573 C 0.10785 0.06838 0.58365 0.0
C574 C 0.10437 0.06611 0.56117 0.0
H575 H 0.03302 0.05318 0.51542 0.0
H576 H 0.04852 0.05295 0.5409 0.0
H577 H 0.03307 0.07814 0.53245 0.0
H578 H 0.058 0.10112 0.55576 0.0
H579 H 0.0636 0.10466 0.59498 0.0
H580 H 0.9257 0.55834 0.85043 0.0
H581 H 0.9297 0.54954 0.81156 0.0
H582 H 0.92437 0.62159 0.79646 0.0
H583 H 0.92188 0.63046 0.83517 0.0
H584 H 0.90082 0.55381 0.78148 0.0
H585 H 0.97404 0.60656 0.75607 0.0
H586 H 0.96732 0.60208 0.78445 0.0
H587 H 0.95356 0.6247 0.76919 0.0
C588 C 0.92601 0.5723 0.83879 0.0
C589 C 0.92367 0.59509 0.84583 0.0
C590 C 0.92822 0.56727 0.81657 0.0
C591 C 0.92774 0.58489 0.80093 0.0
C592 C 0.92568 0.60769 0.80808 0.0
H593 H 0.86821 0.58024 0.67454 0.0
H594 H 0.87742 0.57722 0.71314 0.0
C595 C 0.92407 0.61276 0.83028 0.0
C596 C 0.92704 0.57946 0.77718 0.0
H597 H 0.94612 0.59803 0.72765 0.0
C598 C 0.91111 0.56317 0.76976 0.0
C599 C 0.94079 0.5911 0.76171 0.0
C600 C 0.96005 0.60685 0.76835 0.0
C601 C 0.90762 0.55923 0.74742 0.0
C602 C 0.91959 0.57272 0.73196 0.0
C603 C 0.93651 0.58798 0.73937 0.0
C604 C 0.91388 0.57245 0.70827 0.0
C605 C 0.89112 0.54061 0.74076 0.0
C606 C 0.93128 0.57137 0.69245 0.0
C607 C 0.92608 0.57386 0.67029 0.0
C608 C 0.90333 0.57711 0.66349 0.0
C609 C 0.88586 0.57735 0.67923 0.0
C610 C 0.89112 0.57544 0.70137 0.0
H611 H 0.89101 0.52649 0.75293 0.0
H612 H 0.87353 0.54776 0.7401 0.0
H613 H 0.89549 0.53331 0.72457 0.0
H614 H 0.94899 0.56917 0.69728 0.0
H615 H 0.9399 0.57366 0.65851 0.0
H616 H 0.43711 0.39735 0.09972 0.0
H617 H 0.44558 0.39921 0.06075 0.0
H618 H 0.38502 0.43996 0.05031 0.0
H619 H 0.37621 0.43808 0.08934 0.0
H620 H 0.41026 0.38211 0.0293 0.0
H621 H 0.43873 0.47163 0.01391 0.0
H622 H 0.44154 0.45802 0.04028 0.0
H623 H 0.41402 0.46764 0.03109 0.0
C624 C 0.42579 0.40712 0.08926 0.0
C625 C 0.40587 0.41744 0.09764 0.0
C626 C 0.4307 0.40815 0.06699 0.0
C627 C 0.41599 0.4198 0.05273 0.0
C628 C 0.39671 0.43111 0.06113 0.0
H629 H 0.39645 0.43183 0.9146 0.0
H630 H 0.39918 0.43766 0.95389 0.0
C631 C 0.39167 0.42995 0.08342 0.0
C632 C 0.41932 0.41781 0.02889 0.0
H633 H 0.4322 0.44823 0.98297 0.0
C634 C 0.41527 0.39648 0.01914 0.0
C635 C 0.42562 0.43667 0.0158 0.0
C636 C 0.43039 0.45982 0.0257 0.0
C637 C 0.4167 0.39359 0.99647 0.0
C638 C 0.42314 0.41243 0.98325 0.0
C639 C 0.42748 0.43375 0.9931 0.0
C640 C 0.42395 0.41062 0.9591 0.0
C641 C 0.41028 0.37063 0.9869 0.0
C642 C 0.43767 0.39409 0.94877 0.0
C643 C 0.43592 0.39048 0.92627 0.0
C644 C 0.42072 0.40365 0.91365 0.0
C645 C 0.40826 0.4213 0.92382 0.0
C646 C 0.40981 0.42469 0.94633 0.0
H647 H 0.40008 0.36017 0.99851 0.0
H648 H 0.40022 0.37274 0.97166 0.0
H649 H 0.4261 0.36094 0.98299 0.0
H650 H 0.44922 0.38348 0.95821 0.0
H651 H 0.44595 0.37694 0.91888 0.0
H652 H 0.56964 0.87023 0.33644 0.0
H653 H 0.56918 0.87937 0.29749 0.0
H654 H 0.5916 0.94813 0.31158 0.0
H655 H 0.59221 0.93921 0.35059 0.0
H656 H 0.55425 0.94054 0.27593 0.0
H657 H 0.63525 0.8909 0.268 0.0
H658 H 0.61209 0.87728 0.2824 0.0
H659 H 0.62545 0.90224 0.29377 0.0
C660 C 0.57402 0.88745 0.33134 0.0
C661 C 0.58121 0.90392 0.34662 0.0
C662 C 0.57377 0.89261 0.30908 0.0
C663 C 0.58055 0.91434 0.30175 0.0
C664 C 0.58633 0.93126 0.31699 0.0
H665 H 0.6329 0.9414 0.17174 0.0
H666 H 0.62555 0.94372 0.21095 0.0
C667 C 0.5867 0.92609 0.33926 0.0
C668 C 0.58379 0.91863 0.27819 0.0
H669 H 0.61867 0.90483 0.23557 0.0
C670 C 0.56833 0.93283 0.26705 0.0
C671 C 0.60241 0.90881 0.26683 0.0
C672 C 0.61991 0.89406 0.27829 0.0
C673 C 0.57073 0.937 0.24456 0.0
C674 C 0.58897 0.92656 0.23306 0.0
C675 C 0.6047 0.91282 0.2444 0.0
C676 C 0.59173 0.92871 0.20911 0.0
C677 C 0.55385 0.95261 0.23335 0.0
C678 C 0.57495 0.91998 0.19501 0.0
C679 C 0.57909 0.91864 0.17259 0.0
C680 C 0.60017 0.92585 0.16387 0.0
C681 C 0.61649 0.93567 0.1779 0.0
C682 C 0.61234 0.93699 0.20033 0.0
H683 H 0.54517 0.96415 0.24514 0.0
H684 H 0.56242 0.96319 0.2207 0.0
H685 H 0.54053 0.94207 0.22524 0.0
H686 H 0.55912 0.9131 0.20144 0.0
H687 H 0.56615 0.91096 0.16227 0.0
H688 H 0.11938 0.44406 0.67006 0.0
H689 H 0.11338 0.44756 0.70944 0.0
H690 H 0.05921 0.39748 0.70611 0.0
H691 H 0.06453 0.39446 0.66675 0.0
H692 H 0.04912 0.431 0.73513 0.0
H693 H 0.13715 0.39838 0.74969 0.0
H694 H 0.13627 0.42427 0.73394 0.0
H695 H 0.12414 0.39834 0.72304 0.0
C696 C 0.10596 0.43406 0.67767 0.0
C697 C 0.09265 0.41876 0.66531 0.0
C698 C 0.10265 0.43596 0.7002 0.0
C699 C 0.08628 0.4223 0.71081 0.0
C700 C 0.07206 0.40806 0.69831 0.0
H701 H 0.05945 0.37671 0.84205 0.0
H702 H 0.05722 0.38509 0.80295 0.0
C703 C 0.07516 0.40635 0.67578 0.0
C704 C 0.08482 0.42166 0.73499 0.0
H705 H 0.11578 0.40899 0.78071 0.0
C706 C 0.06371 0.42625 0.74511 0.0
C707 C 0.10381 0.41521 0.748 0.0
C708 C 0.12656 0.40854 0.73814 0.0
C709 C 0.06115 0.42468 0.76786 0.0
C710 C 0.08017 0.41836 0.78075 0.0
C711 C 0.10129 0.41402 0.77071 0.0
C712 C 0.07856 0.41532 0.80466 0.0
C713 C 0.03822 0.42983 0.77803 0.0
C714 C 0.09103 0.42973 0.81856 0.0
C715 C 0.09229 0.42506 0.84087 0.0
C716 C 0.08135 0.40566 0.84966 0.0
C717 C 0.06807 0.39178 0.83581 0.0
C718 C 0.06669 0.39658 0.81348 0.0
H719 H 0.02647 0.43851 0.76642 0.0
H720 H 0.03013 0.41355 0.78333 0.0
H721 H 0.04036 0.4408 0.79268 0.0
H722 H 0.10041 0.4442 0.81201 0.0
H723 H 0.10266 0.43612 0.85103 0.0
H724 H 0.59841 0.5646 0.90987 0.0
H725 H 0.59664 0.5562 0.94886 0.0
H726 H 0.55681 0.61736 0.95939 0.0
H727 H 0.55861 0.62611 0.92033 0.0
H728 H 0.61446 0.59159 0.97999 0.0
H729 H 0.52487 0.56407 0.99628 0.0
H730 H 0.53821 0.5609 0.96984 0.0
H731 H 0.52896 0.58861 0.97887 0.0
C732 C 0.58885 0.57606 0.92035 0.0
C733 C 0.57879 0.59614 0.91199 0.0
C734 C 0.58787 0.57119 0.94264 0.0
C735 C 0.57652 0.5861 0.95692 0.0
C736 C 0.56542 0.60552 0.94854 0.0
H737 H 0.5662 0.6068 0.09497 0.0
H738 H 0.55986 0.60379 0.05575 0.0
C739 C 0.56654 0.61052 0.92624 0.0
C740 C 0.57871 0.58285 0.98075 0.0
H741 H 0.54862 0.57055 0.027 0.0
C742 C 0.60015 0.58677 0.9903 0.0
C743 C 0.55992 0.57681 0.99403 0.0
C744 C 0.53665 0.57219 0.98434 0.0
C745 C 0.60324 0.58546 0.01294 0.0
C746 C 0.58447 0.57928 0.02635 0.0
C747 C 0.56303 0.57508 0.01671 0.0
C748 C 0.58651 0.57863 0.05049 0.0
C749 C 0.62633 0.59173 0.02229 0.0
C750 C 0.60298 0.56477 0.06075 0.0
C751 C 0.60688 0.56668 0.0832 0.0
C752 C 0.59407 0.58217 0.09582 0.0
C753 C 0.57646 0.59477 0.08573 0.0
C754 C 0.57278 0.59306 0.06328 0.0
H755 H 0.63678 0.60174 0.01053 0.0
H756 H 0.62446 0.60193 0.03747 0.0
H757 H 0.6359 0.57584 0.02625 0.0
H758 H 0.61333 0.55302 0.0513 0.0
H759 H 0.62038 0.55653 0.09052 0.0
H760 H 0.40408 0.06355 0.35024 0.0
H761 H 0.40492 0.05503 0.31123 0.0
H762 H 0.44285 0.1171 0.29941 0.0
H763 H 0.44194 0.12602 0.33848 0.0
H764 H 0.38652 0.0939 0.2796 0.0
H765 H 0.47378 0.05944 0.26321 0.0
H766 H 0.45978 0.05564 0.28926 0.0
H767 H 0.47058 0.08325 0.28173 0.0
C768 C 0.41304 0.07521 0.33946 0.0
C769 C 0.42282 0.09558 0.34748 0.0
C770 C 0.41347 0.07027 0.31717 0.0
C771 C 0.42399 0.0854 0.30255 0.0
C772 C 0.43482 0.10514 0.31054 0.0
H773 H 0.43437 0.10006 0.1636 0.0
H774 H 0.44093 0.09822 0.20284 0.0
C775 C 0.43424 0.11021 0.33285 0.0
C776 C 0.42131 0.08193 0.27882 0.0
H777 H 0.44962 0.0653 0.23279 0.0
C778 C 0.40021 0.08749 0.26932 0.0
C779 C 0.43933 0.07379 0.26561 0.0
C780 C 0.4622 0.06755 0.27533 0.0
C781 C 0.39675 0.08563 0.24676 0.0
C782 C 0.4147 0.07724 0.23342 0.0
C783 C 0.43581 0.0715 0.24303 0.0
C784 C 0.41227 0.07575 0.20935 0.0
C785 C 0.37419 0.09358 0.23738 0.0
C786 C 0.39453 0.06296 0.19978 0.0
C787 C 0.39054 0.06419 0.17731 0.0
C788 C 0.40449 0.07793 0.16396 0.0
C789 C 0.42323 0.08937 0.17339 0.0
C790 C 0.42704 0.08834 0.19586 0.0
H791 H 0.36484 0.10497 0.24885 0.0
H792 H 0.37677 0.10295 0.22182 0.0
H793 H 0.36319 0.07848 0.23411 0.0
H794 H 0.38332 0.05259 0.2098 0.0
H795 H 0.37612 0.05496 0.17051 0.0
H796 H 0.92128 0.87007 0.42453 0.0
H797 H 0.92139 0.87915 0.4633 0.0
H798 H 0.93004 0.95087 0.4482 0.0
H799 H 0.92842 0.94193 0.40917 0.0
H800 H 0.94889 0.89665 0.49114 0.0
H801 H 0.87442 0.9553 0.48457 0.0
H802 H 0.88425 0.93836 0.46191 0.0
H803 H 0.89867 0.96461 0.46902 0.0
C804 C 0.92344 0.88777 0.42945 0.0
C805 C 0.92457 0.90534 0.41383 0.0
C806 C 0.92348 0.89297 0.45167 0.0
C807 C 0.92506 0.9158 0.45878 0.0
C808 C 0.92791 0.93322 0.44318 0.0
H809 H 0.93562 0.93127 0.60172 0.0
H810 H 0.94516 0.93412 0.5629 0.0
C811 C 0.92725 0.92808 0.42088 0.0
C812 C 0.92282 0.92107 0.48244 0.0
H813 H 0.89089 0.95111 0.51934 0.0
C814 C 0.93624 0.90861 0.49731 0.0
C815 C 0.90613 0.93652 0.49055 0.0
C816 C 0.88989 0.94929 0.47571 0.0
C817 C 0.9329 0.91044 0.51992 0.0
C818 C 0.91643 0.92612 0.52803 0.0
C819 C 0.90362 0.93923 0.51318 0.0
C820 C 0.9106 0.92759 0.55163 0.0
C821 C 0.94615 0.89451 0.53468 0.0
C822 C 0.88776 0.92472 0.55831 0.0
C823 C 0.88217 0.92398 0.58044 0.0
C824 C 0.89938 0.92569 0.59636 0.0
C825 C 0.92207 0.92963 0.58975 0.0
C826 C 0.92756 0.93099 0.56757 0.0
H827 H 0.95307 0.87954 0.52564 0.0
H828 H 0.96087 0.90387 0.54182 0.0
H829 H 0.93524 0.88804 0.54817 0.0
H830 H 0.87429 0.92217 0.5464 0.0
H831 H 0.86454 0.92084 0.58504 0.0
H832 H 0.29926 0.07859 0.1294 0.0
H833 H 0.26526 0.08759 0.15079 0.0
H834 H 0.2519 0.14599 0.10963 0.0
H835 H 0.28595 0.13681 0.0878 0.0
H836 H 0.26174 0.12748 0.17383 0.0
H837 H 0.18778 0.11843 0.11753 0.0
H838 H 0.2155 0.10606 0.11182 0.0
H839 H 0.21071 0.13614 0.10763 0.0
C840 C 0.28881 0.09304 0.12452 0.0
C841 C 0.2954 0.10703 0.10691 0.0
C842 C 0.26937 0.09819 0.13682 0.0
C843 C 0.25598 0.11747 0.13189 0.0
C844 C 0.26174 0.13082 0.11359 0.0
H845 H 0.17305 0.1869 0.23024 0.0
H846 H 0.20047 0.1776 0.20131 0.0
C847 C 0.28122 0.12556 0.1011 0.0
C848 C 0.23767 0.12469 0.14735 0.0
H849 H 0.18018 0.13464 0.15234 0.0
C850 C 0.24391 0.12903 0.16909 0.0
C851 C 0.21438 0.12659 0.14124 0.0
C852 C 0.20656 0.12139 0.11834 0.0
C853 C 0.22759 0.13518 0.18486 0.0
C854 C 0.20436 0.13748 0.17871 0.0
C855 C 0.19802 0.13305 0.15699 0.0
C856 C 0.18647 0.14396 0.19485 0.0
C857 C 0.23534 0.13865 0.20811 0.0
C858 C 0.16892 0.12852 0.20027 0.0
C859 C 0.15317 0.13386 0.21676 0.0
C860 C 0.15473 0.15471 0.22815 0.0
C861 C 0.17162 0.17057 0.22195 0.0
C862 C 0.18736 0.16524 0.2055 0.0
H863 H 0.25245 0.13096 0.21114 0.0
H864 H 0.23651 0.15727 0.21155 0.0
H865 H 0.22291 0.13103 0.21975 0.0
H866 H 0.1677 0.11214 0.19206 0.0
H867 H 0.13971 0.12174 0.22043 0.0
H868 H 0.87158 0.68569 0.49872 0.0
H869 H 0.88041 0.71 0.46746 0.0
H870 H 0.84501 0.66312 0.42497 0.0
H871 H 0.83675 0.63808 0.45617 0.0
H872 H 0.90286 0.69216 0.42203 0.0
H873 H 0.81657 0.73301 0.41961 0.0
H874 H 0.82829 0.722 0.4448 0.0
H875 H 0.81918 0.70254 0.42395 0.0
C876 C 0.86628 0.68004 0.48272 0.0
C877 C 0.85404 0.65948 0.47995 0.0
C878 C 0.8711 0.69418 0.46486 0.0
C879 C 0.86346 0.68829 0.44392 0.0
C880 C 0.8511 0.66792 0.44102 0.0
H881 H 0.86774 0.78578 0.33392 0.0
H882 H 0.86009 0.75014 0.35409 0.0
C883 C 0.84639 0.65367 0.45887 0.0
C884 C 0.86809 0.70383 0.4253 0.0
H885 H 0.84465 0.74778 0.39606 0.0
C886 C 0.89009 0.70415 0.41614 0.0
C887 C 0.85131 0.71922 0.41748 0.0
C888 C 0.82745 0.71939 0.42688 0.0
C889 C 0.89596 0.71999 0.39978 0.0
C890 C 0.87956 0.73635 0.39283 0.0
C891 C 0.85724 0.73529 0.40133 0.0
C892 C 0.88588 0.75621 0.37879 0.0
C893 C 0.91976 0.71915 0.39028 0.0
C894 C 0.90305 0.77132 0.38576 0.0
C895 C 0.90745 0.79151 0.37431 0.0
C896 C 0.89466 0.79729 0.35564 0.0
C897 C 0.87803 0.78175 0.3481 0.0
C898 C 0.87356 0.76145 0.35969 0.0
H899 H 0.92688 0.70151 0.39096 0.0
H900 H 0.91996 0.7251 0.37308 0.0
H901 H 0.9312 0.73039 0.39999 0.0
H902 H 0.91244 0.76804 0.40067 0.0
H903 H 0.92037 0.80304 0.38064 0.0
H904 H 0.36396 0.33608 0.70548 0.0
H905 H 0.33803 0.34569 0.67531 0.0
H906 H 0.29384 0.38151 0.72005 0.0
H907 H 0.31903 0.3714 0.7502 0.0
H908 H 0.2897 0.33474 0.6722 0.0
H909 H 0.30531 0.4284 0.66997 0.0
H910 H 0.32492 0.40851 0.68269 0.0
H911 H 0.29934 0.41725 0.69669 0.0
C912 C 0.3488 0.34616 0.70887 0.0
C913 C 0.34408 0.35363 0.73023 0.0
C914 C 0.33403 0.35165 0.6916 0.0
C915 C 0.31428 0.36478 0.69534 0.0
C916 C 0.30934 0.37195 0.71667 0.0
H917 H 0.192 0.41306 0.6383 0.0
H918 H 0.22701 0.40537 0.65842 0.0
C919 C 0.32397 0.36634 0.73392 0.0
C920 C 0.29814 0.3702 0.67729 0.0
H921 H 0.27203 0.41494 0.65136 0.0
C922 C 0.28606 0.35223 0.66733 0.0
C923 C 0.29347 0.39302 0.67097 0.0
C924 C 0.30657 0.41293 0.68047 0.0
C925 C 0.26847 0.35656 0.65216 0.0
C926 C 0.2632 0.37949 0.64642 0.0
C927 C 0.27603 0.39737 0.65571 0.0
C928 C 0.24289 0.38544 0.63282 0.0
C929 C 0.25484 0.33662 0.6434 0.0
C930 C 0.2403 0.37741 0.61132 0.0
C931 C 0.22004 0.38175 0.59963 0.0
C932 C 0.20207 0.39427 0.60924 0.0
C933 C 0.20532 0.4032 0.63036 0.0
C934 C 0.22542 0.39885 0.64195 0.0
H935 H 0.25807 0.32062 0.65272 0.0
H936 H 0.23621 0.3404 0.64388 0.0
H937 H 0.25972 0.33351 0.62616 0.0
H938 H 0.25375 0.36745 0.60372 0.0
H939 H 0.21817 0.37466 0.58341 0.0
H940 H 0.63842 0.86936 0.95857 0.0
H941 H 0.62861 0.84213 0.9295 0.0
H942 H 0.65281 0.78641 0.96966 0.0
H943 H 0.66134 0.81348 0.99905 0.0
H944 H 0.65081 0.81362 0.90508 0.0
H945 H 0.5915 0.76226 0.9553 0.0
H946 H 0.60329 0.78897 0.96478 0.0
H947 H 0.61945 0.76275 0.96728 0.0
C948 C 0.6415 0.85125 0.96113 0.0
C949 C 0.65017 0.84339 0.98113 0.0
C950 C 0.63595 0.8357 0.94453 0.0
C951 C 0.63932 0.81204 0.94752 0.0
C952 C 0.64914 0.8044 0.96718 0.0
H953 H 0.64398 0.7077 0.84616 0.0
H954 H 0.65186 0.74103 0.86914 0.0
C955 C 0.65419 0.81987 0.98392 0.0
C956 C 0.63257 0.79536 0.93019 0.0
H957 H 0.60383 0.74519 0.92193 0.0
C958 C 0.64033 0.79878 0.90872 0.0
C959 C 0.61842 0.77621 0.93467 0.0
C960 C 0.60748 0.77248 0.9567 0.0
C961 C 0.63485 0.78334 0.89184 0.0
C962 C 0.62198 0.76339 0.89667 0.0
C963 C 0.61385 0.76029 0.91806 0.0
C964 C 0.61683 0.74521 0.88017 0.0
C965 C 0.64256 0.78897 0.86898 0.0
C966 C 0.59456 0.73618 0.87854 0.0
C967 C 0.59024 0.71667 0.86596 0.0
C968 C 0.60795 0.70608 0.85422 0.0
C969 C 0.62991 0.71587 0.85464 0.0
C970 C 0.63439 0.73503 0.86777 0.0
H971 H 0.64434 0.80777 0.86667 0.0
H972 H 0.65962 0.78117 0.86606 0.0
H973 H 0.63039 0.78233 0.85659 0.0
H974 H 0.58063 0.74364 0.8878 0.0
H975 H 0.5732 0.70933 0.86606 0.0
H976 H 0.17874 0.3695 0.01444 0.0
H977 H 0.20355 0.37855 0.04517 0.0
H978 H 0.15906 0.34085 0.08819 0.0
H979 H 0.13345 0.33235 0.05747 0.0
H980 H 0.18962 0.40088 0.0884 0.0
H981 H 0.22641 0.313 0.09478 0.0
H982 H 0.21336 0.32326 0.06992 0.0
H983 H 0.19578 0.31615 0.09289 0.0
C984 C 0.17367 0.36373 0.03045 0.0
C985 C 0.15359 0.35079 0.0335 0.0
C986 C 0.18813 0.36867 0.04802 0.0
C987 C 0.18313 0.36042 0.06896 0.0
C988 C 0.16324 0.34736 0.07214 0.0
H989 H 0.28201 0.36694 0.17786 0.0
H990 H 0.24597 0.35962 0.15829 0.0
C991 C 0.14864 0.34254 0.05457 0.0
C992 C 0.19911 0.36529 0.08723 0.0
H993 H 0.24208 0.34137 0.11744 0.0
C994 C 0.20092 0.38783 0.09496 0.0
C995 C 0.21364 0.34819 0.09592 0.0
C996 C 0.21242 0.32376 0.088 0.0
C997 C 0.21733 0.39388 0.11071 0.0
C998 C 0.2328 0.37706 0.11851 0.0
C999 C 0.23027 0.35428 0.11149 0.0
C1000 C 0.2532 0.38317 0.13191 0.0
C1001 C 0.21806 0.41833 0.11867 0.0
C1002 C 0.26916 0.39895 0.12375 0.0
C1003 C 0.28958 0.40319 0.13485 0.0
C1004 C 0.29478 0.3916 0.15438 0.0
C1005 C 0.27849 0.3763 0.16298 0.0
C1006 C 0.25794 0.37201 0.15175 0.0
H1007 H 0.20088 0.42644 0.11769 0.0
H1008 H 0.22426 0.41938 0.13575 0.0
H1009 H 0.2298 0.42837 0.10813 0.0
H1010 H 0.26626 0.40738 0.10825 0.0
H1011 H 0.30167 0.41506 0.12766 0.0
H1012 H 0.58254 0.79704 0.38128 0.0
H1013 H 0.59156 0.76205 0.36127 0.0
H1014 H 0.64949 0.75014 0.40333 0.0
H1015 H 0.64043 0.78529 0.42369 0.0
H1016 H 0.65892 0.75104 0.35663 0.0
H1017 H 0.58699 0.69287 0.37685 0.0
H1018 H 0.57837 0.72144 0.36964 0.0
H1019 H 0.59498 0.71681 0.39392 0.0
C1020 C 0.5969 0.78673 0.38664 0.0
C1021 C 0.61075 0.79396 0.40411 0.0
C1022 C 0.60199 0.76666 0.3752 0.0
C1023 C 0.62111 0.75339 0.38087 0.0
C1024 C 0.63456 0.76006 0.39879 0.0
H1025 H 0.68405 0.64756 0.29677 0.0
H1026 H 0.67712 0.67343 0.32762 0.0
C1027 C 0.62929 0.78007 0.41048 0.0
C1028 C 0.62805 0.73396 0.36665 0.0
H1029 H 0.60862 0.6837 0.34494 0.0
C1030 C 0.64818 0.73608 0.35431 0.0
C1031 C 0.61389 0.71459 0.36355 0.0
C1032 C 0.59243 0.7111 0.37681 0.0
C1033 C 0.65393 0.71997 0.33815 0.0
C1034 C 0.63944 0.70084 0.33462 0.0
C1035 C 0.61973 0.69833 0.34757 0.0
C1036 C 0.64353 0.68413 0.31664 0.0
C1037 C 0.6748 0.72429 0.32423 0.0
C1038 C 0.62662 0.68067 0.30069 0.0
C1039 C 0.63042 0.66567 0.28329 0.0
C1040 C 0.65136 0.65398 0.28122 0.0
C1041 C 0.66794 0.65671 0.29765 0.0
C1042 C 0.66407 0.67163 0.3152 0.0
H1043 H 0.68071 0.74235 0.3254 0.0
H1044 H 0.68898 0.7131 0.32983 0.0
H1045 H 0.67127 0.72032 0.30684 0.0
H1046 H 0.61049 0.6898 0.30158 0.0
H1047 H 0.61683 0.66314 0.27153 0.0
H1048 H 0.21302 0.13812 0.67253 0.0
H1049 H 0.24654 0.14681 0.64968 0.0
H1050 H 0.23027 0.08939 0.60828 0.0
H1051 H 0.19672 0.08098 0.63057 0.0
H1052 H 0.28579 0.12268 0.63456 0.0
H1053 H 0.22704 0.14385 0.56654 0.0
H1054 H 0.21715 0.14 0.59417 0.0
H1055 H 0.22257 0.11553 0.57708 0.0
C1056 C 0.21692 0.12706 0.65885 0.0
C1057 C 0.20207 0.10903 0.6532 0.0
C1058 C 0.23601 0.13211 0.64574 0.0
C1059 C 0.24054 0.11913 0.62691 0.0
C1060 C 0.22677 0.10003 0.62237 0.0
H1061 H 0.33272 0.11465 0.51817 0.0
H1062 H 0.30489 0.108 0.54724 0.0
C1063 C 0.20767 0.09515 0.63523 0.0
C1064 C 0.25857 0.12618 0.61112 0.0
H1065 H 0.26652 0.1399 0.55744 0.0
C1066 C 0.2816 0.12669 0.61776 0.0
C1067 C 0.25307 0.13166 0.58922 0.0
C1068 C 0.2286 0.13299 0.58135 0.0
C1069 C 0.29928 0.13154 0.60282 0.0
C1070 C 0.29375 0.13608 0.58078 0.0
C1071 C 0.27073 0.1362 0.57432 0.0
C1072 C 0.31153 0.13999 0.56385 0.0
C1073 C 0.32382 0.13106 0.61045 0.0
C1074 C 0.32454 0.16021 0.56353 0.0
C1075 C 0.34017 0.16429 0.5466 0.0
C1076 C 0.3429 0.14832 0.52961 0.0
C1077 C 0.33034 0.12778 0.53042 0.0
C1078 C 0.31464 0.12379 0.54722 0.0
H1079 H 0.32547 0.12416 0.62727 0.0
H1080 H 0.33439 0.12048 0.59926 0.0
H1081 H 0.33084 0.14873 0.61023 0.0
H1082 H 0.32227 0.17302 0.57612 0.0
H1083 H 0.3498 0.18015 0.54658 0.0
H1084 H 0.92141 0.69887 0.88101 0.0
H1085 H 0.91294 0.73295 0.85948 0.0
H1086 H 0.85453 0.74712 0.90034 0.0
H1087 H 0.86333 0.71314 0.92241 0.0
H1088 H 0.87399 0.73692 0.83609 0.0
H1089 H 0.8814 0.81087 0.89267 0.0
H1090 H 0.89317 0.78302 0.89896 0.0
H1091 H 0.86301 0.78822 0.90197 0.0
C1092 C 0.90709 0.70955 0.88579 0.0
C1093 C 0.89301 0.70326 0.9034 0.0
C1094 C 0.90223 0.72902 0.87341 0.0
C1095 C 0.8831 0.74267 0.87822 0.0
C1096 C 0.86962 0.73713 0.8965 0.0
H1097 H 0.81901 0.84877 0.79652 0.0
H1098 H 0.82682 0.82106 0.82582 0.0
C1099 C 0.87465 0.71768 0.90911 0.0
C1100 C 0.87617 0.761 0.86264 0.0
H1101 H 0.86661 0.81858 0.85733 0.0
C1102 C 0.87243 0.75477 0.84079 0.0
C1103 C 0.87387 0.78428 0.86876 0.0
C1104 C 0.87824 0.79212 0.89182 0.0
C1105 C 0.86678 0.77111 0.8249 0.0
C1106 C 0.86496 0.79442 0.83089 0.0
C1107 C 0.86808 0.80069 0.8528 0.0
C1108 C 0.86072 0.81243 0.81427 0.0
C1109 C 0.8628 0.76333 0.80173 0.0
C1110 C 0.8774 0.81716 0.79844 0.0
C1111 C 0.87302 0.83295 0.7818 0.0
C1112 C 0.85174 0.84414 0.78049 0.0
C1113 C 0.83541 0.84013 0.79692 0.0
C1114 C 0.83986 0.82436 0.81366 0.0
H1115 H 0.85983 0.74456 0.80073 0.0
H1116 H 0.84786 0.77234 0.79449 0.0
H1117 H 0.87809 0.76749 0.79175 0.0
H1118 H 0.89379 0.80848 0.79886 0.0
H1119 H 0.88636 0.83641 0.77001 0.0
H1120 H 0.65015 0.68393 0.71356 0.0
H1121 H 0.67583 0.67675 0.68263 0.0
H1122 H 0.68949 0.60889 0.70729 0.0
H1123 H 0.66306 0.61555 0.73742 0.0
H1124 H 0.72089 0.66795 0.68272 0.0
H1125 H 0.67638 0.59467 0.64463 0.0
H1126 H 0.66309 0.61221 0.6653 0.0
H1127 H 0.68223 0.58932 0.67287 0.0
C1128 C 0.65852 0.66743 0.71225 0.0
C1129 C 0.65504 0.65054 0.72827 0.0
C1130 C 0.67321 0.66335 0.69459 0.0
C1131 C 0.68446 0.64218 0.69243 0.0
C1132 C 0.68074 0.62521 0.7083 0.0
H1133 H 0.79961 0.58457 0.62956 0.0
H1134 H 0.76466 0.59364 0.6496 0.0
C1135 C 0.66598 0.62924 0.72584 0.0
C1136 C 0.70101 0.63816 0.67432 0.0
H1137 H 0.71614 0.59956 0.6349 0.0
C1138 C 0.7196 0.65324 0.67199 0.0
C1139 C 0.69932 0.61902 0.66019 0.0
C1140 C 0.67903 0.60304 0.66071 0.0
C1141 C 0.73712 0.64902 0.65678 0.0
C1142 C 0.73596 0.6293 0.64343 0.0
C1143 C 0.717 0.61466 0.64517 0.0
C1144 C 0.75541 0.62244 0.62925 0.0
C1145 C 0.75734 0.66508 0.65579 0.0
C1146 C 0.7614 0.63516 0.61064 0.0
C1147 C 0.78138 0.62986 0.59894 0.0
C1148 C 0.79576 0.61192 0.60585 0.0
C1149 C 0.78901 0.59858 0.62386 0.0
C1150 C 0.76901 0.60372 0.63534 0.0
H1151 H 0.75693 0.6781 0.66899 0.0
H1152 H 0.7736 0.65528 0.65703 0.0
H1153 H 0.75736 0.67413 0.63988 0.0
H1154 H 0.75101 0.64958 0.60558 0.0
H1155 H 0.78615 0.64052 0.58521 0.0
H1156 H 0.38542 0.16603 0.99159 0.0
H1157 H 0.39286 0.19268 0.96175 0.0
H1158 H 0.32735 0.1761 0.93338 0.0
H1159 H 0.31927 0.1503 0.96398 0.0
H1160 H 0.39657 0.18623 0.91861 0.0
H1161 H 0.32361 0.24493 0.93456 0.0
H1162 H 0.33223 0.22312 0.9537 0.0
H1163 H 0.3154 0.21567 0.93017 0.0
C1164 C 0.37226 0.16857 0.9794 0.0
C1165 C 0.3513 0.15678 0.9807 0.0
C1166 C 0.37671 0.18356 0.9621 0.0
C1167 C 0.36045 0.18691 0.94552 0.0
C1168 C 0.33989 0.17441 0.94628 0.0
H1169 H 0.3658 0.28449 0.8358 0.0
H1170 H 0.35685 0.24995 0.85711 0.0
C1171 C 0.33536 0.15952 0.96371 0.0
C1172 C 0.36526 0.20339 0.92749 0.0
H1173 H 0.34612 0.25273 0.90351 0.0
C1174 C 0.38546 0.20071 0.91527 0.0
C1175 C 0.35077 0.22231 0.92302 0.0
C1176 C 0.3294 0.22687 0.93615 0.0
C1177 C 0.39171 0.21654 0.89903 0.0
C1178 C 0.37746 0.23563 0.8949 0.0
C1179 C 0.35693 0.23797 0.90659 0.0
C1180 C 0.38455 0.25456 0.88013 0.0
C1181 C 0.41363 0.21285 0.88652 0.0
C1182 C 0.40329 0.26836 0.88577 0.0
C1183 C 0.40832 0.28808 0.87377 0.0
C1184 C 0.39479 0.29443 0.85576 0.0
C1185 C 0.37671 0.27995 0.84942 0.0
C1186 C 0.37149 0.2603 0.86166 0.0
H1187 H 0.41937 0.19471 0.88733 0.0
H1188 H 0.41153 0.2178 0.86915 0.0
H1189 H 0.42729 0.22371 0.89368 0.0
H1190 H 0.41342 0.26447 0.90011 0.0
H1191 H 0.42232 0.29888 0.87913 0.0
H1192 H 0.83831 0.88725 0.23833 0.0
H1193 H 0.81173 0.89379 0.20822 0.0
H1194 H 0.82688 0.82659 0.18278 0.0
H1195 H 0.85269 0.81952 0.21363 0.0
H1196 H 0.81814 0.89488 0.16456 0.0
H1197 H 0.75781 0.82454 0.18521 0.0
H1198 H 0.77995 0.83387 0.20368 0.0
H1199 H 0.78687 0.8155 0.18108 0.0
C1200 C 0.83552 0.8736 0.2267 0.0
C1201 C 0.84689 0.85248 0.2289 0.0
C1202 C 0.82057 0.8775 0.20926 0.0
C1203 C 0.81682 0.86049 0.19346 0.0
C1204 C 0.82893 0.83974 0.19508 0.0
H1205 H 0.71572 0.86273 0.08655 0.0
H1206 H 0.75075 0.85361 0.10704 0.0
C1207 C 0.84381 0.83578 0.21263 0.0
C1208 C 0.80024 0.86468 0.1754 0.0
H1209 H 0.74981 0.84581 0.15346 0.0
C1210 C 0.80328 0.88405 0.16207 0.0
C1211 C 0.78083 0.85054 0.17204 0.0
C1212 C 0.77598 0.83006 0.18635 0.0
C1213 C 0.7873 0.88987 0.14583 0.0
C1214 C 0.76765 0.87607 0.14288 0.0
C1215 C 0.76498 0.85628 0.15564 0.0
C1216 C 0.74849 0.88307 0.12834 0.0
C1217 C 0.79143 0.9109 0.13209 0.0
C1218 C 0.73584 0.90283 0.13326 0.0
C1219 C 0.71585 0.90797 0.12173 0.0
C1220 C 0.70807 0.89352 0.10493 0.0
C1221 C 0.72139 0.87435 0.09922 0.0
C1222 C 0.74132 0.86904 0.111 0.0
H1223 H 0.80983 0.91572 0.13189 0.0
H1224 H 0.78556 0.90817 0.11506 0.0
H1225 H 0.78164 0.92548 0.13902 0.0
H1226 H 0.74081 0.91372 0.14676 0.0
H1227 H 0.70597 0.92283 0.12658 0.0
H1228 H 0.13537 0.21985 0.3341 0.0
H1229 H 0.14455 0.25458 0.35507 0.0
H1230 H 0.09091 0.23843 0.4008 0.0
H1231 H 0.0818 0.20378 0.38021 0.0
H1232 H 0.0971 0.28915 0.38493 0.0
H1233 H 0.17369 0.24533 0.41973 0.0
H1234 H 0.1688 0.24421 0.39072 0.0
H1235 H 0.14984 0.22933 0.4088 0.0
C1236 C 0.12518 0.224 0.34832 0.0
C1237 C 0.10792 0.20898 0.35554 0.0
C1238 C 0.13054 0.24376 0.36035 0.0
C1239 C 0.11852 0.24893 0.37958 0.0
C1240 C 0.10041 0.23473 0.38604 0.0
H1241 H 0.11366 0.34238 0.48748 0.0
H1242 H 0.10611 0.31635 0.45719 0.0
C1243 C 0.09524 0.21491 0.37423 0.0
C1244 C 0.12572 0.26802 0.39403 0.0
H1245 H 0.16417 0.28132 0.43405 0.0
C1246 C 0.11192 0.28762 0.39551 0.0
C1247 C 0.14508 0.26599 0.40773 0.0
C1248 C 0.16029 0.2451 0.40687 0.0
C1249 C 0.11678 0.30513 0.41059 0.0
C1250 C 0.13554 0.30261 0.42509 0.0
C1251 C 0.14976 0.28329 0.42306 0.0
C1252 C 0.14006 0.31906 0.44322 0.0
C1253 C 0.10179 0.32619 0.4107 0.0
C1254 C 0.16185 0.32889 0.44596 0.0
C1255 C 0.16641 0.34328 0.46375 0.0
C1256 C 0.14936 0.34789 0.47933 0.0
C1257 C 0.12743 0.3385 0.47626 0.0
C1258 C 0.12293 0.324 0.45861 0.0
H1259 H 0.09405 0.32923 0.3944 0.0
H1260 H 0.08758 0.32366 0.42247 0.0
H1261 H 0.11156 0.34169 0.41555 0.0
H1262 H 0.17539 0.32535 0.43437 0.0
H1263 H 0.1834 0.35048 0.46554 0.0
H1264 H 0.65556 0.81395 0.54281 0.0
H1265 H 0.68035 0.82132 0.57435 0.0
H1266 H 0.68348 0.89284 0.55687 0.0
H1267 H 0.6579 0.88573 0.52607 0.0
H1268 H 0.72357 0.83639 0.57466 0.0
H1269 H 0.6704 0.89782 0.62085 0.0
H1270 H 0.6591 0.88108 0.59857 0.0
H1271 H 0.67469 0.90713 0.5933 0.0
C1272 C 0.66139 0.83127 0.54585 0.0
C1273 C 0.65529 0.84915 0.53162 0.0
C1274 C 0.67557 0.83546 0.56385 0.0
C1275 C 0.68366 0.85769 0.56818 0.0
C1276 C 0.6772 0.87562 0.55418 0.0
H1277 H 0.79374 0.9206 0.63473 0.0
H1278 H 0.75914 0.91043 0.61455 0.0
C1279 C 0.66294 0.87145 0.53627 0.0
C1280 C 0.69998 0.86191 0.58644 0.0
H1281 H 0.71067 0.89725 0.62978 0.0
C1282 C 0.72054 0.8494 0.58695 0.0
C1283 C 0.69605 0.87883 0.60259 0.0
C1284 C 0.67375 0.8918 0.60396 0.0
C1285 C 0.73766 0.85412 0.60243 0.0
C1286 C 0.73413 0.87174 0.61789 0.0
C1287 C 0.71333 0.88376 0.61789 0.0
C1288 C 0.75282 0.87929 0.63264 0.0
C1289 C 0.7599 0.84099 0.60154 0.0
C1290 C 0.76023 0.86558 0.65011 0.0
C1291 C 0.77996 0.8715 0.66192 0.0
C1292 C 0.79268 0.89107 0.65621 0.0
C1293 C 0.78439 0.90537 0.63949 0.0
C1294 C 0.7646 0.8996 0.62793 0.0
H1295 H 0.76078 0.82933 0.58725 0.0
H1296 H 0.77459 0.85305 0.60083 0.0
H1297 H 0.76177 0.83059 0.61659 0.0
H1298 H 0.75128 0.84986 0.65403 0.0
H1299 H 0.786 0.86006 0.67459 0.0
H1300 H 0.07763 0.29929 0.88276 0.0
H1301 H 0.08637 0.26476 0.86185 0.0
H1302 H 0.14218 0.24945 0.90548 0.0
H1303 H 0.13333 0.28401 0.92679 0.0
H1304 H 0.1526 0.2533 0.85782 0.0
H1305 H 0.08058 0.1942 0.8759 0.0
H1306 H 0.07272 0.22344 0.87042 0.0
H1307 H 0.08921 0.2168 0.89431 0.0
C1308 C 0.09142 0.2883 0.88826 0.0
C1309 C 0.10477 0.2944 0.90647 0.0
C1310 C 0.09636 0.26852 0.8763 0.0
C1311 C 0.11486 0.25449 0.88215 0.0
C1312 C 0.12773 0.25999 0.90079 0.0
H1313 H 0.18095 0.1516 0.79742 0.0
H1314 H 0.17284 0.17713 0.82821 0.0
C1315 C 0.12256 0.27966 0.91301 0.0
C1316 C 0.12196 0.23556 0.86742 0.0
H1317 H 0.10348 0.18532 0.84496 0.0
C1318 C 0.14209 0.23822 0.8552 0.0
C1319 C 0.10806 0.2161 0.86391 0.0
C1320 C 0.0865 0.21225 0.87691 0.0
C1321 C 0.1482 0.22246 0.83885 0.0
C1322 C 0.13412 0.20308 0.83505 0.0
C1323 C 0.11431 0.20011 0.8478 0.0
C1324 C 0.13886 0.18643 0.81714 0.0
C1325 C 0.16902 0.22744 0.82506 0.0
C1326 C 0.12212 0.18216 0.8012 0.0
C1327 C 0.12658 0.16725 0.78386 0.0
C1328 C 0.14804 0.15653 0.78181 0.0
C1329 C 0.16445 0.16003 0.79825 0.0
C1330 C 0.1599 0.17479 0.81577 0.0
H1331 H 0.17421 0.24572 0.82613 0.0
H1332 H 0.18358 0.21689 0.83092 0.0
H1333 H 0.16585 0.22319 0.80767 0.0
H1334 H 0.10561 0.19058 0.80204 0.0
H1335 H 0.1131 0.16403 0.77213 0.0
H1336 H 0.86404 0.66378 0.05337 0.0
H1337 H 0.83889 0.65506 0.08433 0.0
H1338 H 0.79393 0.61745 0.04168 0.0
H1339 H 0.81823 0.62682 0.01067 0.0
H1340 H 0.78864 0.66552 0.08644 0.0
H1341 H 0.80917 0.57303 0.09457 0.0
H1342 H 0.82826 0.59322 0.08155 0.0
H1343 H 0.80353 0.5828 0.06726 0.0
C1344 C 0.84887 0.65352 0.05059 0.0
C1345 C 0.84366 0.64537 0.02954 0.0
C1346 C 0.83455 0.64854 0.06832 0.0
C1347 C 0.81481 0.63521 0.06537 0.0
C1348 C 0.80941 0.62727 0.04441 0.0
H1349 H 0.6959 0.58429 0.12533 0.0
H1350 H 0.7309 0.59212 0.10534 0.0
C1351 C 0.82356 0.63243 0.02666 0.0
C1352 C 0.79916 0.63033 0.08389 0.0
H1353 H 0.77594 0.5863 0.11312 0.0
C1354 C 0.78606 0.64829 0.09259 0.0
C1355 C 0.79592 0.60784 0.09183 0.0
C1356 C 0.81006 0.58808 0.0835 0.0
C1357 C 0.7688 0.64414 0.10811 0.0
C1358 C 0.76496 0.62145 0.11554 0.0
C1359 C 0.77887 0.60369 0.10751 0.0
C1360 C 0.74488 0.61534 0.12939 0.0
C1361 C 0.75393 0.66386 0.11538 0.0
C1362 C 0.74128 0.62516 0.15008 0.0
C1363 C 0.72098 0.62077 0.16167 0.0
C1364 C 0.70402 0.60641 0.15277 0.0
C1365 C 0.70841 0.59563 0.13266 0.0
C1366 C 0.72853 0.60004 0.12116 0.0
H1367 H 0.75618 0.67921 0.10488 0.0
H1368 H 0.73557 0.65893 0.1152 0.0
H1369 H 0.75856 0.66869 0.13231 0.0
H1370 H 0.75391 0.6366 0.15703 0.0
H1371 H 0.7182 0.62931 0.17712 0.0
H1372 H 0.31528 0.34713 0.29588 0.0
H1373 H 0.32314 0.32182 0.32698 0.0
H1374 H 0.39297 0.31417 0.30526 0.0
H1375 H 0.38552 0.34029 0.27501 0.0
H1376 H 0.33531 0.27779 0.32688 0.0
H1377 H 0.40341 0.32672 0.36849 0.0
H1378 H 0.38601 0.33909 0.34721 0.0
H1379 H 0.41053 0.32173 0.34047 0.0
C1380 C 0.33236 0.3402 0.29791 0.0
C1381 C 0.3496 0.34521 0.28264 0.0
C1382 C 0.33683 0.32571 0.31566 0.0
C1383 C 0.35873 0.31619 0.31868 0.0
C1384 C 0.37605 0.32156 0.30362 0.0
H1385 H 0.42086 0.20352 0.38262 0.0
H1386 H 0.41082 0.23829 0.36263 0.0
C1387 C 0.37163 0.33614 0.286 0.0
C1388 C 0.36319 0.29961 0.33671 0.0
H1389 H 0.40107 0.28648 0.37744 0.0
C1390 C 0.34942 0.27993 0.3382 0.0
C1391 C 0.38157 0.30236 0.3516 0.0
C1392 C 0.39605 0.32375 0.35202 0.0
C1393 C 0.35422 0.26247 0.35334 0.0
C1394 C 0.37322 0.26476 0.36749 0.0
C1395 C 0.38653 0.28474 0.36655 0.0
C1396 C 0.38066 0.24563 0.38183 0.0
C1397 C 0.33959 0.24116 0.35344 0.0
C1398 C 0.36751 0.23868 0.39985 0.0
C1399 C 0.37336 0.21883 0.41153 0.0
C1400 C 0.39233 0.20551 0.4052 0.0
C1401 C 0.4061 0.2133 0.38788 0.0
C1402 C 0.40039 0.23319 0.37642 0.0
H1403 H 0.3272 0.24085 0.3397 0.0
H1404 H 0.35054 0.22563 0.35249 0.0
H1405 H 0.32983 0.24031 0.36895 0.0
H1406 H 0.3523 0.24816 0.40439 0.0
H1407 H 0.36233 0.21324 0.42469 0.0
H1408 H 0.07698 0.07206 0.28688 0.0
H1409 H 0.0582 0.03542 0.27879 0.0
H1410 H 0.99288 0.06476 0.296 0.0
H1411 H 0.0117 0.10142 0.30417 0.0
H1412 H 0.03225 0.01335 0.31407 0.0
H1413 H 0.98064 0.02615 0.23886 0.0
H1414 H 0.00556 0.04331 0.24516 0.0
H1415 H 0.97904 0.04843 0.2591 0.0
C1416 C 0.05852 0.07084 0.28821 0.0
C1417 C 0.04568 0.08944 0.29601 0.0
C1418 C 0.04785 0.04994 0.28369 0.0
C1419 C 0.02415 0.04746 0.28664 0.0
C1420 C 0.01113 0.06644 0.29328 0.0
H1421 H 0.92577 0.93912 0.29842 0.0
H1422 H 0.94633 0.97495 0.29116 0.0
C1423 C 0.02184 0.0873 0.29798 0.0
C1424 C 0.01359 0.02442 0.28573 0.0
H1425 H 0.97359 0.99218 0.25914 0.0
C1426 C 0.01963 0.00856 0.30191 0.0
C1427 C 0.99696 0.01844 0.27001 0.0
C1428 C 0.99019 0.03486 0.25216 0.0
C1429 C 0.00896 0.98708 0.30327 0.0
C1430 C 0.99229 0.98098 0.28751 0.0
C1431 C 0.9865 0.99677 0.27109 0.0
C1432 C 0.97967 0.95892 0.28879 0.0
C1433 C 0.01489 0.97163 0.32221 0.0
C1434 C 0.99144 0.93789 0.28902 0.0
C1435 C 0.97972 0.91749 0.2934 0.0
C1436 C 0.95603 0.9178 0.29702 0.0
C1437 C 0.94404 0.93856 0.29542 0.0
C1438 C 0.95578 0.95898 0.29132 0.0
H1439 H 0.02326 0.98121 0.33569 0.0
H1440 H 0.99937 0.96307 0.32878 0.0
H1441 H 0.027 0.95821 0.31663 0.0
H1442 H 0.0098 0.93736 0.28662 0.0
H1443 H 0.98923 0.90161 0.29471 0.0
H1444 H 0.06405 0.42159 0.5406 0.0
H1445 H 0.02743 0.44014 0.5319 0.0
H1446 H 0.05789 0.50633 0.54352 0.0
H1447 H 0.09451 0.48774 0.55226 0.0
H1448 H 0.00601 0.46864 0.56483 0.0
H1449 H 0.01877 0.51506 0.48667 0.0
H1450 H 0.03612 0.49079 0.49463 0.0
H1451 H 0.04107 0.51838 0.50666 0.0
C1452 C 0.06304 0.44013 0.54058 0.0
C1453 C 0.082 0.45335 0.54685 0.0
C1454 C 0.04216 0.45068 0.5357 0.0
C1455 C 0.04003 0.4746 0.53684 0.0
C1456 C 0.0593 0.48788 0.54213 0.0
H1457 H 0.93427 0.57577 0.54471 0.0
H1458 H 0.96927 0.55389 0.53739 0.0
C1459 C 0.08014 0.47731 0.54715 0.0
C1460 C 0.01712 0.48541 0.53545 0.0
H1461 H 0.98534 0.52439 0.50701 0.0
C1462 C 0.00132 0.48059 0.55203 0.0
C1463 C 0.01127 0.50118 0.5189 0.0
C1464 C 0.02759 0.50662 0.50057 0.0
C1465 C 0.98006 0.49175 0.55299 0.0
C1466 C 0.9741 0.50761 0.53643 0.0
C1467 C 0.98981 0.5121 0.51958 0.0
C1468 C 0.95239 0.52086 0.53732 0.0
C1469 C 0.96476 0.48725 0.57239 0.0
C1470 C 0.9311 0.50969 0.53874 0.0
C1471 C 0.91119 0.52217 0.5432 0.0
C1472 C 0.91223 0.54602 0.54568 0.0
C1473 C 0.93314 0.55737 0.54262 0.0
C1474 C 0.9531 0.54488 0.53849 0.0
H1475 H 0.97434 0.47946 0.58618 0.0
H1476 H 0.95662 0.50331 0.57822 0.0
H1477 H 0.95104 0.47511 0.56759 0.0
H1478 H 0.93004 0.49123 0.53733 0.0
H1479 H 0.89518 0.51315 0.54561 0.0
H1480 H 0.48972 0.4024 0.80388 0.0
H1481 H 0.50845 0.43913 0.79573 0.0
H1482 H 0.44329 0.46785 0.77709 0.0
H1483 H 0.42455 0.43123 0.78533 0.0
H1484 H 0.50649 0.47222 0.75593 0.0
H1485 H 0.46793 0.5032 0.83364 0.0
H1486 H 0.47104 0.47309 0.82757 0.0
H1487 H 0.44917 0.48956 0.81431 0.0
C1488 C 0.47958 0.41641 0.79745 0.0
C1489 C 0.45577 0.41415 0.79526 0.0
C1490 C 0.49025 0.4373 0.7928 0.0
C1491 C 0.47718 0.45617 0.78599 0.0
C1492 C 0.45362 0.45345 0.78236 0.0
H1493 H 0.51231 0.6008 0.79723 0.0
H1494 H 0.49179 0.56521 0.78855 0.0
C1495 C 0.44297 0.43255 0.78695 0.0
C1496 C 0.48765 0.47925 0.78532 0.0
H1497 H 0.49101 0.52898 0.81433 0.0
C1498 C 0.50304 0.48475 0.76857 0.0
C1499 C 0.48305 0.49547 0.80185 0.0
C1500 C 0.46702 0.49014 0.82049 0.0
C1501 C 0.514 0.50621 0.76793 0.0
C1502 C 0.50984 0.52226 0.7848 0.0
C1503 C 0.49413 0.51677 0.80133 0.0
C1504 C 0.5224 0.54434 0.78654 0.0
C1505 C 0.52974 0.5115 0.7491 0.0
C1506 C 0.54641 0.54455 0.78795 0.0
C1507 C 0.55807 0.56489 0.79262 0.0
C1508 C 0.54589 0.58526 0.79619 0.0
C1509 C 0.52198 0.58527 0.79423 0.0
C1510 C 0.51032 0.56498 0.78937 0.0
H1511 H 0.52511 0.50136 0.73441 0.0
H1512 H 0.52931 0.52998 0.74484 0.0
H1513 H 0.54754 0.50687 0.75367 0.0
H1514 H 0.5561 0.52881 0.78653 0.0
H1515 H 0.57651 0.56448 0.79453 0.0
H1516 H 0.40378 0.01282 0.05028 0.0
H1517 H 0.44081 0.99431 0.04291 0.0
H1518 H 0.47211 0.06067 0.03477 0.0
H1519 H 0.43524 0.07915 0.04242 0.0
H1520 H 0.47535 0.99859 0.00707 0.0
H1521 H 0.50467 0.02978 0.08817 0.0
H1522 H 0.47485 0.02924 0.08047 0.0
H1523 H 0.49339 0.05116 0.07 0.0
C1524 C 0.4185 0.02334 0.04637 0.0
C1525 C 0.41679 0.04731 0.0468 0.0
C1526 C 0.43957 0.01281 0.04217 0.0
C1527 C 0.45918 0.02616 0.0385 0.0
C1528 C 0.45718 0.0501 0.03769 0.0
H1529 H 0.60315 0.98916 0.04896 0.0
H1530 H 0.56774 0.01022 0.04084 0.0
C1531 C 0.43614 0.06061 0.04188 0.0
C1532 C 0.48204 0.01519 0.03775 0.0
H1533 H 0.5312 0.00908 0.06723 0.0
C1534 C 0.48766 0.00092 0.02013 0.0
C1535 C 0.49797 0.01827 0.05486 0.0
C1536 C 0.49247 0.03278 0.07456 0.0
C1537 C 0.50897 0.98973 0.01912 0.0
C1538 C 0.52479 0.99256 0.03642 0.0
C1539 C 0.51917 0.00705 0.05389 0.0
C1540 C 0.54678 0.97981 0.03756 0.0
C1541 C 0.5144 0.97518 0.99947 0.0
C1542 C 0.54687 0.95574 0.038 0.0
C1543 C 0.56709 0.94378 0.04244 0.0
C1544 C 0.58746 0.9557 0.04669 0.0
C1545 C 0.58762 0.97969 0.04548 0.0
C1546 C 0.56743 0.99166 0.04092 0.0
H1547 H 0.50426 0.98059 0.98503 0.0
H1548 H 0.53289 0.97603 0.9953 0.0
H1549 H 0.50998 0.95708 1.00307 0.0
H1550 H 0.53109 0.94622 0.03608 0.0
H1551 H 0.56655 0.92528 0.04374 0.0
H1552 H 0.07481 0.42978 0.98009 0.0
H1553 H 0.05606 0.46589 0.99003 0.0
H1554 H 0.99188 0.43986 0.96553 0.0
H1555 H 0.01053 0.40356 0.95614 0.0
H1556 H 0.03733 0.49346 0.95929 0.0
H1557 H 0.97124 0.47225 0.02058 0.0
H1558 H 0.99471 0.45318 0.0143 0.0
H1559 H 0.96972 0.45397 0.99711 0.0
C1560 C 0.05653 0.43153 0.97757 0.0
C1561 C 0.04403 0.41401 0.96737 0.0
C1562 C 0.04587 0.45218 0.98313 0.0
C1563 C 0.02251 0.45555 0.97871 0.0
C1564 C 0.00978 0.43753 0.96955 0.0
H1565 H 0.92817 0.5606 0.95061 0.0
H1566 H 0.94869 0.52559 0.96073 0.0
C1567 C 0.02045 0.41687 0.96404 0.0
C1568 C 0.0122 0.47871 0.9808 0.0
H1569 H 0.96557 0.50737 1.00044 0.0
C1570 C 0.02192 0.49666 0.96868 0.0
C1571 C 0.99205 0.48282 0.99297 0.0
C1572 C 0.98145 0.46457 0.00715 0.0
C1573 C 0.01133 0.5182 0.96737 0.0
C1574 C 0.99067 0.52205 0.97885 0.0
C1575 C 0.98144 0.5044 0.9917 0.0
C1576 C 0.97719 0.54333 0.97568 0.0
C1577 C 0.02163 0.53622 0.95267 0.0
C1578 C 0.98607 0.56493 0.98135 0.0
C1579 C 0.97432 0.58497 0.97552 0.0
C1580 C 0.95357 0.58354 0.96412 0.0
C1581 C 0.94416 0.56198 0.95948 0.0
C1582 C 0.95584 0.54204 0.96526 0.0
H1583 H 0.03524 0.52911 0.94197 0.0
H1584 H 0.00824 0.54412 0.94223 0.0
H1585 H 0.02934 0.54995 0.9628 0.0
H1586 H 0.00239 0.56628 0.98964 0.0
H1587 H 0.98182 0.6015 0.97917 0.0
H1588 H 0.40236 0.48622 0.20841 0.0
H1589 H 0.43908 0.50523 0.21605 0.0
H1590 H 0.47031 0.43949 0.22812 0.0
H1591 H 0.43371 0.42049 0.22039 0.0
H1592 H 0.47388 0.50087 0.25412 0.0
H1593 H 0.50247 0.46989 0.17261 0.0
H1594 H 0.4726 0.47153 0.18006 0.0
H1595 H 0.49024 0.44907 0.19086 0.0
C1596 C 0.41696 0.47597 0.21329 0.0
C1597 C 0.41535 0.45199 0.21392 0.0
C1598 C 0.43785 0.48678 0.21764 0.0
C1599 C 0.45735 0.47371 0.22252 0.0
C1600 C 0.45541 0.44983 0.22438 0.0
H1601 H 0.60056 0.51223 0.20921 0.0
H1602 H 0.56569 0.49059 0.21792 0.0
C1603 C 0.43454 0.43903 0.22008 0.0
C1604 C 0.48014 0.48474 0.22314 0.0
H1605 H 0.52866 0.49157 0.19292 0.0
C1606 C 0.48597 0.49879 0.24085 0.0
C1607 C 0.49579 0.48192 0.20578 0.0
C1608 C 0.49005 0.46742 0.18613 0.0
C1609 C 0.50723 0.51011 0.24165 0.0
C1610 C 0.52272 0.50767 0.22402 0.0
C1611 C 0.51688 0.49334 0.20649 0.0
C1612 C 0.54453 0.52068 0.22261 0.0
C1613 C 0.51294 0.52435 0.26143 0.0
C1614 C 0.54438 0.54475 0.22278 0.0
C1615 C 0.56432 0.55703 0.21809 0.0
C1616 C 0.58465 0.54543 0.21293 0.0
C1617 C 0.58508 0.52144 0.21346 0.0
C1618 C 0.56519 0.50914 0.21833 0.0
H1619 H 0.50331 0.51843 0.27601 0.0
H1620 H 0.53154 0.52378 0.26514 0.0
H1621 H 0.50803 0.54242 0.2583 0.0
H1622 H 0.52858 0.55406 0.22538 0.0
H1623 H 0.56358 0.57556 0.21731 0.0
H1624 H 0.51436 0.90161 0.45753 0.0
H1625 H 0.49535 0.93838 0.46493 0.0
H1626 H 0.56104 0.96973 0.47674 0.0
H1627 H 0.58005 0.93311 0.46907 0.0
H1628 H 0.49784 0.97205 0.5018 0.0
H1629 H 0.53251 0.00358 0.42275 0.0
H1630 H 0.5317 0.97353 0.42969 0.0
H1631 H 0.55301 0.99184 0.44156 0.0
C1632 C 0.52461 0.91627 0.46221 0.0
C1633 C 0.54858 0.91466 0.46277 0.0
C1634 C 0.51379 0.9372 0.46644 0.0
C1635 C 0.52684 0.95677 0.47115 0.0
C1636 C 0.55071 0.95483 0.47299 0.0
H1637 H 0.48865 0.10077 0.46211 0.0
H1638 H 0.50987 0.0654 0.47007 0.0
C1639 C 0.56152 0.93393 0.46878 0.0
C1640 C 0.51572 0.97957 0.47197 0.0
H1641 H 0.51046 0.02937 0.44326 0.0
C1642 C 0.50064 0.98468 0.4891 0.0
C1643 C 0.51943 0.99594 0.45534 0.0
C1644 C 0.53489 0.99101 0.43617 0.0
C1645 C 0.48921 0.00588 0.49008 0.0
C1646 C 0.49262 0.02211 0.47322 0.0
C1647 C 0.50795 0.01701 0.45626 0.0
C1648 C 0.47966 0.04398 0.47197 0.0
C1649 C 0.47379 0.01074 0.50926 0.0
C1650 C 0.45563 0.04379 0.47075 0.0
C1651 C 0.44358 0.06399 0.46643 0.0
C1652 C 0.45535 0.08464 0.46309 0.0
C1653 C 0.47927 0.08504 0.46494 0.0
C1654 C 0.49134 0.06487 0.4694 0.0
H1655 H 0.47877 1.00042 0.52373 0.0
H1656 H 0.47418 0.02917 0.51375 0.0
H1657 H 0.45595 0.0061 0.50491 0.0
H1658 H 0.44625 0.02785 0.47202 0.0
H1659 H 0.42514 0.06327 0.46458 0.0
H1660 H 0.06486 0.07993 0.72405 0.0
H1661 H 0.02869 0.06091 0.73321 0.0
H1662 H 0.05783 0.99583 0.71462 0.0
H1663 H 0.09418 0.01479 0.70616 0.0
H1664 H 0.0033 0.03956 0.70307 0.0
H1665 H 0.02313 0.97782 0.76882 0.0
H1666 H 0.04211 0.00111 0.7618 0.0
H1667 H 0.04231 0.97501 0.74614 0.0
C1668 C 0.06373 0.06145 0.72273 0.0
C1669 C 0.08225 0.04871 0.71461 0.0
C1670 C 0.04306 0.05062 0.72782 0.0
C1671 C 0.04058 0.02689 0.72485 0.0
C1672 C 0.05945 0.01404 0.71759 0.0
H1673 H 0.936 0.92946 0.70021 0.0
H1674 H 0.97111 0.95064 0.70882 0.0
C1675 C 0.08016 0.02487 0.71262 0.0
C1676 C 0.01762 0.01608 0.7265 0.0
H1677 H 0.98893 0.9703 0.74789 0.0
C1678 C 1.00001 0.02469 0.71321 0.0
C1679 C 0.01338 0.99662 0.73965 0.0
C1680 C 0.03118 0.98724 0.75507 0.0
C1681 C 0.97868 0.01373 0.71188 0.0
C1682 C 0.9747 0.99381 0.72446 0.0
C1683 C 0.99202 0.9856 0.73829 0.0
C1684 C 0.95344 0.9802 0.7219 0.0
C1685 C 0.96101 0.02288 0.69614 0.0
C1686 C 0.93189 0.98956 0.72694 0.0
C1687 C 0.91185 0.97746 0.72197 0.0
C1688 C 0.9132 0.95585 0.7121 0.0
C1689 C 0.9347 0.94609 0.70795 0.0
C1690 C 0.95468 0.95815 0.71288 0.0
H1691 H 0.96835 0.03568 0.68471 0.0
H1692 H 0.95335 0.00874 0.68647 0.0
H1693 H 0.94706 0.03131 0.70544 0.0
H1694 H 0.93059 0.00645 0.73415 0.0
H1695 H 0.89534 0.98523 0.72519 0.0
H1696 H 0.3552 0.09643 0.3778 0.0
H1697 H 0.31875 0.08509 0.36161 0.0
H1698 H 0.2837 0.10355 0.42089 0.0
H1699 H 0.32002 0.11497 0.43735 0.0
H1700 H 0.26712 0.06042 0.3931 0.0
H1701 H 0.27627 0.14495 0.3514 0.0
H1702 H 0.30005 0.12533 0.3507 0.0
H1703 H 0.2918 0.13826 0.37603 0.0
C1704 C 0.33984 0.0976 0.38764 0.0
C1705 C 0.34044 0.10715 0.40872 0.0
C1706 C 0.31909 0.09095 0.37837 0.0
C1707 C 0.29869 0.09368 0.39006 0.0
C1708 C 0.29939 0.10128 0.41172 0.0
H1709 H 0.15633 0.1066 0.37786 0.0
H1710 H 0.19465 0.09354 0.38723 0.0
C1711 C 0.32015 0.10795 0.42103 0.0
C1712 C 0.27656 0.09267 0.37864 0.0
H1713 H 0.24188 0.12535 0.34668 0.0
C1714 C 0.2616 0.07439 0.38267 0.0
C1715 C 0.26966 0.11091 0.36502 0.0
C1716 C 0.28515 0.13109 0.3605 0.0
C1717 C 0.23945 0.07421 0.37375 0.0
C1718 C 0.23212 0.09308 0.36103 0.0
C1719 C 0.24754 0.11083 0.35633 0.0
C1720 C 0.208 0.09637 0.35439 0.0
C1721 C 0.22411 0.05397 0.37821 0.0
C1722 C 0.2027 0.10232 0.33279 0.0
C1723 C 0.18091 0.11037 0.32746 0.0
C1724 C 0.16402 0.1125 0.34366 0.0
C1725 C 0.16897 0.10519 0.365 0.0
C1726 C 0.19083 0.09741 0.37035 0.0
H1727 H 0.2343 0.03808 0.38055 0.0
H1728 H 0.21439 0.05709 0.39347 0.0
H1729 H 0.21172 0.05118 0.36473 0.0
H1730 H 0.21577 0.10177 0.32026 0.0
H1731 H 0.17757 0.11566 0.31084 0.0
H1732 H 0.88557 0.68292 0.5704 0.0
H1733 H 0.89903 0.71954 0.58461 0.0
H1734 H 0.92158 0.68629 0.64363 0.0
H1735 H 0.90814 0.64954 0.62964 0.0
H1736 H 0.8883 0.71989 0.64937 0.0
H1737 H 0.95945 0.75299 0.59869 0.0
H1738 H 0.9359 0.74197 0.58303 0.0
H1739 H 0.95219 0.7229 0.60007 0.0
C1740 C 0.89398 0.68324 0.58613 0.0
C1741 C 0.89543 0.66337 0.59902 0.0
C1742 C 0.90187 0.70418 0.59415 0.0
C1743 C 0.91145 0.70555 0.61509 0.0
C1744 C 0.91438 0.6855 0.62736 0.0
H1745 H 0.90221 0.83056 0.69363 0.0
H1746 H 0.91622 0.7927 0.68283 0.0
C1747 C 0.90655 0.66455 0.61936 0.0
C1748 C 0.91411 0.72813 0.6256 0.0
H1749 H 0.93778 0.78106 0.61887 0.0
C1750 C 0.89951 0.73317 0.64309 0.0
C1751 C 0.9286 0.74533 0.61716 0.0
C1752 C 0.94509 0.74051 0.59882 0.0
C1753 C 0.89781 0.75539 0.65146 0.0
C1754 C 0.91172 0.77291 0.64252 0.0
C1755 C 0.92722 0.76759 0.62574 0.0
C1756 C 0.90827 0.79717 0.64861 0.0
C1757 C 0.8799 0.76015 0.66867 0.0
C1758 C 0.90076 0.81276 0.63273 0.0
C1759 C 0.89318 0.8345 0.63879 0.0
C1760 C 0.89272 0.84085 0.66089 0.0
C1761 C 0.90185 0.82586 0.67657 0.0
C1762 C 0.90985 0.80427 0.67042 0.0
H1763 H 0.8674 0.74589 0.67022 0.0
H1764 H 0.88839 0.76235 0.68471 0.0
H1765 H 0.8703 0.77608 0.66488 0.0
H1766 H 0.89951 0.80766 0.61578 0.0
H1767 H 0.88638 0.84576 0.62633 0.0
H1768 H 0.17877 0.37983 0.94731 0.0
H1769 H 0.21704 0.3912 0.9357 0.0
H1770 H 0.19018 0.41194 0.87321 0.0
H1771 H 0.15176 0.40122 0.88482 0.0
H1772 H 0.23573 0.36822 0.90168 0.0
H1773 H 0.23785 0.46149 0.8848 0.0
H1774 H 0.21614 0.44834 0.90166 0.0
H1775 H 0.21394 0.44719 0.87243 0.0
C1776 C 0.18084 0.38744 0.93134 0.0
C1777 C 0.16225 0.38934 0.9169 0.0
C1778 C 0.20273 0.39399 0.92476 0.0
C1779 C 0.20639 0.40255 0.90367 0.0
C1780 C 0.18767 0.40582 0.88971 0.0
H1781 H 0.31977 0.37719 0.81998 0.0
H1782 H 0.28221 0.38767 0.83442 0.0
C1783 C 0.16573 0.39941 0.89632 0.0
C1784 C 0.2299 0.40399 0.89497 0.0
H1785 H 0.26772 0.4388 0.86836 0.0
C1786 C 0.24283 0.38375 0.89471 0.0
C1787 C 0.239 0.42425 0.88574 0.0
C1788 C 0.2261 0.44661 0.88633 0.0
C1789 C 0.26443 0.38303 0.88499 0.0
C1790 C 0.2732 0.40303 0.87512 0.0
C1791 C 0.26066 0.42349 0.87579 0.0
C1792 C 0.29555 0.4024 0.86416 0.0
C1793 C 0.27765 0.36079 0.88497 0.0
C1794 C 0.31531 0.40808 0.87586 0.0
C1795 C 0.33678 0.40201 0.86777 0.0
C1796 C 0.33869 0.39012 0.84788 0.0
C1797 C 0.31889 0.3862 0.83538 0.0
C1798 C 0.29743 0.39226 0.84353 0.0
H1799 H 0.26947 0.34752 0.89537 0.0
H1800 H 0.27874 0.35411 0.86806 0.0
H1801 H 0.29539 0.36367 0.89087 0.0
H1802 H 0.31403 0.41578 0.89189 0.0
H1803 H 0.35172 0.4055 0.87769 0.0
H1804 H 0.61545 0.82117 0.07295 0.0
H1805 H 0.60171 0.78522 0.08834 0.0
H1806 H 0.58572 0.81955 0.14871 0.0
H1807 H 0.59955 0.85562 0.13355 0.0
H1808 H 0.6173 0.78418 0.15232 0.0
H1809 H 0.54085 0.75518 0.10664 0.0
H1810 H 0.56369 0.76482 0.08932 0.0
H1811 H 0.5499 0.7848 0.10738 0.0
C1812 C 0.60853 0.82125 0.0893 0.0
C1813 C 0.60901 0.8412 0.10212 0.0
C1814 C 0.60042 0.8007 0.098 0.0
C1815 C 0.59252 0.79982 0.11958 0.0
C1816 C 0.5916 0.81997 0.13195 0.0
H1817 H 0.60099 0.67357 0.19661 0.0
H1818 H 0.58826 0.71228 0.18721 0.0
C1819 C 0.59966 0.84053 0.12327 0.0
C1820 C 0.58943 0.7774 0.1303 0.0
H1821 H 0.56262 0.72582 0.12507 0.0
C1822 C 0.60499 0.77154 0.14678 0.0
C1823 C 0.57345 0.76104 0.12285 0.0
C1824 C 0.55587 0.76682 0.1057 0.0
C1825 C 0.60616 0.7492 0.15498 0.0
C1826 C 0.59077 0.73248 0.14691 0.0
C1827 C 0.57433 0.7387 0.13126 0.0
C1828 C 0.59356 0.70801 0.15251 0.0
C1829 C 0.62499 0.74342 0.17097 0.0
C1830 C 0.59919 0.69237 0.13599 0.0
C1831 C 0.60607 0.67019 0.14129 0.0
C1832 C 0.6077 0.66342 0.16322 0.0
C1833 C 0.60048 0.67857 0.17964 0.0
C1834 C 0.59319 0.70064 0.17429 0.0
H1835 H 0.63819 0.7571 0.17188 0.0
H1836 H 0.61754 0.74134 0.18749 0.0
H1837 H 0.63359 0.72714 0.16642 0.0
H1838 H 0.59949 0.69769 0.11907 0.0
H1839 H 0.61136 0.65882 0.12827 0.0
H1840 H 0.67341 0.60199 0.81552 0.0
H1841 H 0.71095 0.58792 0.82692 0.0
H1842 H 0.69192 0.59744 0.89432 0.0
H1843 H 0.65421 0.6107 0.88308 0.0
H1844 H 0.73966 0.61491 0.84661 0.0
H1845 H 0.72763 0.53945 0.89952 0.0
H1846 H 0.70522 0.55001 0.88187 0.0
H1847 H 0.70972 0.56256 0.90839 0.0
C1848 C 0.67707 0.60061 0.83276 0.0
C1849 C 0.66101 0.60776 0.84839 0.0
C1850 C 0.69846 0.59242 0.83926 0.0
C1851 C 0.7042 0.59139 0.86148 0.0
C1852 C 0.68773 0.59743 0.87712 0.0
H1853 H 0.8188 0.61886 0.93866 0.0
H1854 H 0.78175 0.60641 0.92442 0.0
C1855 C 0.66623 0.6053 0.87064 0.0
C1856 C 0.72832 0.58803 0.86816 0.0
H1857 H 0.76226 0.56192 0.90612 0.0
C1858 C 0.74471 0.60287 0.8592 0.0
C1859 C 0.73487 0.57242 0.88469 0.0
C1860 C 0.71842 0.55507 0.89398 0.0
C1861 C 0.76711 0.60353 0.86721 0.0
C1862 C 0.77333 0.58879 0.88451 0.0
C1863 C 0.75732 0.57321 0.89288 0.0
C1864 C 0.79578 0.59116 0.8952 0.0
C1865 C 0.78362 0.62092 0.85794 0.0
C1866 C 0.81587 0.58578 0.88383 0.0
C1867 C 0.83704 0.59301 0.89181 0.0
C1868 C 0.83837 0.60567 0.9113 0.0
C1869 C 0.81834 0.60931 0.92353 0.0
C1870 C 0.79717 0.60211 0.91549 0.0
H1871 H 0.77508 0.6332 0.84673 0.0
H1872 H 0.79196 0.63074 0.87126 0.0
H1873 H 0.79724 0.61191 0.84869 0.0
H1874 H 0.81504 0.5772 0.86819 0.0
H1875 H 0.85219 0.58963 0.88214 0.0
H1876 H 0.4081 0.14495 0.13021 0.0
H1877 H 0.42169 0.18108 0.1455 0.0
H1878 H 0.39662 0.21716 0.08899 0.0
H1879 H 0.38314 0.18115 0.07339 0.0
H1880 H 0.44052 0.23438 0.10902 0.0
H1881 H 0.36728 0.22269 0.16638 0.0
H1882 H 0.38802 0.2 0.16467 0.0
H1883 H 0.36994 0.20607 0.14172 0.0
C1884 C 0.40587 0.16048 0.12077 0.0
C1885 C 0.39403 0.16025 0.10077 0.0
C1886 C 0.41376 0.18107 0.12953 0.0
C1887 C 0.40985 0.20168 0.11846 0.0
C1888 C 0.39977 0.20133 0.09772 0.0
H1889 H 0.39186 0.34244 0.12888 0.0
H1890 H 0.40571 0.30453 0.119 0.0
C1891 C 0.39194 0.18074 0.08889 0.0
C1892 C 0.41273 0.22376 0.12974 0.0
H1893 H 0.3861 0.25779 0.16699 0.0
C1894 C 0.42895 0.23947 0.12197 0.0
C1895 C 0.39765 0.23016 0.1467 0.0
C1896 C 0.37962 0.21398 0.15537 0.0
C1897 C 0.42989 0.26188 0.13025 0.0
C1898 C 0.41379 0.26871 0.14622 0.0
C1899 C 0.39848 0.25253 0.15479 0.0
C1900 C 0.41019 0.29297 0.15232 0.0
C1901 C 0.44783 0.27803 0.12153 0.0
C1902 C 0.40806 0.29918 0.17434 0.0
C1903 C 0.39951 0.32069 0.18003 0.0
C1904 C 0.39309 0.33639 0.16379 0.0
C1905 C 0.39666 0.3307 0.14178 0.0
C1906 C 0.40488 0.30909 0.1361 0.0
H1907 H 0.4636 0.26857 0.11686 0.0
H1908 H 0.44118 0.28655 0.10664 0.0
H1909 H 0.45241 0.2914 0.13366 0.0
H1910 H 0.41197 0.28696 0.18712 0.0
H1911 H 0.39734 0.32474 0.19711 0.0
H1912 H 0.82841 0.90087 0.3151 0.0
H1913 H 0.79042 0.91427 0.32584 0.0
H1914 H 0.80903 0.90684 0.39359 0.0
H1915 H 0.84715 0.89425 0.38298 0.0
H1916 H 0.76237 0.88687 0.34568 0.0
H1917 H 0.77128 0.96353 0.39746 0.0
H1918 H 0.79426 0.95342 0.38025 0.0
H1919 H 0.7899 0.94128 0.40698 0.0
C1920 C 0.82455 0.9026 0.33227 0.0
C1921 C 0.84061 0.89617 0.34818 0.0
C1922 C 0.8029 0.91041 0.33839 0.0
C1923 C 0.7969 0.91177 0.36053 0.0
C1924 C 0.81339 0.90658 0.37644 0.0
H1925 H 0.68397 0.88161 0.43846 0.0
H1926 H 0.72025 0.89527 0.42362 0.0
C1927 C 0.83514 0.8991 0.37032 0.0
C1928 C 0.77261 0.91445 0.36693 0.0
H1929 H 0.73757 0.9397 0.40448 0.0
C1930 C 0.75682 0.89888 0.3581 0.0
C1931 C 0.76539 0.93003 0.38322 0.0
C1932 C 0.78111 0.94815 0.39232 0.0
C1933 C 0.73444 0.89743 0.36607 0.0
C1934 C 0.72762 0.9121 0.3832 0.0
C1935 C 0.74298 0.92844 0.39138 0.0
C1936 C 0.70534 0.90886 0.39404 0.0
C1937 C 0.71869 0.87924 0.357 0.0
C1938 C 0.68494 0.91288 0.38266 0.0
C1939 C 0.6642 0.90492 0.39099 0.0
C1940 C 0.66357 0.89288 0.41088 0.0
C1941 C 0.68384 0.8906 0.42305 0.0
C1942 C 0.7046 0.89851 0.41465 0.0
H1943 H 0.72776 0.86714 0.34601 0.0
H1944 H 0.7107 0.86929 0.37044 0.0
H1945 H 0.70475 0.88754 0.34757 0.0
H1946 H 0.68525 0.92102 0.36678 0.0
H1947 H 0.64884 0.9073 0.38134 0.0
H1948 H 0.07683 0.14982 0.6473 0.0
H1949 H 0.06133 0.18665 0.63492 0.0
H1950 H 0.1173 0.22166 0.66668 0.0
H1951 H 0.13181 0.18525 0.68016 0.0
H1952 H 0.08045 0.24615 0.66986 0.0
H1953 H 0.08849 0.21722 0.58359 0.0
H1954 H 0.0683 0.20181 0.60002 0.0
H1955 H 0.09842 0.19996 0.60599 0.0
C1956 C 0.08551 0.16549 0.65189 0.0
C1957 C 0.10559 0.1648 0.6645 0.0
C1958 C 0.07676 0.18647 0.6447 0.0
C1959 C 0.08851 0.20688 0.64931 0.0
C1960 C 0.10791 0.20616 0.66286 0.0
H1961 H 0.13307 0.31755 0.58121 0.0
H1962 H 0.11846 0.28093 0.59409 0.0
C1963 C 0.11624 0.18534 0.67056 0.0
C1964 C 0.0822 0.22892 0.63891 0.0
H1965 H 0.08212 0.25598 0.58959 0.0
C1966 C 0.08049 0.24835 0.65229 0.0
C1967 C 0.08202 0.23163 0.61594 0.0
C1968 C 0.08455 0.21162 0.6005 0.0
C1969 C 0.08122 0.27051 0.64352 0.0
C1970 C 0.08237 0.27324 0.62058 0.0
C1971 C 0.08143 0.25379 0.60715 0.0
C1972 C 0.08883 0.29535 0.61043 0.0
C1973 C 0.08291 0.29053 0.65905 0.0
C1974 C 0.07666 0.31562 0.61465 0.0
C1975 C 0.08546 0.33671 0.60784 0.0
C1976 C 0.10603 0.33766 0.59599 0.0
C1977 C 0.11714 0.31726 0.59026 0.0
C1978 C 0.10875 0.29632 0.5976 0.0
H1979 H 0.08624 0.28496 0.67609 0.0
H1980 H 0.09685 0.30236 0.65409 0.0
H1981 H 0.06654 0.30016 0.65895 0.0
H1982 H 0.06085 0.31524 0.62383 0.0
H1983 H 0.07643 0.35228 0.61214 0.0
loop_
_geom_bond_atom_site_label_1
_geom_bond_atom_site_label_2
_geom_bond_distance
_geom_bond_site_symmetry_2
_ccdc_geom_bond_type
Co0 O3 1.970 . S
Co0 N17 1.989 . S
Co0 O25 1.967 . S
Co0 O32 1.920 . S
Co1 O4 1.966 . S
Co1 N10 2.022 . S
Co1 N18 1.993 . S
Co1 O26 1.941 . S
C2 O3 1.258 . S
C2 O4 1.263 . S
O3 Co0 1.970 . S
O3 C2 1.258 . S
O4 Co1 1.966 . S
O4 C2 1.263 . S
C5 O6 1.235 . S
C5 O32 1.289 . S
O6 C5 1.235 . S
C7 C9 1.400 . S
C7 N10 1.351 . S
C7 C12 1.501 . S
C8 C9 1.387 . S
C8 N11 1.341 . S
C9 C7 1.400 . S
C9 C8 1.387 . S
N10 Co1 2.022 . S
N10 C7 1.351 . S
N10 N11 1.365 . S
N11 C8 1.341 . S
N11 N10 1.365 . S
N11 H31 0.862 . S
C12 C7 1.501 . S
C12 H13 0.961 . S
C12 H14 0.961 . S
C12 H15 0.960 . S
H13 C12 0.961 . S
H14 C12 0.961 . S
H15 C12 0.960 . S
C16 N17 1.342 . S
C16 C20 1.401 . S
C16 C21 1.499 . S
N17 Co0 1.989 . S
N17 C16 1.342 . S
N17 N18 1.388 . S
N18 Co1 1.993 . S
N18 N17 1.388 . S
N18 C19 1.346 . S
C19 N18 1.346 . S
C19 C20 1.396 . S
C19 C29 1.510 . S
C20 C16 1.401 . S
C20 C19 1.396 . S
C21 C16 1.499 . S
C21 H22 0.959 . S
C21 H23 0.960 . S
C21 H24 0.961 . S
H22 C21 0.959 . S
H23 C21 0.960 . S
H24 C21 0.961 . S
O25 Co0 1.967 . S
O25 C33 1.258 . S
O26 Co1 1.941 . S
O26 C33 1.266 . S
H27 C29 0.959 . S
H28 C29 0.961 . S
C29 C19 1.510 . S
C29 H27 0.959 . S
C29 H28 0.961 . S
C29 H30 0.960 . S
H30 C29 0.960 . S
H31 N11 0.862 . S
O32 Co0 1.920 . S
O32 C5 1.289 . S
C33 O25 1.258 . S
C33 O26 1.266 . S
Co34 O37 1.970 . S
Co34 N51 1.989 . S
Co34 O59 1.967 . S
Co34 O66 1.920 . S
Co35 O38 1.966 . S
Co35 N44 2.022 . S
Co35 N52 1.993 . S
Co35 O60 1.941 . S
C36 O37 1.258 . S
C36 O38 1.263 . S
O37 Co34 1.970 . S
O37 C36 1.258 . S
O38 Co35 1.966 . S
O38 C36 1.263 . S
C39 O40 1.235 . S
C39 O66 1.289 . S
O40 C39 1.235 . S
C41 C43 1.400 . S
C41 N44 1.351 . S
C41 C46 1.501 . S
C42 C43 1.387 . S
C42 N45 1.341 . S
C43 C41 1.400 . S
C43 C42 1.387 . S
N44 Co35 2.022 . S
N44 C41 1.351 . S
N44 N45 1.365 . S
N45 C42 1.341 . S
N45 N44 1.365 . S
N45 H65 0.862 . S
C46 C41 1.501 . S
C46 H47 0.961 . S
C46 H48 0.961 . S
C46 H49 0.960 . S
H47 C46 0.961 . S
H48 C46 0.961 . S
H49 C46 0.960 . S
C50 N51 1.342 . S
C50 C54 1.401 . S
C50 C55 1.499 . S
N51 Co34 1.989 . S
N51 C50 1.342 . S
N51 N52 1.388 . S
N52 Co35 1.993 . S
N52 N51 1.388 . S
N52 C53 1.346 . S
C53 N52 1.346 . S
C53 C54 1.396 . S
C53 C63 1.510 . S
C54 C50 1.401 . S
C54 C53 1.396 . S
C55 C50 1.499 . S
C55 H56 0.959 . S
C55 H57 0.960 . S
C55 H58 0.961 . S
H56 C55 0.959 . S
H57 C55 0.960 . S
H58 C55 0.961 . S
O59 Co34 1.967 . S
O59 C67 1.258 . S
O60 Co35 1.941 . S
O60 C67 1.266 . S
H61 C63 0.959 . S
H62 C63 0.961 . S
C63 C53 1.510 . S
C63 H61 0.959 . S
C63 H62 0.961 . S
C63 H64 0.960 . S
H64 C63 0.960 . S
H65 N45 0.862 . S
O66 Co34 1.920 . S
O66 C39 1.289 . S
C67 O59 1.258 . S
C67 O60 1.266 . S
Co68 O71 1.970 . S
Co68 N85 1.989 . S
Co68 O93 1.967 . S
Co68 O100 1.920 . S
Co69 O72 1.966 . S
Co69 N78 2.022 . S
Co69 N86 1.993 . S
Co69 O94 1.941 . S
C70 O71 1.258 . S
C70 O72 1.263 . S
O71 Co68 1.970 . S
O71 C70 1.258 . S
O72 Co69 1.966 . S
O72 C70 1.263 . S
C73 O74 1.235 . S
C73 O100 1.289 . S
O74 C73 1.235 . S
C75 C77 1.400 . S
C75 N78 1.351 . S
C75 C80 1.501 . S
C76 C77 1.387 . S
C76 N79 1.341 . S
C77 C75 1.400 . S
C77 C76 1.387 . S
N78 Co69 2.022 . S
N78 C75 1.351 . S
N78 N79 1.365 . S
N79 C76 1.341 . S
N79 N78 1.365 . S
N79 H99 0.862 . S
C80 C75 1.501 . S
C80 H81 0.961 . S
C80 H82 0.961 . S
C80 H83 0.960 . S
H81 C80 0.961 . S
H82 C80 0.961 . S
H83 C80 0.960 . S
C84 N85 1.342 . S
C84 C88 1.401 . S
C84 C89 1.499 . S
N85 Co68 1.989 . S
N85 C84 1.342 . S
N85 N86 1.388 . S
N86 Co69 1.993 . S
N86 N85 1.388 . S
N86 C87 1.346 . S
C87 N86 1.346 . S
C87 C88 1.396 . S
C87 C97 1.510 . S
C88 C84 1.401 . S
C88 C87 1.396 . S
C89 C84 1.499 . S
C89 H90 0.959 . S
C89 H91 0.960 . S
C89 H92 0.961 . S
H90 C89 0.959 . S
H91 C89 0.960 . S
H92 C89 0.961 . S
O93 Co68 1.967 . S
O93 C101 1.258 . S
O94 Co69 1.941 . S
O94 C101 1.266 . S
H95 C97 0.959 . S
H96 C97 0.961 . S
C97 C87 1.510 . S
C97 H95 0.959 . S
C97 H96 0.961 . S
C97 H98 0.960 . S
H98 C97 0.960 . S
H99 N79 0.862 . S
O100 Co68 1.920 . S
O100 C73 1.289 . S
C101 O93 1.258 . S
C101 O94 1.266 . S
Co102 O105 1.970 . S
Co102 N119 1.989 . S
Co102 O127 1.967 . S
Co102 O134 1.920 . S
Co103 O106 1.966 . S
Co103 N112 2.022 . S
Co103 N120 1.993 . S
Co103 O128 1.941 . S
C104 O105 1.258 . S
C104 O106 1.263 . S
O105 Co102 1.970 . S
O105 C104 1.258 . S
O106 Co103 1.966 . S
O106 C104 1.263 . S
C107 O108 1.235 . S
C107 O134 1.289 . S
O108 C107 1.235 . S
C109 C111 1.400 1_554 S
C109 N112 1.351 . S
C109 C114 1.501 . S
C110 C111 1.387 . S
C110 N113 1.341 1_556 S
C111 C109 1.400 1_556 S
C111 C110 1.387 . S
N112 Co103 2.022 . S
N112 C109 1.351 . S
N112 N113 1.365 . S
N113 C110 1.341 1_554 S
N113 N112 1.365 . S
N113 H133 0.862 . S
C114 C109 1.501 . S
C114 H115 0.961 . S
C114 H116 0.961 . S
C114 H117 0.960 . S
H115 C114 0.961 . S
H116 C114 0.961 . S
H117 C114 0.960 . S
C118 N119 1.342 . S
C118 C122 1.401 . S
C118 C123 1.499 . S
N119 Co102 1.989 . S
N119 C118 1.342 . S
N119 N120 1.388 . S
N120 Co103 1.993 . S
N120 N119 1.388 . S
N120 C121 1.346 . S
C121 N120 1.346 . S
C121 C122 1.396 . S
C121 C131 1.510 . S
C122 C118 1.401 . S
C122 C121 1.396 . S
C123 C118 1.499 . S
C123 H124 0.959 . S
C123 H125 0.960 . S
C123 H126 0.961 . S
H124 C123 0.959 . S
H125 C123 0.960 . S
H126 C123 0.961 . S
O127 Co102 1.967 . S
O127 C135 1.258 . S
O128 Co103 1.941 . S
O128 C135 1.266 . S
H129 C131 0.959 . S
H130 C131 0.961 . S
C131 C121 1.510 . S
C131 H129 0.959 . S
C131 H130 0.961 . S
C131 H132 0.960 . S
H132 C131 0.960 . S
H133 N113 0.862 . S
O134 Co102 1.920 . S
O134 C107 1.289 . S
C135 O127 1.258 . S
C135 O128 1.266 . S
Co136 O139 1.970 . S
Co136 N153 1.989 . S
Co136 O161 1.967 . S
Co136 O168 1.920 . S
Co137 O140 1.966 . S
Co137 N146 2.022 . S
Co137 N154 1.993 . S
Co137 O162 1.941 . S
C138 O139 1.258 . S
C138 O140 1.263 . S
O139 Co136 1.970 . S
O139 C138 1.258 . S
O140 Co137 1.966 . S
O140 C138 1.263 . S
C141 O142 1.235 . S
C141 O168 1.289 . S
O142 C141 1.235 . S
C143 C145 1.400 1_556 S
C143 N146 1.351 . S
C143 C148 1.501 . S
C144 C145 1.387 . S
C144 N147 1.341 1_554 S
C145 C143 1.400 1_554 S
C145 C144 1.387 . S
N146 Co137 2.022 . S
N146 C143 1.351 . S
N146 N147 1.365 . S
N147 C144 1.341 1_556 S
N147 N146 1.365 . S
N147 H167 0.862 . S
C148 C143 1.501 . S
C148 H149 0.961 . S
C148 H150 0.961 . S
C148 H151 0.960 . S
H149 C148 0.961 . S
H150 C148 0.961 . S
H151 C148 0.960 . S
C152 N153 1.342 . S
C152 C156 1.401 . S
C152 C157 1.499 . S
N153 Co136 1.989 . S
N153 C152 1.342 . S
N153 N154 1.388 . S
N154 Co137 1.993 . S
N154 N153 1.388 . S
N154 C155 1.346 . S
C155 N154 1.346 . S
C155 C156 1.396 . S
C155 C165 1.510 . S
C156 C152 1.401 . S
C156 C155 1.396 . S
C157 C152 1.499 . S
C157 H158 0.959 . S
C157 H159 0.960 . S
C157 H160 0.961 . S
H158 C157 0.959 . S
H159 C157 0.960 . S
H160 C157 0.961 . S
O161 Co136 1.967 . S
O161 C169 1.258 . S
O162 Co137 1.941 . S
O162 C169 1.266 . S
H163 C165 0.959 . S
H164 C165 0.961 . S
C165 C155 1.510 . S
C165 H163 0.959 . S
C165 H164 0.961 . S
C165 H166 0.960 . S
H166 C165 0.960 . S
H167 N147 0.862 . S
O168 Co136 1.920 . S
O168 C141 1.289 . S
C169 O161 1.258 . S
C169 O162 1.266 . S
Co170 O173 1.970 . S
Co170 N187 1.989 . S
Co170 O195 1.967 . S
Co170 O202 1.920 . S
Co171 O174 1.966 . S
Co171 N180 2.022 . S
Co171 N188 1.993 . S
Co171 O196 1.941 . S
C172 O173 1.258 . S
C172 O174 1.263 . S
O173 Co170 1.970 . S
O173 C172 1.258 . S
O174 Co171 1.966 . S
O174 C172 1.263 . S
C175 O176 1.235 . S
C175 O202 1.289 . S
O176 C175 1.235 . S
C177 C179 1.400 . S
C177 N180 1.351 . S
C177 C182 1.501 . S
C178 C179 1.387 . S
C178 N181 1.341 . S
C179 C177 1.400 . S
C179 C178 1.387 . S
N180 Co171 2.022 . S
N180 C177 1.351 . S
N180 N181 1.365 . S
N181 C178 1.341 . S
N181 N180 1.365 . S
N181 H201 0.862 . S
C182 C177 1.501 . S
C182 H183 0.961 . S
C182 H184 0.961 . S
C182 H185 0.960 . S
H183 C182 0.961 . S
H184 C182 0.961 . S
H185 C182 0.960 . S
C186 N187 1.342 . S
C186 C190 1.401 . S
C186 C191 1.499 . S
N187 Co170 1.989 . S
N187 C186 1.342 . S
N187 N188 1.388 . S
N188 Co171 1.993 . S
N188 N187 1.388 . S
N188 C189 1.346 . S
C189 N188 1.346 . S
C189 C190 1.396 . S
C189 C199 1.510 . S
C190 C186 1.401 . S
C190 C189 1.396 . S
C191 C186 1.499 . S
C191 H192 0.959 . S
C191 H193 0.960 . S
C191 H194 0.961 . S
H192 C191 0.959 . S
H193 C191 0.960 . S
H194 C191 0.961 . S
O195 Co170 1.967 . S
O195 C203 1.258 . S
O196 Co171 1.941 . S
O196 C203 1.266 . S
H197 C199 0.959 . S
H198 C199 0.961 . S
C199 C189 1.510 . S
C199 H197 0.959 . S
C199 H198 0.961 . S
C199 H200 0.960 . S
H200 C199 0.960 . S
H201 N181 0.862 . S
O202 Co170 1.920 . S
O202 C175 1.289 . S
C203 O195 1.258 . S
C203 O196 1.266 . S
Co204 O207 1.970 . S
Co204 N221 1.989 . S
Co204 O229 1.967 . S
Co204 O236 1.920 . S
Co205 O208 1.966 . S
Co205 N214 2.022 . S
Co205 N222 1.993 . S
Co205 O230 1.941 . S
C206 O207 1.258 . S
C206 O208 1.263 . S
O207 Co204 1.970 . S
O207 C206 1.258 . S
O208 Co205 1.966 . S
O208 C206 1.263 . S
C209 O210 1.235 . S
C209 O236 1.289 . S
O210 C209 1.235 . S
C211 C213 1.400 . S
C211 N214 1.351 . S
C211 C216 1.501 . S
C212 C213 1.387 . S
C212 N215 1.341 . S
C213 C211 1.400 . S
C213 C212 1.387 . S
N214 Co205 2.022 . S
N214 C211 1.351 . S
N214 N215 1.365 . S
N215 C212 1.341 . S
N215 N214 1.365 . S
N215 H235 0.862 . S
C216 C211 1.501 . S
C216 H217 0.961 . S
C216 H218 0.961 . S
C216 H219 0.960 . S
H217 C216 0.961 . S
H218 C216 0.961 . S
H219 C216 0.960 . S
C220 N221 1.342 . S
C220 C224 1.401 . S
C220 C225 1.499 . S
N221 Co204 1.989 . S
N221 C220 1.342 . S
N221 N222 1.388 . S
N222 Co205 1.993 . S
N222 N221 1.388 . S
N222 C223 1.346 . S
C223 N222 1.346 . S
C223 C224 1.396 . S
C223 C233 1.510 . S
C224 C220 1.401 . S
C224 C223 1.396 . S
C225 C220 1.499 . S
C225 H226 0.959 . S
C225 H227 0.960 . S
C225 H228 0.961 . S
H226 C225 0.959 . S
H227 C225 0.960 . S
H228 C225 0.961 . S
O229 Co204 1.967 . S
O229 C237 1.258 . S
O230 Co205 1.941 . S
O230 C237 1.266 . S
H231 C233 0.959 . S
H232 C233 0.961 . S
C233 C223 1.510 . S
C233 H231 0.959 . S
C233 H232 0.961 . S
C233 H234 0.960 . S
H234 C233 0.960 . S
H235 N215 0.862 . S
O236 Co204 1.920 . S
O236 C209 1.289 . S
C237 O229 1.258 . S
C237 O230 1.266 . S
Co238 O241 1.970 . S
Co238 N255 1.989 . S
Co238 O263 1.967 . S
Co238 O270 1.920 . S
Co239 O242 1.966 . S
Co239 N248 2.022 . S
Co239 N256 1.993 . S
Co239 O264 1.941 . S
C240 O241 1.258 . S
C240 O242 1.263 . S
O241 Co238 1.970 . S
O241 C240 1.258 . S
O242 Co239 1.966 . S
O242 C240 1.263 . S
C243 O244 1.235 . S
C243 O270 1.289 . S
O244 C243 1.235 . S
C245 C247 1.400 . S
C245 N248 1.351 . S
C245 C250 1.501 . S
C246 C247 1.387 . S
C246 N249 1.341 . S
C247 C245 1.400 . S
C247 C246 1.387 . S
N248 Co239 2.022 . S
N248 C245 1.351 . S
N248 N249 1.365 . S
N249 C246 1.341 . S
N249 N248 1.365 . S
N249 H269 0.862 . S
C250 C245 1.501 . S
C250 H251 0.961 . S
C250 H252 0.961 . S
C250 H253 0.960 . S
H251 C250 0.961 . S
H252 C250 0.961 . S
H253 C250 0.960 . S
C254 N255 1.342 . S
C254 C258 1.401 . S
C254 C259 1.499 . S
N255 Co238 1.989 . S
N255 C254 1.342 . S
N255 N256 1.388 . S
N256 Co239 1.993 . S
N256 N255 1.388 . S
N256 C257 1.346 . S
C257 N256 1.346 . S
C257 C258 1.396 . S
C257 C267 1.510 . S
C258 C254 1.401 . S
C258 C257 1.396 . S
C259 C254 1.499 . S
C259 H260 0.959 . S
C259 H261 0.960 . S
C259 H262 0.961 . S
H260 C259 0.959 . S
H261 C259 0.960 . S
H262 C259 0.961 . S
O263 Co238 1.967 . S
O263 C271 1.258 . S
O264 Co239 1.941 . S
O264 C271 1.266 . S
H265 C267 0.959 . S
H266 C267 0.961 . S
C267 C257 1.510 . S
C267 H265 0.959 . S
C267 H266 0.961 . S
C267 H268 0.960 . S
H268 C267 0.960 . S
H269 N249 0.862 . S
O270 Co238 1.920 . S
O270 C243 1.289 . S
C271 O263 1.258 . S
C271 O264 1.266 . S
Co272 O275 1.970 . S
Co272 N289 1.989 . S
Co272 O297 1.967 . S
Co272 O304 1.920 . S
Co273 O276 1.966 . S
Co273 N282 2.022 . S
Co273 N290 1.993 . S
Co273 O298 1.941 . S
C274 O275 1.258 . S
C274 O276 1.263 . S
O275 Co272 1.970 . S
O275 C274 1.258 . S
O276 Co273 1.966 . S
O276 C274 1.263 . S
C277 O278 1.235 . S
C277 O304 1.289 . S
O278 C277 1.235 . S
C279 C281 1.400 . S
C279 N282 1.351 . S
C279 C284 1.501 . S
C280 C281 1.387 . S
C280 N283 1.341 . S
C281 C279 1.400 . S
C281 C280 1.387 . S
N282 Co273 2.022 . S
N282 C279 1.351 . S
N282 N283 1.365 . S
N283 C280 1.341 . S
N283 N282 1.365 . S
N283 H303 0.862 . S
C284 C279 1.501 . S
C284 H285 0.961 . S
C284 H286 0.961 . S
C284 H287 0.960 . S
H285 C284 0.961 . S
H286 C284 0.961 . S
H287 C284 0.960 . S
C288 N289 1.342 . S
C288 C292 1.401 . S
C288 C293 1.499 . S
N289 Co272 1.989 . S
N289 C288 1.342 . S
N289 N290 1.388 . S
N290 Co273 1.993 . S
N290 N289 1.388 . S
N290 C291 1.346 . S
C291 N290 1.346 . S
C291 C292 1.396 . S
C291 C301 1.510 . S
C292 C288 1.401 . S
C292 C291 1.396 . S
C293 C288 1.499 . S
C293 H294 0.959 . S
C293 H295 0.960 . S
C293 H296 0.961 . S
H294 C293 0.959 . S
H295 C293 0.960 . S
H296 C293 0.961 . S
O297 Co272 1.967 . S
O297 C305 1.258 . S
O298 Co273 1.941 . S
O298 C305 1.266 . S
H299 C301 0.959 . S
H300 C301 0.961 . S
C301 C291 1.510 . S
C301 H299 0.959 . S
C301 H300 0.961 . S
C301 H302 0.960 . S
H302 C301 0.960 . S
H303 N283 0.862 . S
O304 Co272 1.920 . S
O304 C277 1.289 . S
C305 O297 1.258 . S
C305 O298 1.266 . S
Co306 O309 1.970 . S
Co306 N323 1.989 . S
Co306 O331 1.967 . S
Co306 O338 1.920 . S
Co307 O310 1.966 . S
Co307 N316 2.022 . S
Co307 N324 1.993 . S
Co307 O332 1.941 . S
C308 O309 1.258 . S
C308 O310 1.263 . S
O309 Co306 1.970 . S
O309 C308 1.258 . S
O310 Co307 1.966 . S
O310 C308 1.263 . S
C311 O312 1.235 . S
C311 O338 1.289 . S
O312 C311 1.235 . S
C313 C315 1.400 1_554 S
C313 N316 1.351 . S
C313 C318 1.501 . S
C314 C315 1.387 . S
C314 N317 1.341 1_556 S
C315 C313 1.400 1_556 S
C315 C314 1.387 . S
N316 Co307 2.022 . S
N316 C313 1.351 . S
N316 N317 1.365 . S
N317 C314 1.341 1_554 S
N317 N316 1.365 . S
N317 H337 0.862 . S
C318 C313 1.501 . S
C318 H319 0.961 . S
C318 H320 0.961 . S
C318 H321 0.960 . S
H319 C318 0.961 . S
H320 C318 0.961 . S
H321 C318 0.960 . S
C322 N323 1.342 . S
C322 C326 1.401 . S
C322 C327 1.499 . S
N323 Co306 1.989 . S
N323 C322 1.342 . S
N323 N324 1.388 . S
N324 Co307 1.993 . S
N324 N323 1.388 . S
N324 C325 1.346 . S
C325 N324 1.346 . S
C325 C326 1.396 . S
C325 C335 1.510 . S
C326 C322 1.401 . S
C326 C325 1.396 . S
C327 C322 1.499 . S
C327 H328 0.959 . S
C327 H329 0.960 . S
C327 H330 0.961 . S
H328 C327 0.959 . S
H329 C327 0.960 . S
H330 C327 0.961 . S
O331 Co306 1.967 . S
O331 C339 1.258 . S
O332 Co307 1.941 . S
O332 C339 1.266 . S
H333 C335 0.959 . S
H334 C335 0.961 . S
C335 C325 1.510 . S
C335 H333 0.959 . S
C335 H334 0.961 . S
C335 H336 0.960 . S
H336 C335 0.960 . S
H337 N317 0.862 . S
O338 Co306 1.920 . S
O338 C311 1.289 . S
C339 O331 1.258 . S
C339 O332 1.266 . S
Co340 O343 1.970 . S
Co340 N357 1.989 . S
Co340 O365 1.967 . S
Co340 O372 1.920 . S
Co341 O344 1.966 . S
Co341 N350 2.022 . S
Co341 N358 1.993 . S
Co341 O366 1.941 . S
C342 O343 1.258 . S
C342 O344 1.263 . S
O343 Co340 1.970 . S
O343 C342 1.258 . S
O344 Co341 1.966 . S
O344 C342 1.263 . S
C345 O346 1.235 . S
C345 O372 1.289 . S
O346 C345 1.235 . S
C347 C349 1.400 . S
C347 N350 1.351 . S
C347 C352 1.501 . S
C348 C349 1.387 . S
C348 N351 1.341 . S
C349 C347 1.400 . S
C349 C348 1.387 . S
N350 Co341 2.022 . S
N350 C347 1.351 . S
N350 N351 1.365 . S
N351 C348 1.341 . S
N351 N350 1.365 . S
N351 H371 0.862 . S
C352 C347 1.501 . S
C352 H353 0.961 . S
C352 H354 0.961 . S
C352 H355 0.960 . S
H353 C352 0.961 . S
H354 C352 0.961 . S
H355 C352 0.960 . S
C356 N357 1.342 . S
C356 C360 1.401 . S
C356 C361 1.499 . S
N357 Co340 1.989 . S
N357 C356 1.342 . S
N357 N358 1.388 . S
N358 Co341 1.993 . S
N358 N357 1.388 . S
N358 C359 1.346 . S
C359 N358 1.346 . S
C359 C360 1.396 . S
C359 C369 1.510 . S
C360 C356 1.401 . S
C360 C359 1.396 . S
C361 C356 1.499 . S
C361 H362 0.959 . S
C361 H363 0.960 . S
C361 H364 0.961 . S
H362 C361 0.959 . S
H363 C361 0.960 . S
H364 C361 0.961 . S
O365 Co340 1.967 . S
O365 C373 1.258 . S
O366 Co341 1.941 . S
O366 C373 1.266 . S
H367 C369 0.959 . S
H368 C369 0.961 . S
C369 C359 1.510 . S
C369 H367 0.959 . S
C369 H368 0.961 . S
C369 H370 0.960 . S
H370 C369 0.960 . S
H371 N351 0.862 . S
O372 Co340 1.920 . S
O372 C345 1.289 . S
C373 O365 1.258 . S
C373 O366 1.266 . S
Co374 O377 1.970 . S
Co374 N391 1.989 . S
Co374 O399 1.967 . S
Co374 O406 1.920 . S
Co375 O378 1.966 . S
Co375 N384 2.022 . S
Co375 N392 1.993 . S
Co375 O400 1.941 . S
C376 O377 1.258 . S
C376 O378 1.263 . S
O377 Co374 1.970 . S
O377 C376 1.258 . S
O378 Co375 1.966 . S
O378 C376 1.263 . S
C379 O380 1.235 . S
C379 O406 1.289 . S
O380 C379 1.235 . S
C381 C383 1.400 . S
C381 N384 1.351 . S
C381 C386 1.501 . S
C382 C383 1.387 . S
C382 N385 1.341 . S
C383 C381 1.400 . S
C383 C382 1.387 . S
N384 Co375 2.022 . S
N384 C381 1.351 . S
N384 N385 1.365 . S
N385 C382 1.341 . S
N385 N384 1.365 . S
N385 H405 0.862 . S
C386 C381 1.501 . S
C386 H387 0.961 . S
C386 H388 0.961 . S
C386 H389 0.960 . S
H387 C386 0.961 . S
H388 C386 0.961 . S
H389 C386 0.960 . S
C390 N391 1.342 . S
C390 C394 1.401 . S
C390 C395 1.499 . S
N391 Co374 1.989 . S
N391 C390 1.342 . S
N391 N392 1.388 . S
N392 Co375 1.993 . S
N392 N391 1.388 . S
N392 C393 1.346 . S
C393 N392 1.346 . S
C393 C394 1.396 . S
C393 C403 1.510 . S
C394 C390 1.401 . S
C394 C393 1.396 . S
C395 C390 1.499 . S
C395 H396 0.959 . S
C395 H397 0.960 . S
C395 H398 0.961 . S
H396 C395 0.959 . S
H397 C395 0.960 . S
H398 C395 0.961 . S
O399 Co374 1.967 . S
O399 C407 1.258 . S
O400 Co375 1.941 . S
O400 C407 1.266 . S
H401 C403 0.959 . S
H402 C403 0.961 . S
C403 C393 1.510 . S
C403 H401 0.959 . S
C403 H402 0.961 . S
C403 H404 0.960 . S
H404 C403 0.960 . S
H405 N385 0.862 . S
O406 Co374 1.920 . S
O406 C379 1.289 . S
C407 O399 1.258 . S
C407 O400 1.266 . S
Co408 O411 1.970 . S
Co408 N425 1.989 . S
Co408 O433 1.967 . S
Co408 O440 1.920 . S
Co409 O412 1.966 . S
Co409 N418 2.022 . S
Co409 N426 1.993 . S
Co409 O434 1.941 . S
C410 O411 1.258 . S
C410 O412 1.263 . S
O411 Co408 1.970 . S
O411 C410 1.258 . S
O412 Co409 1.966 . S
O412 C410 1.263 . S
C413 O414 1.235 . S
C413 O440 1.289 . S
O414 C413 1.235 . S
C415 C417 1.400 . S
C415 N418 1.351 . S
C415 C420 1.501 . S
C416 C417 1.387 . S
C416 N419 1.341 . S
C417 C415 1.400 . S
C417 C416 1.387 . S
N418 Co409 2.022 . S
N418 C415 1.351 . S
N418 N419 1.365 . S
N419 C416 1.341 . S
N419 N418 1.365 . S
N419 H439 0.862 . S
C420 C415 1.501 . S
C420 H421 0.961 . S
C420 H422 0.961 . S
C420 H423 0.960 . S
H421 C420 0.961 . S
H422 C420 0.961 . S
H423 C420 0.960 . S
C424 N425 1.342 . S
C424 C428 1.401 . S
C424 C429 1.499 . S
N425 Co408 1.989 . S
N425 C424 1.342 . S
N425 N426 1.388 . S
N426 Co409 1.993 . S
N426 N425 1.388 . S
N426 C427 1.346 . S
C427 N426 1.346 . S
C427 C428 1.396 . S
C427 C437 1.510 . S
C428 C424 1.401 . S
C428 C427 1.396 . S
C429 C424 1.499 . S
C429 H430 0.959 . S
C429 H431 0.960 . S
C429 H432 0.961 . S
H430 C429 0.959 . S
H431 C429 0.960 . S
H432 C429 0.961 . S
O433 Co408 1.967 . S
O433 C441 1.258 . S
O434 Co409 1.941 . S
O434 C441 1.266 . S
H435 C437 0.959 . S
H436 C437 0.961 . S
C437 C427 1.510 . S
C437 H435 0.959 . S
C437 H436 0.961 . S
C437 H438 0.960 . S
H438 C437 0.960 . S
H439 N419 0.862 . S
O440 Co408 1.920 . S
O440 C413 1.289 . S
C441 O433 1.258 . S
C441 O434 1.266 . S
Co442 O445 1.970 . S
Co442 N459 1.989 . S
Co442 O467 1.967 . S
Co442 O474 1.920 . S
Co443 O446 1.966 . S
Co443 N452 2.022 . S
Co443 N460 1.993 . S
Co443 O468 1.941 . S
C444 O445 1.258 . S
C444 O446 1.263 . S
O445 Co442 1.970 . S
O445 C444 1.258 . S
O446 Co443 1.966 . S
O446 C444 1.263 . S
C447 O448 1.235 . S
C447 O474 1.289 . S
O448 C447 1.235 . S
C449 C451 1.400 . S
C449 N452 1.351 . S
C449 C454 1.501 . S
C450 C451 1.387 . S
C450 N453 1.341 . S
C451 C449 1.400 . S
C451 C450 1.387 . S
N452 Co443 2.022 . S
N452 C449 1.351 . S
N452 N453 1.365 . S
N453 C450 1.341 . S
N453 N452 1.365 . S
N453 H473 0.862 . S
C454 C449 1.501 . S
C454 H455 0.961 . S
C454 H456 0.961 . S
C454 H457 0.960 . S
H455 C454 0.961 . S
H456 C454 0.961 . S
H457 C454 0.960 . S
C458 N459 1.342 . S
C458 C462 1.401 . S
C458 C463 1.499 . S
N459 Co442 1.989 . S
N459 C458 1.342 . S
N459 N460 1.388 . S
N460 Co443 1.993 . S
N460 N459 1.388 . S
N460 C461 1.346 . S
C461 N460 1.346 . S
C461 C462 1.396 . S
C461 C471 1.510 . S
C462 C458 1.401 . S
C462 C461 1.396 . S
C463 C458 1.499 . S
C463 H464 0.959 . S
C463 H465 0.960 . S
C463 H466 0.961 . S
H464 C463 0.959 . S
H465 C463 0.960 . S
H466 C463 0.961 . S
O467 Co442 1.967 . S
O467 C475 1.258 . S
O468 Co443 1.941 . S
O468 C475 1.266 . S
H469 C471 0.959 . S
H470 C471 0.961 . S
C471 C461 1.510 . S
C471 H469 0.959 . S
C471 H470 0.961 . S
C471 H472 0.960 . S
H472 C471 0.960 . S
H473 N453 0.862 . S
O474 Co442 1.920 . S
O474 C447 1.289 . S
C475 O467 1.258 . S
C475 O468 1.266 . S
Co476 O479 1.970 . S
Co476 N493 1.989 . S
Co476 O501 1.967 . S
Co476 O508 1.920 . S
Co477 O480 1.966 . S
Co477 N486 2.022 . S
Co477 N494 1.993 . S
Co477 O502 1.941 . S
C478 O479 1.258 . S
C478 O480 1.263 . S
O479 Co476 1.970 . S
O479 C478 1.258 . S
O480 Co477 1.966 . S
O480 C478 1.263 . S
C481 O482 1.235 . S
C481 O508 1.289 . S
O482 C481 1.235 . S
C483 C485 1.400 1_556 S
C483 N486 1.351 . S
C483 C488 1.501 . S
C484 C485 1.387 . S
C484 N487 1.341 1_554 S
C485 C483 1.400 1_554 S
C485 C484 1.387 . S
N486 Co477 2.022 . S
N486 C483 1.351 . S
N486 N487 1.365 . S
N487 C484 1.341 1_556 S
N487 N486 1.365 . S
N487 H507 0.862 . S
C488 C483 1.501 . S
C488 H489 0.961 . S
C488 H490 0.961 . S
C488 H491 0.960 . S
H489 C488 0.961 . S
H490 C488 0.961 . S
H491 C488 0.960 . S
C492 N493 1.342 . S
C492 C496 1.401 . S
C492 C497 1.499 . S
N493 Co476 1.989 . S
N493 C492 1.342 . S
N493 N494 1.388 . S
N494 Co477 1.993 . S
N494 N493 1.388 . S
N494 C495 1.346 . S
C495 N494 1.346 . S
C495 C496 1.396 . S
C495 C505 1.510 . S
C496 C492 1.401 . S
C496 C495 1.396 . S
C497 C492 1.499 . S
C497 H498 0.959 . S
C497 H499 0.960 . S
C497 H500 0.961 . S
H498 C497 0.959 . S
H499 C497 0.960 . S
H500 C497 0.961 . S
O501 Co476 1.967 . S
O501 C509 1.258 . S
O502 Co477 1.941 . S
O502 C509 1.266 . S
H503 C505 0.959 . S
H504 C505 0.961 . S
C505 C495 1.510 . S
C505 H503 0.959 . S
C505 H504 0.961 . S
C505 H506 0.960 . S
H506 C505 0.960 . S
H507 N487 0.862 . S
O508 Co476 1.920 . S
O508 C481 1.289 . S
C509 O501 1.258 . S
C509 O502 1.266 . S
Co510 O513 1.970 . S
Co510 N527 1.989 . S
Co510 O535 1.967 . S
Co510 O542 1.920 . S
Co511 O514 1.966 . S
Co511 N520 2.022 . S
Co511 N528 1.993 . S
Co511 O536 1.941 . S
C512 O513 1.258 . S
C512 O514 1.263 . S
O513 Co510 1.970 . S
O513 C512 1.258 . S
O514 Co511 1.966 . S
O514 C512 1.263 . S
C515 O516 1.235 . S
C515 O542 1.289 . S
O516 C515 1.235 . S
C517 C519 1.400 . S
C517 N520 1.351 . S
C517 C522 1.501 . S
C518 C519 1.387 . S
C518 N521 1.341 . S
C519 C517 1.400 . S
C519 C518 1.387 . S
N520 Co511 2.022 . S
N520 C517 1.351 . S
N520 N521 1.365 . S
N521 C518 1.341 . S
N521 N520 1.365 . S
N521 H541 0.862 . S
C522 C517 1.501 . S
C522 H523 0.961 . S
C522 H524 0.961 . S
C522 H525 0.960 . S
H523 C522 0.961 . S
H524 C522 0.961 . S
H525 C522 0.960 . S
C526 N527 1.342 . S
C526 C530 1.401 . S
C526 C531 1.499 . S
N527 Co510 1.989 . S
N527 C526 1.342 . S
N527 N528 1.388 . S
N528 Co511 1.993 . S
N528 N527 1.388 . S
N528 C529 1.346 . S
C529 N528 1.346 . S
C529 C530 1.396 . S
C529 C539 1.510 . S
C530 C526 1.401 . S
C530 C529 1.396 . S
C531 C526 1.499 . S
C531 H532 0.959 . S
C531 H533 0.960 . S
C531 H534 0.961 . S
H532 C531 0.959 . S
H533 C531 0.960 . S
H534 C531 0.961 . S
O535 Co510 1.967 . S
O535 C543 1.258 . S
O536 Co511 1.941 . S
O536 C543 1.266 . S
H537 C539 0.959 . S
H538 C539 0.961 . S
C539 C529 1.510 . S
C539 H537 0.959 . S
C539 H538 0.961 . S
C539 H540 0.960 . S
H540 C539 0.960 . S
H541 N521 0.862 . S
O542 Co510 1.920 . S
O542 C515 1.289 . S
C543 O535 1.258 . S
C543 O536 1.266 . S
H544 C552 0.929 . S
H545 C554 0.930 . S
H546 C556 0.930 . S
H547 C559 0.929 . S
H548 C562 0.930 . S
H549 C564 0.960 . S
H550 C564 0.960 . S
H551 C564 0.960 . S
C552 H544 0.929 . S
C552 C553 1.377 . S
C552 C554 1.384 . S
C553 C552 1.377 . S
C553 C559 1.390 . S
C554 H545 0.930 . S
C554 C552 1.384 . S
C554 C555 1.372 . S
C555 C554 1.372 . S
C555 C556 1.400 . S
C555 C560 1.490 . S
C556 H546 0.930 . S
C556 C555 1.400 . S
C556 C559 1.386 . S
H557 C573 0.930 . S
H558 C574 0.931 . S
C559 H547 0.929 . S
C559 C553 1.390 . S
C559 C556 1.386 . S
C560 C555 1.490 . S
C560 C562 1.395 . S
C560 C563 1.403 . S
H561 C567 0.930 . S
C562 H548 0.930 . S
C562 C560 1.395 . S
C562 C565 1.403 . S
C563 C560 1.403 . S
C563 C564 1.524 . S
C563 C567 1.400 . S
C564 H549 0.960 . S
C564 H550 0.960 . S
C564 H551 0.960 . S
C564 C563 1.524 . S
C565 C562 1.403 . S
C565 C566 1.392 . S
C565 C569 1.495 . S
C566 C565 1.392 . S
C566 C567 1.385 . S
C566 C568 1.478 . S
C567 H561 0.930 . S
C567 C563 1.400 . S
C567 C566 1.385 . S
C568 C566 1.478 . S
C568 C570 1.381 . S
C568 C574 1.383 . S
C569 C565 1.495 . S
C569 H575 0.959 . S
C569 H576 0.961 . S
C569 H577 0.960 . S
C570 C568 1.381 . S
C570 C571 1.394 . S
C570 H578 0.930 . S
C571 C570 1.394 . S
C571 C572 1.383 . S
C571 H579 0.929 . S
C572 C571 1.383 . S
C572 C573 1.377 . S
C573 H557 0.930 . S
C573 C572 1.377 . S
C573 C574 1.379 . S
C574 H558 0.931 . S
C574 C568 1.383 . S
C574 C573 1.379 . S
H575 C569 0.959 . S
H576 C569 0.961 . S
H577 C569 0.960 . S
H578 C570 0.930 . S
H579 C571 0.929 . S
H580 C588 0.929 . S
H581 C590 0.930 . S
H582 C592 0.930 . S
H583 C595 0.929 . S
H584 C598 0.930 . S
H585 C600 0.960 . S
H586 C600 0.960 . S
H587 C600 0.960 . S
C588 H580 0.929 . S
C588 C589 1.377 . S
C588 C590 1.384 . S
C589 C588 1.377 . S
C589 C595 1.390 . S
C590 H581 0.930 . S
C590 C588 1.384 . S
C590 C591 1.372 . S
C591 C590 1.372 . S
C591 C592 1.400 . S
C591 C596 1.490 . S
C592 H582 0.930 . S
C592 C591 1.400 . S
C592 C595 1.386 . S
H593 C609 0.930 . S
H594 C610 0.931 . S
C595 H583 0.929 . S
C595 C589 1.390 . S
C595 C592 1.386 . S
C596 C591 1.490 . S
C596 C598 1.395 . S
C596 C599 1.403 . S
H597 C603 0.930 . S
C598 H584 0.930 . S
C598 C596 1.395 . S
C598 C601 1.403 . S
C599 C596 1.403 . S
C599 C600 1.524 . S
C599 C603 1.400 . S
C600 H585 0.960 . S
C600 H586 0.960 . S
C600 H587 0.960 . S
C600 C599 1.524 . S
C601 C598 1.403 . S
C601 C602 1.392 . S
C601 C605 1.495 . S
C602 C601 1.392 . S
C602 C603 1.385 . S
C602 C604 1.478 . S
C603 H597 0.930 . S
C603 C599 1.400 . S
C603 C602 1.385 . S
C604 C602 1.478 . S
C604 C606 1.381 . S
C604 C610 1.383 . S
C605 C601 1.495 . S
C605 H611 0.959 . S
C605 H612 0.961 . S
C605 H613 0.960 . S
C606 C604 1.381 . S
C606 C607 1.394 . S
C606 H614 0.930 . S
C607 C606 1.394 . S
C607 C608 1.383 . S
C607 H615 0.929 . S
C608 C607 1.383 . S
C608 C609 1.377 . S
C609 H593 0.930 . S
C609 C608 1.377 . S
C609 C610 1.379 . S
C610 H594 0.931 . S
C610 C604 1.383 . S
C610 C609 1.379 . S
H611 C605 0.959 . S
H612 C605 0.961 . S
H613 C605 0.960 . S
H614 C606 0.930 . S
H615 C607 0.929 . S
H616 C624 0.929 . S
H617 C626 0.930 . S
H618 C628 0.930 . S
H619 C631 0.929 . S
H620 C634 0.930 . S
H621 C636 0.994 . S
H622 C636 0.960 . S
H623 C636 0.960 . S
C624 H616 0.929 . S
C624 C625 1.377 . S
C624 C626 1.384 . S
C625 C624 1.377 . S
C625 C631 1.390 . S
C626 H617 0.930 . S
C626 C624 1.384 . S
C626 C627 1.372 . S
C627 C626 1.372 . S
C627 C628 1.400 . S
C627 C632 1.490 . S
C628 H618 0.930 . S
C628 C627 1.400 . S
C628 C631 1.386 . S
H629 C645 0.930 . S
H630 C646 0.931 . S
C631 H619 0.929 . S
C631 C625 1.390 . S
C631 C628 1.386 . S
C632 C627 1.490 . S
C632 C634 1.395 . S
C632 C635 1.403 . S
H633 C639 0.930 . S
C634 H620 0.930 . S
C634 C632 1.395 . S
C634 C637 1.403 1_554 S
C635 C632 1.403 . S
C635 C636 1.524 . S
C635 C639 1.400 1_554 S
C636 H621 0.994 . S
C636 H622 0.960 . S
C636 H623 0.960 . S
C636 C635 1.524 . S
C637 C634 1.403 1_556 S
C637 C638 1.392 . S
C637 C641 1.495 . S
C638 C637 1.392 . S
C638 C639 1.385 . S
C638 C640 1.478 . S
C639 H633 0.930 . S
C639 C635 1.400 1_556 S
C639 C638 1.385 . S
C640 C638 1.478 . S
C640 C642 1.381 . S
C640 C646 1.383 . S
C641 C637 1.495 . S
C641 H647 0.998 . S
C641 H648 0.961 . S
C641 H649 0.960 . S
C642 C640 1.381 . S
C642 C643 1.394 . S
C642 H650 0.930 . S
C643 C642 1.394 . S
C643 C644 1.383 . S
C643 H651 0.929 . S
C644 C643 1.383 . S
C644 C645 1.377 . S
C645 H629 0.930 . S
C645 C644 1.377 . S
C645 C646 1.379 . S
C646 H630 0.931 . S
C646 C640 1.383 . S
C646 C645 1.379 . S
H647 C641 0.998 . S
H648 C641 0.961 . S
H649 C641 0.960 . S
H650 C642 0.930 . S
H651 C643 0.929 . S
H652 C660 0.929 . S
H653 C662 0.930 . S
H654 C664 0.930 . S
H655 C667 0.929 . S
H656 C670 0.930 . S
H657 C672 0.960 . S
H658 C672 0.960 . S
H659 C672 0.960 . S
C660 H652 0.929 . S
C660 C661 1.377 . S
C660 C662 1.384 . S
C661 C660 1.377 . S
C661 C667 1.390 . S
C662 H653 0.930 . S
C662 C660 1.384 . S
C662 C663 1.372 . S
C663 C662 1.372 . S
C663 C664 1.400 . S
C663 C668 1.490 . S
C664 H654 0.930 . S
C664 C663 1.400 . S
C664 C667 1.386 . S
H665 C681 0.930 . S
H666 C682 0.931 . S
C667 H655 0.929 . S
C667 C661 1.390 . S
C667 C664 1.386 . S
C668 C663 1.490 . S
C668 C670 1.395 . S
C668 C671 1.403 . S
H669 C675 0.930 . S
C670 H656 0.930 . S
C670 C668 1.395 . S
C670 C673 1.403 . S
C671 C668 1.403 . S
C671 C672 1.524 . S
C671 C675 1.400 . S
C672 H657 0.960 . S
C672 H658 0.960 . S
C672 H659 0.960 . S
C672 C671 1.524 . S
C673 C670 1.403 . S
C673 C674 1.392 . S
C673 C677 1.495 . S
C674 C673 1.392 . S
C674 C675 1.385 . S
C674 C676 1.478 . S
C675 H669 0.930 . S
C675 C671 1.400 . S
C675 C674 1.385 . S
C676 C674 1.478 . S
C676 C678 1.381 . S
C676 C682 1.383 . S
C677 C673 1.495 . S
C677 H683 0.959 . S
C677 H684 0.961 . S
C677 H685 0.960 . S
C678 C676 1.381 . S
C678 C679 1.394 . S
C678 H686 0.930 . S
C679 C678 1.394 . S
C679 C680 1.383 . S
C679 H687 0.929 . S
C680 C679 1.383 . S
C680 C681 1.377 . S
C681 H665 0.930 . S
C681 C680 1.377 . S
C681 C682 1.379 . S
C682 H666 0.931 . S
C682 C676 1.383 . S
C682 C681 1.379 . S
H683 C677 0.959 . S
H684 C677 0.961 . S
H685 C677 0.960 . S
H686 C678 0.930 . S
H687 C679 0.929 . S
H688 C696 0.929 . S
H689 C698 0.930 . S
H690 C700 0.930 . S
H691 C703 0.929 . S
H692 C706 0.930 . S
H693 C708 0.960 . S
H694 C708 0.960 . S
H695 C708 0.960 . S
C696 H688 0.929 . S
C696 C697 1.377 . S
C696 C698 1.384 . S
C697 C696 1.377 . S
C697 C703 1.390 . S
C698 H689 0.930 . S
C698 C696 1.384 . S
C698 C699 1.372 . S
C699 C698 1.372 . S
C699 C700 1.400 . S
C699 C704 1.490 . S
C700 H690 0.930 . S
C700 C699 1.400 . S
C700 C703 1.386 . S
H701 C717 0.930 . S
H702 C718 0.931 . S
C703 H691 0.929 . S
C703 C697 1.390 . S
C703 C700 1.386 . S
C704 C699 1.490 . S
C704 C706 1.395 . S
C704 C707 1.403 . S
H705 C711 0.930 . S
C706 H692 0.930 . S
C706 C704 1.395 . S
C706 C709 1.403 . S
C707 C704 1.403 . S
C707 C708 1.524 . S
C707 C711 1.400 . S
C708 H693 0.960 . S
C708 H694 0.960 . S
C708 H695 0.960 . S
C708 C707 1.524 . S
C709 C706 1.403 . S
C709 C710 1.392 . S
C709 C713 1.495 . S
C710 C709 1.392 . S
C710 C711 1.385 . S
C710 C712 1.478 . S
C711 H705 0.930 . S
C711 C707 1.400 . S
C711 C710 1.385 . S
C712 C710 1.478 . S
C712 C714 1.381 . S
C712 C718 1.383 . S
C713 C709 1.495 . S
C713 H719 0.959 . S
C713 H720 0.961 . S
C713 H721 0.960 . S
C714 C712 1.381 . S
C714 C715 1.394 . S
C714 H722 0.930 . S
C715 C714 1.394 . S
C715 C716 1.383 . S
C715 H723 0.929 . S
C716 C715 1.383 . S
C716 C717 1.377 . S
C717 H701 0.930 . S
C717 C716 1.377 . S
C717 C718 1.379 . S
C718 H702 0.931 . S
C718 C712 1.383 . S
C718 C717 1.379 . S
H719 C713 0.959 . S
H720 C713 0.961 . S
H721 C713 0.960 . S
H722 C714 0.930 . S
H723 C715 0.929 . S
H724 C732 0.929 . S
H725 C734 0.930 . S
H726 C736 0.930 . S
H727 C739 0.929 . S
H728 C742 0.930 . S
H729 C744 0.960 . S
H730 C744 0.960 . S
H731 C744 0.960 . S
C732 H724 0.929 . S
C732 C733 1.377 . S
C732 C734 1.384 . S
C733 C732 1.377 . S
C733 C739 1.390 . S
C734 H725 0.930 . S
C734 C732 1.384 . S
C734 C735 1.372 . S
C735 C734 1.372 . S
C735 C736 1.400 . S
C735 C740 1.490 . S
C736 H726 0.930 . S
C736 C735 1.400 . S
C736 C739 1.386 . S
H737 C753 0.930 . S
H738 C754 0.931 . S
C739 H727 0.929 . S
C739 C733 1.390 . S
C739 C736 1.386 . S
C740 C735 1.490 . S
C740 C742 1.395 . S
C740 C743 1.403 . S
H741 C747 0.930 . S
C742 H728 0.930 . S
C742 C740 1.395 . S
C742 C745 1.403 1_556 S
C743 C740 1.403 . S
C743 C744 1.524 . S
C743 C747 1.400 1_556 S
C744 H729 0.960 . S
C744 H730 0.960 . S
C744 H731 0.960 . S
C744 C743 1.524 . S
C745 C742 1.403 1_554 S
C745 C746 1.392 . S
C745 C749 1.495 . S
C746 C745 1.392 . S
C746 C747 1.385 . S
C746 C748 1.478 . S
C747 H741 0.930 . S
C747 C743 1.400 1_554 S
C747 C746 1.385 . S
C748 C746 1.478 . S
C748 C750 1.381 . S
C748 C754 1.383 . S
C749 C745 1.495 . S
C749 H755 0.959 . S
C749 H756 0.961 . S
C749 H757 0.960 . S
C750 C748 1.381 . S
C750 C751 1.394 . S
C750 H758 0.930 . S
C751 C750 1.394 . S
C751 C752 1.383 . S
C751 H759 0.929 . S
C752 C751 1.383 . S
C752 C753 1.377 . S
C753 H737 0.930 . S
C753 C752 1.377 . S
C753 C754 1.379 . S
C754 H738 0.931 . S
C754 C748 1.383 . S
C754 C753 1.379 . S
H755 C749 0.959 . S
H756 C749 0.961 . S
H757 C749 0.960 . S
H758 C750 0.930 . S
H759 C751 0.929 . S
H760 C768 0.929 . S
H761 C770 0.930 . S
H762 C772 0.930 . S
H763 C775 0.929 . S
H764 C778 0.930 . S
H765 C780 0.960 . S
H766 C780 0.960 . S
H767 C780 0.960 . S
C768 H760 0.929 . S
C768 C769 1.377 . S
C768 C770 1.384 . S
C769 C768 1.377 . S
C769 C775 1.390 . S
C770 H761 0.930 . S
C770 C768 1.384 . S
C770 C771 1.372 . S
C771 C770 1.372 . S
C771 C772 1.400 . S
C771 C776 1.490 . S
C772 H762 0.930 . S
C772 C771 1.400 . S
C772 C775 1.386 . S
H773 C789 0.930 . S
H774 C790 0.931 . S
C775 H763 0.929 . S
C775 C769 1.390 . S
C775 C772 1.386 . S
C776 C771 1.490 . S
C776 C778 1.395 . S
C776 C779 1.403 . S
H777 C783 0.930 . S
C778 H764 0.930 . S
C778 C776 1.395 . S
C778 C781 1.403 . S
C779 C776 1.403 . S
C779 C780 1.524 . S
C779 C783 1.400 . S
C780 H765 0.960 . S
C780 H766 0.960 . S
C780 H767 0.960 . S
C780 C779 1.524 . S
C781 C778 1.403 . S
C781 C782 1.392 . S
C781 C785 1.495 . S
C782 C781 1.392 . S
C782 C783 1.385 . S
C782 C784 1.478 . S
C783 H777 0.930 . S
C783 C779 1.400 . S
C783 C782 1.385 . S
C784 C782 1.478 . S
C784 C786 1.381 . S
C784 C790 1.383 . S
C785 C781 1.495 . S
C785 H791 0.959 . S
C785 H792 0.961 . S
C785 H793 0.960 . S
C786 C784 1.381 . S
C786 C787 1.394 . S
C786 H794 0.930 . S
C787 C786 1.394 . S
C787 C788 1.383 . S
C787 H795 0.929 . S
C788 C787 1.383 . S
C788 C789 1.377 . S
C789 H773 0.930 . S
C789 C788 1.377 . S
C789 C790 1.379 . S
C790 H774 0.931 . S
C790 C784 1.383 . S
C790 C789 1.379 . S
H791 C785 0.959 . S
H792 C785 0.961 . S
H793 C785 0.960 . S
H794 C786 0.930 . S
H795 C787 0.929 . S
H796 C804 0.929 . S
H797 C806 0.930 . S
H798 C808 0.930 . S
H799 C811 0.929 . S
H800 C814 0.930 . S
H801 C816 0.960 . S
H802 C816 0.960 . S
H803 C816 0.960 . S
C804 H796 0.929 . S
C804 C805 1.377 . S
C804 C806 1.384 . S
C805 C804 1.377 . S
C805 C811 1.390 . S
C806 H797 0.930 . S
C806 C804 1.384 . S
C806 C807 1.372 . S
C807 C806 1.372 . S
C807 C808 1.400 . S
C807 C812 1.490 . S
C808 H798 0.930 . S
C808 C807 1.400 . S
C808 C811 1.386 . S
H809 C825 0.930 . S
H810 C826 0.931 . S
C811 H799 0.929 . S
C811 C805 1.390 . S
C811 C808 1.386 . S
C812 C807 1.490 . S
C812 C814 1.395 . S
C812 C815 1.403 . S
H813 C819 0.930 . S
C814 H800 0.930 . S
C814 C812 1.395 . S
C814 C817 1.403 . S
C815 C812 1.403 . S
C815 C816 1.524 . S
C815 C819 1.400 . S
C816 H801 0.960 . S
C816 H802 0.960 . S
C816 H803 0.960 . S
C816 C815 1.524 . S
C817 C814 1.403 . S
C817 C818 1.392 . S
C817 C821 1.495 . S
C818 C817 1.392 . S
C818 C819 1.385 . S
C818 C820 1.478 . S
C819 H813 0.930 . S
C819 C815 1.400 . S
C819 C818 1.385 . S
C820 C818 1.478 . S
C820 C822 1.381 . S
C820 C826 1.383 . S
C821 C817 1.495 . S
C821 H827 0.959 . S
C821 H828 0.961 . S
C821 H829 0.960 . S
C822 C820 1.381 . S
C822 C823 1.394 . S
C822 H830 0.930 . S
C823 C822 1.394 . S
C823 C824 1.383 . S
C823 H831 0.929 . S
C824 C823 1.383 . S
C824 C825 1.377 . S
C825 H809 0.930 . S
C825 C824 1.377 . S
C825 C826 1.379 . S
C826 H810 0.931 . S
C826 C820 1.383 . S
C826 C825 1.379 . S
H827 C821 0.959 . S
H828 C821 0.961 . S
H829 C821 0.960 . S
H830 C822 0.930 . S
H831 C823 0.929 . S
H832 C840 0.929 . S
H833 C842 0.930 . S
H834 C844 0.930 . S
H835 C847 0.929 . S
H836 C850 0.930 . S
H837 C852 0.960 . S
H838 C852 0.960 . S
H839 C852 0.960 . S
C840 H832 0.929 . S
C840 C841 1.377 . S
C840 C842 1.384 . S
C841 C840 1.377 . S
C841 C847 1.390 . S
C842 H833 0.930 . S
C842 C840 1.384 . S
C842 C843 1.372 . S
C843 C842 1.372 . S
C843 C844 1.400 . S
C843 C848 1.490 . S
C844 H834 0.930 . S
C844 C843 1.400 . S
C844 C847 1.386 . S
H845 C861 0.930 . S
H846 C862 0.931 . S
C847 H835 0.929 . S
C847 C841 1.390 . S
C847 C844 1.386 . S
C848 C843 1.490 . S
C848 C850 1.395 . S
C848 C851 1.403 . S
H849 C855 0.930 . S
C850 H836 0.930 . S
C850 C848 1.395 . S
C850 C853 1.403 . S
C851 C848 1.403 . S
C851 C852 1.524 . S
C851 C855 1.400 . S
C852 H837 0.960 . S
C852 H838 0.960 . S
C852 H839 0.960 . S
C852 C851 1.524 . S
C853 C850 1.403 . S
C853 C854 1.392 . S
C853 C857 1.495 . S
C854 C853 1.392 . S
C854 C855 1.385 . S
C854 C856 1.478 . S
C855 H849 0.930 . S
C855 C851 1.400 . S
C855 C854 1.385 . S
C856 C854 1.478 . S
C856 C858 1.381 . S
C856 C862 1.383 . S
C857 C853 1.495 . S
C857 H863 0.959 . S
C857 H864 0.961 . S
C857 H865 0.960 . S
C858 C856 1.381 . S
C858 C859 1.394 . S
C858 H866 0.930 . S
C859 C858 1.394 . S
C859 C860 1.383 . S
C859 H867 0.929 . S
C860 C859 1.383 . S
C860 C861 1.377 . S
C861 H845 0.930 . S
C861 C860 1.377 . S
C861 C862 1.379 . S
C862 H846 0.931 . S
C862 C856 1.383 . S
C862 C861 1.379 . S
H863 C857 0.959 . S
H864 C857 0.961 . S
H865 C857 0.960 . S
H866 C858 0.930 . S
H867 C859 0.929 . S
H868 C876 0.929 . S
H869 C878 0.930 . S
H870 C880 0.930 . S
H871 C883 0.929 . S
H872 C886 0.930 . S
H873 C888 0.960 . S
H874 C888 0.960 . S
H875 C888 0.960 . S
C876 H868 0.929 . S
C876 C877 1.377 . S
C876 C878 1.384 . S
C877 C876 1.377 . S
C877 C883 1.390 . S
C878 H869 0.930 . S
C878 C876 1.384 . S
C878 C879 1.372 . S
C879 C878 1.372 . S
C879 C880 1.400 . S
C879 C884 1.490 . S
C880 H870 0.930 . S
C880 C879 1.400 . S
C880 C883 1.386 . S
H881 C897 0.930 . S
H882 C898 0.931 . S
C883 H871 0.929 . S
C883 C877 1.390 . S
C883 C880 1.386 . S
C884 C879 1.490 . S
C884 C886 1.395 . S
C884 C887 1.403 . S
H885 C891 0.930 . S
C886 H872 0.930 . S
C886 C884 1.395 . S
C886 C889 1.403 . S
C887 C884 1.403 . S
C887 C888 1.524 . S
C887 C891 1.400 . S
C888 H873 0.960 . S
C888 H874 0.960 . S
C888 H875 0.960 . S
C888 C887 1.524 . S
C889 C886 1.403 . S
C889 C890 1.392 . S
C889 C893 1.495 . S
C890 C889 1.392 . S
C890 C891 1.385 . S
C890 C892 1.478 . S
C891 H885 0.930 . S
C891 C887 1.400 . S
C891 C890 1.385 . S
C892 C890 1.478 . S
C892 C894 1.381 . S
C892 C898 1.383 . S
C893 C889 1.495 . S
C893 H899 0.959 . S
C893 H900 0.961 . S
C893 H901 0.960 . S
C894 C892 1.381 . S
C894 C895 1.394 . S
C894 H902 0.930 . S
C895 C894 1.394 . S
C895 C896 1.383 . S
C895 H903 0.929 . S
C896 C895 1.383 . S
C896 C897 1.377 . S
C897 H881 0.930 . S
C897 C896 1.377 . S
C897 C898 1.379 . S
C898 H882 0.931 . S
C898 C892 1.383 . S
C898 C897 1.379 . S
H899 C893 0.959 . S
H900 C893 0.961 . S
H901 C893 0.960 . S
H902 C894 0.930 . S
H903 C895 0.929 . S
H904 C912 0.929 . S
H905 C914 0.930 . S
H906 C916 0.930 . S
H907 C919 0.929 . S
H908 C922 0.930 . S
H909 C924 0.960 . S
H910 C924 0.960 . S
H911 C924 0.960 . S
C912 H904 0.929 . S
C912 C913 1.377 . S
C912 C914 1.384 . S
C913 C912 1.377 . S
C913 C919 1.390 . S
C914 H905 0.930 . S
C914 C912 1.384 . S
C914 C915 1.372 . S
C915 C914 1.372 . S
C915 C916 1.400 . S
C915 C920 1.490 . S
C916 H906 0.930 . S
C916 C915 1.400 . S
C916 C919 1.386 . S
H917 C933 0.930 . S
H918 C934 0.931 . S
C919 H907 0.929 . S
C919 C913 1.390 . S
C919 C916 1.386 . S
C920 C915 1.490 . S
C920 C922 1.395 . S
C920 C923 1.403 . S
H921 C927 0.930 . S
C922 H908 0.930 . S
C922 C920 1.395 . S
C922 C925 1.403 . S
C923 C920 1.403 . S
C923 C924 1.524 . S
C923 C927 1.400 . S
C924 H909 0.960 . S
C924 H910 0.960 . S
C924 H911 0.960 . S
C924 C923 1.524 . S
C925 C922 1.403 . S
C925 C926 1.392 . S
C925 C929 1.495 . S
C926 C925 1.392 . S
C926 C927 1.385 . S
C926 C928 1.478 . S
C927 H921 0.930 . S
C927 C923 1.400 . S
C927 C926 1.385 . S
C928 C926 1.478 . S
C928 C930 1.381 . S
C928 C934 1.383 . S
C929 C925 1.495 . S
C929 H935 0.959 . S
C929 H936 0.961 . S
C929 H937 0.960 . S
C930 C928 1.381 . S
C930 C931 1.394 . S
C930 H938 0.930 . S
C931 C930 1.394 . S
C931 C932 1.383 . S
C931 H939 0.929 . S
C932 C931 1.383 . S
C932 C933 1.377 . S
C933 H917 0.930 . S
C933 C932 1.377 . S
C933 C934 1.379 . S
C934 H918 0.931 . S
C934 C928 1.383 . S
C934 C933 1.379 . S
H935 C929 0.959 . S
H936 C929 0.961 . S
H937 C929 0.960 . S
H938 C930 0.930 . S
H939 C931 0.929 . S
H940 C948 0.929 . S
H941 C950 0.930 . S
H942 C952 0.930 . S
H943 C955 0.929 . S
H944 C958 0.930 . S
H945 C960 0.960 . S
H946 C960 0.960 . S
H947 C960 0.960 . S
C948 H940 0.929 . S
C948 C949 1.377 . S
C948 C950 1.384 . S
C949 C948 1.377 . S
C949 C955 1.390 . S
C950 H941 0.930 . S
C950 C948 1.384 . S
C950 C951 1.372 . S
C951 C950 1.372 . S
C951 C952 1.400 . S
C951 C956 1.490 . S
C952 H942 0.930 . S
C952 C951 1.400 . S
C952 C955 1.386 . S
H953 C969 0.930 . S
H954 C970 0.931 . S
C955 H943 0.929 . S
C955 C949 1.390 . S
C955 C952 1.386 . S
C956 C951 1.490 . S
C956 C958 1.395 . S
C956 C959 1.403 . S
H957 C963 0.930 . S
C958 H944 0.930 . S
C958 C956 1.395 . S
C958 C961 1.403 . S
C959 C956 1.403 . S
C959 C960 1.524 . S
C959 C963 1.400 . S
C960 H945 0.960 . S
C960 H946 0.960 . S
C960 H947 0.960 . S
C960 C959 1.524 . S
C961 C958 1.403 . S
C961 C962 1.392 . S
C961 C965 1.495 . S
C962 C961 1.392 . S
C962 C963 1.385 . S
C962 C964 1.478 . S
C963 H957 0.930 . S
C963 C959 1.400 . S
C963 C962 1.385 . S
C964 C962 1.478 . S
C964 C966 1.381 . S
C964 C970 1.383 . S
C965 C961 1.495 . S
C965 H971 0.959 . S
C965 H972 0.961 . S
C965 H973 0.960 . S
C966 C964 1.381 . S
C966 C967 1.394 . S
C966 H974 0.930 . S
C967 C966 1.394 . S
C967 C968 1.383 . S
C967 H975 0.929 . S
C968 C967 1.383 . S
C968 C969 1.377 . S
C969 H953 0.930 . S
C969 C968 1.377 . S
C969 C970 1.379 . S
C970 H954 0.931 . S
C970 C964 1.383 . S
C970 C969 1.379 . S
H971 C965 0.959 . S
H972 C965 0.961 . S
H973 C965 0.960 . S
H974 C966 0.930 . S
H975 C967 0.929 . S
H976 C984 0.929 . S
H977 C986 0.930 . S
H978 C988 0.930 . S
H979 C991 0.929 . S
H980 C994 0.930 . S
H981 C996 0.960 . S
H982 C996 0.960 . S
H983 C996 0.960 . S
C984 H976 0.929 . S
C984 C985 1.377 . S
C984 C986 1.384 . S
C985 C984 1.377 . S
C985 C991 1.390 . S
C986 H977 0.930 . S
C986 C984 1.384 . S
C986 C987 1.372 . S
C987 C986 1.372 . S
C987 C988 1.400 . S
C987 C992 1.490 . S
C988 H978 0.930 . S
C988 C987 1.400 . S
C988 C991 1.386 . S
H989 C1005 0.930 . S
H990 C1006 0.931 . S
C991 H979 0.929 . S
C991 C985 1.390 . S
C991 C988 1.386 . S
C992 C987 1.490 . S
C992 C994 1.395 . S
C992 C995 1.403 . S
H993 C999 0.930 . S
C994 H980 0.930 . S
C994 C992 1.395 . S
C994 C997 1.403 . S
C995 C992 1.403 . S
C995 C996 1.524 . S
C995 C999 1.400 . S
C996 H981 0.960 . S
C996 H982 0.960 . S
C996 H983 0.960 . S
C996 C995 1.524 . S
C997 C994 1.403 . S
C997 C998 1.392 . S
C997 C1001 1.495 . S
C998 C997 1.392 . S
C998 C999 1.385 . S
C998 C1000 1.478 . S
C999 H993 0.930 . S
C999 C995 1.400 . S
C999 C998 1.385 . S
C1000 C998 1.478 . S
C1000 C1002 1.381 . S
C1000 C1006 1.383 . S
C1001 C997 1.495 . S
C1001 H1007 0.959 . S
C1001 H1008 0.961 . S
C1001 H1009 0.960 . S
C1002 C1000 1.381 . S
C1002 C1003 1.394 . S
C1002 H1010 0.930 . S
C1003 C1002 1.394 . S
C1003 C1004 1.383 . S
C1003 H1011 0.929 . S
C1004 C1003 1.383 . S
C1004 C1005 1.377 . S
C1005 H989 0.930 . S
C1005 C1004 1.377 . S
C1005 C1006 1.379 . S
C1006 H990 0.931 . S
C1006 C1000 1.383 . S
C1006 C1005 1.379 . S
H1007 C1001 0.959 . S
H1008 C1001 0.961 . S
H1009 C1001 0.960 . S
H1010 C1002 0.930 . S
H1011 C1003 0.929 . S
H1012 C1020 0.929 . S
H1013 C1022 0.930 . S
H1014 C1024 0.930 . S
H1015 C1027 0.929 . S
H1016 C1030 0.930 . S
H1017 C1032 0.960 . S
H1018 C1032 0.960 . S
H1019 C1032 0.960 . S
C1020 H1012 0.929 . S
C1020 C1021 1.377 . S
C1020 C1022 1.384 . S
C1021 C1020 1.377 . S
C1021 C1027 1.390 . S
C1022 H1013 0.930 . S
C1022 C1020 1.384 . S
C1022 C1023 1.372 . S
C1023 C1022 1.372 . S
C1023 C1024 1.400 . S
C1023 C1028 1.490 . S
C1024 H1014 0.930 . S
C1024 C1023 1.400 . S
C1024 C1027 1.386 . S
H1025 C1041 0.930 . S
H1026 C1042 0.931 . S
C1027 H1015 0.929 . S
C1027 C1021 1.390 . S
C1027 C1024 1.386 . S
C1028 C1023 1.490 . S
C1028 C1030 1.395 . S
C1028 C1031 1.403 . S
H1029 C1035 0.930 . S
C1030 H1016 0.930 . S
C1030 C1028 1.395 . S
C1030 C1033 1.403 . S
C1031 C1028 1.403 . S
C1031 C1032 1.524 . S
C1031 C1035 1.400 . S
C1032 H1017 0.960 . S
C1032 H1018 0.960 . S
C1032 H1019 0.960 . S
C1032 C1031 1.524 . S
C1033 C1030 1.403 . S
C1033 C1034 1.392 . S
C1033 C1037 1.495 . S
C1034 C1033 1.392 . S
C1034 C1035 1.385 . S
C1034 C1036 1.478 . S
C1035 H1029 0.930 . S
C1035 C1031 1.400 . S
C1035 C1034 1.385 . S
C1036 C1034 1.478 . S
C1036 C1038 1.381 . S
C1036 C1042 1.383 . S
C1037 C1033 1.495 . S
C1037 H1043 0.959 . S
C1037 H1044 0.961 . S
C1037 H1045 0.960 . S
C1038 C1036 1.381 . S
C1038 C1039 1.394 . S
C1038 H1046 0.930 . S
C1039 C1038 1.394 . S
C1039 C1040 1.383 . S
C1039 H1047 0.929 . S
C1040 C1039 1.383 . S
C1040 C1041 1.377 . S
C1041 H1025 0.930 . S
C1041 C1040 1.377 . S
C1041 C1042 1.379 . S
C1042 H1026 0.931 . S
C1042 C1036 1.383 . S
C1042 C1041 1.379 . S
H1043 C1037 0.959 . S
H1044 C1037 0.961 . S
H1045 C1037 0.960 . S
H1046 C1038 0.930 . S
H1047 C1039 0.929 . S
H1048 C1056 0.929 . S
H1049 C1058 0.930 . S
H1050 C1060 0.930 . S
H1051 C1063 0.929 . S
H1052 C1066 0.930 . S
H1053 C1068 0.960 . S
H1054 C1068 0.960 . S
H1055 C1068 0.960 . S
C1056 H1048 0.929 . S
C1056 C1057 1.377 . S
C1056 C1058 1.384 . S
C1057 C1056 1.377 . S
C1057 C1063 1.390 . S
C1058 H1049 0.930 . S
C1058 C1056 1.384 . S
C1058 C1059 1.372 . S
C1059 C1058 1.372 . S
C1059 C1060 1.400 . S
C1059 C1064 1.490 . S
C1060 H1050 0.930 . S
C1060 C1059 1.400 . S
C1060 C1063 1.386 . S
H1061 C1077 0.930 . S
H1062 C1078 0.931 . S
C1063 H1051 0.929 . S
C1063 C1057 1.390 . S
C1063 C1060 1.386 . S
C1064 C1059 1.490 . S
C1064 C1066 1.395 . S
C1064 C1067 1.403 . S
H1065 C1071 0.930 . S
C1066 H1052 0.930 . S
C1066 C1064 1.395 . S
C1066 C1069 1.403 . S
C1067 C1064 1.403 . S
C1067 C1068 1.524 . S
C1067 C1071 1.400 . S
C1068 H1053 0.960 . S
C1068 H1054 0.960 . S
C1068 H1055 0.960 . S
C1068 C1067 1.524 . S
C1069 C1066 1.403 . S
C1069 C1070 1.392 . S
C1069 C1073 1.495 . S
C1070 C1069 1.392 . S
C1070 C1071 1.385 . S
C1070 C1072 1.478 . S
C1071 H1065 0.930 . S
C1071 C1067 1.400 . S
C1071 C1070 1.385 . S
C1072 C1070 1.478 . S
C1072 C1074 1.381 . S
C1072 C1078 1.383 . S
C1073 C1069 1.495 . S
C1073 H1079 0.959 . S
C1073 H1080 0.961 . S
C1073 H1081 0.960 . S
C1074 C1072 1.381 . S
C1074 C1075 1.394 . S
C1074 H1082 0.930 . S
C1075 C1074 1.394 . S
C1075 C1076 1.383 . S
C1075 H1083 0.929 . S
C1076 C1075 1.383 . S
C1076 C1077 1.377 . S
C1077 H1061 0.930 . S
C1077 C1076 1.377 . S
C1077 C1078 1.379 . S
C1078 H1062 0.931 . S
C1078 C1072 1.383 . S
C1078 C1077 1.379 . S
H1079 C1073 0.959 . S
H1080 C1073 0.961 . S
H1081 C1073 0.960 . S
H1082 C1074 0.930 . S
H1083 C1075 0.929 . S
H1084 C1092 0.929 . S
H1085 C1094 0.930 . S
H1086 C1096 0.930 . S
H1087 C1099 0.929 . S
H1088 C1102 0.930 . S
H1089 C1104 0.960 . S
H1090 C1104 0.960 . S
H1091 C1104 0.960 . S
C1092 H1084 0.929 . S
C1092 C1093 1.377 . S
C1092 C1094 1.384 . S
C1093 C1092 1.377 . S
C1093 C1099 1.390 . S
C1094 H1085 0.930 . S
C1094 C1092 1.384 . S
C1094 C1095 1.372 . S
C1095 C1094 1.372 . S
C1095 C1096 1.400 . S
C1095 C1100 1.490 . S
C1096 H1086 0.930 . S
C1096 C1095 1.400 . S
C1096 C1099 1.386 . S
H1097 C1113 0.930 . S
H1098 C1114 0.931 . S
C1099 H1087 0.929 . S
C1099 C1093 1.390 . S
C1099 C1096 1.386 . S
C1100 C1095 1.490 . S
C1100 C1102 1.395 . S
C1100 C1103 1.403 . S
H1101 C1107 0.930 . S
C1102 H1088 0.930 . S
C1102 C1100 1.395 . S
C1102 C1105 1.403 . S
C1103 C1100 1.403 . S
C1103 C1104 1.524 . S
C1103 C1107 1.400 . S
C1104 H1089 0.960 . S
C1104 H1090 0.960 . S
C1104 H1091 0.960 . S
C1104 C1103 1.524 . S
C1105 C1102 1.403 . S
C1105 C1106 1.392 . S
C1105 C1109 1.495 . S
C1106 C1105 1.392 . S
C1106 C1107 1.385 . S
C1106 C1108 1.478 . S
C1107 H1101 0.930 . S
C1107 C1103 1.400 . S
C1107 C1106 1.385 . S
C1108 C1106 1.478 . S
C1108 C1110 1.381 . S
C1108 C1114 1.383 . S
C1109 C1105 1.495 . S
C1109 H1115 0.959 . S
C1109 H1116 0.961 . S
C1109 H1117 0.960 . S
C1110 C1108 1.381 . S
C1110 C1111 1.394 . S
C1110 H1118 0.930 . S
C1111 C1110 1.394 . S
C1111 C1112 1.383 . S
C1111 H1119 0.929 . S
C1112 C1111 1.383 . S
C1112 C1113 1.377 . S
C1113 H1097 0.930 . S
C1113 C1112 1.377 . S
C1113 C1114 1.379 . S
C1114 H1098 0.931 . S
C1114 C1108 1.383 . S
C1114 C1113 1.379 . S
H1115 C1109 0.959 . S
H1116 C1109 0.961 . S
H1117 C1109 0.960 . S
H1118 C1110 0.930 . S
H1119 C1111 0.929 . S
H1120 C1128 0.929 . S
H1121 C1130 0.930 . S
H1122 C1132 0.930 . S
H1123 C1135 0.929 . S
H1124 C1138 0.930 . S
H1125 C1140 0.960 . S
H1126 C1140 0.960 . S
H1127 C1140 0.960 . S
C1128 H1120 0.929 . S
C1128 C1129 1.377 . S
C1128 C1130 1.384 . S
C1129 C1128 1.377 . S
C1129 C1135 1.390 . S
C1130 H1121 0.930 . S
C1130 C1128 1.384 . S
C1130 C1131 1.372 . S
C1131 C1130 1.372 . S
C1131 C1132 1.400 . S
C1131 C1136 1.490 . S
C1132 H1122 0.930 . S
C1132 C1131 1.400 . S
C1132 C1135 1.386 . S
H1133 C1149 0.930 . S
H1134 C1150 0.931 . S
C1135 H1123 0.929 . S
C1135 C1129 1.390 . S
C1135 C1132 1.386 . S
C1136 C1131 1.490 . S
C1136 C1138 1.395 . S
C1136 C1139 1.403 . S
H1137 C1143 0.930 . S
C1138 H1124 0.930 . S
C1138 C1136 1.395 . S
C1138 C1141 1.403 . S
C1139 C1136 1.403 . S
C1139 C1140 1.524 . S
C1139 C1143 1.400 . S
C1140 H1125 0.960 . S
C1140 H1126 0.960 . S
C1140 H1127 0.960 . S
C1140 C1139 1.524 . S
C1141 C1138 1.403 . S
C1141 C1142 1.392 . S
C1141 C1145 1.495 . S
C1142 C1141 1.392 . S
C1142 C1143 1.385 . S
C1142 C1144 1.478 . S
C1143 H1137 0.930 . S
C1143 C1139 1.400 . S
C1143 C1142 1.385 . S
C1144 C1142 1.478 . S
C1144 C1146 1.381 . S
C1144 C1150 1.383 . S
C1145 C1141 1.495 . S
C1145 H1151 0.959 . S
C1145 H1152 0.961 . S
C1145 H1153 0.960 . S
C1146 C1144 1.381 . S
C1146 C1147 1.394 . S
C1146 H1154 0.930 . S
C1147 C1146 1.394 . S
C1147 C1148 1.383 . S
C1147 H1155 0.929 . S
C1148 C1147 1.383 . S
C1148 C1149 1.377 . S
C1149 H1133 0.930 . S
C1149 C1148 1.377 . S
C1149 C1150 1.379 . S
C1150 H1134 0.931 . S
C1150 C1144 1.383 . S
C1150 C1149 1.379 . S
H1151 C1145 0.959 . S
H1152 C1145 0.961 . S
H1153 C1145 0.960 . S
H1154 C1146 0.930 . S
H1155 C1147 0.929 . S
H1156 C1164 0.929 . S
H1157 C1166 0.930 . S
H1158 C1168 0.930 . S
H1159 C1171 0.929 . S
H1160 C1174 0.930 . S
H1161 C1176 0.960 . S
H1162 C1176 0.960 . S
H1163 C1176 0.960 . S
C1164 H1156 0.929 . S
C1164 C1165 1.377 . S
C1164 C1166 1.384 . S
C1165 C1164 1.377 . S
C1165 C1171 1.390 . S
C1166 H1157 0.930 . S
C1166 C1164 1.384 . S
C1166 C1167 1.372 . S
C1167 C1166 1.372 . S
C1167 C1168 1.400 . S
C1167 C1172 1.490 . S
C1168 H1158 0.930 . S
C1168 C1167 1.400 . S
C1168 C1171 1.386 . S
H1169 C1185 0.930 . S
H1170 C1186 0.931 . S
C1171 H1159 0.929 . S
C1171 C1165 1.390 . S
C1171 C1168 1.386 . S
C1172 C1167 1.490 . S
C1172 C1174 1.395 . S
C1172 C1175 1.403 . S
H1173 C1179 0.930 . S
C1174 H1160 0.930 . S
C1174 C1172 1.395 . S
C1174 C1177 1.403 . S
C1175 C1172 1.403 . S
C1175 C1176 1.524 . S
C1175 C1179 1.400 . S
C1176 H1161 0.960 . S
C1176 H1162 0.960 . S
C1176 H1163 0.960 . S
C1176 C1175 1.524 . S
C1177 C1174 1.403 . S
C1177 C1178 1.392 . S
C1177 C1181 1.495 . S
C1178 C1177 1.392 . S
C1178 C1179 1.385 . S
C1178 C1180 1.478 . S
C1179 H1173 0.930 . S
C1179 C1175 1.400 . S
C1179 C1178 1.385 . S
C1180 C1178 1.478 . S
C1180 C1182 1.381 . S
C1180 C1186 1.383 . S
C1181 C1177 1.495 . S
C1181 H1187 0.959 . S
C1181 H1188 0.961 . S
C1181 H1189 0.960 . S
C1182 C1180 1.381 . S
C1182 C1183 1.394 . S
C1182 H1190 0.930 . S
C1183 C1182 1.394 . S
C1183 C1184 1.383 . S
C1183 H1191 0.929 . S
C1184 C1183 1.383 . S
C1184 C1185 1.377 . S
C1185 H1169 0.930 . S
C1185 C1184 1.377 . S
C1185 C1186 1.379 . S
C1186 H1170 0.931 . S
C1186 C1180 1.383 . S
C1186 C1185 1.379 . S
H1187 C1181 0.959 . S
H1188 C1181 0.961 . S
H1189 C1181 0.960 . S
H1190 C1182 0.930 . S
H1191 C1183 0.929 . S
H1192 C1200 0.929 . S
H1193 C1202 0.930 . S
H1194 C1204 0.930 . S
H1195 C1207 0.929 . S
H1196 C1210 0.930 . S
H1197 C1212 0.960 . S
H1198 C1212 0.960 . S
H1199 C1212 0.960 . S
C1200 H1192 0.929 . S
C1200 C1201 1.377 . S
C1200 C1202 1.384 . S
C1201 C1200 1.377 . S
C1201 C1207 1.390 . S
C1202 H1193 0.930 . S
C1202 C1200 1.384 . S
C1202 C1203 1.372 . S
C1203 C1202 1.372 . S
C1203 C1204 1.400 . S
C1203 C1208 1.490 . S
C1204 H1194 0.930 . S
C1204 C1203 1.400 . S
C1204 C1207 1.386 . S
H1205 C1221 0.930 . S
H1206 C1222 0.931 . S
C1207 H1195 0.929 . S
C1207 C1201 1.390 . S
C1207 C1204 1.386 . S
C1208 C1203 1.490 . S
C1208 C1210 1.395 . S
C1208 C1211 1.403 . S
H1209 C1215 0.930 . S
C1210 H1196 0.930 . S
C1210 C1208 1.395 . S
C1210 C1213 1.403 . S
C1211 C1208 1.403 . S
C1211 C1212 1.524 . S
C1211 C1215 1.400 . S
C1212 H1197 0.960 . S
C1212 H1198 0.960 . S
C1212 H1199 0.960 . S
C1212 C1211 1.524 . S
C1213 C1210 1.403 . S
C1213 C1214 1.392 . S
C1213 C1217 1.495 . S
C1214 C1213 1.392 . S
C1214 C1215 1.385 . S
C1214 C1216 1.478 . S
C1215 H1209 0.930 . S
C1215 C1211 1.400 . S
C1215 C1214 1.385 . S
C1216 C1214 1.478 . S
C1216 C1218 1.381 . S
C1216 C1222 1.383 . S
C1217 C1213 1.495 . S
C1217 H1223 0.959 . S
C1217 H1224 0.961 . S
C1217 H1225 0.960 . S
C1218 C1216 1.381 . S
C1218 C1219 1.394 . S
C1218 H1226 0.930 . S
C1219 C1218 1.394 . S
C1219 C1220 1.383 . S
C1219 H1227 0.929 . S
C1220 C1219 1.383 . S
C1220 C1221 1.377 . S
C1221 H1205 0.930 . S
C1221 C1220 1.377 . S
C1221 C1222 1.379 . S
C1222 H1206 0.931 . S
C1222 C1216 1.383 . S
C1222 C1221 1.379 . S
H1223 C1217 0.959 . S
H1224 C1217 0.961 . S
H1225 C1217 0.960 . S
H1226 C1218 0.930 . S
H1227 C1219 0.929 . S
H1228 C1236 0.929 . S
H1229 C1238 0.930 . S
H1230 C1240 0.930 . S
H1231 C1243 0.929 . S
H1232 C1246 0.930 . S
H1233 C1248 0.960 . S
H1234 C1248 0.960 . S
H1235 C1248 0.960 . S
C1236 H1228 0.929 . S
C1236 C1237 1.377 . S
C1236 C1238 1.384 . S
C1237 C1236 1.377 . S
C1237 C1243 1.390 . S
C1238 H1229 0.930 . S
C1238 C1236 1.384 . S
C1238 C1239 1.372 . S
C1239 C1238 1.372 . S
C1239 C1240 1.400 . S
C1239 C1244 1.490 . S
C1240 H1230 0.930 . S
C1240 C1239 1.400 . S
C1240 C1243 1.386 . S
H1241 C1257 0.930 . S
H1242 C1258 0.931 . S
C1243 H1231 0.929 . S
C1243 C1237 1.390 . S
C1243 C1240 1.386 . S
C1244 C1239 1.490 . S
C1244 C1246 1.395 . S
C1244 C1247 1.403 . S
H1245 C1251 0.930 . S
C1246 H1232 0.930 . S
C1246 C1244 1.395 . S
C1246 C1249 1.403 . S
C1247 C1244 1.403 . S
C1247 C1248 1.524 . S
C1247 C1251 1.400 . S
C1248 H1233 0.960 . S
C1248 H1234 0.960 . S
C1248 H1235 0.960 . S
C1248 C1247 1.524 . S
C1249 C1246 1.403 . S
C1249 C1250 1.392 . S
C1249 C1253 1.495 . S
C1250 C1249 1.392 . S
C1250 C1251 1.385 . S
C1250 C1252 1.478 . S
C1251 H1245 0.930 . S
C1251 C1247 1.400 . S
C1251 C1250 1.385 . S
C1252 C1250 1.478 . S
C1252 C1254 1.381 . S
C1252 C1258 1.383 . S
C1253 C1249 1.495 . S
C1253 H1259 0.959 . S
C1253 H1260 0.961 . S
C1253 H1261 0.960 . S
C1254 C1252 1.381 . S
C1254 C1255 1.394 . S
C1254 H1262 0.930 . S
C1255 C1254 1.394 . S
C1255 C1256 1.383 . S
C1255 H1263 0.929 . S
C1256 C1255 1.383 . S
C1256 C1257 1.377 . S
C1257 H1241 0.930 . S
C1257 C1256 1.377 . S
C1257 C1258 1.379 . S
C1258 H1242 0.931 . S
C1258 C1252 1.383 . S
C1258 C1257 1.379 . S
H1259 C1253 0.959 . S
H1260 C1253 0.961 . S
H1261 C1253 0.960 . S
H1262 C1254 0.930 . S
H1263 C1255 0.929 . S
H1264 C1272 0.929 . S
H1265 C1274 0.930 . S
H1266 C1276 0.930 . S
H1267 C1279 0.929 . S
H1268 C1282 0.930 . S
H1269 C1284 0.960 . S
H1270 C1284 0.960 . S
H1271 C1284 0.960 . S
C1272 H1264 0.929 . S
C1272 C1273 1.377 . S
C1272 C1274 1.384 . S
C1273 C1272 1.377 . S
C1273 C1279 1.390 . S
C1274 H1265 0.930 . S
C1274 C1272 1.384 . S
C1274 C1275 1.372 . S
C1275 C1274 1.372 . S
C1275 C1276 1.400 . S
C1275 C1280 1.490 . S
C1276 H1266 0.930 . S
C1276 C1275 1.400 . S
C1276 C1279 1.386 . S
H1277 C1293 0.930 . S
H1278 C1294 0.931 . S
C1279 H1267 0.929 . S
C1279 C1273 1.390 . S
C1279 C1276 1.386 . S
C1280 C1275 1.490 . S
C1280 C1282 1.395 . S
C1280 C1283 1.403 . S
H1281 C1287 0.930 . S
C1282 H1268 0.930 . S
C1282 C1280 1.395 . S
C1282 C1285 1.403 . S
C1283 C1280 1.403 . S
C1283 C1284 1.524 . S
C1283 C1287 1.400 . S
C1284 H1269 0.960 . S
C1284 H1270 0.960 . S
C1284 H1271 0.960 . S
C1284 C1283 1.524 . S
C1285 C1282 1.403 . S
C1285 C1286 1.392 . S
C1285 C1289 1.495 . S
C1286 C1285 1.392 . S
C1286 C1287 1.385 . S
C1286 C1288 1.478 . S
C1287 H1281 0.930 . S
C1287 C1283 1.400 . S
C1287 C1286 1.385 . S
C1288 C1286 1.478 . S
C1288 C1290 1.381 . S
C1288 C1294 1.383 . S
C1289 C1285 1.495 . S
C1289 H1295 0.959 . S
C1289 H1296 0.961 . S
C1289 H1297 0.960 . S
C1290 C1288 1.381 . S
C1290 C1291 1.394 . S
C1290 H1298 0.930 . S
C1291 C1290 1.394 . S
C1291 C1292 1.383 . S
C1291 H1299 0.929 . S
C1292 C1291 1.383 . S
C1292 C1293 1.377 . S
C1293 H1277 0.930 . S
C1293 C1292 1.377 . S
C1293 C1294 1.379 . S
C1294 H1278 0.931 . S
C1294 C1288 1.383 . S
C1294 C1293 1.379 . S
H1295 C1289 0.959 . S
H1296 C1289 0.961 . S
H1297 C1289 0.960 . S
H1298 C1290 0.930 . S
H1299 C1291 0.929 . S
H1300 C1308 0.929 . S
H1301 C1310 0.930 . S
H1302 C1312 0.930 . S
H1303 C1315 0.929 . S
H1304 C1318 0.930 . S
H1305 C1320 0.960 . S
H1306 C1320 0.960 . S
H1307 C1320 0.960 . S
C1308 H1300 0.929 . S
C1308 C1309 1.377 . S
C1308 C1310 1.384 . S
C1309 C1308 1.377 . S
C1309 C1315 1.390 . S
C1310 H1301 0.930 . S
C1310 C1308 1.384 . S
C1310 C1311 1.372 . S
C1311 C1310 1.372 . S
C1311 C1312 1.400 . S
C1311 C1316 1.490 . S
C1312 H1302 0.930 . S
C1312 C1311 1.400 . S
C1312 C1315 1.386 . S
H1313 C1329 0.930 . S
H1314 C1330 0.931 . S
C1315 H1303 0.929 . S
C1315 C1309 1.390 . S
C1315 C1312 1.386 . S
C1316 C1311 1.490 . S
C1316 C1318 1.395 . S
C1316 C1319 1.403 . S
H1317 C1323 0.930 . S
C1318 H1304 0.930 . S
C1318 C1316 1.395 . S
C1318 C1321 1.403 . S
C1319 C1316 1.403 . S
C1319 C1320 1.524 . S
C1319 C1323 1.400 . S
C1320 H1305 0.960 . S
C1320 H1306 0.960 . S
C1320 H1307 0.960 . S
C1320 C1319 1.524 . S
C1321 C1318 1.403 . S
C1321 C1322 1.392 . S
C1321 C1325 1.495 . S
C1322 C1321 1.392 . S
C1322 C1323 1.385 . S
C1322 C1324 1.478 . S
C1323 H1317 0.930 . S
C1323 C1319 1.400 . S
C1323 C1322 1.385 . S
C1324 C1322 1.478 . S
C1324 C1326 1.381 . S
C1324 C1330 1.383 . S
C1325 C1321 1.495 . S
C1325 H1331 0.959 . S
C1325 H1332 0.961 . S
C1325 H1333 0.960 . S
C1326 C1324 1.381 . S
C1326 C1327 1.394 . S
C1326 H1334 0.930 . S
C1327 C1326 1.394 . S
C1327 C1328 1.383 . S
C1327 H1335 0.929 . S
C1328 C1327 1.383 . S
C1328 C1329 1.377 . S
C1329 H1313 0.930 . S
C1329 C1328 1.377 . S
C1329 C1330 1.379 . S
C1330 H1314 0.931 . S
C1330 C1324 1.383 . S
C1330 C1329 1.379 . S
H1331 C1325 0.959 . S
H1332 C1325 0.961 . S
H1333 C1325 0.960 . S
H1334 C1326 0.930 . S
H1335 C1327 0.929 . S
H1336 C1344 0.929 . S
H1337 C1346 0.930 . S
H1338 C1348 0.930 . S
H1339 C1351 0.929 . S
H1340 C1354 0.930 . S
H1341 C1356 0.960 . S
H1342 C1356 0.960 . S
H1343 C1356 0.960 . S
C1344 H1336 0.929 . S
C1344 C1345 1.377 . S
C1344 C1346 1.384 . S
C1345 C1344 1.377 . S
C1345 C1351 1.390 . S
C1346 H1337 0.930 . S
C1346 C1344 1.384 . S
C1346 C1347 1.372 . S
C1347 C1346 1.372 . S
C1347 C1348 1.400 . S
C1347 C1352 1.490 . S
C1348 H1338 0.930 . S
C1348 C1347 1.400 . S
C1348 C1351 1.386 . S
H1349 C1365 0.930 . S
H1350 C1366 0.931 . S
C1351 H1339 0.929 . S
C1351 C1345 1.390 . S
C1351 C1348 1.386 . S
C1352 C1347 1.490 . S
C1352 C1354 1.395 . S
C1352 C1355 1.403 . S
H1353 C1359 0.930 . S
C1354 H1340 0.930 . S
C1354 C1352 1.395 . S
C1354 C1357 1.403 . S
C1355 C1352 1.403 . S
C1355 C1356 1.524 . S
C1355 C1359 1.400 . S
C1356 H1341 0.960 . S
C1356 H1342 0.960 . S
C1356 H1343 0.960 . S
C1356 C1355 1.524 . S
C1357 C1354 1.403 . S
C1357 C1358 1.392 . S
C1357 C1361 1.495 . S
C1358 C1357 1.392 . S
C1358 C1359 1.385 . S
C1358 C1360 1.478 . S
C1359 H1353 0.930 . S
C1359 C1355 1.400 . S
C1359 C1358 1.385 . S
C1360 C1358 1.478 . S
C1360 C1362 1.381 . S
C1360 C1366 1.383 . S
C1361 C1357 1.495 . S
C1361 H1367 0.959 . S
C1361 H1368 0.961 . S
C1361 H1369 0.960 . S
C1362 C1360 1.381 . S
C1362 C1363 1.394 . S
C1362 H1370 0.930 . S
C1363 C1362 1.394 . S
C1363 C1364 1.383 . S
C1363 H1371 0.929 . S
C1364 C1363 1.383 . S
C1364 C1365 1.377 . S
C1365 H1349 0.930 . S
C1365 C1364 1.377 . S
C1365 C1366 1.379 . S
C1366 H1350 0.931 . S
C1366 C1360 1.383 . S
C1366 C1365 1.379 . S
H1367 C1361 0.959 . S
H1368 C1361 0.961 . S
H1369 C1361 0.960 . S
H1370 C1362 0.930 . S
H1371 C1363 0.929 . S
H1372 C1380 0.929 . S
H1373 C1382 0.930 . S
H1374 C1384 0.930 . S
H1375 C1387 0.929 . S
H1376 C1390 0.930 . S
H1377 C1392 0.960 . S
H1378 C1392 0.960 . S
H1379 C1392 0.960 . S
C1380 H1372 0.929 . S
C1380 C1381 1.377 . S
C1380 C1382 1.384 . S
C1381 C1380 1.377 . S
C1381 C1387 1.390 . S
C1382 H1373 0.930 . S
C1382 C1380 1.384 . S
C1382 C1383 1.372 . S
C1383 C1382 1.372 . S
C1383 C1384 1.400 . S
C1383 C1388 1.490 . S
C1384 H1374 0.930 . S
C1384 C1383 1.400 . S
C1384 C1387 1.386 . S
H1385 C1401 0.930 . S
H1386 C1402 0.931 . S
C1387 H1375 0.929 . S
C1387 C1381 1.390 . S
C1387 C1384 1.386 . S
C1388 C1383 1.490 . S
C1388 C1390 1.395 . S
C1388 C1391 1.403 . S
H1389 C1395 0.930 . S
C1390 H1376 0.930 . S
C1390 C1388 1.395 . S
C1390 C1393 1.403 . S
C1391 C1388 1.403 . S
C1391 C1392 1.524 . S
C1391 C1395 1.400 . S
C1392 H1377 0.960 . S
C1392 H1378 0.960 . S
C1392 H1379 0.960 . S
C1392 C1391 1.524 . S
C1393 C1390 1.403 . S
C1393 C1394 1.392 . S
C1393 C1397 1.495 . S
C1394 C1393 1.392 . S
C1394 C1395 1.385 . S
C1394 C1396 1.478 . S
C1395 H1389 0.930 . S
C1395 C1391 1.400 . S
C1395 C1394 1.385 . S
C1396 C1394 1.478 . S
C1396 C1398 1.381 . S
C1396 C1402 1.383 . S
C1397 C1393 1.495 . S
C1397 H1403 0.959 . S
C1397 H1404 0.961 . S
C1397 H1405 0.960 . S
C1398 C1396 1.381 . S
C1398 C1399 1.394 . S
C1398 H1406 0.930 . S
C1399 C1398 1.394 . S
C1399 C1400 1.383 . S
C1399 H1407 0.929 . S
C1400 C1399 1.383 . S
C1400 C1401 1.377 . S
C1401 H1385 0.930 . S
C1401 C1400 1.377 . S
C1401 C1402 1.379 . S
C1402 H1386 0.931 . S
C1402 C1396 1.383 . S
C1402 C1401 1.379 . S
H1403 C1397 0.959 . S
H1404 C1397 0.961 . S
H1405 C1397 0.960 . S
H1406 C1398 0.930 . S
H1407 C1399 0.929 . S
H1408 C1416 0.929 . S
H1409 C1418 0.930 . S
H1410 C1420 0.930 1_655 S
H1411 C1423 0.929 . S
H1412 C1426 0.930 . S
H1413 C1428 0.960 1_655 S
H1414 C1428 0.960 . S
H1415 C1428 0.960 1_655 S
C1416 H1408 0.929 . S
C1416 C1417 1.377 . S
C1416 C1418 1.384 . S
C1417 C1416 1.377 . S
C1417 C1423 1.390 . S
C1418 H1409 0.930 . S
C1418 C1416 1.384 . S
C1418 C1419 1.372 . S
C1419 C1418 1.372 . S
C1419 C1420 1.400 . S
C1419 C1424 1.490 . S
C1420 H1410 0.930 1_455 S
C1420 C1419 1.400 . S
C1420 C1423 1.386 . S
H1421 C1437 0.930 . S
H1422 C1438 0.931 . S
C1423 H1411 0.929 . S
C1423 C1417 1.390 . S
C1423 C1420 1.386 . S
C1424 C1419 1.490 . S
C1424 C1426 1.395 . S
C1424 C1427 1.403 . S
H1425 C1431 0.930 . S
C1426 H1412 0.930 . S
C1426 C1424 1.395 . S
C1426 C1429 1.396 1_445 S
C1427 C1424 1.403 . S
C1427 C1428 1.524 . S
C1427 C1431 1.400 1_445 S
C1428 H1413 0.960 1_455 S
C1428 H1414 0.960 . S
C1428 H1415 0.960 1_455 S
C1428 C1427 1.524 . S
C1429 C1426 1.396 1_665 S
C1429 C1430 1.399 . S
C1429 C1433 1.496 . S
C1430 C1429 1.399 . S
C1430 C1431 1.385 . S
C1430 C1432 1.478 . S
C1431 H1425 0.930 . S
C1431 C1427 1.400 1_665 S
C1431 C1430 1.385 . S
C1432 C1430 1.478 . S
C1432 C1434 1.381 . S
C1432 C1438 1.383 . S
C1433 C1429 1.496 . S
C1433 H1439 0.959 1_655 S
C1433 H1440 0.961 . S
C1433 H1441 0.960 1_655 S
C1434 C1432 1.381 . S
C1434 C1435 1.394 . S
C1434 H1442 0.930 1_655 S
C1435 C1434 1.394 . S
C1435 C1436 1.383 . S
C1435 H1443 0.929 . S
C1436 C1435 1.383 . S
C1436 C1437 1.377 . S
C1437 H1421 0.930 . S
C1437 C1436 1.377 . S
C1437 C1438 1.379 . S
C1438 H1422 0.931 . S
C1438 C1432 1.383 . S
C1438 C1437 1.379 . S
H1439 C1433 0.959 1_455 S
H1440 C1433 0.961 . S
H1441 C1433 0.960 1_455 S
H1442 C1434 0.930 1_455 S
H1443 C1435 0.929 . S
H1444 C1452 0.929 . S
H1445 C1454 0.930 . S
H1446 C1456 0.930 . S
H1447 C1459 0.929 . S
H1448 C1462 0.930 . S
H1449 C1464 0.960 . S
H1450 C1464 0.960 . S
H1451 C1464 0.960 . S
C1452 H1444 0.929 . S
C1452 C1453 1.377 . S
C1452 C1454 1.384 . S
C1453 C1452 1.377 . S
C1453 C1459 1.390 . S
C1454 H1445 0.930 . S
C1454 C1452 1.384 . S
C1454 C1455 1.372 . S
C1455 C1454 1.372 . S
C1455 C1456 1.400 . S
C1455 C1460 1.490 . S
C1456 H1446 0.930 . S
C1456 C1455 1.400 . S
C1456 C1459 1.386 . S
H1457 C1473 0.930 . S
H1458 C1474 0.931 . S
C1459 H1447 0.929 . S
C1459 C1453 1.390 . S
C1459 C1456 1.386 . S
C1460 C1455 1.490 . S
C1460 C1462 1.395 . S
C1460 C1463 1.403 . S
H1461 C1467 0.930 . S
C1462 H1448 0.930 . S
C1462 C1460 1.395 . S
C1462 C1465 1.403 1_455 S
C1463 C1460 1.403 . S
C1463 C1464 1.524 . S
C1463 C1467 1.400 1_455 S
C1464 H1449 0.960 . S
C1464 H1450 0.960 . S
C1464 H1451 0.960 . S
C1464 C1463 1.524 . S
C1465 C1462 1.403 1_655 S
C1465 C1466 1.392 . S
C1465 C1469 1.495 . S
C1466 C1465 1.392 . S
C1466 C1467 1.385 . S
C1466 C1468 1.478 . S
C1467 H1461 0.930 . S
C1467 C1463 1.400 1_655 S
C1467 C1466 1.385 . S
C1468 C1466 1.478 . S
C1468 C1470 1.381 . S
C1468 C1474 1.383 . S
C1469 C1465 1.495 . S
C1469 H1475 0.959 . S
C1469 H1476 0.961 . S
C1469 H1477 0.960 . S
C1470 C1468 1.381 . S
C1470 C1471 1.394 . S
C1470 H1478 0.930 . S
C1471 C1470 1.394 . S
C1471 C1472 1.383 . S
C1471 H1479 0.929 . S
C1472 C1471 1.383 . S
C1472 C1473 1.377 . S
C1473 H1457 0.930 . S
C1473 C1472 1.377 . S
C1473 C1474 1.379 . S
C1474 H1458 0.931 . S
C1474 C1468 1.383 . S
C1474 C1473 1.379 . S
H1475 C1469 0.959 . S
H1476 C1469 0.961 . S
H1477 C1469 0.960 . S
H1478 C1470 0.930 . S
H1479 C1471 0.929 . S
H1480 C1488 0.929 . S
H1481 C1490 0.930 . S
H1482 C1492 0.930 . S
H1483 C1495 0.929 . S
H1484 C1498 0.930 . S
H1485 C1500 0.960 . S
H1486 C1500 0.960 . S
H1487 C1500 0.960 . S
C1488 H1480 0.929 . S
C1488 C1489 1.377 . S
C1488 C1490 1.384 . S
C1489 C1488 1.377 . S
C1489 C1495 1.390 . S
C1490 H1481 0.930 . S
C1490 C1488 1.384 . S
C1490 C1491 1.372 . S
C1491 C1490 1.372 . S
C1491 C1492 1.400 . S
C1491 C1496 1.490 . S
C1492 H1482 0.930 . S
C1492 C1491 1.400 . S
C1492 C1495 1.386 . S
H1493 C1509 0.930 . S
H1494 C1510 0.931 . S
C1495 H1483 0.929 . S
C1495 C1489 1.390 . S
C1495 C1492 1.386 . S
C1496 C1491 1.490 . S
C1496 C1498 1.395 . S
C1496 C1499 1.403 . S
H1497 C1503 0.930 . S
C1498 H1484 0.930 . S
C1498 C1496 1.395 . S
C1498 C1501 1.403 . S
C1499 C1496 1.403 . S
C1499 C1500 1.524 . S
C1499 C1503 1.400 . S
C1500 H1485 0.960 . S
C1500 H1486 0.960 . S
C1500 H1487 0.960 . S
C1500 C1499 1.524 . S
C1501 C1498 1.403 . S
C1501 C1502 1.392 . S
C1501 C1505 1.495 . S
C1502 C1501 1.392 . S
C1502 C1503 1.385 . S
C1502 C1504 1.478 . S
C1503 H1497 0.930 . S
C1503 C1499 1.400 . S
C1503 C1502 1.385 . S
C1504 C1502 1.478 . S
C1504 C1506 1.381 . S
C1504 C1510 1.383 . S
C1505 C1501 1.495 . S
C1505 H1511 0.959 . S
C1505 H1512 0.961 . S
C1505 H1513 0.960 . S
C1506 C1504 1.381 . S
C1506 C1507 1.394 . S
C1506 H1514 0.930 . S
C1507 C1506 1.394 . S
C1507 C1508 1.383 . S
C1507 H1515 0.929 . S
C1508 C1507 1.383 . S
C1508 C1509 1.377 . S
C1509 H1493 0.930 . S
C1509 C1508 1.377 . S
C1509 C1510 1.379 . S
C1510 H1494 0.931 . S
C1510 C1504 1.383 . S
C1510 C1509 1.379 . S
H1511 C1505 0.959 . S
H1512 C1505 0.961 . S
H1513 C1505 0.960 . S
H1514 C1506 0.930 . S
H1515 C1507 0.929 . S
H1516 C1524 0.929 . S
H1517 C1526 0.930 . S
H1518 C1528 0.930 . S
H1519 C1531 0.929 . S
H1520 C1534 0.930 . S
H1521 C1536 0.960 . S
H1522 C1536 0.960 . S
H1523 C1536 0.960 . S
C1524 H1516 0.929 . S
C1524 C1525 1.377 . S
C1524 C1526 1.384 . S
C1525 C1524 1.377 . S
C1525 C1531 1.390 . S
C1526 H1517 0.930 . S
C1526 C1524 1.384 . S
C1526 C1527 1.372 . S
C1527 C1526 1.372 . S
C1527 C1528 1.400 . S
C1527 C1532 1.490 . S
C1528 H1518 0.930 . S
C1528 C1527 1.400 . S
C1528 C1531 1.386 . S
H1529 C1545 0.930 . S
H1530 C1546 0.931 . S
C1531 H1519 0.929 . S
C1531 C1525 1.390 . S
C1531 C1528 1.386 . S
C1532 C1527 1.490 . S
C1532 C1534 1.395 1_545 S
C1532 C1535 1.403 . S
H1533 C1539 0.930 . S
C1534 H1520 0.930 . S
C1534 C1532 1.395 1_565 S
C1534 C1537 1.403 . S
C1535 C1532 1.403 . S
C1535 C1536 1.524 . S
C1535 C1539 1.400 . S
C1536 H1521 0.960 . S
C1536 H1522 0.960 . S
C1536 H1523 0.960 . S
C1536 C1535 1.524 . S
C1537 C1534 1.403 . S
C1537 C1538 1.392 . S
C1537 C1541 1.495 . S
C1538 C1537 1.392 . S
C1538 C1539 1.385 1_565 S
C1538 C1540 1.478 . S
C1539 H1533 0.930 . S
C1539 C1535 1.400 . S
C1539 C1538 1.385 1_545 S
C1540 C1538 1.478 . S
C1540 C1542 1.381 . S
C1540 C1546 1.383 . S
C1541 C1537 1.495 . S
C1541 H1547 0.959 . S
C1541 H1548 0.961 . S
C1541 H1549 0.960 . S
C1542 C1540 1.381 . S
C1542 C1543 1.394 . S
C1542 H1550 0.930 . S
C1543 C1542 1.394 . S
C1543 C1544 1.383 . S
C1543 H1551 0.929 . S
C1544 C1543 1.383 . S
C1544 C1545 1.377 . S
C1545 H1529 0.930 . S
C1545 C1544 1.377 . S
C1545 C1546 1.379 . S
C1546 H1530 0.931 . S
C1546 C1540 1.383 . S
C1546 C1545 1.379 . S
H1547 C1541 0.959 . S
H1548 C1541 0.961 . S
H1549 C1541 0.960 . S
H1550 C1542 0.930 . S
H1551 C1543 0.929 . S
H1552 C1560 0.929 . S
H1553 C1562 0.930 . S
H1554 C1564 0.930 . S
H1555 C1567 0.929 . S
H1556 C1570 0.930 . S
H1557 C1572 0.960 . S
H1558 C1572 0.960 . S
H1559 C1572 0.960 . S
C1560 H1552 0.929 . S
C1560 C1561 1.377 . S
C1560 C1562 1.384 . S
C1561 C1560 1.377 . S
C1561 C1567 1.390 . S
C1562 H1553 0.930 . S
C1562 C1560 1.384 . S
C1562 C1563 1.372 . S
C1563 C1562 1.372 . S
C1563 C1564 1.400 . S
C1563 C1568 1.490 . S
C1564 H1554 0.930 . S
C1564 C1563 1.400 . S
C1564 C1567 1.386 . S
H1565 C1581 0.930 . S
H1566 C1582 0.931 . S
C1567 H1555 0.929 . S
C1567 C1561 1.390 . S
C1567 C1564 1.386 . S
C1568 C1563 1.490 . S
C1568 C1570 1.395 . S
C1568 C1571 1.403 1_455 S
H1569 C1575 0.930 . S
C1570 H1556 0.930 . S
C1570 C1568 1.395 . S
C1570 C1573 1.403 . S
C1571 C1568 1.403 1_655 S
C1571 C1572 1.524 . S
C1571 C1575 1.400 . S
C1572 H1557 0.960 . S
C1572 H1558 0.960 . S
C1572 H1559 0.960 . S
C1572 C1571 1.524 . S
C1573 C1570 1.403 . S
C1573 C1574 1.392 1_455 S
C1573 C1577 1.495 . S
C1574 C1573 1.392 1_655 S
C1574 C1575 1.385 . S
C1574 C1576 1.478 . S
C1575 H1569 0.930 . S
C1575 C1571 1.400 . S
C1575 C1574 1.385 . S
C1576 C1574 1.478 . S
C1576 C1578 1.381 . S
C1576 C1582 1.383 . S
C1577 C1573 1.495 . S
C1577 H1583 0.959 . S
C1577 H1584 0.961 . S
C1577 H1585 0.960 . S
C1578 C1576 1.381 . S
C1578 C1579 1.394 . S
C1578 H1586 0.930 . S
C1579 C1578 1.394 . S
C1579 C1580 1.383 . S
C1579 H1587 0.929 . S
C1580 C1579 1.383 . S
C1580 C1581 1.377 . S
C1581 H1565 0.930 . S
C1581 C1580 1.377 . S
C1581 C1582 1.379 . S
C1582 H1566 0.931 . S
C1582 C1576 1.383 . S
C1582 C1581 1.379 . S
H1583 C1577 0.959 . S
H1584 C1577 0.961 . S
H1585 C1577 0.960 . S
H1586 C1578 0.930 . S
H1587 C1579 0.929 . S
H1588 C1596 0.929 . S
H1589 C1598 0.930 . S
H1590 C1600 0.930 . S
H1591 C1603 0.929 . S
H1592 C1606 0.930 . S
H1593 C1608 0.960 . S
H1594 C1608 0.960 . S
H1595 C1608 0.960 . S
C1596 H1588 0.929 . S
C1596 C1597 1.377 . S
C1596 C1598 1.384 . S
C1597 C1596 1.377 . S
C1597 C1603 1.390 . S
C1598 H1589 0.930 . S
C1598 C1596 1.384 . S
C1598 C1599 1.372 . S
C1599 C1598 1.372 . S
C1599 C1600 1.400 . S
C1599 C1604 1.490 . S
C1600 H1590 0.930 . S
C1600 C1599 1.400 . S
C1600 C1603 1.386 . S
H1601 C1617 0.930 . S
H1602 C1618 0.931 . S
C1603 H1591 0.929 . S
C1603 C1597 1.390 . S
C1603 C1600 1.386 . S
C1604 C1599 1.490 . S
C1604 C1606 1.395 . S
C1604 C1607 1.403 . S
H1605 C1611 0.930 . S
C1606 H1592 0.930 . S
C1606 C1604 1.395 . S
C1606 C1609 1.403 . S
C1607 C1604 1.403 . S
C1607 C1608 1.524 . S
C1607 C1611 1.400 . S
C1608 H1593 0.960 . S
C1608 H1594 0.960 . S
C1608 H1595 0.960 . S
C1608 C1607 1.524 . S
C1609 C1606 1.403 . S
C1609 C1610 1.392 . S
C1609 C1613 1.495 . S
C1610 C1609 1.392 . S
C1610 C1611 1.385 . S
C1610 C1612 1.478 . S
C1611 H1605 0.930 . S
C1611 C1607 1.400 . S
C1611 C1610 1.385 . S
C1612 C1610 1.478 . S
C1612 C1614 1.381 . S
C1612 C1618 1.383 . S
C1613 C1609 1.495 . S
C1613 H1619 0.959 . S
C1613 H1620 0.961 . S
C1613 H1621 0.960 . S
C1614 C1612 1.381 . S
C1614 C1615 1.394 . S
C1614 H1622 0.930 . S
C1615 C1614 1.394 . S
C1615 C1616 1.383 . S
C1615 H1623 0.929 . S
C1616 C1615 1.383 . S
C1616 C1617 1.377 . S
C1617 H1601 0.930 . S
C1617 C1616 1.377 . S
C1617 C1618 1.379 . S
C1618 H1602 0.931 . S
C1618 C1612 1.383 . S
C1618 C1617 1.379 . S
H1619 C1613 0.959 . S
H1620 C1613 0.961 . S
H1621 C1613 0.960 . S
H1622 C1614 0.930 . S
H1623 C1615 0.929 . S
H1624 C1632 0.929 . S
H1625 C1634 0.930 . S
H1626 C1636 0.930 . S
H1627 C1639 0.929 . S
H1628 C1642 0.930 . S
H1629 C1644 0.960 . S
H1630 C1644 0.960 1_565 S
H1631 C1644 0.960 1_565 S
C1632 H1624 0.929 . S
C1632 C1633 1.377 . S
C1632 C1634 1.384 . S
C1633 C1632 1.377 . S
C1633 C1639 1.390 . S
C1634 H1625 0.930 . S
C1634 C1632 1.384 . S
C1634 C1635 1.372 . S
C1635 C1634 1.372 . S
C1635 C1636 1.400 . S
C1635 C1640 1.490 . S
C1636 H1626 0.930 . S
C1636 C1635 1.400 . S
C1636 C1639 1.386 . S
H1637 C1653 0.930 . S
H1638 C1654 0.931 . S
C1639 H1627 0.929 . S
C1639 C1633 1.390 . S
C1639 C1636 1.386 . S
C1640 C1635 1.490 . S
C1640 C1642 1.395 . S
C1640 C1643 1.415 . S
H1641 C1647 0.930 . S
C1642 H1628 0.930 . S
C1642 C1640 1.395 . S
C1642 C1645 1.403 . S
C1643 C1640 1.415 . S
C1643 C1644 1.523 1_565 S
C1643 C1647 1.388 1_565 S
C1644 H1629 0.960 . S
C1644 H1630 0.960 1_545 S
C1644 H1631 0.960 1_545 S
C1644 C1643 1.523 1_545 S
C1645 C1642 1.403 . S
C1645 C1646 1.392 1_565 S
C1645 C1649 1.495 . S
C1646 C1645 1.392 1_545 S
C1646 C1647 1.385 . S
C1646 C1648 1.478 . S
C1647 H1641 0.930 . S
C1647 C1643 1.388 1_545 S
C1647 C1646 1.385 . S
C1648 C1646 1.478 . S
C1648 C1650 1.381 . S
C1648 C1654 1.383 . S
C1649 C1645 1.495 . S
C1649 H1655 0.959 . S
C1649 H1656 0.961 1_565 S
C1649 H1657 0.960 1_565 S
C1650 C1648 1.381 . S
C1650 C1651 1.394 . S
C1650 H1658 0.930 . S
C1651 C1650 1.394 . S
C1651 C1652 1.383 . S
C1651 H1659 0.929 . S
C1652 C1651 1.383 . S
C1652 C1653 1.377 . S
C1653 H1637 0.930 . S
C1653 C1652 1.377 . S
C1653 C1654 1.379 . S
C1654 H1638 0.931 . S
C1654 C1648 1.383 . S
C1654 C1653 1.379 . S
H1655 C1649 0.959 . S
H1656 C1649 0.961 1_545 S
H1657 C1649 0.960 1_545 S
H1658 C1650 0.930 . S
H1659 C1651 0.929 . S
H1660 C1668 0.929 . S
H1661 C1670 0.930 . S
H1662 C1672 0.930 . S
H1663 C1675 0.929 . S
H1664 C1678 0.934 . S
H1665 C1680 0.960 . S
H1666 C1680 0.960 . S
H1667 C1680 0.960 . S
C1668 H1660 0.929 . S
C1668 C1669 1.377 . S
C1668 C1670 1.384 . S
C1669 C1668 1.377 . S
C1669 C1675 1.390 . S
C1670 H1661 0.930 . S
C1670 C1668 1.384 . S
C1670 C1671 1.372 . S
C1671 C1670 1.372 . S
C1671 C1672 1.400 . S
C1671 C1676 1.490 . S
C1672 H1662 0.930 . S
C1672 C1671 1.400 . S
C1672 C1675 1.386 . S
H1673 C1689 0.930 . S
H1674 C1690 0.931 . S
C1675 H1663 0.929 . S
C1675 C1669 1.390 . S
C1675 C1672 1.386 . S
C1676 C1671 1.490 . S
C1676 C1678 1.424 . S
C1676 C1679 1.403 1_545 S
H1677 C1683 0.930 . S
C1678 H1664 0.934 . S
C1678 C1676 1.424 . S
C1678 C1681 1.370 1_455 S
C1679 C1676 1.403 1_565 S
C1679 C1680 1.524 . S
C1679 C1683 1.400 1_455 S
C1680 H1665 0.960 . S
C1680 H1666 0.960 . S
C1680 H1667 0.960 . S
C1680 C1679 1.524 . S
C1681 C1678 1.370 1_655 S
C1681 C1682 1.392 1_545 S
C1681 C1685 1.495 . S
C1682 C1681 1.392 1_565 S
C1682 C1683 1.385 . S
C1682 C1684 1.478 . S
C1683 H1677 0.930 . S
C1683 C1679 1.400 1_655 S
C1683 C1682 1.385 . S
C1684 C1682 1.478 . S
C1684 C1686 1.381 . S
C1684 C1690 1.383 . S
C1685 C1681 1.495 . S
C1685 H1691 0.959 . S
C1685 H1692 0.961 . S
C1685 H1693 0.960 . S
C1686 C1684 1.381 . S
C1686 C1687 1.394 . S
C1686 H1694 0.930 . S
C1687 C1686 1.394 . S
C1687 C1688 1.383 . S
C1687 H1695 0.929 . S
C1688 C1687 1.383 . S
C1688 C1689 1.377 . S
C1689 H1673 0.930 . S
C1689 C1688 1.377 . S
C1689 C1690 1.379 . S
C1690 H1674 0.931 . S
C1690 C1684 1.383 . S
C1690 C1689 1.379 . S
H1691 C1685 0.959 . S
H1692 C1685 0.961 . S
H1693 C1685 0.960 . S
H1694 C1686 0.930 . S
H1695 C1687 0.929 . S
H1696 C1704 0.929 . S
H1697 C1706 0.930 . S
H1698 C1708 0.930 . S
H1699 C1711 0.929 . S
H1700 C1714 0.930 . S
H1701 C1716 0.960 . S
H1702 C1716 0.960 . S
H1703 C1716 0.960 . S
C1704 H1696 0.929 . S
C1704 C1705 1.377 . S
C1704 C1706 1.384 . S
C1705 C1704 1.377 . S
C1705 C1711 1.390 . S
C1706 H1697 0.930 . S
C1706 C1704 1.384 . S
C1706 C1707 1.372 . S
C1707 C1706 1.372 . S
C1707 C1708 1.400 . S
C1707 C1712 1.490 . S
C1708 H1698 0.930 . S
C1708 C1707 1.400 . S
C1708 C1711 1.386 . S
H1709 C1725 0.930 . S
H1710 C1726 0.931 . S
C1711 H1699 0.929 . S
C1711 C1705 1.390 . S
C1711 C1708 1.386 . S
C1712 C1707 1.490 . S
C1712 C1714 1.395 . S
C1712 C1715 1.403 . S
H1713 C1719 0.930 . S
C1714 H1700 0.930 . S
C1714 C1712 1.395 . S
C1714 C1717 1.403 . S
C1715 C1712 1.403 . S
C1715 C1716 1.524 . S
C1715 C1719 1.400 . S
C1716 H1701 0.960 . S
C1716 H1702 0.960 . S
C1716 H1703 0.960 . S
C1716 C1715 1.524 . S
C1717 C1714 1.403 . S
C1717 C1718 1.392 . S
C1717 C1721 1.495 . S
C1718 C1717 1.392 . S
C1718 C1719 1.385 . S
C1718 C1720 1.478 . S
C1719 H1713 0.930 . S
C1719 C1715 1.400 . S
C1719 C1718 1.385 . S
C1720 C1718 1.478 . S
C1720 C1722 1.381 . S
C1720 C1726 1.383 . S
C1721 C1717 1.495 . S
C1721 H1727 0.959 . S
C1721 H1728 0.961 . S
C1721 H1729 0.960 . S
C1722 C1720 1.381 . S
C1722 C1723 1.394 . S
C1722 H1730 0.930 . S
C1723 C1722 1.394 . S
C1723 C1724 1.383 . S
C1723 H1731 0.929 . S
C1724 C1723 1.383 . S
C1724 C1725 1.377 . S
C1725 H1709 0.930 . S
C1725 C1724 1.377 . S
C1725 C1726 1.379 . S
C1726 H1710 0.931 . S
C1726 C1720 1.383 . S
C1726 C1725 1.379 . S
H1727 C1721 0.959 . S
H1728 C1721 0.961 . S
H1729 C1721 0.960 . S
H1730 C1722 0.930 . S
H1731 C1723 0.929 . S
H1732 C1740 0.929 . S
H1733 C1742 0.930 . S
H1734 C1744 0.930 . S
H1735 C1747 0.929 . S
H1736 C1750 0.930 . S
H1737 C1752 0.960 . S
H1738 C1752 0.960 . S
H1739 C1752 0.960 . S
C1740 H1732 0.929 . S
C1740 C1741 1.377 . S
C1740 C1742 1.384 . S
C1741 C1740 1.377 . S
C1741 C1747 1.390 . S
C1742 H1733 0.930 . S
C1742 C1740 1.384 . S
C1742 C1743 1.372 . S
C1743 C1742 1.372 . S
C1743 C1744 1.400 . S
C1743 C1748 1.490 . S
C1744 H1734 0.930 . S
C1744 C1743 1.400 . S
C1744 C1747 1.386 . S
H1745 C1761 0.930 . S
H1746 C1762 0.931 . S
C1747 H1735 0.929 . S
C1747 C1741 1.390 . S
C1747 C1744 1.386 . S
C1748 C1743 1.490 . S
C1748 C1750 1.395 . S
C1748 C1751 1.403 . S
H1749 C1755 0.930 . S
C1750 H1736 0.930 . S
C1750 C1748 1.395 . S
C1750 C1753 1.403 . S
C1751 C1748 1.403 . S
C1751 C1752 1.524 . S
C1751 C1755 1.400 . S
C1752 H1737 0.960 . S
C1752 H1738 0.960 . S
C1752 H1739 0.960 . S
C1752 C1751 1.524 . S
C1753 C1750 1.403 . S
C1753 C1754 1.392 . S
C1753 C1757 1.495 . S
C1754 C1753 1.392 . S
C1754 C1755 1.385 . S
C1754 C1756 1.478 . S
C1755 H1749 0.930 . S
C1755 C1751 1.400 . S
C1755 C1754 1.385 . S
C1756 C1754 1.478 . S
C1756 C1758 1.381 . S
C1756 C1762 1.383 . S
C1757 C1753 1.495 . S
C1757 H1763 0.959 . S
C1757 H1764 0.961 . S
C1757 H1765 0.960 . S
C1758 C1756 1.381 . S
C1758 C1759 1.394 . S
C1758 H1766 0.930 . S
C1759 C1758 1.394 . S
C1759 C1760 1.383 . S
C1759 H1767 0.929 . S
C1760 C1759 1.383 . S
C1760 C1761 1.377 . S
C1761 H1745 0.930 . S
C1761 C1760 1.377 . S
C1761 C1762 1.379 . S
C1762 H1746 0.931 . S
C1762 C1756 1.383 . S
C1762 C1761 1.379 . S
H1763 C1757 0.959 . S
H1764 C1757 0.961 . S
H1765 C1757 0.960 . S
H1766 C1758 0.930 . S
H1767 C1759 0.929 . S
H1768 C1776 0.929 . S
H1769 C1778 0.930 . S
H1770 C1780 0.930 . S
H1771 C1783 0.929 . S
H1772 C1786 0.930 . S
H1773 C1788 0.960 . S
H1774 C1788 0.960 . S
H1775 C1788 0.960 . S
C1776 H1768 0.929 . S
C1776 C1777 1.377 . S
C1776 C1778 1.384 . S
C1777 C1776 1.377 . S
C1777 C1783 1.390 . S
C1778 H1769 0.930 . S
C1778 C1776 1.384 . S
C1778 C1779 1.372 . S
C1779 C1778 1.372 . S
C1779 C1780 1.400 . S
C1779 C1784 1.490 . S
C1780 H1770 0.930 . S
C1780 C1779 1.400 . S
C1780 C1783 1.386 . S
H1781 C1797 0.930 . S
H1782 C1798 0.931 . S
C1783 H1771 0.929 . S
C1783 C1777 1.390 . S
C1783 C1780 1.386 . S
C1784 C1779 1.490 . S
C1784 C1786 1.395 . S
C1784 C1787 1.403 . S
H1785 C1791 0.930 . S
C1786 H1772 0.930 . S
C1786 C1784 1.395 . S
C1786 C1789 1.403 . S
C1787 C1784 1.403 . S
C1787 C1788 1.524 . S
C1787 C1791 1.400 . S
C1788 H1773 0.960 . S
C1788 H1774 0.960 . S
C1788 H1775 0.960 . S
C1788 C1787 1.524 . S
C1789 C1786 1.403 . S
C1789 C1790 1.392 . S
C1789 C1793 1.495 . S
C1790 C1789 1.392 . S
C1790 C1791 1.385 . S
C1790 C1792 1.478 . S
C1791 H1785 0.930 . S
C1791 C1787 1.400 . S
C1791 C1790 1.385 . S
C1792 C1790 1.478 . S
C1792 C1794 1.381 . S
C1792 C1798 1.383 . S
C1793 C1789 1.495 . S
C1793 H1799 0.959 . S
C1793 H1800 0.961 . S
C1793 H1801 0.960 . S
C1794 C1792 1.381 . S
C1794 C1795 1.394 . S
C1794 H1802 0.930 . S
C1795 C1794 1.394 . S
C1795 C1796 1.383 . S
C1795 H1803 0.929 . S
C1796 C1795 1.383 . S
C1796 C1797 1.377 . S
C1797 H1781 0.930 . S
C1797 C1796 1.377 . S
C1797 C1798 1.379 . S
C1798 H1782 0.931 . S
C1798 C1792 1.383 . S
C1798 C1797 1.379 . S
H1799 C1793 0.959 . S
H1800 C1793 0.961 . S
H1801 C1793 0.960 . S
H1802 C1794 0.930 . S
H1803 C1795 0.929 . S
H1804 C1812 0.929 . S
H1805 C1814 0.930 . S
H1806 C1816 0.930 . S
H1807 C1819 0.929 . S
H1808 C1822 0.930 . S
H1809 C1824 0.960 . S
H1810 C1824 0.960 . S
H1811 C1824 0.960 . S
C1812 H1804 0.929 . S
C1812 C1813 1.377 . S
C1812 C1814 1.384 . S
C1813 C1812 1.377 . S
C1813 C1819 1.390 . S
C1814 H1805 0.930 . S
C1814 C1812 1.384 . S
C1814 C1815 1.372 . S
C1815 C1814 1.372 . S
C1815 C1816 1.400 . S
C1815 C1820 1.490 . S
C1816 H1806 0.930 . S
C1816 C1815 1.400 . S
C1816 C1819 1.386 . S
H1817 C1833 0.930 . S
H1818 C1834 0.931 . S
C1819 H1807 0.929 . S
C1819 C1813 1.390 . S
C1819 C1816 1.386 . S
C1820 C1815 1.490 . S
C1820 C1822 1.395 . S
C1820 C1823 1.403 . S
H1821 C1827 0.930 . S
C1822 H1808 0.930 . S
C1822 C1820 1.395 . S
C1822 C1825 1.403 . S
C1823 C1820 1.403 . S
C1823 C1824 1.524 . S
C1823 C1827 1.400 . S
C1824 H1809 0.960 . S
C1824 H1810 0.960 . S
C1824 H1811 0.960 . S
C1824 C1823 1.524 . S
C1825 C1822 1.403 . S
C1825 C1826 1.392 . S
C1825 C1829 1.495 . S
C1826 C1825 1.392 . S
C1826 C1827 1.385 . S
C1826 C1828 1.478 . S
C1827 H1821 0.930 . S
C1827 C1823 1.400 . S
C1827 C1826 1.385 . S
C1828 C1826 1.478 . S
C1828 C1830 1.381 . S
C1828 C1834 1.383 . S
C1829 C1825 1.495 . S
C1829 H1835 0.959 . S
C1829 H1836 0.961 . S
C1829 H1837 0.960 . S
C1830 C1828 1.381 . S
C1830 C1831 1.394 . S
C1830 H1838 0.930 . S
C1831 C1830 1.394 . S
C1831 C1832 1.383 . S
C1831 H1839 0.929 . S
C1832 C1831 1.383 . S
C1832 C1833 1.377 . S
C1833 H1817 0.930 . S
C1833 C1832 1.377 . S
C1833 C1834 1.379 . S
C1834 H1818 0.931 . S
C1834 C1828 1.383 . S
C1834 C1833 1.379 . S
H1835 C1829 0.959 . S
H1836 C1829 0.961 . S
H1837 C1829 0.960 . S
H1838 C1830 0.930 . S
H1839 C1831 0.929 . S
H1840 C1848 0.929 . S
H1841 C1850 0.930 . S
H1842 C1852 0.930 . S
H1843 C1855 0.929 . S
H1844 C1858 0.930 . S
H1845 C1860 0.960 . S
H1846 C1860 0.960 . S
H1847 C1860 0.960 . S
C1848 H1840 0.929 . S
C1848 C1849 1.377 . S
C1848 C1850 1.384 . S
C1849 C1848 1.377 . S
C1849 C1855 1.390 . S
C1850 H1841 0.930 . S
C1850 C1848 1.384 . S
C1850 C1851 1.372 . S
C1851 C1850 1.372 . S
C1851 C1852 1.400 . S
C1851 C1856 1.490 . S
C1852 H1842 0.930 . S
C1852 C1851 1.400 . S
C1852 C1855 1.386 . S
H1853 C1869 0.930 . S
H1854 C1870 0.931 . S
C1855 H1843 0.929 . S
C1855 C1849 1.390 . S
C1855 C1852 1.386 . S
C1856 C1851 1.490 . S
C1856 C1858 1.395 . S
C1856 C1859 1.403 . S
H1857 C1863 0.930 . S
C1858 H1844 0.930 . S
C1858 C1856 1.395 . S
C1858 C1861 1.403 . S
C1859 C1856 1.403 . S
C1859 C1860 1.524 . S
C1859 C1863 1.400 . S
C1860 H1845 0.960 . S
C1860 H1846 0.960 . S
C1860 H1847 0.960 . S
C1860 C1859 1.524 . S
C1861 C1858 1.403 . S
C1861 C1862 1.392 . S
C1861 C1865 1.495 . S
C1862 C1861 1.392 . S
C1862 C1863 1.385 . S
C1862 C1864 1.478 . S
C1863 H1857 0.930 . S
C1863 C1859 1.400 . S
C1863 C1862 1.385 . S
C1864 C1862 1.478 . S
C1864 C1866 1.381 . S
C1864 C1870 1.383 . S
C1865 C1861 1.495 . S
C1865 H1871 0.959 . S
C1865 H1872 0.961 . S
C1865 H1873 0.960 . S
C1866 C1864 1.381 . S
C1866 C1867 1.394 . S
C1866 H1874 0.930 . S
C1867 C1866 1.394 . S
C1867 C1868 1.383 . S
C1867 H1875 0.929 . S
C1868 C1867 1.383 . S
C1868 C1869 1.377 . S
C1869 H1853 0.930 . S
C1869 C1868 1.377 . S
C1869 C1870 1.379 . S
C1870 H1854 0.931 . S
C1870 C1864 1.383 . S
C1870 C1869 1.379 . S
H1871 C1865 0.959 . S
H1872 C1865 0.961 . S
H1873 C1865 0.960 . S
H1874 C1866 0.930 . S
H1875 C1867 0.929 . S
H1876 C1884 0.929 . S
H1877 C1886 0.930 . S
H1878 C1888 0.930 . S
H1879 C1891 0.929 . S
H1880 C1894 0.930 . S
H1881 C1896 0.960 . S
H1882 C1896 0.960 . S
H1883 C1896 0.960 . S
C1884 H1876 0.929 . S
C1884 C1885 1.377 . S
C1884 C1886 1.384 . S
C1885 C1884 1.377 . S
C1885 C1891 1.390 . S
C1886 H1877 0.930 . S
C1886 C1884 1.384 . S
C1886 C1887 1.372 . S
C1887 C1886 1.372 . S
C1887 C1888 1.400 . S
C1887 C1892 1.490 . S
C1888 H1878 0.930 . S
C1888 C1887 1.400 . S
C1888 C1891 1.386 . S
H1889 C1905 0.930 . S
H1890 C1906 0.931 . S
C1891 H1879 0.929 . S
C1891 C1885 1.390 . S
C1891 C1888 1.386 . S
C1892 C1887 1.490 . S
C1892 C1894 1.395 . S
C1892 C1895 1.403 . S
H1893 C1899 0.930 . S
C1894 H1880 0.930 . S
C1894 C1892 1.395 . S
C1894 C1897 1.403 . S
C1895 C1892 1.403 . S
C1895 C1896 1.524 . S
C1895 C1899 1.400 . S
C1896 H1881 0.960 . S
C1896 H1882 0.960 . S
C1896 H1883 0.960 . S
C1896 C1895 1.524 . S
C1897 C1894 1.403 . S
C1897 C1898 1.392 . S
C1897 C1901 1.495 . S
C1898 C1897 1.392 . S
C1898 C1899 1.385 . S
C1898 C1900 1.478 . S
C1899 H1893 0.930 . S
C1899 C1895 1.400 . S
C1899 C1898 1.385 . S
C1900 C1898 1.478 . S
C1900 C1902 1.381 . S
C1900 C1906 1.383 . S
C1901 C1897 1.495 . S
C1901 H1907 0.959 . S
C1901 H1908 0.961 . S
C1901 H1909 0.960 . S
C1902 C1900 1.381 . S
C1902 C1903 1.394 . S
C1902 H1910 0.930 . S
C1903 C1902 1.394 . S
C1903 C1904 1.383 . S
C1903 H1911 0.929 . S
C1904 C1903 1.383 . S
C1904 C1905 1.377 . S
C1905 H1889 0.930 . S
C1905 C1904 1.377 . S
C1905 C1906 1.379 . S
C1906 H1890 0.931 . S
C1906 C1900 1.383 . S
C1906 C1905 1.379 . S
H1907 C1901 0.959 . S
H1908 C1901 0.961 . S
H1909 C1901 0.960 . S
H1910 C1902 0.930 . S
H1911 C1903 0.929 . S
H1912 C1920 0.929 . S
H1913 C1922 0.930 . S
H1914 C1924 0.930 . S
H1915 C1927 0.929 . S
H1916 C1930 0.930 . S
H1917 C1932 0.960 . S
H1918 C1932 0.960 . S
H1919 C1932 0.960 . S
C1920 H1912 0.929 . S
C1920 C1921 1.377 . S
C1920 C1922 1.384 . S
C1921 C1920 1.377 . S
C1921 C1927 1.390 . S
C1922 H1913 0.930 . S
C1922 C1920 1.384 . S
C1922 C1923 1.372 . S
C1923 C1922 1.372 . S
C1923 C1924 1.400 . S
C1923 C1928 1.490 . S
C1924 H1914 0.930 . S
C1924 C1923 1.400 . S
C1924 C1927 1.386 . S
H1925 C1941 0.930 . S
H1926 C1942 0.931 . S
C1927 H1915 0.929 . S
C1927 C1921 1.390 . S
C1927 C1924 1.386 . S
C1928 C1923 1.490 . S
C1928 C1930 1.395 . S
C1928 C1931 1.403 . S
H1929 C1935 0.930 . S
C1930 H1916 0.930 . S
C1930 C1928 1.395 . S
C1930 C1933 1.403 . S
C1931 C1928 1.403 . S
C1931 C1932 1.524 . S
C1931 C1935 1.400 . S
C1932 H1917 0.960 . S
C1932 H1918 0.960 . S
C1932 H1919 0.960 . S
C1932 C1931 1.524 . S
C1933 C1930 1.403 . S
C1933 C1934 1.392 . S
C1933 C1937 1.495 . S
C1934 C1933 1.392 . S
C1934 C1935 1.385 . S
C1934 C1936 1.478 . S
C1935 H1929 0.930 . S
C1935 C1931 1.400 . S
C1935 C1934 1.385 . S
C1936 C1934 1.478 . S
C1936 C1938 1.381 . S
C1936 C1942 1.383 . S
C1937 C1933 1.495 . S
C1937 H1943 0.959 . S
C1937 H1944 0.961 . S
C1937 H1945 0.960 . S
C1938 C1936 1.381 . S
C1938 C1939 1.394 . S
C1938 H1946 0.930 . S
C1939 C1938 1.394 . S
C1939 C1940 1.383 . S
C1939 H1947 0.929 . S
C1940 C1939 1.383 . S
C1940 C1941 1.377 . S
C1941 H1925 0.930 . S
C1941 C1940 1.377 . S
C1941 C1942 1.379 . S
C1942 H1926 0.931 . S
C1942 C1936 1.383 . S
C1942 C1941 1.379 . S
H1943 C1937 0.959 . S
H1944 C1937 0.961 . S
H1945 C1937 0.960 . S
H1946 C1938 0.930 . S
H1947 C1939 0.929 . S
H1948 C1956 0.929 . S
H1949 C1958 0.930 . S
H1950 C1960 0.930 . S
H1951 C1963 0.929 . S
H1952 C1966 0.930 . S
H1953 C1968 0.960 . S
H1954 C1968 0.960 . S
H1955 C1968 0.960 . S
C1956 H1948 0.929 . S
C1956 C1957 1.377 . S
C1956 C1958 1.384 . S
C1957 C1956 1.377 . S
C1957 C1963 1.390 . S
C1958 H1949 0.930 . S
C1958 C1956 1.384 . S
C1958 C1959 1.372 . S
C1959 C1958 1.372 . S
C1959 C1960 1.400 . S
C1959 C1964 1.490 . S
C1960 H1950 0.930 . S
C1960 C1959 1.400 . S
C1960 C1963 1.386 . S
H1961 C1977 0.930 . S
H1962 C1978 0.931 . S
C1963 H1951 0.929 . S
C1963 C1957 1.390 . S
C1963 C1960 1.386 . S
C1964 C1959 1.490 . S
C1964 C1966 1.395 . S
C1964 C1967 1.403 . S
H1965 C1971 0.930 . S
C1966 H1952 0.930 . S
C1966 C1964 1.395 . S
C1966 C1969 1.403 . S
C1967 C1964 1.403 . S
C1967 C1968 1.524 . S
C1967 C1971 1.400 . S
C1968 H1953 0.960 . S
C1968 H1954 0.960 . S
C1968 H1955 0.960 . S
C1968 C1967 1.524 . S
C1969 C1966 1.403 . S
C1969 C1970 1.392 . S
C1969 C1973 1.495 . S
C1970 C1969 1.392 . S
C1970 C1971 1.385 . S
C1970 C1972 1.478 . S
C1971 H1965 0.930 . S
C1971 C1967 1.400 . S
C1971 C1970 1.385 . S
C1972 C1970 1.478 . S
C1972 C1974 1.381 . S
C1972 C1978 1.383 . S
C1973 C1969 1.495 . S
C1973 H1979 0.959 . S
C1973 H1980 0.961 . S
C1973 H1981 0.960 . S
C1974 C1972 1.381 . S
C1974 C1975 1.394 . S
C1974 H1982 0.930 . S
C1975 C1974 1.394 . S
C1975 C1976 1.383 . S
C1975 H1983 0.929 . S
C1976 C1975 1.383 . S
C1976 C1977 1.377 . S
C1977 H1961 0.930 . S
C1977 C1976 1.377 . S
C1977 C1978 1.379 . S
C1978 H1962 0.931 . S
C1978 C1972 1.383 . S
C1978 C1977 1.379 . S
H1979 C1973 0.959 . S
H1980 C1973 0.961 . S
H1981 C1973 0.960 . S
H1982 C1974 0.930 . S
H1983 C1975 0.929 . S
C553 C5 0.798 . S
C572 C447 0.776 . S
C589 C481 0.812 . S
C608 C39 0.837 . S
C625 C515 0.810 . S
C644 C73 0.825 . S
C661 C413 0.802 . S
C680 C107 0.798 . S
C697 C379 0.812 . S
C716 C141 0.838 . S
C733 C277 0.809 . S
C752 C175 0.820 . S
C769 C209 0.806 . S
C788 C311 0.806 . S
C805 C345 0.798 . S
C824 C243 0.770 . S
C841 C339 1.599 . S
C860 C9 1.658 . S
C877 C43 1.661 . S
C896 C373 1.596 . S
C913 C77 1.666 . S
C932 C407 1.592 . S
C949 C111 1.664 . S
C968 C305 1.612 . S
C985 C145 1.661 . S
C1004 C543 1.591 . S
C1021 C441 1.596 . S
C1040 C179 1.646 . S
C1057 C475 1.588 . S
C1076 C213 1.671 . S
C1093 C509 1.599 . S
C1112 C247 1.647 . S
C1129 C281 1.664 . S
C1148 C67 1.564 . S
C1165 C315 1.662 . S
C1184 C101 1.619 . S
C1201 C349 1.662 . S
C1220 C135 1.619 . S
C1237 C33 1.592 . S
C1256 C383 1.673 . S
C1273 C417 1.664 . S
C1292 C271 1.563 . S
C1309 C169 1.596 . S
C1328 C451 1.646 . S
C1345 C485 1.666 . S
C1364 C203 1.585 . S
C1381 C519 1.666 . S
C1400 C237 1.563 . S
C1417 C20 1.692 . S
C1436 C360 1.680 . S
C1453 C394 1.695 . S
C1472 C54 1.694 . S
C1489 C88 1.693 . S
C1508 C292 1.684 . S
C1525 C326 1.690 . S
C1544 C122 1.672 . S
C1561 C156 1.698 . S
C1580 C496 1.707 . S
C1597 C530 1.695 . S
C1616 C190 1.696 . S
C1633 C428 1.690 . S
C1652 C224 1.673 . S
C1669 C462 1.698 . S
C1688 C258 1.710 . S
C1705 C206 0.502 . S
C1724 C2 0.517 . S
C1741 C36 0.515 . S
C1760 C240 0.548 . S
C1777 C138 0.514 . S
C1796 C70 0.524 . S
C1813 C104 0.515 . S
C1832 C172 0.540 . S
C1849 C274 0.503 . S
C1868 C478 0.470 . S
C1885 C308 0.497 . S
C1904 C512 0.476 . S
C1921 C342 0.508 . S
C1940 C410 0.486 . S
C1957 C444 0.499 . S
C1976 C376 0.466 . S
