# Generated by pormake.
# Topology can, (4)-cn, num edge types: 1
# Building blocks:
#     Node 0, Type 0, BuildingBlock: QUQFOY_clean_sbu_1, # of connection points: 4
#     Node 1, Type 0, BuildingBlock: QUQFOY_clean_sbu_1, # of connection points: 4
#     Node 2, Type 0, BuildingBlock: QUQFOY_clean_sbu_1, # of connection points: 4
#     Node 3, Type 0, BuildingBlock: QUQFOY_clean_sbu_1, # of connection points: 4
#     Node 4, Type 0, BuildingBlock: QUQFOY_clean_sbu_1, # of connection points: 4
#     Node 5, Type 0, BuildingBlock: QUQFOY_clean_sbu_1, # of connection points: 4
#     Node 6, Type 0, BuildingBlock: QUQFOY_clean_sbu_1, # of connection points: 4
#     Node 7, Type 0, BuildingBlock: QUQFOY_clean_sbu_1, # of connection points: 4
#     Node 8, Type 0, BuildingBlock: QUQFOY_clean_sbu_1, # of connection points: 4
#     Node 9, Type 0, BuildingBlock: QUQFOY_clean_sbu_1, # of connection points: 4
#     Node 10, Type 0, BuildingBlock: QUQFOY_clean_sbu_1, # of connection points: 4
#     Node 11, Type 0, BuildingBlock: QUQFOY_clean_sbu_1, # of connection points: 4
#     Edge 12, Type (0, 0), BuildingBlock: OJICUG_clean_linker_0, # of connection points: 2
#     Edge 13, Type (0, 0), BuildingBlock: OJICUG_clean_linker_0, # of connection points: 2
#     Edge 14, Type (0, 0), BuildingBlock: OJICUG_clean_linker_0, # of connection points: 2
#     Edge 15, Type (0, 0), BuildingBlock: OJICUG_clean_linker_0, # of connection points: 2
#     Edge 16, Type (0, 0), BuildingBlock: OJICUG_clean_linker_0, # of connection points: 2
#     Edge 17, Type (0, 0), BuildingBlock: OJICUG_clean_linker_0, # of connection points: 2
#     Edge 18, Type (0, 0), BuildingBlock: OJICUG_clean_linker_0, # of connection points: 2
#     Edge 19, Type (0, 0), BuildingBlock: OJICUG_clean_linker_0, # of connection points: 2
#     Edge 20, Type (0, 0), BuildingBlock: OJICUG_clean_linker_0, # of connection points: 2
#     Edge 21, Type (0, 0), BuildingBlock: OJICUG_clean_linker_0, # of connection points: 2
#     Edge 22, Type (0, 0), BuildingBlock: OJICUG_clean_linker_0, # of connection points: 2
#     Edge 23, Type (0, 0), BuildingBlock: OJICUG_clean_linker_0, # of connection points: 2
#     Edge 24, Type (0, 0), BuildingBlock: OJICUG_clean_linker_0, # of connection points: 2
#     Edge 25, Type (0, 0), BuildingBlock: OJICUG_clean_linker_0, # of connection points: 2
#     Edge 26, Type (0, 0), BuildingBlock: OJICUG_clean_linker_0, # of connection points: 2
#     Edge 27, Type (0, 0), BuildingBlock: OJICUG_clean_linker_0, # of connection points: 2
#     Edge 28, Type (0, 0), BuildingBlock: OJICUG_clean_linker_0, # of connection points: 2
#     Edge 29, Type (0, 0), BuildingBlock: OJICUG_clean_linker_0, # of connection points: 2
#     Edge 30, Type (0, 0), BuildingBlock: OJICUG_clean_linker_0, # of connection points: 2
#     Edge 31, Type (0, 0), BuildingBlock: OJICUG_clean_linker_0, # of connection points: 2
#     Edge 32, Type (0, 0), BuildingBlock: OJICUG_clean_linker_0, # of connection points: 2
#     Edge 33, Type (0, 0), BuildingBlock: OJICUG_clean_linker_0, # of connection points: 2
#     Edge 34, Type (0, 0), BuildingBlock: OJICUG_clean_linker_0, # of connection points: 2
#     Edge 35, Type (0, 0), BuildingBlock: OJICUG_clean_linker_0, # of connection points: 2
# Relax obj value: 0.088
# Max RMSD: 0.097
# Mean RMSD: 0.097
data_MOF--net-can--node1-QUQFOY_clean_sbu_1--edge1-OJICUG_clean_linker_0
_symmetry_space_group_name_H-M    P1
_symmetry_Int_Tables_number       1
_symmetry_cell_setting            triclinic
loop_
_symmetry_equiv_pos_as_xyz
'x, y, z'
_cell_length_a     43.540119
_cell_length_b     43.330269
_cell_length_c     20.657835
_cell_angle_alpha  90.002492
_cell_angle_beta   89.999052
_cell_angle_gamma 120.18763
loop_
_atom_site_label
_atom_site_type_symbol
_atom_site_fract_x
_atom_site_fract_y
_atom_site_fract_z
_atom_type_partial_charge
O0 O 0.06035 0.39121 0.15644 0.0
Cd1 Cd 0.08658 0.41855 0.23874 0.0
Cd2 Cd 0.02113 0.38271 0.28716 0.0
O3 O 0.00931 0.3536 0.20253 0.0
O4 O 0.13791 0.43985 0.21837 0.0
O5 O 0.11014 0.39762 0.29229 0.0
C6 C 0.13887 0.41865 0.26094 0.0
C7 C 0.00982 0.35804 0.39057 0.0
C8 C 0.02925 0.3642 0.15281 0.0
C9 C 0.05317 0.46144 0.27661 0.0
O10 O 0.02436 0.43179 0.2816 0.0
O11 O 0.08219 0.46206 0.26576 0.0
O12 O 0.98438 0.35482 0.35385 0.0
O13 O 0.04161 0.37347 0.36679 0.0
O14 O 0.669 0.06156 0.658 0.0
Cd15 Cd 0.66791 0.09105 0.73518 0.0
Cd16 Cd 0.63575 0.0256 0.79061 0.0
O17 O 0.64978 0.00979 0.70661 0.0
O18 O 0.70217 0.14081 0.70789 0.0
O19 O 0.70947 0.11583 0.79569 0.0
C20 C 0.72113 0.14302 0.75744 0.0
C21 C 0.64732 0.01245 0.8943 0.0
C22 C 0.66149 0.0292 0.65627 0.0
C23 C 0.592 0.06103 0.77232 0.0
O24 O 0.59217 0.0324 0.78497 0.0
O25 O 0.62044 0.08899 0.75525 0.0
O26 O 0.62357 0.98798 0.85764 0.0
O27 O 0.66601 0.04423 0.87058 0.0
O28 O 0.61114 0.67321 0.16011 0.0
Cd29 Cd 0.57894 0.67063 0.23528 0.0
Cd30 Cd 0.61098 0.63784 0.29184 0.0
O31 O 0.64136 0.65164 0.20884 0.0
O32 O 0.56326 0.70438 0.20653 0.0
O33 O 0.59355 0.7116 0.29689 0.0
C34 C 0.57847 0.72304 0.2574 0.0
C35 C 0.63549 0.65042 0.39553 0.0
C36 C 0.63512 0.66472 0.15886 0.0
C37 C 0.5322 0.59369 0.26962 0.0
O38 O 0.56057 0.59395 0.28524 0.0
O39 O 0.53329 0.62227 0.25145 0.0
O40 O 0.63594 0.62616 0.36001 0.0
O41 O 0.62255 0.66889 0.37076 0.0
O42 O 0.9277 0.60532 0.65597 0.0
Cd43 Cd 0.90151 0.578 0.73832 0.0
Cd44 Cd 0.96696 0.61389 0.78668 0.0
O45 O 0.97873 0.64296 0.70202 0.0
O46 O 0.85016 0.55669 0.71806 0.0
O47 O 0.87798 0.59895 0.7919 0.0
C48 C 0.84923 0.57791 0.76063 0.0
C49 C 0.97827 0.63857 0.89008 0.0
C50 C 0.95879 0.63234 0.65232 0.0
C51 C 0.93495 0.53516 0.77628 0.0
O52 O 0.96376 0.56482 0.7812 0.0
O53 O 0.90592 0.53453 0.76543 0.0
O54 O 0.00372 0.64181 0.85335 0.0
O55 O 0.94648 0.62313 0.86631 0.0
O56 O 0.31926 0.93519 0.15866 0.0
Cd57 Cd 0.32033 0.90563 0.23574 0.0
Cd58 Cd 0.35256 0.97107 0.29129 0.0
O59 O 0.33857 0.98696 0.20735 0.0
O60 O 0.28608 0.8559 0.20825 0.0
O61 O 0.27875 0.88078 0.29619 0.0
C62 C 0.26709 0.85363 0.25781 0.0
C63 C 0.34102 0.98424 0.395 0.0
C64 C 0.32683 0.96756 0.15699 0.0
C65 C 0.39626 0.93558 0.27276 0.0
O66 O 0.3961 0.96421 0.28555 0.0
O67 O 0.3678 0.90765 0.25567 0.0
O68 O 0.3648 0.00869 0.35835 0.0
O69 O 0.3223 0.95246 0.37127 0.0
O70 O 0.37709 0.32324 0.65948 0.0
Cd71 Cd 0.40926 0.32585 0.73474 0.0
Cd72 Cd 0.37714 0.35856 0.79124 0.0
O73 O 0.3468 0.34474 0.70819 0.0
O74 O 0.42497 0.29209 0.70618 0.0
O75 O 0.39461 0.28492 0.79644 0.0
C76 C 0.40973 0.27346 0.75707 0.0
C77 C 0.3526 0.34596 0.8949 0.0
C78 C 0.35308 0.33169 0.65821 0.0
C79 C 0.45594 0.40278 0.7692 0.0
O80 O 0.42754 0.40248 0.78476 0.0
O81 O 0.45488 0.37422 0.751 0.0
O82 O 0.35212 0.37021 0.85937 0.0
O83 O 0.36557 0.32752 0.87016 0.0
O84 O 0.60464 0.93373 0.40321 0.0
Cd85 Cd 0.57409 0.90446 0.32582 0.0
Cd86 Cd 0.60778 0.96986 0.27067 0.0
O87 O 0.63766 0.98544 0.35466 0.0
O88 O 0.55845 0.85459 0.35253 0.0
O89 O 0.59095 0.87989 0.26505 0.0
C90 C 0.57533 0.85257 0.303 0.0
C91 C 0.63249 0.98289 0.16695 0.0
C92 C 0.62972 0.96599 0.405 0.0
C93 C 0.52861 0.93492 0.28894 0.0
O94 O 0.55756 0.96345 0.27647 0.0
O95 O 0.52882 0.9068 0.30574 0.0
O96 O 0.63345 0.00745 0.20366 0.0
O97 O 0.61916 0.95107 0.19063 0.0
O98 O 0.66761 0.60553 0.90277 0.0
Cd99 Cd 0.66646 0.57823 0.82038 0.0
Cd100 Cd 0.63692 0.61413 0.77216 0.0
O101 O 0.65427 0.64321 0.85681 0.0
O102 O 0.6964 0.55684 0.84067 0.0
O103 O 0.71098 0.59914 0.76686 0.0
C104 C 0.71861 0.57805 0.79813 0.0
C105 C 0.65032 0.63875 0.66874 0.0
C106 C 0.66358 0.63256 0.90649 0.0
C107 C 0.59012 0.53542 0.78245 0.0
O108 O 0.59099 0.56508 0.77767 0.0
O109 O 0.61853 0.53479 0.7932 0.0
O110 O 0.62814 0.64205 0.70545 0.0
O111 O 0.66663 0.62329 0.69255 0.0
O112 O 0.05205 0.67329 0.39886 0.0
Cd113 Cd 0.08178 0.67095 0.32364 0.0
Cd114 Cd 0.01696 0.63814 0.26696 0.0
O115 O 0.00031 0.65185 0.34997 0.0
O116 O 0.13117 0.70476 0.35263 0.0
O117 O 0.10813 0.71211 0.26237 0.0
C118 C 0.13462 0.72354 0.30195 0.0
C119 C 0.00496 0.65061 0.16325 0.0
C120 C 0.01958 0.66481 0.40005 0.0
C121 C 0.05168 0.59408 0.28907 0.0
O122 O 0.02353 0.5943 0.27357 0.0
O123 O 0.07918 0.62268 0.30719 0.0
O124 O 0.98027 0.62635 0.19883 0.0
O125 O 0.03637 0.66915 0.18798 0.0
O126 O 0.38377 0.06301 0.90388 0.0
Cd127 Cd 0.41425 0.09221 0.82637 0.0
Cd128 Cd 0.38049 0.02681 0.77136 0.0
O129 O 0.35065 0.01131 0.85539 0.0
O130 O 0.4299 0.14211 0.85284 0.0
O131 O 0.3973 0.11665 0.76551 0.0
C132 C 0.41296 0.14404 0.80332 0.0
C133 C 0.35577 0.0138 0.66765 0.0
C134 C 0.35866 0.03077 0.90572 0.0
C135 C 0.45967 0.06169 0.78937 0.0
O136 O 0.43069 0.03316 0.77705 0.0
O137 O 0.45949 0.08984 0.80614 0.0
O138 O 0.35476 0.98922 0.70437 0.0
O139 O 0.36914 0.04562 0.69134 0.0
O140 O 0.32048 0.39083 0.40223 0.0
Cd141 Cd 0.32163 0.41819 0.31995 0.0
Cd142 Cd 0.35119 0.38233 0.27156 0.0
O143 O 0.33388 0.35321 0.35617 0.0
O144 O 0.29171 0.43958 0.34046 0.0
O145 O 0.27709 0.39736 0.26647 0.0
C146 C 0.26949 0.41843 0.29789 0.0
C147 C 0.33782 0.35772 0.16811 0.0
C148 C 0.32455 0.36382 0.40588 0.0
C149 C 0.39797 0.46104 0.2821 0.0
O150 O 0.3971 0.43139 0.27715 0.0
O151 O 0.36957 0.46167 0.2929 0.0
O152 O 0.36002 0.35445 0.20482 0.0
O153 O 0.32148 0.37315 0.19193 0.0
O154 O 0.936 0.32333 0.89932 0.0
Cd155 Cd 0.90632 0.32568 0.82402 0.0
Cd156 Cd 0.97115 0.35845 0.76744 0.0
O157 O 0.98775 0.34471 0.85047 0.0
O158 O 0.8569 0.29185 0.85283 0.0
O159 O 0.88006 0.28456 0.76266 0.0
C160 C 0.85353 0.27309 0.80213 0.0
C161 C 0.98314 0.34596 0.66374 0.0
C162 C 0.96846 0.33177 0.90054 0.0
C163 C 0.93645 0.40254 0.78938 0.0
O164 O 0.9646 0.40231 0.77397 0.0
O165 O 0.90894 0.37396 0.80749 0.0
O166 O 0.00784 0.37021 0.69933 0.0
O167 O 0.95172 0.32744 0.68846 0.0
C168 C 0.97808 0.32522 0.08049 0.0
C169 C 0.01474 0.34845 0.0886 0.0
H170 H 0.93461 0.30117 1.01404 0.0
C171 C 0.03665 0.36034 0.03345 0.0
H172 H 0.96048 0.31524 0.12192 0.0
C173 C 0.02182 0.35212 0.97146 0.0
C174 C 0.98478 0.33205 0.96352 0.0
H175 H 0.06509 0.37786 0.03803 0.0
H176 H 0.03921 0.36375 0.9301 0.0
C177 C 0.96324 0.31717 1.01854 0.0
C178 C 0.6661 0.01924 0.47552 0.0
C179 C 0.64571 0.982 0.46841 0.0
H180 H 0.68758 0.06347 0.5409 0.0
C181 C 0.63635 0.96045 0.52417 0.0
H182 H 0.67405 0.03662 0.43365 0.0
C183 C 0.64414 0.97584 0.5858 0.0
C184 C 0.66135 0.0131 0.5929 0.0
H185 H 0.62103 0.93162 0.52041 0.0
H186 H 0.63448 0.95847 0.62766 0.0
C187 C 0.67379 0.03463 0.53715 0.0
C188 C 0.64464 0.6795 0.04093 0.0
C189 C 0.65123 0.66453 0.09589 0.0
H190 H 0.64388 0.68155 0.93757 0.0
C191 C 0.66816 0.64444 0.08788 0.0
H192 H 0.63205 0.69551 0.04549 0.0
C193 C 0.67479 0.63629 1.02586 0.0
C194 C 0.66482 0.64825 0.97075 0.0
H195 H 0.67387 0.63275 0.12919 0.0
H196 H 0.68568 0.61875 1.02121 0.0
C197 C 0.65145 0.67151 0.97895 0.0
C198 C 0.02477 0.67945 0.51803 0.0
C199 C 0.00323 0.66452 0.46302 0.0
H200 H 0.02753 0.6814 0.6214 0.0
C201 C 0.9662 0.64437 0.47095 0.0
H202 H 0.05339 0.6955 0.51353 0.0
C203 C 0.95137 0.63614 0.53294 0.0
C204 C 0.97328 0.64808 0.58809 0.0
H205 H 0.94882 0.63271 0.42959 0.0
H206 H 0.92293 0.61857 0.53752 0.0
C207 C 0.00993 0.67138 0.57998 0.0
C208 C 0.32217 0.97757 0.97627 0.0
C209 C 0.34268 0.0148 0.96916 0.0
H210 H 0.30057 0.93333 0.04164 0.0
C211 C 0.35214 0.03636 1.02492 0.0
H212 H 0.31414 0.96018 0.9344 0.0
C213 C 0.34433 0.02096 0.08655 0.0
C214 C 0.327 0.9837 0.09364 0.0
H215 H 0.36755 0.06518 1.02117 0.0
H216 H 0.35406 0.03834 0.12841 0.0
C217 C 0.31446 0.96217 0.0379 0.0
C218 C 0.31328 0.35999 0.52523 0.0
C219 C 0.32333 0.34811 0.47011 0.0
H220 H 0.31417 0.36348 0.62856 0.0
C221 C 0.33681 0.32494 0.47827 0.0
H222 H 0.30232 0.37746 0.52061 0.0
C223 C 0.34365 0.31696 0.54025 0.0
C224 C 0.33697 0.33186 0.59523 0.0
H225 H 0.34444 0.31496 0.43687 0.0
H226 H 0.35632 0.30102 0.54478 0.0
C227 C 0.31994 0.35185 0.58724 0.0
C228 C 0.01984 0.66757 0.98337 0.0
C229 C 0.98488 0.64824 0.95952 0.0
H230 H 0.05364 0.68413 0.06682 0.0
C231 C 0.95653 0.6342 1.00376 0.0
H232 H 0.04227 0.67889 0.9505 0.0
C233 C 0.96307 0.63687 0.0704 0.0
C234 C -0.00193 0.65405 0.09417 0.0
H235 H 0.92929 0.6192 0.98701 0.0
H236 H 0.94068 0.62403 0.1032 0.0
C237 C 0.02637 0.67065 0.05006 0.0
C238 C 0.35527 0.02716 0.48685 0.0
C239 C 0.33841 0.99176 0.46416 0.0
H240 H 0.37326 0.06193 0.5692 0.0
C241 C 0.32299 0.96374 0.50929 0.0
H242 H 0.36726 0.04935 0.45326 0.0
C243 C 0.32683 0.97096 0.57578 0.0
C244 C 0.34568 0.00635 0.59847 0.0
H245 H 0.30983 0.93619 0.49341 0.0
H246 H 0.31637 0.94877 0.60937 0.0
C247 C 0.35862 0.03438 0.55333 0.0
C248 C 0.32439 0.35959 0.9878 0.0
C249 C 0.34224 0.34245 0.96398 0.0
H250 H 0.30824 0.37716 0.07125 0.0
C251 C 0.35391 0.32582 1.00802 0.0
H252 H 0.31486 0.37245 0.95504 0.0
C253 C 0.35043 0.32883 0.07473 0.0
C254 C 0.33479 0.34812 0.09864 0.0
H255 H 0.36771 0.31237 0.99122 0.0
H256 H 0.36153 0.31749 0.10755 0.0
C257 C 0.32049 0.36219 0.05445 0.0
C258 C 0.02503 0.3597 0.57088 0.0
C259 C 0.99002 0.34253 0.59465 0.0
H260 H 0.0588 0.37737 0.48749 0.0
C261 C 0.96172 0.32595 0.55055 0.0
H262 H 0.04742 0.37252 0.60368 0.0
C263 C 0.96825 0.32905 0.48385 0.0
C264 C 0.00321 0.34837 0.46 0.0
H265 H 0.93445 0.31247 0.56731 0.0
H266 H 0.94582 0.31775 0.45099 0.0
C267 C 0.03157 0.36238 0.50423 0.0
C268 C 0.66527 0.03296 1.00861 0.0
C269 C 0.64992 0.00494 0.96347 0.0
H270 H 0.67179 0.04794 0.10868 0.0
C271 C 0.63312 0.96954 0.98615 0.0
H272 H 0.67838 0.06052 0.99273 0.0
C273 C 0.62974 0.96232 0.05263 0.0
C274 C 0.6426 0.99036 0.09777 0.0
H275 H 0.62119 0.94736 0.95256 0.0
H276 H 0.61515 0.93477 0.06851 0.0
C277 C 0.6614 0.02574 0.07509 0.0
C278 C 0.66369 0.6368 0.48843 0.0
C279 C 0.64586 0.65395 0.4646 0.0
H280 H 0.67985 0.61925 0.57189 0.0
C281 C 0.63422 0.67062 0.50863 0.0
H282 H 0.67321 0.62392 0.45568 0.0
C283 C 0.63772 0.66763 0.57534 0.0
C284 C 0.65334 0.64833 0.59926 0.0
H285 H 0.62043 0.68408 0.49182 0.0
H286 H 0.62664 0.679 0.60815 0.0
C287 C 0.66761 0.63423 0.55508 0.0
C288 C 0.02027 0.52742 0.28069 0.0
C289 C 0.05216 0.56019 0.28662 0.0
H290 H -0.00447 0.47059 0.2737 0.0
C291 C 0.08439 0.56017 0.2904 0.0
H292 H -0.00504 0.52647 0.278 0.0
C293 C 0.08473 0.5281 0.28742 0.0
C294 C 0.05281 0.49534 0.28144 0.0
H295 H 0.10942 0.58496 0.29495 0.0
H296 H 0.11002 0.52901 0.28989 0.0
C297 C 0.02057 0.49535 0.27854 0.0
C298 C 0.49373 0.02943 0.78281 0.0
C299 C 0.49366 0.06182 0.78489 0.0
H300 H 0.52473 0.00382 0.7779 0.0
C301 C 0.52629 0.09408 0.78291 0.0
H302 H 0.46908 0.0041 0.78451 0.0
C303 C 0.55828 0.09392 0.77839 0.0
C304 C 0.55829 0.06149 0.7768 0.0
H305 H 0.52711 0.11948 0.78428 0.0
H306 H 0.58299 0.1192 0.7767 0.0
C307 C 0.52567 0.02927 0.77928 0.0
C308 C 0.49691 0.52702 0.27798 0.0
C309 C 0.4978 0.55979 0.27203 0.0
H310 H 0.46478 0.4702 0.285 0.0
C311 C 0.46555 0.55976 0.26824 0.0
H312 H 0.52127 0.52609 0.28069 0.0
C313 C 0.43313 0.5277 0.27123 0.0
C314 C 0.43226 0.49494 0.27724 0.0
H315 H 0.46533 0.58455 0.26367 0.0
H316 H 0.40874 0.5286 0.26875 0.0
C317 C 0.46451 0.49495 0.28015 0.0
C318 C 0.96756 0.50126 0.77846 0.0
C319 C 0.93531 0.50127 0.78127 0.0
H320 H 0.99317 0.47014 0.77817 0.0
C321 C 0.9034 0.46851 0.78733 0.0
H322 H 0.9926 0.52601 0.77358 0.0
C323 C 0.90374 0.43645 0.79048 0.0
C324 C 0.93597 0.43643 0.7868 0.0
H325 H 0.87811 0.4676 0.78972 0.0
H326 H 0.87871 0.41166 0.79508 0.0
C327 C 0.96786 0.4692 0.78079 0.0
C328 C 0.46259 0.96734 0.27941 0.0
C329 C 0.42996 0.93512 0.27704 0.0
H330 H 0.51919 0.99251 0.28432 0.0
C331 C 0.42998 0.90269 0.27851 0.0
H332 H 0.46352 0.99279 0.27811 0.0
C333 C 0.46198 0.90253 0.28279 0.0
C334 C 0.49461 0.93479 0.28466 0.0
H335 H 0.40527 0.87741 0.2769 0.0
H336 H 0.46116 0.87713 0.28409 0.0
C337 C 0.49453 0.96718 0.2827 0.0
C338 C 0.52359 0.50151 0.78032 0.0
C339 C 0.55585 0.50153 0.77742 0.0
H340 H 0.46683 0.47036 0.78065 0.0
C341 C 0.55499 0.46879 0.7712 0.0
H342 H 0.5233 0.52625 0.78532 0.0
C343 C 0.52258 0.43673 0.768 0.0
C344 C 0.49032 0.43668 0.77179 0.0
H345 H 0.57939 0.4679 0.76872 0.0
H346 H 0.52282 0.41195 0.76329 0.0
C347 C 0.4912 0.46943 0.77794 0.0
C348 C 0.20436 0.45061 0.27526 0.0
C349 C 0.17199 0.4183 0.27205 0.0
H350 H 0.26079 0.47581 0.28747 0.0
C351 C 0.1718 0.38588 0.27621 0.0
H352 H 0.20503 0.4759 0.27191 0.0
C353 C 0.20377 0.38582 0.2824 0.0
C354 C 0.23607 0.4182 0.28684 0.0
H355 H 0.14706 0.36067 0.27317 0.0
H356 H 0.20322 0.36058 0.28522 0.0
C357 C 0.23612 0.45056 0.28392 0.0
C358 C 0.79967 0.21859 0.84296 0.0
C359 C 0.82021 0.23934 0.79045 0.0
H360 H 0.75243 0.17115 0.87354 0.0
C361 C 0.80833 0.22783 0.72715 0.0
H362 H 0.80842 0.22686 0.89227 0.0
C363 C 0.77589 0.19657 0.71657 0.0
C364 C 0.75542 0.17575 0.76907 0.0
H365 H 0.82368 0.24342 0.68595 0.0
H366 H 0.76696 0.18848 0.66728 0.0
C367 C 0.76779 0.18673 0.83233 0.0
C368 C 0.57889 0.77748 0.21696 0.0
C369 C 0.57867 0.75665 0.26932 0.0
H370 H 0.57892 0.82486 0.18671 0.0
C371 C 0.57802 0.76791 0.33269 0.0
H372 H 0.57958 0.76939 0.1676 0.0
C373 C 0.57663 0.79902 0.34349 0.0
C374 C 0.57701 0.81994 0.29113 0.0
H375 H 0.57775 0.75224 0.37379 0.0
H376 H 0.5756 0.80693 0.39283 0.0
C377 C 0.57865 0.80919 0.22781 0.0
C378 C 0.81629 0.61065 0.7762 0.0
C379 C 0.81611 0.57823 0.77185 0.0
H380 H 0.78486 0.63592 0.78549 0.0
C381 C 0.78374 0.54591 0.77502 0.0
H382 H 0.84103 0.63586 0.77319 0.0
C383 C 0.75198 0.54595 0.78382 0.0
C384 C 0.75202 0.5783 0.78693 0.0
H385 H 0.78308 0.52063 0.77153 0.0
H386 H 0.72731 0.52069 0.78735 0.0
C387 C 0.78431 0.61068 0.78253 0.0
C388 C 0.21235 0.80014 0.21672 0.0
C389 C 0.23279 0.82089 0.26931 0.0
H390 H 0.16458 0.75333 0.18589 0.0
C391 C 0.22037 0.80984 0.33252 0.0
H392 H 0.22132 0.80827 0.16746 0.0
C393 C 0.18847 0.77798 0.34301 0.0
C394 C 0.16796 0.7573 0.29041 0.0
H395 H 0.2357 0.82538 0.37379 0.0
H396 H 0.17967 0.76966 0.39228 0.0
C397 C 0.1799 0.76887 0.22716 0.0
C398 C 0.40931 0.21899 0.71689 0.0
C399 C 0.40955 0.23988 0.76915 0.0
H400 H 0.4093 0.17157 0.68689 0.0
C401 C 0.41023 0.22871 0.83258 0.0
H402 H 0.4086 0.227 0.66749 0.0
C403 C 0.41164 0.19762 0.84353 0.0
C404 C 0.41125 0.17664 0.79129 0.0
H405 H 0.41051 0.24444 0.8736 0.0
H406 H 0.4127 0.18979 0.89292 0.0
C407 C 0.40958 0.18729 0.7279 0.0
loop_
_geom_bond_atom_site_label_1
_geom_bond_atom_site_label_2
_geom_bond_distance
_geom_bond_site_symmetry_2
_ccdc_geom_bond_type
O0 Cd1 2.223 . S
O0 C8 1.315 . S
Cd1 O0 2.223 . S
Cd1 O4 2.297 . S
Cd1 O5 2.439 . S
Cd1 O11 2.240 . S
Cd2 O3 2.240 1_655 S
Cd2 O10 2.223 . S
Cd2 O12 2.297 . S
Cd2 O13 2.439 1_655 S
O3 Cd2 2.240 1_455 S
O3 C8 1.279 . S
O4 Cd1 2.297 . S
O4 C6 1.247 . S
O5 Cd1 2.439 . S
O5 C6 1.208 . S
C6 O4 1.247 . S
C6 O5 1.208 . S
C7 O12 1.247 1_455 S
C7 O13 1.208 . S
C8 O0 1.315 . S
C8 O3 1.279 . S
C9 O10 1.315 1_455 S
C9 O11 1.279 . S
O10 Cd2 2.223 . S
O10 C9 1.315 1_655 S
O11 Cd1 2.240 . S
O11 C9 1.279 . S
O12 Cd2 2.297 . S
O12 C7 1.247 1_655 S
O13 Cd2 2.439 1_455 S
O13 C7 1.208 . S
O14 Cd15 2.223 . S
O14 C22 1.315 . S
Cd15 O14 2.223 . S
Cd15 O18 2.297 . S
Cd15 O19 2.439 . S
Cd15 O25 2.240 . S
Cd16 O17 2.240 1_565 S
Cd16 O24 2.223 . S
Cd16 O26 2.297 . S
Cd16 O27 2.439 1_565 S
O17 Cd16 2.240 1_545 S
O17 C22 1.279 . S
O18 Cd15 2.297 . S
O18 C20 1.247 . S
O19 Cd15 2.439 . S
O19 C20 1.208 . S
C20 O18 1.247 . S
C20 O19 1.208 . S
C21 O26 1.247 1_545 S
C21 O27 1.208 . S
C22 O14 1.315 . S
C22 O17 1.279 . S
C23 O24 1.315 1_545 S
C23 O25 1.279 . S
O24 Cd16 2.223 . S
O24 C23 1.315 1_565 S
O25 Cd15 2.240 . S
O25 C23 1.279 . S
O26 Cd16 2.297 . S
O26 C21 1.247 1_565 S
O27 Cd16 2.439 1_545 S
O27 C21 1.208 . S
O28 Cd29 2.223 . S
O28 C36 1.315 . S
Cd29 O28 2.223 . S
Cd29 O32 2.297 . S
Cd29 O33 2.439 . S
Cd29 O39 2.240 . S
Cd30 O31 2.240 . S
Cd30 O38 2.223 . S
Cd30 O40 2.297 . S
Cd30 O41 2.439 . S
O31 Cd30 2.240 . S
O31 C36 1.279 . S
O32 Cd29 2.297 . S
O32 C34 1.247 . S
O33 Cd29 2.439 . S
O33 C34 1.208 . S
C34 O32 1.247 . S
C34 O33 1.208 . S
C35 O40 1.247 . S
C35 O41 1.208 . S
C36 O28 1.315 . S
C36 O31 1.279 . S
C37 O38 1.315 . S
C37 O39 1.279 . S
O38 Cd30 2.223 . S
O38 C37 1.315 . S
O39 Cd29 2.240 . S
O39 C37 1.279 . S
O40 Cd30 2.297 . S
O40 C35 1.247 . S
O41 Cd30 2.439 . S
O41 C35 1.208 . S
O42 Cd43 2.223 . S
O42 C50 1.315 . S
Cd43 O42 2.223 . S
Cd43 O46 2.297 . S
Cd43 O47 2.439 . S
Cd43 O53 2.240 . S
Cd44 O45 2.240 1_455 S
Cd44 O52 2.223 . S
Cd44 O54 2.297 . S
Cd44 O55 2.439 1_455 S
O45 Cd44 2.240 1_655 S
O45 C50 1.279 . S
O46 Cd43 2.297 . S
O46 C48 1.247 . S
O47 Cd43 2.439 . S
O47 C48 1.208 . S
C48 O46 1.247 . S
C48 O47 1.208 . S
C49 O54 1.247 1_655 S
C49 O55 1.208 . S
C50 O42 1.315 . S
C50 O45 1.279 . S
C51 O52 1.315 1_655 S
C51 O53 1.279 . S
O52 Cd44 2.223 . S
O52 C51 1.315 1_455 S
O53 Cd43 2.240 . S
O53 C51 1.279 . S
O54 Cd44 2.297 . S
O54 C49 1.247 1_455 S
O55 Cd44 2.439 1_655 S
O55 C49 1.208 . S
O56 Cd57 2.223 . S
O56 C64 1.315 . S
Cd57 O56 2.223 . S
Cd57 O60 2.297 . S
Cd57 O61 2.439 . S
Cd57 O67 2.240 . S
Cd58 O59 2.240 1_545 S
Cd58 O66 2.223 . S
Cd58 O68 2.297 . S
Cd58 O69 2.439 1_545 S
O59 Cd58 2.240 1_565 S
O59 C64 1.279 . S
O60 Cd57 2.297 . S
O60 C62 1.247 . S
O61 Cd57 2.439 . S
O61 C62 1.208 . S
C62 O60 1.247 . S
C62 O61 1.208 . S
C63 O68 1.247 1_565 S
C63 O69 1.208 . S
C64 O56 1.315 . S
C64 O59 1.279 . S
C65 O66 1.315 1_565 S
C65 O67 1.279 . S
O66 Cd58 2.223 . S
O66 C65 1.315 1_545 S
O67 Cd57 2.240 . S
O67 C65 1.279 . S
O68 Cd58 2.297 . S
O68 C63 1.247 1_545 S
O69 Cd58 2.439 1_565 S
O69 C63 1.208 . S
O70 Cd71 2.223 . S
O70 C78 1.315 . S
Cd71 O70 2.223 . S
Cd71 O74 2.297 . S
Cd71 O75 2.439 . S
Cd71 O81 2.240 . S
Cd72 O73 2.240 . S
Cd72 O80 2.223 . S
Cd72 O82 2.297 . S
Cd72 O83 2.439 . S
O73 Cd72 2.240 . S
O73 C78 1.279 . S
O74 Cd71 2.297 . S
O74 C76 1.247 . S
O75 Cd71 2.439 . S
O75 C76 1.208 . S
C76 O74 1.247 . S
C76 O75 1.208 . S
C77 O82 1.247 . S
C77 O83 1.208 . S
C78 O70 1.315 . S
C78 O73 1.279 . S
C79 O80 1.315 . S
C79 O81 1.279 . S
O80 Cd72 2.223 . S
O80 C79 1.315 . S
O81 Cd71 2.240 . S
O81 C79 1.279 . S
O82 Cd72 2.297 . S
O82 C77 1.247 . S
O83 Cd72 2.439 . S
O83 C77 1.208 . S
O84 Cd85 2.223 . S
O84 C92 1.315 . S
Cd85 O84 2.223 . S
Cd85 O88 2.297 . S
Cd85 O89 2.439 . S
Cd85 O95 2.240 . S
Cd86 O87 2.240 1_545 S
Cd86 O94 2.223 . S
Cd86 O96 2.297 . S
Cd86 O97 2.439 1_545 S
O87 Cd86 2.240 1_565 S
O87 C92 1.279 . S
O88 Cd85 2.297 . S
O88 C90 1.247 . S
O89 Cd85 2.439 . S
O89 C90 1.208 . S
C90 O88 1.247 . S
C90 O89 1.208 . S
C91 O96 1.247 1_565 S
C91 O97 1.208 . S
C92 O84 1.315 . S
C92 O87 1.279 . S
C93 O94 1.315 1_565 S
C93 O95 1.279 . S
O94 Cd86 2.223 . S
O94 C93 1.315 1_545 S
O95 Cd85 2.240 . S
O95 C93 1.279 . S
O96 Cd86 2.297 . S
O96 C91 1.247 1_545 S
O97 Cd86 2.439 1_565 S
O97 C91 1.208 . S
O98 Cd99 2.223 . S
O98 C106 1.315 . S
Cd99 O98 2.223 . S
Cd99 O102 2.297 . S
Cd99 O103 2.439 . S
Cd99 O109 2.240 . S
Cd100 O101 2.240 . S
Cd100 O108 2.223 . S
Cd100 O110 2.297 . S
Cd100 O111 2.439 . S
O101 Cd100 2.240 . S
O101 C106 1.279 . S
O102 Cd99 2.297 . S
O102 C104 1.247 . S
O103 Cd99 2.439 . S
O103 C104 1.208 . S
C104 O102 1.247 . S
C104 O103 1.208 . S
C105 O110 1.247 . S
C105 O111 1.208 . S
C106 O98 1.315 . S
C106 O101 1.279 . S
C107 O108 1.315 . S
C107 O109 1.279 . S
O108 Cd100 2.223 . S
O108 C107 1.315 . S
O109 Cd99 2.240 . S
O109 C107 1.279 . S
O110 Cd100 2.297 . S
O110 C105 1.247 . S
O111 Cd100 2.439 . S
O111 C105 1.208 . S
O112 Cd113 2.223 . S
O112 C120 1.315 . S
Cd113 O112 2.223 . S
Cd113 O116 2.297 . S
Cd113 O117 2.439 . S
Cd113 O123 2.240 . S
Cd114 O115 2.240 1_655 S
Cd114 O122 2.223 . S
Cd114 O124 2.297 . S
Cd114 O125 2.439 1_655 S
O115 Cd114 2.240 1_455 S
O115 C120 1.279 . S
O116 Cd113 2.297 . S
O116 C118 1.247 . S
O117 Cd113 2.439 . S
O117 C118 1.208 . S
C118 O116 1.247 . S
C118 O117 1.208 . S
C119 O124 1.247 1_455 S
C119 O125 1.208 . S
C120 O112 1.315 . S
C120 O115 1.279 . S
C121 O122 1.315 1_455 S
C121 O123 1.279 . S
O122 Cd114 2.223 . S
O122 C121 1.315 1_655 S
O123 Cd113 2.240 . S
O123 C121 1.279 . S
O124 Cd114 2.297 . S
O124 C119 1.247 1_655 S
O125 Cd114 2.439 1_455 S
O125 C119 1.208 . S
O126 Cd127 2.223 . S
O126 C134 1.315 . S
Cd127 O126 2.223 . S
Cd127 O130 2.297 . S
Cd127 O131 2.439 . S
Cd127 O137 2.240 . S
Cd128 O129 2.240 1_565 S
Cd128 O136 2.223 . S
Cd128 O138 2.297 . S
Cd128 O139 2.439 1_565 S
O129 Cd128 2.240 1_545 S
O129 C134 1.279 . S
O130 Cd127 2.297 . S
O130 C132 1.247 . S
O131 Cd127 2.439 . S
O131 C132 1.208 . S
C132 O130 1.247 . S
C132 O131 1.208 . S
C133 O138 1.247 1_545 S
C133 O139 1.208 . S
C134 O126 1.315 . S
C134 O129 1.279 . S
C135 O136 1.315 1_545 S
C135 O137 1.279 . S
O136 Cd128 2.223 . S
O136 C135 1.315 1_565 S
O137 Cd127 2.240 . S
O137 C135 1.279 . S
O138 Cd128 2.297 . S
O138 C133 1.247 1_565 S
O139 Cd128 2.439 1_545 S
O139 C133 1.208 . S
O140 Cd141 2.223 . S
O140 C148 1.315 . S
Cd141 O140 2.223 . S
Cd141 O144 2.297 . S
Cd141 O145 2.439 . S
Cd141 O151 2.240 . S
Cd142 O143 2.240 . S
Cd142 O150 2.223 . S
Cd142 O152 2.297 . S
Cd142 O153 2.439 . S
O143 Cd142 2.240 . S
O143 C148 1.279 . S
O144 Cd141 2.297 . S
O144 C146 1.247 . S
O145 Cd141 2.439 . S
O145 C146 1.208 . S
C146 O144 1.247 . S
C146 O145 1.208 . S
C147 O152 1.247 . S
C147 O153 1.208 . S
C148 O140 1.315 . S
C148 O143 1.279 . S
C149 O150 1.315 . S
C149 O151 1.279 . S
O150 Cd142 2.223 . S
O150 C149 1.315 . S
O151 Cd141 2.240 . S
O151 C149 1.279 . S
O152 Cd142 2.297 . S
O152 C147 1.247 . S
O153 Cd142 2.439 . S
O153 C147 1.208 . S
O154 Cd155 2.223 . S
O154 C162 1.315 . S
Cd155 O154 2.223 . S
Cd155 O158 2.297 . S
Cd155 O159 2.439 . S
Cd155 O165 2.240 . S
Cd156 O157 2.240 1_455 S
Cd156 O164 2.223 . S
Cd156 O166 2.297 . S
Cd156 O167 2.439 1_455 S
O157 Cd156 2.240 1_655 S
O157 C162 1.279 . S
O158 Cd155 2.297 . S
O158 C160 1.247 . S
O159 Cd155 2.439 . S
O159 C160 1.208 . S
C160 O158 1.247 . S
C160 O159 1.208 . S
C161 O166 1.247 1_655 S
C161 O167 1.208 . S
C162 O154 1.315 . S
C162 O157 1.279 . S
C163 O164 1.315 1_655 S
C163 O165 1.279 . S
O164 Cd156 2.223 . S
O164 C163 1.315 1_455 S
O165 Cd155 2.240 . S
O165 C163 1.279 . S
O166 Cd156 2.297 . S
O166 C161 1.247 1_455 S
O167 Cd156 2.439 1_655 S
O167 C161 1.208 . S
C168 C169 1.387 1_655 S
C168 H172 0.950 . S
C168 C177 1.390 1_554 S
C169 C168 1.387 1_455 S
C169 C171 1.387 . S
H170 C177 0.950 . S
C171 C169 1.387 . S
C171 C173 1.390 1_554 S
C171 H175 0.950 . S
H172 C168 0.950 . S
C173 C171 1.390 1_556 S
C173 C174 1.387 1_455 S
C173 H176 0.950 . S
C174 C173 1.387 1_655 S
C174 C177 1.387 . S
H175 C171 0.950 . S
H176 C173 0.950 . S
C177 C168 1.390 1_556 S
C177 H170 0.950 . S
C177 C174 1.387 . S
C178 C179 1.387 . S
C178 H182 0.950 . S
C178 C187 1.390 1_565 S
C179 C178 1.387 . S
C179 C181 1.387 . S
H180 C187 0.950 . S
C181 C179 1.387 . S
C181 C183 1.390 1_565 S
C181 H185 0.950 . S
H182 C178 0.950 . S
C183 C181 1.390 1_545 S
C183 C184 1.387 . S
C183 H186 0.950 . S
C184 C183 1.387 . S
C184 C187 1.387 . S
H185 C181 0.950 . S
H186 C183 0.950 . S
C187 C178 1.390 1_545 S
C187 H180 0.950 . S
C187 C184 1.387 . S
C188 C189 1.387 . S
C188 H192 0.950 . S
C188 C197 1.390 1_554 S
C189 C188 1.387 . S
C189 C191 1.387 . S
H190 C197 0.950 . S
C191 C189 1.387 . S
C191 C193 1.390 1_554 S
C191 H195 0.950 . S
H192 C188 0.950 . S
C193 C191 1.390 1_556 S
C193 C194 1.387 . S
C193 H196 0.950 . S
C194 C193 1.387 . S
C194 C197 1.387 . S
H195 C191 0.950 . S
H196 C193 0.950 . S
C197 C188 1.390 1_556 S
C197 H190 0.950 . S
C197 C194 1.387 . S
C198 C199 1.387 . S
C198 H202 0.950 . S
C198 C207 1.390 . S
C199 C198 1.387 . S
C199 C201 1.387 1_455 S
H200 C207 0.950 . S
C201 C199 1.387 1_655 S
C201 C203 1.390 . S
C201 H205 0.950 . S
H202 C198 0.950 . S
C203 C201 1.390 . S
C203 C204 1.387 . S
C203 H206 0.950 . S
C204 C203 1.387 . S
C204 C207 1.387 1_655 S
H205 C201 0.950 . S
H206 C203 0.950 . S
C207 C198 1.390 . S
C207 H200 0.950 . S
C207 C204 1.387 1_455 S
C208 C209 1.387 . S
C208 H212 0.950 . S
C208 C217 1.390 1_546 S
C209 C208 1.387 . S
C209 C211 1.387 . S
H210 C217 0.950 . S
C211 C209 1.387 . S
C211 C213 1.390 1_546 S
C211 H215 0.950 . S
H212 C208 0.950 . S
C213 C211 1.390 1_564 S
C213 C214 1.387 . S
C213 H216 0.950 . S
C214 C213 1.387 . S
C214 C217 1.387 . S
H215 C211 0.950 . S
H216 C213 0.950 . S
C217 C208 1.390 1_564 S
C217 H210 0.950 . S
C217 C214 1.387 . S
C218 C219 1.387 . S
C218 H222 0.950 . S
C218 C227 1.390 . S
C219 C218 1.387 . S
C219 C221 1.387 . S
H220 C227 0.950 . S
C221 C219 1.387 . S
C221 C223 1.390 . S
C221 H225 0.950 . S
H222 C218 0.950 . S
C223 C221 1.390 . S
C223 C224 1.387 . S
C223 H226 0.950 . S
C224 C223 1.387 . S
C224 C227 1.387 . S
H225 C221 0.950 . S
H226 C223 0.950 . S
C227 C218 1.390 . S
C227 H220 0.950 . S
C227 C224 1.387 . S
C228 C229 1.387 1_455 S
C228 H232 0.950 . S
C228 C237 1.390 1_556 S
C229 C228 1.387 1_655 S
C229 C231 1.387 . S
H230 C237 0.950 . S
C231 C229 1.387 . S
C231 C233 1.390 1_556 S
C231 H235 0.950 . S
H232 C228 0.950 . S
C233 C231 1.390 1_554 S
C233 C234 1.387 1_655 S
C233 H236 0.950 . S
C234 C233 1.387 1_455 S
C234 C237 1.387 . S
H235 C231 0.950 . S
H236 C233 0.950 . S
C237 C228 1.390 1_554 S
C237 H230 0.950 . S
C237 C234 1.387 . S
C238 C239 1.387 . S
C238 H242 0.950 . S
C238 C247 1.390 1_565 S
C239 C238 1.387 . S
C239 C241 1.387 . S
H240 C247 0.950 . S
C241 C239 1.387 . S
C241 C243 1.390 1_565 S
C241 H245 0.950 . S
H242 C238 0.950 . S
C243 C241 1.390 1_545 S
C243 C244 1.387 . S
C243 H246 0.950 . S
C244 C243 1.387 . S
C244 C247 1.387 . S
H245 C241 0.950 . S
H246 C243 0.950 . S
C247 C238 1.390 1_545 S
C247 H240 0.950 . S
C247 C244 1.387 . S
C248 C249 1.387 . S
C248 H252 0.950 . S
C248 C257 1.390 1_556 S
C249 C248 1.387 . S
C249 C251 1.387 . S
H250 C257 0.950 . S
C251 C249 1.387 . S
C251 C253 1.390 1_556 S
C251 H255 0.950 . S
H252 C248 0.950 . S
C253 C251 1.390 1_554 S
C253 C254 1.387 . S
C253 H256 0.950 . S
C254 C253 1.387 . S
C254 C257 1.387 . S
H255 C251 0.950 . S
H256 C253 0.950 . S
C257 C248 1.390 1_554 S
C257 H250 0.950 . S
C257 C254 1.387 . S
C258 C259 1.387 1_455 S
C258 H262 0.950 . S
C258 C267 1.390 . S
C259 C258 1.387 1_655 S
C259 C261 1.387 . S
H260 C267 0.950 . S
C261 C259 1.387 . S
C261 C263 1.390 . S
C261 H265 0.950 . S
H262 C258 0.950 . S
C263 C261 1.390 . S
C263 C264 1.387 1_655 S
C263 H266 0.950 . S
C264 C263 1.387 1_455 S
C264 C267 1.387 . S
H265 C261 0.950 . S
H266 C263 0.950 . S
C267 C258 1.390 . S
C267 H260 0.950 . S
C267 C264 1.387 . S
C268 C269 1.387 . S
C268 H272 0.950 . S
C268 C277 1.390 1_546 S
C269 C268 1.387 . S
C269 C271 1.387 . S
H270 C277 0.950 . S
C271 C269 1.387 . S
C271 C273 1.390 1_546 S
C271 H275 0.950 . S
H272 C268 0.950 . S
C273 C271 1.390 1_564 S
C273 C274 1.387 . S
C273 H276 0.950 . S
C274 C273 1.387 . S
C274 C277 1.387 . S
H275 C271 0.950 . S
H276 C273 0.950 . S
C277 C268 1.390 1_564 S
C277 H270 0.950 . S
C277 C274 1.387 . S
C278 C279 1.387 . S
C278 H282 0.950 . S
C278 C287 1.390 . S
C279 C278 1.387 . S
C279 C281 1.387 . S
H280 C287 0.950 . S
C281 C279 1.387 . S
C281 C283 1.390 . S
C281 H285 0.950 . S
H282 C278 0.950 . S
C283 C281 1.390 . S
C283 C284 1.387 . S
C283 H286 0.950 . S
C284 C283 1.387 . S
C284 C287 1.387 . S
H285 C281 0.950 . S
H286 C283 0.950 . S
C287 C278 1.390 . S
C287 H280 0.950 . S
C287 C284 1.387 . S
C288 C289 1.387 . S
C288 H292 0.950 . S
C288 C297 1.390 . S
C289 C288 1.387 . S
C289 C291 1.387 . S
H290 C297 0.950 . S
C291 C289 1.387 . S
C291 C293 1.390 . S
C291 H295 0.950 . S
H292 C288 0.950 . S
C293 C291 1.390 . S
C293 C294 1.387 . S
C293 H296 0.950 . S
C294 C293 1.387 . S
C294 C297 1.387 . S
H295 C291 0.950 . S
H296 C293 0.950 . S
C297 C288 1.390 . S
C297 H290 0.950 . S
C297 C294 1.387 . S
C298 C299 1.387 . S
C298 H302 0.950 1_545 S
C298 C307 1.390 . S
C299 C298 1.387 . S
C299 C301 1.387 . S
H300 C307 0.950 1_565 S
C301 C299 1.387 . S
C301 C303 1.390 . S
C301 H305 0.950 . S
H302 C298 0.950 1_565 S
C303 C301 1.390 . S
C303 C304 1.387 . S
C303 H306 0.950 . S
C304 C303 1.387 . S
C304 C307 1.387 . S
H305 C301 0.950 . S
H306 C303 0.950 . S
C307 C298 1.390 . S
C307 H300 0.950 1_545 S
C307 C304 1.387 . S
C308 C309 1.387 . S
C308 H312 0.950 . S
C308 C317 1.390 . S
C309 C308 1.387 . S
C309 C311 1.387 . S
H310 C317 0.950 . S
C311 C309 1.387 . S
C311 C313 1.390 . S
C311 H315 0.950 . S
H312 C308 0.950 . S
C313 C311 1.390 . S
C313 C314 1.387 . S
C313 H316 0.950 . S
C314 C313 1.387 . S
C314 C317 1.387 . S
H315 C311 0.950 . S
H316 C313 0.950 . S
C317 C308 1.390 . S
C317 H310 0.950 . S
C317 C314 1.387 . S
C318 C319 1.387 . S
C318 H322 0.950 . S
C318 C327 1.390 . S
C319 C318 1.387 . S
C319 C321 1.387 . S
H320 C327 0.950 . S
C321 C319 1.387 . S
C321 C323 1.390 . S
C321 H325 0.950 . S
H322 C318 0.950 . S
C323 C321 1.390 . S
C323 C324 1.387 . S
C323 H326 0.950 . S
C324 C323 1.387 . S
C324 C327 1.387 . S
H325 C321 0.950 . S
H326 C323 0.950 . S
C327 C318 1.390 . S
C327 H320 0.950 . S
C327 C324 1.387 . S
C328 C329 1.387 . S
C328 H332 0.950 1_565 S
C328 C337 1.390 . S
C329 C328 1.387 . S
C329 C331 1.387 . S
H330 C337 0.950 1_545 S
C331 C329 1.387 . S
C331 C333 1.390 . S
C331 H335 0.950 . S
H332 C328 0.950 1_545 S
C333 C331 1.390 . S
C333 C334 1.387 . S
C333 H336 0.950 . S
C334 C333 1.387 . S
C334 C337 1.387 . S
H335 C331 0.950 . S
H336 C333 0.950 . S
C337 C328 1.390 . S
C337 H330 0.950 1_565 S
C337 C334 1.387 . S
C338 C339 1.387 . S
C338 H342 0.950 . S
C338 C347 1.390 . S
C339 C338 1.387 . S
C339 C341 1.387 . S
H340 C347 0.950 . S
C341 C339 1.387 . S
C341 C343 1.390 . S
C341 H345 0.950 . S
H342 C338 0.950 . S
C343 C341 1.390 . S
C343 C344 1.387 . S
C343 H346 0.950 . S
C344 C343 1.387 . S
C344 C347 1.387 . S
H345 C341 0.950 . S
H346 C343 0.950 . S
C347 C338 1.390 . S
C347 H340 0.950 . S
C347 C344 1.387 . S
C348 C349 1.387 . S
C348 H352 0.950 . S
C348 C357 1.390 . S
C349 C348 1.387 . S
C349 C351 1.387 . S
H350 C357 0.950 . S
C351 C349 1.387 . S
C351 C353 1.390 . S
C351 H355 0.950 . S
H352 C348 0.950 . S
C353 C351 1.390 . S
C353 C354 1.387 . S
C353 H356 0.950 . S
C354 C353 1.387 . S
C354 C357 1.387 . S
H355 C351 0.950 . S
H356 C353 0.950 . S
C357 C348 1.390 . S
C357 H350 0.950 . S
C357 C354 1.387 . S
C358 C359 1.387 . S
C358 H362 0.950 . S
C358 C367 1.390 . S
C359 C358 1.387 . S
C359 C361 1.387 . S
H360 C367 0.950 . S
C361 C359 1.387 . S
C361 C363 1.390 . S
C361 H365 0.950 . S
H362 C358 0.950 . S
C363 C361 1.390 . S
C363 C364 1.387 . S
C363 H366 0.950 . S
C364 C363 1.387 . S
C364 C367 1.387 . S
H365 C361 0.950 . S
H366 C363 0.950 . S
C367 C358 1.390 . S
C367 H360 0.950 . S
C367 C364 1.387 . S
C368 C369 1.387 . S
C368 H372 0.950 . S
C368 C377 1.390 . S
C369 C368 1.387 . S
C369 C371 1.387 . S
H370 C377 0.950 . S
C371 C369 1.387 . S
C371 C373 1.390 . S
C371 H375 0.950 . S
H372 C368 0.950 . S
C373 C371 1.390 . S
C373 C374 1.387 . S
C373 H376 0.950 . S
C374 C373 1.387 . S
C374 C377 1.387 . S
H375 C371 0.950 . S
H376 C373 0.950 . S
C377 C368 1.390 . S
C377 H370 0.950 . S
C377 C374 1.387 . S
C378 C379 1.387 . S
C378 H382 0.950 . S
C378 C387 1.390 . S
C379 C378 1.387 . S
C379 C381 1.387 . S
H380 C387 0.950 . S
C381 C379 1.387 . S
C381 C383 1.390 . S
C381 H385 0.950 . S
H382 C378 0.950 . S
C383 C381 1.390 . S
C383 C384 1.387 . S
C383 H386 0.950 . S
C384 C383 1.387 . S
C384 C387 1.387 . S
H385 C381 0.950 . S
H386 C383 0.950 . S
C387 C378 1.390 . S
C387 H380 0.950 . S
C387 C384 1.387 . S
C388 C389 1.387 . S
C388 H392 0.950 . S
C388 C397 1.390 . S
C389 C388 1.387 . S
C389 C391 1.387 . S
H390 C397 0.950 . S
C391 C389 1.387 . S
C391 C393 1.390 . S
C391 H395 0.950 . S
H392 C388 0.950 . S
C393 C391 1.390 . S
C393 C394 1.387 . S
C393 H396 0.950 . S
C394 C393 1.387 . S
C394 C397 1.387 . S
H395 C391 0.950 . S
H396 C393 0.950 . S
C397 C388 1.390 . S
C397 H390 0.950 . S
C397 C394 1.387 . S
C398 C399 1.387 . S
C398 H402 0.950 . S
C398 C407 1.390 . S
C399 C398 1.387 . S
C399 C401 1.387 . S
H400 C407 0.950 . S
C401 C399 1.387 . S
C401 C403 1.390 . S
C401 H405 0.950 . S
H402 C398 0.950 . S
C403 C401 1.390 . S
C403 C404 1.387 . S
C403 H406 0.950 . S
C404 C403 1.387 . S
C404 C407 1.387 . S
H405 C401 0.950 . S
H406 C403 0.950 . S
C407 C398 1.390 . S
C407 H400 0.950 . S
C407 C404 1.387 . S
C169 C8 1.828 . S
C174 C162 1.828 . S
C179 C92 1.827 . S
C184 C22 1.827 . S
C189 C36 1.827 . S
C194 C106 1.827 . S
C199 C120 1.827 . S
C204 C50 1.828 . S
C209 C134 1.827 . S
C214 C64 1.827 . S
C219 C148 1.828 . S
C224 C78 1.829 . S
C229 C49 1.106 . S
C234 C119 1.107 . S
C239 C63 1.107 . S
C244 C133 1.107 . S
C249 C77 1.106 . S
C254 C147 1.107 . S
C259 C161 1.107 . S
C264 C7 1.107 . S
C269 C21 1.107 . S
C274 C91 1.107 . S
C279 C35 1.107 . S
C284 C105 1.107 . S
C289 C121 1.728 . S
C294 C9 1.729 . S
C299 C135 1.730 . S
C304 C23 1.730 . S
C309 C37 1.729 . S
C314 C149 1.728 . S
C319 C51 1.729 . S
C324 C163 1.728 . S
C329 C65 1.730 . S
C334 C93 1.730 . S
C339 C107 1.729 . S
C344 C79 1.729 . S
C349 C6 1.710 . S
C354 C146 1.710 . S
C359 C160 1.711 . S
C364 C20 1.709 . S
C369 C34 1.710 . S
C374 C90 1.709 . S
C379 C48 1.710 . S
C384 C104 1.710 . S
C389 C62 1.711 . S
C394 C118 1.709 . S
C399 C76 1.711 . S
C404 C132 1.709 . S
