# Generated by pormake.
# Topology wju, (5)-cn, num edge types: 1
# Building blocks:
#     Node 0, Type 0, BuildingBlock: XOMCOT_clean_sbu_1, # of connection points: 5
#     Node 1, Type 0, BuildingBlock: XOMCOT_clean_sbu_1, # of connection points: 5
#     Node 2, Type 0, BuildingBlock: XOMCOT_clean_sbu_1, # of connection points: 5
#     Node 3, Type 0, BuildingBlock: XOMCOT_clean_sbu_1, # of connection points: 5
#     Node 4, Type 0, BuildingBlock: XOMCOT_clean_sbu_1, # of connection points: 5
#     Node 5, Type 0, BuildingBlock: XOMCOT_clean_sbu_1, # of connection points: 5
#     Node 6, Type 0, BuildingBlock: XOMCOT_clean_sbu_1, # of connection points: 5
#     Node 7, Type 0, BuildingBlock: XOMCOT_clean_sbu_1, # of connection points: 5
#     Node 8, Type 0, BuildingBlock: XOMCOT_clean_sbu_1, # of connection points: 5
#     Node 9, Type 0, BuildingBlock: XOMCOT_clean_sbu_1, # of connection points: 5
#     Node 10, Type 0, BuildingBlock: XOMCOT_clean_sbu_1, # of connection points: 5
#     Node 11, Type 0, BuildingBlock: XOMCOT_clean_sbu_1, # of connection points: 5
#     Edge 12, Type (0, 0), BuildingBlock: TEMPAE_clean_linker_10, # of connection points: 2
#     Edge 13, Type (0, 0), BuildingBlock: TEMPAE_clean_linker_10, # of connection points: 2
#     Edge 14, Type (0, 0), BuildingBlock: TEMPAE_clean_linker_10, # of connection points: 2
#     Edge 15, Type (0, 0), BuildingBlock: TEMPAE_clean_linker_10, # of connection points: 2
#     Edge 16, Type (0, 0), BuildingBlock: TEMPAE_clean_linker_10, # of connection points: 2
#     Edge 17, Type (0, 0), BuildingBlock: TEMPAE_clean_linker_10, # of connection points: 2
#     Edge 18, Type (0, 0), BuildingBlock: TEMPAE_clean_linker_10, # of connection points: 2
#     Edge 19, Type (0, 0), BuildingBlock: TEMPAE_clean_linker_10, # of connection points: 2
#     Edge 20, Type (0, 0), BuildingBlock: TEMPAE_clean_linker_10, # of connection points: 2
#     Edge 21, Type (0, 0), BuildingBlock: TEMPAE_clean_linker_10, # of connection points: 2
#     Edge 22, Type (0, 0), BuildingBlock: TEMPAE_clean_linker_10, # of connection points: 2
#     Edge 23, Type (0, 0), BuildingBlock: TEMPAE_clean_linker_10, # of connection points: 2
#     Edge 24, Type (0, 0), BuildingBlock: TEMPAE_clean_linker_10, # of connection points: 2
#     Edge 25, Type (0, 0), BuildingBlock: TEMPAE_clean_linker_10, # of connection points: 2
#     Edge 26, Type (0, 0), BuildingBlock: TEMPAE_clean_linker_10, # of connection points: 2
#     Edge 27, Type (0, 0), BuildingBlock: TEMPAE_clean_linker_10, # of connection points: 2
#     Edge 28, Type (0, 0), BuildingBlock: TEMPAE_clean_linker_10, # of connection points: 2
#     Edge 29, Type (0, 0), BuildingBlock: TEMPAE_clean_linker_10, # of connection points: 2
#     Edge 30, Type (0, 0), BuildingBlock: TEMPAE_clean_linker_10, # of connection points: 2
#     Edge 31, Type (0, 0), BuildingBlock: TEMPAE_clean_linker_10, # of connection points: 2
#     Edge 32, Type (0, 0), BuildingBlock: TEMPAE_clean_linker_10, # of connection points: 2
#     Edge 33, Type (0, 0), BuildingBlock: TEMPAE_clean_linker_10, # of connection points: 2
#     Edge 34, Type (0, 0), BuildingBlock: TEMPAE_clean_linker_10, # of connection points: 2
#     Edge 35, Type (0, 0), BuildingBlock: TEMPAE_clean_linker_10, # of connection points: 2
#     Edge 36, Type (0, 0), BuildingBlock: TEMPAE_clean_linker_10, # of connection points: 2
#     Edge 37, Type (0, 0), BuildingBlock: TEMPAE_clean_linker_10, # of connection points: 2
#     Edge 38, Type (0, 0), BuildingBlock: TEMPAE_clean_linker_10, # of connection points: 2
#     Edge 39, Type (0, 0), BuildingBlock: TEMPAE_clean_linker_10, # of connection points: 2
#     Edge 40, Type (0, 0), BuildingBlock: TEMPAE_clean_linker_10, # of connection points: 2
#     Edge 41, Type (0, 0), BuildingBlock: TEMPAE_clean_linker_10, # of connection points: 2
# Relax obj value: 0.078
# Max RMSD: 0.117
# Mean RMSD: 0.117
data_MOF--net-wju--node1-XOMCOT_clean_sbu_1--edge1-TEMPAE_clean_linker_10
_symmetry_space_group_name_H-M    P1
_symmetry_Int_Tables_number       1
_symmetry_cell_setting            triclinic
loop_
_symmetry_equiv_pos_as_xyz
'x, y, z'
_cell_length_a     28.067448
_cell_length_b     28.10592
_cell_length_c     103.66022
_cell_angle_alpha  89.998894
_cell_angle_beta   90.08533
_cell_angle_gamma 120.02323
loop_
_atom_site_label
_atom_site_type_symbol
_atom_site_fract_x
_atom_site_fract_y
_atom_site_fract_z
_atom_type_partial_charge
C0 C 0.23937 0.10689 0.11954 0.0
C1 C 0.23364 0.10435 0.13268 0.0
N2 N 0.27892 0.10749 0.13796 0.0
N3 N 0.28776 0.11076 0.11633 0.0
C4 C 0.31137 0.11152 0.12784 0.0
H5 H 0.21074 0.10832 0.11282 0.0
Co6 Co 0.31241 0.12166 0.09912 0.0
C7 C 0.39771 0.08901 0.0967 0.0
O8 O 0.42399 0.13219 0.08923 0.0
N9 N 0.33538 0.1329 0.08141 0.0
C10 C 0.36881 0.1689 0.06207 0.0
C11 C 0.36662 0.18029 0.0749 0.0
C12 C 0.31903 0.09341 0.07219 0.0
N13 N 0.33848 0.11421 0.06035 0.0
O14 O 0.2429 0.05745 0.09411 0.0
H15 H 0.3862 0.22099 0.07903 0.0
H16 H 0.29271 0.05003 0.0741 0.0
O17 O 0.35193 0.07886 0.10197 0.0
C18 C 0.21487 0.07693 0.08879 0.0
O19 O 0.23956 0.13017 0.08676 0.0
N20 N 0.37288 0.18843 0.10418 0.0
C21 C 0.43537 0.29409 0.11415 0.0
C22 C 0.45309 0.2557 0.11563 0.0
C23 C 0.42025 0.20208 0.1108 0.0
C24 C 0.35582 0.22572 0.10273 0.0
C25 C 0.38645 0.27862 0.10751 0.0
H26 H 0.43166 0.17159 0.11299 0.0
H27 H 0.31704 0.21367 0.09805 0.0
H28 H 0.35186 0.11614 0.12881 0.0
H29 H 0.19981 0.10307 0.13798 0.0
H30 H 0.38944 0.19883 0.0545 0.0
H31 H 0.49048 0.26636 0.1209 0.0
H32 H 0.37161 0.30721 0.10611 0.0
C33 C 0.12855 0.20393 0.45434 0.0
C34 C 0.12209 0.19908 0.46745 0.0
N35 N 0.15665 0.24804 0.47286 0.0
N36 N 0.16784 0.25549 0.45127 0.0
C37 C 0.18465 0.28143 0.46284 0.0
H38 H 0.10331 0.17229 0.44751 0.0
Co39 Co 0.17977 0.28191 0.43415 0.0
C40 C 0.2955 0.37404 0.43247 0.0
O41 O 0.27682 0.39867 0.42495 0.0
N42 N 0.18957 0.30695 0.41658 0.0
C43 C 0.17874 0.33875 0.39775 0.0
C44 C 0.16912 0.33609 0.41079 0.0
C45 C 0.21204 0.29299 0.40671 0.0
N46 N 0.20516 0.31101 0.39511 0.0
O47 O 0.18114 0.2164 0.42864 0.0
H48 H 0.14731 0.3536 0.41555 0.0
H49 H 0.23067 0.26762 0.40792 0.0
O50 O 0.26174 0.32625 0.43711 0.0
C51 C 0.1347 0.18551 0.42308 0.0
O52 O 0.1021 0.20575 0.42101 0.0
N53 N 0.16719 0.33805 0.43968 0.0
C54 C 0.11614 0.39418 0.44907 0.0
C55 C 0.17343 0.41733 0.45013 0.0
C56 C 0.19828 0.3878 0.44562 0.0
C57 C 0.1116 0.31523 0.43882 0.0
C58 C 0.08537 0.34255 0.44332 0.0
H59 H 0.24148 0.40406 0.44746 0.0
H60 H 0.08727 0.27488 0.43461 0.0
H61 H 0.21413 0.32473 0.46386 0.0
H62 H 0.09259 0.1625 0.47254 0.0
H63 H 0.16637 0.35904 0.39074 0.0
H64 H 0.19831 0.45689 0.45473 0.0
H65 H 0.04117 0.32344 0.44219 0.0
C66 C 0.89997 0.1216 0.78891 0.0
C67 C 0.89473 0.1154 0.80202 0.0
N68 N 0.88782 0.15589 0.80689 0.0
N69 N 0.89695 0.16619 0.78534 0.0
C70 C 0.89005 0.18674 0.79661 0.0
H71 H 0.90195 0.09278 0.78237 0.0
Co72 Co 0.88704 0.17882 0.76797 0.0
C73 C 0.92308 0.29767 0.76477 0.0
O74 O 0.88312 0.28235 0.75633 0.0
N75 N 0.87611 0.1888 0.75018 0.0
C76 C 0.8386 0.18175 0.73081 0.0
C77 C 0.82811 0.16975 0.74371 0.0
C78 C 0.91517 0.21192 0.74088 0.0
N79 N 0.89342 0.20809 0.729 0.0
O80 O 0.95144 0.17336 0.76336 0.0
H81 H 0.7876 0.14742 0.74791 0.0
H82 H 0.95883 0.2309 0.74279 0.0
O83 O 0.92997 0.26107 0.77064 0.0
C84 C 0.93233 0.12563 0.75821 0.0
O85 O 0.87902 0.09635 0.7562 0.0
N86 N 0.82026 0.1732 0.77263 0.0
C87 C 0.71429 0.13181 0.78221 0.0
C88 C 0.7517 0.18858 0.78251 0.0
C89 C 0.80548 0.20861 0.77788 0.0
C90 C 0.78387 0.11827 0.77225 0.0
C91 C 0.73087 0.0968 0.77688 0.0
H92 H 0.8351 0.25156 0.77913 0.0
H93 H 0.79677 0.09061 0.76853 0.0
H94 H 0.88265 0.22094 0.79718 0.0
H95 H 0.89371 0.08216 0.80753 0.0
H96 H 0.80796 0.17013 0.72329 0.0
H97 H 0.7401 0.21664 0.78668 0.0
H98 H 0.70299 0.05283 0.77631 0.0
C99 C 0.77219 0.86078 0.11632 0.0
C100 C 0.78303 0.86553 0.12929 0.0
N101 N 0.74892 0.87938 0.13514 0.0
N102 N 0.73176 0.87211 0.11383 0.0
C103 C 0.71797 0.88303 0.12555 0.0
H104 H 0.79188 0.84858 0.10914 0.0
Co105 Co 0.70567 0.86694 0.09698 0.0
C106 C 0.61522 0.89152 0.09789 0.0
O107 O 0.58886 0.84667 0.09093 0.0
N108 N 0.68102 0.86203 0.07938 0.0
C109 C 0.64521 0.83439 0.0597 0.0
C110 C 0.64699 0.8179 0.07208 0.0
C111 C 0.69874 0.9049 0.07105 0.0
N112 N 0.67813 0.88919 0.059 0.0
O113 O 0.77435 0.93298 0.09281 0.0
H114 H 0.62433 0.77588 0.07529 0.0
H115 H 0.72678 0.94708 0.07376 0.0
O116 O 0.6649 0.90721 0.10157 0.0
C117 C 0.80256 0.91456 0.08716 0.0
O118 O 0.77725 0.86222 0.08404 0.0
N119 N 0.64633 0.79792 0.10132 0.0
C120 C 0.58618 0.69018 0.1101 0.0
C121 C 0.57679 0.73081 0.11529 0.0
C122 C 0.60799 0.78508 0.11083 0.0
C123 C 0.65694 0.75879 0.0967 0.0
C124 C 0.62638 0.70452 0.10066 0.0
H125 H 0.60347 0.81683 0.11555 0.0
H126 H 0.69061 0.77017 0.09008 0.0
H127 H 0.68579 0.89297 0.12706 0.0
H128 H 0.81257 0.85758 0.13413 0.0
H129 H 0.62266 0.80761 0.05173 0.0
H130 H 0.54706 0.72103 0.12294 0.0
H131 H 0.63569 0.67432 0.09675 0.0
C132 C 0.90772 0.71557 0.44948 0.0
C133 C 0.91895 0.72682 0.46233 0.0
N134 N 0.87213 0.71559 0.46844 0.0
N135 N 0.85398 0.69718 0.44728 0.0
C136 C 0.833 0.69741 0.45905 0.0
H137 H 0.93678 0.719 0.44219 0.0
Co138 Co 0.82656 0.67526 0.4305 0.0
C139 C 0.70703 0.59584 0.43399 0.0
O140 O 0.71588 0.55929 0.42836 0.0
N141 N 0.80064 0.65423 0.41289 0.0
C142 C 0.77195 0.60863 0.39423 0.0
C143 C 0.78423 0.60564 0.40688 0.0
C144 C 0.79757 0.68599 0.40336 0.0
N145 N 0.78095 0.65952 0.39186 0.0
O146 O 0.83872 0.74852 0.4276 0.0
H147 H 0.78128 0.56938 0.41122 0.0
H148 H 0.8084 0.72828 0.40471 0.0
O149 O 0.7475 0.64474 0.43613 0.0
C150 C 0.88764 0.7739 0.42296 0.0
O151 O 0.9104 0.74442 0.41985 0.0
N152 N 0.82639 0.60957 0.43361 0.0
C153 C 0.86706 0.5419 0.44139 0.0
C154 C 0.826 0.54412 0.4486 0.0
C155 C 0.80607 0.57845 0.44453 0.0
C156 C 0.86645 0.60763 0.42661 0.0
C157 C 0.88611 0.57291 0.43009 0.0
H158 H 0.77792 0.58351 0.4507 0.0
H159 H 0.8858 0.63586 0.41868 0.0
H160 H 0.79004 0.68391 0.46073 0.0
H161 H 0.95843 0.74039 0.46688 0.0
H162 H 0.75732 0.5752 0.38738 0.0
H163 H 0.81152 0.52169 0.45757 0.0
H164 H 0.91915 0.57363 0.42454 0.0
C165 C 0.16908 0.90628 0.78265 0.0
C166 C 0.17616 0.91816 0.79555 0.0
N167 N 0.15806 0.87094 0.80212 0.0
N168 N 0.14636 0.85166 0.7809 0.0
C169 C 0.13935 0.83082 0.79302 0.0
H170 H 0.18254 0.93616 0.77496 0.0
Co171 Co 0.14299 0.82533 0.76408 0.0
C172 C 0.11377 0.70917 0.76651 0.0
O173 O 0.15693 0.72363 0.75919 0.0
N174 N 0.14026 0.80081 0.74643 0.0
C175 C 0.16272 0.78407 0.72695 0.0
C176 C 0.1804 0.79989 0.73936 0.0
C177 C 0.09819 0.78461 0.73783 0.0
N178 N 0.11102 0.77473 0.7259 0.0
O179 O 0.07762 0.83074 0.7612 0.0
H180 H 0.22045 0.80944 0.74283 0.0
H181 H 0.05881 0.7805 0.7402 0.0
O182 O 0.101 0.74568 0.76979 0.0
C183 C 0.09642 0.87735 0.75553 0.0
O184 O 0.1477 0.90194 0.75152 0.0
N185 N 0.21194 0.83221 0.76715 0.0
C186 C 0.32071 0.88107 0.77535 0.0
C187 C 0.2801 0.83369 0.78149 0.0
C188 C 0.22549 0.80971 0.77723 0.0
C189 C 0.25144 0.87869 0.76128 0.0
C190 C 0.30623 0.9028 0.76496 0.0
H191 H 0.19393 0.77609 0.78272 0.0
H192 H 0.23985 0.89882 0.75408 0.0
H193 H 0.12448 0.78792 0.79511 0.0
H194 H 0.1948 0.9588 0.79979 0.0
H195 H 0.18695 0.78127 0.71919 0.0
H196 H 0.29008 0.81701 0.78981 0.0
H197 H 0.33653 0.94034 0.76028 0.0
C198 C 0.83295 0.74298 0.58494 0.0
C199 C 0.82725 0.75035 0.57207 0.0
N200 N 0.85863 0.73552 0.56525 0.0
N201 N 0.86764 0.72331 0.5864 0.0
C202 C 0.88321 0.71971 0.57423 0.0
H203 H 0.81109 0.74912 0.59275 0.0
Co204 Co 0.88083 0.70223 0.60266 0.0
C205 C 0.90414 0.61385 0.59228 0.0
O206 O 0.85262 0.57575 0.59374 0.0
N207 N 0.89534 0.68193 0.61929 0.0
C208 C 0.89615 0.6302 0.63552 0.0
C209 C 0.88083 0.63025 0.62296 0.0
C210 C 0.92027 0.71271 0.62995 0.0
N211 N 0.92087 0.68207 0.63998 0.0
O212 O 0.94762 0.77334 0.60366 0.0
H213 H 0.85877 0.59403 0.61709 0.0
H214 H 0.9369 0.7566 0.63051 0.0
O215 O 0.91992 0.66448 0.59496 0.0
C216 C 0.92953 0.80316 0.60863 0.0
O217 O 0.8787 0.77803 0.61297 0.0
N218 N 0.80901 0.63896 0.60213 0.0
C219 C 0.69426 0.58236 0.60059 0.0
C220 C 0.72578 0.58563 0.58985 0.0
C221 C 0.78309 0.61405 0.59082 0.0
C222 C 0.77804 0.63421 0.61275 0.0
C223 C 0.72073 0.60493 0.61227 0.0
H224 H 0.80646 0.61949 0.58213 0.0
H225 H 0.79723 0.65764 0.62137 0.0
H226 H 0.91053 0.70413 0.572 0.0
H227 H 0.79984 0.76316 0.56805 0.0
H228 H 0.88977 0.59457 0.64094 0.0
H229 H 0.70641 0.56935 0.5806 0.0
H230 H 0.69746 0.60453 0.62065 0.0
C231 C 0.12524 0.91126 0.91658 0.0
C232 C 0.11845 0.90973 0.90346 0.0
N233 N 0.16074 0.90785 0.89787 0.0
N234 N 0.172 0.91103 0.91943 0.0
C235 C 0.19285 0.90884 0.90778 0.0
H236 H 0.09617 0.90977 0.92361 0.0
Co237 Co 0.18992 0.90369 0.9365 0.0
C238 C 0.30453 0.9256 0.93647 0.0
O239 O 0.28546 0.88151 0.94372 0.0
N240 N 0.20644 0.89609 0.95417 0.0
C241 C 0.20993 0.8637 0.9736 0.0
C242 C 0.19268 0.85001 0.96104 0.0
C243 C 0.23212 0.93722 0.96294 0.0
N244 N 0.2344 0.91858 0.97484 0.0
O245 O 0.19085 0.97154 0.9408 0.0
H246 H 0.17122 0.80858 0.95735 0.0
H247 H 0.24844 0.98021 0.9607 0.0
O248 O 0.27114 0.94128 0.93239 0.0
C249 C 0.14522 0.95637 0.94669 0.0
O250 O 0.11498 0.90431 0.94983 0.0
N251 N 0.17705 0.83362 0.93211 0.0
C252 C 0.12246 0.72627 0.92281 0.0
C253 C 0.17773 0.76193 0.91957 0.0
C254 C 0.20415 0.81638 0.92408 0.0
C255 C 0.12352 0.79888 0.93529 0.0
C256 C 0.09575 0.74515 0.9309 0.0
H257 H 0.24468 0.84481 0.92049 0.0
H258 H 0.10151 0.81374 0.94099 0.0
H259 H 0.22985 0.90641 0.90658 0.0
H260 H 0.08336 0.90715 0.89845 0.0
H261 H 0.20321 0.83518 0.98135 0.0
H262 H 0.1992 0.74866 0.91314 0.0
H263 H 0.05315 0.71873 0.93366 0.0
C264 C 0.30133 0.11269 0.25457 0.0
C265 C 0.29918 0.09662 0.24198 0.0
N266 N 0.31057 0.13957 0.23424 0.0
N267 N 0.31405 0.1657 0.25493 0.0
C268 C 0.31863 0.18086 0.24236 0.0
H269 H 0.29555 0.08768 0.263 0.0
Co270 Co 0.32556 0.20449 0.2706 0.0
C271 C 0.41144 0.31521 0.25946 0.0
O272 O 0.45174 0.30893 0.26381 0.0
N273 N 0.33581 0.2434 0.28655 0.0
C274 C 0.37638 0.30396 0.30249 0.0
C275 C 0.38317 0.28771 0.29051 0.0
C276 C 0.30073 0.23344 0.29657 0.0
N277 N 0.3245 0.26995 0.30637 0.0
O278 O 0.25167 0.19271 0.2688 0.0
H279 H 0.4216 0.30607 0.28543 0.0
H280 H 0.25861 0.20007 0.29676 0.0
O281 O 0.36082 0.27793 0.26136 0.0
C282 C 0.22409 0.14414 0.27356 0.0
O283 O 0.25144 0.12509 0.28 0.0
N284 N 0.39253 0.20422 0.27291 0.0
C285 C 0.45988 0.15822 0.27538 0.0
C286 C 0.45766 0.18206 0.26374 0.0
C287 C 0.42329 0.2042 0.26265 0.0
C288 C 0.39697 0.18371 0.28453 0.0
C289 C 0.43127 0.16145 0.28604 0.0
H290 H 0.41866 0.2179 0.25324 0.0
H291 H 0.36974 0.17906 0.29238 0.0
H292 H 0.33 0.22194 0.23925 0.0
H293 H 0.29005 0.05624 0.23881 0.0
H294 H 0.4081 0.33715 0.30813 0.0
H295 H 0.47894 0.17966 0.25527 0.0
H296 H 0.431 0.14196 0.29508 0.0
C297 C 0.19082 0.29837 0.58909 0.0
C298 C 0.20164 0.29214 0.57649 0.0
N299 N 0.16491 0.29627 0.56889 0.0
N300 N 0.14726 0.30621 0.58956 0.0
C301 C 0.1323 0.30492 0.57706 0.0
H302 H 0.21399 0.29829 0.59743 0.0
Co303 Co 0.12164 0.31853 0.6052 0.0
C304 C 0.0326 0.3413 0.5982 0.0
O305 O 0.9989 0.29989 0.60553 0.0
N306 N 0.09692 0.33141 0.62119 0.0
C307 C 0.08087 0.37628 0.63672 0.0
C308 C 0.09868 0.37896 0.62429 0.0
C309 C 0.07784 0.30041 0.63203 0.0
N310 N 0.06794 0.32696 0.64166 0.0
O311 O 0.0619 0.24252 0.60477 0.0
H312 H 0.11261 0.41388 0.61791 0.0
H313 H 0.07257 0.25976 0.63299 0.0
O314 O 0.08106 0.34939 0.59621 0.0
C315 C 0.08388 0.21624 0.60976 0.0
O316 O 0.13306 0.24553 0.61492 0.0
N317 N 0.18404 0.38815 0.60592 0.0
C318 C 0.29486 0.46563 0.60399 0.0
C319 C 0.25783 0.46233 0.59446 0.0
C320 C 0.20198 0.42347 0.59569 0.0
C321 C 0.21879 0.39407 0.61577 0.0
C322 C 0.27443 0.43332 0.61509 0.0
H323 H 0.1747 0.41756 0.58772 0.0
H324 H 0.20445 0.36462 0.62358 0.0
H325 H 0.09834 0.3102 0.57402 0.0
H326 H 0.2349 0.28631 0.57316 0.0
H327 H 0.07737 0.40825 0.64169 0.0
H328 H 0.27254 0.48642 0.58571 0.0
H329 H 0.30204 0.4342 0.62253 0.0
C330 C 0.91473 0.18909 0.92182 0.0
C331 C 0.92404 0.19089 0.90883 0.0
N332 N 0.8752 0.16697 0.90268 0.0
N333 N 0.8602 0.16385 0.92405 0.0
C334 C 0.83683 0.15099 0.91215 0.0
H335 H 0.94606 0.20661 0.92921 0.0
Co336 Co 0.83618 0.15951 0.94105 0.0
C337 C 0.71732 0.11975 0.94073 0.0
O338 O 0.72994 0.16108 0.94856 0.0
N339 N 0.81414 0.15556 0.95884 0.0
C340 C 0.79931 0.17432 0.97888 0.0
C341 C 0.81804 0.19554 0.96683 0.0
C342 C 0.79259 0.11021 0.96649 0.0
N343 N 0.78342 0.1206 0.97872 0.0
O344 O 0.84764 0.09753 0.9437 0.0
H345 H 0.83266 0.23775 0.96429 0.0
H346 H 0.78366 0.07011 0.96315 0.0
O347 O 0.75601 0.11274 0.93608 0.0
C348 C 0.89531 0.119 0.94903 0.0
O349 O 0.91771 0.17022 0.95296 0.0
N350 N 0.83638 0.22517 0.93813 0.0
C351 C 0.87336 0.33243 0.93006 0.0
C352 C 0.82591 0.28879 0.92457 0.0
C353 C 0.80803 0.23496 0.92873 0.0
C354 C 0.88344 0.26742 0.94316 0.0
C355 C 0.90161 0.32135 0.9396 0.0
H356 H 0.7743 0.20132 0.92369 0.0
H357 H 0.90846 0.25886 0.94962 0.0
H358 H 0.79293 0.13105 0.91046 0.0
H359 H 0.96399 0.21007 0.90423 0.0
H360 H 0.79873 0.19723 0.98721 0.0
H361 H 0.80438 0.29605 0.91683 0.0
H362 H 0.93959 0.35391 0.94368 0.0
C363 C 0.76093 0.91927 0.25212 0.0
C364 C 0.76722 0.93499 0.23939 0.0
N365 N 0.74748 0.88966 0.23193 0.0
N366 N 0.73731 0.86419 0.2528 0.0
C367 C 0.73046 0.84731 0.24034 0.0
H368 H 0.77169 0.94621 0.26038 0.0
Co369 Co 0.71778 0.82468 0.26841 0.0
C370 C 0.6253 0.72118 0.25557 0.0
O371 O 0.58947 0.73725 0.25753 0.0
N372 N 0.69929 0.78403 0.28422 0.0
C373 C 0.64945 0.72235 0.29922 0.0
C374 C 0.64956 0.74024 0.28694 0.0
C375 C 0.72874 0.7919 0.29523 0.0
N376 N 0.69913 0.75505 0.30458 0.0
O377 O 0.78628 0.82478 0.26744 0.0
H378 H 0.61429 0.72309 0.28065 0.0
H379 H 0.77051 0.82491 0.29656 0.0
O380 O 0.67578 0.75171 0.25913 0.0
C381 C 0.81987 0.87005 0.27306 0.0
O382 O 0.79964 0.8974 0.27898 0.0
N383 N 0.65639 0.83599 0.27007 0.0
C384 C 0.59786 0.89149 0.27298 0.0
C385 C 0.60193 0.87188 0.2609 0.0
C386 C 0.63172 0.84476 0.25963 0.0
C387 C 0.65108 0.85393 0.28198 0.0
C388 C 0.62089 0.88051 0.28369 0.0
H389 H 0.63704 0.83339 0.25003 0.0
H390 H 0.67433 0.85271 0.29014 0.0
H391 H 0.71105 0.8046 0.23752 0.0
H392 H 0.7848 0.97678 0.23596 0.0
H393 H 0.61493 0.68773 0.30381 0.0
H394 H 0.58499 0.88033 0.25238 0.0
H395 H 0.61989 0.89674 0.2931 0.0
C396 C 0.27382 0.0391 0.04596 0.0
C397 C 0.32583 0.0852 0.04817 0.0
C398 C 0.25992 0.01259 0.03388 0.0
C399 C 0.2992 0.03211 0.02378 0.0
C400 C 0.35212 0.07803 0.02604 0.0
C401 C 0.36462 0.10417 0.03815 0.0
C402 C 0.20285 0.96418 0.03187 0.0
C403 C 0.39555 0.09967 1.01564 0.0
C404 C 0.27697 0.93223 0.99642 0.0
C405 C 0.25402 0.94944 0.98672 0.0
C406 C 0.29279 0.95933 1.0084 0.0
C407 C 0.28486 1.00447 1.01086 0.0
C408 C 0.26238 0.02255 1.00103 0.0
C409 C 0.2476 0.99508 0.98906 0.0
C410 C 0.31742 0.9392 1.01848 0.0
C411 C 0.25268 0.07009 1.00327 0.0
H412 H 0.24339 0.02469 0.05358 0.0
H413 H 0.40502 0.13943 0.03984 0.0
H414 H 0.18208 0.97305 0.02388 0.0
H415 H 0.20537 0.92745 0.02903 0.0
H416 H 0.177 0.95415 0.04066 0.0
H417 H 0.43507 0.13494 0.01902 0.0
H418 H 0.40319 0.06657 1.0123 0.0
H419 H 0.38092 0.11301 1.00718 0.0
H420 H 0.28256 0.89737 0.99462 0.0
H421 H 0.22924 0.00814 0.98169 0.0
H422 H 0.29047 0.92475 0.0271 0.0
H423 H 0.358 0.97338 0.02164 0.0
H424 H 0.32292 0.90503 1.01489 0.0
H425 H 0.22355 0.06043 1.0114 0.0
H426 H 0.23565 0.07966 0.99461 0.0
H427 H 0.29177 0.10733 1.00602 0.0
C428 C 0.26246 0.2895 0.38065 0.0
C429 C 0.2187 0.29957 0.38241 0.0
C430 C 0.27699 0.28046 0.36825 0.0
C431 C 0.24707 0.2814 0.35731 0.0
C432 C 0.20193 0.28999 0.35907 0.0
C433 C 0.18832 0.29884 0.37154 0.0
C434 C 0.32544 0.27151 0.36682 0.0
C435 C 0.16875 0.29123 0.34772 0.0
C436 C 0.32153 0.32291 0.32504 0.0
C437 C 0.30184 0.27222 0.31874 0.0
C438 C 0.30397 0.32628 0.33751 0.0
C439 C 0.26543 0.27773 0.34396 0.0
C440 C 0.24435 0.22639 0.33758 0.0
C441 C 0.26268 0.22424 0.32503 0.0
C442 C 0.32711 0.38198 0.34383 0.0
C443 C 0.20316 0.17368 0.34409 0.0
H444 H 0.28633 0.29013 0.38893 0.0
H445 H 0.1536 0.30519 0.37275 0.0
H446 H 0.31342 0.23367 0.36115 0.0
H447 H 0.35881 0.30637 0.36144 0.0
H448 H 0.34196 0.26795 0.3763 0.0
H449 H 0.13292 0.29514 0.35075 0.0
H450 H 0.19526 0.32643 0.34137 0.0
H451 H 0.15361 0.25327 0.34188 0.0
H452 H 0.35101 0.36028 0.32019 0.0
H453 H 0.24761 0.18492 0.3203 0.0
H454 H 0.34841 0.38296 0.35293 0.0
H455 H 0.29324 0.3898 0.34636 0.0
H456 H 0.35669 0.41581 0.33751 0.0
H457 H 0.22142 0.16766 0.35301 0.0
H458 H 0.18978 0.13727 0.33776 0.0
H459 H 0.16638 0.17603 0.34701 0.0
C460 C 0.9717 0.22641 0.71472 0.0
C461 C 0.92174 0.22538 0.71675 0.0
C462 C 0.99819 0.24102 0.70264 0.0
C463 C 0.97438 0.25526 0.69235 0.0
C464 C 0.92417 0.25462 0.69439 0.0
C465 C 0.89857 0.2397 0.70652 0.0
C466 C 0.05157 0.24104 0.70087 0.0
C467 C 0.89756 0.27006 0.68377 0.0
C468 C 0.06188 0.3458 0.66472 0.0
C469 C 0.04804 0.3079 0.65458 0.0
C470 C 0.03962 0.32899 0.67712 0.0
C471 C 1.00252 0.2727 0.67955 0.0
C472 C 0.98988 0.23386 0.66951 0.0
C473 C 0.01282 0.2519 0.65716 0.0
C474 C 0.05456 0.37182 0.68752 0.0
C475 C 0.95063 0.17345 0.6717 0.0
H476 H 0.98956 0.21472 0.72249 0.0
H477 H 0.86044 0.23978 0.70804 0.0
H478 H 0.04733 0.21278 0.69291 0.0
H479 H 0.08473 0.28272 0.6981 0.0
H480 H 0.06438 0.22828 0.70975 0.0
H481 H 0.85799 0.26651 0.68683 0.0
H482 H 0.92574 0.31298 0.68065 0.0
H483 H 0.88976 0.24323 0.67525 0.0
H484 H 0.09 0.38898 0.66294 0.0
H485 H 1.00168 0.22236 0.6494 0.0
H486 H 0.07009 0.36074 0.6962 0.0
H487 H 0.01737 0.37339 0.69046 0.0
H488 H 0.08636 0.41347 0.68429 0.0
H489 H 0.96339 0.15896 0.68028 0.0
H490 H 0.94834 0.14807 0.66325 0.0
H491 H 0.90882 0.16666 0.67365 0.0
C492 C 0.73623 0.09295 0.99979 0.0
C493 C 0.76397 0.08384 0.98968 0.0
C494 C 0.72092 0.06073 1.01102 0.0
C495 C 0.73346 0.01802 1.01224 0.0
C496 C 0.76022 0.0076 1.00194 0.0
C497 C 0.77507 0.04056 0.99078 0.0
C498 C 0.69207 0.07303 0.02169 0.0
C499 C 0.77421 0.96238 1.00283 0.0
C500 C 0.74259 0.97085 0.04621 0.0
C501 C 0.69139 0.92264 0.04749 0.0
C502 C 0.75688 1.00209 0.03479 0.0
C503 C 0.71913 0.98484 0.02436 0.0
C504 C 0.66725 0.9365 0.02563 0.0
C505 C 0.65403 0.90613 0.03715 0.0
C506 C 0.81259 0.05343 0.03386 0.0
C507 C 0.62564 0.91679 1.01479 0.0
H508 H 0.72661 0.12563 0.99894 0.0
H509 H 0.79691 0.03353 0.98309 0.0
H510 H 0.65223 0.0358 0.02396 0.0
H511 H 0.71744 0.08471 0.0306 0.0
H512 H 0.68416 0.10685 0.01914 0.0
H513 H 0.79349 0.95838 0.99385 0.0
H514 H 0.80297 0.97067 1.01099 0.0
H515 H 0.73651 0.92252 1.0048 0.0
H516 H 0.77209 0.98361 0.05403 0.0
H517 H 0.61412 0.86944 0.03807 0.0
H518 H 0.80755 0.08952 0.03197 0.0
H519 H 0.83591 0.04991 0.02564 0.0
H520 H 0.83733 0.06124 0.0428 0.0
H521 H 0.61472 0.94869 1.01246 0.0
H522 H 0.58735 0.87806 1.01724 0.0
H523 H 0.64363 0.90986 1.00596 0.0
C524 C 0.77114 0.7732 0.321 0.0
C525 C 0.71548 0.751 0.31763 0.0
C526 C 0.7866 0.76556 0.33344 0.0
C527 C 0.74549 0.73432 0.34269 0.0
C528 C 0.6895 0.71367 0.3395 0.0
C529 C 0.67534 0.72275 0.32713 0.0
C530 C 0.84684 0.78928 0.33654 0.0
C531 C 0.64417 0.67977 0.34899 0.0
C532 C 0.771 0.65189 0.36803 0.0
C533 C 0.77548 0.68073 0.37949 0.0
C534 C 0.76268 0.66972 0.35603 0.0
C535 C 0.76001 0.71856 0.35525 0.0
C536 C 0.76691 0.74941 0.36662 0.0
C537 C 0.77403 0.72994 0.37859 0.0
C538 C 0.75495 0.63509 0.3442 0.0
C539 C 0.76538 0.80231 0.36617 0.0
H540 H 0.80264 0.79514 0.31383 0.0
H541 H 0.63234 0.70684 0.32489 0.0
H542 H 0.85688 0.81097 0.34595 0.0
H543 H 0.85639 0.75558 0.33736 0.0
H544 H 0.87378 0.81838 0.329 0.0
H545 H 0.60282 0.66883 0.34524 0.0
H546 H 0.64438 0.64124 0.3512 0.0
H547 H 0.65117 0.70246 0.35819 0.0
H548 H 0.77357 0.61482 0.36833 0.0
H549 H 0.77737 0.75294 0.38724 0.0
H550 H 0.7851 0.66016 0.33666 0.0
H551 H 0.71323 0.62008 0.34012 0.0
H552 H 0.75981 0.59902 0.34635 0.0
H553 H 0.7929 0.8295 0.35846 0.0
H554 H 0.77794 0.8248 0.3755 0.0
H555 H 0.72308 0.79329 0.36384 0.0
C556 C 0.04005 0.77787 0.71214 0.0
C557 C 0.0788 0.76089 0.71415 0.0
C558 C 0.01157 0.76778 0.70032 0.0
C559 C 0.02206 0.74008 0.69026 0.0
C560 C 0.0605 0.72218 0.69232 0.0
C561 C 0.0881 0.7326 0.7042 0.0
C562 C 0.97071 0.78727 0.69855 0.0
C563 C 0.07276 0.69214 0.68193 0.0
C564 C 0.91933 0.66412 0.66335 0.0
C565 C 0.94312 0.6997 0.65281 0.0
C566 C 0.94317 0.67786 0.6757 0.0
C567 C 0.99235 0.72849 0.67763 0.0
C568 C 0.01538 0.76569 0.66716 0.0
C569 C 0.99037 0.75094 0.65489 0.0
C570 C 0.9168 0.63716 0.68656 0.0
C571 C 0.06782 0.82001 0.66878 0.0
H572 H 0.03296 0.80026 0.71968 0.0
H573 H 0.11715 0.71843 0.7057 0.0
H574 H 0.98374 0.81691 0.69044 0.0
H575 H 0.92974 0.75209 0.69601 0.0
H576 H 0.9665 0.80738 0.70736 0.0
H577 H 0.10432 0.68162 0.68499 0.0
H578 H 0.03463 0.65363 0.67931 0.0
H579 H 0.08755 0.7178 0.67311 0.0
H580 H 0.88218 0.62494 0.6619 0.0
H581 H 1.00911 0.77853 0.64681 0.0
H582 H 0.91114 0.65756 0.69511 0.0
H583 H 0.94417 0.62115 0.68951 0.0
H584 H 0.87621 0.60182 0.68378 0.0
H585 H 0.06455 0.84264 0.67718 0.0
H586 H 0.07779 0.84634 0.66007 0.0
H587 H 0.10251 0.81266 0.67072 0.0
C588 C 0.61052 0.97689 0.10417 0.0
C589 C 0.58441 0.92055 0.10134 0.0
C590 C 0.57974 1.0042 0.10533 0.0
C591 C 0.52159 0.97458 0.10361 0.0
C592 C 0.49511 0.91718 0.10154 0.0
C593 C 0.52658 0.89115 0.10048 0.0
C594 C 0.60975 0.0653 0.10773 0.0
C595 C 0.43359 0.88351 0.09957 0.0
C596 C 0.4281 0.0354 0.11094 0.0
C597 C 0.42394 0.0547 0.09874 0.0
C598 C 0.46073 0.01041 0.11281 0.0
C599 C 0.48907 1.00376 0.10222 0.0
C600 C 0.4836 0.02211 0.08986 0.0
C601 C 0.45177 0.04759 0.08834 0.0
C602 C 0.46584 0.99215 0.12617 0.0
C603 C 0.51145 0.01485 0.07818 0.0
H604 H 0.655 1.00008 0.10488 0.0
H605 H 0.50554 0.84741 0.09851 0.0
H606 H 0.60959 0.0869 0.09879 0.0
H607 H 0.58859 0.0757 0.11532 0.0
H608 H 0.65315 0.081 0.11071 0.0
H609 H 0.41857 0.83868 0.09936 0.0
H610 H 0.41165 0.89188 0.10734 0.0
H611 H 0.42246 0.8952 0.09029 0.0
H612 H 0.40772 0.04177 0.11907 0.0
H613 H 0.44892 0.06252 0.07888 0.0
H614 H 0.50969 0.01394 0.12917 0.0
H615 H 0.45167 0.94756 0.12617 0.0
H616 H 0.44161 1.00026 0.1334 0.0
H617 H 0.55658 0.03591 0.07974 0.0
H618 H 0.50322 0.03144 0.06925 0.0
H619 H 0.49697 0.97058 0.07667 0.0
C620 C 0.37796 0.46273 0.43878 0.0
C621 C 0.35455 0.40618 0.43636 0.0
C622 C 0.43511 0.49724 0.4403 0.0
C623 C 0.47056 0.47524 0.43907 0.0
C624 C 0.44697 0.4176 0.43721 0.0
C625 C 0.3892 0.38366 0.436 0.0
C626 C 0.45771 0.55787 0.44255 0.0
C627 C 0.48297 0.39224 0.43573 0.0
C628 C 0.61454 0.56751 0.42532 0.0
C629 C 0.64848 0.57908 0.43618 0.0
C630 C 0.55689 0.53514 0.42623 0.0
C631 C 0.53196 0.51319 0.43832 0.0
C632 C 0.56596 0.52697 0.44946 0.0
C633 C 0.62385 0.55931 0.44823 0.0
C634 C 0.52287 0.522 0.41407 0.0
C635 C 0.54142 0.50532 0.46256 0.0
H636 H 0.35141 0.48046 0.43913 0.0
H637 H 0.37154 0.34019 0.434 0.0
H638 H 0.48819 0.57276 0.45053 0.0
H639 H 0.47933 0.5811 0.43375 0.0
H640 H 0.4248 0.56743 0.44491 0.0
H641 H 0.45864 0.34664 0.43544 0.0
H642 H 0.50694 0.4071 0.42666 0.0
H643 H 0.51292 0.40504 0.44379 0.0
H644 H 0.6335 0.58122 0.41593 0.0
H645 H 0.64993 0.56639 0.45658 0.0
H646 H 0.4908 0.53373 0.41521 0.0
H647 H 0.50146 0.47708 0.41223 0.0
H648 H 0.54824 0.54357 0.40549 0.0
H649 H 0.50681 0.51281 0.46444 0.0
H650 H 0.5723 0.5245 0.47041 0.0
H651 H 0.52455 0.46023 0.46285 0.0
C652 C 0.02631 0.61925 0.77132 0.0
C653 C 0.0839 0.65081 0.77097 0.0
C654 C 0.99944 0.56123 0.77245 0.0
C655 C 0.03086 0.53426 0.77324 0.0
C656 C 0.0889 0.56664 0.7739 0.0
C657 C 0.11443 0.62407 0.77277 0.0
C658 C 0.93748 0.52857 0.77193 0.0
C659 C 0.12452 0.5405 0.7747 0.0
C660 C 0.96544 0.37914 0.77999 0.0
C661 C 0.95686 0.35767 0.76744 0.0
C662 C 0.98864 0.43635 0.78211 0.0
C663 C 1.00438 0.47296 0.77144 0.0
C664 C 0.99715 0.45117 0.7588 0.0
C665 C 0.97305 0.39414 0.75698 0.0
C666 C 0.99475 0.45747 0.79574 0.0
C667 C 0.01445 0.48811 0.74709 0.0
H668 H 1.00234 0.63935 0.76986 0.0
H669 H 0.15901 0.64811 0.77264 0.0
H670 H 0.9242 0.50834 0.76237 0.0
H671 H 0.92128 0.49574 0.77935 0.0
H672 H 0.91887 0.55496 0.77341 0.0
H673 H 0.16826 0.57113 0.77673 0.0
H674 H 0.10941 0.5086 0.78233 0.0
H675 H 0.12246 0.51994 0.76541 0.0
H676 H 0.95171 0.35106 0.78811 0.0
H677 H 0.96604 0.37773 0.74725 0.0
H678 H 0.96909 0.47695 0.79703 0.0
H679 H 0.03804 0.48955 0.79762 0.0
H680 H 0.98221 0.42425 0.803 0.0
H681 H 0.99172 0.51096 0.74678 0.0
H682 H 1.00677 0.46485 0.73793 0.0
H683 H 0.05895 0.51892 0.7477 0.0
C684 C 0.05716 0.43399 0.58867 0.0
C685 C 0.01906 0.38528 0.59497 0.0
C686 C 0.04692 0.47802 0.58694 0.0
C687 C 0.99753 0.47377 0.59168 0.0
C688 C 0.95859 0.42435 0.59783 0.0
C689 C 0.96966 0.38096 0.59934 0.0
C690 C 0.08935 0.52945 0.5802 0.0
C691 C 0.90534 0.41755 0.60307 0.0
C692 C 0.9784 0.59612 0.59992 0.0
C693 C 0.94307 0.59341 0.59001 0.0
C694 C 0.99967 0.5599 0.60017 0.0
C695 C 0.98561 0.52022 0.59022 0.0
C696 C 0.95383 0.52083 0.57964 0.0
C697 C 0.93251 0.55681 0.57975 0.0
C698 C 0.03312 0.56091 0.61167 0.0
C699 C 0.93833 0.48028 0.5687 0.0
H700 H 0.09559 0.43822 0.58528 0.0
H701 H 0.93987 0.34393 0.60427 0.0
H702 H 0.07031 0.53873 0.57191 0.0
H703 H 0.10505 0.5649 0.58691 0.0
H704 H 0.1247 0.52578 0.57665 0.0
H705 H 0.87946 0.37683 0.60767 0.0
H706 H 0.9142 0.45004 0.61031 0.0
H707 H 0.88133 0.42232 0.59517 0.0
H708 H 0.98539 0.62304 0.60807 0.0
H709 H 0.90429 0.55369 0.5722 0.0
H710 H 0.06974 0.55871 0.60855 0.0
H711 H 1.0078 0.52445 0.6178 0.0
H712 H 0.04692 0.59845 0.61763 0.0
H713 H 0.97456 0.47766 0.56543 0.0
H714 H 0.92112 0.49147 0.56034 0.0
H715 H 0.90691 0.43882 0.57208 0.0
C716 C 0.63686 0.06915 0.92536 0.0
C717 C 0.65771 0.08306 0.93795 0.0
C718 C 0.57951 0.04391 0.92295 0.0
C719 C 0.54231 0.03205 0.93338 0.0
C720 C 0.56351 0.04448 0.94611 0.0
C721 C 0.62053 0.06992 0.94819 0.0
C722 C 0.55886 0.03158 0.90924 0.0
C723 C 0.526 0.03182 0.9576 0.0
C724 C 0.39621 0.01052 0.93127 0.0
C725 C 0.36421 0.95351 0.93301 0.0
C726 C 0.45434 0.0366 0.93046 0.0
C727 C 0.48102 1.00495 0.93133 0.0
C728 C 0.44832 0.94707 0.93213 0.0
C729 C 0.39078 0.92231 0.93299 0.0
C730 C 0.48737 0.09836 0.92949 0.0
C731 C 0.47422 0.91127 0.93305 0.0
H732 H 0.6654 0.08033 0.91737 0.0
H733 H 0.63641 0.08088 0.95794 0.0
H734 H 0.52649 0.9878 0.90827 0.0
H735 H 0.53984 0.05666 0.90663 0.0
H736 H 0.59235 0.04048 0.90227 0.0
H737 H 0.54892 0.04362 0.96688 0.0
H738 H 0.50276 0.05404 0.95673 0.0
H739 H 0.49547 0.98723 0.9579 0.0
H740 H 0.37625 0.03503 0.93129 0.0
H741 H 0.36651 0.8781 0.93414 0.0
H742 H 0.51996 0.11102 0.92207 0.0
H743 H 0.50805 0.1157 0.93885 0.0
H744 H 0.46117 0.1164 0.92706 0.0
H745 H 0.50641 0.9229 0.92558 0.0
H746 H 0.44343 0.86695 0.93194 0.0
H747 H 0.49444 0.91736 0.9426 0.0
C748 C 0.46926 0.39262 0.24497 0.0
C749 C 0.42814 0.37056 0.25444 0.0
C750 C 0.50189 0.44969 0.24315 0.0
C751 C 0.49395 0.48586 0.25118 0.0
C752 C 0.44992 0.46366 0.26019 0.0
C753 C 0.41742 0.40619 0.26169 0.0
C754 C 0.54745 0.47117 0.23328 0.0
C755 C 0.43976 0.5006 0.26893 0.0
C756 C 0.61474 0.62826 0.25935 0.0
C757 C 0.60181 0.66241 0.25212 0.0
C758 C 0.581 0.57057 0.25881 0.0
C759 C 0.53358 0.54655 0.25075 0.0
C760 C 0.52282 0.58095 0.24277 0.0
C761 C 0.55676 0.63829 0.24363 0.0
C762 C 0.59419 0.53549 0.26745 0.0
C763 C 0.4736 0.55741 0.23387 0.0
H764 H 0.47846 0.36516 0.23956 0.0
H765 H 0.38691 0.38941 0.2693 0.0
H766 H 0.54746 0.50421 0.22742 0.0
H767 H 0.58778 0.48922 0.23828 0.0
H768 H 0.5437 0.43824 0.22671 0.0
H769 H 0.4015 0.47734 0.27467 0.0
H770 H 0.47496 0.52233 0.27567 0.0
H771 H 0.43679 0.53234 0.26319 0.0
H772 H 0.64872 0.64662 0.26613 0.0
H773 H 0.54633 0.66459 0.23809 0.0
H774 H 0.59558 0.50282 0.26174 0.0
H775 H 0.56124 0.51488 0.27476 0.0
H776 H 0.63414 0.55993 0.27253 0.0
H777 H 0.47182 0.5236 0.22798 0.0
H778 H 0.47435 0.58899 0.2273 0.0
H779 H 0.43531 0.53979 0.23967 0.0
C780 C 0.30399 0.17558 0.21282 0.0
C781 C 0.31484 0.14045 0.2203 0.0
C782 C 0.30387 0.17331 0.19923 0.0
C783 C 0.31485 0.13499 0.19293 0.0
C784 C 0.32814 0.10114 0.20043 0.0
C785 C 0.32813 0.10439 0.21396 0.0
C786 C 0.28975 0.21037 0.19161 0.0
C787 C 0.34025 0.0598 0.19418 0.0
C788 C 0.2469 0.08105 0.16029 0.0
C789 C 0.29019 0.11088 0.15163 0.0
C790 C 0.25467 0.08819 0.17368 0.0
C791 C 0.30717 0.12641 0.17865 0.0
C792 C 0.35159 0.15574 0.16998 0.0
C793 C 0.34263 0.14744 0.15656 0.0
C794 C 0.20627 0.05535 0.1825 0.0
C795 C 0.40815 0.19692 0.17488 0.0
H796 H 0.29365 0.20351 0.21758 0.0
H797 H 0.33808 0.07807 0.21958 0.0
H798 H 0.32079 0.23197 0.18395 0.0
H799 H 0.24937 0.1853 0.18678 0.0
H800 H 0.28753 0.24144 0.19781 0.0
H801 H 0.35419 0.03969 0.20127 0.0
H802 H 0.30264 0.02753 0.18932 0.0
H803 H 0.37239 0.07992 0.18667 0.0
H804 H 0.20646 0.05237 0.15652 0.0
H805 H 0.37604 0.17107 0.14991 0.0
H806 H 0.19766 0.08353 0.18823 0.0
H807 H 0.21606 0.03129 0.18941 0.0
H808 H 0.1684 0.02658 0.17711 0.0
H809 H 0.40643 0.23079 0.17995 0.0
H810 H 0.43879 0.21474 0.16696 0.0
H811 H 0.42253 0.17729 0.18197 0.0
C812 C 0.11061 0.23222 0.49404 0.0
C813 C 0.15777 0.26187 0.48637 0.0
C814 C 0.11141 0.24169 0.50734 0.0
C815 C 0.16045 0.28238 0.51326 0.0
C816 C 0.20761 0.31431 0.50552 0.0
C817 C 0.20574 0.30366 0.49217 0.0
C818 C 0.06012 0.20661 0.51516 0.0
C819 C 0.26059 0.35844 0.51143 0.0
C820 C 0.14713 0.32447 0.54756 0.0
C821 C 0.1627 0.29269 0.55497 0.0
C822 C 0.14756 0.32279 0.53396 0.0
C823 C 0.1632 0.28795 0.52764 0.0
C824 C 0.17858 0.25559 0.53511 0.0
C825 C 0.17832 0.25852 0.54862 0.0
C826 C 0.1313 0.35826 0.52636 0.0
C827 C 0.19456 0.21709 0.52882 0.0
H828 H 0.07276 0.20102 0.48965 0.0
H829 H 0.24228 0.32687 0.48636 0.0
H830 H 0.06799 0.18122 0.52209 0.0
H831 H 0.04893 0.23294 0.52087 0.0
H832 H 0.02445 0.17878 0.50901 0.0
H833 H 0.29174 0.38318 0.504 0.0
H834 H 0.2527 0.38635 0.51747 0.0
H835 H 0.278 0.3393 0.51783 0.0
H836 H 0.13569 0.35143 0.5524 0.0
H837 H 0.1897 0.23332 0.55428 0.0
H838 H 0.09425 0.332 0.52046 0.0
H839 H 0.16475 0.38485 0.5196 0.0
H840 H 0.12233 0.38472 0.53269 0.0
H841 H 0.15948 0.18563 0.52309 0.0
H842 H 0.20681 0.19578 0.53599 0.0
H843 H 0.2293 0.24016 0.52207 0.0
C844 C 0.84023 0.11161 0.82709 0.0
C845 C 0.87429 0.15973 0.82014 0.0
C846 C 0.83274 0.11293 0.84044 0.0
C847 C 0.86031 0.16366 0.8471 0.0
C848 C 0.89185 0.2129 0.83999 0.0
C849 C 0.89825 0.21036 0.82655 0.0
C850 C 0.79824 0.05945 0.84752 0.0
C851 C 0.92185 0.26787 0.84669 0.0
C852 C 0.82618 0.16743 0.88273 0.0
C853 C 0.86817 0.16252 0.88883 0.0
C854 C 0.82301 0.16827 0.86914 0.0
C855 C 0.86263 0.16392 0.86152 0.0
C856 C 0.90429 0.15781 0.86769 0.0
C857 C 0.90637 0.15702 0.88119 0.0
C858 C 0.77781 0.17454 0.86293 0.0
C859 C 0.94703 0.15228 0.86002 0.0
H860 H 0.8206 0.07248 0.8221 0.0
H861 H 0.92445 0.24756 0.8212 0.0
H862 H 0.82549 0.04948 0.85327 0.0
H863 H 0.76979 0.06305 0.85434 0.0
H864 H 0.77375 0.02476 0.84081 0.0
H865 H 0.93822 0.30259 0.83974 0.0
H866 H 0.89423 0.27241 0.8536 0.0
H867 H 0.95681 0.27054 0.85231 0.0
H868 H 0.79685 0.17218 0.88857 0.0
H869 H 0.93833 0.15223 0.88582 0.0
H870 H 0.7536 0.1398 0.85624 0.0
H871 H 0.79602 0.21277 0.85712 0.0
H872 H 0.74946 0.17612 0.87016 0.0
H873 H 0.92668 0.11531 0.85377 0.0
H874 H 0.97727 0.14881 0.86629 0.0
H875 H 0.96966 0.18842 0.85362 0.0
C876 C 0.79362 0.90775 0.1564 0.0
C877 C 0.74558 0.88527 0.14889 0.0
C878 C 0.79149 0.90872 0.16992 0.0
C879 C 0.73988 0.88618 0.17617 0.0
C880 C 0.69116 0.86457 0.16864 0.0
C881 C 0.69462 0.86468 0.15507 0.0
C882 C 0.84454 0.93303 0.17751 0.0
C883 C 0.63533 0.83987 0.17493 0.0
C884 C 0.73856 0.8423 0.21107 0.0
C885 C 0.74296 0.88733 0.21797 0.0
C886 C 0.73559 0.8405 0.1975 0.0
C887 C 0.73745 0.88495 0.19059 0.0
C888 C 0.74075 0.92994 0.19749 0.0
C889 C 0.74317 0.93046 0.21104 0.0
C890 C 0.73186 0.79159 0.19052 0.0
C891 C 0.74305 0.97828 0.19054 0.0
H892 H 0.83311 0.92424 0.15165 0.0
H893 H 0.6574 0.84672 0.1493 0.0
H894 H 0.84781 0.96595 0.18399 0.0
H895 H 0.84486 0.90095 0.18368 0.0
H896 H 0.88135 0.95053 0.17117 0.0
H897 H 0.60162 0.82675 0.16775 0.0
H898 H 0.62779 0.80365 0.18076 0.0
H899 H 0.63392 0.86996 0.18161 0.0
H900 H 0.73866 0.80888 0.21623 0.0
H901 H 0.7452 0.96492 0.21618 0.0
H902 H 0.76979 0.80471 0.18479 0.0
H903 H 0.69673 0.77435 0.18367 0.0
H904 H 0.7267 0.75862 0.19726 0.0
H905 H 0.78087 0.99897 0.18458 0.0
H906 H 0.74302 0.00893 0.1973 0.0
H907 H 0.70744 0.96404 0.1839 0.0
C908 C 0.91247 0.75772 0.4895 0.0
C909 C 0.86677 0.71994 0.48222 0.0
C910 C 0.91048 0.75959 0.503 0.0
C911 C 0.86124 0.72327 0.50953 0.0
C912 C 0.81429 0.68607 0.50227 0.0
C913 C 0.81761 0.68478 0.4887 0.0
C914 C 0.96147 0.80011 0.5103 0.0
C915 C 0.76081 0.64712 0.50885 0.0
C916 C 0.87408 0.69663 0.54518 0.0
C917 C 0.86068 0.73298 0.55129 0.0
C918 C 0.87365 0.69242 0.53162 0.0
C919 C 0.85919 0.72507 0.52395 0.0
C920 C 0.84563 0.76176 0.53005 0.0
C921 C 0.84692 0.76553 0.54358 0.0
C922 C 0.88895 0.65319 0.5255 0.0
C923 C 0.83014 0.79749 0.52228 0.0
H924 H 0.95029 0.78594 0.48461 0.0
H925 H 0.78223 0.65526 0.4832 0.0
H926 H 0.95277 0.82809 0.51608 0.0
H927 H 0.97391 0.77789 0.51713 0.0
H928 H 0.99664 0.82532 0.50378 0.0
H929 H 0.72768 0.62175 0.50185 0.0
H930 H 0.76696 0.61934 0.51537 0.0
H931 H 0.74703 0.67054 0.5149 0.0
H932 H 0.88411 0.67078 0.55097 0.0
H933 H 0.83744 0.79449 0.5481 0.0
H934 H 0.92561 0.67625 0.51926 0.0
H935 H 0.8549 0.62352 0.51924 0.0
H936 H 0.89819 0.62991 0.53278 0.0
H937 H 0.86534 0.82619 0.51619 0.0
H938 H 0.81807 0.82193 0.52849 0.0
H939 H 0.79542 0.7717 0.5157 0.0
C940 C 0.18819 0.86895 0.87972 0.0
C941 C 0.16586 0.90076 0.88421 0.0
C942 C 0.1888 0.85837 0.86642 0.0
C943 C 0.16684 0.88037 0.85742 0.0
C944 C 0.14505 0.91314 0.86193 0.0
C945 C 0.14488 0.92288 0.87521 0.0
C946 C 0.21242 0.82329 0.86202 0.0
C947 C 0.12183 0.93809 0.85272 0.0
C948 C 0.21015 0.90805 0.82229 0.0
C949 C 0.16344 0.86712 0.81589 0.0
C950 C 0.21323 0.91072 0.83581 0.0
C951 C 0.16833 0.87154 0.84321 0.0
C952 C 0.12242 0.82798 0.83681 0.0
C953 C 0.12062 0.82616 0.8232 0.0
C954 C 0.26323 0.95756 0.84213 0.0
C955 C 0.07378 0.78522 0.84431 0.0
H956 H 0.2038 0.85111 0.88661 0.0
H957 H 0.12822 0.94805 0.87858 0.0
H958 H 0.18052 0.7867 0.85678 0.0
H959 H 0.24672 0.84668 0.85518 0.0
H960 H 0.22793 0.80926 0.8702 0.0
H961 H 0.1055 0.96174 0.8578 0.0
H962 H 0.15424 0.96601 0.8459 0.0
H963 H 0.08815 0.9053 0.84692 0.0
H964 H 0.24387 0.93916 0.81666 0.0
H965 H 0.08452 0.79452 0.81828 0.0
H966 H 0.2787 0.94208 0.84999 0.0
H967 H 0.25182 0.98648 0.84652 0.0
H968 H 0.29711 0.98068 0.83514 0.0
H969 H 0.08771 0.76889 0.85231 0.0
H970 H 0.04471 0.75046 0.83811 0.0
H971 H 0.05133 0.80437 0.84868 0.0
C972 C 0.5757 0.61943 0.12603 0.0
C973 C 0.55754 0.63313 0.11478 0.0
C974 C 0.55867 0.56431 0.1289 0.0
C975 C 0.52291 0.52248 0.12028 0.0
C976 C 0.50218 0.53628 0.10929 0.0
C977 C 0.52012 0.59157 0.10663 0.0
C978 C 0.58159 0.5513 0.1407 0.0
C979 C 0.46336 0.49292 0.09992 0.0
C980 C 0.51813 0.38765 0.11417 0.0
C981 C 0.46636 0.35075 0.11922 0.0
C982 C 0.54 0.44458 0.11556 0.0
C983 C 0.50909 0.46447 0.12211 0.0
C984 C 0.45974 0.42708 0.12843 0.0
C985 C 0.4389 0.37053 0.12689 0.0
C986 C 0.59332 0.48321 0.10887 0.0
C987 C 0.42591 0.44645 0.13566 0.0
H988 H 0.60566 0.652 0.13215 0.0
H989 H 0.50698 0.60264 0.09784 0.0
H990 H 0.54877 0.51539 0.14592 0.0
H991 H 0.61291 0.54048 0.1377 0.0
H992 H 0.60131 0.58676 0.14744 0.0
H993 H 0.44847 0.5102 0.09231 0.0
H994 H 0.48456 0.47323 0.09518 0.0
H995 H 0.42723 0.4603 0.10512 0.0
H996 H 0.53918 0.37226 0.10821 0.0
H997 H 0.39888 0.34172 0.13085 0.0
H998 H 0.61989 0.51858 0.11518 0.0
H999 H 0.5844 0.49974 0.10004 0.0
H1000 H 0.6164 0.46228 0.10602 0.0
H1001 H 0.45257 0.48302 0.14165 0.0
H1002 H 0.3948 0.41375 0.14198 0.0
H1003 H 0.40401 0.45855 0.12863 0.0
C1004 C 0.10276 0.47544 0.4485 0.0
C1005 C 0.08712 0.42318 0.45333 0.0
C1006 C 0.06691 0.49659 0.44932 0.0
C1007 C 0.01448 0.46447 0.45509 0.0
C1008 C 1.00123 0.41442 0.46122 0.0
C1009 C 0.03786 0.39439 0.46028 0.0
C1010 C 0.08297 0.55075 0.4429 0.0
C1011 C 0.94617 0.37928 0.46761 0.0
C1012 C 0.92441 0.52954 0.45795 0.0
C1013 C 0.89586 0.5136 0.44619 0.0
C1014 C 0.96198 0.51235 0.46129 0.0
C1015 C 0.97063 0.47832 0.45268 0.0
C1016 C 0.93919 0.45945 0.44118 0.0
C1017 C 0.90242 0.47764 0.43805 0.0
C1018 C 0.99471 0.53335 0.47361 0.0
C1019 C 0.9464 0.42227 0.43184 0.0
H1020 H 0.14086 0.49774 0.44314 0.0
H1021 H 0.02619 0.35425 0.46421 0.0
H1022 H 0.05979 0.54305 0.43373 0.0
H1023 H 0.07228 0.57617 0.44912 0.0
H1024 H 0.12767 0.57443 0.4407 0.0
H1025 H 0.94621 0.34722 0.47388 0.0
H1026 H 0.93445 0.40476 0.4735 0.0
H1027 H 0.91413 0.35855 0.46008 0.0
H1028 H 0.91988 0.55813 0.46414 0.0
H1029 H 0.88035 0.4656 0.42895 0.0
H1030 H 0.03756 0.56522 0.47125 0.0
H1031 H 0.99667 0.49983 0.47879 0.0
H1032 H 0.97705 0.5518 0.48016 0.0
H1033 H 0.98848 0.44428 0.42771 0.0
H1034 H 0.91623 0.40853 0.42378 0.0
H1035 H 0.94173 0.38545 0.43692 0.0
C1036 C 0.38802 0.94422 0.79152 0.0
C1037 C 0.37721 0.9123 0.78037 0.0
C1038 C 0.44219 0.98381 0.79484 0.0
C1039 C 0.48603 0.99101 0.7868 0.0
C1040 C 0.47516 0.95649 0.77591 0.0
C1041 C 0.42071 0.91788 0.77275 0.0
C1042 C 0.452 0.01996 0.80645 0.0
C1043 C 0.52083 0.96206 0.76721 0.0
C1044 C 0.62086 0.12128 0.78125 0.0
C1045 C 0.65722 0.10714 0.78696 0.0
C1046 C 0.56376 0.0862 0.7823 0.0
C1047 C 0.54323 0.03605 0.78916 0.0
C1048 C 0.57985 0.0252 0.79623 0.0
C1049 C 0.63657 0.06111 0.79508 0.0
C1050 C 0.52582 0.09989 0.77491 0.0
C1051 C 0.55976 0.97265 0.80377 0.0
H1052 H 0.35389 0.94038 0.79723 0.0
H1053 H 0.41183 0.89345 0.76405 0.0
H1054 H 0.48768 0.0249 0.81216 0.0
H1055 H 0.46174 0.06145 0.80318 0.0
H1056 H 0.41534 1.00328 0.81283 0.0
H1057 H 0.5057 0.92962 0.75966 0.0
H1058 H 0.54054 1.00272 0.76237 0.0
H1059 H 0.55302 0.95981 0.77296 0.0
H1060 H 0.63689 0.15693 0.77499 0.0
H1061 H 0.66496 0.05064 0.79962 0.0
H1062 H 0.48899 0.09039 0.78074 0.0
H1063 H 0.51145 0.07443 0.76604 0.0
H1064 H 0.54673 0.14387 0.77206 0.0
H1065 H 0.52185 0.96239 0.80922 0.0
H1066 H 0.59147 0.9753 0.81062 0.0
H1067 H 0.54958 0.93835 0.79696 0.0
C1068 C 0.61947 0.59519 0.59163 0.0
C1069 C 0.63535 0.56419 0.5992 0.0
C1070 C 0.56462 0.58329 0.59142 0.0
C1071 C 0.52477 0.53856 0.59873 0.0
C1072 C 0.54046 0.50597 0.60605 0.0
C1073 C 0.59592 0.51978 0.60636 0.0
C1074 C 0.54975 0.61973 0.58376 0.0
C1075 C 0.49887 0.45711 0.61372 0.0
C1076 C 0.39249 0.52996 0.61026 0.0
C1077 C 0.35445 0.49294 0.60137 0.0
C1078 C 0.44875 0.54768 0.60909 0.0
C1079 C 0.4668 0.52639 0.59902 0.0
C1080 C 0.42867 0.49053 0.58975 0.0
C1081 C 0.37293 0.47468 0.59097 0.0
C1082 C 0.48846 0.58718 0.61895 0.0
C1083 C 0.44606 0.46606 0.57904 0.0
H1084 H 0.65049 0.63019 0.58629 0.0
H1085 H 0.60865 0.49625 0.61226 0.0
H1086 H 0.51615 0.59483 0.57685 0.0
H1087 H 0.53432 0.64003 0.59038 0.0
H1088 H 0.58537 0.65196 0.57831 0.0
H1089 H 0.51714 0.43394 0.61818 0.0
H1090 H 0.48153 0.47104 0.62149 0.0
H1091 H 0.46418 0.42879 0.60741 0.0
H1092 H 0.37791 0.54364 0.61835 0.0
H1093 H 0.3432 0.4451 0.58425 0.0
H1094 H 0.52453 0.62143 0.6141 0.0
H1095 H 0.50398 0.56564 0.62514 0.0
H1096 H 0.46896 0.60462 0.62524 0.0
H1097 H 0.48151 0.4988 0.5737 0.0
H1098 H 0.41215 0.44204 0.5721 0.0
H1099 H 0.45963 0.43845 0.58324 0.0
C1100 C 0.03938 0.65121 0.9122 0.0
C1101 C 0.09091 0.66931 0.91796 0.0
C1102 C 1.00124 0.59505 0.91101 0.0
C1103 C 0.01512 0.55636 0.91574 0.0
C1104 C 0.06933 0.57447 0.92022 0.0
C1105 C 0.10679 0.63104 0.92128 0.0
C1106 C 0.94434 0.57754 0.90596 0.0
C1107 C 0.08598 0.53436 0.92516 0.0
C1108 C 0.9088 0.43148 0.93383 0.0
C1109 C 0.89825 0.38912 0.92519 0.0
C1110 C 0.94461 0.4864 0.93054 0.0
C1111 C 0.97094 0.49905 0.91834 0.0
C1112 C 0.95759 0.45657 0.90925 0.0
C1113 C 0.92117 0.40181 0.9128 0.0
C1114 C 0.95691 0.53053 0.94045 0.0
C1115 C 0.98453 0.4684 0.89616 0.0
H1116 H 0.02746 0.6811 0.90951 0.0
H1117 H 0.14665 0.64516 0.92573 0.0
H1118 H 0.929 0.54064 0.89973 0.0
H1119 H 0.91555 0.56666 0.9142 0.0
H1120 H 0.94347 0.61086 0.90038 0.0
H1121 H 0.13127 0.55396 0.92641 0.0
H1122 H 0.06616 0.51799 0.93463 0.0
H1123 H 0.07188 0.49902 0.91846 0.0
H1124 H 0.89122 0.42128 0.94343 0.0
H1125 H 0.91356 0.36873 0.90622 0.0
H1126 H 0.95137 0.56364 0.93618 0.0
H1127 H 1.00042 0.54932 0.94362 0.0
H1128 H 0.93008 0.51417 0.94908 0.0
H1129 H 0.98638 0.50531 0.89178 0.0
H1130 H 0.96244 0.4331 0.88946 0.0
H1131 H 0.02743 0.47691 0.89722 0.0
C1132 C 0.60276 0.97872 0.26667 0.0
C1133 C 0.57766 0.93054 0.27403 0.0
C1134 C 0.58595 0.01771 0.26772 0.0
C1135 C 0.54233 0.00757 0.27616 0.0
C1136 C 0.5171 0.95909 0.28371 0.0
C1137 C 0.53563 0.92124 0.28266 0.0
C1138 C 0.61437 0.06936 0.25967 0.0
C1139 C 0.46974 0.9466 0.29262 0.0
C1140 C 0.52168 0.12713 0.28486 0.0
C1141 C 0.48262 0.12111 0.27563 0.0
C1142 C 0.54161 0.09024 0.28521 0.0
C1143 C 0.52074 0.04597 0.27633 0.0
C1144 C 0.48044 0.0393 0.26718 0.0
C1145 C 0.4622 0.07729 0.26688 0.0
C1146 C 0.58538 0.09896 0.29493 0.0
C1147 C 0.4566 0.9921 0.2577 0.0
H1148 H 0.6361 0.98614 0.2602 0.0
H1149 H 0.5167 0.88397 0.28839 0.0
H1150 H 0.58491 0.06987 0.25261 0.0
H1151 H 0.62876 0.10615 0.26591 0.0
H1152 H 0.65018 0.07273 0.25431 0.0
H1153 H 0.45611 0.90814 0.29818 0.0
H1154 H 0.4816 0.98098 0.2995 0.0
H1155 H 0.43436 0.94244 0.28691 0.0
H1156 H 0.53696 0.16097 0.29165 0.0
H1157 H 0.43102 0.07217 0.25994 0.0
H1158 H 0.62283 0.10518 0.28984 0.0
H1159 H 0.57088 0.06195 0.30107 0.0
H1160 H 0.59674 0.13504 0.30124 0.0
H1161 H 0.48951 0.99501 0.25127 0.0
H1162 H 0.42365 0.99148 0.25163 0.0
H1163 H 0.43935 0.95244 0.26293 0.0
C1164 C 0.1309 0.06739 0.07842 0.0
C1165 C 0.15422 0.04564 0.08691 0.0
C1166 C 0.07421 0.04833 0.07828 0.0
C1167 C 0.03913 1.00546 0.08669 0.0
C1168 C 0.06187 0.98121 0.09486 0.0
C1169 C 0.1193 1.00178 0.09493 0.0
C1170 C 0.05215 0.07544 0.06939 0.0
C1171 C 0.02566 0.93457 0.10377 0.0
C1172 C 0.89744 0.98757 0.09447 0.0
C1173 C 0.86353 0.94542 0.08592 0.0
C1174 C 0.95482 0.00787 0.09481 0.0
C1175 C 0.97853 0.98507 0.08651 0.0
C1176 C 0.9445 0.94386 0.0776 0.0
C1177 C 0.88788 0.92507 0.07735 0.0
C1178 C 0.98991 0.05274 0.10426 0.0
C1179 C 0.96763 0.91832 0.06856 0.0
H1180 H 0.15755 0.10129 0.07216 0.0
H1181 H 0.13699 0.98533 0.10165 0.0
H1182 H 0.02073 0.04453 0.0628 0.0
H1183 H 0.03167 0.09342 0.07513 0.0
H1184 H 0.08499 0.10851 0.06347 0.0
H1185 H 0.04914 0.91876 0.10915 0.0
H1186 H 1.00556 0.94858 0.11082 0.0
H1187 H 0.99249 0.9003 0.09818 0.0
H1188 H 0.87897 1.00295 0.10125 0.0
H1189 H 0.86207 0.89253 0.07067 0.0
H1190 H 0.02364 0.08809 0.09909 0.0
H1191 H 1.00929 0.03744 0.1112 0.0
H1192 H 0.96576 0.06742 0.10975 0.0
H1193 H 0.99975 0.95035 0.06232 0.0
H1194 H 0.93551 0.88626 0.06227 0.0
H1195 H 0.98753 0.89943 0.0742 0.0
C1196 C 0.06955 0.09974 0.41172 0.0
C1197 C 0.11014 0.12539 0.42127 0.0
C1198 C 0.03347 0.04275 0.4117 0.0
C1199 C 0.03795 0.01005 0.42147 0.0
C1200 C 0.08094 0.0352 0.43073 0.0
C1201 C 0.11668 0.0927 0.43052 0.0
C1202 C 0.98893 0.01793 0.40154 0.0
C1203 C 0.08761 1.00169 0.44119 0.0
C1204 C 0.91024 0.87067 0.42869 0.0
C1205 C 0.92196 0.83476 0.42183 0.0
C1206 C 0.9477 0.92788 0.42873 0.0
C1207 C 0.99795 0.94951 0.42178 0.0
C1208 C 1.00919 0.91341 0.41466 0.0
C1209 C 0.97117 0.85688 0.41473 0.0
C1210 C 0.93391 0.96516 0.43633 0.0
C1211 C 0.06182 0.93439 0.40705 0.0
H1212 H 0.06417 0.12486 0.40458 0.0
H1213 H 0.14723 0.11231 0.43806 0.0
H1214 H 0.99091 0.98441 0.39638 0.0
H1215 H 0.94792 0.99957 0.4062 0.0
H1216 H 0.99222 0.04875 0.39435 0.0
H1217 H 0.12467 0.02671 0.44723 0.0
H1218 H 0.05081 0.98351 0.44751 0.0
H1219 H 0.09068 0.96717 0.43689 0.0
H1220 H 0.8727 0.854 0.43429 0.0
H1221 H 0.98073 0.8297 0.40933 0.0
H1222 H 0.93342 0.99631 0.42984 0.0
H1223 H 0.96606 0.98767 0.44373 0.0
H1224 H 0.89333 0.94219 0.44119 0.0
H1225 H 0.06462 0.96421 0.39966 0.0
H1226 H 0.06472 0.9008 0.40214 0.0
H1227 H 0.09785 0.95644 0.41355 0.0
C1228 C 1.00767 0.10593 0.76462 0.0
C1229 C 0.96439 0.09716 0.75637 0.0
C1230 C 0.02888 0.06968 0.76454 0.0
C1231 C 1.00601 0.02361 0.7561 0.0
C1232 C 0.9638 0.0161 0.74745 0.0
C1233 C 0.94392 0.05299 0.74764 0.0
C1234 C 0.07467 0.07971 0.77375 0.0
C1235 C 0.93831 0.96801 0.73822 0.0
C1236 C 0.08863 0.95543 0.74672 0.0
C1237 C 0.06711 0.90915 0.75483 0.0
C1238 C 0.0697 0.99305 0.74719 0.0
C1239 C 0.02721 0.98414 0.75586 0.0
C1240 C 1.00364 0.93642 0.76377 0.0
C1241 C 0.02403 0.89952 0.76321 0.0
C1242 C 0.09603 0.04301 0.73855 0.0
C1243 C 0.95751 0.92491 0.77297 0.0
H1244 H 0.02305 0.13935 0.77153 0.0
H1245 H 0.91045 0.04591 0.74122 0.0
H1246 H 0.06019 0.0448 0.78058 0.0
H1247 H 0.1099 0.08207 0.76835 0.0
H1248 H 0.08934 0.11824 0.77937 0.0
H1249 H 0.9057 0.96796 0.73212 0.0
H1250 H 0.97032 0.96885 0.73181 0.0
H1251 H 0.92006 0.92889 0.7437 0.0
H1252 H 0.12181 0.96331 0.74015 0.0
H1253 H 1.00758 0.86435 0.76961 0.0
H1254 H 0.11336 0.08096 0.74447 0.0
H1255 H 0.06464 0.04321 0.73207 0.0
H1256 H 0.12947 0.04455 0.73253 0.0
H1257 H 0.97145 0.959 0.78003 0.0
H1258 H 0.94303 0.88581 0.77832 0.0
H1259 H 0.92226 0.92276 0.7676 0.0
C1260 C 0.99774 0.89644 0.59936 0.0
C1261 C 0.96014 0.86442 0.60896 0.0
C1262 C 0.01797 0.95376 0.59865 0.0
C1263 C 1.00013 0.97953 0.60772 0.0
C1264 C 0.96338 0.94734 0.6176 0.0
C1265 C 0.94415 0.89068 0.61811 0.0
C1266 C 0.05758 0.98663 0.58804 0.0
C1267 C 0.94363 0.97261 0.62761 0.0
C1268 C 0.08697 0.13174 0.61571 0.0
C1269 C 0.0596 0.1552 0.60922 0.0
C1270 C 0.0691 0.07541 0.61493 0.0
C1271 C 0.022 0.04051 0.60753 0.0
C1272 C 0.99378 0.06354 0.60094 0.0
C1273 C 0.01293 0.12063 0.60183 0.0
C1274 C 0.10045 0.05316 0.62221 0.0
C1275 C 0.94311 0.02772 0.59302 0.0
H1276 H 1.00959 0.87647 0.59213 0.0
H1277 H 0.91512 0.8664 0.62558 0.0
H1278 H 0.03947 1.00602 0.58195 0.0
H1279 H 0.09615 0.02027 0.59225 0.0
H1280 H 0.06792 0.96091 0.58181 0.0
H1281 H 0.91415 0.94173 0.63452 0.0
H1282 H 0.97915 1.00458 0.63313 0.0
H1283 H 0.92328 0.99306 0.62282 0.0
H1284 H 0.1231 0.15761 0.62148 0.0
H1285 H 0.99173 0.13817 0.59668 0.0
H1286 H 0.11258 0.03009 0.61558 0.0
H1287 H 0.07373 0.024 0.62975 0.0
H1288 H 0.1381 0.08615 0.62694 0.0
H1289 H 0.95241 1.00466 0.58572 0.0
H1290 H 0.92718 0.05189 0.58801 0.0
H1291 H 0.91025 0.99698 0.59935 0.0
C1292 C 0.98109 0.12021 0.95584 0.0
C1293 C 0.9302 0.09275 0.94935 0.0
C1294 C 0.01921 0.10188 0.95524 0.0
C1295 C 1.00629 0.05401 0.94813 0.0
C1296 C 0.95451 0.02509 0.94177 0.0
C1297 C 0.91712 0.04493 0.94239 0.0
C1298 C 0.07364 0.13413 0.96218 0.0
C1299 C 0.93879 0.97331 0.93426 0.0
C1300 C 0.1233 0.02789 0.93856 0.0
C1301 C 0.11918 0.99084 0.94815 0.0
C1302 C 0.08715 0.04925 0.93845 0.0
C1303 C 0.04588 0.03286 0.94809 0.0
C1304 C 0.0434 0.99733 0.95806 0.0
C1305 C 0.08009 0.97715 0.95799 0.0
C1306 C 0.09184 0.08786 0.92778 0.0
C1307 C 1.0006 0.97894 0.96858 0.0
H1308 H 0.99194 0.15717 0.9613 0.0
H1309 H 0.8783 0.02368 0.93726 0.0
H1310 H 0.07757 0.10815 0.96968 0.0
H1311 H 0.10807 0.14633 0.9553 0.0
H1312 H 0.07832 0.17177 0.96688 0.0
H1313 H 0.89736 0.95573 0.92979 0.0
H1314 H 0.96943 0.98198 0.92655 0.0
H1315 H 0.93917 0.94203 0.94072 0.0
H1316 H 0.15257 0.03775 0.93079 0.0
H1317 H 0.07653 0.94832 0.96541 0.0
H1318 H 0.09613 0.12622 0.93192 0.0
H1319 H 0.05373 0.06858 0.92188 0.0
H1320 H 0.12751 0.09863 0.92137 0.0
H1321 H 1.00443 0.0151 0.97382 0.0
H1322 H 1.00429 0.95129 0.97567 0.0
H1323 H 0.95879 0.95696 0.96427 0.0
C1324 C 0.1486 0.04835 0.27016 0.0
C1325 C 0.16528 0.1046 0.27057 0.0
C1326 C 0.09312 0.0077 0.26903 0.0
C1327 C 0.05243 0.02315 0.26828 0.0
C1328 C 0.06898 0.08 0.26795 0.0
C1329 C 0.1254 0.12023 0.26905 0.0
C1330 C 0.07795 0.94799 0.26937 0.0
C1331 C 0.02687 0.09821 0.26705 0.0
C1332 C 0.90515 0.91216 0.25955 0.0
C1333 C 0.88039 0.8981 0.27174 0.0
C1334 C 0.96112 0.95281 0.2582 0.0
C1335 C 0.99292 0.97971 0.26932 0.0
C1336 C 0.96836 0.96361 0.28166 0.0
C1337 C 0.91251 0.92349 0.28269 0.0
C1338 C 0.98554 0.96868 0.24487 0.0
C1339 C 1.00063 0.99005 0.29381 0.0
H1340 H 0.17917 0.03571 0.27105 0.0
H1341 H 0.13791 0.16348 0.26931 0.0
H1342 H 0.05608 0.92904 0.2785 0.0
H1343 H 0.0496 0.92501 0.26132 0.0
H1344 H 0.11461 0.94281 0.26873 0.0
H1345 H 0.0462 0.14319 0.26546 0.0
H1346 H 0.99754 0.07631 0.25908 0.0
H1347 H 1.00275 0.08757 0.27612 0.0
H1348 H 0.87994 0.89407 0.25104 0.0
H1349 H 0.89309 0.91353 0.29211 0.0
H1350 H 0.0238 0.9664 0.24425 0.0
H1351 H 0.99687 0.01187 0.24287 0.0
H1352 H 0.9565 0.94193 0.23728 0.0
H1353 H 0.03735 0.985 0.29433 0.0
H1354 H 0.97575 0.9722 0.30267 0.0
H1355 H 0.01552 0.0348 0.29367 0.0
loop_
_geom_bond_atom_site_label_1
_geom_bond_atom_site_label_2
_geom_bond_distance
_geom_bond_site_symmetry_2
_ccdc_geom_bond_type
C0 C1 1.351 . S
C0 N3 1.368 . S
C0 H5 0.931 . S
C1 C0 1.351 . S
C1 N2 1.373 . S
C1 H29 0.930 . S
N2 C1 1.373 . S
N2 C4 1.340 . S
N3 C0 1.368 . S
N3 C4 1.321 . S
N3 Co6 2.135 . S
C4 N2 1.340 . S
C4 N3 1.321 . S
C4 H28 0.930 . S
H5 C0 0.931 . S
Co6 N3 2.135 . S
Co6 N9 2.121 . S
Co6 O14 2.055 . S
Co6 O17 2.039 . S
Co6 N20 2.140 . S
C7 O8 1.227 . S
C7 O17 1.265 . S
O8 C7 1.227 . S
N9 Co6 2.121 . S
N9 C11 1.375 . S
N9 C12 1.313 . S
C10 C11 1.338 . S
C10 N13 1.377 . S
C10 H30 0.930 . S
C11 N9 1.375 . S
C11 C10 1.338 . S
C11 H15 0.931 . S
C12 N9 1.313 . S
C12 N13 1.344 . S
C12 H16 0.930 . S
N13 C10 1.377 . S
N13 C12 1.344 . S
O14 Co6 2.055 . S
O14 C18 1.253 . S
H15 C11 0.931 . S
H16 C12 0.930 . S
O17 Co6 2.039 . S
O17 C7 1.265 . S
C18 O14 1.253 . S
C18 O19 1.227 . S
O19 C18 1.227 . S
N20 Co6 2.140 . S
N20 C23 1.346 . S
N20 C24 1.345 . S
C21 C22 1.387 . S
C21 C25 1.391 . S
C22 C21 1.387 . S
C22 C23 1.369 . S
C22 H31 0.929 . S
C23 N20 1.346 . S
C23 C22 1.369 . S
C23 H26 0.928 . S
C24 N20 1.345 . S
C24 C25 1.371 . S
C24 H27 0.931 . S
C25 C21 1.391 . S
C25 C24 1.371 . S
C25 H32 0.930 . S
H26 C23 0.928 . S
H27 C24 0.931 . S
H28 C4 0.930 . S
H29 C1 0.930 . S
H30 C10 0.930 . S
H31 C22 0.929 . S
H32 C25 0.930 . S
C33 C34 1.351 . S
C33 N36 1.368 . S
C33 H38 0.931 . S
C34 C33 1.351 . S
C34 N35 1.373 . S
C34 H62 0.930 . S
N35 C34 1.373 . S
N35 C37 1.340 . S
N36 C33 1.368 . S
N36 C37 1.321 . S
N36 Co39 2.135 . S
C37 N35 1.340 . S
C37 N36 1.321 . S
C37 H61 0.930 . S
H38 C33 0.931 . S
Co39 N36 2.135 . S
Co39 N42 2.121 . S
Co39 O47 2.055 . S
Co39 O50 2.039 . S
Co39 N53 2.140 . S
C40 O41 1.227 . S
C40 O50 1.265 . S
O41 C40 1.227 . S
N42 Co39 2.121 . S
N42 C44 1.375 . S
N42 C45 1.313 . S
C43 C44 1.338 . S
C43 N46 1.377 . S
C43 H63 0.930 . S
C44 N42 1.375 . S
C44 C43 1.338 . S
C44 H48 0.931 . S
C45 N42 1.313 . S
C45 N46 1.344 . S
C45 H49 0.930 . S
N46 C43 1.377 . S
N46 C45 1.344 . S
O47 Co39 2.055 . S
O47 C51 1.253 . S
H48 C44 0.931 . S
H49 C45 0.930 . S
O50 Co39 2.039 . S
O50 C40 1.265 . S
C51 O47 1.253 . S
C51 O52 1.227 . S
O52 C51 1.227 . S
N53 Co39 2.140 . S
N53 C56 1.346 . S
N53 C57 1.345 . S
C54 C55 1.387 . S
C54 C58 1.391 . S
C55 C54 1.387 . S
C55 C56 1.369 . S
C55 H64 0.929 . S
C56 N53 1.346 . S
C56 C55 1.369 . S
C56 H59 0.928 . S
C57 N53 1.345 . S
C57 C58 1.371 . S
C57 H60 0.931 . S
C58 C54 1.391 . S
C58 C57 1.371 . S
C58 H65 0.930 . S
H59 C56 0.928 . S
H60 C57 0.931 . S
H61 C37 0.930 . S
H62 C34 0.930 . S
H63 C43 0.930 . S
H64 C55 0.929 . S
H65 C58 0.930 . S
C66 C67 1.351 . S
C66 N69 1.368 . S
C66 H71 0.931 . S
C67 C66 1.351 . S
C67 N68 1.373 . S
C67 H95 0.930 . S
N68 C67 1.373 . S
N68 C70 1.340 . S
N69 C66 1.368 . S
N69 C70 1.321 . S
N69 Co72 2.135 . S
C70 N68 1.340 . S
C70 N69 1.321 . S
C70 H94 0.930 . S
H71 C66 0.931 . S
Co72 N69 2.135 . S
Co72 N75 2.121 . S
Co72 O80 2.055 . S
Co72 O83 2.039 . S
Co72 N86 2.140 . S
C73 O74 1.227 . S
C73 O83 1.265 . S
O74 C73 1.227 . S
N75 Co72 2.121 . S
N75 C77 1.375 . S
N75 C78 1.313 . S
C76 C77 1.338 . S
C76 N79 1.377 . S
C76 H96 0.930 . S
C77 N75 1.375 . S
C77 C76 1.338 . S
C77 H81 0.931 . S
C78 N75 1.313 . S
C78 N79 1.344 . S
C78 H82 0.930 . S
N79 C76 1.377 . S
N79 C78 1.344 . S
O80 Co72 2.055 . S
O80 C84 1.253 . S
H81 C77 0.931 . S
H82 C78 0.930 . S
O83 Co72 2.039 . S
O83 C73 1.265 . S
C84 O80 1.253 . S
C84 O85 1.227 . S
O85 C84 1.227 . S
N86 Co72 2.140 . S
N86 C89 1.346 . S
N86 C90 1.345 . S
C87 C88 1.387 . S
C87 C91 1.391 . S
C88 C87 1.387 . S
C88 C89 1.369 . S
C88 H97 0.929 . S
C89 N86 1.346 . S
C89 C88 1.369 . S
C89 H92 0.928 . S
C90 N86 1.345 . S
C90 C91 1.371 . S
C90 H93 0.931 . S
C91 C87 1.391 . S
C91 C90 1.371 . S
C91 H98 0.930 . S
H92 C89 0.928 . S
H93 C90 0.931 . S
H94 C70 0.930 . S
H95 C67 0.930 . S
H96 C76 0.930 . S
H97 C88 0.929 . S
H98 C91 0.930 . S
C99 C100 1.351 . S
C99 N102 1.368 . S
C99 H104 0.931 . S
C100 C99 1.351 . S
C100 N101 1.373 . S
C100 H128 0.930 . S
N101 C100 1.373 . S
N101 C103 1.340 . S
N102 C99 1.368 . S
N102 C103 1.321 . S
N102 Co105 2.135 . S
C103 N101 1.340 . S
C103 N102 1.321 . S
C103 H127 0.930 . S
H104 C99 0.931 . S
Co105 N102 2.135 . S
Co105 N108 2.121 . S
Co105 O113 2.055 . S
Co105 O116 2.039 . S
Co105 N119 2.140 . S
C106 O107 1.227 . S
C106 O116 1.265 . S
O107 C106 1.227 . S
N108 Co105 2.121 . S
N108 C110 1.375 . S
N108 C111 1.313 . S
C109 C110 1.338 . S
C109 N112 1.377 . S
C109 H129 0.930 . S
C110 N108 1.375 . S
C110 C109 1.338 . S
C110 H114 0.931 . S
C111 N108 1.313 . S
C111 N112 1.344 . S
C111 H115 0.930 . S
N112 C109 1.377 . S
N112 C111 1.344 . S
O113 Co105 2.055 . S
O113 C117 1.253 . S
H114 C110 0.931 . S
H115 C111 0.930 . S
O116 Co105 2.039 . S
O116 C106 1.265 . S
C117 O113 1.253 . S
C117 O118 1.227 . S
O118 C117 1.227 . S
N119 Co105 2.140 . S
N119 C122 1.346 . S
N119 C123 1.345 . S
C120 C121 1.387 . S
C120 C124 1.391 . S
C121 C120 1.387 . S
C121 C122 1.369 . S
C121 H130 0.929 . S
C122 N119 1.346 . S
C122 C121 1.369 . S
C122 H125 0.928 . S
C123 N119 1.345 . S
C123 C124 1.371 . S
C123 H126 0.931 . S
C124 C120 1.391 . S
C124 C123 1.371 . S
C124 H131 0.930 . S
H125 C122 0.928 . S
H126 C123 0.931 . S
H127 C103 0.930 . S
H128 C100 0.930 . S
H129 C109 0.930 . S
H130 C121 0.929 . S
H131 C124 0.930 . S
C132 C133 1.351 . S
C132 N135 1.368 . S
C132 H137 0.931 . S
C133 C132 1.351 . S
C133 N134 1.373 . S
C133 H161 0.930 . S
N134 C133 1.373 . S
N134 C136 1.340 . S
N135 C132 1.368 . S
N135 C136 1.321 . S
N135 Co138 2.135 . S
C136 N134 1.340 . S
C136 N135 1.321 . S
C136 H160 0.930 . S
H137 C132 0.931 . S
Co138 N135 2.135 . S
Co138 N141 2.121 . S
Co138 O146 2.055 . S
Co138 O149 2.039 . S
Co138 N152 2.140 . S
C139 O140 1.227 . S
C139 O149 1.265 . S
O140 C139 1.227 . S
N141 Co138 2.121 . S
N141 C143 1.375 . S
N141 C144 1.313 . S
C142 C143 1.338 . S
C142 N145 1.377 . S
C142 H162 0.930 . S
C143 N141 1.375 . S
C143 C142 1.338 . S
C143 H147 0.931 . S
C144 N141 1.313 . S
C144 N145 1.344 . S
C144 H148 0.930 . S
N145 C142 1.377 . S
N145 C144 1.344 . S
O146 Co138 2.055 . S
O146 C150 1.253 . S
H147 C143 0.931 . S
H148 C144 0.930 . S
O149 Co138 2.039 . S
O149 C139 1.265 . S
C150 O146 1.253 . S
C150 O151 1.227 . S
O151 C150 1.227 . S
N152 Co138 2.140 . S
N152 C155 1.346 . S
N152 C156 1.345 . S
C153 C154 1.387 . S
C153 C157 1.391 . S
C154 C153 1.387 . S
C154 C155 1.369 . S
C154 H163 0.929 . S
C155 N152 1.346 . S
C155 C154 1.369 . S
C155 H158 0.928 . S
C156 N152 1.345 . S
C156 C157 1.371 . S
C156 H159 0.931 . S
C157 C153 1.391 . S
C157 C156 1.371 . S
C157 H164 0.930 . S
H158 C155 0.928 . S
H159 C156 0.931 . S
H160 C136 0.930 . S
H161 C133 0.930 . S
H162 C142 0.930 . S
H163 C154 0.929 . S
H164 C157 0.930 . S
C165 C166 1.351 . S
C165 N168 1.368 . S
C165 H170 0.931 . S
C166 C165 1.351 . S
C166 N167 1.373 . S
C166 H194 0.930 . S
N167 C166 1.373 . S
N167 C169 1.340 . S
N168 C165 1.368 . S
N168 C169 1.321 . S
N168 Co171 2.135 . S
C169 N167 1.340 . S
C169 N168 1.321 . S
C169 H193 0.930 . S
H170 C165 0.931 . S
Co171 N168 2.135 . S
Co171 N174 2.121 . S
Co171 O179 2.055 . S
Co171 O182 2.039 . S
Co171 N185 2.140 . S
C172 O173 1.227 . S
C172 O182 1.265 . S
O173 C172 1.227 . S
N174 Co171 2.121 . S
N174 C176 1.375 . S
N174 C177 1.313 . S
C175 C176 1.338 . S
C175 N178 1.377 . S
C175 H195 0.930 . S
C176 N174 1.375 . S
C176 C175 1.338 . S
C176 H180 0.931 . S
C177 N174 1.313 . S
C177 N178 1.344 . S
C177 H181 0.930 . S
N178 C175 1.377 . S
N178 C177 1.344 . S
O179 Co171 2.055 . S
O179 C183 1.253 . S
H180 C176 0.931 . S
H181 C177 0.930 . S
O182 Co171 2.039 . S
O182 C172 1.265 . S
C183 O179 1.253 . S
C183 O184 1.227 . S
O184 C183 1.227 . S
N185 Co171 2.140 . S
N185 C188 1.346 . S
N185 C189 1.345 . S
C186 C187 1.387 . S
C186 C190 1.391 . S
C187 C186 1.387 . S
C187 C188 1.369 . S
C187 H196 0.929 . S
C188 N185 1.346 . S
C188 C187 1.369 . S
C188 H191 0.928 . S
C189 N185 1.345 . S
C189 C190 1.371 . S
C189 H192 0.931 . S
C190 C186 1.391 . S
C190 C189 1.371 . S
C190 H197 0.930 . S
H191 C188 0.928 . S
H192 C189 0.931 . S
H193 C169 0.930 . S
H194 C166 0.930 . S
H195 C175 0.930 . S
H196 C187 0.929 . S
H197 C190 0.930 . S
C198 C199 1.351 . S
C198 N201 1.368 . S
C198 H203 0.931 . S
C199 C198 1.351 . S
C199 N200 1.373 . S
C199 H227 0.930 . S
N200 C199 1.373 . S
N200 C202 1.340 . S
N201 C198 1.368 . S
N201 C202 1.321 . S
N201 Co204 2.135 . S
C202 N200 1.340 . S
C202 N201 1.321 . S
C202 H226 0.930 . S
H203 C198 0.931 . S
Co204 N201 2.135 . S
Co204 N207 2.121 . S
Co204 O212 2.055 . S
Co204 O215 2.039 . S
Co204 N218 2.140 . S
C205 O206 1.227 . S
C205 O215 1.265 . S
O206 C205 1.227 . S
N207 Co204 2.121 . S
N207 C209 1.375 . S
N207 C210 1.313 . S
C208 C209 1.338 . S
C208 N211 1.377 . S
C208 H228 0.930 . S
C209 N207 1.375 . S
C209 C208 1.338 . S
C209 H213 0.931 . S
C210 N207 1.313 . S
C210 N211 1.344 . S
C210 H214 0.930 . S
N211 C208 1.377 . S
N211 C210 1.344 . S
O212 Co204 2.055 . S
O212 C216 1.253 . S
H213 C209 0.931 . S
H214 C210 0.930 . S
O215 Co204 2.039 . S
O215 C205 1.265 . S
C216 O212 1.253 . S
C216 O217 1.227 . S
O217 C216 1.227 . S
N218 Co204 2.140 . S
N218 C221 1.346 . S
N218 C222 1.345 . S
C219 C220 1.387 . S
C219 C223 1.391 . S
C220 C219 1.387 . S
C220 C221 1.369 . S
C220 H229 0.929 . S
C221 N218 1.346 . S
C221 C220 1.369 . S
C221 H224 0.928 . S
C222 N218 1.345 . S
C222 C223 1.371 . S
C222 H225 0.931 . S
C223 C219 1.391 . S
C223 C222 1.371 . S
C223 H230 0.930 . S
H224 C221 0.928 . S
H225 C222 0.931 . S
H226 C202 0.930 . S
H227 C199 0.930 . S
H228 C208 0.930 . S
H229 C220 0.929 . S
H230 C223 0.930 . S
C231 C232 1.351 . S
C231 N234 1.368 . S
C231 H236 0.931 . S
C232 C231 1.351 . S
C232 N233 1.373 . S
C232 H260 0.930 . S
N233 C232 1.373 . S
N233 C235 1.340 . S
N234 C231 1.368 . S
N234 C235 1.321 . S
N234 Co237 2.135 . S
C235 N233 1.340 . S
C235 N234 1.321 . S
C235 H259 0.930 . S
H236 C231 0.931 . S
Co237 N234 2.135 . S
Co237 N240 2.121 . S
Co237 O245 2.055 . S
Co237 O248 2.039 . S
Co237 N251 2.140 . S
C238 O239 1.227 . S
C238 O248 1.265 . S
O239 C238 1.227 . S
N240 Co237 2.121 . S
N240 C242 1.375 . S
N240 C243 1.313 . S
C241 C242 1.338 . S
C241 N244 1.377 . S
C241 H261 0.930 . S
C242 N240 1.375 . S
C242 C241 1.338 . S
C242 H246 0.931 . S
C243 N240 1.313 . S
C243 N244 1.344 . S
C243 H247 0.930 . S
N244 C241 1.377 . S
N244 C243 1.344 . S
O245 Co237 2.055 . S
O245 C249 1.253 . S
H246 C242 0.931 . S
H247 C243 0.930 . S
O248 Co237 2.039 . S
O248 C238 1.265 . S
C249 O245 1.253 . S
C249 O250 1.227 . S
O250 C249 1.227 . S
N251 Co237 2.140 . S
N251 C254 1.346 . S
N251 C255 1.345 . S
C252 C253 1.387 . S
C252 C256 1.391 . S
C253 C252 1.387 . S
C253 C254 1.369 . S
C253 H262 0.929 . S
C254 N251 1.346 . S
C254 C253 1.369 . S
C254 H257 0.928 . S
C255 N251 1.345 . S
C255 C256 1.371 . S
C255 H258 0.931 . S
C256 C252 1.391 . S
C256 C255 1.371 . S
C256 H263 0.930 . S
H257 C254 0.928 . S
H258 C255 0.931 . S
H259 C235 0.930 . S
H260 C232 0.930 . S
H261 C241 0.930 . S
H262 C253 0.929 . S
H263 C256 0.930 . S
C264 C265 1.351 . S
C264 N267 1.368 . S
C264 H269 0.931 . S
C265 C264 1.351 . S
C265 N266 1.373 . S
C265 H293 0.930 . S
N266 C265 1.373 . S
N266 C268 1.340 . S
N267 C264 1.368 . S
N267 C268 1.321 . S
N267 Co270 2.135 . S
C268 N266 1.340 . S
C268 N267 1.321 . S
C268 H292 0.930 . S
H269 C264 0.931 . S
Co270 N267 2.135 . S
Co270 N273 2.121 . S
Co270 O278 2.055 . S
Co270 O281 2.039 . S
Co270 N284 2.140 . S
C271 O272 1.227 . S
C271 O281 1.265 . S
O272 C271 1.227 . S
N273 Co270 2.121 . S
N273 C275 1.375 . S
N273 C276 1.313 . S
C274 C275 1.338 . S
C274 N277 1.377 . S
C274 H294 0.930 . S
C275 N273 1.375 . S
C275 C274 1.338 . S
C275 H279 0.931 . S
C276 N273 1.313 . S
C276 N277 1.344 . S
C276 H280 0.930 . S
N277 C274 1.377 . S
N277 C276 1.344 . S
O278 Co270 2.055 . S
O278 C282 1.253 . S
H279 C275 0.931 . S
H280 C276 0.930 . S
O281 Co270 2.039 . S
O281 C271 1.265 . S
C282 O278 1.253 . S
C282 O283 1.227 . S
O283 C282 1.227 . S
N284 Co270 2.140 . S
N284 C287 1.346 . S
N284 C288 1.345 . S
C285 C286 1.387 . S
C285 C289 1.391 . S
C286 C285 1.387 . S
C286 C287 1.369 . S
C286 H295 0.929 . S
C287 N284 1.346 . S
C287 C286 1.369 . S
C287 H290 0.928 . S
C288 N284 1.345 . S
C288 C289 1.371 . S
C288 H291 0.931 . S
C289 C285 1.391 . S
C289 C288 1.371 . S
C289 H296 0.930 . S
H290 C287 0.928 . S
H291 C288 0.931 . S
H292 C268 0.930 . S
H293 C265 0.930 . S
H294 C274 0.930 . S
H295 C286 0.929 . S
H296 C289 0.930 . S
C297 C298 1.351 . S
C297 N300 1.368 . S
C297 H302 0.931 . S
C298 C297 1.351 . S
C298 N299 1.373 . S
C298 H326 0.930 . S
N299 C298 1.373 . S
N299 C301 1.340 . S
N300 C297 1.368 . S
N300 C301 1.321 . S
N300 Co303 2.135 . S
C301 N299 1.340 . S
C301 N300 1.321 . S
C301 H325 0.930 . S
H302 C297 0.931 . S
Co303 N300 2.135 . S
Co303 N306 2.121 . S
Co303 O311 2.055 . S
Co303 O314 2.039 . S
Co303 N317 2.140 . S
C304 O305 1.227 . S
C304 O314 1.265 . S
O305 C304 1.227 . S
N306 Co303 2.121 . S
N306 C308 1.375 . S
N306 C309 1.313 . S
C307 C308 1.338 . S
C307 N310 1.377 . S
C307 H327 0.930 . S
C308 N306 1.375 . S
C308 C307 1.338 . S
C308 H312 0.931 . S
C309 N306 1.313 . S
C309 N310 1.344 . S
C309 H313 0.930 . S
N310 C307 1.377 . S
N310 C309 1.344 . S
O311 Co303 2.055 . S
O311 C315 1.253 . S
H312 C308 0.931 . S
H313 C309 0.930 . S
O314 Co303 2.039 . S
O314 C304 1.265 . S
C315 O311 1.253 . S
C315 O316 1.227 . S
O316 C315 1.227 . S
N317 Co303 2.140 . S
N317 C320 1.346 . S
N317 C321 1.345 . S
C318 C319 1.387 . S
C318 C322 1.391 . S
C319 C318 1.387 . S
C319 C320 1.369 . S
C319 H328 0.929 . S
C320 N317 1.346 . S
C320 C319 1.369 . S
C320 H323 0.928 . S
C321 N317 1.345 . S
C321 C322 1.371 . S
C321 H324 0.931 . S
C322 C318 1.391 . S
C322 C321 1.371 . S
C322 H329 0.930 . S
H323 C320 0.928 . S
H324 C321 0.931 . S
H325 C301 0.930 . S
H326 C298 0.930 . S
H327 C307 0.930 . S
H328 C319 0.929 . S
H329 C322 0.930 . S
C330 C331 1.351 . S
C330 N333 1.368 . S
C330 H335 0.931 . S
C331 C330 1.351 . S
C331 N332 1.373 . S
C331 H359 0.930 . S
N332 C331 1.373 . S
N332 C334 1.340 . S
N333 C330 1.368 . S
N333 C334 1.321 . S
N333 Co336 2.135 . S
C334 N332 1.340 . S
C334 N333 1.321 . S
C334 H358 0.930 . S
H335 C330 0.931 . S
Co336 N333 2.135 . S
Co336 N339 2.121 . S
Co336 O344 2.055 . S
Co336 O347 2.039 . S
Co336 N350 2.140 . S
C337 O338 1.227 . S
C337 O347 1.265 . S
O338 C337 1.227 . S
N339 Co336 2.121 . S
N339 C341 1.375 . S
N339 C342 1.313 . S
C340 C341 1.338 . S
C340 N343 1.377 . S
C340 H360 0.930 . S
C341 N339 1.375 . S
C341 C340 1.338 . S
C341 H345 0.931 . S
C342 N339 1.313 . S
C342 N343 1.344 . S
C342 H346 0.930 . S
N343 C340 1.377 . S
N343 C342 1.344 . S
O344 Co336 2.055 . S
O344 C348 1.253 . S
H345 C341 0.931 . S
H346 C342 0.930 . S
O347 Co336 2.039 . S
O347 C337 1.265 . S
C348 O344 1.253 . S
C348 O349 1.227 . S
O349 C348 1.227 . S
N350 Co336 2.140 . S
N350 C353 1.346 . S
N350 C354 1.345 . S
C351 C352 1.387 . S
C351 C355 1.391 . S
C352 C351 1.387 . S
C352 C353 1.369 . S
C352 H361 0.929 . S
C353 N350 1.346 . S
C353 C352 1.369 . S
C353 H356 0.928 . S
C354 N350 1.345 . S
C354 C355 1.371 . S
C354 H357 0.931 . S
C355 C351 1.391 . S
C355 C354 1.371 . S
C355 H362 0.930 . S
H356 C353 0.928 . S
H357 C354 0.931 . S
H358 C334 0.930 . S
H359 C331 0.930 . S
H360 C340 0.930 . S
H361 C352 0.929 . S
H362 C355 0.930 . S
C363 C364 1.351 . S
C363 N366 1.368 . S
C363 H368 0.931 . S
C364 C363 1.351 . S
C364 N365 1.373 . S
C364 H392 0.930 . S
N365 C364 1.373 . S
N365 C367 1.340 . S
N366 C363 1.368 . S
N366 C367 1.321 . S
N366 Co369 2.135 . S
C367 N365 1.340 . S
C367 N366 1.321 . S
C367 H391 0.930 . S
H368 C363 0.931 . S
Co369 N366 2.135 . S
Co369 N372 2.121 . S
Co369 O377 2.055 . S
Co369 O380 2.039 . S
Co369 N383 2.140 . S
C370 O371 1.227 . S
C370 O380 1.265 . S
O371 C370 1.227 . S
N372 Co369 2.121 . S
N372 C374 1.375 . S
N372 C375 1.313 . S
C373 C374 1.338 . S
C373 N376 1.377 . S
C373 H393 0.930 . S
C374 N372 1.375 . S
C374 C373 1.338 . S
C374 H378 0.931 . S
C375 N372 1.313 . S
C375 N376 1.344 . S
C375 H379 0.930 . S
N376 C373 1.377 . S
N376 C375 1.344 . S
O377 Co369 2.055 . S
O377 C381 1.253 . S
H378 C374 0.931 . S
H379 C375 0.930 . S
O380 Co369 2.039 . S
O380 C370 1.265 . S
C381 O377 1.253 . S
C381 O382 1.227 . S
O382 C381 1.227 . S
N383 Co369 2.140 . S
N383 C386 1.346 . S
N383 C387 1.345 . S
C384 C385 1.387 . S
C384 C388 1.391 . S
C385 C384 1.387 . S
C385 C386 1.369 . S
C385 H394 0.929 . S
C386 N383 1.346 . S
C386 C385 1.369 . S
C386 H389 0.928 . S
C387 N383 1.345 . S
C387 C388 1.371 . S
C387 H390 0.931 . S
C388 C384 1.391 . S
C388 C387 1.371 . S
C388 H395 0.930 . S
H389 C386 0.928 . S
H390 C387 0.931 . S
H391 C367 0.930 . S
H392 C364 0.930 . S
H393 C373 0.930 . S
H394 C385 0.929 . S
H395 C388 0.930 . S
C396 C397 1.391 . S
C396 C398 1.394 1_545 S
C396 H412 0.931 . S
C397 C396 1.391 . S
C397 C401 1.376 . S
C398 C396 1.394 1_565 S
C398 C399 1.369 1_565 S
C398 C402 1.531 . S
C399 C398 1.369 1_545 S
C399 C400 1.410 . S
C399 C407 1.503 1_544 S
C400 C399 1.410 . S
C400 C401 1.392 . S
C400 C403 1.511 1_554 S
C401 C397 1.376 . S
C401 C400 1.392 . S
C401 H413 0.929 . S
C402 C398 1.531 . S
C402 H414 0.960 . S
C402 H415 0.962 . S
C402 H416 0.960 . S
C403 C400 1.511 1_556 S
C403 H417 0.961 . S
C403 H418 0.961 . S
C403 H419 0.961 . S
C404 C405 1.370 . S
C404 C406 1.363 . S
C404 H420 0.931 . S
C405 C404 1.370 . S
C405 C409 1.408 . S
C406 C404 1.363 . S
C406 C407 1.370 . S
C406 C410 1.468 1_556 S
C407 C399 1.503 1_566 S
C407 C406 1.370 . S
C407 C408 1.403 . S
C408 C407 1.403 . S
C408 C409 1.404 . S
C408 C411 1.539 1_565 S
C409 C405 1.408 . S
C409 C408 1.404 . S
C409 H421 0.930 . S
C410 C406 1.468 1_554 S
C410 H422 1.026 . S
C410 H423 0.984 . S
C410 H424 0.932 1_554 S
C411 C408 1.539 1_545 S
C411 H425 0.958 . S
C411 H426 0.961 . S
C411 H427 0.960 . S
H412 C396 0.931 . S
H413 C401 0.929 . S
H414 C402 0.960 . S
H415 C402 0.962 . S
H416 C402 0.960 . S
H417 C403 0.961 . S
H418 C403 0.961 . S
H419 C403 0.961 . S
H420 C404 0.931 . S
H421 C409 0.930 . S
H422 C410 1.026 . S
H423 C410 0.984 . S
H424 C410 0.932 1_556 S
H425 C411 0.958 . S
H426 C411 0.961 . S
H427 C411 0.960 . S
C428 C429 1.391 . S
C428 C430 1.394 . S
C428 H444 0.931 . S
C429 C428 1.391 . S
C429 C433 1.376 . S
C430 C428 1.394 . S
C430 C431 1.369 . S
C430 C434 1.531 . S
C431 C430 1.369 . S
C431 C432 1.410 . S
C431 C439 1.503 . S
C432 C431 1.410 . S
C432 C433 1.392 . S
C432 C435 1.511 . S
C433 C429 1.376 . S
C433 C432 1.392 . S
C433 H445 0.929 . S
C434 C430 1.531 . S
C434 H446 0.960 . S
C434 H447 0.962 . S
C434 H448 0.960 . S
C435 C432 1.511 . S
C435 H449 0.961 . S
C435 H450 0.961 . S
C435 H451 0.961 . S
C436 C437 1.370 . S
C436 C438 1.363 . S
C436 H452 0.931 . S
C437 C436 1.370 . S
C437 C441 1.408 . S
C438 C436 1.363 . S
C438 C439 1.370 . S
C438 C442 1.524 . S
C439 C431 1.503 . S
C439 C438 1.370 . S
C439 C440 1.403 . S
C440 C439 1.403 . S
C440 C441 1.404 . S
C440 C443 1.539 . S
C441 C437 1.408 . S
C441 C440 1.404 . S
C441 H453 0.930 . S
C442 C438 1.524 . S
C442 H454 0.956 . S
C442 H455 0.961 . S
C442 H456 0.961 . S
C443 C440 1.539 . S
C443 H457 0.958 . S
C443 H458 0.961 . S
C443 H459 0.960 . S
H444 C428 0.931 . S
H445 C433 0.929 . S
H446 C434 0.960 . S
H447 C434 0.962 . S
H448 C434 0.960 . S
H449 C435 0.961 . S
H450 C435 0.961 . S
H451 C435 0.961 . S
H452 C436 0.931 . S
H453 C441 0.930 . S
H454 C442 0.956 . S
H455 C442 0.961 . S
H456 C442 0.961 . S
H457 C443 0.958 . S
H458 C443 0.961 . S
H459 C443 0.960 . S
C460 C461 1.391 . S
C460 C462 1.394 . S
C460 H476 0.931 . S
C461 C460 1.391 . S
C461 C465 1.376 . S
C462 C460 1.394 . S
C462 C463 1.369 . S
C462 C466 1.531 . S
C463 C462 1.369 . S
C463 C464 1.410 . S
C463 C471 1.503 1_655 S
C464 C463 1.410 . S
C464 C465 1.392 . S
C464 C467 1.511 . S
C465 C461 1.376 . S
C465 C464 1.392 . S
C465 H477 0.929 . S
C466 C462 1.531 . S
C466 H478 0.960 . S
C466 H479 0.962 1_655 S
C466 H480 0.960 . S
C467 C464 1.511 . S
C467 H481 0.961 . S
C467 H482 0.961 . S
C467 H483 0.961 . S
C468 C469 1.370 . S
C468 C470 1.363 . S
C468 H484 0.931 . S
C469 C468 1.370 . S
C469 C473 1.408 . S
C470 C468 1.363 . S
C470 C471 1.370 . S
C470 C474 1.524 . S
C471 C463 1.503 1_455 S
C471 C470 1.370 . S
C471 C472 1.403 1_455 S
C472 C471 1.403 1_655 S
C472 C473 1.404 1_655 S
C472 C475 1.539 . S
C473 C469 1.408 . S
C473 C472 1.404 1_455 S
C473 H485 0.930 1_455 S
C474 C470 1.524 . S
C474 H486 0.956 . S
C474 H487 0.961 . S
C474 H488 0.961 . S
C475 C472 1.539 . S
C475 H489 0.958 . S
C475 H490 0.961 . S
C475 H491 0.960 . S
H476 C460 0.931 . S
H477 C465 0.929 . S
H478 C466 0.960 . S
H479 C466 0.962 1_455 S
H480 C466 0.960 . S
H481 C467 0.961 . S
H482 C467 0.961 . S
H483 C467 0.961 . S
H484 C468 0.931 . S
H485 C473 0.930 1_655 S
H486 C474 0.956 . S
H487 C474 0.961 . S
H488 C474 0.961 . S
H489 C475 0.958 . S
H490 C475 0.961 . S
H491 C475 0.960 . S
C492 C493 1.391 . S
C492 C494 1.405 . S
C492 H508 0.931 . S
C493 C492 1.391 . S
C493 C497 1.376 . S
C494 C492 1.405 . S
C494 C495 1.361 . S
C494 C498 1.527 1_545 S
C495 C494 1.361 . S
C495 C496 1.410 . S
C495 C503 1.503 1_546 S
C496 C495 1.410 . S
C496 C497 1.392 . S
C496 C499 1.511 . S
C497 C493 1.376 . S
C497 C496 1.392 . S
C497 H509 0.929 . S
C498 C494 1.527 1_565 S
C498 H510 0.960 . S
C498 H511 0.962 . S
C498 H512 0.960 . S
C499 C496 1.511 . S
C499 H513 0.961 . S
C499 H514 0.961 1_556 S
C499 H515 0.961 . S
C500 C501 1.370 . S
C500 C502 1.363 1_565 S
C500 H516 0.931 . S
C501 C500 1.370 . S
C501 C505 1.408 . S
C502 C500 1.363 1_545 S
C502 C503 1.370 1_545 S
C502 C506 1.524 . S
C503 C495 1.503 1_564 S
C503 C502 1.370 1_565 S
C503 C504 1.403 . S
C504 C503 1.403 . S
C504 C505 1.404 . S
C504 C507 1.539 1_554 S
C505 C501 1.408 . S
C505 C504 1.404 . S
C505 H517 0.930 . S
C506 C502 1.524 . S
C506 H518 0.956 . S
C506 H519 0.961 . S
C506 H520 0.961 . S
C507 C504 1.539 1_556 S
C507 H521 0.958 . S
C507 H522 0.995 . S
C507 H523 0.960 . S
H508 C492 0.931 . S
H509 C497 0.929 . S
H510 C498 0.960 . S
H511 C498 0.962 . S
H512 C498 0.960 . S
H513 C499 0.961 . S
H514 C499 0.961 1_554 S
H515 C499 0.961 . S
H516 C500 0.931 . S
H517 C505 0.930 . S
H518 C506 0.956 . S
H519 C506 0.961 . S
H520 C506 0.961 . S
H521 C507 0.958 . S
H522 C507 0.995 . S
H523 C507 0.960 . S
C524 C525 1.391 . S
C524 C526 1.394 . S
C524 H540 0.931 . S
C525 C524 1.391 . S
C525 C529 1.376 . S
C526 C524 1.394 . S
C526 C527 1.369 . S
C526 C530 1.531 . S
C527 C526 1.369 . S
C527 C528 1.410 . S
C527 C535 1.503 . S
C528 C527 1.410 . S
C528 C529 1.392 . S
C528 C531 1.511 . S
C529 C525 1.376 . S
C529 C528 1.392 . S
C529 H541 0.929 . S
C530 C526 1.531 . S
C530 H542 0.960 . S
C530 H543 0.962 . S
C530 H544 0.960 . S
C531 C528 1.511 . S
C531 H545 0.961 . S
C531 H546 0.961 . S
C531 H547 0.961 . S
C532 C533 1.370 . S
C532 C534 1.363 . S
C532 H548 0.931 . S
C533 C532 1.370 . S
C533 C537 1.408 . S
C534 C532 1.363 . S
C534 C535 1.370 . S
C534 C538 1.524 . S
C535 C527 1.503 . S
C535 C534 1.370 . S
C535 C536 1.403 . S
C536 C535 1.403 . S
C536 C537 1.404 . S
C536 C539 1.539 . S
C537 C533 1.408 . S
C537 C536 1.404 . S
C537 H549 0.930 . S
C538 C534 1.524 . S
C538 H550 0.956 . S
C538 H551 0.961 . S
C538 H552 0.961 . S
C539 C536 1.539 . S
C539 H553 0.958 . S
C539 H554 0.961 . S
C539 H555 0.960 . S
H540 C524 0.931 . S
H541 C529 0.929 . S
H542 C530 0.960 . S
H543 C530 0.962 . S
H544 C530 0.960 . S
H545 C531 0.961 . S
H546 C531 0.961 . S
H547 C531 0.961 . S
H548 C532 0.931 . S
H549 C537 0.930 . S
H550 C538 0.956 . S
H551 C538 0.961 . S
H552 C538 0.961 . S
H553 C539 0.958 . S
H554 C539 0.961 . S
H555 C539 0.960 . S
C556 C557 1.391 . S
C556 C558 1.385 1_455 S
C556 H572 0.931 . S
C557 C556 1.391 . S
C557 C561 1.376 . S
C558 C556 1.385 1_655 S
C558 C559 1.356 1_655 S
C558 C562 1.553 . S
C559 C558 1.356 1_455 S
C559 C560 1.410 . S
C559 C567 1.503 1_455 S
C560 C559 1.410 . S
C560 C561 1.392 . S
C560 C563 1.511 . S
C561 C557 1.376 . S
C561 C560 1.392 . S
C561 H573 0.929 . S
C562 C558 1.553 . S
C562 H574 0.960 . S
C562 H575 0.962 . S
C562 H576 0.960 . S
C563 C560 1.511 . S
C563 H577 0.961 . S
C563 H578 0.961 . S
C563 H579 0.961 . S
C564 C565 1.370 . S
C564 C566 1.363 . S
C564 H580 0.931 . S
C565 C564 1.370 . S
C565 C569 1.408 . S
C566 C564 1.363 . S
C566 C567 1.370 . S
C566 C570 1.524 . S
C567 C559 1.503 1_655 S
C567 C566 1.370 . S
C567 C568 1.403 . S
C568 C567 1.403 . S
C568 C569 1.404 . S
C568 C571 1.539 1_655 S
C569 C565 1.408 . S
C569 C568 1.404 . S
C569 H581 0.930 . S
C570 C566 1.524 . S
C570 H582 0.956 . S
C570 H583 0.961 . S
C570 H584 0.961 . S
C571 C568 1.539 1_455 S
C571 H585 0.958 . S
C571 H586 0.961 . S
C571 H587 0.960 . S
H572 C556 0.931 . S
H573 C561 0.929 . S
H574 C562 0.960 . S
H575 C562 0.962 . S
H576 C562 0.960 . S
H577 C563 0.961 . S
H578 C563 0.961 . S
H579 C563 0.961 . S
H580 C564 0.931 . S
H581 C569 0.930 . S
H582 C570 0.956 . S
H583 C570 0.961 . S
H584 C570 0.961 . S
H585 C571 0.958 . S
H586 C571 0.961 . S
H587 C571 0.960 . S
C588 C589 1.398 . S
C588 C590 1.387 1_565 S
C588 H604 0.930 1_565 S
C589 C588 1.398 . S
C589 C593 1.376 . S
C590 C588 1.387 1_545 S
C590 C591 1.369 1_545 S
C590 C594 1.531 . S
C591 C590 1.369 1_565 S
C591 C592 1.410 . S
C591 C599 1.503 1_565 S
C592 C591 1.410 . S
C592 C593 1.392 . S
C592 C595 1.511 . S
C593 C589 1.376 . S
C593 C592 1.392 . S
C593 H605 0.929 . S
C594 C590 1.531 . S
C594 H606 0.960 . S
C594 H607 0.962 . S
C594 H608 0.960 . S
C595 C592 1.511 . S
C595 H609 0.961 . S
C595 H610 0.961 . S
C595 H611 0.961 . S
C596 C597 1.370 . S
C596 C598 1.363 . S
C596 H612 0.931 . S
C597 C596 1.370 . S
C597 C601 1.408 . S
C598 C596 1.363 . S
C598 C599 1.370 . S
C598 C602 1.524 1_545 S
C599 C591 1.503 1_545 S
C599 C598 1.370 . S
C599 C600 1.403 . S
C600 C599 1.403 . S
C600 C601 1.404 . S
C600 C603 1.539 . S
C601 C597 1.408 . S
C601 C600 1.404 . S
C601 H613 0.930 . S
C602 C598 1.524 1_565 S
C602 H614 0.956 1_565 S
C602 H615 0.961 . S
C602 H616 0.961 . S
C603 C600 1.539 . S
C603 H617 0.958 . S
C603 H618 0.961 . S
C603 H619 0.960 . S
H604 C588 0.930 1_545 S
H605 C593 0.929 . S
H606 C594 0.960 . S
H607 C594 0.962 . S
H608 C594 0.960 . S
H609 C595 0.961 . S
H610 C595 0.961 . S
H611 C595 0.961 . S
H612 C596 0.931 . S
H613 C601 0.930 . S
H614 C602 0.956 1_545 S
H615 C602 0.961 . S
H616 C602 0.961 . S
H617 C603 0.958 . S
H618 C603 0.961 . S
H619 C603 0.960 . S
C620 C621 1.391 . S
C620 C622 1.394 . S
C620 H636 0.931 . S
C621 C620 1.391 . S
C621 C625 1.376 . S
C622 C620 1.394 . S
C622 C623 1.369 . S
C622 C626 1.531 . S
C623 C622 1.369 . S
C623 C624 1.410 . S
C623 C631 1.503 . S
C624 C623 1.410 . S
C624 C625 1.392 . S
C624 C627 1.511 . S
C625 C621 1.376 . S
C625 C624 1.392 . S
C625 H637 0.929 . S
C626 C622 1.531 . S
C626 H638 0.960 . S
C626 H639 0.962 . S
C626 H640 0.960 . S
C627 C624 1.511 . S
C627 H641 0.961 . S
C627 H642 0.961 . S
C627 H643 0.961 . S
C628 C629 1.370 . S
C628 C630 1.363 . S
C628 H644 0.931 . S
C629 C628 1.370 . S
C629 C633 1.408 . S
C630 C628 1.363 . S
C630 C631 1.370 . S
C630 C634 1.524 . S
C631 C623 1.503 . S
C631 C630 1.370 . S
C631 C632 1.403 . S
C632 C631 1.403 . S
C632 C633 1.404 . S
C632 C635 1.539 . S
C633 C629 1.408 . S
C633 C632 1.404 . S
C633 H645 0.930 . S
C634 C630 1.524 . S
C634 H646 0.956 . S
C634 H647 0.961 . S
C634 H648 0.961 . S
C635 C632 1.539 . S
C635 H649 0.958 . S
C635 H650 0.961 . S
C635 H651 0.960 . S
H636 C620 0.931 . S
H637 C625 0.929 . S
H638 C626 0.960 . S
H639 C626 0.962 . S
H640 C626 0.960 . S
H641 C627 0.961 . S
H642 C627 0.961 . S
H643 C627 0.961 . S
H644 C628 0.931 . S
H645 C633 0.930 . S
H646 C634 0.956 . S
H647 C634 0.961 . S
H648 C634 0.961 . S
H649 C635 0.958 . S
H650 C635 0.961 . S
H651 C635 0.960 . S
C652 C653 1.391 . S
C652 C654 1.394 . S
C652 H668 0.931 . S
C653 C652 1.391 . S
C653 C657 1.376 . S
C654 C652 1.394 . S
C654 C655 1.369 . S
C654 C658 1.531 . S
C655 C654 1.369 . S
C655 C656 1.410 . S
C655 C663 1.503 1_455 S
C656 C655 1.410 . S
C656 C657 1.392 . S
C656 C659 1.511 . S
C657 C653 1.376 . S
C657 C656 1.392 . S
C657 H669 0.929 . S
C658 C654 1.531 . S
C658 H670 0.960 . S
C658 H671 0.962 1_455 S
C658 H672 0.960 . S
C659 C656 1.511 . S
C659 H673 0.961 . S
C659 H674 0.961 . S
C659 H675 0.961 . S
C660 C661 1.370 . S
C660 C662 1.363 . S
C660 H676 0.931 . S
C661 C660 1.370 . S
C661 C665 1.408 1_655 S
C662 C660 1.363 . S
C662 C663 1.370 . S
C662 C666 1.524 . S
C663 C655 1.503 1_655 S
C663 C662 1.370 . S
C663 C664 1.403 1_655 S
C664 C663 1.403 1_455 S
C664 C665 1.404 . S
C664 C667 1.539 . S
C665 C661 1.408 1_455 S
C665 C664 1.404 . S
C665 H677 0.930 . S
C666 C662 1.524 . S
C666 H678 0.956 . S
C666 H679 0.961 . S
C666 H680 0.961 . S
C667 C664 1.539 . S
C667 H681 0.958 . S
C667 H682 0.961 . S
C667 H683 0.960 . S
H668 C652 0.931 . S
H669 C657 0.929 . S
H670 C658 0.960 . S
H671 C658 0.962 1_655 S
H672 C658 0.960 . S
H673 C659 0.961 . S
H674 C659 0.961 . S
H675 C659 0.961 . S
H676 C660 0.931 . S
H677 C665 0.930 . S
H678 C666 0.956 . S
H679 C666 0.961 . S
H680 C666 0.961 . S
H681 C667 0.958 . S
H682 C667 0.961 . S
H683 C667 0.960 . S
C684 C685 1.391 . S
C684 C686 1.394 . S
C684 H700 0.931 . S
C685 C684 1.391 . S
C685 C689 1.376 . S
C686 C684 1.394 . S
C686 C687 1.373 . S
C686 C690 1.531 . S
C687 C686 1.373 . S
C687 C688 1.413 . S
C687 C695 1.497 1_455 S
C688 C687 1.413 . S
C688 C689 1.392 . S
C688 C691 1.511 1_455 S
C689 C685 1.376 . S
C689 C688 1.392 . S
C689 H701 0.929 . S
C690 C686 1.531 . S
C690 H702 0.960 1_455 S
C690 H703 0.962 . S
C690 H704 0.966 1_455 S
C691 C688 1.511 1_655 S
C691 H705 0.961 1_655 S
C691 H706 0.961 . S
C691 H707 0.961 . S
C692 C693 1.370 . S
C692 C694 1.363 1_655 S
C692 H708 0.931 1_655 S
C693 C692 1.370 . S
C693 C697 1.408 . S
C694 C692 1.363 1_455 S
C694 C695 1.370 1_455 S
C694 C698 1.524 . S
C695 C687 1.497 1_655 S
C695 C694 1.370 1_655 S
C695 C696 1.403 . S
C696 C695 1.403 . S
C696 C697 1.404 . S
C696 C699 1.539 . S
C697 C693 1.408 . S
C697 C696 1.404 . S
C697 H709 0.930 . S
C698 C694 1.524 . S
C698 H710 0.956 . S
C698 H711 0.961 . S
C698 H712 0.961 . S
C699 C696 1.539 . S
C699 H713 0.958 . S
C699 H714 0.961 . S
C699 H715 0.960 . S
H700 C684 0.931 . S
H701 C689 0.929 . S
H702 C690 0.960 1_655 S
H703 C690 0.962 . S
H704 C690 0.966 1_655 S
H705 C691 0.961 1_455 S
H706 C691 0.961 . S
H707 C691 0.961 . S
H708 C692 0.931 1_455 S
H709 C697 0.930 . S
H710 C698 0.956 . S
H711 C698 0.961 . S
H712 C698 0.961 . S
H713 C699 0.958 . S
H714 C699 0.961 . S
H715 C699 0.960 . S
C716 C717 1.391 . S
C716 C718 1.394 . S
C716 H732 0.931 . S
C717 C716 1.391 . S
C717 C721 1.376 . S
C718 C716 1.394 . S
C718 C719 1.369 . S
C718 C722 1.531 . S
C719 C718 1.369 . S
C719 C720 1.410 1_545 S
C719 C727 1.503 1_545 S
C720 C719 1.410 1_565 S
C720 C721 1.392 1_565 S
C720 C723 1.511 . S
C721 C717 1.376 . S
C721 C720 1.392 1_545 S
C721 H733 0.929 1_545 S
C722 C718 1.531 . S
C722 H734 0.960 . S
C722 H735 0.962 . S
C722 H736 0.960 . S
C723 C720 1.511 . S
C723 H737 0.961 . S
C723 H738 0.961 . S
C723 H739 0.961 . S
C724 C725 1.370 . S
C724 C726 1.363 . S
C724 H740 0.931 . S
C725 C724 1.370 . S
C725 C729 1.408 . S
C726 C724 1.363 . S
C726 C727 1.370 . S
C726 C730 1.524 . S
C727 C719 1.503 1_565 S
C727 C726 1.370 . S
C727 C728 1.403 1_565 S
C728 C727 1.403 1_545 S
C728 C729 1.404 1_545 S
C728 C731 1.539 . S
C729 C725 1.408 . S
C729 C728 1.404 1_565 S
C729 H741 0.930 . S
C730 C726 1.524 . S
C730 H742 0.956 . S
C730 H743 0.961 . S
C730 H744 0.961 . S
C731 C728 1.539 . S
C731 H745 0.958 . S
C731 H746 0.961 . S
C731 H747 0.960 . S
H732 C716 0.931 . S
H733 C721 0.929 1_565 S
H734 C722 0.960 . S
H735 C722 0.962 . S
H736 C722 0.960 . S
H737 C723 0.961 . S
H738 C723 0.961 . S
H739 C723 0.961 . S
H740 C724 0.931 . S
H741 C729 0.930 . S
H742 C730 0.956 . S
H743 C730 0.961 . S
H744 C730 0.961 . S
H745 C731 0.958 . S
H746 C731 0.961 . S
H747 C731 0.960 . S
C748 C749 1.391 . S
C748 C750 1.394 . S
C748 H764 0.931 . S
C749 C748 1.391 . S
C749 C753 1.376 . S
C750 C748 1.394 . S
C750 C751 1.369 . S
C750 C754 1.531 . S
C751 C750 1.369 . S
C751 C752 1.410 . S
C751 C759 1.503 . S
C752 C751 1.410 . S
C752 C753 1.392 . S
C752 C755 1.511 . S
C753 C749 1.376 . S
C753 C752 1.392 . S
C753 H765 0.929 . S
C754 C750 1.531 . S
C754 H766 0.960 . S
C754 H767 0.962 . S
C754 H768 0.960 . S
C755 C752 1.511 . S
C755 H769 0.961 . S
C755 H770 0.961 . S
C755 H771 0.961 . S
C756 C757 1.370 . S
C756 C758 1.363 . S
C756 H772 0.931 . S
C757 C756 1.370 . S
C757 C761 1.408 . S
C758 C756 1.363 . S
C758 C759 1.370 . S
C758 C762 1.524 . S
C759 C751 1.503 . S
C759 C758 1.370 . S
C759 C760 1.403 . S
C760 C759 1.403 . S
C760 C761 1.404 . S
C760 C763 1.539 . S
C761 C757 1.408 . S
C761 C760 1.404 . S
C761 H773 0.930 . S
C762 C758 1.524 . S
C762 H774 0.956 . S
C762 H775 0.961 . S
C762 H776 0.961 . S
C763 C760 1.539 . S
C763 H777 0.958 . S
C763 H778 0.961 . S
C763 H779 0.960 . S
H764 C748 0.931 . S
H765 C753 0.929 . S
H766 C754 0.960 . S
H767 C754 0.962 . S
H768 C754 0.960 . S
H769 C755 0.961 . S
H770 C755 0.961 . S
H771 C755 0.961 . S
H772 C756 0.931 . S
H773 C761 0.930 . S
H774 C762 0.956 . S
H775 C762 0.961 . S
H776 C762 0.961 . S
H777 C763 0.958 . S
H778 C763 0.961 . S
H779 C763 0.960 . S
C780 C781 1.391 . S
C780 C782 1.394 . S
C780 H796 0.931 . S
C781 C780 1.391 . S
C781 C785 1.376 . S
C782 C780 1.394 . S
C782 C783 1.369 . S
C782 C786 1.531 . S
C783 C782 1.369 . S
C783 C784 1.410 . S
C783 C791 1.503 . S
C784 C783 1.410 . S
C784 C785 1.392 . S
C784 C787 1.511 . S
C785 C781 1.376 . S
C785 C784 1.392 . S
C785 H797 0.929 . S
C786 C782 1.531 . S
C786 H798 0.960 . S
C786 H799 0.962 . S
C786 H800 0.960 . S
C787 C784 1.511 . S
C787 H801 0.961 . S
C787 H802 0.961 . S
C787 H803 0.961 . S
C788 C789 1.370 . S
C788 C790 1.363 . S
C788 H804 0.931 . S
C789 C788 1.370 . S
C789 C793 1.408 . S
C790 C788 1.363 . S
C790 C791 1.370 . S
C790 C794 1.524 . S
C791 C783 1.503 . S
C791 C790 1.370 . S
C791 C792 1.403 . S
C792 C791 1.403 . S
C792 C793 1.404 . S
C792 C795 1.539 . S
C793 C789 1.408 . S
C793 C792 1.404 . S
C793 H805 0.930 . S
C794 C790 1.524 . S
C794 H806 0.956 . S
C794 H807 0.961 . S
C794 H808 0.961 . S
C795 C792 1.539 . S
C795 H809 0.958 . S
C795 H810 0.961 . S
C795 H811 0.960 . S
H796 C780 0.931 . S
H797 C785 0.929 . S
H798 C786 0.960 . S
H799 C786 0.962 . S
H800 C786 0.960 . S
H801 C787 0.961 . S
H802 C787 0.961 . S
H803 C787 0.961 . S
H804 C788 0.931 . S
H805 C793 0.930 . S
H806 C794 0.956 . S
H807 C794 0.961 . S
H808 C794 0.961 . S
H809 C795 0.958 . S
H810 C795 0.961 . S
H811 C795 0.960 . S
C812 C813 1.391 . S
C812 C814 1.394 . S
C812 H828 0.931 . S
C813 C812 1.391 . S
C813 C817 1.376 . S
C814 C812 1.394 . S
C814 C815 1.369 . S
C814 C818 1.531 . S
C815 C814 1.369 . S
C815 C816 1.410 . S
C815 C823 1.503 . S
C816 C815 1.410 . S
C816 C817 1.392 . S
C816 C819 1.511 . S
C817 C813 1.376 . S
C817 C816 1.392 . S
C817 H829 0.929 . S
C818 C814 1.531 . S
C818 H830 0.960 . S
C818 H831 0.962 . S
C818 H832 0.960 . S
C819 C816 1.511 . S
C819 H833 0.961 . S
C819 H834 0.961 . S
C819 H835 0.961 . S
C820 C821 1.370 . S
C820 C822 1.363 . S
C820 H836 0.931 . S
C821 C820 1.370 . S
C821 C825 1.408 . S
C822 C820 1.363 . S
C822 C823 1.370 . S
C822 C826 1.524 . S
C823 C815 1.503 . S
C823 C822 1.370 . S
C823 C824 1.403 . S
C824 C823 1.403 . S
C824 C825 1.404 . S
C824 C827 1.539 . S
C825 C821 1.408 . S
C825 C824 1.404 . S
C825 H837 0.930 . S
C826 C822 1.524 . S
C826 H838 0.956 . S
C826 H839 0.961 . S
C826 H840 0.961 . S
C827 C824 1.539 . S
C827 H841 0.958 . S
C827 H842 0.961 . S
C827 H843 0.960 . S
H828 C812 0.931 . S
H829 C817 0.929 . S
H830 C818 0.960 . S
H831 C818 0.962 . S
H832 C818 0.960 . S
H833 C819 0.961 . S
H834 C819 0.961 . S
H835 C819 0.961 . S
H836 C820 0.931 . S
H837 C825 0.930 . S
H838 C826 0.956 . S
H839 C826 0.961 . S
H840 C826 0.961 . S
H841 C827 0.958 . S
H842 C827 0.961 . S
H843 C827 0.960 . S
C844 C845 1.391 . S
C844 C846 1.394 . S
C844 H860 0.931 . S
C845 C844 1.391 . S
C845 C849 1.376 . S
C846 C844 1.394 . S
C846 C847 1.369 . S
C846 C850 1.531 . S
C847 C846 1.369 . S
C847 C848 1.410 . S
C847 C855 1.503 . S
C848 C847 1.410 . S
C848 C849 1.392 . S
C848 C851 1.511 . S
C849 C845 1.376 . S
C849 C848 1.392 . S
C849 H861 0.929 . S
C850 C846 1.531 . S
C850 H862 0.960 . S
C850 H863 0.962 . S
C850 H864 0.960 . S
C851 C848 1.511 . S
C851 H865 0.961 . S
C851 H866 0.961 . S
C851 H867 0.961 . S
C852 C853 1.370 . S
C852 C854 1.363 . S
C852 H868 0.931 . S
C853 C852 1.370 . S
C853 C857 1.408 . S
C854 C852 1.363 . S
C854 C855 1.370 . S
C854 C858 1.524 . S
C855 C847 1.503 . S
C855 C854 1.370 . S
C855 C856 1.403 . S
C856 C855 1.403 . S
C856 C857 1.404 . S
C856 C859 1.539 . S
C857 C853 1.408 . S
C857 C856 1.404 . S
C857 H869 0.930 . S
C858 C854 1.524 . S
C858 H870 0.956 . S
C858 H871 0.961 . S
C858 H872 0.961 . S
C859 C856 1.539 . S
C859 H873 0.958 . S
C859 H874 0.961 . S
C859 H875 0.960 . S
H860 C844 0.931 . S
H861 C849 0.929 . S
H862 C850 0.960 . S
H863 C850 0.962 . S
H864 C850 0.960 . S
H865 C851 0.961 . S
H866 C851 0.961 . S
H867 C851 0.961 . S
H868 C852 0.931 . S
H869 C857 0.930 . S
H870 C858 0.956 . S
H871 C858 0.961 . S
H872 C858 0.961 . S
H873 C859 0.958 . S
H874 C859 0.961 . S
H875 C859 0.960 . S
C876 C877 1.391 . S
C876 C878 1.394 . S
C876 H892 0.931 . S
C877 C876 1.391 . S
C877 C881 1.376 . S
C878 C876 1.394 . S
C878 C879 1.369 . S
C878 C882 1.531 . S
C879 C878 1.369 . S
C879 C880 1.410 . S
C879 C887 1.503 . S
C880 C879 1.410 . S
C880 C881 1.392 . S
C880 C883 1.511 . S
C881 C877 1.376 . S
C881 C880 1.392 . S
C881 H893 0.929 . S
C882 C878 1.531 . S
C882 H894 0.960 . S
C882 H895 0.962 . S
C882 H896 0.960 . S
C883 C880 1.511 . S
C883 H897 0.961 . S
C883 H898 0.961 . S
C883 H899 0.961 . S
C884 C885 1.370 . S
C884 C886 1.363 . S
C884 H900 0.931 . S
C885 C884 1.370 . S
C885 C889 1.408 . S
C886 C884 1.363 . S
C886 C887 1.370 . S
C886 C890 1.524 . S
C887 C879 1.503 . S
C887 C886 1.370 . S
C887 C888 1.403 . S
C888 C887 1.403 . S
C888 C889 1.404 . S
C888 C891 1.539 . S
C889 C885 1.408 . S
C889 C888 1.404 . S
C889 H901 0.930 . S
C890 C886 1.524 . S
C890 H902 0.956 . S
C890 H903 0.961 . S
C890 H904 0.961 . S
C891 C888 1.539 . S
C891 H905 0.958 . S
C891 H906 0.961 . S
C891 H907 0.960 . S
H892 C876 0.931 . S
H893 C881 0.929 . S
H894 C882 0.960 . S
H895 C882 0.962 . S
H896 C882 0.960 . S
H897 C883 0.961 . S
H898 C883 0.961 . S
H899 C883 0.961 . S
H900 C884 0.931 . S
H901 C889 0.930 . S
H902 C890 0.956 . S
H903 C890 0.961 . S
H904 C890 0.961 . S
H905 C891 0.958 . S
H906 C891 0.961 . S
H907 C891 0.960 . S
C908 C909 1.391 . S
C908 C910 1.394 . S
C908 H924 0.931 . S
C909 C908 1.391 . S
C909 C913 1.376 . S
C910 C908 1.394 . S
C910 C911 1.369 . S
C910 C914 1.531 . S
C911 C910 1.369 . S
C911 C912 1.410 . S
C911 C919 1.503 . S
C912 C911 1.410 . S
C912 C913 1.392 . S
C912 C915 1.511 . S
C913 C909 1.376 . S
C913 C912 1.392 . S
C913 H925 0.929 . S
C914 C910 1.531 . S
C914 H926 0.960 . S
C914 H927 0.962 . S
C914 H928 0.960 . S
C915 C912 1.511 . S
C915 H929 0.961 . S
C915 H930 0.961 . S
C915 H931 0.961 . S
C916 C917 1.370 . S
C916 C918 1.363 . S
C916 H932 0.931 . S
C917 C916 1.370 . S
C917 C921 1.408 . S
C918 C916 1.363 . S
C918 C919 1.370 . S
C918 C922 1.524 . S
C919 C911 1.503 . S
C919 C918 1.370 . S
C919 C920 1.403 . S
C920 C919 1.403 . S
C920 C921 1.404 . S
C920 C923 1.539 . S
C921 C917 1.408 . S
C921 C920 1.404 . S
C921 H933 0.930 . S
C922 C918 1.524 . S
C922 H934 0.956 . S
C922 H935 0.961 . S
C922 H936 0.961 . S
C923 C920 1.539 . S
C923 H937 0.958 . S
C923 H938 0.961 . S
C923 H939 0.960 . S
H924 C908 0.931 . S
H925 C913 0.929 . S
H926 C914 0.960 . S
H927 C914 0.962 . S
H928 C914 0.960 . S
H929 C915 0.961 . S
H930 C915 0.961 . S
H931 C915 0.961 . S
H932 C916 0.931 . S
H933 C921 0.930 . S
H934 C922 0.956 . S
H935 C922 0.961 . S
H936 C922 0.961 . S
H937 C923 0.958 . S
H938 C923 0.961 . S
H939 C923 0.960 . S
C940 C941 1.391 . S
C940 C942 1.394 . S
C940 H956 0.931 . S
C941 C940 1.391 . S
C941 C945 1.376 . S
C942 C940 1.394 . S
C942 C943 1.369 . S
C942 C946 1.531 . S
C943 C942 1.369 . S
C943 C944 1.410 . S
C943 C951 1.503 . S
C944 C943 1.410 . S
C944 C945 1.392 . S
C944 C947 1.511 . S
C945 C941 1.376 . S
C945 C944 1.392 . S
C945 H957 0.929 . S
C946 C942 1.531 . S
C946 H958 0.960 . S
C946 H959 0.962 . S
C946 H960 0.960 . S
C947 C944 1.511 . S
C947 H961 0.961 . S
C947 H962 0.961 . S
C947 H963 0.961 . S
C948 C949 1.370 . S
C948 C950 1.363 . S
C948 H964 0.931 . S
C949 C948 1.370 . S
C949 C953 1.408 . S
C950 C948 1.363 . S
C950 C951 1.370 . S
C950 C954 1.524 . S
C951 C943 1.503 . S
C951 C950 1.370 . S
C951 C952 1.403 . S
C952 C951 1.403 . S
C952 C953 1.404 . S
C952 C955 1.539 . S
C953 C949 1.408 . S
C953 C952 1.404 . S
C953 H965 0.930 . S
C954 C950 1.524 . S
C954 H966 0.956 . S
C954 H967 0.961 . S
C954 H968 0.961 . S
C955 C952 1.539 . S
C955 H969 0.958 . S
C955 H970 0.961 . S
C955 H971 0.960 . S
H956 C940 0.931 . S
H957 C945 0.929 . S
H958 C946 0.960 . S
H959 C946 0.962 . S
H960 C946 0.960 . S
H961 C947 0.961 . S
H962 C947 0.961 . S
H963 C947 0.961 . S
H964 C948 0.931 . S
H965 C953 0.930 . S
H966 C954 0.956 . S
H967 C954 0.961 . S
H968 C954 0.961 . S
H969 C955 0.958 . S
H970 C955 0.961 . S
H971 C955 0.960 . S
C972 C973 1.391 . S
C972 C974 1.394 . S
C972 H988 0.931 . S
C973 C972 1.391 . S
C973 C977 1.376 . S
C974 C972 1.394 . S
C974 C975 1.369 . S
C974 C978 1.531 . S
C975 C974 1.369 . S
C975 C976 1.410 . S
C975 C983 1.503 . S
C976 C975 1.410 . S
C976 C977 1.392 . S
C976 C979 1.511 . S
C977 C973 1.376 . S
C977 C976 1.392 . S
C977 H989 0.929 . S
C978 C974 1.531 . S
C978 H990 0.960 . S
C978 H991 0.962 . S
C978 H992 0.960 . S
C979 C976 1.511 . S
C979 H993 0.961 . S
C979 H994 0.961 . S
C979 H995 0.961 . S
C980 C981 1.370 . S
C980 C982 1.363 . S
C980 H996 0.931 . S
C981 C980 1.370 . S
C981 C985 1.408 . S
C982 C980 1.363 . S
C982 C983 1.370 . S
C982 C986 1.524 . S
C983 C975 1.503 . S
C983 C982 1.370 . S
C983 C984 1.403 . S
C984 C983 1.403 . S
C984 C985 1.404 . S
C984 C987 1.539 . S
C985 C981 1.408 . S
C985 C984 1.404 . S
C985 H997 0.930 . S
C986 C982 1.524 . S
C986 H998 0.956 . S
C986 H999 0.961 . S
C986 H1000 0.961 . S
C987 C984 1.539 . S
C987 H1001 0.958 . S
C987 H1002 0.961 . S
C987 H1003 0.960 . S
H988 C972 0.931 . S
H989 C977 0.929 . S
H990 C978 0.960 . S
H991 C978 0.962 . S
H992 C978 0.960 . S
H993 C979 0.961 . S
H994 C979 0.961 . S
H995 C979 0.961 . S
H996 C980 0.931 . S
H997 C985 0.930 . S
H998 C986 0.956 . S
H999 C986 0.961 . S
H1000 C986 0.961 . S
H1001 C987 0.958 . S
H1002 C987 0.961 . S
H1003 C987 0.960 . S
C1004 C1005 1.391 . S
C1004 C1006 1.394 . S
C1004 H1020 0.931 . S
C1005 C1004 1.391 . S
C1005 C1009 1.376 . S
C1006 C1004 1.394 . S
C1006 C1007 1.369 . S
C1006 C1010 1.531 . S
C1007 C1006 1.369 . S
C1007 C1008 1.410 1_455 S
C1007 C1015 1.503 1_455 S
C1008 C1007 1.410 1_655 S
C1008 C1009 1.392 1_655 S
C1008 C1011 1.511 . S
C1009 C1005 1.376 . S
C1009 C1008 1.392 1_455 S
C1009 H1021 0.929 1_455 S
C1010 C1006 1.531 . S
C1010 H1022 0.960 . S
C1010 H1023 0.962 . S
C1010 H1024 0.960 . S
C1011 C1008 1.511 . S
C1011 H1025 0.961 . S
C1011 H1026 0.961 . S
C1011 H1027 0.961 . S
C1012 C1013 1.370 . S
C1012 C1014 1.363 . S
C1012 H1028 0.931 . S
C1013 C1012 1.370 . S
C1013 C1017 1.408 . S
C1014 C1012 1.363 . S
C1014 C1015 1.370 . S
C1014 C1018 1.524 1_655 S
C1015 C1007 1.503 1_655 S
C1015 C1014 1.370 . S
C1015 C1016 1.403 . S
C1016 C1015 1.403 . S
C1016 C1017 1.404 . S
C1016 C1019 1.539 . S
C1017 C1013 1.408 . S
C1017 C1016 1.404 . S
C1017 H1029 0.930 . S
C1018 C1014 1.524 1_455 S
C1018 H1030 0.956 . S
C1018 H1031 0.961 . S
C1018 H1032 0.961 . S
C1019 C1016 1.539 . S
C1019 H1033 0.958 . S
C1019 H1034 0.961 . S
C1019 H1035 0.960 . S
H1020 C1004 0.931 . S
H1021 C1009 0.929 1_655 S
H1022 C1010 0.960 . S
H1023 C1010 0.962 . S
H1024 C1010 0.960 . S
H1025 C1011 0.961 . S
H1026 C1011 0.961 . S
H1027 C1011 0.961 . S
H1028 C1012 0.931 . S
H1029 C1017 0.930 . S
H1030 C1018 0.956 . S
H1031 C1018 0.961 . S
H1032 C1018 0.961 . S
H1033 C1019 0.958 . S
H1034 C1019 0.961 . S
H1035 C1019 0.960 . S
C1036 C1037 1.391 . S
C1036 C1038 1.394 . S
C1036 H1052 0.931 . S
C1037 C1036 1.391 . S
C1037 C1041 1.376 . S
C1038 C1036 1.394 . S
C1038 C1039 1.369 . S
C1038 C1042 1.531 . S
C1039 C1038 1.369 . S
C1039 C1040 1.410 . S
C1039 C1047 1.503 1_565 S
C1040 C1039 1.410 . S
C1040 C1041 1.392 . S
C1040 C1043 1.511 . S
C1041 C1037 1.376 . S
C1041 C1040 1.392 . S
C1041 H1053 0.929 . S
C1042 C1038 1.531 . S
C1042 H1054 0.960 . S
C1042 H1055 0.962 . S
C1042 H1056 0.960 . S
C1043 C1040 1.511 . S
C1043 H1057 0.961 . S
C1043 H1058 0.961 1_565 S
C1043 H1059 0.961 . S
C1044 C1045 1.370 . S
C1044 C1046 1.363 . S
C1044 H1060 0.931 . S
C1045 C1044 1.370 . S
C1045 C1049 1.408 . S
C1046 C1044 1.363 . S
C1046 C1047 1.370 . S
C1046 C1050 1.524 . S
C1047 C1039 1.503 1_545 S
C1047 C1046 1.370 . S
C1047 C1048 1.403 1_545 S
C1048 C1047 1.403 1_565 S
C1048 C1049 1.404 1_565 S
C1048 C1051 1.539 . S
C1049 C1045 1.408 . S
C1049 C1048 1.404 1_545 S
C1049 H1061 0.930 1_545 S
C1050 C1046 1.524 . S
C1050 H1062 0.956 . S
C1050 H1063 0.961 . S
C1050 H1064 0.961 . S
C1051 C1048 1.539 . S
C1051 H1065 0.958 . S
C1051 H1066 0.961 . S
C1051 H1067 0.960 . S
H1052 C1036 0.931 . S
H1053 C1041 0.929 . S
H1054 C1042 0.960 . S
H1055 C1042 0.962 . S
H1056 C1042 0.960 . S
H1057 C1043 0.961 . S
H1058 C1043 0.961 1_545 S
H1059 C1043 0.961 . S
H1060 C1044 0.931 . S
H1061 C1049 0.930 1_565 S
H1062 C1050 0.956 . S
H1063 C1050 0.961 . S
H1064 C1050 0.961 . S
H1065 C1051 0.958 . S
H1066 C1051 0.961 . S
H1067 C1051 0.960 . S
C1068 C1069 1.391 . S
C1068 C1070 1.394 . S
C1068 H1084 0.931 . S
C1069 C1068 1.391 . S
C1069 C1073 1.376 . S
C1070 C1068 1.394 . S
C1070 C1071 1.369 . S
C1070 C1074 1.531 . S
C1071 C1070 1.369 . S
C1071 C1072 1.410 . S
C1071 C1079 1.503 . S
C1072 C1071 1.410 . S
C1072 C1073 1.392 . S
C1072 C1075 1.511 . S
C1073 C1069 1.376 . S
C1073 C1072 1.392 . S
C1073 H1085 0.929 . S
C1074 C1070 1.531 . S
C1074 H1086 0.960 . S
C1074 H1087 0.962 . S
C1074 H1088 0.960 . S
C1075 C1072 1.511 . S
C1075 H1089 0.961 . S
C1075 H1090 0.961 . S
C1075 H1091 0.961 . S
C1076 C1077 1.370 . S
C1076 C1078 1.363 . S
C1076 H1092 0.931 . S
C1077 C1076 1.370 . S
C1077 C1081 1.408 . S
C1078 C1076 1.363 . S
C1078 C1079 1.370 . S
C1078 C1082 1.524 . S
C1079 C1071 1.503 . S
C1079 C1078 1.370 . S
C1079 C1080 1.403 . S
C1080 C1079 1.403 . S
C1080 C1081 1.404 . S
C1080 C1083 1.539 . S
C1081 C1077 1.408 . S
C1081 C1080 1.404 . S
C1081 H1093 0.930 . S
C1082 C1078 1.524 . S
C1082 H1094 0.956 . S
C1082 H1095 0.961 . S
C1082 H1096 0.961 . S
C1083 C1080 1.539 . S
C1083 H1097 0.958 . S
C1083 H1098 0.961 . S
C1083 H1099 0.960 . S
H1084 C1068 0.931 . S
H1085 C1073 0.929 . S
H1086 C1074 0.960 . S
H1087 C1074 0.962 . S
H1088 C1074 0.960 . S
H1089 C1075 0.961 . S
H1090 C1075 0.961 . S
H1091 C1075 0.961 . S
H1092 C1076 0.931 . S
H1093 C1081 0.930 . S
H1094 C1082 0.956 . S
H1095 C1082 0.961 . S
H1096 C1082 0.961 . S
H1097 C1083 0.958 . S
H1098 C1083 0.961 . S
H1099 C1083 0.960 . S
C1100 C1101 1.391 . S
C1100 C1102 1.394 1_455 S
C1100 H1116 0.931 . S
C1101 C1100 1.391 . S
C1101 C1105 1.376 . S
C1102 C1100 1.394 1_655 S
C1102 C1103 1.369 1_655 S
C1102 C1106 1.531 . S
C1103 C1102 1.369 1_455 S
C1103 C1104 1.410 . S
C1103 C1111 1.503 1_455 S
C1104 C1103 1.410 . S
C1104 C1105 1.392 . S
C1104 C1107 1.511 . S
C1105 C1101 1.376 . S
C1105 C1104 1.392 . S
C1105 H1117 0.929 . S
C1106 C1102 1.531 . S
C1106 H1118 0.960 . S
C1106 H1119 0.962 . S
C1106 H1120 0.960 . S
C1107 C1104 1.511 . S
C1107 H1121 0.961 . S
C1107 H1122 0.961 . S
C1107 H1123 0.961 . S
C1108 C1109 1.370 . S
C1108 C1110 1.363 . S
C1108 H1124 0.931 . S
C1109 C1108 1.370 . S
C1109 C1113 1.408 . S
C1110 C1108 1.363 . S
C1110 C1111 1.370 . S
C1110 C1114 1.524 . S
C1111 C1103 1.503 1_655 S
C1111 C1110 1.370 . S
C1111 C1112 1.403 . S
C1112 C1111 1.403 . S
C1112 C1113 1.404 . S
C1112 C1115 1.539 1_655 S
C1113 C1109 1.408 . S
C1113 C1112 1.404 . S
C1113 H1125 0.930 . S
C1114 C1110 1.524 . S
C1114 H1126 0.956 . S
C1114 H1127 0.961 . S
C1114 H1128 0.961 . S
C1115 C1112 1.539 1_455 S
C1115 H1129 0.958 . S
C1115 H1130 0.961 . S
C1115 H1131 0.960 . S
H1116 C1100 0.931 . S
H1117 C1105 0.929 . S
H1118 C1106 0.960 . S
H1119 C1106 0.962 . S
H1120 C1106 0.960 . S
H1121 C1107 0.961 . S
H1122 C1107 0.961 . S
H1123 C1107 0.961 . S
H1124 C1108 0.931 . S
H1125 C1113 0.930 . S
H1126 C1114 0.956 . S
H1127 C1114 0.961 . S
H1128 C1114 0.961 . S
H1129 C1115 0.958 . S
H1130 C1115 0.961 . S
H1131 C1115 0.960 . S
C1132 C1133 1.391 . S
C1132 C1134 1.394 . S
C1132 H1148 0.931 . S
C1133 C1132 1.391 . S
C1133 C1137 1.376 . S
C1134 C1132 1.394 . S
C1134 C1135 1.369 . S
C1134 C1138 1.531 1_565 S
C1135 C1134 1.369 . S
C1135 C1136 1.410 . S
C1135 C1143 1.503 1_565 S
C1136 C1135 1.410 . S
C1136 C1137 1.392 . S
C1136 C1139 1.511 . S
C1137 C1133 1.376 . S
C1137 C1136 1.392 . S
C1137 H1149 0.929 . S
C1138 C1134 1.531 1_545 S
C1138 H1150 0.960 . S
C1138 H1151 0.962 . S
C1138 H1152 0.960 . S
C1139 C1136 1.511 . S
C1139 H1153 0.961 . S
C1139 H1154 0.961 . S
C1139 H1155 0.961 . S
C1140 C1141 1.370 . S
C1140 C1142 1.363 . S
C1140 H1156 0.931 . S
C1141 C1140 1.370 . S
C1141 C1145 1.408 . S
C1142 C1140 1.363 . S
C1142 C1143 1.370 . S
C1142 C1146 1.524 . S
C1143 C1135 1.503 1_545 S
C1143 C1142 1.370 . S
C1143 C1144 1.403 1_545 S
C1144 C1143 1.403 1_565 S
C1144 C1145 1.404 1_565 S
C1144 C1147 1.539 . S
C1145 C1141 1.408 . S
C1145 C1144 1.404 1_545 S
C1145 H1157 0.930 . S
C1146 C1142 1.524 . S
C1146 H1158 0.956 . S
C1146 H1159 0.961 . S
C1146 H1160 0.961 . S
C1147 C1144 1.539 . S
C1147 H1161 0.958 . S
C1147 H1162 0.961 . S
C1147 H1163 0.960 . S
H1148 C1132 0.931 . S
H1149 C1137 0.929 . S
H1150 C1138 0.960 . S
H1151 C1138 0.962 . S
H1152 C1138 0.960 . S
H1153 C1139 0.961 . S
H1154 C1139 0.961 . S
H1155 C1139 0.961 . S
H1156 C1140 0.931 . S
H1157 C1145 0.930 . S
H1158 C1146 0.956 . S
H1159 C1146 0.961 . S
H1160 C1146 0.961 . S
H1161 C1147 0.958 . S
H1162 C1147 0.961 . S
H1163 C1147 0.960 . S
C1164 C1165 1.391 . S
C1164 C1166 1.394 . S
C1164 H1180 0.931 . S
C1165 C1164 1.391 . S
C1165 C1169 1.380 . S
C1166 C1164 1.394 . S
C1166 C1167 1.369 . S
C1166 C1170 1.531 . S
C1167 C1166 1.369 . S
C1167 C1168 1.410 1_545 S
C1167 C1175 1.503 1_445 S
C1168 C1167 1.410 1_565 S
C1168 C1169 1.393 1_565 S
C1168 C1171 1.511 . S
C1169 C1165 1.380 . S
C1169 C1168 1.393 1_545 S
C1169 H1181 0.924 1_545 S
C1170 C1166 1.531 . S
C1170 H1182 0.960 . S
C1170 H1183 0.962 . S
C1170 H1184 0.960 . S
C1171 C1168 1.511 . S
C1171 H1185 0.961 . S
C1171 H1186 0.961 1_455 S
C1171 H1187 0.961 . S
C1172 C1173 1.370 . S
C1172 C1174 1.363 . S
C1172 H1188 0.931 . S
C1173 C1172 1.370 . S
C1173 C1177 1.408 . S
C1174 C1172 1.363 . S
C1174 C1175 1.370 . S
C1174 C1178 1.524 . S
C1175 C1167 1.503 1_665 S
C1175 C1174 1.370 . S
C1175 C1176 1.403 . S
C1176 C1175 1.403 . S
C1176 C1177 1.404 . S
C1176 C1179 1.539 . S
C1177 C1173 1.408 . S
C1177 C1176 1.404 . S
C1177 H1189 0.930 . S
C1178 C1174 1.524 . S
C1178 H1190 0.956 1_665 S
C1178 H1191 0.959 . S
C1178 H1192 0.961 . S
C1179 C1176 1.539 . S
C1179 H1193 0.958 1_565 S
C1179 H1194 0.961 . S
C1179 H1195 0.960 . S
H1180 C1164 0.931 . S
H1181 C1169 0.924 1_565 S
H1182 C1170 0.960 . S
H1183 C1170 0.962 . S
H1184 C1170 0.960 . S
H1185 C1171 0.961 . S
H1186 C1171 0.961 1_655 S
H1187 C1171 0.961 . S
H1188 C1172 0.931 . S
H1189 C1177 0.930 . S
H1190 C1178 0.956 1_445 S
H1191 C1178 0.959 . S
H1192 C1178 0.961 . S
H1193 C1179 0.958 1_545 S
H1194 C1179 0.961 . S
H1195 C1179 0.960 . S
C1196 C1197 1.391 . S
C1196 C1198 1.394 . S
C1196 H1212 0.931 . S
C1197 C1196 1.391 . S
C1197 C1201 1.376 . S
C1198 C1196 1.394 . S
C1198 C1199 1.369 . S
C1198 C1202 1.531 . S
C1199 C1198 1.369 . S
C1199 C1200 1.410 . S
C1199 C1207 1.503 1_445 S
C1200 C1199 1.410 . S
C1200 C1201 1.392 . S
C1200 C1203 1.511 1_455 S
C1201 C1197 1.376 . S
C1201 C1200 1.392 . S
C1201 H1213 0.929 . S
C1202 C1198 1.531 . S
C1202 H1214 0.960 1_545 S
C1202 H1215 0.962 . S
C1202 H1216 0.960 . S
C1203 C1200 1.511 1_655 S
C1203 H1217 0.961 . S
C1203 H1218 0.961 . S
C1203 H1219 0.961 . S
C1204 C1205 1.370 . S
C1204 C1206 1.363 . S
C1204 H1220 0.931 . S
C1205 C1204 1.370 . S
C1205 C1209 1.408 . S
C1206 C1204 1.363 . S
C1206 C1207 1.370 . S
C1206 C1210 1.524 . S
C1207 C1199 1.503 1_665 S
C1207 C1206 1.370 . S
C1207 C1208 1.403 . S
C1208 C1207 1.403 . S
C1208 C1209 1.404 . S
C1208 C1211 1.539 1_655 S
C1209 C1205 1.408 . S
C1209 C1208 1.404 . S
C1209 H1221 0.930 . S
C1210 C1206 1.524 . S
C1210 H1222 0.956 . S
C1210 H1223 0.961 1_565 S
C1210 H1224 0.961 . S
C1211 C1208 1.539 1_455 S
C1211 H1225 0.958 . S
C1211 H1226 0.961 . S
C1211 H1227 0.960 . S
H1212 C1196 0.931 . S
H1213 C1201 0.929 . S
H1214 C1202 0.960 1_565 S
H1215 C1202 0.962 . S
H1216 C1202 0.960 . S
H1217 C1203 0.961 . S
H1218 C1203 0.961 . S
H1219 C1203 0.961 . S
H1220 C1204 0.931 . S
H1221 C1209 0.930 . S
H1222 C1210 0.956 . S
H1223 C1210 0.961 1_545 S
H1224 C1210 0.961 . S
H1225 C1211 0.958 . S
H1226 C1211 0.961 . S
H1227 C1211 0.960 . S
C1228 C1229 1.391 . S
C1228 C1230 1.394 1_655 S
C1228 H1244 0.931 1_655 S
C1229 C1228 1.391 . S
C1229 C1233 1.376 . S
C1230 C1228 1.394 1_455 S
C1230 C1231 1.369 1_455 S
C1230 C1234 1.531 . S
C1231 C1230 1.369 1_655 S
C1231 C1232 1.410 1_545 S
C1231 C1239 1.503 1_645 S
C1232 C1231 1.410 1_565 S
C1232 C1233 1.392 1_565 S
C1232 C1235 1.511 . S
C1233 C1229 1.376 . S
C1233 C1232 1.392 1_545 S
C1233 H1245 0.929 . S
C1234 C1230 1.531 . S
C1234 H1246 0.960 . S
C1234 H1247 0.962 . S
C1234 H1248 0.960 . S
C1235 C1232 1.511 . S
C1235 H1249 0.961 . S
C1235 H1250 0.961 . S
C1235 H1251 0.961 . S
C1236 C1237 1.370 . S
C1236 C1238 1.363 . S
C1236 H1252 0.931 . S
C1237 C1236 1.370 . S
C1237 C1241 1.408 . S
C1238 C1236 1.363 . S
C1238 C1239 1.370 . S
C1238 C1242 1.524 1_565 S
C1239 C1231 1.503 1_465 S
C1239 C1238 1.370 . S
C1239 C1240 1.403 1_455 S
C1240 C1239 1.403 1_655 S
C1240 C1241 1.404 1_655 S
C1240 C1243 1.539 . S
C1241 C1237 1.408 . S
C1241 C1240 1.404 1_455 S
C1241 H1253 0.930 . S
C1242 C1238 1.524 1_545 S
C1242 H1254 0.956 . S
C1242 H1255 0.961 . S
C1242 H1256 0.961 . S
C1243 C1240 1.539 . S
C1243 H1257 0.958 . S
C1243 H1258 0.961 . S
C1243 H1259 0.960 . S
H1244 C1228 0.931 1_455 S
H1245 C1233 0.929 . S
H1246 C1234 0.960 . S
H1247 C1234 0.962 . S
H1248 C1234 0.960 . S
H1249 C1235 0.961 . S
H1250 C1235 0.961 . S
H1251 C1235 0.961 . S
H1252 C1236 0.931 . S
H1253 C1241 0.930 . S
H1254 C1242 0.956 . S
H1255 C1242 0.961 . S
H1256 C1242 0.961 . S
H1257 C1243 0.958 . S
H1258 C1243 0.961 . S
H1259 C1243 0.960 . S
C1260 C1261 1.390 . S
C1260 C1262 1.393 1_655 S
C1260 H1276 0.932 1_655 S
C1261 C1260 1.390 . S
C1261 C1265 1.376 . S
C1262 C1260 1.393 1_455 S
C1262 C1263 1.369 1_455 S
C1262 C1266 1.531 . S
C1263 C1262 1.369 1_655 S
C1263 C1264 1.410 . S
C1263 C1271 1.503 1_665 S
C1264 C1263 1.410 . S
C1264 C1265 1.392 . S
C1264 C1267 1.511 . S
C1265 C1261 1.376 . S
C1265 C1264 1.392 . S
C1265 H1277 0.929 . S
C1266 C1262 1.531 . S
C1266 H1278 0.960 1_565 S
C1266 H1279 0.962 . S
C1266 H1280 0.960 . S
C1267 C1264 1.511 . S
C1267 H1281 0.961 . S
C1267 H1282 0.961 . S
C1267 H1283 0.961 . S
C1268 C1269 1.370 . S
C1268 C1270 1.363 . S
C1268 H1284 0.931 . S
C1269 C1268 1.370 . S
C1269 C1273 1.408 . S
C1270 C1268 1.363 . S
C1270 C1271 1.370 . S
C1270 C1274 1.524 . S
C1271 C1263 1.503 1_445 S
C1271 C1270 1.370 . S
C1271 C1272 1.403 . S
C1272 C1271 1.403 . S
C1272 C1273 1.404 . S
C1272 C1275 1.539 . S
C1273 C1269 1.408 . S
C1273 C1272 1.404 . S
C1273 H1285 0.930 . S
C1274 C1270 1.524 . S
C1274 H1286 0.956 . S
C1274 H1287 0.961 1_445 S
C1274 H1288 0.961 . S
C1275 C1272 1.539 . S
C1275 H1289 0.958 . S
C1275 H1290 0.952 1_455 S
C1275 H1291 0.960 1_445 S
H1276 C1260 0.932 1_455 S
H1277 C1265 0.929 . S
H1278 C1266 0.960 1_545 S
H1279 C1266 0.962 . S
H1280 C1266 0.960 . S
H1281 C1267 0.961 . S
H1282 C1267 0.961 . S
H1283 C1267 0.961 . S
H1284 C1268 0.931 . S
H1285 C1273 0.930 . S
H1286 C1274 0.956 . S
H1287 C1274 0.961 1_665 S
H1288 C1274 0.961 . S
H1289 C1275 0.958 . S
H1290 C1275 0.952 1_655 S
H1291 C1275 0.960 1_665 S
C1292 C1293 1.391 . S
C1292 C1294 1.394 1_655 S
C1292 H1308 0.931 . S
C1293 C1292 1.391 . S
C1293 C1297 1.377 1_545 S
C1294 C1292 1.394 1_455 S
C1294 C1295 1.369 1_455 S
C1294 C1298 1.531 . S
C1295 C1294 1.369 1_655 S
C1295 C1296 1.410 1_545 S
C1295 C1303 1.503 1_645 S
C1296 C1295 1.410 1_565 S
C1296 C1297 1.392 . S
C1296 C1299 1.511 . S
C1297 C1293 1.377 1_565 S
C1297 C1296 1.392 . S
C1297 H1309 0.929 . S
C1298 C1294 1.531 . S
C1298 H1310 0.960 . S
C1298 H1311 0.962 . S
C1298 H1312 0.960 . S
C1299 C1296 1.511 . S
C1299 H1313 0.961 . S
C1299 H1314 0.961 . S
C1299 H1315 0.961 . S
C1300 C1301 1.370 . S
C1300 C1302 1.363 . S
C1300 H1316 0.931 . S
C1301 C1300 1.370 . S
C1301 C1305 1.408 . S
C1302 C1300 1.363 . S
C1302 C1303 1.370 . S
C1302 C1306 1.524 1_565 S
C1303 C1295 1.503 1_465 S
C1303 C1302 1.370 . S
C1303 C1304 1.403 . S
C1304 C1303 1.403 . S
C1304 C1305 1.404 . S
C1304 C1307 1.539 . S
C1305 C1301 1.408 . S
C1305 C1304 1.404 . S
C1305 H1317 0.930 . S
C1306 C1302 1.524 1_545 S
C1306 H1318 0.956 . S
C1306 H1319 0.961 1_445 S
C1306 H1320 0.961 1_545 S
C1307 C1304 1.539 . S
C1307 H1321 0.945 1_565 S
C1307 H1322 0.957 . S
C1307 H1323 0.960 1_455 S
H1308 C1292 0.931 . S
H1309 C1297 0.929 . S
H1310 C1298 0.960 . S
H1311 C1298 0.962 . S
H1312 C1298 0.960 . S
H1313 C1299 0.961 . S
H1314 C1299 0.961 . S
H1315 C1299 0.961 . S
H1316 C1300 0.931 . S
H1317 C1305 0.930 . S
H1318 C1306 0.956 . S
H1319 C1306 0.961 1_665 S
H1320 C1306 0.961 1_565 S
H1321 C1307 0.945 1_545 S
H1322 C1307 0.957 . S
H1323 C1307 0.960 1_655 S
C1324 C1325 1.391 . S
C1324 C1326 1.394 1_545 S
C1324 H1340 0.931 . S
C1325 C1324 1.391 . S
C1325 C1329 1.376 . S
C1326 C1324 1.394 1_565 S
C1326 C1327 1.369 1_565 S
C1326 C1330 1.531 . S
C1327 C1326 1.369 1_545 S
C1327 C1328 1.410 . S
C1327 C1335 1.503 1_445 S
C1328 C1327 1.410 . S
C1328 C1329 1.392 . S
C1328 C1331 1.511 . S
C1329 C1325 1.376 . S
C1329 C1328 1.392 . S
C1329 H1341 0.929 . S
C1330 C1326 1.531 . S
C1330 H1342 0.960 . S
C1330 H1343 0.962 . S
C1330 H1344 0.960 . S
C1331 C1328 1.511 . S
C1331 H1345 0.961 . S
C1331 H1346 0.961 1_455 S
C1331 H1347 0.961 . S
C1332 C1333 1.370 . S
C1332 C1334 1.363 . S
C1332 H1348 0.931 . S
C1333 C1332 1.370 . S
C1333 C1337 1.408 . S
C1334 C1332 1.363 . S
C1334 C1335 1.370 . S
C1334 C1338 1.524 1_565 S
C1335 C1327 1.503 1_665 S
C1335 C1334 1.370 . S
C1335 C1336 1.403 . S
C1336 C1335 1.403 . S
C1336 C1337 1.404 . S
C1336 C1339 1.539 . S
C1337 C1333 1.408 . S
C1337 C1336 1.404 . S
C1337 H1349 0.930 . S
C1338 C1334 1.524 1_545 S
C1338 H1350 0.956 . S
C1338 H1351 0.961 . S
C1338 H1352 0.961 . S
C1339 C1336 1.539 . S
C1339 H1353 0.958 . S
C1339 H1354 0.961 . S
C1339 H1355 0.960 1_655 S
H1340 C1324 0.931 . S
H1341 C1329 0.929 . S
H1342 C1330 0.960 . S
H1343 C1330 0.962 . S
H1344 C1330 0.960 . S
H1345 C1331 0.961 . S
H1346 C1331 0.961 1_655 S
H1347 C1331 0.961 . S
H1348 C1332 0.931 . S
H1349 C1337 0.930 . S
H1350 C1338 0.956 . S
H1351 C1338 0.961 . S
H1352 C1338 0.961 . S
H1353 C1339 0.958 . S
H1354 C1339 0.961 . S
H1355 C1339 0.960 1_455 S
C397 N13 1.583 . S
C405 N244 1.560 . S
C429 N46 1.576 . S
C437 N277 1.567 . S
C461 N79 1.572 . S
C469 N310 1.550 . S
C493 N343 1.550 . S
C501 N112 1.567 . S
C525 N376 1.575 . S
C533 N145 1.552 . S
C557 N178 1.582 . S
C565 N211 1.560 . S
C589 C106 1.712 . S
C597 C7 1.714 . S
C621 C40 1.709 . S
C629 C139 1.714 . S
C653 C172 1.702 . S
C661 C73 1.718 . S
C685 C304 1.718 . S
C693 C205 1.711 . S
C717 C337 1.706 . S
C725 C238 1.715 . S
C749 C271 1.714 . S
C757 C370 1.712 . S
C781 N266 1.528 . S
C789 N2 1.510 . S
C813 N35 1.466 . S
C821 N299 1.488 . S
C845 N68 1.465 . S
C853 N332 1.491 . S
C877 N101 1.518 . S
C885 N365 1.503 . S
C909 N134 1.483 . S
C917 N200 1.490 . S
C941 N233 1.488 . S
C949 N167 1.504 . S
C973 C120 1.215 . S
C981 C21 1.216 . S
C1005 C54 1.219 . S
C1013 C153 1.217 . S
C1037 C186 1.213 . S
C1045 C87 1.215 . S
C1069 C219 1.204 . S
C1077 C318 1.211 . S
C1101 C252 1.204 . S
C1109 C351 1.212 . S
C1133 C384 1.207 . S
C1141 C285 1.213 . S
C1165 C18 1.135 . S
C1173 C117 1.136 . S
C1197 C51 1.140 . S
C1205 C150 1.136 . S
C1229 C84 1.130 . S
C1237 C183 1.140 . S
C1261 C216 1.135 . S
C1269 C315 1.138 . S
C1293 C348 1.136 . S
C1301 C249 1.136 . S
C1325 C282 1.128 . S
C1333 C381 1.139 . S
