# Generated by pormake.
# Topology fst, (5)-cn, num edge types: 1
# Building blocks:
#     Node 0, Type 0, BuildingBlock: XOMCOT_clean_sbu_1, # of connection points: 5
#     Node 1, Type 0, BuildingBlock: XOMCOT_clean_sbu_1, # of connection points: 5
#     Node 2, Type 0, BuildingBlock: XOMCOT_clean_sbu_1, # of connection points: 5
#     Node 3, Type 0, BuildingBlock: XOMCOT_clean_sbu_1, # of connection points: 5
#     Node 4, Type 0, BuildingBlock: XOMCOT_clean_sbu_1, # of connection points: 5
#     Node 5, Type 0, BuildingBlock: XOMCOT_clean_sbu_1, # of connection points: 5
#     Node 6, Type 0, BuildingBlock: XOMCOT_clean_sbu_1, # of connection points: 5
#     Node 7, Type 0, BuildingBlock: XOMCOT_clean_sbu_1, # of connection points: 5
#     Node 8, Type 0, BuildingBlock: XOMCOT_clean_sbu_1, # of connection points: 5
#     Node 9, Type 0, BuildingBlock: XOMCOT_clean_sbu_1, # of connection points: 5
#     Node 10, Type 0, BuildingBlock: XOMCOT_clean_sbu_1, # of connection points: 5
#     Node 11, Type 0, BuildingBlock: XOMCOT_clean_sbu_1, # of connection points: 5
#     Edge 12, Type (0, 0), BuildingBlock: XIVTED_clean_linker_0, # of connection points: 2
#     Edge 13, Type (0, 0), BuildingBlock: XIVTED_clean_linker_0, # of connection points: 2
#     Edge 14, Type (0, 0), BuildingBlock: XIVTED_clean_linker_0, # of connection points: 2
#     Edge 15, Type (0, 0), BuildingBlock: XIVTED_clean_linker_0, # of connection points: 2
#     Edge 16, Type (0, 0), BuildingBlock: XIVTED_clean_linker_0, # of connection points: 2
#     Edge 17, Type (0, 0), BuildingBlock: XIVTED_clean_linker_0, # of connection points: 2
#     Edge 18, Type (0, 0), BuildingBlock: XIVTED_clean_linker_0, # of connection points: 2
#     Edge 19, Type (0, 0), BuildingBlock: XIVTED_clean_linker_0, # of connection points: 2
#     Edge 20, Type (0, 0), BuildingBlock: XIVTED_clean_linker_0, # of connection points: 2
#     Edge 21, Type (0, 0), BuildingBlock: XIVTED_clean_linker_0, # of connection points: 2
#     Edge 22, Type (0, 0), BuildingBlock: XIVTED_clean_linker_0, # of connection points: 2
#     Edge 23, Type (0, 0), BuildingBlock: XIVTED_clean_linker_0, # of connection points: 2
#     Edge 24, Type (0, 0), BuildingBlock: XIVTED_clean_linker_0, # of connection points: 2
#     Edge 25, Type (0, 0), BuildingBlock: XIVTED_clean_linker_0, # of connection points: 2
#     Edge 26, Type (0, 0), BuildingBlock: XIVTED_clean_linker_0, # of connection points: 2
#     Edge 27, Type (0, 0), BuildingBlock: XIVTED_clean_linker_0, # of connection points: 2
#     Edge 28, Type (0, 0), BuildingBlock: XIVTED_clean_linker_0, # of connection points: 2
#     Edge 29, Type (0, 0), BuildingBlock: XIVTED_clean_linker_0, # of connection points: 2
#     Edge 30, Type (0, 0), BuildingBlock: XIVTED_clean_linker_0, # of connection points: 2
#     Edge 31, Type (0, 0), BuildingBlock: XIVTED_clean_linker_0, # of connection points: 2
#     Edge 32, Type (0, 0), BuildingBlock: XIVTED_clean_linker_0, # of connection points: 2
#     Edge 33, Type (0, 0), BuildingBlock: XIVTED_clean_linker_0, # of connection points: 2
#     Edge 34, Type (0, 0), BuildingBlock: XIVTED_clean_linker_0, # of connection points: 2
#     Edge 35, Type (0, 0), BuildingBlock: XIVTED_clean_linker_0, # of connection points: 2
#     Edge 36, Type (0, 0), BuildingBlock: XIVTED_clean_linker_0, # of connection points: 2
#     Edge 37, Type (0, 0), BuildingBlock: XIVTED_clean_linker_0, # of connection points: 2
#     Edge 38, Type (0, 0), BuildingBlock: XIVTED_clean_linker_0, # of connection points: 2
#     Edge 39, Type (0, 0), BuildingBlock: XIVTED_clean_linker_0, # of connection points: 2
#     Edge 40, Type (0, 0), BuildingBlock: XIVTED_clean_linker_0, # of connection points: 2
#     Edge 41, Type (0, 0), BuildingBlock: XIVTED_clean_linker_0, # of connection points: 2
# Relax obj value: 0.139
# Max RMSD: 0.123
# Mean RMSD: 0.123
data_MOF--net-fst--node1-XOMCOT_clean_sbu_1--edge1-XIVTED_clean_linker_0
_symmetry_space_group_name_H-M    P1
_symmetry_Int_Tables_number       1
_symmetry_cell_setting            triclinic
loop_
_symmetry_equiv_pos_as_xyz
'x, y, z'
_cell_length_a     74.028572
_cell_length_b     74.022817
_cell_length_c     17.602041
_cell_angle_alpha  90.02815
_cell_angle_beta   90.004515
_cell_angle_gamma 120.01402
loop_
_atom_site_label
_atom_site_type_symbol
_atom_site_fract_x
_atom_site_fract_y
_atom_site_fract_z
_atom_type_partial_charge
C0 C 0.14457 0.46216 0.93508 0.0
C1 C 0.14937 0.46291 0.85937 0.0
N2 N 0.14123 0.44323 0.83358 0.0
N3 N 0.13307 0.44208 0.95725 0.0
C4 C 0.13196 0.43093 0.89467 0.0
H5 H 0.14893 0.47549 0.97141 0.0
Co6 Co 0.12318 0.43383 0.05666 0.0
C7 C 0.08315 0.403 0.96695 0.0
O8 O 0.08865 0.41103 0.89867 0.0
N9 N 0.11387 0.42606 0.15722 0.0
C10 C 0.0933 0.41651 0.25894 0.0
C11 C 0.09436 0.41983 0.18197 0.0
C12 C 0.12453 0.42686 0.22089 0.0
N13 N 0.1123 0.42097 0.28356 0.0
O14 O 0.13391 0.41503 0.0545 0.0
H15 H 0.08183 0.41862 0.14679 0.0
H16 H 0.141 0.432 0.22185 0.0
O17 O 0.09562 0.41134 0.02306 0.0
C18 C 0.1529 0.42375 0.07571 0.0
O19 O 0.16209 0.44322 0.09896 0.0
N20 N 0.11417 0.45354 0.05965 0.0
C21 C 0.10916 0.48854 0.0574 0.0
C22 C 0.09702 0.47133 1.01039 0.0
C23 C 0.09986 0.45402 1.01198 0.0
C24 C 0.1255 0.46976 0.10792 0.0
C25 C 0.12321 0.48737 0.1079 0.0
H26 H 0.09137 0.44172 0.97181 0.0
H27 H 0.1371 0.46941 0.1443 0.0
H28 H 0.12428 0.41407 0.89366 0.0
H29 H 0.15744 0.4769 0.82522 0.0
H30 H 0.07981 0.41212 0.2946 0.0
H31 H 0.08623 0.47168 0.96965 0.0
H32 H 0.13278 0.5002 0.14571 0.0
C33 C 0.68786 0.14241 0.93679 0.0
C34 C 0.6919 0.14721 0.86108 0.0
N35 N 0.70345 0.13909 0.8353 0.0
N36 N 0.69643 0.13091 0.95896 0.0
C37 C 0.70649 0.12982 0.8964 0.0
H38 H 0.67888 0.14677 0.9731 0.0
Co39 Co 0.69486 0.121 0.05837 0.0
C40 C 0.6852 0.08095 0.96809 0.0
O41 O 0.6827 0.08663 0.90009 0.0
N42 N 0.6934 0.11169 0.15891 0.0
C43 C 0.68235 0.09116 0.26071 0.0
C44 C 0.68006 0.0922 0.18374 0.0
C45 C 0.70332 0.12236 0.22255 0.0
N46 N 0.69696 0.11015 0.28526 0.0
O47 O 0.72435 0.13155 0.05556 0.0
H48 H 0.66866 0.0797 0.14866 0.0
H49 H 0.71467 0.13882 0.22347 0.0
O50 O 0.68949 0.09334 0.02457 0.0
C51 C 0.73474 0.15053 0.07668 0.0
O52 O 0.7246 0.1598 0.10057 0.0
N53 N 0.6662 0.11221 0.06197 0.0
C54 C 0.6264 0.1077 0.06031 0.0
C55 C 0.63121 0.0954 1.01316 0.0
C56 C 0.65126 0.09798 1.01448 0.0
C57 C 0.66155 0.12367 0.11046 0.0
C58 C 0.64175 0.12162 0.11076 0.0
H59 H 0.65489 0.08938 0.97417 0.0
H60 H 0.67361 0.1352 0.14671 0.0
H61 H 0.71566 0.12213 0.89538 0.0
H62 H 0.68598 0.15528 0.82695 0.0
H63 H 0.67321 0.0777 0.29643 0.0
H64 H 0.61996 0.0847 0.97246 0.0
H65 H 0.63869 0.13131 0.14871 0.0
C66 C 0.55027 0.68481 0.93425 0.0
C67 C 0.54946 0.6888 0.85852 0.0
N68 N 0.56912 0.70043 0.83269 0.0
N69 N 0.57036 0.6935 0.95639 0.0
C70 C 0.58146 0.70356 0.89377 0.0
H71 H 0.53696 0.67579 0.9706 0.0
Co72 Co 0.57876 0.692 0.05575 0.0
C73 C 0.60935 0.68264 0.96541 0.0
O74 O 0.60108 0.67995 0.89746 0.0
N75 N 0.58668 0.69061 0.15624 0.0
C76 C 0.59641 0.67977 0.25798 0.0
C77 C 0.59311 0.67748 0.18098 0.0
C78 C 0.58574 0.70039 0.21994 0.0
N79 N 0.59174 0.69417 0.28262 0.0
O80 O 0.5976 0.72154 0.05296 0.0
H81 H 0.59444 0.66623 0.14582 0.0
H82 H 0.5804 0.71156 0.22092 0.0
O83 O 0.6012 0.68688 0.02183 0.0
C84 C 0.58904 0.73195 0.07416 0.0
O85 O 0.56964 0.72184 0.09814 0.0
N86 N 0.55903 0.66328 0.05936 0.0
C87 C 0.52398 0.6233 0.05798 0.0
C88 C 0.54115 0.62823 1.01103 0.0
C89 C 0.55849 0.64836 1.01219 0.0
C90 C 0.54286 0.65853 0.10762 0.0
C91 C 0.52522 0.63864 0.10803 0.0
H92 H 0.57077 0.65206 0.97209 0.0
H93 H 0.54326 0.67057 0.14363 0.0
H94 H 0.59832 0.71281 0.89271 0.0
H95 H 0.53545 0.68279 0.82441 0.0
H96 H 0.60093 0.67078 0.29363 0.0
H97 H 0.54075 0.61699 0.97064 0.0
H98 H 0.51242 0.63549 0.14579 0.0
C99 C 0.86881 0.5467 0.94199 0.0
C100 C 0.86417 0.54374 0.86605 0.0
N101 N 0.87303 0.56252 0.83199 0.0
N102 N 0.88106 0.56725 0.9563 0.0
C103 C 0.88243 0.57658 0.88859 0.0
H104 H 0.8642 0.5345 0.98389 0.0
Co105 Co 0.8922 0.57672 0.05375 0.0
C106 C 0.93165 0.60798 0.95981 0.0
O107 O 0.92623 0.60014 0.89123 0.0
N108 N 0.9026 0.58542 0.15286 0.0
C109 C 0.9238 0.59309 0.25222 0.0
C110 C 0.92228 0.59126 0.17463 0.0
C111 C 0.89242 0.58377 0.21884 0.0
N112 N 0.90501 0.58833 0.28008 0.0
O113 O 0.88091 0.59503 0.05197 0.0
H114 H 0.9344 0.59252 0.13706 0.0
H115 H 0.87581 0.57775 0.2228 0.0
O116 O 0.91927 0.5993 1.01589 0.0
C117 C 0.86224 0.58643 0.07658 0.0
O118 O 0.85359 0.56731 0.10309 0.0
N119 N 0.90194 0.55752 0.05594 0.0
C120 C 0.90908 0.52383 0.05302 0.0
C121 C 0.91902 0.5403 1.00109 0.0
C122 C 0.91514 0.55692 1.00317 0.0
C123 C 0.89259 0.54196 0.10833 0.0
C124 C 0.89603 0.52503 0.10821 0.0
H125 H 0.9219 0.56857 0.95961 0.0
H126 H 0.88163 0.54221 0.14838 0.0
H127 H 0.89078 0.59328 0.88018 0.0
H128 H 0.85563 0.52883 0.83747 0.0
H129 H 0.93738 0.59652 0.28597 0.0
H130 H 0.92931 0.54013 0.95774 0.0
H131 H 0.88772 0.51253 0.14865 0.0
C132 C 0.32755 0.86783 0.93583 0.0
C133 C 0.32352 0.86301 0.86012 0.0
N134 N 0.31187 0.87102 0.83437 0.0
N135 N 0.31887 0.87923 0.95806 0.0
C136 C 0.30876 0.88024 0.8955 0.0
H137 H 0.33659 0.86355 0.97211 0.0
Co138 Co 0.32043 0.88914 0.05749 0.0
C139 C 0.32987 0.92911 0.96722 0.0
O140 O 0.33238 0.92341 0.89925 0.0
N141 N 0.32188 0.89845 0.15805 0.0
C142 C 0.33285 0.91899 0.25994 0.0
C143 C 0.33513 0.91796 0.18294 0.0
C144 C 0.31202 0.88775 0.22167 0.0
N145 N 0.31832 0.89996 0.28443 0.0
O146 O 0.29091 0.87851 0.0547 0.0
H147 H 0.34647 0.9305 0.14789 0.0
H148 H 0.30074 0.87127 0.22253 0.0
O149 O 0.32566 0.91677 0.02376 0.0
C150 C 0.28046 0.85953 0.07576 0.0
O151 O 0.29055 0.85022 0.09968 0.0
N152 N 0.34913 0.89806 0.06107 0.0
C153 C 0.38908 0.90295 0.05955 0.0
C154 C 0.38416 0.91522 1.01272 0.0
C155 C 0.36404 0.91243 1.01393 0.0
C156 C 0.35388 0.88662 0.10922 0.0
C157 C 0.37375 0.88884 0.10954 0.0
H158 H 0.36035 0.92104 0.97389 0.0
H159 H 0.34184 0.87498 0.14521 0.0
H160 H 0.29951 0.88784 0.89451 0.0
H161 H 0.32951 0.85501 0.82594 0.0
H162 H 0.34193 0.93247 0.29569 0.0
H163 H 0.39539 0.92606 0.97237 0.0
H164 H 0.3769 0.87917 0.1472 0.0
C165 C 0.46431 0.32571 0.92679 0.0
C166 C 0.46516 0.32163 0.85118 0.0
N167 N 0.44552 0.30966 0.82558 0.0
N168 N 0.44422 0.31676 0.94907 0.0
C169 C 0.43316 0.30641 0.88671 0.0
H170 H 0.4776 0.33501 0.96298 0.0
Co171 Co 0.43608 0.31852 0.04861 0.0
C172 C 0.40393 0.32606 0.95989 0.0
O173 O 0.41119 0.32777 0.89066 0.0
N174 N 0.42849 0.32018 0.14935 0.0
C175 C 0.41893 0.33115 0.25123 0.0
C176 C 0.42218 0.33339 0.1742 0.0
C177 C 0.4294 0.31037 0.213 0.0
N178 N 0.42351 0.31668 0.27576 0.0
O179 O 0.41788 0.28886 0.04804 0.0
H180 H 0.42083 0.34462 0.13898 0.0
H181 H 0.43458 0.29908 0.21387 0.0
O182 O 0.41301 0.32279 1.01569 0.0
C183 C 0.42702 0.27899 0.06914 0.0
O184 O 0.44655 0.28968 0.09138 0.0
N185 N 0.45515 0.34746 0.04968 0.0
C186 C 0.48872 0.38834 0.04479 0.0
C187 C 0.47161 0.38187 0.99586 0.0
C188 C 0.45504 0.36134 0.99891 0.0
C189 C 0.47136 0.35361 0.09919 0.0
C190 C 0.48824 0.374 0.09805 0.0
H191 H 0.44281 0.35652 0.95762 0.0
H192 H 0.47161 0.34234 0.13765 0.0
H193 H 0.41634 0.29681 0.88588 0.0
H194 H 0.47915 0.32782 0.81694 0.0
H195 H 0.41447 0.34018 0.28695 0.0
H196 H 0.47123 0.39241 0.9541 0.0
H197 H 0.50124 0.37815 0.13611 0.0
C198 C 0.55041 0.86735 0.11068 0.0
C199 C 0.54967 0.86255 0.18639 0.0
N200 N 0.56936 0.87076 0.21216 0.0
N201 N 0.57048 0.87892 0.08851 0.0
C202 C 0.58165 0.88006 0.15107 0.0
H203 H 0.53706 0.86294 0.07438 0.0
Co204 Co 0.57876 0.88884 0.9891 0.0
C205 C 0.60915 0.92893 0.07929 0.0
O206 O 0.60099 0.92326 0.14733 0.0
N207 N 0.58655 0.89817 0.88856 0.0
C208 C 0.59596 0.91871 0.78679 0.0
C209 C 0.59263 0.91764 0.86376 0.0
C210 C 0.58585 0.88753 0.8249 0.0
N211 N 0.59166 0.89974 0.76221 0.0
O212 O 0.59778 0.87838 0.99173 0.0
H213 H 0.59369 0.93013 0.89888 0.0
H214 H 0.58081 0.87109 0.82396 0.0
O215 O 0.60104 0.91653 0.02286 0.0
C216 C 0.58927 0.8594 0.97061 0.0
O217 O 0.56985 0.85004 0.94675 0.0
N218 N 0.55883 0.89756 0.98569 0.0
C219 C 0.52351 0.90202 0.98758 0.0
C220 C 0.54065 0.91435 0.0346 0.0
C221 C 0.55812 0.91179 0.03318 0.0
C222 C 0.54269 0.88607 0.93734 0.0
C223 C 0.52492 0.88808 0.93717 0.0
H224 H 0.57038 0.92042 0.07337 0.0
H225 H 0.54322 0.87454 0.9011 0.0
H226 H 0.59851 0.88781 0.15208 0.0
H227 H 0.53569 0.85444 0.22053 0.0
H228 H 0.60023 0.93216 0.75109 0.0
H229 H 0.54012 0.92506 0.07525 0.0
H230 H 0.51215 0.87837 0.89933 0.0
C231 C 0.68634 0.54789 0.11562 0.0
C232 C 0.69051 0.54724 0.19126 0.0
N233 N 0.70287 0.56693 0.2158 0.0
N234 N 0.69563 0.56792 0.09234 0.0
C235 C 0.70626 0.5791 0.15404 0.0
H236 H 0.67675 0.53453 0.08015 0.0
Co237 Co 0.69406 0.57602 0.99269 0.0
C238 C 0.6866 0.60826 0.08086 0.0
O239 O 0.68493 0.60102 0.15008 0.0
N240 N 0.69262 0.58357 0.89191 0.0
C241 C 0.68194 0.59303 0.78905 0.0
C242 C 0.67952 0.58992 0.86612 0.0
C243 C 0.70254 0.58252 0.82888 0.0
N244 N 0.69641 0.58833 0.76553 0.0
O245 O 0.72374 0.59415 0.99381 0.0
H246 H 0.66824 0.59136 0.90069 0.0
H247 H 0.71377 0.57726 0.8289 0.0
O248 O 0.68983 0.59916 0.02499 0.0
C249 C 0.73363 0.58496 0.9737 0.0
O250 O 0.72298 0.56537 0.95193 0.0
N251 N 0.66511 0.55703 0.99106 0.0
C252 C 0.62417 0.52355 0.99534 0.0
C253 C 0.63058 0.54076 0.04377 0.0
C254 C 0.65113 0.55728 0.04104 0.0
C255 C 0.65902 0.54074 0.94196 0.0
C256 C 0.63861 0.52389 0.94281 0.0
H257 H 0.65589 0.56959 0.08198 0.0
H258 H 0.67035 0.54039 0.9041 0.0
H259 H 0.71611 0.5959 0.15397 0.0
H260 H 0.6841 0.53337 0.22622 0.0
H261 H 0.67301 0.59745 0.75263 0.0
H262 H 0.61996 0.54124 0.08494 0.0
H263 H 0.6345 0.51083 0.90515 0.0
C264 C 0.14429 0.68507 0.11065 0.0
C265 C 0.14893 0.68918 0.18645 0.0
N266 N 0.14095 0.70095 0.21125 0.0
N267 N 0.13303 0.69382 0.08753 0.0
C268 C 0.13193 0.70403 0.14955 0.0
H269 H 0.14859 0.67593 0.07497 0.0
Co270 Co 0.12335 0.69236 0.98801 0.0
C271 C 0.08318 0.68279 0.07708 0.0
O272 O 0.08867 0.68016 0.14525 0.0
N273 N 0.11426 0.69102 0.88743 0.0
C274 C 0.09409 0.6802 0.78466 0.0
C275 C 0.09485 0.67776 0.86168 0.0
C276 C 0.12516 0.70104 0.82441 0.0
N277 N 0.11318 0.69482 0.76111 0.0
O278 O 0.13396 0.72188 0.99109 0.0
H279 H 0.08221 0.66633 0.89617 0.0
H280 H 0.14162 0.71237 0.82438 0.0
O281 O 0.09568 0.68707 0.021 0.0
C282 C 0.15303 0.7323 0.97095 0.0
O283 O 0.16239 0.7222 0.94777 0.0
N284 N 0.1145 0.66368 0.98412 0.0
C285 C 0.10997 0.62387 0.98569 0.0
C286 C 0.0975 0.62861 0.03218 0.0
C287 C 0.1001 0.64867 0.03092 0.0
C288 C 0.1261 0.65908 0.93621 0.0
C289 C 0.12406 0.63928 0.93588 0.0
H290 H 0.09135 0.65225 0.07072 0.0
H291 H 0.13776 0.6712 0.90051 0.0
H292 H 0.12437 0.71333 0.1497 0.0
H293 H 0.15678 0.68316 0.22128 0.0
H294 H 0.08075 0.67114 0.74826 0.0
H295 H 0.08666 0.61731 0.07234 0.0
H296 H 0.13386 0.63628 0.89842 0.0
C297 C 0.4648 0.14189 0.11163 0.0
C298 C 0.46536 0.1466 0.18736 0.0
N299 N 0.44563 0.13887 0.21195 0.0
N300 N 0.44479 0.13082 0.08832 0.0
C301 C 0.43351 0.12994 0.15016 0.0
H302 H 0.47823 0.146 0.07613 0.0
Co303 Co 0.43658 0.12112 0.98872 0.0
C304 C 0.40578 0.08114 0.07808 0.0
O305 O 0.41387 0.08681 0.14623 0.0
N306 N 0.42886 0.11203 0.88809 0.0
C307 C 0.41949 0.09186 0.78527 0.0
C308 C 0.42265 0.0926 0.86232 0.0
C309 C 0.42979 0.12294 0.82506 0.0
N310 N 0.42402 0.11097 0.76173 0.0
O311 O 0.41784 0.13193 0.9912 0.0
H312 H 0.42139 0.07995 0.89682 0.0
H313 H 0.43496 0.13942 0.82505 0.0
O314 O 0.41403 0.09349 0.02165 0.0
C315 C 0.42674 0.151 0.97098 0.0
O316 O 0.44628 0.16018 0.94871 0.0
N317 N 0.45624 0.11205 0.98534 0.0
C318 C 0.4912 0.10701 0.98733 0.0
C319 C 0.4739 0.09468 0.03364 0.0
C320 C 0.45661 0.09754 0.03218 0.0
C321 C 0.47253 0.12354 0.93763 0.0
C322 C 0.49013 0.12124 0.93754 0.0
H323 H 0.44423 0.08888 0.07187 0.0
H324 H 0.47225 0.13528 0.90187 0.0
H325 H 0.41667 0.12257 0.15017 0.0
H326 H 0.47923 0.15431 0.22233 0.0
H327 H 0.41518 0.07852 0.74885 0.0
H328 H 0.47418 0.08374 0.0738 0.0
H329 H 0.50303 0.13095 0.90027 0.0
C330 C 0.32717 0.46196 0.11069 0.0
C331 C 0.32305 0.46249 0.18646 0.0
N332 N 0.31126 0.44273 0.21116 0.0
N333 N 0.31843 0.44196 0.08747 0.0
C334 C 0.30818 0.43063 0.1494 0.0
H335 H 0.33633 0.47541 0.07509 0.0
Co336 Co 0.31996 0.43377 0.98795 0.0
C337 C 0.32945 0.40316 0.07718 0.0
O338 O 0.33208 0.41132 0.14531 0.0
N339 N 0.32137 0.42605 0.88738 0.0
C340 C 0.33219 0.41666 0.78471 0.0
C341 C 0.33459 0.41984 0.86176 0.0
C342 C 0.31139 0.42695 0.82427 0.0
N343 N 0.31761 0.42117 0.76103 0.0
O344 O 0.29043 0.41488 0.9905 0.0
H345 H 0.34597 0.41857 0.89637 0.0
H346 H 0.30008 0.43211 0.82415 0.0
O347 O 0.32518 0.41135 0.02101 0.0
C348 C 0.28014 0.42365 0.97018 0.0
O349 O 0.29039 0.44317 0.94766 0.0
N350 N 0.34865 0.45358 0.9845 0.0
C351 C 0.38848 0.48885 0.98655 0.0
C352 C 0.38369 0.47162 0.03293 0.0
C353 C 0.36362 0.45416 0.03143 0.0
C354 C 0.35329 0.46981 0.9367 0.0
C355 C 0.37309 0.48756 0.93661 0.0
H356 H 0.36001 0.44181 0.07113 0.0
H357 H 0.3412 0.46937 0.90088 0.0
H358 H 0.29889 0.41377 0.14948 0.0
H359 H 0.32907 0.47636 0.22137 0.0
H360 H 0.34123 0.41235 0.7484 0.0
H361 H 0.39496 0.47205 0.07319 0.0
H362 H 0.37614 0.50039 0.89922 0.0
C363 C 0.87075 0.32586 0.11831 0.0
C364 C 0.86586 0.32182 0.19395 0.0
N365 N 0.87364 0.30996 0.21965 0.0
N366 N 0.88198 0.31699 0.09612 0.0
C367 C 0.88279 0.30674 0.15856 0.0
H368 H 0.86668 0.33507 0.08204 0.0
Co369 Co 0.89187 0.31867 0.99666 0.0
C370 C 0.93167 0.32666 0.08561 0.0
O371 O 0.92617 0.32855 0.15471 0.0
N372 N 0.90112 0.32023 0.89598 0.0
C373 C 0.92164 0.33119 0.79414 0.0
C374 C 0.92064 0.33345 0.87117 0.0
C375 C 0.8904 0.31042 0.8323 0.0
N376 N 0.9026 0.31672 0.76957 0.0
O377 O 0.88065 0.28905 0.99789 0.0
H378 H 0.93322 0.34471 0.90637 0.0
H379 H 0.87392 0.29915 0.8314 0.0
O380 O 0.91927 0.32319 0.0298 0.0
C381 C 0.86166 0.27885 0.9768 0.0
O382 O 0.85253 0.2892 0.95367 0.0
N383 N 0.90151 0.34755 0.99496 0.0
C384 C 0.90863 0.38837 0.99818 0.0
C385 C 0.91939 0.38213 0.04748 0.0
C386 C 0.91553 0.36164 0.04526 0.0
C387 C 0.89131 0.35345 0.94523 0.0
C388 C 0.89471 0.3738 0.94553 0.0
H389 H 0.92306 0.357 0.08671 0.0
H390 H 0.87977 0.34203 0.90715 0.0
H391 H 0.89012 0.29725 0.15946 0.0
H392 H 0.858 0.32796 0.22813 0.0
H393 H 0.93513 0.34023 0.75844 0.0
H394 H 0.93035 0.39285 0.0888 0.0
H395 H 0.88577 0.37776 0.90724 0.0
H396 H 0.14314 0.61726 0.98822 0.0
H397 H 0.07479 0.49328 0.03907 0.0
H398 H 0.07594 0.58443 1.00281 0.0
H399 H 0.14193 0.52857 0.05582 0.0
H400 H 0.07449 0.52596 0.0201 0.0
H401 H 0.1426 0.58435 1.0058 0.0
C402 C 0.12822 0.60308 0.99426 0.0
C403 C 0.10954 0.60364 0.99352 0.0
C404 C 0.08927 0.52652 0.0283 0.0
C405 C 0.10883 0.56576 1.01503 0.0
C406 C 0.08945 0.50788 0.0389 0.0
C407 C 0.10841 0.50817 0.04948 0.0
C408 C 0.10818 0.54558 0.02753 0.0
C409 C 0.12692 0.52757 0.04917 0.0
C410 C 0.12794 0.58428 1.00504 0.0
C411 C 0.09072 0.58476 1.00343 0.0
N412 N 0.12634 0.54543 0.03811 0.0
N413 N 0.09084 0.56658 1.01361 0.0
H414 H 0.61977 0.14086 0.05942 0.0
H415 H 0.49594 0.07259 1.00393 0.0
H416 H 0.58702 0.07371 0.04158 0.0
H417 H 0.5312 0.1398 0.99092 0.0
H418 H 0.52859 0.07227 0.02332 0.0
H419 H 0.58689 0.14035 0.04152 0.0
C420 C 0.60561 0.12596 0.05261 0.0
C421 C 0.60618 0.10729 0.0525 0.0
C422 C 0.52916 0.08706 1.01585 0.0
C423 C 0.56834 0.10661 0.0306 0.0
C424 C 0.51053 0.08726 1.00501 0.0
C425 C 0.51082 0.10625 0.99536 0.0
C426 C 0.54819 0.10599 1.0178 0.0
C427 C 0.53021 0.12477 0.99681 0.0
C428 C 0.58683 0.1257 0.04164 0.0
C429 C 0.58734 0.08849 0.04163 0.0
N430 N 0.54805 0.12417 1.00809 0.0
N431 N 0.56918 0.08863 0.03126 0.0
H432 H 0.39516 0.52867 0.98923 0.0
H433 H 0.51912 0.5841 0.04056 0.0
H434 H 0.42787 0.49419 1.00398 0.0
H435 H 0.48398 0.61612 0.05626 0.0
H436 H 0.48639 0.55114 0.02186 0.0
H437 H 0.4281 0.56101 1.007 0.0
C438 C 0.40932 0.5279 0.99535 0.0
C439 C 0.40872 0.50864 0.99458 0.0
C440 C 0.48587 0.56538 0.02978 0.0
C441 C 0.44664 0.54578 1.0163 0.0
C442 C 0.50454 0.5842 0.04022 0.0
C443 C 0.50432 0.60292 0.0504 0.0
C444 C 0.46684 0.5653 0.02877 0.0
C445 C 0.48494 0.60208 0.04992 0.0
C446 C 0.42814 0.5464 1.00624 0.0
C447 C 0.42757 0.50866 1.0046 0.0
N448 N 0.46705 0.58364 0.03901 0.0
N449 N 0.44577 0.52694 1.01488 0.0
H450 H 0.91038 0.41448 0.88376 0.0
H451 H 0.91247 0.50034 0.16735 0.0
H452 H 0.9117 0.41025 0.12807 0.0
H453 H 0.91007 0.50388 0.92308 0.0
H454 H 0.91388 0.46817 0.15415 0.0
H455 H 0.91198 0.44814 0.89696 0.0
C456 C 0.91103 0.42063 0.94018 0.0
C457 C 0.91088 0.40946 1.00486 0.0
C458 C 0.91317 0.47605 0.10343 0.0
C459 C 0.9128 0.44809 0.02045 0.0
C460 C 0.91227 0.49439 0.11095 0.0
C461 C 0.91115 0.50489 0.04628 0.0
C462 C 0.91286 0.46806 0.03068 0.0
C463 C 0.91122 0.49654 0.97459 0.0
C464 C 0.91203 0.4399 0.94769 0.0
C465 C 0.91205 0.41838 0.07652 0.0
N466 N 0.91196 0.47861 0.96878 0.0
N467 N 0.91286 0.43709 0.08236 0.0
H468 H 0.42827 0.9373 0.04256 0.0
H469 H 0.48369 0.86887 0.98885 0.0
H470 H 0.39623 0.87012 0.05722 0.0
H471 H 0.51816 0.93603 1.00594 0.0
H472 H 0.45133 0.86942 1.00671 0.0
H473 H 0.46121 0.93754 0.02356 0.0
C474 C 0.42816 0.92261 0.04194 0.0
C475 C 0.40945 0.90366 0.0519 0.0
C476 C 0.46595 0.88407 1.00644 0.0
C477 C 0.44705 0.90383 0.0299 0.0
C478 C 0.48445 0.88378 0.99549 0.0
C479 C 0.50371 0.90245 0.9954 0.0
C480 C 0.46657 0.90317 1.01722 0.0
C481 C 0.50369 0.92125 1.00605 0.0
C482 C 0.44697 0.92277 0.03132 0.0
C483 C 0.41028 0.88512 0.05104 0.0
N484 N 0.4854 0.92115 1.01637 0.0
N485 N 0.42871 0.88568 0.03995 0.0
H486 H 0.60265 0.50539 0.12632 0.0
H487 H 0.50717 0.40957 0.91361 0.0
H488 H 0.59767 0.49866 0.8824 0.0
H489 H 0.51342 0.41505 0.1576 0.0
H490 H 0.539 0.44332 0.90113 0.0
H491 H 0.56884 0.47362 0.13867 0.0
C492 C 0.59435 0.49739 0.07522 0.0
C493 C 0.60307 0.50478 1.00312 0.0
C494 C 0.53337 0.43721 0.95744 0.0
C495 C 0.56436 0.46808 1.01705 0.0
C496 C 0.51508 0.41797 0.96468 0.0
C497 C 0.50753 0.4094 0.03686 0.0
C498 C 0.5443 0.44805 0.02279 0.0
C499 C 0.51875 0.4209 0.10082 0.0
C500 C 0.57508 0.47913 0.0824 0.0
C501 C 0.5917 0.49345 0.93913 0.0
N502 N 0.53656 0.43959 0.09227 0.0
N503 N 0.57297 0.47567 0.94761 0.0
H504 H 0.25197 0.4218 0.86777 0.0
H505 H 0.1794 0.42219 0.17801 0.0
H506 H 0.25717 0.40437 0.0967 0.0
H507 H 0.15648 0.40423 0.94956 0.0
H508 H 0.20689 0.41385 0.15148 0.0
H509 H 0.21617 0.41353 0.89446 0.0
C510 C 0.24528 0.41562 0.92302 0.0
C511 C 0.25738 0.41363 0.98006 0.0
C512 C 0.19551 0.41115 0.10774 0.0
C513 C 0.21683 0.40496 1.01199 0.0
C514 C 0.17984 0.4159 0.1229 0.0
C515 C 0.16569 0.41378 0.06594 0.0
C516 C 0.1975 0.405 0.03419 0.0
C517 C 0.16701 0.40584 0.99513 0.0
C518 C 0.22488 0.41092 0.93828 0.0
C519 C 0.24819 0.40586 0.05106 0.0
N520 N 0.18302 0.40223 0.98055 0.0
N521 N 0.2286 0.4023 0.06572 0.0
H522 H 0.8592 0.2557 0.10134 0.0
H523 H 0.75691 0.15416 0.94803 0.0
H524 H 0.83411 0.25078 0.87649 0.0
H525 H 0.76355 0.17694 0.1775 0.0
H526 H 0.79257 0.18251 0.92047 0.0
H527 H 0.83135 0.21969 0.12733 0.0
C528 C 0.84829 0.24676 0.05663 0.0
C529 C 0.84882 0.25609 0.98677 0.0
C530 C 0.7864 0.18086 0.97743 0.0
C531 C 0.81725 0.21519 1.01575 0.0
C532 C 0.76619 0.16464 0.99329 0.0
C533 C 0.75743 0.16332 0.06509 0.0
C534 C 0.79791 0.1955 0.03426 0.0
C535 C 0.76986 0.17751 0.12146 0.0
C536 C 0.83237 0.22634 0.07163 0.0
C537 C 0.83413 0.24406 0.93111 0.0
N538 N 0.78945 0.1931 0.10479 0.0
N539 N 0.81885 0.22425 0.94687 0.0
H540 H 0.60879 0.75443 0.94727 0.0
H541 H 0.60871 0.85651 0.0981 0.0
H542 H 0.59062 0.76059 0.17406 0.0
H543 H 0.59117 0.83257 0.87052 0.0
H544 H 0.61647 0.82848 0.12589 0.0
H545 H 0.61671 0.79029 0.9197 0.0
C546 C 0.60724 0.76363 0.99202 0.0
C547 C 0.59906 0.75468 0.06296 0.0
C548 C 0.61153 0.8298 0.06925 0.0
C549 C 0.60806 0.79539 0.03214 0.0
C550 C 0.60728 0.84584 0.05324 0.0
C551 C 0.59932 0.84673 0.98199 0.0
C552 C 0.60813 0.81491 1.01308 0.0
C553 C 0.59729 0.83231 0.92617 0.0
C554 C 0.61158 0.78395 0.97613 0.0
C555 C 0.59689 0.76702 0.11864 0.0
N556 N 0.60154 0.8169 0.94296 0.0
N557 N 0.60125 0.78672 0.10198 0.0
H558 H 0.76105 0.58522 0.87127 0.0
H559 H 0.8359 0.58822 0.17923 0.0
H560 H 0.75741 0.60526 0.0977 0.0
H561 H 0.85754 0.60463 0.94877 0.0
H562 H 0.8079 0.59583 0.15253 0.0
H563 H 0.79698 0.59361 0.89642 0.0
C564 C 0.76809 0.59194 0.92561 0.0
C565 C 0.7564 0.59467 0.98243 0.0
C566 C 0.8191 0.59834 0.10834 0.0
C567 C 0.7971 0.60353 1.01264 0.0
C568 C 0.83506 0.59401 0.12357 0.0
C569 C 0.84902 0.59591 0.06615 0.0
C570 C 0.81664 0.60385 0.03435 0.0
C571 C 0.84718 0.6032 0.9947 0.0
C572 C 0.78856 0.59673 0.93996 0.0
C573 C 0.76605 0.60317 0.05225 0.0
N574 N 0.83091 0.60641 0.98016 0.0
N575 N 0.78571 0.60682 0.06614 0.0
H576 H 0.15586 0.75464 0.09841 0.0
H577 H 0.25805 0.85681 0.94865 0.0
H578 H 0.17997 0.76103 0.8712 0.0
H579 H 0.25178 0.83248 0.17542 0.0
H580 H 0.22222 0.82887 0.92072 0.0
H581 H 0.18389 0.79043 0.1265 0.0
C582 C 0.16657 0.76388 0.05369 0.0
C583 C 0.16571 0.75502 0.98245 0.0
C584 C 0.22852 0.83008 0.97723 0.0
C585 C 0.19754 0.79565 1.01387 0.0
C586 C 0.24883 0.84607 0.99332 0.0
C587 C 0.25774 0.84684 0.06436 0.0
C588 C 0.21705 0.81511 0.03313 0.0
C589 C 0.24537 0.83233 0.11994 0.0
C590 C 0.18261 0.78417 0.06987 0.0
C591 C 0.18019 0.76741 0.92682 0.0
N592 N 0.22568 0.81697 0.10308 0.0
N593 N 0.1956 0.78707 0.94377 0.0
H594 H 0.42451 0.17678 0.86715 0.0
H595 H 0.42663 0.25175 0.17266 0.0
H596 H 0.40813 0.15549 0.09793 0.0
H597 H 0.40687 0.255 0.94538 0.0
H598 H 0.41837 0.21582 0.14855 0.0
H599 H 0.41646 0.20454 0.89259 0.0
C600 C 0.4186 0.17763 0.92258 0.0
C601 C 0.41683 0.16384 0.98045 0.0
C602 C 0.41527 0.22414 0.10459 0.0
C603 C 0.40844 0.19598 1.01091 0.0
C604 C 0.41999 0.24462 0.11834 0.0
C605 C 0.41732 0.2562 0.06098 0.0
C606 C 0.4086 0.21549 0.03198 0.0
C607 C 0.40892 0.24644 0.99124 0.0
C608 C 0.41403 0.19346 0.93712 0.0
C609 C 0.40944 0.16571 0.05166 0.0
N610 N 0.40534 0.22678 0.97794 0.0
N611 N 0.40601 0.18186 0.06554 0.0
H612 H 0.08827 0.39561 0.39684 0.0
H613 H 0.1689 0.4642 0.72079 0.0
H614 H 0.14988 0.44684 0.34927 0.0
H615 H 0.11019 0.4085 0.76584 0.0
H616 H 0.16359 0.45655 0.5848 0.0
H617 H 0.09714 0.39852 0.53165 0.0
C618 C 0.10373 0.40742 0.4148 0.0
C619 C 0.11828 0.42115 0.36175 0.0
C620 C 0.15198 0.44585 0.62443 0.0
C621 C 0.12859 0.42462 0.51645 0.0
C622 C 0.15498 0.45024 0.70213 0.0
C623 C 0.13986 0.43711 0.75491 0.0
C624 C 0.1336 0.42828 0.59896 0.0
C625 C 0.12229 0.41905 0.72746 0.0
C626 C 0.10883 0.40901 0.4918 0.0
C627 C 0.13821 0.43591 0.38809 0.0
N628 N 0.11952 0.41533 0.65142 0.0
N629 N 0.14269 0.43742 0.46367 0.0
H630 H 0.69826 0.08615 0.39864 0.0
H631 H 0.71009 0.16672 0.72245 0.0
H632 H 0.70864 0.14774 0.35089 0.0
H633 H 0.70721 0.10809 0.76763 0.0
H634 H 0.71247 0.16142 0.58648 0.0
H635 H 0.70417 0.09502 0.53348 0.0
C636 C 0.7019 0.1016 0.41657 0.0
C637 C 0.70274 0.11614 0.36346 0.0
C638 C 0.71157 0.14982 0.62613 0.0
C639 C 0.70951 0.12647 0.5182 0.0
C640 C 0.71016 0.15282 0.70382 0.0
C641 C 0.7082 0.13772 0.75664 0.0
C642 C 0.71082 0.13147 0.60071 0.0
C643 C 0.70873 0.12017 0.72923 0.0
C644 C 0.70537 0.1067 0.49359 0.0
C645 C 0.7079 0.13607 0.38976 0.0
N646 N 0.70971 0.1174 0.6532 0.0
N647 N 0.71083 0.14056 0.46536 0.0
H648 H 0.61719 0.69578 0.39607 0.0
H649 H 0.54795 0.70681 0.71975 0.0
H650 H 0.56549 0.70538 0.34825 0.0
H651 H 0.60397 0.70444 0.76504 0.0
H652 H 0.55562 0.70921 0.5838 0.0
H653 H 0.61413 0.7016 0.53091 0.0
C654 C 0.60525 0.69923 0.41398 0.0
C655 C 0.59144 0.69987 0.36085 0.0
C656 C 0.56638 0.70842 0.62347 0.0
C657 C 0.58778 0.70655 0.51558 0.0
C658 C 0.56198 0.707 0.70116 0.0
C659 C 0.5752 0.70517 0.75401 0.0
C660 C 0.58406 0.70782 0.59808 0.0
C661 C 0.59335 0.70585 0.72662 0.0
C662 C 0.60356 0.70265 0.49099 0.0
C663 C 0.5765 0.70479 0.38713 0.0
N664 N 0.59709 0.70684 0.6506 0.0
N665 N 0.5749 0.70768 0.46273 0.0
H666 H 0.88027 0.59966 0.35658 0.0
H667 H 0.87892 0.53879 0.73008 0.0
H668 H 0.91617 0.56882 0.38289 0.0
H669 H 0.87456 0.59455 0.7496 0.0
H670 H 0.88542 0.54515 0.59451 0.0
H671 H 0.87138 0.59395 0.49339 0.0
C672 C 0.88617 0.59164 0.39116 0.0
C673 C 0.89905 0.58479 0.35893 0.0
C674 C 0.88294 0.55597 0.62821 0.0
C675 C 0.88879 0.57798 0.51345 0.0
C676 C 0.87904 0.55226 0.70558 0.0
C677 C 0.87605 0.56609 0.7512 0.0
C678 C 0.88364 0.57354 0.59526 0.0
C679 C 0.87684 0.58355 0.71632 0.0
C680 C 0.88123 0.58852 0.46886 0.0
C681 C 0.90639 0.57454 0.40578 0.0
N682 N 0.88045 0.58676 0.64004 0.0
N683 N 0.90104 0.57131 0.4803 0.0
H684 H 0.30539 0.84344 0.72139 0.0
H685 H 0.31689 0.92389 0.39794 0.0
H686 H 0.30793 0.90191 0.76681 0.0
H687 H 0.30683 0.86242 0.3499 0.0
H688 H 0.311 0.915 0.53272 0.0
H689 H 0.30302 0.84873 0.58543 0.0
C690 C 0.30524 0.8573 0.70281 0.0
C691 C 0.30711 0.87236 0.7557 0.0
C692 C 0.30986 0.90335 0.49277 0.0
C693 C 0.3045 0.8786 0.59978 0.0
C694 C 0.31332 0.90846 0.41579 0.0
C695 C 0.31257 0.89396 0.36261 0.0
C696 C 0.30581 0.88361 0.51729 0.0
C697 C 0.30751 0.87406 0.38882 0.0
C698 C 0.30384 0.86029 0.62513 0.0
C699 C 0.30648 0.88986 0.72835 0.0
N700 N 0.30458 0.86956 0.4644 0.0
N701 N 0.30552 0.89263 0.65233 0.0
H702 H 0.39808 0.31516 0.38914 0.0
H703 H 0.46683 0.30346 0.71277 0.0
H704 H 0.44949 0.3051 0.34122 0.0
H705 H 0.41053 0.3053 0.75787 0.0
H706 H 0.45928 0.3012 0.57672 0.0
H707 H 0.40092 0.30903 0.52383 0.0
C708 C 0.40991 0.31155 0.407 0.0
C709 C 0.42371 0.31086 0.35389 0.0
C710 C 0.44842 0.30183 0.61637 0.0
C711 C 0.42711 0.30382 0.50844 0.0
C712 C 0.45276 0.30316 0.6941 0.0
C713 C 0.43943 0.30482 0.74692 0.0
C714 C 0.43072 0.30236 0.59091 0.0
C715 C 0.42123 0.30402 0.71946 0.0
C716 C 0.41147 0.30794 0.48392 0.0
C717 C 0.4385 0.30574 0.38009 0.0
N718 N 0.41757 0.30315 0.64339 0.0
N719 N 0.43998 0.30267 0.4556 0.0
H720 H 0.54846 0.84308 0.325 0.0
H721 H 0.61691 0.92384 0.64885 0.0
H722 H 0.60405 0.90187 0.27986 0.0
H723 H 0.56589 0.86212 0.69655 0.0
H724 H 0.614 0.91497 0.51402 0.0
H725 H 0.55612 0.84841 0.46098 0.0
C726 C 0.56239 0.85702 0.34364 0.0
C727 C 0.57549 0.87216 0.29083 0.0
C728 C 0.60355 0.90326 0.5539 0.0
C729 C 0.58433 0.87845 0.44677 0.0
C730 C 0.60515 0.90836 0.63091 0.0
C731 C 0.59148 0.89378 0.684 0.0
C732 C 0.588 0.88346 0.52928 0.0
C733 C 0.57679 0.87382 0.6577 0.0
C734 C 0.56679 0.86004 0.42133 0.0
C735 C 0.59352 0.88976 0.31825 0.0
N736 N 0.57526 0.86933 0.5821 0.0
N737 N 0.59725 0.89255 0.39428 0.0
H738 H 0.70836 0.5623 0.7031 0.0
H739 H 0.70875 0.60282 0.28074 0.0
H740 H 0.69787 0.61319 0.65001 0.0
H741 H 0.70818 0.54549 0.3305 0.0
H742 H 0.71156 0.61057 0.41662 0.0
H743 H 0.71479 0.55957 0.56816 0.0
C744 C 0.70772 0.5731 0.66328 0.0
C745 C 0.70234 0.58785 0.68778 0.0
C746 C 0.71104 0.5964 0.39777 0.0
C747 C 0.70957 0.58476 0.53324 0.0
C748 C 0.70962 0.59204 0.32001 0.0
C749 C 0.70795 0.57333 0.29407 0.0
C750 C 0.7109 0.58199 0.45012 0.0
C751 C 0.70902 0.5599 0.34802 0.0
C752 C 0.71127 0.57146 0.58617 0.0
C753 C 0.70158 0.60135 0.63343 0.0
N754 N 0.71025 0.5644 0.42342 0.0
N755 N 0.70503 0.59941 0.55881 0.0
H756 H 0.11033 0.70586 0.27609 0.0
H757 H 0.1512 0.70705 0.69857 0.0
H758 H 0.1679 0.70692 0.3261 0.0
H759 H 0.08958 0.69592 0.64559 0.0
H760 H 0.16023 0.7133 0.56351 0.0
H761 H 0.10536 0.70875 0.41185 0.0
C762 C 0.12214 0.70709 0.31539 0.0
C763 C 0.13944 0.70588 0.28955 0.0
C764 C 0.14479 0.70968 0.58157 0.0
C765 C 0.1337 0.70892 0.44549 0.0
C766 C 0.13968 0.70624 0.65875 0.0
C767 C 0.11952 0.70073 0.68332 0.0
C768 C 0.12968 0.70772 0.52863 0.0
C769 C 0.10516 0.69974 0.62896 0.0
C770 C 0.1192 0.70857 0.39308 0.0
C771 C 0.15413 0.70739 0.34353 0.0
N772 N 0.11047 0.70307 0.55427 0.0
N773 N 0.15085 0.70866 0.41888 0.0
H774 H 0.40998 0.1084 0.27665 0.0
H775 H 0.44987 0.149 0.69934 0.0
H776 H 0.46674 0.16574 0.32688 0.0
H777 H 0.39932 0.08742 0.64606 0.0
H778 H 0.45264 0.15808 0.56433 0.0
H779 H 0.40215 0.1034 0.41243 0.0
C780 C 0.42061 0.12015 0.31601 0.0
C781 C 0.43919 0.1374 0.29023 0.0
C782 C 0.44081 0.14264 0.58231 0.0
C783 C 0.43044 0.13162 0.44618 0.0
C784 C 0.43915 0.1375 0.65946 0.0
C785 C 0.42448 0.11734 0.68393 0.0
C786 C 0.42764 0.12756 0.5293 0.0
C787 C 0.41109 0.103 0.62951 0.0
C788 C 0.41622 0.1172 0.39371 0.0
C789 C 0.45244 0.15202 0.34428 0.0
N790 N 0.41306 0.10834 0.55485 0.0
N791 N 0.44791 0.14872 0.41963 0.0
H792 H 0.30533 0.44692 0.69848 0.0
H793 H 0.30645 0.40723 0.2759 0.0
H794 H 0.31658 0.39652 0.6454 0.0
H795 H 0.30527 0.46367 0.32607 0.0
H796 H 0.30365 0.39939 0.41165 0.0
H797 H 0.29903 0.44966 0.56344 0.0
C798 C 0.30616 0.43623 0.65864 0.0
C799 C 0.31172 0.42162 0.68319 0.0
C800 C 0.30378 0.41339 0.39292 0.0
C801 C 0.30467 0.42474 0.52851 0.0
C802 C 0.30521 0.41779 0.31523 0.0
C803 C 0.30636 0.43629 0.28944 0.0
C804 C 0.30342 0.42754 0.44538 0.0
C805 C 0.30484 0.44945 0.34347 0.0
C806 C 0.3027 0.43788 0.58147 0.0
C807 C 0.31273 0.40826 0.6288 0.0
N808 N 0.30362 0.44492 0.41881 0.0
N809 N 0.30937 0.41021 0.55412 0.0
H810 H 0.92648 0.31516 0.65618 0.0
H811 H 0.84612 0.30375 0.33245 0.0
H812 H 0.86506 0.30525 0.70403 0.0
H813 H 0.9043 0.30567 0.28737 0.0
H814 H 0.85139 0.30143 0.46848 0.0
H815 H 0.91753 0.30914 0.52143 0.0
C816 C 0.91105 0.31161 0.63829 0.0
C817 C 0.89658 0.31093 0.6914 0.0
C818 C 0.86289 0.3021 0.42884 0.0
C819 C 0.88617 0.30402 0.53678 0.0
C820 C 0.85991 0.30347 0.35112 0.0
C821 C 0.87491 0.30516 0.29831 0.0
C822 C 0.88113 0.30262 0.45429 0.0
C823 C 0.89231 0.30437 0.32577 0.0
C824 C 0.9059 0.30806 0.56134 0.0
C825 C 0.87668 0.30588 0.66517 0.0
N826 N 0.89508 0.30345 0.40182 0.0
N827 N 0.87215 0.30287 0.58961 0.0
H828 H 0.05056 0.38595 0.86581 0.0
H829 H 0.96427 0.34157 0.18655 0.0
H830 H 0.06522 0.38294 0.10115 0.0
H831 H 0.94961 0.32542 0.95009 0.0
H832 H 1.00123 0.35618 0.15711 0.0
H833 H 0.0136 0.36329 0.89469 0.0
C834 C 0.04608 0.38042 0.92349 0.0
C835 C 0.06108 0.38688 0.98155 0.0
C836 C 0.9899 0.34928 0.11174 0.0
C837 C 0.01865 0.36104 1.01509 0.0
C838 C 0.96875 0.34091 0.12848 0.0
C839 C 0.95374 0.33273 0.07034 0.0
C840 C 0.99619 0.3497 0.03617 0.0
C841 C 0.96059 0.33216 0.99637 0.0
C842 C 0.02493 0.36745 0.9399 0.0
C843 C 0.05424 0.37896 0.05499 0.0
N844 N 0.98131 0.34084 0.98119 0.0
N845 N 0.03352 0.36675 0.0699 0.0
H846 H 0.62607 0.96121 0.18178 0.0
H847 H 0.66976 0.04868 0.86558 0.0
H848 H 0.62908 0.9474 0.94541 0.0
H849 H 0.68675 0.06247 0.10185 0.0
H850 H 0.65514 0.0116 0.8929 0.0
H851 H 0.64856 0.99828 0.15442 0.0
C852 C 0.63156 0.9659 0.12418 0.0
C853 C 0.62515 0.95109 0.06541 0.0
C854 C 0.66223 0.02276 0.93866 0.0
C855 C 0.65079 0.99367 0.03363 0.0
C856 C 0.67059 0.04399 0.92315 0.0
C857 C 0.67904 0.05879 0.98191 0.0
C858 C 0.66207 0.0162 1.01364 0.0
C859 C 0.67983 0.05166 0.05516 0.0
C860 C 0.64443 0.98712 0.10864 0.0
C861 C 0.63302 0.95821 0.99211 0.0
N862 N 0.67115 0.03088 0.06918 0.0
N863 N 0.64514 0.97899 0.97807 0.0
H864 H 0.67229 0.62635 0.18243 0.0
H865 H 0.62613 0.66702 0.86354 0.0
H866 H 0.68706 0.62692 0.94495 0.0
H867 H 0.6299 0.68508 0.09876 0.0
H868 H 0.64903 0.65294 0.89136 0.0
H869 H 0.65744 0.64851 0.15357 0.0
C870 C 0.6726 0.63125 0.12424 0.0
C871 C 0.68046 0.62421 0.0657 0.0
C872 C 0.64498 0.66014 0.93678 0.0
C873 C 0.66321 0.64948 0.0322 0.0
C874 C 0.63188 0.6682 0.92097 0.0
C875 C 0.62556 0.67679 0.97933 0.0
C876 C 0.65169 0.66045 1.01166 0.0
C877 C 0.63377 0.67804 0.05241 0.0
C878 C 0.66409 0.64393 0.10783 0.0
C879 C 0.68059 0.63133 0.99158 0.0
N880 N 0.64612 0.66967 0.06674 0.0
N881 N 0.67178 0.64328 0.97677 0.0
H882 H 0.05065 0.66749 0.17841 0.0
H883 H 0.96422 0.62499 0.85876 0.0
H884 H 0.06521 0.68482 0.9428 0.0
H885 H 0.94967 0.62814 0.09412 0.0
H886 H 1.0012 0.64729 0.88775 0.0
H887 H 0.01369 0.65339 0.1497 0.0
C888 C 0.04615 0.66851 0.12072 0.0
C889 C 0.06112 0.6769 0.06254 0.0
C890 C 0.9899 0.64324 0.93298 0.0
C891 C 0.0187 0.66054 0.02922 0.0
C892 C 0.96872 0.63048 0.9165 0.0
C893 C 0.95374 0.6241 0.97456 0.0
C894 C 0.99623 0.64952 1.00823 0.0
C895 C 0.96064 0.63199 0.04803 0.0
C896 C 0.02501 0.66045 0.10441 0.0
C897 C 0.05426 0.67794 0.98907 0.0
N898 N 0.98139 0.64397 0.06305 0.0
N899 N 0.03355 0.66955 0.97428 0.0
H900 H 0.3452 0.9613 0.86458 0.0
H901 H 0.38854 0.04895 0.18072 0.0
H902 H 0.32829 0.94763 0.10089 0.0
H903 H 0.38609 0.06261 0.94383 0.0
H904 H 0.36606 0.01187 0.15339 0.0
H905 H 0.35974 0.99839 0.89171 0.0
C906 C 0.34437 0.96602 0.92212 0.0
C907 C 0.33598 0.95126 0.98094 0.0
C908 C 0.3703 0.023 0.10748 0.0
C909 C 0.35285 0.99385 1.01247 0.0
C910 C 0.38317 0.04423 0.12301 0.0
C911 C 0.38974 0.05899 0.06412 0.0
C912 C 0.3641 0.0164 0.03237 0.0
C913 C 0.38201 0.05183 0.99067 0.0
C914 C 0.35269 0.98725 0.93753 0.0
C915 C 0.33518 0.95842 0.05415 0.0
N916 N 0.3699 0.03104 0.97666 0.0
N917 N 0.34381 0.9792 0.06807 0.0
H918 H 0.34489 0.38612 0.17868 0.0
H919 H 0.38603 0.34064 0.85865 0.0
H920 H 0.32733 0.38301 0.94314 0.0
H921 H 0.38511 0.32534 0.09572 0.0
H922 H 0.36388 0.35548 0.88784 0.0
H923 H 0.35902 0.36329 0.15029 0.0
C924 C 0.34383 0.38053 0.12106 0.0
C925 C 0.33536 0.387 0.06282 0.0
C926 C 0.36839 0.34872 0.93341 0.0
C927 C 0.35175 0.36095 0.02984 0.0
C928 C 0.38106 0.34022 0.91681 0.0
C929 C 0.38799 0.33221 0.97516 0.0
C930 C 0.36273 0.34945 1.00904 0.0
C931 C 0.38077 0.33194 0.04925 0.0
C932 C 0.35191 0.36746 0.10493 0.0
C933 C 0.33426 0.379 0.98946 0.0
N934 N 0.36884 0.34074 0.06426 0.0
N935 N 0.34266 0.36668 0.97484 0.0
loop_
_geom_bond_atom_site_label_1
_geom_bond_atom_site_label_2
_geom_bond_distance
_geom_bond_site_symmetry_2
_ccdc_geom_bond_type
C0 C1 1.351 . S
C0 N3 1.368 . S
C0 H5 0.931 . S
C1 C0 1.351 . S
C1 N2 1.373 . S
C1 H29 0.930 . S
N2 C1 1.373 . S
N2 C4 1.340 . S
N3 C0 1.368 . S
N3 C4 1.321 . S
N3 Co6 2.135 1_556 S
C4 N2 1.340 . S
C4 N3 1.321 . S
C4 H28 0.930 . S
H5 C0 0.931 . S
Co6 N3 2.135 1_554 S
Co6 N9 2.121 . S
Co6 O14 2.055 . S
Co6 O17 2.039 1_554 S
Co6 N20 2.140 . S
C7 O8 1.227 . S
C7 O17 1.265 . S
O8 C7 1.227 . S
N9 Co6 2.121 . S
N9 C11 1.375 . S
N9 C12 1.313 . S
C10 C11 1.338 . S
C10 N13 1.377 . S
C10 H30 0.930 . S
C11 N9 1.375 . S
C11 C10 1.338 . S
C11 H15 0.931 . S
C12 N9 1.313 . S
C12 N13 1.344 . S
C12 H16 0.930 . S
N13 C10 1.377 . S
N13 C12 1.344 . S
O14 Co6 2.055 . S
O14 C18 1.253 . S
H15 C11 0.931 . S
H16 C12 0.930 . S
O17 Co6 2.039 1_556 S
O17 C7 1.265 . S
C18 O14 1.253 . S
C18 O19 1.227 . S
O19 C18 1.227 . S
N20 Co6 2.140 . S
N20 C23 1.346 1_554 S
N20 C24 1.345 . S
C21 C22 1.387 . S
C21 C25 1.391 1_556 S
C22 C21 1.387 . S
C22 C23 1.369 . S
C22 H31 0.929 . S
C23 N20 1.346 1_556 S
C23 C22 1.369 . S
C23 H26 0.928 . S
C24 N20 1.345 . S
C24 C25 1.371 . S
C24 H27 0.931 . S
C25 C21 1.391 1_554 S
C25 C24 1.371 . S
C25 H32 0.930 . S
H26 C23 0.928 . S
H27 C24 0.931 . S
H28 C4 0.930 . S
H29 C1 0.930 . S
H30 C10 0.930 . S
H31 C22 0.929 . S
H32 C25 0.930 . S
C33 C34 1.351 . S
C33 N36 1.368 . S
C33 H38 0.931 . S
C34 C33 1.351 . S
C34 N35 1.373 . S
C34 H62 0.930 . S
N35 C34 1.373 . S
N35 C37 1.340 . S
N36 C33 1.368 . S
N36 C37 1.321 . S
N36 Co39 2.135 1_556 S
C37 N35 1.340 . S
C37 N36 1.321 . S
C37 H61 0.930 . S
H38 C33 0.931 . S
Co39 N36 2.135 1_554 S
Co39 N42 2.121 . S
Co39 O47 2.055 . S
Co39 O50 2.039 1_554 S
Co39 N53 2.140 . S
C40 O41 1.227 . S
C40 O50 1.265 . S
O41 C40 1.227 . S
N42 Co39 2.121 . S
N42 C44 1.375 . S
N42 C45 1.313 . S
C43 C44 1.338 . S
C43 N46 1.377 . S
C43 H63 0.930 . S
C44 N42 1.375 . S
C44 C43 1.338 . S
C44 H48 0.931 . S
C45 N42 1.313 . S
C45 N46 1.344 . S
C45 H49 0.930 . S
N46 C43 1.377 . S
N46 C45 1.344 . S
O47 Co39 2.055 . S
O47 C51 1.253 . S
H48 C44 0.931 . S
H49 C45 0.930 . S
O50 Co39 2.039 1_556 S
O50 C40 1.265 . S
C51 O47 1.253 . S
C51 O52 1.227 . S
O52 C51 1.227 . S
N53 Co39 2.140 . S
N53 C56 1.346 1_554 S
N53 C57 1.345 . S
C54 C55 1.387 . S
C54 C58 1.391 1_556 S
C55 C54 1.387 . S
C55 C56 1.369 . S
C55 H64 0.929 . S
C56 N53 1.346 1_556 S
C56 C55 1.369 . S
C56 H59 0.928 . S
C57 N53 1.345 . S
C57 C58 1.371 . S
C57 H60 0.931 . S
C58 C54 1.391 1_554 S
C58 C57 1.371 . S
C58 H65 0.930 . S
H59 C56 0.928 . S
H60 C57 0.931 . S
H61 C37 0.930 . S
H62 C34 0.930 . S
H63 C43 0.930 . S
H64 C55 0.929 . S
H65 C58 0.930 . S
C66 C67 1.351 . S
C66 N69 1.368 . S
C66 H71 0.931 . S
C67 C66 1.351 . S
C67 N68 1.373 . S
C67 H95 0.930 . S
N68 C67 1.373 . S
N68 C70 1.340 . S
N69 C66 1.368 . S
N69 C70 1.321 . S
N69 Co72 2.135 1_556 S
C70 N68 1.340 . S
C70 N69 1.321 . S
C70 H94 0.930 . S
H71 C66 0.931 . S
Co72 N69 2.135 1_554 S
Co72 N75 2.121 . S
Co72 O80 2.055 . S
Co72 O83 2.039 1_554 S
Co72 N86 2.140 . S
C73 O74 1.227 . S
C73 O83 1.265 . S
O74 C73 1.227 . S
N75 Co72 2.121 . S
N75 C77 1.375 . S
N75 C78 1.313 . S
C76 C77 1.338 . S
C76 N79 1.377 . S
C76 H96 0.930 . S
C77 N75 1.375 . S
C77 C76 1.338 . S
C77 H81 0.931 . S
C78 N75 1.313 . S
C78 N79 1.344 . S
C78 H82 0.930 . S
N79 C76 1.377 . S
N79 C78 1.344 . S
O80 Co72 2.055 . S
O80 C84 1.253 . S
H81 C77 0.931 . S
H82 C78 0.930 . S
O83 Co72 2.039 1_556 S
O83 C73 1.265 . S
C84 O80 1.253 . S
C84 O85 1.227 . S
O85 C84 1.227 . S
N86 Co72 2.140 . S
N86 C89 1.346 1_554 S
N86 C90 1.345 . S
C87 C88 1.386 . S
C87 C91 1.392 1_556 S
C88 C87 1.386 . S
C88 C89 1.369 . S
C88 H97 0.929 . S
C89 N86 1.346 1_556 S
C89 C88 1.369 . S
C89 H92 0.928 . S
C90 N86 1.345 . S
C90 C91 1.371 . S
C90 H93 0.931 . S
C91 C87 1.392 1_554 S
C91 C90 1.371 . S
C91 H98 0.930 . S
H92 C89 0.928 . S
H93 C90 0.931 . S
H94 C70 0.930 . S
H95 C67 0.930 . S
H96 C76 0.930 . S
H97 C88 0.929 . S
H98 C91 0.930 . S
C99 C100 1.351 . S
C99 N102 1.368 . S
C99 H104 0.931 . S
C100 C99 1.351 . S
C100 N101 1.373 . S
C100 H128 0.930 . S
N101 C100 1.373 . S
N101 C103 1.340 . S
N102 C99 1.368 . S
N102 C103 1.321 . S
N102 Co105 2.135 1_556 S
C103 N101 1.340 . S
C103 N102 1.321 . S
C103 H127 0.930 . S
H104 C99 0.931 . S
Co105 N102 2.135 1_554 S
Co105 N108 2.121 . S
Co105 O113 2.055 . S
Co105 O116 2.039 1_554 S
Co105 N119 2.140 . S
C106 O107 1.227 . S
C106 O116 1.265 . S
O107 C106 1.227 . S
N108 Co105 2.121 . S
N108 C110 1.375 . S
N108 C111 1.313 . S
C109 C110 1.338 . S
C109 N112 1.377 . S
C109 H129 0.930 . S
C110 N108 1.375 . S
C110 C109 1.338 . S
C110 H114 0.931 . S
C111 N108 1.313 . S
C111 N112 1.344 . S
C111 H115 0.930 . S
N112 C109 1.377 . S
N112 C111 1.344 . S
O113 Co105 2.055 . S
O113 C117 1.253 . S
H114 C110 0.931 . S
H115 C111 0.930 . S
O116 Co105 2.039 1_556 S
O116 C106 1.265 . S
C117 O113 1.253 . S
C117 O118 1.227 . S
O118 C117 1.227 . S
N119 Co105 2.140 . S
N119 C122 1.346 1_554 S
N119 C123 1.345 . S
C120 C121 1.387 . S
C120 C124 1.391 1_556 S
C121 C120 1.387 . S
C121 C122 1.369 . S
C121 H130 0.929 . S
C122 N119 1.346 1_556 S
C122 C121 1.369 . S
C122 H125 0.928 . S
C123 N119 1.345 . S
C123 C124 1.371 . S
C123 H126 0.931 . S
C124 C120 1.391 1_554 S
C124 C123 1.371 . S
C124 H131 0.930 . S
H125 C122 0.928 . S
H126 C123 0.931 . S
H127 C103 0.930 . S
H128 C100 0.930 . S
H129 C109 0.930 . S
H130 C121 0.929 . S
H131 C124 0.930 . S
C132 C133 1.351 . S
C132 N135 1.368 . S
C132 H137 0.931 . S
C133 C132 1.351 . S
C133 N134 1.373 . S
C133 H161 0.930 . S
N134 C133 1.373 . S
N134 C136 1.340 . S
N135 C132 1.368 . S
N135 C136 1.321 . S
N135 Co138 2.135 1_556 S
C136 N134 1.340 . S
C136 N135 1.321 . S
C136 H160 0.930 . S
H137 C132 0.931 . S
Co138 N135 2.135 1_554 S
Co138 N141 2.121 . S
Co138 O146 2.055 . S
Co138 O149 2.039 1_554 S
Co138 N152 2.140 . S
C139 O140 1.227 . S
C139 O149 1.265 . S
O140 C139 1.227 . S
N141 Co138 2.121 . S
N141 C143 1.375 . S
N141 C144 1.313 . S
C142 C143 1.338 . S
C142 N145 1.377 . S
C142 H162 0.930 . S
C143 N141 1.375 . S
C143 C142 1.338 . S
C143 H147 0.931 . S
C144 N141 1.313 . S
C144 N145 1.344 . S
C144 H148 0.930 . S
N145 C142 1.377 . S
N145 C144 1.344 . S
O146 Co138 2.055 . S
O146 C150 1.253 . S
H147 C143 0.931 . S
H148 C144 0.930 . S
O149 Co138 2.039 1_556 S
O149 C139 1.265 . S
C150 O146 1.253 . S
C150 O151 1.227 . S
O151 C150 1.227 . S
N152 Co138 2.140 . S
N152 C155 1.346 1_554 S
N152 C156 1.345 . S
C153 C154 1.387 . S
C153 C157 1.391 1_556 S
C154 C153 1.387 . S
C154 C155 1.369 . S
C154 H163 0.929 . S
C155 N152 1.346 1_556 S
C155 C154 1.369 . S
C155 H158 0.928 . S
C156 N152 1.345 . S
C156 C157 1.371 . S
C156 H159 0.931 . S
C157 C153 1.391 1_554 S
C157 C156 1.371 . S
C157 H164 0.930 . S
H158 C155 0.928 . S
H159 C156 0.931 . S
H160 C136 0.930 . S
H161 C133 0.930 . S
H162 C142 0.930 . S
H163 C154 0.929 . S
H164 C157 0.930 . S
C165 C166 1.351 . S
C165 N168 1.368 . S
C165 H170 0.931 . S
C166 C165 1.351 . S
C166 N167 1.373 . S
C166 H194 0.930 . S
N167 C166 1.373 . S
N167 C169 1.340 . S
N168 C165 1.368 . S
N168 C169 1.321 . S
N168 Co171 2.135 1_556 S
C169 N167 1.340 . S
C169 N168 1.321 . S
C169 H193 0.930 . S
H170 C165 0.931 . S
Co171 N168 2.135 1_554 S
Co171 N174 2.121 . S
Co171 O179 2.055 . S
Co171 O182 2.039 1_554 S
Co171 N185 2.140 . S
C172 O173 1.227 . S
C172 O182 1.265 . S
O173 C172 1.227 . S
N174 Co171 2.121 . S
N174 C176 1.375 . S
N174 C177 1.313 . S
C175 C176 1.338 . S
C175 N178 1.377 . S
C175 H195 0.930 . S
C176 N174 1.375 . S
C176 C175 1.338 . S
C176 H180 0.931 . S
C177 N174 1.313 . S
C177 N178 1.344 . S
C177 H181 0.930 . S
N178 C175 1.377 . S
N178 C177 1.344 . S
O179 Co171 2.055 . S
O179 C183 1.253 . S
H180 C176 0.931 . S
H181 C177 0.930 . S
O182 Co171 2.039 1_556 S
O182 C172 1.265 . S
C183 O179 1.253 . S
C183 O184 1.227 . S
O184 C183 1.227 . S
N185 Co171 2.140 . S
N185 C188 1.346 1_554 S
N185 C189 1.345 . S
C186 C187 1.386 . S
C186 C190 1.392 1_556 S
C187 C186 1.386 . S
C187 C188 1.369 . S
C187 H196 0.929 . S
C188 N185 1.346 1_556 S
C188 C187 1.369 . S
C188 H191 0.928 . S
C189 N185 1.345 . S
C189 C190 1.371 . S
C189 H192 0.931 . S
C190 C186 1.392 1_554 S
C190 C189 1.371 . S
C190 H197 0.930 . S
H191 C188 0.928 . S
H192 C189 0.931 . S
H193 C169 0.930 . S
H194 C166 0.930 . S
H195 C175 0.930 . S
H196 C187 0.929 . S
H197 C190 0.930 . S
C198 C199 1.351 . S
C198 N201 1.368 . S
C198 H203 0.931 . S
C199 C198 1.351 . S
C199 N200 1.373 . S
C199 H227 0.930 . S
N200 C199 1.373 . S
N200 C202 1.340 . S
N201 C198 1.368 . S
N201 C202 1.321 . S
N201 Co204 2.135 . S
C202 N200 1.340 . S
C202 N201 1.321 . S
C202 H226 0.930 . S
H203 C198 0.931 . S
Co204 N201 2.135 . S
Co204 N207 2.121 1_554 S
Co204 O212 2.055 1_554 S
Co204 O215 2.039 . S
Co204 N218 2.140 . S
C205 O206 1.227 . S
C205 O215 1.265 . S
O206 C205 1.227 . S
N207 Co204 2.121 1_556 S
N207 C209 1.375 . S
N207 C210 1.313 . S
C208 C209 1.338 . S
C208 N211 1.377 . S
C208 H228 0.930 . S
C209 N207 1.375 . S
C209 C208 1.338 . S
C209 H213 0.931 . S
C210 N207 1.313 . S
C210 N211 1.344 . S
C210 H214 0.930 . S
N211 C208 1.377 . S
N211 C210 1.344 . S
O212 Co204 2.055 1_556 S
O212 C216 1.253 . S
H213 C209 0.931 . S
H214 C210 0.930 . S
O215 Co204 2.039 . S
O215 C205 1.265 . S
C216 O212 1.253 . S
C216 O217 1.227 . S
O217 C216 1.227 . S
N218 Co204 2.140 . S
N218 C221 1.346 . S
N218 C222 1.345 1_554 S
C219 C220 1.387 . S
C219 C223 1.391 1_554 S
C220 C219 1.387 . S
C220 C221 1.369 . S
C220 H229 0.929 . S
C221 N218 1.346 . S
C221 C220 1.369 . S
C221 H224 0.928 . S
C222 N218 1.345 1_556 S
C222 C223 1.371 . S
C222 H225 0.931 . S
C223 C219 1.391 1_556 S
C223 C222 1.371 . S
C223 H230 0.930 . S
H224 C221 0.928 . S
H225 C222 0.931 . S
H226 C202 0.930 . S
H227 C199 0.930 . S
H228 C208 0.930 . S
H229 C220 0.929 . S
H230 C223 0.930 . S
C231 C232 1.351 . S
C231 N234 1.368 . S
C231 H236 0.931 . S
C232 C231 1.351 . S
C232 N233 1.373 . S
C232 H260 0.930 . S
N233 C232 1.373 . S
N233 C235 1.340 . S
N234 C231 1.368 . S
N234 C235 1.321 . S
N234 Co237 2.135 . S
C235 N233 1.340 . S
C235 N234 1.321 . S
C235 H259 0.930 . S
H236 C231 0.931 . S
Co237 N234 2.135 . S
Co237 N240 2.121 1_554 S
Co237 O245 2.055 1_554 S
Co237 O248 2.039 . S
Co237 N251 2.140 . S
C238 O239 1.227 . S
C238 O248 1.265 . S
O239 C238 1.227 . S
N240 Co237 2.121 1_556 S
N240 C242 1.375 . S
N240 C243 1.313 . S
C241 C242 1.338 . S
C241 N244 1.377 . S
C241 H261 0.930 . S
C242 N240 1.375 . S
C242 C241 1.338 . S
C242 H246 0.931 . S
C243 N240 1.313 . S
C243 N244 1.344 . S
C243 H247 0.930 . S
N244 C241 1.377 . S
N244 C243 1.344 . S
O245 Co237 2.055 1_556 S
O245 C249 1.253 . S
H246 C242 0.931 . S
H247 C243 0.930 . S
O248 Co237 2.039 . S
O248 C238 1.265 . S
C249 O245 1.253 . S
C249 O250 1.227 . S
O250 C249 1.227 . S
N251 Co237 2.140 . S
N251 C254 1.346 . S
N251 C255 1.345 1_554 S
C252 C253 1.387 . S
C252 C256 1.391 1_554 S
C253 C252 1.387 . S
C253 C254 1.369 . S
C253 H262 0.929 . S
C254 N251 1.346 . S
C254 C253 1.369 . S
C254 H257 0.928 . S
C255 N251 1.345 1_556 S
C255 C256 1.371 . S
C255 H258 0.931 . S
C256 C252 1.391 1_556 S
C256 C255 1.371 . S
C256 H263 0.930 . S
H257 C254 0.928 . S
H258 C255 0.931 . S
H259 C235 0.930 . S
H260 C232 0.930 . S
H261 C241 0.930 . S
H262 C253 0.929 . S
H263 C256 0.930 . S
C264 C265 1.351 . S
C264 N267 1.368 . S
C264 H269 0.931 . S
C265 C264 1.351 . S
C265 N266 1.373 . S
C265 H293 0.930 . S
N266 C265 1.373 . S
N266 C268 1.340 . S
N267 C264 1.368 . S
N267 C268 1.321 . S
N267 Co270 2.135 . S
C268 N266 1.340 . S
C268 N267 1.321 . S
C268 H292 0.930 . S
H269 C264 0.931 . S
Co270 N267 2.135 . S
Co270 N273 2.121 1_554 S
Co270 O278 2.055 1_554 S
Co270 O281 2.039 . S
Co270 N284 2.140 . S
C271 O272 1.227 . S
C271 O281 1.265 . S
O272 C271 1.227 . S
N273 Co270 2.121 1_556 S
N273 C275 1.375 . S
N273 C276 1.313 . S
C274 C275 1.338 . S
C274 N277 1.377 . S
C274 H294 0.930 . S
C275 N273 1.375 . S
C275 C274 1.338 . S
C275 H279 0.931 . S
C276 N273 1.313 . S
C276 N277 1.344 . S
C276 H280 0.930 . S
N277 C274 1.377 . S
N277 C276 1.344 . S
O278 Co270 2.055 1_556 S
O278 C282 1.253 . S
H279 C275 0.931 . S
H280 C276 0.930 . S
O281 Co270 2.039 . S
O281 C271 1.265 . S
C282 O278 1.253 . S
C282 O283 1.227 . S
O283 C282 1.227 . S
N284 Co270 2.140 . S
N284 C287 1.346 . S
N284 C288 1.345 1_554 S
C285 C286 1.387 . S
C285 C289 1.391 1_554 S
C286 C285 1.387 . S
C286 C287 1.369 . S
C286 H295 0.929 . S
C287 N284 1.346 . S
C287 C286 1.369 . S
C287 H290 0.928 . S
C288 N284 1.345 1_556 S
C288 C289 1.371 . S
C288 H291 0.931 . S
C289 C285 1.391 1_556 S
C289 C288 1.371 . S
C289 H296 0.930 . S
H290 C287 0.928 . S
H291 C288 0.931 . S
H292 C268 0.930 . S
H293 C265 0.930 . S
H294 C274 0.930 . S
H295 C286 0.929 . S
H296 C289 0.930 . S
C297 C298 1.351 . S
C297 N300 1.368 . S
C297 H302 0.931 . S
C298 C297 1.351 . S
C298 N299 1.373 . S
C298 H326 0.930 . S
N299 C298 1.373 . S
N299 C301 1.340 . S
N300 C297 1.368 . S
N300 C301 1.321 . S
N300 Co303 2.135 . S
C301 N299 1.340 . S
C301 N300 1.321 . S
C301 H325 0.930 . S
H302 C297 0.931 . S
Co303 N300 2.135 . S
Co303 N306 2.121 1_554 S
Co303 O311 2.055 1_554 S
Co303 O314 2.039 . S
Co303 N317 2.140 . S
C304 O305 1.227 . S
C304 O314 1.265 . S
O305 C304 1.227 . S
N306 Co303 2.121 1_556 S
N306 C308 1.375 . S
N306 C309 1.313 . S
C307 C308 1.338 . S
C307 N310 1.377 . S
C307 H327 0.930 . S
C308 N306 1.375 . S
C308 C307 1.338 . S
C308 H312 0.931 . S
C309 N306 1.313 . S
C309 N310 1.344 . S
C309 H313 0.930 . S
N310 C307 1.377 . S
N310 C309 1.344 . S
O311 Co303 2.055 1_556 S
O311 C315 1.253 . S
H312 C308 0.931 . S
H313 C309 0.930 . S
O314 Co303 2.039 . S
O314 C304 1.265 . S
C315 O311 1.253 . S
C315 O316 1.227 . S
O316 C315 1.227 . S
N317 Co303 2.140 . S
N317 C320 1.346 . S
N317 C321 1.345 1_554 S
C318 C319 1.387 . S
C318 C322 1.391 1_554 S
C319 C318 1.387 . S
C319 C320 1.369 . S
C319 H328 0.929 . S
C320 N317 1.346 . S
C320 C319 1.369 . S
C320 H323 0.928 . S
C321 N317 1.345 1_556 S
C321 C322 1.371 . S
C321 H324 0.931 . S
C322 C318 1.391 1_556 S
C322 C321 1.371 . S
C322 H329 0.930 . S
H323 C320 0.928 . S
H324 C321 0.931 . S
H325 C301 0.930 . S
H326 C298 0.930 . S
H327 C307 0.930 . S
H328 C319 0.929 . S
H329 C322 0.930 . S
C330 C331 1.351 . S
C330 N333 1.368 . S
C330 H335 0.931 . S
C331 C330 1.351 . S
C331 N332 1.373 . S
C331 H359 0.930 . S
N332 C331 1.373 . S
N332 C334 1.340 . S
N333 C330 1.368 . S
N333 C334 1.321 . S
N333 Co336 2.135 . S
C334 N332 1.340 . S
C334 N333 1.321 . S
C334 H358 0.930 . S
H335 C330 0.931 . S
Co336 N333 2.135 . S
Co336 N339 2.121 1_554 S
Co336 O344 2.055 1_554 S
Co336 O347 2.039 . S
Co336 N350 2.140 . S
C337 O338 1.227 . S
C337 O347 1.265 . S
O338 C337 1.227 . S
N339 Co336 2.121 1_556 S
N339 C341 1.375 . S
N339 C342 1.313 . S
C340 C341 1.338 . S
C340 N343 1.377 . S
C340 H360 0.930 . S
C341 N339 1.375 . S
C341 C340 1.338 . S
C341 H345 0.931 . S
C342 N339 1.313 . S
C342 N343 1.344 . S
C342 H346 0.930 . S
N343 C340 1.377 . S
N343 C342 1.344 . S
O344 Co336 2.055 1_556 S
O344 C348 1.253 . S
H345 C341 0.931 . S
H346 C342 0.930 . S
O347 Co336 2.039 . S
O347 C337 1.265 . S
C348 O344 1.253 . S
C348 O349 1.227 . S
O349 C348 1.227 . S
N350 Co336 2.140 . S
N350 C353 1.346 . S
N350 C354 1.345 1_554 S
C351 C352 1.387 . S
C351 C355 1.391 1_554 S
C352 C351 1.387 . S
C352 C353 1.369 . S
C352 H361 0.929 . S
C353 N350 1.346 . S
C353 C352 1.369 . S
C353 H356 0.928 . S
C354 N350 1.345 1_556 S
C354 C355 1.371 . S
C354 H357 0.931 . S
C355 C351 1.391 1_556 S
C355 C354 1.371 . S
C355 H362 0.930 . S
H356 C353 0.928 . S
H357 C354 0.931 . S
H358 C334 0.930 . S
H359 C331 0.930 . S
H360 C340 0.930 . S
H361 C352 0.929 . S
H362 C355 0.930 . S
C363 C364 1.351 . S
C363 N366 1.368 . S
C363 H368 0.931 . S
C364 C363 1.351 . S
C364 N365 1.373 . S
C364 H392 0.930 . S
N365 C364 1.373 . S
N365 C367 1.340 . S
N366 C363 1.368 . S
N366 C367 1.321 . S
N366 Co369 2.135 . S
C367 N365 1.340 . S
C367 N366 1.321 . S
C367 H391 0.930 . S
H368 C363 0.931 . S
Co369 N366 2.135 . S
Co369 N372 2.121 1_554 S
Co369 O377 2.055 1_554 S
Co369 O380 2.039 . S
Co369 N383 2.140 . S
C370 O371 1.227 . S
C370 O380 1.265 . S
O371 C370 1.227 . S
N372 Co369 2.121 1_556 S
N372 C374 1.375 . S
N372 C375 1.313 . S
C373 C374 1.338 . S
C373 N376 1.377 . S
C373 H393 0.930 . S
C374 N372 1.375 . S
C374 C373 1.338 . S
C374 H378 0.931 . S
C375 N372 1.313 . S
C375 N376 1.344 . S
C375 H379 0.930 . S
N376 C373 1.377 . S
N376 C375 1.344 . S
O377 Co369 2.055 1_556 S
O377 C381 1.253 . S
H378 C374 0.931 . S
H379 C375 0.930 . S
O380 Co369 2.039 . S
O380 C370 1.265 . S
C381 O377 1.253 . S
C381 O382 1.227 . S
O382 C381 1.227 . S
N383 Co369 2.140 . S
N383 C386 1.346 . S
N383 C387 1.345 1_554 S
C384 C385 1.387 . S
C384 C388 1.391 1_554 S
C385 C384 1.387 . S
C385 C386 1.369 . S
C385 H394 0.929 . S
C386 N383 1.346 . S
C386 C385 1.369 . S
C386 H389 0.928 . S
C387 N383 1.345 1_556 S
C387 C388 1.371 . S
C387 H390 0.931 . S
C388 C384 1.391 1_556 S
C388 C387 1.371 . S
C388 H395 0.930 . S
H389 C386 0.928 . S
H390 C387 0.931 . S
H391 C367 0.930 . S
H392 C364 0.930 . S
H393 C373 0.930 . S
H394 C385 0.929 . S
H395 C388 0.930 . S
H396 C402 0.930 . S
H397 C406 0.930 . S
H398 C411 0.929 . S
H399 C409 0.929 . S
H400 C404 0.929 . S
H401 C410 0.929 . S
C402 H396 0.930 . S
C402 C403 1.367 . S
C402 C410 1.378 . S
C403 C402 1.367 . S
C403 C411 1.433 1_554 S
C404 H400 0.929 . S
C404 C406 1.378 . S
C404 C408 1.342 1_556 S
C405 C408 1.463 . S
C405 C410 1.350 . S
C405 N413 1.427 1_554 S
C406 H397 0.930 . S
C406 C404 1.378 . S
C406 C407 1.367 . S
C407 C406 1.367 . S
C407 C409 1.433 1_556 S
C408 C404 1.342 1_554 S
C408 C405 1.463 . S
C408 N412 1.435 . S
C409 H399 0.929 . S
C409 C407 1.433 1_554 S
C409 N412 1.384 . S
C410 H401 0.929 . S
C410 C402 1.378 . S
C410 C405 1.350 . S
C411 H398 0.929 . S
C411 C403 1.433 1_556 S
C411 N413 1.384 . S
N412 C408 1.435 . S
N412 C409 1.384 . S
N413 C405 1.427 1_556 S
N413 C411 1.384 . S
H414 C420 0.930 . S
H415 C424 0.930 . S
H416 C429 0.929 . S
H417 C427 0.929 . S
H418 C422 0.929 . S
H419 C428 0.929 . S
C420 H414 0.930 . S
C420 C421 1.367 . S
C420 C428 1.378 . S
C421 C420 1.367 . S
C421 C429 1.433 1_556 S
C422 H418 0.929 . S
C422 C424 1.378 . S
C422 C426 1.350 . S
C423 C426 1.463 . S
C423 C428 1.343 1_554 S
C423 N431 1.435 . S
C424 H415 0.930 . S
C424 C422 1.378 . S
C424 C425 1.367 . S
C425 C424 1.367 . S
C425 C427 1.433 1_554 S
C426 C422 1.350 . S
C426 C423 1.463 . S
C426 N430 1.427 1_554 S
C427 H417 0.929 . S
C427 C425 1.433 1_556 S
C427 N430 1.384 . S
C428 H419 0.929 . S
C428 C420 1.378 . S
C428 C423 1.343 1_556 S
C429 H416 0.929 . S
C429 C421 1.433 1_554 S
C429 N431 1.384 . S
N430 C426 1.427 1_556 S
N430 C427 1.384 . S
N431 C423 1.435 . S
N431 C429 1.384 . S
H432 C438 0.930 . S
H433 C442 0.930 . S
H434 C447 0.929 . S
H435 C445 0.929 . S
H436 C440 0.929 . S
H437 C446 0.929 . S
C438 H432 0.930 . S
C438 C439 1.367 1_556 S
C438 C446 1.378 . S
C439 C438 1.367 1_554 S
C439 C447 1.433 . S
C440 H436 0.929 . S
C440 C442 1.378 . S
C440 C444 1.350 . S
C441 C444 1.463 . S
C441 C446 1.350 1_554 S
C441 N449 1.427 . S
C442 H433 0.930 . S
C442 C440 1.378 . S
C442 C443 1.367 . S
C443 C442 1.367 . S
C443 C445 1.433 1_554 S
C444 C440 1.350 . S
C444 C441 1.463 . S
C444 N448 1.427 1_554 S
C445 H435 0.929 . S
C445 C443 1.433 1_556 S
C445 N448 1.384 . S
C446 H437 0.929 . S
C446 C438 1.378 . S
C446 C441 1.350 1_556 S
C447 H434 0.929 . S
C447 C439 1.433 . S
C447 N449 1.384 . S
N448 C444 1.427 1_556 S
N448 C445 1.384 . S
N449 C441 1.427 . S
N449 C447 1.384 . S
H450 C456 0.930 . S
H451 C460 0.930 . S
H452 C465 0.929 . S
H453 C463 0.929 . S
H454 C458 0.929 . S
H455 C464 0.929 . S
C456 H450 0.930 . S
C456 C457 1.367 1_556 S
C456 C464 1.378 . S
C457 C456 1.367 1_554 S
C457 C465 1.433 . S
C458 H454 0.929 . S
C458 C460 1.378 . S
C458 C462 1.350 . S
C459 C462 1.463 . S
C459 C464 1.350 1_554 S
C459 N467 1.427 . S
C460 H451 0.930 . S
C460 C458 1.378 . S
C460 C461 1.367 . S
C461 C460 1.367 . S
C461 C463 1.433 1_554 S
C462 C458 1.350 . S
C462 C459 1.463 . S
C462 N466 1.427 1_554 S
C463 H453 0.929 . S
C463 C461 1.433 1_556 S
C463 N466 1.384 . S
C464 H455 0.929 . S
C464 C456 1.378 . S
C464 C459 1.350 1_556 S
C465 H452 0.929 . S
C465 C457 1.433 . S
C465 N467 1.384 . S
N466 C462 1.427 1_556 S
N466 C463 1.384 . S
N467 C459 1.427 . S
N467 C465 1.384 . S
H468 C474 0.930 . S
H469 C478 0.930 . S
H470 C483 0.929 . S
H471 C481 0.929 . S
H472 C476 0.929 . S
H473 C482 0.929 . S
C474 H468 0.930 . S
C474 C475 1.367 . S
C474 C482 1.378 . S
C475 C474 1.367 . S
C475 C483 1.433 1_554 S
C476 H472 0.929 . S
C476 C478 1.378 . S
C476 C480 1.350 1_556 S
C477 C480 1.463 . S
C477 C482 1.350 . S
C477 N485 1.427 1_554 S
C478 H469 0.930 . S
C478 C476 1.378 . S
C478 C479 1.367 1_556 S
C479 C478 1.367 1_554 S
C479 C481 1.433 . S
C480 C476 1.350 1_554 S
C480 C477 1.463 . S
C480 N484 1.427 . S
C481 H471 0.929 . S
C481 C479 1.433 . S
C481 N484 1.384 . S
C482 H473 0.929 . S
C482 C474 1.378 . S
C482 C477 1.350 . S
C483 H470 0.929 . S
C483 C475 1.433 1_556 S
C483 N485 1.384 . S
N484 C480 1.427 . S
N484 C481 1.384 . S
N485 C477 1.427 1_556 S
N485 C483 1.384 . S
H486 C492 0.930 . S
H487 C496 0.930 . S
H488 C501 0.929 . S
H489 C499 0.929 . S
H490 C494 0.929 . S
H491 C500 0.929 . S
C492 H486 0.930 . S
C492 C493 1.367 . S
C492 C500 1.378 . S
C493 C492 1.367 . S
C493 C501 1.433 1_554 S
C494 H490 0.929 . S
C494 C496 1.378 . S
C494 C498 1.344 1_556 S
C495 C498 1.463 . S
C495 C500 1.350 . S
C495 N503 1.427 1_554 S
C496 H487 0.930 . S
C496 C494 1.378 . S
C496 C497 1.367 . S
C497 C496 1.367 . S
C497 C499 1.433 1_556 S
C498 C494 1.344 1_554 S
C498 C495 1.463 . S
C498 N502 1.433 . S
C499 H489 0.929 . S
C499 C497 1.433 1_554 S
C499 N502 1.384 . S
C500 H491 0.929 . S
C500 C492 1.378 . S
C500 C495 1.350 . S
C501 H488 0.929 . S
C501 C493 1.433 1_556 S
C501 N503 1.384 . S
N502 C498 1.433 . S
N502 C499 1.384 . S
N503 C495 1.427 1_556 S
N503 C501 1.384 . S
H504 C510 0.930 . S
H505 C514 0.930 . S
H506 C519 0.929 . S
H507 C517 0.929 . S
H508 C512 0.929 . S
H509 C518 0.929 . S
C510 H504 0.930 . S
C510 C511 1.367 . S
C510 C518 1.378 . S
C511 C510 1.367 . S
C511 C519 1.433 1_556 S
C512 H508 0.929 . S
C512 C514 1.378 . S
C512 C516 1.350 . S
C513 C516 1.463 1_556 S
C513 C518 1.350 . S
C513 N521 1.427 1_556 S
C514 H505 0.930 . S
C514 C512 1.378 . S
C514 C515 1.367 . S
C515 C514 1.367 . S
C515 C517 1.433 1_554 S
C516 C512 1.350 . S
C516 C513 1.463 1_554 S
C516 N520 1.427 1_554 S
C517 H507 0.929 . S
C517 C515 1.433 1_556 S
C517 N520 1.384 . S
C518 H509 0.929 . S
C518 C510 1.378 . S
C518 C513 1.350 . S
C519 H506 0.929 . S
C519 C511 1.433 1_554 S
C519 N521 1.384 . S
N520 C516 1.427 1_556 S
N520 C517 1.384 . S
N521 C513 1.427 1_554 S
N521 C519 1.384 . S
H522 C528 0.930 . S
H523 C532 0.930 . S
H524 C537 0.929 . S
H525 C535 0.929 . S
H526 C530 0.929 . S
H527 C536 0.929 . S
C528 H522 0.930 . S
C528 C529 1.367 1_554 S
C528 C536 1.378 . S
C529 C528 1.367 1_556 S
C529 C537 1.433 . S
C530 H526 0.929 . S
C530 C532 1.378 . S
C530 C534 1.350 1_556 S
C531 C534 1.463 . S
C531 C536 1.350 . S
C531 N539 1.427 1_554 S
C532 H523 0.930 . S
C532 C530 1.378 . S
C532 C533 1.367 1_556 S
C533 C532 1.367 1_554 S
C533 C535 1.433 . S
C534 C530 1.350 1_554 S
C534 C531 1.463 . S
C534 N538 1.427 . S
C535 H525 0.929 . S
C535 C533 1.433 . S
C535 N538 1.384 . S
C536 H527 0.929 . S
C536 C528 1.378 . S
C536 C531 1.350 . S
C537 H524 0.929 . S
C537 C529 1.433 . S
C537 N539 1.384 . S
N538 C534 1.427 . S
N538 C535 1.384 . S
N539 C531 1.427 1_556 S
N539 C537 1.384 . S
H540 C546 0.930 . S
H541 C550 0.930 . S
H542 C555 0.929 . S
H543 C553 0.929 . S
H544 C548 0.929 . S
H545 C554 0.929 . S
C546 H540 0.930 . S
C546 C547 1.367 1_556 S
C546 C554 1.378 . S
C547 C546 1.367 1_554 S
C547 C555 1.433 . S
C548 H544 0.929 . S
C548 C550 1.378 . S
C548 C552 1.350 . S
C549 C552 1.463 . S
C549 C554 1.350 1_554 S
C549 N557 1.427 . S
C550 H541 0.930 . S
C550 C548 1.378 . S
C550 C551 1.367 1_554 S
C551 C550 1.367 1_556 S
C551 C553 1.433 . S
C552 C548 1.350 . S
C552 C549 1.463 . S
C552 N556 1.427 1_554 S
C553 H543 0.929 . S
C553 C551 1.433 . S
C553 N556 1.384 . S
C554 H545 0.929 . S
C554 C546 1.378 . S
C554 C549 1.350 1_556 S
C555 H542 0.929 . S
C555 C547 1.433 . S
C555 N557 1.384 . S
N556 C552 1.427 1_556 S
N556 C553 1.384 . S
N557 C549 1.427 . S
N557 C555 1.384 . S
H558 C564 0.930 . S
H559 C568 0.930 . S
H560 C573 0.929 . S
H561 C571 0.929 . S
H562 C566 0.929 . S
H563 C572 0.929 . S
C564 H558 0.930 . S
C564 C565 1.367 . S
C564 C572 1.378 . S
C565 C564 1.367 . S
C565 C573 1.433 1_556 S
C566 H562 0.929 . S
C566 C568 1.378 . S
C566 C570 1.350 . S
C567 C570 1.463 1_556 S
C567 C572 1.350 . S
C567 N575 1.427 1_556 S
C568 H559 0.930 . S
C568 C566 1.378 . S
C568 C569 1.367 . S
C569 C568 1.367 . S
C569 C571 1.433 1_554 S
C570 C566 1.350 . S
C570 C567 1.463 1_554 S
C570 N574 1.427 1_554 S
C571 H561 0.929 . S
C571 C569 1.433 1_556 S
C571 N574 1.384 . S
C572 H563 0.929 . S
C572 C564 1.378 . S
C572 C567 1.350 . S
C573 H560 0.929 . S
C573 C565 1.433 1_554 S
C573 N575 1.384 . S
N574 C570 1.427 1_556 S
N574 C571 1.384 . S
N575 C567 1.427 1_554 S
N575 C573 1.384 . S
H576 C582 0.930 . S
H577 C586 0.930 . S
H578 C591 0.929 . S
H579 C589 0.929 . S
H580 C584 0.929 . S
H581 C590 0.929 . S
C582 H576 0.930 . S
C582 C583 1.367 1_554 S
C582 C590 1.378 . S
C583 C582 1.367 1_556 S
C583 C591 1.433 . S
C584 H580 0.929 . S
C584 C586 1.378 . S
C584 C588 1.350 1_556 S
C585 C588 1.463 . S
C585 C590 1.350 . S
C585 N593 1.427 1_554 S
C586 H577 0.930 . S
C586 C584 1.378 . S
C586 C587 1.367 1_556 S
C587 C586 1.367 1_554 S
C587 C589 1.433 . S
C588 C584 1.350 1_554 S
C588 C585 1.463 . S
C588 N592 1.427 . S
C589 H579 0.929 . S
C589 C587 1.433 . S
C589 N592 1.384 . S
C590 H581 0.929 . S
C590 C582 1.378 . S
C590 C585 1.350 . S
C591 H578 0.929 . S
C591 C583 1.433 . S
C591 N593 1.384 . S
N592 C588 1.427 . S
N592 C589 1.384 . S
N593 C585 1.427 1_556 S
N593 C591 1.384 . S
H594 C600 0.930 . S
H595 C604 0.930 . S
H596 C609 0.929 . S
H597 C607 0.929 . S
H598 C602 0.929 . S
H599 C608 0.929 . S
C600 H594 0.930 . S
C600 C601 1.367 . S
C600 C608 1.378 . S
C601 C600 1.367 . S
C601 C609 1.433 1_556 S
C602 H598 0.929 . S
C602 C604 1.378 . S
C602 C606 1.350 . S
C603 C606 1.463 1_556 S
C603 C608 1.350 . S
C603 N611 1.427 1_556 S
C604 H595 0.930 . S
C604 C602 1.378 . S
C604 C605 1.367 . S
C605 C604 1.367 . S
C605 C607 1.433 1_554 S
C606 C602 1.350 . S
C606 C603 1.463 1_554 S
C606 N610 1.427 1_554 S
C607 H597 0.929 . S
C607 C605 1.433 1_556 S
C607 N610 1.384 . S
C608 H599 0.929 . S
C608 C600 1.378 . S
C608 C603 1.350 . S
C609 H596 0.929 . S
C609 C601 1.433 1_554 S
C609 N611 1.384 . S
N610 C606 1.427 1_556 S
N610 C607 1.384 . S
N611 C603 1.427 1_554 S
N611 C609 1.384 . S
H612 C618 0.930 . S
H613 C622 0.930 . S
H614 C627 0.929 . S
H615 C625 0.929 . S
H616 C620 0.929 . S
H617 C626 0.929 . S
C618 H612 0.930 . S
C618 C619 1.367 . S
C618 C626 1.378 . S
C619 C618 1.367 . S
C619 C627 1.433 . S
C620 H616 0.929 . S
C620 C622 1.378 . S
C620 C624 1.350 . S
C621 C624 1.463 . S
C621 C626 1.350 . S
C621 N629 1.427 . S
C622 H613 0.930 . S
C622 C620 1.378 . S
C622 C623 1.367 . S
C623 C622 1.367 . S
C623 C625 1.433 . S
C624 C620 1.350 . S
C624 C621 1.463 . S
C624 N628 1.427 . S
C625 H615 0.929 . S
C625 C623 1.433 . S
C625 N628 1.384 . S
C626 H617 0.929 . S
C626 C618 1.378 . S
C626 C621 1.350 . S
C627 H614 0.929 . S
C627 C619 1.433 . S
C627 N629 1.384 . S
N628 C624 1.427 . S
N628 C625 1.384 . S
N629 C621 1.427 . S
N629 C627 1.384 . S
H630 C636 0.930 . S
H631 C640 0.930 . S
H632 C645 0.929 . S
H633 C643 0.929 . S
H634 C638 0.929 . S
H635 C644 0.929 . S
C636 H630 0.930 . S
C636 C637 1.367 . S
C636 C644 1.378 . S
C637 C636 1.367 . S
C637 C645 1.433 . S
C638 H634 0.929 . S
C638 C640 1.378 . S
C638 C642 1.350 . S
C639 C642 1.463 . S
C639 C644 1.350 . S
C639 N647 1.427 . S
C640 H631 0.930 . S
C640 C638 1.378 . S
C640 C641 1.367 . S
C641 C640 1.367 . S
C641 C643 1.433 . S
C642 C638 1.350 . S
C642 C639 1.463 . S
C642 N646 1.427 . S
C643 H633 0.929 . S
C643 C641 1.433 . S
C643 N646 1.384 . S
C644 H635 0.929 . S
C644 C636 1.378 . S
C644 C639 1.350 . S
C645 H632 0.929 . S
C645 C637 1.433 . S
C645 N647 1.384 . S
N646 C642 1.427 . S
N646 C643 1.384 . S
N647 C639 1.427 . S
N647 C645 1.384 . S
H648 C654 0.930 . S
H649 C658 0.930 . S
H650 C663 0.929 . S
H651 C661 0.929 . S
H652 C656 0.929 . S
H653 C662 0.929 . S
C654 H648 0.930 . S
C654 C655 1.367 . S
C654 C662 1.378 . S
C655 C654 1.367 . S
C655 C663 1.433 . S
C656 H652 0.929 . S
C656 C658 1.378 . S
C656 C660 1.350 . S
C657 C660 1.463 . S
C657 C662 1.350 . S
C657 N665 1.427 . S
C658 H649 0.930 . S
C658 C656 1.378 . S
C658 C659 1.367 . S
C659 C658 1.367 . S
C659 C661 1.433 . S
C660 C656 1.350 . S
C660 C657 1.463 . S
C660 N664 1.427 . S
C661 H651 0.929 . S
C661 C659 1.433 . S
C661 N664 1.384 . S
C662 H653 0.929 . S
C662 C654 1.378 . S
C662 C657 1.350 . S
C663 H650 0.929 . S
C663 C655 1.433 . S
C663 N665 1.384 . S
N664 C660 1.427 . S
N664 C661 1.384 . S
N665 C657 1.427 . S
N665 C663 1.384 . S
H666 C672 0.930 . S
H667 C676 0.930 . S
H668 C681 0.929 . S
H669 C679 0.929 . S
H670 C674 0.929 . S
H671 C680 0.929 . S
C672 H666 0.930 . S
C672 C673 1.367 . S
C672 C680 1.378 . S
C673 C672 1.367 . S
C673 C681 1.433 . S
C674 H670 0.929 . S
C674 C676 1.378 . S
C674 C678 1.350 . S
C675 C678 1.463 . S
C675 C680 1.350 . S
C675 N683 1.427 . S
C676 H667 0.930 . S
C676 C674 1.378 . S
C676 C677 1.367 . S
C677 C676 1.367 . S
C677 C679 1.433 . S
C678 C674 1.350 . S
C678 C675 1.463 . S
C678 N682 1.427 . S
C679 H669 0.929 . S
C679 C677 1.433 . S
C679 N682 1.384 . S
C680 H671 0.929 . S
C680 C672 1.378 . S
C680 C675 1.350 . S
C681 H668 0.929 . S
C681 C673 1.433 . S
C681 N683 1.384 . S
N682 C678 1.427 . S
N682 C679 1.384 . S
N683 C675 1.427 . S
N683 C681 1.384 . S
H684 C690 0.930 . S
H685 C694 0.930 . S
H686 C699 0.929 . S
H687 C697 0.929 . S
H688 C692 0.929 . S
H689 C698 0.929 . S
C690 H684 0.930 . S
C690 C691 1.367 . S
C690 C698 1.378 . S
C691 C690 1.367 . S
C691 C699 1.433 . S
C692 H688 0.929 . S
C692 C694 1.378 . S
C692 C696 1.350 . S
C693 C696 1.463 . S
C693 C698 1.350 . S
C693 N701 1.427 . S
C694 H685 0.930 . S
C694 C692 1.378 . S
C694 C695 1.367 . S
C695 C694 1.367 . S
C695 C697 1.433 . S
C696 C692 1.350 . S
C696 C693 1.463 . S
C696 N700 1.427 . S
C697 H687 0.929 . S
C697 C695 1.433 . S
C697 N700 1.384 . S
C698 H689 0.929 . S
C698 C690 1.378 . S
C698 C693 1.350 . S
C699 H686 0.929 . S
C699 C691 1.433 . S
C699 N701 1.384 . S
N700 C696 1.427 . S
N700 C697 1.384 . S
N701 C693 1.427 . S
N701 C699 1.384 . S
H702 C708 0.930 . S
H703 C712 0.930 . S
H704 C717 0.929 . S
H705 C715 0.929 . S
H706 C710 0.929 . S
H707 C716 0.929 . S
C708 H702 0.930 . S
C708 C709 1.367 . S
C708 C716 1.378 . S
C709 C708 1.367 . S
C709 C717 1.433 . S
C710 H706 0.929 . S
C710 C712 1.378 . S
C710 C714 1.350 . S
C711 C714 1.463 . S
C711 C716 1.350 . S
C711 N719 1.427 . S
C712 H703 0.930 . S
C712 C710 1.378 . S
C712 C713 1.367 . S
C713 C712 1.367 . S
C713 C715 1.433 . S
C714 C710 1.350 . S
C714 C711 1.463 . S
C714 N718 1.427 . S
C715 H705 0.929 . S
C715 C713 1.433 . S
C715 N718 1.384 . S
C716 H707 0.929 . S
C716 C708 1.378 . S
C716 C711 1.350 . S
C717 H704 0.929 . S
C717 C709 1.433 . S
C717 N719 1.384 . S
N718 C714 1.427 . S
N718 C715 1.384 . S
N719 C711 1.427 . S
N719 C717 1.384 . S
H720 C726 0.930 . S
H721 C730 0.930 . S
H722 C735 0.929 . S
H723 C733 0.929 . S
H724 C728 0.929 . S
H725 C734 0.929 . S
C726 H720 0.930 . S
C726 C727 1.367 . S
C726 C734 1.378 . S
C727 C726 1.367 . S
C727 C735 1.433 . S
C728 H724 0.929 . S
C728 C730 1.378 . S
C728 C732 1.350 . S
C729 C732 1.463 . S
C729 C734 1.350 . S
C729 N737 1.427 . S
C730 H721 0.930 . S
C730 C728 1.378 . S
C730 C731 1.367 . S
C731 C730 1.367 . S
C731 C733 1.433 . S
C732 C728 1.350 . S
C732 C729 1.463 . S
C732 N736 1.427 . S
C733 H723 0.929 . S
C733 C731 1.433 . S
C733 N736 1.384 . S
C734 H725 0.929 . S
C734 C726 1.378 . S
C734 C729 1.350 . S
C735 H722 0.929 . S
C735 C727 1.433 . S
C735 N737 1.384 . S
N736 C732 1.427 . S
N736 C733 1.384 . S
N737 C729 1.427 . S
N737 C735 1.384 . S
H738 C744 0.930 . S
H739 C748 0.930 . S
H740 C753 0.929 . S
H741 C751 0.929 . S
H742 C746 0.929 . S
H743 C752 0.929 . S
C744 H738 0.930 . S
C744 C745 1.367 . S
C744 C752 1.378 . S
C745 C744 1.367 . S
C745 C753 1.433 . S
C746 H742 0.929 . S
C746 C748 1.378 . S
C746 C750 1.350 . S
C747 C750 1.463 . S
C747 C752 1.350 . S
C747 N755 1.427 . S
C748 H739 0.930 . S
C748 C746 1.378 . S
C748 C749 1.367 . S
C749 C748 1.367 . S
C749 C751 1.433 . S
C750 C746 1.350 . S
C750 C747 1.463 . S
C750 N754 1.427 . S
C751 H741 0.929 . S
C751 C749 1.433 . S
C751 N754 1.384 . S
C752 H743 0.929 . S
C752 C744 1.378 . S
C752 C747 1.350 . S
C753 H740 0.929 . S
C753 C745 1.433 . S
C753 N755 1.384 . S
N754 C750 1.427 . S
N754 C751 1.384 . S
N755 C747 1.427 . S
N755 C753 1.384 . S
H756 C762 0.930 . S
H757 C766 0.930 . S
H758 C771 0.929 . S
H759 C769 0.929 . S
H760 C764 0.929 . S
H761 C770 0.929 . S
C762 H756 0.930 . S
C762 C763 1.367 . S
C762 C770 1.378 . S
C763 C762 1.367 . S
C763 C771 1.433 . S
C764 H760 0.929 . S
C764 C766 1.378 . S
C764 C768 1.350 . S
C765 C768 1.463 . S
C765 C770 1.350 . S
C765 N773 1.427 . S
C766 H757 0.930 . S
C766 C764 1.378 . S
C766 C767 1.367 . S
C767 C766 1.367 . S
C767 C769 1.433 . S
C768 C764 1.350 . S
C768 C765 1.463 . S
C768 N772 1.427 . S
C769 H759 0.929 . S
C769 C767 1.433 . S
C769 N772 1.384 . S
C770 H761 0.929 . S
C770 C762 1.378 . S
C770 C765 1.350 . S
C771 H758 0.929 . S
C771 C763 1.433 . S
C771 N773 1.384 . S
N772 C768 1.427 . S
N772 C769 1.384 . S
N773 C765 1.427 . S
N773 C771 1.384 . S
H774 C780 0.930 . S
H775 C784 0.930 . S
H776 C789 0.929 . S
H777 C787 0.929 . S
H778 C782 0.929 . S
H779 C788 0.929 . S
C780 H774 0.930 . S
C780 C781 1.367 . S
C780 C788 1.378 . S
C781 C780 1.367 . S
C781 C789 1.433 . S
C782 H778 0.929 . S
C782 C784 1.378 . S
C782 C786 1.350 . S
C783 C786 1.463 . S
C783 C788 1.350 . S
C783 N791 1.427 . S
C784 H775 0.930 . S
C784 C782 1.378 . S
C784 C785 1.367 . S
C785 C784 1.367 . S
C785 C787 1.433 . S
C786 C782 1.350 . S
C786 C783 1.463 . S
C786 N790 1.427 . S
C787 H777 0.929 . S
C787 C785 1.433 . S
C787 N790 1.384 . S
C788 H779 0.929 . S
C788 C780 1.378 . S
C788 C783 1.350 . S
C789 H776 0.929 . S
C789 C781 1.433 . S
C789 N791 1.384 . S
N790 C786 1.427 . S
N790 C787 1.384 . S
N791 C783 1.427 . S
N791 C789 1.384 . S
H792 C798 0.930 . S
H793 C802 0.930 . S
H794 C807 0.929 . S
H795 C805 0.929 . S
H796 C800 0.929 . S
H797 C806 0.929 . S
C798 H792 0.930 . S
C798 C799 1.367 . S
C798 C806 1.378 . S
C799 C798 1.367 . S
C799 C807 1.433 . S
C800 H796 0.929 . S
C800 C802 1.378 . S
C800 C804 1.350 . S
C801 C804 1.463 . S
C801 C806 1.350 . S
C801 N809 1.427 . S
C802 H793 0.930 . S
C802 C800 1.378 . S
C802 C803 1.367 . S
C803 C802 1.367 . S
C803 C805 1.433 . S
C804 C800 1.350 . S
C804 C801 1.463 . S
C804 N808 1.427 . S
C805 H795 0.929 . S
C805 C803 1.433 . S
C805 N808 1.384 . S
C806 H797 0.929 . S
C806 C798 1.378 . S
C806 C801 1.350 . S
C807 H794 0.929 . S
C807 C799 1.433 . S
C807 N809 1.384 . S
N808 C804 1.427 . S
N808 C805 1.384 . S
N809 C801 1.427 . S
N809 C807 1.384 . S
H810 C816 0.930 . S
H811 C820 0.930 . S
H812 C825 0.929 . S
H813 C823 0.929 . S
H814 C818 0.929 . S
H815 C824 0.929 . S
C816 H810 0.930 . S
C816 C817 1.367 . S
C816 C824 1.378 . S
C817 C816 1.367 . S
C817 C825 1.433 . S
C818 H814 0.929 . S
C818 C820 1.378 . S
C818 C822 1.350 . S
C819 C822 1.463 . S
C819 C824 1.350 . S
C819 N827 1.427 . S
C820 H811 0.930 . S
C820 C818 1.378 . S
C820 C821 1.367 . S
C821 C820 1.367 . S
C821 C823 1.433 . S
C822 C818 1.350 . S
C822 C819 1.463 . S
C822 N826 1.427 . S
C823 H813 0.929 . S
C823 C821 1.433 . S
C823 N826 1.384 . S
C824 H815 0.929 . S
C824 C816 1.378 . S
C824 C819 1.350 . S
C825 H812 0.929 . S
C825 C817 1.433 . S
C825 N827 1.384 . S
N826 C822 1.427 . S
N826 C823 1.384 . S
N827 C819 1.427 . S
N827 C825 1.384 . S
H828 C834 0.930 . S
H829 C838 0.930 . S
H830 C843 0.929 . S
H831 C841 0.929 . S
H832 C836 0.929 . S
H833 C842 0.929 . S
C834 H828 0.930 . S
C834 C835 1.367 . S
C834 C842 1.378 . S
C835 C834 1.367 . S
C835 C843 1.433 1_556 S
C836 H832 0.929 . S
C836 C838 1.378 . S
C836 C840 1.350 . S
C837 C840 1.463 1_456 S
C837 C842 1.350 . S
C837 N845 1.427 1_556 S
C838 H829 0.930 . S
C838 C836 1.378 . S
C838 C839 1.367 . S
C839 C838 1.367 . S
C839 C841 1.433 1_554 S
C840 C836 1.350 . S
C840 C837 1.463 1_654 S
C840 N844 1.427 1_554 S
C841 H831 0.929 . S
C841 C839 1.433 1_556 S
C841 N844 1.384 . S
C842 H833 0.929 . S
C842 C834 1.378 . S
C842 C837 1.350 . S
C843 H830 0.929 . S
C843 C835 1.433 1_554 S
C843 N845 1.384 . S
N844 C840 1.427 1_556 S
N844 C841 1.384 . S
N845 C837 1.427 1_554 S
N845 C843 1.384 . S
H846 C852 0.930 . S
H847 C856 0.930 . S
H848 C861 0.929 . S
H849 C859 0.929 . S
H850 C854 0.929 . S
H851 C860 0.929 . S
C852 H846 0.930 . S
C852 C853 1.367 . S
C852 C860 1.378 . S
C853 C852 1.367 . S
C853 C861 1.433 1_554 S
C854 H850 0.929 . S
C854 C856 1.378 . S
C854 C858 1.350 . S
C855 C858 1.463 1_564 S
C855 C860 1.350 . S
C855 N863 1.427 1_554 S
C856 H847 0.930 . S
C856 C854 1.378 . S
C856 C857 1.367 . S
C857 C856 1.367 . S
C857 C859 1.433 1_556 S
C858 C854 1.350 . S
C858 C855 1.463 1_546 S
C858 N862 1.427 1_556 S
C859 H849 0.929 . S
C859 C857 1.433 1_554 S
C859 N862 1.384 . S
C860 H851 0.929 . S
C860 C852 1.378 . S
C860 C855 1.350 . S
C861 H848 0.929 . S
C861 C853 1.433 1_556 S
C861 N863 1.384 . S
N862 C858 1.427 1_554 S
N862 C859 1.384 . S
N863 C855 1.427 1_556 S
N863 C861 1.384 . S
H864 C870 0.930 . S
H865 C874 0.930 . S
H866 C879 0.929 . S
H867 C877 0.929 . S
H868 C872 0.929 . S
H869 C878 0.929 . S
C870 H864 0.930 . S
C870 C871 1.367 . S
C870 C878 1.378 . S
C871 C870 1.367 . S
C871 C879 1.433 1_554 S
C872 H868 0.929 . S
C872 C874 1.378 . S
C872 C876 1.354 . S
C873 C876 1.462 1_554 S
C873 C878 1.350 . S
C873 N881 1.427 1_554 S
C874 H865 0.930 . S
C874 C872 1.378 . S
C874 C875 1.367 . S
C875 C874 1.367 . S
C875 C877 1.433 1_556 S
C876 C872 1.354 . S
C876 C873 1.462 1_556 S
C876 N880 1.424 1_556 S
C877 H867 0.929 . S
C877 C875 1.433 1_554 S
C877 N880 1.384 . S
C878 H869 0.929 . S
C878 C870 1.378 . S
C878 C873 1.350 . S
C879 H866 0.929 . S
C879 C871 1.433 1_556 S
C879 N881 1.384 . S
N880 C876 1.424 1_554 S
N880 C877 1.384 . S
N881 C873 1.427 1_556 S
N881 C879 1.384 . S
H882 C888 0.930 . S
H883 C892 0.930 . S
H884 C897 0.929 . S
H885 C895 0.929 . S
H886 C890 0.929 . S
H887 C896 0.929 . S
C888 H882 0.930 . S
C888 C889 1.367 . S
C888 C896 1.378 . S
C889 C888 1.367 . S
C889 C897 1.433 1_554 S
C890 H886 0.929 . S
C890 C892 1.378 . S
C890 C894 1.357 . S
C891 C894 1.461 1_454 S
C891 C896 1.350 . S
C891 N899 1.427 1_554 S
C892 H883 0.930 . S
C892 C890 1.378 . S
C892 C893 1.367 . S
C893 C892 1.367 . S
C893 C895 1.433 1_556 S
C894 C890 1.357 . S
C894 C891 1.461 1_656 S
C894 N898 1.422 1_556 S
C895 H885 0.929 . S
C895 C893 1.433 1_554 S
C895 N898 1.384 . S
C896 H887 0.929 . S
C896 C888 1.378 . S
C896 C891 1.350 . S
C897 H884 0.929 . S
C897 C889 1.433 1_556 S
C897 N899 1.384 . S
N898 C894 1.422 1_554 S
N898 C895 1.384 . S
N899 C891 1.427 1_556 S
N899 C897 1.384 . S
H900 C906 0.930 . S
H901 C910 0.930 . S
H902 C915 0.929 . S
H903 C913 0.929 . S
H904 C908 0.929 . S
H905 C914 0.929 . S
C906 H900 0.930 . S
C906 C907 1.367 . S
C906 C914 1.378 . S
C907 C906 1.367 . S
C907 C915 1.433 1_556 S
C908 H904 0.929 . S
C908 C910 1.378 . S
C908 C912 1.350 . S
C909 C912 1.463 1_566 S
C909 C914 1.350 . S
C909 N917 1.427 1_556 S
C910 H901 0.930 . S
C910 C908 1.378 . S
C910 C911 1.367 . S
C911 C910 1.367 . S
C911 C913 1.433 1_554 S
C912 C908 1.350 . S
C912 C909 1.463 1_544 S
C912 N916 1.427 1_554 S
C913 H903 0.929 . S
C913 C911 1.433 1_556 S
C913 N916 1.384 . S
C914 H905 0.929 . S
C914 C906 1.378 . S
C914 C909 1.350 . S
C915 H902 0.929 . S
C915 C907 1.433 1_554 S
C915 N917 1.384 . S
N916 C912 1.427 1_556 S
N916 C913 1.384 . S
N917 C909 1.427 1_554 S
N917 C915 1.384 . S
H918 C924 0.930 . S
H919 C928 0.930 . S
H920 C933 0.929 . S
H921 C931 0.929 . S
H922 C926 0.929 . S
H923 C932 0.929 . S
C924 H918 0.930 . S
C924 C925 1.367 . S
C924 C932 1.378 . S
C925 C924 1.367 . S
C925 C933 1.433 1_554 S
C926 H922 0.929 . S
C926 C928 1.378 . S
C926 C930 1.350 . S
C927 C930 1.463 1_554 S
C927 C932 1.350 . S
C927 N935 1.427 1_554 S
C928 H919 0.930 . S
C928 C926 1.378 . S
C928 C929 1.367 . S
C929 C928 1.367 . S
C929 C931 1.433 1_556 S
C930 C926 1.350 . S
C930 C927 1.463 1_556 S
C930 N934 1.427 1_556 S
C931 H921 0.929 . S
C931 C929 1.433 1_554 S
C931 N934 1.384 . S
C932 H923 0.929 . S
C932 C924 1.378 . S
C932 C927 1.350 . S
C933 H920 0.929 . S
C933 C925 1.433 1_556 S
C933 N935 1.384 . S
N934 C930 1.427 1_554 S
N934 C931 1.384 . S
N935 C927 1.427 1_556 S
N935 C933 1.384 . S
C403 C285 1.579 . S
C407 C21 1.577 . S
C421 C54 1.579 . S
C425 C318 1.577 . S
C439 C351 1.578 . S
C443 C87 1.576 1_554 S
C457 C384 1.578 . S
C461 C120 1.576 1_554 S
C475 C153 1.576 1_554 S
C479 C219 1.579 . S
C493 C252 1.577 . S
C497 C186 1.578 . S
C511 C348 1.230 . S
C515 C18 1.227 . S
C529 C381 1.223 . S
C533 C51 1.225 . S
C547 C84 1.225 . S
C551 C216 1.223 . S
C565 C249 1.228 . S
C569 C117 1.229 . S
C583 C282 1.223 . S
C587 C150 1.225 . S
C601 C315 1.224 . S
C605 C183 1.230 . S
C619 N13 1.454 . S
C623 N2 1.450 . S
C637 N46 1.451 . S
C641 N35 1.447 . S
C655 N79 1.451 . S
C659 N68 1.447 . S
C673 N112 1.459 . S
C677 N101 1.456 . S
C691 N134 1.447 . S
C695 N145 1.451 . S
C709 N178 1.451 . S
C713 N167 1.448 . S
C727 N200 1.448 . S
C731 N211 1.451 . S
C745 N244 1.458 . S
C749 N233 1.454 . S
C763 N266 1.451 . S
C767 N277 1.455 . S
C781 N299 1.463 . S
C785 N310 1.466 . S
C799 N343 1.458 . S
C803 N332 1.454 . S
C817 N376 1.451 . S
C821 N365 1.447 . S
C835 C7 1.236 . S
C839 C370 1.242 . S
C853 C205 1.243 . S
C857 C40 1.234 . S
C871 C238 1.245 . S
C875 C73 1.233 . S
C889 C271 1.233 . S
C893 C106 1.244 . S
C907 C139 1.243 . S
C911 C304 1.234 . S
C925 C337 1.238 . S
C929 C172 1.240 . S
