# Generated by pormake.
# Topology tzs, (4)-cn, num edge types: 1
# Building blocks:
#     Node 0, Type 0, BuildingBlock: UXUYUI_clean_sbu_0, # of connection points: 4
#     Node 1, Type 0, BuildingBlock: UXUYUI_clean_sbu_0, # of connection points: 4
#     Node 2, Type 0, BuildingBlock: UXUYUI_clean_sbu_0, # of connection points: 4
#     Node 3, Type 0, BuildingBlock: UXUYUI_clean_sbu_0, # of connection points: 4
#     Node 4, Type 0, BuildingBlock: UXUYUI_clean_sbu_0, # of connection points: 4
#     Node 5, Type 0, BuildingBlock: UXUYUI_clean_sbu_0, # of connection points: 4
#     Node 6, Type 0, BuildingBlock: UXUYUI_clean_sbu_0, # of connection points: 4
#     Node 7, Type 0, BuildingBlock: UXUYUI_clean_sbu_0, # of connection points: 4
#     Node 8, Type 0, BuildingBlock: UXUYUI_clean_sbu_0, # of connection points: 4
#     Node 9, Type 0, BuildingBlock: UXUYUI_clean_sbu_0, # of connection points: 4
#     Node 10, Type 0, BuildingBlock: UXUYUI_clean_sbu_0, # of connection points: 4
#     Node 11, Type 0, BuildingBlock: UXUYUI_clean_sbu_0, # of connection points: 4
#     Node 12, Type 0, BuildingBlock: UXUYUI_clean_sbu_0, # of connection points: 4
#     Node 13, Type 0, BuildingBlock: UXUYUI_clean_sbu_0, # of connection points: 4
#     Node 14, Type 0, BuildingBlock: UXUYUI_clean_sbu_0, # of connection points: 4
#     Node 15, Type 0, BuildingBlock: UXUYUI_clean_sbu_0, # of connection points: 4
#     Edge 16, Type (0, 0), BuildingBlock: TEMPAE_clean_linker_10, # of connection points: 2
#     Edge 17, Type (0, 0), BuildingBlock: TEMPAE_clean_linker_10, # of connection points: 2
#     Edge 18, Type (0, 0), BuildingBlock: TEMPAE_clean_linker_10, # of connection points: 2
#     Edge 19, Type (0, 0), BuildingBlock: TEMPAE_clean_linker_10, # of connection points: 2
#     Edge 20, Type (0, 0), BuildingBlock: TEMPAE_clean_linker_10, # of connection points: 2
#     Edge 21, Type (0, 0), BuildingBlock: TEMPAE_clean_linker_10, # of connection points: 2
#     Edge 22, Type (0, 0), BuildingBlock: TEMPAE_clean_linker_10, # of connection points: 2
#     Edge 23, Type (0, 0), BuildingBlock: TEMPAE_clean_linker_10, # of connection points: 2
#     Edge 24, Type (0, 0), BuildingBlock: TEMPAE_clean_linker_10, # of connection points: 2
#     Edge 25, Type (0, 0), BuildingBlock: TEMPAE_clean_linker_10, # of connection points: 2
#     Edge 26, Type (0, 0), BuildingBlock: TEMPAE_clean_linker_10, # of connection points: 2
#     Edge 27, Type (0, 0), BuildingBlock: TEMPAE_clean_linker_10, # of connection points: 2
#     Edge 28, Type (0, 0), BuildingBlock: TEMPAE_clean_linker_10, # of connection points: 2
#     Edge 29, Type (0, 0), BuildingBlock: TEMPAE_clean_linker_10, # of connection points: 2
#     Edge 30, Type (0, 0), BuildingBlock: TEMPAE_clean_linker_10, # of connection points: 2
#     Edge 31, Type (0, 0), BuildingBlock: TEMPAE_clean_linker_10, # of connection points: 2
#     Edge 32, Type (0, 0), BuildingBlock: TEMPAE_clean_linker_10, # of connection points: 2
#     Edge 33, Type (0, 0), BuildingBlock: TEMPAE_clean_linker_10, # of connection points: 2
#     Edge 34, Type (0, 0), BuildingBlock: TEMPAE_clean_linker_10, # of connection points: 2
#     Edge 35, Type (0, 0), BuildingBlock: TEMPAE_clean_linker_10, # of connection points: 2
#     Edge 36, Type (0, 0), BuildingBlock: TEMPAE_clean_linker_10, # of connection points: 2
#     Edge 37, Type (0, 0), BuildingBlock: TEMPAE_clean_linker_10, # of connection points: 2
#     Edge 38, Type (0, 0), BuildingBlock: TEMPAE_clean_linker_10, # of connection points: 2
#     Edge 39, Type (0, 0), BuildingBlock: TEMPAE_clean_linker_10, # of connection points: 2
#     Edge 40, Type (0, 0), BuildingBlock: TEMPAE_clean_linker_10, # of connection points: 2
#     Edge 41, Type (0, 0), BuildingBlock: TEMPAE_clean_linker_10, # of connection points: 2
#     Edge 42, Type (0, 0), BuildingBlock: TEMPAE_clean_linker_10, # of connection points: 2
#     Edge 43, Type (0, 0), BuildingBlock: TEMPAE_clean_linker_10, # of connection points: 2
#     Edge 44, Type (0, 0), BuildingBlock: TEMPAE_clean_linker_10, # of connection points: 2
#     Edge 45, Type (0, 0), BuildingBlock: TEMPAE_clean_linker_10, # of connection points: 2
#     Edge 46, Type (0, 0), BuildingBlock: TEMPAE_clean_linker_10, # of connection points: 2
#     Edge 47, Type (0, 0), BuildingBlock: TEMPAE_clean_linker_10, # of connection points: 2
# Relax obj value: 0.120
# Max RMSD: 0.120
# Mean RMSD: 0.120
data_MOF--net-tzs--node1-UXUYUI_clean_sbu_0--edge1-TEMPAE_clean_linker_10
_symmetry_space_group_name_H-M    P1
_symmetry_Int_Tables_number       1
_symmetry_cell_setting            triclinic
loop_
_symmetry_equiv_pos_as_xyz
'x, y, z'
_cell_length_a     70.918828
_cell_length_b     70.91476
_cell_length_c     61.089746
_cell_angle_alpha  90.00403
_cell_angle_beta   89.997678
_cell_angle_gamma 90.00483
loop_
_atom_site_label
_atom_site_type_symbol
_atom_site_fract_x
_atom_site_fract_y
_atom_site_fract_z
_atom_type_partial_charge
Li0 Li 0.1604 0.33909 0.19379 0.0
Li1 Li 0.15133 0.37155 0.19264 0.0
Li2 Li 0.12762 0.34715 0.19241 0.0
Li3 Li 0.14707 0.3533 0.15898 0.0
C4 C 0.153 0.34597 0.23491 0.0
N5 N 0.16859 0.33088 0.27253 0.0
C6 C 0.16514 0.35679 0.24787 0.0
C7 C 0.14879 0.32747 0.24116 0.0
C8 C 0.17285 0.34892 0.26682 0.0
C9 C 0.15682 0.32009 0.2602 0.0
C10 C 0.18616 0.37075 0.17391 0.0
C11 C 0.2083 0.38972 0.15359 0.0
N12 N 0.21685 0.39473 0.17265 0.0
C13 C 0.19521 0.37602 0.19329 0.0
C14 C 0.19277 0.3776 0.15388 0.0
C15 C 0.21068 0.38819 0.19232 0.0
C16 C 0.17772 0.30321 0.19633 0.0
N17 N 0.17882 0.32129 0.2036 0.0
C18 C 0.20605 0.31388 0.22498 0.0
C19 C 0.19283 0.32685 0.21735 0.0
C20 C 0.20512 0.29501 0.21805 0.0
C21 C 0.19077 0.28976 0.20339 0.0
H22 H 0.16678 0.29922 0.18493 0.0
H23 H 0.19366 0.34131 0.22267 0.0
C24 C 0.14935 0.40089 0.22313 0.0
N25 N 0.15587 0.39666 0.2028 0.0
C26 C 0.15143 0.41902 0.23158 0.0
C27 C 0.16655 0.42836 0.19784 0.0
C28 C 0.16399 0.41005 0.18994 0.0
C29 C 0.16028 0.43304 0.21899 0.0
H30 H 0.14215 0.39024 0.23263 0.0
H31 H 0.16837 0.40656 0.17348 0.0
C32 C 0.12701 0.31547 0.17122 0.0
N33 N 0.09777 0.28989 0.16743 0.0
C34 C 0.11425 0.31684 0.15384 0.0
C35 C 0.12489 0.30106 0.18664 0.0
C36 C 0.09957 0.30377 0.15221 0.0
C37 C 0.11002 0.28829 0.18446 0.0
C38 C 0.11948 0.38649 0.17748 0.0
C39 C 0.10963 0.38896 0.1971 0.0
C40 C 0.12059 0.40137 0.16254 0.0
C41 C 0.10107 0.4063 0.20145 0.0
C42 C 0.11185 0.41851 0.1675 0.0
N43 N 0.10236 0.4206 0.18669 0.0
C44 C 0.09914 0.3364 0.22271 0.0
C45 C 0.08832 0.34306 0.18685 0.0
C46 C 0.0807 0.33343 0.22988 0.0
N47 N 0.10259 0.3411 0.20153 0.0
C48 C 0.06966 0.34011 0.19327 0.0
C49 C 0.06562 0.33543 0.21514 0.0
H50 H 0.11061 0.33558 0.23425 0.0
H51 H 0.09142 0.34728 0.17022 0.0
C52 C 0.14843 0.33642 0.11721 0.0
N53 N 0.14832 0.35321 0.12795 0.0
C54 C 0.14882 0.33594 0.09437 0.0
C55 C 0.14987 0.37002 0.09411 0.0
C56 C 0.14927 0.36983 0.11696 0.0
C57 C 0.14944 0.35291 0.08254 0.0
H58 H 0.14814 0.32339 0.12639 0.0
H59 H 0.14965 0.38294 0.12595 0.0
O60 O 0.14537 0.35337 0.21618 0.0
O61 O 0.17094 0.35892 0.17446 0.0
O62 O 0.14125 0.32838 0.17334 0.0
O63 O 0.12847 0.3698 0.17327 0.0
H64 H 0.16885 0.37102 0.24322 0.0
H65 H 0.13959 0.31882 0.23128 0.0
H66 H 0.18233 0.35711 0.27693 0.0
H67 H 0.15375 0.30577 0.26513 0.0
H68 H 0.21355 0.39515 0.13821 0.0
H69 H 0.19003 0.3712 0.20895 0.0
H70 H 0.18599 0.37358 0.13872 0.0
H71 H 0.2177 0.39252 0.20721 0.0
H72 H 0.21671 0.31856 0.23645 0.0
H73 H 0.18974 0.27548 0.19725 0.0
H74 H 0.14578 0.42209 0.24766 0.0
H75 H 0.17341 0.43869 0.18751 0.0
H76 H 0.11541 0.32811 0.14199 0.0
H77 H 0.13459 0.29976 0.20021 0.0
H78 H 0.08954 0.30475 0.13892 0.0
H79 H 0.1082 0.2771 0.19631 0.0
H80 H 0.10893 0.37777 0.20909 0.0
H81 H 0.12821 0.39979 0.14734 0.0
H82 H 0.09351 0.40844 0.21663 0.0
H83 H 0.11266 0.43016 0.15611 0.0
H84 H 0.07825 0.33029 0.247 0.0
H85 H 0.05851 0.34171 0.18131 0.0
H86 H 0.1488 0.32245 0.08605 0.0
H87 H 0.15034 0.3834 0.08558 0.0
Li88 Li 0.62689 0.1525 0.19104 0.0
Li89 Li 0.65956 0.16042 0.19317 0.0
Li90 Li 0.6476 0.14684 0.15968 0.0
Li91 Li 0.65138 0.12739 0.19405 0.0
C92 C 0.62861 0.18377 0.16364 0.0
N93 N 0.60356 0.20885 0.14492 0.0
C94 C 0.62915 0.20284 0.16937 0.0
C95 C 0.61542 0.17747 0.14832 0.0
C96 C 0.61633 0.2153 0.15974 0.0
C97 C 0.60285 0.19036 0.13905 0.0
C98 C 0.63991 0.15827 0.23316 0.0
C99 C 0.63288 0.16196 0.27154 0.0
N100 N 0.63019 0.18075 0.26833 0.0
C101 C 0.63709 0.17762 0.23024 0.0
C102 C 0.6378 0.15036 0.25396 0.0
C103 C 0.63218 0.18874 0.24822 0.0
C104 C 0.59087 0.14221 0.20359 0.0
N105 N 0.60173 0.15767 0.19994 0.0
C106 C 0.57648 0.17802 0.21065 0.0
C107 C 0.59498 0.17538 0.20338 0.0
C108 C 0.5649 0.16227 0.21439 0.0
C109 C 0.57232 0.14419 0.21075 0.0
H110 H 0.59673 0.12829 0.20117 0.0
H111 H 0.60398 0.18746 0.20079 0.0
C112 C 0.68156 0.19353 0.19232 0.0
N113 N 0.67724 0.17804 0.20441 0.0
C114 C 0.69467 0.2066 0.20009 0.0
C115 C 0.69847 0.18756 0.23264 0.0
C116 C 0.68539 0.17481 0.22418 0.0
C117 C 0.70326 0.2037 0.22054 0.0
H118 H 0.67488 0.19565 0.17659 0.0
H119 H 0.68178 0.16225 0.23332 0.0
C120 C 0.61949 0.11716 0.16106 0.0
N121 N 0.59928 0.09258 0.13495 0.0
C122 C 0.62602 0.0988 0.1576 0.0
C123 C 0.60252 0.12291 0.15155 0.0
C124 C 0.61565 0.08662 0.14425 0.0
C125 C 0.59255 0.11031 0.13832 0.0
C126 C 0.68931 0.1445 0.17631 0.0
C127 C 0.69659 0.15683 0.1606 0.0
C128 C 0.70082 0.13812 0.19332 0.0
C129 C 0.71533 0.16275 0.16231 0.0
C130 C 0.71948 0.14436 0.19446 0.0
N131 N 0.72628 0.15646 0.17908 0.0
C132 C 0.65197 0.16302 0.1178 0.0
C133 C 0.64818 0.12983 0.11752 0.0
C134 C 0.65271 0.16341 0.09496 0.0
N135 N 0.64937 0.14643 0.12855 0.0
C136 C 0.64876 0.12957 0.09469 0.0
C137 C 0.65088 0.14654 0.08308 0.0
H138 H 0.65343 0.17598 0.12697 0.0
H139 H 0.64675 0.11678 0.12641 0.0
C140 C 0.64483 0.09748 0.22235 0.0
N141 N 0.65613 0.10325 0.20571 0.0
C142 C 0.64712 0.07958 0.23141 0.0
C143 C 0.67266 0.07391 0.20599 0.0
C144 C 0.66993 0.09201 0.19748 0.0
C145 C 0.66112 0.0675 0.22316 0.0
H146 H 0.63388 0.10675 0.22839 0.0
H147 H 0.67866 0.09703 0.18417 0.0
O148 O 0.6409 0.17138 0.17315 0.0
O149 O 0.64463 0.14702 0.2158 0.0
O150 O 0.62941 0.12921 0.17422 0.0
O151 O 0.67086 0.13904 0.17531 0.0
H152 H 0.63928 0.20794 0.18123 0.0
H153 H 0.61496 0.16281 0.14356 0.0
H154 H 0.61653 0.23009 0.16408 0.0
H155 H 0.59256 0.18567 0.12717 0.0
H156 H 0.63118 0.15602 0.28773 0.0
H157 H 0.63867 0.184 0.21429 0.0
H158 H 0.63994 0.1354 0.25648 0.0
H159 H 0.62994 0.20373 0.24619 0.0
H160 H 0.57128 0.19221 0.21326 0.0
H161 H 0.56402 0.13165 0.21387 0.0
H162 H 0.69787 0.21895 0.19034 0.0
H163 H 0.70496 0.18471 0.24835 0.0
H164 H 0.63907 0.09407 0.16494 0.0
H165 H 0.59698 0.13689 0.15449 0.0
H166 H 0.62062 0.07242 0.14129 0.0
H167 H 0.57942 0.1146 0.1308 0.0
H168 H 0.6878 0.16195 0.14739 0.0
H169 H 0.69531 0.12865 0.20566 0.0
H170 H 0.72114 0.17239 0.15037 0.0
H171 H 0.72853 0.13965 0.20762 0.0
H172 H 0.65479 0.17677 0.08673 0.0
H173 H 0.64724 0.11623 0.08624 0.0
H174 H 0.63773 0.07508 0.24439 0.0
H175 H 0.68367 0.06507 0.19926 0.0
Li176 Li 0.84092 0.66037 0.1936 0.0
Li177 Li 0.84992 0.62661 0.19147 0.0
Li178 Li 0.8741 0.65118 0.19106 0.0
Li179 Li 0.85424 0.64573 0.15938 0.0
C180 C 0.86606 0.64516 0.23334 0.0
N181 N 0.88878 0.64493 0.2701 0.0
C182 C 0.87187 0.62806 0.24252 0.0
C183 C 0.87169 0.66214 0.24297 0.0
C184 C 0.88337 0.62824 0.26109 0.0
C185 C 0.88322 0.66172 0.2615 0.0
C186 C 0.81537 0.628 0.17668 0.0
C187 C 0.79964 0.59906 0.16691 0.0
N188 N 0.78631 0.60255 0.18241 0.0
C189 C 0.80149 0.63136 0.19244 0.0
C190 C 0.81442 0.61179 0.16372 0.0
C191 C 0.78691 0.61831 0.1951 0.0
C192 C 0.81221 0.68744 0.19056 0.0
N193 N 0.82331 0.67783 0.20481 0.0
C194 C 0.80904 0.69335 0.23526 0.0
C195 C 0.82195 0.68042 0.22678 0.0
C196 C 0.7973 0.70354 0.22098 0.0
C197 C 0.79899 0.70041 0.19832 0.0
H198 H 0.81359 0.68495 0.17316 0.0
H199 H 0.83093 0.67249 0.23771 0.0
C200 C 0.85274 0.58701 0.19332 0.0
N201 N 0.8439 0.60217 0.20221 0.0
C202 C 0.84949 0.56899 0.20159 0.0
C203 C 0.82803 0.58247 0.22806 0.0
C204 C 0.83169 0.60027 0.21922 0.0
C205 C 0.8371 0.56655 0.21932 0.0
H206 H 0.86268 0.58895 0.18013 0.0
H207 H 0.82506 0.61264 0.22617 0.0
C208 C 0.86699 0.68828 0.17337 0.0
N209 N 0.87997 0.72502 0.1733 0.0
C210 C 0.87605 0.69556 0.15489 0.0
C211 C 0.8644 0.69974 0.19175 0.0
C212 C 0.88256 0.71416 0.1552 0.0
C213 C 0.87109 0.71826 0.19141 0.0
C214 C 0.88222 0.62119 0.15548 0.0
C215 C 0.90072 0.627 0.15138 0.0
C216 C 0.87349 0.60845 0.14123 0.0
C217 C 0.91015 0.62005 0.13299 0.0
C218 C 0.88338 0.60187 0.123 0.0
N219 N 0.90135 0.60776 0.11929 0.0
C220 C 0.90805 0.6411 0.21005 0.0
C221 C 0.90784 0.67335 0.20006 0.0
C222 C 0.92604 0.64289 0.21899 0.0
N223 N 0.89919 0.65625 0.20115 0.0
C224 C 0.926 0.67572 0.20848 0.0
C225 C 0.93533 0.66039 0.21828 0.0
H226 H 0.90099 0.62759 0.21042 0.0
H227 H 0.90082 0.68519 0.19267 0.0
C228 C 0.83646 0.64318 0.11806 0.0
N229 N 0.85313 0.64669 0.12826 0.0
C230 C 0.83537 0.64351 0.09523 0.0
C231 C 0.86861 0.65101 0.09389 0.0
C232 C 0.86897 0.65092 0.11672 0.0
C233 C 0.85165 0.64726 0.08293 0.0
H234 H 0.82403 0.64009 0.12764 0.0
H235 H 0.88194 0.65406 0.12525 0.0
O236 O 0.85509 0.64528 0.21491 0.0
O237 O 0.82997 0.6404 0.17416 0.0
O238 O 0.86042 0.67016 0.17323 0.0
O239 O 0.87269 0.62794 0.17331 0.0
H240 H 0.86778 0.61478 0.23524 0.0
H241 H 0.86737 0.67549 0.2361 0.0
H242 H 0.88806 0.61512 0.26829 0.0
H243 H 0.88779 0.67476 0.26902 0.0
H244 H 0.79878 0.58639 0.1571 0.0
H245 H 0.80206 0.64382 0.20265 0.0
H246 H 0.82508 0.60899 0.15148 0.0
H247 H 0.77611 0.62066 0.2073 0.0
H248 H 0.80842 0.69547 0.2528 0.0
H249 H 0.79005 0.7077 0.18672 0.0
H250 H 0.85708 0.55716 0.19464 0.0
H251 H 0.81833 0.5812 0.24167 0.0
H252 H 0.87807 0.68693 0.14048 0.0
H253 H 0.85743 0.69438 0.20617 0.0
H254 H 0.88964 0.71996 0.14104 0.0
H255 H 0.86924 0.72725 0.20555 0.0
H256 H 0.90768 0.6369 0.16215 0.0
H257 H 0.85914 0.60391 0.14406 0.0
H258 H 0.92444 0.62449 0.12957 0.0
H259 H 0.87675 0.59212 0.11176 0.0
H260 H 0.93246 0.6307 0.22662 0.0
H261 H 0.9327 0.68938 0.20711 0.0
H262 H 0.82205 0.64056 0.08725 0.0
H263 H 0.88139 0.65416 0.08488 0.0
Li264 Li 0.37213 0.84779 0.18922 0.0
Li265 Li 0.33893 0.83953 0.18997 0.0
Li266 Li 0.35203 0.85377 0.15653 0.0
Li267 Li 0.34643 0.87256 0.18985 0.0
C268 C 0.37138 0.81902 0.15792 0.0
N269 N 0.39656 0.79901 0.13241 0.0
C270 C 0.37035 0.79937 0.15698 0.0
C271 C 0.38517 0.82851 0.14585 0.0
C272 C 0.38323 0.7895 0.144 0.0
C273 C 0.39777 0.81815 0.13306 0.0
C274 C 0.34741 0.84575 0.23125 0.0
C275 C 0.32402 0.8426 0.25964 0.0
N276 N 0.3345 0.82872 0.26903 0.0
C277 C 0.35804 0.83157 0.24125 0.0
C278 C 0.33034 0.85144 0.24056 0.0
C279 C 0.35124 0.8231 0.26034 0.0
C280 C 0.40481 0.85764 0.21073 0.0
N281 N 0.39668 0.84293 0.2001 0.0
C282 C 0.42375 0.82366 0.20663 0.0
C283 C 0.40561 0.82604 0.19812 0.0
C284 C 0.43263 0.83874 0.21746 0.0
C285 C 0.42283 0.85587 0.21958 0.0
H286 H 0.39721 0.87081 0.21231 0.0
H287 H 0.3987 0.81441 0.19001 0.0
C288 C 0.30317 0.82409 0.20026 0.0
N289 N 0.32207 0.82104 0.20096 0.0
C290 C 0.29076 0.81085 0.20907 0.0
C291 C 0.31749 0.79145 0.21886 0.0
C292 C 0.32938 0.80502 0.20973 0.0
C293 C 0.29788 0.79431 0.2187 0.0
H294 H 0.29772 0.83678 0.19285 0.0
H295 H 0.34449 0.80294 0.20989 0.0
C296 C 0.38086 0.88439 0.16243 0.0
N297 N 0.40399 0.91157 0.14423 0.0
C298 C 0.37345 0.90185 0.15625 0.0
C299 C 0.40007 0.88077 0.15939 0.0
C300 C 0.38536 0.9154 0.14705 0.0
C301 C 0.41152 0.89469 0.15015 0.0
C302 C 0.31331 0.87171 0.16758 0.0
C303 C 0.31097 0.87993 0.14696 0.0
C304 C 0.30089 0.87632 0.18453 0.0
C305 C 0.29628 0.89275 0.14368 0.0
C306 C 0.28639 0.88921 0.1806 0.0
N307 N 0.28441 0.8971 0.16043 0.0
C308 C 0.34375 0.83806 0.11559 0.0
C309 C 0.3585 0.86798 0.11332 0.0
C310 C 0.34298 0.83678 0.09279 0.0
N311 N 0.35148 0.85346 0.12534 0.0
C312 C 0.35799 0.86732 0.09051 0.0
C313 C 0.35016 0.85157 0.07995 0.0
H314 H 0.3382 0.82675 0.12557 0.0
H315 H 0.36449 0.88009 0.12135 0.0
C316 C 0.34884 0.90024 0.22183 0.0
N317 N 0.34138 0.89699 0.20168 0.0
C318 C 0.34716 0.91794 0.2316 0.0
C319 C 0.32978 0.92862 0.19991 0.0
C320 C 0.33203 0.91078 0.19062 0.0
C321 C 0.33759 0.9324 0.22055 0.0
H322 H 0.35644 0.88914 0.23017 0.0
H323 H 0.32673 0.90816 0.17435 0.0
O324 O 0.35884 0.82882 0.17057 0.0
O325 O 0.35362 0.8539 0.21232 0.0
O326 O 0.36948 0.87102 0.17175 0.0
O327 O 0.3275 0.85901 0.17103 0.0
H328 H 0.35973 0.79183 0.16622 0.0
H329 H 0.38609 0.8437 0.14628 0.0
H330 H 0.38262 0.77427 0.14314 0.0
H331 H 0.40851 0.82531 0.12362 0.0
H332 H 0.31076 0.84676 0.26695 0.0
H333 H 0.37129 0.82703 0.23422 0.0
H334 H 0.32202 0.86246 0.23304 0.0
H335 H 0.35925 0.81202 0.26819 0.0
H336 H 0.43079 0.81024 0.20453 0.0
H337 H 0.42892 0.86774 0.2282 0.0
H338 H 0.27574 0.81346 0.20816 0.0
H339 H 0.32362 0.779 0.22627 0.0
H340 H 0.35861 0.9048 0.15815 0.0
H341 H 0.40611 0.86737 0.16411 0.0
H342 H 0.37977 0.92894 0.1421 0.0
H343 H 0.4264 0.89206 0.1477 0.0
H344 H 0.32039 0.87648 0.13364 0.0
H345 H 0.30255 0.87017 0.20062 0.0
H346 H 0.29432 0.89925 0.12783 0.0
H347 H 0.27674 0.89299 0.1936 0.0
H348 H 0.33664 0.82447 0.08532 0.0
H349 H 0.36388 0.87894 0.08125 0.0
H350 H 0.35335 0.92034 0.24757 0.0
H351 H 0.32257 0.93954 0.19076 0.0
Li352 Li 0.12629 0.65125 0.30931 0.0
Li353 Li 0.14556 0.64524 0.34178 0.0
Li354 Li 0.16057 0.65774 0.30738 0.0
Li355 Li 0.14983 0.6251 0.31057 0.0
C356 C 0.13402 0.68763 0.32707 0.0
N357 N 0.11984 0.72396 0.32836 0.0
C358 C 0.12296 0.69354 0.34473 0.0
C359 C 0.1382 0.7004 0.31031 0.0
C360 C 0.11581 0.7119 0.34501 0.0
C361 C 0.13082 0.71864 0.31119 0.0
C362 C 0.11656 0.62161 0.3455 0.0
C363 C 0.11475 0.60276 0.37832 0.0
N364 N 0.09666 0.60855 0.38134 0.0
C365 C 0.0979 0.62725 0.34884 0.0
C366 C 0.12501 0.60913 0.36026 0.0
C367 C 0.08809 0.62053 0.36708 0.0
C368 C 0.09676 0.65012 0.27908 0.0
N369 N 0.1019 0.65784 0.29856 0.0
C370 C 0.07156 0.67218 0.3024 0.0
C371 C 0.08973 0.66868 0.3103 0.0
C372 C 0.06606 0.66459 0.28218 0.0
C373 C 0.07893 0.65356 0.27039 0.0
H374 H 0.10641 0.64098 0.27043 0.0
H375 H 0.09386 0.67409 0.32609 0.0
C376 C 0.16223 0.6424 0.38367 0.0
N377 N 0.14598 0.64662 0.37296 0.0
C378 C 0.16286 0.64278 0.40652 0.0
C379 C 0.13009 0.65211 0.40686 0.0
C380 C 0.13009 0.65153 0.38403 0.0
C381 C 0.14661 0.64762 0.41843 0.0
H382 H 0.17469 0.63861 0.37447 0.0
H383 H 0.11733 0.65478 0.37516 0.0
C384 C 0.14455 0.65048 0.26569 0.0
N385 N 0.14402 0.66519 0.22377 0.0
C386 C 0.15168 0.64 0.24816 0.0
C387 C 0.13685 0.6683 0.26179 0.0
C388 C 0.15138 0.64772 0.22712 0.0
C389 C 0.13677 0.67553 0.24053 0.0
C390 C 0.18383 0.62469 0.3266 0.0
C391 C 0.19828 0.6266 0.3112 0.0
C392 C 0.1835 0.60895 0.34037 0.0
C393 C 0.21206 0.61259 0.30966 0.0
C394 C 0.19752 0.59523 0.3383 0.0
N395 N 0.21139 0.59731 0.3231 0.0
C396 C 0.18536 0.68853 0.30915 0.0
C397 C 0.18687 0.67139 0.27588 0.0
C398 C 0.19883 0.70131 0.30155 0.0
N399 N 0.17947 0.67412 0.29616 0.0
C400 C 0.20028 0.68388 0.26757 0.0
C401 C 0.20631 0.69916 0.28041 0.0
H402 H 0.17937 0.69022 0.32532 0.0
H403 H 0.18249 0.65947 0.26616 0.0
C404 C 0.14447 0.58565 0.30942 0.0
N405 N 0.1545 0.60009 0.30063 0.0
C406 C 0.14664 0.56736 0.3014 0.0
C407 C 0.1695 0.57911 0.27543 0.0
C408 C 0.16703 0.59716 0.28413 0.0
C409 C 0.15903 0.56393 0.28388 0.0
H410 H 0.1345 0.58835 0.32238 0.0
H411 H 0.17484 0.60891 0.27746 0.0
O412 O 0.14132 0.66973 0.32671 0.0
O413 O 0.12645 0.62822 0.32786 0.0
O414 O 0.14485 0.64314 0.28644 0.0
O415 O 0.16999 0.63806 0.32803 0.0
H416 H 0.11977 0.68404 0.35802 0.0
H417 H 0.14721 0.6964 0.29684 0.0
H418 H 0.10709 0.71656 0.35849 0.0
H419 H 0.1339 0.72861 0.29827 0.0
H420 H 0.12119 0.59324 0.38996 0.0
H421 H 0.09105 0.63673 0.33751 0.0
H422 H 0.13943 0.60461 0.35795 0.0
H423 H 0.07366 0.62486 0.36991 0.0
H424 H 0.06188 0.68059 0.31204 0.0
H425 H 0.07501 0.64713 0.25495 0.0
H426 H 0.17585 0.63903 0.41476 0.0
H427 H 0.1173 0.65615 0.41534 0.0
H428 H 0.15745 0.62607 0.25074 0.0
H429 H 0.13064 0.6763 0.27495 0.0
H430 H 0.15697 0.6398 0.21344 0.0
H431 H 0.13085 0.68931 0.23733 0.0
H432 H 0.19876 0.63868 0.30043 0.0
H433 H 0.17247 0.60728 0.35243 0.0
H434 H 0.22327 0.61383 0.29773 0.0
H435 H 0.19737 0.58292 0.34876 0.0
H436 H 0.20306 0.71296 0.31192 0.0
H437 H 0.20599 0.68153 0.25136 0.0
H438 H 0.13853 0.55607 0.30874 0.0
H439 H 0.17907 0.57723 0.2618 0.0
Li440 Li 0.34933 0.1248 0.30985 0.0
Li441 Li 0.35551 0.14446 0.34151 0.0
Li442 Li 0.3416 0.15815 0.30818 0.0
Li443 Li 0.37482 0.14876 0.30885 0.0
C444 C 0.31342 0.1307 0.3277 0.0
N445 N 0.27834 0.11379 0.3269 0.0
C446 C 0.30593 0.12277 0.34676 0.0
C447 C 0.303 0.13019 0.3083 0.0
C448 C 0.28819 0.11423 0.346 0.0
C449 C 0.28531 0.12154 0.30821 0.0
C450 C 0.37461 0.10968 0.33972 0.0
C451 C 0.39325 0.08353 0.35266 0.0
N452 N 0.37799 0.07681 0.36366 0.0
C453 C 0.35912 0.10253 0.35117 0.0
C454 C 0.39182 0.10013 0.34046 0.0
C455 C 0.3611 0.08589 0.36317 0.0
C456 C 0.35406 0.09472 0.28179 0.0
N457 N 0.34351 0.10027 0.29918 0.0
C458 C 0.32762 0.07055 0.29984 0.0
C459 C 0.33054 0.08858 0.3084 0.0
C460 C 0.33835 0.06439 0.28185 0.0
C461 C 0.35173 0.07678 0.27284 0.0
H462 H 0.36451 0.10419 0.27505 0.0
H463 H 0.32263 0.09307 0.32255 0.0
C464 C 0.34009 0.153 0.38265 0.0
N465 N 0.35549 0.14562 0.37255 0.0
C466 C 0.33937 0.15405 0.40546 0.0
C467 C 0.37039 0.13996 0.40698 0.0
C468 C 0.37056 0.13928 0.38416 0.0
C469 C 0.35462 0.14738 0.41791 0.0
H470 H 0.32835 0.158 0.37294 0.0
H471 H 0.38273 0.1337 0.37573 0.0
C472 C 0.35154 0.14614 0.26528 0.0
N473 N 0.34313 0.15286 0.22181 0.0
C474 C 0.36283 0.15827 0.2529 0.0
C475 C 0.33621 0.13711 0.25543 0.0
C476 C 0.35827 0.16158 0.23098 0.0
C477 C 0.33213 0.14077 0.23347 0.0
C478 C 0.3752 0.1782 0.33917 0.0
C479 C 0.3724 0.1972 0.34427 0.0
C480 C 0.39115 0.16885 0.34714 0.0
C481 C 0.38563 0.20657 0.35727 0.0
C482 C 0.40404 0.1787 0.36009 0.0
N483 N 0.40105 0.1972 0.36485 0.0
C484 C 0.30708 0.17803 0.30637 0.0
C485 C 0.32969 0.1875 0.28001 0.0
C486 C 0.29399 0.19084 0.29802 0.0
N487 N 0.32439 0.17633 0.29701 0.0
C488 C 0.31702 0.20041 0.27103 0.0
C489 C 0.29885 0.20209 0.27996 0.0
H490 H 0.30339 0.1694 0.3203 0.0
H491 H 0.34378 0.18647 0.27348 0.0
C492 C 0.40998 0.13847 0.29279 0.0
N493 N 0.39908 0.1537 0.29738 0.0
C494 C 0.42803 0.14088 0.2842 0.0
C495 C 0.42323 0.17464 0.28504 0.0
C496 C 0.40523 0.17157 0.29362 0.0
C497 C 0.43491 0.15916 0.28028 0.0
H498 H 0.40456 0.12444 0.2957 0.0
H499 H 0.39614 0.18341 0.29728 0.0
O500 O 0.33084 0.13897 0.32814 0.0
O501 O 0.373 0.1259 0.32774 0.0
O502 O 0.35586 0.14268 0.28672 0.0
O503 O 0.36227 0.16887 0.32656 0.0
H504 H 0.31379 0.12311 0.36194 0.0
H505 H 0.30847 0.13653 0.29353 0.0
H506 H 0.28225 0.10796 0.3606 0.0
H507 H 0.27711 0.12102 0.2933 0.0
H508 H 0.40649 0.07598 0.35338 0.0
H509 H 0.34572 0.10976 0.35084 0.0
H510 H 0.40396 0.1055 0.33171 0.0
H511 H 0.34922 0.08021 0.3721 0.0
H512 H 0.31707 0.06155 0.30727 0.0
H513 H 0.36065 0.07255 0.25932 0.0
H514 H 0.3269 0.15974 0.41328 0.0
H515 H 0.38255 0.13492 0.41598 0.0
H516 H 0.37487 0.16521 0.2602 0.0
H517 H 0.32767 0.12724 0.26457 0.0
H518 H 0.36678 0.17108 0.22126 0.0
H519 H 0.32026 0.13394 0.22567 0.0
H520 H 0.36011 0.20462 0.33824 0.0
H521 H 0.39357 0.15416 0.34337 0.0
H522 H 0.38365 0.22128 0.36135 0.0
H523 H 0.41643 0.17164 0.36636 0.0
H524 H 0.28013 0.19174 0.30539 0.0
H525 H 0.32145 0.20915 0.25743 0.0
H526 H 0.4364 0.12854 0.28038 0.0
H527 H 0.42803 0.18896 0.28238 0.0
Li528 Li 0.8741 0.34952 0.30635 0.0
Li529 Li 0.85508 0.35374 0.33859 0.0
Li530 Li 0.84118 0.34149 0.30556 0.0
Li531 Li 0.85045 0.37401 0.30766 0.0
C532 C 0.87372 0.31947 0.33597 0.0
N533 N 0.89899 0.29905 0.36094 0.0
C534 C 0.89044 0.32783 0.34324 0.0
C535 C 0.86989 0.30071 0.34136 0.0
C536 C 0.90303 0.31728 0.35585 0.0
C537 C 0.88283 0.29062 0.35401 0.0
C538 C 0.87516 0.38737 0.33893 0.0
C539 C 0.86167 0.41033 0.36349 0.0
N540 N 0.87876 0.41889 0.36519 0.0
C541 C 0.8926 0.39637 0.34094 0.0
C542 C 0.85956 0.39437 0.35031 0.0
C543 C 0.89413 0.4123 0.35429 0.0
C544 C 0.9096 0.3595 0.29132 0.0
N545 N 0.89849 0.34424 0.29504 0.0
C546 C 0.92259 0.3235 0.28207 0.0
C547 C 0.90455 0.32644 0.29063 0.0
C548 C 0.93445 0.33903 0.27822 0.0
C549 C 0.92774 0.35721 0.28296 0.0
H550 H 0.90429 0.37348 0.29479 0.0
H551 H 0.89541 0.31454 0.29377 0.0
C552 C 0.83801 0.34918 0.37986 0.0
N553 N 0.85473 0.35249 0.36972 0.0
C554 C 0.83699 0.34876 0.40268 0.0
C555 C 0.87052 0.35474 0.40416 0.0
C556 C 0.87082 0.35535 0.38134 0.0
C557 C 0.85341 0.35153 0.41521 0.0
H558 H 0.82543 0.34706 0.37018 0.0
H559 H 0.8839 0.35821 0.37292 0.0
C560 C 0.85895 0.34569 0.26507 0.0
N561 N 0.86603 0.32463 0.22791 0.0
C562 C 0.85973 0.35444 0.2446 0.0
C563 C 0.86176 0.32622 0.26665 0.0
C564 C 0.86332 0.34355 0.226 0.0
C565 C 0.86532 0.31583 0.24767 0.0
C566 C 0.81307 0.3662 0.31788 0.0
C567 C 0.8102 0.37053 0.2958 0.0
C568 C 0.79789 0.367 0.33244 0.0
C569 C 0.79218 0.37552 0.28865 0.0
C570 C 0.78007 0.37205 0.32465 0.0
N571 N 0.7776 0.37616 0.3031 0.0
C572 C 0.81864 0.30904 0.30695 0.0
C573 C 0.81477 0.32713 0.27462 0.0
C574 C 0.80561 0.29576 0.29949 0.0
N575 N 0.82298 0.32428 0.29446 0.0
C576 C 0.80159 0.31427 0.26658 0.0
C577 C 0.79692 0.2983 0.27905 0.0
H578 H 0.82533 0.30723 0.32272 0.0
H579 H 0.81852 0.33932 0.26494 0.0
C580 C 0.85614 0.4049 0.28068 0.0
N581 N 0.84574 0.39904 0.29806 0.0
C582 C 0.85406 0.42316 0.27259 0.0
C583 C 0.83055 0.42906 0.30044 0.0
C584 C 0.8331 0.41064 0.30802 0.0
C585 C 0.84119 0.43555 0.28255 0.0
H586 H 0.86612 0.39535 0.27318 0.0
H587 H 0.82509 0.40565 0.32192 0.0
O588 O 0.86112 0.32944 0.32355 0.0
O589 O 0.87354 0.37174 0.32591 0.0
O590 O 0.85549 0.35627 0.28338 0.0
O591 O 0.83057 0.36122 0.32539 0.0
H592 H 0.8937 0.3423 0.33922 0.0
H593 H 0.85704 0.294 0.33581 0.0
H594 H 0.916 0.32359 0.3616 0.0
H595 H 0.88003 0.27609 0.35832 0.0
H596 H 0.84971 0.41589 0.37238 0.0
H597 H 0.90483 0.39109 0.3323 0.0
H598 H 0.84596 0.38758 0.34907 0.0
H599 H 0.90755 0.41941 0.35599 0.0
H600 H 0.9273 0.30926 0.27875 0.0
H601 H 0.93634 0.36956 0.27992 0.0
H602 H 0.82342 0.34657 0.41038 0.0
H603 H 0.88361 0.35665 0.41299 0.0
H604 H 0.85756 0.36949 0.2431 0.0
H605 H 0.86117 0.31917 0.28231 0.0
H606 H 0.86396 0.35013 0.21005 0.0
H607 H 0.86752 0.30076 0.24867 0.0
H608 H 0.82174 0.37011 0.28427 0.0
H609 H 0.79985 0.36375 0.3496 0.0
H610 H 0.78978 0.37888 0.2716 0.0
H611 H 0.7682 0.37271 0.33575 0.0
H612 H 0.80223 0.28374 0.30971 0.0
H613 H 0.79536 0.31663 0.25063 0.0
H614 H 0.86237 0.4275 0.25859 0.0
H615 H 0.82063 0.43821 0.30873 0.0
Li616 Li 0.64853 0.87353 0.30836 0.0
Li617 Li 0.64424 0.85334 0.34037 0.0
Li618 Li 0.65732 0.83982 0.3057 0.0
Li619 Li 0.62377 0.84807 0.30954 0.0
C620 C 0.68593 0.86696 0.32301 0.0
N621 N 0.72189 0.88152 0.31875 0.0
C622 C 0.69453 0.87608 0.34067 0.0
C623 C 0.69574 0.86499 0.3033 0.0
C624 C 0.71269 0.88343 0.33816 0.0
C625 C 0.71387 0.87251 0.30144 0.0
C626 C 0.61884 0.88036 0.34525 0.0
C627 C 0.59903 0.88054 0.37732 0.0
N628 N 0.60521 0.89822 0.38218 0.0
C629 C 0.62489 0.89857 0.35044 0.0
C630 C 0.6057 0.87131 0.35867 0.0
C631 C 0.61785 0.90735 0.36922 0.0
C632 C 0.64265 0.90398 0.28059 0.0
N633 N 0.65327 0.89831 0.29789 0.0
C634 C 0.6683 0.92844 0.29965 0.0
C635 C 0.66587 0.91011 0.30756 0.0
C636 C 0.65753 0.93468 0.28174 0.0
C637 C 0.64464 0.92212 0.27212 0.0
H638 H 0.63252 0.89438 0.27344 0.0
H639 H 0.67374 0.90548 0.32169 0.0
C640 C 0.64116 0.83699 0.38246 0.0
N641 N 0.64595 0.85292 0.37144 0.0
C642 C 0.64175 0.8366 0.4053 0.0
C643 C 0.65237 0.86899 0.40501 0.0
C644 C 0.65172 0.86869 0.38218 0.0
C645 C 0.64728 0.8528 0.41691 0.0
H646 H 0.63686 0.82456 0.37351 0.0
H647 H 0.65556 0.88113 0.37299 0.0
C648 C 0.64517 0.85498 0.2637 0.0
N649 N 0.65275 0.85536 0.21932 0.0
C650 C 0.63358 0.84509 0.24917 0.0
C651 C 0.66047 0.86527 0.2556 0.0
C652 C 0.63769 0.84539 0.22681 0.0
C653 C 0.6641 0.86523 0.23312 0.0
C654 C 0.62712 0.81324 0.3256 0.0
C655 C 0.63173 0.79804 0.31205 0.0
C656 C 0.61086 0.81244 0.33849 0.0
C657 C 0.61983 0.78234 0.31144 0.0
C658 C 0.59931 0.79651 0.33738 0.0
N659 N 0.60399 0.78192 0.32398 0.0
C660 C 0.68866 0.81607 0.30775 0.0
C661 C 0.67382 0.81608 0.27301 0.0
C662 C 0.7021 0.80314 0.30044 0.0
N663 N 0.67495 0.82231 0.294 0.0
C664 C 0.68706 0.80329 0.26495 0.0
C665 C 0.70145 0.79661 0.27872 0.0
H666 H 0.68908 0.82113 0.32445 0.0
H667 H 0.66263 0.8209 0.26248 0.0
C668 C 0.58516 0.85507 0.30475 0.0
N669 N 0.59885 0.8423 0.30002 0.0
C670 C 0.56682 0.8524 0.29713 0.0
C671 C 0.57689 0.82333 0.2801 0.0
C672 C 0.5951 0.82665 0.28793 0.0
C673 C 0.56248 0.83641 0.2845 0.0
H674 H 0.58859 0.86759 0.314 0.0
H675 H 0.6063 0.8169 0.284 0.0
O676 O 0.66816 0.85968 0.32526 0.0
O677 O 0.6258 0.87142 0.32713 0.0
O678 O 0.64127 0.85485 0.28565 0.0
O679 O 0.63856 0.82874 0.32637 0.0
H680 H 0.68723 0.87756 0.35612 0.0
H681 H 0.68952 0.85759 0.28965 0.0
H682 H 0.71946 0.89062 0.35164 0.0
H683 H 0.7216 0.87112 0.28626 0.0
H684 H 0.58896 0.87366 0.38795 0.0
H685 H 0.63502 0.90579 0.34018 0.0
H686 H 0.60082 0.85725 0.3548 0.0
H687 H 0.62249 0.9214 0.37352 0.0
H688 H 0.67814 0.93777 0.30781 0.0
H689 H 0.63618 0.92625 0.25816 0.0
H690 H 0.63805 0.82369 0.41374 0.0
H691 H 0.6565 0.88187 0.41321 0.0
H692 H 0.6216 0.83718 0.25509 0.0
H693 H 0.66932 0.8734 0.26646 0.0
H694 H 0.6289 0.83771 0.21541 0.0
H695 H 0.67591 0.87312 0.22665 0.0
H696 H 0.6443 0.79838 0.30204 0.0
H697 H 0.60713 0.82405 0.34912 0.0
H698 H 0.62317 0.77051 0.30096 0.0
H699 H 0.58661 0.79575 0.34716 0.0
H700 H 0.71272 0.79815 0.31178 0.0
H701 H 0.68608 0.79884 0.24803 0.0
H702 H 0.55632 0.86308 0.30054 0.0
H703 H 0.57419 0.81075 0.27056 0.0
Li704 Li 0.84755 0.62355 0.80862 0.0
Li705 Li 0.85244 0.64245 0.84097 0.0
Li706 Li 0.83876 0.65686 0.80655 0.0
Li707 Li 0.87244 0.64704 0.80961 0.0
C708 C 0.81097 0.62838 0.82579 0.0
N709 N 0.77607 0.61106 0.8257 0.0
C710 C 0.80649 0.61506 0.84183 0.0
C711 C 0.79766 0.63296 0.80976 0.0
C712 C 0.78878 0.60643 0.84148 0.0
C713 C 0.7801 0.62404 0.80999 0.0
C714 C 0.87665 0.61407 0.84487 0.0
C715 C 0.89579 0.61185 0.87741 0.0
N716 N 0.88948 0.59395 0.88062 0.0
C717 C 0.87037 0.59564 0.84848 0.0
C718 C 0.8895 0.62223 0.8594 0.0
C719 C 0.87703 0.5857 0.86665 0.0
C720 C 0.85867 0.58963 0.79072 0.0
N721 N 0.84275 0.59886 0.79697 0.0
C722 C 0.82367 0.57317 0.78457 0.0
C723 C 0.82541 0.59105 0.79396 0.0
C724 C 0.83989 0.5635 0.7778 0.0
C725 C 0.85757 0.57192 0.7809 0.0
H726 H 0.87228 0.59618 0.79318 0.0
H727 H 0.81287 0.59864 0.79847 0.0
C728 C 0.85367 0.66023 0.88226 0.0
N729 N 0.85095 0.64338 0.87214 0.0
C730 C 0.85299 0.66149 0.90506 0.0
C731 C 0.84672 0.62803 0.90662 0.0
C732 C 0.84718 0.6275 0.8838 0.0
C733 C 0.84965 0.6452 0.91764 0.0
H734 H 0.85633 0.67272 0.8726 0.0
H735 H 0.84481 0.61432 0.87541 0.0
C736 C 0.8527 0.63247 0.76689 0.0
N737 N 0.84949 0.61046 0.72979 0.0
C738 C 0.86882 0.62498 0.75703 0.0
C739 C 0.83497 0.62895 0.7578 0.0
C740 C 0.8669 0.61384 0.73829 0.0
C741 C 0.83364 0.61772 0.73906 0.0
C742 C 0.87144 0.68125 0.82521 0.0
C743 C 0.86891 0.6955 0.80969 0.0
C744 C 0.88732 0.68149 0.83876 0.0
C745 C 0.88246 0.70973 0.80785 0.0
C746 C 0.90055 0.69594 0.83638 0.0
N747 N 0.89787 0.70963 0.8211 0.0
C748 C 0.80908 0.68304 0.80851 0.0
C749 C 0.82274 0.67917 0.77336 0.0
C750 C 0.7962 0.69611 0.80025 0.0
N751 N 0.82189 0.67485 0.795 0.0
C752 C 0.81013 0.69215 0.7644 0.0
C753 C 0.79658 0.70077 0.77789 0.0
H754 H 0.80877 0.67924 0.82566 0.0
H755 H 0.8332 0.6725 0.76307 0.0
C756 C 0.91192 0.64294 0.80812 0.0
N757 N 0.89714 0.65251 0.79938 0.0
C758 C 0.93008 0.64561 0.79997 0.0
C759 C 0.91754 0.66808 0.77401 0.0
C760 C 0.89957 0.66492 0.78265 0.0
C761 C 0.93305 0.65817 0.78252 0.0
H762 H 0.90957 0.63291 0.82112 0.0
H763 H 0.88748 0.67206 0.77573 0.0
O764 O 0.82811 0.6372 0.82609 0.0
O765 O 0.87025 0.62405 0.82719 0.0
O766 O 0.85424 0.64293 0.7856 0.0
O767 O 0.85858 0.66698 0.82691 0.0
H768 H 0.81659 0.61137 0.85436 0.0
H769 H 0.80086 0.64317 0.79716 0.0
H770 H 0.78515 0.59606 0.85375 0.0
H771 H 0.76969 0.6274 0.79764 0.0
H772 H 0.90564 0.61803 0.88886 0.0
H773 H 0.86031 0.58913 0.83753 0.0
H774 H 0.89439 0.63653 0.85696 0.0
H775 H 0.87224 0.57146 0.86969 0.0
H776 H 0.80979 0.56712 0.78224 0.0
H777 H 0.8704 0.5648 0.77599 0.0
H778 H 0.85491 0.67513 0.9127 0.0
H779 H 0.84439 0.61502 0.91548 0.0
H780 H 0.88264 0.62753 0.76394 0.0
H781 H 0.82236 0.63461 0.7653 0.0
H782 H 0.87923 0.60783 0.73056 0.0
H783 H 0.82 0.61475 0.73193 0.0
H784 H 0.85671 0.69549 0.79906 0.0
H785 H 0.88946 0.67056 0.85084 0.0
H786 H 0.88074 0.7208 0.79584 0.0
H787 H 0.91297 0.69625 0.84666 0.0
H788 H 0.78585 0.70226 0.81117 0.0
H789 H 0.81108 0.69554 0.74714 0.0
H790 H 0.94167 0.63781 0.80713 0.0
H791 H 0.91919 0.67771 0.76037 0.0
Li792 Li 0.3732 0.85038 0.80689 0.0
Li793 Li 0.35221 0.85346 0.8384 0.0
Li794 Li 0.3408 0.84122 0.80363 0.0
Li795 Li 0.34868 0.8745 0.80791 0.0
C796 C 0.35453 0.81192 0.82395 0.0
N797 N 0.34088 0.77543 0.82465 0.0
C798 C 0.34439 0.80539 0.84205 0.0
C799 C 0.35779 0.79987 0.80624 0.0
C800 C 0.33762 0.78689 0.84209 0.0
C801 C 0.35074 0.78148 0.80688 0.0
C802 C 0.37949 0.87729 0.84599 0.0
C803 C 0.37942 0.89411 0.88031 0.0
N804 N 0.39641 0.88635 0.88535 0.0
C805 C 0.39696 0.86949 0.8515 0.0
C806 C 0.37066 0.88974 0.86047 0.0
C807 C 0.40529 0.87426 0.87147 0.0
C808 C 0.40885 0.86187 0.79343 0.0
N809 N 0.39839 0.8462 0.7974 0.0
C810 C 0.42348 0.82636 0.78512 0.0
C811 C 0.40535 0.82863 0.79373 0.0
C812 C 0.43448 0.84235 0.78038 0.0
C813 C 0.427 0.86027 0.78492 0.0
H814 H 0.40292 0.87566 0.7966 0.0
H815 H 0.39673 0.81641 0.79706 0.0
C816 C 0.33564 0.85811 0.88032 0.0
N817 N 0.35074 0.85106 0.86935 0.0
C818 C 0.33495 0.8572 0.90313 0.0
C819 C 0.36516 0.8414 0.90286 0.0
C820 C 0.36523 0.84254 0.88006 0.0
C821 C 0.34994 0.84892 0.9147 0.0
H822 H 0.32423 0.86461 0.87138 0.0
H823 H 0.37693 0.83683 0.87084 0.0
C824 C 0.36695 0.85876 0.76602 0.0
N825 N 0.39273 0.86156 0.73224 0.0
C826 C 0.37366 0.87642 0.75947 0.0
C827 C 0.37332 0.84253 0.75532 0.0
C828 C 0.38668 0.87753 0.74235 0.0
C829 C 0.38637 0.84424 0.73832 0.0
C830 C 0.31387 0.872 0.82066 0.0
C831 C 0.30045 0.86874 0.80433 0.0
C832 C 0.31249 0.88813 0.83372 0.0
C833 C 0.28587 0.88173 0.80132 0.0
C834 C 0.29772 0.9008 0.83015 0.0
N835 N 0.28482 0.89736 0.81417 0.0
C836 C 0.30989 0.81663 0.80423 0.0
C837 C 0.32446 0.81937 0.76945 0.0
C838 C 0.29689 0.80371 0.79598 0.0
N839 N 0.3234 0.82402 0.79099 0.0
C840 C 0.31175 0.80647 0.76049 0.0
C841 C 0.29775 0.79842 0.77384 0.0
H842 H 0.30926 0.82082 0.82124 0.0
H843 H 0.33518 0.82564 0.75923 0.0
C844 C 0.35071 0.91437 0.80849 0.0
N845 N 0.34266 0.89931 0.79842 0.0
C846 C 0.34747 0.93257 0.80069 0.0
C847 C 0.32765 0.91942 0.77233 0.0
C848 C 0.33124 0.90147 0.78072 0.0
C849 C 0.33597 0.93525 0.78222 0.0
H850 H 0.36006 0.91222 0.82222 0.0
H851 H 0.32526 0.88918 0.77286 0.0
O852 O 0.36091 0.83012 0.82338 0.0
O853 O 0.37089 0.87246 0.82673 0.0
O854 O 0.35461 0.85731 0.78317 0.0
O855 O 0.32848 0.85965 0.82359 0.0
H856 H 0.34161 0.81455 0.85583 0.0
H857 H 0.36535 0.80477 0.79196 0.0
H858 H 0.32969 0.78167 0.85595 0.0
H859 H 0.35301 0.77206 0.79321 0.0
H860 H 0.37268 0.9036 0.89175 0.0
H861 H 0.40391 0.85967 0.84063 0.0
H862 H 0.35701 0.8957 0.85663 0.0
H863 H 0.41876 0.86827 0.87599 0.0
H864 H 0.42863 0.81228 0.78174 0.0
H865 H 0.43509 0.87297 0.78193 0.0
H866 H 0.323 0.86327 0.91164 0.0
H867 H 0.37687 0.83467 0.91113 0.0
H868 H 0.3691 0.88912 0.76769 0.0
H869 H 0.36857 0.82871 0.76042 0.0
H870 H 0.39205 0.8911 0.73719 0.0
H871 H 0.39154 0.83178 0.73004 0.0
H872 H 0.30138 0.85644 0.79393 0.0
H873 H 0.32289 0.89102 0.84623 0.0
H874 H 0.27542 0.87942 0.7887 0.0
H875 H 0.29655 0.9134 0.84004 0.0
H876 H 0.28613 0.79812 0.80676 0.0
H877 H 0.313 0.80268 0.74338 0.0
H878 H 0.35443 0.94435 0.80856 0.0
H879 H 0.31862 0.92088 0.75813 0.0
Li880 Li 0.14819 0.37482 0.80805 0.0
Li881 Li 0.14405 0.35517 0.84074 0.0
Li882 Li 0.15766 0.34128 0.80613 0.0
Li883 Li 0.12428 0.34901 0.80951 0.0
C884 C 0.18498 0.37051 0.82675 0.0
N885 N 0.21961 0.38823 0.83 0.0
C886 C 0.18928 0.38149 0.84509 0.0
C887 C 0.1985 0.36823 0.81029 0.0
C888 C 0.2068 0.39043 0.84636 0.0
C889 C 0.21586 0.37739 0.81217 0.0
C890 C 0.1176 0.38226 0.84391 0.0
C891 C 0.09828 0.38308 0.87641 0.0
N892 N 0.10217 0.40176 0.87875 0.0
C893 C 0.12128 0.40149 0.84655 0.0
C894 C 0.10589 0.373 0.85886 0.0
C895 C 0.11338 0.41109 0.8643 0.0
C896 C 0.14452 0.40435 0.77798 0.0
N897 N 0.15274 0.39966 0.79732 0.0
C898 C 0.16523 0.43082 0.80106 0.0
C899 C 0.16291 0.41247 0.80894 0.0
C900 C 0.157 0.43604 0.78101 0.0
C901 C 0.14667 0.42242 0.76936 0.0
H902 H 0.13611 0.39407 0.76929 0.0
H903 H 0.16872 0.40866 0.82464 0.0
C904 C 0.14465 0.33801 0.8824 0.0
N905 N 0.14565 0.35489 0.87191 0.0
C906 C 0.1454 0.33722 0.90523 0.0
C907 C 0.1483 0.37118 0.90602 0.0
C908 C 0.14766 0.37129 0.8832 0.0
C909 C 0.14711 0.35399 0.91732 0.0
H910 H 0.1432 0.32516 0.87304 0.0
H911 H 0.14864 0.38451 0.8745 0.0
C912 C 0.14925 0.35643 0.76462 0.0
N913 N 0.1645 0.35802 0.723 0.0
C914 C 0.13976 0.34822 0.74697 0.0
C915 C 0.16635 0.3657 0.761 0.0
C916 C 0.14774 0.34909 0.72608 0.0
C917 C 0.17387 0.36631 0.73988 0.0
C918 C 0.12671 0.31539 0.82649 0.0
C919 C 0.12906 0.30094 0.81117 0.0
C920 C 0.11159 0.3147 0.84114 0.0
C921 C 0.11606 0.28614 0.81058 0.0
C922 C 0.09888 0.29968 0.84001 0.0
N923 N 0.10135 0.28584 0.82487 0.0
C924 C 0.19117 0.32011 0.80663 0.0
C925 C 0.1722 0.3152 0.7752 0.0
C926 C 0.20466 0.30746 0.79879 0.0
N927 N 0.17546 0.32388 0.79468 0.0
C928 C 0.1853 0.30247 0.76674 0.0
C929 C 0.20183 0.29851 0.77854 0.0
H930 H 0.19325 0.32702 0.82223 0.0
H931 H 0.15931 0.31794 0.76636 0.0
C932 C 0.08443 0.35042 0.8086 0.0
N933 N 0.09981 0.34193 0.79972 0.0
C934 C 0.06645 0.34644 0.8006 0.0
C935 C 0.08042 0.32498 0.77447 0.0
C936 C 0.09814 0.32924 0.78315 0.0
C937 C 0.06433 0.33379 0.7831 0.0
H938 H 0.08614 0.36067 0.8215 0.0
H939 H 0.11061 0.32266 0.77644 0.0
O940 O 0.16793 0.36147 0.82539 0.0
O941 O 0.12536 0.37261 0.82672 0.0
O942 O 0.14167 0.35558 0.78522 0.0
O943 O 0.13906 0.3302 0.827 0.0
H944 H 0.17917 0.38323 0.85813 0.0
H945 H 0.19577 0.35932 0.79631 0.0
H946 H 0.21022 0.3991 0.86039 0.0
H947 H 0.2264 0.37578 0.7995 0.0
H948 H 0.08932 0.37605 0.88819 0.0
H949 H 0.13014 0.40894 0.83506 0.0
H950 H 0.10287 0.35815 0.85707 0.0
H951 H 0.11618 0.42595 0.86659 0.0
H952 H 0.17295 0.44092 0.81087 0.0
H953 H 0.14023 0.42568 0.75374 0.0
H954 H 0.14433 0.32369 0.91335 0.0
H955 H 0.14988 0.38439 0.91473 0.0
H956 H 0.12639 0.34119 0.74935 0.0
H957 H 0.17357 0.37266 0.77427 0.0
H958 H 0.1406 0.34269 0.71232 0.0
H959 H 0.1871 0.37344 0.7369 0.0
H960 H 0.14068 0.30122 0.79974 0.0
H961 H 0.10965 0.32569 0.8532 0.0
H962 H 0.11763 0.27492 0.79872 0.0
H963 H 0.08706 0.29904 0.85117 0.0
H964 H 0.21725 0.30489 0.80837 0.0
H965 H 0.18237 0.29556 0.75129 0.0
H966 H 0.0544 0.35372 0.80748 0.0
H967 H 0.07933 0.31506 0.76104 0.0
Li968 Li 0.62528 0.14987 0.80919 0.0
Li969 Li 0.64553 0.14437 0.84119 0.0
Li970 Li 0.65903 0.15816 0.80669 0.0
Li971 Li 0.65044 0.12481 0.80926 0.0
C972 C 0.63085 0.18604 0.82688 0.0
N973 N 0.6133 0.22083 0.82714 0.0
C974 C 0.62231 0.19273 0.84599 0.0
C975 C 0.63067 0.19716 0.808 0.0
C976 C 0.61345 0.21033 0.84576 0.0
C977 C 0.62167 0.21468 0.80843 0.0
C978 C 0.61716 0.11937 0.84433 0.0
C979 C 0.61443 0.09796 0.87484 0.0
N980 N 0.59692 0.10488 0.87912 0.0
C981 C 0.59907 0.12615 0.8489 0.0
C982 C 0.62484 0.10505 0.85725 0.0
C983 C 0.58909 0.11867 0.86661 0.0
C984 C 0.59503 0.14389 0.78162 0.0
N985 N 0.60058 0.15497 0.79859 0.0
C986 C 0.57061 0.17038 0.79914 0.0
C987 C 0.58879 0.16801 0.8075 0.0
C988 C 0.56448 0.15904 0.7817 0.0
C989 C 0.57697 0.14571 0.77286 0.0
H990 H 0.60464 0.13351 0.77502 0.0
H991 H 0.59327 0.17628 0.82137 0.0
C992 C 0.66302 0.14158 0.88258 0.0
N993 N 0.64637 0.14512 0.87234 0.0
C994 C 0.66408 0.1418 0.9054 0.0
C995 C 0.63088 0.14942 0.90672 0.0
C996 C 0.6305 0.14922 0.88388 0.0
C997 C 0.64783 0.14566 0.91775 0.0
H998 H 0.67549 0.1386 0.87304 0.0
H999 H 0.61754 0.15235 0.87535 0.0
C1000 C 0.64521 0.14866 0.76474 0.0
N1001 N 0.64811 0.15986 0.72153 0.0
C1002 C 0.65672 0.13867 0.75023 0.0
C1003 C 0.63489 0.16412 0.75715 0.0
C1004 C 0.65809 0.14462 0.72849 0.0
C1005 C 0.63661 0.16962 0.73528 0.0
C1006 C 0.68462 0.1262 0.82718 0.0
C1007 C 0.70102 0.12967 0.81513 0.0
C1008 C 0.68331 0.1099 0.83995 0.0
C1009 C 0.71573 0.11658 0.81579 0.0
C1010 C 0.69832 0.09715 0.84016 0.0
N1011 N 0.71408 0.10071 0.82816 0.0
C1012 C 0.67838 0.19287 0.80448 0.0
C1013 C 0.68736 0.17072 0.77736 0.0
C1014 C 0.69092 0.20616 0.79601 0.0
N1015 N 0.67661 0.17567 0.79487 0.0
C1016 C 0.7002 0.18351 0.76846 0.0
C1017 C 0.70198 0.20154 0.77772 0.0
H1018 H 0.67009 0.19626 0.81879 0.0
H1019 H 0.68614 0.15677 0.77045 0.0
C1020 C 0.64219 0.08684 0.80202 0.0
N1021 N 0.65566 0.10014 0.79861 0.0
C1022 C 0.64427 0.06878 0.79332 0.0
C1023 C 0.67425 0.07828 0.77805 0.0
C1024 C 0.6715 0.09625 0.78689 0.0
C1025 C 0.66039 0.06438 0.781 0.0
H1026 H 0.62961 0.09037 0.81112 0.0
H1027 H 0.68179 0.10719 0.78396 0.0
O1028 O 0.63951 0.16879 0.82682 0.0
O1029 O 0.62722 0.12664 0.82719 0.0
O1030 O 0.64366 0.14296 0.78607 0.0
O1031 O 0.67 0.13877 0.82659 0.0
H1032 H 0.62246 0.18442 0.86081 0.0
H1033 H 0.63759 0.19243 0.79324 0.0
H1034 H 0.6067 0.21563 0.8604 0.0
H1035 H 0.62141 0.22341 0.79391 0.0
H1036 H 0.62025 0.08696 0.88506 0.0
H1037 H 0.59287 0.13717 0.83903 0.0
H1038 H 0.63871 0.09948 0.85378 0.0
H1039 H 0.57513 0.12387 0.87043 0.0
H1040 H 0.56128 0.18062 0.80662 0.0
H1041 H 0.57283 0.13678 0.7593 0.0
H1042 H 0.67741 0.13874 0.9133 0.0
H1043 H 0.61811 0.15275 0.91564 0.0
H1044 H 0.66464 0.12654 0.75574 0.0
H1045 H 0.62547 0.17168 0.76792 0.0
H1046 H 0.66707 0.13711 0.71714 0.0
H1047 H 0.62874 0.1816 0.72922 0.0
H1048 H 0.70236 0.14229 0.80535 0.0
H1049 H 0.67081 0.10711 0.84952 0.0
H1050 H 0.72847 0.11904 0.80647 0.0
H1051 H 0.69744 0.08442 0.84986 0.0
H1052 H 0.69216 0.21979 0.80387 0.0
H1053 H 0.70851 0.17941 0.75436 0.0
H1054 H 0.63333 0.0584 0.79609 0.0
H1055 H 0.68677 0.07547 0.76843 0.0
Li1056 Li 0.87336 0.34388 0.68967 0.0
Li1057 Li 0.84094 0.33726 0.69082 0.0
Li1058 Li 0.85473 0.34894 0.65671 0.0
Li1059 Li 0.85065 0.37002 0.69114 0.0
C1060 C 0.87093 0.30966 0.66831 0.0
N1061 N 0.89351 0.2785 0.66115 0.0
C1062 C 0.87156 0.29509 0.6837 0.0
C1063 C 0.8816 0.30826 0.64913 0.0
C1064 C 0.88313 0.2795 0.67983 0.0
C1065 C 0.89296 0.29241 0.64584 0.0
C1066 C 0.85236 0.34217 0.73284 0.0
C1067 C 0.83736 0.34172 0.76827 0.0
N1068 N 0.84515 0.32454 0.77229 0.0
C1069 C 0.86036 0.3246 0.73741 0.0
C1070 C 0.8409 0.3509 0.74846 0.0
C1071 C 0.85649 0.31588 0.75742 0.0
C1072 C 0.90207 0.34572 0.72068 0.0
N1073 N 0.8981 0.33818 0.70074 0.0
C1074 C 0.92957 0.32629 0.69775 0.0
C1075 C 0.91149 0.32874 0.68914 0.0
C1076 C 0.93401 0.33402 0.71824 0.0
C1077 C 0.91999 0.34381 0.72978 0.0
H1078 H 0.89143 0.35369 0.72933 0.0
H1079 H 0.90848 0.32369 0.67291 0.0
C1080 C 0.82071 0.3031 0.69256 0.0
N1081 N 0.82194 0.32059 0.70155 0.0
C1082 C 0.80721 0.29032 0.70006 0.0
C1083 C 0.79625 0.31392 0.72563 0.0
C1084 C 0.80984 0.32629 0.71749 0.0
C1085 C 0.79491 0.29564 0.71697 0.0
H1086 H 0.8302 0.29907 0.67954 0.0
H1087 H 0.81063 0.34049 0.7238 0.0
C1088 C 0.89125 0.37102 0.66906 0.0
N1089 N 0.9295 0.378 0.66686 0.0
C1090 C 0.89989 0.38243 0.68478 0.0
C1091 C 0.90198 0.3633 0.6521 0.0
C1092 C 0.91928 0.38573 0.68343 0.0
C1093 C 0.92133 0.36698 0.65129 0.0
C1094 C 0.81252 0.35476 0.67194 0.0
C1095 C 0.80507 0.34087 0.65822 0.0
C1096 C 0.80064 0.36463 0.68614 0.0
C1097 C 0.78579 0.3369 0.65915 0.0
C1098 C 0.78143 0.36027 0.68654 0.0
N1099 N 0.77447 0.34659 0.67318 0.0
C1100 C 0.84947 0.3327 0.61496 0.0
C1101 C 0.85652 0.36541 0.61498 0.0
C1102 C 0.84889 0.33249 0.59212 0.0
N1103 N 0.85352 0.34894 0.62581 0.0
C1104 C 0.8557 0.36592 0.59215 0.0
C1105 C 0.85202 0.34927 0.5805 0.0
H1106 H 0.84683 0.31989 0.62406 0.0
H1107 H 0.85957 0.37811 0.62412 0.0
C1108 C 0.85203 0.3988 0.7222 0.0
N1109 N 0.84661 0.39478 0.7014 0.0
C1110 C 0.85008 0.41702 0.73043 0.0
C1111 C 0.83728 0.42674 0.69552 0.0
C1112 C 0.83928 0.40822 0.68804 0.0
C1113 C 0.84281 0.43139 0.71698 0.0
H1114 H 0.85809 0.38786 0.73232 0.0
H1115 H 0.83528 0.40459 0.67147 0.0
O1116 O 0.85941 0.32488 0.67162 0.0
O1117 O 0.85591 0.35089 0.71328 0.0
O1118 O 0.87245 0.36706 0.67054 0.0
O1119 O 0.83141 0.35849 0.6717 0.0
H1120 H 0.86307 0.2957 0.69838 0.0
H1121 H 0.88143 0.31943 0.6371 0.0
H1122 H 0.88378 0.26816 0.69164 0.0
H1123 H 0.90142 0.29122 0.63117 0.0
H1124 H 0.82838 0.34824 0.78042 0.0
H1125 H 0.86954 0.31784 0.7257 0.0
H1126 H 0.83456 0.36449 0.74517 0.0
H1127 H 0.86255 0.30226 0.76114 0.0
H1128 H 0.94016 0.319 0.68816 0.0
H1129 H 0.9229 0.35002 0.74563 0.0
H1130 H 0.80661 0.27633 0.69297 0.0
H1131 H 0.78676 0.31865 0.73839 0.0
H1132 H 0.89174 0.38842 0.69806 0.0
H1133 H 0.89547 0.35439 0.63986 0.0
H1134 H 0.9262 0.39439 0.69559 0.0
H1135 H 0.92985 0.36101 0.63835 0.0
H1136 H 0.81413 0.33308 0.64719 0.0
H1137 H 0.80626 0.3754 0.69689 0.0
H1138 H 0.77983 0.32608 0.64876 0.0
H1139 H 0.77207 0.36771 0.69754 0.0
H1140 H 0.84584 0.31944 0.58362 0.0
H1141 H 0.85824 0.37909 0.58366 0.0
H1142 H 0.85425 0.4198 0.74717 0.0
H1143 H 0.83188 0.43737 0.68444 0.0
Li1144 Li 0.65217 0.87231 0.69127 0.0
Li1145 Li 0.659 0.83852 0.69183 0.0
Li1146 Li 0.64737 0.85282 0.65874 0.0
Li1147 Li 0.62741 0.84879 0.69134 0.0
C1148 C 0.6893 0.86207 0.68106 0.0
N1149 N 0.72532 0.8693 0.69618 0.0
C1150 C 0.69298 0.86234 0.70356 0.0
C1151 C 0.70395 0.86546 0.66628 0.0
C1152 C 0.71128 0.86602 0.71086 0.0
C1153 C 0.72206 0.8691 0.67424 0.0
C1154 C 0.63625 0.85146 0.73341 0.0
C1155 C 0.61732 0.83201 0.75726 0.0
N1156 N 0.61484 0.84696 0.77089 0.0
C1157 C 0.63378 0.86653 0.74788 0.0
C1158 C 0.62822 0.83397 0.73835 0.0
C1159 C 0.62282 0.86401 0.76666 0.0
C1160 C 0.64292 0.9057 0.71166 0.0
N1161 N 0.65751 0.89729 0.70106 0.0
C1162 C 0.67652 0.92489 0.70551 0.0
C1163 C 0.674 0.90661 0.69743 0.0
C1164 C 0.66193 0.93355 0.71736 0.0
C1165 C 0.6449 0.9238 0.7202 0.0
H1166 H 0.62973 0.89822 0.71356 0.0
H1167 H 0.68518 0.9 0.68823 0.0
C1168 C 0.68971 0.81342 0.68855 0.0
N1169 N 0.67628 0.82008 0.70242 0.0
C1170 C 0.70279 0.8001 0.69578 0.0
C1171 C 0.6881 0.80092 0.73148 0.0
C1172 C 0.67532 0.81423 0.72356 0.0
C1173 C 0.70208 0.79369 0.71752 0.0
H1174 H 0.69026 0.81851 0.67187 0.0
H1175 H 0.66479 0.82002 0.73438 0.0
C1176 C 0.62868 0.88732 0.65989 0.0
N1177 N 0.62653 0.91973 0.63494 0.0
C1178 C 0.61144 0.89658 0.6573 0.0
C1179 C 0.64485 0.89456 0.64984 0.0
C1180 C 0.61064 0.91295 0.64461 0.0
C1181 C 0.64347 0.91095 0.63727 0.0
C1182 C 0.64423 0.81084 0.66944 0.0
C1183 C 0.65474 0.80599 0.65092 0.0
C1184 C 0.64009 0.79704 0.68507 0.0
C1185 C 0.66117 0.78748 0.6485 0.0
C1186 C 0.64681 0.7787 0.68208 0.0
N1187 N 0.65714 0.77434 0.66402 0.0
C1188 C 0.66442 0.85077 0.61702 0.0
C1189 C 0.63135 0.85571 0.61669 0.0
C1190 C 0.66494 0.85084 0.59417 0.0
N1191 N 0.64778 0.85309 0.62771 0.0
C1192 C 0.63124 0.8561 0.59384 0.0
C1193 C 0.64819 0.85356 0.58232 0.0
H1194 H 0.67725 0.84868 0.62626 0.0
H1195 H 0.61833 0.8575 0.62568 0.0
C1196 C 0.59351 0.86064 0.70937 0.0
N1197 N 0.6023 0.84519 0.70111 0.0
C1198 C 0.57539 0.85918 0.71802 0.0
C1199 C 0.57557 0.82592 0.70922 0.0
C1200 C 0.59371 0.82806 0.70064 0.0
C1201 C 0.56622 0.8416 0.71822 0.0
H1202 H 0.60073 0.87408 0.70944 0.0
H1203 H 0.60107 0.81602 0.69395 0.0
O1204 O 0.67157 0.85827 0.67338 0.0
O1205 O 0.64667 0.85375 0.71469 0.0
O1206 O 0.62965 0.87134 0.67239 0.0
O1207 O 0.63818 0.82901 0.67231 0.0
H1208 H 0.6819 0.85977 0.71531 0.0
H1209 H 0.70136 0.86531 0.64883 0.0
H1210 H 0.71432 0.86626 0.72821 0.0
H1211 H 0.73352 0.87177 0.66298 0.0
H1212 H 0.61082 0.81861 0.76108 0.0
H1213 H 0.64041 0.87997 0.74483 0.0
H1214 H 0.63014 0.8221 0.72752 0.0
H1215 H 0.62073 0.8756 0.77792 0.0
H1216 H 0.68981 0.93206 0.70282 0.0
H1217 H 0.63315 0.93019 0.72877 0.0
H1218 H 0.71326 0.7948 0.68443 0.0
H1219 H 0.68727 0.79662 0.74846 0.0
H1220 H 0.59882 0.89117 0.66505 0.0
H1221 H 0.65834 0.88764 0.65171 0.0
H1222 H 0.59739 0.92027 0.64245 0.0
H1223 H 0.65586 0.91671 0.6294 0.0
H1224 H 0.65807 0.81641 0.63863 0.0
H1225 H 0.6319 0.80044 0.69943 0.0
H1226 H 0.66942 0.78358 0.63431 0.0
H1227 H 0.64383 0.76794 0.69414 0.0
H1228 H 0.6783 0.84898 0.58587 0.0
H1229 H 0.61801 0.85807 0.58528 0.0
H1230 H 0.56861 0.87171 0.72439 0.0
H1231 H 0.56909 0.8121 0.70919 0.0
Li1232 Li 0.1249 0.65246 0.69246 0.0
Li1233 Li 0.1575 0.66126 0.69249 0.0
Li1234 Li 0.14366 0.64725 0.66032 0.0
Li1235 Li 0.14914 0.62846 0.69256 0.0
C1236 C 0.1327 0.6896 0.68095 0.0
N1237 N 0.12394 0.72549 0.69534 0.0
C1238 C 0.12944 0.69296 0.70318 0.0
C1239 C 0.13147 0.70449 0.66604 0.0
C1240 C 0.12504 0.7112 0.71013 0.0
C1241 C 0.12703 0.72254 0.67364 0.0
C1242 C 0.15513 0.64391 0.73323 0.0
C1243 C 0.18557 0.63616 0.74836 0.0
N1244 N 0.17809 0.6369 0.76884 0.0
C1245 C 0.14774 0.64457 0.75442 0.0
C1246 C 0.1742 0.63966 0.73014 0.0
C1247 C 0.15959 0.64099 0.77222 0.0
C1248 C 0.09527 0.64837 0.7218 0.0
N1249 N 0.1004 0.65772 0.70335 0.0
C1250 C 0.07017 0.6725 0.7012 0.0
C1251 C 0.08836 0.6697 0.69301 0.0
C1252 C 0.06444 0.66293 0.72021 0.0
C1253 C 0.0773 0.65081 0.7306 0.0
H1254 H 0.10512 0.63879 0.72951 0.0
H1255 H 0.0928 0.67695 0.67832 0.0
C1256 C 0.18948 0.68434 0.68868 0.0
N1257 N 0.17525 0.67941 0.70241 0.0
C1258 C 0.20296 0.69754 0.69526 0.0
C1259 C 0.18677 0.70035 0.72994 0.0
C1260 C 0.1736 0.68717 0.72267 0.0
C1261 C 0.20172 0.7057 0.71619 0.0
H1262 H 0.19033 0.67803 0.67259 0.0
H1263 H 0.1621 0.68308 0.73325 0.0
C1264 C 0.10962 0.62728 0.66297 0.0
N1265 N 0.0763 0.6233 0.64002 0.0
C1266 C 0.09989 0.61017 0.6634 0.0
C1267 C 0.10242 0.64239 0.65089 0.0
C1268 C 0.08306 0.60843 0.65168 0.0
C1269 C 0.08555 0.64009 0.63939 0.0
C1270 C 0.17776 0.62846 0.66092 0.0
C1271 C 0.16862 0.61226 0.65335 0.0
C1272 C 0.19649 0.63181 0.65499 0.0
C1273 C 0.1784 0.59966 0.63993 0.0
C1274 C 0.20579 0.61886 0.64155 0.0
N1275 N 0.19663 0.60319 0.63436 0.0
C1276 C 0.14996 0.66322 0.6189 0.0
C1277 C 0.13887 0.63169 0.61771 0.0
C1278 C 0.15077 0.66391 0.59607 0.0
N1279 N 0.14407 0.64728 0.62918 0.0
C1280 C 0.13955 0.63173 0.59489 0.0
C1281 C 0.14558 0.64799 0.58378 0.0
H1282 H 0.15411 0.67536 0.62848 0.0
H1283 H 0.13419 0.6192 0.62627 0.0
C1284 C 0.13957 0.59569 0.71412 0.0
N1285 N 0.15448 0.60424 0.70431 0.0
C1286 C 0.14165 0.57795 0.72364 0.0
C1287 C 0.17442 0.57804 0.71265 0.0
C1288 C 0.1718 0.59598 0.70369 0.0
C1289 C 0.15921 0.56889 0.72279 0.0
H1290 H 0.12604 0.60274 0.71453 0.0
H1291 H 0.18356 0.60328 0.69631 0.0
O1292 O 0.1371 0.6719 0.67363 0.0
O1293 O 0.1436 0.64731 0.7157 0.0
O1294 O 0.12605 0.62915 0.67451 0.0
O1295 O 0.16849 0.64117 0.67389 0.0
H1296 H 0.13026 0.68164 0.71498 0.0
H1297 H 0.13393 0.70212 0.64877 0.0
H1298 H 0.1225 0.71399 0.72729 0.0
H1299 H 0.12604 0.7342 0.66227 0.0
H1300 H 0.20035 0.63287 0.74621 0.0
H1301 H 0.13301 0.64784 0.75707 0.0
H1302 H 0.18021 0.63909 0.7139 0.0
H1303 H 0.15406 0.64147 0.78871 0.0
H1304 H 0.06072 0.68205 0.69278 0.0
H1305 H 0.07335 0.64292 0.74508 0.0
H1306 H 0.21409 0.70145 0.68401 0.0
H1307 H 0.1854 0.70608 0.7463 0.0
H1308 H 0.10528 0.59835 0.67272 0.0
H1309 H 0.10973 0.65576 0.65037 0.0
H1310 H 0.07537 0.59525 0.65186 0.0
H1311 H 0.07981 0.65167 0.62998 0.0
H1312 H 0.15416 0.60937 0.65783 0.0
H1313 H 0.20375 0.6443 0.66071 0.0
H1314 H 0.1715 0.58706 0.63396 0.0
H1315 H 0.22029 0.62128 0.63683 0.0
H1316 H 0.15568 0.67666 0.58814 0.0
H1317 H 0.13519 0.61924 0.58603 0.0
H1318 H 0.1296 0.57124 0.73124 0.0
H1319 H 0.1882 0.57148 0.71191 0.0
Li1320 Li 0.34662 0.12771 0.6917 0.0
Li1321 Li 0.33875 0.15994 0.69318 0.0
Li1322 Li 0.35168 0.14687 0.65936 0.0
Li1323 Li 0.37177 0.15086 0.69422 0.0
C1324 C 0.3132 0.13014 0.66575 0.0
N1325 N 0.28393 0.10856 0.64943 0.0
C1326 C 0.29575 0.12989 0.67641 0.0
C1327 C 0.31564 0.11964 0.64658 0.0
C1328 C 0.28117 0.11881 0.66798 0.0
C1329 C 0.3007 0.10877 0.63864 0.0
C1330 C 0.34132 0.14382 0.73425 0.0
C1331 C 0.33703 0.14787 0.77312 0.0
N1332 N 0.31923 0.14088 0.77133 0.0
C1333 C 0.32302 0.13668 0.73279 0.0
C1334 C 0.34843 0.14946 0.75455 0.0
C1335 C 0.31206 0.1353 0.75172 0.0
C1336 C 0.35051 0.09813 0.72123 0.0
N1337 N 0.3413 0.10276 0.70245 0.0
C1338 C 0.32796 0.07182 0.70035 0.0
C1339 C 0.33018 0.09001 0.69195 0.0
C1340 C 0.33744 0.06667 0.71962 0.0
C1341 C 0.34875 0.08013 0.73015 0.0
H1342 H 0.35958 0.10834 0.72907 0.0
H1343 H 0.32338 0.09365 0.6768 0.0
C1344 C 0.30516 0.18108 0.6928 0.0
N1345 N 0.32142 0.17807 0.70401 0.0
C1346 C 0.29213 0.19433 0.70029 0.0
C1347 C 0.31295 0.20124 0.7306 0.0
C1348 C 0.32556 0.18785 0.72253 0.0
C1349 C 0.29594 0.20459 0.71947 0.0
H1350 H 0.30239 0.17325 0.67795 0.0
H1351 H 0.33871 0.18528 0.73098 0.0
C1352 C 0.37508 0.1107 0.67266 0.0
N1353 N 0.38424 0.07284 0.67234 0.0
C1354 C 0.38722 0.10335 0.68853 0.0
C1355 C 0.36779 0.09886 0.65645 0.0
C1356 C 0.39163 0.08415 0.68814 0.0
C1357 C 0.37255 0.07974 0.65661 0.0
C1358 C 0.35622 0.18909 0.67692 0.0
C1359 C 0.34353 0.19769 0.66255 0.0
C1360 C 0.36451 0.19965 0.69367 0.0
C1361 C 0.33919 0.21676 0.66532 0.0
C1362 C 0.35982 0.21869 0.69587 0.0
N1363 N 0.34735 0.22677 0.68179 0.0
C1364 C 0.33707 0.15578 0.61775 0.0
C1365 C 0.36744 0.14176 0.61755 0.0
C1366 C 0.33693 0.15653 0.59492 0.0
N1367 N 0.35212 0.14836 0.62848 0.0
C1368 C 0.36795 0.14233 0.59471 0.0
C1369 C 0.35251 0.14971 0.58312 0.0
H1370 H 0.32509 0.16091 0.62696 0.0
H1371 H 0.37918 0.13592 0.62658 0.0
C1372 C 0.40081 0.14741 0.72463 0.0
N1373 N 0.39598 0.1559 0.70552 0.0
C1374 C 0.41878 0.14998 0.7334 0.0
C1375 C 0.42632 0.17033 0.70285 0.0
C1376 C 0.40819 0.16728 0.69461 0.0
C1377 C 0.43187 0.16149 0.72243 0.0
H1378 H 0.39078 0.13835 0.73284 0.0
H1379 H 0.40387 0.17387 0.67945 0.0
O1380 O 0.32748 0.14126 0.67354 0.0
O1381 O 0.35226 0.14551 0.7159 0.0
O1382 O 0.37008 0.12931 0.67324 0.0
O1383 O 0.36018 0.17031 0.67493 0.0
H1384 H 0.29343 0.13825 0.69098 0.0
H1385 H 0.32895 0.11966 0.63803 0.0
H1386 H 0.26763 0.11843 0.67612 0.0
H1387 H 0.30245 0.10047 0.62392 0.0
H1388 H 0.34233 0.15221 0.78894 0.0
H1389 H 0.31737 0.13219 0.71724 0.0
H1390 H 0.36258 0.15508 0.75592 0.0
H1391 H 0.29786 0.12978 0.75083 0.0
H1392 H 0.31935 0.06175 0.69154 0.0
H1393 H 0.35622 0.07677 0.74511 0.0
H1394 H 0.27932 0.19668 0.69104 0.0
H1395 H 0.31637 0.20872 0.74554 0.0
H1396 H 0.39296 0.11233 0.7012 0.0
H1397 H 0.35848 0.10434 0.64398 0.0
H1398 H 0.40086 0.07824 0.70044 0.0
H1399 H 0.36691 0.07038 0.64425 0.0
H1400 H 0.33693 0.18965 0.64958 0.0
H1401 H 0.37426 0.19314 0.70501 0.0
H1402 H 0.32929 0.22358 0.65442 0.0
H1403 H 0.36603 0.22702 0.70883 0.0
H1404 H 0.32484 0.1625 0.5866 0.0
H1405 H 0.38013 0.13674 0.58622 0.0
H1406 H 0.42252 0.14263 0.74832 0.0
H1407 H 0.43587 0.17948 0.69399 0.0
C1408 C 0.2743 0.22717 0.28419 0.0
C1409 C 0.28506 0.21552 0.2705 0.0
C1410 C 0.26125 0.23998 0.27544 0.0
C1411 C 0.25883 0.24105 0.25247 0.0
C1412 C 0.26958 0.22925 0.23857 0.0
C1413 C 0.28263 0.21666 0.24776 0.0
C1414 C 0.25016 0.25248 0.29077 0.0
C1415 C 0.26726 0.22987 0.21401 0.0
C1416 C 0.21325 0.2626 0.23158 0.0
C1417 C 0.21901 0.28095 0.22619 0.0
C1418 C 0.22612 0.24937 0.23985 0.0
C1419 C 0.24517 0.25468 0.243 0.0
C1420 C 0.25112 0.27311 0.23744 0.0
C1421 C 0.238 0.28598 0.22898 0.0
C1422 C 0.21929 0.22979 0.24548 0.0
C1423 C 0.27132 0.27929 0.24062 0.0
H1424 H 0.27629 0.22647 0.30176 0.0
H1425 H 0.29078 0.2075 0.23715 0.0
H1426 H 0.25304 0.26752 0.287 0.0
H1427 H 0.23483 0.25015 0.2884 0.0
H1428 H 0.25366 0.24985 0.30823 0.0
H1429 H 0.27657 0.21962 0.20551 0.0
H1430 H 0.25241 0.22676 0.20957 0.0
H1431 H 0.2705 0.24422 0.20785 0.0
H1432 H 0.19857 0.25866 0.22976 0.0
H1433 H 0.24266 0.30001 0.22449 0.0
H1434 H 0.22115 0.22717 0.26325 0.0
H1435 H 0.22781 0.2191 0.23664 0.0
H1436 H 0.2042 0.22768 0.24126 0.0
H1437 H 0.27529 0.27794 0.25812 0.0
H1438 H 0.27367 0.29411 0.23542 0.0
H1439 H 0.28091 0.27002 0.23114 0.0
C1440 C 0.76626 0.29035 0.26094 0.0
C1441 C 0.78311 0.28433 0.27069 0.0
C1442 C 0.75313 0.2773 0.25283 0.0
C1443 C 0.75702 0.25777 0.25442 0.0
C1444 C 0.77401 0.25159 0.26424 0.0
C1445 C 0.78684 0.26496 0.27232 0.0
C1446 C 0.73509 0.28441 0.24262 0.0
C1447 C 0.77869 0.23088 0.26608 0.0
C1448 C 0.71611 0.22336 0.25111 0.0
C1449 C 0.71709 0.21747 0.22923 0.0
C1450 C 0.72902 0.23648 0.25953 0.0
C1451 C 0.7433 0.24379 0.24575 0.0
C1452 C 0.74443 0.23783 0.22368 0.0
C1453 C 0.73127 0.22477 0.21566 0.0
C1454 C 0.72729 0.24261 0.28312 0.0
C1455 C 0.75956 0.24522 0.20854 0.0
H1456 H 0.76323 0.30531 0.25989 0.0
H1457 H 0.79995 0.26025 0.2796 0.0
H1458 H 0.73408 0.27947 0.22542 0.0
H1459 H 0.72276 0.2786 0.25153 0.0
H1460 H 0.73416 0.30005 0.24277 0.0
H1461 H 0.7925 0.22842 0.27418 0.0
H1462 H 0.76758 0.2235 0.27556 0.0
H1463 H 0.77906 0.2244 0.24955 0.0
H1464 H 0.70504 0.21791 0.26158 0.0
H1465 H 0.7322 0.22008 0.1988 0.0
H1466 H 0.72513 0.25809 0.28397 0.0
H1467 H 0.74054 0.23941 0.29205 0.0
H1468 H 0.71541 0.23554 0.29167 0.0
H1469 H 0.75846 0.26078 0.20718 0.0
H1470 H 0.75858 0.23904 0.19187 0.0
H1471 H 0.77369 0.242 0.21537 0.0
C1472 C 0.77319 0.71331 0.24884 0.0
C1473 C 0.78334 0.71729 0.22966 0.0
C1474 C 0.76001 0.72616 0.25724 0.0
C1475 C 0.75673 0.74333 0.24607 0.0
C1476 C 0.76685 0.74744 0.22668 0.0
C1477 C 0.7801 0.73442 0.21878 0.0
C1478 C 0.74955 0.72134 0.27804 0.0
C1479 C 0.76364 0.76556 0.21425 0.0
C1480 C 0.71025 0.7684 0.25609 0.0
C1481 C 0.71563 0.78286 0.27049 0.0
C1482 C 0.7235 0.75551 0.24793 0.0
C1483 C 0.74256 0.75693 0.25455 0.0
C1484 C 0.74809 0.77134 0.26923 0.0
C1485 C 0.73459 0.7842 0.27691 0.0
C1486 C 0.71709 0.74038 0.23218 0.0
C1487 C 0.76828 0.77319 0.27679 0.0
H1488 H 0.77536 0.7 0.25718 0.0
H1489 H 0.78808 0.73776 0.20415 0.0
H1490 H 0.75186 0.73252 0.29046 0.0
H1491 H 0.73418 0.72072 0.27477 0.0
H1492 H 0.75409 0.70762 0.28505 0.0
H1493 H 0.77255 0.76655 0.19933 0.0
H1494 H 0.74862 0.76665 0.20933 0.0
H1495 H 0.76677 0.77782 0.22492 0.0
H1496 H 0.6956 0.76701 0.25133 0.0
H1497 H 0.73896 0.79548 0.28776 0.0
H1498 H 0.71999 0.72624 0.23917 0.0
H1499 H 0.72514 0.74147 0.21665 0.0
H1500 H 0.70181 0.74139 0.22839 0.0
H1501 H 0.77295 0.75988 0.28465 0.0
H1502 H 0.7702 0.78493 0.28863 0.0
H1503 H 0.77764 0.77568 0.26253 0.0
C1504 C 0.28815 0.7608 0.22552 0.0
C1505 C 0.28489 0.78016 0.22843 0.0
C1506 C 0.27582 0.74732 0.23435 0.0
C1507 C 0.25978 0.75334 0.24623 0.0
C1508 C 0.25647 0.77283 0.24936 0.0
C1509 C 0.26911 0.786 0.2405 0.0
C1510 C 0.27984 0.72664 0.23074 0.0
C1511 C 0.23949 0.77979 0.26191 0.0
C1512 C 0.21809 0.72 0.25037 0.0
C1513 C 0.22015 0.71289 0.27165 0.0
C1514 C 0.23091 0.73317 0.2419 0.0
C1515 C 0.24621 0.73927 0.25498 0.0
C1516 C 0.24844 0.73205 0.27643 0.0
C1517 C 0.23532 0.71899 0.28455 0.0
C1518 C 0.22797 0.74069 0.21902 0.0
C1519 C 0.26469 0.73811 0.29077 0.0
H1520 H 0.30018 0.75616 0.21599 0.0
H1521 H 0.26666 0.80091 0.24315 0.0
H1522 H 0.28054 0.71919 0.24669 0.0
H1523 H 0.26821 0.72015 0.22122 0.0
H1524 H 0.29329 0.72427 0.22183 0.0
H1525 H 0.23902 0.79542 0.263 0.0
H1526 H 0.22638 0.77481 0.25387 0.0
H1527 H 0.2396 0.77391 0.27874 0.0
H1528 H 0.20624 0.71549 0.24046 0.0
H1529 H 0.23705 0.71336 0.30093 0.0
H1530 H 0.24055 0.7377 0.2088 0.0
H1531 H 0.2262 0.75623 0.21954 0.0
H1532 H 0.2154 0.73443 0.21095 0.0
H1533 H 0.27826 0.73488 0.28254 0.0
H1534 H 0.26451 0.73101 0.30698 0.0
H1535 H 0.2642 0.75358 0.29339 0.0
C1536 C 0.71016 0.76488 0.7393 0.0
C1537 C 0.71598 0.77974 0.72574 0.0
C1538 C 0.7232 0.75185 0.74762 0.0
C1539 C 0.74252 0.75373 0.74223 0.0
C1540 C 0.74848 0.7686 0.72841 0.0
C1541 C 0.73513 0.78143 0.72033 0.0
C1542 C 0.71632 0.73612 0.76224 0.0
C1543 C 0.76897 0.77106 0.72235 0.0
C1544 C 0.7784 0.73101 0.78005 0.0
C1545 C 0.78285 0.71443 0.76866 0.0
C1546 C 0.76534 0.74396 0.7716 0.0
C1547 C 0.75653 0.74023 0.75126 0.0
C1548 C 0.761 0.72355 0.73964 0.0
C1549 C 0.77411 0.71085 0.74848 0.0
C1550 C 0.76096 0.76163 0.78443 0.0
C1551 C 0.75184 0.71908 0.71793 0.0
H1552 H 0.69535 0.76335 0.74329 0.0
H1553 H 0.73974 0.79303 0.71008 0.0
H1554 H 0.72016 0.72226 0.75509 0.0
H1555 H 0.72327 0.73707 0.77847 0.0
H1556 H 0.7008 0.73653 0.76468 0.0
H1557 H 0.77124 0.78318 0.71112 0.0
H1558 H 0.77751 0.77332 0.73734 0.0
H1559 H 0.77434 0.75809 0.71434 0.0
H1560 H 0.7853 0.73397 0.79551 0.0
H1561 H 0.7773 0.69793 0.73974 0.0
H1562 H 0.7457 0.76214 0.78837 0.0
H1563 H 0.76423 0.77427 0.77441 0.0
H1564 H 0.76909 0.76246 0.79994 0.0
H1565 H 0.73633 0.71811 0.71999 0.0
H1566 H 0.75703 0.70561 0.71085 0.0
H1567 H 0.75464 0.73059 0.70608 0.0
C1568 C 0.21045 0.73547 0.73588 0.0
C1569 C 0.21599 0.71961 0.72375 0.0
C1570 C 0.22379 0.74842 0.7437 0.0
C1571 C 0.24314 0.7455 0.73916 0.0
C1572 C 0.24883 0.72968 0.72668 0.0
C1573 C 0.23518 0.71689 0.71917 0.0
C1574 C 0.2172 0.76513 0.75697 0.0
C1575 C 0.26934 0.72614 0.72148 0.0
C1576 C 0.27599 0.78758 0.74401 0.0
C1577 C 0.28403 0.78467 0.76473 0.0
C1578 C 0.26279 0.77485 0.73539 0.0
C1579 C 0.25746 0.75887 0.74781 0.0
C1580 C 0.26559 0.75579 0.76866 0.0
C1581 C 0.27881 0.76869 0.77684 0.0
C1582 C 0.25443 0.77858 0.71307 0.0
C1583 C 0.26024 0.7389 0.78239 0.0
H1584 H 0.19562 0.73783 0.73918 0.0
H1585 H 0.2396 0.70455 0.71006 0.0
H1586 H 0.22372 0.76475 0.77347 0.0
H1587 H 0.22176 0.77844 0.74902 0.0
H1588 H 0.20162 0.76545 0.75889 0.0
H1589 H 0.27138 0.71348 0.71104 0.0
H1590 H 0.27544 0.73854 0.71294 0.0
H1591 H 0.27741 0.7242 0.73688 0.0
H1592 H 0.27977 0.80002 0.73468 0.0
H1593 H 0.28518 0.7662 0.79271 0.0
H1594 H 0.23894 0.78037 0.71447 0.0
H1595 H 0.25696 0.76634 0.70215 0.0
H1596 H 0.26043 0.7914 0.70527 0.0
H1597 H 0.24488 0.73914 0.78584 0.0
H1598 H 0.26795 0.73849 0.79821 0.0
H1599 H 0.26324 0.72571 0.77328 0.0
C1600 C 0.22435 0.27165 0.78371 0.0
C1601 C 0.21593 0.28497 0.76984 0.0
C1602 C 0.23753 0.25864 0.77564 0.0
C1603 C 0.24239 0.25897 0.75317 0.0
C1604 C 0.23402 0.27243 0.7391 0.0
C1605 C 0.22089 0.28528 0.74761 0.0
C1606 C 0.24614 0.24444 0.79112 0.0
C1607 C 0.23891 0.27325 0.71506 0.0
C1608 C 0.28844 0.23608 0.73589 0.0
C1609 C 0.28222 0.21862 0.72789 0.0
C1610 C 0.27563 0.24938 0.74412 0.0
C1611 C 0.25613 0.2451 0.74434 0.0
C1612 C 0.24975 0.22753 0.73621 0.0
C1613 C 0.26287 0.2145 0.72808 0.0
C1614 C 0.28294 0.268 0.7526 0.0
C1615 C 0.22907 0.22246 0.73622 0.0
H1616 H 0.2204 0.27119 0.80084 0.0
H1617 H 0.21461 0.29571 0.73688 0.0
H1618 H 0.24273 0.22993 0.78559 0.0
H1619 H 0.26172 0.2458 0.79103 0.0
H1620 H 0.24103 0.24621 0.80818 0.0
H1621 H 0.23122 0.28465 0.70636 0.0
H1622 H 0.25428 0.27558 0.71301 0.0
H1623 H 0.23548 0.25959 0.70714 0.0
H1624 H 0.30335 0.23944 0.73551 0.0
H1625 H 0.25801 0.20093 0.72218 0.0
H1626 H 0.27892 0.26979 0.77002 0.0
H1627 H 0.27644 0.27978 0.74334 0.0
H1628 H 0.29852 0.26916 0.75123 0.0
H1629 H 0.22353 0.22271 0.7532 0.0
H1630 H 0.22641 0.20829 0.72911 0.0
H1631 H 0.22097 0.23304 0.7267 0.0
C1632 C 0.73386 0.20996 0.76314 0.0
C1633 C 0.71543 0.21543 0.76849 0.0
C1634 C 0.74679 0.22301 0.75464 0.0
C1635 C 0.74109 0.24192 0.75125 0.0
C1636 C 0.72246 0.24748 0.75647 0.0
C1637 C 0.70986 0.23417 0.76513 0.0
C1638 C 0.76661 0.21661 0.74947 0.0
C1639 C 0.71582 0.26748 0.75288 0.0
C1640 C 0.77886 0.27974 0.74836 0.0
C1641 C 0.78089 0.28211 0.7257 0.0
C1642 C 0.76595 0.2667 0.7569 0.0
C1643 C 0.75469 0.25591 0.74242 0.0
C1644 C 0.75655 0.25839 0.71953 0.0
C1645 C 0.76972 0.27141 0.71143 0.0
C1646 C 0.7645 0.2643 0.78141 0.0
C1647 C 0.74463 0.2473 0.7036 0.0
H1648 H 0.73825 0.19552 0.76596 0.0
H1649 H 0.69556 0.23837 0.76903 0.0
H1650 H 0.76979 0.21916 0.73194 0.0
H1651 H 0.77689 0.22492 0.75919 0.0
H1652 H 0.76879 0.2014 0.75303 0.0
H1653 H 0.7008 0.26944 0.75748 0.0
H1654 H 0.72454 0.27735 0.76267 0.0
H1655 H 0.71759 0.27141 0.73542 0.0
H1656 H 0.78765 0.28786 0.75941 0.0
H1657 H 0.77114 0.27337 0.69391 0.0
H1658 H 0.76778 0.24951 0.78594 0.0
H1659 H 0.74987 0.2672 0.7869 0.0
H1660 H 0.77424 0.27381 0.79041 0.0
H1661 H 0.74728 0.23199 0.7057 0.0
H1662 H 0.74756 0.25115 0.6863 0.0
H1663 H 0.72946 0.24975 0.70698 0.0
C1664 C 0.13669 0.36637 0.95371 0.0
C1665 C 0.14758 0.35359 0.94158 0.0
C1666 C 0.13698 0.3662 0.97667 0.0
C1667 C 0.14855 0.35303 0.98775 0.0
C1668 C 0.15962 0.34012 0.9756 0.0
C1669 C 0.15893 0.3405 0.95264 0.0
C1670 C 0.12483 0.38005 0.98906 0.0
C1671 C 0.17225 0.32599 0.98685 0.0
C1672 C 0.16197 0.36422 0.04653 0.0
C1673 C 0.14945 0.35274 0.05826 0.0
C1674 C 0.16198 0.3643 0.02356 0.0
C1675 C 0.14903 0.35276 0.01208 0.0
C1676 C 0.13636 0.34113 0.02385 0.0
C1677 C 0.13678 0.3412 0.04681 0.0
C1678 C 0.17583 0.37674 0.01156 0.0
C1679 C 0.12222 0.32877 0.01219 0.0
H1680 H 0.12773 0.37635 0.9452 0.0
H1681 H 0.16751 0.33074 0.9433 0.0
H1682 H 0.11494 0.37235 -8e-05 0.0
H1683 H 0.13378 0.38907 0.99966 0.0
H1684 H 0.11653 0.38929 0.97798 0.0
H1685 H 0.18005 0.317 0.97502 0.0
H1686 H 0.18261 0.33344 0.99736 0.0
H1687 H 0.16375 0.31674 0.99768 0.0
H1688 H 0.17192 0.37301 0.05535 0.0
H1689 H 0.12694 0.33247 0.05584 0.0
H1690 H 0.16812 0.38707 0.00126 0.0
H1691 H 0.18467 0.36808 0.00044 0.0
H1692 H 0.18523 0.38459 0.02291 0.0
H1693 H 0.11279 0.3376 0.00194 0.0
H1694 H 0.11342 0.32048 0.02375 0.0
H1695 H 0.12961 0.31887 0.00107 0.0
C1696 C 0.66329 0.15504 0.95296 0.0
C1697 C 0.64857 0.14581 0.94201 0.0
C1698 C 0.66407 0.1554 0.97592 0.0
C1699 C 0.64985 0.14618 0.98818 0.0
C1700 C 0.63501 0.13674 0.9772 0.0
C1701 C 0.63451 0.13673 0.95424 0.0
C1702 C 0.68001 0.16576 0.98704 0.0
C1703 C 0.6197 0.1266 0.98972 0.0
C1704 C 0.66036 0.13244 0.04702 0.0
C1705 C 0.65099 0.14666 0.05873 0.0
C1706 C 0.66015 0.13214 0.02405 0.0
C1707 C 0.65044 0.14646 0.0125 0.0
C1708 C 0.64113 0.16096 0.02419 0.0
C1709 C 0.64146 0.16085 0.04716 0.0
C1710 C 0.67024 0.11644 0.01214 0.0
C1711 C 0.63066 0.1765 0.01244 0.0
H1712 H 0.67406 0.16224 0.94356 0.0
H1713 H 0.62323 0.12939 0.94582 0.0
H1714 H 0.67426 0.17708 0.99765 0.0
H1715 H 0.68797 0.15595 0.99776 0.0
H1716 H 0.68997 0.17216 0.97514 0.0
H1717 H 0.60923 0.11983 0.97871 0.0
H1718 H 0.62602 0.11559 0.00034 0.0
H1719 H 0.6122 0.13666 0.00057 0.0
H1720 H 0.66799 0.12159 0.05581 0.0
H1721 H 0.63395 0.17172 0.05606 0.0
H1722 H 0.68115 0.12241 0.00112 0.0
H1723 H 0.66011 0.10857 0.00174 0.0
H1724 H 0.67712 0.10636 0.02354 0.0
H1725 H 0.64029 0.1839 0.001 0.0
H1726 H 0.62457 0.187 0.02393 0.0
H1727 H 0.61907 0.17039 0.00252 0.0
C1728 C 0.8371 0.63448 0.9541 0.0
C1729 C 0.84939 0.64604 0.94203 0.0
C1730 C 0.8372 0.63461 0.97707 0.0
C1731 C 0.84954 0.64693 0.98831 0.0
C1732 C 0.86167 0.65894 0.97632 0.0
C1733 C 0.86161 0.65819 0.95336 0.0
C1734 C 0.82423 0.62141 0.9893 0.0
C1735 C 0.87485 0.67248 0.98774 0.0
C1736 C 0.83807 0.65852 0.04756 0.0
C1737 C 0.85101 0.64714 0.05876 0.0
C1738 C 0.83757 0.65877 0.02459 0.0
C1739 C 0.85001 0.64701 0.01265 0.0
C1740 C 0.86294 0.6353 0.02395 0.0
C1741 C 0.86342 0.63568 0.0469 0.0
C1742 C 0.82388 0.67174 0.01312 0.0
C1743 C 0.87614 0.62228 0.01181 0.0
H1744 H 0.82731 0.62531 0.94561 0.0
H1745 H 0.8714 0.66696 0.94432 0.0
H1746 H 0.83261 0.61205 0.00014 0.0
H1747 H 0.81453 0.62959 -8e-05 0.0
H1748 H 0.81568 0.6125 0.97812 0.0
H1749 H 0.88265 0.68158 0.97604 0.0
H1750 H 0.86679 0.68163 0.99913 0.0
H1751 H 0.88523 0.66451 0.99768 0.0
H1752 H 0.82858 0.66748 0.05681 0.0
H1753 H 0.87332 0.62678 0.05564 0.0
H1754 H 0.81414 0.66341 0.00271 0.0
H1755 H 0.83168 0.68148 0.00216 0.0
H1756 H 0.8154 0.68022 0.0248 0.0
H1757 H 0.86793 0.61256 0.00123 0.0
H1758 H 0.88502 0.61376 0.02307 0.0
H1759 H 0.88554 0.63058 0.00095 0.0
C1760 C 0.35415 0.83383 0.04473 0.0
C1761 C 0.34954 0.85061 0.05567 0.0
C1762 C 0.35404 0.83289 0.02178 0.0
C1763 C 0.34921 0.84911 0.0095 0.0
C1764 C 0.34437 0.86603 0.02044 0.0
C1765 C 0.34459 0.86657 0.04339 0.0
C1766 C 0.35931 0.81461 0.01067 0.0
C1767 C 0.33908 0.8836 0.00789 0.0
C1768 C 0.36618 0.85311 0.95075 0.0
C1769 C 0.34984 0.84846 0.93898 0.0
C1770 C 0.36621 0.85321 0.97371 0.0
C1771 C 0.34951 0.84852 0.98517 0.0
C1772 C 0.33302 0.84363 0.97341 0.0
C1773 C 0.33338 0.84369 0.95044 0.0
C1774 C 0.38404 0.8586 0.98569 0.0
C1775 C 0.31498 0.83845 0.98508 0.0
H1776 H 0.35821 0.82152 0.05412 0.0
H1777 H 0.34074 0.87949 0.05175 0.0
H1778 H 0.34777 0.81001 0.99965 0.0
H1779 H 0.37203 0.81674 0.00039 0.0
H1780 H 0.36223 0.80315 0.02259 0.0
H1781 H 0.3355 0.89556 0.01888 0.0
H1782 H 0.35093 0.88793 0.99715 0.0
H1783 H 0.3268 0.88069 0.99716 0.0
H1784 H 0.37887 0.85705 0.94197 0.0
H1785 H 0.32079 0.83987 0.94141 0.0
H1786 H 0.38824 0.84714 0.99706 0.0
H1787 H 0.3815 0.87139 0.99573 0.0
H1788 H 0.39595 0.86146 0.97435 0.0
H1789 H 0.31749 0.82634 0.9962 0.0
H1790 H 0.30349 0.83468 0.97352 0.0
H1791 H 0.31019 0.85044 0.99534 0.0
C1792 C 0.13957 0.6639 0.54783 0.0
C1793 C 0.14639 0.6483 0.5595 0.0
C1794 C 0.13985 0.66417 0.52486 0.0
C1795 C 0.14718 0.64849 0.51331 0.0
C1796 C 0.1543 0.6328 0.52501 0.0
C1797 C 0.15378 0.63288 0.54797 0.0
C1798 C 0.13203 0.6811 0.51294 0.0
C1799 C 0.16237 0.61588 0.51328 0.0
C1800 C 0.13146 0.64067 0.45461 0.0
C1801 C 0.14681 0.64785 0.44275 0.0
C1802 C 0.13138 0.64086 0.47757 0.0
C1803 C 0.14707 0.64832 0.48898 0.0
C1804 C 0.16264 0.65554 0.47714 0.0
C1805 C 0.16231 0.65525 0.45417 0.0
C1806 C 0.11453 0.63301 0.48963 0.0
C1807 C 0.17962 0.6636 0.48875 0.0
H1808 H 0.13366 0.67576 0.55666 0.0
H1809 H 0.15931 0.6209 0.55694 0.0
H1810 H 0.14291 0.6871 0.50189 0.0
H1811 H 0.11994 0.67677 0.50257 0.0
H1812 H 0.12723 0.69232 0.52434 0.0
H1813 H 0.16766 0.60498 0.5248 0.0
H1814 H 0.15143 0.60942 0.50268 0.0
H1815 H 0.17414 0.62032 0.50248 0.0
H1816 H 0.11956 0.63467 0.44592 0.0
H1817 H 0.17411 0.66104 0.44512 0.0
H1818 H 0.10842 0.64398 0.50047 0.0
H1819 H 0.11897 0.6211 0.50022 0.0
H1820 H 0.10335 0.62794 0.47832 0.0
H1821 H 0.17529 0.67566 0.49917 0.0
H1822 H 0.19064 0.66851 0.47715 0.0
H1823 H 0.18588 0.65281 0.4997 0.0
C1824 C 0.36869 0.1558 0.54736 0.0
C1825 C 0.35256 0.15004 0.55883 0.0
C1826 C 0.36905 0.15583 0.5244 0.0
C1827 C 0.35291 0.14986 0.51264 0.0
C1828 C 0.33655 0.14414 0.52412 0.0
C1829 C 0.33655 0.14434 0.54709 0.0
C1830 C 0.38671 0.16216 0.51271 0.0
C1831 C 0.31912 0.13755 0.51215 0.0
C1832 C 0.34782 0.16428 0.45305 0.0
C1833 C 0.3541 0.14804 0.44217 0.0
C1834 C 0.3474 0.1651 0.476 0.0
C1835 C 0.35328 0.14925 0.48832 0.0
C1836 C 0.35954 0.13278 0.47743 0.0
C1837 C 0.35992 0.1324 0.45448 0.0
C1838 C 0.34078 0.18296 0.48706 0.0
C1839 C 0.36578 0.11555 0.49001 0.0
H1840 H 0.38102 0.16043 0.55638 0.0
H1841 H 0.32413 0.13966 0.55589 0.0
H1842 H 0.39233 0.15047 0.50256 0.0
H1843 H 0.38341 0.17401 0.50149 0.0
H1844 H 0.3979 0.16678 0.52426 0.0
H1845 H 0.30745 0.13386 0.5235 0.0
H1846 H 0.31413 0.14871 0.50082 0.0
H1847 H 0.32252 0.12499 0.50207 0.0
H1848 H 0.34351 0.17647 0.44359 0.0
H1849 H 0.36455 0.11973 0.44612 0.0
H1850 H 0.35211 0.1886 0.49774 0.0
H1851 H 0.32848 0.17987 0.49769 0.0
H1852 H 0.3367 0.19404 0.47511 0.0
H1853 H 0.37778 0.11918 0.50086 0.0
H1854 H 0.37016 0.10383 0.47906 0.0
H1855 H 0.35413 0.11051 0.50064 0.0
C1856 C 0.8406 0.3388 0.45067 0.0
C1857 C 0.85273 0.35122 0.4396 0.0
C1858 C 0.83983 0.33841 0.47363 0.0
C1859 C 0.85175 0.35045 0.48586 0.0
C1860 C 0.86409 0.36295 0.47487 0.0
C1861 C 0.86426 0.36334 0.45191 0.0
C1862 C 0.82629 0.32508 0.48479 0.0
C1863 C 0.87719 0.37584 0.48736 0.0
C1864 C 0.84009 0.36207 0.54503 0.0
C1865 C 0.85166 0.34935 0.55631 0.0
C1866 C 0.83969 0.36233 0.52206 0.0
C1867 C 0.85148 0.34987 0.51019 0.0
C1868 C 0.86327 0.33706 0.52156 0.0
C1869 C 0.86305 0.33682 0.54452 0.0
C1870 C 0.82665 0.3759 0.51051 0.0
C1871 C 0.87632 0.32384 0.50948 0.0
H1872 H 0.83184 0.32915 0.44141 0.0
H1873 H 0.8734 0.37329 0.44362 0.0
H1874 H 0.83424 0.31476 0.49485 0.0
H1875 H 0.81693 0.33303 0.49604 0.0
H1876 H 0.81741 0.31721 0.47292 0.0
H1877 H 0.88625 0.3844 0.47634 0.0
H1878 H 0.8689 0.38553 0.49787 0.0
H1879 H 0.8864 0.36741 0.49831 0.0
H1880 H 0.83118 0.37164 0.55422 0.0
H1881 H 0.87211 0.32711 0.55332 0.0
H1882 H 0.81716 0.36806 0.49929 0.0
H1883 H 0.83496 0.38585 0.50037 0.0
H1884 H 0.81789 0.38416 0.52215 0.0
H1885 H 0.8681 0.31461 0.49836 0.0
H1886 H 0.88464 0.31481 0.52078 0.0
H1887 H 0.88623 0.33208 0.49918 0.0
C1888 C 0.65807 0.83953 0.54653 0.0
C1889 C 0.64835 0.8536 0.55805 0.0
C1890 C 0.6581 0.8392 0.52356 0.0
C1891 C 0.64833 0.85341 0.51186 0.0
C1892 C 0.63864 0.86775 0.52342 0.0
C1893 C 0.63868 0.86761 0.54639 0.0
C1894 C 0.66841 0.82356 0.51181 0.0
C1895 C 0.62825 0.88325 0.51151 0.0
C1896 C 0.6621 0.86218 0.45264 0.0
C1897 C 0.64764 0.85286 0.44127 0.0
C1898 C 0.66246 0.86254 0.47561 0.0
C1899 C 0.64813 0.85318 0.48752 0.0
C1900 C 0.63357 0.84364 0.47619 0.0
C1901 C 0.63345 0.84368 0.45322 0.0
C1902 C 0.67818 0.87294 0.48713 0.0
C1903 C 0.61808 0.83343 0.48834 0.0
H1904 H 0.66538 0.82856 0.55551 0.0
H1905 H 0.63133 0.87862 0.55527 0.0
H1906 H 0.6584 0.81552 0.50142 0.0
H1907 H 0.67929 0.82958 0.50081 0.0
H1908 H 0.67535 0.81362 0.52332 0.0
H1909 H 0.62164 0.8935 0.52293 0.0
H1910 H 0.63811 0.89096 0.50062 0.0
H1911 H 0.61708 0.8771 0.501 0.0
H1912 H 0.67329 0.86907 0.44358 0.0
H1913 H 0.62205 0.8367 0.44462 0.0
H1914 H 0.68624 0.86304 0.49763 0.0
H1915 H 0.6722 0.88396 0.498 0.0
H1916 H 0.68809 0.87974 0.47547 0.0
H1917 H 0.62427 0.82267 0.4994 0.0
H1918 H 0.60802 0.82634 0.4771 0.0
H1919 H 0.61015 0.84352 0.49871 0.0
C1920 C 0.1778 0.53775 0.26657 0.0
C1921 C 0.16043 0.54479 0.274 0.0
C1922 C 0.17911 0.5198 0.25694 0.0
C1923 C 0.16272 0.50854 0.25497 0.0
C1924 C 0.14518 0.51552 0.26248 0.0
C1925 C 0.14423 0.53358 0.27172 0.0
C1926 C 0.19802 0.51288 0.24893 0.0
C1927 C 0.12739 0.50388 0.2608 0.0
C1928 C 0.15953 0.46824 0.21424 0.0
C1929 C 0.16238 0.4525 0.22778 0.0
C1930 C 0.16032 0.48662 0.22271 0.0
C1931 C 0.1638 0.48933 0.24531 0.0
C1932 C 0.16716 0.47357 0.25895 0.0
C1933 C 0.16656 0.45537 0.25 0.0
C1934 C 0.15686 0.50311 0.2076 0.0
C1935 C 0.1708 0.47588 0.28317 0.0
H1936 H 0.19043 0.54618 0.26846 0.0
H1937 H 0.13067 0.53901 0.27694 0.0
H1938 H 0.20208 0.4999 0.2579 0.0
H1939 H 0.19712 0.50913 0.23132 0.0
H1940 H 0.20931 0.52357 0.2511 0.0
H1941 H 0.11492 0.51128 0.26769 0.0
H1942 H 0.12447 0.50044 0.24341 0.0
H1943 H 0.12925 0.49034 0.26963 0.0
H1944 H 0.15609 0.4662 0.19712 0.0
H1945 H 0.16918 0.44334 0.2605 0.0
H1946 H 0.16831 0.51368 0.20932 0.0
H1947 H 0.14347 0.51018 0.21213 0.0
H1948 H 0.15598 0.49873 0.19017 0.0
H1949 H 0.18279 0.48564 0.2859 0.0
H1950 H 0.17397 0.46225 0.29133 0.0
H1951 H 0.15824 0.48222 0.29113 0.0
C1952 C 0.54141 0.17701 0.23988 0.0
C1953 C 0.54535 0.16448 0.2227 0.0
C1954 C 0.52331 0.17797 0.24912 0.0
C1955 C 0.50886 0.16611 0.24099 0.0
C1956 C 0.51258 0.15396 0.22312 0.0
C1957 C 0.53078 0.1533 0.2142 0.0
C1958 C 0.51985 0.19113 0.26813 0.0
C1959 C 0.49752 0.14117 0.2139 0.0
C1960 C 0.46915 0.15076 0.2785 0.0
C1961 C 0.45411 0.16189 0.27108 0.0
C1962 C 0.48713 0.15232 0.26916 0.0
C1963 C 0.49019 0.1654 0.25202 0.0
C1964 C 0.47523 0.17708 0.24486 0.0
C1965 C 0.45733 0.17517 0.25446 0.0
C1966 C 0.50276 0.13966 0.27731 0.0
C1967 C 0.47799 0.19121 0.22666 0.0
H1968 H 0.55266 0.18557 0.24663 0.0
H1969 H 0.53369 0.14382 0.20068 0.0
H1970 H 0.50723 0.19996 0.26499 0.0
H1971 H 0.517 0.18278 0.28313 0.0
H1972 H 0.53208 0.20053 0.2713 0.0
H1973 H 0.50239 0.13339 0.19917 0.0
H1974 H 0.4932 0.13075 0.2265 0.0
H1975 H 0.48482 0.14948 0.2095 0.0
H1976 H 0.46684 0.14073 0.29162 0.0
H1977 H 0.44574 0.1837 0.24852 0.0
H1978 H 0.51505 0.14824 0.28249 0.0
H1979 H 0.50757 0.1303 0.26387 0.0
H1980 H 0.49823 0.13074 0.29131 0.0
H1981 H 0.49012 0.20055 0.23039 0.0
H1982 H 0.46528 0.20008 0.22399 0.0
H1983 H 0.48131 0.18371 0.21119 0.0
C1984 C 0.83299 0.53158 0.21587 0.0
C1985 C 0.83456 0.54759 0.22923 0.0
C1986 C 0.83251 0.51342 0.22495 0.0
C1987 C 0.83362 0.51122 0.24794 0.0
C1988 C 0.83441 0.52735 0.26157 0.0
C1989 C 0.83489 0.54536 0.25204 0.0
C1990 C 0.83155 0.49657 0.20988 0.0
C1991 C 0.83559 0.52557 0.28616 0.0
C1992 C 0.82123 0.46337 0.27209 0.0
C1993 C 0.83913 0.45517 0.27439 0.0
C1994 C 0.81918 0.48172 0.26374 0.0
C1995 C 0.83541 0.49205 0.25757 0.0
C1996 C 0.85351 0.48394 0.26016 0.0
C1997 C 0.85514 0.46562 0.26856 0.0
C1998 C 0.79967 0.48993 0.26121 0.0
C1999 C 0.87117 0.49454 0.25386 0.0
H2000 H 0.83242 0.53325 0.19825 0.0
H2001 H 0.83629 0.55765 0.26246 0.0
H2002 H 0.84485 0.4884 0.21106 0.0
H2003 H 0.8199 0.48706 0.21488 0.0
H2004 H 0.82939 0.5007 0.19252 0.0
H2005 H 0.83444 0.53944 0.2945 0.0
H2006 H 0.82424 0.51621 0.29233 0.0
H2007 H 0.84924 0.51904 0.29076 0.0
H2008 H 0.80879 0.4553 0.27638 0.0
H2009 H 0.86902 0.45949 0.27066 0.0
H2010 H 0.79682 0.49287 0.24368 0.0
H2011 H 0.79868 0.50355 0.27007 0.0
H2012 H 0.78854 0.48032 0.26749 0.0
H2013 H 0.8708 0.49803 0.23616 0.0
H2014 H 0.88419 0.48633 0.25724 0.0
H2015 H 0.87194 0.50805 0.26298 0.0
C2016 C 0.54089 0.82745 0.25363 0.0
C2017 C 0.54326 0.83398 0.27515 0.0
C2018 C 0.52293 0.82655 0.24402 0.0
C2019 C 0.507 0.83252 0.25612 0.0
C2020 C 0.50921 0.83856 0.27805 0.0
C2021 C 0.52729 0.83911 0.28734 0.0
C2022 C 0.52111 0.81985 0.22065 0.0
C2023 C 0.49255 0.84509 0.29147 0.0
C2024 C 0.46483 0.85168 0.22513 0.0
C2025 C 0.45196 0.83671 0.22663 0.0
C2026 C 0.48282 0.8504 0.2345 0.0
C2027 C 0.4882 0.83366 0.24544 0.0
C2028 C 0.47548 0.81831 0.24659 0.0
C2029 C 0.45747 0.82005 0.23725 0.0
C2030 C 0.49599 0.8671 0.23296 0.0
C2031 C 0.4808 0.80017 0.25796 0.0
H2032 H 0.55313 0.82366 0.24398 0.0
H2033 H 0.52894 0.84382 0.30411 0.0
H2034 H 0.51009 0.80879 0.21942 0.0
H2035 H 0.51664 0.83175 0.21007 0.0
H2036 H 0.53457 0.81409 0.21418 0.0
H2037 H 0.49652 0.84847 0.30862 0.0
H2038 H 0.48631 0.85787 0.2839 0.0
H2039 H 0.48145 0.83407 0.2917 0.0
H2040 H 0.46085 0.86446 0.21657 0.0
H2041 H 0.44756 0.80848 0.23869 0.0
H2042 H 0.50931 0.86289 0.2248 0.0
H2043 H 0.49969 0.8721 0.24963 0.0
H2044 H 0.4897 0.87904 0.22372 0.0
H2045 H 0.4941 0.79452 0.25099 0.0
H2046 H 0.46966 0.78923 0.25647 0.0
H2047 H 0.48337 0.80291 0.27559 0.0
C2048 C 0.84753 0.54095 0.74772 0.0
C2049 C 0.83851 0.54462 0.76767 0.0
C2050 C 0.84719 0.52286 0.73846 0.0
C2051 C 0.83793 0.50804 0.74968 0.0
C2052 C 0.82852 0.51177 0.76967 0.0
C2053 C 0.82878 0.5301 0.77834 0.0
C2054 C 0.85707 0.51951 0.71691 0.0
C2055 C 0.81878 0.49628 0.7823 0.0
C2056 C 0.82619 0.46268 0.71943 0.0
C2057 C 0.84147 0.45111 0.72521 0.0
C2058 C 0.82489 0.48131 0.72712 0.0
C2059 C 0.83907 0.48844 0.74118 0.0
C2060 C 0.85447 0.47685 0.74714 0.0
C2061 C 0.85558 0.45843 0.73892 0.0
C2062 C 0.80838 0.49335 0.72021 0.0
C2063 C 0.86981 0.4839 0.76222 0.0
H2064 H 0.85489 0.55228 0.7394 0.0
H2065 H 0.82192 0.53296 0.79385 0.0
H2066 H 0.86918 0.50985 0.71938 0.0
H2067 H 0.84734 0.51261 0.70516 0.0
H2068 H 0.86237 0.53281 0.7095 0.0
H2069 H 0.81143 0.50168 0.79708 0.0
H2070 H 0.80835 0.489 0.77173 0.0
H2071 H 0.82929 0.48559 0.78749 0.0
H2072 H 0.8151 0.45713 0.70908 0.0
H2073 H 0.86766 0.4498 0.74312 0.0
H2074 H 0.81352 0.5064 0.71215 0.0
H2075 H 0.80017 0.49773 0.7348 0.0
H2076 H 0.7988 0.48585 0.70875 0.0
H2077 H 0.87699 0.49622 0.75476 0.0
H2078 H 0.88055 0.47292 0.76577 0.0
H2079 H 0.86357 0.48869 0.77793 0.0
C2080 C 0.53324 0.82869 0.71752 0.0
C2081 C 0.54703 0.83978 0.72779 0.0
C2082 C 0.51484 0.82761 0.72593 0.0
C2083 C 0.51012 0.83796 0.74497 0.0
C2084 C 0.52407 0.84884 0.75568 0.0
C2085 C 0.54237 0.84954 0.74703 0.0
C2086 C 0.50034 0.81577 0.71415 0.0
C2087 C 0.51958 0.8601 0.77602 0.0
C2088 C 0.45944 0.85304 0.75419 0.0
C2089 C 0.45357 0.84049 0.77059 0.0
C2090 C 0.4777 0.85214 0.74546 0.0
C2091 C 0.49038 0.83823 0.75316 0.0
C2092 C 0.48441 0.82517 0.76925 0.0
C2093 C 0.46608 0.82649 0.77783 0.0
C2094 C 0.48353 0.86634 0.72832 0.0
C2095 C 0.49752 0.81007 0.77775 0.0
H2096 H 0.53667 0.82123 0.70256 0.0
H2097 H 0.55304 0.85782 0.75532 0.0
H2098 H 0.49356 0.80581 0.72573 0.0
H2099 H 0.48908 0.82499 0.7075 0.0
H2100 H 0.50658 0.80759 0.70044 0.0
H2101 H 0.53219 0.86734 0.78278 0.0
H2102 H 0.50873 0.87088 0.7722 0.0
H2103 H 0.51364 0.85074 0.78883 0.0
H2104 H 0.44973 0.86364 0.74817 0.0
H2105 H 0.46171 0.81683 0.79061 0.0
H2106 H 0.48858 0.85898 0.71341 0.0
H2107 H 0.49542 0.87498 0.73456 0.0
H2108 H 0.47182 0.87593 0.72367 0.0
H2109 H 0.50334 0.80176 0.76393 0.0
H2110 H 0.49036 0.8003 0.78928 0.0
H2111 H 0.50961 0.81671 0.78631 0.0
C2112 C 0.17544 0.46592 0.77511 0.0
C2113 C 0.15864 0.45567 0.7726 0.0
C2114 C 0.17696 0.48454 0.76747 0.0
C2115 C 0.1614 0.49302 0.75683 0.0
C2116 C 0.14447 0.48272 0.75407 0.0
C2117 C 0.14325 0.46427 0.76215 0.0
C2118 C 0.19517 0.49518 0.7709 0.0
C2119 C 0.12759 0.49124 0.74267 0.0
C2120 C 0.15562 0.5461 0.75363 0.0
C2121 C 0.16139 0.54978 0.73212 0.0
C2122 C 0.15633 0.52778 0.76221 0.0
C2123 C 0.16259 0.51276 0.74877 0.0
C2124 C 0.16883 0.51649 0.72717 0.0
C2125 C 0.16832 0.53504 0.71916 0.0
C2126 C 0.1499 0.52441 0.78545 0.0
C2127 C 0.17529 0.50081 0.71223 0.0
H2128 H 0.18749 0.45935 0.7829 0.0
H2129 H 0.13007 0.45666 0.76051 0.0
H2130 H 0.2011 0.49956 0.75488 0.0
H2131 H 0.19244 0.50822 0.78043 0.0
H2132 H 0.20589 0.48664 0.77969 0.0
H2133 H 0.11572 0.4811 0.74114 0.0
H2134 H 0.12258 0.50375 0.75188 0.0
H2135 H 0.13162 0.49611 0.72605 0.0
H2136 H 0.15041 0.55759 0.76367 0.0
H2137 H 0.17265 0.53792 0.70247 0.0
H2138 H 0.16081 0.51645 0.79463 0.0
H2139 H 0.1369 0.51572 0.78542 0.0
H2140 H 0.14694 0.53778 0.79427 0.0
H2141 H 0.18657 0.49245 0.72021 0.0
H2142 H 0.18066 0.5062 0.69634 0.0
H2143 H 0.16336 0.49108 0.70897 0.0
C2144 C 0.46686 0.16321 0.71676 0.0
C2145 C 0.45136 0.16364 0.73104 0.0
C2146 C 0.48539 0.16381 0.72479 0.0
C2147 C 0.4885 0.16472 0.74766 0.0
C2148 C 0.47294 0.16572 0.76212 0.0
C2149 C 0.45457 0.16523 0.75364 0.0
C2150 C 0.50163 0.16281 0.70885 0.0
C2151 C 0.4757 0.1667 0.78661 0.0
C2152 C 0.53432 0.14435 0.76919 0.0
C2153 C 0.54499 0.16065 0.77311 0.0
C2154 C 0.5159 0.14552 0.761 0.0
C2155 C 0.50798 0.16343 0.7565 0.0
C2156 C 0.51865 0.17996 0.76045 0.0
C2157 C 0.53703 0.17837 0.76881 0.0
C2158 C 0.50489 0.12758 0.75722 0.0
C2159 C 0.51072 0.19928 0.75567 0.0
H2160 H 0.46454 0.16176 0.69931 0.0
H2161 H 0.44267 0.16591 0.76475 0.0
H2162 H 0.51173 0.17445 0.71198 0.0
H2163 H 0.50938 0.14937 0.71117 0.0
H2164 H 0.49686 0.16364 0.69155 0.0
H2165 H 0.46216 0.16838 0.79555 0.0
H2166 H 0.48268 0.15362 0.79242 0.0
H2167 H 0.48507 0.17867 0.79088 0.0
H2168 H 0.54033 0.13064 0.77279 0.0
H2169 H 0.54531 0.19099 0.77167 0.0
H2170 H 0.50077 0.1265 0.73974 0.0
H2171 H 0.49171 0.12781 0.767 0.0
H2172 H 0.51307 0.11478 0.7617 0.0
H2173 H 0.50697 0.20036 0.73808 0.0
H2174 H 0.52082 0.21073 0.75973 0.0
H2175 H 0.49758 0.20152 0.76517 0.0
C2176 C 0.67917 0.03534 0.77247 0.0
C2177 C 0.66231 0.04555 0.77072 0.0
C2178 C 0.68076 0.01717 0.7635 0.0
C2179 C 0.66519 0.00918 0.75234 0.0
C2180 C 0.64831 0.01966 0.75004 0.0
C2181 C 0.64706 0.03768 0.75934 0.0
C2182 C 0.69891 0.00634 0.76643 0.0
C2183 C 0.63146 0.01173 0.73804 0.0
C2184 C 0.67121 0.96751 0.71387 0.0
C2185 C 0.66426 0.95268 0.72672 0.0
C2186 C 0.6721 0.98596 0.72218 0.0
C2187 C 0.66608 0.98955 0.74389 0.0
C2188 C 0.65972 0.97447 0.75716 0.0
C2189 C 0.65879 0.95624 0.74837 0.0
C2190 C 0.67881 0.0017 0.70748 0.0
C2191 C 0.65338 0.97769 0.78047 0.0
H2192 H 0.69094 0.04138 0.78136 0.0
H2193 H 0.63411 0.04568 0.75767 0.0
H2194 H 0.69624 0.99352 0.77638 0.0
H2195 H 0.70434 0.00158 0.75032 0.0
H2196 H 0.70998 0.01487 0.77465 0.0
H2197 H 0.61973 0.02206 0.73679 0.0
H2198 H 0.63559 0.00732 0.72129 0.0
H2199 H 0.6262 0.999 0.74667 0.0
H2200 H 0.67533 0.96479 0.69707 0.0
H2201 H 0.65366 0.94473 0.75842 0.0
H2202 H 0.69016 0.00985 0.71563 0.0
H2203 H 0.66701 0.0116 0.70428 0.0
H2204 H 0.68418 0.99639 0.69154 0.0
H2205 H 0.66448 0.98525 0.78979 0.0
H2206 H 0.65009 0.96428 0.78907 0.0
H2207 H 0.64059 0.98669 0.78061 0.0
C2208 C 0.96322 0.64425 0.7689 0.0
C2209 C 0.9521 0.66026 0.77277 0.0
C2210 C 0.98133 0.64584 0.75991 0.0
C2211 C 0.98853 0.6639 0.75465 0.0
C2212 C 0.97733 0.68013 0.75831 0.0
C2213 C 0.95921 0.67811 0.7673 0.0
C2214 C 0.99279 0.62818 0.75612 0.0
C2215 C 0.98458 0.6996 0.75295 0.0
C2216 C 0.04186 0.66668 0.75142 0.0
C2217 C 0.04498 0.66497 0.72884 0.0
C2218 C 0.02351 0.66707 0.75998 0.0
C2219 C 0.00792 0.66565 0.74561 0.0
C2220 C 0.01096 0.66457 0.72274 0.0
C2221 C 0.02947 0.66426 0.71462 0.0
C2222 C 0.02084 0.66836 0.78446 0.0
C2223 C 0.99468 0.66298 0.70691 0.0
H2224 H 0.95767 0.63039 0.77272 0.0
H2225 H 0.95071 0.69053 0.77041 0.0
H2226 H 0.99676 0.6271 0.7386 0.0
H2227 H 0.00605 0.62884 0.76571 0.0
H2228 H 0.98502 0.6152 0.76083 0.0
H2229 H 0.97398 0.71075 0.75638 0.0
H2230 H 0.99745 0.70259 0.76268 0.0
H2231 H 0.98861 0.70038 0.73543 0.0
H2232 H 0.05381 0.66751 0.76244 0.0
H2233 H 0.0318 0.66276 0.69717 0.0
H2234 H 0.01441 0.65512 0.79062 0.0
H2235 H 0.01103 0.68003 0.78853 0.0
H2236 H 0.03435 0.67072 0.79324 0.0
H2237 H 0.98728 0.64937 0.7095 0.0
H2238 H 0.99936 0.66371 0.68958 0.0
H2239 H 0.9843 0.67439 0.70991 0.0
C2240 C 0.31852 0.03804 0.72958 0.0
C2241 C 0.33601 0.04722 0.72842 0.0
C2242 C 0.31706 0.01971 0.73812 0.0
C2243 C 0.33349 0.01037 0.74557 0.0
C2244 C 0.35119 0.01953 0.74428 0.0
C2245 C 0.35223 0.03784 0.73574 0.0
C2246 C 0.29795 0.01039 0.73932 0.0
C2247 C 0.36906 0.00998 0.7519 0.0
C2248 C 0.33077 0.97003 0.78626 0.0
C2249 C 0.33362 0.95435 0.77267 0.0
C2250 C 0.33006 0.98833 0.77756 0.0
C2251 C 0.33232 0.99099 0.75474 0.0
C2252 C 0.33461 0.97517 0.74086 0.0
C2253 C 0.33522 0.95703 0.75 0.0
C2254 C 0.32747 0.00485 0.79286 0.0
C2255 C 0.33712 0.97745 0.71645 0.0
H2256 H 0.30593 0.04531 0.72411 0.0
H2257 H 0.36582 0.04477 0.73454 0.0
H2258 H 0.2981 0.99698 0.72996 0.0
H2259 H 0.29456 0.00682 0.75656 0.0
H2260 H 0.28656 0.01952 0.73272 0.0
H2261 H 0.38171 0.01903 0.7497 0.0
H2262 H 0.36785 0.00623 0.76948 0.0
H2263 H 0.37122 0.99667 0.7427 0.0
H2264 H 0.32928 0.968 0.80376 0.0
H2265 H 0.33765 0.94499 0.73944 0.0
H2266 H 0.31558 0.0138 0.78726 0.0
H2267 H 0.34033 0.01376 0.79271 0.0
H2268 H 0.32469 0.00032 0.80996 0.0
H2269 H 0.32551 0.98608 0.70955 0.0
H2270 H 0.33747 0.96368 0.70779 0.0
H2271 H 0.3505 0.98503 0.71308 0.0
C2272 C 0.04325 0.33229 0.75038 0.0
C2273 C 0.04553 0.3308 0.7731 0.0
C2274 C 0.02527 0.33148 0.74083 0.0
C2275 C 0.00925 0.32894 0.75434 0.0
C2276 C 0.01156 0.32662 0.7772 0.0
C2277 C 0.02968 0.32771 0.78634 0.0
C2278 C 0.02336 0.33422 0.71641 0.0
C2279 C 0.99484 0.32361 0.7921 0.0
C2280 C 0.9624 0.34874 0.73523 0.0
C2281 C 0.95334 0.3326 0.72722 0.0
C2282 C 0.98067 0.34774 0.74389 0.0
C2283 C 0.99001 0.33011 0.7448 0.0
C2284 C 0.98094 0.31374 0.73671 0.0
C2285 C 0.96272 0.31521 0.72785 0.0
C2286 C 0.98998 0.36556 0.75205 0.0
C2287 C 0.99038 0.29468 0.73764 0.0
H2288 H 0.05546 0.33488 0.74014 0.0
H2289 H 0.03146 0.32637 0.8039 0.0
H2290 H 0.01491 0.32264 0.70916 0.0
H2291 H 0.01576 0.34759 0.71308 0.0
H2292 H 0.03726 0.33474 0.70805 0.0
H2293 H 0.99917 0.32046 0.8092 0.0
H2294 H 0.98591 0.33645 0.79221 0.0
H2295 H 0.98601 0.31183 0.78597 0.0
H2296 H 0.95525 0.36224 0.73446 0.0
H2297 H 0.95565 0.30271 0.72176 0.0
H2298 H 0.00349 0.36786 0.74329 0.0
H2299 H 0.99332 0.36418 0.76972 0.0
H2300 H 0.98093 0.37819 0.74974 0.0
H2301 H 0.00392 0.29508 0.72855 0.0
H2302 H 0.98142 0.28334 0.73063 0.0
H2303 H 0.99373 0.29105 0.75488 0.0
C2304 C 0.33326 0.02961 0.28695 0.0
C2305 C 0.3361 0.045 0.27288 0.0
C2306 C 0.3322 0.01114 0.27878 0.0
C2307 C 0.33431 0.00795 0.25605 0.0
C2308 C 0.33679 0.02342 0.2417 0.0
C2309 C 0.3375 0.04176 0.25027 0.0
C2310 C 0.32934 0.99499 0.29455 0.0
C2311 C 0.33921 0.02057 0.21736 0.0
C2312 C 0.35293 0.96032 0.23787 0.0
C2313 C 0.33654 0.95156 0.23007 0.0
C2314 C 0.35237 0.97867 0.24636 0.0
C2315 C 0.33495 0.98838 0.24737 0.0
C2316 C 0.31829 0.9795 0.23978 0.0
C2317 C 0.31932 0.96122 0.23102 0.0
C2318 C 0.37048 0.98778 0.25395 0.0
C2319 C 0.29943 0.98931 0.24093 0.0
H2320 H 0.33239 0.0319 0.30446 0.0
H2321 H 0.33931 0.05357 0.23922 0.0
H2322 H 0.31743 0.98601 0.28909 0.0
H2323 H 0.34213 0.986 0.29486 0.0
H2324 H 0.32645 -5e-05 0.31148 0.0
H2325 H 0.34044 0.03413 0.20837 0.0
H2326 H 0.35208 0.0121 0.21421 0.0
H2327 H 0.32708 0.01258 0.21063 0.0
H2328 H 0.36628 0.95293 0.23688 0.0
H2329 H 0.30663 0.95438 0.22512 0.0
H2330 H 0.3693 0.99185 0.27143 0.0
H2331 H 0.3731 0.00087 0.24447 0.0
H2332 H 0.38285 0.9783 0.25203 0.0
H2333 H 0.29635 0.99348 0.25807 0.0
H2334 H 0.28774 0.98026 0.23489 0.0
H2335 H 0.29977 0.00241 0.23102 0.0
C2336 C 0.96892 0.34637 0.27818 0.0
C2337 C 0.95368 0.33644 0.26919 0.0
C2338 C 0.98704 0.34489 0.26918 0.0
C2339 C 0.98998 0.33327 0.25065 0.0
C2340 C 0.97474 0.3229 0.24175 0.0
C2341 C 0.95676 0.32456 0.25119 0.0
C2342 C 0.00297 0.35604 0.27928 0.0
C2343 C 0.97733 0.31046 0.22192 0.0
C2344 C 0.0321 0.3466 0.21567 0.0
C2345 C 0.04581 0.33378 0.2229 0.0
C2346 C 0.01369 0.34616 0.22404 0.0
C2347 C 0.00889 0.33266 0.24016 0.0
C2348 C 0.02248 0.31934 0.24711 0.0
C2349 C 0.04077 0.32002 0.23836 0.0
C2350 C 0.99955 0.36057 0.21615 0.0
C2351 C 0.01787 0.30472 0.26427 0.0
H2352 H 0.96663 0.35535 0.2923 0.0
H2353 H 0.94498 0.31698 0.24408 0.0
H2354 H 0.01476 0.34649 0.28369 0.0
H2355 H 0.00849 0.36637 0.26724 0.0
H2356 H 0.99848 0.36381 0.29419 0.0
H2357 H 0.96429 0.30259 0.21768 0.0
H2358 H 0.98149 0.3192 0.20765 0.0
H2359 H 0.98886 0.30019 0.22481 0.0
H2360 H 0.0359 0.35745 0.20399 0.0
H2361 H 0.0512 0.30988 0.24378 0.0
H2362 H 0.99569 0.37012 0.22983 0.0
H2363 H 0.98644 0.35348 0.21065 0.0
H2364 H 0.00511 0.36924 0.20245 0.0
H2365 H 0.01458 0.31181 0.28001 0.0
H2366 H 0.02969 0.29471 0.267 0.0
H2367 H 0.00518 0.2966 0.25941 0.0
C2368 C 0.64315 0.96448 0.26748 0.0
C2369 C 0.65931 0.95429 0.27342 0.0
C2370 C 0.6445 0.98292 0.25937 0.0
C2371 C 0.66244 0.99145 0.25725 0.0
C2372 C 0.67882 0.98133 0.26335 0.0
C2373 C 0.67706 0.96285 0.27136 0.0
C2374 C 0.62669 0.99327 0.25309 0.0
C2375 C 0.69819 0.99 0.26133 0.0
C2376 C 0.66508 0.03271 0.21779 0.0
C2377 C 0.66313 0.04811 0.232 0.0
C2378 C 0.66546 0.01418 0.22584 0.0
C2379 C 0.66393 0.01101 0.24865 0.0
C2380 C 0.66262 0.02653 0.26314 0.0
C2381 C 0.6622 0.0449 0.25463 0.0
C2382 C 0.6668 0.99798 0.20988 0.0
C2383 C 0.6611 0.02372 0.28758 0.0
H2384 H 0.62936 0.9581 0.26939 0.0
H2385 H 0.68962 0.95499 0.27572 0.0
H2386 H 0.62532 0.00633 0.26296 0.0
H2387 H 0.62736 0.99757 0.23564 0.0
H2388 H 0.61384 0.98456 0.25555 0.0
H2389 H 0.70949 0.98034 0.26705 0.0
H2390 H 0.701 0.99379 0.24402 0.0
H2391 H 0.6989 0.00321 0.27102 0.0
H2392 H 0.66562 0.0351 0.20027 0.0
H2393 H 0.66097 0.05678 0.2657 0.0
H2394 H 0.65356 0.98965 0.21033 0.0
H2395 H 0.67846 0.98837 0.21459 0.0
H2396 H 0.66919 0.00285 0.19281 0.0
H2397 H 0.64772 0.01633 0.2915 0.0
H2398 H 0.66141 0.03728 0.29668 0.0
H2399 H 0.67281 0.0147 0.29351 0.0
C2400 C 0.0312 0.66211 0.28686 0.0
C2401 C 0.04666 0.6671 0.27382 0.0
C2402 C 0.01285 0.66227 0.2783 0.0
C2403 C 0.00992 0.66787 0.2563 0.0
C2404 C 0.02542 0.6738 0.24341 0.0
C2405 C 0.04366 0.67314 0.25227 0.0
C2406 C 0.99672 0.65556 0.29244 0.0
C2407 C 0.02282 0.68024 0.22005 0.0
C2408 C 0.96773 0.64782 0.2261 0.0
C2409 C 0.95459 0.66256 0.2277 0.0
C2410 C 0.9857 0.64935 0.23548 0.0
C2411 C 0.99089 0.66621 0.24631 0.0
C2412 C 0.9779 0.68131 0.24763 0.0
C2413 C 0.95984 0.67924 0.2385 0.0
C2414 C 0.99911 0.63285 0.2339 0.0
C2415 C 0.98306 0.69961 0.25877 0.0
H2416 H 0.03358 0.65727 0.30347 0.0
H2417 H 0.05564 0.67712 0.24226 0.0
H2418 H 0.98525 0.66618 0.29264 0.0
H2419 H 0.99077 0.64238 0.28549 0.0
H2420 H 0.00119 0.65276 0.30956 0.0
H2421 H 0.03602 0.68607 0.21296 0.0
H2422 H 0.01818 0.66819 0.2098 0.0
H2423 H 0.01165 0.69117 0.21913 0.0
H2424 H 0.96402 0.63503 0.2174 0.0
H2425 H 0.94976 0.69063 0.24014 0.0
H2426 H 0.00353 0.62838 0.25053 0.0
H2427 H 0.01202 0.63709 0.2249 0.0
H2428 H 0.99272 0.62056 0.22541 0.0
H2429 H 0.98617 0.69701 0.2763 0.0
H2430 H 0.97162 0.71027 0.25763 0.0
H2431 H 0.99602 0.70556 0.25129 0.0
loop_
_geom_bond_atom_site_label_1
_geom_bond_atom_site_label_2
_geom_bond_distance
_geom_bond_site_symmetry_2
_ccdc_geom_bond_type
Li0 N17 1.990 . S
Li0 O60 1.956 . S
Li0 O61 1.970 . S
Li0 O62 1.961 . S
Li1 N25 1.990 . S
Li1 O60 1.970 . S
Li1 O61 1.956 . S
Li1 O63 1.961 . S
Li2 N47 1.990 . S
Li2 O60 1.961 . S
Li2 O62 1.956 . S
Li2 O63 1.970 . S
Li3 N53 1.990 . S
Li3 O61 1.961 . S
Li3 O62 1.970 . S
Li3 O63 1.956 . S
C4 C6 1.348 . S
C4 C7 1.356 . S
C4 O60 1.325 . S
N5 C8 1.314 . S
N5 C9 1.279 . S
C6 C4 1.348 . S
C6 C8 1.353 . S
C6 H64 0.929 . S
C7 C4 1.356 . S
C7 C9 1.358 . S
C7 H65 0.930 . S
C8 N5 1.314 . S
C8 C6 1.353 . S
C8 H66 0.930 . S
C9 N5 1.279 . S
C9 C7 1.358 . S
C9 H67 0.930 . S
C10 C13 1.348 . S
C10 C14 1.356 . S
C10 O61 1.325 . S
C11 N12 1.279 . S
C11 C14 1.358 . S
C11 H68 0.930 . S
N12 C11 1.279 . S
N12 C15 1.314 . S
C13 C10 1.348 . S
C13 C15 1.353 . S
C13 H69 0.929 . S
C14 C10 1.356 . S
C14 C11 1.358 . S
C14 H70 0.930 . S
C15 N12 1.314 . S
C15 C13 1.353 . S
C15 H71 0.930 . S
C16 N17 1.314 . S
C16 C21 1.353 . S
C16 H22 0.930 . S
N17 Li0 1.990 . S
N17 C16 1.314 . S
N17 C19 1.279 . S
C18 C19 1.358 . S
C18 C20 1.356 . S
C18 H72 0.930 . S
C19 N17 1.279 . S
C19 C18 1.358 . S
C19 H23 0.930 . S
C20 C18 1.356 . S
C20 C21 1.348 . S
C21 C16 1.353 . S
C21 C20 1.348 . S
C21 H73 0.929 . S
H22 C16 0.930 . S
H23 C19 0.930 . S
C24 N25 1.314 . S
C24 C26 1.353 . S
C24 H30 0.930 . S
N25 Li1 1.990 . S
N25 C24 1.314 . S
N25 C28 1.279 . S
C26 C24 1.353 . S
C26 C29 1.348 . S
C26 H74 0.929 . S
C27 C28 1.358 . S
C27 C29 1.356 . S
C27 H75 0.930 . S
C28 N25 1.279 . S
C28 C27 1.358 . S
C28 H31 0.930 . S
C29 C26 1.348 . S
C29 C27 1.356 . S
H30 C24 0.930 . S
H31 C28 0.930 . S
C32 C34 1.348 . S
C32 C35 1.356 . S
C32 O62 1.325 . S
N33 C36 1.314 . S
N33 C37 1.279 . S
C34 C32 1.348 . S
C34 C36 1.353 . S
C34 H76 0.929 . S
C35 C32 1.356 . S
C35 C37 1.358 . S
C35 H77 0.930 . S
C36 N33 1.314 . S
C36 C34 1.353 . S
C36 H78 0.930 . S
C37 N33 1.279 . S
C37 C35 1.358 . S
C37 H79 0.930 . S
C38 C39 1.348 . S
C38 C40 1.356 . S
C38 O63 1.325 . S
C39 C38 1.348 . S
C39 C41 1.353 . S
C39 H80 0.929 . S
C40 C38 1.356 . S
C40 C42 1.358 . S
C40 H81 0.930 . S
C41 C39 1.353 . S
C41 N43 1.314 . S
C41 H82 0.930 . S
C42 C40 1.358 . S
C42 N43 1.279 . S
C42 H83 0.930 . S
N43 C41 1.314 . S
N43 C42 1.279 . S
C44 C46 1.353 . S
C44 N47 1.314 . S
C44 H50 0.930 . S
C45 N47 1.279 . S
C45 C48 1.358 . S
C45 H51 0.930 . S
C46 C44 1.353 . S
C46 C49 1.348 . S
C46 H84 0.929 . S
N47 Li2 1.990 . S
N47 C44 1.314 . S
N47 C45 1.279 . S
C48 C45 1.358 . S
C48 C49 1.356 . S
C48 H85 0.930 . S
C49 C46 1.348 . S
C49 C48 1.356 . S
H50 C44 0.930 . S
H51 C45 0.930 . S
C52 N53 1.314 . S
C52 C54 1.353 . S
C52 H58 0.930 . S
N53 Li3 1.990 . S
N53 C52 1.314 . S
N53 C56 1.279 . S
C54 C52 1.353 . S
C54 C57 1.348 . S
C54 H86 0.929 . S
C55 C56 1.358 . S
C55 C57 1.356 . S
C55 H87 0.930 . S
C56 N53 1.279 . S
C56 C55 1.358 . S
C56 H59 0.930 . S
C57 C54 1.348 . S
C57 C55 1.356 . S
H58 C52 0.930 . S
H59 C56 0.930 . S
O60 Li0 1.956 . S
O60 Li1 1.970 . S
O60 Li2 1.961 . S
O60 C4 1.325 . S
O61 Li0 1.970 . S
O61 Li1 1.956 . S
O61 Li3 1.961 . S
O61 C10 1.325 . S
O62 Li0 1.961 . S
O62 Li2 1.956 . S
O62 Li3 1.970 . S
O62 C32 1.325 . S
O63 Li1 1.961 . S
O63 Li2 1.970 . S
O63 Li3 1.956 . S
O63 C38 1.325 . S
H64 C6 0.929 . S
H65 C7 0.930 . S
H66 C8 0.930 . S
H67 C9 0.930 . S
H68 C11 0.930 . S
H69 C13 0.929 . S
H70 C14 0.930 . S
H71 C15 0.930 . S
H72 C18 0.930 . S
H73 C21 0.929 . S
H74 C26 0.929 . S
H75 C27 0.930 . S
H76 C34 0.929 . S
H77 C35 0.930 . S
H78 C36 0.930 . S
H79 C37 0.930 . S
H80 C39 0.929 . S
H81 C40 0.930 . S
H82 C41 0.930 . S
H83 C42 0.930 . S
H84 C46 0.929 . S
H85 C48 0.930 . S
H86 C54 0.929 . S
H87 C55 0.930 . S
Li88 N105 1.990 . S
Li88 O148 1.956 . S
Li88 O149 1.970 . S
Li88 O150 1.961 . S
Li89 N113 1.990 . S
Li89 O148 1.970 . S
Li89 O149 1.956 . S
Li89 O151 1.961 . S
Li90 N135 1.990 . S
Li90 O148 1.961 . S
Li90 O150 1.956 . S
Li90 O151 1.970 . S
Li91 N141 1.990 . S
Li91 O149 1.961 . S
Li91 O150 1.970 . S
Li91 O151 1.956 . S
C92 C94 1.348 . S
C92 C95 1.356 . S
C92 O148 1.325 . S
N93 C96 1.314 . S
N93 C97 1.279 . S
C94 C92 1.348 . S
C94 C96 1.353 . S
C94 H152 0.929 . S
C95 C92 1.356 . S
C95 C97 1.358 . S
C95 H153 0.930 . S
C96 N93 1.314 . S
C96 C94 1.353 . S
C96 H154 0.930 . S
C97 N93 1.279 . S
C97 C95 1.358 . S
C97 H155 0.930 . S
C98 C101 1.348 . S
C98 C102 1.356 . S
C98 O149 1.325 . S
C99 N100 1.279 . S
C99 C102 1.358 . S
C99 H156 0.930 . S
N100 C99 1.279 . S
N100 C103 1.314 . S
C101 C98 1.348 . S
C101 C103 1.353 . S
C101 H157 0.929 . S
C102 C98 1.356 . S
C102 C99 1.358 . S
C102 H158 0.930 . S
C103 N100 1.314 . S
C103 C101 1.353 . S
C103 H159 0.930 . S
C104 N105 1.314 . S
C104 C109 1.353 . S
C104 H110 0.930 . S
N105 Li88 1.990 . S
N105 C104 1.314 . S
N105 C107 1.279 . S
C106 C107 1.358 . S
C106 C108 1.356 . S
C106 H160 0.930 . S
C107 N105 1.279 . S
C107 C106 1.358 . S
C107 H111 0.930 . S
C108 C106 1.356 . S
C108 C109 1.348 . S
C109 C104 1.353 . S
C109 C108 1.348 . S
C109 H161 0.929 . S
H110 C104 0.930 . S
H111 C107 0.930 . S
C112 N113 1.314 . S
C112 C114 1.353 . S
C112 H118 0.930 . S
N113 Li89 1.990 . S
N113 C112 1.314 . S
N113 C116 1.279 . S
C114 C112 1.353 . S
C114 C117 1.348 . S
C114 H162 0.929 . S
C115 C116 1.358 . S
C115 C117 1.356 . S
C115 H163 0.930 . S
C116 N113 1.279 . S
C116 C115 1.358 . S
C116 H119 0.930 . S
C117 C114 1.348 . S
C117 C115 1.356 . S
H118 C112 0.930 . S
H119 C116 0.930 . S
C120 C122 1.348 . S
C120 C123 1.356 . S
C120 O150 1.325 . S
N121 C124 1.314 . S
N121 C125 1.279 . S
C122 C120 1.348 . S
C122 C124 1.353 . S
C122 H164 0.929 . S
C123 C120 1.356 . S
C123 C125 1.358 . S
C123 H165 0.930 . S
C124 N121 1.314 . S
C124 C122 1.353 . S
C124 H166 0.930 . S
C125 N121 1.279 . S
C125 C123 1.358 . S
C125 H167 0.930 . S
C126 C127 1.348 . S
C126 C128 1.356 . S
C126 O151 1.325 . S
C127 C126 1.348 . S
C127 C129 1.353 . S
C127 H168 0.929 . S
C128 C126 1.356 . S
C128 C130 1.358 . S
C128 H169 0.930 . S
C129 C127 1.353 . S
C129 N131 1.314 . S
C129 H170 0.930 . S
C130 C128 1.358 . S
C130 N131 1.279 . S
C130 H171 0.930 . S
N131 C129 1.314 . S
N131 C130 1.279 . S
C132 C134 1.353 . S
C132 N135 1.314 . S
C132 H138 0.930 . S
C133 N135 1.279 . S
C133 C136 1.358 . S
C133 H139 0.930 . S
C134 C132 1.353 . S
C134 C137 1.348 . S
C134 H172 0.929 . S
N135 Li90 1.990 . S
N135 C132 1.314 . S
N135 C133 1.279 . S
C136 C133 1.358 . S
C136 C137 1.356 . S
C136 H173 0.930 . S
C137 C134 1.348 . S
C137 C136 1.356 . S
H138 C132 0.930 . S
H139 C133 0.930 . S
C140 N141 1.314 . S
C140 C142 1.353 . S
C140 H146 0.930 . S
N141 Li91 1.990 . S
N141 C140 1.314 . S
N141 C144 1.279 . S
C142 C140 1.353 . S
C142 C145 1.348 . S
C142 H174 0.929 . S
C143 C144 1.358 . S
C143 C145 1.356 . S
C143 H175 0.930 . S
C144 N141 1.279 . S
C144 C143 1.358 . S
C144 H147 0.930 . S
C145 C142 1.348 . S
C145 C143 1.356 . S
H146 C140 0.930 . S
H147 C144 0.930 . S
O148 Li88 1.956 . S
O148 Li89 1.970 . S
O148 Li90 1.961 . S
O148 C92 1.325 . S
O149 Li88 1.970 . S
O149 Li89 1.956 . S
O149 Li91 1.961 . S
O149 C98 1.325 . S
O150 Li88 1.961 . S
O150 Li90 1.956 . S
O150 Li91 1.970 . S
O150 C120 1.325 . S
O151 Li89 1.961 . S
O151 Li90 1.970 . S
O151 Li91 1.956 . S
O151 C126 1.325 . S
H152 C94 0.929 . S
H153 C95 0.930 . S
H154 C96 0.930 . S
H155 C97 0.930 . S
H156 C99 0.930 . S
H157 C101 0.929 . S
H158 C102 0.930 . S
H159 C103 0.930 . S
H160 C106 0.930 . S
H161 C109 0.929 . S
H162 C114 0.929 . S
H163 C115 0.930 . S
H164 C122 0.929 . S
H165 C123 0.930 . S
H166 C124 0.930 . S
H167 C125 0.930 . S
H168 C127 0.929 . S
H169 C128 0.930 . S
H170 C129 0.930 . S
H171 C130 0.930 . S
H172 C134 0.929 . S
H173 C136 0.930 . S
H174 C142 0.929 . S
H175 C143 0.930 . S
Li176 N193 1.990 . S
Li176 O236 1.956 . S
Li176 O237 1.970 . S
Li176 O238 1.961 . S
Li177 N201 1.990 . S
Li177 O236 1.970 . S
Li177 O237 1.956 . S
Li177 O239 1.961 . S
Li178 N223 1.990 . S
Li178 O236 1.961 . S
Li178 O238 1.956 . S
Li178 O239 1.970 . S
Li179 N229 1.990 . S
Li179 O237 1.961 . S
Li179 O238 1.970 . S
Li179 O239 1.956 . S
C180 C182 1.348 . S
C180 C183 1.356 . S
C180 O236 1.325 . S
N181 C184 1.314 . S
N181 C185 1.279 . S
C182 C180 1.348 . S
C182 C184 1.353 . S
C182 H240 0.929 . S
C183 C180 1.356 . S
C183 C185 1.358 . S
C183 H241 0.930 . S
C184 N181 1.314 . S
C184 C182 1.353 . S
C184 H242 0.930 . S
C185 N181 1.279 . S
C185 C183 1.358 . S
C185 H243 0.930 . S
C186 C189 1.348 . S
C186 C190 1.356 . S
C186 O237 1.325 . S
C187 N188 1.279 . S
C187 C190 1.358 . S
C187 H244 0.930 . S
N188 C187 1.279 . S
N188 C191 1.314 . S
C189 C186 1.348 . S
C189 C191 1.353 . S
C189 H245 0.929 . S
C190 C186 1.356 . S
C190 C187 1.358 . S
C190 H246 0.930 . S
C191 N188 1.314 . S
C191 C189 1.353 . S
C191 H247 0.930 . S
C192 N193 1.314 . S
C192 C197 1.353 . S
C192 H198 0.930 . S
N193 Li176 1.990 . S
N193 C192 1.314 . S
N193 C195 1.279 . S
C194 C195 1.358 . S
C194 C196 1.356 . S
C194 H248 0.930 . S
C195 N193 1.279 . S
C195 C194 1.358 . S
C195 H199 0.930 . S
C196 C194 1.356 . S
C196 C197 1.348 . S
C197 C192 1.353 . S
C197 C196 1.348 . S
C197 H249 0.929 . S
H198 C192 0.930 . S
H199 C195 0.930 . S
C200 N201 1.314 . S
C200 C202 1.353 . S
C200 H206 0.930 . S
N201 Li177 1.990 . S
N201 C200 1.314 . S
N201 C204 1.279 . S
C202 C200 1.353 . S
C202 C205 1.348 . S
C202 H250 0.929 . S
C203 C204 1.358 . S
C203 C205 1.356 . S
C203 H251 0.930 . S
C204 N201 1.279 . S
C204 C203 1.358 . S
C204 H207 0.930 . S
C205 C202 1.348 . S
C205 C203 1.356 . S
H206 C200 0.930 . S
H207 C204 0.930 . S
C208 C210 1.348 . S
C208 C211 1.356 . S
C208 O238 1.325 . S
N209 C212 1.314 . S
N209 C213 1.279 . S
C210 C208 1.348 . S
C210 C212 1.353 . S
C210 H252 0.929 . S
C211 C208 1.356 . S
C211 C213 1.358 . S
C211 H253 0.930 . S
C212 N209 1.314 . S
C212 C210 1.353 . S
C212 H254 0.930 . S
C213 N209 1.279 . S
C213 C211 1.358 . S
C213 H255 0.930 . S
C214 C215 1.348 . S
C214 C216 1.356 . S
C214 O239 1.325 . S
C215 C214 1.348 . S
C215 C217 1.353 . S
C215 H256 0.929 . S
C216 C214 1.356 . S
C216 C218 1.358 . S
C216 H257 0.930 . S
C217 C215 1.353 . S
C217 N219 1.314 . S
C217 H258 0.930 . S
C218 C216 1.358 . S
C218 N219 1.279 . S
C218 H259 0.930 . S
N219 C217 1.314 . S
N219 C218 1.279 . S
C220 C222 1.353 . S
C220 N223 1.314 . S
C220 H226 0.930 . S
C221 N223 1.279 . S
C221 C224 1.358 . S
C221 H227 0.930 . S
C222 C220 1.353 . S
C222 C225 1.348 . S
C222 H260 0.929 . S
N223 Li178 1.990 . S
N223 C220 1.314 . S
N223 C221 1.279 . S
C224 C221 1.358 . S
C224 C225 1.356 . S
C224 H261 0.930 . S
C225 C222 1.348 . S
C225 C224 1.356 . S
H226 C220 0.930 . S
H227 C221 0.930 . S
C228 N229 1.314 . S
C228 C230 1.353 . S
C228 H234 0.930 . S
N229 Li179 1.990 . S
N229 C228 1.314 . S
N229 C232 1.279 . S
C230 C228 1.353 . S
C230 C233 1.348 . S
C230 H262 0.929 . S
C231 C232 1.358 . S
C231 C233 1.356 . S
C231 H263 0.930 . S
C232 N229 1.279 . S
C232 C231 1.358 . S
C232 H235 0.930 . S
C233 C230 1.348 . S
C233 C231 1.356 . S
H234 C228 0.930 . S
H235 C232 0.930 . S
O236 Li176 1.956 . S
O236 Li177 1.970 . S
O236 Li178 1.961 . S
O236 C180 1.325 . S
O237 Li176 1.970 . S
O237 Li177 1.956 . S
O237 Li179 1.961 . S
O237 C186 1.325 . S
O238 Li176 1.961 . S
O238 Li178 1.956 . S
O238 Li179 1.970 . S
O238 C208 1.325 . S
O239 Li177 1.961 . S
O239 Li178 1.970 . S
O239 Li179 1.956 . S
O239 C214 1.325 . S
H240 C182 0.929 . S
H241 C183 0.930 . S
H242 C184 0.930 . S
H243 C185 0.930 . S
H244 C187 0.930 . S
H245 C189 0.929 . S
H246 C190 0.930 . S
H247 C191 0.930 . S
H248 C194 0.930 . S
H249 C197 0.929 . S
H250 C202 0.929 . S
H251 C203 0.930 . S
H252 C210 0.929 . S
H253 C211 0.930 . S
H254 C212 0.930 . S
H255 C213 0.930 . S
H256 C215 0.929 . S
H257 C216 0.930 . S
H258 C217 0.930 . S
H259 C218 0.930 . S
H260 C222 0.929 . S
H261 C224 0.930 . S
H262 C230 0.929 . S
H263 C231 0.930 . S
Li264 N281 1.990 . S
Li264 O324 1.956 . S
Li264 O325 1.970 . S
Li264 O326 1.961 . S
Li265 N289 1.990 . S
Li265 O324 1.970 . S
Li265 O325 1.956 . S
Li265 O327 1.961 . S
Li266 N311 1.990 . S
Li266 O324 1.961 . S
Li266 O326 1.956 . S
Li266 O327 1.970 . S
Li267 N317 1.990 . S
Li267 O325 1.961 . S
Li267 O326 1.970 . S
Li267 O327 1.956 . S
C268 C270 1.348 . S
C268 C271 1.356 . S
C268 O324 1.325 . S
N269 C272 1.314 . S
N269 C273 1.279 . S
C270 C268 1.348 . S
C270 C272 1.353 . S
C270 H328 0.929 . S
C271 C268 1.356 . S
C271 C273 1.358 . S
C271 H329 0.930 . S
C272 N269 1.314 . S
C272 C270 1.353 . S
C272 H330 0.930 . S
C273 N269 1.279 . S
C273 C271 1.358 . S
C273 H331 0.930 . S
C274 C277 1.348 . S
C274 C278 1.356 . S
C274 O325 1.325 . S
C275 N276 1.279 . S
C275 C278 1.358 . S
C275 H332 0.930 . S
N276 C275 1.279 . S
N276 C279 1.314 . S
C277 C274 1.348 . S
C277 C279 1.353 . S
C277 H333 0.929 . S
C278 C274 1.356 . S
C278 C275 1.358 . S
C278 H334 0.930 . S
C279 N276 1.314 . S
C279 C277 1.353 . S
C279 H335 0.930 . S
C280 N281 1.314 . S
C280 C285 1.353 . S
C280 H286 0.930 . S
N281 Li264 1.990 . S
N281 C280 1.314 . S
N281 C283 1.279 . S
C282 C283 1.358 . S
C282 C284 1.356 . S
C282 H336 0.930 . S
C283 N281 1.279 . S
C283 C282 1.358 . S
C283 H287 0.930 . S
C284 C282 1.356 . S
C284 C285 1.348 . S
C285 C280 1.353 . S
C285 C284 1.348 . S
C285 H337 0.929 . S
H286 C280 0.930 . S
H287 C283 0.930 . S
C288 N289 1.314 . S
C288 C290 1.353 . S
C288 H294 0.930 . S
N289 Li265 1.990 . S
N289 C288 1.314 . S
N289 C292 1.279 . S
C290 C288 1.353 . S
C290 C293 1.348 . S
C290 H338 0.929 . S
C291 C292 1.358 . S
C291 C293 1.356 . S
C291 H339 0.930 . S
C292 N289 1.279 . S
C292 C291 1.358 . S
C292 H295 0.930 . S
C293 C290 1.348 . S
C293 C291 1.356 . S
H294 C288 0.930 . S
H295 C292 0.930 . S
C296 C298 1.348 . S
C296 C299 1.356 . S
C296 O326 1.325 . S
N297 C300 1.314 . S
N297 C301 1.279 . S
C298 C296 1.348 . S
C298 C300 1.353 . S
C298 H340 0.929 . S
C299 C296 1.356 . S
C299 C301 1.358 . S
C299 H341 0.930 . S
C300 N297 1.314 . S
C300 C298 1.353 . S
C300 H342 0.930 . S
C301 N297 1.279 . S
C301 C299 1.358 . S
C301 H343 0.930 . S
C302 C303 1.348 . S
C302 C304 1.356 . S
C302 O327 1.325 . S
C303 C302 1.348 . S
C303 C305 1.353 . S
C303 H344 0.929 . S
C304 C302 1.356 . S
C304 C306 1.358 . S
C304 H345 0.930 . S
C305 C303 1.353 . S
C305 N307 1.314 . S
C305 H346 0.930 . S
C306 C304 1.358 . S
C306 N307 1.279 . S
C306 H347 0.930 . S
N307 C305 1.314 . S
N307 C306 1.279 . S
C308 C310 1.353 . S
C308 N311 1.314 . S
C308 H314 0.930 . S
C309 N311 1.279 . S
C309 C312 1.358 . S
C309 H315 0.930 . S
C310 C308 1.353 . S
C310 C313 1.348 . S
C310 H348 0.929 . S
N311 Li266 1.990 . S
N311 C308 1.314 . S
N311 C309 1.279 . S
C312 C309 1.358 . S
C312 C313 1.356 . S
C312 H349 0.930 . S
C313 C310 1.348 . S
C313 C312 1.356 . S
H314 C308 0.930 . S
H315 C309 0.930 . S
C316 N317 1.314 . S
C316 C318 1.353 . S
C316 H322 0.930 . S
N317 Li267 1.990 . S
N317 C316 1.314 . S
N317 C320 1.279 . S
C318 C316 1.353 . S
C318 C321 1.348 . S
C318 H350 0.929 . S
C319 C320 1.358 . S
C319 C321 1.356 . S
C319 H351 0.930 . S
C320 N317 1.279 . S
C320 C319 1.358 . S
C320 H323 0.930 . S
C321 C318 1.348 . S
C321 C319 1.356 . S
H322 C316 0.930 . S
H323 C320 0.930 . S
O324 Li264 1.956 . S
O324 Li265 1.970 . S
O324 Li266 1.961 . S
O324 C268 1.325 . S
O325 Li264 1.970 . S
O325 Li265 1.956 . S
O325 Li267 1.961 . S
O325 C274 1.325 . S
O326 Li264 1.961 . S
O326 Li266 1.956 . S
O326 Li267 1.970 . S
O326 C296 1.325 . S
O327 Li265 1.961 . S
O327 Li266 1.970 . S
O327 Li267 1.956 . S
O327 C302 1.325 . S
H328 C270 0.929 . S
H329 C271 0.930 . S
H330 C272 0.930 . S
H331 C273 0.930 . S
H332 C275 0.930 . S
H333 C277 0.929 . S
H334 C278 0.930 . S
H335 C279 0.930 . S
H336 C282 0.930 . S
H337 C285 0.929 . S
H338 C290 0.929 . S
H339 C291 0.930 . S
H340 C298 0.929 . S
H341 C299 0.930 . S
H342 C300 0.930 . S
H343 C301 0.930 . S
H344 C303 0.929 . S
H345 C304 0.930 . S
H346 C305 0.930 . S
H347 C306 0.930 . S
H348 C310 0.929 . S
H349 C312 0.930 . S
H350 C318 0.929 . S
H351 C319 0.930 . S
Li352 N369 1.990 . S
Li352 O412 1.956 . S
Li352 O413 1.970 . S
Li352 O414 1.961 . S
Li353 N377 1.990 . S
Li353 O412 1.970 . S
Li353 O413 1.956 . S
Li353 O415 1.961 . S
Li354 N399 1.990 . S
Li354 O412 1.961 . S
Li354 O414 1.956 . S
Li354 O415 1.970 . S
Li355 N405 1.990 . S
Li355 O413 1.961 . S
Li355 O414 1.970 . S
Li355 O415 1.956 . S
C356 C358 1.348 . S
C356 C359 1.356 . S
C356 O412 1.325 . S
N357 C360 1.314 . S
N357 C361 1.279 . S
C358 C356 1.348 . S
C358 C360 1.353 . S
C358 H416 0.929 . S
C359 C356 1.356 . S
C359 C361 1.358 . S
C359 H417 0.930 . S
C360 N357 1.314 . S
C360 C358 1.353 . S
C360 H418 0.930 . S
C361 N357 1.279 . S
C361 C359 1.358 . S
C361 H419 0.930 . S
C362 C365 1.348 . S
C362 C366 1.356 . S
C362 O413 1.325 . S
C363 N364 1.279 . S
C363 C366 1.358 . S
C363 H420 0.930 . S
N364 C363 1.279 . S
N364 C367 1.314 . S
C365 C362 1.348 . S
C365 C367 1.353 . S
C365 H421 0.929 . S
C366 C362 1.356 . S
C366 C363 1.358 . S
C366 H422 0.930 . S
C367 N364 1.314 . S
C367 C365 1.353 . S
C367 H423 0.930 . S
C368 N369 1.314 . S
C368 C373 1.353 . S
C368 H374 0.930 . S
N369 Li352 1.990 . S
N369 C368 1.314 . S
N369 C371 1.279 . S
C370 C371 1.358 . S
C370 C372 1.356 . S
C370 H424 0.930 . S
C371 N369 1.279 . S
C371 C370 1.358 . S
C371 H375 0.930 . S
C372 C370 1.356 . S
C372 C373 1.348 . S
C373 C368 1.353 . S
C373 C372 1.348 . S
C373 H425 0.929 . S
H374 C368 0.930 . S
H375 C371 0.930 . S
C376 N377 1.314 . S
C376 C378 1.353 . S
C376 H382 0.930 . S
N377 Li353 1.990 . S
N377 C376 1.314 . S
N377 C380 1.279 . S
C378 C376 1.353 . S
C378 C381 1.348 . S
C378 H426 0.929 . S
C379 C380 1.358 . S
C379 C381 1.356 . S
C379 H427 0.930 . S
C380 N377 1.279 . S
C380 C379 1.358 . S
C380 H383 0.930 . S
C381 C378 1.348 . S
C381 C379 1.356 . S
H382 C376 0.930 . S
H383 C380 0.930 . S
C384 C386 1.348 . S
C384 C387 1.356 . S
C384 O414 1.325 . S
N385 C388 1.314 . S
N385 C389 1.279 . S
C386 C384 1.348 . S
C386 C388 1.353 . S
C386 H428 0.929 . S
C387 C384 1.356 . S
C387 C389 1.358 . S
C387 H429 0.930 . S
C388 N385 1.314 . S
C388 C386 1.353 . S
C388 H430 0.930 . S
C389 N385 1.279 . S
C389 C387 1.358 . S
C389 H431 0.930 . S
C390 C391 1.348 . S
C390 C392 1.356 . S
C390 O415 1.325 . S
C391 C390 1.348 . S
C391 C393 1.353 . S
C391 H432 0.929 . S
C392 C390 1.356 . S
C392 C394 1.358 . S
C392 H433 0.930 . S
C393 C391 1.353 . S
C393 N395 1.314 . S
C393 H434 0.930 . S
C394 C392 1.358 . S
C394 N395 1.279 . S
C394 H435 0.930 . S
N395 C393 1.314 . S
N395 C394 1.279 . S
C396 C398 1.353 . S
C396 N399 1.314 . S
C396 H402 0.930 . S
C397 N399 1.279 . S
C397 C400 1.358 . S
C397 H403 0.930 . S
C398 C396 1.353 . S
C398 C401 1.348 . S
C398 H436 0.929 . S
N399 Li354 1.990 . S
N399 C396 1.314 . S
N399 C397 1.279 . S
C400 C397 1.358 . S
C400 C401 1.356 . S
C400 H437 0.930 . S
C401 C398 1.348 . S
C401 C400 1.356 . S
H402 C396 0.930 . S
H403 C397 0.930 . S
C404 N405 1.314 . S
C404 C406 1.353 . S
C404 H410 0.930 . S
N405 Li355 1.990 . S
N405 C404 1.314 . S
N405 C408 1.279 . S
C406 C404 1.353 . S
C406 C409 1.348 . S
C406 H438 0.929 . S
C407 C408 1.358 . S
C407 C409 1.356 . S
C407 H439 0.930 . S
C408 N405 1.279 . S
C408 C407 1.358 . S
C408 H411 0.930 . S
C409 C406 1.348 . S
C409 C407 1.356 . S
H410 C404 0.930 . S
H411 C408 0.930 . S
O412 Li352 1.956 . S
O412 Li353 1.970 . S
O412 Li354 1.961 . S
O412 C356 1.325 . S
O413 Li352 1.970 . S
O413 Li353 1.956 . S
O413 Li355 1.961 . S
O413 C362 1.325 . S
O414 Li352 1.961 . S
O414 Li354 1.956 . S
O414 Li355 1.970 . S
O414 C384 1.325 . S
O415 Li353 1.961 . S
O415 Li354 1.970 . S
O415 Li355 1.956 . S
O415 C390 1.325 . S
H416 C358 0.929 . S
H417 C359 0.930 . S
H418 C360 0.930 . S
H419 C361 0.930 . S
H420 C363 0.930 . S
H421 C365 0.929 . S
H422 C366 0.930 . S
H423 C367 0.930 . S
H424 C370 0.930 . S
H425 C373 0.929 . S
H426 C378 0.929 . S
H427 C379 0.930 . S
H428 C386 0.929 . S
H429 C387 0.930 . S
H430 C388 0.930 . S
H431 C389 0.930 . S
H432 C391 0.929 . S
H433 C392 0.930 . S
H434 C393 0.930 . S
H435 C394 0.930 . S
H436 C398 0.929 . S
H437 C400 0.930 . S
H438 C406 0.929 . S
H439 C407 0.930 . S
Li440 N457 1.990 . S
Li440 O500 1.956 . S
Li440 O501 1.970 . S
Li440 O502 1.961 . S
Li441 N465 1.990 . S
Li441 O500 1.970 . S
Li441 O501 1.956 . S
Li441 O503 1.961 . S
Li442 N487 1.990 . S
Li442 O500 1.961 . S
Li442 O502 1.956 . S
Li442 O503 1.970 . S
Li443 N493 1.990 . S
Li443 O501 1.961 . S
Li443 O502 1.970 . S
Li443 O503 1.956 . S
C444 C446 1.348 . S
C444 C447 1.356 . S
C444 O500 1.325 . S
N445 C448 1.314 . S
N445 C449 1.279 . S
C446 C444 1.348 . S
C446 C448 1.353 . S
C446 H504 0.929 . S
C447 C444 1.356 . S
C447 C449 1.358 . S
C447 H505 0.930 . S
C448 N445 1.314 . S
C448 C446 1.353 . S
C448 H506 0.930 . S
C449 N445 1.279 . S
C449 C447 1.358 . S
C449 H507 0.930 . S
C450 C453 1.348 . S
C450 C454 1.356 . S
C450 O501 1.325 . S
C451 N452 1.279 . S
C451 C454 1.358 . S
C451 H508 0.930 . S
N452 C451 1.279 . S
N452 C455 1.314 . S
C453 C450 1.348 . S
C453 C455 1.353 . S
C453 H509 0.929 . S
C454 C450 1.356 . S
C454 C451 1.358 . S
C454 H510 0.930 . S
C455 N452 1.314 . S
C455 C453 1.353 . S
C455 H511 0.930 . S
C456 N457 1.314 . S
C456 C461 1.353 . S
C456 H462 0.930 . S
N457 Li440 1.990 . S
N457 C456 1.314 . S
N457 C459 1.279 . S
C458 C459 1.358 . S
C458 C460 1.356 . S
C458 H512 0.930 . S
C459 N457 1.279 . S
C459 C458 1.358 . S
C459 H463 0.930 . S
C460 C458 1.356 . S
C460 C461 1.348 . S
C461 C456 1.353 . S
C461 C460 1.348 . S
C461 H513 0.929 . S
H462 C456 0.930 . S
H463 C459 0.930 . S
C464 N465 1.314 . S
C464 C466 1.353 . S
C464 H470 0.930 . S
N465 Li441 1.990 . S
N465 C464 1.314 . S
N465 C468 1.279 . S
C466 C464 1.353 . S
C466 C469 1.348 . S
C466 H514 0.929 . S
C467 C468 1.358 . S
C467 C469 1.356 . S
C467 H515 0.930 . S
C468 N465 1.279 . S
C468 C467 1.358 . S
C468 H471 0.930 . S
C469 C466 1.348 . S
C469 C467 1.356 . S
H470 C464 0.930 . S
H471 C468 0.930 . S
C472 C474 1.348 . S
C472 C475 1.356 . S
C472 O502 1.325 . S
N473 C476 1.314 . S
N473 C477 1.279 . S
C474 C472 1.348 . S
C474 C476 1.353 . S
C474 H516 0.929 . S
C475 C472 1.356 . S
C475 C477 1.358 . S
C475 H517 0.930 . S
C476 N473 1.314 . S
C476 C474 1.353 . S
C476 H518 0.930 . S
C477 N473 1.279 . S
C477 C475 1.358 . S
C477 H519 0.930 . S
C478 C479 1.348 . S
C478 C480 1.356 . S
C478 O503 1.325 . S
C479 C478 1.348 . S
C479 C481 1.353 . S
C479 H520 0.929 . S
C480 C478 1.356 . S
C480 C482 1.358 . S
C480 H521 0.930 . S
C481 C479 1.353 . S
C481 N483 1.314 . S
C481 H522 0.930 . S
C482 C480 1.358 . S
C482 N483 1.279 . S
C482 H523 0.930 . S
N483 C481 1.314 . S
N483 C482 1.279 . S
C484 C486 1.353 . S
C484 N487 1.314 . S
C484 H490 0.930 . S
C485 N487 1.279 . S
C485 C488 1.358 . S
C485 H491 0.930 . S
C486 C484 1.353 . S
C486 C489 1.348 . S
C486 H524 0.929 . S
N487 Li442 1.990 . S
N487 C484 1.314 . S
N487 C485 1.279 . S
C488 C485 1.358 . S
C488 C489 1.356 . S
C488 H525 0.930 . S
C489 C486 1.348 . S
C489 C488 1.356 . S
H490 C484 0.930 . S
H491 C485 0.930 . S
C492 N493 1.314 . S
C492 C494 1.353 . S
C492 H498 0.930 . S
N493 Li443 1.990 . S
N493 C492 1.314 . S
N493 C496 1.279 . S
C494 C492 1.353 . S
C494 C497 1.348 . S
C494 H526 0.929 . S
C495 C496 1.358 . S
C495 C497 1.356 . S
C495 H527 0.930 . S
C496 N493 1.279 . S
C496 C495 1.358 . S
C496 H499 0.930 . S
C497 C494 1.348 . S
C497 C495 1.356 . S
H498 C492 0.930 . S
H499 C496 0.930 . S
O500 Li440 1.956 . S
O500 Li441 1.970 . S
O500 Li442 1.961 . S
O500 C444 1.325 . S
O501 Li440 1.970 . S
O501 Li441 1.956 . S
O501 Li443 1.961 . S
O501 C450 1.325 . S
O502 Li440 1.961 . S
O502 Li442 1.956 . S
O502 Li443 1.970 . S
O502 C472 1.325 . S
O503 Li441 1.961 . S
O503 Li442 1.970 . S
O503 Li443 1.956 . S
O503 C478 1.325 . S
H504 C446 0.929 . S
H505 C447 0.930 . S
H506 C448 0.930 . S
H507 C449 0.930 . S
H508 C451 0.930 . S
H509 C453 0.929 . S
H510 C454 0.930 . S
H511 C455 0.930 . S
H512 C458 0.930 . S
H513 C461 0.929 . S
H514 C466 0.929 . S
H515 C467 0.930 . S
H516 C474 0.929 . S
H517 C475 0.930 . S
H518 C476 0.930 . S
H519 C477 0.930 . S
H520 C479 0.929 . S
H521 C480 0.930 . S
H522 C481 0.930 . S
H523 C482 0.930 . S
H524 C486 0.929 . S
H525 C488 0.930 . S
H526 C494 0.929 . S
H527 C495 0.930 . S
Li528 N545 1.990 . S
Li528 O588 1.956 . S
Li528 O589 1.970 . S
Li528 O590 1.961 . S
Li529 N553 1.990 . S
Li529 O588 1.970 . S
Li529 O589 1.956 . S
Li529 O591 1.961 . S
Li530 N575 1.990 . S
Li530 O588 1.961 . S
Li530 O590 1.956 . S
Li530 O591 1.970 . S
Li531 N581 1.990 . S
Li531 O589 1.961 . S
Li531 O590 1.970 . S
Li531 O591 1.956 . S
C532 C534 1.348 . S
C532 C535 1.356 . S
C532 O588 1.325 . S
N533 C536 1.314 . S
N533 C537 1.279 . S
C534 C532 1.348 . S
C534 C536 1.353 . S
C534 H592 0.929 . S
C535 C532 1.356 . S
C535 C537 1.358 . S
C535 H593 0.930 . S
C536 N533 1.314 . S
C536 C534 1.353 . S
C536 H594 0.930 . S
C537 N533 1.279 . S
C537 C535 1.358 . S
C537 H595 0.930 . S
C538 C541 1.348 . S
C538 C542 1.356 . S
C538 O589 1.325 . S
C539 N540 1.279 . S
C539 C542 1.358 . S
C539 H596 0.930 . S
N540 C539 1.279 . S
N540 C543 1.314 . S
C541 C538 1.348 . S
C541 C543 1.353 . S
C541 H597 0.929 . S
C542 C538 1.356 . S
C542 C539 1.358 . S
C542 H598 0.930 . S
C543 N540 1.314 . S
C543 C541 1.353 . S
C543 H599 0.930 . S
C544 N545 1.314 . S
C544 C549 1.353 . S
C544 H550 0.930 . S
N545 Li528 1.990 . S
N545 C544 1.314 . S
N545 C547 1.279 . S
C546 C547 1.358 . S
C546 C548 1.356 . S
C546 H600 0.930 . S
C547 N545 1.279 . S
C547 C546 1.358 . S
C547 H551 0.930 . S
C548 C546 1.356 . S
C548 C549 1.348 . S
C549 C544 1.353 . S
C549 C548 1.348 . S
C549 H601 0.929 . S
H550 C544 0.930 . S
H551 C547 0.930 . S
C552 N553 1.314 . S
C552 C554 1.353 . S
C552 H558 0.930 . S
N553 Li529 1.990 . S
N553 C552 1.314 . S
N553 C556 1.279 . S
C554 C552 1.353 . S
C554 C557 1.348 . S
C554 H602 0.929 . S
C555 C556 1.358 . S
C555 C557 1.356 . S
C555 H603 0.930 . S
C556 N553 1.279 . S
C556 C555 1.358 . S
C556 H559 0.930 . S
C557 C554 1.348 . S
C557 C555 1.356 . S
H558 C552 0.930 . S
H559 C556 0.930 . S
C560 C562 1.348 . S
C560 C563 1.356 . S
C560 O590 1.325 . S
N561 C564 1.314 . S
N561 C565 1.279 . S
C562 C560 1.348 . S
C562 C564 1.353 . S
C562 H604 0.929 . S
C563 C560 1.356 . S
C563 C565 1.358 . S
C563 H605 0.930 . S
C564 N561 1.314 . S
C564 C562 1.353 . S
C564 H606 0.930 . S
C565 N561 1.279 . S
C565 C563 1.358 . S
C565 H607 0.930 . S
C566 C567 1.348 . S
C566 C568 1.356 . S
C566 O591 1.325 . S
C567 C566 1.348 . S
C567 C569 1.353 . S
C567 H608 0.929 . S
C568 C566 1.356 . S
C568 C570 1.358 . S
C568 H609 0.930 . S
C569 C567 1.353 . S
C569 N571 1.314 . S
C569 H610 0.930 . S
C570 C568 1.358 . S
C570 N571 1.279 . S
C570 H611 0.930 . S
N571 C569 1.314 . S
N571 C570 1.279 . S
C572 C574 1.353 . S
C572 N575 1.314 . S
C572 H578 0.930 . S
C573 N575 1.279 . S
C573 C576 1.358 . S
C573 H579 0.930 . S
C574 C572 1.353 . S
C574 C577 1.348 . S
C574 H612 0.929 . S
N575 Li530 1.990 . S
N575 C572 1.314 . S
N575 C573 1.279 . S
C576 C573 1.358 . S
C576 C577 1.356 . S
C576 H613 0.930 . S
C577 C574 1.348 . S
C577 C576 1.356 . S
H578 C572 0.930 . S
H579 C573 0.930 . S
C580 N581 1.314 . S
C580 C582 1.353 . S
C580 H586 0.930 . S
N581 Li531 1.990 . S
N581 C580 1.314 . S
N581 C584 1.279 . S
C582 C580 1.353 . S
C582 C585 1.348 . S
C582 H614 0.929 . S
C583 C584 1.358 . S
C583 C585 1.356 . S
C583 H615 0.930 . S
C584 N581 1.279 . S
C584 C583 1.358 . S
C584 H587 0.930 . S
C585 C582 1.348 . S
C585 C583 1.356 . S
H586 C580 0.930 . S
H587 C584 0.930 . S
O588 Li528 1.956 . S
O588 Li529 1.970 . S
O588 Li530 1.961 . S
O588 C532 1.325 . S
O589 Li528 1.970 . S
O589 Li529 1.956 . S
O589 Li531 1.961 . S
O589 C538 1.325 . S
O590 Li528 1.961 . S
O590 Li530 1.956 . S
O590 Li531 1.970 . S
O590 C560 1.325 . S
O591 Li529 1.961 . S
O591 Li530 1.970 . S
O591 Li531 1.956 . S
O591 C566 1.325 . S
H592 C534 0.929 . S
H593 C535 0.930 . S
H594 C536 0.930 . S
H595 C537 0.930 . S
H596 C539 0.930 . S
H597 C541 0.929 . S
H598 C542 0.930 . S
H599 C543 0.930 . S
H600 C546 0.930 . S
H601 C549 0.929 . S
H602 C554 0.929 . S
H603 C555 0.930 . S
H604 C562 0.929 . S
H605 C563 0.930 . S
H606 C564 0.930 . S
H607 C565 0.930 . S
H608 C567 0.929 . S
H609 C568 0.930 . S
H610 C569 0.930 . S
H611 C570 0.930 . S
H612 C574 0.929 . S
H613 C576 0.930 . S
H614 C582 0.929 . S
H615 C583 0.930 . S
Li616 N633 1.990 . S
Li616 O676 1.956 . S
Li616 O677 1.970 . S
Li616 O678 1.961 . S
Li617 N641 1.990 . S
Li617 O676 1.970 . S
Li617 O677 1.956 . S
Li617 O679 1.961 . S
Li618 N663 1.990 . S
Li618 O676 1.961 . S
Li618 O678 1.956 . S
Li618 O679 1.970 . S
Li619 N669 1.990 . S
Li619 O677 1.961 . S
Li619 O678 1.970 . S
Li619 O679 1.956 . S
C620 C622 1.348 . S
C620 C623 1.356 . S
C620 O676 1.325 . S
N621 C624 1.314 . S
N621 C625 1.279 . S
C622 C620 1.348 . S
C622 C624 1.353 . S
C622 H680 0.929 . S
C623 C620 1.356 . S
C623 C625 1.358 . S
C623 H681 0.930 . S
C624 N621 1.314 . S
C624 C622 1.353 . S
C624 H682 0.930 . S
C625 N621 1.279 . S
C625 C623 1.358 . S
C625 H683 0.930 . S
C626 C629 1.348 . S
C626 C630 1.356 . S
C626 O677 1.325 . S
C627 N628 1.279 . S
C627 C630 1.358 . S
C627 H684 0.930 . S
N628 C627 1.279 . S
N628 C631 1.314 . S
C629 C626 1.348 . S
C629 C631 1.353 . S
C629 H685 0.929 . S
C630 C626 1.356 . S
C630 C627 1.358 . S
C630 H686 0.930 . S
C631 N628 1.314 . S
C631 C629 1.353 . S
C631 H687 0.930 . S
C632 N633 1.314 . S
C632 C637 1.353 . S
C632 H638 0.930 . S
N633 Li616 1.990 . S
N633 C632 1.314 . S
N633 C635 1.279 . S
C634 C635 1.358 . S
C634 C636 1.356 . S
C634 H688 0.930 . S
C635 N633 1.279 . S
C635 C634 1.358 . S
C635 H639 0.930 . S
C636 C634 1.356 . S
C636 C637 1.348 . S
C637 C632 1.353 . S
C637 C636 1.348 . S
C637 H689 0.929 . S
H638 C632 0.930 . S
H639 C635 0.930 . S
C640 N641 1.314 . S
C640 C642 1.353 . S
C640 H646 0.930 . S
N641 Li617 1.990 . S
N641 C640 1.314 . S
N641 C644 1.279 . S
C642 C640 1.353 . S
C642 C645 1.348 . S
C642 H690 0.929 . S
C643 C644 1.358 . S
C643 C645 1.356 . S
C643 H691 0.930 . S
C644 N641 1.279 . S
C644 C643 1.358 . S
C644 H647 0.930 . S
C645 C642 1.348 . S
C645 C643 1.356 . S
H646 C640 0.930 . S
H647 C644 0.930 . S
C648 C650 1.348 . S
C648 C651 1.356 . S
C648 O678 1.325 . S
N649 C652 1.314 . S
N649 C653 1.279 . S
C650 C648 1.348 . S
C650 C652 1.353 . S
C650 H692 0.929 . S
C651 C648 1.356 . S
C651 C653 1.358 . S
C651 H693 0.930 . S
C652 N649 1.314 . S
C652 C650 1.353 . S
C652 H694 0.930 . S
C653 N649 1.279 . S
C653 C651 1.358 . S
C653 H695 0.930 . S
C654 C655 1.348 . S
C654 C656 1.356 . S
C654 O679 1.325 . S
C655 C654 1.348 . S
C655 C657 1.353 . S
C655 H696 0.929 . S
C656 C654 1.356 . S
C656 C658 1.358 . S
C656 H697 0.930 . S
C657 C655 1.353 . S
C657 N659 1.314 . S
C657 H698 0.930 . S
C658 C656 1.358 . S
C658 N659 1.279 . S
C658 H699 0.930 . S
N659 C657 1.314 . S
N659 C658 1.279 . S
C660 C662 1.353 . S
C660 N663 1.314 . S
C660 H666 0.930 . S
C661 N663 1.279 . S
C661 C664 1.358 . S
C661 H667 0.930 . S
C662 C660 1.353 . S
C662 C665 1.348 . S
C662 H700 0.929 . S
N663 Li618 1.990 . S
N663 C660 1.314 . S
N663 C661 1.279 . S
C664 C661 1.358 . S
C664 C665 1.356 . S
C664 H701 0.930 . S
C665 C662 1.348 . S
C665 C664 1.356 . S
H666 C660 0.930 . S
H667 C661 0.930 . S
C668 N669 1.314 . S
C668 C670 1.353 . S
C668 H674 0.930 . S
N669 Li619 1.990 . S
N669 C668 1.314 . S
N669 C672 1.279 . S
C670 C668 1.353 . S
C670 C673 1.348 . S
C670 H702 0.929 . S
C671 C672 1.358 . S
C671 C673 1.356 . S
C671 H703 0.930 . S
C672 N669 1.279 . S
C672 C671 1.358 . S
C672 H675 0.930 . S
C673 C670 1.348 . S
C673 C671 1.356 . S
H674 C668 0.930 . S
H675 C672 0.930 . S
O676 Li616 1.956 . S
O676 Li617 1.970 . S
O676 Li618 1.961 . S
O676 C620 1.325 . S
O677 Li616 1.970 . S
O677 Li617 1.956 . S
O677 Li619 1.961 . S
O677 C626 1.325 . S
O678 Li616 1.961 . S
O678 Li618 1.956 . S
O678 Li619 1.970 . S
O678 C648 1.325 . S
O679 Li617 1.961 . S
O679 Li618 1.970 . S
O679 Li619 1.956 . S
O679 C654 1.325 . S
H680 C622 0.929 . S
H681 C623 0.930 . S
H682 C624 0.930 . S
H683 C625 0.930 . S
H684 C627 0.930 . S
H685 C629 0.929 . S
H686 C630 0.930 . S
H687 C631 0.930 . S
H688 C634 0.930 . S
H689 C637 0.929 . S
H690 C642 0.929 . S
H691 C643 0.930 . S
H692 C650 0.929 . S
H693 C651 0.930 . S
H694 C652 0.930 . S
H695 C653 0.930 . S
H696 C655 0.929 . S
H697 C656 0.930 . S
H698 C657 0.930 . S
H699 C658 0.930 . S
H700 C662 0.929 . S
H701 C664 0.930 . S
H702 C670 0.929 . S
H703 C671 0.930 . S
Li704 N721 1.990 . S
Li704 O764 1.956 . S
Li704 O765 1.970 . S
Li704 O766 1.961 . S
Li705 N729 1.990 . S
Li705 O764 1.970 . S
Li705 O765 1.956 . S
Li705 O767 1.961 . S
Li706 N751 1.990 . S
Li706 O764 1.961 . S
Li706 O766 1.956 . S
Li706 O767 1.970 . S
Li707 N757 1.990 . S
Li707 O765 1.961 . S
Li707 O766 1.970 . S
Li707 O767 1.956 . S
C708 C710 1.348 . S
C708 C711 1.356 . S
C708 O764 1.325 . S
N709 C712 1.314 . S
N709 C713 1.279 . S
C710 C708 1.348 . S
C710 C712 1.353 . S
C710 H768 0.929 . S
C711 C708 1.356 . S
C711 C713 1.358 . S
C711 H769 0.930 . S
C712 N709 1.314 . S
C712 C710 1.353 . S
C712 H770 0.930 . S
C713 N709 1.279 . S
C713 C711 1.358 . S
C713 H771 0.930 . S
C714 C717 1.348 . S
C714 C718 1.356 . S
C714 O765 1.325 . S
C715 N716 1.279 . S
C715 C718 1.358 . S
C715 H772 0.930 . S
N716 C715 1.279 . S
N716 C719 1.314 . S
C717 C714 1.348 . S
C717 C719 1.353 . S
C717 H773 0.929 . S
C718 C714 1.356 . S
C718 C715 1.358 . S
C718 H774 0.930 . S
C719 N716 1.314 . S
C719 C717 1.353 . S
C719 H775 0.930 . S
C720 N721 1.314 . S
C720 C725 1.353 . S
C720 H726 0.930 . S
N721 Li704 1.990 . S
N721 C720 1.314 . S
N721 C723 1.279 . S
C722 C723 1.358 . S
C722 C724 1.356 . S
C722 H776 0.930 . S
C723 N721 1.279 . S
C723 C722 1.358 . S
C723 H727 0.930 . S
C724 C722 1.356 . S
C724 C725 1.348 . S
C725 C720 1.353 . S
C725 C724 1.348 . S
C725 H777 0.929 . S
H726 C720 0.930 . S
H727 C723 0.930 . S
C728 N729 1.314 . S
C728 C730 1.353 . S
C728 H734 0.930 . S
N729 Li705 1.990 . S
N729 C728 1.314 . S
N729 C732 1.279 . S
C730 C728 1.353 . S
C730 C733 1.348 . S
C730 H778 0.929 . S
C731 C732 1.358 . S
C731 C733 1.356 . S
C731 H779 0.930 . S
C732 N729 1.279 . S
C732 C731 1.358 . S
C732 H735 0.930 . S
C733 C730 1.348 . S
C733 C731 1.356 . S
H734 C728 0.930 . S
H735 C732 0.930 . S
C736 C738 1.348 . S
C736 C739 1.356 . S
C736 O766 1.325 . S
N737 C740 1.314 . S
N737 C741 1.279 . S
C738 C736 1.348 . S
C738 C740 1.353 . S
C738 H780 0.929 . S
C739 C736 1.356 . S
C739 C741 1.358 . S
C739 H781 0.930 . S
C740 N737 1.314 . S
C740 C738 1.353 . S
C740 H782 0.930 . S
C741 N737 1.279 . S
C741 C739 1.358 . S
C741 H783 0.930 . S
C742 C743 1.348 . S
C742 C744 1.356 . S
C742 O767 1.325 . S
C743 C742 1.348 . S
C743 C745 1.353 . S
C743 H784 0.929 . S
C744 C742 1.356 . S
C744 C746 1.358 . S
C744 H785 0.930 . S
C745 C743 1.353 . S
C745 N747 1.314 . S
C745 H786 0.930 . S
C746 C744 1.358 . S
C746 N747 1.279 . S
C746 H787 0.930 . S
N747 C745 1.314 . S
N747 C746 1.279 . S
C748 C750 1.353 . S
C748 N751 1.314 . S
C748 H754 0.930 . S
C749 N751 1.279 . S
C749 C752 1.358 . S
C749 H755 0.930 . S
C750 C748 1.353 . S
C750 C753 1.348 . S
C750 H788 0.929 . S
N751 Li706 1.990 . S
N751 C748 1.314 . S
N751 C749 1.279 . S
C752 C749 1.358 . S
C752 C753 1.356 . S
C752 H789 0.930 . S
C753 C750 1.348 . S
C753 C752 1.356 . S
H754 C748 0.930 . S
H755 C749 0.930 . S
C756 N757 1.314 . S
C756 C758 1.353 . S
C756 H762 0.930 . S
N757 Li707 1.990 . S
N757 C756 1.314 . S
N757 C760 1.279 . S
C758 C756 1.353 . S
C758 C761 1.348 . S
C758 H790 0.929 . S
C759 C760 1.358 . S
C759 C761 1.356 . S
C759 H791 0.930 . S
C760 N757 1.279 . S
C760 C759 1.358 . S
C760 H763 0.930 . S
C761 C758 1.348 . S
C761 C759 1.356 . S
H762 C756 0.930 . S
H763 C760 0.930 . S
O764 Li704 1.956 . S
O764 Li705 1.970 . S
O764 Li706 1.961 . S
O764 C708 1.325 . S
O765 Li704 1.970 . S
O765 Li705 1.956 . S
O765 Li707 1.961 . S
O765 C714 1.325 . S
O766 Li704 1.961 . S
O766 Li706 1.956 . S
O766 Li707 1.970 . S
O766 C736 1.325 . S
O767 Li705 1.961 . S
O767 Li706 1.970 . S
O767 Li707 1.956 . S
O767 C742 1.325 . S
H768 C710 0.929 . S
H769 C711 0.930 . S
H770 C712 0.930 . S
H771 C713 0.930 . S
H772 C715 0.930 . S
H773 C717 0.929 . S
H774 C718 0.930 . S
H775 C719 0.930 . S
H776 C722 0.930 . S
H777 C725 0.929 . S
H778 C730 0.929 . S
H779 C731 0.930 . S
H780 C738 0.929 . S
H781 C739 0.930 . S
H782 C740 0.930 . S
H783 C741 0.930 . S
H784 C743 0.929 . S
H785 C744 0.930 . S
H786 C745 0.930 . S
H787 C746 0.930 . S
H788 C750 0.929 . S
H789 C752 0.930 . S
H790 C758 0.929 . S
H791 C759 0.930 . S
Li792 N809 1.990 . S
Li792 O852 1.956 . S
Li792 O853 1.970 . S
Li792 O854 1.961 . S
Li793 N817 1.990 . S
Li793 O852 1.970 . S
Li793 O853 1.956 . S
Li793 O855 1.961 . S
Li794 N839 1.990 . S
Li794 O852 1.961 . S
Li794 O854 1.956 . S
Li794 O855 1.970 . S
Li795 N845 1.990 . S
Li795 O853 1.961 . S
Li795 O854 1.970 . S
Li795 O855 1.956 . S
C796 C798 1.348 . S
C796 C799 1.356 . S
C796 O852 1.325 . S
N797 C800 1.314 . S
N797 C801 1.279 . S
C798 C796 1.348 . S
C798 C800 1.353 . S
C798 H856 0.929 . S
C799 C796 1.356 . S
C799 C801 1.358 . S
C799 H857 0.930 . S
C800 N797 1.314 . S
C800 C798 1.353 . S
C800 H858 0.930 . S
C801 N797 1.279 . S
C801 C799 1.358 . S
C801 H859 0.930 . S
C802 C805 1.348 . S
C802 C806 1.356 . S
C802 O853 1.325 . S
C803 N804 1.279 . S
C803 C806 1.358 . S
C803 H860 0.930 . S
N804 C803 1.279 . S
N804 C807 1.314 . S
C805 C802 1.348 . S
C805 C807 1.353 . S
C805 H861 0.929 . S
C806 C802 1.356 . S
C806 C803 1.358 . S
C806 H862 0.930 . S
C807 N804 1.314 . S
C807 C805 1.353 . S
C807 H863 0.930 . S
C808 N809 1.314 . S
C808 C813 1.353 . S
C808 H814 0.930 . S
N809 Li792 1.990 . S
N809 C808 1.314 . S
N809 C811 1.279 . S
C810 C811 1.358 . S
C810 C812 1.356 . S
C810 H864 0.930 . S
C811 N809 1.279 . S
C811 C810 1.358 . S
C811 H815 0.930 . S
C812 C810 1.356 . S
C812 C813 1.348 . S
C813 C808 1.353 . S
C813 C812 1.348 . S
C813 H865 0.929 . S
H814 C808 0.930 . S
H815 C811 0.930 . S
C816 N817 1.314 . S
C816 C818 1.353 . S
C816 H822 0.930 . S
N817 Li793 1.990 . S
N817 C816 1.314 . S
N817 C820 1.279 . S
C818 C816 1.353 . S
C818 C821 1.348 . S
C818 H866 0.929 . S
C819 C820 1.358 . S
C819 C821 1.356 . S
C819 H867 0.930 . S
C820 N817 1.279 . S
C820 C819 1.358 . S
C820 H823 0.930 . S
C821 C818 1.348 . S
C821 C819 1.356 . S
H822 C816 0.930 . S
H823 C820 0.930 . S
C824 C826 1.348 . S
C824 C827 1.356 . S
C824 O854 1.325 . S
N825 C828 1.314 . S
N825 C829 1.279 . S
C826 C824 1.348 . S
C826 C828 1.353 . S
C826 H868 0.929 . S
C827 C824 1.356 . S
C827 C829 1.358 . S
C827 H869 0.930 . S
C828 N825 1.314 . S
C828 C826 1.353 . S
C828 H870 0.930 . S
C829 N825 1.279 . S
C829 C827 1.358 . S
C829 H871 0.930 . S
C830 C831 1.348 . S
C830 C832 1.356 . S
C830 O855 1.325 . S
C831 C830 1.348 . S
C831 C833 1.353 . S
C831 H872 0.929 . S
C832 C830 1.356 . S
C832 C834 1.358 . S
C832 H873 0.930 . S
C833 C831 1.353 . S
C833 N835 1.314 . S
C833 H874 0.930 . S
C834 C832 1.358 . S
C834 N835 1.279 . S
C834 H875 0.930 . S
N835 C833 1.314 . S
N835 C834 1.279 . S
C836 C838 1.353 . S
C836 N839 1.314 . S
C836 H842 0.930 . S
C837 N839 1.279 . S
C837 C840 1.358 . S
C837 H843 0.930 . S
C838 C836 1.353 . S
C838 C841 1.348 . S
C838 H876 0.929 . S
N839 Li794 1.990 . S
N839 C836 1.314 . S
N839 C837 1.279 . S
C840 C837 1.358 . S
C840 C841 1.356 . S
C840 H877 0.930 . S
C841 C838 1.348 . S
C841 C840 1.356 . S
H842 C836 0.930 . S
H843 C837 0.930 . S
C844 N845 1.314 . S
C844 C846 1.353 . S
C844 H850 0.930 . S
N845 Li795 1.990 . S
N845 C844 1.314 . S
N845 C848 1.279 . S
C846 C844 1.353 . S
C846 C849 1.348 . S
C846 H878 0.929 . S
C847 C848 1.358 . S
C847 C849 1.356 . S
C847 H879 0.930 . S
C848 N845 1.279 . S
C848 C847 1.358 . S
C848 H851 0.930 . S
C849 C846 1.348 . S
C849 C847 1.356 . S
H850 C844 0.930 . S
H851 C848 0.930 . S
O852 Li792 1.956 . S
O852 Li793 1.970 . S
O852 Li794 1.961 . S
O852 C796 1.325 . S
O853 Li792 1.970 . S
O853 Li793 1.956 . S
O853 Li795 1.961 . S
O853 C802 1.325 . S
O854 Li792 1.961 . S
O854 Li794 1.956 . S
O854 Li795 1.970 . S
O854 C824 1.325 . S
O855 Li793 1.961 . S
O855 Li794 1.970 . S
O855 Li795 1.956 . S
O855 C830 1.325 . S
H856 C798 0.929 . S
H857 C799 0.930 . S
H858 C800 0.930 . S
H859 C801 0.930 . S
H860 C803 0.930 . S
H861 C805 0.929 . S
H862 C806 0.930 . S
H863 C807 0.930 . S
H864 C810 0.930 . S
H865 C813 0.929 . S
H866 C818 0.929 . S
H867 C819 0.930 . S
H868 C826 0.929 . S
H869 C827 0.930 . S
H870 C828 0.930 . S
H871 C829 0.930 . S
H872 C831 0.929 . S
H873 C832 0.930 . S
H874 C833 0.930 . S
H875 C834 0.930 . S
H876 C838 0.929 . S
H877 C840 0.930 . S
H878 C846 0.929 . S
H879 C847 0.930 . S
Li880 N897 1.990 . S
Li880 O940 1.956 . S
Li880 O941 1.970 . S
Li880 O942 1.961 . S
Li881 N905 1.990 . S
Li881 O940 1.970 . S
Li881 O941 1.956 . S
Li881 O943 1.961 . S
Li882 N927 1.990 . S
Li882 O940 1.961 . S
Li882 O942 1.956 . S
Li882 O943 1.970 . S
Li883 N933 1.990 . S
Li883 O941 1.961 . S
Li883 O942 1.970 . S
Li883 O943 1.956 . S
C884 C886 1.348 . S
C884 C887 1.356 . S
C884 O940 1.325 . S
N885 C888 1.314 . S
N885 C889 1.279 . S
C886 C884 1.348 . S
C886 C888 1.353 . S
C886 H944 0.929 . S
C887 C884 1.356 . S
C887 C889 1.358 . S
C887 H945 0.930 . S
C888 N885 1.314 . S
C888 C886 1.353 . S
C888 H946 0.930 . S
C889 N885 1.279 . S
C889 C887 1.358 . S
C889 H947 0.930 . S
C890 C893 1.348 . S
C890 C894 1.356 . S
C890 O941 1.325 . S
C891 N892 1.279 . S
C891 C894 1.358 . S
C891 H948 0.930 . S
N892 C891 1.279 . S
N892 C895 1.314 . S
C893 C890 1.348 . S
C893 C895 1.353 . S
C893 H949 0.929 . S
C894 C890 1.356 . S
C894 C891 1.358 . S
C894 H950 0.930 . S
C895 N892 1.314 . S
C895 C893 1.353 . S
C895 H951 0.930 . S
C896 N897 1.314 . S
C896 C901 1.353 . S
C896 H902 0.930 . S
N897 Li880 1.990 . S
N897 C896 1.314 . S
N897 C899 1.279 . S
C898 C899 1.358 . S
C898 C900 1.356 . S
C898 H952 0.930 . S
C899 N897 1.279 . S
C899 C898 1.358 . S
C899 H903 0.930 . S
C900 C898 1.356 . S
C900 C901 1.348 . S
C901 C896 1.353 . S
C901 C900 1.348 . S
C901 H953 0.929 . S
H902 C896 0.930 . S
H903 C899 0.930 . S
C904 N905 1.314 . S
C904 C906 1.353 . S
C904 H910 0.930 . S
N905 Li881 1.990 . S
N905 C904 1.314 . S
N905 C908 1.279 . S
C906 C904 1.353 . S
C906 C909 1.348 . S
C906 H954 0.929 . S
C907 C908 1.358 . S
C907 C909 1.356 . S
C907 H955 0.930 . S
C908 N905 1.279 . S
C908 C907 1.358 . S
C908 H911 0.930 . S
C909 C906 1.348 . S
C909 C907 1.356 . S
H910 C904 0.930 . S
H911 C908 0.930 . S
C912 C914 1.348 . S
C912 C915 1.356 . S
C912 O942 1.325 . S
N913 C916 1.314 . S
N913 C917 1.279 . S
C914 C912 1.348 . S
C914 C916 1.353 . S
C914 H956 0.929 . S
C915 C912 1.356 . S
C915 C917 1.358 . S
C915 H957 0.930 . S
C916 N913 1.314 . S
C916 C914 1.353 . S
C916 H958 0.930 . S
C917 N913 1.279 . S
C917 C915 1.358 . S
C917 H959 0.930 . S
C918 C919 1.348 . S
C918 C920 1.356 . S
C918 O943 1.325 . S
C919 C918 1.348 . S
C919 C921 1.353 . S
C919 H960 0.929 . S
C920 C918 1.356 . S
C920 C922 1.358 . S
C920 H961 0.930 . S
C921 C919 1.353 . S
C921 N923 1.314 . S
C921 H962 0.930 . S
C922 C920 1.358 . S
C922 N923 1.279 . S
C922 H963 0.930 . S
N923 C921 1.314 . S
N923 C922 1.279 . S
C924 C926 1.353 . S
C924 N927 1.314 . S
C924 H930 0.930 . S
C925 N927 1.279 . S
C925 C928 1.358 . S
C925 H931 0.930 . S
C926 C924 1.353 . S
C926 C929 1.348 . S
C926 H964 0.929 . S
N927 Li882 1.990 . S
N927 C924 1.314 . S
N927 C925 1.279 . S
C928 C925 1.358 . S
C928 C929 1.356 . S
C928 H965 0.930 . S
C929 C926 1.348 . S
C929 C928 1.356 . S
H930 C924 0.930 . S
H931 C925 0.930 . S
C932 N933 1.314 . S
C932 C934 1.353 . S
C932 H938 0.930 . S
N933 Li883 1.990 . S
N933 C932 1.314 . S
N933 C936 1.279 . S
C934 C932 1.353 . S
C934 C937 1.348 . S
C934 H966 0.929 . S
C935 C936 1.358 . S
C935 C937 1.356 . S
C935 H967 0.930 . S
C936 N933 1.279 . S
C936 C935 1.358 . S
C936 H939 0.930 . S
C937 C934 1.348 . S
C937 C935 1.356 . S
H938 C932 0.930 . S
H939 C936 0.930 . S
O940 Li880 1.956 . S
O940 Li881 1.970 . S
O940 Li882 1.961 . S
O940 C884 1.325 . S
O941 Li880 1.970 . S
O941 Li881 1.956 . S
O941 Li883 1.961 . S
O941 C890 1.325 . S
O942 Li880 1.961 . S
O942 Li882 1.956 . S
O942 Li883 1.970 . S
O942 C912 1.325 . S
O943 Li881 1.961 . S
O943 Li882 1.970 . S
O943 Li883 1.956 . S
O943 C918 1.325 . S
H944 C886 0.929 . S
H945 C887 0.930 . S
H946 C888 0.930 . S
H947 C889 0.930 . S
H948 C891 0.930 . S
H949 C893 0.929 . S
H950 C894 0.930 . S
H951 C895 0.930 . S
H952 C898 0.930 . S
H953 C901 0.929 . S
H954 C906 0.929 . S
H955 C907 0.930 . S
H956 C914 0.929 . S
H957 C915 0.930 . S
H958 C916 0.930 . S
H959 C917 0.930 . S
H960 C919 0.929 . S
H961 C920 0.930 . S
H962 C921 0.930 . S
H963 C922 0.930 . S
H964 C926 0.929 . S
H965 C928 0.930 . S
H966 C934 0.929 . S
H967 C935 0.930 . S
Li968 N985 1.990 . S
Li968 O1028 1.956 . S
Li968 O1029 1.970 . S
Li968 O1030 1.961 . S
Li969 N993 1.990 . S
Li969 O1028 1.970 . S
Li969 O1029 1.956 . S
Li969 O1031 1.961 . S
Li970 N1015 1.990 . S
Li970 O1028 1.961 . S
Li970 O1030 1.956 . S
Li970 O1031 1.970 . S
Li971 N1021 1.990 . S
Li971 O1029 1.961 . S
Li971 O1030 1.970 . S
Li971 O1031 1.956 . S
C972 C974 1.348 . S
C972 C975 1.356 . S
C972 O1028 1.325 . S
N973 C976 1.314 . S
N973 C977 1.279 . S
C974 C972 1.348 . S
C974 C976 1.353 . S
C974 H1032 0.929 . S
C975 C972 1.356 . S
C975 C977 1.358 . S
C975 H1033 0.930 . S
C976 N973 1.314 . S
C976 C974 1.353 . S
C976 H1034 0.930 . S
C977 N973 1.279 . S
C977 C975 1.358 . S
C977 H1035 0.930 . S
C978 C981 1.348 . S
C978 C982 1.356 . S
C978 O1029 1.325 . S
C979 N980 1.279 . S
C979 C982 1.358 . S
C979 H1036 0.930 . S
N980 C979 1.279 . S
N980 C983 1.314 . S
C981 C978 1.348 . S
C981 C983 1.353 . S
C981 H1037 0.929 . S
C982 C978 1.356 . S
C982 C979 1.358 . S
C982 H1038 0.930 . S
C983 N980 1.314 . S
C983 C981 1.353 . S
C983 H1039 0.930 . S
C984 N985 1.314 . S
C984 C989 1.353 . S
C984 H990 0.930 . S
N985 Li968 1.990 . S
N985 C984 1.314 . S
N985 C987 1.279 . S
C986 C987 1.358 . S
C986 C988 1.356 . S
C986 H1040 0.930 . S
C987 N985 1.279 . S
C987 C986 1.358 . S
C987 H991 0.930 . S
C988 C986 1.356 . S
C988 C989 1.348 . S
C989 C984 1.353 . S
C989 C988 1.348 . S
C989 H1041 0.929 . S
H990 C984 0.930 . S
H991 C987 0.930 . S
C992 N993 1.314 . S
C992 C994 1.353 . S
C992 H998 0.930 . S
N993 Li969 1.990 . S
N993 C992 1.314 . S
N993 C996 1.279 . S
C994 C992 1.353 . S
C994 C997 1.348 . S
C994 H1042 0.929 . S
C995 C996 1.358 . S
C995 C997 1.356 . S
C995 H1043 0.930 . S
C996 N993 1.279 . S
C996 C995 1.358 . S
C996 H999 0.930 . S
C997 C994 1.348 . S
C997 C995 1.356 . S
H998 C992 0.930 . S
H999 C996 0.930 . S
C1000 C1002 1.348 . S
C1000 C1003 1.356 . S
C1000 O1030 1.325 . S
N1001 C1004 1.314 . S
N1001 C1005 1.279 . S
C1002 C1000 1.348 . S
C1002 C1004 1.353 . S
C1002 H1044 0.929 . S
C1003 C1000 1.356 . S
C1003 C1005 1.358 . S
C1003 H1045 0.930 . S
C1004 N1001 1.314 . S
C1004 C1002 1.353 . S
C1004 H1046 0.930 . S
C1005 N1001 1.279 . S
C1005 C1003 1.358 . S
C1005 H1047 0.930 . S
C1006 C1007 1.348 . S
C1006 C1008 1.356 . S
C1006 O1031 1.325 . S
C1007 C1006 1.348 . S
C1007 C1009 1.353 . S
C1007 H1048 0.929 . S
C1008 C1006 1.356 . S
C1008 C1010 1.358 . S
C1008 H1049 0.930 . S
C1009 C1007 1.353 . S
C1009 N1011 1.314 . S
C1009 H1050 0.930 . S
C1010 C1008 1.358 . S
C1010 N1011 1.279 . S
C1010 H1051 0.930 . S
N1011 C1009 1.314 . S
N1011 C1010 1.279 . S
C1012 C1014 1.353 . S
C1012 N1015 1.314 . S
C1012 H1018 0.930 . S
C1013 N1015 1.279 . S
C1013 C1016 1.358 . S
C1013 H1019 0.930 . S
C1014 C1012 1.353 . S
C1014 C1017 1.348 . S
C1014 H1052 0.929 . S
N1015 Li970 1.990 . S
N1015 C1012 1.314 . S
N1015 C1013 1.279 . S
C1016 C1013 1.358 . S
C1016 C1017 1.356 . S
C1016 H1053 0.930 . S
C1017 C1014 1.348 . S
C1017 C1016 1.356 . S
H1018 C1012 0.930 . S
H1019 C1013 0.930 . S
C1020 N1021 1.314 . S
C1020 C1022 1.353 . S
C1020 H1026 0.930 . S
N1021 Li971 1.990 . S
N1021 C1020 1.314 . S
N1021 C1024 1.279 . S
C1022 C1020 1.353 . S
C1022 C1025 1.348 . S
C1022 H1054 0.929 . S
C1023 C1024 1.358 . S
C1023 C1025 1.356 . S
C1023 H1055 0.930 . S
C1024 N1021 1.279 . S
C1024 C1023 1.358 . S
C1024 H1027 0.930 . S
C1025 C1022 1.348 . S
C1025 C1023 1.356 . S
H1026 C1020 0.930 . S
H1027 C1024 0.930 . S
O1028 Li968 1.956 . S
O1028 Li969 1.970 . S
O1028 Li970 1.961 . S
O1028 C972 1.325 . S
O1029 Li968 1.970 . S
O1029 Li969 1.956 . S
O1029 Li971 1.961 . S
O1029 C978 1.325 . S
O1030 Li968 1.961 . S
O1030 Li970 1.956 . S
O1030 Li971 1.970 . S
O1030 C1000 1.325 . S
O1031 Li969 1.961 . S
O1031 Li970 1.970 . S
O1031 Li971 1.956 . S
O1031 C1006 1.325 . S
H1032 C974 0.929 . S
H1033 C975 0.930 . S
H1034 C976 0.930 . S
H1035 C977 0.930 . S
H1036 C979 0.930 . S
H1037 C981 0.929 . S
H1038 C982 0.930 . S
H1039 C983 0.930 . S
H1040 C986 0.930 . S
H1041 C989 0.929 . S
H1042 C994 0.929 . S
H1043 C995 0.930 . S
H1044 C1002 0.929 . S
H1045 C1003 0.930 . S
H1046 C1004 0.930 . S
H1047 C1005 0.930 . S
H1048 C1007 0.929 . S
H1049 C1008 0.930 . S
H1050 C1009 0.930 . S
H1051 C1010 0.930 . S
H1052 C1014 0.929 . S
H1053 C1016 0.930 . S
H1054 C1022 0.929 . S
H1055 C1023 0.930 . S
Li1056 N1073 1.990 . S
Li1056 O1116 1.956 . S
Li1056 O1117 1.970 . S
Li1056 O1118 1.961 . S
Li1057 N1081 1.990 . S
Li1057 O1116 1.970 . S
Li1057 O1117 1.956 . S
Li1057 O1119 1.961 . S
Li1058 N1103 1.990 . S
Li1058 O1116 1.961 . S
Li1058 O1118 1.956 . S
Li1058 O1119 1.970 . S
Li1059 N1109 1.990 . S
Li1059 O1117 1.961 . S
Li1059 O1118 1.970 . S
Li1059 O1119 1.956 . S
C1060 C1062 1.348 . S
C1060 C1063 1.356 . S
C1060 O1116 1.325 . S
N1061 C1064 1.314 . S
N1061 C1065 1.279 . S
C1062 C1060 1.348 . S
C1062 C1064 1.353 . S
C1062 H1120 0.929 . S
C1063 C1060 1.356 . S
C1063 C1065 1.358 . S
C1063 H1121 0.930 . S
C1064 N1061 1.314 . S
C1064 C1062 1.353 . S
C1064 H1122 0.930 . S
C1065 N1061 1.279 . S
C1065 C1063 1.358 . S
C1065 H1123 0.930 . S
C1066 C1069 1.348 . S
C1066 C1070 1.356 . S
C1066 O1117 1.325 . S
C1067 N1068 1.279 . S
C1067 C1070 1.358 . S
C1067 H1124 0.930 . S
N1068 C1067 1.279 . S
N1068 C1071 1.314 . S
C1069 C1066 1.348 . S
C1069 C1071 1.353 . S
C1069 H1125 0.929 . S
C1070 C1066 1.356 . S
C1070 C1067 1.358 . S
C1070 H1126 0.930 . S
C1071 N1068 1.314 . S
C1071 C1069 1.353 . S
C1071 H1127 0.930 . S
C1072 N1073 1.314 . S
C1072 C1077 1.353 . S
C1072 H1078 0.930 . S
N1073 Li1056 1.990 . S
N1073 C1072 1.314 . S
N1073 C1075 1.279 . S
C1074 C1075 1.358 . S
C1074 C1076 1.356 . S
C1074 H1128 0.930 . S
C1075 N1073 1.279 . S
C1075 C1074 1.358 . S
C1075 H1079 0.930 . S
C1076 C1074 1.356 . S
C1076 C1077 1.348 . S
C1077 C1072 1.353 . S
C1077 C1076 1.348 . S
C1077 H1129 0.929 . S
H1078 C1072 0.930 . S
H1079 C1075 0.930 . S
C1080 N1081 1.314 . S
C1080 C1082 1.353 . S
C1080 H1086 0.930 . S
N1081 Li1057 1.990 . S
N1081 C1080 1.314 . S
N1081 C1084 1.279 . S
C1082 C1080 1.353 . S
C1082 C1085 1.348 . S
C1082 H1130 0.929 . S
C1083 C1084 1.358 . S
C1083 C1085 1.356 . S
C1083 H1131 0.930 . S
C1084 N1081 1.279 . S
C1084 C1083 1.358 . S
C1084 H1087 0.930 . S
C1085 C1082 1.348 . S
C1085 C1083 1.356 . S
H1086 C1080 0.930 . S
H1087 C1084 0.930 . S
C1088 C1090 1.348 . S
C1088 C1091 1.356 . S
C1088 O1118 1.325 . S
N1089 C1092 1.314 . S
N1089 C1093 1.279 . S
C1090 C1088 1.348 . S
C1090 C1092 1.353 . S
C1090 H1132 0.929 . S
C1091 C1088 1.356 . S
C1091 C1093 1.358 . S
C1091 H1133 0.930 . S
C1092 N1089 1.314 . S
C1092 C1090 1.353 . S
C1092 H1134 0.930 . S
C1093 N1089 1.279 . S
C1093 C1091 1.358 . S
C1093 H1135 0.930 . S
C1094 C1095 1.348 . S
C1094 C1096 1.356 . S
C1094 O1119 1.325 . S
C1095 C1094 1.348 . S
C1095 C1097 1.353 . S
C1095 H1136 0.929 . S
C1096 C1094 1.356 . S
C1096 C1098 1.358 . S
C1096 H1137 0.930 . S
C1097 C1095 1.353 . S
C1097 N1099 1.314 . S
C1097 H1138 0.930 . S
C1098 C1096 1.358 . S
C1098 N1099 1.279 . S
C1098 H1139 0.930 . S
N1099 C1097 1.314 . S
N1099 C1098 1.279 . S
C1100 C1102 1.353 . S
C1100 N1103 1.314 . S
C1100 H1106 0.930 . S
C1101 N1103 1.279 . S
C1101 C1104 1.358 . S
C1101 H1107 0.930 . S
C1102 C1100 1.353 . S
C1102 C1105 1.348 . S
C1102 H1140 0.929 . S
N1103 Li1058 1.990 . S
N1103 C1100 1.314 . S
N1103 C1101 1.279 . S
C1104 C1101 1.358 . S
C1104 C1105 1.356 . S
C1104 H1141 0.930 . S
C1105 C1102 1.348 . S
C1105 C1104 1.356 . S
H1106 C1100 0.930 . S
H1107 C1101 0.930 . S
C1108 N1109 1.314 . S
C1108 C1110 1.353 . S
C1108 H1114 0.930 . S
N1109 Li1059 1.990 . S
N1109 C1108 1.314 . S
N1109 C1112 1.279 . S
C1110 C1108 1.353 . S
C1110 C1113 1.348 . S
C1110 H1142 0.929 . S
C1111 C1112 1.358 . S
C1111 C1113 1.356 . S
C1111 H1143 0.930 . S
C1112 N1109 1.279 . S
C1112 C1111 1.358 . S
C1112 H1115 0.930 . S
C1113 C1110 1.348 . S
C1113 C1111 1.356 . S
H1114 C1108 0.930 . S
H1115 C1112 0.930 . S
O1116 Li1056 1.956 . S
O1116 Li1057 1.970 . S
O1116 Li1058 1.961 . S
O1116 C1060 1.325 . S
O1117 Li1056 1.970 . S
O1117 Li1057 1.956 . S
O1117 Li1059 1.961 . S
O1117 C1066 1.325 . S
O1118 Li1056 1.961 . S
O1118 Li1058 1.956 . S
O1118 Li1059 1.970 . S
O1118 C1088 1.325 . S
O1119 Li1057 1.961 . S
O1119 Li1058 1.970 . S
O1119 Li1059 1.956 . S
O1119 C1094 1.325 . S
H1120 C1062 0.929 . S
H1121 C1063 0.930 . S
H1122 C1064 0.930 . S
H1123 C1065 0.930 . S
H1124 C1067 0.930 . S
H1125 C1069 0.929 . S
H1126 C1070 0.930 . S
H1127 C1071 0.930 . S
H1128 C1074 0.930 . S
H1129 C1077 0.929 . S
H1130 C1082 0.929 . S
H1131 C1083 0.930 . S
H1132 C1090 0.929 . S
H1133 C1091 0.930 . S
H1134 C1092 0.930 . S
H1135 C1093 0.930 . S
H1136 C1095 0.929 . S
H1137 C1096 0.930 . S
H1138 C1097 0.930 . S
H1139 C1098 0.930 . S
H1140 C1102 0.929 . S
H1141 C1104 0.930 . S
H1142 C1110 0.929 . S
H1143 C1111 0.930 . S
Li1144 N1161 1.990 . S
Li1144 O1204 1.956 . S
Li1144 O1205 1.970 . S
Li1144 O1206 1.961 . S
Li1145 N1169 1.990 . S
Li1145 O1204 1.970 . S
Li1145 O1205 1.956 . S
Li1145 O1207 1.961 . S
Li1146 N1191 1.990 . S
Li1146 O1204 1.961 . S
Li1146 O1206 1.956 . S
Li1146 O1207 1.970 . S
Li1147 N1197 1.990 . S
Li1147 O1205 1.961 . S
Li1147 O1206 1.970 . S
Li1147 O1207 1.956 . S
C1148 C1150 1.348 . S
C1148 C1151 1.356 . S
C1148 O1204 1.325 . S
N1149 C1152 1.314 . S
N1149 C1153 1.279 . S
C1150 C1148 1.348 . S
C1150 C1152 1.353 . S
C1150 H1208 0.929 . S
C1151 C1148 1.356 . S
C1151 C1153 1.358 . S
C1151 H1209 0.930 . S
C1152 N1149 1.314 . S
C1152 C1150 1.353 . S
C1152 H1210 0.930 . S
C1153 N1149 1.279 . S
C1153 C1151 1.358 . S
C1153 H1211 0.930 . S
C1154 C1157 1.348 . S
C1154 C1158 1.356 . S
C1154 O1205 1.325 . S
C1155 N1156 1.279 . S
C1155 C1158 1.358 . S
C1155 H1212 0.930 . S
N1156 C1155 1.279 . S
N1156 C1159 1.314 . S
C1157 C1154 1.348 . S
C1157 C1159 1.353 . S
C1157 H1213 0.929 . S
C1158 C1154 1.356 . S
C1158 C1155 1.358 . S
C1158 H1214 0.930 . S
C1159 N1156 1.314 . S
C1159 C1157 1.353 . S
C1159 H1215 0.930 . S
C1160 N1161 1.314 . S
C1160 C1165 1.353 . S
C1160 H1166 0.930 . S
N1161 Li1144 1.990 . S
N1161 C1160 1.314 . S
N1161 C1163 1.279 . S
C1162 C1163 1.358 . S
C1162 C1164 1.356 . S
C1162 H1216 0.930 . S
C1163 N1161 1.279 . S
C1163 C1162 1.358 . S
C1163 H1167 0.930 . S
C1164 C1162 1.356 . S
C1164 C1165 1.348 . S
C1165 C1160 1.353 . S
C1165 C1164 1.348 . S
C1165 H1217 0.929 . S
H1166 C1160 0.930 . S
H1167 C1163 0.930 . S
C1168 N1169 1.314 . S
C1168 C1170 1.353 . S
C1168 H1174 0.930 . S
N1169 Li1145 1.990 . S
N1169 C1168 1.314 . S
N1169 C1172 1.279 . S
C1170 C1168 1.353 . S
C1170 C1173 1.348 . S
C1170 H1218 0.929 . S
C1171 C1172 1.358 . S
C1171 C1173 1.356 . S
C1171 H1219 0.930 . S
C1172 N1169 1.279 . S
C1172 C1171 1.358 . S
C1172 H1175 0.930 . S
C1173 C1170 1.348 . S
C1173 C1171 1.356 . S
H1174 C1168 0.930 . S
H1175 C1172 0.930 . S
C1176 C1178 1.348 . S
C1176 C1179 1.356 . S
C1176 O1206 1.325 . S
N1177 C1180 1.314 . S
N1177 C1181 1.279 . S
C1178 C1176 1.348 . S
C1178 C1180 1.353 . S
C1178 H1220 0.929 . S
C1179 C1176 1.356 . S
C1179 C1181 1.358 . S
C1179 H1221 0.930 . S
C1180 N1177 1.314 . S
C1180 C1178 1.353 . S
C1180 H1222 0.930 . S
C1181 N1177 1.279 . S
C1181 C1179 1.358 . S
C1181 H1223 0.930 . S
C1182 C1183 1.348 . S
C1182 C1184 1.356 . S
C1182 O1207 1.325 . S
C1183 C1182 1.348 . S
C1183 C1185 1.353 . S
C1183 H1224 0.929 . S
C1184 C1182 1.356 . S
C1184 C1186 1.358 . S
C1184 H1225 0.930 . S
C1185 C1183 1.353 . S
C1185 N1187 1.314 . S
C1185 H1226 0.930 . S
C1186 C1184 1.358 . S
C1186 N1187 1.279 . S
C1186 H1227 0.930 . S
N1187 C1185 1.314 . S
N1187 C1186 1.279 . S
C1188 C1190 1.353 . S
C1188 N1191 1.314 . S
C1188 H1194 0.930 . S
C1189 N1191 1.279 . S
C1189 C1192 1.358 . S
C1189 H1195 0.930 . S
C1190 C1188 1.353 . S
C1190 C1193 1.348 . S
C1190 H1228 0.929 . S
N1191 Li1146 1.990 . S
N1191 C1188 1.314 . S
N1191 C1189 1.279 . S
C1192 C1189 1.358 . S
C1192 C1193 1.356 . S
C1192 H1229 0.930 . S
C1193 C1190 1.348 . S
C1193 C1192 1.356 . S
H1194 C1188 0.930 . S
H1195 C1189 0.930 . S
C1196 N1197 1.314 . S
C1196 C1198 1.353 . S
C1196 H1202 0.930 . S
N1197 Li1147 1.990 . S
N1197 C1196 1.314 . S
N1197 C1200 1.279 . S
C1198 C1196 1.353 . S
C1198 C1201 1.348 . S
C1198 H1230 0.929 . S
C1199 C1200 1.358 . S
C1199 C1201 1.356 . S
C1199 H1231 0.930 . S
C1200 N1197 1.279 . S
C1200 C1199 1.358 . S
C1200 H1203 0.930 . S
C1201 C1198 1.348 . S
C1201 C1199 1.356 . S
H1202 C1196 0.930 . S
H1203 C1200 0.930 . S
O1204 Li1144 1.956 . S
O1204 Li1145 1.970 . S
O1204 Li1146 1.961 . S
O1204 C1148 1.325 . S
O1205 Li1144 1.970 . S
O1205 Li1145 1.956 . S
O1205 Li1147 1.961 . S
O1205 C1154 1.325 . S
O1206 Li1144 1.961 . S
O1206 Li1146 1.956 . S
O1206 Li1147 1.970 . S
O1206 C1176 1.325 . S
O1207 Li1145 1.961 . S
O1207 Li1146 1.970 . S
O1207 Li1147 1.956 . S
O1207 C1182 1.325 . S
H1208 C1150 0.929 . S
H1209 C1151 0.930 . S
H1210 C1152 0.930 . S
H1211 C1153 0.930 . S
H1212 C1155 0.930 . S
H1213 C1157 0.929 . S
H1214 C1158 0.930 . S
H1215 C1159 0.930 . S
H1216 C1162 0.930 . S
H1217 C1165 0.929 . S
H1218 C1170 0.929 . S
H1219 C1171 0.930 . S
H1220 C1178 0.929 . S
H1221 C1179 0.930 . S
H1222 C1180 0.930 . S
H1223 C1181 0.930 . S
H1224 C1183 0.929 . S
H1225 C1184 0.930 . S
H1226 C1185 0.930 . S
H1227 C1186 0.930 . S
H1228 C1190 0.929 . S
H1229 C1192 0.930 . S
H1230 C1198 0.929 . S
H1231 C1199 0.930 . S
Li1232 N1249 1.990 . S
Li1232 O1292 1.956 . S
Li1232 O1293 1.970 . S
Li1232 O1294 1.961 . S
Li1233 N1257 1.990 . S
Li1233 O1292 1.970 . S
Li1233 O1293 1.956 . S
Li1233 O1295 1.961 . S
Li1234 N1279 1.990 . S
Li1234 O1292 1.961 . S
Li1234 O1294 1.956 . S
Li1234 O1295 1.970 . S
Li1235 N1285 1.990 . S
Li1235 O1293 1.961 . S
Li1235 O1294 1.970 . S
Li1235 O1295 1.956 . S
C1236 C1238 1.348 . S
C1236 C1239 1.356 . S
C1236 O1292 1.325 . S
N1237 C1240 1.314 . S
N1237 C1241 1.279 . S
C1238 C1236 1.348 . S
C1238 C1240 1.353 . S
C1238 H1296 0.929 . S
C1239 C1236 1.356 . S
C1239 C1241 1.358 . S
C1239 H1297 0.930 . S
C1240 N1237 1.314 . S
C1240 C1238 1.353 . S
C1240 H1298 0.930 . S
C1241 N1237 1.279 . S
C1241 C1239 1.358 . S
C1241 H1299 0.930 . S
C1242 C1245 1.348 . S
C1242 C1246 1.356 . S
C1242 O1293 1.325 . S
C1243 N1244 1.279 . S
C1243 C1246 1.358 . S
C1243 H1300 0.930 . S
N1244 C1243 1.279 . S
N1244 C1247 1.314 . S
C1245 C1242 1.348 . S
C1245 C1247 1.353 . S
C1245 H1301 0.929 . S
C1246 C1242 1.356 . S
C1246 C1243 1.358 . S
C1246 H1302 0.930 . S
C1247 N1244 1.314 . S
C1247 C1245 1.353 . S
C1247 H1303 0.930 . S
C1248 N1249 1.314 . S
C1248 C1253 1.353 . S
C1248 H1254 0.930 . S
N1249 Li1232 1.990 . S
N1249 C1248 1.314 . S
N1249 C1251 1.279 . S
C1250 C1251 1.358 . S
C1250 C1252 1.356 . S
C1250 H1304 0.930 . S
C1251 N1249 1.279 . S
C1251 C1250 1.358 . S
C1251 H1255 0.930 . S
C1252 C1250 1.356 . S
C1252 C1253 1.348 . S
C1253 C1248 1.353 . S
C1253 C1252 1.348 . S
C1253 H1305 0.929 . S
H1254 C1248 0.930 . S
H1255 C1251 0.930 . S
C1256 N1257 1.314 . S
C1256 C1258 1.353 . S
C1256 H1262 0.930 . S
N1257 Li1233 1.990 . S
N1257 C1256 1.314 . S
N1257 C1260 1.279 . S
C1258 C1256 1.353 . S
C1258 C1261 1.348 . S
C1258 H1306 0.929 . S
C1259 C1260 1.358 . S
C1259 C1261 1.356 . S
C1259 H1307 0.930 . S
C1260 N1257 1.279 . S
C1260 C1259 1.358 . S
C1260 H1263 0.930 . S
C1261 C1258 1.348 . S
C1261 C1259 1.356 . S
H1262 C1256 0.930 . S
H1263 C1260 0.930 . S
C1264 C1266 1.348 . S
C1264 C1267 1.356 . S
C1264 O1294 1.325 . S
N1265 C1268 1.314 . S
N1265 C1269 1.279 . S
C1266 C1264 1.348 . S
C1266 C1268 1.353 . S
C1266 H1308 0.929 . S
C1267 C1264 1.356 . S
C1267 C1269 1.358 . S
C1267 H1309 0.930 . S
C1268 N1265 1.314 . S
C1268 C1266 1.353 . S
C1268 H1310 0.930 . S
C1269 N1265 1.279 . S
C1269 C1267 1.358 . S
C1269 H1311 0.930 . S
C1270 C1271 1.348 . S
C1270 C1272 1.356 . S
C1270 O1295 1.325 . S
C1271 C1270 1.348 . S
C1271 C1273 1.353 . S
C1271 H1312 0.929 . S
C1272 C1270 1.356 . S
C1272 C1274 1.358 . S
C1272 H1313 0.930 . S
C1273 C1271 1.353 . S
C1273 N1275 1.314 . S
C1273 H1314 0.930 . S
C1274 C1272 1.358 . S
C1274 N1275 1.279 . S
C1274 H1315 0.930 . S
N1275 C1273 1.314 . S
N1275 C1274 1.279 . S
C1276 C1278 1.353 . S
C1276 N1279 1.314 . S
C1276 H1282 0.930 . S
C1277 N1279 1.279 . S
C1277 C1280 1.358 . S
C1277 H1283 0.930 . S
C1278 C1276 1.353 . S
C1278 C1281 1.348 . S
C1278 H1316 0.929 . S
N1279 Li1234 1.990 . S
N1279 C1276 1.314 . S
N1279 C1277 1.279 . S
C1280 C1277 1.358 . S
C1280 C1281 1.356 . S
C1280 H1317 0.930 . S
C1281 C1278 1.348 . S
C1281 C1280 1.356 . S
H1282 C1276 0.930 . S
H1283 C1277 0.930 . S
C1284 N1285 1.314 . S
C1284 C1286 1.353 . S
C1284 H1290 0.930 . S
N1285 Li1235 1.990 . S
N1285 C1284 1.314 . S
N1285 C1288 1.279 . S
C1286 C1284 1.353 . S
C1286 C1289 1.348 . S
C1286 H1318 0.929 . S
C1287 C1288 1.358 . S
C1287 C1289 1.356 . S
C1287 H1319 0.930 . S
C1288 N1285 1.279 . S
C1288 C1287 1.358 . S
C1288 H1291 0.930 . S
C1289 C1286 1.348 . S
C1289 C1287 1.356 . S
H1290 C1284 0.930 . S
H1291 C1288 0.930 . S
O1292 Li1232 1.956 . S
O1292 Li1233 1.970 . S
O1292 Li1234 1.961 . S
O1292 C1236 1.325 . S
O1293 Li1232 1.970 . S
O1293 Li1233 1.956 . S
O1293 Li1235 1.961 . S
O1293 C1242 1.325 . S
O1294 Li1232 1.961 . S
O1294 Li1234 1.956 . S
O1294 Li1235 1.970 . S
O1294 C1264 1.325 . S
O1295 Li1233 1.961 . S
O1295 Li1234 1.970 . S
O1295 Li1235 1.956 . S
O1295 C1270 1.325 . S
H1296 C1238 0.929 . S
H1297 C1239 0.930 . S
H1298 C1240 0.930 . S
H1299 C1241 0.930 . S
H1300 C1243 0.930 . S
H1301 C1245 0.929 . S
H1302 C1246 0.930 . S
H1303 C1247 0.930 . S
H1304 C1250 0.930 . S
H1305 C1253 0.929 . S
H1306 C1258 0.929 . S
H1307 C1259 0.930 . S
H1308 C1266 0.929 . S
H1309 C1267 0.930 . S
H1310 C1268 0.930 . S
H1311 C1269 0.930 . S
H1312 C1271 0.929 . S
H1313 C1272 0.930 . S
H1314 C1273 0.930 . S
H1315 C1274 0.930 . S
H1316 C1278 0.929 . S
H1317 C1280 0.930 . S
H1318 C1286 0.929 . S
H1319 C1287 0.930 . S
Li1320 N1337 1.990 . S
Li1320 O1380 1.956 . S
Li1320 O1381 1.970 . S
Li1320 O1382 1.961 . S
Li1321 N1345 1.990 . S
Li1321 O1380 1.970 . S
Li1321 O1381 1.956 . S
Li1321 O1383 1.961 . S
Li1322 N1367 1.990 . S
Li1322 O1380 1.961 . S
Li1322 O1382 1.956 . S
Li1322 O1383 1.970 . S
Li1323 N1373 1.990 . S
Li1323 O1381 1.961 . S
Li1323 O1382 1.970 . S
Li1323 O1383 1.956 . S
C1324 C1326 1.348 . S
C1324 C1327 1.356 . S
C1324 O1380 1.325 . S
N1325 C1328 1.314 . S
N1325 C1329 1.279 . S
C1326 C1324 1.348 . S
C1326 C1328 1.353 . S
C1326 H1384 0.929 . S
C1327 C1324 1.356 . S
C1327 C1329 1.358 . S
C1327 H1385 0.930 . S
C1328 N1325 1.314 . S
C1328 C1326 1.353 . S
C1328 H1386 0.930 . S
C1329 N1325 1.279 . S
C1329 C1327 1.358 . S
C1329 H1387 0.930 . S
C1330 C1333 1.348 . S
C1330 C1334 1.356 . S
C1330 O1381 1.325 . S
C1331 N1332 1.279 . S
C1331 C1334 1.358 . S
C1331 H1388 0.930 . S
N1332 C1331 1.279 . S
N1332 C1335 1.314 . S
C1333 C1330 1.348 . S
C1333 C1335 1.353 . S
C1333 H1389 0.929 . S
C1334 C1330 1.356 . S
C1334 C1331 1.358 . S
C1334 H1390 0.930 . S
C1335 N1332 1.314 . S
C1335 C1333 1.353 . S
C1335 H1391 0.930 . S
C1336 N1337 1.314 . S
C1336 C1341 1.353 . S
C1336 H1342 0.930 . S
N1337 Li1320 1.990 . S
N1337 C1336 1.314 . S
N1337 C1339 1.279 . S
C1338 C1339 1.358 . S
C1338 C1340 1.356 . S
C1338 H1392 0.930 . S
C1339 N1337 1.279 . S
C1339 C1338 1.358 . S
C1339 H1343 0.930 . S
C1340 C1338 1.356 . S
C1340 C1341 1.348 . S
C1341 C1336 1.353 . S
C1341 C1340 1.348 . S
C1341 H1393 0.929 . S
H1342 C1336 0.930 . S
H1343 C1339 0.930 . S
C1344 N1345 1.314 . S
C1344 C1346 1.353 . S
C1344 H1350 0.930 . S
N1345 Li1321 1.990 . S
N1345 C1344 1.314 . S
N1345 C1348 1.279 . S
C1346 C1344 1.353 . S
C1346 C1349 1.348 . S
C1346 H1394 0.929 . S
C1347 C1348 1.358 . S
C1347 C1349 1.356 . S
C1347 H1395 0.930 . S
C1348 N1345 1.279 . S
C1348 C1347 1.358 . S
C1348 H1351 0.930 . S
C1349 C1346 1.348 . S
C1349 C1347 1.356 . S
H1350 C1344 0.930 . S
H1351 C1348 0.930 . S
C1352 C1354 1.348 . S
C1352 C1355 1.356 . S
C1352 O1382 1.325 . S
N1353 C1356 1.314 . S
N1353 C1357 1.279 . S
C1354 C1352 1.348 . S
C1354 C1356 1.353 . S
C1354 H1396 0.929 . S
C1355 C1352 1.356 . S
C1355 C1357 1.358 . S
C1355 H1397 0.930 . S
C1356 N1353 1.314 . S
C1356 C1354 1.353 . S
C1356 H1398 0.930 . S
C1357 N1353 1.279 . S
C1357 C1355 1.358 . S
C1357 H1399 0.930 . S
C1358 C1359 1.348 . S
C1358 C1360 1.356 . S
C1358 O1383 1.325 . S
C1359 C1358 1.348 . S
C1359 C1361 1.353 . S
C1359 H1400 0.929 . S
C1360 C1358 1.356 . S
C1360 C1362 1.358 . S
C1360 H1401 0.930 . S
C1361 C1359 1.353 . S
C1361 N1363 1.314 . S
C1361 H1402 0.930 . S
C1362 C1360 1.358 . S
C1362 N1363 1.279 . S
C1362 H1403 0.930 . S
N1363 C1361 1.314 . S
N1363 C1362 1.279 . S
C1364 C1366 1.353 . S
C1364 N1367 1.314 . S
C1364 H1370 0.930 . S
C1365 N1367 1.279 . S
C1365 C1368 1.358 . S
C1365 H1371 0.930 . S
C1366 C1364 1.353 . S
C1366 C1369 1.348 . S
C1366 H1404 0.929 . S
N1367 Li1322 1.990 . S
N1367 C1364 1.314 . S
N1367 C1365 1.279 . S
C1368 C1365 1.358 . S
C1368 C1369 1.356 . S
C1368 H1405 0.930 . S
C1369 C1366 1.348 . S
C1369 C1368 1.356 . S
H1370 C1364 0.930 . S
H1371 C1365 0.930 . S
C1372 N1373 1.314 . S
C1372 C1374 1.353 . S
C1372 H1378 0.930 . S
N1373 Li1323 1.990 . S
N1373 C1372 1.314 . S
N1373 C1376 1.279 . S
C1374 C1372 1.353 . S
C1374 C1377 1.348 . S
C1374 H1406 0.929 . S
C1375 C1376 1.358 . S
C1375 C1377 1.356 . S
C1375 H1407 0.930 . S
C1376 N1373 1.279 . S
C1376 C1375 1.358 . S
C1376 H1379 0.930 . S
C1377 C1374 1.348 . S
C1377 C1375 1.356 . S
H1378 C1372 0.930 . S
H1379 C1376 0.930 . S
O1380 Li1320 1.956 . S
O1380 Li1321 1.970 . S
O1380 Li1322 1.961 . S
O1380 C1324 1.325 . S
O1381 Li1320 1.970 . S
O1381 Li1321 1.956 . S
O1381 Li1323 1.961 . S
O1381 C1330 1.325 . S
O1382 Li1320 1.961 . S
O1382 Li1322 1.956 . S
O1382 Li1323 1.970 . S
O1382 C1352 1.325 . S
O1383 Li1321 1.961 . S
O1383 Li1322 1.970 . S
O1383 Li1323 1.956 . S
O1383 C1358 1.325 . S
H1384 C1326 0.929 . S
H1385 C1327 0.930 . S
H1386 C1328 0.930 . S
H1387 C1329 0.930 . S
H1388 C1331 0.930 . S
H1389 C1333 0.929 . S
H1390 C1334 0.930 . S
H1391 C1335 0.930 . S
H1392 C1338 0.930 . S
H1393 C1341 0.929 . S
H1394 C1346 0.929 . S
H1395 C1347 0.930 . S
H1396 C1354 0.929 . S
H1397 C1355 0.930 . S
H1398 C1356 0.930 . S
H1399 C1357 0.930 . S
H1400 C1359 0.929 . S
H1401 C1360 0.930 . S
H1402 C1361 0.930 . S
H1403 C1362 0.930 . S
H1404 C1366 0.929 . S
H1405 C1368 0.930 . S
H1406 C1374 0.929 . S
H1407 C1375 0.930 . S
C1408 C1409 1.391 . S
C1408 C1410 1.394 . S
C1408 H1424 0.931 . S
C1409 C1408 1.391 . S
C1409 C1413 1.376 . S
C1410 C1408 1.394 . S
C1410 C1411 1.369 . S
C1410 C1414 1.531 . S
C1411 C1410 1.369 . S
C1411 C1412 1.410 . S
C1411 C1419 1.503 . S
C1412 C1411 1.410 . S
C1412 C1413 1.392 . S
C1412 C1415 1.511 . S
C1413 C1409 1.376 . S
C1413 C1412 1.392 . S
C1413 H1425 0.929 . S
C1414 C1410 1.531 . S
C1414 H1426 0.960 . S
C1414 H1427 0.962 . S
C1414 H1428 0.960 . S
C1415 C1412 1.511 . S
C1415 H1429 0.961 . S
C1415 H1430 0.961 . S
C1415 H1431 0.961 . S
C1416 C1417 1.370 . S
C1416 C1418 1.363 . S
C1416 H1432 0.931 . S
C1417 C1416 1.370 . S
C1417 C1421 1.408 . S
C1418 C1416 1.363 . S
C1418 C1419 1.370 . S
C1418 C1422 1.524 . S
C1419 C1411 1.503 . S
C1419 C1418 1.370 . S
C1419 C1420 1.403 . S
C1420 C1419 1.403 . S
C1420 C1421 1.404 . S
C1420 C1423 1.539 . S
C1421 C1417 1.408 . S
C1421 C1420 1.404 . S
C1421 H1433 0.930 . S
C1422 C1418 1.524 . S
C1422 H1434 0.956 . S
C1422 H1435 0.961 . S
C1422 H1436 0.961 . S
C1423 C1420 1.539 . S
C1423 H1437 0.958 . S
C1423 H1438 0.961 . S
C1423 H1439 0.960 . S
H1424 C1408 0.931 . S
H1425 C1413 0.929 . S
H1426 C1414 0.960 . S
H1427 C1414 0.962 . S
H1428 C1414 0.960 . S
H1429 C1415 0.961 . S
H1430 C1415 0.961 . S
H1431 C1415 0.961 . S
H1432 C1416 0.931 . S
H1433 C1421 0.930 . S
H1434 C1422 0.956 . S
H1435 C1422 0.961 . S
H1436 C1422 0.961 . S
H1437 C1423 0.958 . S
H1438 C1423 0.961 . S
H1439 C1423 0.960 . S
C1440 C1441 1.391 . S
C1440 C1442 1.394 . S
C1440 H1456 0.931 . S
C1441 C1440 1.391 . S
C1441 C1445 1.376 . S
C1442 C1440 1.394 . S
C1442 C1443 1.369 . S
C1442 C1446 1.531 . S
C1443 C1442 1.369 . S
C1443 C1444 1.410 . S
C1443 C1451 1.503 . S
C1444 C1443 1.410 . S
C1444 C1445 1.392 . S
C1444 C1447 1.511 . S
C1445 C1441 1.376 . S
C1445 C1444 1.392 . S
C1445 H1457 0.929 . S
C1446 C1442 1.531 . S
C1446 H1458 0.960 . S
C1446 H1459 0.962 . S
C1446 H1460 0.960 . S
C1447 C1444 1.511 . S
C1447 H1461 0.961 . S
C1447 H1462 0.961 . S
C1447 H1463 0.961 . S
C1448 C1449 1.370 . S
C1448 C1450 1.363 . S
C1448 H1464 0.931 . S
C1449 C1448 1.370 . S
C1449 C1453 1.408 . S
C1450 C1448 1.363 . S
C1450 C1451 1.370 . S
C1450 C1454 1.524 . S
C1451 C1443 1.503 . S
C1451 C1450 1.370 . S
C1451 C1452 1.403 . S
C1452 C1451 1.403 . S
C1452 C1453 1.404 . S
C1452 C1455 1.539 . S
C1453 C1449 1.408 . S
C1453 C1452 1.404 . S
C1453 H1465 0.930 . S
C1454 C1450 1.524 . S
C1454 H1466 0.956 . S
C1454 H1467 0.961 . S
C1454 H1468 0.961 . S
C1455 C1452 1.539 . S
C1455 H1469 0.958 . S
C1455 H1470 0.961 . S
C1455 H1471 0.960 . S
H1456 C1440 0.931 . S
H1457 C1445 0.929 . S
H1458 C1446 0.960 . S
H1459 C1446 0.962 . S
H1460 C1446 0.960 . S
H1461 C1447 0.961 . S
H1462 C1447 0.961 . S
H1463 C1447 0.961 . S
H1464 C1448 0.931 . S
H1465 C1453 0.930 . S
H1466 C1454 0.956 . S
H1467 C1454 0.961 . S
H1468 C1454 0.961 . S
H1469 C1455 0.958 . S
H1470 C1455 0.961 . S
H1471 C1455 0.960 . S
C1472 C1473 1.391 . S
C1472 C1474 1.394 . S
C1472 H1488 0.931 . S
C1473 C1472 1.391 . S
C1473 C1477 1.376 . S
C1474 C1472 1.394 . S
C1474 C1475 1.369 . S
C1474 C1478 1.531 . S
C1475 C1474 1.369 . S
C1475 C1476 1.410 . S
C1475 C1483 1.503 . S
C1476 C1475 1.410 . S
C1476 C1477 1.392 . S
C1476 C1479 1.511 . S
C1477 C1473 1.376 . S
C1477 C1476 1.392 . S
C1477 H1489 0.929 . S
C1478 C1474 1.531 . S
C1478 H1490 0.960 . S
C1478 H1491 0.962 . S
C1478 H1492 0.960 . S
C1479 C1476 1.511 . S
C1479 H1493 0.961 . S
C1479 H1494 0.961 . S
C1479 H1495 0.961 . S
C1480 C1481 1.370 . S
C1480 C1482 1.363 . S
C1480 H1496 0.931 . S
C1481 C1480 1.370 . S
C1481 C1485 1.408 . S
C1482 C1480 1.363 . S
C1482 C1483 1.370 . S
C1482 C1486 1.524 . S
C1483 C1475 1.503 . S
C1483 C1482 1.370 . S
C1483 C1484 1.403 . S
C1484 C1483 1.403 . S
C1484 C1485 1.404 . S
C1484 C1487 1.539 . S
C1485 C1481 1.408 . S
C1485 C1484 1.404 . S
C1485 H1497 0.930 . S
C1486 C1482 1.524 . S
C1486 H1498 0.956 . S
C1486 H1499 0.961 . S
C1486 H1500 0.961 . S
C1487 C1484 1.539 . S
C1487 H1501 0.958 . S
C1487 H1502 0.961 . S
C1487 H1503 0.960 . S
H1488 C1472 0.931 . S
H1489 C1477 0.929 . S
H1490 C1478 0.960 . S
H1491 C1478 0.962 . S
H1492 C1478 0.960 . S
H1493 C1479 0.961 . S
H1494 C1479 0.961 . S
H1495 C1479 0.961 . S
H1496 C1480 0.931 . S
H1497 C1485 0.930 . S
H1498 C1486 0.956 . S
H1499 C1486 0.961 . S
H1500 C1486 0.961 . S
H1501 C1487 0.958 . S
H1502 C1487 0.961 . S
H1503 C1487 0.960 . S
C1504 C1505 1.391 . S
C1504 C1506 1.394 . S
C1504 H1520 0.931 . S
C1505 C1504 1.391 . S
C1505 C1509 1.376 . S
C1506 C1504 1.394 . S
C1506 C1507 1.369 . S
C1506 C1510 1.531 . S
C1507 C1506 1.369 . S
C1507 C1508 1.410 . S
C1507 C1515 1.503 . S
C1508 C1507 1.410 . S
C1508 C1509 1.392 . S
C1508 C1511 1.511 . S
C1509 C1505 1.376 . S
C1509 C1508 1.392 . S
C1509 H1521 0.929 . S
C1510 C1506 1.531 . S
C1510 H1522 0.960 . S
C1510 H1523 0.962 . S
C1510 H1524 0.960 . S
C1511 C1508 1.511 . S
C1511 H1525 0.961 . S
C1511 H1526 0.961 . S
C1511 H1527 0.961 . S
C1512 C1513 1.370 . S
C1512 C1514 1.363 . S
C1512 H1528 0.931 . S
C1513 C1512 1.370 . S
C1513 C1517 1.408 . S
C1514 C1512 1.363 . S
C1514 C1515 1.370 . S
C1514 C1518 1.524 . S
C1515 C1507 1.503 . S
C1515 C1514 1.370 . S
C1515 C1516 1.403 . S
C1516 C1515 1.403 . S
C1516 C1517 1.404 . S
C1516 C1519 1.539 . S
C1517 C1513 1.408 . S
C1517 C1516 1.404 . S
C1517 H1529 0.930 . S
C1518 C1514 1.524 . S
C1518 H1530 0.956 . S
C1518 H1531 0.961 . S
C1518 H1532 0.961 . S
C1519 C1516 1.539 . S
C1519 H1533 0.958 . S
C1519 H1534 0.961 . S
C1519 H1535 0.960 . S
H1520 C1504 0.931 . S
H1521 C1509 0.929 . S
H1522 C1510 0.960 . S
H1523 C1510 0.962 . S
H1524 C1510 0.960 . S
H1525 C1511 0.961 . S
H1526 C1511 0.961 . S
H1527 C1511 0.961 . S
H1528 C1512 0.931 . S
H1529 C1517 0.930 . S
H1530 C1518 0.956 . S
H1531 C1518 0.961 . S
H1532 C1518 0.961 . S
H1533 C1519 0.958 . S
H1534 C1519 0.961 . S
H1535 C1519 0.960 . S
C1536 C1537 1.391 . S
C1536 C1538 1.394 . S
C1536 H1552 0.931 . S
C1537 C1536 1.391 . S
C1537 C1541 1.376 . S
C1538 C1536 1.394 . S
C1538 C1539 1.369 . S
C1538 C1542 1.531 . S
C1539 C1538 1.369 . S
C1539 C1540 1.410 . S
C1539 C1547 1.503 . S
C1540 C1539 1.410 . S
C1540 C1541 1.392 . S
C1540 C1543 1.511 . S
C1541 C1537 1.376 . S
C1541 C1540 1.392 . S
C1541 H1553 0.929 . S
C1542 C1538 1.531 . S
C1542 H1554 0.960 . S
C1542 H1555 0.962 . S
C1542 H1556 0.960 . S
C1543 C1540 1.511 . S
C1543 H1557 0.961 . S
C1543 H1558 0.961 . S
C1543 H1559 0.961 . S
C1544 C1545 1.370 . S
C1544 C1546 1.363 . S
C1544 H1560 0.931 . S
C1545 C1544 1.370 . S
C1545 C1549 1.408 . S
C1546 C1544 1.363 . S
C1546 C1547 1.370 . S
C1546 C1550 1.524 . S
C1547 C1539 1.503 . S
C1547 C1546 1.370 . S
C1547 C1548 1.403 . S
C1548 C1547 1.403 . S
C1548 C1549 1.404 . S
C1548 C1551 1.539 . S
C1549 C1545 1.408 . S
C1549 C1548 1.404 . S
C1549 H1561 0.930 . S
C1550 C1546 1.524 . S
C1550 H1562 0.956 . S
C1550 H1563 0.961 . S
C1550 H1564 0.961 . S
C1551 C1548 1.539 . S
C1551 H1565 0.958 . S
C1551 H1566 0.961 . S
C1551 H1567 0.960 . S
H1552 C1536 0.931 . S
H1553 C1541 0.929 . S
H1554 C1542 0.960 . S
H1555 C1542 0.962 . S
H1556 C1542 0.960 . S
H1557 C1543 0.961 . S
H1558 C1543 0.961 . S
H1559 C1543 0.961 . S
H1560 C1544 0.931 . S
H1561 C1549 0.930 . S
H1562 C1550 0.956 . S
H1563 C1550 0.961 . S
H1564 C1550 0.961 . S
H1565 C1551 0.958 . S
H1566 C1551 0.961 . S
H1567 C1551 0.960 . S
C1568 C1569 1.391 . S
C1568 C1570 1.394 . S
C1568 H1584 0.931 . S
C1569 C1568 1.391 . S
C1569 C1573 1.376 . S
C1570 C1568 1.394 . S
C1570 C1571 1.369 . S
C1570 C1574 1.531 . S
C1571 C1570 1.369 . S
C1571 C1572 1.410 . S
C1571 C1579 1.503 . S
C1572 C1571 1.410 . S
C1572 C1573 1.392 . S
C1572 C1575 1.511 . S
C1573 C1569 1.376 . S
C1573 C1572 1.392 . S
C1573 H1585 0.929 . S
C1574 C1570 1.531 . S
C1574 H1586 0.960 . S
C1574 H1587 0.962 . S
C1574 H1588 0.960 . S
C1575 C1572 1.511 . S
C1575 H1589 0.961 . S
C1575 H1590 0.961 . S
C1575 H1591 0.961 . S
C1576 C1577 1.370 . S
C1576 C1578 1.363 . S
C1576 H1592 0.931 . S
C1577 C1576 1.370 . S
C1577 C1581 1.408 . S
C1578 C1576 1.363 . S
C1578 C1579 1.370 . S
C1578 C1582 1.524 . S
C1579 C1571 1.503 . S
C1579 C1578 1.370 . S
C1579 C1580 1.403 . S
C1580 C1579 1.403 . S
C1580 C1581 1.404 . S
C1580 C1583 1.539 . S
C1581 C1577 1.408 . S
C1581 C1580 1.404 . S
C1581 H1593 0.930 . S
C1582 C1578 1.524 . S
C1582 H1594 0.956 . S
C1582 H1595 0.961 . S
C1582 H1596 0.961 . S
C1583 C1580 1.539 . S
C1583 H1597 0.958 . S
C1583 H1598 0.961 . S
C1583 H1599 0.960 . S
H1584 C1568 0.931 . S
H1585 C1573 0.929 . S
H1586 C1574 0.960 . S
H1587 C1574 0.962 . S
H1588 C1574 0.960 . S
H1589 C1575 0.961 . S
H1590 C1575 0.961 . S
H1591 C1575 0.961 . S
H1592 C1576 0.931 . S
H1593 C1581 0.930 . S
H1594 C1582 0.956 . S
H1595 C1582 0.961 . S
H1596 C1582 0.961 . S
H1597 C1583 0.958 . S
H1598 C1583 0.961 . S
H1599 C1583 0.960 . S
C1600 C1601 1.391 . S
C1600 C1602 1.394 . S
C1600 H1616 0.931 . S
C1601 C1600 1.391 . S
C1601 C1605 1.376 . S
C1602 C1600 1.394 . S
C1602 C1603 1.369 . S
C1602 C1606 1.531 . S
C1603 C1602 1.369 . S
C1603 C1604 1.410 . S
C1603 C1611 1.503 . S
C1604 C1603 1.410 . S
C1604 C1605 1.392 . S
C1604 C1607 1.511 . S
C1605 C1601 1.376 . S
C1605 C1604 1.392 . S
C1605 H1617 0.929 . S
C1606 C1602 1.531 . S
C1606 H1618 0.960 . S
C1606 H1619 0.962 . S
C1606 H1620 0.960 . S
C1607 C1604 1.511 . S
C1607 H1621 0.961 . S
C1607 H1622 0.961 . S
C1607 H1623 0.961 . S
C1608 C1609 1.370 . S
C1608 C1610 1.363 . S
C1608 H1624 0.931 . S
C1609 C1608 1.370 . S
C1609 C1613 1.408 . S
C1610 C1608 1.363 . S
C1610 C1611 1.370 . S
C1610 C1614 1.524 . S
C1611 C1603 1.503 . S
C1611 C1610 1.370 . S
C1611 C1612 1.403 . S
C1612 C1611 1.403 . S
C1612 C1613 1.404 . S
C1612 C1615 1.539 . S
C1613 C1609 1.408 . S
C1613 C1612 1.404 . S
C1613 H1625 0.930 . S
C1614 C1610 1.524 . S
C1614 H1626 0.956 . S
C1614 H1627 0.961 . S
C1614 H1628 0.961 . S
C1615 C1612 1.539 . S
C1615 H1629 0.958 . S
C1615 H1630 0.961 . S
C1615 H1631 0.960 . S
H1616 C1600 0.931 . S
H1617 C1605 0.929 . S
H1618 C1606 0.960 . S
H1619 C1606 0.962 . S
H1620 C1606 0.960 . S
H1621 C1607 0.961 . S
H1622 C1607 0.961 . S
H1623 C1607 0.961 . S
H1624 C1608 0.931 . S
H1625 C1613 0.930 . S
H1626 C1614 0.956 . S
H1627 C1614 0.961 . S
H1628 C1614 0.961 . S
H1629 C1615 0.958 . S
H1630 C1615 0.961 . S
H1631 C1615 0.960 . S
C1632 C1633 1.391 . S
C1632 C1634 1.394 . S
C1632 H1648 0.931 . S
C1633 C1632 1.391 . S
C1633 C1637 1.376 . S
C1634 C1632 1.394 . S
C1634 C1635 1.369 . S
C1634 C1638 1.531 . S
C1635 C1634 1.369 . S
C1635 C1636 1.410 . S
C1635 C1643 1.503 . S
C1636 C1635 1.410 . S
C1636 C1637 1.392 . S
C1636 C1639 1.511 . S
C1637 C1633 1.376 . S
C1637 C1636 1.392 . S
C1637 H1649 0.929 . S
C1638 C1634 1.531 . S
C1638 H1650 0.960 . S
C1638 H1651 0.962 . S
C1638 H1652 0.960 . S
C1639 C1636 1.511 . S
C1639 H1653 0.961 . S
C1639 H1654 0.961 . S
C1639 H1655 0.961 . S
C1640 C1641 1.370 . S
C1640 C1642 1.363 . S
C1640 H1656 0.931 . S
C1641 C1640 1.370 . S
C1641 C1645 1.408 . S
C1642 C1640 1.363 . S
C1642 C1643 1.370 . S
C1642 C1646 1.524 . S
C1643 C1635 1.503 . S
C1643 C1642 1.370 . S
C1643 C1644 1.403 . S
C1644 C1643 1.403 . S
C1644 C1645 1.404 . S
C1644 C1647 1.539 . S
C1645 C1641 1.408 . S
C1645 C1644 1.404 . S
C1645 H1657 0.930 . S
C1646 C1642 1.524 . S
C1646 H1658 0.956 . S
C1646 H1659 0.961 . S
C1646 H1660 0.961 . S
C1647 C1644 1.539 . S
C1647 H1661 0.958 . S
C1647 H1662 0.961 . S
C1647 H1663 0.960 . S
H1648 C1632 0.931 . S
H1649 C1637 0.929 . S
H1650 C1638 0.960 . S
H1651 C1638 0.962 . S
H1652 C1638 0.960 . S
H1653 C1639 0.961 . S
H1654 C1639 0.961 . S
H1655 C1639 0.961 . S
H1656 C1640 0.931 . S
H1657 C1645 0.930 . S
H1658 C1646 0.956 . S
H1659 C1646 0.961 . S
H1660 C1646 0.961 . S
H1661 C1647 0.958 . S
H1662 C1647 0.961 . S
H1663 C1647 0.960 . S
C1664 C1665 1.391 . S
C1664 C1666 1.394 . S
C1664 H1680 0.931 . S
C1665 C1664 1.391 . S
C1665 C1669 1.376 . S
C1666 C1664 1.394 . S
C1666 C1667 1.369 . S
C1666 C1670 1.531 . S
C1667 C1666 1.369 . S
C1667 C1668 1.410 . S
C1667 C1675 1.503 1_556 S
C1668 C1667 1.410 . S
C1668 C1669 1.392 . S
C1668 C1671 1.511 . S
C1669 C1665 1.376 . S
C1669 C1668 1.392 . S
C1669 H1681 0.929 . S
C1670 C1666 1.531 . S
C1670 H1682 0.960 1_556 S
C1670 H1683 0.962 . S
C1670 H1684 0.960 . S
C1671 C1668 1.511 . S
C1671 H1685 0.961 . S
C1671 H1686 0.961 1_556 S
C1671 H1687 0.961 . S
C1672 C1673 1.370 . S
C1672 C1674 1.363 . S
C1672 H1688 0.931 . S
C1673 C1672 1.370 . S
C1673 C1677 1.408 . S
C1674 C1672 1.363 . S
C1674 C1675 1.370 . S
C1674 C1678 1.524 . S
C1675 C1667 1.503 1_554 S
C1675 C1674 1.370 . S
C1675 C1676 1.403 . S
C1676 C1675 1.403 . S
C1676 C1677 1.404 . S
C1676 C1679 1.539 . S
C1677 C1673 1.408 . S
C1677 C1676 1.404 . S
C1677 H1689 0.930 . S
C1678 C1674 1.524 . S
C1678 H1690 0.983 . S
C1678 H1691 0.961 1_554 S
C1678 H1692 0.961 . S
C1679 C1676 1.539 . S
C1679 H1693 0.958 . S
C1679 H1694 0.961 . S
C1679 H1695 0.971 . S
H1680 C1664 0.931 . S
H1681 C1669 0.929 . S
H1682 C1670 0.960 1_554 S
H1683 C1670 0.962 . S
H1684 C1670 0.960 . S
H1685 C1671 0.961 . S
H1686 C1671 0.961 1_554 S
H1687 C1671 0.961 . S
H1688 C1672 0.931 . S
H1689 C1677 0.930 . S
H1690 C1678 0.983 . S
H1691 C1678 0.961 1_556 S
H1692 C1678 0.961 . S
H1693 C1679 0.958 . S
H1694 C1679 0.961 . S
H1695 C1679 0.971 . S
C1696 C1697 1.391 . S
C1696 C1698 1.394 . S
C1696 H1712 0.931 . S
C1697 C1696 1.391 . S
C1697 C1701 1.376 . S
C1698 C1696 1.394 . S
C1698 C1699 1.369 . S
C1698 C1702 1.531 . S
C1699 C1698 1.369 . S
C1699 C1700 1.410 . S
C1699 C1707 1.503 1_556 S
C1700 C1699 1.410 . S
C1700 C1701 1.392 . S
C1700 C1703 1.511 . S
C1701 C1697 1.376 . S
C1701 C1700 1.392 . S
C1701 H1713 0.929 . S
C1702 C1698 1.531 . S
C1702 H1714 0.960 1_556 S
C1702 H1715 0.962 . S
C1702 H1716 0.960 . S
C1703 C1700 1.511 . S
C1703 H1717 0.961 . S
C1703 H1718 0.961 1_556 S
C1703 H1719 0.961 . S
C1704 C1705 1.370 . S
C1704 C1706 1.363 . S
C1704 H1720 0.931 . S
C1705 C1704 1.370 . S
C1705 C1709 1.408 . S
C1706 C1704 1.363 . S
C1706 C1707 1.370 . S
C1706 C1710 1.524 . S
C1707 C1699 1.503 1_554 S
C1707 C1706 1.370 . S
C1707 C1708 1.403 . S
C1708 C1707 1.403 . S
C1708 C1709 1.404 . S
C1708 C1711 1.539 . S
C1709 C1705 1.408 . S
C1709 C1708 1.404 . S
C1709 H1721 0.930 . S
C1710 C1706 1.524 . S
C1710 H1722 0.985 . S
C1710 H1723 0.961 1_554 S
C1710 H1724 0.961 . S
C1711 C1708 1.539 . S
C1711 H1725 0.958 . S
C1711 H1726 0.961 . S
C1711 H1727 0.969 . S
H1712 C1696 0.931 . S
H1713 C1701 0.929 . S
H1714 C1702 0.960 1_554 S
H1715 C1702 0.962 . S
H1716 C1702 0.960 . S
H1717 C1703 0.961 . S
H1718 C1703 0.961 1_554 S
H1719 C1703 0.961 . S
H1720 C1704 0.931 . S
H1721 C1709 0.930 . S
H1722 C1710 0.985 . S
H1723 C1710 0.961 1_556 S
H1724 C1710 0.961 . S
H1725 C1711 0.958 . S
H1726 C1711 0.961 . S
H1727 C1711 0.969 . S
C1728 C1729 1.391 . S
C1728 C1730 1.394 . S
C1728 H1744 0.931 . S
C1729 C1728 1.391 . S
C1729 C1733 1.376 . S
C1730 C1728 1.394 . S
C1730 C1731 1.369 . S
C1730 C1734 1.531 . S
C1731 C1730 1.369 . S
C1731 C1732 1.410 . S
C1731 C1739 1.503 1_556 S
C1732 C1731 1.410 . S
C1732 C1733 1.392 . S
C1732 C1735 1.511 . S
C1733 C1729 1.376 . S
C1733 C1732 1.392 . S
C1733 H1745 0.929 . S
C1734 C1730 1.531 . S
C1734 H1746 0.960 1_556 S
C1734 H1747 0.962 . S
C1734 H1748 0.960 . S
C1735 C1732 1.511 . S
C1735 H1749 0.961 . S
C1735 H1750 0.961 1_556 S
C1735 H1751 0.961 . S
C1736 C1737 1.370 . S
C1736 C1738 1.363 . S
C1736 H1752 0.931 . S
C1737 C1736 1.370 . S
C1737 C1741 1.408 . S
C1738 C1736 1.363 . S
C1738 C1739 1.370 . S
C1738 C1742 1.524 . S
C1739 C1731 1.503 1_554 S
C1739 C1738 1.370 . S
C1739 C1740 1.403 . S
C1740 C1739 1.403 . S
C1740 C1741 1.404 . S
C1740 C1743 1.539 . S
C1741 C1737 1.408 . S
C1741 C1740 1.404 . S
C1741 H1753 0.930 . S
C1742 C1738 1.524 . S
C1742 H1754 0.984 . S
C1742 H1755 0.961 1_554 S
C1742 H1756 0.961 . S
C1743 C1740 1.539 . S
C1743 H1757 0.958 . S
C1743 H1758 0.961 . S
C1743 H1759 0.970 . S
H1744 C1728 0.931 . S
H1745 C1733 0.929 . S
H1746 C1734 0.960 1_554 S
H1747 C1734 0.962 . S
H1748 C1734 0.960 . S
H1749 C1735 0.961 . S
H1750 C1735 0.961 1_554 S
H1751 C1735 0.961 . S
H1752 C1736 0.931 . S
H1753 C1741 0.930 . S
H1754 C1742 0.984 . S
H1755 C1742 0.961 1_556 S
H1756 C1742 0.961 . S
H1757 C1743 0.958 . S
H1758 C1743 0.961 . S
H1759 C1743 0.970 . S
C1760 C1761 1.391 . S
C1760 C1762 1.394 . S
C1760 H1776 0.931 . S
C1761 C1760 1.391 . S
C1761 C1765 1.376 . S
C1762 C1760 1.394 . S
C1762 C1763 1.369 . S
C1762 C1766 1.531 . S
C1763 C1762 1.369 . S
C1763 C1764 1.410 . S
C1763 C1771 1.503 1_554 S
C1764 C1763 1.410 . S
C1764 C1765 1.392 . S
C1764 C1767 1.511 . S
C1765 C1761 1.376 . S
C1765 C1764 1.392 . S
C1765 H1777 0.929 . S
C1766 C1762 1.531 . S
C1766 H1778 0.960 1_554 S
C1766 H1779 0.962 . S
C1766 H1780 0.960 . S
C1767 C1764 1.511 . S
C1767 H1781 0.961 . S
C1767 H1782 0.961 1_554 S
C1767 H1783 0.961 . S
C1768 C1769 1.370 . S
C1768 C1770 1.363 . S
C1768 H1784 0.931 . S
C1769 C1768 1.370 . S
C1769 C1773 1.408 . S
C1770 C1768 1.363 . S
C1770 C1771 1.370 . S
C1770 C1774 1.524 . S
C1771 C1763 1.503 1_556 S
C1771 C1770 1.370 . S
C1771 C1772 1.403 . S
C1772 C1771 1.403 . S
C1772 C1773 1.404 . S
C1772 C1775 1.539 . S
C1773 C1769 1.408 . S
C1773 C1772 1.404 . S
C1773 H1785 0.930 . S
C1774 C1770 1.524 . S
C1774 H1786 0.984 . S
C1774 H1787 0.961 1_556 S
C1774 H1788 0.961 . S
C1775 C1772 1.539 . S
C1775 H1789 0.958 . S
C1775 H1790 0.961 . S
C1775 H1791 0.970 . S
H1776 C1760 0.931 . S
H1777 C1765 0.929 . S
H1778 C1766 0.960 1_556 S
H1779 C1766 0.962 . S
H1780 C1766 0.960 . S
H1781 C1767 0.961 . S
H1782 C1767 0.961 1_556 S
H1783 C1767 0.961 . S
H1784 C1768 0.931 . S
H1785 C1773 0.930 . S
H1786 C1774 0.984 . S
H1787 C1774 0.961 1_554 S
H1788 C1774 0.961 . S
H1789 C1775 0.958 . S
H1790 C1775 0.961 . S
H1791 C1775 0.970 . S
C1792 C1793 1.391 . S
C1792 C1794 1.394 . S
C1792 H1808 0.931 . S
C1793 C1792 1.391 . S
C1793 C1797 1.376 . S
C1794 C1792 1.394 . S
C1794 C1795 1.369 . S
C1794 C1798 1.531 . S
C1795 C1794 1.369 . S
C1795 C1796 1.410 . S
C1795 C1803 1.503 . S
C1796 C1795 1.410 . S
C1796 C1797 1.392 . S
C1796 C1799 1.511 . S
C1797 C1793 1.376 . S
C1797 C1796 1.392 . S
C1797 H1809 0.929 . S
C1798 C1794 1.531 . S
C1798 H1810 0.960 . S
C1798 H1811 0.962 . S
C1798 H1812 0.960 . S
C1799 C1796 1.511 . S
C1799 H1813 0.961 . S
C1799 H1814 0.961 . S
C1799 H1815 0.961 . S
C1800 C1801 1.370 . S
C1800 C1802 1.363 . S
C1800 H1816 0.931 . S
C1801 C1800 1.370 . S
C1801 C1805 1.408 . S
C1802 C1800 1.363 . S
C1802 C1803 1.370 . S
C1802 C1806 1.524 . S
C1803 C1795 1.503 . S
C1803 C1802 1.370 . S
C1803 C1804 1.403 . S
C1804 C1803 1.403 . S
C1804 C1805 1.404 . S
C1804 C1807 1.539 . S
C1805 C1801 1.408 . S
C1805 C1804 1.404 . S
C1805 H1817 0.930 . S
C1806 C1802 1.524 . S
C1806 H1818 0.956 . S
C1806 H1819 0.961 . S
C1806 H1820 0.961 . S
C1807 C1804 1.539 . S
C1807 H1821 0.958 . S
C1807 H1822 0.961 . S
C1807 H1823 0.960 . S
H1808 C1792 0.931 . S
H1809 C1797 0.929 . S
H1810 C1798 0.960 . S
H1811 C1798 0.962 . S
H1812 C1798 0.960 . S
H1813 C1799 0.961 . S
H1814 C1799 0.961 . S
H1815 C1799 0.961 . S
H1816 C1800 0.931 . S
H1817 C1805 0.930 . S
H1818 C1806 0.956 . S
H1819 C1806 0.961 . S
H1820 C1806 0.961 . S
H1821 C1807 0.958 . S
H1822 C1807 0.961 . S
H1823 C1807 0.960 . S
C1824 C1825 1.391 . S
C1824 C1826 1.394 . S
C1824 H1840 0.931 . S
C1825 C1824 1.391 . S
C1825 C1829 1.376 . S
C1826 C1824 1.394 . S
C1826 C1827 1.369 . S
C1826 C1830 1.531 . S
C1827 C1826 1.369 . S
C1827 C1828 1.410 . S
C1827 C1835 1.503 . S
C1828 C1827 1.410 . S
C1828 C1829 1.392 . S
C1828 C1831 1.511 . S
C1829 C1825 1.376 . S
C1829 C1828 1.392 . S
C1829 H1841 0.929 . S
C1830 C1826 1.531 . S
C1830 H1842 0.960 . S
C1830 H1843 0.962 . S
C1830 H1844 0.960 . S
C1831 C1828 1.511 . S
C1831 H1845 0.961 . S
C1831 H1846 0.961 . S
C1831 H1847 0.961 . S
C1832 C1833 1.370 . S
C1832 C1834 1.363 . S
C1832 H1848 0.931 . S
C1833 C1832 1.370 . S
C1833 C1837 1.408 . S
C1834 C1832 1.363 . S
C1834 C1835 1.370 . S
C1834 C1838 1.524 . S
C1835 C1827 1.503 . S
C1835 C1834 1.370 . S
C1835 C1836 1.403 . S
C1836 C1835 1.403 . S
C1836 C1837 1.404 . S
C1836 C1839 1.539 . S
C1837 C1833 1.408 . S
C1837 C1836 1.404 . S
C1837 H1849 0.930 . S
C1838 C1834 1.524 . S
C1838 H1850 0.956 . S
C1838 H1851 0.961 . S
C1838 H1852 0.961 . S
C1839 C1836 1.539 . S
C1839 H1853 0.958 . S
C1839 H1854 0.961 . S
C1839 H1855 0.960 . S
H1840 C1824 0.931 . S
H1841 C1829 0.929 . S
H1842 C1830 0.960 . S
H1843 C1830 0.962 . S
H1844 C1830 0.960 . S
H1845 C1831 0.961 . S
H1846 C1831 0.961 . S
H1847 C1831 0.961 . S
H1848 C1832 0.931 . S
H1849 C1837 0.930 . S
H1850 C1838 0.956 . S
H1851 C1838 0.961 . S
H1852 C1838 0.961 . S
H1853 C1839 0.958 . S
H1854 C1839 0.961 . S
H1855 C1839 0.960 . S
C1856 C1857 1.391 . S
C1856 C1858 1.394 . S
C1856 H1872 0.931 . S
C1857 C1856 1.391 . S
C1857 C1861 1.376 . S
C1858 C1856 1.394 . S
C1858 C1859 1.369 . S
C1858 C1862 1.531 . S
C1859 C1858 1.369 . S
C1859 C1860 1.410 . S
C1859 C1867 1.503 . S
C1860 C1859 1.410 . S
C1860 C1861 1.392 . S
C1860 C1863 1.511 . S
C1861 C1857 1.376 . S
C1861 C1860 1.392 . S
C1861 H1873 0.929 . S
C1862 C1858 1.531 . S
C1862 H1874 0.960 . S
C1862 H1875 0.962 . S
C1862 H1876 0.960 . S
C1863 C1860 1.511 . S
C1863 H1877 0.961 . S
C1863 H1878 0.961 . S
C1863 H1879 0.961 . S
C1864 C1865 1.370 . S
C1864 C1866 1.363 . S
C1864 H1880 0.931 . S
C1865 C1864 1.370 . S
C1865 C1869 1.408 . S
C1866 C1864 1.363 . S
C1866 C1867 1.370 . S
C1866 C1870 1.524 . S
C1867 C1859 1.503 . S
C1867 C1866 1.370 . S
C1867 C1868 1.403 . S
C1868 C1867 1.403 . S
C1868 C1869 1.404 . S
C1868 C1871 1.539 . S
C1869 C1865 1.408 . S
C1869 C1868 1.404 . S
C1869 H1881 0.930 . S
C1870 C1866 1.524 . S
C1870 H1882 0.956 . S
C1870 H1883 0.961 . S
C1870 H1884 0.961 . S
C1871 C1868 1.539 . S
C1871 H1885 0.958 . S
C1871 H1886 0.961 . S
C1871 H1887 0.960 . S
H1872 C1856 0.931 . S
H1873 C1861 0.929 . S
H1874 C1862 0.960 . S
H1875 C1862 0.962 . S
H1876 C1862 0.960 . S
H1877 C1863 0.961 . S
H1878 C1863 0.961 . S
H1879 C1863 0.961 . S
H1880 C1864 0.931 . S
H1881 C1869 0.930 . S
H1882 C1870 0.956 . S
H1883 C1870 0.961 . S
H1884 C1870 0.961 . S
H1885 C1871 0.958 . S
H1886 C1871 0.961 . S
H1887 C1871 0.960 . S
C1888 C1889 1.391 . S
C1888 C1890 1.394 . S
C1888 H1904 0.931 . S
C1889 C1888 1.391 . S
C1889 C1893 1.376 . S
C1890 C1888 1.394 . S
C1890 C1891 1.369 . S
C1890 C1894 1.531 . S
C1891 C1890 1.369 . S
C1891 C1892 1.410 . S
C1891 C1899 1.503 . S
C1892 C1891 1.410 . S
C1892 C1893 1.392 . S
C1892 C1895 1.511 . S
C1893 C1889 1.376 . S
C1893 C1892 1.392 . S
C1893 H1905 0.929 . S
C1894 C1890 1.531 . S
C1894 H1906 0.960 . S
C1894 H1907 0.962 . S
C1894 H1908 0.960 . S
C1895 C1892 1.511 . S
C1895 H1909 0.961 . S
C1895 H1910 0.961 . S
C1895 H1911 0.961 . S
C1896 C1897 1.370 . S
C1896 C1898 1.363 . S
C1896 H1912 0.931 . S
C1897 C1896 1.370 . S
C1897 C1901 1.408 . S
C1898 C1896 1.363 . S
C1898 C1899 1.370 . S
C1898 C1902 1.524 . S
C1899 C1891 1.503 . S
C1899 C1898 1.370 . S
C1899 C1900 1.403 . S
C1900 C1899 1.403 . S
C1900 C1901 1.404 . S
C1900 C1903 1.539 . S
C1901 C1897 1.408 . S
C1901 C1900 1.404 . S
C1901 H1913 0.930 . S
C1902 C1898 1.524 . S
C1902 H1914 0.956 . S
C1902 H1915 0.961 . S
C1902 H1916 0.961 . S
C1903 C1900 1.539 . S
C1903 H1917 0.958 . S
C1903 H1918 0.961 . S
C1903 H1919 0.960 . S
H1904 C1888 0.931 . S
H1905 C1893 0.929 . S
H1906 C1894 0.960 . S
H1907 C1894 0.962 . S
H1908 C1894 0.960 . S
H1909 C1895 0.961 . S
H1910 C1895 0.961 . S
H1911 C1895 0.961 . S
H1912 C1896 0.931 . S
H1913 C1901 0.930 . S
H1914 C1902 0.956 . S
H1915 C1902 0.961 . S
H1916 C1902 0.961 . S
H1917 C1903 0.958 . S
H1918 C1903 0.961 . S
H1919 C1903 0.960 . S
C1920 C1921 1.391 . S
C1920 C1922 1.394 . S
C1920 H1936 0.931 . S
C1921 C1920 1.391 . S
C1921 C1925 1.376 . S
C1922 C1920 1.394 . S
C1922 C1923 1.369 . S
C1922 C1926 1.531 . S
C1923 C1922 1.369 . S
C1923 C1924 1.410 . S
C1923 C1931 1.503 . S
C1924 C1923 1.410 . S
C1924 C1925 1.392 . S
C1924 C1927 1.511 . S
C1925 C1921 1.376 . S
C1925 C1924 1.392 . S
C1925 H1937 0.929 . S
C1926 C1922 1.531 . S
C1926 H1938 0.960 . S
C1926 H1939 0.962 . S
C1926 H1940 0.960 . S
C1927 C1924 1.511 . S
C1927 H1941 0.961 . S
C1927 H1942 0.961 . S
C1927 H1943 0.961 . S
C1928 C1929 1.370 . S
C1928 C1930 1.363 . S
C1928 H1944 0.931 . S
C1929 C1928 1.370 . S
C1929 C1933 1.408 . S
C1930 C1928 1.363 . S
C1930 C1931 1.370 . S
C1930 C1934 1.524 . S
C1931 C1923 1.503 . S
C1931 C1930 1.370 . S
C1931 C1932 1.403 . S
C1932 C1931 1.403 . S
C1932 C1933 1.404 . S
C1932 C1935 1.539 . S
C1933 C1929 1.408 . S
C1933 C1932 1.404 . S
C1933 H1945 0.930 . S
C1934 C1930 1.524 . S
C1934 H1946 0.956 . S
C1934 H1947 0.961 . S
C1934 H1948 0.961 . S
C1935 C1932 1.539 . S
C1935 H1949 0.958 . S
C1935 H1950 0.961 . S
C1935 H1951 0.960 . S
H1936 C1920 0.931 . S
H1937 C1925 0.929 . S
H1938 C1926 0.960 . S
H1939 C1926 0.962 . S
H1940 C1926 0.960 . S
H1941 C1927 0.961 . S
H1942 C1927 0.961 . S
H1943 C1927 0.961 . S
H1944 C1928 0.931 . S
H1945 C1933 0.930 . S
H1946 C1934 0.956 . S
H1947 C1934 0.961 . S
H1948 C1934 0.961 . S
H1949 C1935 0.958 . S
H1950 C1935 0.961 . S
H1951 C1935 0.960 . S
C1952 C1953 1.391 . S
C1952 C1954 1.394 . S
C1952 H1968 0.931 . S
C1953 C1952 1.391 . S
C1953 C1957 1.376 . S
C1954 C1952 1.394 . S
C1954 C1955 1.369 . S
C1954 C1958 1.531 . S
C1955 C1954 1.369 . S
C1955 C1956 1.410 . S
C1955 C1963 1.503 . S
C1956 C1955 1.410 . S
C1956 C1957 1.392 . S
C1956 C1959 1.511 . S
C1957 C1953 1.376 . S
C1957 C1956 1.392 . S
C1957 H1969 0.929 . S
C1958 C1954 1.531 . S
C1958 H1970 0.960 . S
C1958 H1971 0.962 . S
C1958 H1972 0.960 . S
C1959 C1956 1.511 . S
C1959 H1973 0.961 . S
C1959 H1974 0.961 . S
C1959 H1975 0.961 . S
C1960 C1961 1.370 . S
C1960 C1962 1.363 . S
C1960 H1976 0.931 . S
C1961 C1960 1.370 . S
C1961 C1965 1.408 . S
C1962 C1960 1.363 . S
C1962 C1963 1.370 . S
C1962 C1966 1.524 . S
C1963 C1955 1.503 . S
C1963 C1962 1.370 . S
C1963 C1964 1.403 . S
C1964 C1963 1.403 . S
C1964 C1965 1.404 . S
C1964 C1967 1.539 . S
C1965 C1961 1.408 . S
C1965 C1964 1.404 . S
C1965 H1977 0.930 . S
C1966 C1962 1.524 . S
C1966 H1978 0.956 . S
C1966 H1979 0.961 . S
C1966 H1980 0.961 . S
C1967 C1964 1.539 . S
C1967 H1981 0.958 . S
C1967 H1982 0.961 . S
C1967 H1983 0.960 . S
H1968 C1952 0.931 . S
H1969 C1957 0.929 . S
H1970 C1958 0.960 . S
H1971 C1958 0.962 . S
H1972 C1958 0.960 . S
H1973 C1959 0.961 . S
H1974 C1959 0.961 . S
H1975 C1959 0.961 . S
H1976 C1960 0.931 . S
H1977 C1965 0.930 . S
H1978 C1966 0.956 . S
H1979 C1966 0.961 . S
H1980 C1966 0.961 . S
H1981 C1967 0.958 . S
H1982 C1967 0.961 . S
H1983 C1967 0.960 . S
C1984 C1985 1.391 . S
C1984 C1986 1.394 . S
C1984 H2000 0.931 . S
C1985 C1984 1.391 . S
C1985 C1989 1.376 . S
C1986 C1984 1.394 . S
C1986 C1987 1.369 . S
C1986 C1990 1.531 . S
C1987 C1986 1.369 . S
C1987 C1988 1.410 . S
C1987 C1995 1.503 . S
C1988 C1987 1.410 . S
C1988 C1989 1.392 . S
C1988 C1991 1.511 . S
C1989 C1985 1.376 . S
C1989 C1988 1.392 . S
C1989 H2001 0.929 . S
C1990 C1986 1.531 . S
C1990 H2002 0.960 . S
C1990 H2003 0.962 . S
C1990 H2004 0.960 . S
C1991 C1988 1.511 . S
C1991 H2005 0.961 . S
C1991 H2006 0.961 . S
C1991 H2007 0.961 . S
C1992 C1993 1.370 . S
C1992 C1994 1.363 . S
C1992 H2008 0.931 . S
C1993 C1992 1.370 . S
C1993 C1997 1.408 . S
C1994 C1992 1.363 . S
C1994 C1995 1.370 . S
C1994 C1998 1.524 . S
C1995 C1987 1.503 . S
C1995 C1994 1.370 . S
C1995 C1996 1.403 . S
C1996 C1995 1.403 . S
C1996 C1997 1.404 . S
C1996 C1999 1.539 . S
C1997 C1993 1.408 . S
C1997 C1996 1.404 . S
C1997 H2009 0.930 . S
C1998 C1994 1.524 . S
C1998 H2010 0.956 . S
C1998 H2011 0.961 . S
C1998 H2012 0.961 . S
C1999 C1996 1.539 . S
C1999 H2013 0.958 . S
C1999 H2014 0.961 . S
C1999 H2015 0.960 . S
H2000 C1984 0.931 . S
H2001 C1989 0.929 . S
H2002 C1990 0.960 . S
H2003 C1990 0.962 . S
H2004 C1990 0.960 . S
H2005 C1991 0.961 . S
H2006 C1991 0.961 . S
H2007 C1991 0.961 . S
H2008 C1992 0.931 . S
H2009 C1997 0.930 . S
H2010 C1998 0.956 . S
H2011 C1998 0.961 . S
H2012 C1998 0.961 . S
H2013 C1999 0.958 . S
H2014 C1999 0.961 . S
H2015 C1999 0.960 . S
C2016 C2017 1.391 . S
C2016 C2018 1.394 . S
C2016 H2032 0.931 . S
C2017 C2016 1.391 . S
C2017 C2021 1.376 . S
C2018 C2016 1.394 . S
C2018 C2019 1.369 . S
C2018 C2022 1.531 . S
C2019 C2018 1.369 . S
C2019 C2020 1.410 . S
C2019 C2027 1.503 . S
C2020 C2019 1.410 . S
C2020 C2021 1.392 . S
C2020 C2023 1.511 . S
C2021 C2017 1.376 . S
C2021 C2020 1.392 . S
C2021 H2033 0.929 . S
C2022 C2018 1.531 . S
C2022 H2034 0.960 . S
C2022 H2035 0.962 . S
C2022 H2036 0.960 . S
C2023 C2020 1.511 . S
C2023 H2037 0.961 . S
C2023 H2038 0.961 . S
C2023 H2039 0.961 . S
C2024 C2025 1.370 . S
C2024 C2026 1.363 . S
C2024 H2040 0.931 . S
C2025 C2024 1.370 . S
C2025 C2029 1.408 . S
C2026 C2024 1.363 . S
C2026 C2027 1.370 . S
C2026 C2030 1.524 . S
C2027 C2019 1.503 . S
C2027 C2026 1.370 . S
C2027 C2028 1.403 . S
C2028 C2027 1.403 . S
C2028 C2029 1.404 . S
C2028 C2031 1.539 . S
C2029 C2025 1.408 . S
C2029 C2028 1.404 . S
C2029 H2041 0.930 . S
C2030 C2026 1.524 . S
C2030 H2042 0.956 . S
C2030 H2043 0.961 . S
C2030 H2044 0.961 . S
C2031 C2028 1.539 . S
C2031 H2045 0.958 . S
C2031 H2046 0.961 . S
C2031 H2047 0.960 . S
H2032 C2016 0.931 . S
H2033 C2021 0.929 . S
H2034 C2022 0.960 . S
H2035 C2022 0.962 . S
H2036 C2022 0.960 . S
H2037 C2023 0.961 . S
H2038 C2023 0.961 . S
H2039 C2023 0.961 . S
H2040 C2024 0.931 . S
H2041 C2029 0.930 . S
H2042 C2030 0.956 . S
H2043 C2030 0.961 . S
H2044 C2030 0.961 . S
H2045 C2031 0.958 . S
H2046 C2031 0.961 . S
H2047 C2031 0.960 . S
C2048 C2049 1.391 . S
C2048 C2050 1.394 . S
C2048 H2064 0.931 . S
C2049 C2048 1.391 . S
C2049 C2053 1.376 . S
C2050 C2048 1.394 . S
C2050 C2051 1.369 . S
C2050 C2054 1.531 . S
C2051 C2050 1.369 . S
C2051 C2052 1.410 . S
C2051 C2059 1.503 . S
C2052 C2051 1.410 . S
C2052 C2053 1.392 . S
C2052 C2055 1.511 . S
C2053 C2049 1.376 . S
C2053 C2052 1.392 . S
C2053 H2065 0.929 . S
C2054 C2050 1.531 . S
C2054 H2066 0.960 . S
C2054 H2067 0.962 . S
C2054 H2068 0.960 . S
C2055 C2052 1.511 . S
C2055 H2069 0.961 . S
C2055 H2070 0.961 . S
C2055 H2071 0.961 . S
C2056 C2057 1.370 . S
C2056 C2058 1.363 . S
C2056 H2072 0.931 . S
C2057 C2056 1.370 . S
C2057 C2061 1.408 . S
C2058 C2056 1.363 . S
C2058 C2059 1.370 . S
C2058 C2062 1.524 . S
C2059 C2051 1.503 . S
C2059 C2058 1.370 . S
C2059 C2060 1.403 . S
C2060 C2059 1.403 . S
C2060 C2061 1.404 . S
C2060 C2063 1.539 . S
C2061 C2057 1.408 . S
C2061 C2060 1.404 . S
C2061 H2073 0.930 . S
C2062 C2058 1.524 . S
C2062 H2074 0.956 . S
C2062 H2075 0.961 . S
C2062 H2076 0.961 . S
C2063 C2060 1.539 . S
C2063 H2077 0.958 . S
C2063 H2078 0.961 . S
C2063 H2079 0.960 . S
H2064 C2048 0.931 . S
H2065 C2053 0.929 . S
H2066 C2054 0.960 . S
H2067 C2054 0.962 . S
H2068 C2054 0.960 . S
H2069 C2055 0.961 . S
H2070 C2055 0.961 . S
H2071 C2055 0.961 . S
H2072 C2056 0.931 . S
H2073 C2061 0.930 . S
H2074 C2062 0.956 . S
H2075 C2062 0.961 . S
H2076 C2062 0.961 . S
H2077 C2063 0.958 . S
H2078 C2063 0.961 . S
H2079 C2063 0.960 . S
C2080 C2081 1.391 . S
C2080 C2082 1.394 . S
C2080 H2096 0.931 . S
C2081 C2080 1.391 . S
C2081 C2085 1.376 . S
C2082 C2080 1.394 . S
C2082 C2083 1.369 . S
C2082 C2086 1.531 . S
C2083 C2082 1.369 . S
C2083 C2084 1.410 . S
C2083 C2091 1.503 . S
C2084 C2083 1.410 . S
C2084 C2085 1.392 . S
C2084 C2087 1.511 . S
C2085 C2081 1.376 . S
C2085 C2084 1.392 . S
C2085 H2097 0.929 . S
C2086 C2082 1.531 . S
C2086 H2098 0.960 . S
C2086 H2099 0.962 . S
C2086 H2100 0.960 . S
C2087 C2084 1.511 . S
C2087 H2101 0.961 . S
C2087 H2102 0.961 . S
C2087 H2103 0.961 . S
C2088 C2089 1.370 . S
C2088 C2090 1.363 . S
C2088 H2104 0.931 . S
C2089 C2088 1.370 . S
C2089 C2093 1.408 . S
C2090 C2088 1.363 . S
C2090 C2091 1.370 . S
C2090 C2094 1.524 . S
C2091 C2083 1.503 . S
C2091 C2090 1.370 . S
C2091 C2092 1.403 . S
C2092 C2091 1.403 . S
C2092 C2093 1.404 . S
C2092 C2095 1.539 . S
C2093 C2089 1.408 . S
C2093 C2092 1.404 . S
C2093 H2105 0.930 . S
C2094 C2090 1.524 . S
C2094 H2106 0.956 . S
C2094 H2107 0.961 . S
C2094 H2108 0.961 . S
C2095 C2092 1.539 . S
C2095 H2109 0.958 . S
C2095 H2110 0.961 . S
C2095 H2111 0.960 . S
H2096 C2080 0.931 . S
H2097 C2085 0.929 . S
H2098 C2086 0.960 . S
H2099 C2086 0.962 . S
H2100 C2086 0.960 . S
H2101 C2087 0.961 . S
H2102 C2087 0.961 . S
H2103 C2087 0.961 . S
H2104 C2088 0.931 . S
H2105 C2093 0.930 . S
H2106 C2094 0.956 . S
H2107 C2094 0.961 . S
H2108 C2094 0.961 . S
H2109 C2095 0.958 . S
H2110 C2095 0.961 . S
H2111 C2095 0.960 . S
C2112 C2113 1.391 . S
C2112 C2114 1.394 . S
C2112 H2128 0.931 . S
C2113 C2112 1.391 . S
C2113 C2117 1.376 . S
C2114 C2112 1.394 . S
C2114 C2115 1.369 . S
C2114 C2118 1.531 . S
C2115 C2114 1.369 . S
C2115 C2116 1.410 . S
C2115 C2123 1.503 . S
C2116 C2115 1.410 . S
C2116 C2117 1.392 . S
C2116 C2119 1.511 . S
C2117 C2113 1.376 . S
C2117 C2116 1.392 . S
C2117 H2129 0.929 . S
C2118 C2114 1.531 . S
C2118 H2130 0.960 . S
C2118 H2131 0.962 . S
C2118 H2132 0.960 . S
C2119 C2116 1.511 . S
C2119 H2133 0.961 . S
C2119 H2134 0.961 . S
C2119 H2135 0.961 . S
C2120 C2121 1.370 . S
C2120 C2122 1.363 . S
C2120 H2136 0.931 . S
C2121 C2120 1.370 . S
C2121 C2125 1.408 . S
C2122 C2120 1.363 . S
C2122 C2123 1.370 . S
C2122 C2126 1.524 . S
C2123 C2115 1.503 . S
C2123 C2122 1.370 . S
C2123 C2124 1.403 . S
C2124 C2123 1.403 . S
C2124 C2125 1.404 . S
C2124 C2127 1.539 . S
C2125 C2121 1.408 . S
C2125 C2124 1.404 . S
C2125 H2137 0.930 . S
C2126 C2122 1.524 . S
C2126 H2138 0.956 . S
C2126 H2139 0.961 . S
C2126 H2140 0.961 . S
C2127 C2124 1.539 . S
C2127 H2141 0.958 . S
C2127 H2142 0.961 . S
C2127 H2143 0.960 . S
H2128 C2112 0.931 . S
H2129 C2117 0.929 . S
H2130 C2118 0.960 . S
H2131 C2118 0.962 . S
H2132 C2118 0.960 . S
H2133 C2119 0.961 . S
H2134 C2119 0.961 . S
H2135 C2119 0.961 . S
H2136 C2120 0.931 . S
H2137 C2125 0.930 . S
H2138 C2126 0.956 . S
H2139 C2126 0.961 . S
H2140 C2126 0.961 . S
H2141 C2127 0.958 . S
H2142 C2127 0.961 . S
H2143 C2127 0.960 . S
C2144 C2145 1.391 . S
C2144 C2146 1.394 . S
C2144 H2160 0.931 . S
C2145 C2144 1.391 . S
C2145 C2149 1.376 . S
C2146 C2144 1.394 . S
C2146 C2147 1.369 . S
C2146 C2150 1.531 . S
C2147 C2146 1.369 . S
C2147 C2148 1.410 . S
C2147 C2155 1.503 . S
C2148 C2147 1.410 . S
C2148 C2149 1.392 . S
C2148 C2151 1.511 . S
C2149 C2145 1.376 . S
C2149 C2148 1.392 . S
C2149 H2161 0.929 . S
C2150 C2146 1.531 . S
C2150 H2162 0.960 . S
C2150 H2163 0.962 . S
C2150 H2164 0.960 . S
C2151 C2148 1.511 . S
C2151 H2165 0.961 . S
C2151 H2166 0.961 . S
C2151 H2167 0.961 . S
C2152 C2153 1.370 . S
C2152 C2154 1.363 . S
C2152 H2168 0.931 . S
C2153 C2152 1.370 . S
C2153 C2157 1.408 . S
C2154 C2152 1.363 . S
C2154 C2155 1.370 . S
C2154 C2158 1.524 . S
C2155 C2147 1.503 . S
C2155 C2154 1.370 . S
C2155 C2156 1.403 . S
C2156 C2155 1.403 . S
C2156 C2157 1.404 . S
C2156 C2159 1.539 . S
C2157 C2153 1.408 . S
C2157 C2156 1.404 . S
C2157 H2169 0.930 . S
C2158 C2154 1.524 . S
C2158 H2170 0.956 . S
C2158 H2171 0.961 . S
C2158 H2172 0.961 . S
C2159 C2156 1.539 . S
C2159 H2173 0.958 . S
C2159 H2174 0.961 . S
C2159 H2175 0.960 . S
H2160 C2144 0.931 . S
H2161 C2149 0.929 . S
H2162 C2150 0.960 . S
H2163 C2150 0.962 . S
H2164 C2150 0.960 . S
H2165 C2151 0.961 . S
H2166 C2151 0.961 . S
H2167 C2151 0.961 . S
H2168 C2152 0.931 . S
H2169 C2157 0.930 . S
H2170 C2158 0.956 . S
H2171 C2158 0.961 . S
H2172 C2158 0.961 . S
H2173 C2159 0.958 . S
H2174 C2159 0.961 . S
H2175 C2159 0.960 . S
C2176 C2177 1.391 . S
C2176 C2178 1.394 . S
C2176 H2192 0.931 . S
C2177 C2176 1.391 . S
C2177 C2181 1.376 . S
C2178 C2176 1.394 . S
C2178 C2179 1.369 . S
C2178 C2182 1.554 . S
C2179 C2178 1.369 . S
C2179 C2180 1.410 . S
C2179 C2187 1.503 1_545 S
C2180 C2179 1.410 . S
C2180 C2181 1.392 . S
C2180 C2183 1.511 . S
C2181 C2177 1.376 . S
C2181 C2180 1.392 . S
C2181 H2193 0.929 . S
C2182 C2178 1.554 . S
C2182 H2194 0.927 1_545 S
C2182 H2195 0.964 . S
C2182 H2196 0.970 . S
C2183 C2180 1.511 . S
C2183 H2197 0.961 . S
C2183 H2198 0.961 . S
C2183 H2199 0.961 . S
C2184 C2185 1.370 . S
C2184 C2186 1.363 . S
C2184 H2200 0.931 . S
C2185 C2184 1.370 . S
C2185 C2189 1.408 . S
C2186 C2184 1.363 . S
C2186 C2187 1.370 . S
C2186 C2190 1.524 1_565 S
C2187 C2179 1.503 1_565 S
C2187 C2186 1.370 . S
C2187 C2188 1.403 . S
C2188 C2187 1.403 . S
C2188 C2189 1.404 . S
C2188 C2191 1.539 . S
C2189 C2185 1.408 . S
C2189 C2188 1.404 . S
C2189 H2201 0.930 . S
C2190 C2186 1.524 1_545 S
C2190 H2202 0.956 . S
C2190 H2203 0.961 . S
C2190 H2204 0.953 1_545 S
C2191 C2188 1.539 . S
C2191 H2205 0.958 . S
C2191 H2206 0.961 . S
C2191 H2207 0.960 . S
H2192 C2176 0.931 . S
H2193 C2181 0.929 . S
H2194 C2182 0.927 1_565 S
H2195 C2182 0.964 . S
H2196 C2182 0.970 . S
H2197 C2183 0.961 . S
H2198 C2183 0.961 . S
H2199 C2183 0.961 . S
H2200 C2184 0.931 . S
H2201 C2189 0.930 . S
H2202 C2190 0.956 . S
H2203 C2190 0.961 . S
H2204 C2190 0.953 1_565 S
H2205 C2191 0.958 . S
H2206 C2191 0.961 . S
H2207 C2191 0.960 . S
C2208 C2209 1.391 . S
C2208 C2210 1.394 . S
C2208 H2224 0.931 . S
C2209 C2208 1.391 . S
C2209 C2213 1.376 . S
C2210 C2208 1.394 . S
C2210 C2211 1.369 . S
C2210 C2214 1.531 . S
C2211 C2210 1.369 . S
C2211 C2212 1.410 . S
C2211 C2219 1.503 1_655 S
C2212 C2211 1.410 . S
C2212 C2213 1.392 . S
C2212 C2215 1.511 . S
C2213 C2209 1.376 . S
C2213 C2212 1.392 . S
C2213 H2225 0.929 . S
C2214 C2210 1.531 . S
C2214 H2226 0.960 . S
C2214 H2227 0.962 . S
C2214 H2228 0.960 . S
C2215 C2212 1.511 . S
C2215 H2229 0.961 . S
C2215 H2230 0.961 1_655 S
C2215 H2231 0.961 . S
C2216 C2217 1.370 . S
C2216 C2218 1.363 . S
C2216 H2232 0.931 . S
C2217 C2216 1.370 . S
C2217 C2221 1.408 . S
C2218 C2216 1.363 . S
C2218 C2219 1.370 . S
C2218 C2222 1.524 . S
C2219 C2211 1.503 1_455 S
C2219 C2218 1.370 . S
C2219 C2220 1.403 . S
C2220 C2219 1.403 . S
C2220 C2221 1.404 . S
C2220 C2223 1.539 1_455 S
C2221 C2217 1.408 . S
C2221 C2220 1.404 . S
C2221 H2233 0.930 . S
C2222 C2218 1.524 . S
C2222 H2234 0.956 . S
C2222 H2235 0.961 . S
C2222 H2236 0.961 . S
C2223 C2220 1.539 1_655 S
C2223 H2237 0.958 . S
C2223 H2238 0.942 1_655 S
C2223 H2239 0.960 . S
H2224 C2208 0.931 . S
H2225 C2213 0.929 . S
H2226 C2214 0.960 . S
H2227 C2214 0.962 . S
H2228 C2214 0.960 . S
H2229 C2215 0.961 . S
H2230 C2215 0.961 1_455 S
H2231 C2215 0.961 . S
H2232 C2216 0.931 . S
H2233 C2221 0.930 . S
H2234 C2222 0.956 . S
H2235 C2222 0.961 . S
H2236 C2222 0.961 . S
H2237 C2223 0.958 . S
H2238 C2223 0.942 1_455 S
H2239 C2223 0.960 . S
C2240 C2241 1.391 . S
C2240 C2242 1.394 . S
C2240 H2256 0.931 . S
C2241 C2240 1.391 . S
C2241 C2245 1.376 . S
C2242 C2240 1.394 . S
C2242 C2243 1.369 . S
C2242 C2246 1.531 . S
C2243 C2242 1.369 . S
C2243 C2244 1.410 . S
C2243 C2251 1.503 1_545 S
C2244 C2243 1.410 . S
C2244 C2245 1.392 . S
C2244 C2247 1.511 . S
C2245 C2241 1.376 . S
C2245 C2244 1.392 . S
C2245 H2257 0.929 . S
C2246 C2242 1.531 . S
C2246 H2258 0.960 1_545 S
C2246 H2259 0.962 . S
C2246 H2260 0.960 . S
C2247 C2244 1.511 . S
C2247 H2261 0.961 . S
C2247 H2262 0.961 1_545 S
C2247 H2263 0.961 1_545 S
C2248 C2249 1.370 . S
C2248 C2250 1.363 . S
C2248 H2264 0.931 . S
C2249 C2248 1.370 . S
C2249 C2253 1.408 . S
C2250 C2248 1.363 . S
C2250 C2251 1.370 . S
C2250 C2254 1.524 1_565 S
C2251 C2243 1.503 1_565 S
C2251 C2250 1.370 . S
C2251 C2252 1.403 . S
C2252 C2251 1.403 . S
C2252 C2253 1.404 . S
C2252 C2255 1.539 . S
C2253 C2249 1.408 . S
C2253 C2252 1.404 . S
C2253 H2265 0.930 . S
C2254 C2250 1.524 1_545 S
C2254 H2266 0.956 . S
C2254 H2267 0.961 . S
C2254 H2268 0.971 . S
C2255 C2252 1.539 . S
C2255 H2269 0.958 . S
C2255 H2270 0.961 . S
C2255 H2271 0.960 . S
H2256 C2240 0.931 . S
H2257 C2245 0.929 . S
H2258 C2246 0.960 1_565 S
H2259 C2246 0.962 . S
H2260 C2246 0.960 . S
H2261 C2247 0.961 . S
H2262 C2247 0.961 1_565 S
H2263 C2247 0.961 1_565 S
H2264 C2248 0.931 . S
H2265 C2253 0.930 . S
H2266 C2254 0.956 . S
H2267 C2254 0.961 . S
H2268 C2254 0.971 . S
H2269 C2255 0.958 . S
H2270 C2255 0.961 . S
H2271 C2255 0.960 . S
C2272 C2273 1.391 . S
C2272 C2274 1.394 . S
C2272 H2288 0.931 . S
C2273 C2272 1.391 . S
C2273 C2277 1.376 . S
C2274 C2272 1.394 . S
C2274 C2275 1.369 . S
C2274 C2278 1.531 . S
C2275 C2274 1.369 . S
C2275 C2276 1.410 . S
C2275 C2283 1.503 1_455 S
C2276 C2275 1.410 . S
C2276 C2277 1.392 . S
C2276 C2279 1.511 1_455 S
C2277 C2273 1.376 . S
C2277 C2276 1.392 . S
C2277 H2289 0.929 . S
C2278 C2274 1.531 . S
C2278 H2290 0.960 . S
C2278 H2291 0.962 . S
C2278 H2292 0.960 . S
C2279 C2276 1.511 1_655 S
C2279 H2293 0.976 . S
C2279 H2294 0.961 . S
C2279 H2295 0.961 . S
C2280 C2281 1.370 . S
C2280 C2282 1.363 . S
C2280 H2296 0.931 . S
C2281 C2280 1.370 . S
C2281 C2285 1.408 . S
C2282 C2280 1.363 . S
C2282 C2283 1.370 . S
C2282 C2286 1.524 . S
C2283 C2275 1.503 1_655 S
C2283 C2282 1.370 . S
C2283 C2284 1.403 . S
C2284 C2283 1.403 . S
C2284 C2285 1.404 . S
C2284 C2287 1.539 . S
C2285 C2281 1.408 . S
C2285 C2284 1.404 . S
C2285 H2297 0.930 . S
C2286 C2282 1.524 . S
C2286 H2298 0.956 1_655 S
C2286 H2299 0.961 . S
C2286 H2300 0.961 . S
C2287 C2284 1.539 . S
C2287 H2301 0.958 . S
C2287 H2302 0.961 . S
C2287 H2303 0.960 . S
H2288 C2272 0.931 . S
H2289 C2277 0.929 . S
H2290 C2278 0.960 . S
H2291 C2278 0.962 . S
H2292 C2278 0.960 . S
H2293 C2279 0.976 . S
H2294 C2279 0.961 . S
H2295 C2279 0.961 . S
H2296 C2280 0.931 . S
H2297 C2285 0.930 . S
H2298 C2286 0.956 1_455 S
H2299 C2286 0.961 . S
H2300 C2286 0.961 . S
H2301 C2287 0.958 . S
H2302 C2287 0.961 . S
H2303 C2287 0.960 . S
C2304 C2305 1.391 . S
C2304 C2306 1.394 . S
C2304 H2320 0.931 . S
C2305 C2304 1.391 . S
C2305 C2309 1.376 . S
C2306 C2304 1.394 . S
C2306 C2307 1.369 . S
C2306 C2310 1.531 1_545 S
C2307 C2306 1.369 . S
C2307 C2308 1.410 . S
C2307 C2315 1.503 1_545 S
C2308 C2307 1.410 . S
C2308 C2309 1.392 . S
C2308 C2311 1.511 . S
C2309 C2305 1.376 . S
C2309 C2308 1.392 . S
C2309 H2321 0.929 . S
C2310 C2306 1.531 1_565 S
C2310 H2322 0.960 . S
C2310 H2323 0.962 . S
C2310 H2324 0.968 . S
C2311 C2308 1.511 . S
C2311 H2325 0.961 . S
C2311 H2326 0.961 . S
C2311 H2327 0.961 . S
C2312 C2313 1.370 . S
C2312 C2314 1.363 . S
C2312 H2328 0.931 . S
C2313 C2312 1.370 . S
C2313 C2317 1.408 . S
C2314 C2312 1.363 . S
C2314 C2315 1.370 . S
C2314 C2318 1.524 . S
C2315 C2307 1.503 1_565 S
C2315 C2314 1.370 . S
C2315 C2316 1.403 . S
C2316 C2315 1.403 . S
C2316 C2317 1.404 . S
C2316 C2319 1.539 . S
C2317 C2313 1.408 . S
C2317 C2316 1.404 . S
C2317 H2329 0.930 . S
C2318 C2314 1.524 . S
C2318 H2330 0.956 . S
C2318 H2331 0.961 1_565 S
C2318 H2332 0.961 . S
C2319 C2316 1.539 . S
C2319 H2333 0.958 . S
C2319 H2334 0.961 . S
C2319 H2335 0.960 1_565 S
H2320 C2304 0.931 . S
H2321 C2309 0.929 . S
H2322 C2310 0.960 . S
H2323 C2310 0.962 . S
H2324 C2310 0.968 . S
H2325 C2311 0.961 . S
H2326 C2311 0.961 . S
H2327 C2311 0.961 . S
H2328 C2312 0.931 . S
H2329 C2317 0.930 . S
H2330 C2318 0.956 . S
H2331 C2318 0.961 1_545 S
H2332 C2318 0.961 . S
H2333 C2319 0.958 . S
H2334 C2319 0.961 . S
H2335 C2319 0.960 1_545 S
C2336 C2337 1.391 . S
C2336 C2338 1.394 . S
C2336 H2352 0.931 . S
C2337 C2336 1.391 . S
C2337 C2341 1.376 . S
C2338 C2336 1.394 . S
C2338 C2339 1.369 . S
C2338 C2342 1.531 1_655 S
C2339 C2338 1.369 . S
C2339 C2340 1.410 . S
C2339 C2347 1.503 1_655 S
C2340 C2339 1.410 . S
C2340 C2341 1.392 . S
C2340 C2343 1.511 . S
C2341 C2337 1.376 . S
C2341 C2340 1.392 . S
C2341 H2353 0.929 . S
C2342 C2338 1.531 1_455 S
C2342 H2354 0.960 . S
C2342 H2355 0.962 . S
C2342 H2356 0.960 1_455 S
C2343 C2340 1.511 . S
C2343 H2357 0.961 . S
C2343 H2358 0.961 . S
C2343 H2359 0.961 . S
C2344 C2345 1.370 . S
C2344 C2346 1.363 . S
C2344 H2360 0.931 . S
C2345 C2344 1.370 . S
C2345 C2349 1.408 . S
C2346 C2344 1.363 . S
C2346 C2347 1.370 . S
C2346 C2350 1.524 1_455 S
C2347 C2339 1.503 1_455 S
C2347 C2346 1.370 . S
C2347 C2348 1.403 . S
C2348 C2347 1.403 . S
C2348 C2349 1.404 . S
C2348 C2351 1.539 . S
C2349 C2345 1.408 . S
C2349 C2348 1.404 . S
C2349 H2361 0.930 . S
C2350 C2346 1.524 1_655 S
C2350 H2362 0.956 . S
C2350 H2363 0.961 . S
C2350 H2364 0.961 1_655 S
C2351 C2348 1.539 . S
C2351 H2365 0.958 . S
C2351 H2366 0.961 . S
C2351 H2367 0.960 . S
H2352 C2336 0.931 . S
H2353 C2341 0.929 . S
H2354 C2342 0.960 . S
H2355 C2342 0.962 . S
H2356 C2342 0.960 1_655 S
H2357 C2343 0.961 . S
H2358 C2343 0.961 . S
H2359 C2343 0.961 . S
H2360 C2344 0.931 . S
H2361 C2349 0.930 . S
H2362 C2350 0.956 . S
H2363 C2350 0.961 . S
H2364 C2350 0.961 1_455 S
H2365 C2351 0.958 . S
H2366 C2351 0.961 . S
H2367 C2351 0.960 . S
C2368 C2369 1.391 . S
C2368 C2370 1.394 . S
C2368 H2384 0.931 . S
C2369 C2368 1.391 . S
C2369 C2373 1.376 . S
C2370 C2368 1.394 . S
C2370 C2371 1.369 . S
C2370 C2374 1.531 . S
C2371 C2370 1.369 . S
C2371 C2372 1.410 . S
C2371 C2379 1.503 1_565 S
C2372 C2371 1.410 . S
C2372 C2373 1.392 . S
C2372 C2375 1.511 . S
C2373 C2369 1.376 . S
C2373 C2372 1.392 . S
C2373 H2385 0.929 . S
C2374 C2370 1.531 . S
C2374 H2386 0.960 1_565 S
C2374 H2387 0.962 . S
C2374 H2388 0.960 . S
C2375 C2372 1.511 . S
C2375 H2389 0.961 . S
C2375 H2390 0.923 1_565 S
C2375 H2391 0.961 . S
C2376 C2377 1.370 . S
C2376 C2378 1.363 . S
C2376 H2392 0.931 . S
C2377 C2376 1.370 . S
C2377 C2381 1.408 . S
C2378 C2376 1.363 . S
C2378 C2379 1.370 . S
C2378 C2382 1.524 1_545 S
C2379 C2371 1.503 1_545 S
C2379 C2378 1.370 . S
C2379 C2380 1.403 . S
C2380 C2379 1.403 . S
C2380 C2381 1.404 . S
C2380 C2383 1.539 . S
C2381 C2377 1.408 . S
C2381 C2380 1.404 . S
C2381 H2393 0.930 . S
C2382 C2378 1.524 1_565 S
C2382 H2394 0.956 . S
C2382 H2395 0.961 . S
C2382 H2396 0.961 . S
C2383 C2380 1.539 . S
C2383 H2397 0.958 . S
C2383 H2398 0.961 . S
C2383 H2399 0.960 . S
H2384 C2368 0.931 . S
H2385 C2373 0.929 . S
H2386 C2374 0.960 1_545 S
H2387 C2374 0.962 . S
H2388 C2374 0.960 . S
H2389 C2375 0.961 . S
H2390 C2375 0.923 1_545 S
H2391 C2375 0.961 . S
H2392 C2376 0.931 . S
H2393 C2381 0.930 . S
H2394 C2382 0.956 . S
H2395 C2382 0.961 . S
H2396 C2382 0.961 . S
H2397 C2383 0.958 . S
H2398 C2383 0.961 . S
H2399 C2383 0.960 . S
C2400 C2401 1.391 . S
C2400 C2402 1.394 . S
C2400 H2416 0.931 . S
C2401 C2400 1.391 . S
C2401 C2405 1.376 . S
C2402 C2400 1.394 . S
C2402 C2403 1.369 . S
C2402 C2406 1.531 1_455 S
C2403 C2402 1.369 . S
C2403 C2404 1.410 . S
C2403 C2411 1.503 1_455 S
C2404 C2403 1.410 . S
C2404 C2405 1.392 . S
C2404 C2407 1.511 . S
C2405 C2401 1.376 . S
C2405 C2404 1.392 . S
C2405 H2417 0.929 . S
C2406 C2402 1.531 1_655 S
C2406 H2418 0.960 . S
C2406 H2419 0.962 . S
C2406 H2420 0.954 1_655 S
C2407 C2404 1.511 . S
C2407 H2421 0.961 . S
C2407 H2422 0.961 . S
C2407 H2423 0.961 . S
C2408 C2409 1.370 . S
C2408 C2410 1.363 . S
C2408 H2424 0.931 . S
C2409 C2408 1.370 . S
C2409 C2413 1.408 . S
C2410 C2408 1.363 . S
C2410 C2411 1.370 . S
C2410 C2414 1.524 . S
C2411 C2403 1.503 1_655 S
C2411 C2410 1.370 . S
C2411 C2412 1.403 . S
C2412 C2411 1.403 . S
C2412 C2413 1.404 . S
C2412 C2415 1.539 . S
C2413 C2409 1.408 . S
C2413 C2412 1.404 . S
C2413 H2425 0.930 . S
C2414 C2410 1.524 . S
C2414 H2426 0.956 . S
C2414 H2427 0.961 1_655 S
C2414 H2428 0.961 . S
C2415 C2412 1.539 . S
C2415 H2429 0.958 . S
C2415 H2430 0.961 . S
C2415 H2431 0.960 1_655 S
H2416 C2400 0.931 . S
H2417 C2405 0.929 . S
H2418 C2406 0.960 . S
H2419 C2406 0.962 . S
H2420 C2406 0.954 1_455 S
H2421 C2407 0.961 . S
H2422 C2407 0.961 . S
H2423 C2407 0.961 . S
H2424 C2408 0.931 . S
H2425 C2413 0.930 . S
H2426 C2414 0.956 . S
H2427 C2414 0.961 1_455 S
H2428 C2414 0.961 . S
H2429 C2415 0.958 . S
H2430 C2415 0.961 . S
H2431 C2415 0.960 1_455 S
C1409 C489 0.951 . S
C1417 C20 0.952 . S
C1441 C577 0.953 . S
C1449 C117 0.949 . S
C1473 C196 0.950 . S
C1481 C665 0.949 . S
C1505 C293 0.954 . S
C1513 C401 0.949 . S
C1537 C1173 0.944 . S
C1545 C753 0.952 . S
C1569 C1261 0.952 . S
C1577 C841 0.949 . S
C1601 C929 0.954 . S
C1609 C1349 0.950 . S
C1633 C1017 0.953 . S
C1641 C1085 0.949 . S
C1665 C909 1.501 . S
C1673 C57 1.506 . S
C1697 C997 1.503 . S
C1705 C137 1.504 . S
C1729 C733 1.496 . S
C1737 C233 1.503 . S
C1761 C313 1.506 . S
C1769 C821 1.507 . S
C1793 C1281 1.506 . S
C1801 C381 1.506 . S
C1825 C1369 1.497 . S
C1833 C469 1.504 . S
C1857 C557 1.503 . S
C1865 C1105 1.504 . S
C1889 C1193 1.501 . S
C1897 C645 1.503 . S
C1921 C409 1.408 . S
C1929 C29 1.410 . S
C1953 C108 1.423 . S
C1961 C497 1.418 . S
C1985 C205 1.396 . S
C1993 C585 1.408 . S
C2017 C673 1.421 . S
C2025 C284 1.416 . S
C2049 C724 1.437 . S
C2057 C1113 1.443 . S
C2081 C1201 1.449 . S
C2089 C812 1.453 . S
C2113 C900 1.438 . S
C2121 C1289 1.448 . S
C2145 C1377 1.457 . S
C2153 C988 1.453 . S
C2177 C1025 1.404 . S
C2185 C1164 1.409 . S
C2209 C761 1.409 . S
C2217 C1252 1.415 . S
C2241 C1340 1.415 . S
C2249 C849 1.413 . S
C2273 C937 1.423 . S
C2281 C1076 1.418 . S
C2305 C460 1.456 . S
C2313 C321 1.454 . S
C2337 C548 1.456 . S
C2345 C49 1.451 . S
C2369 C636 1.450 . S
C2377 C145 1.447 . S
C2401 C372 1.455 . S
C2409 C225 1.454 . S
