# Generated by pormake.
# Topology ume, (4)-cn, num edge types: 1
# Building blocks:
#     Node 0, Type 0, BuildingBlock: QUQFOY_clean_sbu_1, # of connection points: 4
#     Node 1, Type 0, BuildingBlock: QUQFOY_clean_sbu_1, # of connection points: 4
#     Node 2, Type 0, BuildingBlock: QUQFOY_clean_sbu_1, # of connection points: 4
#     Node 3, Type 0, BuildingBlock: QUQFOY_clean_sbu_1, # of connection points: 4
#     Node 4, Type 0, BuildingBlock: QUQFOY_clean_sbu_1, # of connection points: 4
#     Node 5, Type 0, BuildingBlock: QUQFOY_clean_sbu_1, # of connection points: 4
#     Node 6, Type 0, BuildingBlock: QUQFOY_clean_sbu_1, # of connection points: 4
#     Node 7, Type 0, BuildingBlock: QUQFOY_clean_sbu_1, # of connection points: 4
#     Node 8, Type 0, BuildingBlock: QUQFOY_clean_sbu_1, # of connection points: 4
#     Node 9, Type 0, BuildingBlock: QUQFOY_clean_sbu_1, # of connection points: 4
#     Node 10, Type 0, BuildingBlock: QUQFOY_clean_sbu_1, # of connection points: 4
#     Node 11, Type 0, BuildingBlock: QUQFOY_clean_sbu_1, # of connection points: 4
#     Node 12, Type 0, BuildingBlock: QUQFOY_clean_sbu_1, # of connection points: 4
#     Node 13, Type 0, BuildingBlock: QUQFOY_clean_sbu_1, # of connection points: 4
#     Node 14, Type 0, BuildingBlock: QUQFOY_clean_sbu_1, # of connection points: 4
#     Node 15, Type 0, BuildingBlock: QUQFOY_clean_sbu_1, # of connection points: 4
#     Edge 16, Type (0, 0), BuildingBlock: XIVTED_clean_linker_0, # of connection points: 2
#     Edge 17, Type (0, 0), BuildingBlock: XIVTED_clean_linker_0, # of connection points: 2
#     Edge 18, Type (0, 0), BuildingBlock: XIVTED_clean_linker_0, # of connection points: 2
#     Edge 19, Type (0, 0), BuildingBlock: XIVTED_clean_linker_0, # of connection points: 2
#     Edge 20, Type (0, 0), BuildingBlock: XIVTED_clean_linker_0, # of connection points: 2
#     Edge 21, Type (0, 0), BuildingBlock: XIVTED_clean_linker_0, # of connection points: 2
#     Edge 22, Type (0, 0), BuildingBlock: XIVTED_clean_linker_0, # of connection points: 2
#     Edge 23, Type (0, 0), BuildingBlock: XIVTED_clean_linker_0, # of connection points: 2
#     Edge 24, Type (0, 0), BuildingBlock: XIVTED_clean_linker_0, # of connection points: 2
#     Edge 25, Type (0, 0), BuildingBlock: XIVTED_clean_linker_0, # of connection points: 2
#     Edge 26, Type (0, 0), BuildingBlock: XIVTED_clean_linker_0, # of connection points: 2
#     Edge 27, Type (0, 0), BuildingBlock: XIVTED_clean_linker_0, # of connection points: 2
#     Edge 28, Type (0, 0), BuildingBlock: XIVTED_clean_linker_0, # of connection points: 2
#     Edge 29, Type (0, 0), BuildingBlock: XIVTED_clean_linker_0, # of connection points: 2
#     Edge 30, Type (0, 0), BuildingBlock: XIVTED_clean_linker_0, # of connection points: 2
#     Edge 31, Type (0, 0), BuildingBlock: XIVTED_clean_linker_0, # of connection points: 2
#     Edge 32, Type (0, 0), BuildingBlock: XIVTED_clean_linker_0, # of connection points: 2
#     Edge 33, Type (0, 0), BuildingBlock: XIVTED_clean_linker_0, # of connection points: 2
#     Edge 34, Type (0, 0), BuildingBlock: XIVTED_clean_linker_0, # of connection points: 2
#     Edge 35, Type (0, 0), BuildingBlock: XIVTED_clean_linker_0, # of connection points: 2
#     Edge 36, Type (0, 0), BuildingBlock: XIVTED_clean_linker_0, # of connection points: 2
#     Edge 37, Type (0, 0), BuildingBlock: XIVTED_clean_linker_0, # of connection points: 2
#     Edge 38, Type (0, 0), BuildingBlock: XIVTED_clean_linker_0, # of connection points: 2
#     Edge 39, Type (0, 0), BuildingBlock: XIVTED_clean_linker_0, # of connection points: 2
#     Edge 40, Type (0, 0), BuildingBlock: XIVTED_clean_linker_0, # of connection points: 2
#     Edge 41, Type (0, 0), BuildingBlock: XIVTED_clean_linker_0, # of connection points: 2
#     Edge 42, Type (0, 0), BuildingBlock: XIVTED_clean_linker_0, # of connection points: 2
#     Edge 43, Type (0, 0), BuildingBlock: XIVTED_clean_linker_0, # of connection points: 2
#     Edge 44, Type (0, 0), BuildingBlock: XIVTED_clean_linker_0, # of connection points: 2
#     Edge 45, Type (0, 0), BuildingBlock: XIVTED_clean_linker_0, # of connection points: 2
#     Edge 46, Type (0, 0), BuildingBlock: XIVTED_clean_linker_0, # of connection points: 2
#     Edge 47, Type (0, 0), BuildingBlock: XIVTED_clean_linker_0, # of connection points: 2
# Relax obj value: 0.052
# Max RMSD: 0.121
# Mean RMSD: 0.121
data_MOF--net-ume--node1-QUQFOY_clean_sbu_1--edge1-XIVTED_clean_linker_0
_symmetry_space_group_name_H-M    P1
_symmetry_Int_Tables_number       1
_symmetry_cell_setting            triclinic
loop_
_symmetry_equiv_pos_as_xyz
'x, y, z'
_cell_length_a     28.900048
_cell_length_b     28.892706
_cell_length_c     115.5516
_cell_angle_alpha  89.957566
_cell_angle_beta   89.979436
_cell_angle_gamma 89.983769
loop_
_atom_site_label
_atom_site_type_symbol
_atom_site_fract_x
_atom_site_fract_y
_atom_site_fract_z
_atom_type_partial_charge
O0 O 0.2512 0.09337 0.33566 0.0
Cd1 Cd 0.24973 0.0732 0.31853 0.0
Cd2 Cd 0.28661 0.15769 0.31659 0.0
O3 O 0.2656 0.16791 0.33361 0.0
O4 O 0.20375 0.0209 0.31766 0.0
O5 O 0.19186 0.08917 0.3096 0.0
C6 C 0.17648 0.04844 0.3121 0.0
C7 C 0.26562 0.19948 0.30016 0.0
C8 C 0.25593 0.13347 0.34006 0.0
C9 C 0.34933 0.07712 0.31179 0.0
O10 O 0.34626 0.11975 0.3144 0.0
O11 O 0.31315 0.05183 0.31168 0.0
O12 O 0.295 0.21614 0.30749 0.0
O13 O 0.2454 0.16094 0.30273 0.0
O14 O 0.9206 0.74878 0.58505 0.0
Cd15 Cd 0.94024 0.74749 0.56788 0.0
Cd16 Cd 0.85622 0.78572 0.56612 0.0
O17 O 0.84629 0.76458 0.58315 0.0
O18 O 0.99185 0.70082 0.56682 0.0
O19 O 0.92321 0.69023 0.55887 0.0
C20 C 0.96379 0.67419 0.56125 0.0
C21 C 0.81411 0.76535 0.5497 0.0
C22 C 0.8807 0.75413 0.58953 0.0
C23 C 0.93752 0.84723 0.56123 0.0
O24 O 0.89493 0.84484 0.56392 0.0
O25 O 0.96223 0.81066 0.56105 0.0
O26 O 0.79779 0.79484 0.55705 0.0
O27 O 0.85243 0.74468 0.55224 0.0
O28 O 0.26847 0.41302 0.83521 0.0
Cd29 Cd 0.26673 0.43842 0.81852 0.0
Cd30 Cd 0.2273 0.35499 0.81602 0.0
O31 O 0.24801 0.34021 0.83284 0.0
O32 O 0.31152 0.49127 0.81957 0.0
O33 O 0.32361 0.43038 0.80844 0.0
C34 C 0.33865 0.46877 0.81273 0.0
C35 C 0.24881 0.31658 0.79915 0.0
C36 C 0.2617 0.37285 0.83938 0.0
C37 C 0.16608 0.43824 0.81261 0.0
O38 O 0.16853 0.39485 0.81438 0.0
O39 O 0.20266 0.46294 0.81285 0.0
O40 O 0.21858 0.29895 0.80613 0.0
O41 O 0.26933 0.35433 0.80227 0.0
O42 O 0.60481 0.76692 0.08597 0.0
Cd43 Cd 0.57954 0.7637 0.06931 0.0
Cd44 Cd 0.66402 0.7263 0.06706 0.0
O45 O 0.67838 0.74909 0.08371 0.0
O46 O 0.52535 0.80692 0.07044 0.0
O47 O 0.5857 0.82119 0.05929 0.0
C48 C 0.54708 0.83511 0.06371 0.0
C49 C 0.70157 0.74666 0.04998 0.0
C50 C 0.64517 0.76199 0.09017 0.0
C51 C 0.58273 0.66237 0.06413 0.0
O52 O 0.62591 0.6663 0.06599 0.0
O53 O 0.55701 0.69831 0.06392 0.0
O54 O 0.7201 0.71781 0.05717 0.0
O55 O 0.66332 0.7666 0.05297 0.0
O56 O 0.24953 0.41407 0.9301 0.0
Cd57 Cd 0.24883 0.43865 0.94687 0.0
Cd58 Cd 0.28656 0.35491 0.94959 0.0
O59 O 0.26633 0.34044 0.93273 0.0
O60 O 0.20312 0.49086 0.94588 0.0
O61 O 0.19147 0.42888 0.95668 0.0
C62 C 0.17604 0.46742 0.95255 0.0
C63 C 0.2664 0.31491 0.96635 0.0
C64 C 0.25539 0.37362 0.92601 0.0
C65 C 0.34868 0.43756 0.95318 0.0
O66 O 0.34564 0.39429 0.95132 0.0
O67 O 0.31245 0.4628 0.95293 0.0
O68 O 0.29636 0.29815 0.95918 0.0
O69 O 0.24522 0.35263 0.96347 0.0
O70 O 0.59767 0.75321 0.18076 0.0
Cd71 Cd 0.57555 0.75098 0.19773 0.0
Cd72 Cd 0.65962 0.78671 0.20037 0.0
O73 O 0.67224 0.76518 0.1835 0.0
O74 O 0.52284 0.70535 0.19811 0.0
O75 O 0.59014 0.69243 0.20655 0.0
C76 C 0.5496 0.67749 0.20372 0.0
C77 C 0.69951 0.76588 0.21711 0.0
C78 C 0.63848 0.75697 0.17672 0.0
C79 C 0.57927 0.85058 0.20427 0.0
O80 O 0.62212 0.84704 0.20194 0.0
O81 O 0.55383 0.81449 0.20446 0.0
O82 O 0.7171 0.7949 0.20981 0.0
O83 O 0.66093 0.7461 0.21439 0.0
O84 O 0.26748 0.09888 0.43116 0.0
Cd85 Cd 0.26658 0.07523 0.448 0.0
Cd86 Cd 0.22781 0.15887 0.45024 0.0
O87 O 0.24856 0.17223 0.43334 0.0
O88 O 0.31183 0.02259 0.4474 0.0
O89 O 0.32339 0.08525 0.45793 0.0
C90 C 0.33874 0.04632 0.45403 0.0
C91 C 0.24888 0.19845 0.46698 0.0
C92 C 0.26114 0.13892 0.42686 0.0
C93 C 0.16627 0.07625 0.45407 0.0
O94 O 0.16885 0.11946 0.45205 0.0
O95 O 0.20275 0.05139 0.45396 0.0
O96 O 0.21903 0.21574 0.45986 0.0
O97 O 0.2694 0.16044 0.46407 0.0
O98 O 0.92288 0.76431 0.68101 0.0
Cd99 Cd 0.94235 0.76531 0.6982 0.0
Cd100 Cd 0.85815 0.72716 0.69983 0.0
O101 O 0.84859 0.74815 0.68277 0.0
O102 O 0.99468 0.81114 0.69919 0.0
O103 O 0.9263 0.82296 0.70718 0.0
C104 C 0.9671 0.8383 0.70476 0.0
C105 C 0.81655 0.74865 0.71624 0.0
C106 C 0.88314 0.75887 0.67646 0.0
C107 C 0.9392 0.66551 0.70485 0.0
O108 O 0.89666 0.66795 0.70212 0.0
O109 O 0.96396 0.70203 0.70503 0.0
O110 O 0.79984 0.71891 0.70901 0.0
O111 O 0.85496 0.76888 0.71357 0.0
O112 O 0.7485 0.60245 0.83557 0.0
Cd113 Cd 0.74792 0.57747 0.81884 0.0
Cd114 Cd 0.78629 0.6607 0.81603 0.0
O115 O 0.76634 0.67579 0.8329 0.0
O116 O 0.70303 0.52474 0.82006 0.0
O117 O 0.69018 0.58606 0.80911 0.0
C118 C 0.67544 0.5475 0.81338 0.0
C119 C 0.76461 0.69892 0.79913 0.0
C120 C 0.7548 0.64287 0.83963 0.0
C121 C 0.84784 0.57777 0.81252 0.0
O122 O 0.84528 0.62111 0.81433 0.0
O123 O 0.81135 0.55296 0.8128 0.0
O124 O 0.79486 0.71665 0.80607 0.0
O125 O 0.74409 0.66124 0.80231 0.0
O126 O 0.40211 0.24293 0.08813 0.0
Cd127 Cd 0.43601 0.2446 0.07232 0.0
Cd128 Cd 0.35501 0.28529 0.06645 0.0
O129 O 0.33365 0.27049 0.08314 0.0
O130 O 0.48643 0.19775 0.07453 0.0
O131 O 0.43035 0.18881 0.06175 0.0
C132 C 0.46623 0.17206 0.06694 0.0
C133 C 0.31599 0.26587 0.04947 0.0
C134 C 0.36089 0.25418 0.09076 0.0
C135 C 0.44049 0.34469 0.06516 0.0
O136 O 0.39662 0.34236 0.06486 0.0
O137 O 0.46439 0.30852 0.06732 0.0
O138 O 0.30062 0.29779 0.05628 0.0
O139 O 0.35185 0.24257 0.05277 0.0
O140 O 0.76522 0.92209 0.33546 0.0
Cd141 Cd 0.76678 0.94243 0.31834 0.0
Cd142 Cd 0.73005 0.85798 0.31635 0.0
O143 O 0.75093 0.84756 0.33338 0.0
O144 O 0.81272 0.99476 0.3175 0.0
O145 O 0.82472 0.92659 0.30942 0.0
C146 C 0.84006 0.96729 0.31195 0.0
C147 C 0.75113 0.8164 0.29991 0.0
C148 C 0.7605 0.88194 0.33985 0.0
C149 C 0.66721 0.9385 0.31161 0.0
O150 O 0.67032 0.89583 0.31419 0.0
O151 O 0.70335 0.96383 0.3115 0.0
O152 O 0.72179 0.79961 0.30724 0.0
O153 O 0.77126 0.85495 0.30248 0.0
O154 O 0.09018 0.26457 0.58499 0.0
Cd155 Cd 0.07093 0.2656 0.56779 0.0
Cd156 Cd 0.15506 0.22729 0.5662 0.0
O157 O 0.1645 0.24846 0.58325 0.0
O158 O 0.01918 0.31212 0.56667 0.0
O159 O 0.08792 0.32291 0.55877 0.0
C160 C 0.04728 0.33885 0.56112 0.0
C161 C 0.19738 0.24804 0.54984 0.0
C162 C 0.12992 0.25916 0.58954 0.0
C163 C 0.07391 0.16576 0.56121 0.0
O164 O 0.11644 0.16816 0.56396 0.0
O165 O 0.04919 0.20233 0.56098 0.0
O166 O 0.21368 0.21849 0.55719 0.0
O167 O 0.15893 0.2685 0.55235 0.0
O168 O 0.74712 0.9162 0.43094 0.0
Cd169 Cd 0.74755 0.93963 0.44779 0.0
Cd170 Cd 0.78603 0.85601 0.45008 0.0
O171 O 0.76561 0.84276 0.43315 0.0
O172 O 0.70282 0.99265 0.44709 0.0
O173 O 0.69015 0.93001 0.45757 0.0
C174 C 0.67535 0.96913 0.45363 0.0
C175 C 0.7645 0.81645 0.4668 0.0
C176 C 0.7534 0.87616 0.42665 0.0
C177 C 0.84771 0.93836 0.45398 0.0
O178 O 0.8451 0.8952 0.45194 0.0
O179 O 0.81126 0.96326 0.45386 0.0
O180 O 0.79442 0.79908 0.4597 0.0
O181 O 0.74418 0.85456 0.46387 0.0
O182 O 0.09245 0.24881 0.68095 0.0
Cd183 Cd 0.07269 0.24739 0.69812 0.0
Cd184 Cd 0.15674 0.28542 0.69989 0.0
O185 O 0.16676 0.26453 0.68285 0.0
O186 O 0.0205 0.2014 0.69907 0.0
O187 O 0.08883 0.18969 0.70709 0.0
C188 C 0.04808 0.17428 0.70465 0.0
C189 C 0.19824 0.26425 0.71634 0.0
C190 C 0.13234 0.25417 0.67647 0.0
C191 C 0.07562 0.34704 0.70482 0.0
O192 O 0.11819 0.34463 0.70212 0.0
O193 O 0.05087 0.31051 0.70498 0.0
O194 O 0.21492 0.29395 0.70908 0.0
O195 O 0.15993 0.24384 0.71368 0.0
O196 O 0.76803 0.60225 0.93044 0.0
Cd197 Cd 0.76679 0.57713 0.94716 0.0
Cd198 Cd 0.72859 0.66102 0.94967 0.0
O199 O 0.74963 0.6756 0.93286 0.0
O200 O 0.81106 0.52381 0.94604 0.0
O201 O 0.82441 0.58484 0.95702 0.0
C202 C 0.83887 0.54622 0.95272 0.0
C203 C 0.74906 0.6997 0.96658 0.0
C204 C 0.76214 0.64258 0.92628 0.0
C205 C 0.66625 0.57865 0.95312 0.0
O206 O 0.66935 0.62192 0.95124 0.0
O207 O 0.70251 0.55342 0.95297 0.0
O208 O 0.71944 0.71732 0.95944 0.0
O209 O 0.76978 0.66187 0.96359 0.0
O210 O 0.40688 0.27063 0.17879 0.0
Cd211 Cd 0.43784 0.26948 0.19498 0.0
Cd212 Cd 0.35644 0.22915 0.20049 0.0
O213 O 0.33748 0.24488 0.18366 0.0
O214 O 0.48894 0.31669 0.19451 0.0
O215 O 0.4259 0.32516 0.20511 0.0
C216 C 0.46449 0.34204 0.20137 0.0
C217 C 0.3165 0.24944 0.21729 0.0
C218 C 0.36551 0.26016 0.17607 0.0
C219 C 0.44096 0.1695 0.20255 0.0
O220 O 0.39707 0.17148 0.20235 0.0
O221 O 0.46487 0.20584 0.20062 0.0
O222 O 0.3009 0.21789 0.21041 0.0
O223 O 0.35308 0.27189 0.21415 0.0
H224 H 0.87891 0.05389 0.31262 0.0
H225 H 0.13761 0.96184 0.31273 0.0
H226 H 0.91254 0.91083 0.30604 0.0
H227 H 0.10409 0.10496 0.30615 0.0
H228 H 0.05551 0.94217 0.3108 0.0
H229 H 0.96104 0.07358 0.31077 0.0
C230 C 0.90348 0.02669 0.31066 0.0
C231 C 0.88875 0.98062 0.3095 0.0
C232 C 0.06619 0.9778 0.30964 0.0
C233 C 0.98303 1.00282 0.30758 0.0
C234 C 0.11307 0.98906 0.31075 0.0
C235 C 0.12782 0.03515 0.30962 0.0
C236 C 0.03358 0.01296 0.30761 0.0
C237 C 0.09437 0.06897 0.30706 0.0
C238 C 0.95038 0.03797 0.3096 0.0
C239 C 0.92224 0.94682 0.30697 0.0
N240 N 0.04881 0.05732 0.3063 0.0
N241 N 0.96782 0.95848 0.30625 0.0
H242 H 0.90616 0.60324 0.55497 0.0
H243 H 0.10491 0.40992 0.5549 0.0
H244 H 0.04972 0.63376 0.56179 0.0
H245 H 0.9613 0.37921 0.56164 0.0
H246 H 0.08499 0.49204 0.55303 0.0
H247 H 0.92606 0.52115 0.55303 0.0
C248 C 0.94198 0.59283 0.55588 0.0
C249 C 0.9763 0.62547 0.55861 0.0
C250 C 0.05781 0.46722 0.55481 0.0
C251 C 0.99925 0.53152 0.55637 0.0
C252 C 0.06907 0.4203 0.55581 0.0
C253 C 0.03474 0.38759 0.5585 0.0
C254 C 0.01178 0.48157 0.55634 0.0
C255 C 0.98892 0.4032 0.55963 0.0
C256 C 0.95323 0.54592 0.55484 0.0
C257 C 0.02211 0.60982 0.55974 0.0
N258 N 0.97879 0.44904 0.55856 0.0
N259 N 0.03223 0.564 0.55864 0.0
H260 H 0.62451 0.49377 0.82791 0.0
H261 H 0.39761 0.44982 0.79456 0.0
H262 H 0.61521 0.56792 0.79556 0.0
H263 H 0.39091 0.52021 0.82743 0.0
H264 H 0.48084 0.46899 0.7934 0.0
H265 H 0.54169 0.47631 0.82664 0.0
C266 C 0.6053 0.50561 0.82042 0.0
C267 C 0.6268 0.53236 0.81182 0.0
C268 C 0.46072 0.48052 0.80076 0.0
C269 C 0.5324 0.51179 0.81029 0.0
C270 C 0.41347 0.46966 0.80144 0.0
C271 C 0.38728 0.48373 0.81107 0.0
C272 C 0.48189 0.50407 0.80996 0.0
C273 C 0.40961 0.50908 0.8198 0.0
C274 C 0.5581 0.49586 0.81976 0.0
C275 C 0.5999 0.54726 0.80238 0.0
N276 N 0.45577 0.51768 0.81914 0.0
N277 N 0.55396 0.53656 0.80182 0.0
H278 H 0.51038 0.11676 0.08243 0.0
H279 H 0.56566 0.89723 0.04611 0.0
H280 H 0.45445 0.11583 0.04781 0.0
H281 H 0.49406 0.88436 0.07872 0.0
H282 H 0.54549 0.98038 0.04575 0.0
H283 H 0.52779 0.03413 0.08059 0.0
C284 C 0.50246 0.09939 0.07436 0.0
C285 C 0.48092 0.12327 0.06525 0.0
C286 C 0.53389 0.95895 0.05288 0.0
C287 C 0.50146 0.02888 0.06309 0.0
C288 C 0.54531 0.9117 0.0531 0.0
C289 C 0.53124 0.88376 0.06243 0.0
C290 C 0.5098 0.97841 0.06224 0.0
C291 C 0.50525 0.9044 0.07131 0.0
C292 C 0.51214 0.05224 0.07337 0.0
C293 C 0.471 0.09867 0.05504 0.0
N294 N 0.49614 0.95055 0.0711 0.0
N295 N 0.48168 0.05274 0.05419 0.0
H296 H 0.11746 0.44714 0.97072 0.0
H297 H 0.88899 0.49205 0.93813 0.0
H298 H 0.12301 0.51907 0.93802 0.0
H299 H 0.90005 0.56645 0.97037 0.0
H300 H 0.97181 0.47431 0.93916 0.0
H301 H 0.03421 0.46611 0.97208 0.0
C302 C 0.10133 0.46722 0.96391 0.0
C303 C 0.12723 0.48183 0.95427 0.0
C304 C 0.95579 0.49395 0.94607 0.0
C305 C 0.03256 0.50201 0.95563 0.0
C306 C 0.90858 0.50387 0.94555 0.0
C307 C 0.88753 0.53078 0.95419 0.0
C308 C 0.98201 0.50987 0.95545 0.0
C309 C 0.91495 0.54565 0.96353 0.0
C310 C 0.05407 0.47799 0.96471 0.0
C311 C 0.10454 0.50752 0.94565 0.0
N312 N 0.96091 0.53479 0.96396 0.0
N313 N 0.05837 0.51605 0.94642 0.0
H314 H 0.55071 0.38077 0.19948 0.0
H315 H 0.46252 0.6397 0.20304 0.0
H316 H 0.41023 0.41358 0.20906 0.0
H317 H 0.60549 0.60371 0.20888 0.0
H318 H 0.44202 0.55749 0.20432 0.0
H319 H 0.57149 0.4624 0.20194 0.0
C320 C 0.52433 0.40505 0.20222 0.0
C321 C 0.47865 0.39027 0.20407 0.0
C322 C 0.47778 0.56767 0.20547 0.0
C323 C 0.50203 0.484 0.20667 0.0
C324 C 0.48953 0.61458 0.20473 0.0
C325 C 0.53581 0.62867 0.20585 0.0
C326 C 0.51268 0.53441 0.20708 0.0
C327 C 0.56935 0.5945 0.208 0.0
C328 C 0.53624 0.45164 0.20363 0.0
C329 C 0.4459 0.42337 0.20759 0.0
N330 N 0.55725 0.54897 0.20838 0.0
N331 N 0.45806 0.46875 0.20862 0.0
H332 H 0.39823 0.07243 0.47148 0.0
H333 H 0.62561 0.02934 0.44043 0.0
H334 H 0.39049 0.98851 0.44066 0.0
H335 H 0.61401 0.94207 0.47063 0.0
H336 H 0.54274 0.04667 0.44188 0.0
H337 H 0.4815 0.05396 0.47292 0.0
C338 C 0.41384 0.04975 0.46512 0.0
C339 C 0.38736 0.03178 0.45596 0.0
C340 C 0.55873 0.02434 0.44826 0.0
C341 C 0.48193 0.01183 0.45743 0.0
C342 C 0.60592 0.01458 0.44751 0.0
C343 C 0.6268 0.98419 0.45543 0.0
C344 C 0.53241 1.00452 0.45715 0.0
C345 C 0.59925 0.9656 0.46434 0.0
C346 C 0.4611 0.0393 0.46596 0.0
C347 C 0.40941 1.00277 0.44791 0.0
N348 N 0.55329 0.97612 0.46498 0.0
N349 N 0.45559 0.99437 0.44871 0.0
H350 H 0.96151 0.13548 0.70415 0.0
H351 H 0.05372 0.87703 0.70425 0.0
H352 H 0.10463 0.1021 0.71072 0.0
H353 H 0.9106 0.91052 0.71081 0.0
H354 H 0.07338 0.95912 0.70622 0.0
H355 H 0.94187 0.05341 0.70619 0.0
C356 C 0.98873 0.11098 0.70615 0.0
C357 C 0.03481 0.12572 0.70724 0.0
C358 C 0.03776 0.94842 0.70737 0.0
C359 C 0.01268 0.03155 0.70938 0.0
C360 C 0.0265 0.90156 0.70624 0.0
C361 C 0.98041 0.88684 0.70734 0.0
C362 C 1.00258 0.98102 0.7094 0.0
C363 C 0.94659 0.92024 0.70991 0.0
C364 C 0.97749 0.06412 0.70733 0.0
C365 C 0.06864 0.09235 0.70983 0.0
N366 N 0.95824 0.96579 0.71069 0.0
N367 N 0.05701 0.0468 0.71065 0.0
H368 H 0.58485 0.89259 0.30942 0.0
H369 H 0.43167 0.12302 0.30955 0.0
H370 H 0.64289 0.03023 0.30904 0.0
H371 H 0.37358 0.98539 0.30917 0.0
H372 H 0.50889 0.08973 0.30783 0.0
H373 H 0.5076 0.92588 0.30779 0.0
C374 C 0.58146 0.92987 0.3089 0.0
C375 C 0.62064 0.95864 0.30946 0.0
C376 C 0.4793 0.06676 0.30803 0.0
C377 C 0.5317 0.99711 0.30764 0.0
C378 C 0.43504 0.08574 0.30902 0.0
C379 C 0.39586 0.05698 0.3096 0.0
C380 C 0.48477 0.01851 0.30768 0.0
C381 C 0.40265 0.00895 0.30879 0.0
C382 C 0.53718 0.94886 0.30797 0.0
C383 C 0.61382 1.00667 0.30868 0.0
N384 N 0.44623 0.99125 0.30796 0.0
N385 N 0.57023 0.02437 0.3079 0.0
H386 H 0.02942 0.86959 0.55821 0.0
H387 H 0.9821 0.14338 0.55808 0.0
H388 H 0.8931 0.93057 0.55936 0.0
H389 H 0.11839 0.08242 0.55946 0.0
H390 H 0.9489 0.06571 0.55634 0.0
H391 H 0.06266 0.94725 0.55646 0.0
C392 C 1.00643 0.89919 0.55798 0.0
C393 C 0.95838 0.89342 0.55903 0.0
C394 C 0.98611 0.06939 0.55694 0.0
C395 C 0.99623 0.98255 0.55708 0.0
C396 C 1.00509 0.11378 0.5579 0.0
C397 C 0.05311 0.11957 0.55901 0.0
C398 C 0.01531 0.03042 0.55707 0.0
C399 C 0.08115 0.07977 0.55872 0.0
C400 C 0.02544 0.94358 0.55701 0.0
C401 C 0.93036 0.93321 0.55867 0.0
N402 N 0.06185 0.03701 0.55785 0.0
N403 N 0.94967 0.97597 0.55779 0.0
H404 H 0.14406 0.53073 0.81055 0.0
H405 H 0.86997 0.48538 0.81035 0.0
H406 H 0.08227 0.3947 0.8108 0.0
H407 H 0.93163 0.62146 0.81077 0.0
H408 H 0.94747 0.45152 0.80902 0.0
H409 H 0.0666 0.56467 0.80916 0.0
C410 C 0.11433 0.50796 0.81022 0.0
C411 C 0.11985 0.45975 0.81087 0.0
C412 C 0.944 0.48882 0.80933 0.0
C413 C 0.0309 0.49842 0.80932 0.0
C414 C 0.89969 0.50818 0.81007 0.0
C415 C 0.89411 0.55637 0.81074 0.0
C416 C 0.98313 0.5178 0.80928 0.0
C417 C 0.93408 0.58412 0.81034 0.0
C418 C 0.07004 0.52738 0.80945 0.0
C419 C 0.07986 0.43205 0.8104 0.0
N420 N 0.97676 0.56446 0.80969 0.0
N421 N 0.03723 0.45175 0.80971 0.0
H422 H 0.6284 0.57932 0.06461 0.0
H423 H 0.39838 0.42653 0.0597 0.0
H424 H 0.49154 0.63731 0.06081 0.0
H425 H 0.53296 0.36845 0.06695 0.0
H426 H 0.43313 0.50304 0.05838 0.0
H427 H 0.59522 0.5018 0.0638 0.0
C428 C 0.59133 0.57587 0.06353 0.0
C429 C 0.56273 0.61519 0.06282 0.0
C430 C 0.45518 0.47363 0.06021 0.0
C431 C 0.52444 0.5259 0.06192 0.0
C432 C 0.43538 0.42971 0.06096 0.0
C433 C 0.4627 0.3907 0.06351 0.0
C434 C 0.50286 0.47905 0.06202 0.0
C435 C 0.51048 0.39737 0.06499 0.0
C436 C 0.57243 0.53142 0.06309 0.0
C437 C 0.51499 0.60819 0.06141 0.0
N438 N 0.52898 0.44069 0.06427 0.0
N439 N 0.49738 0.56448 0.06104 0.0
H440 H 0.43148 0.39241 0.95539 0.0
H441 H 0.58339 0.62384 0.9551 0.0
H442 H 0.37261 0.52974 0.95495 0.0
H443 H 0.64229 0.48651 0.95504 0.0
H444 H 0.50632 0.59005 0.95648 0.0
H445 H 0.50854 0.42624 0.95671 0.0
C446 C 0.43463 0.42974 0.95564 0.0
C447 C 0.39525 0.45824 0.95498 0.0
C448 C 0.53605 0.56724 0.95624 0.0
C449 C 0.48403 0.49732 0.95646 0.0
C450 C 0.58024 0.58651 0.95545 0.0
C451 C 0.61963 0.558 0.95488 0.0
C452 C 0.53084 0.51896 0.95643 0.0
C453 C 0.61306 0.50989 0.95543 0.0
C454 C 0.47882 0.44904 0.9564 0.0
C455 C 0.40182 0.50637 0.95542 0.0
N456 N 0.56955 0.49192 0.9561 0.0
N457 N 0.44533 0.52436 0.95605 0.0
H458 H 0.48817 0.87432 0.20812 0.0
H459 H 0.5339 0.14727 0.20187 0.0
H460 H 0.62406 0.93414 0.20399 0.0
H461 H 0.39909 0.08699 0.20754 0.0
H462 H 0.56831 0.07 0.20368 0.0
H463 H 0.45548 0.95241 0.20903 0.0
C464 C 0.51121 0.90378 0.20751 0.0
C465 C 0.55895 0.89745 0.20592 0.0
C466 C 0.53122 0.07379 0.2046 0.0
C467 C 0.52167 0.98719 0.20686 0.0
C468 C 0.51157 0.11796 0.20358 0.0
C469 C 0.46346 0.1238 0.20448 0.0
C470 C 0.50259 0.03511 0.20651 0.0
C471 C 0.43631 0.08435 0.20671 0.0
C472 C 0.49251 0.94844 0.20801 0.0
C473 C 0.58703 0.93715 0.20518 0.0
N474 N 0.45617 0.04185 0.20757 0.0
N475 N 0.56798 0.98017 0.20558 0.0
H476 H 0.87006 0.03057 0.45638 0.0
H477 H 0.14393 0.98399 0.45638 0.0
H478 H 0.93128 0.89426 0.45574 0.0
H479 H 0.08267 0.12029 0.45583 0.0
H480 H 0.06633 0.95044 0.45782 0.0
H481 H 0.94765 0.06408 0.45785 0.0
C482 C 0.8997 0.00765 0.45665 0.0
C483 C 0.89399 0.9595 0.45586 0.0
C484 C 0.06992 0.98771 0.45745 0.0
C485 C 0.98308 0.99766 0.45749 0.0
C486 C 0.11428 1.0069 0.45666 0.0
C487 C 0.11998 0.05506 0.45591 0.0
C488 C 0.0309 0.01685 0.4575 0.0
C489 C 0.08011 0.08296 0.45631 0.0
C490 C 0.94406 0.02681 0.45746 0.0
C491 C 0.93385 0.93158 0.45625 0.0
N492 N 0.03739 0.06348 0.45702 0.0
N493 N 0.97657 0.95104 0.45697 0.0
H494 H 0.98376 0.36939 0.7079 0.0
H495 H 0.031 0.64312 0.70799 0.0
H496 H 0.12006 0.43034 0.70669 0.0
H497 H 0.89472 0.58219 0.70666 0.0
H498 H 0.06423 0.56545 0.70975 0.0
H499 H 0.95051 0.44703 0.70969 0.0
C500 C 1.00674 0.39898 0.70813 0.0
C501 C 0.05478 0.39321 0.70705 0.0
C502 C 0.02702 0.56913 0.70916 0.0
C503 C 0.01692 0.48232 0.70903 0.0
C504 C 0.00802 0.61353 0.70818 0.0
C505 C 0.95999 0.61931 0.70707 0.0
C506 C 0.99782 0.53017 0.70904 0.0
C507 C 0.93197 0.57953 0.70739 0.0
C508 C 0.98773 0.44336 0.70911 0.0
C509 C 0.0828 0.43299 0.7074 0.0
N510 N 0.95128 0.53677 0.70827 0.0
N511 N 0.06348 0.47573 0.70829 0.0
H512 H 0.24507 0.0645 0.35585 0.0
H513 H 0.24182 0.21576 0.4132 0.0
H514 H 0.26228 0.21273 0.35356 0.0
H515 H 0.28824 0.07385 0.41129 0.0
H516 H 0.23997 0.21827 0.39185 0.0
H517 H 0.24814 0.06983 0.37675 0.0
C518 C 0.2492 0.09837 0.35972 0.0
C519 C 0.25374 0.13822 0.35286 0.0
C520 C 0.25091 0.18689 0.39619 0.0
C521 C 0.25747 0.14444 0.37705 0.0
C522 C 0.25208 0.18541 0.40834 0.0
C523 C 0.26479 0.14439 0.4141 0.0
C524 C 0.26187 0.14688 0.38983 0.0
C525 C 0.27773 0.10614 0.40733 0.0
C526 C 0.25124 0.10131 0.37171 0.0
C527 C 0.25884 0.18108 0.35851 0.0
N528 N 0.27545 0.10823 0.39563 0.0
N529 N 0.26056 0.18313 0.37031 0.0
H530 H 0.80228 0.76412 0.60319 0.0
H531 H 0.95183 0.77713 0.66101 0.0
H532 H 0.94945 0.73932 0.60519 0.0
H533 H 0.80562 0.74679 0.66259 0.0
H534 H 0.94808 0.77508 0.64008 0.0
H535 H 0.79946 0.76651 0.62452 0.0
C536 C 0.83383 0.75883 0.60807 0.0
C537 C 0.87621 0.75171 0.60234 0.0
C538 C 0.9167 0.76888 0.64496 0.0
C539 C 0.87324 0.75523 0.62661 0.0
C540 C 0.91871 0.77029 0.65698 0.0
C541 C 0.87902 0.76176 0.66366 0.0
C542 C 0.87463 0.75918 0.63942 0.0
C543 C 0.83713 0.75339 0.6578 0.0
C544 C 0.83216 0.76026 0.62022 0.0
C545 C 0.91597 0.7451 0.60913 0.0
N546 N 0.83599 0.75223 0.64599 0.0
N547 N 0.91351 0.74741 0.62083 0.0
H548 H 0.2964 0.43459 0.85482 0.0
H549 H 0.26176 0.29283 0.91303 0.0
H550 H 0.23769 0.29731 0.85304 0.0
H551 H 0.24587 0.44094 0.90978 0.0
H552 H 0.26569 0.28737 0.8917 0.0
H553 H 0.29488 0.43017 0.87576 0.0
C554 C 0.28347 0.40322 0.85881 0.0
C555 C 0.26647 0.36652 0.85209 0.0
C556 C 0.26103 0.32083 0.89575 0.0
C557 C 0.26462 0.36143 0.87629 0.0
C558 C 0.25876 0.32403 0.90788 0.0
C559 C 0.25365 0.36745 0.91325 0.0
C560 C 0.25919 0.36142 0.88906 0.0
C561 C 0.24994 0.40669 0.90613 0.0
C562 C 0.28247 0.40086 0.87081 0.0
C563 C 0.25085 0.32655 0.85788 0.0
N564 N 0.25327 0.40274 0.89448 0.0
N565 N 0.25002 0.3251 0.8697 0.0
H566 H 0.58456 0.80168 0.10511 0.0
H567 H 0.71998 0.75608 0.16398 0.0
H568 H 0.71856 0.7356 0.10422 0.0
H569 H 0.57125 0.75658 0.16031 0.0
H570 H 0.72697 0.76055 0.1427 0.0
H571 H 0.58724 0.80128 0.12608 0.0
C572 C 0.61487 0.78738 0.10932 0.0
C573 C 0.65109 0.76795 0.10285 0.0
C574 C 0.69299 0.75943 0.14664 0.0
C575 C 0.65414 0.76722 0.12706 0.0
C576 C 0.68892 0.75685 0.15874 0.0
C577 C 0.64495 0.75599 0.16397 0.0
C578 C 0.65281 0.76216 0.13983 0.0
C579 C 0.60591 0.75711 0.15675 0.0
C580 C 0.61623 0.787 0.12133 0.0
C581 C 0.68975 0.75068 0.10887 0.0
N582 N 0.61081 0.76053 0.14513 0.0
N583 N 0.69017 0.75036 0.12069 0.0
H584 H 0.76571 0.72312 0.85265 0.0
H585 H 0.79232 0.57909 0.91068 0.0
H586 H 0.73989 0.5764 0.85584 0.0
H587 H 0.74156 0.71949 0.91272 0.0
H588 H 0.79015 0.58385 0.88975 0.0
H589 H 0.7696 0.72823 0.87399 0.0
C590 C 0.76048 0.69219 0.85778 0.0
C591 C 0.75274 0.6492 0.85239 0.0
C592 C 0.77961 0.61376 0.89476 0.0
C593 C 0.75818 0.65476 0.87659 0.0
C594 C 0.78101 0.61121 0.90675 0.0
C595 C 0.76644 0.64874 0.91355 0.0
C596 C 0.76386 0.65423 0.88935 0.0
C597 C 0.7528 0.68959 0.90783 0.0
C598 C 0.76275 0.69518 0.86992 0.0
C599 C 0.74619 0.61029 0.8595 0.0
N600 N 0.7516 0.69126 0.89601 0.0
N601 N 0.74958 0.61397 0.87115 0.0
H602 H 0.3174 0.19511 0.16395 0.0
H603 H 0.31911 0.3225 0.10319 0.0
H604 H 0.38438 0.32759 0.1602 0.0
H605 H 0.37404 0.18434 0.1063 0.0
H606 H 0.3108 0.3257 0.1244 0.0
H607 H 0.30617 0.19245 0.14282 0.0
C608 C 0.3286 0.22413 0.15871 0.0
C609 C 0.35186 0.26164 0.16376 0.0
C610 C 0.32362 0.2944 0.12036 0.0
C611 C 0.33827 0.25915 0.13983 0.0
C612 C 0.32803 0.29238 0.10832 0.0
C613 C 0.34715 0.25303 0.10305 0.0
C614 C 0.33707 0.25627 0.12708 0.0
C615 C 0.35909 0.21522 0.11007 0.0
C616 C 0.32242 0.22242 0.14671 0.0
C617 C 0.36637 0.29807 0.15659 0.0
N618 N 0.35374 0.21769 0.12175 0.0
N619 N 0.3592 0.29603 0.14497 0.0
H620 H 0.77206 0.95068 0.35564 0.0
H621 H 0.77234 0.79918 0.41303 0.0
H622 H 0.75319 0.80266 0.35335 0.0
H623 H 0.72751 0.94159 0.41103 0.0
H624 H 0.77476 0.79673 0.39168 0.0
H625 H 0.76861 0.94528 0.37654 0.0
C626 C 0.76749 0.91683 0.35951 0.0
C627 C 0.76257 0.87708 0.35265 0.0
C628 C 0.76405 0.82821 0.39599 0.0
C629 C 0.75841 0.87078 0.37683 0.0
C630 C 0.76255 0.82966 0.40815 0.0
C631 C 0.75011 0.87079 0.41388 0.0
C632 C 0.75369 0.86835 0.38962 0.0
C633 C 0.73778 0.9092 0.40708 0.0
C634 C 0.76524 0.91386 0.3715 0.0
C635 C 0.75693 0.83424 0.3583 0.0
N636 N 0.74037 0.90712 0.39539 0.0
N637 N 0.755 0.83216 0.3701 0.0
H638 H 0.21076 0.26415 0.66281 0.0
H639 H 0.06122 0.27749 0.60498 0.0
H640 H 0.06357 0.23957 0.66082 0.0
H641 H 0.20743 0.24706 0.60342 0.0
H642 H 0.06496 0.27542 0.62592 0.0
H643 H 0.21359 0.26665 0.64148 0.0
C644 C 0.17921 0.25894 0.65793 0.0
C645 C 0.13682 0.25184 0.66366 0.0
C646 C 0.09635 0.2692 0.62104 0.0
C647 C 0.1398 0.25549 0.6394 0.0
C648 C 0.09434 0.27063 0.60902 0.0
C649 C 0.13403 0.26208 0.60235 0.0
C650 C 0.13841 0.25946 0.62658 0.0
C651 C 0.17592 0.25367 0.60821 0.0
C652 C 0.18088 0.26043 0.64579 0.0
C653 C 0.09706 0.24532 0.65687 0.0
N654 N 0.17706 0.25251 0.62002 0.0
N655 N 0.09952 0.24769 0.64518 0.0
H656 H 0.3108 0.27468 0.29106 0.0
H657 H 0.24065 0.2063 0.22656 0.0
H658 H 0.20949 0.17051 0.28248 0.0
H659 H 0.34789 0.30462 0.23496 0.0
H660 H 0.21795 0.20447 0.24692 0.0
H661 H 0.31365 0.29753 0.27069 0.0
C662 C 0.28841 0.25723 0.28495 0.0
C663 C 0.26032 0.22017 0.28848 0.0
C664 C 0.246 0.227 0.24429 0.0
C665 C 0.26388 0.24581 0.26509 0.0
C666 C 0.25892 0.22819 0.23264 0.0
C667 C 0.29667 0.25519 0.22905 0.0
C668 C 0.27118 0.25277 0.25245 0.0
C669 C 0.31882 0.28299 0.23734 0.0
C670 C 0.29023 0.27018 0.27329 0.0
C671 C 0.23201 0.19897 0.28015 0.0
N672 N 0.30618 0.28056 0.24867 0.0
N673 N 0.23499 0.21165 0.26884 0.0
H674 H 0.80589 0.73948 0.47606 0.0
H675 H 0.73964 0.81173 0.5406 0.0
H676 H 0.71049 0.84932 0.48452 0.0
H677 H 0.84222 0.70874 0.53201 0.0
H678 H 0.71679 0.81483 0.52024 0.0
H679 H 0.80759 0.71699 0.49644 0.0
C680 C 0.78458 0.75835 0.48215 0.0
C681 C 0.75847 0.79676 0.47857 0.0
C682 C 0.74379 0.79099 0.52284 0.0
C683 C 0.76075 0.7715 0.502 0.0
C684 C 0.75673 0.78903 0.53449 0.0
C685 C 0.79336 0.76036 0.53802 0.0
C686 C 0.76771 0.7642 0.51464 0.0
C687 C 0.81411 0.7317 0.52969 0.0
C688 C 0.78571 0.74557 0.49382 0.0
C689 C 0.73143 0.81972 0.48688 0.0
N690 N 0.80144 0.7348 0.51838 0.0
N691 N 0.73377 0.80716 0.49822 0.0
H692 H 0.17087 0.20523 0.73361 0.0
H693 H 0.30526 0.34891 0.78184 0.0
H694 H 0.27084 0.31186 0.72593 0.0
H695 H 0.20579 0.24165 0.78938 0.0
H696 H 0.30356 0.3264 0.76146 0.0
H697 H 0.19367 0.20837 0.75394 0.0
C698 C 0.19828 0.22868 0.73615 0.0
C699 C 0.21853 0.25876 0.72805 0.0
C700 C 0.28264 0.30728 0.7676 0.0
C701 C 0.24434 0.26307 0.75141 0.0
C702 C 0.28371 0.32003 0.77926 0.0
C703 C 0.25516 0.29754 0.78734 0.0
C704 C 0.25259 0.27195 0.76394 0.0
C705 C 0.22808 0.26028 0.78347 0.0
C706 C 0.21119 0.23058 0.74779 0.0
C707 C 0.25401 0.28826 0.73187 0.0
N708 N 0.22698 0.2491 0.77204 0.0
N709 N 0.26527 0.29018 0.74329 0.0
H710 H 0.70504 0.77463 0.97609 0.0
H711 H 0.77723 0.70398 0.04044 0.0
H712 H 0.80389 0.66745 0.98421 0.0
H713 H 0.66796 0.8005 0.0323 0.0
H714 H 0.79854 0.70188 0.01998 0.0
H715 H 0.70254 0.79592 0.99654 0.0
C716 C 0.72692 0.75611 0.98213 0.0
C717 C 0.7543 0.71878 0.97842 0.0
C718 C 0.77033 0.72405 0.02268 0.0
C719 C 0.75117 0.74272 1.00193 0.0
C720 C 0.75823 0.72543 0.03439 0.0
C721 C 0.72034 0.75204 0.0381 0.0
C722 C 0.74433 0.74937 0.01459 0.0
C723 C 0.69716 0.77919 0.02984 0.0
C724 C 0.72531 0.76819 0.99383 0.0
C725 C 0.78199 0.69621 0.98667 0.0
N726 N 0.70915 0.77671 0.01847 0.0
N727 N 0.77927 0.70814 0.99804 0.0
H728 H 0.24102 0.30998 0.04007 0.0
H729 H 0.31113 0.2399 0.97565 0.0
H730 H 0.34755 0.21062 0.03182 0.0
H731 H 0.21108 0.3456 0.98405 0.0
H732 H 0.3139 0.21777 0.99605 0.0
H733 H 0.21893 0.31219 0.01968 0.0
C734 C 0.25927 0.28797 0.03401 0.0
C735 C 0.29663 0.26051 0.03766 0.0
C736 C 0.29079 0.24533 0.99341 0.0
C737 C 0.2718 0.26334 0.01422 0.0
C738 C 0.28903 0.2579 0.98174 0.0
C739 C 0.26126 0.29511 0.97813 0.0
C740 C 0.26472 0.27023 1.00157 0.0
C741 C 0.23331 0.31698 0.98643 0.0
C742 C 0.2467 0.28937 0.02234 0.0
C743 C 0.31876 0.23256 0.0294 0.0
N744 N 0.23621 0.30463 0.99777 0.0
N745 N 0.30644 0.23518 0.01805 0.0
H746 H 0.70654 0.7408 0.29088 0.0
H747 H 0.77614 0.80838 0.22621 0.0
H748 H 0.80671 0.84594 0.28214 0.0
H749 H 0.66782 0.71162 0.23491 0.0
H750 H 0.79908 0.81051 0.24655 0.0
H751 H 0.70363 0.71789 0.27053 0.0
C752 C 0.72867 0.75847 0.28473 0.0
C753 C 0.75645 0.7958 0.28822 0.0
C754 C 0.77075 0.78824 0.24399 0.0
C755 C 0.75282 0.77008 0.26485 0.0
C756 C 0.75772 0.78686 0.23235 0.0
C757 C 0.71956 0.76025 0.22885 0.0
C758 C 0.74536 0.76298 0.25223 0.0
C759 C 0.69716 0.73298 0.23722 0.0
C760 C 0.72682 0.74548 0.27309 0.0
C761 C 0.78444 0.81726 0.27985 0.0
N762 N 0.70999 0.73553 0.24853 0.0
N763 N 0.78143 0.80453 0.26854 0.0
H764 H 0.20687 0.27507 0.47623 0.0
H765 H 0.27228 0.2022 0.54079 0.0
H766 H 0.30286 0.16577 0.48473 0.0
H767 H 0.16935 0.30482 0.53216 0.0
H768 H 0.2956 0.19961 0.52046 0.0
H769 H 0.20468 0.29729 0.49662 0.0
C770 C 0.22821 0.25627 0.48234 0.0
C771 C 0.25462 0.21807 0.47876 0.0
C772 C 0.26842 0.22326 0.52304 0.0
C773 C 0.25179 0.24302 0.5022 0.0
C774 C 0.25521 0.22492 0.53468 0.0
C775 C 0.21835 0.25333 0.53819 0.0
C776 C 0.24453 0.25007 0.51483 0.0
C777 C 0.19763 0.28205 0.52985 0.0
C778 C 0.2268 0.26889 0.49401 0.0
C779 C 0.28168 0.19519 0.48709 0.0
N780 N 0.21057 0.27922 0.51856 0.0
N781 N 0.27907 0.2076 0.49843 0.0
H782 H 0.84371 0.80812 0.7334 0.0
H783 H 0.70832 0.66616 0.78186 0.0
H784 H 0.74379 0.70134 0.72588 0.0
H785 H 0.80772 0.77361 0.78923 0.0
H786 H 0.71038 0.688 0.76142 0.0
H787 H 0.82054 0.80566 0.75372 0.0
C788 C 0.81624 0.78477 0.73597 0.0
C789 C 0.7961 0.75446 0.72793 0.0
C790 C 0.7312 0.70731 0.76753 0.0
C791 C 0.76986 0.75093 0.75128 0.0
C792 C 0.72991 0.69495 0.77923 0.0
C793 C 0.75835 0.71767 0.78727 0.0
C794 C 0.76135 0.74249 0.76382 0.0
C795 C 0.7855 0.75481 0.78334 0.0
C796 C 0.80312 0.78326 0.74761 0.0
C797 C 0.76053 0.72511 0.73178 0.0
N798 N 0.78682 0.7656 0.77188 0.0
N799 N 0.74906 0.72358 0.7432 0.0
loop_
_geom_bond_atom_site_label_1
_geom_bond_atom_site_label_2
_geom_bond_distance
_geom_bond_site_symmetry_2
_ccdc_geom_bond_type
O0 Cd1 2.223 . S
O0 C8 1.315 . S
Cd1 O0 2.223 . S
Cd1 O4 2.297 . S
Cd1 O5 2.439 . S
Cd1 O11 2.240 . S
Cd2 O3 2.240 . S
Cd2 O10 2.223 . S
Cd2 O12 2.297 . S
Cd2 O13 2.439 . S
O3 Cd2 2.240 . S
O3 C8 1.279 . S
O4 Cd1 2.297 . S
O4 C6 1.247 . S
O5 Cd1 2.439 . S
O5 C6 1.208 . S
C6 O4 1.247 . S
C6 O5 1.208 . S
C7 O12 1.247 . S
C7 O13 1.208 . S
C8 O0 1.315 . S
C8 O3 1.279 . S
C9 O10 1.315 . S
C9 O11 1.279 . S
O10 Cd2 2.223 . S
O10 C9 1.315 . S
O11 Cd1 2.240 . S
O11 C9 1.279 . S
O12 Cd2 2.297 . S
O12 C7 1.247 . S
O13 Cd2 2.439 . S
O13 C7 1.208 . S
O14 Cd15 2.223 . S
O14 C22 1.315 . S
Cd15 O14 2.223 . S
Cd15 O18 2.297 . S
Cd15 O19 2.439 . S
Cd15 O25 2.240 . S
Cd16 O17 2.240 . S
Cd16 O24 2.223 . S
Cd16 O26 2.297 . S
Cd16 O27 2.439 . S
O17 Cd16 2.240 . S
O17 C22 1.279 . S
O18 Cd15 2.297 . S
O18 C20 1.247 . S
O19 Cd15 2.439 . S
O19 C20 1.208 . S
C20 O18 1.247 . S
C20 O19 1.208 . S
C21 O26 1.247 . S
C21 O27 1.208 . S
C22 O14 1.315 . S
C22 O17 1.279 . S
C23 O24 1.315 . S
C23 O25 1.279 . S
O24 Cd16 2.223 . S
O24 C23 1.315 . S
O25 Cd15 2.240 . S
O25 C23 1.279 . S
O26 Cd16 2.297 . S
O26 C21 1.247 . S
O27 Cd16 2.439 . S
O27 C21 1.208 . S
O28 Cd29 2.223 . S
O28 C36 1.315 . S
Cd29 O28 2.223 . S
Cd29 O32 2.297 . S
Cd29 O33 2.439 . S
Cd29 O39 2.240 . S
Cd30 O31 2.240 . S
Cd30 O38 2.223 . S
Cd30 O40 2.297 . S
Cd30 O41 2.439 . S
O31 Cd30 2.240 . S
O31 C36 1.279 . S
O32 Cd29 2.297 . S
O32 C34 1.247 . S
O33 Cd29 2.439 . S
O33 C34 1.208 . S
C34 O32 1.247 . S
C34 O33 1.208 . S
C35 O40 1.247 . S
C35 O41 1.208 . S
C36 O28 1.315 . S
C36 O31 1.279 . S
C37 O38 1.315 . S
C37 O39 1.279 . S
O38 Cd30 2.223 . S
O38 C37 1.315 . S
O39 Cd29 2.240 . S
O39 C37 1.279 . S
O40 Cd30 2.297 . S
O40 C35 1.247 . S
O41 Cd30 2.439 . S
O41 C35 1.208 . S
O42 Cd43 2.223 . S
O42 C50 1.315 . S
Cd43 O42 2.223 . S
Cd43 O46 2.297 . S
Cd43 O47 2.439 . S
Cd43 O53 2.240 . S
Cd44 O45 2.240 . S
Cd44 O52 2.223 . S
Cd44 O54 2.297 . S
Cd44 O55 2.439 . S
O45 Cd44 2.240 . S
O45 C50 1.279 . S
O46 Cd43 2.297 . S
O46 C48 1.247 . S
O47 Cd43 2.439 . S
O47 C48 1.208 . S
C48 O46 1.247 . S
C48 O47 1.208 . S
C49 O54 1.247 . S
C49 O55 1.208 . S
C50 O42 1.315 . S
C50 O45 1.279 . S
C51 O52 1.315 . S
C51 O53 1.279 . S
O52 Cd44 2.223 . S
O52 C51 1.315 . S
O53 Cd43 2.240 . S
O53 C51 1.279 . S
O54 Cd44 2.297 . S
O54 C49 1.247 . S
O55 Cd44 2.439 . S
O55 C49 1.208 . S
O56 Cd57 2.223 . S
O56 C64 1.315 . S
Cd57 O56 2.223 . S
Cd57 O60 2.297 . S
Cd57 O61 2.439 . S
Cd57 O67 2.240 . S
Cd58 O59 2.240 . S
Cd58 O66 2.223 . S
Cd58 O68 2.297 . S
Cd58 O69 2.439 . S
O59 Cd58 2.240 . S
O59 C64 1.279 . S
O60 Cd57 2.297 . S
O60 C62 1.247 . S
O61 Cd57 2.439 . S
O61 C62 1.208 . S
C62 O60 1.247 . S
C62 O61 1.208 . S
C63 O68 1.247 . S
C63 O69 1.208 . S
C64 O56 1.315 . S
C64 O59 1.279 . S
C65 O66 1.315 . S
C65 O67 1.279 . S
O66 Cd58 2.223 . S
O66 C65 1.315 . S
O67 Cd57 2.240 . S
O67 C65 1.279 . S
O68 Cd58 2.297 . S
O68 C63 1.247 . S
O69 Cd58 2.439 . S
O69 C63 1.208 . S
O70 Cd71 2.223 . S
O70 C78 1.315 . S
Cd71 O70 2.223 . S
Cd71 O74 2.297 . S
Cd71 O75 2.439 . S
Cd71 O81 2.240 . S
Cd72 O73 2.240 . S
Cd72 O80 2.223 . S
Cd72 O82 2.297 . S
Cd72 O83 2.439 . S
O73 Cd72 2.240 . S
O73 C78 1.279 . S
O74 Cd71 2.297 . S
O74 C76 1.247 . S
O75 Cd71 2.439 . S
O75 C76 1.208 . S
C76 O74 1.247 . S
C76 O75 1.208 . S
C77 O82 1.247 . S
C77 O83 1.208 . S
C78 O70 1.315 . S
C78 O73 1.279 . S
C79 O80 1.315 . S
C79 O81 1.279 . S
O80 Cd72 2.223 . S
O80 C79 1.315 . S
O81 Cd71 2.240 . S
O81 C79 1.279 . S
O82 Cd72 2.297 . S
O82 C77 1.247 . S
O83 Cd72 2.439 . S
O83 C77 1.208 . S
O84 Cd85 2.223 . S
O84 C92 1.315 . S
Cd85 O84 2.223 . S
Cd85 O88 2.297 . S
Cd85 O89 2.439 . S
Cd85 O95 2.240 . S
Cd86 O87 2.240 . S
Cd86 O94 2.223 . S
Cd86 O96 2.297 . S
Cd86 O97 2.439 . S
O87 Cd86 2.240 . S
O87 C92 1.279 . S
O88 Cd85 2.297 . S
O88 C90 1.247 . S
O89 Cd85 2.439 . S
O89 C90 1.208 . S
C90 O88 1.247 . S
C90 O89 1.208 . S
C91 O96 1.247 . S
C91 O97 1.208 . S
C92 O84 1.315 . S
C92 O87 1.279 . S
C93 O94 1.315 . S
C93 O95 1.279 . S
O94 Cd86 2.223 . S
O94 C93 1.315 . S
O95 Cd85 2.240 . S
O95 C93 1.279 . S
O96 Cd86 2.297 . S
O96 C91 1.247 . S
O97 Cd86 2.439 . S
O97 C91 1.208 . S
O98 Cd99 2.223 . S
O98 C106 1.315 . S
Cd99 O98 2.223 . S
Cd99 O102 2.297 . S
Cd99 O103 2.439 . S
Cd99 O109 2.240 . S
Cd100 O101 2.240 . S
Cd100 O108 2.223 . S
Cd100 O110 2.297 . S
Cd100 O111 2.439 . S
O101 Cd100 2.240 . S
O101 C106 1.279 . S
O102 Cd99 2.297 . S
O102 C104 1.247 . S
O103 Cd99 2.439 . S
O103 C104 1.208 . S
C104 O102 1.247 . S
C104 O103 1.208 . S
C105 O110 1.247 . S
C105 O111 1.208 . S
C106 O98 1.315 . S
C106 O101 1.279 . S
C107 O108 1.315 . S
C107 O109 1.279 . S
O108 Cd100 2.223 . S
O108 C107 1.315 . S
O109 Cd99 2.240 . S
O109 C107 1.279 . S
O110 Cd100 2.297 . S
O110 C105 1.247 . S
O111 Cd100 2.439 . S
O111 C105 1.208 . S
O112 Cd113 2.223 . S
O112 C120 1.315 . S
Cd113 O112 2.223 . S
Cd113 O116 2.297 . S
Cd113 O117 2.439 . S
Cd113 O123 2.240 . S
Cd114 O115 2.240 . S
Cd114 O122 2.223 . S
Cd114 O124 2.297 . S
Cd114 O125 2.439 . S
O115 Cd114 2.240 . S
O115 C120 1.279 . S
O116 Cd113 2.297 . S
O116 C118 1.247 . S
O117 Cd113 2.439 . S
O117 C118 1.208 . S
C118 O116 1.247 . S
C118 O117 1.208 . S
C119 O124 1.247 . S
C119 O125 1.208 . S
C120 O112 1.315 . S
C120 O115 1.279 . S
C121 O122 1.315 . S
C121 O123 1.279 . S
O122 Cd114 2.223 . S
O122 C121 1.315 . S
O123 Cd113 2.240 . S
O123 C121 1.279 . S
O124 Cd114 2.297 . S
O124 C119 1.247 . S
O125 Cd114 2.439 . S
O125 C119 1.208 . S
O126 Cd127 2.223 . S
O126 C134 1.315 . S
Cd127 O126 2.223 . S
Cd127 O130 2.297 . S
Cd127 O131 2.439 . S
Cd127 O137 2.240 . S
Cd128 O129 2.240 . S
Cd128 O136 2.223 . S
Cd128 O138 2.297 . S
Cd128 O139 2.439 . S
O129 Cd128 2.240 . S
O129 C134 1.279 . S
O130 Cd127 2.297 . S
O130 C132 1.247 . S
O131 Cd127 2.439 . S
O131 C132 1.208 . S
C132 O130 1.247 . S
C132 O131 1.208 . S
C133 O138 1.247 . S
C133 O139 1.208 . S
C134 O126 1.315 . S
C134 O129 1.279 . S
C135 O136 1.315 . S
C135 O137 1.279 . S
O136 Cd128 2.223 . S
O136 C135 1.315 . S
O137 Cd127 2.240 . S
O137 C135 1.279 . S
O138 Cd128 2.297 . S
O138 C133 1.247 . S
O139 Cd128 2.439 . S
O139 C133 1.208 . S
O140 Cd141 2.223 . S
O140 C148 1.315 . S
Cd141 O140 2.223 . S
Cd141 O144 2.297 . S
Cd141 O145 2.439 . S
Cd141 O151 2.240 . S
Cd142 O143 2.240 . S
Cd142 O150 2.223 . S
Cd142 O152 2.297 . S
Cd142 O153 2.439 . S
O143 Cd142 2.240 . S
O143 C148 1.279 . S
O144 Cd141 2.297 . S
O144 C146 1.247 . S
O145 Cd141 2.439 . S
O145 C146 1.208 . S
C146 O144 1.247 . S
C146 O145 1.208 . S
C147 O152 1.247 . S
C147 O153 1.208 . S
C148 O140 1.315 . S
C148 O143 1.279 . S
C149 O150 1.315 . S
C149 O151 1.279 . S
O150 Cd142 2.223 . S
O150 C149 1.315 . S
O151 Cd141 2.240 . S
O151 C149 1.279 . S
O152 Cd142 2.297 . S
O152 C147 1.247 . S
O153 Cd142 2.439 . S
O153 C147 1.208 . S
O154 Cd155 2.223 . S
O154 C162 1.315 . S
Cd155 O154 2.223 . S
Cd155 O158 2.297 . S
Cd155 O159 2.439 . S
Cd155 O165 2.240 . S
Cd156 O157 2.240 . S
Cd156 O164 2.223 . S
Cd156 O166 2.297 . S
Cd156 O167 2.439 . S
O157 Cd156 2.240 . S
O157 C162 1.279 . S
O158 Cd155 2.297 . S
O158 C160 1.247 . S
O159 Cd155 2.439 . S
O159 C160 1.208 . S
C160 O158 1.247 . S
C160 O159 1.208 . S
C161 O166 1.247 . S
C161 O167 1.208 . S
C162 O154 1.315 . S
C162 O157 1.279 . S
C163 O164 1.315 . S
C163 O165 1.279 . S
O164 Cd156 2.223 . S
O164 C163 1.315 . S
O165 Cd155 2.240 . S
O165 C163 1.279 . S
O166 Cd156 2.297 . S
O166 C161 1.247 . S
O167 Cd156 2.439 . S
O167 C161 1.208 . S
O168 Cd169 2.223 . S
O168 C176 1.315 . S
Cd169 O168 2.223 . S
Cd169 O172 2.297 . S
Cd169 O173 2.439 . S
Cd169 O179 2.240 . S
Cd170 O171 2.240 . S
Cd170 O178 2.223 . S
Cd170 O180 2.297 . S
Cd170 O181 2.439 . S
O171 Cd170 2.240 . S
O171 C176 1.279 . S
O172 Cd169 2.297 . S
O172 C174 1.247 . S
O173 Cd169 2.439 . S
O173 C174 1.208 . S
C174 O172 1.247 . S
C174 O173 1.208 . S
C175 O180 1.247 . S
C175 O181 1.208 . S
C176 O168 1.315 . S
C176 O171 1.279 . S
C177 O178 1.315 . S
C177 O179 1.279 . S
O178 Cd170 2.223 . S
O178 C177 1.315 . S
O179 Cd169 2.240 . S
O179 C177 1.279 . S
O180 Cd170 2.297 . S
O180 C175 1.247 . S
O181 Cd170 2.439 . S
O181 C175 1.208 . S
O182 Cd183 2.223 . S
O182 C190 1.315 . S
Cd183 O182 2.223 . S
Cd183 O186 2.297 . S
Cd183 O187 2.439 . S
Cd183 O193 2.240 . S
Cd184 O185 2.240 . S
Cd184 O192 2.223 . S
Cd184 O194 2.297 . S
Cd184 O195 2.439 . S
O185 Cd184 2.240 . S
O185 C190 1.279 . S
O186 Cd183 2.297 . S
O186 C188 1.247 . S
O187 Cd183 2.439 . S
O187 C188 1.208 . S
C188 O186 1.247 . S
C188 O187 1.208 . S
C189 O194 1.247 . S
C189 O195 1.208 . S
C190 O182 1.315 . S
C190 O185 1.279 . S
C191 O192 1.315 . S
C191 O193 1.279 . S
O192 Cd184 2.223 . S
O192 C191 1.315 . S
O193 Cd183 2.240 . S
O193 C191 1.279 . S
O194 Cd184 2.297 . S
O194 C189 1.247 . S
O195 Cd184 2.439 . S
O195 C189 1.208 . S
O196 Cd197 2.223 . S
O196 C204 1.315 . S
Cd197 O196 2.223 . S
Cd197 O200 2.297 . S
Cd197 O201 2.439 . S
Cd197 O207 2.240 . S
Cd198 O199 2.240 . S
Cd198 O206 2.223 . S
Cd198 O208 2.297 . S
Cd198 O209 2.439 . S
O199 Cd198 2.240 . S
O199 C204 1.279 . S
O200 Cd197 2.297 . S
O200 C202 1.247 . S
O201 Cd197 2.439 . S
O201 C202 1.208 . S
C202 O200 1.247 . S
C202 O201 1.208 . S
C203 O208 1.247 . S
C203 O209 1.208 . S
C204 O196 1.315 . S
C204 O199 1.279 . S
C205 O206 1.315 . S
C205 O207 1.279 . S
O206 Cd198 2.223 . S
O206 C205 1.315 . S
O207 Cd197 2.240 . S
O207 C205 1.279 . S
O208 Cd198 2.297 . S
O208 C203 1.247 . S
O209 Cd198 2.439 . S
O209 C203 1.208 . S
O210 Cd211 2.223 . S
O210 C218 1.315 . S
Cd211 O210 2.223 . S
Cd211 O214 2.297 . S
Cd211 O215 2.439 . S
Cd211 O221 2.240 . S
Cd212 O213 2.240 . S
Cd212 O220 2.223 . S
Cd212 O222 2.297 . S
Cd212 O223 2.439 . S
O213 Cd212 2.240 . S
O213 C218 1.279 . S
O214 Cd211 2.297 . S
O214 C216 1.247 . S
O215 Cd211 2.439 . S
O215 C216 1.208 . S
C216 O214 1.247 . S
C216 O215 1.208 . S
C217 O222 1.247 . S
C217 O223 1.208 . S
C218 O210 1.315 . S
C218 O213 1.279 . S
C219 O220 1.315 . S
C219 O221 1.279 . S
O220 Cd212 2.223 . S
O220 C219 1.315 . S
O221 Cd211 2.240 . S
O221 C219 1.279 . S
O222 Cd212 2.297 . S
O222 C217 1.247 . S
O223 Cd212 2.439 . S
O223 C217 1.208 . S
H224 C230 0.930 1_545 S
H225 C234 0.930 1_565 S
H226 C239 0.929 . S
H227 C237 0.929 . S
H228 C232 0.929 . S
H229 C238 0.929 . S
C230 H224 0.930 1_565 S
C230 C231 1.367 . S
C230 C238 1.378 1_565 S
C231 C230 1.367 . S
C231 C239 1.433 . S
C232 H228 0.929 . S
C232 C234 1.378 1_565 S
C232 C236 1.350 1_565 S
C233 C236 1.463 1_665 S
C233 C238 1.350 1_565 S
C233 N241 1.427 . S
C234 H225 0.930 1_545 S
C234 C232 1.378 1_545 S
C234 C235 1.367 . S
C235 C234 1.367 . S
C235 C237 1.433 . S
C236 C232 1.350 1_545 S
C236 C233 1.463 1_445 S
C236 N240 1.427 . S
C237 H227 0.929 . S
C237 C235 1.433 . S
C237 N240 1.384 . S
C238 H229 0.929 . S
C238 C230 1.378 1_545 S
C238 C233 1.350 1_545 S
C239 H226 0.929 . S
C239 C231 1.433 . S
C239 N241 1.384 . S
N240 C236 1.427 . S
N240 C237 1.384 . S
N241 C233 1.427 . S
N241 C239 1.384 . S
H242 C248 0.930 . S
H243 C252 0.930 . S
H244 C257 0.929 1_455 S
H245 C255 0.929 1_655 S
H246 C250 0.929 . S
H247 C256 0.929 . S
C248 H242 0.930 . S
C248 C249 1.367 . S
C248 C256 1.378 . S
C249 C248 1.367 . S
C249 C257 1.433 . S
C250 H246 0.929 . S
C250 C252 1.378 . S
C250 C254 1.350 . S
C251 C254 1.463 1_655 S
C251 C256 1.350 . S
C251 N259 1.427 1_655 S
C252 H243 0.930 . S
C252 C250 1.378 . S
C252 C253 1.367 . S
C253 C252 1.367 . S
C253 C255 1.433 . S
C254 C250 1.350 . S
C254 C251 1.463 1_455 S
C254 N258 1.427 1_455 S
C255 H245 0.929 1_455 S
C255 C253 1.433 . S
C255 N258 1.384 1_455 S
C256 H247 0.929 . S
C256 C248 1.378 . S
C256 C251 1.350 . S
C257 H244 0.929 1_655 S
C257 C249 1.433 . S
C257 N259 1.384 1_655 S
N258 C254 1.427 1_655 S
N258 C255 1.384 1_655 S
N259 C251 1.427 1_455 S
N259 C257 1.384 1_455 S
H260 C266 0.930 . S
H261 C270 0.930 . S
H262 C275 0.929 . S
H263 C273 0.929 . S
H264 C268 0.929 . S
H265 C274 0.929 . S
C266 H260 0.930 . S
C266 C267 1.367 . S
C266 C274 1.378 . S
C267 C266 1.367 . S
C267 C275 1.433 . S
C268 H264 0.929 . S
C268 C270 1.378 . S
C268 C272 1.350 . S
C269 C272 1.463 . S
C269 C274 1.350 . S
C269 N277 1.427 . S
C270 H261 0.930 . S
C270 C268 1.378 . S
C270 C271 1.367 . S
C271 C270 1.367 . S
C271 C273 1.433 . S
C272 C268 1.350 . S
C272 C269 1.463 . S
C272 N276 1.427 . S
C273 H263 0.929 . S
C273 C271 1.433 . S
C273 N276 1.384 . S
C274 H265 0.929 . S
C274 C266 1.378 . S
C274 C269 1.350 . S
C275 H262 0.929 . S
C275 C267 1.433 . S
C275 N277 1.384 . S
N276 C272 1.427 . S
N276 C273 1.384 . S
N277 C269 1.427 . S
N277 C275 1.384 . S
H278 C284 0.930 . S
H279 C288 0.930 . S
H280 C293 0.929 . S
H281 C291 0.929 . S
H282 C286 0.929 . S
H283 C292 0.929 . S
C284 H278 0.930 . S
C284 C285 1.367 . S
C284 C292 1.378 . S
C285 C284 1.367 . S
C285 C293 1.433 . S
C286 H282 0.929 . S
C286 C288 1.378 . S
C286 C290 1.350 . S
C287 C290 1.463 1_545 S
C287 C292 1.350 . S
C287 N295 1.427 . S
C288 H279 0.930 . S
C288 C286 1.378 . S
C288 C289 1.367 . S
C289 C288 1.367 . S
C289 C291 1.433 . S
C290 C286 1.350 . S
C290 C287 1.463 1_565 S
C290 N294 1.427 . S
C291 H281 0.929 . S
C291 C289 1.433 . S
C291 N294 1.384 . S
C292 H283 0.929 . S
C292 C284 1.378 . S
C292 C287 1.350 . S
C293 H280 0.929 . S
C293 C285 1.433 . S
C293 N295 1.384 . S
N294 C290 1.427 . S
N294 C291 1.384 . S
N295 C287 1.427 . S
N295 C293 1.384 . S
H296 C302 0.930 . S
H297 C306 0.930 . S
H298 C311 0.929 . S
H299 C309 0.929 . S
H300 C304 0.929 . S
H301 C310 0.929 . S
C302 H296 0.930 . S
C302 C303 1.367 . S
C302 C310 1.378 . S
C303 C302 1.367 . S
C303 C311 1.433 . S
C304 H300 0.929 . S
C304 C306 1.378 . S
C304 C308 1.350 . S
C305 C308 1.463 1_455 S
C305 C310 1.350 . S
C305 N313 1.427 . S
C306 H297 0.930 . S
C306 C304 1.378 . S
C306 C307 1.367 . S
C307 C306 1.367 . S
C307 C309 1.433 . S
C308 C304 1.350 . S
C308 C305 1.463 1_655 S
C308 N312 1.427 . S
C309 H299 0.929 . S
C309 C307 1.433 . S
C309 N312 1.384 . S
C310 H301 0.929 . S
C310 C302 1.378 . S
C310 C305 1.350 . S
C311 H298 0.929 . S
C311 C303 1.433 . S
C311 N313 1.384 . S
N312 C308 1.427 . S
N312 C309 1.384 . S
N313 C305 1.427 . S
N313 C311 1.384 . S
H314 C320 0.930 . S
H315 C324 0.930 . S
H316 C329 0.929 . S
H317 C327 0.929 . S
H318 C322 0.929 . S
H319 C328 0.929 . S
C320 H314 0.930 . S
C320 C321 1.367 . S
C320 C328 1.378 . S
C321 C320 1.367 . S
C321 C329 1.433 . S
C322 H318 0.929 . S
C322 C324 1.378 . S
C322 C326 1.350 . S
C323 C326 1.463 . S
C323 C328 1.350 . S
C323 N331 1.427 . S
C324 H315 0.930 . S
C324 C322 1.378 . S
C324 C325 1.367 . S
C325 C324 1.367 . S
C325 C327 1.433 . S
C326 C322 1.350 . S
C326 C323 1.463 . S
C326 N330 1.427 . S
C327 H317 0.929 . S
C327 C325 1.433 . S
C327 N330 1.384 . S
C328 H319 0.929 . S
C328 C320 1.378 . S
C328 C323 1.350 . S
C329 H316 0.929 . S
C329 C321 1.433 . S
C329 N331 1.384 . S
N330 C326 1.427 . S
N330 C327 1.384 . S
N331 C323 1.427 . S
N331 C329 1.384 . S
H332 C338 0.930 . S
H333 C342 0.930 . S
H334 C347 0.929 . S
H335 C345 0.929 . S
H336 C340 0.929 1_545 S
H337 C346 0.929 1_565 S
C338 H332 0.930 . S
C338 C339 1.367 . S
C338 C346 1.378 . S
C339 C338 1.367 . S
C339 C347 1.433 . S
C340 H336 0.929 1_565 S
C340 C342 1.378 . S
C340 C344 1.350 . S
C341 C344 1.463 1_545 S
C341 C346 1.350 . S
C341 N349 1.427 . S
C342 H333 0.930 . S
C342 C340 1.378 . S
C342 C343 1.367 . S
C343 C342 1.367 . S
C343 C345 1.433 . S
C344 C340 1.350 . S
C344 C341 1.463 1_565 S
C344 N348 1.427 . S
C345 H335 0.929 . S
C345 C343 1.433 . S
C345 N348 1.384 . S
C346 H337 0.929 1_545 S
C346 C338 1.378 . S
C346 C341 1.350 . S
C347 H334 0.929 . S
C347 C339 1.433 . S
C347 N349 1.384 . S
N348 C344 1.427 . S
N348 C345 1.384 . S
N349 C341 1.427 . S
N349 C347 1.384 . S
H350 C356 0.930 . S
H351 C360 0.930 . S
H352 C365 0.929 . S
H353 C363 0.929 . S
H354 C358 0.929 . S
H355 C364 0.929 . S
C356 H350 0.930 . S
C356 C357 1.367 . S
C356 C364 1.378 1_455 S
C357 C356 1.367 . S
C357 C365 1.433 . S
C358 H354 0.929 . S
C358 C360 1.378 1_455 S
C358 C362 1.350 1_455 S
C359 C362 1.463 1_445 S
C359 C364 1.350 1_455 S
C359 N367 1.427 . S
C360 H351 0.930 . S
C360 C358 1.378 1_655 S
C360 C361 1.367 . S
C361 C360 1.367 . S
C361 C363 1.433 . S
C362 C358 1.350 1_655 S
C362 C359 1.463 1_665 S
C362 N366 1.427 . S
C363 H353 0.929 . S
C363 C361 1.433 . S
C363 N366 1.384 . S
C364 H355 0.929 . S
C364 C356 1.378 1_655 S
C364 C359 1.350 1_655 S
C365 H352 0.929 . S
C365 C357 1.433 . S
C365 N367 1.384 . S
N366 C362 1.427 . S
N366 C363 1.384 . S
N367 C359 1.427 . S
N367 C365 1.384 . S
H368 C374 0.930 . S
H369 C378 0.930 . S
H370 C383 0.929 1_545 S
H371 C381 0.929 1_565 S
H372 C376 0.929 . S
H373 C382 0.929 . S
C374 H368 0.930 . S
C374 C375 1.367 . S
C374 C382 1.378 . S
C375 C374 1.367 . S
C375 C383 1.433 . S
C376 H372 0.929 . S
C376 C378 1.378 . S
C376 C380 1.350 . S
C377 C380 1.463 1_565 S
C377 C382 1.350 . S
C377 N385 1.427 1_565 S
C378 H369 0.930 . S
C378 C376 1.378 . S
C378 C379 1.367 . S
C379 C378 1.367 . S
C379 C381 1.433 . S
C380 C376 1.350 . S
C380 C377 1.463 1_545 S
C380 N384 1.427 1_545 S
C381 H371 0.929 1_545 S
C381 C379 1.433 . S
C381 N384 1.384 1_545 S
C382 H373 0.929 . S
C382 C374 1.378 . S
C382 C377 1.350 . S
C383 H370 0.929 1_565 S
C383 C375 1.433 . S
C383 N385 1.384 1_565 S
N384 C380 1.427 1_565 S
N384 C381 1.384 1_565 S
N385 C377 1.427 1_545 S
N385 C383 1.384 1_545 S
H386 C392 0.930 . S
H387 C396 0.930 . S
H388 C401 0.929 . S
H389 C399 0.929 . S
H390 C394 0.929 . S
H391 C400 0.929 . S
C392 H386 0.930 . S
C392 C393 1.367 . S
C392 C400 1.378 1_655 S
C393 C392 1.367 . S
C393 C401 1.433 . S
C394 H390 0.929 . S
C394 C396 1.378 1_655 S
C394 C398 1.350 1_655 S
C395 C398 1.463 1_665 S
C395 C400 1.350 1_655 S
C395 N403 1.427 . S
C396 H387 0.930 . S
C396 C394 1.378 1_455 S
C396 C397 1.367 . S
C397 C396 1.367 . S
C397 C399 1.433 . S
C398 C394 1.350 1_455 S
C398 C395 1.463 1_445 S
C398 N402 1.427 . S
C399 H389 0.929 . S
C399 C397 1.433 . S
C399 N402 1.384 . S
C400 H391 0.929 . S
C400 C392 1.378 1_455 S
C400 C395 1.350 1_455 S
C401 H388 0.929 . S
C401 C393 1.433 . S
C401 N403 1.384 . S
N402 C398 1.427 . S
N402 C399 1.384 . S
N403 C395 1.427 . S
N403 C401 1.384 . S
H404 C410 0.930 . S
H405 C414 0.930 . S
H406 C419 0.929 . S
H407 C417 0.929 . S
H408 C412 0.929 . S
H409 C418 0.929 . S
C410 H404 0.930 . S
C410 C411 1.367 . S
C410 C418 1.378 . S
C411 C410 1.367 . S
C411 C419 1.433 . S
C412 H408 0.929 . S
C412 C414 1.378 . S
C412 C416 1.350 . S
C413 C416 1.463 1_455 S
C413 C418 1.350 . S
C413 N421 1.427 . S
C414 H405 0.930 . S
C414 C412 1.378 . S
C414 C415 1.367 . S
C415 C414 1.367 . S
C415 C417 1.433 . S
C416 C412 1.350 . S
C416 C413 1.463 1_655 S
C416 N420 1.427 . S
C417 H407 0.929 . S
C417 C415 1.433 . S
C417 N420 1.384 . S
C418 H409 0.929 . S
C418 C410 1.378 . S
C418 C413 1.350 . S
C419 H406 0.929 . S
C419 C411 1.433 . S
C419 N421 1.384 . S
N420 C416 1.427 . S
N420 C417 1.384 . S
N421 C413 1.427 . S
N421 C419 1.384 . S
H422 C428 0.930 . S
H423 C432 0.930 . S
H424 C437 0.929 . S
H425 C435 0.929 . S
H426 C430 0.929 . S
H427 C436 0.929 . S
C428 H422 0.930 . S
C428 C429 1.367 . S
C428 C436 1.378 . S
C429 C428 1.367 . S
C429 C437 1.433 . S
C430 H426 0.929 . S
C430 C432 1.378 . S
C430 C434 1.350 . S
C431 C434 1.463 . S
C431 C436 1.350 . S
C431 N439 1.427 . S
C432 H423 0.930 . S
C432 C430 1.378 . S
C432 C433 1.367 . S
C433 C432 1.367 . S
C433 C435 1.433 . S
C434 C430 1.350 . S
C434 C431 1.463 . S
C434 N438 1.427 . S
C435 H425 0.929 . S
C435 C433 1.433 . S
C435 N438 1.384 . S
C436 H427 0.929 . S
C436 C428 1.378 . S
C436 C431 1.350 . S
C437 H424 0.929 . S
C437 C429 1.433 . S
C437 N439 1.384 . S
N438 C434 1.427 . S
N438 C435 1.384 . S
N439 C431 1.427 . S
N439 C437 1.384 . S
H440 C446 0.930 . S
H441 C450 0.930 . S
H442 C455 0.929 . S
H443 C453 0.929 . S
H444 C448 0.929 . S
H445 C454 0.929 . S
C446 H440 0.930 . S
C446 C447 1.367 . S
C446 C454 1.378 . S
C447 C446 1.367 . S
C447 C455 1.433 . S
C448 H444 0.929 . S
C448 C450 1.378 . S
C448 C452 1.350 . S
C449 C452 1.463 . S
C449 C454 1.350 . S
C449 N457 1.427 . S
C450 H441 0.930 . S
C450 C448 1.378 . S
C450 C451 1.367 . S
C451 C450 1.367 . S
C451 C453 1.433 . S
C452 C448 1.350 . S
C452 C449 1.463 . S
C452 N456 1.427 . S
C453 H443 0.929 . S
C453 C451 1.433 . S
C453 N456 1.384 . S
C454 H445 0.929 . S
C454 C446 1.378 . S
C454 C449 1.350 . S
C455 H442 0.929 . S
C455 C447 1.433 . S
C455 N457 1.384 . S
N456 C452 1.427 . S
N456 C453 1.384 . S
N457 C449 1.427 . S
N457 C455 1.384 . S
H458 C464 0.930 . S
H459 C468 0.930 . S
H460 C473 0.929 . S
H461 C471 0.929 . S
H462 C466 0.929 . S
H463 C472 0.929 . S
C464 H458 0.930 . S
C464 C465 1.367 . S
C464 C472 1.378 . S
C465 C464 1.367 . S
C465 C473 1.433 . S
C466 H462 0.929 . S
C466 C468 1.378 . S
C466 C470 1.350 . S
C467 C470 1.463 1_565 S
C467 C472 1.350 . S
C467 N475 1.427 . S
C468 H459 0.930 . S
C468 C466 1.378 . S
C468 C469 1.367 . S
C469 C468 1.367 . S
C469 C471 1.433 . S
C470 C466 1.350 . S
C470 C467 1.463 1_545 S
C470 N474 1.427 . S
C471 H461 0.929 . S
C471 C469 1.433 . S
C471 N474 1.384 . S
C472 H463 0.929 . S
C472 C464 1.378 . S
C472 C467 1.350 . S
C473 H460 0.929 . S
C473 C465 1.433 . S
C473 N475 1.384 . S
N474 C470 1.427 . S
N474 C471 1.384 . S
N475 C467 1.427 . S
N475 C473 1.384 . S
H476 C482 0.930 1_545 S
H477 C486 0.930 1_565 S
H478 C491 0.929 . S
H479 C489 0.929 . S
H480 C484 0.929 . S
H481 C490 0.929 . S
C482 H476 0.930 1_565 S
C482 C483 1.367 . S
C482 C490 1.378 1_565 S
C483 C482 1.367 . S
C483 C491 1.433 . S
C484 H480 0.929 . S
C484 C486 1.378 1_565 S
C484 C488 1.350 1_565 S
C485 C488 1.463 1_665 S
C485 C490 1.350 1_565 S
C485 N493 1.427 . S
C486 H477 0.930 1_545 S
C486 C484 1.378 1_545 S
C486 C487 1.367 . S
C487 C486 1.367 . S
C487 C489 1.433 . S
C488 C484 1.350 1_545 S
C488 C485 1.463 1_445 S
C488 N492 1.427 . S
C489 H479 0.929 . S
C489 C487 1.433 . S
C489 N492 1.384 . S
C490 H481 0.929 . S
C490 C482 1.378 1_545 S
C490 C485 1.350 1_545 S
C491 H478 0.929 . S
C491 C483 1.433 . S
C491 N493 1.384 . S
N492 C488 1.427 . S
N492 C489 1.384 . S
N493 C485 1.427 . S
N493 C491 1.384 . S
H494 C500 0.930 . S
H495 C504 0.930 . S
H496 C509 0.929 . S
H497 C507 0.929 . S
H498 C502 0.929 1_455 S
H499 C508 0.929 1_655 S
C500 H494 0.930 . S
C500 C501 1.367 . S
C500 C508 1.378 . S
C501 C500 1.367 . S
C501 C509 1.433 . S
C502 H498 0.929 1_655 S
C502 C504 1.378 . S
C502 C506 1.350 . S
C503 C506 1.463 1_455 S
C503 C508 1.350 . S
C503 N511 1.427 . S
C504 H495 0.930 . S
C504 C502 1.378 . S
C504 C505 1.367 . S
C505 C504 1.367 . S
C505 C507 1.433 . S
C506 C502 1.350 . S
C506 C503 1.463 1_655 S
C506 N510 1.427 . S
C507 H497 0.929 . S
C507 C505 1.433 . S
C507 N510 1.384 . S
C508 H499 0.929 1_455 S
C508 C500 1.378 . S
C508 C503 1.350 . S
C509 H496 0.929 . S
C509 C501 1.433 . S
C509 N511 1.384 . S
N510 C506 1.427 . S
N510 C507 1.384 . S
N511 C503 1.427 . S
N511 C509 1.384 . S
H512 C518 0.930 . S
H513 C522 0.930 . S
H514 C527 0.929 . S
H515 C525 0.929 . S
H516 C520 0.929 . S
H517 C526 0.929 . S
C518 H512 0.930 . S
C518 C519 1.367 . S
C518 C526 1.378 . S
C519 C518 1.367 . S
C519 C527 1.433 . S
C520 H516 0.929 . S
C520 C522 1.378 . S
C520 C524 1.350 . S
C521 C524 1.463 . S
C521 C526 1.350 . S
C521 N529 1.427 . S
C522 H513 0.930 . S
C522 C520 1.378 . S
C522 C523 1.367 . S
C523 C522 1.367 . S
C523 C525 1.433 . S
C524 C520 1.350 . S
C524 C521 1.463 . S
C524 N528 1.427 . S
C525 H515 0.929 . S
C525 C523 1.433 . S
C525 N528 1.384 . S
C526 H517 0.929 . S
C526 C518 1.378 . S
C526 C521 1.350 . S
C527 H514 0.929 . S
C527 C519 1.433 . S
C527 N529 1.384 . S
N528 C524 1.427 . S
N528 C525 1.384 . S
N529 C521 1.427 . S
N529 C527 1.384 . S
H530 C536 0.930 . S
H531 C540 0.930 . S
H532 C545 0.929 . S
H533 C543 0.929 . S
H534 C538 0.929 . S
H535 C544 0.929 . S
C536 H530 0.930 . S
C536 C537 1.367 . S
C536 C544 1.378 . S
C537 C536 1.367 . S
C537 C545 1.433 . S
C538 H534 0.929 . S
C538 C540 1.378 . S
C538 C542 1.350 . S
C539 C542 1.463 . S
C539 C544 1.350 . S
C539 N547 1.427 . S
C540 H531 0.930 . S
C540 C538 1.378 . S
C540 C541 1.367 . S
C541 C540 1.367 . S
C541 C543 1.433 . S
C542 C538 1.350 . S
C542 C539 1.463 . S
C542 N546 1.427 . S
C543 H533 0.929 . S
C543 C541 1.433 . S
C543 N546 1.384 . S
C544 H535 0.929 . S
C544 C536 1.378 . S
C544 C539 1.350 . S
C545 H532 0.929 . S
C545 C537 1.433 . S
C545 N547 1.384 . S
N546 C542 1.427 . S
N546 C543 1.384 . S
N547 C539 1.427 . S
N547 C545 1.384 . S
H548 C554 0.930 . S
H549 C558 0.930 . S
H550 C563 0.929 . S
H551 C561 0.929 . S
H552 C556 0.929 . S
H553 C562 0.929 . S
C554 H548 0.930 . S
C554 C555 1.367 . S
C554 C562 1.378 . S
C555 C554 1.367 . S
C555 C563 1.433 . S
C556 H552 0.929 . S
C556 C558 1.378 . S
C556 C560 1.350 . S
C557 C560 1.463 . S
C557 C562 1.350 . S
C557 N565 1.427 . S
C558 H549 0.930 . S
C558 C556 1.378 . S
C558 C559 1.367 . S
C559 C558 1.367 . S
C559 C561 1.433 . S
C560 C556 1.350 . S
C560 C557 1.463 . S
C560 N564 1.427 . S
C561 H551 0.929 . S
C561 C559 1.433 . S
C561 N564 1.384 . S
C562 H553 0.929 . S
C562 C554 1.378 . S
C562 C557 1.350 . S
C563 H550 0.929 . S
C563 C555 1.433 . S
C563 N565 1.384 . S
N564 C560 1.427 . S
N564 C561 1.384 . S
N565 C557 1.427 . S
N565 C563 1.384 . S
H566 C572 0.930 . S
H567 C576 0.930 . S
H568 C581 0.929 . S
H569 C579 0.929 . S
H570 C574 0.929 . S
H571 C580 0.929 . S
C572 H566 0.930 . S
C572 C573 1.367 . S
C572 C580 1.378 . S
C573 C572 1.367 . S
C573 C581 1.433 . S
C574 H570 0.929 . S
C574 C576 1.378 . S
C574 C578 1.350 . S
C575 C578 1.463 . S
C575 C580 1.350 . S
C575 N583 1.427 . S
C576 H567 0.930 . S
C576 C574 1.378 . S
C576 C577 1.367 . S
C577 C576 1.367 . S
C577 C579 1.433 . S
C578 C574 1.350 . S
C578 C575 1.463 . S
C578 N582 1.427 . S
C579 H569 0.929 . S
C579 C577 1.433 . S
C579 N582 1.384 . S
C580 H571 0.929 . S
C580 C572 1.378 . S
C580 C575 1.350 . S
C581 H568 0.929 . S
C581 C573 1.433 . S
C581 N583 1.384 . S
N582 C578 1.427 . S
N582 C579 1.384 . S
N583 C575 1.427 . S
N583 C581 1.384 . S
H584 C590 0.930 . S
H585 C594 0.930 . S
H586 C599 0.929 . S
H587 C597 0.929 . S
H588 C592 0.929 . S
H589 C598 0.929 . S
C590 H584 0.930 . S
C590 C591 1.367 . S
C590 C598 1.378 . S
C591 C590 1.367 . S
C591 C599 1.433 . S
C592 H588 0.929 . S
C592 C594 1.378 . S
C592 C596 1.350 . S
C593 C596 1.463 . S
C593 C598 1.350 . S
C593 N601 1.427 . S
C594 H585 0.930 . S
C594 C592 1.378 . S
C594 C595 1.367 . S
C595 C594 1.367 . S
C595 C597 1.433 . S
C596 C592 1.350 . S
C596 C593 1.463 . S
C596 N600 1.427 . S
C597 H587 0.929 . S
C597 C595 1.433 . S
C597 N600 1.384 . S
C598 H589 0.929 . S
C598 C590 1.378 . S
C598 C593 1.350 . S
C599 H586 0.929 . S
C599 C591 1.433 . S
C599 N601 1.384 . S
N600 C596 1.427 . S
N600 C597 1.384 . S
N601 C593 1.427 . S
N601 C599 1.384 . S
H602 C608 0.930 . S
H603 C612 0.930 . S
H604 C617 0.929 . S
H605 C615 0.929 . S
H606 C610 0.929 . S
H607 C616 0.929 . S
C608 H602 0.930 . S
C608 C609 1.367 . S
C608 C616 1.378 . S
C609 C608 1.367 . S
C609 C617 1.433 . S
C610 H606 0.929 . S
C610 C612 1.378 . S
C610 C614 1.350 . S
C611 C614 1.463 . S
C611 C616 1.350 . S
C611 N619 1.427 . S
C612 H603 0.930 . S
C612 C610 1.378 . S
C612 C613 1.367 . S
C613 C612 1.367 . S
C613 C615 1.433 . S
C614 C610 1.350 . S
C614 C611 1.463 . S
C614 N618 1.427 . S
C615 H605 0.929 . S
C615 C613 1.433 . S
C615 N618 1.384 . S
C616 H607 0.929 . S
C616 C608 1.378 . S
C616 C611 1.350 . S
C617 H604 0.929 . S
C617 C609 1.433 . S
C617 N619 1.384 . S
N618 C614 1.427 . S
N618 C615 1.384 . S
N619 C611 1.427 . S
N619 C617 1.384 . S
H620 C626 0.930 . S
H621 C630 0.930 . S
H622 C635 0.929 . S
H623 C633 0.929 . S
H624 C628 0.929 . S
H625 C634 0.929 . S
C626 H620 0.930 . S
C626 C627 1.367 . S
C626 C634 1.378 . S
C627 C626 1.367 . S
C627 C635 1.433 . S
C628 H624 0.929 . S
C628 C630 1.378 . S
C628 C632 1.350 . S
C629 C632 1.463 . S
C629 C634 1.350 . S
C629 N637 1.427 . S
C630 H621 0.930 . S
C630 C628 1.378 . S
C630 C631 1.367 . S
C631 C630 1.367 . S
C631 C633 1.433 . S
C632 C628 1.350 . S
C632 C629 1.463 . S
C632 N636 1.427 . S
C633 H623 0.929 . S
C633 C631 1.433 . S
C633 N636 1.384 . S
C634 H625 0.929 . S
C634 C626 1.378 . S
C634 C629 1.350 . S
C635 H622 0.929 . S
C635 C627 1.433 . S
C635 N637 1.384 . S
N636 C632 1.427 . S
N636 C633 1.384 . S
N637 C629 1.427 . S
N637 C635 1.384 . S
H638 C644 0.930 . S
H639 C648 0.930 . S
H640 C653 0.929 . S
H641 C651 0.929 . S
H642 C646 0.929 . S
H643 C652 0.929 . S
C644 H638 0.930 . S
C644 C645 1.367 . S
C644 C652 1.378 . S
C645 C644 1.367 . S
C645 C653 1.433 . S
C646 H642 0.929 . S
C646 C648 1.378 . S
C646 C650 1.350 . S
C647 C650 1.463 . S
C647 C652 1.350 . S
C647 N655 1.427 . S
C648 H639 0.930 . S
C648 C646 1.378 . S
C648 C649 1.367 . S
C649 C648 1.367 . S
C649 C651 1.433 . S
C650 C646 1.350 . S
C650 C647 1.463 . S
C650 N654 1.427 . S
C651 H641 0.929 . S
C651 C649 1.433 . S
C651 N654 1.384 . S
C652 H643 0.929 . S
C652 C644 1.378 . S
C652 C647 1.350 . S
C653 H640 0.929 . S
C653 C645 1.433 . S
C653 N655 1.384 . S
N654 C650 1.427 . S
N654 C651 1.384 . S
N655 C647 1.427 . S
N655 C653 1.384 . S
H656 C662 0.930 . S
H657 C666 0.930 . S
H658 C671 0.929 . S
H659 C669 0.929 . S
H660 C664 0.929 . S
H661 C670 0.929 . S
C662 H656 0.930 . S
C662 C663 1.367 . S
C662 C670 1.378 . S
C663 C662 1.367 . S
C663 C671 1.433 . S
C664 H660 0.929 . S
C664 C666 1.378 . S
C664 C668 1.350 . S
C665 C668 1.463 . S
C665 C670 1.350 . S
C665 N673 1.427 . S
C666 H657 0.930 . S
C666 C664 1.378 . S
C666 C667 1.367 . S
C667 C666 1.367 . S
C667 C669 1.433 . S
C668 C664 1.350 . S
C668 C665 1.463 . S
C668 N672 1.427 . S
C669 H659 0.929 . S
C669 C667 1.433 . S
C669 N672 1.384 . S
C670 H661 0.929 . S
C670 C662 1.378 . S
C670 C665 1.350 . S
C671 H658 0.929 . S
C671 C663 1.433 . S
C671 N673 1.384 . S
N672 C668 1.427 . S
N672 C669 1.384 . S
N673 C665 1.427 . S
N673 C671 1.384 . S
H674 C680 0.930 . S
H675 C684 0.930 . S
H676 C689 0.929 . S
H677 C687 0.929 . S
H678 C682 0.929 . S
H679 C688 0.929 . S
C680 H674 0.930 . S
C680 C681 1.367 . S
C680 C688 1.378 . S
C681 C680 1.367 . S
C681 C689 1.433 . S
C682 H678 0.929 . S
C682 C684 1.378 . S
C682 C686 1.350 . S
C683 C686 1.463 . S
C683 C688 1.350 . S
C683 N691 1.427 . S
C684 H675 0.930 . S
C684 C682 1.378 . S
C684 C685 1.367 . S
C685 C684 1.367 . S
C685 C687 1.433 . S
C686 C682 1.350 . S
C686 C683 1.463 . S
C686 N690 1.427 . S
C687 H677 0.929 . S
C687 C685 1.433 . S
C687 N690 1.384 . S
C688 H679 0.929 . S
C688 C680 1.378 . S
C688 C683 1.350 . S
C689 H676 0.929 . S
C689 C681 1.433 . S
C689 N691 1.384 . S
N690 C686 1.427 . S
N690 C687 1.384 . S
N691 C683 1.427 . S
N691 C689 1.384 . S
H692 C698 0.930 . S
H693 C702 0.930 . S
H694 C707 0.929 . S
H695 C705 0.929 . S
H696 C700 0.929 . S
H697 C706 0.929 . S
C698 H692 0.930 . S
C698 C699 1.367 . S
C698 C706 1.378 . S
C699 C698 1.367 . S
C699 C707 1.433 . S
C700 H696 0.929 . S
C700 C702 1.378 . S
C700 C704 1.350 . S
C701 C704 1.463 . S
C701 C706 1.350 . S
C701 N709 1.427 . S
C702 H693 0.930 . S
C702 C700 1.378 . S
C702 C703 1.367 . S
C703 C702 1.367 . S
C703 C705 1.433 . S
C704 C700 1.350 . S
C704 C701 1.463 . S
C704 N708 1.427 . S
C705 H695 0.929 . S
C705 C703 1.433 . S
C705 N708 1.384 . S
C706 H697 0.929 . S
C706 C698 1.378 . S
C706 C701 1.350 . S
C707 H694 0.929 . S
C707 C699 1.433 . S
C707 N709 1.384 . S
N708 C704 1.427 . S
N708 C705 1.384 . S
N709 C701 1.427 . S
N709 C707 1.384 . S
H710 C716 0.930 . S
H711 C720 0.930 . S
H712 C725 0.929 . S
H713 C723 0.929 . S
H714 C718 0.929 . S
H715 C724 0.929 . S
C716 H710 0.930 . S
C716 C717 1.367 . S
C716 C724 1.378 . S
C717 C716 1.367 . S
C717 C725 1.433 . S
C718 H714 0.929 . S
C718 C720 1.378 . S
C718 C722 1.350 . S
C719 C722 1.463 1_556 S
C719 C724 1.350 . S
C719 N727 1.427 . S
C720 H711 0.930 . S
C720 C718 1.378 . S
C720 C721 1.367 . S
C721 C720 1.367 . S
C721 C723 1.433 . S
C722 C718 1.350 . S
C722 C719 1.463 1_554 S
C722 N726 1.427 . S
C723 H713 0.929 . S
C723 C721 1.433 . S
C723 N726 1.384 . S
C724 H715 0.929 . S
C724 C716 1.378 . S
C724 C719 1.350 . S
C725 H712 0.929 . S
C725 C717 1.433 . S
C725 N727 1.384 . S
N726 C722 1.427 . S
N726 C723 1.384 . S
N727 C719 1.427 . S
N727 C725 1.384 . S
H728 C734 0.930 . S
H729 C738 0.930 . S
H730 C743 0.929 . S
H731 C741 0.929 . S
H732 C736 0.929 . S
H733 C742 0.929 . S
C734 H728 0.930 . S
C734 C735 1.367 . S
C734 C742 1.378 . S
C735 C734 1.367 . S
C735 C743 1.433 . S
C736 H732 0.929 . S
C736 C738 1.378 . S
C736 C740 1.350 . S
C737 C740 1.463 1_554 S
C737 C742 1.350 . S
C737 N745 1.427 . S
C738 H729 0.930 . S
C738 C736 1.378 . S
C738 C739 1.367 . S
C739 C738 1.367 . S
C739 C741 1.433 . S
C740 C736 1.350 . S
C740 C737 1.463 1_556 S
C740 N744 1.427 . S
C741 H731 0.929 . S
C741 C739 1.433 . S
C741 N744 1.384 . S
C742 H733 0.929 . S
C742 C734 1.378 . S
C742 C737 1.350 . S
C743 H730 0.929 . S
C743 C735 1.433 . S
C743 N745 1.384 . S
N744 C740 1.427 . S
N744 C741 1.384 . S
N745 C737 1.427 . S
N745 C743 1.384 . S
H746 C752 0.930 . S
H747 C756 0.930 . S
H748 C761 0.929 . S
H749 C759 0.929 . S
H750 C754 0.929 . S
H751 C760 0.929 . S
C752 H746 0.930 . S
C752 C753 1.367 . S
C752 C760 1.378 . S
C753 C752 1.367 . S
C753 C761 1.433 . S
C754 H750 0.929 . S
C754 C756 1.378 . S
C754 C758 1.350 . S
C755 C758 1.463 . S
C755 C760 1.350 . S
C755 N763 1.427 . S
C756 H747 0.930 . S
C756 C754 1.378 . S
C756 C757 1.367 . S
C757 C756 1.367 . S
C757 C759 1.433 . S
C758 C754 1.350 . S
C758 C755 1.463 . S
C758 N762 1.427 . S
C759 H749 0.929 . S
C759 C757 1.433 . S
C759 N762 1.384 . S
C760 H751 0.929 . S
C760 C752 1.378 . S
C760 C755 1.350 . S
C761 H748 0.929 . S
C761 C753 1.433 . S
C761 N763 1.384 . S
N762 C758 1.427 . S
N762 C759 1.384 . S
N763 C755 1.427 . S
N763 C761 1.384 . S
H764 C770 0.930 . S
H765 C774 0.930 . S
H766 C779 0.929 . S
H767 C777 0.929 . S
H768 C772 0.929 . S
H769 C778 0.929 . S
C770 H764 0.930 . S
C770 C771 1.367 . S
C770 C778 1.378 . S
C771 C770 1.367 . S
C771 C779 1.433 . S
C772 H768 0.929 . S
C772 C774 1.378 . S
C772 C776 1.350 . S
C773 C776 1.463 . S
C773 C778 1.350 . S
C773 N781 1.427 . S
C774 H765 0.930 . S
C774 C772 1.378 . S
C774 C775 1.367 . S
C775 C774 1.367 . S
C775 C777 1.433 . S
C776 C772 1.350 . S
C776 C773 1.463 . S
C776 N780 1.427 . S
C777 H767 0.929 . S
C777 C775 1.433 . S
C777 N780 1.384 . S
C778 H769 0.929 . S
C778 C770 1.378 . S
C778 C773 1.350 . S
C779 H766 0.929 . S
C779 C771 1.433 . S
C779 N781 1.384 . S
N780 C776 1.427 . S
N780 C777 1.384 . S
N781 C773 1.427 . S
N781 C779 1.384 . S
H782 C788 0.930 . S
H783 C792 0.930 . S
H784 C797 0.929 . S
H785 C795 0.929 . S
H786 C790 0.929 . S
H787 C796 0.929 . S
C788 H782 0.930 . S
C788 C789 1.367 . S
C788 C796 1.378 . S
C789 C788 1.367 . S
C789 C797 1.433 . S
C790 H786 0.929 . S
C790 C792 1.378 . S
C790 C794 1.350 . S
C791 C794 1.463 . S
C791 C796 1.350 . S
C791 N799 1.427 . S
C792 H783 0.930 . S
C792 C790 1.378 . S
C792 C793 1.367 . S
C793 C792 1.367 . S
C793 C795 1.433 . S
C794 C790 1.350 . S
C794 C791 1.463 . S
C794 N798 1.427 . S
C795 H785 0.929 . S
C795 C793 1.433 . S
C795 N798 1.384 . S
C796 H787 0.929 . S
C796 C788 1.378 . S
C796 C791 1.350 . S
C797 H784 0.929 . S
C797 C789 1.433 . S
C797 N799 1.384 . S
N798 C794 1.427 . S
N798 C795 1.384 . S
N799 C791 1.427 . S
N799 C797 1.384 . S
C231 C146 1.322 . S
C235 C6 1.318 . S
C249 C20 1.328 . S
C253 C160 1.331 . S
C267 C118 1.323 . S
C271 C34 1.328 . S
C285 C132 1.321 . S
C289 C48 1.326 . S
C303 C62 1.330 . S
C307 C202 1.325 . S
C321 C216 1.319 . S
C325 C76 1.322 . S
C339 C90 1.326 . S
C343 C174 1.320 . S
C357 C188 1.323 . S
C361 C104 1.319 . S
C375 C149 1.759 . S
C379 C9 1.756 . S
C393 C23 1.764 . S
C397 C163 1.760 . S
C411 C37 1.765 . S
C415 C121 1.763 . S
C429 C51 1.762 . S
C433 C135 1.757 . S
C447 C65 1.756 . S
C451 C205 1.760 . S
C465 C79 1.764 . S
C469 C219 1.759 . S
C483 C177 1.764 . S
C487 C93 1.764 . S
C501 C191 1.764 . S
C505 C107 1.760 . S
C519 C8 1.191 . S
C523 C92 1.204 . S
C537 C22 1.204 . S
C541 C106 1.192 . S
C555 C36 1.184 . S
C559 C64 1.201 . S
C573 C50 1.186 . S
C577 C78 1.196 . S
C591 C120 1.203 . S
C595 C204 1.184 . S
C609 C218 1.203 . S
C613 C134 1.193 . S
C627 C148 1.190 . S
C631 C176 1.205 . S
C645 C190 1.204 . S
C649 C162 1.193 . S
C663 C7 1.408 . S
C667 C217 1.405 . S
C681 C175 1.407 . S
C685 C21 1.406 . S
C699 C189 1.411 . S
C703 C35 1.407 . S
C717 C203 1.406 . S
C721 C49 1.408 . S
C735 C133 1.405 . S
C739 C63 1.409 . S
C753 C147 1.406 . S
C757 C77 1.410 . S
C771 C91 1.408 . S
C775 C161 1.406 . S
C789 C105 1.409 . S
C793 C119 1.407 . S
