# Generated by pormake.
# Topology tfs, (6)-cn, num edge types: 1
# Building blocks:
#     Node 0, Type 0, BuildingBlock: UKALOJ_clean_sbu_0, # of connection points: 6
#     Node 1, Type 0, BuildingBlock: UKALOJ_clean_sbu_0, # of connection points: 6
#     Node 2, Type 0, BuildingBlock: UKALOJ_clean_sbu_0, # of connection points: 6
#     Node 3, Type 0, BuildingBlock: UKALOJ_clean_sbu_0, # of connection points: 6
#     Node 4, Type 0, BuildingBlock: UKALOJ_clean_sbu_0, # of connection points: 6
#     Node 5, Type 0, BuildingBlock: UKALOJ_clean_sbu_0, # of connection points: 6
#     Edge 6, Type (0, 0), BuildingBlock: XUDNAN_clean_linker_2, # of connection points: 2
#     Edge 7, Type (0, 0), BuildingBlock: XUDNAN_clean_linker_2, # of connection points: 2
#     Edge 8, Type (0, 0), BuildingBlock: XUDNAN_clean_linker_2, # of connection points: 2
#     Edge 9, Type (0, 0), BuildingBlock: XUDNAN_clean_linker_2, # of connection points: 2
#     Edge 10, Type (0, 0), BuildingBlock: XUDNAN_clean_linker_2, # of connection points: 2
#     Edge 11, Type (0, 0), BuildingBlock: XUDNAN_clean_linker_2, # of connection points: 2
#     Edge 12, Type (0, 0), BuildingBlock: XUDNAN_clean_linker_2, # of connection points: 2
#     Edge 13, Type (0, 0), BuildingBlock: XUDNAN_clean_linker_2, # of connection points: 2
#     Edge 14, Type (0, 0), BuildingBlock: XUDNAN_clean_linker_2, # of connection points: 2
#     Edge 15, Type (0, 0), BuildingBlock: XUDNAN_clean_linker_2, # of connection points: 2
#     Edge 16, Type (0, 0), BuildingBlock: XUDNAN_clean_linker_2, # of connection points: 2
#     Edge 17, Type (0, 0), BuildingBlock: XUDNAN_clean_linker_2, # of connection points: 2
#     Edge 18, Type (0, 0), BuildingBlock: XUDNAN_clean_linker_2, # of connection points: 2
#     Edge 19, Type (0, 0), BuildingBlock: XUDNAN_clean_linker_2, # of connection points: 2
#     Edge 20, Type (0, 0), BuildingBlock: XUDNAN_clean_linker_2, # of connection points: 2
#     Edge 21, Type (0, 0), BuildingBlock: XUDNAN_clean_linker_2, # of connection points: 2
#     Edge 22, Type (0, 0), BuildingBlock: XUDNAN_clean_linker_2, # of connection points: 2
#     Edge 23, Type (0, 0), BuildingBlock: XUDNAN_clean_linker_2, # of connection points: 2
# Relax obj value: 0.225
# Max RMSD: 0.157
# Mean RMSD: 0.157
data_MOF--net-tfs--node1-UKALOJ_clean_sbu_0--edge1-XUDNAN_clean_linker_2
_symmetry_space_group_name_H-M    P1
_symmetry_Int_Tables_number       1
_symmetry_cell_setting            triclinic
loop_
_symmetry_equiv_pos_as_xyz
'x, y, z'
_cell_length_a     47.85147
_cell_length_b     47.689881
_cell_length_c     15.331351
_cell_angle_alpha  89.864577
_cell_angle_beta   90.146304
_cell_angle_gamma 119.99497
loop_
_atom_site_label
_atom_site_type_symbol
_atom_site_fract_x
_atom_site_fract_y
_atom_site_fract_z
_atom_type_partial_charge
Zn0 Zn 0.19967 0.44731 0.97111 0.0
O1 O 0.19903 0.44905 0.10538 0.0
C2 C 0.27041 0.48393 0.97076 0.0
Zn3 Zn 0.21899 0.41333 0.97247 0.0
C4 C 0.20828 0.43302 0.15115 0.0
O5 O 0.21738 0.4152 0.11345 0.0
C6 C 0.21107 0.4303 0.79249 0.0
O7 O 0.17087 0.37198 0.97158 0.0
O8 O 0.1535 0.40676 0.97184 0.0
N9 N 0.24042 0.3855 0.98518 0.0
C10 C 0.23751 0.35833 0.94898 0.0
C11 C 0.27482 0.3747 0.04437 0.0
N12 N 0.26366 0.39549 0.04415 0.0
N13 N 0.25897 0.35094 0.98542 0.0
C14 C 0.18916 0.50665 -0.00799 0.0
C15 C 0.14547 0.4909 0.92101 0.0
N16 N 0.17979 0.47665 0.96173 0.0
N17 N 0.15264 0.46697 0.91769 0.0
N18 N 0.16811 0.5162 0.9668 0.0
H19 H 0.22374 0.50959 0.08778 0.0
H20 H 0.21316 0.54091 0.09594 0.0
H21 H 0.23893 0.5419 0.00937 0.0
C22 C 0.21778 0.52572 0.05009 0.0
C23 C 0.21296 0.33895 0.88075 0.0
H24 H 0.1932 0.34464 0.87969 0.0
H25 H 0.20287 0.31266 0.89245 0.0
H26 H 0.22466 0.34521 0.81573 0.0
O27 O 0.22057 0.41279 0.83099 0.0
O28 O 0.20081 0.44559 0.8374 0.0
C29 C 0.1475 0.37765 0.97121 0.0
O30 O 0.24584 0.48741 0.96881 0.0
O31 O 0.26654 0.45554 0.97362 0.0
Zn32 Zn 0.7634 0.20294 0.01863 0.0
O33 O 0.76002 0.20115 0.1529 0.0
C34 C 0.80659 0.27434 0.0237 0.0
Zn35 Zn 0.81519 0.21615 0.02054 0.0
C36 C 0.78435 0.20699 0.19904 0.0
O37 O 0.81052 0.21315 0.16158 0.0
C38 C 0.79196 0.21298 0.84034 0.0
O39 O 0.80162 0.16618 0.01466 0.0
O40 O 0.75077 0.1537 0.01572 0.0
N41 N 0.86299 0.22969 0.03614 0.0
C42 C 0.88705 0.23241 0.98442 0.0
C43 C 0.90739 0.25025 0.10994 0.0
N44 N 0.87581 0.24062 0.11407 0.0
N45 N 0.91503 0.24507 0.02958 0.0
C46 C 0.69988 0.20514 0.03338 0.0
C47 C 0.66764 0.16573 0.95285 0.0
N48 N 0.7158 0.19003 0.00685 0.0
N49 N 0.6956 0.16535 0.95746 0.0
N50 N 0.66979 0.19058 -0.00029 0.0
H51 H 0.7316 0.23333 0.13861 0.0
H52 H 0.69355 0.23276 0.13449 0.0
H53 H 0.72464 0.25621 0.05698 0.0
C54 C 0.71321 0.23337 0.0948 0.0
C55 C 0.88347 0.22426 0.88939 0.0
H56 H 0.90453 0.22292 0.86455 0.0
H57 H 0.88152 0.24326 0.85252 0.0
H58 H 0.86109 0.20076 0.87837 0.0
O59 O 0.81806 0.21924 0.87909 0.0
O60 O 0.76686 0.20507 0.88502 0.0
C61 C 0.77178 0.14481 0.0134 0.0
O62 O 0.77709 0.25253 0.01967 0.0
O63 O 0.82805 0.26603 0.02615 0.0
Zn64 Zn 0.5684 0.75364 0.05234 0.0
O65 O 0.56608 0.75137 0.19418 0.0
C66 C 0.52874 0.78578 0.04276 0.0
Zn67 Zn 0.59874 0.80751 0.05388 0.0
C68 C 0.57998 0.77871 0.23255 0.0
O69 O 0.59481 0.80427 0.18745 0.0
C70 C 0.5871 0.78481 0.87383 0.0
O71 O 0.64098 0.80223 0.06066 0.0
O72 O 0.60937 0.7492 0.05505 0.0
N73 N 0.62543 0.85678 0.06751 0.0
C74 C 0.65004 0.88125 0.02382 0.0
C75 C 0.63607 0.90229 0.12512 0.0
N76 N 0.61699 0.87001 0.13047 0.0
N77 N 0.65708 0.91008 0.05887 0.0
C78 C 0.50859 0.68523 0.06642 0.0
C79 C 0.51922 0.65824 0.97557 0.0
N80 N 0.53937 0.70443 0.04073 0.0
N81 N 0.5461 0.68741 0.98514 0.0
N82 N 0.4953 0.65629 0.02594 0.0
H83 H 0.50787 0.71404 0.17441 0.0
H84 H 0.47395 0.67323 0.16917 0.0
H85 H 0.47657 0.70333 0.09475 0.0
C86 C 0.49098 0.69465 0.13018 0.0
C87 C 0.66468 0.87677 0.94262 0.0
H88 H 0.68954 0.89706 0.93238 0.0
H89 H 0.64983 0.87584 0.88583 0.0
H90 H 0.66481 0.85359 0.94559 0.0
O91 O 0.60178 0.81033 0.9195 0.0
O92 O 0.5715 0.75741 0.91161 0.0
C93 C 0.63741 0.77388 0.05867 0.0
O94 O 0.52764 0.75871 0.04623 0.0
O95 O 0.55599 0.81163 0.04634 0.0
Zn96 Zn 0.80747 0.56395 0.93289 0.0
O97 O 0.80958 0.56531 0.06644 0.0
C98 C 0.73706 0.53886 0.94273 0.0
Zn99 Zn 0.79669 0.60436 0.93305 0.0
C100 C 0.80478 0.58459 0.1123 0.0
O101 O 0.79947 0.60537 0.07465 0.0
C102 C 0.79868 0.58077 0.7537 0.0
O103 O 0.8458 0.63928 0.92514 0.0
O104 O 0.85751 0.60037 0.92693 0.0
N105 N 0.786 0.64086 0.92913 0.0
C106 C 0.77034 0.65057 0.98341 0.0
C107 C 0.78493 0.6818 0.87257 0.0
N108 N 0.79509 0.66038 0.86054 0.0
N109 N 0.76954 0.67632 0.94946 0.0
C110 C 0.81118 0.50047 0.96857 0.0
C111 C 0.85332 0.51175 0.89519 0.0
N112 N 0.82118 0.52942 0.92974 0.0
N113 N 0.84723 0.53615 0.88393 0.0
N114 N 0.83106 0.48895 0.94787 0.0
H115 H 0.78852 0.47218 0.0834 0.0
H116 H 0.76185 0.46586 -0.00652 0.0
H117 H 0.7771 0.50223 0.05714 0.0
C118 C 0.78316 0.48446 0.02977 0.0
C119 C 0.75432 0.6337 0.06658 0.0
H120 H 0.73355 0.63712 0.0817 0.0
H121 H 0.77203 0.6441 0.12075 0.0
H122 H 0.74591 0.60748 0.0622 0.0
O123 O 0.79403 0.60181 0.79161 0.0
O124 O 0.80501 0.56244 0.79919 0.0
C125 C 0.86674 0.63041 0.92356 0.0
O126 O 0.7571 0.52865 0.9391 0.0
O127 O 0.74747 0.56917 0.94063 0.0
Zn128 Zn 0.25079 0.80855 -0.00177 0.0
O129 O 0.25277 0.80952 0.13953 0.0
C130 C 0.20657 0.73769 0.00464 0.0
Zn131 Zn 0.19944 0.79681 -0.00144 0.0
C132 C 0.22711 0.80437 0.17811 0.0
O133 O 0.20311 0.80015 0.13307 0.0
C134 C 0.22122 0.79873 0.81906 0.0
O135 O 0.21311 0.84662 -0.01034 0.0
O136 O 0.26366 0.85805 -0.00455 0.0
N137 N 0.1514 0.78247 0.01226 0.0
C138 C 0.12726 0.77901 0.95936 0.0
C139 C 0.1061 0.75724 0.08131 0.0
N140 N 0.13806 0.76916 0.08802 0.0
N141 N 0.09865 0.76313 0.00132 0.0
C142 C 0.31424 0.80641 0.02002 0.0
C143 C 0.34802 0.84745 0.94678 0.0
N144 N 0.29854 0.82145 -0.00925 0.0
N145 N 0.31965 0.84711 0.94581 0.0
N146 N 0.34519 0.82208 -0.00722 0.0
H147 H 0.28062 0.7766 0.11978 0.0
H148 H 0.31857 0.77697 0.12017 0.0
H149 H 0.28895 0.75502 0.03745 0.0
C150 C 0.29975 0.77717 0.07812 0.0
C151 C 0.13138 0.7886 0.86527 0.0
H152 H 0.15484 0.81108 0.85512 0.0
H153 H 0.11158 0.79244 0.84219 0.0
H154 H 0.13086 0.76886 0.82608 0.0
O155 O 0.19655 0.7928 0.86378 0.0
O156 O 0.24785 0.80701 0.85762 0.0
C157 C 0.2431 0.86753 -0.00987 0.0
O158 O 0.23642 0.75846 -0.00093 0.0
O159 O 0.18624 0.74738 0.00708 0.0
Zn160 Zn 0.44703 0.2605 0.9767 0.0
O161 O 0.44857 0.26324 0.11062 0.0
C162 C 0.48888 0.23148 0.97861 0.0
Zn163 Zn 0.41748 0.20658 0.97709 0.0
C164 C 0.43403 0.23773 0.15627 0.0
O165 O 0.4181 0.21044 0.11836 0.0
C166 C 0.43302 0.23158 0.79766 0.0
O167 O 0.37373 0.20875 0.9706 0.0
O168 O 0.40383 0.26194 0.97712 0.0
N169 N 0.39344 0.15729 -0.0089 0.0
C170 C 0.36693 0.13166 0.95712 0.0
C171 C 0.38821 0.11325 0.04597 0.0
N172 N 0.40642 0.14566 0.0464 0.0
N173 N 0.36318 0.10365 -0.00939 0.0
C174 C 0.50358 0.33163 -0.00613 0.0
C175 C 0.48733 0.35735 0.91431 0.0
N176 N 0.47363 0.31004 0.96575 0.0
N177 N 0.46357 0.32614 0.91661 0.0
N178 N 0.51285 0.3614 0.96164 0.0
H179 H 0.50738 0.30261 0.0968 0.0
H180 H 0.53757 0.34506 0.09973 0.0
H181 H 0.53982 0.31894 0.01954 0.0
C182 C 0.52302 0.32404 0.05649 0.0
C183 C 0.3459 0.13425 0.88892 0.0
H184 H 0.35909 0.15755 0.85335 0.0
H185 H 0.32469 0.1333 0.92101 0.0
H186 H 0.33714 0.11377 0.84237 0.0
O187 O 0.41822 0.20421 0.83603 0.0
O188 O 0.44549 0.25732 0.84265 0.0
C189 C 0.37619 0.23662 0.97269 0.0
O190 O 0.48958 0.25836 0.97511 0.0
O191 O 0.46177 0.20549 0.98203 0.0
H192 H 0.35451 0.26138 0.09612 0.0
H193 H 0.33633 0.22365 0.83308 0.0
H194 H 0.29756 0.24327 0.81101 0.0
H195 H 0.26929 0.24421 0.14 0.0
H196 H 0.28435 0.28074 0.20343 0.0
H197 H 0.30609 0.2589 0.20179 0.0
H198 H 0.35756 0.31109 0.15208 0.0
H199 H 0.336 0.33294 0.15231 0.0
H200 H 0.35619 0.33162 0.05462 0.0
H201 H 0.27042 0.27758 0.80943 0.0
H202 H 0.25278 0.31739 0.83314 0.0
H203 H 0.28377 0.32731 0.10294 0.0
C204 C 0.34123 0.25607 0.03533 0.0
C205 C 0.34771 0.24058 0.96676 0.0
C206 C 0.3309 0.23483 0.88689 0.0
C207 C 0.30903 0.24604 0.8738 0.0
C208 C 0.30385 0.26226 0.94204 0.0
C209 C 0.31887 0.26643 0.02211 0.0
C210 C 0.31114 0.28655 0.08288 0.0
C211 C 0.29154 0.26639 0.16168 0.0
C212 C 0.34206 0.31736 0.1121 0.0
C213 C 0.29081 0.29451 0.02328 0.0
C214 C 0.28671 0.28029 0.94238 0.0
C215 C 0.27226 0.28771 0.8737 0.0
C216 C 0.26191 0.31025 0.88812 0.0
C217 C 0.26559 0.32481 0.97109 0.0
C218 C 0.27984 0.31617 0.03928 0.0
H219 H 0.09458 0.38435 0.98478 0.0
H220 H 0.12294 0.31154 0.95447 0.0
H221 H 0.06511 0.26877 0.95193 0.0
H222 H 0.03045 0.34016 0.12931 0.0
H223 H 1.0057 0.35542 0.085 0.0
H224 H 0.04892 0.3795 0.07833 0.0
H225 H 0.0448 0.38356 0.91057 0.0
H226 H 1.00149 0.35919 0.91661 0.0
H227 H 0.02382 0.34705 0.84681 0.0
H228 H 1.00299 0.23389 0.95947 0.0
H229 H 0.94416 0.21095 0.98588 0.0
H230 H 0.95888 0.3076 0.0115 0.0
C231 C 0.08885 0.35947 0.97687 0.0
C232 C 0.11334 0.35131 0.96954 0.0
C233 C 0.10456 0.31835 0.96019 0.0
C234 C 0.0718 0.29397 0.95824 0.0
C235 C 0.04828 0.30303 0.96553 0.0
C236 C 0.0566 0.33509 0.97501 0.0
C237 C 0.02732 0.33887 0.98634 0.0
C238 C 0.02816 0.35439 0.07501 0.0
C239 C 0.02418 0.35832 0.91055 0.0
C240 C 1.00097 0.30386 0.98314 0.0
C241 C 0.01328 0.28339 0.97008 0.0
C242 C 0.99319 0.24978 0.96871 0.0
C243 C 0.95992 0.23694 0.98315 0.0
C244 C 0.9474 0.25772 -0.001 0.0
C245 C 0.96809 0.29145 -0.00234 0.0
H246 H 0.70989 0.09413 0.00833 0.0
H247 H 0.80957 0.11622 0.01004 0.0
H248 H 0.79104 0.05755 0.00745 0.0
H249 H 0.68007 0.02769 0.15039 0.0
H250 H 0.64195 1.00488 0.09484 0.0
H251 H 0.6634 0.04838 0.0898 0.0
H252 H 0.66232 0.04579 0.92084 0.0
H253 H 0.64098 1.00219 0.92538 0.0
H254 H 0.67836 0.02351 0.86594 0.0
H255 H 0.76081 0.99573 0.01572 0.0
H256 H 0.72185 0.93728 0.03834 0.0
H257 H 0.64287 0.95685 0.02807 0.0
C258 C 0.72793 0.08676 0.00731 0.0
C259 C 0.76122 0.10983 0.00933 0.0
C260 C 0.78393 0.099 0.00843 0.0
C261 C 0.77363 0.06573 0.00665 0.0
C262 C 0.74055 0.04364 0.0052 0.0
C263 C 0.71811 0.05382 0.00541 0.0
C264 C 0.684 0.0255 0.00823 0.0
C265 C 0.66634 0.02669 0.09072 0.0
C266 C 0.66532 0.02418 0.92514 0.0
C267 C 0.69065 0.99769 0.01153 0.0
C268 C 0.72336 0.00846 0.0088 0.0
C269 C 0.73515 0.98702 0.0161 0.0
C270 C 0.71293 0.95388 0.02798 0.0
C271 C 0.67944 0.94266 0.03219 0.0
C272 C 0.66834 0.96488 0.02296 0.0
H273 H 0.7277 0.68795 0.86237 0.0
H274 H 0.77773 0.70401 0.10865 0.0
H275 H 0.75322 0.73625 0.16057 0.0
H276 H 0.73249 0.76585 0.84373 0.0
H277 H 0.69248 0.74915 0.79864 0.0
H278 H 0.71547 0.7292 0.78013 0.0
H279 H 0.66914 0.67593 0.8451 0.0
H280 H 0.64588 0.6956 0.86249 0.0
H281 H 0.6541 0.67639 0.95248 0.0
H282 H 0.72242 0.76675 0.18402 0.0
H283 H 0.68306 0.7864 0.18396 0.0
H284 H 0.65198 0.74747 0.92443 0.0
C285 C 0.7335 0.69843 0.92705 0.0
C286 C 0.75442 0.69368 0.98186 0.0
C287 C 0.76142 0.7073 0.06644 0.0
C288 C 0.74788 0.72582 0.09587 0.0
C289 C 0.72732 0.73021 0.03981 0.0
C290 C 0.71985 0.71645 0.9576 0.0
C291 C 0.6955 0.72273 0.91188 0.0
C292 C 0.70986 0.74294 0.82868 0.0
C293 C 0.66431 0.69077 0.89187 0.0
C294 C 0.69016 0.742 0.98126 0.0
C295 C 0.70911 0.74667 0.05411 0.0
C296 C 0.70762 0.76335 0.12715 0.0
C297 C 0.68549 0.77464 0.12645 0.0
C298 C 0.66509 0.76871 0.05372 0.0
C299 C 0.66782 0.75266 0.98012 0.0
H300 H 0.05464 0.69992 -0.00142 0.0
H301 H 0.06985 0.79492 0.93463 0.0
H302 H 0.01183 0.77056 0.896 0.0
H303 H 0.99323 0.65443 0.82834 0.0
H304 H 0.97075 0.62023 0.89945 0.0
H305 H 0.01385 0.64497 0.91179 0.0
H306 H 1.00617 0.65453 0.07415 0.0
H307 H 0.96311 0.63012 0.06218 0.0
H308 H 0.98071 0.67109 0.10161 0.0
H309 H 0.95127 0.73619 0.8809 0.0
H310 H 0.89346 0.69466 0.88304 0.0
H311 H 0.91838 0.62178 0.95513 0.0
C312 C 0.04573 0.71534 0.9743 0.0
C313 C 0.06645 0.74908 0.96771 0.0
C314 C 0.05425 0.76891 0.93775 0.0
C315 C 0.02143 0.75528 0.91629 0.0
C316 C 1.00141 0.72183 0.9249 0.0
C317 C 0.01322 0.70209 0.95229 0.0
C318 C 0.98654 0.66721 0.96097 0.0
C319 C 0.99139 0.64543 0.89626 0.0
C320 C 0.984 0.65505 0.05533 0.0
C321 C 0.95765 0.67043 0.93643 0.0
C322 C 0.9667 0.70208 0.91553 0.0
C323 C 0.94398 0.71127 0.89585 0.0
C324 C 0.91119 0.68752 0.89764 0.0
C325 C 0.90143 0.65494 0.9188 0.0
C326 C 0.92509 0.64637 0.9376 0.0
H327 H 0.30546 0.9173 0.98624 0.0
H328 H 0.20649 0.89731 0.97771 0.0
H329 H 0.22626 0.95612 0.9658 0.0
H330 H 0.33642 0.98747 0.11735 0.0
H331 H 0.37467 0.00806 0.06171 0.0
H332 H 0.35233 0.96453 0.06538 0.0
H333 H 0.35364 0.9626 0.8965 0.0
H334 H 0.37583 0.00619 0.89228 0.0
H335 H 0.33843 0.98399 0.83308 0.0
H336 H 0.25787 0.01831 0.96196 0.0
H337 H 0.29793 0.07691 0.97135 0.0
H338 H 0.37518 0.05455 0.97827 0.0
C339 C 0.28782 0.92514 0.98149 0.0
C340 C 0.2544 0.90263 0.98295 0.0
C341 C 0.23224 0.91409 0.97678 0.0
C342 C 0.24324 0.94745 0.9697 0.0
C343 C 0.27645 0.96898 0.96844 0.0
C344 C 0.29833 0.95815 0.97423 0.0
C345 C 0.33271 0.98595 0.9745 0.0
C346 C 0.35003 0.98653 0.05981 0.0
C347 C 0.35123 0.98459 0.8943 0.0
C348 C 0.32688 0.01426 0.96911 0.0
C349 C 0.29435 1.00418 0.96508 0.0
C350 C 0.28341 0.02641 0.96371 0.0
C351 C 0.30632 0.05968 0.96808 0.0
C352 C 0.33969 0.07028 0.9736 0.0
C353 C 0.34984 0.04712 0.973 0.0
H354 H 0.2419 0.70727 0.97698 0.0
H355 H 0.14546 0.6885 0.03801 0.0
H356 H 0.12586 0.62988 0.0403 0.0
H357 H 0.21761 0.64026 0.83391 0.0
H358 H 0.24855 0.63165 0.86871 0.0
H359 H 0.25544 0.67231 0.87543 0.0
H360 H 0.26829 0.6739 0.04013 0.0
H361 H 0.26137 0.63317 0.03403 0.0
H362 H 0.23925 0.64297 0.11139 0.0
H363 H 0.11608 0.57334 0.03084 0.0
H364 H 0.11706 0.52237 0.01038 0.0
H365 H 0.21943 0.5775 0.95472 0.0
C366 C 0.21676 0.69088 -0.00816 0.0
C367 C 0.19528 0.70257 0.00779 0.0
C368 C 0.16241 0.6802 0.0256 0.0
C369 C 0.15103 0.64682 0.02727 0.0
C370 C 0.17278 0.63612 0.01104 0.0
C371 C 0.20495 0.65743 -0.00634 0.0
C372 C 0.22301 0.63945 0.97588 0.0
C373 C 0.23696 0.64633 0.88295 0.0
C374 C 0.24955 0.64788 0.04446 0.0
C375 C 0.1959 0.60473 0.98546 0.0
C376 C 0.16716 0.6034 0.00601 0.0
C377 C 0.1385 0.57406 0.01555 0.0
C378 C 0.13923 0.5453 0.00368 0.0
C379 C 0.16839 0.54604 0.98302 0.0
C380 C 0.19704 0.57621 0.97351 0.0
H381 H 0.49827 0.17985 0.01199 0.0
H382 H 0.54872 0.28171 0.94105 0.0
H383 H 0.60027 0.28216 0.94262 0.0
H384 H 0.55946 0.18306 0.15619 0.0
H385 H 0.55407 0.14447 0.12253 0.0
H386 H 0.52069 0.15188 0.1172 0.0
H387 H 0.5132 0.13707 0.95305 0.0
H388 H 0.54648 0.12952 0.9579 0.0
H389 H 0.54688 0.15804 0.87982 0.0
H390 H 0.64611 0.27208 0.94987 0.0
H391 H 0.68401 0.25139 0.95995 0.0
H392 H 0.60514 0.15607 0.02575 0.0
C393 C 0.52017 0.20221 -0.00323 0.0
C394 C 0.51948 0.2309 0.97775 0.0
C395 C 0.54865 0.25962 0.9577 0.0
C396 C 0.5781 0.2601 0.95789 0.0
C397 C 0.57802 0.2316 0.97776 0.0
C398 C 0.54991 0.20312 -0.00357 0.0
C399 C 0.55679 0.17586 0.01451 0.0
C400 C 0.54718 0.16307 0.10819 0.0
C401 C 0.53983 0.14851 0.9473 0.0
C402 C 0.59313 0.19356 0.00295 0.0
C403 C 0.60477 0.22572 0.98203 0.0
C404 C 0.63739 0.24705 0.96725 0.0
C405 C 0.65879 0.23522 0.97418 0.0
C406 C 0.64754 0.20247 -0.00362 0.0
C407 C 0.61425 0.18131 0.00998 0.0
H408 H 0.46166 0.59105 0.04989 0.0
H409 H 0.45345 0.67314 0.96313 0.0
H410 H 0.39519 0.63741 0.93733 0.0
H411 H 0.40423 0.53347 0.89288 0.0
H412 H 0.38753 0.49996 0.96831 0.0
H413 H 0.42886 0.53185 0.97971 0.0
H414 H 0.41767 0.54128 0.13909 0.0
H415 H 0.37633 0.50941 0.12817 0.0
H416 H 0.38535 0.54933 0.16121 0.0
H417 H 0.33856 0.59416 0.92476 0.0
H418 H 0.28536 0.54474 0.92327 0.0
H419 H 0.32878 0.48887 0.01467 0.0
C420 C 0.44737 0.60122 0.02552 0.0
C421 C 0.46155 0.63482 0.01063 0.0
C422 C 0.44257 0.64757 0.97757 0.0
C423 C 0.40962 0.62746 0.96195 0.0
C424 C 0.39611 0.59453 0.97871 0.0
C425 C 0.41423 0.58132 0.00935 0.0
C426 C 0.39327 0.54502 0.02222 0.0
C427 C 0.40412 0.52649 0.96218 0.0
C428 C 0.39315 0.53572 0.1184 0.0
C429 C 0.36062 0.54011 -0.00529 0.0
C430 C 0.36301 0.5691 0.96983 0.0
C431 C 0.3363 0.57125 0.94376 0.0
C432 C 0.30616 0.54302 0.9435 0.0
C433 C 0.30289 0.51296 0.96903 0.0
C434 C 0.33059 0.51148 -0.00575 0.0
H435 H 0.78146 0.42655 0.9479 0.0
H436 H 0.8827 0.48752 0.01026 0.0
H437 H 0.88679 0.43906 0.04509 0.0
H438 H 0.76356 0.3629 0.11463 0.0
H439 H 0.73685 0.33064 0.04274 0.0
H440 H 0.74101 0.37021 0.03218 0.0
H441 H 0.75631 0.37187 0.86952 0.0
H442 H 0.75243 0.33248 0.8799 0.0
H443 H 0.78964 0.36615 0.84084 0.0
H444 H 0.88116 0.38433 0.06142 0.0
H445 H 0.86576 0.32656 0.06159 0.0
H446 H 0.76826 0.30066 0.98619 0.0
C447 C 0.80413 0.42956 0.97155 0.0
C448 C 0.83169 0.46069 0.97801 0.0
C449 C 0.86134 0.46381 0.00581 0.0
C450 C 0.86385 0.43647 0.02575 0.0
C451 C 0.83646 0.40607 0.01719 0.0
C452 C 0.80709 0.40237 -0.00882 0.0
C453 C 0.78199 0.36682 0.98167 0.0
C454 C 0.75421 0.35707 0.0467 0.0
C455 C 0.76937 0.35888 0.88737 0.0
C456 C 0.80202 0.35128 0.00499 0.0
C457 C 0.8333 0.37435 0.02579 0.0
C458 C 0.85662 0.36598 0.04621 0.0
C459 C 0.84769 0.33312 0.04577 0.0
C460 C 0.81572 0.30899 0.02491 0.0
C461 C 0.7927 0.31838 0.00426 0.0
H462 H 0.40853 0.85784 0.03657 0.0
H463 H 0.33447 0.76264 0.9519 0.0
H464 H 0.37376 0.74355 0.95639 0.0
H465 H 0.47376 0.85945 0.91285 0.0
H466 H 0.50381 0.88004 -0.00381 0.0
H467 H 0.46986 0.88647 0.98742 0.0
H468 H 0.45525 0.8694 0.1489 0.0
H469 H 0.48917 0.86296 0.15817 0.0
H470 H 0.4492 0.83072 0.18479 0.0
H471 H 0.42008 0.73477 0.96784 0.0
H472 H 0.47154 0.736 0.98723 0.0
H473 H 0.5173 0.83683 0.06633 0.0
C474 C 0.40079 0.83301 0.01937 0.0
C475 C 0.36837 0.81136 -0.00381 0.0
C476 C 0.35893 0.77915 0.97281 0.0
C477 C 0.38114 0.76824 0.97428 0.0
C478 C 0.41278 0.78995 -0.00132 0.0
C479 C 0.42277 0.82165 0.02079 0.0
C480 C 0.45836 0.83976 0.04458 0.0
C481 C 0.47758 0.86811 0.98148 0.0
C482 C 0.46327 0.85139 0.13978 0.0
C483 C 0.46668 0.8132 0.03239 0.0
C484 C 0.43991 0.78477 0.00568 0.0
C485 C 0.44118 0.75678 -0.01052 0.0
C486 C 0.47054 0.75769 0.00149 0.0
C487 C 0.49835 0.78631 0.03011 0.0
C488 C 0.49642 0.81456 0.04495 0.0
H489 H 0.70419 0.47195 0.93584 0.0
H490 H 0.69021 0.5546 0.96852 0.0
H491 H 0.6317 0.51789 0.98217 0.0
H492 H 0.63344 0.42494 0.80569 0.0
H493 H 0.62427 0.38675 0.85375 0.0
H494 H 0.6654 0.41945 0.8494 0.0
H495 H 0.67036 0.41552 0.01673 0.0
H496 H 0.62915 0.3829 0.0216 0.0
H497 H 0.64195 0.41854 0.08749 0.0
H498 H 0.57457 0.47275 -0.01158 0.0
H499 H 0.52226 0.42139 0.98571 0.0
H500 H 0.57266 0.36816 0.9461 0.0
C501 C 0.68882 0.4823 0.94616 0.0
C502 C 0.70189 0.51621 0.951 0.0
C503 C 0.68088 0.52875 0.96428 0.0
C504 C 0.64754 0.50809 0.9724 0.0
C505 C 0.63543 0.47487 0.9671 0.0
C506 C 0.65533 0.46198 0.95411 0.0
C507 C 0.63584 0.42534 0.94863 0.0
C508 C 0.63999 0.41343 0.85903 0.0
C509 C 0.64487 0.40966 0.02306 0.0
C510 C 0.60197 0.4198 0.96014 0.0
C511 C 0.60232 0.44871 0.97105 0.0
C512 C 0.57398 0.44991 0.98067 0.0
C513 C 0.54445 0.42075 0.97896 0.0
C514 C 0.54348 0.39084 0.96821 0.0
C515 C 0.57268 0.39049 0.95813 0.0
H516 H 0.21577 0.39279 0.65929 0.0
H517 H 0.21171 0.48042 0.70977 0.0
H518 H 0.21236 0.49029 0.55352 0.0
H519 H 0.26894 0.42475 0.46641 0.0
H520 H 0.24852 0.38709 0.4073 0.0
H521 H 0.24946 0.38684 0.52484 0.0
H522 H 0.18707 0.35305 0.52817 0.0
H523 H 0.18593 0.35331 0.41072 0.0
H524 H 0.16384 0.36796 0.47253 0.0
H525 H 0.20995 0.49022 0.39691 0.0
H526 H 0.20694 0.48129 0.23937 0.0
H527 H 0.21366 0.39453 0.27933 0.0
C528 C 0.21539 0.41416 0.63706 0.0
C529 C 0.21342 0.43563 0.6971 0.0
C530 C 0.2128 0.4633 0.66552 0.0
C531 C 0.21331 0.46932 0.57661 0.0
C532 C 0.21457 0.44757 0.51923 0.0
C533 C 0.2158 0.42065 0.54721 0.0
C534 C 0.21615 0.40105 0.46939 0.0
C535 C 0.24765 0.39987 0.46685 0.0
C536 C 0.18647 0.36681 0.47029 0.0
C537 C 0.21447 0.42114 0.39435 0.0
C538 C 0.21361 0.44781 0.42563 0.0
C539 C 0.21087 0.4696 0.37112 0.0
C540 C 0.20902 0.46417 0.28155 0.0
C541 C 0.21007 0.43722 0.24681 0.0
C542 C 0.21301 0.41544 0.30406 0.0
H543 H 0.83133 0.21184 0.70708 0.0
H544 H 0.74673 0.22084 0.75761 0.0
H545 H 0.73748 0.22135 0.60127 0.0
H546 H 0.85722 0.264 0.50982 0.0
H547 H 0.87007 0.23943 0.45259 0.0
H548 H 0.87195 0.24149 0.57002 0.0
H549 H 0.83718 0.17902 0.57825 0.0
H550 H 0.83497 0.17679 0.46094 0.0
H551 H 0.79844 0.15881 0.52459 0.0
H552 H 0.73364 0.21673 0.44487 0.0
H553 H 0.73797 0.21149 0.28757 0.0
H554 H 0.82582 0.20725 0.32723 0.0
C555 C 0.8112 0.21437 0.68481 0.0
C556 C 0.78961 0.21598 0.74491 0.0
C557 C 0.76342 0.21911 0.7133 0.0
C558 C 0.75792 0.21955 0.62434 0.0
C559 C 0.77889 0.21705 0.56694 0.0
C560 C 0.80522 0.21487 0.59491 0.0
C561 C 0.82323 0.2118 0.51712 0.0
C562 C 0.85766 0.24092 0.5121 0.0
C563 C 0.82346 0.17969 0.52046 0.0
C564 C 0.80244 0.21212 0.44216 0.0
C565 C 0.77703 0.2151 0.47342 0.0
C566 C 0.7536 0.21474 0.41906 0.0
C567 C 0.75623 0.21156 0.32962 0.0
C568 C 0.78226 0.20901 0.2948 0.0
C569 C 0.80577 0.20935 0.35196 0.0
H570 H 0.57169 0.73791 0.74613 0.0
H571 H 0.6005 0.83911 0.78518 0.0
H572 H 0.59845 0.84618 0.62761 0.0
H573 H 0.61894 0.75144 0.55068 0.0
H574 H 0.58952 0.71487 0.49691 0.0
H575 H 0.59165 0.71655 0.61427 0.0
H576 H 0.5312 0.69975 0.6213 0.0
H577 H 0.52893 0.69818 0.50388 0.0
H578 H 0.51717 0.72325 0.56304 0.0
H579 H 0.59379 0.84366 0.471 0.0
H580 H 0.59078 0.83301 0.31478 0.0
H581 H 0.56645 0.7336 0.36636 0.0
C582 C 0.57745 0.76146 0.72116 0.0
C583 C 0.58629 0.78798 0.77812 0.0
C584 C 0.59392 0.8185 0.74313 0.0
C585 C 0.59261 0.82275 0.6536 0.0
C586 C 0.58385 0.79634 0.59937 0.0
C587 C 0.57667 0.76634 0.63089 0.0
C588 C 0.56942 0.7427 0.55606 0.0
C589 C 0.59384 0.73069 0.5544 0.0
C590 C 0.5346 0.71428 0.56142 0.0
C591 C 0.57384 0.76436 0.47813 0.0
C592 C 0.58184 0.79504 0.50582 0.0
C593 C 0.58766 0.8198 0.44816 0.0
C594 C 0.58596 0.81341 0.35926 0.0
C595 C 0.57867 0.78251 0.32795 0.0
C596 C 0.57197 0.75739 0.38833 0.0
H597 H 0.79897 0.62195 0.6234 0.0
H598 H 0.79344 0.52915 0.66757 0.0
H599 H 0.79326 0.52099 0.51048 0.0
H600 H 0.74704 0.59636 0.42696 0.0
H601 H 0.77055 0.63446 0.37134 0.0
H602 H 0.76869 0.63327 0.48881 0.0
H603 H 0.83105 0.66239 0.49629 0.0
H604 H 0.83311 0.66352 0.37891 0.0
H605 H 0.85207 0.64523 0.44019 0.0
H606 H 0.79724 0.52311 0.35461 0.0
H607 H 0.80184 0.53378 0.1984 0.0
H608 H 0.80337 0.62463 0.24324 0.0
C609 C 0.79733 0.59981 0.59962 0.0
C610 C 0.79643 0.5763 0.65809 0.0
C611 C 0.79448 0.5477 0.62456 0.0
C612 C 0.79426 0.54271 0.53518 0.0
C613 C 0.79585 0.56642 0.47949 0.0
C614 C 0.79708 0.5943 0.50939 0.0
C615 C 0.79933 0.61586 0.43312 0.0
C616 C 0.76963 0.62024 0.42988 0.0
C617 C 0.83076 0.6487 0.43741 0.0
C618 C 0.7996 0.59572 0.35659 0.0
C619 C 0.7976 0.56739 0.38604 0.0
C620 C 0.79851 0.54503 0.33025 0.0
C621 C 0.8013 0.55151 0.24127 0.0
C622 C 0.80295 0.58009 0.20802 0.0
C623 C 0.80202 0.60254 0.26664 0.0
H624 H 0.27288 0.82848 0.31235 0.0
H625 H 0.17039 0.76778 0.25878 0.0
H626 H 0.15943 0.75822 0.41477 0.0
H627 H 0.27536 0.78164 0.50098 0.0
H628 H 0.30307 0.81691 0.56256 0.0
H629 H 0.30417 0.81799 0.44502 0.0
H630 H 0.29672 0.86817 0.44615 0.0
H631 H 0.29558 0.86722 0.5636 0.0
H632 H 0.26276 0.86611 0.50276 0.0
H633 H 0.15788 0.75598 0.57203 0.0
H634 H 0.16587 0.76223 0.7301 0.0
H635 H 0.26893 0.82515 0.69196 0.0
C636 C 0.24827 0.813 0.33387 0.0
C637 C 0.2225 0.79905 0.27323 0.0
C638 C 0.19053 0.77909 0.30374 0.0
C639 C 0.18399 0.77328 0.39239 0.0
C640 C 0.2096 0.78762 0.4505 0.0
C641 C 0.24111 0.80713 0.42341 0.0
C642 C 0.26355 0.82053 0.5018 0.0
C643 C 0.28799 0.80854 0.50262 0.0
C644 C 0.28066 0.85771 0.50366 0.0
C645 C 0.23948 0.80569 0.57623 0.0
C646 C 0.20861 0.78664 0.54419 0.0
C647 C 0.18191 0.77082 0.59831 0.0
C648 C 0.18669 0.77476 0.68814 0.0
C649 C 0.21791 0.79449 0.72346 0.0
C650 C 0.24479 0.80986 0.66671 0.0
H651 H 0.39835 0.18779 0.66429 0.0
H652 H 0.4799 0.28371 0.71536 0.0
H653 H 0.48873 0.29377 0.55903 0.0
H654 H 0.43376 0.17172 0.46964 0.0
H655 H 0.39603 0.15137 0.41118 0.0
H656 H 0.39631 0.15004 0.52869 0.0
H657 H 0.35753 0.1731 0.53403 0.0
H658 H 0.35726 0.17467 0.41662 0.0
H659 H 0.36859 0.21074 0.47931 0.0
H660 H 0.48773 0.29628 0.40251 0.0
H661 H 0.47871 0.2899 0.24511 0.0
H662 H 0.39874 0.19206 0.28431 0.0
C663 C 0.41824 0.21065 0.64214 0.0
C664 C 0.43825 0.23502 0.70233 0.0
C665 C 0.46394 0.26476 0.67093 0.0
C666 C 0.46933 0.27076 0.58201 0.0
C667 C 0.44895 0.2468 0.52449 0.0
C668 C 0.42405 0.21723 0.55231 0.0
C669 C 0.40553 0.19641 0.47441 0.0
C670 C 0.40807 0.16555 0.47078 0.0
C671 C 0.37013 0.18826 0.47623 0.0
C672 C 0.42384 0.21925 0.39948 0.0
C673 C 0.44871 0.24811 0.43092 0.0
C674 C 0.46854 0.27372 0.3766 0.0
C675 C 0.46306 0.26984 0.28706 0.0
C676 C 0.43803 0.24046 0.25207 0.0
C677 C 0.41817 0.21471 0.30917 0.0
loop_
_geom_bond_atom_site_label_1
_geom_bond_atom_site_label_2
_geom_bond_distance
_geom_bond_site_symmetry_2
_ccdc_geom_bond_type
Zn0 O1 2.055 . S
Zn0 O8 2.046 . S
Zn0 N16 2.036 1_554 S
Zn0 O28 2.053 1_554 S
Zn0 O30 2.066 . S
O1 Zn0 2.055 . S
O1 C4 1.259 . S
C2 O30 1.256 . S
C2 O31 1.244 . S
Zn3 O5 2.046 . S
Zn3 O7 2.055 . S
Zn3 N9 2.036 . S
Zn3 O27 2.066 1_554 S
Zn3 O31 2.053 . S
C4 O1 1.259 . S
C4 O5 1.254 . S
O5 Zn3 2.046 . S
O5 C4 1.254 . S
C6 O27 1.256 . S
C6 O28 1.244 . S
O7 Zn3 2.055 . S
O7 C29 1.259 . S
O8 Zn0 2.046 . S
O8 C29 1.255 . S
N9 Zn3 2.036 . S
N9 C10 1.298 1_554 S
N9 N12 1.398 . S
C10 N9 1.298 1_556 S
C10 N13 1.367 . S
C10 C23 1.481 . S
C11 N12 1.299 . S
C11 N13 1.379 1_554 S
N12 N9 1.398 . S
N12 C11 1.299 . S
N13 C10 1.367 . S
N13 C11 1.379 1_556 S
C14 N16 1.298 1_554 S
C14 N18 1.367 1_554 S
C14 C22 1.481 . S
C15 N17 1.299 . S
C15 N18 1.379 . S
N16 Zn0 2.036 1_556 S
N16 C14 1.298 1_556 S
N16 N17 1.398 . S
N17 C15 1.299 . S
N17 N16 1.398 . S
N18 C14 1.367 1_556 S
N18 C15 1.379 . S
H19 C22 0.980 . S
H20 C22 0.981 . S
H21 C22 0.981 . S
C22 C14 1.481 . S
C22 H19 0.980 . S
C22 H20 0.981 . S
C22 H21 0.981 . S
C23 C10 1.481 . S
C23 H24 0.980 . S
C23 H25 0.981 . S
C23 H26 0.981 . S
H24 C23 0.980 . S
H25 C23 0.981 . S
H26 C23 0.981 . S
O27 Zn3 2.066 1_556 S
O27 C6 1.256 . S
O28 Zn0 2.053 1_556 S
O28 C6 1.244 . S
C29 O7 1.259 . S
C29 O8 1.255 . S
O30 Zn0 2.066 . S
O30 C2 1.256 . S
O31 C2 1.244 . S
O31 Zn3 2.053 . S
Zn32 O33 2.055 . S
Zn32 O40 2.046 . S
Zn32 N48 2.036 1_554 S
Zn32 O60 2.053 1_554 S
Zn32 O62 2.066 . S
O33 Zn32 2.055 . S
O33 C36 1.259 . S
C34 O62 1.256 . S
C34 O63 1.244 . S
Zn35 O37 2.046 . S
Zn35 O39 2.055 . S
Zn35 N41 2.036 . S
Zn35 O59 2.066 1_554 S
Zn35 O63 2.053 . S
C36 O33 1.259 . S
C36 O37 1.254 . S
O37 Zn35 2.046 . S
O37 C36 1.254 . S
C38 O59 1.256 . S
C38 O60 1.244 . S
O39 Zn35 2.055 . S
O39 C61 1.259 . S
O40 Zn32 2.046 . S
O40 C61 1.255 . S
N41 Zn35 2.036 . S
N41 C42 1.298 1_554 S
N41 N44 1.398 . S
C42 N41 1.298 1_556 S
C42 N45 1.367 . S
C42 C55 1.481 . S
C43 N44 1.299 . S
C43 N45 1.379 1_554 S
N44 N41 1.398 . S
N44 C43 1.299 . S
N45 C42 1.367 . S
N45 C43 1.379 1_556 S
C46 N48 1.298 1_554 S
C46 N50 1.367 1_554 S
C46 C54 1.481 . S
C47 N49 1.299 . S
C47 N50 1.379 . S
N48 Zn32 2.036 1_556 S
N48 C46 1.298 1_556 S
N48 N49 1.398 . S
N49 C47 1.299 . S
N49 N48 1.398 . S
N50 C46 1.367 1_556 S
N50 C47 1.379 . S
H51 C54 0.980 . S
H52 C54 0.981 . S
H53 C54 0.981 . S
C54 C46 1.481 . S
C54 H51 0.980 . S
C54 H52 0.981 . S
C54 H53 0.981 . S
C55 C42 1.481 . S
C55 H56 0.980 . S
C55 H57 0.981 . S
C55 H58 0.981 . S
H56 C55 0.980 . S
H57 C55 0.981 . S
H58 C55 0.981 . S
O59 Zn35 2.066 1_556 S
O59 C38 1.256 . S
O60 Zn32 2.053 1_556 S
O60 C38 1.244 . S
C61 O39 1.259 . S
C61 O40 1.255 . S
O62 Zn32 2.066 . S
O62 C34 1.256 . S
O63 C34 1.244 . S
O63 Zn35 2.053 . S
Zn64 O65 2.055 . S
Zn64 O72 2.046 . S
Zn64 N80 2.036 1_554 S
Zn64 O92 2.053 1_554 S
Zn64 O94 2.066 . S
O65 Zn64 2.055 . S
O65 C68 1.259 . S
C66 O94 1.256 . S
C66 O95 1.244 . S
Zn67 O69 2.046 . S
Zn67 O71 2.055 . S
Zn67 N73 2.036 . S
Zn67 O91 2.066 1_554 S
Zn67 O95 2.053 . S
C68 O65 1.259 . S
C68 O69 1.254 . S
O69 Zn67 2.046 . S
O69 C68 1.254 . S
C70 O91 1.256 . S
C70 O92 1.244 . S
O71 Zn67 2.055 . S
O71 C93 1.259 . S
O72 Zn64 2.046 . S
O72 C93 1.255 . S
N73 Zn67 2.036 . S
N73 C74 1.298 1_554 S
N73 N76 1.398 . S
C74 N73 1.298 1_556 S
C74 N77 1.367 . S
C74 C87 1.481 . S
C75 N76 1.299 . S
C75 N77 1.379 1_554 S
N76 N73 1.398 . S
N76 C75 1.299 . S
N77 C74 1.367 . S
N77 C75 1.379 1_556 S
C78 N80 1.298 1_554 S
C78 N82 1.367 1_554 S
C78 C86 1.481 . S
C79 N81 1.299 . S
C79 N82 1.379 . S
N80 Zn64 2.036 1_556 S
N80 C78 1.298 1_556 S
N80 N81 1.398 . S
N81 C79 1.299 . S
N81 N80 1.398 . S
N82 C78 1.367 1_556 S
N82 C79 1.379 . S
H83 C86 0.980 . S
H84 C86 0.981 . S
H85 C86 0.981 . S
C86 C78 1.481 . S
C86 H83 0.980 . S
C86 H84 0.981 . S
C86 H85 0.981 . S
C87 C74 1.481 . S
C87 H88 0.980 . S
C87 H89 0.981 . S
C87 H90 0.981 . S
H88 C87 0.980 . S
H89 C87 0.981 . S
H90 C87 0.981 . S
O91 Zn67 2.066 1_556 S
O91 C70 1.256 . S
O92 Zn64 2.053 1_556 S
O92 C70 1.244 . S
C93 O71 1.259 . S
C93 O72 1.255 . S
O94 Zn64 2.066 . S
O94 C66 1.256 . S
O95 C66 1.244 . S
O95 Zn67 2.053 . S
Zn96 O97 2.055 . S
Zn96 O104 2.046 . S
Zn96 N112 2.036 1_554 S
Zn96 O124 2.053 1_554 S
Zn96 O126 2.066 . S
O97 Zn96 2.055 . S
O97 C100 1.259 . S
C98 O126 1.256 . S
C98 O127 1.244 . S
Zn99 O101 2.046 . S
Zn99 O103 2.055 . S
Zn99 N105 2.036 . S
Zn99 O123 2.066 1_554 S
Zn99 O127 2.053 . S
C100 O97 1.259 . S
C100 O101 1.254 . S
O101 Zn99 2.046 . S
O101 C100 1.254 . S
C102 O123 1.256 . S
C102 O124 1.244 . S
O103 Zn99 2.055 . S
O103 C125 1.259 . S
O104 Zn96 2.046 . S
O104 C125 1.255 . S
N105 Zn99 2.036 . S
N105 C106 1.298 1_554 S
N105 N108 1.398 . S
C106 N105 1.298 1_556 S
C106 N109 1.367 . S
C106 C119 1.481 . S
C107 N108 1.299 . S
C107 N109 1.379 1_554 S
N108 N105 1.398 . S
N108 C107 1.299 . S
N109 C106 1.367 . S
N109 C107 1.379 1_556 S
C110 N112 1.298 1_554 S
C110 N114 1.367 1_554 S
C110 C118 1.481 . S
C111 N113 1.299 . S
C111 N114 1.379 . S
N112 Zn96 2.036 1_556 S
N112 C110 1.298 1_556 S
N112 N113 1.398 . S
N113 C111 1.299 . S
N113 N112 1.398 . S
N114 C110 1.367 1_556 S
N114 C111 1.379 . S
H115 C118 0.980 . S
H116 C118 0.981 . S
H117 C118 0.981 . S
C118 C110 1.481 . S
C118 H115 0.980 . S
C118 H116 0.981 . S
C118 H117 0.981 . S
C119 C106 1.481 . S
C119 H120 0.980 . S
C119 H121 0.981 . S
C119 H122 0.981 . S
H120 C119 0.980 . S
H121 C119 0.981 . S
H122 C119 0.981 . S
O123 Zn99 2.066 1_556 S
O123 C102 1.256 . S
O124 Zn96 2.053 1_556 S
O124 C102 1.244 . S
C125 O103 1.259 . S
C125 O104 1.255 . S
O126 Zn96 2.066 . S
O126 C98 1.256 . S
O127 C98 1.244 . S
O127 Zn99 2.053 . S
Zn128 O129 2.055 . S
Zn128 O136 2.046 . S
Zn128 N144 2.036 1_554 S
Zn128 O156 2.053 1_554 S
Zn128 O158 2.066 . S
O129 Zn128 2.055 . S
O129 C132 1.259 . S
C130 O158 1.256 . S
C130 O159 1.244 . S
Zn131 O133 2.046 . S
Zn131 O135 2.055 . S
Zn131 N137 2.036 . S
Zn131 O155 2.066 1_554 S
Zn131 O159 2.053 . S
C132 O129 1.259 . S
C132 O133 1.254 . S
O133 Zn131 2.046 . S
O133 C132 1.254 . S
C134 O155 1.256 . S
C134 O156 1.244 . S
O135 Zn131 2.055 . S
O135 C157 1.259 . S
O136 Zn128 2.046 . S
O136 C157 1.255 . S
N137 Zn131 2.036 . S
N137 C138 1.298 1_554 S
N137 N140 1.398 . S
C138 N137 1.298 1_556 S
C138 N141 1.367 . S
C138 C151 1.481 . S
C139 N140 1.299 . S
C139 N141 1.379 1_554 S
N140 N137 1.398 . S
N140 C139 1.299 . S
N141 C138 1.367 . S
N141 C139 1.379 1_556 S
C142 N144 1.298 1_554 S
C142 N146 1.367 1_554 S
C142 C150 1.481 . S
C143 N145 1.299 . S
C143 N146 1.379 . S
N144 Zn128 2.036 1_556 S
N144 C142 1.298 1_556 S
N144 N145 1.398 . S
N145 C143 1.299 . S
N145 N144 1.398 . S
N146 C142 1.367 1_556 S
N146 C143 1.379 . S
H147 C150 0.980 . S
H148 C150 0.981 . S
H149 C150 0.981 . S
C150 C142 1.481 . S
C150 H147 0.980 . S
C150 H148 0.981 . S
C150 H149 0.981 . S
C151 C138 1.481 . S
C151 H152 0.980 . S
C151 H153 0.981 . S
C151 H154 0.981 . S
H152 C151 0.980 . S
H153 C151 0.981 . S
H154 C151 0.981 . S
O155 Zn131 2.066 1_556 S
O155 C134 1.256 . S
O156 Zn128 2.053 1_556 S
O156 C134 1.244 . S
C157 O135 1.259 . S
C157 O136 1.255 . S
O158 Zn128 2.066 . S
O158 C130 1.256 . S
O159 C130 1.244 . S
O159 Zn131 2.053 . S
Zn160 O161 2.055 . S
Zn160 O168 2.046 . S
Zn160 N176 2.036 1_554 S
Zn160 O188 2.053 1_554 S
Zn160 O190 2.066 . S
O161 Zn160 2.055 . S
O161 C164 1.259 . S
C162 O190 1.256 . S
C162 O191 1.244 . S
Zn163 O165 2.046 . S
Zn163 O167 2.055 . S
Zn163 N169 2.036 . S
Zn163 O187 2.066 1_554 S
Zn163 O191 2.053 . S
C164 O161 1.259 . S
C164 O165 1.254 . S
O165 Zn163 2.046 . S
O165 C164 1.254 . S
C166 O187 1.256 . S
C166 O188 1.244 . S
O167 Zn163 2.055 . S
O167 C189 1.259 . S
O168 Zn160 2.046 . S
O168 C189 1.255 . S
N169 Zn163 2.036 . S
N169 C170 1.298 1_554 S
N169 N172 1.398 . S
C170 N169 1.298 1_556 S
C170 N173 1.367 . S
C170 C183 1.481 . S
C171 N172 1.299 . S
C171 N173 1.379 1_554 S
N172 N169 1.398 . S
N172 C171 1.299 . S
N173 C170 1.367 . S
N173 C171 1.379 1_556 S
C174 N176 1.298 1_554 S
C174 N178 1.367 1_554 S
C174 C182 1.481 . S
C175 N177 1.299 . S
C175 N178 1.379 . S
N176 Zn160 2.036 1_556 S
N176 C174 1.298 1_556 S
N176 N177 1.398 . S
N177 C175 1.299 . S
N177 N176 1.398 . S
N178 C174 1.367 1_556 S
N178 C175 1.379 . S
H179 C182 0.980 . S
H180 C182 0.981 . S
H181 C182 0.981 . S
C182 C174 1.481 . S
C182 H179 0.980 . S
C182 H180 0.981 . S
C182 H181 0.981 . S
C183 C170 1.481 . S
C183 H184 0.980 . S
C183 H185 0.981 . S
C183 H186 0.981 . S
H184 C183 0.980 . S
H185 C183 0.981 . S
H186 C183 0.981 . S
O187 Zn163 2.066 1_556 S
O187 C166 1.256 . S
O188 Zn160 2.053 1_556 S
O188 C166 1.244 . S
C189 O167 1.259 . S
C189 O168 1.255 . S
O190 Zn160 2.066 . S
O190 C162 1.256 . S
O191 C162 1.244 . S
O191 Zn163 2.053 . S
H192 C204 0.930 . S
H193 C206 0.930 . S
H194 C207 0.930 . S
H195 C211 0.959 . S
H196 C211 0.959 . S
H197 C211 0.961 . S
H198 C212 0.960 . S
H199 C212 0.961 . S
H200 C212 0.959 . S
H201 C215 0.929 . S
H202 C216 0.931 . S
H203 C218 0.930 . S
C204 H192 0.930 . S
C204 C205 1.399 1_554 S
C204 C209 1.399 . S
C205 C204 1.399 1_556 S
C205 C206 1.376 . S
C206 H193 0.930 . S
C206 C205 1.376 . S
C206 C207 1.388 . S
C207 H194 0.930 . S
C207 C206 1.388 . S
C207 C208 1.390 . S
C208 C207 1.390 . S
C208 C209 1.394 1_556 S
C208 C214 1.465 . S
C209 C204 1.399 . S
C209 C208 1.394 1_554 S
C209 C210 1.516 . S
C210 C209 1.516 . S
C210 C211 1.502 . S
C210 C212 1.561 . S
C210 C213 1.526 . S
C211 H195 0.959 . S
C211 H196 0.959 . S
C211 H197 0.961 . S
C211 C210 1.502 . S
C212 H198 0.960 . S
C212 H199 0.961 . S
C212 H200 0.959 . S
C212 C210 1.561 . S
C213 C210 1.526 . S
C213 C214 1.396 1_554 S
C213 C218 1.390 . S
C214 C208 1.465 . S
C214 C213 1.396 1_556 S
C214 C215 1.399 . S
C215 H201 0.929 . S
C215 C214 1.399 . S
C215 C216 1.385 . S
C216 H202 0.931 . S
C216 C215 1.385 . S
C216 C217 1.389 . S
C217 C216 1.389 . S
C217 C218 1.387 1_556 S
C218 H203 0.930 . S
C218 C213 1.390 . S
C218 C217 1.387 1_554 S
H219 C231 0.930 . S
H220 C233 0.930 . S
H221 C234 0.930 . S
H222 C238 0.959 . S
H223 C238 0.959 . S
H224 C238 0.961 . S
H225 C239 0.960 . S
H226 C239 0.961 . S
H227 C239 0.959 . S
H228 C242 0.929 . S
H229 C243 0.931 . S
H230 C245 0.930 . S
C231 H219 0.930 . S
C231 C232 1.399 . S
C231 C236 1.399 . S
C232 C231 1.399 . S
C232 C233 1.376 1_556 S
C233 H220 0.930 . S
C233 C232 1.376 1_554 S
C233 C234 1.388 . S
C234 H221 0.930 . S
C234 C233 1.388 . S
C234 C235 1.390 . S
C235 C234 1.390 . S
C235 C236 1.394 1_554 S
C235 C241 1.465 . S
C236 C231 1.399 . S
C236 C235 1.394 1_556 S
C236 C237 1.516 . S
C237 C236 1.516 . S
C237 C238 1.502 . S
C237 C239 1.561 . S
C237 C240 1.526 . S
C238 H222 0.959 . S
C238 H223 0.959 . S
C238 H224 0.961 . S
C238 C237 1.502 . S
C239 H225 0.960 . S
C239 H226 0.961 . S
C239 H227 0.959 . S
C239 C237 1.561 . S
C240 C237 1.526 . S
C240 C241 1.396 1_556 S
C240 C245 1.390 1_455 S
C241 C235 1.465 . S
C241 C240 1.396 1_554 S
C241 C242 1.399 1_455 S
C242 H228 0.929 . S
C242 C241 1.399 1_655 S
C242 C243 1.385 . S
C243 H229 0.931 . S
C243 C242 1.385 . S
C243 C244 1.389 1_554 S
C244 C243 1.389 1_556 S
C244 C245 1.387 . S
C245 H230 0.930 . S
C245 C240 1.390 1_655 S
C245 C244 1.387 . S
H246 C258 0.930 . S
H247 C260 0.930 . S
H248 C261 0.930 . S
H249 C265 0.959 . S
H250 C265 0.959 . S
H251 C265 0.961 . S
H252 C266 0.960 . S
H253 C266 0.961 . S
H254 C266 0.959 . S
H255 C269 0.929 . S
H256 C270 0.931 . S
H257 C272 0.930 . S
C258 H246 0.930 . S
C258 C259 1.399 . S
C258 C263 1.399 . S
C259 C258 1.399 . S
C259 C260 1.376 1_556 S
C260 H247 0.930 . S
C260 C259 1.376 1_554 S
C260 C261 1.388 . S
C261 H248 0.930 . S
C261 C260 1.388 . S
C261 C262 1.390 . S
C262 C261 1.390 . S
C262 C263 1.394 1_554 S
C262 C268 1.465 . S
C263 C258 1.399 . S
C263 C262 1.394 1_556 S
C263 C264 1.516 . S
C264 C263 1.516 . S
C264 C265 1.502 . S
C264 C266 1.561 . S
C264 C267 1.526 . S
C265 H249 0.959 . S
C265 H250 0.959 . S
C265 H251 0.961 . S
C265 C264 1.502 . S
C266 H252 0.960 . S
C266 H253 0.961 . S
C266 H254 0.959 . S
C266 C264 1.561 . S
C267 C264 1.526 . S
C267 C268 1.396 1_556 S
C267 C272 1.390 1_545 S
C268 C262 1.465 . S
C268 C267 1.396 1_554 S
C268 C269 1.399 1_545 S
C269 H255 0.929 . S
C269 C268 1.399 1_565 S
C269 C270 1.385 . S
C270 H256 0.931 . S
C270 C269 1.385 . S
C270 C271 1.389 1_554 S
C271 C270 1.389 1_556 S
C271 C272 1.387 . S
C272 H257 0.930 . S
C272 C267 1.390 1_565 S
C272 C271 1.387 . S
H273 C285 0.930 . S
H274 C287 0.931 1_554 S
H275 C288 0.930 . S
H276 C292 0.959 1_554 S
H277 C292 0.959 . S
H278 C292 0.961 . S
H279 C293 0.960 . S
H280 C293 0.961 . S
H281 C293 0.959 . S
H282 C296 0.929 . S
H283 C297 0.931 . S
H284 C299 0.930 . S
C285 H273 0.930 . S
C285 C286 1.399 . S
C285 C290 1.399 . S
C286 C285 1.399 . S
C286 C287 1.376 . S
C287 H274 0.931 1_556 S
C287 C286 1.376 . S
C287 C288 1.388 1_556 S
C288 H275 0.930 . S
C288 C287 1.388 1_554 S
C288 C289 1.390 1_554 S
C289 C288 1.390 1_556 S
C289 C290 1.394 . S
C289 C295 1.465 . S
C290 C285 1.399 . S
C290 C289 1.394 . S
C290 C291 1.516 . S
C291 C290 1.516 . S
C291 C292 1.502 . S
C291 C293 1.561 . S
C291 C294 1.526 . S
C292 H276 0.959 1_556 S
C292 H277 0.959 . S
C292 H278 0.961 . S
C292 C291 1.502 . S
C293 H279 0.960 . S
C293 H280 0.961 . S
C293 H281 0.959 . S
C293 C291 1.561 . S
C294 C291 1.526 . S
C294 C295 1.396 . S
C294 C299 1.390 . S
C295 C289 1.465 . S
C295 C294 1.396 . S
C295 C296 1.399 1_556 S
C296 H282 0.929 . S
C296 C295 1.399 1_554 S
C296 C297 1.385 . S
C297 H283 0.931 . S
C297 C296 1.385 . S
C297 C298 1.389 1_554 S
C298 C297 1.389 1_556 S
C298 C299 1.387 . S
C299 H284 0.930 . S
C299 C294 1.390 . S
C299 C298 1.387 . S
H300 C312 0.928 1_554 S
H301 C314 0.930 . S
H302 C315 0.930 1_655 S
H303 C319 0.959 . S
H304 C319 0.959 . S
H305 C319 0.961 . S
H306 C320 0.960 . S
H307 C320 0.961 . S
H308 C320 0.959 . S
H309 C323 0.929 . S
H310 C324 0.931 . S
H311 C326 0.930 . S
C312 H300 0.928 1_556 S
C312 C313 1.399 . S
C312 C317 1.399 1_455 S
C313 C312 1.399 . S
C313 C314 1.376 . S
C314 H301 0.930 . S
C314 C313 1.376 . S
C314 C315 1.388 . S
C315 H302 0.930 1_455 S
C315 C314 1.388 . S
C315 C316 1.390 1_455 S
C316 C315 1.390 1_655 S
C316 C317 1.394 . S
C316 C322 1.465 . S
C317 C312 1.399 1_655 S
C317 C316 1.394 . S
C317 C318 1.516 1_556 S
C318 C317 1.516 1_554 S
C318 C319 1.502 1_554 S
C318 C320 1.561 . S
C318 C321 1.526 1_554 S
C319 H303 0.959 . S
C319 H304 0.959 . S
C319 H305 0.961 . S
C319 C318 1.502 1_556 S
C320 H306 0.960 . S
C320 H307 0.961 . S
C320 H308 0.959 . S
C320 C318 1.561 . S
C321 C318 1.526 1_556 S
C321 C322 1.396 . S
C321 C326 1.390 1_556 S
C322 C316 1.465 . S
C322 C321 1.396 . S
C322 C323 1.399 . S
C323 H309 0.929 . S
C323 C322 1.399 . S
C323 C324 1.385 . S
C324 H310 0.931 . S
C324 C323 1.385 . S
C324 C325 1.389 . S
C325 C324 1.389 . S
C325 C326 1.387 1_556 S
C326 H311 0.930 . S
C326 C321 1.390 1_554 S
C326 C325 1.387 1_554 S
H327 C339 0.930 . S
H328 C341 0.930 . S
H329 C342 0.930 . S
H330 C346 0.959 . S
H331 C346 0.959 . S
H332 C346 0.961 . S
H333 C347 0.960 . S
H334 C347 0.961 . S
H335 C347 0.959 . S
H336 C350 0.929 1_565 S
H337 C351 0.931 . S
H338 C353 0.930 . S
C339 H327 0.930 . S
C339 C340 1.399 1_554 S
C339 C344 1.399 . S
C340 C339 1.399 1_556 S
C340 C341 1.376 . S
C341 H328 0.930 . S
C341 C340 1.376 . S
C341 C342 1.388 . S
C342 H329 0.930 . S
C342 C341 1.388 . S
C342 C343 1.390 . S
C343 C342 1.390 . S
C343 C344 1.394 1_556 S
C343 C349 1.465 . S
C344 C339 1.399 . S
C344 C343 1.394 1_554 S
C344 C345 1.516 . S
C345 C344 1.516 . S
C345 C346 1.502 . S
C345 C347 1.561 . S
C345 C348 1.526 . S
C346 H330 0.959 . S
C346 H331 0.959 . S
C346 H332 0.961 . S
C346 C345 1.502 . S
C347 H333 0.960 . S
C347 H334 0.961 . S
C347 H335 0.959 . S
C347 C345 1.561 . S
C348 C345 1.526 . S
C348 C349 1.396 1_554 S
C348 C353 1.390 1_565 S
C349 C343 1.465 . S
C349 C348 1.396 1_556 S
C349 C350 1.399 1_565 S
C350 H336 0.929 1_545 S
C350 C349 1.399 1_545 S
C350 C351 1.385 . S
C351 H337 0.931 . S
C351 C350 1.385 . S
C351 C352 1.389 . S
C352 C351 1.389 . S
C352 C353 1.387 1_556 S
C353 H338 0.930 . S
C353 C348 1.390 1_545 S
C353 C352 1.387 1_554 S
H354 C366 0.930 . S
H355 C368 0.930 . S
H356 C369 0.930 . S
H357 C373 0.959 . S
H358 C373 0.959 . S
H359 C373 0.961 . S
H360 C374 0.960 . S
H361 C374 0.961 . S
H362 C374 0.959 . S
H363 C377 0.929 . S
H364 C378 0.931 . S
H365 C380 0.930 . S
C366 H354 0.930 . S
C366 C367 1.399 1_556 S
C366 C371 1.399 . S
C367 C366 1.399 1_554 S
C367 C368 1.376 . S
C368 H355 0.930 . S
C368 C367 1.376 . S
C368 C369 1.388 . S
C369 H356 0.930 . S
C369 C368 1.388 . S
C369 C370 1.390 . S
C370 C369 1.390 . S
C370 C371 1.394 1_554 S
C370 C376 1.465 . S
C371 C366 1.399 . S
C371 C370 1.394 1_556 S
C371 C372 1.516 . S
C372 C371 1.516 . S
C372 C373 1.502 . S
C372 C374 1.561 . S
C372 C375 1.526 . S
C373 H357 0.959 . S
C373 H358 0.959 . S
C373 H359 0.961 . S
C373 C372 1.502 . S
C374 H360 0.960 . S
C374 H361 0.961 . S
C374 H362 0.959 . S
C374 C372 1.561 . S
C375 C372 1.526 . S
C375 C376 1.396 1_556 S
C375 C380 1.390 . S
C376 C370 1.465 . S
C376 C375 1.396 1_554 S
C376 C377 1.399 . S
C377 H363 0.929 . S
C377 C376 1.399 . S
C377 C378 1.385 . S
C378 H364 0.931 . S
C378 C377 1.385 . S
C378 C379 1.389 . S
C379 C378 1.389 . S
C379 C380 1.387 1_554 S
C380 H365 0.930 . S
C380 C375 1.390 . S
C380 C379 1.387 1_556 S
H381 C393 0.930 . S
H382 C395 0.930 . S
H383 C396 0.930 . S
H384 C400 0.959 . S
H385 C400 0.959 . S
H386 C400 0.961 . S
H387 C401 0.960 . S
H388 C401 0.961 . S
H389 C401 0.959 . S
H390 C404 0.929 . S
H391 C405 0.931 . S
H392 C407 0.930 . S
C393 H381 0.930 . S
C393 C394 1.399 1_556 S
C393 C398 1.399 . S
C394 C393 1.399 1_554 S
C394 C395 1.376 . S
C395 H382 0.930 . S
C395 C394 1.376 . S
C395 C396 1.388 . S
C396 H383 0.930 . S
C396 C395 1.388 . S
C396 C397 1.390 . S
C397 C396 1.390 . S
C397 C398 1.394 1_554 S
C397 C403 1.465 . S
C398 C393 1.399 . S
C398 C397 1.394 1_556 S
C398 C399 1.516 . S
C399 C398 1.516 . S
C399 C400 1.502 . S
C399 C401 1.561 . S
C399 C402 1.526 . S
C400 H384 0.959 . S
C400 H385 0.959 . S
C400 H386 0.961 . S
C400 C399 1.502 . S
C401 H387 0.960 . S
C401 H388 0.961 . S
C401 H389 0.959 . S
C401 C399 1.561 . S
C402 C399 1.526 . S
C402 C403 1.396 1_556 S
C402 C407 1.390 . S
C403 C397 1.465 . S
C403 C402 1.396 1_554 S
C403 C404 1.399 . S
C404 H390 0.929 . S
C404 C403 1.399 . S
C404 C405 1.385 . S
C405 H391 0.931 . S
C405 C404 1.385 . S
C405 C406 1.389 . S
C406 C405 1.389 . S
C406 C407 1.387 1_554 S
C407 H392 0.930 . S
C407 C402 1.390 . S
C407 C406 1.387 1_556 S
H408 C420 0.930 . S
H409 C422 0.930 . S
H410 C423 0.930 . S
H411 C427 0.959 . S
H412 C427 0.959 . S
H413 C427 0.961 . S
H414 C428 0.960 . S
H415 C428 0.961 . S
H416 C428 0.959 . S
H417 C431 0.929 . S
H418 C432 0.931 . S
H419 C434 0.930 . S
C420 H408 0.930 . S
C420 C421 1.408 . S
C420 C425 1.399 . S
C421 C420 1.408 . S
C421 C422 1.366 1_554 S
C422 H409 0.930 . S
C422 C421 1.366 1_556 S
C422 C423 1.388 . S
C423 H410 0.930 . S
C423 C422 1.388 . S
C423 C424 1.390 . S
C424 C423 1.390 . S
C424 C425 1.394 1_556 S
C424 C430 1.465 . S
C425 C420 1.399 . S
C425 C424 1.394 1_554 S
C425 C426 1.516 . S
C426 C425 1.516 . S
C426 C427 1.502 . S
C426 C428 1.561 . S
C426 C429 1.526 . S
C427 H411 0.959 . S
C427 H412 0.959 . S
C427 H413 0.961 . S
C427 C426 1.502 . S
C428 H414 0.960 . S
C428 H415 0.961 . S
C428 H416 0.959 . S
C428 C426 1.561 . S
C429 C426 1.526 . S
C429 C430 1.396 1_554 S
C429 C434 1.390 . S
C430 C424 1.465 . S
C430 C429 1.396 1_556 S
C430 C431 1.399 . S
C431 H417 0.929 . S
C431 C430 1.399 . S
C431 C432 1.385 . S
C432 H418 0.931 . S
C432 C431 1.385 . S
C432 C433 1.389 1_556 S
C433 C432 1.389 1_554 S
C433 C434 1.387 . S
C434 H419 0.930 . S
C434 C429 1.390 . S
C434 C433 1.387 . S
H435 C447 0.930 . S
H436 C449 0.930 . S
H437 C450 0.930 . S
H438 C454 0.959 . S
H439 C454 0.959 . S
H440 C454 0.961 . S
H441 C455 0.960 . S
H442 C455 0.961 . S
H443 C455 0.959 . S
H444 C458 0.929 . S
H445 C459 0.931 . S
H446 C461 0.930 . S
C447 H435 0.930 . S
C447 C448 1.399 1_556 S
C447 C452 1.399 . S
C448 C447 1.399 1_554 S
C448 C449 1.376 . S
C449 H436 0.930 . S
C449 C448 1.376 . S
C449 C450 1.388 . S
C450 H437 0.930 . S
C450 C449 1.388 . S
C450 C451 1.390 . S
C451 C450 1.390 . S
C451 C452 1.394 1_554 S
C451 C457 1.465 . S
C452 C447 1.399 . S
C452 C451 1.394 1_556 S
C452 C453 1.516 . S
C453 C452 1.516 . S
C453 C454 1.502 . S
C453 C455 1.561 . S
C453 C456 1.526 . S
C454 H438 0.959 . S
C454 H439 0.959 . S
C454 H440 0.961 . S
C454 C453 1.502 . S
C455 H441 0.960 . S
C455 H442 0.961 . S
C455 H443 0.959 . S
C455 C453 1.561 . S
C456 C453 1.526 . S
C456 C457 1.396 1_556 S
C456 C461 1.390 . S
C457 C451 1.465 . S
C457 C456 1.396 1_554 S
C457 C458 1.399 . S
C458 H444 0.929 . S
C458 C457 1.399 . S
C458 C459 1.385 . S
C459 H445 0.931 . S
C459 C458 1.385 . S
C459 C460 1.389 . S
C460 C459 1.389 . S
C460 C461 1.387 1_554 S
C461 H446 0.930 . S
C461 C456 1.390 . S
C461 C460 1.387 1_556 S
H462 C474 0.930 . S
H463 C476 0.930 . S
H464 C477 0.930 . S
H465 C481 0.959 1_556 S
H466 C481 0.959 . S
H467 C481 0.961 . S
H468 C482 0.960 . S
H469 C482 0.961 . S
H470 C482 0.959 . S
H471 C485 0.929 . S
H472 C486 0.931 . S
H473 C488 0.930 . S
C474 H462 0.930 . S
C474 C475 1.399 . S
C474 C479 1.399 . S
C475 C474 1.399 . S
C475 C476 1.376 1_554 S
C476 H463 0.930 . S
C476 C475 1.376 1_556 S
C476 C477 1.388 . S
C477 H464 0.930 . S
C477 C476 1.388 . S
C477 C478 1.390 1_556 S
C478 C477 1.390 1_554 S
C478 C479 1.394 . S
C478 C484 1.465 . S
C479 C474 1.399 . S
C479 C478 1.394 . S
C479 C480 1.516 . S
C480 C479 1.516 . S
C480 C481 1.502 . S
C480 C482 1.561 . S
C480 C483 1.526 . S
C481 H465 0.959 1_554 S
C481 H466 0.959 . S
C481 H467 0.961 . S
C481 C480 1.502 . S
C482 H468 0.960 . S
C482 H469 0.961 . S
C482 H470 0.959 . S
C482 C480 1.561 . S
C483 C480 1.526 . S
C483 C484 1.396 . S
C483 C488 1.390 . S
C484 C478 1.465 . S
C484 C483 1.396 . S
C484 C485 1.399 1_554 S
C485 H471 0.929 . S
C485 C484 1.399 1_556 S
C485 C486 1.385 . S
C486 H472 0.931 . S
C486 C485 1.385 . S
C486 C487 1.389 1_556 S
C487 C486 1.389 1_554 S
C487 C488 1.387 . S
C488 H473 0.930 . S
C488 C483 1.390 . S
C488 C487 1.387 . S
H489 C501 0.930 . S
H490 C503 0.930 . S
H491 C504 0.930 . S
H492 C508 0.959 . S
H493 C508 0.959 . S
H494 C508 0.961 . S
H495 C509 0.960 . S
H496 C509 0.961 . S
H497 C509 0.959 . S
H498 C512 0.929 . S
H499 C513 0.931 . S
H500 C515 0.930 . S
C501 H489 0.930 . S
C501 C502 1.399 . S
C501 C506 1.399 . S
C502 C501 1.399 . S
C502 C503 1.376 1_554 S
C503 H490 0.930 . S
C503 C502 1.376 1_556 S
C503 C504 1.388 . S
C504 H491 0.930 . S
C504 C503 1.388 . S
C504 C505 1.390 . S
C505 C504 1.390 . S
C505 C506 1.394 1_556 S
C505 C511 1.465 . S
C506 C501 1.399 . S
C506 C505 1.394 1_554 S
C506 C507 1.516 . S
C507 C506 1.516 . S
C507 C508 1.502 . S
C507 C509 1.561 . S
C507 C510 1.526 . S
C508 H492 0.959 . S
C508 H493 0.959 . S
C508 H494 0.961 . S
C508 C507 1.502 . S
C509 H495 0.960 . S
C509 H496 0.961 . S
C509 H497 0.959 . S
C509 C507 1.561 . S
C510 C507 1.526 . S
C510 C511 1.396 1_554 S
C510 C515 1.390 . S
C511 C505 1.465 . S
C511 C510 1.396 1_556 S
C511 C512 1.399 . S
C512 H498 0.929 . S
C512 C511 1.399 . S
C512 C513 1.385 . S
C513 H499 0.931 . S
C513 C512 1.385 . S
C513 C514 1.389 . S
C514 C513 1.389 . S
C514 C515 1.387 1_556 S
C515 H500 0.930 . S
C515 C510 1.390 . S
C515 C514 1.387 1_554 S
H516 C528 0.930 . S
H517 C530 0.930 . S
H518 C531 0.930 . S
H519 C535 0.959 . S
H520 C535 0.959 . S
H521 C535 0.961 . S
H522 C536 0.960 . S
H523 C536 0.961 . S
H524 C536 0.959 . S
H525 C539 0.929 . S
H526 C540 0.931 . S
H527 C542 0.930 . S
C528 H516 0.930 . S
C528 C529 1.399 . S
C528 C533 1.399 . S
C529 C528 1.399 . S
C529 C530 1.376 . S
C530 H517 0.930 . S
C530 C529 1.376 . S
C530 C531 1.388 . S
C531 H518 0.930 . S
C531 C530 1.388 . S
C531 C532 1.390 . S
C532 C531 1.390 . S
C532 C533 1.394 . S
C532 C538 1.465 . S
C533 C528 1.399 . S
C533 C532 1.394 . S
C533 C534 1.516 . S
C534 C533 1.516 . S
C534 C535 1.502 . S
C534 C536 1.561 . S
C534 C537 1.526 . S
C535 H519 0.959 . S
C535 H520 0.959 . S
C535 H521 0.961 . S
C535 C534 1.502 . S
C536 H522 0.960 . S
C536 H523 0.961 . S
C536 H524 0.959 . S
C536 C534 1.561 . S
C537 C534 1.526 . S
C537 C538 1.396 . S
C537 C542 1.390 . S
C538 C532 1.465 . S
C538 C537 1.396 . S
C538 C539 1.399 . S
C539 H525 0.929 . S
C539 C538 1.399 . S
C539 C540 1.385 . S
C540 H526 0.931 . S
C540 C539 1.385 . S
C540 C541 1.389 . S
C541 C540 1.389 . S
C541 C542 1.387 . S
C542 H527 0.930 . S
C542 C537 1.390 . S
C542 C541 1.387 . S
H543 C555 0.930 . S
H544 C557 0.930 . S
H545 C558 0.930 . S
H546 C562 0.959 . S
H547 C562 0.959 . S
H548 C562 0.961 . S
H549 C563 0.960 . S
H550 C563 0.961 . S
H551 C563 0.959 . S
H552 C566 0.929 . S
H553 C567 0.931 . S
H554 C569 0.930 . S
C555 H543 0.930 . S
C555 C556 1.399 . S
C555 C560 1.399 . S
C556 C555 1.399 . S
C556 C557 1.376 . S
C557 H544 0.930 . S
C557 C556 1.376 . S
C557 C558 1.388 . S
C558 H545 0.930 . S
C558 C557 1.388 . S
C558 C559 1.390 . S
C559 C558 1.390 . S
C559 C560 1.394 . S
C559 C565 1.465 . S
C560 C555 1.399 . S
C560 C559 1.394 . S
C560 C561 1.516 . S
C561 C560 1.516 . S
C561 C562 1.502 . S
C561 C563 1.561 . S
C561 C564 1.526 . S
C562 H546 0.959 . S
C562 H547 0.959 . S
C562 H548 0.961 . S
C562 C561 1.502 . S
C563 H549 0.960 . S
C563 H550 0.961 . S
C563 H551 0.959 . S
C563 C561 1.561 . S
C564 C561 1.526 . S
C564 C565 1.396 . S
C564 C569 1.390 . S
C565 C559 1.465 . S
C565 C564 1.396 . S
C565 C566 1.399 . S
C566 H552 0.929 . S
C566 C565 1.399 . S
C566 C567 1.385 . S
C567 H553 0.931 . S
C567 C566 1.385 . S
C567 C568 1.389 . S
C568 C567 1.389 . S
C568 C569 1.387 . S
C569 H554 0.930 . S
C569 C564 1.390 . S
C569 C568 1.387 . S
H570 C582 0.930 . S
H571 C584 0.930 . S
H572 C585 0.930 . S
H573 C589 0.959 . S
H574 C589 0.959 . S
H575 C589 0.961 . S
H576 C590 0.960 . S
H577 C590 0.961 . S
H578 C590 0.959 . S
H579 C593 0.929 . S
H580 C594 0.931 . S
H581 C596 0.930 . S
C582 H570 0.930 . S
C582 C583 1.399 . S
C582 C587 1.399 . S
C583 C582 1.399 . S
C583 C584 1.376 . S
C584 H571 0.930 . S
C584 C583 1.376 . S
C584 C585 1.388 . S
C585 H572 0.930 . S
C585 C584 1.388 . S
C585 C586 1.390 . S
C586 C585 1.390 . S
C586 C587 1.394 . S
C586 C592 1.465 . S
C587 C582 1.399 . S
C587 C586 1.394 . S
C587 C588 1.516 . S
C588 C587 1.516 . S
C588 C589 1.502 . S
C588 C590 1.561 . S
C588 C591 1.526 . S
C589 H573 0.959 . S
C589 H574 0.959 . S
C589 H575 0.961 . S
C589 C588 1.502 . S
C590 H576 0.960 . S
C590 H577 0.961 . S
C590 H578 0.959 . S
C590 C588 1.561 . S
C591 C588 1.526 . S
C591 C592 1.396 . S
C591 C596 1.390 . S
C592 C586 1.465 . S
C592 C591 1.396 . S
C592 C593 1.399 . S
C593 H579 0.929 . S
C593 C592 1.399 . S
C593 C594 1.385 . S
C594 H580 0.931 . S
C594 C593 1.385 . S
C594 C595 1.389 . S
C595 C594 1.389 . S
C595 C596 1.387 . S
C596 H581 0.930 . S
C596 C591 1.390 . S
C596 C595 1.387 . S
H597 C609 0.930 . S
H598 C611 0.930 . S
H599 C612 0.930 . S
H600 C616 0.959 . S
H601 C616 0.959 . S
H602 C616 0.961 . S
H603 C617 0.960 . S
H604 C617 0.961 . S
H605 C617 0.959 . S
H606 C620 0.929 . S
H607 C621 0.931 . S
H608 C623 0.930 . S
C609 H597 0.930 . S
C609 C610 1.399 . S
C609 C614 1.399 . S
C610 C609 1.399 . S
C610 C611 1.376 . S
C611 H598 0.930 . S
C611 C610 1.376 . S
C611 C612 1.388 . S
C612 H599 0.930 . S
C612 C611 1.388 . S
C612 C613 1.390 . S
C613 C612 1.390 . S
C613 C614 1.394 . S
C613 C619 1.465 . S
C614 C609 1.399 . S
C614 C613 1.394 . S
C614 C615 1.516 . S
C615 C614 1.516 . S
C615 C616 1.502 . S
C615 C617 1.561 . S
C615 C618 1.526 . S
C616 H600 0.959 . S
C616 H601 0.959 . S
C616 H602 0.961 . S
C616 C615 1.502 . S
C617 H603 0.960 . S
C617 H604 0.961 . S
C617 H605 0.959 . S
C617 C615 1.561 . S
C618 C615 1.526 . S
C618 C619 1.396 . S
C618 C623 1.390 . S
C619 C613 1.465 . S
C619 C618 1.396 . S
C619 C620 1.399 . S
C620 H606 0.929 . S
C620 C619 1.399 . S
C620 C621 1.385 . S
C621 H607 0.931 . S
C621 C620 1.385 . S
C621 C622 1.389 . S
C622 C621 1.389 . S
C622 C623 1.387 . S
C623 H608 0.930 . S
C623 C618 1.390 . S
C623 C622 1.387 . S
H624 C636 0.930 . S
H625 C638 0.930 . S
H626 C639 0.930 . S
H627 C643 0.959 . S
H628 C643 0.959 . S
H629 C643 0.961 . S
H630 C644 0.960 . S
H631 C644 0.961 . S
H632 C644 0.959 . S
H633 C647 0.929 . S
H634 C648 0.931 . S
H635 C650 0.930 . S
C636 H624 0.930 . S
C636 C637 1.399 . S
C636 C641 1.399 . S
C637 C636 1.399 . S
C637 C638 1.376 . S
C638 H625 0.930 . S
C638 C637 1.376 . S
C638 C639 1.388 . S
C639 H626 0.930 . S
C639 C638 1.388 . S
C639 C640 1.390 . S
C640 C639 1.390 . S
C640 C641 1.394 . S
C640 C646 1.465 . S
C641 C636 1.399 . S
C641 C640 1.394 . S
C641 C642 1.516 . S
C642 C641 1.516 . S
C642 C643 1.502 . S
C642 C644 1.561 . S
C642 C645 1.526 . S
C643 H627 0.959 . S
C643 H628 0.959 . S
C643 H629 0.961 . S
C643 C642 1.502 . S
C644 H630 0.960 . S
C644 H631 0.961 . S
C644 H632 0.959 . S
C644 C642 1.561 . S
C645 C642 1.526 . S
C645 C646 1.396 . S
C645 C650 1.390 . S
C646 C640 1.465 . S
C646 C645 1.396 . S
C646 C647 1.399 . S
C647 H633 0.929 . S
C647 C646 1.399 . S
C647 C648 1.385 . S
C648 H634 0.931 . S
C648 C647 1.385 . S
C648 C649 1.389 . S
C649 C648 1.389 . S
C649 C650 1.387 . S
C650 H635 0.930 . S
C650 C645 1.390 . S
C650 C649 1.387 . S
H651 C663 0.930 . S
H652 C665 0.930 . S
H653 C666 0.930 . S
H654 C670 0.959 . S
H655 C670 0.959 . S
H656 C670 0.961 . S
H657 C671 0.960 . S
H658 C671 0.961 . S
H659 C671 0.959 . S
H660 C674 0.929 . S
H661 C675 0.931 . S
H662 C677 0.930 . S
C663 H651 0.930 . S
C663 C664 1.399 . S
C663 C668 1.399 . S
C664 C663 1.399 . S
C664 C665 1.376 . S
C665 H652 0.930 . S
C665 C664 1.376 . S
C665 C666 1.388 . S
C666 H653 0.930 . S
C666 C665 1.388 . S
C666 C667 1.390 . S
C667 C666 1.390 . S
C667 C668 1.394 . S
C667 C673 1.465 . S
C668 C663 1.399 . S
C668 C667 1.394 . S
C668 C669 1.516 . S
C669 C668 1.516 . S
C669 C670 1.502 . S
C669 C671 1.561 . S
C669 C672 1.526 . S
C670 H654 0.959 . S
C670 H655 0.959 . S
C670 H656 0.961 . S
C670 C669 1.502 . S
C671 H657 0.960 . S
C671 H658 0.961 . S
C671 H659 0.959 . S
C671 C669 1.561 . S
C672 C669 1.526 . S
C672 C673 1.396 . S
C672 C677 1.390 . S
C673 C667 1.465 . S
C673 C672 1.396 . S
C673 C674 1.399 . S
C674 H660 0.929 . S
C674 C673 1.399 . S
C674 C675 1.385 . S
C675 H661 0.931 . S
C675 C674 1.385 . S
C675 C676 1.389 . S
C676 C675 1.389 . S
C676 C677 1.387 . S
C677 H662 0.930 . S
C677 C672 1.390 . S
C677 C676 1.387 . S
C205 C189 1.431 1_556 S
C217 N13 1.347 . S
C232 C29 1.430 1_556 S
C244 N45 1.307 . S
C259 C61 1.432 1_556 S
C271 N77 1.313 . S
C286 N109 1.273 . S
C298 C93 1.410 1_556 S
C313 N141 1.366 . S
C325 C125 1.449 1_556 S
C340 C157 1.431 1_556 S
C352 N173 1.348 . S
C367 C130 1.535 . S
C379 N18 1.551 1_554 S
C394 C162 1.532 . S
C406 N50 1.551 1_554 S
C421 N82 1.526 1_554 S
C433 C2 1.519 . S
C448 N114 1.530 1_554 S
C460 C34 1.553 . S
C475 N146 1.541 1_554 S
C487 C66 1.521 . S
C502 C98 1.538 . S
C514 N178 1.510 . S
C529 C6 1.503 . S
C541 C4 1.516 . S
C556 C38 1.496 . S
C568 C36 1.522 . S
C583 C70 1.502 . S
C595 C68 1.508 . S
C610 C102 1.505 . S
C622 C100 1.514 . S
C637 C132 1.505 . S
C649 C134 1.504 . S
C664 C166 1.507 . S
C676 C164 1.511 . S
