# Generated by pormake.
# Topology wmi, (6)-cn, num edge types: 1
# Building blocks:
#     Node 0, Type 0, BuildingBlock: MAKGUD_clean_sbu_1, # of connection points: 6
#     Node 1, Type 0, BuildingBlock: MAKGUD_clean_sbu_1, # of connection points: 6
#     Node 2, Type 0, BuildingBlock: MAKGUD_clean_sbu_1, # of connection points: 6
#     Node 3, Type 0, BuildingBlock: MAKGUD_clean_sbu_1, # of connection points: 6
#     Node 4, Type 0, BuildingBlock: MAKGUD_clean_sbu_1, # of connection points: 6
#     Node 5, Type 0, BuildingBlock: MAKGUD_clean_sbu_1, # of connection points: 6
#     Node 6, Type 0, BuildingBlock: MAKGUD_clean_sbu_1, # of connection points: 6
#     Node 7, Type 0, BuildingBlock: MAKGUD_clean_sbu_1, # of connection points: 6
#     Node 8, Type 0, BuildingBlock: MAKGUD_clean_sbu_1, # of connection points: 6
#     Node 9, Type 0, BuildingBlock: MAKGUD_clean_sbu_1, # of connection points: 6
#     Node 10, Type 0, BuildingBlock: MAKGUD_clean_sbu_1, # of connection points: 6
#     Node 11, Type 0, BuildingBlock: MAKGUD_clean_sbu_1, # of connection points: 6
#     Node 12, Type 0, BuildingBlock: MAKGUD_clean_sbu_1, # of connection points: 6
#     Node 13, Type 0, BuildingBlock: MAKGUD_clean_sbu_1, # of connection points: 6
#     Node 14, Type 0, BuildingBlock: MAKGUD_clean_sbu_1, # of connection points: 6
#     Node 15, Type 0, BuildingBlock: MAKGUD_clean_sbu_1, # of connection points: 6
#     Node 16, Type 0, BuildingBlock: MAKGUD_clean_sbu_1, # of connection points: 6
#     Node 17, Type 0, BuildingBlock: MAKGUD_clean_sbu_1, # of connection points: 6
#     Edge 18, Type (0, 0), BuildingBlock: MIFKUJ_clean_linker_0, # of connection points: 2
#     Edge 19, Type (0, 0), BuildingBlock: MIFKUJ_clean_linker_0, # of connection points: 2
#     Edge 20, Type (0, 0), BuildingBlock: MIFKUJ_clean_linker_0, # of connection points: 2
#     Edge 21, Type (0, 0), BuildingBlock: MIFKUJ_clean_linker_0, # of connection points: 2
#     Edge 22, Type (0, 0), BuildingBlock: MIFKUJ_clean_linker_0, # of connection points: 2
#     Edge 23, Type (0, 0), BuildingBlock: MIFKUJ_clean_linker_0, # of connection points: 2
#     Edge 24, Type (0, 0), BuildingBlock: MIFKUJ_clean_linker_0, # of connection points: 2
#     Edge 25, Type (0, 0), BuildingBlock: MIFKUJ_clean_linker_0, # of connection points: 2
#     Edge 26, Type (0, 0), BuildingBlock: MIFKUJ_clean_linker_0, # of connection points: 2
#     Edge 27, Type (0, 0), BuildingBlock: MIFKUJ_clean_linker_0, # of connection points: 2
#     Edge 28, Type (0, 0), BuildingBlock: MIFKUJ_clean_linker_0, # of connection points: 2
#     Edge 29, Type (0, 0), BuildingBlock: MIFKUJ_clean_linker_0, # of connection points: 2
#     Edge 30, Type (0, 0), BuildingBlock: MIFKUJ_clean_linker_0, # of connection points: 2
#     Edge 31, Type (0, 0), BuildingBlock: MIFKUJ_clean_linker_0, # of connection points: 2
#     Edge 32, Type (0, 0), BuildingBlock: MIFKUJ_clean_linker_0, # of connection points: 2
#     Edge 33, Type (0, 0), BuildingBlock: MIFKUJ_clean_linker_0, # of connection points: 2
#     Edge 34, Type (0, 0), BuildingBlock: MIFKUJ_clean_linker_0, # of connection points: 2
#     Edge 35, Type (0, 0), BuildingBlock: MIFKUJ_clean_linker_0, # of connection points: 2
#     Edge 36, Type (0, 0), BuildingBlock: MIFKUJ_clean_linker_0, # of connection points: 2
#     Edge 37, Type (0, 0), BuildingBlock: MIFKUJ_clean_linker_0, # of connection points: 2
#     Edge 38, Type (0, 0), BuildingBlock: MIFKUJ_clean_linker_0, # of connection points: 2
#     Edge 39, Type (0, 0), BuildingBlock: MIFKUJ_clean_linker_0, # of connection points: 2
#     Edge 40, Type (0, 0), BuildingBlock: MIFKUJ_clean_linker_0, # of connection points: 2
#     Edge 41, Type (0, 0), BuildingBlock: MIFKUJ_clean_linker_0, # of connection points: 2
#     Edge 42, Type (0, 0), BuildingBlock: MIFKUJ_clean_linker_0, # of connection points: 2
#     Edge 43, Type (0, 0), BuildingBlock: MIFKUJ_clean_linker_0, # of connection points: 2
#     Edge 44, Type (0, 0), BuildingBlock: MIFKUJ_clean_linker_0, # of connection points: 2
#     Edge 45, Type (0, 0), BuildingBlock: MIFKUJ_clean_linker_0, # of connection points: 2
#     Edge 46, Type (0, 0), BuildingBlock: MIFKUJ_clean_linker_0, # of connection points: 2
#     Edge 47, Type (0, 0), BuildingBlock: MIFKUJ_clean_linker_0, # of connection points: 2
#     Edge 48, Type (0, 0), BuildingBlock: MIFKUJ_clean_linker_0, # of connection points: 2
#     Edge 49, Type (0, 0), BuildingBlock: MIFKUJ_clean_linker_0, # of connection points: 2
#     Edge 50, Type (0, 0), BuildingBlock: MIFKUJ_clean_linker_0, # of connection points: 2
#     Edge 51, Type (0, 0), BuildingBlock: MIFKUJ_clean_linker_0, # of connection points: 2
#     Edge 52, Type (0, 0), BuildingBlock: MIFKUJ_clean_linker_0, # of connection points: 2
#     Edge 53, Type (0, 0), BuildingBlock: MIFKUJ_clean_linker_0, # of connection points: 2
#     Edge 54, Type (0, 0), BuildingBlock: MIFKUJ_clean_linker_0, # of connection points: 2
#     Edge 55, Type (0, 0), BuildingBlock: MIFKUJ_clean_linker_0, # of connection points: 2
#     Edge 56, Type (0, 0), BuildingBlock: MIFKUJ_clean_linker_0, # of connection points: 2
#     Edge 57, Type (0, 0), BuildingBlock: MIFKUJ_clean_linker_0, # of connection points: 2
#     Edge 58, Type (0, 0), BuildingBlock: MIFKUJ_clean_linker_0, # of connection points: 2
#     Edge 59, Type (0, 0), BuildingBlock: MIFKUJ_clean_linker_0, # of connection points: 2
#     Edge 60, Type (0, 0), BuildingBlock: MIFKUJ_clean_linker_0, # of connection points: 2
#     Edge 61, Type (0, 0), BuildingBlock: MIFKUJ_clean_linker_0, # of connection points: 2
#     Edge 62, Type (0, 0), BuildingBlock: MIFKUJ_clean_linker_0, # of connection points: 2
#     Edge 63, Type (0, 0), BuildingBlock: MIFKUJ_clean_linker_0, # of connection points: 2
#     Edge 64, Type (0, 0), BuildingBlock: MIFKUJ_clean_linker_0, # of connection points: 2
#     Edge 65, Type (0, 0), BuildingBlock: MIFKUJ_clean_linker_0, # of connection points: 2
#     Edge 66, Type (0, 0), BuildingBlock: MIFKUJ_clean_linker_0, # of connection points: 2
#     Edge 67, Type (0, 0), BuildingBlock: MIFKUJ_clean_linker_0, # of connection points: 2
#     Edge 68, Type (0, 0), BuildingBlock: MIFKUJ_clean_linker_0, # of connection points: 2
#     Edge 69, Type (0, 0), BuildingBlock: MIFKUJ_clean_linker_0, # of connection points: 2
#     Edge 70, Type (0, 0), BuildingBlock: MIFKUJ_clean_linker_0, # of connection points: 2
#     Edge 71, Type (0, 0), BuildingBlock: MIFKUJ_clean_linker_0, # of connection points: 2
# Relax obj value: 0.144
# Max RMSD: 0.266
# Mean RMSD: 0.266
data_MOF--net-wmi--node1-MAKGUD_clean_sbu_1--edge1-MIFKUJ_clean_linker_0
_symmetry_space_group_name_H-M    P1
_symmetry_Int_Tables_number       1
_symmetry_cell_setting            triclinic
loop_
_symmetry_equiv_pos_as_xyz
'x, y, z'
_cell_length_a     47.36766
_cell_length_b     47.394431
_cell_length_c     102.38404
_cell_angle_alpha  90.010164
_cell_angle_beta   90.077014
_cell_angle_gamma 119.94009
loop_
_atom_site_label
_atom_site_type_symbol
_atom_site_fract_x
_atom_site_fract_y
_atom_site_fract_z
_atom_type_partial_charge
O0 O 0.55154 0.14714 0.10398 0.0
Tb1 Tb 0.53493 0.09698 0.09761 0.0
C2 C 0.51215 0.04051 0.07312 0.0
O3 O 0.50962 0.02684 0.11096 0.0
Tb4 Tb 0.48931 0.98566 0.09771 0.0
C5 C 0.4272 0.93768 0.1011 0.0
O6 O 0.50146 0.06936 0.11341 0.0
O7 O 0.5157 0.95838 0.09622 0.0
C8 C 0.51504 0.94002 0.1061 0.0
O9 O 0.50289 0.9426 0.11726 0.0
O10 O 0.52492 0.06981 0.07891 0.0
O11 O 0.49917 1.0111 0.07875 0.0
O12 O 0.5878 0.11656 0.09965 0.0
C13 C 0.49275 0.03905 0.11623 0.0
C14 C 0.534 0.15357 0.09611 0.0
O15 O 0.45039 0.94798 0.10972 0.0
O16 O 0.43858 0.95586 0.09073 0.0
C17 C 0.60699 0.13443 0.08999 0.0
O18 O 0.59324 0.1351 0.07893 0.0
O19 O 0.51648 0.12773 0.08896 0.0
O20 O 0.94527 0.43065 0.10692 0.0
Tb21 Tb 0.99008 0.46978 0.09813 0.0
C22 C 0.04897 0.5031 0.07368 0.0
O23 O 0.06088 0.51375 0.10765 0.0
Tb24 Tb 0.10646 0.53616 0.09729 0.0
C25 C 0.15015 0.51579 0.0983 0.0
O26 O 1.01853 0.46777 0.11459 0.0
O27 O 0.13496 0.58972 0.09842 0.0
C28 C 0.16091 0.60377 0.1061 0.0
O29 O 0.16677 0.58513 0.11381 0.0
O30 O 1.02023 0.48637 0.07993 0.0
O31 O 0.07892 0.52083 0.0788 0.0
O32 O 0.96794 0.50115 0.09918 0.0
C33 C 0.0496 0.489 0.11569 0.0
C34 C 0.93625 0.40984 0.0974 0.0
O35 O 0.13462 0.51853 0.10829 0.0
O36 O 0.13964 0.52289 0.08774 0.0
C37 C 0.93933 0.49053 0.09338 0.0
O38 O 0.92729 0.46366 0.08646 0.0
O39 O 0.95805 0.42265 0.08816 0.0
O40 O 0.64714 0.53778 0.10448 0.0
Tb41 Tb 0.61365 0.55331 0.09696 0.0
C42 C 0.58063 0.57549 0.07223 0.0
O43 O 0.5683 0.57871 0.11155 0.0
Tb44 Tb 0.54887 0.59769 0.09698 0.0
C45 C 0.56063 0.65931 0.09984 0.0
O46 O 0.61962 0.58735 0.11259 0.0
O47 O 0.49546 0.56979 0.09521 0.0
C48 C 0.47709 0.56561 0.10555 0.0
O49 O 0.49136 0.57456 0.11702 0.0
O50 O 0.59824 0.56403 0.07805 0.0
O51 O 0.56301 0.58713 0.07786 0.0
O52 O 0.58111 0.50008 0.09766 0.0
C53 C 0.59808 0.59562 0.11616 0.0
C54 C 0.67106 0.55397 0.09645 0.0
O55 O 0.54358 0.63507 0.10764 0.0
O56 O 0.57257 0.6492 0.09067 0.0
C57 C 0.58713 0.48337 0.0888 0.0
O58 O 0.60804 0.50015 0.07955 0.0
O59 O 0.66288 0.5705 0.08862 0.0
O60 O 0.14931 0.53311 0.89858 0.0
Tb61 Tb 0.10319 0.52456 0.9071 0.0
C62 C 0.04581 0.50228 0.9316 0.0
O63 O 0.03385 0.50175 0.89662 0.0
Tb64 Tb 0.98934 0.48069 0.90762 0.0
C65 C 0.94397 0.41729 0.9068 0.0
O66 O 0.07387 0.49225 0.89125 0.0
O67 O 0.96187 0.50676 0.90618 0.0
C68 C 0.93584 0.49477 0.89856 0.0
O69 O 0.92968 0.4699 0.89103 0.0
O70 O 0.0746 0.51272 0.92559 0.0
O71 O 1.01638 0.4919 0.92623 0.0
O72 O 0.12528 0.57788 0.90625 0.0
C73 C 0.04364 0.48513 0.88963 0.0
C74 C 0.15795 0.52021 0.90781 0.0
O75 O 0.96066 0.4346 0.89677 0.0
O76 O 0.95426 0.43542 0.91721 0.0
C77 C 0.14791 0.59449 0.91515 0.0
O78 O 0.15174 0.57777 0.92453 0.0
O79 O 0.13521 0.509 0.91673 0.0
O80 O 0.53496 0.63537 0.90061 0.0
Tb81 Tb 0.55622 0.60473 0.90553 0.0
C82 C 0.57926 0.57125 0.93015 0.0
O83 O 0.57996 0.55917 0.89333 0.0
Tb84 Tb 0.60194 0.53852 0.90578 0.0
C85 C 0.66483 0.55494 0.90274 0.0
O86 O 0.58709 0.60858 0.88901 0.0
O87 O 0.57641 0.48487 0.90692 0.0
C88 C 0.57837 0.46783 0.89707 0.0
O89 O 0.59172 0.48321 0.88614 0.0
O90 O 0.56725 0.58833 0.92422 0.0
O91 O 0.59149 0.5539 0.92468 0.0
O92 O 0.50372 0.57017 0.90386 0.0
C93 C 0.59584 0.58671 0.88688 0.0
C94 C 0.55518 0.66134 0.907 0.0
O95 O 0.64235 0.5428 0.89379 0.0
O96 O 0.65222 0.55971 0.91324 0.0
C97 C 0.48476 0.56744 0.91383 0.0
O98 O 0.49872 0.5811 0.92496 0.0
O99 O 0.57657 0.6556 0.91265 0.0
O100 O 0.43247 0.94264 0.89831 0.0
Tb101 Tb 0.47846 0.98121 0.90682 0.0
C102 C 0.51254 0.03997 0.93094 0.0
O103 O 0.52265 0.05082 0.89419 0.0
Tb104 Tb 0.54614 0.09359 0.90635 0.0
C105 C 0.5312 0.14104 0.90332 0.0
O106 O 0.47102 1.01052 0.89212 0.0
O107 O 0.59965 0.12047 0.90631 0.0
C108 C 0.61468 0.14774 0.91315 0.0
O109 O 0.59688 0.15521 0.92066 0.0
O110 O 0.4939 1.01114 0.92501 0.0
O111 O 0.53222 0.06899 0.92545 0.0
O112 O 0.51067 0.96106 0.90298 0.0
C113 C 0.49362 0.04027 0.88917 0.0
C114 C 0.4202 0.92557 0.90882 0.0
O115 O 0.54365 0.13086 0.89442 0.0
O116 O 0.52545 0.12311 0.91371 0.0
C117 C 0.51638 0.94652 0.91285 0.0
O118 O 0.50712 0.95001 0.92455 0.0
O119 O 0.44035 0.9405 0.9184 0.0
O120 O 0.21717 0.47814 0.43958 0.0
Tb121 Tb 0.20414 0.42958 0.43228 0.0
C122 C 0.18093 0.37061 0.40761 0.0
O123 O 0.17255 0.36089 0.43932 0.0
Tb124 Tb 0.15705 0.31377 0.43116 0.0
C125 C 0.09475 0.26613 0.43115 0.0
O126 O 0.17622 0.40316 0.44955 0.0
O127 O 0.18603 0.28967 0.43436 0.0
C128 C 0.17541 0.26548 0.44287 0.0
O129 O 0.15073 0.26013 0.45035 0.0
O130 O 0.1914 0.39896 0.4141 0.0
O131 O 0.17002 0.3406 0.41251 0.0
O132 O 0.2571 0.44985 0.43281 0.0
C133 C 0.16373 0.37166 0.44938 0.0
C134 C 0.20159 0.48532 0.431 0.0
O135 O 0.11068 0.28339 0.44132 0.0
O136 O 0.11363 0.27679 0.42095 0.0
C137 C 0.27436 0.46822 0.42291 0.0
O138 O 0.25858 0.4693 0.41253 0.0
O139 O 0.18672 0.46059 0.42303 0.0
O140 O 0.61326 0.76158 0.43968 0.0
Tb141 Tb 0.65753 0.80179 0.43111 0.0
C142 C 0.71574 0.83716 0.40676 0.0
O143 O 0.72734 0.84528 0.44127 0.0
Tb144 Tb 0.7724 0.86845 0.43068 0.0
C145 C 0.8167 0.8488 0.43027 0.0
O146 O 0.6865 0.79646 0.4466 0.0
O147 O 0.80023 0.92146 0.43341 0.0
C148 C 0.82886 0.93413 0.4393 0.0
O149 O 0.8375 0.91415 0.44441 0.0
O150 O 0.68682 0.81944 0.41276 0.0
O151 O 0.74537 0.85487 0.41211 0.0
O152 O 0.63544 0.83281 0.4336 0.0
C153 C 0.71699 0.81883 0.44822 0.0
C154 C 0.6029 0.74301 0.42944 0.0
O155 O 0.79916 0.84719 0.44041 0.0
O156 O 0.80794 0.85996 0.42039 0.0
C157 C 0.61746 0.83412 0.42394 0.0
O158 O 0.61799 0.82112 0.41267 0.0
O159 O 0.62386 0.75728 0.42004 0.0
O160 O 0.31719 0.87231 0.4413 0.0
Tb161 Tb 0.28074 0.88307 0.43299 0.0
C162 C 0.24885 0.90864 0.40851 0.0
O163 O 0.23469 0.90672 0.44626 0.0
Tb164 Tb 0.21491 0.92818 0.43315 0.0
C165 C 0.22695 0.98903 0.43834 0.0
O166 O 0.28624 0.91718 0.44856 0.0
O167 O 0.16188 0.90086 0.42996 0.0
C168 C 0.14146 0.89303 0.43988 0.0
O169 O 0.15331 0.89795 0.4518 0.0
O170 O 0.26509 0.89565 0.41441 0.0
O171 O 0.23161 0.92088 0.41404 0.0
O172 O 0.24752 0.83026 0.43472 0.0
C173 C 0.26343 0.92401 0.45172 0.0
C174 C 0.33816 0.88357 0.43183 0.0
O175 O 0.20775 0.96289 0.44489 0.0
O176 O 0.24059 0.98109 0.42907 0.0
C177 C 0.24574 0.81141 0.42484 0.0
O178 O 0.25936 0.82546 0.41373 0.0
O179 O 0.32707 0.89539 0.42296 0.0
O180 O 0.82303 0.87882 0.23284 0.0
Tb181 Tb 0.7752 0.86763 0.24034 0.0
C182 C 0.71547 0.84235 0.26477 0.0
O183 O 0.7067 0.83479 0.23287 0.0
Tb184 Tb 0.65936 0.81801 0.24095 0.0
C185 C 0.61204 0.75563 0.23966 0.0
O186 O 0.74962 0.83924 0.22301 0.0
O187 O 0.63557 0.84759 0.23952 0.0
C188 C 0.61363 0.84112 0.23029 0.0
O189 O 0.61012 0.8202 0.22113 0.0
O190 O 0.74413 0.85404 0.25841 0.0
O191 O 0.68541 0.8302 0.25972 0.0
O192 O 0.79553 0.92056 0.23946 0.0
C193 C 0.71805 0.82608 0.22298 0.0
C194 C 0.83058 0.86461 0.24189 0.0
O195 O 0.62637 0.77438 0.22964 0.0
O196 O 0.62541 0.77179 0.25035 0.0
C197 C 0.81307 0.93859 0.24941 0.0
O198 O 0.81332 0.92376 0.26022 0.0
O199 O 0.80651 0.85149 0.2502 0.0
O200 O 0.20632 0.97409 0.24944 0.0
Tb201 Tb 0.22675 0.94408 0.2425 0.0
C202 C 0.25504 0.91075 0.2664 0.0
O203 O 0.25944 0.91019 0.23393 0.0
Tb204 Tb 0.27901 0.88164 0.24187 0.0
C205 C 0.34139 0.89773 0.23826 0.0
O206 O 0.24876 0.94419 0.22364 0.0
O207 O 0.25063 0.82807 0.24097 0.0
C208 C 0.26558 0.81201 0.24456 0.0
O209 O 0.29533 0.82901 0.24919 0.0
O210 O 0.24221 0.92674 0.26008 0.0
O211 O 0.26808 0.89379 0.26122 0.0
O212 O 0.17439 0.91266 0.23861 0.0
C213 C 0.26402 0.92763 0.22341 0.0
C214 C 0.2303 1.00242 0.24624 0.0
O215 O 0.31886 0.88695 0.22925 0.0
O216 O 0.32895 0.90073 0.24918 0.0
C217 C 0.15388 0.90314 0.24856 0.0
O218 O 0.16608 0.90797 0.26043 0.0
O219 O 0.2532 0.99811 0.24125 0.0
O220 O 0.111 0.27398 0.23309 0.0
Tb221 Tb 0.14826 0.32101 0.241 0.0
C222 C 0.18096 0.38014 0.26544 0.0
O223 O 0.18946 0.39083 0.23117 0.0
Tb224 Tb 0.21068 0.4363 0.24153 0.0
C225 C 0.18873 0.47872 0.23973 0.0
O226 O 0.14489 0.3474 0.22408 0.0
O227 O 0.26413 0.46538 0.2405 0.0
C228 C 0.27835 0.49615 0.24428 0.0
O229 O 0.25986 0.50704 0.24904 0.0
O230 O 0.16488 0.35134 0.25918 0.0
O231 O 0.19753 0.41012 0.26029 0.0
O232 O 0.17952 0.29878 0.2408 0.0
C233 C 0.16499 0.37867 0.22295 0.0
C234 C 0.08938 0.26633 0.2422 0.0
O235 O 0.1965 0.4664 0.22992 0.0
O236 O 0.19176 0.46572 0.25046 0.0
C237 C 0.17207 0.27517 0.24938 0.0
O238 O 0.1501 0.27039 0.25825 0.0
O239 O 0.10069 0.28998 0.25073 0.0
O240 O 0.87441 0.81093 0.77292 0.0
Tb241 Tb 0.86724 0.76538 0.76436 0.0
C242 C 0.84368 0.70774 0.73948 0.0
O243 O 0.83818 0.69536 0.77329 0.0
Tb244 Tb 0.81755 0.65022 0.76281 0.0
C245 C 0.75476 0.60357 0.76127 0.0
O246 O 0.83427 0.73728 0.78028 0.0
O247 O 0.84462 0.625 0.76745 0.0
C248 C 0.82857 0.59589 0.77291 0.0
O249 O 0.79831 0.58521 0.77653 0.0
O250 O 0.85483 0.7361 0.74595 0.0
O251 O 0.83159 0.67763 0.74436 0.0
O252 O 0.92054 0.78703 0.76546 0.0
C253 C 0.82363 0.70604 0.78104 0.0
C254 C 0.86355 0.82031 0.76319 0.0
O255 O 0.76736 0.62545 0.77053 0.0
O256 O 0.77732 0.609 0.75278 0.0
C257 C 0.93769 0.80775 0.75606 0.0
O258 O 0.92154 0.81031 0.74612 0.0
O259 O 0.85405 0.79828 0.75402 0.0
O260 O 0.27036 0.1122 0.76619 0.0
Tb261 Tb 0.3234 0.14214 0.76405 0.0
C262 C 0.38378 0.17634 0.74005 0.0
O263 O 0.39047 0.17589 0.77292 0.0
Tb264 Tb 0.43781 0.20752 0.76466 0.0
C265 C 0.48781 0.19617 0.76707 0.0
O266 O 0.3456 0.14006 0.78254 0.0
O267 O 0.45959 0.26094 0.76509 0.0
C268 C 0.47992 0.27814 0.7746 0.0
O269 O 0.48262 0.26246 0.78466 0.0
O270 O 0.35466 0.15939 0.74608 0.0
O271 O 0.41351 0.19397 0.74545 0.0
O272 O 0.3049 0.17647 0.76458 0.0
C273 C 0.37735 0.15689 0.78308 0.0
C274 C 0.26666 0.08508 0.7616 0.0
O275 O 0.47525 0.20488 0.77648 0.0
O276 O 0.47132 0.19267 0.75639 0.0
C277 C 0.28799 0.17741 0.75445 0.0
O278 O 0.28772 0.16183 0.74378 0.0
O279 O 0.29535 0.08992 0.75823 0.0
O280 O 0.99678 0.22766 0.7725 0.0
Tb281 Tb 0.95142 0.22179 0.76406 0.0
C282 C 0.91801 0.25188 0.7405 0.0
O283 O 0.91424 0.2543 0.77179 0.0
Tb284 Tb 0.88412 0.27254 0.76436 0.0
C285 C 0.89845 0.33443 0.76706 0.0
O286 O 0.95201 0.24829 0.78172 0.0
O287 O 0.83084 0.24255 0.76534 0.0
C288 C 0.8149 0.24659 0.77507 0.0
O289 O 0.83176 0.26517 0.78493 0.0
O290 O 0.93357 0.23918 0.7472 0.0
O291 O 0.89966 0.26373 0.74532 0.0
O292 O 0.92162 0.16855 0.7656 0.0
C293 C 0.93359 0.26152 0.78188 0.0
C294 C 1.01228 0.23068 0.7617 0.0
O295 O 0.89547 0.31498 0.77665 0.0
O296 O 0.89457 0.31925 0.75601 0.0
C297 C 0.92142 0.15058 0.75567 0.0
O298 O 0.93551 0.16546 0.74475 0.0
O299 O 0.9938 0.22975 0.75208 0.0
O300 O 0.48582 0.20498 0.56474 0.0
Tb301 Tb 0.44164 0.201 0.57353 0.0
C302 C 0.38224 0.17479 0.59774 0.0
O303 O 0.37073 0.17521 0.56299 0.0
Tb304 Tb 0.3257 0.15259 0.57381 0.0
C305 C 0.28012 0.08933 0.57155 0.0
O306 O 0.41322 0.17011 0.55715 0.0
O307 O 0.29884 0.17939 0.57402 0.0
C308 C 0.27895 0.17618 0.56433 0.0
O309 O 0.27835 0.15958 0.55395 0.0
O310 O 0.4112 0.18728 0.59163 0.0
O311 O 0.35245 0.16257 0.59245 0.0
O312 O 0.46555 0.2546 0.57279 0.0
C313 C 0.3823 0.16069 0.55562 0.0
C314 C 0.49512 0.19424 0.57454 0.0
O315 O 0.29434 0.10932 0.56187 0.0
O316 O 0.29285 0.10472 0.58243 0.0
C317 C 0.49115 0.27053 0.58057 0.0
O318 O 0.49699 0.25334 0.58908 0.0
O319 O 0.47368 0.18644 0.58385 0.0
O320 O 0.8891 0.32104 0.56561 0.0
Tb321 Tb 0.89853 0.28373 0.57377 0.0
C322 C 0.92098 0.24897 0.59847 0.0
O323 O 0.92212 0.2383 0.56367 0.0
Tb324 Tb 0.94406 0.21556 0.57458 0.0
C325 C 1.00786 0.23502 0.57365 0.0
O326 O 0.9306 0.28694 0.55774 0.0
O327 O 0.91876 0.16236 0.57253 0.0
C328 C 0.93026 0.14932 0.56416 0.0
O329 O 0.95417 0.16888 0.55642 0.0
O330 O 0.91019 0.26695 0.59235 0.0
O331 O 0.93204 0.23043 0.59318 0.0
O332 O 0.84517 0.25225 0.5726 0.0
C333 C 0.93801 0.26401 0.55629 0.0
C334 C 0.90283 0.34268 0.57475 0.0
O335 O 0.99006 0.23397 0.5637 0.0
O336 O 0.98993 0.22668 0.58412 0.0
C337 C 0.82752 0.25516 0.58197 0.0
O338 O 0.84306 0.2732 0.59215 0.0
O339 O 0.91478 0.33131 0.58343 0.0
O340 O 0.79063 0.60649 0.58067 0.0
Tb341 Tb 0.8206 0.65687 0.57375 0.0
C342 C 0.85286 0.71843 0.59758 0.0
O343 O 0.85636 0.72312 0.56491 0.0
Tb344 Tb 0.8851 0.77092 0.57305 0.0
C345 C 0.87315 0.81982 0.56886 0.0
O346 O 0.82082 0.67873 0.55487 0.0
O347 O 0.93842 0.79404 0.57404 0.0
C348 C 0.95646 0.80797 0.56361 0.0
O349 O 0.94183 0.80366 0.55227 0.0
O350 O 0.83705 0.68962 0.5913 0.0
O351 O 0.87051 0.74828 0.5924 0.0
O352 O 0.85254 0.6365 0.57004 0.0
C353 C 0.83825 0.71045 0.55452 0.0
C354 C 0.7623 0.60214 0.57735 0.0
O355 O 0.88482 0.808 0.56026 0.0
O356 O 0.86662 0.80284 0.57958 0.0
C357 C 0.86309 0.62657 0.58002 0.0
O358 O 0.85876 0.63443 0.59186 0.0
O359 O 0.76659 0.62927 0.5723 0.0
H360 H 0.50808 0.89449 0.12407 0.0
H361 H 0.51933 0.85005 0.12179 0.0
H362 H 0.55398 0.88114 0.08258 0.0
H363 H 0.54162 0.92562 0.08468 0.0
H364 H 0.51895 0.81713 0.08292 0.0
H365 H 0.60667 0.89375 0.10923 0.0
H366 H 0.63389 0.93191 0.12745 0.0
H367 H 0.58496 0.85396 0.15498 0.0
H368 H 0.55706 0.81539 0.13694 0.0
H369 H 0.58624 0.70905 0.08179 0.0
H370 H 0.58173 0.75859 0.0816 0.0
H371 H 0.5299 0.72997 0.11815 0.0
H372 H 0.53441 0.68068 0.11839 0.0
H373 H 0.57886 0.7958 0.11769 0.0
H374 H 0.48875 0.72032 0.0908 0.0
H375 H 0.46347 0.68269 0.07226 0.0
H376 H 0.52054 0.75997 0.04537 0.0
H377 H 0.54652 0.79797 0.06379 0.0
C378 C 0.51837 0.89227 0.11495 0.0
C379 C 0.52424 0.91414 0.1046 0.0
C380 C 0.52496 0.86668 0.11368 0.0
C381 C 0.53823 0.86228 0.10211 0.0
C382 C 0.54396 0.88392 0.09167 0.0
C383 C 0.53706 0.90955 0.0929 0.0
C384 C 0.54542 0.83477 0.101 0.0
C385 C 0.5326 0.81292 0.09043 0.0
C386 C 0.56286 0.82858 0.11082 0.0
C387 C 0.57952 0.85173 0.12172 0.0
C388 C 0.6015 0.88478 0.11917 0.0
C389 C 0.61709 0.90648 0.12947 0.0
C390 C 0.61109 0.89538 0.14237 0.0
C391 C 0.58955 0.86254 0.14499 0.0
C392 C 0.57385 0.84074 0.13473 0.0
C393 C 0.57419 0.71351 0.08985 0.0
C394 C 0.56085 0.69094 0.10014 0.0
C395 C 0.57137 0.74174 0.08968 0.0
C396 C 0.55525 0.74808 0.09982 0.0
C397 C 0.54239 0.72575 0.11019 0.0
C398 C 0.54509 0.69756 0.11034 0.0
C399 C 0.55191 0.77798 0.0998 0.0
C400 C 0.56547 0.80024 0.11015 0.0
C401 C 0.53549 0.78467 0.08973 0.0
C402 C 0.51986 0.76188 0.07867 0.0
C403 C 0.49613 0.72921 0.08094 0.0
C404 C 0.48163 0.70783 0.07046 0.0
C405 C 0.49047 0.7189 0.05765 0.0
C406 C 0.51377 0.75141 0.0553 0.0
C407 C 0.52838 0.77288 0.06576 0.0
H408 H 0.4792 0.70232 0.04954 0.0
H409 H 0.6232 0.91222 0.15033 0.0
H410 H 0.409 0.8918 0.12017 0.0
H411 H 0.36241 0.83642 0.12024 0.0
H412 H 0.32917 0.85509 0.08376 0.0
H413 H 0.37626 0.91073 0.08358 0.0
H414 H 0.27802 0.82017 0.10087 0.0
H415 H 0.36843 0.81224 0.08415 0.0
H416 H 0.42461 0.82181 0.08449 0.0
H417 H 0.40483 0.76815 0.12031 0.0
H418 H 0.34866 0.75871 0.12031 0.0
H419 H 0.16426 0.65026 0.08875 0.0
H420 H 0.20717 0.70765 0.0872 0.0
H421 H 0.25541 0.69538 0.12066 0.0
H422 H 0.2134 0.63834 0.12204 0.0
H423 H 0.29908 0.7278 0.10355 0.0
H424 H 0.21075 0.73807 0.12131 0.0
H425 H 0.15526 0.73027 0.1221 0.0
H426 H 0.17121 0.78 0.08545 0.0
H427 H 0.22668 0.78774 0.08436 0.0
C428 C 0.39163 0.88429 0.11221 0.0
C429 C 0.39639 0.90574 0.10186 0.0
C430 C 0.36507 0.85243 0.11221 0.0
C431 C 0.34235 0.84119 0.10191 0.0
C432 C 0.34632 0.86302 0.09181 0.0
C433 C 0.3732 0.89488 0.09173 0.0
C434 C 0.31503 0.80652 0.10163 0.0
C435 C 0.28262 0.79994 0.10124 0.0
C436 C 0.32082 0.77997 0.10241 0.0
C437 C 0.35439 0.785 0.10228 0.0
C438 C 0.37611 0.80263 0.09214 0.0
C439 C 0.40795 0.80803 0.09227 0.0
C440 C 0.41831 0.79567 0.10243 0.0
C441 C 0.39678 0.77775 0.11246 0.0
C442 C 0.36493 0.77234 0.11239 0.0
C443 C 0.18383 0.6599 0.09585 0.0
C444 C 0.18511 0.63949 0.10554 0.0
C445 C 0.20843 0.69285 0.09498 0.0
C446 C 0.23474 0.70632 0.10388 0.0
C447 C 0.23568 0.68592 0.11363 0.0
C448 C 0.21135 0.65313 0.11444 0.0
C449 C 0.26179 0.74121 0.10297 0.0
C450 C 0.2943 0.7479 0.10311 0.0
C451 C 0.25605 0.76782 0.10206 0.0
C452 C 0.22271 0.76314 0.10268 0.0
C453 C 0.20232 0.7471 0.11337 0.0
C454 C 0.17089 0.74274 0.11388 0.0
C455 C 0.15968 0.75454 0.10382 0.0
C456 C 0.17991 0.77081 0.09323 0.0
C457 C 0.21135 0.77521 0.09266 0.0
H458 H 0.13534 0.75115 0.10423 0.0
H459 H 0.443 0.79994 0.10253 0.0
H460 H 0.18227 0.51299 0.12014 0.0
H461 H 0.23581 0.51675 0.12115 0.0
H462 H 0.23992 0.51735 0.07908 0.0
H463 H 0.18636 0.5134 0.07803 0.0
H464 H 0.26543 0.48177 0.08916 0.0
H465 H 0.27898 0.58782 0.09595 0.0
H466 H 0.26793 0.62814 0.10648 0.0
H467 H 0.30063 0.61142 0.14328 0.0
H468 H 0.31137 0.57058 0.13301 0.0
H469 H 0.43945 0.55223 0.08324 0.0
H470 H 0.38257 0.53962 0.08171 0.0
H471 H 0.37763 0.5426 0.12369 0.0
H472 H 0.43417 0.55541 0.12527 0.0
H473 H 0.35219 0.57604 0.11331 0.0
H474 H 0.33916 0.46993 0.10614 0.0
H475 H 0.34928 0.42929 0.09536 0.0
H476 H 0.31573 0.4466 0.05888 0.0
H477 H 0.3058 0.48768 0.06941 0.0
C478 C 0.19432 0.51333 0.11111 0.0
C479 C 0.18005 0.51295 0.099 0.0
C480 C 0.22509 0.51571 0.11169 0.0
C481 C 0.24234 0.51788 0.10018 0.0
C482 C 0.2273 0.51581 0.0881 0.0
C483 C 0.19662 0.51354 0.08751 0.0
C484 C 0.27663 0.52404 0.10072 0.0
C485 C 0.28446 0.50258 0.09433 0.0
C486 C 0.3016 0.55098 0.10757 0.0
C487 C 0.2957 0.57592 0.11374 0.0
C488 C 0.28362 0.59259 0.10631 0.0
C489 C 0.27743 0.61555 0.11222 0.0
C490 C 0.28351 0.62228 0.12554 0.0
C491 C 0.2959 0.60614 0.13296 0.0
C492 C 0.30206 0.5831 0.1271 0.0
C493 C 0.42614 0.54981 0.09215 0.0
C494 C 0.44159 0.55482 0.10438 0.0
C495 C 0.3935 0.54255 0.09127 0.0
C496 C 0.37547 0.54 0.10259 0.0
C497 C 0.3908 0.54452 0.11479 0.0
C498 C 0.42327 0.55171 0.11567 0.0
C499 C 0.34105 0.53357 0.10185 0.0
C500 C 0.3332 0.55514 0.10817 0.0
C501 C 0.31614 0.50681 0.09488 0.0
C502 C 0.32206 0.48212 0.08853 0.0
C503 C 0.33419 0.46526 0.0958 0.0
C504 C 0.33984 0.44211 0.08974 0.0
C505 C 0.33324 0.43543 0.07643 0.0
C506 C 0.32088 0.45183 0.06917 0.0
C507 C 0.31521 0.47503 0.07519 0.0
H508 H 0.33763 0.41749 0.07176 0.0
H509 H 0.27867 0.64005 0.1301 0.0
H510 H 0.88281 0.47609 0.88287 0.0
H511 H 0.8409 0.49138 0.88421 0.0
H512 H 0.8909 0.55453 0.91677 0.0
H513 H 0.9333 0.539 0.91555 0.0
H514 H 0.82411 0.51673 0.92102 0.0
H515 H 0.89324 0.58617 0.88677 0.0
H516 H 0.92391 0.59892 0.86612 0.0
H517 H 0.83544 0.53749 0.84516 0.0
H518 H 0.80431 0.52397 0.86571 0.0
H519 H 0.71574 0.58124 0.92024 0.0
H520 H 0.76487 0.57617 0.92009 0.0
H521 H 0.7328 0.52145 0.88416 0.0
H522 H 0.68469 0.52786 0.88399 0.0
H523 H 0.79463 0.56017 0.88256 0.0
H524 H 0.72596 0.48554 0.91545 0.0
H525 H 0.6928 0.46845 0.93551 0.0
H526 H 0.77647 0.53412 0.95818 0.0
H527 H 0.81005 0.55192 0.93821 0.0
C528 C 0.88526 0.4935 0.89027 0.0
C529 C 0.91178 0.50649 0.89904 0.0
C530 C 0.86113 0.50228 0.891 0.0
C531 C 0.86273 0.52444 0.90049 0.0
C532 C 0.8891 0.53747 0.90932 0.0
C533 C 0.91347 0.52874 0.90856 0.0
C534 C 0.8365 0.53335 0.90118 0.0
C535 C 0.81805 0.52682 0.91268 0.0
C536 C 0.82775 0.5456 0.8902 0.0
C537 C 0.84648 0.55383 0.87782 0.0
C538 C 0.88036 0.57517 0.87778 0.0
C539 C 0.89782 0.58257 0.86608 0.0
C540 C 0.88165 0.56895 0.85433 0.0
C541 C 0.84796 0.54798 0.85426 0.0
C542 C 0.83039 0.54046 0.86593 0.0
C543 C 0.71948 0.56856 0.91221 0.0
C544 C 0.69636 0.55511 0.9021 0.0
C545 C 0.74743 0.56531 0.91221 0.0
C546 C 0.75257 0.54788 0.90223 0.0
C547 C 0.72964 0.53495 0.89201 0.0
C548 C 0.70208 0.53872 0.8919 0.0
C549 C 0.78166 0.54304 0.9023 0.0
C550 C 0.80071 0.55034 0.89094 0.0
C551 C 0.79053 0.53094 0.91331 0.0
C552 C 0.77042 0.52035 0.92532 0.0
C553 C 0.73722 0.49654 0.9247 0.0
C554 C 0.71836 0.48668 0.93605 0.0
C555 C 0.73249 0.50027 0.9481 0.0
C556 C 0.76554 0.52368 0.94883 0.0
C557 C 0.7845 0.53365 0.9375 0.0
H558 H 0.71785 0.4926 0.95689 0.0
H559 H 0.89521 0.5747 0.84529 0.0
H560 H 0.55228 0.18538 0.88343 0.0
H561 H 0.55746 0.23946 0.88334 0.0
H562 H 0.51557 0.22225 0.92189 0.0
H563 H 0.51024 0.16796 0.92199 0.0
H564 H 0.49267 0.25384 0.9069 0.0
H565 H 0.59667 0.26841 0.91789 0.0
H566 H 0.64524 0.26246 0.91554 0.0
H567 H 0.66745 0.31307 0.87889 0.0
H568 H 0.61864 0.31879 0.8809 0.0
H569 H 0.54992 0.42573 0.91802 0.0
H570 H 0.53897 0.36937 0.92007 0.0
H571 H 0.57634 0.37462 0.88124 0.0
H572 H 0.58703 0.43026 0.87911 0.0
H573 H 0.60176 0.34915 0.89825 0.0
H574 H 0.49495 0.33173 0.88739 0.0
H575 H 0.44634 0.33732 0.89045 0.0
H576 H 0.43054 0.29269 0.92824 0.0
H577 H 0.47934 0.28722 0.92547 0.0
C578 C 0.54385 0.19296 0.89184 0.0
C579 C 0.53084 0.1723 0.90272 0.0
C580 C 0.547 0.22403 0.89181 0.0
C581 C 0.53738 0.23538 0.90269 0.0
C582 C 0.52327 0.21427 0.91338 0.0
C583 C 0.52023 0.18318 0.91344 0.0
C584 C 0.54305 0.26953 0.90301 0.0
C585 C 0.51664 0.27469 0.9052 0.0
C586 C 0.57424 0.29697 0.90072 0.0
C587 C 0.60377 0.29375 0.89949 0.0
C588 C 0.61174 0.27804 0.90927 0.0
C589 C 0.63935 0.27473 0.90801 0.0
C590 C 0.65939 0.28733 0.89707 0.0
C591 C 0.65188 0.30329 0.88736 0.0
C592 C 0.62424 0.30658 0.88856 0.0
C593 C 0.5555 0.41476 0.90988 0.0
C594 C 0.5693 0.43276 0.89839 0.0
C595 C 0.54923 0.38246 0.91106 0.0
C596 C 0.5568 0.36749 0.9008 0.0
C597 C 0.57035 0.38543 0.88933 0.0
C598 C 0.57631 0.41739 0.88811 0.0
C599 C 0.55129 0.33346 0.90191 0.0
C600 C 0.57781 0.32832 0.90002 0.0
C601 C 0.5203 0.30613 0.90461 0.0
C602 C 0.49101 0.30942 0.90629 0.0
C603 C 0.48128 0.32338 0.8964 0.0
C604 C 0.45366 0.32647 0.89807 0.0
C605 C 0.43542 0.31547 0.90955 0.0
C606 C 0.44473 0.30126 0.91937 0.0
C607 C 0.47235 0.29814 0.91775 0.0
H608 H 0.41404 0.31787 0.91082 0.0
H609 H 0.68076 0.28477 0.89611 0.0
H610 H 0.65818 0.14958 0.89463 0.0
H611 H 0.71509 0.19255 0.89148 0.0
H612 H 0.70829 0.24322 0.92527 0.0
H613 H 0.65171 0.20117 0.9282 0.0
H614 H 0.73738 0.28552 0.90738 0.0
H615 H 0.75087 0.1982 0.92454 0.0
H616 H 0.74346 0.14287 0.92513 0.0
H617 H 0.78781 0.15772 0.88732 0.0
H618 H 0.79513 0.21302 0.88645 0.0
H619 H 0.90101 0.38718 0.92653 0.0
H620 H 0.8468 0.33898 0.92534 0.0
H621 H 0.86233 0.32637 0.88481 0.0
H622 H 0.91675 0.37554 0.88584 0.0
H623 H 0.82991 0.26504 0.90295 0.0
H624 H 0.82038 0.35557 0.88728 0.0
H625 H 0.83026 0.41177 0.88827 0.0
H626 H 0.7792 0.39087 0.92478 0.0
H627 H 0.76962 0.33471 0.92415 0.0
C628 C 0.66897 0.1697 0.90146 0.0
C629 C 0.65023 0.17171 0.9117 0.0
C630 C 0.70162 0.19434 0.89967 0.0
C631 C 0.71643 0.22135 0.90817 0.0
C632 C 0.69773 0.22296 0.91849 0.0
C633 C 0.66522 0.19862 0.92021 0.0
C634 C 0.751 0.24841 0.90636 0.0
C635 C 0.75749 0.28084 0.90649 0.0
C636 C 0.77761 0.24279 0.90486 0.0
C637 C 0.77318 0.20957 0.90536 0.0
C638 C 0.7588 0.18956 0.91631 0.0
C639 C 0.75466 0.15823 0.9167 0.0
C640 C 0.76506 0.14675 0.90625 0.0
C641 C 0.7797 0.16661 0.8954 0.0
C642 C 0.78387 0.19796 0.89495 0.0
C643 C 0.8932 0.37394 0.91739 0.0
C644 C 0.91326 0.38524 0.90627 0.0
C645 C 0.8621 0.34638 0.91672 0.0
C646 C 0.85036 0.32906 0.90499 0.0
C647 C 0.87088 0.33929 0.89398 0.0
C648 C 0.90196 0.36736 0.89458 0.0
C649 C 0.81594 0.3017 0.90422 0.0
C650 C 0.80959 0.26944 0.90365 0.0
C651 C 0.78943 0.3074 0.90544 0.0
C652 C 0.79459 0.341 0.90573 0.0
C653 C 0.81153 0.36303 0.89559 0.0
C654 C 0.81704 0.39488 0.89607 0.0
C655 C 0.80545 0.40492 0.9066 0.0
C656 C 0.78821 0.38308 0.91664 0.0
C657 C 0.78273 0.35122 0.91622 0.0
H658 H 0.80976 0.4296 0.90696 0.0
H659 H 0.76184 0.12249 0.90657 0.0
H660 H 0.2622 0.04557 0.4242 0.0
H661 H 0.25866 0.09556 0.42546 0.0
H662 H 0.1897 0.05399 0.457 0.0
H663 H 0.19332 1.00433 0.45581 0.0
H664 H 0.16767 0.07907 0.4388 0.0
H665 H 0.2663 0.11483 0.46245 0.0
H666 H 0.32209 0.12548 0.46647 0.0
H667 H 0.35718 0.192 0.43416 0.0
H668 H 0.30141 0.18115 0.42973 0.0
H669 H 0.1574 0.21472 0.45971 0.0
H670 H 0.17115 0.17166 0.45906 0.0
H671 H 0.23384 0.21748 0.42603 0.0
H672 H 0.22011 0.26124 0.42661 0.0
H673 H 0.26048 0.19145 0.44412 0.0
H674 H 0.15947 0.15411 0.42093 0.0
H675 H 0.10306 0.14269 0.41789 0.0
H676 H 0.0723 0.07885 0.45107 0.0
H677 H 0.12863 0.09019 0.45441 0.0
C678 C 0.24669 0.04733 0.43153 0.0
C679 C 0.22807 0.02091 0.4399 0.0
C680 C 0.24465 0.07595 0.43225 0.0
C681 C 0.22383 0.07876 0.44133 0.0
C682 C 0.20582 0.05258 0.44987 0.0
C683 C 0.20805 0.02417 0.44922 0.0
C684 C 0.21954 0.10813 0.44158 0.0
C685 C 0.18801 0.10356 0.44011 0.0
C686 C 0.246 0.14036 0.44304 0.0
C687 C 0.27956 0.14686 0.44565 0.0
C688 C 0.28582 0.13145 0.4561 0.0
C689 C 0.31746 0.13757 0.45847 0.0
C690 C 0.34315 0.15938 0.45057 0.0
C691 C 0.33724 0.17508 0.44026 0.0
C692 C 0.30561 0.16893 0.4378 0.0
C693 C 0.17443 0.21606 0.45234 0.0
C694 C 0.18747 0.24161 0.44315 0.0
C695 C 0.1822 0.19117 0.45198 0.0
C696 C 0.20319 0.19082 0.44238 0.0
C697 C 0.2175 0.21702 0.43352 0.0
C698 C 0.20962 0.24208 0.43386 0.0
C699 C 0.20863 0.16225 0.44137 0.0
C700 C 0.24027 0.16694 0.44272 0.0
C701 C 0.18223 0.13 0.43994 0.0
C702 C 0.14833 0.12316 0.43796 0.0
C703 C 0.14073 0.13781 0.42763 0.0
C704 C 0.10876 0.13132 0.42585 0.0
C705 C 0.08412 0.11002 0.43427 0.0
C706 C 0.09141 0.09528 0.44454 0.0
C707 C 0.12334 0.10171 0.44637 0.0
H708 H 0.05935 0.10482 0.43281 0.0
H709 H 0.36764 0.16415 0.45244 0.0
H710 H 0.05026 0.24219 0.45111 0.0
H711 H 1.00128 0.18825 0.45252 0.0
H712 H 1.02032 0.16539 0.41386 0.0
H713 H 0.0681 0.2197 0.41222 0.0
H714 H 0.95975 0.13764 0.41583 0.0
H715 H 0.04176 0.14096 0.44297 0.0
H716 H 0.08354 0.1598 0.46025 0.0
H717 H 1.01055 0.13959 0.48928 0.0
H718 H 0.96831 0.12105 0.47212 0.0
H719 H 0.89266 0.96357 0.44628 0.0
H720 H 0.93408 0.02057 0.44459 0.0
H721 H 0.86155 0.0435 0.43099 0.0
H722 H 0.82008 0.98548 0.43185 0.0
H723 H 0.94784 0.072 0.45528 0.0
H724 H 0.89493 0.11095 0.41198 0.0
H725 H 0.86183 0.08671 0.39215 0.0
H726 H 0.89103 0.01429 0.39132 0.0
H727 H 0.92461 0.03834 0.41103 0.0
C728 C 0.04359 0.22582 0.44284 0.0
C729 C 0.06306 0.23519 0.43156 0.0
C730 C 1.01571 0.19482 0.44368 0.0
C731 C 1.00718 0.17216 0.4334 0.0
C732 C 0.02606 0.18214 0.42195 0.0
C733 C 0.05352 0.21329 0.42102 0.0
C734 C 0.97975 0.1377 0.43476 0.0
C735 C 0.9571 0.12341 0.42451 0.0
C736 C 0.97662 0.11837 0.44584 0.0
C737 C 1.00191 0.12991 0.45623 0.0
C738 C 0.03463 0.14074 0.45302 0.0
C739 C 0.0584 0.15139 0.4628 0.0
C740 C 0.04971 0.15107 0.47585 0.0
C741 C 1.01723 0.14001 0.47915 0.0
C742 C 0.99336 0.12941 0.4694 0.0
C743 C 0.88539 0.98062 0.44287 0.0
C744 C 0.85297 0.96973 0.43908 0.0
C745 C 0.90923 0.01349 0.44199 0.0
C746 C 0.9014 0.0368 0.43754 0.0
C747 C 0.86868 0.02616 0.43417 0.0
C748 C 0.84482 0.99295 0.43476 0.0
C749 C 0.92771 0.07186 0.43637 0.0
C750 C 0.9502 0.0863 0.44666 0.0
C751 C 0.93187 0.09066 0.42499 0.0
C752 C 0.91191 0.0762 0.41308 0.0
C753 C 0.89432 0.0899 0.40755 0.0
C754 C 0.87549 0.07619 0.39633 0.0
C755 C 0.87421 0.04889 0.39051 0.0
C756 C 0.89191 0.03534 0.39587 0.0
C757 C 0.91082 0.04898 0.40707 0.0
H758 H 0.85959 0.0383 0.38184 0.0
H759 H 0.06812 0.15929 0.48342 0.0
H760 H 0.09252 0.86775 0.45801 0.0
H761 H 0.0363 0.85584 0.4556 0.0
H762 H 0.05395 0.88349 0.41504 0.0
H763 H 0.11051 0.89547 0.41739 0.0
H764 H 0.02331 0.9121 0.42761 0.0
H765 H 1.00676 0.8038 0.42383 0.0
H766 H 1.01142 0.75637 0.43062 0.0
H767 H 0.96046 0.74954 0.46618 0.0
H768 H 0.95589 0.79723 0.45969 0.0
H769 H 0.86136 0.86456 0.41081 0.0
H770 H 0.91439 0.86771 0.41192 0.0
H771 H 0.8944 0.83193 0.4515 0.0
H772 H 0.84048 0.82768 0.45014 0.0
H773 H 0.92618 0.80678 0.43933 0.0
H774 H 0.9454 0.91493 0.44488 0.0
H775 H 0.94223 0.96411 0.4398 0.0
H776 H 0.9885 0.97264 0.40284 0.0
H777 H 0.99212 0.92353 0.40772 0.0
C778 C 0.08444 0.87094 0.44851 0.0
C779 C 0.10623 0.88251 0.43788 0.0
C780 C 0.05211 0.86401 0.44714 0.0
C781 C 0.04055 0.86854 0.43512 0.0
C782 C 0.06211 0.87971 0.42443 0.0
C783 C 0.09447 0.88637 0.42576 0.0
C784 C 1.0065 0.86292 0.4339 0.0
C785 C 1.00208 0.88885 0.42994 0.0
C786 C 0.97862 0.83302 0.43742 0.0
C787 C 0.98125 0.80428 0.44132 0.0
C788 C 0.99678 0.79235 0.43314 0.0
C789 C 0.99936 0.76538 0.43693 0.0
C790 C 0.98631 0.75 0.44884 0.0
C791 C 0.97058 0.7615 0.45697 0.0
C792 C 0.96796 0.78848 0.45323 0.0
C793 C 0.86801 0.85689 0.4197 0.0
C794 C 0.84686 0.84627 0.4305 0.0
C795 C 0.89861 0.85904 0.42038 0.0
C796 C 0.9091 0.85091 0.43192 0.0
C797 C 0.88726 0.8387 0.44251 0.0
C798 C 0.85649 0.8364 0.44178 0.0
C799 C 0.94299 0.8559 0.43294 0.0
C800 C 0.9474 0.82995 0.43691 0.0
C801 C 0.97096 0.88595 0.42963 0.0
C802 C 0.96872 0.91538 0.42661 0.0
C803 C 0.95469 0.92716 0.43562 0.0
C804 C 0.95284 0.95504 0.43279 0.0
C805 C 0.96491 0.97136 0.42096 0.0
C806 C 0.97908 0.95993 0.41198 0.0
C807 C 0.98114 0.93214 0.41479 0.0
H808 H 0.9634 0.99292 0.41879 0.0
H809 H 0.98834 0.72913 0.45175 0.0
H810 H 0.36519 0.88083 0.21721 0.0
H811 H 0.41452 0.87639 0.21614 0.0
H812 H 0.43957 0.9135 0.25542 0.0
H813 H 0.38999 0.91772 0.25658 0.0
H814 H 0.49463 0.93838 0.23871 0.0
H815 H 0.40659 0.8346 0.25199 0.0
H816 H 0.35145 0.78674 0.25069 0.0
H817 H 0.37192 0.76554 0.21221 0.0
H818 H 0.42725 0.81321 0.21334 0.0
H819 H 0.60633 0.87804 0.24953 0.0
H820 H 0.56353 0.89278 0.2511 0.0
H821 H 0.52464 0.84645 0.21398 0.0
H822 H 0.56676 0.83145 0.21244 0.0
H823 H 0.47695 0.82742 0.23082 0.0
H824 H 0.56702 0.93129 0.21818 0.0
H825 H 0.62208 0.97919 0.22005 0.0
H826 H 0.59817 1.00098 0.25777 0.0
H827 H 0.54307 0.95293 0.25619 0.0
C828 C 0.38144 0.88853 0.22555 0.0
C829 C 0.3736 0.89955 0.23699 0.0
C830 C 0.40961 0.88585 0.22495 0.0
C831 C 0.43073 0.89428 0.23575 0.0
C832 C 0.42376 0.90683 0.24696 0.0
C833 C 0.39538 0.90922 0.24761 0.0
C834 C 0.4588 0.88807 0.23556 0.0
C835 C 0.49078 0.91408 0.23714 0.0
C836 C 0.45401 0.85647 0.23339 0.0
C837 C 0.42089 0.82761 0.23269 0.0
C838 C 0.39922 0.81981 0.24322 0.0
C839 C 0.36793 0.79269 0.24252 0.0
C840 C 0.358 0.7732 0.23133 0.0
C841 C 0.3795 0.78064 0.22086 0.0
C842 C 0.4109 0.80765 0.22154 0.0
C843 C 0.58894 0.87141 0.24162 0.0
C844 C 0.59017 0.85356 0.23085 0.0
C845 C 0.56442 0.8799 0.24251 0.0
C846 C 0.54068 0.87087 0.23263 0.0
C847 C 0.54242 0.85367 0.22178 0.0
C848 C 0.56677 0.84521 0.22088 0.0
C849 C 0.51313 0.87784 0.23373 0.0
C850 C 0.48104 0.85183 0.23237 0.0
C851 C 0.51796 0.90945 0.23616 0.0
C852 C 0.55105 0.93831 0.23713 0.0
C853 C 0.5736 0.94614 0.22692 0.0
C854 C 0.60479 0.97335 0.22792 0.0
C855 C 0.61365 0.99306 0.23904 0.0
C856 C 0.59129 0.98566 0.24917 0.0
C857 C 0.56007 0.95845 0.24823 0.0
H858 H 0.63781 0.01412 0.23979 0.0
H859 H 0.33369 0.75231 0.23081 0.0
H860 H 0.29635 0.77705 0.24755 0.0
H861 H 0.2751 0.71901 0.24473 0.0
H862 H 0.18076 0.70601 0.23501 0.0
H863 H 0.20229 0.76502 0.23776 0.0
H864 H 0.1758 0.65796 0.25181 0.0
H865 H 0.22691 0.70304 0.2117 0.0
H866 H 0.26926 0.73894 0.19611 0.0
H867 H 0.33139 0.70279 0.20926 0.0
H868 H 0.28994 0.66755 0.22527 0.0
H869 H 0.18445 0.51028 0.218 0.0
H870 H 0.18759 0.5635 0.21706 0.0
H871 H 0.19234 0.56913 0.25914 0.0
H872 H 0.18797 0.5156 0.26007 0.0
H873 H 0.23338 0.61921 0.22289 0.0
H874 H 0.16955 0.62038 0.2714 0.0
H875 H 0.12245 0.58232 0.28473 0.0
H876 H 0.07751 0.52277 0.25095 0.0
H877 H 0.12411 0.56068 0.23739 0.0
C878 C 0.27105 0.76206 0.2448 0.0
C879 C 0.25113 0.776 0.24287 0.0
C880 C 0.25891 0.72868 0.24314 0.0
C881 C 0.22635 0.7079 0.23952 0.0
C882 C 0.20602 0.72146 0.23777 0.0
C883 C 0.21836 0.75524 0.23931 0.0
C884 C 0.21414 0.67221 0.23769 0.0
C885 C 0.18831 0.64947 0.24545 0.0
C886 C 0.22976 0.66076 0.22913 0.0
C887 C 0.25533 0.6828 0.2198 0.0
C888 C 0.24979 0.70309 0.21143 0.0
C889 C 0.27365 0.72332 0.2025 0.0
C890 C 0.30301 0.72319 0.20171 0.0
C891 C 0.30863 0.70289 0.20988 0.0
C892 C 0.285 0.68287 0.21893 0.0
C893 C 0.18534 0.52255 0.22705 0.0
C894 C 0.18573 0.50855 0.23911 0.0
C895 C 0.18738 0.55316 0.22652 0.0
C896 C 0.19002 0.57067 0.23802 0.0
C897 C 0.18957 0.55618 0.25009 0.0
C898 C 0.18718 0.52545 0.25062 0.0
C899 C 0.19587 0.60494 0.23742 0.0
C900 C 0.22063 0.62752 0.22921 0.0
C901 C 0.17877 0.61605 0.24534 0.0
C902 C 0.15049 0.59327 0.2534 0.0
C903 C 0.14955 0.59925 0.2668 0.0
C904 C 0.12295 0.57768 0.2744 0.0
C905 C 0.09705 0.5501 0.26869 0.0
C906 C 0.09765 0.54408 0.25537 0.0
C907 C 0.12417 0.56558 0.24772 0.0
H908 H 0.07649 0.53342 0.2746 0.0
H909 H 0.32141 0.73879 0.19476 0.0
H910 H 0.57848 0.721 0.21801 0.0
H911 H 0.52422 0.67221 0.21733 0.0
H912 H 0.52163 0.66993 0.25944 0.0
H913 H 0.57599 0.71821 0.26014 0.0
H914 H 0.49299 0.60939 0.25044 0.0
H915 H 0.4855 0.70528 0.24149 0.0
H916 H 0.49841 0.75563 0.22963 0.0
H917 H 0.46116 0.70101 0.19414 0.0
H918 H 0.44845 0.65039 0.20576 0.0
H919 H 0.31081 0.56117 0.24938 0.0
H920 H 0.36853 0.6001 0.24719 0.0
H921 H 0.38563 0.52373 0.23371 0.0
H922 H 0.32711 0.48403 0.23596 0.0
H923 H 0.40786 0.62115 0.22689 0.0
H924 H 0.46439 0.54426 0.24397 0.0
H925 H 0.45097 0.4971 0.25816 0.0
H926 H 0.38812 0.51847 0.28111 0.0
H927 H 0.4015 0.56595 0.26718 0.0
C928 C 0.56655 0.70973 0.22711 0.0
C929 C 0.58145 0.72358 0.23913 0.0
C930 C 0.53542 0.68191 0.22672 0.0
C931 C 0.51839 0.66753 0.23834 0.0
C932 C 0.53407 0.68043 0.25033 0.0
C933 C 0.5652 0.70814 0.25072 0.0
C934 C 0.48358 0.6406 0.2381 0.0
C935 C 0.47446 0.61186 0.24517 0.0
C936 C 0.45905 0.64379 0.23143 0.0
C937 C 0.46635 0.67412 0.22446 0.0
C938 C 0.48025 0.70405 0.23114 0.0
C939 C 0.48751 0.73262 0.22447 0.0
C940 C 0.48069 0.73153 0.21114 0.0
C941 C 0.46649 0.70183 0.20446 0.0
C942 C 0.45924 0.67319 0.21109 0.0
C943 C 0.32666 0.55237 0.24596 0.0
C944 C 0.31409 0.51923 0.24289 0.0
C945 C 0.35984 0.57489 0.24464 0.0
C946 C 0.3817 0.56509 0.2403 0.0
C947 C 0.36938 0.53199 0.23718 0.0
C948 C 0.33589 0.50928 0.23845 0.0
C949 C 0.41721 0.58986 0.23922 0.0
C950 C 0.42646 0.61832 0.23193 0.0
C951 C 0.44168 0.58671 0.24593 0.0
C952 C 0.43362 0.55836 0.25442 0.0
C953 C 0.44775 0.53889 0.25206 0.0
C954 C 0.44015 0.51212 0.26006 0.0
C955 C 0.4186 0.50471 0.27049 0.0
C956 C 0.40469 0.52414 0.27299 0.0
C957 C 0.41224 0.55095 0.26503 0.0
H958 H 0.41274 0.48397 0.27667 0.0
H959 H 0.48634 0.75367 0.20598 0.0
H960 H 0.79541 0.53095 0.77807 0.0
H961 H 0.81546 0.49284 0.77855 0.0
H962 H 0.91279 0.57111 0.77061 0.0
H963 H 0.89225 0.60958 0.7695 0.0
H964 H 0.90481 0.52287 0.7573 0.0
H965 H 0.88724 0.53173 0.80198 0.0
H966 H 0.85904 0.53327 0.82196 0.0
H967 H 0.7843 0.43408 0.81559 0.0
H968 H 0.81182 0.43205 0.79547 0.0
H969 H 0.91447 0.37354 0.78879 0.0
H970 H 0.91281 0.42431 0.79118 0.0
H971 H 0.88132 0.41624 0.7511 0.0
H972 H 0.88498 0.36705 0.74852 0.0
H973 H 0.86739 0.43671 0.79111 0.0
H974 H 0.89779 0.48605 0.73755 0.0
H975 H 0.93441 0.48962 0.71973 0.0
H976 H 0.99821 0.48183 0.74748 0.0
H977 H 0.96225 0.47867 0.76549 0.0
C978 C 0.8212 0.54033 0.77653 0.0
C979 C 0.84224 0.57356 0.77384 0.0
C980 C 0.83274 0.51834 0.7769 0.0
C981 C 0.8659 0.52889 0.77494 0.0
C982 C 0.88711 0.56216 0.77224 0.0
C983 C 0.87539 0.58424 0.77165 0.0
C984 C 0.87768 0.50472 0.77515 0.0
C985 C 0.89674 0.50418 0.76475 0.0
C986 C 0.86834 0.48077 0.78509 0.0
C987 C 0.85151 0.48184 0.79715 0.0
C988 C 0.86466 0.51032 0.80478 0.0
C989 C 0.84882 0.51126 0.81615 0.0
C990 C 0.81986 0.48381 0.82003 0.0
C991 C 0.80672 0.45533 0.81257 0.0
C992 C 0.82247 0.45426 0.80119 0.0
C993 C 0.90781 0.38305 0.78045 0.0
C994 C 0.90013 0.36646 0.76844 0.0
C995 C 0.90662 0.41196 0.78183 0.0
C996 C 0.89719 0.42463 0.77131 0.0
C997 C 0.88958 0.40787 0.75931 0.0
C998 C 0.8915 0.37949 0.75785 0.0
C999 C 0.89338 0.45408 0.77297 0.0
C1000 C 0.87578 0.45559 0.78373 0.0
C1001 C 0.90522 0.47965 0.76365 0.0
C1002 C 0.92715 0.48187 0.75287 0.0
C1003 C 0.91972 0.48527 0.73986 0.0
C1004 C 0.94034 0.48718 0.72972 0.0
C1005 C 0.96857 0.48587 0.73247 0.0
C1006 C 0.97628 0.48274 0.74536 0.0
C1007 C 0.95576 0.48084 0.75554 0.0
H1008 H 0.98449 0.48733 0.7246 0.0
H1009 H 0.80764 0.48459 0.82883 0.0
H1010 H 0.69972 0.59235 0.77437 0.0
H1011 H 0.64746 0.54107 0.77574 0.0
H1012 H 0.68692 0.49431 0.75159 0.0
H1013 H 0.73739 0.54606 0.74928 0.0
H1014 H 0.62971 0.46844 0.7454 0.0
H1015 H 0.679 0.49037 0.78867 0.0
H1016 H 0.7026 0.52547 0.80806 0.0
H1017 H 0.61265 0.52463 0.81452 0.0
H1018 H 0.5886 0.4897 0.7951 0.0
H1019 H 0.53325 0.31565 0.7897 0.0
H1020 H 0.57431 0.37257 0.78702 0.0
H1021 H 0.52012 0.38029 0.75466 0.0
H1022 H 0.4795 0.32228 0.75689 0.0
H1023 H 0.58044 0.42791 0.78894 0.0
H1024 H 0.56961 0.43795 0.7333 0.0
H1025 H 0.5524 0.40306 0.71365 0.0
H1026 H 0.57556 0.33632 0.73262 0.0
H1027 H 0.59323 0.371 0.75232 0.0
C1028 C 0.69673 0.57113 0.76921 0.0
C1029 C 0.72246 0.57327 0.76169 0.0
C1030 C 0.66704 0.54159 0.77011 0.0
C1031 C 0.66302 0.51302 0.76406 0.0
C1032 C 0.68883 0.51558 0.75637 0.0
C1033 C 0.71791 0.54531 0.75508 0.0
C1034 C 0.63273 0.48028 0.76588 0.0
C1035 C 0.61902 0.45977 0.75496 0.0
C1036 C 0.61835 0.4683 0.77829 0.0
C1037 C 0.63209 0.48761 0.7904 0.0
C1038 C 0.66424 0.49759 0.79426 0.0
C1039 C 0.67771 0.5175 0.80523 0.0
C1040 C 0.65916 0.52734 0.8125 0.0
C1041 C 0.62698 0.517 0.80888 0.0
C1042 C 0.61339 0.49709 0.79791 0.0
C1043 C 0.52981 0.32935 0.78201 0.0
C1044 C 0.50296 0.31404 0.77345 0.0
C1045 C 0.55346 0.36221 0.78052 0.0
C1046 C 0.55101 0.38116 0.7705 0.0
C1047 C 0.52336 0.36633 0.76228 0.0
C1048 C 0.49988 0.33309 0.76362 0.0
C1049 C 0.57813 0.41575 0.76851 0.0
C1050 C 0.59109 0.43667 0.77939 0.0
C1051 C 0.59263 0.42773 0.75613 0.0
C1052 C 0.58234 0.40685 0.74432 0.0
C1053 C 0.57108 0.41586 0.73325 0.0
C1054 C 0.56124 0.39612 0.72212 0.0
C1055 C 0.56277 0.36743 0.72191 0.0
C1056 C 0.57427 0.35848 0.73282 0.0
C1057 C 0.58418 0.37815 0.74397 0.0
H1058 H 0.55511 0.35217 0.71328 0.0
H1059 H 0.6697 0.54295 0.82093 0.0
H1060 H 0.52082 0.18548 0.74749 0.0
H1061 H 0.57439 0.18942 0.74874 0.0
H1062 H 0.57834 0.20873 0.79007 0.0
H1063 H 0.52497 0.20515 0.7888 0.0
H1064 H 0.63424 0.25145 0.77874 0.0
H1065 H 0.56601 0.13472 0.77756 0.0
H1066 H 0.52366 0.08212 0.76853 0.0
H1067 H 0.57816 0.10089 0.73301 0.0
H1068 H 0.62065 0.15374 0.74174 0.0
H1069 H 0.77488 0.24459 0.79468 0.0
H1070 H 0.71819 0.2314 0.79317 0.0
H1071 H 0.71697 0.20943 0.75223 0.0
H1072 H 0.77379 0.22186 0.75378 0.0
H1073 H 0.65974 0.16793 0.76271 0.0
H1074 H 0.7271 0.28363 0.76304 0.0
H1075 H 0.77008 0.3369 0.7712 0.0
H1076 H 0.71764 0.32179 0.80709 0.0
H1077 H 0.67456 0.26817 0.79922 0.0
C1078 C 0.53292 0.19011 0.75687 0.0
C1079 C 0.5186 0.19499 0.76804 0.0
C1080 C 0.56359 0.19232 0.7576 0.0
C1081 C 0.58063 0.19926 0.76953 0.0
C1082 C 0.56593 0.20344 0.78074 0.0
C1083 C 0.53529 0.20124 0.78001 0.0
C1084 C 0.61428 0.20369 0.77025 0.0
C1085 C 0.63962 0.23291 0.77542 0.0
C1086 C 0.62188 0.18013 0.7655 0.0
C1087 C 0.59636 0.14833 0.76026 0.0
C1088 C 0.56883 0.12774 0.76778 0.0
C1089 C 0.54483 0.09787 0.76273 0.0
C1090 C 0.54818 0.08824 0.7502 0.0
C1091 C 0.57558 0.10841 0.7427 0.0
C1092 C 0.59965 0.1383 0.7477 0.0
C1093 C 0.76253 0.23658 0.78536 0.0
C1094 C 0.77913 0.2345 0.77433 0.0
C1095 C 0.73003 0.22923 0.78449 0.0
C1096 C 0.71325 0.22013 0.77251 0.0
C1097 C 0.72927 0.21657 0.76159 0.0
C1098 C 0.76183 0.22366 0.76248 0.0
C1099 C 0.67956 0.2155 0.77136 0.0
C1100 C 0.6543 0.1864 0.76607 0.0
C1101 C 0.67204 0.23932 0.77587 0.0
C1102 C 0.69774 0.27172 0.78059 0.0
C1103 C 0.72483 0.29156 0.77271 0.0
C1104 C 0.74921 0.32184 0.77728 0.0
C1105 C 0.74663 0.33269 0.78967 0.0
C1106 C 0.71962 0.31333 0.7975 0.0
C1107 C 0.69521 0.283 0.79299 0.0
H1108 H 0.76553 0.35613 0.79319 0.0
H1109 H 0.52957 0.06511 0.74631 0.0
H1110 H 0.04356 0.24145 0.55188 0.0
H1111 H 0.09247 0.2361 0.55016 0.0
H1112 H 0.09428 0.22822 0.59207 0.0
H1113 H 0.04515 0.23299 0.59369 0.0
H1114 H 0.15707 0.26652 0.5813 0.0
H1115 H 0.06215 0.16089 0.57467 0.0
H1116 H 1.01002 0.12255 0.56409 0.0
H1117 H 0.05795 0.141 0.52693 0.0
H1118 H 0.11033 0.1798 0.53727 0.0
H1119 H 0.2597 0.19598 0.58629 0.0
H1120 H 0.21656 0.21004 0.58796 0.0
H1121 H 0.20115 0.19767 0.54633 0.0
H1122 H 0.24326 0.18251 0.54472 0.0
H1123 H 0.14523 0.1708 0.55687 0.0
H1124 H 0.24013 0.27543 0.56289 0.0
H1125 H 0.29226 0.31615 0.57277 0.0
H1126 H 0.24546 0.30254 0.60998 0.0
H1127 H 0.19311 0.26142 0.60035 0.0
C1128 C 0.05472 0.239 0.56068 0.0
C1129 C 0.04038 0.23741 0.57285 0.0
C1130 C 0.08261 0.23586 0.55973 0.0
C1131 C 0.09699 0.23134 0.57099 0.0
C1132 C 0.08372 0.23161 0.58324 0.0
C1133 C 0.05561 0.23437 0.58415 0.0
C1134 C 0.12454 0.22443 0.56998 0.0
C1135 C 0.15442 0.24542 0.57607 0.0
C1136 C 0.12143 0.19729 0.56293 0.0
C1137 C 0.09012 0.17342 0.55673 0.0
C1138 C 0.06155 0.15688 0.56423 0.0
C1139 C 0.03196 0.13505 0.55828 0.0
C1140 C 0.03068 0.12933 0.54485 0.0
C1141 C 0.059 0.1454 0.53734 0.0
C1142 C 0.08865 0.1673 0.54324 0.0
C1143 C 0.2474 0.19665 0.57747 0.0
C1144 C 0.25516 0.18817 0.56536 0.0
C1145 C 0.22266 0.2048 0.57842 0.0
C1146 C 0.20544 0.20533 0.56725 0.0
C1147 C 0.2137 0.19741 0.55514 0.0
C1148 C 0.23806 0.18888 0.55422 0.0
C1149 C 0.17824 0.21305 0.56815 0.0
C1150 C 0.14819 0.19207 0.56206 0.0
C1151 C 0.18135 0.24041 0.5751 0.0
C1152 C 0.21277 0.2651 0.58092 0.0
C1153 C 0.24101 0.28094 0.5732 0.0
C1154 C 0.27059 0.30412 0.57875 0.0
C1155 C 0.27219 0.31186 0.592 0.0
C1156 C 0.24419 0.29649 0.59972 0.0
C1157 C 0.21455 0.27326 0.59422 0.0
H1158 H 0.29511 0.32982 0.59628 0.0
H1159 H 1.00775 0.11245 0.54026 0.0
H1160 H 0.90381 0.86684 0.5503 0.0
H1161 H 0.91025 0.9215 0.54978 0.0
H1162 H 0.84987 0.89883 0.58401 0.0
H1163 H 0.84404 0.84433 0.58476 0.0
H1164 H 0.83584 0.93307 0.56444 0.0
H1165 H 0.92599 0.94101 0.588 0.0
H1166 H 0.97477 0.93697 0.59291 0.0
H1167 H 0.0252 1.00039 0.56077 0.0
H1168 H 0.97631 1.00391 0.55536 0.0
H1169 H 0.88386 0.10033 0.57968 0.0
H1170 H 0.87008 0.04302 0.58046 0.0
H1171 H 0.93888 0.06094 0.54959 0.0
H1172 H 0.95278 0.11777 0.5488 0.0
H1173 H 0.9471 0.02831 0.56874 0.0
H1174 H 0.85509 0.01767 0.54454 0.0
H1175 H 0.80716 0.02404 0.5407 0.0
H1176 H 0.76133 0.96777 0.57505 0.0
H1177 H 0.8092 0.96143 0.57919 0.0
C1178 C 0.89154 0.87332 0.55761 0.0
C1179 C 0.87336 0.85121 0.56756 0.0
C1180 C 0.89539 0.90467 0.55735 0.0
C1181 C 0.88076 0.91448 0.56691 0.0
C1182 C 0.86142 0.89191 0.57653 0.0
C1183 C 0.85807 0.86075 0.57694 0.0
C1184 C 0.88661 0.94856 0.56711 0.0
C1185 C 0.86014 0.95388 0.56552 0.0
C1186 C 0.91835 0.97588 0.56838 0.0
C1187 C 0.94722 0.97233 0.57115 0.0
C1188 C 0.94721 0.95356 0.5818 0.0
C1189 C 0.97494 0.95145 0.58471 0.0
C1190 C 1.00304 0.96839 0.57715 0.0
C1191 C 1.00339 0.98727 0.56661 0.0
C1192 C 0.97562 0.9892 0.56358 0.0
C1193 C 0.89576 0.09195 0.57296 0.0
C1194 C 0.91939 0.11381 0.56417 0.0
C1195 C 0.88781 0.0591 0.5734 0.0
C1196 C 0.90329 0.04739 0.56504 0.0
C1197 C 0.92655 0.06917 0.55616 0.0
C1198 C 0.93439 0.1018 0.5557 0.0
C1199 C 0.89648 1.01294 0.56576 0.0
C1200 C 0.9228 1.00752 0.56759 0.0
C1201 C 0.86466 0.98562 0.56473 0.0
C1202 C 0.83587 0.98938 0.56225 0.0
C1203 C 0.83491 1.00689 0.55133 0.0
C1204 C 0.80773 1.01045 0.54909 0.0
C1205 C 0.78126 0.9964 0.55764 0.0
C1206 C 0.78187 0.97869 0.56844 0.0
C1207 C 0.80901 0.97508 0.57074 0.0
H1208 H 0.76024 0.99918 0.55589 0.0
H1209 H 0.02458 0.96698 0.5795 0.0
H1210 H 0.24246 0.05045 0.59145 0.0
H1211 H 0.18981 1.00029 0.58996 0.0
H1212 H 0.19666 1.00418 0.54792 0.0
H1213 H 0.24907 0.05509 0.54941 0.0
H1214 H 0.13825 0.99006 0.55431 0.0
H1215 H 0.20568 0.94659 0.56736 0.0
H1216 H 0.24603 0.94133 0.58081 0.0
H1217 H 0.18392 0.91813 0.61432 0.0
H1218 H 0.14336 0.92368 0.60111 0.0
H1219 H 1.00097 0.83422 0.54383 0.0
H1220 H 0.05758 0.87811 0.54509 0.0
H1221 H 0.04955 0.88113 0.58695 0.0
H1222 H 0.9929 0.83649 0.58577 0.0
H1223 H 0.10889 0.89087 0.58029 0.0
H1224 H 0.03966 0.93175 0.56574 0.0
H1225 H 0.99931 0.93368 0.5511 0.0
H1226 H 0.06639 0.96132 0.5191 0.0
H1227 H 0.1066 0.95802 0.53338 0.0
C1228 C 0.233 0.04037 0.58189 0.0
C1229 C 0.25012 0.05672 0.57056 0.0
C1230 C 0.2028 1.01152 0.58103 0.0
C1231 C 0.18904 0.99788 0.56882 0.0
C1232 C 0.20649 0.01396 0.55748 0.0
C1233 C 0.23663 0.04301 0.55833 0.0
C1234 C 0.15597 0.96776 0.56789 0.0
C1235 C 0.1321 0.96821 0.55984 0.0
C1236 C 0.14731 0.93924 0.57529 0.0
C1237 C 0.17162 0.93586 0.58327 0.0
C1238 C 0.20073 0.94061 0.57762 0.0
C1239 C 0.22362 0.93754 0.5852 0.0
C1240 C 0.21758 0.92948 0.59842 0.0
C1241 C 0.18858 0.92441 0.60408 0.0
C1242 C 0.16562 0.92748 0.59655 0.0
C1243 C 1.01129 0.84387 0.55335 0.0
C1244 C 0.99213 0.83183 0.5647 0.0
C1245 C 0.04375 0.86918 0.55405 0.0
C1246 C 0.05789 0.88365 0.56609 0.0
C1247 C 0.03933 0.87064 0.57752 0.0
C1248 C 1.00685 0.84503 0.57683 0.0
C1249 C 0.09133 0.91318 0.56668 0.0
C1250 C 0.11516 0.91268 0.57472 0.0
C1251 C 0.10005 0.94154 0.55915 0.0
C1252 C 0.0761 0.94435 0.55064 0.0
C1253 C 0.04577 0.93802 0.55557 0.0
C1254 C 0.02288 0.9393 0.54732 0.0
C1255 C 0.03035 0.94777 0.5342 0.0
C1256 C 0.06065 0.95478 0.52927 0.0
C1257 C 0.08344 0.95305 0.53743 0.0
H1258 H 1.01263 0.94888 0.52785 0.0
H1259 H 0.23533 0.92711 0.60427 0.0
H1260 H 0.48164 0.9881 0.05636 0.0
H1261 H 0.48149 0.98812 0.03257 0.0
H1262 H 0.54264 0.09258 0.03246 0.0
H1263 H 0.54246 0.09297 0.05633 0.0
H1264 H 0.49699 0.07551 0.0146 0.0
H1265 H 0.57246 0.03963 0.02542 0.0
H1266 H 0.59119 1.00538 0.03623 0.0
H1267 H 0.51572 0.92066 0.01697 0.0
H1268 H 0.49626 0.95435 0.00618 0.0
H1269 H 0.54375 0.09198 0.94786 0.0
H1270 H 0.54319 0.0916 0.97165 0.0
H1271 H 0.47921 0.98758 0.97147 0.0
H1272 H 0.47993 0.98748 0.9476 0.0
H1273 H 0.52609 1.00426 0.98942 0.0
H1274 H 0.45111 0.04085 0.97845 0.0
H1275 H 0.43312 0.07563 0.96759 0.0
H1276 H 0.50876 0.15976 0.98709 0.0
H1277 H 0.52749 0.12553 0.99794 0.0
C1278 C 0.49523 1.01119 0.05136 0.0
C1279 C 0.51221 0.04055 0.05845 0.0
C1280 C 0.4952 1.01111 0.03766 0.0
C1281 C 0.51246 0.0403 0.0306 0.0
C1282 C 0.52914 0.06967 0.03761 0.0
C1283 C 0.52906 0.06982 0.05133 0.0
C1284 C 0.51283 0.04019 0.01594 0.0
C1285 C 0.50382 0.06024 0.00912 0.0
C1286 C 0.52098 0.01978 0.00866 0.0
C1287 C 0.53271 0.99947 0.01509 0.0
C1288 C 0.55971 0.01366 0.02356 0.0
C1289 C 0.57048 0.99435 0.02967 0.0
C1290 C 0.5546 0.96085 0.02731 0.0
C1291 C 0.52797 0.9466 0.01881 0.0
C1292 C 0.51708 0.9658 0.01268 0.0
C1293 C 0.52944 0.06889 0.95279 0.0
C1294 C 0.51178 0.03975 0.94561 0.0
C1295 C 0.52904 0.06878 0.96648 0.0
C1296 C 0.51083 0.03963 0.97346 0.0
C1297 C 0.49342 1.01046 0.96637 0.0
C1298 C 0.49377 1.0105 0.95265 0.0
C1299 C 0.51027 0.03957 0.9881 0.0
C1300 C 0.51925 0.0195 0.99491 0.0
C1301 C 0.50221 0.06005 0.99537 0.0
C1302 C 0.49089 0.08066 0.98891 0.0
C1303 C 0.46406 0.0668 0.98035 0.0
C1304 C 0.4537 0.08641 0.97421 0.0
C1305 C 0.46984 0.1199 0.97662 0.0
C1306 C 0.49631 0.13383 0.98521 0.0
C1307 C 0.50679 0.11433 0.99137 0.0
H1308 H 0.46179 0.13504 0.97186 0.0
H1309 H 0.56298 0.94595 0.03206 0.0
H1310 H 0.99362 0.4759 0.94849 0.0
H1311 H 0.99412 0.47567 0.97224 0.0
H1312 H 0.09913 0.52796 0.97214 0.0
H1313 H 0.09902 0.52791 0.94824 0.0
H1314 H 0.07753 0.48131 0.98998 0.0
H1315 H 0.05375 0.56572 0.9794 0.0
H1316 H 0.02427 0.59001 0.96869 0.0
H1317 H 0.93586 0.52102 0.98786 0.0
H1318 H 0.96473 0.49602 0.99855 0.0
H1319 H 0.10039 0.5297 0.05641 0.0
H1320 H 0.0989 0.52863 0.03267 0.0
H1321 H 0.99399 0.47335 0.03346 0.0
H1322 H 0.99503 0.47458 0.05737 0.0
H1323 H 1.01499 0.52095 0.01533 0.0
H1324 H 0.03944 0.43707 0.02613 0.0
H1325 H 0.06947 0.41347 0.03693 0.0
H1326 H 0.15732 0.48238 0.0174 0.0
H1327 H 0.1279 0.5067 0.00662 0.0
C1328 C 1.01698 0.48753 0.95342 0.0
C1329 C 0.04632 0.50212 0.94626 0.0
C1330 C 1.01716 0.48745 0.96711 0.0
C1331 C 0.04664 0.50226 0.9741 0.0
C1332 C 0.076 0.51644 0.96703 0.0
C1333 C 0.07588 0.51643 0.9533 0.0
C1334 C 0.04674 0.50264 0.98874 0.0
C1335 C 0.06422 0.49043 0.9955 0.0
C1336 C 0.02875 0.51375 0.99606 0.0
C1337 C 1.01134 0.52879 0.98968 0.0
C1338 C 0.02797 0.55557 0.98126 0.0
C1339 C 1.01138 0.56949 0.9752 0.0
C1340 C 0.97819 0.55701 0.97757 0.0
C1341 C 0.96155 0.53063 0.98602 0.0
C1342 C 0.97802 0.51659 0.99209 0.0
C1343 C 0.07683 0.51721 0.05165 0.0
C1344 C 0.04779 0.50213 0.05901 0.0
C1345 C 0.07609 0.51651 0.03797 0.0
C1346 C 0.04637 0.50054 0.03118 0.0
C1347 C 1.01728 0.48576 0.03843 0.0
C1348 C 1.01796 0.4864 0.05216 0.0
C1349 C 0.04581 0.49967 0.01655 0.0
C1350 C 0.02826 0.5118 0.0098 0.0
C1351 C 0.06381 0.48858 0.00924 0.0
C1352 C 0.08152 0.4739 0.01566 0.0
C1353 C 0.06522 0.44735 0.02422 0.0
C1354 C 0.08212 0.43382 0.03032 0.0
C1355 C 0.1153 0.44647 0.02788 0.0
C1356 C 0.13162 0.47263 0.0193 0.0
C1357 C 0.11484 0.48628 0.01318 0.0
H1358 H 0.12834 0.43596 0.03262 0.0
H1359 H 0.96539 0.56783 0.97287 0.0
H1360 H 0.55284 0.59817 0.94664 0.0
H1361 H 0.55291 0.59879 0.97047 0.0
H1362 H 0.6056 0.54641 0.97103 0.0
H1363 H 0.60526 0.54512 0.94722 0.0
H1364 H 0.55931 0.52195 0.98885 0.0
H1365 H 0.64314 0.62973 0.97748 0.0
H1366 H 0.66674 0.68295 0.96643 0.0
H1367 H 0.59798 0.70269 0.98572 0.0
H1368 H 0.57367 0.64937 0.99675 0.0
H1369 H 0.60822 0.55011 0.05559 0.0
H1370 H 0.60781 0.54959 0.03175 0.0
H1371 H 0.55241 0.59921 0.0315 0.0
H1372 H 0.55298 0.60031 0.05533 0.0
H1373 H 0.59987 0.62509 0.01358 0.0
H1374 H 0.51638 0.51707 0.02506 0.0
H1375 H 0.49345 0.46403 0.0362 0.0
H1376 H 0.56245 0.44493 0.01675 0.0
H1377 H 0.58609 0.49809 0.00562 0.0
C1378 C 0.56454 0.58677 0.95176 0.0
C1379 C 0.57915 0.57169 0.94481 0.0
C1380 C 0.56466 0.58728 0.96547 0.0
C1381 C 0.57964 0.57302 0.97265 0.0
C1382 C 0.59389 0.55763 0.96578 0.0
C1383 C 0.59371 0.55701 0.95208 0.0
C1384 C 0.58033 0.57393 0.98729 0.0
C1385 C 0.5686 0.54459 0.99423 0.0
C1386 C 0.59176 0.60331 0.99443 0.0
C1387 C 0.60638 0.63542 0.98784 0.0
C1388 C 0.63289 0.64532 0.97929 0.0
C1389 C 0.64642 0.67552 0.97304 0.0
C1390 C 0.63381 0.69615 0.97534 0.0
C1391 C 0.60769 0.68666 0.98393 0.0
C1392 C 0.59405 0.65646 0.99019 0.0
C1393 C 0.59592 0.56099 0.05054 0.0
C1394 C 0.58054 0.57516 0.05757 0.0
C1395 C 0.59558 0.56051 0.03683 0.0
C1396 C 0.57975 0.57402 0.02974 0.0
C1397 C 0.56475 0.58855 0.03669 0.0
C1398 C 0.56502 0.58902 0.05039 0.0
C1399 C 0.57889 0.57313 0.01512 0.0
C1400 C 0.59057 0.60245 0.00818 0.0
C1401 C 0.5675 0.54376 0.00798 0.0
C1402 C 0.55321 0.5117 0.0146 0.0
C1403 C 0.52682 0.50167 0.02323 0.0
C1404 C 0.51367 0.47156 0.02953 0.0
C1405 C 0.52655 0.45116 0.02721 0.0
C1406 C 0.55254 0.46078 0.01855 0.0
C1407 C 0.5658 0.49088 0.01223 0.0
H1408 H 0.51634 0.42786 0.0321 0.0
H1409 H 0.64432 0.71952 0.9705 0.0
H1410 H 0.20782 0.4252 0.39172 0.0
H1411 H 0.20828 0.42728 0.36785 0.0
H1412 H 0.15522 0.32239 0.36623 0.0
H1413 H 0.15511 0.31995 0.38996 0.0
H1414 H 0.2011 0.34411 0.34862 0.0
H1415 H 0.11862 0.37019 0.36045 0.0
H1416 H 0.09631 0.40071 0.37178 0.0
H1417 H 0.16657 0.48878 0.35278 0.0
H1418 H 0.18957 0.45885 0.34145 0.0
H1419 H 0.15297 0.32618 0.28165 0.0
H1420 H 0.15297 0.3249 0.30552 0.0
H1421 H 0.20837 0.42976 0.30659 0.0
H1422 H 0.20815 0.43146 0.28283 0.0
H1423 H 0.16177 0.40853 0.32443 0.0
H1424 H 0.24388 0.3821 0.31247 0.0
H1425 H 0.26582 0.35134 0.30108 0.0
H1426 H 0.19574 0.26355 0.32029 0.0
H1427 H 0.17309 0.29372 0.33168 0.0
C1428 C 0.19617 0.4025 0.38633 0.0
C1429 C 0.18141 0.37241 0.39296 0.0
C1430 C 0.19635 0.40375 0.37261 0.0
C1431 C 0.18145 0.37497 0.36512 0.0
C1432 C 0.16695 0.34499 0.37169 0.0
C1433 C 0.16689 0.34369 0.38537 0.0
C1434 C 0.18097 0.37586 0.35047 0.0
C1435 C 0.19209 0.3579 0.34336 0.0
C1436 C 0.16991 0.39433 0.34347 0.0
C1437 C 0.15602 0.41234 0.35021 0.0
C1438 C 0.12946 0.39611 0.35876 0.0
C1439 C 0.11666 0.41329 0.36517 0.0
C1440 C 0.13007 0.44668 0.36303 0.0
C1441 C 0.15624 0.46293 0.35444 0.0
C1442 C 0.16915 0.44587 0.34802 0.0
C1443 C 0.16519 0.34905 0.2869 0.0
C1444 C 0.18066 0.37891 0.28011 0.0
C1445 C 0.16528 0.34826 0.30063 0.0
C1446 C 0.181 0.37724 0.30796 0.0
C1447 C 0.19607 0.40702 0.30123 0.0
C1448 C 0.196 0.40788 0.28755 0.0
C1449 C 0.18179 0.3767 0.3226 0.0
C1450 C 0.17076 0.39474 0.3297 0.0
C1451 C 0.19288 0.35826 0.3296 0.0
C1452 C 0.20659 0.34011 0.32283 0.0
C1453 C 0.233 0.35619 0.3142 0.0
C1454 C 0.24559 0.33887 0.30775 0.0
C1455 C 0.23213 0.3055 0.30993 0.0
C1456 C 0.20611 0.28939 0.3186 0.0
C1457 C 0.19341 0.3066 0.32506 0.0
H1458 H 0.2419 0.29213 0.30493 0.0
H1459 H 0.12014 0.45994 0.368 0.0
H1460 H 0.76778 0.85844 0.39002 0.0
H1461 H 0.76783 0.85932 0.3663 0.0
H1462 H 0.66348 0.81751 0.36609 0.0
H1463 H 0.66299 0.8159 0.39001 0.0
H1464 H 0.68085 0.7895 0.34785 0.0
H1465 H 0.71712 0.9003 0.35975 0.0
H1466 H 0.75146 0.95228 0.3712 0.0
H1467 H 0.83647 0.96183 0.35212 0.0
H1468 H 0.80267 0.90966 0.34068 0.0
H1469 H 0.6646 0.82311 0.28203 0.0
H1470 H 0.66584 0.82268 0.30571 0.0
H1471 H 0.76974 0.86147 0.30501 0.0
H1472 H 0.76899 0.86252 0.28108 0.0
H1473 H 0.75333 0.89106 0.32365 0.0
H1474 H 0.71689 0.78048 0.31161 0.0
H1475 H 0.68249 0.72847 0.3002 0.0
H1476 H 0.59769 0.71861 0.31957 0.0
H1477 H 0.63153 0.77081 0.33098 0.0
C1478 C 0.7447 0.84951 0.38503 0.0
C1479 C 0.71536 0.83732 0.39211 0.0
C1480 C 0.74484 0.85016 0.37136 0.0
C1481 C 0.71576 0.83908 0.3643 0.0
C1482 C 0.68632 0.82637 0.37127 0.0
C1483 C 0.68609 0.8255 0.385 0.0
C1484 C 0.71619 0.84047 0.34967 0.0
C1485 C 0.69635 0.81185 0.34258 0.0
C1486 C 0.73705 0.86937 0.34269 0.0
C1487 C 0.75739 0.90092 0.34945 0.0
C1488 C 0.74316 0.91338 0.35806 0.0
C1489 C 0.76253 0.94289 0.36454 0.0
C1490 C 0.79614 0.9603 0.36241 0.0
C1491 C 0.81043 0.94829 0.35377 0.0
C1492 C 0.79118 0.91877 0.34727 0.0
C1493 C 0.6879 0.8316 0.28678 0.0
C1494 C 0.71673 0.84269 0.27942 0.0
C1495 C 0.68847 0.83117 0.30044 0.0
C1496 C 0.71777 0.84151 0.30724 0.0
C1497 C 0.74674 0.8532 0.30002 0.0
C1498 C 0.74624 0.8537 0.28629 0.0
C1499 C 0.7179 0.84013 0.32186 0.0
C1500 C 0.73784 0.86872 0.32893 0.0
C1501 C 0.69712 0.81121 0.32884 0.0
C1502 C 0.67672 0.77971 0.32206 0.0
C1503 C 0.69088 0.76734 0.31337 0.0
C1504 C 0.67148 0.73781 0.30691 0.0
C1505 C 0.63792 0.72029 0.30913 0.0
C1506 C 0.62369 0.73223 0.31785 0.0
C1507 C 0.64297 0.76176 0.32432 0.0
H1508 H 0.62294 0.69744 0.30412 0.0
H1509 H 0.8111 0.98313 0.36745 0.0
H1510 H 0.22634 0.93614 0.28254 0.0
H1511 H 0.22506 0.93623 0.30641 0.0
H1512 H 0.28121 0.88741 0.30755 0.0
H1513 H 0.28226 0.88669 0.28379 0.0
H1514 H 0.23379 0.86051 0.32472 0.0
H1515 H 0.31509 0.97048 0.31438 0.0
H1516 H 0.33687 0.02399 0.30372 0.0
H1517 H 0.26422 0.03838 0.32269 0.0
H1518 H 0.24173 0.98473 0.33334 0.0
H1519 H 0.27882 0.88573 0.39184 0.0
H1520 H 0.27985 0.88684 0.368 0.0
H1521 H 0.22224 0.93413 0.36781 0.0
H1522 H 0.22142 0.93368 0.39162 0.0
H1523 H 0.26956 0.96182 0.3502 0.0
H1524 H 0.18866 0.8521 0.36071 0.0
H1525 H 0.16712 0.79874 0.37148 0.0
H1526 H 0.23913 0.78393 0.35219 0.0
H1527 H 0.2614 0.83744 0.34143 0.0
C1528 C 0.23856 0.92548 0.28782 0.0
C1529 C 0.25447 0.91147 0.28105 0.0
C1530 C 0.23788 0.92566 0.30154 0.0
C1531 C 0.25333 0.91212 0.30889 0.0
C1532 C 0.26905 0.898 0.30218 0.0
C1533 C 0.26967 0.89771 0.2885 0.0
C1534 C 0.25298 0.9123 0.32354 0.0
C1535 C 0.24203 0.88278 0.33026 0.0
C1536 C 0.26297 0.94113 0.3309 0.0
C1537 C 0.27653 0.97345 0.32455 0.0
C1538 C 0.30361 0.98495 0.3162 0.0
C1539 C 0.3161 0.01532 0.31017 0.0
C1540 C 0.30188 0.03453 0.31249 0.0
C1541 C 0.27518 0.02345 0.32088 0.0
C1542 C 0.26257 0.99307 0.32693 0.0
C1543 C 0.26634 0.89645 0.3868 0.0
C1544 C 0.24992 0.90949 0.39385 0.0
C1545 C 0.26685 0.89691 0.37309 0.0
C1546 C 0.25078 0.91021 0.36601 0.0
C1547 C 0.23481 0.92368 0.37298 0.0
C1548 C 0.23429 0.92326 0.38668 0.0
C1549 C 0.25052 0.91006 0.35136 0.0
C1550 C 0.26132 0.93957 0.34465 0.0
C1551 C 0.2404 0.88122 0.34401 0.0
C1552 C 0.22689 0.84892 0.35037 0.0
C1553 C 0.20004 0.83756 0.35884 0.0
C1554 C 0.18768 0.80728 0.36493 0.0
C1555 C 0.2018 0.788 0.36255 0.0
C1556 C 0.22825 0.79892 0.35404 0.0
C1557 C 0.24073 0.82921 0.34793 0.0
H1558 H 0.19221 0.76456 0.36728 0.0
H1559 H 0.31158 0.05804 0.30781 0.0
H1560 H 0.877 0.76198 0.72376 0.0
H1561 H 0.87881 0.76424 0.69989 0.0
H1562 H 0.81422 0.66036 0.69809 0.0
H1563 H 0.81281 0.6577 0.72183 0.0
H1564 H 0.8601 0.67638 0.68091 0.0
H1565 H 0.78859 0.7175 0.69181 0.0
H1566 H 0.7727 0.75372 0.70284 0.0
H1567 H 0.85184 0.8368 0.68432 0.0
H1568 H 0.86845 0.80108 0.6733 0.0
H1569 H 0.8177 0.66516 0.6136 0.0
H1570 H 0.81578 0.66375 0.63744 0.0
H1571 H 0.88244 0.76723 0.63878 0.0
H1572 H 0.88409 0.76914 0.61502 0.0
H1573 H 0.83592 0.75177 0.65614 0.0
H1574 H 0.90696 0.71012 0.6451 0.0
H1575 H 0.92208 0.67349 0.63389 0.0
H1576 H 0.84296 0.59088 0.65265 0.0
H1577 H 0.8271 0.62699 0.66383 0.0
C1578 C 0.86307 0.73958 0.71832 0.0
C1579 C 0.84475 0.70967 0.72487 0.0
C1580 C 0.86404 0.74093 0.70461 0.0
C1581 C 0.84634 0.71251 0.69708 0.0
C1582 C 0.82818 0.68267 0.70359 0.0
C1583 C 0.82739 0.68124 0.71726 0.0
C1584 C 0.84678 0.71358 0.68244 0.0
C1585 C 0.8544 0.69261 0.67552 0.0
C1586 C 0.84003 0.73516 0.67529 0.0
C1587 C 0.82995 0.75665 0.68183 0.0
C1588 C 0.80273 0.74351 0.69016 0.0
C1589 C 0.79357 0.76395 0.6964 0.0
C1590 C 0.8113 0.79755 0.69431 0.0
C1591 C 0.83816 0.81077 0.68594 0.0
C1592 C 0.84744 0.79044 0.67969 0.0
C1593 C 0.83199 0.68771 0.61891 0.0
C1594 C 0.85114 0.71725 0.61221 0.0
C1595 C 0.83096 0.68681 0.63261 0.0
C1596 C 0.84932 0.71532 0.64001 0.0
C1597 C 0.86805 0.74486 0.63337 0.0
C1598 C 0.869 0.74583 0.61969 0.0
C1599 C 0.84915 0.71452 0.65463 0.0
C1600 C 0.84162 0.73555 0.66154 0.0
C1601 C 0.8559 0.69294 0.66178 0.0
C1602 C 0.86567 0.67123 0.65521 0.0
C1603 C 0.89267 0.68412 0.64677 0.0
C1604 C 0.90138 0.66345 0.64043 0.0
C1605 C 0.88344 0.62987 0.64253 0.0
C1606 C 0.85681 0.61689 0.65102 0.0
C1607 C 0.84797 0.63745 0.65737 0.0
H1608 H 0.89019 0.61391 0.6376 0.0
H1609 H 0.80418 0.81333 0.69916 0.0
H1610 H 0.43535 0.20576 0.61431 0.0
H1611 H 0.43572 0.20603 0.63819 0.0
H1612 H 0.33142 0.14332 0.6385 0.0
H1613 H 0.33065 0.1434 0.61472 0.0
H1614 H 0.347 0.18836 0.65614 0.0
H1615 H 0.38665 0.11559 0.64552 0.0
H1616 H 0.42277 0.09897 0.63488 0.0
H1617 H 0.50549 0.1761 0.65452 0.0
H1618 H 0.4699 0.19343 0.66516 0.0
H1619 H 0.331 0.14341 0.72342 0.0
H1620 H 0.33078 0.14267 0.69956 0.0
H1621 H 0.43475 0.20731 0.69927 0.0
H1622 H 0.43544 0.20781 0.72304 0.0
H1623 H 0.41933 0.16127 0.68167 0.0
H1624 H 0.37934 0.2338 0.69235 0.0
H1625 H 0.34295 0.24985 0.70314 0.0
H1626 H 0.26048 0.17257 0.68344 0.0
H1627 H 0.29634 0.15579 0.67266 0.0
C1628 C 0.41244 0.19187 0.61941 0.0
C1629 C 0.38299 0.17453 0.61241 0.0
C1630 C 0.41271 0.19197 0.63315 0.0
C1631 C 0.38362 0.17439 0.64028 0.0
C1632 C 0.35424 0.15716 0.63332 0.0
C1633 C 0.3539 0.1572 0.61963 0.0
C1634 C 0.38356 0.17408 0.65496 0.0
C1635 C 0.36255 0.182 0.66169 0.0
C1636 C 0.40424 0.16649 0.66235 0.0
C1637 C 0.42566 0.156 0.65603 0.0
C1638 C 0.41258 0.12914 0.6475 0.0
C1639 C 0.43294 0.11957 0.64148 0.0
C1640 C 0.46641 0.13652 0.644 0.0
C1641 C 0.47957 0.16302 0.65257 0.0
C1642 C 0.45931 0.17271 0.6586 0.0
C1643 C 0.3539 0.15754 0.71835 0.0
C1644 C 0.38321 0.17574 0.72537 0.0
C1645 C 0.3537 0.15719 0.70462 0.0
C1646 C 0.38272 0.17525 0.69749 0.0
C1647 C 0.41199 0.19314 0.70445 0.0
C1648 C 0.41226 0.19346 0.71815 0.0
C1649 C 0.38276 0.17552 0.68283 0.0
C1650 C 0.40378 0.16761 0.67611 0.0
C1651 C 0.36205 0.18307 0.67545 0.0
C1652 C 0.34049 0.19335 0.6818 0.0
C1653 C 0.35342 0.2201 0.69039 0.0
C1654 C 0.33289 0.22935 0.69649 0.0
C1655 C 0.29941 0.21218 0.69401 0.0
C1656 C 0.28641 0.18582 0.68537 0.0
C1657 C 0.30683 0.17644 0.67925 0.0
H1658 H 0.28356 0.21936 0.69875 0.0
H1659 H 0.48214 0.12908 0.63932 0.0
H1660 H 0.94459 0.22063 0.61552 0.0
H1661 H 0.94499 0.2217 0.63925 0.0
H1662 H 0.89788 0.27946 0.63891 0.0
H1663 H 0.89771 0.27901 0.615 0.0
H1664 H 0.94548 0.30262 0.6567 0.0
H1665 H 0.85593 0.19697 0.64647 0.0
H1666 H 0.82831 0.14296 0.63593 0.0
H1667 H 0.89344 0.1179 0.65514 0.0
H1668 H 0.92174 0.17195 0.66567 0.0
H1669 H 0.89626 0.28067 0.72291 0.0
H1670 H 0.89837 0.28036 0.6992 0.0
H1671 H 0.94737 0.22444 0.70071 0.0
H1672 H 0.94499 0.22412 0.72464 0.0
H1673 H 0.89991 0.20042 0.68238 0.0
H1674 H 0.98875 0.306 0.69298 0.0
H1675 H 1.01582 0.3599 0.70361 0.0
H1676 H 0.95148 0.38502 0.68377 0.0
H1677 H 0.92372 0.33107 0.67315 0.0
C1678 C 0.93413 0.23355 0.62038 0.0
C1679 C 0.92093 0.2496 0.61314 0.0
C1680 C 0.9343 0.23401 0.63406 0.0
C1681 C 0.92104 0.25025 0.64099 0.0
C1682 C 0.9082 0.26665 0.63385 0.0
C1683 C 0.90806 0.26629 0.62012 0.0
C1684 C 0.92092 0.2503 0.65563 0.0
C1685 C 0.93509 0.28022 0.6623 0.0
C1686 C 0.90818 0.22118 0.66304 0.0
C1687 C 0.89115 0.18863 0.65675 0.0
C1688 C 0.86452 0.18003 0.64837 0.0
C1689 C 0.84872 0.1494 0.64241 0.0
C1690 C 0.85917 0.12705 0.64483 0.0
C1691 C 0.8854 0.13526 0.65326 0.0
C1692 C 0.90131 0.16588 0.65923 0.0
C1693 C 0.90762 0.26826 0.71831 0.0
C1694 C 0.9205 0.25241 0.72588 0.0
C1695 C 0.90895 0.26831 0.70465 0.0
C1696 C 0.92337 0.25273 0.69807 0.0
C1697 C 0.93617 0.23675 0.70552 0.0
C1698 C 0.93491 0.23671 0.71925 0.0
C1699 C 0.9244 0.25272 0.68344 0.0
C1700 C 0.91039 0.22281 0.67678 0.0
C1701 C 0.93722 0.28184 0.67604 0.0
C1702 C 0.95396 0.31437 0.68236 0.0
C1703 C 0.98021 0.32292 0.69096 0.0
C1704 C 0.99571 0.3535 0.69697 0.0
C1705 C 0.98533 0.37584 0.69439 0.0
C1706 C 0.95948 0.36768 0.68577 0.0
C1707 C 0.94387 0.33711 0.67974 0.0
H1708 H 0.99735 0.3995 0.69905 0.0
H1709 H 0.8469 0.10334 0.64021 0.0
H1710 H 0.32798 0.94356 0.22483 0.0
H1711 H 0.36614 0.95508 0.20673 0.0
H1712 H 0.29031 0.9394 0.17932 0.0
H1713 H 0.25177 0.92519 0.19741 0.0
H1714 H 0.32409 0.91828 0.16839 0.0
H1715 H 0.35268 0.01821 0.19073 0.0
H1716 H 0.36847 0.05538 0.20962 0.0
H1717 H 0.45539 0.04946 0.21464 0.0
H1718 H 0.4399 1.01195 0.19585 0.0
H1719 H 0.4501 0.05673 0.12564 0.0
H1720 H 0.41131 0.03274 0.14352 0.0
H1721 H 0.43662 0.95765 0.14773 0.0
H1722 H 0.47742 0.98294 0.13023 0.0
H1723 H 0.4294 0.02188 0.17022 0.0
H1724 H 0.3467 0.88622 0.15469 0.0
H1725 H 0.32173 0.8529 0.13499 0.0
H1726 H 0.33608 0.93764 0.11417 0.0
H1727 H 0.35996 0.97121 0.13383 0.0
C1728 C 0.31915 0.94086 0.2149 0.0
C1729 C 0.28651 0.93178 0.21251 0.0
C1730 C 0.34121 0.9484 0.20452 0.0
C1731 C 0.33147 0.94852 0.1915 0.0
C1732 C 0.29867 0.9393 0.18917 0.0
C1733 C 0.27658 0.93122 0.19953 0.0
C1734 C 0.35542 0.95963 0.18037 0.0
C1735 C 0.34728 0.94076 0.16889 0.0
C1736 C 0.38553 0.98938 0.18074 0.0
C1737 C 0.39497 1.01204 0.19198 0.0
C1738 C 0.37506 0.0247 0.19591 0.0
C1739 C 0.38396 0.04584 0.20659 0.0
C1740 C 0.41287 0.0547 0.21335 0.0
C1741 C 0.43298 0.04253 0.20941 0.0
C1742 C 0.42417 0.02135 0.19874 0.0
C1743 C 0.44746 0.03498 0.13026 0.0
C1744 C 0.46669 0.02151 0.12625 0.0
C1745 C 0.42515 0.02129 0.14053 0.0
C1746 C 0.42077 0.99324 0.14695 0.0
C1747 C 0.43926 0.97908 0.14283 0.0
C1748 C 0.46233 0.99335 0.13271 0.0
C1749 C 0.39816 0.9803 0.15838 0.0
C1750 C 0.40657 0.99897 0.16988 0.0
C1751 C 0.36789 0.9509 0.15786 0.0
C1752 C 0.35582 0.9314 0.14569 0.0
C1753 C 0.34473 0.8978 0.14588 0.0
C1754 C 0.33051 0.87881 0.13475 0.0
C1755 C 0.32731 0.89317 0.12335 0.0
C1756 C 0.33865 0.92659 0.123 0.0
C1757 C 0.35261 0.94562 0.13414 0.0
H1758 H 0.31591 0.8784 0.1148 0.0
H1759 H 0.41972 0.07107 0.22162 0.0
H1760 H 0.0369 0.43142 0.12636 0.0
H1761 H 0.06388 0.42203 0.14481 0.0
H1762 H 0.13386 0.52455 0.14658 0.0
H1763 H 0.10592 0.53443 0.12828 0.0
H1764 H 0.156 0.46926 0.14894 0.0
H1765 H 0.09075 0.51169 0.16781 0.0
H1766 H 0.04032 0.51441 0.17001 0.0
H1767 H 0.98742 0.41315 0.18037 0.0
H1768 H 0.03747 0.40973 0.17802 0.0
H1769 H 0.20839 0.43583 0.21035 0.0
H1770 H 0.19626 0.46368 0.1928 0.0
H1771 H 0.09477 0.38951 0.1945 0.0
H1772 H 0.10648 0.36338 0.21245 0.0
H1773 H 0.09535 0.44151 0.19078 0.0
H1774 H 0.15557 0.39556 0.17043 0.0
H1775 H 0.2028 0.38803 0.16661 0.0
H1776 H 0.26215 0.48968 0.15766 0.0
H1777 H 0.21536 0.49789 0.16162 0.0
C1778 C 0.05829 0.45203 0.13052 0.0
C1779 C 0.06954 0.48366 0.12565 0.0
C1780 C 0.07372 0.44656 0.14109 0.0
C1781 C 0.10097 0.4725 0.14707 0.0
C1782 C 0.11303 0.5041 0.14204 0.0
C1783 C 0.09715 0.5097 0.13154 0.0
C1784 C 0.11492 0.46623 0.1591 0.0
C1785 C 0.14324 0.46387 0.1582 0.0
C1786 C 0.09781 0.45834 0.17107 0.0
C1787 C 0.06778 0.46041 0.17262 0.0
C1788 C 0.0683 0.48995 0.17044 0.0
C1789 C 0.0398 0.49162 0.17174 0.0
C1790 C 1.01066 0.46395 0.1753 0.0
C1791 C 1.00999 0.43456 0.1776 0.0
C1792 C 0.03843 0.43275 0.1763 0.0
C1793 C 0.1834 0.42608 0.20719 0.0
C1794 C 0.15833 0.39781 0.21306 0.0
C1795 C 0.1765 0.44169 0.19697 0.0
C1796 C 0.14451 0.42868 0.19206 0.0
C1797 C 0.11962 0.40047 0.19802 0.0
C1798 C 0.12639 0.38536 0.20833 0.0
C1799 C 0.13633 0.44359 0.1807 0.0
C1800 C 0.10878 0.44744 0.18167 0.0
C1801 C 0.15393 0.45229 0.16874 0.0
C1802 C 0.18211 0.44742 0.16652 0.0
C1803 C 0.17878 0.41636 0.16778 0.0
C1804 C 0.20545 0.41196 0.16556 0.0
C1805 C 0.2355 0.43839 0.16195 0.0
C1806 C 0.2389 0.46926 0.16051 0.0
C1807 C 0.21232 0.4738 0.16274 0.0
H1808 H 0.2561 0.43493 0.16022 0.0
H1809 H 0.98862 0.4653 0.1763 0.0
H1810 H 0.67188 0.76149 0.22554 0.0
H1811 H 0.64438 0.72171 0.20796 0.0
H1812 H 0.69844 0.79664 0.17943 0.0
H1813 H 0.72328 0.83661 0.19698 0.0
H1814 H 0.64448 0.76114 0.1693 0.0
H1815 H 0.71944 0.73641 0.19093 0.0
H1816 H 0.74334 0.72251 0.20954 0.0
H1817 H 0.65252 0.63431 0.21575 0.0
H1818 H 0.62799 0.6479 0.19725 0.0
H1819 H 0.65695 0.63049 0.12831 0.0
H1820 H 0.67181 0.66828 0.14655 0.0
H1821 H 0.57501 0.65513 0.14687 0.0
H1822 H 0.55932 0.61577 0.12882 0.0
H1823 H 0.64639 0.65762 0.17139 0.0
H1824 H 0.59038 0.73796 0.15538 0.0
H1825 H 0.58182 0.76206 0.1355 0.0
H1826 H 0.65327 0.74828 0.11518 0.0
H1827 H 0.66297 0.725 0.13503 0.0
C1828 C 0.67648 0.76965 0.21549 0.0
C1829 C 0.69837 0.80246 0.21262 0.0
C1830 C 0.66148 0.74672 0.2054 0.0
C1831 C 0.66943 0.75578 0.19221 0.0
C1832 C 0.69138 0.78873 0.18941 0.0
C1833 C 0.70568 0.81167 0.19947 0.0
C1834 C 0.65634 0.73115 0.1813 0.0
C1835 C 0.64457 0.73833 0.16987 0.0
C1836 C 0.65712 0.70159 0.18172 0.0
C1837 C 0.6718 0.69334 0.19281 0.0
C1838 C 0.70453 0.71416 0.19632 0.0
C1839 C 0.71819 0.70632 0.20684 0.0
C1840 C 0.69943 0.6776 0.21385 0.0
C1841 C 0.667 0.65659 0.21033 0.0
C1842 C 0.65321 0.66433 0.19982 0.0
C1843 C 0.63862 0.63548 0.13219 0.0
C1844 C 0.60687 0.62009 0.12691 0.0
C1845 C 0.64724 0.65716 0.1427 0.0
C1846 C 0.62464 0.66469 0.14814 0.0
C1847 C 0.59301 0.64991 0.14281 0.0
C1848 C 0.58411 0.62756 0.1324 0.0
C1849 C 0.63442 0.68764 0.1595 0.0
C1850 C 0.64559 0.68009 0.17098 0.0
C1851 C 0.63439 0.71747 0.15891 0.0
C1852 C 0.62694 0.72916 0.14666 0.0
C1853 C 0.60411 0.73987 0.14665 0.0
C1854 C 0.59924 0.75361 0.1354 0.0
C1855 C 0.61708 0.75677 0.12409 0.0
C1856 C 0.63947 0.74578 0.12395 0.0
C1857 C 0.6446 0.73224 0.13519 0.0
H1858 H 0.6137 0.76785 0.11544 0.0
H1859 H 0.71005 0.67157 0.22199 0.0
H1860 H 0.03399 0.42363 0.88818 0.0
H1861 H 1.00768 0.38413 0.87056 0.0
H1862 H 0.98269 0.44992 0.85145 0.0
H1863 H 1.00671 0.48826 0.86975 0.0
H1864 H 0.93895 0.39379 0.84496 0.0
H1865 H 0.05423 0.44306 0.84369 0.0
H1866 H 0.10965 0.46092 0.85186 0.0
H1867 H 0.0837 0.36143 0.85858 0.0
H1868 H 0.02797 0.34299 0.85061 0.0
H1869 H 0.95414 0.32682 0.78073 0.0
H1870 H 0.96505 0.3642 0.79925 0.0
H1871 H 0.93696 0.28451 0.82605 0.0
H1872 H 0.92423 0.24698 0.80758 0.0
H1873 H 1.00652 0.3495 0.82738 0.0
H1874 H 0.88878 0.30362 0.82583 0.0
H1875 H 0.83788 0.29218 0.8148 0.0
H1876 H 0.87418 0.39463 0.81024 0.0
H1877 H 0.92596 0.40671 0.82073 0.0
C1878 C 0.02207 0.42922 0.88039 0.0
C1879 C 0.02238 0.45899 0.88034 0.0
C1880 C 1.0074 0.40681 0.87017 0.0
C1881 C 0.99422 0.41434 0.85926 0.0
C1882 C 0.99286 0.44338 0.8596 0.0
C1883 C 1.00656 0.46534 0.87009 0.0
C1884 C 0.98381 0.39294 0.84728 0.0
C1885 C 0.95399 0.38444 0.84109 0.0
C1886 C 1.00331 0.38073 0.84193 0.0
C1887 C 0.03684 0.39167 0.84667 0.0
C1888 C 0.06029 0.425 0.84698 0.0
C1889 C 0.09176 0.43523 0.85157 0.0
C1890 C 0.10016 0.41233 0.85577 0.0
C1891 C 0.07714 0.37914 0.85534 0.0
C1892 C 0.04562 0.36878 0.85078 0.0
C1893 C 0.94875 0.3171 0.79056 0.0
C1894 C 0.93661 0.28371 0.7927 0.0
C1895 C 0.95544 0.33852 0.80114 0.0
C1896 C 0.95129 0.32707 0.81405 0.0
C1897 C 0.9398 0.29382 0.81618 0.0
C1898 C 0.93244 0.27238 0.80563 0.0
C1899 C 0.96161 0.34996 0.82538 0.0
C1900 C 0.99158 0.3589 0.83133 0.0
C1901 C 0.9428 0.3634 0.83015 0.0
C1902 C 0.91156 0.35606 0.82388 0.0
C1903 C 0.88623 0.32372 0.82225 0.0
C1904 C 0.85717 0.31712 0.81611 0.0
C1905 C 0.8529 0.34266 0.81173 0.0
C1906 C 0.87763 0.37487 0.81355 0.0
C1907 C 0.90688 0.3816 0.81956 0.0
H1908 H 0.83037 0.3375 0.807 0.0
H1909 H 0.12454 0.42029 0.85932 0.0
H1910 H 0.60787 0.54299 0.87342 0.0
H1911 H 0.64609 0.55501 0.85514 0.0
H1912 H 0.67598 0.65678 0.85808 0.0
H1913 H 0.63953 0.64537 0.87661 0.0
H1914 H 0.6479 0.61567 0.83132 0.0
H1915 H 0.7277 0.65101 0.86668 0.0
H1916 H 0.75527 0.64522 0.88606 0.0
H1917 H 0.76796 0.57247 0.86622 0.0
H1918 H 0.73948 0.577 0.84695 0.0
H1919 H 0.77717 0.7186 0.79013 0.0
H1920 H 0.73618 0.6896 0.80678 0.0
H1921 H 0.76599 0.61732 0.80912 0.0
H1922 H 0.80853 0.64757 0.79274 0.0
H1923 H 0.76 0.63274 0.83235 0.0
H1924 H 0.68175 0.59653 0.79707 0.0
H1925 H 0.6545 0.60134 0.77722 0.0
H1926 H 0.63931 0.67344 0.79612 0.0
H1927 H 0.66595 0.66879 0.81608 0.0
C1928 C 0.62346 0.56803 0.87048 0.0
C1929 C 0.62103 0.59323 0.87672 0.0
C1930 C 0.64508 0.57485 0.85994 0.0
C1931 C 0.66412 0.60688 0.85529 0.0
C1932 C 0.66178 0.63195 0.86155 0.0
C1933 C 0.64083 0.6253 0.87217 0.0
C1934 C 0.68456 0.61442 0.8433 0.0
C1935 C 0.67243 0.61936 0.83154 0.0
C1936 C 0.71621 0.6184 0.84343 0.0
C1937 C 0.73087 0.61389 0.85545 0.0
C1938 C 0.73556 0.63314 0.86658 0.0
C1939 C 0.75158 0.63025 0.87754 0.0
C1940 C 0.76346 0.60856 0.8774 0.0
C1941 C 0.75882 0.58929 0.86638 0.0
C1942 C 0.74259 0.59188 0.85546 0.0
C1943 C 0.77474 0.69623 0.79401 0.0
C1944 C 0.7959 0.68519 0.7899 0.0
C1945 C 0.75086 0.67933 0.8035 0.0
C1946 C 0.74708 0.65059 0.80914 0.0
C1947 C 0.76797 0.6392 0.80491 0.0
C1948 C 0.7922 0.65639 0.79546 0.0
C1949 C 0.72371 0.63471 0.82029 0.0
C1950 C 0.73522 0.62828 0.83195 0.0
C1951 C 0.69133 0.62909 0.82006 0.0
C1952 C 0.67618 0.63261 0.80797 0.0
C1953 C 0.67288 0.61364 0.79691 0.0
C1954 C 0.65745 0.61623 0.78568 0.0
C1955 C 0.64549 0.63786 0.78538 0.0
C1956 C 0.64867 0.65677 0.79635 0.0
C1957 C 0.66377 0.65405 0.80764 0.0
H1958 H 0.63362 0.63983 0.77668 0.0
H1959 H 0.77634 0.60679 0.8858 0.0
H1960 H 0.4334 0.15316 0.78273 0.0
H1961 H 0.46183 0.14576 0.80119 0.0
H1962 H 0.38042 0.12729 0.82594 0.0
H1963 H 0.35711 0.14302 0.80818 0.0
H1964 H 0.42253 0.14826 0.84093 0.0
H1965 H 0.40358 0.06542 0.80858 0.0
H1966 H 0.40877 0.04517 0.78701 0.0
H1967 H 0.51296 0.09687 0.79096 0.0
H1968 H 0.50836 0.11758 0.81248 0.0
H1969 H 0.43456 0.03546 0.88448 0.0
H1970 H 0.42038 0.06233 0.86736 0.0
H1971 H 0.52079 0.11534 0.85521 0.0
H1972 H 0.53519 0.08863 0.87246 0.0
H1973 H 0.47626 0.08253 0.83456 0.0
H1974 H 0.48759 0.15742 0.86982 0.0
H1975 H 0.47508 0.17183 0.89141 0.0
H1976 H 0.3733 0.1221 0.88207 0.0
H1977 H 0.38499 0.10767 0.86038 0.0
C1978 C 0.42363 0.15087 0.7924 0.0
C1979 C 0.39486 0.15191 0.79418 0.0
C1980 C 0.43864 0.14429 0.80292 0.0
C1981 C 0.42333 0.13498 0.81526 0.0
C1982 C 0.39366 0.13485 0.81681 0.0
C1983 C 0.38 0.14363 0.80653 0.0
C1984 C 0.43723 0.12483 0.82651 0.0
C1985 C 0.43367 0.13336 0.83936 0.0
C1986 C 0.45292 0.10605 0.82491 0.0
C1987 C 0.45562 0.09326 0.81206 0.0
C1988 C 0.42757 0.0725 0.80481 0.0
C1989 C 0.43042 0.06096 0.79259 0.0
C1990 C 0.46118 0.06981 0.78759 0.0
C1991 C 0.48915 0.09009 0.79482 0.0
C1992 C 0.48644 0.10169 0.80703 0.0
C1993 C 0.45378 0.05331 0.87833 0.0
C1994 C 0.4861 0.06008 0.87995 0.0
C1995 C 0.44562 0.06874 0.86854 0.0
C1996 C 0.46948 0.09108 0.85997 0.0
C1997 C 0.50191 0.09834 0.8617 0.0
C1998 C 0.51017 0.08321 0.87164 0.0
C1999 C 0.46006 0.10488 0.84869 0.0
C2000 C 0.46481 0.09724 0.83592 0.0
C2001 C 0.44403 0.12306 0.85038 0.0
C2002 C 0.43716 0.13129 0.86352 0.0
C2003 C 0.46253 0.14936 0.87241 0.0
C2004 C 0.45562 0.15759 0.88464 0.0
C2005 C 0.42351 0.14771 0.88814 0.0
C2006 C 0.39817 0.1297 0.87937 0.0
C2007 C 0.40492 0.12162 0.86709 0.0
H2008 H 0.4183 0.15412 0.89762 0.0
H2009 H 0.46333 0.0609 0.77812 0.0
H2010 H 0.93217 0.22354 0.53626 0.0
H2011 H 0.96946 0.2356 0.51792 0.0
H2012 H 0.03922 0.32539 0.5367 0.0
H2013 H 1.00027 0.31462 0.5543 0.0
H2014 H 0.0397 0.34056 0.51442 0.0
H2015 H 0.05102 0.24912 0.52953 0.0
H2016 H 0.03003 0.1925 0.53714 0.0
H2017 H 0.97452 0.1563 0.50178 0.0
H2018 H 0.99522 0.21261 0.49405 0.0
H2019 H 0.17664 0.3726 0.47514 0.0
H2020 H 0.13749 0.34797 0.49308 0.0
H2021 H 0.05901 0.30269 0.46524 0.0
H2022 H 0.09811 0.3289 0.44728 0.0
H2023 H 0.06168 0.26245 0.49058 0.0
H2024 H 0.05812 0.3581 0.47528 0.0
H2025 H 0.08418 0.41573 0.46864 0.0
H2026 H 0.13098 0.44511 0.50608 0.0
H2027 H 0.10558 0.38755 0.51285 0.0
C2028 C 0.95578 0.24551 0.53655 0.0
C2029 C 0.9634 0.26803 0.54675 0.0
C2030 C 0.97741 0.25238 0.52606 0.0
C2031 C 1.00788 0.2814 0.52575 0.0
C2032 C 1.01599 0.30298 0.53642 0.0
C2033 C 0.99383 0.29671 0.54661 0.0
C2034 C 0.03001 0.2909 0.51396 0.0
C2035 C 0.0447 0.3233 0.50947 0.0
C2036 C 0.03632 0.26872 0.50691 0.0
C2037 C 0.02412 0.23492 0.51139 0.0
C2038 C 0.03405 0.22896 0.5235 0.0
C2039 C 0.02238 0.19701 0.52778 0.0
C2040 C 1.00085 0.17084 0.51997 0.0
C2041 C 0.99118 0.17658 0.50782 0.0
C2042 C 1.00296 0.2085 0.50347 0.0
C2043 C 0.15114 0.35663 0.47284 0.0
C2044 C 0.14062 0.35138 0.45977 0.0
C2045 C 0.12878 0.34263 0.4831 0.0
C2046 C 0.09532 0.32306 0.48053 0.0
C2047 C 0.08475 0.31712 0.46746 0.0
C2048 C 0.10714 0.33174 0.45719 0.0
C2049 C 0.07146 0.31184 0.49155 0.0
C2050 C 0.05649 0.27935 0.49574 0.0
C2051 C 0.06531 0.33397 0.4985 0.0
C2052 C 0.08026 0.36855 0.49451 0.0
C2053 C 0.07422 0.37684 0.48204 0.0
C2054 C 0.08881 0.40949 0.47827 0.0
C2055 C 0.1093 0.43407 0.48692 0.0
C2056 C 0.11515 0.42604 0.49938 0.0
C2057 C 0.10065 0.39342 0.50319 0.0
H2058 H 0.12058 0.45933 0.48399 0.0
H2059 H 0.99174 0.14612 0.52331 0.0
H2060 H 0.75498 0.85953 0.46764 0.0
H2061 H 0.78012 0.8465 0.48578 0.0
H2062 H 0.75232 0.75361 0.46791 0.0
H2063 H 0.72441 0.76559 0.45053 0.0
H2064 H 0.73947 0.74111 0.49062 0.0
H2065 H 0.84068 0.82705 0.47256 0.0
H2066 H 0.87767 0.8825 0.46408 0.0
H2067 H 0.8714 0.92348 0.50062 0.0
H2068 H 0.83413 0.86839 0.50914 0.0
H2069 H 0.83615 0.6976 0.52868 0.0
H2070 H 0.82085 0.72147 0.51071 0.0
H2071 H 0.81313 0.78697 0.53777 0.0
H2072 H 0.82684 0.76171 0.55589 0.0
H2073 H 0.84488 0.81602 0.51197 0.0
H2074 H 0.74729 0.72698 0.53024 0.0
H2075 H 0.71285 0.67064 0.53801 0.0
H2076 H 0.71568 0.63419 0.49992 0.0
H2077 H 0.7506 0.69034 0.49198 0.0
C2078 C 0.75485 0.83661 0.4675 0.0
C2079 C 0.73793 0.81366 0.45762 0.0
C2080 C 0.76951 0.82915 0.47788 0.0
C2081 C 0.76882 0.79905 0.47836 0.0
C2082 C 0.75321 0.77689 0.46803 0.0
C2083 C 0.73746 0.78383 0.45796 0.0
C2084 C 0.78176 0.7893 0.48998 0.0
C2085 C 0.76288 0.75755 0.49501 0.0
C2086 C 0.81173 0.81067 0.49635 0.0
C2087 C 0.83426 0.84376 0.49134 0.0
C2088 C 0.84697 0.84801 0.47865 0.0
C2089 C 0.868 0.87929 0.47388 0.0
C2090 C 0.87669 0.90647 0.48178 0.0
C2091 C 0.86455 0.90241 0.49449 0.0
C2092 C 0.8435 0.87117 0.4993 0.0
C2093 C 0.83193 0.71761 0.53076 0.0
C2094 C 0.83417 0.72885 0.54363 0.0
C2095 C 0.82311 0.73119 0.52048 0.0
C2096 C 0.81607 0.75625 0.52283 0.0
C2097 C 0.81904 0.76812 0.53565 0.0
C2098 C 0.82748 0.75414 0.54599 0.0
C2099 C 0.80307 0.76786 0.51204 0.0
C2100 C 0.82168 0.79982 0.50735 0.0
C2101 C 0.77312 0.74662 0.50584 0.0
C2102 C 0.75181 0.71285 0.51055 0.0
C2103 C 0.74079 0.70694 0.52355 0.0
C2104 C 0.72115 0.67504 0.52798 0.0
C2105 C 0.71215 0.64884 0.51948 0.0
C2106 C 0.7227 0.6545 0.50651 0.0
C2107 C 0.7424 0.68636 0.50203 0.0
H2108 H 0.69695 0.62416 0.52293 0.0
H2109 H 0.89295 0.93066 0.47806 0.0
H2110 H 0.32266 0.96841 0.4618 0.0
H2111 H 0.33448 1.00739 0.47949 0.0
H2112 H 0.2327 0.97791 0.48207 0.0
H2113 H 0.22032 0.93732 0.46476 0.0
H2114 H 0.29193 0.05593 0.48223 0.0
H2115 H 0.24315 0.95042 0.50396 0.0
H2116 H 0.23701 0.89623 0.50773 0.0
H2117 H 0.33847 0.94066 0.51762 0.0
H2118 H 0.34528 0.9951 0.51371 0.0
H2119 H 0.32731 0.14935 0.54174 0.0
H2120 H 0.29889 0.10829 0.52462 0.0
H2121 H 0.36819 0.07506 0.52925 0.0
H2122 H 0.39461 0.11392 0.54685 0.0
H2123 H 0.31536 0.02546 0.52557 0.0
H2124 H 0.36719 0.12916 0.50277 0.0
H2125 H 0.37795 0.18435 0.49728 0.0
H2126 H 0.27677 0.14611 0.48818 0.0
H2127 H 0.2654 0.09071 0.49369 0.0
C2128 C 0.3027 0.97029 0.466 0.0
C2129 C 0.27051 0.94995 0.46163 0.0
C2130 C 0.30957 0.99272 0.47613 0.0
C2131 C 0.28456 0.99577 0.48208 0.0
C2132 C 0.25247 0.97625 0.47754 0.0
C2133 C 0.24545 0.95323 0.46754 0.0
C2134 C 0.29218 0.01789 0.49356 0.0
C2135 C 0.29646 0.04916 0.4918 0.0
C2136 C 0.29886 1.0094 0.50595 0.0
C2137 C 0.29478 0.97676 0.50841 0.0
C2138 C 0.26421 0.9486 0.50681 0.0
C2139 C 0.26059 0.91785 0.509 0.0
C2140 C 0.28736 0.91499 0.51288 0.0
C2141 C 0.31777 0.9429 0.5146 0.0
C2142 C 0.32151 0.9737 0.51241 0.0
C2143 C 0.3358 0.1326 0.53933 0.0
C2144 C 0.36273 0.13444 0.54594 0.0
C2145 C 0.31993 0.10947 0.52932 0.0
C2146 C 0.33143 0.08847 0.52535 0.0
C2147 C 0.35836 0.0905 0.53203 0.0
C2148 C 0.37365 0.11297 0.54214 0.0
C2149 C 0.31611 0.06436 0.51433 0.0
C2150 C 0.31043 0.03247 0.51613 0.0
C2151 C 0.30866 0.07259 0.50192 0.0
C2152 C 0.31538 0.10591 0.49883 0.0
C2153 C 0.34721 0.13259 0.49972 0.0
C2154 C 0.35342 0.16388 0.49657 0.0
C2155 C 0.32803 0.16875 0.49245 0.0
C2156 C 0.29638 0.14233 0.49145 0.0
C2157 C 0.29005 0.11098 0.49455 0.0
H2158 H 0.33291 0.19298 0.48998 0.0
H2159 H 0.28451 0.89117 0.51457 0.0
H2160 H 0.54082 0.43632 0.10548 0.0
H2161 H 0.52522 0.37842 0.10696 0.0
H2162 H 0.59375 0.39254 0.07643 0.0
H2163 H 0.60786 0.44893 0.07449 0.0
H2164 H 0.54652 0.33853 0.0721 0.0
H2165 H 0.60615 0.38715 0.11178 0.0
H2166 H 0.61751 0.4168 0.13269 0.0
H2167 H 0.52437 0.34423 0.14742 0.0
H2168 H 0.51233 0.31434 0.12653 0.0
H2169 H 0.5763 0.20983 0.10858 0.0
H2170 H 0.57974 0.26292 0.10754 0.0
H2171 H 0.49671 0.22319 0.08165 0.0
H2172 H 0.49411 0.1701 0.0823 0.0
H2173 H 0.54589 0.28786 0.1145 0.0
H2174 H 0.49872 0.28152 0.06181 0.0
H2175 H 0.49717 0.25582 0.04064 0.0
H2176 H 0.58195 0.25042 0.0515 0.0
H2177 H 0.58421 0.27643 0.07265 0.0
C2178 C 0.55226 0.42691 0.09901 0.0
C2179 C 0.57558 0.44759 0.08984 0.0
C2180 C 0.54355 0.39374 0.09993 0.0
C2181 C 0.55848 0.38061 0.09191 0.0
C2182 C 0.58146 0.40139 0.08271 0.0
C2183 C 0.58966 0.43405 0.08165 0.0
C2184 C 0.55109 0.34571 0.09296 0.0
C2185 C 0.54622 0.32755 0.08143 0.0
C2186 C 0.55101 0.33086 0.10502 0.0
C2187 C 0.55819 0.34874 0.11756 0.0
C2188 C 0.58802 0.37765 0.11945 0.0
C2189 C 0.59459 0.39447 0.1313 0.0
C2190 C 0.57163 0.38246 0.14136 0.0
C2191 C 0.5421 0.35354 0.13961 0.0
C2192 C 0.53539 0.33665 0.12777 0.0
C2193 C 0.55877 0.21236 0.10262 0.0
C2194 C 0.53504 0.18564 0.09546 0.0
C2195 C 0.56065 0.24286 0.10209 0.0
C2196 C 0.53874 0.2477 0.09442 0.0
C2197 C 0.51447 0.22071 0.08745 0.0
C2198 C 0.51285 0.19018 0.08786 0.0
C2199 C 0.54193 0.28103 0.09363 0.0
C2200 C 0.54587 0.29878 0.1052 0.0
C2201 C 0.54242 0.29604 0.08157 0.0
C2202 C 0.54134 0.28051 0.06887 0.0
C2203 C 0.51704 0.27488 0.05966 0.0
C2204 C 0.51605 0.26027 0.04767 0.0
C2205 C 0.53936 0.25137 0.04475 0.0
C2206 C 0.56381 0.25719 0.0538 0.0
C2207 C 0.56494 0.27183 0.06579 0.0
H2208 H 0.53854 0.24004 0.03547 0.0
H2209 H 0.57676 0.39552 0.15052 0.0
H2210 H 0.65369 0.15992 0.0711 0.0
H2211 H 0.71033 0.20356 0.07309 0.0
H2212 H 0.69811 0.20713 0.11464 0.0
H2213 H 0.64114 0.16288 0.1127 0.0
H2214 H 0.72725 0.2692 0.10272 0.0
H2215 H 0.74394 0.17724 0.10336 0.0
H2216 H 0.73819 0.12559 0.0953 0.0
H2217 H 0.78439 0.17179 0.05927 0.0
H2218 H 0.79001 0.22364 0.06703 0.0
H2219 H 0.89205 0.3818 0.117 0.0
H2220 H 0.83821 0.33306 0.11623 0.0
H2221 H 0.85325 0.31886 0.07578 0.0
H2222 H 0.90785 0.36752 0.07665 0.0
H2223 H 0.8225 0.26151 0.08738 0.0
H2224 H 0.80523 0.35209 0.08554 0.0
H2225 H 0.81119 0.40462 0.09249 0.0
H2226 H 0.7651 0.36233 0.12903 0.0
H2227 H 0.75942 0.30968 0.1224 0.0
C2228 C 0.66314 0.16951 0.08072 0.0
C2229 C 0.64275 0.15755 0.09176 0.0
C2230 C 0.69567 0.19461 0.08184 0.0
C2231 C 0.70882 0.20887 0.09401 0.0
C2232 C 0.68871 0.19665 0.10512 0.0
C2233 C 0.65616 0.17107 0.10403 0.0
C2234 C 0.74306 0.23719 0.09496 0.0
C2235 C 0.74812 0.26732 0.09958 0.0
C2236 C 0.7704 0.23537 0.09042 0.0
C2237 C 0.76712 0.20425 0.08573 0.0
C2238 C 0.75263 0.17632 0.09367 0.0
C2239 C 0.74944 0.14702 0.08917 0.0
C2240 C 0.76084 0.14539 0.07677 0.0
C2241 C 0.77553 0.17308 0.06886 0.0
C2242 C 0.77876 0.20244 0.07332 0.0
C2243 C 0.88406 0.3682 0.10794 0.0
C2244 C 0.90434 0.3787 0.09687 0.0
C2245 C 0.85302 0.34033 0.10748 0.0
C2246 C 0.84098 0.32229 0.09587 0.0
C2247 C 0.86164 0.33222 0.08487 0.0
C2248 C 0.89292 0.36011 0.08536 0.0
C2249 C 0.80681 0.29357 0.09523 0.0
C2250 C 0.80171 0.26342 0.09059 0.0
C2251 C 0.77933 0.2955 0.09957 0.0
C2252 C 0.7822 0.32699 0.10352 0.0
C2253 C 0.79656 0.35403 0.09509 0.0
C2254 C 0.79988 0.38384 0.09897 0.0
C2255 C 0.7886 0.38683 0.1112 0.0
C2256 C 0.77387 0.35999 0.11956 0.0
C2257 C 0.77059 0.33015 0.11575 0.0
H2258 H 0.79121 0.40993 0.11419 0.0
H2259 H 0.75835 0.12268 0.0733 0.0
H2260 H 0.68303 0.51126 0.10959 0.0
H2261 H 0.73189 0.50644 0.10944 0.0
H2262 H 0.77784 0.5875 0.0828 0.0
H2263 H 0.72792 0.59146 0.08254 0.0
H2264 H 0.79405 0.54518 0.07576 0.0
H2265 H 0.79792 0.59307 0.11696 0.0
H2266 H 0.77797 0.59977 0.13832 0.0
H2267 H 0.76372 0.507 0.15071 0.0
H2268 H 0.78317 0.49953 0.12936 0.0
H2269 H 0.94831 0.55115 0.08706 0.0
H2270 H 0.90685 0.56821 0.08793 0.0
H2271 H 0.83929 0.47676 0.10589 0.0
H2272 H 0.8801 0.45953 0.10472 0.0
H2273 H 0.83946 0.53199 0.11751 0.0
H2274 H 0.83238 0.48411 0.07493 0.0
H2275 H 0.85441 0.4799 0.05367 0.0
H2276 H 0.87819 0.57762 0.04427 0.0
H2277 H 0.8567 0.58256 0.06558 0.0
C2278 C 0.70354 0.52818 0.10371 0.0
C2279 C 0.70157 0.55195 0.09617 0.0
C2280 C 0.73174 0.52555 0.1037 0.0
C2281 C 0.75931 0.5471 0.09638 0.0
C2282 C 0.75722 0.57063 0.08864 0.0
C2283 C 0.72866 0.57299 0.08851 0.0
C2284 C 0.78977 0.54445 0.09673 0.0
C2285 C 0.80425 0.54298 0.08493 0.0
C2286 C 0.80343 0.54125 0.10863 0.0
C2287 C 0.79178 0.54565 0.12151 0.0
C2288 C 0.79033 0.574 0.12421 0.0
C2289 C 0.77914 0.57795 0.13632 0.0
C2290 C 0.76953 0.5538 0.14586 0.0
C2291 C 0.77116 0.52568 0.14331 0.0
C2292 C 0.7823 0.52159 0.13121 0.0
C2293 C 0.92488 0.53512 0.09148 0.0
C2294 C 0.91764 0.50424 0.09604 0.0
C2295 C 0.90107 0.54472 0.09186 0.0
C2296 C 0.86976 0.52376 0.09696 0.0
C2297 C 0.86316 0.49349 0.10198 0.0
C2298 C 0.8866 0.48371 0.10136 0.0
C2299 C 0.84318 0.53229 0.09659 0.0
C2300 C 0.82943 0.53472 0.10838 0.0
C2301 C 0.83055 0.53685 0.08472 0.0
C2302 C 0.84332 0.53385 0.0719 0.0
C2303 C 0.84259 0.5048 0.06838 0.0
C2304 C 0.85492 0.50226 0.05631 0.0
C2305 C 0.86779 0.52852 0.04764 0.0
C2306 C 0.86827 0.55733 0.05101 0.0
C2307 C 0.85601 0.56001 0.06307 0.0
H2308 H 0.87732 0.5265 0.0383 0.0
H2309 H 0.76086 0.5569 0.15523 0.0
H2310 H 0.45028 0.56246 0.89136 0.0
H2311 H 0.3936 0.55066 0.88978 0.0
H2312 H 0.38198 0.5334 0.93126 0.0
H2313 H 0.43844 0.54543 0.93291 0.0
H2314 H 0.3269 0.48886 0.91755 0.0
H2315 H 0.39774 0.60505 0.91957 0.0
H2316 H 0.4435 0.65783 0.91242 0.0
H2317 H 0.3983 0.64587 0.87489 0.0
H2318 H 0.35253 0.59272 0.88174 0.0
H2319 H 0.1854 0.50393 0.92817 0.0
H2320 H 0.23934 0.50842 0.92885 0.0
H2321 H 0.25622 0.542 0.88894 0.0
H2322 H 0.203 0.53855 0.88842 0.0
H2323 H 0.30888 0.57736 0.90152 0.0
H2324 H 0.23805 0.46181 0.89904 0.0
H2325 H 0.19267 0.40818 0.9056 0.0
H2326 H 0.23744 0.41771 0.94307 0.0
H2327 H 0.2829 0.4716 0.93679 0.0
C2328 C 0.43545 0.55547 0.90009 0.0
C2329 C 0.44902 0.55487 0.91226 0.0
C2330 C 0.40306 0.54899 0.8992 0.0
C2331 C 0.3834 0.54144 0.91043 0.0
C2332 C 0.39645 0.53918 0.92245 0.0
C2333 C 0.42886 0.54608 0.92338 0.0
C2334 C 0.34993 0.53755 0.90985 0.0
C2335 C 0.323 0.50832 0.91414 0.0
C2336 C 0.3445 0.56263 0.90522 0.0
C2337 C 0.37188 0.59472 0.90112 0.0
C2338 C 0.39769 0.61354 0.90976 0.0
C2339 C 0.42361 0.64354 0.90576 0.0
C2340 C 0.42385 0.65515 0.8932 0.0
C2341 C 0.39811 0.63681 0.88461 0.0
C2342 C 0.37217 0.60675 0.88855 0.0
C2343 C 0.20055 0.51203 0.91952 0.0
C2344 C 0.18975 0.52073 0.90823 0.0
C2345 C 0.23145 0.51449 0.91988 0.0
C2346 C 0.25215 0.52524 0.90888 0.0
C2347 C 0.2411 0.53371 0.89759 0.0
C2348 C 0.21045 0.53155 0.89728 0.0
C2349 C 0.28549 0.52844 0.90914 0.0
C2350 C 0.31255 0.5577 0.90485 0.0
C2351 C 0.29098 0.50326 0.91369 0.0
C2352 C 0.2637 0.47088 0.91749 0.0
C2353 C 0.23809 0.45257 0.90872 0.0
C2354 C 0.21237 0.42211 0.91238 0.0
C2355 C 0.21212 0.40959 0.92476 0.0
C2356 C 0.23764 0.42746 0.93349 0.0
C2357 C 0.2634 0.45795 0.92988 0.0
H2358 H 0.1922 0.386 0.92757 0.0
H2359 H 0.44391 0.67837 0.89012 0.0
H2360 H 0.52238 0.91819 0.89001 0.0
H2361 H 0.53226 0.87198 0.8882 0.0
H2362 H 0.54489 0.87314 0.92991 0.0
H2363 H 0.53518 0.91886 0.93179 0.0
H2364 H 0.58238 0.85839 0.89577 0.0
H2365 H 0.5013 0.78985 0.94034 0.0
H2366 H 0.45711 0.78937 0.9532 0.0
H2367 H 0.42904 0.82569 0.9202 0.0
H2368 H 0.47196 0.82489 0.90693 0.0
H2369 H 0.60132 0.72253 0.91573 0.0
H2370 H 0.59752 0.77252 0.91588 0.0
H2371 H 0.50047 0.71903 0.89994 0.0
H2372 H 0.50435 0.66941 0.89958 0.0
H2373 H 0.50349 0.7592 0.91983 0.0
H2374 H 0.56281 0.76835 0.88056 0.0
H2375 H 0.60727 0.76971 0.86757 0.0
H2376 H 0.67759 0.85242 0.88949 0.0
H2377 H 0.63355 0.85127 0.90274 0.0
C2378 C 0.52796 0.90906 0.89876 0.0
C2379 C 0.5277 0.92229 0.91106 0.0
C2380 C 0.53359 0.88255 0.89772 0.0
C2381 C 0.53887 0.86856 0.90895 0.0
C2382 C 0.54048 0.88302 0.9211 0.0
C2383 C 0.53492 0.90935 0.92215 0.0
C2384 C 0.54022 0.83752 0.90822 0.0
C2385 C 0.56516 0.83678 0.90107 0.0
C2386 C 0.51757 0.80894 0.91501 0.0
C2387 C 0.4903 0.80774 0.92267 0.0
C2388 C 0.48549 0.79738 0.93576 0.0
C2389 C 0.46058 0.79726 0.94312 0.0
C2390 C 0.44035 0.80758 0.93753 0.0
C2391 C 0.44482 0.8178 0.92454 0.0
C2392 C 0.46935 0.81748 0.91707 0.0
C2393 C 0.57919 0.72146 0.91227 0.0
C2394 C 0.55322 0.69191 0.9076 0.0
C2395 C 0.57704 0.75011 0.91231 0.0
C2396 C 0.54873 0.74984 0.90784 0.0
C2397 C 0.52259 0.72013 0.90343 0.0
C2398 C 0.52491 0.6917 0.9032 0.0
C2399 C 0.5462 0.78032 0.90767 0.0
C2400 C 0.52086 0.78089 0.91461 0.0
C2401 C 0.56843 0.8087 0.9007 0.0
C2402 C 0.59491 0.80952 0.89272 0.0
C2403 C 0.58778 0.78667 0.88268 0.0
C2404 C 0.6129 0.78743 0.87525 0.0
C2405 C 0.64524 0.81108 0.87772 0.0
C2406 C 0.65253 0.83408 0.8876 0.0
C2407 C 0.6275 0.8334 0.89506 0.0
H2408 H 0.66466 0.81164 0.87196 0.0
H2409 H 0.42117 0.8076 0.94326 0.0
H2410 H 0.40367 0.87718 0.92699 0.0
H2411 H 0.35637 0.82175 0.92675 0.0
H2412 H 0.32167 0.84406 0.89148 0.0
H2413 H 0.36945 0.89911 0.89148 0.0
H2414 H 0.27168 0.81106 0.90967 0.0
H2415 H 0.35347 0.79871 0.88884 0.0
H2416 H 0.40437 0.79857 0.88413 0.0
H2417 H 0.38905 0.73793 0.91755 0.0
H2418 H 0.33842 0.73837 0.92269 0.0
H2419 H 0.15301 0.63937 0.89632 0.0
H2420 H 0.19662 0.69673 0.89431 0.0
H2421 H 0.24151 0.68724 0.9294 0.0
H2422 H 0.19847 0.63093 0.93157 0.0
H2423 H 0.28538 0.71398 0.90912 0.0
H2424 H 0.20252 0.72967 0.92981 0.0
H2425 H 0.14832 0.72475 0.93148 0.0
H2426 H 0.16447 0.77658 0.89535 0.0
H2427 H 0.21863 0.78141 0.89338 0.0
C2428 C 0.38584 0.87034 0.91924 0.0
C2429 C 0.39027 0.89269 0.9093 0.0
C2430 C 0.35886 0.83853 0.91905 0.0
C2431 C 0.33529 0.82845 0.90907 0.0
C2432 C 0.33935 0.85106 0.8993 0.0
C2433 C 0.36671 0.88259 0.89932 0.0
C2434 C 0.30651 0.79446 0.90884 0.0
C2435 C 0.27477 0.78987 0.9094 0.0
C2436 C 0.31016 0.76654 0.9085 0.0
C2437 C 0.34224 0.76889 0.90624 0.0
C2438 C 0.36126 0.78592 0.89536 0.0
C2439 C 0.38997 0.78559 0.89256 0.0
C2440 C 0.39977 0.76801 0.90047 0.0
C2441 C 0.38126 0.75131 0.91137 0.0
C2442 C 0.35265 0.75174 0.91427 0.0
C2443 C 0.17193 0.64967 0.90369 0.0
C2444 C 0.17201 0.63024 0.91409 0.0
C2445 C 0.19692 0.68251 0.90253 0.0
C2446 C 0.22262 0.69649 0.91169 0.0
C2447 C 0.22224 0.67721 0.92215 0.0
C2448 C 0.19732 0.64481 0.92339 0.0
C2449 C 0.25077 0.73062 0.91033 0.0
C2450 C 0.28241 0.73523 0.90943 0.0
C2451 C 0.24697 0.75844 0.91019 0.0
C2452 C 0.21446 0.75555 0.91137 0.0
C2453 C 0.19439 0.73974 0.92216 0.0
C2454 C 0.1637 0.73703 0.92318 0.0
C2455 C 0.15291 0.75025 0.91351 0.0
C2456 C 0.17283 0.7663 0.90282 0.0
C2457 C 0.20353 0.76904 0.90175 0.0
H2458 H 0.12915 0.74814 0.91432 0.0
H2459 H 0.42179 0.76746 0.89819 0.0
H2460 H 0.24349 0.77769 0.44717 0.0
H2461 H 0.2329 0.72139 0.44862 0.0
H2462 H 0.21175 0.70853 0.4074 0.0
H2463 H 0.22279 0.76469 0.40587 0.0
H2464 H 0.16851 0.65345 0.422 0.0
H2465 H 0.28403 0.72491 0.41739 0.0
H2466 H 0.3377 0.77125 0.42337 0.0
H2467 H 0.33198 0.72821 0.46087 0.0
H2468 H 0.27797 0.68187 0.4552 0.0
H2469 H 0.18107 0.51056 0.41116 0.0
H2470 H 0.18569 0.56452 0.41023 0.0
H2471 H 0.22803 0.58601 0.44883 0.0
H2472 H 0.22471 0.53293 0.44949 0.0
H2473 H 0.25989 0.63724 0.43565 0.0
H2474 H 0.14475 0.5662 0.4409 0.0
H2475 H 0.0903 0.52025 0.43555 0.0
H2476 H 0.09412 0.56214 0.39795 0.0
H2477 H 0.14878 0.60817 0.40302 0.0
C2478 C 0.23591 0.76265 0.43848 0.0
C2479 C 0.2339 0.77581 0.42641 0.0
C2480 C 0.23012 0.73049 0.43929 0.0
C2481 C 0.22176 0.71057 0.42809 0.0
C2482 C 0.21815 0.7232 0.41619 0.0
C2483 C 0.22447 0.75542 0.41533 0.0
C2484 C 0.2183 0.67725 0.42856 0.0
C2485 C 0.18858 0.64993 0.42489 0.0
C2486 C 0.24421 0.67232 0.43252 0.0
C2487 C 0.27676 0.70009 0.43593 0.0
C2488 C 0.29407 0.72547 0.42696 0.0
C2489 C 0.32458 0.75172 0.43028 0.0
C2490 C 0.3382 0.75273 0.4425 0.0
C2491 C 0.32137 0.72744 0.45142 0.0
C2492 C 0.2908 0.70117 0.44815 0.0
C2493 C 0.19117 0.52676 0.41947 0.0
C2494 C 0.20236 0.51726 0.43042 0.0
C2495 C 0.1937 0.5577 0.41898 0.0
C2496 C 0.20684 0.57971 0.42955 0.0
C2497 C 0.21785 0.56994 0.44049 0.0
C2498 C 0.21577 0.53933 0.4409 0.0
C2499 C 0.20982 0.613 0.42923 0.0
C2500 C 0.23961 0.64049 0.43286 0.0
C2501 C 0.18385 0.61803 0.42535 0.0
C2502 C 0.15098 0.59045 0.42229 0.0
C2503 C 0.13407 0.56549 0.43145 0.0
C2504 C 0.10315 0.53946 0.42848 0.0
C2505 C 0.0888 0.53823 0.4164 0.0
C2506 C 0.10529 0.5631 0.40729 0.0
C2507 C 0.13622 0.58918 0.41021 0.0
H2508 H 0.06487 0.51805 0.41412 0.0
H2509 H 0.36183 0.77306 0.44505 0.0
H2510 H 0.56221 0.70927 0.44948 0.0
H2511 H 0.50833 0.66035 0.4484 0.0
H2512 H 0.51663 0.6583 0.40653 0.0
H2513 H 0.57097 0.70729 0.4076 0.0
H2514 H 0.45648 0.65052 0.41477 0.0
H2515 H 0.52384 0.60369 0.42471 0.0
H2516 H 0.56483 0.59753 0.43731 0.0
H2517 H 0.50531 0.57394 0.47164 0.0
H2518 H 0.46414 0.58042 0.45928 0.0
H2519 H 0.31679 0.4993 0.40298 0.0
H2520 H 0.37337 0.54297 0.4043 0.0
H2521 H 0.36985 0.53526 0.4463 0.0
H2522 H 0.31308 0.49063 0.44498 0.0
H2523 H 0.428 0.54821 0.43831 0.0
H2524 H 0.36199 0.59579 0.4299 0.0
H2525 H 0.32049 0.60387 0.41866 0.0
H2526 H 0.37646 0.62876 0.38329 0.0
H2527 H 0.4181 0.62039 0.39428 0.0
C2528 C 0.55274 0.69824 0.44004 0.0
C2529 C 0.57101 0.71211 0.42863 0.0
C2530 C 0.52187 0.67018 0.43944 0.0
C2531 C 0.50831 0.65533 0.42739 0.0
C2532 C 0.52651 0.66917 0.41595 0.0
C2533 C 0.55765 0.69709 0.41657 0.0
C2534 C 0.47484 0.62598 0.42677 0.0
C2535 C 0.45042 0.62796 0.41973 0.0
C2536 C 0.46639 0.59687 0.43367 0.0
C2537 C 0.49105 0.59284 0.4411 0.0
C2538 C 0.51961 0.59745 0.43497 0.0
C2539 C 0.54285 0.59385 0.44206 0.0
C2540 C 0.53771 0.58543 0.45528 0.0
C2541 C 0.50927 0.5805 0.46141 0.0
C2542 C 0.48596 0.5841 0.45436 0.0
C2543 C 0.3281 0.50653 0.41252 0.0
C2544 C 0.31018 0.49144 0.42388 0.0
C2545 C 0.36053 0.53181 0.41326 0.0
C2546 C 0.37594 0.54327 0.42541 0.0
C2547 C 0.35864 0.52718 0.43678 0.0
C2548 C 0.32613 0.50153 0.43603 0.0
C2549 C 0.4096 0.57254 0.42617 0.0
C2550 C 0.43402 0.57066 0.43328 0.0
C2551 C 0.41796 0.60202 0.41953 0.0
C2552 C 0.39301 0.60714 0.41288 0.0
C2553 C 0.36533 0.60275 0.4197 0.0
C2554 C 0.3418 0.60742 0.41338 0.0
C2555 C 0.3458 0.61674 0.40026 0.0
C2556 C 0.37338 0.62149 0.39345 0.0
C2557 C 0.39697 0.61681 0.39972 0.0
H2558 H 0.32756 0.62035 0.39539 0.0
H2559 H 0.55574 0.58265 0.46075 0.0
H2560 H 0.58688 0.83632 0.44663 0.0
H2561 H 0.54119 0.84693 0.44859 0.0
H2562 H 0.54688 0.86714 0.40734 0.0
H2563 H 0.59195 0.85616 0.40532 0.0
H2564 H 0.53652 0.9108 0.42166 0.0
H2565 H 0.49078 0.7949 0.41843 0.0
H2566 H 0.4827 0.74121 0.42483 0.0
H2567 H 0.44853 0.75058 0.46252 0.0
H2568 H 0.45693 0.80461 0.45641 0.0
H2569 H 0.38167 0.89944 0.41146 0.0
H2570 H 0.4301 0.89325 0.41049 0.0
H2571 H 0.41191 0.85637 0.44993 0.0
H2572 H 0.3631 0.86155 0.45072 0.0
H2573 H 0.42962 0.8219 0.43701 0.0
H2574 H 0.47517 0.93747 0.44066 0.0
H2575 H 0.48387 0.99164 0.43466 0.0
H2576 H 0.51899 0.98381 0.39696 0.0
H2577 H 0.51012 0.9294 0.40268 0.0
C2578 C 0.57881 0.84363 0.43803 0.0
C2579 C 0.5933 0.84547 0.42582 0.0
C2580 C 0.55242 0.84942 0.43913 0.0
C2581 C 0.54015 0.85759 0.42808 0.0
C2582 C 0.55564 0.86087 0.41603 0.0
C2583 C 0.58154 0.85458 0.41489 0.0
C2584 C 0.51061 0.86166 0.42887 0.0
C2585 C 0.51309 0.89124 0.42492 0.0
C2586 C 0.47996 0.83648 0.43334 0.0
C2587 C 0.4749 0.80401 0.43703 0.0
C2588 C 0.48186 0.78567 0.42813 0.0
C2589 C 0.47716 0.75515 0.4317 0.0
C2590 C 0.46522 0.74254 0.44409 0.0
C2591 C 0.45786 0.76041 0.45293 0.0
C2592 C 0.46259 0.79099 0.44943 0.0
C2593 C 0.38813 0.89019 0.41994 0.0
C2594 C 0.36854 0.88126 0.4312 0.0
C2595 C 0.41602 0.88677 0.41942 0.0
C2596 C 0.42543 0.87479 0.43022 0.0
C2597 C 0.40561 0.86572 0.44143 0.0
C2598 C 0.37765 0.86887 0.4419 0.0
C2599 C 0.45544 0.87125 0.42987 0.0
C2600 C 0.45304 0.84165 0.43384 0.0
C2601 C 0.48626 0.89652 0.42552 0.0
C2602 C 0.49167 0.92923 0.42206 0.0
C2603 C 0.48453 0.94721 0.43106 0.0
C2604 C 0.48953 0.97797 0.42771 0.0
C2605 C 0.5019 0.99112 0.41542 0.0
C2606 C 0.50937 0.97357 0.40647 0.0
C2607 C 0.50439 0.94278 0.40976 0.0
H2608 H 0.50575 0.01493 0.41285 0.0
H2609 H 0.46158 0.7189 0.44683 0.0
H2610 H 0.87548 0.88132 0.22256 0.0
H2611 H 0.92851 0.88419 0.2234 0.0
H2612 H 0.9114 0.8529 0.26356 0.0
H2613 H 0.85768 0.84931 0.26267 0.0
H2614 H 0.97499 0.90921 0.25844 0.0
H2615 H 0.90624 0.80061 0.24218 0.0
H2616 H 0.86576 0.7591 0.22735 0.0
H2617 H 0.9291 0.80521 0.1947 0.0
H2618 H 0.9698 0.84732 0.20932 0.0
H2619 H 0.10702 0.88252 0.26743 0.0
H2620 H 0.05179 0.87346 0.26569 0.0
H2621 H 0.06498 0.89269 0.22435 0.0
H2622 H 0.12078 0.90186 0.22602 0.0
H2623 H 1.00324 0.84259 0.2297 0.0
H2624 H 0.07121 0.95086 0.24468 0.0
H2625 H 0.11256 0.99467 0.25849 0.0
H2626 H 0.05194 0.95284 0.29221 0.0
H2627 H 1.01042 0.90845 0.27862 0.0
C2628 C 0.88284 0.87478 0.23156 0.0
C2629 C 0.86222 0.86491 0.24254 0.0
C2630 C 0.91323 0.87642 0.23202 0.0
C2631 C 0.92408 0.86866 0.24352 0.0
C2632 C 0.90363 0.85898 0.25455 0.0
C2633 C 0.87286 0.85678 0.25403 0.0
C2634 C 0.95693 0.87119 0.24398 0.0
C2635 C 0.98096 0.89423 0.25232 0.0
C2636 C 0.96532 0.85262 0.23564 0.0
C2637 C 0.94092 0.82732 0.22683 0.0
C2638 C 0.91142 0.80209 0.23182 0.0
C2639 C 0.88846 0.77841 0.22346 0.0
C2640 C 0.89481 0.77957 0.21009 0.0
C2641 C 0.92419 0.80437 0.20506 0.0
C2642 C 0.94722 0.82814 0.21338 0.0
C2643 C 0.09822 0.8845 0.25789 0.0
C2644 C 0.11867 0.89313 0.24687 0.0
C2645 C 0.06651 0.87945 0.25694 0.0
C2646 C 0.05416 0.88294 0.24493 0.0
C2647 C 0.07387 0.88998 0.23375 0.0
C2648 C 0.10581 0.89516 0.23471 0.0
C2649 C 0.02124 0.88035 0.24429 0.0
C2650 C 0.99726 0.85747 0.23588 0.0
C2651 C 1.01301 0.89943 0.25243 0.0
C2652 C 0.03784 0.92612 0.26065 0.0
C2653 C 0.06681 0.95084 0.25506 0.0
C2654 C 0.09026 0.9758 0.26284 0.0
C2655 C 0.08491 0.97649 0.27622 0.0
C2656 C 0.05606 0.95224 0.28184 0.0
C2657 C 0.03255 0.92718 0.2741 0.0
H2658 H 0.10309 0.99584 0.28223 0.0
H2659 H 0.87701 0.7612 0.20363 0.0
H2660 H 0.27527 0.06345 0.23708 0.0
H2661 H 0.27016 0.11259 0.23653 0.0
H2662 H 0.17716 0.06017 0.2559 0.0
H2663 H 0.18197 1.01121 0.25622 0.0
H2664 H 0.17123 0.09306 0.2372 0.0
H2665 H 0.24937 0.11999 0.2714 0.0
H2666 H 0.30017 0.12882 0.28176 0.0
H2667 H 0.35644 0.20367 0.25385 0.0
H2668 H 0.30592 0.19497 0.24321 0.0
H2669 H 0.15006 0.21898 0.26314 0.0
H2670 H 0.16486 0.17692 0.2611 0.0
H2671 H 0.23549 0.23321 0.23161 0.0
H2672 H 0.22014 0.27585 0.23339 0.0
H2673 H 0.25613 0.20155 0.25312 0.0
H2674 H 0.17355 0.17545 0.22044 0.0
H2675 H 0.1207 0.16661 0.21233 0.0
H2676 H 0.07056 0.08906 0.23991 0.0
H2677 H 0.12316 0.09781 0.24835 0.0
C2678 C 0.25393 0.06257 0.24134 0.0
C2679 C 0.22913 0.03337 0.24675 0.0
C2680 C 0.251 0.09075 0.24104 0.0
C2681 C 0.22329 0.09051 0.24624 0.0
C2682 C 0.19875 0.06132 0.25176 0.0
C2683 C 0.20164 0.03325 0.25202 0.0
C2684 C 0.21917 0.12008 0.24569 0.0
C2685 C 0.18985 0.11666 0.24077 0.0
C2686 C 0.24347 0.15136 0.25009 0.0
C2687 C 0.27388 0.15653 0.2564 0.0
C2688 C 0.27258 0.13812 0.2674 0.0
C2689 C 0.30132 0.14314 0.27334 0.0
C2690 C 0.33152 0.16671 0.26844 0.0
C2691 C 0.33303 0.18536 0.25761 0.0
C2692 C 0.30435 0.18041 0.25162 0.0
C2693 C 0.16896 0.22284 0.25624 0.0
C2694 C 0.18384 0.2511 0.24841 0.0
C2695 C 0.17735 0.19852 0.25509 0.0
C2696 C 0.20121 0.20164 0.24619 0.0
C2697 C 0.217 0.2302 0.23858 0.0
C2698 C 0.20818 0.25456 0.23958 0.0
C2699 C 0.20825 0.17423 0.24472 0.0
C2700 C 0.2379 0.17801 0.24935 0.0
C2701 C 0.18406 0.14309 0.24027 0.0
C2702 C 0.15235 0.1375 0.23511 0.0
C2703 C 0.15127 0.15669 0.22485 0.0
C2704 C 0.12135 0.15167 0.22018 0.0
C2705 C 0.09229 0.12735 0.22563 0.0
C2706 C 0.0931 0.10792 0.23572 0.0
C2707 C 0.12297 0.11289 0.24044 0.0
H2708 H 0.06915 0.12351 0.222 0.0
H2709 H 0.35374 0.17058 0.27306 0.0
H2710 H 0.84051 0.97416 0.22704 0.0
H2711 H 0.88504 0.03091 0.22555 0.0
H2712 H 0.8835 0.0404 0.26737 0.0
H2713 H 0.83953 0.98373 0.26893 0.0
H2714 H 0.89123 0.09593 0.25395 0.0
H2715 H 0.93829 0.02644 0.25469 0.0
H2716 H 0.94613 0.98145 0.24709 0.0
H2717 H 0.97688 0.02723 0.20959 0.0
H2718 H 0.96864 0.07222 0.21689 0.0
H2719 H 0.04693 0.23961 0.26292 0.0
H2720 H 0.99812 0.18539 0.2641 0.0
H2721 H 1.01279 0.16722 0.22408 0.0
H2722 H 0.06205 0.22058 0.2231 0.0
H2723 H 0.99722 0.11563 0.23657 0.0
H2724 H 0.95013 0.18477 0.23515 0.0
H2725 H 0.94127 0.22957 0.24213 0.0
H2726 H 0.90979 0.18514 0.27983 0.0
H2727 H 0.91885 0.14026 0.27312 0.0
C2728 C 0.84922 0.98851 0.23589 0.0
C2729 C 0.83633 0.9743 0.2481 0.0
C2730 C 0.87489 0.02093 0.23504 0.0
C2731 C 0.88795 0.04002 0.24637 0.0
C2732 C 0.87399 0.02632 0.25849 0.0
C2733 C 0.84878 0.99383 0.25936 0.0
C2734 C 0.91709 0.07362 0.24572 0.0
C2735 C 0.91449 0.10023 0.25024 0.0
C2736 C 0.94741 0.0795 0.24069 0.0
C2737 C 0.95243 0.05249 0.23629 0.0
C2738 C 0.94639 0.02675 0.24478 0.0
C2739 C 0.95097 1.00128 0.24053 0.0
C2740 C 0.96189 1.00142 0.22785 0.0
C2741 C 0.96834 0.0271 0.2194 0.0
C2742 C 0.96372 0.0526 0.22359 0.0
C2743 C 0.03952 0.2241 0.25436 0.0
C2744 C 0.05832 0.23453 0.2429 0.0
C2745 C 1.01145 0.19305 0.255 0.0
C2746 C 1.00112 0.17192 0.24412 0.0
C2747 C 1.01992 0.18267 0.23265 0.0
C2748 C 0.04811 0.2134 0.23207 0.0
C2749 C 0.97147 0.13838 0.24466 0.0
C2750 C 0.97398 0.1116 0.24018 0.0
C2751 C 0.94098 0.13243 0.24962 0.0
C2752 C 0.93548 0.15934 0.25367 0.0
C2753 C 0.94154 0.18468 0.24496 0.0
C2754 C 0.93645 0.21006 0.24886 0.0
C2755 C 0.92506 0.21024 0.26142 0.0
C2756 C 0.91866 0.18499 0.2701 0.0
C2757 C 0.92374 0.15956 0.26625 0.0
H2758 H 0.92113 0.22991 0.26443 0.0
H2759 H 0.96542 0.98168 0.22458 0.0
H2760 H 0.8578 0.85181 0.74163 0.0
H2761 H 0.86445 0.90671 0.74073 0.0
H2762 H 0.87859 0.91591 0.78244 0.0
H2763 H 0.87263 0.86152 0.78334 0.0
H2764 H 0.83733 0.93923 0.77324 0.0
H2765 H 0.94259 0.95239 0.76461 0.0
H2766 H 0.98173 0.9409 0.75335 0.0
H2767 H 0.96071 0.97155 0.71693 0.0
H2768 H 0.92098 0.98272 0.72795 0.0
H2769 H 0.90655 0.11316 0.77807 0.0
H2770 H 0.89367 0.05628 0.7798 0.0
H2771 H 0.8969 0.05048 0.73784 0.0
H2772 H 0.91045 0.10717 0.7361 0.0
H2773 H 0.92902 0.02469 0.74767 0.0
H2774 H 0.82352 1.01191 0.7565 0.0
H2775 H 0.78383 0.02238 0.76791 0.0
H2776 H 0.80497 0.99077 0.80407 0.0
H2777 H 0.8451 0.9805 0.79289 0.0
C2778 C 0.86201 0.86543 0.75061 0.0
C2779 C 0.86468 0.85229 0.76255 0.0
C2780 C 0.86592 0.89687 0.75009 0.0
C2781 C 0.87214 0.91564 0.76153 0.0
C2782 C 0.87374 0.90202 0.7735 0.0
C2783 C 0.87039 0.8709 0.77398 0.0
C2784 C 0.87831 0.94987 0.76098 0.0
C2785 C 0.85755 0.95801 0.76774 0.0
C2786 C 0.90445 0.97442 0.75372 0.0
C2787 C 0.92854 0.96805 0.74708 0.0
C2788 C 0.9461 0.95642 0.75418 0.0
C2789 C 0.96843 0.95001 0.74785 0.0
C2790 C 0.97365 0.95541 0.73443 0.0
C2791 C 0.9566 0.96733 0.72732 0.0
C2792 C 0.93418 0.97372 0.73361 0.0
C2793 C 0.90402 0.0996 0.76921 0.0
C2794 C 0.90951 0.1149 0.75695 0.0
C2795 C 0.89662 0.06695 0.7702 0.0
C2796 C 0.89409 0.04865 0.75894 0.0
C2797 C 0.89883 0.0638 0.74671 0.0
C2798 C 0.90643 0.09636 0.74573 0.0
C2799 C 0.88771 0.01423 0.75979 0.0
C2800 C 0.90862 1.00601 0.75312 0.0
C2801 C 0.86168 0.98964 0.76715 0.0
C2802 C 0.83755 0.99576 0.77388 0.0
C2803 C 0.81989 1.00743 0.7669 0.0
C2804 C 0.79728 1.01328 0.77332 0.0
C2805 C 0.79195 1.00733 0.78671 0.0
C2806 C 0.80916 0.99542 0.7937 0.0
C2807 C 0.83182 0.98955 0.78733 0.0
H2808 H 0.77443 1.01187 0.79167 0.0
H2809 H 0.99094 0.95043 0.72954 0.0
H2810 H 0.25381 0.02206 0.75714 0.0
H2811 H 0.20038 0.97189 0.75698 0.0
H2812 H 0.15345 0.02865 0.7637 0.0
H2813 H 0.20654 0.07816 0.76444 0.0
H2814 H 0.12323 0.97904 0.77742 0.0
H2815 H 0.15566 0.99259 0.73253 0.0
H2816 H 0.19109 0.99936 0.71376 0.0
H2817 H 0.18469 0.90775 0.72253 0.0
H2818 H 0.14951 0.90063 0.74146 0.0
H2819 H 0.97742 0.84806 0.737 0.0
H2820 H 0.03399 0.89107 0.73858 0.0
H2821 H 0.03729 0.86453 0.7786 0.0
H2822 H 0.97977 0.82141 0.77714 0.0
H2823 H 0.09019 0.8967 0.7422 0.0
H2824 H 0.08852 0.93278 0.79608 0.0
H2825 H 0.04923 0.93122 0.8123 0.0
H2826 H 0.98842 0.93247 0.78141 0.0
H2827 H 0.02752 0.9344 0.76505 0.0
C2828 C 0.23204 0.02374 0.75854 0.0
C2829 C 0.23454 0.0542 0.76077 0.0
C2830 C 0.20135 0.99499 0.7584 0.0
C2831 C 0.17231 0.99604 0.76021 0.0
C2832 C 0.17507 0.02666 0.76237 0.0
C2833 C 0.20562 0.05517 0.7627 0.0
C2834 C 0.13906 0.9657 0.75991 0.0
C2835 C 0.11627 0.96102 0.76973 0.0
C2836 C 0.12909 0.94203 0.74982 0.0
C2837 C 0.1503 0.94627 0.73849 0.0
C2838 C 0.16202 0.97402 0.73051 0.0
C2839 C 0.18201 0.9779 0.71984 0.0
C2840 C 0.19022 0.95405 0.71698 0.0
C2841 C 0.17837 0.92623 0.72477 0.0
C2842 C 0.1584 0.92225 0.73547 0.0
C2843 C 0.99008 0.851 0.74616 0.0
C2844 C 0.97368 0.83109 0.75697 0.0
C2845 C 0.02274 0.87575 0.74702 0.0
C2846 C 0.04028 0.88165 0.75874 0.0
C2847 C 0.0244 0.86102 0.76946 0.0
C2848 C 0.99148 0.83609 0.7686 0.0
C2849 C 0.07453 0.91018 0.75968 0.0
C2850 C 0.09743 0.91451 0.74999 0.0
C2851 C 0.0842 0.93421 0.76958 0.0
C2852 C 0.06073 0.9333 0.77936 0.0
C2853 C 0.06679 0.93277 0.79277 0.0
C2854 C 0.04456 0.93183 0.80198 0.0
C2855 C 1.01629 0.93161 0.79789 0.0
C2856 C 1.01025 0.93249 0.78457 0.0
C2857 C 0.03241 0.93346 0.77533 0.0
H2858 H 0.99911 0.93086 0.80503 0.0
H2859 H 0.2057 0.95709 0.70871 0.0
H2860 H 0.25373 0.18545 0.73473 0.0
H2861 H 0.21051 0.19894 0.73631 0.0
H2862 H 0.22526 0.21137 0.77795 0.0
H2863 H 0.26849 0.19717 0.77644 0.0
H2864 H 0.16176 0.17564 0.77261 0.0
H2865 H 0.24787 0.27733 0.75653 0.0
H2866 H 0.29247 0.3131 0.74168 0.0
H2867 H 0.22571 0.28115 0.70936 0.0
H2868 H 0.18077 0.24485 0.72398 0.0
H2869 H 0.05274 0.23537 0.78159 0.0
H2870 H 0.10209 0.23121 0.78055 0.0
H2871 H 0.09219 0.22063 0.73869 0.0
H2872 H 0.04301 0.22566 0.7397 0.0
H2873 H 0.15451 0.25721 0.74462 0.0
H2874 H 0.06942 0.15412 0.75988 0.0
H2875 H 0.02419 0.1167 0.77413 0.0
H2876 H 0.0883 0.1494 0.80732 0.0
H2877 H 0.13383 0.18736 0.79328 0.0
C2878 C 0.24823 0.1915 0.74424 0.0
C2879 C 0.26489 0.19029 0.75546 0.0
C2880 C 0.22341 0.19937 0.74512 0.0
C2881 C 0.21451 0.20656 0.75724 0.0
C2882 C 0.23153 0.20602 0.76846 0.0
C2883 C 0.25651 0.19814 0.76758 0.0
C2884 C 0.18651 0.21303 0.75818 0.0
C2885 C 0.16056 0.19394 0.76666 0.0
C2886 C 0.18408 0.23614 0.75013 0.0
C2887 C 0.211 0.25818 0.74134 0.0
C2888 C 0.24274 0.27777 0.74624 0.0
C2889 C 0.26807 0.29817 0.73787 0.0
C2890 C 0.26194 0.29934 0.72458 0.0
C2891 C 0.23043 0.2802 0.71965 0.0
C2892 C 0.20501 0.25974 0.72798 0.0
C2893 C 0.0612 0.23245 0.77214 0.0
C2894 C 0.04381 0.23078 0.76073 0.0
C2895 C 0.0894 0.22981 0.77156 0.0
C2896 C 0.10082 0.22489 0.75957 0.0
C2897 C 0.08402 0.22426 0.74809 0.0
C2898 C 0.05584 0.22714 0.74867 0.0
C2899 C 0.1298 0.21984 0.75907 0.0
C2900 C 0.15585 0.23909 0.75064 0.0
C2901 C 0.13224 0.1967 0.76709 0.0
C2902 C 0.10495 0.17382 0.77555 0.0
C2903 C 0.07381 0.1535 0.77023 0.0
C2904 C 0.04813 0.13217 0.77827 0.0
C2905 C 0.05335 0.13074 0.79163 0.0
C2906 C 0.08428 0.15057 0.79697 0.0
C2907 C 0.11004 0.17198 0.78898 0.0
H2908 H 0.03344 0.11421 0.79784 0.0
H2909 H 0.2816 0.31513 0.71812 0.0
H2910 H 0.52821 0.19204 0.59633 0.0
H2911 H 0.58327 0.19901 0.59727 0.0
H2912 H 0.58942 0.20553 0.55529 0.0
H2913 H 0.53486 0.19932 0.55434 0.0
H2914 H 0.61412 0.16644 0.56587 0.0
H2915 H 0.62685 0.27261 0.57142 0.0
H2916 H 0.61559 0.31321 0.58149 0.0
H2917 H 0.64932 0.29903 0.61852 0.0
H2918 H 0.66034 0.25793 0.6087 0.0
H2919 H 0.78809 0.23443 0.5599 0.0
H2920 H 0.73091 0.22093 0.55821 0.0
H2921 H 0.72843 0.23407 0.59979 0.0
H2922 H 0.78533 0.24824 0.60144 0.0
H2923 H 0.70103 0.26287 0.58891 0.0
H2924 H 0.68823 0.1564 0.58352 0.0
H2925 H 0.69799 0.11461 0.5736 0.0
H2926 H 0.66366 0.12824 0.53661 0.0
H2927 H 0.65406 0.17043 0.54628 0.0
C2928 C 0.54115 0.19457 0.5873 0.0
C2929 C 0.52705 0.19505 0.57526 0.0
C2930 C 0.57273 0.1987 0.58784 0.0
C2931 C 0.59077 0.20294 0.57634 0.0
C2932 C 0.57617 0.20225 0.5643 0.0
C2933 C 0.54491 0.19873 0.56377 0.0
C2934 C 0.62526 0.20945 0.57687 0.0
C2935 C 0.63321 0.18769 0.5708 0.0
C2936 C 0.65027 0.23692 0.58343 0.0
C2937 C 0.64408 0.26192 0.58935 0.0
C2938 C 0.63162 0.27794 0.58173 0.0
C2939 C 0.62531 0.30108 0.58739 0.0
C2940 C 0.63162 0.30862 0.60065 0.0
C2941 C 0.64438 0.29312 0.60826 0.0
C2942 C 0.65069 0.26992 0.60265 0.0
C2943 C 0.77518 0.2339 0.56871 0.0
C2944 C 0.79153 0.24239 0.58081 0.0
C2945 C 0.74233 0.22617 0.56774 0.0
C2946 C 0.72481 0.22628 0.57889 0.0
C2947 C 0.74104 0.23394 0.59099 0.0
C2948 C 0.77375 0.24188 0.59193 0.0
C2949 C 0.69012 0.21957 0.57804 0.0
C2950 C 0.68207 0.24146 0.58401 0.0
C2951 C 0.66502 0.19213 0.57142 0.0
C2952 C 0.67076 0.16681 0.56559 0.0
C2953 C 0.683 0.15066 0.57325 0.0
C2954 C 0.68846 0.12687 0.56768 0.0
C2955 C 0.68154 0.11885 0.55448 0.0
C2956 C 0.66906 0.13453 0.54683 0.0
C2957 C 0.66358 0.15836 0.55235 0.0
H2958 H 0.68578 0.10042 0.55018 0.0
H2959 H 0.6267 0.32653 0.60502 0.0
H2960 H 0.88252 0.3688 0.55581 0.0
H2961 H 0.88004 0.41909 0.55648 0.0
H2962 H 0.92001 0.43822 0.59545 0.0
H2963 H 0.92257 0.38759 0.59478 0.0
H2964 H 0.86763 0.44801 0.5935 0.0
H2965 H 0.96645 0.482 0.56961 0.0
H2966 H 1.00077 0.479 0.5522 0.0
H2967 H 0.94069 0.4885 0.52309 0.0
H2968 H 0.90572 0.4911 0.54033 0.0
H2969 H 0.8916 0.60677 0.5983 0.0
H2970 H 0.90222 0.5615 0.59701 0.0
H2971 H 0.86845 0.54389 0.55712 0.0
H2972 H 0.85831 0.58985 0.55828 0.0
H2973 H 0.91891 0.53386 0.55966 0.0
H2974 H 0.81906 0.49776 0.58273 0.0
H2975 H 0.78317 0.49995 0.59963 0.0
H2976 H 0.84273 0.49279 0.62964 0.0
H2977 H 0.87926 0.49102 0.6129 0.0
C2978 C 0.89103 0.3838 0.5645 0.0
C2979 C 0.9029 0.3742 0.57522 0.0
C2980 C 0.88968 0.41269 0.56486 0.0
C2981 C 0.90012 0.43285 0.57597 0.0
C2982 C 0.91189 0.42325 0.58674 0.0
C2983 C 0.91348 0.39436 0.58634 0.0
C2984 C 0.89793 0.46339 0.57637 0.0
C2985 C 0.87934 0.46701 0.58622 0.0
C2986 C 0.91225 0.48791 0.56665 0.0
C2987 C 0.93329 0.48645 0.55627 0.0
C2988 C 0.9604 0.48319 0.5595 0.0
C2989 C 0.98 0.48161 0.54966 0.0
C2990 C 0.97287 0.48348 0.53655 0.0
C2991 C 0.94616 0.48702 0.53325 0.0
C2992 C 0.92646 0.48858 0.54305 0.0
C2993 C 0.8868 0.59361 0.58917 0.0
C2994 C 0.87391 0.60201 0.57841 0.0
C2995 C 0.8927 0.56745 0.58847 0.0
C2996 C 0.88546 0.54853 0.57707 0.0
C2997 C 0.87409 0.55783 0.56608 0.0
C2998 C 0.86836 0.58424 0.56674 0.0
C2999 C 0.8887 0.51854 0.57682 0.0
C3000 C 0.90734 0.51495 0.56698 0.0
C3001 C 0.87416 0.49385 0.58647 0.0
C3002 C 0.85207 0.49457 0.59656 0.0
C3003 C 0.82463 0.49686 0.59293 0.0
C3004 C 0.80415 0.498 0.60249 0.0
C3005 C 0.81071 0.49659 0.6157 0.0
C3006 C 0.8377 0.49393 0.61939 0.0
C3007 C 0.85829 0.49283 0.60988 0.0
H3008 H 0.79484 0.49749 0.62309 0.0
H3009 H 0.98807 0.48225 0.52894 0.0
H3010 H 0.55382 0.30088 0.58888 0.0
H3011 H 0.59505 0.35789 0.58764 0.0
H3012 H 0.52698 0.37914 0.56821 0.0
H3013 H 0.48522 0.32076 0.56897 0.0
H3014 H 0.58634 0.41541 0.55779 0.0
H3015 H 0.54739 0.39753 0.60178 0.0
H3016 H 0.53148 0.36905 0.62296 0.0
H3017 H 0.62872 0.38634 0.62852 0.0
H3018 H 0.64514 0.41464 0.60731 0.0
H3019 H 0.70102 0.58634 0.56842 0.0
H3020 H 0.6513 0.5325 0.56857 0.0
H3021 H 0.70422 0.49172 0.58751 0.0
H3022 H 0.75345 0.54523 0.58753 0.0
H3023 H 0.64686 0.46796 0.59847 0.0
H3024 H 0.68446 0.48199 0.55382 0.0
H3025 H 0.70047 0.50986 0.53252 0.0
H3026 H 0.60576 0.50003 0.52826 0.0
H3027 H 0.58933 0.47243 0.54963 0.0
C3028 C 0.54728 0.31748 0.58435 0.0
C3029 C 0.51576 0.30602 0.57922 0.0
C3030 C 0.57109 0.3504 0.5837 0.0
C3031 C 0.56419 0.37344 0.5782 0.0
C3032 C 0.53302 0.36209 0.57266 0.0
C3033 C 0.50907 0.32868 0.57312 0.0
C3034 C 0.58977 0.40905 0.57844 0.0
C3035 C 0.59909 0.42705 0.56675 0.0
C3036 C 0.60706 0.42456 0.59005 0.0
C3037 C 0.59744 0.4081 0.60293 0.0
C3038 C 0.56535 0.39517 0.6075 0.0
C3039 C 0.55624 0.37906 0.61952 0.0
C3040 C 0.57907 0.37586 0.62708 0.0
C3041 C 0.61108 0.38886 0.62266 0.0
C3042 C 0.62032 0.40501 0.61066 0.0
C3043 C 0.70192 0.5659 0.5727 0.0
C3044 C 0.73126 0.57019 0.57799 0.0
C3045 C 0.6735 0.53499 0.57269 0.0
C3046 C 0.67378 0.50759 0.57792 0.0
C3047 C 0.70304 0.51218 0.58341 0.0
C3048 C 0.73131 0.54293 0.58341 0.0
C3049 C 0.644 0.47412 0.57778 0.0
C3050 C 0.63386 0.45651 0.58953 0.0
C3051 C 0.62602 0.45911 0.56625 0.0
C3052 C 0.6358 0.4755 0.55338 0.0
C3053 C 0.66714 0.48599 0.54838 0.0
C3054 C 0.67627 0.5017 0.53629 0.0
C3055 C 0.65419 0.50681 0.52906 0.0
C3056 C 0.62287 0.49611 0.53389 0.0
C3057 C 0.61363 0.48042 0.54598 0.0
H3058 H 0.66131 0.51899 0.5197 0.0
H3059 H 0.57196 0.36334 0.63637 0.0
loop_
_geom_bond_atom_site_label_1
_geom_bond_atom_site_label_2
_geom_bond_distance
_geom_bond_site_symmetry_2
_ccdc_geom_bond_type
O0 Tb1 2.506 . S
O0 C14 1.265 . S
Tb1 O0 2.506 . S
Tb1 O6 2.312 . S
Tb1 O10 2.271 . S
Tb1 O12 2.338 . S
Tb1 O19 2.441 . S
C2 O10 1.252 . S
C2 O11 1.253 1_545 S
O3 Tb4 2.271 . S
O3 C13 1.252 . S
Tb4 O3 2.271 . S
Tb4 O7 2.338 . S
Tb4 O11 2.312 . S
Tb4 O15 2.441 . S
Tb4 O16 2.506 . S
C5 O15 1.244 . S
C5 O16 1.265 . S
O6 Tb1 2.312 . S
O6 C13 1.253 1_545 S
O7 Tb4 2.338 . S
O7 C8 1.258 . S
C8 O7 1.258 . S
C8 O9 1.251 . S
O9 C8 1.251 . S
O10 Tb1 2.271 . S
O10 C2 1.252 . S
O11 C2 1.253 1_565 S
O11 Tb4 2.312 . S
O12 Tb1 2.338 . S
O12 C17 1.258 . S
C13 O3 1.252 . S
C13 O6 1.253 1_565 S
C14 O0 1.265 . S
C14 O19 1.244 . S
O15 Tb4 2.441 . S
O15 C5 1.244 . S
O16 Tb4 2.506 . S
O16 C5 1.265 . S
C17 O12 1.258 . S
C17 O18 1.251 . S
O18 C17 1.251 . S
O19 Tb1 2.441 . S
O19 C14 1.244 . S
O20 Tb21 2.506 . S
O20 C34 1.265 . S
Tb21 O20 2.506 . S
Tb21 O26 2.312 1_655 S
Tb21 O30 2.271 1_655 S
Tb21 O32 2.338 . S
Tb21 O39 2.441 . S
C22 O30 1.252 . S
C22 O31 1.253 . S
O23 Tb24 2.271 . S
O23 C33 1.252 . S
Tb24 O23 2.271 . S
Tb24 O27 2.338 . S
Tb24 O31 2.312 . S
Tb24 O35 2.441 . S
Tb24 O36 2.506 . S
C25 O35 1.244 . S
C25 O36 1.265 . S
O26 Tb21 2.312 1_455 S
O26 C33 1.253 . S
O27 Tb24 2.338 . S
O27 C28 1.258 . S
C28 O27 1.258 . S
C28 O29 1.251 . S
O29 C28 1.251 . S
O30 Tb21 2.271 1_455 S
O30 C22 1.252 . S
O31 C22 1.253 . S
O31 Tb24 2.312 . S
O32 Tb21 2.338 . S
O32 C37 1.258 . S
C33 O23 1.252 . S
C33 O26 1.253 . S
C34 O20 1.265 . S
C34 O39 1.244 . S
O35 Tb24 2.441 . S
O35 C25 1.244 . S
O36 Tb24 2.506 . S
O36 C25 1.265 . S
C37 O32 1.258 . S
C37 O38 1.251 . S
O38 C37 1.251 . S
O39 Tb21 2.441 . S
O39 C34 1.244 . S
O40 Tb41 2.506 . S
O40 C54 1.265 . S
Tb41 O40 2.506 . S
Tb41 O46 2.312 . S
Tb41 O50 2.271 . S
Tb41 O52 2.338 . S
Tb41 O59 2.441 . S
C42 O50 1.252 . S
C42 O51 1.253 . S
O43 Tb44 2.271 . S
O43 C53 1.252 . S
Tb44 O43 2.271 . S
Tb44 O47 2.338 . S
Tb44 O51 2.312 . S
Tb44 O55 2.441 . S
Tb44 O56 2.506 . S
C45 O55 1.244 . S
C45 O56 1.265 . S
O46 Tb41 2.312 . S
O46 C53 1.253 . S
O47 Tb44 2.338 . S
O47 C48 1.258 . S
C48 O47 1.258 . S
C48 O49 1.251 . S
O49 C48 1.251 . S
O50 Tb41 2.271 . S
O50 C42 1.252 . S
O51 C42 1.253 . S
O51 Tb44 2.312 . S
O52 Tb41 2.338 . S
O52 C57 1.258 . S
C53 O43 1.252 . S
C53 O46 1.253 . S
C54 O40 1.265 . S
C54 O59 1.244 . S
O55 Tb44 2.441 . S
O55 C45 1.244 . S
O56 Tb44 2.506 . S
O56 C45 1.265 . S
C57 O52 1.258 . S
C57 O58 1.251 . S
O58 C57 1.251 . S
O59 Tb41 2.441 . S
O59 C54 1.244 . S
O60 Tb61 2.506 . S
O60 C74 1.265 . S
Tb61 O60 2.506 . S
Tb61 O66 2.312 . S
Tb61 O70 2.271 . S
Tb61 O72 2.338 . S
Tb61 O79 2.441 . S
C62 O70 1.252 . S
C62 O71 1.253 1_455 S
O63 Tb64 2.271 . S
O63 C73 1.252 . S
Tb64 O63 2.271 . S
Tb64 O67 2.338 . S
Tb64 O71 2.312 . S
Tb64 O75 2.441 . S
Tb64 O76 2.506 . S
C65 O75 1.244 . S
C65 O76 1.265 . S
O66 Tb61 2.312 . S
O66 C73 1.253 1_455 S
O67 Tb64 2.338 . S
O67 C68 1.258 . S
C68 O67 1.258 . S
C68 O69 1.251 . S
O69 C68 1.251 . S
O70 Tb61 2.271 . S
O70 C62 1.252 . S
O71 C62 1.253 1_655 S
O71 Tb64 2.312 . S
O72 Tb61 2.338 . S
O72 C77 1.258 . S
C73 O63 1.252 . S
C73 O66 1.253 1_655 S
C74 O60 1.265 . S
C74 O79 1.244 . S
O75 Tb64 2.441 . S
O75 C65 1.244 . S
O76 Tb64 2.506 . S
O76 C65 1.265 . S
C77 O72 1.258 . S
C77 O78 1.251 . S
O78 C77 1.251 . S
O79 Tb61 2.441 . S
O79 C74 1.244 . S
O80 Tb81 2.506 . S
O80 C94 1.265 . S
Tb81 O80 2.506 . S
Tb81 O86 2.312 . S
Tb81 O90 2.271 . S
Tb81 O92 2.338 . S
Tb81 O99 2.441 . S
C82 O90 1.252 . S
C82 O91 1.253 . S
O83 Tb84 2.271 . S
O83 C93 1.252 . S
Tb84 O83 2.271 . S
Tb84 O87 2.338 . S
Tb84 O91 2.312 . S
Tb84 O95 2.441 . S
Tb84 O96 2.506 . S
C85 O95 1.244 . S
C85 O96 1.265 . S
O86 Tb81 2.312 . S
O86 C93 1.253 . S
O87 Tb84 2.338 . S
O87 C88 1.258 . S
C88 O87 1.258 . S
C88 O89 1.251 . S
O89 C88 1.251 . S
O90 Tb81 2.271 . S
O90 C82 1.252 . S
O91 C82 1.253 . S
O91 Tb84 2.312 . S
O92 Tb81 2.338 . S
O92 C97 1.258 . S
C93 O83 1.252 . S
C93 O86 1.253 . S
C94 O80 1.265 . S
C94 O99 1.244 . S
O95 Tb84 2.441 . S
O95 C85 1.244 . S
O96 Tb84 2.506 . S
O96 C85 1.265 . S
C97 O92 1.258 . S
C97 O98 1.251 . S
O98 C97 1.251 . S
O99 Tb81 2.441 . S
O99 C94 1.244 . S
O100 Tb101 2.506 . S
O100 C114 1.265 . S
Tb101 O100 2.506 . S
Tb101 O106 2.312 1_565 S
Tb101 O110 2.271 1_565 S
Tb101 O112 2.338 . S
Tb101 O119 2.441 . S
C102 O110 1.252 . S
C102 O111 1.253 . S
O103 Tb104 2.271 . S
O103 C113 1.252 . S
Tb104 O103 2.271 . S
Tb104 O107 2.338 . S
Tb104 O111 2.312 . S
Tb104 O115 2.441 . S
Tb104 O116 2.506 . S
C105 O115 1.244 . S
C105 O116 1.265 . S
O106 Tb101 2.312 1_545 S
O106 C113 1.253 . S
O107 Tb104 2.338 . S
O107 C108 1.258 . S
C108 O107 1.258 . S
C108 O109 1.251 . S
O109 C108 1.251 . S
O110 Tb101 2.271 1_545 S
O110 C102 1.252 . S
O111 C102 1.253 . S
O111 Tb104 2.312 . S
O112 Tb101 2.338 . S
O112 C117 1.258 . S
C113 O103 1.252 . S
C113 O106 1.253 . S
C114 O100 1.265 . S
C114 O119 1.244 . S
O115 Tb104 2.441 . S
O115 C105 1.244 . S
O116 Tb104 2.506 . S
O116 C105 1.265 . S
C117 O112 1.258 . S
C117 O118 1.251 . S
O118 C117 1.251 . S
O119 Tb101 2.441 . S
O119 C114 1.244 . S
O120 Tb121 2.506 . S
O120 C134 1.265 . S
Tb121 O120 2.506 . S
Tb121 O126 2.312 . S
Tb121 O130 2.271 . S
Tb121 O132 2.338 . S
Tb121 O139 2.441 . S
C122 O130 1.252 . S
C122 O131 1.253 . S
O123 Tb124 2.271 . S
O123 C133 1.252 . S
Tb124 O123 2.271 . S
Tb124 O127 2.338 . S
Tb124 O131 2.312 . S
Tb124 O135 2.441 . S
Tb124 O136 2.506 . S
C125 O135 1.244 . S
C125 O136 1.265 . S
O126 Tb121 2.312 . S
O126 C133 1.253 . S
O127 Tb124 2.338 . S
O127 C128 1.258 . S
C128 O127 1.258 . S
C128 O129 1.251 . S
O129 C128 1.251 . S
O130 Tb121 2.271 . S
O130 C122 1.252 . S
O131 C122 1.253 . S
O131 Tb124 2.312 . S
O132 Tb121 2.338 . S
O132 C137 1.258 . S
C133 O123 1.252 . S
C133 O126 1.253 . S
C134 O120 1.265 . S
C134 O139 1.244 . S
O135 Tb124 2.441 . S
O135 C125 1.244 . S
O136 Tb124 2.506 . S
O136 C125 1.265 . S
C137 O132 1.258 . S
C137 O138 1.251 . S
O138 C137 1.251 . S
O139 Tb121 2.441 . S
O139 C134 1.244 . S
O140 Tb141 2.506 . S
O140 C154 1.265 . S
Tb141 O140 2.506 . S
Tb141 O146 2.312 . S
Tb141 O150 2.271 . S
Tb141 O152 2.338 . S
Tb141 O159 2.441 . S
C142 O150 1.252 . S
C142 O151 1.253 . S
O143 Tb144 2.271 . S
O143 C153 1.252 . S
Tb144 O143 2.271 . S
Tb144 O147 2.338 . S
Tb144 O151 2.312 . S
Tb144 O155 2.441 . S
Tb144 O156 2.506 . S
C145 O155 1.244 . S
C145 O156 1.265 . S
O146 Tb141 2.312 . S
O146 C153 1.253 . S
O147 Tb144 2.338 . S
O147 C148 1.258 . S
C148 O147 1.258 . S
C148 O149 1.251 . S
O149 C148 1.251 . S
O150 Tb141 2.271 . S
O150 C142 1.252 . S
O151 C142 1.253 . S
O151 Tb144 2.312 . S
O152 Tb141 2.338 . S
O152 C157 1.258 . S
C153 O143 1.252 . S
C153 O146 1.253 . S
C154 O140 1.265 . S
C154 O159 1.244 . S
O155 Tb144 2.441 . S
O155 C145 1.244 . S
O156 Tb144 2.506 . S
O156 C145 1.265 . S
C157 O152 1.258 . S
C157 O158 1.251 . S
O158 C157 1.251 . S
O159 Tb141 2.441 . S
O159 C154 1.244 . S
O160 Tb161 2.506 . S
O160 C174 1.265 . S
Tb161 O160 2.506 . S
Tb161 O166 2.312 . S
Tb161 O170 2.271 . S
Tb161 O172 2.338 . S
Tb161 O179 2.441 . S
C162 O170 1.252 . S
C162 O171 1.253 . S
O163 Tb164 2.271 . S
O163 C173 1.252 . S
Tb164 O163 2.271 . S
Tb164 O167 2.338 . S
Tb164 O171 2.312 . S
Tb164 O175 2.441 . S
Tb164 O176 2.506 . S
C165 O175 1.244 . S
C165 O176 1.265 . S
O166 Tb161 2.312 . S
O166 C173 1.253 . S
O167 Tb164 2.338 . S
O167 C168 1.258 . S
C168 O167 1.258 . S
C168 O169 1.251 . S
O169 C168 1.251 . S
O170 Tb161 2.271 . S
O170 C162 1.252 . S
O171 C162 1.253 . S
O171 Tb164 2.312 . S
O172 Tb161 2.338 . S
O172 C177 1.258 . S
C173 O163 1.252 . S
C173 O166 1.253 . S
C174 O160 1.265 . S
C174 O179 1.244 . S
O175 Tb164 2.441 . S
O175 C165 1.244 . S
O176 Tb164 2.506 . S
O176 C165 1.265 . S
C177 O172 1.258 . S
C177 O178 1.251 . S
O178 C177 1.251 . S
O179 Tb161 2.441 . S
O179 C174 1.244 . S
O180 Tb181 2.506 . S
O180 C194 1.265 . S
Tb181 O180 2.506 . S
Tb181 O186 2.312 . S
Tb181 O190 2.271 . S
Tb181 O192 2.338 . S
Tb181 O199 2.441 . S
C182 O190 1.252 . S
C182 O191 1.253 . S
O183 Tb184 2.271 . S
O183 C193 1.252 . S
Tb184 O183 2.271 . S
Tb184 O187 2.338 . S
Tb184 O191 2.312 . S
Tb184 O195 2.441 . S
Tb184 O196 2.506 . S
C185 O195 1.244 . S
C185 O196 1.265 . S
O186 Tb181 2.312 . S
O186 C193 1.253 . S
O187 Tb184 2.338 . S
O187 C188 1.258 . S
C188 O187 1.258 . S
C188 O189 1.251 . S
O189 C188 1.251 . S
O190 Tb181 2.271 . S
O190 C182 1.252 . S
O191 C182 1.253 . S
O191 Tb184 2.312 . S
O192 Tb181 2.338 . S
O192 C197 1.258 . S
C193 O183 1.252 . S
C193 O186 1.253 . S
C194 O180 1.265 . S
C194 O199 1.244 . S
O195 Tb184 2.441 . S
O195 C185 1.244 . S
O196 Tb184 2.506 . S
O196 C185 1.265 . S
C197 O192 1.258 . S
C197 O198 1.251 . S
O198 C197 1.251 . S
O199 Tb181 2.441 . S
O199 C194 1.244 . S
O200 Tb201 2.506 . S
O200 C214 1.265 . S
Tb201 O200 2.506 . S
Tb201 O206 2.312 . S
Tb201 O210 2.271 . S
Tb201 O212 2.338 . S
Tb201 O219 2.441 . S
C202 O210 1.252 . S
C202 O211 1.253 . S
O203 Tb204 2.271 . S
O203 C213 1.252 . S
Tb204 O203 2.271 . S
Tb204 O207 2.338 . S
Tb204 O211 2.312 . S
Tb204 O215 2.441 . S
Tb204 O216 2.506 . S
C205 O215 1.244 . S
C205 O216 1.265 . S
O206 Tb201 2.312 . S
O206 C213 1.253 . S
O207 Tb204 2.338 . S
O207 C208 1.258 . S
C208 O207 1.258 . S
C208 O209 1.251 . S
O209 C208 1.251 . S
O210 Tb201 2.271 . S
O210 C202 1.252 . S
O211 C202 1.253 . S
O211 Tb204 2.312 . S
O212 Tb201 2.338 . S
O212 C217 1.258 . S
C213 O203 1.252 . S
C213 O206 1.253 . S
C214 O200 1.265 . S
C214 O219 1.244 . S
O215 Tb204 2.441 . S
O215 C205 1.244 . S
O216 Tb204 2.506 . S
O216 C205 1.265 . S
C217 O212 1.258 . S
C217 O218 1.251 . S
O218 C217 1.251 . S
O219 Tb201 2.441 . S
O219 C214 1.244 . S
O220 Tb221 2.506 . S
O220 C234 1.265 . S
Tb221 O220 2.506 . S
Tb221 O226 2.312 . S
Tb221 O230 2.271 . S
Tb221 O232 2.338 . S
Tb221 O239 2.441 . S
C222 O230 1.252 . S
C222 O231 1.253 . S
O223 Tb224 2.271 . S
O223 C233 1.252 . S
Tb224 O223 2.271 . S
Tb224 O227 2.338 . S
Tb224 O231 2.312 . S
Tb224 O235 2.441 . S
Tb224 O236 2.506 . S
C225 O235 1.244 . S
C225 O236 1.265 . S
O226 Tb221 2.312 . S
O226 C233 1.253 . S
O227 Tb224 2.338 . S
O227 C228 1.258 . S
C228 O227 1.258 . S
C228 O229 1.251 . S
O229 C228 1.251 . S
O230 Tb221 2.271 . S
O230 C222 1.252 . S
O231 C222 1.253 . S
O231 Tb224 2.312 . S
O232 Tb221 2.338 . S
O232 C237 1.258 . S
C233 O223 1.252 . S
C233 O226 1.253 . S
C234 O220 1.265 . S
C234 O239 1.244 . S
O235 Tb224 2.441 . S
O235 C225 1.244 . S
O236 Tb224 2.506 . S
O236 C225 1.265 . S
C237 O232 1.258 . S
C237 O238 1.251 . S
O238 C237 1.251 . S
O239 Tb221 2.441 . S
O239 C234 1.244 . S
O240 Tb241 2.506 . S
O240 C254 1.265 . S
Tb241 O240 2.506 . S
Tb241 O246 2.312 . S
Tb241 O250 2.271 . S
Tb241 O252 2.338 . S
Tb241 O259 2.441 . S
C242 O250 1.252 . S
C242 O251 1.253 . S
O243 Tb244 2.271 . S
O243 C253 1.252 . S
Tb244 O243 2.271 . S
Tb244 O247 2.338 . S
Tb244 O251 2.312 . S
Tb244 O255 2.441 . S
Tb244 O256 2.506 . S
C245 O255 1.244 . S
C245 O256 1.265 . S
O246 Tb241 2.312 . S
O246 C253 1.253 . S
O247 Tb244 2.338 . S
O247 C248 1.258 . S
C248 O247 1.258 . S
C248 O249 1.251 . S
O249 C248 1.251 . S
O250 Tb241 2.271 . S
O250 C242 1.252 . S
O251 C242 1.253 . S
O251 Tb244 2.312 . S
O252 Tb241 2.338 . S
O252 C257 1.258 . S
C253 O243 1.252 . S
C253 O246 1.253 . S
C254 O240 1.265 . S
C254 O259 1.244 . S
O255 Tb244 2.441 . S
O255 C245 1.244 . S
O256 Tb244 2.506 . S
O256 C245 1.265 . S
C257 O252 1.258 . S
C257 O258 1.251 . S
O258 C257 1.251 . S
O259 Tb241 2.441 . S
O259 C254 1.244 . S
O260 Tb261 2.506 . S
O260 C274 1.265 . S
Tb261 O260 2.506 . S
Tb261 O266 2.312 . S
Tb261 O270 2.271 . S
Tb261 O272 2.338 . S
Tb261 O279 2.441 . S
C262 O270 1.252 . S
C262 O271 1.253 . S
O263 Tb264 2.271 . S
O263 C273 1.252 . S
Tb264 O263 2.271 . S
Tb264 O267 2.338 . S
Tb264 O271 2.312 . S
Tb264 O275 2.441 . S
Tb264 O276 2.506 . S
C265 O275 1.244 . S
C265 O276 1.265 . S
O266 Tb261 2.312 . S
O266 C273 1.253 . S
O267 Tb264 2.338 . S
O267 C268 1.258 . S
C268 O267 1.258 . S
C268 O269 1.251 . S
O269 C268 1.251 . S
O270 Tb261 2.271 . S
O270 C262 1.252 . S
O271 C262 1.253 . S
O271 Tb264 2.312 . S
O272 Tb261 2.338 . S
O272 C277 1.258 . S
C273 O263 1.252 . S
C273 O266 1.253 . S
C274 O260 1.265 . S
C274 O279 1.244 . S
O275 Tb264 2.441 . S
O275 C265 1.244 . S
O276 Tb264 2.506 . S
O276 C265 1.265 . S
C277 O272 1.258 . S
C277 O278 1.251 . S
O278 C277 1.251 . S
O279 Tb261 2.441 . S
O279 C274 1.244 . S
O280 Tb281 2.506 . S
O280 C294 1.265 . S
Tb281 O280 2.506 . S
Tb281 O286 2.312 . S
Tb281 O290 2.271 . S
Tb281 O292 2.338 . S
Tb281 O299 2.441 . S
C282 O290 1.252 . S
C282 O291 1.253 . S
O283 Tb284 2.271 . S
O283 C293 1.252 . S
Tb284 O283 2.271 . S
Tb284 O287 2.338 . S
Tb284 O291 2.312 . S
Tb284 O295 2.441 . S
Tb284 O296 2.506 . S
C285 O295 1.244 . S
C285 O296 1.265 . S
O286 Tb281 2.312 . S
O286 C293 1.253 . S
O287 Tb284 2.338 . S
O287 C288 1.258 . S
C288 O287 1.258 . S
C288 O289 1.251 . S
O289 C288 1.251 . S
O290 Tb281 2.271 . S
O290 C282 1.252 . S
O291 C282 1.253 . S
O291 Tb284 2.312 . S
O292 Tb281 2.338 . S
O292 C297 1.258 . S
C293 O283 1.252 . S
C293 O286 1.253 . S
C294 O280 1.265 . S
C294 O299 1.244 . S
O295 Tb284 2.441 . S
O295 C285 1.244 . S
O296 Tb284 2.506 . S
O296 C285 1.265 . S
C297 O292 1.258 . S
C297 O298 1.251 . S
O298 C297 1.251 . S
O299 Tb281 2.441 . S
O299 C294 1.244 . S
O300 Tb301 2.506 . S
O300 C314 1.265 . S
Tb301 O300 2.506 . S
Tb301 O306 2.312 . S
Tb301 O310 2.271 . S
Tb301 O312 2.338 . S
Tb301 O319 2.441 . S
C302 O310 1.252 . S
C302 O311 1.253 . S
O303 Tb304 2.271 . S
O303 C313 1.252 . S
Tb304 O303 2.271 . S
Tb304 O307 2.338 . S
Tb304 O311 2.312 . S
Tb304 O315 2.441 . S
Tb304 O316 2.506 . S
C305 O315 1.244 . S
C305 O316 1.265 . S
O306 Tb301 2.312 . S
O306 C313 1.253 . S
O307 Tb304 2.338 . S
O307 C308 1.258 . S
C308 O307 1.258 . S
C308 O309 1.251 . S
O309 C308 1.251 . S
O310 Tb301 2.271 . S
O310 C302 1.252 . S
O311 C302 1.253 . S
O311 Tb304 2.312 . S
O312 Tb301 2.338 . S
O312 C317 1.258 . S
C313 O303 1.252 . S
C313 O306 1.253 . S
C314 O300 1.265 . S
C314 O319 1.244 . S
O315 Tb304 2.441 . S
O315 C305 1.244 . S
O316 Tb304 2.506 . S
O316 C305 1.265 . S
C317 O312 1.258 . S
C317 O318 1.251 . S
O318 C317 1.251 . S
O319 Tb301 2.441 . S
O319 C314 1.244 . S
O320 Tb321 2.506 . S
O320 C334 1.265 . S
Tb321 O320 2.506 . S
Tb321 O326 2.312 . S
Tb321 O330 2.271 . S
Tb321 O332 2.338 . S
Tb321 O339 2.441 . S
C322 O330 1.252 . S
C322 O331 1.253 . S
O323 Tb324 2.271 . S
O323 C333 1.252 . S
Tb324 O323 2.271 . S
Tb324 O327 2.338 . S
Tb324 O331 2.312 . S
Tb324 O335 2.441 . S
Tb324 O336 2.506 . S
C325 O335 1.244 . S
C325 O336 1.265 . S
O326 Tb321 2.312 . S
O326 C333 1.253 . S
O327 Tb324 2.338 . S
O327 C328 1.258 . S
C328 O327 1.258 . S
C328 O329 1.251 . S
O329 C328 1.251 . S
O330 Tb321 2.271 . S
O330 C322 1.252 . S
O331 C322 1.253 . S
O331 Tb324 2.312 . S
O332 Tb321 2.338 . S
O332 C337 1.258 . S
C333 O323 1.252 . S
C333 O326 1.253 . S
C334 O320 1.265 . S
C334 O339 1.244 . S
O335 Tb324 2.441 . S
O335 C325 1.244 . S
O336 Tb324 2.506 . S
O336 C325 1.265 . S
C337 O332 1.258 . S
C337 O338 1.251 . S
O338 C337 1.251 . S
O339 Tb321 2.441 . S
O339 C334 1.244 . S
O340 Tb341 2.506 . S
O340 C354 1.265 . S
Tb341 O340 2.506 . S
Tb341 O346 2.312 . S
Tb341 O350 2.271 . S
Tb341 O352 2.338 . S
Tb341 O359 2.441 . S
C342 O350 1.252 . S
C342 O351 1.253 . S
O343 Tb344 2.271 . S
O343 C353 1.252 . S
Tb344 O343 2.271 . S
Tb344 O347 2.338 . S
Tb344 O351 2.312 . S
Tb344 O355 2.441 . S
Tb344 O356 2.506 . S
C345 O355 1.244 . S
C345 O356 1.265 . S
O346 Tb341 2.312 . S
O346 C353 1.253 . S
O347 Tb344 2.338 . S
O347 C348 1.258 . S
C348 O347 1.258 . S
C348 O349 1.251 . S
O349 C348 1.251 . S
O350 Tb341 2.271 . S
O350 C342 1.252 . S
O351 C342 1.253 . S
O351 Tb344 2.312 . S
O352 Tb341 2.338 . S
O352 C357 1.258 . S
C353 O343 1.252 . S
C353 O346 1.253 . S
C354 O340 1.265 . S
C354 O359 1.244 . S
O355 Tb344 2.441 . S
O355 C345 1.244 . S
O356 Tb344 2.506 . S
O356 C345 1.265 . S
C357 O352 1.258 . S
C357 O358 1.251 . S
O358 C357 1.251 . S
O359 Tb341 2.441 . S
O359 C354 1.244 . S
H360 C378 0.951 . S
H361 C380 0.951 . S
H362 C382 0.950 . S
H363 C383 0.950 . S
H364 C385 0.950 . S
H365 C388 0.950 . S
H366 C389 0.950 . S
H367 C391 0.950 . S
H368 C392 0.950 . S
H369 C393 0.951 . S
H370 C395 0.951 . S
H371 C397 0.950 . S
H372 C398 0.950 . S
H373 C400 0.950 . S
H374 C403 0.950 . S
H375 C404 0.950 . S
H376 C406 0.950 . S
H377 C407 0.950 . S
C378 H360 0.951 . S
C378 C379 1.366 . S
C378 C380 1.388 . S
C379 C378 1.366 . S
C379 C383 1.385 . S
C380 H361 0.951 . S
C380 C378 1.388 . S
C380 C381 1.366 . S
C381 C380 1.366 . S
C381 C382 1.414 . S
C381 C384 1.499 . S
C382 H362 0.950 . S
C382 C381 1.414 . S
C382 C383 1.374 . S
C383 H363 0.950 . S
C383 C379 1.385 . S
C383 C382 1.374 . S
C384 C381 1.499 . S
C384 C385 1.373 . S
C384 C386 1.389 . S
C385 H364 0.950 . S
C385 C384 1.373 . S
C385 C401 1.377 . S
C386 C384 1.389 . S
C386 C387 1.524 . S
C386 C400 1.377 . S
C387 C386 1.524 . S
C387 C388 1.397 . S
C387 C392 1.363 . S
C388 H365 0.950 . S
C388 C387 1.397 . S
C388 C389 1.334 . S
C389 H366 0.950 . S
C389 C388 1.334 . S
C389 C390 1.287 . S
C390 C389 1.287 . S
C390 C391 1.524 . S
C390 H409 0.913 . S
C391 H367 0.950 . S
C391 C390 1.524 . S
C391 C392 1.415 . S
C392 H368 0.950 . S
C392 C387 1.363 . S
C392 C391 1.415 . S
C393 H369 0.951 . S
C393 C394 1.366 . S
C393 C395 1.388 . S
C394 C393 1.366 . S
C394 C398 1.385 . S
C395 H370 0.951 . S
C395 C393 1.388 . S
C395 C396 1.366 . S
C396 C395 1.366 . S
C396 C397 1.414 . S
C396 C399 1.499 . S
C397 H371 0.950 . S
C397 C396 1.414 . S
C397 C398 1.374 . S
C398 H372 0.950 . S
C398 C394 1.385 . S
C398 C397 1.374 . S
C399 C396 1.499 . S
C399 C400 1.373 . S
C399 C401 1.389 . S
C400 H373 0.950 . S
C400 C386 1.377 . S
C400 C399 1.373 . S
C401 C385 1.377 . S
C401 C399 1.389 . S
C401 C402 1.524 . S
C402 C401 1.524 . S
C402 C403 1.397 . S
C402 C407 1.363 . S
C403 H374 0.950 . S
C403 C402 1.397 . S
C403 C404 1.334 . S
C404 H375 0.950 . S
C404 C403 1.334 . S
C404 C405 1.287 . S
C405 C404 1.287 . S
C405 C406 1.524 . S
C405 H408 0.999 . S
C406 H376 0.950 . S
C406 C405 1.524 . S
C406 C407 1.415 . S
C407 H377 0.950 . S
C407 C402 1.363 . S
C407 C406 1.415 . S
H408 C405 0.999 . S
H409 C390 0.913 . S
H410 C428 0.951 . S
H411 C430 0.951 . S
H412 C432 0.950 . S
H413 C433 0.950 . S
H414 C435 0.950 . S
H415 C438 0.950 . S
H416 C439 0.950 . S
H417 C441 0.950 . S
H418 C442 0.950 . S
H419 C443 0.951 . S
H420 C445 0.951 . S
H421 C447 0.950 . S
H422 C448 0.950 . S
H423 C450 0.950 . S
H424 C453 0.950 . S
H425 C454 0.950 . S
H426 C456 0.950 . S
H427 C457 0.950 . S
C428 H410 0.951 . S
C428 C429 1.366 . S
C428 C430 1.388 . S
C429 C428 1.366 . S
C429 C433 1.385 . S
C430 H411 0.951 . S
C430 C428 1.388 . S
C430 C431 1.366 . S
C431 C430 1.366 . S
C431 C432 1.414 . S
C431 C434 1.499 . S
C432 H412 0.950 . S
C432 C431 1.414 . S
C432 C433 1.374 . S
C433 H413 0.950 . S
C433 C429 1.385 . S
C433 C432 1.374 . S
C434 C431 1.499 . S
C434 C435 1.373 . S
C434 C436 1.389 . S
C435 H414 0.950 . S
C435 C434 1.373 . S
C435 C451 1.377 . S
C436 C434 1.389 . S
C436 C437 1.524 . S
C436 C450 1.377 . S
C437 C436 1.524 . S
C437 C438 1.397 . S
C437 C442 1.363 . S
C438 H415 0.950 . S
C438 C437 1.397 . S
C438 C439 1.334 . S
C439 H416 0.950 . S
C439 C438 1.334 . S
C439 C440 1.287 . S
C440 C439 1.287 . S
C440 C441 1.524 . S
C440 H459 0.913 . S
C441 H417 0.950 . S
C441 C440 1.524 . S
C441 C442 1.415 . S
C442 H418 0.950 . S
C442 C437 1.363 . S
C442 C441 1.415 . S
C443 H419 0.951 . S
C443 C444 1.366 . S
C443 C445 1.388 . S
C444 C443 1.366 . S
C444 C448 1.385 . S
C445 H420 0.951 . S
C445 C443 1.388 . S
C445 C446 1.366 . S
C446 C445 1.366 . S
C446 C447 1.414 . S
C446 C449 1.499 . S
C447 H421 0.950 . S
C447 C446 1.414 . S
C447 C448 1.374 . S
C448 H422 0.950 . S
C448 C444 1.385 . S
C448 C447 1.374 . S
C449 C446 1.499 . S
C449 C450 1.373 . S
C449 C451 1.389 . S
C450 H423 0.950 . S
C450 C436 1.377 . S
C450 C449 1.373 . S
C451 C435 1.377 . S
C451 C449 1.389 . S
C451 C452 1.524 . S
C452 C451 1.524 . S
C452 C453 1.397 . S
C452 C457 1.363 . S
C453 H424 0.950 . S
C453 C452 1.397 . S
C453 C454 1.334 . S
C454 H425 0.950 . S
C454 C453 1.334 . S
C454 C455 1.287 . S
C455 C454 1.287 . S
C455 C456 1.524 . S
C455 H458 0.999 . S
C456 H426 0.950 . S
C456 C455 1.524 . S
C456 C457 1.415 . S
C457 H427 0.950 . S
C457 C452 1.363 . S
C457 C456 1.415 . S
H458 C455 0.999 . S
H459 C440 0.913 . S
H460 C478 0.951 . S
H461 C480 0.951 . S
H462 C482 0.950 . S
H463 C483 0.950 . S
H464 C485 0.950 . S
H465 C488 0.950 . S
H466 C489 0.950 . S
H467 C491 0.950 . S
H468 C492 0.950 . S
H469 C493 0.951 . S
H470 C495 0.951 . S
H471 C497 0.950 . S
H472 C498 0.950 . S
H473 C500 0.950 . S
H474 C503 0.950 . S
H475 C504 0.950 . S
H476 C506 0.950 . S
H477 C507 0.950 . S
C478 H460 0.951 . S
C478 C479 1.366 . S
C478 C480 1.388 . S
C479 C478 1.366 . S
C479 C483 1.385 . S
C480 H461 0.951 . S
C480 C478 1.388 . S
C480 C481 1.366 . S
C481 C480 1.366 . S
C481 C482 1.414 . S
C481 C484 1.499 . S
C482 H462 0.950 . S
C482 C481 1.414 . S
C482 C483 1.374 . S
C483 H463 0.950 . S
C483 C479 1.385 . S
C483 C482 1.374 . S
C484 C481 1.499 . S
C484 C485 1.373 . S
C484 C486 1.389 . S
C485 H464 0.950 . S
C485 C484 1.373 . S
C485 C501 1.377 . S
C486 C484 1.389 . S
C486 C487 1.524 . S
C486 C500 1.377 . S
C487 C486 1.524 . S
C487 C488 1.397 . S
C487 C492 1.363 . S
C488 H465 0.950 . S
C488 C487 1.397 . S
C488 C489 1.334 . S
C489 H466 0.950 . S
C489 C488 1.334 . S
C489 C490 1.287 . S
C490 C489 1.287 . S
C490 C491 1.524 . S
C490 H509 0.913 . S
C491 H467 0.950 . S
C491 C490 1.524 . S
C491 C492 1.415 . S
C492 H468 0.950 . S
C492 C487 1.363 . S
C492 C491 1.415 . S
C493 H469 0.951 . S
C493 C494 1.366 . S
C493 C495 1.388 . S
C494 C493 1.366 . S
C494 C498 1.385 . S
C495 H470 0.951 . S
C495 C493 1.388 . S
C495 C496 1.366 . S
C496 C495 1.366 . S
C496 C497 1.414 . S
C496 C499 1.499 . S
C497 H471 0.950 . S
C497 C496 1.414 . S
C497 C498 1.374 . S
C498 H472 0.950 . S
C498 C494 1.385 . S
C498 C497 1.374 . S
C499 C496 1.499 . S
C499 C500 1.373 . S
C499 C501 1.389 . S
C500 H473 0.950 . S
C500 C486 1.377 . S
C500 C499 1.373 . S
C501 C485 1.377 . S
C501 C499 1.389 . S
C501 C502 1.524 . S
C502 C501 1.524 . S
C502 C503 1.397 . S
C502 C507 1.363 . S
C503 H474 0.950 . S
C503 C502 1.397 . S
C503 C504 1.334 . S
C504 H475 0.950 . S
C504 C503 1.334 . S
C504 C505 1.287 . S
C505 C504 1.287 . S
C505 C506 1.524 . S
C505 H508 0.999 . S
C506 H476 0.950 . S
C506 C505 1.524 . S
C506 C507 1.415 . S
C507 H477 0.950 . S
C507 C502 1.363 . S
C507 C506 1.415 . S
H508 C505 0.999 . S
H509 C490 0.913 . S
H510 C528 0.951 . S
H511 C530 0.951 . S
H512 C532 0.950 . S
H513 C533 0.950 . S
H514 C535 0.950 . S
H515 C538 0.950 . S
H516 C539 0.950 . S
H517 C541 0.950 . S
H518 C542 0.950 . S
H519 C543 0.951 . S
H520 C545 0.951 . S
H521 C547 0.950 . S
H522 C548 0.950 . S
H523 C550 0.950 . S
H524 C553 0.950 . S
H525 C554 0.950 . S
H526 C556 0.950 . S
H527 C557 0.950 . S
C528 H510 0.951 . S
C528 C529 1.366 . S
C528 C530 1.388 . S
C529 C528 1.366 . S
C529 C533 1.385 . S
C530 H511 0.951 . S
C530 C528 1.388 . S
C530 C531 1.366 . S
C531 C530 1.366 . S
C531 C532 1.414 . S
C531 C534 1.499 . S
C532 H512 0.950 . S
C532 C531 1.414 . S
C532 C533 1.374 . S
C533 H513 0.950 . S
C533 C529 1.385 . S
C533 C532 1.374 . S
C534 C531 1.499 . S
C534 C535 1.373 . S
C534 C536 1.389 . S
C535 H514 0.950 . S
C535 C534 1.373 . S
C535 C551 1.377 . S
C536 C534 1.389 . S
C536 C537 1.524 . S
C536 C550 1.377 . S
C537 C536 1.524 . S
C537 C538 1.397 . S
C537 C542 1.363 . S
C538 H515 0.950 . S
C538 C537 1.397 . S
C538 C539 1.334 . S
C539 H516 0.950 . S
C539 C538 1.334 . S
C539 C540 1.287 . S
C540 C539 1.287 . S
C540 C541 1.524 . S
C540 H559 0.913 . S
C541 H517 0.950 . S
C541 C540 1.524 . S
C541 C542 1.415 . S
C542 H518 0.950 . S
C542 C537 1.363 . S
C542 C541 1.415 . S
C543 H519 0.951 . S
C543 C544 1.366 . S
C543 C545 1.388 . S
C544 C543 1.366 . S
C544 C548 1.385 . S
C545 H520 0.951 . S
C545 C543 1.388 . S
C545 C546 1.366 . S
C546 C545 1.366 . S
C546 C547 1.414 . S
C546 C549 1.499 . S
C547 H521 0.950 . S
C547 C546 1.414 . S
C547 C548 1.374 . S
C548 H522 0.950 . S
C548 C544 1.385 . S
C548 C547 1.374 . S
C549 C546 1.499 . S
C549 C550 1.373 . S
C549 C551 1.389 . S
C550 H523 0.950 . S
C550 C536 1.377 . S
C550 C549 1.373 . S
C551 C535 1.377 . S
C551 C549 1.389 . S
C551 C552 1.524 . S
C552 C551 1.524 . S
C552 C553 1.397 . S
C552 C557 1.363 . S
C553 H524 0.950 . S
C553 C552 1.397 . S
C553 C554 1.334 . S
C554 H525 0.950 . S
C554 C553 1.334 . S
C554 C555 1.287 . S
C555 C554 1.287 . S
C555 C556 1.524 . S
C555 H558 0.999 . S
C556 H526 0.950 . S
C556 C555 1.524 . S
C556 C557 1.415 . S
C557 H527 0.950 . S
C557 C552 1.363 . S
C557 C556 1.415 . S
H558 C555 0.999 . S
H559 C540 0.913 . S
H560 C578 0.951 . S
H561 C580 0.951 . S
H562 C582 0.950 . S
H563 C583 0.950 . S
H564 C585 0.950 . S
H565 C588 0.950 . S
H566 C589 0.950 . S
H567 C591 0.950 . S
H568 C592 0.950 . S
H569 C593 0.951 . S
H570 C595 0.951 . S
H571 C597 0.950 . S
H572 C598 0.950 . S
H573 C600 0.950 . S
H574 C603 0.950 . S
H575 C604 0.950 . S
H576 C606 0.950 . S
H577 C607 0.950 . S
C578 H560 0.951 . S
C578 C579 1.366 . S
C578 C580 1.388 . S
C579 C578 1.366 . S
C579 C583 1.385 . S
C580 H561 0.951 . S
C580 C578 1.388 . S
C580 C581 1.366 . S
C581 C580 1.366 . S
C581 C582 1.414 . S
C581 C584 1.499 . S
C582 H562 0.950 . S
C582 C581 1.414 . S
C582 C583 1.374 . S
C583 H563 0.950 . S
C583 C579 1.385 . S
C583 C582 1.374 . S
C584 C581 1.499 . S
C584 C585 1.373 . S
C584 C586 1.389 . S
C585 H564 0.950 . S
C585 C584 1.373 . S
C585 C601 1.377 . S
C586 C584 1.389 . S
C586 C587 1.524 . S
C586 C600 1.377 . S
C587 C586 1.524 . S
C587 C588 1.397 . S
C587 C592 1.363 . S
C588 H565 0.950 . S
C588 C587 1.397 . S
C588 C589 1.334 . S
C589 H566 0.950 . S
C589 C588 1.334 . S
C589 C590 1.287 . S
C590 C589 1.287 . S
C590 C591 1.524 . S
C590 H609 0.913 . S
C591 H567 0.950 . S
C591 C590 1.524 . S
C591 C592 1.415 . S
C592 H568 0.950 . S
C592 C587 1.363 . S
C592 C591 1.415 . S
C593 H569 0.951 . S
C593 C594 1.366 . S
C593 C595 1.388 . S
C594 C593 1.366 . S
C594 C598 1.385 . S
C595 H570 0.951 . S
C595 C593 1.388 . S
C595 C596 1.366 . S
C596 C595 1.366 . S
C596 C597 1.414 . S
C596 C599 1.499 . S
C597 H571 0.950 . S
C597 C596 1.414 . S
C597 C598 1.374 . S
C598 H572 0.950 . S
C598 C594 1.385 . S
C598 C597 1.374 . S
C599 C596 1.499 . S
C599 C600 1.373 . S
C599 C601 1.389 . S
C600 H573 0.950 . S
C600 C586 1.377 . S
C600 C599 1.373 . S
C601 C585 1.377 . S
C601 C599 1.389 . S
C601 C602 1.524 . S
C602 C601 1.524 . S
C602 C603 1.397 . S
C602 C607 1.363 . S
C603 H574 0.950 . S
C603 C602 1.397 . S
C603 C604 1.334 . S
C604 H575 0.950 . S
C604 C603 1.334 . S
C604 C605 1.287 . S
C605 C604 1.287 . S
C605 C606 1.524 . S
C605 H608 0.999 . S
C606 H576 0.950 . S
C606 C605 1.524 . S
C606 C607 1.415 . S
C607 H577 0.950 . S
C607 C602 1.363 . S
C607 C606 1.415 . S
H608 C605 0.999 . S
H609 C590 0.913 . S
H610 C628 0.951 . S
H611 C630 0.951 . S
H612 C632 0.950 . S
H613 C633 0.950 . S
H614 C635 0.950 . S
H615 C638 0.950 . S
H616 C639 0.950 . S
H617 C641 0.950 . S
H618 C642 0.950 . S
H619 C643 0.951 . S
H620 C645 0.951 . S
H621 C647 0.950 . S
H622 C648 0.950 . S
H623 C650 0.950 . S
H624 C653 0.950 . S
H625 C654 0.950 . S
H626 C656 0.950 . S
H627 C657 0.950 . S
C628 H610 0.951 . S
C628 C629 1.366 . S
C628 C630 1.388 . S
C629 C628 1.366 . S
C629 C633 1.385 . S
C630 H611 0.951 . S
C630 C628 1.388 . S
C630 C631 1.366 . S
C631 C630 1.366 . S
C631 C632 1.414 . S
C631 C634 1.499 . S
C632 H612 0.950 . S
C632 C631 1.414 . S
C632 C633 1.374 . S
C633 H613 0.950 . S
C633 C629 1.385 . S
C633 C632 1.374 . S
C634 C631 1.499 . S
C634 C635 1.373 . S
C634 C636 1.389 . S
C635 H614 0.950 . S
C635 C634 1.373 . S
C635 C651 1.377 . S
C636 C634 1.389 . S
C636 C637 1.524 . S
C636 C650 1.377 . S
C637 C636 1.524 . S
C637 C638 1.397 . S
C637 C642 1.363 . S
C638 H615 0.950 . S
C638 C637 1.397 . S
C638 C639 1.334 . S
C639 H616 0.950 . S
C639 C638 1.334 . S
C639 C640 1.287 . S
C640 C639 1.287 . S
C640 C641 1.524 . S
C640 H659 0.913 . S
C641 H617 0.950 . S
C641 C640 1.524 . S
C641 C642 1.415 . S
C642 H618 0.950 . S
C642 C637 1.363 . S
C642 C641 1.415 . S
C643 H619 0.951 . S
C643 C644 1.366 . S
C643 C645 1.388 . S
C644 C643 1.366 . S
C644 C648 1.385 . S
C645 H620 0.951 . S
C645 C643 1.388 . S
C645 C646 1.366 . S
C646 C645 1.366 . S
C646 C647 1.414 . S
C646 C649 1.499 . S
C647 H621 0.950 . S
C647 C646 1.414 . S
C647 C648 1.374 . S
C648 H622 0.950 . S
C648 C644 1.385 . S
C648 C647 1.374 . S
C649 C646 1.499 . S
C649 C650 1.373 . S
C649 C651 1.389 . S
C650 H623 0.950 . S
C650 C636 1.377 . S
C650 C649 1.373 . S
C651 C635 1.377 . S
C651 C649 1.389 . S
C651 C652 1.524 . S
C652 C651 1.524 . S
C652 C653 1.397 . S
C652 C657 1.363 . S
C653 H624 0.950 . S
C653 C652 1.397 . S
C653 C654 1.334 . S
C654 H625 0.950 . S
C654 C653 1.334 . S
C654 C655 1.287 . S
C655 C654 1.287 . S
C655 C656 1.524 . S
C655 H658 0.999 . S
C656 H626 0.950 . S
C656 C655 1.524 . S
C656 C657 1.415 . S
C657 H627 0.950 . S
C657 C652 1.363 . S
C657 C656 1.415 . S
H658 C655 0.999 . S
H659 C640 0.913 . S
H660 C678 0.951 . S
H661 C680 0.951 . S
H662 C682 0.950 . S
H663 C683 0.950 . S
H664 C685 0.950 . S
H665 C688 0.950 . S
H666 C689 0.950 . S
H667 C691 0.950 . S
H668 C692 0.950 . S
H669 C693 0.951 . S
H670 C695 0.951 . S
H671 C697 0.950 . S
H672 C698 0.950 . S
H673 C700 0.950 . S
H674 C703 0.950 . S
H675 C704 0.950 . S
H676 C706 0.950 . S
H677 C707 0.950 . S
C678 H660 0.951 . S
C678 C679 1.345 1_545 S
C678 C680 1.388 . S
C679 C678 1.345 1_565 S
C679 C683 1.373 . S
C680 H661 0.951 . S
C680 C678 1.388 . S
C680 C681 1.366 . S
C681 C680 1.366 . S
C681 C682 1.414 . S
C681 C684 1.499 . S
C682 H662 0.950 . S
C682 C681 1.414 . S
C682 C683 1.374 1_545 S
C683 H663 0.950 . S
C683 C679 1.373 . S
C683 C682 1.374 1_565 S
C684 C681 1.499 . S
C684 C685 1.373 . S
C684 C686 1.389 . S
C685 H664 0.950 . S
C685 C684 1.373 . S
C685 C701 1.377 . S
C686 C684 1.389 . S
C686 C687 1.524 . S
C686 C700 1.377 . S
C687 C686 1.524 . S
C687 C688 1.397 . S
C687 C692 1.363 . S
C688 H665 0.950 . S
C688 C687 1.397 . S
C688 C689 1.334 . S
C689 H666 0.950 . S
C689 C688 1.334 . S
C689 C690 1.287 . S
C690 C689 1.287 . S
C690 C691 1.524 . S
C690 H709 0.913 . S
C691 H667 0.950 . S
C691 C690 1.524 . S
C691 C692 1.415 . S
C692 H668 0.950 . S
C692 C687 1.363 . S
C692 C691 1.415 . S
C693 H669 0.951 . S
C693 C694 1.366 . S
C693 C695 1.388 . S
C694 C693 1.366 . S
C694 C698 1.385 . S
C695 H670 0.951 . S
C695 C693 1.388 . S
C695 C696 1.366 . S
C696 C695 1.366 . S
C696 C697 1.414 . S
C696 C699 1.499 . S
C697 H671 0.950 . S
C697 C696 1.414 . S
C697 C698 1.374 . S
C698 H672 0.950 . S
C698 C694 1.385 . S
C698 C697 1.374 . S
C699 C696 1.499 . S
C699 C700 1.373 . S
C699 C701 1.389 . S
C700 H673 0.950 . S
C700 C686 1.377 . S
C700 C699 1.373 . S
C701 C685 1.377 . S
C701 C699 1.389 . S
C701 C702 1.524 . S
C702 C701 1.524 . S
C702 C703 1.397 . S
C702 C707 1.363 . S
C703 H674 0.950 . S
C703 C702 1.397 . S
C703 C704 1.334 . S
C704 H675 0.950 . S
C704 C703 1.334 . S
C704 C705 1.287 . S
C705 C704 1.287 . S
C705 C706 1.524 . S
C705 H708 0.999 . S
C706 H676 0.950 . S
C706 C705 1.524 . S
C706 C707 1.415 . S
C707 H677 0.950 . S
C707 C702 1.363 . S
C707 C706 1.415 . S
H708 C705 0.999 . S
H709 C690 0.913 . S
H710 C728 0.951 . S
H711 C730 0.925 1_655 S
H712 C732 0.950 . S
H713 C733 0.950 . S
H714 C735 0.950 . S
H715 C738 0.972 . S
H716 C739 0.950 1_455 S
H717 C741 0.950 . S
H718 C742 0.950 . S
H719 C743 0.951 . S
H720 C745 0.951 . S
H721 C747 0.950 . S
H722 C748 0.950 . S
H723 C750 0.950 . S
H724 C753 0.950 . S
H725 C754 0.950 . S
H726 C756 0.950 . S
H727 C757 0.950 . S
C728 H710 0.951 . S
C728 C729 1.366 . S
C728 C730 1.400 . S
C729 C728 1.366 . S
C729 C733 1.385 . S
C730 H711 0.925 1_455 S
C730 C728 1.400 . S
C730 C731 1.379 . S
C731 C730 1.379 . S
C731 C732 1.414 . S
C731 C734 1.499 1_455 S
C732 H712 0.950 . S
C732 C731 1.414 . S
C732 C733 1.374 . S
C733 H713 0.950 . S
C733 C729 1.385 . S
C733 C732 1.374 . S
C734 C731 1.499 1_655 S
C734 C735 1.373 . S
C734 C736 1.389 . S
C735 H714 0.950 . S
C735 C734 1.373 . S
C735 C751 1.377 . S
C736 C734 1.389 . S
C736 C737 1.524 . S
C736 C750 1.377 . S
C737 C736 1.524 . S
C737 C738 1.397 . S
C737 C742 1.363 . S
C738 H715 0.972 . S
C738 C737 1.397 . S
C738 C739 1.334 . S
C739 H716 0.950 1_655 S
C739 C738 1.334 . S
C739 C740 1.287 . S
C740 C739 1.287 . S
C740 C741 1.524 . S
C740 H759 0.913 . S
C741 H717 0.950 . S
C741 C740 1.524 . S
C741 C742 1.415 . S
C742 H718 0.950 . S
C742 C737 1.363 . S
C742 C741 1.415 . S
C743 H719 0.951 . S
C743 C744 1.366 . S
C743 C745 1.388 . S
C744 C743 1.366 . S
C744 C748 1.385 . S
C745 H720 0.951 . S
C745 C743 1.388 . S
C745 C746 1.366 1_565 S
C746 C745 1.366 1_545 S
C746 C747 1.414 . S
C746 C749 1.499 . S
C747 H721 0.950 . S
C747 C746 1.414 . S
C747 C748 1.374 1_545 S
C748 H722 0.950 . S
C748 C744 1.385 . S
C748 C747 1.374 1_565 S
C749 C746 1.499 . S
C749 C750 1.373 . S
C749 C751 1.389 . S
C750 H723 0.950 . S
C750 C736 1.377 . S
C750 C749 1.373 . S
C751 C735 1.377 . S
C751 C749 1.389 . S
C751 C752 1.524 . S
C752 C751 1.524 . S
C752 C753 1.397 . S
C752 C757 1.363 . S
C753 H724 0.950 . S
C753 C752 1.397 . S
C753 C754 1.334 1_545 S
C754 H725 0.950 . S
C754 C753 1.334 1_565 S
C754 C755 1.287 . S
C755 C754 1.287 . S
C755 C756 1.524 . S
C755 H758 0.999 . S
C756 H726 0.950 . S
C756 C755 1.524 . S
C756 C757 1.415 1_565 S
C757 H727 0.950 . S
C757 C752 1.363 . S
C757 C756 1.415 1_545 S
H758 C755 0.999 . S
H759 C740 0.913 . S
H760 C778 0.951 . S
H761 C780 0.951 . S
H762 C782 0.950 . S
H763 C783 0.950 . S
H764 C785 0.950 . S
H765 C788 0.950 . S
H766 C789 0.950 . S
H767 C791 0.950 . S
H768 C792 0.950 . S
H769 C793 0.951 . S
H770 C795 0.951 . S
H771 C797 0.950 . S
H772 C798 0.950 . S
H773 C800 0.950 . S
H774 C803 0.950 . S
H775 C804 0.950 . S
H776 C806 0.938 1_455 S
H777 C807 0.950 . S
C778 H760 0.951 . S
C778 C779 1.366 . S
C778 C780 1.388 . S
C779 C778 1.366 . S
C779 C783 1.385 . S
C780 H761 0.951 . S
C780 C778 1.388 . S
C780 C781 1.366 . S
C781 C780 1.366 . S
C781 C782 1.414 . S
C781 C784 1.499 . S
C782 H762 0.950 . S
C782 C781 1.414 . S
C782 C783 1.374 . S
C783 H763 0.950 . S
C783 C779 1.385 . S
C783 C782 1.374 . S
C784 C781 1.499 . S
C784 C785 1.373 . S
C784 C786 1.389 1_455 S
C785 H764 0.950 . S
C785 C784 1.373 . S
C785 C801 1.377 1_455 S
C786 C784 1.389 1_655 S
C786 C787 1.524 . S
C786 C800 1.377 . S
C787 C786 1.524 . S
C787 C788 1.397 . S
C787 C792 1.363 . S
C788 H765 0.950 . S
C788 C787 1.397 . S
C788 C789 1.334 . S
C789 H766 0.950 . S
C789 C788 1.334 . S
C789 C790 1.287 . S
C790 C789 1.287 . S
C790 C791 1.524 . S
C790 H809 0.913 . S
C791 H767 0.950 . S
C791 C790 1.524 . S
C791 C792 1.415 . S
C792 H768 0.950 . S
C792 C787 1.363 . S
C792 C791 1.415 . S
C793 H769 0.951 . S
C793 C794 1.366 . S
C793 C795 1.388 . S
C794 C793 1.366 . S
C794 C798 1.385 . S
C795 H770 0.951 . S
C795 C793 1.388 . S
C795 C796 1.366 . S
C796 C795 1.366 . S
C796 C797 1.414 . S
C796 C799 1.499 . S
C797 H771 0.950 . S
C797 C796 1.414 . S
C797 C798 1.374 . S
C798 H772 0.950 . S
C798 C794 1.385 . S
C798 C797 1.374 . S
C799 C796 1.499 . S
C799 C800 1.373 . S
C799 C801 1.389 . S
C800 H773 0.950 . S
C800 C786 1.377 . S
C800 C799 1.373 . S
C801 C785 1.377 1_655 S
C801 C799 1.389 . S
C801 C802 1.524 . S
C802 C801 1.524 . S
C802 C803 1.397 . S
C802 C807 1.363 . S
C803 H774 0.950 . S
C803 C802 1.397 . S
C803 C804 1.334 . S
C804 H775 0.950 . S
C804 C803 1.334 . S
C804 C805 1.287 . S
C805 C804 1.287 . S
C805 C806 1.524 . S
C805 H808 0.999 . S
C806 H776 0.938 1_655 S
C806 C805 1.524 . S
C806 C807 1.415 . S
C807 H777 0.950 . S
C807 C802 1.363 . S
C807 C806 1.415 . S
H808 C805 0.999 . S
H809 C790 0.913 . S
H810 C828 0.951 . S
H811 C830 0.951 . S
H812 C832 0.950 . S
H813 C833 0.950 . S
H814 C835 0.950 . S
H815 C838 0.950 . S
H816 C839 0.950 . S
H817 C841 0.950 . S
H818 C842 0.950 . S
H819 C843 0.951 . S
H820 C845 0.951 . S
H821 C847 0.950 . S
H822 C848 0.950 . S
H823 C850 0.950 . S
H824 C853 0.950 . S
H825 C854 0.950 . S
H826 C856 0.950 . S
H827 C857 0.950 . S
C828 H810 0.951 . S
C828 C829 1.366 . S
C828 C830 1.388 . S
C829 C828 1.366 . S
C829 C833 1.385 . S
C830 H811 0.951 . S
C830 C828 1.388 . S
C830 C831 1.366 . S
C831 C830 1.366 . S
C831 C832 1.414 . S
C831 C834 1.499 . S
C832 H812 0.950 . S
C832 C831 1.414 . S
C832 C833 1.374 . S
C833 H813 0.950 . S
C833 C829 1.385 . S
C833 C832 1.374 . S
C834 C831 1.499 . S
C834 C835 1.373 . S
C834 C836 1.389 . S
C835 H814 0.950 . S
C835 C834 1.373 . S
C835 C851 1.377 . S
C836 C834 1.389 . S
C836 C837 1.524 . S
C836 C850 1.377 . S
C837 C836 1.524 . S
C837 C838 1.397 . S
C837 C842 1.363 . S
C838 H815 0.950 . S
C838 C837 1.397 . S
C838 C839 1.334 . S
C839 H816 0.950 . S
C839 C838 1.334 . S
C839 C840 1.287 . S
C840 C839 1.287 . S
C840 C841 1.524 . S
C840 H859 0.913 . S
C841 H817 0.950 . S
C841 C840 1.524 . S
C841 C842 1.415 . S
C842 H818 0.950 . S
C842 C837 1.363 . S
C842 C841 1.415 . S
C843 H819 0.951 . S
C843 C844 1.366 . S
C843 C845 1.388 . S
C844 C843 1.366 . S
C844 C848 1.385 . S
C845 H820 0.951 . S
C845 C843 1.388 . S
C845 C846 1.366 . S
C846 C845 1.366 . S
C846 C847 1.414 . S
C846 C849 1.499 . S
C847 H821 0.950 . S
C847 C846 1.414 . S
C847 C848 1.374 . S
C848 H822 0.950 . S
C848 C844 1.385 . S
C848 C847 1.374 . S
C849 C846 1.499 . S
C849 C850 1.373 . S
C849 C851 1.389 . S
C850 H823 0.950 . S
C850 C836 1.377 . S
C850 C849 1.373 . S
C851 C835 1.377 . S
C851 C849 1.389 . S
C851 C852 1.524 . S
C852 C851 1.524 . S
C852 C853 1.397 . S
C852 C857 1.363 . S
C853 H824 0.950 . S
C853 C852 1.397 . S
C853 C854 1.334 . S
C854 H825 0.950 . S
C854 C853 1.334 . S
C854 C855 1.287 . S
C855 C854 1.287 . S
C855 C856 1.524 . S
C855 H858 0.999 . S
C856 H826 0.950 . S
C856 C855 1.524 . S
C856 C857 1.415 . S
C857 H827 0.950 . S
C857 C852 1.363 . S
C857 C856 1.415 . S
H858 C855 0.999 . S
H859 C840 0.913 . S
H860 C878 0.951 . S
H861 C880 0.951 . S
H862 C882 0.950 . S
H863 C883 0.950 . S
H864 C885 0.950 . S
H865 C888 0.950 . S
H866 C889 0.950 . S
H867 C891 0.950 . S
H868 C892 0.950 . S
H869 C893 0.951 . S
H870 C895 0.951 . S
H871 C897 0.950 . S
H872 C898 0.950 . S
H873 C900 0.950 . S
H874 C903 0.950 . S
H875 C904 0.950 . S
H876 C906 0.950 . S
H877 C907 0.950 . S
C878 H860 0.951 . S
C878 C879 1.366 . S
C878 C880 1.388 . S
C879 C878 1.366 . S
C879 C883 1.385 . S
C880 H861 0.951 . S
C880 C878 1.388 . S
C880 C881 1.366 . S
C881 C880 1.366 . S
C881 C882 1.414 . S
C881 C884 1.499 . S
C882 H862 0.950 . S
C882 C881 1.414 . S
C882 C883 1.374 . S
C883 H863 0.950 . S
C883 C879 1.385 . S
C883 C882 1.374 . S
C884 C881 1.499 . S
C884 C885 1.373 . S
C884 C886 1.389 . S
C885 H864 0.950 . S
C885 C884 1.373 . S
C885 C901 1.377 . S
C886 C884 1.389 . S
C886 C887 1.524 . S
C886 C900 1.377 . S
C887 C886 1.524 . S
C887 C888 1.397 . S
C887 C892 1.363 . S
C888 H865 0.950 . S
C888 C887 1.397 . S
C888 C889 1.334 . S
C889 H866 0.950 . S
C889 C888 1.334 . S
C889 C890 1.287 . S
C890 C889 1.287 . S
C890 C891 1.524 . S
C890 H909 0.913 . S
C891 H867 0.950 . S
C891 C890 1.524 . S
C891 C892 1.415 . S
C892 H868 0.950 . S
C892 C887 1.363 . S
C892 C891 1.415 . S
C893 H869 0.951 . S
C893 C894 1.366 . S
C893 C895 1.388 . S
C894 C893 1.366 . S
C894 C898 1.385 . S
C895 H870 0.951 . S
C895 C893 1.388 . S
C895 C896 1.366 . S
C896 C895 1.366 . S
C896 C897 1.414 . S
C896 C899 1.499 . S
C897 H871 0.950 . S
C897 C896 1.414 . S
C897 C898 1.374 . S
C898 H872 0.950 . S
C898 C894 1.385 . S
C898 C897 1.374 . S
C899 C896 1.499 . S
C899 C900 1.373 . S
C899 C901 1.389 . S
C900 H873 0.950 . S
C900 C886 1.377 . S
C900 C899 1.373 . S
C901 C885 1.377 . S
C901 C899 1.389 . S
C901 C902 1.524 . S
C902 C901 1.524 . S
C902 C903 1.397 . S
C902 C907 1.363 . S
C903 H874 0.950 . S
C903 C902 1.397 . S
C903 C904 1.334 . S
C904 H875 0.950 . S
C904 C903 1.334 . S
C904 C905 1.287 . S
C905 C904 1.287 . S
C905 C906 1.524 . S
C905 H908 0.999 . S
C906 H876 0.950 . S
C906 C905 1.524 . S
C906 C907 1.415 . S
C907 H877 0.950 . S
C907 C902 1.363 . S
C907 C906 1.415 . S
H908 C905 0.999 . S
H909 C890 0.913 . S
H910 C928 0.951 . S
H911 C930 0.951 . S
H912 C932 0.950 . S
H913 C933 0.950 . S
H914 C935 0.950 . S
H915 C938 0.950 . S
H916 C939 0.950 . S
H917 C941 0.950 . S
H918 C942 0.950 . S
H919 C943 0.951 . S
H920 C945 0.951 . S
H921 C947 0.950 . S
H922 C948 0.950 . S
H923 C950 0.950 . S
H924 C953 0.950 . S
H925 C954 0.950 . S
H926 C956 0.950 . S
H927 C957 0.950 . S
C928 H910 0.951 . S
C928 C929 1.366 . S
C928 C930 1.388 . S
C929 C928 1.366 . S
C929 C933 1.385 . S
C930 H911 0.951 . S
C930 C928 1.388 . S
C930 C931 1.366 . S
C931 C930 1.366 . S
C931 C932 1.414 . S
C931 C934 1.499 . S
C932 H912 0.950 . S
C932 C931 1.414 . S
C932 C933 1.374 . S
C933 H913 0.950 . S
C933 C929 1.385 . S
C933 C932 1.374 . S
C934 C931 1.499 . S
C934 C935 1.373 . S
C934 C936 1.389 . S
C935 H914 0.950 . S
C935 C934 1.373 . S
C935 C951 1.377 . S
C936 C934 1.389 . S
C936 C937 1.524 . S
C936 C950 1.377 . S
C937 C936 1.524 . S
C937 C938 1.397 . S
C937 C942 1.363 . S
C938 H915 0.950 . S
C938 C937 1.397 . S
C938 C939 1.334 . S
C939 H916 0.950 . S
C939 C938 1.334 . S
C939 C940 1.287 . S
C940 C939 1.287 . S
C940 C941 1.524 . S
C940 H959 0.913 . S
C941 H917 0.950 . S
C941 C940 1.524 . S
C941 C942 1.415 . S
C942 H918 0.950 . S
C942 C937 1.363 . S
C942 C941 1.415 . S
C943 H919 0.951 . S
C943 C944 1.366 . S
C943 C945 1.388 . S
C944 C943 1.366 . S
C944 C948 1.385 . S
C945 H920 0.951 . S
C945 C943 1.388 . S
C945 C946 1.366 . S
C946 C945 1.366 . S
C946 C947 1.414 . S
C946 C949 1.499 . S
C947 H921 0.950 . S
C947 C946 1.414 . S
C947 C948 1.374 . S
C948 H922 0.950 . S
C948 C944 1.385 . S
C948 C947 1.374 . S
C949 C946 1.499 . S
C949 C950 1.373 . S
C949 C951 1.389 . S
C950 H923 0.950 . S
C950 C936 1.377 . S
C950 C949 1.373 . S
C951 C935 1.377 . S
C951 C949 1.389 . S
C951 C952 1.524 . S
C952 C951 1.524 . S
C952 C953 1.397 . S
C952 C957 1.363 . S
C953 H924 0.950 . S
C953 C952 1.397 . S
C953 C954 1.334 . S
C954 H925 0.950 . S
C954 C953 1.334 . S
C954 C955 1.287 . S
C955 C954 1.287 . S
C955 C956 1.524 . S
C955 H958 0.999 . S
C956 H926 0.950 . S
C956 C955 1.524 . S
C956 C957 1.415 . S
C957 H927 0.950 . S
C957 C952 1.363 . S
C957 C956 1.415 . S
H958 C955 0.999 . S
H959 C940 0.913 . S
H960 C978 0.951 . S
H961 C980 0.951 . S
H962 C982 0.950 . S
H963 C983 0.950 . S
H964 C985 0.950 . S
H965 C988 0.950 . S
H966 C989 0.950 . S
H967 C991 0.950 . S
H968 C992 0.950 . S
H969 C993 0.951 . S
H970 C995 0.951 . S
H971 C997 0.950 . S
H972 C998 0.950 . S
H973 C1000 0.950 . S
H974 C1003 0.950 . S
H975 C1004 0.950 . S
H976 C1006 0.950 . S
H977 C1007 0.950 . S
C978 H960 0.951 . S
C978 C979 1.366 . S
C978 C980 1.388 . S
C979 C978 1.366 . S
C979 C983 1.385 . S
C980 H961 0.951 . S
C980 C978 1.388 . S
C980 C981 1.366 . S
C981 C980 1.366 . S
C981 C982 1.414 . S
C981 C984 1.499 . S
C982 H962 0.950 . S
C982 C981 1.414 . S
C982 C983 1.374 . S
C983 H963 0.950 . S
C983 C979 1.385 . S
C983 C982 1.374 . S
C984 C981 1.499 . S
C984 C985 1.373 . S
C984 C986 1.389 . S
C985 H964 0.950 . S
C985 C984 1.373 . S
C985 C1001 1.377 . S
C986 C984 1.389 . S
C986 C987 1.524 . S
C986 C1000 1.377 . S
C987 C986 1.524 . S
C987 C988 1.397 . S
C987 C992 1.363 . S
C988 H965 0.950 . S
C988 C987 1.397 . S
C988 C989 1.334 . S
C989 H966 0.950 . S
C989 C988 1.334 . S
C989 C990 1.287 . S
C990 C989 1.287 . S
C990 C991 1.524 . S
C990 H1009 0.913 . S
C991 H967 0.950 . S
C991 C990 1.524 . S
C991 C992 1.415 . S
C992 H968 0.950 . S
C992 C987 1.363 . S
C992 C991 1.415 . S
C993 H969 0.951 . S
C993 C994 1.366 . S
C993 C995 1.388 . S
C994 C993 1.366 . S
C994 C998 1.385 . S
C995 H970 0.951 . S
C995 C993 1.388 . S
C995 C996 1.366 . S
C996 C995 1.366 . S
C996 C997 1.414 . S
C996 C999 1.499 . S
C997 H971 0.950 . S
C997 C996 1.414 . S
C997 C998 1.374 . S
C998 H972 0.950 . S
C998 C994 1.385 . S
C998 C997 1.374 . S
C999 C996 1.499 . S
C999 C1000 1.373 . S
C999 C1001 1.389 . S
C1000 H973 0.950 . S
C1000 C986 1.377 . S
C1000 C999 1.373 . S
C1001 C985 1.377 . S
C1001 C999 1.389 . S
C1001 C1002 1.524 . S
C1002 C1001 1.524 . S
C1002 C1003 1.397 . S
C1002 C1007 1.363 . S
C1003 H974 0.950 . S
C1003 C1002 1.397 . S
C1003 C1004 1.334 . S
C1004 H975 0.950 . S
C1004 C1003 1.334 . S
C1004 C1005 1.287 . S
C1005 C1004 1.287 . S
C1005 C1006 1.524 . S
C1005 H1008 0.999 . S
C1006 H976 0.950 . S
C1006 C1005 1.524 . S
C1006 C1007 1.415 . S
C1007 H977 0.950 . S
C1007 C1002 1.363 . S
C1007 C1006 1.415 . S
H1008 C1005 0.999 . S
H1009 C990 0.913 . S
H1010 C1028 0.951 . S
H1011 C1030 0.951 . S
H1012 C1032 0.950 . S
H1013 C1033 0.950 . S
H1014 C1035 0.950 . S
H1015 C1038 0.950 . S
H1016 C1039 0.950 . S
H1017 C1041 0.950 . S
H1018 C1042 0.950 . S
H1019 C1043 0.951 . S
H1020 C1045 0.951 . S
H1021 C1047 0.950 . S
H1022 C1048 0.950 . S
H1023 C1050 0.950 . S
H1024 C1053 0.950 . S
H1025 C1054 0.950 . S
H1026 C1056 0.950 . S
H1027 C1057 0.950 . S
C1028 H1010 0.951 . S
C1028 C1029 1.366 . S
C1028 C1030 1.388 . S
C1029 C1028 1.366 . S
C1029 C1033 1.385 . S
C1030 H1011 0.951 . S
C1030 C1028 1.388 . S
C1030 C1031 1.366 . S
C1031 C1030 1.366 . S
C1031 C1032 1.414 . S
C1031 C1034 1.499 . S
C1032 H1012 0.950 . S
C1032 C1031 1.414 . S
C1032 C1033 1.374 . S
C1033 H1013 0.950 . S
C1033 C1029 1.385 . S
C1033 C1032 1.374 . S
C1034 C1031 1.499 . S
C1034 C1035 1.373 . S
C1034 C1036 1.389 . S
C1035 H1014 0.950 . S
C1035 C1034 1.373 . S
C1035 C1051 1.377 . S
C1036 C1034 1.389 . S
C1036 C1037 1.524 . S
C1036 C1050 1.377 . S
C1037 C1036 1.524 . S
C1037 C1038 1.397 . S
C1037 C1042 1.363 . S
C1038 H1015 0.950 . S
C1038 C1037 1.397 . S
C1038 C1039 1.334 . S
C1039 H1016 0.950 . S
C1039 C1038 1.334 . S
C1039 C1040 1.287 . S
C1040 C1039 1.287 . S
C1040 C1041 1.524 . S
C1040 H1059 0.913 . S
C1041 H1017 0.950 . S
C1041 C1040 1.524 . S
C1041 C1042 1.415 . S
C1042 H1018 0.950 . S
C1042 C1037 1.363 . S
C1042 C1041 1.415 . S
C1043 H1019 0.951 . S
C1043 C1044 1.366 . S
C1043 C1045 1.388 . S
C1044 C1043 1.366 . S
C1044 C1048 1.385 . S
C1045 H1020 0.951 . S
C1045 C1043 1.388 . S
C1045 C1046 1.366 . S
C1046 C1045 1.366 . S
C1046 C1047 1.414 . S
C1046 C1049 1.499 . S
C1047 H1021 0.950 . S
C1047 C1046 1.414 . S
C1047 C1048 1.374 . S
C1048 H1022 0.950 . S
C1048 C1044 1.385 . S
C1048 C1047 1.374 . S
C1049 C1046 1.499 . S
C1049 C1050 1.373 . S
C1049 C1051 1.389 . S
C1050 H1023 0.950 . S
C1050 C1036 1.377 . S
C1050 C1049 1.373 . S
C1051 C1035 1.377 . S
C1051 C1049 1.389 . S
C1051 C1052 1.524 . S
C1052 C1051 1.524 . S
C1052 C1053 1.397 . S
C1052 C1057 1.363 . S
C1053 H1024 0.950 . S
C1053 C1052 1.397 . S
C1053 C1054 1.334 . S
C1054 H1025 0.950 . S
C1054 C1053 1.334 . S
C1054 C1055 1.287 . S
C1055 C1054 1.287 . S
C1055 C1056 1.524 . S
C1055 H1058 0.999 . S
C1056 H1026 0.950 . S
C1056 C1055 1.524 . S
C1056 C1057 1.415 . S
C1057 H1027 0.950 . S
C1057 C1052 1.363 . S
C1057 C1056 1.415 . S
H1058 C1055 0.999 . S
H1059 C1040 0.913 . S
H1060 C1078 0.951 . S
H1061 C1080 0.951 . S
H1062 C1082 0.950 . S
H1063 C1083 0.950 . S
H1064 C1085 0.950 . S
H1065 C1088 0.950 . S
H1066 C1089 0.950 . S
H1067 C1091 0.950 . S
H1068 C1092 0.950 . S
H1069 C1093 0.951 . S
H1070 C1095 0.951 . S
H1071 C1097 0.950 . S
H1072 C1098 0.950 . S
H1073 C1100 0.950 . S
H1074 C1103 0.950 . S
H1075 C1104 0.950 . S
H1076 C1106 0.950 . S
H1077 C1107 0.950 . S
C1078 H1060 0.951 . S
C1078 C1079 1.366 . S
C1078 C1080 1.388 . S
C1079 C1078 1.366 . S
C1079 C1083 1.385 . S
C1080 H1061 0.951 . S
C1080 C1078 1.388 . S
C1080 C1081 1.366 . S
C1081 C1080 1.366 . S
C1081 C1082 1.414 . S
C1081 C1084 1.499 . S
C1082 H1062 0.950 . S
C1082 C1081 1.414 . S
C1082 C1083 1.374 . S
C1083 H1063 0.950 . S
C1083 C1079 1.385 . S
C1083 C1082 1.374 . S
C1084 C1081 1.499 . S
C1084 C1085 1.373 . S
C1084 C1086 1.389 . S
C1085 H1064 0.950 . S
C1085 C1084 1.373 . S
C1085 C1101 1.377 . S
C1086 C1084 1.389 . S
C1086 C1087 1.524 . S
C1086 C1100 1.377 . S
C1087 C1086 1.524 . S
C1087 C1088 1.397 . S
C1087 C1092 1.363 . S
C1088 H1065 0.950 . S
C1088 C1087 1.397 . S
C1088 C1089 1.334 . S
C1089 H1066 0.950 . S
C1089 C1088 1.334 . S
C1089 C1090 1.287 . S
C1090 C1089 1.287 . S
C1090 C1091 1.524 . S
C1090 H1109 0.913 . S
C1091 H1067 0.950 . S
C1091 C1090 1.524 . S
C1091 C1092 1.415 . S
C1092 H1068 0.950 . S
C1092 C1087 1.363 . S
C1092 C1091 1.415 . S
C1093 H1069 0.951 . S
C1093 C1094 1.366 . S
C1093 C1095 1.388 . S
C1094 C1093 1.366 . S
C1094 C1098 1.385 . S
C1095 H1070 0.951 . S
C1095 C1093 1.388 . S
C1095 C1096 1.366 . S
C1096 C1095 1.366 . S
C1096 C1097 1.414 . S
C1096 C1099 1.499 . S
C1097 H1071 0.950 . S
C1097 C1096 1.414 . S
C1097 C1098 1.374 . S
C1098 H1072 0.950 . S
C1098 C1094 1.385 . S
C1098 C1097 1.374 . S
C1099 C1096 1.499 . S
C1099 C1100 1.373 . S
C1099 C1101 1.389 . S
C1100 H1073 0.950 . S
C1100 C1086 1.377 . S
C1100 C1099 1.373 . S
C1101 C1085 1.377 . S
C1101 C1099 1.389 . S
C1101 C1102 1.524 . S
C1102 C1101 1.524 . S
C1102 C1103 1.397 . S
C1102 C1107 1.363 . S
C1103 H1074 0.950 . S
C1103 C1102 1.397 . S
C1103 C1104 1.334 . S
C1104 H1075 0.950 . S
C1104 C1103 1.334 . S
C1104 C1105 1.287 . S
C1105 C1104 1.287 . S
C1105 C1106 1.524 . S
C1105 H1108 0.999 . S
C1106 H1076 0.950 . S
C1106 C1105 1.524 . S
C1106 C1107 1.415 . S
C1107 H1077 0.950 . S
C1107 C1102 1.363 . S
C1107 C1106 1.415 . S
H1108 C1105 0.999 . S
H1109 C1090 0.913 . S
H1110 C1128 0.951 1_655 S
H1111 C1130 0.951 . S
H1112 C1132 0.950 . S
H1113 C1133 0.950 . S
H1114 C1135 0.950 . S
H1115 C1138 0.950 . S
H1116 C1139 0.950 1_655 S
H1117 C1141 0.950 . S
H1118 C1142 0.950 . S
H1119 C1143 0.951 . S
H1120 C1145 0.951 . S
H1121 C1147 0.950 . S
H1122 C1148 0.950 . S
H1123 C1150 0.950 . S
H1124 C1153 0.950 . S
H1125 C1154 0.950 . S
H1126 C1156 0.950 . S
H1127 C1157 0.950 . S
C1128 H1110 0.951 1_455 S
C1128 C1129 1.356 1_455 S
C1128 C1130 1.388 . S
C1129 C1128 1.356 1_655 S
C1129 C1133 1.365 1_655 S
C1130 H1111 0.951 . S
C1130 C1128 1.388 . S
C1130 C1131 1.366 . S
C1131 C1130 1.366 . S
C1131 C1132 1.414 . S
C1131 C1134 1.499 . S
C1132 H1112 0.950 . S
C1132 C1131 1.414 . S
C1132 C1133 1.374 . S
C1133 H1113 0.950 . S
C1133 C1129 1.365 1_455 S
C1133 C1132 1.374 . S
C1134 C1131 1.499 . S
C1134 C1135 1.373 . S
C1134 C1136 1.389 . S
C1135 H1114 0.950 . S
C1135 C1134 1.373 . S
C1135 C1151 1.377 . S
C1136 C1134 1.389 . S
C1136 C1137 1.524 . S
C1136 C1150 1.377 . S
C1137 C1136 1.524 . S
C1137 C1138 1.397 . S
C1137 C1142 1.363 . S
C1138 H1115 0.950 . S
C1138 C1137 1.397 . S
C1138 C1139 1.334 . S
C1139 H1116 0.950 1_455 S
C1139 C1138 1.334 . S
C1139 C1140 1.288 1_455 S
C1140 C1139 1.288 1_655 S
C1140 C1141 1.515 1_655 S
C1140 H1159 0.925 . S
C1141 H1117 0.950 . S
C1141 C1140 1.515 1_455 S
C1141 C1142 1.415 . S
C1142 H1118 0.950 . S
C1142 C1137 1.363 . S
C1142 C1141 1.415 . S
C1143 H1119 0.951 . S
C1143 C1144 1.366 . S
C1143 C1145 1.388 . S
C1144 C1143 1.366 . S
C1144 C1148 1.385 . S
C1145 H1120 0.951 . S
C1145 C1143 1.388 . S
C1145 C1146 1.366 . S
C1146 C1145 1.366 . S
C1146 C1147 1.414 . S
C1146 C1149 1.499 . S
C1147 H1121 0.950 . S
C1147 C1146 1.414 . S
C1147 C1148 1.374 . S
C1148 H1122 0.950 . S
C1148 C1144 1.385 . S
C1148 C1147 1.374 . S
C1149 C1146 1.499 . S
C1149 C1150 1.373 . S
C1149 C1151 1.389 . S
C1150 H1123 0.950 . S
C1150 C1136 1.377 . S
C1150 C1149 1.373 . S
C1151 C1135 1.377 . S
C1151 C1149 1.389 . S
C1151 C1152 1.524 . S
C1152 C1151 1.524 . S
C1152 C1153 1.397 . S
C1152 C1157 1.363 . S
C1153 H1124 0.950 . S
C1153 C1152 1.397 . S
C1153 C1154 1.334 . S
C1154 H1125 0.950 . S
C1154 C1153 1.334 . S
C1154 C1155 1.287 . S
C1155 C1154 1.287 . S
C1155 C1156 1.524 . S
C1155 H1158 0.999 . S
C1156 H1126 0.950 . S
C1156 C1155 1.524 . S
C1156 C1157 1.415 . S
C1157 H1127 0.950 . S
C1157 C1152 1.363 . S
C1157 C1156 1.415 . S
H1158 C1155 0.999 . S
H1159 C1140 0.925 . S
H1160 C1178 0.951 . S
H1161 C1180 0.951 . S
H1162 C1182 0.950 . S
H1163 C1183 0.950 . S
H1164 C1185 0.950 . S
H1165 C1188 0.950 . S
H1166 C1189 0.949 . S
H1167 C1191 0.950 . S
H1168 C1192 0.950 1_545 S
H1169 C1193 0.951 . S
H1170 C1195 0.951 . S
H1171 C1197 0.950 . S
H1172 C1198 0.950 . S
H1173 C1200 0.950 . S
H1174 C1203 0.950 . S
H1175 C1204 0.950 . S
H1176 C1206 0.950 . S
H1177 C1207 0.950 . S
C1178 H1160 0.951 . S
C1178 C1179 1.366 . S
C1178 C1180 1.388 . S
C1179 C1178 1.366 . S
C1179 C1183 1.385 . S
C1180 H1161 0.951 . S
C1180 C1178 1.388 . S
C1180 C1181 1.366 . S
C1181 C1180 1.366 . S
C1181 C1182 1.414 . S
C1181 C1184 1.499 . S
C1182 H1162 0.950 . S
C1182 C1181 1.414 . S
C1182 C1183 1.374 . S
C1183 H1163 0.950 . S
C1183 C1179 1.385 . S
C1183 C1182 1.374 . S
C1184 C1181 1.499 . S
C1184 C1185 1.373 . S
C1184 C1186 1.389 . S
C1185 H1164 0.950 . S
C1185 C1184 1.373 . S
C1185 C1201 1.377 . S
C1186 C1184 1.389 . S
C1186 C1187 1.524 . S
C1186 C1200 1.377 1_565 S
C1187 C1186 1.524 . S
C1187 C1188 1.397 . S
C1187 C1192 1.363 . S
C1188 H1165 0.950 . S
C1188 C1187 1.397 . S
C1188 C1189 1.334 . S
C1189 H1166 0.949 . S
C1189 C1188 1.334 . S
C1189 C1190 1.287 1_655 S
C1190 C1189 1.287 1_455 S
C1190 C1191 1.524 1_565 S
C1190 H1209 0.913 . S
C1191 H1167 0.950 . S
C1191 C1190 1.524 1_545 S
C1191 C1192 1.415 1_445 S
C1192 H1168 0.950 1_565 S
C1192 C1187 1.363 . S
C1192 C1191 1.415 1_665 S
C1193 H1169 0.951 . S
C1193 C1194 1.366 . S
C1193 C1195 1.388 . S
C1194 C1193 1.366 . S
C1194 C1198 1.385 . S
C1195 H1170 0.951 . S
C1195 C1193 1.388 . S
C1195 C1196 1.366 . S
C1196 C1195 1.366 . S
C1196 C1197 1.414 . S
C1196 C1199 1.499 . S
C1197 H1171 0.950 . S
C1197 C1196 1.414 . S
C1197 C1198 1.374 . S
C1198 H1172 0.950 . S
C1198 C1194 1.385 . S
C1198 C1197 1.374 . S
C1199 C1196 1.499 . S
C1199 C1200 1.373 . S
C1199 C1201 1.389 1_545 S
C1200 H1173 0.950 . S
C1200 C1186 1.377 1_545 S
C1200 C1199 1.373 . S
C1201 C1185 1.377 . S
C1201 C1199 1.389 1_565 S
C1201 C1202 1.524 . S
C1202 C1201 1.524 . S
C1202 C1203 1.397 . S
C1202 C1207 1.363 . S
C1203 H1174 0.950 . S
C1203 C1202 1.397 . S
C1203 C1204 1.334 . S
C1204 H1175 0.950 . S
C1204 C1203 1.334 . S
C1204 C1205 1.287 . S
C1205 C1204 1.287 . S
C1205 C1206 1.524 . S
C1205 H1208 0.999 . S
C1206 H1176 0.950 . S
C1206 C1205 1.524 . S
C1206 C1207 1.415 . S
C1207 H1177 0.950 . S
C1207 C1202 1.363 . S
C1207 C1206 1.415 . S
H1208 C1205 0.999 . S
H1209 C1190 0.913 . S
H1210 C1228 0.951 . S
H1211 C1230 0.951 . S
H1212 C1232 0.950 1_565 S
H1213 C1233 0.950 . S
H1214 C1235 0.950 . S
H1215 C1238 0.950 . S
H1216 C1239 0.950 . S
H1217 C1241 0.950 . S
H1218 C1242 0.950 . S
H1219 C1243 0.951 . S
H1220 C1245 0.951 . S
H1221 C1247 0.950 . S
H1222 C1248 0.950 . S
H1223 C1250 0.950 . S
H1224 C1253 0.950 . S
H1225 C1254 0.950 1_655 S
H1226 C1256 0.950 . S
H1227 C1257 0.950 . S
C1228 H1210 0.951 . S
C1228 C1229 1.366 . S
C1228 C1230 1.388 . S
C1229 C1228 1.366 . S
C1229 C1233 1.385 . S
C1230 H1211 0.951 . S
C1230 C1228 1.388 . S
C1230 C1231 1.389 . S
C1231 C1230 1.389 . S
C1231 C1232 1.407 . S
C1231 C1234 1.484 1_545 S
C1232 H1212 0.950 1_545 S
C1232 C1231 1.407 . S
C1232 C1233 1.374 . S
C1233 H1213 0.950 . S
C1233 C1229 1.385 . S
C1233 C1232 1.374 . S
C1234 C1231 1.484 1_565 S
C1234 C1235 1.373 . S
C1234 C1236 1.389 . S
C1235 H1214 0.950 . S
C1235 C1234 1.373 . S
C1235 C1251 1.377 . S
C1236 C1234 1.389 . S
C1236 C1237 1.524 . S
C1236 C1250 1.377 . S
C1237 C1236 1.524 . S
C1237 C1238 1.397 . S
C1237 C1242 1.363 . S
C1238 H1215 0.950 . S
C1238 C1237 1.397 . S
C1238 C1239 1.334 . S
C1239 H1216 0.950 . S
C1239 C1238 1.334 . S
C1239 C1240 1.287 . S
C1240 C1239 1.287 . S
C1240 C1241 1.524 . S
C1240 H1259 0.913 . S
C1241 H1217 0.950 . S
C1241 C1240 1.524 . S
C1241 C1242 1.415 . S
C1242 H1218 0.950 . S
C1242 C1237 1.363 . S
C1242 C1241 1.415 . S
C1243 H1219 0.951 . S
C1243 C1244 1.366 . S
C1243 C1245 1.388 1_655 S
C1244 C1243 1.366 . S
C1244 C1248 1.385 . S
C1245 H1220 0.951 . S
C1245 C1243 1.388 1_455 S
C1245 C1246 1.366 . S
C1246 C1245 1.366 . S
C1246 C1247 1.414 1_455 S
C1246 C1249 1.499 . S
C1247 H1221 0.950 . S
C1247 C1246 1.414 1_655 S
C1247 C1248 1.374 . S
C1248 H1222 0.950 . S
C1248 C1244 1.385 . S
C1248 C1247 1.374 . S
C1249 C1246 1.499 . S
C1249 C1250 1.373 . S
C1249 C1251 1.389 . S
C1250 H1223 0.950 . S
C1250 C1236 1.377 . S
C1250 C1249 1.373 . S
C1251 C1235 1.377 . S
C1251 C1249 1.389 . S
C1251 C1252 1.524 . S
C1252 C1251 1.524 . S
C1252 C1253 1.397 . S
C1252 C1257 1.363 . S
C1253 H1224 0.950 . S
C1253 C1252 1.397 . S
C1253 C1254 1.334 . S
C1254 H1225 0.950 1_455 S
C1254 C1253 1.334 . S
C1254 C1255 1.287 . S
C1255 C1254 1.287 . S
C1255 C1256 1.524 . S
C1255 H1258 0.999 . S
C1256 H1226 0.950 . S
C1256 C1255 1.524 . S
C1256 C1257 1.415 . S
C1257 H1227 0.950 . S
C1257 C1252 1.363 . S
C1257 C1256 1.415 . S
H1258 C1255 0.999 . S
H1259 C1240 0.913 . S
H1260 C1278 0.951 . S
H1261 C1280 0.951 . S
H1262 C1282 0.950 . S
H1263 C1283 0.950 . S
H1264 C1285 0.950 . S
H1265 C1288 0.950 . S
H1266 C1289 0.950 . S
H1267 C1291 0.950 . S
H1268 C1292 0.950 . S
H1269 C1293 0.951 . S
H1270 C1295 0.951 . S
H1271 C1297 0.950 . S
H1272 C1298 0.950 . S
H1273 C1300 0.939 1_565 S
H1274 C1303 0.950 . S
H1275 C1304 0.950 . S
H1276 C1306 0.950 . S
H1277 C1307 0.950 . S
C1278 H1260 0.951 . S
C1278 C1279 1.366 . S
C1278 C1280 1.388 . S
C1279 C1278 1.366 . S
C1279 C1283 1.385 . S
C1280 H1261 0.951 . S
C1280 C1278 1.388 . S
C1280 C1281 1.366 . S
C1281 C1280 1.366 . S
C1281 C1282 1.414 . S
C1281 C1284 1.499 . S
C1282 H1262 0.950 . S
C1282 C1281 1.414 . S
C1282 C1283 1.374 . S
C1283 H1263 0.950 . S
C1283 C1279 1.385 . S
C1283 C1282 1.374 . S
C1284 C1281 1.499 . S
C1284 C1285 1.373 . S
C1284 C1286 1.392 . S
C1285 H1264 0.950 . S
C1285 C1284 1.373 . S
C1285 C1301 1.377 1_554 S
C1286 C1284 1.392 . S
C1286 C1287 1.521 1_545 S
C1286 C1300 1.376 1_554 S
C1287 C1286 1.521 1_565 S
C1287 C1288 1.397 . S
C1287 C1292 1.363 . S
C1288 H1265 0.950 . S
C1288 C1287 1.397 . S
C1288 C1289 1.334 . S
C1289 H1266 0.950 . S
C1289 C1288 1.334 . S
C1289 C1290 1.287 . S
C1290 C1289 1.287 . S
C1290 C1291 1.524 . S
C1290 H1309 0.913 . S
C1291 H1267 0.950 . S
C1291 C1290 1.524 . S
C1291 C1292 1.415 . S
C1292 H1268 0.950 . S
C1292 C1287 1.363 . S
C1292 C1291 1.415 . S
C1293 H1269 0.951 . S
C1293 C1294 1.366 . S
C1293 C1295 1.388 . S
C1294 C1293 1.366 . S
C1294 C1298 1.385 . S
C1295 H1270 0.951 . S
C1295 C1293 1.388 . S
C1295 C1296 1.366 . S
C1296 C1295 1.366 . S
C1296 C1297 1.414 . S
C1296 C1299 1.499 . S
C1297 H1271 0.950 . S
C1297 C1296 1.414 . S
C1297 C1298 1.374 . S
C1298 H1272 0.950 . S
C1298 C1294 1.385 . S
C1298 C1297 1.374 . S
C1299 C1296 1.499 . S
C1299 C1300 1.385 . S
C1299 C1301 1.389 . S
C1300 H1273 0.939 1_545 S
C1300 C1286 1.376 1_556 S
C1300 C1299 1.385 . S
C1301 C1285 1.377 1_556 S
C1301 C1299 1.389 . S
C1301 C1302 1.524 . S
C1302 C1301 1.524 . S
C1302 C1303 1.397 . S
C1302 C1307 1.363 . S
C1303 H1274 0.950 . S
C1303 C1302 1.397 . S
C1303 C1304 1.334 . S
C1304 H1275 0.950 . S
C1304 C1303 1.334 . S
C1304 C1305 1.287 . S
C1305 C1304 1.287 . S
C1305 C1306 1.524 . S
C1305 H1308 0.999 . S
C1306 H1276 0.950 . S
C1306 C1305 1.524 . S
C1306 C1307 1.415 . S
C1307 H1277 0.950 . S
C1307 C1302 1.363 . S
C1307 C1306 1.415 . S
H1308 C1305 0.999 . S
H1309 C1290 0.913 . S
H1310 C1328 0.951 1_655 S
H1311 C1330 0.951 1_655 S
H1312 C1332 0.950 . S
H1313 C1333 0.950 . S
H1314 C1335 0.950 . S
H1315 C1338 0.950 . S
H1316 C1339 0.950 . S
H1317 C1341 0.950 . S
H1318 C1342 0.950 . S
H1319 C1343 0.951 . S
H1320 C1345 0.951 . S
H1321 C1347 0.950 . S
H1322 C1348 0.950 . S
H1323 C1350 0.950 1_655 S
H1324 C1353 0.950 . S
H1325 C1354 0.950 . S
H1326 C1356 0.950 . S
H1327 C1357 0.950 . S
C1328 H1310 0.951 1_455 S
C1328 C1329 1.366 . S
C1328 C1330 1.388 . S
C1329 C1328 1.366 . S
C1329 C1333 1.385 . S
C1330 H1311 0.951 1_455 S
C1330 C1328 1.388 . S
C1330 C1331 1.366 . S
C1331 C1330 1.366 . S
C1331 C1332 1.414 . S
C1331 C1334 1.499 . S
C1332 H1312 0.950 . S
C1332 C1331 1.414 . S
C1332 C1333 1.374 . S
C1333 H1313 0.950 . S
C1333 C1329 1.385 . S
C1333 C1332 1.374 . S
C1334 C1331 1.499 . S
C1334 C1335 1.373 . S
C1334 C1336 1.389 . S
C1335 H1314 0.950 . S
C1335 C1334 1.373 . S
C1335 C1351 1.377 1_556 S
C1336 C1334 1.389 . S
C1336 C1337 1.524 1_455 S
C1336 C1350 1.377 1_556 S
C1337 C1336 1.524 1_655 S
C1337 C1338 1.397 1_655 S
C1337 C1342 1.363 . S
C1338 H1315 0.950 . S
C1338 C1337 1.397 1_455 S
C1338 C1339 1.334 . S
C1339 H1316 0.950 . S
C1339 C1338 1.334 . S
C1339 C1340 1.287 1_455 S
C1340 C1339 1.287 1_655 S
C1340 C1341 1.524 . S
C1340 H1359 0.913 . S
C1341 H1317 0.950 . S
C1341 C1340 1.524 . S
C1341 C1342 1.415 . S
C1342 H1318 0.950 . S
C1342 C1337 1.363 . S
C1342 C1341 1.415 . S
C1343 H1319 0.951 . S
C1343 C1344 1.366 . S
C1343 C1345 1.388 . S
C1344 C1343 1.366 . S
C1344 C1348 1.385 1_455 S
C1345 H1320 0.951 . S
C1345 C1343 1.388 . S
C1345 C1346 1.366 . S
C1346 C1345 1.366 . S
C1346 C1347 1.414 1_455 S
C1346 C1349 1.499 . S
C1347 H1321 0.950 . S
C1347 C1346 1.414 1_655 S
C1347 C1348 1.374 . S
C1348 H1322 0.950 . S
C1348 C1344 1.385 1_655 S
C1348 C1347 1.374 . S
C1349 C1346 1.499 . S
C1349 C1350 1.373 . S
C1349 C1351 1.389 . S
C1350 H1323 0.950 1_455 S
C1350 C1336 1.377 1_554 S
C1350 C1349 1.373 . S
C1351 C1335 1.377 1_554 S
C1351 C1349 1.389 . S
C1351 C1352 1.524 . S
C1352 C1351 1.524 . S
C1352 C1353 1.397 . S
C1352 C1357 1.363 . S
C1353 H1324 0.950 . S
C1353 C1352 1.397 . S
C1353 C1354 1.334 . S
C1354 H1325 0.950 . S
C1354 C1353 1.334 . S
C1354 C1355 1.287 . S
C1355 C1354 1.287 . S
C1355 C1356 1.524 . S
C1355 H1358 0.999 . S
C1356 H1326 0.950 . S
C1356 C1355 1.524 . S
C1356 C1357 1.415 . S
C1357 H1327 0.950 . S
C1357 C1352 1.363 . S
C1357 C1356 1.415 . S
H1358 C1355 0.999 . S
H1359 C1340 0.913 . S
H1360 C1378 0.951 . S
H1361 C1380 0.951 . S
H1362 C1382 0.950 . S
H1363 C1383 0.950 . S
H1364 C1385 0.950 . S
H1365 C1388 0.950 . S
H1366 C1389 0.950 . S
H1367 C1391 0.950 . S
H1368 C1392 0.950 . S
H1369 C1393 0.951 . S
H1370 C1395 0.951 . S
H1371 C1397 0.950 . S
H1372 C1398 0.950 . S
H1373 C1400 0.950 . S
H1374 C1403 0.950 . S
H1375 C1404 0.950 . S
H1376 C1406 0.950 . S
H1377 C1407 0.950 . S
C1378 H1360 0.951 . S
C1378 C1379 1.366 . S
C1378 C1380 1.388 . S
C1379 C1378 1.366 . S
C1379 C1383 1.385 . S
C1380 H1361 0.951 . S
C1380 C1378 1.388 . S
C1380 C1381 1.366 . S
C1381 C1380 1.366 . S
C1381 C1382 1.414 . S
C1381 C1384 1.499 . S
C1382 H1362 0.950 . S
C1382 C1381 1.414 . S
C1382 C1383 1.374 . S
C1383 H1363 0.950 . S
C1383 C1379 1.385 . S
C1383 C1382 1.374 . S
C1384 C1381 1.499 . S
C1384 C1385 1.373 . S
C1384 C1386 1.389 . S
C1385 H1364 0.950 . S
C1385 C1384 1.373 . S
C1385 C1401 1.377 1_556 S
C1386 C1384 1.389 . S
C1386 C1387 1.524 . S
C1386 C1400 1.377 1_556 S
C1387 C1386 1.524 . S
C1387 C1388 1.397 . S
C1387 C1392 1.363 . S
C1388 H1365 0.950 . S
C1388 C1387 1.397 . S
C1388 C1389 1.334 . S
C1389 H1366 0.950 . S
C1389 C1388 1.334 . S
C1389 C1390 1.287 . S
C1390 C1389 1.287 . S
C1390 C1391 1.524 . S
C1390 H1409 0.913 . S
C1391 H1367 0.950 . S
C1391 C1390 1.524 . S
C1391 C1392 1.415 . S
C1392 H1368 0.950 . S
C1392 C1387 1.363 . S
C1392 C1391 1.415 . S
C1393 H1369 0.951 . S
C1393 C1394 1.366 . S
C1393 C1395 1.388 . S
C1394 C1393 1.366 . S
C1394 C1398 1.385 . S
C1395 H1370 0.951 . S
C1395 C1393 1.388 . S
C1395 C1396 1.366 . S
C1396 C1395 1.366 . S
C1396 C1397 1.414 . S
C1396 C1399 1.499 . S
C1397 H1371 0.950 . S
C1397 C1396 1.414 . S
C1397 C1398 1.374 . S
C1398 H1372 0.950 . S
C1398 C1394 1.385 . S
C1398 C1397 1.374 . S
C1399 C1396 1.499 . S
C1399 C1400 1.373 . S
C1399 C1401 1.389 . S
C1400 H1373 0.950 . S
C1400 C1386 1.377 1_554 S
C1400 C1399 1.373 . S
C1401 C1385 1.377 1_554 S
C1401 C1399 1.389 . S
C1401 C1402 1.524 . S
C1402 C1401 1.524 . S
C1402 C1403 1.397 . S
C1402 C1407 1.363 . S
C1403 H1374 0.950 . S
C1403 C1402 1.397 . S
C1403 C1404 1.334 . S
C1404 H1375 0.950 . S
C1404 C1403 1.334 . S
C1404 C1405 1.287 . S
C1405 C1404 1.287 . S
C1405 C1406 1.524 . S
C1405 H1408 0.999 . S
C1406 H1376 0.950 . S
C1406 C1405 1.524 . S
C1406 C1407 1.415 . S
C1407 H1377 0.950 . S
C1407 C1402 1.363 . S
C1407 C1406 1.415 . S
H1408 C1405 0.999 . S
H1409 C1390 0.913 . S
H1410 C1428 0.951 . S
H1411 C1430 0.951 . S
H1412 C1432 0.950 . S
H1413 C1433 0.950 . S
H1414 C1435 0.950 . S
H1415 C1438 0.950 . S
H1416 C1439 0.950 . S
H1417 C1441 0.950 . S
H1418 C1442 0.950 . S
H1419 C1443 0.951 . S
H1420 C1445 0.951 . S
H1421 C1447 0.950 . S
H1422 C1448 0.950 . S
H1423 C1450 0.950 . S
H1424 C1453 0.950 . S
H1425 C1454 0.950 . S
H1426 C1456 0.950 . S
H1427 C1457 0.950 . S
C1428 H1410 0.951 . S
C1428 C1429 1.366 . S
C1428 C1430 1.388 . S
C1429 C1428 1.366 . S
C1429 C1433 1.385 . S
C1430 H1411 0.951 . S
C1430 C1428 1.388 . S
C1430 C1431 1.366 . S
C1431 C1430 1.366 . S
C1431 C1432 1.414 . S
C1431 C1434 1.499 . S
C1432 H1412 0.950 . S
C1432 C1431 1.414 . S
C1432 C1433 1.374 . S
C1433 H1413 0.950 . S
C1433 C1429 1.385 . S
C1433 C1432 1.374 . S
C1434 C1431 1.499 . S
C1434 C1435 1.373 . S
C1434 C1436 1.389 . S
C1435 H1414 0.950 . S
C1435 C1434 1.373 . S
C1435 C1451 1.377 . S
C1436 C1434 1.389 . S
C1436 C1437 1.524 . S
C1436 C1450 1.377 . S
C1437 C1436 1.524 . S
C1437 C1438 1.397 . S
C1437 C1442 1.363 . S
C1438 H1415 0.950 . S
C1438 C1437 1.397 . S
C1438 C1439 1.334 . S
C1439 H1416 0.950 . S
C1439 C1438 1.334 . S
C1439 C1440 1.287 . S
C1440 C1439 1.287 . S
C1440 C1441 1.524 . S
C1440 H1459 0.913 . S
C1441 H1417 0.950 . S
C1441 C1440 1.524 . S
C1441 C1442 1.415 . S
C1442 H1418 0.950 . S
C1442 C1437 1.363 . S
C1442 C1441 1.415 . S
C1443 H1419 0.951 . S
C1443 C1444 1.366 . S
C1443 C1445 1.388 . S
C1444 C1443 1.366 . S
C1444 C1448 1.385 . S
C1445 H1420 0.951 . S
C1445 C1443 1.388 . S
C1445 C1446 1.366 . S
C1446 C1445 1.366 . S
C1446 C1447 1.414 . S
C1446 C1449 1.499 . S
C1447 H1421 0.950 . S
C1447 C1446 1.414 . S
C1447 C1448 1.374 . S
C1448 H1422 0.950 . S
C1448 C1444 1.385 . S
C1448 C1447 1.374 . S
C1449 C1446 1.499 . S
C1449 C1450 1.373 . S
C1449 C1451 1.389 . S
C1450 H1423 0.950 . S
C1450 C1436 1.377 . S
C1450 C1449 1.373 . S
C1451 C1435 1.377 . S
C1451 C1449 1.389 . S
C1451 C1452 1.524 . S
C1452 C1451 1.524 . S
C1452 C1453 1.397 . S
C1452 C1457 1.363 . S
C1453 H1424 0.950 . S
C1453 C1452 1.397 . S
C1453 C1454 1.334 . S
C1454 H1425 0.950 . S
C1454 C1453 1.334 . S
C1454 C1455 1.287 . S
C1455 C1454 1.287 . S
C1455 C1456 1.524 . S
C1455 H1458 0.999 . S
C1456 H1426 0.950 . S
C1456 C1455 1.524 . S
C1456 C1457 1.415 . S
C1457 H1427 0.950 . S
C1457 C1452 1.363 . S
C1457 C1456 1.415 . S
H1458 C1455 0.999 . S
H1459 C1440 0.913 . S
H1460 C1478 0.951 . S
H1461 C1480 0.951 . S
H1462 C1482 0.950 . S
H1463 C1483 0.950 . S
H1464 C1485 0.950 . S
H1465 C1488 0.950 . S
H1466 C1489 0.950 . S
H1467 C1491 0.950 . S
H1468 C1492 0.950 . S
H1469 C1493 0.951 . S
H1470 C1495 0.951 . S
H1471 C1497 0.950 . S
H1472 C1498 0.950 . S
H1473 C1500 0.950 . S
H1474 C1503 0.950 . S
H1475 C1504 0.950 . S
H1476 C1506 0.950 . S
H1477 C1507 0.950 . S
C1478 H1460 0.951 . S
C1478 C1479 1.366 . S
C1478 C1480 1.388 . S
C1479 C1478 1.366 . S
C1479 C1483 1.385 . S
C1480 H1461 0.951 . S
C1480 C1478 1.388 . S
C1480 C1481 1.366 . S
C1481 C1480 1.366 . S
C1481 C1482 1.414 . S
C1481 C1484 1.499 . S
C1482 H1462 0.950 . S
C1482 C1481 1.414 . S
C1482 C1483 1.374 . S
C1483 H1463 0.950 . S
C1483 C1479 1.385 . S
C1483 C1482 1.374 . S
C1484 C1481 1.499 . S
C1484 C1485 1.373 . S
C1484 C1486 1.389 . S
C1485 H1464 0.950 . S
C1485 C1484 1.373 . S
C1485 C1501 1.377 . S
C1486 C1484 1.389 . S
C1486 C1487 1.524 . S
C1486 C1500 1.377 . S
C1487 C1486 1.524 . S
C1487 C1488 1.397 . S
C1487 C1492 1.363 . S
C1488 H1465 0.950 . S
C1488 C1487 1.397 . S
C1488 C1489 1.334 . S
C1489 H1466 0.950 . S
C1489 C1488 1.334 . S
C1489 C1490 1.287 . S
C1490 C1489 1.287 . S
C1490 C1491 1.524 . S
C1490 H1509 0.913 . S
C1491 H1467 0.950 . S
C1491 C1490 1.524 . S
C1491 C1492 1.415 . S
C1492 H1468 0.950 . S
C1492 C1487 1.363 . S
C1492 C1491 1.415 . S
C1493 H1469 0.951 . S
C1493 C1494 1.366 . S
C1493 C1495 1.388 . S
C1494 C1493 1.366 . S
C1494 C1498 1.385 . S
C1495 H1470 0.951 . S
C1495 C1493 1.388 . S
C1495 C1496 1.366 . S
C1496 C1495 1.366 . S
C1496 C1497 1.414 . S
C1496 C1499 1.499 . S
C1497 H1471 0.950 . S
C1497 C1496 1.414 . S
C1497 C1498 1.374 . S
C1498 H1472 0.950 . S
C1498 C1494 1.385 . S
C1498 C1497 1.374 . S
C1499 C1496 1.499 . S
C1499 C1500 1.373 . S
C1499 C1501 1.389 . S
C1500 H1473 0.950 . S
C1500 C1486 1.377 . S
C1500 C1499 1.373 . S
C1501 C1485 1.377 . S
C1501 C1499 1.389 . S
C1501 C1502 1.524 . S
C1502 C1501 1.524 . S
C1502 C1503 1.397 . S
C1502 C1507 1.363 . S
C1503 H1474 0.950 . S
C1503 C1502 1.397 . S
C1503 C1504 1.334 . S
C1504 H1475 0.950 . S
C1504 C1503 1.334 . S
C1504 C1505 1.287 . S
C1505 C1504 1.287 . S
C1505 C1506 1.524 . S
C1505 H1508 0.999 . S
C1506 H1476 0.950 . S
C1506 C1505 1.524 . S
C1506 C1507 1.415 . S
C1507 H1477 0.950 . S
C1507 C1502 1.363 . S
C1507 C1506 1.415 . S
H1508 C1505 0.999 . S
H1509 C1490 0.913 . S
H1510 C1528 0.951 . S
H1511 C1530 0.951 . S
H1512 C1532 0.950 . S
H1513 C1533 0.950 . S
H1514 C1535 0.950 . S
H1515 C1538 0.950 . S
H1516 C1539 0.950 . S
H1517 C1541 0.950 . S
H1518 C1542 0.950 . S
H1519 C1543 0.951 . S
H1520 C1545 0.951 . S
H1521 C1547 0.950 . S
H1522 C1548 0.950 . S
H1523 C1550 0.950 . S
H1524 C1553 0.950 . S
H1525 C1554 0.950 . S
H1526 C1556 0.950 . S
H1527 C1557 0.950 . S
C1528 H1510 0.951 . S
C1528 C1529 1.366 . S
C1528 C1530 1.388 . S
C1529 C1528 1.366 . S
C1529 C1533 1.385 . S
C1530 H1511 0.951 . S
C1530 C1528 1.388 . S
C1530 C1531 1.366 . S
C1531 C1530 1.366 . S
C1531 C1532 1.414 . S
C1531 C1534 1.499 . S
C1532 H1512 0.950 . S
C1532 C1531 1.414 . S
C1532 C1533 1.374 . S
C1533 H1513 0.950 . S
C1533 C1529 1.385 . S
C1533 C1532 1.374 . S
C1534 C1531 1.499 . S
C1534 C1535 1.373 . S
C1534 C1536 1.389 . S
C1535 H1514 0.950 . S
C1535 C1534 1.373 . S
C1535 C1551 1.377 . S
C1536 C1534 1.389 . S
C1536 C1537 1.524 . S
C1536 C1550 1.377 . S
C1537 C1536 1.524 . S
C1537 C1538 1.397 . S
C1537 C1542 1.363 . S
C1538 H1515 0.950 . S
C1538 C1537 1.397 . S
C1538 C1539 1.334 . S
C1539 H1516 0.950 . S
C1539 C1538 1.334 . S
C1539 C1540 1.287 . S
C1540 C1539 1.287 . S
C1540 C1541 1.524 . S
C1540 H1559 0.913 . S
C1541 H1517 0.950 . S
C1541 C1540 1.524 . S
C1541 C1542 1.415 . S
C1542 H1518 0.950 . S
C1542 C1537 1.363 . S
C1542 C1541 1.415 . S
C1543 H1519 0.951 . S
C1543 C1544 1.366 . S
C1543 C1545 1.388 . S
C1544 C1543 1.366 . S
C1544 C1548 1.385 . S
C1545 H1520 0.951 . S
C1545 C1543 1.388 . S
C1545 C1546 1.366 . S
C1546 C1545 1.366 . S
C1546 C1547 1.414 . S
C1546 C1549 1.499 . S
C1547 H1521 0.950 . S
C1547 C1546 1.414 . S
C1547 C1548 1.374 . S
C1548 H1522 0.950 . S
C1548 C1544 1.385 . S
C1548 C1547 1.374 . S
C1549 C1546 1.499 . S
C1549 C1550 1.373 . S
C1549 C1551 1.389 . S
C1550 H1523 0.950 . S
C1550 C1536 1.377 . S
C1550 C1549 1.373 . S
C1551 C1535 1.377 . S
C1551 C1549 1.389 . S
C1551 C1552 1.524 . S
C1552 C1551 1.524 . S
C1552 C1553 1.397 . S
C1552 C1557 1.363 . S
C1553 H1524 0.950 . S
C1553 C1552 1.397 . S
C1553 C1554 1.334 . S
C1554 H1525 0.950 . S
C1554 C1553 1.334 . S
C1554 C1555 1.287 . S
C1555 C1554 1.287 . S
C1555 C1556 1.524 . S
C1555 H1558 0.999 . S
C1556 H1526 0.950 . S
C1556 C1555 1.524 . S
C1556 C1557 1.415 . S
C1557 H1527 0.950 . S
C1557 C1552 1.363 . S
C1557 C1556 1.415 . S
H1558 C1555 0.999 . S
H1559 C1540 0.913 . S
H1560 C1578 0.951 . S
H1561 C1580 0.951 . S
H1562 C1582 0.950 . S
H1563 C1583 0.950 . S
H1564 C1585 0.950 . S
H1565 C1588 0.950 . S
H1566 C1589 0.950 . S
H1567 C1591 0.950 . S
H1568 C1592 0.950 . S
H1569 C1593 0.951 . S
H1570 C1595 0.951 . S
H1571 C1597 0.950 . S
H1572 C1598 0.950 . S
H1573 C1600 0.950 . S
H1574 C1603 0.950 . S
H1575 C1604 0.950 . S
H1576 C1606 0.950 . S
H1577 C1607 0.950 . S
C1578 H1560 0.951 . S
C1578 C1579 1.366 . S
C1578 C1580 1.388 . S
C1579 C1578 1.366 . S
C1579 C1583 1.385 . S
C1580 H1561 0.951 . S
C1580 C1578 1.388 . S
C1580 C1581 1.366 . S
C1581 C1580 1.366 . S
C1581 C1582 1.414 . S
C1581 C1584 1.499 . S
C1582 H1562 0.950 . S
C1582 C1581 1.414 . S
C1582 C1583 1.374 . S
C1583 H1563 0.950 . S
C1583 C1579 1.385 . S
C1583 C1582 1.374 . S
C1584 C1581 1.499 . S
C1584 C1585 1.373 . S
C1584 C1586 1.389 . S
C1585 H1564 0.950 . S
C1585 C1584 1.373 . S
C1585 C1601 1.377 . S
C1586 C1584 1.389 . S
C1586 C1587 1.524 . S
C1586 C1600 1.377 . S
C1587 C1586 1.524 . S
C1587 C1588 1.397 . S
C1587 C1592 1.363 . S
C1588 H1565 0.950 . S
C1588 C1587 1.397 . S
C1588 C1589 1.334 . S
C1589 H1566 0.950 . S
C1589 C1588 1.334 . S
C1589 C1590 1.287 . S
C1590 C1589 1.287 . S
C1590 C1591 1.524 . S
C1590 H1609 0.913 . S
C1591 H1567 0.950 . S
C1591 C1590 1.524 . S
C1591 C1592 1.415 . S
C1592 H1568 0.950 . S
C1592 C1587 1.363 . S
C1592 C1591 1.415 . S
C1593 H1569 0.951 . S
C1593 C1594 1.366 . S
C1593 C1595 1.388 . S
C1594 C1593 1.366 . S
C1594 C1598 1.385 . S
C1595 H1570 0.951 . S
C1595 C1593 1.388 . S
C1595 C1596 1.366 . S
C1596 C1595 1.366 . S
C1596 C1597 1.414 . S
C1596 C1599 1.499 . S
C1597 H1571 0.950 . S
C1597 C1596 1.414 . S
C1597 C1598 1.374 . S
C1598 H1572 0.950 . S
C1598 C1594 1.385 . S
C1598 C1597 1.374 . S
C1599 C1596 1.499 . S
C1599 C1600 1.373 . S
C1599 C1601 1.389 . S
C1600 H1573 0.950 . S
C1600 C1586 1.377 . S
C1600 C1599 1.373 . S
C1601 C1585 1.377 . S
C1601 C1599 1.389 . S
C1601 C1602 1.524 . S
C1602 C1601 1.524 . S
C1602 C1603 1.397 . S
C1602 C1607 1.363 . S
C1603 H1574 0.950 . S
C1603 C1602 1.397 . S
C1603 C1604 1.334 . S
C1604 H1575 0.950 . S
C1604 C1603 1.334 . S
C1604 C1605 1.287 . S
C1605 C1604 1.287 . S
C1605 C1606 1.524 . S
C1605 H1608 0.999 . S
C1606 H1576 0.950 . S
C1606 C1605 1.524 . S
C1606 C1607 1.415 . S
C1607 H1577 0.950 . S
C1607 C1602 1.363 . S
C1607 C1606 1.415 . S
H1608 C1605 0.999 . S
H1609 C1590 0.913 . S
H1610 C1628 0.951 . S
H1611 C1630 0.951 . S
H1612 C1632 0.950 . S
H1613 C1633 0.950 . S
H1614 C1635 0.950 . S
H1615 C1638 0.950 . S
H1616 C1639 0.950 . S
H1617 C1641 0.950 . S
H1618 C1642 0.950 . S
H1619 C1643 0.951 . S
H1620 C1645 0.951 . S
H1621 C1647 0.950 . S
H1622 C1648 0.950 . S
H1623 C1650 0.950 . S
H1624 C1653 0.950 . S
H1625 C1654 0.950 . S
H1626 C1656 0.950 . S
H1627 C1657 0.950 . S
C1628 H1610 0.951 . S
C1628 C1629 1.366 . S
C1628 C1630 1.388 . S
C1629 C1628 1.366 . S
C1629 C1633 1.385 . S
C1630 H1611 0.951 . S
C1630 C1628 1.388 . S
C1630 C1631 1.366 . S
C1631 C1630 1.366 . S
C1631 C1632 1.414 . S
C1631 C1634 1.499 . S
C1632 H1612 0.950 . S
C1632 C1631 1.414 . S
C1632 C1633 1.374 . S
C1633 H1613 0.950 . S
C1633 C1629 1.385 . S
C1633 C1632 1.374 . S
C1634 C1631 1.499 . S
C1634 C1635 1.373 . S
C1634 C1636 1.389 . S
C1635 H1614 0.950 . S
C1635 C1634 1.373 . S
C1635 C1651 1.377 . S
C1636 C1634 1.389 . S
C1636 C1637 1.524 . S
C1636 C1650 1.377 . S
C1637 C1636 1.524 . S
C1637 C1638 1.397 . S
C1637 C1642 1.363 . S
C1638 H1615 0.950 . S
C1638 C1637 1.397 . S
C1638 C1639 1.334 . S
C1639 H1616 0.950 . S
C1639 C1638 1.334 . S
C1639 C1640 1.287 . S
C1640 C1639 1.287 . S
C1640 C1641 1.524 . S
C1640 H1659 0.913 . S
C1641 H1617 0.950 . S
C1641 C1640 1.524 . S
C1641 C1642 1.415 . S
C1642 H1618 0.950 . S
C1642 C1637 1.363 . S
C1642 C1641 1.415 . S
C1643 H1619 0.951 . S
C1643 C1644 1.366 . S
C1643 C1645 1.388 . S
C1644 C1643 1.366 . S
C1644 C1648 1.385 . S
C1645 H1620 0.951 . S
C1645 C1643 1.388 . S
C1645 C1646 1.366 . S
C1646 C1645 1.366 . S
C1646 C1647 1.414 . S
C1646 C1649 1.499 . S
C1647 H1621 0.950 . S
C1647 C1646 1.414 . S
C1647 C1648 1.374 . S
C1648 H1622 0.950 . S
C1648 C1644 1.385 . S
C1648 C1647 1.374 . S
C1649 C1646 1.499 . S
C1649 C1650 1.373 . S
C1649 C1651 1.389 . S
C1650 H1623 0.950 . S
C1650 C1636 1.377 . S
C1650 C1649 1.373 . S
C1651 C1635 1.377 . S
C1651 C1649 1.389 . S
C1651 C1652 1.524 . S
C1652 C1651 1.524 . S
C1652 C1653 1.397 . S
C1652 C1657 1.363 . S
C1653 H1624 0.950 . S
C1653 C1652 1.397 . S
C1653 C1654 1.334 . S
C1654 H1625 0.950 . S
C1654 C1653 1.334 . S
C1654 C1655 1.287 . S
C1655 C1654 1.287 . S
C1655 C1656 1.524 . S
C1655 H1658 0.999 . S
C1656 H1626 0.950 . S
C1656 C1655 1.524 . S
C1656 C1657 1.415 . S
C1657 H1627 0.950 . S
C1657 C1652 1.363 . S
C1657 C1656 1.415 . S
H1658 C1655 0.999 . S
H1659 C1640 0.913 . S
H1660 C1678 0.951 . S
H1661 C1680 0.951 . S
H1662 C1682 0.950 . S
H1663 C1683 0.950 . S
H1664 C1685 0.950 . S
H1665 C1688 0.950 . S
H1666 C1689 0.950 . S
H1667 C1691 0.950 . S
H1668 C1692 0.950 . S
H1669 C1693 0.951 . S
H1670 C1695 0.951 . S
H1671 C1697 0.950 . S
H1672 C1698 0.950 . S
H1673 C1700 0.950 . S
H1674 C1703 0.950 . S
H1675 C1704 0.950 . S
H1676 C1706 0.950 . S
H1677 C1707 0.950 . S
C1678 H1660 0.951 . S
C1678 C1679 1.366 . S
C1678 C1680 1.388 . S
C1679 C1678 1.366 . S
C1679 C1683 1.385 . S
C1680 H1661 0.951 . S
C1680 C1678 1.388 . S
C1680 C1681 1.366 . S
C1681 C1680 1.366 . S
C1681 C1682 1.414 . S
C1681 C1684 1.499 . S
C1682 H1662 0.950 . S
C1682 C1681 1.414 . S
C1682 C1683 1.374 . S
C1683 H1663 0.950 . S
C1683 C1679 1.385 . S
C1683 C1682 1.374 . S
C1684 C1681 1.499 . S
C1684 C1685 1.373 . S
C1684 C1686 1.389 . S
C1685 H1664 0.950 . S
C1685 C1684 1.373 . S
C1685 C1701 1.377 . S
C1686 C1684 1.389 . S
C1686 C1687 1.524 . S
C1686 C1700 1.377 . S
C1687 C1686 1.524 . S
C1687 C1688 1.397 . S
C1687 C1692 1.363 . S
C1688 H1665 0.950 . S
C1688 C1687 1.397 . S
C1688 C1689 1.334 . S
C1689 H1666 0.950 . S
C1689 C1688 1.334 . S
C1689 C1690 1.287 . S
C1690 C1689 1.287 . S
C1690 C1691 1.524 . S
C1690 H1709 0.913 . S
C1691 H1667 0.950 . S
C1691 C1690 1.524 . S
C1691 C1692 1.415 . S
C1692 H1668 0.950 . S
C1692 C1687 1.363 . S
C1692 C1691 1.415 . S
C1693 H1669 0.951 . S
C1693 C1694 1.366 . S
C1693 C1695 1.388 . S
C1694 C1693 1.366 . S
C1694 C1698 1.385 . S
C1695 H1670 0.951 . S
C1695 C1693 1.388 . S
C1695 C1696 1.366 . S
C1696 C1695 1.366 . S
C1696 C1697 1.414 . S
C1696 C1699 1.499 . S
C1697 H1671 0.950 . S
C1697 C1696 1.414 . S
C1697 C1698 1.374 . S
C1698 H1672 0.950 . S
C1698 C1694 1.385 . S
C1698 C1697 1.374 . S
C1699 C1696 1.499 . S
C1699 C1700 1.373 . S
C1699 C1701 1.389 . S
C1700 H1673 0.950 . S
C1700 C1686 1.377 . S
C1700 C1699 1.373 . S
C1701 C1685 1.377 . S
C1701 C1699 1.389 . S
C1701 C1702 1.524 . S
C1702 C1701 1.524 . S
C1702 C1703 1.397 . S
C1702 C1707 1.363 . S
C1703 H1674 0.950 . S
C1703 C1702 1.397 . S
C1703 C1704 1.334 . S
C1704 H1675 0.950 . S
C1704 C1703 1.334 . S
C1704 C1705 1.287 . S
C1705 C1704 1.287 . S
C1705 C1706 1.524 . S
C1705 H1708 0.999 . S
C1706 H1676 0.950 . S
C1706 C1705 1.524 . S
C1706 C1707 1.415 . S
C1707 H1677 0.950 . S
C1707 C1702 1.363 . S
C1707 C1706 1.415 . S
H1708 C1705 0.999 . S
H1709 C1690 0.913 . S
H1710 C1728 0.951 . S
H1711 C1730 0.951 . S
H1712 C1732 0.950 . S
H1713 C1733 0.950 . S
H1714 C1735 0.950 . S
H1715 C1738 0.950 . S
H1716 C1739 0.950 1_545 S
H1717 C1741 0.950 1_545 S
H1718 C1742 0.950 . S
H1719 C1743 0.951 . S
H1720 C1745 0.951 . S
H1721 C1747 0.950 . S
H1722 C1748 0.950 . S
H1723 C1750 0.950 . S
H1724 C1753 0.950 . S
H1725 C1754 0.950 . S
H1726 C1756 0.950 . S
H1727 C1757 0.950 . S
C1728 H1710 0.951 . S
C1728 C1729 1.366 . S
C1728 C1730 1.388 . S
C1729 C1728 1.366 . S
C1729 C1733 1.385 . S
C1730 H1711 0.951 . S
C1730 C1728 1.388 . S
C1730 C1731 1.366 . S
C1731 C1730 1.366 . S
C1731 C1732 1.414 . S
C1731 C1734 1.499 . S
C1732 H1712 0.950 . S
C1732 C1731 1.414 . S
C1732 C1733 1.374 . S
C1733 H1713 0.950 . S
C1733 C1729 1.385 . S
C1733 C1732 1.374 . S
C1734 C1731 1.499 . S
C1734 C1735 1.373 . S
C1734 C1736 1.389 . S
C1735 H1714 0.950 . S
C1735 C1734 1.373 . S
C1735 C1751 1.377 . S
C1736 C1734 1.389 . S
C1736 C1737 1.524 . S
C1736 C1750 1.377 . S
C1737 C1736 1.524 . S
C1737 C1738 1.397 . S
C1737 C1742 1.363 . S
C1738 H1715 0.950 . S
C1738 C1737 1.397 . S
C1738 C1739 1.334 . S
C1739 H1716 0.950 1_565 S
C1739 C1738 1.334 . S
C1739 C1740 1.287 1_565 S
C1740 C1739 1.287 1_545 S
C1740 C1741 1.524 1_545 S
C1740 H1759 0.913 . S
C1741 H1717 0.950 1_565 S
C1741 C1740 1.524 1_565 S
C1741 C1742 1.415 . S
C1742 H1718 0.950 . S
C1742 C1737 1.363 . S
C1742 C1741 1.415 . S
C1743 H1719 0.951 . S
C1743 C1744 1.366 . S
C1743 C1745 1.388 . S
C1744 C1743 1.366 . S
C1744 C1748 1.385 . S
C1745 H1720 0.951 . S
C1745 C1743 1.388 . S
C1745 C1746 1.366 . S
C1746 C1745 1.366 . S
C1746 C1747 1.414 . S
C1746 C1749 1.499 . S
C1747 H1721 0.950 . S
C1747 C1746 1.414 . S
C1747 C1748 1.374 . S
C1748 H1722 0.950 . S
C1748 C1744 1.385 . S
C1748 C1747 1.374 . S
C1749 C1746 1.499 . S
C1749 C1750 1.373 . S
C1749 C1751 1.389 . S
C1750 H1723 0.950 . S
C1750 C1736 1.377 . S
C1750 C1749 1.373 . S
C1751 C1735 1.377 . S
C1751 C1749 1.389 . S
C1751 C1752 1.524 . S
C1752 C1751 1.524 . S
C1752 C1753 1.397 . S
C1752 C1757 1.363 . S
C1753 H1724 0.950 . S
C1753 C1752 1.397 . S
C1753 C1754 1.334 . S
C1754 H1725 0.950 . S
C1754 C1753 1.334 . S
C1754 C1755 1.287 . S
C1755 C1754 1.287 . S
C1755 C1756 1.524 . S
C1755 H1758 0.999 . S
C1756 H1726 0.950 . S
C1756 C1755 1.524 . S
C1756 C1757 1.415 . S
C1757 H1727 0.950 . S
C1757 C1752 1.363 . S
C1757 C1756 1.415 . S
H1758 C1755 0.999 . S
H1759 C1740 0.913 . S
H1760 C1778 0.951 . S
H1761 C1780 0.951 . S
H1762 C1782 0.950 . S
H1763 C1783 0.950 . S
H1764 C1785 0.950 . S
H1765 C1788 0.950 . S
H1766 C1789 0.950 . S
H1767 C1791 0.950 1_655 S
H1768 C1792 0.950 . S
H1769 C1793 0.951 . S
H1770 C1795 0.951 . S
H1771 C1797 0.950 . S
H1772 C1798 0.950 . S
H1773 C1800 0.950 . S
H1774 C1803 0.950 . S
H1775 C1804 0.950 . S
H1776 C1806 0.950 . S
H1777 C1807 0.950 . S
C1778 H1760 0.951 . S
C1778 C1779 1.366 . S
C1778 C1780 1.388 . S
C1779 C1778 1.366 . S
C1779 C1783 1.385 . S
C1780 H1761 0.951 . S
C1780 C1778 1.388 . S
C1780 C1781 1.366 . S
C1781 C1780 1.366 . S
C1781 C1782 1.414 . S
C1781 C1784 1.499 . S
C1782 H1762 0.950 . S
C1782 C1781 1.414 . S
C1782 C1783 1.374 . S
C1783 H1763 0.950 . S
C1783 C1779 1.385 . S
C1783 C1782 1.374 . S
C1784 C1781 1.499 . S
C1784 C1785 1.373 . S
C1784 C1786 1.389 . S
C1785 H1764 0.950 . S
C1785 C1784 1.373 . S
C1785 C1801 1.377 . S
C1786 C1784 1.389 . S
C1786 C1787 1.524 . S
C1786 C1800 1.377 . S
C1787 C1786 1.524 . S
C1787 C1788 1.397 . S
C1787 C1792 1.363 . S
C1788 H1765 0.950 . S
C1788 C1787 1.397 . S
C1788 C1789 1.334 . S
C1789 H1766 0.950 . S
C1789 C1788 1.334 . S
C1789 C1790 1.292 . S
C1790 C1789 1.292 . S
C1790 C1791 1.548 . S
C1790 H1809 0.881 1_455 S
C1791 H1767 0.950 1_455 S
C1791 C1790 1.548 . S
C1791 C1792 1.415 . S
C1792 H1768 0.950 . S
C1792 C1787 1.363 . S
C1792 C1791 1.415 . S
C1793 H1769 0.951 . S
C1793 C1794 1.366 . S
C1793 C1795 1.388 . S
C1794 C1793 1.366 . S
C1794 C1798 1.385 . S
C1795 H1770 0.951 . S
C1795 C1793 1.388 . S
C1795 C1796 1.366 . S
C1796 C1795 1.366 . S
C1796 C1797 1.414 . S
C1796 C1799 1.499 . S
C1797 H1771 0.950 . S
C1797 C1796 1.414 . S
C1797 C1798 1.374 . S
C1798 H1772 0.950 . S
C1798 C1794 1.385 . S
C1798 C1797 1.374 . S
C1799 C1796 1.499 . S
C1799 C1800 1.373 . S
C1799 C1801 1.389 . S
C1800 H1773 0.950 . S
C1800 C1786 1.377 . S
C1800 C1799 1.373 . S
C1801 C1785 1.377 . S
C1801 C1799 1.389 . S
C1801 C1802 1.524 . S
C1802 C1801 1.524 . S
C1802 C1803 1.397 . S
C1802 C1807 1.363 . S
C1803 H1774 0.950 . S
C1803 C1802 1.397 . S
C1803 C1804 1.334 . S
C1804 H1775 0.950 . S
C1804 C1803 1.334 . S
C1804 C1805 1.287 . S
C1805 C1804 1.287 . S
C1805 C1806 1.524 . S
C1805 H1808 0.999 . S
C1806 H1776 0.950 . S
C1806 C1805 1.524 . S
C1806 C1807 1.415 . S
C1807 H1777 0.950 . S
C1807 C1802 1.363 . S
C1807 C1806 1.415 . S
H1808 C1805 0.999 . S
H1809 C1790 0.881 1_655 S
H1810 C1828 0.951 . S
H1811 C1830 0.951 . S
H1812 C1832 0.950 . S
H1813 C1833 0.950 . S
H1814 C1835 0.950 . S
H1815 C1838 0.950 . S
H1816 C1839 0.950 . S
H1817 C1841 0.950 . S
H1818 C1842 0.950 . S
H1819 C1843 0.951 . S
H1820 C1845 0.951 . S
H1821 C1847 0.950 . S
H1822 C1848 0.950 . S
H1823 C1850 0.950 . S
H1824 C1853 0.950 . S
H1825 C1854 0.950 . S
H1826 C1856 0.950 . S
H1827 C1857 0.950 . S
C1828 H1810 0.951 . S
C1828 C1829 1.366 . S
C1828 C1830 1.388 . S
C1829 C1828 1.366 . S
C1829 C1833 1.385 . S
C1830 H1811 0.951 . S
C1830 C1828 1.388 . S
C1830 C1831 1.366 . S
C1831 C1830 1.366 . S
C1831 C1832 1.414 . S
C1831 C1834 1.499 . S
C1832 H1812 0.950 . S
C1832 C1831 1.414 . S
C1832 C1833 1.374 . S
C1833 H1813 0.950 . S
C1833 C1829 1.385 . S
C1833 C1832 1.374 . S
C1834 C1831 1.499 . S
C1834 C1835 1.373 . S
C1834 C1836 1.389 . S
C1835 H1814 0.950 . S
C1835 C1834 1.373 . S
C1835 C1851 1.377 . S
C1836 C1834 1.389 . S
C1836 C1837 1.524 . S
C1836 C1850 1.377 . S
C1837 C1836 1.524 . S
C1837 C1838 1.397 . S
C1837 C1842 1.363 . S
C1838 H1815 0.950 . S
C1838 C1837 1.397 . S
C1838 C1839 1.334 . S
C1839 H1816 0.950 . S
C1839 C1838 1.334 . S
C1839 C1840 1.287 . S
C1840 C1839 1.287 . S
C1840 C1841 1.524 . S
C1840 H1859 0.913 . S
C1841 H1817 0.950 . S
C1841 C1840 1.524 . S
C1841 C1842 1.415 . S
C1842 H1818 0.950 . S
C1842 C1837 1.363 . S
C1842 C1841 1.415 . S
C1843 H1819 0.951 . S
C1843 C1844 1.366 . S
C1843 C1845 1.388 . S
C1844 C1843 1.366 . S
C1844 C1848 1.385 . S
C1845 H1820 0.951 . S
C1845 C1843 1.388 . S
C1845 C1846 1.366 . S
C1846 C1845 1.366 . S
C1846 C1847 1.414 . S
C1846 C1849 1.499 . S
C1847 H1821 0.950 . S
C1847 C1846 1.414 . S
C1847 C1848 1.374 . S
C1848 H1822 0.950 . S
C1848 C1844 1.385 . S
C1848 C1847 1.374 . S
C1849 C1846 1.499 . S
C1849 C1850 1.373 . S
C1849 C1851 1.389 . S
C1850 H1823 0.950 . S
C1850 C1836 1.377 . S
C1850 C1849 1.373 . S
C1851 C1835 1.377 . S
C1851 C1849 1.389 . S
C1851 C1852 1.524 . S
C1852 C1851 1.524 . S
C1852 C1853 1.397 . S
C1852 C1857 1.363 . S
C1853 H1824 0.950 . S
C1853 C1852 1.397 . S
C1853 C1854 1.334 . S
C1854 H1825 0.950 . S
C1854 C1853 1.334 . S
C1854 C1855 1.287 . S
C1855 C1854 1.287 . S
C1855 C1856 1.524 . S
C1855 H1858 0.999 . S
C1856 H1826 0.950 . S
C1856 C1855 1.524 . S
C1856 C1857 1.415 . S
C1857 H1827 0.950 . S
C1857 C1852 1.363 . S
C1857 C1856 1.415 . S
H1858 C1855 0.999 . S
H1859 C1840 0.913 . S
H1860 C1878 0.951 . S
H1861 C1880 0.951 . S
H1862 C1882 0.950 . S
H1863 C1883 0.939 1_455 S
H1864 C1885 0.950 . S
H1865 C1888 0.950 . S
H1866 C1889 0.950 1_455 S
H1867 C1891 0.950 . S
H1868 C1892 0.950 . S
H1869 C1893 0.951 . S
H1870 C1895 0.951 . S
H1871 C1897 0.950 . S
H1872 C1898 0.950 . S
H1873 C1900 0.950 . S
H1874 C1903 0.950 . S
H1875 C1904 0.950 . S
H1876 C1906 0.950 . S
H1877 C1907 0.950 . S
C1878 H1860 0.951 . S
C1878 C1879 1.366 . S
C1878 C1880 1.388 . S
C1879 C1878 1.366 . S
C1879 C1883 1.385 . S
C1880 H1861 0.951 . S
C1880 C1878 1.388 . S
C1880 C1881 1.366 . S
C1881 C1880 1.366 . S
C1881 C1882 1.414 . S
C1881 C1884 1.499 . S
C1882 H1862 0.950 . S
C1882 C1881 1.414 . S
C1882 C1883 1.374 . S
C1883 H1863 0.939 1_655 S
C1883 C1879 1.385 . S
C1883 C1882 1.374 . S
C1884 C1881 1.499 . S
C1884 C1885 1.373 . S
C1884 C1886 1.389 . S
C1885 H1864 0.950 . S
C1885 C1884 1.373 . S
C1885 C1901 1.377 . S
C1886 C1884 1.389 . S
C1886 C1887 1.524 . S
C1886 C1900 1.377 . S
C1887 C1886 1.524 . S
C1887 C1888 1.397 . S
C1887 C1892 1.363 . S
C1888 H1865 0.950 . S
C1888 C1887 1.397 . S
C1888 C1889 1.334 . S
C1889 H1866 0.950 1_655 S
C1889 C1888 1.334 . S
C1889 C1890 1.287 . S
C1890 C1889 1.287 . S
C1890 C1891 1.524 . S
C1890 H1909 0.913 . S
C1891 H1867 0.950 . S
C1891 C1890 1.524 . S
C1891 C1892 1.415 . S
C1892 H1868 0.950 . S
C1892 C1887 1.363 . S
C1892 C1891 1.415 . S
C1893 H1869 0.951 . S
C1893 C1894 1.366 . S
C1893 C1895 1.388 . S
C1894 C1893 1.366 . S
C1894 C1898 1.385 . S
C1895 H1870 0.951 . S
C1895 C1893 1.388 . S
C1895 C1896 1.366 . S
C1896 C1895 1.366 . S
C1896 C1897 1.414 . S
C1896 C1899 1.499 . S
C1897 H1871 0.950 . S
C1897 C1896 1.414 . S
C1897 C1898 1.374 . S
C1898 H1872 0.950 . S
C1898 C1894 1.385 . S
C1898 C1897 1.374 . S
C1899 C1896 1.499 . S
C1899 C1900 1.373 . S
C1899 C1901 1.389 . S
C1900 H1873 0.950 . S
C1900 C1886 1.377 . S
C1900 C1899 1.373 . S
C1901 C1885 1.377 . S
C1901 C1899 1.389 . S
C1901 C1902 1.524 . S
C1902 C1901 1.524 . S
C1902 C1903 1.397 . S
C1902 C1907 1.363 . S
C1903 H1874 0.950 . S
C1903 C1902 1.397 . S
C1903 C1904 1.334 . S
C1904 H1875 0.950 . S
C1904 C1903 1.334 . S
C1904 C1905 1.287 . S
C1905 C1904 1.287 . S
C1905 C1906 1.524 . S
C1905 H1908 0.999 . S
C1906 H1876 0.950 . S
C1906 C1905 1.524 . S
C1906 C1907 1.415 . S
C1907 H1877 0.950 . S
C1907 C1902 1.363 . S
C1907 C1906 1.415 . S
H1908 C1905 0.999 . S
H1909 C1890 0.913 . S
H1910 C1928 0.951 . S
H1911 C1930 0.951 . S
H1912 C1932 0.950 . S
H1913 C1933 0.950 . S
H1914 C1935 0.950 . S
H1915 C1938 0.950 . S
H1916 C1939 0.950 . S
H1917 C1941 0.950 . S
H1918 C1942 0.950 . S
H1919 C1943 0.951 . S
H1920 C1945 0.951 . S
H1921 C1947 0.950 . S
H1922 C1948 0.950 . S
H1923 C1950 0.950 . S
H1924 C1953 0.950 . S
H1925 C1954 0.950 . S
H1926 C1956 0.950 . S
H1927 C1957 0.950 . S
C1928 H1910 0.951 . S
C1928 C1929 1.366 . S
C1928 C1930 1.388 . S
C1929 C1928 1.366 . S
C1929 C1933 1.385 . S
C1930 H1911 0.951 . S
C1930 C1928 1.388 . S
C1930 C1931 1.366 . S
C1931 C1930 1.366 . S
C1931 C1932 1.414 . S
C1931 C1934 1.499 . S
C1932 H1912 0.950 . S
C1932 C1931 1.414 . S
C1932 C1933 1.374 . S
C1933 H1913 0.950 . S
C1933 C1929 1.385 . S
C1933 C1932 1.374 . S
C1934 C1931 1.499 . S
C1934 C1935 1.373 . S
C1934 C1936 1.389 . S
C1935 H1914 0.950 . S
C1935 C1934 1.373 . S
C1935 C1951 1.377 . S
C1936 C1934 1.389 . S
C1936 C1937 1.524 . S
C1936 C1950 1.377 . S
C1937 C1936 1.524 . S
C1937 C1938 1.397 . S
C1937 C1942 1.363 . S
C1938 H1915 0.950 . S
C1938 C1937 1.397 . S
C1938 C1939 1.334 . S
C1939 H1916 0.950 . S
C1939 C1938 1.334 . S
C1939 C1940 1.287 . S
C1940 C1939 1.287 . S
C1940 C1941 1.524 . S
C1940 H1959 0.913 . S
C1941 H1917 0.950 . S
C1941 C1940 1.524 . S
C1941 C1942 1.415 . S
C1942 H1918 0.950 . S
C1942 C1937 1.363 . S
C1942 C1941 1.415 . S
C1943 H1919 0.951 . S
C1943 C1944 1.366 . S
C1943 C1945 1.388 . S
C1944 C1943 1.366 . S
C1944 C1948 1.385 . S
C1945 H1920 0.951 . S
C1945 C1943 1.388 . S
C1945 C1946 1.366 . S
C1946 C1945 1.366 . S
C1946 C1947 1.414 . S
C1946 C1949 1.499 . S
C1947 H1921 0.950 . S
C1947 C1946 1.414 . S
C1947 C1948 1.374 . S
C1948 H1922 0.950 . S
C1948 C1944 1.385 . S
C1948 C1947 1.374 . S
C1949 C1946 1.499 . S
C1949 C1950 1.373 . S
C1949 C1951 1.389 . S
C1950 H1923 0.950 . S
C1950 C1936 1.377 . S
C1950 C1949 1.373 . S
C1951 C1935 1.377 . S
C1951 C1949 1.389 . S
C1951 C1952 1.524 . S
C1952 C1951 1.524 . S
C1952 C1953 1.397 . S
C1952 C1957 1.363 . S
C1953 H1924 0.950 . S
C1953 C1952 1.397 . S
C1953 C1954 1.334 . S
C1954 H1925 0.950 . S
C1954 C1953 1.334 . S
C1954 C1955 1.287 . S
C1955 C1954 1.287 . S
C1955 C1956 1.524 . S
C1955 H1958 0.999 . S
C1956 H1926 0.950 . S
C1956 C1955 1.524 . S
C1956 C1957 1.415 . S
C1957 H1927 0.950 . S
C1957 C1952 1.363 . S
C1957 C1956 1.415 . S
H1958 C1955 0.999 . S
H1959 C1940 0.913 . S
H1960 C1978 0.951 . S
H1961 C1980 0.951 . S
H1962 C1982 0.950 . S
H1963 C1983 0.950 . S
H1964 C1985 0.950 . S
H1965 C1988 0.950 . S
H1966 C1989 0.950 . S
H1967 C1991 0.950 . S
H1968 C1992 0.950 . S
H1969 C1993 0.951 . S
H1970 C1995 0.951 . S
H1971 C1997 0.950 . S
H1972 C1998 0.950 . S
H1973 C2000 0.950 . S
H1974 C2003 0.950 . S
H1975 C2004 0.950 . S
H1976 C2006 0.950 . S
H1977 C2007 0.950 . S
C1978 H1960 0.951 . S
C1978 C1979 1.366 . S
C1978 C1980 1.388 . S
C1979 C1978 1.366 . S
C1979 C1983 1.385 . S
C1980 H1961 0.951 . S
C1980 C1978 1.388 . S
C1980 C1981 1.366 . S
C1981 C1980 1.366 . S
C1981 C1982 1.414 . S
C1981 C1984 1.499 . S
C1982 H1962 0.950 . S
C1982 C1981 1.414 . S
C1982 C1983 1.374 . S
C1983 H1963 0.950 . S
C1983 C1979 1.385 . S
C1983 C1982 1.374 . S
C1984 C1981 1.499 . S
C1984 C1985 1.373 . S
C1984 C1986 1.389 . S
C1985 H1964 0.950 . S
C1985 C1984 1.373 . S
C1985 C2001 1.377 . S
C1986 C1984 1.389 . S
C1986 C1987 1.524 . S
C1986 C2000 1.377 . S
C1987 C1986 1.524 . S
C1987 C1988 1.397 . S
C1987 C1992 1.363 . S
C1988 H1965 0.950 . S
C1988 C1987 1.397 . S
C1988 C1989 1.334 . S
C1989 H1966 0.950 . S
C1989 C1988 1.334 . S
C1989 C1990 1.287 . S
C1990 C1989 1.287 . S
C1990 C1991 1.524 . S
C1990 H2009 0.913 . S
C1991 H1967 0.950 . S
C1991 C1990 1.524 . S
C1991 C1992 1.415 . S
C1992 H1968 0.950 . S
C1992 C1987 1.363 . S
C1992 C1991 1.415 . S
C1993 H1969 0.951 . S
C1993 C1994 1.366 . S
C1993 C1995 1.388 . S
C1994 C1993 1.366 . S
C1994 C1998 1.385 . S
C1995 H1970 0.951 . S
C1995 C1993 1.388 . S
C1995 C1996 1.366 . S
C1996 C1995 1.366 . S
C1996 C1997 1.414 . S
C1996 C1999 1.499 . S
C1997 H1971 0.950 . S
C1997 C1996 1.414 . S
C1997 C1998 1.374 . S
C1998 H1972 0.950 . S
C1998 C1994 1.385 . S
C1998 C1997 1.374 . S
C1999 C1996 1.499 . S
C1999 C2000 1.373 . S
C1999 C2001 1.389 . S
C2000 H1973 0.950 . S
C2000 C1986 1.377 . S
C2000 C1999 1.373 . S
C2001 C1985 1.377 . S
C2001 C1999 1.389 . S
C2001 C2002 1.524 . S
C2002 C2001 1.524 . S
C2002 C2003 1.397 . S
C2002 C2007 1.363 . S
C2003 H1974 0.950 . S
C2003 C2002 1.397 . S
C2003 C2004 1.334 . S
C2004 H1975 0.950 . S
C2004 C2003 1.334 . S
C2004 C2005 1.287 . S
C2005 C2004 1.287 . S
C2005 C2006 1.524 . S
C2005 H2008 0.999 . S
C2006 H1976 0.950 . S
C2006 C2005 1.524 . S
C2006 C2007 1.415 . S
C2007 H1977 0.950 . S
C2007 C2002 1.363 . S
C2007 C2006 1.415 . S
H2008 C2005 0.999 . S
H2009 C1990 0.913 . S
H2010 C2028 0.951 . S
H2011 C2030 0.951 . S
H2012 C2032 0.950 1_455 S
H2013 C2033 0.950 . S
H2014 C2035 0.950 . S
H2015 C2038 0.950 1_455 S
H2016 C2039 0.950 . S
H2017 C2041 0.950 . S
H2018 C2042 0.950 . S
H2019 C2043 0.951 . S
H2020 C2045 0.951 . S
H2021 C2047 0.950 . S
H2022 C2048 0.950 . S
H2023 C2050 0.950 . S
H2024 C2053 0.950 . S
H2025 C2054 0.950 . S
H2026 C2056 0.950 . S
H2027 C2057 0.950 . S
C2028 H2010 0.951 . S
C2028 C2029 1.366 . S
C2028 C2030 1.388 . S
C2029 C2028 1.366 . S
C2029 C2033 1.385 . S
C2030 H2011 0.951 . S
C2030 C2028 1.388 . S
C2030 C2031 1.366 . S
C2031 C2030 1.366 . S
C2031 C2032 1.414 . S
C2031 C2034 1.499 1_655 S
C2032 H2012 0.950 1_655 S
C2032 C2031 1.414 . S
C2032 C2033 1.374 . S
C2033 H2013 0.950 . S
C2033 C2029 1.385 . S
C2033 C2032 1.374 . S
C2034 C2031 1.499 1_455 S
C2034 C2035 1.373 . S
C2034 C2036 1.389 . S
C2035 H2014 0.950 . S
C2035 C2034 1.373 . S
C2035 C2051 1.377 . S
C2036 C2034 1.389 . S
C2036 C2037 1.524 1_455 S
C2036 C2050 1.377 . S
C2037 C2036 1.524 1_655 S
C2037 C2038 1.397 . S
C2037 C2042 1.363 . S
C2038 H2015 0.950 1_655 S
C2038 C2037 1.397 . S
C2038 C2039 1.334 . S
C2039 H2016 0.950 . S
C2039 C2038 1.334 . S
C2039 C2040 1.287 . S
C2040 C2039 1.287 . S
C2040 C2041 1.524 . S
C2040 H2059 0.913 . S
C2041 H2017 0.950 . S
C2041 C2040 1.524 . S
C2041 C2042 1.415 . S
C2042 H2018 0.950 . S
C2042 C2037 1.363 . S
C2042 C2041 1.415 . S
C2043 H2019 0.951 . S
C2043 C2044 1.366 . S
C2043 C2045 1.388 . S
C2044 C2043 1.366 . S
C2044 C2048 1.385 . S
C2045 H2020 0.951 . S
C2045 C2043 1.388 . S
C2045 C2046 1.366 . S
C2046 C2045 1.366 . S
C2046 C2047 1.414 . S
C2046 C2049 1.499 . S
C2047 H2021 0.950 . S
C2047 C2046 1.414 . S
C2047 C2048 1.374 . S
C2048 H2022 0.950 . S
C2048 C2044 1.385 . S
C2048 C2047 1.374 . S
C2049 C2046 1.499 . S
C2049 C2050 1.373 . S
C2049 C2051 1.389 . S
C2050 H2023 0.950 . S
C2050 C2036 1.377 . S
C2050 C2049 1.373 . S
C2051 C2035 1.377 . S
C2051 C2049 1.389 . S
C2051 C2052 1.524 . S
C2052 C2051 1.524 . S
C2052 C2053 1.397 . S
C2052 C2057 1.363 . S
C2053 H2024 0.950 . S
C2053 C2052 1.397 . S
C2053 C2054 1.334 . S
C2054 H2025 0.950 . S
C2054 C2053 1.334 . S
C2054 C2055 1.287 . S
C2055 C2054 1.287 . S
C2055 C2056 1.524 . S
C2055 H2058 0.999 . S
C2056 H2026 0.950 . S
C2056 C2055 1.524 . S
C2056 C2057 1.415 . S
C2057 H2027 0.950 . S
C2057 C2052 1.363 . S
C2057 C2056 1.415 . S
H2058 C2055 0.999 . S
H2059 C2040 0.913 . S
H2060 C2078 0.951 . S
H2061 C2080 0.951 . S
H2062 C2082 0.950 . S
H2063 C2083 0.950 . S
H2064 C2085 0.950 . S
H2065 C2088 0.950 . S
H2066 C2089 0.950 . S
H2067 C2091 0.950 . S
H2068 C2092 0.950 . S
H2069 C2093 0.951 . S
H2070 C2095 0.951 . S
H2071 C2097 0.950 . S
H2072 C2098 0.950 . S
H2073 C2100 0.950 . S
H2074 C2103 0.950 . S
H2075 C2104 0.950 . S
H2076 C2106 0.950 . S
H2077 C2107 0.950 . S
C2078 H2060 0.951 . S
C2078 C2079 1.366 . S
C2078 C2080 1.388 . S
C2079 C2078 1.366 . S
C2079 C2083 1.385 . S
C2080 H2061 0.951 . S
C2080 C2078 1.388 . S
C2080 C2081 1.366 . S
C2081 C2080 1.366 . S
C2081 C2082 1.414 . S
C2081 C2084 1.499 . S
C2082 H2062 0.950 . S
C2082 C2081 1.414 . S
C2082 C2083 1.374 . S
C2083 H2063 0.950 . S
C2083 C2079 1.385 . S
C2083 C2082 1.374 . S
C2084 C2081 1.499 . S
C2084 C2085 1.373 . S
C2084 C2086 1.389 . S
C2085 H2064 0.950 . S
C2085 C2084 1.373 . S
C2085 C2101 1.377 . S
C2086 C2084 1.389 . S
C2086 C2087 1.524 . S
C2086 C2100 1.377 . S
C2087 C2086 1.524 . S
C2087 C2088 1.397 . S
C2087 C2092 1.363 . S
C2088 H2065 0.950 . S
C2088 C2087 1.397 . S
C2088 C2089 1.334 . S
C2089 H2066 0.950 . S
C2089 C2088 1.334 . S
C2089 C2090 1.287 . S
C2090 C2089 1.287 . S
C2090 C2091 1.524 . S
C2090 H2109 0.913 . S
C2091 H2067 0.950 . S
C2091 C2090 1.524 . S
C2091 C2092 1.415 . S
C2092 H2068 0.950 . S
C2092 C2087 1.363 . S
C2092 C2091 1.415 . S
C2093 H2069 0.951 . S
C2093 C2094 1.366 . S
C2093 C2095 1.388 . S
C2094 C2093 1.366 . S
C2094 C2098 1.385 . S
C2095 H2070 0.951 . S
C2095 C2093 1.388 . S
C2095 C2096 1.366 . S
C2096 C2095 1.366 . S
C2096 C2097 1.414 . S
C2096 C2099 1.499 . S
C2097 H2071 0.950 . S
C2097 C2096 1.414 . S
C2097 C2098 1.374 . S
C2098 H2072 0.950 . S
C2098 C2094 1.385 . S
C2098 C2097 1.374 . S
C2099 C2096 1.499 . S
C2099 C2100 1.373 . S
C2099 C2101 1.389 . S
C2100 H2073 0.950 . S
C2100 C2086 1.377 . S
C2100 C2099 1.373 . S
C2101 C2085 1.377 . S
C2101 C2099 1.389 . S
C2101 C2102 1.524 . S
C2102 C2101 1.524 . S
C2102 C2103 1.397 . S
C2102 C2107 1.363 . S
C2103 H2074 0.950 . S
C2103 C2102 1.397 . S
C2103 C2104 1.334 . S
C2104 H2075 0.950 . S
C2104 C2103 1.334 . S
C2104 C2105 1.287 . S
C2105 C2104 1.287 . S
C2105 C2106 1.524 . S
C2105 H2108 0.999 . S
C2106 H2076 0.950 . S
C2106 C2105 1.524 . S
C2106 C2107 1.415 . S
C2107 H2077 0.950 . S
C2107 C2102 1.363 . S
C2107 C2106 1.415 . S
H2108 C2105 0.999 . S
H2109 C2090 0.913 . S
H2110 C2128 0.951 . S
H2111 C2130 0.951 . S
H2112 C2132 0.950 . S
H2113 C2133 0.950 . S
H2114 C2135 0.950 . S
H2115 C2138 0.950 . S
H2116 C2139 0.950 . S
H2117 C2141 0.950 . S
H2118 C2142 0.950 . S
H2119 C2143 0.951 . S
H2120 C2145 0.951 . S
H2121 C2147 0.950 . S
H2122 C2148 0.950 . S
H2123 C2150 0.950 . S
H2124 C2153 0.950 . S
H2125 C2154 0.950 . S
H2126 C2156 0.950 . S
H2127 C2157 0.950 . S
C2128 H2110 0.951 . S
C2128 C2129 1.366 . S
C2128 C2130 1.388 . S
C2129 C2128 1.366 . S
C2129 C2133 1.385 . S
C2130 H2111 0.951 . S
C2130 C2128 1.388 . S
C2130 C2131 1.366 . S
C2131 C2130 1.366 . S
C2131 C2132 1.414 . S
C2131 C2134 1.499 1_565 S
C2132 H2112 0.950 . S
C2132 C2131 1.414 . S
C2132 C2133 1.374 . S
C2133 H2113 0.950 . S
C2133 C2129 1.385 . S
C2133 C2132 1.374 . S
C2134 C2131 1.499 1_545 S
C2134 C2135 1.373 . S
C2134 C2136 1.389 1_545 S
C2135 H2114 0.950 . S
C2135 C2134 1.373 . S
C2135 C2151 1.377 . S
C2136 C2134 1.389 1_565 S
C2136 C2137 1.524 . S
C2136 C2150 1.377 1_565 S
C2137 C2136 1.524 . S
C2137 C2138 1.397 . S
C2137 C2142 1.363 . S
C2138 H2115 0.950 . S
C2138 C2137 1.397 . S
C2138 C2139 1.334 . S
C2139 H2116 0.950 . S
C2139 C2138 1.334 . S
C2139 C2140 1.287 . S
C2140 C2139 1.287 . S
C2140 C2141 1.524 . S
C2140 H2159 0.913 . S
C2141 H2117 0.950 . S
C2141 C2140 1.524 . S
C2141 C2142 1.415 . S
C2142 H2118 0.950 . S
C2142 C2137 1.363 . S
C2142 C2141 1.415 . S
C2143 H2119 0.951 . S
C2143 C2144 1.366 . S
C2143 C2145 1.388 . S
C2144 C2143 1.366 . S
C2144 C2148 1.385 . S
C2145 H2120 0.951 . S
C2145 C2143 1.388 . S
C2145 C2146 1.366 . S
C2146 C2145 1.366 . S
C2146 C2147 1.414 . S
C2146 C2149 1.499 . S
C2147 H2121 0.950 . S
C2147 C2146 1.414 . S
C2147 C2148 1.374 . S
C2148 H2122 0.950 . S
C2148 C2144 1.385 . S
C2148 C2147 1.374 . S
C2149 C2146 1.499 . S
C2149 C2150 1.373 . S
C2149 C2151 1.389 . S
C2150 H2123 0.950 . S
C2150 C2136 1.377 1_545 S
C2150 C2149 1.373 . S
C2151 C2135 1.377 . S
C2151 C2149 1.389 . S
C2151 C2152 1.524 . S
C2152 C2151 1.524 . S
C2152 C2153 1.397 . S
C2152 C2157 1.363 . S
C2153 H2124 0.950 . S
C2153 C2152 1.397 . S
C2153 C2154 1.334 . S
C2154 H2125 0.950 . S
C2154 C2153 1.334 . S
C2154 C2155 1.287 . S
C2155 C2154 1.287 . S
C2155 C2156 1.524 . S
C2155 H2158 0.999 . S
C2156 H2126 0.950 . S
C2156 C2155 1.524 . S
C2156 C2157 1.415 . S
C2157 H2127 0.950 . S
C2157 C2152 1.363 . S
C2157 C2156 1.415 . S
H2158 C2155 0.999 . S
H2159 C2140 0.913 . S
H2160 C2178 0.951 . S
H2161 C2180 0.951 . S
H2162 C2182 0.950 . S
H2163 C2183 0.950 . S
H2164 C2185 0.950 . S
H2165 C2188 0.950 . S
H2166 C2189 0.950 . S
H2167 C2191 0.950 . S
H2168 C2192 0.950 . S
H2169 C2193 0.951 . S
H2170 C2195 0.951 . S
H2171 C2197 0.950 . S
H2172 C2198 0.950 . S
H2173 C2200 0.950 . S
H2174 C2203 0.950 . S
H2175 C2204 0.950 . S
H2176 C2206 0.950 . S
H2177 C2207 0.950 . S
C2178 H2160 0.951 . S
C2178 C2179 1.366 . S
C2178 C2180 1.388 . S
C2179 C2178 1.366 . S
C2179 C2183 1.385 . S
C2180 H2161 0.951 . S
C2180 C2178 1.388 . S
C2180 C2181 1.366 . S
C2181 C2180 1.366 . S
C2181 C2182 1.414 . S
C2181 C2184 1.499 . S
C2182 H2162 0.950 . S
C2182 C2181 1.414 . S
C2182 C2183 1.374 . S
C2183 H2163 0.950 . S
C2183 C2179 1.385 . S
C2183 C2182 1.374 . S
C2184 C2181 1.499 . S
C2184 C2185 1.373 . S
C2184 C2186 1.389 . S
C2185 H2164 0.950 . S
C2185 C2184 1.373 . S
C2185 C2201 1.377 . S
C2186 C2184 1.389 . S
C2186 C2187 1.524 . S
C2186 C2200 1.377 . S
C2187 C2186 1.524 . S
C2187 C2188 1.397 . S
C2187 C2192 1.363 . S
C2188 H2165 0.950 . S
C2188 C2187 1.397 . S
C2188 C2189 1.334 . S
C2189 H2166 0.950 . S
C2189 C2188 1.334 . S
C2189 C2190 1.287 . S
C2190 C2189 1.287 . S
C2190 C2191 1.524 . S
C2190 H2209 0.913 . S
C2191 H2167 0.950 . S
C2191 C2190 1.524 . S
C2191 C2192 1.415 . S
C2192 H2168 0.950 . S
C2192 C2187 1.363 . S
C2192 C2191 1.415 . S
C2193 H2169 0.951 . S
C2193 C2194 1.366 . S
C2193 C2195 1.388 . S
C2194 C2193 1.366 . S
C2194 C2198 1.385 . S
C2195 H2170 0.951 . S
C2195 C2193 1.388 . S
C2195 C2196 1.366 . S
C2196 C2195 1.366 . S
C2196 C2197 1.414 . S
C2196 C2199 1.499 . S
C2197 H2171 0.950 . S
C2197 C2196 1.414 . S
C2197 C2198 1.374 . S
C2198 H2172 0.950 . S
C2198 C2194 1.385 . S
C2198 C2197 1.374 . S
C2199 C2196 1.499 . S
C2199 C2200 1.373 . S
C2199 C2201 1.389 . S
C2200 H2173 0.950 . S
C2200 C2186 1.377 . S
C2200 C2199 1.373 . S
C2201 C2185 1.377 . S
C2201 C2199 1.389 . S
C2201 C2202 1.524 . S
C2202 C2201 1.524 . S
C2202 C2203 1.397 . S
C2202 C2207 1.363 . S
C2203 H2174 0.950 . S
C2203 C2202 1.397 . S
C2203 C2204 1.334 . S
C2204 H2175 0.950 . S
C2204 C2203 1.334 . S
C2204 C2205 1.287 . S
C2205 C2204 1.287 . S
C2205 C2206 1.524 . S
C2205 H2208 0.999 . S
C2206 H2176 0.950 . S
C2206 C2205 1.524 . S
C2206 C2207 1.415 . S
C2207 H2177 0.950 . S
C2207 C2202 1.363 . S
C2207 C2206 1.415 . S
H2208 C2205 0.999 . S
H2209 C2190 0.913 . S
H2210 C2228 0.951 . S
H2211 C2230 0.951 . S
H2212 C2232 0.950 . S
H2213 C2233 0.950 . S
H2214 C2235 0.950 . S
H2215 C2238 0.950 . S
H2216 C2239 0.950 . S
H2217 C2241 0.950 . S
H2218 C2242 0.950 . S
H2219 C2243 0.951 . S
H2220 C2245 0.951 . S
H2221 C2247 0.950 . S
H2222 C2248 0.950 . S
H2223 C2250 0.950 . S
H2224 C2253 0.950 . S
H2225 C2254 0.950 . S
H2226 C2256 0.950 . S
H2227 C2257 0.950 . S
C2228 H2210 0.951 . S
C2228 C2229 1.366 . S
C2228 C2230 1.388 . S
C2229 C2228 1.366 . S
C2229 C2233 1.385 . S
C2230 H2211 0.951 . S
C2230 C2228 1.388 . S
C2230 C2231 1.366 . S
C2231 C2230 1.366 . S
C2231 C2232 1.414 . S
C2231 C2234 1.499 . S
C2232 H2212 0.950 . S
C2232 C2231 1.414 . S
C2232 C2233 1.374 . S
C2233 H2213 0.950 . S
C2233 C2229 1.385 . S
C2233 C2232 1.374 . S
C2234 C2231 1.499 . S
C2234 C2235 1.373 . S
C2234 C2236 1.389 . S
C2235 H2214 0.950 . S
C2235 C2234 1.373 . S
C2235 C2251 1.377 . S
C2236 C2234 1.389 . S
C2236 C2237 1.524 . S
C2236 C2250 1.377 . S
C2237 C2236 1.524 . S
C2237 C2238 1.397 . S
C2237 C2242 1.363 . S
C2238 H2215 0.950 . S
C2238 C2237 1.397 . S
C2238 C2239 1.334 . S
C2239 H2216 0.950 . S
C2239 C2238 1.334 . S
C2239 C2240 1.287 . S
C2240 C2239 1.287 . S
C2240 C2241 1.524 . S
C2240 H2259 0.913 . S
C2241 H2217 0.950 . S
C2241 C2240 1.524 . S
C2241 C2242 1.415 . S
C2242 H2218 0.950 . S
C2242 C2237 1.363 . S
C2242 C2241 1.415 . S
C2243 H2219 0.951 . S
C2243 C2244 1.366 . S
C2243 C2245 1.388 . S
C2244 C2243 1.366 . S
C2244 C2248 1.385 . S
C2245 H2220 0.951 . S
C2245 C2243 1.388 . S
C2245 C2246 1.366 . S
C2246 C2245 1.366 . S
C2246 C2247 1.414 . S
C2246 C2249 1.499 . S
C2247 H2221 0.950 . S
C2247 C2246 1.414 . S
C2247 C2248 1.374 . S
C2248 H2222 0.950 . S
C2248 C2244 1.385 . S
C2248 C2247 1.374 . S
C2249 C2246 1.499 . S
C2249 C2250 1.373 . S
C2249 C2251 1.389 . S
C2250 H2223 0.950 . S
C2250 C2236 1.377 . S
C2250 C2249 1.373 . S
C2251 C2235 1.377 . S
C2251 C2249 1.389 . S
C2251 C2252 1.524 . S
C2252 C2251 1.524 . S
C2252 C2253 1.397 . S
C2252 C2257 1.363 . S
C2253 H2224 0.950 . S
C2253 C2252 1.397 . S
C2253 C2254 1.334 . S
C2254 H2225 0.950 . S
C2254 C2253 1.334 . S
C2254 C2255 1.287 . S
C2255 C2254 1.287 . S
C2255 C2256 1.524 . S
C2255 H2258 0.999 . S
C2256 H2226 0.950 . S
C2256 C2255 1.524 . S
C2256 C2257 1.415 . S
C2257 H2227 0.950 . S
C2257 C2252 1.363 . S
C2257 C2256 1.415 . S
H2258 C2255 0.999 . S
H2259 C2240 0.913 . S
H2260 C2278 0.951 . S
H2261 C2280 0.951 . S
H2262 C2282 0.950 . S
H2263 C2283 0.950 . S
H2264 C2285 0.950 . S
H2265 C2288 0.950 . S
H2266 C2289 0.950 . S
H2267 C2291 0.950 . S
H2268 C2292 0.950 . S
H2269 C2293 0.951 . S
H2270 C2295 0.951 . S
H2271 C2297 0.950 . S
H2272 C2298 0.950 . S
H2273 C2300 0.950 . S
H2274 C2303 0.950 . S
H2275 C2304 0.950 . S
H2276 C2306 0.950 . S
H2277 C2307 0.950 . S
C2278 H2260 0.951 . S
C2278 C2279 1.366 . S
C2278 C2280 1.388 . S
C2279 C2278 1.366 . S
C2279 C2283 1.385 . S
C2280 H2261 0.951 . S
C2280 C2278 1.388 . S
C2280 C2281 1.366 . S
C2281 C2280 1.366 . S
C2281 C2282 1.414 . S
C2281 C2284 1.499 . S
C2282 H2262 0.950 . S
C2282 C2281 1.414 . S
C2282 C2283 1.374 . S
C2283 H2263 0.950 . S
C2283 C2279 1.385 . S
C2283 C2282 1.374 . S
C2284 C2281 1.499 . S
C2284 C2285 1.373 . S
C2284 C2286 1.389 . S
C2285 H2264 0.950 . S
C2285 C2284 1.373 . S
C2285 C2301 1.377 . S
C2286 C2284 1.389 . S
C2286 C2287 1.524 . S
C2286 C2300 1.377 . S
C2287 C2286 1.524 . S
C2287 C2288 1.397 . S
C2287 C2292 1.363 . S
C2288 H2265 0.950 . S
C2288 C2287 1.397 . S
C2288 C2289 1.334 . S
C2289 H2266 0.950 . S
C2289 C2288 1.334 . S
C2289 C2290 1.287 . S
C2290 C2289 1.287 . S
C2290 C2291 1.524 . S
C2290 H2309 0.913 . S
C2291 H2267 0.950 . S
C2291 C2290 1.524 . S
C2291 C2292 1.415 . S
C2292 H2268 0.950 . S
C2292 C2287 1.363 . S
C2292 C2291 1.415 . S
C2293 H2269 0.951 . S
C2293 C2294 1.366 . S
C2293 C2295 1.388 . S
C2294 C2293 1.366 . S
C2294 C2298 1.385 . S
C2295 H2270 0.951 . S
C2295 C2293 1.388 . S
C2295 C2296 1.366 . S
C2296 C2295 1.366 . S
C2296 C2297 1.414 . S
C2296 C2299 1.499 . S
C2297 H2271 0.950 . S
C2297 C2296 1.414 . S
C2297 C2298 1.374 . S
C2298 H2272 0.950 . S
C2298 C2294 1.385 . S
C2298 C2297 1.374 . S
C2299 C2296 1.499 . S
C2299 C2300 1.373 . S
C2299 C2301 1.389 . S
C2300 H2273 0.950 . S
C2300 C2286 1.377 . S
C2300 C2299 1.373 . S
C2301 C2285 1.377 . S
C2301 C2299 1.389 . S
C2301 C2302 1.524 . S
C2302 C2301 1.524 . S
C2302 C2303 1.397 . S
C2302 C2307 1.363 . S
C2303 H2274 0.950 . S
C2303 C2302 1.397 . S
C2303 C2304 1.334 . S
C2304 H2275 0.950 . S
C2304 C2303 1.334 . S
C2304 C2305 1.287 . S
C2305 C2304 1.287 . S
C2305 C2306 1.524 . S
C2305 H2308 0.999 . S
C2306 H2276 0.950 . S
C2306 C2305 1.524 . S
C2306 C2307 1.415 . S
C2307 H2277 0.950 . S
C2307 C2302 1.363 . S
C2307 C2306 1.415 . S
H2308 C2305 0.999 . S
H2309 C2290 0.913 . S
H2310 C2328 0.951 . S
H2311 C2330 0.951 . S
H2312 C2332 0.950 . S
H2313 C2333 0.950 . S
H2314 C2335 0.950 . S
H2315 C2338 0.950 . S
H2316 C2339 0.950 . S
H2317 C2341 0.950 . S
H2318 C2342 0.950 . S
H2319 C2343 0.951 . S
H2320 C2345 0.951 . S
H2321 C2347 0.950 . S
H2322 C2348 0.950 . S
H2323 C2350 0.950 . S
H2324 C2353 0.950 . S
H2325 C2354 0.950 . S
H2326 C2356 0.950 . S
H2327 C2357 0.950 . S
C2328 H2310 0.951 . S
C2328 C2329 1.366 . S
C2328 C2330 1.388 . S
C2329 C2328 1.366 . S
C2329 C2333 1.385 . S
C2330 H2311 0.951 . S
C2330 C2328 1.388 . S
C2330 C2331 1.366 . S
C2331 C2330 1.366 . S
C2331 C2332 1.414 . S
C2331 C2334 1.499 . S
C2332 H2312 0.950 . S
C2332 C2331 1.414 . S
C2332 C2333 1.374 . S
C2333 H2313 0.950 . S
C2333 C2329 1.385 . S
C2333 C2332 1.374 . S
C2334 C2331 1.499 . S
C2334 C2335 1.373 . S
C2334 C2336 1.389 . S
C2335 H2314 0.950 . S
C2335 C2334 1.373 . S
C2335 C2351 1.377 . S
C2336 C2334 1.389 . S
C2336 C2337 1.524 . S
C2336 C2350 1.377 . S
C2337 C2336 1.524 . S
C2337 C2338 1.397 . S
C2337 C2342 1.363 . S
C2338 H2315 0.950 . S
C2338 C2337 1.397 . S
C2338 C2339 1.334 . S
C2339 H2316 0.950 . S
C2339 C2338 1.334 . S
C2339 C2340 1.287 . S
C2340 C2339 1.287 . S
C2340 C2341 1.524 . S
C2340 H2359 0.913 . S
C2341 H2317 0.950 . S
C2341 C2340 1.524 . S
C2341 C2342 1.415 . S
C2342 H2318 0.950 . S
C2342 C2337 1.363 . S
C2342 C2341 1.415 . S
C2343 H2319 0.951 . S
C2343 C2344 1.366 . S
C2343 C2345 1.388 . S
C2344 C2343 1.366 . S
C2344 C2348 1.385 . S
C2345 H2320 0.951 . S
C2345 C2343 1.388 . S
C2345 C2346 1.366 . S
C2346 C2345 1.366 . S
C2346 C2347 1.414 . S
C2346 C2349 1.499 . S
C2347 H2321 0.950 . S
C2347 C2346 1.414 . S
C2347 C2348 1.374 . S
C2348 H2322 0.950 . S
C2348 C2344 1.385 . S
C2348 C2347 1.374 . S
C2349 C2346 1.499 . S
C2349 C2350 1.373 . S
C2349 C2351 1.389 . S
C2350 H2323 0.950 . S
C2350 C2336 1.377 . S
C2350 C2349 1.373 . S
C2351 C2335 1.377 . S
C2351 C2349 1.389 . S
C2351 C2352 1.524 . S
C2352 C2351 1.524 . S
C2352 C2353 1.397 . S
C2352 C2357 1.363 . S
C2353 H2324 0.950 . S
C2353 C2352 1.397 . S
C2353 C2354 1.334 . S
C2354 H2325 0.950 . S
C2354 C2353 1.334 . S
C2354 C2355 1.287 . S
C2355 C2354 1.287 . S
C2355 C2356 1.524 . S
C2355 H2358 0.999 . S
C2356 H2326 0.950 . S
C2356 C2355 1.524 . S
C2356 C2357 1.415 . S
C2357 H2327 0.950 . S
C2357 C2352 1.363 . S
C2357 C2356 1.415 . S
H2358 C2355 0.999 . S
H2359 C2340 0.913 . S
H2360 C2378 0.951 . S
H2361 C2380 0.951 . S
H2362 C2382 0.950 . S
H2363 C2383 0.950 . S
H2364 C2385 0.950 . S
H2365 C2388 0.950 . S
H2366 C2389 0.950 . S
H2367 C2391 0.950 . S
H2368 C2392 0.950 . S
H2369 C2393 0.951 . S
H2370 C2395 0.951 . S
H2371 C2397 0.950 . S
H2372 C2398 0.950 . S
H2373 C2400 0.950 . S
H2374 C2403 0.950 . S
H2375 C2404 0.950 . S
H2376 C2406 0.950 . S
H2377 C2407 0.950 . S
C2378 H2360 0.951 . S
C2378 C2379 1.366 . S
C2378 C2380 1.388 . S
C2379 C2378 1.366 . S
C2379 C2383 1.385 . S
C2380 H2361 0.951 . S
C2380 C2378 1.388 . S
C2380 C2381 1.366 . S
C2381 C2380 1.366 . S
C2381 C2382 1.414 . S
C2381 C2384 1.499 . S
C2382 H2362 0.950 . S
C2382 C2381 1.414 . S
C2382 C2383 1.374 . S
C2383 H2363 0.950 . S
C2383 C2379 1.385 . S
C2383 C2382 1.374 . S
C2384 C2381 1.499 . S
C2384 C2385 1.373 . S
C2384 C2386 1.389 . S
C2385 H2364 0.950 . S
C2385 C2384 1.373 . S
C2385 C2401 1.377 . S
C2386 C2384 1.389 . S
C2386 C2387 1.524 . S
C2386 C2400 1.377 . S
C2387 C2386 1.524 . S
C2387 C2388 1.397 . S
C2387 C2392 1.363 . S
C2388 H2365 0.950 . S
C2388 C2387 1.397 . S
C2388 C2389 1.334 . S
C2389 H2366 0.950 . S
C2389 C2388 1.334 . S
C2389 C2390 1.287 . S
C2390 C2389 1.287 . S
C2390 C2391 1.524 . S
C2390 H2409 0.913 . S
C2391 H2367 0.950 . S
C2391 C2390 1.524 . S
C2391 C2392 1.415 . S
C2392 H2368 0.950 . S
C2392 C2387 1.363 . S
C2392 C2391 1.415 . S
C2393 H2369 0.951 . S
C2393 C2394 1.366 . S
C2393 C2395 1.388 . S
C2394 C2393 1.366 . S
C2394 C2398 1.385 . S
C2395 H2370 0.951 . S
C2395 C2393 1.388 . S
C2395 C2396 1.366 . S
C2396 C2395 1.366 . S
C2396 C2397 1.414 . S
C2396 C2399 1.499 . S
C2397 H2371 0.950 . S
C2397 C2396 1.414 . S
C2397 C2398 1.374 . S
C2398 H2372 0.950 . S
C2398 C2394 1.385 . S
C2398 C2397 1.374 . S
C2399 C2396 1.499 . S
C2399 C2400 1.373 . S
C2399 C2401 1.389 . S
C2400 H2373 0.950 . S
C2400 C2386 1.377 . S
C2400 C2399 1.373 . S
C2401 C2385 1.377 . S
C2401 C2399 1.389 . S
C2401 C2402 1.524 . S
C2402 C2401 1.524 . S
C2402 C2403 1.397 . S
C2402 C2407 1.363 . S
C2403 H2374 0.950 . S
C2403 C2402 1.397 . S
C2403 C2404 1.334 . S
C2404 H2375 0.950 . S
C2404 C2403 1.334 . S
C2404 C2405 1.287 . S
C2405 C2404 1.287 . S
C2405 C2406 1.524 . S
C2405 H2408 0.999 . S
C2406 H2376 0.950 . S
C2406 C2405 1.524 . S
C2406 C2407 1.415 . S
C2407 H2377 0.950 . S
C2407 C2402 1.363 . S
C2407 C2406 1.415 . S
H2408 C2405 0.999 . S
H2409 C2390 0.913 . S
H2410 C2428 0.951 . S
H2411 C2430 0.951 . S
H2412 C2432 0.950 . S
H2413 C2433 0.950 . S
H2414 C2435 0.950 . S
H2415 C2438 0.950 . S
H2416 C2439 0.950 . S
H2417 C2441 0.950 . S
H2418 C2442 0.950 . S
H2419 C2443 0.951 . S
H2420 C2445 0.951 . S
H2421 C2447 0.950 . S
H2422 C2448 0.950 . S
H2423 C2450 0.950 . S
H2424 C2453 0.950 . S
H2425 C2454 0.950 . S
H2426 C2456 0.950 . S
H2427 C2457 0.950 . S
C2428 H2410 0.951 . S
C2428 C2429 1.366 . S
C2428 C2430 1.388 . S
C2429 C2428 1.366 . S
C2429 C2433 1.385 . S
C2430 H2411 0.951 . S
C2430 C2428 1.388 . S
C2430 C2431 1.366 . S
C2431 C2430 1.366 . S
C2431 C2432 1.414 . S
C2431 C2434 1.499 . S
C2432 H2412 0.950 . S
C2432 C2431 1.414 . S
C2432 C2433 1.374 . S
C2433 H2413 0.950 . S
C2433 C2429 1.385 . S
C2433 C2432 1.374 . S
C2434 C2431 1.499 . S
C2434 C2435 1.373 . S
C2434 C2436 1.389 . S
C2435 H2414 0.950 . S
C2435 C2434 1.373 . S
C2435 C2451 1.377 . S
C2436 C2434 1.389 . S
C2436 C2437 1.524 . S
C2436 C2450 1.377 . S
C2437 C2436 1.524 . S
C2437 C2438 1.397 . S
C2437 C2442 1.363 . S
C2438 H2415 0.950 . S
C2438 C2437 1.397 . S
C2438 C2439 1.334 . S
C2439 H2416 0.950 . S
C2439 C2438 1.334 . S
C2439 C2440 1.287 . S
C2440 C2439 1.287 . S
C2440 C2441 1.524 . S
C2440 H2459 0.913 . S
C2441 H2417 0.950 . S
C2441 C2440 1.524 . S
C2441 C2442 1.415 . S
C2442 H2418 0.950 . S
C2442 C2437 1.363 . S
C2442 C2441 1.415 . S
C2443 H2419 0.951 . S
C2443 C2444 1.366 . S
C2443 C2445 1.388 . S
C2444 C2443 1.366 . S
C2444 C2448 1.385 . S
C2445 H2420 0.951 . S
C2445 C2443 1.388 . S
C2445 C2446 1.366 . S
C2446 C2445 1.366 . S
C2446 C2447 1.414 . S
C2446 C2449 1.499 . S
C2447 H2421 0.950 . S
C2447 C2446 1.414 . S
C2447 C2448 1.374 . S
C2448 H2422 0.950 . S
C2448 C2444 1.385 . S
C2448 C2447 1.374 . S
C2449 C2446 1.499 . S
C2449 C2450 1.373 . S
C2449 C2451 1.389 . S
C2450 H2423 0.950 . S
C2450 C2436 1.377 . S
C2450 C2449 1.373 . S
C2451 C2435 1.377 . S
C2451 C2449 1.389 . S
C2451 C2452 1.524 . S
C2452 C2451 1.524 . S
C2452 C2453 1.397 . S
C2452 C2457 1.363 . S
C2453 H2424 0.950 . S
C2453 C2452 1.397 . S
C2453 C2454 1.334 . S
C2454 H2425 0.950 . S
C2454 C2453 1.334 . S
C2454 C2455 1.287 . S
C2455 C2454 1.287 . S
C2455 C2456 1.524 . S
C2455 H2458 0.999 . S
C2456 H2426 0.950 . S
C2456 C2455 1.524 . S
C2456 C2457 1.415 . S
C2457 H2427 0.950 . S
C2457 C2452 1.363 . S
C2457 C2456 1.415 . S
H2458 C2455 0.999 . S
H2459 C2440 0.913 . S
H2460 C2478 0.951 . S
H2461 C2480 0.951 . S
H2462 C2482 0.950 . S
H2463 C2483 0.950 . S
H2464 C2485 0.950 . S
H2465 C2488 0.950 . S
H2466 C2489 0.950 . S
H2467 C2491 0.950 . S
H2468 C2492 0.950 . S
H2469 C2493 0.951 . S
H2470 C2495 0.951 . S
H2471 C2497 0.950 . S
H2472 C2498 0.950 . S
H2473 C2500 0.950 . S
H2474 C2503 0.950 . S
H2475 C2504 0.950 . S
H2476 C2506 0.950 . S
H2477 C2507 0.950 . S
C2478 H2460 0.951 . S
C2478 C2479 1.366 . S
C2478 C2480 1.388 . S
C2479 C2478 1.366 . S
C2479 C2483 1.385 . S
C2480 H2461 0.951 . S
C2480 C2478 1.388 . S
C2480 C2481 1.366 . S
C2481 C2480 1.366 . S
C2481 C2482 1.414 . S
C2481 C2484 1.499 . S
C2482 H2462 0.950 . S
C2482 C2481 1.414 . S
C2482 C2483 1.374 . S
C2483 H2463 0.950 . S
C2483 C2479 1.385 . S
C2483 C2482 1.374 . S
C2484 C2481 1.499 . S
C2484 C2485 1.373 . S
C2484 C2486 1.389 . S
C2485 H2464 0.950 . S
C2485 C2484 1.373 . S
C2485 C2501 1.377 . S
C2486 C2484 1.389 . S
C2486 C2487 1.524 . S
C2486 C2500 1.377 . S
C2487 C2486 1.524 . S
C2487 C2488 1.397 . S
C2487 C2492 1.363 . S
C2488 H2465 0.950 . S
C2488 C2487 1.397 . S
C2488 C2489 1.334 . S
C2489 H2466 0.950 . S
C2489 C2488 1.334 . S
C2489 C2490 1.287 . S
C2490 C2489 1.287 . S
C2490 C2491 1.524 . S
C2490 H2509 0.913 . S
C2491 H2467 0.950 . S
C2491 C2490 1.524 . S
C2491 C2492 1.415 . S
C2492 H2468 0.950 . S
C2492 C2487 1.363 . S
C2492 C2491 1.415 . S
C2493 H2469 0.951 . S
C2493 C2494 1.366 . S
C2493 C2495 1.388 . S
C2494 C2493 1.366 . S
C2494 C2498 1.385 . S
C2495 H2470 0.951 . S
C2495 C2493 1.388 . S
C2495 C2496 1.366 . S
C2496 C2495 1.366 . S
C2496 C2497 1.414 . S
C2496 C2499 1.499 . S
C2497 H2471 0.950 . S
C2497 C2496 1.414 . S
C2497 C2498 1.374 . S
C2498 H2472 0.950 . S
C2498 C2494 1.385 . S
C2498 C2497 1.374 . S
C2499 C2496 1.499 . S
C2499 C2500 1.373 . S
C2499 C2501 1.389 . S
C2500 H2473 0.950 . S
C2500 C2486 1.377 . S
C2500 C2499 1.373 . S
C2501 C2485 1.377 . S
C2501 C2499 1.389 . S
C2501 C2502 1.524 . S
C2502 C2501 1.524 . S
C2502 C2503 1.397 . S
C2502 C2507 1.363 . S
C2503 H2474 0.950 . S
C2503 C2502 1.397 . S
C2503 C2504 1.334 . S
C2504 H2475 0.950 . S
C2504 C2503 1.334 . S
C2504 C2505 1.287 . S
C2505 C2504 1.287 . S
C2505 C2506 1.524 . S
C2505 H2508 0.999 . S
C2506 H2476 0.950 . S
C2506 C2505 1.524 . S
C2506 C2507 1.415 . S
C2507 H2477 0.950 . S
C2507 C2502 1.363 . S
C2507 C2506 1.415 . S
H2508 C2505 0.999 . S
H2509 C2490 0.913 . S
H2510 C2528 0.951 . S
H2511 C2530 0.951 . S
H2512 C2532 0.950 . S
H2513 C2533 0.950 . S
H2514 C2535 0.950 . S
H2515 C2538 0.950 . S
H2516 C2539 0.950 . S
H2517 C2541 0.950 . S
H2518 C2542 0.950 . S
H2519 C2543 0.951 . S
H2520 C2545 0.951 . S
H2521 C2547 0.950 . S
H2522 C2548 0.950 . S
H2523 C2550 0.950 . S
H2524 C2553 0.950 . S
H2525 C2554 0.950 . S
H2526 C2556 0.950 . S
H2527 C2557 0.950 . S
C2528 H2510 0.951 . S
C2528 C2529 1.366 . S
C2528 C2530 1.388 . S
C2529 C2528 1.366 . S
C2529 C2533 1.385 . S
C2530 H2511 0.951 . S
C2530 C2528 1.388 . S
C2530 C2531 1.366 . S
C2531 C2530 1.366 . S
C2531 C2532 1.414 . S
C2531 C2534 1.499 . S
C2532 H2512 0.950 . S
C2532 C2531 1.414 . S
C2532 C2533 1.374 . S
C2533 H2513 0.950 . S
C2533 C2529 1.385 . S
C2533 C2532 1.374 . S
C2534 C2531 1.499 . S
C2534 C2535 1.373 . S
C2534 C2536 1.389 . S
C2535 H2514 0.950 . S
C2535 C2534 1.373 . S
C2535 C2551 1.377 . S
C2536 C2534 1.389 . S
C2536 C2537 1.524 . S
C2536 C2550 1.377 . S
C2537 C2536 1.524 . S
C2537 C2538 1.397 . S
C2537 C2542 1.363 . S
C2538 H2515 0.950 . S
C2538 C2537 1.397 . S
C2538 C2539 1.334 . S
C2539 H2516 0.950 . S
C2539 C2538 1.334 . S
C2539 C2540 1.287 . S
C2540 C2539 1.287 . S
C2540 C2541 1.524 . S
C2540 H2559 0.913 . S
C2541 H2517 0.950 . S
C2541 C2540 1.524 . S
C2541 C2542 1.415 . S
C2542 H2518 0.950 . S
C2542 C2537 1.363 . S
C2542 C2541 1.415 . S
C2543 H2519 0.951 . S
C2543 C2544 1.366 . S
C2543 C2545 1.388 . S
C2544 C2543 1.366 . S
C2544 C2548 1.385 . S
C2545 H2520 0.951 . S
C2545 C2543 1.388 . S
C2545 C2546 1.366 . S
C2546 C2545 1.366 . S
C2546 C2547 1.414 . S
C2546 C2549 1.499 . S
C2547 H2521 0.950 . S
C2547 C2546 1.414 . S
C2547 C2548 1.374 . S
C2548 H2522 0.950 . S
C2548 C2544 1.385 . S
C2548 C2547 1.374 . S
C2549 C2546 1.499 . S
C2549 C2550 1.373 . S
C2549 C2551 1.389 . S
C2550 H2523 0.950 . S
C2550 C2536 1.377 . S
C2550 C2549 1.373 . S
C2551 C2535 1.377 . S
C2551 C2549 1.389 . S
C2551 C2552 1.524 . S
C2552 C2551 1.524 . S
C2552 C2553 1.397 . S
C2552 C2557 1.363 . S
C2553 H2524 0.950 . S
C2553 C2552 1.397 . S
C2553 C2554 1.334 . S
C2554 H2525 0.950 . S
C2554 C2553 1.334 . S
C2554 C2555 1.287 . S
C2555 C2554 1.287 . S
C2555 C2556 1.524 . S
C2555 H2558 0.999 . S
C2556 H2526 0.950 . S
C2556 C2555 1.524 . S
C2556 C2557 1.415 . S
C2557 H2527 0.950 . S
C2557 C2552 1.363 . S
C2557 C2556 1.415 . S
H2558 C2555 0.999 . S
H2559 C2540 0.913 . S
H2560 C2578 0.951 . S
H2561 C2580 0.951 . S
H2562 C2582 0.950 . S
H2563 C2583 0.950 . S
H2564 C2585 0.950 . S
H2565 C2588 0.950 . S
H2566 C2589 0.950 . S
H2567 C2591 0.950 . S
H2568 C2592 0.950 . S
H2569 C2593 0.951 . S
H2570 C2595 0.951 . S
H2571 C2597 0.950 . S
H2572 C2598 0.950 . S
H2573 C2600 0.950 . S
H2574 C2603 0.950 . S
H2575 C2604 0.950 . S
H2576 C2606 0.950 . S
H2577 C2607 0.950 . S
C2578 H2560 0.951 . S
C2578 C2579 1.366 . S
C2578 C2580 1.388 . S
C2579 C2578 1.366 . S
C2579 C2583 1.385 . S
C2580 H2561 0.951 . S
C2580 C2578 1.388 . S
C2580 C2581 1.366 . S
C2581 C2580 1.366 . S
C2581 C2582 1.414 . S
C2581 C2584 1.499 . S
C2582 H2562 0.950 . S
C2582 C2581 1.414 . S
C2582 C2583 1.374 . S
C2583 H2563 0.950 . S
C2583 C2579 1.385 . S
C2583 C2582 1.374 . S
C2584 C2581 1.499 . S
C2584 C2585 1.373 . S
C2584 C2586 1.389 . S
C2585 H2564 0.950 . S
C2585 C2584 1.373 . S
C2585 C2601 1.377 . S
C2586 C2584 1.389 . S
C2586 C2587 1.524 . S
C2586 C2600 1.377 . S
C2587 C2586 1.524 . S
C2587 C2588 1.397 . S
C2587 C2592 1.363 . S
C2588 H2565 0.950 . S
C2588 C2587 1.397 . S
C2588 C2589 1.334 . S
C2589 H2566 0.950 . S
C2589 C2588 1.334 . S
C2589 C2590 1.287 . S
C2590 C2589 1.287 . S
C2590 C2591 1.524 . S
C2590 H2609 0.913 . S
C2591 H2567 0.950 . S
C2591 C2590 1.524 . S
C2591 C2592 1.415 . S
C2592 H2568 0.950 . S
C2592 C2587 1.363 . S
C2592 C2591 1.415 . S
C2593 H2569 0.951 . S
C2593 C2594 1.366 . S
C2593 C2595 1.388 . S
C2594 C2593 1.366 . S
C2594 C2598 1.385 . S
C2595 H2570 0.951 . S
C2595 C2593 1.388 . S
C2595 C2596 1.366 . S
C2596 C2595 1.366 . S
C2596 C2597 1.414 . S
C2596 C2599 1.499 . S
C2597 H2571 0.950 . S
C2597 C2596 1.414 . S
C2597 C2598 1.374 . S
C2598 H2572 0.950 . S
C2598 C2594 1.385 . S
C2598 C2597 1.374 . S
C2599 C2596 1.499 . S
C2599 C2600 1.373 . S
C2599 C2601 1.389 . S
C2600 H2573 0.950 . S
C2600 C2586 1.377 . S
C2600 C2599 1.373 . S
C2601 C2585 1.377 . S
C2601 C2599 1.389 . S
C2601 C2602 1.524 . S
C2602 C2601 1.524 . S
C2602 C2603 1.397 . S
C2602 C2607 1.363 . S
C2603 H2574 0.950 . S
C2603 C2602 1.397 . S
C2603 C2604 1.334 . S
C2604 H2575 0.950 . S
C2604 C2603 1.334 . S
C2604 C2605 1.287 . S
C2605 C2604 1.287 . S
C2605 C2606 1.524 . S
C2605 H2608 0.999 . S
C2606 H2576 0.950 . S
C2606 C2605 1.524 . S
C2606 C2607 1.415 . S
C2607 H2577 0.950 . S
C2607 C2602 1.363 . S
C2607 C2606 1.415 . S
H2608 C2605 0.999 . S
H2609 C2590 0.913 . S
H2610 C2628 0.951 . S
H2611 C2630 0.951 . S
H2612 C2632 0.950 . S
H2613 C2633 0.950 . S
H2614 C2635 0.950 . S
H2615 C2638 0.950 . S
H2616 C2639 0.950 . S
H2617 C2641 0.950 . S
H2618 C2642 0.950 . S
H2619 C2643 0.951 . S
H2620 C2645 0.951 . S
H2621 C2647 0.950 . S
H2622 C2648 0.950 . S
H2623 C2650 0.950 . S
H2624 C2653 0.950 . S
H2625 C2654 0.950 . S
H2626 C2656 0.950 . S
H2627 C2657 0.950 1_655 S
C2628 H2610 0.951 . S
C2628 C2629 1.366 . S
C2628 C2630 1.388 . S
C2629 C2628 1.366 . S
C2629 C2633 1.385 . S
C2630 H2611 0.951 . S
C2630 C2628 1.388 . S
C2630 C2631 1.366 . S
C2631 C2630 1.366 . S
C2631 C2632 1.414 . S
C2631 C2634 1.499 . S
C2632 H2612 0.950 . S
C2632 C2631 1.414 . S
C2632 C2633 1.374 . S
C2633 H2613 0.950 . S
C2633 C2629 1.385 . S
C2633 C2632 1.374 . S
C2634 C2631 1.499 . S
C2634 C2635 1.373 . S
C2634 C2636 1.389 . S
C2635 H2614 0.950 . S
C2635 C2634 1.373 . S
C2635 C2651 1.377 . S
C2636 C2634 1.389 . S
C2636 C2637 1.524 . S
C2636 C2650 1.377 . S
C2637 C2636 1.524 . S
C2637 C2638 1.397 . S
C2637 C2642 1.363 . S
C2638 H2615 0.950 . S
C2638 C2637 1.397 . S
C2638 C2639 1.334 . S
C2639 H2616 0.950 . S
C2639 C2638 1.334 . S
C2639 C2640 1.287 . S
C2640 C2639 1.287 . S
C2640 C2641 1.524 . S
C2640 H2659 0.913 . S
C2641 H2617 0.950 . S
C2641 C2640 1.524 . S
C2641 C2642 1.415 . S
C2642 H2618 0.950 . S
C2642 C2637 1.363 . S
C2642 C2641 1.415 . S
C2643 H2619 0.951 . S
C2643 C2644 1.366 . S
C2643 C2645 1.388 . S
C2644 C2643 1.366 . S
C2644 C2648 1.385 . S
C2645 H2620 0.951 . S
C2645 C2643 1.388 . S
C2645 C2646 1.366 . S
C2646 C2645 1.366 . S
C2646 C2647 1.414 . S
C2646 C2649 1.499 1_455 S
C2647 H2621 0.950 . S
C2647 C2646 1.414 . S
C2647 C2648 1.374 . S
C2648 H2622 0.950 . S
C2648 C2644 1.385 . S
C2648 C2647 1.374 . S
C2649 C2646 1.499 1_655 S
C2649 C2650 1.373 . S
C2649 C2651 1.389 . S
C2650 H2623 0.950 . S
C2650 C2636 1.377 . S
C2650 C2649 1.373 . S
C2651 C2635 1.377 . S
C2651 C2649 1.389 . S
C2651 C2652 1.524 1_655 S
C2652 C2651 1.524 1_455 S
C2652 C2653 1.397 . S
C2652 C2657 1.363 . S
C2653 H2624 0.950 . S
C2653 C2652 1.397 . S
C2653 C2654 1.334 . S
C2654 H2625 0.950 . S
C2654 C2653 1.334 . S
C2654 C2655 1.287 . S
C2655 C2654 1.287 . S
C2655 C2656 1.524 . S
C2655 H2658 0.999 . S
C2656 H2626 0.950 . S
C2656 C2655 1.524 . S
C2656 C2657 1.415 . S
C2657 H2627 0.950 1_455 S
C2657 C2652 1.363 . S
C2657 C2656 1.415 . S
H2658 C2655 0.999 . S
H2659 C2640 0.913 . S
H2660 C2678 0.951 . S
H2661 C2680 0.951 . S
H2662 C2682 0.950 . S
H2663 C2683 0.950 1_565 S
H2664 C2685 0.950 . S
H2665 C2688 0.950 . S
H2666 C2689 0.950 . S
H2667 C2691 0.950 . S
H2668 C2692 0.950 . S
H2669 C2693 0.951 . S
H2670 C2695 0.951 . S
H2671 C2697 0.950 . S
H2672 C2698 0.950 . S
H2673 C2700 0.950 . S
H2674 C2703 0.950 . S
H2675 C2704 0.950 . S
H2676 C2706 0.950 . S
H2677 C2707 0.950 . S
C2678 H2660 0.951 . S
C2678 C2679 1.366 . S
C2678 C2680 1.388 . S
C2679 C2678 1.366 . S
C2679 C2683 1.385 . S
C2680 H2661 0.951 . S
C2680 C2678 1.388 . S
C2680 C2681 1.366 . S
C2681 C2680 1.366 . S
C2681 C2682 1.414 . S
C2681 C2684 1.499 . S
C2682 H2662 0.950 . S
C2682 C2681 1.414 . S
C2682 C2683 1.374 . S
C2683 H2663 0.950 1_545 S
C2683 C2679 1.385 . S
C2683 C2682 1.374 . S
C2684 C2681 1.499 . S
C2684 C2685 1.373 . S
C2684 C2686 1.389 . S
C2685 H2664 0.950 . S
C2685 C2684 1.373 . S
C2685 C2701 1.377 . S
C2686 C2684 1.389 . S
C2686 C2687 1.524 . S
C2686 C2700 1.377 . S
C2687 C2686 1.524 . S
C2687 C2688 1.397 . S
C2687 C2692 1.363 . S
C2688 H2665 0.950 . S
C2688 C2687 1.397 . S
C2688 C2689 1.334 . S
C2689 H2666 0.950 . S
C2689 C2688 1.334 . S
C2689 C2690 1.287 . S
C2690 C2689 1.287 . S
C2690 C2691 1.524 . S
C2690 H2709 0.913 . S
C2691 H2667 0.950 . S
C2691 C2690 1.524 . S
C2691 C2692 1.415 . S
C2692 H2668 0.950 . S
C2692 C2687 1.363 . S
C2692 C2691 1.415 . S
C2693 H2669 0.951 . S
C2693 C2694 1.366 . S
C2693 C2695 1.388 . S
C2694 C2693 1.366 . S
C2694 C2698 1.385 . S
C2695 H2670 0.951 . S
C2695 C2693 1.388 . S
C2695 C2696 1.366 . S
C2696 C2695 1.366 . S
C2696 C2697 1.414 . S
C2696 C2699 1.499 . S
C2697 H2671 0.950 . S
C2697 C2696 1.414 . S
C2697 C2698 1.374 . S
C2698 H2672 0.950 . S
C2698 C2694 1.385 . S
C2698 C2697 1.374 . S
C2699 C2696 1.499 . S
C2699 C2700 1.373 . S
C2699 C2701 1.389 . S
C2700 H2673 0.950 . S
C2700 C2686 1.377 . S
C2700 C2699 1.373 . S
C2701 C2685 1.377 . S
C2701 C2699 1.389 . S
C2701 C2702 1.524 . S
C2702 C2701 1.524 . S
C2702 C2703 1.397 . S
C2702 C2707 1.363 . S
C2703 H2674 0.950 . S
C2703 C2702 1.397 . S
C2703 C2704 1.334 . S
C2704 H2675 0.950 . S
C2704 C2703 1.334 . S
C2704 C2705 1.287 . S
C2705 C2704 1.287 . S
C2705 C2706 1.524 . S
C2705 H2708 0.999 . S
C2706 H2676 0.950 . S
C2706 C2705 1.524 . S
C2706 C2707 1.415 . S
C2707 H2677 0.950 . S
C2707 C2702 1.363 . S
C2707 C2706 1.415 . S
H2708 C2705 0.999 . S
H2709 C2690 0.913 . S
H2710 C2728 0.951 . S
H2711 C2730 0.951 . S
H2712 C2732 0.950 . S
H2713 C2733 0.950 . S
H2714 C2735 0.950 . S
H2715 C2738 0.950 . S
H2716 C2739 0.950 1_565 S
H2717 C2741 0.950 . S
H2718 C2742 0.950 . S
H2719 C2743 0.951 . S
H2720 C2745 0.951 . S
H2721 C2747 0.950 . S
H2722 C2748 0.950 . S
H2723 C2750 0.950 . S
H2724 C2753 0.950 . S
H2725 C2754 0.950 . S
H2726 C2756 0.950 . S
H2727 C2757 0.950 . S
C2728 H2710 0.951 . S
C2728 C2729 1.366 . S
C2728 C2730 1.388 1_565 S
C2729 C2728 1.366 . S
C2729 C2733 1.385 . S
C2730 H2711 0.951 . S
C2730 C2728 1.388 1_545 S
C2730 C2731 1.366 . S
C2731 C2730 1.366 . S
C2731 C2732 1.414 . S
C2731 C2734 1.499 . S
C2732 H2712 0.950 . S
C2732 C2731 1.414 . S
C2732 C2733 1.374 1_545 S
C2733 H2713 0.950 . S
C2733 C2729 1.385 . S
C2733 C2732 1.374 1_565 S
C2734 C2731 1.499 . S
C2734 C2735 1.373 . S
C2734 C2736 1.389 . S
C2735 H2714 0.950 . S
C2735 C2734 1.373 . S
C2735 C2751 1.377 . S
C2736 C2734 1.389 . S
C2736 C2737 1.524 . S
C2736 C2750 1.377 . S
C2737 C2736 1.524 . S
C2737 C2738 1.397 . S
C2737 C2742 1.363 . S
C2738 H2715 0.950 . S
C2738 C2737 1.397 . S
C2738 C2739 1.334 . S
C2739 H2716 0.950 1_545 S
C2739 C2738 1.334 . S
C2739 C2740 1.287 . S
C2740 C2739 1.287 . S
C2740 C2741 1.524 . S
C2740 H2759 0.913 . S
C2741 H2717 0.950 . S
C2741 C2740 1.524 . S
C2741 C2742 1.415 . S
C2742 H2718 0.950 . S
C2742 C2737 1.363 . S
C2742 C2741 1.415 . S
C2743 H2719 0.951 . S
C2743 C2744 1.366 . S
C2743 C2745 1.388 . S
C2744 C2743 1.366 . S
C2744 C2748 1.385 . S
C2745 H2720 0.951 . S
C2745 C2743 1.388 . S
C2745 C2746 1.366 1_455 S
C2746 C2745 1.366 1_655 S
C2746 C2747 1.414 . S
C2746 C2749 1.499 . S
C2747 H2721 0.950 . S
C2747 C2746 1.414 . S
C2747 C2748 1.374 1_655 S
C2748 H2722 0.950 . S
C2748 C2744 1.385 . S
C2748 C2747 1.374 1_455 S
C2749 C2746 1.499 . S
C2749 C2750 1.373 . S
C2749 C2751 1.389 . S
C2750 H2723 0.950 . S
C2750 C2736 1.377 . S
C2750 C2749 1.373 . S
C2751 C2735 1.377 . S
C2751 C2749 1.389 . S
C2751 C2752 1.524 . S
C2752 C2751 1.524 . S
C2752 C2753 1.397 . S
C2752 C2757 1.363 . S
C2753 H2724 0.950 . S
C2753 C2752 1.397 . S
C2753 C2754 1.334 . S
C2754 H2725 0.950 . S
C2754 C2753 1.334 . S
C2754 C2755 1.287 . S
C2755 C2754 1.287 . S
C2755 C2756 1.524 . S
C2755 H2758 0.999 . S
C2756 H2726 0.950 . S
C2756 C2755 1.524 . S
C2756 C2757 1.415 . S
C2757 H2727 0.950 . S
C2757 C2752 1.363 . S
C2757 C2756 1.415 . S
H2758 C2755 0.999 . S
H2759 C2740 0.913 . S
H2760 C2778 0.951 . S
H2761 C2780 0.951 . S
H2762 C2782 0.950 . S
H2763 C2783 0.950 . S
H2764 C2785 0.950 . S
H2765 C2788 0.950 . S
H2766 C2789 0.950 . S
H2767 C2791 0.950 . S
H2768 C2792 0.950 . S
H2769 C2793 0.951 . S
H2770 C2795 0.951 . S
H2771 C2797 0.950 . S
H2772 C2798 0.950 . S
H2773 C2800 0.970 . S
H2774 C2803 0.950 . S
H2775 C2804 0.950 . S
H2776 C2806 0.950 . S
H2777 C2807 0.950 . S
C2778 H2760 0.951 . S
C2778 C2779 1.366 . S
C2778 C2780 1.388 . S
C2779 C2778 1.366 . S
C2779 C2783 1.385 . S
C2780 H2761 0.951 . S
C2780 C2778 1.388 . S
C2780 C2781 1.366 . S
C2781 C2780 1.366 . S
C2781 C2782 1.414 . S
C2781 C2784 1.499 . S
C2782 H2762 0.950 . S
C2782 C2781 1.414 . S
C2782 C2783 1.374 . S
C2783 H2763 0.950 . S
C2783 C2779 1.385 . S
C2783 C2782 1.374 . S
C2784 C2781 1.499 . S
C2784 C2785 1.373 . S
C2784 C2786 1.389 . S
C2785 H2764 0.950 . S
C2785 C2784 1.373 . S
C2785 C2801 1.377 . S
C2786 C2784 1.389 . S
C2786 C2787 1.524 . S
C2786 C2800 1.377 . S
C2787 C2786 1.524 . S
C2787 C2788 1.397 . S
C2787 C2792 1.363 . S
C2788 H2765 0.950 . S
C2788 C2787 1.397 . S
C2788 C2789 1.334 . S
C2789 H2766 0.950 . S
C2789 C2788 1.334 . S
C2789 C2790 1.287 . S
C2790 C2789 1.287 . S
C2790 C2791 1.524 . S
C2790 H2809 0.913 . S
C2791 H2767 0.950 . S
C2791 C2790 1.524 . S
C2791 C2792 1.415 . S
C2792 H2768 0.950 . S
C2792 C2787 1.363 . S
C2792 C2791 1.415 . S
C2793 H2769 0.951 . S
C2793 C2794 1.366 . S
C2793 C2795 1.388 . S
C2794 C2793 1.366 . S
C2794 C2798 1.385 . S
C2795 H2770 0.951 . S
C2795 C2793 1.388 . S
C2795 C2796 1.366 . S
C2796 C2795 1.366 . S
C2796 C2797 1.414 . S
C2796 C2799 1.499 1_545 S
C2797 H2771 0.950 . S
C2797 C2796 1.414 . S
C2797 C2798 1.374 . S
C2798 H2772 0.950 . S
C2798 C2794 1.385 . S
C2798 C2797 1.374 . S
C2799 C2796 1.499 1_565 S
C2799 C2800 1.373 . S
C2799 C2801 1.389 . S
C2800 H2773 0.970 . S
C2800 C2786 1.377 . S
C2800 C2799 1.373 . S
C2801 C2785 1.377 . S
C2801 C2799 1.389 . S
C2801 C2802 1.524 . S
C2802 C2801 1.524 . S
C2802 C2803 1.397 . S
C2802 C2807 1.363 . S
C2803 H2774 0.950 . S
C2803 C2802 1.397 . S
C2803 C2804 1.334 . S
C2804 H2775 0.950 . S
C2804 C2803 1.334 . S
C2804 C2805 1.287 . S
C2805 C2804 1.287 . S
C2805 C2806 1.524 . S
C2805 H2808 0.999 . S
C2806 H2776 0.950 . S
C2806 C2805 1.524 . S
C2806 C2807 1.415 . S
C2807 H2777 0.950 . S
C2807 C2802 1.363 . S
C2807 C2806 1.415 . S
H2808 C2805 0.999 . S
H2809 C2790 0.913 . S
H2810 C2828 0.951 . S
H2811 C2830 0.951 . S
H2812 C2832 0.950 . S
H2813 C2833 0.950 . S
H2814 C2835 0.950 . S
H2815 C2838 0.950 . S
H2816 C2839 0.950 . S
H2817 C2841 0.950 . S
H2818 C2842 0.950 . S
H2819 C2843 0.951 . S
H2820 C2845 0.951 . S
H2821 C2847 0.950 . S
H2822 C2848 0.950 . S
H2823 C2850 0.950 . S
H2824 C2853 0.950 . S
H2825 C2854 0.950 . S
H2826 C2856 0.950 . S
H2827 C2857 0.950 . S
C2828 H2810 0.951 . S
C2828 C2829 1.366 . S
C2828 C2830 1.388 1_545 S
C2829 C2828 1.366 . S
C2829 C2833 1.385 . S
C2830 H2811 0.951 . S
C2830 C2828 1.388 1_565 S
C2830 C2831 1.366 . S
C2831 C2830 1.366 . S
C2831 C2832 1.414 1_565 S
C2831 C2834 1.499 . S
C2832 H2812 0.950 . S
C2832 C2831 1.414 1_545 S
C2832 C2833 1.374 . S
C2833 H2813 0.950 . S
C2833 C2829 1.385 . S
C2833 C2832 1.374 . S
C2834 C2831 1.499 . S
C2834 C2835 1.373 . S
C2834 C2836 1.389 . S
C2835 H2814 0.950 . S
C2835 C2834 1.373 . S
C2835 C2851 1.377 . S
C2836 C2834 1.389 . S
C2836 C2837 1.524 . S
C2836 C2850 1.377 . S
C2837 C2836 1.524 . S
C2837 C2838 1.397 . S
C2837 C2842 1.363 . S
C2838 H2815 0.950 . S
C2838 C2837 1.397 . S
C2838 C2839 1.334 . S
C2839 H2816 0.950 . S
C2839 C2838 1.334 . S
C2839 C2840 1.287 . S
C2840 C2839 1.287 . S
C2840 C2841 1.524 . S
C2840 H2859 0.913 . S
C2841 H2817 0.950 . S
C2841 C2840 1.524 . S
C2841 C2842 1.415 . S
C2842 H2818 0.950 . S
C2842 C2837 1.363 . S
C2842 C2841 1.415 . S
C2843 H2819 0.951 . S
C2843 C2844 1.366 . S
C2843 C2845 1.388 1_655 S
C2844 C2843 1.366 . S
C2844 C2848 1.385 1_655 S
C2845 H2820 0.951 . S
C2845 C2843 1.388 1_455 S
C2845 C2846 1.366 . S
C2846 C2845 1.366 . S
C2846 C2847 1.414 . S
C2846 C2849 1.499 . S
C2847 H2821 0.950 . S
C2847 C2846 1.414 . S
C2847 C2848 1.374 . S
C2848 H2822 0.950 . S
C2848 C2844 1.385 1_455 S
C2848 C2847 1.374 . S
C2849 C2846 1.499 . S
C2849 C2850 1.373 . S
C2849 C2851 1.389 . S
C2850 H2823 0.950 . S
C2850 C2836 1.377 . S
C2850 C2849 1.373 . S
C2851 C2835 1.377 . S
C2851 C2849 1.389 . S
C2851 C2852 1.524 . S
C2852 C2851 1.524 . S
C2852 C2853 1.397 . S
C2852 C2857 1.363 . S
C2853 H2824 0.950 . S
C2853 C2852 1.397 . S
C2853 C2854 1.334 . S
C2854 H2825 0.950 . S
C2854 C2853 1.334 . S
C2854 C2855 1.287 . S
C2855 C2854 1.287 . S
C2855 C2856 1.524 . S
C2855 H2858 0.999 1_455 S
C2856 H2826 0.950 . S
C2856 C2855 1.524 . S
C2856 C2857 1.415 . S
C2857 H2827 0.950 . S
C2857 C2852 1.363 . S
C2857 C2856 1.415 . S
H2858 C2855 0.999 1_655 S
H2859 C2840 0.913 . S
H2860 C2878 0.951 . S
H2861 C2880 0.951 . S
H2862 C2882 0.950 . S
H2863 C2883 0.950 . S
H2864 C2885 0.950 . S
H2865 C2888 0.950 . S
H2866 C2889 0.950 . S
H2867 C2891 0.950 . S
H2868 C2892 0.950 . S
H2869 C2893 0.951 . S
H2870 C2895 0.951 . S
H2871 C2897 0.950 . S
H2872 C2898 0.950 1_655 S
H2873 C2900 0.950 . S
H2874 C2903 0.950 . S
H2875 C2904 0.950 . S
H2876 C2906 0.950 . S
H2877 C2907 0.950 . S
C2878 H2860 0.951 . S
C2878 C2879 1.366 . S
C2878 C2880 1.388 . S
C2879 C2878 1.366 . S
C2879 C2883 1.385 . S
C2880 H2861 0.951 . S
C2880 C2878 1.388 . S
C2880 C2881 1.366 . S
C2881 C2880 1.366 . S
C2881 C2882 1.414 . S
C2881 C2884 1.499 . S
C2882 H2862 0.950 . S
C2882 C2881 1.414 . S
C2882 C2883 1.374 . S
C2883 H2863 0.950 . S
C2883 C2879 1.385 . S
C2883 C2882 1.374 . S
C2884 C2881 1.499 . S
C2884 C2885 1.373 . S
C2884 C2886 1.389 . S
C2885 H2864 0.950 . S
C2885 C2884 1.373 . S
C2885 C2901 1.377 . S
C2886 C2884 1.389 . S
C2886 C2887 1.524 . S
C2886 C2900 1.377 . S
C2887 C2886 1.524 . S
C2887 C2888 1.397 . S
C2887 C2892 1.363 . S
C2888 H2865 0.950 . S
C2888 C2887 1.397 . S
C2888 C2889 1.334 . S
C2889 H2866 0.950 . S
C2889 C2888 1.334 . S
C2889 C2890 1.287 . S
C2890 C2889 1.287 . S
C2890 C2891 1.524 . S
C2890 H2909 0.913 . S
C2891 H2867 0.950 . S
C2891 C2890 1.524 . S
C2891 C2892 1.415 . S
C2892 H2868 0.950 . S
C2892 C2887 1.363 . S
C2892 C2891 1.415 . S
C2893 H2869 0.951 . S
C2893 C2894 1.366 . S
C2893 C2895 1.388 . S
C2894 C2893 1.366 . S
C2894 C2898 1.385 . S
C2895 H2870 0.951 . S
C2895 C2893 1.388 . S
C2895 C2896 1.366 . S
C2896 C2895 1.366 . S
C2896 C2897 1.414 . S
C2896 C2899 1.499 . S
C2897 H2871 0.950 . S
C2897 C2896 1.414 . S
C2897 C2898 1.374 . S
C2898 H2872 0.950 1_455 S
C2898 C2894 1.385 . S
C2898 C2897 1.374 . S
C2899 C2896 1.499 . S
C2899 C2900 1.373 . S
C2899 C2901 1.389 . S
C2900 H2873 0.950 . S
C2900 C2886 1.377 . S
C2900 C2899 1.373 . S
C2901 C2885 1.377 . S
C2901 C2899 1.389 . S
C2901 C2902 1.524 . S
C2902 C2901 1.524 . S
C2902 C2903 1.397 . S
C2902 C2907 1.363 . S
C2903 H2874 0.950 . S
C2903 C2902 1.397 . S
C2903 C2904 1.334 . S
C2904 H2875 0.950 . S
C2904 C2903 1.334 . S
C2904 C2905 1.287 . S
C2905 C2904 1.287 . S
C2905 C2906 1.524 . S
C2905 H2908 0.999 . S
C2906 H2876 0.950 . S
C2906 C2905 1.524 . S
C2906 C2907 1.415 . S
C2907 H2877 0.950 . S
C2907 C2902 1.363 . S
C2907 C2906 1.415 . S
H2908 C2905 0.999 . S
H2909 C2890 0.913 . S
H2910 C2928 0.951 . S
H2911 C2930 0.951 . S
H2912 C2932 0.950 . S
H2913 C2933 0.950 . S
H2914 C2935 0.950 . S
H2915 C2938 0.950 . S
H2916 C2939 0.950 . S
H2917 C2941 0.950 . S
H2918 C2942 0.950 . S
H2919 C2943 0.951 . S
H2920 C2945 0.951 . S
H2921 C2947 0.950 . S
H2922 C2948 0.950 . S
H2923 C2950 0.950 . S
H2924 C2953 0.950 . S
H2925 C2954 0.950 . S
H2926 C2956 0.950 . S
H2927 C2957 0.950 . S
C2928 H2910 0.951 . S
C2928 C2929 1.366 . S
C2928 C2930 1.388 . S
C2929 C2928 1.366 . S
C2929 C2933 1.385 . S
C2930 H2911 0.951 . S
C2930 C2928 1.388 . S
C2930 C2931 1.366 . S
C2931 C2930 1.366 . S
C2931 C2932 1.414 . S
C2931 C2934 1.499 . S
C2932 H2912 0.950 . S
C2932 C2931 1.414 . S
C2932 C2933 1.374 . S
C2933 H2913 0.950 . S
C2933 C2929 1.385 . S
C2933 C2932 1.374 . S
C2934 C2931 1.499 . S
C2934 C2935 1.373 . S
C2934 C2936 1.389 . S
C2935 H2914 0.950 . S
C2935 C2934 1.373 . S
C2935 C2951 1.377 . S
C2936 C2934 1.389 . S
C2936 C2937 1.524 . S
C2936 C2950 1.377 . S
C2937 C2936 1.524 . S
C2937 C2938 1.397 . S
C2937 C2942 1.363 . S
C2938 H2915 0.950 . S
C2938 C2937 1.397 . S
C2938 C2939 1.334 . S
C2939 H2916 0.950 . S
C2939 C2938 1.334 . S
C2939 C2940 1.287 . S
C2940 C2939 1.287 . S
C2940 C2941 1.524 . S
C2940 H2959 0.913 . S
C2941 H2917 0.950 . S
C2941 C2940 1.524 . S
C2941 C2942 1.415 . S
C2942 H2918 0.950 . S
C2942 C2937 1.363 . S
C2942 C2941 1.415 . S
C2943 H2919 0.951 . S
C2943 C2944 1.366 . S
C2943 C2945 1.388 . S
C2944 C2943 1.366 . S
C2944 C2948 1.385 . S
C2945 H2920 0.951 . S
C2945 C2943 1.388 . S
C2945 C2946 1.366 . S
C2946 C2945 1.366 . S
C2946 C2947 1.414 . S
C2946 C2949 1.499 . S
C2947 H2921 0.950 . S
C2947 C2946 1.414 . S
C2947 C2948 1.374 . S
C2948 H2922 0.950 . S
C2948 C2944 1.385 . S
C2948 C2947 1.374 . S
C2949 C2946 1.499 . S
C2949 C2950 1.373 . S
C2949 C2951 1.389 . S
C2950 H2923 0.950 . S
C2950 C2936 1.377 . S
C2950 C2949 1.373 . S
C2951 C2935 1.377 . S
C2951 C2949 1.389 . S
C2951 C2952 1.524 . S
C2952 C2951 1.524 . S
C2952 C2953 1.397 . S
C2952 C2957 1.363 . S
C2953 H2924 0.950 . S
C2953 C2952 1.397 . S
C2953 C2954 1.334 . S
C2954 H2925 0.950 . S
C2954 C2953 1.334 . S
C2954 C2955 1.287 . S
C2955 C2954 1.287 . S
C2955 C2956 1.524 . S
C2955 H2958 0.999 . S
C2956 H2926 0.950 . S
C2956 C2955 1.524 . S
C2956 C2957 1.415 . S
C2957 H2927 0.950 . S
C2957 C2952 1.363 . S
C2957 C2956 1.415 . S
H2958 C2955 0.999 . S
H2959 C2940 0.913 . S
H2960 C2978 0.951 . S
H2961 C2980 0.951 . S
H2962 C2982 0.950 . S
H2963 C2983 0.950 . S
H2964 C2985 0.950 . S
H2965 C2988 0.950 . S
H2966 C2989 0.950 . S
H2967 C2991 0.950 . S
H2968 C2992 0.950 . S
H2969 C2993 0.951 . S
H2970 C2995 0.951 . S
H2971 C2997 0.950 . S
H2972 C2998 0.950 . S
H2973 C3000 0.950 . S
H2974 C3003 0.950 . S
H2975 C3004 0.950 . S
H2976 C3006 0.950 . S
H2977 C3007 0.950 . S
C2978 H2960 0.951 . S
C2978 C2979 1.366 . S
C2978 C2980 1.388 . S
C2979 C2978 1.366 . S
C2979 C2983 1.385 . S
C2980 H2961 0.951 . S
C2980 C2978 1.388 . S
C2980 C2981 1.366 . S
C2981 C2980 1.366 . S
C2981 C2982 1.414 . S
C2981 C2984 1.499 . S
C2982 H2962 0.950 . S
C2982 C2981 1.414 . S
C2982 C2983 1.374 . S
C2983 H2963 0.950 . S
C2983 C2979 1.385 . S
C2983 C2982 1.374 . S
C2984 C2981 1.499 . S
C2984 C2985 1.373 . S
C2984 C2986 1.389 . S
C2985 H2964 0.950 . S
C2985 C2984 1.373 . S
C2985 C3001 1.377 . S
C2986 C2984 1.389 . S
C2986 C2987 1.524 . S
C2986 C3000 1.377 . S
C2987 C2986 1.524 . S
C2987 C2988 1.397 . S
C2987 C2992 1.363 . S
C2988 H2965 0.950 . S
C2988 C2987 1.397 . S
C2988 C2989 1.334 . S
C2989 H2966 0.950 . S
C2989 C2988 1.334 . S
C2989 C2990 1.287 . S
C2990 C2989 1.287 . S
C2990 C2991 1.524 . S
C2990 H3009 0.913 . S
C2991 H2967 0.950 . S
C2991 C2990 1.524 . S
C2991 C2992 1.415 . S
C2992 H2968 0.950 . S
C2992 C2987 1.363 . S
C2992 C2991 1.415 . S
C2993 H2969 0.951 . S
C2993 C2994 1.366 . S
C2993 C2995 1.388 . S
C2994 C2993 1.366 . S
C2994 C2998 1.385 . S
C2995 H2970 0.951 . S
C2995 C2993 1.388 . S
C2995 C2996 1.366 . S
C2996 C2995 1.366 . S
C2996 C2997 1.414 . S
C2996 C2999 1.499 . S
C2997 H2971 0.950 . S
C2997 C2996 1.414 . S
C2997 C2998 1.374 . S
C2998 H2972 0.950 . S
C2998 C2994 1.385 . S
C2998 C2997 1.374 . S
C2999 C2996 1.499 . S
C2999 C3000 1.373 . S
C2999 C3001 1.389 . S
C3000 H2973 0.950 . S
C3000 C2986 1.377 . S
C3000 C2999 1.373 . S
C3001 C2985 1.377 . S
C3001 C2999 1.389 . S
C3001 C3002 1.524 . S
C3002 C3001 1.524 . S
C3002 C3003 1.397 . S
C3002 C3007 1.363 . S
C3003 H2974 0.950 . S
C3003 C3002 1.397 . S
C3003 C3004 1.334 . S
C3004 H2975 0.950 . S
C3004 C3003 1.334 . S
C3004 C3005 1.287 . S
C3005 C3004 1.287 . S
C3005 C3006 1.524 . S
C3005 H3008 0.999 . S
C3006 H2976 0.950 . S
C3006 C3005 1.524 . S
C3006 C3007 1.415 . S
C3007 H2977 0.950 . S
C3007 C3002 1.363 . S
C3007 C3006 1.415 . S
H3008 C3005 0.999 . S
H3009 C2990 0.913 . S
H3010 C3028 0.951 . S
H3011 C3030 0.951 . S
H3012 C3032 0.950 . S
H3013 C3033 0.950 . S
H3014 C3035 0.950 . S
H3015 C3038 0.950 . S
H3016 C3039 0.950 . S
H3017 C3041 0.950 . S
H3018 C3042 0.950 . S
H3019 C3043 0.951 . S
H3020 C3045 0.951 . S
H3021 C3047 0.950 . S
H3022 C3048 0.950 . S
H3023 C3050 0.950 . S
H3024 C3053 0.950 . S
H3025 C3054 0.950 . S
H3026 C3056 0.950 . S
H3027 C3057 0.950 . S
C3028 H3010 0.951 . S
C3028 C3029 1.366 . S
C3028 C3030 1.388 . S
C3029 C3028 1.366 . S
C3029 C3033 1.385 . S
C3030 H3011 0.951 . S
C3030 C3028 1.388 . S
C3030 C3031 1.366 . S
C3031 C3030 1.366 . S
C3031 C3032 1.414 . S
C3031 C3034 1.499 . S
C3032 H3012 0.950 . S
C3032 C3031 1.414 . S
C3032 C3033 1.374 . S
C3033 H3013 0.950 . S
C3033 C3029 1.385 . S
C3033 C3032 1.374 . S
C3034 C3031 1.499 . S
C3034 C3035 1.373 . S
C3034 C3036 1.389 . S
C3035 H3014 0.950 . S
C3035 C3034 1.373 . S
C3035 C3051 1.377 . S
C3036 C3034 1.389 . S
C3036 C3037 1.524 . S
C3036 C3050 1.377 . S
C3037 C3036 1.524 . S
C3037 C3038 1.397 . S
C3037 C3042 1.363 . S
C3038 H3015 0.950 . S
C3038 C3037 1.397 . S
C3038 C3039 1.334 . S
C3039 H3016 0.950 . S
C3039 C3038 1.334 . S
C3039 C3040 1.287 . S
C3040 C3039 1.287 . S
C3040 C3041 1.524 . S
C3040 H3059 0.913 . S
C3041 H3017 0.950 . S
C3041 C3040 1.524 . S
C3041 C3042 1.415 . S
C3042 H3018 0.950 . S
C3042 C3037 1.363 . S
C3042 C3041 1.415 . S
C3043 H3019 0.951 . S
C3043 C3044 1.366 . S
C3043 C3045 1.388 . S
C3044 C3043 1.366 . S
C3044 C3048 1.385 . S
C3045 H3020 0.951 . S
C3045 C3043 1.388 . S
C3045 C3046 1.366 . S
C3046 C3045 1.366 . S
C3046 C3047 1.414 . S
C3046 C3049 1.499 . S
C3047 H3021 0.950 . S
C3047 C3046 1.414 . S
C3047 C3048 1.374 . S
C3048 H3022 0.950 . S
C3048 C3044 1.385 . S
C3048 C3047 1.374 . S
C3049 C3046 1.499 . S
C3049 C3050 1.373 . S
C3049 C3051 1.389 . S
C3050 H3023 0.950 . S
C3050 C3036 1.377 . S
C3050 C3049 1.373 . S
C3051 C3035 1.377 . S
C3051 C3049 1.389 . S
C3051 C3052 1.524 . S
C3052 C3051 1.524 . S
C3052 C3053 1.397 . S
C3052 C3057 1.363 . S
C3053 H3024 0.950 . S
C3053 C3052 1.397 . S
C3053 C3054 1.334 . S
C3054 H3025 0.950 . S
C3054 C3053 1.334 . S
C3054 C3055 1.287 . S
C3055 C3054 1.287 . S
C3055 C3056 1.524 . S
C3055 H3058 0.999 . S
C3056 H3026 0.950 . S
C3056 C3055 1.524 . S
C3056 C3057 1.415 . S
C3057 H3027 0.950 . S
C3057 C3052 1.363 . S
C3057 C3056 1.415 . S
H3058 C3055 0.999 . S
H3059 C3040 0.913 . S
C379 C8 1.162 . S
C394 C45 1.351 . S
C429 C5 1.351 . S
C444 C28 1.163 . S
C479 C25 1.351 . S
C494 C48 1.164 . S
C529 C68 1.162 . S
C544 C85 1.351 . S
C579 C105 1.351 . S
C594 C88 1.163 . S
C629 C108 1.164 . S
C644 C65 1.351 . S
C679 C165 1.383 . S
C694 C128 1.163 . S
C729 C125 1.351 . S
C744 C148 1.164 . S
C779 C168 1.163 . S
C794 C145 1.351 . S
C829 C205 1.351 . S
C844 C188 1.163 . S
C879 C208 1.162 . S
C894 C225 1.351 . S
C929 C185 1.351 . S
C944 C228 1.164 . S
C979 C248 1.161 . S
C994 C285 1.351 . S
C1029 C245 1.351 . S
C1044 C268 1.164 . S
C1079 C265 1.351 . S
C1094 C288 1.162 . S
C1129 C325 1.380 . S
C1144 C308 1.164 . S
C1179 C345 1.351 . S
C1194 C328 1.163 . S
C1229 C305 1.351 . S
C1244 C348 1.162 . S
C1279 C2 1.796 . S
C1294 C102 1.796 . S
C1329 C62 1.795 . S
C1344 C22 1.795 . S
C1379 C82 1.796 . S
C1394 C42 1.795 . S
C1429 C122 1.795 . S
C1444 C222 1.795 . S
C1479 C142 1.795 . S
C1494 C182 1.796 . S
C1529 C202 1.796 . S
C1544 C162 1.795 . S
C1579 C242 1.795 . S
C1594 C342 1.795 . S
C1629 C302 1.795 . S
C1644 C262 1.795 . S
C1679 C322 1.795 . S
C1694 C282 1.795 . S
C1729 C213 1.832 . S
C1744 C13 1.831 . S
C1779 C33 1.832 . S
C1794 C233 1.831 . S
C1829 C193 1.832 . S
C1844 C53 1.831 . S
C1879 C73 1.832 . S
C1894 C293 1.831 . S
C1929 C93 1.832 . S
C1944 C253 1.832 . S
C1979 C273 1.832 . S
C1994 C113 1.832 . S
C2029 C333 1.831 . S
C2044 C133 1.832 . S
C2079 C153 1.832 . S
C2094 C353 1.832 . S
C2129 C173 1.831 . S
C2144 C313 1.831 . S
C2179 C57 2.519 . S
C2194 C14 2.646 . S
C2229 C17 2.519 . S
C2244 C34 2.646 . S
C2279 C54 2.647 . S
C2294 C37 2.518 . S
C2329 C97 2.519 . S
C2344 C74 2.646 . S
C2379 C117 2.518 . S
C2394 C94 2.647 . S
C2429 C114 2.646 . S
C2444 C77 2.518 . S
C2479 C177 2.519 . S
C2494 C134 2.646 . S
C2529 C154 2.647 . S
C2544 C137 2.518 . S
C2579 C157 2.518 . S
C2594 C174 2.647 . S
C2629 C194 2.647 . S
C2644 C217 2.518 . S
C2679 C214 2.646 1_545 S
C2694 C237 2.519 . S
C2729 C197 2.519 . S
C2744 C234 2.646 . S
C2779 C254 2.646 . S
C2794 C297 2.519 . S
C2829 C274 2.646 . S
C2844 C257 2.519 . S
C2879 C277 2.518 . S
C2894 C294 2.646 1_455 S
C2929 C314 2.646 . S
C2944 C337 2.519 . S
C2979 C334 2.647 . S
C2994 C357 2.518 . S
C3029 C317 2.518 . S
C3044 C354 2.646 . S
