# Generated by pormake.
# Topology ech, (8)-cn, num edge types: 1
# Building blocks:
#     Node 0, Type 0, BuildingBlock: TAGTUT_clean_sbu_1, # of connection points: 8
#     Node 1, Type 0, BuildingBlock: TAGTUT_clean_sbu_1, # of connection points: 8
#     Node 2, Type 0, BuildingBlock: TAGTUT_clean_sbu_1, # of connection points: 8
#     Node 3, Type 0, BuildingBlock: TAGTUT_clean_sbu_1, # of connection points: 8
#     Node 4, Type 0, BuildingBlock: TAGTUT_clean_sbu_1, # of connection points: 8
#     Node 5, Type 0, BuildingBlock: TAGTUT_clean_sbu_1, # of connection points: 8
#     Node 6, Type 0, BuildingBlock: TAGTUT_clean_sbu_1, # of connection points: 8
#     Node 7, Type 0, BuildingBlock: TAGTUT_clean_sbu_1, # of connection points: 8
#     Node 8, Type 0, BuildingBlock: TAGTUT_clean_sbu_1, # of connection points: 8
#     Node 9, Type 0, BuildingBlock: TAGTUT_clean_sbu_1, # of connection points: 8
#     Node 10, Type 0, BuildingBlock: TAGTUT_clean_sbu_1, # of connection points: 8
#     Node 11, Type 0, BuildingBlock: TAGTUT_clean_sbu_1, # of connection points: 8
#     Node 12, Type 0, BuildingBlock: TAGTUT_clean_sbu_1, # of connection points: 8
#     Node 13, Type 0, BuildingBlock: TAGTUT_clean_sbu_1, # of connection points: 8
#     Node 14, Type 0, BuildingBlock: TAGTUT_clean_sbu_1, # of connection points: 8
#     Node 15, Type 0, BuildingBlock: TAGTUT_clean_sbu_1, # of connection points: 8
#     Node 16, Type 0, BuildingBlock: TAGTUT_clean_sbu_1, # of connection points: 8
#     Node 17, Type 0, BuildingBlock: TAGTUT_clean_sbu_1, # of connection points: 8
#     Node 18, Type 0, BuildingBlock: TAGTUT_clean_sbu_1, # of connection points: 8
#     Node 19, Type 0, BuildingBlock: TAGTUT_clean_sbu_1, # of connection points: 8
#     Node 20, Type 0, BuildingBlock: TAGTUT_clean_sbu_1, # of connection points: 8
#     Node 21, Type 0, BuildingBlock: TAGTUT_clean_sbu_1, # of connection points: 8
#     Node 22, Type 0, BuildingBlock: TAGTUT_clean_sbu_1, # of connection points: 8
#     Node 23, Type 0, BuildingBlock: TAGTUT_clean_sbu_1, # of connection points: 8
#     Edge 24, Type (0, 0), BuildingBlock: XIVTED_clean_linker_0, # of connection points: 2
#     Edge 25, Type (0, 0), BuildingBlock: XIVTED_clean_linker_0, # of connection points: 2
#     Edge 26, Type (0, 0), BuildingBlock: XIVTED_clean_linker_0, # of connection points: 2
#     Edge 27, Type (0, 0), BuildingBlock: XIVTED_clean_linker_0, # of connection points: 2
#     Edge 28, Type (0, 0), BuildingBlock: XIVTED_clean_linker_0, # of connection points: 2
#     Edge 29, Type (0, 0), BuildingBlock: XIVTED_clean_linker_0, # of connection points: 2
#     Edge 30, Type (0, 0), BuildingBlock: XIVTED_clean_linker_0, # of connection points: 2
#     Edge 31, Type (0, 0), BuildingBlock: XIVTED_clean_linker_0, # of connection points: 2
#     Edge 32, Type (0, 0), BuildingBlock: XIVTED_clean_linker_0, # of connection points: 2
#     Edge 33, Type (0, 0), BuildingBlock: XIVTED_clean_linker_0, # of connection points: 2
#     Edge 34, Type (0, 0), BuildingBlock: XIVTED_clean_linker_0, # of connection points: 2
#     Edge 35, Type (0, 0), BuildingBlock: XIVTED_clean_linker_0, # of connection points: 2
#     Edge 36, Type (0, 0), BuildingBlock: XIVTED_clean_linker_0, # of connection points: 2
#     Edge 37, Type (0, 0), BuildingBlock: XIVTED_clean_linker_0, # of connection points: 2
#     Edge 38, Type (0, 0), BuildingBlock: XIVTED_clean_linker_0, # of connection points: 2
#     Edge 39, Type (0, 0), BuildingBlock: XIVTED_clean_linker_0, # of connection points: 2
#     Edge 40, Type (0, 0), BuildingBlock: XIVTED_clean_linker_0, # of connection points: 2
#     Edge 41, Type (0, 0), BuildingBlock: XIVTED_clean_linker_0, # of connection points: 2
#     Edge 42, Type (0, 0), BuildingBlock: XIVTED_clean_linker_0, # of connection points: 2
#     Edge 43, Type (0, 0), BuildingBlock: XIVTED_clean_linker_0, # of connection points: 2
#     Edge 44, Type (0, 0), BuildingBlock: XIVTED_clean_linker_0, # of connection points: 2
#     Edge 45, Type (0, 0), BuildingBlock: XIVTED_clean_linker_0, # of connection points: 2
#     Edge 46, Type (0, 0), BuildingBlock: XIVTED_clean_linker_0, # of connection points: 2
#     Edge 47, Type (0, 0), BuildingBlock: XIVTED_clean_linker_0, # of connection points: 2
#     Edge 48, Type (0, 0), BuildingBlock: XIVTED_clean_linker_0, # of connection points: 2
#     Edge 49, Type (0, 0), BuildingBlock: XIVTED_clean_linker_0, # of connection points: 2
#     Edge 50, Type (0, 0), BuildingBlock: XIVTED_clean_linker_0, # of connection points: 2
#     Edge 51, Type (0, 0), BuildingBlock: XIVTED_clean_linker_0, # of connection points: 2
#     Edge 52, Type (0, 0), BuildingBlock: XIVTED_clean_linker_0, # of connection points: 2
#     Edge 53, Type (0, 0), BuildingBlock: XIVTED_clean_linker_0, # of connection points: 2
#     Edge 54, Type (0, 0), BuildingBlock: XIVTED_clean_linker_0, # of connection points: 2
#     Edge 55, Type (0, 0), BuildingBlock: XIVTED_clean_linker_0, # of connection points: 2
#     Edge 56, Type (0, 0), BuildingBlock: XIVTED_clean_linker_0, # of connection points: 2
#     Edge 57, Type (0, 0), BuildingBlock: XIVTED_clean_linker_0, # of connection points: 2
#     Edge 58, Type (0, 0), BuildingBlock: XIVTED_clean_linker_0, # of connection points: 2
#     Edge 59, Type (0, 0), BuildingBlock: XIVTED_clean_linker_0, # of connection points: 2
#     Edge 60, Type (0, 0), BuildingBlock: XIVTED_clean_linker_0, # of connection points: 2
#     Edge 61, Type (0, 0), BuildingBlock: XIVTED_clean_linker_0, # of connection points: 2
#     Edge 62, Type (0, 0), BuildingBlock: XIVTED_clean_linker_0, # of connection points: 2
#     Edge 63, Type (0, 0), BuildingBlock: XIVTED_clean_linker_0, # of connection points: 2
#     Edge 64, Type (0, 0), BuildingBlock: XIVTED_clean_linker_0, # of connection points: 2
#     Edge 65, Type (0, 0), BuildingBlock: XIVTED_clean_linker_0, # of connection points: 2
#     Edge 66, Type (0, 0), BuildingBlock: XIVTED_clean_linker_0, # of connection points: 2
#     Edge 67, Type (0, 0), BuildingBlock: XIVTED_clean_linker_0, # of connection points: 2
#     Edge 68, Type (0, 0), BuildingBlock: XIVTED_clean_linker_0, # of connection points: 2
#     Edge 69, Type (0, 0), BuildingBlock: XIVTED_clean_linker_0, # of connection points: 2
#     Edge 70, Type (0, 0), BuildingBlock: XIVTED_clean_linker_0, # of connection points: 2
#     Edge 71, Type (0, 0), BuildingBlock: XIVTED_clean_linker_0, # of connection points: 2
#     Edge 72, Type (0, 0), BuildingBlock: XIVTED_clean_linker_0, # of connection points: 2
#     Edge 73, Type (0, 0), BuildingBlock: XIVTED_clean_linker_0, # of connection points: 2
#     Edge 74, Type (0, 0), BuildingBlock: XIVTED_clean_linker_0, # of connection points: 2
#     Edge 75, Type (0, 0), BuildingBlock: XIVTED_clean_linker_0, # of connection points: 2
#     Edge 76, Type (0, 0), BuildingBlock: XIVTED_clean_linker_0, # of connection points: 2
#     Edge 77, Type (0, 0), BuildingBlock: XIVTED_clean_linker_0, # of connection points: 2
#     Edge 78, Type (0, 0), BuildingBlock: XIVTED_clean_linker_0, # of connection points: 2
#     Edge 79, Type (0, 0), BuildingBlock: XIVTED_clean_linker_0, # of connection points: 2
#     Edge 80, Type (0, 0), BuildingBlock: XIVTED_clean_linker_0, # of connection points: 2
#     Edge 81, Type (0, 0), BuildingBlock: XIVTED_clean_linker_0, # of connection points: 2
#     Edge 82, Type (0, 0), BuildingBlock: XIVTED_clean_linker_0, # of connection points: 2
#     Edge 83, Type (0, 0), BuildingBlock: XIVTED_clean_linker_0, # of connection points: 2
#     Edge 84, Type (0, 0), BuildingBlock: XIVTED_clean_linker_0, # of connection points: 2
#     Edge 85, Type (0, 0), BuildingBlock: XIVTED_clean_linker_0, # of connection points: 2
#     Edge 86, Type (0, 0), BuildingBlock: XIVTED_clean_linker_0, # of connection points: 2
#     Edge 87, Type (0, 0), BuildingBlock: XIVTED_clean_linker_0, # of connection points: 2
#     Edge 88, Type (0, 0), BuildingBlock: XIVTED_clean_linker_0, # of connection points: 2
#     Edge 89, Type (0, 0), BuildingBlock: XIVTED_clean_linker_0, # of connection points: 2
#     Edge 90, Type (0, 0), BuildingBlock: XIVTED_clean_linker_0, # of connection points: 2
#     Edge 91, Type (0, 0), BuildingBlock: XIVTED_clean_linker_0, # of connection points: 2
#     Edge 92, Type (0, 0), BuildingBlock: XIVTED_clean_linker_0, # of connection points: 2
#     Edge 93, Type (0, 0), BuildingBlock: XIVTED_clean_linker_0, # of connection points: 2
#     Edge 94, Type (0, 0), BuildingBlock: XIVTED_clean_linker_0, # of connection points: 2
#     Edge 95, Type (0, 0), BuildingBlock: XIVTED_clean_linker_0, # of connection points: 2
#     Edge 96, Type (0, 0), BuildingBlock: XIVTED_clean_linker_0, # of connection points: 2
#     Edge 97, Type (0, 0), BuildingBlock: XIVTED_clean_linker_0, # of connection points: 2
#     Edge 98, Type (0, 0), BuildingBlock: XIVTED_clean_linker_0, # of connection points: 2
#     Edge 99, Type (0, 0), BuildingBlock: XIVTED_clean_linker_0, # of connection points: 2
#     Edge 100, Type (0, 0), BuildingBlock: XIVTED_clean_linker_0, # of connection points: 2
#     Edge 101, Type (0, 0), BuildingBlock: XIVTED_clean_linker_0, # of connection points: 2
#     Edge 102, Type (0, 0), BuildingBlock: XIVTED_clean_linker_0, # of connection points: 2
#     Edge 103, Type (0, 0), BuildingBlock: XIVTED_clean_linker_0, # of connection points: 2
#     Edge 104, Type (0, 0), BuildingBlock: XIVTED_clean_linker_0, # of connection points: 2
#     Edge 105, Type (0, 0), BuildingBlock: XIVTED_clean_linker_0, # of connection points: 2
#     Edge 106, Type (0, 0), BuildingBlock: XIVTED_clean_linker_0, # of connection points: 2
#     Edge 107, Type (0, 0), BuildingBlock: XIVTED_clean_linker_0, # of connection points: 2
#     Edge 108, Type (0, 0), BuildingBlock: XIVTED_clean_linker_0, # of connection points: 2
#     Edge 109, Type (0, 0), BuildingBlock: XIVTED_clean_linker_0, # of connection points: 2
#     Edge 110, Type (0, 0), BuildingBlock: XIVTED_clean_linker_0, # of connection points: 2
#     Edge 111, Type (0, 0), BuildingBlock: XIVTED_clean_linker_0, # of connection points: 2
#     Edge 112, Type (0, 0), BuildingBlock: XIVTED_clean_linker_0, # of connection points: 2
#     Edge 113, Type (0, 0), BuildingBlock: XIVTED_clean_linker_0, # of connection points: 2
#     Edge 114, Type (0, 0), BuildingBlock: XIVTED_clean_linker_0, # of connection points: 2
#     Edge 115, Type (0, 0), BuildingBlock: XIVTED_clean_linker_0, # of connection points: 2
#     Edge 116, Type (0, 0), BuildingBlock: XIVTED_clean_linker_0, # of connection points: 2
#     Edge 117, Type (0, 0), BuildingBlock: XIVTED_clean_linker_0, # of connection points: 2
#     Edge 118, Type (0, 0), BuildingBlock: XIVTED_clean_linker_0, # of connection points: 2
#     Edge 119, Type (0, 0), BuildingBlock: XIVTED_clean_linker_0, # of connection points: 2
# Relax obj value: 0.223
# Max RMSD: 0.224
# Mean RMSD: 0.224
data_MOF--net-ech--node1-TAGTUT_clean_sbu_1--edge1-XIVTED_clean_linker_0
_symmetry_space_group_name_H-M    P1
_symmetry_Int_Tables_number       1
_symmetry_cell_setting            triclinic
loop_
_symmetry_equiv_pos_as_xyz
'x, y, z'
_cell_length_a     47.336628
_cell_length_b     47.370251
_cell_length_c     47.338396
_cell_angle_alpha  90.014674
_cell_angle_beta   90.014861
_cell_angle_gamma 89.973796
loop_
_atom_site_label
_atom_site_type_symbol
_atom_site_fract_x
_atom_site_fract_y
_atom_site_fract_z
_atom_type_partial_charge
C0 C 0.01585 0.32385 0.47816 0.0
C1 C 0.07524 0.27518 0.52774 0.0
C2 C 0.15881 0.31191 0.46542 0.0
Mg3 Mg 0.04727 0.26716 0.47038 0.0
O4 O 0.07163 0.29298 0.45267 0.0
Mg5 Mg 0.08801 0.32352 0.47682 0.0
Mg6 Mg 0.10581 0.27758 0.43443 0.0
O7 O 0.14011 0.2604 0.41722 0.0
Mg8 Mg 0.17137 0.28101 0.4065 0.0
Mg9 Mg 0.12127 0.23439 0.38992 0.0
C10 C 0.05878 0.23343 0.41313 0.0
C11 C 0.11477 0.21295 0.45506 0.0
O12 O 0.03972 0.33693 0.48085 0.0
O13 O 0.0142 0.29712 0.47454 0.0
O14 O 0.08456 0.29814 0.51734 0.0
O15 O 0.06207 0.25735 0.5124 0.0
O16 O 0.04525 0.23587 0.43658 0.0
O17 O 0.07853 0.25062 0.40595 0.0
C18 C 0.09654 0.34234 0.41187 0.0
O19 O 0.10242 0.31695 0.40428 0.0
O20 O 0.0913 0.34863 0.43746 0.0
O21 O 0.16551 0.21726 0.37771 0.0
O22 O 0.19889 0.24675 0.39399 0.0
O23 O 0.12482 0.26861 0.35394 0.0
C24 C 0.1915 0.22375 0.38176 0.0
O25 O 0.15515 0.30144 0.37004 0.0
O26 O 0.17621 0.30471 0.44581 0.0
C27 C 0.1378 0.29237 0.35147 0.0
O28 O 0.13261 0.30462 0.46454 0.0
O29 O 0.10904 0.23841 0.46259 0.0
O30 O 0.11926 0.2061 0.42912 0.0
C31 C 0.48316 0.67193 0.9816 0.0
C32 C 0.42229 0.72062 0.0298 0.0
C33 C 0.33984 0.68514 0.96714 0.0
Mg34 Mg 0.45146 0.72832 0.9732 0.0
O35 O 0.42766 0.70237 0.95486 0.0
Mg36 Mg 0.41091 0.67193 0.97878 0.0
Mg37 Mg 0.39374 0.71798 0.93624 0.0
O38 O 0.35978 0.73552 0.91861 0.0
Mg39 Mg 0.32809 0.71567 0.90779 0.0
Mg40 Mg 0.37915 0.76129 0.89159 0.0
C41 C 0.44122 0.76178 0.91566 0.0
C42 C 0.3849 0.78267 0.9569 0.0
O43 O 0.45935 0.65858 0.98338 0.0
O44 O 0.48466 0.69872 0.97843 0.0
O45 O 0.41361 0.69741 0.01935 0.0
O46 O 0.4355 0.73855 0.01466 0.0
O47 O 0.45427 0.75938 0.93937 0.0
O48 O 0.42151 0.74468 0.90815 0.0
C49 C 0.40291 0.65333 0.91366 0.0
O50 O 0.39712 0.67875 0.90614 0.0
O51 O 0.40805 0.64688 0.93925 0.0
O52 O 0.33546 0.77897 0.8788 0.0
O53 O 0.30124 0.75028 0.89459 0.0
O54 O 0.3753 0.72701 0.85554 0.0
C55 C 0.30929 0.77304 0.88235 0.0
O56 O 0.34424 0.69479 0.87151 0.0
O57 O 0.32265 0.69289 0.94754 0.0
C58 C 0.36183 0.70352 0.85299 0.0
O59 O 0.36641 0.69097 0.96592 0.0
O60 O 0.39051 0.75717 0.96442 0.0
O61 O 0.38082 0.78953 0.93089 0.0
C62 C 0.51327 0.1764 0.51409 0.0
C63 C 0.57738 0.22115 0.46653 0.0
C64 C 0.65493 0.18136 0.53842 0.0
Mg65 Mg 0.54599 0.23225 0.52199 0.0
O66 O 0.56869 0.20643 0.54161 0.0
Mg67 Mg 0.5851 0.17427 0.51983 0.0
Mg68 Mg 0.60202 0.22049 0.5624 0.0
O69 O 0.63578 0.23624 0.58221 0.0
Mg70 Mg 0.66298 0.21305 0.59804 0.0
Mg71 Mg 0.61654 0.26511 0.60629 0.0
C72 C 0.55541 0.26733 0.57906 0.0
C73 C 0.61499 0.28368 0.54 0.0
O74 O 0.53689 0.16274 0.51246 0.0
O75 O 0.51213 0.20321 0.51734 0.0
O76 O 0.58599 0.19845 0.47818 0.0
O77 O 0.56344 0.23957 0.48048 0.0
O78 O 0.54332 0.26456 0.55486 0.0
O79 O 0.57412 0.24979 0.58806 0.0
C80 C 0.58534 0.15785 0.58577 0.0
O81 O 0.59345 0.18265 0.5932 0.0
O82 O 0.58253 0.15087 0.56 0.0
O83 O 0.66065 0.28041 0.6201 0.0
O84 O 0.69193 0.2452 0.61359 0.0
O85 O 0.61723 0.23437 0.64565 0.0
C86 C 0.6858 0.27046 0.62129 0.0
O87 O 0.64196 0.19571 0.63377 0.0
O88 O 0.67012 0.18745 0.56017 0.0
C89 C 0.62682 0.20956 0.65124 0.0
O90 O 0.62964 0.19107 0.53551 0.0
O91 O 0.60929 0.25812 0.53302 0.0
O92 O 0.61795 0.29135 0.56587 0.0
C93 C 0.98173 0.82603 0.01901 0.0
C94 C 0.9224 0.77744 0.96915 0.0
C95 C 0.83894 0.81221 0.03248 0.0
Mg96 Mg 0.95084 0.76904 0.0261 0.0
O97 O 0.92648 0.79432 0.04456 0.0
Mg98 Mg 0.90958 0.82499 0.02092 0.0
Mg99 Mg 0.89267 0.77809 0.0628 0.0
O100 O 0.85876 0.76015 0.07995 0.0
Mg101 Mg 0.82712 0.78008 0.09088 0.0
Mg102 Mg 0.87806 0.73423 0.10703 0.0
C103 C 0.9405 0.73431 0.08301 0.0
C104 C 0.88488 0.71355 0.04159 0.0
O105 O 0.95775 0.83903 0.01693 0.0
O106 O 0.98359 0.79923 0.02196 0.0
O107 O 0.91312 0.80026 0.97992 0.0
O108 O 0.93571 0.75944 0.98415 0.0
O109 O 0.95357 0.73743 0.0594 0.0
O110 O 0.9206 0.75109 0.0909 0.0
C111 C 0.90085 0.84258 0.08621 0.0
O112 O 0.8954 0.817 0.09339 0.0
O113 O 0.90603 0.84943 0.06074 0.0
O114 O 0.83407 0.71638 0.11935 0.0
O115 O 0.80017 0.74531 0.10306 0.0
O116 O 0.87391 0.76816 0.14343 0.0
C117 C 0.80797 0.72246 0.1153 0.0
O118 O 0.8428 0.80041 0.12761 0.0
O119 O 0.82179 0.80434 0.05203 0.0
C120 C 0.86034 0.79158 0.14612 0.0
O121 O 0.86527 0.80525 0.03305 0.0
O122 O 0.89013 0.73917 0.03429 0.0
O123 O 0.88045 0.7064 0.06747 0.0
C124 C 0.48089 0.01377 0.32365 0.0
C125 C 0.52943 0.07507 0.27574 0.0
C126 C 0.46502 0.15644 0.31222 0.0
Mg127 Mg 0.47312 0.04544 0.2671 0.0
O128 O 0.45429 0.06904 0.29293 0.0
Mg129 Mg 0.47771 0.08585 0.32381 0.0
Mg130 Mg 0.43535 0.10282 0.27745 0.0
O131 O 0.41751 0.13675 0.26019 0.0
Mg132 Mg 0.40605 0.16783 0.28076 0.0
Mg133 Mg 0.39076 0.1173 0.23403 0.0
C134 C 0.41596 0.05569 0.23275 0.0
C135 C 0.45618 0.11224 0.21293 0.0
O136 O 0.48263 0.03758 0.33699 0.0
O137 O 0.47789 0.01223 0.29681 0.0
O138 O 0.51852 0.08366 0.29877 0.0
O139 O 0.51472 0.0616 0.25762 0.0
O140 O 0.43984 0.04298 0.23534 0.0
O141 O 0.40772 0.07488 0.25015 0.0
C142 C 0.41241 0.09298 0.34197 0.0
O143 O 0.40499 0.0988 0.31651 0.0
O144 O 0.43801 0.08815 0.34857 0.0
O145 O 0.37758 0.16114 0.21698 0.0
O146 O 0.3926 0.19508 0.24647 0.0
O147 O 0.35441 0.12031 0.26809 0.0
C148 C 0.38066 0.18725 0.22344 0.0
O149 O 0.36987 0.15087 0.30107 0.0
O150 O 0.44517 0.17348 0.30479 0.0
C151 C 0.35162 0.13328 0.29184 0.0
O152 O 0.46465 0.13023 0.30492 0.0
O153 O 0.46371 0.10671 0.23845 0.0
O154 O 0.43018 0.11615 0.20594 0.0
C155 C 0.01884 0.98218 0.82526 0.0
C156 C 0.96987 0.92349 0.77546 0.0
C157 C 0.03279 0.83962 0.81214 0.0
Mg158 Mg 0.02718 0.95148 0.7683 0.0
O159 O 0.04488 0.92698 0.79401 0.0
Mg160 Mg 0.02057 0.91014 0.82416 0.0
Mg161 Mg 0.06326 0.89312 0.77816 0.0
O162 O 0.08065 0.85914 0.76051 0.0
Mg163 Mg 0.09169 0.82775 0.78077 0.0
Mg164 Mg 0.10791 0.87841 0.73476 0.0
C165 C 0.08463 0.94088 0.73475 0.0
C166 C 0.04281 0.88535 0.71325 0.0
O167 O 0.01635 0.95821 0.83815 0.0
O168 O 0.02247 0.98411 0.79854 0.0
O169 O 0.98007 0.91398 0.79849 0.0
O170 O 0.98541 0.93664 0.75781 0.0
O171 O 0.06111 0.95424 0.7373 0.0
O172 O 0.0918 0.92085 0.75165 0.0
C173 C 0.08554 0.90155 0.84318 0.0
O174 O 0.09322 0.89602 0.81773 0.0
O175 O 0.0599 0.9066 0.8495 0.0
O176 O 0.12026 0.83449 0.71709 0.0
O177 O 0.10458 0.8006 0.74628 0.0
O178 O 0.14406 0.87429 0.7688 0.0
C179 C 0.11665 0.80839 0.72332 0.0
O180 O 0.12823 0.84359 0.80135 0.0
O181 O 0.05263 0.82255 0.80476 0.0
C182 C 0.1468 0.86094 0.79233 0.0
O183 O 0.03311 0.86582 0.80476 0.0
O184 O 0.03523 0.8906 0.73881 0.0
O185 O 0.06876 0.88087 0.70643 0.0
C186 C 0.9778 0.48277 0.67908 0.0
C187 C 0.02861 0.41905 0.71993 0.0
C188 C 0.95975 0.34018 0.67961 0.0
Mg189 Mg 0.97212 0.44649 0.73293 0.0
O190 O 0.95252 0.42581 0.70529 0.0
Mg191 Mg 0.97517 0.41113 0.67291 0.0
Mg192 Mg 0.93356 0.39158 0.71904 0.0
O193 O 0.91545 0.35693 0.73477 0.0
Mg194 Mg 0.90034 0.3297 0.71116 0.0
Mg195 Mg 0.8904 0.37553 0.76334 0.0
C196 C 0.91505 0.4366 0.76672 0.0
C197 C 0.95643 0.3794 0.78226 0.0
O198 O 0.97995 0.46053 0.66327 0.0
O199 O 0.97574 0.48146 0.70598 0.0
O200 O 0.01691 0.41195 0.69677 0.0
O201 O 0.01432 0.4305 0.73971 0.0
O202 O 0.93935 0.44861 0.76515 0.0
O203 O 0.90679 0.41831 0.74844 0.0
C204 C 0.90943 0.40516 0.65568 0.0
O205 O 0.90239 0.39784 0.68085 0.0
O206 O 0.93489 0.41048 0.64898 0.0
O207 O 0.87784 0.3312 0.7782 0.0
O208 O 0.88535 0.30013 0.74302 0.0
O209 O 0.85165 0.37458 0.73217 0.0
C210 C 0.8774 0.30607 0.76825 0.0
O211 O 0.86443 0.35015 0.69362 0.0
O212 O 0.9385 0.32431 0.68568 0.0
C213 C 0.84669 0.36525 0.70715 0.0
O214 O 0.96189 0.36549 0.68944 0.0
O215 O 0.96319 0.38568 0.75676 0.0
O216 O 0.9307 0.37522 0.78985 0.0
C217 C 0.51681 0.51574 0.17263 0.0
C218 C 0.46835 0.57583 0.22124 0.0
C219 C 0.53278 0.65816 0.18558 0.0
Mg220 Mg 0.52492 0.54674 0.2295 0.0
O221 O 0.54359 0.57064 0.20392 0.0
Mg222 Mg 0.52004 0.58775 0.1733 0.0
Mg223 Mg 0.56225 0.60432 0.21993 0.0
O224 O 0.57987 0.63811 0.23767 0.0
Mg225 Mg 0.59149 0.66928 0.21745 0.0
Mg226 Mg 0.60654 0.61857 0.26382 0.0
C227 C 0.5822 0.55636 0.26378 0.0
C228 C 0.54095 0.61295 0.28438 0.0
O229 O 0.51525 0.53966 0.15947 0.0
O230 O 0.51984 0.51395 0.19944 0.0
O231 O 0.47914 0.58478 0.19828 0.0
O232 O 0.48331 0.56259 0.23933 0.0
O233 O 0.55846 0.54346 0.2609 0.0
O234 O 0.58998 0.57624 0.24699 0.0
C235 C 0.58537 0.5955 0.15535 0.0
O236 O 0.59272 0.60097 0.18091 0.0
O237 O 0.5598 0.59064 0.14863 0.0
O238 O 0.61925 0.66238 0.28148 0.0
O239 O 0.60426 0.69634 0.252 0.0
O240 O 0.64324 0.62198 0.23011 0.0
C241 C 0.61597 0.6885 0.27513 0.0
O242 O 0.62796 0.65278 0.19733 0.0
O243 O 0.55269 0.67503 0.19315 0.0
C244 C 0.64624 0.63519 0.20652 0.0
O245 O 0.5329 0.63193 0.19281 0.0
O246 O 0.53369 0.60754 0.25877 0.0
O247 O 0.56688 0.61697 0.2916 0.0
C248 C 0.32609 0.47856 0.01475 0.0
C249 C 0.27763 0.52802 0.07469 0.0
C250 C 0.31299 0.46417 0.15748 0.0
Mg251 Mg 0.26909 0.47139 0.04575 0.0
O252 O 0.29443 0.45282 0.07 0.0
Mg253 Mg 0.32529 0.4762 0.08689 0.0
Mg254 Mg 0.27834 0.43452 0.10383 0.0
O255 O 0.2606 0.41722 0.13775 0.0
Mg256 Mg 0.28061 0.40592 0.1692 0.0
Mg257 Mg 0.23435 0.39053 0.11844 0.0
C258 C 0.23435 0.41455 0.05603 0.0
C259 C 0.2139 0.4561 0.11256 0.0
O260 O 0.33918 0.48041 0.03871 0.0
O261 O 0.29926 0.47571 0.01293 0.0
O262 O 0.30054 0.51718 0.08373 0.0
O263 O 0.25957 0.51316 0.06131 0.0
O264 O 0.23741 0.43812 0.0429 0.0
O265 O 0.25114 0.40676 0.07595 0.0
C266 C 0.34274 0.41087 0.09508 0.0
O267 O 0.31714 0.40377 0.10063 0.0
O268 O 0.34966 0.43632 0.09005 0.0
O269 O 0.21669 0.37813 0.1623 0.0
O270 O 0.2458 0.39396 0.19627 0.0
O271 O 0.26791 0.35379 0.12227 0.0
C272 C 0.22283 0.38195 0.18841 0.0
O273 O 0.30044 0.36896 0.1534 0.0
O274 O 0.30523 0.4445 0.17454 0.0
C275 C 0.29128 0.35063 0.13585 0.0
O276 O 0.30574 0.4639 0.13123 0.0
O277 O 0.2395 0.46329 0.10694 0.0
O278 O 0.20672 0.43021 0.11671 0.0
C279 C 0.82491 0.01903 0.98228 0.0
C280 C 0.77845 0.96966 0.92131 0.0
C281 C 0.81537 0.03687 0.83989 0.0
Mg282 Mg 0.76831 0.02601 0.95046 0.0
O283 O 0.79392 0.04519 0.92688 0.0
Mg284 Mg 0.82536 0.02245 0.91019 0.0
Mg285 Mg 0.77815 0.06352 0.89291 0.0
O286 O 0.76051 0.08086 0.8586 0.0
Mg287 Mg 0.78256 0.09549 0.82983 0.0
Mg288 Mg 0.73261 0.10595 0.87813 0.0
C289 C 0.73295 0.08241 0.94043 0.0
C290 C 0.71468 0.03979 0.8835 0.0
O291 O 0.83842 0.0177 0.95854 0.0
O292 O 0.79802 0.0216 0.9837 0.0
O293 O 0.80121 0.98098 0.91253 0.0
O294 O 0.75991 0.98413 0.93449 0.0
O295 O 0.73601 0.05884 0.95358 0.0
O296 O 0.74973 0.09015 0.92055 0.0
C297 C 0.84205 0.08809 0.90332 0.0
O298 O 0.81646 0.09502 0.89736 0.0
O299 O 0.84914 0.06262 0.90807 0.0
O300 O 0.71564 0.1185 0.8341 0.0
O301 O 0.74946 0.11078 0.80161 0.0
O302 O 0.76374 0.14453 0.87572 0.0
C303 C 0.72455 0.11899 0.80854 0.0
O304 O 0.80098 0.1313 0.84948 0.0
O305 O 0.80832 0.05751 0.82361 0.0
C306 C 0.7884 0.1491 0.86532 0.0
O307 O 0.80656 0.03534 0.86561 0.0
O308 O 0.7405 0.03356 0.88907 0.0
O309 O 0.70652 0.06534 0.8792 0.0
C310 C 0.67282 0.98153 0.48242 0.0
C311 C 0.72201 0.02997 0.42304 0.0
C312 C 0.68554 0.96655 0.33956 0.0
Mg313 Mg 0.72947 0.97283 0.45126 0.0
O314 O 0.7036 0.95499 0.42705 0.0
Mg315 Mg 0.67338 0.9792 0.41022 0.0
Mg316 Mg 0.71922 0.9362 0.39325 0.0
O317 O 0.73665 0.91835 0.35938 0.0
Mg318 Mg 0.71639 0.90727 0.32801 0.0
Mg319 Mg 0.76229 0.89111 0.37883 0.0
C320 C 0.7627 0.91516 0.44089 0.0
C321 C 0.78422 0.95608 0.38504 0.0
O322 O 0.65968 0.98375 0.45851 0.0
O323 O 0.69955 0.97787 0.48413 0.0
O324 O 0.69898 0.01968 0.41368 0.0
O325 O 0.73979 0.01454 0.43616 0.0
O326 O 0.76039 0.93884 0.45401 0.0
O327 O 0.74558 0.9078 0.42113 0.0
C328 C 0.65421 0.91428 0.40205 0.0
O329 O 0.67961 0.90648 0.39646 0.0
O330 O 0.64804 0.93995 0.40702 0.0
O331 O 0.77986 0.87819 0.33501 0.0
O332 O 0.75099 0.89435 0.301 0.0
O333 O 0.72808 0.85518 0.37505 0.0
C334 C 0.77376 0.88195 0.30888 0.0
O335 O 0.69571 0.87082 0.34401 0.0
O336 O 0.6928 0.94655 0.32264 0.0
C337 C 0.70461 0.85239 0.36159 0.0
O338 O 0.69268 0.96628 0.36583 0.0
O339 O 0.75874 0.96394 0.39028 0.0
O340 O 0.79085 0.93005 0.38087 0.0
C341 C 0.17384 0.51694 0.51468 0.0
C342 C 0.22188 0.46764 0.5753 0.0
C343 C 0.18596 0.53003 0.65791 0.0
Mg344 Mg 0.23034 0.5244 0.54647 0.0
O345 O 0.20464 0.54275 0.57049 0.0
Mg346 Mg 0.17373 0.51909 0.58686 0.0
Mg347 Mg 0.22018 0.56103 0.60462 0.0
O348 O 0.23747 0.57819 0.63885 0.0
Mg349 Mg 0.21724 0.5887 0.67043 0.0
Mg350 Mg 0.26382 0.60517 0.62014 0.0
C351 C 0.2647 0.58143 0.5575 0.0
C352 C 0.28474 0.53988 0.61367 0.0
O353 O 0.16052 0.51484 0.53848 0.0
O354 O 0.20065 0.52006 0.51318 0.0
O355 O 0.19881 0.47828 0.58419 0.0
O356 O 0.23985 0.48259 0.56191 0.0
O357 O 0.26184 0.55786 0.54431 0.0
O358 O 0.24765 0.58918 0.57723 0.0
C359 C 0.15578 0.58441 0.59489 0.0
O360 O 0.18123 0.59162 0.60098 0.0
O361 O 0.14914 0.5589 0.58966 0.0
O362 O 0.2811 0.61721 0.66442 0.0
O363 O 0.25178 0.60066 0.69783 0.0
O364 O 0.22985 0.64143 0.62412 0.0
C365 C 0.27473 0.61295 0.69041 0.0
O366 O 0.19714 0.62568 0.65479 0.0
O367 O 0.19365 0.54935 0.6754 0.0
C368 C 0.20632 0.64426 0.6375 0.0
O369 O 0.19246 0.53137 0.63151 0.0
O370 O 0.25919 0.53244 0.6081 0.0
O371 O 0.29172 0.56578 0.61802 0.0
C372 C 0.81172 0.77187 0.62041 0.0
C373 C 0.87041 0.71115 0.65176 0.0
C374 C 0.9427 0.76827 0.58021 0.0
Mg375 Mg 0.83478 0.71419 0.59805 0.0
O376 O 0.8622 0.7373 0.58241 0.0
Mg377 Mg 0.88122 0.76632 0.60654 0.0
Mg378 Mg 0.89625 0.72137 0.56328 0.0
O379 O 0.9299 0.70711 0.54315 0.0
Mg380 Mg 0.9529 0.7327 0.52356 0.0
Mg381 Mg 0.91373 0.6748 0.52146 0.0
C382 C 0.84392 0.68161 0.53905 0.0
C383 C 0.9124 0.65891 0.58743 0.0
O384 O 0.83692 0.78172 0.61957 0.0
O385 O 0.8056 0.74658 0.61284 0.0
O386 O 0.88014 0.73587 0.64609 0.0
O387 O 0.85528 0.69727 0.6343 0.0
O388 O 0.82834 0.6878 0.5605 0.0
O389 O 0.869 0.69181 0.53621 0.0
C390 C 0.88369 0.7844 0.54019 0.0
O391 O 0.88946 0.75878 0.53347 0.0
O392 O 0.88036 0.79225 0.56595 0.0
O393 O 0.96199 0.66313 0.51482 0.0
O394 O 0.98681 0.70351 0.51981 0.0
O395 O 0.91319 0.69862 0.47978 0.0
C396 C 0.98563 0.67667 0.51678 0.0
O397 O 0.93587 0.73964 0.48173 0.0
O398 O 0.95512 0.7653 0.5562 0.0
C399 C 0.92181 0.72119 0.46796 0.0
O400 O 0.92386 0.7508 0.58905 0.0
O401 O 0.9042 0.68377 0.59454 0.0
O402 O 0.91571 0.65175 0.56178 0.0
C403 C 0.68881 0.22704 0.12058 0.0
C404 C 0.63238 0.29306 0.14858 0.0
C405 C 0.55705 0.23381 0.08306 0.0
Mg406 Mg 0.66795 0.28385 0.09498 0.0
O407 O 0.63861 0.2616 0.08184 0.0
Mg408 Mg 0.619 0.23511 0.10825 0.0
Mg409 Mg 0.60447 0.27849 0.06372 0.0
O410 O 0.57067 0.29383 0.04465 0.0
Mg411 Mg 0.54711 0.26806 0.02578 0.0
Mg412 Mg 0.58739 0.32487 0.02142 0.0
C413 C 0.65756 0.31491 0.03561 0.0
C414 C 0.5942 0.34292 0.08673 0.0
O415 O 0.66305 0.21875 0.12144 0.0
O416 O 0.69606 0.25119 0.11072 0.0
O417 O 0.62098 0.26859 0.14539 0.0
O418 O 0.64911 0.30371 0.13033 0.0
O419 O 0.67408 0.30838 0.05623 0.0
O420 O 0.63184 0.30607 0.03459 0.0
C421 C 0.61441 0.21408 0.04279 0.0
O422 O 0.60857 0.23952 0.03528 0.0
O423 O 0.61849 0.20725 0.06879 0.0
O424 O 0.53914 0.33796 0.01639 0.0
O425 O 0.51389 0.29773 0.02093 0.0
O426 O 0.58512 0.30001 0.98041 0.0
C427 C 0.51537 0.32455 0.01797 0.0
O428 O 0.56316 0.25881 0.98407 0.0
O429 O 0.54429 0.2365 0.05921 0.0
C430 C 0.57643 0.27708 0.96937 0.0
O431 O 0.57652 0.251 0.09108 0.0
O432 O 0.6 0.31747 0.09412 0.0
O433 O 0.58953 0.34957 0.06113 0.0
C434 C 0.30875 0.72322 0.38146 0.0
C435 C 0.36296 0.79087 0.35072 0.0
C436 C 0.44095 0.73314 0.41542 0.0
Mg437 Mg 0.32861 0.78084 0.40548 0.0
O438 O 0.35948 0.76021 0.41729 0.0
Mg439 Mg 0.3788 0.73367 0.39078 0.0
Mg440 Mg 0.39338 0.77762 0.435 0.0
O441 O 0.42714 0.7934 0.45367 0.0
Mg442 Mg 0.45137 0.76803 0.47215 0.0
Mg443 Mg 0.4103 0.82426 0.47708 0.0
C444 C 0.33993 0.81294 0.46404 0.0
C445 C 0.40282 0.84207 0.41168 0.0
O446 O 0.33477 0.71654 0.37796 0.0
O447 O 0.3012 0.74644 0.39319 0.0
O448 O 0.37587 0.76714 0.35386 0.0
O449 O 0.34543 0.80043 0.36885 0.0
O450 O 0.32309 0.80562 0.44399 0.0
O451 O 0.36597 0.805 0.46439 0.0
C452 C 0.3839 0.71332 0.4565 0.0
O453 O 0.38963 0.73887 0.46371 0.0
O454 O 0.37991 0.70608 0.43058 0.0
O455 O 0.45843 0.83797 0.48156 0.0
O456 O 0.48423 0.79816 0.47637 0.0
O457 O 0.41335 0.79945 0.51812 0.0
C458 C 0.48239 0.82495 0.47945 0.0
O459 O 0.43586 0.75857 0.5139 0.0
O460 O 0.45403 0.73622 0.43903 0.0
C461 C 0.42255 0.77658 0.52889 0.0
O462 O 0.42128 0.75013 0.40745 0.0
O463 O 0.39725 0.81654 0.40437 0.0
O464 O 0.4075 0.84882 0.43727 0.0
C465 C 0.1906 0.27268 0.88242 0.0
C466 C 0.13763 0.20374 0.85221 0.0
C467 C 0.05824 0.26217 0.91428 0.0
Mg468 Mg 0.17086 0.21543 0.90731 0.0
O469 O 0.13965 0.23593 0.91825 0.0
Mg470 Mg 0.12051 0.2616 0.89077 0.0
Mg471 Mg 0.10563 0.21863 0.93589 0.0
O472 O 0.07162 0.20318 0.95438 0.0
Mg473 Mg 0.04731 0.22916 0.97195 0.0
Mg474 Mg 0.08812 0.17299 0.9788 0.0
C475 C 0.15891 0.18452 0.96644 0.0
C476 C 0.0969 0.15367 0.91399 0.0
O477 O 0.16457 0.279 0.8783 0.0
O478 O 0.19816 0.24981 0.89479 0.0
O479 O 0.12438 0.22734 0.85474 0.0
O480 O 0.15498 0.1948 0.87084 0.0
O481 O 0.17581 0.19165 0.94639 0.0
O482 O 0.13275 0.19212 0.96641 0.0
C483 C 0.11391 0.28357 0.95579 0.0
O484 O 0.10848 0.25814 0.9636 0.0
O485 O 0.1183 0.29016 0.92977 0.0
O486 O 0.0397 0.15947 0.98277 0.0
O487 O 0.01426 0.19941 0.97673 0.0
O488 O 0.08438 0.19877 0.01917 0.0
C489 C 0.01585 0.17268 0.98033 0.0
O490 O 0.06218 0.23967 0.01372 0.0
O491 O 0.04491 0.25995 0.93785 0.0
C492 C 0.07512 0.2219 0.02931 0.0
O493 O 0.07805 0.24501 0.90717 0.0
O494 O 0.10258 0.17902 0.9062 0.0
O495 O 0.09168 0.14756 0.93964 0.0
C496 C 0.62022 0.80647 0.76923 0.0
C497 C 0.65087 0.86545 0.70794 0.0
C498 C 0.58288 0.93709 0.76862 0.0
Mg499 Mg 0.59688 0.83034 0.71234 0.0
O500 O 0.58239 0.85787 0.73603 0.0
Mg501 Mg 0.60776 0.87615 0.76454 0.0
Mg502 Mg 0.56431 0.89269 0.72064 0.0
O503 O 0.54525 0.92708 0.70724 0.0
Mg504 Mg 0.52564 0.94747 0.7351 0.0
Mg505 Mg 0.52222 0.91254 0.67508 0.0
C506 C 0.53745 0.84172 0.68107 0.0
C507 C 0.58773 0.90652 0.65703 0.0
O508 O 0.62019 0.83164 0.7791 0.0
O509 O 0.61183 0.80056 0.74412 0.0
O510 O 0.64615 0.87501 0.73293 0.0
O511 O 0.63295 0.85035 0.69465 0.0
O512 O 0.55852 0.82548 0.68687 0.0
O513 O 0.53558 0.86688 0.69128 0.0
C514 C 0.54197 0.88027 0.78406 0.0
O515 O 0.53501 0.88669 0.75864 0.0
O516 O 0.56775 0.87593 0.7914 0.0
O517 O 0.51721 0.96197 0.66571 0.0
O518 O 0.52161 0.9827 0.70847 0.0
O519 O 0.48081 0.91307 0.69934 0.0
C520 C 0.51933 0.98416 0.6816 0.0
O521 O 0.48363 0.93125 0.74239 0.0
O522 O 0.55855 0.94906 0.76711 0.0
C523 C 0.46926 0.91982 0.72267 0.0
O524 O 0.59135 0.91916 0.75005 0.0
O525 O 0.59512 0.89905 0.68207 0.0
O526 O 0.56218 0.91197 0.65075 0.0
C527 C 0.882 0.18818 0.27593 0.0
C528 C 0.84868 0.1343 0.2102 0.0
C529 C 0.91528 0.05601 0.26447 0.0
Mg530 Mg 0.9039 0.16808 0.21728 0.0
O531 O 0.91713 0.13778 0.23798 0.0
Mg532 Mg 0.89158 0.11833 0.26539 0.0
Mg533 Mg 0.93443 0.10389 0.22001 0.0
O534 O 0.9526 0.07013 0.20368 0.0
Mg535 Mg 0.97165 0.0461 0.22888 0.0
Mg536 Mg 0.97547 0.0871 0.1725 0.0
C537 C 0.96184 0.15721 0.18364 0.0
C538 C 0.90978 0.095 0.15602 0.0
O539 O 0.8796 0.16218 0.28305 0.0
O540 O 0.89222 0.1957 0.25198 0.0
O541 O 0.85325 0.12188 0.23393 0.0
O542 O 0.86648 0.15115 0.19899 0.0
O543 O 0.94153 0.17368 0.19113 0.0
O544 O 0.96317 0.1314 0.19217 0.0
C545 C 0.95771 0.11254 0.28385 0.0
O546 O 0.9642 0.10704 0.25806 0.0
O547 O 0.93204 0.11672 0.29171 0.0
O548 O 0.97978 0.03902 0.15863 0.0
O549 O 0.97591 0.01333 0.19868 0.0
O550 O 0.017 0.08395 0.19657 0.0
C551 C 0.97839 0.01512 0.17182 0.0
O552 O 0.01353 0.06176 0.2377 0.0
O553 O 0.93885 0.0429 0.26109 0.0
C554 C 0.02818 0.07491 0.21932 0.0
O555 O 0.90736 0.07599 0.24786 0.0
O556 O 0.90297 0.10052 0.18172 0.0
O557 O 0.93518 0.09008 0.14876 0.0
C558 C 0.11529 0.68959 0.22383 0.0
C559 C 0.14649 0.63569 0.29171 0.0
C560 C 0.08342 0.55713 0.23359 0.0
Mg561 Mg 0.0914 0.66946 0.28139 0.0
O562 O 0.08009 0.63844 0.26085 0.0
Mg563 Mg 0.10686 0.6195 0.23432 0.0
Mg564 Mg 0.06267 0.60434 0.27811 0.0
O565 O 0.04433 0.57029 0.29349 0.0
Mg566 Mg 0.0262 0.5463 0.26752 0.0
Mg567 Mg 0.02055 0.58674 0.32427 0.0
C568 C 0.03264 0.65757 0.31292 0.0
C569 C 0.08571 0.59472 0.34268 0.0
O570 O 0.11918 0.66363 0.21718 0.0
O571 O 0.10341 0.69697 0.24702 0.0
O572 O 0.14353 0.62275 0.26797 0.0
O573 O 0.12812 0.65305 0.30116 0.0
O574 O 0.05253 0.67455 0.30557 0.0
O575 O 0.03289 0.63138 0.30553 0.0
C576 C 0.04131 0.61375 0.2137 0.0
O577 O 0.0341 0.60792 0.23923 0.0
O578 O 0.0672 0.61799 0.20655 0.0
O579 O 0.01632 0.5384 0.33739 0.0
O580 O 0.02181 0.51311 0.29728 0.0
O581 O 0.97994 0.58395 0.29892 0.0
C582 C 0.01861 0.51461 0.32409 0.0
O583 O 0.9844 0.56185 0.25782 0.0
O584 O 0.05987 0.54382 0.23609 0.0
C585 C 0.96936 0.57515 0.27581 0.0
O586 O 0.09071 0.5769 0.25073 0.0
O587 O 0.09311 0.60064 0.31724 0.0
O588 O 0.06015 0.5896 0.34921 0.0
C589 C 0.38335 0.3075 0.72338 0.0
C590 C 0.35267 0.36068 0.79198 0.0
C591 C 0.41509 0.43984 0.73334 0.0
Mg592 Mg 0.40798 0.32766 0.78069 0.0
O593 O 0.41888 0.35878 0.76001 0.0
Mg594 Mg 0.39137 0.37773 0.73419 0.0
Mg595 Mg 0.43628 0.39287 0.77737 0.0
O596 O 0.45464 0.42687 0.793 0.0
Mg597 Mg 0.47234 0.45121 0.76716 0.0
Mg598 Mg 0.47903 0.41032 0.8233 0.0
C599 C 0.46689 0.33981 0.81196 0.0
C600 C 0.41415 0.40138 0.84239 0.0
O601 O 0.37922 0.33347 0.71686 0.0
O602 O 0.39559 0.30016 0.7464 0.0
O603 O 0.35523 0.37383 0.76832 0.0
O604 O 0.37135 0.34348 0.80108 0.0
O605 O 0.44693 0.32278 0.80487 0.0
O606 O 0.46684 0.36584 0.80402 0.0
C607 C 0.45638 0.3848 0.7124 0.0
O608 O 0.4641 0.39023 0.73788 0.0
O609 O 0.43042 0.38013 0.70575 0.0
O610 O 0.48297 0.45849 0.837 0.0
O611 O 0.4768 0.48411 0.79718 0.0
O612 O 0.51962 0.41429 0.79781 0.0
C613 C 0.48047 0.48236 0.82392 0.0
O614 O 0.5143 0.43668 0.75699 0.0
O615 O 0.43867 0.45311 0.73579 0.0
C616 C 0.52987 0.42378 0.77481 0.0
O617 O 0.4075 0.42039 0.75071 0.0
O618 O 0.40644 0.39577 0.81697 0.0
O619 O 0.43975 0.40664 0.84864 0.0
C620 C 0.77404 0.62051 0.80977 0.0
C621 C 0.71027 0.64997 0.8668 0.0
C622 C 0.76642 0.58232 0.9413 0.0
Mg623 Mg 0.71633 0.59653 0.83113 0.0
O624 O 0.73869 0.58174 0.85961 0.0
Mg625 Mg 0.76638 0.60695 0.8793 0.0
Mg626 Mg 0.72118 0.56403 0.89376 0.0
O627 O 0.70529 0.54544 0.92754 0.0
Mg628 Mg 0.73052 0.52632 0.95146 0.0
Mg629 Mg 0.67391 0.52271 0.91072 0.0
C630 C 0.68373 0.53773 0.84072 0.0
C631 C 0.65709 0.58838 0.904 0.0
O632 O 0.78307 0.61994 0.8353 0.0
O633 O 0.74917 0.61216 0.80287 0.0
O634 O 0.73497 0.64545 0.87718 0.0
O635 O 0.69776 0.63215 0.85094 0.0
O636 O 0.69052 0.55865 0.82471 0.0
O637 O 0.69299 0.53566 0.86626 0.0
C638 C 0.78492 0.54085 0.88401 0.0
O639 O 0.7592 0.53435 0.88979 0.0
O640 O 0.79274 0.56652 0.87984 0.0
O641 O 0.66045 0.51798 0.95892 0.0
O642 O 0.70056 0.52215 0.9845 0.0
O643 O 0.6981 0.4811 0.91334 0.0
C644 C 0.6737 0.5195 0.98281 0.0
O645 O 0.7392 0.48456 0.93564 0.0
O646 O 0.76299 0.55876 0.95435 0.0
C647 C 0.72085 0.46992 0.92242 0.0
O648 O 0.74954 0.59058 0.92167 0.0
O649 O 0.68272 0.59535 0.89829 0.0
O650 O 0.64999 0.56289 0.9085 0.0
C651 C 0.27401 0.88173 0.19012 0.0
C652 C 0.2051 0.85199 0.13674 0.0
C653 C 0.26409 0.91386 0.0575 0.0
Mg654 Mg 0.21681 0.90695 0.17027 0.0
O655 O 0.2373 0.91758 0.13893 0.0
Mg656 Mg 0.26316 0.89024 0.11993 0.0
Mg657 Mg 0.22007 0.93507 0.10479 0.0
O658 O 0.20472 0.95356 0.07071 0.0
Mg659 Mg 0.23073 0.97151 0.04665 0.0
Mg660 Mg 0.17417 0.97763 0.0872 0.0
C661 C 0.18629 0.96614 0.15814 0.0
C662 C 0.15516 0.91279 0.09548 0.0
O663 O 0.28041 0.8777 0.16409 0.0
O664 O 0.25112 0.89413 0.19759 0.0
O665 O 0.22879 0.85443 0.1236 0.0
O666 O 0.19613 0.87059 0.15411 0.0
O667 O 0.19364 0.94651 0.17544 0.0
O668 O 0.19304 0.96518 0.13179 0.0
C669 C 0.28501 0.9552 0.1136 0.0
O670 O 0.25955 0.96302 0.10809 0.0
O671 O 0.29162 0.92919 0.11793 0.0
O672 O 0.16088 0.98187 0.03883 0.0
O673 O 0.20093 0.97617 0.01347 0.0
O674 O 0.19972 0.01796 0.0843 0.0
C675 C 0.17414 0.97957 0.01501 0.0
O676 O 0.24072 0.01331 0.06207 0.0
O677 O 0.26178 0.93747 0.04425 0.0
C678 C 0.22283 0.02843 0.07542 0.0
O679 O 0.2469 0.90665 0.07727 0.0
O680 O 0.18054 0.90511 0.10135 0.0
O681 O 0.14893 0.93838 0.09025 0.0
C682 C 0.22558 0.11624 0.68866 0.0
C683 C 0.29351 0.14635 0.63445 0.0
C684 C 0.23506 0.08226 0.55639 0.0
Mg685 Mg 0.28304 0.09166 0.6688 0.0
O686 O 0.26234 0.08009 0.63786 0.0
Mg687 Mg 0.23598 0.1068 0.61859 0.0
Mg688 Mg 0.27948 0.06222 0.60387 0.0
O689 O 0.29493 0.04338 0.57003 0.0
Mg690 Mg 0.26902 0.02488 0.54633 0.0
Mg691 Mg 0.32566 0.01975 0.5868 0.0
C692 C 0.31481 0.03289 0.65729 0.0
C693 C 0.34399 0.08503 0.59398 0.0
O694 O 0.21901 0.11974 0.66261 0.0
O695 O 0.24868 0.10429 0.69628 0.0
O696 O 0.26977 0.14337 0.62151 0.0
O697 O 0.30293 0.12816 0.652 0.0
O698 O 0.3076 0.05293 0.67419 0.0
O699 O 0.30684 0.03269 0.63125 0.0
C700 C 0.21499 0.04137 0.61344 0.0
O701 O 0.24047 0.03393 0.60762 0.0
O702 O 0.20805 0.06734 0.61754 0.0
O703 O 0.33888 0.01477 0.53857 0.0
O704 O 0.29872 0.01965 0.5132 0.0
O705 O 0.30038 0.97901 0.58426 0.0
C706 C 0.32553 0.01644 0.51476 0.0
O707 O 0.25913 0.98344 0.56242 0.0
O708 O 0.23772 0.05853 0.54345 0.0
C709 C 0.27722 0.9684 0.57558 0.0
O710 O 0.25217 0.08999 0.57606 0.0
O711 O 0.31854 0.09247 0.59983 0.0
O712 O 0.35055 0.05941 0.58922 0.0
C713 C 0.72491 0.38162 0.30838 0.0
C714 C 0.79377 0.35222 0.36193 0.0
C715 C 0.73536 0.41522 0.44043 0.0
Mg716 Mg 0.78222 0.40684 0.32793 0.0
O717 O 0.7616 0.41829 0.35892 0.0
Mg718 Mg 0.73591 0.39108 0.37839 0.0
Mg719 Mg 0.77889 0.43631 0.39279 0.0
O720 O 0.79438 0.45517 0.42661 0.0
Mg721 Mg 0.76843 0.47293 0.4508 0.0
Mg722 Mg 0.82459 0.47939 0.40987 0.0
C723 C 0.81318 0.46613 0.33932 0.0
C724 C 0.84395 0.41449 0.40172 0.0
O725 O 0.71853 0.37801 0.33447 0.0
O726 O 0.74784 0.39381 0.30069 0.0
O727 O 0.77015 0.35506 0.37509 0.0
O728 O 0.8028 0.37056 0.34434 0.0
O729 O 0.80616 0.44586 0.32262 0.0
O730 O 0.80534 0.46651 0.3654 0.0
C731 C 0.71389 0.4561 0.3842 0.0
O732 O 0.73933 0.46397 0.3896 0.0
O733 O 0.70731 0.43005 0.38008 0.0
O734 O 0.83825 0.48386 0.45815 0.0
O735 O 0.79831 0.47814 0.4837 0.0
O736 O 0.79893 0.51993 0.41359 0.0
C737 C 0.82505 0.4818 0.48202 0.0
O738 O 0.75801 0.51463 0.4358 0.0
O739 O 0.73759 0.43889 0.45357 0.0
C740 C 0.77588 0.53018 0.42298 0.0
O741 O 0.75251 0.40796 0.42067 0.0
O742 O 0.81857 0.40664 0.39616 0.0
O743 O 0.85004 0.44019 0.40662 0.0
H744 H 0.04324 0.50855 0.37602 0.0
H745 H 0.06483 0.34147 0.36332 0.0
H746 H 0.00867 0.4605 0.30672 0.0
H747 H 0.11499 0.39592 0.41623 0.0
H748 H 0.04263 0.3835 0.34224 0.0
H749 H 0.06517 0.46547 0.39415 0.0
C750 C 0.03948 0.48879 0.36512 0.0
C751 C 0.02411 0.48816 0.33982 0.0
C752 C 0.05894 0.38621 0.35805 0.0
C753 C 0.05 0.43889 0.35985 0.0
C754 C 0.072 0.36225 0.36962 0.0
C755 C 0.09178 0.36532 0.39145 0.0
C756 C 0.06563 0.41315 0.36871 0.0
C757 C 0.09983 0.39271 0.39939 0.0
C758 C 0.05251 0.46427 0.37513 0.0
C759 C 0.02043 0.46194 0.32629 0.0
N760 N 0.08642 0.4155 0.3884 0.0
N761 N 0.03346 0.43839 0.33634 0.0
H762 H 0.38184 0.60064 0.91631 0.0
H763 H 0.49374 0.53612 0.80814 0.0
H764 H 0.43684 0.65352 0.8668 0.0
H765 H 0.45335 0.48852 0.87444 0.0
H766 H 0.47194 0.57928 0.82645 0.0
H767 H 0.40351 0.55892 0.89528 0.0
C768 C 0.39781 0.60342 0.90014 0.0
C769 C 0.4075 0.6305 0.89313 0.0
C770 C 0.46823 0.55948 0.83727 0.0
C771 C 0.43335 0.58283 0.86991 0.0
C772 C 0.48095 0.5349 0.82708 0.0
C773 C 0.47543 0.50869 0.83988 0.0
C774 C 0.4495 0.55777 0.86013 0.0
C775 C 0.45847 0.50827 0.86413 0.0
C776 C 0.41059 0.5796 0.88859 0.0
C777 C 0.42853 0.63299 0.87244 0.0
N778 N 0.44575 0.53238 0.8732 0.0
N779 N 0.44109 0.60937 0.86178 0.0
H780 H 0.54456 0.02854 0.70761 0.0
H781 H 0.53242 0.13865 0.58412 0.0
H782 H 0.50797 0.00421 0.62752 0.0
H783 H 0.61016 0.13021 0.63073 0.0
H784 H 0.51373 0.09692 0.60809 0.0
H785 H 0.55914 0.07314 0.68712 0.0
C786 C 0.53905 0.03266 0.68578 0.0
C787 C 0.52479 0.0124 0.66925 0.0
C788 C 0.53464 0.10453 0.61344 0.0
C789 C 0.54156 0.06392 0.64598 0.0
C790 C 0.54522 0.12841 0.60012 0.0
C791 C 0.57271 0.13798 0.60589 0.0
C792 C 0.55149 0.0904 0.63308 0.0
C793 C 0.58862 0.12392 0.6264 0.0
C794 C 0.54771 0.05813 0.67417 0.0
C795 C 0.5188 0.01913 0.64103 0.0
N796 N 0.57772 0.10068 0.6394 0.0
N797 N 0.52709 0.04452 0.63027 0.0
H798 H 0.87733 0.89432 0.08544 0.0
H799 H 0.99404 0.96174 0.18663 0.0
H800 H 0.93671 0.84301 0.13146 0.0
H801 H 0.94825 0.00831 0.12314 0.0
H802 H 0.97207 0.91807 0.16981 0.0
H803 H 0.89883 0.93663 0.10547 0.0
C804 C 0.89421 0.89199 0.10075 0.0
C805 C 0.90517 0.8652 0.107 0.0
C806 C 0.9672 0.93776 0.15926 0.0
C807 C 0.93084 0.91356 0.12893 0.0
C808 C 0.98001 0.96263 0.16857 0.0
C809 C 0.97307 0.98869 0.15614 0.0
C810 C 0.94694 0.93902 0.13768 0.0
C811 C 0.95451 0.98869 0.13307 0.0
C812 C 0.90689 0.91615 0.11167 0.0
C813 C 0.9274 0.86329 0.12648 0.0
N814 N 0.94176 0.9643 0.12487 0.0
N815 N 0.93984 0.88724 0.13649 0.0
H816 H 0.30954 0.00179 0.46134 0.0
H817 H 0.41383 0.11552 0.3941 0.0
H818 H 0.37542 0.0444 0.5076 0.0
H819 H 0.36693 0.05728 0.34231 0.0
H820 H 0.39352 0.09403 0.43628 0.0
H821 H 0.32698 0.02316 0.41757 0.0
C822 C 0.32822 0.01498 0.46214 0.0
C823 C 0.34114 0.02123 0.48816 0.0
C824 C 0.38722 0.0862 0.41572 0.0
C825 C 0.36036 0.04668 0.43839 0.0
C826 C 0.39833 0.09886 0.39164 0.0
C827 C 0.39186 0.08825 0.36475 0.0
C828 C 0.36953 0.06262 0.41297 0.0
C829 C 0.3721 0.06631 0.36268 0.0
C830 C 0.3379 0.02744 0.43722 0.0
C831 C 0.36503 0.0387 0.48803 0.0
N832 N 0.36185 0.0539 0.38656 0.0
N833 N 0.37359 0.05116 0.46361 0.0
H834 H 0.1903 0.99255 0.96122 0.0
H835 H 0.08243 0.88069 0.89601 0.0
H836 H 0.12374 0.95222 0.0085 0.0
H837 H 0.13249 0.93541 0.84337 0.0
H838 H 0.10314 0.90241 0.93789 0.0
H839 H 0.17229 0.97065 0.91795 0.0
C840 C 0.17138 0.97974 0.96235 0.0
C841 C 0.15841 0.97432 0.98852 0.0
C842 C 0.11002 0.90942 0.91723 0.0
C843 C 0.13847 0.94825 0.93928 0.0
C844 C 0.09866 0.8966 0.89332 0.0
C845 C 0.10591 0.90617 0.86624 0.0
C846 C 0.1288 0.9321 0.91412 0.0
C847 C 0.12666 0.92716 0.86389 0.0
C848 C 0.16135 0.96697 0.9377 0.0
C849 C 0.13418 0.95731 0.9888 0.0
N850 N 0.13716 0.93975 0.8876 0.0
N851 N 0.12526 0.94455 0.96463 0.0
H852 H 0.81008 0.49853 0.53504 0.0
H853 H 0.90873 0.38101 0.60433 0.0
H854 H 0.87385 0.4521 0.48951 0.0
H855 H 0.86597 0.44323 0.65504 0.0
H856 H 0.88929 0.40268 0.56179 0.0
H857 H 0.82676 0.47734 0.57921 0.0
C858 C 0.82821 0.48456 0.53449 0.0
C859 C 0.84076 0.47721 0.50858 0.0
C860 C 0.88366 0.41134 0.5822 0.0
C861 C 0.85899 0.4519 0.55881 0.0
C862 C 0.89421 0.39858 0.60651 0.0
C863 C 0.88864 0.41018 0.63318 0.0
C864 C 0.86744 0.43602 0.58453 0.0
C865 C 0.8703 0.43337 0.63487 0.0
C866 C 0.83743 0.47219 0.55964 0.0
C867 C 0.86385 0.4587 0.509 0.0
N868 N 0.86057 0.44581 0.61077 0.0
N869 N 0.87192 0.44632 0.53366 0.0
H870 H 0.68937 0.50511 0.03638 0.0
H871 H 0.58363 0.61801 0.1032 0.0
H872 H 0.62392 0.54787 0.9896 0.0
H873 H 0.63147 0.56054 0.15502 0.0
H874 H 0.60441 0.59691 0.06104 0.0
H875 H 0.67161 0.52651 0.08 0.0
C876 C 0.67074 0.51836 0.03542 0.0
C877 C 0.65801 0.52461 0.00931 0.0
C878 C 0.61081 0.58916 0.0816 0.0
C879 C 0.63839 0.55009 0.05895 0.0
C880 C 0.59942 0.60161 0.10567 0.0
C881 C 0.60602 0.59109 0.13257 0.0
C882 C 0.62891 0.56588 0.08436 0.0
C883 C 0.62618 0.5695 0.13465 0.0
C884 C 0.66087 0.53084 0.06027 0.0
C885 C 0.63416 0.54216 0.00925 0.0
N886 N 0.63669 0.55728 0.11077 0.0
N887 N 0.6254 0.55461 0.03362 0.0
H888 H 0.39461 0.41149 0.11833 0.0
H889 H 0.46196 0.30873 0.00311 0.0
H890 H 0.34293 0.36563 0.05916 0.0
H891 H 0.50817 0.37396 0.04672 0.0
H892 H 0.41819 0.32581 0.02481 0.0
H893 H 0.43681 0.39122 0.09678 0.0
C894 C 0.39217 0.39618 0.10148 0.0
C895 C 0.36531 0.39002 0.09061 0.0
C896 C 0.43783 0.33667 0.02924 0.0
C897 C 0.41355 0.36778 0.0649 0.0
C898 C 0.46275 0.3272 0.01659 0.0
C899 C 0.48875 0.34006 0.02301 0.0
C900 C 0.43899 0.35883 0.04885 0.0
C901 C 0.48861 0.36366 0.04087 0.0
C902 C 0.41627 0.38512 0.08877 0.0
C903 C 0.36327 0.37053 0.06841 0.0
N904 N 0.46419 0.372 0.05351 0.0
N905 N 0.38716 0.36034 0.05596 0.0
H906 H 0.00919 0.1221 0.95337 0.0
H907 H 0.84129 0.13364 0.93903 0.0
H908 H 0.96214 0.189 0.99347 0.0
H909 H 0.8946 0.08723 0.88172 0.0
H910 H 0.88383 0.15366 0.96128 0.0
H911 H 0.96537 0.10505 0.9319 0.0
C912 C 0.98951 0.13261 0.95847 0.0
C913 C 0.98932 0.15696 0.97527 0.0
C914 C 0.88615 0.1396 0.9434 0.0
C915 C 0.93922 0.13825 0.94996 0.0
C916 C 0.86188 0.12869 0.93033 0.0
C917 C 0.86451 0.10897 0.90839 0.0
C918 C 0.913 0.1303 0.93461 0.0
C919 C 0.89171 0.10255 0.89847 0.0
C920 C 0.96456 0.12326 0.94571 0.0
C921 C 0.96319 0.17012 0.98062 0.0
N922 N 0.91486 0.11275 0.91193 0.0
N923 N 0.93921 0.16074 0.96786 0.0
H924 H 0.65515 0.86535 0.43309 0.0
H925 H 0.48788 0.87706 0.45518 0.0
H926 H 0.60035 0.91927 0.38436 0.0
H927 H 0.5367 0.80812 0.48936 0.0
H928 H 0.53081 0.89579 0.43346 0.0
H929 H 0.61323 0.84398 0.4552 0.0
C930 C 0.63431 0.87185 0.42623 0.0
C931 C 0.63112 0.89403 0.40688 0.0
C932 C 0.53221 0.87672 0.446 0.0
C933 C 0.58342 0.8709 0.4329 0.0
C934 C 0.50777 0.86635 0.45889 0.0
C935 C 0.50867 0.84097 0.47407 0.0
C936 C 0.55776 0.8617 0.44844 0.0
C937 C 0.53505 0.82773 0.47772 0.0
C938 C 0.61042 0.8601 0.43923 0.0
C939 C 0.60366 0.90219 0.3992 0.0
N940 N 0.55851 0.8381 0.4648 0.0
N941 N 0.58094 0.89098 0.41253 0.0
H942 H 0.99159 0.62348 0.53842 0.0
H943 H 0.15802 0.63382 0.56455 0.0
H944 H 0.04 0.69521 0.5099 0.0
H945 H 0.10164 0.58027 0.6118 0.0
H946 H 0.11673 0.65646 0.54237 0.0
H947 H 0.03415 0.60428 0.56033 0.0
C948 C 0.01133 0.63479 0.53601 0.0
C949 C 0.01216 0.66104 0.52236 0.0
C950 C 0.11347 0.64014 0.55805 0.0
C951 C 0.06089 0.6396 0.54817 0.0
C952 C 0.13698 0.62765 0.57108 0.0
C953 C 0.13315 0.6052 0.59 0.0
C954 C 0.08621 0.62978 0.56389 0.0
C955 C 0.10546 0.59752 0.59727 0.0
C956 C 0.03555 0.6241 0.54901 0.0
C957 C 0.03838 0.67493 0.52033 0.0
N958 N 0.08312 0.60941 0.58389 0.0
N959 N 0.06167 0.66416 0.53328 0.0
H960 H 0.99193 0.50402 0.62617 0.0
H961 H 0.88559 0.63124 0.631 0.0
H962 H 0.94882 0.52531 0.7038 0.0
H963 H 0.9652 0.63929 0.5876 0.0
H964 H 0.90414 0.58901 0.65532 0.0
H965 H 0.97773 0.5504 0.60697 0.0
C966 C 0.97978 0.51839 0.63917 0.0
C967 C 0.9719 0.51086 0.66668 0.0
C968 C 0.91764 0.60048 0.64086 0.0
C969 C 0.95501 0.56301 0.64481 0.0
C970 C 0.90723 0.62473 0.62749 0.0
C971 C 0.92416 0.6389 0.60792 0.0
C972 C 0.94462 0.59013 0.63366 0.0
C973 C 0.95168 0.62893 0.60289 0.0
C974 C 0.97172 0.54474 0.62831 0.0
C975 C 0.95583 0.53026 0.6826 0.0
N976 N 0.96092 0.60486 0.61527 0.0
N977 N 0.94764 0.55521 0.67134 0.0
H978 H 0.50114 0.46243 0.18771 0.0
H979 H 0.61721 0.39482 0.08604 0.0
H980 H 0.54601 0.50873 0.12342 0.0
H981 H 0.5575 0.34338 0.1314 0.0
H982 H 0.59549 0.43708 0.10596 0.0
H983 H 0.52266 0.41863 0.17054 0.0
C984 C 0.51485 0.46324 0.1694 0.0
C985 C 0.52169 0.48927 0.15686 0.0
C986 C 0.58738 0.41658 0.11202 0.0
C987 C 0.54732 0.43944 0.138 0.0
C988 C 0.60017 0.39245 0.10115 0.0
C989 C 0.58924 0.36564 0.1073 0.0
C990 C 0.56334 0.41396 0.12914 0.0
C991 C 0.5668 0.36368 0.12652 0.0
C992 C 0.52741 0.43829 0.15989 0.0
C993 C 0.53984 0.48915 0.13347 0.0
N994 N 0.55428 0.38761 0.13653 0.0
N995 N 0.55237 0.46469 0.1251 0.0
H996 H 0.49464 0.96011 0.30764 0.0
H997 H 0.38088 0.89447 0.41305 0.0
H998 H 0.45296 0.00702 0.37367 0.0
H999 H 0.43831 0.84193 0.36596 0.0
H1000 H 0.40267 0.93631 0.39241 0.0
H1001 H 0.47288 0.91668 0.32537 0.0
C1002 C 0.48157 0.96113 0.32639 0.0
C1003 C 0.47572 0.98724 0.33929 0.0
C1004 C 0.41026 0.91567 0.38615 0.0
C1005 C 0.44981 0.93783 0.35886 0.0
C1006 C 0.39742 0.89177 0.39745 0.0
C1007 C 0.40772 0.86475 0.39103 0.0
C1008 C 0.43369 0.91261 0.36827 0.0
C1009 C 0.42951 0.86239 0.37111 0.0
C1010 C 0.46889 0.93639 0.33625 0.0
C1011 C 0.45837 0.98738 0.36329 0.0
N1012 N 0.44209 0.88609 0.36065 0.0
N1013 N 0.44569 0.96313 0.37202 0.0
H1014 H 0.06578 0.15459 0.86512 0.0
H1015 H 0.0434 0.98753 0.87727 0.0
H1016 H 0.11473 0.09988 0.91893 0.0
H1017 H 0.0084 0.03641 0.80879 0.0
H1018 H 0.06537 0.03039 0.89584 0.0
H1019 H 0.04339 0.11272 0.84401 0.0
C1020 C 0.07264 0.13377 0.87163 0.0
C1021 C 0.09211 0.1306 0.89372 0.0
C1022 C 0.05259 0.03182 0.87692 0.0
C1023 C 0.06576 0.08295 0.87091 0.0
C1024 C 0.03954 0.00742 0.86667 0.0
C1025 C 0.02408 0.00838 0.84144 0.0
C1026 C 0.05002 0.05736 0.86193 0.0
C1027 C 0.02025 0.03475 0.82829 0.0
C1028 C 0.05947 0.10991 0.86004 0.0
C1029 C 0.09979 0.10317 0.9019 0.0
N1030 N 0.03334 0.05815 0.83853 0.0
N1031 N 0.08629 0.08047 0.89086 0.0
H1032 H 0.62175 0.95551 0.48918 0.0
H1033 H 0.63408 0.94128 0.65717 0.0
H1034 H 0.68929 0.99477 0.53605 0.0
H1035 H 0.58514 0.88574 0.60429 0.0
H1036 H 0.65415 0.9631 0.61443 0.0
H1037 H 0.60427 0.93469 0.53312 0.0
C1038 C 0.63232 0.96055 0.50884 0.0
C1039 C 0.65698 0.9769 0.50895 0.0
C1040 C 0.63948 0.9457 0.61224 0.0
C1041 C 0.63777 0.95233 0.55919 0.0
C1042 C 0.62853 0.93288 0.63662 0.0
C1043 C 0.60816 0.91156 0.63415 0.0
C1044 C 0.62957 0.93727 0.58548 0.0
C1045 C 0.60098 0.90201 0.60702 0.0
C1046 C 0.62272 0.94817 0.53387 0.0
C1047 C 0.67019 0.98223 0.53506 0.0
N1048 N 0.61128 0.9152 0.58379 0.0
N1049 N 0.66057 0.96981 0.5591 0.0
H1050 H 0.90901 0.11966 0.10486 0.0
H1051 H 0.80944 0.00296 0.03541 0.0
H1052 H 0.8656 0.05783 0.15543 0.0
H1053 H 0.87349 0.04905 0.98999 0.0
H1054 H 0.82596 0.02432 0.07957 0.0
H1055 H 0.88907 0.09848 0.0623 0.0
C1056 C 0.89425 0.1023 0.10701 0.0
C1057 C 0.88871 0.0906 0.13364 0.0
C1058 C 0.83669 0.02938 0.06002 0.0
C1059 C 0.86691 0.06533 0.08496 0.0
C1060 C 0.82755 0.01693 0.03487 0.0
C1061 C 0.84025 0.0241 0.009 0.0
C1062 C 0.85834 0.04956 0.05922 0.0
C1063 C 0.86336 0.04259 0.00945 0.0
C1064 C 0.88341 0.08981 0.08269 0.0
C1065 C 0.86998 0.06773 0.13529 0.0
N1066 N 0.87136 0.05502 0.0341 0.0
N1067 N 0.86 0.05553 0.11118 0.0
H1068 H 0.18992 0.50342 0.46099 0.0
H1069 H 0.08365 0.61644 0.39518 0.0
H1070 H 0.12376 0.54484 0.50797 0.0
H1071 H 0.13196 0.55991 0.34276 0.0
H1072 H 0.10432 0.5948 0.43712 0.0
H1073 H 0.17214 0.52521 0.41756 0.0
C1074 C 0.17113 0.51645 0.46202 0.0
C1075 C 0.1582 0.5222 0.48815 0.0
C1076 C 0.11084 0.58738 0.41649 0.0
C1077 C 0.13857 0.54815 0.43873 0.0
C1078 C 0.09952 0.60014 0.39254 0.0
C1079 C 0.10629 0.59006 0.36551 0.0
C1080 C 0.12908 0.56423 0.41348 0.0
C1081 C 0.12654 0.56856 0.36322 0.0
C1082 C 0.16125 0.52915 0.43728 0.0
C1083 C 0.13416 0.5395 0.4883 0.0
N1084 N 0.137 0.55605 0.38698 0.0
N1085 N 0.12539 0.55219 0.46405 0.0
H1086 H 0.31071 0.49263 0.96103 0.0
H1087 H 0.41726 0.37988 0.89495 0.0
H1088 H 0.37589 0.45007 0.00835 0.0
H1089 H 0.36734 0.43539 0.84296 0.0
H1090 H 0.39672 0.40127 0.93708 0.0
H1091 H 0.32854 0.47085 0.91765 0.0
C1092 C 0.32931 0.47934 0.96216 0.0
C1093 C 0.34194 0.47327 0.98836 0.0
C1094 C 0.38982 0.40851 0.91651 0.0
C1095 C 0.36165 0.44735 0.93896 0.0
C1096 C 0.40109 0.39589 0.89246 0.0
C1097 C 0.39381 0.40578 0.86549 0.0
C1098 C 0.37116 0.43134 0.91366 0.0
C1099 C 0.37316 0.4269 0.86338 0.0
C1100 C 0.33922 0.46664 0.93744 0.0
C1101 C 0.36575 0.45566 0.98863 0.0
N1102 N 0.36279 0.43931 0.88723 0.0
N1103 N 0.37456 0.443 0.96437 0.0
H1104 H 0.60573 0.58942 0.87969 0.0
H1105 H 0.53627 0.68702 0.99813 0.0
H1106 H 0.65641 0.63168 0.94229 0.0
H1107 H 0.49086 0.62352 0.95128 0.0
H1108 H 0.58046 0.67066 0.97667 0.0
H1109 H 0.56318 0.6087 0.90151 0.0
C1110 C 0.60791 0.6038 0.89737 0.0
C1111 C 0.6346 0.60924 0.90904 0.0
C1112 C 0.56091 0.65999 0.97148 0.0
C1113 C 0.58588 0.63028 0.93505 0.0
C1114 C 0.53574 0.66903 0.984 0.0
C1115 C 0.50985 0.65645 0.97665 0.0
C1116 C 0.56012 0.63859 0.95102 0.0
C1117 C 0.51032 0.63354 0.9579 0.0
C1118 C 0.58358 0.61426 0.91023 0.0
C1119 C 0.63625 0.62743 0.93237 0.0
N1120 N 0.53499 0.62566 0.94539 0.0
N1121 N 0.61213 0.63706 0.94488 0.0
H1122 H 0.98765 0.87719 0.04514 0.0
H1123 H 0.15542 0.86482 0.06302 0.0
H1124 H 0.03577 0.80974 0.00722 0.0
H1125 H 0.10188 0.91697 0.11494 0.0
H1126 H 0.11297 0.8442 0.04119 0.0
H1127 H 0.03105 0.89511 0.06671 0.0
C1128 C 0.00748 0.8667 0.04057 0.0
C1129 C 0.00808 0.84195 0.02435 0.0
C1130 C 0.11056 0.85973 0.0578 0.0
C1131 C 0.0577 0.86169 0.04981 0.0
C1132 C 0.13476 0.87102 0.07065 0.0
C1133 C 0.13206 0.8925 0.09085 0.0
C1134 C 0.08372 0.8703 0.06513 0.0
C1135 C 0.1048 0.90037 0.09947 0.0
C1136 C 0.03219 0.87657 0.05338 0.0
C1137 C 0.03438 0.82889 0.01965 0.0
N1138 N 0.08175 0.88965 0.08628 0.0
N1139 N 0.0581 0.83876 0.03249 0.0
H1140 H 0.39747 0.08212 0.61307 0.0
H1141 H 0.45925 0.19453 0.50432 0.0
H1142 H 0.34257 0.13254 0.56085 0.0
H1143 H 0.50657 0.12421 0.53778 0.0
H1144 H 0.41647 0.17576 0.52656 0.0
H1145 H 0.43839 0.10389 0.59068 0.0
C1146 C 0.39409 0.09858 0.59753 0.0
C1147 C 0.36667 0.10563 0.58881 0.0
C1148 C 0.43613 0.16424 0.52864 0.0
C1149 C 0.41342 0.1298 0.56219 0.0
C1150 C 0.4605 0.17472 0.51569 0.0
C1151 C 0.4866 0.16094 0.51923 0.0
C1152 C 0.43798 0.14007 0.54562 0.0
C1153 C 0.48697 0.13548 0.53432 0.0
C1154 C 0.41744 0.11058 0.58435 0.0
C1155 C 0.3634 0.1268 0.56836 0.0
N1156 N 0.46315 0.12614 0.54735 0.0
N1157 N 0.38659 0.13796 0.55541 0.0
H1158 H 0.84303 0.36503 0.43202 0.0
H1159 H 0.0102 0.37653 0.45515 0.0
H1160 H 0.89795 0.41998 0.38466 0.0
H1161 H 0.96157 0.30649 0.48719 0.0
H1162 H 0.96727 0.39568 0.43376 0.0
H1163 H 0.88492 0.34325 0.45389 0.0
C1164 C 0.8639 0.37171 0.42542 0.0
C1165 C 0.86712 0.39428 0.40654 0.0
C1166 C 0.96591 0.37627 0.44575 0.0
C1167 C 0.91477 0.37065 0.43229 0.0
C1168 C 0.99035 0.36564 0.45846 0.0
C1169 C 0.98951 0.33985 0.47294 0.0
C1170 C 0.94041 0.3611 0.44768 0.0
C1171 C 0.96317 0.32641 0.47609 0.0
C1172 C 0.88776 0.35971 0.43829 0.0
C1173 C 0.8946 0.40262 0.39916 0.0
N1174 N 0.93971 0.33705 0.46337 0.0
N1175 N 0.91729 0.39115 0.41235 0.0
H1176 H 0.18258 0.34074 0.18304 0.0
H1177 H 0.14084 0.34925 0.34605 0.0
H1178 H 0.21744 0.39988 0.24304 0.0
H1179 H 0.13251 0.27289 0.29712 0.0
H1180 H 0.1545 0.37462 0.30334 0.0
H1181 H 0.15193 0.32189 0.22032 0.0
C1182 C 0.18355 0.34999 0.20395 0.0
C1183 C 0.20286 0.37168 0.21008 0.0
C1184 C 0.1491 0.35246 0.30181 0.0
C1185 C 0.16756 0.35058 0.25245 0.0
C1186 C 0.14109 0.33801 0.3261 0.0
C1187 C 0.13613 0.30883 0.32512 0.0
C1188 C 0.15226 0.33759 0.27639 0.0
C1189 C 0.13636 0.29536 0.29874 0.0
C1190 C 0.16606 0.33922 0.22514 0.0
C1191 C 0.20319 0.38289 0.23749 0.0
N1192 N 0.14497 0.30975 0.27539 0.0
N1193 N 0.18587 0.37216 0.25766 0.0
H1194 H 0.36787 0.72321 0.79877 0.0
H1195 H 0.27962 0.59383 0.74461 0.0
H1196 H 0.35667 0.64682 0.84702 0.0
H1197 H 0.31478 0.6546 0.68654 0.0
H1198 H 0.31024 0.6123 0.7817 0.0
H1199 H 0.35308 0.6977 0.75611 0.0
C1200 C 0.36333 0.70084 0.80019 0.0
C1201 C 0.36294 0.68719 0.82647 0.0
C1202 C 0.31155 0.62142 0.76077 0.0
C1203 C 0.3453 0.65824 0.77822 0.0
C1204 C 0.29388 0.61101 0.73964 0.0
C1205 C 0.29444 0.62288 0.71254 0.0
C1206 C 0.32954 0.64431 0.75499 0.0
C1207 C 0.31362 0.6449 0.70721 0.0
C1208 C 0.35461 0.68635 0.77591 0.0
C1209 C 0.35668 0.65825 0.8272 0.0
N1210 N 0.3301 0.65523 0.72838 0.0
N1211 N 0.34752 0.6449 0.80357 0.0
H1212 H 0.64859 0.23815 0.69535 0.0
H1213 H 0.66818 0.1095 0.80012 0.0
H1214 H 0.61198 0.15803 0.67287 0.0
H1215 H 0.73858 0.15805 0.76891 0.0
H1216 H 0.63714 0.13348 0.76573 0.0
H1217 H 0.66992 0.21611 0.7371 0.0
C1218 C 0.64381 0.21627 0.69999 0.0
C1219 C 0.62845 0.19983 0.68073 0.0
C1220 C 0.65938 0.13881 0.7666 0.0
C1221 C 0.653 0.1746 0.728 0.0
C1222 C 0.67704 0.12515 0.78598 0.0
C1223 C 0.70598 0.1316 0.78693 0.0
C1224 C 0.67062 0.1598 0.74903 0.0
C1225 C 0.71648 0.15218 0.76845 0.0
C1226 C 0.6564 0.20364 0.72348 0.0
C1227 C 0.62366 0.17133 0.68727 0.0
N1228 N 0.69873 0.1658 0.75044 0.0
N1229 N 0.63612 0.15945 0.71031 0.0
H1230 H 0.85697 0.84839 0.15174 0.0
H1231 H 0.8134 0.8401 0.31438 0.0
H1232 H 0.86462 0.7719 0.20051 0.0
H1233 H 0.77936 0.89943 0.25412 0.0
H1234 H 0.84395 0.82075 0.27722 0.0
H1235 H 0.84241 0.8736 0.19427 0.0
C1236 C 0.85639 0.8371 0.17164 0.0
C1237 C 0.86151 0.80793 0.1726 0.0
C1238 C 0.83 0.8382 0.27232 0.0
C1239 C 0.84429 0.83651 0.22115 0.0
C1240 C 0.81257 0.84927 0.29343 0.0
C1241 C 0.79356 0.87121 0.28722 0.0
C1242 C 0.82875 0.84953 0.24497 0.0
C1243 C 0.79339 0.88228 0.25976 0.0
C1244 C 0.84785 0.85144 0.19583 0.0
C1245 C 0.86075 0.79437 0.19892 0.0
N1246 N 0.81067 0.87129 0.23966 0.0
N1247 N 0.85164 0.80868 0.22217 0.0
H1248 H 0.34582 0.13045 0.3487 0.0
H1249 H 0.24656 0.22084 0.39885 0.0
H1250 H 0.29747 0.13466 0.27165 0.0
H1251 H 0.18686 0.1817 0.34212 0.0
H1252 H 0.2833 0.18969 0.38087 0.0
H1253 H 0.30431 0.14582 0.37516 0.0
C1254 C 0.32615 0.13383 0.33748 0.0
C1255 C 0.32508 0.13172 0.30795 0.0
C1256 C 0.26203 0.18734 0.37281 0.0
C1257 C 0.2781 0.1509 0.33778 0.0
C1258 C 0.24111 0.20547 0.38281 0.0
C1259 C 0.21361 0.20395 0.37193 0.0
C1260 C 0.25556 0.16765 0.35154 0.0
C1261 C 0.20779 0.18354 0.35115 0.0
C1262 C 0.30263 0.14311 0.35251 0.0
C1263 C 0.29911 0.13614 0.29442 0.0
N1264 N 0.22872 0.16648 0.34127 0.0
N1265 N 0.27668 0.14617 0.3094 0.0
H1266 H 0.20044 0.86854 0.77178 0.0
H1267 H 0.31714 0.81779 0.84636 0.0
H1268 H 0.15406 0.85347 0.84872 0.0
H1269 H 0.25256 0.77428 0.8938 0.0
H1270 H 0.28096 0.84898 0.82674 0.0
H1271 H 0.24377 0.85365 0.79567 0.0
C1272 C 0.1996 0.86323 0.79402 0.0
C1273 C 0.17362 0.86177 0.80818 0.0
C1274 C 0.27471 0.83254 0.84132 0.0
C1275 C 0.22289 0.84445 0.83561 0.0
C1276 C 0.29537 0.8148 0.85271 0.0
C1277 C 0.28783 0.79303 0.87145 0.0
C1278 C 0.24632 0.82855 0.84885 0.0
C1279 C 0.25934 0.79042 0.87911 0.0
C1280 C 0.22436 0.85459 0.80769 0.0
C1281 C 0.17363 0.8544 0.8369 0.0
N1282 N 0.23966 0.80792 0.86774 0.0
N1283 N 0.19774 0.84537 0.84946 0.0
H1284 H 0.72447 0.25571 0.66099 0.0
H1285 H 0.82903 0.37608 0.65331 0.0
H1286 H 0.6966 0.32603 0.61029 0.0
H1287 H 0.79949 0.35035 0.73549 0.0
H1288 H 0.78546 0.35705 0.63232 0.0
H1289 H 0.75909 0.28676 0.68402 0.0
C1290 C 0.72592 0.2776 0.65453 0.0
C1291 C 0.70794 0.2884 0.63368 0.0
C1292 C 0.78819 0.35651 0.65504 0.0
C1293 C 0.74726 0.32368 0.65964 0.0
C1294 C 0.81281 0.36755 0.66702 0.0
C1295 C 0.81764 0.36492 0.69616 0.0
C1296 C 0.76907 0.3419 0.67227 0.0
C1297 C 0.79634 0.3531 0.713 0.0
C1298 C 0.74531 0.2953 0.66786 0.0
C1299 C 0.71025 0.31703 0.62629 0.0
N1300 N 0.77334 0.34113 0.70069 0.0
N1301 N 0.72997 0.3337 0.63895 0.0
H1302 H 0.70031 0.63048 0.22702 0.0
H1303 H 0.75391 0.71643 0.09611 0.0
H1304 H 0.65272 0.63843 0.14974 0.0
H1305 H 0.8124 0.68315 0.15761 0.0
H1306 H 0.71726 0.68559 0.115 0.0
H1307 H 0.74298 0.64523 0.2015 0.0
C1308 C 0.69907 0.63426 0.20448 0.0
C1309 C 0.67294 0.63375 0.19053 0.0
C1310 C 0.7382 0.68472 0.1242 0.0
C1311 C 0.72117 0.65138 0.16155 0.0
C1312 C 0.75906 0.70252 0.11354 0.0
C1313 C 0.78615 0.70256 0.12548 0.0
C1314 C 0.7442 0.66722 0.14742 0.0
C1315 C 0.79174 0.68383 0.14784 0.0
C1316 C 0.72335 0.64297 0.18998 0.0
C1317 C 0.67242 0.63908 0.16137 0.0
N1318 N 0.7708 0.66723 0.15842 0.0
N1319 N 0.69601 0.64827 0.148 0.0
H1320 H 0.3443 0.17979 0.17887 0.0
H1321 H 0.27004 0.2972 0.12862 0.0
H1322 H 0.39197 0.24398 0.22271 0.0
H1323 H 0.34758 0.34272 0.14316 0.0
H1324 H 0.2935 0.2537 0.14374 0.0
H1325 H 0.32452 0.2162 0.14802 0.0
C1326 C 0.35066 0.20153 0.182 0.0
C1327 C 0.36954 0.20889 0.20374 0.0
C1328 C 0.30573 0.27296 0.14265 0.0
C1329 C 0.3468 0.25065 0.16859 0.0
C1330 C 0.29231 0.29781 0.13385 0.0
C1331 C 0.30679 0.3236 0.13506 0.0
C1332 C 0.3337 0.27417 0.1527 0.0
C1333 C 0.33553 0.3233 0.14239 0.0
C1334 C 0.33919 0.22231 0.16445 0.0
C1335 C 0.37719 0.23734 0.20657 0.0
N1336 N 0.34783 0.29912 0.15157 0.0
N1337 N 0.36578 0.25714 0.18922 0.0
H1338 H 0.84247 0.16535 0.87657 0.0
H1339 H 0.83846 0.26664 0.75356 0.0
H1340 H 0.76128 0.19668 0.84977 0.0
H1341 H 0.8883 0.29608 0.82391 0.0
H1342 H 0.81483 0.233 0.78523 0.0
H1343 H 0.86479 0.2078 0.85669 0.0
C1344 C 0.82927 0.1818 0.86767 0.0
C1345 C 0.80003 0.17778 0.86495 0.0
C1346 C 0.83099 0.24687 0.7936 0.0
C1347 C 0.82539 0.22495 0.84094 0.0
C1348 C 0.84468 0.26566 0.77556 0.0
C1349 C 0.86539 0.28384 0.78624 0.0
C1350 C 0.83871 0.24578 0.8222 0.0
C1351 C 0.87244 0.28221 0.81502 0.0
C1352 C 0.842 0.20575 0.85612 0.0
C1353 C 0.78384 0.19926 0.8526 0.0
N1354 N 0.85938 0.26313 0.83206 0.0
N1355 N 0.79685 0.22156 0.84013 0.0
H1356 H 0.65148 0.68133 0.32048 0.0
H1357 H 0.72509 0.79891 0.37044 0.0
H1358 H 0.60423 0.74509 0.27554 0.0
H1359 H 0.64834 0.84494 0.3533 0.0
H1360 H 0.70145 0.75533 0.35605 0.0
H1361 H 0.67065 0.71801 0.35138 0.0
C1362 C 0.64507 0.70302 0.31713 0.0
C1363 C 0.62654 0.7102 0.29503 0.0
C1364 C 0.68941 0.77474 0.35641 0.0
C1365 C 0.64862 0.75227 0.33021 0.0
C1366 C 0.70293 0.79966 0.36476 0.0
C1367 C 0.68878 0.82558 0.36258 0.0
C1368 C 0.66163 0.77599 0.34584 0.0
C1369 C 0.66017 0.82541 0.35478 0.0
C1370 C 0.6562 0.72397 0.3347 0.0
C1371 C 0.61878 0.7386 0.29195 0.0
N1372 N 0.64775 0.80114 0.34606 0.0
N1373 N 0.6299 0.75855 0.30928 0.0
H1374 H 0.15281 0.81545 0.67849 0.0
H1375 H 0.22705 0.69777 0.62941 0.0
H1376 H 0.10484 0.75179 0.72272 0.0
H1377 H 0.15001 0.65188 0.64537 0.0
H1378 H 0.20332 0.74135 0.64375 0.0
H1379 H 0.17247 0.77872 0.64795 0.0
C1380 C 0.14634 0.79376 0.68176 0.0
C1381 C 0.12745 0.78664 0.70356 0.0
C1382 C 0.19125 0.72197 0.64316 0.0
C1383 C 0.1501 0.7445 0.6688 0.0
C1384 C 0.20483 0.69706 0.63483 0.0
C1385 C 0.19059 0.67117 0.63666 0.0
C1386 C 0.16333 0.72075 0.65335 0.0
C1387 C 0.1619 0.67138 0.64416 0.0
C1388 C 0.15775 0.77279 0.6644 0.0
C1389 C 0.11964 0.75825 0.70655 0.0
N1390 N 0.14943 0.69565 0.65285 0.0
N1391 N 0.13104 0.73826 0.68942 0.0
H1392 H 0.83039 0.61123 0.80103 0.0
H1393 H 0.84882 0.7398 0.69593 0.0
H1394 H 0.75963 0.6597 0.77039 0.0
H1395 H 0.88534 0.65964 0.67334 0.0
H1396 H 0.82789 0.71785 0.73792 0.0
H1397 H 0.8611 0.63529 0.76644 0.0
C1398 C 0.82138 0.62689 0.78698 0.0
C1399 C 0.79244 0.63329 0.78814 0.0
C1400 C 0.84131 0.70536 0.72422 0.0
C1401 C 0.82742 0.66157 0.75 0.0
C1402 C 0.85366 0.71793 0.70059 0.0
C1403 C 0.86889 0.70145 0.68125 0.0
C1404 C 0.84481 0.67632 0.72879 0.0
C1405 C 0.87376 0.67296 0.68781 0.0
C1406 C 0.83886 0.64059 0.76748 0.0
C1407 C 0.78174 0.65388 0.76977 0.0
N1408 N 0.86155 0.66114 0.71099 0.0
N1409 N 0.79931 0.66753 0.75163 0.0
H1410 H 0.62748 0.34952 0.15646 0.0
H1411 H 0.72097 0.39855 0.25336 0.0
H1412 H 0.63592 0.27117 0.20196 0.0
H1413 H 0.68371 0.34117 0.31356 0.0
H1414 H 0.6893 0.38029 0.21713 0.0
H1415 H 0.64382 0.37504 0.1982 0.0
C1416 C 0.6319 0.33779 0.17561 0.0
C1417 C 0.63076 0.3082 0.17571 0.0
C1418 C 0.68752 0.37213 0.23841 0.0
C1419 C 0.65093 0.33705 0.22291 0.0
C1420 C 0.70593 0.38228 0.25902 0.0
C1421 C 0.70502 0.37138 0.28652 0.0
C1422 C 0.66819 0.35063 0.24518 0.0
C1423 C 0.68503 0.35027 0.29262 0.0
C1424 C 0.64174 0.3523 0.19922 0.0
C1425 C 0.6366 0.294 0.20105 0.0
N1426 N 0.6677 0.34023 0.27198 0.0
N1427 N 0.64708 0.30854 0.22357 0.0
H1428 H 0.2774 0.89898 0.24506 0.0
H1429 H 0.36694 0.84753 0.3444 0.0
H1430 H 0.31529 0.84123 0.18554 0.0
H1431 H 0.36077 0.77025 0.29674 0.0
H1432 H 0.35206 0.87397 0.30272 0.0
H1433 H 0.30816 0.88044 0.28186 0.0
C1434 C 0.29243 0.88259 0.23966 0.0
C1435 C 0.2937 0.87161 0.2122 0.0
C1436 C 0.35423 0.85127 0.30123 0.0
C1437 C 0.32955 0.85053 0.25422 0.0
C1438 C 0.36324 0.83624 0.32484 0.0
C1439 C 0.36469 0.80668 0.32402 0.0
C1440 C 0.34602 0.83654 0.27683 0.0
C1441 C 0.35982 0.79304 0.29818 0.0
C1442 C 0.31034 0.87227 0.26062 0.0
C1443 C 0.31366 0.85037 0.20644 0.0
N1444 N 0.35007 0.80806 0.27566 0.0
N1445 N 0.3305 0.84016 0.22741 0.0
H1446 H 0.14185 0.14698 0.84617 0.0
H1447 H 0.18502 0.15724 0.68355 0.0
H1448 H 0.13282 0.2237 0.79799 0.0
H1449 H 0.22089 0.09864 0.74348 0.0
H1450 H 0.15415 0.17566 0.7209 0.0
H1451 H 0.15695 0.12239 0.80345 0.0
C1452 C 0.14225 0.15844 0.82636 0.0
C1453 C 0.13663 0.18752 0.82564 0.0
C1454 C 0.16859 0.15858 0.72569 0.0
C1455 C 0.1544 0.15966 0.77688 0.0
C1456 C 0.18621 0.14805 0.70447 0.0
C1457 C 0.20581 0.12658 0.71053 0.0
C1458 C 0.17023 0.14717 0.75298 0.0
C1459 C 0.2064 0.11545 0.73796 0.0
C1460 C 0.15109 0.14446 0.80207 0.0
C1461 C 0.13711 0.2013 0.79942 0.0
N1462 N 0.18891 0.1259 0.75816 0.0
N1463 N 0.14649 0.18735 0.77607 0.0
H1464 H 0.79848 0.82585 0.60526 0.0
H1465 H 0.6987 0.85251 0.7364 0.0
H1466 H 0.77567 0.75947 0.66319 0.0
H1467 H 0.66788 0.87438 0.65353 0.0
H1468 H 0.74151 0.83299 0.7147 0.0
H1469 H 0.76277 0.8567 0.62749 0.0
C1470 C 0.7859 0.81785 0.62262 0.0
C1471 C 0.78951 0.79006 0.63224 0.0
C1472 C 0.72575 0.843 0.70145 0.0
C1473 C 0.75025 0.82534 0.65835 0.0
C1474 C 0.70159 0.85453 0.71379 0.0
C1475 C 0.67982 0.86503 0.69667 0.0
C1476 C 0.72834 0.8427 0.67196 0.0
C1477 C 0.6843 0.86648 0.66737 0.0
C1478 C 0.7658 0.83541 0.63527 0.0
C1479 C 0.77307 0.78064 0.65493 0.0
N1480 N 0.70804 0.85512 0.65582 0.0
N1481 N 0.75429 0.79837 0.66745 0.0
H1482 H 0.69548 0.17037 0.1122 0.0
H1483 H 0.79939 0.14432 0.2374 0.0
H1484 H 0.73072 0.24134 0.15707 0.0
H1485 H 0.83418 0.12795 0.15484 0.0
H1486 H 0.75656 0.16316 0.21492 0.0
H1487 H 0.73113 0.13943 0.13448 0.0
C1488 C 0.71069 0.17934 0.12676 0.0
C1489 C 0.71054 0.20839 0.13269 0.0
C1490 C 0.7732 0.15437 0.20189 0.0
C1491 C 0.74989 0.17329 0.1588 0.0
C1492 C 0.7974 0.14331 0.21462 0.0
C1493 C 0.82019 0.13455 0.19787 0.0
C1494 C 0.7717 0.15592 0.17237 0.0
C1495 C 0.81691 0.13445 0.16838 0.0
C1496 C 0.73078 0.16175 0.13941 0.0
C1497 C 0.73049 0.21912 0.15172 0.0
N1498 N 0.79316 0.14535 0.15646 0.0
N1499 N 0.74926 0.20147 0.16437 0.0
H1500 H 0.20039 0.63087 0.27089 0.0
H1501 H 0.2545 0.71825 0.40031 0.0
H1502 H 0.15332 0.63898 0.34846 0.0
H1503 H 0.31303 0.68321 0.33984 0.0
H1504 H 0.2177 0.68727 0.38186 0.0
H1505 H 0.24321 0.64573 0.29611 0.0
C1506 C 0.1993 0.63471 0.29343 0.0
C1507 C 0.17326 0.63427 0.30754 0.0
C1508 C 0.23868 0.68606 0.37281 0.0
C1509 C 0.22164 0.65199 0.33616 0.0
C1510 C 0.25962 0.70395 0.38319 0.0
C1511 C 0.28675 0.70349 0.37141 0.0
C1512 C 0.24469 0.668 0.35002 0.0
C1513 C 0.29232 0.68427 0.34947 0.0
C1514 C 0.22366 0.64347 0.30776 0.0
C1515 C 0.17293 0.63963 0.3367 0.0
N1516 N 0.27132 0.66759 0.33914 0.0
N1517 N 0.19659 0.64889 0.3499 0.0
H1518 H 0.2448 0.27793 0.90146 0.0
H1519 H 0.29853 0.36576 0.77176 0.0
H1520 H 0.18643 0.3124 0.84048 0.0
H1521 H 0.34634 0.35616 0.84872 0.0
H1522 H 0.2559 0.35066 0.79712 0.0
H1523 H 0.28162 0.30875 0.88289 0.0
C1524 C 0.23971 0.29208 0.88421 0.0
C1525 C 0.21261 0.29239 0.87232 0.0
C1526 C 0.27558 0.35262 0.80861 0.0
C1527 C 0.25474 0.32773 0.85078 0.0
C1528 C 0.29984 0.36151 0.79421 0.0
C1529 C 0.32602 0.36165 0.80808 0.0
C1530 C 0.27782 0.34367 0.83686 0.0
C1531 C 0.32661 0.35576 0.83713 0.0
C1532 C 0.26068 0.30987 0.87374 0.0
C1533 C 0.20711 0.31143 0.8502 0.0
N1534 N 0.30303 0.34642 0.8504 0.0
N1535 N 0.22813 0.32804 0.83981 0.0
H1536 H 0.65856 0.7665 0.75422 0.0
H1537 H 0.6563 0.66631 0.87853 0.0
H1538 H 0.60996 0.7968 0.82507 0.0
H1539 H 0.73706 0.69737 0.85029 0.0
H1540 H 0.63361 0.70842 0.85827 0.0
H1541 H 0.68241 0.73287 0.78581 0.0
C1542 C 0.65264 0.7657 0.77632 0.0
C1543 C 0.63223 0.78414 0.78715 0.0
C1544 C 0.65639 0.7064 0.85746 0.0
C1545 C 0.65917 0.74609 0.82302 0.0
C1546 C 0.66934 0.68265 0.86924 0.0
C1547 C 0.69857 0.67865 0.86626 0.0
C1548 C 0.67276 0.72541 0.84178 0.0
C1549 C 0.71453 0.69996 0.85336 0.0
C1550 C 0.66645 0.7469 0.7943 0.0
C1551 C 0.62558 0.78273 0.81604 0.0
N1552 N 0.7013 0.72204 0.8407 0.0
N1553 N 0.63876 0.76367 0.83303 0.0
H1554 H 0.22492 0.79788 0.13052 0.0
H1555 H 0.09626 0.74381 0.21937 0.0
H1556 H 0.14834 0.84597 0.14168 0.0
H1557 H 0.15648 0.68562 0.18331 0.0
H1558 H 0.11441 0.78084 0.18856 0.0
H1559 H 0.19946 0.7552 0.14517 0.0
C1560 C 0.20252 0.79926 0.13503 0.0
C1561 C 0.18881 0.8255 0.1355 0.0
C1562 C 0.12347 0.75989 0.18709 0.0
C1563 C 0.15993 0.77724 0.15295 0.0
C1564 C 0.11325 0.73881 0.20488 0.0
C1565 C 0.12508 0.7117 0.20412 0.0
C1566 C 0.14612 0.75405 0.16879 0.0
C1567 C 0.14683 0.70631 0.18463 0.0
C1568 C 0.18806 0.77497 0.14365 0.0
C1569 C 0.15982 0.82618 0.14165 0.0
N1570 N 0.157 0.72744 0.16804 0.0
N1571 N 0.1465 0.80254 0.15075 0.0
H1572 H 0.35031 0.15253 0.63126 0.0
H1573 H 0.40086 0.25264 0.72045 0.0
H1574 H 0.27297 0.20035 0.636 0.0
H1575 H 0.34327 0.31171 0.68162 0.0
H1576 H 0.38274 0.21562 0.68976 0.0
H1577 H 0.37663 0.19428 0.64613 0.0
C1578 C 0.33899 0.17213 0.63467 0.0
C1579 C 0.30943 0.17299 0.63283 0.0
C1580 C 0.37452 0.23681 0.68735 0.0
C1581 C 0.33913 0.22026 0.65145 0.0
C1582 C 0.3846 0.2579 0.70522 0.0
C1583 C 0.37353 0.2853 0.70368 0.0
C1584 C 0.35294 0.24301 0.66788 0.0
C1585 C 0.35247 0.29086 0.68347 0.0
C1586 C 0.35394 0.19579 0.64367 0.0
C1587 C 0.29576 0.19888 0.63728 0.0
N1588 N 0.34249 0.26977 0.66666 0.0
N1589 N 0.31069 0.22145 0.64703 0.0
H1590 H 0.77347 0.29872 0.37104 0.0
H1591 H 0.84802 0.18119 0.32235 0.0
H1592 H 0.85012 0.34492 0.3541 0.0
H1593 H 0.89304 0.24495 0.27525 0.0
H1594 H 0.82913 0.21803 0.35325 0.0
H1595 H 0.79736 0.25516 0.35686 0.0
C1596 C 0.79565 0.29951 0.36546 0.0
C1597 C 0.80971 0.32547 0.36323 0.0
C1598 C 0.84306 0.22394 0.33612 0.0
C1599 C 0.83709 0.27594 0.3467 0.0
C1600 C 0.85404 0.20292 0.31855 0.0
C1601 C 0.87183 0.21004 0.29585 0.0
C1602 C 0.8501 0.25226 0.33104 0.0
C1603 C 0.87907 0.2385 0.29215 0.0
C1604 C 0.80931 0.27462 0.35723 0.0
C1605 C 0.83836 0.32536 0.35558 0.0
N1606 N 0.86814 0.25853 0.30953 0.0
N1607 N 0.85088 0.30111 0.34691 0.0
H1608 H 0.13033 0.33569 0.51058 0.0
H1609 H 0.1897 0.42882 0.60367 0.0
H1610 H 0.21359 0.32689 0.4743 0.0
H1611 H 0.25505 0.43535 0.54045 0.0
H1612 H 0.17573 0.38342 0.58387 0.0
H1613 H 0.15031 0.36602 0.5472 0.0
C1614 C 0.1528 0.33983 0.51049 0.0
C1615 C 0.17011 0.32914 0.48896 0.0
C1616 C 0.19328 0.39462 0.57446 0.0
C1617 C 0.19349 0.36312 0.53134 0.0
C1618 C 0.2017 0.42033 0.58612 0.0
C1619 C 0.22278 0.43654 0.57288 0.0
C1620 C 0.20612 0.38521 0.54947 0.0
C1621 C 0.23814 0.42403 0.55087 0.0
C1622 C 0.16438 0.35685 0.53171 0.0
C1623 C 0.19921 0.33503 0.4901 0.0
N1624 N 0.22899 0.39943 0.53934 0.0
N1625 N 0.20984 0.35188 0.51063 0.0
H1626 H 0.24025 0.56079 0.0448 0.0
H1627 H 0.28477 0.68291 0.9828 0.0
H1628 H 0.31427 0.56627 0.09785 0.0
H1629 H 0.36701 0.65122 0.00632 0.0
H1630 H 0.26331 0.65299 0.01847 0.0
H1631 H 0.25194 0.60647 0.02476 0.0
C1632 C 0.2583 0.5721 0.05315 0.0
C1633 C 0.27681 0.55916 0.07231 0.0
C1634 C 0.28601 0.6524 0.01578 0.0
C1635 C 0.29062 0.61153 0.04922 0.0
C1636 C 0.29838 0.66952 0.9954 0.0
C1637 C 0.32774 0.66885 0.99087 0.0
C1638 C 0.30301 0.63412 0.03161 0.0
C1639 C 0.34429 0.65194 0.00866 0.0
C1640 C 0.2651 0.59832 0.04157 0.0
C1641 C 0.2998 0.57507 0.08247 0.0
N1642 N 0.33161 0.63488 0.02803 0.0
N1643 N 0.30665 0.59996 0.07004 0.0
H1644 H 0.70908 0.1621 0.53721 0.0
H1645 H 0.6872 0.06973 0.39932 0.0
H1646 H 0.63199 0.1615 0.48831 0.0
H1647 H 0.75733 0.06105 0.45701 0.0
H1648 H 0.67364 0.11334 0.42312 0.0
H1649 H 0.73187 0.13395 0.50111 0.0
C1650 C 0.69678 0.156 0.5189 0.0
C1651 C 0.66824 0.1638 0.51617 0.0
C1652 C 0.69241 0.10227 0.43009 0.0
C1653 C 0.69472 0.13148 0.47431 0.0
C1654 C 0.70044 0.0775 0.41631 0.0
C1655 C 0.72274 0.06097 0.427 0.0
C1656 C 0.70705 0.11067 0.45442 0.0
C1657 C 0.73949 0.07257 0.44851 0.0
C1658 C 0.71002 0.14005 0.49812 0.0
C1659 C 0.65384 0.15562 0.49157 0.0
N1660 N 0.73082 0.09632 0.46205 0.0
N1661 N 0.66716 0.13962 0.47169 0.0
H1662 H 0.78381 0.82639 0.02443 0.0
H1663 H 0.81594 0.932 0.89831 0.0
H1664 H 0.86647 0.8376 0.98742 0.0
H1665 H 0.74206 0.93611 0.95166 0.0
H1666 H 0.82847 0.88696 0.9199 0.0
H1667 H 0.76385 0.85679 0.98841 0.0
C1668 C 0.79789 0.83519 0.00871 0.0
C1669 C 0.82713 0.82986 0.00946 0.0
C1670 C 0.80915 0.8974 0.92635 0.0
C1671 C 0.80396 0.8647 0.9677 0.0
C1672 C 0.80174 0.92302 0.91384 0.0
C1673 C 0.77847 0.9385 0.92403 0.0
C1674 C 0.79292 0.88705 0.94881 0.0
C1675 C 0.76058 0.92536 0.94363 0.0
C1676 C 0.78632 0.85245 0.98799 0.0
C1677 C 0.84396 0.84148 0.98801 0.0
N1678 N 0.76857 0.9007 0.95591 0.0
N1679 N 0.83216 0.85866 0.96815 0.0
H1680 H 0.5493 0.25854 0.43204 0.0
H1681 H 0.51173 0.12918 0.33458 0.0
H1682 H 0.59921 0.18226 0.4295 0.0
H1683 H 0.472 0.21107 0.32868 0.0
H1684 H 0.54875 0.15014 0.36413 0.0
H1685 H 0.52779 0.24523 0.38729 0.0
C1686 C 0.55653 0.23949 0.42165 0.0
C1687 C 0.57516 0.22089 0.43528 0.0
C1688 C 0.53206 0.16353 0.35604 0.0
C1689 C 0.54985 0.20499 0.38448 0.0
C1690 C 0.51079 0.15149 0.33937 0.0
C1691 C 0.48833 0.16816 0.32957 0.0
C1692 C 0.53074 0.1924 0.36303 0.0
C1693 C 0.48852 0.19713 0.33613 0.0
C1694 C 0.54393 0.23166 0.39617 0.0
C1695 C 0.58412 0.1968 0.42032 0.0
N1696 N 0.50914 0.20819 0.35262 0.0
N1697 N 0.57064 0.189 0.39622 0.0
H1698 H 0.95297 0.74032 0.93658 0.0
H1699 H 0.98611 0.86681 0.83466 0.0
H1700 H 0.89957 0.81399 0.93054 0.0
H1701 H 0.02639 0.78513 0.82911 0.0
H1702 H 0.94991 0.84595 0.86528 0.0
H1703 H 0.97389 0.75253 0.89123 0.0
C1704 C 0.9449 0.75852 0.92532 0.0
C1705 C 0.92534 0.77679 0.93801 0.0
C1706 C 0.96652 0.83258 0.857 0.0
C1707 C 0.94992 0.79149 0.88655 0.0
C1708 C 0.98732 0.84457 0.83973 0.0
C1709 C 0.00974 0.82794 0.82977 0.0
C1710 C 0.96831 0.80384 0.86443 0.0
C1711 C 0.0099 0.79904 0.83668 0.0
C1712 C 0.95712 0.76572 0.89948 0.0
C1713 C 0.91536 0.7998 0.92203 0.0
N1714 N 0.98978 0.78807 0.85378 0.0
N1715 N 0.92845 0.80707 0.89759 0.0
H1716 H 0.09883 0.31043 0.56716 0.0
H1717 H 0.96286 0.28583 0.66149 0.0
H1718 H 0.04221 0.23943 0.55928 0.0
H1719 H 0.00887 0.36456 0.65887 0.0
H1720 H -0.00065 0.26383 0.63336 0.0
H1721 H 0.0753 0.32373 0.61102 0.0
C1722 C 0.08215 0.29696 0.57515 0.0
C1723 C 0.07161 0.27447 0.55878 0.0
C1724 C 0.00163 0.28588 0.63899 0.0
C1725 C 0.04459 0.28982 0.6088 0.0
C1726 C 0.98061 0.29866 0.65494 0.0
C1727 C 0.98238 0.32742 0.66215 0.0
C1728 C 0.02472 0.30184 0.62978 0.0
C1729 C 0.00635 0.34252 0.65343 0.0
C1730 C 0.06853 0.30484 0.60006 0.0
C1731 C 0.05054 0.25741 0.57067 0.0
N1732 N 0.02647 0.3296 0.63737 0.0
N1733 N 0.03718 0.2659 0.59459 0.0
H1734 H 0.48548 0.63163 0.16372 0.0
H1735 H 0.4527 0.75813 0.06203 0.0
H1736 H 0.52704 0.71268 0.16838 0.0
H1737 H 0.39862 0.68508 0.06881 0.0
H1738 H 0.47362 0.7461 0.10742 0.0
H1739 H 0.44899 0.65298 0.1338 0.0
C1740 C 0.48693 0.65383 0.15858 0.0
C1741 C 0.50975 0.67014 0.1681 0.0
C1742 C 0.45669 0.73302 0.09933 0.0
C1743 C 0.46799 0.69482 0.13425 0.0
C1744 C 0.44445 0.74014 0.07348 0.0
C1745 C 0.42479 0.72188 0.06094 0.0
C1746 C 0.44938 0.70737 0.11242 0.0
C1747 C 0.41455 0.69919 0.07718 0.0
C1748 C 0.46595 0.66611 0.14172 0.0
C1749 C 0.51021 0.69901 0.16114 0.0
N1750 N 0.42768 0.69196 0.10162 0.0
N1751 N 0.4899 0.71028 0.14444 0.0
H1752 H 0.43576 0.54527 0.2583 0.0
H1753 H 0.33527 0.51112 0.13064 0.0
H1754 H 0.42976 0.59857 0.18456 0.0
H1755 H 0.33026 0.47009 0.21199 0.0
H1756 H 0.36528 0.54759 0.1519 0.0
H1757 H 0.39084 0.52378 0.24559 0.0
C1758 C 0.42457 0.55322 0.23999 0.0
C1759 C 0.43722 0.57288 0.22182 0.0
C1760 C 0.35727 0.53074 0.16511 0.0
C1761 C 0.38627 0.54763 0.20654 0.0
C1762 C 0.34036 0.50978 0.15288 0.0
C1763 C 0.33066 0.48713 0.16931 0.0
C1764 C 0.36461 0.52888 0.19388 0.0
C1765 C 0.33759 0.48679 0.19822 0.0
C1766 C 0.39899 0.54065 0.23248 0.0
C1767 C 0.42131 0.58269 0.19868 0.0
N1768 N 0.35432 0.50709 0.20943 0.0
N1769 N 0.39714 0.56926 0.1911 0.0
H1770 H 0.83425 0.98739 0.86455 0.0
H1771 H 0.93878 0.95577 0.73855 0.0
H1772 H 0.837 0.03475 0.78662 0.0
H1773 H 0.93002 0.90104 0.81094 0.0
H1774 H 0.89436 0.97841 0.75108 0.0
H1775 H 0.86405 0.95116 0.8426 0.0
C1776 C 0.84106 0.99021 0.84291 0.0
C1777 C 0.83348 0.01446 0.82766 0.0
C1778 C 0.9018 0.96101 0.76392 0.0
C1779 C 0.86715 0.97295 0.80225 0.0
C1780 C 0.92708 0.94777 0.7565 0.0
C1781 C 0.93884 0.92731 0.77441 0.0
C1782 C 0.88845 0.95384 0.78948 0.0
C1783 C 0.92227 0.91748 0.79706 0.0
C1784 C 0.85783 0.96939 0.83027 0.0
C1785 C 0.84258 0.0167 0.79947 0.0
N1786 N 0.89839 0.9315 0.80455 0.0
N1787 N 0.85906 0.99641 0.78783 0.0
H1788 H 0.56274 0.04544 0.23854 0.0
H1789 H 0.66244 0.01312 0.36645 0.0
H1790 H 0.56747 0.09931 0.31198 0.0
H1791 H 0.67041 0.97357 0.28458 0.0
H1792 H 0.63243 0.04948 0.34497 0.0
H1793 H 0.60844 0.02548 0.25105 0.0
C1794 C 0.5738 0.05384 0.25673 0.0
C1795 C 0.56062 0.07314 0.27492 0.0
C1796 C 0.64112 0.03301 0.3317 0.0
C1797 C 0.61245 0.04964 0.28998 0.0
C1798 C 0.65803 0.01211 0.34404 0.0
C1799 C 0.66841 0.98981 0.32753 0.0
C1800 C 0.63448 0.03142 0.30273 0.0
C1801 C 0.66242 0.98992 0.29841 0.0
C1802 C 0.59984 0.04216 0.26411 0.0
C1803 C 0.57635 0.08362 0.29789 0.0
N1804 N 0.64563 0.01011 0.28709 0.0
N1805 N 0.60098 0.07099 0.30539 0.0
H1806 H 0.18286 0.51349 0.71267 0.0
H1807 H 0.06237 0.44754 0.75754 0.0
H1808 H 0.1515 0.4919 0.62981 0.0
H1809 H 0.06576 0.39939 0.68016 0.0
H1810 H 0.10718 0.46915 0.74536 0.0
H1811 H 0.15262 0.47762 0.73322 0.0
C1812 C 0.16941 0.50131 0.69873 0.0
C1813 C 0.16908 0.50639 0.66946 0.0
C1814 C 0.09882 0.45307 0.73146 0.0
C1815 C 0.13375 0.46542 0.69318 0.0
C1816 C 0.07309 0.44056 0.73856 0.0
C1817 C 0.05976 0.42223 0.71948 0.0
C1818 C 0.11127 0.44719 0.70509 0.0
C1819 C 0.07488 0.41398 0.69522 0.0
C1820 C 0.15205 0.48082 0.71059 0.0
C1821 C 0.15204 0.48912 0.65248 0.0
N1822 N 0.09935 0.42722 0.68825 0.0
N1823 N 0.13473 0.46962 0.66466 0.0
H1824 H 0.73971 0.56088 0.45645 0.0
H1825 H 0.86678 0.665 0.4879 0.0
H1826 H 0.8116 0.57017 0.40112 0.0
H1827 H 0.79158 0.65771 0.53905 0.0
H1828 H 0.84391 0.63607 0.45154 0.0
H1829 H 0.75328 0.60427 0.48039 0.0
C1830 C 0.75777 0.57253 0.4486 0.0
C1831 C 0.77523 0.56113 0.42754 0.0
C1832 C 0.83238 0.64106 0.47066 0.0
C1833 C 0.79149 0.61032 0.45556 0.0
C1834 C 0.84557 0.65733 0.49154 0.0
C1835 C 0.83135 0.66348 0.51682 0.0
C1836 C 0.80482 0.63084 0.47515 0.0
C1837 C 0.80364 0.65329 0.52013 0.0
C1838 C 0.7658 0.59718 0.46261 0.0
C1839 C 0.79804 0.57762 0.41797 0.0
N1840 N 0.79145 0.63739 0.4997 0.0
N1841 N 0.8061 0.60089 0.43268 0.0
H1842 H 0.75833 0.43696 0.95213 0.0
H1843 H 0.63144 0.33462 0.98718 0.0
H1844 H 0.6828 0.43175 0.90124 0.0
H1845 H 0.71133 0.33497 0.03131 0.0
H1846 H 0.65244 0.36454 0.95056 0.0
H1847 H 0.7458 0.39229 0.97421 0.0
C1848 C 0.73961 0.42601 0.94484 0.0
C1849 C 0.72098 0.43881 0.92567 0.0
C1850 C 0.66541 0.35777 0.96814 0.0
C1851 C 0.70598 0.3881 0.95159 0.0
C1852 C 0.65333 0.34089 0.98919 0.0
C1853 C 0.66939 0.33267 0.01271 0.0
C1854 C 0.6937 0.36654 0.97073 0.0
C1855 C 0.69786 0.3411 0.01389 0.0
C1856 C 0.73223 0.40058 0.95776 0.0
C1857 C 0.69733 0.42318 0.91669 0.0
N1858 N 0.70895 0.35773 0.99341 0.0
N1859 N 0.68998 0.3991 0.93041 0.0
H1860 H 0.23965 0.93607 0.54535 0.0
H1861 H 0.36633 0.83393 0.51182 0.0
H1862 H 0.31352 0.92956 0.59848 0.0
H1863 H 0.28573 0.83152 0.46904 0.0
H1864 H 0.34507 0.86386 0.54837 0.0
H1865 H 0.25187 0.89099 0.52392 0.0
C1866 C 0.25788 0.92474 0.55328 0.0
C1867 C 0.27627 0.93728 0.57283 0.0
C1868 C 0.33202 0.85644 0.53111 0.0
C1869 C 0.29097 0.88615 0.54766 0.0
C1870 C 0.34424 0.83958 0.51011 0.0
C1871 C 0.32804 0.83064 0.48696 0.0
C1872 C 0.30346 0.86447 0.52881 0.0
C1873 C 0.29932 0.83826 0.48615 0.0
C1874 C 0.26511 0.89907 0.54074 0.0
C1875 C 0.29927 0.92119 0.58266 0.0
N1876 N 0.28811 0.85491 0.50653 0.0
N1877 N 0.30657 0.89692 0.56925 0.0
H1878 H 0.25965 0.06089 0.04444 0.0
H1879 H 0.13221 0.1615 0.0132 0.0
H1880 H 0.18754 0.06717 0.09991 0.0
H1881 H 0.2138 0.16897 0.97299 0.0
H1882 H 0.15387 0.13131 0.04937 0.0
H1883 H 0.24713 0.10639 0.02411 0.0
C1884 C 0.24178 0.07225 0.0531 0.0
C1885 C 0.22392 0.05957 0.07302 0.0
C1886 C 0.16702 0.13995 0.03279 0.0
C1887 C 0.20881 0.11115 0.0491 0.0
C1888 C 0.15458 0.15695 0.01201 0.0
C1889 C 0.17097 0.16725 0.98958 0.0
C1890 C 0.19595 0.13316 0.03094 0.0
C1891 C 0.20005 0.16106 0.98944 0.0
C1892 C 0.23437 0.09817 0.04122 0.0
C1893 C 0.20134 0.07567 0.08378 0.0
N1894 N 0.21146 0.14421 0.00951 0.0
N1895 N 0.19378 0.10017 0.07096 0.0
H1896 H 0.48759 0.86667 0.66333 0.0
H1897 H 0.45309 0.73927 0.56123 0.0
H1898 H 0.53464 0.78858 0.65944 0.0
H1899 H 0.40061 0.81357 0.5677 0.0
H1900 H 0.47576 0.75218 0.60549 0.0
H1901 H 0.45047 0.84477 0.63451 0.0
C1902 C 0.49015 0.84502 0.65648 0.0
C1903 C 0.51458 0.82971 0.6634 0.0
C1904 C 0.45886 0.7654 0.59758 0.0
C1905 C 0.47207 0.80436 0.63098 0.0
C1906 C 0.44558 0.75777 0.5724 0.0
C1907 C 0.42586 0.77606 0.55999 0.0
C1908 C 0.45247 0.79155 0.61016 0.0
C1909 C 0.41656 0.79938 0.57593 0.0
C1910 C 0.46884 0.83242 0.64028 0.0
C1911 C 0.5165 0.80151 0.6543 0.0
N1912 N 0.43066 0.80705 0.5997 0.0
N1913 N 0.49571 0.78991 0.63846 0.0
H1914 H 0.01123 0.13251 0.16445 0.0
H1915 H 0.04258 0.25867 0.06028 0.0
H1916 H 0.96389 0.21047 0.16215 0.0
H1917 H 0.09785 0.1867 0.06924 0.0
H1918 H 0.01991 0.24602 0.10463 0.0
H1919 H 0.04742 0.15454 0.13468 0.0
C1920 C 0.00841 0.15416 0.15774 0.0
C1921 C 0.98419 0.1694 0.16545 0.0
C1922 C 0.03743 0.2333 0.09725 0.0
C1923 C 0.02565 0.19492 0.13184 0.0
C1924 C 0.05069 0.2408 0.07202 0.0
C1925 C 0.07131 0.22302 0.06033 0.0
C1926 C 0.04474 0.2078 0.11062 0.0
C1927 C 0.08128 0.20046 0.07694 0.0
C1928 C 0.02921 0.16686 0.14099 0.0
C1929 C 0.98193 0.19763 0.15648 0.0
N1930 N 0.06723 0.19288 0.10076 0.0
N1931 N 0.0022 0.20931 0.14003 0.0
H1932 H 0.02376 0.71296 0.32501 0.0
H1933 H 0.89801 0.683 0.43147 0.0
H1934 H 0.98753 0.63038 0.33871 0.0
H1935 H 0.95067 0.7574 0.43294 0.0
H1936 H 0.91924 0.66943 0.38654 0.0
H1937 H 0.98719 0.73356 0.35424 0.0
C1938 C 0.00811 0.69902 0.33416 0.0
C1939 C 0.00926 0.66964 0.32991 0.0
C1940 C 0.92557 0.6891 0.39635 0.0
C1941 C 0.96685 0.69356 0.36341 0.0
C1942 C 0.91327 0.6971 0.4219 0.0
C1943 C 0.92352 0.72078 0.43671 0.0
C1944 C 0.94782 0.70518 0.38536 0.0
C1945 C 0.94268 0.73854 0.42278 0.0
C1946 C 0.98705 0.71097 0.35072 0.0
C1947 C 0.98783 0.653 0.34181 0.0
N1948 N 0.95479 0.72998 0.39821 0.0
N1949 N 0.96765 0.66518 0.35837 0.0
H1950 H 0.51346 0.36706 0.83471 0.0
H1951 H 0.54669 0.23992 0.9361 0.0
H1952 H 0.47342 0.28531 0.82887 0.0
H1953 H 0.59939 0.31414 0.93134 0.0
H1954 H 0.52608 0.2524 0.89068 0.0
H1955 H 0.5496 0.3462 0.86548 0.0
C1956 C 0.51229 0.34481 0.83975 0.0
C1957 C 0.48994 0.32816 0.82967 0.0
C1958 C 0.54263 0.26567 0.89923 0.0
C1959 C 0.53131 0.30406 0.86447 0.0
C1960 C 0.55469 0.2583 0.9251 0.0
C1961 C 0.57393 0.27663 0.93818 0.0
C1962 C 0.54966 0.29165 0.88664 0.0
C1963 C 0.58383 0.29989 0.92253 0.0
C1964 C 0.53305 0.33282 0.85711 0.0
C1965 C 0.48983 0.29925 0.83654 0.0
N1966 N 0.57087 0.30731 0.89804 0.0
N1967 N 0.50993 0.28828 0.85369 0.0
H1968 H 0.56078 0.45669 0.73835 0.0
H1969 H 0.66555 0.48767 0.86467 0.0
H1970 H 0.56978 0.40158 0.81043 0.0
H1971 H 0.6613 0.53651 0.78773 0.0
H1972 H 0.63585 0.45158 0.84239 0.0
H1973 H 0.60487 0.47971 0.75128 0.0
C1974 C 0.57248 0.4487 0.75632 0.0
C1975 C 0.56087 0.42797 0.77401 0.0
C1976 C 0.6417 0.47011 0.83034 0.0
C1977 C 0.61089 0.45494 0.78954 0.0
C1978 C 0.65842 0.49084 0.84318 0.0
C1979 C 0.66558 0.51545 0.82831 0.0
C1980 C 0.63203 0.4741 0.8025 0.0
C1981 C 0.65607 0.51816 0.80029 0.0
C1982 C 0.59756 0.46216 0.76397 0.0
C1983 C 0.57742 0.41819 0.7967 0.0
N1984 N 0.63967 0.49792 0.78846 0.0
N1985 N 0.60111 0.4324 0.80441 0.0
H1986 H 0.06132 0.04574 0.25695 0.0
H1987 H 0.18314 0.98208 0.21309 0.0
H1988 H 0.06609 0.09634 0.18124 0.0
H1989 H 0.1524 0.00489 0.13031 0.0
H1990 H 0.15282 0.0178 0.23392 0.0
H1991 H 0.10678 0.02513 0.24534 0.0
C1992 C 0.07244 0.05343 0.23849 0.0
C1993 C 0.05935 0.07211 0.2196 0.0
C1994 C 0.15246 0.01492 0.21125 0.0
C1995 C 0.11157 0.04837 0.20589 0.0
C1996 C 0.16984 0.99452 0.19923 0.0
C1997 C 0.16963 0.98981 0.1699 0.0
C1998 C 0.1343 0.03056 0.19391 0.0
C1999 C 0.15281 0.00739 0.15302 0.0
C2000 C 0.09855 0.04152 0.23174 0.0
C2001 C 0.075 0.08139 0.19607 0.0
N2002 N 0.13546 0.02676 0.16535 0.0
N2003 N 0.09983 0.06869 0.18936 0.0
H2004 H 0.43558 0.94936 0.75961 0.0
H2005 H 0.33636 0.98547 0.63059 0.0
H2006 H 0.43182 0.89844 0.68406 0.0
H2007 H 0.33282 0.02729 0.71162 0.0
H2008 H 0.3662 0.9488 0.6518 0.0
H2009 H 0.39108 0.97139 0.7462 0.0
C2010 C 0.42494 0.94201 0.74073 0.0
C2011 C 0.4381 0.92284 0.72237 0.0
C2012 C 0.35857 0.96588 0.66495 0.0
C2013 C 0.38765 0.94877 0.70631 0.0
C2014 C 0.34174 0.98695 0.65276 0.0
C2015 C 0.33248 0.00987 0.66911 0.0
C2016 C 0.36623 0.96786 0.69364 0.0
C2017 C 0.3398 0.01038 0.69792 0.0
C2018 C 0.39963 0.95493 0.73282 0.0
C2019 C 0.42293 0.91387 0.69841 0.0
N2020 N 0.35639 0.98993 0.70911 0.0
N2021 N 0.39899 0.9276 0.69054 0.0
H2022 H 0.93682 0.54468 0.23862 0.0
H2023 H 0.83494 0.51368 0.36555 0.0
H2024 H 0.93064 0.59927 0.31141 0.0
H2025 H 0.83026 0.47151 0.28474 0.0
H2026 H 0.86506 0.54984 0.34392 0.0
H2027 H 0.89128 0.52427 0.25088 0.0
C2028 C 0.92548 0.55313 0.2566 0.0
C2029 C 0.9382 0.5728 0.27471 0.0
C2030 C 0.85707 0.53282 0.3309 0.0
C2031 C 0.88656 0.5488 0.28951 0.0
C2032 C 0.84011 0.51204 0.34334 0.0
C2033 C 0.83056 0.48912 0.32719 0.0
C2034 C 0.86459 0.53049 0.30221 0.0
C2035 C 0.83753 0.4884 0.29831 0.0
C2036 C 0.89953 0.54119 0.26386 0.0
C2037 C 0.92211 0.58332 0.29741 0.0
N2038 N 0.85432 0.50852 0.2869 0.0
N2039 N 0.89758 0.57047 0.30479 0.0
H2040 H 0.22446 0.13735 0.57185 0.0
H2041 H 0.11265 0.1556 0.45033 0.0
H2042 H 0.18957 0.06787 0.52414 0.0
H2043 H 0.13221 0.22226 0.50932 0.0
H2044 H 0.13517 0.12177 0.4819 0.0
H2045 H 0.18652 0.16766 0.55402 0.0
C2046 C 0.20864 0.12836 0.55799 0.0
C2047 C 0.21059 0.10019 0.54899 0.0
C2048 C 0.13408 0.14369 0.4883 0.0
C2049 C 0.16727 0.13468 0.52848 0.0
C2050 C 0.12114 0.16299 0.47027 0.0
C2051 C 0.12106 0.19179 0.47699 0.0
C2052 C 0.14761 0.15338 0.51289 0.0
C2053 C 0.13206 0.20022 0.50322 0.0
C2054 C 0.18694 0.14565 0.54786 0.0
C2055 C 0.18936 0.08962 0.53116 0.0
N2056 N 0.14556 0.18119 0.51994 0.0
N2057 N 0.16887 0.10695 0.52121 0.0
H2058 H 0.27348 0.85886 0.07366 0.0
H2059 H 0.37529 0.77372 0.01341 0.0
H2060 H 0.30992 0.92684 0.02506 0.0
H2061 H 0.37858 0.83966 0.95052 0.0
H2062 H 0.35209 0.80647 0.04578 0.0
H2063 H 0.3106 0.82755 0.05653 0.0
C2064 C 0.28963 0.86736 0.05988 0.0
C2065 C 0.28827 0.8954 0.05043 0.0
C2066 C 0.35791 0.81381 0.02495 0.0
C2067 C 0.33125 0.85982 0.03103 0.0
C2068 C 0.37159 0.79523 0.00656 0.0
C2069 C 0.37813 0.80374 0.97889 0.0
C2070 C 0.35073 0.84099 0.01547 0.0
C2071 C 0.37328 0.83197 0.97139 0.0
C2072 C 0.31106 0.84949 0.05024 0.0
C2073 C 0.30976 0.90524 0.03252 0.0
N2074 N 0.3595 0.84944 0.98943 0.0
N2075 N 0.33006 0.88738 0.0231 0.0
H2076 H 0.6106 0.34089 0.54276 0.0
H2077 H 0.72634 0.35996 0.42499 0.0
H2078 H 0.63603 0.27326 0.48724 0.0
H2079 H 0.68883 0.42891 0.47147 0.0
H2080 H 0.68859 0.32899 0.44186 0.0
H2081 H 0.63306 0.37465 0.51116 0.0
C2082 C 0.62047 0.33324 0.52357 0.0
C2083 C 0.62202 0.30428 0.51785 0.0
C2084 C 0.6884 0.35102 0.44796 0.0
C2085 C 0.64844 0.34263 0.48195 0.0
C2086 C 0.70998 0.36869 0.43838 0.0
C2087 C 0.71112 0.3969 0.44736 0.0
C2088 C 0.66801 0.36166 0.46675 0.0
C2089 C 0.68923 0.40714 0.46455 0.0
C2090 C 0.63334 0.3525 0.50552 0.0
C2091 C 0.63465 0.29546 0.49253 0.0
N2092 N 0.66883 0.38944 0.47396 0.0
N2093 N 0.64804 0.31453 0.47579 0.0
H2094 H 0.81223 0.56616 0.97231 0.0
H2095 H 0.87045 0.72298 0.9864 0.0
H2096 H 0.77808 0.63729 0.92653 0.0
H2097 H 0.8857 0.65614 0.04649 0.0
H2098 H 0.84857 0.68866 0.95455 0.0
H2099 H 0.85033 0.59601 0.98951 0.0
C2100 C 0.81284 0.58802 0.96564 0.0
C2101 C 0.79149 0.59943 0.9485 0.0
C2102 C 0.8573 0.68145 0.97444 0.0
C2103 C 0.83523 0.63369 0.96815 0.0
C2104 C 0.86996 0.70096 0.99256 0.0
C2105 C 0.87926 0.69244 0.01942 0.0
C2106 C 0.85424 0.65333 0.98322 0.0
C2107 C 0.87823 0.66367 0.02622 0.0
C2108 C 0.83472 0.60501 0.9754 0.0
C2109 C 0.79387 0.62772 0.94002 0.0
N2110 N 0.86551 0.6452 0.00841 0.0
N2111 N 0.81513 0.64405 0.95032 0.0
H2112 H 0.45162 0.11032 0.15551 0.0
H2113 H 0.57245 0.22293 0.13813 0.0
H2114 H 0.51024 0.13016 0.22246 0.0
H2115 H 0.52491 0.18836 0.06834 0.0
H2116 H 0.55477 0.18477 0.16818 0.0
H2117 H 0.48306 0.13324 0.12184 0.0
C2118 C 0.47144 0.11898 0.163 0.0
C2119 C 0.47809 0.11886 0.19184 0.0
C2120 C 0.54861 0.18531 0.14615 0.0
C2121 C 0.51384 0.14583 0.15361 0.0
C2122 C 0.55866 0.20714 0.12901 0.0
C2123 C 0.54968 0.20923 0.10083 0.0
C2124 C 0.52932 0.16566 0.13504 0.0
C2125 C 0.53193 0.18803 0.0901 0.0
C2126 C 0.4894 0.13213 0.14379 0.0
C2127 C 0.50419 0.13005 0.2004 0.0
N2128 N 0.52205 0.16741 0.1073 0.0
N2129 N 0.52084 0.14374 0.18145 0.0
H2130 H 0.97407 0.814 0.56446 0.0
H2131 H 0.98738 0.87136 0.72191 0.0
H2132 H 0.92791 0.77968 0.63526 0.0
H2133 H 0.04851 0.88598 0.65586 0.0
H2134 H 0.95578 0.84986 0.68711 0.0
H2135 H 0.99151 0.8517 0.59476 0.0
C2136 C 0.96733 0.81451 0.58632 0.0
C2137 C 0.95 0.79322 0.5975 0.0
C2138 C 0.97586 0.85835 0.68018 0.0
C2139 C 0.9699 0.83649 0.63225 0.0
C2140 C 0.99384 0.8708 0.69997 0.0
C2141 C 0.02089 0.87984 0.69182 0.0
C2142 C 0.98497 0.85524 0.65215 0.0
C2143 C 0.02807 0.87872 0.66312 0.0
C2144 C 0.97725 0.83614 0.60356 0.0
C2145 C 0.94151 0.79542 0.62583 0.0
N2146 N 0.01038 0.86622 0.64437 0.0
N2147 N 0.9519 0.81646 0.64238 0.0
H2148 H 0.95373 0.38412 0.83947 0.0
H2149 H 0.07345 0.27088 0.85887 0.0
H2150 H 0.00974 0.35988 0.77179 0.0
H2151 H 0.02751 0.30887 0.92793 0.0
H2152 H 0.05605 0.30824 0.82765 0.0
H2153 H 0.9861 0.36283 0.8733 0.0
C2154 C 0.97318 0.37478 0.83183 0.0
C2155 C 0.97885 0.3732 0.80285 0.0
C2156 C 0.0502 0.30863 0.84976 0.0
C2157 C 0.01564 0.34807 0.84127 0.0
C2158 C 0.06008 0.28728 0.86757 0.0
C2159 C 0.05133 0.28635 0.89587 0.0
C2160 C 0.03136 0.32899 0.86038 0.0
C2161 C 0.03421 0.30829 0.90608 0.0
C2162 C 0.99168 0.36258 0.85112 0.0
C2163 C 0.0045 0.36125 0.79401 0.0
N2164 N 0.02448 0.32844 0.88827 0.0
N2165 N 0.02168 0.34847 0.81313 0.0
H2166 H 0.48623 0.62877 0.27439 0.0
H2167 H 0.47119 0.68686 0.43142 0.0
H2168 H 0.54543 0.61267 0.34188 0.0
H2169 H 0.42685 0.7223 0.35999 0.0
H2170 H 0.48841 0.64893 0.40139 0.0
H2171 H 0.45461 0.65162 0.30832 0.0
C2172 C 0.49223 0.62929 0.29647 0.0
C2173 C 0.51878 0.61937 0.30529 0.0
C2174 C 0.47464 0.6648 0.39234 0.0
C2175 C 0.48282 0.6455 0.34396 0.0
C2176 C 0.46486 0.68658 0.40943 0.0
C2177 C 0.44811 0.70823 0.39802 0.0
C2178 C 0.46781 0.66466 0.36353 0.0
C2179 C 0.44004 0.70627 0.36956 0.0
C2180 C 0.47424 0.64252 0.31575 0.0
C2181 C 0.5254 0.62053 0.33412 0.0
N2182 N 0.45035 0.68507 0.35312 0.0
N2183 N 0.50771 0.63375 0.35237 0.0
H2184 H 0.13841 0.57327 0.22403 0.0
H2185 H 0.22345 0.51243 0.12252 0.0
H2186 H 0.07023 0.52478 0.18772 0.0
H2187 H 0.15676 0.4504 0.11835 0.0
H2188 H 0.19091 0.54503 0.14571 0.0
H2189 H 0.1696 0.55617 0.18682 0.0
C2190 C 0.12984 0.55952 0.20788 0.0
C2191 C 0.10178 0.55009 0.20931 0.0
C2192 C 0.18335 0.52434 0.1397 0.0
C2193 C 0.13724 0.53071 0.1662 0.0
C2194 C 0.20182 0.50583 0.12602 0.0
C2195 C 0.19303 0.47831 0.11925 0.0
C2196 C 0.156 0.51513 0.14666 0.0
C2197 C 0.16467 0.47113 0.12385 0.0
C2198 C 0.14765 0.54989 0.18639 0.0
C2199 C 0.09184 0.53223 0.18782 0.0
N2200 N 0.14731 0.48927 0.13765 0.0
N2201 N 0.10965 0.52282 0.16746 0.0
H2202 H 0.56734 0.96409 0.81708 0.0
H2203 H 0.72621 0.98554 0.86736 0.0
H2204 H 0.63905 0.92458 0.77678 0.0
H2205 H 0.65719 0.04205 0.88624 0.0
H2206 H 0.69251 0.95229 0.84651 0.0
H2207 H 0.59833 0.98137 0.85427 0.0
C2208 C 0.58958 0.95877 0.81617 0.0
C2209 C 0.60078 0.94353 0.79333 0.0
C2210 C 0.68474 0.97169 0.85582 0.0
C2211 C 0.63631 0.96328 0.83598 0.0
C2212 C 0.70389 0.9906 0.86786 0.0
C2213 C 0.69446 0.01685 0.87792 0.0
C2214 C 0.65607 0.97907 0.85421 0.0
C2215 C 0.66537 0.02229 0.87816 0.0
C2216 C 0.60722 0.96858 0.83751 0.0
C2217 C 0.62962 0.93667 0.79375 0.0
N2218 N 0.64723 0.00371 0.8661 0.0
N2219 N 0.64655 0.94703 0.81452 0.0
H2220 H 0.84154 0.95036 0.38713 0.0
H2221 H 0.86099 0.07289 0.27672 0.0
H2222 H 0.77585 0.01069 0.36828 0.0
H2223 H 0.92965 0.02203 0.30875 0.0
H2224 H 0.83105 0.05542 0.315 0.0
H2225 H 0.87588 0.98143 0.36475 0.0
C2226 C 0.83447 0.97047 0.37882 0.0
C2227 C 0.80577 0.9777 0.379 0.0
C2228 C 0.85282 0.04846 0.31389 0.0
C2229 C 0.84476 0.01305 0.35264 0.0
C2230 C 0.86991 0.0584 0.29199 0.0
C2231 C 0.89771 0.04849 0.28916 0.0
C2232 C 0.86357 0.02832 0.33288 0.0
C2233 C 0.90817 0.02982 0.30969 0.0
C2234 C 0.85406 0.98821 0.36596 0.0
C2235 C 0.79778 0.00417 0.3683 0.0
N2236 N 0.89099 0.02007 0.33041 0.0
N2237 N 0.81708 0.02061 0.35489 0.0
H2238 H 0.34195 0.54488 0.61087 0.0
H2239 H 0.43286 0.45962 0.68243 0.0
H2240 H 0.27588 0.48559 0.63129 0.0
H2241 H 0.35779 0.43344 0.72693 0.0
H2242 H 0.40358 0.47641 0.64364 0.0
H2243 H 0.37618 0.5138 0.63291 0.0
C2244 C 0.33481 0.52483 0.61924 0.0
C2245 C 0.30604 0.51797 0.6196 0.0
C2246 C 0.39341 0.46723 0.66192 0.0
C2247 C 0.34519 0.48195 0.64496 0.0
C2248 C 0.41013 0.45748 0.68403 0.0
C2249 C 0.39761 0.44603 0.70832 0.0
C2250 C 0.36388 0.46615 0.6644 0.0
C2251 C 0.3682 0.4427 0.7088 0.0
C2252 C 0.35445 0.50686 0.63173 0.0
C2253 C 0.29791 0.49171 0.63068 0.0
N2254 N 0.35223 0.45324 0.68734 0.0
N2255 N 0.31732 0.47495 0.64362 0.0
H2256 H 0.88858 0.84157 0.54243 0.0
H2257 H 0.77205 0.86 0.42531 0.0
H2258 H 0.86264 0.77367 0.4875 0.0
H2259 H 0.80926 0.92908 0.4718 0.0
H2260 H 0.81015 0.82926 0.44186 0.0
H2261 H 0.86606 0.87521 0.5107 0.0
C2262 C 0.8786 0.83384 0.52333 0.0
C2263 C 0.87689 0.80485 0.51783 0.0
C2264 C 0.8102 0.85127 0.44804 0.0
C2265 C 0.85038 0.84305 0.48181 0.0
C2266 C 0.78841 0.86881 0.43865 0.0
C2267 C 0.78709 0.89698 0.44773 0.0
C2268 C 0.83061 0.862 0.46674 0.0
C2269 C 0.80899 0.90732 0.46482 0.0
C2270 C 0.86569 0.85302 0.50521 0.0
C2271 C 0.86413 0.7959 0.49261 0.0
N2272 N 0.8296 0.88975 0.47406 0.0
N2273 N 0.85069 0.81491 0.47583 0.0
H2274 H 0.62269 0.22249 0.98596 0.0
H2275 H 0.7223 0.13687 0.92362 0.0
H2276 H 0.62108 0.15722 0.04961 0.0
H2277 H 0.68827 0.06938 0.97459 0.0
H2278 H 0.68547 0.16804 0.94125 0.0
H2279 H 0.64469 0.18928 0.95323 0.0
C2280 C 0.62657 0.20105 0.99293 0.0
C2281 C 0.62086 0.19285 0.02087 0.0
C2282 C 0.6854 0.14622 0.94797 0.0
C2283 C 0.64692 0.15508 0.98388 0.0
C2284 C 0.70669 0.12841 0.93803 0.0
C2285 C 0.70867 0.10056 0.94795 0.0
C2286 C 0.66596 0.13607 0.96802 0.0
C2287 C 0.68789 0.09082 0.9667 0.0
C2288 C 0.63954 0.18219 0.97433 0.0
C2289 C 0.62582 0.16469 0.02852 0.0
N2290 N 0.66771 0.10867 0.97643 0.0
N2291 N 0.63896 0.14696 0.01027 0.0
H2292 H 0.31118 0.56596 0.52727 0.0
H2293 H 0.36735 0.72356 0.51097 0.0
H2294 H 0.27478 0.63708 0.57129 0.0
H2295 H 0.38423 0.65584 0.4523 0.0
H2296 H 0.34451 0.68969 0.54267 0.0
H2297 H 0.34849 0.59645 0.50959 0.0
C2298 C 0.31112 0.58798 0.53344 0.0
C2299 C 0.28936 0.59915 0.55023 0.0
C2300 C 0.35376 0.68221 0.52313 0.0
C2301 C 0.33223 0.6342 0.52996 0.0
C2302 C 0.367 0.70145 0.50511 0.0
C2303 C 0.3772 0.69253 0.47871 0.0
C2304 C 0.35108 0.65392 0.51475 0.0
C2305 C 0.37619 0.66368 0.47223 0.0
C2306 C 0.33254 0.60535 0.52337 0.0
C2307 C 0.2909 0.62768 0.55807 0.0
N2308 N 0.36301 0.64546 0.48997 0.0
N2309 N 0.31176 0.64439 0.54748 0.0
H2310 H 0.22274 0.35999 0.07246 0.0
H2311 H 0.11191 0.34086 0.95023 0.0
H2312 H 0.18952 0.42893 0.02279 0.0
H2313 H 0.13065 0.27503 0.0104 0.0
H2314 H 0.1343 0.37506 0.98148 0.0
H2315 H 0.18453 0.32994 0.05492 0.0
C2316 C 0.20722 0.36894 0.05822 0.0
C2317 C 0.20972 0.39685 0.04862 0.0
C2318 C 0.13305 0.35325 0.9882 0.0
C2319 C 0.16608 0.36262 0.02842 0.0
C2320 C 0.12018 0.33373 0.97035 0.0
C2321 C 0.11997 0.30504 0.97749 0.0
C2322 C 0.14634 0.34386 0.01303 0.0
C2323 C 0.13065 0.29696 0.00396 0.0
C2324 C 0.18537 0.35179 0.04825 0.0
C2325 C 0.18888 0.40736 0.0303 0.0
N2326 N 0.14408 0.31619 0.0205 0.0
N2327 N 0.16822 0.39014 0.02052 0.0
H2328 H 0.5453 0.88454 0.84126 0.0
H2329 H 0.42552 0.7714 0.86054 0.0
H2330 H 0.48847 0.86112 0.77397 0.0
H2331 H 0.47277 0.80789 0.92955 0.0
H2332 H 0.44266 0.80913 0.82971 0.0
H2333 H 0.51333 0.8629 0.87523 0.0
C2334 C 0.52575 0.87531 0.83375 0.0
C2335 C 0.51975 0.87403 0.80481 0.0
C2336 C 0.44887 0.80912 0.85173 0.0
C2337 C 0.48342 0.84853 0.84337 0.0
C2338 C 0.43914 0.78754 0.86932 0.0
C2339 C 0.44826 0.7861 0.89749 0.0
C2340 C 0.46796 0.82918 0.86241 0.0
C2341 C 0.46572 0.80771 0.9078 0.0
C2342 C 0.50748 0.86292 0.85312 0.0
C2343 C 0.49397 0.86225 0.79614 0.0
N2344 N 0.4753 0.8281 0.89017 0.0
N2345 N 0.47703 0.84927 0.81531 0.0
H2346 H 0.01366 0.12335 0.27293 0.0
H2347 H 0.07465 0.22435 0.35802 0.0
H2348 H 0.95356 0.11674 0.3412 0.0
H2349 H 0.02782 0.18678 0.42664 0.0
H2350 H 0.05808 0.18689 0.3269 0.0
H2351 H 0.04684 0.14625 0.3051 0.0
C2352 C 0.00762 0.12625 0.29482 0.0
C2353 C 0.98044 0.11894 0.30421 0.0
C2354 C 0.05206 0.18623 0.34892 0.0
C2355 C 0.01786 0.14601 0.34082 0.0
C2356 C 0.06138 0.20787 0.36669 0.0
C2357 C 0.05218 0.20903 0.39484 0.0
C2358 C 0.03344 0.16562 0.35948 0.0
C2359 C 0.035 0.1871 0.40494 0.0
C2360 C 0.02645 0.13976 0.31309 0.0
C2361 C 0.97399 0.12273 0.33286 0.0
N2362 N 0.02587 0.16659 0.38718 0.0
N2363 N 0.99238 0.1364 0.35002 0.0
H2364 H 0.9867 0.62981 0.22393 0.0
H2365 H 0.97102 0.68822 0.06701 0.0
H2366 H 0.04564 0.61388 0.1562 0.0
H2367 H 0.92666 0.72347 0.13852 0.0
H2368 H 0.98858 0.65045 0.09702 0.0
H2369 H 0.95505 0.65298 0.1902 0.0
C2370 C 0.99262 0.63043 0.20183 0.0
C2371 C 0.0191 0.62043 0.19289 0.0
C2372 C 0.97475 0.66626 0.10611 0.0
C2373 C 0.98312 0.64694 0.15445 0.0
C2374 C 0.96477 0.68794 0.08902 0.0
C2375 C 0.9479 0.7095 0.10045 0.0
C2376 C 0.96801 0.66609 0.13494 0.0
C2377 C 0.93994 0.70752 0.12894 0.0
C2378 C 0.97463 0.64385 0.18268 0.0
C2379 C 0.02565 0.62177 0.16405 0.0
N2380 N 0.95045 0.6864 0.14537 0.0
N2381 N 0.00795 0.63515 0.14592 0.0
H2382 H 0.51186 0.37083 0.72071 0.0
H2383 H 0.52392 0.31306 0.56334 0.0
H2384 H 0.4503 0.38563 0.65506 0.0
H2385 H 0.57024 0.27872 0.63409 0.0
H2386 H 0.5068 0.35095 0.5936 0.0
H2387 H 0.54318 0.34926 0.68571 0.0
C2388 C 0.50526 0.3703 0.69881 0.0
C2389 C 0.47816 0.37937 0.69083 0.0
C2390 C 0.52103 0.33535 0.60238 0.0
C2391 C 0.51374 0.35469 0.65094 0.0
C2392 C 0.53076 0.3136 0.58517 0.0
C2393 C 0.54807 0.29227 0.59635 0.0
C2394 C 0.52855 0.33578 0.63103 0.0
C2395 C 0.55667 0.2945 0.62464 0.0
C2396 C 0.52307 0.35782 0.67891 0.0
C2397 C 0.47077 0.37832 0.66217 0.0
N2398 N 0.54648 0.31566 0.64115 0.0
N2399 N 0.4883 0.36575 0.64331 0.0
H2400 H 0.77421 0.48466 0.87457 0.0
H2401 H 0.85957 0.42184 0.77515 0.0
H2402 H 0.84222 0.54521 0.87915 0.0
H2403 H 0.92866 0.46727 0.81367 0.0
H2404 H 0.82822 0.43949 0.81187 0.0
H2405 H 0.8066 0.45079 0.85297 0.0
C2406 C 0.79606 0.49069 0.87146 0.0
C2407 C 0.80534 0.51812 0.87784 0.0
C2408 C 0.85038 0.44492 0.81292 0.0
C2409 C 0.8422 0.47987 0.85235 0.0
C2410 C 0.86831 0.43498 0.79171 0.0
C2411 C 0.89669 0.44348 0.79101 0.0
C2412 C 0.86098 0.46352 0.83353 0.0
C2413 C 0.90681 0.46057 0.81302 0.0
C2414 C 0.81446 0.47145 0.85874 0.0
C2415 C 0.83397 0.52456 0.87385 0.0
N2416 N 0.88887 0.4704 0.83307 0.0
N2417 N 0.85127 0.50572 0.86098 0.0
H2418 H 0.34217 0.94913 0.11144 0.0
H2419 H 0.4339 0.03417 0.18251 0.0
H2420 H 0.27695 0.0099 0.13043 0.0
H2421 H 0.35879 0.06257 0.22566 0.0
H2422 H 0.40472 0.01688 0.14388 0.0
H2423 H 0.37674 0.97992 0.13334 0.0
C2424 C 0.3353 0.96943 0.11947 0.0
C2425 C 0.30664 0.9768 0.11947 0.0
C2426 C 0.39451 0.02665 0.16184 0.0
C2427 C 0.3462 0.0125 0.14466 0.0
C2428 C 0.41119 0.03669 0.18387 0.0
C2429 C 0.39862 0.04895 0.20775 0.0
C2430 C 0.36498 0.0283 0.16398 0.0
C2431 C 0.36924 0.0527 0.20787 0.0
C2432 C 0.35514 0.98722 0.13188 0.0
C2433 C 0.29887 0.00337 0.13011 0.0
N2434 N 0.35332 0.04192 0.18652 0.0
N2435 N 0.31846 0.01997 0.14296 0.0
H2436 H 0.22419 0.98493 0.62303 0.0
H2437 H 0.13957 0.92464 0.72505 0.0
H2438 H 0.15798 0.04759 0.61983 0.0
H2439 H 0.07133 0.97331 0.68902 0.0
H2440 H 0.17064 0.94163 0.68771 0.0
H2441 H 0.19157 0.95248 0.64625 0.0
C2442 C 0.20265 0.99172 0.62676 0.0
C2443 C 0.19402 0.01935 0.62027 0.0
C2444 C 0.14869 0.94796 0.68738 0.0
C2445 C 0.15693 0.98269 0.64767 0.0
C2446 C 0.13096 0.93841 0.70894 0.0
C2447 C 0.10294 0.94794 0.71048 0.0
C2448 C 0.13823 0.96716 0.66723 0.0
C2449 C 0.09294 0.96581 0.68904 0.0
C2450 C 0.18415 0.97328 0.64045 0.0
C2451 C 0.16576 0.02676 0.62513 0.0
N2452 N 0.11067 0.97515 0.6686 0.0
N2453 N 0.14837 0.00868 0.63891 0.0
H2454 H 0.63694 0.57251 0.27505 0.0
H2455 H 0.65657 0.45049 0.38609 0.0
H2456 H 0.56812 0.52288 0.30849 0.0
H2457 H 0.72239 0.51051 0.36694 0.0
H2458 H 0.62231 0.48153 0.36349 0.0
H2459 H 0.66725 0.55482 0.31301 0.0
C2460 C 0.62808 0.55824 0.29056 0.0
C2461 C 0.6001 0.54873 0.28821 0.0
C2462 C 0.64413 0.48826 0.36468 0.0
C2463 C 0.63463 0.52835 0.33156 0.0
C2464 C 0.66368 0.47053 0.37767 0.0
C2465 C 0.69239 0.4777 0.37787 0.0
C2466 C 0.65349 0.51301 0.35126 0.0
C2467 C 0.70045 0.50406 0.36698 0.0
C2468 C 0.64538 0.54819 0.31227 0.0
C2469 C 0.58972 0.53035 0.30904 0.0
N2470 N 0.68118 0.52049 0.35346 0.0
N2471 N 0.60707 0.52049 0.32956 0.0
loop_
_geom_bond_atom_site_label_1
_geom_bond_atom_site_label_2
_geom_bond_distance
_geom_bond_site_symmetry_2
_ccdc_geom_bond_type
C0 O12 1.241 . S
C0 O13 1.280 . S
C1 O14 1.277 . S
C1 O15 1.245 . S
C2 O26 1.247 . S
C2 O28 1.289 . S
Mg3 O4 1.926 . S
Mg3 O13 1.984 . S
Mg3 O15 1.988 . S
Mg3 O16 2.061 . S
O4 Mg3 1.926 . S
O4 Mg5 1.986 . S
O4 Mg6 1.917 . S
Mg5 O4 1.986 . S
Mg5 O12 2.042 . S
Mg5 O14 2.041 . S
Mg5 O20 2.038 . S
Mg5 O28 2.238 . S
Mg6 O4 1.917 . S
Mg6 O7 1.917 . S
Mg6 O17 2.106 . S
Mg6 O19 2.079 . S
Mg6 O28 2.106 . S
Mg6 O29 2.079 . S
O7 Mg6 1.917 . S
O7 Mg8 1.926 . S
O7 Mg9 1.986 . S
Mg8 O7 1.926 . S
Mg8 O22 1.984 . S
Mg8 O25 1.988 . S
Mg8 O26 2.061 . S
Mg9 O7 1.986 . S
Mg9 O17 2.238 . S
Mg9 O21 2.042 . S
Mg9 O23 2.041 . S
Mg9 O30 2.038 . S
C10 O16 1.247 . S
C10 O17 1.289 . S
C11 O29 1.245 . S
C11 O30 1.274 . S
O12 C0 1.241 . S
O12 Mg5 2.042 . S
O13 C0 1.280 . S
O13 Mg3 1.984 . S
O14 C1 1.277 . S
O14 Mg5 2.041 . S
O15 C1 1.245 . S
O15 Mg3 1.988 . S
O16 Mg3 2.061 . S
O16 C10 1.247 . S
O17 Mg6 2.106 . S
O17 Mg9 2.238 . S
O17 C10 1.289 . S
C18 O19 1.245 . S
C18 O20 1.274 . S
O19 Mg6 2.079 . S
O19 C18 1.245 . S
O20 Mg5 2.038 . S
O20 C18 1.274 . S
O21 Mg9 2.042 . S
O21 C24 1.241 . S
O22 Mg8 1.984 . S
O22 C24 1.280 . S
O23 Mg9 2.041 . S
O23 C27 1.277 . S
C24 O21 1.241 . S
C24 O22 1.280 . S
O25 Mg8 1.988 . S
O25 C27 1.245 . S
O26 C2 1.247 . S
O26 Mg8 2.061 . S
C27 O23 1.277 . S
C27 O25 1.245 . S
O28 C2 1.289 . S
O28 Mg5 2.238 . S
O28 Mg6 2.106 . S
O29 Mg6 2.079 . S
O29 C11 1.245 . S
O30 Mg9 2.038 . S
O30 C11 1.274 . S
C31 O43 1.241 . S
C31 O44 1.280 . S
C32 O45 1.269 1_554 S
C32 O46 1.245 1_554 S
C33 O57 1.247 . S
C33 O59 1.289 . S
Mg34 O35 1.926 . S
Mg34 O44 1.984 . S
Mg34 O46 1.988 . S
Mg34 O47 2.061 . S
O35 Mg34 1.926 . S
O35 Mg36 1.986 . S
O35 Mg37 1.917 . S
Mg36 O35 1.986 . S
Mg36 O43 2.042 . S
Mg36 O45 2.070 . S
Mg36 O51 2.038 . S
Mg36 O59 2.238 . S
Mg37 O35 1.917 . S
Mg37 O38 1.917 . S
Mg37 O48 2.106 . S
Mg37 O50 2.079 . S
Mg37 O59 2.106 . S
Mg37 O60 2.079 . S
O38 Mg37 1.917 . S
O38 Mg39 1.926 . S
O38 Mg40 1.986 . S
Mg39 O38 1.926 . S
Mg39 O53 1.984 . S
Mg39 O56 1.988 . S
Mg39 O57 2.061 . S
Mg40 O38 1.986 . S
Mg40 O48 2.238 . S
Mg40 O52 2.042 . S
Mg40 O54 2.041 . S
Mg40 O61 2.038 . S
C41 O47 1.247 . S
C41 O48 1.289 . S
C42 O60 1.245 . S
C42 O61 1.274 . S
O43 C31 1.241 . S
O43 Mg36 2.042 . S
O44 C31 1.280 . S
O44 Mg34 1.984 . S
O45 C32 1.269 1_556 S
O45 Mg36 2.070 . S
O46 C32 1.245 1_556 S
O46 Mg34 1.988 . S
O47 Mg34 2.061 . S
O47 C41 1.247 . S
O48 Mg37 2.106 . S
O48 Mg40 2.238 . S
O48 C41 1.289 . S
C49 O50 1.245 . S
C49 O51 1.274 . S
O50 Mg37 2.079 . S
O50 C49 1.245 . S
O51 Mg36 2.038 . S
O51 C49 1.274 . S
O52 Mg40 2.042 . S
O52 C55 1.241 . S
O53 Mg39 1.984 . S
O53 C55 1.280 . S
O54 Mg40 2.041 . S
O54 C58 1.277 . S
C55 O52 1.241 . S
C55 O53 1.280 . S
O56 Mg39 1.988 . S
O56 C58 1.245 . S
O57 C33 1.247 . S
O57 Mg39 2.061 . S
C58 O54 1.277 . S
C58 O56 1.245 . S
O59 C33 1.289 . S
O59 Mg36 2.238 . S
O59 Mg37 2.106 . S
O60 Mg37 2.079 . S
O60 C42 1.245 . S
O61 Mg40 2.038 . S
O61 C42 1.274 . S
C62 O74 1.241 . S
C62 O75 1.280 . S
C63 O76 1.277 . S
C63 O77 1.245 . S
C64 O88 1.247 . S
C64 O90 1.289 . S
Mg65 O66 1.926 . S
Mg65 O75 1.984 . S
Mg65 O77 1.988 . S
Mg65 O78 2.061 . S
O66 Mg65 1.926 . S
O66 Mg67 1.986 . S
O66 Mg68 1.917 . S
Mg67 O66 1.986 . S
Mg67 O74 2.042 . S
Mg67 O76 2.041 . S
Mg67 O82 2.038 . S
Mg67 O90 2.238 . S
Mg68 O66 1.917 . S
Mg68 O69 1.917 . S
Mg68 O79 2.106 . S
Mg68 O81 2.079 . S
Mg68 O90 2.106 . S
Mg68 O91 2.079 . S
O69 Mg68 1.917 . S
O69 Mg70 1.926 . S
O69 Mg71 1.986 . S
Mg70 O69 1.926 . S
Mg70 O84 1.984 . S
Mg70 O87 1.988 . S
Mg70 O88 2.061 . S
Mg71 O69 1.986 . S
Mg71 O79 2.238 . S
Mg71 O83 2.042 . S
Mg71 O85 2.041 . S
Mg71 O92 2.038 . S
C72 O78 1.247 . S
C72 O79 1.289 . S
C73 O91 1.245 . S
C73 O92 1.274 . S
O74 C62 1.241 . S
O74 Mg67 2.042 . S
O75 C62 1.280 . S
O75 Mg65 1.984 . S
O76 C63 1.277 . S
O76 Mg67 2.041 . S
O77 C63 1.245 . S
O77 Mg65 1.988 . S
O78 Mg65 2.061 . S
O78 C72 1.247 . S
O79 Mg68 2.106 . S
O79 Mg71 2.238 . S
O79 C72 1.289 . S
C80 O81 1.245 . S
C80 O82 1.274 . S
O81 Mg68 2.079 . S
O81 C80 1.245 . S
O82 Mg67 2.038 . S
O82 C80 1.274 . S
O83 Mg71 2.042 . S
O83 C86 1.241 . S
O84 Mg70 1.984 . S
O84 C86 1.280 . S
O85 Mg71 2.041 . S
O85 C89 1.277 . S
C86 O83 1.241 . S
C86 O84 1.280 . S
O87 Mg70 1.988 . S
O87 C89 1.245 . S
O88 C64 1.247 . S
O88 Mg70 2.061 . S
C89 O85 1.277 . S
C89 O87 1.245 . S
O90 C64 1.289 . S
O90 Mg67 2.238 . S
O90 Mg68 2.106 . S
O91 Mg68 2.079 . S
O91 C73 1.245 . S
O92 Mg71 2.038 . S
O92 C73 1.274 . S
C93 O105 1.241 . S
C93 O106 1.280 . S
C94 O107 1.269 1_556 S
C94 O108 1.245 1_556 S
C95 O119 1.247 . S
C95 O121 1.289 . S
Mg96 O97 1.926 . S
Mg96 O106 1.984 . S
Mg96 O108 1.988 . S
Mg96 O109 2.061 . S
O97 Mg96 1.926 . S
O97 Mg98 1.986 . S
O97 Mg99 1.917 . S
Mg98 O97 1.986 . S
Mg98 O105 2.042 . S
Mg98 O107 2.070 . S
Mg98 O113 2.038 . S
Mg98 O121 2.238 . S
Mg99 O97 1.917 . S
Mg99 O100 1.917 . S
Mg99 O110 2.106 . S
Mg99 O112 2.079 . S
Mg99 O121 2.106 . S
Mg99 O122 2.079 . S
O100 Mg99 1.917 . S
O100 Mg101 1.926 . S
O100 Mg102 1.986 . S
Mg101 O100 1.926 . S
Mg101 O115 1.984 . S
Mg101 O118 1.988 . S
Mg101 O119 2.061 . S
Mg102 O100 1.986 . S
Mg102 O110 2.238 . S
Mg102 O114 2.042 . S
Mg102 O116 2.041 . S
Mg102 O123 2.038 . S
C103 O109 1.247 . S
C103 O110 1.289 . S
C104 O122 1.245 . S
C104 O123 1.274 . S
O105 C93 1.241 . S
O105 Mg98 2.042 . S
O106 C93 1.280 . S
O106 Mg96 1.984 . S
O107 C94 1.269 1_554 S
O107 Mg98 2.070 . S
O108 C94 1.245 1_554 S
O108 Mg96 1.988 . S
O109 Mg96 2.061 . S
O109 C103 1.247 . S
O110 Mg99 2.106 . S
O110 Mg102 2.238 . S
O110 C103 1.289 . S
C111 O112 1.245 . S
C111 O113 1.274 . S
O112 Mg99 2.079 . S
O112 C111 1.245 . S
O113 Mg98 2.038 . S
O113 C111 1.274 . S
O114 Mg102 2.042 . S
O114 C117 1.241 . S
O115 Mg101 1.984 . S
O115 C117 1.280 . S
O116 Mg102 2.041 . S
O116 C120 1.277 . S
C117 O114 1.241 . S
C117 O115 1.280 . S
O118 Mg101 1.988 . S
O118 C120 1.245 . S
O119 C95 1.247 . S
O119 Mg101 2.061 . S
C120 O116 1.277 . S
C120 O118 1.245 . S
O121 C95 1.289 . S
O121 Mg98 2.238 . S
O121 Mg99 2.106 . S
O122 Mg99 2.079 . S
O122 C104 1.245 . S
O123 Mg102 2.038 . S
O123 C104 1.274 . S
C124 O136 1.241 . S
C124 O137 1.280 . S
C125 O138 1.277 . S
C125 O139 1.245 . S
C126 O150 1.247 . S
C126 O152 1.289 . S
Mg127 O128 1.926 . S
Mg127 O137 1.984 . S
Mg127 O139 1.988 . S
Mg127 O140 2.061 . S
O128 Mg127 1.926 . S
O128 Mg129 1.986 . S
O128 Mg130 1.917 . S
Mg129 O128 1.986 . S
Mg129 O136 2.042 . S
Mg129 O138 2.041 . S
Mg129 O144 2.038 . S
Mg129 O152 2.238 . S
Mg130 O128 1.917 . S
Mg130 O131 1.917 . S
Mg130 O141 2.106 . S
Mg130 O143 2.079 . S
Mg130 O152 2.106 . S
Mg130 O153 2.079 . S
O131 Mg130 1.917 . S
O131 Mg132 1.926 . S
O131 Mg133 1.986 . S
Mg132 O131 1.926 . S
Mg132 O146 1.984 . S
Mg132 O149 1.988 . S
Mg132 O150 2.061 . S
Mg133 O131 1.986 . S
Mg133 O141 2.238 . S
Mg133 O145 2.042 . S
Mg133 O147 2.041 . S
Mg133 O154 2.038 . S
C134 O140 1.247 . S
C134 O141 1.289 . S
C135 O153 1.245 . S
C135 O154 1.274 . S
O136 C124 1.241 . S
O136 Mg129 2.042 . S
O137 C124 1.280 . S
O137 Mg127 1.984 . S
O138 C125 1.277 . S
O138 Mg129 2.041 . S
O139 C125 1.245 . S
O139 Mg127 1.988 . S
O140 Mg127 2.061 . S
O140 C134 1.247 . S
O141 Mg130 2.106 . S
O141 Mg133 2.238 . S
O141 C134 1.289 . S
C142 O143 1.245 . S
C142 O144 1.274 . S
O143 Mg130 2.079 . S
O143 C142 1.245 . S
O144 Mg129 2.038 . S
O144 C142 1.274 . S
O145 Mg133 2.042 . S
O145 C148 1.241 . S
O146 Mg132 1.984 . S
O146 C148 1.280 . S
O147 Mg133 2.041 . S
O147 C151 1.277 . S
C148 O145 1.241 . S
C148 O146 1.280 . S
O149 Mg132 1.988 . S
O149 C151 1.245 . S
O150 C126 1.247 . S
O150 Mg132 2.061 . S
C151 O147 1.277 . S
C151 O149 1.245 . S
O152 C126 1.289 . S
O152 Mg129 2.238 . S
O152 Mg130 2.106 . S
O153 Mg130 2.079 . S
O153 C135 1.245 . S
O154 Mg133 2.038 . S
O154 C135 1.274 . S
C155 O167 1.241 . S
C155 O168 1.280 . S
C156 O169 1.269 1_655 S
C156 O170 1.245 1_655 S
C157 O181 1.247 . S
C157 O183 1.289 . S
Mg158 O159 1.926 . S
Mg158 O168 1.984 . S
Mg158 O170 1.988 . S
Mg158 O171 2.061 . S
O159 Mg158 1.926 . S
O159 Mg160 1.986 . S
O159 Mg161 1.917 . S
Mg160 O159 1.986 . S
Mg160 O167 2.042 . S
Mg160 O169 2.070 . S
Mg160 O175 2.038 . S
Mg160 O183 2.238 . S
Mg161 O159 1.917 . S
Mg161 O162 1.917 . S
Mg161 O172 2.106 . S
Mg161 O174 2.079 . S
Mg161 O183 2.106 . S
Mg161 O184 2.079 . S
O162 Mg161 1.917 . S
O162 Mg163 1.926 . S
O162 Mg164 1.986 . S
Mg163 O162 1.926 . S
Mg163 O177 1.984 . S
Mg163 O180 1.988 . S
Mg163 O181 2.061 . S
Mg164 O162 1.986 . S
Mg164 O172 2.238 . S
Mg164 O176 2.042 . S
Mg164 O178 2.041 . S
Mg164 O185 2.038 . S
C165 O171 1.247 . S
C165 O172 1.289 . S
C166 O184 1.245 . S
C166 O185 1.274 . S
O167 C155 1.241 . S
O167 Mg160 2.042 . S
O168 C155 1.280 . S
O168 Mg158 1.984 . S
O169 C156 1.269 1_455 S
O169 Mg160 2.070 . S
O170 C156 1.245 1_455 S
O170 Mg158 1.988 . S
O171 Mg158 2.061 . S
O171 C165 1.247 . S
O172 Mg161 2.106 . S
O172 Mg164 2.238 . S
O172 C165 1.289 . S
C173 O174 1.245 . S
C173 O175 1.274 . S
O174 Mg161 2.079 . S
O174 C173 1.245 . S
O175 Mg160 2.038 . S
O175 C173 1.274 . S
O176 Mg164 2.042 . S
O176 C179 1.241 . S
O177 Mg163 1.984 . S
O177 C179 1.280 . S
O178 Mg164 2.041 . S
O178 C182 1.277 . S
C179 O176 1.241 . S
C179 O177 1.280 . S
O180 Mg163 1.988 . S
O180 C182 1.245 . S
O181 C157 1.247 . S
O181 Mg163 2.061 . S
C182 O178 1.277 . S
C182 O180 1.245 . S
O183 C157 1.289 . S
O183 Mg160 2.238 . S
O183 Mg161 2.106 . S
O184 Mg161 2.079 . S
O184 C166 1.245 . S
O185 Mg164 2.038 . S
O185 C166 1.274 . S
C186 O198 1.241 . S
C186 O199 1.280 . S
C187 O200 1.269 1_455 S
C187 O201 1.245 1_455 S
C188 O212 1.247 . S
C188 O214 1.289 . S
Mg189 O190 1.926 . S
Mg189 O199 1.984 . S
Mg189 O201 1.988 . S
Mg189 O202 2.061 . S
O190 Mg189 1.926 . S
O190 Mg191 1.986 . S
O190 Mg192 1.917 . S
Mg191 O190 1.986 . S
Mg191 O198 2.042 . S
Mg191 O200 2.070 . S
Mg191 O206 2.038 . S
Mg191 O214 2.238 . S
Mg192 O190 1.917 . S
Mg192 O193 1.917 . S
Mg192 O203 2.106 . S
Mg192 O205 2.079 . S
Mg192 O214 2.106 . S
Mg192 O215 2.079 . S
O193 Mg192 1.917 . S
O193 Mg194 1.926 . S
O193 Mg195 1.986 . S
Mg194 O193 1.926 . S
Mg194 O208 1.984 . S
Mg194 O211 1.988 . S
Mg194 O212 2.061 . S
Mg195 O193 1.986 . S
Mg195 O203 2.238 . S
Mg195 O207 2.042 . S
Mg195 O209 2.041 . S
Mg195 O216 2.038 . S
C196 O202 1.247 . S
C196 O203 1.289 . S
C197 O215 1.245 . S
C197 O216 1.274 . S
O198 C186 1.241 . S
O198 Mg191 2.042 . S
O199 C186 1.280 . S
O199 Mg189 1.984 . S
O200 C187 1.269 1_655 S
O200 Mg191 2.070 . S
O201 C187 1.245 1_655 S
O201 Mg189 1.988 . S
O202 Mg189 2.061 . S
O202 C196 1.247 . S
O203 Mg192 2.106 . S
O203 Mg195 2.238 . S
O203 C196 1.289 . S
C204 O205 1.245 . S
C204 O206 1.274 . S
O205 Mg192 2.079 . S
O205 C204 1.245 . S
O206 Mg191 2.038 . S
O206 C204 1.274 . S
O207 Mg195 2.042 . S
O207 C210 1.241 . S
O208 Mg194 1.984 . S
O208 C210 1.280 . S
O209 Mg195 2.041 . S
O209 C213 1.277 . S
C210 O207 1.241 . S
C210 O208 1.280 . S
O211 Mg194 1.988 . S
O211 C213 1.245 . S
O212 C188 1.247 . S
O212 Mg194 2.061 . S
C213 O209 1.277 . S
C213 O211 1.245 . S
O214 C188 1.289 . S
O214 Mg191 2.238 . S
O214 Mg192 2.106 . S
O215 Mg192 2.079 . S
O215 C197 1.245 . S
O216 Mg195 2.038 . S
O216 C197 1.274 . S
C217 O229 1.241 . S
C217 O230 1.280 . S
C218 O231 1.277 . S
C218 O232 1.245 . S
C219 O243 1.247 . S
C219 O245 1.289 . S
Mg220 O221 1.926 . S
Mg220 O230 1.984 . S
Mg220 O232 1.988 . S
Mg220 O233 2.061 . S
O221 Mg220 1.926 . S
O221 Mg222 1.986 . S
O221 Mg223 1.917 . S
Mg222 O221 1.986 . S
Mg222 O229 2.042 . S
Mg222 O231 2.041 . S
Mg222 O237 2.038 . S
Mg222 O245 2.238 . S
Mg223 O221 1.917 . S
Mg223 O224 1.917 . S
Mg223 O234 2.106 . S
Mg223 O236 2.079 . S
Mg223 O245 2.106 . S
Mg223 O246 2.079 . S
O224 Mg223 1.917 . S
O224 Mg225 1.926 . S
O224 Mg226 1.986 . S
Mg225 O224 1.926 . S
Mg225 O239 1.984 . S
Mg225 O242 1.988 . S
Mg225 O243 2.061 . S
Mg226 O224 1.986 . S
Mg226 O234 2.238 . S
Mg226 O238 2.042 . S
Mg226 O240 2.041 . S
Mg226 O247 2.038 . S
C227 O233 1.247 . S
C227 O234 1.289 . S
C228 O246 1.245 . S
C228 O247 1.274 . S
O229 C217 1.241 . S
O229 Mg222 2.042 . S
O230 C217 1.280 . S
O230 Mg220 1.984 . S
O231 C218 1.277 . S
O231 Mg222 2.041 . S
O232 C218 1.245 . S
O232 Mg220 1.988 . S
O233 Mg220 2.061 . S
O233 C227 1.247 . S
O234 Mg223 2.106 . S
O234 Mg226 2.238 . S
O234 C227 1.289 . S
C235 O236 1.245 . S
C235 O237 1.274 . S
O236 Mg223 2.079 . S
O236 C235 1.245 . S
O237 Mg222 2.038 . S
O237 C235 1.274 . S
O238 Mg226 2.042 . S
O238 C241 1.241 . S
O239 Mg225 1.984 . S
O239 C241 1.280 . S
O240 Mg226 2.041 . S
O240 C244 1.277 . S
C241 O238 1.241 . S
C241 O239 1.280 . S
O242 Mg225 1.988 . S
O242 C244 1.245 . S
O243 C219 1.247 . S
O243 Mg225 2.061 . S
C244 O240 1.277 . S
C244 O242 1.245 . S
O245 C219 1.289 . S
O245 Mg222 2.238 . S
O245 Mg223 2.106 . S
O246 Mg223 2.079 . S
O246 C228 1.245 . S
O247 Mg226 2.038 . S
O247 C228 1.274 . S
C248 O260 1.241 . S
C248 O261 1.280 . S
C249 O262 1.277 . S
C249 O263 1.245 . S
C250 O274 1.247 . S
C250 O276 1.289 . S
Mg251 O252 1.926 . S
Mg251 O261 1.984 . S
Mg251 O263 1.988 . S
Mg251 O264 2.061 . S
O252 Mg251 1.926 . S
O252 Mg253 1.986 . S
O252 Mg254 1.917 . S
Mg253 O252 1.986 . S
Mg253 O260 2.042 . S
Mg253 O262 2.041 . S
Mg253 O268 2.038 . S
Mg253 O276 2.238 . S
Mg254 O252 1.917 . S
Mg254 O255 1.917 . S
Mg254 O265 2.106 . S
Mg254 O267 2.079 . S
Mg254 O276 2.106 . S
Mg254 O277 2.079 . S
O255 Mg254 1.917 . S
O255 Mg256 1.926 . S
O255 Mg257 1.986 . S
Mg256 O255 1.926 . S
Mg256 O270 1.984 . S
Mg256 O273 1.988 . S
Mg256 O274 2.061 . S
Mg257 O255 1.986 . S
Mg257 O265 2.238 . S
Mg257 O269 2.042 . S
Mg257 O271 2.041 . S
Mg257 O278 2.038 . S
C258 O264 1.247 . S
C258 O265 1.289 . S
C259 O277 1.245 . S
C259 O278 1.274 . S
O260 C248 1.241 . S
O260 Mg253 2.042 . S
O261 C248 1.280 . S
O261 Mg251 1.984 . S
O262 C249 1.277 . S
O262 Mg253 2.041 . S
O263 C249 1.245 . S
O263 Mg251 1.988 . S
O264 Mg251 2.061 . S
O264 C258 1.247 . S
O265 Mg254 2.106 . S
O265 Mg257 2.238 . S
O265 C258 1.289 . S
C266 O267 1.245 . S
C266 O268 1.274 . S
O267 Mg254 2.079 . S
O267 C266 1.245 . S
O268 Mg253 2.038 . S
O268 C266 1.274 . S
O269 Mg257 2.042 . S
O269 C272 1.241 . S
O270 Mg256 1.984 . S
O270 C272 1.280 . S
O271 Mg257 2.041 . S
O271 C275 1.277 . S
C272 O269 1.241 . S
C272 O270 1.280 . S
O273 Mg256 1.988 . S
O273 C275 1.245 . S
O274 C250 1.247 . S
O274 Mg256 2.061 . S
C275 O271 1.277 . S
C275 O273 1.245 . S
O276 C250 1.289 . S
O276 Mg253 2.238 . S
O276 Mg254 2.106 . S
O277 Mg254 2.079 . S
O277 C259 1.245 . S
O278 Mg257 2.038 . S
O278 C259 1.274 . S
C279 O291 1.241 . S
C279 O292 1.280 . S
C280 O293 1.269 1_565 S
C280 O294 1.245 1_565 S
C281 O305 1.247 . S
C281 O307 1.289 . S
Mg282 O283 1.926 . S
Mg282 O292 1.984 . S
Mg282 O294 1.988 . S
Mg282 O295 2.061 . S
O283 Mg282 1.926 . S
O283 Mg284 1.986 . S
O283 Mg285 1.917 . S
Mg284 O283 1.986 . S
Mg284 O291 2.042 . S
Mg284 O293 2.070 . S
Mg284 O299 2.038 . S
Mg284 O307 2.238 . S
Mg285 O283 1.917 . S
Mg285 O286 1.917 . S
Mg285 O296 2.106 . S
Mg285 O298 2.079 . S
Mg285 O307 2.106 . S
Mg285 O308 2.079 . S
O286 Mg285 1.917 . S
O286 Mg287 1.926 . S
O286 Mg288 1.986 . S
Mg287 O286 1.926 . S
Mg287 O301 1.984 . S
Mg287 O304 1.988 . S
Mg287 O305 2.061 . S
Mg288 O286 1.986 . S
Mg288 O296 2.238 . S
Mg288 O300 2.042 . S
Mg288 O302 2.041 . S
Mg288 O309 2.038 . S
C289 O295 1.247 . S
C289 O296 1.289 . S
C290 O308 1.245 . S
C290 O309 1.274 . S
O291 C279 1.241 . S
O291 Mg284 2.042 . S
O292 C279 1.280 . S
O292 Mg282 1.984 . S
O293 C280 1.269 1_545 S
O293 Mg284 2.070 . S
O294 C280 1.245 1_545 S
O294 Mg282 1.988 . S
O295 Mg282 2.061 . S
O295 C289 1.247 . S
O296 Mg285 2.106 . S
O296 Mg288 2.238 . S
O296 C289 1.289 . S
C297 O298 1.245 . S
C297 O299 1.274 . S
O298 Mg285 2.079 . S
O298 C297 1.245 . S
O299 Mg284 2.038 . S
O299 C297 1.274 . S
O300 Mg288 2.042 . S
O300 C303 1.241 . S
O301 Mg287 1.984 . S
O301 C303 1.280 . S
O302 Mg288 2.041 . S
O302 C306 1.277 . S
C303 O300 1.241 . S
C303 O301 1.280 . S
O304 Mg287 1.988 . S
O304 C306 1.245 . S
O305 C281 1.247 . S
O305 Mg287 2.061 . S
C306 O302 1.277 . S
C306 O304 1.245 . S
O307 C281 1.289 . S
O307 Mg284 2.238 . S
O307 Mg285 2.106 . S
O308 Mg285 2.079 . S
O308 C290 1.245 . S
O309 Mg288 2.038 . S
O309 C290 1.274 . S
C310 O322 1.241 . S
C310 O323 1.280 . S
C311 O324 1.269 1_545 S
C311 O325 1.245 1_545 S
C312 O336 1.247 . S
C312 O338 1.289 . S
Mg313 O314 1.926 . S
Mg313 O323 1.984 . S
Mg313 O325 1.988 . S
Mg313 O326 2.061 . S
O314 Mg313 1.926 . S
O314 Mg315 1.986 . S
O314 Mg316 1.917 . S
Mg315 O314 1.986 . S
Mg315 O322 2.042 . S
Mg315 O324 2.070 . S
Mg315 O330 2.038 . S
Mg315 O338 2.238 . S
Mg316 O314 1.917 . S
Mg316 O317 1.917 . S
Mg316 O327 2.106 . S
Mg316 O329 2.079 . S
Mg316 O338 2.106 . S
Mg316 O339 2.079 . S
O317 Mg316 1.917 . S
O317 Mg318 1.926 . S
O317 Mg319 1.986 . S
Mg318 O317 1.926 . S
Mg318 O332 1.984 . S
Mg318 O335 1.988 . S
Mg318 O336 2.061 . S
Mg319 O317 1.986 . S
Mg319 O327 2.238 . S
Mg319 O331 2.042 . S
Mg319 O333 2.041 . S
Mg319 O340 2.038 . S
C320 O326 1.247 . S
C320 O327 1.289 . S
C321 O339 1.245 . S
C321 O340 1.274 . S
O322 C310 1.241 . S
O322 Mg315 2.042 . S
O323 C310 1.280 . S
O323 Mg313 1.984 . S
O324 C311 1.269 1_565 S
O324 Mg315 2.070 . S
O325 C311 1.245 1_565 S
O325 Mg313 1.988 . S
O326 Mg313 2.061 . S
O326 C320 1.247 . S
O327 Mg316 2.106 . S
O327 Mg319 2.238 . S
O327 C320 1.289 . S
C328 O329 1.245 . S
C328 O330 1.274 . S
O329 Mg316 2.079 . S
O329 C328 1.245 . S
O330 Mg315 2.038 . S
O330 C328 1.274 . S
O331 Mg319 2.042 . S
O331 C334 1.241 . S
O332 Mg318 1.984 . S
O332 C334 1.280 . S
O333 Mg319 2.041 . S
O333 C337 1.277 . S
C334 O331 1.241 . S
C334 O332 1.280 . S
O335 Mg318 1.988 . S
O335 C337 1.245 . S
O336 C312 1.247 . S
O336 Mg318 2.061 . S
C337 O333 1.277 . S
C337 O335 1.245 . S
O338 C312 1.289 . S
O338 Mg315 2.238 . S
O338 Mg316 2.106 . S
O339 Mg316 2.079 . S
O339 C321 1.245 . S
O340 Mg319 2.038 . S
O340 C321 1.274 . S
C341 O353 1.241 . S
C341 O354 1.280 . S
C342 O355 1.277 . S
C342 O356 1.245 . S
C343 O367 1.247 . S
C343 O369 1.289 . S
Mg344 O345 1.926 . S
Mg344 O354 1.984 . S
Mg344 O356 1.988 . S
Mg344 O357 2.061 . S
O345 Mg344 1.926 . S
O345 Mg346 1.986 . S
O345 Mg347 1.917 . S
Mg346 O345 1.986 . S
Mg346 O353 2.042 . S
Mg346 O355 2.041 . S
Mg346 O361 2.038 . S
Mg346 O369 2.238 . S
Mg347 O345 1.917 . S
Mg347 O348 1.917 . S
Mg347 O358 2.106 . S
Mg347 O360 2.079 . S
Mg347 O369 2.106 . S
Mg347 O370 2.079 . S
O348 Mg347 1.917 . S
O348 Mg349 1.926 . S
O348 Mg350 1.986 . S
Mg349 O348 1.926 . S
Mg349 O363 1.984 . S
Mg349 O366 1.988 . S
Mg349 O367 2.061 . S
Mg350 O348 1.986 . S
Mg350 O358 2.238 . S
Mg350 O362 2.042 . S
Mg350 O364 2.041 . S
Mg350 O371 2.038 . S
C351 O357 1.247 . S
C351 O358 1.289 . S
C352 O370 1.245 . S
C352 O371 1.274 . S
O353 C341 1.241 . S
O353 Mg346 2.042 . S
O354 C341 1.280 . S
O354 Mg344 1.984 . S
O355 C342 1.277 . S
O355 Mg346 2.041 . S
O356 C342 1.245 . S
O356 Mg344 1.988 . S
O357 Mg344 2.061 . S
O357 C351 1.247 . S
O358 Mg347 2.106 . S
O358 Mg350 2.238 . S
O358 C351 1.289 . S
C359 O360 1.245 . S
C359 O361 1.274 . S
O360 Mg347 2.079 . S
O360 C359 1.245 . S
O361 Mg346 2.038 . S
O361 C359 1.274 . S
O362 Mg350 2.042 . S
O362 C365 1.241 . S
O363 Mg349 1.984 . S
O363 C365 1.280 . S
O364 Mg350 2.041 . S
O364 C368 1.277 . S
C365 O362 1.241 . S
C365 O363 1.280 . S
O366 Mg349 1.988 . S
O366 C368 1.245 . S
O367 C343 1.247 . S
O367 Mg349 2.061 . S
C368 O364 1.277 . S
C368 O366 1.245 . S
O369 C343 1.289 . S
O369 Mg346 2.238 . S
O369 Mg347 2.106 . S
O370 Mg347 2.079 . S
O370 C352 1.245 . S
O371 Mg350 2.038 . S
O371 C352 1.274 . S
C372 O384 1.241 . S
C372 O385 1.280 . S
C373 O386 1.277 . S
C373 O387 1.245 . S
C374 O398 1.247 . S
C374 O400 1.289 . S
Mg375 O376 1.926 . S
Mg375 O385 1.984 . S
Mg375 O387 1.988 . S
Mg375 O388 2.061 . S
O376 Mg375 1.926 . S
O376 Mg377 1.986 . S
O376 Mg378 1.917 . S
Mg377 O376 1.986 . S
Mg377 O384 2.042 . S
Mg377 O386 2.041 . S
Mg377 O392 2.038 . S
Mg377 O400 2.238 . S
Mg378 O376 1.917 . S
Mg378 O379 1.917 . S
Mg378 O389 2.106 . S
Mg378 O391 2.079 . S
Mg378 O400 2.106 . S
Mg378 O401 2.079 . S
O379 Mg378 1.917 . S
O379 Mg380 1.926 . S
O379 Mg381 1.986 . S
Mg380 O379 1.926 . S
Mg380 O394 1.984 . S
Mg380 O397 1.988 . S
Mg380 O398 2.061 . S
Mg381 O379 1.986 . S
Mg381 O389 2.238 . S
Mg381 O393 2.042 . S
Mg381 O395 2.041 . S
Mg381 O402 2.038 . S
C382 O388 1.247 . S
C382 O389 1.289 . S
C383 O401 1.245 . S
C383 O402 1.274 . S
O384 C372 1.241 . S
O384 Mg377 2.042 . S
O385 C372 1.280 . S
O385 Mg375 1.984 . S
O386 C373 1.277 . S
O386 Mg377 2.041 . S
O387 C373 1.245 . S
O387 Mg375 1.988 . S
O388 Mg375 2.061 . S
O388 C382 1.247 . S
O389 Mg378 2.106 . S
O389 Mg381 2.238 . S
O389 C382 1.289 . S
C390 O391 1.245 . S
C390 O392 1.274 . S
O391 Mg378 2.079 . S
O391 C390 1.245 . S
O392 Mg377 2.038 . S
O392 C390 1.274 . S
O393 Mg381 2.042 . S
O393 C396 1.241 . S
O394 Mg380 1.984 . S
O394 C396 1.280 . S
O395 Mg381 2.041 . S
O395 C399 1.277 . S
C396 O393 1.241 . S
C396 O394 1.280 . S
O397 Mg380 1.988 . S
O397 C399 1.245 . S
O398 C374 1.247 . S
O398 Mg380 2.061 . S
C399 O395 1.277 . S
C399 O397 1.245 . S
O400 C374 1.289 . S
O400 Mg377 2.238 . S
O400 Mg378 2.106 . S
O401 Mg378 2.079 . S
O401 C383 1.245 . S
O402 Mg381 2.038 . S
O402 C383 1.274 . S
C403 O415 1.241 . S
C403 O416 1.280 . S
C404 O417 1.277 . S
C404 O418 1.245 . S
C405 O429 1.247 . S
C405 O431 1.289 . S
Mg406 O407 1.926 . S
Mg406 O416 1.984 . S
Mg406 O418 1.988 . S
Mg406 O419 2.061 . S
O407 Mg406 1.926 . S
O407 Mg408 1.986 . S
O407 Mg409 1.917 . S
Mg408 O407 1.986 . S
Mg408 O415 2.042 . S
Mg408 O417 2.041 . S
Mg408 O423 2.038 . S
Mg408 O431 2.238 . S
Mg409 O407 1.917 . S
Mg409 O410 1.917 . S
Mg409 O420 2.106 . S
Mg409 O422 2.079 . S
Mg409 O431 2.106 . S
Mg409 O432 2.079 . S
O410 Mg409 1.917 . S
O410 Mg411 1.926 . S
O410 Mg412 1.986 . S
Mg411 O410 1.926 . S
Mg411 O425 1.984 . S
Mg411 O428 1.988 . S
Mg411 O429 2.061 . S
Mg412 O410 1.986 . S
Mg412 O420 2.238 . S
Mg412 O424 2.042 . S
Mg412 O426 2.070 . S
Mg412 O433 2.038 . S
C413 O419 1.247 . S
C413 O420 1.289 . S
C414 O432 1.245 . S
C414 O433 1.274 . S
O415 C403 1.241 . S
O415 Mg408 2.042 . S
O416 C403 1.280 . S
O416 Mg406 1.984 . S
O417 C404 1.277 . S
O417 Mg408 2.041 . S
O418 C404 1.245 . S
O418 Mg406 1.988 . S
O419 Mg406 2.061 . S
O419 C413 1.247 . S
O420 Mg409 2.106 . S
O420 Mg412 2.238 . S
O420 C413 1.289 . S
C421 O422 1.245 . S
C421 O423 1.274 . S
O422 Mg409 2.079 . S
O422 C421 1.245 . S
O423 Mg408 2.038 . S
O423 C421 1.274 . S
O424 Mg412 2.042 . S
O424 C427 1.241 . S
O425 Mg411 1.984 . S
O425 C427 1.280 . S
O426 Mg412 2.070 . S
O426 C430 1.269 1_554 S
C427 O424 1.241 . S
C427 O425 1.280 . S
O428 Mg411 1.988 . S
O428 C430 1.245 1_554 S
O429 C405 1.247 . S
O429 Mg411 2.061 . S
C430 O426 1.269 1_556 S
C430 O428 1.245 1_556 S
O431 C405 1.289 . S
O431 Mg408 2.238 . S
O431 Mg409 2.106 . S
O432 Mg409 2.079 . S
O432 C414 1.245 . S
O433 Mg412 2.038 . S
O433 C414 1.274 . S
C434 O446 1.241 . S
C434 O447 1.280 . S
C435 O448 1.277 . S
C435 O449 1.245 . S
C436 O460 1.247 . S
C436 O462 1.289 . S
Mg437 O438 1.926 . S
Mg437 O447 1.984 . S
Mg437 O449 1.988 . S
Mg437 O450 2.061 . S
O438 Mg437 1.926 . S
O438 Mg439 1.986 . S
O438 Mg440 1.917 . S
Mg439 O438 1.986 . S
Mg439 O446 2.042 . S
Mg439 O448 2.041 . S
Mg439 O454 2.038 . S
Mg439 O462 2.238 . S
Mg440 O438 1.917 . S
Mg440 O441 1.917 . S
Mg440 O451 2.106 . S
Mg440 O453 2.079 . S
Mg440 O462 2.106 . S
Mg440 O463 2.079 . S
O441 Mg440 1.917 . S
O441 Mg442 1.926 . S
O441 Mg443 1.986 . S
Mg442 O441 1.926 . S
Mg442 O456 1.984 . S
Mg442 O459 1.988 . S
Mg442 O460 2.061 . S
Mg443 O441 1.986 . S
Mg443 O451 2.238 . S
Mg443 O455 2.042 . S
Mg443 O457 2.041 . S
Mg443 O464 2.038 . S
C444 O450 1.247 . S
C444 O451 1.289 . S
C445 O463 1.245 . S
C445 O464 1.274 . S
O446 C434 1.241 . S
O446 Mg439 2.042 . S
O447 C434 1.280 . S
O447 Mg437 1.984 . S
O448 C435 1.277 . S
O448 Mg439 2.041 . S
O449 C435 1.245 . S
O449 Mg437 1.988 . S
O450 Mg437 2.061 . S
O450 C444 1.247 . S
O451 Mg440 2.106 . S
O451 Mg443 2.238 . S
O451 C444 1.289 . S
C452 O453 1.245 . S
C452 O454 1.274 . S
O453 Mg440 2.079 . S
O453 C452 1.245 . S
O454 Mg439 2.038 . S
O454 C452 1.274 . S
O455 Mg443 2.042 . S
O455 C458 1.241 . S
O456 Mg442 1.984 . S
O456 C458 1.280 . S
O457 Mg443 2.041 . S
O457 C461 1.277 . S
C458 O455 1.241 . S
C458 O456 1.280 . S
O459 Mg442 1.988 . S
O459 C461 1.245 . S
O460 C436 1.247 . S
O460 Mg442 2.061 . S
C461 O457 1.277 . S
C461 O459 1.245 . S
O462 C436 1.289 . S
O462 Mg439 2.238 . S
O462 Mg440 2.106 . S
O463 Mg440 2.079 . S
O463 C445 1.245 . S
O464 Mg443 2.038 . S
O464 C445 1.274 . S
C465 O477 1.241 . S
C465 O478 1.280 . S
C466 O479 1.277 . S
C466 O480 1.245 . S
C467 O491 1.247 . S
C467 O493 1.289 . S
Mg468 O469 1.926 . S
Mg468 O478 1.984 . S
Mg468 O480 1.988 . S
Mg468 O481 2.061 . S
O469 Mg468 1.926 . S
O469 Mg470 1.986 . S
O469 Mg471 1.917 . S
Mg470 O469 1.986 . S
Mg470 O477 2.042 . S
Mg470 O479 2.041 . S
Mg470 O485 2.038 . S
Mg470 O493 2.238 . S
Mg471 O469 1.917 . S
Mg471 O472 1.917 . S
Mg471 O482 2.106 . S
Mg471 O484 2.079 . S
Mg471 O493 2.106 . S
Mg471 O494 2.079 . S
O472 Mg471 1.917 . S
O472 Mg473 1.926 . S
O472 Mg474 1.986 . S
Mg473 O472 1.926 . S
Mg473 O487 1.984 . S
Mg473 O490 1.988 . S
Mg473 O491 2.061 . S
Mg474 O472 1.986 . S
Mg474 O482 2.238 . S
Mg474 O486 2.042 . S
Mg474 O488 2.070 . S
Mg474 O495 2.038 . S
C475 O481 1.247 . S
C475 O482 1.289 . S
C476 O494 1.245 . S
C476 O495 1.274 . S
O477 C465 1.241 . S
O477 Mg470 2.042 . S
O478 C465 1.280 . S
O478 Mg468 1.984 . S
O479 C466 1.277 . S
O479 Mg470 2.041 . S
O480 C466 1.245 . S
O480 Mg468 1.988 . S
O481 Mg468 2.061 . S
O481 C475 1.247 . S
O482 Mg471 2.106 . S
O482 Mg474 2.238 . S
O482 C475 1.289 . S
C483 O484 1.245 . S
C483 O485 1.274 . S
O484 Mg471 2.079 . S
O484 C483 1.245 . S
O485 Mg470 2.038 . S
O485 C483 1.274 . S
O486 Mg474 2.042 . S
O486 C489 1.241 . S
O487 Mg473 1.984 . S
O487 C489 1.280 . S
O488 Mg474 2.070 . S
O488 C492 1.269 1_556 S
C489 O486 1.241 . S
C489 O487 1.280 . S
O490 Mg473 1.988 . S
O490 C492 1.245 1_556 S
O491 C467 1.247 . S
O491 Mg473 2.061 . S
C492 O488 1.269 1_554 S
C492 O490 1.245 1_554 S
O493 C467 1.289 . S
O493 Mg470 2.238 . S
O493 Mg471 2.106 . S
O494 Mg471 2.079 . S
O494 C476 1.245 . S
O495 Mg474 2.038 . S
O495 C476 1.274 . S
C496 O508 1.241 . S
C496 O509 1.280 . S
C497 O510 1.277 . S
C497 O511 1.245 . S
C498 O522 1.247 . S
C498 O524 1.289 . S
Mg499 O500 1.926 . S
Mg499 O509 1.984 . S
Mg499 O511 1.988 . S
Mg499 O512 2.061 . S
O500 Mg499 1.926 . S
O500 Mg501 1.986 . S
O500 Mg502 1.917 . S
Mg501 O500 1.986 . S
Mg501 O508 2.042 . S
Mg501 O510 2.041 . S
Mg501 O516 2.038 . S
Mg501 O524 2.238 . S
Mg502 O500 1.917 . S
Mg502 O503 1.917 . S
Mg502 O513 2.106 . S
Mg502 O515 2.079 . S
Mg502 O524 2.106 . S
Mg502 O525 2.079 . S
O503 Mg502 1.917 . S
O503 Mg504 1.926 . S
O503 Mg505 1.986 . S
Mg504 O503 1.926 . S
Mg504 O518 1.984 . S
Mg504 O521 1.988 . S
Mg504 O522 2.061 . S
Mg505 O503 1.986 . S
Mg505 O513 2.238 . S
Mg505 O517 2.042 . S
Mg505 O519 2.041 . S
Mg505 O526 2.038 . S
C506 O512 1.247 . S
C506 O513 1.289 . S
C507 O525 1.245 . S
C507 O526 1.274 . S
O508 C496 1.241 . S
O508 Mg501 2.042 . S
O509 C496 1.280 . S
O509 Mg499 1.984 . S
O510 C497 1.277 . S
O510 Mg501 2.041 . S
O511 C497 1.245 . S
O511 Mg499 1.988 . S
O512 Mg499 2.061 . S
O512 C506 1.247 . S
O513 Mg502 2.106 . S
O513 Mg505 2.238 . S
O513 C506 1.289 . S
C514 O515 1.245 . S
C514 O516 1.274 . S
O515 Mg502 2.079 . S
O515 C514 1.245 . S
O516 Mg501 2.038 . S
O516 C514 1.274 . S
O517 Mg505 2.042 . S
O517 C520 1.241 . S
O518 Mg504 1.984 . S
O518 C520 1.280 . S
O519 Mg505 2.041 . S
O519 C523 1.277 . S
C520 O517 1.241 . S
C520 O518 1.280 . S
O521 Mg504 1.988 . S
O521 C523 1.245 . S
O522 C498 1.247 . S
O522 Mg504 2.061 . S
C523 O519 1.277 . S
C523 O521 1.245 . S
O524 C498 1.289 . S
O524 Mg501 2.238 . S
O524 Mg502 2.106 . S
O525 Mg502 2.079 . S
O525 C507 1.245 . S
O526 Mg505 2.038 . S
O526 C507 1.274 . S
C527 O539 1.241 . S
C527 O540 1.280 . S
C528 O541 1.277 . S
C528 O542 1.245 . S
C529 O553 1.247 . S
C529 O555 1.289 . S
Mg530 O531 1.926 . S
Mg530 O540 1.984 . S
Mg530 O542 1.988 . S
Mg530 O543 2.061 . S
O531 Mg530 1.926 . S
O531 Mg532 1.986 . S
O531 Mg533 1.917 . S
Mg532 O531 1.986 . S
Mg532 O539 2.042 . S
Mg532 O541 2.041 . S
Mg532 O547 2.038 . S
Mg532 O555 2.238 . S
Mg533 O531 1.917 . S
Mg533 O534 1.917 . S
Mg533 O544 2.106 . S
Mg533 O546 2.079 . S
Mg533 O555 2.106 . S
Mg533 O556 2.079 . S
O534 Mg533 1.917 . S
O534 Mg535 1.926 . S
O534 Mg536 1.986 . S
Mg535 O534 1.926 . S
Mg535 O549 1.984 . S
Mg535 O552 1.988 . S
Mg535 O553 2.061 . S
Mg536 O534 1.986 . S
Mg536 O544 2.238 . S
Mg536 O548 2.042 . S
Mg536 O550 2.070 . S
Mg536 O557 2.038 . S
C537 O543 1.247 . S
C537 O544 1.289 . S
C538 O556 1.245 . S
C538 O557 1.274 . S
O539 C527 1.241 . S
O539 Mg532 2.042 . S
O540 C527 1.280 . S
O540 Mg530 1.984 . S
O541 C528 1.277 . S
O541 Mg532 2.041 . S
O542 C528 1.245 . S
O542 Mg530 1.988 . S
O543 Mg530 2.061 . S
O543 C537 1.247 . S
O544 Mg533 2.106 . S
O544 Mg536 2.238 . S
O544 C537 1.289 . S
C545 O546 1.245 . S
C545 O547 1.274 . S
O546 Mg533 2.079 . S
O546 C545 1.245 . S
O547 Mg532 2.038 . S
O547 C545 1.274 . S
O548 Mg536 2.042 . S
O548 C551 1.241 . S
O549 Mg535 1.984 . S
O549 C551 1.280 . S
O550 Mg536 2.070 . S
O550 C554 1.269 1_655 S
C551 O548 1.241 . S
C551 O549 1.280 . S
O552 Mg535 1.988 . S
O552 C554 1.245 1_655 S
O553 C529 1.247 . S
O553 Mg535 2.061 . S
C554 O550 1.269 1_455 S
C554 O552 1.245 1_455 S
O555 C529 1.289 . S
O555 Mg532 2.238 . S
O555 Mg533 2.106 . S
O556 Mg533 2.079 . S
O556 C538 1.245 . S
O557 Mg536 2.038 . S
O557 C538 1.274 . S
C558 O570 1.241 . S
C558 O571 1.280 . S
C559 O572 1.277 . S
C559 O573 1.245 . S
C560 O584 1.247 . S
C560 O586 1.289 . S
Mg561 O562 1.926 . S
Mg561 O571 1.984 . S
Mg561 O573 1.988 . S
Mg561 O574 2.061 . S
O562 Mg561 1.926 . S
O562 Mg563 1.986 . S
O562 Mg564 1.917 . S
Mg563 O562 1.986 . S
Mg563 O570 2.042 . S
Mg563 O572 2.041 . S
Mg563 O578 2.038 . S
Mg563 O586 2.238 . S
Mg564 O562 1.917 . S
Mg564 O565 1.917 . S
Mg564 O575 2.106 . S
Mg564 O577 2.079 . S
Mg564 O586 2.106 . S
Mg564 O587 2.079 . S
O565 Mg564 1.917 . S
O565 Mg566 1.926 . S
O565 Mg567 1.986 . S
Mg566 O565 1.926 . S
Mg566 O580 1.984 . S
Mg566 O583 1.988 . S
Mg566 O584 2.061 . S
Mg567 O565 1.986 . S
Mg567 O575 2.238 . S
Mg567 O579 2.042 . S
Mg567 O581 2.070 . S
Mg567 O588 2.038 . S
C568 O574 1.247 . S
C568 O575 1.289 . S
C569 O587 1.245 . S
C569 O588 1.274 . S
O570 C558 1.241 . S
O570 Mg563 2.042 . S
O571 C558 1.280 . S
O571 Mg561 1.984 . S
O572 C559 1.277 . S
O572 Mg563 2.041 . S
O573 C559 1.245 . S
O573 Mg561 1.988 . S
O574 Mg561 2.061 . S
O574 C568 1.247 . S
O575 Mg564 2.106 . S
O575 Mg567 2.238 . S
O575 C568 1.289 . S
C576 O577 1.245 . S
C576 O578 1.274 . S
O577 Mg564 2.079 . S
O577 C576 1.245 . S
O578 Mg563 2.038 . S
O578 C576 1.274 . S
O579 Mg567 2.042 . S
O579 C582 1.241 . S
O580 Mg566 1.984 . S
O580 C582 1.280 . S
O581 Mg567 2.070 . S
O581 C585 1.269 1_455 S
C582 O579 1.241 . S
C582 O580 1.280 . S
O583 Mg566 1.988 . S
O583 C585 1.245 1_455 S
O584 C560 1.247 . S
O584 Mg566 2.061 . S
C585 O581 1.269 1_655 S
C585 O583 1.245 1_655 S
O586 C560 1.289 . S
O586 Mg563 2.238 . S
O586 Mg564 2.106 . S
O587 Mg564 2.079 . S
O587 C569 1.245 . S
O588 Mg567 2.038 . S
O588 C569 1.274 . S
C589 O601 1.241 . S
C589 O602 1.280 . S
C590 O603 1.277 . S
C590 O604 1.245 . S
C591 O615 1.247 . S
C591 O617 1.289 . S
Mg592 O593 1.926 . S
Mg592 O602 1.984 . S
Mg592 O604 1.988 . S
Mg592 O605 2.061 . S
O593 Mg592 1.926 . S
O593 Mg594 1.986 . S
O593 Mg595 1.917 . S
Mg594 O593 1.986 . S
Mg594 O601 2.042 . S
Mg594 O603 2.041 . S
Mg594 O609 2.038 . S
Mg594 O617 2.238 . S
Mg595 O593 1.917 . S
Mg595 O596 1.917 . S
Mg595 O606 2.106 . S
Mg595 O608 2.079 . S
Mg595 O617 2.106 . S
Mg595 O618 2.079 . S
O596 Mg595 1.917 . S
O596 Mg597 1.926 . S
O596 Mg598 1.986 . S
Mg597 O596 1.926 . S
Mg597 O611 1.984 . S
Mg597 O614 1.988 . S
Mg597 O615 2.061 . S
Mg598 O596 1.986 . S
Mg598 O606 2.238 . S
Mg598 O610 2.042 . S
Mg598 O612 2.041 . S
Mg598 O619 2.038 . S
C599 O605 1.247 . S
C599 O606 1.289 . S
C600 O618 1.245 . S
C600 O619 1.274 . S
O601 C589 1.241 . S
O601 Mg594 2.042 . S
O602 C589 1.280 . S
O602 Mg592 1.984 . S
O603 C590 1.277 . S
O603 Mg594 2.041 . S
O604 C590 1.245 . S
O604 Mg592 1.988 . S
O605 Mg592 2.061 . S
O605 C599 1.247 . S
O606 Mg595 2.106 . S
O606 Mg598 2.238 . S
O606 C599 1.289 . S
C607 O608 1.245 . S
C607 O609 1.274 . S
O608 Mg595 2.079 . S
O608 C607 1.245 . S
O609 Mg594 2.038 . S
O609 C607 1.274 . S
O610 Mg598 2.042 . S
O610 C613 1.241 . S
O611 Mg597 1.984 . S
O611 C613 1.280 . S
O612 Mg598 2.041 . S
O612 C616 1.277 . S
C613 O610 1.241 . S
C613 O611 1.280 . S
O614 Mg597 1.988 . S
O614 C616 1.245 . S
O615 C591 1.247 . S
O615 Mg597 2.061 . S
C616 O612 1.277 . S
C616 O614 1.245 . S
O617 C591 1.289 . S
O617 Mg594 2.238 . S
O617 Mg595 2.106 . S
O618 Mg595 2.079 . S
O618 C600 1.245 . S
O619 Mg598 2.038 . S
O619 C600 1.274 . S
C620 O632 1.241 . S
C620 O633 1.280 . S
C621 O634 1.277 . S
C621 O635 1.245 . S
C622 O646 1.247 . S
C622 O648 1.289 . S
Mg623 O624 1.926 . S
Mg623 O633 1.984 . S
Mg623 O635 1.988 . S
Mg623 O636 2.061 . S
O624 Mg623 1.926 . S
O624 Mg625 1.986 . S
O624 Mg626 1.917 . S
Mg625 O624 1.986 . S
Mg625 O632 2.042 . S
Mg625 O634 2.041 . S
Mg625 O640 2.038 . S
Mg625 O648 2.238 . S
Mg626 O624 1.917 . S
Mg626 O627 1.917 . S
Mg626 O637 2.106 . S
Mg626 O639 2.079 . S
Mg626 O648 2.106 . S
Mg626 O649 2.079 . S
O627 Mg626 1.917 . S
O627 Mg628 1.926 . S
O627 Mg629 1.986 . S
Mg628 O627 1.926 . S
Mg628 O642 1.984 . S
Mg628 O645 1.988 . S
Mg628 O646 2.061 . S
Mg629 O627 1.986 . S
Mg629 O637 2.238 . S
Mg629 O641 2.042 . S
Mg629 O643 2.041 . S
Mg629 O650 2.038 . S
C630 O636 1.247 . S
C630 O637 1.289 . S
C631 O649 1.245 . S
C631 O650 1.274 . S
O632 C620 1.241 . S
O632 Mg625 2.042 . S
O633 C620 1.280 . S
O633 Mg623 1.984 . S
O634 C621 1.277 . S
O634 Mg625 2.041 . S
O635 C621 1.245 . S
O635 Mg623 1.988 . S
O636 Mg623 2.061 . S
O636 C630 1.247 . S
O637 Mg626 2.106 . S
O637 Mg629 2.238 . S
O637 C630 1.289 . S
C638 O639 1.245 . S
C638 O640 1.274 . S
O639 Mg626 2.079 . S
O639 C638 1.245 . S
O640 Mg625 2.038 . S
O640 C638 1.274 . S
O641 Mg629 2.042 . S
O641 C644 1.241 . S
O642 Mg628 1.984 . S
O642 C644 1.280 . S
O643 Mg629 2.041 . S
O643 C647 1.277 . S
C644 O641 1.241 . S
C644 O642 1.280 . S
O645 Mg628 1.988 . S
O645 C647 1.245 . S
O646 C622 1.247 . S
O646 Mg628 2.061 . S
C647 O643 1.277 . S
C647 O645 1.245 . S
O648 C622 1.289 . S
O648 Mg625 2.238 . S
O648 Mg626 2.106 . S
O649 Mg626 2.079 . S
O649 C631 1.245 . S
O650 Mg629 2.038 . S
O650 C631 1.274 . S
C651 O663 1.241 . S
C651 O664 1.280 . S
C652 O665 1.277 . S
C652 O666 1.245 . S
C653 O677 1.247 . S
C653 O679 1.289 . S
Mg654 O655 1.926 . S
Mg654 O664 1.984 . S
Mg654 O666 1.988 . S
Mg654 O667 2.061 . S
O655 Mg654 1.926 . S
O655 Mg656 1.986 . S
O655 Mg657 1.917 . S
Mg656 O655 1.986 . S
Mg656 O663 2.042 . S
Mg656 O665 2.041 . S
Mg656 O671 2.038 . S
Mg656 O679 2.238 . S
Mg657 O655 1.917 . S
Mg657 O658 1.917 . S
Mg657 O668 2.106 . S
Mg657 O670 2.079 . S
Mg657 O679 2.106 . S
Mg657 O680 2.079 . S
O658 Mg657 1.917 . S
O658 Mg659 1.926 . S
O658 Mg660 1.986 . S
Mg659 O658 1.926 . S
Mg659 O673 1.984 . S
Mg659 O676 1.988 . S
Mg659 O677 2.061 . S
Mg660 O658 1.986 . S
Mg660 O668 2.238 . S
Mg660 O672 2.042 . S
Mg660 O674 2.070 . S
Mg660 O681 2.038 . S
C661 O667 1.247 . S
C661 O668 1.289 . S
C662 O680 1.245 . S
C662 O681 1.274 . S
O663 C651 1.241 . S
O663 Mg656 2.042 . S
O664 C651 1.280 . S
O664 Mg654 1.984 . S
O665 C652 1.277 . S
O665 Mg656 2.041 . S
O666 C652 1.245 . S
O666 Mg654 1.988 . S
O667 Mg654 2.061 . S
O667 C661 1.247 . S
O668 Mg657 2.106 . S
O668 Mg660 2.238 . S
O668 C661 1.289 . S
C669 O670 1.245 . S
C669 O671 1.274 . S
O670 Mg657 2.079 . S
O670 C669 1.245 . S
O671 Mg656 2.038 . S
O671 C669 1.274 . S
O672 Mg660 2.042 . S
O672 C675 1.241 . S
O673 Mg659 1.984 . S
O673 C675 1.280 . S
O674 Mg660 2.070 . S
O674 C678 1.269 1_565 S
C675 O672 1.241 . S
C675 O673 1.280 . S
O676 Mg659 1.988 . S
O676 C678 1.245 1_565 S
O677 C653 1.247 . S
O677 Mg659 2.061 . S
C678 O674 1.269 1_545 S
C678 O676 1.245 1_545 S
O679 C653 1.289 . S
O679 Mg656 2.238 . S
O679 Mg657 2.106 . S
O680 Mg657 2.079 . S
O680 C662 1.245 . S
O681 Mg660 2.038 . S
O681 C662 1.274 . S
C682 O694 1.241 . S
C682 O695 1.280 . S
C683 O696 1.277 . S
C683 O697 1.245 . S
C684 O708 1.247 . S
C684 O710 1.289 . S
Mg685 O686 1.926 . S
Mg685 O695 1.984 . S
Mg685 O697 1.988 . S
Mg685 O698 2.061 . S
O686 Mg685 1.926 . S
O686 Mg687 1.986 . S
O686 Mg688 1.917 . S
Mg687 O686 1.986 . S
Mg687 O694 2.042 . S
Mg687 O696 2.041 . S
Mg687 O702 2.038 . S
Mg687 O710 2.238 . S
Mg688 O686 1.917 . S
Mg688 O689 1.917 . S
Mg688 O699 2.106 . S
Mg688 O701 2.079 . S
Mg688 O710 2.106 . S
Mg688 O711 2.079 . S
O689 Mg688 1.917 . S
O689 Mg690 1.926 . S
O689 Mg691 1.986 . S
Mg690 O689 1.926 . S
Mg690 O704 1.984 . S
Mg690 O707 1.988 . S
Mg690 O708 2.061 . S
Mg691 O689 1.986 . S
Mg691 O699 2.238 . S
Mg691 O703 2.042 . S
Mg691 O705 2.070 . S
Mg691 O712 2.038 . S
C692 O698 1.247 . S
C692 O699 1.289 . S
C693 O711 1.245 . S
C693 O712 1.274 . S
O694 C682 1.241 . S
O694 Mg687 2.042 . S
O695 C682 1.280 . S
O695 Mg685 1.984 . S
O696 C683 1.277 . S
O696 Mg687 2.041 . S
O697 C683 1.245 . S
O697 Mg685 1.988 . S
O698 Mg685 2.061 . S
O698 C692 1.247 . S
O699 Mg688 2.106 . S
O699 Mg691 2.238 . S
O699 C692 1.289 . S
C700 O701 1.245 . S
C700 O702 1.274 . S
O701 Mg688 2.079 . S
O701 C700 1.245 . S
O702 Mg687 2.038 . S
O702 C700 1.274 . S
O703 Mg691 2.042 . S
O703 C706 1.241 . S
O704 Mg690 1.984 . S
O704 C706 1.280 . S
O705 Mg691 2.070 . S
O705 C709 1.269 1_545 S
C706 O703 1.241 . S
C706 O704 1.280 . S
O707 Mg690 1.988 . S
O707 C709 1.245 1_545 S
O708 C684 1.247 . S
O708 Mg690 2.061 . S
C709 O705 1.269 1_565 S
C709 O707 1.245 1_565 S
O710 C684 1.289 . S
O710 Mg687 2.238 . S
O710 Mg688 2.106 . S
O711 Mg688 2.079 . S
O711 C693 1.245 . S
O712 Mg691 2.038 . S
O712 C693 1.274 . S
C713 O725 1.241 . S
C713 O726 1.280 . S
C714 O727 1.277 . S
C714 O728 1.245 . S
C715 O739 1.247 . S
C715 O741 1.289 . S
Mg716 O717 1.926 . S
Mg716 O726 1.984 . S
Mg716 O728 1.988 . S
Mg716 O729 2.061 . S
O717 Mg716 1.926 . S
O717 Mg718 1.986 . S
O717 Mg719 1.917 . S
Mg718 O717 1.986 . S
Mg718 O725 2.042 . S
Mg718 O727 2.041 . S
Mg718 O733 2.038 . S
Mg718 O741 2.238 . S
Mg719 O717 1.917 . S
Mg719 O720 1.917 . S
Mg719 O730 2.106 . S
Mg719 O732 2.079 . S
Mg719 O741 2.106 . S
Mg719 O742 2.079 . S
O720 Mg719 1.917 . S
O720 Mg721 1.926 . S
O720 Mg722 1.986 . S
Mg721 O720 1.926 . S
Mg721 O735 1.984 . S
Mg721 O738 1.988 . S
Mg721 O739 2.061 . S
Mg722 O720 1.986 . S
Mg722 O730 2.238 . S
Mg722 O734 2.042 . S
Mg722 O736 2.041 . S
Mg722 O743 2.038 . S
C723 O729 1.247 . S
C723 O730 1.289 . S
C724 O742 1.245 . S
C724 O743 1.274 . S
O725 C713 1.241 . S
O725 Mg718 2.042 . S
O726 C713 1.280 . S
O726 Mg716 1.984 . S
O727 C714 1.277 . S
O727 Mg718 2.041 . S
O728 C714 1.245 . S
O728 Mg716 1.988 . S
O729 Mg716 2.061 . S
O729 C723 1.247 . S
O730 Mg719 2.106 . S
O730 Mg722 2.238 . S
O730 C723 1.289 . S
C731 O732 1.245 . S
C731 O733 1.274 . S
O732 Mg719 2.079 . S
O732 C731 1.245 . S
O733 Mg718 2.038 . S
O733 C731 1.274 . S
O734 Mg722 2.042 . S
O734 C737 1.241 . S
O735 Mg721 1.984 . S
O735 C737 1.280 . S
O736 Mg722 2.041 . S
O736 C740 1.277 . S
C737 O734 1.241 . S
C737 O735 1.280 . S
O738 Mg721 1.988 . S
O738 C740 1.245 . S
O739 C715 1.247 . S
O739 Mg721 2.061 . S
C740 O736 1.277 . S
C740 O738 1.245 . S
O741 C715 1.289 . S
O741 Mg718 2.238 . S
O741 Mg719 2.106 . S
O742 Mg719 2.079 . S
O742 C724 1.245 . S
O743 Mg722 2.038 . S
O743 C724 1.274 . S
H744 C750 0.930 . S
H745 C754 0.930 . S
H746 C759 0.929 . S
H747 C757 0.929 . S
H748 C752 0.929 . S
H749 C758 0.929 . S
C750 H744 0.930 . S
C750 C751 1.367 . S
C750 C758 1.378 . S
C751 C750 1.367 . S
C751 C759 1.433 . S
C752 H748 0.929 . S
C752 C754 1.378 . S
C752 C756 1.350 . S
C753 C756 1.463 . S
C753 C758 1.350 . S
C753 N761 1.427 . S
C754 H745 0.930 . S
C754 C752 1.378 . S
C754 C755 1.367 . S
C755 C754 1.367 . S
C755 C757 1.433 . S
C756 C752 1.350 . S
C756 C753 1.463 . S
C756 N760 1.427 . S
C757 H747 0.929 . S
C757 C755 1.433 . S
C757 N760 1.384 . S
C758 H749 0.929 . S
C758 C750 1.378 . S
C758 C753 1.350 . S
C759 H746 0.929 . S
C759 C751 1.433 . S
C759 N761 1.384 . S
N760 C756 1.427 . S
N760 C757 1.384 . S
N761 C753 1.427 . S
N761 C759 1.384 . S
H762 C768 0.930 . S
H763 C772 0.930 . S
H764 C777 0.929 . S
H765 C775 0.929 . S
H766 C770 0.929 . S
H767 C776 0.929 . S
C768 H762 0.930 . S
C768 C769 1.367 . S
C768 C776 1.378 . S
C769 C768 1.367 . S
C769 C777 1.433 . S
C770 H766 0.929 . S
C770 C772 1.378 . S
C770 C774 1.350 . S
C771 C774 1.463 . S
C771 C776 1.350 . S
C771 N779 1.427 . S
C772 H763 0.930 . S
C772 C770 1.378 . S
C772 C773 1.367 . S
C773 C772 1.367 . S
C773 C775 1.433 . S
C774 C770 1.350 . S
C774 C771 1.463 . S
C774 N778 1.427 . S
C775 H765 0.929 . S
C775 C773 1.433 . S
C775 N778 1.384 . S
C776 H767 0.929 . S
C776 C768 1.378 . S
C776 C771 1.350 . S
C777 H764 0.929 . S
C777 C769 1.433 . S
C777 N779 1.384 . S
N778 C774 1.427 . S
N778 C775 1.384 . S
N779 C771 1.427 . S
N779 C777 1.384 . S
H780 C786 0.930 . S
H781 C790 0.930 . S
H782 C795 0.937 . S
H783 C793 0.929 . S
H784 C788 0.929 . S
H785 C794 0.929 . S
C786 H780 0.930 . S
C786 C787 1.370 . S
C786 C794 1.378 . S
C787 C786 1.370 . S
C787 C795 1.436 . S
C788 H784 0.929 . S
C788 C790 1.378 . S
C788 C792 1.350 . S
C789 C792 1.463 . S
C789 C794 1.350 . S
C789 N797 1.427 . S
C790 H781 0.930 . S
C790 C788 1.378 . S
C790 C791 1.367 . S
C791 C790 1.367 . S
C791 C793 1.433 . S
C792 C788 1.350 . S
C792 C789 1.463 . S
C792 N796 1.427 . S
C793 H783 0.929 . S
C793 C791 1.433 . S
C793 N796 1.384 . S
C794 H785 0.929 . S
C794 C786 1.378 . S
C794 C789 1.350 . S
C795 H782 0.937 . S
C795 C787 1.436 . S
C795 N797 1.384 . S
N796 C792 1.427 . S
N796 C793 1.384 . S
N797 C789 1.427 . S
N797 C795 1.384 . S
H798 C804 0.930 . S
H799 C808 0.930 . S
H800 C813 0.929 . S
H801 C811 0.929 1_545 S
H802 C806 0.929 . S
H803 C812 0.929 . S
C804 H798 0.930 . S
C804 C805 1.367 . S
C804 C812 1.378 . S
C805 C804 1.367 . S
C805 C813 1.433 . S
C806 H802 0.929 . S
C806 C808 1.378 . S
C806 C810 1.350 . S
C807 C810 1.463 . S
C807 C812 1.350 . S
C807 N815 1.427 . S
C808 H799 0.930 . S
C808 C806 1.378 . S
C808 C809 1.378 . S
C809 C808 1.378 . S
C809 C811 1.435 . S
C810 C806 1.350 . S
C810 C807 1.463 . S
C810 N814 1.427 . S
C811 H801 0.929 1_565 S
C811 C809 1.435 . S
C811 N814 1.384 . S
C812 H803 0.929 . S
C812 C804 1.378 . S
C812 C807 1.350 . S
C813 H800 0.929 . S
C813 C805 1.433 . S
C813 N815 1.384 . S
N814 C810 1.427 . S
N814 C811 1.384 . S
N815 C807 1.427 . S
N815 C813 1.384 . S
H816 C822 0.930 . S
H817 C826 0.930 . S
H818 C831 0.929 . S
H819 C829 0.929 . S
H820 C824 0.929 . S
H821 C830 0.929 . S
C822 H816 0.930 . S
C822 C823 1.367 . S
C822 C830 1.378 . S
C823 C822 1.367 . S
C823 C831 1.433 . S
C824 H820 0.929 . S
C824 C826 1.378 . S
C824 C828 1.350 . S
C825 C828 1.463 . S
C825 C830 1.350 . S
C825 N833 1.427 . S
C826 H817 0.930 . S
C826 C824 1.378 . S
C826 C827 1.367 . S
C827 C826 1.367 . S
C827 C829 1.433 . S
C828 C824 1.350 . S
C828 C825 1.463 . S
C828 N832 1.427 . S
C829 H819 0.929 . S
C829 C827 1.433 . S
C829 N832 1.384 . S
C830 H821 0.929 . S
C830 C822 1.378 . S
C830 C825 1.350 . S
C831 H818 0.929 . S
C831 C823 1.433 . S
C831 N833 1.384 . S
N832 C828 1.427 . S
N832 C829 1.384 . S
N833 C825 1.427 . S
N833 C831 1.384 . S
H834 C840 0.930 . S
H835 C844 0.930 . S
H836 C849 0.929 1_554 S
H837 C847 0.929 . S
H838 C842 0.929 . S
H839 C848 0.929 . S
C840 H834 0.930 . S
C840 C841 1.373 . S
C840 C848 1.378 . S
C841 C840 1.373 . S
C841 C849 1.436 . S
C842 H838 0.929 . S
C842 C844 1.378 . S
C842 C846 1.350 . S
C843 C846 1.463 . S
C843 C848 1.350 . S
C843 N851 1.427 . S
C844 H835 0.930 . S
C844 C842 1.378 . S
C844 C845 1.367 . S
C845 C844 1.367 . S
C845 C847 1.433 . S
C846 C842 1.350 . S
C846 C843 1.463 . S
C846 N850 1.427 . S
C847 H837 0.929 . S
C847 C845 1.433 . S
C847 N850 1.384 . S
C848 H839 0.929 . S
C848 C840 1.378 . S
C848 C843 1.350 . S
C849 H836 0.929 1_556 S
C849 C841 1.436 . S
C849 N851 1.384 . S
N850 C846 1.427 . S
N850 C847 1.384 . S
N851 C843 1.427 . S
N851 C849 1.384 . S
H852 C858 0.930 . S
H853 C862 0.930 . S
H854 C867 0.929 . S
H855 C865 0.929 . S
H856 C860 0.929 . S
H857 C866 0.929 . S
C858 H852 0.930 . S
C858 C859 1.367 . S
C858 C866 1.378 . S
C859 C858 1.367 . S
C859 C867 1.433 . S
C860 H856 0.929 . S
C860 C862 1.378 . S
C860 C864 1.350 . S
C861 C864 1.463 . S
C861 C866 1.350 . S
C861 N869 1.427 . S
C862 H853 0.930 . S
C862 C860 1.378 . S
C862 C863 1.367 . S
C863 C862 1.367 . S
C863 C865 1.433 . S
C864 C860 1.350 . S
C864 C861 1.463 . S
C864 N868 1.427 . S
C865 H855 0.929 . S
C865 C863 1.433 . S
C865 N868 1.384 . S
C866 H857 0.929 . S
C866 C858 1.378 . S
C866 C861 1.350 . S
C867 H854 0.929 . S
C867 C859 1.433 . S
C867 N869 1.384 . S
N868 C864 1.427 . S
N868 C865 1.384 . S
N869 C861 1.427 . S
N869 C867 1.384 . S
H870 C876 0.930 . S
H871 C880 0.930 . S
H872 C885 0.929 1_556 S
H873 C883 0.929 . S
H874 C878 0.929 . S
H875 C884 0.929 . S
C876 H870 0.930 . S
C876 C877 1.374 . S
C876 C884 1.378 . S
C877 C876 1.374 . S
C877 C885 1.436 . S
C878 H874 0.929 . S
C878 C880 1.378 . S
C878 C882 1.350 . S
C879 C882 1.463 . S
C879 C884 1.350 . S
C879 N887 1.427 . S
C880 H871 0.930 . S
C880 C878 1.378 . S
C880 C881 1.367 . S
C881 C880 1.367 . S
C881 C883 1.433 . S
C882 C878 1.350 . S
C882 C879 1.463 . S
C882 N886 1.427 . S
C883 H873 0.929 . S
C883 C881 1.433 . S
C883 N886 1.384 . S
C884 H875 0.929 . S
C884 C876 1.378 . S
C884 C879 1.350 . S
C885 H872 0.929 1_554 S
C885 C877 1.436 . S
C885 N887 1.384 . S
N886 C882 1.427 . S
N886 C883 1.384 . S
N887 C879 1.427 . S
N887 C885 1.384 . S
H888 C894 0.930 . S
H889 C898 0.930 . S
H890 C903 0.929 . S
H891 C901 0.929 . S
H892 C896 0.929 . S
H893 C902 0.929 . S
C894 H888 0.930 . S
C894 C895 1.367 . S
C894 C902 1.378 . S
C895 C894 1.367 . S
C895 C903 1.433 . S
C896 H892 0.929 . S
C896 C898 1.378 . S
C896 C900 1.350 . S
C897 C900 1.463 . S
C897 C902 1.350 . S
C897 N905 1.427 . S
C898 H889 0.930 . S
C898 C896 1.378 . S
C898 C899 1.367 . S
C899 C898 1.367 . S
C899 C901 1.433 . S
C900 C896 1.350 . S
C900 C897 1.463 . S
C900 N904 1.427 . S
C901 H891 0.929 . S
C901 C899 1.433 . S
C901 N904 1.384 . S
C902 H893 0.929 . S
C902 C894 1.378 . S
C902 C897 1.350 . S
C903 H890 0.929 . S
C903 C895 1.433 . S
C903 N905 1.384 . S
N904 C900 1.427 . S
N904 C901 1.384 . S
N905 C897 1.427 . S
N905 C903 1.384 . S
H906 C912 0.930 1_455 S
H907 C916 0.930 . S
H908 C921 0.929 . S
H909 C919 0.929 . S
H910 C914 0.929 . S
H911 C920 0.929 . S
C912 H906 0.930 1_655 S
C912 C913 1.366 . S
C912 C920 1.378 . S
C913 C912 1.366 . S
C913 C921 1.431 . S
C914 H910 0.929 . S
C914 C916 1.378 . S
C914 C918 1.350 . S
C915 C918 1.463 . S
C915 C920 1.350 . S
C915 N923 1.427 . S
C916 H907 0.930 . S
C916 C914 1.378 . S
C916 C917 1.367 . S
C917 C916 1.367 . S
C917 C919 1.433 . S
C918 C914 1.350 . S
C918 C915 1.463 . S
C918 N922 1.427 . S
C919 H909 0.929 . S
C919 C917 1.433 . S
C919 N922 1.384 . S
C920 H911 0.929 . S
C920 C912 1.378 . S
C920 C915 1.350 . S
C921 H908 0.929 . S
C921 C913 1.431 . S
C921 N923 1.384 . S
N922 C918 1.427 . S
N922 C919 1.384 . S
N923 C915 1.427 . S
N923 C921 1.384 . S
H924 C930 0.930 . S
H925 C934 0.930 . S
H926 C939 0.929 . S
H927 C937 0.929 . S
H928 C932 0.929 . S
H929 C938 0.929 . S
C930 H924 0.930 . S
C930 C931 1.367 . S
C930 C938 1.378 . S
C931 C930 1.367 . S
C931 C939 1.433 . S
C932 H928 0.929 . S
C932 C934 1.378 . S
C932 C936 1.350 . S
C933 C936 1.463 . S
C933 C938 1.350 . S
C933 N941 1.427 . S
C934 H925 0.930 . S
C934 C932 1.378 . S
C934 C935 1.367 . S
C935 C934 1.367 . S
C935 C937 1.433 . S
C936 C932 1.350 . S
C936 C933 1.463 . S
C936 N940 1.427 . S
C937 H927 0.929 . S
C937 C935 1.433 . S
C937 N940 1.384 . S
C938 H929 0.929 . S
C938 C930 1.378 . S
C938 C933 1.350 . S
C939 H926 0.929 . S
C939 C931 1.433 . S
C939 N941 1.384 . S
N940 C936 1.427 . S
N940 C937 1.384 . S
N941 C933 1.427 . S
N941 C939 1.384 . S
H942 C948 0.930 1_655 S
H943 C952 0.930 . S
H944 C957 0.929 . S
H945 C955 0.929 . S
H946 C950 0.929 . S
H947 C956 0.929 . S
C948 H942 0.930 1_455 S
C948 C949 1.367 . S
C948 C956 1.378 . S
C949 C948 1.367 . S
C949 C957 1.433 . S
C950 H946 0.929 . S
C950 C952 1.378 . S
C950 C954 1.350 . S
C951 C954 1.463 . S
C951 C956 1.350 . S
C951 N959 1.427 . S
C952 H943 0.930 . S
C952 C950 1.378 . S
C952 C953 1.367 . S
C953 C952 1.367 . S
C953 C955 1.433 . S
C954 C950 1.350 . S
C954 C951 1.463 . S
C954 N958 1.427 . S
C955 H945 0.929 . S
C955 C953 1.433 . S
C955 N958 1.384 . S
C956 H947 0.929 . S
C956 C948 1.378 . S
C956 C951 1.350 . S
C957 H944 0.929 . S
C957 C949 1.433 . S
C957 N959 1.384 . S
N958 C954 1.427 . S
N958 C955 1.384 . S
N959 C951 1.427 . S
N959 C957 1.384 . S
H960 C966 0.930 . S
H961 C970 0.930 . S
H962 C975 0.929 . S
H963 C973 0.929 . S
H964 C968 0.929 . S
H965 C974 0.929 . S
C966 H960 0.930 . S
C966 C967 1.367 . S
C966 C974 1.378 . S
C967 C966 1.367 . S
C967 C975 1.433 . S
C968 H964 0.929 . S
C968 C970 1.378 . S
C968 C972 1.350 . S
C969 C972 1.463 . S
C969 C974 1.350 . S
C969 N977 1.427 . S
C970 H961 0.930 . S
C970 C968 1.378 . S
C970 C971 1.367 . S
C971 C970 1.367 . S
C971 C973 1.433 . S
C972 C968 1.350 . S
C972 C969 1.463 . S
C972 N976 1.427 . S
C973 H963 0.929 . S
C973 C971 1.433 . S
C973 N976 1.384 . S
C974 H965 0.929 . S
C974 C966 1.378 . S
C974 C969 1.350 . S
C975 H962 0.929 . S
C975 C967 1.433 . S
C975 N977 1.384 . S
N976 C972 1.427 . S
N976 C973 1.384 . S
N977 C969 1.427 . S
N977 C975 1.384 . S
H978 C984 0.930 . S
H979 C988 0.930 . S
H980 C993 0.929 . S
H981 C991 0.929 . S
H982 C986 0.929 . S
H983 C992 0.929 . S
C984 H978 0.930 . S
C984 C985 1.367 . S
C984 C992 1.378 . S
C985 C984 1.367 . S
C985 C993 1.433 . S
C986 H982 0.929 . S
C986 C988 1.378 . S
C986 C990 1.350 . S
C987 C990 1.463 . S
C987 C992 1.350 . S
C987 N995 1.427 . S
C988 H979 0.930 . S
C988 C986 1.378 . S
C988 C989 1.367 . S
C989 C988 1.367 . S
C989 C991 1.433 . S
C990 C986 1.350 . S
C990 C987 1.463 . S
C990 N994 1.427 . S
C991 H981 0.929 . S
C991 C989 1.433 . S
C991 N994 1.384 . S
C992 H983 0.929 . S
C992 C984 1.378 . S
C992 C987 1.350 . S
C993 H980 0.929 . S
C993 C985 1.433 . S
C993 N995 1.384 . S
N994 C990 1.427 . S
N994 C991 1.384 . S
N995 C987 1.427 . S
N995 C993 1.384 . S
H996 C1002 0.930 . S
H997 C1006 0.930 . S
H998 C1011 0.929 1_545 S
H999 C1009 0.929 . S
H1000 C1004 0.929 . S
H1001 C1010 0.929 . S
C1002 H996 0.930 . S
C1002 C1003 1.375 . S
C1002 C1010 1.378 . S
C1003 C1002 1.375 . S
C1003 C1011 1.436 . S
C1004 H1000 0.929 . S
C1004 C1006 1.378 . S
C1004 C1008 1.350 . S
C1005 C1008 1.463 . S
C1005 C1010 1.350 . S
C1005 N1013 1.427 . S
C1006 H997 0.930 . S
C1006 C1004 1.378 . S
C1006 C1007 1.367 . S
C1007 C1006 1.367 . S
C1007 C1009 1.433 . S
C1008 C1004 1.350 . S
C1008 C1005 1.463 . S
C1008 N1012 1.427 . S
C1009 H999 0.929 . S
C1009 C1007 1.433 . S
C1009 N1012 1.384 . S
C1010 H1001 0.929 . S
C1010 C1002 1.378 . S
C1010 C1005 1.350 . S
C1011 H998 0.929 1_565 S
C1011 C1003 1.436 . S
C1011 N1013 1.384 . S
N1012 C1008 1.427 . S
N1012 C1009 1.384 . S
N1013 C1005 1.427 . S
N1013 C1011 1.384 . S
H1014 C1020 0.930 . S
H1015 C1024 0.930 . S
H1016 C1029 0.929 . S
H1017 C1027 0.929 . S
H1018 C1022 0.929 . S
H1019 C1028 0.929 . S
C1020 H1014 0.930 . S
C1020 C1021 1.367 . S
C1020 C1028 1.378 . S
C1021 C1020 1.367 . S
C1021 C1029 1.433 . S
C1022 H1018 0.929 . S
C1022 C1024 1.378 . S
C1022 C1026 1.350 . S
C1023 C1026 1.463 . S
C1023 C1028 1.350 . S
C1023 N1031 1.427 . S
C1024 H1015 0.930 . S
C1024 C1022 1.378 . S
C1024 C1025 1.368 . S
C1025 C1024 1.368 . S
C1025 C1027 1.434 . S
C1026 C1022 1.350 . S
C1026 C1023 1.463 . S
C1026 N1030 1.427 . S
C1027 H1017 0.929 . S
C1027 C1025 1.434 . S
C1027 N1030 1.384 . S
C1028 H1019 0.929 . S
C1028 C1020 1.378 . S
C1028 C1023 1.350 . S
C1029 H1016 0.929 . S
C1029 C1021 1.433 . S
C1029 N1031 1.384 . S
N1030 C1026 1.427 . S
N1030 C1027 1.384 . S
N1031 C1023 1.427 . S
N1031 C1029 1.384 . S
H1032 C1038 0.930 . S
H1033 C1042 0.930 . S
H1034 C1047 0.929 . S
H1035 C1045 0.929 . S
H1036 C1040 0.929 . S
H1037 C1046 0.929 . S
C1038 H1032 0.930 . S
C1038 C1039 1.367 . S
C1038 C1046 1.378 . S
C1039 C1038 1.367 . S
C1039 C1047 1.433 . S
C1040 H1036 0.929 . S
C1040 C1042 1.378 . S
C1040 C1044 1.350 . S
C1041 C1044 1.463 . S
C1041 C1046 1.350 . S
C1041 N1049 1.427 . S
C1042 H1033 0.930 . S
C1042 C1040 1.378 . S
C1042 C1043 1.367 . S
C1043 C1042 1.367 . S
C1043 C1045 1.433 . S
C1044 C1040 1.350 . S
C1044 C1041 1.463 . S
C1044 N1048 1.427 . S
C1045 H1035 0.929 . S
C1045 C1043 1.433 . S
C1045 N1048 1.384 . S
C1046 H1037 0.929 . S
C1046 C1038 1.378 . S
C1046 C1041 1.350 . S
C1047 H1034 0.929 . S
C1047 C1039 1.433 . S
C1047 N1049 1.384 . S
N1048 C1044 1.427 . S
N1048 C1045 1.384 . S
N1049 C1041 1.427 . S
N1049 C1047 1.384 . S
H1050 C1056 0.930 . S
H1051 C1060 0.930 . S
H1052 C1065 0.929 . S
H1053 C1063 0.929 1_556 S
H1054 C1058 0.929 . S
H1055 C1064 0.929 . S
C1056 H1050 0.930 . S
C1056 C1057 1.367 . S
C1056 C1064 1.378 . S
C1057 C1056 1.367 . S
C1057 C1065 1.433 . S
C1058 H1054 0.929 . S
C1058 C1060 1.378 . S
C1058 C1062 1.350 . S
C1059 C1062 1.463 . S
C1059 C1064 1.350 . S
C1059 N1067 1.427 . S
C1060 H1051 0.930 . S
C1060 C1058 1.378 . S
C1060 C1061 1.377 . S
C1061 C1060 1.377 . S
C1061 C1063 1.435 . S
C1062 C1058 1.350 . S
C1062 C1059 1.463 . S
C1062 N1066 1.427 . S
C1063 H1053 0.929 1_554 S
C1063 C1061 1.435 . S
C1063 N1066 1.384 . S
C1064 H1055 0.929 . S
C1064 C1056 1.378 . S
C1064 C1059 1.350 . S
C1065 H1052 0.929 . S
C1065 C1057 1.433 . S
C1065 N1067 1.384 . S
N1066 C1062 1.427 . S
N1066 C1063 1.384 . S
N1067 C1059 1.427 . S
N1067 C1065 1.384 . S
H1068 C1074 0.930 . S
H1069 C1078 0.930 . S
H1070 C1083 0.929 . S
H1071 C1081 0.929 . S
H1072 C1076 0.929 . S
H1073 C1082 0.929 . S
C1074 H1068 0.930 . S
C1074 C1075 1.367 . S
C1074 C1082 1.378 . S
C1075 C1074 1.367 . S
C1075 C1083 1.433 . S
C1076 H1072 0.929 . S
C1076 C1078 1.378 . S
C1076 C1080 1.350 . S
C1077 C1080 1.463 . S
C1077 C1082 1.350 . S
C1077 N1085 1.427 . S
C1078 H1069 0.930 . S
C1078 C1076 1.378 . S
C1078 C1079 1.367 . S
C1079 C1078 1.367 . S
C1079 C1081 1.433 . S
C1080 C1076 1.350 . S
C1080 C1077 1.463 . S
C1080 N1084 1.427 . S
C1081 H1071 0.929 . S
C1081 C1079 1.433 . S
C1081 N1084 1.384 . S
C1082 H1073 0.929 . S
C1082 C1074 1.378 . S
C1082 C1077 1.350 . S
C1083 H1070 0.929 . S
C1083 C1075 1.433 . S
C1083 N1085 1.384 . S
N1084 C1080 1.427 . S
N1084 C1081 1.384 . S
N1085 C1077 1.427 . S
N1085 C1083 1.384 . S
H1086 C1092 0.930 . S
H1087 C1096 0.930 . S
H1088 C1101 0.929 1_554 S
H1089 C1099 0.929 . S
H1090 C1094 0.929 . S
H1091 C1100 0.929 . S
C1092 H1086 0.930 . S
C1092 C1093 1.377 . S
C1092 C1100 1.378 . S
C1093 C1092 1.377 . S
C1093 C1101 1.435 . S
C1094 H1090 0.929 . S
C1094 C1096 1.378 . S
C1094 C1098 1.350 . S
C1095 C1098 1.463 . S
C1095 C1100 1.350 . S
C1095 N1103 1.427 . S
C1096 H1087 0.930 . S
C1096 C1094 1.378 . S
C1096 C1097 1.367 . S
C1097 C1096 1.367 . S
C1097 C1099 1.433 . S
C1098 C1094 1.350 . S
C1098 C1095 1.463 . S
C1098 N1102 1.427 . S
C1099 H1089 0.929 . S
C1099 C1097 1.433 . S
C1099 N1102 1.384 . S
C1100 H1091 0.929 . S
C1100 C1092 1.378 . S
C1100 C1095 1.350 . S
C1101 H1088 0.929 1_556 S
C1101 C1093 1.435 . S
C1101 N1103 1.384 . S
N1102 C1098 1.427 . S
N1102 C1099 1.384 . S
N1103 C1095 1.427 . S
N1103 C1101 1.384 . S
H1104 C1110 0.930 . S
H1105 C1114 0.930 . S
H1106 C1119 0.929 . S
H1107 C1117 0.929 . S
H1108 C1112 0.929 . S
H1109 C1118 0.929 . S
C1110 H1104 0.930 . S
C1110 C1111 1.367 . S
C1110 C1118 1.378 . S
C1111 C1110 1.367 . S
C1111 C1119 1.433 . S
C1112 H1108 0.929 . S
C1112 C1114 1.378 . S
C1112 C1116 1.350 . S
C1113 C1116 1.463 . S
C1113 C1118 1.350 . S
C1113 N1121 1.427 . S
C1114 H1105 0.930 . S
C1114 C1112 1.378 . S
C1114 C1115 1.367 . S
C1115 C1114 1.367 . S
C1115 C1117 1.433 . S
C1116 C1112 1.350 . S
C1116 C1113 1.463 . S
C1116 N1120 1.427 . S
C1117 H1107 0.929 . S
C1117 C1115 1.433 . S
C1117 N1120 1.384 . S
C1118 H1109 0.929 . S
C1118 C1110 1.378 . S
C1118 C1113 1.350 . S
C1119 H1106 0.929 . S
C1119 C1111 1.433 . S
C1119 N1121 1.384 . S
N1120 C1116 1.427 . S
N1120 C1117 1.384 . S
N1121 C1113 1.427 . S
N1121 C1119 1.384 . S
H1122 C1128 0.930 1_655 S
H1123 C1132 0.930 . S
H1124 C1137 0.929 . S
H1125 C1135 0.929 . S
H1126 C1130 0.929 . S
H1127 C1136 0.929 . S
C1128 H1122 0.930 1_455 S
C1128 C1129 1.367 1_455 S
C1128 C1136 1.378 . S
C1129 C1128 1.367 1_655 S
C1129 C1137 1.436 1_655 S
C1130 H1126 0.929 . S
C1130 C1132 1.378 . S
C1130 C1134 1.350 . S
C1131 C1134 1.463 . S
C1131 C1136 1.350 . S
C1131 N1139 1.427 . S
C1132 H1123 0.930 . S
C1132 C1130 1.378 . S
C1132 C1133 1.367 . S
C1133 C1132 1.367 . S
C1133 C1135 1.433 . S
C1134 C1130 1.350 . S
C1134 C1131 1.463 . S
C1134 N1138 1.427 . S
C1135 H1125 0.929 . S
C1135 C1133 1.433 . S
C1135 N1138 1.384 . S
C1136 H1127 0.929 . S
C1136 C1128 1.378 . S
C1136 C1131 1.350 . S
C1137 H1124 0.929 . S
C1137 C1129 1.436 1_455 S
C1137 N1139 1.384 . S
N1138 C1134 1.427 . S
N1138 C1135 1.384 . S
N1139 C1131 1.427 . S
N1139 C1137 1.384 . S
H1140 C1146 0.930 . S
H1141 C1150 0.930 . S
H1142 C1155 0.929 . S
H1143 C1153 0.929 . S
H1144 C1148 0.929 . S
H1145 C1154 0.929 . S
C1146 H1140 0.930 . S
C1146 C1147 1.367 . S
C1146 C1154 1.378 . S
C1147 C1146 1.367 . S
C1147 C1155 1.433 . S
C1148 H1144 0.929 . S
C1148 C1150 1.378 . S
C1148 C1152 1.350 . S
C1149 C1152 1.463 . S
C1149 C1154 1.350 . S
C1149 N1157 1.427 . S
C1150 H1141 0.930 . S
C1150 C1148 1.378 . S
C1150 C1151 1.367 . S
C1151 C1150 1.367 . S
C1151 C1153 1.433 . S
C1152 C1148 1.350 . S
C1152 C1149 1.463 . S
C1152 N1156 1.427 . S
C1153 H1143 0.929 . S
C1153 C1151 1.433 . S
C1153 N1156 1.384 . S
C1154 H1145 0.929 . S
C1154 C1146 1.378 . S
C1154 C1149 1.350 . S
C1155 H1142 0.929 . S
C1155 C1147 1.433 . S
C1155 N1157 1.384 . S
N1156 C1152 1.427 . S
N1156 C1153 1.384 . S
N1157 C1149 1.427 . S
N1157 C1155 1.384 . S
H1158 C1164 0.930 . S
H1159 C1168 0.930 1_455 S
H1160 C1173 0.929 . S
H1161 C1171 0.929 . S
H1162 C1166 0.929 . S
H1163 C1172 0.929 . S
C1164 H1158 0.930 . S
C1164 C1165 1.367 . S
C1164 C1172 1.378 . S
C1165 C1164 1.367 . S
C1165 C1173 1.433 . S
C1166 H1162 0.929 . S
C1166 C1168 1.378 . S
C1166 C1170 1.350 . S
C1167 C1170 1.463 . S
C1167 C1172 1.350 . S
C1167 N1175 1.427 . S
C1168 H1159 0.930 1_655 S
C1168 C1166 1.378 . S
C1168 C1169 1.366 . S
C1169 C1168 1.366 . S
C1169 C1171 1.430 . S
C1170 C1166 1.350 . S
C1170 C1167 1.463 . S
C1170 N1174 1.427 . S
C1171 H1161 0.929 . S
C1171 C1169 1.430 . S
C1171 N1174 1.384 . S
C1172 H1163 0.929 . S
C1172 C1164 1.378 . S
C1172 C1167 1.350 . S
C1173 H1160 0.929 . S
C1173 C1165 1.433 . S
C1173 N1175 1.384 . S
N1174 C1170 1.427 . S
N1174 C1171 1.384 . S
N1175 C1167 1.427 . S
N1175 C1173 1.384 . S
H1176 C1182 0.930 . S
H1177 C1186 0.930 . S
H1178 C1191 0.929 . S
H1179 C1189 0.929 . S
H1180 C1184 0.929 . S
H1181 C1190 0.929 . S
C1182 H1176 0.930 . S
C1182 C1183 1.367 . S
C1182 C1190 1.378 . S
C1183 C1182 1.367 . S
C1183 C1191 1.433 . S
C1184 H1180 0.929 . S
C1184 C1186 1.378 . S
C1184 C1188 1.350 . S
C1185 C1188 1.463 . S
C1185 C1190 1.350 . S
C1185 N1193 1.427 . S
C1186 H1177 0.930 . S
C1186 C1184 1.378 . S
C1186 C1187 1.367 . S
C1187 C1186 1.367 . S
C1187 C1189 1.433 . S
C1188 C1184 1.350 . S
C1188 C1185 1.463 . S
C1188 N1192 1.427 . S
C1189 H1179 0.929 . S
C1189 C1187 1.433 . S
C1189 N1192 1.384 . S
C1190 H1181 0.929 . S
C1190 C1182 1.378 . S
C1190 C1185 1.350 . S
C1191 H1178 0.929 . S
C1191 C1183 1.433 . S
C1191 N1193 1.384 . S
N1192 C1188 1.427 . S
N1192 C1189 1.384 . S
N1193 C1185 1.427 . S
N1193 C1191 1.384 . S
H1194 C1200 0.930 . S
H1195 C1204 0.930 . S
H1196 C1209 0.929 . S
H1197 C1207 0.929 . S
H1198 C1202 0.929 . S
H1199 C1208 0.929 . S
C1200 H1194 0.930 . S
C1200 C1201 1.367 . S
C1200 C1208 1.378 . S
C1201 C1200 1.367 . S
C1201 C1209 1.433 . S
C1202 H1198 0.929 . S
C1202 C1204 1.378 . S
C1202 C1206 1.350 . S
C1203 C1206 1.463 . S
C1203 C1208 1.350 . S
C1203 N1211 1.427 . S
C1204 H1195 0.930 . S
C1204 C1202 1.378 . S
C1204 C1205 1.367 . S
C1205 C1204 1.367 . S
C1205 C1207 1.433 . S
C1206 C1202 1.350 . S
C1206 C1203 1.463 . S
C1206 N1210 1.427 . S
C1207 H1197 0.929 . S
C1207 C1205 1.433 . S
C1207 N1210 1.384 . S
C1208 H1199 0.929 . S
C1208 C1200 1.378 . S
C1208 C1203 1.350 . S
C1209 H1196 0.929 . S
C1209 C1201 1.433 . S
C1209 N1211 1.384 . S
N1210 C1206 1.427 . S
N1210 C1207 1.384 . S
N1211 C1203 1.427 . S
N1211 C1209 1.384 . S
H1212 C1218 0.930 . S
H1213 C1222 0.930 . S
H1214 C1227 0.929 . S
H1215 C1225 0.929 . S
H1216 C1220 0.929 . S
H1217 C1226 0.929 . S
C1218 H1212 0.930 . S
C1218 C1219 1.367 . S
C1218 C1226 1.378 . S
C1219 C1218 1.367 . S
C1219 C1227 1.433 . S
C1220 H1216 0.929 . S
C1220 C1222 1.378 . S
C1220 C1224 1.350 . S
C1221 C1224 1.463 . S
C1221 C1226 1.350 . S
C1221 N1229 1.427 . S
C1222 H1213 0.930 . S
C1222 C1220 1.378 . S
C1222 C1223 1.367 . S
C1223 C1222 1.367 . S
C1223 C1225 1.433 . S
C1224 C1220 1.350 . S
C1224 C1221 1.463 . S
C1224 N1228 1.427 . S
C1225 H1215 0.929 . S
C1225 C1223 1.433 . S
C1225 N1228 1.384 . S
C1226 H1217 0.929 . S
C1226 C1218 1.378 . S
C1226 C1221 1.350 . S
C1227 H1214 0.929 . S
C1227 C1219 1.433 . S
C1227 N1229 1.384 . S
N1228 C1224 1.427 . S
N1228 C1225 1.384 . S
N1229 C1221 1.427 . S
N1229 C1227 1.384 . S
H1230 C1236 0.930 . S
H1231 C1240 0.930 . S
H1232 C1245 0.929 . S
H1233 C1243 0.929 . S
H1234 C1238 0.929 . S
H1235 C1244 0.929 . S
C1236 H1230 0.930 . S
C1236 C1237 1.367 . S
C1236 C1244 1.378 . S
C1237 C1236 1.367 . S
C1237 C1245 1.433 . S
C1238 H1234 0.929 . S
C1238 C1240 1.378 . S
C1238 C1242 1.350 . S
C1239 C1242 1.463 . S
C1239 C1244 1.350 . S
C1239 N1247 1.427 . S
C1240 H1231 0.930 . S
C1240 C1238 1.378 . S
C1240 C1241 1.367 . S
C1241 C1240 1.367 . S
C1241 C1243 1.433 . S
C1242 C1238 1.350 . S
C1242 C1239 1.463 . S
C1242 N1246 1.427 . S
C1243 H1233 0.929 . S
C1243 C1241 1.433 . S
C1243 N1246 1.384 . S
C1244 H1235 0.929 . S
C1244 C1236 1.378 . S
C1244 C1239 1.350 . S
C1245 H1232 0.929 . S
C1245 C1237 1.433 . S
C1245 N1247 1.384 . S
N1246 C1242 1.427 . S
N1246 C1243 1.384 . S
N1247 C1239 1.427 . S
N1247 C1245 1.384 . S
H1248 C1254 0.930 . S
H1249 C1258 0.930 . S
H1250 C1263 0.929 . S
H1251 C1261 0.929 . S
H1252 C1256 0.929 . S
H1253 C1262 0.929 . S
C1254 H1248 0.930 . S
C1254 C1255 1.367 . S
C1254 C1262 1.378 . S
C1255 C1254 1.367 . S
C1255 C1263 1.433 . S
C1256 H1252 0.929 . S
C1256 C1258 1.378 . S
C1256 C1260 1.350 . S
C1257 C1260 1.463 . S
C1257 C1262 1.350 . S
C1257 N1265 1.427 . S
C1258 H1249 0.930 . S
C1258 C1256 1.378 . S
C1258 C1259 1.367 . S
C1259 C1258 1.367 . S
C1259 C1261 1.433 . S
C1260 C1256 1.350 . S
C1260 C1257 1.463 . S
C1260 N1264 1.427 . S
C1261 H1251 0.929 . S
C1261 C1259 1.433 . S
C1261 N1264 1.384 . S
C1262 H1253 0.929 . S
C1262 C1254 1.378 . S
C1262 C1257 1.350 . S
C1263 H1250 0.929 . S
C1263 C1255 1.433 . S
C1263 N1265 1.384 . S
N1264 C1260 1.427 . S
N1264 C1261 1.384 . S
N1265 C1257 1.427 . S
N1265 C1263 1.384 . S
H1266 C1272 0.930 . S
H1267 C1276 0.930 . S
H1268 C1281 0.929 . S
H1269 C1279 0.929 . S
H1270 C1274 0.929 . S
H1271 C1280 0.929 . S
C1272 H1266 0.930 . S
C1272 C1273 1.367 . S
C1272 C1280 1.378 . S
C1273 C1272 1.367 . S
C1273 C1281 1.433 . S
C1274 H1270 0.929 . S
C1274 C1276 1.378 . S
C1274 C1278 1.350 . S
C1275 C1278 1.463 . S
C1275 C1280 1.350 . S
C1275 N1283 1.427 . S
C1276 H1267 0.930 . S
C1276 C1274 1.378 . S
C1276 C1277 1.367 . S
C1277 C1276 1.367 . S
C1277 C1279 1.433 . S
C1278 C1274 1.350 . S
C1278 C1275 1.463 . S
C1278 N1282 1.427 . S
C1279 H1269 0.929 . S
C1279 C1277 1.433 . S
C1279 N1282 1.384 . S
C1280 H1271 0.929 . S
C1280 C1272 1.378 . S
C1280 C1275 1.350 . S
C1281 H1268 0.929 . S
C1281 C1273 1.433 . S
C1281 N1283 1.384 . S
N1282 C1278 1.427 . S
N1282 C1279 1.384 . S
N1283 C1275 1.427 . S
N1283 C1281 1.384 . S
H1284 C1290 0.930 . S
H1285 C1294 0.930 . S
H1286 C1299 0.929 . S
H1287 C1297 0.929 . S
H1288 C1292 0.929 . S
H1289 C1298 0.929 . S
C1290 H1284 0.930 . S
C1290 C1291 1.367 . S
C1290 C1298 1.378 . S
C1291 C1290 1.367 . S
C1291 C1299 1.433 . S
C1292 H1288 0.929 . S
C1292 C1294 1.378 . S
C1292 C1296 1.350 . S
C1293 C1296 1.463 . S
C1293 C1298 1.350 . S
C1293 N1301 1.427 . S
C1294 H1285 0.930 . S
C1294 C1292 1.378 . S
C1294 C1295 1.367 . S
C1295 C1294 1.367 . S
C1295 C1297 1.433 . S
C1296 C1292 1.350 . S
C1296 C1293 1.463 . S
C1296 N1300 1.427 . S
C1297 H1287 0.929 . S
C1297 C1295 1.433 . S
C1297 N1300 1.384 . S
C1298 H1289 0.929 . S
C1298 C1290 1.378 . S
C1298 C1293 1.350 . S
C1299 H1286 0.929 . S
C1299 C1291 1.433 . S
C1299 N1301 1.384 . S
N1300 C1296 1.427 . S
N1300 C1297 1.384 . S
N1301 C1293 1.427 . S
N1301 C1299 1.384 . S
H1302 C1308 0.930 . S
H1303 C1312 0.930 . S
H1304 C1317 0.929 . S
H1305 C1315 0.929 . S
H1306 C1310 0.929 . S
H1307 C1316 0.929 . S
C1308 H1302 0.930 . S
C1308 C1309 1.367 . S
C1308 C1316 1.378 . S
C1309 C1308 1.367 . S
C1309 C1317 1.433 . S
C1310 H1306 0.929 . S
C1310 C1312 1.378 . S
C1310 C1314 1.350 . S
C1311 C1314 1.463 . S
C1311 C1316 1.350 . S
C1311 N1319 1.427 . S
C1312 H1303 0.930 . S
C1312 C1310 1.378 . S
C1312 C1313 1.367 . S
C1313 C1312 1.367 . S
C1313 C1315 1.433 . S
C1314 C1310 1.350 . S
C1314 C1311 1.463 . S
C1314 N1318 1.427 . S
C1315 H1305 0.929 . S
C1315 C1313 1.433 . S
C1315 N1318 1.384 . S
C1316 H1307 0.929 . S
C1316 C1308 1.378 . S
C1316 C1311 1.350 . S
C1317 H1304 0.929 . S
C1317 C1309 1.433 . S
C1317 N1319 1.384 . S
N1318 C1314 1.427 . S
N1318 C1315 1.384 . S
N1319 C1311 1.427 . S
N1319 C1317 1.384 . S
H1320 C1326 0.930 . S
H1321 C1330 0.930 . S
H1322 C1335 0.929 . S
H1323 C1333 0.929 . S
H1324 C1328 0.929 . S
H1325 C1334 0.929 . S
C1326 H1320 0.930 . S
C1326 C1327 1.367 . S
C1326 C1334 1.378 . S
C1327 C1326 1.367 . S
C1327 C1335 1.433 . S
C1328 H1324 0.929 . S
C1328 C1330 1.378 . S
C1328 C1332 1.350 . S
C1329 C1332 1.463 . S
C1329 C1334 1.350 . S
C1329 N1337 1.427 . S
C1330 H1321 0.930 . S
C1330 C1328 1.378 . S
C1330 C1331 1.367 . S
C1331 C1330 1.367 . S
C1331 C1333 1.433 . S
C1332 C1328 1.350 . S
C1332 C1329 1.463 . S
C1332 N1336 1.427 . S
C1333 H1323 0.929 . S
C1333 C1331 1.433 . S
C1333 N1336 1.384 . S
C1334 H1325 0.929 . S
C1334 C1326 1.378 . S
C1334 C1329 1.350 . S
C1335 H1322 0.929 . S
C1335 C1327 1.433 . S
C1335 N1337 1.384 . S
N1336 C1332 1.427 . S
N1336 C1333 1.384 . S
N1337 C1329 1.427 . S
N1337 C1335 1.384 . S
H1338 C1344 0.930 . S
H1339 C1348 0.930 . S
H1340 C1353 0.929 . S
H1341 C1351 0.929 . S
H1342 C1346 0.929 . S
H1343 C1352 0.929 . S
C1344 H1338 0.930 . S
C1344 C1345 1.367 . S
C1344 C1352 1.378 . S
C1345 C1344 1.367 . S
C1345 C1353 1.433 . S
C1346 H1342 0.929 . S
C1346 C1348 1.378 . S
C1346 C1350 1.350 . S
C1347 C1350 1.463 . S
C1347 C1352 1.350 . S
C1347 N1355 1.427 . S
C1348 H1339 0.930 . S
C1348 C1346 1.378 . S
C1348 C1349 1.367 . S
C1349 C1348 1.367 . S
C1349 C1351 1.433 . S
C1350 C1346 1.350 . S
C1350 C1347 1.463 . S
C1350 N1354 1.427 . S
C1351 H1341 0.929 . S
C1351 C1349 1.433 . S
C1351 N1354 1.384 . S
C1352 H1343 0.929 . S
C1352 C1344 1.378 . S
C1352 C1347 1.350 . S
C1353 H1340 0.929 . S
C1353 C1345 1.433 . S
C1353 N1355 1.384 . S
N1354 C1350 1.427 . S
N1354 C1351 1.384 . S
N1355 C1347 1.427 . S
N1355 C1353 1.384 . S
H1356 C1362 0.930 . S
H1357 C1366 0.930 . S
H1358 C1371 0.929 . S
H1359 C1369 0.929 . S
H1360 C1364 0.929 . S
H1361 C1370 0.929 . S
C1362 H1356 0.930 . S
C1362 C1363 1.367 . S
C1362 C1370 1.378 . S
C1363 C1362 1.367 . S
C1363 C1371 1.433 . S
C1364 H1360 0.929 . S
C1364 C1366 1.378 . S
C1364 C1368 1.350 . S
C1365 C1368 1.463 . S
C1365 C1370 1.350 . S
C1365 N1373 1.427 . S
C1366 H1357 0.930 . S
C1366 C1364 1.378 . S
C1366 C1367 1.367 . S
C1367 C1366 1.367 . S
C1367 C1369 1.433 . S
C1368 C1364 1.350 . S
C1368 C1365 1.463 . S
C1368 N1372 1.427 . S
C1369 H1359 0.929 . S
C1369 C1367 1.433 . S
C1369 N1372 1.384 . S
C1370 H1361 0.929 . S
C1370 C1362 1.378 . S
C1370 C1365 1.350 . S
C1371 H1358 0.929 . S
C1371 C1363 1.433 . S
C1371 N1373 1.384 . S
N1372 C1368 1.427 . S
N1372 C1369 1.384 . S
N1373 C1365 1.427 . S
N1373 C1371 1.384 . S
H1374 C1380 0.930 . S
H1375 C1384 0.930 . S
H1376 C1389 0.929 . S
H1377 C1387 0.929 . S
H1378 C1382 0.929 . S
H1379 C1388 0.929 . S
C1380 H1374 0.930 . S
C1380 C1381 1.367 . S
C1380 C1388 1.378 . S
C1381 C1380 1.367 . S
C1381 C1389 1.433 . S
C1382 H1378 0.929 . S
C1382 C1384 1.378 . S
C1382 C1386 1.350 . S
C1383 C1386 1.463 . S
C1383 C1388 1.350 . S
C1383 N1391 1.427 . S
C1384 H1375 0.930 . S
C1384 C1382 1.378 . S
C1384 C1385 1.367 . S
C1385 C1384 1.367 . S
C1385 C1387 1.433 . S
C1386 C1382 1.350 . S
C1386 C1383 1.463 . S
C1386 N1390 1.427 . S
C1387 H1377 0.929 . S
C1387 C1385 1.433 . S
C1387 N1390 1.384 . S
C1388 H1379 0.929 . S
C1388 C1380 1.378 . S
C1388 C1383 1.350 . S
C1389 H1376 0.929 . S
C1389 C1381 1.433 . S
C1389 N1391 1.384 . S
N1390 C1386 1.427 . S
N1390 C1387 1.384 . S
N1391 C1383 1.427 . S
N1391 C1389 1.384 . S
H1392 C1398 0.930 . S
H1393 C1402 0.930 . S
H1394 C1407 0.929 . S
H1395 C1405 0.929 . S
H1396 C1400 0.929 . S
H1397 C1406 0.929 . S
C1398 H1392 0.930 . S
C1398 C1399 1.367 . S
C1398 C1406 1.378 . S
C1399 C1398 1.367 . S
C1399 C1407 1.433 . S
C1400 H1396 0.929 . S
C1400 C1402 1.378 . S
C1400 C1404 1.350 . S
C1401 C1404 1.463 . S
C1401 C1406 1.350 . S
C1401 N1409 1.427 . S
C1402 H1393 0.930 . S
C1402 C1400 1.378 . S
C1402 C1403 1.367 . S
C1403 C1402 1.367 . S
C1403 C1405 1.433 . S
C1404 C1400 1.350 . S
C1404 C1401 1.463 . S
C1404 N1408 1.427 . S
C1405 H1395 0.929 . S
C1405 C1403 1.433 . S
C1405 N1408 1.384 . S
C1406 H1397 0.929 . S
C1406 C1398 1.378 . S
C1406 C1401 1.350 . S
C1407 H1394 0.929 . S
C1407 C1399 1.433 . S
C1407 N1409 1.384 . S
N1408 C1404 1.427 . S
N1408 C1405 1.384 . S
N1409 C1401 1.427 . S
N1409 C1407 1.384 . S
H1410 C1416 0.930 . S
H1411 C1420 0.930 . S
H1412 C1425 0.929 . S
H1413 C1423 0.929 . S
H1414 C1418 0.929 . S
H1415 C1424 0.929 . S
C1416 H1410 0.930 . S
C1416 C1417 1.367 . S
C1416 C1424 1.378 . S
C1417 C1416 1.367 . S
C1417 C1425 1.433 . S
C1418 H1414 0.929 . S
C1418 C1420 1.378 . S
C1418 C1422 1.350 . S
C1419 C1422 1.463 . S
C1419 C1424 1.350 . S
C1419 N1427 1.427 . S
C1420 H1411 0.930 . S
C1420 C1418 1.378 . S
C1420 C1421 1.367 . S
C1421 C1420 1.367 . S
C1421 C1423 1.433 . S
C1422 C1418 1.350 . S
C1422 C1419 1.463 . S
C1422 N1426 1.427 . S
C1423 H1413 0.929 . S
C1423 C1421 1.433 . S
C1423 N1426 1.384 . S
C1424 H1415 0.929 . S
C1424 C1416 1.378 . S
C1424 C1419 1.350 . S
C1425 H1412 0.929 . S
C1425 C1417 1.433 . S
C1425 N1427 1.384 . S
N1426 C1422 1.427 . S
N1426 C1423 1.384 . S
N1427 C1419 1.427 . S
N1427 C1425 1.384 . S
H1428 C1434 0.930 . S
H1429 C1438 0.930 . S
H1430 C1443 0.929 . S
H1431 C1441 0.929 . S
H1432 C1436 0.929 . S
H1433 C1442 0.929 . S
C1434 H1428 0.930 . S
C1434 C1435 1.367 . S
C1434 C1442 1.378 . S
C1435 C1434 1.367 . S
C1435 C1443 1.433 . S
C1436 H1432 0.929 . S
C1436 C1438 1.378 . S
C1436 C1440 1.350 . S
C1437 C1440 1.463 . S
C1437 C1442 1.350 . S
C1437 N1445 1.427 . S
C1438 H1429 0.930 . S
C1438 C1436 1.378 . S
C1438 C1439 1.367 . S
C1439 C1438 1.367 . S
C1439 C1441 1.433 . S
C1440 C1436 1.350 . S
C1440 C1437 1.463 . S
C1440 N1444 1.427 . S
C1441 H1431 0.929 . S
C1441 C1439 1.433 . S
C1441 N1444 1.384 . S
C1442 H1433 0.929 . S
C1442 C1434 1.378 . S
C1442 C1437 1.350 . S
C1443 H1430 0.929 . S
C1443 C1435 1.433 . S
C1443 N1445 1.384 . S
N1444 C1440 1.427 . S
N1444 C1441 1.384 . S
N1445 C1437 1.427 . S
N1445 C1443 1.384 . S
H1446 C1452 0.930 . S
H1447 C1456 0.930 . S
H1448 C1461 0.929 . S
H1449 C1459 0.929 . S
H1450 C1454 0.929 . S
H1451 C1460 0.929 . S
C1452 H1446 0.930 . S
C1452 C1453 1.367 . S
C1452 C1460 1.378 . S
C1453 C1452 1.367 . S
C1453 C1461 1.433 . S
C1454 H1450 0.929 . S
C1454 C1456 1.378 . S
C1454 C1458 1.350 . S
C1455 C1458 1.463 . S
C1455 C1460 1.350 . S
C1455 N1463 1.427 . S
C1456 H1447 0.930 . S
C1456 C1454 1.378 . S
C1456 C1457 1.367 . S
C1457 C1456 1.367 . S
C1457 C1459 1.433 . S
C1458 C1454 1.350 . S
C1458 C1455 1.463 . S
C1458 N1462 1.427 . S
C1459 H1449 0.929 . S
C1459 C1457 1.433 . S
C1459 N1462 1.384 . S
C1460 H1451 0.929 . S
C1460 C1452 1.378 . S
C1460 C1455 1.350 . S
C1461 H1448 0.929 . S
C1461 C1453 1.433 . S
C1461 N1463 1.384 . S
N1462 C1458 1.427 . S
N1462 C1459 1.384 . S
N1463 C1455 1.427 . S
N1463 C1461 1.384 . S
H1464 C1470 0.930 . S
H1465 C1474 0.930 . S
H1466 C1479 0.929 . S
H1467 C1477 0.929 . S
H1468 C1472 0.929 . S
H1469 C1478 0.929 . S
C1470 H1464 0.930 . S
C1470 C1471 1.367 . S
C1470 C1478 1.378 . S
C1471 C1470 1.367 . S
C1471 C1479 1.433 . S
C1472 H1468 0.929 . S
C1472 C1474 1.378 . S
C1472 C1476 1.350 . S
C1473 C1476 1.463 . S
C1473 C1478 1.350 . S
C1473 N1481 1.427 . S
C1474 H1465 0.930 . S
C1474 C1472 1.378 . S
C1474 C1475 1.367 . S
C1475 C1474 1.367 . S
C1475 C1477 1.433 . S
C1476 C1472 1.350 . S
C1476 C1473 1.463 . S
C1476 N1480 1.427 . S
C1477 H1467 0.929 . S
C1477 C1475 1.433 . S
C1477 N1480 1.384 . S
C1478 H1469 0.929 . S
C1478 C1470 1.378 . S
C1478 C1473 1.350 . S
C1479 H1466 0.929 . S
C1479 C1471 1.433 . S
C1479 N1481 1.384 . S
N1480 C1476 1.427 . S
N1480 C1477 1.384 . S
N1481 C1473 1.427 . S
N1481 C1479 1.384 . S
H1482 C1488 0.930 . S
H1483 C1492 0.930 . S
H1484 C1497 0.929 . S
H1485 C1495 0.929 . S
H1486 C1490 0.929 . S
H1487 C1496 0.929 . S
C1488 H1482 0.930 . S
C1488 C1489 1.367 . S
C1488 C1496 1.378 . S
C1489 C1488 1.367 . S
C1489 C1497 1.433 . S
C1490 H1486 0.929 . S
C1490 C1492 1.378 . S
C1490 C1494 1.350 . S
C1491 C1494 1.463 . S
C1491 C1496 1.350 . S
C1491 N1499 1.427 . S
C1492 H1483 0.930 . S
C1492 C1490 1.378 . S
C1492 C1493 1.367 . S
C1493 C1492 1.367 . S
C1493 C1495 1.433 . S
C1494 C1490 1.350 . S
C1494 C1491 1.463 . S
C1494 N1498 1.427 . S
C1495 H1485 0.929 . S
C1495 C1493 1.433 . S
C1495 N1498 1.384 . S
C1496 H1487 0.929 . S
C1496 C1488 1.378 . S
C1496 C1491 1.350 . S
C1497 H1484 0.929 . S
C1497 C1489 1.433 . S
C1497 N1499 1.384 . S
N1498 C1494 1.427 . S
N1498 C1495 1.384 . S
N1499 C1491 1.427 . S
N1499 C1497 1.384 . S
H1500 C1506 0.930 . S
H1501 C1510 0.930 . S
H1502 C1515 0.929 . S
H1503 C1513 0.929 . S
H1504 C1508 0.929 . S
H1505 C1514 0.929 . S
C1506 H1500 0.930 . S
C1506 C1507 1.367 . S
C1506 C1514 1.378 . S
C1507 C1506 1.367 . S
C1507 C1515 1.433 . S
C1508 H1504 0.929 . S
C1508 C1510 1.378 . S
C1508 C1512 1.350 . S
C1509 C1512 1.463 . S
C1509 C1514 1.350 . S
C1509 N1517 1.427 . S
C1510 H1501 0.930 . S
C1510 C1508 1.378 . S
C1510 C1511 1.367 . S
C1511 C1510 1.367 . S
C1511 C1513 1.433 . S
C1512 C1508 1.350 . S
C1512 C1509 1.463 . S
C1512 N1516 1.427 . S
C1513 H1503 0.929 . S
C1513 C1511 1.433 . S
C1513 N1516 1.384 . S
C1514 H1505 0.929 . S
C1514 C1506 1.378 . S
C1514 C1509 1.350 . S
C1515 H1502 0.929 . S
C1515 C1507 1.433 . S
C1515 N1517 1.384 . S
N1516 C1512 1.427 . S
N1516 C1513 1.384 . S
N1517 C1509 1.427 . S
N1517 C1515 1.384 . S
H1518 C1524 0.930 . S
H1519 C1528 0.930 . S
H1520 C1533 0.929 . S
H1521 C1531 0.929 . S
H1522 C1526 0.929 . S
H1523 C1532 0.929 . S
C1524 H1518 0.930 . S
C1524 C1525 1.367 . S
C1524 C1532 1.378 . S
C1525 C1524 1.367 . S
C1525 C1533 1.433 . S
C1526 H1522 0.929 . S
C1526 C1528 1.378 . S
C1526 C1530 1.350 . S
C1527 C1530 1.463 . S
C1527 C1532 1.350 . S
C1527 N1535 1.427 . S
C1528 H1519 0.930 . S
C1528 C1526 1.378 . S
C1528 C1529 1.367 . S
C1529 C1528 1.367 . S
C1529 C1531 1.433 . S
C1530 C1526 1.350 . S
C1530 C1527 1.463 . S
C1530 N1534 1.427 . S
C1531 H1521 0.929 . S
C1531 C1529 1.433 . S
C1531 N1534 1.384 . S
C1532 H1523 0.929 . S
C1532 C1524 1.378 . S
C1532 C1527 1.350 . S
C1533 H1520 0.929 . S
C1533 C1525 1.433 . S
C1533 N1535 1.384 . S
N1534 C1530 1.427 . S
N1534 C1531 1.384 . S
N1535 C1527 1.427 . S
N1535 C1533 1.384 . S
H1536 C1542 0.930 . S
H1537 C1546 0.930 . S
H1538 C1551 0.929 . S
H1539 C1549 0.929 . S
H1540 C1544 0.929 . S
H1541 C1550 0.929 . S
C1542 H1536 0.930 . S
C1542 C1543 1.367 . S
C1542 C1550 1.378 . S
C1543 C1542 1.367 . S
C1543 C1551 1.433 . S
C1544 H1540 0.929 . S
C1544 C1546 1.378 . S
C1544 C1548 1.350 . S
C1545 C1548 1.463 . S
C1545 C1550 1.350 . S
C1545 N1553 1.427 . S
C1546 H1537 0.930 . S
C1546 C1544 1.378 . S
C1546 C1547 1.367 . S
C1547 C1546 1.367 . S
C1547 C1549 1.433 . S
C1548 C1544 1.350 . S
C1548 C1545 1.463 . S
C1548 N1552 1.427 . S
C1549 H1539 0.929 . S
C1549 C1547 1.433 . S
C1549 N1552 1.384 . S
C1550 H1541 0.929 . S
C1550 C1542 1.378 . S
C1550 C1545 1.350 . S
C1551 H1538 0.929 . S
C1551 C1543 1.433 . S
C1551 N1553 1.384 . S
N1552 C1548 1.427 . S
N1552 C1549 1.384 . S
N1553 C1545 1.427 . S
N1553 C1551 1.384 . S
H1554 C1560 0.930 . S
H1555 C1564 0.930 . S
H1556 C1569 0.929 . S
H1557 C1567 0.929 . S
H1558 C1562 0.929 . S
H1559 C1568 0.929 . S
C1560 H1554 0.930 . S
C1560 C1561 1.367 . S
C1560 C1568 1.378 . S
C1561 C1560 1.367 . S
C1561 C1569 1.433 . S
C1562 H1558 0.929 . S
C1562 C1564 1.378 . S
C1562 C1566 1.350 . S
C1563 C1566 1.463 . S
C1563 C1568 1.350 . S
C1563 N1571 1.427 . S
C1564 H1555 0.930 . S
C1564 C1562 1.378 . S
C1564 C1565 1.367 . S
C1565 C1564 1.367 . S
C1565 C1567 1.433 . S
C1566 C1562 1.350 . S
C1566 C1563 1.463 . S
C1566 N1570 1.427 . S
C1567 H1557 0.929 . S
C1567 C1565 1.433 . S
C1567 N1570 1.384 . S
C1568 H1559 0.929 . S
C1568 C1560 1.378 . S
C1568 C1563 1.350 . S
C1569 H1556 0.929 . S
C1569 C1561 1.433 . S
C1569 N1571 1.384 . S
N1570 C1566 1.427 . S
N1570 C1567 1.384 . S
N1571 C1563 1.427 . S
N1571 C1569 1.384 . S
H1572 C1578 0.930 . S
H1573 C1582 0.930 . S
H1574 C1587 0.929 . S
H1575 C1585 0.929 . S
H1576 C1580 0.929 . S
H1577 C1586 0.929 . S
C1578 H1572 0.930 . S
C1578 C1579 1.367 . S
C1578 C1586 1.378 . S
C1579 C1578 1.367 . S
C1579 C1587 1.433 . S
C1580 H1576 0.929 . S
C1580 C1582 1.378 . S
C1580 C1584 1.350 . S
C1581 C1584 1.463 . S
C1581 C1586 1.350 . S
C1581 N1589 1.427 . S
C1582 H1573 0.930 . S
C1582 C1580 1.378 . S
C1582 C1583 1.367 . S
C1583 C1582 1.367 . S
C1583 C1585 1.433 . S
C1584 C1580 1.350 . S
C1584 C1581 1.463 . S
C1584 N1588 1.427 . S
C1585 H1575 0.929 . S
C1585 C1583 1.433 . S
C1585 N1588 1.384 . S
C1586 H1577 0.929 . S
C1586 C1578 1.378 . S
C1586 C1581 1.350 . S
C1587 H1574 0.929 . S
C1587 C1579 1.433 . S
C1587 N1589 1.384 . S
N1588 C1584 1.427 . S
N1588 C1585 1.384 . S
N1589 C1581 1.427 . S
N1589 C1587 1.384 . S
H1590 C1596 0.930 . S
H1591 C1600 0.930 . S
H1592 C1605 0.929 . S
H1593 C1603 0.929 . S
H1594 C1598 0.929 . S
H1595 C1604 0.929 . S
C1596 H1590 0.930 . S
C1596 C1597 1.367 . S
C1596 C1604 1.378 . S
C1597 C1596 1.367 . S
C1597 C1605 1.433 . S
C1598 H1594 0.929 . S
C1598 C1600 1.378 . S
C1598 C1602 1.350 . S
C1599 C1602 1.463 . S
C1599 C1604 1.350 . S
C1599 N1607 1.427 . S
C1600 H1591 0.930 . S
C1600 C1598 1.378 . S
C1600 C1601 1.367 . S
C1601 C1600 1.367 . S
C1601 C1603 1.433 . S
C1602 C1598 1.350 . S
C1602 C1599 1.463 . S
C1602 N1606 1.427 . S
C1603 H1593 0.929 . S
C1603 C1601 1.433 . S
C1603 N1606 1.384 . S
C1604 H1595 0.929 . S
C1604 C1596 1.378 . S
C1604 C1599 1.350 . S
C1605 H1592 0.929 . S
C1605 C1597 1.433 . S
C1605 N1607 1.384 . S
N1606 C1602 1.427 . S
N1606 C1603 1.384 . S
N1607 C1599 1.427 . S
N1607 C1605 1.384 . S
H1608 C1614 0.930 . S
H1609 C1618 0.930 . S
H1610 C1623 0.929 . S
H1611 C1621 0.929 . S
H1612 C1616 0.929 . S
H1613 C1622 0.929 . S
C1614 H1608 0.930 . S
C1614 C1615 1.367 . S
C1614 C1622 1.378 . S
C1615 C1614 1.367 . S
C1615 C1623 1.433 . S
C1616 H1612 0.929 . S
C1616 C1618 1.378 . S
C1616 C1620 1.350 . S
C1617 C1620 1.463 . S
C1617 C1622 1.350 . S
C1617 N1625 1.427 . S
C1618 H1609 0.930 . S
C1618 C1616 1.378 . S
C1618 C1619 1.367 . S
C1619 C1618 1.367 . S
C1619 C1621 1.433 . S
C1620 C1616 1.350 . S
C1620 C1617 1.463 . S
C1620 N1624 1.427 . S
C1621 H1611 0.929 . S
C1621 C1619 1.433 . S
C1621 N1624 1.384 . S
C1622 H1613 0.929 . S
C1622 C1614 1.378 . S
C1622 C1617 1.350 . S
C1623 H1610 0.929 . S
C1623 C1615 1.433 . S
C1623 N1625 1.384 . S
N1624 C1620 1.427 . S
N1624 C1621 1.384 . S
N1625 C1617 1.427 . S
N1625 C1623 1.384 . S
H1626 C1632 0.930 . S
H1627 C1636 0.930 . S
H1628 C1641 0.929 . S
H1629 C1639 0.929 . S
H1630 C1634 0.929 . S
H1631 C1640 0.929 . S
C1632 H1626 0.930 . S
C1632 C1633 1.367 . S
C1632 C1640 1.378 . S
C1633 C1632 1.367 . S
C1633 C1641 1.433 . S
C1634 H1630 0.929 . S
C1634 C1636 1.378 . S
C1634 C1638 1.350 . S
C1635 C1638 1.463 . S
C1635 C1640 1.350 . S
C1635 N1643 1.427 . S
C1636 H1627 0.930 . S
C1636 C1634 1.378 . S
C1636 C1637 1.367 1_554 S
C1637 C1636 1.367 1_556 S
C1637 C1639 1.433 . S
C1638 C1634 1.350 . S
C1638 C1635 1.463 . S
C1638 N1642 1.427 1_554 S
C1639 H1629 0.929 . S
C1639 C1637 1.433 . S
C1639 N1642 1.384 . S
C1640 H1631 0.929 . S
C1640 C1632 1.378 . S
C1640 C1635 1.350 . S
C1641 H1628 0.929 . S
C1641 C1633 1.433 . S
C1641 N1643 1.384 . S
N1642 C1638 1.427 1_556 S
N1642 C1639 1.384 . S
N1643 C1635 1.427 . S
N1643 C1641 1.384 . S
H1644 C1650 0.930 . S
H1645 C1654 0.930 . S
H1646 C1659 0.929 . S
H1647 C1657 0.929 . S
H1648 C1652 0.929 . S
H1649 C1658 0.929 . S
C1650 H1644 0.930 . S
C1650 C1651 1.367 . S
C1650 C1658 1.378 . S
C1651 C1650 1.367 . S
C1651 C1659 1.433 . S
C1652 H1648 0.929 . S
C1652 C1654 1.378 . S
C1652 C1656 1.350 . S
C1653 C1656 1.463 . S
C1653 C1658 1.350 . S
C1653 N1661 1.427 . S
C1654 H1645 0.930 . S
C1654 C1652 1.378 . S
C1654 C1655 1.367 . S
C1655 C1654 1.367 . S
C1655 C1657 1.433 . S
C1656 C1652 1.350 . S
C1656 C1653 1.463 . S
C1656 N1660 1.427 . S
C1657 H1647 0.929 . S
C1657 C1655 1.433 . S
C1657 N1660 1.384 . S
C1658 H1649 0.929 . S
C1658 C1650 1.378 . S
C1658 C1653 1.350 . S
C1659 H1646 0.929 . S
C1659 C1651 1.433 . S
C1659 N1661 1.384 . S
N1660 C1656 1.427 . S
N1660 C1657 1.384 . S
N1661 C1653 1.427 . S
N1661 C1659 1.384 . S
H1662 C1668 0.930 . S
H1663 C1672 0.930 . S
H1664 C1677 0.929 . S
H1665 C1675 0.929 . S
H1666 C1670 0.929 . S
H1667 C1676 0.929 . S
C1668 H1662 0.930 . S
C1668 C1669 1.367 . S
C1668 C1676 1.378 . S
C1669 C1668 1.367 . S
C1669 C1677 1.433 1_554 S
C1670 H1666 0.929 . S
C1670 C1672 1.378 . S
C1670 C1674 1.350 . S
C1671 C1674 1.463 . S
C1671 C1676 1.350 1_556 S
C1671 N1679 1.427 . S
C1672 H1663 0.930 . S
C1672 C1670 1.378 . S
C1672 C1673 1.367 . S
C1673 C1672 1.367 . S
C1673 C1675 1.433 . S
C1674 C1670 1.350 . S
C1674 C1671 1.463 . S
C1674 N1678 1.427 . S
C1675 H1665 0.929 . S
C1675 C1673 1.433 . S
C1675 N1678 1.384 . S
C1676 H1667 0.929 . S
C1676 C1668 1.378 . S
C1676 C1671 1.350 1_554 S
C1677 H1664 0.929 . S
C1677 C1669 1.433 1_556 S
C1677 N1679 1.384 . S
N1678 C1674 1.427 . S
N1678 C1675 1.384 . S
N1679 C1671 1.427 . S
N1679 C1677 1.384 . S
H1680 C1686 0.930 . S
H1681 C1690 0.930 . S
H1682 C1695 0.929 . S
H1683 C1693 0.929 . S
H1684 C1688 0.929 . S
H1685 C1694 0.929 . S
C1686 H1680 0.930 . S
C1686 C1687 1.367 . S
C1686 C1694 1.378 . S
C1687 C1686 1.367 . S
C1687 C1695 1.433 . S
C1688 H1684 0.929 . S
C1688 C1690 1.378 . S
C1688 C1692 1.350 . S
C1689 C1692 1.463 . S
C1689 C1694 1.350 . S
C1689 N1697 1.427 . S
C1690 H1681 0.930 . S
C1690 C1688 1.378 . S
C1690 C1691 1.367 . S
C1691 C1690 1.367 . S
C1691 C1693 1.433 . S
C1692 C1688 1.350 . S
C1692 C1689 1.463 . S
C1692 N1696 1.427 . S
C1693 H1683 0.929 . S
C1693 C1691 1.433 . S
C1693 N1696 1.384 . S
C1694 H1685 0.929 . S
C1694 C1686 1.378 . S
C1694 C1689 1.350 . S
C1695 H1682 0.929 . S
C1695 C1687 1.433 . S
C1695 N1697 1.384 . S
N1696 C1692 1.427 . S
N1696 C1693 1.384 . S
N1697 C1689 1.427 . S
N1697 C1695 1.384 . S
H1698 C1704 0.930 . S
H1699 C1708 0.930 . S
H1700 C1713 0.929 . S
H1701 C1711 0.929 . S
H1702 C1706 0.929 . S
H1703 C1712 0.929 1_455 S
C1704 H1698 0.930 . S
C1704 C1705 1.367 . S
C1704 C1712 1.378 . S
C1705 C1704 1.367 . S
C1705 C1713 1.433 . S
C1706 H1702 0.929 . S
C1706 C1708 1.378 . S
C1706 C1710 1.350 . S
C1707 C1710 1.463 . S
C1707 C1712 1.350 . S
C1707 N1715 1.427 . S
C1708 H1699 0.930 . S
C1708 C1706 1.378 . S
C1708 C1709 1.367 1_655 S
C1709 C1708 1.367 1_455 S
C1709 C1711 1.433 . S
C1710 C1706 1.350 . S
C1710 C1707 1.463 . S
C1710 N1714 1.427 1_655 S
C1711 H1701 0.929 . S
C1711 C1709 1.433 . S
C1711 N1714 1.384 . S
C1712 H1703 0.929 1_655 S
C1712 C1704 1.378 . S
C1712 C1707 1.350 . S
C1713 H1700 0.929 . S
C1713 C1705 1.433 . S
C1713 N1715 1.384 . S
N1714 C1710 1.427 1_455 S
N1714 C1711 1.384 . S
N1715 C1707 1.427 . S
N1715 C1713 1.384 . S
H1716 C1722 0.930 . S
H1717 C1726 0.930 . S
H1718 C1731 0.929 . S
H1719 C1729 0.929 . S
H1720 C1724 0.929 . S
H1721 C1730 0.929 . S
C1722 H1716 0.930 . S
C1722 C1723 1.367 . S
C1722 C1730 1.378 . S
C1723 C1722 1.367 . S
C1723 C1731 1.433 . S
C1724 H1720 0.929 . S
C1724 C1726 1.378 . S
C1724 C1728 1.350 1_655 S
C1725 C1728 1.463 . S
C1725 C1730 1.350 . S
C1725 N1733 1.427 . S
C1726 H1717 0.930 . S
C1726 C1724 1.378 . S
C1726 C1727 1.367 . S
C1727 C1726 1.367 . S
C1727 C1729 1.433 1_655 S
C1728 C1724 1.350 1_455 S
C1728 C1725 1.463 . S
C1728 N1732 1.427 . S
C1729 H1719 0.929 . S
C1729 C1727 1.433 1_455 S
C1729 N1732 1.384 . S
C1730 H1721 0.929 . S
C1730 C1722 1.378 . S
C1730 C1725 1.350 . S
C1731 H1718 0.929 . S
C1731 C1723 1.433 . S
C1731 N1733 1.384 . S
N1732 C1728 1.427 . S
N1732 C1729 1.384 . S
N1733 C1725 1.427 . S
N1733 C1731 1.384 . S
H1734 C1740 0.930 . S
H1735 C1744 0.930 . S
H1736 C1749 0.929 . S
H1737 C1747 0.929 . S
H1738 C1742 0.929 . S
H1739 C1748 0.929 . S
C1740 H1734 0.930 . S
C1740 C1741 1.367 . S
C1740 C1748 1.378 . S
C1741 C1740 1.367 . S
C1741 C1749 1.433 . S
C1742 H1738 0.929 . S
C1742 C1744 1.378 . S
C1742 C1746 1.350 . S
C1743 C1746 1.463 . S
C1743 C1748 1.350 . S
C1743 N1751 1.427 . S
C1744 H1735 0.930 . S
C1744 C1742 1.378 . S
C1744 C1745 1.367 . S
C1745 C1744 1.367 . S
C1745 C1747 1.433 . S
C1746 C1742 1.350 . S
C1746 C1743 1.463 . S
C1746 N1750 1.427 . S
C1747 H1737 0.929 . S
C1747 C1745 1.433 . S
C1747 N1750 1.384 . S
C1748 H1739 0.929 . S
C1748 C1740 1.378 . S
C1748 C1743 1.350 . S
C1749 H1736 0.929 . S
C1749 C1741 1.433 . S
C1749 N1751 1.384 . S
N1750 C1746 1.427 . S
N1750 C1747 1.384 . S
N1751 C1743 1.427 . S
N1751 C1749 1.384 . S
H1752 C1758 0.930 . S
H1753 C1762 0.930 . S
H1754 C1767 0.929 . S
H1755 C1765 0.929 . S
H1756 C1760 0.929 . S
H1757 C1766 0.929 . S
C1758 H1752 0.930 . S
C1758 C1759 1.367 . S
C1758 C1766 1.378 . S
C1759 C1758 1.367 . S
C1759 C1767 1.433 . S
C1760 H1756 0.929 . S
C1760 C1762 1.378 . S
C1760 C1764 1.350 . S
C1761 C1764 1.463 . S
C1761 C1766 1.350 . S
C1761 N1769 1.427 . S
C1762 H1753 0.930 . S
C1762 C1760 1.378 . S
C1762 C1763 1.367 . S
C1763 C1762 1.367 . S
C1763 C1765 1.433 . S
C1764 C1760 1.350 . S
C1764 C1761 1.463 . S
C1764 N1768 1.427 . S
C1765 H1755 0.929 . S
C1765 C1763 1.433 . S
C1765 N1768 1.384 . S
C1766 H1757 0.929 . S
C1766 C1758 1.378 . S
C1766 C1761 1.350 . S
C1767 H1754 0.929 . S
C1767 C1759 1.433 . S
C1767 N1769 1.384 . S
N1768 C1764 1.427 . S
N1768 C1765 1.384 . S
N1769 C1761 1.427 . S
N1769 C1767 1.384 . S
H1770 C1776 0.929 1_545 S
H1771 C1780 0.930 . S
H1772 C1785 0.929 . S
H1773 C1783 0.929 . S
H1774 C1778 0.929 . S
H1775 C1784 0.929 . S
C1776 H1770 0.929 1_565 S
C1776 C1777 1.358 1_565 S
C1776 C1784 1.388 . S
C1777 C1776 1.358 1_545 S
C1777 C1785 1.433 . S
C1778 H1774 0.929 . S
C1778 C1780 1.378 . S
C1778 C1782 1.350 . S
C1779 C1782 1.463 . S
C1779 C1784 1.350 . S
C1779 N1787 1.427 . S
C1780 H1771 0.930 . S
C1780 C1778 1.378 . S
C1780 C1781 1.367 . S
C1781 C1780 1.367 . S
C1781 C1783 1.433 . S
C1782 C1778 1.350 . S
C1782 C1779 1.463 . S
C1782 N1786 1.427 . S
C1783 H1773 0.929 . S
C1783 C1781 1.433 . S
C1783 N1786 1.384 . S
C1784 H1775 0.929 . S
C1784 C1776 1.388 . S
C1784 C1779 1.350 . S
C1785 H1772 0.929 . S
C1785 C1777 1.433 . S
C1785 N1787 1.384 1_545 S
N1786 C1782 1.427 . S
N1786 C1783 1.384 . S
N1787 C1779 1.427 . S
N1787 C1785 1.384 1_565 S
H1788 C1794 0.930 . S
H1789 C1798 0.930 . S
H1790 C1803 0.929 . S
H1791 C1801 0.929 . S
H1792 C1796 0.929 . S
H1793 C1802 0.929 . S
C1794 H1788 0.930 . S
C1794 C1795 1.367 . S
C1794 C1802 1.378 . S
C1795 C1794 1.367 . S
C1795 C1803 1.433 . S
C1796 H1792 0.929 . S
C1796 C1798 1.378 . S
C1796 C1800 1.350 . S
C1797 C1800 1.463 . S
C1797 C1802 1.350 . S
C1797 N1805 1.427 . S
C1798 H1789 0.930 . S
C1798 C1796 1.378 . S
C1798 C1799 1.367 1_545 S
C1799 C1798 1.367 1_565 S
C1799 C1801 1.433 . S
C1800 C1796 1.350 . S
C1800 C1797 1.463 . S
C1800 N1804 1.427 1_545 S
C1801 H1791 0.929 . S
C1801 C1799 1.433 . S
C1801 N1804 1.384 . S
C1802 H1793 0.929 . S
C1802 C1794 1.378 . S
C1802 C1797 1.350 . S
C1803 H1790 0.929 . S
C1803 C1795 1.433 . S
C1803 N1805 1.384 . S
N1804 C1800 1.427 1_565 S
N1804 C1801 1.384 . S
N1805 C1797 1.427 . S
N1805 C1803 1.384 . S
H1806 C1812 0.930 . S
H1807 C1816 0.930 . S
H1808 C1821 0.929 . S
H1809 C1819 0.929 . S
H1810 C1814 0.929 . S
H1811 C1820 0.929 . S
C1812 H1806 0.930 . S
C1812 C1813 1.367 . S
C1812 C1820 1.378 . S
C1813 C1812 1.367 . S
C1813 C1821 1.433 . S
C1814 H1810 0.929 . S
C1814 C1816 1.378 . S
C1814 C1818 1.350 . S
C1815 C1818 1.463 . S
C1815 C1820 1.350 . S
C1815 N1823 1.427 . S
C1816 H1807 0.930 . S
C1816 C1814 1.378 . S
C1816 C1817 1.367 . S
C1817 C1816 1.367 . S
C1817 C1819 1.433 . S
C1818 C1814 1.350 . S
C1818 C1815 1.463 . S
C1818 N1822 1.427 . S
C1819 H1809 0.929 . S
C1819 C1817 1.433 . S
C1819 N1822 1.384 . S
C1820 H1811 0.929 . S
C1820 C1812 1.378 . S
C1820 C1815 1.350 . S
C1821 H1808 0.929 . S
C1821 C1813 1.433 . S
C1821 N1823 1.384 . S
N1822 C1818 1.427 . S
N1822 C1819 1.384 . S
N1823 C1815 1.427 . S
N1823 C1821 1.384 . S
H1824 C1830 0.930 . S
H1825 C1834 0.930 . S
H1826 C1839 0.929 . S
H1827 C1837 0.929 . S
H1828 C1832 0.929 . S
H1829 C1838 0.929 . S
C1830 H1824 0.930 . S
C1830 C1831 1.367 . S
C1830 C1838 1.378 . S
C1831 C1830 1.367 . S
C1831 C1839 1.433 . S
C1832 H1828 0.929 . S
C1832 C1834 1.378 . S
C1832 C1836 1.350 . S
C1833 C1836 1.463 . S
C1833 C1838 1.350 . S
C1833 N1841 1.427 . S
C1834 H1825 0.930 . S
C1834 C1832 1.378 . S
C1834 C1835 1.367 . S
C1835 C1834 1.367 . S
C1835 C1837 1.433 . S
C1836 C1832 1.350 . S
C1836 C1833 1.463 . S
C1836 N1840 1.427 . S
C1837 H1827 0.929 . S
C1837 C1835 1.433 . S
C1837 N1840 1.384 . S
C1838 H1829 0.929 . S
C1838 C1830 1.378 . S
C1838 C1833 1.350 . S
C1839 H1826 0.929 . S
C1839 C1831 1.433 . S
C1839 N1841 1.384 . S
N1840 C1836 1.427 . S
N1840 C1837 1.384 . S
N1841 C1833 1.427 . S
N1841 C1839 1.384 . S
H1842 C1848 0.930 . S
H1843 C1852 0.930 . S
H1844 C1857 0.929 . S
H1845 C1855 0.929 . S
H1846 C1850 0.929 . S
H1847 C1856 0.929 1_554 S
C1848 H1842 0.930 . S
C1848 C1849 1.367 . S
C1848 C1856 1.378 . S
C1849 C1848 1.367 . S
C1849 C1857 1.433 . S
C1850 H1846 0.929 . S
C1850 C1852 1.378 . S
C1850 C1854 1.350 . S
C1851 C1854 1.463 . S
C1851 C1856 1.350 . S
C1851 N1859 1.427 . S
C1852 H1843 0.930 . S
C1852 C1850 1.378 . S
C1852 C1853 1.367 1_556 S
C1853 C1852 1.367 1_554 S
C1853 C1855 1.433 . S
C1854 C1850 1.350 . S
C1854 C1851 1.463 . S
C1854 N1858 1.427 1_556 S
C1855 H1845 0.929 . S
C1855 C1853 1.433 . S
C1855 N1858 1.384 . S
C1856 H1847 0.929 1_556 S
C1856 C1848 1.378 . S
C1856 C1851 1.350 . S
C1857 H1844 0.929 . S
C1857 C1849 1.433 . S
C1857 N1859 1.384 . S
N1858 C1854 1.427 1_554 S
N1858 C1855 1.384 . S
N1859 C1851 1.427 . S
N1859 C1857 1.384 . S
H1860 C1866 0.930 . S
H1861 C1870 0.930 . S
H1862 C1875 0.929 . S
H1863 C1873 0.929 . S
H1864 C1868 0.929 . S
H1865 C1874 0.929 . S
C1866 H1860 0.930 . S
C1866 C1867 1.367 . S
C1866 C1874 1.378 . S
C1867 C1866 1.367 . S
C1867 C1875 1.433 . S
C1868 H1864 0.929 . S
C1868 C1870 1.378 . S
C1868 C1872 1.350 . S
C1869 C1872 1.463 . S
C1869 C1874 1.350 . S
C1869 N1877 1.427 . S
C1870 H1861 0.930 . S
C1870 C1868 1.378 . S
C1870 C1871 1.367 . S
C1871 C1870 1.367 . S
C1871 C1873 1.433 . S
C1872 C1868 1.350 . S
C1872 C1869 1.463 . S
C1872 N1876 1.427 . S
C1873 H1863 0.929 . S
C1873 C1871 1.433 . S
C1873 N1876 1.384 . S
C1874 H1865 0.929 . S
C1874 C1866 1.378 . S
C1874 C1869 1.350 . S
C1875 H1862 0.929 . S
C1875 C1867 1.433 . S
C1875 N1877 1.384 . S
N1876 C1872 1.427 . S
N1876 C1873 1.384 . S
N1877 C1869 1.427 . S
N1877 C1875 1.384 . S
H1878 C1884 0.930 . S
H1879 C1888 0.930 . S
H1880 C1893 0.929 . S
H1881 C1891 0.929 . S
H1882 C1886 0.929 . S
H1883 C1892 0.929 . S
C1884 H1878 0.930 . S
C1884 C1885 1.367 . S
C1884 C1892 1.378 . S
C1885 C1884 1.367 . S
C1885 C1893 1.433 . S
C1886 H1882 0.929 . S
C1886 C1888 1.378 . S
C1886 C1890 1.350 . S
C1887 C1890 1.463 . S
C1887 C1892 1.350 . S
C1887 N1895 1.427 . S
C1888 H1879 0.930 . S
C1888 C1886 1.378 . S
C1888 C1889 1.367 1_554 S
C1889 C1888 1.367 1_556 S
C1889 C1891 1.433 . S
C1890 C1886 1.350 . S
C1890 C1887 1.463 . S
C1890 N1894 1.427 1_554 S
C1891 H1881 0.929 . S
C1891 C1889 1.433 . S
C1891 N1894 1.384 . S
C1892 H1883 0.929 . S
C1892 C1884 1.378 . S
C1892 C1887 1.350 . S
C1893 H1880 0.929 . S
C1893 C1885 1.433 . S
C1893 N1895 1.384 . S
N1894 C1890 1.427 1_556 S
N1894 C1891 1.384 . S
N1895 C1887 1.427 . S
N1895 C1893 1.384 . S
H1896 C1902 0.930 . S
H1897 C1906 0.930 . S
H1898 C1911 0.929 . S
H1899 C1909 0.929 . S
H1900 C1904 0.929 . S
H1901 C1910 0.929 . S
C1902 H1896 0.930 . S
C1902 C1903 1.367 . S
C1902 C1910 1.378 . S
C1903 C1902 1.367 . S
C1903 C1911 1.433 . S
C1904 H1900 0.929 . S
C1904 C1906 1.378 . S
C1904 C1908 1.350 . S
C1905 C1908 1.463 . S
C1905 C1910 1.350 . S
C1905 N1913 1.427 . S
C1906 H1897 0.930 . S
C1906 C1904 1.378 . S
C1906 C1907 1.367 . S
C1907 C1906 1.367 . S
C1907 C1909 1.433 . S
C1908 C1904 1.350 . S
C1908 C1905 1.463 . S
C1908 N1912 1.427 . S
C1909 H1899 0.929 . S
C1909 C1907 1.433 . S
C1909 N1912 1.384 . S
C1910 H1901 0.929 . S
C1910 C1902 1.378 . S
C1910 C1905 1.350 . S
C1911 H1898 0.929 . S
C1911 C1903 1.433 . S
C1911 N1913 1.384 . S
N1912 C1908 1.427 . S
N1912 C1909 1.384 . S
N1913 C1905 1.427 . S
N1913 C1911 1.384 . S
H1914 C1920 0.930 . S
H1915 C1924 0.930 . S
H1916 C1929 0.929 . S
H1917 C1927 0.929 . S
H1918 C1922 0.929 1_655 S
H1919 C1928 0.929 . S
C1920 H1914 0.930 . S
C1920 C1921 1.367 1_455 S
C1920 C1928 1.378 . S
C1921 C1920 1.367 1_655 S
C1921 C1929 1.433 . S
C1922 H1918 0.929 1_455 S
C1922 C1924 1.378 . S
C1922 C1926 1.350 . S
C1923 C1926 1.463 . S
C1923 C1928 1.350 . S
C1923 N1931 1.427 1_455 S
C1924 H1915 0.930 . S
C1924 C1922 1.378 . S
C1924 C1925 1.367 . S
C1925 C1924 1.367 . S
C1925 C1927 1.433 . S
C1926 C1922 1.350 . S
C1926 C1923 1.463 . S
C1926 N1930 1.427 . S
C1927 H1917 0.929 . S
C1927 C1925 1.433 . S
C1927 N1930 1.384 . S
C1928 H1919 0.929 . S
C1928 C1920 1.378 . S
C1928 C1923 1.350 . S
C1929 H1916 0.929 . S
C1929 C1921 1.433 . S
C1929 N1931 1.384 . S
N1930 C1926 1.427 . S
N1930 C1927 1.384 . S
N1931 C1923 1.427 1_655 S
N1931 C1929 1.384 . S
H1932 C1938 0.930 . S
H1933 C1942 0.930 . S
H1934 C1947 0.929 . S
H1935 C1945 0.929 . S
H1936 C1940 0.929 . S
H1937 C1946 0.929 . S
C1938 H1932 0.930 . S
C1938 C1939 1.367 . S
C1938 C1946 1.378 . S
C1939 C1938 1.367 . S
C1939 C1947 1.433 1_455 S
C1940 H1936 0.929 . S
C1940 C1942 1.378 . S
C1940 C1944 1.350 . S
C1941 C1944 1.463 . S
C1941 C1946 1.350 1_655 S
C1941 N1949 1.427 . S
C1942 H1933 0.930 . S
C1942 C1940 1.378 . S
C1942 C1943 1.367 . S
C1943 C1942 1.367 . S
C1943 C1945 1.433 . S
C1944 C1940 1.350 . S
C1944 C1941 1.463 . S
C1944 N1948 1.427 . S
C1945 H1935 0.929 . S
C1945 C1943 1.433 . S
C1945 N1948 1.384 . S
C1946 H1937 0.929 . S
C1946 C1938 1.378 . S
C1946 C1941 1.350 1_455 S
C1947 H1934 0.929 . S
C1947 C1939 1.433 1_655 S
C1947 N1949 1.384 . S
N1948 C1944 1.427 . S
N1948 C1945 1.384 . S
N1949 C1941 1.427 . S
N1949 C1947 1.384 . S
H1950 C1956 0.930 . S
H1951 C1960 0.930 . S
H1952 C1965 0.929 . S
H1953 C1963 0.929 . S
H1954 C1958 0.929 . S
H1955 C1964 0.929 . S
C1956 H1950 0.930 . S
C1956 C1957 1.367 . S
C1956 C1964 1.378 . S
C1957 C1956 1.367 . S
C1957 C1965 1.433 . S
C1958 H1954 0.929 . S
C1958 C1960 1.378 . S
C1958 C1962 1.350 . S
C1959 C1962 1.463 . S
C1959 C1964 1.350 . S
C1959 N1967 1.427 . S
C1960 H1951 0.930 . S
C1960 C1958 1.378 . S
C1960 C1961 1.367 . S
C1961 C1960 1.367 . S
C1961 C1963 1.433 . S
C1962 C1958 1.350 . S
C1962 C1959 1.463 . S
C1962 N1966 1.427 . S
C1963 H1953 0.929 . S
C1963 C1961 1.433 . S
C1963 N1966 1.384 . S
C1964 H1955 0.929 . S
C1964 C1956 1.378 . S
C1964 C1959 1.350 . S
C1965 H1952 0.929 . S
C1965 C1957 1.433 . S
C1965 N1967 1.384 . S
N1966 C1962 1.427 . S
N1966 C1963 1.384 . S
N1967 C1959 1.427 . S
N1967 C1965 1.384 . S
H1968 C1974 0.930 . S
H1969 C1978 0.930 . S
H1970 C1983 0.929 . S
H1971 C1981 0.929 . S
H1972 C1976 0.929 . S
H1973 C1982 0.929 . S
C1974 H1968 0.930 . S
C1974 C1975 1.367 . S
C1974 C1982 1.378 . S
C1975 C1974 1.367 . S
C1975 C1983 1.433 . S
C1976 H1972 0.929 . S
C1976 C1978 1.378 . S
C1976 C1980 1.350 . S
C1977 C1980 1.463 . S
C1977 C1982 1.350 . S
C1977 N1985 1.427 . S
C1978 H1969 0.930 . S
C1978 C1976 1.378 . S
C1978 C1979 1.367 . S
C1979 C1978 1.367 . S
C1979 C1981 1.433 . S
C1980 C1976 1.350 . S
C1980 C1977 1.463 . S
C1980 N1984 1.427 . S
C1981 H1971 0.929 . S
C1981 C1979 1.433 . S
C1981 N1984 1.384 . S
C1982 H1973 0.929 . S
C1982 C1974 1.378 . S
C1982 C1977 1.350 . S
C1983 H1970 0.929 . S
C1983 C1975 1.433 . S
C1983 N1985 1.384 . S
N1984 C1980 1.427 . S
N1984 C1981 1.384 . S
N1985 C1977 1.427 . S
N1985 C1983 1.384 . S
H1986 C1992 0.930 . S
H1987 C1996 0.930 . S
H1988 C2001 0.929 . S
H1989 C1999 0.929 . S
H1990 C1994 0.929 . S
H1991 C2000 0.929 . S
C1992 H1986 0.930 . S
C1992 C1993 1.367 . S
C1992 C2000 1.378 . S
C1993 C1992 1.367 . S
C1993 C2001 1.433 . S
C1994 H1990 0.929 . S
C1994 C1996 1.378 1_545 S
C1994 C1998 1.350 . S
C1995 C1998 1.463 . S
C1995 C2000 1.350 . S
C1995 N2003 1.427 . S
C1996 H1987 0.930 . S
C1996 C1994 1.378 1_565 S
C1996 C1997 1.367 . S
C1997 C1996 1.367 . S
C1997 C1999 1.433 . S
C1998 C1994 1.350 . S
C1998 C1995 1.463 . S
C1998 N2002 1.427 . S
C1999 H1989 0.929 . S
C1999 C1997 1.433 . S
C1999 N2002 1.384 1_565 S
C2000 H1991 0.929 . S
C2000 C1992 1.378 . S
C2000 C1995 1.350 . S
C2001 H1988 0.929 . S
C2001 C1993 1.433 . S
C2001 N2003 1.384 . S
N2002 C1998 1.427 . S
N2002 C1999 1.384 1_545 S
N2003 C1995 1.427 . S
N2003 C2001 1.384 . S
H2004 C2010 0.930 . S
H2005 C2014 0.930 . S
H2006 C2019 0.929 . S
H2007 C2017 0.929 . S
H2008 C2012 0.929 . S
H2009 C2018 0.929 . S
C2010 H2004 0.930 . S
C2010 C2011 1.367 . S
C2010 C2018 1.378 . S
C2011 C2010 1.367 . S
C2011 C2019 1.433 . S
C2012 H2008 0.929 . S
C2012 C2014 1.378 . S
C2012 C2016 1.350 . S
C2013 C2016 1.463 . S
C2013 C2018 1.350 . S
C2013 N2021 1.427 . S
C2014 H2005 0.930 . S
C2014 C2012 1.378 . S
C2014 C2015 1.367 1_565 S
C2015 C2014 1.367 1_545 S
C2015 C2017 1.433 . S
C2016 C2012 1.350 . S
C2016 C2013 1.463 . S
C2016 N2020 1.427 1_565 S
C2017 H2007 0.929 . S
C2017 C2015 1.433 . S
C2017 N2020 1.384 . S
C2018 H2009 0.929 . S
C2018 C2010 1.378 . S
C2018 C2013 1.350 . S
C2019 H2006 0.929 . S
C2019 C2011 1.433 . S
C2019 N2021 1.384 . S
N2020 C2016 1.427 1_545 S
N2020 C2017 1.384 . S
N2021 C2013 1.427 . S
N2021 C2019 1.384 . S
H2022 C2028 0.930 . S
H2023 C2032 0.930 . S
H2024 C2037 0.929 . S
H2025 C2035 0.929 . S
H2026 C2030 0.929 . S
H2027 C2036 0.929 . S
C2028 H2022 0.930 . S
C2028 C2029 1.367 . S
C2028 C2036 1.378 . S
C2029 C2028 1.367 . S
C2029 C2037 1.433 . S
C2030 H2026 0.929 . S
C2030 C2032 1.378 . S
C2030 C2034 1.350 . S
C2031 C2034 1.463 . S
C2031 C2036 1.350 . S
C2031 N2039 1.427 . S
C2032 H2023 0.930 . S
C2032 C2030 1.378 . S
C2032 C2033 1.367 . S
C2033 C2032 1.367 . S
C2033 C2035 1.433 . S
C2034 C2030 1.350 . S
C2034 C2031 1.463 . S
C2034 N2038 1.427 . S
C2035 H2025 0.929 . S
C2035 C2033 1.433 . S
C2035 N2038 1.384 . S
C2036 H2027 0.929 . S
C2036 C2028 1.378 . S
C2036 C2031 1.350 . S
C2037 H2024 0.929 . S
C2037 C2029 1.433 . S
C2037 N2039 1.384 . S
N2038 C2034 1.427 . S
N2038 C2035 1.384 . S
N2039 C2031 1.427 . S
N2039 C2037 1.384 . S
H2040 C2046 0.930 . S
H2041 C2050 0.930 . S
H2042 C2055 0.929 . S
H2043 C2053 0.929 . S
H2044 C2048 0.929 . S
H2045 C2054 0.929 . S
C2046 H2040 0.930 . S
C2046 C2047 1.367 . S
C2046 C2054 1.378 . S
C2047 C2046 1.367 . S
C2047 C2055 1.433 . S
C2048 H2044 0.929 . S
C2048 C2050 1.378 . S
C2048 C2052 1.350 . S
C2049 C2052 1.463 . S
C2049 C2054 1.350 . S
C2049 N2057 1.427 . S
C2050 H2041 0.930 . S
C2050 C2048 1.378 . S
C2050 C2051 1.367 . S
C2051 C2050 1.367 . S
C2051 C2053 1.433 . S
C2052 C2048 1.350 . S
C2052 C2049 1.463 . S
C2052 N2056 1.427 . S
C2053 H2043 0.929 . S
C2053 C2051 1.433 . S
C2053 N2056 1.384 . S
C2054 H2045 0.929 . S
C2054 C2046 1.378 . S
C2054 C2049 1.350 . S
C2055 H2042 0.929 . S
C2055 C2047 1.433 . S
C2055 N2057 1.384 . S
N2056 C2052 1.427 . S
N2056 C2053 1.384 . S
N2057 C2049 1.427 . S
N2057 C2055 1.384 . S
H2058 C2064 0.930 . S
H2059 C2068 0.930 . S
H2060 C2073 0.929 . S
H2061 C2071 0.929 . S
H2062 C2066 0.929 . S
H2063 C2072 0.929 . S
C2064 H2058 0.930 . S
C2064 C2065 1.367 . S
C2064 C2072 1.378 . S
C2065 C2064 1.367 . S
C2065 C2073 1.433 . S
C2066 H2062 0.929 . S
C2066 C2068 1.378 . S
C2066 C2070 1.350 . S
C2067 C2070 1.463 . S
C2067 C2072 1.350 . S
C2067 N2075 1.427 . S
C2068 H2059 0.930 . S
C2068 C2066 1.378 . S
C2068 C2069 1.367 1_554 S
C2069 C2068 1.367 1_556 S
C2069 C2071 1.433 . S
C2070 C2066 1.350 . S
C2070 C2067 1.463 . S
C2070 N2074 1.427 1_554 S
C2071 H2061 0.929 . S
C2071 C2069 1.433 . S
C2071 N2074 1.384 . S
C2072 H2063 0.929 . S
C2072 C2064 1.378 . S
C2072 C2067 1.350 . S
C2073 H2060 0.929 . S
C2073 C2065 1.433 . S
C2073 N2075 1.384 . S
N2074 C2070 1.427 1_556 S
N2074 C2071 1.384 . S
N2075 C2067 1.427 . S
N2075 C2073 1.384 . S
H2076 C2082 0.930 . S
H2077 C2086 0.930 . S
H2078 C2091 0.929 . S
H2079 C2089 0.929 . S
H2080 C2084 0.929 . S
H2081 C2090 0.929 . S
C2082 H2076 0.930 . S
C2082 C2083 1.367 . S
C2082 C2090 1.378 . S
C2083 C2082 1.367 . S
C2083 C2091 1.433 . S
C2084 H2080 0.929 . S
C2084 C2086 1.378 . S
C2084 C2088 1.350 . S
C2085 C2088 1.463 . S
C2085 C2090 1.350 . S
C2085 N2093 1.427 . S
C2086 H2077 0.930 . S
C2086 C2084 1.378 . S
C2086 C2087 1.367 . S
C2087 C2086 1.367 . S
C2087 C2089 1.433 . S
C2088 C2084 1.350 . S
C2088 C2085 1.463 . S
C2088 N2092 1.427 . S
C2089 H2079 0.929 . S
C2089 C2087 1.433 . S
C2089 N2092 1.384 . S
C2090 H2081 0.929 . S
C2090 C2082 1.378 . S
C2090 C2085 1.350 . S
C2091 H2078 0.929 . S
C2091 C2083 1.433 . S
C2091 N2093 1.384 . S
N2092 C2088 1.427 . S
N2092 C2089 1.384 . S
N2093 C2085 1.427 . S
N2093 C2091 1.384 . S
H2094 C2100 0.930 . S
H2095 C2104 0.930 . S
H2096 C2109 0.929 . S
H2097 C2107 0.929 . S
H2098 C2102 0.929 . S
H2099 C2108 0.929 . S
C2100 H2094 0.930 . S
C2100 C2101 1.367 . S
C2100 C2108 1.378 . S
C2101 C2100 1.367 . S
C2101 C2109 1.433 . S
C2102 H2098 0.929 . S
C2102 C2104 1.378 1_556 S
C2102 C2106 1.350 . S
C2103 C2106 1.463 . S
C2103 C2108 1.350 . S
C2103 N2111 1.427 . S
C2104 H2095 0.930 . S
C2104 C2102 1.378 1_554 S
C2104 C2105 1.367 . S
C2105 C2104 1.367 . S
C2105 C2107 1.433 . S
C2106 C2102 1.350 . S
C2106 C2103 1.463 . S
C2106 N2110 1.427 . S
C2107 H2097 0.929 . S
C2107 C2105 1.433 . S
C2107 N2110 1.384 1_554 S
C2108 H2099 0.929 . S
C2108 C2100 1.378 . S
C2108 C2103 1.350 . S
C2109 H2096 0.929 . S
C2109 C2101 1.433 . S
C2109 N2111 1.384 . S
N2110 C2106 1.427 . S
N2110 C2107 1.384 1_556 S
N2111 C2103 1.427 . S
N2111 C2109 1.384 . S
H2112 C2118 0.930 . S
H2113 C2122 0.930 . S
H2114 C2127 0.929 . S
H2115 C2125 0.929 . S
H2116 C2120 0.929 . S
H2117 C2126 0.929 . S
C2118 H2112 0.930 . S
C2118 C2119 1.367 . S
C2118 C2126 1.378 . S
C2119 C2118 1.367 . S
C2119 C2127 1.433 . S
C2120 H2116 0.929 . S
C2120 C2122 1.378 . S
C2120 C2124 1.350 . S
C2121 C2124 1.463 . S
C2121 C2126 1.350 . S
C2121 N2129 1.427 . S
C2122 H2113 0.930 . S
C2122 C2120 1.378 . S
C2122 C2123 1.367 . S
C2123 C2122 1.367 . S
C2123 C2125 1.433 . S
C2124 C2120 1.350 . S
C2124 C2121 1.463 . S
C2124 N2128 1.427 . S
C2125 H2115 0.929 . S
C2125 C2123 1.433 . S
C2125 N2128 1.384 . S
C2126 H2117 0.929 . S
C2126 C2118 1.378 . S
C2126 C2121 1.350 . S
C2127 H2114 0.929 . S
C2127 C2119 1.433 . S
C2127 N2129 1.384 . S
N2128 C2124 1.427 . S
N2128 C2125 1.384 . S
N2129 C2121 1.427 . S
N2129 C2127 1.384 . S
H2130 C2136 0.930 . S
H2131 C2140 0.930 . S
H2132 C2145 0.929 . S
H2133 C2143 0.929 . S
H2134 C2138 0.929 . S
H2135 C2144 0.929 . S
C2136 H2130 0.930 . S
C2136 C2137 1.367 . S
C2136 C2144 1.378 . S
C2137 C2136 1.367 . S
C2137 C2145 1.433 . S
C2138 H2134 0.929 . S
C2138 C2140 1.378 . S
C2138 C2142 1.350 . S
C2139 C2142 1.463 . S
C2139 C2144 1.350 . S
C2139 N2147 1.427 . S
C2140 H2131 0.930 . S
C2140 C2138 1.378 . S
C2140 C2141 1.367 1_655 S
C2141 C2140 1.367 1_455 S
C2141 C2143 1.433 . S
C2142 C2138 1.350 . S
C2142 C2139 1.463 . S
C2142 N2146 1.450 . S
C2143 H2133 0.929 . S
C2143 C2141 1.433 . S
C2143 N2146 1.361 1_455 S
C2144 H2135 0.929 . S
C2144 C2136 1.378 . S
C2144 C2139 1.350 . S
C2145 H2132 0.929 . S
C2145 C2137 1.433 . S
C2145 N2147 1.384 . S
N2146 C2142 1.450 . S
N2146 C2143 1.361 1_655 S
N2147 C2139 1.427 . S
N2147 C2145 1.384 . S
H2148 C2154 0.930 . S
H2149 C2158 0.930 . S
H2150 C2163 0.929 . S
H2151 C2161 0.929 . S
H2152 C2156 0.929 . S
H2153 C2162 0.929 . S
C2154 H2148 0.930 . S
C2154 C2155 1.367 . S
C2154 C2162 1.378 1_655 S
C2155 C2154 1.367 . S
C2155 C2163 1.433 . S
C2156 H2152 0.929 . S
C2156 C2158 1.378 . S
C2156 C2160 1.350 . S
C2157 C2160 1.463 . S
C2157 C2162 1.350 . S
C2157 N2165 1.427 . S
C2158 H2149 0.930 . S
C2158 C2156 1.378 . S
C2158 C2159 1.367 . S
C2159 C2158 1.367 . S
C2159 C2161 1.433 . S
C2160 C2156 1.350 . S
C2160 C2157 1.463 . S
C2160 N2164 1.427 . S
C2161 H2151 0.929 . S
C2161 C2159 1.433 . S
C2161 N2164 1.384 . S
C2162 H2153 0.929 . S
C2162 C2154 1.378 1_455 S
C2162 C2157 1.350 . S
C2163 H2150 0.929 . S
C2163 C2155 1.433 . S
C2163 N2165 1.384 1_655 S
N2164 C2160 1.427 . S
N2164 C2161 1.384 . S
N2165 C2157 1.427 . S
N2165 C2163 1.384 1_455 S
H2166 C2172 0.930 . S
H2167 C2176 0.930 . S
H2168 C2181 0.929 . S
H2169 C2179 0.929 . S
H2170 C2174 0.929 . S
H2171 C2180 0.929 . S
C2172 H2166 0.930 . S
C2172 C2173 1.367 . S
C2172 C2180 1.378 . S
C2173 C2172 1.367 . S
C2173 C2181 1.433 . S
C2174 H2170 0.929 . S
C2174 C2176 1.378 . S
C2174 C2178 1.350 . S
C2175 C2178 1.463 . S
C2175 C2180 1.350 . S
C2175 N2183 1.427 . S
C2176 H2167 0.930 . S
C2176 C2174 1.378 . S
C2176 C2177 1.367 . S
C2177 C2176 1.367 . S
C2177 C2179 1.433 . S
C2178 C2174 1.350 . S
C2178 C2175 1.463 . S
C2178 N2182 1.427 . S
C2179 H2169 0.929 . S
C2179 C2177 1.433 . S
C2179 N2182 1.384 . S
C2180 H2171 0.929 . S
C2180 C2172 1.378 . S
C2180 C2175 1.350 . S
C2181 H2168 0.929 . S
C2181 C2173 1.433 . S
C2181 N2183 1.384 . S
N2182 C2178 1.427 . S
N2182 C2179 1.384 . S
N2183 C2175 1.427 . S
N2183 C2181 1.384 . S
H2184 C2190 0.930 . S
H2185 C2194 0.930 . S
H2186 C2199 0.929 . S
H2187 C2197 0.929 . S
H2188 C2192 0.929 . S
H2189 C2198 0.929 . S
C2190 H2184 0.930 . S
C2190 C2191 1.367 . S
C2190 C2198 1.378 . S
C2191 C2190 1.367 . S
C2191 C2199 1.433 . S
C2192 H2188 0.929 . S
C2192 C2194 1.378 . S
C2192 C2196 1.350 . S
C2193 C2196 1.463 . S
C2193 C2198 1.350 . S
C2193 N2201 1.427 . S
C2194 H2185 0.930 . S
C2194 C2192 1.378 . S
C2194 C2195 1.367 . S
C2195 C2194 1.367 . S
C2195 C2197 1.433 . S
C2196 C2192 1.350 . S
C2196 C2193 1.463 . S
C2196 N2200 1.427 . S
C2197 H2187 0.929 . S
C2197 C2195 1.433 . S
C2197 N2200 1.384 . S
C2198 H2189 0.929 . S
C2198 C2190 1.378 . S
C2198 C2193 1.350 . S
C2199 H2186 0.929 . S
C2199 C2191 1.433 . S
C2199 N2201 1.384 . S
N2200 C2196 1.427 . S
N2200 C2197 1.384 . S
N2201 C2193 1.427 . S
N2201 C2199 1.384 . S
H2202 C2208 0.930 . S
H2203 C2212 0.930 . S
H2204 C2217 0.929 . S
H2205 C2215 0.929 . S
H2206 C2210 0.929 . S
H2207 C2216 0.929 . S
C2208 H2202 0.930 . S
C2208 C2209 1.367 . S
C2208 C2216 1.378 . S
C2209 C2208 1.367 . S
C2209 C2217 1.433 . S
C2210 H2206 0.929 . S
C2210 C2212 1.378 1_565 S
C2210 C2214 1.350 . S
C2211 C2214 1.463 . S
C2211 C2216 1.350 . S
C2211 N2219 1.427 . S
C2212 H2203 0.930 . S
C2212 C2210 1.378 1_545 S
C2212 C2213 1.367 . S
C2213 C2212 1.367 . S
C2213 C2215 1.433 . S
C2214 C2210 1.350 . S
C2214 C2211 1.463 . S
C2214 N2218 1.427 . S
C2215 H2205 0.929 . S
C2215 C2213 1.433 . S
C2215 N2218 1.384 1_545 S
C2216 H2207 0.929 . S
C2216 C2208 1.378 . S
C2216 C2211 1.350 . S
C2217 H2204 0.929 . S
C2217 C2209 1.433 . S
C2217 N2219 1.384 . S
N2218 C2214 1.427 . S
N2218 C2215 1.384 1_565 S
N2219 C2211 1.427 . S
N2219 C2217 1.384 . S
H2220 C2226 0.930 . S
H2221 C2230 0.930 . S
H2222 C2235 0.929 . S
H2223 C2233 0.929 . S
H2224 C2228 0.929 . S
H2225 C2234 0.929 . S
C2226 H2220 0.930 . S
C2226 C2227 1.367 . S
C2226 C2234 1.378 . S
C2227 C2226 1.367 . S
C2227 C2235 1.433 1_565 S
C2228 H2224 0.929 . S
C2228 C2230 1.378 . S
C2228 C2232 1.350 . S
C2229 C2232 1.463 . S
C2229 C2234 1.350 1_545 S
C2229 N2237 1.427 . S
C2230 H2221 0.930 . S
C2230 C2228 1.378 . S
C2230 C2231 1.367 . S
C2231 C2230 1.367 . S
C2231 C2233 1.433 . S
C2232 C2228 1.350 . S
C2232 C2229 1.463 . S
C2232 N2236 1.427 . S
C2233 H2223 0.929 . S
C2233 C2231 1.433 . S
C2233 N2236 1.384 . S
C2234 H2225 0.929 . S
C2234 C2226 1.378 . S
C2234 C2229 1.350 1_565 S
C2235 H2222 0.929 . S
C2235 C2227 1.433 1_545 S
C2235 N2237 1.384 . S
N2236 C2232 1.427 . S
N2236 C2233 1.384 . S
N2237 C2229 1.427 . S
N2237 C2235 1.384 . S
H2238 C2244 0.930 . S
H2239 C2248 0.930 . S
H2240 C2253 0.929 . S
H2241 C2251 0.929 . S
H2242 C2246 0.929 . S
H2243 C2252 0.929 . S
C2244 H2238 0.930 . S
C2244 C2245 1.367 . S
C2244 C2252 1.378 . S
C2245 C2244 1.367 . S
C2245 C2253 1.433 . S
C2246 H2242 0.929 . S
C2246 C2248 1.378 . S
C2246 C2250 1.350 . S
C2247 C2250 1.463 . S
C2247 C2252 1.350 . S
C2247 N2255 1.427 . S
C2248 H2239 0.930 . S
C2248 C2246 1.378 . S
C2248 C2249 1.367 . S
C2249 C2248 1.367 . S
C2249 C2251 1.433 . S
C2250 C2246 1.350 . S
C2250 C2247 1.463 . S
C2250 N2254 1.427 . S
C2251 H2241 0.929 . S
C2251 C2249 1.433 . S
C2251 N2254 1.384 . S
C2252 H2243 0.929 . S
C2252 C2244 1.378 . S
C2252 C2247 1.350 . S
C2253 H2240 0.929 . S
C2253 C2245 1.433 . S
C2253 N2255 1.384 . S
N2254 C2250 1.427 . S
N2254 C2251 1.384 . S
N2255 C2247 1.427 . S
N2255 C2253 1.384 . S
H2256 C2262 0.930 . S
H2257 C2266 0.930 . S
H2258 C2271 0.929 . S
H2259 C2269 0.929 . S
H2260 C2264 0.929 . S
H2261 C2270 0.929 . S
C2262 H2256 0.930 . S
C2262 C2263 1.367 . S
C2262 C2270 1.378 . S
C2263 C2262 1.367 . S
C2263 C2271 1.433 . S
C2264 H2260 0.929 . S
C2264 C2266 1.378 . S
C2264 C2268 1.350 . S
C2265 C2268 1.463 . S
C2265 C2270 1.350 . S
C2265 N2273 1.427 . S
C2266 H2257 0.930 . S
C2266 C2264 1.378 . S
C2266 C2267 1.367 . S
C2267 C2266 1.367 . S
C2267 C2269 1.433 . S
C2268 C2264 1.350 . S
C2268 C2265 1.463 . S
C2268 N2272 1.427 . S
C2269 H2259 0.929 . S
C2269 C2267 1.433 . S
C2269 N2272 1.384 . S
C2270 H2261 0.929 . S
C2270 C2262 1.378 . S
C2270 C2265 1.350 . S
C2271 H2258 0.929 . S
C2271 C2263 1.433 . S
C2271 N2273 1.384 . S
N2272 C2268 1.427 . S
N2272 C2269 1.384 . S
N2273 C2265 1.427 . S
N2273 C2271 1.384 . S
H2274 C2280 0.930 . S
H2275 C2284 0.930 . S
H2276 C2289 0.929 . S
H2277 C2287 0.929 . S
H2278 C2282 0.929 . S
H2279 C2288 0.929 . S
C2280 H2274 0.930 . S
C2280 C2281 1.367 1_556 S
C2280 C2288 1.378 . S
C2281 C2280 1.367 1_554 S
C2281 C2289 1.433 . S
C2282 H2278 0.929 . S
C2282 C2284 1.378 . S
C2282 C2286 1.350 . S
C2283 C2286 1.463 . S
C2283 C2288 1.350 . S
C2283 N2291 1.427 1_556 S
C2284 H2275 0.930 . S
C2284 C2282 1.378 . S
C2284 C2285 1.367 . S
C2285 C2284 1.367 . S
C2285 C2287 1.433 . S
C2286 C2282 1.350 . S
C2286 C2283 1.463 . S
C2286 N2290 1.427 . S
C2287 H2277 0.929 . S
C2287 C2285 1.433 . S
C2287 N2290 1.384 . S
C2288 H2279 0.929 . S
C2288 C2280 1.378 . S
C2288 C2283 1.350 . S
C2289 H2276 0.929 . S
C2289 C2281 1.433 . S
C2289 N2291 1.384 . S
N2290 C2286 1.427 . S
N2290 C2287 1.384 . S
N2291 C2283 1.427 1_554 S
N2291 C2289 1.384 . S
H2292 C2298 0.930 . S
H2293 C2302 0.930 . S
H2294 C2307 0.929 . S
H2295 C2305 0.929 . S
H2296 C2300 0.929 . S
H2297 C2306 0.929 . S
C2298 H2292 0.930 . S
C2298 C2299 1.367 . S
C2298 C2306 1.378 . S
C2299 C2298 1.367 . S
C2299 C2307 1.433 . S
C2300 H2296 0.929 . S
C2300 C2302 1.378 . S
C2300 C2304 1.350 . S
C2301 C2304 1.463 . S
C2301 C2306 1.350 . S
C2301 N2309 1.427 . S
C2302 H2293 0.930 . S
C2302 C2300 1.378 . S
C2302 C2303 1.367 . S
C2303 C2302 1.367 . S
C2303 C2305 1.433 . S
C2304 C2300 1.350 . S
C2304 C2301 1.463 . S
C2304 N2308 1.427 . S
C2305 H2295 0.929 . S
C2305 C2303 1.433 . S
C2305 N2308 1.384 . S
C2306 H2297 0.929 . S
C2306 C2298 1.378 . S
C2306 C2301 1.350 . S
C2307 H2294 0.929 . S
C2307 C2299 1.433 . S
C2307 N2309 1.384 . S
N2308 C2304 1.427 . S
N2308 C2305 1.384 . S
N2309 C2301 1.427 . S
N2309 C2307 1.384 . S
H2310 C2316 0.930 . S
H2311 C2320 0.930 . S
H2312 C2325 0.929 . S
H2313 C2323 0.929 . S
H2314 C2318 0.929 . S
H2315 C2324 0.929 . S
C2316 H2310 0.930 . S
C2316 C2317 1.367 . S
C2316 C2324 1.378 . S
C2317 C2316 1.367 . S
C2317 C2325 1.433 . S
C2318 H2314 0.929 . S
C2318 C2320 1.378 . S
C2318 C2322 1.350 1_556 S
C2319 C2322 1.463 . S
C2319 C2324 1.350 . S
C2319 N2327 1.427 . S
C2320 H2311 0.930 . S
C2320 C2318 1.378 . S
C2320 C2321 1.367 . S
C2321 C2320 1.367 . S
C2321 C2323 1.433 1_556 S
C2322 C2318 1.350 1_554 S
C2322 C2319 1.463 . S
C2322 N2326 1.427 . S
C2323 H2313 0.929 . S
C2323 C2321 1.433 1_554 S
C2323 N2326 1.384 . S
C2324 H2315 0.929 . S
C2324 C2316 1.378 . S
C2324 C2319 1.350 . S
C2325 H2312 0.929 . S
C2325 C2317 1.433 . S
C2325 N2327 1.384 . S
N2326 C2322 1.427 . S
N2326 C2323 1.384 . S
N2327 C2319 1.427 . S
N2327 C2325 1.384 . S
H2328 C2334 0.930 . S
H2329 C2338 0.930 . S
H2330 C2343 0.929 . S
H2331 C2341 0.929 . S
H2332 C2336 0.929 . S
H2333 C2342 0.929 . S
C2334 H2328 0.930 . S
C2334 C2335 1.367 . S
C2334 C2342 1.378 . S
C2335 C2334 1.367 . S
C2335 C2343 1.433 . S
C2336 H2332 0.929 . S
C2336 C2338 1.378 . S
C2336 C2340 1.350 . S
C2337 C2340 1.463 . S
C2337 C2342 1.350 . S
C2337 N2345 1.427 . S
C2338 H2329 0.930 . S
C2338 C2336 1.378 . S
C2338 C2339 1.367 . S
C2339 C2338 1.367 . S
C2339 C2341 1.433 . S
C2340 C2336 1.350 . S
C2340 C2337 1.463 . S
C2340 N2344 1.427 . S
C2341 H2331 0.929 . S
C2341 C2339 1.433 . S
C2341 N2344 1.384 . S
C2342 H2333 0.929 . S
C2342 C2334 1.378 . S
C2342 C2337 1.350 . S
C2343 H2330 0.929 . S
C2343 C2335 1.433 . S
C2343 N2345 1.384 . S
N2344 C2340 1.427 . S
N2344 C2341 1.384 . S
N2345 C2337 1.427 . S
N2345 C2343 1.384 . S
H2346 C2352 0.930 . S
H2347 C2356 0.930 . S
H2348 C2361 0.929 . S
H2349 C2359 0.929 . S
H2350 C2354 0.929 . S
H2351 C2360 0.929 . S
C2352 H2346 0.930 . S
C2352 C2353 1.367 1_455 S
C2352 C2360 1.378 . S
C2353 C2352 1.367 1_655 S
C2353 C2361 1.433 . S
C2354 H2350 0.929 . S
C2354 C2356 1.378 . S
C2354 C2358 1.350 . S
C2355 C2358 1.463 . S
C2355 C2360 1.350 . S
C2355 N2363 1.427 1_455 S
C2356 H2347 0.930 . S
C2356 C2354 1.378 . S
C2356 C2357 1.367 . S
C2357 C2356 1.367 . S
C2357 C2359 1.433 . S
C2358 C2354 1.350 . S
C2358 C2355 1.463 . S
C2358 N2362 1.427 . S
C2359 H2349 0.929 . S
C2359 C2357 1.433 . S
C2359 N2362 1.384 . S
C2360 H2351 0.929 . S
C2360 C2352 1.378 . S
C2360 C2355 1.350 . S
C2361 H2348 0.929 . S
C2361 C2353 1.433 . S
C2361 N2363 1.384 . S
N2362 C2358 1.427 . S
N2362 C2359 1.384 . S
N2363 C2355 1.427 1_655 S
N2363 C2361 1.384 . S
H2364 C2370 0.930 . S
H2365 C2374 0.930 . S
H2366 C2379 0.929 . S
H2367 C2377 0.929 . S
H2368 C2372 0.929 . S
H2369 C2378 0.929 . S
C2370 H2364 0.930 . S
C2370 C2371 1.367 . S
C2370 C2378 1.378 . S
C2371 C2370 1.367 . S
C2371 C2379 1.433 1_455 S
C2372 H2368 0.929 . S
C2372 C2374 1.378 . S
C2372 C2376 1.350 . S
C2373 C2376 1.463 . S
C2373 C2378 1.350 1_655 S
C2373 N2381 1.427 . S
C2374 H2365 0.930 . S
C2374 C2372 1.378 . S
C2374 C2375 1.367 . S
C2375 C2374 1.367 . S
C2375 C2377 1.433 . S
C2376 C2372 1.350 . S
C2376 C2373 1.463 . S
C2376 N2380 1.427 . S
C2377 H2367 0.929 . S
C2377 C2375 1.433 . S
C2377 N2380 1.384 . S
C2378 H2369 0.929 . S
C2378 C2370 1.378 . S
C2378 C2373 1.350 1_455 S
C2379 H2366 0.929 . S
C2379 C2371 1.433 1_655 S
C2379 N2381 1.384 . S
N2380 C2376 1.427 . S
N2380 C2377 1.384 . S
N2381 C2373 1.427 . S
N2381 C2379 1.384 . S
H2382 C2388 0.930 . S
H2383 C2392 0.930 . S
H2384 C2397 0.929 . S
H2385 C2395 0.929 . S
H2386 C2390 0.929 . S
H2387 C2396 0.929 . S
C2388 H2382 0.930 . S
C2388 C2389 1.367 . S
C2388 C2396 1.378 . S
C2389 C2388 1.367 . S
C2389 C2397 1.433 . S
C2390 H2386 0.929 . S
C2390 C2392 1.378 . S
C2390 C2394 1.350 . S
C2391 C2394 1.463 . S
C2391 C2396 1.350 . S
C2391 N2399 1.427 . S
C2392 H2383 0.930 . S
C2392 C2390 1.378 . S
C2392 C2393 1.367 . S
C2393 C2392 1.367 . S
C2393 C2395 1.433 . S
C2394 C2390 1.350 . S
C2394 C2391 1.463 . S
C2394 N2398 1.427 . S
C2395 H2385 0.929 . S
C2395 C2393 1.433 . S
C2395 N2398 1.384 . S
C2396 H2387 0.929 . S
C2396 C2388 1.378 . S
C2396 C2391 1.350 . S
C2397 H2384 0.929 . S
C2397 C2389 1.433 . S
C2397 N2399 1.384 . S
N2398 C2394 1.427 . S
N2398 C2395 1.384 . S
N2399 C2391 1.427 . S
N2399 C2397 1.384 . S
H2400 C2406 0.930 . S
H2401 C2410 0.930 . S
H2402 C2415 0.929 . S
H2403 C2413 0.929 . S
H2404 C2408 0.929 . S
H2405 C2414 0.929 . S
C2406 H2400 0.930 . S
C2406 C2407 1.367 . S
C2406 C2414 1.378 . S
C2407 C2406 1.367 . S
C2407 C2415 1.433 . S
C2408 H2404 0.929 . S
C2408 C2410 1.378 . S
C2408 C2412 1.350 . S
C2409 C2412 1.463 . S
C2409 C2414 1.350 . S
C2409 N2417 1.427 . S
C2410 H2401 0.930 . S
C2410 C2408 1.378 . S
C2410 C2411 1.367 . S
C2411 C2410 1.367 . S
C2411 C2413 1.433 . S
C2412 C2408 1.350 . S
C2412 C2409 1.463 . S
C2412 N2416 1.427 . S
C2413 H2403 0.929 . S
C2413 C2411 1.433 . S
C2413 N2416 1.384 . S
C2414 H2405 0.929 . S
C2414 C2406 1.378 . S
C2414 C2409 1.350 . S
C2415 H2402 0.929 . S
C2415 C2407 1.433 . S
C2415 N2417 1.384 . S
N2416 C2412 1.427 . S
N2416 C2413 1.384 . S
N2417 C2409 1.427 . S
N2417 C2415 1.384 . S
H2418 C2424 0.930 . S
H2419 C2428 0.930 . S
H2420 C2433 0.929 . S
H2421 C2431 0.929 . S
H2422 C2426 0.929 . S
H2423 C2432 0.929 . S
C2424 H2418 0.930 . S
C2424 C2425 1.367 . S
C2424 C2432 1.378 . S
C2425 C2424 1.367 . S
C2425 C2433 1.433 1_565 S
C2426 H2422 0.929 . S
C2426 C2428 1.378 . S
C2426 C2430 1.350 . S
C2427 C2430 1.463 . S
C2427 C2432 1.350 1_545 S
C2427 N2435 1.427 . S
C2428 H2419 0.930 . S
C2428 C2426 1.378 . S
C2428 C2429 1.367 . S
C2429 C2428 1.367 . S
C2429 C2431 1.433 . S
C2430 C2426 1.350 . S
C2430 C2427 1.463 . S
C2430 N2434 1.427 . S
C2431 H2421 0.929 . S
C2431 C2429 1.433 . S
C2431 N2434 1.384 . S
C2432 H2423 0.929 . S
C2432 C2424 1.378 . S
C2432 C2427 1.350 1_565 S
C2433 H2420 0.929 . S
C2433 C2425 1.433 1_545 S
C2433 N2435 1.384 . S
N2434 C2430 1.427 . S
N2434 C2431 1.384 . S
N2435 C2427 1.427 . S
N2435 C2433 1.384 . S
H2436 C2442 0.930 . S
H2437 C2446 0.930 . S
H2438 C2451 0.929 . S
H2439 C2449 0.929 . S
H2440 C2444 0.929 . S
H2441 C2450 0.929 . S
C2442 H2436 0.930 . S
C2442 C2443 1.367 1_565 S
C2442 C2450 1.378 . S
C2443 C2442 1.367 1_545 S
C2443 C2451 1.433 . S
C2444 H2440 0.929 . S
C2444 C2446 1.378 . S
C2444 C2448 1.350 . S
C2445 C2448 1.463 . S
C2445 C2450 1.350 . S
C2445 N2453 1.427 1_565 S
C2446 H2437 0.930 . S
C2446 C2444 1.378 . S
C2446 C2447 1.367 . S
C2447 C2446 1.367 . S
C2447 C2449 1.433 . S
C2448 C2444 1.350 . S
C2448 C2445 1.463 . S
C2448 N2452 1.427 . S
C2449 H2439 0.929 . S
C2449 C2447 1.433 . S
C2449 N2452 1.384 . S
C2450 H2441 0.929 . S
C2450 C2442 1.378 . S
C2450 C2445 1.350 . S
C2451 H2438 0.929 . S
C2451 C2443 1.433 . S
C2451 N2453 1.384 . S
N2452 C2448 1.427 . S
N2452 C2449 1.384 . S
N2453 C2445 1.427 1_545 S
N2453 C2451 1.384 . S
H2454 C2460 0.930 . S
H2455 C2464 0.930 . S
H2456 C2469 0.929 . S
H2457 C2467 0.929 . S
H2458 C2462 0.929 . S
H2459 C2468 0.929 . S
C2460 H2454 0.930 . S
C2460 C2461 1.367 . S
C2460 C2468 1.378 . S
C2461 C2460 1.367 . S
C2461 C2469 1.433 . S
C2462 H2458 0.929 . S
C2462 C2464 1.378 . S
C2462 C2466 1.350 . S
C2463 C2466 1.463 . S
C2463 C2468 1.350 . S
C2463 N2471 1.427 . S
C2464 H2455 0.930 . S
C2464 C2462 1.378 . S
C2464 C2465 1.367 . S
C2465 C2464 1.367 . S
C2465 C2467 1.433 . S
C2466 C2462 1.350 . S
C2466 C2463 1.463 . S
C2466 N2470 1.427 . S
C2467 H2457 0.929 . S
C2467 C2465 1.433 . S
C2467 N2470 1.384 . S
C2468 H2459 0.929 . S
C2468 C2460 1.378 . S
C2468 C2463 1.350 . S
C2469 H2456 0.929 . S
C2469 C2461 1.433 . S
C2469 N2471 1.384 . S
N2470 C2466 1.427 . S
N2470 C2467 1.384 . S
N2471 C2463 1.427 . S
N2471 C2469 1.384 . S
C751 C582 1.097 . S
C755 C18 1.066 . S
C769 C49 1.041 . S
C773 C613 1.092 . S
C787 C520 1.092 1_545 S
C791 C80 1.045 . S
C805 C111 1.046 . S
C809 C551 1.077 1_565 S
C823 C706 1.091 . S
C827 C142 1.056 . S
C841 C675 1.081 1_556 S
C845 C173 1.053 . S
C859 C737 1.090 . S
C863 C204 1.053 . S
C877 C644 1.081 1_554 S
C881 C235 1.053 . S
C895 C266 1.046 . S
C899 C427 1.089 . S
C913 C489 1.104 1_655 S
C917 C297 1.056 . S
C931 C328 1.066 . S
C935 C458 1.098 . S
C949 C396 1.100 1_455 S
C953 C359 1.051 . S
C967 C186 1.093 . S
C971 C383 1.061 . S
C985 C217 1.092 . S
C989 C414 1.041 . S
C1003 C124 1.085 1_565 S
C1007 C445 1.041 . S
C1021 C476 1.062 . S
C1025 C155 1.091 1_545 S
C1039 C310 1.099 . S
C1043 C507 1.049 . S
C1057 C538 1.048 . S
C1061 C279 1.078 1_554 S
C1075 C341 1.091 . S
C1079 C569 1.042 . S
C1093 C248 1.078 1_556 S
C1097 C600 1.048 . S
C1111 C631 1.041 . S
C1115 C31 1.094 . S
C1129 C93 1.096 . S
C1133 C662 1.065 . S
C1147 C693 1.046 . S
C1151 C62 1.089 . S
C1165 C724 1.057 . S
C1169 C0 1.105 1_655 S
C1183 C272 1.444 . S
C1187 C27 1.590 . S
C1201 C58 1.609 . S
C1205 C365 1.465 . S
C1219 C89 1.595 . S
C1223 C303 1.461 . S
C1237 C120 1.590 . S
C1241 C334 1.445 . S
C1255 C151 1.603 . S
C1259 C24 1.448 . S
C1273 C182 1.590 . S
C1277 C55 1.445 . S
C1291 C86 1.443 . S
C1295 C213 1.597 . S
C1309 C244 1.608 . S
C1313 C117 1.467 . S
C1327 C148 1.447 . S
C1331 C275 1.590 . S
C1345 C306 1.598 . S
C1349 C210 1.443 . S
C1363 C241 1.445 . S
C1367 C337 1.590 . S
C1381 C179 1.468 . S
C1385 C368 1.605 . S
C1399 C620 1.468 . S
C1403 C373 1.603 . S
C1417 C404 1.599 . S
C1421 C713 1.444 . S
C1435 C651 1.463 . S
C1439 C435 1.609 . S
C1453 C466 1.593 . S
C1457 C682 1.442 . S
C1471 C372 1.464 . S
C1475 C497 1.598 . S
C1489 C403 1.464 . S
C1493 C528 1.597 . S
C1507 C559 1.603 . S
C1511 C434 1.468 . S
C1525 C465 1.464 . S
C1529 C590 1.609 . S
C1543 C496 1.449 . S
C1547 C621 1.604 . S
C1561 C652 1.609 . S
C1565 C558 1.463 . S
C1579 C683 1.608 . S
C1583 C589 1.458 . S
C1597 C714 1.590 . S
C1601 C527 1.447 . S
C1615 C2 1.268 . S
C1619 C342 1.267 . S
C1633 C249 1.244 . S
C1637 C33 1.286 . S
C1651 C64 1.268 . S
C1655 C311 1.258 . S
C1669 C95 1.266 . S
C1673 C280 1.263 . S
C1687 C63 1.244 . S
C1691 C126 1.286 . S
C1705 C94 1.245 . S
C1709 C157 1.287 . S
C1723 C1 1.266 . S
C1727 C188 1.267 . S
C1741 C219 1.284 . S
C1745 C32 1.255 . S
C1759 C218 1.248 . S
C1763 C250 1.287 . S
C1777 C281 1.281 . S
C1781 C156 1.244 . S
C1795 C125 1.257 . S
C1799 C312 1.283 . S
C1813 C343 1.282 . S
C1817 C187 1.244 . S
C1831 C740 1.253 . S
C1835 C382 1.285 . S
C1849 C647 1.246 . S
C1853 C413 1.287 . S
C1867 C709 1.244 . S
C1871 C444 1.283 . S
C1885 C678 1.243 . S
C1889 C475 1.285 . S
C1903 C506 1.273 . S
C1907 C461 1.266 . S
C1921 C537 1.287 . S
C1925 C492 1.245 . S
C1939 C568 1.268 . S
C1943 C399 1.267 . S
C1957 C599 1.287 . S
C1961 C430 1.246 . S
C1975 C616 1.254 . S
C1979 C630 1.285 . S
C1993 C554 1.245 . S
C1997 C661 1.280 . S
C2011 C523 1.243 . S
C2015 C692 1.284 . S
C2029 C585 1.255 . S
C2033 C723 1.284 . S
C2047 C684 1.839 . S
C2051 C11 1.842 . S
C2065 C653 1.831 . S
C2069 C42 1.847 . S
C2083 C73 1.847 . S
C2087 C715 1.835 . S
C2101 C622 1.826 . S
C2105 C104 1.839 . S
C2119 C135 1.838 . S
C2123 C405 1.838 . S
C2137 C374 1.826 . S
C2141 C166 1.840 . S
C2155 C197 1.846 . S
C2159 C467 1.837 . S
C2173 C228 1.843 . S
C2177 C436 1.826 . S
C2191 C560 1.831 . S
C2195 C259 1.847 . S
C2209 C498 1.826 . S
C2213 C290 1.839 . S
C2227 C321 1.837 . S
C2231 C529 1.836 . S
C2245 C352 1.835 . S
C2249 C591 1.832 . S
C2263 C390 1.845 . S
C2267 C320 1.838 . S
C2281 C421 1.847 . S
C2285 C289 1.831 . S
C2299 C351 1.826 . S
C2303 C452 1.843 . S
C2317 C258 1.839 . S
C2321 C483 1.840 . S
C2335 C514 1.847 . S
C2339 C41 1.833 . S
C2353 C545 1.847 . S
C2357 C10 1.831 . S
C2371 C576 1.835 . S
C2375 C103 1.831 . S
C2389 C607 1.838 . S
C2393 C72 1.827 . S
C2407 C638 1.845 . S
C2411 C196 1.827 . S
C2425 C669 1.835 . S
C2429 C134 1.833 . S
C2443 C700 1.847 . S
C2447 C165 1.832 . S
C2461 C227 1.838 . S
C2465 C731 1.844 . S
