# Generated by pormake.
# Topology uox, (4)-cn, num edge types: 1
# Building blocks:
#     Node 0, Type 0, BuildingBlock: QUQFOY_clean_sbu_3, # of connection points: 4
#     Node 1, Type 0, BuildingBlock: QUQFOY_clean_sbu_3, # of connection points: 4
#     Node 2, Type 0, BuildingBlock: QUQFOY_clean_sbu_3, # of connection points: 4
#     Node 3, Type 0, BuildingBlock: QUQFOY_clean_sbu_3, # of connection points: 4
#     Node 4, Type 0, BuildingBlock: QUQFOY_clean_sbu_3, # of connection points: 4
#     Node 5, Type 0, BuildingBlock: QUQFOY_clean_sbu_3, # of connection points: 4
#     Node 6, Type 0, BuildingBlock: QUQFOY_clean_sbu_3, # of connection points: 4
#     Node 7, Type 0, BuildingBlock: QUQFOY_clean_sbu_3, # of connection points: 4
#     Node 8, Type 0, BuildingBlock: QUQFOY_clean_sbu_3, # of connection points: 4
#     Node 9, Type 0, BuildingBlock: QUQFOY_clean_sbu_3, # of connection points: 4
#     Node 10, Type 0, BuildingBlock: QUQFOY_clean_sbu_3, # of connection points: 4
#     Node 11, Type 0, BuildingBlock: QUQFOY_clean_sbu_3, # of connection points: 4
#     Node 12, Type 0, BuildingBlock: QUQFOY_clean_sbu_3, # of connection points: 4
#     Node 13, Type 0, BuildingBlock: QUQFOY_clean_sbu_3, # of connection points: 4
#     Node 14, Type 0, BuildingBlock: QUQFOY_clean_sbu_3, # of connection points: 4
#     Node 15, Type 0, BuildingBlock: QUQFOY_clean_sbu_3, # of connection points: 4
#     Node 16, Type 0, BuildingBlock: QUQFOY_clean_sbu_3, # of connection points: 4
#     Node 17, Type 0, BuildingBlock: QUQFOY_clean_sbu_3, # of connection points: 4
#     Node 18, Type 0, BuildingBlock: QUQFOY_clean_sbu_3, # of connection points: 4
#     Node 19, Type 0, BuildingBlock: QUQFOY_clean_sbu_3, # of connection points: 4
#     Node 20, Type 0, BuildingBlock: QUQFOY_clean_sbu_3, # of connection points: 4
#     Node 21, Type 0, BuildingBlock: QUQFOY_clean_sbu_3, # of connection points: 4
#     Node 22, Type 0, BuildingBlock: QUQFOY_clean_sbu_3, # of connection points: 4
#     Node 23, Type 0, BuildingBlock: QUQFOY_clean_sbu_3, # of connection points: 4
#     Node 24, Type 0, BuildingBlock: QUQFOY_clean_sbu_3, # of connection points: 4
#     Node 25, Type 0, BuildingBlock: QUQFOY_clean_sbu_3, # of connection points: 4
#     Node 26, Type 0, BuildingBlock: QUQFOY_clean_sbu_3, # of connection points: 4
#     Node 27, Type 0, BuildingBlock: QUQFOY_clean_sbu_3, # of connection points: 4
#     Node 28, Type 0, BuildingBlock: QUQFOY_clean_sbu_3, # of connection points: 4
#     Node 29, Type 0, BuildingBlock: QUQFOY_clean_sbu_3, # of connection points: 4
#     Node 30, Type 0, BuildingBlock: QUQFOY_clean_sbu_3, # of connection points: 4
#     Node 31, Type 0, BuildingBlock: QUQFOY_clean_sbu_3, # of connection points: 4
#     Edge 32, Type (0, 0), BuildingBlock: XUDNAN_clean_linker_2, # of connection points: 2
#     Edge 33, Type (0, 0), BuildingBlock: XUDNAN_clean_linker_2, # of connection points: 2
#     Edge 34, Type (0, 0), BuildingBlock: XUDNAN_clean_linker_2, # of connection points: 2
#     Edge 35, Type (0, 0), BuildingBlock: XUDNAN_clean_linker_2, # of connection points: 2
#     Edge 36, Type (0, 0), BuildingBlock: XUDNAN_clean_linker_2, # of connection points: 2
#     Edge 37, Type (0, 0), BuildingBlock: XUDNAN_clean_linker_2, # of connection points: 2
#     Edge 38, Type (0, 0), BuildingBlock: XUDNAN_clean_linker_2, # of connection points: 2
#     Edge 39, Type (0, 0), BuildingBlock: XUDNAN_clean_linker_2, # of connection points: 2
#     Edge 40, Type (0, 0), BuildingBlock: XUDNAN_clean_linker_2, # of connection points: 2
#     Edge 41, Type (0, 0), BuildingBlock: XUDNAN_clean_linker_2, # of connection points: 2
#     Edge 42, Type (0, 0), BuildingBlock: XUDNAN_clean_linker_2, # of connection points: 2
#     Edge 43, Type (0, 0), BuildingBlock: XUDNAN_clean_linker_2, # of connection points: 2
#     Edge 44, Type (0, 0), BuildingBlock: XUDNAN_clean_linker_2, # of connection points: 2
#     Edge 45, Type (0, 0), BuildingBlock: XUDNAN_clean_linker_2, # of connection points: 2
#     Edge 46, Type (0, 0), BuildingBlock: XUDNAN_clean_linker_2, # of connection points: 2
#     Edge 47, Type (0, 0), BuildingBlock: XUDNAN_clean_linker_2, # of connection points: 2
#     Edge 48, Type (0, 0), BuildingBlock: XUDNAN_clean_linker_2, # of connection points: 2
#     Edge 49, Type (0, 0), BuildingBlock: XUDNAN_clean_linker_2, # of connection points: 2
#     Edge 50, Type (0, 0), BuildingBlock: XUDNAN_clean_linker_2, # of connection points: 2
#     Edge 51, Type (0, 0), BuildingBlock: XUDNAN_clean_linker_2, # of connection points: 2
#     Edge 52, Type (0, 0), BuildingBlock: XUDNAN_clean_linker_2, # of connection points: 2
#     Edge 53, Type (0, 0), BuildingBlock: XUDNAN_clean_linker_2, # of connection points: 2
#     Edge 54, Type (0, 0), BuildingBlock: XUDNAN_clean_linker_2, # of connection points: 2
#     Edge 55, Type (0, 0), BuildingBlock: XUDNAN_clean_linker_2, # of connection points: 2
#     Edge 56, Type (0, 0), BuildingBlock: XUDNAN_clean_linker_2, # of connection points: 2
#     Edge 57, Type (0, 0), BuildingBlock: XUDNAN_clean_linker_2, # of connection points: 2
#     Edge 58, Type (0, 0), BuildingBlock: XUDNAN_clean_linker_2, # of connection points: 2
#     Edge 59, Type (0, 0), BuildingBlock: XUDNAN_clean_linker_2, # of connection points: 2
#     Edge 60, Type (0, 0), BuildingBlock: XUDNAN_clean_linker_2, # of connection points: 2
#     Edge 61, Type (0, 0), BuildingBlock: XUDNAN_clean_linker_2, # of connection points: 2
#     Edge 62, Type (0, 0), BuildingBlock: XUDNAN_clean_linker_2, # of connection points: 2
#     Edge 63, Type (0, 0), BuildingBlock: XUDNAN_clean_linker_2, # of connection points: 2
#     Edge 64, Type (0, 0), BuildingBlock: XUDNAN_clean_linker_2, # of connection points: 2
#     Edge 65, Type (0, 0), BuildingBlock: XUDNAN_clean_linker_2, # of connection points: 2
#     Edge 66, Type (0, 0), BuildingBlock: XUDNAN_clean_linker_2, # of connection points: 2
#     Edge 67, Type (0, 0), BuildingBlock: XUDNAN_clean_linker_2, # of connection points: 2
#     Edge 68, Type (0, 0), BuildingBlock: XUDNAN_clean_linker_2, # of connection points: 2
#     Edge 69, Type (0, 0), BuildingBlock: XUDNAN_clean_linker_2, # of connection points: 2
#     Edge 70, Type (0, 0), BuildingBlock: XUDNAN_clean_linker_2, # of connection points: 2
#     Edge 71, Type (0, 0), BuildingBlock: XUDNAN_clean_linker_2, # of connection points: 2
#     Edge 72, Type (0, 0), BuildingBlock: XUDNAN_clean_linker_2, # of connection points: 2
#     Edge 73, Type (0, 0), BuildingBlock: XUDNAN_clean_linker_2, # of connection points: 2
#     Edge 74, Type (0, 0), BuildingBlock: XUDNAN_clean_linker_2, # of connection points: 2
#     Edge 75, Type (0, 0), BuildingBlock: XUDNAN_clean_linker_2, # of connection points: 2
#     Edge 76, Type (0, 0), BuildingBlock: XUDNAN_clean_linker_2, # of connection points: 2
#     Edge 77, Type (0, 0), BuildingBlock: XUDNAN_clean_linker_2, # of connection points: 2
#     Edge 78, Type (0, 0), BuildingBlock: XUDNAN_clean_linker_2, # of connection points: 2
#     Edge 79, Type (0, 0), BuildingBlock: XUDNAN_clean_linker_2, # of connection points: 2
#     Edge 80, Type (0, 0), BuildingBlock: XUDNAN_clean_linker_2, # of connection points: 2
#     Edge 81, Type (0, 0), BuildingBlock: XUDNAN_clean_linker_2, # of connection points: 2
#     Edge 82, Type (0, 0), BuildingBlock: XUDNAN_clean_linker_2, # of connection points: 2
#     Edge 83, Type (0, 0), BuildingBlock: XUDNAN_clean_linker_2, # of connection points: 2
#     Edge 84, Type (0, 0), BuildingBlock: XUDNAN_clean_linker_2, # of connection points: 2
#     Edge 85, Type (0, 0), BuildingBlock: XUDNAN_clean_linker_2, # of connection points: 2
#     Edge 86, Type (0, 0), BuildingBlock: XUDNAN_clean_linker_2, # of connection points: 2
#     Edge 87, Type (0, 0), BuildingBlock: XUDNAN_clean_linker_2, # of connection points: 2
#     Edge 88, Type (0, 0), BuildingBlock: XUDNAN_clean_linker_2, # of connection points: 2
#     Edge 89, Type (0, 0), BuildingBlock: XUDNAN_clean_linker_2, # of connection points: 2
#     Edge 90, Type (0, 0), BuildingBlock: XUDNAN_clean_linker_2, # of connection points: 2
#     Edge 91, Type (0, 0), BuildingBlock: XUDNAN_clean_linker_2, # of connection points: 2
#     Edge 92, Type (0, 0), BuildingBlock: XUDNAN_clean_linker_2, # of connection points: 2
#     Edge 93, Type (0, 0), BuildingBlock: XUDNAN_clean_linker_2, # of connection points: 2
#     Edge 94, Type (0, 0), BuildingBlock: XUDNAN_clean_linker_2, # of connection points: 2
#     Edge 95, Type (0, 0), BuildingBlock: XUDNAN_clean_linker_2, # of connection points: 2
# Relax obj value: 0.059
# Max RMSD: 0.086
# Mean RMSD: 0.086
data_MOF--net-uox--node1-QUQFOY_clean_sbu_3--edge1-XUDNAN_clean_linker_2
_symmetry_space_group_name_H-M    P1
_symmetry_Int_Tables_number       1
_symmetry_cell_setting            triclinic
loop_
_symmetry_equiv_pos_as_xyz
'x, y, z'
_cell_length_a     47.399913
_cell_length_b     47.180579
_cell_length_c     81.319364
_cell_angle_alpha  90.000932
_cell_angle_beta   90.078159
_cell_angle_gamma 90.008882
loop_
_atom_site_label
_atom_site_type_symbol
_atom_site_fract_x
_atom_site_fract_y
_atom_site_fract_z
_atom_type_partial_charge
C0 C 0.47936 0.04105 0.12823 0.0
O1 O 0.46603 0.039 0.11474 0.0
Cd2 Cd 0.41698 0.02594 0.11353 0.0
O3 O 0.46695 0.03599 0.14182 0.0
Cd4 Cd 0.41929 0.02232 0.15157 0.0
C5 C 0.38738 0.08038 0.13478 0.0
O6 O 0.40842 0.98552 0.13102 0.0
O7 O 0.37466 -0.00162 0.14736 0.0
O8 O 0.43775 0.98987 0.17236 0.0
C9 C 0.38369 0.98144 0.1365 0.0
O10 O 0.39056 0.06828 0.12092 0.0
C11 C 0.42774 0.00291 0.18468 0.0
O12 O 0.39698 0.069 0.14785 0.0
O13 O 0.4147 0.0259 0.18177 0.0
C14 C 0.18723 0.23639 0.37297 0.0
O15 O 0.19055 0.22234 0.35981 0.0
Cd16 Cd 0.20744 0.17429 0.35935 0.0
O17 O 0.19212 0.22497 0.3869 0.0
Cd18 Cd 0.20593 0.17755 0.39749 0.0
C19 C 0.15403 0.13983 0.37803 0.0
O20 O 0.24574 0.16939 0.37906 0.0
O21 O 0.23168 0.13333 0.39327 0.0
O22 O 0.23149 0.19119 0.42289 0.0
C23 C 0.24994 0.14409 0.38376 0.0
O24 O 0.16663 0.14351 0.36439 0.0
C25 C 0.21167 0.18368 0.43244 0.0
O26 O 0.16343 0.15114 0.39112 0.0
O27 O 0.18963 0.17368 0.42577 0.0
C28 C 0.00262 0.95899 0.61823 0.0
O29 O 0.01758 0.97259 0.60797 0.0
Cd30 Cd 0.06661 0.98399 0.61173 0.0
O31 O 0.01253 0.95267 0.63235 0.0
Cd32 Cd 0.0573 0.95932 0.648 0.0
C33 C 0.08942 0.91625 0.62038 0.0
O34 O 0.07713 0.00431 0.63794 0.0
O35 O 0.10557 0.9745 0.64953 0.0
O36 O 0.03924 0.97989 0.67345 0.0
C37 C 0.10185 -0.00123 0.64318 0.0
O38 O 0.08838 0.93737 0.61063 0.0
C39 C 0.04432 0.95841 0.68237 0.0
O40 O 0.07871 0.91758 0.63476 0.0
O41 O 0.05446 0.93672 0.67523 0.0
C42 C 0.29136 0.74517 0.87789 0.0
O43 O 0.28694 0.75796 0.86441 0.0
Cd44 Cd 0.27063 0.80614 0.8645 0.0
O45 O 0.28699 0.75772 0.89153 0.0
Cd46 Cd 0.27051 0.80414 0.9023 0.0
C47 C 0.32474 0.83927 0.88457 0.0
O48 O 0.23092 0.81058 0.88316 0.0
O49 O 0.2439 0.84744 0.89698 0.0
O50 O 0.2502 0.77528 0.92446 0.0
C51 C 0.22604 0.83591 0.88752 0.0
O52 O 0.3117 0.83573 0.87103 0.0
C53 C 0.25656 0.79221 0.936 0.0
O54 O 0.31534 0.82837 0.8978 0.0
O55 O 0.26955 0.81468 0.93196 0.0
C56 C 0.48264 0.94317 0.35929 0.0
O57 O 0.47236 0.95263 0.3726 0.0
Cd58 Cd 0.42472 0.9696 0.37458 0.0
O59 O 0.46769 0.94226 0.34626 0.0
Cd60 Cd 0.41868 0.95343 0.33754 0.0
C61 C 0.38901 0.90864 0.3654 0.0
O62 O 0.41323 -0.00095 0.35131 0.0
O63 O 0.37483 0.97909 0.34274 0.0
O64 O 0.43148 0.97487 0.31117 0.0
C65 C 0.38691 0.00084 0.34863 0.0
O66 O 0.39541 0.92723 0.37613 0.0
C67 C 0.42153 0.9552 0.30226 0.0
O68 O 0.39629 0.91186 0.35042 0.0
O69 O 0.41027 0.93439 0.30968 0.0
C70 C 0.29744 0.23067 0.60589 0.0
O71 O 0.2937 0.21844 0.61962 0.0
Cd72 Cd 0.28022 0.16936 0.62186 0.0
O73 O 0.29326 0.21728 0.59251 0.0
Cd74 Cd 0.27815 0.16964 0.5831 0.0
C75 C 0.33392 0.13657 0.60082 0.0
O76 O 0.24195 0.15766 0.6036 0.0
O77 O 0.25944 0.12324 0.58929 0.0
O78 O 0.24463 0.18666 0.56268 0.0
C79 C 0.24135 0.13161 0.59967 0.0
O80 O 0.32169 0.14146 0.61447 0.0
C81 C 0.25815 0.17815 0.55017 0.0
O82 O 0.3237 0.14593 0.58735 0.0
O83 O 0.28152 0.16576 0.55284 0.0
C84 C -0.00401 0.04023 0.8577 0.0
O85 O 0.00877 0.03561 0.87115 0.0
Cd86 Cd 0.05665 0.01931 0.87176 0.0
O87 O 0.00821 0.03546 0.84402 0.0
Cd88 Cd 0.05451 0.01803 0.8339 0.0
C89 C 0.08886 0.07356 0.85128 0.0
O90 O 0.06236 0.97945 0.85338 0.0
O91 O 0.09903 -0.00607 0.83999 0.0
O92 O 0.03359 0.98749 0.81289 0.0
C93 C 0.08782 0.97543 0.84922 0.0
O94 O 0.0852 0.06086 0.86493 0.0
C95 C 0.04449 -3e-05 0.80064 0.0
O96 O 0.07867 0.06336 0.83804 0.0
O97 O 0.05972 0.0215 0.80371 0.0
C98 C 0.18178 0.7561 0.11775 0.0
O99 O 0.18935 0.77258 0.12929 0.0
Cd100 Cd 0.20884 0.8188 0.12657 0.0
O101 O 0.18452 0.76354 0.10271 0.0
Cd102 Cd 0.20284 0.80643 0.08756 0.0
C103 C 0.15425 0.85001 0.1058 0.0
O104 O 0.24347 0.81325 0.10548 0.0
O105 O 0.23731 0.84573 0.08737 0.0
O106 O 0.21699 0.77436 0.06503 0.0
C107 C 0.25225 0.83589 0.09894 0.0
O108 O 0.16851 0.8483 0.11904 0.0
C109 C 0.20968 0.79129 0.05364 0.0
O110 O 0.1615 0.83617 0.09304 0.0
O111 O 0.19843 0.81448 0.05803 0.0
C112 C 0.50336 0.94052 0.86688 0.0
O113 O 0.52121 0.94752 0.87781 0.0
Cd114 Cd 0.56931 0.96014 0.87365 0.0
O115 O 0.50988 0.94143 0.85166 0.0
Cd116 Cd 0.5526 0.95599 0.83537 0.0
C117 C 0.59133 0.90196 0.85131 0.0
O118 O 0.57151 -0.00555 0.85231 0.0
O119 O 0.60034 0.97468 0.83533 0.0
O120 O 0.52897 0.9876 0.81597 0.0
C121 C 0.59574 -0.00586 0.84572 0.0
O122 O 0.59212 0.91648 0.86452 0.0
C123 C 0.53545 0.9738 0.80312 0.0
O124 O 0.57724 0.91043 0.83885 0.0
O125 O 0.54866 0.95063 0.80526 0.0
C126 C 0.78907 0.75948 0.61794 0.0
O127 O 0.78301 0.77753 0.62895 0.0
Cd128 Cd 0.77193 0.82623 0.62499 0.0
O129 O 0.78807 0.76627 0.60273 0.0
Cd130 Cd 0.77438 0.81016 0.5868 0.0
C131 C 0.82937 0.84805 0.60215 0.0
O132 O 0.73693 0.8297 0.60416 0.0
O133 O 0.75719 0.8588 0.58749 0.0
O134 O 0.74083 0.78847 0.56776 0.0
C135 C 0.73772 0.85423 0.59782 0.0
O136 O 0.8154 0.84865 0.61552 0.0
C137 C 0.75445 0.7939 0.55472 0.0
O138 O 0.82033 0.83427 0.58969 0.0
O139 O 0.77839 0.80568 0.55652 0.0
C140 C 0.97314 0.04038 0.36753 0.0
O141 O 0.9565 0.03516 0.37936 0.0
Cd142 Cd 0.90893 0.0205 0.37721 0.0
O143 O 0.96505 0.03721 0.35264 0.0
Cd144 Cd 0.92035 0.02038 0.33899 0.0
C145 C 0.88218 0.07544 0.35449 0.0
O146 O 0.9106 0.98224 0.35801 0.0
O147 O 0.87548 -0.00604 0.3426 0.0
O148 O 0.94378 0.99029 0.3186 0.0
C149 C 0.88613 0.9766 0.35277 0.0
O150 O 0.88309 0.06272 0.36829 0.0
C151 C 0.93448 0.00328 0.30606 0.0
O152 O 0.89478 0.06522 0.34199 0.0
O153 O 0.91936 0.02502 0.30872 0.0
C154 C 0.68176 0.23593 0.11182 0.0
O155 O 0.69193 0.22799 0.1255 0.0
Cd156 Cd 0.7141 0.18241 0.12836 0.0
O157 O 0.68433 0.22036 0.09911 0.0
Cd158 Cd 0.70542 0.17492 0.09004 0.0
C159 C 0.65978 0.13978 0.11414 0.0
O160 O 0.74827 0.17494 0.10712 0.0
O161 O 0.73537 0.13491 0.09663 0.0
O162 O 0.72118 0.20298 0.06666 0.0
C163 C 0.75357 0.14891 0.10466 0.0
O164 O 0.67586 0.14815 0.12574 0.0
C165 C 0.71606 0.18447 0.05575 0.0
O166 O 0.66381 0.14804 0.09938 0.0
O167 O 0.70532 0.16125 0.06063 0.0
C168 C 0.50529 0.02555 0.62195 0.0
O169 O 0.52047 0.01171 0.61192 0.0
Cd170 Cd 0.56965 0.00227 0.61565 0.0
O171 O 0.51501 0.0327 0.63599 0.0
Cd172 Cd 0.55912 0.02692 0.65252 0.0
C173 C 0.58997 0.07119 0.62521 0.0
O174 O 0.57907 0.98288 0.64199 0.0
O175 O 0.60794 0.01203 0.65373 0.0
O176 O 0.53928 0.00435 0.67687 0.0
C177 C 0.60403 0.98827 0.64679 0.0
O178 O 0.58917 0.05005 0.61545 0.0
C179 C 0.54362 0.02501 0.68653 0.0
O180 O 0.57967 0.06961 0.6397 0.0
O181 O 0.55449 0.04722 0.68033 0.0
C182 C 0.69326 0.75293 0.37294 0.0
O183 O 0.70747 0.76752 0.36278 0.0
Cd184 Cd 0.72623 0.81354 0.36694 0.0
O185 O 0.68895 0.76197 0.38753 0.0
Cd186 Cd 0.70215 0.80602 0.40335 0.0
C187 C 0.66345 0.84624 0.37718 0.0
O188 O 0.74922 0.81436 0.39283 0.0
O189 O 0.72824 0.85107 0.40282 0.0
O190 O 0.72107 0.78468 0.42845 0.0
C191 C 0.7507 0.84003 0.39729 0.0
O192 O 0.68393 0.84289 0.36723 0.0
C193 C 0.702 0.79387 0.43798 0.0
O194 O 0.66352 0.83415 0.39122 0.0
O195 O 0.68204 0.80783 0.43139 0.0
C196 C 0.97946 0.95783 0.12328 0.0
O197 O 0.96488 0.97154 0.11288 0.0
Cd198 Cd 0.91876 0.99018 0.117 0.0
O199 O 0.97011 0.95354 0.1378 0.0
Cd200 Cd 0.92573 0.96562 0.15316 0.0
C201 C 0.88456 0.92797 0.12676 0.0
O202 O 0.91802 0.0135 0.14294 0.0
O203 O 0.8817 -0.0071 0.1535 0.0
O204 O 0.94583 0.98302 0.17898 0.0
C205 C 0.89273 0.01537 0.14783 0.0
O206 O 0.88808 0.94863 0.11688 0.0
C207 C 0.93715 0.96268 0.18781 0.0
O208 O 0.89704 0.92759 0.14067 0.0
O209 O 0.924 0.94287 0.18051 0.0
C210 C 0.77362 0.22072 0.87458 0.0
O211 O 0.7594 0.20616 0.86438 0.0
Cd212 Cd 0.74658 0.15754 0.86771 0.0
O213 O 0.77982 0.21068 0.88871 0.0
Cd214 Cd 0.7706 0.16663 0.90503 0.0
C215 C 0.81393 0.13388 0.87823 0.0
O216 O 0.72558 0.1501 0.89368 0.0
O217 O 0.75151 0.11931 0.90616 0.0
O218 O 0.75443 0.19641 0.92763 0.0
C219 C 0.72882 0.12473 0.89856 0.0
O220 O 0.7928 0.13511 0.86854 0.0
C221 C 0.7673 0.18286 0.93885 0.0
O222 O 0.81302 0.14518 0.89251 0.0
O223 O 0.78297 0.16243 0.93433 0.0
C224 C 0.97863 0.54637 0.6317 0.0
O225 O 0.96684 0.54154 0.61797 0.0
Cd226 Cd 0.91941 0.52437 0.61592 0.0
O227 O 0.96561 0.54131 0.64509 0.0
Cd228 Cd 0.91935 0.52229 0.65419 0.0
C229 C 0.88385 0.57685 0.63626 0.0
O230 O 0.91418 0.48421 0.63403 0.0
O231 O 0.87657 0.49569 0.64748 0.0
O232 O 0.94175 0.49281 0.67506 0.0
C233 C 0.88882 0.47866 0.63777 0.0
O234 O 0.88919 0.56485 0.62259 0.0
C235 C 0.92977 0.50408 0.68736 0.0
O236 O 0.89335 0.5666 0.64967 0.0
O237 O 0.91295 0.52443 0.6844 0.0
C238 C 0.69923 0.72665 0.86813 0.0
O239 O 0.7121 0.71121 0.85778 0.0
Cd240 Cd 0.72399 0.6622 0.86132 0.0
O241 O 0.69354 0.71721 0.88245 0.0
Cd242 Cd 0.7006 0.67265 0.89854 0.0
C243 C 0.65701 0.63908 0.87173 0.0
O244 O 0.74459 0.65338 0.88746 0.0
O245 O 0.71649 0.6241 0.89964 0.0
O246 O 0.72165 0.69174 0.92368 0.0
C247 C 0.73977 0.62826 0.89236 0.0
O248 O 0.67761 0.63999 0.86168 0.0
C249 C 0.70062 0.6865 0.93285 0.0
O250 O 0.65877 0.65049 0.88595 0.0
O251 O 0.67908 0.67558 0.92599 0.0
C252 C 0.50253 0.4652 0.11572 0.0
O253 O 0.5183 0.47781 0.10545 0.0
Cd254 Cd 0.56717 0.48734 0.11054 0.0
O255 O 0.51143 0.45987 0.1302 0.0
Cd256 Cd 0.55423 0.4684 0.14742 0.0
C257 C 0.58592 0.41974 0.12353 0.0
O258 O 0.57429 0.51201 0.13578 0.0
O259 O 0.60235 0.48506 0.14972 0.0
O260 O 0.52666 0.49233 0.16828 0.0
C261 C 0.59854 0.50817 0.14208 0.0
O262 O 0.58627 0.43964 0.11293 0.0
C263 C 0.53428 0.47689 0.18026 0.0
O264 O 0.5745 0.42333 0.13759 0.0
O265 O 0.55046 0.45615 0.17693 0.0
C266 C 0.7936 0.26283 0.36644 0.0
O267 O 0.78589 0.27972 0.35516 0.0
Cd268 Cd 0.77336 0.32821 0.35856 0.0
O269 O 0.79363 0.2708 0.38146 0.0
Cd270 Cd 0.77998 0.31516 0.39681 0.0
C271 C 0.8331 0.35143 0.3788 0.0
O272 O 0.73974 0.33141 0.38025 0.0
O273 O 0.75992 0.3625 0.39566 0.0
O274 O 0.75649 0.28659 0.41804 0.0
C275 C 0.73984 0.35635 0.38604 0.0
O276 O 0.81749 0.35184 0.36603 0.0
C277 C 0.76657 0.30035 0.43012 0.0
O278 O 0.8256 0.33796 0.39167 0.0
O279 O 0.78377 0.32015 0.42677 0.0
C280 C 0.96682 0.4413 0.87057 0.0
O281 O 0.94848 0.44758 0.88133 0.0
Cd282 Cd 0.89999 0.45893 0.8766 0.0
O283 O 0.96034 0.44122 0.85532 0.0
Cd284 Cd 0.9165 0.45034 0.83879 0.0
C285 C 0.87786 0.39831 0.85743 0.0
O286 O 0.89702 0.49086 0.85378 0.0
O287 O 0.8686 0.46863 0.83754 0.0
O288 O 0.93337 0.47705 0.81467 0.0
C289 C 0.8729 0.48949 0.84705 0.0
O290 O 0.8767 0.41392 0.87019 0.0
C291 C 0.93149 0.45629 0.80479 0.0
O292 O 0.89192 0.40595 0.84484 0.0
O293 O 0.92358 0.43277 0.81079 0.0
C294 C 0.78669 0.74732 0.10746 0.0
O295 O 0.7848 0.73318 0.12069 0.0
Cd296 Cd 0.77208 0.68382 0.12177 0.0
O297 O 0.78128 0.73567 0.09366 0.0
Cd298 Cd 0.76719 0.68808 0.08333 0.0
C299 C 0.82533 0.65536 0.09875 0.0
O300 O 0.73268 0.67304 0.10413 0.0
O301 O 0.75122 0.64033 0.08898 0.0
O302 O 0.73225 0.70388 0.06307 0.0
C303 C 0.73299 0.64727 0.09963 0.0
O304 O 0.81365 0.65748 0.11279 0.0
C305 C 0.74604 0.69595 0.05052 0.0
O306 O 0.81402 0.66649 0.08605 0.0
O307 O 0.77005 0.68487 0.05314 0.0
C308 C 0.50482 0.52855 0.36369 0.0
O309 O 0.52288 0.52142 0.37447 0.0
Cd310 Cd 0.57185 0.51244 0.36934 0.0
O311 O 0.51173 0.53014 0.34857 0.0
Cd312 Cd 0.55461 0.52295 0.33147 0.0
C313 C 0.59043 0.57557 0.3514 0.0
O314 O 0.57635 0.48288 0.34555 0.0
O315 O 0.60304 0.50706 0.32921 0.0
O316 O 0.53629 0.49609 0.30785 0.0
C317 C 0.60016 0.48581 0.33861 0.0
O318 O 0.5924 0.55913 0.36378 0.0
C319 C 0.5368 0.51694 0.29799 0.0
O320 O 0.5769 0.56807 0.33855 0.0
O321 O 0.54501 0.54057 0.30373 0.0
C322 C 0.68858 0.25108 0.60452 0.0
O323 O 0.70142 0.2594 0.61733 0.0
Cd324 Cd 0.72204 0.30585 0.61856 0.0
O325 O 0.68796 0.26658 0.59169 0.0
Cd326 Cd 0.70582 0.31244 0.58101 0.0
C327 C 0.66283 0.34499 0.60786 0.0
O328 O 0.7516 0.31483 0.5952 0.0
O329 O 0.73463 0.35404 0.58567 0.0
O330 O 0.71777 0.28385 0.55707 0.0
C331 C 0.755 0.34108 0.59239 0.0
O332 O 0.68122 0.33728 0.61839 0.0
C333 C 0.71093 0.30215 0.54637 0.0
O334 O 0.66497 0.33753 0.59282 0.0
O335 O 0.70092 0.32544 0.55164 0.0
C336 C 0.00683 0.45766 0.35573 0.0
O337 O 0.02264 0.47181 0.36531 0.0
Cd338 Cd 0.07002 0.48618 0.35943 0.0
O339 O 0.01498 0.45149 0.34122 0.0
Cd340 Cd 0.05728 0.45926 0.3235 0.0
C341 C 0.0963 0.41972 0.35013 0.0
O342 O 0.07288 0.50596 0.33266 0.0
O343 O 0.10316 0.48119 0.31904 0.0
O344 O 0.03286 0.47789 0.29944 0.0
C345 C 0.09714 0.50437 0.32613 0.0
O346 O 0.09509 0.44134 0.35948 0.0
C347 C 0.03843 0.45722 0.29002 0.0
O348 O 0.08342 0.41941 0.33631 0.0
O349 O 0.05189 0.43654 0.29627 0.0
C350 C 0.29773 0.26596 0.11681 0.0
O351 O 0.28987 0.28429 0.12728 0.0
Cd352 Cd 0.27186 0.33051 0.12121 0.0
O353 O 0.29589 0.27113 0.10142 0.0
Cd354 Cd 0.27905 0.3114 0.08385 0.0
C355 C 0.32764 0.35754 0.09973 0.0
O356 O 0.23695 0.32393 0.10023 0.0
O357 O 0.24692 0.35076 0.07953 0.0
O358 O 0.26281 0.27583 0.06358 0.0
C359 C 0.23019 0.34458 0.09107 0.0
O360 O 0.31276 0.35812 0.11274 0.0
C361 C 0.27122 0.2899 0.0512 0.0
O362 O 0.3209 0.34157 0.0877 0.0
O363 O 0.28456 0.31268 0.0541 0.0
C364 C 0.4786 0.53531 0.8584 0.0
O365 O 0.46978 0.52682 0.87229 0.0
Cd366 Cd 0.42418 0.50583 0.87674 0.0
O367 O 0.46348 0.53234 0.84554 0.0
Cd368 Cd 0.4169 0.51337 0.83712 0.0
C369 C 0.38289 0.56049 0.86182 0.0
O370 O 0.41478 0.47257 0.85552 0.0
O371 O 0.37638 0.48304 0.84248 0.0
O372 O 0.43706 0.48676 0.8146 0.0
C373 C 0.38927 0.46662 0.85229 0.0
O374 O 0.39165 0.54489 0.87354 0.0
C375 C 0.42388 0.49928 0.80313 0.0
O376 O 0.39007 0.55545 0.84696 0.0
O377 O 0.40792 0.51976 0.80725 0.0
C378 C 0.18782 0.73551 0.6031 0.0
O379 O 0.19932 0.72753 0.61642 0.0
Cd380 Cd 0.21929 0.68141 0.62043 0.0
O381 O 0.18695 0.71903 0.59069 0.0
Cd382 Cd 0.20222 0.67008 0.5839 0.0
C383 C 0.15946 0.6429 0.61318 0.0
O384 O 0.24862 0.66871 0.59749 0.0
O385 O 0.22985 0.62855 0.59109 0.0
O386 O 0.21507 0.68527 0.55591 0.0
C387 C 0.25119 0.64204 0.59627 0.0
O388 O 0.17843 0.65032 0.62341 0.0
C389 C 0.20219 0.66509 0.54879 0.0
O390 O 0.16164 0.64927 0.598 0.0
O391 O 0.18869 0.64803 0.55794 0.0
C392 C -0.00143 0.54211 0.10961 0.0
O393 O 0.01618 0.53636 0.09832 0.0
Cd394 Cd 0.06272 0.51795 0.10101 0.0
O395 O 0.00443 0.53716 0.1247 0.0
Cd396 Cd 0.04576 0.51685 0.14028 0.0
C397 C 0.08855 0.5704 0.12608 0.0
O398 O 0.05764 0.48075 0.12039 0.0
O399 O 0.08786 0.48568 0.13992 0.0
O400 O 0.01841 0.48878 0.16007 0.0
C401 C 0.0802 0.47239 0.12713 0.0
O402 O 0.08867 0.55834 0.11207 0.0
C403 C 0.02795 0.5013 0.17275 0.0
O404 O 0.07428 0.56021 0.13799 0.0
O405 O 0.04452 0.52203 0.1703 0.0
C406 C 0.18128 0.25727 0.87081 0.0
O407 O 0.18855 0.27579 0.86029 0.0
Cd408 Cd 0.20617 0.32238 0.8655 0.0
O409 O 0.18329 0.26237 0.8862 0.0
Cd410 Cd 0.19956 0.30345 0.90348 0.0
C411 C 0.14991 0.34834 0.88694 0.0
O412 O 0.24078 0.31505 0.88646 0.0
O413 O 0.23311 0.34222 0.90731 0.0
O414 O 0.21527 0.26917 0.92466 0.0
C415 C 0.24874 0.3356 0.89533 0.0
O416 O 0.16462 0.3492 0.87387 0.0
C417 C 0.20708 0.28441 0.93663 0.0
O418 O 0.15731 0.33283 0.89903 0.0
O419 O 0.19398 0.30705 0.93308 0.0
C420 C 0.48522 0.44692 0.62731 0.0
O421 O 0.47504 0.45662 0.61401 0.0
Cd422 Cd 0.42786 0.47484 0.61175 0.0
O423 O 0.4704 0.44645 0.64037 0.0
Cd424 Cd 0.42178 0.45884 0.6492 0.0
C425 C 0.39051 0.41494 0.62143 0.0
O426 O 0.41705 0.50425 0.63503 0.0
O427 O 0.37856 0.48526 0.64407 0.0
O428 O 0.43344 0.47985 0.67596 0.0
C429 C 0.39077 0.50649 0.63767 0.0
O430 O 0.39735 0.43327 0.61065 0.0
C431 C 0.42355 0.45963 0.68446 0.0
O432 O 0.3981 0.41796 0.63637 0.0
O433 O 0.41305 0.43886 0.67663 0.0
C434 C 0.29569 0.72393 0.37906 0.0
O435 O 0.29277 0.71296 0.36489 0.0
Cd436 Cd 0.27602 0.66616 0.35918 0.0
O437 O 0.28916 0.70995 0.39195 0.0
Cd438 Cd 0.27016 0.66159 0.39824 0.0
C439 C 0.3261 0.62872 0.38043 0.0
O440 O 0.23512 0.6593 0.37595 0.0
O441 O 0.24414 0.62024 0.38853 0.0
O442 O 0.24624 0.68083 0.42296 0.0
C443 C 0.22921 0.63343 0.37817 0.0
O444 O 0.315 0.63456 0.36657 0.0
C445 C 0.25233 0.65955 0.43186 0.0
O446 O 0.31521 0.63782 0.39373 0.0
O447 O 0.26714 0.64025 0.42531 0.0
H448 H 0.42198 0.00269 0.283 0.0
H449 H 0.42433 0.91089 0.28071 0.0
H450 H 0.42834 0.9133 0.25038 0.0
H451 H 0.37824 0.01134 0.24709 0.0
H452 H 0.39539 0.04352 0.24056 0.0
H453 H 0.39424 0.03451 0.26207 0.0
H454 H 0.44873 0.03813 0.26362 0.0
H455 H 0.45006 0.04701 0.24209 0.0
H456 H 0.46999 0.01729 0.24979 0.0
H457 H 0.43388 0.92593 0.22046 0.0
H458 H 0.43456 0.94734 0.19275 0.0
H459 H 0.42438 0.03082 0.21432 0.0
C460 C 0.42349 0.98312 0.27609 0.0
C461 C 0.42316 0.95658 0.28414 0.0
C462 C 0.4246 0.9314 0.27473 0.0
C463 C 0.42701 0.93259 0.25754 0.0
C464 C 0.4274 0.95911 0.24997 0.0
C465 C 0.4252 0.98391 0.25891 0.0
C466 C 0.42448 0.0096 0.24771 0.0
C467 C 0.39641 0.02568 0.24946 0.0
C468 C 0.44982 0.02916 0.251 0.0
C469 C 0.42679 -0.0046 0.23106 0.0
C470 C 0.42892 0.9663 0.23266 0.0
C471 C 0.43202 0.94866 0.21905 0.0
C472 C 0.43253 0.96104 0.20337 0.0
C473 C 0.42943 0.99071 0.2014 0.0
C474 C 0.42663 0.00807 0.21546 0.0
H475 H 0.28631 0.17473 0.5206 0.0
H476 H 0.20372 0.18974 0.54189 0.0
H477 H 0.18336 0.19427 0.5141 0.0
H478 H 0.27813 0.22509 0.48677 0.0
H479 H 0.29713 0.20334 0.47231 0.0
H480 H 0.30547 0.20154 0.49392 0.0
H481 H 0.29685 0.14732 0.49358 0.0
H482 H 0.28848 0.14895 0.47199 0.0
H483 H 0.26356 0.13379 0.48622 0.0
H484 H 0.17124 0.19372 0.48427 0.0
H485 H 0.16865 0.19158 0.45397 0.0
H486 H 0.2594 0.18045 0.45161 0.0
C487 C 0.26398 0.17907 0.51938 0.0
C488 C 0.24656 0.18178 0.5334 0.0
C489 C 0.21746 0.18765 0.53133 0.0
C490 C 0.20569 0.19022 0.51559 0.0
C491 C 0.22335 0.18731 0.50204 0.0
C492 C 0.25192 0.18221 0.50373 0.0
C493 C 0.26614 0.1802 0.48706 0.0
C494 C 0.28801 0.20396 0.48489 0.0
C495 C 0.27954 0.15082 0.48457 0.0
C496 C 0.24099 0.18447 0.47577 0.0
C497 C 0.21651 0.18836 0.48471 0.0
C498 C 0.1903 0.19111 0.47712 0.0
C499 C 0.18903 0.18979 0.45993 0.0
C500 C 0.21384 0.18619 0.4505 0.0
C501 C 0.24018 0.18376 0.45853 0.0
H502 H 0.05114 0.02871 0.77148 0.0
H503 H 0.02924 0.94646 0.79163 0.0
H504 H 0.02521 0.92703 0.76352 0.0
H505 H 0.00265 0.02475 0.73649 0.0
H506 H 0.02646 0.04292 0.72282 0.0
H507 H 0.02721 0.05044 0.74454 0.0
H508 H 0.08054 0.03842 0.74539 0.0
H509 H 0.07994 0.03083 0.7237 0.0
H510 H 0.09242 0.00444 0.73799 0.0
H511 H 0.02771 0.91557 0.73327 0.0
H512 H 0.03227 0.91414 0.70293 0.0
H513 H 0.04845 0.00459 0.70241 0.0
C514 C 0.04533 0.00666 0.76995 0.0
C515 C 0.04061 0.98905 0.78373 0.0
C516 C 0.03287 0.96036 0.78125 0.0
C517 C 0.03059 0.94911 0.76533 0.0
C518 C 0.03559 0.96696 0.75201 0.0
C519 C 0.04238 -0.00477 0.75413 0.0
C520 C 0.04645 0.0099 0.73773 0.0
C521 C 0.02437 0.03339 0.73525 0.0
C522 C 0.07663 0.02157 0.73612 0.0
C523 C 0.04145 0.98534 0.72607 0.0
C524 C 0.03544 0.96069 0.73455 0.0
C525 C 0.0319 0.93484 0.72647 0.0
C526 C 0.03459 0.93419 0.70928 0.0
C527 C 0.04024 0.9593 0.70037 0.0
C528 C 0.04346 0.98519 0.70891 0.0
H529 H 0.24819 0.83028 0.96092 0.0
H530 H 0.24761 0.74032 0.94997 0.0
H531 H 0.23538 0.72993 0.97894 0.0
H532 H 0.27712 0.82612 0.00158 0.0
H533 H 0.25499 0.8538 0.00974 0.0
H534 H 0.26441 0.85393 0.9883 0.0
H535 H 0.21148 0.85529 0.9803 0.0
H536 H 0.20189 0.85512 0.00173 0.0
H537 H 0.18802 0.82839 0.9881 0.0
H538 H 0.22556 0.7295 0.0096 0.0
H539 H 0.21496 0.7393 0.03891 0.0
H540 H 0.218 0.82957 0.029 0.0
C541 C 0.2456 0.8084 0.96465 0.0
C542 C 0.24908 0.78606 0.95328 0.0
C543 C 0.24507 0.75772 0.95853 0.0
C544 C 0.23818 0.75163 0.97494 0.0
C545 C 0.23489 0.77415 0.98587 0.0
C546 C 0.23811 0.80199 0.98088 0.0
C547 C 0.23243 0.82236 -0.00512 0.0
C548 C 0.25881 0.84009 -0.00114 0.0
C549 C 0.20693 0.84141 0.99102 0.0
C550 C 0.22582 0.80166 0.00857 0.0
C551 C 0.22764 0.77393 0.0032 0.0
C552 C 0.22373 0.75113 0.01389 0.0
C553 C 0.21777 0.75687 0.03049 0.0
C554 C 0.2153 0.78514 0.03613 0.0
C555 C 0.21925 0.80773 0.02496 0.0
H556 H 0.53993 0.94665 0.77328 0.0
H557 H 0.52024 0.02798 0.79538 0.0
H558 H 0.51752 0.04962 0.76781 0.0
H559 H 0.58359 0.97176 0.74194 0.0
H560 H 0.57145 0.94735 0.72642 0.0
H561 H 0.56966 0.93765 0.74779 0.0
H562 H 0.51604 0.92814 0.74496 0.0
H563 H 0.51769 0.93761 0.72352 0.0
H564 H 0.49335 0.95555 0.73698 0.0
H565 H 0.52296 0.06365 0.73808 0.0
H566 H 0.53111 0.06778 0.70808 0.0
H567 H 0.54374 0.9769 0.70515 0.0
C568 C 0.53452 0.96888 0.77229 0.0
C569 C 0.53029 0.98561 0.7865 0.0
C570 C 0.5234 0.01468 0.78469 0.0
C571 C 0.52189 0.02721 0.76907 0.0
C572 C 0.52682 0.01029 0.75533 0.0
C573 C 0.53247 0.98164 0.75676 0.0
C574 C 0.53753 0.96835 0.74006 0.0
C575 C 0.56733 0.95553 0.739 0.0
C576 C 0.51479 0.9461 0.73615 0.0
C577 C 0.53462 -0.00587 0.72908 0.0
C578 C 0.52857 0.01816 0.73812 0.0
C579 C 0.52711 0.04489 0.73082 0.0
C580 C 0.53187 0.04707 0.71381 0.0
C581 C 0.5376 0.02263 0.70431 0.0
C582 C 0.53874 -0.00414 0.71207 0.0
H583 H 0.74999 0.79084 0.45644 0.0
H584 H 0.65876 0.78954 0.46013 0.0
H585 H 0.6626 0.78523 0.49043 0.0
H586 H 0.76603 0.74293 0.49056 0.0
H587 H 0.796 0.76343 0.49728 0.0
H588 H 0.78611 0.76322 0.47587 0.0
H589 H 0.78279 0.81803 0.47613 0.0
H590 H 0.79269 0.81842 0.49751 0.0
H591 H 0.7604 0.83523 0.491 0.0
H592 H 0.67656 0.78179 0.5203 0.0
H593 H 0.69894 0.78488 0.54765 0.0
H594 H 0.78111 0.79264 0.52461 0.0
C595 C 0.73084 0.78911 0.46362 0.0
C596 C 0.70405 0.79 0.45598 0.0
C597 C 0.67945 0.78862 0.46578 0.0
C598 C 0.68146 0.78608 0.48296 0.0
C599 C 0.70822 0.78545 0.49014 0.0
C600 C 0.73247 0.78729 0.48079 0.0
C601 C 0.75856 0.78878 0.49159 0.0
C602 C 0.77781 0.76305 0.48865 0.0
C603 C 0.77454 0.81678 0.4889 0.0
C604 C 0.74521 0.78766 0.5085 0.0
C605 C 0.7162 0.78518 0.50737 0.0
C606 C 0.69924 0.78376 0.52132 0.0
C607 C 0.71219 0.78543 0.53681 0.0
C608 C 0.74178 0.78903 0.53828 0.0
C609 C 0.75846 0.78989 0.52389 0.0
H610 H 0.93235 0.03275 0.27693 0.0
H611 H 0.94721 0.94904 0.29723 0.0
H612 H 0.95132 0.92952 0.26914 0.0
H613 H 0.8912 0.01209 0.24285 0.0
H614 H 0.90623 0.03743 0.22878 0.0
H615 H 0.90545 0.04501 0.25046 0.0
H616 H 0.95959 0.05271 0.2504 0.0
H617 H 0.96051 0.04527 0.22867 0.0
H618 H 0.98232 0.02519 0.24262 0.0
H619 H 0.94853 0.91833 0.23879 0.0
H620 H 0.9446 0.91739 0.20839 0.0
H621 H 0.93621 0.00888 0.20788 0.0
C622 C 0.93677 0.01038 0.27544 0.0
C623 C 0.93939 -0.00762 0.28924 0.0
C624 C 0.94527 0.96324 0.28682 0.0
C625 C 0.94755 0.95193 0.27091 0.0
C626 C 0.94448 0.97016 0.25755 0.0
C627 C 0.93977 -0.00113 0.25965 0.0
C628 C 0.93745 0.01387 0.24323 0.0
C629 C 0.90835 0.02791 0.24122 0.0
C630 C 0.9614 0.03554 0.24111 0.0
C631 C 0.94092 0.98903 0.23159 0.0
C632 C 0.94469 0.96395 0.24008 0.0
C633 C 0.94619 0.9379 0.23199 0.0
C634 C 0.94385 0.93753 0.21476 0.0
C635 C 0.94064 0.96307 0.20585 0.0
C636 C 0.93938 0.9891 0.2144 0.0
H637 H 0.76503 0.14535 0.96442 0.0
H638 H 0.75662 0.23451 0.95248 0.0
H639 H 0.74371 0.24477 0.98135 0.0
H640 H 0.70481 0.14271 0.99024 0.0
H641 H 0.71968 0.11779 0.00464 0.0
H642 H 0.73119 0.11773 0.98354 0.0
H643 H 0.78303 0.12423 -0.00703 0.0
H644 H 0.77171 0.12401 0.01411 0.0
H645 H 0.79202 0.15338 0.00632 0.0
H646 H 0.73148 0.24518 0.01141 0.0
H647 H 0.71827 0.23554 0.04026 0.0
H648 H 0.73026 0.1455 0.03207 0.0
C649 C 0.76108 0.1671 0.96801 0.0
C650 C 0.76231 0.18928 0.95636 0.0
C651 C 0.75607 0.21733 0.96131 0.0
C652 C 0.74872 0.22332 0.97765 0.0
C653 C 0.74719 0.20092 0.98879 0.0
C654 C 0.753 0.17333 0.98418 0.0
C655 C 0.74784 0.1529 -0.00174 0.0
C656 C 0.72449 0.13153 -0.0061 0.0
C657 C 0.77529 0.13774 0.00321 0.0
C658 C 0.73824 0.17331 0.01151 0.0
C659 C 0.7384 0.20093 0.00585 0.0
C660 C 0.73113 0.22362 0.01595 0.0
C661 C 0.72365 0.21795 0.0323 0.0
C662 C 0.72296 0.18979 0.03831 0.0
C663 C 0.73018 0.1672 0.02771 0.0
H664 H 0.91822 0.53035 0.71686 0.0
H665 H 0.95204 0.45292 0.69587 0.0
H666 H 0.95835 0.4332 0.72372 0.0
H667 H 0.96589 0.53192 0.75242 0.0
H668 H 0.93932 0.54569 0.7661 0.0
H669 H 0.93806 0.55412 0.74449 0.0
H670 H 0.8871 0.53443 0.74281 0.0
H671 H 0.88821 0.52596 0.76439 0.0
H672 H 0.8801 0.49872 0.74957 0.0
H673 H 0.95707 0.4202 0.75356 0.0
H674 H 0.95144 0.41619 0.78371 0.0
H675 H 0.92207 0.50316 0.78571 0.0
C676 C 0.92711 0.50932 0.71816 0.0
C677 C 0.93456 0.49312 0.7042 0.0
C678 C 0.94625 0.46574 0.70638 0.0
C679 C 0.9499 0.45433 0.72216 0.0
C680 C 0.94219 0.47074 0.73566 0.0
C681 C 0.93138 0.49777 0.73386 0.0
C682 C 0.92476 0.51086 0.75045 0.0
C683 C 0.94311 0.53721 0.75354 0.0
C684 C 0.89317 0.51789 0.75188 0.0
C685 C 0.93298 0.48672 0.7618 0.0
C686 C 0.94285 0.46373 0.75299 0.0
C687 C 0.94986 0.43823 0.76063 0.0
C688 C 0.94656 0.43611 0.77772 0.0
C689 C 0.93679 0.45949 0.787 0.0
C690 C 0.93024 0.4852 0.77894 0.0
H691 H 0.77411 0.69214 0.02107 0.0
H692 H 0.69095 0.70481 0.04206 0.0
H693 H 0.6703 0.70571 0.01415 0.0
H694 H 0.76329 0.73851 0.98546 0.0
H695 H 0.78356 0.71618 0.97192 0.0
H696 H 0.79184 0.71743 -0.00646 0.0
H697 H 0.78624 0.66288 -0.00465 0.0
H698 H 0.77789 0.66147 0.97377 0.0
H699 H 0.75378 0.64668 0.98859 0.0
H700 H 0.65825 0.70097 0.98404 0.0
H701 H 0.65628 0.69476 0.95383 0.0
H702 H 0.74753 0.68854 0.95239 0.0
C703 C 0.75159 0.69534 0.01978 0.0
C704 C 0.73411 0.69834 0.03373 0.0
C705 C 0.70475 0.70258 0.03154 0.0
C706 C 0.69282 0.70306 0.01574 0.0
C707 C 0.71059 0.69973 0.00224 0.0
C708 C 0.73939 0.69636 0.00408 0.0
C709 C 0.75378 0.69316 0.98756 0.0
C710 C 0.77433 0.71779 0.98444 0.0
C711 C 0.7688 0.66433 0.98625 0.0
C712 C 0.72852 0.69468 0.97616 0.0
C713 C 0.70377 0.69833 0.98487 0.0
C714 C 0.67753 0.69857 0.97707 0.0
C715 C 0.67659 0.69497 0.95993 0.0
C716 C 0.70174 0.69157 0.95078 0.0
C717 C 0.728 0.69168 0.95904 0.0
H718 H 0.54648 0.4712 0.27813 0.0
H719 H 0.51151 0.5561 0.27832 0.0
H720 H 0.50184 0.55231 0.2485 0.0
H721 H 0.58331 0.47958 0.24114 0.0
H722 H 0.57827 0.44374 0.23404 0.0
H723 H 0.57841 0.45123 0.25573 0.0
H724 H 0.52913 0.42798 0.25859 0.0
H725 H 0.52884 0.4204 0.23687 0.0
H726 H 0.50039 0.44031 0.24594 0.0
H727 H 0.4985 0.54058 0.21869 0.0
H728 H 0.50587 0.52398 0.19033 0.0
H729 H 0.54629 0.44781 0.20889 0.0
C730 C 0.53614 0.48866 0.27193 0.0
C731 C 0.52925 0.51378 0.28049 0.0
C732 C 0.51669 0.53663 0.27194 0.0
C733 C 0.51101 0.53459 0.25505 0.0
C734 C 0.51841 0.50971 0.24688 0.0
C735 C 0.53096 0.48723 0.25497 0.0
C736 C 0.53972 0.46424 0.24297 0.0
C737 C 0.57183 0.45943 0.24351 0.0
C738 C 0.52355 0.4366 0.24629 0.0
C739 C 0.53061 0.47755 0.22685 0.0
C740 C 0.51781 0.50349 0.22946 0.0
C741 C 0.50835 0.52024 0.21649 0.0
C742 C 0.51263 0.51058 0.2004 0.0
C743 C 0.52667 0.48458 0.19736 0.0
C744 C 0.53533 0.46767 0.21081 0.0
H745 H 0.72683 0.34025 0.52274 0.0
H746 H 0.70702 0.25155 0.53047 0.0
H747 H 0.71817 0.24141 0.50134 0.0
H748 H 0.70136 0.34623 0.48058 0.0
H749 H 0.73005 0.36881 0.47426 0.0
H750 H 0.71811 0.36939 0.49528 0.0
H751 H 0.76891 0.35829 0.50518 0.0
H752 H 0.78095 0.35744 0.4842 0.0
H753 H 0.78675 0.32733 0.49742 0.0
H754 H 0.73114 0.24113 0.47126 0.0
H755 H 0.74798 0.25015 0.44292 0.0
H756 H 0.76374 0.33804 0.45559 0.0
C757 C 0.72437 0.31882 0.51818 0.0
C758 C 0.71564 0.29672 0.52871 0.0
C759 C 0.71346 0.26877 0.52251 0.0
C760 C 0.71973 0.26284 0.50601 0.0
C761 C 0.72868 0.28501 0.49596 0.0
C762 C 0.73126 0.3124 0.50184 0.0
C763 C 0.74312 0.33199 0.48879 0.0
C764 C 0.72189 0.35549 0.48447 0.0
C765 C 0.77163 0.34449 0.49423 0.0
C766 C 0.74674 0.31136 0.47467 0.0
C767 C 0.73792 0.28446 0.47898 0.0
C768 C 0.73832 0.26206 0.46778 0.0
C769 C 0.74791 0.26735 0.45174 0.0
C770 C 0.75749 0.29465 0.44718 0.0
C771 C 0.75702 0.31683 0.45885 0.0
H772 H 0.03768 0.50398 0.2705 0.0
H773 H 0.02485 0.41305 0.26957 0.0
H774 H 0.0155 0.41539 0.23957 0.0
H775 H 0.98668 0.5239 0.23858 0.0
H776 H 0.00957 0.5506 0.23003 0.0
H777 H 0.01147 0.54222 0.25162 0.0
H778 H 0.06492 0.53175 0.24878 0.0
H779 H 0.06319 0.54016 0.22722 0.0
H780 H 0.07666 0.50625 0.23376 0.0
H781 H 0.00883 0.42785 0.2095 0.0
H782 H 0.01142 0.44792 0.18146 0.0
H783 H 0.03304 0.53 0.20194 0.0
C784 C 0.03229 0.48466 0.26403 0.0
C785 C 0.03141 0.45838 0.27233 0.0
C786 C 0.02532 0.43339 0.2634 0.0
C787 C 0.01987 0.43457 0.24641 0.0
C788 C 0.02112 0.46085 0.23854 0.0
C789 C 0.02758 0.48538 0.24704 0.0
C790 C 0.03064 0.51041 0.23551 0.0
C791 C 0.00825 0.53312 0.23916 0.0
C792 C 0.06063 0.52286 0.23637 0.0
C793 C 0.02519 0.49614 0.21914 0.0
C794 C 0.01909 0.46769 0.22117 0.0
C795 C 0.01355 0.45009 0.20778 0.0
C796 C 0.01495 0.46172 0.19191 0.0
C797 C 0.02244 0.4905 0.18954 0.0
C798 C 0.02723 0.50794 0.20338 0.0
H799 H 0.26046 0.32583 0.02599 0.0
H800 H 0.26253 0.23656 0.03846 0.0
H801 H 0.24652 0.22459 0.01019 0.0
H802 H 0.19665 0.32207 0.00295 0.0
H803 H 0.20731 0.34852 0.98822 0.0
H804 H 0.22106 0.34956 0.00886 0.0
H805 H 0.27216 0.34855 -0.00246 0.0
H806 H 0.25858 0.34774 0.97686 0.0
H807 H 0.28257 0.32055 0.98373 0.0
H808 H 0.23161 0.22309 0.97972 0.0
H809 H 0.21548 0.23231 0.95111 0.0
H810 H 0.21847 0.32267 0.96053 0.0
C811 C 0.25799 0.30372 0.02269 0.0
C812 C 0.26323 0.28204 0.03424 0.0
C813 C 0.2589 0.25342 0.02967 0.0
C814 C 0.24982 0.24647 0.01367 0.0
C815 C 0.24458 0.26848 0.00259 0.0
C816 C 0.24822 0.29654 0.00703 0.0
C817 C 0.23953 0.31641 -0.00665 0.0
C818 C 0.21466 0.33524 -0.00133 0.0
C819 C 0.26471 0.33436 0.98753 0.0
C820 C 0.23062 0.29524 0.98041 0.0
C821 C 0.23403 0.26766 0.98579 0.0
C822 C 0.22851 0.24461 0.97549 0.0
C823 C 0.21936 0.24999 0.9593 0.0
C824 C 0.21522 0.27814 0.95379 0.0
C825 C 0.22077 0.30091 0.96456 0.0
H826 H 0.41763 0.52929 0.7742 0.0
H827 H 0.43393 0.44521 0.79364 0.0
H828 H 0.435 0.42593 0.76546 0.0
H829 H 0.37379 0.50875 0.74021 0.0
H830 H 0.38844 0.53424 0.72609 0.0
H831 H 0.38823 0.54158 0.74783 0.0
H832 H 0.44233 0.54938 0.74728 0.0
H833 H 0.44269 0.54216 0.72553 0.0
H834 H 0.46487 0.52195 0.73921 0.0
H835 H 0.43132 0.41513 0.73545 0.0
H836 H 0.42889 0.41446 0.70506 0.0
H837 H 0.41975 0.50593 0.70466 0.0
C838 C 0.42143 0.50685 0.77247 0.0
C839 C 0.42556 0.48868 0.78607 0.0
C840 C 0.43081 0.4595 0.78337 0.0
C841 C 0.43134 0.44832 0.76742 0.0
C842 C 0.42712 0.46669 0.75426 0.0
C843 C 0.42277 0.49541 0.75655 0.0
C844 C 0.42003 0.51058 0.74018 0.0
C845 C 0.39088 0.52461 0.73848 0.0
C846 C 0.4439 0.5323 0.73792 0.0
C847 C 0.42318 0.48584 0.72841 0.0
C848 C 0.42683 0.46067 0.73682 0.0
C849 C 0.42885 0.43473 0.7287 0.0
C850 C 0.42734 0.43453 0.71147 0.0
C851 C 0.42445 0.46014 0.70259 0.0
C852 C 0.42241 0.4861 0.71118 0.0
H853 H 0.21882 0.70299 0.52491 0.0
H854 H 0.19143 0.61611 0.53227 0.0
H855 H 0.19963 0.60607 0.50292 0.0
H856 H 0.18679 0.71071 0.48365 0.0
H857 H 0.21528 0.73241 0.47612 0.0
H858 H 0.20606 0.73324 0.49761 0.0
H859 H 0.25758 0.72054 0.5053 0.0
H860 H 0.26691 0.71947 0.48386 0.0
H861 H 0.27343 0.68909 0.49676 0.0
H862 H 0.21584 0.60382 0.47389 0.0
H863 H 0.23382 0.61094 0.44571 0.0
H864 H 0.24687 0.70019 0.45598 0.0
C865 C 0.21421 0.68198 0.52027 0.0
C866 C 0.20454 0.66029 0.53087 0.0
C867 C 0.19871 0.63307 0.52437 0.0
C868 C 0.20338 0.62713 0.50772 0.0
C869 C 0.21337 0.64879 0.49766 0.0
C870 C 0.21821 0.67582 0.50356 0.0
C871 C 0.22901 0.69514 0.49003 0.0
C872 C 0.20803 0.71931 0.48666 0.0
C873 C 0.25848 0.70673 0.49424 0.0
C874 C 0.23017 0.67452 0.47573 0.0
C875 C 0.22124 0.64786 0.4805 0.0
C876 C 0.22235 0.62471 0.4699 0.0
C877 C 0.23272 0.62891 0.45398 0.0
C878 C 0.24137 0.65613 0.4487 0.0
C879 C 0.23986 0.67929 0.45967 0.0
H880 H 0.35537 0.9687 0.10821 0.0
H881 H 0.37628 0.93669 0.15663 0.0
H882 H 0.34802 0.89351 0.15124 0.0
H883 H 0.28418 0.94674 0.10906 0.0
H884 H 0.28224 0.93772 0.08755 0.0
H885 H 0.30668 0.96441 0.09443 0.0
H886 H 0.34794 0.93669 0.08109 0.0
H887 H 0.32358 0.90988 0.07416 0.0
H888 H 0.3536 0.9001 0.08655 0.0
H889 H 0.31607 0.85521 0.14116 0.0
H890 H 0.27971 0.82555 0.12787 0.0
H891 H 0.27744 0.88355 0.08643 0.0
C892 C 0.35429 0.95227 0.11748 0.0
C893 C 0.36809 0.95548 0.13272 0.0
C894 C 0.36589 0.93417 0.14484 0.0
C895 C 0.35002 0.90965 0.14187 0.0
C896 C 0.33635 0.90706 0.12676 0.0
C897 C 0.33813 0.92784 0.1148 0.0
C898 C 0.3195 0.92087 0.1002 0.0
C899 C 0.29681 0.94379 0.09767 0.0
C900 C 0.33722 0.91663 0.08457 0.0
C901 C 0.30665 0.89319 0.10595 0.0
C902 C 0.31702 0.8854 0.12118 0.0
C903 C 0.30787 0.86099 0.12919 0.0
C904 C 0.28724 0.84428 0.12154 0.0
C905 C 0.27575 0.85228 0.10614 0.0
C906 C 0.28588 0.87689 0.0982 0.0
H907 H 0.25253 0.08675 0.37975 0.0
H908 H 0.30137 0.16383 0.37393 0.0
H909 H 0.34225 0.1355 0.36449 0.0
H910 H 0.30806 0.04168 0.39388 0.0
H911 H 0.29618 0.01118 0.38246 0.0
H912 H 0.27114 0.03749 0.38909 0.0
H913 H 0.25414 0.044 0.35901 0.0
H914 H 0.27908 0.01765 0.35229 0.0
H915 H 0.27945 0.05252 0.34324 0.0
H916 H 0.3785 0.09826 0.35725 0.0
H917 H 0.40586 0.0554 0.34984 0.0
H918 H 0.33175 0.00342 0.3581 0.0
C919 C 0.27188 0.09762 0.37653 0.0
C920 C 0.27402 0.12738 0.37769 0.0
C921 C 0.29943 0.14099 0.37311 0.0
C922 C 0.32272 0.1251 0.3678 0.0
C923 C 0.31997 0.09572 0.36686 0.0
C924 C 0.29504 0.08216 0.37084 0.0
C925 C 0.29718 0.0505 0.36815 0.0
C926 C 0.29289 0.03426 0.38436 0.0
C927 C 0.27622 0.04059 0.35488 0.0
C928 C 0.32733 0.04828 0.36222 0.0
C929 C 0.34025 0.07454 0.36175 0.0
C930 C 0.36851 0.07763 0.35737 0.0
C931 C 0.38388 0.05323 0.35325 0.0
C932 C 0.37077 0.02628 0.35326 0.0
C933 C 0.34214 0.02386 0.35777 0.0
H934 H 0.10197 0.05318 0.63057 0.0
H935 H 0.15718 0.98591 0.64778 0.0
H936 H 0.1986 0.01431 0.64019 0.0
H937 H 0.14192 0.07286 0.59604 0.0
H938 H 0.1361 0.11046 0.59798 0.0
H939 H 0.11037 0.08588 0.60582 0.0
H940 H 0.11392 0.10916 0.6346 0.0
H941 H 0.13962 0.13391 0.62683 0.0
H942 H 0.14788 0.11225 0.64445 0.0
H943 H 0.23364 0.04667 0.628 0.0
H944 H 0.26099 0.08374 0.61369 0.0
H945 H 0.18449 0.13234 0.60599 0.0
C946 C 0.12279 0.04465 0.63294 0.0
C947 C 0.12631 0.01728 0.63973 0.0
C948 C 0.1539 0.00681 0.64261 0.0
C949 C 0.17761 0.02278 0.63835 0.0
C950 C 0.17348 0.04942 0.63145 0.0
C951 C 0.14685 0.06056 0.62896 0.0
C952 C 0.14856 0.08955 0.62092 0.0
C953 C 0.13334 0.08968 0.6042 0.0
C954 C 0.1368 0.11258 0.63239 0.0
C955 C 0.18024 0.09247 0.61887 0.0
C956 C 0.19412 0.06897 0.62504 0.0
C957 C 0.22314 0.06546 0.62343 0.0
C958 C 0.23846 0.0865 0.61525 0.0
C959 C 0.22478 0.11086 0.60902 0.0
C960 C 0.19539 0.11412 0.61102 0.0
H961 H 0.14382 0.97333 0.85686 0.0
H962 H 0.06785 0.92223 0.85503 0.0
H963 H 0.09527 0.88016 0.86384 0.0
H964 H 0.19289 0.92092 0.84297 0.0
H965 H 0.2204 0.93142 0.85703 0.0
H966 H 0.19501 0.95711 0.84999 0.0
H967 H 0.182 0.96898 0.88017 0.0
H968 H 0.20747 0.94345 0.8873 0.0
H969 H 0.17122 0.94087 0.89381 0.0
H970 H 0.13187 0.84321 0.87126 0.0
H971 H 0.17346 0.81558 0.88053 0.0
H972 H 0.22401 0.89216 0.88021 0.0
C973 C 0.13303 0.95323 0.85829 0.0
C974 C 0.10388 0.95077 0.85515 0.0
C975 C 0.09024 0.92438 0.85741 0.0
C976 C 0.10564 0.90042 0.86231 0.0
C977 C 0.13447 0.90348 0.86523 0.0
C978 C 0.14791 0.92935 0.86361 0.0
C979 C 0.17871 0.92735 0.86837 0.0
C980 C 0.19788 0.93463 0.85371 0.0
C981 C 0.18522 0.94628 0.8833 0.0
C982 C 0.1806 0.89625 0.87275 0.0
C983 C 0.155 0.88271 0.8706 0.0
C984 C 0.15193 0.85365 0.8732 0.0
C985 C 0.17561 0.83813 0.87837 0.0
C986 C 0.20167 0.85189 0.88121 0.0
C987 C 0.20415 0.88126 0.87833 0.0
H988 H 0.6729 0.12507 0.88936 0.0
H989 H 0.74748 0.07176 0.89159 0.0
H990 H 0.72155 0.03329 0.87781 0.0
H991 H 0.6232 0.06774 0.89803 0.0
H992 H 0.5963 0.08161 0.88456 0.0
H993 H 0.62077 0.10538 0.89445 0.0
H994 H 0.6349 0.12567 0.86602 0.0
H995 H 0.61066 0.1018 0.85604 0.0
H996 H 0.64734 0.10195 0.85023 0.0
H997 H 0.68933 0.00205 0.86217 0.0
H998 H 0.65 0.97671 0.8488 0.0
H999 H 0.59446 0.04777 0.85875 0.0
C1000 C 0.6836 0.10521 0.88702 0.0
C1001 C 0.71214 0.10137 0.89149 0.0
C1002 C 0.72552 0.07508 0.88836 0.0
C1003 C 0.71107 0.05315 0.88045 0.0
C1004 C 0.68308 0.05764 0.87604 0.0
C1005 C 0.66922 0.08273 0.87947 0.0
C1006 C 0.6387 0.08141 0.87389 0.0
C1007 C 0.61856 0.08419 0.88861 0.0
C1008 C 0.63255 0.10405 0.86076 0.0
C1009 C 0.63779 0.05182 0.86663 0.0
C1010 C 0.66379 0.03874 0.86779 0.0
C1011 C 0.66875 0.01188 0.86134 0.0
C1012 C 0.64636 -0.00225 0.85369 0.0
C1013 C 0.61929 0.01031 0.85285 0.0
C1014 C 0.61495 0.03768 0.85939 0.0
H1015 H 0.60501 0.93193 0.63828 0.0
H1016 H 0.65757 0.00707 0.64173 0.0
H1017 H 0.69727 0.98077 0.62951 0.0
H1018 H 0.6614 0.88191 0.64894 0.0
H1019 H 0.64858 0.8549 0.63515 0.0
H1020 H 0.62424 0.87955 0.64436 0.0
H1021 H 0.60628 0.89371 0.6154 0.0
H1022 H 0.63073 0.86931 0.6061 0.0
H1023 H 0.63111 0.90616 0.60025 0.0
H1024 H 0.7297 0.94804 0.61477 0.0
H1025 H 0.75546 0.90854 0.60172 0.0
H1026 H 0.68383 0.85309 0.60993 0.0
C1027 C 0.62498 0.9427 0.63659 0.0
C1028 C 0.62824 0.97151 0.64089 0.0
C1029 C 0.65467 0.98494 0.6386 0.0
C1030 C 0.6773 0.97024 0.63159 0.0
C1031 C 0.67332 0.942 0.62725 0.0
C1032 C 0.64805 0.92813 0.62994 0.0
C1033 C 0.6497 0.89747 0.62445 0.0
C1034 C 0.64575 0.87726 0.6391 0.0
C1035 C 0.62818 0.89132 0.61073 0.0
C1036 C 0.67966 0.89648 0.61799 0.0
C1037 C 0.69273 0.92253 0.61955 0.0
C1038 C 0.71988 0.92742 0.61369 0.0
C1039 C 0.73425 0.90495 0.60621 0.0
C1040 C 0.72161 0.87786 0.60494 0.0
C1041 C 0.694 0.87357 0.61094 0.0
H1042 H 0.75025 0.89448 0.38582 0.0
H1043 H 0.80572 0.82416 0.39739 0.0
H1044 H 0.84669 0.85202 0.38768 0.0
H1045 H 0.78441 0.91256 0.34829 0.0
H1046 H 0.7793 0.95022 0.35051 0.0
H1047 H 0.75468 0.92589 0.35972 0.0
H1048 H 0.76294 0.94907 0.38822 0.0
H1049 H 0.78742 0.97364 0.37907 0.0
H1050 H 0.79835 0.95193 0.39617 0.0
H1051 H 0.88131 0.88743 0.37699 0.0
H1052 H 0.90741 0.92716 0.36435 0.0
H1053 H 0.82888 0.97282 0.35732 0.0
C1054 C 0.77112 0.88522 0.38658 0.0
C1055 C 0.7751 0.85744 0.39258 0.0
C1056 C 0.80247 0.84556 0.39295 0.0
C1057 C 0.82577 0.86119 0.38747 0.0
C1058 C 0.82115 0.88842 0.38141 0.0
C1059 C 0.7945 0.90027 0.38078 0.0
C1060 C 0.79511 0.92921 0.3727 0.0
C1061 C 0.77732 0.92947 0.35687 0.0
C1062 C 0.78538 0.95233 0.38476 0.0
C1063 C 0.82628 0.9318 0.36895 0.0
C1064 C 0.84093 0.90817 0.37427 0.0
C1065 C 0.87008 0.90596 0.37267 0.0
C1066 C 0.88469 0.92858 0.36549 0.0
C1067 C 0.87006 0.95279 0.35975 0.0
C1068 C 0.84047 0.95432 0.36139 0.0
H1069 H 0.75688 0.09333 0.11323 0.0
H1070 H 0.80416 0.17203 0.11401 0.0
H1071 H 0.84488 0.14683 0.12644 0.0
H1072 H 0.78289 0.06715 0.15251 0.0
H1073 H 0.78336 0.03079 0.14571 0.0
H1074 H 0.75814 0.05525 0.13713 0.0
H1075 H 0.77599 0.0435 0.10779 0.0
H1076 H 0.80121 0.01901 0.11626 0.0
H1077 H 0.81296 0.0474 0.10311 0.0
H1078 H 0.88161 0.11168 0.1365 0.0
H1079 H 0.91008 0.07036 0.14541 0.0
H1080 H 0.83681 0.0161 0.14009 0.0
C1081 C 0.7758 0.10529 0.11604 0.0
C1082 C 0.77761 0.13452 0.11256 0.0
C1083 C 0.80248 0.14958 0.1166 0.0
C1084 C 0.82564 0.13545 0.12363 0.0
C1085 C 0.82321 0.10649 0.12682 0.0
C1086 C 0.79874 0.09171 0.12336 0.0
C1087 C 0.80129 0.0608 0.12804 0.0
C1088 C 0.78017 0.05306 0.14166 0.0
C1089 C 0.79766 0.04156 0.1129 0.0
C1090 C 0.83127 0.06027 0.13436 0.0
C1091 C 0.84368 0.08676 0.13347 0.0
C1092 C 0.87196 0.09097 0.13753 0.0
C1093 C 0.88795 0.06744 0.14253 0.0
C1094 C 0.87544 0.04027 0.14367 0.0
C1095 C 0.84669 0.03679 0.13971 0.0
H1096 H 0.75532 0.39533 0.60348 0.0
H1097 H 0.80932 0.32228 0.59614 0.0
H1098 H 0.85026 0.34989 0.60649 0.0
H1099 H 0.80463 0.44934 0.59242 0.0
H1100 H 0.7932 0.47355 0.60821 0.0
H1101 H 0.76874 0.44828 0.5997 0.0
H1102 H 0.75834 0.42896 0.62892 0.0
H1103 H 0.78271 0.45422 0.63753 0.0
H1104 H 0.78714 0.41694 0.64163 0.0
H1105 H 0.88552 0.3869 0.61634 0.0
H1106 H 0.9112 0.42812 0.6279 0.0
H1107 H 0.83262 0.47482 0.63103 0.0
C1108 C 0.77581 0.3852 0.60397 0.0
C1109 C 0.77941 0.35687 0.59885 0.0
C1110 C 0.80631 0.34405 0.59998 0.0
C1111 C 0.8296 0.35958 0.60577 0.0
C1112 C 0.82534 0.38761 0.61067 0.0
C1113 C 0.79899 0.4001 0.61007 0.0
C1114 C 0.79959 0.42999 0.61677 0.0
C1115 C 0.79104 0.45155 0.60348 0.0
C1116 C 0.78084 0.43267 0.63213 0.0
C1117 C 0.83049 0.43257 0.6211 0.0
C1118 C 0.84512 0.40809 0.61728 0.0
C1119 C 0.87421 0.40603 0.61955 0.0
C1120 C 0.88861 0.42952 0.62605 0.0
C1121 C 0.87377 0.4544 0.63047 0.0
C1122 C 0.84438 0.45586 0.62796 0.0
H1123 H 0.8747 0.54409 0.85873 0.0
H1124 H 0.81774 0.4742 0.84856 0.0
H1125 H 0.77805 0.50193 0.85972 0.0
H1126 H 0.84295 0.56777 0.89625 0.0
H1127 H 0.84725 0.60499 0.89193 0.0
H1128 H 0.87159 0.57963 0.88341 0.0
H1129 H 0.86088 0.59817 0.85407 0.0
H1130 H 0.83665 0.62372 0.86251 0.0
H1131 H 0.82489 0.59926 0.84691 0.0
H1132 H 0.74538 0.5355 0.87337 0.0
H1133 H 0.7197 0.57572 0.88552 0.0
H1134 H 0.79632 0.62612 0.88478 0.0
C1135 C 0.85382 0.53475 0.85884 0.0
C1136 C 0.84921 0.50701 0.85288 0.0
C1137 C 0.82165 0.49548 0.85302 0.0
C1138 C 0.79902 0.51099 0.85941 0.0
C1139 C 0.80424 0.53818 0.86532 0.0
C1140 C 0.83079 0.55025 0.86482 0.0
C1141 C 0.83022 0.58036 0.87136 0.0
C1142 C 0.84913 0.58335 0.88665 0.0
C1143 C 0.83866 0.60163 0.85791 0.0
C1144 C 0.79927 0.58313 0.87577 0.0
C1145 C 0.78485 0.55834 0.87239 0.0
C1146 C 0.75633 0.55514 0.87593 0.0
C1147 C 0.74199 0.57805 0.88292 0.0
C1148 C 0.75605 0.604 0.88603 0.0
C1149 C 0.78508 0.60655 0.88241 0.0
H1150 H 0.67633 0.64547 0.10616 0.0
H1151 H 0.7546 0.59927 0.1126 0.0
H1152 H 0.72877 0.56045 0.12634 0.0
H1153 H 0.64112 0.62228 0.1443 0.0
H1154 H 0.60716 0.61869 0.13452 0.0
H1155 H 0.63207 0.64451 0.12704 0.0
H1156 H 0.62894 0.62252 0.0979 0.0
H1157 H 0.60409 0.59663 0.10528 0.0
H1158 H 0.63601 0.58525 0.09522 0.0
H1159 H 0.69488 0.5263 0.13841 0.0
H1160 H 0.65436 0.49645 0.14603 0.0
H1161 H 0.59699 0.56262 0.12987 0.0
C1162 C 0.68794 0.62738 0.11079 0.0
C1163 C 0.71738 0.62531 0.10861 0.0
C1164 C 0.73201 0.60111 0.11431 0.0
C1165 C 0.71756 0.57909 0.12216 0.0
C1166 C 0.68845 0.58146 0.12397 0.0
C1167 C 0.67368 0.6048 0.11831 0.0
C1168 C 0.64215 0.60067 0.12043 0.0
C1169 C 0.62991 0.62286 0.13228 0.0
C1170 C 0.62691 0.6013 0.10371 0.0
C1171 C 0.64157 0.57127 0.12795 0.0
C1172 C 0.66857 0.5609 0.13016 0.0
C1173 C 0.67362 0.53417 0.13677 0.0
C1174 C 0.65044 0.51739 0.14108 0.0
C1175 C 0.62253 0.52718 0.13849 0.0
C1176 C 0.61809 0.55458 0.13195 0.0
H1177 H 0.68388 0.35466 0.37752 0.0
H1178 H 0.75781 0.40885 0.37768 0.0
H1179 H 0.73043 0.44687 0.36425 0.0
H1180 H 0.65399 0.37791 0.33888 0.0
H1181 H 0.61808 0.3774 0.34613 0.0
H1182 H 0.64375 0.35363 0.35492 0.0
H1183 H 0.63261 0.37302 0.38401 0.0
H1184 H 0.60682 0.39673 0.37532 0.0
H1185 H 0.63506 0.41059 0.38782 0.0
H1186 H 0.696 0.47814 0.35009 0.0
H1187 H 0.65464 0.50369 0.33917 0.0
H1188 H 0.60145 0.43138 0.35046 0.0
C1189 C 0.69418 0.37454 0.37464 0.0
C1190 C 0.72288 0.37894 0.3785 0.0
C1191 C 0.73576 0.40524 0.37484 0.0
C1192 C 0.72046 0.42684 0.36714 0.0
C1193 C 0.6922 0.42193 0.36347 0.0
C1194 C 0.67898 0.39668 0.36735 0.0
C1195 C 0.64788 0.39773 0.36301 0.0
C1196 C 0.6405 0.37534 0.34996 0.0
C1197 C 0.62951 0.39432 0.37846 0.0
C1198 C 0.6458 0.42746 0.35605 0.0
C1199 C 0.67176 0.44079 0.35617 0.0
C1200 C 0.67549 0.46805 0.35002 0.0
C1201 C 0.65192 0.48232 0.34378 0.0
C1202 C 0.62493 0.46949 0.34406 0.0
C1203 C 0.62187 0.44168 0.35022 0.0
H1204 H 0.09434 0.55012 0.3469 0.0
H1205 H 0.14994 0.50657 0.31288 0.0
H1206 H 0.18863 0.53905 0.32041 0.0
H1207 H 0.12456 0.62251 0.3409 0.0
H1208 H 0.12052 0.63127 0.36234 0.0
H1209 H 0.09609 0.60724 0.35261 0.0
H1210 H 0.10708 0.56935 0.37478 0.0
H1211 H 0.13158 0.59314 0.38452 0.0
H1212 H 0.14311 0.55847 0.37809 0.0
H1213 H 0.22256 0.57188 0.33393 0.0
H1214 H 0.24941 0.60364 0.35248 0.0
H1215 H 0.17215 0.62631 0.37761 0.0
C1216 C 0.11445 0.54789 0.34073 0.0
C1217 C 0.11912 0.5259 0.32925 0.0
C1218 C 0.14588 0.52332 0.32167 0.0
C1219 C 0.16796 0.54172 0.32583 0.0
C1220 C 0.16288 0.56271 0.33749 0.0
C1221 C 0.13675 0.56606 0.34476 0.0
C1222 C 0.13752 0.58883 0.3579 0.0
C1223 C 0.11855 0.61395 0.35315 0.0
C1224 C 0.12935 0.57671 0.37482 0.0
C1225 C 0.1684 0.59699 0.35731 0.0
C1226 C 0.18256 0.58192 0.34528 0.0
C1227 C 0.21164 0.58423 0.34315 0.0
C1228 C 0.22668 0.60221 0.35369 0.0
C1229 C 0.21258 0.61753 0.36613 0.0
C1230 C 0.18312 0.6152 0.36787 0.0
H1231 H 0.20808 0.36271 0.12028 0.0
H1232 H 0.1949 0.36439 0.06753 0.0
H1233 H 0.15267 0.39443 0.07134 0.0
H1234 H 0.13372 0.3643 0.13301 0.0
H1235 H 0.14037 0.38807 0.14993 0.0
H1236 H 0.16746 0.36387 0.14327 0.0
H1237 H 0.2019 0.40598 0.13931 0.0
H1238 H 0.17493 0.43029 0.1459 0.0
H1239 H 0.19175 0.43513 0.12624 0.0
H1240 H 0.11283 0.42485 0.08071 0.0
H1241 H 0.08032 0.45771 0.09476 0.0
H1242 H 0.12178 0.44008 0.14127 0.0
C1243 C 0.19587 0.36899 0.10961 0.0
C1244 C 0.20424 0.361 0.09363 0.0
C1245 C 0.18851 0.37023 0.07986 0.0
C1246 C 0.16451 0.38716 0.08191 0.0
C1247 C 0.15692 0.39504 0.09781 0.0
C1248 C 0.17228 0.38657 0.11142 0.0
C1249 C 0.16113 0.40027 0.12697 0.0
C1250 C 0.15001 0.37778 0.139 0.0
C1251 C 0.18378 0.41903 0.13507 0.0
C1252 C 0.1373 0.41791 0.11993 0.0
C1253 C 0.13492 0.41411 0.10313 0.0
C1254 C 0.11446 0.42803 0.09386 0.0
C1255 C 0.09608 0.4466 0.10195 0.0
C1256 C 0.09867 0.45147 0.11906 0.0
C1257 C 0.11947 0.43682 0.12815 0.0
H1258 H 0.34578 0.43478 0.84058 0.0
H1259 H 0.39836 0.44788 0.88358 0.0
H1260 H 0.36949 0.41327 0.89909 0.0
H1261 H 0.28101 0.42865 0.8605 0.0
H1262 H 0.26733 0.40087 0.84753 0.0
H1263 H 0.29311 0.42526 0.83958 0.0
H1264 H 0.32572 0.38331 0.83174 0.0
H1265 H 0.29993 0.35872 0.83958 0.0
H1266 H 0.33563 0.35782 0.84722 0.0
H1267 H 0.33092 0.38265 0.91076 0.0
H1268 H 0.28899 0.35309 0.91684 0.0
H1269 H 0.26478 0.35594 0.86547 0.0
C1270 C 0.3514 0.43 0.85319 0.0
C1271 C 0.37411 0.44393 0.86097 0.0
C1272 C 0.38107 0.43721 0.87744 0.0
C1273 C 0.36477 0.41769 0.88632 0.0
C1274 C 0.34215 0.40465 0.87838 0.0
C1275 C 0.33586 0.41005 0.86207 0.0
C1276 C 0.31034 0.39335 0.85644 0.0
C1277 C 0.28655 0.41323 0.85068 0.0
C1278 C 0.3184 0.37203 0.84295 0.0
C1279 C 0.30266 0.37843 0.87228 0.0
C1280 C 0.32113 0.3854 0.88483 0.0
C1281 C 0.31675 0.37642 0.90096 0.0
C1282 C 0.29291 0.35982 0.90431 0.0
C1283 C 0.27422 0.35197 0.89154 0.0
C1284 C 0.27931 0.36111 0.87532 0.0
H1285 H 0.33445 0.5087 0.63105 0.0
H1286 H 0.41057 0.55973 0.63084 0.0
H1287 H 0.38303 0.60089 0.62078 0.0
H1288 H 0.30622 0.53667 0.59372 0.0
H1289 H 0.27014 0.53512 0.60063 0.0
H1290 H 0.29566 0.51043 0.60861 0.0
H1291 H 0.28366 0.52614 0.63834 0.0
H1292 H 0.25807 0.55088 0.63046 0.0
H1293 H 0.28596 0.56312 0.64377 0.0
H1294 H 0.34639 0.63672 0.61121 0.0
H1295 H 0.30458 0.66301 0.60098 0.0
H1296 H 0.25392 0.58691 0.60594 0.0
C1297 C 0.3453 0.5286 0.62902 0.0
C1298 C 0.37454 0.5312 0.63184 0.0
C1299 C 0.38811 0.5574 0.62877 0.0
C1300 C 0.37265 0.58086 0.62311 0.0
C1301 C 0.34378 0.57755 0.62041 0.0
C1302 C 0.33034 0.55197 0.62312 0.0
C1303 C 0.29945 0.55343 0.61858 0.0
C1304 C 0.29247 0.53269 0.60455 0.0
C1305 C 0.28069 0.54808 0.63369 0.0
C1306 C 0.29753 0.58387 0.61291 0.0
C1307 C 0.32318 0.5976 0.61422 0.0
C1308 C 0.32624 0.62612 0.61004 0.0
C1309 C 0.30244 0.64087 0.60428 0.0
C1310 C 0.27618 0.62689 0.60256 0.0
C1311 C 0.27382 0.59806 0.60695 0.0
H1312 H 0.36906 0.11306 0.10894 0.0
H1313 H 0.3729 0.11076 0.1623 0.0
H1314 H 0.34937 0.15742 0.16343 0.0
H1315 H 0.3838 0.18688 0.10466 0.0
H1316 H 0.36018 0.19182 0.08751 0.0
H1317 H 0.37646 0.15783 0.0909 0.0
H1318 H 0.32719 0.13403 0.09147 0.0
H1319 H 0.31075 0.16796 0.08808 0.0
H1320 H 0.30084 0.14682 0.10561 0.0
H1321 H 0.32612 0.20452 0.15876 0.0
H1322 H 0.30538 0.24915 0.14871 0.0
H1323 H 0.31711 0.22099 0.09831 0.0
C1324 C 0.36484 0.12223 0.12089 0.0
C1325 C 0.37279 0.10815 0.13555 0.0
C1326 C 0.36702 0.12108 0.15091 0.0
C1327 C 0.35363 0.14757 0.15168 0.0
C1328 C 0.34619 0.16087 0.13699 0.0
C1329 C 0.35161 0.14867 0.12189 0.0
C1330 C 0.34202 0.16768 0.10793 0.0
C1331 C 0.36711 0.17658 0.09712 0.0
C1332 C 0.31882 0.15326 0.09767 0.0
C1333 C 0.33045 0.19257 0.11755 0.0
C1334 C 0.33297 0.18814 0.13429 0.0
C1335 C 0.32399 0.2082 0.14568 0.0
C1336 C 0.31222 0.23352 0.13982 0.0
C1337 C 0.30956 0.23867 0.1227 0.0
C1338 C 0.31877 0.21775 0.11146 0.0
H1339 H 0.11842 0.1234 0.35286 0.0
H1340 H 0.13204 0.11568 0.40552 0.0
H1341 H 0.08918 0.0866 0.40784 0.0
H1342 H 0.04404 0.13112 0.35516 0.0
H1343 H 0.03657 0.11105 0.3368 0.0
H1344 H 0.06968 0.12943 0.33883 0.0
H1345 H 0.09656 0.08248 0.33362 0.0
H1346 H 0.06349 0.06393 0.33159 0.0
H1347 H 0.08931 0.05208 0.34636 0.0
H1348 H 0.04453 0.0606 0.40505 0.0
H1349 H -0.00129 0.04015 0.39748 0.0
H1350 H 0.01229 0.06474 0.34659 0.0
C1351 C 0.11253 0.11527 0.36483 0.0
C1352 C 0.12863 0.12175 0.37901 0.0
C1353 C 0.12002 0.11109 0.39449 0.0
C1354 C 0.09579 0.09441 0.39594 0.0
C1355 C 0.08028 0.08862 0.38181 0.0
C1356 C 0.08813 0.09873 0.36654 0.0
C1357 C 0.06658 0.09061 0.35353 0.0
C1358 C 0.05344 0.11713 0.34562 0.0
C1359 C 0.07978 0.07111 0.3405 0.0
C1360 C 0.04527 0.07477 0.36397 0.0
C1361 C 0.05388 0.0737 0.3802 0.0
C1362 C 0.03757 0.06113 0.39237 0.0
C1363 C 0.0115 0.04964 0.38792 0.0
C1364 C 0.00182 0.05084 0.37143 0.0
C1365 C 0.01918 0.06327 0.35926 0.0
H1366 H 0.11103 0.87274 0.63911 0.0
H1367 H 0.09949 0.90062 0.58866 0.0
H1368 H 0.12368 0.85765 0.57877 0.0
H1369 H 0.18065 0.84436 0.63331 0.0
H1370 H 0.17543 0.81485 0.64705 0.0
H1371 H 0.15635 0.84739 0.65026 0.0
H1372 H 0.10902 0.81991 0.64931 0.0
H1373 H 0.12797 0.78727 0.64619 0.0
H1374 H 0.10107 0.79793 0.63177 0.0
H1375 H 0.14831 0.81141 0.57425 0.0
H1376 H 0.17313 0.7654 0.57553 0.0
H1377 H 0.17069 0.76866 0.62887 0.0
C1378 C 0.11342 0.86969 0.62599 0.0
C1379 C 0.10329 0.88998 0.61466 0.0
C1380 C 0.10715 0.88539 0.59758 0.0
C1381 C 0.12082 0.86103 0.59182 0.0
C1382 C 0.13076 0.84157 0.6033 0.0
C1383 C 0.12738 0.84564 0.62002 0.0
C1384 C 0.14068 0.82171 0.62973 0.0
C1385 C 0.16471 0.83275 0.64073 0.0
C1386 C 0.11835 0.80576 0.63984 0.0
C1387 C 0.15192 0.80356 0.61584 0.0
C1388 C 0.14582 0.81531 0.60069 0.0
C1389 C 0.15337 0.80204 0.58604 0.0
C1390 C 0.16744 0.77594 0.58688 0.0
C1391 C 0.17404 0.76358 0.60228 0.0
C1392 C 0.16629 0.77776 0.61691 0.0
H1393 H 0.46111 0.91673 0.84788 0.0
H1394 H 0.48277 0.93895 0.8982 0.0
H1395 H 0.43885 0.91693 0.9079 0.0
H1396 H 0.38459 0.92815 0.85214 0.0
H1397 H 0.37578 0.89855 0.8391 0.0
H1398 H 0.40819 0.91772 0.83586 0.0
H1399 H 0.43636 0.87089 0.83851 0.0
H1400 H 0.4041 0.85161 0.84188 0.0
H1401 H 0.4323 0.84947 0.85672 0.0
H1402 H 0.39477 0.88954 0.91258 0.0
H1403 H 0.35143 0.86067 0.91169 0.0
H1404 H 0.3572 0.85682 0.85843 0.0
C1405 C 0.4564 0.91737 0.8609 0.0
C1406 C 0.4755 0.9296 0.87225 0.0
C1407 C 0.46859 0.92972 0.88922 0.0
C1408 C 0.44364 0.91726 0.89489 0.0
C1409 C 0.42562 0.90488 0.88346 0.0
C1410 C 0.43145 0.90505 0.86681 0.0
C1411 C 0.40875 0.88949 0.85723 0.0
C1412 C 0.39342 0.90969 0.84538 0.0
C1413 C 0.42113 0.86384 0.84805 0.0
C1414 C 0.38959 0.8802 0.87115 0.0
C1415 C 0.39975 0.88934 0.88616 0.0
C1416 C 0.3864 0.8825 0.90088 0.0
C1417 C 0.36185 0.86597 0.90026 0.0
C1418 C 0.35082 0.85656 0.885 0.0
C1419 C 0.36493 0.8639 0.87028 0.0
H1420 H 0.3162 0.75729 0.3542 0.0
H1421 H 0.30232 0.75618 0.40698 0.0
H1422 H 0.3234 0.80398 0.40909 0.0
H1423 H 0.38303 0.79126 0.35534 0.0
H1424 H 0.37709 0.81177 0.33696 0.0
H1425 H 0.35975 0.77811 0.33953 0.0
H1426 H 0.31117 0.80215 0.33511 0.0
H1427 H 0.32836 0.8359 0.33249 0.0
H1428 H 0.30127 0.83179 0.34785 0.0
H1429 H 0.34707 0.85141 0.40546 0.0
H1430 H 0.37196 0.89461 0.39654 0.0
H1431 H 0.37075 0.86426 0.34611 0.0
C1432 C 0.31735 0.76711 0.36622 0.0
C1433 C 0.3075 0.75295 0.38043 0.0
C1434 C 0.30967 0.76657 0.39591 0.0
C1435 C 0.32159 0.79374 0.39723 0.0
C1436 C 0.33123 0.80696 0.38297 0.0
C1437 C 0.32924 0.79409 0.36776 0.0
C1438 C 0.34186 0.81246 0.35438 0.0
C1439 C 0.36692 0.7975 0.34607 0.0
C1440 C 0.31932 0.82109 0.34171 0.0
C1441 C 0.35151 0.83764 0.36444 0.0
C1442 C 0.34505 0.83412 0.38089 0.0
C1443 C 0.35216 0.85442 0.39261 0.0
C1444 C 0.36633 0.87891 0.38739 0.0
C1445 C 0.37337 0.88291 0.3706 0.0
C1446 C 0.36569 0.86194 0.35902 0.0
H1447 H 0.36827 0.12329 0.62685 0.0
H1448 H 0.35707 0.10867 0.57453 0.0
H1449 H 0.39778 0.07595 0.57476 0.0
H1450 H 0.44402 0.12378 0.62609 0.0
H1451 H 0.44749 0.10658 0.64578 0.0
H1452 H 0.417 0.12809 0.64148 0.0
H1453 H 0.38454 0.08564 0.64862 0.0
H1454 H 0.41497 0.06388 0.65274 0.0
H1455 H 0.38903 0.05248 0.63792 0.0
H1456 H 0.43915 0.04429 0.5808 0.0
H1457 H 0.48155 0.02021 0.59138 0.0
H1458 H 0.46668 0.0567 0.63965 0.0
C1459 C 0.37436 0.11322 0.61543 0.0
C1460 C 0.35941 0.11845 0.60067 0.0
C1461 C 0.36825 0.10506 0.58596 0.0
C1462 C 0.39122 0.08629 0.586 0.0
C1463 C 0.40522 0.08132 0.60081 0.0
C1464 C 0.39738 0.09469 0.6152 0.0
C1465 C 0.41671 0.08664 0.6293 0.0
C1466 C 0.43223 0.11283 0.63605 0.0
C1467 C 0.40033 0.07124 0.64295 0.0
C1468 C 0.43675 0.06671 0.62058 0.0
C1469 C 0.42952 0.06365 0.6042 0.0
C1470 C 0.44504 0.04656 0.5936 0.0
C1471 C 0.46906 0.03285 0.59977 0.0
C1472 C 0.47756 0.03654 0.61637 0.0
C1473 C 0.46076 0.05331 0.62693 0.0
H1474 H 0.10703 0.10538 0.87758 0.0
H1475 H 0.10602 0.1034 0.82417 0.0
H1476 H 0.13106 0.14924 0.82353 0.0
H1477 H 0.09409 0.17938 0.88162 0.0
H1478 H 0.11686 0.18388 0.8992 0.0
H1479 H 0.10007 0.15023 0.89553 0.0
H1480 H 0.14883 0.12542 0.89587 0.0
H1481 H 0.16579 0.15901 0.89955 0.0
H1482 H 0.17621 0.13763 0.88222 0.0
H1483 H 0.15497 0.19558 0.82859 0.0
H1484 H 0.17556 0.24002 0.83889 0.0
H1485 H 0.16072 0.21247 0.88914 0.0
C1486 C 0.11227 0.11443 0.86573 0.0
C1487 C 0.10461 0.10069 0.85091 0.0
C1488 C 0.11165 0.11347 0.83569 0.0
C1489 C 0.12593 0.13948 0.83519 0.0
C1490 C 0.13299 0.15249 0.85002 0.0
C1491 C 0.1264 0.14045 0.86501 0.0
C1492 C 0.13562 0.15932 0.87913 0.0
C1493 C 0.11014 0.16876 0.88947 0.0
C1494 C 0.15794 0.14445 0.88982 0.0
C1495 C 0.14824 0.18396 0.86973 0.0
C1496 C 0.14662 0.17946 0.85296 0.0
C1497 C 0.15644 0.19931 0.8417 0.0
C1498 C 0.1681 0.22454 0.84771 0.0
C1499 C 0.16981 0.22985 0.86486 0.0
C1500 C 0.15984 0.20909 0.87598 0.0
H1501 H 0.12201 0.86801 0.13179 0.0
H1502 H 0.12899 0.87283 0.07863 0.0
H1503 H 0.0865 0.90308 0.07767 0.0
H1504 H 0.04691 0.86227 0.13266 0.0
H1505 H 0.04281 0.88301 0.15111 0.0
H1506 H 0.07477 0.86324 0.14777 0.0
H1507 H 0.10413 0.90917 0.15137 0.0
H1508 H 0.07222 0.92911 0.15469 0.0
H1509 H 0.09639 0.93956 0.13871 0.0
H1510 H 0.04353 0.9324 0.08238 0.0
H1511 H 0.00046 0.9561 0.09206 0.0
H1512 H 0.01972 0.93061 0.14219 0.0
C1513 C 0.11474 0.87567 0.11996 0.0
C1514 C 0.12891 0.86826 0.10528 0.0
C1515 C 0.11847 0.87825 0.09002 0.0
C1516 C 0.09444 0.89553 0.08936 0.0
C1517 C 0.08096 0.90239 0.10405 0.0
C1518 C 0.09053 0.89259 0.11905 0.0
C1519 C 0.07122 0.90185 0.13291 0.0
C1520 C 0.05815 0.87605 0.14162 0.0
C1521 C 0.08693 0.92107 0.14514 0.0
C1522 C 0.04921 0.9183 0.12332 0.0
C1523 C 0.05549 0.9186 0.10673 0.0
C1524 C 0.03837 0.93231 0.09534 0.0
C1525 C 0.01393 0.94578 0.101 0.0
C1526 C 0.00659 0.94524 0.11791 0.0
C1527 C 0.02469 0.93144 0.12921 0.0
H1528 H 0.67391 0.76789 0.88705 0.0
H1529 H 0.69757 0.74773 0.8368 0.0
H1530 H 0.67276 0.79042 0.82705 0.0
H1531 H 0.60557 0.7928 0.87853 0.0
H1532 H 0.60632 0.82126 0.89332 0.0
H1533 H 0.62739 0.79003 0.89664 0.0
H1534 H 0.67245 0.82088 0.89899 0.0
H1535 H 0.65146 0.85227 0.8959 0.0
H1536 H 0.6811 0.84521 0.88266 0.0
H1537 H 0.64154 0.83277 0.82241 0.0
H1538 H 0.61102 0.87524 0.82369 0.0
H1539 H 0.60958 0.86906 0.87694 0.0
C1540 C 0.67429 0.77268 0.87402 0.0
C1541 C 0.6877 0.75435 0.86271 0.0
C1542 C 0.68759 0.76143 0.84576 0.0
C1543 C 0.67342 0.7856 0.84006 0.0
C1544 C 0.65976 0.80274 0.85147 0.0
C1545 C 0.66052 0.79692 0.86813 0.0
C1546 C 0.64397 0.81875 0.87779 0.0
C1547 C 0.61936 0.80487 0.88711 0.0
C1548 C 0.66341 0.83526 0.88953 0.0
C1549 C 0.6334 0.83741 0.86393 0.0
C1550 C 0.64257 0.82771 0.84883 0.0
C1551 C 0.63452 0.8408 0.83418 0.0
C1552 C 0.61703 0.86477 0.83501 0.0
C1553 C 0.60806 0.87553 0.85039 0.0
C1554 C 0.61632 0.86151 0.86499 0.0
H1555 H 0.96245 0.93247 0.63723 0.0
H1556 H 0.9809 0.95771 0.58702 0.0
H1557 H 0.93872 0.93199 0.57739 0.0
H1558 H 0.93904 0.86343 0.62846 0.0
H1559 H 0.91108 0.86323 0.64346 0.0
H1560 H 0.94177 0.88503 0.64668 0.0
H1561 H 0.91015 0.92956 0.64953 0.0
H1562 H 0.87931 0.90783 0.64657 0.0
H1563 H 0.88532 0.93802 0.63345 0.0
H1564 H 0.89695 0.89972 0.57288 0.0
H1565 H 0.85513 0.8684 0.57435 0.0
H1566 H 0.86287 0.86604 0.62752 0.0
C1567 C 0.95738 0.93302 0.62424 0.0
C1568 C 0.97508 0.94714 0.6129 0.0
C1569 C 0.96766 0.94721 0.59599 0.0
C1570 C 0.9438 0.93251 0.59037 0.0
C1571 C 0.92731 0.91813 0.6018 0.0
C1572 C 0.93346 0.91872 0.61842 0.0
C1573 C 0.91235 0.90141 0.62815 0.0
C1574 C 0.92694 0.87682 0.63721 0.0
C1575 C 0.8958 0.92034 0.64013 0.0
C1576 C 0.89367 0.89065 0.61437 0.0
C1577 C 0.90275 0.90033 0.59925 0.0
C1578 C 0.88943 0.89228 0.58467 0.0
C1579 C 0.86584 0.87433 0.58561 0.0
C1580 C 0.85567 0.8649 0.60104 0.0
C1581 C 0.86998 0.8731 0.61555 0.0
H1582 H 0.8129 0.2198 0.38668 0.0
H1583 H 0.79775 0.24107 0.33542 0.0
H1584 H 0.81716 0.19501 0.32702 0.0
H1585 H 0.87828 0.18471 0.38056 0.0
H1586 H 0.87204 0.15744 0.39565 0.0
H1587 H 0.85563 0.19163 0.3979 0.0
H1588 H 0.80645 0.16776 0.39923 0.0
H1589 H 0.82273 0.13346 0.39704 0.0
H1590 H 0.79554 0.14439 0.38288 0.0
H1591 H 0.84085 0.1482 0.32383 0.0
H1592 H 0.86554 0.10234 0.32629 0.0
H1593 H 0.86433 0.11032 0.37949 0.0
C1594 C 0.81339 0.21466 0.3737 0.0
C1595 C 0.80376 0.23419 0.36174 0.0
C1596 C 0.80493 0.22659 0.34487 0.0
C1597 C 0.81594 0.20042 0.33993 0.0
C1598 C 0.82556 0.18186 0.35198 0.0
C1599 C 0.82422 0.18846 0.36852 0.0
C1600 C 0.83655 0.16479 0.37889 0.0
C1601 C 0.86214 0.17527 0.38883 0.0
C1602 C 0.81396 0.15183 0.39018 0.0
C1603 C 0.84535 0.14412 0.36556 0.0
C1604 C 0.83882 0.15443 0.35013 0.0
C1605 C 0.84584 0.13973 0.33585 0.0
C1606 C 0.85995 0.11374 0.33737 0.0
C1607 C 0.86674 0.10263 0.35306 0.0
C1608 C 0.85915 0.11806 0.36732 0.0
H1609 H 0.61416 0.12473 0.09477 0.0
H1610 H 0.65135 0.11184 0.14306 0.0
H1611 H 0.61086 0.08236 0.15102 0.0
H1612 H 0.54399 0.13175 0.10845 0.0
H1613 H 0.52828 0.11325 0.09134 0.0
H1614 H 0.56137 0.13141 0.08874 0.0
H1615 H 0.58439 0.08495 0.07835 0.0
H1616 H 0.55132 0.06663 0.0809 0.0
H1617 H 0.58266 0.0535 0.0909 0.0
H1618 H 0.56522 0.05746 0.15471 0.0
H1619 H 0.51687 0.03826 0.15373 0.0
H1620 H 0.50882 0.06644 0.10309 0.0
C1621 C 0.61398 0.11535 0.10692 0.0
C1622 C 0.636 0.12065 0.11827 0.0
C1623 C 0.63476 0.10822 0.13413 0.0
C1624 C 0.61188 0.09131 0.13878 0.0
C1625 C 0.59036 0.08686 0.12744 0.0
C1626 C 0.59117 0.09839 0.11181 0.0
C1627 C 0.56447 0.09141 0.10234 0.0
C1628 C 0.54859 0.11857 0.09743 0.0
C1629 C 0.57112 0.07302 0.08723 0.0
C1630 C 0.54838 0.07471 0.11522 0.0
C1631 C 0.56384 0.07221 0.12956 0.0
C1632 C 0.55299 0.05897 0.14349 0.0
C1633 C 0.52548 0.0482 0.14283 0.0
C1634 C 0.50909 0.05069 0.12832 0.0
C1635 C 0.52093 0.06384 0.11429 0.0
H1636 H 0.67276 0.21884 0.63116 0.0
H1637 H 0.67032 0.22124 0.57779 0.0
H1638 H 0.64438 0.17593 0.57751 0.0
H1639 H 0.68196 0.14331 0.63541 0.0
H1640 H 0.65942 0.14053 0.65317 0.0
H1641 H 0.67829 0.17296 0.64924 0.0
H1642 H 0.63124 0.20088 0.64989 0.0
H1643 H 0.6122 0.16852 0.65376 0.0
H1644 H 0.6028 0.19045 0.63645 0.0
H1645 H 0.61975 0.13039 0.58282 0.0
H1646 H 0.59663 0.08737 0.59337 0.0
H1647 H 0.61294 0.11488 0.64346 0.0
C1648 C 0.66692 0.20973 0.61942 0.0
C1649 C 0.67369 0.22352 0.60448 0.0
C1650 C 0.66537 0.21109 0.58938 0.0
C1651 C 0.65064 0.18535 0.58909 0.0
C1652 C 0.64416 0.17244 0.60401 0.0
C1653 C 0.65189 0.18418 0.61891 0.0
C1654 C 0.64179 0.16608 0.63316 0.0
C1655 C 0.66686 0.15507 0.64334 0.0
C1656 C 0.62076 0.18247 0.64395 0.0
C1657 C 0.62734 0.14224 0.62391 0.0
C1658 C 0.62912 0.14636 0.60711 0.0
C1659 C 0.6181 0.12696 0.59594 0.0
C1660 C 0.60506 0.10256 0.60208 0.0
C1661 C 0.6029 0.09781 0.61924 0.0
C1662 C 0.614 0.11809 0.63029 0.0
H1663 H 0.51348 0.92285 0.38529 0.0
H1664 H 0.51716 0.93734 0.33263 0.0
H1665 H 0.56491 0.9164 0.3319 0.0
H1666 H 0.58786 0.93611 0.39434 0.0
H1667 H 0.58996 0.90807 0.40935 0.0
H1668 H 0.55704 0.92628 0.40599 0.0
H1669 H 0.53242 0.8783 0.40008 0.0
H1670 H 0.56525 0.85996 0.40338 0.0
H1671 H 0.54634 0.85538 0.38432 0.0
H1672 H 0.6114 0.89303 0.33671 0.0
H1673 H 0.65286 0.86638 0.34631 0.0
H1674 H 0.61834 0.8648 0.39577 0.0
C1675 C 0.52453 0.92203 0.37366 0.0
C1676 C 0.51176 0.93197 0.35903 0.0
C1677 C 0.52661 0.92993 0.34398 0.0
C1678 C 0.55374 0.91816 0.34346 0.0
C1679 C 0.5656 0.9083 0.35806 0.0
C1680 C 0.55146 0.90994 0.37287 0.0
C1681 C 0.56828 0.89615 0.38659 0.0
C1682 C 0.57626 0.91796 0.39985 0.0
C1683 C 0.55211 0.87095 0.39402 0.0
C1684 C 0.59401 0.88632 0.37714 0.0
C1685 C 0.59213 0.89387 0.36075 0.0
C1686 C 0.61315 0.88703 0.34951 0.0
C1687 C 0.63666 0.87189 0.35512 0.0
C1688 C 0.63891 0.86341 0.37181 0.0
C1689 C 0.61727 0.87091 0.38295 0.0
H1690 H 0.8134 0.77456 0.13296 0.0
H1691 H 0.78355 0.78706 0.08297 0.0
H1692 H 0.80314 0.83555 0.08317 0.0
H1693 H 0.80146 0.84705 0.14754 0.0
H1694 H 0.83317 0.84744 0.1598 0.0
H1695 H 0.81482 0.81455 0.15624 0.0
H1696 H 0.86064 0.79247 0.14454 0.0
H1697 H 0.87909 0.82528 0.148 0.0
H1698 H 0.8785 0.80977 0.12775 0.0
H1699 H 0.82769 0.88163 0.08826 0.0
H1700 H 0.8564 0.92202 0.09759 0.0
H1701 H 0.87152 0.87937 0.14413 0.0
C1702 C 0.81055 0.78764 0.12214 0.0
C1703 C 0.79674 0.77705 0.10798 0.0
C1704 C 0.79397 0.79471 0.09398 0.0
C1705 C 0.80497 0.82231 0.09398 0.0
C1706 C 0.81878 0.83192 0.10806 0.0
C1707 C 0.82164 0.81515 0.12188 0.0
C1708 C 0.8388 0.83005 0.13506 0.0
C1709 C 0.82099 0.83507 0.15058 0.0
C1710 C 0.86586 0.8134 0.13906 0.0
C1711 C 0.84543 0.8577 0.1264 0.0
C1712 C 0.83345 0.85839 0.1109 0.0
C1713 C 0.83706 0.8814 0.10041 0.0
C1714 C 0.85347 0.90426 0.10584 0.0
C1715 C 0.8663 0.90397 0.12162 0.0
C1716 C 0.86198 0.88035 0.13203 0.0
H1717 H 0.96734 0.06311 0.88394 0.0
H1718 H 0.95953 0.04488 0.83176 0.0
H1719 H 0.91218 0.06651 0.83164 0.0
H1720 H 0.8943 0.04992 0.89471 0.0
H1721 H 0.89273 0.07857 0.90934 0.0
H1722 H 0.92571 0.06081 0.90552 0.0
H1723 H 0.94898 0.10894 0.89837 0.0
H1724 H 0.91604 0.12685 0.90209 0.0
H1725 H 0.93358 0.13089 0.88258 0.0
H1726 H 0.8664 0.09026 0.83692 0.0
H1727 H 0.82446 0.11517 0.84713 0.0
H1728 H 0.86174 0.11929 0.89594 0.0
C1729 C 0.95558 0.06343 0.87251 0.0
C1730 C 0.96712 0.05218 0.85785 0.0
C1731 C 0.95115 0.05333 0.84313 0.0
C1732 C 0.92423 0.06556 0.84294 0.0
C1733 C 0.91362 0.07665 0.85755 0.0
C1734 C 0.92872 0.07576 0.87207 0.0
C1735 C 0.91258 0.08986 0.88594 0.0
C1736 C 0.90594 0.06851 0.89969 0.0
C1737 C 0.92877 0.11567 0.89263 0.0
C1738 C 0.88604 0.09883 0.87692 0.0
C1739 C 0.88715 0.09086 0.86057 0.0
C1740 C 0.86525 0.0966 0.8497 0.0
C1741 C 0.84147 0.11078 0.85566 0.0
C1742 C 0.83971 0.11924 0.87238 0.0
C1743 C 0.86244 0.11321 0.88311 0.0
H1744 H 0.81325 0.71711 0.59907 0.0
H1745 H 0.78718 0.73739 0.64891 0.0
H1746 H 0.80668 0.69213 0.65863 0.0
H1747 H 0.79931 0.64034 0.60179 0.0
H1748 H 0.82977 0.63121 0.58964 0.0
H1749 H 0.81193 0.66444 0.58624 0.0
H1750 H 0.85896 0.69128 0.59089 0.0
H1751 H 0.87688 0.65819 0.5944 0.0
H1752 H 0.87834 0.68577 0.60971 0.0
H1753 H 0.83199 0.64669 0.66355 0.0
H1754 H 0.85992 0.60257 0.663 0.0
H1755 H 0.86913 0.61075 0.61007 0.0
C1756 C 0.81122 0.71182 0.61197 0.0
C1757 C 0.79864 0.73092 0.6232 0.0
C1758 C 0.79674 0.72324 0.64003 0.0
C1759 C 0.80773 0.69751 0.64571 0.0
C1760 C 0.82048 0.67947 0.63443 0.0
C1761 C 0.82212 0.68609 0.6179 0.0
C1762 C 0.83789 0.66326 0.60853 0.0
C1763 C 0.81857 0.64896 0.5958 0.0
C1764 C 0.8646 0.67535 0.60041 0.0
C1765 C 0.84522 0.64312 0.62245 0.0
C1766 C 0.83491 0.65289 0.63727 0.0
C1767 C 0.83994 0.63862 0.65199 0.0
C1768 C 0.85592 0.61363 0.65156 0.0
C1769 C 0.86663 0.60308 0.63651 0.0
C1770 C 0.86101 0.61806 0.62177 0.0
H1771 H 0.61368 0.6197 0.89132 0.0
H1772 H 0.64155 0.6246 0.84054 0.0
H1773 H 0.59917 0.59848 0.83173 0.0
H1774 H 0.58615 0.54899 0.88877 0.0
H1775 H 0.55656 0.55581 0.90209 0.0
H1776 H 0.58868 0.57579 0.90451 0.0
H1777 H 0.56079 0.62268 0.90119 0.0
H1778 H 0.52856 0.60285 0.89885 0.0
H1779 H 0.53902 0.62785 0.88324 0.0
H1780 H 0.55394 0.57216 0.82826 0.0
H1781 H 0.50871 0.54657 0.83048 0.0
H1782 H 0.51073 0.55717 0.88353 0.0
C1783 C 0.61074 0.61547 0.87834 0.0
C1784 C 0.63092 0.62427 0.86662 0.0
C1785 C 0.62645 0.61803 0.84976 0.0
C1786 C 0.60242 0.60323 0.84461 0.0
C1787 C 0.5831 0.59462 0.85647 0.0
C1788 C 0.58696 0.60043 0.87298 0.0
C1789 C 0.56318 0.58819 0.88319 0.0
C1790 C 0.57432 0.56587 0.89536 0.0
C1791 C 0.54692 0.6118 0.89214 0.0
C1792 C 0.54539 0.5747 0.86982 0.0
C1793 C 0.55722 0.57878 0.8545 0.0
C1794 C 0.54447 0.56874 0.8402 0.0
C1795 C 0.51878 0.55423 0.84159 0.0
C1796 C 0.50624 0.54974 0.85718 0.0
C1797 C 0.5199 0.56001 0.87146 0.0
H1798 H 0.60555 0.37719 0.14396 0.0
H1799 H 0.59506 0.40015 0.09259 0.0
H1800 H 0.61746 0.35542 0.08424 0.0
H1801 H 0.67389 0.34592 0.13923 0.0
H1802 H 0.66792 0.31784 0.15384 0.0
H1803 H 0.64964 0.35108 0.15602 0.0
H1804 H 0.60168 0.32471 0.15584 0.0
H1805 H 0.61984 0.29137 0.15371 0.0
H1806 H 0.59322 0.3014 0.13897 0.0
H1807 H 0.64119 0.30897 0.0812 0.0
H1808 H 0.66622 0.26343 0.08369 0.0
H1809 H 0.66325 0.27047 0.13694 0.0
C1810 C 0.60773 0.37262 0.13097 0.0
C1811 C 0.5985 0.39216 0.11893 0.0
C1812 C 0.60206 0.3856 0.10205 0.0
C1813 C 0.61469 0.36019 0.09716 0.0
C1814 C 0.62385 0.34155 0.10928 0.0
C1815 C 0.62067 0.34738 0.12583 0.0
C1816 C 0.6334 0.32398 0.13627 0.0
C1817 C 0.65765 0.3354 0.14697 0.0
C1818 C 0.61068 0.30951 0.14682 0.0
C1819 C 0.64425 0.30426 0.12296 0.0
C1820 C 0.63829 0.31478 0.1075 0.0
C1821 C 0.646 0.30045 0.09324 0.0
C1822 C 0.66021 0.27458 0.09479 0.0
C1823 C 0.66678 0.26337 0.1105 0.0
C1824 C 0.65868 0.27853 0.12476 0.0
H1825 H 0.8636 0.36871 0.35204 0.0
H1826 H 0.8626 0.3713 0.40539 0.0
H1827 H 0.90555 0.40105 0.40514 0.0
H1828 H 0.93899 0.36299 0.34813 0.0
H1829 H 0.94051 0.38443 0.3298 0.0
H1830 H 0.90929 0.36411 0.33426 0.0
H1831 H 0.87914 0.40983 0.3324 0.0
H1832 H 0.91033 0.43034 0.3281 0.0
H1833 H 0.88799 0.43981 0.34515 0.0
H1834 H 0.94773 0.43152 0.39902 0.0
H1835 H -0.01064 0.456 0.38776 0.0
H1836 H 0.96411 0.43167 0.33837 0.0
C1837 C 0.8724 0.37555 0.36368 0.0
C1838 C 0.8597 0.36783 0.37875 0.0
C1839 C 0.87204 0.3769 0.39371 0.0
C1840 C 0.89631 0.39395 0.39369 0.0
C1841 C 0.9081 0.40144 0.3786 0.0
C1842 C 0.89681 0.3922 0.36388 0.0
C1843 C 0.91425 0.40223 0.3494 0.0
C1844 C 0.92649 0.37693 0.33984 0.0
C1845 C 0.89689 0.42171 0.3381 0.0
C1846 C 0.93715 0.41858 0.35828 0.0
C1847 C 0.93298 0.41817 0.3751 0.0
C1848 C 0.95127 0.4319 0.38587 0.0
C1849 C 0.97481 0.44588 0.37933 0.0
C1850 C 0.98009 0.44575 0.36216 0.0
C1851 C 0.96071 0.43217 0.35153 0.0
H1852 H 0.86047 0.36548 0.88343 0.0
H1853 H 0.85814 0.37108 0.83016 0.0
H1854 H 0.82891 0.32782 0.82905 0.0
H1855 H 0.86712 0.28951 0.88496 0.0
H1856 H 0.84573 0.28574 0.90314 0.0
H1857 H 0.86543 0.31786 0.89979 0.0
H1858 H 0.81942 0.34714 0.90251 0.0
H1859 H 0.79954 0.31507 0.90573 0.0
H1860 H 0.78977 0.33902 0.88942 0.0
H1861 H 0.79922 0.28494 0.83366 0.0
H1862 H 0.77542 0.2417 0.84332 0.0
H1863 H 0.79907 0.26195 0.89361 0.0
C1864 C 0.85373 0.35761 0.87154 0.0
C1865 C 0.86143 0.37169 0.85687 0.0
C1866 C 0.85255 0.36057 0.84154 0.0
C1867 C 0.8358 0.33613 0.84079 0.0
C1868 C 0.82841 0.32288 0.85547 0.0
C1869 C 0.8374 0.33293 0.87055 0.0
C1870 C 0.82765 0.31377 0.8844 0.0
C1871 C 0.85299 0.30096 0.89361 0.0
C1872 C 0.80792 0.32971 0.89621 0.0
C1873 C 0.81178 0.29139 0.87473 0.0
C1874 C 0.81216 0.29734 0.85809 0.0
C1875 C 0.79885 0.27997 0.84665 0.0
C1876 C 0.78527 0.25549 0.8523 0.0
C1877 C 0.78539 0.24833 0.86924 0.0
C1878 C 0.79861 0.26678 0.88059 0.0
H1879 H 0.9577 0.56473 0.12999 0.0
H1880 H 0.97922 0.55244 0.07855 0.0
H1881 H 0.9374 0.5798 0.07034 0.0
H1882 H 0.88119 0.55973 0.12449 0.0
H1883 H 0.87389 0.58667 0.13961 0.0
H1884 H 0.90499 0.56496 0.14154 0.0
H1885 H 0.93597 0.61019 0.14257 0.0
H1886 H 0.90501 0.63202 0.14049 0.0
H1887 H 0.93367 0.63566 0.1261 0.0
H1888 H 0.89492 0.61052 0.0675 0.0
H1889 H 0.8524 0.64026 0.07032 0.0
H1890 H 0.85771 0.63235 0.12347 0.0
C1891 C 0.95342 0.56747 0.11701 0.0
C1892 C 0.97186 0.5564 0.10495 0.0
C1893 C 0.96553 0.56069 0.08807 0.0
C1894 C 0.94179 0.57625 0.08324 0.0
C1895 C 0.92442 0.58734 0.0954 0.0
C1896 C 0.92971 0.58297 0.11193 0.0
C1897 C 0.90776 0.59763 0.12247 0.0
C1898 C 0.89096 0.57595 0.13262 0.0
C1899 C 0.92143 0.62021 0.13356 0.0
C1900 C 0.88956 0.6111 0.10926 0.0
C1901 C 0.89961 0.60492 0.09374 0.0
C1902 C 0.8867 0.61538 0.07958 0.0
C1903 C 0.86262 0.63236 0.08132 0.0
C1904 C 0.85164 0.63865 0.0971 0.0
C1905 C 0.86548 0.6279 0.11122 0.0
H1906 H 0.60856 0.60598 0.37831 0.0
H1907 H 0.60602 0.60735 0.32492 0.0
H1908 H 0.63295 0.65204 0.32492 0.0
H1909 H 0.59946 0.68182 0.38353 0.0
H1910 H 0.62264 0.68386 0.40109 0.0
H1911 H 0.60342 0.65168 0.39697 0.0
H1912 H 0.65031 0.62349 0.39686 0.0
H1913 H 0.6697 0.65561 0.40086 0.0
H1914 H 0.67833 0.63417 0.38323 0.0
H1915 H 0.66162 0.69489 0.33044 0.0
H1916 H 0.68657 0.73664 0.34109 0.0
H1917 H 0.66881 0.70976 0.39113 0.0
C1918 C 0.61365 0.61573 0.36663 0.0
C1919 C 0.60529 0.60313 0.35159 0.0
C1920 C 0.6121 0.61666 0.33657 0.0
C1921 C 0.62752 0.64197 0.33644 0.0
C1922 C 0.63565 0.65368 0.35143 0.0
C1923 C 0.62867 0.6413 0.36627 0.0
C1924 C 0.63939 0.65889 0.38061 0.0
C1925 C 0.61476 0.66971 0.39117 0.0
C1926 C 0.6607 0.64203 0.391 0.0
C1927 C 0.65366 0.68296 0.37148 0.0
C1928 C 0.65144 0.67925 0.35466 0.0
C1929 C 0.66336 0.69816 0.34357 0.0
C1930 C 0.67764 0.72178 0.34979 0.0
C1931 C 0.67966 0.72657 0.36698 0.0
C1932 C 0.66755 0.70676 0.37795 0.0
H1933 H 0.6195 0.36813 0.58939 0.0
H1934 H 0.65099 0.36062 0.63942 0.0
H1935 H 0.6103 0.38774 0.6495 0.0
H1936 H 0.59201 0.44011 0.59372 0.0
H1937 H 0.5615 0.43336 0.58106 0.0
H1938 H 0.59376 0.41413 0.5775 0.0
H1939 H 0.56688 0.36661 0.58068 0.0
H1940 H 0.53456 0.38569 0.58423 0.0
H1941 H 0.54675 0.36012 0.5991 0.0
H1942 H 0.56513 0.41311 0.65458 0.0
H1943 H 0.51847 0.43631 0.6541 0.0
H1944 H 0.51652 0.42898 0.60088 0.0
C1945 C 0.61794 0.37235 0.60244 0.0
C1946 C 0.63854 0.36217 0.61357 0.0
C1947 C 0.6356 0.36815 0.63059 0.0
C1948 C 0.61253 0.3836 0.63648 0.0
C1949 C 0.59258 0.39315 0.62523 0.0
C1950 C 0.59505 0.38793 0.60857 0.0
C1951 C 0.57021 0.40021 0.59921 0.0
C1952 C 0.57996 0.42333 0.58716 0.0
C1953 C 0.55362 0.37676 0.59029 0.0
C1954 C 0.5533 0.41274 0.61326 0.0
C1955 C 0.56663 0.40842 0.62816 0.0
C1956 C 0.55458 0.4169 0.64298 0.0
C1957 C 0.52806 0.43001 0.64259 0.0
C1958 C 0.51395 0.43466 0.62747 0.0
C1959 C 0.52696 0.42612 0.61262 0.0
H1960 H 0.10783 0.36985 0.33345 0.0
H1961 H 0.12094 0.41263 0.38018 0.0
H1962 H 0.14653 0.3711 0.39061 0.0
H1963 H 0.0965 0.30056 0.35008 0.0
H1964 H 0.11509 0.28233 0.33391 0.0
H1965 H 0.0982 0.31576 0.32976 0.0
H1966 H 0.1456 0.33618 0.31922 0.0
H1967 H 0.16264 0.30279 0.32334 0.0
H1968 H 0.17629 0.33493 0.33231 0.0
H1969 H 0.16893 0.32464 0.39664 0.0
H1970 H 0.18805 0.27604 0.39749 0.0
H1971 H 0.162 0.26329 0.3468 0.0
C1972 C 0.11618 0.37052 0.34584 0.0
C1973 C 0.1123 0.3946 0.35595 0.0
C1974 C 0.12361 0.39455 0.37212 0.0
C1975 C 0.13822 0.37102 0.37821 0.0
C1976 C 0.14158 0.34766 0.36799 0.0
C1977 C 0.13105 0.34719 0.35213 0.0
C1978 C 0.13753 0.31916 0.34383 0.0
C1979 C 0.1102 0.30353 0.33912 0.0
C1980 C 0.15666 0.32353 0.32879 0.0
C1981 C 0.15306 0.30398 0.35757 0.0
C1982 C 0.15509 0.32084 0.3714 0.0
C1983 C 0.16768 0.31126 0.38586 0.0
C1984 C 0.17844 0.28361 0.38623 0.0
C1985 C 0.17669 0.2659 0.3722 0.0
C1986 C 0.16396 0.2764 0.35767 0.0
H1987 H 0.35885 0.37881 0.12522 0.0
H1988 H 0.35399 0.37688 0.07194 0.0
H1989 H 0.39623 0.40757 0.07035 0.0
H1990 H 0.38361 0.45124 0.12967 0.0
H1991 H 0.40715 0.4428 0.14639 0.0
H1992 H 0.37547 0.42233 0.14336 0.0
H1993 H 0.40509 0.37622 0.14198 0.0
H1994 H 0.4368 0.39651 0.14511 0.0
H1995 H 0.43363 0.37371 0.12742 0.0
H1996 H 0.43912 0.43814 0.07464 0.0
H1997 H 0.48232 0.46214 0.08422 0.0
H1998 H 0.46043 0.44209 0.13474 0.0
C1999 C 0.3665 0.38508 0.11321 0.0
C2000 C 0.35302 0.37569 0.09869 0.0
C2001 C 0.364 0.38386 0.08321 0.0
C2002 C 0.38786 0.40141 0.0822 0.0
C2003 C 0.40061 0.41033 0.09677 0.0
C2004 C 0.39051 0.40218 0.11198 0.0
C2005 C 0.40916 0.41309 0.12574 0.0
C2006 C 0.39287 0.43359 0.13695 0.0
C2007 C 0.42193 0.38841 0.13564 0.0
C2008 C 0.43147 0.42852 0.11589 0.0
C2009 C 0.4259 0.42705 0.09923 0.0
C2010 C 0.44369 0.43944 0.08766 0.0
C2011 C 0.46815 0.45313 0.09325 0.0
C2012 C 0.47484 0.45401 0.11025 0.0
C2013 C 0.45594 0.44185 0.12168 0.0
H2014 H 0.31564 0.71552 0.85235 0.0
H2015 H 0.29045 0.70788 0.9035 0.0
H2016 H 0.3082 0.65883 0.90399 0.0
H2017 H 0.29951 0.64255 0.84016 0.0
H2018 H 0.32993 0.63956 0.827 0.0
H2019 H 0.31351 0.67359 0.83014 0.0
H2020 H 0.3613 0.69438 0.83983 0.0
H2021 H 0.37787 0.66048 0.83669 0.0
H2022 H 0.38001 0.67753 0.85649 0.0
H2023 H 0.32982 0.61191 0.89955 0.0
H2024 H 0.35633 0.56982 0.89092 0.0
H2025 H 0.369 0.60709 0.84261 0.0
C2026 C 0.31357 0.70339 0.86359 0.0
C2027 C 0.30152 0.71551 0.87788 0.0
C2028 C 0.2996 0.6991 0.89242 0.0
C2029 C 0.3095 0.67116 0.8928 0.0
C2030 C 0.32138 0.65994 0.87857 0.0
C2031 C 0.32361 0.67547 0.86424 0.0
C2032 C 0.33876 0.65867 0.85099 0.0
C2033 C 0.31925 0.65327 0.8362 0.0
C2034 C 0.36611 0.67366 0.8457 0.0
C2035 C 0.34496 0.63141 0.86021 0.0
C2036 C 0.33444 0.63264 0.87604 0.0
C2037 C 0.33808 0.61061 0.88717 0.0
C2038 C 0.35328 0.58679 0.88212 0.0
C2039 C 0.36486 0.58509 0.86607 0.0
C2040 C 0.36024 0.60761 0.8549 0.0
H2041 H 0.00995 0.5661 0.60574 0.0
H2042 H 0.01216 0.55488 0.65875 0.0
H2043 H 0.05931 0.57705 0.65963 0.0
H2044 H 0.08423 0.55245 0.59833 0.0
H2045 H 0.0869 0.57902 0.58248 0.0
H2046 H 0.05386 0.56112 0.58594 0.0
H2047 H 0.02905 0.60957 0.58998 0.0
H2048 H 0.06199 0.62761 0.58657 0.0
H2049 H 0.04238 0.63396 0.60519 0.0
H2050 H 0.10552 0.60161 0.65486 0.0
H2051 H 0.14749 0.62715 0.64484 0.0
H2052 H 0.11481 0.62278 0.59496 0.0
C2053 C 0.02041 0.56805 0.61754 0.0
C2054 C 0.00736 0.55866 0.63218 0.0
C2055 C 0.02172 0.56188 0.64736 0.0
C2056 C 0.04853 0.57441 0.64799 0.0
C2057 C 0.06066 0.58363 0.63335 0.0
C2058 C 0.0471 0.5806 0.6184 0.0
C2059 C 0.06438 0.59306 0.60452 0.0
C2060 C 0.07285 0.57004 0.59209 0.0
C2061 C 0.0485 0.6175 0.59607 0.0
C2062 C 0.08971 0.60378 0.61402 0.0
C2063 C 0.0872 0.598 0.63061 0.0
C2064 C 0.10778 0.60617 0.64189 0.0
C2065 C 0.13154 0.6207 0.63606 0.0
C2066 C 0.1345 0.62701 0.6191 0.0
C2067 C 0.11325 0.61829 0.60798 0.0
H2068 H 0.11145 0.60424 0.10209 0.0
H2069 H 0.10056 0.5978 0.15498 0.0
H2070 H 0.1247 0.64378 0.15849 0.0
H2071 H 0.18054 0.63797 0.10272 0.0
H2072 H 0.17275 0.66058 0.08543 0.0
H2073 H 0.15603 0.62641 0.08713 0.0
H2074 H 0.10694 0.65029 0.08505 0.0
H2075 H 0.12348 0.68453 0.08341 0.0
H2076 H 0.0978 0.67807 0.09931 0.0
H2077 H 0.14866 0.69074 0.15625 0.0
H2078 H 0.17026 0.73621 0.14856 0.0
H2079 H 0.16481 0.71294 0.09694 0.0
C2080 C 0.11443 0.6123 0.11444 0.0
C2081 C 0.10423 0.5973 0.12829 0.0
C2082 C 0.10821 0.60885 0.1442 0.0
C2083 C 0.12194 0.63493 0.14632 0.0
C2084 C 0.13146 0.64924 0.1324 0.0
C2085 C 0.12788 0.63839 0.11677 0.0
C2086 C 0.13912 0.65861 0.10383 0.0
C2087 C 0.16357 0.64508 0.09421 0.0
C2088 C 0.11542 0.66846 0.09222 0.0
C2089 C 0.14941 0.68264 0.11464 0.0
C2090 C 0.14493 0.67666 0.13107 0.0
C2091 C 0.15235 0.69563 0.14343 0.0
C2092 C 0.16463 0.72146 0.13889 0.0
C2093 C 0.16928 0.72826 0.12211 0.0
C2094 C 0.16158 0.70844 0.10986 0.0
H2095 H 0.11869 0.36959 0.86133 0.0
H2096 H 0.12116 0.36433 0.91461 0.0
H2097 H 0.07639 0.39102 0.9161 0.0
H2098 H 0.08726 0.44021 0.85825 0.0
H2099 H 0.06552 0.43079 0.84088 0.0
H2100 H 0.09895 0.41341 0.844 0.0
H2101 H 0.07404 0.36453 0.84358 0.0
H2102 H 0.04058 0.38173 0.84043 0.0
H2103 H 0.04527 0.35791 0.85755 0.0
H2104 H 0.03083 0.41668 0.91182 0.0
H2105 H 0.98584 0.43675 0.90221 0.0
H2106 H 0.01186 0.42387 0.85154 0.0
C2107 C 0.11003 0.37441 0.87333 0.0
C2108 C 0.12354 0.36508 0.88788 0.0
C2109 C 0.11121 0.3713 0.90332 0.0
C2110 C 0.08587 0.38656 0.90428 0.0
C2111 C 0.07303 0.39527 0.8897 0.0
C2112 C 0.08457 0.38929 0.87451 0.0
C2113 C 0.06552 0.39939 0.8607 0.0
C2114 C 0.08019 0.42232 0.85035 0.0
C2115 C 0.05578 0.3744 0.84993 0.0
C2116 C 0.04128 0.41168 0.87051 0.0
C2117 C 0.04627 0.40942 0.88721 0.0
C2118 C 0.02673 0.41866 0.89878 0.0
C2119 C 0.00119 0.43006 0.89316 0.0
C2120 C -0.00481 0.43192 0.87609 0.0
C2121 C 0.01579 0.42291 0.86465 0.0
H2122 H 0.31858 0.26254 0.63143 0.0
H2123 H 0.30042 0.26562 0.57909 0.0
H2124 H 0.32025 0.31389 0.57777 0.0
H2125 H 0.30358 0.3371 0.64022 0.0
H2126 H 0.33207 0.3402 0.65481 0.0
H2127 H 0.31469 0.3066 0.65191 0.0
H2128 H 0.36283 0.28309 0.64547 0.0
H2129 H 0.38033 0.31661 0.64829 0.0
H2130 H 0.38454 0.29741 0.62929 0.0
H2131 H 0.3439 0.36069 0.58176 0.0
H2132 H 0.37009 0.40304 0.59071 0.0
H2133 H 0.37358 0.36962 0.64047 0.0
C2134 C 0.3184 0.2735 0.61973 0.0
C2135 C 0.30781 0.26029 0.60536 0.0
C2136 C 0.30836 0.27526 0.59026 0.0
C2137 C 0.31954 0.30272 0.58938 0.0
C2138 C 0.33012 0.31495 0.60371 0.0
C2139 C 0.32963 0.30089 0.61861 0.0
C2140 C 0.34351 0.31838 0.63201 0.0
C2141 C 0.32218 0.32602 0.64553 0.0
C2142 C 0.36934 0.30295 0.63918 0.0
C2143 C 0.35216 0.34433 0.62226 0.0
C2144 C 0.34406 0.34195 0.60599 0.0
C2145 C 0.35022 0.36288 0.59448 0.0
C2146 C 0.36518 0.38686 0.59971 0.0
C2147 C 0.37394 0.38975 0.61632 0.0
C2148 C 0.36713 0.36816 0.62772 0.0
H2149 H 0.46276 0.55187 0.34473 0.0
H2150 H 0.48291 0.52712 0.39484 0.0
H2151 H 0.43819 0.54807 0.40436 0.0
H2152 H 0.43431 0.61804 0.35428 0.0
H2153 H 0.40671 0.61702 0.33902 0.0
H2154 H 0.43885 0.59754 0.33576 0.0
H2155 H 0.41032 0.55115 0.33192 0.0
H2156 H 0.37801 0.57055 0.335 0.0
H2157 H 0.38588 0.5402 0.34766 0.0
H2158 H 0.39363 0.57557 0.40884 0.0
H2159 H 0.35087 0.60533 0.40772 0.0
H2160 H 0.35952 0.61177 0.35468 0.0
C2161 C 0.45753 0.55029 0.35766 0.0
C2162 C 0.47638 0.53777 0.36902 0.0
C2163 C 0.46883 0.53652 0.38587 0.0
C2164 C 0.44346 0.54838 0.39142 0.0
C2165 C 0.42576 0.56126 0.37996 0.0
C2166 C 0.43229 0.56202 0.36341 0.0
C2167 C 0.41026 0.5783 0.35377 0.0
C2168 C 0.42332 0.60426 0.34521 0.0
C2169 C 0.39522 0.55888 0.34136 0.0
C2170 C 0.39065 0.58707 0.36754 0.0
C2171 C 0.39992 0.57695 0.38254 0.0
C2172 C 0.38596 0.58333 0.39714 0.0
C2173 C 0.36176 0.60037 0.39638 0.0
C2174 C 0.35174 0.61083 0.38111 0.0
C2175 C 0.36645 0.60394 0.36653 0.0
loop_
_geom_bond_atom_site_label_1
_geom_bond_atom_site_label_2
_geom_bond_distance
_geom_bond_site_symmetry_2
_ccdc_geom_bond_type
C0 O1 1.306 . S
C0 O3 1.160 . S
O1 C0 1.306 . S
O1 Cd2 2.228 . S
Cd2 O1 2.228 . S
Cd2 O6 2.273 . S
Cd2 O10 2.277 . S
O3 C0 1.160 . S
O3 Cd4 2.203 . S
Cd4 O3 2.203 . S
Cd4 O6 2.411 . S
Cd4 O7 2.333 . S
Cd4 O8 2.352 . S
Cd4 O12 2.277 . S
Cd4 O13 2.356 . S
C5 O10 1.209 . S
C5 O12 1.226 . S
O6 Cd2 2.273 . S
O6 Cd4 2.411 . S
O6 C9 1.320 . S
O7 Cd4 2.333 . S
O7 C9 1.214 . S
O8 Cd4 2.352 . S
O8 C11 1.258 . S
C9 O6 1.320 . S
C9 O7 1.214 . S
O10 Cd2 2.277 . S
O10 C5 1.209 . S
C11 O8 1.258 . S
C11 O13 1.282 . S
O12 Cd4 2.277 . S
O12 C5 1.226 . S
O13 Cd4 2.356 . S
O13 C11 1.282 . S
C14 O15 1.306 . S
C14 O17 1.160 . S
O15 C14 1.306 . S
O15 Cd16 2.228 . S
Cd16 O15 2.228 . S
Cd16 O20 2.273 . S
Cd16 O24 2.277 . S
O17 C14 1.160 . S
O17 Cd18 2.203 . S
Cd18 O17 2.203 . S
Cd18 O20 2.411 . S
Cd18 O21 2.333 . S
Cd18 O22 2.352 . S
Cd18 O26 2.277 . S
Cd18 O27 2.356 . S
C19 O24 1.209 . S
C19 O26 1.226 . S
O20 Cd16 2.273 . S
O20 Cd18 2.411 . S
O20 C23 1.320 . S
O21 Cd18 2.333 . S
O21 C23 1.214 . S
O22 Cd18 2.352 . S
O22 C25 1.258 . S
C23 O20 1.320 . S
C23 O21 1.214 . S
O24 Cd16 2.277 . S
O24 C19 1.209 . S
C25 O22 1.258 . S
C25 O27 1.282 . S
O26 Cd18 2.277 . S
O26 C19 1.226 . S
O27 Cd18 2.356 . S
O27 C25 1.282 . S
C28 O29 1.306 . S
C28 O31 1.160 . S
O29 C28 1.306 . S
O29 Cd30 2.228 . S
Cd30 O29 2.228 . S
Cd30 O34 2.273 . S
Cd30 O38 2.277 . S
O31 C28 1.160 . S
O31 Cd32 2.203 . S
Cd32 O31 2.203 . S
Cd32 O34 2.411 . S
Cd32 O35 2.333 . S
Cd32 O36 2.352 . S
Cd32 O40 2.277 . S
Cd32 O41 2.356 . S
C33 O38 1.209 . S
C33 O40 1.226 . S
O34 Cd30 2.273 . S
O34 Cd32 2.411 . S
O34 C37 1.320 . S
O35 Cd32 2.333 . S
O35 C37 1.214 . S
O36 Cd32 2.352 . S
O36 C39 1.258 . S
C37 O34 1.320 . S
C37 O35 1.214 . S
O38 Cd30 2.277 . S
O38 C33 1.209 . S
C39 O36 1.258 . S
C39 O41 1.282 . S
O40 Cd32 2.277 . S
O40 C33 1.226 . S
O41 Cd32 2.356 . S
O41 C39 1.282 . S
C42 O43 1.306 . S
C42 O45 1.160 . S
O43 C42 1.306 . S
O43 Cd44 2.228 . S
Cd44 O43 2.228 . S
Cd44 O48 2.273 . S
Cd44 O52 2.277 . S
O45 C42 1.160 . S
O45 Cd46 2.203 . S
Cd46 O45 2.203 . S
Cd46 O48 2.411 . S
Cd46 O49 2.333 . S
Cd46 O50 2.352 . S
Cd46 O54 2.277 . S
Cd46 O55 2.356 . S
C47 O52 1.209 . S
C47 O54 1.226 . S
O48 Cd44 2.273 . S
O48 Cd46 2.411 . S
O48 C51 1.320 . S
O49 Cd46 2.333 . S
O49 C51 1.214 . S
O50 Cd46 2.352 . S
O50 C53 1.258 . S
C51 O48 1.320 . S
C51 O49 1.214 . S
O52 Cd44 2.277 . S
O52 C47 1.209 . S
C53 O50 1.258 . S
C53 O55 1.282 . S
O54 Cd46 2.277 . S
O54 C47 1.226 . S
O55 Cd46 2.356 . S
O55 C53 1.282 . S
C56 O57 1.306 . S
C56 O59 1.160 . S
O57 C56 1.306 . S
O57 Cd58 2.228 . S
Cd58 O57 2.228 . S
Cd58 O62 2.273 . S
Cd58 O66 2.277 . S
O59 C56 1.160 . S
O59 Cd60 2.203 . S
Cd60 O59 2.203 . S
Cd60 O62 2.411 . S
Cd60 O63 2.333 . S
Cd60 O64 2.352 . S
Cd60 O68 2.277 . S
Cd60 O69 2.356 . S
C61 O66 1.209 . S
C61 O68 1.226 . S
O62 Cd58 2.273 . S
O62 Cd60 2.411 . S
O62 C65 1.320 . S
O63 Cd60 2.333 . S
O63 C65 1.214 . S
O64 Cd60 2.352 . S
O64 C67 1.258 . S
C65 O62 1.320 . S
C65 O63 1.214 . S
O66 Cd58 2.277 . S
O66 C61 1.209 . S
C67 O64 1.258 . S
C67 O69 1.282 . S
O68 Cd60 2.277 . S
O68 C61 1.226 . S
O69 Cd60 2.356 . S
O69 C67 1.282 . S
C70 O71 1.306 . S
C70 O73 1.160 . S
O71 C70 1.306 . S
O71 Cd72 2.228 . S
Cd72 O71 2.228 . S
Cd72 O76 2.273 . S
Cd72 O80 2.277 . S
O73 C70 1.160 . S
O73 Cd74 2.203 . S
Cd74 O73 2.203 . S
Cd74 O76 2.411 . S
Cd74 O77 2.333 . S
Cd74 O78 2.352 . S
Cd74 O82 2.277 . S
Cd74 O83 2.356 . S
C75 O80 1.209 . S
C75 O82 1.226 . S
O76 Cd72 2.273 . S
O76 Cd74 2.411 . S
O76 C79 1.320 . S
O77 Cd74 2.333 . S
O77 C79 1.214 . S
O78 Cd74 2.352 . S
O78 C81 1.258 . S
C79 O76 1.320 . S
C79 O77 1.214 . S
O80 Cd72 2.277 . S
O80 C75 1.209 . S
C81 O78 1.258 . S
C81 O83 1.282 . S
O82 Cd74 2.277 . S
O82 C75 1.226 . S
O83 Cd74 2.356 . S
O83 C81 1.282 . S
C84 O85 1.306 . S
C84 O87 1.160 . S
O85 C84 1.306 . S
O85 Cd86 2.228 . S
Cd86 O85 2.228 . S
Cd86 O90 2.273 . S
Cd86 O94 2.277 . S
O87 C84 1.160 . S
O87 Cd88 2.203 . S
Cd88 O87 2.203 . S
Cd88 O90 2.411 . S
Cd88 O91 2.333 . S
Cd88 O92 2.352 . S
Cd88 O96 2.277 . S
Cd88 O97 2.356 . S
C89 O94 1.209 . S
C89 O96 1.226 . S
O90 Cd86 2.273 . S
O90 Cd88 2.411 . S
O90 C93 1.320 . S
O91 Cd88 2.333 . S
O91 C93 1.214 . S
O92 Cd88 2.352 . S
O92 C95 1.258 . S
C93 O90 1.320 . S
C93 O91 1.214 . S
O94 Cd86 2.277 . S
O94 C89 1.209 . S
C95 O92 1.258 . S
C95 O97 1.282 . S
O96 Cd88 2.277 . S
O96 C89 1.226 . S
O97 Cd88 2.356 . S
O97 C95 1.282 . S
C98 O99 1.306 . S
C98 O101 1.160 . S
O99 C98 1.306 . S
O99 Cd100 2.228 . S
Cd100 O99 2.228 . S
Cd100 O104 2.273 . S
Cd100 O108 2.277 . S
O101 C98 1.160 . S
O101 Cd102 2.203 . S
Cd102 O101 2.203 . S
Cd102 O104 2.411 . S
Cd102 O105 2.333 . S
Cd102 O106 2.352 . S
Cd102 O110 2.277 . S
Cd102 O111 2.356 . S
C103 O108 1.209 . S
C103 O110 1.226 . S
O104 Cd100 2.273 . S
O104 Cd102 2.411 . S
O104 C107 1.320 . S
O105 Cd102 2.333 . S
O105 C107 1.214 . S
O106 Cd102 2.352 . S
O106 C109 1.258 . S
C107 O104 1.320 . S
C107 O105 1.214 . S
O108 Cd100 2.277 . S
O108 C103 1.209 . S
C109 O106 1.258 . S
C109 O111 1.282 . S
O110 Cd102 2.277 . S
O110 C103 1.226 . S
O111 Cd102 2.356 . S
O111 C109 1.282 . S
C112 O113 1.306 . S
C112 O115 1.160 . S
O113 C112 1.306 . S
O113 Cd114 2.228 . S
Cd114 O113 2.228 . S
Cd114 O118 2.273 . S
Cd114 O122 2.277 . S
O115 C112 1.160 . S
O115 Cd116 2.203 . S
Cd116 O115 2.203 . S
Cd116 O118 2.411 . S
Cd116 O119 2.333 . S
Cd116 O120 2.352 . S
Cd116 O124 2.277 . S
Cd116 O125 2.356 . S
C117 O122 1.209 . S
C117 O124 1.226 . S
O118 Cd114 2.273 . S
O118 Cd116 2.411 . S
O118 C121 1.320 . S
O119 Cd116 2.333 . S
O119 C121 1.214 . S
O120 Cd116 2.352 . S
O120 C123 1.258 . S
C121 O118 1.320 . S
C121 O119 1.214 . S
O122 Cd114 2.277 . S
O122 C117 1.209 . S
C123 O120 1.258 . S
C123 O125 1.282 . S
O124 Cd116 2.277 . S
O124 C117 1.226 . S
O125 Cd116 2.356 . S
O125 C123 1.282 . S
C126 O127 1.306 . S
C126 O129 1.160 . S
O127 C126 1.306 . S
O127 Cd128 2.228 . S
Cd128 O127 2.228 . S
Cd128 O132 2.273 . S
Cd128 O136 2.277 . S
O129 C126 1.160 . S
O129 Cd130 2.203 . S
Cd130 O129 2.203 . S
Cd130 O132 2.411 . S
Cd130 O133 2.333 . S
Cd130 O134 2.352 . S
Cd130 O138 2.277 . S
Cd130 O139 2.356 . S
C131 O136 1.209 . S
C131 O138 1.226 . S
O132 Cd128 2.273 . S
O132 Cd130 2.411 . S
O132 C135 1.320 . S
O133 Cd130 2.333 . S
O133 C135 1.214 . S
O134 Cd130 2.352 . S
O134 C137 1.258 . S
C135 O132 1.320 . S
C135 O133 1.214 . S
O136 Cd128 2.277 . S
O136 C131 1.209 . S
C137 O134 1.258 . S
C137 O139 1.282 . S
O138 Cd130 2.277 . S
O138 C131 1.226 . S
O139 Cd130 2.356 . S
O139 C137 1.282 . S
C140 O141 1.306 . S
C140 O143 1.160 . S
O141 C140 1.306 . S
O141 Cd142 2.228 . S
Cd142 O141 2.228 . S
Cd142 O146 2.273 . S
Cd142 O150 2.277 . S
O143 C140 1.160 . S
O143 Cd144 2.203 . S
Cd144 O143 2.203 . S
Cd144 O146 2.411 . S
Cd144 O147 2.333 . S
Cd144 O148 2.352 . S
Cd144 O152 2.277 . S
Cd144 O153 2.356 . S
C145 O150 1.209 . S
C145 O152 1.226 . S
O146 Cd142 2.273 . S
O146 Cd144 2.411 . S
O146 C149 1.320 . S
O147 Cd144 2.333 . S
O147 C149 1.214 . S
O148 Cd144 2.352 . S
O148 C151 1.258 . S
C149 O146 1.320 . S
C149 O147 1.214 . S
O150 Cd142 2.277 . S
O150 C145 1.209 . S
C151 O148 1.258 . S
C151 O153 1.282 . S
O152 Cd144 2.277 . S
O152 C145 1.226 . S
O153 Cd144 2.356 . S
O153 C151 1.282 . S
C154 O155 1.306 . S
C154 O157 1.160 . S
O155 C154 1.306 . S
O155 Cd156 2.228 . S
Cd156 O155 2.228 . S
Cd156 O160 2.273 . S
Cd156 O164 2.277 . S
O157 C154 1.160 . S
O157 Cd158 2.203 . S
Cd158 O157 2.203 . S
Cd158 O160 2.411 . S
Cd158 O161 2.333 . S
Cd158 O162 2.352 . S
Cd158 O166 2.277 . S
Cd158 O167 2.356 . S
C159 O164 1.209 . S
C159 O166 1.226 . S
O160 Cd156 2.273 . S
O160 Cd158 2.411 . S
O160 C163 1.320 . S
O161 Cd158 2.333 . S
O161 C163 1.214 . S
O162 Cd158 2.352 . S
O162 C165 1.258 . S
C163 O160 1.320 . S
C163 O161 1.214 . S
O164 Cd156 2.277 . S
O164 C159 1.209 . S
C165 O162 1.258 . S
C165 O167 1.282 . S
O166 Cd158 2.277 . S
O166 C159 1.226 . S
O167 Cd158 2.356 . S
O167 C165 1.282 . S
C168 O169 1.306 . S
C168 O171 1.160 . S
O169 C168 1.306 . S
O169 Cd170 2.228 . S
Cd170 O169 2.228 . S
Cd170 O174 2.273 . S
Cd170 O178 2.277 . S
O171 C168 1.160 . S
O171 Cd172 2.203 . S
Cd172 O171 2.203 . S
Cd172 O174 2.411 . S
Cd172 O175 2.333 . S
Cd172 O176 2.352 . S
Cd172 O180 2.277 . S
Cd172 O181 2.356 . S
C173 O178 1.209 . S
C173 O180 1.226 . S
O174 Cd170 2.273 . S
O174 Cd172 2.411 . S
O174 C177 1.320 . S
O175 Cd172 2.333 . S
O175 C177 1.214 . S
O176 Cd172 2.352 . S
O176 C179 1.258 . S
C177 O174 1.320 . S
C177 O175 1.214 . S
O178 Cd170 2.277 . S
O178 C173 1.209 . S
C179 O176 1.258 . S
C179 O181 1.282 . S
O180 Cd172 2.277 . S
O180 C173 1.226 . S
O181 Cd172 2.356 . S
O181 C179 1.282 . S
C182 O183 1.306 . S
C182 O185 1.160 . S
O183 C182 1.306 . S
O183 Cd184 2.228 . S
Cd184 O183 2.228 . S
Cd184 O188 2.273 . S
Cd184 O192 2.277 . S
O185 C182 1.160 . S
O185 Cd186 2.203 . S
Cd186 O185 2.203 . S
Cd186 O188 2.411 . S
Cd186 O189 2.333 . S
Cd186 O190 2.352 . S
Cd186 O194 2.277 . S
Cd186 O195 2.356 . S
C187 O192 1.209 . S
C187 O194 1.226 . S
O188 Cd184 2.273 . S
O188 Cd186 2.411 . S
O188 C191 1.320 . S
O189 Cd186 2.333 . S
O189 C191 1.214 . S
O190 Cd186 2.352 . S
O190 C193 1.258 . S
C191 O188 1.320 . S
C191 O189 1.214 . S
O192 Cd184 2.277 . S
O192 C187 1.209 . S
C193 O190 1.258 . S
C193 O195 1.282 . S
O194 Cd186 2.277 . S
O194 C187 1.226 . S
O195 Cd186 2.356 . S
O195 C193 1.282 . S
C196 O197 1.306 . S
C196 O199 1.160 . S
O197 C196 1.306 . S
O197 Cd198 2.228 . S
Cd198 O197 2.228 . S
Cd198 O202 2.273 . S
Cd198 O206 2.277 . S
O199 C196 1.160 . S
O199 Cd200 2.203 . S
Cd200 O199 2.203 . S
Cd200 O202 2.411 . S
Cd200 O203 2.333 . S
Cd200 O204 2.352 . S
Cd200 O208 2.277 . S
Cd200 O209 2.356 . S
C201 O206 1.209 . S
C201 O208 1.226 . S
O202 Cd198 2.273 . S
O202 Cd200 2.411 . S
O202 C205 1.320 . S
O203 Cd200 2.333 . S
O203 C205 1.214 . S
O204 Cd200 2.352 . S
O204 C207 1.258 . S
C205 O202 1.320 . S
C205 O203 1.214 . S
O206 Cd198 2.277 . S
O206 C201 1.209 . S
C207 O204 1.258 . S
C207 O209 1.282 . S
O208 Cd200 2.277 . S
O208 C201 1.226 . S
O209 Cd200 2.356 . S
O209 C207 1.282 . S
C210 O211 1.306 . S
C210 O213 1.160 . S
O211 C210 1.306 . S
O211 Cd212 2.228 . S
Cd212 O211 2.228 . S
Cd212 O216 2.273 . S
Cd212 O220 2.277 . S
O213 C210 1.160 . S
O213 Cd214 2.203 . S
Cd214 O213 2.203 . S
Cd214 O216 2.411 . S
Cd214 O217 2.333 . S
Cd214 O218 2.352 . S
Cd214 O222 2.277 . S
Cd214 O223 2.356 . S
C215 O220 1.209 . S
C215 O222 1.226 . S
O216 Cd212 2.273 . S
O216 Cd214 2.411 . S
O216 C219 1.320 . S
O217 Cd214 2.333 . S
O217 C219 1.214 . S
O218 Cd214 2.352 . S
O218 C221 1.258 . S
C219 O216 1.320 . S
C219 O217 1.214 . S
O220 Cd212 2.277 . S
O220 C215 1.209 . S
C221 O218 1.258 . S
C221 O223 1.282 . S
O222 Cd214 2.277 . S
O222 C215 1.226 . S
O223 Cd214 2.356 . S
O223 C221 1.282 . S
C224 O225 1.306 . S
C224 O227 1.160 . S
O225 C224 1.306 . S
O225 Cd226 2.228 . S
Cd226 O225 2.228 . S
Cd226 O230 2.273 . S
Cd226 O234 2.277 . S
O227 C224 1.160 . S
O227 Cd228 2.203 . S
Cd228 O227 2.203 . S
Cd228 O230 2.411 . S
Cd228 O231 2.333 . S
Cd228 O232 2.352 . S
Cd228 O236 2.277 . S
Cd228 O237 2.356 . S
C229 O234 1.209 . S
C229 O236 1.226 . S
O230 Cd226 2.273 . S
O230 Cd228 2.411 . S
O230 C233 1.320 . S
O231 Cd228 2.333 . S
O231 C233 1.214 . S
O232 Cd228 2.352 . S
O232 C235 1.258 . S
C233 O230 1.320 . S
C233 O231 1.214 . S
O234 Cd226 2.277 . S
O234 C229 1.209 . S
C235 O232 1.258 . S
C235 O237 1.282 . S
O236 Cd228 2.277 . S
O236 C229 1.226 . S
O237 Cd228 2.356 . S
O237 C235 1.282 . S
C238 O239 1.306 . S
C238 O241 1.160 . S
O239 C238 1.306 . S
O239 Cd240 2.228 . S
Cd240 O239 2.228 . S
Cd240 O244 2.273 . S
Cd240 O248 2.277 . S
O241 C238 1.160 . S
O241 Cd242 2.203 . S
Cd242 O241 2.203 . S
Cd242 O244 2.411 . S
Cd242 O245 2.333 . S
Cd242 O246 2.352 . S
Cd242 O250 2.277 . S
Cd242 O251 2.356 . S
C243 O248 1.209 . S
C243 O250 1.226 . S
O244 Cd240 2.273 . S
O244 Cd242 2.411 . S
O244 C247 1.320 . S
O245 Cd242 2.333 . S
O245 C247 1.214 . S
O246 Cd242 2.352 . S
O246 C249 1.258 . S
C247 O244 1.320 . S
C247 O245 1.214 . S
O248 Cd240 2.277 . S
O248 C243 1.209 . S
C249 O246 1.258 . S
C249 O251 1.282 . S
O250 Cd242 2.277 . S
O250 C243 1.226 . S
O251 Cd242 2.356 . S
O251 C249 1.282 . S
C252 O253 1.306 . S
C252 O255 1.160 . S
O253 C252 1.306 . S
O253 Cd254 2.228 . S
Cd254 O253 2.228 . S
Cd254 O258 2.273 . S
Cd254 O262 2.277 . S
O255 C252 1.160 . S
O255 Cd256 2.203 . S
Cd256 O255 2.203 . S
Cd256 O258 2.411 . S
Cd256 O259 2.333 . S
Cd256 O260 2.352 . S
Cd256 O264 2.277 . S
Cd256 O265 2.356 . S
C257 O262 1.209 . S
C257 O264 1.226 . S
O258 Cd254 2.273 . S
O258 Cd256 2.411 . S
O258 C261 1.320 . S
O259 Cd256 2.333 . S
O259 C261 1.214 . S
O260 Cd256 2.352 . S
O260 C263 1.258 . S
C261 O258 1.320 . S
C261 O259 1.214 . S
O262 Cd254 2.277 . S
O262 C257 1.209 . S
C263 O260 1.258 . S
C263 O265 1.282 . S
O264 Cd256 2.277 . S
O264 C257 1.226 . S
O265 Cd256 2.356 . S
O265 C263 1.282 . S
C266 O267 1.306 . S
C266 O269 1.160 . S
O267 C266 1.306 . S
O267 Cd268 2.228 . S
Cd268 O267 2.228 . S
Cd268 O272 2.273 . S
Cd268 O276 2.277 . S
O269 C266 1.160 . S
O269 Cd270 2.203 . S
Cd270 O269 2.203 . S
Cd270 O272 2.411 . S
Cd270 O273 2.333 . S
Cd270 O274 2.352 . S
Cd270 O278 2.277 . S
Cd270 O279 2.356 . S
C271 O276 1.209 . S
C271 O278 1.226 . S
O272 Cd268 2.273 . S
O272 Cd270 2.411 . S
O272 C275 1.320 . S
O273 Cd270 2.333 . S
O273 C275 1.214 . S
O274 Cd270 2.352 . S
O274 C277 1.258 . S
C275 O272 1.320 . S
C275 O273 1.214 . S
O276 Cd268 2.277 . S
O276 C271 1.209 . S
C277 O274 1.258 . S
C277 O279 1.282 . S
O278 Cd270 2.277 . S
O278 C271 1.226 . S
O279 Cd270 2.356 . S
O279 C277 1.282 . S
C280 O281 1.306 . S
C280 O283 1.160 . S
O281 C280 1.306 . S
O281 Cd282 2.228 . S
Cd282 O281 2.228 . S
Cd282 O286 2.273 . S
Cd282 O290 2.277 . S
O283 C280 1.160 . S
O283 Cd284 2.203 . S
Cd284 O283 2.203 . S
Cd284 O286 2.411 . S
Cd284 O287 2.333 . S
Cd284 O288 2.352 . S
Cd284 O292 2.277 . S
Cd284 O293 2.356 . S
C285 O290 1.209 . S
C285 O292 1.226 . S
O286 Cd282 2.273 . S
O286 Cd284 2.411 . S
O286 C289 1.320 . S
O287 Cd284 2.333 . S
O287 C289 1.214 . S
O288 Cd284 2.352 . S
O288 C291 1.258 . S
C289 O286 1.320 . S
C289 O287 1.214 . S
O290 Cd282 2.277 . S
O290 C285 1.209 . S
C291 O288 1.258 . S
C291 O293 1.282 . S
O292 Cd284 2.277 . S
O292 C285 1.226 . S
O293 Cd284 2.356 . S
O293 C291 1.282 . S
C294 O295 1.306 . S
C294 O297 1.160 . S
O295 C294 1.306 . S
O295 Cd296 2.228 . S
Cd296 O295 2.228 . S
Cd296 O300 2.273 . S
Cd296 O304 2.277 . S
O297 C294 1.160 . S
O297 Cd298 2.203 . S
Cd298 O297 2.203 . S
Cd298 O300 2.411 . S
Cd298 O301 2.333 . S
Cd298 O302 2.352 . S
Cd298 O306 2.277 . S
Cd298 O307 2.356 . S
C299 O304 1.209 . S
C299 O306 1.226 . S
O300 Cd296 2.273 . S
O300 Cd298 2.411 . S
O300 C303 1.320 . S
O301 Cd298 2.333 . S
O301 C303 1.214 . S
O302 Cd298 2.352 . S
O302 C305 1.258 . S
C303 O300 1.320 . S
C303 O301 1.214 . S
O304 Cd296 2.277 . S
O304 C299 1.209 . S
C305 O302 1.258 . S
C305 O307 1.282 . S
O306 Cd298 2.277 . S
O306 C299 1.226 . S
O307 Cd298 2.356 . S
O307 C305 1.282 . S
C308 O309 1.306 . S
C308 O311 1.160 . S
O309 C308 1.306 . S
O309 Cd310 2.228 . S
Cd310 O309 2.228 . S
Cd310 O314 2.273 . S
Cd310 O318 2.277 . S
O311 C308 1.160 . S
O311 Cd312 2.203 . S
Cd312 O311 2.203 . S
Cd312 O314 2.411 . S
Cd312 O315 2.333 . S
Cd312 O316 2.352 . S
Cd312 O320 2.277 . S
Cd312 O321 2.356 . S
C313 O318 1.209 . S
C313 O320 1.226 . S
O314 Cd310 2.273 . S
O314 Cd312 2.411 . S
O314 C317 1.320 . S
O315 Cd312 2.333 . S
O315 C317 1.214 . S
O316 Cd312 2.352 . S
O316 C319 1.258 . S
C317 O314 1.320 . S
C317 O315 1.214 . S
O318 Cd310 2.277 . S
O318 C313 1.209 . S
C319 O316 1.258 . S
C319 O321 1.282 . S
O320 Cd312 2.277 . S
O320 C313 1.226 . S
O321 Cd312 2.356 . S
O321 C319 1.282 . S
C322 O323 1.306 . S
C322 O325 1.160 . S
O323 C322 1.306 . S
O323 Cd324 2.228 . S
Cd324 O323 2.228 . S
Cd324 O328 2.273 . S
Cd324 O332 2.277 . S
O325 C322 1.160 . S
O325 Cd326 2.203 . S
Cd326 O325 2.203 . S
Cd326 O328 2.411 . S
Cd326 O329 2.333 . S
Cd326 O330 2.352 . S
Cd326 O334 2.277 . S
Cd326 O335 2.356 . S
C327 O332 1.209 . S
C327 O334 1.226 . S
O328 Cd324 2.273 . S
O328 Cd326 2.411 . S
O328 C331 1.320 . S
O329 Cd326 2.333 . S
O329 C331 1.214 . S
O330 Cd326 2.352 . S
O330 C333 1.258 . S
C331 O328 1.320 . S
C331 O329 1.214 . S
O332 Cd324 2.277 . S
O332 C327 1.209 . S
C333 O330 1.258 . S
C333 O335 1.282 . S
O334 Cd326 2.277 . S
O334 C327 1.226 . S
O335 Cd326 2.356 . S
O335 C333 1.282 . S
C336 O337 1.306 . S
C336 O339 1.160 . S
O337 C336 1.306 . S
O337 Cd338 2.228 . S
Cd338 O337 2.228 . S
Cd338 O342 2.273 . S
Cd338 O346 2.277 . S
O339 C336 1.160 . S
O339 Cd340 2.203 . S
Cd340 O339 2.203 . S
Cd340 O342 2.411 . S
Cd340 O343 2.333 . S
Cd340 O344 2.352 . S
Cd340 O348 2.277 . S
Cd340 O349 2.356 . S
C341 O346 1.209 . S
C341 O348 1.226 . S
O342 Cd338 2.273 . S
O342 Cd340 2.411 . S
O342 C345 1.320 . S
O343 Cd340 2.333 . S
O343 C345 1.214 . S
O344 Cd340 2.352 . S
O344 C347 1.258 . S
C345 O342 1.320 . S
C345 O343 1.214 . S
O346 Cd338 2.277 . S
O346 C341 1.209 . S
C347 O344 1.258 . S
C347 O349 1.282 . S
O348 Cd340 2.277 . S
O348 C341 1.226 . S
O349 Cd340 2.356 . S
O349 C347 1.282 . S
C350 O351 1.306 . S
C350 O353 1.160 . S
O351 C350 1.306 . S
O351 Cd352 2.228 . S
Cd352 O351 2.228 . S
Cd352 O356 2.273 . S
Cd352 O360 2.277 . S
O353 C350 1.160 . S
O353 Cd354 2.203 . S
Cd354 O353 2.203 . S
Cd354 O356 2.411 . S
Cd354 O357 2.333 . S
Cd354 O358 2.352 . S
Cd354 O362 2.277 . S
Cd354 O363 2.356 . S
C355 O360 1.209 . S
C355 O362 1.226 . S
O356 Cd352 2.273 . S
O356 Cd354 2.411 . S
O356 C359 1.320 . S
O357 Cd354 2.333 . S
O357 C359 1.214 . S
O358 Cd354 2.352 . S
O358 C361 1.258 . S
C359 O356 1.320 . S
C359 O357 1.214 . S
O360 Cd352 2.277 . S
O360 C355 1.209 . S
C361 O358 1.258 . S
C361 O363 1.282 . S
O362 Cd354 2.277 . S
O362 C355 1.226 . S
O363 Cd354 2.356 . S
O363 C361 1.282 . S
C364 O365 1.306 . S
C364 O367 1.160 . S
O365 C364 1.306 . S
O365 Cd366 2.228 . S
Cd366 O365 2.228 . S
Cd366 O370 2.273 . S
Cd366 O374 2.277 . S
O367 C364 1.160 . S
O367 Cd368 2.203 . S
Cd368 O367 2.203 . S
Cd368 O370 2.411 . S
Cd368 O371 2.333 . S
Cd368 O372 2.352 . S
Cd368 O376 2.277 . S
Cd368 O377 2.356 . S
C369 O374 1.209 . S
C369 O376 1.226 . S
O370 Cd366 2.273 . S
O370 Cd368 2.411 . S
O370 C373 1.320 . S
O371 Cd368 2.333 . S
O371 C373 1.214 . S
O372 Cd368 2.352 . S
O372 C375 1.258 . S
C373 O370 1.320 . S
C373 O371 1.214 . S
O374 Cd366 2.277 . S
O374 C369 1.209 . S
C375 O372 1.258 . S
C375 O377 1.282 . S
O376 Cd368 2.277 . S
O376 C369 1.226 . S
O377 Cd368 2.356 . S
O377 C375 1.282 . S
C378 O379 1.306 . S
C378 O381 1.160 . S
O379 C378 1.306 . S
O379 Cd380 2.228 . S
Cd380 O379 2.228 . S
Cd380 O384 2.273 . S
Cd380 O388 2.277 . S
O381 C378 1.160 . S
O381 Cd382 2.203 . S
Cd382 O381 2.203 . S
Cd382 O384 2.411 . S
Cd382 O385 2.333 . S
Cd382 O386 2.352 . S
Cd382 O390 2.277 . S
Cd382 O391 2.356 . S
C383 O388 1.209 . S
C383 O390 1.226 . S
O384 Cd380 2.273 . S
O384 Cd382 2.411 . S
O384 C387 1.320 . S
O385 Cd382 2.333 . S
O385 C387 1.214 . S
O386 Cd382 2.352 . S
O386 C389 1.258 . S
C387 O384 1.320 . S
C387 O385 1.214 . S
O388 Cd380 2.277 . S
O388 C383 1.209 . S
C389 O386 1.258 . S
C389 O391 1.282 . S
O390 Cd382 2.277 . S
O390 C383 1.226 . S
O391 Cd382 2.356 . S
O391 C389 1.282 . S
C392 O393 1.306 . S
C392 O395 1.160 . S
O393 C392 1.306 . S
O393 Cd394 2.228 . S
Cd394 O393 2.228 . S
Cd394 O398 2.273 . S
Cd394 O402 2.277 . S
O395 C392 1.160 . S
O395 Cd396 2.203 . S
Cd396 O395 2.203 . S
Cd396 O398 2.411 . S
Cd396 O399 2.333 . S
Cd396 O400 2.352 . S
Cd396 O404 2.277 . S
Cd396 O405 2.356 . S
C397 O402 1.209 . S
C397 O404 1.226 . S
O398 Cd394 2.273 . S
O398 Cd396 2.411 . S
O398 C401 1.320 . S
O399 Cd396 2.333 . S
O399 C401 1.214 . S
O400 Cd396 2.352 . S
O400 C403 1.258 . S
C401 O398 1.320 . S
C401 O399 1.214 . S
O402 Cd394 2.277 . S
O402 C397 1.209 . S
C403 O400 1.258 . S
C403 O405 1.282 . S
O404 Cd396 2.277 . S
O404 C397 1.226 . S
O405 Cd396 2.356 . S
O405 C403 1.282 . S
C406 O407 1.306 . S
C406 O409 1.160 . S
O407 C406 1.306 . S
O407 Cd408 2.228 . S
Cd408 O407 2.228 . S
Cd408 O412 2.273 . S
Cd408 O416 2.277 . S
O409 C406 1.160 . S
O409 Cd410 2.203 . S
Cd410 O409 2.203 . S
Cd410 O412 2.411 . S
Cd410 O413 2.333 . S
Cd410 O414 2.352 . S
Cd410 O418 2.277 . S
Cd410 O419 2.356 . S
C411 O416 1.209 . S
C411 O418 1.226 . S
O412 Cd408 2.273 . S
O412 Cd410 2.411 . S
O412 C415 1.320 . S
O413 Cd410 2.333 . S
O413 C415 1.214 . S
O414 Cd410 2.352 . S
O414 C417 1.258 . S
C415 O412 1.320 . S
C415 O413 1.214 . S
O416 Cd408 2.277 . S
O416 C411 1.209 . S
C417 O414 1.258 . S
C417 O419 1.282 . S
O418 Cd410 2.277 . S
O418 C411 1.226 . S
O419 Cd410 2.356 . S
O419 C417 1.282 . S
C420 O421 1.306 . S
C420 O423 1.160 . S
O421 C420 1.306 . S
O421 Cd422 2.228 . S
Cd422 O421 2.228 . S
Cd422 O426 2.273 . S
Cd422 O430 2.277 . S
O423 C420 1.160 . S
O423 Cd424 2.203 . S
Cd424 O423 2.203 . S
Cd424 O426 2.411 . S
Cd424 O427 2.333 . S
Cd424 O428 2.352 . S
Cd424 O432 2.277 . S
Cd424 O433 2.356 . S
C425 O430 1.209 . S
C425 O432 1.226 . S
O426 Cd422 2.273 . S
O426 Cd424 2.411 . S
O426 C429 1.320 . S
O427 Cd424 2.333 . S
O427 C429 1.214 . S
O428 Cd424 2.352 . S
O428 C431 1.258 . S
C429 O426 1.320 . S
C429 O427 1.214 . S
O430 Cd422 2.277 . S
O430 C425 1.209 . S
C431 O428 1.258 . S
C431 O433 1.282 . S
O432 Cd424 2.277 . S
O432 C425 1.226 . S
O433 Cd424 2.356 . S
O433 C431 1.282 . S
C434 O435 1.306 . S
C434 O437 1.160 . S
O435 C434 1.306 . S
O435 Cd436 2.228 . S
Cd436 O435 2.228 . S
Cd436 O440 2.273 . S
Cd436 O444 2.277 . S
O437 C434 1.160 . S
O437 Cd438 2.203 . S
Cd438 O437 2.203 . S
Cd438 O440 2.411 . S
Cd438 O441 2.333 . S
Cd438 O442 2.352 . S
Cd438 O446 2.277 . S
Cd438 O447 2.356 . S
C439 O444 1.209 . S
C439 O446 1.226 . S
O440 Cd436 2.273 . S
O440 Cd438 2.411 . S
O440 C443 1.320 . S
O441 Cd438 2.333 . S
O441 C443 1.214 . S
O442 Cd438 2.352 . S
O442 C445 1.258 . S
C443 O440 1.320 . S
C443 O441 1.214 . S
O444 Cd436 2.277 . S
O444 C439 1.209 . S
C445 O442 1.258 . S
C445 O447 1.282 . S
O446 Cd438 2.277 . S
O446 C439 1.226 . S
O447 Cd438 2.356 . S
O447 C445 1.282 . S
H448 C460 0.930 . S
H449 C462 0.930 . S
H450 C463 0.930 . S
H451 C467 0.959 . S
H452 C467 0.959 . S
H453 C467 0.961 . S
H454 C468 0.960 . S
H455 C468 0.961 . S
H456 C468 0.959 . S
H457 C471 0.929 . S
H458 C472 0.931 . S
H459 C474 0.930 . S
C460 H448 0.930 . S
C460 C461 1.399 1_545 S
C460 C465 1.399 . S
C461 C460 1.399 1_565 S
C461 C462 1.376 . S
C462 H449 0.930 . S
C462 C461 1.376 . S
C462 C463 1.388 . S
C463 H450 0.930 . S
C463 C462 1.388 . S
C463 C464 1.390 . S
C464 C463 1.390 . S
C464 C465 1.394 1_565 S
C464 C470 1.465 . S
C465 C460 1.399 . S
C465 C464 1.394 1_545 S
C465 C466 1.516 . S
C466 C465 1.516 . S
C466 C467 1.502 . S
C466 C468 1.561 . S
C466 C469 1.526 . S
C467 H451 0.959 . S
C467 H452 0.959 . S
C467 H453 0.961 . S
C467 C466 1.502 . S
C468 H454 0.960 . S
C468 H455 0.961 . S
C468 H456 0.959 . S
C468 C466 1.561 . S
C469 C466 1.526 . S
C469 C470 1.396 1_545 S
C469 C474 1.390 . S
C470 C464 1.465 . S
C470 C469 1.396 1_565 S
C470 C471 1.399 . S
C471 H457 0.929 . S
C471 C470 1.399 . S
C471 C472 1.385 . S
C472 H458 0.931 . S
C472 C471 1.385 . S
C472 C473 1.389 1_565 S
C473 C472 1.389 1_545 S
C473 C474 1.387 . S
C474 H459 0.930 . S
C474 C469 1.390 . S
C474 C473 1.387 . S
H475 C487 0.930 . S
H476 C489 0.930 . S
H477 C490 0.930 . S
H478 C494 0.959 . S
H479 C494 0.959 . S
H480 C494 0.961 . S
H481 C495 0.960 . S
H482 C495 0.961 . S
H483 C495 0.959 . S
H484 C498 0.929 . S
H485 C499 0.931 . S
H486 C501 0.930 . S
C487 H475 0.930 . S
C487 C488 1.399 . S
C487 C492 1.399 . S
C488 C487 1.399 . S
C488 C489 1.376 . S
C489 H476 0.930 . S
C489 C488 1.376 . S
C489 C490 1.388 . S
C490 H477 0.930 . S
C490 C489 1.388 . S
C490 C491 1.390 . S
C491 C490 1.390 . S
C491 C492 1.394 . S
C491 C497 1.465 . S
C492 C487 1.399 . S
C492 C491 1.394 . S
C492 C493 1.516 . S
C493 C492 1.516 . S
C493 C494 1.502 . S
C493 C495 1.561 . S
C493 C496 1.526 . S
C494 H478 0.959 . S
C494 H479 0.959 . S
C494 H480 0.961 . S
C494 C493 1.502 . S
C495 H481 0.960 . S
C495 H482 0.961 . S
C495 H483 0.959 . S
C495 C493 1.561 . S
C496 C493 1.526 . S
C496 C497 1.396 . S
C496 C501 1.390 . S
C497 C491 1.465 . S
C497 C496 1.396 . S
C497 C498 1.399 . S
C498 H484 0.929 . S
C498 C497 1.399 . S
C498 C499 1.385 . S
C499 H485 0.931 . S
C499 C498 1.385 . S
C499 C500 1.389 . S
C500 C499 1.389 . S
C500 C501 1.387 . S
C501 H486 0.930 . S
C501 C496 1.390 . S
C501 C500 1.387 . S
H502 C514 0.930 . S
H503 C516 0.930 . S
H504 C517 0.930 . S
H505 C521 0.959 . S
H506 C521 0.959 . S
H507 C521 0.961 . S
H508 C522 0.960 . S
H509 C522 0.961 . S
H510 C522 0.959 . S
H511 C525 0.929 . S
H512 C526 0.931 . S
H513 C528 0.948 . S
C514 H502 0.930 . S
C514 C515 1.399 . S
C514 C519 1.399 . S
C515 C514 1.399 . S
C515 C516 1.376 1_545 S
C516 H503 0.930 . S
C516 C515 1.376 1_565 S
C516 C517 1.388 . S
C517 H504 0.930 . S
C517 C516 1.388 . S
C517 C518 1.390 . S
C518 C517 1.390 . S
C518 C519 1.394 1_565 S
C518 C524 1.465 . S
C519 C514 1.399 . S
C519 C518 1.394 1_545 S
C519 C520 1.516 . S
C520 C519 1.516 . S
C520 C521 1.502 . S
C520 C522 1.561 . S
C520 C523 1.526 . S
C521 H505 0.959 . S
C521 H506 0.959 . S
C521 H507 0.961 . S
C521 C520 1.502 . S
C522 H508 0.960 . S
C522 H509 0.961 . S
C522 H510 0.959 . S
C522 C520 1.561 . S
C523 C520 1.526 . S
C523 C524 1.396 1_545 S
C523 C528 1.394 . S
C524 C518 1.465 . S
C524 C523 1.396 1_565 S
C524 C525 1.399 . S
C525 H511 0.929 . S
C525 C524 1.399 . S
C525 C526 1.385 . S
C526 H512 0.931 . S
C526 C525 1.385 . S
C526 C527 1.389 . S
C527 C526 1.389 . S
C527 C528 1.365 1_565 S
C528 H513 0.948 . S
C528 C523 1.394 . S
C528 C527 1.365 1_545 S
H529 C541 0.930 . S
H530 C543 0.930 . S
H531 C544 0.930 . S
H532 C548 0.959 . S
H533 C548 0.959 . S
H534 C548 0.961 1_556 S
H535 C549 0.960 . S
H536 C549 0.961 1_554 S
H537 C549 0.959 . S
H538 C552 0.929 . S
H539 C553 0.931 . S
H540 C555 0.930 . S
C541 H529 0.930 . S
C541 C542 1.399 . S
C541 C546 1.399 . S
C542 C541 1.399 . S
C542 C543 1.376 . S
C543 H530 0.930 . S
C543 C542 1.376 . S
C543 C544 1.388 . S
C544 H531 0.930 . S
C544 C543 1.388 . S
C544 C545 1.390 . S
C545 C544 1.390 . S
C545 C546 1.394 . S
C545 C551 1.465 1_556 S
C546 C541 1.399 . S
C546 C545 1.394 . S
C546 C547 1.467 1_556 S
C547 C546 1.467 1_554 S
C547 C548 1.518 . S
C547 C549 1.551 1_554 S
C547 C550 1.572 . S
C548 H532 0.959 . S
C548 H533 0.959 . S
C548 H534 0.961 1_554 S
C548 C547 1.518 . S
C549 H535 0.960 . S
C549 H536 0.961 1_556 S
C549 H537 0.959 . S
C549 C547 1.551 1_556 S
C550 C547 1.572 . S
C550 C551 1.396 . S
C550 C555 1.390 . S
C551 C545 1.465 1_554 S
C551 C550 1.396 . S
C551 C552 1.399 . S
C552 H538 0.929 . S
C552 C551 1.399 . S
C552 C553 1.385 . S
C553 H539 0.931 . S
C553 C552 1.385 . S
C553 C554 1.389 . S
C554 C553 1.389 . S
C554 C555 1.387 . S
C555 H540 0.930 . S
C555 C550 1.390 . S
C555 C554 1.387 . S
H556 C568 0.930 . S
H557 C570 0.923 1_545 S
H558 C571 0.930 . S
H559 C575 0.959 1_545 S
H560 C575 0.959 . S
H561 C575 0.961 . S
H562 C576 0.960 . S
H563 C576 0.961 . S
H564 C576 0.959 . S
H565 C579 0.929 . S
H566 C580 0.931 . S
H567 C582 0.930 1_565 S
C568 H556 0.930 . S
C568 C569 1.399 . S
C568 C573 1.399 . S
C569 C568 1.399 . S
C569 C570 1.397 . S
C570 H557 0.923 1_565 S
C570 C569 1.397 . S
C570 C571 1.377 1_565 S
C571 H558 0.930 . S
C571 C570 1.377 1_545 S
C571 C572 1.390 . S
C572 C571 1.390 . S
C572 C573 1.394 1_545 S
C572 C578 1.465 . S
C573 C568 1.399 . S
C573 C572 1.394 1_565 S
C573 C574 1.516 . S
C574 C573 1.516 . S
C574 C575 1.502 . S
C574 C576 1.561 . S
C574 C577 1.526 . S
C575 H559 0.959 1_565 S
C575 H560 0.959 . S
C575 H561 0.961 . S
C575 C574 1.502 . S
C576 H562 0.960 . S
C576 H563 0.961 . S
C576 H564 0.959 . S
C576 C574 1.561 . S
C577 C574 1.526 . S
C577 C578 1.396 1_565 S
C577 C582 1.390 1_565 S
C578 C572 1.465 . S
C578 C577 1.396 1_545 S
C578 C579 1.399 . S
C579 H565 0.929 . S
C579 C578 1.399 . S
C579 C580 1.385 . S
C580 H566 0.931 . S
C580 C579 1.385 . S
C580 C581 1.389 . S
C581 C580 1.389 . S
C581 C582 1.387 . S
C582 H567 0.930 1_545 S
C582 C577 1.390 1_545 S
C582 C581 1.387 . S
H583 C595 0.930 . S
H584 C597 0.930 . S
H585 C598 0.930 . S
H586 C602 0.959 . S
H587 C602 0.959 . S
H588 C602 0.961 . S
H589 C603 0.960 . S
H590 C603 0.961 . S
H591 C603 0.959 . S
H592 C606 0.929 . S
H593 C607 0.931 . S
H594 C609 0.930 . S
C595 H583 0.930 . S
C595 C596 1.399 . S
C595 C600 1.399 . S
C596 C595 1.399 . S
C596 C597 1.376 . S
C597 H584 0.930 . S
C597 C596 1.376 . S
C597 C598 1.388 . S
C598 H585 0.930 . S
C598 C597 1.388 . S
C598 C599 1.390 . S
C599 C598 1.390 . S
C599 C600 1.394 . S
C599 C605 1.465 . S
C600 C595 1.399 . S
C600 C599 1.394 . S
C600 C601 1.516 . S
C601 C600 1.516 . S
C601 C602 1.502 . S
C601 C603 1.561 . S
C601 C604 1.526 . S
C602 H586 0.959 . S
C602 H587 0.959 . S
C602 H588 0.961 . S
C602 C601 1.502 . S
C603 H589 0.960 . S
C603 H590 0.961 . S
C603 H591 0.959 . S
C603 C601 1.561 . S
C604 C601 1.526 . S
C604 C605 1.396 . S
C604 C609 1.390 . S
C605 C599 1.465 . S
C605 C604 1.396 . S
C605 C606 1.399 . S
C606 H592 0.929 . S
C606 C605 1.399 . S
C606 C607 1.385 . S
C607 H593 0.931 . S
C607 C606 1.385 . S
C607 C608 1.389 . S
C608 C607 1.389 . S
C608 C609 1.387 . S
C609 H594 0.930 . S
C609 C604 1.390 . S
C609 C608 1.387 . S
H610 C622 0.930 . S
H611 C624 0.930 . S
H612 C625 0.930 . S
H613 C629 0.959 . S
H614 C629 0.959 . S
H615 C629 0.961 . S
H616 C630 0.960 . S
H617 C630 0.961 . S
H618 C630 0.959 . S
H619 C633 0.929 . S
H620 C634 0.931 . S
H621 C636 0.930 . S
C622 H610 0.930 . S
C622 C623 1.399 . S
C622 C627 1.399 . S
C623 C622 1.399 . S
C623 C624 1.376 1_545 S
C624 H611 0.930 . S
C624 C623 1.376 1_565 S
C624 C625 1.388 . S
C625 H612 0.930 . S
C625 C624 1.388 . S
C625 C626 1.390 . S
C626 C625 1.390 . S
C626 C627 1.394 1_565 S
C626 C632 1.465 . S
C627 C622 1.399 . S
C627 C626 1.394 1_545 S
C627 C628 1.516 . S
C628 C627 1.516 . S
C628 C629 1.502 . S
C628 C630 1.561 . S
C628 C631 1.526 . S
C629 H613 0.959 . S
C629 H614 0.959 . S
C629 H615 0.961 . S
C629 C628 1.502 . S
C630 H616 0.960 . S
C630 H617 0.961 . S
C630 H618 0.959 . S
C630 C628 1.561 . S
C631 C628 1.526 . S
C631 C632 1.396 1_545 S
C631 C636 1.390 . S
C632 C626 1.465 . S
C632 C631 1.396 1_565 S
C632 C633 1.399 . S
C633 H619 0.929 . S
C633 C632 1.399 . S
C633 C634 1.385 . S
C634 H620 0.931 . S
C634 C633 1.385 . S
C634 C635 1.389 . S
C635 C634 1.389 . S
C635 C636 1.387 1_565 S
C636 H621 0.930 . S
C636 C631 1.390 . S
C636 C635 1.387 1_545 S
H637 C649 0.930 . S
H638 C651 0.930 . S
H639 C652 0.930 . S
H640 C656 0.959 . S
H641 C656 0.959 1_554 S
H642 C656 0.961 . S
H643 C657 0.960 1_556 S
H644 C657 0.961 . S
H645 C657 0.959 . S
H646 C660 0.929 . S
H647 C661 0.931 . S
H648 C663 0.930 . S
C649 H637 0.930 . S
C649 C650 1.399 . S
C649 C654 1.399 . S
C650 C649 1.399 . S
C650 C651 1.376 . S
C651 H638 0.930 . S
C651 C650 1.376 . S
C651 C652 1.388 . S
C652 H639 0.930 . S
C652 C651 1.388 . S
C652 C653 1.390 . S
C653 C652 1.390 . S
C653 C654 1.394 . S
C653 C659 1.465 1_556 S
C654 C649 1.399 . S
C654 C653 1.394 . S
C654 C655 1.516 . S
C655 C654 1.516 . S
C655 C656 1.502 . S
C655 C657 1.561 1_556 S
C655 C658 1.526 1_556 S
C656 H640 0.959 . S
C656 H641 0.959 1_556 S
C656 H642 0.961 . S
C656 C655 1.502 . S
C657 H643 0.960 1_554 S
C657 H644 0.961 . S
C657 H645 0.959 . S
C657 C655 1.561 1_554 S
C658 C655 1.526 1_554 S
C658 C659 1.396 . S
C658 C663 1.390 . S
C659 C653 1.465 1_554 S
C659 C658 1.396 . S
C659 C660 1.399 . S
C660 H646 0.929 . S
C660 C659 1.399 . S
C660 C661 1.385 . S
C661 H647 0.931 . S
C661 C660 1.385 . S
C661 C662 1.389 . S
C662 C661 1.389 . S
C662 C663 1.387 . S
C663 H648 0.930 . S
C663 C658 1.390 . S
C663 C662 1.387 . S
H664 C676 0.930 . S
H665 C678 0.930 . S
H666 C679 0.930 . S
H667 C683 0.959 . S
H668 C683 0.959 . S
H669 C683 0.961 . S
H670 C684 0.960 . S
H671 C684 0.961 . S
H672 C684 0.959 . S
H673 C687 0.929 . S
H674 C688 0.931 . S
H675 C690 0.930 . S
C676 H664 0.930 . S
C676 C677 1.399 . S
C676 C681 1.399 . S
C677 C676 1.399 . S
C677 C678 1.376 . S
C678 H665 0.930 . S
C678 C677 1.376 . S
C678 C679 1.388 . S
C679 H666 0.930 . S
C679 C678 1.388 . S
C679 C680 1.390 . S
C680 C679 1.390 . S
C680 C681 1.394 . S
C680 C686 1.465 . S
C681 C676 1.399 . S
C681 C680 1.394 . S
C681 C682 1.516 . S
C682 C681 1.516 . S
C682 C683 1.502 . S
C682 C684 1.561 . S
C682 C685 1.526 . S
C683 H667 0.959 . S
C683 H668 0.959 . S
C683 H669 0.961 . S
C683 C682 1.502 . S
C684 H670 0.960 . S
C684 H671 0.961 . S
C684 H672 0.959 . S
C684 C682 1.561 . S
C685 C682 1.526 . S
C685 C686 1.396 . S
C685 C690 1.390 . S
C686 C680 1.465 . S
C686 C685 1.396 . S
C686 C687 1.399 . S
C687 H673 0.929 . S
C687 C686 1.399 . S
C687 C688 1.385 . S
C688 H674 0.931 . S
C688 C687 1.385 . S
C688 C689 1.389 . S
C689 C688 1.389 . S
C689 C690 1.387 . S
C690 H675 0.930 . S
C690 C685 1.390 . S
C690 C689 1.387 . S
H691 C703 0.930 . S
H692 C705 0.930 . S
H693 C706 0.930 . S
H694 C710 0.959 . S
H695 C710 0.959 1_556 S
H696 C710 0.961 . S
H697 C711 0.960 1_554 S
H698 C711 0.961 . S
H699 C711 0.959 . S
H700 C714 0.929 . S
H701 C715 0.931 . S
H702 C717 0.930 . S
C703 H691 0.930 . S
C703 C704 1.399 . S
C703 C708 1.399 . S
C704 C703 1.399 . S
C704 C705 1.376 . S
C705 H692 0.930 . S
C705 C704 1.376 . S
C705 C706 1.388 . S
C706 H693 0.930 . S
C706 C705 1.388 . S
C706 C707 1.390 . S
C707 C706 1.390 . S
C707 C708 1.394 . S
C707 C713 1.465 1_554 S
C708 C703 1.399 . S
C708 C707 1.394 . S
C708 C709 1.551 . S
C709 C708 1.551 . S
C709 C710 1.512 . S
C709 C711 1.553 1_554 S
C709 C712 1.489 1_554 S
C710 H694 0.959 . S
C710 H695 0.959 1_554 S
C710 H696 0.961 . S
C710 C709 1.512 . S
C711 H697 0.960 1_556 S
C711 H698 0.961 . S
C711 H699 0.959 . S
C711 C709 1.553 1_556 S
C712 C709 1.489 1_556 S
C712 C713 1.396 . S
C712 C717 1.390 . S
C713 C707 1.465 1_556 S
C713 C712 1.396 . S
C713 C714 1.399 . S
C714 H700 0.929 . S
C714 C713 1.399 . S
C714 C715 1.385 . S
C715 H701 0.931 . S
C715 C714 1.385 . S
C715 C716 1.389 . S
C716 C715 1.389 . S
C716 C717 1.387 . S
C717 H702 0.930 . S
C717 C712 1.390 . S
C717 C716 1.387 . S
H718 C730 0.930 . S
H719 C732 0.930 . S
H720 C733 0.930 . S
H721 C737 0.959 . S
H722 C737 0.959 . S
H723 C737 0.961 . S
H724 C738 0.960 . S
H725 C738 0.961 . S
H726 C738 0.959 . S
H727 C741 0.929 . S
H728 C742 0.931 . S
H729 C744 0.930 . S
C730 H718 0.930 . S
C730 C731 1.399 . S
C730 C735 1.399 . S
C731 C730 1.399 . S
C731 C732 1.376 . S
C732 H719 0.930 . S
C732 C731 1.376 . S
C732 C733 1.388 . S
C733 H720 0.930 . S
C733 C732 1.388 . S
C733 C734 1.390 . S
C734 C733 1.390 . S
C734 C735 1.394 . S
C734 C740 1.465 . S
C735 C730 1.399 . S
C735 C734 1.394 . S
C735 C736 1.516 . S
C736 C735 1.516 . S
C736 C737 1.502 . S
C736 C738 1.561 . S
C736 C739 1.526 . S
C737 H721 0.959 . S
C737 H722 0.959 . S
C737 H723 0.961 . S
C737 C736 1.502 . S
C738 H724 0.960 . S
C738 H725 0.961 . S
C738 H726 0.959 . S
C738 C736 1.561 . S
C739 C736 1.526 . S
C739 C740 1.396 . S
C739 C744 1.390 . S
C740 C734 1.465 . S
C740 C739 1.396 . S
C740 C741 1.399 . S
C741 H727 0.929 . S
C741 C740 1.399 . S
C741 C742 1.385 . S
C742 H728 0.931 . S
C742 C741 1.385 . S
C742 C743 1.389 . S
C743 C742 1.389 . S
C743 C744 1.387 . S
C744 H729 0.930 . S
C744 C739 1.390 . S
C744 C743 1.387 . S
H745 C757 0.930 . S
H746 C759 0.930 . S
H747 C760 0.930 . S
H748 C764 0.959 . S
H749 C764 0.959 . S
H750 C764 0.961 . S
H751 C765 0.960 . S
H752 C765 0.961 . S
H753 C765 0.959 . S
H754 C768 0.929 . S
H755 C769 0.931 . S
H756 C771 0.930 . S
C757 H745 0.930 . S
C757 C758 1.399 . S
C757 C762 1.399 . S
C758 C757 1.399 . S
C758 C759 1.376 . S
C759 H746 0.930 . S
C759 C758 1.376 . S
C759 C760 1.388 . S
C760 H747 0.930 . S
C760 C759 1.388 . S
C760 C761 1.390 . S
C761 C760 1.390 . S
C761 C762 1.394 . S
C761 C767 1.465 . S
C762 C757 1.399 . S
C762 C761 1.394 . S
C762 C763 1.516 . S
C763 C762 1.516 . S
C763 C764 1.502 . S
C763 C765 1.561 . S
C763 C766 1.526 . S
C764 H748 0.959 . S
C764 H749 0.959 . S
C764 H750 0.961 . S
C764 C763 1.502 . S
C765 H751 0.960 . S
C765 H752 0.961 . S
C765 H753 0.959 . S
C765 C763 1.561 . S
C766 C763 1.526 . S
C766 C767 1.396 . S
C766 C771 1.390 . S
C767 C761 1.465 . S
C767 C766 1.396 . S
C767 C768 1.399 . S
C768 H754 0.929 . S
C768 C767 1.399 . S
C768 C769 1.385 . S
C769 H755 0.931 . S
C769 C768 1.385 . S
C769 C770 1.389 . S
C770 C769 1.389 . S
C770 C771 1.387 . S
C771 H756 0.930 . S
C771 C766 1.390 . S
C771 C770 1.387 . S
H772 C784 0.930 . S
H773 C786 0.930 . S
H774 C787 0.930 . S
H775 C791 0.959 . S
H776 C791 0.959 . S
H777 C791 0.961 . S
H778 C792 0.960 . S
H779 C792 0.961 . S
H780 C792 0.959 . S
H781 C795 0.929 . S
H782 C796 0.931 . S
H783 C798 0.930 . S
C784 H772 0.930 . S
C784 C785 1.399 . S
C784 C789 1.399 . S
C785 C784 1.399 . S
C785 C786 1.376 . S
C786 H773 0.930 . S
C786 C785 1.376 . S
C786 C787 1.388 . S
C787 H774 0.930 . S
C787 C786 1.388 . S
C787 C788 1.390 . S
C788 C787 1.390 . S
C788 C789 1.394 . S
C788 C794 1.465 . S
C789 C784 1.399 . S
C789 C788 1.394 . S
C789 C790 1.516 . S
C790 C789 1.516 . S
C790 C791 1.502 . S
C790 C792 1.561 . S
C790 C793 1.526 . S
C791 H775 0.959 . S
C791 H776 0.959 . S
C791 H777 0.961 . S
C791 C790 1.502 . S
C792 H778 0.960 . S
C792 H779 0.961 . S
C792 H780 0.959 . S
C792 C790 1.561 . S
C793 C790 1.526 . S
C793 C794 1.396 . S
C793 C798 1.390 . S
C794 C788 1.465 . S
C794 C793 1.396 . S
C794 C795 1.399 . S
C795 H781 0.929 . S
C795 C794 1.399 . S
C795 C796 1.385 . S
C796 H782 0.931 . S
C796 C795 1.385 . S
C796 C797 1.389 . S
C797 C796 1.389 . S
C797 C798 1.387 . S
C798 H783 0.930 . S
C798 C793 1.390 . S
C798 C797 1.387 . S
H799 C811 0.930 . S
H800 C813 0.930 . S
H801 C814 0.930 . S
H802 C818 0.959 . S
H803 C818 0.959 1_556 S
H804 C818 0.961 . S
H805 C819 0.960 1_554 S
H806 C819 0.961 . S
H807 C819 0.959 . S
H808 C822 0.929 . S
H809 C823 0.931 . S
H810 C825 0.930 . S
C811 H799 0.930 . S
C811 C812 1.399 . S
C811 C816 1.399 . S
C812 C811 1.399 . S
C812 C813 1.376 . S
C813 H800 0.930 . S
C813 C812 1.376 . S
C813 C814 1.388 . S
C814 H801 0.930 . S
C814 C813 1.388 . S
C814 C815 1.390 . S
C815 C814 1.390 . S
C815 C816 1.394 . S
C815 C821 1.465 1_554 S
C816 C811 1.399 . S
C816 C815 1.394 . S
C816 C817 1.539 . S
C817 C816 1.539 . S
C817 C818 1.508 . S
C817 C819 1.555 1_554 S
C817 C820 1.502 1_554 S
C818 H802 0.959 . S
C818 H803 0.959 1_554 S
C818 H804 0.961 . S
C818 C817 1.508 . S
C819 H805 0.960 1_556 S
C819 H806 0.961 . S
C819 H807 0.959 . S
C819 C817 1.555 1_556 S
C820 C817 1.502 1_556 S
C820 C821 1.396 . S
C820 C825 1.390 . S
C821 C815 1.465 1_556 S
C821 C820 1.396 . S
C821 C822 1.399 . S
C822 H808 0.929 . S
C822 C821 1.399 . S
C822 C823 1.385 . S
C823 H809 0.931 . S
C823 C822 1.385 . S
C823 C824 1.389 . S
C824 C823 1.389 . S
C824 C825 1.387 . S
C825 H810 0.930 . S
C825 C820 1.390 . S
C825 C824 1.387 . S
H826 C838 0.930 . S
H827 C840 0.930 . S
H828 C841 0.930 . S
H829 C845 0.959 . S
H830 C845 0.959 . S
H831 C845 0.961 . S
H832 C846 0.960 . S
H833 C846 0.961 . S
H834 C846 0.959 . S
H835 C849 0.929 . S
H836 C850 0.931 . S
H837 C852 0.930 . S
C838 H826 0.930 . S
C838 C839 1.399 . S
C838 C843 1.399 . S
C839 C838 1.399 . S
C839 C840 1.376 . S
C840 H827 0.930 . S
C840 C839 1.376 . S
C840 C841 1.388 . S
C841 H828 0.930 . S
C841 C840 1.388 . S
C841 C842 1.390 . S
C842 C841 1.390 . S
C842 C843 1.394 . S
C842 C848 1.465 . S
C843 C838 1.399 . S
C843 C842 1.394 . S
C843 C844 1.516 . S
C844 C843 1.516 . S
C844 C845 1.502 . S
C844 C846 1.561 . S
C844 C847 1.526 . S
C845 H829 0.959 . S
C845 H830 0.959 . S
C845 H831 0.961 . S
C845 C844 1.502 . S
C846 H832 0.960 . S
C846 H833 0.961 . S
C846 H834 0.959 . S
C846 C844 1.561 . S
C847 C844 1.526 . S
C847 C848 1.396 . S
C847 C852 1.390 . S
C848 C842 1.465 . S
C848 C847 1.396 . S
C848 C849 1.399 . S
C849 H835 0.929 . S
C849 C848 1.399 . S
C849 C850 1.385 . S
C850 H836 0.931 . S
C850 C849 1.385 . S
C850 C851 1.389 . S
C851 C850 1.389 . S
C851 C852 1.387 . S
C852 H837 0.930 . S
C852 C847 1.390 . S
C852 C851 1.387 . S
H853 C865 0.930 . S
H854 C867 0.930 . S
H855 C868 0.930 . S
H856 C872 0.959 . S
H857 C872 0.959 . S
H858 C872 0.961 . S
H859 C873 0.960 . S
H860 C873 0.961 . S
H861 C873 0.959 . S
H862 C876 0.929 . S
H863 C877 0.931 . S
H864 C879 0.930 . S
C865 H853 0.930 . S
C865 C866 1.399 . S
C865 C870 1.399 . S
C866 C865 1.399 . S
C866 C867 1.376 . S
C867 H854 0.930 . S
C867 C866 1.376 . S
C867 C868 1.388 . S
C868 H855 0.930 . S
C868 C867 1.388 . S
C868 C869 1.390 . S
C869 C868 1.390 . S
C869 C870 1.394 . S
C869 C875 1.465 . S
C870 C865 1.399 . S
C870 C869 1.394 . S
C870 C871 1.516 . S
C871 C870 1.516 . S
C871 C872 1.502 . S
C871 C873 1.561 . S
C871 C874 1.526 . S
C872 H856 0.959 . S
C872 H857 0.959 . S
C872 H858 0.961 . S
C872 C871 1.502 . S
C873 H859 0.960 . S
C873 H860 0.961 . S
C873 H861 0.959 . S
C873 C871 1.561 . S
C874 C871 1.526 . S
C874 C875 1.396 . S
C874 C879 1.390 . S
C875 C869 1.465 . S
C875 C874 1.396 . S
C875 C876 1.399 . S
C876 H862 0.929 . S
C876 C875 1.399 . S
C876 C877 1.385 . S
C877 H863 0.931 . S
C877 C876 1.385 . S
C877 C878 1.389 . S
C878 C877 1.389 . S
C878 C879 1.387 . S
C879 H864 0.930 . S
C879 C874 1.390 . S
C879 C878 1.387 . S
H880 C892 0.930 1_545 S
H881 C894 0.930 . S
H882 C895 0.930 . S
H883 C899 0.959 . S
H884 C899 0.959 . S
H885 C899 0.961 1_545 S
H886 C900 0.960 . S
H887 C900 0.961 . S
H888 C900 0.959 . S
H889 C903 0.929 . S
H890 C904 0.931 . S
H891 C906 0.930 . S
C892 H880 0.930 1_565 S
C892 C893 1.399 . S
C892 C897 1.399 . S
C893 C892 1.399 . S
C893 C894 1.376 . S
C894 H881 0.930 . S
C894 C893 1.376 . S
C894 C895 1.388 . S
C895 H882 0.930 . S
C895 C894 1.388 . S
C895 C896 1.390 . S
C896 C895 1.390 . S
C896 C897 1.394 . S
C896 C902 1.465 . S
C897 C892 1.399 . S
C897 C896 1.394 . S
C897 C898 1.516 . S
C898 C897 1.516 . S
C898 C899 1.502 . S
C898 C900 1.561 . S
C898 C901 1.526 . S
C899 H883 0.959 . S
C899 H884 0.959 . S
C899 H885 0.961 1_565 S
C899 C898 1.502 . S
C900 H886 0.960 . S
C900 H887 0.961 . S
C900 H888 0.959 . S
C900 C898 1.561 . S
C901 C898 1.526 . S
C901 C902 1.396 . S
C901 C906 1.390 . S
C902 C896 1.465 . S
C902 C901 1.396 . S
C902 C903 1.399 . S
C903 H889 0.929 . S
C903 C902 1.399 . S
C903 C904 1.385 . S
C904 H890 0.931 . S
C904 C903 1.385 . S
C904 C905 1.389 . S
C905 C904 1.389 . S
C905 C906 1.387 . S
C906 H891 0.930 . S
C906 C901 1.390 . S
C906 C905 1.387 . S
H907 C919 0.930 . S
H908 C921 0.930 . S
H909 C922 0.930 . S
H910 C926 0.959 . S
H911 C926 0.959 1_565 S
H912 C926 0.961 . S
H913 C927 0.960 . S
H914 C927 0.961 . S
H915 C927 0.959 . S
H916 C930 0.929 . S
H917 C931 0.931 . S
H918 C933 0.930 1_565 S
C919 H907 0.930 . S
C919 C920 1.399 . S
C919 C924 1.399 . S
C920 C919 1.399 . S
C920 C921 1.376 . S
C921 H908 0.930 . S
C921 C920 1.376 . S
C921 C922 1.388 . S
C922 H909 0.930 . S
C922 C921 1.388 . S
C922 C923 1.390 . S
C923 C922 1.390 . S
C923 C924 1.394 . S
C923 C929 1.465 . S
C924 C919 1.399 . S
C924 C923 1.394 . S
C924 C925 1.516 . S
C925 C924 1.516 . S
C925 C926 1.502 . S
C925 C927 1.561 . S
C925 C928 1.526 . S
C926 H910 0.959 . S
C926 H911 0.959 1_545 S
C926 H912 0.961 . S
C926 C925 1.502 . S
C927 H913 0.960 . S
C927 H914 0.961 . S
C927 H915 0.959 . S
C927 C925 1.561 . S
C928 C925 1.526 . S
C928 C929 1.396 . S
C928 C933 1.390 . S
C929 C923 1.465 . S
C929 C928 1.396 . S
C929 C930 1.399 . S
C930 H916 0.929 . S
C930 C929 1.399 . S
C930 C931 1.385 . S
C931 H917 0.931 . S
C931 C930 1.385 . S
C931 C932 1.389 . S
C932 C931 1.389 . S
C932 C933 1.387 . S
C933 H918 0.930 1_545 S
C933 C928 1.390 . S
C933 C932 1.387 . S
H934 C946 0.930 . S
H935 C948 0.930 1_565 S
H936 C949 0.930 . S
H937 C953 0.959 . S
H938 C953 0.959 . S
H939 C953 0.961 . S
H940 C954 0.960 . S
H941 C954 0.961 . S
H942 C954 0.959 . S
H943 C957 0.929 . S
H944 C958 0.931 . S
H945 C960 0.930 . S
C946 H934 0.930 . S
C946 C947 1.399 . S
C946 C951 1.399 . S
C947 C946 1.399 . S
C947 C948 1.376 . S
C948 H935 0.930 1_545 S
C948 C947 1.376 . S
C948 C949 1.388 . S
C949 H936 0.930 . S
C949 C948 1.388 . S
C949 C950 1.390 . S
C950 C949 1.390 . S
C950 C951 1.394 . S
C950 C956 1.465 . S
C951 C946 1.399 . S
C951 C950 1.394 . S
C951 C952 1.516 . S
C952 C951 1.516 . S
C952 C953 1.502 . S
C952 C954 1.561 . S
C952 C955 1.526 . S
C953 H937 0.959 . S
C953 H938 0.959 . S
C953 H939 0.961 . S
C953 C952 1.502 . S
C954 H940 0.960 . S
C954 H941 0.961 . S
C954 H942 0.959 . S
C954 C952 1.561 . S
C955 C952 1.526 . S
C955 C956 1.396 . S
C955 C960 1.390 . S
C956 C950 1.465 . S
C956 C955 1.396 . S
C956 C957 1.399 . S
C957 H943 0.929 . S
C957 C956 1.399 . S
C957 C958 1.385 . S
C958 H944 0.931 . S
C958 C957 1.385 . S
C958 C959 1.389 . S
C959 C958 1.389 . S
C959 C960 1.387 . S
C960 H945 0.930 . S
C960 C955 1.390 . S
C960 C959 1.387 . S
H961 C973 0.930 1_545 S
H962 C975 0.930 . S
H963 C976 0.930 . S
H964 C980 0.959 . S
H965 C980 0.959 . S
H966 C980 0.961 . S
H967 C981 0.960 1_545 S
H968 C981 0.961 . S
H969 C981 0.959 . S
H970 C984 0.929 . S
H971 C985 0.931 . S
H972 C987 0.930 . S
C973 H961 0.930 1_565 S
C973 C974 1.399 . S
C973 C978 1.399 . S
C974 C973 1.399 . S
C974 C975 1.376 . S
C975 H962 0.930 . S
C975 C974 1.376 . S
C975 C976 1.388 . S
C976 H963 0.930 . S
C976 C975 1.388 . S
C976 C977 1.390 . S
C977 C976 1.390 . S
C977 C978 1.394 . S
C977 C983 1.465 . S
C978 C973 1.399 . S
C978 C977 1.394 . S
C978 C979 1.516 . S
C979 C978 1.516 . S
C979 C980 1.502 . S
C979 C981 1.561 . S
C979 C982 1.526 . S
C980 H964 0.959 . S
C980 H965 0.959 . S
C980 H966 0.961 . S
C980 C979 1.502 . S
C981 H967 0.960 1_565 S
C981 H968 0.961 . S
C981 H969 0.959 . S
C981 C979 1.561 . S
C982 C979 1.526 . S
C982 C983 1.396 . S
C982 C987 1.390 . S
C983 C977 1.465 . S
C983 C982 1.396 . S
C983 C984 1.399 . S
C984 H970 0.929 . S
C984 C983 1.399 . S
C984 C985 1.385 . S
C985 H971 0.931 . S
C985 C984 1.385 . S
C985 C986 1.389 . S
C986 C985 1.389 . S
C986 C987 1.387 . S
C987 H972 0.930 . S
C987 C982 1.390 . S
C987 C986 1.387 . S
H988 C1000 0.930 . S
H989 C1002 0.930 . S
H990 C1003 0.930 . S
H991 C1007 0.959 . S
H992 C1007 0.959 . S
H993 C1007 0.961 . S
H994 C1008 0.960 . S
H995 C1008 0.961 . S
H996 C1008 0.959 . S
H997 C1011 0.929 . S
H998 C1012 0.931 1_565 S
H999 C1014 0.930 . S
C1000 H988 0.930 . S
C1000 C1001 1.399 . S
C1000 C1005 1.399 . S
C1001 C1000 1.399 . S
C1001 C1002 1.376 . S
C1002 H989 0.930 . S
C1002 C1001 1.376 . S
C1002 C1003 1.388 . S
C1003 H990 0.930 . S
C1003 C1002 1.388 . S
C1003 C1004 1.390 . S
C1004 C1003 1.390 . S
C1004 C1005 1.394 . S
C1004 C1010 1.465 . S
C1005 C1000 1.399 . S
C1005 C1004 1.394 . S
C1005 C1006 1.516 . S
C1006 C1005 1.516 . S
C1006 C1007 1.502 . S
C1006 C1008 1.561 . S
C1006 C1009 1.526 . S
C1007 H991 0.959 . S
C1007 H992 0.959 . S
C1007 H993 0.961 . S
C1007 C1006 1.502 . S
C1008 H994 0.960 . S
C1008 H995 0.961 . S
C1008 H996 0.959 . S
C1008 C1006 1.561 . S
C1009 C1006 1.526 . S
C1009 C1010 1.396 . S
C1009 C1014 1.390 . S
C1010 C1004 1.465 . S
C1010 C1009 1.396 . S
C1010 C1011 1.399 . S
C1011 H997 0.929 . S
C1011 C1010 1.399 . S
C1011 C1012 1.385 . S
C1012 H998 0.931 1_545 S
C1012 C1011 1.385 . S
C1012 C1013 1.389 . S
C1013 C1012 1.389 . S
C1013 C1014 1.387 . S
C1014 H999 0.930 . S
C1014 C1009 1.390 . S
C1014 C1013 1.387 . S
H1015 C1027 0.930 . S
H1016 C1029 0.930 1_545 S
H1017 C1030 0.930 . S
H1018 C1034 0.959 . S
H1019 C1034 0.959 . S
H1020 C1034 0.961 . S
H1021 C1035 0.960 . S
H1022 C1035 0.961 . S
H1023 C1035 0.959 . S
H1024 C1038 0.929 . S
H1025 C1039 0.931 . S
H1026 C1041 0.930 . S
C1027 H1015 0.930 . S
C1027 C1028 1.399 . S
C1027 C1032 1.399 . S
C1028 C1027 1.399 . S
C1028 C1029 1.376 . S
C1029 H1016 0.930 1_565 S
C1029 C1028 1.376 . S
C1029 C1030 1.388 . S
C1030 H1017 0.930 . S
C1030 C1029 1.388 . S
C1030 C1031 1.390 . S
C1031 C1030 1.390 . S
C1031 C1032 1.394 . S
C1031 C1037 1.465 . S
C1032 C1027 1.399 . S
C1032 C1031 1.394 . S
C1032 C1033 1.516 . S
C1033 C1032 1.516 . S
C1033 C1034 1.502 . S
C1033 C1035 1.561 . S
C1033 C1036 1.526 . S
C1034 H1018 0.959 . S
C1034 H1019 0.959 . S
C1034 H1020 0.961 . S
C1034 C1033 1.502 . S
C1035 H1021 0.960 . S
C1035 H1022 0.961 . S
C1035 H1023 0.959 . S
C1035 C1033 1.561 . S
C1036 C1033 1.526 . S
C1036 C1037 1.396 . S
C1036 C1041 1.390 . S
C1037 C1031 1.465 . S
C1037 C1036 1.396 . S
C1037 C1038 1.399 . S
C1038 H1024 0.929 . S
C1038 C1037 1.399 . S
C1038 C1039 1.385 . S
C1039 H1025 0.931 . S
C1039 C1038 1.385 . S
C1039 C1040 1.389 . S
C1040 C1039 1.389 . S
C1040 C1041 1.387 . S
C1041 H1026 0.930 . S
C1041 C1036 1.390 . S
C1041 C1040 1.387 . S
H1042 C1054 0.930 . S
H1043 C1056 0.930 . S
H1044 C1057 0.930 . S
H1045 C1061 0.959 . S
H1046 C1061 0.959 1_545 S
H1047 C1061 0.961 . S
H1048 C1062 0.960 . S
H1049 C1062 0.961 1_545 S
H1050 C1062 0.959 . S
H1051 C1065 0.929 . S
H1052 C1066 0.931 . S
H1053 C1068 0.930 1_545 S
C1054 H1042 0.930 . S
C1054 C1055 1.399 . S
C1054 C1059 1.399 . S
C1055 C1054 1.399 . S
C1055 C1056 1.376 . S
C1056 H1043 0.930 . S
C1056 C1055 1.376 . S
C1056 C1057 1.388 . S
C1057 H1044 0.930 . S
C1057 C1056 1.388 . S
C1057 C1058 1.390 . S
C1058 C1057 1.390 . S
C1058 C1059 1.394 . S
C1058 C1064 1.465 . S
C1059 C1054 1.399 . S
C1059 C1058 1.394 . S
C1059 C1060 1.516 . S
C1060 C1059 1.516 . S
C1060 C1061 1.502 . S
C1060 C1062 1.561 . S
C1060 C1063 1.526 . S
C1061 H1045 0.959 . S
C1061 H1046 0.959 1_565 S
C1061 H1047 0.961 . S
C1061 C1060 1.502 . S
C1062 H1048 0.960 . S
C1062 H1049 0.961 1_565 S
C1062 H1050 0.959 . S
C1062 C1060 1.561 . S
C1063 C1060 1.526 . S
C1063 C1064 1.396 . S
C1063 C1068 1.390 . S
C1064 C1058 1.465 . S
C1064 C1063 1.396 . S
C1064 C1065 1.399 . S
C1065 H1051 0.929 . S
C1065 C1064 1.399 . S
C1065 C1066 1.385 . S
C1066 H1052 0.931 . S
C1066 C1065 1.385 . S
C1066 C1067 1.389 . S
C1067 C1066 1.389 . S
C1067 C1068 1.387 . S
C1068 H1053 0.930 1_565 S
C1068 C1063 1.390 . S
C1068 C1067 1.387 . S
H1069 C1081 0.930 . S
H1070 C1083 0.930 . S
H1071 C1084 0.930 . S
H1072 C1088 0.959 . S
H1073 C1088 0.959 1_565 S
H1074 C1088 0.961 . S
H1075 C1089 0.960 . S
H1076 C1089 0.961 . S
H1077 C1089 0.959 . S
H1078 C1092 0.929 . S
H1079 C1093 0.931 . S
H1080 C1095 0.930 1_565 S
C1081 H1069 0.930 . S
C1081 C1082 1.399 . S
C1081 C1086 1.399 . S
C1082 C1081 1.399 . S
C1082 C1083 1.376 . S
C1083 H1070 0.930 . S
C1083 C1082 1.376 . S
C1083 C1084 1.388 . S
C1084 H1071 0.930 . S
C1084 C1083 1.388 . S
C1084 C1085 1.390 . S
C1085 C1084 1.390 . S
C1085 C1086 1.394 . S
C1085 C1091 1.465 . S
C1086 C1081 1.399 . S
C1086 C1085 1.394 . S
C1086 C1087 1.516 . S
C1087 C1086 1.516 . S
C1087 C1088 1.502 . S
C1087 C1089 1.561 . S
C1087 C1090 1.526 . S
C1088 H1072 0.959 . S
C1088 H1073 0.959 1_545 S
C1088 H1074 0.961 . S
C1088 C1087 1.502 . S
C1089 H1075 0.960 . S
C1089 H1076 0.961 . S
C1089 H1077 0.959 . S
C1089 C1087 1.561 . S
C1090 C1087 1.526 . S
C1090 C1091 1.396 . S
C1090 C1095 1.390 . S
C1091 C1085 1.465 . S
C1091 C1090 1.396 . S
C1091 C1092 1.399 . S
C1092 H1078 0.929 . S
C1092 C1091 1.399 . S
C1092 C1093 1.385 . S
C1093 H1079 0.931 . S
C1093 C1092 1.385 . S
C1093 C1094 1.389 . S
C1094 C1093 1.389 . S
C1094 C1095 1.387 . S
C1095 H1080 0.930 1_545 S
C1095 C1090 1.390 . S
C1095 C1094 1.387 . S
H1096 C1108 0.930 . S
H1097 C1110 0.930 . S
H1098 C1111 0.930 . S
H1099 C1115 0.959 . S
H1100 C1115 0.959 . S
H1101 C1115 0.961 . S
H1102 C1116 0.960 . S
H1103 C1116 0.961 . S
H1104 C1116 0.959 . S
H1105 C1119 0.929 . S
H1106 C1120 0.931 . S
H1107 C1122 0.930 . S
C1108 H1096 0.930 . S
C1108 C1109 1.399 . S
C1108 C1113 1.399 . S
C1109 C1108 1.399 . S
C1109 C1110 1.376 . S
C1110 H1097 0.930 . S
C1110 C1109 1.376 . S
C1110 C1111 1.388 . S
C1111 H1098 0.930 . S
C1111 C1110 1.388 . S
C1111 C1112 1.390 . S
C1112 C1111 1.390 . S
C1112 C1113 1.394 . S
C1112 C1118 1.465 . S
C1113 C1108 1.399 . S
C1113 C1112 1.394 . S
C1113 C1114 1.516 . S
C1114 C1113 1.516 . S
C1114 C1115 1.502 . S
C1114 C1116 1.561 . S
C1114 C1117 1.526 . S
C1115 H1099 0.959 . S
C1115 H1100 0.959 . S
C1115 H1101 0.961 . S
C1115 C1114 1.502 . S
C1116 H1102 0.960 . S
C1116 H1103 0.961 . S
C1116 H1104 0.959 . S
C1116 C1114 1.561 . S
C1117 C1114 1.526 . S
C1117 C1118 1.396 . S
C1117 C1122 1.390 . S
C1118 C1112 1.465 . S
C1118 C1117 1.396 . S
C1118 C1119 1.399 . S
C1119 H1105 0.929 . S
C1119 C1118 1.399 . S
C1119 C1120 1.385 . S
C1120 H1106 0.931 . S
C1120 C1119 1.385 . S
C1120 C1121 1.389 . S
C1121 C1120 1.389 . S
C1121 C1122 1.387 . S
C1122 H1107 0.930 . S
C1122 C1117 1.390 . S
C1122 C1121 1.387 . S
H1123 C1135 0.930 . S
H1124 C1137 0.930 . S
H1125 C1138 0.930 . S
H1126 C1142 0.959 . S
H1127 C1142 0.959 . S
H1128 C1142 0.961 . S
H1129 C1143 0.960 . S
H1130 C1143 0.961 . S
H1131 C1143 0.959 . S
H1132 C1146 0.929 . S
H1133 C1147 0.931 . S
H1134 C1149 0.930 . S
C1135 H1123 0.930 . S
C1135 C1136 1.399 . S
C1135 C1140 1.399 . S
C1136 C1135 1.399 . S
C1136 C1137 1.376 . S
C1137 H1124 0.930 . S
C1137 C1136 1.376 . S
C1137 C1138 1.388 . S
C1138 H1125 0.930 . S
C1138 C1137 1.388 . S
C1138 C1139 1.390 . S
C1139 C1138 1.390 . S
C1139 C1140 1.394 . S
C1139 C1145 1.465 . S
C1140 C1135 1.399 . S
C1140 C1139 1.394 . S
C1140 C1141 1.516 . S
C1141 C1140 1.516 . S
C1141 C1142 1.502 . S
C1141 C1143 1.561 . S
C1141 C1144 1.526 . S
C1142 H1126 0.959 . S
C1142 H1127 0.959 . S
C1142 H1128 0.961 . S
C1142 C1141 1.502 . S
C1143 H1129 0.960 . S
C1143 H1130 0.961 . S
C1143 H1131 0.959 . S
C1143 C1141 1.561 . S
C1144 C1141 1.526 . S
C1144 C1145 1.396 . S
C1144 C1149 1.390 . S
C1145 C1139 1.465 . S
C1145 C1144 1.396 . S
C1145 C1146 1.399 . S
C1146 H1132 0.929 . S
C1146 C1145 1.399 . S
C1146 C1147 1.385 . S
C1147 H1133 0.931 . S
C1147 C1146 1.385 . S
C1147 C1148 1.389 . S
C1148 C1147 1.389 . S
C1148 C1149 1.387 . S
C1149 H1134 0.930 . S
C1149 C1144 1.390 . S
C1149 C1148 1.387 . S
H1150 C1162 0.930 . S
H1151 C1164 0.930 . S
H1152 C1165 0.930 . S
H1153 C1169 0.959 . S
H1154 C1169 0.959 . S
H1155 C1169 0.961 . S
H1156 C1170 0.960 . S
H1157 C1170 0.961 . S
H1158 C1170 0.959 . S
H1159 C1173 0.929 . S
H1160 C1174 0.931 . S
H1161 C1176 0.930 . S
C1162 H1150 0.930 . S
C1162 C1163 1.399 . S
C1162 C1167 1.399 . S
C1163 C1162 1.399 . S
C1163 C1164 1.376 . S
C1164 H1151 0.930 . S
C1164 C1163 1.376 . S
C1164 C1165 1.388 . S
C1165 H1152 0.930 . S
C1165 C1164 1.388 . S
C1165 C1166 1.390 . S
C1166 C1165 1.390 . S
C1166 C1167 1.394 . S
C1166 C1172 1.465 . S
C1167 C1162 1.399 . S
C1167 C1166 1.394 . S
C1167 C1168 1.516 . S
C1168 C1167 1.516 . S
C1168 C1169 1.502 . S
C1168 C1170 1.561 . S
C1168 C1171 1.526 . S
C1169 H1153 0.959 . S
C1169 H1154 0.959 . S
C1169 H1155 0.961 . S
C1169 C1168 1.502 . S
C1170 H1156 0.960 . S
C1170 H1157 0.961 . S
C1170 H1158 0.959 . S
C1170 C1168 1.561 . S
C1171 C1168 1.526 . S
C1171 C1172 1.396 . S
C1171 C1176 1.390 . S
C1172 C1166 1.465 . S
C1172 C1171 1.396 . S
C1172 C1173 1.399 . S
C1173 H1159 0.929 . S
C1173 C1172 1.399 . S
C1173 C1174 1.385 . S
C1174 H1160 0.931 . S
C1174 C1173 1.385 . S
C1174 C1175 1.389 . S
C1175 C1174 1.389 . S
C1175 C1176 1.387 . S
C1176 H1161 0.930 . S
C1176 C1171 1.390 . S
C1176 C1175 1.387 . S
H1177 C1189 0.930 . S
H1178 C1191 0.930 . S
H1179 C1192 0.930 . S
H1180 C1196 0.959 . S
H1181 C1196 0.959 . S
H1182 C1196 0.961 . S
H1183 C1197 0.960 . S
H1184 C1197 0.961 . S
H1185 C1197 0.959 . S
H1186 C1200 0.929 . S
H1187 C1201 0.931 . S
H1188 C1203 0.930 . S
C1189 H1177 0.930 . S
C1189 C1190 1.399 . S
C1189 C1194 1.399 . S
C1190 C1189 1.399 . S
C1190 C1191 1.376 . S
C1191 H1178 0.930 . S
C1191 C1190 1.376 . S
C1191 C1192 1.388 . S
C1192 H1179 0.930 . S
C1192 C1191 1.388 . S
C1192 C1193 1.390 . S
C1193 C1192 1.390 . S
C1193 C1194 1.394 . S
C1193 C1199 1.465 . S
C1194 C1189 1.399 . S
C1194 C1193 1.394 . S
C1194 C1195 1.516 . S
C1195 C1194 1.516 . S
C1195 C1196 1.502 . S
C1195 C1197 1.561 . S
C1195 C1198 1.526 . S
C1196 H1180 0.959 . S
C1196 H1181 0.959 . S
C1196 H1182 0.961 . S
C1196 C1195 1.502 . S
C1197 H1183 0.960 . S
C1197 H1184 0.961 . S
C1197 H1185 0.959 . S
C1197 C1195 1.561 . S
C1198 C1195 1.526 . S
C1198 C1199 1.396 . S
C1198 C1203 1.390 . S
C1199 C1193 1.465 . S
C1199 C1198 1.396 . S
C1199 C1200 1.399 . S
C1200 H1186 0.929 . S
C1200 C1199 1.399 . S
C1200 C1201 1.385 . S
C1201 H1187 0.931 . S
C1201 C1200 1.385 . S
C1201 C1202 1.389 . S
C1202 C1201 1.389 . S
C1202 C1203 1.387 . S
C1203 H1188 0.930 . S
C1203 C1198 1.390 . S
C1203 C1202 1.387 . S
H1204 C1216 0.930 . S
H1205 C1218 0.930 . S
H1206 C1219 0.930 . S
H1207 C1223 0.959 . S
H1208 C1223 0.959 . S
H1209 C1223 0.961 . S
H1210 C1224 0.960 . S
H1211 C1224 0.961 . S
H1212 C1224 0.959 . S
H1213 C1227 0.929 . S
H1214 C1228 0.931 . S
H1215 C1230 0.930 . S
C1216 H1204 0.930 . S
C1216 C1217 1.399 . S
C1216 C1221 1.399 . S
C1217 C1216 1.399 . S
C1217 C1218 1.376 . S
C1218 H1205 0.930 . S
C1218 C1217 1.376 . S
C1218 C1219 1.388 . S
C1219 H1206 0.930 . S
C1219 C1218 1.388 . S
C1219 C1220 1.390 . S
C1220 C1219 1.390 . S
C1220 C1221 1.394 . S
C1220 C1226 1.465 . S
C1221 C1216 1.399 . S
C1221 C1220 1.394 . S
C1221 C1222 1.516 . S
C1222 C1221 1.516 . S
C1222 C1223 1.502 . S
C1222 C1224 1.561 . S
C1222 C1225 1.526 . S
C1223 H1207 0.959 . S
C1223 H1208 0.959 . S
C1223 H1209 0.961 . S
C1223 C1222 1.502 . S
C1224 H1210 0.960 . S
C1224 H1211 0.961 . S
C1224 H1212 0.959 . S
C1224 C1222 1.561 . S
C1225 C1222 1.526 . S
C1225 C1226 1.396 . S
C1225 C1230 1.390 . S
C1226 C1220 1.465 . S
C1226 C1225 1.396 . S
C1226 C1227 1.399 . S
C1227 H1213 0.929 . S
C1227 C1226 1.399 . S
C1227 C1228 1.385 . S
C1228 H1214 0.931 . S
C1228 C1227 1.385 . S
C1228 C1229 1.389 . S
C1229 C1228 1.389 . S
C1229 C1230 1.387 . S
C1230 H1215 0.930 . S
C1230 C1225 1.390 . S
C1230 C1229 1.387 . S
H1231 C1243 0.930 . S
H1232 C1245 0.930 . S
H1233 C1246 0.930 . S
H1234 C1250 0.959 . S
H1235 C1250 0.959 . S
H1236 C1250 0.961 . S
H1237 C1251 0.960 . S
H1238 C1251 0.961 . S
H1239 C1251 0.959 . S
H1240 C1254 0.929 . S
H1241 C1255 0.931 . S
H1242 C1257 0.930 . S
C1243 H1231 0.930 . S
C1243 C1244 1.399 . S
C1243 C1248 1.399 . S
C1244 C1243 1.399 . S
C1244 C1245 1.376 . S
C1245 H1232 0.930 . S
C1245 C1244 1.376 . S
C1245 C1246 1.388 . S
C1246 H1233 0.930 . S
C1246 C1245 1.388 . S
C1246 C1247 1.390 . S
C1247 C1246 1.390 . S
C1247 C1248 1.394 . S
C1247 C1253 1.465 . S
C1248 C1243 1.399 . S
C1248 C1247 1.394 . S
C1248 C1249 1.516 . S
C1249 C1248 1.516 . S
C1249 C1250 1.502 . S
C1249 C1251 1.561 . S
C1249 C1252 1.526 . S
C1250 H1234 0.959 . S
C1250 H1235 0.959 . S
C1250 H1236 0.961 . S
C1250 C1249 1.502 . S
C1251 H1237 0.960 . S
C1251 H1238 0.961 . S
C1251 H1239 0.959 . S
C1251 C1249 1.561 . S
C1252 C1249 1.526 . S
C1252 C1253 1.396 . S
C1252 C1257 1.390 . S
C1253 C1247 1.465 . S
C1253 C1252 1.396 . S
C1253 C1254 1.399 . S
C1254 H1240 0.929 . S
C1254 C1253 1.399 . S
C1254 C1255 1.385 . S
C1255 H1241 0.931 . S
C1255 C1254 1.385 . S
C1255 C1256 1.389 . S
C1256 C1255 1.389 . S
C1256 C1257 1.387 . S
C1257 H1242 0.930 . S
C1257 C1252 1.390 . S
C1257 C1256 1.387 . S
H1258 C1270 0.930 . S
H1259 C1272 0.930 . S
H1260 C1273 0.930 . S
H1261 C1277 0.959 . S
H1262 C1277 0.959 . S
H1263 C1277 0.961 . S
H1264 C1278 0.960 . S
H1265 C1278 0.961 . S
H1266 C1278 0.959 . S
H1267 C1281 0.929 . S
H1268 C1282 0.931 . S
H1269 C1284 0.930 . S
C1270 H1258 0.930 . S
C1270 C1271 1.399 . S
C1270 C1275 1.399 . S
C1271 C1270 1.399 . S
C1271 C1272 1.376 . S
C1272 H1259 0.930 . S
C1272 C1271 1.376 . S
C1272 C1273 1.388 . S
C1273 H1260 0.930 . S
C1273 C1272 1.388 . S
C1273 C1274 1.390 . S
C1274 C1273 1.390 . S
C1274 C1275 1.394 . S
C1274 C1280 1.465 . S
C1275 C1270 1.399 . S
C1275 C1274 1.394 . S
C1275 C1276 1.516 . S
C1276 C1275 1.516 . S
C1276 C1277 1.502 . S
C1276 C1278 1.561 . S
C1276 C1279 1.526 . S
C1277 H1261 0.959 . S
C1277 H1262 0.959 . S
C1277 H1263 0.961 . S
C1277 C1276 1.502 . S
C1278 H1264 0.960 . S
C1278 H1265 0.961 . S
C1278 H1266 0.959 . S
C1278 C1276 1.561 . S
C1279 C1276 1.526 . S
C1279 C1280 1.396 . S
C1279 C1284 1.390 . S
C1280 C1274 1.465 . S
C1280 C1279 1.396 . S
C1280 C1281 1.399 . S
C1281 H1267 0.929 . S
C1281 C1280 1.399 . S
C1281 C1282 1.385 . S
C1282 H1268 0.931 . S
C1282 C1281 1.385 . S
C1282 C1283 1.389 . S
C1283 C1282 1.389 . S
C1283 C1284 1.387 . S
C1284 H1269 0.930 . S
C1284 C1279 1.390 . S
C1284 C1283 1.387 . S
H1285 C1297 0.930 . S
H1286 C1299 0.930 . S
H1287 C1300 0.930 . S
H1288 C1304 0.959 . S
H1289 C1304 0.959 . S
H1290 C1304 0.961 . S
H1291 C1305 0.960 . S
H1292 C1305 0.961 . S
H1293 C1305 0.959 . S
H1294 C1308 0.929 . S
H1295 C1309 0.931 . S
H1296 C1311 0.930 . S
C1297 H1285 0.930 . S
C1297 C1298 1.399 . S
C1297 C1302 1.399 . S
C1298 C1297 1.399 . S
C1298 C1299 1.376 . S
C1299 H1286 0.930 . S
C1299 C1298 1.376 . S
C1299 C1300 1.388 . S
C1300 H1287 0.930 . S
C1300 C1299 1.388 . S
C1300 C1301 1.390 . S
C1301 C1300 1.390 . S
C1301 C1302 1.394 . S
C1301 C1307 1.465 . S
C1302 C1297 1.399 . S
C1302 C1301 1.394 . S
C1302 C1303 1.516 . S
C1303 C1302 1.516 . S
C1303 C1304 1.502 . S
C1303 C1305 1.561 . S
C1303 C1306 1.526 . S
C1304 H1288 0.959 . S
C1304 H1289 0.959 . S
C1304 H1290 0.961 . S
C1304 C1303 1.502 . S
C1305 H1291 0.960 . S
C1305 H1292 0.961 . S
C1305 H1293 0.959 . S
C1305 C1303 1.561 . S
C1306 C1303 1.526 . S
C1306 C1307 1.396 . S
C1306 C1311 1.390 . S
C1307 C1301 1.465 . S
C1307 C1306 1.396 . S
C1307 C1308 1.399 . S
C1308 H1294 0.929 . S
C1308 C1307 1.399 . S
C1308 C1309 1.385 . S
C1309 H1295 0.931 . S
C1309 C1308 1.385 . S
C1309 C1310 1.389 . S
C1310 C1309 1.389 . S
C1310 C1311 1.387 . S
C1311 H1296 0.930 . S
C1311 C1306 1.390 . S
C1311 C1310 1.387 . S
H1312 C1324 0.930 . S
H1313 C1326 0.930 . S
H1314 C1327 0.930 . S
H1315 C1331 0.959 . S
H1316 C1331 0.959 . S
H1317 C1331 0.961 . S
H1318 C1332 0.960 . S
H1319 C1332 0.961 . S
H1320 C1332 0.959 . S
H1321 C1335 0.929 . S
H1322 C1336 0.931 . S
H1323 C1338 0.930 . S
C1324 H1312 0.930 . S
C1324 C1325 1.399 . S
C1324 C1329 1.399 . S
C1325 C1324 1.399 . S
C1325 C1326 1.376 . S
C1326 H1313 0.930 . S
C1326 C1325 1.376 . S
C1326 C1327 1.388 . S
C1327 H1314 0.930 . S
C1327 C1326 1.388 . S
C1327 C1328 1.390 . S
C1328 C1327 1.390 . S
C1328 C1329 1.394 . S
C1328 C1334 1.465 . S
C1329 C1324 1.399 . S
C1329 C1328 1.394 . S
C1329 C1330 1.516 . S
C1330 C1329 1.516 . S
C1330 C1331 1.502 . S
C1330 C1332 1.561 . S
C1330 C1333 1.526 . S
C1331 H1315 0.959 . S
C1331 H1316 0.959 . S
C1331 H1317 0.961 . S
C1331 C1330 1.502 . S
C1332 H1318 0.960 . S
C1332 H1319 0.961 . S
C1332 H1320 0.959 . S
C1332 C1330 1.561 . S
C1333 C1330 1.526 . S
C1333 C1334 1.396 . S
C1333 C1338 1.390 . S
C1334 C1328 1.465 . S
C1334 C1333 1.396 . S
C1334 C1335 1.399 . S
C1335 H1321 0.929 . S
C1335 C1334 1.399 . S
C1335 C1336 1.385 . S
C1336 H1322 0.931 . S
C1336 C1335 1.385 . S
C1336 C1337 1.389 . S
C1337 C1336 1.389 . S
C1337 C1338 1.387 . S
C1338 H1323 0.930 . S
C1338 C1333 1.390 . S
C1338 C1337 1.387 . S
H1339 C1351 0.930 . S
H1340 C1353 0.930 . S
H1341 C1354 0.930 . S
H1342 C1358 0.959 . S
H1343 C1358 0.959 . S
H1344 C1358 0.961 . S
H1345 C1359 0.960 . S
H1346 C1359 0.961 . S
H1347 C1359 0.959 . S
H1348 C1362 0.929 . S
H1349 C1363 0.931 . S
H1350 C1365 0.930 . S
C1351 H1339 0.930 . S
C1351 C1352 1.399 . S
C1351 C1356 1.399 . S
C1352 C1351 1.399 . S
C1352 C1353 1.376 . S
C1353 H1340 0.930 . S
C1353 C1352 1.376 . S
C1353 C1354 1.388 . S
C1354 H1341 0.930 . S
C1354 C1353 1.388 . S
C1354 C1355 1.390 . S
C1355 C1354 1.390 . S
C1355 C1356 1.394 . S
C1355 C1361 1.465 . S
C1356 C1351 1.399 . S
C1356 C1355 1.394 . S
C1356 C1357 1.516 . S
C1357 C1356 1.516 . S
C1357 C1358 1.502 . S
C1357 C1359 1.561 . S
C1357 C1360 1.526 . S
C1358 H1342 0.959 . S
C1358 H1343 0.959 . S
C1358 H1344 0.961 . S
C1358 C1357 1.502 . S
C1359 H1345 0.960 . S
C1359 H1346 0.961 . S
C1359 H1347 0.959 . S
C1359 C1357 1.561 . S
C1360 C1357 1.526 . S
C1360 C1361 1.396 . S
C1360 C1365 1.390 . S
C1361 C1355 1.465 . S
C1361 C1360 1.396 . S
C1361 C1362 1.399 . S
C1362 H1348 0.929 . S
C1362 C1361 1.399 . S
C1362 C1363 1.385 1_455 S
C1363 H1349 0.931 . S
C1363 C1362 1.385 1_655 S
C1363 C1364 1.389 . S
C1364 C1363 1.389 . S
C1364 C1365 1.387 1_655 S
C1365 H1350 0.930 . S
C1365 C1360 1.390 . S
C1365 C1364 1.387 1_455 S
H1366 C1378 0.930 . S
H1367 C1380 0.930 . S
H1368 C1381 0.930 . S
H1369 C1385 0.959 . S
H1370 C1385 0.959 . S
H1371 C1385 0.961 . S
H1372 C1386 0.960 . S
H1373 C1386 0.961 . S
H1374 C1386 0.959 . S
H1375 C1389 0.929 . S
H1376 C1390 0.931 . S
H1377 C1392 0.930 . S
C1378 H1366 0.930 . S
C1378 C1379 1.399 . S
C1378 C1383 1.399 . S
C1379 C1378 1.399 . S
C1379 C1380 1.376 . S
C1380 H1367 0.930 . S
C1380 C1379 1.376 . S
C1380 C1381 1.388 . S
C1381 H1368 0.930 . S
C1381 C1380 1.388 . S
C1381 C1382 1.390 . S
C1382 C1381 1.390 . S
C1382 C1383 1.394 . S
C1382 C1388 1.465 . S
C1383 C1378 1.399 . S
C1383 C1382 1.394 . S
C1383 C1384 1.516 . S
C1384 C1383 1.516 . S
C1384 C1385 1.502 . S
C1384 C1386 1.561 . S
C1384 C1387 1.526 . S
C1385 H1369 0.959 . S
C1385 H1370 0.959 . S
C1385 H1371 0.961 . S
C1385 C1384 1.502 . S
C1386 H1372 0.960 . S
C1386 H1373 0.961 . S
C1386 H1374 0.959 . S
C1386 C1384 1.561 . S
C1387 C1384 1.526 . S
C1387 C1388 1.396 . S
C1387 C1392 1.390 . S
C1388 C1382 1.465 . S
C1388 C1387 1.396 . S
C1388 C1389 1.399 . S
C1389 H1375 0.929 . S
C1389 C1388 1.399 . S
C1389 C1390 1.385 . S
C1390 H1376 0.931 . S
C1390 C1389 1.385 . S
C1390 C1391 1.389 . S
C1391 C1390 1.389 . S
C1391 C1392 1.387 . S
C1392 H1377 0.930 . S
C1392 C1387 1.390 . S
C1392 C1391 1.387 . S
H1393 C1405 0.930 . S
H1394 C1407 0.930 . S
H1395 C1408 0.930 . S
H1396 C1412 0.959 . S
H1397 C1412 0.959 . S
H1398 C1412 0.961 . S
H1399 C1413 0.960 . S
H1400 C1413 0.961 . S
H1401 C1413 0.959 . S
H1402 C1416 0.929 . S
H1403 C1417 0.931 . S
H1404 C1419 0.930 . S
C1405 H1393 0.930 . S
C1405 C1406 1.399 . S
C1405 C1410 1.399 . S
C1406 C1405 1.399 . S
C1406 C1407 1.376 . S
C1407 H1394 0.930 . S
C1407 C1406 1.376 . S
C1407 C1408 1.388 . S
C1408 H1395 0.930 . S
C1408 C1407 1.388 . S
C1408 C1409 1.390 . S
C1409 C1408 1.390 . S
C1409 C1410 1.394 . S
C1409 C1415 1.465 . S
C1410 C1405 1.399 . S
C1410 C1409 1.394 . S
C1410 C1411 1.516 . S
C1411 C1410 1.516 . S
C1411 C1412 1.502 . S
C1411 C1413 1.561 . S
C1411 C1414 1.526 . S
C1412 H1396 0.959 . S
C1412 H1397 0.959 . S
C1412 H1398 0.961 . S
C1412 C1411 1.502 . S
C1413 H1399 0.960 . S
C1413 H1400 0.961 . S
C1413 H1401 0.959 . S
C1413 C1411 1.561 . S
C1414 C1411 1.526 . S
C1414 C1415 1.396 . S
C1414 C1419 1.390 . S
C1415 C1409 1.465 . S
C1415 C1414 1.396 . S
C1415 C1416 1.399 . S
C1416 H1402 0.929 . S
C1416 C1415 1.399 . S
C1416 C1417 1.385 . S
C1417 H1403 0.931 . S
C1417 C1416 1.385 . S
C1417 C1418 1.389 . S
C1418 C1417 1.389 . S
C1418 C1419 1.387 . S
C1419 H1404 0.930 . S
C1419 C1414 1.390 . S
C1419 C1418 1.387 . S
H1420 C1432 0.930 . S
H1421 C1434 0.930 . S
H1422 C1435 0.930 . S
H1423 C1439 0.959 . S
H1424 C1439 0.959 . S
H1425 C1439 0.961 . S
H1426 C1440 0.960 . S
H1427 C1440 0.961 . S
H1428 C1440 0.959 . S
H1429 C1443 0.929 . S
H1430 C1444 0.931 . S
H1431 C1446 0.930 . S
C1432 H1420 0.930 . S
C1432 C1433 1.399 . S
C1432 C1437 1.399 . S
C1433 C1432 1.399 . S
C1433 C1434 1.376 . S
C1434 H1421 0.930 . S
C1434 C1433 1.376 . S
C1434 C1435 1.388 . S
C1435 H1422 0.930 . S
C1435 C1434 1.388 . S
C1435 C1436 1.390 . S
C1436 C1435 1.390 . S
C1436 C1437 1.394 . S
C1436 C1442 1.465 . S
C1437 C1432 1.399 . S
C1437 C1436 1.394 . S
C1437 C1438 1.516 . S
C1438 C1437 1.516 . S
C1438 C1439 1.502 . S
C1438 C1440 1.561 . S
C1438 C1441 1.526 . S
C1439 H1423 0.959 . S
C1439 H1424 0.959 . S
C1439 H1425 0.961 . S
C1439 C1438 1.502 . S
C1440 H1426 0.960 . S
C1440 H1427 0.961 . S
C1440 H1428 0.959 . S
C1440 C1438 1.561 . S
C1441 C1438 1.526 . S
C1441 C1442 1.396 . S
C1441 C1446 1.390 . S
C1442 C1436 1.465 . S
C1442 C1441 1.396 . S
C1442 C1443 1.399 . S
C1443 H1429 0.929 . S
C1443 C1442 1.399 . S
C1443 C1444 1.385 . S
C1444 H1430 0.931 . S
C1444 C1443 1.385 . S
C1444 C1445 1.389 . S
C1445 C1444 1.389 . S
C1445 C1446 1.387 . S
C1446 H1431 0.930 . S
C1446 C1441 1.390 . S
C1446 C1445 1.387 . S
H1447 C1459 0.930 . S
H1448 C1461 0.930 . S
H1449 C1462 0.930 . S
H1450 C1466 0.959 . S
H1451 C1466 0.959 . S
H1452 C1466 0.961 . S
H1453 C1467 0.960 . S
H1454 C1467 0.961 . S
H1455 C1467 0.959 . S
H1456 C1470 0.929 . S
H1457 C1471 0.931 . S
H1458 C1473 0.930 . S
C1459 H1447 0.930 . S
C1459 C1460 1.399 . S
C1459 C1464 1.399 . S
C1460 C1459 1.399 . S
C1460 C1461 1.376 . S
C1461 H1448 0.930 . S
C1461 C1460 1.376 . S
C1461 C1462 1.388 . S
C1462 H1449 0.930 . S
C1462 C1461 1.388 . S
C1462 C1463 1.390 . S
C1463 C1462 1.390 . S
C1463 C1464 1.394 . S
C1463 C1469 1.465 . S
C1464 C1459 1.399 . S
C1464 C1463 1.394 . S
C1464 C1465 1.516 . S
C1465 C1464 1.516 . S
C1465 C1466 1.502 . S
C1465 C1467 1.561 . S
C1465 C1468 1.526 . S
C1466 H1450 0.959 . S
C1466 H1451 0.959 . S
C1466 H1452 0.961 . S
C1466 C1465 1.502 . S
C1467 H1453 0.960 . S
C1467 H1454 0.961 . S
C1467 H1455 0.959 . S
C1467 C1465 1.561 . S
C1468 C1465 1.526 . S
C1468 C1469 1.396 . S
C1468 C1473 1.390 . S
C1469 C1463 1.465 . S
C1469 C1468 1.396 . S
C1469 C1470 1.399 . S
C1470 H1456 0.929 . S
C1470 C1469 1.399 . S
C1470 C1471 1.385 . S
C1471 H1457 0.931 . S
C1471 C1470 1.385 . S
C1471 C1472 1.389 . S
C1472 C1471 1.389 . S
C1472 C1473 1.387 . S
C1473 H1458 0.930 . S
C1473 C1468 1.390 . S
C1473 C1472 1.387 . S
H1474 C1486 0.930 . S
H1475 C1488 0.930 . S
H1476 C1489 0.930 . S
H1477 C1493 0.959 . S
H1478 C1493 0.959 . S
H1479 C1493 0.961 . S
H1480 C1494 0.960 . S
H1481 C1494 0.961 . S
H1482 C1494 0.959 . S
H1483 C1497 0.929 . S
H1484 C1498 0.931 . S
H1485 C1500 0.930 . S
C1486 H1474 0.930 . S
C1486 C1487 1.399 . S
C1486 C1491 1.399 . S
C1487 C1486 1.399 . S
C1487 C1488 1.376 . S
C1488 H1475 0.930 . S
C1488 C1487 1.376 . S
C1488 C1489 1.388 . S
C1489 H1476 0.930 . S
C1489 C1488 1.388 . S
C1489 C1490 1.390 . S
C1490 C1489 1.390 . S
C1490 C1491 1.394 . S
C1490 C1496 1.465 . S
C1491 C1486 1.399 . S
C1491 C1490 1.394 . S
C1491 C1492 1.516 . S
C1492 C1491 1.516 . S
C1492 C1493 1.502 . S
C1492 C1494 1.561 . S
C1492 C1495 1.526 . S
C1493 H1477 0.959 . S
C1493 H1478 0.959 . S
C1493 H1479 0.961 . S
C1493 C1492 1.502 . S
C1494 H1480 0.960 . S
C1494 H1481 0.961 . S
C1494 H1482 0.959 . S
C1494 C1492 1.561 . S
C1495 C1492 1.526 . S
C1495 C1496 1.396 . S
C1495 C1500 1.390 . S
C1496 C1490 1.465 . S
C1496 C1495 1.396 . S
C1496 C1497 1.399 . S
C1497 H1483 0.929 . S
C1497 C1496 1.399 . S
C1497 C1498 1.385 . S
C1498 H1484 0.931 . S
C1498 C1497 1.385 . S
C1498 C1499 1.389 . S
C1499 C1498 1.389 . S
C1499 C1500 1.387 . S
C1500 H1485 0.930 . S
C1500 C1495 1.390 . S
C1500 C1499 1.387 . S
H1501 C1513 0.930 . S
H1502 C1515 0.930 . S
H1503 C1516 0.930 . S
H1504 C1520 0.959 . S
H1505 C1520 0.959 . S
H1506 C1520 0.961 . S
H1507 C1521 0.960 . S
H1508 C1521 0.961 . S
H1509 C1521 0.959 . S
H1510 C1524 0.929 . S
H1511 C1525 0.931 1_655 S
H1512 C1527 0.930 1_655 S
C1513 H1501 0.930 . S
C1513 C1514 1.399 . S
C1513 C1518 1.399 . S
C1514 C1513 1.399 . S
C1514 C1515 1.376 . S
C1515 H1502 0.930 . S
C1515 C1514 1.376 . S
C1515 C1516 1.388 . S
C1516 H1503 0.930 . S
C1516 C1515 1.388 . S
C1516 C1517 1.390 . S
C1517 C1516 1.390 . S
C1517 C1518 1.394 . S
C1517 C1523 1.465 . S
C1518 C1513 1.399 . S
C1518 C1517 1.394 . S
C1518 C1519 1.516 . S
C1519 C1518 1.516 . S
C1519 C1520 1.502 . S
C1519 C1521 1.561 . S
C1519 C1522 1.526 . S
C1520 H1504 0.959 . S
C1520 H1505 0.959 . S
C1520 H1506 0.961 . S
C1520 C1519 1.502 . S
C1521 H1507 0.960 . S
C1521 H1508 0.961 . S
C1521 H1509 0.959 . S
C1521 C1519 1.561 . S
C1522 C1519 1.526 . S
C1522 C1523 1.396 . S
C1522 C1527 1.390 . S
C1523 C1517 1.465 . S
C1523 C1522 1.396 . S
C1523 C1524 1.399 . S
C1524 H1510 0.929 . S
C1524 C1523 1.399 . S
C1524 C1525 1.385 . S
C1525 H1511 0.931 1_455 S
C1525 C1524 1.385 . S
C1525 C1526 1.389 1_455 S
C1526 C1525 1.389 1_655 S
C1526 C1527 1.387 1_655 S
C1527 H1512 0.930 1_455 S
C1527 C1522 1.390 . S
C1527 C1526 1.387 1_455 S
H1528 C1540 0.930 . S
H1529 C1542 0.930 . S
H1530 C1543 0.930 . S
H1531 C1547 0.959 . S
H1532 C1547 0.959 . S
H1533 C1547 0.961 . S
H1534 C1548 0.960 . S
H1535 C1548 0.961 . S
H1536 C1548 0.959 . S
H1537 C1551 0.929 . S
H1538 C1552 0.931 . S
H1539 C1554 0.930 . S
C1540 H1528 0.930 . S
C1540 C1541 1.399 . S
C1540 C1545 1.399 . S
C1541 C1540 1.399 . S
C1541 C1542 1.376 . S
C1542 H1529 0.930 . S
C1542 C1541 1.376 . S
C1542 C1543 1.388 . S
C1543 H1530 0.930 . S
C1543 C1542 1.388 . S
C1543 C1544 1.390 . S
C1544 C1543 1.390 . S
C1544 C1545 1.394 . S
C1544 C1550 1.465 . S
C1545 C1540 1.399 . S
C1545 C1544 1.394 . S
C1545 C1546 1.516 . S
C1546 C1545 1.516 . S
C1546 C1547 1.502 . S
C1546 C1548 1.561 . S
C1546 C1549 1.526 . S
C1547 H1531 0.959 . S
C1547 H1532 0.959 . S
C1547 H1533 0.961 . S
C1547 C1546 1.502 . S
C1548 H1534 0.960 . S
C1548 H1535 0.961 . S
C1548 H1536 0.959 . S
C1548 C1546 1.561 . S
C1549 C1546 1.526 . S
C1549 C1550 1.396 . S
C1549 C1554 1.390 . S
C1550 C1544 1.465 . S
C1550 C1549 1.396 . S
C1550 C1551 1.399 . S
C1551 H1537 0.929 . S
C1551 C1550 1.399 . S
C1551 C1552 1.385 . S
C1552 H1538 0.931 . S
C1552 C1551 1.385 . S
C1552 C1553 1.389 . S
C1553 C1552 1.389 . S
C1553 C1554 1.387 . S
C1554 H1539 0.930 . S
C1554 C1549 1.390 . S
C1554 C1553 1.387 . S
H1555 C1567 0.930 . S
H1556 C1569 0.930 . S
H1557 C1570 0.930 . S
H1558 C1574 0.959 . S
H1559 C1574 0.959 . S
H1560 C1574 0.961 . S
H1561 C1575 0.960 . S
H1562 C1575 0.961 . S
H1563 C1575 0.959 . S
H1564 C1578 0.929 . S
H1565 C1579 0.931 . S
H1566 C1581 0.930 . S
C1567 H1555 0.930 . S
C1567 C1568 1.399 1_655 S
C1567 C1572 1.399 . S
C1568 C1567 1.399 1_455 S
C1568 C1569 1.376 . S
C1569 H1556 0.930 . S
C1569 C1568 1.376 . S
C1569 C1570 1.388 1_455 S
C1570 H1557 0.930 . S
C1570 C1569 1.388 1_655 S
C1570 C1571 1.390 . S
C1571 C1570 1.390 . S
C1571 C1572 1.394 . S
C1571 C1577 1.465 . S
C1572 C1567 1.399 . S
C1572 C1571 1.394 . S
C1572 C1573 1.516 . S
C1573 C1572 1.516 . S
C1573 C1574 1.502 . S
C1573 C1575 1.561 . S
C1573 C1576 1.526 . S
C1574 H1558 0.959 . S
C1574 H1559 0.959 . S
C1574 H1560 0.961 . S
C1574 C1573 1.502 . S
C1575 H1561 0.960 . S
C1575 H1562 0.961 . S
C1575 H1563 0.959 . S
C1575 C1573 1.561 . S
C1576 C1573 1.526 . S
C1576 C1577 1.396 . S
C1576 C1581 1.390 . S
C1577 C1571 1.465 . S
C1577 C1576 1.396 . S
C1577 C1578 1.399 . S
C1578 H1564 0.929 . S
C1578 C1577 1.399 . S
C1578 C1579 1.385 . S
C1579 H1565 0.931 . S
C1579 C1578 1.385 . S
C1579 C1580 1.389 . S
C1580 C1579 1.389 . S
C1580 C1581 1.387 . S
C1581 H1566 0.930 . S
C1581 C1576 1.390 . S
C1581 C1580 1.387 . S
H1582 C1594 0.930 . S
H1583 C1596 0.930 . S
H1584 C1597 0.930 . S
H1585 C1601 0.959 . S
H1586 C1601 0.959 . S
H1587 C1601 0.961 . S
H1588 C1602 0.960 . S
H1589 C1602 0.961 . S
H1590 C1602 0.959 . S
H1591 C1605 0.929 . S
H1592 C1606 0.931 . S
H1593 C1608 0.930 . S
C1594 H1582 0.930 . S
C1594 C1595 1.399 . S
C1594 C1599 1.399 . S
C1595 C1594 1.399 . S
C1595 C1596 1.376 . S
C1596 H1583 0.930 . S
C1596 C1595 1.376 . S
C1596 C1597 1.388 . S
C1597 H1584 0.930 . S
C1597 C1596 1.388 . S
C1597 C1598 1.390 . S
C1598 C1597 1.390 . S
C1598 C1599 1.394 . S
C1598 C1604 1.465 . S
C1599 C1594 1.399 . S
C1599 C1598 1.394 . S
C1599 C1600 1.516 . S
C1600 C1599 1.516 . S
C1600 C1601 1.502 . S
C1600 C1602 1.561 . S
C1600 C1603 1.526 . S
C1601 H1585 0.959 . S
C1601 H1586 0.959 . S
C1601 H1587 0.961 . S
C1601 C1600 1.502 . S
C1602 H1588 0.960 . S
C1602 H1589 0.961 . S
C1602 H1590 0.959 . S
C1602 C1600 1.561 . S
C1603 C1600 1.526 . S
C1603 C1604 1.396 . S
C1603 C1608 1.390 . S
C1604 C1598 1.465 . S
C1604 C1603 1.396 . S
C1604 C1605 1.399 . S
C1605 H1591 0.929 . S
C1605 C1604 1.399 . S
C1605 C1606 1.385 . S
C1606 H1592 0.931 . S
C1606 C1605 1.385 . S
C1606 C1607 1.389 . S
C1607 C1606 1.389 . S
C1607 C1608 1.387 . S
C1608 H1593 0.930 . S
C1608 C1603 1.390 . S
C1608 C1607 1.387 . S
H1609 C1621 0.930 . S
H1610 C1623 0.930 . S
H1611 C1624 0.930 . S
H1612 C1628 0.959 . S
H1613 C1628 0.959 . S
H1614 C1628 0.961 . S
H1615 C1629 0.960 . S
H1616 C1629 0.961 . S
H1617 C1629 0.959 . S
H1618 C1632 0.929 . S
H1619 C1633 0.931 . S
H1620 C1635 0.930 . S
C1621 H1609 0.930 . S
C1621 C1622 1.399 . S
C1621 C1626 1.399 . S
C1622 C1621 1.399 . S
C1622 C1623 1.376 . S
C1623 H1610 0.930 . S
C1623 C1622 1.376 . S
C1623 C1624 1.388 . S
C1624 H1611 0.930 . S
C1624 C1623 1.388 . S
C1624 C1625 1.390 . S
C1625 C1624 1.390 . S
C1625 C1626 1.394 . S
C1625 C1631 1.465 . S
C1626 C1621 1.399 . S
C1626 C1625 1.394 . S
C1626 C1627 1.516 . S
C1627 C1626 1.516 . S
C1627 C1628 1.502 . S
C1627 C1629 1.561 . S
C1627 C1630 1.526 . S
C1628 H1612 0.959 . S
C1628 H1613 0.959 . S
C1628 H1614 0.961 . S
C1628 C1627 1.502 . S
C1629 H1615 0.960 . S
C1629 H1616 0.961 . S
C1629 H1617 0.959 . S
C1629 C1627 1.561 . S
C1630 C1627 1.526 . S
C1630 C1631 1.396 . S
C1630 C1635 1.390 . S
C1631 C1625 1.465 . S
C1631 C1630 1.396 . S
C1631 C1632 1.399 . S
C1632 H1618 0.929 . S
C1632 C1631 1.399 . S
C1632 C1633 1.385 . S
C1633 H1619 0.931 . S
C1633 C1632 1.385 . S
C1633 C1634 1.389 . S
C1634 C1633 1.389 . S
C1634 C1635 1.387 . S
C1635 H1620 0.930 . S
C1635 C1630 1.390 . S
C1635 C1634 1.387 . S
H1636 C1648 0.930 . S
H1637 C1650 0.930 . S
H1638 C1651 0.930 . S
H1639 C1655 0.959 . S
H1640 C1655 0.959 . S
H1641 C1655 0.961 . S
H1642 C1656 0.960 . S
H1643 C1656 0.961 . S
H1644 C1656 0.959 . S
H1645 C1659 0.929 . S
H1646 C1660 0.931 . S
H1647 C1662 0.930 . S
C1648 H1636 0.930 . S
C1648 C1649 1.399 . S
C1648 C1653 1.399 . S
C1649 C1648 1.399 . S
C1649 C1650 1.376 . S
C1650 H1637 0.930 . S
C1650 C1649 1.376 . S
C1650 C1651 1.388 . S
C1651 H1638 0.930 . S
C1651 C1650 1.388 . S
C1651 C1652 1.390 . S
C1652 C1651 1.390 . S
C1652 C1653 1.394 . S
C1652 C1658 1.465 . S
C1653 C1648 1.399 . S
C1653 C1652 1.394 . S
C1653 C1654 1.516 . S
C1654 C1653 1.516 . S
C1654 C1655 1.502 . S
C1654 C1656 1.561 . S
C1654 C1657 1.526 . S
C1655 H1639 0.959 . S
C1655 H1640 0.959 . S
C1655 H1641 0.961 . S
C1655 C1654 1.502 . S
C1656 H1642 0.960 . S
C1656 H1643 0.961 . S
C1656 H1644 0.959 . S
C1656 C1654 1.561 . S
C1657 C1654 1.526 . S
C1657 C1658 1.396 . S
C1657 C1662 1.390 . S
C1658 C1652 1.465 . S
C1658 C1657 1.396 . S
C1658 C1659 1.399 . S
C1659 H1645 0.929 . S
C1659 C1658 1.399 . S
C1659 C1660 1.385 . S
C1660 H1646 0.931 . S
C1660 C1659 1.385 . S
C1660 C1661 1.389 . S
C1661 C1660 1.389 . S
C1661 C1662 1.387 . S
C1662 H1647 0.930 . S
C1662 C1657 1.390 . S
C1662 C1661 1.387 . S
H1663 C1675 0.930 . S
H1664 C1677 0.930 . S
H1665 C1678 0.930 . S
H1666 C1682 0.959 . S
H1667 C1682 0.959 . S
H1668 C1682 0.961 . S
H1669 C1683 0.960 . S
H1670 C1683 0.961 . S
H1671 C1683 0.959 . S
H1672 C1686 0.929 . S
H1673 C1687 0.931 . S
H1674 C1689 0.930 . S
C1675 H1663 0.930 . S
C1675 C1676 1.399 . S
C1675 C1680 1.399 . S
C1676 C1675 1.399 . S
C1676 C1677 1.376 . S
C1677 H1664 0.930 . S
C1677 C1676 1.376 . S
C1677 C1678 1.388 . S
C1678 H1665 0.930 . S
C1678 C1677 1.388 . S
C1678 C1679 1.390 . S
C1679 C1678 1.390 . S
C1679 C1680 1.394 . S
C1679 C1685 1.465 . S
C1680 C1675 1.399 . S
C1680 C1679 1.394 . S
C1680 C1681 1.516 . S
C1681 C1680 1.516 . S
C1681 C1682 1.502 . S
C1681 C1683 1.561 . S
C1681 C1684 1.526 . S
C1682 H1666 0.959 . S
C1682 H1667 0.959 . S
C1682 H1668 0.961 . S
C1682 C1681 1.502 . S
C1683 H1669 0.960 . S
C1683 H1670 0.961 . S
C1683 H1671 0.959 . S
C1683 C1681 1.561 . S
C1684 C1681 1.526 . S
C1684 C1685 1.396 . S
C1684 C1689 1.390 . S
C1685 C1679 1.465 . S
C1685 C1684 1.396 . S
C1685 C1686 1.399 . S
C1686 H1672 0.929 . S
C1686 C1685 1.399 . S
C1686 C1687 1.385 . S
C1687 H1673 0.931 . S
C1687 C1686 1.385 . S
C1687 C1688 1.389 . S
C1688 C1687 1.389 . S
C1688 C1689 1.387 . S
C1689 H1674 0.930 . S
C1689 C1684 1.390 . S
C1689 C1688 1.387 . S
H1690 C1702 0.930 . S
H1691 C1704 0.930 . S
H1692 C1705 0.930 . S
H1693 C1709 0.959 . S
H1694 C1709 0.959 . S
H1695 C1709 0.961 . S
H1696 C1710 0.960 . S
H1697 C1710 0.961 . S
H1698 C1710 0.959 . S
H1699 C1713 0.929 . S
H1700 C1714 0.931 . S
H1701 C1716 0.930 . S
C1702 H1690 0.930 . S
C1702 C1703 1.399 . S
C1702 C1707 1.399 . S
C1703 C1702 1.399 . S
C1703 C1704 1.376 . S
C1704 H1691 0.930 . S
C1704 C1703 1.376 . S
C1704 C1705 1.388 . S
C1705 H1692 0.930 . S
C1705 C1704 1.388 . S
C1705 C1706 1.390 . S
C1706 C1705 1.390 . S
C1706 C1707 1.394 . S
C1706 C1712 1.465 . S
C1707 C1702 1.399 . S
C1707 C1706 1.394 . S
C1707 C1708 1.516 . S
C1708 C1707 1.516 . S
C1708 C1709 1.502 . S
C1708 C1710 1.561 . S
C1708 C1711 1.526 . S
C1709 H1693 0.959 . S
C1709 H1694 0.959 . S
C1709 H1695 0.961 . S
C1709 C1708 1.502 . S
C1710 H1696 0.960 . S
C1710 H1697 0.961 . S
C1710 H1698 0.959 . S
C1710 C1708 1.561 . S
C1711 C1708 1.526 . S
C1711 C1712 1.396 . S
C1711 C1716 1.390 . S
C1712 C1706 1.465 . S
C1712 C1711 1.396 . S
C1712 C1713 1.399 . S
C1713 H1699 0.929 . S
C1713 C1712 1.399 . S
C1713 C1714 1.385 . S
C1714 H1700 0.931 . S
C1714 C1713 1.385 . S
C1714 C1715 1.389 . S
C1715 C1714 1.389 . S
C1715 C1716 1.387 . S
C1716 H1701 0.930 . S
C1716 C1711 1.390 . S
C1716 C1715 1.387 . S
H1717 C1729 0.930 1_455 S
H1718 C1731 0.930 . S
H1719 C1732 0.930 . S
H1720 C1736 0.959 . S
H1721 C1736 0.959 . S
H1722 C1736 0.961 . S
H1723 C1737 0.960 . S
H1724 C1737 0.961 . S
H1725 C1737 0.959 . S
H1726 C1740 0.929 . S
H1727 C1741 0.931 . S
H1728 C1743 0.930 . S
C1729 H1717 0.930 1_655 S
C1729 C1730 1.399 1_655 S
C1729 C1734 1.399 . S
C1730 C1729 1.399 1_455 S
C1730 C1731 1.376 1_455 S
C1731 H1718 0.930 . S
C1731 C1730 1.376 1_655 S
C1731 C1732 1.388 . S
C1732 H1719 0.930 . S
C1732 C1731 1.388 . S
C1732 C1733 1.390 . S
C1733 C1732 1.390 . S
C1733 C1734 1.394 . S
C1733 C1739 1.465 . S
C1734 C1729 1.399 . S
C1734 C1733 1.394 . S
C1734 C1735 1.516 . S
C1735 C1734 1.516 . S
C1735 C1736 1.502 . S
C1735 C1737 1.561 . S
C1735 C1738 1.526 . S
C1736 H1720 0.959 . S
C1736 H1721 0.959 . S
C1736 H1722 0.961 . S
C1736 C1735 1.502 . S
C1737 H1723 0.960 . S
C1737 H1724 0.961 . S
C1737 H1725 0.959 . S
C1737 C1735 1.561 . S
C1738 C1735 1.526 . S
C1738 C1739 1.396 . S
C1738 C1743 1.390 . S
C1739 C1733 1.465 . S
C1739 C1738 1.396 . S
C1739 C1740 1.399 . S
C1740 H1726 0.929 . S
C1740 C1739 1.399 . S
C1740 C1741 1.385 . S
C1741 H1727 0.931 . S
C1741 C1740 1.385 . S
C1741 C1742 1.389 . S
C1742 C1741 1.389 . S
C1742 C1743 1.387 . S
C1743 H1728 0.930 . S
C1743 C1738 1.390 . S
C1743 C1742 1.387 . S
H1744 C1756 0.930 . S
H1745 C1758 0.930 . S
H1746 C1759 0.930 . S
H1747 C1763 0.959 . S
H1748 C1763 0.959 . S
H1749 C1763 0.961 . S
H1750 C1764 0.960 . S
H1751 C1764 0.961 . S
H1752 C1764 0.959 . S
H1753 C1767 0.929 . S
H1754 C1768 0.931 . S
H1755 C1770 0.930 . S
C1756 H1744 0.930 . S
C1756 C1757 1.399 . S
C1756 C1761 1.399 . S
C1757 C1756 1.399 . S
C1757 C1758 1.376 . S
C1758 H1745 0.930 . S
C1758 C1757 1.376 . S
C1758 C1759 1.388 . S
C1759 H1746 0.930 . S
C1759 C1758 1.388 . S
C1759 C1760 1.390 . S
C1760 C1759 1.390 . S
C1760 C1761 1.394 . S
C1760 C1766 1.465 . S
C1761 C1756 1.399 . S
C1761 C1760 1.394 . S
C1761 C1762 1.516 . S
C1762 C1761 1.516 . S
C1762 C1763 1.502 . S
C1762 C1764 1.561 . S
C1762 C1765 1.526 . S
C1763 H1747 0.959 . S
C1763 H1748 0.959 . S
C1763 H1749 0.961 . S
C1763 C1762 1.502 . S
C1764 H1750 0.960 . S
C1764 H1751 0.961 . S
C1764 H1752 0.959 . S
C1764 C1762 1.561 . S
C1765 C1762 1.526 . S
C1765 C1766 1.396 . S
C1765 C1770 1.390 . S
C1766 C1760 1.465 . S
C1766 C1765 1.396 . S
C1766 C1767 1.399 . S
C1767 H1753 0.929 . S
C1767 C1766 1.399 . S
C1767 C1768 1.385 . S
C1768 H1754 0.931 . S
C1768 C1767 1.385 . S
C1768 C1769 1.389 . S
C1769 C1768 1.389 . S
C1769 C1770 1.387 . S
C1770 H1755 0.930 . S
C1770 C1765 1.390 . S
C1770 C1769 1.387 . S
H1771 C1783 0.930 . S
H1772 C1785 0.930 . S
H1773 C1786 0.930 . S
H1774 C1790 0.959 . S
H1775 C1790 0.959 . S
H1776 C1790 0.961 . S
H1777 C1791 0.960 . S
H1778 C1791 0.961 . S
H1779 C1791 0.959 . S
H1780 C1794 0.929 . S
H1781 C1795 0.931 . S
H1782 C1797 0.930 . S
C1783 H1771 0.930 . S
C1783 C1784 1.399 . S
C1783 C1788 1.399 . S
C1784 C1783 1.399 . S
C1784 C1785 1.376 . S
C1785 H1772 0.930 . S
C1785 C1784 1.376 . S
C1785 C1786 1.388 . S
C1786 H1773 0.930 . S
C1786 C1785 1.388 . S
C1786 C1787 1.390 . S
C1787 C1786 1.390 . S
C1787 C1788 1.394 . S
C1787 C1793 1.465 . S
C1788 C1783 1.399 . S
C1788 C1787 1.394 . S
C1788 C1789 1.516 . S
C1789 C1788 1.516 . S
C1789 C1790 1.502 . S
C1789 C1791 1.561 . S
C1789 C1792 1.526 . S
C1790 H1774 0.959 . S
C1790 H1775 0.959 . S
C1790 H1776 0.961 . S
C1790 C1789 1.502 . S
C1791 H1777 0.960 . S
C1791 H1778 0.961 . S
C1791 H1779 0.959 . S
C1791 C1789 1.561 . S
C1792 C1789 1.526 . S
C1792 C1793 1.396 . S
C1792 C1797 1.390 . S
C1793 C1787 1.465 . S
C1793 C1792 1.396 . S
C1793 C1794 1.399 . S
C1794 H1780 0.929 . S
C1794 C1793 1.399 . S
C1794 C1795 1.385 . S
C1795 H1781 0.931 . S
C1795 C1794 1.385 . S
C1795 C1796 1.389 . S
C1796 C1795 1.389 . S
C1796 C1797 1.387 . S
C1797 H1782 0.930 . S
C1797 C1792 1.390 . S
C1797 C1796 1.387 . S
H1798 C1810 0.930 . S
H1799 C1812 0.930 . S
H1800 C1813 0.930 . S
H1801 C1817 0.959 . S
H1802 C1817 0.959 . S
H1803 C1817 0.961 . S
H1804 C1818 0.960 . S
H1805 C1818 0.961 . S
H1806 C1818 0.959 . S
H1807 C1821 0.929 . S
H1808 C1822 0.931 . S
H1809 C1824 0.930 . S
C1810 H1798 0.930 . S
C1810 C1811 1.399 . S
C1810 C1815 1.399 . S
C1811 C1810 1.399 . S
C1811 C1812 1.376 . S
C1812 H1799 0.930 . S
C1812 C1811 1.376 . S
C1812 C1813 1.388 . S
C1813 H1800 0.930 . S
C1813 C1812 1.388 . S
C1813 C1814 1.390 . S
C1814 C1813 1.390 . S
C1814 C1815 1.394 . S
C1814 C1820 1.465 . S
C1815 C1810 1.399 . S
C1815 C1814 1.394 . S
C1815 C1816 1.516 . S
C1816 C1815 1.516 . S
C1816 C1817 1.502 . S
C1816 C1818 1.561 . S
C1816 C1819 1.526 . S
C1817 H1801 0.959 . S
C1817 H1802 0.959 . S
C1817 H1803 0.961 . S
C1817 C1816 1.502 . S
C1818 H1804 0.960 . S
C1818 H1805 0.961 . S
C1818 H1806 0.959 . S
C1818 C1816 1.561 . S
C1819 C1816 1.526 . S
C1819 C1820 1.396 . S
C1819 C1824 1.390 . S
C1820 C1814 1.465 . S
C1820 C1819 1.396 . S
C1820 C1821 1.399 . S
C1821 H1807 0.929 . S
C1821 C1820 1.399 . S
C1821 C1822 1.385 . S
C1822 H1808 0.931 . S
C1822 C1821 1.385 . S
C1822 C1823 1.389 . S
C1823 C1822 1.389 . S
C1823 C1824 1.387 . S
C1824 H1809 0.930 . S
C1824 C1819 1.390 . S
C1824 C1823 1.387 . S
H1825 C1837 0.930 . S
H1826 C1839 0.930 . S
H1827 C1840 0.930 . S
H1828 C1844 0.959 . S
H1829 C1844 0.959 . S
H1830 C1844 0.961 . S
H1831 C1845 0.960 . S
H1832 C1845 0.961 . S
H1833 C1845 0.959 . S
H1834 C1848 0.929 . S
H1835 C1849 0.931 . S
H1836 C1851 0.930 1_455 S
C1837 H1825 0.930 . S
C1837 C1838 1.399 . S
C1837 C1842 1.399 . S
C1838 C1837 1.399 . S
C1838 C1839 1.376 . S
C1839 H1826 0.930 . S
C1839 C1838 1.376 . S
C1839 C1840 1.388 . S
C1840 H1827 0.930 . S
C1840 C1839 1.388 . S
C1840 C1841 1.390 . S
C1841 C1840 1.390 . S
C1841 C1842 1.394 . S
C1841 C1847 1.465 . S
C1842 C1837 1.399 . S
C1842 C1841 1.394 . S
C1842 C1843 1.516 . S
C1843 C1842 1.516 . S
C1843 C1844 1.502 . S
C1843 C1845 1.561 . S
C1843 C1846 1.526 . S
C1844 H1828 0.959 . S
C1844 H1829 0.959 . S
C1844 H1830 0.961 . S
C1844 C1843 1.502 . S
C1845 H1831 0.960 . S
C1845 H1832 0.961 . S
C1845 H1833 0.959 . S
C1845 C1843 1.561 . S
C1846 C1843 1.526 . S
C1846 C1847 1.396 . S
C1846 C1851 1.390 . S
C1847 C1841 1.465 . S
C1847 C1846 1.396 . S
C1847 C1848 1.399 . S
C1848 H1834 0.929 . S
C1848 C1847 1.399 . S
C1848 C1849 1.385 . S
C1849 H1835 0.931 . S
C1849 C1848 1.385 . S
C1849 C1850 1.389 1_655 S
C1850 C1849 1.389 1_455 S
C1850 C1851 1.387 1_455 S
C1851 H1836 0.930 1_655 S
C1851 C1846 1.390 . S
C1851 C1850 1.387 1_655 S
H1852 C1864 0.930 . S
H1853 C1866 0.930 . S
H1854 C1867 0.930 . S
H1855 C1871 0.959 . S
H1856 C1871 0.959 . S
H1857 C1871 0.961 . S
H1858 C1872 0.960 . S
H1859 C1872 0.961 . S
H1860 C1872 0.959 . S
H1861 C1875 0.929 . S
H1862 C1876 0.931 . S
H1863 C1878 0.930 . S
C1864 H1852 0.930 . S
C1864 C1865 1.399 . S
C1864 C1869 1.399 . S
C1865 C1864 1.399 . S
C1865 C1866 1.376 . S
C1866 H1853 0.930 . S
C1866 C1865 1.376 . S
C1866 C1867 1.388 . S
C1867 H1854 0.930 . S
C1867 C1866 1.388 . S
C1867 C1868 1.390 . S
C1868 C1867 1.390 . S
C1868 C1869 1.394 . S
C1868 C1874 1.465 . S
C1869 C1864 1.399 . S
C1869 C1868 1.394 . S
C1869 C1870 1.516 . S
C1870 C1869 1.516 . S
C1870 C1871 1.502 . S
C1870 C1872 1.561 . S
C1870 C1873 1.526 . S
C1871 H1855 0.959 . S
C1871 H1856 0.959 . S
C1871 H1857 0.961 . S
C1871 C1870 1.502 . S
C1872 H1858 0.960 . S
C1872 H1859 0.961 . S
C1872 H1860 0.959 . S
C1872 C1870 1.561 . S
C1873 C1870 1.526 . S
C1873 C1874 1.396 . S
C1873 C1878 1.390 . S
C1874 C1868 1.465 . S
C1874 C1873 1.396 . S
C1874 C1875 1.399 . S
C1875 H1861 0.929 . S
C1875 C1874 1.399 . S
C1875 C1876 1.385 . S
C1876 H1862 0.931 . S
C1876 C1875 1.385 . S
C1876 C1877 1.389 . S
C1877 C1876 1.389 . S
C1877 C1878 1.387 . S
C1878 H1863 0.930 . S
C1878 C1873 1.390 . S
C1878 C1877 1.387 . S
H1879 C1891 0.930 . S
H1880 C1893 0.930 . S
H1881 C1894 0.930 . S
H1882 C1898 0.959 . S
H1883 C1898 0.959 . S
H1884 C1898 0.961 . S
H1885 C1899 0.960 . S
H1886 C1899 0.961 . S
H1887 C1899 0.959 . S
H1888 C1902 0.929 . S
H1889 C1903 0.931 . S
H1890 C1905 0.930 . S
C1891 H1879 0.930 . S
C1891 C1892 1.399 1_655 S
C1891 C1896 1.399 . S
C1892 C1891 1.399 1_455 S
C1892 C1893 1.376 . S
C1893 H1880 0.930 . S
C1893 C1892 1.376 . S
C1893 C1894 1.388 1_455 S
C1894 H1881 0.930 . S
C1894 C1893 1.388 1_655 S
C1894 C1895 1.390 . S
C1895 C1894 1.390 . S
C1895 C1896 1.394 . S
C1895 C1901 1.465 . S
C1896 C1891 1.399 . S
C1896 C1895 1.394 . S
C1896 C1897 1.516 . S
C1897 C1896 1.516 . S
C1897 C1898 1.502 . S
C1897 C1899 1.561 . S
C1897 C1900 1.526 . S
C1898 H1882 0.959 . S
C1898 H1883 0.959 . S
C1898 H1884 0.961 . S
C1898 C1897 1.502 . S
C1899 H1885 0.960 . S
C1899 H1886 0.961 . S
C1899 H1887 0.959 . S
C1899 C1897 1.561 . S
C1900 C1897 1.526 . S
C1900 C1901 1.396 . S
C1900 C1905 1.390 . S
C1901 C1895 1.465 . S
C1901 C1900 1.396 . S
C1901 C1902 1.399 . S
C1902 H1888 0.929 . S
C1902 C1901 1.399 . S
C1902 C1903 1.385 . S
C1903 H1889 0.931 . S
C1903 C1902 1.385 . S
C1903 C1904 1.389 . S
C1904 C1903 1.389 . S
C1904 C1905 1.387 . S
C1905 H1890 0.930 . S
C1905 C1900 1.390 . S
C1905 C1904 1.387 . S
H1906 C1918 0.930 . S
H1907 C1920 0.930 . S
H1908 C1921 0.930 . S
H1909 C1925 0.959 . S
H1910 C1925 0.959 . S
H1911 C1925 0.961 . S
H1912 C1926 0.960 . S
H1913 C1926 0.961 . S
H1914 C1926 0.959 . S
H1915 C1929 0.929 . S
H1916 C1930 0.931 . S
H1917 C1932 0.930 . S
C1918 H1906 0.930 . S
C1918 C1919 1.399 . S
C1918 C1923 1.399 . S
C1919 C1918 1.399 . S
C1919 C1920 1.376 . S
C1920 H1907 0.930 . S
C1920 C1919 1.376 . S
C1920 C1921 1.388 . S
C1921 H1908 0.930 . S
C1921 C1920 1.388 . S
C1921 C1922 1.390 . S
C1922 C1921 1.390 . S
C1922 C1923 1.394 . S
C1922 C1928 1.465 . S
C1923 C1918 1.399 . S
C1923 C1922 1.394 . S
C1923 C1924 1.516 . S
C1924 C1923 1.516 . S
C1924 C1925 1.502 . S
C1924 C1926 1.561 . S
C1924 C1927 1.526 . S
C1925 H1909 0.959 . S
C1925 H1910 0.959 . S
C1925 H1911 0.961 . S
C1925 C1924 1.502 . S
C1926 H1912 0.960 . S
C1926 H1913 0.961 . S
C1926 H1914 0.959 . S
C1926 C1924 1.561 . S
C1927 C1924 1.526 . S
C1927 C1928 1.396 . S
C1927 C1932 1.390 . S
C1928 C1922 1.465 . S
C1928 C1927 1.396 . S
C1928 C1929 1.399 . S
C1929 H1915 0.929 . S
C1929 C1928 1.399 . S
C1929 C1930 1.385 . S
C1930 H1916 0.931 . S
C1930 C1929 1.385 . S
C1930 C1931 1.389 . S
C1931 C1930 1.389 . S
C1931 C1932 1.387 . S
C1932 H1917 0.930 . S
C1932 C1927 1.390 . S
C1932 C1931 1.387 . S
H1933 C1945 0.930 . S
H1934 C1947 0.930 . S
H1935 C1948 0.930 . S
H1936 C1952 0.959 . S
H1937 C1952 0.959 . S
H1938 C1952 0.961 . S
H1939 C1953 0.960 . S
H1940 C1953 0.961 . S
H1941 C1953 0.959 . S
H1942 C1956 0.929 . S
H1943 C1957 0.931 . S
H1944 C1959 0.930 . S
C1945 H1933 0.930 . S
C1945 C1946 1.399 . S
C1945 C1950 1.399 . S
C1946 C1945 1.399 . S
C1946 C1947 1.376 . S
C1947 H1934 0.930 . S
C1947 C1946 1.376 . S
C1947 C1948 1.388 . S
C1948 H1935 0.930 . S
C1948 C1947 1.388 . S
C1948 C1949 1.390 . S
C1949 C1948 1.390 . S
C1949 C1950 1.394 . S
C1949 C1955 1.465 . S
C1950 C1945 1.399 . S
C1950 C1949 1.394 . S
C1950 C1951 1.516 . S
C1951 C1950 1.516 . S
C1951 C1952 1.502 . S
C1951 C1953 1.561 . S
C1951 C1954 1.526 . S
C1952 H1936 0.959 . S
C1952 H1937 0.959 . S
C1952 H1938 0.961 . S
C1952 C1951 1.502 . S
C1953 H1939 0.960 . S
C1953 H1940 0.961 . S
C1953 H1941 0.959 . S
C1953 C1951 1.561 . S
C1954 C1951 1.526 . S
C1954 C1955 1.396 . S
C1954 C1959 1.390 . S
C1955 C1949 1.465 . S
C1955 C1954 1.396 . S
C1955 C1956 1.399 . S
C1956 H1942 0.929 . S
C1956 C1955 1.399 . S
C1956 C1957 1.385 . S
C1957 H1943 0.931 . S
C1957 C1956 1.385 . S
C1957 C1958 1.389 . S
C1958 C1957 1.389 . S
C1958 C1959 1.387 . S
C1959 H1944 0.930 . S
C1959 C1954 1.390 . S
C1959 C1958 1.387 . S
H1960 C1972 0.930 . S
H1961 C1974 0.930 . S
H1962 C1975 0.930 . S
H1963 C1979 0.959 . S
H1964 C1979 0.959 . S
H1965 C1979 0.961 . S
H1966 C1980 0.960 . S
H1967 C1980 0.961 . S
H1968 C1980 0.959 . S
H1969 C1983 0.929 . S
H1970 C1984 0.931 . S
H1971 C1986 0.930 . S
C1972 H1960 0.930 . S
C1972 C1973 1.399 . S
C1972 C1977 1.399 . S
C1973 C1972 1.399 . S
C1973 C1974 1.376 . S
C1974 H1961 0.930 . S
C1974 C1973 1.376 . S
C1974 C1975 1.388 . S
C1975 H1962 0.930 . S
C1975 C1974 1.388 . S
C1975 C1976 1.390 . S
C1976 C1975 1.390 . S
C1976 C1977 1.394 . S
C1976 C1982 1.465 . S
C1977 C1972 1.399 . S
C1977 C1976 1.394 . S
C1977 C1978 1.516 . S
C1978 C1977 1.516 . S
C1978 C1979 1.502 . S
C1978 C1980 1.561 . S
C1978 C1981 1.526 . S
C1979 H1963 0.959 . S
C1979 H1964 0.959 . S
C1979 H1965 0.961 . S
C1979 C1978 1.502 . S
C1980 H1966 0.960 . S
C1980 H1967 0.961 . S
C1980 H1968 0.959 . S
C1980 C1978 1.561 . S
C1981 C1978 1.526 . S
C1981 C1982 1.396 . S
C1981 C1986 1.390 . S
C1982 C1976 1.465 . S
C1982 C1981 1.396 . S
C1982 C1983 1.399 . S
C1983 H1969 0.929 . S
C1983 C1982 1.399 . S
C1983 C1984 1.385 . S
C1984 H1970 0.931 . S
C1984 C1983 1.385 . S
C1984 C1985 1.389 . S
C1985 C1984 1.389 . S
C1985 C1986 1.387 . S
C1986 H1971 0.930 . S
C1986 C1981 1.390 . S
C1986 C1985 1.387 . S
H1987 C1999 0.930 . S
H1988 C2001 0.930 . S
H1989 C2002 0.930 . S
H1990 C2006 0.959 . S
H1991 C2006 0.959 . S
H1992 C2006 0.961 . S
H1993 C2007 0.960 . S
H1994 C2007 0.961 . S
H1995 C2007 0.959 . S
H1996 C2010 0.929 . S
H1997 C2011 0.931 . S
H1998 C2013 0.930 . S
C1999 H1987 0.930 . S
C1999 C2000 1.399 . S
C1999 C2004 1.399 . S
C2000 C1999 1.399 . S
C2000 C2001 1.376 . S
C2001 H1988 0.930 . S
C2001 C2000 1.376 . S
C2001 C2002 1.388 . S
C2002 H1989 0.930 . S
C2002 C2001 1.388 . S
C2002 C2003 1.390 . S
C2003 C2002 1.390 . S
C2003 C2004 1.394 . S
C2003 C2009 1.465 . S
C2004 C1999 1.399 . S
C2004 C2003 1.394 . S
C2004 C2005 1.516 . S
C2005 C2004 1.516 . S
C2005 C2006 1.502 . S
C2005 C2007 1.561 . S
C2005 C2008 1.526 . S
C2006 H1990 0.959 . S
C2006 H1991 0.959 . S
C2006 H1992 0.961 . S
C2006 C2005 1.502 . S
C2007 H1993 0.960 . S
C2007 H1994 0.961 . S
C2007 H1995 0.959 . S
C2007 C2005 1.561 . S
C2008 C2005 1.526 . S
C2008 C2009 1.396 . S
C2008 C2013 1.390 . S
C2009 C2003 1.465 . S
C2009 C2008 1.396 . S
C2009 C2010 1.399 . S
C2010 H1996 0.929 . S
C2010 C2009 1.399 . S
C2010 C2011 1.385 . S
C2011 H1997 0.931 . S
C2011 C2010 1.385 . S
C2011 C2012 1.389 . S
C2012 C2011 1.389 . S
C2012 C2013 1.387 . S
C2013 H1998 0.930 . S
C2013 C2008 1.390 . S
C2013 C2012 1.387 . S
H2014 C2026 0.930 . S
H2015 C2028 0.930 . S
H2016 C2029 0.930 . S
H2017 C2033 0.959 . S
H2018 C2033 0.959 . S
H2019 C2033 0.961 . S
H2020 C2034 0.960 . S
H2021 C2034 0.961 . S
H2022 C2034 0.959 . S
H2023 C2037 0.929 . S
H2024 C2038 0.931 . S
H2025 C2040 0.930 . S
C2026 H2014 0.930 . S
C2026 C2027 1.399 . S
C2026 C2031 1.399 . S
C2027 C2026 1.399 . S
C2027 C2028 1.376 . S
C2028 H2015 0.930 . S
C2028 C2027 1.376 . S
C2028 C2029 1.388 . S
C2029 H2016 0.930 . S
C2029 C2028 1.388 . S
C2029 C2030 1.390 . S
C2030 C2029 1.390 . S
C2030 C2031 1.394 . S
C2030 C2036 1.465 . S
C2031 C2026 1.399 . S
C2031 C2030 1.394 . S
C2031 C2032 1.516 . S
C2032 C2031 1.516 . S
C2032 C2033 1.502 . S
C2032 C2034 1.561 . S
C2032 C2035 1.526 . S
C2033 H2017 0.959 . S
C2033 H2018 0.959 . S
C2033 H2019 0.961 . S
C2033 C2032 1.502 . S
C2034 H2020 0.960 . S
C2034 H2021 0.961 . S
C2034 H2022 0.959 . S
C2034 C2032 1.561 . S
C2035 C2032 1.526 . S
C2035 C2036 1.396 . S
C2035 C2040 1.390 . S
C2036 C2030 1.465 . S
C2036 C2035 1.396 . S
C2036 C2037 1.399 . S
C2037 H2023 0.929 . S
C2037 C2036 1.399 . S
C2037 C2038 1.385 . S
C2038 H2024 0.931 . S
C2038 C2037 1.385 . S
C2038 C2039 1.389 . S
C2039 C2038 1.389 . S
C2039 C2040 1.387 . S
C2040 H2025 0.930 . S
C2040 C2035 1.390 . S
C2040 C2039 1.387 . S
H2041 C2053 0.913 1_655 S
H2042 C2055 0.930 . S
H2043 C2056 0.930 . S
H2044 C2060 0.959 . S
H2045 C2060 0.959 . S
H2046 C2060 0.961 . S
H2047 C2061 0.960 . S
H2048 C2061 0.961 . S
H2049 C2061 0.959 . S
H2050 C2064 0.929 . S
H2051 C2065 0.931 . S
H2052 C2067 0.930 . S
C2053 H2041 0.913 1_455 S
C2053 C2054 1.393 1_455 S
C2053 C2058 1.422 . S
C2054 C2053 1.393 1_655 S
C2054 C2055 1.376 1_655 S
C2055 H2042 0.930 . S
C2055 C2054 1.376 1_455 S
C2055 C2056 1.388 . S
C2056 H2043 0.930 . S
C2056 C2055 1.388 . S
C2056 C2057 1.390 . S
C2057 C2056 1.390 . S
C2057 C2058 1.394 . S
C2057 C2063 1.465 . S
C2058 C2053 1.422 . S
C2058 C2057 1.394 . S
C2058 C2059 1.516 . S
C2059 C2058 1.516 . S
C2059 C2060 1.502 . S
C2059 C2061 1.561 . S
C2059 C2062 1.526 . S
C2060 H2044 0.959 . S
C2060 H2045 0.959 . S
C2060 H2046 0.961 . S
C2060 C2059 1.502 . S
C2061 H2047 0.960 . S
C2061 H2048 0.961 . S
C2061 H2049 0.959 . S
C2061 C2059 1.561 . S
C2062 C2059 1.526 . S
C2062 C2063 1.396 . S
C2062 C2067 1.390 . S
C2063 C2057 1.465 . S
C2063 C2062 1.396 . S
C2063 C2064 1.399 . S
C2064 H2050 0.929 . S
C2064 C2063 1.399 . S
C2064 C2065 1.385 . S
C2065 H2051 0.931 . S
C2065 C2064 1.385 . S
C2065 C2066 1.389 . S
C2066 C2065 1.389 . S
C2066 C2067 1.387 . S
C2067 H2052 0.930 . S
C2067 C2062 1.390 . S
C2067 C2066 1.387 . S
H2068 C2080 0.930 . S
H2069 C2082 0.930 . S
H2070 C2083 0.930 . S
H2071 C2087 0.959 . S
H2072 C2087 0.959 . S
H2073 C2087 0.961 . S
H2074 C2088 0.960 . S
H2075 C2088 0.961 . S
H2076 C2088 0.959 . S
H2077 C2091 0.929 . S
H2078 C2092 0.931 . S
H2079 C2094 0.930 . S
C2080 H2068 0.930 . S
C2080 C2081 1.399 . S
C2080 C2085 1.399 . S
C2081 C2080 1.399 . S
C2081 C2082 1.376 . S
C2082 H2069 0.930 . S
C2082 C2081 1.376 . S
C2082 C2083 1.388 . S
C2083 H2070 0.930 . S
C2083 C2082 1.388 . S
C2083 C2084 1.390 . S
C2084 C2083 1.390 . S
C2084 C2085 1.394 . S
C2084 C2090 1.465 . S
C2085 C2080 1.399 . S
C2085 C2084 1.394 . S
C2085 C2086 1.516 . S
C2086 C2085 1.516 . S
C2086 C2087 1.502 . S
C2086 C2088 1.561 . S
C2086 C2089 1.526 . S
C2087 H2071 0.959 . S
C2087 H2072 0.959 . S
C2087 H2073 0.961 . S
C2087 C2086 1.502 . S
C2088 H2074 0.960 . S
C2088 H2075 0.961 . S
C2088 H2076 0.959 . S
C2088 C2086 1.561 . S
C2089 C2086 1.526 . S
C2089 C2090 1.396 . S
C2089 C2094 1.390 . S
C2090 C2084 1.465 . S
C2090 C2089 1.396 . S
C2090 C2091 1.399 . S
C2091 H2077 0.929 . S
C2091 C2090 1.399 . S
C2091 C2092 1.385 . S
C2092 H2078 0.931 . S
C2092 C2091 1.385 . S
C2092 C2093 1.389 . S
C2093 C2092 1.389 . S
C2093 C2094 1.387 . S
C2094 H2079 0.930 . S
C2094 C2089 1.390 . S
C2094 C2093 1.387 . S
H2095 C2107 0.930 . S
H2096 C2109 0.930 . S
H2097 C2110 0.930 . S
H2098 C2114 0.959 . S
H2099 C2114 0.959 . S
H2100 C2114 0.961 . S
H2101 C2115 0.960 . S
H2102 C2115 0.961 . S
H2103 C2115 0.959 . S
H2104 C2118 0.929 . S
H2105 C2119 0.931 . S
H2106 C2121 0.930 . S
C2107 H2095 0.930 . S
C2107 C2108 1.399 . S
C2107 C2112 1.399 . S
C2108 C2107 1.399 . S
C2108 C2109 1.376 . S
C2109 H2096 0.930 . S
C2109 C2108 1.376 . S
C2109 C2110 1.388 . S
C2110 H2097 0.930 . S
C2110 C2109 1.388 . S
C2110 C2111 1.390 . S
C2111 C2110 1.390 . S
C2111 C2112 1.394 . S
C2111 C2117 1.465 . S
C2112 C2107 1.399 . S
C2112 C2111 1.394 . S
C2112 C2113 1.516 . S
C2113 C2112 1.516 . S
C2113 C2114 1.502 . S
C2113 C2115 1.561 . S
C2113 C2116 1.526 . S
C2114 H2098 0.959 . S
C2114 H2099 0.959 . S
C2114 H2100 0.961 . S
C2114 C2113 1.502 . S
C2115 H2101 0.960 . S
C2115 H2102 0.961 . S
C2115 H2103 0.959 . S
C2115 C2113 1.561 . S
C2116 C2113 1.526 . S
C2116 C2117 1.396 . S
C2116 C2121 1.390 . S
C2117 C2111 1.465 . S
C2117 C2116 1.396 . S
C2117 C2118 1.399 . S
C2118 H2104 0.929 . S
C2118 C2117 1.399 . S
C2118 C2119 1.385 1_455 S
C2119 H2105 0.931 . S
C2119 C2118 1.385 1_655 S
C2119 C2120 1.389 . S
C2120 C2119 1.389 . S
C2120 C2121 1.387 1_655 S
C2121 H2106 0.930 . S
C2121 C2116 1.390 . S
C2121 C2120 1.387 1_455 S
H2122 C2134 0.930 . S
H2123 C2136 0.930 . S
H2124 C2137 0.930 . S
H2125 C2141 0.959 . S
H2126 C2141 0.959 . S
H2127 C2141 0.961 . S
H2128 C2142 0.960 . S
H2129 C2142 0.961 . S
H2130 C2142 0.959 . S
H2131 C2145 0.929 . S
H2132 C2146 0.931 . S
H2133 C2148 0.930 . S
C2134 H2122 0.930 . S
C2134 C2135 1.399 . S
C2134 C2139 1.399 . S
C2135 C2134 1.399 . S
C2135 C2136 1.376 . S
C2136 H2123 0.930 . S
C2136 C2135 1.376 . S
C2136 C2137 1.388 . S
C2137 H2124 0.930 . S
C2137 C2136 1.388 . S
C2137 C2138 1.390 . S
C2138 C2137 1.390 . S
C2138 C2139 1.394 . S
C2138 C2144 1.465 . S
C2139 C2134 1.399 . S
C2139 C2138 1.394 . S
C2139 C2140 1.516 . S
C2140 C2139 1.516 . S
C2140 C2141 1.502 . S
C2140 C2142 1.561 . S
C2140 C2143 1.526 . S
C2141 H2125 0.959 . S
C2141 H2126 0.959 . S
C2141 H2127 0.961 . S
C2141 C2140 1.502 . S
C2142 H2128 0.960 . S
C2142 H2129 0.961 . S
C2142 H2130 0.959 . S
C2142 C2140 1.561 . S
C2143 C2140 1.526 . S
C2143 C2144 1.396 . S
C2143 C2148 1.390 . S
C2144 C2138 1.465 . S
C2144 C2143 1.396 . S
C2144 C2145 1.399 . S
C2145 H2131 0.929 . S
C2145 C2144 1.399 . S
C2145 C2146 1.385 . S
C2146 H2132 0.931 . S
C2146 C2145 1.385 . S
C2146 C2147 1.389 . S
C2147 C2146 1.389 . S
C2147 C2148 1.387 . S
C2148 H2133 0.930 . S
C2148 C2143 1.390 . S
C2148 C2147 1.387 . S
H2149 C2161 0.930 . S
H2150 C2163 0.930 . S
H2151 C2164 0.930 . S
H2152 C2168 0.959 . S
H2153 C2168 0.959 . S
H2154 C2168 0.961 . S
H2155 C2169 0.960 . S
H2156 C2169 0.961 . S
H2157 C2169 0.959 . S
H2158 C2172 0.929 . S
H2159 C2173 0.931 . S
H2160 C2175 0.930 . S
C2161 H2149 0.930 . S
C2161 C2162 1.399 . S
C2161 C2166 1.399 . S
C2162 C2161 1.399 . S
C2162 C2163 1.376 . S
C2163 H2150 0.930 . S
C2163 C2162 1.376 . S
C2163 C2164 1.388 . S
C2164 H2151 0.930 . S
C2164 C2163 1.388 . S
C2164 C2165 1.390 . S
C2165 C2164 1.390 . S
C2165 C2166 1.394 . S
C2165 C2171 1.465 . S
C2166 C2161 1.399 . S
C2166 C2165 1.394 . S
C2166 C2167 1.516 . S
C2167 C2166 1.516 . S
C2167 C2168 1.502 . S
C2167 C2169 1.561 . S
C2167 C2170 1.526 . S
C2168 H2152 0.959 . S
C2168 H2153 0.959 . S
C2168 H2154 0.961 . S
C2168 C2167 1.502 . S
C2169 H2155 0.960 . S
C2169 H2156 0.961 . S
C2169 H2157 0.959 . S
C2169 C2167 1.561 . S
C2170 C2167 1.526 . S
C2170 C2171 1.396 . S
C2170 C2175 1.390 . S
C2171 C2165 1.465 . S
C2171 C2170 1.396 . S
C2171 C2172 1.399 . S
C2172 H2158 0.929 . S
C2172 C2171 1.399 . S
C2172 C2173 1.385 . S
C2173 H2159 0.931 . S
C2173 C2172 1.385 . S
C2173 C2174 1.389 . S
C2174 C2173 1.389 . S
C2174 C2175 1.387 . S
C2175 H2160 0.930 . S
C2175 C2170 1.390 . S
C2175 C2174 1.387 . S
C461 C67 1.507 . S
C473 C11 1.521 . S
C488 C81 1.502 . S
C500 C25 1.489 . S
C515 C95 1.496 . S
C527 C39 1.488 . S
C542 C53 1.523 . S
C554 C109 1.514 . S
C569 C123 1.521 . S
C581 C179 1.512 . S
C596 C193 1.501 . S
C608 C137 1.489 . S
C623 C151 1.522 . S
C635 C207 1.501 . S
C650 C221 1.505 . S
C662 C165 1.523 . S
C677 C235 1.502 . S
C689 C291 1.489 . S
C704 C305 1.488 . S
C716 C249 1.497 . S
C731 C319 1.499 . S
C743 C263 1.516 . S
C758 C333 1.523 . S
C770 C277 1.513 . S
C785 C347 1.488 . S
C797 C403 1.504 . S
C812 C361 1.509 . S
C824 C417 1.522 . S
C839 C375 1.521 . S
C851 C431 1.511 . S
C866 C389 1.505 . S
C878 C445 1.488 . S
C893 C9 1.264 1_565 S
C905 C107 1.288 . S
C920 C23 1.277 . S
C932 C65 1.280 1_545 S
C947 C37 1.286 1_545 S
C959 C79 1.249 . S
C974 C93 1.286 1_565 S
C986 C51 1.269 . S
C1001 C219 1.290 . S
C1013 C121 1.249 1_545 S
C1028 C177 1.291 1_565 S
C1040 C135 1.250 . S
C1055 C191 1.267 . S
C1067 C149 1.277 1_565 S
C1082 C163 1.282 . S
C1094 C205 1.261 1_545 S
C1109 C331 1.291 . S
C1121 C233 1.254 . S
C1136 C289 1.279 . S
C1148 C247 1.250 . S
C1163 C303 1.256 . S
C1175 C261 1.291 . S
C1190 C275 1.251 . S
C1202 C317 1.274 . S
C1217 C345 1.290 . S
C1229 C443 1.249 . S
C1244 C359 1.248 . S
C1256 C401 1.290 . S
C1271 C373 1.290 . S
C1283 C415 1.252 . S
C1298 C429 1.248 . S
C1310 C387 1.290 . S
C1325 C5 1.461 . S
C1337 C350 1.431 . S
C1352 C19 1.461 . S
C1364 C140 1.433 . S
C1379 C33 1.454 . S
C1391 C378 1.446 . S
C1406 C112 1.420 . S
C1418 C47 1.458 . S
C1433 C434 1.463 . S
C1445 C61 1.459 . S
C1460 C75 1.463 . S
C1472 C168 1.443 . S
C1487 C89 1.460 . S
C1499 C406 1.427 . S
C1514 C103 1.463 . S
C1526 C196 1.450 . S
C1541 C238 1.436 . S
C1553 C117 1.459 . S
C1568 C28 1.417 . S
C1580 C131 1.454 . S
C1595 C266 1.438 . S
C1607 C145 1.459 . S
C1622 C159 1.462 . S
C1634 C0 1.463 . S
C1649 C322 1.431 . S
C1661 C173 1.454 . S
C1676 C56 1.439 . S
C1688 C187 1.456 . S
C1703 C294 1.442 . S
C1715 C201 1.456 . S
C1730 C84 1.463 . S
C1742 C215 1.462 . S
C1757 C126 1.418 . S
C1769 C229 1.453 . S
C1784 C243 1.463 . S
C1796 C364 1.460 . S
C1811 C257 1.457 . S
C1823 C154 1.459 . S
C1838 C271 1.463 . S
C1850 C336 1.458 . S
C1865 C285 1.460 . S
C1877 C210 1.426 . S
C1892 C392 1.419 . S
C1904 C299 1.458 . S
C1919 C313 1.461 . S
C1931 C182 1.433 . S
C1946 C327 1.454 . S
C1958 C420 1.446 . S
C1973 C341 1.463 . S
C1985 C14 1.464 . S
C2000 C355 1.454 . S
C2012 C252 1.419 . S
C2027 C42 1.440 . S
C2039 C369 1.456 . S
C2054 C224 1.458 . S
C2066 C383 1.460 . S
C2081 C397 1.453 . S
C2093 C98 1.417 . S
C2108 C411 1.455 . S
C2120 C280 1.423 . S
C2135 C70 1.458 . S
C2147 C425 1.460 . S
C2162 C308 1.460 . S
C2174 C439 1.463 . S
