# Generated by pormake.
# Topology vby, (6)-cn, num edge types: 1
# Building blocks:
#     Node 0, Type 0, BuildingBlock: BETDAH_clean_sbu_0, # of connection points: 6
#     Node 1, Type 0, BuildingBlock: BETDAH_clean_sbu_0, # of connection points: 6
#     Node 2, Type 0, BuildingBlock: BETDAH_clean_sbu_0, # of connection points: 6
#     Node 3, Type 0, BuildingBlock: BETDAH_clean_sbu_0, # of connection points: 6
#     Node 4, Type 0, BuildingBlock: BETDAH_clean_sbu_0, # of connection points: 6
#     Node 5, Type 0, BuildingBlock: BETDAH_clean_sbu_0, # of connection points: 6
#     Node 6, Type 0, BuildingBlock: BETDAH_clean_sbu_0, # of connection points: 6
#     Node 7, Type 0, BuildingBlock: BETDAH_clean_sbu_0, # of connection points: 6
#     Edge 8, Type (0, 0), BuildingBlock: EZIPEK_clean_linker_0, # of connection points: 2
#     Edge 9, Type (0, 0), BuildingBlock: EZIPEK_clean_linker_0, # of connection points: 2
#     Edge 10, Type (0, 0), BuildingBlock: EZIPEK_clean_linker_0, # of connection points: 2
#     Edge 11, Type (0, 0), BuildingBlock: EZIPEK_clean_linker_0, # of connection points: 2
#     Edge 12, Type (0, 0), BuildingBlock: EZIPEK_clean_linker_0, # of connection points: 2
#     Edge 13, Type (0, 0), BuildingBlock: EZIPEK_clean_linker_0, # of connection points: 2
#     Edge 14, Type (0, 0), BuildingBlock: EZIPEK_clean_linker_0, # of connection points: 2
#     Edge 15, Type (0, 0), BuildingBlock: EZIPEK_clean_linker_0, # of connection points: 2
#     Edge 16, Type (0, 0), BuildingBlock: EZIPEK_clean_linker_0, # of connection points: 2
#     Edge 17, Type (0, 0), BuildingBlock: EZIPEK_clean_linker_0, # of connection points: 2
#     Edge 18, Type (0, 0), BuildingBlock: EZIPEK_clean_linker_0, # of connection points: 2
#     Edge 19, Type (0, 0), BuildingBlock: EZIPEK_clean_linker_0, # of connection points: 2
#     Edge 20, Type (0, 0), BuildingBlock: EZIPEK_clean_linker_0, # of connection points: 2
#     Edge 21, Type (0, 0), BuildingBlock: EZIPEK_clean_linker_0, # of connection points: 2
#     Edge 22, Type (0, 0), BuildingBlock: EZIPEK_clean_linker_0, # of connection points: 2
#     Edge 23, Type (0, 0), BuildingBlock: EZIPEK_clean_linker_0, # of connection points: 2
#     Edge 24, Type (0, 0), BuildingBlock: EZIPEK_clean_linker_0, # of connection points: 2
#     Edge 25, Type (0, 0), BuildingBlock: EZIPEK_clean_linker_0, # of connection points: 2
#     Edge 26, Type (0, 0), BuildingBlock: EZIPEK_clean_linker_0, # of connection points: 2
#     Edge 27, Type (0, 0), BuildingBlock: EZIPEK_clean_linker_0, # of connection points: 2
#     Edge 28, Type (0, 0), BuildingBlock: EZIPEK_clean_linker_0, # of connection points: 2
#     Edge 29, Type (0, 0), BuildingBlock: EZIPEK_clean_linker_0, # of connection points: 2
#     Edge 30, Type (0, 0), BuildingBlock: EZIPEK_clean_linker_0, # of connection points: 2
#     Edge 31, Type (0, 0), BuildingBlock: EZIPEK_clean_linker_0, # of connection points: 2
# Relax obj value: 0.205
# Max RMSD: 0.226
# Mean RMSD: 0.226
data_MOF--net-vby--node1-BETDAH_clean_sbu_0--edge1-EZIPEK_clean_linker_0
_symmetry_space_group_name_H-M    P1
_symmetry_Int_Tables_number       1
_symmetry_cell_setting            triclinic
loop_
_symmetry_equiv_pos_as_xyz
'x, y, z'
_cell_length_a     11.507905
_cell_length_b     87.504001
_cell_length_c     21.288574
_cell_angle_alpha  89.596177
_cell_angle_beta   84.8599
_cell_angle_gamma 89.296753
loop_
_atom_site_label
_atom_site_type_symbol
_atom_site_fract_x
_atom_site_fract_y
_atom_site_fract_z
_atom_type_partial_charge
Ho0 Ho 0.07138 0.40975 0.01855 0.0
Ho1 Ho 0.07405 0.37507 0.01801 0.0
C2 C 0.82452 0.39394 0.02258 0.0
C3 C 0.11061 0.43857 0.99671 0.0
C4 C 0.07047 0.4547 0.00239 0.0
C5 C 0.09085 0.46442 0.94985 0.0
C6 C 0.07476 0.48024 0.95585 0.0
C7 C 1.03802 0.48667 0.0146 0.0
C8 C 1.01244 0.47695 0.06674 0.0
C9 C 1.02882 0.46109 0.06077 0.0
C10 C 1.03536 0.39669 0.13451 0.0
C11 C 0.31962 0.39091 0.01312 0.0
C12 C 0.04663 0.34594 0.03902 0.0
C13 C 0.10962 0.33107 0.03791 0.0
C14 C 0.06928 0.31958 0.08047 0.0
C15 C 0.11868 0.30487 0.07687 0.0
C16 C 0.20948 0.30137 0.03055 0.0
C17 C 0.25228 0.31296 0.98889 0.0
C18 C 0.20271 0.32771 0.99249 0.0
C19 C 0.10173 0.38839 0.9015 0.0
O20 O 0.88033 0.40688 0.00961 0.0
O21 O 0.88049 0.38106 0.0351 0.0
O22 O 0.13479 0.4314 0.04803 0.0
O23 O 0.0655 0.42964 0.95648 0.0
O24 O 0.98542 0.40925 0.11742 0.0
O25 O 0.10692 0.39214 0.08978 0.0
O26 O 0.26384 0.37818 0.02918 0.0
O27 O 0.26327 0.40344 0.99721 0.0
O28 O 1.03499 0.35258 0.98482 0.0
O29 O 0.06734 0.35568 0.08281 0.0
O30 O 0.15541 0.37603 0.91771 0.0
O31 O 1.03421 0.3927 0.94804 0.0
H32 H 0.12437 0.45982 0.90458 0.0
H33 H 0.09494 0.48753 0.91509 0.0
H34 H 0.98381 0.4817 0.11245 0.0
H35 H 1.0132 0.45391 0.10224 0.0
H36 H 0.99729 0.32188 0.11563 0.0
H37 H 0.08445 0.29611 0.10941 0.0
H38 H 0.32229 0.31048 0.95281 0.0
H39 H 0.23526 0.33637 0.95902 0.0
Ho40 Ho 1.01687 0.66617 0.01025 0.0
Ho41 Ho 1.01697 0.63163 0.00934 0.0
C42 C 0.77174 0.64922 0.01499 0.0
C43 C 1.03707 0.69534 0.98892 0.0
C44 C 0.97566 0.71028 0.99901 0.0
C45 C 0.95225 0.71919 0.94627 0.0
C46 C 0.90502 0.73395 0.95371 0.0
C47 C 0.88059 0.74017 0.0141 0.0
C48 C 0.90163 0.73122 0.06709 0.0
C49 C 0.94892 0.71641 0.05967 0.0
C50 C 0.97764 0.65297 0.12695 0.0
C51 C 0.26508 0.64846 0.01081 0.0
C52 C 1.02933 0.60231 0.02068 0.0
C53 C 1.03737 0.58541 0.02666 0.0
C54 C 0.96264 0.5775 0.07131 0.0
C55 C 0.96193 0.56147 0.07249 0.0
C56 C 1.03618 0.55307 0.02922 0.0
C57 C 0.1128 0.56092 0.98564 0.0
C58 C 0.11322 0.57693 0.98424 0.0
C59 C 0.99413 0.64526 0.89475 0.0
O60 O 0.82995 0.66136 0.9931 0.0
O61 O 0.82663 0.63708 0.03576 0.0
O62 O 0.07543 0.68838 0.03771 0.0
O63 O 0.99537 0.68585 0.94964 0.0
O64 O 0.92713 0.66538 0.10888 0.0
O65 O 0.04825 0.64844 0.08218 0.0
O66 O 0.20815 0.63545 0.01942 0.0
O67 O 0.21091 0.66159 0.00147 0.0
O68 O 0.08729 0.60984 0.97491 0.0
O69 O 0.96803 0.61091 0.06196 0.0
O70 O 0.94029 0.63315 0.91581 0.0
O71 O 0.06071 0.64925 0.93538 0.0
H72 H 0.97299 0.71483 0.89902 0.0
H73 H 0.8894 0.74066 0.91226 0.0
H74 H 0.88314 0.73581 0.1141 0.0
H75 H 0.96645 0.70991 0.10131 0.0
H76 H 0.90258 0.58369 0.10429 0.0
H77 H 0.90232 0.55561 0.10653 0.0
H78 H 0.17083 0.55464 0.95194 0.0
H79 H 0.17141 0.58266 0.94907 0.0
Ho80 Ho 1.02337 0.66626 0.50958 0.0
Ho81 Ho 1.03384 0.62998 0.50475 0.0
C82 C 0.27636 0.64875 0.50558 0.0
C83 C 1.03196 0.69535 0.53235 0.0
C84 C 0.10568 0.70918 0.53329 0.0
C85 C 0.11321 0.71697 0.59033 0.0
C86 C 0.16277 0.73153 0.59074 0.0
C87 C 0.2048 0.73866 0.53401 0.0
C88 C 0.20187 0.73068 0.47723 0.0
C89 C 0.15294 0.71609 0.4768 0.0
C90 C 1.0055 0.65331 0.39452 0.0
C91 C 0.78366 0.64836 0.51262 0.0
C92 C 1.03896 0.60188 0.46575 0.0
C93 C 1.03548 0.58565 0.48613 0.0
C94 C 0.96216 0.57568 0.45715 0.0
C95 C 0.96432 0.55999 0.47005 0.0
C96 C 0.04006 0.55392 0.51219 0.0
C97 C 0.11135 0.5639 0.54272 0.0
C98 C 0.10932 0.57965 0.52971 0.0
C99 C 1.01509 0.63981 0.62722 0.0
O100 O 0.21739 0.66189 0.51053 0.0
O101 O 0.226 0.63536 0.49886 0.0
O102 O 1.01625 0.68958 0.47736 0.0
O103 O 1.03802 0.68485 0.57624 0.0
O104 O 0.95534 0.66595 0.41402 0.0
O105 O 0.0711 0.64869 0.43557 0.0
O106 O 0.84495 0.63623 0.49115 0.0
O107 O 0.83413 0.66066 0.5331 0.0
O108 O 0.13232 0.60971 0.47423 0.0
O109 O 0.94291 0.60996 0.47589 0.0
O110 O 1.0232 0.62555 0.61075 0.0
O111 O 1.01465 0.64745 0.57699 0.0
H112 H 0.07615 0.71208 0.63442 0.0
H113 H 0.16439 0.73749 0.63508 0.0
H114 H 0.23402 0.73595 0.43296 0.0
H115 H 0.14784 0.71054 0.43184 0.0
H116 H 0.90504 0.58 0.42315 0.0
H117 H 0.90865 0.55251 0.44605 0.0
H118 H 0.17027 0.55943 0.57548 0.0
H119 H 0.167 0.58706 0.55268 0.0
Ho120 Ho 1.03116 0.40897 0.51858 0.0
Ho121 Ho 0.04191 0.37488 0.52186 0.0
C122 C 0.28237 0.39184 0.51783 0.0
C123 C 0.04211 0.43831 0.5283 0.0
C124 C 0.04783 0.45522 0.5299 0.0
C125 C 0.04636 0.4631 0.58731 0.0
C126 C 0.04825 0.47914 0.58806 0.0
C127 C 0.0499 0.48755 0.53146 0.0
C128 C 0.05131 0.47967 0.47419 0.0
C129 C 0.05082 0.46369 0.47338 0.0
C130 C 1.0218 0.3955 0.40436 0.0
C131 C 0.7879 0.39206 0.52379 0.0
C132 C 1.03572 0.34548 0.50517 0.0
C133 C 0.96454 0.33144 0.50918 0.0
C134 C 0.97709 0.3211 0.4588 0.0
C135 C 0.92775 0.30656 0.46471 0.0
C136 C 0.86492 0.30207 0.52123 0.0
C137 C 0.84785 0.3126 0.57084 0.0
C138 C 0.89741 0.32717 0.56496 0.0
C139 C 0.0568 0.3882 0.63598 0.0
O140 O 0.22004 0.4041 0.53604 0.0
O141 O 0.23193 0.37945 0.49875 0.0
O142 O 0.08191 0.43079 0.47805 0.0
O143 O 0.99866 0.42976 0.57511 0.0
O144 O 0.96176 0.40739 0.42387 0.0
O145 O 0.08806 0.39151 0.44602 0.0
O146 O 0.8483 0.37916 0.51477 0.0
O147 O 0.83858 0.40518 0.5334 0.0
O148 O 0.05778 0.3519 0.55786 0.0
O149 O 1.02028 0.35544 0.46057 0.0
O150 O 0.11299 0.37604 0.61613 0.0
O151 O 0.98821 0.39231 0.5955 0.0
H152 H 0.04386 0.45686 0.63153 0.0
H153 H 0.04748 0.48499 0.63274 0.0
H154 H 0.05253 0.48593 0.43003 0.0
H155 H 0.05099 0.45795 0.42845 0.0
H156 H 1.02931 0.32404 0.41561 0.0
H157 H 0.94174 0.29862 0.42588 0.0
H158 H 0.79928 0.30936 0.61475 0.0
H159 H 0.88668 0.33486 0.60476 0.0
Ho160 Ho 0.56837 0.91119 0.01573 0.0
Ho161 Ho 0.56996 0.87644 0.0176 0.0
C162 C 0.32097 0.89539 0.02037 0.0
C163 C 0.60497 0.94007 0.99302 0.0
C164 C 0.56228 0.95607 0.00304 0.0
C165 C 0.49659 0.96346 0.95878 0.0
C166 C 0.47483 0.97927 0.96222 0.0
C167 C 0.5192 0.98799 0.0096 0.0
C168 C 0.58117 0.98059 0.05503 0.0
C169 C 0.60256 0.96482 0.05181 0.0
C170 C 0.53221 0.89855 0.13246 0.0
C171 C 0.81598 0.89229 0.01049 0.0
C172 C 0.54298 0.84744 0.04137 0.0
C173 C 0.6068 0.83262 0.04088 0.0
C174 C 0.57441 0.82174 0.08779 0.0
C175 C 0.62347 0.80701 0.08508 0.0
C176 C 0.7058 0.80287 0.03526 0.0
C177 C 0.74098 0.81386 0.98918 0.0
C178 C 0.69193 0.82864 0.99194 0.0
C179 C 0.59874 0.88925 0.90019 0.0
O180 O 0.37721 0.90826 0.00686 0.0
O181 O 0.3764 0.88253 0.03367 0.0
O182 O 0.64083 0.93268 0.04134 0.0
O183 O 0.55266 0.93117 0.95547 0.0
O184 O 0.48395 0.9112 0.1151 0.0
O185 O 0.60306 0.8938 0.08791 0.0
O186 O 0.75999 0.87967 0.02803 0.0
O187 O 0.75971 0.90472 0.99314 0.0
O188 O 0.52941 0.85381 0.98682 0.0
O189 O 0.56426 0.85741 0.08421 0.0
O190 O 0.65139 0.87689 0.9173 0.0
O191 O 0.53146 0.89383 0.94638 0.0
H192 H 0.46608 0.95716 0.91998 0.0
H193 H 0.42748 0.9848 0.92647 0.0
H194 H 0.61667 0.98714 0.09171 0.0
H195 H 0.6552 0.95961 0.08603 0.0
H196 H 0.50858 0.82452 0.12574 0.0
H197 H 0.59524 0.79871 0.12107 0.0
H198 H 0.80445 0.81089 0.95039 0.0
H199 H 0.71839 0.8368 0.95509 0.0
Ho200 Ho 0.5323 0.16545 0.00796 0.0
Ho201 Ho 0.53649 0.13091 0.01778 0.0
C202 C 0.28894 0.14778 0.0203 0.0
C203 C 0.54588 0.19424 0.97822 0.0
C204 C 0.48499 0.20917 0.98848 0.0
C205 C 0.47653 0.21903 0.93669 0.0
C206 C 0.42862 0.23374 0.94503 0.0
C207 C 0.38835 0.23891 0.00544 0.0
C208 C 0.39445 0.22899 0.05731 0.0
C209 C 0.44241 0.21422 0.04895 0.0
C210 C 0.4939 0.15425 0.12829 0.0
C211 C 0.78293 0.14866 0.01044 0.0
C212 C 0.56762 0.10223 0.0437 0.0
C213 C 0.53154 0.08619 0.03631 0.0
C214 C 0.52992 0.07638 0.08887 0.0
C215 C 0.51585 0.06063 0.0822 0.0
C216 C 0.50295 0.05437 0.02276 0.0
C217 C 0.4989 0.06423 0.97049 0.0
C218 C 0.51347 0.08003 0.97714 0.0
C219 C 0.50306 0.14213 0.90021 0.0
O220 O 0.34534 0.15977 0.9955 0.0
O221 O 0.34541 0.13604 0.04343 0.0
O222 O 0.5942 0.1881 0.02585 0.0
O223 O 0.49694 0.18412 0.94434 0.0
O224 O 0.44387 0.16633 0.10703 0.0
O225 O 0.5657 0.14919 0.08503 0.0
O226 O 0.72682 0.13583 0.02431 0.0
O227 O 0.72729 0.16141 0.99686 0.0
O228 O 0.61938 0.10918 0.99443 0.0
O229 O 0.49971 0.11133 0.07963 0.0
O230 O 0.45699 0.12984 0.92489 0.0
O231 O 0.57208 0.14724 0.9378 0.0
H232 H 0.5092 0.21544 0.88971 0.0
H233 H 0.42448 0.24119 0.90442 0.0
H234 H 0.36344 0.23275 0.10428 0.0
H235 H 0.44785 0.20688 0.08977 0.0
H236 H 0.54467 0.08083 0.13483 0.0
H237 H 0.51936 0.05324 0.12306 0.0
H238 H 0.48901 0.05961 0.92422 0.0
H239 H 0.51486 0.08732 0.93575 0.0
Ho240 Ho 0.54305 0.16565 0.51344 0.0
Ho241 Ho 0.54996 0.12953 0.50604 0.0
C242 C 0.79013 0.14757 0.51134 0.0
C243 C 0.55959 0.19488 0.52706 0.0
C244 C 0.62034 0.20908 0.5417 0.0
C245 C 0.55669 0.22063 0.57556 0.0
C246 C 0.60029 0.23548 0.57729 0.0
C247 C 0.70834 0.23907 0.545 0.0
C248 C 0.77522 0.22737 0.51404 0.0
C249 C 0.73166 0.2125 0.51236 0.0
C250 C 0.519 0.1532 0.39799 0.0
C251 C 0.29918 0.14824 0.51726 0.0
C252 C 0.56368 0.10158 0.46599 0.0
C253 C 0.53962 0.08544 0.48308 0.0
C254 C 0.52185 0.07511 0.43484 0.0
C255 C 0.51489 0.05941 0.44736 0.0
C256 C 0.52552 0.05374 0.50844 0.0
C257 C 0.53918 0.0641 0.55738 0.0
C258 C 0.54651 0.07985 0.54478 0.0
C259 C 0.52952 0.13868 0.62945 0.0
O260 O 0.72872 0.15969 0.53243 0.0
O261 O 0.73974 0.13569 0.48748 0.0
O262 O 0.59902 0.18743 0.47633 0.0
O263 O 0.51177 0.18603 0.57207 0.0
O264 O 0.47093 0.16572 0.41922 0.0
O265 O 0.58681 0.14836 0.43757 0.0
O266 O 0.35794 0.1355 0.50018 0.0
O267 O 0.35167 0.16085 0.53359 0.0
O268 O 0.64525 0.10825 0.49453 0.0
O269 O 0.47532 0.11071 0.45733 0.0
O270 O 0.53757 0.12454 0.61176 0.0
O271 O 0.53393 0.14674 0.58025 0.0
H272 H 0.47006 0.21838 0.5977 0.0
H273 H 0.54748 0.24434 0.60147 0.0
H274 H 0.8589 0.22991 0.48895 0.0
H275 H 0.78244 0.20389 0.48538 0.0
H276 H 0.51724 0.07914 0.38688 0.0
H277 H 0.50415 0.05162 0.40901 0.0
H278 H 0.54725 0.05995 0.60487 0.0
H279 H 0.56087 0.0876 0.58272 0.0
Ho280 Ho 0.52286 0.90884 0.51752 0.0
Ho281 Ho 0.53596 0.87497 0.52081 0.0
C282 C 0.77421 0.89214 0.51675 0.0
C283 C 0.53295 0.93822 0.52689 0.0
C284 C 0.54023 0.95512 0.53087 0.0
C285 C 0.48364 0.9631 0.58225 0.0
C286 C 0.48227 0.97914 0.58297 0.0
C287 C 0.53716 0.98747 0.53225 0.0
C288 C 0.5958 0.97953 0.48161 0.0
C289 C 0.59735 0.96353 0.4809 0.0
C290 C 0.51263 0.89545 0.40276 0.0
C291 C 0.28007 0.89184 0.52403 0.0
C292 C 0.53107 0.84545 0.50551 0.0
C293 C 0.46187 0.83125 0.51628 0.0
C294 C 0.39486 0.82568 0.46936 0.0
C295 C 0.34639 0.81105 0.47467 0.0
C296 C 0.36465 0.80165 0.52671 0.0
C297 C 0.42797 0.80734 0.57462 0.0
C298 C 0.47626 0.82196 0.56943 0.0
C299 C 0.54933 0.88819 0.63529 0.0
O300 O 0.71039 0.90402 0.53781 0.0
O301 O 0.72452 0.88007 0.49438 0.0
O302 O 0.58488 0.93059 0.47969 0.0
O303 O 0.4783 0.92971 0.5706 0.0
O304 O 0.45074 0.90708 0.42346 0.0
O305 O 0.58022 0.89154 0.44397 0.0
O306 O 0.34105 0.87894 0.51595 0.0
O307 O 0.33057 0.90505 0.53186 0.0
O308 O 0.56926 0.85204 0.5543 0.0
O309 O 0.50074 0.85535 0.46368 0.0
O310 O 0.60535 0.87603 0.61556 0.0
O311 O 0.48088 0.89228 0.59482 0.0
H312 H 0.43845 0.95697 0.62131 0.0
H313 H 0.43678 0.98506 0.62255 0.0
H314 H 0.63882 0.98574 0.4421 0.0
H315 H 0.64131 0.95775 0.44048 0.0
H316 H 0.38355 0.83239 0.42734 0.0
H317 H 0.29799 0.80684 0.43713 0.0
H318 H 0.44317 0.80025 0.61508 0.0
H319 H 0.52884 0.82574 0.60597 0.0
C320 C 0.49798 0.38992 0.07453 0.0
C321 C 0.44916 0.3915 0.01556 0.0
C322 C 0.64556 0.39551 0.96199 0.0
C323 C 0.69485 0.39355 0.02057 0.0
N324 N 0.67076 0.39033 0.13325 0.0
N325 N 0.47527 0.39373 0.90245 0.0
C326 C 0.62166 0.391 0.07701 0.0
C327 C 0.52267 0.39388 0.95917 0.0
N328 N 0.42537 0.38755 0.12817 0.0
N329 N 0.71648 0.39907 0.90896 0.0
H330 H 0.38636 0.39233 0.89853 0.0
H331 H 0.52372 0.39381 0.85881 0.0
H332 H 0.80705 0.39948 0.90799 0.0
H333 H 0.68627 0.40245 0.86636 0.0
H334 H 0.45278 0.38528 0.17249 0.0
H335 H 0.33474 0.38761 0.12883 0.0
H336 H 0.62499 0.38901 0.1772 0.0
H337 H 0.75974 0.39176 0.13672 0.0
C338 C 0.44551 0.64604 0.06982 0.0
C339 C 0.39458 0.64842 0.01203 0.0
C340 C 0.59037 0.65015 0.95586 0.0
C341 C 0.64156 0.64898 0.01419 0.0
N342 N 0.6174 0.64802 0.12777 0.0
N343 N 0.41672 0.65446 0.90098 0.0
C344 C 0.56892 0.64742 0.07149 0.0
C345 C 0.46661 0.65107 0.95544 0.0
N346 N 0.37577 0.64252 0.12326 0.0
N347 N 0.65984 0.64948 0.90042 0.0
H348 H 0.32697 0.65418 0.89741 0.0
H349 H 0.46349 0.65848 0.8602 0.0
H350 H 0.75005 0.64838 0.89863 0.0
H351 H 0.6282 0.64857 0.85632 0.0
H352 H 0.40768 0.63888 0.16515 0.0
H353 H 0.28497 0.64231 0.12487 0.0
H354 H 0.56904 0.64856 0.17142 0.0
H355 H 0.70663 0.6493 0.13088 0.0
C356 C 0.60358 0.64746 0.45213 0.0
C357 C 0.65342 0.64846 0.51078 0.0
C358 C 0.456 0.65166 0.56474 0.0
C359 C 0.40618 0.64902 0.50704 0.0
N360 N 0.43227 0.64276 0.39656 0.0
N361 N 0.62546 0.64874 0.62425 0.0
C362 C 0.48005 0.64633 0.45106 0.0
C363 C 0.57908 0.64988 0.56748 0.0
N364 N 0.67375 0.64849 0.39707 0.0
N365 N 0.38594 0.65598 0.61698 0.0
H366 H 0.71421 0.64686 0.62799 0.0
H367 H 0.57521 0.64813 0.66735 0.0
H368 H 0.29556 0.65708 0.6174 0.0
H369 H 0.41804 0.65964 0.65847 0.0
H370 H 0.64246 0.64942 0.35279 0.0
H371 H 0.76337 0.64998 0.39599 0.0
H372 H 0.48121 0.63884 0.35623 0.0
H373 H 0.34253 0.64278 0.39272 0.0
C374 C 0.5856 0.3921 0.57979 0.0
C375 C 0.6585 0.39188 0.52243 0.0
C376 C 0.48543 0.39066 0.46242 0.0
C377 C 0.41197 0.39187 0.51952 0.0
N378 N 0.39063 0.39465 0.63267 0.0
N379 N 0.67904 0.39349 0.40901 0.0
C380 C 0.46182 0.39294 0.57823 0.0
C381 C 0.60869 0.39177 0.46371 0.0
N382 N 0.63495 0.39095 0.63581 0.0
N383 N 0.43752 0.38842 0.40672 0.0
H384 H 0.76902 0.39451 0.40822 0.0
H385 H 0.64832 0.39523 0.36497 0.0
H386 H 0.34797 0.38859 0.4027 0.0
H387 H 0.48604 0.38543 0.36488 0.0
H388 H 0.58773 0.38938 0.67932 0.0
H389 H 0.72498 0.39056 0.63865 0.0
H390 H 0.41992 0.39752 0.67586 0.0
H391 H 0.3004 0.39383 0.63428 0.0
C392 C 0.99436 0.89178 0.07195 0.0
C393 C 0.94563 0.89291 0.01282 0.0
C394 C 0.14272 0.8963 0.9589 0.0
C395 C 0.19137 0.89504 0.01795 0.0
N396 N 0.16495 0.89401 0.13119 0.0
N397 N 0.97215 0.89425 0.89952 0.0
C398 C 0.11749 0.89329 0.0746 0.0
C399 C 1.01955 0.89478 0.95618 0.0
N400 N 0.92261 0.88916 0.12565 0.0
N401 N 0.21456 0.89916 0.90546 0.0
H402 H 0.88312 0.89291 0.89581 0.0
H403 H 1.02038 0.89406 0.85584 0.0
H404 H 0.30501 0.89971 0.90501 0.0
H405 H 0.18553 0.90183 0.8618 0.0
H406 H 0.95178 0.88646 0.16925 0.0
H407 H 0.832 0.88896 0.12657 0.0
H408 H 0.11694 0.89422 0.17493 0.0
H409 H 0.25378 0.89558 0.13467 0.0
C410 C 0.10416 0.13651 0.98458 0.0
C411 C 0.15866 0.14753 0.02071 0.0
C412 C 0.96508 0.15861 0.05411 0.0
C413 C 0.9127 0.14869 0.01255 0.0
N414 N 0.93655 0.13016 0.92923 0.0
N415 N 0.14098 0.17011 0.08564 0.0
C416 C 0.98345 0.13814 0.97554 0.0
C417 C 0.08906 0.15895 0.05384 0.0
N418 N 0.16677 0.12435 0.95899 0.0
N419 N 0.89619 0.16711 0.0966 0.0
H420 H 0.22974 0.17011 0.09148 0.0
H421 H 0.09695 0.17986 0.10334 0.0
H422 H 0.80559 0.16696 0.099 0.0
H423 H 0.92801 0.17317 0.1332 0.0
H424 H 0.12862 0.11508 0.9387 0.0
H425 H 0.25533 0.12273 0.96289 0.0
H426 H 0.98593 0.12366 0.89558 0.0
H427 H 0.84951 0.13131 0.92036 0.0
C428 C 0.10099 0.13727 0.55244 0.0
C429 C 0.16833 0.14837 0.517 0.0
C430 C 0.98679 0.1595 0.48118 0.0
C431 C 0.92063 0.1476 0.51232 0.0
N432 N 0.91921 0.12355 0.56939 0.0
N433 N 0.17551 0.16856 0.43884 0.0
C434 C 0.97914 0.13597 0.54521 0.0
C435 C 0.11111 0.15917 0.47947 0.0
N436 N 0.15219 0.12843 0.59573 0.0
N437 N 0.93135 0.17113 0.45207 0.0
H438 H 0.2657 0.16888 0.43609 0.0
H439 H 0.14057 0.17512 0.40397 0.0
H440 H 0.84302 0.17105 0.44497 0.0
H441 H 0.97201 0.18128 0.43744 0.0
H442 H 0.10548 0.12141 0.62836 0.0
H443 H 0.24009 0.12924 0.60352 0.0
H444 H 0.95984 0.1139 0.58666 0.0
H445 H 0.82966 0.12228 0.56824 0.0
C446 C 0.95332 0.89332 0.57755 0.0
C447 C 0.90385 0.89226 0.51878 0.0
C448 C 0.10105 0.88979 0.46419 0.0
C449 C 0.15048 0.89168 0.5225 0.0
N450 N 0.1254 0.89721 0.63362 0.0
N451 N 0.93011 0.89186 0.40524 0.0
C452 C 0.07695 0.8941 0.57881 0.0
C453 C 0.97767 0.89102 0.46185 0.0
N454 N 0.88241 0.89279 0.63254 0.0
N455 N 0.17248 0.88695 0.4107 0.0
H456 H 0.8407 0.89299 0.4015 0.0
H457 H 0.97896 0.8927 0.36183 0.0
H458 H 0.26287 0.88745 0.40947 0.0
H459 H 0.14298 0.88341 0.36841 0.0
H460 H 0.91272 0.89181 0.67702 0.0
H461 H 0.79219 0.89204 0.63372 0.0
H462 H 0.0775 0.90103 0.67443 0.0
H463 H 0.21514 0.89691 0.63744 0.0
C464 C 0.11691 0.52737 0.05862 0.0
C465 C 1.03255 0.53602 0.0285 0.0
C466 C 0.9421 0.51225 0.99711 0.0
C467 C 1.03324 0.50366 0.0218 0.0
N468 N 0.21702 0.50303 0.06822 0.0
N469 N 0.87289 0.53698 0.96255 0.0
C470 C 0.12306 0.51122 0.05073 0.0
C471 C 0.94705 0.52853 0.99606 0.0
N472 N 0.18985 0.5346 0.09577 0.0
N473 N 0.84928 0.50483 0.97611 0.0
H474 H 0.87235 0.5489 0.96165 0.0
H475 H 0.81774 0.53223 0.93197 0.0
H476 H 0.84306 0.49294 0.97609 0.0
H477 H 0.77413 0.51039 0.96364 0.0
H478 H 0.24443 0.52884 0.12465 0.0
H479 H 0.18905 0.54643 0.10179 0.0
H480 H 0.29157 0.50804 0.0828 0.0
H481 H 0.22496 0.4912 0.06342 0.0
C482 C 0.94973 0.51305 0.5551 0.0
C483 C 0.0506 0.50465 0.53146 0.0
C484 C 0.14443 0.52856 0.49448 0.0
C485 C 0.04697 0.53702 0.52204 0.0
N486 N 0.86715 0.53758 0.58933 0.0
N487 N 0.25296 0.50461 0.4907 0.0
C488 C 0.95274 0.52932 0.55572 0.0
C489 C 0.15074 0.51248 0.50479 0.0
N490 N 0.84918 0.50552 0.57423 0.0
N491 N 0.22867 0.53576 0.45612 0.0
H492 H 0.26133 0.49287 0.49827 0.0
H493 H 0.33197 0.50989 0.47721 0.0
H494 H 0.22749 0.54749 0.44722 0.0
H495 H 0.29445 0.52993 0.42889 0.0
H496 H 0.76942 0.51106 0.58527 0.0
H497 H 0.84281 0.49365 0.57395 0.0
H498 H 0.80266 0.53264 0.62012 0.0
H499 H 0.86679 0.5495 0.59088 0.0
C500 C 0.60343 1.01365 0.97929 0.0
C501 C 0.50996 1.00502 0.00891 0.0
C502 C 0.40407 0.02884 0.03881 0.0
C503 C 0.50274 0.0374 0.01505 0.0
N504 N 0.70332 0.0379 0.97088 0.0
N505 N 0.326 1.0041 0.07224 0.0
C506 C 0.60413 0.02979 0.98712 0.0
C507 C 0.41127 1.01254 0.04003 0.0
N508 N 0.69105 1.0064 0.94289 0.0
N509 N 0.3026 0.03631 0.05879 0.0
H510 H 0.327 0.99218 0.07259 0.0
H511 H 0.25851 1.00884 0.10195 0.0
H512 H 0.29451 0.0482 0.05843 0.0
H513 H 0.224 0.03081 0.07078 0.0
H514 H 0.75449 1.01216 0.91424 0.0
H515 H 0.69506 0.99457 0.9371 0.0
H516 H 0.78383 0.03281 0.95729 0.0
H517 H 0.70809 0.04971 0.97593 0.0
C518 C 0.63303 0.02912 0.52915 0.0
C519 C 0.52651 0.03687 0.52 0.0
C520 C 0.42693 1.01221 0.51789 0.0
C521 C 0.53165 1.00454 0.53108 0.0
N522 N 0.72805 1.0058 0.56137 0.0
N523 N 0.31774 0.03612 0.51776 0.0
C524 C 0.63283 1.01305 0.54042 0.0
C525 C 0.42206 0.02849 0.51806 0.0
N526 N 0.73537 0.037 0.52429 0.0
N527 N 0.33354 1.00395 0.50257 0.0
H528 H 0.31101 0.04802 0.51801 0.0
H529 H 0.2373 0.03072 0.52298 0.0
H530 H 0.33339 0.99203 0.50201 0.0
H531 H 0.2597 1.00887 0.48547 0.0
H532 H 0.81713 0.03173 0.52323 0.0
H533 H 0.73955 0.04875 0.51607 0.0
H534 H 0.79986 1.01156 0.5755 0.0
H535 H 0.73099 0.99405 0.57003 0.0
C536 C 0.19024 0.27409 0.99599 0.0
C537 C 0.25602 0.28538 0.02428 0.0
C538 C 0.41126 0.26637 0.03772 0.0
C539 C 0.34137 0.25484 0.01395 0.0
N540 N 0.15682 0.24711 0.98009 0.0
N541 N 0.42058 0.29192 0.08075 0.0
C542 C 0.22861 0.25854 0.9958 0.0
C543 C 0.36426 0.28141 0.0476 0.0
N544 N 0.09289 0.27833 0.96746 0.0
N545 N 0.52406 0.26307 0.04884 0.0
H546 H 0.38963 0.30308 0.08815 0.0
H547 H 0.49285 0.28929 0.10508 0.0
H548 H 0.56122 0.25219 0.0428 0.0
H549 H 0.5837 0.27132 0.05933 0.0
H550 H 0.04843 0.27099 0.93996 0.0
H551 H 0.06176 0.28957 0.96678 0.0
H552 H 0.06921 0.24883 0.9731 0.0
H553 H 0.18201 0.23562 0.97928 0.0
C554 C 0.86585 0.78323 0.04561 0.0
C555 C 0.75114 0.7868 0.03009 0.0
C556 C 0.71732 0.75957 0.01132 0.0
C557 C 0.83522 0.7562 0.02135 0.0
N558 N 1.02732 0.76503 0.0388 0.0
N559 N 0.57355 0.77885 0.98841 0.0
C560 C 0.91108 0.7681 0.03607 0.0
C561 C 0.67839 0.77509 0.01029 0.0
N562 N 0.93039 0.79421 0.07121 0.0
N563 N 0.64162 0.7479 0.00451 0.0
H564 H 0.54198 0.79006 0.98685 0.0
H565 H 0.52232 0.77108 0.96682 0.0
H566 H 0.66704 0.73642 0.00484 0.0
H567 H 0.5519 0.7495 0.00397 0.0
H568 H 1.00929 0.79195 0.09004 0.0
H569 H 0.90061 0.80543 0.07833 0.0
H570 H 0.08941 0.77347 0.04224 0.0
H571 H 0.0636 0.75411 0.03257 0.0
C572 C 0.36665 0.75796 0.52008 0.0
C573 C 0.24621 0.75481 0.53347 0.0
C574 C 0.20491 0.78229 0.54807 0.0
C575 C 0.32352 0.78551 0.52927 0.0
N576 N 0.51437 0.7767 0.48792 0.0
N577 N 0.04747 0.76407 0.5499 0.0
C578 C 0.40366 0.77341 0.51265 0.0
C579 C 0.16438 0.76701 0.5448 0.0
N580 N 0.44616 0.74619 0.51641 0.0
N581 N 0.13154 0.7938 0.5705 0.0
H582 H 1.01408 0.75309 0.54734 0.0
H583 H 0.98332 0.77259 0.55124 0.0
H584 H 0.15775 0.80515 0.57267 0.0
H585 H 0.0477 0.79196 0.59162 0.0
H586 H 0.53601 0.74778 0.51354 0.0
H587 H 0.42235 0.73476 0.52167 0.0
H588 H 0.57279 0.7685 0.46823 0.0
H589 H 0.54513 0.78783 0.48228 0.0
C590 C 0.72518 0.28131 0.49782 0.0
C591 C 0.82228 0.28604 0.52915 0.0
C592 C 0.83791 0.26035 0.57562 0.0
C593 C 0.74757 0.25528 0.5399 0.0
N594 N 0.61781 0.2602 0.45893 0.0
N595 N 0.98343 0.27955 0.58979 0.0
C596 C 0.6945 0.26558 0.49879 0.0
C597 C 0.88197 0.27542 0.56598 0.0
N598 N 0.66038 0.29193 0.46847 0.0
N599 N 0.87958 0.25087 0.61995 0.0
H600 H 1.01852 0.29045 0.58394 0.0
H601 H 1.03797 0.27186 0.61086 0.0
H602 H 0.8502 0.23973 0.62783 0.0
H603 H 0.93611 0.25441 0.65237 0.0
H604 H 0.58134 0.28951 0.45065 0.0
H605 H 0.68047 0.30353 0.46666 0.0
H606 H 0.58619 0.26675 0.423 0.0
H607 H 0.59311 0.24878 0.45809 0.0
C608 C 0.98104 0.38285 0.23678 0.0
C609 C 0.05168 0.39374 0.20223 0.0
C610 C 0.13013 0.40204 0.30017 0.0
C611 C 0.04723 0.39275 0.33543 0.0
N612 N 0.90024 0.3734 0.33918 0.0
N613 N 0.19886 0.41315 0.19876 0.0
C614 C 0.97574 0.3827 0.30411 0.0
C615 C 0.12935 0.40299 0.23326 0.0
N616 N 0.9191 0.3727 0.20488 0.0
N617 N 0.20924 0.41 0.33095 0.0
H618 H 0.20574 0.41353 0.14961 0.0
H619 H 0.24714 0.42159 0.21825 0.0
H620 H 0.20997 0.40992 0.37987 0.0
H621 H 0.27961 0.41581 0.30846 0.0
H622 H 0.8721 0.36366 0.22587 0.0
H623 H 0.92052 0.37277 0.15585 0.0
H624 H 0.83637 0.3669 0.32085 0.0
H625 H 0.89914 0.37255 0.38809 0.0
C626 C 0.94182 0.63956 0.23199 0.0
C627 C 1.00233 0.65083 0.1941 0.0
C628 C 0.09643 0.65979 0.28643 0.0
C629 C 1.02373 0.65002 0.32553 0.0
N630 N 0.90026 0.62813 0.33623 0.0
N631 N 0.14466 0.67092 0.18262 0.0
C632 C 0.95379 0.63906 0.29827 0.0
C633 C 0.08331 0.66057 0.22047 0.0
N634 N 0.87133 0.6296 0.20445 0.0
N635 N 0.17962 0.66805 0.31271 0.0
H636 H 0.14339 0.67117 0.13376 0.0
H637 H 0.19444 0.67961 0.19915 0.0
H638 H 0.19178 0.66745 0.36066 0.0
H639 H 0.2429 0.67451 0.28712 0.0
H640 H 0.81984 0.6214 0.22852 0.0
H641 H 0.86377 0.62953 0.15603 0.0
H642 H 0.84715 0.61961 0.3214 0.0
H643 H 0.9145 0.62723 0.38361 0.0
C644 C 0.10743 0.63782 0.79279 0.0
C645 C 1.02193 0.64736 0.82552 0.0
C646 C 0.9529 0.65577 0.72461 0.0
C647 C 1.03179 0.64524 0.69239 0.0
N648 N 0.21101 0.63076 0.69274 0.0
N649 N 0.88704 0.66846 0.82307 0.0
C650 C 0.11774 0.63772 0.72568 0.0
C651 C 0.95256 0.65738 0.7914 0.0
N652 N 0.17552 0.62835 0.82583 0.0
N653 N 0.87487 0.66368 0.692 0.0
H654 H 0.88547 0.66975 0.87175 0.0
H655 H 0.84198 0.67707 0.80116 0.0
H656 H 0.87922 0.66368 0.6431 0.0
H657 H 0.80445 0.66991 0.71307 0.0
H658 H 0.22801 0.61966 0.80513 0.0
H659 H 0.17555 0.62867 0.87476 0.0
H660 H 0.28275 0.62635 0.71363 0.0
H661 H 0.22281 0.63091 0.64357 0.0
C662 C 0.97563 0.38084 0.74507 0.0
C663 C 0.03959 0.39136 0.70493 0.0
C664 C 0.12976 0.40174 0.79584 0.0
C665 C 0.07142 0.39059 0.83534 0.0
N666 N 0.91689 0.37218 0.85171 0.0
N667 N 0.15078 0.41439 0.69332 0.0
C668 C 0.98689 0.38102 0.81123 0.0
C669 C 0.10773 0.4027 0.73094 0.0
N670 N 0.90773 0.37026 0.71928 0.0
N671 N 0.20938 0.411 0.81993 0.0
H672 H 0.13529 0.4152 0.64593 0.0
H673 H 0.19319 0.4238 0.70967 0.0
H674 H 0.22373 0.41098 0.86763 0.0
H675 H 0.26501 0.41819 0.79255 0.0
H676 H 0.87068 0.36096 0.74393 0.0
H677 H 0.89162 0.3705 0.67181 0.0
H678 H 0.84549 0.36621 0.83845 0.0
H679 H 0.92385 0.37176 0.90015 0.0
C680 C 0.62391 0.9043 0.23236 0.0
C681 C 0.54628 0.89533 0.20019 0.0
C682 C 0.47677 0.8829 0.30028 0.0
C683 C 0.54052 0.8935 0.3334 0.0
N684 N 0.67832 0.91404 0.33208 0.0
N685 N 0.40228 0.87562 0.20158 0.0
C686 C 0.61668 0.90397 0.29961 0.0
C687 C 0.47498 0.88432 0.23355 0.0
N688 N 0.70506 0.91306 0.1984 0.0
N689 N 0.41858 0.87143 0.33288 0.0
H690 H 0.40381 0.8758 0.15257 0.0
H691 H 0.3373 0.86871 0.22323 0.0
H692 H 0.41671 0.87042 0.38167 0.0
H693 H 0.37925 0.86237 0.31188 0.0
H694 H 0.77236 0.91863 0.21801 0.0
H695 H 0.71134 0.91378 0.14931 0.0
H696 H 0.72334 0.9233 0.3114 0.0
H697 H 0.68098 0.91352 0.38086 0.0
C698 C 0.45027 0.14102 0.23352 0.0
C699 C 0.51156 0.15243 0.19668 0.0
C700 C 0.60685 0.16027 0.29019 0.0
C701 C 0.53307 0.15046 0.32857 0.0
N702 N 0.3787 0.13207 0.33773 0.0
N703 N 0.63847 0.17427 0.19179 0.0
C704 C 0.45412 0.14085 0.30035 0.0
C705 C 0.58802 0.16235 0.22541 0.0
N706 N 0.38773 0.13039 0.20473 0.0
N707 N 0.69509 0.16764 0.31589 0.0
H708 H 0.62771 0.17624 0.14435 0.0
H709 H 0.68382 0.18292 0.21199 0.0
H710 H 0.71061 0.16637 0.36315 0.0
H711 H 0.75947 0.17375 0.28931 0.0
H712 H 0.3519 0.12076 0.22761 0.0
H713 H 0.37874 0.13061 0.15655 0.0
H714 H 0.30854 0.12636 0.3215 0.0
H715 H 0.38316 0.13116 0.38613 0.0
C716 C 0.61764 0.13766 0.79512 0.0
C717 C 0.51851 0.14412 0.83016 0.0
C718 C 0.43126 0.14972 0.73072 0.0
C719 C 0.53248 0.14368 0.69622 0.0
N720 N 0.73486 0.13663 0.69491 0.0
N721 N 0.34071 0.15898 0.83094 0.0
C722 C 0.62993 0.13923 0.72841 0.0
C723 C 0.42862 0.15108 0.79773 0.0
N724 N 0.69612 0.12904 0.82486 0.0
N725 N 0.33552 0.15337 0.69996 0.0
H726 H 0.33576 0.16 0.87976 0.0
H727 H 0.27871 0.16555 0.80991 0.0
H728 H 0.3362 0.1529 0.65109 0.0
H729 H 0.25409 0.15603 0.72285 0.0
H730 H 0.7638 0.12283 0.80081 0.0
H731 H 0.68624 0.12676 0.8731 0.0
H732 H 0.81193 0.13453 0.7159 0.0
H733 H 0.74632 0.13847 0.64635 0.0
C734 C 0.47054 0.88104 0.74492 0.0
C735 C 0.53303 0.89154 0.70405 0.0
C736 C 0.62474 0.90224 0.79376 0.0
C737 C 0.56784 0.89113 0.83402 0.0
N738 N 0.41512 0.87251 0.85209 0.0
N739 N 0.64241 0.91467 0.6907 0.0
C740 C 0.48347 0.88137 0.81088 0.0
C741 C 0.60115 0.90302 0.72907 0.0
N742 N 0.40216 0.87039 0.71997 0.0
N743 N 0.70424 0.91168 0.81696 0.0
H744 H 0.62375 0.9155 0.64379 0.0
H745 H 0.68556 0.92412 0.70622 0.0
H746 H 0.71967 0.91179 0.86451 0.0
H747 H 0.75878 0.91888 0.78901 0.0
H748 H 0.366 0.86109 0.74507 0.0
H749 H 0.38449 0.87058 0.67273 0.0
H750 H 0.34406 0.86635 0.83957 0.0
H751 H 0.42304 0.87223 0.90045 0.0
loop_
_geom_bond_atom_site_label_1
_geom_bond_atom_site_label_2
_geom_bond_distance
_geom_bond_site_symmetry_2
_ccdc_geom_bond_type
Ho0 C3 2.811 1_455 S
Ho0 O20 2.322 1_455 S
Ho0 O22 2.378 . S
Ho0 O23 2.524 1_454 S
Ho0 O24 2.381 . S
Ho0 O25 2.669 . S
Ho0 O27 2.346 . S
Ho0 O31 2.305 1_554 S
Ho1 C12 2.811 . S
Ho1 O21 2.346 1_455 S
Ho1 O25 2.305 . S
Ho1 O26 2.322 1_554 S
Ho1 O28 2.378 1_554 S
Ho1 O29 2.524 . S
Ho1 O30 2.381 1_554 S
Ho1 O31 2.669 1_554 S
C2 O20 1.259 . S
C2 O21 1.268 . S
C3 Ho0 2.811 1_655 S
C3 C4 1.488 . S
C3 O22 1.215 1_655 S
C3 O23 1.289 1_554 S
C4 C3 1.488 . S
C4 C5 1.348 1_554 S
C4 C9 1.413 . S
C5 C4 1.348 1_556 S
C5 C6 1.442 . S
C5 H32 0.930 . S
C6 C5 1.442 . S
C6 C7 1.381 1_556 S
C6 H33 0.931 . S
C7 C6 1.381 1_554 S
C7 C8 1.321 . S
C8 C7 1.321 . S
C8 C9 1.403 . S
C8 H34 0.934 . S
C9 C4 1.413 . S
C9 C8 1.403 . S
C9 H35 0.930 . S
C10 O24 1.275 . S
C10 O25 1.256 . S
C11 O26 1.259 1_554 S
C11 O27 1.268 . S
C12 Ho1 2.811 . S
C12 C13 1.488 . S
C12 O28 1.215 1_554 S
C12 O29 1.289 . S
C13 C12 1.488 . S
C13 C14 1.348 . S
C13 C18 1.413 1_554 S
C14 C13 1.348 . S
C14 C15 1.442 . S
C14 H36 0.930 . S
C15 C14 1.442 . S
C15 C16 1.381 . S
C15 H37 0.931 . S
C16 C15 1.381 . S
C16 C17 1.321 1_554 S
C17 C16 1.321 1_556 S
C17 C18 1.403 . S
C17 H38 0.934 . S
C18 C13 1.413 1_556 S
C18 C17 1.403 . S
C18 H39 0.930 . S
C19 O30 1.275 . S
C19 O31 1.256 . S
O20 Ho0 2.322 1_655 S
O20 C2 1.259 . S
O21 Ho1 2.346 1_655 S
O21 C2 1.268 . S
O22 Ho0 2.378 . S
O22 C3 1.215 1_455 S
O23 Ho0 2.524 1_656 S
O23 C3 1.289 1_556 S
O24 Ho0 2.381 . S
O24 C10 1.275 . S
O25 Ho0 2.669 . S
O25 Ho1 2.305 . S
O25 C10 1.256 . S
O26 Ho1 2.322 1_556 S
O26 C11 1.259 1_556 S
O27 Ho0 2.346 . S
O27 C11 1.268 . S
O28 Ho1 2.378 1_556 S
O28 C12 1.215 1_556 S
O29 Ho1 2.524 . S
O29 C12 1.289 . S
O30 Ho1 2.381 1_556 S
O30 C19 1.275 . S
O31 Ho0 2.305 1_556 S
O31 Ho1 2.669 1_556 S
O31 C19 1.256 . S
H32 C5 0.930 . S
H33 C6 0.931 . S
H34 C8 0.934 . S
H35 C9 0.930 . S
H36 C14 0.930 . S
H37 C15 0.931 . S
H38 C17 0.934 . S
H39 C18 0.930 . S
Ho40 C43 2.811 . S
Ho40 O60 2.322 . S
Ho40 O62 2.378 . S
Ho40 O63 2.524 1_554 S
Ho40 O64 2.381 . S
Ho40 O65 2.669 . S
Ho40 O67 2.346 1_655 S
Ho40 O71 2.305 1_554 S
Ho41 C52 2.811 1_655 S
Ho41 O61 2.346 . S
Ho41 O65 2.305 . S
Ho41 O66 2.322 1_654 S
Ho41 O68 2.378 1_554 S
Ho41 O69 2.524 1_655 S
Ho41 O70 2.381 1_554 S
Ho41 O71 2.669 1_554 S
C42 O60 1.259 . S
C42 O61 1.268 . S
C43 Ho40 2.811 . S
C43 C44 1.488 . S
C43 O62 1.215 . S
C43 O63 1.289 1_554 S
C44 C43 1.488 . S
C44 C45 1.348 1_554 S
C44 C49 1.413 . S
C45 C44 1.348 1_556 S
C45 C46 1.442 . S
C45 H72 0.930 . S
C46 C45 1.442 . S
C46 C47 1.381 1_556 S
C46 H73 0.931 . S
C47 C46 1.381 1_554 S
C47 C48 1.321 . S
C48 C47 1.321 . S
C48 C49 1.403 . S
C48 H74 0.934 . S
C49 C44 1.413 . S
C49 C48 1.403 . S
C49 H75 0.930 . S
C50 O64 1.275 . S
C50 O65 1.256 . S
C51 O66 1.259 1_554 S
C51 O67 1.268 . S
C52 Ho41 2.811 1_455 S
C52 C53 1.488 . S
C52 O68 1.215 1_454 S
C52 O69 1.289 . S
C53 C52 1.488 . S
C53 C54 1.348 . S
C53 C58 1.413 1_554 S
C54 C53 1.348 . S
C54 C55 1.442 . S
C54 H76 0.930 . S
C55 C54 1.442 . S
C55 C56 1.381 . S
C55 H77 0.931 . S
C56 C55 1.381 . S
C56 C57 1.321 1_554 S
C57 C56 1.321 1_556 S
C57 C58 1.403 . S
C57 H78 0.934 . S
C58 C53 1.413 1_556 S
C58 C57 1.403 . S
C58 H79 0.930 . S
C59 O70 1.275 . S
C59 O71 1.256 . S
O60 Ho40 2.322 . S
O60 C42 1.259 . S
O61 Ho41 2.346 . S
O61 C42 1.268 . S
O62 Ho40 2.378 . S
O62 C43 1.215 . S
O63 Ho40 2.524 1_556 S
O63 C43 1.289 1_556 S
O64 Ho40 2.381 . S
O64 C50 1.275 . S
O65 Ho40 2.669 . S
O65 Ho41 2.305 . S
O65 C50 1.256 . S
O66 Ho41 2.322 1_456 S
O66 C51 1.259 1_556 S
O67 Ho40 2.346 1_455 S
O67 C51 1.268 . S
O68 Ho41 2.378 1_556 S
O68 C52 1.215 1_656 S
O69 Ho41 2.524 1_455 S
O69 C52 1.289 . S
O70 Ho41 2.381 1_556 S
O70 C59 1.275 . S
O71 Ho40 2.305 1_556 S
O71 Ho41 2.669 1_556 S
O71 C59 1.256 . S
H72 C45 0.930 . S
H73 C46 0.931 . S
H74 C48 0.934 . S
H75 C49 0.930 . S
H76 C54 0.930 . S
H77 C55 0.931 . S
H78 C57 0.934 . S
H79 C58 0.930 . S
Ho80 C83 2.811 . S
Ho80 O100 2.322 . S
Ho80 O102 2.378 . S
Ho80 O103 2.524 . S
Ho80 O104 2.381 . S
Ho80 O105 2.669 . S
Ho80 O107 2.346 1_455 S
Ho80 O111 2.305 . S
Ho81 C92 2.811 1_455 S
Ho81 O101 2.346 . S
Ho81 O105 2.305 . S
Ho81 O106 2.322 1_455 S
Ho81 O108 2.378 . S
Ho81 O109 2.524 1_455 S
Ho81 O110 2.381 . S
Ho81 O111 2.669 . S
C82 O100 1.259 . S
C82 O101 1.268 . S
C83 Ho80 2.811 . S
C83 C84 1.488 . S
C83 O102 1.215 . S
C83 O103 1.289 . S
C84 C83 1.488 . S
C84 C85 1.348 . S
C84 C89 1.413 . S
C85 C84 1.348 . S
C85 C86 1.442 . S
C85 H112 0.930 . S
C86 C85 1.442 . S
C86 C87 1.381 . S
C86 H113 0.931 . S
C87 C86 1.381 . S
C87 C88 1.321 . S
C88 C87 1.321 . S
C88 C89 1.403 . S
C88 H114 0.934 . S
C89 C84 1.413 . S
C89 C88 1.403 . S
C89 H115 0.930 . S
C90 O104 1.275 . S
C90 O105 1.256 . S
C91 O106 1.259 . S
C91 O107 1.268 . S
C92 Ho81 2.811 1_655 S
C92 C93 1.488 . S
C92 O108 1.215 1_655 S
C92 O109 1.289 . S
C93 C92 1.488 . S
C93 C94 1.348 . S
C93 C98 1.413 . S
C94 C93 1.348 . S
C94 C95 1.442 . S
C94 H116 0.930 . S
C95 C94 1.442 . S
C95 C96 1.381 . S
C95 H117 0.931 . S
C96 C95 1.381 . S
C96 C97 1.321 . S
C97 C96 1.321 . S
C97 C98 1.403 . S
C97 H118 0.934 . S
C98 C93 1.413 . S
C98 C97 1.403 . S
C98 H119 0.930 . S
C99 O110 1.275 . S
C99 O111 1.256 . S
O100 Ho80 2.322 . S
O100 C82 1.259 . S
O101 Ho81 2.346 . S
O101 C82 1.268 . S
O102 Ho80 2.378 . S
O102 C83 1.215 . S
O103 Ho80 2.524 . S
O103 C83 1.289 . S
O104 Ho80 2.381 . S
O104 C90 1.275 . S
O105 Ho80 2.669 . S
O105 Ho81 2.305 . S
O105 C90 1.256 . S
O106 Ho81 2.322 1_655 S
O106 C91 1.259 . S
O107 Ho80 2.346 1_655 S
O107 C91 1.268 . S
O108 Ho81 2.378 . S
O108 C92 1.215 1_455 S
O109 Ho81 2.524 1_655 S
O109 C92 1.289 . S
O110 Ho81 2.381 . S
O110 C99 1.275 . S
O111 Ho80 2.305 . S
O111 Ho81 2.669 . S
O111 C99 1.256 . S
H112 C85 0.930 . S
H113 C86 0.931 . S
H114 C88 0.934 . S
H115 C89 0.930 . S
H116 C94 0.930 . S
H117 C95 0.931 . S
H118 C97 0.934 . S
H119 C98 0.930 . S
Ho120 C123 2.811 1_655 S
Ho120 O140 2.322 1_655 S
Ho120 O142 2.378 . S
Ho120 O143 2.524 1_655 S
Ho120 O144 2.381 . S
Ho120 O145 2.669 . S
Ho120 O147 2.346 . S
Ho120 O151 2.305 . S
Ho121 C132 2.811 . S
Ho121 O141 2.346 1_655 S
Ho121 O145 2.305 . S
Ho121 O146 2.322 . S
Ho121 O148 2.378 . S
Ho121 O149 2.524 . S
Ho121 O150 2.381 . S
Ho121 O151 2.669 . S
C122 O140 1.259 . S
C122 O141 1.268 . S
C123 Ho120 2.811 1_455 S
C123 C124 1.488 . S
C123 O142 1.215 1_455 S
C123 O143 1.289 . S
C124 C123 1.488 . S
C124 C125 1.348 . S
C124 C129 1.413 . S
C125 C124 1.348 . S
C125 C126 1.442 . S
C125 H152 0.930 . S
C126 C125 1.442 . S
C126 C127 1.381 . S
C126 H153 0.931 . S
C127 C126 1.381 . S
C127 C128 1.321 . S
C128 C127 1.321 . S
C128 C129 1.403 . S
C128 H154 0.934 . S
C129 C124 1.413 . S
C129 C128 1.403 . S
C129 H155 0.930 . S
C130 O144 1.275 . S
C130 O145 1.256 . S
C131 O146 1.259 . S
C131 O147 1.268 . S
C132 Ho121 2.811 . S
C132 C133 1.488 . S
C132 O148 1.215 . S
C132 O149 1.289 . S
C133 C132 1.488 . S
C133 C134 1.348 . S
C133 C138 1.413 . S
C134 C133 1.348 . S
C134 C135 1.442 . S
C134 H156 0.930 . S
C135 C134 1.442 . S
C135 C136 1.381 . S
C135 H157 0.931 . S
C136 C135 1.381 . S
C136 C137 1.321 . S
C137 C136 1.321 . S
C137 C138 1.403 . S
C137 H158 0.934 . S
C138 C133 1.413 . S
C138 C137 1.403 . S
C138 H159 0.930 . S
C139 O150 1.275 . S
C139 O151 1.256 . S
O140 Ho120 2.322 1_455 S
O140 C122 1.259 . S
O141 Ho121 2.346 1_455 S
O141 C122 1.268 . S
O142 Ho120 2.378 . S
O142 C123 1.215 1_655 S
O143 Ho120 2.524 1_455 S
O143 C123 1.289 . S
O144 Ho120 2.381 . S
O144 C130 1.275 . S
O145 Ho120 2.669 . S
O145 Ho121 2.305 . S
O145 C130 1.256 . S
O146 Ho121 2.322 . S
O146 C131 1.259 . S
O147 Ho120 2.346 . S
O147 C131 1.268 . S
O148 Ho121 2.378 . S
O148 C132 1.215 . S
O149 Ho121 2.524 . S
O149 C132 1.289 . S
O150 Ho121 2.381 . S
O150 C139 1.275 . S
O151 Ho120 2.305 . S
O151 Ho121 2.669 . S
O151 C139 1.256 . S
H152 C125 0.930 . S
H153 C126 0.931 . S
H154 C128 0.934 . S
H155 C129 0.930 . S
H156 C134 0.930 . S
H157 C135 0.931 . S
H158 C137 0.934 . S
H159 C138 0.930 . S
Ho160 C163 2.811 . S
Ho160 O180 2.322 . S
Ho160 O182 2.378 . S
Ho160 O183 2.524 1_554 S
Ho160 O184 2.381 . S
Ho160 O185 2.669 . S
Ho160 O187 2.346 . S
Ho160 O191 2.305 1_554 S
Ho161 C172 2.811 . S
Ho161 O181 2.346 . S
Ho161 O185 2.305 . S
Ho161 O186 2.322 1_554 S
Ho161 O188 2.378 1_554 S
Ho161 O189 2.524 . S
Ho161 O190 2.381 1_554 S
Ho161 O191 2.669 1_554 S
C162 O180 1.259 . S
C162 O181 1.268 . S
C163 Ho160 2.811 . S
C163 C164 1.488 . S
C163 O182 1.215 . S
C163 O183 1.289 1_554 S
C164 C163 1.488 . S
C164 C165 1.348 1_554 S
C164 C169 1.413 . S
C165 C164 1.348 1_556 S
C165 C166 1.442 . S
C165 H192 0.930 . S
C166 C165 1.442 . S
C166 C167 1.381 1_556 S
C166 H193 0.931 . S
C167 C166 1.381 1_554 S
C167 C168 1.321 . S
C168 C167 1.321 . S
C168 C169 1.403 . S
C168 H194 0.934 . S
C169 C164 1.413 . S
C169 C168 1.403 . S
C169 H195 0.930 . S
C170 O184 1.275 . S
C170 O185 1.256 . S
C171 O186 1.259 1_554 S
C171 O187 1.268 . S
C172 Ho161 2.811 . S
C172 C173 1.488 . S
C172 O188 1.215 1_554 S
C172 O189 1.289 . S
C173 C172 1.488 . S
C173 C174 1.348 . S
C173 C178 1.413 1_554 S
C174 C173 1.348 . S
C174 C175 1.442 . S
C174 H196 0.930 . S
C175 C174 1.442 . S
C175 C176 1.381 . S
C175 H197 0.931 . S
C176 C175 1.381 . S
C176 C177 1.321 1_554 S
C177 C176 1.321 1_556 S
C177 C178 1.403 . S
C177 H198 0.934 . S
C178 C173 1.413 1_556 S
C178 C177 1.403 . S
C178 H199 0.930 . S
C179 O190 1.275 . S
C179 O191 1.256 . S
O180 Ho160 2.322 . S
O180 C162 1.259 . S
O181 Ho161 2.346 . S
O181 C162 1.268 . S
O182 Ho160 2.378 . S
O182 C163 1.215 . S
O183 Ho160 2.524 1_556 S
O183 C163 1.289 1_556 S
O184 Ho160 2.381 . S
O184 C170 1.275 . S
O185 Ho160 2.669 . S
O185 Ho161 2.305 . S
O185 C170 1.256 . S
O186 Ho161 2.322 1_556 S
O186 C171 1.259 1_556 S
O187 Ho160 2.346 . S
O187 C171 1.268 . S
O188 Ho161 2.378 1_556 S
O188 C172 1.215 1_556 S
O189 Ho161 2.524 . S
O189 C172 1.289 . S
O190 Ho161 2.381 1_556 S
O190 C179 1.275 . S
O191 Ho160 2.305 1_556 S
O191 Ho161 2.669 1_556 S
O191 C179 1.256 . S
H192 C165 0.930 . S
H193 C166 0.931 . S
H194 C168 0.934 . S
H195 C169 0.930 . S
H196 C174 0.930 . S
H197 C175 0.931 . S
H198 C177 0.934 . S
H199 C178 0.930 . S
Ho200 C203 2.811 . S
Ho200 O220 2.322 . S
Ho200 O222 2.378 . S
Ho200 O223 2.524 1_554 S
Ho200 O224 2.381 . S
Ho200 O225 2.669 . S
Ho200 O227 2.346 . S
Ho200 O231 2.305 1_554 S
Ho201 C212 2.811 . S
Ho201 O221 2.346 . S
Ho201 O225 2.305 . S
Ho201 O226 2.322 1_554 S
Ho201 O228 2.378 1_554 S
Ho201 O229 2.524 . S
Ho201 O230 2.381 1_554 S
Ho201 O231 2.669 1_554 S
C202 O220 1.259 . S
C202 O221 1.268 . S
C203 Ho200 2.811 . S
C203 C204 1.488 . S
C203 O222 1.215 . S
C203 O223 1.289 1_554 S
C204 C203 1.488 . S
C204 C205 1.348 1_554 S
C204 C209 1.413 . S
C205 C204 1.348 1_556 S
C205 C206 1.442 . S
C205 H232 0.930 . S
C206 C205 1.442 . S
C206 C207 1.381 1_556 S
C206 H233 0.931 . S
C207 C206 1.381 1_554 S
C207 C208 1.321 . S
C208 C207 1.321 . S
C208 C209 1.403 . S
C208 H234 0.934 . S
C209 C204 1.413 . S
C209 C208 1.403 . S
C209 H235 0.930 . S
C210 O224 1.275 . S
C210 O225 1.256 . S
C211 O226 1.259 1_554 S
C211 O227 1.268 . S
C212 Ho201 2.811 . S
C212 C213 1.488 . S
C212 O228 1.215 1_554 S
C212 O229 1.289 . S
C213 C212 1.488 . S
C213 C214 1.348 . S
C213 C218 1.413 1_554 S
C214 C213 1.348 . S
C214 C215 1.442 . S
C214 H236 0.930 . S
C215 C214 1.442 . S
C215 C216 1.381 . S
C215 H237 0.931 . S
C216 C215 1.381 . S
C216 C217 1.321 1_554 S
C217 C216 1.321 1_556 S
C217 C218 1.403 . S
C217 H238 0.934 . S
C218 C213 1.413 1_556 S
C218 C217 1.403 . S
C218 H239 0.930 . S
C219 O230 1.275 . S
C219 O231 1.256 . S
O220 Ho200 2.322 . S
O220 C202 1.259 . S
O221 Ho201 2.346 . S
O221 C202 1.268 . S
O222 Ho200 2.378 . S
O222 C203 1.215 . S
O223 Ho200 2.524 1_556 S
O223 C203 1.289 1_556 S
O224 Ho200 2.381 . S
O224 C210 1.275 . S
O225 Ho200 2.669 . S
O225 Ho201 2.305 . S
O225 C210 1.256 . S
O226 Ho201 2.322 1_556 S
O226 C211 1.259 1_556 S
O227 Ho200 2.346 . S
O227 C211 1.268 . S
O228 Ho201 2.378 1_556 S
O228 C212 1.215 1_556 S
O229 Ho201 2.524 . S
O229 C212 1.289 . S
O230 Ho201 2.381 1_556 S
O230 C219 1.275 . S
O231 Ho200 2.305 1_556 S
O231 Ho201 2.669 1_556 S
O231 C219 1.256 . S
H232 C205 0.930 . S
H233 C206 0.931 . S
H234 C208 0.934 . S
H235 C209 0.930 . S
H236 C214 0.930 . S
H237 C215 0.931 . S
H238 C217 0.934 . S
H239 C218 0.930 . S
Ho240 C243 2.811 . S
Ho240 O260 2.322 . S
Ho240 O262 2.378 . S
Ho240 O263 2.524 . S
Ho240 O264 2.381 . S
Ho240 O265 2.669 . S
Ho240 O267 2.346 . S
Ho240 O271 2.305 . S
Ho241 C252 2.811 . S
Ho241 O261 2.346 . S
Ho241 O265 2.305 . S
Ho241 O266 2.322 . S
Ho241 O268 2.378 . S
Ho241 O269 2.524 . S
Ho241 O270 2.381 . S
Ho241 O271 2.669 . S
C242 O260 1.259 . S
C242 O261 1.268 . S
C243 Ho240 2.811 . S
C243 C244 1.488 . S
C243 O262 1.215 . S
C243 O263 1.289 . S
C244 C243 1.488 . S
C244 C245 1.348 . S
C244 C249 1.413 . S
C245 C244 1.348 . S
C245 C246 1.442 . S
C245 H272 0.930 . S
C246 C245 1.442 . S
C246 C247 1.381 . S
C246 H273 0.931 . S
C247 C246 1.381 . S
C247 C248 1.321 . S
C248 C247 1.321 . S
C248 C249 1.403 . S
C248 H274 0.934 . S
C249 C244 1.413 . S
C249 C248 1.403 . S
C249 H275 0.930 . S
C250 O264 1.275 . S
C250 O265 1.256 . S
C251 O266 1.259 . S
C251 O267 1.268 . S
C252 Ho241 2.811 . S
C252 C253 1.488 . S
C252 O268 1.215 . S
C252 O269 1.289 . S
C253 C252 1.488 . S
C253 C254 1.348 . S
C253 C258 1.413 . S
C254 C253 1.348 . S
C254 C255 1.442 . S
C254 H276 0.930 . S
C255 C254 1.442 . S
C255 C256 1.381 . S
C255 H277 0.931 . S
C256 C255 1.381 . S
C256 C257 1.321 . S
C257 C256 1.321 . S
C257 C258 1.403 . S
C257 H278 0.934 . S
C258 C253 1.413 . S
C258 C257 1.403 . S
C258 H279 0.930 . S
C259 O270 1.275 . S
C259 O271 1.256 . S
O260 Ho240 2.322 . S
O260 C242 1.259 . S
O261 Ho241 2.346 . S
O261 C242 1.268 . S
O262 Ho240 2.378 . S
O262 C243 1.215 . S
O263 Ho240 2.524 . S
O263 C243 1.289 . S
O264 Ho240 2.381 . S
O264 C250 1.275 . S
O265 Ho240 2.669 . S
O265 Ho241 2.305 . S
O265 C250 1.256 . S
O266 Ho241 2.322 . S
O266 C251 1.259 . S
O267 Ho240 2.346 . S
O267 C251 1.268 . S
O268 Ho241 2.378 . S
O268 C252 1.215 . S
O269 Ho241 2.524 . S
O269 C252 1.289 . S
O270 Ho241 2.381 . S
O270 C259 1.275 . S
O271 Ho240 2.305 . S
O271 Ho241 2.669 . S
O271 C259 1.256 . S
H272 C245 0.930 . S
H273 C246 0.931 . S
H274 C248 0.934 . S
H275 C249 0.930 . S
H276 C254 0.930 . S
H277 C255 0.931 . S
H278 C257 0.934 . S
H279 C258 0.930 . S
Ho280 C283 2.811 . S
Ho280 O300 2.322 . S
Ho280 O302 2.378 . S
Ho280 O303 2.524 . S
Ho280 O304 2.381 . S
Ho280 O305 2.669 . S
Ho280 O307 2.346 . S
Ho280 O311 2.305 . S
Ho281 C292 2.811 . S
Ho281 O301 2.346 . S
Ho281 O305 2.305 . S
Ho281 O306 2.322 . S
Ho281 O308 2.378 . S
Ho281 O309 2.524 . S
Ho281 O310 2.381 . S
Ho281 O311 2.669 . S
C282 O300 1.259 . S
C282 O301 1.268 . S
C283 Ho280 2.811 . S
C283 C284 1.488 . S
C283 O302 1.215 . S
C283 O303 1.289 . S
C284 C283 1.488 . S
C284 C285 1.348 . S
C284 C289 1.413 . S
C285 C284 1.348 . S
C285 C286 1.442 . S
C285 H312 0.930 . S
C286 C285 1.442 . S
C286 C287 1.381 . S
C286 H313 0.931 . S
C287 C286 1.381 . S
C287 C288 1.321 . S
C288 C287 1.321 . S
C288 C289 1.403 . S
C288 H314 0.934 . S
C289 C284 1.413 . S
C289 C288 1.403 . S
C289 H315 0.930 . S
C290 O304 1.275 . S
C290 O305 1.256 . S
C291 O306 1.259 . S
C291 O307 1.268 . S
C292 Ho281 2.811 . S
C292 C293 1.488 . S
C292 O308 1.215 . S
C292 O309 1.289 . S
C293 C292 1.488 . S
C293 C294 1.348 . S
C293 C298 1.413 . S
C294 C293 1.348 . S
C294 C295 1.442 . S
C294 H316 0.930 . S
C295 C294 1.442 . S
C295 C296 1.381 . S
C295 H317 0.931 . S
C296 C295 1.381 . S
C296 C297 1.321 . S
C297 C296 1.321 . S
C297 C298 1.403 . S
C297 H318 0.934 . S
C298 C293 1.413 . S
C298 C297 1.403 . S
C298 H319 0.930 . S
C299 O310 1.275 . S
C299 O311 1.256 . S
O300 Ho280 2.322 . S
O300 C282 1.259 . S
O301 Ho281 2.346 . S
O301 C282 1.268 . S
O302 Ho280 2.378 . S
O302 C283 1.215 . S
O303 Ho280 2.524 . S
O303 C283 1.289 . S
O304 Ho280 2.381 . S
O304 C290 1.275 . S
O305 Ho280 2.669 . S
O305 Ho281 2.305 . S
O305 C290 1.256 . S
O306 Ho281 2.322 . S
O306 C291 1.259 . S
O307 Ho280 2.346 . S
O307 C291 1.268 . S
O308 Ho281 2.378 . S
O308 C292 1.215 . S
O309 Ho281 2.524 . S
O309 C292 1.289 . S
O310 Ho281 2.381 . S
O310 C299 1.275 . S
O311 Ho280 2.305 . S
O311 Ho281 2.669 . S
O311 C299 1.256 . S
H312 C285 0.930 . S
H313 C286 0.931 . S
H314 C288 0.934 . S
H315 C289 0.930 . S
H316 C294 0.930 . S
H317 C295 0.931 . S
H318 C297 0.934 . S
H319 C298 0.930 . S
C320 C321 1.363 . S
C320 C326 1.379 . S
C320 N328 1.356 . S
C321 C320 1.363 . S
C321 C327 1.363 1_554 S
C322 C323 1.363 1_556 S
C322 C327 1.379 . S
C322 N329 1.356 . S
C323 C322 1.363 1_554 S
C323 C326 1.363 . S
N324 C326 1.356 . S
N324 H336 0.984 . S
N324 H337 0.985 . S
N325 C327 1.356 . S
N325 H330 0.984 . S
N325 H331 0.985 . S
C326 C320 1.379 . S
C326 C323 1.363 . S
C326 N324 1.356 . S
C327 C321 1.363 1_556 S
C327 C322 1.379 . S
C327 N325 1.356 . S
N328 C320 1.356 . S
N328 H334 0.984 . S
N328 H335 0.984 . S
N329 C322 1.356 . S
N329 H332 0.984 . S
N329 H333 0.985 . S
H330 N325 0.984 . S
H331 N325 0.985 . S
H332 N329 0.984 . S
H333 N329 0.985 . S
H334 N328 0.984 . S
H335 N328 0.984 . S
H336 N324 0.984 . S
H337 N324 0.985 . S
C338 C339 1.363 . S
C338 C344 1.379 . S
C338 N346 1.356 . S
C339 C338 1.363 . S
C339 C345 1.363 1_554 S
C340 C341 1.363 1_556 S
C340 C345 1.379 . S
C340 N347 1.356 . S
C341 C340 1.363 1_554 S
C341 C344 1.363 . S
N342 C344 1.356 . S
N342 H354 0.984 . S
N342 H355 0.985 . S
N343 C345 1.356 . S
N343 H348 0.984 . S
N343 H349 0.985 . S
C344 C338 1.379 . S
C344 C341 1.363 . S
C344 N342 1.356 . S
C345 C339 1.363 1_556 S
C345 C340 1.379 . S
C345 N343 1.356 . S
N346 C338 1.356 . S
N346 H352 0.984 . S
N346 H353 0.984 . S
N347 C340 1.356 . S
N347 H350 0.984 . S
N347 H351 0.985 . S
H348 N343 0.984 . S
H349 N343 0.985 . S
H350 N347 0.984 . S
H351 N347 0.985 . S
H352 N346 0.984 . S
H353 N346 0.984 . S
H354 N342 0.984 . S
H355 N342 0.985 . S
C356 C357 1.363 . S
C356 C362 1.379 . S
C356 N364 1.356 . S
C357 C356 1.363 . S
C357 C363 1.363 . S
C358 C359 1.363 . S
C358 C363 1.379 . S
C358 N365 1.356 . S
C359 C358 1.363 . S
C359 C362 1.363 . S
N360 C362 1.356 . S
N360 H372 0.984 . S
N360 H373 0.985 . S
N361 C363 1.356 . S
N361 H366 0.984 . S
N361 H367 0.985 . S
C362 C356 1.379 . S
C362 C359 1.363 . S
C362 N360 1.356 . S
C363 C357 1.363 . S
C363 C358 1.379 . S
C363 N361 1.356 . S
N364 C356 1.356 . S
N364 H370 0.984 . S
N364 H371 0.984 . S
N365 C358 1.356 . S
N365 H368 0.984 . S
N365 H369 0.985 . S
H366 N361 0.984 . S
H367 N361 0.985 . S
H368 N365 0.984 . S
H369 N365 0.985 . S
H370 N364 0.984 . S
H371 N364 0.984 . S
H372 N360 0.984 . S
H373 N360 0.985 . S
C374 C375 1.363 . S
C374 C380 1.379 . S
C374 N382 1.356 . S
C375 C374 1.363 . S
C375 C381 1.363 . S
C376 C377 1.363 . S
C376 C381 1.379 . S
C376 N383 1.356 . S
C377 C376 1.363 . S
C377 C380 1.363 . S
N378 C380 1.356 . S
N378 H390 0.984 . S
N378 H391 0.985 . S
N379 C381 1.356 . S
N379 H384 0.984 . S
N379 H385 0.985 . S
C380 C374 1.379 . S
C380 C377 1.363 . S
C380 N378 1.356 . S
C381 C375 1.363 . S
C381 C376 1.379 . S
C381 N379 1.356 . S
N382 C374 1.356 . S
N382 H388 0.984 . S
N382 H389 0.984 . S
N383 C376 1.356 . S
N383 H386 0.984 . S
N383 H387 0.985 . S
H384 N379 0.984 . S
H385 N379 0.985 . S
H386 N383 0.984 . S
H387 N383 0.985 . S
H388 N382 0.984 . S
H389 N382 0.984 . S
H390 N378 0.984 . S
H391 N378 0.985 . S
C392 C393 1.363 . S
C392 C398 1.379 1_655 S
C392 N400 1.356 . S
C393 C392 1.363 . S
C393 C399 1.363 1_654 S
C394 C395 1.363 1_556 S
C394 C399 1.379 . S
C394 N401 1.356 . S
C395 C394 1.363 1_554 S
C395 C398 1.363 . S
N396 C398 1.356 . S
N396 H408 0.984 . S
N396 H409 0.985 . S
N397 C399 1.356 1_655 S
N397 H402 0.984 . S
N397 H403 0.985 1_655 S
C398 C392 1.379 1_455 S
C398 C395 1.363 . S
C398 N396 1.356 . S
C399 C393 1.363 1_456 S
C399 C394 1.379 . S
C399 N397 1.356 1_455 S
N400 C392 1.356 . S
N400 H406 0.984 . S
N400 H407 0.984 . S
N401 C394 1.356 . S
N401 H404 0.984 . S
N401 H405 0.985 . S
H402 N397 0.984 . S
H403 N397 0.985 1_455 S
H404 N401 0.984 . S
H405 N401 0.985 . S
H406 N400 0.984 . S
H407 N400 0.984 . S
H408 N396 0.984 . S
H409 N396 0.985 . S
C410 C411 1.363 1_556 S
C410 C416 1.379 1_455 S
C410 N418 1.356 . S
C411 C410 1.363 1_554 S
C411 C417 1.363 1_455 S
C412 C413 1.363 . S
C412 C417 1.379 . S
C412 N419 1.356 . S
C413 C412 1.363 . S
C413 C416 1.363 1_554 S
N414 C416 1.356 . S
N414 H426 0.984 . S
N414 H427 0.985 . S
N415 C417 1.356 1_455 S
N415 H420 0.984 . S
N415 H421 0.985 1_455 S
C416 C410 1.379 1_655 S
C416 C413 1.363 1_556 S
C416 N414 1.356 . S
C417 C411 1.363 1_655 S
C417 C412 1.379 . S
C417 N415 1.356 1_655 S
N418 C410 1.356 . S
N418 H424 0.984 . S
N418 H425 0.984 . S
N419 C412 1.356 . S
N419 H422 0.984 . S
N419 H423 0.985 . S
H420 N415 0.984 . S
H421 N415 0.985 1_655 S
H422 N419 0.984 . S
H423 N419 0.985 . S
H424 N418 0.984 . S
H425 N418 0.984 . S
H426 N414 0.984 . S
H427 N414 0.985 . S
C428 C429 1.363 . S
C428 C434 1.379 1_455 S
C428 N436 1.356 . S
C429 C428 1.363 . S
C429 C435 1.363 . S
C430 C431 1.363 1_455 S
C430 C435 1.379 . S
C430 N437 1.356 1_455 S
C431 C430 1.363 1_655 S
C431 C434 1.363 . S
N432 C434 1.356 . S
N432 H444 0.984 . S
N432 H445 0.985 . S
N433 C435 1.356 . S
N433 H438 0.984 . S
N433 H439 0.985 . S
C434 C428 1.379 1_655 S
C434 C431 1.363 . S
C434 N432 1.356 . S
C435 C429 1.363 . S
C435 C430 1.379 . S
C435 N433 1.356 . S
N436 C428 1.356 . S
N436 H442 0.984 . S
N436 H443 0.984 . S
N437 C430 1.356 1_655 S
N437 H440 0.984 . S
N437 H441 0.985 1_655 S
H438 N433 0.984 . S
H439 N433 0.985 . S
H440 N437 0.984 . S
H441 N437 0.985 1_455 S
H442 N436 0.984 . S
H443 N436 0.984 . S
H444 N432 0.984 . S
H445 N432 0.985 . S
C446 C447 1.363 . S
C446 C452 1.379 1_655 S
C446 N454 1.356 . S
C447 C446 1.363 . S
C447 C453 1.363 . S
C448 C449 1.363 1_655 S
C448 C453 1.379 . S
C448 N455 1.356 1_655 S
C449 C448 1.363 1_455 S
C449 C452 1.363 . S
N450 C452 1.356 . S
N450 H462 0.984 . S
N450 H463 0.985 . S
N451 C453 1.356 . S
N451 H456 0.984 . S
N451 H457 0.985 . S
C452 C446 1.379 1_455 S
C452 C449 1.363 . S
C452 N450 1.356 . S
C453 C447 1.363 . S
C453 C448 1.379 . S
C453 N451 1.356 . S
N454 C446 1.356 . S
N454 H460 0.984 . S
N454 H461 0.984 . S
N455 C448 1.356 1_455 S
N455 H458 0.984 . S
N455 H459 0.985 . S
H456 N451 0.984 . S
H457 N451 0.985 . S
H458 N455 0.984 . S
H459 N455 0.985 . S
H460 N454 0.984 . S
H461 N454 0.984 . S
H462 N450 0.984 . S
H463 N450 0.985 . S
C464 C465 1.363 . S
C464 C470 1.379 1_455 S
C464 N472 1.356 . S
C465 C464 1.363 . S
C465 C471 1.363 1_554 S
C466 C467 1.363 1_556 S
C466 C471 1.379 1_655 S
C466 N473 1.356 . S
C467 C466 1.363 1_554 S
C467 C470 1.363 . S
N468 C470 1.356 . S
N468 H480 0.984 . S
N468 H481 0.985 . S
N469 C471 1.356 . S
N469 H474 0.984 . S
N469 H475 0.985 . S
C470 C464 1.379 1_655 S
C470 C467 1.363 . S
C470 N468 1.356 . S
C471 C465 1.363 1_556 S
C471 C466 1.379 1_455 S
C471 N469 1.356 . S
N472 C464 1.356 . S
N472 H478 0.984 . S
N472 H479 0.984 . S
N473 C466 1.356 . S
N473 H476 0.984 . S
N473 H477 0.985 . S
H474 N469 0.984 . S
H475 N469 0.985 . S
H476 N473 0.984 . S
H477 N473 0.985 . S
H478 N472 0.984 . S
H479 N472 0.984 . S
H480 N468 0.984 . S
H481 N468 0.985 . S
C482 C483 1.363 1_655 S
C482 C488 1.379 . S
C482 N490 1.357 . S
C483 C482 1.363 1_455 S
C483 C489 1.363 . S
C484 C485 1.363 1_455 S
C484 C489 1.379 . S
C484 N491 1.357 . S
C485 C484 1.363 1_655 S
C485 C488 1.363 . S
N486 C488 1.356 . S
N486 H498 0.984 . S
N486 H499 0.985 . S
N487 C489 1.356 . S
N487 H492 0.984 . S
N487 H493 0.985 . S
C488 C482 1.379 . S
C488 C485 1.363 . S
C488 N486 1.356 . S
C489 C483 1.363 . S
C489 C484 1.379 . S
C489 N487 1.356 . S
N490 C482 1.357 . S
N490 H496 0.987 . S
N490 H497 0.981 1_655 S
N491 C484 1.357 . S
N491 H494 0.979 1_455 S
N491 H495 0.988 . S
H492 N487 0.984 . S
H493 N487 0.985 . S
H494 N491 0.979 1_655 S
H495 N491 0.988 . S
H496 N490 0.987 . S
H497 N490 0.981 1_455 S
H498 N486 0.984 . S
H499 N486 0.985 . S
C500 C501 1.363 1_556 S
C500 C506 1.379 1_565 S
C500 N508 1.356 . S
C501 C500 1.363 1_554 S
C501 C507 1.363 . S
C502 C503 1.363 . S
C502 C507 1.379 1_545 S
C502 N509 1.356 . S
C503 C502 1.363 . S
C503 C506 1.363 1_554 S
N504 C506 1.356 . S
N504 H516 0.984 . S
N504 H517 0.985 . S
N505 C507 1.356 . S
N505 H510 0.984 . S
N505 H511 0.985 . S
C506 C500 1.379 1_545 S
C506 C503 1.363 1_556 S
C506 N504 1.356 . S
C507 C501 1.363 . S
C507 C502 1.379 1_565 S
C507 N505 1.356 . S
N508 C500 1.356 . S
N508 H514 0.984 . S
N508 H515 0.984 . S
N509 C502 1.356 . S
N509 H512 0.984 . S
N509 H513 0.985 . S
H510 N505 0.984 . S
H511 N505 0.985 . S
H512 N509 0.984 . S
H513 N509 0.985 . S
H514 N508 0.984 . S
H515 N508 0.984 . S
H516 N504 0.984 . S
H517 N504 0.985 . S
C518 C519 1.363 . S
C518 C524 1.379 . S
C518 N526 1.356 . S
C519 C518 1.363 . S
C519 C525 1.363 1_545 S
C520 C521 1.363 . S
C520 C525 1.379 . S
C520 N527 1.356 . S
C521 C520 1.363 . S
C521 C524 1.363 1_565 S
N522 C524 1.356 . S
N522 H534 0.984 . S
N522 H535 0.985 1_545 S
N523 C525 1.356 . S
N523 H528 0.984 1_565 S
N523 H529 0.985 . S
C524 C518 1.379 . S
C524 C521 1.363 1_545 S
C524 N522 1.356 . S
C525 C519 1.363 1_565 S
C525 C520 1.379 . S
C525 N523 1.356 . S
N526 C518 1.356 . S
N526 H532 0.984 . S
N526 H533 0.984 . S
N527 C520 1.356 . S
N527 H530 0.984 . S
N527 H531 0.985 . S
H528 N523 0.984 1_545 S
H529 N523 0.985 . S
H530 N527 0.984 . S
H531 N527 0.985 . S
H532 N526 0.984 . S
H533 N526 0.984 . S
H534 N522 0.984 . S
H535 N522 0.985 1_565 S
C536 C537 1.363 1_556 S
C536 C542 1.379 . S
C536 N544 1.356 . S
C537 C536 1.363 1_554 S
C537 C543 1.363 . S
C538 C539 1.363 . S
C538 C543 1.379 . S
C538 N545 1.356 . S
C539 C538 1.363 . S
C539 C542 1.363 1_554 S
N540 C542 1.356 . S
N540 H552 0.984 . S
N540 H553 0.985 . S
N541 C543 1.356 . S
N541 H546 0.984 . S
N541 H547 0.985 . S
C542 C536 1.379 . S
C542 C539 1.363 1_556 S
C542 N540 1.356 . S
C543 C537 1.363 . S
C543 C538 1.379 . S
C543 N541 1.356 . S
N544 C536 1.356 . S
N544 H550 0.984 . S
N544 H551 0.984 . S
N545 C538 1.356 . S
N545 H548 0.984 . S
N545 H549 0.985 . S
H546 N541 0.984 . S
H547 N541 0.985 . S
H548 N545 0.984 . S
H549 N545 0.985 . S
H550 N544 0.984 . S
H551 N544 0.984 . S
H552 N540 0.984 . S
H553 N540 0.985 . S
C554 C555 1.363 . S
C554 C560 1.379 . S
C554 N562 1.356 . S
C555 C554 1.363 . S
C555 C561 1.363 1_554 S
C556 C557 1.363 1_556 S
C556 C561 1.379 . S
C556 N563 1.356 . S
C557 C556 1.363 1_554 S
C557 C560 1.363 . S
N558 C560 1.356 . S
N558 H570 0.984 . S
N558 H571 0.985 . S
N559 C561 1.356 . S
N559 H564 0.984 . S
N559 H565 0.985 . S
C560 C554 1.379 . S
C560 C557 1.363 . S
C560 N558 1.356 . S
C561 C555 1.363 1_556 S
C561 C556 1.379 . S
C561 N559 1.356 . S
N562 C554 1.356 . S
N562 H568 0.984 . S
N562 H569 0.984 . S
N563 C556 1.356 . S
N563 H566 0.984 . S
N563 H567 0.985 . S
H564 N559 0.984 . S
H565 N559 0.985 . S
H566 N563 0.984 . S
H567 N563 0.985 . S
H568 N562 0.984 . S
H569 N562 0.984 . S
H570 N558 0.984 . S
H571 N558 0.985 . S
C572 C573 1.363 . S
C572 C578 1.379 . S
C572 N580 1.356 . S
C573 C572 1.363 . S
C573 C579 1.363 . S
C574 C575 1.363 . S
C574 C579 1.379 . S
C574 N581 1.356 . S
C575 C574 1.363 . S
C575 C578 1.363 . S
N576 C578 1.356 . S
N576 H588 0.984 . S
N576 H589 0.985 . S
N577 C579 1.356 . S
N577 H582 0.984 . S
N577 H583 0.985 . S
C578 C572 1.379 . S
C578 C575 1.363 . S
C578 N576 1.356 . S
C579 C573 1.363 . S
C579 C574 1.379 . S
C579 N577 1.356 . S
N580 C572 1.356 . S
N580 H586 0.984 . S
N580 H587 0.984 . S
N581 C574 1.356 . S
N581 H584 0.984 . S
N581 H585 0.985 . S
H582 N577 0.984 . S
H583 N577 0.985 . S
H584 N581 0.984 . S
H585 N581 0.985 . S
H586 N580 0.984 . S
H587 N580 0.984 . S
H588 N576 0.984 . S
H589 N576 0.985 . S
C590 C591 1.363 . S
C590 C596 1.379 . S
C590 N598 1.356 . S
C591 C590 1.363 . S
C591 C597 1.363 . S
C592 C593 1.363 . S
C592 C597 1.379 . S
C592 N599 1.356 . S
C593 C592 1.363 . S
C593 C596 1.363 . S
N594 C596 1.356 . S
N594 H606 0.984 . S
N594 H607 0.985 . S
N595 C597 1.356 . S
N595 H600 0.984 . S
N595 H601 0.985 . S
C596 C590 1.379 . S
C596 C593 1.363 . S
C596 N594 1.356 . S
C597 C591 1.363 . S
C597 C592 1.379 . S
C597 N595 1.356 . S
N598 C590 1.356 . S
N598 H604 0.984 . S
N598 H605 0.984 . S
N599 C592 1.356 . S
N599 H602 0.984 . S
N599 H603 0.985 . S
H600 N595 0.984 . S
H601 N595 0.985 . S
H602 N599 0.984 . S
H603 N599 0.985 . S
H604 N598 0.984 . S
H605 N598 0.984 . S
H606 N594 0.984 . S
H607 N594 0.985 . S
C608 C609 1.363 1_655 S
C608 C614 1.379 . S
C608 N616 1.356 . S
C609 C608 1.363 1_455 S
C609 C615 1.363 . S
C610 C611 1.363 1_455 S
C610 C615 1.379 . S
C610 N617 1.356 . S
C611 C610 1.363 1_655 S
C611 C614 1.363 . S
N612 C614 1.356 . S
N612 H624 0.984 . S
N612 H625 0.985 . S
N613 C615 1.356 . S
N613 H618 0.984 . S
N613 H619 0.985 . S
C614 C608 1.379 . S
C614 C611 1.363 . S
C614 N612 1.356 . S
C615 C609 1.363 . S
C615 C610 1.379 . S
C615 N613 1.356 . S
N616 C608 1.356 . S
N616 H622 0.984 . S
N616 H623 0.984 . S
N617 C610 1.356 . S
N617 H620 0.984 . S
N617 H621 0.985 . S
H618 N613 0.984 . S
H619 N613 0.985 . S
H620 N617 0.984 . S
H621 N617 0.985 . S
H622 N616 0.984 . S
H623 N616 0.984 . S
H624 N612 0.984 . S
H625 N612 0.985 . S
C626 C627 1.363 . S
C626 C632 1.379 . S
C626 N634 1.356 . S
C627 C626 1.363 . S
C627 C633 1.363 1_655 S
C628 C629 1.363 . S
C628 C633 1.379 . S
C628 N635 1.356 . S
C629 C628 1.363 . S
C629 C632 1.363 1_455 S
N630 C632 1.356 . S
N630 H642 0.984 . S
N630 H643 0.985 . S
N631 C633 1.356 . S
N631 H636 0.984 . S
N631 H637 0.985 . S
C632 C626 1.379 . S
C632 C629 1.363 1_655 S
C632 N630 1.356 . S
C633 C627 1.363 1_455 S
C633 C628 1.379 . S
C633 N631 1.356 . S
N634 C626 1.356 . S
N634 H640 0.984 . S
N634 H641 0.984 . S
N635 C628 1.356 . S
N635 H638 0.984 . S
N635 H639 0.985 . S
H636 N631 0.984 . S
H637 N631 0.985 . S
H638 N635 0.984 . S
H639 N635 0.985 . S
H640 N634 0.984 . S
H641 N634 0.984 . S
H642 N630 0.984 . S
H643 N630 0.985 . S
C644 C645 1.363 1_455 S
C644 C650 1.379 . S
C644 N652 1.356 . S
C645 C644 1.363 1_655 S
C645 C651 1.363 . S
C646 C647 1.363 1_655 S
C646 C651 1.379 . S
C646 N653 1.356 . S
C647 C646 1.363 1_455 S
C647 C650 1.363 . S
N648 C650 1.356 . S
N648 H660 0.984 . S
N648 H661 0.985 . S
N649 C651 1.356 . S
N649 H654 0.984 . S
N649 H655 0.985 . S
C650 C644 1.379 . S
C650 C647 1.363 . S
C650 N648 1.356 . S
C651 C645 1.363 . S
C651 C646 1.379 . S
C651 N649 1.356 . S
N652 C644 1.356 . S
N652 H658 0.984 . S
N652 H659 0.984 . S
N653 C646 1.356 . S
N653 H656 0.984 . S
N653 H657 0.985 . S
H654 N649 0.984 . S
H655 N649 0.985 . S
H656 N653 0.984 . S
H657 N653 0.985 . S
H658 N652 0.984 . S
H659 N652 0.984 . S
H660 N648 0.984 . S
H661 N648 0.985 . S
C662 C663 1.363 . S
C662 C668 1.379 . S
C662 N670 1.356 . S
C663 C662 1.363 . S
C663 C669 1.363 1_655 S
C664 C665 1.363 . S
C664 C669 1.379 . S
C664 N671 1.356 . S
C665 C664 1.363 . S
C665 C668 1.363 1_455 S
N666 C668 1.356 . S
N666 H678 0.984 . S
N666 H679 0.985 . S
N667 C669 1.356 . S
N667 H672 0.984 . S
N667 H673 0.985 . S
C668 C662 1.379 . S
C668 C665 1.363 1_655 S
C668 N666 1.356 . S
C669 C663 1.363 1_455 S
C669 C664 1.379 . S
C669 N667 1.356 . S
N670 C662 1.356 . S
N670 H676 0.984 . S
N670 H677 0.984 . S
N671 C664 1.356 . S
N671 H674 0.984 . S
N671 H675 0.985 . S
H672 N667 0.984 . S
H673 N667 0.985 . S
H674 N671 0.984 . S
H675 N671 0.985 . S
H676 N670 0.984 . S
H677 N670 0.984 . S
H678 N666 0.984 . S
H679 N666 0.985 . S
C680 C681 1.363 . S
C680 C686 1.379 . S
C680 N688 1.356 . S
C681 C680 1.363 . S
C681 C687 1.363 . S
C682 C683 1.363 . S
C682 C687 1.379 . S
C682 N689 1.356 . S
C683 C682 1.363 . S
C683 C686 1.363 . S
N684 C686 1.356 . S
N684 H696 0.984 . S
N684 H697 0.985 . S
N685 C687 1.356 . S
N685 H690 0.984 . S
N685 H691 0.985 . S
C686 C680 1.379 . S
C686 C683 1.363 . S
C686 N684 1.356 . S
C687 C681 1.363 . S
C687 C682 1.379 . S
C687 N685 1.356 . S
N688 C680 1.356 . S
N688 H694 0.984 . S
N688 H695 0.984 . S
N689 C682 1.356 . S
N689 H692 0.984 . S
N689 H693 0.985 . S
H690 N685 0.984 . S
H691 N685 0.985 . S
H692 N689 0.984 . S
H693 N689 0.985 . S
H694 N688 0.984 . S
H695 N688 0.984 . S
H696 N684 0.984 . S
H697 N684 0.985 . S
C698 C699 1.363 . S
C698 C704 1.379 . S
C698 N706 1.356 . S
C699 C698 1.363 . S
C699 C705 1.363 . S
C700 C701 1.363 . S
C700 C705 1.379 . S
C700 N707 1.356 . S
C701 C700 1.363 . S
C701 C704 1.363 . S
N702 C704 1.356 . S
N702 H714 0.984 . S
N702 H715 0.985 . S
N703 C705 1.356 . S
N703 H708 0.984 . S
N703 H709 0.985 . S
C704 C698 1.379 . S
C704 C701 1.363 . S
C704 N702 1.356 . S
C705 C699 1.363 . S
C705 C700 1.379 . S
C705 N703 1.356 . S
N706 C698 1.356 . S
N706 H712 0.984 . S
N706 H713 0.984 . S
N707 C700 1.356 . S
N707 H710 0.984 . S
N707 H711 0.985 . S
H708 N703 0.984 . S
H709 N703 0.985 . S
H710 N707 0.984 . S
H711 N707 0.985 . S
H712 N706 0.984 . S
H713 N706 0.984 . S
H714 N702 0.984 . S
H715 N702 0.985 . S
C716 C717 1.363 . S
C716 C722 1.379 . S
C716 N724 1.356 . S
C717 C716 1.363 . S
C717 C723 1.363 . S
C718 C719 1.363 . S
C718 C723 1.379 . S
C718 N725 1.356 . S
C719 C718 1.363 . S
C719 C722 1.363 . S
N720 C722 1.356 . S
N720 H732 0.984 . S
N720 H733 0.985 . S
N721 C723 1.356 . S
N721 H726 0.984 . S
N721 H727 0.985 . S
C722 C716 1.379 . S
C722 C719 1.363 . S
C722 N720 1.356 . S
C723 C717 1.363 . S
C723 C718 1.379 . S
C723 N721 1.356 . S
N724 C716 1.356 . S
N724 H730 0.984 . S
N724 H731 0.984 . S
N725 C718 1.356 . S
N725 H728 0.984 . S
N725 H729 0.985 . S
H726 N721 0.984 . S
H727 N721 0.985 . S
H728 N725 0.984 . S
H729 N725 0.985 . S
H730 N724 0.984 . S
H731 N724 0.984 . S
H732 N720 0.984 . S
H733 N720 0.985 . S
C734 C735 1.363 . S
C734 C740 1.379 . S
C734 N742 1.356 . S
C735 C734 1.363 . S
C735 C741 1.363 . S
C736 C737 1.363 . S
C736 C741 1.379 . S
C736 N743 1.356 . S
C737 C736 1.363 . S
C737 C740 1.363 . S
N738 C740 1.356 . S
N738 H750 0.984 . S
N738 H751 0.985 . S
N739 C741 1.356 . S
N739 H744 0.984 . S
N739 H745 0.985 . S
C740 C734 1.379 . S
C740 C737 1.363 . S
C740 N738 1.356 . S
C741 C735 1.363 . S
C741 C736 1.379 . S
C741 N739 1.356 . S
N742 C734 1.356 . S
N742 H748 0.984 . S
N742 H749 0.984 . S
N743 C736 1.356 . S
N743 H746 0.984 . S
N743 H747 0.985 . S
H744 N739 0.984 . S
H745 N739 0.985 . S
H746 N743 0.984 . S
H747 N743 0.985 . S
H748 N742 0.984 . S
H749 N742 0.984 . S
H750 N738 0.984 . S
H751 N738 0.985 . S
C321 C11 2.280 . S
C323 C2 2.280 . S
C339 C51 2.280 . S
C341 C42 2.280 . S
C357 C91 2.280 . S
C359 C82 2.280 . S
C375 C131 2.280 . S
C377 C122 2.280 . S
C393 C171 2.280 . S
C395 C162 2.280 . S
C411 C202 2.280 . S
C413 C211 2.280 . S
C429 C251 2.280 . S
C431 C242 2.280 . S
C447 C282 2.280 . S
C449 C291 2.280 . S
C465 C56 2.934 . S
C467 C7 2.934 . S
C483 C127 2.934 . S
C485 C96 2.934 . S
C501 C167 2.933 . S
C503 C216 2.933 . S
C519 C256 2.934 . S
C521 C287 2.934 . S
C537 C16 2.057 . S
C539 C207 2.057 . S
C555 C176 2.056 . S
C557 C47 2.056 . S
C573 C87 2.056 . S
C575 C296 2.056 . S
C591 C136 2.056 . S
C593 C247 2.056 . S
C609 C10 1.492 . S
C611 C130 1.492 . S
C627 C50 1.593 . S
C629 C90 1.593 . S
C645 C59 1.492 . S
C647 C99 1.492 . S
C663 C139 1.593 . S
C665 C19 1.593 . S
C681 C170 1.492 . S
C683 C290 1.492 . S
C699 C210 1.593 . S
C701 C250 1.593 . S
C717 C219 1.492 . S
C719 C259 1.492 . S
C735 C299 1.593 . S
C737 C179 1.593 . S
