# Generated by pormake.
# Topology wmi, (6)-cn, num edge types: 1
# Building blocks:
#     Node 0, Type 0, BuildingBlock: MIFKUJ_clean_sbu_0, # of connection points: 6
#     Node 1, Type 0, BuildingBlock: MIFKUJ_clean_sbu_0, # of connection points: 6
#     Node 2, Type 0, BuildingBlock: MIFKUJ_clean_sbu_0, # of connection points: 6
#     Node 3, Type 0, BuildingBlock: MIFKUJ_clean_sbu_0, # of connection points: 6
#     Node 4, Type 0, BuildingBlock: MIFKUJ_clean_sbu_0, # of connection points: 6
#     Node 5, Type 0, BuildingBlock: MIFKUJ_clean_sbu_0, # of connection points: 6
#     Node 6, Type 0, BuildingBlock: MIFKUJ_clean_sbu_0, # of connection points: 6
#     Node 7, Type 0, BuildingBlock: MIFKUJ_clean_sbu_0, # of connection points: 6
#     Node 8, Type 0, BuildingBlock: MIFKUJ_clean_sbu_0, # of connection points: 6
#     Node 9, Type 0, BuildingBlock: MIFKUJ_clean_sbu_0, # of connection points: 6
#     Node 10, Type 0, BuildingBlock: MIFKUJ_clean_sbu_0, # of connection points: 6
#     Node 11, Type 0, BuildingBlock: MIFKUJ_clean_sbu_0, # of connection points: 6
#     Node 12, Type 0, BuildingBlock: MIFKUJ_clean_sbu_0, # of connection points: 6
#     Node 13, Type 0, BuildingBlock: MIFKUJ_clean_sbu_0, # of connection points: 6
#     Node 14, Type 0, BuildingBlock: MIFKUJ_clean_sbu_0, # of connection points: 6
#     Node 15, Type 0, BuildingBlock: MIFKUJ_clean_sbu_0, # of connection points: 6
#     Node 16, Type 0, BuildingBlock: MIFKUJ_clean_sbu_0, # of connection points: 6
#     Node 17, Type 0, BuildingBlock: MIFKUJ_clean_sbu_0, # of connection points: 6
#     Edge 18, Type (0, 0), BuildingBlock: ZUJKAS_clean_linker_0, # of connection points: 2
#     Edge 19, Type (0, 0), BuildingBlock: ZUJKAS_clean_linker_0, # of connection points: 2
#     Edge 20, Type (0, 0), BuildingBlock: ZUJKAS_clean_linker_0, # of connection points: 2
#     Edge 21, Type (0, 0), BuildingBlock: ZUJKAS_clean_linker_0, # of connection points: 2
#     Edge 22, Type (0, 0), BuildingBlock: ZUJKAS_clean_linker_0, # of connection points: 2
#     Edge 23, Type (0, 0), BuildingBlock: ZUJKAS_clean_linker_0, # of connection points: 2
#     Edge 24, Type (0, 0), BuildingBlock: ZUJKAS_clean_linker_0, # of connection points: 2
#     Edge 25, Type (0, 0), BuildingBlock: ZUJKAS_clean_linker_0, # of connection points: 2
#     Edge 26, Type (0, 0), BuildingBlock: ZUJKAS_clean_linker_0, # of connection points: 2
#     Edge 27, Type (0, 0), BuildingBlock: ZUJKAS_clean_linker_0, # of connection points: 2
#     Edge 28, Type (0, 0), BuildingBlock: ZUJKAS_clean_linker_0, # of connection points: 2
#     Edge 29, Type (0, 0), BuildingBlock: ZUJKAS_clean_linker_0, # of connection points: 2
#     Edge 30, Type (0, 0), BuildingBlock: ZUJKAS_clean_linker_0, # of connection points: 2
#     Edge 31, Type (0, 0), BuildingBlock: ZUJKAS_clean_linker_0, # of connection points: 2
#     Edge 32, Type (0, 0), BuildingBlock: ZUJKAS_clean_linker_0, # of connection points: 2
#     Edge 33, Type (0, 0), BuildingBlock: ZUJKAS_clean_linker_0, # of connection points: 2
#     Edge 34, Type (0, 0), BuildingBlock: ZUJKAS_clean_linker_0, # of connection points: 2
#     Edge 35, Type (0, 0), BuildingBlock: ZUJKAS_clean_linker_0, # of connection points: 2
#     Edge 36, Type (0, 0), BuildingBlock: ZUJKAS_clean_linker_0, # of connection points: 2
#     Edge 37, Type (0, 0), BuildingBlock: ZUJKAS_clean_linker_0, # of connection points: 2
#     Edge 38, Type (0, 0), BuildingBlock: ZUJKAS_clean_linker_0, # of connection points: 2
#     Edge 39, Type (0, 0), BuildingBlock: ZUJKAS_clean_linker_0, # of connection points: 2
#     Edge 40, Type (0, 0), BuildingBlock: ZUJKAS_clean_linker_0, # of connection points: 2
#     Edge 41, Type (0, 0), BuildingBlock: ZUJKAS_clean_linker_0, # of connection points: 2
#     Edge 42, Type (0, 0), BuildingBlock: ZUJKAS_clean_linker_0, # of connection points: 2
#     Edge 43, Type (0, 0), BuildingBlock: ZUJKAS_clean_linker_0, # of connection points: 2
#     Edge 44, Type (0, 0), BuildingBlock: ZUJKAS_clean_linker_0, # of connection points: 2
#     Edge 45, Type (0, 0), BuildingBlock: ZUJKAS_clean_linker_0, # of connection points: 2
#     Edge 46, Type (0, 0), BuildingBlock: ZUJKAS_clean_linker_0, # of connection points: 2
#     Edge 47, Type (0, 0), BuildingBlock: ZUJKAS_clean_linker_0, # of connection points: 2
#     Edge 48, Type (0, 0), BuildingBlock: ZUJKAS_clean_linker_0, # of connection points: 2
#     Edge 49, Type (0, 0), BuildingBlock: ZUJKAS_clean_linker_0, # of connection points: 2
#     Edge 50, Type (0, 0), BuildingBlock: ZUJKAS_clean_linker_0, # of connection points: 2
#     Edge 51, Type (0, 0), BuildingBlock: ZUJKAS_clean_linker_0, # of connection points: 2
#     Edge 52, Type (0, 0), BuildingBlock: ZUJKAS_clean_linker_0, # of connection points: 2
#     Edge 53, Type (0, 0), BuildingBlock: ZUJKAS_clean_linker_0, # of connection points: 2
#     Edge 54, Type (0, 0), BuildingBlock: ZUJKAS_clean_linker_0, # of connection points: 2
#     Edge 55, Type (0, 0), BuildingBlock: ZUJKAS_clean_linker_0, # of connection points: 2
#     Edge 56, Type (0, 0), BuildingBlock: ZUJKAS_clean_linker_0, # of connection points: 2
#     Edge 57, Type (0, 0), BuildingBlock: ZUJKAS_clean_linker_0, # of connection points: 2
#     Edge 58, Type (0, 0), BuildingBlock: ZUJKAS_clean_linker_0, # of connection points: 2
#     Edge 59, Type (0, 0), BuildingBlock: ZUJKAS_clean_linker_0, # of connection points: 2
#     Edge 60, Type (0, 0), BuildingBlock: ZUJKAS_clean_linker_0, # of connection points: 2
#     Edge 61, Type (0, 0), BuildingBlock: ZUJKAS_clean_linker_0, # of connection points: 2
#     Edge 62, Type (0, 0), BuildingBlock: ZUJKAS_clean_linker_0, # of connection points: 2
#     Edge 63, Type (0, 0), BuildingBlock: ZUJKAS_clean_linker_0, # of connection points: 2
#     Edge 64, Type (0, 0), BuildingBlock: ZUJKAS_clean_linker_0, # of connection points: 2
#     Edge 65, Type (0, 0), BuildingBlock: ZUJKAS_clean_linker_0, # of connection points: 2
#     Edge 66, Type (0, 0), BuildingBlock: ZUJKAS_clean_linker_0, # of connection points: 2
#     Edge 67, Type (0, 0), BuildingBlock: ZUJKAS_clean_linker_0, # of connection points: 2
#     Edge 68, Type (0, 0), BuildingBlock: ZUJKAS_clean_linker_0, # of connection points: 2
#     Edge 69, Type (0, 0), BuildingBlock: ZUJKAS_clean_linker_0, # of connection points: 2
#     Edge 70, Type (0, 0), BuildingBlock: ZUJKAS_clean_linker_0, # of connection points: 2
#     Edge 71, Type (0, 0), BuildingBlock: ZUJKAS_clean_linker_0, # of connection points: 2
# Relax obj value: 0.075
# Max RMSD: 0.173
# Mean RMSD: 0.173
data_MOF--net-wmi--node1-MIFKUJ_clean_sbu_0--edge1-ZUJKAS_clean_linker_0
_symmetry_space_group_name_H-M    P1
_symmetry_Int_Tables_number       1
_symmetry_cell_setting            triclinic
loop_
_symmetry_equiv_pos_as_xyz
'x, y, z'
_cell_length_a     43.355215
_cell_length_b     43.441617
_cell_length_c     104.2956
_cell_angle_alpha  89.956981
_cell_angle_beta   90.039403
_cell_angle_gamma 120.00921
loop_
_atom_site_label
_atom_site_type_symbol
_atom_site_fract_x
_atom_site_fract_y
_atom_site_fract_z
_atom_type_partial_charge
Zn0 Zn 0.44771 0.97812 0.08782 0.0
Zn1 Zn 0.52406 0.04742 0.09246 0.0
C2 C 0.47485 0.93215 0.08338 0.0
O3 O 0.45594 0.92803 0.073 0.0
C4 C 0.51247 0.10398 0.10057 0.0
O5 O 0.52439 0.09803 0.11134 0.0
O6 O 0.39667 0.93781 0.08773 0.0
O7 O 0.45113 0.01251 0.10107 0.0
O8 O 0.50014 0.01653 0.10828 0.0
C9 C 0.38754 0.91658 0.09722 0.0
O10 O 0.41083 0.92309 0.10638 0.0
O11 O 0.47698 0.9543 0.09183 0.0
C12 C 0.59525 0.0979 0.08673 0.0
O13 O 0.57926 0.09659 0.07586 0.0
O14 O 0.57688 0.07744 0.09584 0.0
O15 O 0.51925 0.0248 0.07477 0.0
O16 O 0.4616 0.99935 0.07055 0.0
O17 O 0.5084 0.08438 0.09091 0.0
C18 C 0.46931 0.01198 0.11045 0.0
C19 C 0.49355 0.01224 0.06677 0.0
Zn20 Zn 0.06483 0.48494 0.08406 0.0
Zn21 Zn 0.98591 0.4838 0.08949 0.0
C22 C 0.1155 0.55594 0.08419 0.0
O23 O 0.12492 0.54216 0.07481 0.0
C24 C 0.93164 0.41577 0.09808 0.0
O25 O 0.9397 0.4333 0.10897 0.0
O26 O 0.10495 0.47377 0.08352 0.0
O27 O 0.0268 0.44916 0.09523 0.0
O28 O 0.01663 0.48747 0.10501 0.0
C29 C 0.12345 0.47968 0.09365 0.0
O30 O 0.1146 0.49088 0.10395 0.0
O31 O 0.08733 0.53575 0.09048 0.0
C32 C 0.93578 0.50588 0.08456 0.0
O33 O 0.93658 0.49188 0.07349 0.0
O34 O 0.95644 0.50708 0.09348 0.0
O35 O 0.00711 0.50033 0.07147 0.0
O36 O 0.04787 0.48539 0.06664 0.0
O37 O 0.94878 0.43175 0.08802 0.0
C38 C 0.02495 0.46329 0.10556 0.0
C39 C 0.02737 0.49707 0.06337 0.0
Zn40 Zn 0.55517 0.58934 0.08656 0.0
Zn41 Zn 0.55081 0.51358 0.09183 0.0
C42 C 0.48141 0.55625 0.08223 0.0
O43 O 0.49446 0.57262 0.07128 0.0
C44 C 0.6198 0.52821 0.09974 0.0
O45 O 0.6024 0.51717 0.11063 0.0
O46 O 0.56187 0.63899 0.08502 0.0
O47 O 0.58718 0.58979 0.10026 0.0
O48 O 0.54503 0.53867 0.10763 0.0
C49 C 0.55946 0.65421 0.09509 0.0
O50 O 0.5549 0.63819 0.10619 0.0
O51 O 0.50289 0.55829 0.09095 0.0
C52 C 0.53263 0.44233 0.08669 0.0
O53 O 0.54635 0.45783 0.07567 0.0
O54 O 0.52997 0.46083 0.09564 0.0
O55 O 0.53179 0.5168 0.07413 0.0
O56 O 0.56412 0.57423 0.06979 0.0
O57 O 0.60352 0.53058 0.08996 0.0
C58 C 0.57054 0.57007 0.10967 0.0
C59 C 0.54545 0.54226 0.06606 0.0
Zn60 Zn 0.98412 0.44356 0.90854 0.0
Zn61 Zn 0.05422 0.51987 0.90328 0.0
C62 C 0.93957 0.47237 0.91242 0.0
O63 O 0.93584 0.45494 0.92315 0.0
C64 C 0.11052 0.50793 0.8954 0.0
O65 O 0.10376 0.51866 0.88452 0.0
O66 O 0.94295 0.39295 0.90926 0.0
O67 O 0.01828 0.44568 0.89536 0.0
O68 O 0.02334 0.49462 0.88759 0.0
C69 C 0.92383 0.38151 0.8992 0.0
O70 O 0.9329 0.40224 0.88908 0.0
O71 O 0.96084 0.47275 0.90393 0.0
C72 C 0.10359 0.59135 0.90883 0.0
O73 O 0.10119 0.57584 0.9199 0.0
O74 O 0.08426 0.57254 0.89955 0.0
O75 O 0.03137 0.51604 0.92085 0.0
O76 O 1.00582 0.45886 0.9257 0.0
O77 O 0.09142 0.50466 0.90514 0.0
C78 C 0.01845 0.46357 0.88577 0.0
C79 C 0.01876 0.49104 0.92911 0.0
Zn80 Zn 0.6022 0.56078 0.91075 0.0
Zn81 Zn 0.52734 0.56371 0.90486 0.0
C82 C 0.56472 0.48696 0.91337 0.0
O83 O 0.57946 0.49775 0.92471 0.0
C84 C 0.54027 0.63186 0.89684 0.0
O85 O 0.5304 0.61473 0.88588 0.0
O86 O 0.65094 0.56519 0.91181 0.0
O87 O 0.60525 0.59692 0.89848 0.0
O88 O 0.55456 0.56018 0.88933 0.0
C89 C 0.66249 0.55773 0.90174 0.0
O90 O 0.64298 0.54884 0.89129 0.0
O91 O 0.56949 0.51014 0.90494 0.0
C92 C 0.45539 0.54317 0.90946 0.0
O93 O 0.47052 0.55787 0.92042 0.0
O94 O 0.47456 0.54104 0.90064 0.0
O95 O 0.53001 0.5455 0.92283 0.0
O96 O 0.58677 0.56643 0.92791 0.0
O97 O 0.5425 0.61573 0.90668 0.0
C98 C 0.58751 0.5832 0.88838 0.0
C99 C 0.55427 0.55247 0.93113 0.0
Zn100 Zn 0.49138 0.07136 0.91151 0.0
Zn101 Zn 0.48383 0.99013 0.90547 0.0
C102 C 0.56539 0.1071 0.91341 0.0
O103 O 0.55522 0.11145 0.9248 0.0
C104 C 0.41663 0.9336 0.89677 0.0
O105 O 0.43422 0.94161 0.88589 0.0
O106 O 0.48666 0.1152 0.91215 0.0
O107 O 0.45303 0.03703 0.9001 0.0
O108 O 0.48678 0.02087 0.89004 0.0
C109 C 0.49306 0.13292 0.9018 0.0
O110 O 0.50188 0.12165 0.89152 0.0
O111 O 0.54163 0.08858 0.90514 0.0
C112 C 0.5069 0.94142 0.9104 0.0
O113 O 0.4914 0.94138 0.92122 0.0
O114 O 0.50858 0.96213 0.90144 0.0
O115 O 0.49888 0.00953 0.92381 0.0
O116 O 0.48746 0.05244 0.92889 0.0
O117 O 0.43211 0.9518 0.90671 0.0
C118 C 0.4646 0.03191 0.88968 0.0
C119 C 0.49655 0.02991 0.93208 0.0
Zn120 Zn 0.11001 0.31062 0.41722 0.0
Zn121 Zn 0.18405 0.38385 0.42356 0.0
C122 C 0.14509 0.27211 0.41353 0.0
O123 O 0.12914 0.26867 0.40247 0.0
C124 C 0.16932 0.43823 0.43087 0.0
O125 O 0.17927 0.4316 0.44195 0.0
O126 O 0.0611 0.2668 0.41563 0.0
O127 O 0.10664 0.34111 0.43048 0.0
O128 O 0.15735 0.35352 0.4393 0.0
C129 C 0.05078 0.24605 0.42528 0.0
O130 O 0.07152 0.25501 0.43541 0.0
O131 O 0.14227 0.29121 0.42217 0.0
C132 C 0.25592 0.43583 0.41898 0.0
O133 O 0.24133 0.43381 0.40773 0.0
O134 O 0.23651 0.4153 0.42792 0.0
O135 O 0.18265 0.36192 0.4059 0.0
O136 O 0.12564 0.33487 0.40055 0.0
O137 O 0.16764 0.41969 0.42117 0.0
C138 C 0.12458 0.34422 0.44043 0.0
C139 C 0.15823 0.34951 0.3974 0.0
Zn140 Zn 0.72184 0.81353 0.41855 0.0
Zn141 Zn 0.65146 0.81987 0.42374 0.0
C142 C 0.76825 0.88518 0.41398 0.0
O143 O 0.77201 0.86906 0.40395 0.0
C144 C 0.59527 0.75242 0.43229 0.0
O145 O 0.60169 0.77093 0.4429 0.0
O146 O 0.76316 0.80411 0.418 0.0
O147 O 0.68809 0.78229 0.43199 0.0
O148 O 0.68307 0.82655 0.43935 0.0
C149 C 0.78181 0.81137 0.42817 0.0
O150 O 0.77197 0.82219 0.43831 0.0
O151 O 0.74559 0.86635 0.42251 0.0
C152 C 0.60067 0.84115 0.41859 0.0
O153 O 0.60148 0.82709 0.40753 0.0
O154 O 0.62148 0.84265 0.42749 0.0
O155 O 0.67294 0.837 0.40582 0.0
O156 O 0.69979 0.80624 0.40143 0.0
O157 O 0.61446 0.76737 0.42247 0.0
C158 C 0.68765 0.80029 0.44143 0.0
C159 C 0.68604 0.82459 0.39775 0.0
Zn160 Zn 0.21646 0.92691 0.42028 0.0
Zn161 Zn 0.21624 0.84973 0.42457 0.0
C162 C 0.1424 0.89435 0.41722 0.0
O163 O 0.15441 0.90949 0.40601 0.0
C164 C 0.28464 0.86332 0.43358 0.0
O165 O 0.267 0.85305 0.44445 0.0
O166 O 0.22607 0.97738 0.41973 0.0
O167 O 0.25082 0.92445 0.43226 0.0
O168 O 0.2093 0.87434 0.44024 0.0
C169 C 0.22118 0.99113 0.42973 0.0
O170 O 0.21181 0.9727 0.44044 0.0
O171 O 0.1647 0.89717 0.42574 0.0
C172 C 0.19668 0.7792 0.41866 0.0
O173 O 0.21283 0.79619 0.40812 0.0
O174 O 0.1932 0.79668 0.42778 0.0
O175 O 0.20138 0.85545 0.4064 0.0
O176 O 0.22039 0.91256 0.40278 0.0
O177 O 0.26877 0.8654 0.42363 0.0
C178 C 0.23444 0.90608 0.44194 0.0
C179 C 0.20796 0.88097 0.39876 0.0
Zn180 Zn 0.65075 0.77509 0.24186 0.0
Zn181 Zn 0.72042 0.85154 0.23674 0.0
C182 C 0.60758 0.80539 0.24588 0.0
O183 O 0.60464 0.78901 0.2568 0.0
C184 C 0.77664 0.83976 0.22883 0.0
O185 O 0.77001 0.85077 0.21799 0.0
O186 O 0.60938 0.72457 0.2426 0.0
O187 O 0.6847 0.77684 0.22869 0.0
O188 O 0.68997 0.82596 0.22095 0.0
C189 C 0.59221 0.7116 0.23223 0.0
O190 O 0.60317 0.73078 0.22173 0.0
O191 O 0.6277 0.80442 0.2372 0.0
C192 C 0.7693 0.92375 0.24217 0.0
O193 O 0.76644 0.909 0.25344 0.0
O194 O 0.75049 0.90429 0.23292 0.0
O195 O 0.69791 0.84746 0.25444 0.0
O196 O 0.67253 0.79015 0.25902 0.0
O197 O 0.75759 0.83644 0.23859 0.0
C198 C 0.68575 0.79515 0.2191 0.0
C199 C 0.68556 0.82221 0.2626 0.0
Zn200 Zn 0.26906 0.89046 0.24091 0.0
Zn201 Zn 0.19099 0.89121 0.23669 0.0
C202 C 0.23632 0.81666 0.24318 0.0
O203 O 0.25153 0.82783 0.25443 0.0
C204 C 0.20459 0.95896 0.22735 0.0
O205 O 0.19419 0.94086 0.2166 0.0
O206 O 0.31956 0.89939 0.24136 0.0
O207 O 0.26603 0.92521 0.22931 0.0
O208 O 0.2159 0.88403 0.22123 0.0
C209 C 0.33166 0.89168 0.23151 0.0
O210 O 0.31186 0.8805 0.22114 0.0
O211 O 0.23921 0.83949 0.23491 0.0
C212 C 0.1194 0.87076 0.24219 0.0
O213 O 0.13535 0.88661 0.25291 0.0
O214 O 0.13788 0.86782 0.2333 0.0
O215 O 0.19709 0.87667 0.25484 0.0
O216 O 0.25361 0.89229 0.2585 0.0
O217 O 0.20665 0.94356 0.23743 0.0
C218 C 0.24797 0.90856 0.21959 0.0
C219 C 0.22205 0.88109 0.26244 0.0
Zn220 Zn 0.15992 0.39963 0.24208 0.0
Zn221 Zn 0.15341 0.31987 0.23634 0.0
C222 C 0.23379 0.43557 0.24435 0.0
O223 O 0.22304 0.44022 0.25558 0.0
C224 C 0.0858 0.26282 0.22826 0.0
O225 O 0.10338 0.26942 0.21741 0.0
O226 O 0.15559 0.44372 0.24261 0.0
O227 O 0.12183 0.3656 0.23058 0.0
O228 O 0.15637 0.35017 0.22072 0.0
C229 C 0.16275 0.46157 0.23227 0.0
O230 O 0.17202 0.45027 0.2221 0.0
O231 O 0.21045 0.41673 0.236 0.0
C232 C 0.17546 0.26991 0.24084 0.0
O233 O 0.16033 0.26955 0.25179 0.0
O234 O 0.17728 0.29124 0.2321 0.0
O235 O 0.17021 0.33993 0.25454 0.0
O236 O 0.15504 0.38032 0.25943 0.0
O237 O 0.10144 0.2821 0.23797 0.0
C238 C 0.13382 0.36072 0.22022 0.0
C239 C 0.166 0.35933 0.26274 0.0
Zn240 Zn 0.77332 0.63695 0.74847 0.0
Zn241 Zn 0.84713 0.71626 0.75483 0.0
C242 C 0.81125 0.60075 0.74612 0.0
O243 O 0.79792 0.59797 0.73458 0.0
C244 C 0.83365 0.77069 0.76357 0.0
O245 O 0.84221 0.76181 0.77449 0.0
O246 O 0.7247 0.59331 0.74694 0.0
O247 O 0.76883 0.66923 0.76071 0.0
O248 O 0.81958 0.68483 0.77018 0.0
C249 C 0.71206 0.57385 0.75685 0.0
O250 O 0.73071 0.5835 0.76751 0.0
O251 O 0.80551 0.61842 0.75456 0.0
C252 C 0.91894 0.76682 0.75049 0.0
O253 O 0.90386 0.76748 0.73964 0.0
O254 O 0.89965 0.74515 0.75919 0.0
O255 O 0.84487 0.69706 0.73661 0.0
O256 O 0.78909 0.6581 0.73136 0.0
O257 O 0.83258 0.75377 0.75346 0.0
C258 C 0.78642 0.67411 0.77092 0.0
C259 C 0.82134 0.67861 0.72824 0.0
Zn260 Zn 0.39014 0.14265 0.74953 0.0
Zn261 Zn 0.31616 0.14333 0.75562 0.0
C262 C 0.42877 0.21556 0.74527 0.0
O263 O 0.4318 0.20207 0.73439 0.0
C264 C 0.26219 0.075 0.76373 0.0
O265 O 0.26977 0.09247 0.77462 0.0
O266 O 0.43405 0.13764 0.74821 0.0
O267 O 0.35903 0.10898 0.76282 0.0
O268 O 0.34695 0.14775 0.77131 0.0
C269 C 0.4529 0.14449 0.7583 0.0
O270 O 0.44211 0.15271 0.76885 0.0
O271 O 0.40993 0.19446 0.75417 0.0
C272 C 0.26533 0.16466 0.7507 0.0
O273 O 0.26772 0.15249 0.73944 0.0
O274 O 0.28513 0.16493 0.75978 0.0
O275 O 0.3377 0.16246 0.73779 0.0
O276 O 0.36647 0.13405 0.7327 0.0
O277 O 0.2799 0.09104 0.75376 0.0
C278 C 0.35571 0.12399 0.77267 0.0
C279 C 0.35134 0.15141 0.72941 0.0
Zn280 Zn 0.89096 0.26203 0.75542 0.0
Zn281 Zn 0.8848 0.18408 0.75914 0.0
C282 C 0.81868 0.23548 0.75103 0.0
O283 O 0.8341 0.2543 0.74071 0.0
C284 C 0.95287 0.19467 0.76702 0.0
O285 O 0.93523 0.18249 0.77781 0.0
O286 O 0.90181 0.313 0.75508 0.0
O287 O 0.92274 0.25757 0.76806 0.0
O288 O 0.87853 0.20786 0.77517 0.0
C289 C 0.8946 0.32557 0.76491 0.0
O290 O 0.88274 0.30583 0.77527 0.0
O291 O 0.83817 0.23341 0.75974 0.0
C292 C 0.86423 0.113 0.75317 0.0
O293 O 0.87966 0.12932 0.74245 0.0
O294 O 0.8616 0.13107 0.76227 0.0
O295 O 0.86756 0.19014 0.74147 0.0
O296 O 0.89677 0.24834 0.73802 0.0
O297 O 0.93722 0.19931 0.75751 0.0
C298 C 0.90468 0.23869 0.77741 0.0
C299 C 0.87881 0.2167 0.7339 0.0
Zn300 Zn 0.31931 0.10855 0.57466 0.0
Zn301 Zn 0.3898 0.18492 0.56898 0.0
C302 C 0.27754 0.13977 0.57919 0.0
O303 O 0.27536 0.12373 0.59012 0.0
C304 C 0.44336 0.16932 0.56097 0.0
O305 O 0.43688 0.18006 0.55003 0.0
O306 O 0.27677 0.05854 0.57619 0.0
O307 O 0.3512 0.10927 0.56085 0.0
O308 O 0.35783 0.15937 0.55347 0.0
C309 C 0.2569 0.04547 0.56637 0.0
O310 O 0.26624 0.06372 0.55563 0.0
O311 O 0.2968 0.13831 0.57029 0.0
C312 C 0.44241 0.25661 0.57401 0.0
O313 O 0.44043 0.24156 0.58514 0.0
O314 O 0.42171 0.23764 0.56502 0.0
O315 O 0.36802 0.18198 0.58671 0.0
O316 O 0.34335 0.12481 0.59147 0.0
O317 O 0.42516 0.16763 0.57079 0.0
C318 C 0.35178 0.12793 0.55144 0.0
C319 C 0.35622 0.15695 0.59496 0.0
Zn320 Zn 0.93064 0.21237 0.57699 0.0
Zn321 Zn 0.85684 0.22445 0.5714 0.0
C322 C 0.88847 0.13824 0.57817 0.0
O323 O 0.89833 0.14689 0.59015 0.0
C324 C 0.86934 0.29112 0.56133 0.0
O325 O 0.86159 0.27312 0.55055 0.0
O326 O 0.97951 0.21786 0.57781 0.0
O327 O 0.93399 0.2519 0.5665 0.0
O328 O 0.88427 0.22014 0.55612 0.0
C329 C 0.99177 0.21136 0.56773 0.0
O330 O 0.97241 0.20194 0.55724 0.0
O331 O 0.89829 0.16288 0.56986 0.0
C332 C 0.78447 0.20073 0.57638 0.0
O333 O 0.79964 0.21747 0.58707 0.0
O334 O 0.80386 0.19846 0.5677 0.0
O335 O 0.86373 0.21271 0.58995 0.0
O336 O 0.91467 0.21432 0.59436 0.0
O337 O 0.86984 0.27597 0.57171 0.0
C338 C 0.91781 0.24082 0.55598 0.0
C339 C 0.88514 0.21092 0.59791 0.0
Zn340 Zn 0.81864 0.72441 0.57309 0.0
Zn341 Zn 0.82552 0.65559 0.56776 0.0
C342 C 0.89172 0.76931 0.57759 0.0
O343 O 0.87691 0.77213 0.58818 0.0
C344 C 0.75769 0.59814 0.55975 0.0
O345 O 0.77525 0.60516 0.54887 0.0
O346 O 0.80844 0.76486 0.57377 0.0
O347 O 0.78652 0.69064 0.55987 0.0
O348 O 0.83077 0.68638 0.55205 0.0
C349 C 0.8153 0.78367 0.56368 0.0
O350 O 0.827 0.77489 0.5535 0.0
O351 O 0.87166 0.74844 0.56883 0.0
C352 C 0.84947 0.60729 0.57285 0.0
O353 O 0.8363 0.60859 0.58405 0.0
O354 O 0.8493 0.62688 0.56381 0.0
O355 O 0.84387 0.67766 0.58554 0.0
O356 O 0.81142 0.70244 0.59019 0.0
O357 O 0.77326 0.61744 0.56948 0.0
C358 C 0.80411 0.69055 0.55024 0.0
C359 C 0.83074 0.68968 0.59374 0.0
H360 H 0.48207 0.89004 0.06574 0.0
H361 H 0.50366 0.84845 0.06911 0.0
H362 H 0.52571 0.88051 0.10871 0.0
H363 H 0.50388 0.92238 0.10544 0.0
H364 H 0.57142 0.85998 0.07849 0.0
H365 H 0.4574 0.77081 0.10987 0.0
H366 H 0.45665 0.80427 0.0998 0.0
H367 H 0.48218 0.81693 0.11435 0.0
C368 C 0.49169 0.88849 0.07517 0.0
C369 C 0.49099 0.90938 0.08535 0.0
C370 C 0.50412 0.86472 0.07706 0.0
C371 C 0.51588 0.86105 0.08919 0.0
C372 C 0.51631 0.88261 0.09931 0.0
H373 H 0.56186 0.69651 0.11489 0.0
H374 H 0.55562 0.74936 0.11385 0.0
C375 C 0.50402 0.90665 0.09741 0.0
C376 C 0.52644 0.83369 0.09118 0.0
H377 H 0.49952 0.75336 0.1054 0.0
C378 C 0.55589 0.83676 0.08445 0.0
C379 C 0.50614 0.80345 0.09895 0.0
C380 C 0.47366 0.79831 0.10611 0.0
C381 C 0.56552 0.81033 0.08524 0.0
C382 C 0.54457 0.77952 0.09271 0.0
C383 C 0.51558 0.77689 0.09966 0.0
C384 C 0.55138 0.74914 0.09317 0.0
C385 C 0.59824 0.81588 0.07815 0.0
C386 C 0.55127 0.73138 0.08189 0.0
C387 C 0.55513 0.70126 0.08245 0.0
C388 C 0.55863 0.68793 0.09432 0.0
C389 C 0.55918 0.70601 0.10558 0.0
C390 C 0.55559 0.73625 0.10501 0.0
H391 H 0.61719 0.84457 0.07647 0.0
H392 H 0.61224 0.80436 0.0835 0.0
H393 H 0.59021 0.80268 0.06866 0.0
H394 H 0.54714 0.74017 0.07266 0.0
H395 H 0.55423 0.68779 0.0736 0.0
H396 H 0.36872 0.85838 0.11211 0.0
H397 H 0.31474 0.80052 0.11073 0.0
H398 H 0.27305 0.84105 0.08183 0.0
H399 H 0.32812 0.8988 0.08269 0.0
H400 H 0.24605 0.77425 0.11439 0.0
H401 H 0.269 0.75965 0.06289 0.0
H402 H 0.30139 0.79581 0.07252 0.0
H403 H 0.26325 0.79694 0.06626 0.0
C404 C 0.34802 0.85511 0.10549 0.0
C405 C 0.35295 0.88299 0.09733 0.0
C406 C 0.31705 0.82197 0.10475 0.0
C407 C 0.29009 0.81607 0.09596 0.0
C408 C 0.29393 0.84458 0.0884 0.0
H409 H 0.09684 0.60111 0.09589 0.0
H410 H 0.13515 0.66554 0.0991 0.0
C411 C 0.32531 0.87764 0.08895 0.0
C412 C 0.25931 0.7795 0.09431 0.0
H413 H 0.21873 0.71242 0.07247 0.0
C414 C 0.23988 0.76075 0.10521 0.0
C415 C 0.25143 0.76179 0.08233 0.0
C416 C 0.27252 0.7794 0.07036 0.0
C417 C 0.21388 0.72451 0.10457 0.0
C418 C 0.2063 0.70682 0.09261 0.0
C419 C 0.22454 0.72602 0.08163 0.0
C420 C 0.18256 0.66773 0.09133 0.0
C421 C 0.19622 0.70515 0.1168 0.0
C422 C 0.19624 0.64761 0.0858 0.0
C423 C 0.17437 0.6113 0.08372 0.0
C424 C 0.13831 0.59402 0.08727 0.0
C425 C 0.12463 0.61378 0.09315 0.0
C426 C 0.14653 0.65052 0.09504 0.0
H427 H 0.21084 0.72046 0.12544 0.0
H428 H 0.16882 0.70099 0.11723 0.0
H429 H 0.19435 0.67872 0.11714 0.0
H430 H 0.22394 0.66014 0.08293 0.0
H431 H 0.18579 0.59674 0.07927 0.0
H432 H 0.16291 0.48102 0.11425 0.0
H433 H 0.22109 0.48479 0.11408 0.0
H434 H 0.21821 0.4798 0.07276 0.0
H435 H 0.15949 0.475 0.07287 0.0
H436 H 0.24591 0.44069 0.0833 0.0
H437 H 0.31062 0.57604 0.10457 0.0
H438 H 0.27543 0.54258 0.11414 0.0
H439 H 0.26542 0.55403 0.09872 0.0
C440 C 0.17449 0.48036 0.10513 0.0
C441 C 0.15676 0.47808 0.09356 0.0
C442 C 0.20785 0.48273 0.10505 0.0
C443 C 0.2244 0.48347 0.0934 0.0
C444 C 0.20603 0.47952 0.08186 0.0
H445 H 0.4291 0.53756 0.06444 0.0
H446 H 0.36578 0.51484 0.0682 0.0
C447 C 0.17247 0.47677 0.08194 0.0
C448 C 0.26141 0.48987 0.09316 0.0
H449 H 0.34723 0.55117 0.10091 0.0
C450 C 0.26804 0.46476 0.0872 0.0
C451 C 0.29032 0.52134 0.09824 0.0
C452 C 0.28527 0.55022 0.10417 0.0
C453 C 0.30281 0.47043 0.0861 0.0
C454 C 0.33166 0.5021 0.09101 0.0
C455 C 0.32498 0.52676 0.09725 0.0
C456 C 0.36923 0.51181 0.08881 0.0
C457 C 0.30849 0.44261 0.07964 0.0
C458 C 0.39224 0.51764 0.09917 0.0
C459 C 0.4286 0.53061 0.09705 0.0
C460 C 0.44256 0.53854 0.08454 0.0
C461 C 0.41922 0.53179 0.07419 0.0
C462 C 0.38294 0.51855 0.07631 0.0
H463 H 0.28373 0.41623 0.07958 0.0
H464 H 0.31663 0.4506 0.06954 0.0
H465 H 0.32991 0.44002 0.08447 0.0
H466 H 0.38218 0.51287 0.1089 0.0
H467 H 0.44594 0.5357 0.10522 0.0
H468 H 0.90189 0.48599 0.93012 0.0
H469 H 0.8606 0.50787 0.9264 0.0
H470 H 0.88488 0.51781 0.88602 0.0
H471 H 0.92657 0.49585 0.88965 0.0
H472 H 0.87231 0.57412 0.91374 0.0
H473 H 0.77379 0.44917 0.88924 0.0
H474 H 0.80885 0.45141 0.89926 0.0
H475 H 0.81905 0.47088 0.88356 0.0
C476 C 0.89873 0.49307 0.92044 0.0
C477 C 0.91733 0.48892 0.91016 0.0
C478 C 0.87518 0.50568 0.91835 0.0
C479 C 0.86944 0.5141 0.90593 0.0
C480 C 0.88875 0.51113 0.89567 0.0
H481 H 0.69795 0.5511 0.88127 0.0
H482 H 0.75091 0.54482 0.88154 0.0
C483 C 0.91265 0.49875 0.89776 0.0
C484 C 0.84195 0.52437 0.90381 0.0
H485 H 0.75759 0.49267 0.8924 0.0
C486 C 0.84732 0.55651 0.90897 0.0
C487 C 0.80945 0.50134 0.89759 0.0
C488 C 0.80209 0.46613 0.89214 0.0
C489 C 0.82086 0.56614 0.90816 0.0
C490 C 0.7878 0.54251 0.90233 0.0
C491 C 0.78286 0.51077 0.89689 0.0
C492 C 0.75744 0.54937 0.90215 0.0
C493 C 0.82874 0.60163 0.91347 0.0
C494 C 0.74344 0.55416 0.91364 0.0
C495 C 0.71325 0.55801 0.91352 0.0
C496 C 0.69611 0.55659 0.9019 0.0
C497 C 0.71043 0.55222 0.89039 0.0
C498 C 0.74074 0.54863 0.89052 0.0
H499 H 0.85784 0.62079 0.91369 0.0
H500 H 0.81553 0.61331 0.90773 0.0
H501 H 0.81874 0.59802 0.92346 0.0
H502 H 0.75524 0.5539 0.92277 0.0
H503 H 0.70274 0.56103 0.92255 0.0
H504 H 0.49762 0.17225 0.88072 0.0
H505 H 0.50063 0.22995 0.88014 0.0
H506 H 0.49082 0.22802 0.92131 0.0
H507 H 0.48706 0.16992 0.92198 0.0
H508 H 0.45008 0.25254 0.90889 0.0
H509 H 0.58951 0.32149 0.89088 0.0
H510 H 0.55814 0.28525 0.88111 0.0
H511 H 0.56807 0.27666 0.89701 0.0
C512 C 0.49596 0.18402 0.88966 0.0
C513 C 0.49252 0.1667 0.90142 0.0
C514 C 0.4978 0.21706 0.8893 0.0
C515 C 0.49665 0.23358 0.9007 0.0
C516 C 0.49192 0.21579 0.91241 0.0
H517 H 0.53904 0.43198 0.93021 0.0
H518 H 0.51673 0.36937 0.92552 0.0
C519 C 0.48985 0.18262 0.91277 0.0
C520 C 0.50162 0.26992 0.90053 0.0
H521 H 0.56268 0.35645 0.89389 0.0
C522 C 0.47459 0.27524 0.90553 0.0
C523 C 0.53359 0.2995 0.89608 0.0
C524 C 0.56415 0.29565 0.89106 0.0
C525 C 0.47895 0.30946 0.90643 0.0
C526 C 0.51131 0.33907 0.90236 0.0
C527 C 0.5378 0.33363 0.89693 0.0
C528 C 0.51998 0.37609 0.90491 0.0
C529 C 0.44906 0.31369 0.91187 0.0
C530 C 0.52912 0.40071 0.89487 0.0
C531 C 0.54192 0.43671 0.89753 0.0
C532 C 0.54635 0.44862 0.91029 0.0
C533 C 0.53601 0.42365 0.92028 0.0
C534 C 0.52297 0.38777 0.91762 0.0
H535 H 0.42294 0.28889 0.91082 0.0
H536 H 0.45386 0.31985 0.92225 0.0
H537 H 0.4476 0.3358 0.9071 0.0
H538 H 0.5273 0.39222 0.885 0.0
H539 H 0.54987 0.45538 0.88964 0.0
H540 H 0.6211 0.13779 0.92998 0.0
H541 H 0.68386 0.177 0.9249 0.0
H542 H 0.65981 0.16053 0.88452 0.0
H543 H 0.59647 0.12108 0.88953 0.0
H544 H 0.73459 0.16753 0.90936 0.0
H545 H 0.70474 0.26994 0.89055 0.0
H546 H 0.67332 0.233 0.90021 0.0
H547 H 0.68027 0.2261 0.88375 0.0
C548 C 0.62913 0.14211 0.92 0.0
C549 C 0.60376 0.12664 0.91014 0.0
C550 C 0.66506 0.16443 0.91713 0.0
C551 C 0.67638 0.17199 0.90436 0.0
C552 C 0.65148 0.15527 0.89446 0.0
H553 H 0.87981 0.34898 0.87887 0.0
H554 H 0.82183 0.29467 0.87895 0.0
C555 C 0.61538 0.13264 0.89733 0.0
C556 C 0.71375 0.19939 0.9016 0.0
H557 H 0.76472 0.28539 0.89172 0.0
C558 C 0.74128 0.1932 0.90536 0.0
C559 C 0.72231 0.23282 0.89642 0.0
C560 C 0.69374 0.24119 0.89255 0.0
C561 C 0.77723 0.21976 0.9042 0.0
C562 C 0.78577 0.25366 0.89946 0.0
C563 C 0.7582 0.25943 0.89536 0.0
C564 C 0.82285 0.28417 0.89919 0.0
C565 C 0.80564 0.21119 0.90805 0.0
C566 C 0.84301 0.29625 0.91051 0.0
C567 C 0.87648 0.32717 0.91047 0.0
C568 C 0.89017 0.3469 0.89912 0.0
C569 C 0.87019 0.33436 0.88776 0.0
C570 C 0.83694 0.30332 0.88779 0.0
H571 H 0.7958 0.18221 0.90735 0.0
H572 H 0.82977 0.22562 0.90198 0.0
H573 H 0.81331 0.21921 0.91817 0.0
H574 H 0.83236 0.28251 0.9195 0.0
H575 H 0.89104 0.33625 0.9194 0.0
H576 H 0.21141 0.02752 0.44925 0.0
H577 H 0.20594 0.08082 0.44752 0.0
H578 H 0.22679 0.08579 0.40695 0.0
H579 H 0.23241 0.03263 0.40854 0.0
H580 H 0.25503 0.15349 0.43598 0.0
H581 H 0.12433 0.07396 0.41157 0.0
H582 H 0.14465 0.0538 0.42091 0.0
H583 H 0.16067 0.07012 0.40506 0.0
C584 C 0.21536 0.04023 0.43998 0.0
C585 C 0.22203 0.02562 0.42901 0.0
C586 C 0.21229 0.07071 0.43903 0.0
C587 C 0.21561 0.08693 0.42709 0.0
C588 C 0.22387 0.07342 0.41623 0.0
H589 H 0.16581 0.23988 0.396 0.0
H590 H 0.1869 0.19819 0.4 0.0
C591 C 0.2271 0.04306 0.41717 0.0
C592 C 0.2078 0.11628 0.42576 0.0
H593 H 0.14733 0.13583 0.41285 0.0
C594 C 0.23148 0.14975 0.43097 0.0
C595 C 0.17693 0.1111 0.41929 0.0
C596 C 0.14994 0.07528 0.41395 0.0
C597 C 0.22557 0.17861 0.42949 0.0
C598 C 0.19488 0.1735 0.42285 0.0
C599 C 0.17098 0.13979 0.41787 0.0
C600 C 0.18693 0.2026 0.42066 0.0
C601 C 0.25265 0.21447 0.43473 0.0
C602 C 0.18066 0.2196 0.43096 0.0
C603 C 0.16877 0.24378 0.42869 0.0
C604 C 0.16252 0.25088 0.41609 0.0
C605 C 0.17013 0.23481 0.40582 0.0
C606 C 0.18222 0.21097 0.40809 0.0
H607 H 0.27861 0.21605 0.43668 0.0
H608 H 0.25705 0.23602 0.42795 0.0
H609 H 0.24265 0.21919 0.44388 0.0
H610 H 0.18346 0.21306 0.44075 0.0
H611 H 0.1629 0.25557 0.43679 0.0
H612 H 0.02356 0.19594 0.44418 0.0
H613 H 0.97143 0.13639 0.44311 0.0
H614 H 0.95009 0.15699 0.40464 0.0
H615 H 1.00244 0.2169 0.40558 0.0
H616 H 0.88722 0.11982 0.42274 0.0
H617 H 0.97324 0.05874 0.41923 0.0
H618 H 0.9832 0.09002 0.43205 0.0
H619 H 0.98954 0.10508 0.41573 0.0
C620 C 0.0077 0.18803 0.4355 0.0
C621 C 0.0174 0.21113 0.42491 0.0
C622 C 0.97789 0.15394 0.43493 0.0
C623 C 0.95715 0.14224 0.42377 0.0
C624 C 0.96584 0.16559 0.41334 0.0
H625 H 0.81718 0.93073 0.3969 0.0
H626 H 0.86036 0.99354 0.39979 0.0
C627 C 0.99579 0.19975 0.41388 0.0
C628 C 0.9277 0.10495 0.42275 0.0
H629 H 0.91131 0.01966 0.42053 0.0
C630 C 0.89237 0.09785 0.42229 0.0
C631 C 0.93464 0.07646 0.4221 0.0
C632 C 0.97217 0.08274 0.42221 0.0
C633 C 0.8637 0.06281 0.42122 0.0
C634 C 0.8707 0.03436 0.42062 0.0
C635 C 0.90605 0.04155 0.42108 0.0
C636 C 0.84209 0.99698 0.41872 0.0
C637 C 0.82622 0.05641 0.42043 0.0
C638 C 0.81716 0.97808 0.4284 0.0
C639 C 0.79228 0.94184 0.42681 0.0
C640 C 0.7921 0.92405 0.41551 0.0
C641 C 0.81657 0.94347 0.40575 0.0
C642 C 0.84133 0.97945 0.40736 0.0
H643 H 0.82567 0.08151 0.41908 0.0
H644 H 0.81163 0.0381 0.41239 0.0
H645 H 0.81186 0.04363 0.42943 0.0
H646 H 0.8176 0.99107 0.43732 0.0
H647 H 0.77387 0.92762 0.43452 0.0
H648 H 0.10858 0.87834 0.44059 0.0
H649 H 0.04482 0.85537 0.44455 0.0
H650 H 0.02562 0.84836 0.40381 0.0
H651 H 0.08882 0.87127 0.39978 0.0
H652 H 0.00779 0.89079 0.43486 0.0
H653 H 0.9459 0.75141 0.41786 0.0
H654 H 0.99221 0.77708 0.42248 0.0
H655 H 0.97804 0.78372 0.40704 0.0
C656 C 0.09061 0.87126 0.4325 0.0
C657 C 0.10371 0.87671 0.41988 0.0
C658 C 0.05427 0.85822 0.43477 0.0
C659 C 0.03047 0.8498 0.42447 0.0
C660 C 0.04339 0.85411 0.41189 0.0
H661 H 0.81744 0.80339 0.40786 0.0
H662 H 0.87709 0.81029 0.40804 0.0
C663 C 0.0796 0.86746 0.40962 0.0
C664 C 0.9928 0.83977 0.42667 0.0
H665 H 0.90718 0.77536 0.42023 0.0
C666 C 0.98571 0.86535 0.43187 0.0
C667 C 0.96416 0.80673 0.42261 0.0
C668 C 0.97032 0.77798 0.41728 0.0
C669 C 0.9508 0.85938 0.43263 0.0
C670 C 0.92208 0.82649 0.42838 0.0
C671 C 0.92916 0.80054 0.42348 0.0
C672 C 0.88473 0.81919 0.42851 0.0
C673 C 0.94524 0.88908 0.43739 0.0
C674 C 0.86874 0.82078 0.43999 0.0
C675 C 0.83489 0.81726 0.43989 0.0
C676 C 0.81601 0.81139 0.42833 0.0
C677 C 0.83128 0.80793 0.41692 0.0
C678 C 0.86536 0.81185 0.41702 0.0
H679 H 0.97024 0.91523 0.43705 0.0
H680 H 0.92466 0.89089 0.43163 0.0
H681 H 0.93616 0.88381 0.44751 0.0
H682 H 0.88276 0.8255 0.44902 0.0
H683 H 0.82388 0.81991 0.44886 0.0
H684 H 0.37411 0.90274 0.25247 0.0
H685 H 0.42617 0.89491 0.25385 0.0
H686 H 0.41775 0.87108 0.21347 0.0
H687 H 0.36545 0.87836 0.21199 0.0
H688 H 0.42065 0.82622 0.24557 0.0
H689 H 0.52704 0.94528 0.22049 0.0
H690 H 0.48922 0.94501 0.2279 0.0
H691 H 0.48375 0.92203 0.21306 0.0
C692 C 0.38366 0.89643 0.24383 0.0
C693 C 0.36559 0.89119 0.23212 0.0
C694 C 0.4134 0.89196 0.24465 0.0
C695 C 0.42593 0.88273 0.23374 0.0
C696 C 0.40878 0.87871 0.22195 0.0
H697 H 0.58866 0.82223 0.22288 0.0
H698 H 0.54555 0.84253 0.21953 0.0
C699 C 0.37883 0.88282 0.22114 0.0
C700 C 0.45463 0.87385 0.23497 0.0
H701 H 0.54114 0.90164 0.22707 0.0
C702 C 0.44705 0.84276 0.24158 0.0
C703 C 0.48875 0.89518 0.22954 0.0
C704 C 0.498 0.92889 0.22239 0.0
C705 C 0.47269 0.83229 0.24291 0.0
C706 C 0.50729 0.85415 0.23783 0.0
C707 C 0.51473 0.88506 0.23104 0.0
C708 C 0.53601 0.84541 0.23975 0.0
C709 C 0.46215 0.79746 0.24952 0.0
C710 C 0.54595 0.84164 0.25219 0.0
C711 C 0.57013 0.82974 0.25412 0.0
C712 C 0.58544 0.822 0.24363 0.0
C713 C 0.57722 0.82792 0.23115 0.0
C714 C 0.5526 0.83947 0.22922 0.0
H715 H 0.43284 0.7793 0.2493 0.0
H716 H 0.47517 0.78376 0.245 0.0
H717 H 0.47047 0.80264 0.25972 0.0
H718 H 0.53429 0.84705 0.26046 0.0
H719 H 0.57632 0.82599 0.26386 0.0
H720 H 0.22068 0.78484 0.21948 0.0
H721 H 0.19826 0.72165 0.21484 0.0
H722 H 0.19079 0.69941 0.25538 0.0
H723 H 0.21305 0.762 0.26007 0.0
H724 H 0.2343 0.68543 0.22353 0.0
H725 H 0.09523 0.61943 0.24117 0.0
H726 H 0.12002 0.66615 0.23716 0.0
H727 H 0.1269 0.65079 0.25233 0.0
C728 C 0.21354 0.76629 0.22738 0.0
C729 C 0.21873 0.77834 0.24013 0.0
C730 C 0.20082 0.73029 0.22472 0.0
C731 C 0.19248 0.70584 0.23477 0.0
C732 C 0.19643 0.7177 0.24748 0.0
H733 H 0.15731 0.49932 0.2523 0.0
H734 H 0.16178 0.55773 0.25143 0.0
C735 C 0.20943 0.75356 0.25014 0.0
C736 C 0.18332 0.66869 0.2322 0.0
H737 H 0.12166 0.58255 0.23906 0.0
C738 C 0.20941 0.66282 0.22667 0.0
C739 C 0.15094 0.63939 0.23642 0.0
C740 C 0.1215 0.64415 0.242 0.0
C741 C 0.20482 0.62852 0.22589 0.0
C742 C 0.17285 0.59924 0.2305 0.0
C743 C 0.14618 0.60501 0.23558 0.0
C744 C 0.16753 0.56276 0.2308 0.0
C745 C 0.23503 0.62422 0.22079 0.0
C746 C 0.16839 0.54584 0.21946 0.0
C747 C 0.16616 0.51263 0.21994 0.0
C748 C 0.16259 0.49553 0.23176 0.0
C749 C 0.16018 0.51185 0.24305 0.0
C750 C 0.16268 0.54519 0.24257 0.0
H751 H 0.26053 0.64991 0.2205 0.0
H752 H 0.23887 0.60519 0.22674 0.0
H753 H 0.22868 0.61366 0.21087 0.0
H754 H 0.17126 0.55852 0.21025 0.0
H755 H 0.16761 0.50055 0.21105 0.0
H756 H 0.55367 0.67423 0.21136 0.0
H757 H 0.49518 0.62033 0.21111 0.0
H758 H 0.49542 0.61716 0.25243 0.0
H759 H 0.5543 0.6708 0.25278 0.0
H760 H 0.46885 0.55001 0.24104 0.0
H761 H 0.40494 0.62259 0.22048 0.0
H762 H 0.44109 0.6252 0.21124 0.0
H763 H 0.4496 0.64524 0.22686 0.0
C764 C 0.54143 0.66195 0.22041 0.0
C765 C 0.55848 0.67705 0.23211 0.0
C766 C 0.50791 0.6312 0.22024 0.0
C767 C 0.49061 0.61516 0.23175 0.0
C768 C 0.50822 0.62924 0.24343 0.0
H769 H 0.2885 0.4652 0.26132 0.0
H770 H 0.35155 0.50415 0.25678 0.0
C771 C 0.54187 0.65991 0.24362 0.0
C772 C 0.4536 0.58463 0.23171 0.0
H773 H 0.36792 0.56138 0.22423 0.0
C774 C 0.4468 0.5524 0.23729 0.0
C775 C 0.42486 0.58774 0.22676 0.0
C776 C 0.43028 0.62209 0.22109 0.0
C777 C 0.41196 0.52341 0.23824 0.0
C778 C 0.38316 0.52691 0.23364 0.0
C779 C 0.39007 0.55869 0.22767 0.0
C780 C 0.34553 0.49962 0.23616 0.0
C781 C 0.40623 0.48936 0.24425 0.0
C782 C 0.32103 0.48403 0.22606 0.0
C783 C 0.2847 0.46158 0.22864 0.0
C784 C 0.27234 0.45495 0.24136 0.0
C785 C 0.29714 0.46979 0.25141 0.0
C786 C 0.3333 0.49188 0.24884 0.0
H787 H 0.43049 0.48691 0.24351 0.0
H788 H 0.40004 0.48926 0.25458 0.0
H789 H 0.38362 0.46579 0.23967 0.0
H790 H 0.3299 0.48995 0.2162 0.0
H791 H 0.2662 0.45071 0.2207 0.0
H792 H 0.82393 0.58208 0.76992 0.0
H793 H 0.84547 0.54066 0.77459 0.0
H794 H 0.86025 0.53179 0.73414 0.0
H795 H 0.83823 0.57237 0.72942 0.0
H796 H 0.81921 0.46745 0.7456 0.0
H797 H 0.943 0.54765 0.77378 0.0
H798 H 0.90443 0.54832 0.77971 0.0
H799 H 0.92263 0.56762 0.76436 0.0
C800 C 0.8325 0.57186 0.76206 0.0
C801 C 0.82917 0.5803 0.7493 0.0
C802 C 0.84493 0.5483 0.76474 0.0
C803 C 0.85468 0.53327 0.75471 0.0
C804 C 0.85287 0.54303 0.74203 0.0
H805 H 0.90967 0.36919 0.74407 0.0
H806 H 0.90267 0.42153 0.74225 0.0
C807 C 0.84025 0.56624 0.73935 0.0
C808 C 0.86335 0.50475 0.75716 0.0
H809 H 0.92192 0.48565 0.7722 0.0
C810 C 0.84178 0.47154 0.75138 0.0
C811 C 0.8926 0.51 0.76479 0.0
C812 C 0.91723 0.54539 0.77095 0.0
C813 C 0.84865 0.44349 0.75296 0.0
C814 C 0.87816 0.44884 0.76042 0.0
C815 C 0.89946 0.48179 0.76642 0.0
C816 C 0.88692 0.42018 0.76201 0.0
C817 C 0.82404 0.40812 0.74675 0.0
C818 C 0.88157 0.40291 0.77384 0.0
C819 C 0.88546 0.37292 0.77492 0.0
C820 C 0.89499 0.35985 0.76418 0.0
C821 C 0.90216 0.37843 0.75251 0.0
C822 C 0.89812 0.4083 0.75144 0.0
H823 H 0.7986 0.40613 0.74361 0.0
H824 H 0.83728 0.40481 0.73818 0.0
H825 H 0.81793 0.38591 0.75345 0.0
H826 H 0.87296 0.41174 0.7821 0.0
H827 H 0.87982 0.35931 0.78406 0.0
H828 H 0.67694 0.52793 0.77653 0.0
H829 H 0.62376 0.46896 0.77518 0.0
H830 H 0.61717 0.48313 0.73456 0.0
H831 H 0.67045 0.54209 0.73576 0.0
H832 H 0.55183 0.44559 0.76502 0.0
H833 H 0.62596 0.39198 0.73849 0.0
H834 H 0.64811 0.43327 0.74728 0.0
H835 H 0.62887 0.43155 0.73185 0.0
C836 C 0.66406 0.51865 0.76731 0.0
C837 C 0.67816 0.53956 0.75622 0.0
C838 C 0.6336 0.485 0.76658 0.0
C839 C 0.61685 0.47161 0.75476 0.0
C840 C 0.63001 0.49291 0.74375 0.0
H841 H 0.45744 0.26665 0.72696 0.0
H842 H 0.49971 0.32978 0.72988 0.0
C843 C 0.6604 0.5266 0.74447 0.0
C844 C 0.58687 0.43463 0.75379 0.0
H845 H 0.56416 0.35376 0.74104 0.0
C846 C 0.5544 0.42541 0.7598 0.0
C847 C 0.59053 0.40844 0.74705 0.0
C848 C 0.62529 0.41656 0.74087 0.0
C849 C 0.52506 0.39071 0.75892 0.0
C850 C 0.52866 0.36459 0.75207 0.0
C851 C 0.56135 0.37386 0.74622 0.0
C852 C 0.49906 0.32744 0.75061 0.0
C853 C 0.4903 0.38257 0.76507 0.0
C854 C 0.4839 0.3052 0.76132 0.0
C855 C 0.45933 0.26896 0.75967 0.0
C856 C 0.45007 0.2544 0.74728 0.0
C857 C 0.46424 0.27703 0.73663 0.0
C858 C 0.4884 0.31314 0.73828 0.0
H859 H 0.48918 0.40715 0.76698 0.0
H860 H 0.46736 0.3647 0.7589 0.0
H861 H 0.48745 0.36895 0.77436 0.0
H862 H 0.49222 0.31548 0.77092 0.0
H863 H 0.44904 0.25209 0.76805 0.0
H864 H 0.49099 0.14458 0.73732 0.0
H865 H 0.55165 0.15398 0.73702 0.0
H866 H 0.5551 0.15882 0.77831 0.0
H867 H 0.4946 0.14952 0.77873 0.0
H868 H 0.61169 0.21714 0.74888 0.0
H869 H 0.59326 0.08988 0.76853 0.0
H870 H 0.55732 0.09332 0.76118 0.0
H871 H 0.57209 0.11037 0.77703 0.0
C872 C 0.50443 0.14707 0.74635 0.0
C873 C 0.48801 0.14642 0.75804 0.0
C874 C 0.53908 0.15248 0.74615 0.0
C875 C 0.5577 0.15679 0.75764 0.0
C876 C 0.54101 0.15506 0.76935 0.0
H877 H 0.77869 0.21277 0.77313 0.0
H878 H 0.71481 0.19245 0.7753 0.0
C879 C 0.5065 0.14995 0.76955 0.0
C880 C 0.5956 0.16614 0.75734 0.0
H881 H 0.65251 0.13585 0.76489 0.0
C882 C 0.62063 0.19934 0.75233 0.0
C883 C 0.60717 0.14308 0.76207 0.0
C884 C 0.58115 0.10703 0.76745 0.0
C885 C 0.657 0.21018 0.75191 0.0
C886 C 0.66857 0.18672 0.75626 0.0
C887 C 0.64359 0.1537 0.76149 0.0
C888 C 0.70634 0.1958 0.75501 0.0
C889 C 0.68276 0.24698 0.74698 0.0
C890 C 0.72238 0.20312 0.74287 0.0
C891 C 0.75865 0.21494 0.74164 0.0
C892 C 0.77963 0.21915 0.7525 0.0
C893 C 0.76319 0.20985 0.7646 0.0
C894 C 0.72676 0.19829 0.76585 0.0
H895 H 0.67157 0.265 0.74779 0.0
H896 H 0.70837 0.25894 0.7523 0.0
H897 H 0.68828 0.24531 0.7367 0.0
H898 H 0.70696 0.20043 0.73434 0.0
H899 H 0.77037 0.22135 0.73215 0.0
H900 H 0.03327 0.21917 0.5886 0.0
H901 H 0.08708 0.2143 0.58925 0.0
H902 H 0.08157 0.19925 0.54829 0.0
H903 H 0.02776 0.20416 0.5475 0.0
H904 H 0.08659 0.15098 0.57992 0.0
H905 H 0.18844 0.2745 0.55568 0.0
H906 H 0.14873 0.27069 0.56285 0.0
H907 H 0.146 0.24949 0.5478 0.0
C908 C 0.04377 0.21535 0.5797 0.0
C909 C 0.02611 0.21181 0.56801 0.0
C910 C 0.07451 0.2126 0.58009 0.0
C911 C 0.08839 0.20671 0.56881 0.0
C912 C 0.07154 0.20431 0.55707 0.0
H913 H 0.25673 0.15506 0.55633 0.0
H914 H 0.2121 0.17349 0.55327 0.0
C915 C 0.04066 0.20687 0.55667 0.0
C916 C 0.11839 0.19967 0.56954 0.0
H917 H 0.20555 0.23232 0.5613 0.0
C918 C 0.11264 0.1688 0.57589 0.0
C919 C 0.15208 0.22274 0.56409 0.0
C920 C 0.15949 0.25638 0.55727 0.0
C921 C 0.13973 0.1603 0.57696 0.0
C922 C 0.17383 0.18386 0.57186 0.0
C923 C 0.17946 0.21448 0.56529 0.0
C924 C 0.20391 0.17716 0.57355 0.0
C925 C 0.13135 0.12581 0.5834 0.0
C926 C 0.21506 0.17457 0.58593 0.0
C927 C 0.24012 0.16378 0.58769 0.0
C928 C 0.25499 0.15593 0.5771 0.0
C929 C 0.24565 0.16087 0.56466 0.0
C930 C 0.22018 0.17136 0.5629 0.0
H931 H 0.10228 0.10648 0.5834 0.0
H932 H 0.14525 0.11338 0.57858 0.0
H933 H 0.14036 0.13118 0.59352 0.0
H934 H 0.20348 0.17981 0.59426 0.0
H935 H 0.24719 0.16073 0.59739 0.0
H936 H 0.7993 0.81377 0.58377 0.0
H937 H 0.80325 0.87195 0.58425 0.0
H938 H 0.83233 0.88728 0.54426 0.0
H939 H 0.82841 0.8292 0.54366 0.0
H940 H 0.86779 0.93505 0.5784 0.0
H941 H 0.75729 0.91941 0.54692 0.0
H942 H 0.75823 0.88195 0.55404 0.0
H943 H 0.78562 0.9041 0.54039 0.0
C944 C 0.80592 0.82921 0.57502 0.0
C945 C 0.81365 0.81689 0.56369 0.0
C946 C 0.80813 0.86243 0.57531 0.0
C947 C 0.81774 0.88373 0.56426 0.0
C948 C 0.82424 0.87099 0.55283 0.0
H949 H 0.88673 0.10915 0.55458 0.0
H950 H 0.86653 0.04626 0.55013 0.0
C951 C 0.82217 0.83784 0.55254 0.0
C952 C 0.82475 0.92071 0.56509 0.0
H953 H 0.79809 0.97789 0.55408 0.0
C954 C 0.85245 0.94436 0.57312 0.0
C955 C 0.80503 0.93286 0.55803 0.0
C956 C 0.77468 0.90828 0.54942 0.0
C957 C 0.86097 0.97985 0.57434 0.0
C958 C 0.84073 0.99186 0.56754 0.0
C959 C 0.8134 0.96847 0.55931 0.0
C960 C 0.8472 0.0284 0.56938 0.0
C961 C 0.89181 0.00434 0.58283 0.0
C962 C 0.84152 0.03869 0.58147 0.0
C963 C 0.85314 0.07432 0.58404 0.0
C964 C 0.87034 0.10032 0.57451 0.0
C965 C 0.87353 0.08964 0.56209 0.0
C966 C 0.86207 0.05381 0.55955 0.0
H967 H 0.90995 0.99368 0.58471 0.0
H968 H 0.90745 0.03111 0.57843 0.0
H969 H 0.8814 0.00732 0.59218 0.0
H970 H 0.82958 0.01934 0.58911 0.0
H971 H 0.84992 0.08168 0.59366 0.0
H972 H 0.21141 0.00863 0.54678 0.0
H973 H 0.15107 0.95758 0.54833 0.0
H974 H 0.16217 0.95621 0.58937 0.0
H975 H 0.22271 0.00731 0.58793 0.0
H976 H 0.12379 0.88653 0.5603 0.0
H977 H 0.0736 0.96913 0.58277 0.0
H978 H 0.11537 0.98827 0.57422 0.0
H979 H 0.11213 0.97134 0.59017 0.0
C980 C 0.20124 0.99726 0.55614 0.0
C981 C 0.22187 0.01223 0.56725 0.0
C982 C 0.16673 0.96803 0.55699 0.0
C983 C 0.15201 0.95339 0.56897 0.0
C984 C 0.17294 0.96738 0.58004 0.0
H985 H 0.94116 0.804 0.59614 0.0
H986 H 1.00457 0.84592 0.59354 0.0
C987 C 0.20758 0.99649 0.57919 0.0
C988 C 0.11419 0.92473 0.56993 0.0
H989 H 0.03302 0.90774 0.58093 0.0
C990 C 0.10385 0.89106 0.5648 0.0
C991 C 0.08828 0.93085 0.57573 0.0
C992 C 0.09765 0.96688 0.58096 0.0
C993 C 0.06836 0.86301 0.56563 0.0
C994 C 0.04242 0.86909 0.57149 0.0
C995 C 0.05285 0.90296 0.57648 0.0
C996 C 1.00443 0.84077 0.57291 0.0
C997 C 0.05923 0.82692 0.56055 0.0
C998 C 0.98308 0.82334 0.56218 0.0
C999 C 0.9466 0.7989 0.56366 0.0
C1000 C 0.93078 0.79194 0.57587 0.0
C1001 C 0.95242 0.80887 0.58658 0.0
C1002 C 0.98874 0.83291 0.58512 0.0
H1003 H 0.08328 0.82419 0.55961 0.0
H1004 H 0.03979 0.8054 0.56689 0.0
H1005 H 0.04708 0.82323 0.5509 0.0
H1006 H 0.99431 0.82947 0.55262 0.0
H1007 H 0.93059 0.78653 0.55521 0.0
H1008 H 0.44535 0.98938 0.04722 0.0
H1009 H 0.45666 0.98904 0.0244 0.0
H1010 H 0.56868 0.03237 0.03197 0.0
H1011 H 0.55772 0.03355 0.05497 0.0
H1012 H 0.55744 0.0674 0.01291 0.0
H1013 H 0.47744 0.92343 0.00354 0.0
H1014 H 0.45121 0.93869 0.01169 0.0
H1015 H 0.48948 0.9413 0.01956 0.0
C1016 C 0.47241 0.99863 0.04409 0.0
C1017 C 0.50063 0.01146 0.05294 0.0
C1018 C 0.47877 0.99806 0.03103 0.0
C1019 C 0.51337 0.00986 0.02651 0.0
C1020 C 0.5417 0.02275 0.03528 0.0
H1021 H 0.52117 0.98841 0.94279 0.0
H1022 H 0.53296 0.98411 0.96551 0.0
C1023 C 0.53539 0.02347 0.04841 0.0
C1024 C 0.51984 0.01114 0.01254 0.0
H1025 H 0.4866 0.96207 0.98529 0.0
C1026 C 0.54256 0.04422 0.00687 0.0
C1027 C 0.50117 0.98078 0.00467 0.0
C1028 C 0.4788 0.94401 0.01021 0.0
C1029 C 0.5448 0.04824 0.99351 0.0
C1030 C 0.52311 0.01857 0.98567 0.0
C1031 C 0.50271 0.98496 0.99131 0.0
C1032 C 0.51829 0.02249 0.97183 0.0
C1033 C 0.56967 0.08444 0.98794 0.0
C1034 C 0.5057 0.0451 0.9679 0.0
C1035 C 0.49897 0.04764 0.955 0.0
C1036 C 0.50424 0.02723 0.94573 0.0
C1037 C 0.51676 0.00444 0.94968 0.0
C1038 C 0.52362 1.00202 0.96264 0.0
H1039 H 0.59283 0.09999 0.99436 0.0
H1040 H 0.57964 0.08239 0.97836 0.0
H1041 H 0.55527 0.09943 0.98694 0.0
H1042 H 0.50035 0.06033 0.97487 0.0
H1043 H 0.48918 0.06532 0.95233 0.0
H1044 H 0.99554 0.44457 0.94918 0.0
H1045 H 0.99409 0.45765 0.97177 0.0
H1046 H 0.03725 0.5687 0.96285 0.0
H1047 H 0.0395 0.55596 0.94009 0.0
H1048 H 0.07152 0.55913 0.98271 0.0
H1049 H 0.92677 0.47962 0.9911 0.0
H1050 H 0.94257 0.45299 0.98361 0.0
H1051 H 0.94562 0.49066 0.97518 0.0
C1052 C 1.00454 0.47179 0.95196 0.0
C1053 C 0.01759 0.49922 0.94281 0.0
C1054 C 1.00333 0.47916 0.96489 0.0
C1055 C 0.01472 0.514 0.96895 0.0
C1056 C 0.02792 0.54155 0.95988 0.0
H1057 H 0.98749 0.52307 0.05223 0.0
H1058 H 0.98531 0.53594 0.02947 0.0
C1059 C 0.02927 0.53422 0.94689 0.0
C1060 C 0.01516 0.5215 0.9828 0.0
H1061 H 0.96444 0.48968 0.00978 0.0
C1062 C 0.04795 0.54459 0.98862 0.0
C1063 C 0.98428 0.5033 0.99049 0.0
C1064 C 0.94778 0.48059 0.98473 0.0
C1065 C 0.05121 0.54751 0.002 0.0
C1066 C 0.02106 0.52616 0.0097 0.0
C1067 C 0.9877 0.50554 0.00387 0.0
C1068 C 0.02429 0.52151 0.0236 0.0
C1069 C 0.08715 0.57261 0.00774 0.0
C1070 C 0.04664 0.50885 0.02781 0.0
C1071 C 0.04796 0.5015 0.04073 0.0
C1072 C 0.02658 0.50621 0.04975 0.0
C1073 C 1.00428 0.51911 0.04554 0.0
C1074 C 1.00305 0.52657 0.03255 0.0
H1075 H 0.10292 0.59561 0.00129 0.0
H1076 H 0.08456 0.58271 0.01722 0.0
H1077 H 0.10227 0.55842 0.009 0.0
H1078 H 0.06245 0.50373 0.02103 0.0
H1079 H 0.06535 0.49151 0.04359 0.0
H1080 H 0.48757 0.51991 0.94203 0.0
H1081 H 0.47269 0.50561 0.96475 0.0
H1082 H 0.58416 0.55038 0.97368 0.0
H1083 H 0.59924 0.56417 0.95115 0.0
H1084 H 0.5402 0.48505 0.98576 0.0
H1085 H 0.49109 0.58059 0.99228 0.0
H1086 H 0.47024 0.54749 0.97998 0.0
H1087 H 0.51604 0.5815 0.97831 0.0
C1088 C 0.50889 0.52668 0.94884 0.0
C1089 C 0.54463 0.54345 0.94478 0.0
C1090 C 0.50032 0.51853 0.9618 0.0
C1091 C 0.52737 0.52722 0.97088 0.0
C1092 C 0.56289 0.54339 0.96681 0.0
H1093 H 0.57357 0.5901 0.04656 0.0
H1094 H 0.56171 0.57954 0.02374 0.0
C1095 C 0.57146 0.55143 0.95392 0.0
C1096 C 0.51953 0.52088 0.98474 0.0
H1097 H 0.49698 0.55314 0.0107 0.0
C1098 C 0.53011 0.49936 0.99124 0.0
C1099 C 0.50642 0.5397 0.99179 0.0
C1100 C 0.49545 0.56383 0.98531 0.0
C1101 C 0.53 0.49785 0.00468 0.0
C1102 C 0.51844 0.51799 0.01174 0.0
C1103 C 0.50575 0.53771 0.00521 0.0
C1104 C 0.52428 0.52328 0.02573 0.0
C1105 C 0.5445 0.47673 0.01121 0.0
C1106 C 0.5071 0.49505 0.03444 0.0
C1107 C 0.51408 0.50095 0.0476 0.0
C1108 C 0.53811 0.53523 0.05219 0.0
C1109 C 0.55493 0.56336 0.04339 0.0
C1110 C 0.54808 0.55742 0.03032 0.0
H1111 H 0.55712 0.46686 0.00433 0.0
H1112 H 0.56449 0.49316 0.01859 0.0
H1113 H 0.52245 0.45344 0.01611 0.0
H1114 H 0.48829 0.46858 0.03108 0.0
H1115 H 0.50052 0.47877 0.05415 0.0
H1116 H 0.22354 0.36896 0.38677 0.0
H1117 H 0.23721 0.36838 0.36397 0.0
H1118 H 0.12726 0.33106 0.35443 0.0
H1119 H 0.11325 0.33081 0.377 0.0
H1120 H 0.15494 0.29413 0.34188 0.0
H1121 H 0.24393 0.44065 0.33731 0.0
H1122 H 0.2556 0.41822 0.34919 0.0
H1123 H 0.2158 0.42077 0.35111 0.0
C1124 C 0.20233 0.3607 0.3798 0.0
C1125 C 0.16733 0.35005 0.3837 0.0
C1126 C 0.21021 0.36046 0.36679 0.0
C1127 C 0.18328 0.34992 0.35752 0.0
C1128 C 0.14841 0.33916 0.36143 0.0
H1129 H 0.15495 0.39292 0.28274 0.0
H1130 H 0.16615 0.38934 0.30537 0.0
C1131 C 0.14049 0.33917 0.37436 0.0
C1132 C 0.19071 0.35045 0.34365 0.0
H1133 H 0.22835 0.40713 0.31841 0.0
C1134 C 0.17151 0.31869 0.33672 0.0
C1135 C 0.21237 0.3826 0.33702 0.0
C1136 C 0.233 0.41761 0.34397 0.0
C1137 C 0.17141 0.31854 0.32327 0.0
C1138 C 0.19173 0.35098 0.31663 0.0
C1139 C 0.21286 0.38234 0.32357 0.0
C1140 C 0.18719 0.35392 0.3027 0.0
C1141 C 0.14757 0.28417 0.31633 0.0
C1142 C 0.19559 0.33535 0.29364 0.0
C1143 C 0.18882 0.33702 0.2806 0.0
C1144 C 0.17385 0.35755 0.27645 0.0
C1145 C 0.16635 0.37673 0.28556 0.0
C1146 C 0.17291 0.37487 0.29853 0.0
H1147 H 0.12935 0.26273 0.32297 0.0
H1148 H 0.13129 0.28811 0.30899 0.0
H1149 H 0.16422 0.2751 0.31135 0.0
H1150 H 0.20716 0.31946 0.29665 0.0
H1151 H 0.19524 0.32222 0.2738 0.0
H1152 H 0.71701 0.80741 0.37842 0.0
H1153 H 0.71724 0.81941 0.35562 0.0
H1154 H 0.6568 0.87188 0.36276 0.0
H1155 H 0.65606 0.85964 0.38575 0.0
H1156 H 0.62935 0.8226 0.34303 0.0
H1157 H 0.77374 0.91263 0.33603 0.0
H1158 H 0.7648 0.87273 0.34426 0.0
H1159 H 0.75313 0.90293 0.35169 0.0
C1160 C 0.70388 0.82167 0.37521 0.0
C1161 C 0.68649 0.83255 0.38393 0.0
C1162 C 0.70436 0.82882 0.36216 0.0
C1163 C 0.68769 0.84717 0.35754 0.0
C1164 C 0.67017 0.85803 0.36617 0.0
H1165 H 0.71145 0.88722 0.27428 0.0
H1166 H 0.70985 0.89892 0.2972 0.0
C1167 C 0.66974 0.85096 0.37929 0.0
C1168 C 0.6867 0.85256 0.34358 0.0
H1169 H 0.7402 0.88112 0.31716 0.0
C1170 C 0.65354 0.83605 0.33737 0.0
C1171 C 0.71823 0.87072 0.33623 0.0
C1172 C 0.75446 0.89109 0.34242 0.0
C1173 C 0.65123 0.83487 0.32395 0.0
C1174 C 0.6829 0.85007 0.31661 0.0
C1175 C 0.71595 0.869 0.32281 0.0
C1176 C 0.68243 0.84345 0.30269 0.0
C1177 C 0.61491 0.81645 0.31776 0.0
C1178 C 0.66804 0.80847 0.29825 0.0
C1179 C 0.66901 0.8017 0.28524 0.0
C1180 C 0.68465 0.82983 0.27638 0.0
C1181 C 0.69918 0.86495 0.28085 0.0
C1182 C 0.69823 0.8717 0.29392 0.0
H1183 H 0.59465 0.81721 0.32407 0.0
H1184 H 0.61515 0.82877 0.3084 0.0
H1185 H 0.60663 0.78812 0.31609 0.0
H1186 H 0.65656 0.78633 0.30489 0.0
H1187 H 0.65766 0.77433 0.28217 0.0
H1188 H 0.26114 0.8678 0.2796 0.0
H1189 H 0.25169 0.85849 0.30263 0.0
H1190 H 0.15748 0.86792 0.29966 0.0
H1191 H 0.16619 0.87623 0.27643 0.0
H1192 H 0.25394 0.9069 0.31872 0.0
H1193 H 0.12343 0.78305 0.32338 0.0
H1194 H 0.14807 0.79629 0.30852 0.0
H1195 H 0.12195 0.81594 0.31337 0.0
C1196 C 0.23815 0.8675 0.28381 0.0
C1197 C 0.21456 0.87307 0.27622 0.0
C1198 C 0.23272 0.86202 0.29696 0.0
C1199 C 0.20374 0.86221 0.30285 0.0
C1200 C 0.17958 0.86687 0.29528 0.0
H1201 H 0.20426 0.92454 0.38085 0.0
H1202 H 0.19998 0.91676 0.35766 0.0
C1203 C 0.18475 0.87193 0.28203 0.0
C1204 C 0.20129 0.8613 0.31701 0.0
H1205 H 0.14699 0.81796 0.34242 0.0
C1206 C 0.23063 0.88725 0.32389 0.0
C1207 C 0.17099 0.83546 0.32374 0.0
C1208 C 0.13945 0.80588 0.31689 0.0
C1209 C 0.23037 0.8885 0.33728 0.0
C1210 C 0.19954 0.86367 0.34399 0.0
C1211 C 0.17041 0.83717 0.33719 0.0
C1212 C 0.19728 0.86569 0.35806 0.0
C1213 C 0.26324 0.91633 0.34414 0.0
C1214 C 0.19554 0.83872 0.36596 0.0
C1215 C 0.19778 0.84296 0.37929 0.0
C1216 C 0.20192 0.87431 0.38485 0.0
C1217 C 0.20177 0.90036 0.37687 0.0
C1218 C 0.19928 0.89598 0.36362 0.0
H1219 H 0.28731 0.92678 0.33797 0.0
H1220 H 0.25946 0.93896 0.34679 0.0
H1221 H 0.2681 0.90542 0.35306 0.0
H1222 H 0.19383 0.81507 0.3618 0.0
H1223 H 0.19756 0.82233 0.38519 0.0
H1224 H 0.77779 0.64368 0.70807 0.0
H1225 H 0.79367 0.6471 0.68557 0.0
H1226 H 0.90361 0.7206 0.69474 0.0
H1227 H 0.88783 0.71784 0.71746 0.0
H1228 H 0.88014 0.74317 0.67466 0.0
H1229 H 0.84372 0.60358 0.66655 0.0
H1230 H 0.80766 0.60585 0.674 0.0
H1231 H 0.84926 0.62222 0.68243 0.0
C1232 C 0.80544 0.66045 0.70538 0.0
C1233 C 0.83154 0.68051 0.7146 0.0
C1234 C 0.81453 0.66206 0.69249 0.0
C1235 C 0.84994 0.68342 0.68852 0.0
C1236 C 0.87617 0.7036 0.69765 0.0
H1237 H 0.87351 0.66766 0.60522 0.0
H1238 H 0.8871 0.66945 0.62814 0.0
C1239 C 0.86708 0.70206 0.7106 0.0
C1240 C 0.85849 0.68641 0.67467 0.0
H1241 H 0.84132 0.63576 0.64778 0.0
C1242 C 0.87245 0.71981 0.6688 0.0
C1243 C 0.8493 0.65611 0.66704 0.0
C1244 C 0.83705 0.62001 0.67287 0.0
C1245 C 0.87453 0.7232 0.65541 0.0
C1246 C 0.86158 0.69229 0.64776 0.0
C1247 C 0.8506 0.65937 0.65365 0.0
C1248 C 0.85542 0.69293 0.63382 0.0
C1249 C 0.88954 0.75973 0.6496 0.0
C1250 C 0.83268 0.70499 0.62948 0.0
C1251 C 0.82487 0.704 0.61648 0.0
C1252 C 0.83933 0.69054 0.60752 0.0
C1253 C 0.86197 0.67823 0.61188 0.0
C1254 C 0.86984 0.6793 0.62495 0.0
H1255 H 0.90947 0.78044 0.65607 0.0
H1256 H 0.90231 0.76153 0.64019 0.0
H1257 H 0.86768 0.76566 0.64815 0.0
H1258 H 0.82038 0.7146 0.6362 0.0
H1259 H 0.80719 0.71353 0.61349 0.0
H1260 H 0.32737 0.10931 0.61454 0.0
H1261 H 0.32526 0.12149 0.63717 0.0
H1262 H 0.37987 0.23408 0.6294 0.0
H1263 H 0.38248 0.22216 0.60654 0.0
H1264 H 0.40875 0.21592 0.64975 0.0
H1265 H 0.26309 0.15326 0.65567 0.0
H1266 H 0.27478 0.12383 0.6478 0.0
H1267 H 0.2844 0.16487 0.64014 0.0
C1268 C 0.33884 0.13672 0.61757 0.0
C1269 C 0.35509 0.16477 0.6087 0.0
C1270 C 0.33726 0.1436 0.63052 0.0
C1271 C 0.35167 0.17863 0.63491 0.0
C1272 C 0.36818 0.20683 0.62615 0.0
H1273 H 0.32153 0.18776 0.71821 0.0
H1274 H 0.32315 0.20293 0.69545 0.0
C1275 C 0.36971 0.19996 0.61312 0.0
C1276 C 0.35147 0.18525 0.64881 0.0
H1277 H 0.29653 0.15656 0.67485 0.0
C1278 C 0.3842 0.20369 0.65524 0.0
C1279 C 0.31943 0.16999 0.65594 0.0
C1280 C 0.28344 0.15223 0.6495 0.0
C1281 C 0.38578 0.20455 0.66867 0.0
C1282 C 0.35386 0.18598 0.67579 0.0
C1283 C 0.32103 0.17028 0.66937 0.0
C1284 C 0.35414 0.17879 0.68964 0.0
C1285 C 0.42171 0.22425 0.67511 0.0
C1286 C 0.37045 0.1597 0.69383 0.0
C1287 C 0.36944 0.15088 0.70672 0.0
C1288 C 0.35185 0.16075 0.71573 0.0
C1289 C 0.33532 0.17978 0.71152 0.0
C1290 C 0.3363 0.18856 0.69854 0.0
H1291 H 0.44124 0.24649 0.66902 0.0
H1292 H 0.41994 0.23505 0.68456 0.0
H1293 H 0.43202 0.20574 0.67664 0.0
H1294 H 0.38352 0.15105 0.68707 0.0
H1295 H 0.38239 0.13614 0.70959 0.0
H1296 H 0.83354 0.21772 0.61079 0.0
H1297 H 0.82343 0.2136 0.63406 0.0
H1298 H 0.90583 0.18671 0.63924 0.0
H1299 H 0.91637 0.19104 0.61621 0.0
H1300 H 0.80918 0.15656 0.65321 0.0
H1301 H 0.93859 0.28129 0.65943 0.0
H1302 H 0.91622 0.26762 0.64414 0.0
H1303 H 0.94106 0.24773 0.65017 0.0
C1304 C 0.8492 0.21056 0.61688 0.0
C1305 C 0.8762 0.20536 0.61169 0.0
C1306 C 0.84332 0.20811 0.63014 0.0
C1307 C 0.86425 0.20032 0.63829 0.0
C1308 C 0.88977 0.19321 0.63307 0.0
H1309 H 0.86004 0.15707 0.71948 0.0
H1310 H 0.85134 0.15113 0.69617 0.0
C1311 C 0.89581 0.19584 0.61991 0.0
C1312 C 0.86182 0.20238 0.65233 0.0
H1313 H 0.91096 0.24853 0.67825 0.0
C1314 C 0.83119 0.17678 0.65873 0.0
C1315 C 0.8905 0.22908 0.65942 0.0
C1316 C 0.92335 0.25822 0.65296 0.0
C1317 C 0.82896 0.17671 0.67218 0.0
C1318 C 0.85833 0.20259 0.67928 0.0
C1319 C 0.88853 0.22858 0.6728 0.0
C1320 C 0.85878 0.20386 0.69345 0.0
C1321 C 0.7952 0.14922 0.67864 0.0
C1322 C 0.86597 0.23544 0.69961 0.0
C1323 C 0.87173 0.23915 0.71279 0.0
C1324 C 0.87014 0.21123 0.72012 0.0
C1325 C 0.86139 0.17899 0.71405 0.0
C1326 C 0.8561 0.17546 0.70077 0.0
H1327 H 0.7722 0.13807 0.67193 0.0
H1328 H 0.79881 0.12701 0.68204 0.0
H1329 H 0.7888 0.16065 0.68706 0.0
H1330 H 0.86817 0.25767 0.69414 0.0
H1331 H 0.87794 0.26417 0.7172 0.0
H1332 H 0.23594 0.85741 0.20161 0.0
H1333 H 0.27485 0.86377 0.18341 0.0
H1334 H 0.34195 0.97497 0.19243 0.0
H1335 H 0.30424 0.96844 0.2107 0.0
H1336 H 0.29392 0.90193 0.16226 0.0
H1337 H 0.41465 0.94439 0.19103 0.0
H1338 H 0.37155 0.92802 0.19836 0.0
H1339 H 0.39849 0.97434 0.19417 0.0
C1340 C 0.25883 0.8832 0.19957 0.0
C1341 C 0.26736 0.9124 0.20758 0.0
C1342 C 0.28117 0.88675 0.18928 0.0
C1343 C 0.31205 0.91957 0.18685 0.0
C1344 C 0.31918 0.94906 0.19442 0.0
H1345 H 0.41671 0.0211 0.11994 0.0
H1346 H 0.37946 0.99239 0.13857 0.0
C1347 C 0.29735 0.94542 0.20476 0.0
C1348 C 0.33645 0.92402 0.17614 0.0
H1349 H 0.42494 0.96597 0.16866 0.0
C1350 C 0.32251 0.9152 0.16369 0.0
C1351 C 0.37376 0.94018 0.17798 0.0
C1352 C 0.39033 0.94682 0.19115 0.0
C1353 C 0.34506 0.92517 0.15299 0.0
C1354 C 0.3824 0.9455 0.1548 0.0
C1355 C 0.39631 0.95127 0.16726 0.0
C1356 C 0.40686 0.96417 0.14399 0.0
C1357 C 0.3286 0.91466 0.13981 0.0
C1358 C 0.43622 0.95977 0.14136 0.0
C1359 C 0.45823 0.97696 0.1308 0.0
C1360 C 0.45093 0.99858 0.1228 0.0
C1361 C 0.42265 0.00424 0.12588 0.0
C1362 C 0.40108 0.9875 0.13642 0.0
H1363 H 0.30282 0.88925 0.14017 0.0
H1364 H 0.32312 0.93542 0.13613 0.0
H1365 H 0.34654 0.91167 0.13297 0.0
H1366 H 0.44146 0.94231 0.14722 0.0
H1367 H 0.47978 0.97203 0.12857 0.0
H1368 H 0.02773 0.48912 0.12992 0.0
H1369 H 0.0482 0.47322 0.14955 0.0
H1370 H 0.0693 0.40142 0.12781 0.0
H1371 H 0.04862 0.41639 0.10838 0.0
H1372 H 0.01844 0.3939 0.15835 0.0
H1373 H 0.16427 0.47276 0.14895 0.0
H1374 H 0.13313 0.48442 0.14211 0.0
H1375 H 0.13576 0.44736 0.13586 0.0
C1376 C 0.03674 0.46997 0.12935 0.0
C1377 C 0.03669 0.45418 0.11759 0.0
C1378 C 0.04846 0.46101 0.14052 0.0
C1379 C 0.06061 0.43653 0.14001 0.0
C1380 C 0.0604 0.42067 0.12833 0.0
H1381 H 0.14921 0.35063 0.19545 0.0
H1382 H 0.1311 0.3679 0.17558 0.0
C1383 C 0.0484 0.42923 0.11725 0.0
C1384 C 0.07228 0.42613 0.1517 0.0
H1385 H 0.14567 0.43338 0.16665 0.0
C1386 C 0.04624 0.4027 0.16026 0.0
C1387 C 0.10848 0.43707 0.15389 0.0
C1388 C 0.13721 0.46196 0.14478 0.0
C1389 C 0.05546 0.38964 0.17102 0.0
C1390 C 0.09182 0.40129 0.17345 0.0
C1391 C 0.11785 0.42455 0.16478 0.0
C1392 C 0.10334 0.39101 0.18528 0.0
C1393 C 0.02601 0.36284 0.17949 0.0
C1394 C 0.09434 0.39888 0.19724 0.0
C1395 C 0.10408 0.38867 0.20847 0.0
C1396 C 0.12392 0.37109 0.20805 0.0
C1397 C 0.13386 0.36402 0.19607 0.0
C1398 C 0.1236 0.37392 0.18475 0.0
H1399 H 1.00045 0.34821 0.17417 0.0
H1400 H 0.03277 0.34325 0.18349 0.0
H1401 H 0.0218 0.37692 0.18758 0.0
H1402 H 0.0797 0.413 0.1979 0.0
H1403 H 0.09627 0.39497 0.21752 0.0
H1404 H 0.69936 0.74484 0.21038 0.0
H1405 H 0.67388 0.70699 0.19162 0.0
H1406 H 0.62038 0.76467 0.18129 0.0
H1407 H 0.64688 0.80355 0.20002 0.0
H1408 H 0.60297 0.66292 0.18739 0.0
H1409 H 0.66405 0.75993 0.14741 0.0
H1410 H 0.68035 0.77046 0.16365 0.0
H1411 H 0.64023 0.77023 0.15914 0.0
C1412 C 0.68278 0.74996 0.20395 0.0
C1413 C 0.67518 0.77716 0.20658 0.0
C1414 C 0.66804 0.72817 0.1933 0.0
C1415 C 0.64516 0.73291 0.18507 0.0
C1416 C 0.63837 0.76086 0.18741 0.0
H1417 H 0.52279 0.56303 0.12827 0.0
H1418 H 0.5359 0.60121 0.14725 0.0
C1419 C 0.6536 0.78312 0.19806 0.0
C1420 C 0.62777 0.70743 0.17442 0.0
H1421 H 0.62528 0.7003 0.14184 0.0
C1422 C 0.60759 0.67104 0.17741 0.0
C1423 C 0.63378 0.71819 0.16144 0.0
C1424 C 0.65598 0.75677 0.15765 0.0
C1425 C 0.59476 0.645 0.16778 0.0
C1426 C 0.60162 0.65574 0.15481 0.0
C1427 C 0.62021 0.69218 0.15181 0.0
C1428 C 0.59299 0.62999 0.1442 0.0
C1429 C 0.57566 0.6063 0.17159 0.0
C1430 C 0.62066 0.63321 0.13633 0.0
C1431 C 0.6132 0.61189 0.12552 0.0
C1432 C 0.57794 0.58661 0.12242 0.0
C1433 C 0.55025 0.58191 0.13063 0.0
C1434 C 0.55771 0.60378 0.14142 0.0
H1435 H 0.57915 0.6027 0.18194 0.0
H1436 H 0.54675 0.59457 0.16971 0.0
H1437 H 0.5854 0.59128 0.16589 0.0
H1438 H 0.64806 0.65306 0.13835 0.0
H1439 H 0.63496 0.61601 0.1193 0.0
H1440 H 0.97806 0.47277 0.8675 0.0
H1441 H 0.94744 0.43296 0.84931 0.0
H1442 H 0.99854 0.37222 0.85846 0.0
H1443 H 0.02805 0.41094 0.8767 0.0
H1444 H 0.96906 0.4147 0.82807 0.0
H1445 H 0.89551 0.29565 0.85813 0.0
H1446 H 0.92066 0.33958 0.86495 0.0
H1447 H 0.94224 0.31448 0.86107 0.0
C1448 C 0.98308 0.45122 0.86546 0.0
C1449 C 1.00513 0.44465 0.87352 0.0
C1450 C 0.96537 0.42834 0.85517 0.0
C1451 C 0.96974 0.39888 0.85284 0.0
C1452 C 0.99367 0.39392 0.86039 0.0
H1453 H 0.96673 0.29008 0.78704 0.0
H1454 H 0.97559 0.32764 0.80559 0.0
C1455 C 0.01087 0.41633 0.8707 0.0
C1456 C 0.95022 0.37341 0.84237 0.0
H1457 H 0.90543 0.28448 0.83583 0.0
C1458 C 0.95449 0.38626 0.82979 0.0
C1459 C 0.93017 0.33628 0.84461 0.0
C1460 C 0.92154 0.3208 0.85796 0.0
C1461 C 0.94203 0.36288 0.81933 0.0
C1462 C 0.92582 0.32583 0.82154 0.0
C1463 C 0.91864 0.31292 0.83414 0.0
C1464 C 0.91992 0.30076 0.81098 0.0
C1465 C 0.94736 0.37818 0.80598 0.0
C1466 C 0.88601 0.27161 0.80839 0.0
C1467 C 0.88097 0.24948 0.79786 0.0
C1468 C 0.90985 0.25648 0.78988 0.0
C1469 C 0.94398 0.28438 0.79299 0.0
C1470 C 0.949 0.30609 0.80348 0.0
H1471 H 0.94701 0.40358 0.80601 0.0
H1472 H 0.97377 0.38393 0.80234 0.0
H1473 H 0.92654 0.35941 0.79928 0.0
H1474 H 0.86334 0.26677 0.81421 0.0
H1475 H 0.85437 0.22824 0.7956 0.0
H1476 H 0.56016 0.56031 0.86417 0.0
H1477 H 0.59388 0.57395 0.84398 0.0
H1478 H 0.69181 0.63748 0.86468 0.0
H1479 H 0.65885 0.62457 0.88468 0.0
H1480 H 0.6458 0.64902 0.8346 0.0
H1481 H 0.70651 0.56402 0.84257 0.0
H1482 H 0.66592 0.55578 0.85042 0.0
H1483 H 0.70809 0.59129 0.85581 0.0
C1484 C 0.58885 0.57715 0.86439 0.0
C1485 C 0.60677 0.59123 0.87603 0.0
C1486 C 0.60803 0.58484 0.85289 0.0
C1487 C 0.64529 0.60628 0.85294 0.0
C1488 C 0.66311 0.62048 0.8645 0.0
H1489 H 0.81397 0.68518 0.7954 0.0
H1490 H 0.78032 0.66956 0.81563 0.0
C1491 C 0.6441 0.61316 0.87591 0.0
C1492 C 0.6659 0.61523 0.84091 0.0
H1493 H 0.72817 0.6038 0.82496 0.0
C1494 C 0.66359 0.63895 0.8324 0.0
C1495 C 0.68955 0.60252 0.83829 0.0
C1496 C 0.69267 0.5768 0.84719 0.0
C1497 C 0.68471 0.65069 0.82133 0.0
C1498 C 0.70797 0.63752 0.81855 0.0
C1499 C 0.71036 0.61387 0.82712 0.0
C1500 C 0.72865 0.6467 0.80648 0.0
C1501 C 0.68247 0.67773 0.81287 0.0
C1502 C 0.7107 0.63839 0.79472 0.0
C1503 C 0.72968 0.64752 0.78327 0.0
C1504 C 0.76713 0.66461 0.78328 0.0
C1505 C 0.78517 0.67215 0.79508 0.0
C1506 C 0.76601 0.66322 0.80661 0.0
H1507 H 0.67253 0.69309 0.81826 0.0
H1508 H 0.70883 0.69665 0.80868 0.0
H1509 H 0.66357 0.66378 0.80491 0.0
H1510 H 0.68187 0.62477 0.79438 0.0
H1511 H 0.7148 0.64089 0.77437 0.0
H1512 H 0.35415 0.15075 0.7965 0.0
H1513 H 0.37366 0.13768 0.81697 0.0
H1514 H 0.40031 0.06664 0.79747 0.0
H1515 H 0.38076 0.07888 0.77724 0.0
H1516 H 0.34687 0.0601 0.82727 0.0
H1517 H 0.49262 0.14305 0.81846 0.0
H1518 H 0.46047 0.15239 0.81103 0.0
H1519 H 0.46544 0.11614 0.80536 0.0
C1520 C 0.36408 0.1323 0.79661 0.0
C1521 C 0.36599 0.116 0.78524 0.0
C1522 C 0.37524 0.12494 0.80827 0.0
C1523 C 0.38879 0.10158 0.80861 0.0
C1524 C 0.39032 0.08505 0.79733 0.0
H1525 H 0.47973 0.02178 0.8649 0.0
H1526 H 0.4609 0.03836 0.84507 0.0
C1527 C 0.37895 0.09205 0.78578 0.0
C1528 C 0.40066 0.09332 0.82072 0.0
H1529 H 0.47468 0.10404 0.83627 0.0
C1530 C 0.37479 0.06996 0.82936 0.0
C1531 C 0.43706 0.10572 0.82317 0.0
C1532 C 0.46567 0.13089 0.81408 0.0
C1533 C 0.38437 0.05811 0.84036 0.0
C1534 C 0.42088 0.07082 0.84293 0.0
C1535 C 0.44675 0.09432 0.83428 0.0
C1536 C 0.4327 0.06096 0.85479 0.0
C1537 C 0.3552 0.03127 0.84891 0.0
C1538 C 0.42362 0.06873 0.86675 0.0
C1539 C 0.43386 0.05897 0.87798 0.0
C1540 C 0.45417 0.04188 0.87754 0.0
C1541 C 0.46405 0.03482 0.86555 0.0
C1542 C 0.45337 0.04432 0.85424 0.0
H1543 H 0.32957 0.01626 0.84366 0.0
H1544 H 0.36237 0.01202 0.85295 0.0
H1545 H 0.35093 0.04535 0.85698 0.0
H1546 H 0.40858 0.08245 0.86741 0.0
H1547 H 0.42604 0.0652 0.88704 0.0
H1548 H 0.894 0.22308 0.53112 0.0
H1549 H 0.93071 0.23914 0.51161 0.0
H1550 H 0.02586 0.29404 0.53455 0.0
H1551 H 0.98993 0.27869 0.5539 0.0
H1552 H 0.98449 0.31399 0.50453 0.0
H1553 H 0.04239 0.22585 0.51061 0.0
H1554 H 1.00143 0.21706 0.51831 0.0
H1555 H 0.04345 0.25108 0.52444 0.0
C1556 C 0.92272 0.23839 0.53198 0.0
C1557 C 0.93899 0.24945 0.54406 0.0
C1558 C 0.9436 0.24748 0.52087 0.0
C1559 C 0.98092 0.26727 0.52173 0.0
C1560 C 0.99713 0.27824 0.53373 0.0
H1561 H 0.15281 0.35285 0.46478 0.0
H1562 H 0.11953 0.33552 0.48513 0.0
C1563 C 0.97643 0.26955 0.54478 0.0
C1564 C 1.0032 0.27845 0.51008 0.0
H1565 H 0.06606 0.26848 0.49389 0.0
C1566 C 1.00218 0.30392 0.50213 0.0
C1567 C 0.02675 0.26577 0.50722 0.0
C1568 C 0.02858 0.23825 0.51552 0.0
C1569 C 0.02422 0.31719 0.49134 0.0
C1570 C 0.04713 0.30382 0.48824 0.0
C1571 C 0.04851 0.27867 0.49631 0.0
C1572 C 0.06773 0.31379 0.47616 0.0
C1573 C 0.0231 0.34577 0.48345 0.0
C1574 C 0.04956 0.30656 0.46447 0.0
C1575 C 0.06829 0.31663 0.45298 0.0
C1576 C 0.10573 0.33365 0.45287 0.0
C1577 C 0.12402 0.33997 0.46458 0.0
C1578 C 0.10508 0.33006 0.47617 0.0
H1579 H 0.01354 0.36086 0.48921 0.0
H1580 H 0.04976 0.36476 0.47949 0.0
H1581 H 1.00435 0.33324 0.47533 0.0
H1582 H 0.02073 0.29313 0.46422 0.0
H1583 H 0.05319 0.3108 0.44416 0.0
H1584 H 0.72862 0.84978 0.45961 0.0
H1585 H 0.75789 0.83973 0.47808 0.0
H1586 H 0.70319 0.7275 0.46957 0.0
H1587 H 0.67502 0.73752 0.45105 0.0
H1588 H 0.73532 0.8003 0.49964 0.0
H1589 H 0.80559 0.75097 0.46954 0.0
H1590 H 0.78136 0.77083 0.46274 0.0
H1591 H 0.75861 0.72428 0.46683 0.0
C1592 C 0.72248 0.82296 0.46187 0.0
C1593 C 0.69987 0.79443 0.45389 0.0
C1594 C 0.7394 0.81728 0.47232 0.0
C1595 C 0.73366 0.78303 0.4749 0.0
C1596 C 0.70906 0.75432 0.46746 0.0
H1597 H 0.74108 0.68083 0.54183 0.0
H1598 H 0.73012 0.70834 0.52336 0.0
C1599 C 0.69265 0.76 0.45699 0.0
C1600 C 0.7529 0.77662 0.48537 0.0
H1601 H 0.7969 0.73161 0.49195 0.0
C1602 C 0.74938 0.78588 0.49794 0.0
C1603 C 0.77227 0.75881 0.48314 0.0
C1604 C 0.78002 0.75107 0.4698 0.0
C1605 C 0.76214 0.77521 0.50841 0.0
C1606 C 0.77788 0.75389 0.50623 0.0
C1607 C 0.78408 0.74722 0.49362 0.0
C1608 C 0.78488 0.73563 0.51688 0.0
C1609 C 0.75788 0.78623 0.52171 0.0
C1610 C 0.81888 0.73987 0.51887 0.0
C1611 C 0.82509 0.72341 0.52934 0.0
C1612 C 0.79733 0.70268 0.53791 0.0
C1613 C 0.76303 0.69702 0.53545 0.0
C1614 C 0.75682 0.71306 0.52499 0.0
H1615 H 0.75861 0.81216 0.52151 0.0
H1616 H 0.73162 0.76612 0.52562 0.0
H1617 H 0.77902 0.78841 0.52829 0.0
H1618 H 0.84077 0.75676 0.51258 0.0
H1619 H 0.85181 0.72833 0.53108 0.0
H1620 H 0.18583 0.89529 0.46089 0.0
H1621 H 0.19596 0.93405 0.47953 0.0
H1622 H 0.30688 0.9972 0.46919 0.0
H1623 H 0.29673 0.95957 0.45056 0.0
H1624 H 0.23812 0.95201 0.5003 0.0
H1625 H 0.27903 0.07245 0.47146 0.0
H1626 H 0.25892 0.02876 0.46435 0.0
H1627 H 0.30622 0.05363 0.46732 0.0
C1628 C 0.21239 0.9172 0.46275 0.0
C1629 C 0.24048 0.92472 0.45427 0.0
C1630 C 0.21809 0.93946 0.4733 0.0
C1631 C 0.25191 0.96926 0.47547 0.0
C1632 C 0.28028 0.97524 0.46743 0.0
H1633 H 0.36132 0.07589 0.54172 0.0
H1634 H 0.33183 0.03841 0.5232 0.0
C1635 C 0.27455 0.95346 0.45687 0.0
C1636 C 0.25851 0.99401 0.48626 0.0
H1637 H 0.3023 0.08259 0.49339 0.0
C1638 C 0.25148 0.98052 0.49878 0.0
C1639 C 0.27485 0.03121 0.48431 0.0
C1640 C 0.27975 0.04726 0.47111 0.0
C1641 C 0.26319 0.00337 0.50941 0.0
C1642 C 0.28345 0.04059 0.50741 0.0
C1643 C 0.28765 0.05407 0.49492 0.0
C1644 C 0.30307 0.06545 0.51803 0.0
C1645 C 0.2544 0.9873 0.52267 0.0
C1646 C 0.29871 0.09476 0.52073 0.0
C1647 C 0.31639 0.11693 0.53119 0.0
C1648 C 0.33844 0.10983 0.53905 0.0
C1649 C 0.34416 0.08169 0.53588 0.0
C1650 C 0.32697 0.05999 0.5254 0.0
H1651 H 0.22871 0.96178 0.52269 0.0
H1652 H 0.27545 0.98153 0.52583 0.0
H1653 H 0.25274 0.00555 0.52972 0.0
H1654 H 0.28079 0.09977 0.51503 0.0
H1655 H 0.31137 0.13833 0.53352 0.0
H1656 H 0.51631 0.40493 0.10936 0.0
H1657 H 0.50645 0.34469 0.11268 0.0
H1658 H 0.51868 0.335 0.07213 0.0
H1659 H 0.52844 0.39486 0.06871 0.0
H1660 H 0.45976 0.27293 0.08418 0.0
H1661 H 0.58896 0.32179 0.10954 0.0
H1662 H 0.56006 0.33698 0.11561 0.0
H1663 H 0.57935 0.35061 0.09996 0.0
C1664 C 0.51654 0.38984 0.10114 0.0
C1665 C 0.5234 0.40484 0.08878 0.0
C1666 C 0.51109 0.3555 0.10306 0.0
C1667 C 0.51228 0.33554 0.09266 0.0
C1668 C 0.51778 0.34996 0.08029 0.0
H1669 H 0.50296 0.13387 0.0788 0.0
H1670 H 0.50005 0.18857 0.07718 0.0
C1671 C 0.52343 0.38426 0.07836 0.0
C1672 C 0.5091 0.30017 0.09463 0.0
H1673 H 0.55289 0.25995 0.1071 0.0
C1674 C 0.48 0.26999 0.08924 0.0
C1675 C 0.53556 0.29644 0.10122 0.0
C1676 C 0.56794 0.32812 0.10686 0.0
C1677 C 0.47654 0.2361 0.09034 0.0
C1678 C 0.5034 0.23244 0.09671 0.0
C1679 C 0.53228 0.26266 0.10222 0.0
C1680 C 0.50261 0.1978 0.09766 0.0
C1681 C 0.44385 0.20453 0.08483 0.0
C1682 C 0.50554 0.18487 0.10967 0.0
C1683 C 0.50772 0.15388 0.1106 0.0
C1684 C 0.50698 0.13502 0.09954 0.0
C1685 C 0.50325 0.14753 0.08752 0.0
C1686 C 0.50138 0.17875 0.08659 0.0
H1687 H 0.42133 0.20977 0.08398 0.0
H1688 H 0.45002 0.19897 0.07507 0.0
H1689 H 0.4352 0.18045 0.09082 0.0
H1690 H 0.50666 0.19907 0.11835 0.0
H1691 H 0.51053 0.14501 0.12002 0.0
H1692 H 0.63411 0.11664 0.10903 0.0
H1693 H 0.69502 0.16606 0.11216 0.0
H1694 H 0.70265 0.19045 0.07182 0.0
H1695 H 0.6421 0.14122 0.06857 0.0
H1696 H 0.76536 0.19276 0.08317 0.0
H1697 H 0.717 0.27116 0.11003 0.0
H1698 H 0.70231 0.22687 0.11574 0.0
H1699 H 0.6878 0.23318 0.10034 0.0
C1700 C 0.64891 0.13226 0.10081 0.0
C1701 C 0.63315 0.12519 0.08857 0.0
C1702 C 0.68362 0.16055 0.10262 0.0
C1703 C 0.70308 0.18212 0.09224 0.0
C1704 C 0.688 0.17416 0.07995 0.0
H1705 H 0.89944 0.37595 0.07668 0.0
H1706 H 0.84588 0.31726 0.0758 0.0
C1707 C 0.65333 0.14606 0.07813 0.0
C1708 C 0.73845 0.21415 0.09419 0.0
H1709 H 0.77872 0.29769 0.10689 0.0
C1710 C 0.76842 0.21567 0.08843 0.0
C1711 C 0.74224 0.24392 0.10104 0.0
C1712 C 0.71068 0.24405 0.10709 0.0
C1713 C 0.80221 0.2463 0.08933 0.0
C1714 C 0.80585 0.27644 0.0959 0.0
C1715 C 0.77592 0.27459 0.10186 0.0
C1716 C 0.84004 0.31066 0.0964 0.0
C1717 C 0.83367 0.24593 0.08332 0.0
C1718 C 0.85437 0.32675 0.10826 0.0
C1719 C 0.88469 0.3605 0.10879 0.0
C1720 C 0.90131 0.37889 0.09745 0.0
C1721 C 0.88743 0.36239 0.08558 0.0
C1722 C 0.85693 0.32871 0.08507 0.0
H1723 H 0.82885 0.2184 0.08234 0.0
H1724 H 0.83818 0.25767 0.07358 0.0
H1725 H 0.85826 0.26173 0.08906 0.0
H1726 H 0.84172 0.31341 0.11712 0.0
H1727 H 0.89474 0.3724 0.11809 0.0
H1728 H 0.65836 0.53593 0.07792 0.0
H1729 H 0.71614 0.53876 0.07638 0.0
H1730 H 0.72216 0.53724 0.11763 0.0
H1731 H 0.6642 0.53358 0.11925 0.0
H1732 H 0.78363 0.58555 0.08551 0.0
H1733 H 0.73213 0.45246 0.10766 0.0
H1734 H 0.70319 0.46869 0.10244 0.0
H1735 H 0.72647 0.48319 0.11747 0.0
C1736 C 0.67213 0.5365 0.08666 0.0
C1737 C 0.65647 0.53408 0.0987 0.0
C1738 C 0.70514 0.5381 0.08577 0.0
C1739 C 0.72311 0.53739 0.09688 0.0
C1740 C 0.70837 0.53685 0.10892 0.0
H1741 H 0.91497 0.52107 0.10746 0.0
H1742 H 0.86592 0.53297 0.111 0.0
C1743 C 0.67529 0.53496 0.10982 0.0
C1744 C 0.75665 0.5361 0.09588 0.0
H1745 H 0.79392 0.4852 0.10341 0.0
C1746 C 0.7859 0.56363 0.08944 0.0
C1747 C 0.7596 0.50744 0.10099 0.0
C1748 C 0.72861 0.47609 0.10742 0.0
C1749 C 0.818 0.56333 0.08801 0.0
C1750 C 0.82081 0.5346 0.09306 0.0
C1751 C 0.79179 0.50735 0.09965 0.0
C1752 C 0.85267 0.53095 0.0909 0.0
C1753 C 0.84874 0.59382 0.08116 0.0
C1754 C 0.86154 0.52601 0.07844 0.0
C1755 C 0.88931 0.51903 0.0764 0.0
C1756 C 0.90885 0.51684 0.08679 0.0
C1757 C 0.90058 0.52278 0.09925 0.0
C1758 C 0.87253 0.5295 0.10129 0.0
H1759 H 0.84584 0.61783 0.08092 0.0
H1760 H 0.87446 0.60078 0.08582 0.0
H1761 H 0.84965 0.58591 0.07112 0.0
H1762 H 0.84619 0.52637 0.0703 0.0
H1763 H 0.89493 0.51457 0.06667 0.0
H1764 H 0.41766 0.52355 0.88682 0.0
H1765 H 0.35616 0.51028 0.88337 0.0
H1766 H 0.34591 0.52466 0.92372 0.0
H1767 H 0.40696 0.53777 0.92727 0.0
H1768 H 0.28522 0.46347 0.91222 0.0
H1769 H 0.32835 0.58924 0.88533 0.0
H1770 H 0.34516 0.56134 0.87967 0.0
H1771 H 0.35865 0.58216 0.8951 0.0
C1772 C 0.40218 0.52354 0.89497 0.0
C1773 C 0.41734 0.53199 0.9073 0.0
C1774 C 0.36712 0.51612 0.89297 0.0
C1775 C 0.34663 0.51692 0.90327 0.0
C1776 C 0.36126 0.524 0.91563 0.0
H1777 H 0.14217 0.50128 0.91722 0.0
H1778 H 0.19789 0.50007 0.91877 0.0
C1779 C 0.39625 0.53159 0.91763 0.0
C1780 C 0.31046 0.51183 0.9012 0.0
H1781 H 0.26681 0.55151 0.88816 0.0
C1782 C 0.28109 0.48257 0.9069 0.0
C1783 C 0.30519 0.53683 0.89428 0.0
C1784 C 0.33594 0.56935 0.8883 0.0
C1785 C 0.24652 0.47756 0.90583 0.0
C1786 C 0.24133 0.503 0.89914 0.0
C1787 C 0.27071 0.53198 0.89329 0.0
C1788 C 0.20595 0.50075 0.89826 0.0
C1789 C 0.21588 0.44483 0.91173 0.0
C1790 C 0.19198 0.50194 0.88624 0.0
C1791 C 0.16041 0.50313 0.88534 0.0
C1792 C 0.14201 0.50313 0.89644 0.0
C1793 C 0.15549 0.50098 0.90848 0.0
C1794 C 0.18729 0.50009 0.90937 0.0
H1795 H 0.22225 0.42317 0.91284 0.0
H1796 H 0.21036 0.4515 0.92141 0.0
H1797 H 0.19135 0.43482 0.90585 0.0
H1798 H 0.20588 0.50257 0.87753 0.0
H1799 H 0.15077 0.5047 0.87591 0.0
H1800 H 0.5173 0.90316 0.92878 0.0
H1801 H 0.53056 0.85531 0.92583 0.0
H1802 H 0.53559 0.87132 0.8849 0.0
H1803 H 0.52301 0.92001 0.88781 0.0
H1804 H 0.48814 0.79437 0.91298 0.0
H1805 H 0.62308 0.86196 0.89122 0.0
H1806 H 0.60438 0.88607 0.89899 0.0
H1807 H 0.59113 0.86953 0.88295 0.0
C1808 C 0.52178 0.89693 0.91915 0.0
C1809 C 0.51901 0.91533 0.90852 0.0
C1810 C 0.52937 0.86954 0.91748 0.0
C1811 C 0.53433 0.85983 0.90516 0.0
C1812 C 0.53259 0.87879 0.89452 0.0
H1813 H 0.53987 0.67417 0.87751 0.0
H1814 H 0.54091 0.7308 0.87949 0.0
C1815 C 0.52524 0.90651 0.89619 0.0
C1816 C 0.53817 0.82794 0.90353 0.0
H1817 H 0.59259 0.79871 0.89174 0.0
C1818 C 0.51111 0.79541 0.9084 0.0
C1819 C 0.56803 0.82925 0.89748 0.0
C1820 C 0.59849 0.86362 0.89245 0.0
C1821 C 0.51293 0.76419 0.90734 0.0
C1822 C 0.54285 0.76553 0.90138 0.0
C1823 C 0.56979 0.79789 0.89637 0.0
C1824 C 0.54603 0.73325 0.90014 0.0
C1825 C 0.48252 0.72982 0.91242 0.0
C1826 C 0.54955 0.71641 0.91108 0.0
C1827 C 0.54903 0.68405 0.90999 0.0
C1828 C 0.54489 0.66795 0.89793 0.0
C1829 C 0.54288 0.68571 0.88695 0.0
C1830 C 0.54356 0.71813 0.88804 0.0
H1831 H 0.45837 0.73184 0.91428 0.0
H1832 H 0.47554 0.70774 0.90556 0.0
H1833 H 0.49068 0.72294 0.92158 0.0
H1834 H 0.55188 0.72791 0.92049 0.0
H1835 H 0.55076 0.67116 0.91863 0.0
H1836 H 0.37618 0.90445 0.91832 0.0
H1837 H 0.31938 0.84869 0.91992 0.0
H1838 H 0.319 0.83463 0.879 0.0
H1839 H 0.37572 0.8904 0.87726 0.0
H1840 H 0.25057 0.81873 0.8904 0.0
H1841 H 0.31479 0.75111 0.91462 0.0
H1842 H 0.32334 0.79235 0.92171 0.0
H1843 H 0.33992 0.79233 0.90594 0.0
C1844 C 0.36387 0.88972 0.90963 0.0
C1845 C 0.38067 0.90174 0.89767 0.0
C1846 C 0.33148 0.85781 0.91058 0.0
C1847 C 0.3153 0.83738 0.8996 0.0
C1848 C 0.33117 0.84999 0.88759 0.0
H1849 H 0.12809 0.6287 0.88631 0.0
H1850 H 0.17781 0.68956 0.8837 0.0
C1851 C 0.36363 0.88183 0.88663 0.0
C1852 C 0.28272 0.80205 0.90071 0.0
H1853 H 0.2522 0.71872 0.91276 0.0
C1854 C 0.25081 0.79678 0.89527 0.0
C1855 C 0.28329 0.77352 0.90701 0.0
C1856 C 0.31718 0.77733 0.91258 0.0
C1857 C 0.21913 0.76382 0.89625 0.0
C1858 C 0.21968 0.73531 0.90261 0.0
C1859 C 0.25175 0.74063 0.90794 0.0
C1860 C 0.18744 0.6997 0.90405 0.0
C1861 C 0.18525 0.76011 0.89075 0.0
C1862 C 0.1764 0.68507 0.91633 0.0
C1863 C 0.14838 0.65029 0.91783 0.0
C1864 C 0.1307 0.6293 0.90708 0.0
C1865 C 0.14099 0.64429 0.89478 0.0
C1866 C 0.16931 0.67914 0.89328 0.0
H1867 H 0.18722 0.78639 0.88934 0.0
H1868 H 0.18004 0.74685 0.88127 0.0
H1869 H 0.16216 0.74365 0.89708 0.0
H1870 H 0.19001 0.7004 0.92477 0.0
H1871 H 0.14105 0.63962 0.92745 0.0
H1872 H 0.19095 0.73351 0.39976 0.0
H1873 H 0.17874 0.67254 0.402 0.0
H1874 H 0.16685 0.67787 0.44286 0.0
H1875 H 0.17829 0.73891 0.44065 0.0
H1876 H 0.21924 0.65257 0.41517 0.0
H1877 H 0.08159 0.58177 0.43448 0.0
H1878 H 0.101 0.62554 0.42745 0.0
H1879 H 0.11181 0.62013 0.44364 0.0
C1880 C 0.18522 0.72159 0.40922 0.0
C1881 C 0.18564 0.7411 0.42004 0.0
C1882 C 0.17824 0.68669 0.41047 0.0
C1883 C 0.17157 0.67044 0.42257 0.0
C1884 C 0.17115 0.68953 0.43339 0.0
H1885 H 0.16661 0.47978 0.44998 0.0
H1886 H 0.16456 0.53478 0.44773 0.0
C1887 C 0.17787 0.72449 0.43212 0.0
C1888 C 0.16797 0.63469 0.42386 0.0
H1889 H 0.1132 0.54995 0.43458 0.0
C1890 C 0.19591 0.63009 0.41933 0.0
C1891 C 0.1376 0.60538 0.42934 0.0
C1892 C 0.10613 0.60825 0.43391 0.0
C1893 C 0.19453 0.59721 0.42024 0.0
C1894 C 0.16423 0.56796 0.42573 0.0
C1895 C 0.13632 0.57245 0.43033 0.0
C1896 C 0.16176 0.5328 0.42703 0.0
C1897 C 0.22587 0.59417 0.41559 0.0
C1898 C 0.15987 0.51298 0.41613 0.0
C1899 C 0.16095 0.48144 0.41737 0.0
C1900 C 0.16403 0.46926 0.42954 0.0
C1901 C 0.16445 0.4885 0.44045 0.0
C1902 C 0.16319 0.5199 0.43921 0.0
H1903 H 0.24985 0.62063 0.41399 0.0
H1904 H 0.23262 0.57916 0.42259 0.0
H1905 H 0.21883 0.57945 0.40637 0.0
H1906 H 0.15838 0.52235 0.40665 0.0
H1907 H 0.16049 0.46724 0.40877 0.0
H1908 H 0.55368 0.71143 0.45204 0.0
H1909 H 0.49948 0.65342 0.45081 0.0
H1910 H 0.51112 0.65318 0.40975 0.0
H1911 H 0.5659 0.71093 0.41093 0.0
H1912 H 0.43887 0.63822 0.43876 0.0
H1913 H 0.48933 0.55391 0.41859 0.0
H1914 H 0.51857 0.59763 0.42504 0.0
H1915 H 0.50115 0.59259 0.40903 0.0
C1916 C 0.54504 0.69884 0.44275 0.0
C1917 C 0.56419 0.71585 0.43158 0.0
C1918 C 0.51398 0.66564 0.44207 0.0
C1919 C 0.50135 0.64863 0.43021 0.0
C1920 C 0.52072 0.66528 0.41905 0.0
H1921 H 0.30529 0.47715 0.40113 0.0
H1922 H 0.36543 0.52671 0.40477 0.0
C1923 C 0.55197 0.69845 0.41973 0.0
C1924 C 0.46659 0.61485 0.42946 0.0
H1925 H 0.4261 0.52963 0.41811 0.0
C1926 C 0.43618 0.61435 0.43439 0.0
C1927 C 0.46302 0.58366 0.42376 0.0
C1928 C 0.49481 0.58177 0.41892 0.0
C1929 C 0.40225 0.58399 0.4334 0.0
C1930 C 0.3986 0.55311 0.42745 0.0
C1931 C 0.42899 0.55335 0.42269 0.0
C1932 C 0.36311 0.52112 0.4254 0.0
C1933 C 0.37034 0.58555 0.43834 0.0
C1934 C 0.3421 0.50094 0.4358 0.0
C1935 C 0.30759 0.47237 0.43375 0.0
C1936 C 0.29352 0.46364 0.42126 0.0
C1937 C 0.31517 0.48325 0.41087 0.0
C1938 C 0.34963 0.51157 0.41293 0.0
H1939 H 0.37687 0.61315 0.4406 0.0
H1940 H 0.34841 0.57422 0.43119 0.0
H1941 H 0.36047 0.56945 0.44722 0.0
H1942 H 0.35219 0.50765 0.4455 0.0
H1943 H 0.29164 0.4578 0.44195 0.0
H1944 H 0.55866 0.84845 0.4008 0.0
H1945 H 0.50994 0.86023 0.40456 0.0
H1946 H 0.53176 0.86919 0.44514 0.0
H1947 H 0.58077 0.85732 0.44147 0.0
H1948 H 0.45937 0.82089 0.43807 0.0
H1949 H 0.51019 0.95234 0.41476 0.0
H1950 H 0.51363 0.91996 0.4051 0.0
H1951 H 0.53905 0.93558 0.41965 0.0
C1952 C 0.55349 0.85341 0.41052 0.0
C1953 C 0.57361 0.85192 0.42084 0.0
C1954 C 0.52574 0.86037 0.41264 0.0
C1955 C 0.51749 0.86599 0.4251 0.0
C1956 C 0.5379 0.86519 0.43542 0.0
H1957 H 0.32858 0.8688 0.45332 0.0
H1958 H 0.38667 0.87259 0.45196 0.0
C1959 C 0.56592 0.85848 0.43331 0.0
C1960 C 0.48574 0.86974 0.42737 0.0
H1961 H 0.44815 0.92017 0.41964 0.0
C1962 C 0.45703 0.84282 0.4342 0.0
C1963 C 0.4827 0.89821 0.42219 0.0
C1964 C 0.51313 0.92837 0.4151 0.0
C1965 C 0.42485 0.84289 0.43561 0.0
C1966 C 0.42162 0.87121 0.43033 0.0
C1967 C 0.45062 0.8985 0.42369 0.0
C1968 C 0.38793 0.87225 0.43121 0.0
C1969 C 0.39414 0.8118 0.44226 0.0
C1970 C 0.37009 0.87262 0.42002 0.0
C1971 C 0.33707 0.87099 0.42077 0.0
C1972 C 0.32122 0.86887 0.43274 0.0
C1973 C 0.33983 0.86997 0.44394 0.0
C1974 C 0.37297 0.87192 0.44318 0.0
H1975 H 0.39784 0.78829 0.44268 0.0
H1976 H 0.39222 0.81943 0.45225 0.0
H1977 H 0.36856 0.80399 0.43733 0.0
H1978 H 0.38123 0.8731 0.41067 0.0
H1979 H 0.32348 0.87024 0.41196 0.0
H1980 H 0.81659 0.83634 0.20928 0.0
H1981 H 0.87117 0.83321 0.21084 0.0
H1982 H 0.86302 0.83 0.25209 0.0
H1983 H 0.80782 0.83219 0.25059 0.0
H1984 H 0.93226 0.88141 0.2216 0.0
H1985 H 0.88589 0.75217 0.24585 0.0
H1986 H 0.85547 0.76455 0.23892 0.0
H1987 H 0.87444 0.78067 0.25454 0.0
C1988 C 0.82608 0.83441 0.21869 0.0
C1989 C 0.80782 0.83449 0.22982 0.0
C1990 C 0.85734 0.83264 0.21956 0.0
C1991 C 0.87108 0.83094 0.23157 0.0
C1992 C 0.85255 0.83038 0.2427 0.0
H1993 H 0.07198 0.86671 0.26021 0.0
H1994 H 0.01093 0.85399 0.25687 0.0
C1995 C 0.82106 0.83185 0.24184 0.0
C1996 C 0.90617 0.83265 0.23242 0.0
H1997 H 0.94902 0.79188 0.24536 0.0
C1998 C 0.9358 0.86155 0.22666 0.0
C1999 C 0.91086 0.80678 0.23903 0.0
C2000 C 0.87991 0.77411 0.24483 0.0
C2001 C 0.97005 0.86588 0.22764 0.0
C2002 C 0.97482 0.84047 0.23448 0.0
C2003 C 0.94523 0.8113 0.24011 0.0
C2004 C 0.01074 0.84498 0.23648 0.0
C2005 C 1.00112 0.89827 0.22173 0.0
C2006 C 0.0306 0.84329 0.22615 0.0
C2007 C 0.06559 0.85043 0.22803 0.0
C2008 C 0.0813 0.85955 0.24026 0.0
C2009 C 0.0608 0.85999 0.25064 0.0
C2010 C 0.02584 0.85264 0.24877 0.0
H2011 H 0.99387 0.91836 0.2187 0.0
H2012 H 0.02366 0.91086 0.2286 0.0
H2013 H 0.01044 0.89014 0.21315 0.0
H2014 H 0.01925 0.83706 0.21661 0.0
H2015 H 0.08063 0.84983 0.21984 0.0
H2016 H 0.2087 1.00135 0.2073 0.0
H2017 H 0.21316 0.05967 0.20826 0.0
H2018 H 0.21665 0.05716 0.24956 0.0
H2019 H 0.21311 0.99926 0.24867 0.0
H2020 H 0.16571 0.07419 0.2188 0.0
H2021 H 0.29589 0.15678 0.24257 0.0
H2022 H 0.2827 0.11352 0.23597 0.0
H2023 H 0.26732 0.11748 0.25158 0.0
C2024 C 0.21099 0.01345 0.21659 0.0
C2025 C 0.21057 0.99565 0.22791 0.0
C2026 C 0.21353 0.04681 0.21712 0.0
C2027 C 0.21572 0.06308 0.22897 0.0
C2028 C 0.21593 0.04563 0.24029 0.0
H2029 H 0.18121 0.22654 0.25837 0.0
H2030 H 0.19452 0.17901 0.25441 0.0
C2031 C 0.21366 0.01237 0.23977 0.0
C2032 C 0.2147 0.09676 0.22953 0.0
H2033 H 0.25611 0.18028 0.24242 0.0
C2034 C 0.18579 0.09758 0.22379 0.0
C2035 C 0.2409 0.1273 0.23604 0.0
C2036 C 0.27363 0.12891 0.24178 0.0
C2037 C 0.1816 0.1275 0.22483 0.0
C2038 C 0.20719 0.15757 0.23168 0.0
C2039 C 0.23654 0.15715 0.23717 0.0
C2040 C 0.20242 0.18859 0.23401 0.0
C2041 C 0.14905 0.12621 0.21904 0.0
C2042 C 0.20332 0.21033 0.22387 0.0
C2043 C 0.19578 0.23769 0.2261 0.0
C2044 C 0.18711 0.24363 0.23851 0.0
C2045 C 0.18755 0.22257 0.24868 0.0
C2046 C 0.19525 0.19543 0.24646 0.0
H2047 H 0.12893 0.09895 0.21594 0.0
H2048 H 0.13645 0.13584 0.22602 0.0
H2049 H 0.15707 0.1439 0.21053 0.0
H2050 H 0.2092 0.20568 0.21421 0.0
H2051 H 0.19573 0.25347 0.21807 0.0
H2052 H 0.80477 0.97374 0.26053 0.0
H2053 H 0.85416 0.03422 0.25763 0.0
H2054 H 0.84632 0.01962 0.21661 0.0
H2055 H 0.79613 0.95913 0.21944 0.0
H2056 H 0.91734 0.05135 0.24707 0.0
H2057 H 0.85647 0.11712 0.21975 0.0
H2058 H 0.83012 0.07507 0.22781 0.0
H2059 H 0.85003 0.07687 0.2125 0.0
C2060 C 0.81313 0.98354 0.25087 0.0
C2061 C 0.79653 0.96159 0.24021 0.0
C2062 C 0.84142 0.01816 0.24923 0.0
C2063 C 0.85384 0.03166 0.23691 0.0
C2064 C 0.83675 0.01013 0.22621 0.0
H2065 H 0.04513 0.21717 0.20925 0.0
H2066 H 0.98784 0.16228 0.21144 0.0
C2067 C 0.80816 0.97547 0.22784 0.0
C2068 C 0.88646 0.06703 0.23543 0.0
H2069 H 0.91979 0.14885 0.22149 0.0
C2070 C 0.91776 0.07274 0.24156 0.0
C2071 C 0.88709 0.09488 0.22817 0.0
C2072 C 0.85406 0.09089 0.22177 0.0
C2073 C 0.94968 0.10527 0.24052 0.0
C2074 C 0.95031 0.1331 0.23328 0.0
C2075 C 0.91915 0.12747 0.22708 0.0
C2076 C 0.98344 0.16794 0.23185 0.0
C2077 C 0.98273 0.10934 0.24695 0.0
C2078 C 0.99951 0.18979 0.24255 0.0
C2079 C 0.03229 0.22122 0.24135 0.0
C2080 C 0.04957 0.23138 0.2294 0.0
C2081 C 0.03268 0.21007 0.21861 0.0
C2082 C 0.99988 0.17871 0.21983 0.0
H2083 H 0.97969 0.08326 0.24971 0.0
H2084 H 0.00623 0.12329 0.24055 0.0
H2085 H 0.98809 0.12548 0.25578 0.0
H2086 H 0.98698 0.18218 0.25189 0.0
H2087 H 0.04445 0.23708 0.24983 0.0
H2088 H 0.82847 0.80833 0.78358 0.0
H2089 H 0.8253 0.86288 0.78265 0.0
H2090 H 0.82579 0.8594 0.74132 0.0
H2091 H 0.82816 0.80435 0.74217 0.0
H2092 H 0.87463 0.9253 0.77262 0.0
H2093 H 0.74638 0.88049 0.74764 0.0
H2094 H 0.75854 0.84974 0.75437 0.0
H2095 H 0.77552 0.86981 0.73897 0.0
C2096 C 0.82737 0.81885 0.77428 0.0
C2097 C 0.82854 0.80195 0.76294 0.0
C2098 C 0.82557 0.85008 0.77377 0.0
C2099 C 0.82485 0.86507 0.76193 0.0
C2100 C 0.82542 0.84792 0.75058 0.0
H2101 H 0.86059 0.06658 0.73485 0.0
H2102 H 0.84796 0.00557 0.7378 0.0
C2103 C 0.82699 0.81653 0.75108 0.0
C2104 C 0.82636 0.90001 0.76146 0.0
H2105 H 0.78595 0.94346 0.74878 0.0
C2106 C 0.85496 0.92915 0.76755 0.0
C2107 C 0.80071 0.90506 0.75484 0.0
C2108 C 0.76837 0.87454 0.74869 0.0
C2109 C 0.85928 0.96337 0.76684 0.0
C2110 C 0.83411 0.96854 0.75996 0.0
C2111 C 0.80518 0.93937 0.75405 0.0
C2112 C 0.83869 0.00446 0.7582 0.0
C2113 C 0.89143 0.99399 0.77305 0.0
C2114 C 0.83681 0.02378 0.76867 0.0
C2115 C 0.84393 0.05875 0.76702 0.0
C2116 C 0.85316 0.07496 0.75486 0.0
C2117 C 0.85378 0.055 0.74435 0.0
C2118 C 0.84648 0.02008 0.746 0.0
H2119 H 0.91151 0.98662 0.77602 0.0
H2120 H 0.90427 0.01701 0.7664 0.0
H2121 H 0.8829 1.00259 0.78172 0.0
H2122 H 0.83043 0.01202 0.77815 0.0
H2123 H 0.84317 0.07336 0.7753 0.0
H2124 H 0.22407 0.03163 0.78356 0.0
H2125 H 0.16958 0.97384 0.78238 0.0
H2126 H 0.17473 0.9785 0.74107 0.0
H2127 H 0.22976 0.036 0.74217 0.0
H2128 H 0.10773 0.96134 0.77208 0.0
H2129 H 0.15237 0.87776 0.74732 0.0
H2130 H 0.18325 0.92047 0.75416 0.0
H2131 H 0.16374 0.91775 0.73866 0.0
C2132 C 0.21395 0.02012 0.77421 0.0
C2133 C 0.23127 0.03844 0.76295 0.0
C2134 C 0.18277 0.98705 0.77356 0.0
C2135 C 0.16822 0.97156 0.76165 0.0
C2136 C 0.18587 0.98945 0.75038 0.0
H2137 H 0.96762 0.80999 0.73282 0.0
H2138 H 0.02893 0.85704 0.73652 0.0
C2139 C 0.21725 0.02246 0.75102 0.0
C2140 C 0.13309 0.93831 0.76103 0.0
H2141 H 0.08927 0.855 0.748 0.0
C2142 C 0.10381 0.9379 0.76698 0.0
C2143 C 0.12796 0.90772 0.75436 0.0
C2144 C 0.15857 0.90574 0.74837 0.0
C2145 C 0.06939 0.9083 0.76604 0.0
C2146 C 0.06413 0.87814 0.75908 0.0
C2147 C 0.09344 0.87818 0.75335 0.0
C2148 C 0.02798 0.84741 0.7569 0.0
C2149 C 0.03865 0.91004 0.77206 0.0
C2150 C 0.00737 0.8258 0.7671 0.0
C2151 C 0.97218 0.79869 0.76502 0.0
C2152 C 0.95707 0.79292 0.75269 0.0
C2153 C 0.97831 0.81386 0.74245 0.0
C2154 C 0.01343 0.84072 0.74452 0.0
H2155 H 0.04632 0.9374 0.7752 0.0
H2156 H 0.01609 0.90063 0.76522 0.0
H2157 H 0.02918 0.89239 0.78058 0.0
H2158 H 0.0183 0.83032 0.7767 0.0
H2159 H 0.95655 0.78298 0.7731 0.0
H2160 H 0.24018 0.17485 0.7736 0.0
H2161 H 0.18985 0.18504 0.77672 0.0
H2162 H 0.17838 0.18818 0.73575 0.0
H2163 H 0.22784 0.17728 0.73256 0.0
H2164 H 0.17585 0.23833 0.76904 0.0
H2165 H 0.08019 0.10986 0.74648 0.0
H2166 H 0.12468 0.12068 0.75097 0.0
H2167 H 0.11709 0.13763 0.73628 0.0
C2168 C 0.2271 0.17801 0.76527 0.0
C2169 C 0.23773 0.1748 0.75283 0.0
C2170 C 0.19833 0.1838 0.76706 0.0
C2171 C 0.17978 0.18652 0.75646 0.0
C2172 C 0.19161 0.18519 0.74407 0.0
H2173 H 0.99187 0.20635 0.74502 0.0
H2174 H 0.04877 0.20769 0.7427 0.0
C2175 C 0.22006 0.17913 0.74227 0.0
C2176 C 0.14747 0.18973 0.75827 0.0
H2177 H 0.05902 0.1498 0.75069 0.0
C2178 C 0.15026 0.21891 0.76508 0.0
C2179 C 0.114 0.16425 0.75316 0.0
C2180 C 0.10862 0.13116 0.74643 0.0
C2181 C 0.12068 0.22369 0.76665 0.0
C2182 C 0.08745 0.19851 0.76135 0.0
C2183 C 0.08462 0.16927 0.75462 0.0
C2184 C 0.05487 0.20125 0.76295 0.0
C2185 C 0.12526 0.25592 0.77377 0.0
C2186 C 0.03953 0.19738 0.77511 0.0
C2187 C 0.00695 0.19641 0.77646 0.0
C2188 C 0.98904 0.19931 0.76567 0.0
C2189 C 1.00499 0.2042 0.75353 0.0
C2190 C 0.03748 0.20491 0.75218 0.0
H2191 H 0.15377 0.27663 0.77473 0.0
H2192 H 0.11086 0.26765 0.76882 0.0
H2193 H 0.11389 0.24788 0.78354 0.0
H2194 H 0.05219 0.19394 0.78351 0.0
H2195 H 0.99542 0.19258 0.78594 0.0
H2196 H 0.48193 0.16323 0.54148 0.0
H2197 H 0.53576 0.15875 0.54314 0.0
H2198 H 0.52856 0.15817 0.58439 0.0
H2199 H 0.47416 0.16175 0.58281 0.0
H2200 H 0.59723 0.20719 0.55364 0.0
H2201 H 0.55019 0.07921 0.57886 0.0
H2202 H 0.51994 0.09155 0.57175 0.0
H2203 H 0.53905 0.1083 0.58729 0.0
C2204 C 0.49144 0.16154 0.55091 0.0
C2205 C 0.47375 0.16286 0.56201 0.0
C2206 C 0.52225 0.15898 0.55184 0.0
C2207 C 0.53605 0.1577 0.56388 0.0
C2208 C 0.51799 0.15822 0.57499 0.0
H2209 H 0.73559 0.19574 0.5939 0.0
H2210 H 0.67432 0.18154 0.58999 0.0
C2211 C 0.48697 0.16049 0.57407 0.0
C2212 C 0.57094 0.15906 0.5648 0.0
H2213 H 0.61346 0.11894 0.57852 0.0
C2214 C 0.60065 0.18757 0.55892 0.0
C2215 C 0.57545 0.1335 0.57171 0.0
C2216 C 0.54438 0.10122 0.57765 0.0
C2217 C 0.63486 0.19195 0.56013 0.0
C2218 C 0.63949 0.16694 0.56731 0.0
C2219 C 0.60977 0.13804 0.573 0.0
C2220 C 0.67539 0.17185 0.56971 0.0
C2221 C 0.66606 0.22405 0.55413 0.0
C2222 C 0.696 0.17016 0.55964 0.0
C2223 C 0.73114 0.17819 0.56185 0.0
C2224 C 0.74621 0.18816 0.57416 0.0
C2225 C 0.72491 0.18839 0.58429 0.0
C2226 C 0.68983 0.18019 0.58209 0.0
H2227 H 0.65883 0.24392 0.55079 0.0
H2228 H 0.68839 0.23709 0.56107 0.0
H2229 H 0.67567 0.2155 0.54575 0.0
H2230 H 0.68515 0.16339 0.55003 0.0
H2231 H 0.7468 0.1777 0.55385 0.0
H2232 H 0.8764 0.33223 0.58223 0.0
H2233 H 0.88033 0.39038 0.58243 0.0
H2234 H 0.87914 0.39101 0.54109 0.0
H2235 H 0.87448 0.33254 0.54079 0.0
H2236 H 0.92937 0.45589 0.57204 0.0
H2237 H 0.79553 0.40483 0.55018 0.0
H2238 H 0.81062 0.37574 0.55626 0.0
H2239 H 0.82568 0.39682 0.54091 0.0
C2240 C 0.87716 0.3448 0.57318 0.0
C2241 C 0.87473 0.32757 0.56149 0.0
C2242 C 0.87945 0.37806 0.57331 0.0
C2243 C 0.87936 0.3947 0.56178 0.0
C2244 C 0.87843 0.37826 0.5501 0.0
H2245 H 0.86368 0.58617 0.54989 0.0
H2246 H 0.87599 0.53753 0.5463 0.0
C2247 C 0.87593 0.34491 0.54995 0.0
C2248 C 0.87921 0.42876 0.56206 0.0
H2249 H 0.82886 0.46638 0.55425 0.0
C2250 C 0.90749 0.45826 0.5681 0.0
C2251 C 0.85061 0.43176 0.5569 0.0
C2252 C 0.81871 0.40057 0.55079 0.0
C2253 C 0.90779 0.49062 0.56922 0.0
C2254 C 0.87889 0.49337 0.56428 0.0
C2255 C 0.85108 0.4642 0.55795 0.0
C2256 C 0.87544 0.52521 0.56643 0.0
C2257 C 0.93894 0.52158 0.57572 0.0
C2258 C 0.87126 0.53444 0.57893 0.0
C2259 C 0.86407 0.56198 0.581 0.0
C2260 C 0.86087 0.58083 0.5706 0.0
C2261 C 0.86615 0.57227 0.5581 0.0
C2262 C 0.87312 0.54448 0.55603 0.0
H2263 H 0.96294 0.5186 0.5757 0.0
H2264 H 0.94559 0.54706 0.57096 0.0
H2265 H 0.93189 0.52298 0.58584 0.0
H2266 H 0.87229 0.51949 0.58707 0.0
H2267 H 0.86013 0.56788 0.59075 0.0
H2268 H 0.4834 0.30529 0.59209 0.0
H2269 H 0.53276 0.36561 0.58877 0.0
H2270 H 0.51484 0.35385 0.54797 0.0
H2271 H 0.46512 0.29309 0.5512 0.0
H2272 H 0.58691 0.37839 0.55597 0.0
H2273 H 0.5328 0.45743 0.57827 0.0
H2274 H 0.52891 0.42148 0.58799 0.0
H2275 H 0.50474 0.41196 0.57315 0.0
C2276 C 0.48959 0.31559 0.5824 0.0
C2277 C 0.47024 0.2943 0.5719 0.0
C2278 C 0.51774 0.35022 0.58054 0.0
C2279 C 0.52726 0.36443 0.56814 0.0
C2280 C 0.50776 0.34349 0.55763 0.0
H2281 H 0.71461 0.55726 0.54026 0.0
H2282 H 0.65769 0.50191 0.54188 0.0
C2283 C 0.47932 0.30882 0.55949 0.0
C2284 C 0.55912 0.40014 0.56619 0.0
H2285 H 0.59504 0.488 0.57387 0.0
C2286 C 0.58858 0.40244 0.55974 0.0
C2287 C 0.56137 0.43141 0.57126 0.0
C2288 C 0.53019 0.43066 0.57797 0.0
C2289 C 0.6206 0.43495 0.55853 0.0
C2290 C 0.62295 0.46631 0.56363 0.0
C2291 C 0.59329 0.46404 0.56996 0.0
C2292 C 0.65616 0.50152 0.56262 0.0
C2293 C 0.65201 0.4351 0.55224 0.0
C2294 C 0.6735 0.52081 0.57372 0.0
C2295 C 0.70593 0.55287 0.57282 0.0
C2296 C 0.72166 0.56623 0.56079 0.0
C2297 C 0.7035 0.54755 0.54969 0.0
C2298 C 0.67101 0.51572 0.55059 0.0
H2299 H 0.64905 0.40817 0.55215 0.0
H2300 H 0.65403 0.44398 0.54214 0.0
H2301 H 0.67727 0.45358 0.55721 0.0
H2302 H 0.66243 0.51055 0.5831 0.0
H2303 H 0.71916 0.56659 0.58156 0.0
loop_
_geom_bond_atom_site_label_1
_geom_bond_atom_site_label_2
_geom_bond_distance
_geom_bond_site_symmetry_2
_ccdc_geom_bond_type
Zn0 O6 1.969 . S
Zn0 O7 1.965 . S
Zn0 O11 2.024 . S
Zn0 O16 1.969 . S
Zn1 O8 1.969 . S
Zn1 O14 1.969 . S
Zn1 O15 1.965 . S
Zn1 O17 2.024 . S
C2 O3 1.229 . S
C2 O11 1.058 . S
O3 C2 1.229 . S
C4 O5 1.229 . S
C4 O17 1.058 . S
O5 C4 1.229 . S
O6 Zn0 1.969 . S
O6 C9 1.267 . S
O7 Zn0 1.965 . S
O7 C18 1.260 1_565 S
O8 Zn1 1.969 . S
O8 C18 1.258 . S
C9 O6 1.267 . S
C9 O10 1.228 . S
O10 C9 1.228 . S
O11 Zn0 2.024 . S
O11 C2 1.058 . S
C12 O13 1.228 . S
C12 O14 1.267 . S
O13 C12 1.228 . S
O14 Zn1 1.969 . S
O14 C12 1.267 . S
O15 Zn1 1.965 . S
O15 C19 1.260 . S
O16 Zn0 1.969 . S
O16 C19 1.258 1_565 S
O17 Zn1 2.024 . S
O17 C4 1.058 . S
C18 O7 1.260 1_545 S
C18 O8 1.258 . S
C19 O15 1.260 . S
C19 O16 1.258 1_545 S
Zn20 O26 1.969 . S
Zn20 O27 1.965 . S
Zn20 O31 2.024 . S
Zn20 O36 1.969 . S
Zn21 O28 1.969 . S
Zn21 O34 1.969 . S
Zn21 O35 1.965 1_655 S
Zn21 O37 2.024 . S
C22 O23 1.229 . S
C22 O31 1.058 . S
O23 C22 1.229 . S
C24 O25 1.229 . S
C24 O37 1.058 . S
O25 C24 1.229 . S
O26 Zn20 1.969 . S
O26 C29 1.267 . S
O27 Zn20 1.965 . S
O27 C38 1.260 . S
O28 Zn21 1.969 . S
O28 C38 1.258 1_655 S
C29 O26 1.267 . S
C29 O30 1.228 . S
O30 C29 1.228 . S
O31 Zn20 2.024 . S
O31 C22 1.058 . S
C32 O33 1.228 . S
C32 O34 1.267 . S
O33 C32 1.228 . S
O34 Zn21 1.969 . S
O34 C32 1.267 . S
O35 Zn21 1.965 1_455 S
O35 C39 1.260 . S
O36 Zn20 1.969 . S
O36 C39 1.258 . S
O37 Zn21 2.024 . S
O37 C24 1.058 . S
C38 O27 1.260 . S
C38 O28 1.258 1_455 S
C39 O35 1.260 . S
C39 O36 1.258 . S
Zn40 O46 1.969 . S
Zn40 O47 1.965 . S
Zn40 O51 2.024 . S
Zn40 O56 1.969 . S
Zn41 O48 1.969 . S
Zn41 O54 1.969 . S
Zn41 O55 1.965 . S
Zn41 O57 2.024 . S
C42 O43 1.229 . S
C42 O51 1.058 . S
O43 C42 1.229 . S
C44 O45 1.229 . S
C44 O57 1.058 . S
O45 C44 1.229 . S
O46 Zn40 1.969 . S
O46 C49 1.267 . S
O47 Zn40 1.965 . S
O47 C58 1.260 . S
O48 Zn41 1.969 . S
O48 C58 1.258 . S
C49 O46 1.267 . S
C49 O50 1.228 . S
O50 C49 1.228 . S
O51 Zn40 2.024 . S
O51 C42 1.058 . S
C52 O53 1.228 . S
C52 O54 1.267 . S
O53 C52 1.228 . S
O54 Zn41 1.969 . S
O54 C52 1.267 . S
O55 Zn41 1.965 . S
O55 C59 1.260 . S
O56 Zn40 1.969 . S
O56 C59 1.258 . S
O57 Zn41 2.024 . S
O57 C44 1.058 . S
C58 O47 1.260 . S
C58 O48 1.258 . S
C59 O55 1.260 . S
C59 O56 1.258 . S
Zn60 O66 1.969 . S
Zn60 O67 1.965 . S
Zn60 O71 2.024 . S
Zn60 O76 1.969 . S
Zn61 O68 1.969 . S
Zn61 O74 1.969 . S
Zn61 O75 1.965 . S
Zn61 O77 2.024 . S
C62 O63 1.229 . S
C62 O71 1.058 . S
O63 C62 1.229 . S
C64 O65 1.229 . S
C64 O77 1.058 . S
O65 C64 1.229 . S
O66 Zn60 1.969 . S
O66 C69 1.267 . S
O67 Zn60 1.965 . S
O67 C78 1.260 1_655 S
O68 Zn61 1.969 . S
O68 C78 1.258 . S
C69 O66 1.267 . S
C69 O70 1.228 . S
O70 C69 1.228 . S
O71 Zn60 2.024 . S
O71 C62 1.058 . S
C72 O73 1.228 . S
C72 O74 1.267 . S
O73 C72 1.228 . S
O74 Zn61 1.969 . S
O74 C72 1.267 . S
O75 Zn61 1.965 . S
O75 C79 1.260 . S
O76 Zn60 1.969 . S
O76 C79 1.258 1_655 S
O77 Zn61 2.024 . S
O77 C64 1.058 . S
C78 O67 1.260 1_455 S
C78 O68 1.258 . S
C79 O75 1.260 . S
C79 O76 1.258 1_455 S
Zn80 O86 1.969 . S
Zn80 O87 1.965 . S
Zn80 O91 2.024 . S
Zn80 O96 1.969 . S
Zn81 O88 1.969 . S
Zn81 O94 1.969 . S
Zn81 O95 1.965 . S
Zn81 O97 2.024 . S
C82 O83 1.229 . S
C82 O91 1.058 . S
O83 C82 1.229 . S
C84 O85 1.229 . S
C84 O97 1.058 . S
O85 C84 1.229 . S
O86 Zn80 1.969 . S
O86 C89 1.267 . S
O87 Zn80 1.965 . S
O87 C98 1.260 . S
O88 Zn81 1.969 . S
O88 C98 1.258 . S
C89 O86 1.267 . S
C89 O90 1.228 . S
O90 C89 1.228 . S
O91 Zn80 2.024 . S
O91 C82 1.058 . S
C92 O93 1.228 . S
C92 O94 1.267 . S
O93 C92 1.228 . S
O94 Zn81 1.969 . S
O94 C92 1.267 . S
O95 Zn81 1.965 . S
O95 C99 1.260 . S
O96 Zn80 1.969 . S
O96 C99 1.258 . S
O97 Zn81 2.024 . S
O97 C84 1.058 . S
C98 O87 1.260 . S
C98 O88 1.258 . S
C99 O95 1.260 . S
C99 O96 1.258 . S
Zn100 O106 1.969 . S
Zn100 O107 1.965 . S
Zn100 O111 2.024 . S
Zn100 O116 1.969 . S
Zn101 O108 1.969 . S
Zn101 O114 1.969 . S
Zn101 O115 1.965 1_565 S
Zn101 O117 2.024 . S
C102 O103 1.229 . S
C102 O111 1.058 . S
O103 C102 1.229 . S
C104 O105 1.229 . S
C104 O117 1.058 . S
O105 C104 1.229 . S
O106 Zn100 1.969 . S
O106 C109 1.267 . S
O107 Zn100 1.965 . S
O107 C118 1.260 . S
O108 Zn101 1.969 . S
O108 C118 1.258 1_565 S
C109 O106 1.267 . S
C109 O110 1.228 . S
O110 C109 1.228 . S
O111 Zn100 2.024 . S
O111 C102 1.058 . S
C112 O113 1.228 . S
C112 O114 1.267 . S
O113 C112 1.228 . S
O114 Zn101 1.969 . S
O114 C112 1.267 . S
O115 Zn101 1.965 1_545 S
O115 C119 1.260 . S
O116 Zn100 1.969 . S
O116 C119 1.258 . S
O117 Zn101 2.024 . S
O117 C104 1.058 . S
C118 O107 1.260 . S
C118 O108 1.258 1_545 S
C119 O115 1.260 . S
C119 O116 1.258 . S
Zn120 O126 1.969 . S
Zn120 O127 1.965 . S
Zn120 O131 2.024 . S
Zn120 O136 1.969 . S
Zn121 O128 1.969 . S
Zn121 O134 1.969 . S
Zn121 O135 1.965 . S
Zn121 O137 2.024 . S
C122 O123 1.229 . S
C122 O131 1.058 . S
O123 C122 1.229 . S
C124 O125 1.229 . S
C124 O137 1.058 . S
O125 C124 1.229 . S
O126 Zn120 1.969 . S
O126 C129 1.267 . S
O127 Zn120 1.965 . S
O127 C138 1.260 . S
O128 Zn121 1.969 . S
O128 C138 1.258 . S
C129 O126 1.267 . S
C129 O130 1.228 . S
O130 C129 1.228 . S
O131 Zn120 2.024 . S
O131 C122 1.058 . S
C132 O133 1.228 . S
C132 O134 1.267 . S
O133 C132 1.228 . S
O134 Zn121 1.969 . S
O134 C132 1.267 . S
O135 Zn121 1.965 . S
O135 C139 1.260 . S
O136 Zn120 1.969 . S
O136 C139 1.258 . S
O137 Zn121 2.024 . S
O137 C124 1.058 . S
C138 O127 1.260 . S
C138 O128 1.258 . S
C139 O135 1.260 . S
C139 O136 1.258 . S
Zn140 O146 1.969 . S
Zn140 O147 1.965 . S
Zn140 O151 2.024 . S
Zn140 O156 1.969 . S
Zn141 O148 1.969 . S
Zn141 O154 1.969 . S
Zn141 O155 1.965 . S
Zn141 O157 2.024 . S
C142 O143 1.229 . S
C142 O151 1.058 . S
O143 C142 1.229 . S
C144 O145 1.229 . S
C144 O157 1.058 . S
O145 C144 1.229 . S
O146 Zn140 1.969 . S
O146 C149 1.267 . S
O147 Zn140 1.965 . S
O147 C158 1.260 . S
O148 Zn141 1.969 . S
O148 C158 1.258 . S
C149 O146 1.267 . S
C149 O150 1.228 . S
O150 C149 1.228 . S
O151 Zn140 2.024 . S
O151 C142 1.058 . S
C152 O153 1.228 . S
C152 O154 1.267 . S
O153 C152 1.228 . S
O154 Zn141 1.969 . S
O154 C152 1.267 . S
O155 Zn141 1.965 . S
O155 C159 1.260 . S
O156 Zn140 1.969 . S
O156 C159 1.258 . S
O157 Zn141 2.024 . S
O157 C144 1.058 . S
C158 O147 1.260 . S
C158 O148 1.258 . S
C159 O155 1.260 . S
C159 O156 1.258 . S
Zn160 O166 1.969 . S
Zn160 O167 1.965 . S
Zn160 O171 2.024 . S
Zn160 O176 1.969 . S
Zn161 O168 1.969 . S
Zn161 O174 1.969 . S
Zn161 O175 1.965 . S
Zn161 O177 2.024 . S
C162 O163 1.229 . S
C162 O171 1.058 . S
O163 C162 1.229 . S
C164 O165 1.229 . S
C164 O177 1.058 . S
O165 C164 1.229 . S
O166 Zn160 1.969 . S
O166 C169 1.267 . S
O167 Zn160 1.965 . S
O167 C178 1.260 . S
O168 Zn161 1.969 . S
O168 C178 1.258 . S
C169 O166 1.267 . S
C169 O170 1.228 . S
O170 C169 1.228 . S
O171 Zn160 2.024 . S
O171 C162 1.058 . S
C172 O173 1.228 . S
C172 O174 1.267 . S
O173 C172 1.228 . S
O174 Zn161 1.969 . S
O174 C172 1.267 . S
O175 Zn161 1.965 . S
O175 C179 1.260 . S
O176 Zn160 1.969 . S
O176 C179 1.258 . S
O177 Zn161 2.024 . S
O177 C164 1.058 . S
C178 O167 1.260 . S
C178 O168 1.258 . S
C179 O175 1.260 . S
C179 O176 1.258 . S
Zn180 O186 1.969 . S
Zn180 O187 1.965 . S
Zn180 O191 2.024 . S
Zn180 O196 1.969 . S
Zn181 O188 1.969 . S
Zn181 O194 1.969 . S
Zn181 O195 1.965 . S
Zn181 O197 2.024 . S
C182 O183 1.229 . S
C182 O191 1.058 . S
O183 C182 1.229 . S
C184 O185 1.229 . S
C184 O197 1.058 . S
O185 C184 1.229 . S
O186 Zn180 1.969 . S
O186 C189 1.267 . S
O187 Zn180 1.965 . S
O187 C198 1.260 . S
O188 Zn181 1.969 . S
O188 C198 1.258 . S
C189 O186 1.267 . S
C189 O190 1.228 . S
O190 C189 1.228 . S
O191 Zn180 2.024 . S
O191 C182 1.058 . S
C192 O193 1.228 . S
C192 O194 1.267 . S
O193 C192 1.228 . S
O194 Zn181 1.969 . S
O194 C192 1.267 . S
O195 Zn181 1.965 . S
O195 C199 1.260 . S
O196 Zn180 1.969 . S
O196 C199 1.258 . S
O197 Zn181 2.024 . S
O197 C184 1.058 . S
C198 O187 1.260 . S
C198 O188 1.258 . S
C199 O195 1.260 . S
C199 O196 1.258 . S
Zn200 O206 1.969 . S
Zn200 O207 1.965 . S
Zn200 O211 2.024 . S
Zn200 O216 1.969 . S
Zn201 O208 1.969 . S
Zn201 O214 1.969 . S
Zn201 O215 1.965 . S
Zn201 O217 2.024 . S
C202 O203 1.229 . S
C202 O211 1.058 . S
O203 C202 1.229 . S
C204 O205 1.229 . S
C204 O217 1.058 . S
O205 C204 1.229 . S
O206 Zn200 1.969 . S
O206 C209 1.267 . S
O207 Zn200 1.965 . S
O207 C218 1.260 . S
O208 Zn201 1.969 . S
O208 C218 1.258 . S
C209 O206 1.267 . S
C209 O210 1.228 . S
O210 C209 1.228 . S
O211 Zn200 2.024 . S
O211 C202 1.058 . S
C212 O213 1.228 . S
C212 O214 1.267 . S
O213 C212 1.228 . S
O214 Zn201 1.969 . S
O214 C212 1.267 . S
O215 Zn201 1.965 . S
O215 C219 1.260 . S
O216 Zn200 1.969 . S
O216 C219 1.258 . S
O217 Zn201 2.024 . S
O217 C204 1.058 . S
C218 O207 1.260 . S
C218 O208 1.258 . S
C219 O215 1.260 . S
C219 O216 1.258 . S
Zn220 O226 1.969 . S
Zn220 O227 1.965 . S
Zn220 O231 2.024 . S
Zn220 O236 1.969 . S
Zn221 O228 1.969 . S
Zn221 O234 1.969 . S
Zn221 O235 1.965 . S
Zn221 O237 2.024 . S
C222 O223 1.229 . S
C222 O231 1.058 . S
O223 C222 1.229 . S
C224 O225 1.229 . S
C224 O237 1.058 . S
O225 C224 1.229 . S
O226 Zn220 1.969 . S
O226 C229 1.267 . S
O227 Zn220 1.965 . S
O227 C238 1.260 . S
O228 Zn221 1.969 . S
O228 C238 1.258 . S
C229 O226 1.267 . S
C229 O230 1.228 . S
O230 C229 1.228 . S
O231 Zn220 2.024 . S
O231 C222 1.058 . S
C232 O233 1.228 . S
C232 O234 1.267 . S
O233 C232 1.228 . S
O234 Zn221 1.969 . S
O234 C232 1.267 . S
O235 Zn221 1.965 . S
O235 C239 1.260 . S
O236 Zn220 1.969 . S
O236 C239 1.258 . S
O237 Zn221 2.024 . S
O237 C224 1.058 . S
C238 O227 1.260 . S
C238 O228 1.258 . S
C239 O235 1.260 . S
C239 O236 1.258 . S
Zn240 O246 1.969 . S
Zn240 O247 1.965 . S
Zn240 O251 2.024 . S
Zn240 O256 1.969 . S
Zn241 O248 1.969 . S
Zn241 O254 1.969 . S
Zn241 O255 1.965 . S
Zn241 O257 2.024 . S
C242 O243 1.229 . S
C242 O251 1.058 . S
O243 C242 1.229 . S
C244 O245 1.229 . S
C244 O257 1.058 . S
O245 C244 1.229 . S
O246 Zn240 1.969 . S
O246 C249 1.267 . S
O247 Zn240 1.965 . S
O247 C258 1.260 . S
O248 Zn241 1.969 . S
O248 C258 1.258 . S
C249 O246 1.267 . S
C249 O250 1.228 . S
O250 C249 1.228 . S
O251 Zn240 2.024 . S
O251 C242 1.058 . S
C252 O253 1.228 . S
C252 O254 1.267 . S
O253 C252 1.228 . S
O254 Zn241 1.969 . S
O254 C252 1.267 . S
O255 Zn241 1.965 . S
O255 C259 1.260 . S
O256 Zn240 1.969 . S
O256 C259 1.258 . S
O257 Zn241 2.024 . S
O257 C244 1.058 . S
C258 O247 1.260 . S
C258 O248 1.258 . S
C259 O255 1.260 . S
C259 O256 1.258 . S
Zn260 O266 1.969 . S
Zn260 O267 1.965 . S
Zn260 O271 2.024 . S
Zn260 O276 1.969 . S
Zn261 O268 1.969 . S
Zn261 O274 1.969 . S
Zn261 O275 1.965 . S
Zn261 O277 2.024 . S
C262 O263 1.229 . S
C262 O271 1.058 . S
O263 C262 1.229 . S
C264 O265 1.229 . S
C264 O277 1.058 . S
O265 C264 1.229 . S
O266 Zn260 1.969 . S
O266 C269 1.267 . S
O267 Zn260 1.965 . S
O267 C278 1.260 . S
O268 Zn261 1.969 . S
O268 C278 1.258 . S
C269 O266 1.267 . S
C269 O270 1.228 . S
O270 C269 1.228 . S
O271 Zn260 2.024 . S
O271 C262 1.058 . S
C272 O273 1.228 . S
C272 O274 1.267 . S
O273 C272 1.228 . S
O274 Zn261 1.969 . S
O274 C272 1.267 . S
O275 Zn261 1.965 . S
O275 C279 1.260 . S
O276 Zn260 1.969 . S
O276 C279 1.258 . S
O277 Zn261 2.024 . S
O277 C264 1.058 . S
C278 O267 1.260 . S
C278 O268 1.258 . S
C279 O275 1.260 . S
C279 O276 1.258 . S
Zn280 O286 1.969 . S
Zn280 O287 1.965 . S
Zn280 O291 2.024 . S
Zn280 O296 1.969 . S
Zn281 O288 1.969 . S
Zn281 O294 1.969 . S
Zn281 O295 1.965 . S
Zn281 O297 2.024 . S
C282 O283 1.229 . S
C282 O291 1.058 . S
O283 C282 1.229 . S
C284 O285 1.229 . S
C284 O297 1.058 . S
O285 C284 1.229 . S
O286 Zn280 1.969 . S
O286 C289 1.267 . S
O287 Zn280 1.965 . S
O287 C298 1.260 . S
O288 Zn281 1.969 . S
O288 C298 1.258 . S
C289 O286 1.267 . S
C289 O290 1.228 . S
O290 C289 1.228 . S
O291 Zn280 2.024 . S
O291 C282 1.058 . S
C292 O293 1.228 . S
C292 O294 1.267 . S
O293 C292 1.228 . S
O294 Zn281 1.969 . S
O294 C292 1.267 . S
O295 Zn281 1.965 . S
O295 C299 1.260 . S
O296 Zn280 1.969 . S
O296 C299 1.258 . S
O297 Zn281 2.024 . S
O297 C284 1.058 . S
C298 O287 1.260 . S
C298 O288 1.258 . S
C299 O295 1.260 . S
C299 O296 1.258 . S
Zn300 O306 1.969 . S
Zn300 O307 1.965 . S
Zn300 O311 2.024 . S
Zn300 O316 1.969 . S
Zn301 O308 1.969 . S
Zn301 O314 1.969 . S
Zn301 O315 1.965 . S
Zn301 O317 2.024 . S
C302 O303 1.229 . S
C302 O311 1.058 . S
O303 C302 1.229 . S
C304 O305 1.229 . S
C304 O317 1.058 . S
O305 C304 1.229 . S
O306 Zn300 1.969 . S
O306 C309 1.267 . S
O307 Zn300 1.965 . S
O307 C318 1.260 . S
O308 Zn301 1.969 . S
O308 C318 1.258 . S
C309 O306 1.267 . S
C309 O310 1.228 . S
O310 C309 1.228 . S
O311 Zn300 2.024 . S
O311 C302 1.058 . S
C312 O313 1.228 . S
C312 O314 1.267 . S
O313 C312 1.228 . S
O314 Zn301 1.969 . S
O314 C312 1.267 . S
O315 Zn301 1.965 . S
O315 C319 1.260 . S
O316 Zn300 1.969 . S
O316 C319 1.258 . S
O317 Zn301 2.024 . S
O317 C304 1.058 . S
C318 O307 1.260 . S
C318 O308 1.258 . S
C319 O315 1.260 . S
C319 O316 1.258 . S
Zn320 O326 1.969 . S
Zn320 O327 1.965 . S
Zn320 O331 2.024 . S
Zn320 O336 1.969 . S
Zn321 O328 1.969 . S
Zn321 O334 1.969 . S
Zn321 O335 1.965 . S
Zn321 O337 2.024 . S
C322 O323 1.229 . S
C322 O331 1.058 . S
O323 C322 1.229 . S
C324 O325 1.229 . S
C324 O337 1.058 . S
O325 C324 1.229 . S
O326 Zn320 1.969 . S
O326 C329 1.267 . S
O327 Zn320 1.965 . S
O327 C338 1.260 . S
O328 Zn321 1.969 . S
O328 C338 1.258 . S
C329 O326 1.267 . S
C329 O330 1.228 . S
O330 C329 1.228 . S
O331 Zn320 2.024 . S
O331 C322 1.058 . S
C332 O333 1.228 . S
C332 O334 1.267 . S
O333 C332 1.228 . S
O334 Zn321 1.969 . S
O334 C332 1.267 . S
O335 Zn321 1.965 . S
O335 C339 1.260 . S
O336 Zn320 1.969 . S
O336 C339 1.258 . S
O337 Zn321 2.024 . S
O337 C324 1.058 . S
C338 O327 1.260 . S
C338 O328 1.258 . S
C339 O335 1.260 . S
C339 O336 1.258 . S
Zn340 O346 1.969 . S
Zn340 O347 1.965 . S
Zn340 O351 2.024 . S
Zn340 O356 1.969 . S
Zn341 O348 1.969 . S
Zn341 O354 1.969 . S
Zn341 O355 1.965 . S
Zn341 O357 2.024 . S
C342 O343 1.229 . S
C342 O351 1.058 . S
O343 C342 1.229 . S
C344 O345 1.229 . S
C344 O357 1.058 . S
O345 C344 1.229 . S
O346 Zn340 1.969 . S
O346 C349 1.267 . S
O347 Zn340 1.965 . S
O347 C358 1.260 . S
O348 Zn341 1.969 . S
O348 C358 1.258 . S
C349 O346 1.267 . S
C349 O350 1.228 . S
O350 C349 1.228 . S
O351 Zn340 2.024 . S
O351 C342 1.058 . S
C352 O353 1.228 . S
C352 O354 1.267 . S
O353 C352 1.228 . S
O354 Zn341 1.969 . S
O354 C352 1.267 . S
O355 Zn341 1.965 . S
O355 C359 1.260 . S
O356 Zn340 1.969 . S
O356 C359 1.258 . S
O357 Zn341 2.024 . S
O357 C344 1.058 . S
C358 O347 1.260 . S
C358 O348 1.258 . S
C359 O355 1.260 . S
C359 O356 1.258 . S
H360 C368 0.929 . S
H361 C370 0.930 . S
H362 C372 0.930 . S
H363 C375 0.929 . S
H364 C378 0.930 . S
H365 C380 0.960 . S
H366 C380 0.960 . S
H367 C380 0.960 . S
C368 H360 0.929 . S
C368 C369 1.377 . S
C368 C370 1.384 . S
C369 C368 1.377 . S
C369 C375 1.390 . S
C370 H361 0.930 . S
C370 C368 1.384 . S
C370 C371 1.372 . S
C371 C370 1.372 . S
C371 C372 1.400 . S
C371 C376 1.490 . S
C372 H362 0.930 . S
C372 C371 1.400 . S
C372 C375 1.386 . S
H373 C389 0.930 . S
H374 C390 0.931 . S
C375 H363 0.929 . S
C375 C369 1.390 . S
C375 C372 1.386 . S
C376 C371 1.490 . S
C376 C378 1.395 . S
C376 C379 1.403 . S
H377 C383 0.930 . S
C378 H364 0.930 . S
C378 C376 1.395 . S
C378 C381 1.403 . S
C379 C376 1.403 . S
C379 C380 1.524 . S
C379 C383 1.400 . S
C380 H365 0.960 . S
C380 H366 0.960 . S
C380 H367 0.960 . S
C380 C379 1.524 . S
C381 C378 1.403 . S
C381 C382 1.392 . S
C381 C385 1.495 . S
C382 C381 1.392 . S
C382 C383 1.385 . S
C382 C384 1.478 . S
C383 H377 0.930 . S
C383 C379 1.400 . S
C383 C382 1.385 . S
C384 C382 1.478 . S
C384 C386 1.381 . S
C384 C390 1.383 . S
C385 C381 1.495 . S
C385 H391 0.959 . S
C385 H392 0.961 . S
C385 H393 0.960 . S
C386 C384 1.381 . S
C386 C387 1.394 . S
C386 H394 0.930 . S
C387 C386 1.394 . S
C387 C388 1.383 . S
C387 H395 0.929 . S
C388 C387 1.383 . S
C388 C389 1.377 . S
C389 H373 0.930 . S
C389 C388 1.377 . S
C389 C390 1.379 . S
C390 H374 0.931 . S
C390 C384 1.383 . S
C390 C389 1.379 . S
H391 C385 0.959 . S
H392 C385 0.961 . S
H393 C385 0.960 . S
H394 C386 0.930 . S
H395 C387 0.929 . S
H396 C404 0.929 . S
H397 C406 0.930 . S
H398 C408 0.930 . S
H399 C411 0.929 . S
H400 C414 0.930 . S
H401 C416 0.960 . S
H402 C416 0.960 . S
H403 C416 0.960 . S
C404 H396 0.929 . S
C404 C405 1.377 . S
C404 C406 1.384 . S
C405 C404 1.377 . S
C405 C411 1.390 . S
C406 H397 0.930 . S
C406 C404 1.384 . S
C406 C407 1.372 . S
C407 C406 1.372 . S
C407 C408 1.400 . S
C407 C412 1.490 . S
C408 H398 0.930 . S
C408 C407 1.400 . S
C408 C411 1.386 . S
H409 C425 0.930 . S
H410 C426 0.931 . S
C411 H399 0.929 . S
C411 C405 1.390 . S
C411 C408 1.386 . S
C412 C407 1.490 . S
C412 C414 1.395 . S
C412 C415 1.403 . S
H413 C419 0.930 . S
C414 H400 0.930 . S
C414 C412 1.395 . S
C414 C417 1.403 . S
C415 C412 1.403 . S
C415 C416 1.524 . S
C415 C419 1.400 . S
C416 H401 0.960 . S
C416 H402 0.960 . S
C416 H403 0.960 . S
C416 C415 1.524 . S
C417 C414 1.403 . S
C417 C418 1.392 . S
C417 C421 1.495 . S
C418 C417 1.392 . S
C418 C419 1.385 . S
C418 C420 1.478 . S
C419 H413 0.930 . S
C419 C415 1.400 . S
C419 C418 1.385 . S
C420 C418 1.478 . S
C420 C422 1.381 . S
C420 C426 1.383 . S
C421 C417 1.495 . S
C421 H427 0.959 . S
C421 H428 0.961 . S
C421 H429 0.960 . S
C422 C420 1.381 . S
C422 C423 1.394 . S
C422 H430 0.930 . S
C423 C422 1.394 . S
C423 C424 1.383 . S
C423 H431 0.929 . S
C424 C423 1.383 . S
C424 C425 1.377 . S
C425 H409 0.930 . S
C425 C424 1.377 . S
C425 C426 1.379 . S
C426 H410 0.931 . S
C426 C420 1.383 . S
C426 C425 1.379 . S
H427 C421 0.959 . S
H428 C421 0.961 . S
H429 C421 0.960 . S
H430 C422 0.930 . S
H431 C423 0.929 . S
H432 C440 0.929 . S
H433 C442 0.930 . S
H434 C444 0.930 . S
H435 C447 0.929 . S
H436 C450 0.930 . S
H437 C452 0.960 . S
H438 C452 0.960 . S
H439 C452 0.960 . S
C440 H432 0.929 . S
C440 C441 1.377 . S
C440 C442 1.384 . S
C441 C440 1.377 . S
C441 C447 1.390 . S
C442 H433 0.930 . S
C442 C440 1.384 . S
C442 C443 1.372 . S
C443 C442 1.372 . S
C443 C444 1.400 . S
C443 C448 1.490 . S
C444 H434 0.930 . S
C444 C443 1.400 . S
C444 C447 1.386 . S
H445 C461 0.930 . S
H446 C462 0.931 . S
C447 H435 0.929 . S
C447 C441 1.390 . S
C447 C444 1.386 . S
C448 C443 1.490 . S
C448 C450 1.395 . S
C448 C451 1.403 . S
H449 C455 0.930 . S
C450 H436 0.930 . S
C450 C448 1.395 . S
C450 C453 1.403 . S
C451 C448 1.403 . S
C451 C452 1.524 . S
C451 C455 1.400 . S
C452 H437 0.960 . S
C452 H438 0.960 . S
C452 H439 0.960 . S
C452 C451 1.524 . S
C453 C450 1.403 . S
C453 C454 1.392 . S
C453 C457 1.495 . S
C454 C453 1.392 . S
C454 C455 1.385 . S
C454 C456 1.478 . S
C455 H449 0.930 . S
C455 C451 1.400 . S
C455 C454 1.385 . S
C456 C454 1.478 . S
C456 C458 1.381 . S
C456 C462 1.383 . S
C457 C453 1.495 . S
C457 H463 0.959 . S
C457 H464 0.961 . S
C457 H465 0.960 . S
C458 C456 1.381 . S
C458 C459 1.394 . S
C458 H466 0.930 . S
C459 C458 1.394 . S
C459 C460 1.383 . S
C459 H467 0.929 . S
C460 C459 1.383 . S
C460 C461 1.377 . S
C461 H445 0.930 . S
C461 C460 1.377 . S
C461 C462 1.379 . S
C462 H446 0.931 . S
C462 C456 1.383 . S
C462 C461 1.379 . S
H463 C457 0.959 . S
H464 C457 0.961 . S
H465 C457 0.960 . S
H466 C458 0.930 . S
H467 C459 0.929 . S
H468 C476 0.929 . S
H469 C478 0.930 . S
H470 C480 0.930 . S
H471 C483 0.929 . S
H472 C486 0.930 . S
H473 C488 0.960 . S
H474 C488 0.960 . S
H475 C488 0.960 . S
C476 H468 0.929 . S
C476 C477 1.377 . S
C476 C478 1.384 . S
C477 C476 1.377 . S
C477 C483 1.390 . S
C478 H469 0.930 . S
C478 C476 1.384 . S
C478 C479 1.372 . S
C479 C478 1.372 . S
C479 C480 1.400 . S
C479 C484 1.490 . S
C480 H470 0.930 . S
C480 C479 1.400 . S
C480 C483 1.386 . S
H481 C497 0.930 . S
H482 C498 0.931 . S
C483 H471 0.929 . S
C483 C477 1.390 . S
C483 C480 1.386 . S
C484 C479 1.490 . S
C484 C486 1.395 . S
C484 C487 1.403 . S
H485 C491 0.930 . S
C486 H472 0.930 . S
C486 C484 1.395 . S
C486 C489 1.403 . S
C487 C484 1.403 . S
C487 C488 1.524 . S
C487 C491 1.400 . S
C488 H473 0.960 . S
C488 H474 0.960 . S
C488 H475 0.960 . S
C488 C487 1.524 . S
C489 C486 1.403 . S
C489 C490 1.392 . S
C489 C493 1.495 . S
C490 C489 1.392 . S
C490 C491 1.385 . S
C490 C492 1.478 . S
C491 H485 0.930 . S
C491 C487 1.400 . S
C491 C490 1.385 . S
C492 C490 1.478 . S
C492 C494 1.381 . S
C492 C498 1.383 . S
C493 C489 1.495 . S
C493 H499 0.959 . S
C493 H500 0.961 . S
C493 H501 0.960 . S
C494 C492 1.381 . S
C494 C495 1.394 . S
C494 H502 0.930 . S
C495 C494 1.394 . S
C495 C496 1.383 . S
C495 H503 0.929 . S
C496 C495 1.383 . S
C496 C497 1.377 . S
C497 H481 0.930 . S
C497 C496 1.377 . S
C497 C498 1.379 . S
C498 H482 0.931 . S
C498 C492 1.383 . S
C498 C497 1.379 . S
H499 C493 0.959 . S
H500 C493 0.961 . S
H501 C493 0.960 . S
H502 C494 0.930 . S
H503 C495 0.929 . S
H504 C512 0.929 . S
H505 C514 0.930 . S
H506 C516 0.930 . S
H507 C519 0.929 . S
H508 C522 0.930 . S
H509 C524 0.960 . S
H510 C524 0.960 . S
H511 C524 0.960 . S
C512 H504 0.929 . S
C512 C513 1.377 . S
C512 C514 1.384 . S
C513 C512 1.377 . S
C513 C519 1.390 . S
C514 H505 0.930 . S
C514 C512 1.384 . S
C514 C515 1.372 . S
C515 C514 1.372 . S
C515 C516 1.400 . S
C515 C520 1.490 . S
C516 H506 0.930 . S
C516 C515 1.400 . S
C516 C519 1.386 . S
H517 C533 0.930 . S
H518 C534 0.931 . S
C519 H507 0.929 . S
C519 C513 1.390 . S
C519 C516 1.386 . S
C520 C515 1.490 . S
C520 C522 1.395 . S
C520 C523 1.403 . S
H521 C527 0.930 . S
C522 H508 0.930 . S
C522 C520 1.395 . S
C522 C525 1.403 . S
C523 C520 1.403 . S
C523 C524 1.524 . S
C523 C527 1.400 . S
C524 H509 0.960 . S
C524 H510 0.960 . S
C524 H511 0.960 . S
C524 C523 1.524 . S
C525 C522 1.403 . S
C525 C526 1.392 . S
C525 C529 1.495 . S
C526 C525 1.392 . S
C526 C527 1.385 . S
C526 C528 1.478 . S
C527 H521 0.930 . S
C527 C523 1.400 . S
C527 C526 1.385 . S
C528 C526 1.478 . S
C528 C530 1.381 . S
C528 C534 1.383 . S
C529 C525 1.495 . S
C529 H535 0.959 . S
C529 H536 0.961 . S
C529 H537 0.960 . S
C530 C528 1.381 . S
C530 C531 1.394 . S
C530 H538 0.930 . S
C531 C530 1.394 . S
C531 C532 1.383 . S
C531 H539 0.929 . S
C532 C531 1.383 . S
C532 C533 1.377 . S
C533 H517 0.930 . S
C533 C532 1.377 . S
C533 C534 1.379 . S
C534 H518 0.931 . S
C534 C528 1.383 . S
C534 C533 1.379 . S
H535 C529 0.959 . S
H536 C529 0.961 . S
H537 C529 0.960 . S
H538 C530 0.930 . S
H539 C531 0.929 . S
H540 C548 0.929 . S
H541 C550 0.930 . S
H542 C552 0.930 . S
H543 C555 0.929 . S
H544 C558 0.930 . S
H545 C560 0.960 . S
H546 C560 0.960 . S
H547 C560 0.960 . S
C548 H540 0.929 . S
C548 C549 1.377 . S
C548 C550 1.384 . S
C549 C548 1.377 . S
C549 C555 1.390 . S
C550 H541 0.930 . S
C550 C548 1.384 . S
C550 C551 1.372 . S
C551 C550 1.372 . S
C551 C552 1.400 . S
C551 C556 1.490 . S
C552 H542 0.930 . S
C552 C551 1.400 . S
C552 C555 1.386 . S
H553 C569 0.930 . S
H554 C570 0.931 . S
C555 H543 0.929 . S
C555 C549 1.390 . S
C555 C552 1.386 . S
C556 C551 1.490 . S
C556 C558 1.395 . S
C556 C559 1.403 . S
H557 C563 0.930 . S
C558 H544 0.930 . S
C558 C556 1.395 . S
C558 C561 1.403 . S
C559 C556 1.403 . S
C559 C560 1.524 . S
C559 C563 1.400 . S
C560 H545 0.960 . S
C560 H546 0.960 . S
C560 H547 0.960 . S
C560 C559 1.524 . S
C561 C558 1.403 . S
C561 C562 1.392 . S
C561 C565 1.495 . S
C562 C561 1.392 . S
C562 C563 1.385 . S
C562 C564 1.478 . S
C563 H557 0.930 . S
C563 C559 1.400 . S
C563 C562 1.385 . S
C564 C562 1.478 . S
C564 C566 1.381 . S
C564 C570 1.383 . S
C565 C561 1.495 . S
C565 H571 0.959 . S
C565 H572 0.961 . S
C565 H573 0.960 . S
C566 C564 1.381 . S
C566 C567 1.394 . S
C566 H574 0.930 . S
C567 C566 1.394 . S
C567 C568 1.383 . S
C567 H575 0.929 . S
C568 C567 1.383 . S
C568 C569 1.377 . S
C569 H553 0.930 . S
C569 C568 1.377 . S
C569 C570 1.379 . S
C570 H554 0.931 . S
C570 C564 1.383 . S
C570 C569 1.379 . S
H571 C565 0.959 . S
H572 C565 0.961 . S
H573 C565 0.960 . S
H574 C566 0.930 . S
H575 C567 0.929 . S
H576 C584 0.929 . S
H577 C586 0.930 . S
H578 C588 0.930 . S
H579 C591 0.929 1_565 S
H580 C594 0.930 . S
H581 C596 0.960 . S
H582 C596 0.960 . S
H583 C596 0.960 . S
C584 H576 0.929 . S
C584 C585 1.377 1_545 S
C584 C586 1.384 . S
C585 C584 1.377 1_565 S
C585 C591 1.390 1_565 S
C586 H577 0.930 . S
C586 C584 1.384 . S
C586 C587 1.372 . S
C587 C586 1.372 . S
C587 C588 1.400 . S
C587 C592 1.490 . S
C588 H578 0.930 . S
C588 C587 1.400 . S
C588 C591 1.386 . S
H589 C605 0.930 . S
H590 C606 0.931 . S
C591 H579 0.929 1_545 S
C591 C585 1.390 1_545 S
C591 C588 1.386 . S
C592 C587 1.490 . S
C592 C594 1.395 . S
C592 C595 1.403 . S
H593 C599 0.930 . S
C594 H580 0.930 . S
C594 C592 1.395 . S
C594 C597 1.403 . S
C595 C592 1.403 . S
C595 C596 1.524 . S
C595 C599 1.400 . S
C596 H581 0.960 . S
C596 H582 0.960 . S
C596 H583 0.960 . S
C596 C595 1.524 . S
C597 C594 1.403 . S
C597 C598 1.392 . S
C597 C601 1.495 . S
C598 C597 1.392 . S
C598 C599 1.385 . S
C598 C600 1.478 . S
C599 H593 0.930 . S
C599 C595 1.400 . S
C599 C598 1.385 . S
C600 C598 1.478 . S
C600 C602 1.381 . S
C600 C606 1.383 . S
C601 C597 1.495 . S
C601 H607 0.959 . S
C601 H608 0.961 . S
C601 H609 0.960 . S
C602 C600 1.381 . S
C602 C603 1.394 . S
C602 H610 0.930 . S
C603 C602 1.394 . S
C603 C604 1.383 . S
C603 H611 0.929 . S
C604 C603 1.383 . S
C604 C605 1.377 . S
C605 H589 0.930 . S
C605 C604 1.377 . S
C605 C606 1.379 . S
C606 H590 0.931 . S
C606 C600 1.383 . S
C606 C605 1.379 . S
H607 C601 0.959 . S
H608 C601 0.961 . S
H609 C601 0.960 . S
H610 C602 0.930 . S
H611 C603 0.929 . S
H612 C620 0.929 . S
H613 C622 0.930 . S
H614 C624 0.941 1_655 S
H615 C627 0.929 . S
H616 C630 0.930 . S
H617 C632 0.960 . S
H618 C632 0.960 . S
H619 C632 0.960 . S
C620 H612 0.929 . S
C620 C621 1.377 . S
C620 C622 1.384 1_455 S
C621 C620 1.377 . S
C621 C627 1.390 . S
C622 H613 0.930 . S
C622 C620 1.384 1_655 S
C622 C623 1.372 . S
C623 C622 1.372 . S
C623 C624 1.381 1_655 S
C623 C628 1.490 . S
C624 H614 0.941 1_455 S
C624 C623 1.381 1_455 S
C624 C627 1.395 . S
H625 C641 0.930 . S
H626 C642 0.931 . S
C627 H615 0.929 . S
C627 C621 1.390 . S
C627 C624 1.395 . S
C628 C623 1.490 . S
C628 C630 1.395 . S
C628 C631 1.403 . S
H629 C635 0.930 . S
C630 H616 0.930 . S
C630 C628 1.395 . S
C630 C633 1.403 . S
C631 C628 1.403 . S
C631 C632 1.524 . S
C631 C635 1.400 . S
C632 H617 0.960 . S
C632 H618 0.960 . S
C632 H619 0.960 . S
C632 C631 1.524 . S
C633 C630 1.403 . S
C633 C634 1.392 . S
C633 C637 1.495 . S
C634 C633 1.392 . S
C634 C635 1.385 . S
C634 C636 1.478 . S
C635 H629 0.930 . S
C635 C631 1.400 . S
C635 C634 1.385 . S
C636 C634 1.478 . S
C636 C638 1.381 . S
C636 C642 1.383 1_545 S
C637 C633 1.495 . S
C637 H643 0.959 . S
C637 H644 0.961 . S
C637 H645 0.960 . S
C638 C636 1.381 . S
C638 C639 1.394 1_545 S
C638 H646 0.930 . S
C639 C638 1.394 1_565 S
C639 C640 1.383 . S
C639 H647 0.929 . S
C640 C639 1.383 . S
C640 C641 1.377 . S
C641 H625 0.930 . S
C641 C640 1.377 . S
C641 C642 1.379 . S
C642 H626 0.931 . S
C642 C636 1.383 1_565 S
C642 C641 1.379 . S
H643 C637 0.959 . S
H644 C637 0.961 . S
H645 C637 0.960 . S
H646 C638 0.930 . S
H647 C639 0.929 . S
H648 C656 0.929 . S
H649 C658 0.930 . S
H650 C660 0.930 . S
H651 C663 0.929 . S
H652 C666 0.932 . S
H653 C668 0.960 . S
H654 C668 0.960 . S
H655 C668 0.960 . S
C656 H648 0.929 . S
C656 C657 1.377 . S
C656 C658 1.384 . S
C657 C656 1.377 . S
C657 C663 1.390 . S
C658 H649 0.930 . S
C658 C656 1.384 . S
C658 C659 1.372 . S
C659 C658 1.372 . S
C659 C660 1.400 . S
C659 C664 1.490 1_455 S
C660 H650 0.930 . S
C660 C659 1.400 . S
C660 C663 1.386 . S
H661 C677 0.930 . S
H662 C678 0.931 . S
C663 H651 0.929 . S
C663 C657 1.390 . S
C663 C660 1.386 . S
C664 C659 1.490 1_655 S
C664 C666 1.395 . S
C664 C667 1.403 . S
H665 C671 0.930 . S
C666 H652 0.932 . S
C666 C664 1.395 . S
C666 C669 1.403 . S
C667 C664 1.403 . S
C667 C668 1.524 . S
C667 C671 1.400 . S
C668 H653 0.960 . S
C668 H654 0.960 . S
C668 H655 0.960 . S
C668 C667 1.524 . S
C669 C666 1.403 . S
C669 C670 1.392 . S
C669 C673 1.495 . S
C670 C669 1.392 . S
C670 C671 1.385 . S
C670 C672 1.478 . S
C671 H665 0.930 . S
C671 C667 1.400 . S
C671 C670 1.385 . S
C672 C670 1.478 . S
C672 C674 1.381 . S
C672 C678 1.383 . S
C673 C669 1.495 . S
C673 H679 0.959 . S
C673 H680 0.961 . S
C673 H681 0.960 . S
C674 C672 1.381 . S
C674 C675 1.394 . S
C674 H682 0.930 . S
C675 C674 1.394 . S
C675 C676 1.383 . S
C675 H683 0.929 . S
C676 C675 1.383 . S
C676 C677 1.377 . S
C677 H661 0.930 . S
C677 C676 1.377 . S
C677 C678 1.379 . S
C678 H662 0.931 . S
C678 C672 1.383 . S
C678 C677 1.379 . S
H679 C673 0.959 . S
H680 C673 0.961 . S
H681 C673 0.960 . S
H682 C674 0.930 . S
H683 C675 0.929 . S
H684 C692 0.929 . S
H685 C694 0.930 . S
H686 C696 0.930 . S
H687 C699 0.929 . S
H688 C702 0.930 . S
H689 C704 0.960 . S
H690 C704 0.960 . S
H691 C704 0.960 . S
C692 H684 0.929 . S
C692 C693 1.377 . S
C692 C694 1.384 . S
C693 C692 1.377 . S
C693 C699 1.390 . S
C694 H685 0.930 . S
C694 C692 1.384 . S
C694 C695 1.372 . S
C695 C694 1.372 . S
C695 C696 1.400 . S
C695 C700 1.490 . S
C696 H686 0.930 . S
C696 C695 1.400 . S
C696 C699 1.386 . S
H697 C713 0.930 . S
H698 C714 0.931 . S
C699 H687 0.929 . S
C699 C693 1.390 . S
C699 C696 1.386 . S
C700 C695 1.490 . S
C700 C702 1.395 . S
C700 C703 1.403 . S
H701 C707 0.930 . S
C702 H688 0.930 . S
C702 C700 1.395 . S
C702 C705 1.403 . S
C703 C700 1.403 . S
C703 C704 1.524 . S
C703 C707 1.400 . S
C704 H689 0.960 . S
C704 H690 0.960 . S
C704 H691 0.960 . S
C704 C703 1.524 . S
C705 C702 1.403 . S
C705 C706 1.392 . S
C705 C709 1.495 . S
C706 C705 1.392 . S
C706 C707 1.385 . S
C706 C708 1.478 . S
C707 H701 0.930 . S
C707 C703 1.400 . S
C707 C706 1.385 . S
C708 C706 1.478 . S
C708 C710 1.381 . S
C708 C714 1.383 . S
C709 C705 1.495 . S
C709 H715 0.959 . S
C709 H716 0.961 . S
C709 H717 0.960 . S
C710 C708 1.381 . S
C710 C711 1.394 . S
C710 H718 0.930 . S
C711 C710 1.394 . S
C711 C712 1.383 . S
C711 H719 0.929 . S
C712 C711 1.383 . S
C712 C713 1.377 . S
C713 H697 0.930 . S
C713 C712 1.377 . S
C713 C714 1.379 . S
C714 H698 0.931 . S
C714 C708 1.383 . S
C714 C713 1.379 . S
H715 C709 0.959 . S
H716 C709 0.961 . S
H717 C709 0.960 . S
H718 C710 0.930 . S
H719 C711 0.929 . S
H720 C728 0.929 . S
H721 C730 0.930 . S
H722 C732 0.930 . S
H723 C735 0.929 . S
H724 C738 0.930 . S
H725 C740 0.960 . S
H726 C740 0.960 . S
H727 C740 0.960 . S
C728 H720 0.929 . S
C728 C729 1.377 . S
C728 C730 1.384 . S
C729 C728 1.377 . S
C729 C735 1.390 . S
C730 H721 0.930 . S
C730 C728 1.384 . S
C730 C731 1.372 . S
C731 C730 1.372 . S
C731 C732 1.400 . S
C731 C736 1.490 . S
C732 H722 0.930 . S
C732 C731 1.400 . S
C732 C735 1.386 . S
H733 C749 0.930 . S
H734 C750 0.931 . S
C735 H723 0.929 . S
C735 C729 1.390 . S
C735 C732 1.386 . S
C736 C731 1.490 . S
C736 C738 1.395 . S
C736 C739 1.403 . S
H737 C743 0.930 . S
C738 H724 0.930 . S
C738 C736 1.395 . S
C738 C741 1.403 . S
C739 C736 1.403 . S
C739 C740 1.524 . S
C739 C743 1.400 . S
C740 H725 0.960 . S
C740 H726 0.960 . S
C740 H727 0.960 . S
C740 C739 1.524 . S
C741 C738 1.403 . S
C741 C742 1.392 . S
C741 C745 1.495 . S
C742 C741 1.392 . S
C742 C743 1.385 . S
C742 C744 1.478 . S
C743 H737 0.930 . S
C743 C739 1.400 . S
C743 C742 1.385 . S
C744 C742 1.478 . S
C744 C746 1.381 . S
C744 C750 1.383 . S
C745 C741 1.495 . S
C745 H751 0.959 . S
C745 H752 0.961 . S
C745 H753 0.960 . S
C746 C744 1.381 . S
C746 C747 1.394 . S
C746 H754 0.930 . S
C747 C746 1.394 . S
C747 C748 1.383 . S
C747 H755 0.929 . S
C748 C747 1.383 . S
C748 C749 1.377 . S
C749 H733 0.930 . S
C749 C748 1.377 . S
C749 C750 1.379 . S
C750 H734 0.931 . S
C750 C744 1.383 . S
C750 C749 1.379 . S
H751 C745 0.959 . S
H752 C745 0.961 . S
H753 C745 0.960 . S
H754 C746 0.930 . S
H755 C747 0.929 . S
H756 C764 0.929 . S
H757 C766 0.930 . S
H758 C768 0.930 . S
H759 C771 0.929 . S
H760 C774 0.930 . S
H761 C776 0.960 . S
H762 C776 0.960 . S
H763 C776 0.960 . S
C764 H756 0.929 . S
C764 C765 1.377 . S
C764 C766 1.384 . S
C765 C764 1.377 . S
C765 C771 1.390 . S
C766 H757 0.930 . S
C766 C764 1.384 . S
C766 C767 1.372 . S
C767 C766 1.372 . S
C767 C768 1.400 . S
C767 C772 1.490 . S
C768 H758 0.930 . S
C768 C767 1.400 . S
C768 C771 1.386 . S
H769 C785 0.930 . S
H770 C786 0.931 . S
C771 H759 0.929 . S
C771 C765 1.390 . S
C771 C768 1.386 . S
C772 C767 1.490 . S
C772 C774 1.395 . S
C772 C775 1.403 . S
H773 C779 0.930 . S
C774 H760 0.930 . S
C774 C772 1.395 . S
C774 C777 1.403 . S
C775 C772 1.403 . S
C775 C776 1.524 . S
C775 C779 1.400 . S
C776 H761 0.960 . S
C776 H762 0.960 . S
C776 H763 0.960 . S
C776 C775 1.524 . S
C777 C774 1.403 . S
C777 C778 1.392 . S
C777 C781 1.495 . S
C778 C777 1.392 . S
C778 C779 1.385 . S
C778 C780 1.478 . S
C779 H773 0.930 . S
C779 C775 1.400 . S
C779 C778 1.385 . S
C780 C778 1.478 . S
C780 C782 1.381 . S
C780 C786 1.383 . S
C781 C777 1.495 . S
C781 H787 0.959 . S
C781 H788 0.961 . S
C781 H789 0.960 . S
C782 C780 1.381 . S
C782 C783 1.394 . S
C782 H790 0.930 . S
C783 C782 1.394 . S
C783 C784 1.383 . S
C783 H791 0.929 . S
C784 C783 1.383 . S
C784 C785 1.377 . S
C785 H769 0.930 . S
C785 C784 1.377 . S
C785 C786 1.379 . S
C786 H770 0.931 . S
C786 C780 1.383 . S
C786 C785 1.379 . S
H787 C781 0.959 . S
H788 C781 0.961 . S
H789 C781 0.960 . S
H790 C782 0.930 . S
H791 C783 0.929 . S
H792 C800 0.929 . S
H793 C802 0.930 . S
H794 C804 0.930 . S
H795 C807 0.929 . S
H796 C810 0.930 . S
H797 C812 0.960 . S
H798 C812 0.960 . S
H799 C812 0.960 . S
C800 H792 0.929 . S
C800 C801 1.377 . S
C800 C802 1.384 . S
C801 C800 1.377 . S
C801 C807 1.390 . S
C802 H793 0.930 . S
C802 C800 1.384 . S
C802 C803 1.372 . S
C803 C802 1.372 . S
C803 C804 1.400 . S
C803 C808 1.490 . S
C804 H794 0.930 . S
C804 C803 1.400 . S
C804 C807 1.386 . S
H805 C821 0.930 . S
H806 C822 0.931 . S
C807 H795 0.929 . S
C807 C801 1.390 . S
C807 C804 1.386 . S
C808 C803 1.490 . S
C808 C810 1.395 . S
C808 C811 1.403 . S
H809 C815 0.930 . S
C810 H796 0.930 . S
C810 C808 1.395 . S
C810 C813 1.403 . S
C811 C808 1.403 . S
C811 C812 1.524 . S
C811 C815 1.400 . S
C812 H797 0.960 . S
C812 H798 0.960 . S
C812 H799 0.960 . S
C812 C811 1.524 . S
C813 C810 1.403 . S
C813 C814 1.392 . S
C813 C817 1.495 . S
C814 C813 1.392 . S
C814 C815 1.385 . S
C814 C816 1.478 . S
C815 H809 0.930 . S
C815 C811 1.400 . S
C815 C814 1.385 . S
C816 C814 1.478 . S
C816 C818 1.381 . S
C816 C822 1.383 . S
C817 C813 1.495 . S
C817 H823 0.959 . S
C817 H824 0.961 . S
C817 H825 0.960 . S
C818 C816 1.381 . S
C818 C819 1.394 . S
C818 H826 0.930 . S
C819 C818 1.394 . S
C819 C820 1.383 . S
C819 H827 0.929 . S
C820 C819 1.383 . S
C820 C821 1.377 . S
C821 H805 0.930 . S
C821 C820 1.377 . S
C821 C822 1.379 . S
C822 H806 0.931 . S
C822 C816 1.383 . S
C822 C821 1.379 . S
H823 C817 0.959 . S
H824 C817 0.961 . S
H825 C817 0.960 . S
H826 C818 0.930 . S
H827 C819 0.929 . S
H828 C836 0.929 . S
H829 C838 0.930 . S
H830 C840 0.930 . S
H831 C843 0.929 . S
H832 C846 0.930 . S
H833 C848 0.960 . S
H834 C848 0.960 . S
H835 C848 0.960 . S
C836 H828 0.929 . S
C836 C837 1.377 . S
C836 C838 1.384 . S
C837 C836 1.377 . S
C837 C843 1.390 . S
C838 H829 0.930 . S
C838 C836 1.384 . S
C838 C839 1.372 . S
C839 C838 1.372 . S
C839 C840 1.400 . S
C839 C844 1.490 . S
C840 H830 0.930 . S
C840 C839 1.400 . S
C840 C843 1.386 . S
H841 C857 0.930 . S
H842 C858 0.931 . S
C843 H831 0.929 . S
C843 C837 1.390 . S
C843 C840 1.386 . S
C844 C839 1.490 . S
C844 C846 1.395 . S
C844 C847 1.403 . S
H845 C851 0.930 . S
C846 H832 0.930 . S
C846 C844 1.395 . S
C846 C849 1.403 . S
C847 C844 1.403 . S
C847 C848 1.524 . S
C847 C851 1.400 . S
C848 H833 0.960 . S
C848 H834 0.960 . S
C848 H835 0.960 . S
C848 C847 1.524 . S
C849 C846 1.403 . S
C849 C850 1.392 . S
C849 C853 1.495 . S
C850 C849 1.392 . S
C850 C851 1.385 . S
C850 C852 1.478 . S
C851 H845 0.930 . S
C851 C847 1.400 . S
C851 C850 1.385 . S
C852 C850 1.478 . S
C852 C854 1.381 . S
C852 C858 1.383 . S
C853 C849 1.495 . S
C853 H859 0.959 . S
C853 H860 0.961 . S
C853 H861 0.960 . S
C854 C852 1.381 . S
C854 C855 1.394 . S
C854 H862 0.930 . S
C855 C854 1.394 . S
C855 C856 1.383 . S
C855 H863 0.929 . S
C856 C855 1.383 . S
C856 C857 1.377 . S
C857 H841 0.930 . S
C857 C856 1.377 . S
C857 C858 1.379 . S
C858 H842 0.931 . S
C858 C852 1.383 . S
C858 C857 1.379 . S
H859 C853 0.959 . S
H860 C853 0.961 . S
H861 C853 0.960 . S
H862 C854 0.930 . S
H863 C855 0.929 . S
H864 C872 0.929 . S
H865 C874 0.930 . S
H866 C876 0.930 . S
H867 C879 0.929 . S
H868 C882 0.930 . S
H869 C884 0.960 . S
H870 C884 0.960 . S
H871 C884 0.960 . S
C872 H864 0.929 . S
C872 C873 1.377 . S
C872 C874 1.384 . S
C873 C872 1.377 . S
C873 C879 1.390 . S
C874 H865 0.930 . S
C874 C872 1.384 . S
C874 C875 1.372 . S
C875 C874 1.372 . S
C875 C876 1.400 . S
C875 C880 1.490 . S
C876 H866 0.930 . S
C876 C875 1.400 . S
C876 C879 1.386 . S
H877 C893 0.930 . S
H878 C894 0.931 . S
C879 H867 0.929 . S
C879 C873 1.390 . S
C879 C876 1.386 . S
C880 C875 1.490 . S
C880 C882 1.395 . S
C880 C883 1.403 . S
H881 C887 0.930 . S
C882 H868 0.930 . S
C882 C880 1.395 . S
C882 C885 1.403 . S
C883 C880 1.403 . S
C883 C884 1.524 . S
C883 C887 1.400 . S
C884 H869 0.960 . S
C884 H870 0.960 . S
C884 H871 0.960 . S
C884 C883 1.524 . S
C885 C882 1.403 . S
C885 C886 1.392 . S
C885 C889 1.495 . S
C886 C885 1.392 . S
C886 C887 1.385 . S
C886 C888 1.478 . S
C887 H881 0.930 . S
C887 C883 1.400 . S
C887 C886 1.385 . S
C888 C886 1.478 . S
C888 C890 1.381 . S
C888 C894 1.383 . S
C889 C885 1.495 . S
C889 H895 0.959 . S
C889 H896 0.961 . S
C889 H897 0.960 . S
C890 C888 1.381 . S
C890 C891 1.394 . S
C890 H898 0.930 . S
C891 C890 1.394 . S
C891 C892 1.383 . S
C891 H899 0.929 . S
C892 C891 1.383 . S
C892 C893 1.377 . S
C893 H877 0.930 . S
C893 C892 1.377 . S
C893 C894 1.379 . S
C894 H878 0.931 . S
C894 C888 1.383 . S
C894 C893 1.379 . S
H895 C889 0.959 . S
H896 C889 0.961 . S
H897 C889 0.960 . S
H898 C890 0.930 . S
H899 C891 0.929 . S
H900 C908 0.929 . S
H901 C910 0.930 . S
H902 C912 0.930 . S
H903 C915 0.929 1_655 S
H904 C918 0.930 . S
H905 C920 0.960 . S
H906 C920 0.960 . S
H907 C920 0.960 . S
C908 H900 0.929 . S
C908 C909 1.366 1_455 S
C908 C910 1.384 . S
C909 C908 1.366 1_655 S
C909 C915 1.382 1_655 S
C910 H901 0.930 . S
C910 C908 1.384 . S
C910 C911 1.372 . S
C911 C910 1.372 . S
C911 C912 1.400 . S
C911 C916 1.490 . S
C912 H902 0.930 . S
C912 C911 1.400 . S
C912 C915 1.386 . S
H913 C929 0.930 . S
H914 C930 0.931 . S
C915 H903 0.929 1_455 S
C915 C909 1.382 1_455 S
C915 C912 1.386 . S
C916 C911 1.490 . S
C916 C918 1.395 . S
C916 C919 1.403 . S
H917 C923 0.930 . S
C918 H904 0.930 . S
C918 C916 1.395 . S
C918 C921 1.403 . S
C919 C916 1.403 . S
C919 C920 1.524 . S
C919 C923 1.400 . S
C920 H905 0.960 . S
C920 H906 0.960 . S
C920 H907 0.960 . S
C920 C919 1.524 . S
C921 C918 1.403 . S
C921 C922 1.392 . S
C921 C925 1.495 . S
C922 C921 1.392 . S
C922 C923 1.385 . S
C922 C924 1.478 . S
C923 H917 0.930 . S
C923 C919 1.400 . S
C923 C922 1.385 . S
C924 C922 1.478 . S
C924 C926 1.381 . S
C924 C930 1.383 . S
C925 C921 1.495 . S
C925 H931 0.959 . S
C925 H932 0.961 . S
C925 H933 0.960 . S
C926 C924 1.381 . S
C926 C927 1.394 . S
C926 H934 0.930 . S
C927 C926 1.394 . S
C927 C928 1.383 . S
C927 H935 0.929 . S
C928 C927 1.383 . S
C928 C929 1.377 . S
C929 H913 0.930 . S
C929 C928 1.377 . S
C929 C930 1.379 . S
C930 H914 0.931 . S
C930 C924 1.383 . S
C930 C929 1.379 . S
H931 C925 0.959 . S
H932 C925 0.961 . S
H933 C925 0.960 . S
H934 C926 0.930 . S
H935 C927 0.929 . S
H936 C944 0.929 . S
H937 C946 0.930 . S
H938 C948 0.930 . S
H939 C951 0.929 . S
H940 C954 0.930 . S
H941 C956 0.960 . S
H942 C956 0.960 . S
H943 C956 0.960 . S
C944 H936 0.929 . S
C944 C945 1.377 . S
C944 C946 1.384 . S
C945 C944 1.377 . S
C945 C951 1.390 . S
C946 H937 0.930 . S
C946 C944 1.384 . S
C946 C947 1.372 . S
C947 C946 1.372 . S
C947 C948 1.400 . S
C947 C952 1.490 . S
C948 H938 0.930 . S
C948 C947 1.400 . S
C948 C951 1.386 . S
H949 C965 0.930 . S
H950 C966 0.931 . S
C951 H939 0.929 . S
C951 C945 1.390 . S
C951 C948 1.386 . S
C952 C947 1.490 . S
C952 C954 1.395 . S
C952 C955 1.403 . S
H953 C959 0.930 . S
C954 H940 0.930 . S
C954 C952 1.395 . S
C954 C957 1.403 . S
C955 C952 1.403 . S
C955 C956 1.524 . S
C955 C959 1.400 . S
C956 H941 0.960 . S
C956 H942 0.960 . S
C956 H943 0.960 . S
C956 C955 1.524 . S
C957 C954 1.403 . S
C957 C958 1.392 . S
C957 C961 1.493 1_565 S
C958 C957 1.392 . S
C958 C959 1.385 . S
C958 C960 1.478 1_565 S
C959 H953 0.930 . S
C959 C955 1.400 . S
C959 C958 1.385 . S
C960 C958 1.478 1_545 S
C960 C962 1.381 . S
C960 C966 1.383 . S
C961 C957 1.493 1_545 S
C961 H967 0.954 1_545 S
C961 H968 0.964 . S
C961 H969 0.964 . S
C962 C960 1.381 . S
C962 C963 1.394 . S
C962 H970 0.930 . S
C963 C962 1.394 . S
C963 C964 1.383 . S
C963 H971 0.929 . S
C964 C963 1.383 . S
C964 C965 1.377 . S
C965 H949 0.930 . S
C965 C964 1.377 . S
C965 C966 1.379 . S
C966 H950 0.931 . S
C966 C960 1.383 . S
C966 C965 1.379 . S
H967 C961 0.954 1_565 S
H968 C961 0.964 . S
H969 C961 0.964 . S
H970 C962 0.930 . S
H971 C963 0.929 . S
H972 C980 0.929 . S
H973 C982 0.930 . S
H974 C984 0.930 . S
H975 C987 0.929 . S
H976 C990 0.930 . S
H977 C992 0.960 . S
H978 C992 0.960 . S
H979 C992 0.960 . S
C980 H972 0.929 . S
C980 C981 1.377 . S
C980 C982 1.384 1_545 S
C981 C980 1.377 . S
C981 C987 1.390 . S
C982 H973 0.930 . S
C982 C980 1.384 1_565 S
C982 C983 1.372 . S
C983 C982 1.372 . S
C983 C984 1.400 . S
C983 C988 1.490 . S
C984 H974 0.930 . S
C984 C983 1.400 . S
C984 C987 1.386 1_565 S
H985 C1001 0.930 . S
H986 C1002 0.931 1_455 S
C987 H975 0.929 . S
C987 C981 1.390 . S
C987 C984 1.386 1_545 S
C988 C983 1.490 . S
C988 C990 1.395 . S
C988 C991 1.403 . S
H989 C995 0.930 . S
C990 H976 0.930 . S
C990 C988 1.395 . S
C990 C993 1.403 . S
C991 C988 1.403 . S
C991 C992 1.524 . S
C991 C995 1.400 . S
C992 H977 0.960 . S
C992 H978 0.960 . S
C992 H979 0.960 . S
C992 C991 1.524 . S
C993 C990 1.403 . S
C993 C994 1.392 . S
C993 C997 1.495 . S
C994 C993 1.392 . S
C994 C995 1.385 . S
C994 C996 1.478 . S
C995 H989 0.930 . S
C995 C991 1.400 . S
C995 C994 1.385 . S
C996 C994 1.478 . S
C996 C998 1.381 1_455 S
C996 C1002 1.383 1_455 S
C997 C993 1.495 . S
C997 H1003 0.959 . S
C997 H1004 0.961 . S
C997 H1005 0.960 . S
C998 C996 1.381 1_655 S
C998 C999 1.394 . S
C998 H1006 0.930 1_655 S
C999 C998 1.394 . S
C999 C1000 1.383 . S
C999 H1007 0.929 . S
C1000 C999 1.383 . S
C1000 C1001 1.377 . S
C1001 H985 0.930 . S
C1001 C1000 1.377 . S
C1001 C1002 1.379 . S
C1002 H986 0.931 1_655 S
C1002 C996 1.383 1_655 S
C1002 C1001 1.379 . S
H1003 C997 0.959 . S
H1004 C997 0.961 . S
H1005 C997 0.960 . S
H1006 C998 0.930 1_455 S
H1007 C999 0.929 . S
H1008 C1016 0.929 . S
H1009 C1018 0.930 . S
H1010 C1020 0.930 . S
H1011 C1023 0.929 . S
H1012 C1026 0.930 . S
H1013 C1028 0.960 . S
H1014 C1028 0.960 . S
H1015 C1028 0.960 . S
C1016 H1008 0.929 . S
C1016 C1017 1.377 . S
C1016 C1018 1.384 . S
C1017 C1016 1.377 . S
C1017 C1023 1.390 . S
C1018 H1009 0.930 . S
C1018 C1016 1.384 . S
C1018 C1019 1.372 . S
C1019 C1018 1.372 . S
C1019 C1020 1.400 . S
C1019 C1024 1.490 . S
C1020 H1010 0.930 . S
C1020 C1019 1.400 . S
C1020 C1023 1.386 . S
H1021 C1037 0.930 . S
H1022 C1038 0.931 . S
C1023 H1011 0.929 . S
C1023 C1017 1.390 . S
C1023 C1020 1.386 . S
C1024 C1019 1.490 . S
C1024 C1026 1.395 . S
C1024 C1027 1.403 1_545 S
H1025 C1031 0.930 . S
C1026 H1012 0.930 . S
C1026 C1024 1.395 . S
C1026 C1029 1.403 1_554 S
C1027 C1024 1.403 1_565 S
C1027 C1028 1.524 . S
C1027 C1031 1.400 1_554 S
C1028 H1013 0.960 . S
C1028 H1014 0.960 . S
C1028 H1015 0.960 . S
C1028 C1027 1.524 . S
C1029 C1026 1.403 1_556 S
C1029 C1030 1.392 . S
C1029 C1033 1.495 . S
C1030 C1029 1.392 . S
C1030 C1031 1.385 1_545 S
C1030 C1032 1.478 . S
C1031 H1025 0.930 . S
C1031 C1027 1.400 1_556 S
C1031 C1030 1.385 1_565 S
C1032 C1030 1.478 . S
C1032 C1034 1.381 . S
C1032 C1038 1.383 . S
C1033 C1029 1.495 . S
C1033 H1039 0.959 . S
C1033 H1040 0.961 . S
C1033 H1041 0.960 . S
C1034 C1032 1.381 . S
C1034 C1035 1.394 . S
C1034 H1042 0.930 . S
C1035 C1034 1.394 . S
C1035 C1036 1.383 . S
C1035 H1043 0.929 . S
C1036 C1035 1.383 . S
C1036 C1037 1.377 . S
C1037 H1021 0.930 . S
C1037 C1036 1.377 . S
C1037 C1038 1.379 . S
C1038 H1022 0.931 . S
C1038 C1032 1.383 . S
C1038 C1037 1.379 . S
H1039 C1033 0.959 . S
H1040 C1033 0.961 . S
H1041 C1033 0.960 . S
H1042 C1034 0.930 . S
H1043 C1035 0.929 . S
H1044 C1052 0.929 . S
H1045 C1054 0.930 . S
H1046 C1056 0.930 . S
H1047 C1059 0.929 . S
H1048 C1062 0.930 . S
H1049 C1064 0.960 . S
H1050 C1064 0.960 . S
H1051 C1064 0.960 . S
C1052 H1044 0.929 . S
C1052 C1053 1.377 . S
C1052 C1054 1.384 . S
C1053 C1052 1.377 . S
C1053 C1059 1.390 1_455 S
C1054 H1045 0.930 . S
C1054 C1052 1.384 . S
C1054 C1055 1.372 . S
C1055 C1054 1.372 . S
C1055 C1056 1.400 1_455 S
C1055 C1060 1.490 . S
C1056 H1046 0.930 . S
C1056 C1055 1.400 1_655 S
C1056 C1059 1.386 . S
H1057 C1073 0.930 1_655 S
H1058 C1074 0.931 1_655 S
C1059 H1047 0.929 . S
C1059 C1053 1.390 1_655 S
C1059 C1056 1.386 . S
C1060 C1055 1.490 . S
C1060 C1062 1.395 . S
C1060 C1063 1.403 1_455 S
H1061 C1067 0.930 . S
C1062 H1048 0.930 . S
C1062 C1060 1.395 . S
C1062 C1065 1.403 1_556 S
C1063 C1060 1.403 1_655 S
C1063 C1064 1.524 . S
C1063 C1067 1.400 1_556 S
C1064 H1049 0.960 . S
C1064 H1050 0.960 . S
C1064 H1051 0.960 . S
C1064 C1063 1.524 . S
C1065 C1062 1.403 1_554 S
C1065 C1066 1.392 . S
C1065 C1069 1.495 . S
C1066 C1065 1.392 . S
C1066 C1067 1.385 1_455 S
C1066 C1068 1.478 . S
C1067 H1061 0.930 . S
C1067 C1063 1.400 1_554 S
C1067 C1066 1.385 1_655 S
C1068 C1066 1.478 . S
C1068 C1070 1.381 . S
C1068 C1074 1.383 . S
C1069 C1065 1.495 . S
C1069 H1075 0.959 . S
C1069 H1076 0.961 . S
C1069 H1077 0.960 . S
C1070 C1068 1.381 . S
C1070 C1071 1.394 . S
C1070 H1078 0.930 . S
C1071 C1070 1.394 . S
C1071 C1072 1.383 . S
C1071 H1079 0.929 . S
C1072 C1071 1.383 . S
C1072 C1073 1.377 . S
C1073 H1057 0.930 1_455 S
C1073 C1072 1.377 . S
C1073 C1074 1.379 . S
C1074 H1058 0.931 1_455 S
C1074 C1068 1.383 . S
C1074 C1073 1.379 . S
H1075 C1069 0.959 . S
H1076 C1069 0.961 . S
H1077 C1069 0.960 . S
H1078 C1070 0.930 . S
H1079 C1071 0.929 . S
H1080 C1088 0.929 . S
H1081 C1090 0.930 . S
H1082 C1092 0.930 . S
H1083 C1095 0.929 . S
H1084 C1098 0.930 . S
H1085 C1100 0.960 . S
H1086 C1100 0.960 . S
H1087 C1100 0.960 . S
C1088 H1080 0.929 . S
C1088 C1089 1.377 . S
C1088 C1090 1.384 . S
C1089 C1088 1.377 . S
C1089 C1095 1.390 . S
C1090 H1081 0.930 . S
C1090 C1088 1.384 . S
C1090 C1091 1.372 . S
C1091 C1090 1.372 . S
C1091 C1092 1.400 . S
C1091 C1096 1.490 . S
C1092 H1082 0.930 . S
C1092 C1091 1.400 . S
C1092 C1095 1.386 . S
H1093 C1109 0.930 . S
H1094 C1110 0.931 . S
C1095 H1083 0.929 . S
C1095 C1089 1.390 . S
C1095 C1092 1.386 . S
C1096 C1091 1.490 . S
C1096 C1098 1.395 . S
C1096 C1099 1.403 . S
H1097 C1103 0.930 . S
C1098 H1084 0.930 . S
C1098 C1096 1.395 . S
C1098 C1101 1.403 1_556 S
C1099 C1096 1.403 . S
C1099 C1100 1.524 . S
C1099 C1103 1.400 1_556 S
C1100 H1085 0.960 . S
C1100 H1086 0.960 . S
C1100 H1087 0.960 . S
C1100 C1099 1.524 . S
C1101 C1098 1.403 1_554 S
C1101 C1102 1.392 . S
C1101 C1105 1.495 . S
C1102 C1101 1.392 . S
C1102 C1103 1.385 . S
C1102 C1104 1.478 . S
C1103 H1097 0.930 . S
C1103 C1099 1.400 1_554 S
C1103 C1102 1.385 . S
C1104 C1102 1.478 . S
C1104 C1106 1.381 . S
C1104 C1110 1.383 . S
C1105 C1101 1.495 . S
C1105 H1111 0.959 . S
C1105 H1112 0.961 . S
C1105 H1113 0.960 . S
C1106 C1104 1.381 . S
C1106 C1107 1.394 . S
C1106 H1114 0.930 . S
C1107 C1106 1.394 . S
C1107 C1108 1.383 . S
C1107 H1115 0.929 . S
C1108 C1107 1.383 . S
C1108 C1109 1.377 . S
C1109 H1093 0.930 . S
C1109 C1108 1.377 . S
C1109 C1110 1.379 . S
C1110 H1094 0.931 . S
C1110 C1104 1.383 . S
C1110 C1109 1.379 . S
H1111 C1105 0.959 . S
H1112 C1105 0.961 . S
H1113 C1105 0.960 . S
H1114 C1106 0.930 . S
H1115 C1107 0.929 . S
H1116 C1124 0.929 . S
H1117 C1126 0.930 . S
H1118 C1128 0.930 . S
H1119 C1131 0.929 . S
H1120 C1134 0.930 . S
H1121 C1136 0.960 . S
H1122 C1136 0.960 . S
H1123 C1136 0.960 . S
C1124 H1116 0.929 . S
C1124 C1125 1.377 . S
C1124 C1126 1.384 . S
C1125 C1124 1.377 . S
C1125 C1131 1.390 . S
C1126 H1117 0.930 . S
C1126 C1124 1.384 . S
C1126 C1127 1.372 . S
C1127 C1126 1.372 . S
C1127 C1128 1.400 . S
C1127 C1132 1.490 . S
C1128 H1118 0.930 . S
C1128 C1127 1.400 . S
C1128 C1131 1.386 . S
H1129 C1145 0.930 . S
H1130 C1146 0.931 . S
C1131 H1119 0.929 . S
C1131 C1125 1.390 . S
C1131 C1128 1.386 . S
C1132 C1127 1.490 . S
C1132 C1134 1.395 . S
C1132 C1135 1.403 . S
H1133 C1139 0.930 . S
C1134 H1120 0.930 . S
C1134 C1132 1.395 . S
C1134 C1137 1.403 . S
C1135 C1132 1.403 . S
C1135 C1136 1.524 . S
C1135 C1139 1.400 . S
C1136 H1121 0.960 . S
C1136 H1122 0.960 . S
C1136 H1123 0.960 . S
C1136 C1135 1.524 . S
C1137 C1134 1.403 . S
C1137 C1138 1.392 . S
C1137 C1141 1.495 . S
C1138 C1137 1.392 . S
C1138 C1139 1.385 . S
C1138 C1140 1.478 . S
C1139 H1133 0.930 . S
C1139 C1135 1.400 . S
C1139 C1138 1.385 . S
C1140 C1138 1.478 . S
C1140 C1142 1.381 . S
C1140 C1146 1.383 . S
C1141 C1137 1.495 . S
C1141 H1147 0.959 . S
C1141 H1148 0.961 . S
C1141 H1149 0.960 . S
C1142 C1140 1.381 . S
C1142 C1143 1.394 . S
C1142 H1150 0.930 . S
C1143 C1142 1.394 . S
C1143 C1144 1.383 . S
C1143 H1151 0.929 . S
C1144 C1143 1.383 . S
C1144 C1145 1.377 . S
C1145 H1129 0.930 . S
C1145 C1144 1.377 . S
C1145 C1146 1.379 . S
C1146 H1130 0.931 . S
C1146 C1140 1.383 . S
C1146 C1145 1.379 . S
H1147 C1141 0.959 . S
H1148 C1141 0.961 . S
H1149 C1141 0.960 . S
H1150 C1142 0.930 . S
H1151 C1143 0.929 . S
H1152 C1160 0.929 . S
H1153 C1162 0.930 . S
H1154 C1164 0.930 . S
H1155 C1167 0.929 . S
H1156 C1170 0.930 . S
H1157 C1172 0.960 . S
H1158 C1172 0.960 . S
H1159 C1172 0.960 . S
C1160 H1152 0.929 . S
C1160 C1161 1.377 . S
C1160 C1162 1.384 . S
C1161 C1160 1.377 . S
C1161 C1167 1.390 . S
C1162 H1153 0.930 . S
C1162 C1160 1.384 . S
C1162 C1163 1.372 . S
C1163 C1162 1.372 . S
C1163 C1164 1.400 . S
C1163 C1168 1.490 . S
C1164 H1154 0.930 . S
C1164 C1163 1.400 . S
C1164 C1167 1.386 . S
H1165 C1181 0.930 . S
H1166 C1182 0.931 . S
C1167 H1155 0.929 . S
C1167 C1161 1.390 . S
C1167 C1164 1.386 . S
C1168 C1163 1.490 . S
C1168 C1170 1.395 . S
C1168 C1171 1.403 . S
H1169 C1175 0.930 . S
C1170 H1156 0.930 . S
C1170 C1168 1.395 . S
C1170 C1173 1.403 . S
C1171 C1168 1.403 . S
C1171 C1172 1.524 . S
C1171 C1175 1.400 . S
C1172 H1157 0.960 . S
C1172 H1158 0.960 . S
C1172 H1159 0.960 . S
C1172 C1171 1.524 . S
C1173 C1170 1.403 . S
C1173 C1174 1.392 . S
C1173 C1177 1.495 . S
C1174 C1173 1.392 . S
C1174 C1175 1.385 . S
C1174 C1176 1.478 . S
C1175 H1169 0.930 . S
C1175 C1171 1.400 . S
C1175 C1174 1.385 . S
C1176 C1174 1.478 . S
C1176 C1178 1.381 . S
C1176 C1182 1.383 . S
C1177 C1173 1.495 . S
C1177 H1183 0.959 . S
C1177 H1184 0.961 . S
C1177 H1185 0.960 . S
C1178 C1176 1.381 . S
C1178 C1179 1.394 . S
C1178 H1186 0.930 . S
C1179 C1178 1.394 . S
C1179 C1180 1.383 . S
C1179 H1187 0.929 . S
C1180 C1179 1.383 . S
C1180 C1181 1.377 . S
C1181 H1165 0.930 . S
C1181 C1180 1.377 . S
C1181 C1182 1.379 . S
C1182 H1166 0.931 . S
C1182 C1176 1.383 . S
C1182 C1181 1.379 . S
H1183 C1177 0.959 . S
H1184 C1177 0.961 . S
H1185 C1177 0.960 . S
H1186 C1178 0.930 . S
H1187 C1179 0.929 . S
H1188 C1196 0.929 . S
H1189 C1198 0.930 . S
H1190 C1200 0.930 . S
H1191 C1203 0.929 . S
H1192 C1206 0.930 . S
H1193 C1208 0.960 . S
H1194 C1208 0.960 . S
H1195 C1208 0.960 . S
C1196 H1188 0.929 . S
C1196 C1197 1.377 . S
C1196 C1198 1.384 . S
C1197 C1196 1.377 . S
C1197 C1203 1.390 . S
C1198 H1189 0.930 . S
C1198 C1196 1.384 . S
C1198 C1199 1.372 . S
C1199 C1198 1.372 . S
C1199 C1200 1.400 . S
C1199 C1204 1.490 . S
C1200 H1190 0.930 . S
C1200 C1199 1.400 . S
C1200 C1203 1.386 . S
H1201 C1217 0.930 . S
H1202 C1218 0.931 . S
C1203 H1191 0.929 . S
C1203 C1197 1.390 . S
C1203 C1200 1.386 . S
C1204 C1199 1.490 . S
C1204 C1206 1.395 . S
C1204 C1207 1.403 . S
H1205 C1211 0.930 . S
C1206 H1192 0.930 . S
C1206 C1204 1.395 . S
C1206 C1209 1.403 . S
C1207 C1204 1.403 . S
C1207 C1208 1.524 . S
C1207 C1211 1.400 . S
C1208 H1193 0.960 . S
C1208 H1194 0.960 . S
C1208 H1195 0.960 . S
C1208 C1207 1.524 . S
C1209 C1206 1.403 . S
C1209 C1210 1.392 . S
C1209 C1213 1.495 . S
C1210 C1209 1.392 . S
C1210 C1211 1.385 . S
C1210 C1212 1.478 . S
C1211 H1205 0.930 . S
C1211 C1207 1.400 . S
C1211 C1210 1.385 . S
C1212 C1210 1.478 . S
C1212 C1214 1.381 . S
C1212 C1218 1.383 . S
C1213 C1209 1.495 . S
C1213 H1219 0.959 . S
C1213 H1220 0.961 . S
C1213 H1221 0.960 . S
C1214 C1212 1.381 . S
C1214 C1215 1.394 . S
C1214 H1222 0.930 . S
C1215 C1214 1.394 . S
C1215 C1216 1.383 . S
C1215 H1223 0.929 . S
C1216 C1215 1.383 . S
C1216 C1217 1.377 . S
C1217 H1201 0.930 . S
C1217 C1216 1.377 . S
C1217 C1218 1.379 . S
C1218 H1202 0.931 . S
C1218 C1212 1.383 . S
C1218 C1217 1.379 . S
H1219 C1213 0.959 . S
H1220 C1213 0.961 . S
H1221 C1213 0.960 . S
H1222 C1214 0.930 . S
H1223 C1215 0.929 . S
H1224 C1232 0.929 . S
H1225 C1234 0.930 . S
H1226 C1236 0.930 . S
H1227 C1239 0.929 . S
H1228 C1242 0.930 . S
H1229 C1244 0.960 . S
H1230 C1244 0.960 . S
H1231 C1244 0.960 . S
C1232 H1224 0.929 . S
C1232 C1233 1.377 . S
C1232 C1234 1.384 . S
C1233 C1232 1.377 . S
C1233 C1239 1.390 . S
C1234 H1225 0.930 . S
C1234 C1232 1.384 . S
C1234 C1235 1.372 . S
C1235 C1234 1.372 . S
C1235 C1236 1.400 . S
C1235 C1240 1.490 . S
C1236 H1226 0.930 . S
C1236 C1235 1.400 . S
C1236 C1239 1.386 . S
H1237 C1253 0.930 . S
H1238 C1254 0.931 . S
C1239 H1227 0.929 . S
C1239 C1233 1.390 . S
C1239 C1236 1.386 . S
C1240 C1235 1.490 . S
C1240 C1242 1.395 . S
C1240 C1243 1.403 . S
H1241 C1247 0.930 . S
C1242 H1228 0.930 . S
C1242 C1240 1.395 . S
C1242 C1245 1.403 . S
C1243 C1240 1.403 . S
C1243 C1244 1.524 . S
C1243 C1247 1.400 . S
C1244 H1229 0.960 . S
C1244 H1230 0.960 . S
C1244 H1231 0.960 . S
C1244 C1243 1.524 . S
C1245 C1242 1.403 . S
C1245 C1246 1.392 . S
C1245 C1249 1.495 . S
C1246 C1245 1.392 . S
C1246 C1247 1.385 . S
C1246 C1248 1.478 . S
C1247 H1241 0.930 . S
C1247 C1243 1.400 . S
C1247 C1246 1.385 . S
C1248 C1246 1.478 . S
C1248 C1250 1.381 . S
C1248 C1254 1.383 . S
C1249 C1245 1.495 . S
C1249 H1255 0.959 . S
C1249 H1256 0.961 . S
C1249 H1257 0.960 . S
C1250 C1248 1.381 . S
C1250 C1251 1.394 . S
C1250 H1258 0.930 . S
C1251 C1250 1.394 . S
C1251 C1252 1.383 . S
C1251 H1259 0.929 . S
C1252 C1251 1.383 . S
C1252 C1253 1.377 . S
C1253 H1237 0.930 . S
C1253 C1252 1.377 . S
C1253 C1254 1.379 . S
C1254 H1238 0.931 . S
C1254 C1248 1.383 . S
C1254 C1253 1.379 . S
H1255 C1249 0.959 . S
H1256 C1249 0.961 . S
H1257 C1249 0.960 . S
H1258 C1250 0.930 . S
H1259 C1251 0.929 . S
H1260 C1268 0.929 . S
H1261 C1270 0.930 . S
H1262 C1272 0.930 . S
H1263 C1275 0.929 . S
H1264 C1278 0.930 . S
H1265 C1280 0.960 . S
H1266 C1280 0.960 . S
H1267 C1280 0.960 . S
C1268 H1260 0.929 . S
C1268 C1269 1.377 . S
C1268 C1270 1.384 . S
C1269 C1268 1.377 . S
C1269 C1275 1.390 . S
C1270 H1261 0.930 . S
C1270 C1268 1.384 . S
C1270 C1271 1.372 . S
C1271 C1270 1.372 . S
C1271 C1272 1.400 . S
C1271 C1276 1.490 . S
C1272 H1262 0.930 . S
C1272 C1271 1.400 . S
C1272 C1275 1.386 . S
H1273 C1289 0.930 . S
H1274 C1290 0.931 . S
C1275 H1263 0.929 . S
C1275 C1269 1.390 . S
C1275 C1272 1.386 . S
C1276 C1271 1.490 . S
C1276 C1278 1.395 . S
C1276 C1279 1.403 . S
H1277 C1283 0.930 . S
C1278 H1264 0.930 . S
C1278 C1276 1.395 . S
C1278 C1281 1.403 . S
C1279 C1276 1.403 . S
C1279 C1280 1.524 . S
C1279 C1283 1.400 . S
C1280 H1265 0.960 . S
C1280 H1266 0.960 . S
C1280 H1267 0.960 . S
C1280 C1279 1.524 . S
C1281 C1278 1.403 . S
C1281 C1282 1.392 . S
C1281 C1285 1.495 . S
C1282 C1281 1.392 . S
C1282 C1283 1.385 . S
C1282 C1284 1.478 . S
C1283 H1277 0.930 . S
C1283 C1279 1.400 . S
C1283 C1282 1.385 . S
C1284 C1282 1.478 . S
C1284 C1286 1.381 . S
C1284 C1290 1.383 . S
C1285 C1281 1.495 . S
C1285 H1291 0.959 . S
C1285 H1292 0.961 . S
C1285 H1293 0.960 . S
C1286 C1284 1.381 . S
C1286 C1287 1.394 . S
C1286 H1294 0.930 . S
C1287 C1286 1.394 . S
C1287 C1288 1.383 . S
C1287 H1295 0.929 . S
C1288 C1287 1.383 . S
C1288 C1289 1.377 . S
C1289 H1273 0.930 . S
C1289 C1288 1.377 . S
C1289 C1290 1.379 . S
C1290 H1274 0.931 . S
C1290 C1284 1.383 . S
C1290 C1289 1.379 . S
H1291 C1285 0.959 . S
H1292 C1285 0.961 . S
H1293 C1285 0.960 . S
H1294 C1286 0.930 . S
H1295 C1287 0.929 . S
H1296 C1304 0.929 . S
H1297 C1306 0.930 . S
H1298 C1308 0.930 . S
H1299 C1311 0.929 . S
H1300 C1314 0.930 . S
H1301 C1316 0.960 . S
H1302 C1316 0.960 . S
H1303 C1316 0.960 . S
C1304 H1296 0.929 . S
C1304 C1305 1.377 . S
C1304 C1306 1.384 . S
C1305 C1304 1.377 . S
C1305 C1311 1.390 . S
C1306 H1297 0.930 . S
C1306 C1304 1.384 . S
C1306 C1307 1.372 . S
C1307 C1306 1.372 . S
C1307 C1308 1.400 . S
C1307 C1312 1.490 . S
C1308 H1298 0.930 . S
C1308 C1307 1.400 . S
C1308 C1311 1.386 . S
H1309 C1325 0.930 . S
H1310 C1326 0.931 . S
C1311 H1299 0.929 . S
C1311 C1305 1.390 . S
C1311 C1308 1.386 . S
C1312 C1307 1.490 . S
C1312 C1314 1.395 . S
C1312 C1315 1.403 . S
H1313 C1319 0.930 . S
C1314 H1300 0.930 . S
C1314 C1312 1.395 . S
C1314 C1317 1.403 . S
C1315 C1312 1.403 . S
C1315 C1316 1.524 . S
C1315 C1319 1.400 . S
C1316 H1301 0.960 . S
C1316 H1302 0.960 . S
C1316 H1303 0.960 . S
C1316 C1315 1.524 . S
C1317 C1314 1.403 . S
C1317 C1318 1.392 . S
C1317 C1321 1.495 . S
C1318 C1317 1.392 . S
C1318 C1319 1.385 . S
C1318 C1320 1.478 . S
C1319 H1313 0.930 . S
C1319 C1315 1.400 . S
C1319 C1318 1.385 . S
C1320 C1318 1.478 . S
C1320 C1322 1.381 . S
C1320 C1326 1.383 . S
C1321 C1317 1.495 . S
C1321 H1327 0.959 . S
C1321 H1328 0.961 . S
C1321 H1329 0.960 . S
C1322 C1320 1.381 . S
C1322 C1323 1.394 . S
C1322 H1330 0.930 . S
C1323 C1322 1.394 . S
C1323 C1324 1.383 . S
C1323 H1331 0.929 . S
C1324 C1323 1.383 . S
C1324 C1325 1.377 . S
C1325 H1309 0.930 . S
C1325 C1324 1.377 . S
C1325 C1326 1.379 . S
C1326 H1310 0.931 . S
C1326 C1320 1.383 . S
C1326 C1325 1.379 . S
H1327 C1321 0.959 . S
H1328 C1321 0.961 . S
H1329 C1321 0.960 . S
H1330 C1322 0.930 . S
H1331 C1323 0.929 . S
H1332 C1340 0.929 . S
H1333 C1342 0.930 . S
H1334 C1344 0.930 . S
H1335 C1347 0.929 . S
H1336 C1350 0.930 . S
H1337 C1352 0.960 . S
H1338 C1352 0.960 . S
H1339 C1352 0.960 . S
C1340 H1332 0.929 . S
C1340 C1341 1.377 . S
C1340 C1342 1.384 . S
C1341 C1340 1.377 . S
C1341 C1347 1.390 . S
C1342 H1333 0.930 . S
C1342 C1340 1.384 . S
C1342 C1343 1.372 . S
C1343 C1342 1.372 . S
C1343 C1344 1.400 . S
C1343 C1348 1.490 . S
C1344 H1334 0.930 . S
C1344 C1343 1.400 . S
C1344 C1347 1.386 . S
H1345 C1361 0.930 . S
H1346 C1362 0.931 1_545 S
C1347 H1335 0.929 . S
C1347 C1341 1.390 . S
C1347 C1344 1.386 . S
C1348 C1343 1.490 . S
C1348 C1350 1.395 . S
C1348 C1351 1.403 . S
H1349 C1355 0.930 . S
C1350 H1336 0.930 . S
C1350 C1348 1.395 . S
C1350 C1353 1.403 . S
C1351 C1348 1.403 . S
C1351 C1352 1.524 . S
C1351 C1355 1.400 . S
C1352 H1337 0.960 . S
C1352 H1338 0.960 . S
C1352 H1339 0.960 . S
C1352 C1351 1.524 . S
C1353 C1350 1.403 . S
C1353 C1354 1.392 . S
C1353 C1357 1.495 . S
C1354 C1353 1.392 . S
C1354 C1355 1.385 . S
C1354 C1356 1.478 . S
C1355 H1349 0.930 . S
C1355 C1351 1.400 . S
C1355 C1354 1.385 . S
C1356 C1354 1.478 . S
C1356 C1358 1.381 . S
C1356 C1362 1.383 . S
C1357 C1353 1.495 . S
C1357 H1363 0.959 . S
C1357 H1364 0.961 . S
C1357 H1365 0.960 . S
C1358 C1356 1.381 . S
C1358 C1359 1.394 . S
C1358 H1366 0.930 . S
C1359 C1358 1.394 . S
C1359 C1360 1.383 . S
C1359 H1367 0.929 . S
C1360 C1359 1.383 . S
C1360 C1361 1.377 1_565 S
C1361 H1345 0.930 . S
C1361 C1360 1.377 1_545 S
C1361 C1362 1.379 1_545 S
C1362 H1346 0.931 1_565 S
C1362 C1356 1.383 . S
C1362 C1361 1.379 1_565 S
H1363 C1357 0.959 . S
H1364 C1357 0.961 . S
H1365 C1357 0.960 . S
H1366 C1358 0.930 . S
H1367 C1359 0.929 . S
H1368 C1376 0.929 . S
H1369 C1378 0.930 . S
H1370 C1380 0.930 . S
H1371 C1383 0.929 . S
H1372 C1386 0.930 . S
H1373 C1388 0.960 . S
H1374 C1388 0.960 . S
H1375 C1388 0.960 . S
C1376 H1368 0.929 . S
C1376 C1377 1.377 . S
C1376 C1378 1.384 . S
C1377 C1376 1.377 . S
C1377 C1383 1.390 . S
C1378 H1369 0.930 . S
C1378 C1376 1.384 . S
C1378 C1379 1.372 . S
C1379 C1378 1.372 . S
C1379 C1380 1.400 . S
C1379 C1384 1.490 . S
C1380 H1370 0.930 . S
C1380 C1379 1.400 . S
C1380 C1383 1.386 . S
H1381 C1397 0.930 . S
H1382 C1398 0.931 . S
C1383 H1371 0.929 . S
C1383 C1377 1.390 . S
C1383 C1380 1.386 . S
C1384 C1379 1.490 . S
C1384 C1386 1.395 . S
C1384 C1387 1.403 . S
H1385 C1391 0.930 . S
C1386 H1372 0.930 . S
C1386 C1384 1.395 . S
C1386 C1389 1.403 . S
C1387 C1384 1.403 . S
C1387 C1388 1.524 . S
C1387 C1391 1.400 . S
C1388 H1373 0.960 . S
C1388 H1374 0.960 . S
C1388 H1375 0.960 . S
C1388 C1387 1.524 . S
C1389 C1386 1.403 . S
C1389 C1390 1.392 . S
C1389 C1393 1.495 . S
C1390 C1389 1.392 . S
C1390 C1391 1.385 . S
C1390 C1392 1.478 . S
C1391 H1385 0.930 . S
C1391 C1387 1.400 . S
C1391 C1390 1.385 . S
C1392 C1390 1.478 . S
C1392 C1394 1.381 . S
C1392 C1398 1.383 . S
C1393 C1389 1.495 . S
C1393 H1399 0.959 . S
C1393 H1400 0.961 . S
C1393 H1401 0.960 . S
C1394 C1392 1.381 . S
C1394 C1395 1.394 . S
C1394 H1402 0.930 . S
C1395 C1394 1.394 . S
C1395 C1396 1.383 . S
C1395 H1403 0.929 . S
C1396 C1395 1.383 . S
C1396 C1397 1.377 . S
C1397 H1381 0.930 . S
C1397 C1396 1.377 . S
C1397 C1398 1.379 . S
C1398 H1382 0.931 . S
C1398 C1392 1.383 . S
C1398 C1397 1.379 . S
H1399 C1393 0.959 . S
H1400 C1393 0.961 . S
H1401 C1393 0.960 . S
H1402 C1394 0.930 . S
H1403 C1395 0.929 . S
H1404 C1412 0.929 . S
H1405 C1414 0.930 . S
H1406 C1416 0.930 . S
H1407 C1419 0.929 . S
H1408 C1422 0.930 . S
H1409 C1424 0.960 . S
H1410 C1424 0.960 . S
H1411 C1424 0.960 . S
C1412 H1404 0.929 . S
C1412 C1413 1.377 . S
C1412 C1414 1.384 . S
C1413 C1412 1.377 . S
C1413 C1419 1.390 . S
C1414 H1405 0.930 . S
C1414 C1412 1.384 . S
C1414 C1415 1.372 . S
C1415 C1414 1.372 . S
C1415 C1416 1.400 . S
C1415 C1420 1.490 . S
C1416 H1406 0.930 . S
C1416 C1415 1.400 . S
C1416 C1419 1.386 . S
H1417 C1433 0.930 . S
H1418 C1434 0.931 . S
C1419 H1407 0.929 . S
C1419 C1413 1.390 . S
C1419 C1416 1.386 . S
C1420 C1415 1.490 . S
C1420 C1422 1.395 . S
C1420 C1423 1.403 . S
H1421 C1427 0.930 . S
C1422 H1408 0.930 . S
C1422 C1420 1.395 . S
C1422 C1425 1.403 . S
C1423 C1420 1.403 . S
C1423 C1424 1.524 . S
C1423 C1427 1.400 . S
C1424 H1409 0.960 . S
C1424 H1410 0.960 . S
C1424 H1411 0.960 . S
C1424 C1423 1.524 . S
C1425 C1422 1.403 . S
C1425 C1426 1.392 . S
C1425 C1429 1.495 . S
C1426 C1425 1.392 . S
C1426 C1427 1.385 . S
C1426 C1428 1.478 . S
C1427 H1421 0.930 . S
C1427 C1423 1.400 . S
C1427 C1426 1.385 . S
C1428 C1426 1.478 . S
C1428 C1430 1.381 . S
C1428 C1434 1.383 . S
C1429 C1425 1.495 . S
C1429 H1435 0.959 . S
C1429 H1436 0.961 . S
C1429 H1437 0.960 . S
C1430 C1428 1.381 . S
C1430 C1431 1.394 . S
C1430 H1438 0.930 . S
C1431 C1430 1.394 . S
C1431 C1432 1.383 . S
C1431 H1439 0.929 . S
C1432 C1431 1.383 . S
C1432 C1433 1.377 . S
C1433 H1417 0.930 . S
C1433 C1432 1.377 . S
C1433 C1434 1.379 . S
C1434 H1418 0.931 . S
C1434 C1428 1.383 . S
C1434 C1433 1.379 . S
H1435 C1429 0.959 . S
H1436 C1429 0.961 . S
H1437 C1429 0.960 . S
H1438 C1430 0.930 . S
H1439 C1431 0.929 . S
H1440 C1448 0.929 . S
H1441 C1450 0.930 . S
H1442 C1452 0.930 . S
H1443 C1455 0.929 1_455 S
H1444 C1458 0.930 . S
H1445 C1460 0.960 . S
H1446 C1460 0.960 . S
H1447 C1460 0.960 . S
C1448 H1440 0.929 . S
C1448 C1449 1.377 . S
C1448 C1450 1.384 . S
C1449 C1448 1.377 . S
C1449 C1455 1.390 . S
C1450 H1441 0.930 . S
C1450 C1448 1.384 . S
C1450 C1451 1.372 . S
C1451 C1450 1.372 . S
C1451 C1452 1.400 . S
C1451 C1456 1.490 . S
C1452 H1442 0.930 . S
C1452 C1451 1.400 . S
C1452 C1455 1.386 . S
H1453 C1469 0.930 . S
H1454 C1470 0.931 . S
C1455 H1443 0.929 1_655 S
C1455 C1449 1.390 . S
C1455 C1452 1.386 . S
C1456 C1451 1.490 . S
C1456 C1458 1.395 . S
C1456 C1459 1.403 . S
H1457 C1463 0.930 . S
C1458 H1444 0.930 . S
C1458 C1456 1.395 . S
C1458 C1461 1.403 . S
C1459 C1456 1.403 . S
C1459 C1460 1.524 . S
C1459 C1463 1.400 . S
C1460 H1445 0.960 . S
C1460 H1446 0.960 . S
C1460 H1447 0.960 . S
C1460 C1459 1.524 . S
C1461 C1458 1.403 . S
C1461 C1462 1.392 . S
C1461 C1465 1.495 . S
C1462 C1461 1.392 . S
C1462 C1463 1.385 . S
C1462 C1464 1.478 . S
C1463 H1457 0.930 . S
C1463 C1459 1.400 . S
C1463 C1462 1.385 . S
C1464 C1462 1.478 . S
C1464 C1466 1.381 . S
C1464 C1470 1.383 . S
C1465 C1461 1.495 . S
C1465 H1471 0.959 . S
C1465 H1472 0.961 . S
C1465 H1473 0.960 . S
C1466 C1464 1.381 . S
C1466 C1467 1.394 . S
C1466 H1474 0.930 . S
C1467 C1466 1.394 . S
C1467 C1468 1.383 . S
C1467 H1475 0.929 . S
C1468 C1467 1.383 . S
C1468 C1469 1.377 . S
C1469 H1453 0.930 . S
C1469 C1468 1.377 . S
C1469 C1470 1.379 . S
C1470 H1454 0.931 . S
C1470 C1464 1.383 . S
C1470 C1469 1.379 . S
H1471 C1465 0.959 . S
H1472 C1465 0.961 . S
H1473 C1465 0.960 . S
H1474 C1466 0.930 . S
H1475 C1467 0.929 . S
H1476 C1484 0.929 . S
H1477 C1486 0.930 . S
H1478 C1488 0.930 . S
H1479 C1491 0.929 . S
H1480 C1494 0.930 . S
H1481 C1496 0.960 . S
H1482 C1496 0.960 . S
H1483 C1496 0.960 . S
C1484 H1476 0.929 . S
C1484 C1485 1.377 . S
C1484 C1486 1.384 . S
C1485 C1484 1.377 . S
C1485 C1491 1.390 . S
C1486 H1477 0.930 . S
C1486 C1484 1.384 . S
C1486 C1487 1.372 . S
C1487 C1486 1.372 . S
C1487 C1488 1.400 . S
C1487 C1492 1.490 . S
C1488 H1478 0.930 . S
C1488 C1487 1.400 . S
C1488 C1491 1.386 . S
H1489 C1505 0.930 . S
H1490 C1506 0.931 . S
C1491 H1479 0.929 . S
C1491 C1485 1.390 . S
C1491 C1488 1.386 . S
C1492 C1487 1.490 . S
C1492 C1494 1.395 . S
C1492 C1495 1.403 . S
H1493 C1499 0.930 . S
C1494 H1480 0.930 . S
C1494 C1492 1.395 . S
C1494 C1497 1.403 . S
C1495 C1492 1.403 . S
C1495 C1496 1.524 . S
C1495 C1499 1.400 . S
C1496 H1481 0.960 . S
C1496 H1482 0.960 . S
C1496 H1483 0.960 . S
C1496 C1495 1.524 . S
C1497 C1494 1.403 . S
C1497 C1498 1.392 . S
C1497 C1501 1.495 . S
C1498 C1497 1.392 . S
C1498 C1499 1.385 . S
C1498 C1500 1.478 . S
C1499 H1493 0.930 . S
C1499 C1495 1.400 . S
C1499 C1498 1.385 . S
C1500 C1498 1.478 . S
C1500 C1502 1.381 . S
C1500 C1506 1.383 . S
C1501 C1497 1.495 . S
C1501 H1507 0.959 . S
C1501 H1508 0.961 . S
C1501 H1509 0.960 . S
C1502 C1500 1.381 . S
C1502 C1503 1.394 . S
C1502 H1510 0.930 . S
C1503 C1502 1.394 . S
C1503 C1504 1.383 . S
C1503 H1511 0.929 . S
C1504 C1503 1.383 . S
C1504 C1505 1.377 . S
C1505 H1489 0.930 . S
C1505 C1504 1.377 . S
C1505 C1506 1.379 . S
C1506 H1490 0.931 . S
C1506 C1500 1.383 . S
C1506 C1505 1.379 . S
H1507 C1501 0.959 . S
H1508 C1501 0.961 . S
H1509 C1501 0.960 . S
H1510 C1502 0.930 . S
H1511 C1503 0.929 . S
H1512 C1520 0.929 . S
H1513 C1522 0.930 . S
H1514 C1524 0.930 . S
H1515 C1527 0.929 . S
H1516 C1530 0.930 . S
H1517 C1532 0.960 . S
H1518 C1532 0.960 . S
H1519 C1532 0.960 . S
C1520 H1512 0.929 . S
C1520 C1521 1.377 . S
C1520 C1522 1.384 . S
C1521 C1520 1.377 . S
C1521 C1527 1.390 . S
C1522 H1513 0.930 . S
C1522 C1520 1.384 . S
C1522 C1523 1.372 . S
C1523 C1522 1.372 . S
C1523 C1524 1.400 . S
C1523 C1528 1.490 . S
C1524 H1514 0.930 . S
C1524 C1523 1.400 . S
C1524 C1527 1.386 . S
H1525 C1541 0.930 . S
H1526 C1542 0.931 . S
C1527 H1515 0.929 . S
C1527 C1521 1.390 . S
C1527 C1524 1.386 . S
C1528 C1523 1.490 . S
C1528 C1530 1.395 . S
C1528 C1531 1.403 . S
H1529 C1535 0.930 . S
C1530 H1516 0.930 . S
C1530 C1528 1.395 . S
C1530 C1533 1.403 . S
C1531 C1528 1.403 . S
C1531 C1532 1.524 . S
C1531 C1535 1.400 . S
C1532 H1517 0.960 . S
C1532 H1518 0.960 . S
C1532 H1519 0.960 . S
C1532 C1531 1.524 . S
C1533 C1530 1.403 . S
C1533 C1534 1.392 . S
C1533 C1537 1.495 . S
C1534 C1533 1.392 . S
C1534 C1535 1.385 . S
C1534 C1536 1.478 . S
C1535 H1529 0.930 . S
C1535 C1531 1.400 . S
C1535 C1534 1.385 . S
C1536 C1534 1.478 . S
C1536 C1538 1.381 . S
C1536 C1542 1.383 . S
C1537 C1533 1.495 . S
C1537 H1543 0.959 . S
C1537 H1544 0.961 . S
C1537 H1545 0.960 . S
C1538 C1536 1.381 . S
C1538 C1539 1.394 . S
C1538 H1546 0.930 . S
C1539 C1538 1.394 . S
C1539 C1540 1.383 . S
C1539 H1547 0.929 . S
C1540 C1539 1.383 . S
C1540 C1541 1.377 . S
C1541 H1525 0.930 . S
C1541 C1540 1.377 . S
C1541 C1542 1.379 . S
C1542 H1526 0.931 . S
C1542 C1536 1.383 . S
C1542 C1541 1.379 . S
H1543 C1537 0.959 . S
H1544 C1537 0.961 . S
H1545 C1537 0.960 . S
H1546 C1538 0.930 . S
H1547 C1539 0.929 . S
H1548 C1556 0.929 . S
H1549 C1558 0.930 . S
H1550 C1560 0.936 . S
H1551 C1563 0.929 . S
H1552 C1566 0.930 . S
H1553 C1568 0.960 . S
H1554 C1568 0.960 . S
H1555 C1568 0.960 . S
C1556 H1548 0.929 . S
C1556 C1557 1.377 . S
C1556 C1558 1.384 . S
C1557 C1556 1.377 . S
C1557 C1563 1.390 . S
C1558 H1549 0.930 . S
C1558 C1556 1.384 . S
C1558 C1559 1.372 . S
C1559 C1558 1.372 . S
C1559 C1560 1.400 . S
C1559 C1564 1.490 . S
C1560 H1550 0.936 . S
C1560 C1559 1.400 . S
C1560 C1563 1.386 . S
H1561 C1577 0.930 . S
H1562 C1578 0.931 . S
C1563 H1551 0.929 . S
C1563 C1557 1.390 . S
C1563 C1560 1.386 . S
C1564 C1559 1.490 . S
C1564 C1566 1.395 . S
C1564 C1567 1.403 1_655 S
H1565 C1571 0.930 . S
C1566 H1552 0.930 . S
C1566 C1564 1.395 . S
C1566 C1569 1.403 1_655 S
C1567 C1564 1.403 1_455 S
C1567 C1568 1.524 . S
C1567 C1571 1.400 . S
C1568 H1553 0.960 . S
C1568 H1554 0.960 . S
C1568 H1555 0.960 . S
C1568 C1567 1.524 . S
C1569 C1566 1.403 1_455 S
C1569 C1570 1.392 . S
C1569 C1573 1.495 . S
C1570 C1569 1.392 . S
C1570 C1571 1.385 . S
C1570 C1572 1.478 . S
C1571 H1565 0.930 . S
C1571 C1567 1.400 . S
C1571 C1570 1.385 . S
C1572 C1570 1.478 . S
C1572 C1574 1.381 . S
C1572 C1578 1.383 . S
C1573 C1569 1.495 . S
C1573 H1579 0.959 1_455 S
C1573 H1580 0.961 . S
C1573 H1581 0.962 1_455 S
C1574 C1572 1.381 . S
C1574 C1575 1.394 . S
C1574 H1582 0.930 . S
C1575 C1574 1.394 . S
C1575 C1576 1.383 . S
C1575 H1583 0.929 . S
C1576 C1575 1.383 . S
C1576 C1577 1.377 . S
C1577 H1561 0.930 . S
C1577 C1576 1.377 . S
C1577 C1578 1.379 . S
C1578 H1562 0.931 . S
C1578 C1572 1.383 . S
C1578 C1577 1.379 . S
H1579 C1573 0.959 1_655 S
H1580 C1573 0.961 . S
H1581 C1573 0.962 1_655 S
H1582 C1574 0.930 . S
H1583 C1575 0.929 . S
H1584 C1592 0.929 . S
H1585 C1594 0.930 . S
H1586 C1596 0.930 . S
H1587 C1599 0.929 . S
H1588 C1602 0.930 . S
H1589 C1604 0.960 . S
H1590 C1604 0.960 . S
H1591 C1604 0.960 . S
C1592 H1584 0.929 . S
C1592 C1593 1.377 . S
C1592 C1594 1.384 . S
C1593 C1592 1.377 . S
C1593 C1599 1.390 . S
C1594 H1585 0.930 . S
C1594 C1592 1.384 . S
C1594 C1595 1.372 . S
C1595 C1594 1.372 . S
C1595 C1596 1.400 . S
C1595 C1600 1.490 . S
C1596 H1586 0.930 . S
C1596 C1595 1.400 . S
C1596 C1599 1.386 . S
H1597 C1613 0.930 . S
H1598 C1614 0.931 . S
C1599 H1587 0.929 . S
C1599 C1593 1.390 . S
C1599 C1596 1.386 . S
C1600 C1595 1.490 . S
C1600 C1602 1.395 . S
C1600 C1603 1.403 . S
H1601 C1607 0.930 . S
C1602 H1588 0.930 . S
C1602 C1600 1.395 . S
C1602 C1605 1.403 . S
C1603 C1600 1.403 . S
C1603 C1604 1.524 . S
C1603 C1607 1.400 . S
C1604 H1589 0.960 . S
C1604 H1590 0.960 . S
C1604 H1591 0.960 . S
C1604 C1603 1.524 . S
C1605 C1602 1.403 . S
C1605 C1606 1.392 . S
C1605 C1609 1.495 . S
C1606 C1605 1.392 . S
C1606 C1607 1.385 . S
C1606 C1608 1.478 . S
C1607 H1601 0.930 . S
C1607 C1603 1.400 . S
C1607 C1606 1.385 . S
C1608 C1606 1.478 . S
C1608 C1610 1.381 . S
C1608 C1614 1.383 . S
C1609 C1605 1.495 . S
C1609 H1615 0.959 . S
C1609 H1616 0.961 . S
C1609 H1617 0.960 . S
C1610 C1608 1.381 . S
C1610 C1611 1.394 . S
C1610 H1618 0.930 . S
C1611 C1610 1.394 . S
C1611 C1612 1.383 . S
C1611 H1619 0.929 . S
C1612 C1611 1.383 . S
C1612 C1613 1.377 . S
C1613 H1597 0.930 . S
C1613 C1612 1.377 . S
C1613 C1614 1.379 . S
C1614 H1598 0.931 . S
C1614 C1608 1.383 . S
C1614 C1613 1.379 . S
H1615 C1609 0.959 . S
H1616 C1609 0.961 . S
H1617 C1609 0.960 . S
H1618 C1610 0.930 . S
H1619 C1611 0.929 . S
H1620 C1628 0.929 . S
H1621 C1630 0.930 . S
H1622 C1632 0.930 . S
H1623 C1635 0.929 . S
H1624 C1638 0.930 . S
H1625 C1640 0.960 . S
H1626 C1640 0.960 . S
H1627 C1640 0.960 . S
C1628 H1620 0.929 . S
C1628 C1629 1.377 . S
C1628 C1630 1.384 . S
C1629 C1628 1.377 . S
C1629 C1635 1.390 . S
C1630 H1621 0.930 . S
C1630 C1628 1.384 . S
C1630 C1631 1.372 . S
C1631 C1630 1.372 . S
C1631 C1632 1.400 . S
C1631 C1636 1.490 . S
C1632 H1622 0.930 . S
C1632 C1631 1.400 . S
C1632 C1635 1.386 . S
H1633 C1649 0.930 . S
H1634 C1650 0.931 . S
C1635 H1623 0.929 . S
C1635 C1629 1.390 . S
C1635 C1632 1.386 . S
C1636 C1631 1.490 . S
C1636 C1638 1.395 . S
C1636 C1639 1.403 1_565 S
H1637 C1643 0.930 . S
C1638 H1624 0.930 . S
C1638 C1636 1.395 . S
C1638 C1641 1.403 1_565 S
C1639 C1636 1.403 1_545 S
C1639 C1640 1.524 . S
C1639 C1643 1.400 . S
C1640 H1625 0.960 . S
C1640 H1626 0.960 . S
C1640 H1627 0.960 . S
C1640 C1639 1.524 . S
C1641 C1638 1.403 1_545 S
C1641 C1642 1.392 . S
C1641 C1645 1.495 . S
C1642 C1641 1.392 . S
C1642 C1643 1.385 . S
C1642 C1644 1.478 . S
C1643 H1637 0.930 . S
C1643 C1639 1.400 . S
C1643 C1642 1.385 . S
C1644 C1642 1.478 . S
C1644 C1646 1.381 . S
C1644 C1650 1.383 . S
C1645 C1641 1.495 . S
C1645 H1651 0.959 1_545 S
C1645 H1652 0.949 1_545 S
C1645 H1653 0.960 . S
C1646 C1644 1.381 . S
C1646 C1647 1.394 . S
C1646 H1654 0.930 . S
C1647 C1646 1.394 . S
C1647 C1648 1.383 . S
C1647 H1655 0.929 . S
C1648 C1647 1.383 . S
C1648 C1649 1.377 . S
C1649 H1633 0.930 . S
C1649 C1648 1.377 . S
C1649 C1650 1.379 . S
C1650 H1634 0.931 . S
C1650 C1644 1.383 . S
C1650 C1649 1.379 . S
H1651 C1645 0.959 1_565 S
H1652 C1645 0.949 1_565 S
H1653 C1645 0.960 . S
H1654 C1646 0.930 . S
H1655 C1647 0.929 . S
H1656 C1664 0.929 . S
H1657 C1666 0.930 . S
H1658 C1668 0.930 . S
H1659 C1671 0.929 . S
H1660 C1674 0.930 . S
H1661 C1676 0.960 . S
H1662 C1676 0.960 . S
H1663 C1676 0.960 . S
C1664 H1656 0.929 . S
C1664 C1665 1.377 . S
C1664 C1666 1.384 . S
C1665 C1664 1.377 . S
C1665 C1671 1.390 . S
C1666 H1657 0.930 . S
C1666 C1664 1.384 . S
C1666 C1667 1.372 . S
C1667 C1666 1.372 . S
C1667 C1668 1.400 . S
C1667 C1672 1.490 . S
C1668 H1658 0.930 . S
C1668 C1667 1.400 . S
C1668 C1671 1.386 . S
H1669 C1685 0.930 . S
H1670 C1686 0.931 . S
C1671 H1659 0.929 . S
C1671 C1665 1.390 . S
C1671 C1668 1.386 . S
C1672 C1667 1.490 . S
C1672 C1674 1.395 . S
C1672 C1675 1.403 . S
H1673 C1679 0.930 . S
C1674 H1660 0.930 . S
C1674 C1672 1.395 . S
C1674 C1677 1.403 . S
C1675 C1672 1.403 . S
C1675 C1676 1.524 . S
C1675 C1679 1.400 . S
C1676 H1661 0.960 . S
C1676 H1662 0.960 . S
C1676 H1663 0.960 . S
C1676 C1675 1.524 . S
C1677 C1674 1.403 . S
C1677 C1678 1.392 . S
C1677 C1681 1.495 . S
C1678 C1677 1.392 . S
C1678 C1679 1.385 . S
C1678 C1680 1.478 . S
C1679 H1673 0.930 . S
C1679 C1675 1.400 . S
C1679 C1678 1.385 . S
C1680 C1678 1.478 . S
C1680 C1682 1.381 . S
C1680 C1686 1.383 . S
C1681 C1677 1.495 . S
C1681 H1687 0.959 . S
C1681 H1688 0.961 . S
C1681 H1689 0.960 . S
C1682 C1680 1.381 . S
C1682 C1683 1.394 . S
C1682 H1690 0.930 . S
C1683 C1682 1.394 . S
C1683 C1684 1.383 . S
C1683 H1691 0.929 . S
C1684 C1683 1.383 . S
C1684 C1685 1.377 . S
C1685 H1669 0.930 . S
C1685 C1684 1.377 . S
C1685 C1686 1.379 . S
C1686 H1670 0.931 . S
C1686 C1680 1.383 . S
C1686 C1685 1.379 . S
H1687 C1681 0.959 . S
H1688 C1681 0.961 . S
H1689 C1681 0.960 . S
H1690 C1682 0.930 . S
H1691 C1683 0.929 . S
H1692 C1700 0.929 . S
H1693 C1702 0.930 . S
H1694 C1704 0.930 . S
H1695 C1707 0.929 . S
H1696 C1710 0.930 . S
H1697 C1712 0.960 . S
H1698 C1712 0.960 . S
H1699 C1712 0.960 . S
C1700 H1692 0.929 . S
C1700 C1701 1.377 . S
C1700 C1702 1.384 . S
C1701 C1700 1.377 . S
C1701 C1707 1.390 . S
C1702 H1693 0.930 . S
C1702 C1700 1.384 . S
C1702 C1703 1.372 . S
C1703 C1702 1.372 . S
C1703 C1704 1.400 . S
C1703 C1708 1.490 . S
C1704 H1694 0.930 . S
C1704 C1703 1.400 . S
C1704 C1707 1.386 . S
H1705 C1721 0.930 . S
H1706 C1722 0.931 . S
C1707 H1695 0.929 . S
C1707 C1701 1.390 . S
C1707 C1704 1.386 . S
C1708 C1703 1.490 . S
C1708 C1710 1.395 . S
C1708 C1711 1.403 . S
H1709 C1715 0.930 . S
C1710 H1696 0.930 . S
C1710 C1708 1.395 . S
C1710 C1713 1.403 . S
C1711 C1708 1.403 . S
C1711 C1712 1.524 . S
C1711 C1715 1.400 . S
C1712 H1697 0.960 . S
C1712 H1698 0.960 . S
C1712 H1699 0.960 . S
C1712 C1711 1.524 . S
C1713 C1710 1.403 . S
C1713 C1714 1.392 . S
C1713 C1717 1.495 . S
C1714 C1713 1.392 . S
C1714 C1715 1.385 . S
C1714 C1716 1.478 . S
C1715 H1709 0.930 . S
C1715 C1711 1.400 . S
C1715 C1714 1.385 . S
C1716 C1714 1.478 . S
C1716 C1718 1.381 . S
C1716 C1722 1.383 . S
C1717 C1713 1.495 . S
C1717 H1723 0.959 . S
C1717 H1724 0.961 . S
C1717 H1725 0.960 . S
C1718 C1716 1.381 . S
C1718 C1719 1.394 . S
C1718 H1726 0.930 . S
C1719 C1718 1.394 . S
C1719 C1720 1.383 . S
C1719 H1727 0.929 . S
C1720 C1719 1.383 . S
C1720 C1721 1.377 . S
C1721 H1705 0.930 . S
C1721 C1720 1.377 . S
C1721 C1722 1.379 . S
C1722 H1706 0.931 . S
C1722 C1716 1.383 . S
C1722 C1721 1.379 . S
H1723 C1717 0.959 . S
H1724 C1717 0.961 . S
H1725 C1717 0.960 . S
H1726 C1718 0.930 . S
H1727 C1719 0.929 . S
H1728 C1736 0.929 . S
H1729 C1738 0.930 . S
H1730 C1740 0.930 . S
H1731 C1743 0.929 . S
H1732 C1746 0.930 . S
H1733 C1748 0.960 . S
H1734 C1748 0.960 . S
H1735 C1748 0.960 . S
C1736 H1728 0.929 . S
C1736 C1737 1.377 . S
C1736 C1738 1.384 . S
C1737 C1736 1.377 . S
C1737 C1743 1.390 . S
C1738 H1729 0.930 . S
C1738 C1736 1.384 . S
C1738 C1739 1.372 . S
C1739 C1738 1.372 . S
C1739 C1740 1.400 . S
C1739 C1744 1.490 . S
C1740 H1730 0.930 . S
C1740 C1739 1.400 . S
C1740 C1743 1.386 . S
H1741 C1757 0.930 . S
H1742 C1758 0.931 . S
C1743 H1731 0.929 . S
C1743 C1737 1.390 . S
C1743 C1740 1.386 . S
C1744 C1739 1.490 . S
C1744 C1746 1.395 . S
C1744 C1747 1.403 . S
H1745 C1751 0.930 . S
C1746 H1732 0.930 . S
C1746 C1744 1.395 . S
C1746 C1749 1.403 . S
C1747 C1744 1.403 . S
C1747 C1748 1.524 . S
C1747 C1751 1.400 . S
C1748 H1733 0.960 . S
C1748 H1734 0.960 . S
C1748 H1735 0.960 . S
C1748 C1747 1.524 . S
C1749 C1746 1.403 . S
C1749 C1750 1.392 . S
C1749 C1753 1.495 . S
C1750 C1749 1.392 . S
C1750 C1751 1.385 . S
C1750 C1752 1.478 . S
C1751 H1745 0.930 . S
C1751 C1747 1.400 . S
C1751 C1750 1.385 . S
C1752 C1750 1.478 . S
C1752 C1754 1.381 . S
C1752 C1758 1.383 . S
C1753 C1749 1.495 . S
C1753 H1759 0.959 . S
C1753 H1760 0.961 . S
C1753 H1761 0.960 . S
C1754 C1752 1.381 . S
C1754 C1755 1.394 . S
C1754 H1762 0.930 . S
C1755 C1754 1.394 . S
C1755 C1756 1.383 . S
C1755 H1763 0.929 . S
C1756 C1755 1.383 . S
C1756 C1757 1.377 . S
C1757 H1741 0.930 . S
C1757 C1756 1.377 . S
C1757 C1758 1.379 . S
C1758 H1742 0.931 . S
C1758 C1752 1.383 . S
C1758 C1757 1.379 . S
H1759 C1753 0.959 . S
H1760 C1753 0.961 . S
H1761 C1753 0.960 . S
H1762 C1754 0.930 . S
H1763 C1755 0.929 . S
H1764 C1772 0.929 . S
H1765 C1774 0.930 . S
H1766 C1776 0.930 . S
H1767 C1779 0.929 . S
H1768 C1782 0.930 . S
H1769 C1784 0.960 . S
H1770 C1784 0.960 . S
H1771 C1784 0.960 . S
C1772 H1764 0.929 . S
C1772 C1773 1.377 . S
C1772 C1774 1.384 . S
C1773 C1772 1.377 . S
C1773 C1779 1.390 . S
C1774 H1765 0.930 . S
C1774 C1772 1.384 . S
C1774 C1775 1.372 . S
C1775 C1774 1.372 . S
C1775 C1776 1.400 . S
C1775 C1780 1.490 . S
C1776 H1766 0.930 . S
C1776 C1775 1.400 . S
C1776 C1779 1.386 . S
H1777 C1793 0.930 . S
H1778 C1794 0.931 . S
C1779 H1767 0.929 . S
C1779 C1773 1.390 . S
C1779 C1776 1.386 . S
C1780 C1775 1.490 . S
C1780 C1782 1.395 . S
C1780 C1783 1.403 . S
H1781 C1787 0.930 . S
C1782 H1768 0.930 . S
C1782 C1780 1.395 . S
C1782 C1785 1.403 . S
C1783 C1780 1.403 . S
C1783 C1784 1.524 . S
C1783 C1787 1.400 . S
C1784 H1769 0.960 . S
C1784 H1770 0.960 . S
C1784 H1771 0.960 . S
C1784 C1783 1.524 . S
C1785 C1782 1.403 . S
C1785 C1786 1.392 . S
C1785 C1789 1.495 . S
C1786 C1785 1.392 . S
C1786 C1787 1.385 . S
C1786 C1788 1.478 . S
C1787 H1781 0.930 . S
C1787 C1783 1.400 . S
C1787 C1786 1.385 . S
C1788 C1786 1.478 . S
C1788 C1790 1.381 . S
C1788 C1794 1.383 . S
C1789 C1785 1.495 . S
C1789 H1795 0.959 . S
C1789 H1796 0.961 . S
C1789 H1797 0.960 . S
C1790 C1788 1.381 . S
C1790 C1791 1.394 . S
C1790 H1798 0.930 . S
C1791 C1790 1.394 . S
C1791 C1792 1.383 . S
C1791 H1799 0.929 . S
C1792 C1791 1.383 . S
C1792 C1793 1.377 . S
C1793 H1777 0.930 . S
C1793 C1792 1.377 . S
C1793 C1794 1.379 . S
C1794 H1778 0.931 . S
C1794 C1788 1.383 . S
C1794 C1793 1.379 . S
H1795 C1789 0.959 . S
H1796 C1789 0.961 . S
H1797 C1789 0.960 . S
H1798 C1790 0.930 . S
H1799 C1791 0.929 . S
H1800 C1808 0.929 . S
H1801 C1810 0.930 . S
H1802 C1812 0.930 . S
H1803 C1815 0.929 . S
H1804 C1818 0.930 . S
H1805 C1820 0.960 . S
H1806 C1820 0.960 . S
H1807 C1820 0.960 . S
C1808 H1800 0.929 . S
C1808 C1809 1.377 . S
C1808 C1810 1.384 . S
C1809 C1808 1.377 . S
C1809 C1815 1.390 . S
C1810 H1801 0.930 . S
C1810 C1808 1.384 . S
C1810 C1811 1.372 . S
C1811 C1810 1.372 . S
C1811 C1812 1.400 . S
C1811 C1816 1.490 . S
C1812 H1802 0.930 . S
C1812 C1811 1.400 . S
C1812 C1815 1.386 . S
H1813 C1829 0.930 . S
H1814 C1830 0.931 . S
C1815 H1803 0.929 . S
C1815 C1809 1.390 . S
C1815 C1812 1.386 . S
C1816 C1811 1.490 . S
C1816 C1818 1.395 . S
C1816 C1819 1.403 . S
H1817 C1823 0.930 . S
C1818 H1804 0.930 . S
C1818 C1816 1.395 . S
C1818 C1821 1.403 . S
C1819 C1816 1.403 . S
C1819 C1820 1.524 . S
C1819 C1823 1.400 . S
C1820 H1805 0.960 . S
C1820 H1806 0.960 . S
C1820 H1807 0.960 . S
C1820 C1819 1.524 . S
C1821 C1818 1.403 . S
C1821 C1822 1.392 . S
C1821 C1825 1.495 . S
C1822 C1821 1.392 . S
C1822 C1823 1.385 . S
C1822 C1824 1.478 . S
C1823 H1817 0.930 . S
C1823 C1819 1.400 . S
C1823 C1822 1.385 . S
C1824 C1822 1.478 . S
C1824 C1826 1.381 . S
C1824 C1830 1.383 . S
C1825 C1821 1.495 . S
C1825 H1831 0.959 . S
C1825 H1832 0.961 . S
C1825 H1833 0.960 . S
C1826 C1824 1.381 . S
C1826 C1827 1.394 . S
C1826 H1834 0.930 . S
C1827 C1826 1.394 . S
C1827 C1828 1.383 . S
C1827 H1835 0.929 . S
C1828 C1827 1.383 . S
C1828 C1829 1.377 . S
C1829 H1813 0.930 . S
C1829 C1828 1.377 . S
C1829 C1830 1.379 . S
C1830 H1814 0.931 . S
C1830 C1824 1.383 . S
C1830 C1829 1.379 . S
H1831 C1825 0.959 . S
H1832 C1825 0.961 . S
H1833 C1825 0.960 . S
H1834 C1826 0.930 . S
H1835 C1827 0.929 . S
H1836 C1844 0.929 . S
H1837 C1846 0.930 . S
H1838 C1848 0.930 . S
H1839 C1851 0.929 . S
H1840 C1854 0.930 . S
H1841 C1856 0.960 . S
H1842 C1856 0.960 . S
H1843 C1856 0.960 . S
C1844 H1836 0.929 . S
C1844 C1845 1.377 . S
C1844 C1846 1.384 . S
C1845 C1844 1.377 . S
C1845 C1851 1.390 . S
C1846 H1837 0.930 . S
C1846 C1844 1.384 . S
C1846 C1847 1.372 . S
C1847 C1846 1.372 . S
C1847 C1848 1.400 . S
C1847 C1852 1.490 . S
C1848 H1838 0.930 . S
C1848 C1847 1.400 . S
C1848 C1851 1.386 . S
H1849 C1865 0.930 . S
H1850 C1866 0.931 . S
C1851 H1839 0.929 . S
C1851 C1845 1.390 . S
C1851 C1848 1.386 . S
C1852 C1847 1.490 . S
C1852 C1854 1.395 . S
C1852 C1855 1.403 . S
H1853 C1859 0.930 . S
C1854 H1840 0.930 . S
C1854 C1852 1.395 . S
C1854 C1857 1.403 . S
C1855 C1852 1.403 . S
C1855 C1856 1.524 . S
C1855 C1859 1.400 . S
C1856 H1841 0.960 . S
C1856 H1842 0.960 . S
C1856 H1843 0.960 . S
C1856 C1855 1.524 . S
C1857 C1854 1.403 . S
C1857 C1858 1.392 . S
C1857 C1861 1.495 . S
C1858 C1857 1.392 . S
C1858 C1859 1.385 . S
C1858 C1860 1.478 . S
C1859 H1853 0.930 . S
C1859 C1855 1.400 . S
C1859 C1858 1.385 . S
C1860 C1858 1.478 . S
C1860 C1862 1.381 . S
C1860 C1866 1.383 . S
C1861 C1857 1.495 . S
C1861 H1867 0.959 . S
C1861 H1868 0.961 . S
C1861 H1869 0.960 . S
C1862 C1860 1.381 . S
C1862 C1863 1.394 . S
C1862 H1870 0.930 . S
C1863 C1862 1.394 . S
C1863 C1864 1.383 . S
C1863 H1871 0.929 . S
C1864 C1863 1.383 . S
C1864 C1865 1.377 . S
C1865 H1849 0.930 . S
C1865 C1864 1.377 . S
C1865 C1866 1.379 . S
C1866 H1850 0.931 . S
C1866 C1860 1.383 . S
C1866 C1865 1.379 . S
H1867 C1861 0.959 . S
H1868 C1861 0.961 . S
H1869 C1861 0.960 . S
H1870 C1862 0.930 . S
H1871 C1863 0.929 . S
H1872 C1880 0.929 . S
H1873 C1882 0.930 . S
H1874 C1884 0.930 . S
H1875 C1887 0.929 . S
H1876 C1890 0.930 . S
H1877 C1892 0.960 . S
H1878 C1892 0.960 . S
H1879 C1892 0.960 . S
C1880 H1872 0.929 . S
C1880 C1881 1.377 . S
C1880 C1882 1.384 . S
C1881 C1880 1.377 . S
C1881 C1887 1.390 . S
C1882 H1873 0.930 . S
C1882 C1880 1.384 . S
C1882 C1883 1.372 . S
C1883 C1882 1.372 . S
C1883 C1884 1.400 . S
C1883 C1888 1.490 . S
C1884 H1874 0.930 . S
C1884 C1883 1.400 . S
C1884 C1887 1.386 . S
H1885 C1901 0.930 . S
H1886 C1902 0.931 . S
C1887 H1875 0.929 . S
C1887 C1881 1.390 . S
C1887 C1884 1.386 . S
C1888 C1883 1.490 . S
C1888 C1890 1.395 . S
C1888 C1891 1.403 . S
H1889 C1895 0.930 . S
C1890 H1876 0.930 . S
C1890 C1888 1.395 . S
C1890 C1893 1.403 . S
C1891 C1888 1.403 . S
C1891 C1892 1.524 . S
C1891 C1895 1.400 . S
C1892 H1877 0.960 . S
C1892 H1878 0.960 . S
C1892 H1879 0.960 . S
C1892 C1891 1.524 . S
C1893 C1890 1.403 . S
C1893 C1894 1.392 . S
C1893 C1897 1.495 . S
C1894 C1893 1.392 . S
C1894 C1895 1.385 . S
C1894 C1896 1.478 . S
C1895 H1889 0.930 . S
C1895 C1891 1.400 . S
C1895 C1894 1.385 . S
C1896 C1894 1.478 . S
C1896 C1898 1.381 . S
C1896 C1902 1.383 . S
C1897 C1893 1.495 . S
C1897 H1903 0.959 . S
C1897 H1904 0.961 . S
C1897 H1905 0.960 . S
C1898 C1896 1.381 . S
C1898 C1899 1.394 . S
C1898 H1906 0.930 . S
C1899 C1898 1.394 . S
C1899 C1900 1.383 . S
C1899 H1907 0.929 . S
C1900 C1899 1.383 . S
C1900 C1901 1.377 . S
C1901 H1885 0.930 . S
C1901 C1900 1.377 . S
C1901 C1902 1.379 . S
C1902 H1886 0.931 . S
C1902 C1896 1.383 . S
C1902 C1901 1.379 . S
H1903 C1897 0.959 . S
H1904 C1897 0.961 . S
H1905 C1897 0.960 . S
H1906 C1898 0.930 . S
H1907 C1899 0.929 . S
H1908 C1916 0.929 . S
H1909 C1918 0.930 . S
H1910 C1920 0.930 . S
H1911 C1923 0.929 . S
H1912 C1926 0.930 . S
H1913 C1928 0.960 . S
H1914 C1928 0.960 . S
H1915 C1928 0.960 . S
C1916 H1908 0.929 . S
C1916 C1917 1.377 . S
C1916 C1918 1.384 . S
C1917 C1916 1.377 . S
C1917 C1923 1.390 . S
C1918 H1909 0.930 . S
C1918 C1916 1.384 . S
C1918 C1919 1.372 . S
C1919 C1918 1.372 . S
C1919 C1920 1.400 . S
C1919 C1924 1.490 . S
C1920 H1910 0.930 . S
C1920 C1919 1.400 . S
C1920 C1923 1.386 . S
H1921 C1937 0.930 . S
H1922 C1938 0.931 . S
C1923 H1911 0.929 . S
C1923 C1917 1.390 . S
C1923 C1920 1.386 . S
C1924 C1919 1.490 . S
C1924 C1926 1.395 . S
C1924 C1927 1.403 . S
H1925 C1931 0.930 . S
C1926 H1912 0.930 . S
C1926 C1924 1.395 . S
C1926 C1929 1.403 . S
C1927 C1924 1.403 . S
C1927 C1928 1.524 . S
C1927 C1931 1.400 . S
C1928 H1913 0.960 . S
C1928 H1914 0.960 . S
C1928 H1915 0.960 . S
C1928 C1927 1.524 . S
C1929 C1926 1.403 . S
C1929 C1930 1.392 . S
C1929 C1933 1.495 . S
C1930 C1929 1.392 . S
C1930 C1931 1.385 . S
C1930 C1932 1.478 . S
C1931 H1925 0.930 . S
C1931 C1927 1.400 . S
C1931 C1930 1.385 . S
C1932 C1930 1.478 . S
C1932 C1934 1.381 . S
C1932 C1938 1.383 . S
C1933 C1929 1.495 . S
C1933 H1939 0.959 . S
C1933 H1940 0.961 . S
C1933 H1941 0.960 . S
C1934 C1932 1.381 . S
C1934 C1935 1.394 . S
C1934 H1942 0.930 . S
C1935 C1934 1.394 . S
C1935 C1936 1.383 . S
C1935 H1943 0.929 . S
C1936 C1935 1.383 . S
C1936 C1937 1.377 . S
C1937 H1921 0.930 . S
C1937 C1936 1.377 . S
C1937 C1938 1.379 . S
C1938 H1922 0.931 . S
C1938 C1932 1.383 . S
C1938 C1937 1.379 . S
H1939 C1933 0.959 . S
H1940 C1933 0.961 . S
H1941 C1933 0.960 . S
H1942 C1934 0.930 . S
H1943 C1935 0.929 . S
H1944 C1952 0.929 . S
H1945 C1954 0.930 . S
H1946 C1956 0.930 . S
H1947 C1959 0.929 . S
H1948 C1962 0.930 . S
H1949 C1964 0.960 . S
H1950 C1964 0.960 . S
H1951 C1964 0.960 . S
C1952 H1944 0.929 . S
C1952 C1953 1.377 . S
C1952 C1954 1.384 . S
C1953 C1952 1.377 . S
C1953 C1959 1.390 . S
C1954 H1945 0.930 . S
C1954 C1952 1.384 . S
C1954 C1955 1.372 . S
C1955 C1954 1.372 . S
C1955 C1956 1.400 . S
C1955 C1960 1.490 . S
C1956 H1946 0.930 . S
C1956 C1955 1.400 . S
C1956 C1959 1.386 . S
H1957 C1973 0.930 . S
H1958 C1974 0.931 . S
C1959 H1947 0.929 . S
C1959 C1953 1.390 . S
C1959 C1956 1.386 . S
C1960 C1955 1.490 . S
C1960 C1962 1.395 . S
C1960 C1963 1.403 . S
H1961 C1967 0.930 . S
C1962 H1948 0.930 . S
C1962 C1960 1.395 . S
C1962 C1965 1.403 . S
C1963 C1960 1.403 . S
C1963 C1964 1.524 . S
C1963 C1967 1.400 . S
C1964 H1949 0.960 . S
C1964 H1950 0.960 . S
C1964 H1951 0.960 . S
C1964 C1963 1.524 . S
C1965 C1962 1.403 . S
C1965 C1966 1.392 . S
C1965 C1969 1.495 . S
C1966 C1965 1.392 . S
C1966 C1967 1.385 . S
C1966 C1968 1.478 . S
C1967 H1961 0.930 . S
C1967 C1963 1.400 . S
C1967 C1966 1.385 . S
C1968 C1966 1.478 . S
C1968 C1970 1.381 . S
C1968 C1974 1.383 . S
C1969 C1965 1.495 . S
C1969 H1975 0.959 . S
C1969 H1976 0.961 . S
C1969 H1977 0.960 . S
C1970 C1968 1.381 . S
C1970 C1971 1.394 . S
C1970 H1978 0.930 . S
C1971 C1970 1.394 . S
C1971 C1972 1.383 . S
C1971 H1979 0.929 . S
C1972 C1971 1.383 . S
C1972 C1973 1.377 . S
C1973 H1957 0.930 . S
C1973 C1972 1.377 . S
C1973 C1974 1.379 . S
C1974 H1958 0.931 . S
C1974 C1968 1.383 . S
C1974 C1973 1.379 . S
H1975 C1969 0.959 . S
H1976 C1969 0.961 . S
H1977 C1969 0.960 . S
H1978 C1970 0.930 . S
H1979 C1971 0.929 . S
H1980 C1988 0.929 . S
H1981 C1990 0.930 . S
H1982 C1992 0.930 . S
H1983 C1995 0.929 . S
H1984 C1998 0.930 . S
H1985 C2000 0.960 . S
H1986 C2000 0.960 . S
H1987 C2000 0.960 . S
C1988 H1980 0.929 . S
C1988 C1989 1.377 . S
C1988 C1990 1.384 . S
C1989 C1988 1.377 . S
C1989 C1995 1.390 . S
C1990 H1981 0.930 . S
C1990 C1988 1.384 . S
C1990 C1991 1.372 . S
C1991 C1990 1.372 . S
C1991 C1992 1.400 . S
C1991 C1996 1.490 . S
C1992 H1982 0.930 . S
C1992 C1991 1.400 . S
C1992 C1995 1.386 . S
H1993 C2009 0.930 . S
H1994 C2010 0.931 . S
C1995 H1983 0.929 . S
C1995 C1989 1.390 . S
C1995 C1992 1.386 . S
C1996 C1991 1.490 . S
C1996 C1998 1.395 . S
C1996 C1999 1.403 . S
H1997 C2003 0.930 . S
C1998 H1984 0.930 . S
C1998 C1996 1.395 . S
C1998 C2001 1.403 . S
C1999 C1996 1.403 . S
C1999 C2000 1.524 . S
C1999 C2003 1.400 . S
C2000 H1985 0.960 . S
C2000 H1986 0.960 . S
C2000 H1987 0.960 . S
C2000 C1999 1.524 . S
C2001 C1998 1.403 . S
C2001 C2002 1.392 . S
C2001 C2005 1.495 . S
C2002 C2001 1.392 . S
C2002 C2003 1.385 . S
C2002 C2004 1.478 1_655 S
C2003 H1997 0.930 . S
C2003 C1999 1.400 . S
C2003 C2002 1.385 . S
C2004 C2002 1.478 1_455 S
C2004 C2006 1.381 . S
C2004 C2010 1.383 . S
C2005 C2001 1.495 . S
C2005 H2011 0.959 . S
C2005 H2012 0.961 1_655 S
C2005 H2013 0.981 . S
C2006 C2004 1.381 . S
C2006 C2007 1.394 . S
C2006 H2014 0.930 . S
C2007 C2006 1.394 . S
C2007 C2008 1.383 . S
C2007 H2015 0.929 . S
C2008 C2007 1.383 . S
C2008 C2009 1.377 . S
C2009 H1993 0.930 . S
C2009 C2008 1.377 . S
C2009 C2010 1.379 . S
C2010 H1994 0.931 . S
C2010 C2004 1.383 . S
C2010 C2009 1.379 . S
H2011 C2005 0.959 . S
H2012 C2005 0.961 1_455 S
H2013 C2005 0.981 . S
H2014 C2006 0.930 . S
H2015 C2007 0.929 . S
H2016 C2024 0.929 . S
H2017 C2026 0.930 . S
H2018 C2028 0.930 . S
H2019 C2031 0.929 . S
H2020 C2034 0.930 . S
H2021 C2036 0.960 . S
H2022 C2036 0.960 . S
H2023 C2036 0.960 . S
C2024 H2016 0.929 . S
C2024 C2025 1.377 1_545 S
C2024 C2026 1.384 . S
C2025 C2024 1.377 1_565 S
C2025 C2031 1.390 . S
C2026 H2017 0.930 . S
C2026 C2024 1.384 . S
C2026 C2027 1.372 . S
C2027 C2026 1.372 . S
C2027 C2028 1.400 . S
C2027 C2032 1.490 . S
C2028 H2018 0.930 . S
C2028 C2027 1.400 . S
C2028 C2031 1.386 1_545 S
H2029 C2045 0.930 . S
H2030 C2046 0.931 . S
C2031 H2019 0.929 . S
C2031 C2025 1.390 . S
C2031 C2028 1.386 1_565 S
C2032 C2027 1.490 . S
C2032 C2034 1.395 . S
C2032 C2035 1.403 . S
H2033 C2039 0.930 . S
C2034 H2020 0.930 . S
C2034 C2032 1.395 . S
C2034 C2037 1.403 . S
C2035 C2032 1.403 . S
C2035 C2036 1.524 . S
C2035 C2039 1.400 . S
C2036 H2021 0.960 . S
C2036 H2022 0.960 . S
C2036 H2023 0.960 . S
C2036 C2035 1.524 . S
C2037 C2034 1.403 . S
C2037 C2038 1.392 . S
C2037 C2041 1.495 . S
C2038 C2037 1.392 . S
C2038 C2039 1.385 . S
C2038 C2040 1.478 . S
C2039 H2033 0.930 . S
C2039 C2035 1.400 . S
C2039 C2038 1.385 . S
C2040 C2038 1.478 . S
C2040 C2042 1.381 . S
C2040 C2046 1.383 . S
C2041 C2037 1.495 . S
C2041 H2047 0.959 . S
C2041 H2048 0.961 . S
C2041 H2049 0.960 . S
C2042 C2040 1.381 . S
C2042 C2043 1.394 . S
C2042 H2050 0.930 . S
C2043 C2042 1.394 . S
C2043 C2044 1.383 . S
C2043 H2051 0.929 . S
C2044 C2043 1.383 . S
C2044 C2045 1.377 . S
C2045 H2029 0.930 . S
C2045 C2044 1.377 . S
C2045 C2046 1.379 . S
C2046 H2030 0.931 . S
C2046 C2040 1.383 . S
C2046 C2045 1.379 . S
H2047 C2041 0.959 . S
H2048 C2041 0.961 . S
H2049 C2041 0.960 . S
H2050 C2042 0.930 . S
H2051 C2043 0.929 . S
H2052 C2060 0.929 . S
H2053 C2062 0.930 . S
H2054 C2064 0.930 . S
H2055 C2067 0.929 . S
H2056 C2070 0.930 . S
H2057 C2072 0.960 . S
H2058 C2072 0.960 . S
H2059 C2072 0.960 . S
C2060 H2052 0.929 . S
C2060 C2061 1.377 . S
C2060 C2062 1.384 1_565 S
C2061 C2060 1.377 . S
C2061 C2067 1.390 . S
C2062 H2053 0.930 . S
C2062 C2060 1.384 1_545 S
C2062 C2063 1.372 . S
C2063 C2062 1.372 . S
C2063 C2064 1.400 . S
C2063 C2068 1.490 . S
C2064 H2054 0.930 . S
C2064 C2063 1.400 . S
C2064 C2067 1.386 1_545 S
H2065 C2081 0.930 . S
H2066 C2082 0.931 . S
C2067 H2055 0.929 . S
C2067 C2061 1.390 . S
C2067 C2064 1.386 1_565 S
C2068 C2063 1.490 . S
C2068 C2070 1.395 . S
C2068 C2071 1.403 . S
H2069 C2075 0.930 . S
C2070 H2056 0.930 . S
C2070 C2068 1.395 . S
C2070 C2073 1.403 . S
C2071 C2068 1.403 . S
C2071 C2072 1.524 . S
C2071 C2075 1.400 . S
C2072 H2057 0.960 . S
C2072 H2058 0.960 . S
C2072 H2059 0.960 . S
C2072 C2071 1.524 . S
C2073 C2070 1.403 . S
C2073 C2074 1.392 . S
C2073 C2077 1.495 . S
C2074 C2073 1.392 . S
C2074 C2075 1.385 . S
C2074 C2076 1.478 . S
C2075 H2069 0.930 . S
C2075 C2071 1.400 . S
C2075 C2074 1.385 . S
C2076 C2074 1.478 . S
C2076 C2078 1.381 . S
C2076 C2082 1.383 1_655 S
C2077 C2073 1.495 . S
C2077 H2083 0.959 . S
C2077 H2084 0.961 . S
C2077 H2085 0.960 . S
C2078 C2076 1.381 . S
C2078 C2079 1.394 1_655 S
C2078 H2086 0.930 . S
C2079 C2078 1.394 1_455 S
C2079 C2080 1.383 . S
C2079 H2087 0.929 . S
C2080 C2079 1.383 . S
C2080 C2081 1.377 . S
C2081 H2065 0.930 . S
C2081 C2080 1.377 . S
C2081 C2082 1.379 . S
C2082 H2066 0.931 . S
C2082 C2076 1.383 1_455 S
C2082 C2081 1.379 . S
H2083 C2077 0.959 . S
H2084 C2077 0.961 . S
H2085 C2077 0.960 . S
H2086 C2078 0.930 . S
H2087 C2079 0.929 . S
H2088 C2096 0.929 . S
H2089 C2098 0.930 . S
H2090 C2100 0.930 . S
H2091 C2103 0.929 . S
H2092 C2106 0.930 . S
H2093 C2108 0.960 . S
H2094 C2108 0.960 . S
H2095 C2108 0.960 . S
C2096 H2088 0.929 . S
C2096 C2097 1.377 . S
C2096 C2098 1.384 . S
C2097 C2096 1.377 . S
C2097 C2103 1.390 . S
C2098 H2089 0.930 . S
C2098 C2096 1.384 . S
C2098 C2099 1.372 . S
C2099 C2098 1.372 . S
C2099 C2100 1.400 . S
C2099 C2104 1.490 . S
C2100 H2090 0.930 . S
C2100 C2099 1.400 . S
C2100 C2103 1.386 . S
H2101 C2117 0.930 . S
H2102 C2118 0.931 . S
C2103 H2091 0.929 . S
C2103 C2097 1.390 . S
C2103 C2100 1.386 . S
C2104 C2099 1.490 . S
C2104 C2106 1.395 . S
C2104 C2107 1.403 . S
H2105 C2111 0.930 . S
C2106 H2092 0.930 . S
C2106 C2104 1.395 . S
C2106 C2109 1.403 . S
C2107 C2104 1.403 . S
C2107 C2108 1.524 . S
C2107 C2111 1.400 . S
C2108 H2093 0.960 . S
C2108 H2094 0.960 . S
C2108 H2095 0.960 . S
C2108 C2107 1.524 . S
C2109 C2106 1.403 . S
C2109 C2110 1.392 . S
C2109 C2113 1.495 . S
C2110 C2109 1.392 . S
C2110 C2111 1.385 . S
C2110 C2112 1.478 1_565 S
C2111 H2105 0.930 . S
C2111 C2107 1.400 . S
C2111 C2110 1.385 . S
C2112 C2110 1.478 1_545 S
C2112 C2114 1.381 . S
C2112 C2118 1.383 . S
C2113 C2109 1.495 . S
C2113 H2119 0.959 . S
C2113 H2120 0.961 1_565 S
C2113 H2121 0.960 1_565 S
C2114 C2112 1.381 . S
C2114 C2115 1.394 . S
C2114 H2122 0.930 . S
C2115 C2114 1.394 . S
C2115 C2116 1.383 . S
C2115 H2123 0.929 . S
C2116 C2115 1.383 . S
C2116 C2117 1.377 . S
C2117 H2101 0.930 . S
C2117 C2116 1.377 . S
C2117 C2118 1.379 . S
C2118 H2102 0.931 . S
C2118 C2112 1.383 . S
C2118 C2117 1.379 . S
H2119 C2113 0.959 . S
H2120 C2113 0.961 1_545 S
H2121 C2113 0.960 1_545 S
H2122 C2114 0.930 . S
H2123 C2115 0.929 . S
H2124 C2132 0.929 . S
H2125 C2134 0.930 1_565 S
H2126 C2136 0.930 . S
H2127 C2139 0.929 . S
H2128 C2142 0.930 . S
H2129 C2144 0.960 . S
H2130 C2144 0.960 . S
H2131 C2144 0.960 . S
C2132 H2124 0.929 . S
C2132 C2133 1.377 . S
C2132 C2134 1.384 . S
C2133 C2132 1.377 . S
C2133 C2139 1.390 . S
C2134 H2125 0.930 1_545 S
C2134 C2132 1.384 . S
C2134 C2135 1.372 1_545 S
C2135 C2134 1.372 1_565 S
C2135 C2136 1.400 . S
C2135 C2140 1.490 . S
C2136 H2126 0.930 . S
C2136 C2135 1.400 . S
C2136 C2139 1.386 1_565 S
H2137 C2153 0.930 . S
H2138 C2154 0.931 . S
C2139 H2127 0.929 . S
C2139 C2133 1.390 . S
C2139 C2136 1.386 1_545 S
C2140 C2135 1.490 . S
C2140 C2142 1.395 . S
C2140 C2143 1.403 . S
H2141 C2147 0.930 . S
C2142 H2128 0.930 . S
C2142 C2140 1.395 . S
C2142 C2145 1.403 . S
C2143 C2140 1.403 . S
C2143 C2144 1.524 . S
C2143 C2147 1.400 . S
C2144 H2129 0.960 . S
C2144 H2130 0.960 . S
C2144 H2131 0.960 . S
C2144 C2143 1.524 . S
C2145 C2142 1.403 . S
C2145 C2146 1.392 . S
C2145 C2149 1.495 . S
C2146 C2145 1.392 . S
C2146 C2147 1.385 . S
C2146 C2148 1.478 . S
C2147 H2141 0.930 . S
C2147 C2143 1.400 . S
C2147 C2146 1.385 . S
C2148 C2146 1.478 . S
C2148 C2150 1.381 . S
C2148 C2154 1.383 . S
C2149 C2145 1.495 . S
C2149 H2155 0.959 . S
C2149 H2156 0.961 . S
C2149 H2157 0.960 . S
C2150 C2148 1.381 . S
C2150 C2151 1.394 1_455 S
C2150 H2158 0.930 . S
C2151 C2150 1.394 1_655 S
C2151 C2152 1.383 . S
C2151 H2159 0.929 . S
C2152 C2151 1.383 . S
C2152 C2153 1.377 . S
C2153 H2137 0.930 . S
C2153 C2152 1.377 . S
C2153 C2154 1.379 1_655 S
C2154 H2138 0.931 . S
C2154 C2148 1.383 . S
C2154 C2153 1.379 1_455 S
H2155 C2149 0.959 . S
H2156 C2149 0.961 . S
H2157 C2149 0.960 . S
H2158 C2150 0.930 . S
H2159 C2151 0.929 . S
H2160 C2168 0.929 . S
H2161 C2170 0.930 . S
H2162 C2172 0.930 . S
H2163 C2175 0.929 . S
H2164 C2178 0.930 . S
H2165 C2180 0.960 . S
H2166 C2180 0.960 . S
H2167 C2180 0.960 . S
C2168 H2160 0.929 . S
C2168 C2169 1.377 . S
C2168 C2170 1.384 . S
C2169 C2168 1.377 . S
C2169 C2175 1.390 . S
C2170 H2161 0.930 . S
C2170 C2168 1.384 . S
C2170 C2171 1.372 . S
C2171 C2170 1.372 . S
C2171 C2172 1.400 . S
C2171 C2176 1.490 . S
C2172 H2162 0.930 . S
C2172 C2171 1.400 . S
C2172 C2175 1.386 . S
H2173 C2189 0.936 . S
H2174 C2190 0.931 . S
C2175 H2163 0.929 . S
C2175 C2169 1.390 . S
C2175 C2172 1.386 . S
C2176 C2171 1.490 . S
C2176 C2178 1.395 . S
C2176 C2179 1.403 . S
H2177 C2183 0.930 . S
C2178 H2164 0.930 . S
C2178 C2176 1.395 . S
C2178 C2181 1.403 . S
C2179 C2176 1.403 . S
C2179 C2180 1.524 . S
C2179 C2183 1.400 . S
C2180 H2165 0.960 . S
C2180 H2166 0.960 . S
C2180 H2167 0.960 . S
C2180 C2179 1.524 . S
C2181 C2178 1.403 . S
C2181 C2182 1.392 . S
C2181 C2185 1.495 . S
C2182 C2181 1.392 . S
C2182 C2183 1.385 . S
C2182 C2184 1.478 . S
C2183 H2177 0.930 . S
C2183 C2179 1.400 . S
C2183 C2182 1.385 . S
C2184 C2182 1.478 . S
C2184 C2186 1.381 . S
C2184 C2190 1.383 . S
C2185 C2181 1.495 . S
C2185 H2191 0.959 . S
C2185 H2192 0.961 . S
C2185 H2193 0.960 . S
C2186 C2184 1.381 . S
C2186 C2187 1.394 . S
C2186 H2194 0.930 . S
C2187 C2186 1.394 . S
C2187 C2188 1.383 1_455 S
C2187 H2195 0.929 1_455 S
C2188 C2187 1.383 1_655 S
C2188 C2189 1.377 1_655 S
C2189 H2173 0.936 . S
C2189 C2188 1.377 1_455 S
C2189 C2190 1.379 . S
C2190 H2174 0.931 . S
C2190 C2184 1.383 . S
C2190 C2189 1.379 . S
H2191 C2185 0.959 . S
H2192 C2185 0.961 . S
H2193 C2185 0.960 . S
H2194 C2186 0.930 . S
H2195 C2187 0.929 1_655 S
H2196 C2204 0.929 . S
H2197 C2206 0.930 . S
H2198 C2208 0.930 . S
H2199 C2211 0.929 . S
H2200 C2214 0.930 . S
H2201 C2216 0.960 . S
H2202 C2216 0.960 . S
H2203 C2216 0.960 . S
C2204 H2196 0.929 . S
C2204 C2205 1.377 . S
C2204 C2206 1.384 . S
C2205 C2204 1.377 . S
C2205 C2211 1.390 . S
C2206 H2197 0.930 . S
C2206 C2204 1.384 . S
C2206 C2207 1.372 . S
C2207 C2206 1.372 . S
C2207 C2208 1.400 . S
C2207 C2212 1.490 . S
C2208 H2198 0.930 . S
C2208 C2207 1.400 . S
C2208 C2211 1.386 . S
H2209 C2225 0.930 . S
H2210 C2226 0.931 . S
C2211 H2199 0.929 . S
C2211 C2205 1.390 . S
C2211 C2208 1.386 . S
C2212 C2207 1.490 . S
C2212 C2214 1.395 . S
C2212 C2215 1.403 . S
H2213 C2219 0.930 . S
C2214 H2200 0.930 . S
C2214 C2212 1.395 . S
C2214 C2217 1.403 . S
C2215 C2212 1.403 . S
C2215 C2216 1.524 . S
C2215 C2219 1.400 . S
C2216 H2201 0.960 . S
C2216 H2202 0.960 . S
C2216 H2203 0.960 . S
C2216 C2215 1.524 . S
C2217 C2214 1.403 . S
C2217 C2218 1.392 . S
C2217 C2221 1.495 . S
C2218 C2217 1.392 . S
C2218 C2219 1.385 . S
C2218 C2220 1.478 . S
C2219 H2213 0.930 . S
C2219 C2215 1.400 . S
C2219 C2218 1.385 . S
C2220 C2218 1.478 . S
C2220 C2222 1.381 . S
C2220 C2226 1.383 . S
C2221 C2217 1.495 . S
C2221 H2227 0.959 . S
C2221 H2228 0.961 . S
C2221 H2229 0.960 . S
C2222 C2220 1.381 . S
C2222 C2223 1.394 . S
C2222 H2230 0.930 . S
C2223 C2222 1.394 . S
C2223 C2224 1.383 . S
C2223 H2231 0.929 . S
C2224 C2223 1.383 . S
C2224 C2225 1.377 . S
C2225 H2209 0.930 . S
C2225 C2224 1.377 . S
C2225 C2226 1.379 . S
C2226 H2210 0.931 . S
C2226 C2220 1.383 . S
C2226 C2225 1.379 . S
H2227 C2221 0.959 . S
H2228 C2221 0.961 . S
H2229 C2221 0.960 . S
H2230 C2222 0.930 . S
H2231 C2223 0.929 . S
H2232 C2240 0.929 . S
H2233 C2242 0.930 . S
H2234 C2244 0.930 . S
H2235 C2247 0.929 . S
H2236 C2250 0.930 . S
H2237 C2252 0.960 . S
H2238 C2252 0.960 . S
H2239 C2252 0.960 . S
C2240 H2232 0.929 . S
C2240 C2241 1.377 . S
C2240 C2242 1.384 . S
C2241 C2240 1.377 . S
C2241 C2247 1.390 . S
C2242 H2233 0.930 . S
C2242 C2240 1.384 . S
C2242 C2243 1.372 . S
C2243 C2242 1.372 . S
C2243 C2244 1.400 . S
C2243 C2248 1.490 . S
C2244 H2234 0.930 . S
C2244 C2243 1.400 . S
C2244 C2247 1.386 . S
H2245 C2261 0.930 . S
H2246 C2262 0.931 . S
C2247 H2235 0.929 . S
C2247 C2241 1.390 . S
C2247 C2244 1.386 . S
C2248 C2243 1.490 . S
C2248 C2250 1.395 . S
C2248 C2251 1.403 . S
H2249 C2255 0.930 . S
C2250 H2236 0.930 . S
C2250 C2248 1.395 . S
C2250 C2253 1.403 . S
C2251 C2248 1.403 . S
C2251 C2252 1.524 . S
C2251 C2255 1.400 . S
C2252 H2237 0.960 . S
C2252 H2238 0.960 . S
C2252 H2239 0.960 . S
C2252 C2251 1.524 . S
C2253 C2250 1.403 . S
C2253 C2254 1.392 . S
C2253 C2257 1.495 . S
C2254 C2253 1.392 . S
C2254 C2255 1.385 . S
C2254 C2256 1.478 . S
C2255 H2249 0.930 . S
C2255 C2251 1.400 . S
C2255 C2254 1.385 . S
C2256 C2254 1.478 . S
C2256 C2258 1.381 . S
C2256 C2262 1.383 . S
C2257 C2253 1.495 . S
C2257 H2263 0.959 . S
C2257 H2264 0.961 . S
C2257 H2265 0.960 . S
C2258 C2256 1.381 . S
C2258 C2259 1.394 . S
C2258 H2266 0.930 . S
C2259 C2258 1.394 . S
C2259 C2260 1.383 . S
C2259 H2267 0.929 . S
C2260 C2259 1.383 . S
C2260 C2261 1.377 . S
C2261 H2245 0.930 . S
C2261 C2260 1.377 . S
C2261 C2262 1.379 . S
C2262 H2246 0.931 . S
C2262 C2256 1.383 . S
C2262 C2261 1.379 . S
H2263 C2257 0.959 . S
H2264 C2257 0.961 . S
H2265 C2257 0.960 . S
H2266 C2258 0.930 . S
H2267 C2259 0.929 . S
H2268 C2276 0.929 . S
H2269 C2278 0.930 . S
H2270 C2280 0.930 . S
H2271 C2283 0.929 . S
H2272 C2286 0.930 . S
H2273 C2288 0.960 . S
H2274 C2288 0.960 . S
H2275 C2288 0.960 . S
C2276 H2268 0.929 . S
C2276 C2277 1.377 . S
C2276 C2278 1.384 . S
C2277 C2276 1.377 . S
C2277 C2283 1.390 . S
C2278 H2269 0.930 . S
C2278 C2276 1.384 . S
C2278 C2279 1.372 . S
C2279 C2278 1.372 . S
C2279 C2280 1.400 . S
C2279 C2284 1.490 . S
C2280 H2270 0.930 . S
C2280 C2279 1.400 . S
C2280 C2283 1.386 . S
H2281 C2297 0.930 . S
H2282 C2298 0.931 . S
C2283 H2271 0.929 . S
C2283 C2277 1.390 . S
C2283 C2280 1.386 . S
C2284 C2279 1.490 . S
C2284 C2286 1.395 . S
C2284 C2287 1.403 . S
H2285 C2291 0.930 . S
C2286 H2272 0.930 . S
C2286 C2284 1.395 . S
C2286 C2289 1.403 . S
C2287 C2284 1.403 . S
C2287 C2288 1.524 . S
C2287 C2291 1.400 . S
C2288 H2273 0.960 . S
C2288 H2274 0.960 . S
C2288 H2275 0.960 . S
C2288 C2287 1.524 . S
C2289 C2286 1.403 . S
C2289 C2290 1.392 . S
C2289 C2293 1.495 . S
C2290 C2289 1.392 . S
C2290 C2291 1.385 . S
C2290 C2292 1.478 . S
C2291 H2285 0.930 . S
C2291 C2287 1.400 . S
C2291 C2290 1.385 . S
C2292 C2290 1.478 . S
C2292 C2294 1.381 . S
C2292 C2298 1.383 . S
C2293 C2289 1.495 . S
C2293 H2299 0.959 . S
C2293 H2300 0.961 . S
C2293 H2301 0.960 . S
C2294 C2292 1.381 . S
C2294 C2295 1.394 . S
C2294 H2302 0.930 . S
C2295 C2294 1.394 . S
C2295 C2296 1.383 . S
C2295 H2303 0.929 . S
C2296 C2295 1.383 . S
C2296 C2297 1.377 . S
C2297 H2281 0.930 . S
C2297 C2296 1.377 . S
C2297 C2298 1.379 . S
C2298 H2282 0.931 . S
C2298 C2292 1.383 . S
C2298 C2297 1.379 . S
H2299 C2293 0.959 . S
H2300 C2293 0.961 . S
H2301 C2293 0.960 . S
H2302 C2294 0.930 . S
H2303 C2295 0.929 . S
C369 C2 0.888 . S
C388 C49 0.918 . S
C405 C9 0.886 . S
C424 C22 0.901 . S
C441 C29 0.890 . S
C460 C42 0.902 . S
C477 C62 0.888 . S
C496 C89 0.933 . S
C513 C109 0.885 . S
C532 C82 0.922 . S
C549 C102 0.886 . S
C568 C69 0.940 . S
C585 C169 0.882 . S
C604 C122 0.934 . S
C621 C129 0.884 . S
C640 C142 0.928 . S
C657 C162 0.904 . S
C676 C149 0.839 . S
C693 C209 0.900 . S
C712 C182 0.847 . S
C729 C202 0.904 . S
C748 C229 0.839 . S
C765 C189 0.886 . S
C784 C222 0.920 . S
C801 C242 0.899 . S
C820 C289 0.860 . S
C837 C249 0.879 . S
C856 C262 0.941 . S
C873 C269 0.899 . S
C892 C282 0.850 . S
C909 C329 0.917 . S
C928 C302 0.853 . S
C945 C349 0.901 . S
C964 C322 0.847 . S
C981 C309 0.880 . S
C1000 C342 0.938 . S
C1017 C19 1.760 . S
C1036 C119 1.743 . S
C1053 C79 1.762 . S
C1072 C39 1.743 . S
C1089 C99 1.767 . S
C1108 C59 1.771 . S
C1125 C139 1.764 . S
C1144 C239 1.775 . S
C1161 C159 1.760 . S
C1180 C199 1.743 . S
C1197 C219 1.760 . S
C1216 C179 1.760 . S
C1233 C259 1.761 . S
C1252 C359 1.742 . S
C1269 C319 1.760 . S
C1288 C279 1.745 . S
C1305 C339 1.766 . S
C1324 C299 1.759 . S
C1341 C218 1.932 . S
C1360 C18 1.911 1_565 S
C1377 C38 1.936 . S
C1396 C238 1.908 . S
C1413 C198 1.933 . S
C1432 C58 1.942 . S
C1449 C78 1.934 1_655 S
C1468 C298 1.907 . S
C1485 C98 1.936 . S
C1504 C258 1.916 . S
C1521 C278 1.936 . S
C1540 C118 1.907 . S
C1557 C338 1.936 . S
C1576 C138 1.907 . S
C1593 C158 1.931 . S
C1612 C358 1.913 . S
C1629 C178 1.929 . S
C1648 C318 1.925 . S
C1665 C52 1.483 . S
C1684 C4 1.402 . S
C1701 C12 1.483 . S
C1720 C24 1.404 . S
C1737 C44 1.368 . S
C1756 C32 1.485 . S
C1773 C92 1.482 . S
C1792 C64 1.407 . S
C1809 C112 1.479 . S
C1828 C84 1.334 . S
C1845 C104 1.376 . S
C1864 C72 1.496 . S
C1881 C172 1.478 . S
C1900 C124 1.332 . S
C1917 C144 1.372 . S
C1936 C132 1.455 . S
C1953 C152 1.474 . S
C1972 C164 1.343 . S
C1989 C184 1.377 . S
C2008 C212 1.464 . S
C2025 C204 1.382 . S
C2044 C232 1.488 . S
C2061 C192 1.483 . S
C2080 C224 1.374 . S
C2097 C244 1.375 . S
C2116 C292 1.459 . S
C2133 C264 1.376 . S
C2152 C252 1.462 . S
C2169 C272 1.478 . S
C2188 C284 1.404 . S
C2205 C304 1.378 . S
C2224 C332 1.466 . S
C2241 C324 1.371 . S
C2260 C352 1.491 . S
C2277 C312 1.475 . S
C2296 C344 1.333 . S
