# Generated by pormake.
# Topology wme, (6)-cn, num edge types: 1
# Building blocks:
#     Node 0, Type 0, BuildingBlock: PAMTUU_clean_sbu_0, # of connection points: 6
#     Node 1, Type 0, BuildingBlock: PAMTUU_clean_sbu_0, # of connection points: 6
#     Node 2, Type 0, BuildingBlock: PAMTUU_clean_sbu_0, # of connection points: 6
#     Node 3, Type 0, BuildingBlock: PAMTUU_clean_sbu_0, # of connection points: 6
#     Node 4, Type 0, BuildingBlock: PAMTUU_clean_sbu_0, # of connection points: 6
#     Node 5, Type 0, BuildingBlock: PAMTUU_clean_sbu_0, # of connection points: 6
#     Node 6, Type 0, BuildingBlock: PAMTUU_clean_sbu_0, # of connection points: 6
#     Node 7, Type 0, BuildingBlock: PAMTUU_clean_sbu_0, # of connection points: 6
#     Node 8, Type 0, BuildingBlock: PAMTUU_clean_sbu_0, # of connection points: 6
#     Node 9, Type 0, BuildingBlock: PAMTUU_clean_sbu_0, # of connection points: 6
#     Node 10, Type 0, BuildingBlock: PAMTUU_clean_sbu_0, # of connection points: 6
#     Node 11, Type 0, BuildingBlock: PAMTUU_clean_sbu_0, # of connection points: 6
#     Edge 12, Type (0, 0), BuildingBlock: ZUJKAS_clean_linker_0, # of connection points: 2
#     Edge 13, Type (0, 0), BuildingBlock: ZUJKAS_clean_linker_0, # of connection points: 2
#     Edge 14, Type (0, 0), BuildingBlock: ZUJKAS_clean_linker_0, # of connection points: 2
#     Edge 15, Type (0, 0), BuildingBlock: ZUJKAS_clean_linker_0, # of connection points: 2
#     Edge 16, Type (0, 0), BuildingBlock: ZUJKAS_clean_linker_0, # of connection points: 2
#     Edge 17, Type (0, 0), BuildingBlock: ZUJKAS_clean_linker_0, # of connection points: 2
#     Edge 18, Type (0, 0), BuildingBlock: ZUJKAS_clean_linker_0, # of connection points: 2
#     Edge 19, Type (0, 0), BuildingBlock: ZUJKAS_clean_linker_0, # of connection points: 2
#     Edge 20, Type (0, 0), BuildingBlock: ZUJKAS_clean_linker_0, # of connection points: 2
#     Edge 21, Type (0, 0), BuildingBlock: ZUJKAS_clean_linker_0, # of connection points: 2
#     Edge 22, Type (0, 0), BuildingBlock: ZUJKAS_clean_linker_0, # of connection points: 2
#     Edge 23, Type (0, 0), BuildingBlock: ZUJKAS_clean_linker_0, # of connection points: 2
#     Edge 24, Type (0, 0), BuildingBlock: ZUJKAS_clean_linker_0, # of connection points: 2
#     Edge 25, Type (0, 0), BuildingBlock: ZUJKAS_clean_linker_0, # of connection points: 2
#     Edge 26, Type (0, 0), BuildingBlock: ZUJKAS_clean_linker_0, # of connection points: 2
#     Edge 27, Type (0, 0), BuildingBlock: ZUJKAS_clean_linker_0, # of connection points: 2
#     Edge 28, Type (0, 0), BuildingBlock: ZUJKAS_clean_linker_0, # of connection points: 2
#     Edge 29, Type (0, 0), BuildingBlock: ZUJKAS_clean_linker_0, # of connection points: 2
#     Edge 30, Type (0, 0), BuildingBlock: ZUJKAS_clean_linker_0, # of connection points: 2
#     Edge 31, Type (0, 0), BuildingBlock: ZUJKAS_clean_linker_0, # of connection points: 2
#     Edge 32, Type (0, 0), BuildingBlock: ZUJKAS_clean_linker_0, # of connection points: 2
#     Edge 33, Type (0, 0), BuildingBlock: ZUJKAS_clean_linker_0, # of connection points: 2
#     Edge 34, Type (0, 0), BuildingBlock: ZUJKAS_clean_linker_0, # of connection points: 2
#     Edge 35, Type (0, 0), BuildingBlock: ZUJKAS_clean_linker_0, # of connection points: 2
#     Edge 36, Type (0, 0), BuildingBlock: ZUJKAS_clean_linker_0, # of connection points: 2
#     Edge 37, Type (0, 0), BuildingBlock: ZUJKAS_clean_linker_0, # of connection points: 2
#     Edge 38, Type (0, 0), BuildingBlock: ZUJKAS_clean_linker_0, # of connection points: 2
#     Edge 39, Type (0, 0), BuildingBlock: ZUJKAS_clean_linker_0, # of connection points: 2
#     Edge 40, Type (0, 0), BuildingBlock: ZUJKAS_clean_linker_0, # of connection points: 2
#     Edge 41, Type (0, 0), BuildingBlock: ZUJKAS_clean_linker_0, # of connection points: 2
#     Edge 42, Type (0, 0), BuildingBlock: ZUJKAS_clean_linker_0, # of connection points: 2
#     Edge 43, Type (0, 0), BuildingBlock: ZUJKAS_clean_linker_0, # of connection points: 2
#     Edge 44, Type (0, 0), BuildingBlock: ZUJKAS_clean_linker_0, # of connection points: 2
#     Edge 45, Type (0, 0), BuildingBlock: ZUJKAS_clean_linker_0, # of connection points: 2
#     Edge 46, Type (0, 0), BuildingBlock: ZUJKAS_clean_linker_0, # of connection points: 2
#     Edge 47, Type (0, 0), BuildingBlock: ZUJKAS_clean_linker_0, # of connection points: 2
# Relax obj value: 0.083
# Max RMSD: 0.189
# Mean RMSD: 0.189
data_MOF--net-wme--node1-PAMTUU_clean_sbu_0--edge1-ZUJKAS_clean_linker_0
_symmetry_space_group_name_H-M    P1
_symmetry_Int_Tables_number       1
_symmetry_cell_setting            triclinic
loop_
_symmetry_equiv_pos_as_xyz
'x, y, z'
_cell_length_a     48.862237
_cell_length_b     48.86493
_cell_length_c     70.053401
_cell_angle_alpha  89.96642
_cell_angle_beta   90.155294
_cell_angle_gamma 119.83094
loop_
_atom_site_label
_atom_site_type_symbol
_atom_site_fract_x
_atom_site_fract_y
_atom_site_fract_z
_atom_type_partial_charge
Tb0 Tb 0.23906 0.32539 0.13005 0.0
Tb1 Tb 0.2061 0.36386 0.11127 0.0
C2 C 0.22199 0.36674 0.15542 0.0
C3 C 0.2513 0.25838 0.14102 0.0
C4 C 0.23225 0.19377 0.13742 0.0
C5 C 0.2638 0.21608 0.1417 0.0
C6 C 0.27321 0.24809 0.14352 0.0
C7 C 0.21982 0.23626 0.13664 0.0
C8 C 0.21034 0.20423 0.13496 0.0
C9 C 0.2616 0.2922 0.14248 0.0
O10 O 0.18836 0.29766 0.13545 0.0
O11 O 0.17121 0.31413 0.10982 0.0
O12 O 0.22754 0.35081 0.08801 0.0
O13 O 0.22222 0.30635 0.10199 0.0
O14 O 0.16629 0.36941 0.10889 0.0
O15 O 0.20819 0.39847 0.09246 0.0
O16 O 0.25231 0.39979 0.12068 0.0
O17 O 0.27757 0.37076 0.11975 0.0
O18 O 0.24318 0.35846 0.15176 0.0
O19 O 0.20147 0.3648 0.14244 0.0
C20 C 0.16582 0.29382 0.12356 0.0
O21 O 0.27031 0.30793 0.1265 0.0
O22 O 0.24352 0.29935 0.15246 0.0
C23 C 0.22752 0.32391 0.08687 0.0
C24 C 0.17743 0.42177 0.10184 0.0
C25 C 0.16831 0.47415 0.10756 0.0
C26 C 0.19051 0.47563 0.09424 0.0
C27 C 0.19489 0.44972 0.09136 0.0
C28 C 0.1555 0.4204 0.11534 0.0
C29 C 0.15103 0.44628 0.11817 0.0
C30 C 0.18046 0.39362 0.09752 0.0
C31 C 0.27826 0.39811 0.11991 0.0
H32 H 0.28117 0.20875 0.14385 0.0
H33 H 0.29762 0.26484 0.14682 0.0
H34 H 0.2026 0.24379 0.13444 0.0
H35 H 0.18598 0.18771 0.1314 0.0
H36 H 0.20391 0.49655 0.08562 0.0
H37 H 0.21159 0.45138 0.08063 0.0
H38 H 0.14141 0.39918 0.12357 0.0
H39 H 0.134 0.44443 0.1287 0.0
Tb40 Tb 0.93256 0.23014 0.63075 0.0
Tb41 Tb 0.8607 0.1995 0.61309 0.0
C42 C 0.87564 0.21353 0.65736 0.0
C43 C 1.01033 0.23807 0.63931 0.0
C44 C 0.05231 0.21471 0.63389 0.0
C45 C 0.06268 0.24438 0.64245 0.0
C46 C 0.04186 0.25593 0.64513 0.0
C47 C 0.99981 0.20851 0.63075 0.0
C48 C 0.02056 0.19692 0.62809 0.0
C49 C 0.98854 0.25035 0.64192 0.0
O50 O 0.90857 0.17944 0.63606 0.0
O51 O 0.87385 0.16326 0.61101 0.0
O52 O 0.89434 0.22049 0.58952 0.0
O53 O 0.93265 0.21272 0.6025 0.0
O54 O 0.81497 0.16067 0.61085 0.0
O55 O 0.82822 0.20342 0.59506 0.0
O56 O 0.87255 0.24588 0.62316 0.0
O57 O 0.92658 0.26981 0.62141 0.0
O58 O 0.90515 0.23412 0.65353 0.0
O59 O 0.85613 0.19437 0.6442 0.0
C60 C 0.88896 0.15723 0.62438 0.0
O61 O 0.98115 0.26004 0.62642 0.0
O62 O 0.96376 0.23299 0.65234 0.0
C63 C 0.92027 0.21884 0.58772 0.0
C64 C 0.77485 0.17358 0.60489 0.0
C65 C 0.71479 0.16612 0.61293 0.0
C66 C 0.72749 0.17383 0.59441 0.0
C67 C 0.75714 0.17744 0.59046 0.0
C68 C 0.76257 0.16643 0.62351 0.0
C69 C 0.73276 0.16261 0.62746 0.0
C70 C 0.80522 0.17571 0.59991 0.0
C71 C 0.90038 0.27137 0.62208 0.0
H72 H 0.08704 0.25895 0.64683 0.0
H73 H 0.05041 0.27887 0.65166 0.0
H74 H 0.97549 0.19438 0.62614 0.0
H75 H 1.01163 0.17385 0.62168 0.0
H76 H 0.71416 0.17632 0.58283 0.0
H77 H 0.76606 0.18279 0.57599 0.0
H78 H 0.77583 0.16347 0.63496 0.0
H79 H 0.72381 0.15702 0.64191 0.0
Tb80 Tb 0.7085 0.9239 0.1304 0.0
Tb81 Tb 0.6694 0.8504 0.11457 0.0
C82 C 0.67868 0.86642 0.15816 0.0
C83 C 0.77658 1.00278 0.14217 0.0
C84 C 0.84198 0.04671 0.14292 0.0
C85 C 0.82019 0.05424 0.15102 0.0
C86 C 0.78778 0.03247 0.15061 0.0
C87 C 0.79824 0.99484 0.13455 0.0
C88 C 0.83059 0.01652 0.13494 0.0
C89 C 0.74237 0.98122 0.13999 0.0
O90 O 0.744 0.91287 0.11973 0.0
O91 O 0.71574 0.85903 0.12258 0.0
O92 O 0.69513 0.88248 0.09101 0.0
O93 O 0.68837 0.92178 0.10265 0.0
O94 O 0.66025 0.80374 0.11587 0.0
O95 O 0.63922 0.81828 0.09381 0.0
O96 O 0.63421 0.86495 0.11709 0.0
O97 O 0.65917 0.90987 0.13595 0.0
O98 O 0.70415 0.89306 0.15384 0.0
O99 O 0.65859 0.84843 0.14492 0.0
C100 C 0.74263 0.88532 0.12072 0.0
O101 O 0.73302 0.97157 0.12263 0.0
O102 O 0.72897 0.95812 0.1522 0.0
C103 C 0.69418 0.90856 0.08827 0.0
C104 C 0.61145 0.76458 0.10333 0.0
C105 C 0.55758 0.7043 0.10757 0.0
C106 C 0.5775 0.71129 0.09167 0.0
C107 C 0.60413 0.74109 0.0896 0.0
C108 C 0.59142 0.75813 0.11906 0.0
C109 C 0.56463 0.72822 0.12115 0.0
C110 C 0.64102 0.7948 0.10133 0.0
C111 C 0.6337 0.88703 0.12763 0.0
H112 H 0.82805 0.07736 0.1571 0.0
H113 H 0.7714 0.03914 0.15644 0.0
H114 H 0.79003 0.97215 0.12784 0.0
H115 H 0.84666 1.00972 0.12881 0.0
H116 H 0.57249 0.69369 0.08077 0.0
H117 H 0.61932 0.74568 0.07736 0.0
H118 H 0.59679 0.77599 0.12985 0.0
H119 H 0.5499 0.72358 0.13361 0.0
Tb120 Tb 0.80277 0.70052 0.62632 0.0
Tb121 Tb 0.8377 0.66213 0.60994 0.0
C122 C 0.83152 0.67123 0.65363 0.0
C123 C 0.79057 0.76746 0.63866 0.0
C124 C 0.81165 0.83274 0.64027 0.0
C125 C 0.78256 0.8107 0.64839 0.0
C126 C 0.77211 0.77832 0.64756 0.0
C127 C 0.81993 0.78937 0.63099 0.0
C128 C 0.8304 0.82167 0.63181 0.0
C129 C 0.77826 0.73338 0.63619 0.0
O130 O 0.84941 0.73689 0.61674 0.0
O131 O 0.87534 0.70849 0.61782 0.0
O132 O 0.83282 0.68955 0.58672 0.0
O133 O 0.78639 0.68212 0.59803 0.0
O134 O 0.87531 0.6531 0.61106 0.0
O135 O 0.83909 0.63113 0.58949 0.0
O136 O 0.78768 0.62769 0.61127 0.0
O137 O 0.7687 0.65108 0.63206 0.0
O138 O 0.83014 0.69669 0.64941 0.0
O139 O 0.82904 0.65109 0.64032 0.0
C140 C 0.87558 0.73543 0.61717 0.0
O141 O 0.77889 0.72456 0.61874 0.0
O142 O 0.78806 0.71981 0.64829 0.0
C143 C 0.80618 0.68942 0.58393 0.0
C144 C 0.86431 0.60284 0.60002 0.0
C145 C 0.87101 0.54904 0.60523 0.0
C146 C 0.87335 0.56193 0.58694 0.0
C147 C 0.87011 0.58858 0.58439 0.0
C148 C 0.86099 0.58956 0.61826 0.0
C149 C 0.8644 0.56296 0.62084 0.0
C150 C 0.86425 0.63275 0.59712 0.0
C151 C 0.76556 0.62629 0.62263 0.0
H152 H 0.76739 0.81837 0.65484 0.0
H153 H 0.74927 0.76174 0.65344 0.0
H154 H 0.8344 0.78145 0.62394 0.0
H155 H 0.8531 0.83797 0.62566 0.0
H156 H 0.87873 0.55204 0.57463 0.0
H157 H 0.87294 0.59855 0.57023 0.0
H158 H 0.85639 0.60009 0.63056 0.0
H159 H 0.862 0.55338 0.63507 0.0
Tb160 Tb 0.11154 0.79637 0.12854 0.0
Tb161 Tb 0.18295 0.82668 0.11031 0.0
C162 C 0.16936 0.81343 0.15462 0.0
C163 C 0.03321 0.78737 0.13803 0.0
C164 C 0.99052 0.81033 0.13408 0.0
C165 C 0.99298 0.7971 0.15143 0.0
C166 C 1.01406 0.78571 0.15336 0.0
C167 C 0.03101 0.80069 0.12071 0.0
C168 C 1.0098 0.81189 0.11873 0.0
C169 C 0.05615 0.77633 0.14052 0.0
O170 O 0.13537 0.84731 0.13309 0.0
O171 O 0.16958 0.8627 0.10791 0.0
O172 O 0.14864 0.80528 0.08698 0.0
O173 O 0.11011 0.81255 0.10012 0.0
O174 O 0.22849 0.86565 0.10765 0.0
O175 O 0.21512 0.82253 0.09228 0.0
O176 O 0.17136 0.78039 0.12042 0.0
O177 O 0.11725 0.7565 0.11933 0.0
O178 O 0.1398 0.79271 0.15099 0.0
O179 O 0.18841 0.83259 0.14137 0.0
C180 C 0.15466 0.86911 0.12114 0.0
O181 O 0.06291 0.76546 0.12531 0.0
O182 O 0.08135 0.79489 0.15037 0.0
C183 C 0.12252 0.80665 0.08531 0.0
C184 C 0.26869 0.85347 0.10144 0.0
C185 C 0.32912 0.86241 0.1102 0.0
C186 C 0.32166 0.86738 0.09156 0.0
C187 C 0.29179 0.86299 0.08726 0.0
C188 C 0.27566 0.84791 0.12001 0.0
C189 C 0.30564 0.85233 0.12436 0.0
C190 C 0.23802 0.85062 0.09661 0.0
C191 C 0.14345 0.75491 0.1197 0.0
H192 H 0.97896 0.79597 0.16367 0.0
H193 H 1.01565 0.77586 0.1669 0.0
H194 H 0.04573 0.80249 0.1087 0.0
H195 H 1.00831 0.82148 0.10508 0.0
H196 H 0.33887 0.87452 0.08021 0.0
H197 H 0.28679 0.86728 0.07283 0.0
H198 H 0.25809 0.84057 0.13118 0.0
H199 H 0.31061 0.84846 0.13887 0.0
Tb200 Tb 0.33343 0.10126 0.62503 0.0
Tb201 Tb 0.37452 0.17532 0.61122 0.0
C202 C 0.36296 0.1567 0.65426 0.0
C203 C 0.26224 0.02434 0.63367 0.0
C204 C 0.19603 0.98498 0.63331 0.0
C205 C 0.21476 0.97989 0.64655 0.0
C206 C 0.24762 0.99936 0.64668 0.0
C207 C 0.2435 0.02999 0.62079 0.0
C208 C 0.21076 1.01043 0.62055 0.0
C209 C 0.29694 0.04399 0.63328 0.0
O210 O 0.29944 0.11402 0.61384 0.0
O211 O 0.32828 0.16726 0.61893 0.0
O212 O 0.34959 0.1455 0.58658 0.0
O213 O 0.35421 0.10439 0.59743 0.0
O214 O 0.38366 0.22189 0.61314 0.0
O215 O 0.40772 0.20897 0.59228 0.0
O216 O 0.40829 0.15888 0.61346 0.0
O217 O 0.382 0.11351 0.63168 0.0
O218 O 0.33735 0.13081 0.64907 0.0
O219 O 0.38401 0.17511 0.64165 0.0
C220 C 0.30119 0.14156 0.61605 0.0
O221 O 0.30925 0.05391 0.61648 0.0
O222 O 0.30975 0.06632 0.64602 0.0
C223 C 0.3498 0.11915 0.5833 0.0
C224 C 0.43556 0.26102 0.60479 0.0
C225 C 0.49032 0.31932 0.61266 0.0
C226 C 0.48126 0.30924 0.59372 0.0
C227 C 0.45411 0.28044 0.58985 0.0
C228 C 0.44493 0.2706 0.62375 0.0
C229 C 0.47199 0.29955 0.62764 0.0
C230 C 0.40569 0.23203 0.60021 0.0
C231 C 0.40796 0.13612 0.62375 0.0
H232 H 0.20409 0.96033 0.65647 0.0
H233 H 0.26164 0.99465 0.65675 0.0
H234 H 0.2542 0.04929 0.61069 0.0
H235 H 0.19695 0.0152 0.61036 0.0
H236 H 0.49468 0.32403 0.58187 0.0
H237 H 0.44723 0.27359 0.57513 0.0
H238 H 0.43111 0.25597 0.63556 0.0
H239 H 0.47856 0.30648 0.64237 0.0
Tb240 Tb 0.70755 0.79462 0.38594 0.0
Tb241 Tb 0.66925 0.82957 0.4023 0.0
C242 C 0.67792 0.82301 0.35863 0.0
C243 C 0.77428 0.78229 0.37311 0.0
C244 C 0.83948 0.80318 0.37113 0.0
C245 C 0.81717 0.77363 0.36359 0.0
C246 C 0.78484 0.76327 0.36462 0.0
C247 C 0.79646 0.81212 0.38015 0.0
C248 C 0.82872 0.82249 0.37916 0.0
C249 C 0.7403 0.77006 0.37595 0.0
O250 O 0.74402 0.8414 0.39552 0.0
O251 O 0.71545 0.86711 0.39428 0.0
O252 O 0.697 0.82491 0.42545 0.0
O253 O 0.68944 0.77836 0.41423 0.0
O254 O 0.65993 0.86698 0.40101 0.0
O255 O 0.63914 0.83163 0.42306 0.0
O256 O 0.63471 0.7796 0.40115 0.0
O257 O 0.65796 0.76022 0.38054 0.0
O258 O 0.70347 0.82179 0.36286 0.0
O259 O 0.65783 0.82055 0.37194 0.0
C260 C 0.74245 0.86752 0.3951 0.0
O261 O 0.73217 0.77131 0.39347 0.0
O262 O 0.72621 0.77935 0.36391 0.0
C263 C 0.69679 0.79826 0.42831 0.0
C264 C 0.61082 0.85703 0.41313 0.0
C265 C 0.55715 0.86393 0.40807 0.0
C266 C 0.57545 0.87476 0.42481 0.0
C267 C 0.602 0.87135 0.42728 0.0
C268 C 0.59224 0.84534 0.3966 0.0
C269 C 0.56558 0.84872 0.3941 0.0
C270 C 0.64062 0.85669 0.41544 0.0
C271 C 0.63326 0.75721 0.39001 0.0
H272 H 0.82462 0.75804 0.35748 0.0
H273 H 0.76805 0.74007 0.35923 0.0
H274 H 0.78876 0.82704 0.38687 0.0
H275 H 0.84523 0.84553 0.38486 0.0
H276 H 0.56935 0.88603 0.43601 0.0
H277 H 0.61604 0.8805 0.44015 0.0
H278 H 0.59875 0.83429 0.38546 0.0
H279 H 0.55214 0.84027 0.38099 0.0
Tb280 Tb 0.92959 0.69959 0.88235 0.0
Tb281 Tb 0.85605 0.66045 0.89769 0.0
C282 C 0.87243 0.66995 0.85425 0.0
C283 C 1.00851 0.76778 0.87105 0.0
C284 C 0.05283 0.83307 0.86992 0.0
C285 C 0.05802 0.81131 0.85961 0.0
C286 C 0.03608 0.77898 0.86021 0.0
C287 C 1.00279 0.78941 0.88094 0.0
C288 C 0.0247 0.82169 0.8804 0.0
C289 C 0.98687 0.73354 0.87293 0.0
O290 O 0.91865 0.73503 0.89319 0.0
O291 O 0.86495 0.70688 0.88965 0.0
O292 O 0.88777 0.68604 0.92148 0.0
O293 O 0.92731 0.67946 0.91009 0.0
O294 O 0.80951 0.65164 0.89615 0.0
O295 O 0.82352 0.62996 0.91807 0.0
O296 O 0.8708 0.62535 0.89536 0.0
O297 O 0.9155 0.65034 0.87646 0.0
O298 O 0.89891 0.69548 0.85881 0.0
O299 O 0.85437 0.64969 0.86734 0.0
C300 C 0.89119 0.73375 0.89183 0.0
O301 O 0.97727 0.72369 0.89021 0.0
O302 O 0.9638 0.72043 0.86065 0.0
C303 C 0.91383 0.68511 0.92439 0.0
C304 C 0.76998 0.60271 0.90811 0.0
C305 C 0.70975 0.54906 0.90298 0.0
C306 C 0.71577 0.5697 0.91842 0.0
C307 C 0.74556 0.59622 0.92093 0.0
C308 C 0.76446 0.58198 0.89284 0.0
C309 C 0.73457 0.55529 0.89032 0.0
C310 C 0.80025 0.63211 0.9105 0.0
C311 C 0.89284 0.62486 0.88479 0.0
H312 H 0.07914 0.81923 0.85114 0.0
H313 H 0.04091 0.76267 0.85246 0.0
H314 H 0.98175 0.78124 0.88952 0.0
H315 H 1.02002 0.83759 0.88871 0.0
H316 H 0.69744 0.56534 0.92863 0.0
H317 H 0.74941 0.61196 0.9328 0.0
H318 H 0.78306 0.58672 0.88274 0.0
H319 H 0.73069 0.53998 0.87822 0.0
Tb320 Tb 0.23655 0.9225 0.38139 0.0
Tb321 Tb 0.20575 0.85019 0.3981 0.0
C322 C 0.22128 0.86652 0.35422 0.0
C323 C 0.24569 1.00122 0.37314 0.0
C324 C 0.22218 0.04331 0.37709 0.0
C325 C 0.23897 0.04393 0.36065 0.0
C326 C 0.25066 0.02311 0.35872 0.0
C327 C 0.22884 1.00042 0.38955 0.0
C328 C 0.21736 0.02139 0.39156 0.0
C329 C 0.2571 0.97863 0.37058 0.0
O330 O 0.18594 0.89848 0.37552 0.0
O331 O 0.16937 0.86316 0.40017 0.0
O332 O 0.22616 0.88329 0.42211 0.0
O333 O 0.21835 0.9218 0.40948 0.0
O334 O 0.16675 0.80455 0.39992 0.0
O335 O 0.20957 0.81704 0.41552 0.0
O336 O 0.25246 0.86257 0.38848 0.0
O337 O 0.27592 0.91643 0.3913 0.0
O338 O 0.24174 0.89583 0.35861 0.0
O339 O 0.20137 0.84662 0.36689 0.0
C340 C 0.16352 0.87854 0.38692 0.0
O341 O 0.26686 0.97091 0.38595 0.0
O342 O 0.23934 0.95407 0.36005 0.0
C343 C 0.22424 0.90905 0.42416 0.0
C344 C 0.17932 0.76399 0.40496 0.0
C345 C 0.17043 0.70362 0.3959 0.0
C346 C 0.17898 0.71596 0.4145 0.0
C347 C 0.18325 0.74573 0.41897 0.0
C348 C 0.17165 0.75223 0.38623 0.0
C349 C 0.1672 0.72233 0.38176 0.0
C350 C 0.18176 0.79431 0.41051 0.0
C351 C 0.27777 0.89042 0.39019 0.0
H352 H 0.24336 0.06074 0.34935 0.0
H353 H 0.26347 0.02398 0.34592 0.0
H354 H 0.22435 0.98344 0.40077 0.0
H355 H 0.20422 0.02009 0.40429 0.0
H356 H 0.18238 0.70261 0.42568 0.0
H357 H 0.18927 0.75436 0.43349 0.0
H358 H 0.16853 0.76587 0.37511 0.0
H359 H 0.16041 0.71357 0.36733 0.0
Tb360 Tb 0.33135 0.22995 0.87953 0.0
Tb361 Tb 0.36967 0.19745 0.89939 0.0
C362 C 0.37137 0.21052 0.85486 0.0
C363 C 0.26444 0.24227 0.86806 0.0
C364 C 0.19997 0.22394 0.87148 0.0
C365 C 0.21796 0.24279 0.85609 0.0
C366 C 0.24994 0.25194 0.85444 0.0
C367 C 0.2465 0.22311 0.8833 0.0
C368 C 0.21463 0.21421 0.88507 0.0
C369 C 0.29804 0.25176 0.86614 0.0
O370 O 0.30344 0.17898 0.87517 0.0
O371 O 0.31986 0.16294 0.90134 0.0
O372 O 0.35701 0.22005 0.92222 0.0
O373 O 0.31287 0.21505 0.90782 0.0
O374 O 0.37524 0.15773 0.90247 0.0
O375 O 0.40459 0.20036 0.9183 0.0
O376 O 0.40557 0.24308 0.88923 0.0
O377 O 0.37692 0.26877 0.88941 0.0
O378 O 0.36396 0.23246 0.85805 0.0
O379 O 0.36947 0.19075 0.86834 0.0
C380 C 0.29943 0.15704 0.88755 0.0
O381 O 0.31505 0.26228 0.88162 0.0
O382 O 0.3039 0.23202 0.85699 0.0
C383 C 0.33059 0.22108 0.92298 0.0
C384 C 0.42778 0.16918 0.90942 0.0
C385 C 0.48023 0.16003 0.90388 0.0
C386 C 0.48277 0.18461 0.91558 0.0
C387 C 0.45686 0.18903 0.91838 0.0
C388 C 0.4253 0.1448 0.89757 0.0
C389 C 0.4512 0.14034 0.8948 0.0
C390 C 0.3997 0.17242 0.91366 0.0
C391 C 0.40414 0.26919 0.88954 0.0
H392 H 0.20741 0.25085 0.84548 0.0
H393 H 0.26337 0.26661 0.84254 0.0
H394 H 0.25713 0.21499 0.89381 0.0
H395 H 0.20133 0.19935 0.89693 0.0
H396 H 0.50459 0.19995 0.92302 0.0
H397 H 0.45946 0.20769 0.92786 0.0
H398 H 0.40321 0.12883 0.89058 0.0
H399 H 0.44846 0.12141 0.88552 0.0
Tb400 Tb 0.11002 0.32471 0.38048 0.0
Tb401 Tb 0.18176 0.36611 0.39843 0.0
C402 C 0.16981 0.35865 0.35454 0.0
C403 C 0.0318 0.25437 0.37092 0.0
C404 C 0.98917 0.18907 0.3758 0.0
C405 C 1.00704 0.20038 0.359 0.0
C406 C 0.02799 0.23265 0.35655 0.0
C407 C 1.01381 0.24307 0.38769 0.0
C408 C 0.99278 0.21082 0.3901 0.0
C409 C 0.05463 0.28848 0.36836 0.0
O410 O 0.1213 0.29059 0.39292 0.0
O411 O 0.17502 0.32031 0.39047 0.0
O412 O 0.15018 0.33896 0.42181 0.0
O413 O 0.10699 0.33868 0.40928 0.0
O414 O 0.22856 0.37567 0.39891 0.0
O415 O 0.21313 0.39954 0.4183 0.0
O416 O 0.1623 0.3975 0.39711 0.0
O417 O 0.12345 0.37363 0.37418 0.0
O418 O 0.14345 0.33243 0.35802 0.0
O419 O 0.18582 0.37865 0.36827 0.0
C420 C 0.14924 0.29289 0.39221 0.0
O421 O 0.06116 0.30652 0.38331 0.0
O422 O 0.07999 0.29557 0.35866 0.0
C423 C 0.12199 0.33572 0.4239 0.0
C424 C 0.26644 0.42758 0.40799 0.0
C425 C 0.32552 0.48205 0.4014 0.0
C426 C 0.31528 0.47141 0.42009 0.0
C427 C 0.28608 0.44442 0.42333 0.0
C428 C 0.27611 0.43855 0.38929 0.0
C429 C 0.30545 0.46548 0.38603 0.0
C430 C 0.23712 0.39767 0.41179 0.0
C431 C 0.14248 0.39834 0.38467 0.0
H432 H 1.00447 0.18432 0.34758 0.0
H433 H 0.04126 0.24061 0.34339 0.0
H434 H 1.01605 0.25908 0.39906 0.0
H435 H 0.97957 0.20288 0.40327 0.0
H436 H 0.33026 0.48338 0.43224 0.0
H437 H 0.27914 0.43627 0.43784 0.0
H438 H 0.26127 0.42601 0.3772 0.0
H439 H 0.31247 0.47328 0.37148 0.0
Tb440 Tb 0.80267 0.10272 0.88317 0.0
Tb441 Tb 0.83298 0.17437 0.90088 0.0
C442 C 0.81863 0.15959 0.85672 0.0
C443 C 0.79477 0.02497 0.87411 0.0
C444 C 0.81759 0.98246 0.8791 0.0
C445 C 0.79046 0.97406 0.86798 0.0
C446 C 0.77918 0.99514 0.86552 0.0
C447 C 0.82188 0.03358 0.88515 0.0
C448 C 0.8332 1.01254 0.88762 0.0
C449 C 0.78279 0.04704 0.87157 0.0
O450 O 0.85352 0.12708 0.87812 0.0
O451 O 0.86911 0.16111 0.90343 0.0
O452 O 0.81219 0.14071 0.92452 0.0
O453 O 0.8196 0.10218 0.91152 0.0
O454 O 0.87181 0.22009 0.90316 0.0
O455 O 0.82888 0.20696 0.91864 0.0
O456 O 0.78632 0.16222 0.89105 0.0
O457 O 0.76272 0.10819 0.89253 0.0
O458 O 0.79795 0.13018 0.86066 0.0
O459 O 0.83829 0.17893 0.86975 0.0
C460 C 0.87545 0.14624 0.89012 0.0
O461 O 0.77275 0.05404 0.88704 0.0
O462 O 0.80055 0.07209 0.86145 0.0
C463 C 0.8137 0.11468 0.92629 0.0
C464 C 0.85852 0.26011 0.90833 0.0
C465 C 0.86516 0.31957 0.89933 0.0
C466 C 0.85648 0.30695 0.91782 0.0
C467 C 0.8533 0.27759 0.92226 0.0
C468 C 0.86665 0.27234 0.88974 0.0
C469 C 0.87007 0.30185 0.88531 0.0
C470 C 0.85658 0.22995 0.91378 0.0
C471 C 0.76094 0.13428 0.89207 0.0
H472 H 0.77811 0.95129 0.86099 0.0
H473 H 0.75829 0.98817 0.85689 0.0
H474 H 0.83422 0.05656 0.89192 0.0
H475 H 0.85389 0.01966 0.89645 0.0
H476 H 0.85285 0.3201 0.929 0.0
H477 H 0.84714 0.2687 0.93671 0.0
H478 H 0.87065 0.25928 0.87866 0.0
H479 H 0.8764 0.31073 0.87088 0.0
H480 H 0.19931 0.92183 0.1028 0.0
H481 H 0.20951 0.97584 0.10596 0.0
H482 H 0.1321 0.94445 0.14548 0.0
H483 H 0.12217 0.8903 0.14277 0.0
H484 H 0.17302 1.00167 0.09799 0.0
H485 H 0.20262 0.01534 0.17523 0.0
H486 H 0.1991 0.98265 0.16136 0.0
H487 H 0.16435 0.98263 0.16979 0.0
C488 C 0.18441 0.92633 0.1122 0.0
C489 C 0.16004 0.90171 0.12264 0.0
C490 C 0.1903 0.95728 0.11398 0.0
C491 C 0.17195 0.96435 0.12621 0.0
C492 C 0.1471 0.93973 0.13632 0.0
H493 H 0.17908 0.14292 0.15166 0.0
H494 H 0.16292 0.08691 0.14847 0.0
C495 C 0.14134 0.90873 0.13467 0.0
C496 C 0.17886 0.9975 0.12815 0.0
H497 H 0.19963 0.05729 0.16032 0.0
C498 C 0.17886 0.01381 0.11162 0.0
C499 C 0.18651 0.01339 0.14594 0.0
C500 C 0.18847 0.99775 0.16408 0.0
C501 C 0.18621 0.04548 0.11241 0.0
C502 C 0.19399 0.06134 0.13017 0.0
C503 C 0.19356 0.04499 0.14673 0.0
C504 C 0.20349 0.09518 0.13176 0.0
C505 C 0.18541 0.06172 0.09427 0.0
C506 C 0.23177 0.11835 0.12356 0.0
C507 C 0.2411 0.15032 0.12539 0.0
C508 C 0.22227 0.15974 0.13544 0.0
C509 C 0.19392 0.13642 0.14364 0.0
C510 C 0.18473 0.10445 0.14192 0.0
H511 H 0.17226 0.04457 0.0827 0.0
H512 H 0.17437 0.07651 0.0968 0.0
H513 H 0.20991 0.07741 0.08929 0.0
H514 H 0.24677 0.11169 0.11585 0.0
H515 H 0.26292 0.16766 0.11877 0.0
H516 H 0.29768 0.19523 0.61941 0.0
H517 H 0.2509 0.2006 0.62039 0.0
H518 H 0.19193 0.10016 0.61287 0.0
H519 H 0.23907 0.09434 0.61218 0.0
H520 H 0.20453 0.18546 0.5934 0.0
H521 H 0.1547 0.11804 0.66054 0.0
H522 H 0.1946 0.13098 0.65302 0.0
H523 H 0.16214 0.09759 0.64173 0.0
C524 C 0.27485 0.17413 0.61796 0.0
C525 C 0.27223 0.14428 0.61581 0.0
C526 C 0.24806 0.17732 0.61848 0.0
C527 C 0.21788 0.1508 0.61692 0.0
C528 C 0.21499 0.12092 0.61443 0.0
H529 H 0.05644 0.18236 0.60299 0.0
H530 H 0.09355 0.16315 0.59808 0.0
C531 C 0.24196 0.11765 0.61392 0.0
C532 C 0.18988 0.15511 0.61801 0.0
H533 H 0.12711 0.14073 0.64617 0.0
C534 C 0.18737 0.1754 0.60481 0.0
C535 C 0.16774 0.14224 0.63304 0.0
C536 C 0.16989 0.12118 0.64801 0.0
C537 C 0.1639 0.18387 0.6065 0.0
C538 C 0.1419 0.1712 0.62161 0.0
C539 C 0.14391 0.15029 0.63455 0.0
C540 C 0.11798 0.18102 0.62495 0.0
C541 C 0.16378 0.20743 0.59259 0.0
C542 C 0.11871 0.19659 0.64193 0.0
C543 C 0.09728 0.20726 0.6449 0.0
C544 C 0.07455 0.20252 0.63095 0.0
C545 C 0.07346 0.18627 0.6141 0.0
C546 C 0.09488 0.17554 0.61117 0.0
H547 H 0.18634 0.22017 0.58462 0.0
H548 H 0.14448 0.19486 0.58207 0.0
H549 H 0.15961 0.22503 0.6001 0.0
H550 H 0.13623 0.20093 0.65281 0.0
H551 H 0.09847 0.21914 0.65818 0.0
H552 H 0.87883 0.08904 0.17058 0.0
H553 H 0.93457 0.12959 0.16844 0.0
H554 H 0.93844 0.09917 0.11126 0.0
H555 H 0.8828 0.05873 0.11321 0.0
H556 H 0.99039 0.11002 0.1335 0.0
H557 H 0.96837 0.21096 0.13735 0.0
H558 H 0.95216 0.18359 0.15681 0.0
H559 H 0.93726 0.17103 0.13304 0.0
C560 C 0.89148 0.09108 0.15751 0.0
C561 C 0.87623 0.07065 0.14205 0.0
C562 C 0.92336 0.11428 0.15631 0.0
C563 C 0.94058 0.11771 0.13959 0.0
C564 C 0.92563 0.09696 0.1243 0.0
H565 H 0.11364 0.27933 0.10197 0.0
H566 H 0.06001 0.23567 0.10622 0.0
C567 C 0.89381 0.07375 0.12548 0.0
C568 C 0.97405 0.14312 0.13787 0.0
H569 H 0.02167 0.22322 0.13762 0.0
C570 C 0.99728 0.13478 0.13444 0.0
C571 C 0.98293 0.17543 0.13884 0.0
C572 C 0.95889 0.18592 0.14154 0.0
C573 C 0.02915 0.15786 0.13206 0.0
C574 C 0.03809 0.19015 0.13339 0.0
C575 C 1.01483 0.19846 0.13676 0.0
C576 C 0.0712 0.21582 0.13059 0.0
C577 C 0.05284 0.14752 0.12762 0.0
C578 C 0.09547 0.21923 0.14289 0.0
C579 C 0.12636 0.24424 0.14048 0.0
C580 C 0.1335 0.26643 0.12578 0.0
C581 C 0.10911 0.26274 0.11344 0.0
C582 C 0.07834 0.23779 0.11586 0.0
H583 H 0.04122 0.12267 0.12258 0.0
H584 H 0.06977 0.16288 0.11655 0.0
H585 H 0.06641 0.14932 0.14074 0.0
H586 H 0.09044 0.20289 0.15457 0.0
H587 H 0.1445 0.2464 0.15028 0.0
H588 H 0.83914 0.87429 0.6108 0.0
H589 H 0.85482 0.93015 0.60983 0.0
H590 H 0.82247 0.92466 0.66766 0.0
H591 H 0.80676 0.86862 0.66878 0.0
H592 H 0.80123 0.95452 0.64353 0.0
H593 H 0.93019 1.00478 0.63502 0.0
H594 H 0.90741 0.97524 0.61752 0.0
H595 H 0.90438 0.96448 0.6423 0.0
C596 C 0.83583 0.88504 0.62345 0.0
C597 C 0.82188 0.86698 0.63993 0.0
C598 C 0.84484 0.91703 0.62286 0.0
C599 C 0.84034 0.93175 0.63878 0.0
C600 C 0.82632 0.91381 0.65524 0.0
H601 H 0.9158 0.13516 0.65015 0.0
H602 H 0.9042 0.08066 0.6544 0.0
C603 C 0.81723 0.88176 0.65583 0.0
C604 C 0.84892 0.96546 0.6379 0.0
H605 H 0.91005 0.03964 0.62907 0.0
C606 C 0.82507 0.97316 0.64051 0.0
C607 C 0.88011 0.98982 0.63419 0.0
C608 C 0.90707 0.98327 0.63228 0.0
C609 C 0.83137 1.00442 0.63898 0.0
C610 C 0.86225 0.02858 0.63441 0.0
C611 C 0.88632 0.02104 0.63236 0.0
C612 C 0.8699 0.06174 0.63151 0.0
C613 C 0.80492 1.01132 0.64241 0.0
C614 C 0.85499 0.06929 0.61696 0.0
C615 C 0.8615 0.10034 0.61451 0.0
C616 C 0.88325 0.12458 0.62648 0.0
C617 C 0.8988 0.11707 0.64074 0.0
C618 C 0.89223 0.08594 0.64318 0.0
H619 H 0.78549 0.9923 0.6508 0.0
H620 H 0.81354 0.03403 0.6501 0.0
H621 H 0.79504 0.01306 0.62847 0.0
H622 H 0.8382 0.0511 0.60751 0.0
H623 H 0.84924 0.10524 0.6033 0.0
H624 H 0.93082 0.78513 0.14885 0.0
H625 H 0.89381 0.80474 0.14535 0.0
H626 H 0.96116 0.88165 0.11073 0.0
H627 H 0.99885 0.86282 0.11457 0.0
H628 H 0.90484 0.86892 0.15475 0.0
H629 H 0.87705 0.83501 0.07826 0.0
H630 H 0.89404 0.81766 0.09364 0.0
H631 H 0.91802 0.85715 0.08501 0.0
C632 C 0.93804 0.80646 0.14069 0.0
C633 C 0.96792 0.82232 0.13198 0.0
C634 C 0.91674 0.81753 0.13863 0.0
C635 C 0.92469 0.84449 0.12768 0.0
C636 C 0.95447 0.86057 0.11906 0.0
H637 H 0.80459 0.93283 0.12458 0.0
H638 H 0.85178 0.92715 0.12535 0.0
C639 C 0.9759 0.84964 0.1212 0.0
C640 C 0.90154 0.85546 0.12524 0.0
H641 H 0.85054 0.85843 0.09297 0.0
C642 C 0.8932 0.86701 0.14121 0.0
C643 C 0.88636 0.85275 0.10756 0.0
C644 C 0.89404 0.83982 0.0901 0.0
C645 C 0.86955 0.87536 0.14006 0.0
C646 C 0.85397 0.87213 0.12246 0.0
C647 C 0.86278 0.86117 0.10639 0.0
C648 C 0.82616 0.87661 0.12097 0.0
C649 C 0.86041 0.88628 0.15784 0.0
C650 C 0.79634 0.85026 0.11785 0.0
C651 C 0.76949 0.85341 0.11746 0.0
C652 C 0.77182 0.88307 0.12004 0.0
C653 C 0.8019 0.90968 0.12259 0.0
C654 C 0.82888 0.90645 0.12311 0.0
H655 H 0.87191 0.88357 0.17084 0.0
H656 H 0.8675 0.91156 0.15632 0.0
H657 H 0.83443 0.87279 0.15981 0.0
H658 H 0.79373 0.82705 0.11612 0.0
H659 H 0.74681 0.83238 0.1153 0.0
H660 H 0.93254 0.74167 0.60832 0.0
H661 H 0.98452 0.7881 0.61196 0.0
H662 H 0.94184 0.84205 0.63114 0.0
H663 H 0.88929 0.79547 0.62723 0.0
H664 H 0.99242 0.87576 0.60641 0.0
H665 H 0.02577 0.8201 0.66385 0.0
H666 H 1.01308 0.79643 0.64263 0.0
H667 H 0.98565 0.80387 0.65557 0.0
C668 C 0.93407 0.7634 0.61324 0.0
C669 C 0.9067 0.76474 0.61768 0.0
C670 C 0.96388 0.78992 0.6154 0.0
C671 C 0.96711 0.81831 0.62231 0.0
C672 C 0.93987 0.82026 0.62596 0.0
H673 H 0.15396 0.96169 0.66289 0.0
H674 H 0.09714 0.92445 0.66112 0.0
C675 C 0.90985 0.79365 0.62367 0.0
C676 C 0.99909 0.84552 0.62595 0.0
H677 H 0.06808 0.86579 0.6492 0.0
C678 C 1.0089 0.87377 0.61593 0.0
C679 C 1.02036 0.84318 0.63869 0.0
C680 C 1.0106 0.81438 0.65096 0.0
C681 C 0.0399 0.89919 0.61764 0.0
C682 C 0.06182 0.89595 0.62936 0.0
C683 C 0.05149 0.86822 0.64003 0.0
C684 C 0.0958 0.92039 0.63031 0.0
C685 C 0.04874 0.92923 0.60692 0.0
C686 C 0.11406 0.93042 0.61362 0.0
C687 C 0.14644 0.95182 0.61461 0.0
C688 C 0.16139 0.96324 0.63233 0.0
C689 C 0.14314 0.95315 0.64904 0.0
C690 C 0.11066 0.93198 0.64803 0.0
H691 H 0.02777 0.93191 0.60425 0.0
H692 H 0.06663 0.95028 0.61484 0.0
H693 H 0.05871 0.92847 0.59285 0.0
H694 H 0.10346 0.92107 0.59984 0.0
H695 H 0.15996 0.95872 0.60151 0.0
H696 H 0.11157 0.83943 0.40808 0.0
H697 H 0.05752 0.82866 0.4038 0.0
H698 H 0.08701 0.89351 0.35646 0.0
H699 H 0.14144 0.90485 0.36077 0.0
H700 H 0.04663 0.9005 0.38152 0.0
H701 H 0.99781 0.77514 0.361 0.0
H702 H 1.01879 0.7851 0.38329 0.0
H703 H 0.03964 0.80285 0.36156 0.0
C704 C 0.10668 0.85148 0.39674 0.0
C705 C 0.13089 0.87287 0.38468 0.0
C706 C 0.07567 0.84512 0.39425 0.0
C707 C 0.06812 0.8598 0.37958 0.0
C708 C 0.09229 0.88173 0.36778 0.0
H709 H 0.87457 0.79667 0.3428 0.0
H710 H 0.93054 0.81204 0.34381 0.0
C711 C 0.12339 0.88816 0.37027 0.0
C712 C 0.03501 0.85239 0.37669 0.0
H713 H 0.96052 0.79158 0.36812 0.0
C714 C 0.02781 0.87674 0.37847 0.0
C715 C 1.01055 0.82146 0.37241 0.0
C716 C 1.01705 0.79467 0.36926 0.0
C717 C 0.99667 0.8708 0.37665 0.0
C718 C 0.97202 0.83959 0.37324 0.0
C719 C 0.97937 0.81544 0.37091 0.0
C720 C 0.93837 0.83131 0.3724 0.0
C721 C 0.99052 0.89806 0.37823 0.0
C722 C 0.92409 0.83674 0.38819 0.0
C723 C 0.89216 0.82796 0.38766 0.0
C724 C 0.8737 0.81329 0.37137 0.0
C725 C 0.88804 0.80772 0.3556 0.0
C726 C 0.92005 0.81661 0.35613 0.0
H727 H 1.0121 0.92093 0.3752 0.0
H728 H 0.97155 0.89518 0.36827 0.0
H729 H 0.98293 0.89911 0.393 0.0
H730 H 0.93751 0.84724 0.40109 0.0
H731 H 0.88174 0.83199 0.40021 0.0
H732 H 0.04356 0.88417 0.86946 0.0
H733 H 0.0835 0.94012 0.87149 0.0
H734 H 0.15685 0.91557 0.87331 0.0
H735 H 0.11719 0.85964 0.87165 0.0
H736 H 0.12889 0.97095 0.90075 0.0
H737 H 0.18547 0.98205 0.83041 0.0
H738 H 0.14709 0.94936 0.83629 0.0
H739 H 0.18218 0.95019 0.84489 0.0
C740 C 0.06818 0.89061 0.87035 0.0
C741 C 0.07709 0.86728 0.87031 0.0
C742 C 0.09098 0.92263 0.87142 0.0
C743 C 0.12316 0.93203 0.87229 0.0
C744 C 0.13218 0.90889 0.87224 0.0
H745 H 0.28281 0.1063 0.91097 0.0
H746 H 0.23867 0.05268 0.9072 0.0
C747 C 0.10943 0.87688 0.87123 0.0
C748 C 0.14731 0.96596 0.8739 0.0
H749 H 0.21239 0.02496 0.85202 0.0
C750 C 0.14703 0.98283 0.89004 0.0
C751 C 0.17074 0.98152 0.85982 0.0
C752 C 0.17135 0.96499 0.84178 0.0
C753 C 0.1701 0.01462 0.89274 0.0
C754 C 0.19426 0.02982 0.87901 0.0
C755 C 0.194 0.01321 0.86261 0.0
C756 C 0.22042 0.06274 0.8816 0.0
C757 C 0.16835 0.03171 0.91021 0.0
C758 C 0.22515 0.08619 0.86829 0.0
C759 C 0.25047 0.11696 0.87037 0.0
C760 C 0.27176 0.12481 0.88571 0.0
C761 C 0.26686 0.10121 0.89903 0.0
C762 C 0.2415 0.07052 0.89696 0.0
H763 H 0.14432 0.01974 0.91652 0.0
H764 H 0.18503 0.03219 0.92117 0.0
H765 H 0.17505 0.05645 0.90677 0.0
H766 H 0.20924 0.08065 0.85627 0.0
H767 H 0.25355 0.13448 0.85982 0.0
H768 H 0.20298 0.28985 0.39691 0.0
H769 H 0.20947 0.24369 0.39462 0.0
H770 H 0.10944 0.18449 0.38547 0.0
H771 H 0.10253 0.23087 0.38799 0.0
H772 H 0.13595 0.15809 0.41058 0.0
H773 H 0.20446 0.20045 0.34361 0.0
H774 H 0.22032 0.22893 0.36254 0.0
H775 H 0.18176 0.21726 0.35309 0.0
C776 C 0.18224 0.26706 0.39448 0.0
C777 C 0.15225 0.26415 0.39241 0.0
C778 C 0.18606 0.24068 0.39311 0.0
C779 C 0.16008 0.21079 0.38944 0.0
C780 C 0.12985 0.20744 0.38814 0.0
H781 H 0.19182 0.05918 0.35016 0.0
H782 H 0.17294 0.09691 0.35319 0.0
C783 C 0.12595 0.23393 0.3896 0.0
C784 C 0.16498 0.18343 0.38659 0.0
H785 H 0.20668 0.15857 0.35974 0.0
C786 C 0.15114 0.15797 0.39935 0.0
C787 C 0.18437 0.18306 0.37173 0.0
C788 C 0.19833 0.20873 0.35684 0.0
C789 C 0.15721 0.13274 0.39811 0.0
C790 C 0.17812 0.13332 0.38393 0.0
C791 C 0.19094 0.15823 0.37074 0.0
C792 C 0.18763 0.10881 0.38263 0.0
C793 C 0.14103 0.10566 0.41194 0.0
C794 C 0.20231 0.10298 0.39814 0.0
C795 C 0.21305 0.08136 0.39645 0.0
C796 C 0.20977 0.06546 0.37912 0.0
C797 C 0.19501 0.07129 0.36363 0.0
C798 C 0.18406 0.09272 0.36538 0.0
H799 H 0.11891 0.10379 0.41755 0.0
H800 H 0.13531 0.0829 0.40513 0.0
H801 H 0.15693 0.10967 0.42425 0.0
H802 H 0.20619 0.11574 0.41142 0.0
H803 H 0.22473 0.07774 0.40855 0.0
H804 H 0.15443 0.20191 0.84365 0.0
H805 H 0.09874 0.18709 0.84693 0.0
H806 H 0.11324 0.20985 0.90686 0.0
H807 H 0.16892 0.22478 0.90373 0.0
H808 H 0.05186 0.13941 0.877 0.0
H809 H 0.07356 0.26249 0.88059 0.0
H810 H 0.10085 0.25283 0.86924 0.0
H811 H 0.09839 0.25281 0.89477 0.0
C812 C 0.14579 0.2039 0.85751 0.0
C813 C 0.1661 0.21459 0.87343 0.0
C814 C 0.11397 0.19525 0.85937 0.0
C815 C 0.10201 0.19752 0.87711 0.0
C816 C 0.12211 0.20804 0.89304 0.0
H817 H 0.92467 0.17836 0.91487 0.0
H818 H 0.97877 0.18874 0.91182 0.0
C819 C 0.15384 0.2164 0.89124 0.0
C820 C 0.06853 0.18917 0.87897 0.0
H821 H 0.02124 0.22151 0.88482 0.0
C822 C 0.04504 0.15728 0.87865 0.0
C823 C 0.05989 0.21259 0.88124 0.0
C824 C 0.08436 0.24717 0.8814 0.0
C825 C 1.01301 0.14811 0.88088 0.0
C826 C 1.00424 0.17158 0.88296 0.0
C827 C 0.02789 0.20351 0.88321 0.0
C828 C 0.9708 0.16371 0.88507 0.0
C829 C 0.98901 0.11339 0.88154 0.0
C830 C 0.94818 0.14616 0.87104 0.0
C831 C 0.91704 0.13992 0.87283 0.0
C832 C 0.90802 0.15153 0.88855 0.0
C833 C 0.93075 0.16907 0.90256 0.0
C834 C 0.96175 0.17507 0.90084 0.0
H835 H 1.00008 0.09902 0.88541 0.0
H836 H 0.97006 0.10848 0.89199 0.0
H837 H 0.97806 0.10561 0.86723 0.0
H838 H 0.95471 0.13779 0.85851 0.0
H839 H 0.90023 0.12653 0.8617 0.0
H840 H 0.99746 0.13897 0.36688 0.0
H841 H 0.95905 0.08255 0.37 0.0
H842 H 0.89146 0.10536 0.39363 0.0
H843 H 0.92936 0.16162 0.39027 0.0
H844 H 0.92513 0.04669 0.40418 0.0
H845 H 0.84607 0.04667 0.34711 0.0
H846 H 0.88659 0.07773 0.34959 0.0
H847 H 0.8567 0.0768 0.36491 0.0
C848 C 0.97434 0.13195 0.37265 0.0
C849 C 0.96641 0.15481 0.37823 0.0
C850 C 0.95254 0.09974 0.37454 0.0
C851 C 0.92235 0.08983 0.38186 0.0
C852 C 0.91455 0.11254 0.38776 0.0
H853 H 0.74751 0.92409 0.40356 0.0
H854 H 0.79355 0.97636 0.40058 0.0
C855 C 0.93633 0.14469 0.38596 0.0
C856 C 0.89859 0.0558 0.38306 0.0
H857 H 0.82565 1.00118 0.36682 0.0
C858 C 0.90349 0.03655 0.39589 0.0
C859 C 0.87054 0.04268 0.37212 0.0
C860 C 0.86466 0.06191 0.35752 0.0
C861 C 0.88028 1.0048 0.39874 0.0
C862 C 0.85176 0.992 0.38824 0.0
C863 C 0.84745 1.01105 0.37494 0.0
C864 C 0.82502 0.95967 0.39161 0.0
C865 C 0.88586 0.98561 0.4135 0.0
C866 C 0.82745 0.9327 0.38785 0.0
C867 C 0.80097 0.90246 0.38963 0.0
C868 C 0.77161 0.89882 0.395 0.0
C869 C 0.76964 0.92593 0.39923 0.0
C870 C 0.79598 0.95593 0.39755 0.0
H871 H 0.90618 1.00062 0.42295 0.0
H872 H 0.86455 0.97206 0.42245 0.0
H873 H 0.89092 0.96848 0.40619 0.0
H874 H 0.84952 0.93503 0.38295 0.0
H875 H 0.80324 0.88213 0.38613 0.0
H876 H 0.83776 0.73806 0.89279 0.0
H877 H 0.83306 0.78528 0.89268 0.0
H878 H 0.93437 0.84337 0.8924 0.0
H879 H 0.93946 0.7958 0.89235 0.0
H880 H 0.8571 0.83555 0.91943 0.0
H881 H 0.90497 0.87584 0.84633 0.0
H882 H 0.89229 0.83629 0.85455 0.0
H883 H 0.92895 0.8686 0.86282 0.0
C884 C 0.85919 0.76079 0.89269 0.0
C885 C 0.88905 0.76303 0.89245 0.0
C886 C 0.85639 0.78782 0.89268 0.0
C887 C 0.8833 0.81783 0.89233 0.0
C888 C 0.91326 0.82039 0.8924 0.0
H889 H 0.87896 0.99483 0.87925 0.0
H890 H 0.89798 0.95743 0.88409 0.0
C891 C 0.91613 0.79318 0.89246 0.0
C892 C 0.87932 0.84603 0.89184 0.0
H893 H 0.88548 0.90471 0.86249 0.0
C894 C 0.86362 0.85091 0.90707 0.0
C895 C 0.88795 0.8661 0.87574 0.0
C896 C 0.90431 0.86152 0.85883 0.0
C897 C 0.85556 0.87476 0.90644 0.0
C898 C 0.86283 0.89386 0.88995 0.0
C899 C 0.87976 0.88991 0.87506 0.0
C900 C 0.85147 0.91676 0.88744 0.0
C901 C 0.83912 0.8791 0.92339 0.0
C902 C 0.819 0.90628 0.88749 0.0
C903 C 0.80806 0.92757 0.88484 0.0
C904 C 0.82936 0.95984 0.88192 0.0
C905 C 0.86191 0.97024 0.88172 0.0
C906 C 0.87283 0.94888 0.88437 0.0
H907 H 0.84405 0.8699 0.93669 0.0
H908 H 0.84646 0.90435 0.92554 0.0
H909 H 0.81325 0.86584 0.92092 0.0
H910 H 0.80203 0.88151 0.88945 0.0
H911 H 0.78288 0.91874 0.88525 0.0
H912 H 0.0911 0.69518 0.11914 0.0
H913 H 0.09037 0.6445 0.11903 0.0
H914 H 0.19206 0.69393 0.11942 0.0
H915 H 0.19312 0.74415 0.11979 0.0
H916 H 0.11637 0.62088 0.09254 0.0
H917 H 0.17091 0.63267 0.1636 0.0
H918 H 0.15497 0.65728 0.15607 0.0
H919 H 0.19381 0.66625 0.14866 0.0
C920 C 0.11329 0.69522 0.11932 0.0
C921 C 0.14214 0.72384 0.11962 0.0
C922 C 0.11283 0.66625 0.11924 0.0
C923 C 0.14117 0.66541 0.11961 0.0
C924 C 0.16989 0.69392 0.11964 0.0
H925 H 0.21222 0.53716 0.10898 0.0
H926 H 0.20291 0.58175 0.11217 0.0
C927 C 0.17039 0.72272 0.11973 0.0
C928 C 0.14124 0.635 0.11934 0.0
H929 H 0.17142 0.59425 0.14254 0.0
C930 C 0.12796 0.61477 0.1036 0.0
C931 C 0.15637 0.62703 0.13379 0.0
C932 C 0.16954 0.6468 0.15157 0.0
C933 C 0.13071 0.58759 0.10151 0.0
C934 C 0.14685 0.58029 0.11564 0.0
C935 C 0.15927 0.6 0.13164 0.0
C936 C 0.15212 0.55296 0.11377 0.0
C937 C 0.11747 0.56759 0.08383 0.0
C938 C 0.12668 0.52192 0.11385 0.0
C939 C 0.13192 0.49636 0.11199 0.0
C940 C 0.16275 0.50132 0.11004 0.0
C941 C 0.18818 0.53248 0.1102 0.0
C942 C 0.18291 0.55799 0.11213 0.0
H943 H 0.11142 0.57979 0.0726 0.0
H944 H 0.13458 0.56119 0.07786 0.0
H945 H 0.09568 0.54542 0.0876 0.0
H946 H 0.10275 0.51746 0.11538 0.0
H947 H 0.11177 0.47272 0.11178 0.0
H948 H 0.68914 0.20143 0.60022 0.0
H949 H 0.63543 0.19155 0.60492 0.0
H950 H 0.61375 0.10958 0.63884 0.0
H951 H 0.66759 0.11938 0.63423 0.0
H952 H 0.58043 0.13849 0.59372 0.0
H953 H 0.5807 0.15529 0.67224 0.0
H954 H 0.61655 0.16837 0.65878 0.0
H955 H 0.59216 0.12736 0.66456 0.0
C956 C 0.67299 0.18133 0.60873 0.0
C957 C 0.68268 0.16118 0.61683 0.0
C958 C 0.64231 0.17578 0.61146 0.0
C959 C 0.62061 0.15001 0.62239 0.0
C960 C 0.63025 0.13 0.6307 0.0
H961 H 0.41897 0.09063 0.63967 0.0
H962 H 0.46927 0.09044 0.64035 0.0
C963 C 0.66104 0.13562 0.62802 0.0
C964 C 0.58755 0.14344 0.62415 0.0
H965 H 0.53274 0.13972 0.65593 0.0
C966 C 0.56999 0.1386 0.60734 0.0
C967 C 0.57378 0.14328 0.64195 0.0
C968 C 0.59177 0.14908 0.66043 0.0
C969 C 0.53941 0.13434 0.60779 0.0
C970 C 0.52607 0.13529 0.62549 0.0
C971 C 0.54305 0.13895 0.64239 0.0
C972 C 0.49591 0.13565 0.62636 0.0
C973 C 0.52173 0.12934 0.58925 0.0
C974 C 0.49452 0.16141 0.61873 0.0
C975 C 0.46611 0.16164 0.61833 0.0
C976 C 0.43826 0.13607 0.62561 0.0
C977 C 0.43989 0.11063 0.63388 0.0
C978 C 0.46857 0.11048 0.63429 0.0
H979 H 0.5314 0.12098 0.57775 0.0
H980 H 0.49627 0.11198 0.59104 0.0
H981 H 0.52386 0.15204 0.5846 0.0
H982 H 0.51545 0.18129 0.61282 0.0
H983 H 0.46604 0.18186 0.61205 0.0
H984 H 0.55452 0.64757 0.10106 0.0
H985 H 0.50844 0.5947 0.10341 0.0
H986 H 0.45209 0.63484 0.12234 0.0
H987 H 0.4979 0.68793 0.11959 0.0
H988 H 0.46914 0.5632 0.13521 0.0
H989 H 0.40271 0.5798 0.07619 0.0
H990 H 0.44439 0.606 0.07995 0.0
H991 H 0.41602 0.60944 0.09451 0.0
C992 C 0.53227 0.64521 0.10558 0.0
C993 C 0.52984 0.67207 0.10993 0.0
C994 C 0.50602 0.61494 0.10705 0.0
C995 C 0.47674 0.61085 0.11277 0.0
C996 C 0.47436 0.63749 0.1176 0.0
H997 H 0.2879 0.45715 0.12663 0.0
H998 H 0.33709 0.50712 0.12522 0.0
C999 C 0.50064 0.66781 0.11618 0.0
C1000 C 0.44864 0.57874 0.11353 0.0
H1001 H 0.37515 0.53313 0.0945 0.0
C1002 C 0.44861 0.5565 0.12626 0.0
C1003 C 0.42201 0.57003 0.10174 0.0
C1004 C 0.42124 0.59243 0.08719 0.0
C1005 C 0.42218 0.5261 0.12799 0.0
C1006 C 0.39534 0.51757 0.11639 0.0
C1007 C 0.39568 0.53968 0.10342 0.0
C1008 C 0.36595 0.48648 0.11804 0.0
C1009 C 0.42282 0.50381 0.14265 0.0
C1010 C 0.36568 0.458 0.11452 0.0
C1011 C 0.33736 0.42907 0.11543 0.0
C1012 C 0.3088 0.4282 0.11964 0.0
C1013 C 0.30934 0.45681 0.12324 0.0
C1014 C 0.33752 0.48551 0.12245 0.0
H1015 H 0.44181 0.51638 0.1534 0.0
H1016 H 0.39988 0.49091 0.15019 0.0
H1017 H 0.42725 0.48622 0.13538 0.0
H1018 H 0.38722 0.45817 0.11072 0.0
H1019 H 0.33776 0.40752 0.11248 0.0
H1020 H 0.90468 0.54049 0.63369 0.0
H1021 H 0.91507 0.49669 0.63759 0.0
H1022 H 0.86004 0.45227 0.58712 0.0
H1023 H 0.84967 0.496 0.58308 0.0
H1024 H 0.87526 0.43443 0.64314 0.0
H1025 H 0.94065 0.45109 0.57577 0.0
H1026 H 0.93208 0.48047 0.58505 0.0
H1027 H 0.90254 0.44714 0.57189 0.0
C1028 C 0.89462 0.5213 0.62348 0.0
C1029 C 0.87644 0.52185 0.60801 0.0
C1030 C 0.90076 0.49636 0.62566 0.0
C1031 C 0.88893 0.47147 0.61242 0.0
C1032 C 0.87023 0.47163 0.5972 0.0
H1033 H 0.85085 0.2821 0.62487 0.0
H1034 H 0.85158 0.33214 0.62365 0.0
C1035 C 0.86421 0.49661 0.59495 0.0
C1036 C 0.89517 0.44479 0.61488 0.0
H1037 H 0.92246 0.40157 0.5917 0.0
C1038 C 0.88588 0.42747 0.63196 0.0
C1039 C 0.90962 0.436 0.60048 0.0
C1040 C 0.92211 0.45485 0.58235 0.0
C1041 C 0.88934 0.40086 0.63466 0.0
C1042 C 0.90191 0.39089 0.61976 0.0
C1043 C 0.91252 0.409 0.60304 0.0
C1044 C 0.90222 0.36064 0.62079 0.0
C1045 C 0.87935 0.38356 0.65345 0.0
C1046 C 0.93046 0.35979 0.61909 0.0
C1047 C 0.93018 0.33092 0.61969 0.0
C1048 C 0.90158 0.30239 0.6218 0.0
C1049 C 0.8734 0.30349 0.62334 0.0
C1050 C 0.87374 0.3322 0.62278 0.0
H1051 H 0.87994 0.39926 0.66511 0.0
H1052 H 0.85476 0.36374 0.65217 0.0
H1053 H 0.89474 0.37375 0.6575 0.0
H1054 H 0.95271 0.38147 0.61738 0.0
H1055 H 0.95227 0.33095 0.61836 0.0
H1056 H 0.62197 0.93384 0.14 0.0
H1057 H 0.57106 0.93258 0.13985 0.0
H1058 H 0.52519 0.83675 0.1192 0.0
H1059 H 0.5755 0.83786 0.11908 0.0
H1060 H 0.51139 0.8754 0.09761 0.0
H1061 H 0.49352 0.88758 0.17479 0.0
H1062 H 0.5306 0.91718 0.16513 0.0
H1063 H 0.52183 0.87691 0.1663 0.0
C1064 C 0.60095 0.91238 0.13568 0.0
C1065 C 0.60293 0.88606 0.12942 0.0
C1066 C 0.57185 0.91165 0.13567 0.0
C1067 C 0.54425 0.88449 0.1296 0.0
C1068 C 0.54614 0.85798 0.1239 0.0
H1069 H 0.34544 0.82694 0.13304 0.0
H1070 H 0.39828 0.8344 0.13863 0.0
C1071 C 0.57504 0.85872 0.12382 0.0
C1072 C 0.51362 0.88391 0.12788 0.0
H1073 H 0.45581 0.88737 0.15335 0.0
C1074 C 0.49931 0.87813 0.1098 0.0
C1075 C 0.49773 0.88717 0.14382 0.0
C1076 C 0.51148 0.8923 0.16366 0.0
C1077 C 0.46955 0.87538 0.10721 0.0
C1078 C 0.4538 0.87902 0.12308 0.0
C1079 C 0.46804 0.88481 0.14119 0.0
C1080 C 0.42221 0.87616 0.12105 0.0
C1081 C 0.45484 0.86779 0.08756 0.0
C1082 C 0.41823 0.8976 0.1097 0.0
C1083 C 0.38814 0.89347 0.10652 0.0
C1084 C 0.36132 0.86782 0.11467 0.0
C1085 C 0.36554 0.84703 0.12662 0.0
C1086 C 0.39571 0.85121 0.1298 0.0
H1087 H 0.46655 0.85865 0.07797 0.0
H1088 H 0.42934 0.85003 0.08835 0.0
H1089 H 0.45714 0.88955 0.08105 0.0
H1090 H 0.43841 0.91735 0.10309 0.0
H1091 H 0.38589 0.91036 0.0976 0.0
H1092 H 0.7507 0.5714 0.60424 0.0
H1093 H 0.7025 0.52072 0.60647 0.0
H1094 H 0.66501 0.55942 0.64728 0.0
H1095 H 0.71338 0.6109 0.64493 0.0
H1096 H 0.67644 0.4824 0.63793 0.0
H1097 H 0.59419 0.519 0.60756 0.0
H1098 H 0.63649 0.54323 0.60569 0.0
H1099 H 0.61711 0.54124 0.62782 0.0
C1100 C 0.73228 0.56939 0.61369 0.0
C1101 C 0.73598 0.59544 0.62435 0.0
C1102 C 0.70468 0.54024 0.61496 0.0
C1103 C 0.67998 0.5363 0.62687 0.0
C1104 C 0.68355 0.56207 0.63773 0.0
H1105 H 0.49567 0.36363 0.63865 0.0
H1106 H 0.54135 0.41612 0.64433 0.0
C1107 C 0.71128 0.59144 0.63644 0.0
C1108 C 0.65086 0.50494 0.62782 0.0
H1109 H 0.57241 0.46567 0.6164 0.0
C1110 C 0.65364 0.47879 0.63335 0.0
C1111 C 0.62111 0.50026 0.6219 0.0
C1112 C 0.61689 0.52731 0.61526 0.0
C1113 C 0.62769 0.44806 0.63274 0.0
C1114 C 0.59822 0.44327 0.62621 0.0
C1115 C 0.59508 0.46946 0.62136 0.0
C1116 C 0.5709 0.41115 0.62329 0.0
C1117 C 0.63204 0.42089 0.63893 0.0
C1118 C 0.57236 0.39107 0.60952 0.0
C1119 C 0.54637 0.36115 0.60624 0.0
C1120 C 0.51836 0.35069 0.61668 0.0
C1121 C 0.51704 0.37082 0.63056 0.0
C1122 C 0.54301 0.40087 0.63374 0.0
H1123 H 0.65319 0.42892 0.64817 0.0
H1124 H 0.61102 0.40293 0.64679 0.0
H1125 H 0.63522 0.40943 0.62612 0.0
H1126 H 0.59351 0.39872 0.60111 0.0
H1127 H 0.54821 0.34617 0.59553 0.0
H1128 H 0.28996 0.84293 0.38227 0.0
H1129 H 0.34007 0.8437 0.38441 0.0
H1130 H 0.38654 0.94148 0.40128 0.0
H1131 H 0.33605 0.94098 0.39926 0.0
H1132 H 0.39818 0.8835 0.36491 0.0
H1133 H 0.4095 0.89672 0.44393 0.0
H1134 H 0.37264 0.88443 0.43165 0.0
H1135 H 0.40316 0.92504 0.43114 0.0
C1136 C 0.31075 0.86471 0.38644 0.0
C1137 C 0.30887 0.89189 0.39072 0.0
C1138 C 0.33945 0.86508 0.3876 0.0
C1139 C 0.36696 0.8925 0.3932 0.0
C1140 C 0.36546 0.91993 0.39717 0.0
H1141 H 0.5537 0.91687 0.41649 0.0
H1142 H 0.50886 0.92544 0.41214 0.0
C1143 C 0.33664 0.91965 0.39591 0.0
C1144 C 0.39692 0.89183 0.39498 0.0
H1145 H 0.44965 0.89318 0.42762 0.0
C1146 C 0.40957 0.88581 0.3786 0.0
C1147 C 0.41171 0.89484 0.41285 0.0
C1148 C 0.39857 0.9004 0.43097 0.0
C1149 C 0.43656 0.88257 0.37961 0.0
C1150 C 0.45087 0.8847 0.39756 0.0
C1151 C 0.43861 0.89143 0.41388 0.0
C1152 C 0.47824 0.87951 0.39979 0.0
C1153 C 0.44964 0.87719 0.3614 0.0
C1154 C 0.4759 0.85069 0.39448 0.0
C1155 C 0.50151 0.84566 0.397 0.0
C1156 C 0.5299 0.86923 0.40509 0.0
C1157 C 0.53208 0.89802 0.41046 0.0
C1158 C 0.50651 0.90305 0.40789 0.0
H1159 H 0.44199 0.88533 0.3487 0.0
H1160 H 0.47582 0.88961 0.36174 0.0
H1161 H 0.44083 0.85157 0.35967 0.0
H1162 H 0.45409 0.83187 0.38863 0.0
H1163 H 0.49884 0.82306 0.39297 0.0
H1164 H 0.69367 0.48864 0.89277 0.0
H1165 H 0.64058 0.44294 0.88932 0.0
H1166 H 0.60007 0.50095 0.90385 0.0
H1167 H 0.65292 0.54683 0.90687 0.0
H1168 H 0.59403 0.41765 0.91823 0.0
H1169 H 0.55157 0.45513 0.85521 0.0
H1170 H 0.59285 0.47325 0.86146 0.0
H1171 H 0.56735 0.48335 0.87433 0.0
C1172 C 0.67347 0.49178 0.89493 0.0
C1173 C 0.67758 0.52141 0.90012 0.0
C1174 C 0.64315 0.46562 0.89305 0.0
C1175 C 0.61636 0.46861 0.89612 0.0
C1176 C 0.62036 0.49818 0.90112 0.0
H1177 H 0.41387 0.32919 0.89558 0.0
H1178 H 0.46478 0.37847 0.8976 0.0
C1179 C 0.65063 0.52431 0.90306 0.0
C1180 C 0.58429 0.44047 0.89505 0.0
H1181 H 0.51403 0.40864 0.87103 0.0
C1182 C 0.57657 0.41564 0.90788 0.0
C1183 C 0.56141 0.43807 0.88168 0.0
C1184 C 0.56866 0.46372 0.86726 0.0
C1185 C 0.54661 0.38848 0.90775 0.0
C1186 C 0.52392 0.38572 0.89411 0.0
C1187 C 0.53143 0.41078 0.88147 0.0
C1188 C 0.49291 0.35633 0.89222 0.0
C1189 C 0.53943 0.36315 0.92241 0.0
C1190 C 0.49181 0.32775 0.88804 0.0
C1191 C 0.46297 0.29973 0.88697 0.0
C1192 C 0.43439 0.29959 0.88983 0.0
C1193 C 0.43541 0.32843 0.89337 0.0
C1194 C 0.46447 0.35659 0.89453 0.0
H1195 H 0.55512 0.37271 0.93508 0.0
H1196 H 0.51454 0.35198 0.92722 0.0
H1197 H 0.54333 0.34461 0.91598 0.0
H1198 H 0.51336 0.32707 0.88569 0.0
H1199 H 0.46319 0.27811 0.88395 0.0
H1200 H 0.18584 0.68275 0.36335 0.0
H1201 H 0.17637 0.62963 0.35648 0.0
H1202 H 0.13351 0.59837 0.4118 0.0
H1203 H 0.14142 0.65078 0.4184 0.0
H1204 H 0.1995 0.59741 0.37425 0.0
H1205 H 0.06954 0.5286 0.37874 0.0
H1206 H 0.09086 0.57112 0.37736 0.0
H1207 H 0.08634 0.55158 0.39991 0.0
C1208 C 0.17382 0.66443 0.37391 0.0
C1209 C 0.16442 0.67119 0.39145 0.0
C1210 C 0.16858 0.63408 0.36999 0.0
C1211 C 0.15369 0.60975 0.38346 0.0
C1212 C 0.1443 0.61643 0.40096 0.0
H1213 H 0.17557 0.45161 0.40598 0.0
H1214 H 0.17701 0.50177 0.40287 0.0
C1215 C 0.14937 0.64667 0.40485 0.0
C1216 C 0.14993 0.57802 0.37988 0.0
H1217 H 0.09683 0.49904 0.38237 0.0
C1218 C 0.17694 0.57595 0.37573 0.0
C1219 C 0.12042 0.54989 0.38143 0.0
C1220 C 0.09011 0.55039 0.38439 0.0
C1221 C 0.17557 0.54664 0.37418 0.0
C1222 C 0.14653 0.51859 0.37725 0.0
C1223 C 0.11917 0.52054 0.38029 0.0
C1224 C 0.14476 0.48741 0.37893 0.0
C1225 C 0.2054 0.54605 0.3695 0.0
C1226 C 0.12518 0.46205 0.36691 0.0
C1227 C 0.12406 0.43287 0.36872 0.0
C1228 C 0.14235 0.42858 0.38269 0.0
C1229 C 0.16135 0.45395 0.39491 0.0
C1230 C 0.1624 0.48287 0.3931 0.0
H1231 H 0.22229 0.56751 0.36152 0.0
H1232 H 0.21707 0.54542 0.38297 0.0
H1233 H 0.20029 0.52494 0.3609 0.0
H1234 H 0.1111 0.46496 0.35598 0.0
H1235 H 0.10911 0.41385 0.35912 0.0
H1236 H 0.74989 0.18375 0.89104 0.0
H1237 H 0.6996 0.18257 0.89201 0.0
H1238 H 0.65058 0.08098 0.89458 0.0
H1239 H 0.7013 0.08187 0.89387 0.0
H1240 H 0.64936 0.15474 0.86674 0.0
H1241 H 0.61298 0.10466 0.93965 0.0
H1242 H 0.65278 0.12018 0.93107 0.0
H1243 H 0.62221 0.08202 0.92336 0.0
C1244 C 0.72853 0.16102 0.89185 0.0
C1245 C 0.72979 0.13285 0.89244 0.0
C1246 C 0.6997 0.16045 0.89238 0.0
C1247 C 0.67128 0.13176 0.89358 0.0
C1248 C 0.67224 0.10346 0.89399 0.0
H1249 H 0.47969 0.10357 0.9031 0.0
H1250 H 0.52459 0.09483 0.8994 0.0
C1251 C 0.70125 0.104 0.89347 0.0
C1252 C 0.64094 0.13202 0.89415 0.0
H1253 H 0.57806 0.11599 0.92271 0.0
C1254 C 0.63368 0.1461 0.87894 0.0
C1255 C 0.62043 0.1207 0.91005 0.0
C1256 C 0.62747 0.10624 0.92706 0.0
C1257 C 0.60677 0.14951 0.87928 0.0
C1258 C 0.58677 0.13904 0.89541 0.0
C1259 C 0.59347 0.12412 0.91038 0.0
C1260 C 0.55941 0.14435 0.89729 0.0
C1261 C 0.59997 0.16423 0.8623 0.0
C1262 C 0.56403 0.17511 0.89751 0.0
C1263 C 0.53841 0.1802 0.89952 0.0
C1264 C 0.50753 0.15462 0.90145 0.0
C1265 C 0.50303 0.12381 0.90134 0.0
C1266 C 0.52871 0.11876 0.89936 0.0
H1267 H 0.6119 0.1626 0.84923 0.0
H1268 H 0.57422 0.15274 0.85947 0.0
H1269 H 0.60885 0.18958 0.86528 0.0
H1270 H 0.58756 0.19527 0.89628 0.0
H1271 H 0.54278 0.20421 0.89943 0.0
H1272 H 0.36892 0.48878 0.37432 0.0
H1273 H 0.42262 0.53313 0.37023 0.0
H1274 H 0.40789 0.58222 0.41666 0.0
H1275 H 0.35436 0.53805 0.42087 0.0
H1276 H 0.44567 0.59645 0.36241 0.0
H1277 H 0.48769 0.58222 0.4332 0.0
H1278 H 0.45093 0.55243 0.42291 0.0
H1279 H 0.45317 0.58616 0.43477 0.0
C1280 C 0.37702 0.50916 0.38354 0.0
C1281 C 0.35743 0.50975 0.39805 0.0
C1282 C 0.40777 0.53442 0.38124 0.0
C1283 C 0.41954 0.5607 0.39341 0.0
C1284 C 0.39965 0.56181 0.40744 0.0
H1285 H 0.57903 0.7423 0.40911 0.0
H1286 H 0.52885 0.69327 0.40815 0.0
C1287 C 0.36902 0.53656 0.40982 0.0
C1288 C 0.45256 0.58703 0.39153 0.0
H1289 H 0.52039 0.63091 0.41701 0.0
C1290 C 0.46218 0.60375 0.37424 0.0
C1291 C 0.47421 0.59634 0.40693 0.0
C1292 C 0.46612 0.57815 0.42543 0.0
C1293 C 0.49232 0.63051 0.3723 0.0
C1294 C 0.51334 0.64058 0.388 0.0
C1295 C 0.50413 0.6232 0.40503 0.0
C1296 C 0.54399 0.67048 0.38768 0.0
C1297 C 0.50105 0.64866 0.3538 0.0
C1298 C 0.5693 0.67398 0.37644 0.0
C1299 C 0.59839 0.70219 0.37698 0.0
C1300 C 0.60255 0.72732 0.38877 0.0
C1301 C 0.57689 0.72359 0.39984 0.0
C1302 C 0.54807 0.69551 0.39935 0.0
H1303 H 0.48071 0.64001 0.34381 0.0
H1304 H 0.51024 0.67413 0.3566 0.0
H1305 H 0.52007 0.64629 0.34673 0.0
H1306 H 0.5667 0.65477 0.36748 0.0
H1307 H 0.6176 0.7042 0.36829 0.0
H1308 H 0.93744 0.61278 0.86894 0.0
H1309 H 0.93562 0.56167 0.86704 0.0
H1310 H 0.8447 0.51672 0.89446 0.0
H1311 H 0.84602 0.56702 0.89622 0.0
H1312 H 0.93068 0.52178 0.89737 0.0
H1313 H 0.82914 0.46027 0.84819 0.0
H1314 H 0.85024 0.50261 0.85104 0.0
H1315 H 0.82052 0.47794 0.86801 0.0
C1316 C 0.91692 0.59194 0.87437 0.0
C1317 C 0.89188 0.59411 0.88271 0.0
C1318 C 0.91595 0.56278 0.87331 0.0
C1319 C 0.88978 0.53527 0.88032 0.0
C1320 C 0.86481 0.53744 0.88856 0.0
H1321 H 0.82758 0.34381 0.90987 0.0
H1322 H 0.8359 0.39672 0.90368 0.0
C1323 C 0.86578 0.56641 0.88969 0.0
C1324 C 0.88884 0.5044 0.88006 0.0
H1325 H 0.84234 0.42726 0.86699 0.0
C1326 C 0.91171 0.5012 0.89044 0.0
C1327 C 0.86406 0.47756 0.87101 0.0
C1328 C 0.83978 0.47977 0.85877 0.0
C1329 C 0.90952 0.47159 0.89285 0.0
C1330 C 0.88399 0.44458 0.88446 0.0
C1331 C 0.86177 0.44797 0.87351 0.0
C1332 C 0.87899 0.41238 0.88772 0.0
C1333 C 0.9337 0.46915 0.90506 0.0
C1334 C 0.90024 0.40348 0.88056 0.0
C1335 C 0.89553 0.37321 0.88408 0.0
C1336 C 0.86952 0.35131 0.89486 0.0
C1337 C 0.84806 0.36023 0.90174 0.0
C1338 C 0.85268 0.39039 0.89813 0.0
H1339 H 0.9487 0.49119 0.91318 0.0
H1340 H 0.92197 0.44928 0.9153 0.0
H1341 H 0.94925 0.46439 0.8958 0.0
H1342 H 0.9205 0.41998 0.8723 0.0
H1343 H 0.91261 0.36718 0.87868 0.0
H1344 H 0.14658 0.31861 0.32429 0.0
H1345 H 0.16195 0.32952 0.29097 0.0
H1346 H 0.23255 0.42469 0.30546 0.0
H1347 H 0.21715 0.41403 0.33925 0.0
H1348 H 0.19054 0.41658 0.27228 0.0
H1349 H 0.24631 0.3418 0.2684 0.0
H1350 H 0.20791 0.32266 0.27919 0.0
H1351 H 0.2399 0.35627 0.29071 0.0
C1352 C 0.1655 0.3419 0.32053 0.0
C1353 C 0.18072 0.36545 0.3345 0.0
C1354 C 0.17427 0.34804 0.30143 0.0
C1355 C 0.19849 0.37779 0.29581 0.0
C1356 C 0.21382 0.40153 0.30959 0.0
H1357 H 0.27027 0.39296 0.18087 0.0
H1358 H 0.26745 0.40241 0.21478 0.0
C1359 C 0.20512 0.39535 0.32886 0.0
C1360 C 0.20727 0.38354 0.2754 0.0
H1361 H 0.23232 0.35569 0.23878 0.0
C1362 C 0.20017 0.40373 0.26493 0.0
C1363 C 0.22 0.36688 0.26595 0.0
C1364 C 0.22927 0.34589 0.27664 0.0
C1365 C 0.20425 0.40663 0.24502 0.0
C1366 C 0.2153 0.38854 0.23542 0.0
C1367 C 0.22362 0.36941 0.24609 0.0
C1368 C 0.21785 0.38817 0.21432 0.0
C1369 C 0.19656 0.42887 0.23445 0.0
C1370 C 0.19106 0.37785 0.20261 0.0
C1371 C 0.19267 0.37266 0.18306 0.0
C1372 C 0.22096 0.37717 0.17507 0.0
C1373 C 0.24803 0.38894 0.18666 0.0
C1374 C 0.24649 0.39443 0.20605 0.0
H1375 H 0.19778 0.44756 0.24404 0.0
H1376 H 0.21291 0.44023 0.2223 0.0
H1377 H 0.17218 0.41542 0.22873 0.0
H1378 H 0.16853 0.37223 0.20872 0.0
H1379 H 0.17142 0.3634 0.17449 0.0
H1380 H 0.90872 0.25118 0.68738 0.0
H1381 H 0.89374 0.24431 0.7209 0.0
H1382 H 0.80339 0.16435 0.70652 0.0
H1383 H 0.81836 0.17068 0.67275 0.0
H1384 H 0.8433 0.24293 0.74094 0.0
H1385 H 0.84153 0.12835 0.74453 0.0
H1386 H 0.85821 0.15499 0.72462 0.0
H1387 H 0.81617 0.13055 0.72673 0.0
C1388 C 0.88554 0.23219 0.69123 0.0
C1389 C 0.86489 0.21117 0.67736 0.0
C1390 C 0.877 0.22842 0.71044 0.0
C1391 C 0.8477 0.20355 0.71622 0.0
C1392 C 0.82637 0.18339 0.70236 0.0
H1393 H 0.77534 0.13013 0.8285 0.0
H1394 H 0.78066 0.14329 0.79468 0.0
C1395 C 0.8349 0.18712 0.68307 0.0
C1396 C 0.8405 0.19792 0.73685 0.0
H1397 H 0.8283 0.14558 0.77256 0.0
C1398 C 0.83985 0.2216 0.74788 0.0
C1399 C 0.83634 0.1702 0.74585 0.0
C1400 C 0.83834 0.14464 0.73491 0.0
C1401 C 0.83485 0.21812 0.76769 0.0
C1402 C 0.83085 0.19046 0.77667 0.0
C1403 C 0.83127 0.16674 0.76561 0.0
C1404 C 0.8263 0.18535 0.79755 0.0
C1405 C 0.83353 0.24386 0.77881 0.0
C1406 C 0.85001 0.20501 0.81049 0.0
C1407 C 0.84703 0.19759 0.82997 0.0
C1408 C 0.82045 0.17017 0.83673 0.0
C1409 C 0.79628 0.15128 0.82378 0.0
C1410 C 0.79921 0.15877 0.80442 0.0
H1411 H 0.82898 0.25945 0.76936 0.0
H1412 H 0.81488 0.23375 0.7899 0.0
H1413 H 0.85651 0.2586 0.78608 0.0
H1414 H 0.87138 0.22535 0.80543 0.0
H1415 H 0.8661 0.21254 0.83956 0.0
H1416 H 0.62743 0.81484 0.17408 0.0
H1417 H 0.61646 0.80286 0.20821 0.0
H1418 H 0.70431 0.88619 0.22239 0.0
H1419 H 0.7154 0.89841 0.18869 0.0
H1420 H 0.65243 0.79294 0.23602 0.0
H1421 H 0.63994 0.89611 0.25474 0.0
H1422 H 0.63804 0.88299 0.23042 0.0
H1423 H 0.67561 0.90716 0.24183 0.0
C1424 C 0.64441 0.83057 0.18448 0.0
C1425 C 0.67223 0.85767 0.17861 0.0
C1426 C 0.63805 0.82375 0.20396 0.0
C1427 C 0.65922 0.84406 0.21782 0.0
C1428 C 0.68724 0.87065 0.21196 0.0
H1429 H 0.71488 0.82845 0.32821 0.0
H1430 H 0.70394 0.8301 0.29452 0.0
C1431 C 0.69365 0.87743 0.19261 0.0
C1432 C 0.65316 0.83722 0.23849 0.0
H1433 H 0.65244 0.87168 0.28076 0.0
C1434 C 0.65178 0.80983 0.24578 0.0
C1435 C 0.65174 0.85898 0.25122 0.0
C1436 C 0.65107 0.8878 0.24414 0.0
C1437 C 0.65135 0.80478 0.26554 0.0
C1438 C 0.65275 0.82793 0.27828 0.0
C1439 C 0.65177 0.85415 0.27099 0.0
C1440 C 0.65869 0.82696 0.29897 0.0
C1441 C 0.65033 0.77513 0.27262 0.0
C1442 C 0.63732 0.82579 0.31277 0.0
C1443 C 0.64358 0.82498 0.33227 0.0
C1444 C 0.67146 0.82567 0.33821 0.0
C1445 C 0.69306 0.82767 0.32425 0.0
C1446 C 0.68676 0.82837 0.30491 0.0
H1447 H 0.63934 0.75585 0.2619 0.0
H1448 H 0.67478 0.78002 0.27521 0.0
H1449 H 0.637 0.7669 0.2862 0.0
H1450 H 0.61568 0.82509 0.30846 0.0
H1451 H 0.62648 0.82349 0.34264 0.0
H1452 H 0.83165 0.61964 0.6695 0.0
H1453 H 0.83286 0.60859 0.70365 0.0
H1454 H 0.83854 0.69713 0.7178 0.0
H1455 H 0.83726 0.70831 0.68411 0.0
H1456 H 0.8792 0.64481 0.73165 0.0
H1457 H 0.76355 0.63264 0.74981 0.0
H1458 H 0.77486 0.63042 0.72557 0.0
H1459 H 0.78817 0.66814 0.73675 0.0
C1460 C 0.83322 0.63675 0.6799 0.0
C1461 C 0.83416 0.66477 0.67403 0.0
C1462 C 0.83381 0.63036 0.69938 0.0
C1463 C 0.83502 0.65172 0.71323 0.0
C1464 C 0.83676 0.67995 0.70736 0.0
H1465 H 0.9049 0.7069 0.82403 0.0
H1466 H 0.89311 0.69616 0.79023 0.0
C1467 C 0.83627 0.68639 0.68803 0.0
C1468 C 0.83564 0.64555 0.7339 0.0
H1469 H 0.80017 0.645 0.77595 0.0
C1470 C 0.86161 0.64419 0.74133 0.0
C1471 C 0.81239 0.6442 0.74649 0.0
C1472 C 0.783 0.64359 0.73924 0.0
C1473 C 0.8661 0.64384 0.76112 0.0
C1474 C 0.84426 0.64531 0.77372 0.0
C1475 C 0.81711 0.6443 0.76627 0.0
C1476 C 0.85084 0.65111 0.79444 0.0
C1477 C 0.89466 0.64279 0.76836 0.0
C1478 C 0.83031 0.62982 0.80812 0.0
C1479 C 0.83689 0.63597 0.82765 0.0
C1480 C 0.86395 0.6637 0.83375 0.0
C1481 C 0.88394 0.68522 0.81993 0.0
C1482 C 0.87741 0.67902 0.80053 0.0
H1483 H 0.90303 0.63171 0.75776 0.0
H1484 H 0.91411 0.66723 0.77092 0.0
H1485 H 0.88952 0.62952 0.78199 0.0
H1486 H 0.80944 0.60831 0.80368 0.0
H1487 H 0.821 0.61892 0.83791 0.0
H1488 H 0.22469 0.85951 0.17057 0.0
H1489 H 0.23966 0.86561 0.20442 0.0
H1490 H 0.15402 0.77925 0.21741 0.0
H1491 H 0.13912 0.77273 0.18387 0.0
H1492 H 0.2038 0.87172 0.23299 0.0
H1493 H 0.21942 0.76893 0.24784 0.0
H1494 H 0.21933 0.78271 0.22392 0.0
H1495 H 0.18274 0.75842 0.23617 0.0
C1496 C 0.20937 0.84152 0.18059 0.0
C1497 C 0.18064 0.81575 0.17452 0.0
C1498 C 0.21794 0.84504 0.1999 0.0
C1499 C 0.19812 0.82267 0.21338 0.0
C1500 C 0.17 0.79644 0.20723 0.0
H1501 H 0.17467 0.81393 0.33611 0.0
H1502 H 0.17077 0.8022 0.30179 0.0
C1503 C 0.16139 0.79294 0.18802 0.0
C1504 C 0.2049 0.82825 0.23408 0.0
H1505 H 0.21279 0.79479 0.27507 0.0
C1506 C 0.20623 0.85514 0.24216 0.0
C1507 C 0.20764 0.80635 0.24602 0.0
C1508 C 0.20751 0.77762 0.23804 0.0
C1509 C 0.20936 0.86033 0.26192 0.0
C1510 C 0.21179 0.8383 0.27388 0.0
C1511 C 0.21081 0.81155 0.26583 0.0
C1512 C 0.21562 0.84308 0.29479 0.0
C1513 C 0.20909 0.8889 0.26989 0.0
C1514 C 0.24259 0.86923 0.3022 0.0
C1515 C 0.24481 0.87603 0.32165 0.0
C1516 C 0.22019 0.85665 0.33413 0.0
C1517 C 0.19396 0.82936 0.32685 0.0
C1518 C 0.1917 0.82264 0.30728 0.0
H1519 H 0.19955 0.89918 0.25945 0.0
H1520 H 0.19477 0.88283 0.28312 0.0
H1521 H 0.23357 0.90726 0.2735 0.0
H1522 H 0.26155 0.88493 0.29282 0.0
H1523 H 0.26559 0.89698 0.3268 0.0
H1524 H 0.39203 0.25479 0.82685 0.0
H1525 H 0.39724 0.24722 0.79295 0.0
H1526 H 0.37473 0.15141 0.80376 0.0
H1527 H 0.36952 0.15879 0.83801 0.0
H1528 H 0.42586 0.18932 0.77428 0.0
H1529 H 0.31194 0.18728 0.76394 0.0
H1530 H 0.34159 0.22033 0.77717 0.0
H1531 H 0.32484 0.18131 0.78696 0.0
C1532 C 0.38864 0.2322 0.82213 0.0
C1533 C 0.37986 0.20719 0.83508 0.0
C1534 C 0.39171 0.22799 0.80274 0.0
C1535 C 0.38593 0.19867 0.79588 0.0
C1536 C 0.37923 0.17422 0.80885 0.0
H1537 H 0.32424 0.12301 0.68354 0.0
H1538 H 0.33241 0.13399 0.71756 0.0
C1539 C 0.37627 0.17846 0.82838 0.0
C1540 C 0.38373 0.1929 0.77506 0.0
H1541 H 0.33879 0.18669 0.73617 0.0
C1542 C 0.40686 0.18869 0.76589 0.0
C1543 C 0.35875 0.19189 0.76426 0.0
C1544 C 0.33267 0.19518 0.77354 0.0
C1545 C 0.40575 0.18372 0.74605 0.0
C1546 C 0.38103 0.18329 0.73522 0.0
C1547 C 0.35787 0.18733 0.74448 0.0
C1548 C 0.3774 0.17673 0.71444 0.0
C1549 C 0.43054 0.17829 0.73688 0.0
C1550 C 0.39993 0.19735 0.70131 0.0
C1551 C 0.39533 0.19116 0.68167 0.0
C1552 C 0.36803 0.16433 0.6749 0.0
C1553 C 0.34553 0.14394 0.68817 0.0
C1554 C 0.35016 0.15011 0.70768 0.0
H1555 H 0.44396 0.17289 0.74762 0.0
H1556 H 0.41965 0.15858 0.72646 0.0
H1557 H 0.44747 0.19988 0.72906 0.0
H1558 H 0.42085 0.21837 0.70623 0.0
H1559 H 0.41309 0.20734 0.67183 0.0
H1560 H 0.28291 0.23417 0.92619 0.0
H1561 H 0.26732 0.25286 0.95381 0.0
H1562 H 0.33952 0.24937 0.98752 0.0
H1563 H 0.35618 0.23128 0.95938 0.0
H1564 H 0.24409 0.22511 0.98678 0.0
H1565 H 0.35574 0.3372 0.99964 0.0
H1566 H 0.34873 0.31422 0.97817 0.0
H1567 H 0.35985 0.30267 0.99991 0.0
C1568 C 0.29562 0.23723 0.93942 0.0
C1569 C 0.32084 0.23107 0.94051 0.0
C1570 C 0.28662 0.24805 0.95526 0.0
C1571 C 0.30241 0.25295 0.97274 0.0
C1572 C 0.32739 0.24645 0.97408 0.0
H1573 H 0.22442 0.26761 0.08012 0.0
H1574 H 0.24243 0.2516 0.05224 0.0
C1575 C 0.33671 0.23582 0.95804 0.0
C1576 C 0.29162 0.26393 0.98942 0.0
H1577 H 0.31486 0.32314 0.02233 0.0
C1578 C 0.25962 0.24657 0.99453 0.0
C1579 C 0.31169 0.29225 0.99934 0.0
C1580 C 0.34585 0.31288 0.99391 0.0
C1581 C 0.24719 0.25654 0.00925 0.0
C1582 C 0.26744 0.28426 0.01959 0.0
C1583 C 0.29938 0.30185 0.01443 0.0
C1584 C 0.25608 0.29442 0.03634 0.0
C1585 C 0.2123 0.23753 0.01336 0.0
C1586 C 0.25814 0.32417 0.03687 0.0
C1587 C 0.24789 0.33362 0.05299 0.0
C1588 C 0.23567 0.31354 0.06889 0.0
C1589 C 0.2335 0.28371 0.06814 0.0
C1590 C 0.24371 0.27438 0.05214 0.0
H1591 H 0.19886 0.22329 1.00078 0.0
H1592 H 0.20833 0.22101 0.02528 0.0
H1593 H 0.2027 0.25301 0.01756 0.0
H1594 H 0.26777 0.34008 0.02484 0.0
H1595 H 0.25019 0.35684 0.05316 0.0
H1596 H 0.13323 0.30832 0.45512 0.0
H1597 H 0.10036 0.28804 0.48391 0.0
H1598 H 0.03986 0.32223 0.46285 0.0
H1599 H 0.07236 0.34259 0.43441 0.0
H1600 H 0.05514 0.3344 0.5021 0.0
H1601 H 1.01082 0.20878 0.48278 0.0
H1602 H 0.05298 0.23371 0.48381 0.0
H1603 H 0.03075 0.24054 0.46587 0.0
C1604 C 0.1132 0.31189 0.45681 0.0
C1605 C 0.10528 0.32684 0.44243 0.0
C1606 C 0.09429 0.30006 0.47314 0.0
C1607 C 0.06736 0.30318 0.47533 0.0
C1608 C 0.06037 0.31938 0.4614 0.0
H1609 H 0.91284 0.2478 0.556 0.0
H1610 H 0.94765 0.26726 0.52807 0.0
C1611 C 0.07901 0.33096 0.44512 0.0
C1612 C 0.0457 0.28905 0.49176 0.0
H1613 H 0.99198 0.21858 0.51145 0.0
C1614 C 0.04138 0.30908 0.5042 0.0
C1615 C 0.02764 0.25601 0.49435 0.0
C1616 C 0.03046 0.23337 0.48095 0.0
C1617 C 1.01967 0.29699 0.51928 0.0
C1618 C 1.00133 0.26393 0.52174 0.0
C1619 C 1.00588 0.24389 0.50942 0.0
C1620 C 0.97834 0.24979 0.53758 0.0
C1621 C 1.01696 0.31971 0.53266 0.0
C1622 C 0.98322 0.23234 0.55169 0.0
C1623 C 0.96336 0.22108 0.56751 0.0
C1624 C 0.93801 0.22686 0.56953 0.0
C1625 C 0.93214 0.24296 0.55488 0.0
C1626 C 0.95218 0.25435 0.53902 0.0
H1627 H 0.03754 0.34393 0.53149 0.0
H1628 H 0.9954 0.32081 0.52908 0.0
H1629 H 1.01498 0.31174 0.5477 0.0
H1630 H 1.0031 0.22834 0.5508 0.0
H1631 H 0.96849 0.20859 0.57846 0.0
H1632 H 0.727 0.90201 0.05836 0.0
H1633 H 0.74873 0.93712 0.03055 0.0
H1634 H 0.70421 0.98953 0.04934 0.0
H1635 H 0.68277 0.95505 0.07696 0.0
H1636 H 0.71907 0.9543 1.00083 0.0
H1637 H 0.7984 0.05683 0.04606 0.0
H1638 H 0.77924 0.01676 0.05476 0.0
H1639 H 0.7577 0.03765 0.05306 0.0
C1640 C 0.72149 0.92072 0.05636 0.0
C1641 C 0.70347 0.92597 0.06996 0.0
C1642 C 0.73402 0.94084 0.04056 0.0
C1643 C 0.72872 0.96641 0.03819 0.0
C1644 C 0.70927 0.97047 0.05116 0.0
H1645 H 0.78267 0.12019 0.9575 0.0
H1646 H 0.76301 0.08455 0.98513 0.0
C1647 C 0.69689 0.95058 0.0669 0.0
C1648 C 0.74383 0.98938 0.02245 0.0
H1649 H 0.79371 0.06764 0.01348 0.0
C1650 C 0.73559 0.97902 1.00355 0.0
C1651 C 0.76527 0.02167 0.02608 0.0
C1652 C 0.77595 0.03393 0.04607 0.0
C1653 C 0.74762 1.00025 0.9882 0.0
C1654 C 0.76891 0.03259 0.99184 0.0
C1655 C 0.7773 0.0429 0.01073 0.0
C1656 C 0.78305 0.05589 0.97614 0.0
C1657 C 0.73676 0.98799 0.96822 0.0
C1658 C 0.80189 0.05237 0.96243 0.0
C1659 C 0.81308 0.07257 0.94674 0.0
C1660 C 0.80594 0.09697 0.9445 0.0
C1661 C 0.78862 0.10167 0.95884 0.0
C1662 C 0.77726 0.08125 0.97456 0.0
H1663 H 0.71452 0.9649 0.96828 0.0
H1664 H 0.733 1.00498 0.95966 0.0
H1665 H 0.75512 0.98465 0.96107 0.0
H1666 H 0.80737 0.0335 0.96363 0.0
H1667 H 0.82668 0.06847 0.93608 0.0
H1668 H 0.84775 0.72843 0.55654 0.0
H1669 H 0.83576 0.75413 0.53012 0.0
H1670 H 0.73719 0.70289 0.5451 0.0
H1671 H 0.74889 0.67768 0.57137 0.0
H1672 H 0.79577 0.73089 0.49848 0.0
H1673 H 0.75652 0.79423 0.54653 0.0
H1674 H 0.77824 0.77561 0.55499 0.0
H1675 H 0.73624 0.75267 0.55131 0.0
C1676 C 0.8235 0.72236 0.55398 0.0
C1677 C 0.79931 0.70126 0.56613 0.0
C1678 C 0.81671 0.7372 0.53899 0.0
C1679 C 0.7857 0.73115 0.53604 0.0
C1680 C 0.76141 0.70872 0.54749 0.0
H1681 H 0.68483 0.74103 0.44099 0.0
H1682 H 0.71011 0.72945 0.4673 0.0
C1683 C 0.76814 0.6941 0.56242 0.0
C1684 C 0.7781 0.74781 0.52099 0.0
H1685 H 0.73868 0.78839 0.51383 0.0
C1686 C 0.78377 0.74392 0.50184 0.0
C1687 C 0.76308 0.76546 0.52536 0.0
C1688 C 0.75848 0.77256 0.54568 0.0
C1689 C 0.77289 0.75534 0.48695 0.0
C1690 C 0.75534 0.77049 0.49133 0.0
C1691 C 0.75161 0.77631 0.51047 0.0
C1692 C 0.73863 0.77803 0.47628 0.0
C1693 C 0.7798 0.75056 0.46663 0.0
C1694 C 0.74482 0.80906 0.47326 0.0
C1695 C 0.72994 0.81578 0.45826 0.0
C1696 C 0.70868 0.79151 0.44614 0.0
C1697 C 0.70138 0.76034 0.44992 0.0
C1698 C 0.71604 0.75367 0.46486 0.0
H1699 H 0.80141 0.74849 0.46578 0.0
H1700 H 0.75981 0.72833 0.46101 0.0
H1701 H 0.78288 0.7703 0.45732 0.0
H1702 H 0.76187 0.82816 0.48211 0.0
H1703 H 0.73611 0.84003 0.45564 0.0
H1704 H 0.95957 0.67292 0.9362 0.0
H1705 H 0.9938 0.69425 0.96402 0.0
H1706 H 0.94249 0.74047 0.98185 0.0
H1707 H 0.90763 0.71876 0.95392 0.0
H1708 H 0.0324 0.75832 0.971 0.0
H1709 H 0.94994 0.69928 0.03127 0.0
H1710 H 0.94045 0.68521 0.00699 0.0
H1711 H 0.93778 0.71896 0.01446 0.0
C1712 C 0.95516 0.68721 0.94618 0.0
C1713 C 0.93091 0.69423 0.94284 0.0
C1714 C 0.97483 0.69943 0.96206 0.0
C1715 C 0.97073 0.71892 0.97502 0.0
C1716 C 0.94581 0.72511 0.97217 0.0
H1717 H 0.07643 0.81982 0.0755 0.0
H1718 H 0.04141 0.80061 0.04789 0.0
C1719 C 0.9259 0.7127 0.95622 0.0
C1720 C 0.99392 0.73415 0.99072 0.0
H1721 H 1.00196 0.73848 0.0392 0.0
C1722 C 0.02577 0.75398 0.98593 0.0
C1723 C 0.9852 0.7285 0.01015 0.0
C1724 C 0.95155 0.70664 0.01612 0.0
C1725 C 0.04913 0.76849 1.00004 0.0
C1726 C 0.04047 0.76258 0.01948 0.0
C1727 C 1.00857 0.74296 0.02428 0.0
C1728 C 0.06396 0.77661 0.03517 0.0
C1729 C 0.08273 0.79045 0.99401 0.0
C1730 C 0.08879 0.77003 0.03704 0.0
C1731 C 0.10914 0.78123 0.05284 0.0
C1732 C 0.10469 0.79883 0.06711 0.0
C1733 C 0.08044 0.80618 0.06482 0.0
C1734 C 0.06031 0.79517 0.04905 0.0
H1735 H 0.08401 0.79904 0.97917 0.0
H1736 H 0.09442 0.81113 1.0037 0.0
H1737 H 0.09614 0.77763 0.99458 0.0
H1738 H 0.09172 0.75528 0.02667 0.0
H1739 H 0.12736 0.77488 0.0543 0.0
H1740 H 0.25874 0.90581 0.45423 0.0
H1741 H 0.27922 0.94196 0.48163 0.0
H1742 H 0.22959 0.98907 0.46206 0.0
H1743 H 0.20897 0.95317 0.43494 0.0
H1744 H 0.31728 1.00879 0.4775 0.0
H1745 H 0.20915 0.9769 0.51932 0.0
H1746 H 0.21099 0.95088 0.50172 0.0
H1747 H 0.20609 0.98343 0.49437 0.0
C1748 C 0.25155 0.92332 0.45608 0.0
C1749 C 0.23225 0.92662 0.44243 0.0
C1750 C 0.26341 0.94409 0.47164 0.0
C1751 C 0.25576 0.96808 0.47394 0.0
C1752 C 0.23543 0.97048 0.46075 0.0
H1753 H 0.31473 0.12499 0.55443 0.0
H1754 H 0.29357 0.09095 0.52608 0.0
C1755 C 0.22378 0.94997 0.4452 0.0
C1756 C 0.27091 0.99228 0.48911 0.0
H1757 H 0.25528 0.02466 0.52784 0.0
C1758 C 0.30377 1.01214 0.48859 0.0
C1759 C 0.25317 0.99693 0.50336 0.0
C1760 C 0.21792 0.97576 0.5049 0.0
C1761 C 0.31935 0.03666 0.50189 0.0
C1762 C 0.30167 0.04109 0.51628 0.0
C1763 C 0.26877 0.02141 0.51669 0.0
C1764 C 0.31706 0.0642 0.532 0.0
C1765 C 0.35459 0.05786 0.50025 0.0
C1766 C 0.33755 0.06072 0.5445 0.0
C1767 C 0.34956 0.07999 0.56055 0.0
C1768 C 0.34129 0.10316 0.56453 0.0
C1769 C 0.32178 0.10758 0.55161 0.0
C1770 C 0.30953 0.08803 0.53552 0.0
H1771 H 0.36295 0.05783 0.48552 0.0
H1772 H 0.36178 0.0825 0.50432 0.0
H1773 H 0.36657 0.04921 0.50999 0.0
H1774 H 0.34326 0.04219 0.54229 0.0
H1775 H 0.36451 0.07596 0.57025 0.0
loop_
_geom_bond_atom_site_label_1
_geom_bond_atom_site_label_2
_geom_bond_distance
_geom_bond_site_symmetry_2
_ccdc_geom_bond_type
Tb0 C9 2.764 . S
Tb0 O10 2.325 . S
Tb0 O13 2.303 . S
Tb0 O17 2.322 . S
Tb0 O18 2.349 . S
Tb0 O21 2.415 . S
Tb0 O22 2.399 . S
Tb1 O11 2.322 . S
Tb1 O12 2.349 . S
Tb1 O14 2.415 . S
Tb1 O15 2.399 . S
Tb1 O16 2.325 . S
Tb1 O19 2.303 . S
Tb1 C30 2.764 . S
C2 O18 1.261 . S
C2 O19 1.257 . S
C3 C6 1.358 . S
C3 C7 1.332 . S
C3 C9 1.504 . S
C4 C5 1.373 . S
C4 C8 1.308 . S
C5 C4 1.373 . S
C5 C6 1.429 . S
C5 H32 0.932 . S
C6 C3 1.358 . S
C6 C5 1.429 . S
C6 H33 0.930 . S
C7 C3 1.332 . S
C7 C8 1.394 . S
C7 H34 0.932 . S
C8 C4 1.308 . S
C8 C7 1.394 . S
C8 H35 0.929 . S
C9 Tb0 2.764 . S
C9 C3 1.504 . S
C9 O21 1.239 . S
C9 O22 1.263 . S
O10 Tb0 2.325 . S
O10 C20 1.236 . S
O11 Tb1 2.322 . S
O11 C20 1.257 . S
O12 Tb1 2.349 . S
O12 C23 1.261 . S
O13 Tb0 2.303 . S
O13 C23 1.257 . S
O14 Tb1 2.415 . S
O14 C30 1.239 . S
O15 Tb1 2.399 . S
O15 C30 1.263 . S
O16 Tb1 2.325 . S
O16 C31 1.236 . S
O17 Tb0 2.322 . S
O17 C31 1.257 . S
O18 Tb0 2.349 . S
O18 C2 1.261 . S
O19 Tb1 2.303 . S
O19 C2 1.257 . S
C20 O10 1.236 . S
C20 O11 1.257 . S
O21 Tb0 2.415 . S
O21 C9 1.239 . S
O22 Tb0 2.399 . S
O22 C9 1.263 . S
C23 O12 1.261 . S
C23 O13 1.257 . S
C24 C27 1.358 . S
C24 C28 1.332 . S
C24 C30 1.504 . S
C25 C26 1.373 . S
C25 C29 1.308 . S
C26 C25 1.373 . S
C26 C27 1.429 . S
C26 H36 0.932 . S
C27 C24 1.358 . S
C27 C26 1.429 . S
C27 H37 0.930 . S
C28 C24 1.332 . S
C28 C29 1.394 . S
C28 H38 0.932 . S
C29 C25 1.308 . S
C29 C28 1.394 . S
C29 H39 0.929 . S
C30 Tb1 2.764 . S
C30 O14 1.239 . S
C30 O15 1.263 . S
C30 C24 1.504 . S
C31 O16 1.236 . S
C31 O17 1.257 . S
H32 C5 0.932 . S
H33 C6 0.930 . S
H34 C7 0.932 . S
H35 C8 0.929 . S
H36 C26 0.932 . S
H37 C27 0.930 . S
H38 C28 0.932 . S
H39 C29 0.929 . S
Tb40 C49 2.764 . S
Tb40 O50 2.325 . S
Tb40 O53 2.303 . S
Tb40 O57 2.322 . S
Tb40 O58 2.349 . S
Tb40 O61 2.415 . S
Tb40 O62 2.399 . S
Tb41 O51 2.322 . S
Tb41 O52 2.349 . S
Tb41 O54 2.415 . S
Tb41 O55 2.399 . S
Tb41 O56 2.325 . S
Tb41 O59 2.303 . S
Tb41 C70 2.764 . S
C42 O58 1.261 . S
C42 O59 1.257 . S
C43 C46 1.358 . S
C43 C47 1.332 . S
C43 C49 1.504 . S
C44 C45 1.373 . S
C44 C48 1.308 . S
C45 C44 1.373 . S
C45 C46 1.429 1_455 S
C45 H72 0.932 . S
C46 C43 1.358 . S
C46 C45 1.429 1_655 S
C46 H73 0.930 . S
C47 C43 1.332 . S
C47 C48 1.394 1_655 S
C47 H74 0.932 . S
C48 C44 1.308 . S
C48 C47 1.394 1_455 S
C48 H75 0.929 . S
C49 Tb40 2.764 . S
C49 C43 1.504 . S
C49 O61 1.239 . S
C49 O62 1.263 . S
O50 Tb40 2.325 . S
O50 C60 1.236 . S
O51 Tb41 2.322 . S
O51 C60 1.257 . S
O52 Tb41 2.349 . S
O52 C63 1.261 . S
O53 Tb40 2.303 . S
O53 C63 1.257 . S
O54 Tb41 2.415 . S
O54 C70 1.239 . S
O55 Tb41 2.399 . S
O55 C70 1.263 . S
O56 Tb41 2.325 . S
O56 C71 1.236 . S
O57 Tb40 2.322 . S
O57 C71 1.257 . S
O58 Tb40 2.349 . S
O58 C42 1.261 . S
O59 Tb41 2.303 . S
O59 C42 1.257 . S
C60 O50 1.236 . S
C60 O51 1.257 . S
O61 Tb40 2.415 . S
O61 C49 1.239 . S
O62 Tb40 2.399 . S
O62 C49 1.263 . S
C63 O52 1.261 . S
C63 O53 1.257 . S
C64 C67 1.358 . S
C64 C68 1.332 . S
C64 C70 1.504 . S
C65 C66 1.373 . S
C65 C69 1.308 . S
C66 C65 1.373 . S
C66 C67 1.429 . S
C66 H76 0.932 . S
C67 C64 1.358 . S
C67 C66 1.429 . S
C67 H77 0.930 . S
C68 C64 1.332 . S
C68 C69 1.394 . S
C68 H78 0.932 . S
C69 C65 1.308 . S
C69 C68 1.394 . S
C69 H79 0.929 . S
C70 Tb41 2.764 . S
C70 O54 1.239 . S
C70 O55 1.263 . S
C70 C64 1.504 . S
C71 O56 1.236 . S
C71 O57 1.257 . S
H72 C45 0.932 . S
H73 C46 0.930 . S
H74 C47 0.932 . S
H75 C48 0.929 . S
H76 C66 0.932 . S
H77 C67 0.930 . S
H78 C68 0.932 . S
H79 C69 0.929 . S
Tb80 C89 2.764 . S
Tb80 O90 2.325 . S
Tb80 O93 2.303 . S
Tb80 O97 2.322 . S
Tb80 O98 2.349 . S
Tb80 O101 2.415 . S
Tb80 O102 2.399 . S
Tb81 O91 2.322 . S
Tb81 O92 2.349 . S
Tb81 O94 2.415 . S
Tb81 O95 2.399 . S
Tb81 O96 2.325 . S
Tb81 O99 2.303 . S
Tb81 C110 2.764 . S
C82 O98 1.261 . S
C82 O99 1.257 . S
C83 C86 1.358 . S
C83 C87 1.332 . S
C83 C89 1.504 . S
C84 C85 1.373 . S
C84 C88 1.308 . S
C85 C84 1.373 . S
C85 C86 1.429 1_545 S
C85 H112 0.932 . S
C86 C83 1.358 . S
C86 C85 1.429 1_565 S
C86 H113 0.930 . S
C87 C83 1.332 . S
C87 C88 1.394 1_565 S
C87 H114 0.932 . S
C88 C84 1.308 . S
C88 C87 1.394 1_545 S
C88 H115 0.929 . S
C89 Tb80 2.764 . S
C89 C83 1.504 . S
C89 O101 1.239 . S
C89 O102 1.263 . S
O90 Tb80 2.325 . S
O90 C100 1.236 . S
O91 Tb81 2.322 . S
O91 C100 1.257 . S
O92 Tb81 2.349 . S
O92 C103 1.261 . S
O93 Tb80 2.303 . S
O93 C103 1.257 . S
O94 Tb81 2.415 . S
O94 C110 1.239 . S
O95 Tb81 2.399 . S
O95 C110 1.263 . S
O96 Tb81 2.325 . S
O96 C111 1.236 . S
O97 Tb80 2.322 . S
O97 C111 1.257 . S
O98 Tb80 2.349 . S
O98 C82 1.261 . S
O99 Tb81 2.303 . S
O99 C82 1.257 . S
C100 O90 1.236 . S
C100 O91 1.257 . S
O101 Tb80 2.415 . S
O101 C89 1.239 . S
O102 Tb80 2.399 . S
O102 C89 1.263 . S
C103 O92 1.261 . S
C103 O93 1.257 . S
C104 C107 1.358 . S
C104 C108 1.332 . S
C104 C110 1.504 . S
C105 C106 1.373 . S
C105 C109 1.308 . S
C106 C105 1.373 . S
C106 C107 1.429 . S
C106 H116 0.932 . S
C107 C104 1.358 . S
C107 C106 1.429 . S
C107 H117 0.930 . S
C108 C104 1.332 . S
C108 C109 1.394 . S
C108 H118 0.932 . S
C109 C105 1.308 . S
C109 C108 1.394 . S
C109 H119 0.929 . S
C110 Tb81 2.764 . S
C110 O94 1.239 . S
C110 O95 1.263 . S
C110 C104 1.504 . S
C111 O96 1.236 . S
C111 O97 1.257 . S
H112 C85 0.932 . S
H113 C86 0.930 . S
H114 C87 0.932 . S
H115 C88 0.929 . S
H116 C106 0.932 . S
H117 C107 0.930 . S
H118 C108 0.932 . S
H119 C109 0.929 . S
Tb120 C129 2.764 . S
Tb120 O130 2.325 . S
Tb120 O133 2.303 . S
Tb120 O137 2.322 . S
Tb120 O138 2.349 . S
Tb120 O141 2.415 . S
Tb120 O142 2.399 . S
Tb121 O131 2.322 . S
Tb121 O132 2.349 . S
Tb121 O134 2.415 . S
Tb121 O135 2.399 . S
Tb121 O136 2.325 . S
Tb121 O139 2.303 . S
Tb121 C150 2.764 . S
C122 O138 1.261 . S
C122 O139 1.257 . S
C123 C126 1.358 . S
C123 C127 1.332 . S
C123 C129 1.504 . S
C124 C125 1.373 . S
C124 C128 1.308 . S
C125 C124 1.373 . S
C125 C126 1.429 . S
C125 H152 0.932 . S
C126 C123 1.358 . S
C126 C125 1.429 . S
C126 H153 0.930 . S
C127 C123 1.332 . S
C127 C128 1.394 . S
C127 H154 0.932 . S
C128 C124 1.308 . S
C128 C127 1.394 . S
C128 H155 0.929 . S
C129 Tb120 2.764 . S
C129 C123 1.504 . S
C129 O141 1.239 . S
C129 O142 1.263 . S
O130 Tb120 2.325 . S
O130 C140 1.236 . S
O131 Tb121 2.322 . S
O131 C140 1.257 . S
O132 Tb121 2.349 . S
O132 C143 1.261 . S
O133 Tb120 2.303 . S
O133 C143 1.257 . S
O134 Tb121 2.415 . S
O134 C150 1.239 . S
O135 Tb121 2.399 . S
O135 C150 1.263 . S
O136 Tb121 2.325 . S
O136 C151 1.236 . S
O137 Tb120 2.322 . S
O137 C151 1.257 . S
O138 Tb120 2.349 . S
O138 C122 1.261 . S
O139 Tb121 2.303 . S
O139 C122 1.257 . S
C140 O130 1.236 . S
C140 O131 1.257 . S
O141 Tb120 2.415 . S
O141 C129 1.239 . S
O142 Tb120 2.399 . S
O142 C129 1.263 . S
C143 O132 1.261 . S
C143 O133 1.257 . S
C144 C147 1.358 . S
C144 C148 1.332 . S
C144 C150 1.504 . S
C145 C146 1.373 . S
C145 C149 1.308 . S
C146 C145 1.373 . S
C146 C147 1.429 . S
C146 H156 0.932 . S
C147 C144 1.358 . S
C147 C146 1.429 . S
C147 H157 0.930 . S
C148 C144 1.332 . S
C148 C149 1.394 . S
C148 H158 0.932 . S
C149 C145 1.308 . S
C149 C148 1.394 . S
C149 H159 0.929 . S
C150 Tb121 2.764 . S
C150 O134 1.239 . S
C150 O135 1.263 . S
C150 C144 1.504 . S
C151 O136 1.236 . S
C151 O137 1.257 . S
H152 C125 0.932 . S
H153 C126 0.930 . S
H154 C127 0.932 . S
H155 C128 0.929 . S
H156 C146 0.932 . S
H157 C147 0.930 . S
H158 C148 0.932 . S
H159 C149 0.929 . S
Tb160 C169 2.764 . S
Tb160 O170 2.325 . S
Tb160 O173 2.303 . S
Tb160 O177 2.322 . S
Tb160 O178 2.349 . S
Tb160 O181 2.415 . S
Tb160 O182 2.399 . S
Tb161 O171 2.322 . S
Tb161 O172 2.349 . S
Tb161 O174 2.415 . S
Tb161 O175 2.399 . S
Tb161 O176 2.325 . S
Tb161 O179 2.303 . S
Tb161 C190 2.764 . S
C162 O178 1.261 . S
C162 O179 1.257 . S
C163 C166 1.358 . S
C163 C167 1.332 . S
C163 C169 1.504 . S
C164 C165 1.373 . S
C164 C168 1.308 . S
C165 C164 1.373 . S
C165 C166 1.429 1_655 S
C165 H192 0.932 . S
C166 C163 1.358 . S
C166 C165 1.429 1_455 S
C166 H193 0.930 . S
C167 C163 1.332 . S
C167 C168 1.394 1_455 S
C167 H194 0.932 . S
C168 C164 1.308 . S
C168 C167 1.394 1_655 S
C168 H195 0.929 . S
C169 Tb160 2.764 . S
C169 C163 1.504 . S
C169 O181 1.239 . S
C169 O182 1.263 . S
O170 Tb160 2.325 . S
O170 C180 1.236 . S
O171 Tb161 2.322 . S
O171 C180 1.257 . S
O172 Tb161 2.349 . S
O172 C183 1.261 . S
O173 Tb160 2.303 . S
O173 C183 1.257 . S
O174 Tb161 2.415 . S
O174 C190 1.239 . S
O175 Tb161 2.399 . S
O175 C190 1.263 . S
O176 Tb161 2.325 . S
O176 C191 1.236 . S
O177 Tb160 2.322 . S
O177 C191 1.257 . S
O178 Tb160 2.349 . S
O178 C162 1.261 . S
O179 Tb161 2.303 . S
O179 C162 1.257 . S
C180 O170 1.236 . S
C180 O171 1.257 . S
O181 Tb160 2.415 . S
O181 C169 1.239 . S
O182 Tb160 2.399 . S
O182 C169 1.263 . S
C183 O172 1.261 . S
C183 O173 1.257 . S
C184 C187 1.358 . S
C184 C188 1.332 . S
C184 C190 1.504 . S
C185 C186 1.373 . S
C185 C189 1.308 . S
C186 C185 1.373 . S
C186 C187 1.429 . S
C186 H196 0.932 . S
C187 C184 1.358 . S
C187 C186 1.429 . S
C187 H197 0.930 . S
C188 C184 1.332 . S
C188 C189 1.394 . S
C188 H198 0.932 . S
C189 C185 1.308 . S
C189 C188 1.394 . S
C189 H199 0.929 . S
C190 Tb161 2.764 . S
C190 O174 1.239 . S
C190 O175 1.263 . S
C190 C184 1.504 . S
C191 O176 1.236 . S
C191 O177 1.257 . S
H192 C165 0.932 . S
H193 C166 0.930 . S
H194 C167 0.932 . S
H195 C168 0.929 . S
H196 C186 0.932 . S
H197 C187 0.930 . S
H198 C188 0.932 . S
H199 C189 0.929 . S
Tb200 C209 2.764 . S
Tb200 O210 2.325 . S
Tb200 O213 2.303 . S
Tb200 O217 2.322 . S
Tb200 O218 2.349 . S
Tb200 O221 2.415 . S
Tb200 O222 2.399 . S
Tb201 O211 2.322 . S
Tb201 O212 2.349 . S
Tb201 O214 2.415 . S
Tb201 O215 2.399 . S
Tb201 O216 2.325 . S
Tb201 O219 2.303 . S
Tb201 C230 2.764 . S
C202 O218 1.261 . S
C202 O219 1.257 . S
C203 C206 1.358 . S
C203 C207 1.332 . S
C203 C209 1.504 . S
C204 C205 1.373 . S
C204 C208 1.308 . S
C205 C204 1.373 . S
C205 C206 1.429 1_565 S
C205 H232 0.932 . S
C206 C203 1.358 . S
C206 C205 1.429 1_545 S
C206 H233 0.930 . S
C207 C203 1.332 . S
C207 C208 1.394 1_545 S
C207 H234 0.932 . S
C208 C204 1.308 . S
C208 C207 1.394 1_565 S
C208 H235 0.929 . S
C209 Tb200 2.764 . S
C209 C203 1.504 . S
C209 O221 1.239 . S
C209 O222 1.263 . S
O210 Tb200 2.325 . S
O210 C220 1.236 . S
O211 Tb201 2.322 . S
O211 C220 1.257 . S
O212 Tb201 2.349 . S
O212 C223 1.261 . S
O213 Tb200 2.303 . S
O213 C223 1.257 . S
O214 Tb201 2.415 . S
O214 C230 1.239 . S
O215 Tb201 2.399 . S
O215 C230 1.263 . S
O216 Tb201 2.325 . S
O216 C231 1.236 . S
O217 Tb200 2.322 . S
O217 C231 1.257 . S
O218 Tb200 2.349 . S
O218 C202 1.261 . S
O219 Tb201 2.303 . S
O219 C202 1.257 . S
C220 O210 1.236 . S
C220 O211 1.257 . S
O221 Tb200 2.415 . S
O221 C209 1.239 . S
O222 Tb200 2.399 . S
O222 C209 1.263 . S
C223 O212 1.261 . S
C223 O213 1.257 . S
C224 C227 1.358 . S
C224 C228 1.332 . S
C224 C230 1.504 . S
C225 C226 1.373 . S
C225 C229 1.308 . S
C226 C225 1.373 . S
C226 C227 1.429 . S
C226 H236 0.932 . S
C227 C224 1.358 . S
C227 C226 1.429 . S
C227 H237 0.930 . S
C228 C224 1.332 . S
C228 C229 1.394 . S
C228 H238 0.932 . S
C229 C225 1.308 . S
C229 C228 1.394 . S
C229 H239 0.929 . S
C230 Tb201 2.764 . S
C230 O214 1.239 . S
C230 O215 1.263 . S
C230 C224 1.504 . S
C231 O216 1.236 . S
C231 O217 1.257 . S
H232 C205 0.932 . S
H233 C206 0.930 . S
H234 C207 0.932 . S
H235 C208 0.929 . S
H236 C226 0.932 . S
H237 C227 0.930 . S
H238 C228 0.932 . S
H239 C229 0.929 . S
Tb240 C249 2.764 . S
Tb240 O250 2.325 . S
Tb240 O253 2.303 . S
Tb240 O257 2.322 . S
Tb240 O258 2.349 . S
Tb240 O261 2.415 . S
Tb240 O262 2.399 . S
Tb241 O251 2.322 . S
Tb241 O252 2.349 . S
Tb241 O254 2.415 . S
Tb241 O255 2.399 . S
Tb241 O256 2.325 . S
Tb241 O259 2.303 . S
Tb241 C270 2.764 . S
C242 O258 1.261 . S
C242 O259 1.257 . S
C243 C246 1.358 . S
C243 C247 1.332 . S
C243 C249 1.504 . S
C244 C245 1.373 . S
C244 C248 1.308 . S
C245 C244 1.373 . S
C245 C246 1.429 . S
C245 H272 0.932 . S
C246 C243 1.358 . S
C246 C245 1.429 . S
C246 H273 0.930 . S
C247 C243 1.332 . S
C247 C248 1.394 . S
C247 H274 0.932 . S
C248 C244 1.308 . S
C248 C247 1.394 . S
C248 H275 0.929 . S
C249 Tb240 2.764 . S
C249 C243 1.504 . S
C249 O261 1.239 . S
C249 O262 1.263 . S
O250 Tb240 2.325 . S
O250 C260 1.236 . S
O251 Tb241 2.322 . S
O251 C260 1.257 . S
O252 Tb241 2.349 . S
O252 C263 1.261 . S
O253 Tb240 2.303 . S
O253 C263 1.257 . S
O254 Tb241 2.415 . S
O254 C270 1.239 . S
O255 Tb241 2.399 . S
O255 C270 1.263 . S
O256 Tb241 2.325 . S
O256 C271 1.236 . S
O257 Tb240 2.322 . S
O257 C271 1.257 . S
O258 Tb240 2.349 . S
O258 C242 1.261 . S
O259 Tb241 2.303 . S
O259 C242 1.257 . S
C260 O250 1.236 . S
C260 O251 1.257 . S
O261 Tb240 2.415 . S
O261 C249 1.239 . S
O262 Tb240 2.399 . S
O262 C249 1.263 . S
C263 O252 1.261 . S
C263 O253 1.257 . S
C264 C267 1.358 . S
C264 C268 1.332 . S
C264 C270 1.504 . S
C265 C266 1.373 . S
C265 C269 1.308 . S
C266 C265 1.373 . S
C266 C267 1.429 . S
C266 H276 0.932 . S
C267 C264 1.358 . S
C267 C266 1.429 . S
C267 H277 0.930 . S
C268 C264 1.332 . S
C268 C269 1.394 . S
C268 H278 0.932 . S
C269 C265 1.308 . S
C269 C268 1.394 . S
C269 H279 0.929 . S
C270 Tb241 2.764 . S
C270 O254 1.239 . S
C270 O255 1.263 . S
C270 C264 1.504 . S
C271 O256 1.236 . S
C271 O257 1.257 . S
H272 C245 0.932 . S
H273 C246 0.930 . S
H274 C247 0.932 . S
H275 C248 0.929 . S
H276 C266 0.932 . S
H277 C267 0.930 . S
H278 C268 0.932 . S
H279 C269 0.929 . S
Tb280 C289 2.764 . S
Tb280 O290 2.325 . S
Tb280 O293 2.303 . S
Tb280 O297 2.322 . S
Tb280 O298 2.349 . S
Tb280 O301 2.415 . S
Tb280 O302 2.399 . S
Tb281 O291 2.322 . S
Tb281 O292 2.349 . S
Tb281 O294 2.415 . S
Tb281 O295 2.399 . S
Tb281 O296 2.325 . S
Tb281 O299 2.303 . S
Tb281 C310 2.764 . S
C282 O298 1.261 . S
C282 O299 1.257 . S
C283 C286 1.358 . S
C283 C287 1.332 . S
C283 C289 1.504 . S
C284 C285 1.373 . S
C284 C288 1.308 . S
C285 C284 1.373 . S
C285 C286 1.429 1_455 S
C285 H312 0.932 . S
C286 C283 1.358 . S
C286 C285 1.429 1_655 S
C286 H313 0.930 . S
C287 C283 1.332 . S
C287 C288 1.394 1_655 S
C287 H314 0.932 . S
C288 C284 1.308 . S
C288 C287 1.394 1_455 S
C288 H315 0.929 . S
C289 Tb280 2.764 . S
C289 C283 1.504 . S
C289 O301 1.239 . S
C289 O302 1.263 . S
O290 Tb280 2.325 . S
O290 C300 1.236 . S
O291 Tb281 2.322 . S
O291 C300 1.257 . S
O292 Tb281 2.349 . S
O292 C303 1.261 . S
O293 Tb280 2.303 . S
O293 C303 1.257 . S
O294 Tb281 2.415 . S
O294 C310 1.239 . S
O295 Tb281 2.399 . S
O295 C310 1.263 . S
O296 Tb281 2.325 . S
O296 C311 1.236 . S
O297 Tb280 2.322 . S
O297 C311 1.257 . S
O298 Tb280 2.349 . S
O298 C282 1.261 . S
O299 Tb281 2.303 . S
O299 C282 1.257 . S
C300 O290 1.236 . S
C300 O291 1.257 . S
O301 Tb280 2.415 . S
O301 C289 1.239 . S
O302 Tb280 2.399 . S
O302 C289 1.263 . S
C303 O292 1.261 . S
C303 O293 1.257 . S
C304 C307 1.358 . S
C304 C308 1.332 . S
C304 C310 1.504 . S
C305 C306 1.373 . S
C305 C309 1.308 . S
C306 C305 1.373 . S
C306 C307 1.429 . S
C306 H316 0.932 . S
C307 C304 1.358 . S
C307 C306 1.429 . S
C307 H317 0.930 . S
C308 C304 1.332 . S
C308 C309 1.394 . S
C308 H318 0.932 . S
C309 C305 1.308 . S
C309 C308 1.394 . S
C309 H319 0.929 . S
C310 Tb281 2.764 . S
C310 O294 1.239 . S
C310 O295 1.263 . S
C310 C304 1.504 . S
C311 O296 1.236 . S
C311 O297 1.257 . S
H312 C285 0.932 . S
H313 C286 0.930 . S
H314 C287 0.932 . S
H315 C288 0.929 . S
H316 C306 0.932 . S
H317 C307 0.930 . S
H318 C308 0.932 . S
H319 C309 0.929 . S
Tb320 C329 2.764 . S
Tb320 O330 2.325 . S
Tb320 O333 2.303 . S
Tb320 O337 2.322 . S
Tb320 O338 2.349 . S
Tb320 O341 2.415 . S
Tb320 O342 2.399 . S
Tb321 O331 2.322 . S
Tb321 O332 2.349 . S
Tb321 O334 2.415 . S
Tb321 O335 2.399 . S
Tb321 O336 2.325 . S
Tb321 O339 2.303 . S
Tb321 C350 2.764 . S
C322 O338 1.261 . S
C322 O339 1.257 . S
C323 C326 1.358 . S
C323 C327 1.332 . S
C323 C329 1.504 . S
C324 C325 1.373 . S
C324 C328 1.308 . S
C325 C324 1.373 . S
C325 C326 1.429 1_545 S
C325 H352 0.932 . S
C326 C323 1.358 . S
C326 C325 1.429 1_565 S
C326 H353 0.930 . S
C327 C323 1.332 . S
C327 C328 1.394 1_565 S
C327 H354 0.932 . S
C328 C324 1.308 . S
C328 C327 1.394 1_545 S
C328 H355 0.929 . S
C329 Tb320 2.764 . S
C329 C323 1.504 . S
C329 O341 1.239 . S
C329 O342 1.263 . S
O330 Tb320 2.325 . S
O330 C340 1.236 . S
O331 Tb321 2.322 . S
O331 C340 1.257 . S
O332 Tb321 2.349 . S
O332 C343 1.261 . S
O333 Tb320 2.303 . S
O333 C343 1.257 . S
O334 Tb321 2.415 . S
O334 C350 1.239 . S
O335 Tb321 2.399 . S
O335 C350 1.263 . S
O336 Tb321 2.325 . S
O336 C351 1.236 . S
O337 Tb320 2.322 . S
O337 C351 1.257 . S
O338 Tb320 2.349 . S
O338 C322 1.261 . S
O339 Tb321 2.303 . S
O339 C322 1.257 . S
C340 O330 1.236 . S
C340 O331 1.257 . S
O341 Tb320 2.415 . S
O341 C329 1.239 . S
O342 Tb320 2.399 . S
O342 C329 1.263 . S
C343 O332 1.261 . S
C343 O333 1.257 . S
C344 C347 1.358 . S
C344 C348 1.332 . S
C344 C350 1.504 . S
C345 C346 1.373 . S
C345 C349 1.308 . S
C346 C345 1.373 . S
C346 C347 1.429 . S
C346 H356 0.932 . S
C347 C344 1.358 . S
C347 C346 1.429 . S
C347 H357 0.930 . S
C348 C344 1.332 . S
C348 C349 1.394 . S
C348 H358 0.932 . S
C349 C345 1.308 . S
C349 C348 1.394 . S
C349 H359 0.929 . S
C350 Tb321 2.764 . S
C350 O334 1.239 . S
C350 O335 1.263 . S
C350 C344 1.504 . S
C351 O336 1.236 . S
C351 O337 1.257 . S
H352 C325 0.932 . S
H353 C326 0.930 . S
H354 C327 0.932 . S
H355 C328 0.929 . S
H356 C346 0.932 . S
H357 C347 0.930 . S
H358 C348 0.932 . S
H359 C349 0.929 . S
Tb360 C369 2.764 . S
Tb360 O370 2.325 . S
Tb360 O373 2.303 . S
Tb360 O377 2.322 . S
Tb360 O378 2.349 . S
Tb360 O381 2.415 . S
Tb360 O382 2.399 . S
Tb361 O371 2.322 . S
Tb361 O372 2.349 . S
Tb361 O374 2.415 . S
Tb361 O375 2.399 . S
Tb361 O376 2.325 . S
Tb361 O379 2.303 . S
Tb361 C390 2.764 . S
C362 O378 1.261 . S
C362 O379 1.257 . S
C363 C366 1.358 . S
C363 C367 1.332 . S
C363 C369 1.504 . S
C364 C365 1.373 . S
C364 C368 1.308 . S
C365 C364 1.373 . S
C365 C366 1.429 . S
C365 H392 0.932 . S
C366 C363 1.358 . S
C366 C365 1.429 . S
C366 H393 0.930 . S
C367 C363 1.332 . S
C367 C368 1.394 . S
C367 H394 0.932 . S
C368 C364 1.308 . S
C368 C367 1.394 . S
C368 H395 0.929 . S
C369 Tb360 2.764 . S
C369 C363 1.504 . S
C369 O381 1.239 . S
C369 O382 1.263 . S
O370 Tb360 2.325 . S
O370 C380 1.236 . S
O371 Tb361 2.322 . S
O371 C380 1.257 . S
O372 Tb361 2.349 . S
O372 C383 1.261 . S
O373 Tb360 2.303 . S
O373 C383 1.257 . S
O374 Tb361 2.415 . S
O374 C390 1.239 . S
O375 Tb361 2.399 . S
O375 C390 1.263 . S
O376 Tb361 2.325 . S
O376 C391 1.236 . S
O377 Tb360 2.322 . S
O377 C391 1.257 . S
O378 Tb360 2.349 . S
O378 C362 1.261 . S
O379 Tb361 2.303 . S
O379 C362 1.257 . S
C380 O370 1.236 . S
C380 O371 1.257 . S
O381 Tb360 2.415 . S
O381 C369 1.239 . S
O382 Tb360 2.399 . S
O382 C369 1.263 . S
C383 O372 1.261 . S
C383 O373 1.257 . S
C384 C387 1.358 . S
C384 C388 1.332 . S
C384 C390 1.504 . S
C385 C386 1.373 . S
C385 C389 1.308 . S
C386 C385 1.373 . S
C386 C387 1.429 . S
C386 H396 0.932 . S
C387 C384 1.358 . S
C387 C386 1.429 . S
C387 H397 0.930 . S
C388 C384 1.332 . S
C388 C389 1.394 . S
C388 H398 0.932 . S
C389 C385 1.308 . S
C389 C388 1.394 . S
C389 H399 0.929 . S
C390 Tb361 2.764 . S
C390 O374 1.239 . S
C390 O375 1.263 . S
C390 C384 1.504 . S
C391 O376 1.236 . S
C391 O377 1.257 . S
H392 C365 0.932 . S
H393 C366 0.930 . S
H394 C367 0.932 . S
H395 C368 0.929 . S
H396 C386 0.932 . S
H397 C387 0.930 . S
H398 C388 0.932 . S
H399 C389 0.929 . S
Tb400 C409 2.764 . S
Tb400 O410 2.325 . S
Tb400 O413 2.303 . S
Tb400 O417 2.322 . S
Tb400 O418 2.349 . S
Tb400 O421 2.415 . S
Tb400 O422 2.399 . S
Tb401 O411 2.322 . S
Tb401 O412 2.349 . S
Tb401 O414 2.415 . S
Tb401 O415 2.399 . S
Tb401 O416 2.325 . S
Tb401 O419 2.303 . S
Tb401 C430 2.764 . S
C402 O418 1.261 . S
C402 O419 1.257 . S
C403 C406 1.358 . S
C403 C407 1.332 . S
C403 C409 1.504 . S
C404 C405 1.373 . S
C404 C408 1.308 . S
C405 C404 1.373 . S
C405 C406 1.429 1_655 S
C405 H432 0.932 . S
C406 C403 1.358 . S
C406 C405 1.429 1_455 S
C406 H433 0.930 . S
C407 C403 1.332 . S
C407 C408 1.394 1_455 S
C407 H434 0.932 . S
C408 C404 1.308 . S
C408 C407 1.394 1_655 S
C408 H435 0.929 . S
C409 Tb400 2.764 . S
C409 C403 1.504 . S
C409 O421 1.239 . S
C409 O422 1.263 . S
O410 Tb400 2.325 . S
O410 C420 1.236 . S
O411 Tb401 2.322 . S
O411 C420 1.257 . S
O412 Tb401 2.349 . S
O412 C423 1.261 . S
O413 Tb400 2.303 . S
O413 C423 1.257 . S
O414 Tb401 2.415 . S
O414 C430 1.239 . S
O415 Tb401 2.399 . S
O415 C430 1.263 . S
O416 Tb401 2.325 . S
O416 C431 1.236 . S
O417 Tb400 2.322 . S
O417 C431 1.257 . S
O418 Tb400 2.349 . S
O418 C402 1.261 . S
O419 Tb401 2.303 . S
O419 C402 1.257 . S
C420 O410 1.236 . S
C420 O411 1.257 . S
O421 Tb400 2.415 . S
O421 C409 1.239 . S
O422 Tb400 2.399 . S
O422 C409 1.263 . S
C423 O412 1.261 . S
C423 O413 1.257 . S
C424 C427 1.358 . S
C424 C428 1.332 . S
C424 C430 1.504 . S
C425 C426 1.373 . S
C425 C429 1.308 . S
C426 C425 1.373 . S
C426 C427 1.429 . S
C426 H436 0.932 . S
C427 C424 1.358 . S
C427 C426 1.429 . S
C427 H437 0.930 . S
C428 C424 1.332 . S
C428 C429 1.394 . S
C428 H438 0.932 . S
C429 C425 1.308 . S
C429 C428 1.394 . S
C429 H439 0.929 . S
C430 Tb401 2.764 . S
C430 O414 1.239 . S
C430 O415 1.263 . S
C430 C424 1.504 . S
C431 O416 1.236 . S
C431 O417 1.257 . S
H432 C405 0.932 . S
H433 C406 0.930 . S
H434 C407 0.932 . S
H435 C408 0.929 . S
H436 C426 0.932 . S
H437 C427 0.930 . S
H438 C428 0.932 . S
H439 C429 0.929 . S
Tb440 C449 2.764 . S
Tb440 O450 2.325 . S
Tb440 O453 2.303 . S
Tb440 O457 2.322 . S
Tb440 O458 2.349 . S
Tb440 O461 2.415 . S
Tb440 O462 2.399 . S
Tb441 O451 2.322 . S
Tb441 O452 2.349 . S
Tb441 O454 2.415 . S
Tb441 O455 2.399 . S
Tb441 O456 2.325 . S
Tb441 O459 2.303 . S
Tb441 C470 2.764 . S
C442 O458 1.261 . S
C442 O459 1.257 . S
C443 C446 1.358 . S
C443 C447 1.332 . S
C443 C449 1.504 . S
C444 C445 1.373 . S
C444 C448 1.308 . S
C445 C444 1.373 . S
C445 C446 1.429 1_565 S
C445 H472 0.932 . S
C446 C443 1.358 . S
C446 C445 1.429 1_545 S
C446 H473 0.930 . S
C447 C443 1.332 . S
C447 C448 1.394 1_545 S
C447 H474 0.932 . S
C448 C444 1.308 . S
C448 C447 1.394 1_565 S
C448 H475 0.929 . S
C449 Tb440 2.764 . S
C449 C443 1.504 . S
C449 O461 1.239 . S
C449 O462 1.263 . S
O450 Tb440 2.325 . S
O450 C460 1.236 . S
O451 Tb441 2.322 . S
O451 C460 1.257 . S
O452 Tb441 2.349 . S
O452 C463 1.261 . S
O453 Tb440 2.303 . S
O453 C463 1.257 . S
O454 Tb441 2.415 . S
O454 C470 1.239 . S
O455 Tb441 2.399 . S
O455 C470 1.263 . S
O456 Tb441 2.325 . S
O456 C471 1.236 . S
O457 Tb440 2.322 . S
O457 C471 1.257 . S
O458 Tb440 2.349 . S
O458 C442 1.261 . S
O459 Tb441 2.303 . S
O459 C442 1.257 . S
C460 O450 1.236 . S
C460 O451 1.257 . S
O461 Tb440 2.415 . S
O461 C449 1.239 . S
O462 Tb440 2.399 . S
O462 C449 1.263 . S
C463 O452 1.261 . S
C463 O453 1.257 . S
C464 C467 1.358 . S
C464 C468 1.332 . S
C464 C470 1.504 . S
C465 C466 1.373 . S
C465 C469 1.308 . S
C466 C465 1.373 . S
C466 C467 1.429 . S
C466 H476 0.932 . S
C467 C464 1.358 . S
C467 C466 1.429 . S
C467 H477 0.930 . S
C468 C464 1.332 . S
C468 C469 1.394 . S
C468 H478 0.932 . S
C469 C465 1.308 . S
C469 C468 1.394 . S
C469 H479 0.929 . S
C470 Tb441 2.764 . S
C470 O454 1.239 . S
C470 O455 1.263 . S
C470 C464 1.504 . S
C471 O456 1.236 . S
C471 O457 1.257 . S
H472 C445 0.932 . S
H473 C446 0.930 . S
H474 C447 0.932 . S
H475 C448 0.929 . S
H476 C466 0.932 . S
H477 C467 0.930 . S
H478 C468 0.932 . S
H479 C469 0.929 . S
H480 C488 0.929 . S
H481 C490 0.930 . S
H482 C492 0.930 . S
H483 C495 0.929 . S
H484 C498 0.930 . S
H485 C500 0.960 . S
H486 C500 0.960 . S
H487 C500 0.960 . S
C488 H480 0.929 . S
C488 C489 1.377 . S
C488 C490 1.384 . S
C489 C488 1.377 . S
C489 C495 1.390 . S
C490 H481 0.930 . S
C490 C488 1.384 . S
C490 C491 1.372 . S
C491 C490 1.372 . S
C491 C492 1.400 . S
C491 C496 1.490 . S
C492 H482 0.930 . S
C492 C491 1.400 . S
C492 C495 1.386 . S
H493 C509 0.930 . S
H494 C510 0.931 . S
C495 H483 0.929 . S
C495 C489 1.390 . S
C495 C492 1.386 . S
C496 C491 1.490 . S
C496 C498 1.395 1_565 S
C496 C499 1.403 . S
H497 C503 0.930 . S
C498 H484 0.930 . S
C498 C496 1.395 1_545 S
C498 C501 1.403 . S
C499 C496 1.403 . S
C499 C500 1.524 . S
C499 C503 1.400 1_565 S
C500 H485 0.960 . S
C500 H486 0.960 . S
C500 H487 0.960 . S
C500 C499 1.524 . S
C501 C498 1.403 . S
C501 C502 1.392 . S
C501 C505 1.495 . S
C502 C501 1.392 . S
C502 C503 1.385 . S
C502 C504 1.478 . S
C503 H497 0.930 . S
C503 C499 1.400 1_545 S
C503 C502 1.385 . S
C504 C502 1.478 . S
C504 C506 1.381 . S
C504 C510 1.383 . S
C505 C501 1.495 . S
C505 H511 0.959 . S
C505 H512 0.961 . S
C505 H513 0.960 . S
C506 C504 1.381 . S
C506 C507 1.394 . S
C506 H514 0.930 . S
C507 C506 1.394 . S
C507 C508 1.383 . S
C507 H515 0.929 . S
C508 C507 1.383 . S
C508 C509 1.377 . S
C509 H493 0.930 . S
C509 C508 1.377 . S
C509 C510 1.379 . S
C510 H494 0.931 . S
C510 C504 1.383 . S
C510 C509 1.379 . S
H511 C505 0.959 . S
H512 C505 0.961 . S
H513 C505 0.960 . S
H514 C506 0.930 . S
H515 C507 0.929 . S
H516 C524 0.929 . S
H517 C526 0.930 . S
H518 C528 0.930 . S
H519 C531 0.929 . S
H520 C534 0.930 . S
H521 C536 0.960 . S
H522 C536 0.960 . S
H523 C536 0.960 . S
C524 H516 0.929 . S
C524 C525 1.377 . S
C524 C526 1.384 . S
C525 C524 1.377 . S
C525 C531 1.390 . S
C526 H517 0.930 . S
C526 C524 1.384 . S
C526 C527 1.372 . S
C527 C526 1.372 . S
C527 C528 1.400 . S
C527 C532 1.490 . S
C528 H518 0.930 . S
C528 C527 1.400 . S
C528 C531 1.386 . S
H529 C545 0.930 . S
H530 C546 0.931 . S
C531 H519 0.929 . S
C531 C525 1.390 . S
C531 C528 1.386 . S
C532 C527 1.490 . S
C532 C534 1.395 . S
C532 C535 1.403 . S
H533 C539 0.930 . S
C534 H520 0.930 . S
C534 C532 1.395 . S
C534 C537 1.403 . S
C535 C532 1.403 . S
C535 C536 1.524 . S
C535 C539 1.400 . S
C536 H521 0.960 . S
C536 H522 0.960 . S
C536 H523 0.960 . S
C536 C535 1.524 . S
C537 C534 1.403 . S
C537 C538 1.392 . S
C537 C541 1.495 . S
C538 C537 1.392 . S
C538 C539 1.385 . S
C538 C540 1.478 . S
C539 H533 0.930 . S
C539 C535 1.400 . S
C539 C538 1.385 . S
C540 C538 1.478 . S
C540 C542 1.381 . S
C540 C546 1.383 . S
C541 C537 1.495 . S
C541 H547 0.959 . S
C541 H548 0.961 . S
C541 H549 0.960 . S
C542 C540 1.381 . S
C542 C543 1.394 . S
C542 H550 0.930 . S
C543 C542 1.394 . S
C543 C544 1.383 . S
C543 H551 0.929 . S
C544 C543 1.383 . S
C544 C545 1.377 . S
C545 H529 0.930 . S
C545 C544 1.377 . S
C545 C546 1.379 . S
C546 H530 0.931 . S
C546 C540 1.383 . S
C546 C545 1.379 . S
H547 C541 0.959 . S
H548 C541 0.961 . S
H549 C541 0.960 . S
H550 C542 0.930 . S
H551 C543 0.929 . S
H552 C560 0.929 . S
H553 C562 0.930 . S
H554 C564 0.930 . S
H555 C567 0.929 . S
H556 C570 0.930 . S
H557 C572 0.960 . S
H558 C572 0.960 . S
H559 C572 0.960 . S
C560 H552 0.929 . S
C560 C561 1.377 . S
C560 C562 1.384 . S
C561 C560 1.377 . S
C561 C567 1.390 . S
C562 H553 0.930 . S
C562 C560 1.384 . S
C562 C563 1.372 . S
C563 C562 1.372 . S
C563 C564 1.400 . S
C563 C568 1.490 . S
C564 H554 0.930 . S
C564 C563 1.400 . S
C564 C567 1.386 . S
H565 C581 0.930 . S
H566 C582 0.931 . S
C567 H555 0.929 . S
C567 C561 1.390 . S
C567 C564 1.386 . S
C568 C563 1.490 . S
C568 C570 1.395 . S
C568 C571 1.403 . S
H569 C575 0.930 1_455 S
C570 H556 0.930 . S
C570 C568 1.395 . S
C570 C573 1.403 1_655 S
C571 C568 1.403 . S
C571 C572 1.524 . S
C571 C575 1.400 . S
C572 H557 0.960 . S
C572 H558 0.960 . S
C572 H559 0.960 . S
C572 C571 1.524 . S
C573 C570 1.403 1_455 S
C573 C574 1.392 . S
C573 C577 1.495 . S
C574 C573 1.392 . S
C574 C575 1.385 1_455 S
C574 C576 1.478 . S
C575 H569 0.930 1_655 S
C575 C571 1.400 . S
C575 C574 1.385 1_655 S
C576 C574 1.478 . S
C576 C578 1.381 . S
C576 C582 1.383 . S
C577 C573 1.495 . S
C577 H583 0.959 . S
C577 H584 0.961 . S
C577 H585 0.960 . S
C578 C576 1.381 . S
C578 C579 1.394 . S
C578 H586 0.930 . S
C579 C578 1.394 . S
C579 C580 1.383 . S
C579 H587 0.929 . S
C580 C579 1.383 . S
C580 C581 1.377 . S
C581 H565 0.930 . S
C581 C580 1.377 . S
C581 C582 1.379 . S
C582 H566 0.931 . S
C582 C576 1.383 . S
C582 C581 1.379 . S
H583 C577 0.959 . S
H584 C577 0.961 . S
H585 C577 0.960 . S
H586 C578 0.930 . S
H587 C579 0.929 . S
H588 C596 0.929 . S
H589 C598 0.930 . S
H590 C600 0.930 . S
H591 C603 0.929 . S
H592 C606 0.930 . S
H593 C608 0.960 1_545 S
H594 C608 0.960 . S
H595 C608 0.960 . S
C596 H588 0.929 . S
C596 C597 1.377 . S
C596 C598 1.384 . S
C597 C596 1.377 . S
C597 C603 1.390 . S
C598 H589 0.930 . S
C598 C596 1.384 . S
C598 C599 1.372 . S
C599 C598 1.372 . S
C599 C600 1.400 . S
C599 C604 1.490 . S
C600 H590 0.930 . S
C600 C599 1.400 . S
C600 C603 1.386 . S
H601 C617 0.930 . S
H602 C618 0.931 . S
C603 H591 0.929 . S
C603 C597 1.390 . S
C603 C600 1.386 . S
C604 C599 1.490 . S
C604 C606 1.395 . S
C604 C607 1.403 . S
H605 C611 0.930 . S
C606 H592 0.930 . S
C606 C604 1.395 . S
C606 C609 1.403 . S
C607 C604 1.403 . S
C607 C608 1.524 . S
C607 C611 1.400 1_565 S
C608 H593 0.960 1_565 S
C608 H594 0.960 . S
C608 H595 0.960 . S
C608 C607 1.524 . S
C609 C606 1.403 . S
C609 C610 1.392 1_565 S
C609 C613 1.495 . S
C610 C609 1.392 1_545 S
C610 C611 1.385 . S
C610 C612 1.478 . S
C611 H605 0.930 . S
C611 C607 1.400 1_545 S
C611 C610 1.385 . S
C612 C610 1.478 . S
C612 C614 1.381 . S
C612 C618 1.383 . S
C613 C609 1.495 . S
C613 H619 0.959 . S
C613 H620 0.961 1_565 S
C613 H621 0.960 1_565 S
C614 C612 1.381 . S
C614 C615 1.394 . S
C614 H622 0.930 . S
C615 C614 1.394 . S
C615 C616 1.383 . S
C615 H623 0.929 . S
C616 C615 1.383 . S
C616 C617 1.377 . S
C617 H601 0.930 . S
C617 C616 1.377 . S
C617 C618 1.379 . S
C618 H602 0.931 . S
C618 C612 1.383 . S
C618 C617 1.379 . S
H619 C613 0.959 . S
H620 C613 0.961 1_545 S
H621 C613 0.960 1_545 S
H622 C614 0.930 . S
H623 C615 0.929 . S
H624 C632 0.929 . S
H625 C634 0.930 . S
H626 C636 0.930 . S
H627 C639 0.929 . S
H628 C642 0.930 . S
H629 C644 0.960 . S
H630 C644 0.960 . S
H631 C644 0.960 . S
C632 H624 0.929 . S
C632 C633 1.377 . S
C632 C634 1.384 . S
C633 C632 1.377 . S
C633 C639 1.390 . S
C634 H625 0.930 . S
C634 C632 1.384 . S
C634 C635 1.372 . S
C635 C634 1.372 . S
C635 C636 1.400 . S
C635 C640 1.490 . S
C636 H626 0.930 . S
C636 C635 1.400 . S
C636 C639 1.386 . S
H637 C653 0.930 . S
H638 C654 0.931 . S
C639 H627 0.929 . S
C639 C633 1.390 . S
C639 C636 1.386 . S
C640 C635 1.490 . S
C640 C642 1.395 . S
C640 C643 1.403 . S
H641 C647 0.930 . S
C642 H628 0.930 . S
C642 C640 1.395 . S
C642 C645 1.403 . S
C643 C640 1.403 . S
C643 C644 1.524 . S
C643 C647 1.400 . S
C644 H629 0.960 . S
C644 H630 0.960 . S
C644 H631 0.960 . S
C644 C643 1.524 . S
C645 C642 1.403 . S
C645 C646 1.392 . S
C645 C649 1.495 . S
C646 C645 1.392 . S
C646 C647 1.385 . S
C646 C648 1.478 . S
C647 H641 0.930 . S
C647 C643 1.400 . S
C647 C646 1.385 . S
C648 C646 1.478 . S
C648 C650 1.381 . S
C648 C654 1.383 . S
C649 C645 1.495 . S
C649 H655 0.959 . S
C649 H656 0.961 . S
C649 H657 0.960 . S
C650 C648 1.381 . S
C650 C651 1.394 . S
C650 H658 0.930 . S
C651 C650 1.394 . S
C651 C652 1.383 . S
C651 H659 0.929 . S
C652 C651 1.383 . S
C652 C653 1.377 . S
C653 H637 0.930 . S
C653 C652 1.377 . S
C653 C654 1.379 . S
C654 H638 0.931 . S
C654 C648 1.383 . S
C654 C653 1.379 . S
H655 C649 0.959 . S
H656 C649 0.961 . S
H657 C649 0.960 . S
H658 C650 0.930 . S
H659 C651 0.929 . S
H660 C668 0.929 . S
H661 C670 0.930 . S
H662 C672 0.930 . S
H663 C675 0.929 . S
H664 C678 0.930 . S
H665 C680 0.960 . S
H666 C680 0.960 . S
H667 C680 0.960 . S
C668 H660 0.929 . S
C668 C669 1.377 . S
C668 C670 1.384 . S
C669 C668 1.377 . S
C669 C675 1.390 . S
C670 H661 0.930 . S
C670 C668 1.384 . S
C670 C671 1.372 . S
C671 C670 1.372 . S
C671 C672 1.400 . S
C671 C676 1.490 . S
C672 H662 0.930 . S
C672 C671 1.400 . S
C672 C675 1.386 . S
H673 C689 0.930 . S
H674 C690 0.931 . S
C675 H663 0.929 . S
C675 C669 1.390 . S
C675 C672 1.386 . S
C676 C671 1.490 . S
C676 C678 1.395 . S
C676 C679 1.403 . S
H677 C683 0.930 . S
C678 H664 0.930 . S
C678 C676 1.395 . S
C678 C681 1.403 1_655 S
C679 C676 1.403 . S
C679 C680 1.524 . S
C679 C683 1.400 1_655 S
C680 H665 0.960 . S
C680 H666 0.960 . S
C680 H667 0.960 . S
C680 C679 1.524 . S
C681 C678 1.403 1_455 S
C681 C682 1.392 . S
C681 C685 1.495 . S
C682 C681 1.392 . S
C682 C683 1.385 . S
C682 C684 1.478 . S
C683 H677 0.930 . S
C683 C679 1.400 1_455 S
C683 C682 1.385 . S
C684 C682 1.478 . S
C684 C686 1.381 . S
C684 C690 1.383 . S
C685 C681 1.495 . S
C685 H691 0.959 . S
C685 H692 0.961 . S
C685 H693 0.960 . S
C686 C684 1.381 . S
C686 C687 1.394 . S
C686 H694 0.930 . S
C687 C686 1.394 . S
C687 C688 1.383 . S
C687 H695 0.929 . S
C688 C687 1.383 . S
C688 C689 1.377 . S
C689 H673 0.930 . S
C689 C688 1.377 . S
C689 C690 1.379 . S
C690 H674 0.931 . S
C690 C684 1.383 . S
C690 C689 1.379 . S
H691 C685 0.959 . S
H692 C685 0.961 . S
H693 C685 0.960 . S
H694 C686 0.930 . S
H695 C687 0.929 . S
H696 C704 0.929 . S
H697 C706 0.930 . S
H698 C708 0.930 . S
H699 C711 0.929 . S
H700 C714 0.930 . S
H701 C716 0.952 1_655 S
H702 C716 0.968 . S
H703 C716 0.969 . S
C704 H696 0.929 . S
C704 C705 1.377 . S
C704 C706 1.384 . S
C705 C704 1.377 . S
C705 C711 1.390 . S
C706 H697 0.930 . S
C706 C704 1.384 . S
C706 C707 1.372 . S
C707 C706 1.372 . S
C707 C708 1.400 . S
C707 C712 1.490 . S
C708 H698 0.930 . S
C708 C707 1.400 . S
C708 C711 1.386 . S
H709 C725 0.930 . S
H710 C726 0.931 . S
C711 H699 0.929 . S
C711 C705 1.390 . S
C711 C708 1.386 . S
C712 C707 1.490 . S
C712 C714 1.395 . S
C712 C715 1.403 1_455 S
H713 C719 0.930 . S
C714 H700 0.930 . S
C714 C712 1.395 . S
C714 C717 1.403 1_455 S
C715 C712 1.403 1_655 S
C715 C716 1.515 1_655 S
C715 C719 1.400 . S
C716 H701 0.952 1_455 S
C716 H702 0.968 . S
C716 H703 0.969 . S
C716 C715 1.515 1_455 S
C717 C714 1.403 1_655 S
C717 C718 1.392 . S
C717 C721 1.495 . S
C718 C717 1.392 . S
C718 C719 1.385 . S
C718 C720 1.478 . S
C719 H713 0.930 . S
C719 C715 1.400 . S
C719 C718 1.385 . S
C720 C718 1.478 . S
C720 C722 1.381 . S
C720 C726 1.383 . S
C721 C717 1.495 . S
C721 H727 0.959 . S
C721 H728 0.961 . S
C721 H729 0.960 . S
C722 C720 1.381 . S
C722 C723 1.394 . S
C722 H730 0.930 . S
C723 C722 1.394 . S
C723 C724 1.383 . S
C723 H731 0.929 . S
C724 C723 1.383 . S
C724 C725 1.377 . S
C725 H709 0.930 . S
C725 C724 1.377 . S
C725 C726 1.379 . S
C726 H710 0.931 . S
C726 C720 1.383 . S
C726 C725 1.379 . S
H727 C721 0.959 . S
H728 C721 0.961 . S
H729 C721 0.960 . S
H730 C722 0.930 . S
H731 C723 0.929 . S
H732 C740 0.929 . S
H733 C742 0.930 . S
H734 C744 0.930 . S
H735 C747 0.929 . S
H736 C750 0.930 . S
H737 C752 0.960 . S
H738 C752 0.960 . S
H739 C752 0.960 . S
C740 H732 0.929 . S
C740 C741 1.377 . S
C740 C742 1.384 . S
C741 C740 1.377 . S
C741 C747 1.390 . S
C742 H733 0.930 . S
C742 C740 1.384 . S
C742 C743 1.372 . S
C743 C742 1.372 . S
C743 C744 1.400 . S
C743 C748 1.490 . S
C744 H734 0.930 . S
C744 C743 1.400 . S
C744 C747 1.386 . S
H745 C761 0.930 . S
H746 C762 0.931 . S
C747 H735 0.929 . S
C747 C741 1.390 . S
C747 C744 1.386 . S
C748 C743 1.490 . S
C748 C750 1.395 . S
C748 C751 1.403 . S
H749 C755 0.930 . S
C750 H736 0.930 . S
C750 C748 1.395 . S
C750 C753 1.403 1_565 S
C751 C748 1.403 . S
C751 C752 1.524 . S
C751 C755 1.400 1_565 S
C752 H737 0.960 . S
C752 H738 0.960 . S
C752 H739 0.960 . S
C752 C751 1.524 . S
C753 C750 1.403 1_545 S
C753 C754 1.392 . S
C753 C757 1.495 . S
C754 C753 1.392 . S
C754 C755 1.385 . S
C754 C756 1.478 . S
C755 H749 0.930 . S
C755 C751 1.400 1_545 S
C755 C754 1.385 . S
C756 C754 1.478 . S
C756 C758 1.381 . S
C756 C762 1.383 . S
C757 C753 1.495 . S
C757 H763 0.959 1_545 S
C757 H764 0.961 . S
C757 H765 0.960 . S
C758 C756 1.381 . S
C758 C759 1.394 . S
C758 H766 0.930 . S
C759 C758 1.394 . S
C759 C760 1.383 . S
C759 H767 0.929 . S
C760 C759 1.383 . S
C760 C761 1.377 . S
C761 H745 0.930 . S
C761 C760 1.377 . S
C761 C762 1.379 . S
C762 H746 0.931 . S
C762 C756 1.383 . S
C762 C761 1.379 . S
H763 C757 0.959 1_565 S
H764 C757 0.961 . S
H765 C757 0.960 . S
H766 C758 0.930 . S
H767 C759 0.929 . S
H768 C776 0.929 . S
H769 C778 0.930 . S
H770 C780 0.930 . S
H771 C783 0.929 . S
H772 C786 0.930 . S
H773 C788 0.960 . S
H774 C788 0.960 . S
H775 C788 0.960 . S
C776 H768 0.929 . S
C776 C777 1.377 . S
C776 C778 1.384 . S
C777 C776 1.377 . S
C777 C783 1.390 . S
C778 H769 0.930 . S
C778 C776 1.384 . S
C778 C779 1.372 . S
C779 C778 1.372 . S
C779 C780 1.400 . S
C779 C784 1.490 . S
C780 H770 0.930 . S
C780 C779 1.400 . S
C780 C783 1.386 . S
H781 C797 0.930 . S
H782 C798 0.931 . S
C783 H771 0.929 . S
C783 C777 1.390 . S
C783 C780 1.386 . S
C784 C779 1.490 . S
C784 C786 1.395 . S
C784 C787 1.403 . S
H785 C791 0.930 . S
C786 H772 0.930 . S
C786 C784 1.395 . S
C786 C789 1.403 . S
C787 C784 1.403 . S
C787 C788 1.524 . S
C787 C791 1.400 . S
C788 H773 0.960 . S
C788 H774 0.960 . S
C788 H775 0.960 . S
C788 C787 1.524 . S
C789 C786 1.403 . S
C789 C790 1.392 . S
C789 C793 1.495 . S
C790 C789 1.392 . S
C790 C791 1.385 . S
C790 C792 1.478 . S
C791 H785 0.930 . S
C791 C787 1.400 . S
C791 C790 1.385 . S
C792 C790 1.478 . S
C792 C794 1.381 . S
C792 C798 1.383 . S
C793 C789 1.495 . S
C793 H799 0.959 . S
C793 H800 0.961 . S
C793 H801 0.960 . S
C794 C792 1.381 . S
C794 C795 1.394 . S
C794 H802 0.930 . S
C795 C794 1.394 . S
C795 C796 1.383 . S
C795 H803 0.929 . S
C796 C795 1.383 . S
C796 C797 1.377 . S
C797 H781 0.930 . S
C797 C796 1.377 . S
C797 C798 1.379 . S
C798 H782 0.931 . S
C798 C792 1.383 . S
C798 C797 1.379 . S
H799 C793 0.959 . S
H800 C793 0.961 . S
H801 C793 0.960 . S
H802 C794 0.930 . S
H803 C795 0.929 . S
H804 C812 0.929 . S
H805 C814 0.930 . S
H806 C816 0.930 . S
H807 C819 0.929 . S
H808 C822 0.930 . S
H809 C824 0.960 . S
H810 C824 0.960 . S
H811 C824 0.960 . S
C812 H804 0.929 . S
C812 C813 1.377 . S
C812 C814 1.384 . S
C813 C812 1.377 . S
C813 C819 1.390 . S
C814 H805 0.930 . S
C814 C812 1.384 . S
C814 C815 1.372 . S
C815 C814 1.372 . S
C815 C816 1.400 . S
C815 C820 1.490 . S
C816 H806 0.930 . S
C816 C815 1.400 . S
C816 C819 1.386 . S
H817 C833 0.930 . S
H818 C834 0.931 . S
C819 H807 0.929 . S
C819 C813 1.390 . S
C819 C816 1.386 . S
C820 C815 1.490 . S
C820 C822 1.395 . S
C820 C823 1.403 . S
H821 C827 0.930 1_655 S
C822 H808 0.930 . S
C822 C820 1.395 . S
C822 C825 1.403 1_455 S
C823 C820 1.403 . S
C823 C824 1.524 . S
C823 C827 1.400 . S
C824 H809 0.960 . S
C824 H810 0.960 . S
C824 H811 0.960 . S
C824 C823 1.524 . S
C825 C822 1.403 1_655 S
C825 C826 1.392 . S
C825 C829 1.495 . S
C826 C825 1.392 . S
C826 C827 1.385 1_655 S
C826 C828 1.478 . S
C827 H821 0.930 1_455 S
C827 C823 1.400 . S
C827 C826 1.385 1_455 S
C828 C826 1.478 . S
C828 C830 1.381 . S
C828 C834 1.383 . S
C829 C825 1.495 . S
C829 H835 0.959 . S
C829 H836 0.961 . S
C829 H837 0.960 . S
C830 C828 1.381 . S
C830 C831 1.394 . S
C830 H838 0.930 . S
C831 C830 1.394 . S
C831 C832 1.383 . S
C831 H839 0.929 . S
C832 C831 1.383 . S
C832 C833 1.377 . S
C833 H817 0.930 . S
C833 C832 1.377 . S
C833 C834 1.379 . S
C834 H818 0.931 . S
C834 C828 1.383 . S
C834 C833 1.379 . S
H835 C829 0.959 . S
H836 C829 0.961 . S
H837 C829 0.960 . S
H838 C830 0.930 . S
H839 C831 0.929 . S
H840 C848 0.929 . S
H841 C850 0.930 . S
H842 C852 0.930 . S
H843 C855 0.929 . S
H844 C858 0.930 . S
H845 C860 0.960 . S
H846 C860 0.960 . S
H847 C860 0.960 . S
C848 H840 0.929 . S
C848 C849 1.377 . S
C848 C850 1.384 . S
C849 C848 1.377 . S
C849 C855 1.390 . S
C850 H841 0.930 . S
C850 C848 1.384 . S
C850 C851 1.372 . S
C851 C850 1.372 . S
C851 C852 1.400 . S
C851 C856 1.490 . S
C852 H842 0.930 . S
C852 C851 1.400 . S
C852 C855 1.386 . S
H853 C869 0.930 . S
H854 C870 0.931 . S
C855 H843 0.929 . S
C855 C849 1.390 . S
C855 C852 1.386 . S
C856 C851 1.490 . S
C856 C858 1.395 . S
C856 C859 1.403 . S
H857 C863 0.930 1_565 S
C858 H844 0.930 . S
C858 C856 1.395 . S
C858 C861 1.403 1_545 S
C859 C856 1.403 . S
C859 C860 1.524 . S
C859 C863 1.400 . S
C860 H845 0.960 . S
C860 H846 0.960 . S
C860 H847 0.960 . S
C860 C859 1.524 . S
C861 C858 1.403 1_565 S
C861 C862 1.392 . S
C861 C865 1.495 . S
C862 C861 1.392 . S
C862 C863 1.385 1_565 S
C862 C864 1.478 . S
C863 H857 0.930 1_545 S
C863 C859 1.400 . S
C863 C862 1.385 1_545 S
C864 C862 1.478 . S
C864 C866 1.381 . S
C864 C870 1.383 . S
C865 C861 1.495 . S
C865 H871 0.959 . S
C865 H872 0.961 . S
C865 H873 0.960 . S
C866 C864 1.381 . S
C866 C867 1.394 . S
C866 H874 0.930 . S
C867 C866 1.394 . S
C867 C868 1.383 . S
C867 H875 0.929 . S
C868 C867 1.383 . S
C868 C869 1.377 . S
C869 H853 0.930 . S
C869 C868 1.377 . S
C869 C870 1.379 . S
C870 H854 0.931 . S
C870 C864 1.383 . S
C870 C869 1.379 . S
H871 C865 0.959 . S
H872 C865 0.961 . S
H873 C865 0.960 . S
H874 C866 0.930 . S
H875 C867 0.929 . S
H876 C884 0.929 . S
H877 C886 0.930 . S
H878 C888 0.930 . S
H879 C891 0.929 . S
H880 C894 0.930 . S
H881 C896 0.960 . S
H882 C896 0.960 . S
H883 C896 0.960 . S
C884 H876 0.929 . S
C884 C885 1.377 . S
C884 C886 1.384 . S
C885 C884 1.377 . S
C885 C891 1.390 . S
C886 H877 0.930 . S
C886 C884 1.384 . S
C886 C887 1.372 . S
C887 C886 1.372 . S
C887 C888 1.400 . S
C887 C892 1.490 . S
C888 H878 0.930 . S
C888 C887 1.400 . S
C888 C891 1.386 . S
H889 C905 0.930 . S
H890 C906 0.931 . S
C891 H879 0.929 . S
C891 C885 1.390 . S
C891 C888 1.386 . S
C892 C887 1.490 . S
C892 C894 1.395 . S
C892 C895 1.403 . S
H893 C899 0.930 . S
C894 H880 0.930 . S
C894 C892 1.395 . S
C894 C897 1.403 . S
C895 C892 1.403 . S
C895 C896 1.524 . S
C895 C899 1.400 . S
C896 H881 0.960 . S
C896 H882 0.960 . S
C896 H883 0.960 . S
C896 C895 1.524 . S
C897 C894 1.403 . S
C897 C898 1.392 . S
C897 C901 1.495 . S
C898 C897 1.392 . S
C898 C899 1.385 . S
C898 C900 1.478 . S
C899 H893 0.930 . S
C899 C895 1.400 . S
C899 C898 1.385 . S
C900 C898 1.478 . S
C900 C902 1.381 . S
C900 C906 1.383 . S
C901 C897 1.495 . S
C901 H907 0.959 . S
C901 H908 0.961 . S
C901 H909 0.960 . S
C902 C900 1.381 . S
C902 C903 1.394 . S
C902 H910 0.930 . S
C903 C902 1.394 . S
C903 C904 1.383 . S
C903 H911 0.929 . S
C904 C903 1.383 . S
C904 C905 1.377 . S
C905 H889 0.930 . S
C905 C904 1.377 . S
C905 C906 1.379 . S
C906 H890 0.931 . S
C906 C900 1.383 . S
C906 C905 1.379 . S
H907 C901 0.959 . S
H908 C901 0.961 . S
H909 C901 0.960 . S
H910 C902 0.930 . S
H911 C903 0.929 . S
H912 C920 0.929 . S
H913 C922 0.930 . S
H914 C924 0.930 . S
H915 C927 0.929 . S
H916 C930 0.930 . S
H917 C932 0.960 . S
H918 C932 0.960 . S
H919 C932 0.960 . S
C920 H912 0.929 . S
C920 C921 1.377 . S
C920 C922 1.384 . S
C921 C920 1.377 . S
C921 C927 1.390 . S
C922 H913 0.930 . S
C922 C920 1.384 . S
C922 C923 1.372 . S
C923 C922 1.372 . S
C923 C924 1.400 . S
C923 C928 1.490 . S
C924 H914 0.930 . S
C924 C923 1.400 . S
C924 C927 1.386 . S
H925 C941 0.930 . S
H926 C942 0.931 . S
C927 H915 0.929 . S
C927 C921 1.390 . S
C927 C924 1.386 . S
C928 C923 1.490 . S
C928 C930 1.395 . S
C928 C931 1.403 . S
H929 C935 0.930 . S
C930 H916 0.930 . S
C930 C928 1.395 . S
C930 C933 1.403 . S
C931 C928 1.403 . S
C931 C932 1.524 . S
C931 C935 1.400 . S
C932 H917 0.960 . S
C932 H918 0.960 . S
C932 H919 0.960 . S
C932 C931 1.524 . S
C933 C930 1.403 . S
C933 C934 1.392 . S
C933 C937 1.495 . S
C934 C933 1.392 . S
C934 C935 1.385 . S
C934 C936 1.478 . S
C935 H929 0.930 . S
C935 C931 1.400 . S
C935 C934 1.385 . S
C936 C934 1.478 . S
C936 C938 1.381 . S
C936 C942 1.383 . S
C937 C933 1.495 . S
C937 H943 0.959 . S
C937 H944 0.961 . S
C937 H945 0.960 . S
C938 C936 1.381 . S
C938 C939 1.394 . S
C938 H946 0.930 . S
C939 C938 1.394 . S
C939 C940 1.383 . S
C939 H947 0.929 . S
C940 C939 1.383 . S
C940 C941 1.377 . S
C941 H925 0.930 . S
C941 C940 1.377 . S
C941 C942 1.379 . S
C942 H926 0.931 . S
C942 C936 1.383 . S
C942 C941 1.379 . S
H943 C937 0.959 . S
H944 C937 0.961 . S
H945 C937 0.960 . S
H946 C938 0.930 . S
H947 C939 0.929 . S
H948 C956 0.929 . S
H949 C958 0.930 . S
H950 C960 0.930 . S
H951 C963 0.929 . S
H952 C966 0.930 . S
H953 C968 0.960 . S
H954 C968 0.960 . S
H955 C968 0.960 . S
C956 H948 0.929 . S
C956 C957 1.377 . S
C956 C958 1.384 . S
C957 C956 1.377 . S
C957 C963 1.390 . S
C958 H949 0.930 . S
C958 C956 1.384 . S
C958 C959 1.372 . S
C959 C958 1.372 . S
C959 C960 1.400 . S
C959 C964 1.490 . S
C960 H950 0.930 . S
C960 C959 1.400 . S
C960 C963 1.386 . S
H961 C977 0.930 . S
H962 C978 0.931 . S
C963 H951 0.929 . S
C963 C957 1.390 . S
C963 C960 1.386 . S
C964 C959 1.490 . S
C964 C966 1.395 . S
C964 C967 1.403 . S
H965 C971 0.930 . S
C966 H952 0.930 . S
C966 C964 1.395 . S
C966 C969 1.403 . S
C967 C964 1.403 . S
C967 C968 1.524 . S
C967 C971 1.400 . S
C968 H953 0.960 . S
C968 H954 0.960 . S
C968 H955 0.960 . S
C968 C967 1.524 . S
C969 C966 1.403 . S
C969 C970 1.392 . S
C969 C973 1.495 . S
C970 C969 1.392 . S
C970 C971 1.385 . S
C970 C972 1.478 . S
C971 H965 0.930 . S
C971 C967 1.400 . S
C971 C970 1.385 . S
C972 C970 1.478 . S
C972 C974 1.381 . S
C972 C978 1.383 . S
C973 C969 1.495 . S
C973 H979 0.959 . S
C973 H980 0.961 . S
C973 H981 0.960 . S
C974 C972 1.381 . S
C974 C975 1.394 . S
C974 H982 0.930 . S
C975 C974 1.394 . S
C975 C976 1.383 . S
C975 H983 0.929 . S
C976 C975 1.383 . S
C976 C977 1.377 . S
C977 H961 0.930 . S
C977 C976 1.377 . S
C977 C978 1.379 . S
C978 H962 0.931 . S
C978 C972 1.383 . S
C978 C977 1.379 . S
H979 C973 0.959 . S
H980 C973 0.961 . S
H981 C973 0.960 . S
H982 C974 0.930 . S
H983 C975 0.929 . S
H984 C992 0.929 . S
H985 C994 0.930 . S
H986 C996 0.930 . S
H987 C999 0.929 . S
H988 C1002 0.930 . S
H989 C1004 0.960 . S
H990 C1004 0.960 . S
H991 C1004 0.960 . S
C992 H984 0.929 . S
C992 C993 1.377 . S
C992 C994 1.384 . S
C993 C992 1.377 . S
C993 C999 1.390 . S
C994 H985 0.930 . S
C994 C992 1.384 . S
C994 C995 1.372 . S
C995 C994 1.372 . S
C995 C996 1.400 . S
C995 C1000 1.490 . S
C996 H986 0.930 . S
C996 C995 1.400 . S
C996 C999 1.386 . S
H997 C1013 0.930 . S
H998 C1014 0.931 . S
C999 H987 0.929 . S
C999 C993 1.390 . S
C999 C996 1.386 . S
C1000 C995 1.490 . S
C1000 C1002 1.395 . S
C1000 C1003 1.403 . S
H1001 C1007 0.930 . S
C1002 H988 0.930 . S
C1002 C1000 1.395 . S
C1002 C1005 1.403 . S
C1003 C1000 1.403 . S
C1003 C1004 1.524 . S
C1003 C1007 1.400 . S
C1004 H989 0.960 . S
C1004 H990 0.960 . S
C1004 H991 0.960 . S
C1004 C1003 1.524 . S
C1005 C1002 1.403 . S
C1005 C1006 1.392 . S
C1005 C1009 1.495 . S
C1006 C1005 1.392 . S
C1006 C1007 1.385 . S
C1006 C1008 1.478 . S
C1007 H1001 0.930 . S
C1007 C1003 1.400 . S
C1007 C1006 1.385 . S
C1008 C1006 1.478 . S
C1008 C1010 1.381 . S
C1008 C1014 1.383 . S
C1009 C1005 1.495 . S
C1009 H1015 0.959 . S
C1009 H1016 0.961 . S
C1009 H1017 0.960 . S
C1010 C1008 1.381 . S
C1010 C1011 1.394 . S
C1010 H1018 0.930 . S
C1011 C1010 1.394 . S
C1011 C1012 1.383 . S
C1011 H1019 0.929 . S
C1012 C1011 1.383 . S
C1012 C1013 1.377 . S
C1013 H997 0.930 . S
C1013 C1012 1.377 . S
C1013 C1014 1.379 . S
C1014 H998 0.931 . S
C1014 C1008 1.383 . S
C1014 C1013 1.379 . S
H1015 C1009 0.959 . S
H1016 C1009 0.961 . S
H1017 C1009 0.960 . S
H1018 C1010 0.930 . S
H1019 C1011 0.929 . S
H1020 C1028 0.929 . S
H1021 C1030 0.930 . S
H1022 C1032 0.930 . S
H1023 C1035 0.929 . S
H1024 C1038 0.930 . S
H1025 C1040 0.960 . S
H1026 C1040 0.960 . S
H1027 C1040 0.960 . S
C1028 H1020 0.929 . S
C1028 C1029 1.377 . S
C1028 C1030 1.384 . S
C1029 C1028 1.377 . S
C1029 C1035 1.390 . S
C1030 H1021 0.930 . S
C1030 C1028 1.384 . S
C1030 C1031 1.372 . S
C1031 C1030 1.372 . S
C1031 C1032 1.400 . S
C1031 C1036 1.490 . S
C1032 H1022 0.930 . S
C1032 C1031 1.400 . S
C1032 C1035 1.386 . S
H1033 C1049 0.930 . S
H1034 C1050 0.931 . S
C1035 H1023 0.929 . S
C1035 C1029 1.390 . S
C1035 C1032 1.386 . S
C1036 C1031 1.490 . S
C1036 C1038 1.395 . S
C1036 C1039 1.403 . S
H1037 C1043 0.930 . S
C1038 H1024 0.930 . S
C1038 C1036 1.395 . S
C1038 C1041 1.403 . S
C1039 C1036 1.403 . S
C1039 C1040 1.524 . S
C1039 C1043 1.400 . S
C1040 H1025 0.960 . S
C1040 H1026 0.960 . S
C1040 H1027 0.960 . S
C1040 C1039 1.524 . S
C1041 C1038 1.403 . S
C1041 C1042 1.392 . S
C1041 C1045 1.495 . S
C1042 C1041 1.392 . S
C1042 C1043 1.385 . S
C1042 C1044 1.478 . S
C1043 H1037 0.930 . S
C1043 C1039 1.400 . S
C1043 C1042 1.385 . S
C1044 C1042 1.478 . S
C1044 C1046 1.381 . S
C1044 C1050 1.383 . S
C1045 C1041 1.495 . S
C1045 H1051 0.959 . S
C1045 H1052 0.961 . S
C1045 H1053 0.960 . S
C1046 C1044 1.381 . S
C1046 C1047 1.394 . S
C1046 H1054 0.930 . S
C1047 C1046 1.394 . S
C1047 C1048 1.383 . S
C1047 H1055 0.929 . S
C1048 C1047 1.383 . S
C1048 C1049 1.377 . S
C1049 H1033 0.930 . S
C1049 C1048 1.377 . S
C1049 C1050 1.379 . S
C1050 H1034 0.931 . S
C1050 C1044 1.383 . S
C1050 C1049 1.379 . S
H1051 C1045 0.959 . S
H1052 C1045 0.961 . S
H1053 C1045 0.960 . S
H1054 C1046 0.930 . S
H1055 C1047 0.929 . S
H1056 C1064 0.929 . S
H1057 C1066 0.930 . S
H1058 C1068 0.930 . S
H1059 C1071 0.929 . S
H1060 C1074 0.930 . S
H1061 C1076 0.960 . S
H1062 C1076 0.960 . S
H1063 C1076 0.960 . S
C1064 H1056 0.929 . S
C1064 C1065 1.377 . S
C1064 C1066 1.384 . S
C1065 C1064 1.377 . S
C1065 C1071 1.390 . S
C1066 H1057 0.930 . S
C1066 C1064 1.384 . S
C1066 C1067 1.372 . S
C1067 C1066 1.372 . S
C1067 C1068 1.400 . S
C1067 C1072 1.490 . S
C1068 H1058 0.930 . S
C1068 C1067 1.400 . S
C1068 C1071 1.386 . S
H1069 C1085 0.930 . S
H1070 C1086 0.931 . S
C1071 H1059 0.929 . S
C1071 C1065 1.390 . S
C1071 C1068 1.386 . S
C1072 C1067 1.490 . S
C1072 C1074 1.395 . S
C1072 C1075 1.403 . S
H1073 C1079 0.930 . S
C1074 H1060 0.930 . S
C1074 C1072 1.395 . S
C1074 C1077 1.403 . S
C1075 C1072 1.403 . S
C1075 C1076 1.524 . S
C1075 C1079 1.400 . S
C1076 H1061 0.960 . S
C1076 H1062 0.960 . S
C1076 H1063 0.960 . S
C1076 C1075 1.524 . S
C1077 C1074 1.403 . S
C1077 C1078 1.392 . S
C1077 C1081 1.495 . S
C1078 C1077 1.392 . S
C1078 C1079 1.385 . S
C1078 C1080 1.478 . S
C1079 H1073 0.930 . S
C1079 C1075 1.400 . S
C1079 C1078 1.385 . S
C1080 C1078 1.478 . S
C1080 C1082 1.381 . S
C1080 C1086 1.383 . S
C1081 C1077 1.495 . S
C1081 H1087 0.959 . S
C1081 H1088 0.961 . S
C1081 H1089 0.960 . S
C1082 C1080 1.381 . S
C1082 C1083 1.394 . S
C1082 H1090 0.930 . S
C1083 C1082 1.394 . S
C1083 C1084 1.383 . S
C1083 H1091 0.929 . S
C1084 C1083 1.383 . S
C1084 C1085 1.377 . S
C1085 H1069 0.930 . S
C1085 C1084 1.377 . S
C1085 C1086 1.379 . S
C1086 H1070 0.931 . S
C1086 C1080 1.383 . S
C1086 C1085 1.379 . S
H1087 C1081 0.959 . S
H1088 C1081 0.961 . S
H1089 C1081 0.960 . S
H1090 C1082 0.930 . S
H1091 C1083 0.929 . S
H1092 C1100 0.929 . S
H1093 C1102 0.930 . S
H1094 C1104 0.930 . S
H1095 C1107 0.929 . S
H1096 C1110 0.930 . S
H1097 C1112 0.960 . S
H1098 C1112 0.960 . S
H1099 C1112 0.960 . S
C1100 H1092 0.929 . S
C1100 C1101 1.377 . S
C1100 C1102 1.384 . S
C1101 C1100 1.377 . S
C1101 C1107 1.390 . S
C1102 H1093 0.930 . S
C1102 C1100 1.384 . S
C1102 C1103 1.372 . S
C1103 C1102 1.372 . S
C1103 C1104 1.400 . S
C1103 C1108 1.490 . S
C1104 H1094 0.930 . S
C1104 C1103 1.400 . S
C1104 C1107 1.386 . S
H1105 C1121 0.930 . S
H1106 C1122 0.931 . S
C1107 H1095 0.929 . S
C1107 C1101 1.390 . S
C1107 C1104 1.386 . S
C1108 C1103 1.490 . S
C1108 C1110 1.395 . S
C1108 C1111 1.403 . S
H1109 C1115 0.930 . S
C1110 H1096 0.930 . S
C1110 C1108 1.395 . S
C1110 C1113 1.403 . S
C1111 C1108 1.403 . S
C1111 C1112 1.524 . S
C1111 C1115 1.400 . S
C1112 H1097 0.960 . S
C1112 H1098 0.960 . S
C1112 H1099 0.960 . S
C1112 C1111 1.524 . S
C1113 C1110 1.403 . S
C1113 C1114 1.392 . S
C1113 C1117 1.495 . S
C1114 C1113 1.392 . S
C1114 C1115 1.385 . S
C1114 C1116 1.478 . S
C1115 H1109 0.930 . S
C1115 C1111 1.400 . S
C1115 C1114 1.385 . S
C1116 C1114 1.478 . S
C1116 C1118 1.381 . S
C1116 C1122 1.383 . S
C1117 C1113 1.495 . S
C1117 H1123 0.959 . S
C1117 H1124 0.961 . S
C1117 H1125 0.960 . S
C1118 C1116 1.381 . S
C1118 C1119 1.394 . S
C1118 H1126 0.930 . S
C1119 C1118 1.394 . S
C1119 C1120 1.383 . S
C1119 H1127 0.929 . S
C1120 C1119 1.383 . S
C1120 C1121 1.377 . S
C1121 H1105 0.930 . S
C1121 C1120 1.377 . S
C1121 C1122 1.379 . S
C1122 H1106 0.931 . S
C1122 C1116 1.383 . S
C1122 C1121 1.379 . S
H1123 C1117 0.959 . S
H1124 C1117 0.961 . S
H1125 C1117 0.960 . S
H1126 C1118 0.930 . S
H1127 C1119 0.929 . S
H1128 C1136 0.929 . S
H1129 C1138 0.930 . S
H1130 C1140 0.930 . S
H1131 C1143 0.929 . S
H1132 C1146 0.930 . S
H1133 C1148 0.960 . S
H1134 C1148 0.960 . S
H1135 C1148 0.960 . S
C1136 H1128 0.929 . S
C1136 C1137 1.377 . S
C1136 C1138 1.384 . S
C1137 C1136 1.377 . S
C1137 C1143 1.390 . S
C1138 H1129 0.930 . S
C1138 C1136 1.384 . S
C1138 C1139 1.372 . S
C1139 C1138 1.372 . S
C1139 C1140 1.400 . S
C1139 C1144 1.490 . S
C1140 H1130 0.930 . S
C1140 C1139 1.400 . S
C1140 C1143 1.386 . S
H1141 C1157 0.930 . S
H1142 C1158 0.931 . S
C1143 H1131 0.929 . S
C1143 C1137 1.390 . S
C1143 C1140 1.386 . S
C1144 C1139 1.490 . S
C1144 C1146 1.395 . S
C1144 C1147 1.403 . S
H1145 C1151 0.930 . S
C1146 H1132 0.930 . S
C1146 C1144 1.395 . S
C1146 C1149 1.403 . S
C1147 C1144 1.403 . S
C1147 C1148 1.524 . S
C1147 C1151 1.400 . S
C1148 H1133 0.960 . S
C1148 H1134 0.960 . S
C1148 H1135 0.960 . S
C1148 C1147 1.524 . S
C1149 C1146 1.403 . S
C1149 C1150 1.392 . S
C1149 C1153 1.495 . S
C1150 C1149 1.392 . S
C1150 C1151 1.385 . S
C1150 C1152 1.478 . S
C1151 H1145 0.930 . S
C1151 C1147 1.400 . S
C1151 C1150 1.385 . S
C1152 C1150 1.478 . S
C1152 C1154 1.381 . S
C1152 C1158 1.383 . S
C1153 C1149 1.495 . S
C1153 H1159 0.959 . S
C1153 H1160 0.961 . S
C1153 H1161 0.960 . S
C1154 C1152 1.381 . S
C1154 C1155 1.394 . S
C1154 H1162 0.930 . S
C1155 C1154 1.394 . S
C1155 C1156 1.383 . S
C1155 H1163 0.929 . S
C1156 C1155 1.383 . S
C1156 C1157 1.377 . S
C1157 H1141 0.930 . S
C1157 C1156 1.377 . S
C1157 C1158 1.379 . S
C1158 H1142 0.931 . S
C1158 C1152 1.383 . S
C1158 C1157 1.379 . S
H1159 C1153 0.959 . S
H1160 C1153 0.961 . S
H1161 C1153 0.960 . S
H1162 C1154 0.930 . S
H1163 C1155 0.929 . S
H1164 C1172 0.929 . S
H1165 C1174 0.930 . S
H1166 C1176 0.930 . S
H1167 C1179 0.929 . S
H1168 C1182 0.930 . S
H1169 C1184 0.960 . S
H1170 C1184 0.960 . S
H1171 C1184 0.960 . S
C1172 H1164 0.929 . S
C1172 C1173 1.377 . S
C1172 C1174 1.384 . S
C1173 C1172 1.377 . S
C1173 C1179 1.390 . S
C1174 H1165 0.930 . S
C1174 C1172 1.384 . S
C1174 C1175 1.372 . S
C1175 C1174 1.372 . S
C1175 C1176 1.400 . S
C1175 C1180 1.490 . S
C1176 H1166 0.930 . S
C1176 C1175 1.400 . S
C1176 C1179 1.386 . S
H1177 C1193 0.930 . S
H1178 C1194 0.931 . S
C1179 H1167 0.929 . S
C1179 C1173 1.390 . S
C1179 C1176 1.386 . S
C1180 C1175 1.490 . S
C1180 C1182 1.395 . S
C1180 C1183 1.403 . S
H1181 C1187 0.930 . S
C1182 H1168 0.930 . S
C1182 C1180 1.395 . S
C1182 C1185 1.403 . S
C1183 C1180 1.403 . S
C1183 C1184 1.524 . S
C1183 C1187 1.400 . S
C1184 H1169 0.960 . S
C1184 H1170 0.960 . S
C1184 H1171 0.960 . S
C1184 C1183 1.524 . S
C1185 C1182 1.403 . S
C1185 C1186 1.392 . S
C1185 C1189 1.495 . S
C1186 C1185 1.392 . S
C1186 C1187 1.385 . S
C1186 C1188 1.478 . S
C1187 H1181 0.930 . S
C1187 C1183 1.400 . S
C1187 C1186 1.385 . S
C1188 C1186 1.478 . S
C1188 C1190 1.381 . S
C1188 C1194 1.383 . S
C1189 C1185 1.495 . S
C1189 H1195 0.959 . S
C1189 H1196 0.961 . S
C1189 H1197 0.960 . S
C1190 C1188 1.381 . S
C1190 C1191 1.394 . S
C1190 H1198 0.930 . S
C1191 C1190 1.394 . S
C1191 C1192 1.383 . S
C1191 H1199 0.929 . S
C1192 C1191 1.383 . S
C1192 C1193 1.377 . S
C1193 H1177 0.930 . S
C1193 C1192 1.377 . S
C1193 C1194 1.379 . S
C1194 H1178 0.931 . S
C1194 C1188 1.383 . S
C1194 C1193 1.379 . S
H1195 C1189 0.959 . S
H1196 C1189 0.961 . S
H1197 C1189 0.960 . S
H1198 C1190 0.930 . S
H1199 C1191 0.929 . S
H1200 C1208 0.929 . S
H1201 C1210 0.930 . S
H1202 C1212 0.930 . S
H1203 C1215 0.929 . S
H1204 C1218 0.930 . S
H1205 C1220 0.960 . S
H1206 C1220 0.960 . S
H1207 C1220 0.960 . S
C1208 H1200 0.929 . S
C1208 C1209 1.377 . S
C1208 C1210 1.384 . S
C1209 C1208 1.377 . S
C1209 C1215 1.390 . S
C1210 H1201 0.930 . S
C1210 C1208 1.384 . S
C1210 C1211 1.372 . S
C1211 C1210 1.372 . S
C1211 C1212 1.400 . S
C1211 C1216 1.490 . S
C1212 H1202 0.930 . S
C1212 C1211 1.400 . S
C1212 C1215 1.386 . S
H1213 C1229 0.930 . S
H1214 C1230 0.931 . S
C1215 H1203 0.929 . S
C1215 C1209 1.390 . S
C1215 C1212 1.386 . S
C1216 C1211 1.490 . S
C1216 C1218 1.395 . S
C1216 C1219 1.403 . S
H1217 C1223 0.930 . S
C1218 H1204 0.930 . S
C1218 C1216 1.395 . S
C1218 C1221 1.403 . S
C1219 C1216 1.403 . S
C1219 C1220 1.524 . S
C1219 C1223 1.400 . S
C1220 H1205 0.960 . S
C1220 H1206 0.960 . S
C1220 H1207 0.960 . S
C1220 C1219 1.524 . S
C1221 C1218 1.403 . S
C1221 C1222 1.392 . S
C1221 C1225 1.495 . S
C1222 C1221 1.392 . S
C1222 C1223 1.385 . S
C1222 C1224 1.478 . S
C1223 H1217 0.930 . S
C1223 C1219 1.400 . S
C1223 C1222 1.385 . S
C1224 C1222 1.478 . S
C1224 C1226 1.381 . S
C1224 C1230 1.383 . S
C1225 C1221 1.495 . S
C1225 H1231 0.959 . S
C1225 H1232 0.961 . S
C1225 H1233 0.960 . S
C1226 C1224 1.381 . S
C1226 C1227 1.394 . S
C1226 H1234 0.930 . S
C1227 C1226 1.394 . S
C1227 C1228 1.383 . S
C1227 H1235 0.929 . S
C1228 C1227 1.383 . S
C1228 C1229 1.377 . S
C1229 H1213 0.930 . S
C1229 C1228 1.377 . S
C1229 C1230 1.379 . S
C1230 H1214 0.931 . S
C1230 C1224 1.383 . S
C1230 C1229 1.379 . S
H1231 C1225 0.959 . S
H1232 C1225 0.961 . S
H1233 C1225 0.960 . S
H1234 C1226 0.930 . S
H1235 C1227 0.929 . S
H1236 C1244 0.929 . S
H1237 C1246 0.930 . S
H1238 C1248 0.930 . S
H1239 C1251 0.929 . S
H1240 C1254 0.930 . S
H1241 C1256 0.960 . S
H1242 C1256 0.960 . S
H1243 C1256 0.960 . S
C1244 H1236 0.929 . S
C1244 C1245 1.377 . S
C1244 C1246 1.384 . S
C1245 C1244 1.377 . S
C1245 C1251 1.390 . S
C1246 H1237 0.930 . S
C1246 C1244 1.384 . S
C1246 C1247 1.372 . S
C1247 C1246 1.372 . S
C1247 C1248 1.400 . S
C1247 C1252 1.490 . S
C1248 H1238 0.930 . S
C1248 C1247 1.400 . S
C1248 C1251 1.386 . S
H1249 C1265 0.930 . S
H1250 C1266 0.931 . S
C1251 H1239 0.929 . S
C1251 C1245 1.390 . S
C1251 C1248 1.386 . S
C1252 C1247 1.490 . S
C1252 C1254 1.395 . S
C1252 C1255 1.403 . S
H1253 C1259 0.930 . S
C1254 H1240 0.930 . S
C1254 C1252 1.395 . S
C1254 C1257 1.403 . S
C1255 C1252 1.403 . S
C1255 C1256 1.524 . S
C1255 C1259 1.400 . S
C1256 H1241 0.960 . S
C1256 H1242 0.960 . S
C1256 H1243 0.960 . S
C1256 C1255 1.524 . S
C1257 C1254 1.403 . S
C1257 C1258 1.392 . S
C1257 C1261 1.495 . S
C1258 C1257 1.392 . S
C1258 C1259 1.385 . S
C1258 C1260 1.478 . S
C1259 H1253 0.930 . S
C1259 C1255 1.400 . S
C1259 C1258 1.385 . S
C1260 C1258 1.478 . S
C1260 C1262 1.381 . S
C1260 C1266 1.383 . S
C1261 C1257 1.495 . S
C1261 H1267 0.959 . S
C1261 H1268 0.961 . S
C1261 H1269 0.960 . S
C1262 C1260 1.381 . S
C1262 C1263 1.394 . S
C1262 H1270 0.930 . S
C1263 C1262 1.394 . S
C1263 C1264 1.383 . S
C1263 H1271 0.929 . S
C1264 C1263 1.383 . S
C1264 C1265 1.377 . S
C1265 H1249 0.930 . S
C1265 C1264 1.377 . S
C1265 C1266 1.379 . S
C1266 H1250 0.931 . S
C1266 C1260 1.383 . S
C1266 C1265 1.379 . S
H1267 C1261 0.959 . S
H1268 C1261 0.961 . S
H1269 C1261 0.960 . S
H1270 C1262 0.930 . S
H1271 C1263 0.929 . S
H1272 C1280 0.929 . S
H1273 C1282 0.930 . S
H1274 C1284 0.930 . S
H1275 C1287 0.929 . S
H1276 C1290 0.930 . S
H1277 C1292 0.960 . S
H1278 C1292 0.960 . S
H1279 C1292 0.960 . S
C1280 H1272 0.929 . S
C1280 C1281 1.377 . S
C1280 C1282 1.384 . S
C1281 C1280 1.377 . S
C1281 C1287 1.390 . S
C1282 H1273 0.930 . S
C1282 C1280 1.384 . S
C1282 C1283 1.372 . S
C1283 C1282 1.372 . S
C1283 C1284 1.400 . S
C1283 C1288 1.490 . S
C1284 H1274 0.930 . S
C1284 C1283 1.400 . S
C1284 C1287 1.386 . S
H1285 C1301 0.930 . S
H1286 C1302 0.931 . S
C1287 H1275 0.929 . S
C1287 C1281 1.390 . S
C1287 C1284 1.386 . S
C1288 C1283 1.490 . S
C1288 C1290 1.395 . S
C1288 C1291 1.403 . S
H1289 C1295 0.930 . S
C1290 H1276 0.930 . S
C1290 C1288 1.395 . S
C1290 C1293 1.403 . S
C1291 C1288 1.403 . S
C1291 C1292 1.524 . S
C1291 C1295 1.400 . S
C1292 H1277 0.960 . S
C1292 H1278 0.960 . S
C1292 H1279 0.960 . S
C1292 C1291 1.524 . S
C1293 C1290 1.403 . S
C1293 C1294 1.392 . S
C1293 C1297 1.495 . S
C1294 C1293 1.392 . S
C1294 C1295 1.385 . S
C1294 C1296 1.478 . S
C1295 H1289 0.930 . S
C1295 C1291 1.400 . S
C1295 C1294 1.385 . S
C1296 C1294 1.478 . S
C1296 C1298 1.381 . S
C1296 C1302 1.383 . S
C1297 C1293 1.495 . S
C1297 H1303 0.959 . S
C1297 H1304 0.961 . S
C1297 H1305 0.960 . S
C1298 C1296 1.381 . S
C1298 C1299 1.394 . S
C1298 H1306 0.930 . S
C1299 C1298 1.394 . S
C1299 C1300 1.383 . S
C1299 H1307 0.929 . S
C1300 C1299 1.383 . S
C1300 C1301 1.377 . S
C1301 H1285 0.930 . S
C1301 C1300 1.377 . S
C1301 C1302 1.379 . S
C1302 H1286 0.931 . S
C1302 C1296 1.383 . S
C1302 C1301 1.379 . S
H1303 C1297 0.959 . S
H1304 C1297 0.961 . S
H1305 C1297 0.960 . S
H1306 C1298 0.930 . S
H1307 C1299 0.929 . S
H1308 C1316 0.929 . S
H1309 C1318 0.930 . S
H1310 C1320 0.930 . S
H1311 C1323 0.929 . S
H1312 C1326 0.930 . S
H1313 C1328 0.960 . S
H1314 C1328 0.960 . S
H1315 C1328 0.960 . S
C1316 H1308 0.929 . S
C1316 C1317 1.377 . S
C1316 C1318 1.384 . S
C1317 C1316 1.377 . S
C1317 C1323 1.390 . S
C1318 H1309 0.930 . S
C1318 C1316 1.384 . S
C1318 C1319 1.372 . S
C1319 C1318 1.372 . S
C1319 C1320 1.400 . S
C1319 C1324 1.490 . S
C1320 H1310 0.930 . S
C1320 C1319 1.400 . S
C1320 C1323 1.386 . S
H1321 C1337 0.930 . S
H1322 C1338 0.931 . S
C1323 H1311 0.929 . S
C1323 C1317 1.390 . S
C1323 C1320 1.386 . S
C1324 C1319 1.490 . S
C1324 C1326 1.395 . S
C1324 C1327 1.403 . S
H1325 C1331 0.930 . S
C1326 H1312 0.930 . S
C1326 C1324 1.395 . S
C1326 C1329 1.403 . S
C1327 C1324 1.403 . S
C1327 C1328 1.524 . S
C1327 C1331 1.400 . S
C1328 H1313 0.960 . S
C1328 H1314 0.960 . S
C1328 H1315 0.960 . S
C1328 C1327 1.524 . S
C1329 C1326 1.403 . S
C1329 C1330 1.392 . S
C1329 C1333 1.495 . S
C1330 C1329 1.392 . S
C1330 C1331 1.385 . S
C1330 C1332 1.478 . S
C1331 H1325 0.930 . S
C1331 C1327 1.400 . S
C1331 C1330 1.385 . S
C1332 C1330 1.478 . S
C1332 C1334 1.381 . S
C1332 C1338 1.383 . S
C1333 C1329 1.495 . S
C1333 H1339 0.959 . S
C1333 H1340 0.961 . S
C1333 H1341 0.960 . S
C1334 C1332 1.381 . S
C1334 C1335 1.394 . S
C1334 H1342 0.930 . S
C1335 C1334 1.394 . S
C1335 C1336 1.383 . S
C1335 H1343 0.929 . S
C1336 C1335 1.383 . S
C1336 C1337 1.377 . S
C1337 H1321 0.930 . S
C1337 C1336 1.377 . S
C1337 C1338 1.379 . S
C1338 H1322 0.931 . S
C1338 C1332 1.383 . S
C1338 C1337 1.379 . S
H1339 C1333 0.959 . S
H1340 C1333 0.961 . S
H1341 C1333 0.960 . S
H1342 C1334 0.930 . S
H1343 C1335 0.929 . S
H1344 C1352 0.929 . S
H1345 C1354 0.930 . S
H1346 C1356 0.930 . S
H1347 C1359 0.929 . S
H1348 C1362 0.930 . S
H1349 C1364 0.960 . S
H1350 C1364 0.960 . S
H1351 C1364 0.960 . S
C1352 H1344 0.929 . S
C1352 C1353 1.377 . S
C1352 C1354 1.384 . S
C1353 C1352 1.377 . S
C1353 C1359 1.390 . S
C1354 H1345 0.930 . S
C1354 C1352 1.384 . S
C1354 C1355 1.372 . S
C1355 C1354 1.372 . S
C1355 C1356 1.400 . S
C1355 C1360 1.490 . S
C1356 H1346 0.930 . S
C1356 C1355 1.400 . S
C1356 C1359 1.386 . S
H1357 C1373 0.930 . S
H1358 C1374 0.931 . S
C1359 H1347 0.929 . S
C1359 C1353 1.390 . S
C1359 C1356 1.386 . S
C1360 C1355 1.490 . S
C1360 C1362 1.395 . S
C1360 C1363 1.403 . S
H1361 C1367 0.930 . S
C1362 H1348 0.930 . S
C1362 C1360 1.395 . S
C1362 C1365 1.403 . S
C1363 C1360 1.403 . S
C1363 C1364 1.524 . S
C1363 C1367 1.400 . S
C1364 H1349 0.960 . S
C1364 H1350 0.960 . S
C1364 H1351 0.960 . S
C1364 C1363 1.524 . S
C1365 C1362 1.403 . S
C1365 C1366 1.392 . S
C1365 C1369 1.495 . S
C1366 C1365 1.392 . S
C1366 C1367 1.385 . S
C1366 C1368 1.478 . S
C1367 H1361 0.930 . S
C1367 C1363 1.400 . S
C1367 C1366 1.385 . S
C1368 C1366 1.478 . S
C1368 C1370 1.381 . S
C1368 C1374 1.383 . S
C1369 C1365 1.495 . S
C1369 H1375 0.959 . S
C1369 H1376 0.961 . S
C1369 H1377 0.960 . S
C1370 C1368 1.381 . S
C1370 C1371 1.394 . S
C1370 H1378 0.930 . S
C1371 C1370 1.394 . S
C1371 C1372 1.383 . S
C1371 H1379 0.929 . S
C1372 C1371 1.383 . S
C1372 C1373 1.377 . S
C1373 H1357 0.930 . S
C1373 C1372 1.377 . S
C1373 C1374 1.379 . S
C1374 H1358 0.931 . S
C1374 C1368 1.383 . S
C1374 C1373 1.379 . S
H1375 C1369 0.959 . S
H1376 C1369 0.961 . S
H1377 C1369 0.960 . S
H1378 C1370 0.930 . S
H1379 C1371 0.929 . S
H1380 C1388 0.929 . S
H1381 C1390 0.930 . S
H1382 C1392 0.930 . S
H1383 C1395 0.929 . S
H1384 C1398 0.930 . S
H1385 C1400 0.960 . S
H1386 C1400 0.960 . S
H1387 C1400 0.960 . S
C1388 H1380 0.929 . S
C1388 C1389 1.377 . S
C1388 C1390 1.384 . S
C1389 C1388 1.377 . S
C1389 C1395 1.390 . S
C1390 H1381 0.930 . S
C1390 C1388 1.384 . S
C1390 C1391 1.372 . S
C1391 C1390 1.372 . S
C1391 C1392 1.400 . S
C1391 C1396 1.490 . S
C1392 H1382 0.930 . S
C1392 C1391 1.400 . S
C1392 C1395 1.386 . S
H1393 C1409 0.930 . S
H1394 C1410 0.931 . S
C1395 H1383 0.929 . S
C1395 C1389 1.390 . S
C1395 C1392 1.386 . S
C1396 C1391 1.490 . S
C1396 C1398 1.395 . S
C1396 C1399 1.403 . S
H1397 C1403 0.930 . S
C1398 H1384 0.930 . S
C1398 C1396 1.395 . S
C1398 C1401 1.403 . S
C1399 C1396 1.403 . S
C1399 C1400 1.524 . S
C1399 C1403 1.400 . S
C1400 H1385 0.960 . S
C1400 H1386 0.960 . S
C1400 H1387 0.960 . S
C1400 C1399 1.524 . S
C1401 C1398 1.403 . S
C1401 C1402 1.392 . S
C1401 C1405 1.495 . S
C1402 C1401 1.392 . S
C1402 C1403 1.385 . S
C1402 C1404 1.478 . S
C1403 H1397 0.930 . S
C1403 C1399 1.400 . S
C1403 C1402 1.385 . S
C1404 C1402 1.478 . S
C1404 C1406 1.381 . S
C1404 C1410 1.383 . S
C1405 C1401 1.495 . S
C1405 H1411 0.959 . S
C1405 H1412 0.961 . S
C1405 H1413 0.960 . S
C1406 C1404 1.381 . S
C1406 C1407 1.394 . S
C1406 H1414 0.930 . S
C1407 C1406 1.394 . S
C1407 C1408 1.383 . S
C1407 H1415 0.929 . S
C1408 C1407 1.383 . S
C1408 C1409 1.377 . S
C1409 H1393 0.930 . S
C1409 C1408 1.377 . S
C1409 C1410 1.379 . S
C1410 H1394 0.931 . S
C1410 C1404 1.383 . S
C1410 C1409 1.379 . S
H1411 C1405 0.959 . S
H1412 C1405 0.961 . S
H1413 C1405 0.960 . S
H1414 C1406 0.930 . S
H1415 C1407 0.929 . S
H1416 C1424 0.929 . S
H1417 C1426 0.930 . S
H1418 C1428 0.930 . S
H1419 C1431 0.929 . S
H1420 C1434 0.930 . S
H1421 C1436 0.960 . S
H1422 C1436 0.960 . S
H1423 C1436 0.960 . S
C1424 H1416 0.929 . S
C1424 C1425 1.377 . S
C1424 C1426 1.384 . S
C1425 C1424 1.377 . S
C1425 C1431 1.390 . S
C1426 H1417 0.930 . S
C1426 C1424 1.384 . S
C1426 C1427 1.372 . S
C1427 C1426 1.372 . S
C1427 C1428 1.400 . S
C1427 C1432 1.490 . S
C1428 H1418 0.930 . S
C1428 C1427 1.400 . S
C1428 C1431 1.386 . S
H1429 C1445 0.930 . S
H1430 C1446 0.931 . S
C1431 H1419 0.929 . S
C1431 C1425 1.390 . S
C1431 C1428 1.386 . S
C1432 C1427 1.490 . S
C1432 C1434 1.395 . S
C1432 C1435 1.403 . S
H1433 C1439 0.930 . S
C1434 H1420 0.930 . S
C1434 C1432 1.395 . S
C1434 C1437 1.403 . S
C1435 C1432 1.403 . S
C1435 C1436 1.524 . S
C1435 C1439 1.400 . S
C1436 H1421 0.960 . S
C1436 H1422 0.960 . S
C1436 H1423 0.960 . S
C1436 C1435 1.524 . S
C1437 C1434 1.403 . S
C1437 C1438 1.392 . S
C1437 C1441 1.495 . S
C1438 C1437 1.392 . S
C1438 C1439 1.385 . S
C1438 C1440 1.478 . S
C1439 H1433 0.930 . S
C1439 C1435 1.400 . S
C1439 C1438 1.385 . S
C1440 C1438 1.478 . S
C1440 C1442 1.381 . S
C1440 C1446 1.383 . S
C1441 C1437 1.495 . S
C1441 H1447 0.959 . S
C1441 H1448 0.961 . S
C1441 H1449 0.960 . S
C1442 C1440 1.381 . S
C1442 C1443 1.394 . S
C1442 H1450 0.930 . S
C1443 C1442 1.394 . S
C1443 C1444 1.383 . S
C1443 H1451 0.929 . S
C1444 C1443 1.383 . S
C1444 C1445 1.377 . S
C1445 H1429 0.930 . S
C1445 C1444 1.377 . S
C1445 C1446 1.379 . S
C1446 H1430 0.931 . S
C1446 C1440 1.383 . S
C1446 C1445 1.379 . S
H1447 C1441 0.959 . S
H1448 C1441 0.961 . S
H1449 C1441 0.960 . S
H1450 C1442 0.930 . S
H1451 C1443 0.929 . S
H1452 C1460 0.929 . S
H1453 C1462 0.930 . S
H1454 C1464 0.930 . S
H1455 C1467 0.929 . S
H1456 C1470 0.930 . S
H1457 C1472 0.960 . S
H1458 C1472 0.960 . S
H1459 C1472 0.960 . S
C1460 H1452 0.929 . S
C1460 C1461 1.377 . S
C1460 C1462 1.384 . S
C1461 C1460 1.377 . S
C1461 C1467 1.390 . S
C1462 H1453 0.930 . S
C1462 C1460 1.384 . S
C1462 C1463 1.372 . S
C1463 C1462 1.372 . S
C1463 C1464 1.400 . S
C1463 C1468 1.490 . S
C1464 H1454 0.930 . S
C1464 C1463 1.400 . S
C1464 C1467 1.386 . S
H1465 C1481 0.930 . S
H1466 C1482 0.931 . S
C1467 H1455 0.929 . S
C1467 C1461 1.390 . S
C1467 C1464 1.386 . S
C1468 C1463 1.490 . S
C1468 C1470 1.395 . S
C1468 C1471 1.403 . S
H1469 C1475 0.930 . S
C1470 H1456 0.930 . S
C1470 C1468 1.395 . S
C1470 C1473 1.403 . S
C1471 C1468 1.403 . S
C1471 C1472 1.524 . S
C1471 C1475 1.400 . S
C1472 H1457 0.960 . S
C1472 H1458 0.960 . S
C1472 H1459 0.960 . S
C1472 C1471 1.524 . S
C1473 C1470 1.403 . S
C1473 C1474 1.392 . S
C1473 C1477 1.495 . S
C1474 C1473 1.392 . S
C1474 C1475 1.385 . S
C1474 C1476 1.478 . S
C1475 H1469 0.930 . S
C1475 C1471 1.400 . S
C1475 C1474 1.385 . S
C1476 C1474 1.478 . S
C1476 C1478 1.381 . S
C1476 C1482 1.383 . S
C1477 C1473 1.495 . S
C1477 H1483 0.959 . S
C1477 H1484 0.961 . S
C1477 H1485 0.960 . S
C1478 C1476 1.381 . S
C1478 C1479 1.394 . S
C1478 H1486 0.930 . S
C1479 C1478 1.394 . S
C1479 C1480 1.383 . S
C1479 H1487 0.929 . S
C1480 C1479 1.383 . S
C1480 C1481 1.377 . S
C1481 H1465 0.930 . S
C1481 C1480 1.377 . S
C1481 C1482 1.379 . S
C1482 H1466 0.931 . S
C1482 C1476 1.383 . S
C1482 C1481 1.379 . S
H1483 C1477 0.959 . S
H1484 C1477 0.961 . S
H1485 C1477 0.960 . S
H1486 C1478 0.930 . S
H1487 C1479 0.929 . S
H1488 C1496 0.929 . S
H1489 C1498 0.930 . S
H1490 C1500 0.930 . S
H1491 C1503 0.929 . S
H1492 C1506 0.930 . S
H1493 C1508 0.960 . S
H1494 C1508 0.960 . S
H1495 C1508 0.960 . S
C1496 H1488 0.929 . S
C1496 C1497 1.377 . S
C1496 C1498 1.384 . S
C1497 C1496 1.377 . S
C1497 C1503 1.390 . S
C1498 H1489 0.930 . S
C1498 C1496 1.384 . S
C1498 C1499 1.372 . S
C1499 C1498 1.372 . S
C1499 C1500 1.400 . S
C1499 C1504 1.490 . S
C1500 H1490 0.930 . S
C1500 C1499 1.400 . S
C1500 C1503 1.386 . S
H1501 C1517 0.930 . S
H1502 C1518 0.931 . S
C1503 H1491 0.929 . S
C1503 C1497 1.390 . S
C1503 C1500 1.386 . S
C1504 C1499 1.490 . S
C1504 C1506 1.395 . S
C1504 C1507 1.403 . S
H1505 C1511 0.930 . S
C1506 H1492 0.930 . S
C1506 C1504 1.395 . S
C1506 C1509 1.403 . S
C1507 C1504 1.403 . S
C1507 C1508 1.524 . S
C1507 C1511 1.400 . S
C1508 H1493 0.960 . S
C1508 H1494 0.960 . S
C1508 H1495 0.960 . S
C1508 C1507 1.524 . S
C1509 C1506 1.403 . S
C1509 C1510 1.392 . S
C1509 C1513 1.495 . S
C1510 C1509 1.392 . S
C1510 C1511 1.385 . S
C1510 C1512 1.478 . S
C1511 H1505 0.930 . S
C1511 C1507 1.400 . S
C1511 C1510 1.385 . S
C1512 C1510 1.478 . S
C1512 C1514 1.381 . S
C1512 C1518 1.383 . S
C1513 C1509 1.495 . S
C1513 H1519 0.959 . S
C1513 H1520 0.961 . S
C1513 H1521 0.960 . S
C1514 C1512 1.381 . S
C1514 C1515 1.394 . S
C1514 H1522 0.930 . S
C1515 C1514 1.394 . S
C1515 C1516 1.383 . S
C1515 H1523 0.929 . S
C1516 C1515 1.383 . S
C1516 C1517 1.377 . S
C1517 H1501 0.930 . S
C1517 C1516 1.377 . S
C1517 C1518 1.379 . S
C1518 H1502 0.931 . S
C1518 C1512 1.383 . S
C1518 C1517 1.379 . S
H1519 C1513 0.959 . S
H1520 C1513 0.961 . S
H1521 C1513 0.960 . S
H1522 C1514 0.930 . S
H1523 C1515 0.929 . S
H1524 C1532 0.929 . S
H1525 C1534 0.930 . S
H1526 C1536 0.930 . S
H1527 C1539 0.929 . S
H1528 C1542 0.930 . S
H1529 C1544 0.960 . S
H1530 C1544 0.960 . S
H1531 C1544 0.960 . S
C1532 H1524 0.929 . S
C1532 C1533 1.377 . S
C1532 C1534 1.384 . S
C1533 C1532 1.377 . S
C1533 C1539 1.390 . S
C1534 H1525 0.930 . S
C1534 C1532 1.384 . S
C1534 C1535 1.372 . S
C1535 C1534 1.372 . S
C1535 C1536 1.400 . S
C1535 C1540 1.490 . S
C1536 H1526 0.930 . S
C1536 C1535 1.400 . S
C1536 C1539 1.386 . S
H1537 C1553 0.930 . S
H1538 C1554 0.931 . S
C1539 H1527 0.929 . S
C1539 C1533 1.390 . S
C1539 C1536 1.386 . S
C1540 C1535 1.490 . S
C1540 C1542 1.395 . S
C1540 C1543 1.403 . S
H1541 C1547 0.930 . S
C1542 H1528 0.930 . S
C1542 C1540 1.395 . S
C1542 C1545 1.403 . S
C1543 C1540 1.403 . S
C1543 C1544 1.524 . S
C1543 C1547 1.400 . S
C1544 H1529 0.960 . S
C1544 H1530 0.960 . S
C1544 H1531 0.960 . S
C1544 C1543 1.524 . S
C1545 C1542 1.403 . S
C1545 C1546 1.392 . S
C1545 C1549 1.495 . S
C1546 C1545 1.392 . S
C1546 C1547 1.385 . S
C1546 C1548 1.478 . S
C1547 H1541 0.930 . S
C1547 C1543 1.400 . S
C1547 C1546 1.385 . S
C1548 C1546 1.478 . S
C1548 C1550 1.381 . S
C1548 C1554 1.383 . S
C1549 C1545 1.495 . S
C1549 H1555 0.959 . S
C1549 H1556 0.961 . S
C1549 H1557 0.960 . S
C1550 C1548 1.381 . S
C1550 C1551 1.394 . S
C1550 H1558 0.930 . S
C1551 C1550 1.394 . S
C1551 C1552 1.383 . S
C1551 H1559 0.929 . S
C1552 C1551 1.383 . S
C1552 C1553 1.377 . S
C1553 H1537 0.930 . S
C1553 C1552 1.377 . S
C1553 C1554 1.379 . S
C1554 H1538 0.931 . S
C1554 C1548 1.383 . S
C1554 C1553 1.379 . S
H1555 C1549 0.959 . S
H1556 C1549 0.961 . S
H1557 C1549 0.960 . S
H1558 C1550 0.930 . S
H1559 C1551 0.929 . S
H1560 C1568 0.929 . S
H1561 C1570 0.930 . S
H1562 C1572 0.930 . S
H1563 C1575 0.929 . S
H1564 C1578 0.930 . S
H1565 C1580 0.960 . S
H1566 C1580 0.960 . S
H1567 C1580 0.960 . S
C1568 H1560 0.929 . S
C1568 C1569 1.377 . S
C1568 C1570 1.384 . S
C1569 C1568 1.377 . S
C1569 C1575 1.390 . S
C1570 H1561 0.930 . S
C1570 C1568 1.384 . S
C1570 C1571 1.372 . S
C1571 C1570 1.372 . S
C1571 C1572 1.400 . S
C1571 C1576 1.490 . S
C1572 H1562 0.930 . S
C1572 C1571 1.400 . S
C1572 C1575 1.386 . S
H1573 C1589 0.930 . S
H1574 C1590 0.931 . S
C1575 H1563 0.929 . S
C1575 C1569 1.390 . S
C1575 C1572 1.386 . S
C1576 C1571 1.490 . S
C1576 C1578 1.395 . S
C1576 C1579 1.403 1_556 S
H1577 C1583 0.930 . S
C1578 H1564 0.930 . S
C1578 C1576 1.395 . S
C1578 C1581 1.403 . S
C1579 C1576 1.403 1_554 S
C1579 C1580 1.524 . S
C1579 C1583 1.400 . S
C1580 H1565 0.960 . S
C1580 H1566 0.960 . S
C1580 H1567 0.960 . S
C1580 C1579 1.524 . S
C1581 C1578 1.403 . S
C1581 C1582 1.392 1_556 S
C1581 C1585 1.495 . S
C1582 C1581 1.392 1_554 S
C1582 C1583 1.385 . S
C1582 C1584 1.478 . S
C1583 H1577 0.930 . S
C1583 C1579 1.400 . S
C1583 C1582 1.385 . S
C1584 C1582 1.478 . S
C1584 C1586 1.381 . S
C1584 C1590 1.383 . S
C1585 C1581 1.495 . S
C1585 H1591 0.959 . S
C1585 H1592 0.961 . S
C1585 H1593 0.960 . S
C1586 C1584 1.381 . S
C1586 C1587 1.394 . S
C1586 H1594 0.930 . S
C1587 C1586 1.394 . S
C1587 C1588 1.383 . S
C1587 H1595 0.929 . S
C1588 C1587 1.383 . S
C1588 C1589 1.377 . S
C1589 H1573 0.930 . S
C1589 C1588 1.377 . S
C1589 C1590 1.379 . S
C1590 H1574 0.931 . S
C1590 C1584 1.383 . S
C1590 C1589 1.379 . S
H1591 C1585 0.959 . S
H1592 C1585 0.961 . S
H1593 C1585 0.960 . S
H1594 C1586 0.930 . S
H1595 C1587 0.929 . S
H1596 C1604 0.929 . S
H1597 C1606 0.930 . S
H1598 C1608 0.930 . S
H1599 C1611 0.929 . S
H1600 C1614 0.930 . S
H1601 C1616 0.960 . S
H1602 C1616 0.960 . S
H1603 C1616 0.960 . S
C1604 H1596 0.929 . S
C1604 C1605 1.377 . S
C1604 C1606 1.384 . S
C1605 C1604 1.377 . S
C1605 C1611 1.390 . S
C1606 H1597 0.930 . S
C1606 C1604 1.384 . S
C1606 C1607 1.372 . S
C1607 C1606 1.372 . S
C1607 C1608 1.400 . S
C1607 C1612 1.490 . S
C1608 H1598 0.930 . S
C1608 C1607 1.400 . S
C1608 C1611 1.386 . S
H1609 C1625 0.930 . S
H1610 C1626 0.931 . S
C1611 H1599 0.929 . S
C1611 C1605 1.390 . S
C1611 C1608 1.386 . S
C1612 C1607 1.490 . S
C1612 C1614 1.395 . S
C1612 C1615 1.403 . S
H1613 C1619 0.930 . S
C1614 H1600 0.930 . S
C1614 C1612 1.395 . S
C1614 C1617 1.403 1_455 S
C1615 C1612 1.403 . S
C1615 C1616 1.524 . S
C1615 C1619 1.400 1_455 S
C1616 H1601 0.960 . S
C1616 H1602 0.960 . S
C1616 H1603 0.960 . S
C1616 C1615 1.524 . S
C1617 C1614 1.403 1_655 S
C1617 C1618 1.392 . S
C1617 C1621 1.495 . S
C1618 C1617 1.392 . S
C1618 C1619 1.385 . S
C1618 C1620 1.478 . S
C1619 H1613 0.930 . S
C1619 C1615 1.400 1_655 S
C1619 C1618 1.385 . S
C1620 C1618 1.478 . S
C1620 C1622 1.381 . S
C1620 C1626 1.383 . S
C1621 C1617 1.495 . S
C1621 H1627 0.959 . S
C1621 H1628 0.961 . S
C1621 H1629 0.960 . S
C1622 C1620 1.381 . S
C1622 C1623 1.394 . S
C1622 H1630 0.930 . S
C1623 C1622 1.394 . S
C1623 C1624 1.383 . S
C1623 H1631 0.929 . S
C1624 C1623 1.383 . S
C1624 C1625 1.377 . S
C1625 H1609 0.930 . S
C1625 C1624 1.377 . S
C1625 C1626 1.379 . S
C1626 H1610 0.931 . S
C1626 C1620 1.383 . S
C1626 C1625 1.379 . S
H1627 C1621 0.959 . S
H1628 C1621 0.961 . S
H1629 C1621 0.960 . S
H1630 C1622 0.930 . S
H1631 C1623 0.929 . S
H1632 C1640 0.929 . S
H1633 C1642 0.930 . S
H1634 C1644 0.930 . S
H1635 C1647 0.929 . S
H1636 C1650 0.930 . S
H1637 C1652 0.960 . S
H1638 C1652 0.960 . S
H1639 C1652 0.960 . S
C1640 H1632 0.929 . S
C1640 C1641 1.377 . S
C1640 C1642 1.384 . S
C1641 C1640 1.377 . S
C1641 C1647 1.390 . S
C1642 H1633 0.930 . S
C1642 C1640 1.384 . S
C1642 C1643 1.372 . S
C1643 C1642 1.372 . S
C1643 C1644 1.400 . S
C1643 C1648 1.490 . S
C1644 H1634 0.930 . S
C1644 C1643 1.400 . S
C1644 C1647 1.386 . S
H1645 C1661 0.930 . S
H1646 C1662 0.931 . S
C1647 H1635 0.929 . S
C1647 C1641 1.390 . S
C1647 C1644 1.386 . S
C1648 C1643 1.490 . S
C1648 C1650 1.395 1_554 S
C1648 C1651 1.403 1_565 S
H1649 C1655 0.930 . S
C1650 H1636 0.930 . S
C1650 C1648 1.395 1_556 S
C1650 C1653 1.403 . S
C1651 C1648 1.403 1_545 S
C1651 C1652 1.524 . S
C1651 C1655 1.400 . S
C1652 H1637 0.960 . S
C1652 H1638 0.960 . S
C1652 H1639 0.960 . S
C1652 C1651 1.524 . S
C1653 C1650 1.403 . S
C1653 C1654 1.392 1_565 S
C1653 C1657 1.495 . S
C1654 C1653 1.392 1_545 S
C1654 C1655 1.385 1_556 S
C1654 C1656 1.478 . S
C1655 H1649 0.930 . S
C1655 C1651 1.400 . S
C1655 C1654 1.385 1_554 S
C1656 C1654 1.478 . S
C1656 C1658 1.381 . S
C1656 C1662 1.383 . S
C1657 C1653 1.495 . S
C1657 H1663 0.959 . S
C1657 H1664 0.961 . S
C1657 H1665 0.960 . S
C1658 C1656 1.381 . S
C1658 C1659 1.394 . S
C1658 H1666 0.930 . S
C1659 C1658 1.394 . S
C1659 C1660 1.383 . S
C1659 H1667 0.929 . S
C1660 C1659 1.383 . S
C1660 C1661 1.377 . S
C1661 H1645 0.930 . S
C1661 C1660 1.377 . S
C1661 C1662 1.379 . S
C1662 H1646 0.931 . S
C1662 C1656 1.383 . S
C1662 C1661 1.379 . S
H1663 C1657 0.959 . S
H1664 C1657 0.961 . S
H1665 C1657 0.960 . S
H1666 C1658 0.930 . S
H1667 C1659 0.929 . S
H1668 C1676 0.929 . S
H1669 C1678 0.930 . S
H1670 C1680 0.930 . S
H1671 C1683 0.929 . S
H1672 C1686 0.930 . S
H1673 C1688 0.960 . S
H1674 C1688 0.960 . S
H1675 C1688 0.960 . S
C1676 H1668 0.929 . S
C1676 C1677 1.377 . S
C1676 C1678 1.384 . S
C1677 C1676 1.377 . S
C1677 C1683 1.390 . S
C1678 H1669 0.930 . S
C1678 C1676 1.384 . S
C1678 C1679 1.372 . S
C1679 C1678 1.372 . S
C1679 C1680 1.400 . S
C1679 C1684 1.490 . S
C1680 H1670 0.930 . S
C1680 C1679 1.400 . S
C1680 C1683 1.386 . S
H1681 C1697 0.930 . S
H1682 C1698 0.931 . S
C1683 H1671 0.929 . S
C1683 C1677 1.390 . S
C1683 C1680 1.386 . S
C1684 C1679 1.490 . S
C1684 C1686 1.395 . S
C1684 C1687 1.403 . S
H1685 C1691 0.930 . S
C1686 H1672 0.930 . S
C1686 C1684 1.395 . S
C1686 C1689 1.403 . S
C1687 C1684 1.403 . S
C1687 C1688 1.524 . S
C1687 C1691 1.400 . S
C1688 H1673 0.960 . S
C1688 H1674 0.960 . S
C1688 H1675 0.960 . S
C1688 C1687 1.524 . S
C1689 C1686 1.403 . S
C1689 C1690 1.392 . S
C1689 C1693 1.495 . S
C1690 C1689 1.392 . S
C1690 C1691 1.385 . S
C1690 C1692 1.478 . S
C1691 H1685 0.930 . S
C1691 C1687 1.400 . S
C1691 C1690 1.385 . S
C1692 C1690 1.478 . S
C1692 C1694 1.381 . S
C1692 C1698 1.383 . S
C1693 C1689 1.495 . S
C1693 H1699 0.959 . S
C1693 H1700 0.961 . S
C1693 H1701 0.960 . S
C1694 C1692 1.381 . S
C1694 C1695 1.394 . S
C1694 H1702 0.930 . S
C1695 C1694 1.394 . S
C1695 C1696 1.383 . S
C1695 H1703 0.929 . S
C1696 C1695 1.383 . S
C1696 C1697 1.377 . S
C1697 H1681 0.930 . S
C1697 C1696 1.377 . S
C1697 C1698 1.379 . S
C1698 H1682 0.931 . S
C1698 C1692 1.383 . S
C1698 C1697 1.379 . S
H1699 C1693 0.959 . S
H1700 C1693 0.961 . S
H1701 C1693 0.960 . S
H1702 C1694 0.930 . S
H1703 C1695 0.929 . S
H1704 C1712 0.929 . S
H1705 C1714 0.930 . S
H1706 C1716 0.930 . S
H1707 C1719 0.929 . S
H1708 C1722 0.930 . S
H1709 C1724 0.960 . S
H1710 C1724 0.960 . S
H1711 C1724 0.960 . S
C1712 H1704 0.929 . S
C1712 C1713 1.377 . S
C1712 C1714 1.384 . S
C1713 C1712 1.377 . S
C1713 C1719 1.390 . S
C1714 H1705 0.930 . S
C1714 C1712 1.384 . S
C1714 C1715 1.372 . S
C1715 C1714 1.372 . S
C1715 C1716 1.400 . S
C1715 C1720 1.490 . S
C1716 H1706 0.930 . S
C1716 C1715 1.400 . S
C1716 C1719 1.386 . S
H1717 C1733 0.930 . S
H1718 C1734 0.931 . S
C1719 H1707 0.929 . S
C1719 C1713 1.390 . S
C1719 C1716 1.386 . S
C1720 C1715 1.490 . S
C1720 C1722 1.395 1_655 S
C1720 C1723 1.403 1_556 S
H1721 C1727 0.940 . S
C1722 H1708 0.930 . S
C1722 C1720 1.395 1_455 S
C1722 C1725 1.403 . S
C1723 C1720 1.403 1_554 S
C1723 C1724 1.524 . S
C1723 C1727 1.427 . S
C1724 H1709 0.960 . S
C1724 H1710 0.960 . S
C1724 H1711 0.960 . S
C1724 C1723 1.524 . S
C1725 C1722 1.403 . S
C1725 C1726 1.392 1_556 S
C1725 C1729 1.495 . S
C1726 C1725 1.392 1_554 S
C1726 C1727 1.350 1_455 S
C1726 C1728 1.478 . S
C1727 H1721 0.940 . S
C1727 C1723 1.427 . S
C1727 C1726 1.350 1_655 S
C1728 C1726 1.478 . S
C1728 C1730 1.381 . S
C1728 C1734 1.383 . S
C1729 C1725 1.495 . S
C1729 H1735 0.959 . S
C1729 H1736 0.961 . S
C1729 H1737 0.960 . S
C1730 C1728 1.381 . S
C1730 C1731 1.394 . S
C1730 H1738 0.930 . S
C1731 C1730 1.394 . S
C1731 C1732 1.383 . S
C1731 H1739 0.929 . S
C1732 C1731 1.383 . S
C1732 C1733 1.377 . S
C1733 H1717 0.930 . S
C1733 C1732 1.377 . S
C1733 C1734 1.379 . S
C1734 H1718 0.931 . S
C1734 C1728 1.383 . S
C1734 C1733 1.379 . S
H1735 C1729 0.959 . S
H1736 C1729 0.961 . S
H1737 C1729 0.960 . S
H1738 C1730 0.930 . S
H1739 C1731 0.929 . S
H1740 C1748 0.929 . S
H1741 C1750 0.930 . S
H1742 C1752 0.930 . S
H1743 C1755 0.929 . S
H1744 C1758 0.930 . S
H1745 C1760 0.960 . S
H1746 C1760 0.960 . S
H1747 C1760 0.960 . S
C1748 H1740 0.929 . S
C1748 C1749 1.377 . S
C1748 C1750 1.384 . S
C1749 C1748 1.377 . S
C1749 C1755 1.390 . S
C1750 H1741 0.930 . S
C1750 C1748 1.384 . S
C1750 C1751 1.372 . S
C1751 C1750 1.372 . S
C1751 C1752 1.400 . S
C1751 C1756 1.490 . S
C1752 H1742 0.930 . S
C1752 C1751 1.400 . S
C1752 C1755 1.386 . S
H1753 C1769 0.930 . S
H1754 C1770 0.931 . S
C1755 H1743 0.929 . S
C1755 C1749 1.390 . S
C1755 C1752 1.386 . S
C1756 C1751 1.490 . S
C1756 C1758 1.395 1_565 S
C1756 C1759 1.403 . S
H1757 C1763 0.930 . S
C1758 H1744 0.930 . S
C1758 C1756 1.395 1_545 S
C1758 C1761 1.403 . S
C1759 C1756 1.403 . S
C1759 C1760 1.524 . S
C1759 C1763 1.400 . S
C1760 H1745 0.960 . S
C1760 H1746 0.960 . S
C1760 H1747 0.960 . S
C1760 C1759 1.524 . S
C1761 C1758 1.403 . S
C1761 C1762 1.392 . S
C1761 C1765 1.495 . S
C1762 C1761 1.392 . S
C1762 C1763 1.385 1_545 S
C1762 C1764 1.478 . S
C1763 H1757 0.930 . S
C1763 C1759 1.400 . S
C1763 C1762 1.385 1_565 S
C1764 C1762 1.478 . S
C1764 C1766 1.381 . S
C1764 C1770 1.383 . S
C1765 C1761 1.495 . S
C1765 H1771 0.959 . S
C1765 H1772 0.961 . S
C1765 H1773 0.960 . S
C1766 C1764 1.381 . S
C1766 C1767 1.394 . S
C1766 H1774 0.930 . S
C1767 C1766 1.394 . S
C1767 C1768 1.383 . S
C1767 H1775 0.929 . S
C1768 C1767 1.383 . S
C1768 C1769 1.377 . S
C1769 H1753 0.930 . S
C1769 C1768 1.377 . S
C1769 C1770 1.379 . S
C1770 H1754 0.931 . S
C1770 C1764 1.383 . S
C1770 C1769 1.379 . S
H1771 C1765 0.959 . S
H1772 C1765 0.961 . S
H1773 C1765 0.960 . S
H1774 C1766 0.930 . S
H1775 C1767 0.929 . S
C489 C180 1.114 . S
C508 C4 1.130 . S
C525 C220 1.116 . S
C544 C44 1.138 . S
C561 C84 1.129 . S
C580 C20 1.134 . S
C597 C124 1.120 . S
C616 C60 1.101 . S
C633 C164 1.128 . S
C652 C100 1.114 . S
C669 C140 1.114 . S
C688 C204 1.103 . S
C705 C340 1.118 . S
C724 C244 1.103 . S
C741 C284 1.124 . S
C760 C380 1.137 . S
C777 C420 1.117 . S
C796 C324 1.101 . S
C813 C364 1.129 . S
C832 C460 1.129 . S
C849 C404 1.128 . S
C868 C260 1.137 . S
C885 C300 1.114 . S
C904 C444 1.127 . S
C921 C191 1.528 . S
C940 C25 1.523 . S
C957 C65 1.532 . S
C976 C231 1.508 . S
C993 C105 1.535 . S
C1012 C31 1.526 . S
C1029 C145 1.531 . S
C1048 C71 1.527 . S
C1065 C111 1.527 . S
C1084 C185 1.542 . S
C1101 C151 1.524 . S
C1120 C225 1.536 . S
C1137 C351 1.526 . S
C1156 C265 1.517 . S
C1173 C305 1.530 . S
C1192 C391 1.510 . S
C1209 C345 1.530 . S
C1228 C431 1.516 . S
C1245 C471 1.523 . S
C1264 C385 1.529 . S
C1281 C425 1.530 . S
C1300 C271 1.527 . S
C1317 C311 1.530 . S
C1336 C465 1.533 . S
C1353 C402 1.690 . S
C1372 C2 1.707 . S
C1389 C42 1.689 . S
C1408 C442 1.713 . S
C1425 C82 1.691 . S
C1444 C242 1.679 . S
C1461 C122 1.689 . S
C1480 C282 1.685 . S
C1497 C162 1.698 . S
C1516 C322 1.666 . S
C1533 C362 1.686 . S
C1552 C202 1.710 . S
C1569 C383 2.145 . S
C1588 C23 2.148 . S
C1605 C423 2.147 . S
C1624 C63 2.137 . S
C1641 C103 2.146 . S
C1660 C463 2.138 . S
C1677 C143 2.146 . S
C1696 C263 2.141 . S
C1713 C303 2.146 . S
C1732 C183 2.145 . S
C1749 C343 2.146 . S
C1768 C223 2.146 . S
