# Generated by pormake.
# Topology smu, (6)-cn, num edge types: 1
# Building blocks:
#     Node 0, Type 0, BuildingBlock: BETDIP_clean_sbu_0, # of connection points: 6
#     Node 1, Type 0, BuildingBlock: BETDIP_clean_sbu_0, # of connection points: 6
#     Node 2, Type 0, BuildingBlock: BETDIP_clean_sbu_0, # of connection points: 6
#     Node 3, Type 0, BuildingBlock: BETDIP_clean_sbu_0, # of connection points: 6
#     Node 4, Type 0, BuildingBlock: BETDIP_clean_sbu_0, # of connection points: 6
#     Node 5, Type 0, BuildingBlock: BETDIP_clean_sbu_0, # of connection points: 6
#     Edge 6, Type (0, 0), BuildingBlock: OJICUG_clean_linker_0, # of connection points: 2
#     Edge 7, Type (0, 0), BuildingBlock: OJICUG_clean_linker_0, # of connection points: 2
#     Edge 8, Type (0, 0), BuildingBlock: OJICUG_clean_linker_0, # of connection points: 2
#     Edge 9, Type (0, 0), BuildingBlock: OJICUG_clean_linker_0, # of connection points: 2
#     Edge 10, Type (0, 0), BuildingBlock: OJICUG_clean_linker_0, # of connection points: 2
#     Edge 11, Type (0, 0), BuildingBlock: OJICUG_clean_linker_0, # of connection points: 2
#     Edge 12, Type (0, 0), BuildingBlock: OJICUG_clean_linker_0, # of connection points: 2
#     Edge 13, Type (0, 0), BuildingBlock: OJICUG_clean_linker_0, # of connection points: 2
#     Edge 14, Type (0, 0), BuildingBlock: OJICUG_clean_linker_0, # of connection points: 2
#     Edge 15, Type (0, 0), BuildingBlock: OJICUG_clean_linker_0, # of connection points: 2
#     Edge 16, Type (0, 0), BuildingBlock: OJICUG_clean_linker_0, # of connection points: 2
#     Edge 17, Type (0, 0), BuildingBlock: OJICUG_clean_linker_0, # of connection points: 2
#     Edge 18, Type (0, 0), BuildingBlock: OJICUG_clean_linker_0, # of connection points: 2
#     Edge 19, Type (0, 0), BuildingBlock: OJICUG_clean_linker_0, # of connection points: 2
#     Edge 20, Type (0, 0), BuildingBlock: OJICUG_clean_linker_0, # of connection points: 2
#     Edge 21, Type (0, 0), BuildingBlock: OJICUG_clean_linker_0, # of connection points: 2
#     Edge 22, Type (0, 0), BuildingBlock: OJICUG_clean_linker_0, # of connection points: 2
#     Edge 23, Type (0, 0), BuildingBlock: OJICUG_clean_linker_0, # of connection points: 2
# Relax obj value: 0.239
# Max RMSD: 0.338
# Mean RMSD: 0.338
data_MOF--net-smu--node1-BETDIP_clean_sbu_0--edge1-OJICUG_clean_linker_0
_symmetry_space_group_name_H-M    P1
_symmetry_Int_Tables_number       1
_symmetry_cell_setting            triclinic
loop_
_symmetry_equiv_pos_as_xyz
'x, y, z'
_cell_length_a     30.594311
_cell_length_b     30.519976
_cell_length_c     18.74565
_cell_angle_alpha  90.476587
_cell_angle_beta   89.68105
_cell_angle_gamma 119.84898
loop_
_atom_site_label
_atom_site_type_symbol
_atom_site_fract_x
_atom_site_fract_y
_atom_site_fract_z
_atom_type_partial_charge
Tb0 Tb 0.34612 0.05251 0.29157 0.0
Tb1 Tb 0.4017 0.15748 0.29274 0.0
C2 C 0.2753 0.96415 0.31314 0.0
C3 C 0.21964 0.94284 0.31137 0.0
C4 C 0.19386 0.94958 0.36904 0.0
C5 C 0.14169 0.93049 0.36608 0.0
C6 C 0.1136 0.90374 0.30564 0.0
C7 C 0.13966 0.89751 0.2477 0.0
C8 C 0.19186 0.91683 0.25054 0.0
C9 C 0.3754 0.08243 0.16179 0.0
C10 C 0.29392 0.12181 0.27735 0.0
C11 C 0.46241 0.25092 0.28982 0.0
C12 C 0.49819 0.306 0.28816 0.0
C13 C 0.51276 0.3314 0.2229 0.0
C14 C 0.54378 0.38395 0.22096 0.0
C15 C 0.56223 0.41266 0.28433 0.0
C16 C 0.5491 0.38643 0.34971 0.0
C17 C 0.51698 0.33388 0.35157 0.0
C18 C 0.37708 0.10972 0.42093 0.0
C19 C 0.46283 0.10079 0.28629 0.0
O20 O 0.30002 0.99612 0.36451 0.0
O21 O 0.29881 0.97913 0.25215 0.0
O22 O 0.35892 0.10373 0.20541 0.0
O23 O 0.37989 0.04797 0.19476 0.0
O24 O 0.29184 0.08163 0.30775 0.0
O25 O 0.33657 0.15611 0.25089 0.0
O26 O 0.45999 0.22012 0.23916 0.0
O27 O 0.43021 0.22916 0.34162 0.0
O28 O 0.39539 0.1019 0.36707 0.0
O29 O 0.36752 0.14511 0.40392 0.0
O30 O 0.46162 0.14149 0.26742 0.0
O31 O 0.42126 0.0605 0.31017 0.0
H32 H 0.21396 0.96986 0.41658 0.0
H33 H 0.12348 0.93705 0.41128 0.0
H34 H 0.11971 0.87667 0.20047 0.0
H35 H 0.21049 0.91118 0.20498 0.0
H36 H 0.49885 0.3108 0.17317 0.0
H37 H 0.55192 0.40189 0.16933 0.0
H38 H 0.56355 0.40623 0.39977 0.0
H39 H 0.5069 0.31502 0.40269 0.0
Tb40 Tb 0.77866 0.74468 0.29245 0.0
Tb41 Tb 0.82162 0.68129 0.29883 0.0
C42 C 0.74969 0.80698 0.31264 0.0
C43 C 0.78182 0.86301 0.30832 0.0
C44 C 0.81842 0.88981 0.36096 0.0
C45 C 0.85171 0.94163 0.35474 0.0
C46 C 0.84914 0.96893 0.29635 0.0
C47 C 0.81265 0.94203 0.24325 0.0
C48 C 0.77967 0.88974 0.249 0.0
C49 C 0.81099 0.73854 0.16482 0.0
C50 C 0.89684 0.7906 0.29305 0.0
C51 C 0.8528 0.61894 0.29452 0.0
C52 C 0.87185 0.58264 0.29452 0.0
C53 C 0.86925 0.55475 0.23314 0.0
C54 C 0.89111 0.52372 0.2322 0.0
C55 C 0.91707 0.52047 0.29228 0.0
C56 C 0.9181 0.54756 0.35422 0.0
C57 C 0.89553 0.57775 0.35544 0.0
C58 C 0.80351 0.71391 0.4241 0.0
C59 C 0.70532 0.62503 0.28519 0.0
O60 O 0.76039 0.78562 0.36483 0.0
O61 O 0.74107 0.7815 0.25271 0.0
O62 O 0.78865 0.70191 0.20832 0.0
O63 O 0.82263 0.77968 0.19886 0.0
O64 O 0.85948 0.79469 0.32275 0.0
O65 O 0.88723 0.74802 0.26332 0.0
O66 O 0.83661 0.63115 0.23783 0.0
O67 O 0.85062 0.64136 0.35281 0.0
O68 O 0.77601 0.69597 0.37127 0.0
O69 O 0.84631 0.71732 0.40799 0.0
O70 O 0.74557 0.62085 0.29355 0.0
O71 O 0.70784 0.67001 0.2825 0.0
H72 H 0.8222 0.8707 0.40691 0.0
H73 H 0.87992 0.96004 0.3958 0.0
H74 H 0.80882 0.96129 0.19755 0.0
H75 H 0.75261 0.87019 0.20684 0.0
H76 H 0.85082 0.55733 0.18548 0.0
H77 H 0.88757 0.50246 0.18402 0.0
H78 H 0.93776 0.54707 0.40169 0.0
H79 H 0.8981 0.59859 0.40378 0.0
Tb80 Tb 1.03367 0.30434 0.29507 0.0
Tb81 Tb 0.92904 0.26342 0.2924 0.0
C82 C 0.12195 0.32924 0.32868 0.0
C83 C 0.1469 0.29809 0.32077 0.0
C84 C 0.14749 0.26966 0.379 0.0
C85 C 0.1655 0.2358 0.37162 0.0
C86 C 0.1848 0.22991 0.3061 0.0
C87 C 0.18441 0.25858 0.24757 0.0
C88 C 0.16546 0.29199 0.25471 0.0
C89 C 1.00461 0.27897 0.16233 0.0
C90 C 0.95958 0.18655 0.28244 0.0
C91 C 0.83635 0.23394 0.29016 0.0
C92 C 0.78161 0.21598 0.29168 0.0
C93 C 0.75645 0.21824 0.23067 0.0
C94 C 0.70412 0.19836 0.23164 0.0
C95 C 0.67571 0.17537 0.29355 0.0
C96 C 0.70145 0.17466 0.35512 0.0
C97 C 0.75367 0.1948 0.35422 0.0
C98 C 0.97496 0.28303 0.42138 0.0
C99 C 0.99005 0.38018 0.28267 0.0
O100 O 0.08468 0.31167 0.37444 0.0
O101 O 0.11118 0.3455 0.27054 0.0
O102 O 0.98659 0.29812 0.20621 0.0
O103 O 1.02995 0.26374 0.19889 0.0
O104 O 0.99854 0.22176 0.31894 0.0
O105 O 0.93012 0.19912 0.24983 0.0
O106 O 0.86543 0.2545 0.23477 0.0
O107 O 0.85959 0.22996 0.34556 0.0
O108 O 0.98517 0.30932 0.36779 0.0
O109 O 0.93884 0.23882 0.40286 0.0
O110 O 0.94517 0.33986 0.28332 0.0
O111 O 1.03193 0.37683 0.2884 0.0
H112 H 0.13281 0.27265 0.43044 0.0
H113 H 0.16358 0.21375 0.41765 0.0
H114 H 0.19933 0.25587 0.19627 0.0
H115 H 0.16505 0.31269 0.20832 0.0
H116 H 0.77707 0.23478 0.18189 0.0
H117 H 0.68602 0.20096 0.18369 0.0
H118 H 0.68119 0.15716 0.40373 0.0
H119 H 0.77198 0.19277 0.40237 0.0
Tb120 Tb 0.11789 0.40532 0.77879 0.0
Tb121 Tb 0.15035 0.32913 0.78045 0.0
C122 C 0.09333 0.47142 0.80162 0.0
C123 C 0.12368 0.52769 0.79775 0.0
C124 C 0.15639 0.55655 0.85336 0.0
C125 C 0.18524 0.60936 0.84874 0.0
C126 C 0.18199 0.63517 0.78869 0.0
C127 C 0.14962 0.60596 0.73275 0.0
C128 C 0.1211 0.55314 0.73718 0.0
C129 C 0.12399 0.37147 0.64805 0.0
C130 C 0.23393 0.44367 0.77486 0.0
C131 C 0.18877 0.2753 0.75666 0.0
C132 C 0.18218 0.22474 0.76281 0.0
C133 C 0.19248 0.20408 0.70254 0.0
C134 C 0.21025 0.17042 0.7108 0.0
C135 C 0.21952 0.15876 0.77961 0.0
C136 C 0.20016 0.1724 0.83882 0.0
C137 C 0.1809 0.20472 0.83025 0.0
C138 C 0.11609 0.34057 0.90369 0.0
C139 C 1.03658 0.287 0.78199 0.0
O140 O 0.10452 0.44959 0.85253 0.0
O141 O 0.08477 0.44675 0.74124 0.0
O142 O 0.1109 0.3482 0.70564 0.0
O143 O 0.13979 0.4183 0.66535 0.0
O144 O 0.19946 0.45602 0.79116 0.0
O145 O 0.22132 0.3971 0.75843 0.0
O146 O 0.16226 0.28288 0.70876 0.0
O147 O 0.19528 0.30077 0.81609 0.0
O148 O 0.14356 0.37604 0.86099 0.0
O149 O 0.11352 0.29896 0.88215 0.0
O150 O 0.07255 0.27796 0.76117 0.0
O151 O 1.04542 0.3336 0.79724 0.0
H152 H 0.15995 0.53841 0.90063 0.0
H153 H 0.21036 0.6298 0.89239 0.0
H154 H 0.14515 0.62374 0.68583 0.0
H155 H 0.09663 0.53219 0.6931 0.0
H156 H 0.19228 0.21816 0.64971 0.0
H157 H 0.22095 0.15747 0.66343 0.0
H158 H 0.20465 0.16323 0.89282 0.0
H159 H 0.17132 0.21888 0.87749 0.0
Tb160 Tb 0.35333 0.96965 0.78618 0.0
Tb161 Tb 0.2448 0.93461 0.78137 0.0
C162 C 0.44428 0.99365 0.80435 0.0
C163 C 0.47037 0.96331 0.79995 0.0
C164 C 0.469 0.93335 0.85755 0.0
C165 C 0.49347 0.90488 0.85353 0.0
C166 C 0.5207 0.90577 0.79208 0.0
C167 C 0.52143 0.93534 0.73405 0.0
C168 C 0.49659 0.96356 0.73793 0.0
C169 C 0.31649 0.96488 0.65365 0.0
C170 C 0.27856 0.85425 0.77445 0.0
C171 C 0.15342 0.8949 0.75469 0.0
C172 C 0.10817 0.89901 0.76248 0.0
C173 C 0.08043 0.89216 0.70074 0.0
C174 C 1.02888 0.87282 0.70504 0.0
C175 C 1.004 0.85999 0.77174 0.0
C176 C 1.03422 0.87776 0.83374 0.0
C177 C 0.08605 0.89617 0.82925 0.0
C178 C 0.28153 0.96564 0.90971 0.0
C179 C 0.31616 0.04954 0.79272 0.0
O180 O 0.412 0.9829 0.85616 0.0
O181 O 0.42715 1.00132 0.74492 0.0
O182 O 0.30521 0.97757 0.71101 0.0
O183 O 0.34708 0.949 0.6715 0.0
O184 O 0.32158 0.88825 0.80281 0.0
O185 O 0.24768 0.86779 0.74797 0.0
O186 O 0.18839 0.92592 0.71066 0.0
O187 O 0.171 0.88453 0.81179 0.0
O188 O 0.29532 0.94194 0.86654 0.0
O189 O 0.24237 0.96545 0.88406 0.0
O190 O 0.27257 1.01368 0.76739 0.0
O191 O 0.35327 0.04091 0.81088 0.0
H192 H 0.44892 0.93174 0.90611 0.0
H193 H 0.49067 0.88191 0.89888 0.0
H194 H 0.54221 0.93782 0.68592 0.0
H195 H 0.49832 0.986 0.69238 0.0
H196 H 0.0974 0.89584 0.64859 0.0
H197 H 1.00953 0.86412 0.65473 0.0
H198 H 1.0182 0.87424 0.88628 0.0
H199 H 0.10762 0.90369 0.87797 0.0
Tb200 Tb 0.68323 0.73266 0.79089 0.0
Tb201 Tb 0.757 0.84144 0.78665 0.0
C202 C 0.61584 0.64237 0.81074 0.0
C203 C 0.55966 0.6169 0.8044 0.0
C204 C 0.52978 0.61206 0.86436 0.0
C205 C 0.47709 0.58788 0.85916 0.0
C206 C 0.45238 0.56744 0.79387 0.0
C207 C 0.48236 0.57324 0.7334 0.0
C208 C 0.53519 0.59753 0.7386 0.0
C209 C 0.71397 0.76971 0.65741 0.0
C210 C 0.6434 0.80878 0.78063 0.0
C211 C 0.81045 0.93248 0.75736 0.0
C212 C 0.85938 0.97712 0.77123 0.0
C213 C 0.887 1.00565 0.71256 0.0
C214 C 0.92032 0.0571 0.72079 0.0
C215 C 0.92507 0.08046 0.78754 0.0
C216 C 0.90434 0.04991 0.84808 0.0
C217 C 0.87189 0.99824 0.83997 0.0
C218 C 0.75373 0.80384 0.91382 0.0
C219 C 0.79934 0.76786 0.79215 0.0
O220 O 0.63676 0.67533 0.86252 0.0
O221 O 0.64186 0.65817 0.75177 0.0
O222 O 0.73817 0.78116 0.71433 0.0
O223 O 0.66803 0.73863 0.67701 0.0
O224 O 0.63374 0.76503 0.80712 0.0
O225 O 0.68815 0.84013 0.75566 0.0
O226 O 0.80939 0.89647 0.7176 0.0
O227 O 0.77806 0.9159 0.81031 0.0
O228 O 0.7156 0.78985 0.87266 0.0
O229 O 0.79066 0.84479 0.8882 0.0
O230 O 0.80781 0.81303 0.77286 0.0
O231 O 0.75353 0.73015 0.80811 0.0
H232 H 0.54711 0.62685 0.91575 0.0
H233 H 0.45568 0.58524 0.9067 0.0
H234 H 0.46501 0.55782 0.68225 0.0
H235 H 0.55679 0.60068 0.69102 0.0
H236 H 0.87883 0.9895 0.65927 0.0
H237 H 0.9386 0.0791 0.67372 0.0
H238 H 0.9084 0.06605 0.90088 0.0
H239 H 0.85226 0.97632 0.88654 0.0
C240 C 0.28318 1.01805 1.01428 0.0
C241 C 0.30837 0.99867 0.97237 0.0
H242 H 0.28569 0.06325 0.10431 0.0
C243 C 0.35868 1.01455 0.98859 0.0
H244 H 0.24407 1.00643 1.00398 0.0
C245 C 0.38304 0.04861 0.04495 0.0
C246 C 0.35738 0.06685 0.08782 0.0
H247 H 0.37882 0.99974 0.95958 0.0
H248 H 0.42096 0.05755 0.05882 0.0
C249 C 0.30738 0.05198 0.07071 0.0
C250 C 0.78226 0.79387 0.5631 0.0
C251 C 0.73681 0.75718 0.59505 0.0
H252 H 0.84016 0.80922 0.48449 0.0
C253 C 0.71792 0.70637 0.57519 0.0
H254 H 0.79868 0.83323 0.57843 0.0
C255 C 0.74223 0.69272 0.52331 0.0
C256 C 0.78672 0.72912 0.49002 0.0
H257 H 0.68446 0.67676 0.60061 0.0
H258 H 0.72552 0.6533 0.50803 0.0
C259 C 0.80679 0.78003 0.5107 0.0
C260 C 1.00733 0.30286 1.03196 0.0
C261 C 1.03181 0.30679 0.09654 0.0
H262 H 1.01518 0.31407 0.91938 0.0
C263 C 0.08511 0.33307 0.09658 0.0
H264 H 0.96655 0.28301 1.02957 0.0
C265 C 0.11303 0.35042 1.03378 0.0
C266 C 0.08878 0.34253 0.9684 0.0
H267 H 0.10583 0.33696 0.14454 0.0
H268 H 0.15348 0.36581 1.03585 0.0
C269 C 1.03565 0.3209 0.96854 0.0
C270 C 0.37845 0.03968 0.48625 0.0
C271 C 0.35976 0.07361 0.48204 0.0
H272 H 0.37824 0.97803 0.54041 0.0
C273 C 0.32362 0.06904 0.53239 0.0
H274 H 0.4064 0.04188 0.44858 0.0
C275 C 0.30726 1.03166 0.58581 0.0
C276 C 0.32669 0.99812 0.59006 0.0
H277 H 0.30804 0.09403 0.53048 0.0
H278 H 0.28019 1.02982 0.62483 0.0
C279 C 0.36197 1.00244 0.53873 0.0
C280 C 0.81566 0.79529 0.98905 0.0
C281 C 0.7645 0.77624 0.97133 0.0
H282 H 0.86997 0.79504 0.05978 0.0
C283 C 0.72813 0.73548 1.01172 0.0
H284 H 0.84537 0.82653 0.95993 0.0
C285 C 0.74305 0.71738 0.07131 0.0
C286 C 0.79456 0.73888 0.09013 0.0
H287 H 0.68847 0.71988 1.00027 0.0
H288 H 0.71425 0.68953 0.10574 0.0
C289 C 0.83031 0.7765 0.04605 0.0
C290 C 1.03328 0.35365 0.49893 0.0
C291 C 1.00904 0.30139 0.48462 0.0
H292 H 0.08893 0.41669 0.55826 0.0
C293 C 1.02495 0.27211 0.52218 0.0
H294 H 1.02229 0.37746 0.47058 0.0
C295 C 0.06434 0.29521 0.57285 0.0
C296 C 0.08888 0.34797 0.58619 0.0
H297 H 1.00816 0.23207 0.51105 0.0
H298 H 0.07534 0.27179 0.60211 0.0
C299 C 0.07246 0.37653 0.54837 0.0
C300 C 0.541 0.13043 0.35493 0.0
C301 C 0.5133 0.10704 0.29309 0.0
H302 H 0.61371 0.17206 0.40302 0.0
C303 C 0.53882 0.1054 0.23174 0.0
H304 H 0.52233 0.1347 0.40161 0.0
C305 C 0.59128 0.12664 0.23223 0.0
C306 C 0.61952 0.15119 0.29369 0.0
H307 H 0.51842 0.0898 0.18242 0.0
H308 H 0.60968 0.12446 0.18394 0.0
C309 C 0.59349 0.15236 0.35528 0.0
C310 C 0.6278 0.55321 0.33699 0.0
C311 C 0.65848 0.57619 0.27735 0.0
H312 H 0.5728 0.48438 0.38594 0.0
C313 C 0.65601 0.54555 0.21953 0.0
H314 H 0.63102 0.57551 0.38401 0.0
C315 C 0.62502 0.4931 0.22182 0.0
C316 C 0.5945 0.46936 0.28173 0.0
H317 H 0.68137 0.56192 0.17456 0.0
H318 H 0.62725 0.47129 0.17762 0.0
C319 C 0.59571 0.50052 0.33884 0.0
C320 C 0.98333 0.44926 0.2242 0.0
C321 C 0.98906 0.42791 0.28697 0.0
H322 H 0.95791 0.49589 0.17617 0.0
C323 C 0.97311 0.4389 0.35166 0.0
H324 H 0.99267 0.43922 0.17305 0.0
C325 C 0.95027 0.46887 0.35344 0.0
C326 C 0.94337 0.48974 0.29049 0.0
H327 H 0.97423 0.42053 0.40033 0.0
H328 H 0.93569 0.47316 0.4041 0.0
C329 C 0.96155 0.48038 0.22599 0.0
C330 C 0.22656 0.71744 0.71937 0.0
C331 C 0.21094 0.69206 0.78526 0.0
H332 H 0.26 0.78851 0.66443 0.0
C333 C 0.22176 0.7218 0.84779 0.0
H334 H 0.22003 0.69658 0.66991 0.0
C335 C 0.24674 0.77476 0.84442 0.0
C336 C 0.2609 0.79948 0.77851 0.0
H337 H 0.20938 0.70434 0.8995 0.0
H338 H 0.25278 0.79631 0.89321 0.0
C339 C 0.25037 0.77034 0.71605 0.0
C340 C 0.57079 0.87039 0.85182 0.0
C341 C 0.54916 0.87719 0.78952 0.0
H342 H 0.6163 0.84237 0.89782 0.0
C343 C 0.55635 0.85758 0.7248 0.0
H344 H 0.56778 0.88601 0.90244 0.0
C345 C 0.58516 0.83331 0.72233 0.0
C346 C 0.60633 0.82661 0.78466 0.0
H347 H 0.54009 0.86123 0.67565 0.0
H348 H 0.59158 0.82043 0.67139 0.0
C349 C 0.59871 0.84524 0.84942 0.0
C350 C 0.31447 0.47769 0.84227 0.0
C351 C 0.28857 0.48035 0.78232 0.0
H352 H 0.38562 0.50228 0.89274 0.0
C353 C 0.31657 0.51232 0.7261 0.0
H354 H 0.29392 0.45216 0.88544 0.0
C355 C 0.36953 0.54109 0.72987 0.0
C356 C 0.39572 0.53846 0.79001 0.0
H357 H 0.2976 0.51394 0.67843 0.0
H358 H 0.38993 0.56522 0.68546 0.0
C359 C 0.36716 0.50649 0.8463 0.0
C360 C 0.25483 0.15954 0.35346 0.0
C361 C 0.25534 0.13682 0.28843 0.0
H362 H 0.23475 0.20809 0.40932 0.0
C363 C 0.23022 0.1424 0.22973 0.0
H364 H 0.27597 0.1579 0.39858 0.0
C365 C 0.20553 0.17071 0.23582 0.0
C366 C 0.2068 0.19553 0.30031 0.0
H367 H 0.23158 0.12669 0.17826 0.0
H368 H 0.18664 0.17413 0.18934 0.0
C369 C 0.23128 0.18873 0.35926 0.0
C370 C 0.9755 0.83585 0.36423 0.0
C371 C 0.95038 0.82956 0.2994 0.0
H372 H 1.04616 0.86251 0.4169 0.0
C373 C 0.97895 0.85016 0.23724 0.0
H374 H 0.95429 0.81825 0.41224 0.0
C375 C 1.03174 0.87615 0.23964 0.0
C376 C 0.05733 0.88085 0.30407 0.0
H377 H 0.96035 0.84431 0.18616 0.0
H378 H 0.05236 0.89136 0.19048 0.0
C379 C 1.02831 0.86102 0.36656 0.0
C380 C 0.92954 0.10763 0.35215 0.0
C381 C 0.94232 0.13211 0.28622 0.0
H382 H 0.88834 0.03785 0.40736 0.0
C383 C 0.92696 0.10287 0.22341 0.0
H384 H 0.93916 0.12943 0.40125 0.0
C385 C 0.89857 0.05006 0.22639 0.0
C386 C 0.88341 1.02515 0.29248 0.0
H387 H 0.93541 0.12108 0.17179 0.0
H388 H 0.88769 1.02903 0.1767 0.0
C389 C 0.90004 0.05488 0.35531 0.0
C390 C 0.25224 0.11255 0.85225 0.0
C391 C 0.25458 0.13894 0.79005 0.0
H392 H 0.27841 0.06967 0.90656 0.0
C393 C 0.29273 0.14848 0.73958 0.0
H394 H 0.2234 0.10331 0.89224 0.0
C395 C 0.32323 0.1268 0.74726 0.0
C396 C 0.31714 0.09669 0.80646 0.0
H397 H 0.29785 0.17076 0.69243 0.0
H398 H 0.3472 0.1287 0.7032 0.0
C399 C 0.28487 0.09387 0.86159 0.0
C400 C 0.9248 0.80079 0.8413 0.0
C401 C 0.94833 0.82389 0.77616 0.0
H402 H 0.85504 0.75682 0.89687 0.0
C403 C 0.91805 0.8088 0.71423 0.0
H404 H 0.94567 0.80741 0.89021 0.0
C405 C 0.86654 0.77597 0.71833 0.0
C406 C 0.84299 0.76136 0.78482 0.0
H407 H 0.9322 0.82369 0.66206 0.0
H408 H 0.84422 0.76969 0.6706 0.0
C409 C 0.87254 0.76981 0.84534 0.0
C410 C 0.96092 0.21433 0.73747 0.0
C411 C 0.98938 0.24139 0.79677 0.0
H412 H 0.91838 0.14221 0.68766 0.0
C413 C 0.99024 0.21476 0.857 0.0
H414 H 0.96099 0.23399 0.68953 0.0
C415 C 0.96949 0.16265 0.85429 0.0
C416 C 0.94523 0.13571 0.79229 0.0
H417 H 1.01385 0.23438 0.9022 0.0
H418 H 0.97574 0.14431 0.89908 0.0
C419 C 0.9387 0.16184 0.73536 0.0
loop_
_geom_bond_atom_site_label_1
_geom_bond_atom_site_label_2
_geom_bond_distance
_geom_bond_site_symmetry_2
_ccdc_geom_bond_type
Tb0 C2 2.809 1_545 S
Tb0 O20 2.484 1_545 S
Tb0 O21 2.440 1_545 S
Tb0 O22 2.658 . S
Tb0 O23 2.409 . S
Tb0 O24 2.378 . S
Tb0 O28 2.325 . S
Tb0 O31 2.341 . S
Tb1 C11 2.809 . S
Tb1 O22 2.325 . S
Tb1 O25 2.341 . S
Tb1 O26 2.484 . S
Tb1 O27 2.440 . S
Tb1 O28 2.658 . S
Tb1 O29 2.409 . S
Tb1 O30 2.378 . S
C2 Tb0 2.809 1_565 S
C2 C3 1.514 . S
C2 O20 1.248 . S
C2 O21 1.266 . S
C3 C2 1.514 . S
C3 C4 1.359 . S
C3 C8 1.348 . S
C4 C3 1.359 . S
C4 C5 1.380 . S
C4 H32 0.929 . S
C5 C4 1.380 . S
C5 C6 1.347 . S
C5 H33 0.931 . S
C6 C5 1.347 . S
C6 C7 1.369 . S
C7 C6 1.369 . S
C7 C8 1.408 . S
C7 H34 0.930 . S
C8 C3 1.348 . S
C8 C7 1.408 . S
C8 H35 0.930 . S
C9 O22 1.281 . S
C9 O23 1.254 . S
C10 O24 1.236 . S
C10 O25 1.266 . S
C11 Tb1 2.809 . S
C11 C12 1.514 . S
C11 O26 1.248 . S
C11 O27 1.266 . S
C12 C11 1.514 . S
C12 C13 1.359 . S
C12 C17 1.348 . S
C13 C12 1.359 . S
C13 C14 1.380 . S
C13 H36 0.929 . S
C14 C13 1.380 . S
C14 C15 1.347 . S
C14 H37 0.931 . S
C15 C14 1.347 . S
C15 C16 1.369 . S
C16 C15 1.369 . S
C16 C17 1.408 . S
C16 H38 0.930 . S
C17 C12 1.348 . S
C17 C16 1.408 . S
C17 H39 0.930 . S
C18 O28 1.281 . S
C18 O29 1.254 . S
C19 O30 1.236 . S
C19 O31 1.266 . S
O20 Tb0 2.484 1_565 S
O20 C2 1.248 . S
O21 Tb0 2.440 1_565 S
O21 C2 1.266 . S
O22 Tb0 2.658 . S
O22 Tb1 2.325 . S
O22 C9 1.281 . S
O23 Tb0 2.409 . S
O23 C9 1.254 . S
O24 Tb0 2.378 . S
O24 C10 1.236 . S
O25 Tb1 2.341 . S
O25 C10 1.266 . S
O26 Tb1 2.484 . S
O26 C11 1.248 . S
O27 Tb1 2.440 . S
O27 C11 1.266 . S
O28 Tb0 2.325 . S
O28 Tb1 2.658 . S
O28 C18 1.281 . S
O29 Tb1 2.409 . S
O29 C18 1.254 . S
O30 Tb1 2.378 . S
O30 C19 1.236 . S
O31 Tb0 2.341 . S
O31 C19 1.266 . S
H32 C4 0.929 . S
H33 C5 0.931 . S
H34 C7 0.930 . S
H35 C8 0.930 . S
H36 C13 0.929 . S
H37 C14 0.931 . S
H38 C16 0.930 . S
H39 C17 0.930 . S
Tb40 C42 2.809 . S
Tb40 O60 2.484 . S
Tb40 O61 2.440 . S
Tb40 O62 2.658 . S
Tb40 O63 2.409 . S
Tb40 O64 2.378 . S
Tb40 O68 2.325 . S
Tb40 O71 2.341 . S
Tb41 C51 2.809 . S
Tb41 O62 2.325 . S
Tb41 O65 2.341 . S
Tb41 O66 2.484 . S
Tb41 O67 2.440 . S
Tb41 O68 2.658 . S
Tb41 O69 2.409 . S
Tb41 O70 2.378 . S
C42 Tb40 2.809 . S
C42 C43 1.514 . S
C42 O60 1.248 . S
C42 O61 1.266 . S
C43 C42 1.514 . S
C43 C44 1.359 . S
C43 C48 1.348 . S
C44 C43 1.359 . S
C44 C45 1.380 . S
C44 H72 0.929 . S
C45 C44 1.380 . S
C45 C46 1.347 . S
C45 H73 0.931 . S
C46 C45 1.347 . S
C46 C47 1.369 . S
C47 C46 1.369 . S
C47 C48 1.408 . S
C47 H74 0.930 . S
C48 C43 1.348 . S
C48 C47 1.408 . S
C48 H75 0.930 . S
C49 O62 1.281 . S
C49 O63 1.254 . S
C50 O64 1.236 . S
C50 O65 1.266 . S
C51 Tb41 2.809 . S
C51 C52 1.514 . S
C51 O66 1.248 . S
C51 O67 1.266 . S
C52 C51 1.514 . S
C52 C53 1.359 . S
C52 C57 1.348 . S
C53 C52 1.359 . S
C53 C54 1.380 . S
C53 H76 0.929 . S
C54 C53 1.380 . S
C54 C55 1.347 . S
C54 H77 0.931 . S
C55 C54 1.347 . S
C55 C56 1.369 . S
C56 C55 1.369 . S
C56 C57 1.408 . S
C56 H78 0.930 . S
C57 C52 1.348 . S
C57 C56 1.408 . S
C57 H79 0.930 . S
C58 O68 1.281 . S
C58 O69 1.254 . S
C59 O70 1.236 . S
C59 O71 1.266 . S
O60 Tb40 2.484 . S
O60 C42 1.248 . S
O61 Tb40 2.440 . S
O61 C42 1.266 . S
O62 Tb40 2.658 . S
O62 Tb41 2.325 . S
O62 C49 1.281 . S
O63 Tb40 2.409 . S
O63 C49 1.254 . S
O64 Tb40 2.378 . S
O64 C50 1.236 . S
O65 Tb41 2.341 . S
O65 C50 1.266 . S
O66 Tb41 2.484 . S
O66 C51 1.248 . S
O67 Tb41 2.440 . S
O67 C51 1.266 . S
O68 Tb40 2.325 . S
O68 Tb41 2.658 . S
O68 C58 1.281 . S
O69 Tb41 2.409 . S
O69 C58 1.254 . S
O70 Tb41 2.378 . S
O70 C59 1.236 . S
O71 Tb40 2.341 . S
O71 C59 1.266 . S
H72 C44 0.929 . S
H73 C45 0.931 . S
H74 C47 0.930 . S
H75 C48 0.930 . S
H76 C53 0.929 . S
H77 C54 0.931 . S
H78 C56 0.930 . S
H79 C57 0.930 . S
Tb80 C82 2.809 1_655 S
Tb80 O100 2.484 1_655 S
Tb80 O101 2.440 1_655 S
Tb80 O102 2.658 . S
Tb80 O103 2.409 . S
Tb80 O104 2.378 . S
Tb80 O108 2.325 . S
Tb80 O111 2.341 . S
Tb81 C91 2.809 . S
Tb81 O102 2.325 . S
Tb81 O105 2.341 . S
Tb81 O106 2.484 . S
Tb81 O107 2.440 . S
Tb81 O108 2.658 . S
Tb81 O109 2.409 . S
Tb81 O110 2.378 . S
C82 Tb80 2.809 1_455 S
C82 C83 1.514 . S
C82 O100 1.248 . S
C82 O101 1.266 . S
C83 C82 1.514 . S
C83 C84 1.359 . S
C83 C88 1.348 . S
C84 C83 1.359 . S
C84 C85 1.380 . S
C84 H112 0.929 . S
C85 C84 1.380 . S
C85 C86 1.347 . S
C85 H113 0.931 . S
C86 C85 1.347 . S
C86 C87 1.369 . S
C87 C86 1.369 . S
C87 C88 1.408 . S
C87 H114 0.930 . S
C88 C83 1.348 . S
C88 C87 1.408 . S
C88 H115 0.930 . S
C89 O102 1.281 . S
C89 O103 1.254 . S
C90 O104 1.236 . S
C90 O105 1.266 . S
C91 Tb81 2.809 . S
C91 C92 1.514 . S
C91 O106 1.248 . S
C91 O107 1.266 . S
C92 C91 1.514 . S
C92 C93 1.359 . S
C92 C97 1.348 . S
C93 C92 1.359 . S
C93 C94 1.380 . S
C93 H116 0.929 . S
C94 C93 1.380 . S
C94 C95 1.347 . S
C94 H117 0.931 . S
C95 C94 1.347 . S
C95 C96 1.369 . S
C96 C95 1.369 . S
C96 C97 1.408 . S
C96 H118 0.930 . S
C97 C92 1.348 . S
C97 C96 1.408 . S
C97 H119 0.930 . S
C98 O108 1.281 . S
C98 O109 1.254 . S
C99 O110 1.236 . S
C99 O111 1.266 . S
O100 Tb80 2.484 1_455 S
O100 C82 1.248 . S
O101 Tb80 2.440 1_455 S
O101 C82 1.266 . S
O102 Tb80 2.658 . S
O102 Tb81 2.325 . S
O102 C89 1.281 . S
O103 Tb80 2.409 . S
O103 C89 1.254 . S
O104 Tb80 2.378 . S
O104 C90 1.236 . S
O105 Tb81 2.341 . S
O105 C90 1.266 . S
O106 Tb81 2.484 . S
O106 C91 1.248 . S
O107 Tb81 2.440 . S
O107 C91 1.266 . S
O108 Tb80 2.325 . S
O108 Tb81 2.658 . S
O108 C98 1.281 . S
O109 Tb81 2.409 . S
O109 C98 1.254 . S
O110 Tb81 2.378 . S
O110 C99 1.236 . S
O111 Tb80 2.341 . S
O111 C99 1.266 . S
H112 C84 0.929 . S
H113 C85 0.931 . S
H114 C87 0.930 . S
H115 C88 0.930 . S
H116 C93 0.929 . S
H117 C94 0.931 . S
H118 C96 0.930 . S
H119 C97 0.930 . S
Tb120 C122 2.809 . S
Tb120 O140 2.484 . S
Tb120 O141 2.440 . S
Tb120 O142 2.658 . S
Tb120 O143 2.409 . S
Tb120 O144 2.378 . S
Tb120 O148 2.325 . S
Tb120 O151 2.341 . S
Tb121 C131 2.809 . S
Tb121 O142 2.325 . S
Tb121 O145 2.341 . S
Tb121 O146 2.484 . S
Tb121 O147 2.440 . S
Tb121 O148 2.658 . S
Tb121 O149 2.409 . S
Tb121 O150 2.378 . S
C122 Tb120 2.809 . S
C122 C123 1.514 . S
C122 O140 1.248 . S
C122 O141 1.266 . S
C123 C122 1.514 . S
C123 C124 1.359 . S
C123 C128 1.348 . S
C124 C123 1.359 . S
C124 C125 1.380 . S
C124 H152 0.929 . S
C125 C124 1.380 . S
C125 C126 1.347 . S
C125 H153 0.931 . S
C126 C125 1.347 . S
C126 C127 1.369 . S
C127 C126 1.369 . S
C127 C128 1.408 . S
C127 H154 0.930 . S
C128 C123 1.348 . S
C128 C127 1.408 . S
C128 H155 0.930 . S
C129 O142 1.281 . S
C129 O143 1.254 . S
C130 O144 1.236 . S
C130 O145 1.266 . S
C131 Tb121 2.809 . S
C131 C132 1.514 . S
C131 O146 1.248 . S
C131 O147 1.266 . S
C132 C131 1.514 . S
C132 C133 1.359 . S
C132 C137 1.348 . S
C133 C132 1.359 . S
C133 C134 1.380 . S
C133 H156 0.929 . S
C134 C133 1.380 . S
C134 C135 1.347 . S
C134 H157 0.931 . S
C135 C134 1.347 . S
C135 C136 1.369 . S
C136 C135 1.369 . S
C136 C137 1.408 . S
C136 H158 0.930 . S
C137 C132 1.348 . S
C137 C136 1.408 . S
C137 H159 0.930 . S
C138 O148 1.281 . S
C138 O149 1.254 . S
C139 O150 1.236 . S
C139 O151 1.266 . S
O140 Tb120 2.484 . S
O140 C122 1.248 . S
O141 Tb120 2.440 . S
O141 C122 1.266 . S
O142 Tb120 2.658 . S
O142 Tb121 2.325 . S
O142 C129 1.281 . S
O143 Tb120 2.409 . S
O143 C129 1.254 . S
O144 Tb120 2.378 . S
O144 C130 1.236 . S
O145 Tb121 2.341 . S
O145 C130 1.266 . S
O146 Tb121 2.484 . S
O146 C131 1.248 . S
O147 Tb121 2.440 . S
O147 C131 1.266 . S
O148 Tb120 2.325 . S
O148 Tb121 2.658 . S
O148 C138 1.281 . S
O149 Tb121 2.409 . S
O149 C138 1.254 . S
O150 Tb121 2.378 . S
O150 C139 1.236 . S
O151 Tb120 2.341 . S
O151 C139 1.266 . S
H152 C124 0.929 . S
H153 C125 0.931 . S
H154 C127 0.930 . S
H155 C128 0.930 . S
H156 C133 0.929 . S
H157 C134 0.931 . S
H158 C136 0.930 . S
H159 C137 0.930 . S
Tb160 C162 2.809 . S
Tb160 O180 2.484 . S
Tb160 O181 2.440 . S
Tb160 O182 2.658 . S
Tb160 O183 2.409 . S
Tb160 O184 2.378 . S
Tb160 O188 2.325 . S
Tb160 O191 2.341 . S
Tb161 C171 2.809 . S
Tb161 O182 2.325 . S
Tb161 O185 2.341 . S
Tb161 O186 2.484 . S
Tb161 O187 2.440 . S
Tb161 O188 2.658 . S
Tb161 O189 2.409 . S
Tb161 O190 2.378 . S
C162 Tb160 2.809 . S
C162 C163 1.514 . S
C162 O180 1.248 . S
C162 O181 1.266 . S
C163 C162 1.514 . S
C163 C164 1.359 . S
C163 C168 1.348 . S
C164 C163 1.359 . S
C164 C165 1.380 . S
C164 H192 0.929 . S
C165 C164 1.380 . S
C165 C166 1.347 . S
C165 H193 0.931 . S
C166 C165 1.347 . S
C166 C167 1.369 . S
C167 C166 1.369 . S
C167 C168 1.408 . S
C167 H194 0.930 . S
C168 C163 1.348 . S
C168 C167 1.408 . S
C168 H195 0.930 . S
C169 O182 1.281 . S
C169 O183 1.254 . S
C170 O184 1.236 . S
C170 O185 1.266 . S
C171 Tb161 2.809 . S
C171 C172 1.514 . S
C171 O186 1.248 . S
C171 O187 1.266 . S
C172 C171 1.514 . S
C172 C173 1.359 . S
C172 C177 1.348 . S
C173 C172 1.359 . S
C173 C174 1.380 1_455 S
C173 H196 0.929 . S
C174 C173 1.380 1_655 S
C174 C175 1.347 . S
C174 H197 0.931 . S
C175 C174 1.347 . S
C175 C176 1.369 . S
C176 C175 1.369 . S
C176 C177 1.408 1_655 S
C176 H198 0.930 . S
C177 C172 1.348 . S
C177 C176 1.408 1_455 S
C177 H199 0.930 . S
C178 O188 1.281 . S
C178 O189 1.254 . S
C179 O190 1.236 . S
C179 O191 1.266 . S
O180 Tb160 2.484 . S
O180 C162 1.248 . S
O181 Tb160 2.440 . S
O181 C162 1.266 . S
O182 Tb160 2.658 . S
O182 Tb161 2.325 . S
O182 C169 1.281 . S
O183 Tb160 2.409 . S
O183 C169 1.254 . S
O184 Tb160 2.378 . S
O184 C170 1.236 . S
O185 Tb161 2.341 . S
O185 C170 1.266 . S
O186 Tb161 2.484 . S
O186 C171 1.248 . S
O187 Tb161 2.440 . S
O187 C171 1.266 . S
O188 Tb160 2.325 . S
O188 Tb161 2.658 . S
O188 C178 1.281 . S
O189 Tb161 2.409 . S
O189 C178 1.254 . S
O190 Tb161 2.378 . S
O190 C179 1.236 . S
O191 Tb160 2.341 . S
O191 C179 1.266 . S
H192 C164 0.929 . S
H193 C165 0.931 . S
H194 C167 0.930 . S
H195 C168 0.930 . S
H196 C173 0.929 . S
H197 C174 0.931 . S
H198 C176 0.930 . S
H199 C177 0.930 . S
Tb200 C202 2.809 . S
Tb200 O220 2.484 . S
Tb200 O221 2.440 . S
Tb200 O222 2.658 . S
Tb200 O223 2.409 . S
Tb200 O224 2.378 . S
Tb200 O228 2.325 . S
Tb200 O231 2.341 . S
Tb201 C211 2.809 . S
Tb201 O222 2.325 . S
Tb201 O225 2.341 . S
Tb201 O226 2.484 . S
Tb201 O227 2.440 . S
Tb201 O228 2.658 . S
Tb201 O229 2.409 . S
Tb201 O230 2.378 . S
C202 Tb200 2.809 . S
C202 C203 1.514 . S
C202 O220 1.248 . S
C202 O221 1.266 . S
C203 C202 1.514 . S
C203 C204 1.359 . S
C203 C208 1.348 . S
C204 C203 1.359 . S
C204 C205 1.380 . S
C204 H232 0.929 . S
C205 C204 1.380 . S
C205 C206 1.347 . S
C205 H233 0.931 . S
C206 C205 1.347 . S
C206 C207 1.369 . S
C207 C206 1.369 . S
C207 C208 1.408 . S
C207 H234 0.930 . S
C208 C203 1.348 . S
C208 C207 1.408 . S
C208 H235 0.930 . S
C209 O222 1.281 . S
C209 O223 1.254 . S
C210 O224 1.236 . S
C210 O225 1.266 . S
C211 Tb201 2.809 . S
C211 C212 1.514 . S
C211 O226 1.248 . S
C211 O227 1.266 . S
C212 C211 1.514 . S
C212 C213 1.359 . S
C212 C217 1.348 . S
C213 C212 1.359 . S
C213 C214 1.380 1_565 S
C213 H236 0.929 . S
C214 C213 1.380 1_545 S
C214 C215 1.347 . S
C214 H237 0.931 . S
C215 C214 1.347 . S
C215 C216 1.369 . S
C216 C215 1.369 . S
C216 C217 1.408 1_545 S
C216 H238 0.930 . S
C217 C212 1.348 . S
C217 C216 1.408 1_565 S
C217 H239 0.930 . S
C218 O228 1.281 . S
C218 O229 1.254 . S
C219 O230 1.236 . S
C219 O231 1.266 . S
O220 Tb200 2.484 . S
O220 C202 1.248 . S
O221 Tb200 2.440 . S
O221 C202 1.266 . S
O222 Tb200 2.658 . S
O222 Tb201 2.325 . S
O222 C209 1.281 . S
O223 Tb200 2.409 . S
O223 C209 1.254 . S
O224 Tb200 2.378 . S
O224 C210 1.236 . S
O225 Tb201 2.341 . S
O225 C210 1.266 . S
O226 Tb201 2.484 . S
O226 C211 1.248 . S
O227 Tb201 2.440 . S
O227 C211 1.266 . S
O228 Tb200 2.325 . S
O228 Tb201 2.658 . S
O228 C218 1.281 . S
O229 Tb201 2.409 . S
O229 C218 1.254 . S
O230 Tb201 2.378 . S
O230 C219 1.236 . S
O231 Tb200 2.341 . S
O231 C219 1.266 . S
H232 C204 0.929 . S
H233 C205 0.931 . S
H234 C207 0.930 . S
H235 C208 0.930 . S
H236 C213 0.929 . S
H237 C214 0.931 . S
H238 C216 0.930 . S
H239 C217 0.930 . S
C240 C241 1.387 . S
C240 H244 0.950 . S
C240 C249 1.390 1_566 S
C241 C240 1.387 . S
C241 C243 1.387 . S
H242 C249 0.950 . S
C243 C241 1.387 . S
C243 C245 1.390 1_566 S
C243 H247 0.950 . S
H244 C240 0.950 . S
C245 C243 1.390 1_544 S
C245 C246 1.387 . S
C245 H248 0.950 . S
C246 C245 1.387 . S
C246 C249 1.387 . S
H247 C243 0.950 . S
H248 C245 0.950 . S
C249 C240 1.390 1_544 S
C249 H242 0.950 . S
C249 C246 1.387 . S
C250 C251 1.387 . S
C250 H254 0.950 . S
C250 C259 1.390 . S
C251 C250 1.387 . S
C251 C253 1.387 . S
H252 C259 0.950 . S
C253 C251 1.387 . S
C253 C255 1.390 . S
C253 H257 0.950 . S
H254 C250 0.950 . S
C255 C253 1.390 . S
C255 C256 1.387 . S
C255 H258 0.950 . S
C256 C255 1.387 . S
C256 C259 1.387 . S
H257 C253 0.950 . S
H258 C255 0.950 . S
C259 C250 1.390 . S
C259 H252 0.950 . S
C259 C256 1.387 . S
C260 C261 1.387 1_556 S
C260 H264 0.950 . S
C260 C269 1.390 . S
C261 C260 1.387 1_554 S
C261 C263 1.387 . S
H262 C269 0.950 . S
C263 C261 1.387 . S
C263 C265 1.390 1_655 S
C263 H267 0.951 . S
H264 C260 0.950 . S
C265 C263 1.390 1_455 S
C265 C266 1.387 1_554 S
C265 H268 0.950 . S
C266 C265 1.387 1_556 S
C266 C269 1.387 1_455 S
H267 C263 0.951 . S
H268 C265 0.950 . S
C269 C260 1.390 . S
C269 H262 0.950 . S
C269 C266 1.387 1_655 S
C270 C271 1.387 . S
C270 H274 0.950 . S
C270 C279 1.390 1_545 S
C271 C270 1.387 . S
C271 C273 1.387 . S
H272 C279 0.950 . S
C273 C271 1.387 . S
C273 C275 1.390 1_545 S
C273 H277 0.950 . S
H274 C270 0.950 . S
C275 C273 1.390 1_565 S
C275 C276 1.387 . S
C275 H278 0.950 . S
C276 C275 1.387 . S
C276 C279 1.387 . S
H277 C273 0.950 . S
H278 C275 0.950 . S
C279 C270 1.390 1_565 S
C279 H272 0.950 . S
C279 C276 1.387 . S
C280 C281 1.387 . S
C280 H284 0.950 . S
C280 C289 1.390 . S
C281 C280 1.387 . S
C281 C283 1.387 1_556 S
H282 C289 0.950 . S
C283 C281 1.387 1_554 S
C283 C285 1.390 . S
C283 H287 0.950 . S
H284 C280 0.950 . S
C285 C283 1.390 . S
C285 C286 1.387 . S
C285 H288 0.950 . S
C286 C285 1.387 . S
C286 C289 1.387 1_554 S
H287 C283 0.950 . S
H288 C285 0.950 . S
C289 C280 1.390 . S
C289 H282 0.950 . S
C289 C286 1.387 1_556 S
C290 C291 1.387 . S
C290 H294 0.950 . S
C290 C299 1.390 1_655 S
C291 C290 1.387 . S
C291 C293 1.387 . S
H292 C299 0.950 . S
C293 C291 1.387 . S
C293 C295 1.390 1_655 S
C293 H297 0.950 . S
H294 C290 0.950 . S
C295 C293 1.390 1_455 S
C295 C296 1.387 . S
C295 H298 0.950 . S
C296 C295 1.387 . S
C296 C299 1.387 . S
H297 C293 0.950 . S
H298 C295 0.950 . S
C299 C290 1.390 1_455 S
C299 H292 0.950 . S
C299 C296 1.387 . S
C300 C301 1.387 . S
C300 H304 0.950 . S
C300 C309 1.390 . S
C301 C300 1.387 . S
C301 C303 1.387 . S
H302 C309 0.950 . S
C303 C301 1.387 . S
C303 C305 1.390 . S
C303 H307 0.950 . S
H304 C300 0.950 . S
C305 C303 1.390 . S
C305 C306 1.387 . S
C305 H308 0.950 . S
C306 C305 1.387 . S
C306 C309 1.387 . S
H307 C303 0.950 . S
H308 C305 0.950 . S
C309 C300 1.390 . S
C309 H302 0.950 . S
C309 C306 1.387 . S
C310 C311 1.387 . S
C310 H314 0.950 . S
C310 C319 1.390 . S
C311 C310 1.387 . S
C311 C313 1.387 . S
H312 C319 0.950 . S
C313 C311 1.387 . S
C313 C315 1.390 . S
C313 H317 0.950 . S
H314 C310 0.950 . S
C315 C313 1.390 . S
C315 C316 1.387 . S
C315 H318 0.950 . S
C316 C315 1.387 . S
C316 C319 1.387 . S
H317 C313 0.950 . S
H318 C315 0.950 . S
C319 C310 1.390 . S
C319 H312 0.950 . S
C319 C316 1.387 . S
C320 C321 1.387 . S
C320 H324 0.950 . S
C320 C329 1.390 . S
C321 C320 1.387 . S
C321 C323 1.387 . S
H322 C329 0.950 . S
C323 C321 1.387 . S
C323 C325 1.390 . S
C323 H327 0.950 . S
H324 C320 0.950 . S
C325 C323 1.390 . S
C325 C326 1.387 . S
C325 H328 0.950 . S
C326 C325 1.387 . S
C326 C329 1.387 . S
H327 C323 0.950 . S
H328 C325 0.950 . S
C329 C320 1.390 . S
C329 H322 0.950 . S
C329 C326 1.387 . S
C330 C331 1.387 . S
C330 H334 0.950 . S
C330 C339 1.390 . S
C331 C330 1.387 . S
C331 C333 1.387 . S
H332 C339 0.950 . S
C333 C331 1.387 . S
C333 C335 1.390 . S
C333 H337 0.950 . S
H334 C330 0.950 . S
C335 C333 1.390 . S
C335 C336 1.387 . S
C335 H338 0.950 . S
C336 C335 1.387 . S
C336 C339 1.387 . S
H337 C333 0.950 . S
H338 C335 0.950 . S
C339 C330 1.390 . S
C339 H332 0.950 . S
C339 C336 1.387 . S
C340 C341 1.387 . S
C340 H344 0.950 . S
C340 C349 1.390 . S
C341 C340 1.387 . S
C341 C343 1.387 . S
H342 C349 0.950 . S
C343 C341 1.387 . S
C343 C345 1.390 . S
C343 H347 0.950 . S
H344 C340 0.950 . S
C345 C343 1.390 . S
C345 C346 1.387 . S
C345 H348 0.950 . S
C346 C345 1.387 . S
C346 C349 1.387 . S
H347 C343 0.950 . S
H348 C345 0.950 . S
C349 C340 1.390 . S
C349 H342 0.950 . S
C349 C346 1.387 . S
C350 C351 1.387 . S
C350 H354 0.950 . S
C350 C359 1.390 . S
C351 C350 1.387 . S
C351 C353 1.387 . S
H352 C359 0.950 . S
C353 C351 1.387 . S
C353 C355 1.390 . S
C353 H357 0.950 . S
H354 C350 0.950 . S
C355 C353 1.390 . S
C355 C356 1.387 . S
C355 H358 0.950 . S
C356 C355 1.387 . S
C356 C359 1.387 . S
H357 C353 0.950 . S
H358 C355 0.950 . S
C359 C350 1.390 . S
C359 H352 0.950 . S
C359 C356 1.387 . S
C360 C361 1.387 . S
C360 H364 0.950 . S
C360 C369 1.390 . S
C361 C360 1.387 . S
C361 C363 1.387 . S
H362 C369 0.950 . S
C363 C361 1.387 . S
C363 C365 1.390 . S
C363 H367 0.950 . S
H364 C360 0.950 . S
C365 C363 1.390 . S
C365 C366 1.387 . S
C365 H368 0.950 . S
C366 C365 1.387 . S
C366 C369 1.387 . S
H367 C363 0.950 . S
H368 C365 0.950 . S
C369 C360 1.390 . S
C369 H362 0.950 . S
C369 C366 1.387 . S
C370 C371 1.387 . S
C370 H374 0.950 . S
C370 C379 1.390 . S
C371 C370 1.387 . S
C371 C373 1.387 . S
H372 C379 0.950 . S
C373 C371 1.387 . S
C373 C375 1.390 . S
C373 H377 0.950 . S
H374 C370 0.950 . S
C375 C373 1.390 . S
C375 C376 1.387 1_655 S
C375 H378 0.950 1_655 S
C376 C375 1.387 1_455 S
C376 C379 1.387 1_455 S
H377 C373 0.950 . S
H378 C375 0.950 1_455 S
C379 C370 1.390 . S
C379 H372 0.950 . S
C379 C376 1.387 1_655 S
C380 C381 1.387 . S
C380 H384 0.950 . S
C380 C389 1.390 . S
C381 C380 1.387 . S
C381 C383 1.387 . S
H382 C389 0.950 . S
C383 C381 1.387 . S
C383 C385 1.390 . S
C383 H387 0.950 . S
H384 C380 0.950 . S
C385 C383 1.390 . S
C385 C386 1.387 1_545 S
C385 H388 0.950 1_545 S
C386 C385 1.387 1_565 S
C386 C389 1.387 1_565 S
H387 C383 0.950 . S
H388 C385 0.950 1_565 S
C389 C380 1.390 . S
C389 H382 0.950 . S
C389 C386 1.387 1_545 S
C390 C391 1.387 1_565 S
C390 H394 0.950 . S
C390 C399 1.390 . S
C391 C390 1.387 1_545 S
C391 C393 1.387 . S
H392 C399 0.950 . S
C393 C391 1.387 . S
C393 C395 1.390 . S
C393 H397 0.950 . S
H394 C390 0.950 . S
C395 C393 1.390 . S
C395 C396 1.387 . S
C395 H398 0.950 . S
C396 C395 1.387 . S
C396 C399 1.387 1_545 S
H397 C393 0.950 . S
H398 C395 0.950 . S
C399 C390 1.390 . S
C399 H392 0.950 . S
C399 C396 1.387 1_565 S
C400 C401 1.387 . S
C400 H404 0.950 . S
C400 C409 1.390 . S
C401 C400 1.387 . S
C401 C403 1.387 . S
H402 C409 0.950 . S
C403 C401 1.387 . S
C403 C405 1.390 . S
C403 H407 0.950 . S
H404 C400 0.950 . S
C405 C403 1.390 . S
C405 C406 1.387 . S
C405 H408 0.950 . S
C406 C405 1.387 . S
C406 C409 1.387 . S
H407 C403 0.950 . S
H408 C405 0.950 . S
C409 C400 1.390 . S
C409 H402 0.950 . S
C409 C406 1.387 . S
C410 C411 1.387 . S
C410 H414 0.950 . S
C410 C419 1.390 . S
C411 C410 1.387 . S
C411 C413 1.387 . S
H412 C419 0.950 . S
C413 C411 1.387 . S
C413 C415 1.390 . S
C413 H417 0.950 . S
H414 C410 0.950 . S
C415 C413 1.390 . S
C415 C416 1.387 . S
C415 H418 0.950 . S
C416 C415 1.387 . S
C416 C419 1.387 . S
H417 C413 0.950 . S
H418 C415 0.950 . S
C419 C410 1.390 . S
C419 H412 0.950 . S
C419 C416 1.387 . S
C241 C178 2.701 . S
C246 C9 2.241 . S
C251 C209 2.272 . S
C256 C58 2.709 . S
C261 C89 2.243 . S
C266 C138 2.703 . S
C271 C18 2.708 . S
C276 C169 2.270 . S
C281 C218 2.702 . S
C286 C49 2.241 . S
C291 C98 2.709 . S
C296 C129 2.271 . S
C301 C19 2.144 . S
C306 C95 2.049 . S
C311 C59 2.144 . S
C316 C15 2.049 . S
C321 C99 2.147 . S
C326 C55 2.053 . S
C331 C126 1.950 . S
C336 C170 1.883 . S
C341 C166 1.952 . S
C346 C210 1.887 . S
C351 C130 1.886 . S
C356 C206 1.952 . S
C361 C10 1.287 . S
C366 C86 1.339 . S
C371 C50 1.287 . S
C376 C6 1.339 . S
C381 C90 1.287 . S
C386 C46 1.339 . S
C391 C135 1.455 . S
C396 C179 1.549 1_545 S
C401 C175 1.455 . S
C406 C219 1.548 . S
C411 C139 1.552 1_655 S
C416 C215 1.460 . S
