# Generated by pormake.
# Topology vba, (4)-cn, num edge types: 1
# Building blocks:
#     Node 0, Type 0, BuildingBlock: NAWXER_clean_sbu_0, # of connection points: 4
#     Node 1, Type 0, BuildingBlock: NAWXER_clean_sbu_0, # of connection points: 4
#     Node 2, Type 0, BuildingBlock: NAWXER_clean_sbu_0, # of connection points: 4
#     Node 3, Type 0, BuildingBlock: NAWXER_clean_sbu_0, # of connection points: 4
#     Node 4, Type 0, BuildingBlock: NAWXER_clean_sbu_0, # of connection points: 4
#     Node 5, Type 0, BuildingBlock: NAWXER_clean_sbu_0, # of connection points: 4
#     Node 6, Type 0, BuildingBlock: NAWXER_clean_sbu_0, # of connection points: 4
#     Node 7, Type 0, BuildingBlock: NAWXER_clean_sbu_0, # of connection points: 4
#     Node 8, Type 0, BuildingBlock: NAWXER_clean_sbu_0, # of connection points: 4
#     Node 9, Type 0, BuildingBlock: NAWXER_clean_sbu_0, # of connection points: 4
#     Node 10, Type 0, BuildingBlock: NAWXER_clean_sbu_0, # of connection points: 4
#     Node 11, Type 0, BuildingBlock: NAWXER_clean_sbu_0, # of connection points: 4
#     Node 12, Type 0, BuildingBlock: NAWXER_clean_sbu_0, # of connection points: 4
#     Node 13, Type 0, BuildingBlock: NAWXER_clean_sbu_0, # of connection points: 4
#     Node 14, Type 0, BuildingBlock: NAWXER_clean_sbu_0, # of connection points: 4
#     Node 15, Type 0, BuildingBlock: NAWXER_clean_sbu_0, # of connection points: 4
#     Node 16, Type 0, BuildingBlock: NAWXER_clean_sbu_0, # of connection points: 4
#     Node 17, Type 0, BuildingBlock: NAWXER_clean_sbu_0, # of connection points: 4
#     Node 18, Type 0, BuildingBlock: NAWXER_clean_sbu_0, # of connection points: 4
#     Node 19, Type 0, BuildingBlock: NAWXER_clean_sbu_0, # of connection points: 4
#     Node 20, Type 0, BuildingBlock: NAWXER_clean_sbu_0, # of connection points: 4
#     Node 21, Type 0, BuildingBlock: NAWXER_clean_sbu_0, # of connection points: 4
#     Node 22, Type 0, BuildingBlock: NAWXER_clean_sbu_0, # of connection points: 4
#     Node 23, Type 0, BuildingBlock: NAWXER_clean_sbu_0, # of connection points: 4
#     Node 24, Type 0, BuildingBlock: NAWXER_clean_sbu_0, # of connection points: 4
#     Node 25, Type 0, BuildingBlock: NAWXER_clean_sbu_0, # of connection points: 4
#     Node 26, Type 0, BuildingBlock: NAWXER_clean_sbu_0, # of connection points: 4
#     Node 27, Type 0, BuildingBlock: NAWXER_clean_sbu_0, # of connection points: 4
#     Node 28, Type 0, BuildingBlock: NAWXER_clean_sbu_0, # of connection points: 4
#     Node 29, Type 0, BuildingBlock: NAWXER_clean_sbu_0, # of connection points: 4
#     Node 30, Type 0, BuildingBlock: NAWXER_clean_sbu_0, # of connection points: 4
#     Node 31, Type 0, BuildingBlock: NAWXER_clean_sbu_0, # of connection points: 4
#     Edge 32, Type (0, 0), BuildingBlock: OJICUG_clean_linker_0, # of connection points: 2
#     Edge 33, Type (0, 0), BuildingBlock: OJICUG_clean_linker_0, # of connection points: 2
#     Edge 34, Type (0, 0), BuildingBlock: OJICUG_clean_linker_0, # of connection points: 2
#     Edge 35, Type (0, 0), BuildingBlock: OJICUG_clean_linker_0, # of connection points: 2
#     Edge 36, Type (0, 0), BuildingBlock: OJICUG_clean_linker_0, # of connection points: 2
#     Edge 37, Type (0, 0), BuildingBlock: OJICUG_clean_linker_0, # of connection points: 2
#     Edge 38, Type (0, 0), BuildingBlock: OJICUG_clean_linker_0, # of connection points: 2
#     Edge 39, Type (0, 0), BuildingBlock: OJICUG_clean_linker_0, # of connection points: 2
#     Edge 40, Type (0, 0), BuildingBlock: OJICUG_clean_linker_0, # of connection points: 2
#     Edge 41, Type (0, 0), BuildingBlock: OJICUG_clean_linker_0, # of connection points: 2
#     Edge 42, Type (0, 0), BuildingBlock: OJICUG_clean_linker_0, # of connection points: 2
#     Edge 43, Type (0, 0), BuildingBlock: OJICUG_clean_linker_0, # of connection points: 2
#     Edge 44, Type (0, 0), BuildingBlock: OJICUG_clean_linker_0, # of connection points: 2
#     Edge 45, Type (0, 0), BuildingBlock: OJICUG_clean_linker_0, # of connection points: 2
#     Edge 46, Type (0, 0), BuildingBlock: OJICUG_clean_linker_0, # of connection points: 2
#     Edge 47, Type (0, 0), BuildingBlock: OJICUG_clean_linker_0, # of connection points: 2
#     Edge 48, Type (0, 0), BuildingBlock: OJICUG_clean_linker_0, # of connection points: 2
#     Edge 49, Type (0, 0), BuildingBlock: OJICUG_clean_linker_0, # of connection points: 2
#     Edge 50, Type (0, 0), BuildingBlock: OJICUG_clean_linker_0, # of connection points: 2
#     Edge 51, Type (0, 0), BuildingBlock: OJICUG_clean_linker_0, # of connection points: 2
#     Edge 52, Type (0, 0), BuildingBlock: OJICUG_clean_linker_0, # of connection points: 2
#     Edge 53, Type (0, 0), BuildingBlock: OJICUG_clean_linker_0, # of connection points: 2
#     Edge 54, Type (0, 0), BuildingBlock: OJICUG_clean_linker_0, # of connection points: 2
#     Edge 55, Type (0, 0), BuildingBlock: OJICUG_clean_linker_0, # of connection points: 2
#     Edge 56, Type (0, 0), BuildingBlock: OJICUG_clean_linker_0, # of connection points: 2
#     Edge 57, Type (0, 0), BuildingBlock: OJICUG_clean_linker_0, # of connection points: 2
#     Edge 58, Type (0, 0), BuildingBlock: OJICUG_clean_linker_0, # of connection points: 2
#     Edge 59, Type (0, 0), BuildingBlock: OJICUG_clean_linker_0, # of connection points: 2
#     Edge 60, Type (0, 0), BuildingBlock: OJICUG_clean_linker_0, # of connection points: 2
#     Edge 61, Type (0, 0), BuildingBlock: OJICUG_clean_linker_0, # of connection points: 2
#     Edge 62, Type (0, 0), BuildingBlock: OJICUG_clean_linker_0, # of connection points: 2
#     Edge 63, Type (0, 0), BuildingBlock: OJICUG_clean_linker_0, # of connection points: 2
#     Edge 64, Type (0, 0), BuildingBlock: OJICUG_clean_linker_0, # of connection points: 2
#     Edge 65, Type (0, 0), BuildingBlock: OJICUG_clean_linker_0, # of connection points: 2
#     Edge 66, Type (0, 0), BuildingBlock: OJICUG_clean_linker_0, # of connection points: 2
#     Edge 67, Type (0, 0), BuildingBlock: OJICUG_clean_linker_0, # of connection points: 2
#     Edge 68, Type (0, 0), BuildingBlock: OJICUG_clean_linker_0, # of connection points: 2
#     Edge 69, Type (0, 0), BuildingBlock: OJICUG_clean_linker_0, # of connection points: 2
#     Edge 70, Type (0, 0), BuildingBlock: OJICUG_clean_linker_0, # of connection points: 2
#     Edge 71, Type (0, 0), BuildingBlock: OJICUG_clean_linker_0, # of connection points: 2
#     Edge 72, Type (0, 0), BuildingBlock: OJICUG_clean_linker_0, # of connection points: 2
#     Edge 73, Type (0, 0), BuildingBlock: OJICUG_clean_linker_0, # of connection points: 2
#     Edge 74, Type (0, 0), BuildingBlock: OJICUG_clean_linker_0, # of connection points: 2
#     Edge 75, Type (0, 0), BuildingBlock: OJICUG_clean_linker_0, # of connection points: 2
#     Edge 76, Type (0, 0), BuildingBlock: OJICUG_clean_linker_0, # of connection points: 2
#     Edge 77, Type (0, 0), BuildingBlock: OJICUG_clean_linker_0, # of connection points: 2
#     Edge 78, Type (0, 0), BuildingBlock: OJICUG_clean_linker_0, # of connection points: 2
#     Edge 79, Type (0, 0), BuildingBlock: OJICUG_clean_linker_0, # of connection points: 2
#     Edge 80, Type (0, 0), BuildingBlock: OJICUG_clean_linker_0, # of connection points: 2
#     Edge 81, Type (0, 0), BuildingBlock: OJICUG_clean_linker_0, # of connection points: 2
#     Edge 82, Type (0, 0), BuildingBlock: OJICUG_clean_linker_0, # of connection points: 2
#     Edge 83, Type (0, 0), BuildingBlock: OJICUG_clean_linker_0, # of connection points: 2
#     Edge 84, Type (0, 0), BuildingBlock: OJICUG_clean_linker_0, # of connection points: 2
#     Edge 85, Type (0, 0), BuildingBlock: OJICUG_clean_linker_0, # of connection points: 2
#     Edge 86, Type (0, 0), BuildingBlock: OJICUG_clean_linker_0, # of connection points: 2
#     Edge 87, Type (0, 0), BuildingBlock: OJICUG_clean_linker_0, # of connection points: 2
#     Edge 88, Type (0, 0), BuildingBlock: OJICUG_clean_linker_0, # of connection points: 2
#     Edge 89, Type (0, 0), BuildingBlock: OJICUG_clean_linker_0, # of connection points: 2
#     Edge 90, Type (0, 0), BuildingBlock: OJICUG_clean_linker_0, # of connection points: 2
#     Edge 91, Type (0, 0), BuildingBlock: OJICUG_clean_linker_0, # of connection points: 2
#     Edge 92, Type (0, 0), BuildingBlock: OJICUG_clean_linker_0, # of connection points: 2
#     Edge 93, Type (0, 0), BuildingBlock: OJICUG_clean_linker_0, # of connection points: 2
#     Edge 94, Type (0, 0), BuildingBlock: OJICUG_clean_linker_0, # of connection points: 2
#     Edge 95, Type (0, 0), BuildingBlock: OJICUG_clean_linker_0, # of connection points: 2
# Relax obj value: 0.002
# Max RMSD: 0.073
# Mean RMSD: 0.072
data_MOF--net-vba--node1-NAWXER_clean_sbu_0--edge1-OJICUG_clean_linker_0
_symmetry_space_group_name_H-M    P1
_symmetry_Int_Tables_number       1
_symmetry_cell_setting            triclinic
loop_
_symmetry_equiv_pos_as_xyz
'x, y, z'
_cell_length_a     12.540013
_cell_length_b     77.072379
_cell_length_c     40.551704
_cell_angle_alpha  89.989029
_cell_angle_beta   89.997881
_cell_angle_gamma 90.011173
loop_
_atom_site_label
_atom_site_type_symbol
_atom_site_fract_x
_atom_site_fract_y
_atom_site_fract_z
_atom_type_partial_charge
C0 C 0.40196 0.0461 0.02608 0.0
C1 C 0.22349 0.10379 0.03103 0.0
O2 O 0.3044 0.04741 0.01803 0.0
Zn3 Zn 0.17906 0.06442 1.01208 0.0
O4 O 0.45459 0.05966 0.03454 0.0
Zn5 Zn 0.33421 0.07627 0.0295 0.0
O6 O 0.23886 0.06625 0.06659 0.0
O7 O 0.08869 0.0548 0.04821 0.0
O8 O 0.32247 0.10167 0.03735 0.0
O9 O 0.16802 0.09085 0.02153 0.0
O10 O 0.17075 0.06265 0.96288 0.0
O11 O 0.32323 0.0741 0.97895 0.0
C12 C 0.15194 0.05822 0.07214 0.0
C13 C 0.26357 0.06851 0.95591 0.0
C14 C 0.8248 0.22767 0.02546 0.0
C15 C 0.00353 0.17001 0.03051 0.0
O16 O 0.92225 0.22636 0.01728 0.0
Zn17 Zn 0.0476 0.20935 1.01126 0.0
O18 O 0.77234 0.21411 0.03402 0.0
Zn19 Zn 0.89268 0.19751 0.02883 0.0
O20 O -0.01173 0.20758 0.06578 0.0
O21 O 0.13826 0.21903 0.04726 0.0
O22 O 0.90457 0.17213 0.03686 0.0
O23 O 0.05891 0.18293 0.02087 0.0
O24 O 0.05551 0.21109 0.96207 0.0
O25 O 0.90312 0.19965 0.97823 0.0
C26 C 0.07516 0.21563 0.07124 0.0
C27 C 0.96265 0.20523 0.95516 0.0
C28 C 0.15289 0.21568 0.20965 0.0
C29 C 0.26396 0.20545 0.32593 0.0
O30 O 0.23958 0.2076 0.21525 0.0
Zn31 Zn 0.33458 0.19756 0.25239 0.0
O32 O 0.08961 0.21915 0.23354 0.0
Zn33 Zn 0.1796 0.2095 0.26973 0.0
O34 O 0.3053 0.22643 0.26373 0.0
O35 O 0.45533 0.21412 0.2473 0.0
O36 O 0.17126 0.21134 0.31891 0.0
O37 O 0.32355 0.1998 0.30294 0.0
O38 O 0.32227 0.17216 0.2446 0.0
O39 O 0.16798 0.18307 0.26034 0.0
C40 C 0.40289 0.2277 0.2557 0.0
C41 C 0.22322 0.1701 0.25089 0.0
C42 C 0.00195 0.10397 0.2512 0.0
C43 C 0.82233 0.04637 0.25618 0.0
O44 O 0.05706 0.09103 0.26086 0.0
Zn45 Zn 0.04532 0.06461 0.27047 0.0
O46 O 0.90299 0.10188 0.2448 0.0
Zn47 Zn 0.89065 0.07651 0.25282 0.0
O48 O 0.90084 0.07437 0.30343 0.0
O49 O 0.05299 0.06288 0.31966 0.0
O50 O 0.7701 0.05994 0.24757 0.0
O51 O 0.91975 0.04765 0.26441 0.0
O52 O 0.13603 0.0549 0.23452 0.0
O53 O 0.98632 0.0664 0.21591 0.0
C54 C 0.9602 0.06878 0.32653 0.0
C55 C 0.07313 0.05833 0.2105 0.0
C56 C 0.7106 0.95522 0.07583 0.0
C57 C 0.82317 0.96556 0.95973 0.0
O58 O 0.80345 0.96109 0.06893 0.0
Zn59 Zn 0.79561 0.95932 0.01973 0.0
O60 O 0.65117 0.94962 0.05276 0.0
Zn61 Zn 0.64068 0.94746 1.00218 0.0
O62 O 0.65266 0.92207 0.99426 0.0
O63 O 0.80694 0.9329 1.01022 0.0
O64 O 0.73627 0.95752 0.9652 0.0
O65 O 0.88623 0.96898 0.98371 0.0
O66 O 0.67023 0.97631 1.01368 0.0
O67 O 0.52024 0.96405 0.99704 0.0
C68 C 0.75161 0.91996 1.00064 0.0
C69 C 0.57275 0.97761 1.00554 0.0
C70 C 0.90043 0.80816 0.95986 0.0
C71 C 0.01215 0.81856 0.07604 0.0
O72 O 0.83718 0.80476 0.98381 0.0
Zn73 Zn 0.92758 0.81442 0.01989 0.0
O74 O -0.01268 0.8162 0.96538 0.0
Zn75 Zn 0.08268 0.82626 1.00241 0.0
O76 O 0.20303 0.80965 0.99735 0.0
O77 O 0.05294 0.79741 1.01396 0.0
O78 O 0.07181 0.82413 0.05299 0.0
O79 O 0.91935 0.81269 0.06909 0.0
O80 O 0.91643 0.84083 1.01031 0.0
O81 O 0.07084 0.85164 0.99442 0.0
C82 C 0.15046 0.79609 1.00587 0.0
C83 C 0.97185 0.85376 1.00073 0.0
C84 C 0.82267 0.80824 0.82145 0.0
C85 C 0.71108 0.81864 0.70527 0.0
O86 O 0.88585 0.8048 0.79751 0.0
Zn87 Zn 0.79564 0.8145 0.76142 0.0
O88 O 0.73595 0.81632 0.81593 0.0
Zn89 Zn 0.64078 0.82641 0.77889 0.0
O90 O 0.52009 0.80986 0.78399 0.0
O91 O 0.66992 0.79755 0.76737 0.0
O92 O 0.65155 0.82425 0.72832 0.0
O93 O 0.80382 0.81275 0.71222 0.0
O94 O 0.8073 0.84092 0.77092 0.0
O95 O 0.65308 0.85179 0.7868 0.0
C96 C 0.57238 0.79628 0.77547 0.0
C97 C 0.75209 0.85388 0.78047 0.0
C98 C 0.15216 0.97768 0.77554 0.0
C99 C 0.97301 0.92003 0.78032 0.0
O100 O 0.20459 0.9641 0.78402 0.0
Zn101 Zn 0.0841 0.94752 0.77878 0.0
O102 O 0.05468 0.97639 0.7674 0.0
Zn103 Zn 0.9292 0.95941 0.76133 0.0
O104 O 0.83874 0.96905 0.7974 0.0
O105 O -0.01135 0.95754 0.81583 0.0
O106 O 0.91773 0.93298 0.77078 0.0
O107 O 0.072 0.92213 0.78665 0.0
O108 O 0.07349 0.94974 0.7282 0.0
O109 O 0.92115 0.96124 0.71215 0.0
C110 C 0.90183 0.9656 0.82135 0.0
C111 C 0.01394 0.95537 0.70517 0.0
C112 C 0.15016 0.55858 0.57099 0.0
C113 C 0.2648 0.56897 0.4551 0.0
O114 O 0.23705 0.56666 0.56569 0.0
Zn115 Zn 0.33326 0.57676 0.52888 0.0
O116 O 0.08756 0.55515 0.54691 0.0
Zn117 Zn 0.17881 0.56486 0.51107 0.0
O118 O 0.30423 0.5479 0.51736 0.0
O119 O 0.45371 0.56019 0.53435 0.0
O120 O 0.17192 0.56308 0.46189 0.0
O121 O 0.32382 0.5746 0.47826 0.0
O122 O 0.32084 0.60213 0.53686 0.0
O123 O 0.16696 0.59127 0.52062 0.0
C124 C 0.40152 0.54661 0.52572 0.0
C125 C 0.22197 0.60422 0.53034 0.0
C126 C 0.0009 0.67034 0.53038 0.0
C127 C 0.82179 0.72798 0.52523 0.0
O128 O 0.05623 0.68329 0.52083 0.0
Zn129 Zn 0.04486 0.7097 0.51126 0.0
O130 O 0.90187 0.67244 0.53666 0.0
Zn131 Zn 0.88981 0.69782 0.5287 0.0
O132 O 0.90078 0.69997 0.47813 0.0
O133 O 0.0532 0.71144 0.46206 0.0
O134 O 0.76931 0.71441 0.53375 0.0
O135 O 0.91934 0.72668 0.51716 0.0
O136 O 0.13508 0.71938 0.54737 0.0
O137 O 0.98501 0.7079 0.56575 0.0
C138 C 0.96044 0.70555 0.45509 0.0
C139 C 0.07181 0.71596 0.57129 0.0
C140 C 0.26112 0.70542 0.82585 0.0
C141 C 0.1494 0.71587 0.7097 0.0
O142 O 0.32065 0.69982 0.80279 0.0
Zn143 Zn 0.33136 0.69768 0.75222 0.0
O144 O 0.16837 0.71131 0.81892 0.0
Zn145 Zn 0.17652 0.70958 0.76972 0.0
O146 O 0.16488 0.68316 0.76016 0.0
O147 O 0.31911 0.67231 0.74425 0.0
O148 O 0.08624 0.71929 0.73365 0.0
O149 O 0.23614 0.70779 0.71521 0.0
O150 O 0.45203 0.71424 0.74712 0.0
O151 O 0.3022 0.72654 0.76378 0.0
C152 C 0.22011 0.67021 0.75058 0.0
C153 C 0.39973 0.72782 0.75567 0.0
C154 C -0.00044 0.60402 0.75051 0.0
C155 C 0.82082 0.54635 0.75543 0.0
O156 O 0.05499 0.59108 0.75997 0.0
Zn157 Zn 0.04382 0.56464 0.76939 0.0
O158 O 0.90053 0.60192 0.74423 0.0
Zn159 Zn 0.88867 0.57652 0.75206 0.0
O160 O 0.89981 0.5743 0.80262 0.0
O161 O 0.05228 0.56282 0.81858 0.0
O162 O 0.76816 0.55991 0.74703 0.0
O163 O 0.91841 0.54765 0.76343 0.0
O164 O 0.134 0.55504 0.73324 0.0
O165 O 0.98385 0.56651 0.71491 0.0
C166 C 0.95952 0.56868 0.82561 0.0
C167 C 0.07072 0.55849 0.70932 0.0
C168 C 0.8244 0.46599 0.46114 0.0
C169 C 0.71064 0.45553 0.57711 0.0
O170 O 0.88726 0.46939 0.48519 0.0
Zn171 Zn 0.79614 0.45972 0.52109 0.0
O172 O 0.73739 0.45796 0.46651 0.0
Zn173 Zn 0.64134 0.44788 0.50336 0.0
O174 O 0.52113 0.4645 0.49808 0.0
O175 O 0.6709 0.47673 0.51499 0.0
O176 O 0.65133 0.44998 0.55396 0.0
O177 O 0.80356 0.4614 0.57029 0.0
O178 O 0.80748 0.43331 0.51143 0.0
O179 O 0.65334 0.42251 0.49529 0.0
C180 C 0.57353 0.47805 0.50673 0.0
C181 C 0.75225 0.42039 0.50172 0.0
C182 C 0.01497 0.31897 0.57651 0.0
C183 C 0.90248 0.30862 0.46042 0.0
O184 O 0.9222 0.31307 0.5696 0.0
Zn185 Zn 0.92993 0.31488 0.52042 0.0
O186 O 0.07433 0.32461 0.55345 0.0
Zn187 Zn 0.08467 0.32681 0.50286 0.0
O188 O 0.07225 0.35219 0.49496 0.0
O189 O 0.91813 0.3413 0.51093 0.0
O190 O -0.0108 0.31672 0.46588 0.0
O191 O 0.83949 0.30517 0.4844 0.0
O192 O 0.05557 0.29795 0.51432 0.0
O193 O 0.20533 0.31025 0.49761 0.0
C194 C 0.97327 0.35426 0.50135 0.0
C195 C 0.15302 0.29667 0.50613 0.0
C196 C 0.75285 0.35386 0.28106 0.0
C197 C 0.57412 0.29618 0.27606 0.0
O198 O 0.65384 0.35174 0.28735 0.0
Zn199 Zn 0.64199 0.32635 0.27942 0.0
O200 O 0.80826 0.34092 0.27151 0.0
Zn201 Zn 0.79704 0.3145 0.262 0.0
O202 O 0.80531 0.31272 0.21281 0.0
O203 O 0.65286 0.32417 0.22886 0.0
O204 O 0.67166 0.29749 0.26799 0.0
O205 O 0.52156 0.30975 0.28452 0.0
O206 O 0.73734 0.31632 0.31649 0.0
O207 O 0.88747 0.30487 0.2981 0.0
C208 C 0.71249 0.31857 0.20583 0.0
C209 C 0.82424 0.3083 0.32203 0.0
C210 C 0.90304 0.46567 0.32278 0.0
C211 C 0.01379 0.45536 0.2065 0.0
O212 O 0.83976 0.46913 0.29887 0.0
Zn213 Zn 0.92965 0.45945 0.26271 0.0
O214 O -0.01029 0.45759 0.31719 0.0
Zn215 Zn 0.08462 0.44752 0.28005 0.0
O216 O 0.20543 0.46407 0.28506 0.0
O217 O 0.0554 0.47639 0.26861 0.0
O218 O 0.07346 0.44973 0.22949 0.0
O219 O 0.92112 0.46126 0.21352 0.0
O220 O 0.91806 0.43302 0.27212 0.0
O221 O 0.07239 0.42213 0.28787 0.0
C222 C 0.15302 0.47765 0.27663 0.0
C223 C 0.97335 0.42005 0.28158 0.0
C224 C 0.65156 0.05856 0.57212 0.0
C225 C 0.76237 0.06884 0.45583 0.0
O226 O 0.73831 0.06662 0.56651 0.0
Zn227 Zn 0.83329 0.07667 0.52936 0.0
O228 O 0.58817 0.05512 0.54823 0.0
Zn229 Zn 0.67814 0.06478 0.51204 0.0
O230 O 0.80366 0.04781 0.51797 0.0
O231 O 0.95385 0.06008 0.53439 0.0
O232 O 0.66961 0.06297 0.46285 0.0
O233 O 0.8221 0.07446 0.47881 0.0
O234 O 0.82136 0.10206 0.53719 0.0
O235 O 0.66688 0.09121 0.52147 0.0
C236 C 0.90125 0.04651 0.52598 0.0
C237 C 0.72233 0.10416 0.53092 0.0
C238 C 0.5025 0.1704 0.53054 0.0
C239 C 0.32446 0.22811 0.52553 0.0
O240 O 0.55796 0.18331 0.52089 0.0
Zn241 Zn 0.54699 0.20973 0.51128 0.0
O242 O 0.40358 0.17255 0.53692 0.0
Zn243 Zn 0.39198 0.19793 0.5289 0.0
O244 O 0.40235 0.20005 0.47831 0.0
O245 O 0.55481 0.21144 0.46208 0.0
O246 O 0.27189 0.21457 0.53411 0.0
O247 O 0.42189 0.22678 0.51733 0.0
O248 O 0.63796 0.21935 0.54726 0.0
O249 O 0.48786 0.20796 0.56583 0.0
C250 C 0.46188 0.2056 0.4552 0.0
C251 C 0.57492 0.21596 0.57126 0.0
C252 C 0.65346 0.21566 0.70964 0.0
C253 C 0.7648 0.20532 0.82587 0.0
O254 O 0.74015 0.20758 0.7152 0.0
Zn255 Zn 0.83526 0.1975 0.75228 0.0
O256 O 0.59026 0.21911 0.73357 0.0
Zn257 Zn 0.68033 0.20943 0.7697 0.0
O258 O 0.80603 0.22636 0.76373 0.0
O259 O 0.95599 0.21407 0.74719 0.0
O260 O 0.67209 0.21121 0.81889 0.0
O261 O 0.82436 0.19969 0.80285 0.0
O262 O 0.82293 0.17211 0.74444 0.0
O263 O 0.6687 0.183 0.76026 0.0
C264 C 0.90358 0.22764 0.75566 0.0
C265 C 0.7239 0.17004 0.75077 0.0
C266 C 0.32372 0.04625 0.75628 0.0
C267 C 0.50282 0.1039 0.75135 0.0
O268 O 0.42116 0.04756 0.76447 0.0
Zn269 Zn 0.54658 0.06454 0.77054 0.0
O270 O 0.27129 0.05982 0.74775 0.0
Zn271 Zn 0.39169 0.07642 0.75299 0.0
O272 O 0.48728 0.06636 0.71602 0.0
O273 O 0.63721 0.05489 0.73451 0.0
O274 O 0.40384 0.1018 0.745 0.0
O275 O 0.55806 0.09096 0.76097 0.0
O276 O 0.55438 0.06278 0.81973 0.0
O277 O 0.4021 0.07425 0.80357 0.0
C278 C 0.57413 0.05832 0.71054 0.0
C279 C 0.46155 0.06864 0.82664 0.0
C280 C 0.32148 0.96591 0.45944 0.0
C281 C 0.211 0.9556 0.57577 0.0
O282 O 0.38495 0.96934 0.48332 0.0
Zn283 Zn 0.29501 0.95971 0.51953 0.0
O284 O 0.23469 0.95787 0.46508 0.0
Zn285 Zn 0.13975 0.94783 0.50225 0.0
O286 O 0.01927 0.96443 0.49728 0.0
O287 O 0.16955 0.97669 0.51367 0.0
O288 O 0.15116 0.95001 0.55279 0.0
O289 O 0.30374 0.96147 0.56873 0.0
O290 O 0.30612 0.93328 0.51007 0.0
O291 O 0.15159 0.92244 0.49439 0.0
C292 C 0.07193 0.978 0.50569 0.0
C293 C 0.25064 0.92033 0.50062 0.0
C294 C 0.39943 0.80854 0.46004 0.0
C295 C 0.51261 0.81887 0.57608 0.0
O296 O 0.33651 0.80511 0.48405 0.0
Zn297 Zn 0.42732 0.81478 0.52001 0.0
O298 O 0.48631 0.8166 0.46546 0.0
Zn299 Zn 0.58208 0.82666 0.50239 0.0
O300 O 0.70251 0.81008 0.49709 0.0
O301 O 0.55273 0.7978 0.51387 0.0
O302 O 0.57195 0.82448 0.55298 0.0
O303 O 0.41976 0.81299 0.5692 0.0
O304 O 0.41579 0.8412 0.51049 0.0
O305 O 0.56995 0.85204 0.49443 0.0
C306 C 0.65014 0.79651 0.50564 0.0
C307 C 0.47102 0.85414 0.50085 0.0
C308 C 0.32093 0.80848 0.32165 0.0
C309 C 0.20951 0.81872 0.2054 0.0
O310 O 0.38421 0.80505 0.29774 0.0
Zn311 Zn 0.29396 0.81466 0.26159 0.0
O312 O 0.23407 0.81651 0.31608 0.0
Zn313 Zn 0.13879 0.82652 0.27896 0.0
O314 O 0.01839 0.8099 0.28406 0.0
O315 O 0.16861 0.79766 0.26758 0.0
O316 O 0.14981 0.82432 0.22841 0.0
O317 O 0.3023 0.81286 0.2124 0.0
O318 O 0.3051 0.84109 0.27103 0.0
O319 O 0.15065 0.85192 0.28681 0.0
C320 C 0.07106 0.79634 0.27563 0.0
C321 C 0.24967 0.85403 0.28052 0.0
C322 C 0.64967 0.97783 0.27528 0.0
C323 C 0.47028 0.92021 0.28034 0.0
O324 O 0.70195 0.96427 0.2839 0.0
Zn325 Zn 0.58147 0.94768 0.2787 0.0
O326 O 0.55224 0.97654 0.26707 0.0
Zn327 Zn 0.4267 0.95956 0.26105 0.0
O328 O 0.33605 0.96927 0.29703 0.0
O329 O 0.48587 0.95779 0.3156 0.0
O330 O 0.41509 0.93315 0.27068 0.0
O331 O 0.56923 0.92231 0.28674 0.0
O332 O 0.5712 0.9498 0.22811 0.0
O333 O 0.419 0.96126 0.21184 0.0
C334 C 0.39905 0.96586 0.32103 0.0
C335 C 0.51183 0.95538 0.20499 0.0
C336 C 0.76239 0.56849 0.955 0.0
C337 C 0.65089 0.55816 0.07122 0.0
O338 O 0.82202 0.5741 0.97802 0.0
Zn339 Zn 0.83284 0.57629 0.02859 0.0
O340 O 0.66963 0.56261 0.96198 0.0
Zn341 Zn 0.67787 0.56438 1.01117 0.0
O342 O 0.66638 0.59081 0.02066 0.0
O343 O 0.82069 0.60168 0.03648 0.0
O344 O 0.58764 0.55471 0.0473 0.0
O345 O 0.73763 0.56623 0.06566 0.0
O346 O 0.95335 0.55972 0.03378 0.0
O347 O 0.80345 0.54742 0.01717 0.0
C348 C 0.72167 0.60376 0.03018 0.0
C349 C 0.90096 0.54614 0.0253 0.0
C350 C 0.32169 0.72754 0.0255 0.0
C351 C 0.50084 0.66991 0.03021 0.0
O352 O 0.41912 0.72625 0.0173 0.0
Zn353 Zn 0.54456 0.70929 1.01116 0.0
O354 O 0.26927 0.71397 0.03401 0.0
Zn355 Zn 0.38973 0.69739 0.02873 0.0
O356 O 0.48539 0.70743 0.06571 0.0
O357 O 0.63522 0.71894 0.04718 0.0
O358 O 0.40189 0.672 0.03661 0.0
O359 O 0.55607 0.68286 0.02063 0.0
O360 O 0.55226 0.71109 0.96197 0.0
O361 O 0.40003 0.6996 0.97814 0.0
C362 C 0.57224 0.71549 0.07117 0.0
C363 C 0.45942 0.70522 0.95507 0.0
C364 C 0.76297 0.70536 0.32575 0.0
C365 C 0.65094 0.71558 0.20955 0.0
O366 O 0.82262 0.69977 0.30272 0.0
Zn367 Zn 0.83344 0.69758 0.25215 0.0
O368 O 0.67011 0.7112 0.31878 0.0
Zn369 Zn 0.67827 0.7094 0.26959 0.0
O370 O 0.66733 0.68297 0.26014 0.0
O371 O 0.82182 0.67219 0.24428 0.0
O372 O 0.58773 0.719 0.23349 0.0
O373 O 0.73792 0.70757 0.21509 0.0
O374 O 0.95367 0.71423 0.24702 0.0
O375 O 0.80345 0.72644 0.26356 0.0
C376 C 0.72285 0.67005 0.25061 0.0
C377 C 0.90096 0.72777 0.25546 0.0
C378 C 0.50319 0.60378 0.25064 0.0
C379 C 0.32455 0.54611 0.25601 0.0
O380 O 0.55871 0.59086 0.26016 0.0
Zn381 Zn 0.54766 0.56444 0.26975 0.0
O382 O 0.40415 0.60165 0.2444 0.0
Zn383 Zn 0.39239 0.57627 0.25238 0.0
O384 O 0.40376 0.57415 0.30292 0.0
O385 O 0.55637 0.56274 0.31897 0.0
O386 O 0.27194 0.55966 0.24751 0.0
O387 O 0.42218 0.54742 0.26398 0.0
O388 O 0.63764 0.55477 0.23357 0.0
O389 O 0.48733 0.5662 0.21529 0.0
C390 C 0.46357 0.5686 0.32595 0.0
C391 C 0.57415 0.55817 0.20969 0.0
C392 C 0.21126 0.45526 0.07716 0.0
C393 C 0.3236 0.46558 0.96102 0.0
O394 O 0.30405 0.46114 0.07021 0.0
Zn395 Zn 0.29617 0.45934 0.02103 0.0
O396 O 0.15179 0.44963 0.05411 0.0
Zn397 Zn 0.14141 0.44742 1.00352 0.0
O398 O 0.15371 0.42204 0.9956 0.0
O399 O 0.30789 0.43292 1.01152 0.0
O400 O 0.23686 0.45749 0.96652 0.0
O401 O 0.38665 0.46903 0.98499 0.0
O402 O 0.17057 0.47629 1.01492 0.0
O403 O 0.02085 0.46398 0.99821 0.0
C404 C 0.25271 0.41996 1.00194 0.0
C405 C 0.07314 0.47756 1.00671 0.0
C406 C 0.51486 0.3185 0.07652 0.0
C407 C 0.40301 0.30827 0.96031 0.0
O408 O 0.4221 0.31262 0.06955 0.0
Zn409 Zn 0.43017 0.31444 0.02037 0.0
O410 O 0.57439 0.32414 0.05349 0.0
Zn411 Zn 0.58508 0.32638 1.00293 0.0
O412 O 0.57284 0.35177 0.99513 0.0
O413 O 0.41862 0.34087 1.01098 0.0
O414 O 0.48976 0.31634 0.96585 0.0
O415 O 0.33987 0.3048 0.98424 0.0
O416 O 0.55575 0.2975 1.01429 0.0
O417 O 0.70565 0.30981 0.9977 0.0
C418 C 0.47384 0.35384 1.00148 0.0
C419 C 0.65325 0.29623 1.00616 0.0
C420 C 0.32495 0.30825 0.8219 0.0
C421 C 0.21307 0.31872 0.70577 0.0
O422 O 0.38821 0.30488 0.79794 0.0
Zn423 Zn 0.29767 0.31454 0.76189 0.0
O424 O 0.23798 0.31626 0.81641 0.0
Zn425 Zn 0.14252 0.32633 0.77942 0.0
O426 O 0.02229 0.30968 0.78442 0.0
O427 O 0.17243 0.29749 0.76777 0.0
O428 O 0.15338 0.32425 0.72884 0.0
O429 O 0.30594 0.31287 0.71268 0.0
O430 O 0.3086 0.34095 0.77154 0.0
O431 O 0.15411 0.3517 0.78747 0.0
C432 C 0.07491 0.29615 0.77586 0.0
C433 C 0.25308 0.35386 0.78116 0.0
C434 C 0.47256 0.42014 0.78146 0.0
C435 C 0.65081 0.47785 0.77642 0.0
O436 O 0.57156 0.42227 0.78774 0.0
Zn437 Zn 0.58321 0.44767 0.77988 0.0
O438 O 0.417 0.43307 0.77198 0.0
Zn439 Zn 0.42791 0.4595 0.76252 0.0
O440 O 0.41944 0.46128 0.71332 0.0
O441 O 0.57199 0.44985 0.72934 0.0
O442 O 0.55321 0.47652 0.76843 0.0
O443 O 0.70356 0.4643 0.78484 0.0
O444 O 0.48805 0.45767 0.817 0.0
O445 O 0.33774 0.4691 0.7987 0.0
C446 C 0.51227 0.45544 0.70633 0.0
C447 C 0.40115 0.46569 0.8226 0.0
C448 C 0.2164 0.05288 0.12943 0.0
C449 C 0.13013 0.05372 0.10698 0.0
H450 H 0.26677 0.0535 0.18007 0.0
C451 C 0.02619 0.05276 0.11919 0.0
H452 H 0.29799 0.05326 0.12066 0.0
C453 C 0.00889 0.05279 0.15327 0.0
C454 C 0.09513 0.05375 0.17572 0.0
H455 H 0.95849 0.05328 0.10263 0.0
H456 H 0.9273 0.05311 0.16205 0.0
C457 C 0.1991 0.05288 0.16351 0.0
C458 C 0.02763 0.22121 0.16251 0.0
C459 C 0.13145 0.22019 0.17479 0.0
H460 H 0.92907 0.22094 0.11958 0.0
C461 C 0.21792 0.22099 0.15241 0.0
H462 H 0.9598 0.22074 0.17903 0.0
C463 C 0.20089 0.22101 0.11832 0.0
C464 C 0.09699 0.2202 0.10604 0.0
H465 H 0.29943 0.22057 0.16124 0.0
H466 H 0.26867 0.22036 0.1018 0.0
C467 C 0.0106 0.22121 0.12842 0.0
C468 C 0.7761 0.97106 0.8684 0.0
C469 C 0.88003 0.97011 0.85618 0.0
H470 H 0.67725 0.97073 0.91126 0.0
C471 C 0.96632 0.97097 0.87862 0.0
H472 H 0.7084 0.97053 0.85184 0.0
C473 C 0.94906 0.97098 0.9127 0.0
C474 C 0.84509 0.97011 0.92492 0.0
H475 H 0.0479 0.9706 0.86984 0.0
H476 H 0.01675 0.97039 0.92926 0.0
C477 C 0.75884 0.97105 0.90248 0.0
C478 C 0.94809 0.80271 0.86856 0.0
C479 C 0.84424 0.80368 0.85628 0.0
H480 H 0.04666 0.80301 0.91148 0.0
C481 C 0.75781 0.8028 0.87867 0.0
H482 H 0.01591 0.80325 0.85204 0.0
C483 C 0.77485 0.80276 0.91276 0.0
C484 C 0.87873 0.80363 0.92504 0.0
H485 H 0.67629 0.80318 0.86984 0.0
H486 H 0.70705 0.80335 0.92927 0.0
C487 C 0.96513 0.8027 0.90265 0.0
C488 C 0.21386 0.55293 0.62823 0.0
C489 C 0.12778 0.554 0.60575 0.0
H490 H 0.26406 0.55335 0.67889 0.0
C491 C 0.0237 0.55326 0.61791 0.0
H492 H 0.2955 0.55316 0.61949 0.0
C493 C 0.00625 0.55327 0.65198 0.0
C494 C 0.09246 0.55401 0.67447 0.0
H495 H 0.95615 0.55396 0.60131 0.0
H496 H 0.92464 0.55375 0.66072 0.0
C497 C 0.19641 0.55292 0.6623 0.0
C498 C 0.00696 0.72138 0.6285 0.0
C499 C 0.0934 0.72049 0.60613 0.0
H500 H 0.95612 0.7208 0.6791 0.0
C501 C 0.19726 0.7214 0.61842 0.0
H502 H 0.92544 0.72104 0.61966 0.0
C503 C 0.21425 0.72137 0.65251 0.0
C504 C 0.1278 0.72045 0.67489 0.0
H505 H 0.26508 0.72085 0.60191 0.0
H506 H 0.29577 0.72101 0.66135 0.0
C507 C 0.02395 0.72137 0.6626 0.0
C508 C 0.96803 0.47095 0.38005 0.0
C509 C 0.88166 0.47025 0.35761 0.0
H510 H 0.0184 0.47035 0.43069 0.0
C511 C 0.77783 0.4715 0.36983 0.0
H512 H 0.04957 0.47035 0.37128 0.0
C513 C 0.76058 0.47161 0.40391 0.0
C514 C 0.84675 0.47051 0.42635 0.0
H515 H 0.71008 0.47111 0.35328 0.0
H516 H 0.67899 0.47151 0.4127 0.0
C517 C 0.95077 0.47109 0.41413 0.0
C518 C 0.75976 0.30291 0.3793 0.0
C519 C 0.84608 0.30382 0.35688 0.0
H520 H 0.70915 0.30354 0.42992 0.0
C521 C 0.95001 0.30301 0.36913 0.0
H522 H 0.6782 0.30318 0.37049 0.0
C523 C 0.96717 0.30312 0.40322 0.0
C524 C 0.8808 0.30401 0.42562 0.0
H525 H 0.01775 0.30359 0.35259 0.0
H526 H 0.04872 0.30354 0.41201 0.0
C527 C 0.77692 0.30299 0.41339 0.0
C528 C 0.71682 0.0532 0.62932 0.0
C529 C 0.63028 0.05399 0.60696 0.0
H530 H 0.76768 0.05376 0.67991 0.0
C531 C 0.52651 0.05286 0.61926 0.0
H532 H 0.7983 0.0537 0.62047 0.0
C533 C 0.50957 0.05278 0.65335 0.0
C534 C 0.59598 0.0538 0.67572 0.0
H535 H 0.45863 0.05333 0.60276 0.0
H536 H 0.42805 0.05298 0.66221 0.0
C537 C 0.69987 0.0531 0.66341 0.0
C538 C 0.51089 0.22149 0.62851 0.0
C539 C 0.5971 0.22045 0.60608 0.0
H540 H 0.46035 0.22096 0.67914 0.0
C541 C 0.7011 0.22112 0.61831 0.0
H542 H 0.4293 0.22133 0.61972 0.0
C543 C 0.71833 0.221 0.65239 0.0
C544 C 0.63196 0.22024 0.67482 0.0
H545 H 0.76876 0.22044 0.60175 0.0
H546 H 0.79987 0.22047 0.66116 0.0
C547 C 0.52811 0.2214 0.6626 0.0
C548 C 0.25635 0.97121 0.40221 0.0
C549 C 0.34285 0.97043 0.42458 0.0
H550 H 0.20554 0.97056 0.35161 0.0
C551 C 0.44665 0.97148 0.41228 0.0
H552 H 0.17485 0.97076 0.41105 0.0
C553 C 0.46363 0.97147 0.37819 0.0
C554 C 0.37723 0.97045 0.35582 0.0
H555 H 0.51451 0.97101 0.42879 0.0
H556 H 0.54516 0.97122 0.36934 0.0
C557 C 0.27334 0.97123 0.36811 0.0
C558 C 0.46371 0.80299 0.40282 0.0
C559 C 0.37744 0.80398 0.42524 0.0
H560 H 0.51424 0.80347 0.35219 0.0
C561 C 0.27348 0.80315 0.41302 0.0
H562 H 0.54529 0.80327 0.41161 0.0
C563 C 0.25626 0.80317 0.37894 0.0
C564 C 0.34259 0.80398 0.3565 0.0
H565 H 0.20579 0.80379 0.42957 0.0
H566 H 0.17469 0.80358 0.37015 0.0
C567 C 0.44649 0.80298 0.36873 0.0
C568 C 0.52567 0.55271 0.11841 0.0
C569 C 0.62946 0.55361 0.10606 0.0
H570 H 0.42743 0.55309 0.16141 0.0
C571 C 0.71603 0.55269 0.12838 0.0
H572 H 0.45776 0.55329 0.10194 0.0
C573 C 0.69925 0.55268 0.16249 0.0
C574 C 0.59549 0.55362 0.17484 0.0
H575 H 0.7975 0.55303 0.11949 0.0
H576 H 0.76719 0.55324 0.17895 0.0
C577 C 0.50889 0.55273 0.15252 0.0
C578 C 0.52514 0.72098 0.1625 0.0
C579 C 0.62909 0.72007 0.17471 0.0
H580 H 0.42628 0.7206 0.11964 0.0
C581 C 0.71536 0.72096 0.15227 0.0
H582 H 0.45745 0.72043 0.17906 0.0
C583 C 0.69809 0.72095 0.11819 0.0
C584 C 0.59413 0.72003 0.10598 0.0
H585 H 0.79695 0.72062 0.16104 0.0
H586 H 0.76578 0.72038 0.10163 0.0
C587 C 0.50787 0.72095 0.12842 0.0
C588 C 0.46608 0.47106 0.87982 0.0
C589 C 0.37962 0.47019 0.85745 0.0
H590 H 0.51693 0.47046 0.93042 0.0
C591 C 0.27578 0.47112 0.86975 0.0
H592 H 0.54759 0.47071 0.87098 0.0
C593 C 0.2588 0.47108 0.90384 0.0
C594 C 0.34525 0.47015 0.92621 0.0
H595 H 0.20794 0.47058 0.85324 0.0
H596 H 0.17728 0.47074 0.91269 0.0
C597 C 0.4491 0.47105 0.91392 0.0
C598 C 0.26044 0.30273 0.87912 0.0
C599 C 0.34678 0.30371 0.85672 0.0
H600 H 0.20975 0.30325 0.92974 0.0
C601 C 0.4507 0.30288 0.86898 0.0
H602 H 0.17889 0.30302 0.8703 0.0
C603 C 0.46781 0.30291 0.90307 0.0
C604 C 0.38141 0.30374 0.92547 0.0
H605 H 0.51845 0.3035 0.85245 0.0
H606 H 0.54934 0.30332 0.91188 0.0
C607 C 0.27754 0.30274 0.91321 0.0
C608 C 0.55703 0.02618 0.01722 0.0
C609 C 0.44838 0.0286 0.02289 0.0
H610 H 0.68034 1.00815 1.0058 0.0
C611 C 0.37914 0.0141 0.02148 0.0
H612 H 0.61162 0.03707 0.0175 0.0
C613 C 0.41763 0.99754 1.01433 0.0
C614 C 0.52628 0.99511 1.00867 0.0
H615 H 0.29432 0.01556 0.02575 0.0
H616 H 0.36305 0.98664 1.01406 0.0
C617 C 0.59551 1.00961 1.01006 0.0
C618 C 0.63053 0.26423 1.01083 0.0
C619 C 0.69976 0.27872 1.00908 0.0
H620 H 0.61471 0.23675 0.01819 0.0
C621 C 0.80877 0.27626 1.01397 0.0
H622 H 0.54544 0.2657 1.00715 0.0
C623 C 0.84762 0.25966 0.02072 0.0
C624 C 0.77837 0.24517 0.0225 0.0
H625 H 0.86343 0.28714 1.01338 0.0
H626 H 0.93271 0.25818 0.0244 0.0
C627 C 0.66937 0.24764 0.01759 0.0
C628 C 0.38039 0.2597 0.26011 0.0
C629 C 0.44951 0.24519 0.25879 0.0
H630 H 0.36445 0.28717 0.26745 0.0
C631 C 0.55817 0.24761 0.26449 0.0
H632 H 0.29557 0.25825 0.25583 0.0
C633 C 0.59675 0.26418 0.2716 0.0
C634 C 0.5276 0.27869 0.27293 0.0
H635 H 0.61267 0.23671 0.26428 0.0
H636 H 0.68156 0.26564 0.27588 0.0
C637 C 0.41896 0.27627 0.26723 0.0
C638 C 0.80554 0.99779 0.26794 0.0
C639 C 0.69628 0.99534 0.27231 0.0
H640 H 0.93005 0.01584 0.25803 0.0
C641 C 0.62719 1.00982 0.27012 0.0
H642 H 0.86015 0.98691 0.26888 0.0
C643 C 0.66642 0.02641 0.26348 0.0
C644 C 0.77568 0.02886 0.25912 0.0
H645 H 0.54191 1.00836 0.27339 0.0
H646 H 0.61182 0.03729 0.26254 0.0
C647 C 0.84477 0.01437 0.2613 0.0
C648 C 0.16629 0.74751 0.01751 0.0
C649 C 0.27523 0.74505 0.02256 0.0
H650 H 0.04253 0.76558 1.00684 0.0
C651 C 0.34449 0.75954 0.02088 0.0
H652 H 0.11162 0.73663 0.01803 0.0
C653 C 0.30577 0.77613 1.01402 0.0
C654 C 0.19684 0.77859 1.00894 0.0
H655 H 0.42953 0.75806 0.02468 0.0
H656 H 0.36045 0.78701 1.01348 0.0
C657 C 0.12756 0.7641 1.01065 0.0
C658 C 0.59463 0.76428 0.77053 0.0
C659 C 0.52563 0.77879 0.7724 0.0
H660 H 0.61001 0.73682 0.76298 0.0
C661 C 0.41658 0.77638 0.76749 0.0
H662 H 0.67975 0.76572 0.77422 0.0
C663 C 0.37747 0.75981 0.76062 0.0
C664 C 0.44647 0.7453 0.75874 0.0
H665 H 0.36209 0.78728 0.76817 0.0
H666 H 0.29235 0.75838 0.75693 0.0
C667 C 0.55552 0.74772 0.76366 0.0
C668 C 0.12941 1.00967 0.77086 0.0
C669 C 0.19865 0.99519 0.77262 0.0
H670 H 0.11359 0.03715 0.76351 0.0
C671 C 0.30766 0.99766 0.76773 0.0
H672 H 0.04432 1.00819 0.77453 0.0
C673 C 0.34651 0.01426 0.76099 0.0
C674 C 0.27726 0.02874 0.75922 0.0
H675 H 0.36233 0.98678 0.76833 0.0
H676 H 0.4316 0.01574 0.75731 0.0
C677 C 0.16825 0.02627 0.76411 0.0
C678 C 0.59631 0.51004 0.51177 0.0
C679 C 0.52708 0.49556 0.50968 0.0
H680 H 0.61195 0.53751 0.51925 0.0
C681 C 0.41791 0.49803 0.51419 0.0
H682 H 0.68154 0.50856 0.5084 0.0
C683 C 0.37887 0.51462 0.52084 0.0
C684 C 0.44808 0.52911 0.5229 0.0
H685 H 0.36321 0.48716 0.51334 0.0
H686 H 0.29364 0.5161 0.52421 0.0
C687 C 0.55727 0.52664 0.51842 0.0
C688 C 0.80565 0.77655 0.51352 0.0
C689 C 0.69666 0.779 0.50858 0.0
H690 H 0.92959 0.7585 0.52408 0.0
C691 C 0.62746 0.76451 0.51035 0.0
H692 H 0.86028 0.78744 0.51293 0.0
C693 C 0.66631 0.74793 0.51719 0.0
C694 C 0.7753 0.74548 0.52216 0.0
H695 H 0.54238 0.76598 0.50664 0.0
H696 H 0.61167 0.73704 0.5178 0.0
C697 C 0.84451 0.75997 0.52036 0.0
C698 C 0.66603 0.52642 0.76475 0.0
C699 C 0.77443 0.52885 0.75862 0.0
H700 H 0.54322 0.50837 0.77668 0.0
C701 C 0.84369 0.51435 0.75971 0.0
H702 H 0.61147 0.53731 0.76474 0.0
C703 C 0.80552 0.49778 0.76703 0.0
C704 C 0.69713 0.49535 0.77317 0.0
H705 H 0.92832 0.51582 0.7551 0.0
H706 H 0.86009 0.48689 0.76705 0.0
C707 C 0.62785 0.50984 0.77207 0.0
C708 C 0.13029 0.26468 0.51087 0.0
C709 C 0.19954 0.27917 0.50906 0.0
H710 H 0.11441 0.23722 0.5183 0.0
C711 C 0.30858 0.2767 0.51392 0.0
H712 H 0.04519 0.26616 0.50721 0.0
C713 C 0.34741 0.26011 0.52069 0.0
C714 C 0.27812 0.24563 0.52253 0.0
H715 H 0.36326 0.28758 0.51328 0.0
H716 H 0.43251 0.25862 0.52433 0.0
C717 C 0.16911 0.24809 0.51766 0.0
C718 C 0.30843 0.49755 0.26794 0.0
C719 C 0.19968 0.49514 0.27348 0.0
H720 H 0.43202 0.51556 0.25664 0.0
C721 C 0.1306 0.50965 0.27198 0.0
H722 H 0.36293 0.48665 0.2683 0.0
C723 C 0.16929 0.52621 0.26484 0.0
C724 C 0.27802 0.52862 0.25928 0.0
H725 H 0.04571 0.50821 0.27615 0.0
H726 H 0.11478 0.53711 0.26447 0.0
C727 C 0.34714 0.51411 0.26081 0.0
C728 C 0.91688 0.99794 0.51446 0.0
C729 C 0.02554 0.9955 0.50883 0.0
H730 H 0.79359 0.01598 0.52577 0.0
C731 C 0.0948 1.00999 0.51019 0.0
H732 H 0.86227 0.98704 0.51422 0.0
C733 C 0.05634 0.02657 0.51726 0.0
C734 C 0.94767 0.02901 0.52289 0.0
H735 H 0.17963 1.00853 0.50595 0.0
H736 H 0.11095 0.03747 0.5175 0.0
C737 C 0.87842 0.01451 0.52154 0.0
C738 C 0.88097 0.25963 0.76038 0.0
C739 C 0.95016 0.24514 0.75874 0.0
H740 H 0.86505 0.28709 0.76789 0.0
C741 C 0.05902 0.24758 0.76401 0.0
H742 H 0.796 0.25817 0.75641 0.0
C743 C 0.09774 0.26416 0.77102 0.0
C744 C 0.02851 0.27865 0.77269 0.0
H745 H 0.11363 0.23669 0.76353 0.0
H746 H 0.18271 0.26563 0.77497 0.0
C747 C 0.91967 0.27621 0.7674 0.0
C748 C 0.91613 0.77636 0.26692 0.0
C749 C 0.02477 0.77883 0.27256 0.0
H750 H 0.793 0.75827 0.25563 0.0
C751 C 0.09415 0.76435 0.27122 0.0
H752 H 0.86143 0.78724 0.26715 0.0
C753 C 0.05584 0.74776 0.26416 0.0
C754 C 0.9472 0.74529 0.25853 0.0
H755 H 0.17897 0.76584 0.27546 0.0
H756 H 0.11054 0.73688 0.26394 0.0
C757 C 0.87781 0.75977 0.25987 0.0
C758 C 0.91739 0.49754 1.01394 0.0
C759 C 0.02659 0.49507 1.00951 0.0
H760 H 0.79305 0.51562 0.02379 0.0
C761 C 0.09576 0.50956 1.01148 0.0
H762 H 0.86272 0.48666 1.01316 0.0
C763 C 0.05667 0.52616 0.01799 0.0
C764 C 0.94747 0.52863 0.02244 0.0
H765 H 0.181 0.50808 1.00814 0.0
H766 H 0.11134 0.53704 0.01878 0.0
C767 C 0.87829 0.51414 0.02046 0.0
C768 C 0.42466 0.06721 0.91957 0.0
C769 C 0.31213 0.06755 0.92256 0.0
H770 H 0.56068 0.06706 0.88723 0.0
C771 C 0.25047 0.06734 0.89388 0.0
H772 H 0.47495 0.06706 0.94129 0.0
C773 C 0.30024 0.06754 0.86296 0.0
C774 C 0.41281 0.06765 0.85997 0.0
H775 H 0.16422 0.06747 0.89531 0.0
H776 H 0.24994 0.06763 0.84124 0.0
C777 C 0.47442 0.06712 0.88865 0.0
C778 C 0.80141 0.20637 0.91882 0.0
C779 C 0.91397 0.20621 0.92182 0.0
H780 H 0.66542 0.20646 0.88647 0.0
C781 C 0.97562 0.20668 0.89314 0.0
H782 H 0.75109 0.20632 0.94054 0.0
C783 C 0.9259 0.20657 0.86222 0.0
C784 C 0.81336 0.20628 0.85922 0.0
H785 H 0.06188 0.2067 0.89457 0.0
H786 H 0.9762 0.20668 0.8405 0.0
C787 C 0.75167 0.20655 0.8879 0.0
C788 C 0.47483 0.20692 0.39319 0.0
C789 C 0.41318 0.20654 0.42186 0.0
H790 H 0.47538 0.20678 0.34055 0.0
C791 C 0.30062 0.20673 0.41887 0.0
H792 H 0.56108 0.20691 0.3946 0.0
C793 C 0.25087 0.20684 0.38795 0.0
C794 C 0.31253 0.20647 0.35927 0.0
H795 H 0.25032 0.20675 0.44059 0.0
H796 H 0.16462 0.20677 0.38652 0.0
C797 C 0.42508 0.20674 0.36227 0.0
C798 C 0.92336 0.06744 0.41946 0.0
C799 C 0.81084 0.06783 0.42247 0.0
H800 H 0.05933 0.06721 0.38712 0.0
C801 C 0.74914 0.06763 0.3938 0.0
H802 H 0.97367 0.06728 0.44118 0.0
C803 C 0.79888 0.06777 0.36287 0.0
C804 C 0.91145 0.06784 0.35987 0.0
H805 H 0.66289 0.0678 0.39523 0.0
H806 H 0.74856 0.06788 0.34115 0.0
C807 C 0.97308 0.0673 0.38854 0.0
C808 C 0.72321 0.95664 0.13786 0.0
C809 C 0.66175 0.95622 0.10915 0.0
H810 H 0.72341 0.95662 0.1905 0.0
C811 C 0.54918 0.95643 0.11207 0.0
H812 H 0.80948 0.95662 0.13649 0.0
C813 C 0.49922 0.95662 0.14296 0.0
C814 C 0.56069 0.95631 0.17167 0.0
H815 H 0.49901 0.95641 0.09032 0.0
H816 H 0.41296 0.95656 0.14433 0.0
C817 C 0.67326 0.95655 0.16875 0.0
C818 C -0.00113 0.81728 0.13806 0.0
C819 C 0.06065 0.81762 0.10941 0.0
H820 H -0.00192 0.81745 0.1907 0.0
C821 C 0.17319 0.81741 0.11245 0.0
H822 H 0.91262 0.8173 0.1366 0.0
C823 C 0.2228 0.8173 0.14339 0.0
C824 C 0.16102 0.8177 0.17204 0.0
H825 H 0.22359 0.81736 0.09075 0.0
H826 H 0.30905 0.81735 0.14485 0.0
C827 C 0.04848 0.81746 0.169 0.0
C828 C 0.54989 0.8173 0.66899 0.0
C829 C 0.66243 0.81769 0.67194 0.0
H830 H 0.41376 0.81714 0.6367 0.0
C831 C 0.72399 0.81757 0.64323 0.0
H832 H 0.49971 0.81709 0.69073 0.0
C833 C 0.67409 0.8178 0.61233 0.0
C834 C 0.56151 0.81786 0.60939 0.0
H835 H 0.81024 0.81775 0.64463 0.0
H836 H 0.72432 0.81796 0.5906 0.0
C837 C 0.50002 0.81724 0.63809 0.0
C838 C 0.05022 0.95695 0.61223 0.0
C839 C 0.16272 0.95656 0.60916 0.0
H840 H 0.91443 0.95709 0.64466 0.0
C841 C 0.22459 0.95669 0.6378 0.0
H842 H -0.00021 0.95715 0.59054 0.0
C843 C 0.17503 0.95647 0.66875 0.0
C844 C 0.06248 0.95639 0.67182 0.0
H845 H 0.31083 0.95652 0.63631 0.0
H846 H 0.22548 0.95631 0.69044 0.0
C847 C 0.00068 0.957 0.64319 0.0
C848 C 0.25267 0.56696 0.39313 0.0
C849 C 0.31399 0.56799 0.42182 0.0
H850 H 0.25255 0.56641 0.34049 0.0
C851 C 0.42658 0.56825 0.41889 0.0
H852 H 0.16644 0.56659 0.39449 0.0
C853 C 0.47658 0.56794 0.38801 0.0
C854 C 0.41508 0.56765 0.3593 0.0
H855 H 0.47674 0.56873 0.44063 0.0
H856 H 0.5628 0.56839 0.38661 0.0
C857 C 0.30262 0.56694 0.36224 0.0
C858 C 0.92408 0.70654 0.36213 0.0
C859 C 0.81153 0.70637 0.3591 0.0
H860 H 0.05998 0.70665 0.39452 0.0
C861 C 0.74979 0.70686 0.38776 0.0
H862 H 0.97447 0.70648 0.34043 0.0
C863 C 0.79943 0.70678 0.4187 0.0
C864 C 0.91196 0.7065 0.42173 0.0
H865 H 0.66354 0.70688 0.38631 0.0
H866 H 0.74906 0.7069 0.4404 0.0
C867 C 0.97373 0.70674 0.39307 0.0
C868 C 0.47215 0.70678 0.89306 0.0
C869 C 0.41061 0.70623 0.92175 0.0
H870 H 0.47254 0.70686 0.84042 0.0
C871 C 0.29804 0.70635 0.91879 0.0
H872 H 0.55841 0.70683 0.89445 0.0
C873 C 0.24819 0.70656 0.88789 0.0
C874 C 0.30977 0.70636 0.85919 0.0
H875 H 0.24779 0.70624 0.94053 0.0
H876 H 0.16193 0.70642 0.88648 0.0
C877 C 0.42232 0.7067 0.86215 0.0
C878 C 0.97291 0.5672 0.88761 0.0
C879 C 0.91109 0.56765 0.85897 0.0
H880 H 0.97377 0.5672 0.94026 0.0
C881 C 0.79855 0.56744 0.86203 0.0
H882 H 0.05916 0.56721 0.88614 0.0
C883 C 0.74899 0.56724 0.89298 0.0
C884 C 0.81082 0.56753 0.92163 0.0
H885 H 0.74811 0.56747 0.84035 0.0
H886 H 0.66274 0.5673 0.89446 0.0
C887 C 0.92335 0.56728 0.91857 0.0
C888 C 0.54915 0.45648 0.61338 0.0
C889 C 0.66173 0.45645 0.61043 0.0
H890 H 0.41302 0.45642 0.64569 0.0
C891 C 0.72323 0.45702 0.63912 0.0
H892 H 0.49891 0.45635 0.59165 0.0
C893 C 0.67338 0.45688 0.67002 0.0
C894 C 0.56085 0.45646 0.67298 0.0
H895 H 0.80949 0.45714 0.63773 0.0
H896 H 0.7236 0.45707 0.69176 0.0
C897 C 0.49927 0.45662 0.64429 0.0
C898 C 0.17633 0.31792 0.61281 0.0
C899 C 0.06376 0.31797 0.60984 0.0
H900 H 0.31238 0.31787 0.64514 0.0
C901 C 0.00218 0.31735 0.63852 0.0
H902 H 0.22661 0.31808 0.59109 0.0
C903 C 0.05197 0.31741 0.66943 0.0
C904 C 0.1645 0.3178 0.67241 0.0
H905 H 0.91593 0.31724 0.63711 0.0
H906 H 0.00171 0.31718 0.69116 0.0
C907 C 0.22613 0.31769 0.64373 0.0
C908 C 0.67597 0.3173 0.11288 0.0
C909 C 0.56343 0.31752 0.10987 0.0
H910 H 0.81191 0.31722 0.14526 0.0
C911 C 0.50171 0.31717 0.13853 0.0
H912 H 0.72631 0.31726 0.09117 0.0
C913 C 0.55139 0.31733 0.16947 0.0
C914 C 0.66394 0.31757 0.17248 0.0
H915 H 0.41546 0.3172 0.13709 0.0
H916 H 0.50104 0.31732 0.19117 0.0
C917 C 0.72566 0.31718 0.14382 0.0
C918 C 0.17473 0.45669 0.17009 0.0
C919 C 0.06221 0.45635 0.17313 0.0
H920 H 0.31061 0.45684 0.13771 0.0
C921 C 0.00043 0.45655 0.14447 0.0
H922 H 0.22509 0.45684 0.1918 0.0
C923 C 0.05008 0.45637 0.11353 0.0
C924 C 0.16264 0.45625 0.1105 0.0
H925 H 0.91419 0.45642 0.14593 0.0
H926 H -0.00029 0.45627 0.09183 0.0
C927 C 0.22436 0.45679 0.13915 0.0
C928 C 0.00157 0.13737 0.03473 0.0
C929 C 0.05849 0.15299 0.03376 0.0
H930 H 0.00927 0.10966 0.03463 0.0
C931 C 0.17116 0.15233 0.03424 0.0
H932 H 0.9152 0.13738 0.03446 0.0
C933 C 0.22556 0.13645 0.03458 0.0
C934 C 0.16863 0.12082 0.03406 0.0
H935 H 0.21785 0.16415 0.03385 0.0
H936 H 0.31193 0.13643 0.03417 0.0
C937 C 0.05597 0.12148 0.03469 0.0
C938 C 0.05532 0.15248 0.24721 0.0
C939 C 0.16799 0.15309 0.24784 0.0
H940 H 0.91424 0.13664 0.24737 0.0
C941 C 0.22462 0.13743 0.24726 0.0
H942 H 0.00886 0.16432 0.2473 0.0
C943 C 0.1699 0.12158 0.24753 0.0
C944 C 0.05722 0.12097 0.248 0.0
H945 H 0.31098 0.13741 0.24766 0.0
H946 H 0.21637 0.10973 0.24788 0.0
C947 C 0.00061 0.13662 0.2471 0.0
C948 C 0.80423 0.87143 0.99694 0.0
C949 C 0.91689 0.87079 0.99756 0.0
H950 H 0.6634 0.88732 0.99702 0.0
C951 C 0.97376 0.88642 0.99685 0.0
H952 H 0.75759 0.8596 0.99712 0.0
C953 C 0.91929 0.90229 0.99702 0.0
C954 C 0.80662 0.90294 0.99752 0.0
H955 H 0.06013 0.88641 0.99724 0.0
H956 H 0.96594 0.91412 0.99728 0.0
C957 C 0.74977 0.88731 0.99673 0.0
C958 C 0.75057 0.88653 0.78427 0.0
C959 C 0.80727 0.87089 0.78356 0.0
H960 H 0.75866 0.91423 0.7838 0.0
C961 C 0.91994 0.87151 0.78408 0.0
H962 H 0.6642 0.88654 0.78395 0.0
C963 C 0.97457 0.88738 0.78423 0.0
C964 C 0.91786 0.90302 0.78347 0.0
H965 H 0.96647 0.85967 0.78388 0.0
H966 H 0.06094 0.88737 0.78388 0.0
C967 C 0.8052 0.90239 0.78404 0.0
C968 C -0.00067 0.63768 0.53404 0.0
C969 C 0.05601 0.65333 0.53354 0.0
H970 H 0.00752 0.60998 0.53341 0.0
C971 C 0.16867 0.65272 0.53431 0.0
H972 H 0.91297 0.63766 0.53353 0.0
C973 C 0.22333 0.63687 0.53447 0.0
C974 C 0.16669 0.62122 0.53348 0.0
H975 H 0.21516 0.66457 0.53427 0.0
H976 H 0.30971 0.63689 0.5343 0.0
C977 C 0.05401 0.62182 0.53382 0.0
C978 C 0.22176 0.63757 0.74659 0.0
C979 C 0.16498 0.6532 0.74745 0.0
H980 H 0.21382 0.60986 0.74688 0.0
C981 C 0.05231 0.65256 0.74699 0.0
H982 H 0.30813 0.63757 0.74684 0.0
C983 C -0.00223 0.63669 0.74678 0.0
C984 C 0.05456 0.62105 0.7474 0.0
H985 H 0.00572 0.66439 0.7473 0.0
H986 H 0.9114 0.63668 0.74719 0.0
C987 C 0.16722 0.62169 0.74675 0.0
C988 C 0.92006 0.40278 0.49788 0.0
C989 C 0.80739 0.40339 0.49847 0.0
H990 H 0.06109 0.38694 0.49791 0.0
C991 C 0.75071 0.38774 0.49766 0.0
H992 H 0.96657 0.41462 0.49815 0.0
C993 C 0.80537 0.37188 0.49775 0.0
C994 C 0.91805 0.37127 0.49828 0.0
H995 H 0.66435 0.38772 0.49802 0.0
H996 H 0.75888 0.36003 0.49793 0.0
C997 C 0.97472 0.38692 0.49759 0.0
C998 C 0.92055 0.37152 0.28486 0.0
C999 C 0.80788 0.37087 0.28428 0.0
H1000 H 0.06144 0.3874 0.28487 0.0
C1001 C 0.75108 0.38651 0.28514 0.0
H1002 H 0.96716 0.35969 0.28456 0.0
C1003 C 0.8056 0.40238 0.2851 0.0
C1004 C 0.91827 0.40302 0.28458 0.0
H1005 H 0.66471 0.3865 0.28479 0.0
H1006 H 0.759 0.41421 0.28496 0.0
C1007 C 0.97507 0.38739 0.28519 0.0
C1008 C 0.72439 0.13682 0.53457 0.0
C1009 C 0.66744 0.1212 0.53396 0.0
H1010 H 0.71675 0.16453 0.53396 0.0
C1011 C 0.55478 0.12186 0.53454 0.0
H1012 H 0.81076 0.1368 0.53421 0.0
C1013 C 0.50041 0.13775 0.53463 0.0
C1014 C 0.55737 0.15337 0.53376 0.0
H1015 H 0.50806 0.11004 0.53442 0.0
H1016 H 0.41404 0.13777 0.53432 0.0
C1017 C 0.67003 0.1527 0.53428 0.0
C1018 C 0.50137 0.13655 0.74717 0.0
C1019 C 0.55803 0.1209 0.74809 0.0
H1020 H 0.50954 0.16425 0.74728 0.0
C1021 C 0.6707 0.12152 0.74756 0.0
H1022 H 0.415 0.13656 0.74748 0.0
C1023 C 0.72537 0.13738 0.7472 0.0
C1024 C 0.66871 0.15302 0.74776 0.0
H1025 H 0.7172 0.10968 0.74791 0.0
H1026 H 0.81174 0.13736 0.74756 0.0
C1027 C 0.55604 0.15241 0.74719 0.0
C1028 C 0.24875 0.88767 0.49704 0.0
C1029 C 0.30559 0.9033 0.49753 0.0
H1030 H 0.25663 0.85996 0.49772 0.0
C1031 C 0.41824 0.90266 0.49681 0.0
H1032 H 0.16238 0.88768 0.49752 0.0
C1033 C 0.47274 0.88679 0.4967 0.0
C1034 C 0.41592 0.87116 0.49769 0.0
H1035 H 0.46486 0.91449 0.49684 0.0
H1036 H 0.55911 0.88679 0.49689 0.0
C1037 C 0.30325 0.8718 0.49731 0.0
C1038 C 0.30245 0.90256 0.28395 0.0
C1039 C 0.41513 0.9032 0.28353 0.0
H1040 H 0.16153 0.88669 0.28374 0.0
C1041 C 0.47189 0.88757 0.28445 0.0
H1042 H 0.25588 0.9144 0.28359 0.0
C1043 C 0.41734 0.8717 0.28431 0.0
C1044 C 0.30468 0.87106 0.28363 0.0
H1045 H 0.55826 0.88757 0.28422 0.0
H1046 H 0.46392 0.85986 0.28423 0.0
C1047 C 0.24789 0.88669 0.28419 0.0
C1048 C 0.66866 0.65228 0.03381 0.0
C1049 C 0.55599 0.6529 0.03332 0.0
H1050 H 0.80963 0.63643 0.03361 0.0
C1051 C 0.49927 0.63725 0.03411 0.0
H1052 H 0.7152 0.66412 0.03355 0.0
C1053 C 0.55388 0.62139 0.03392 0.0
C1054 C 0.66654 0.62077 0.03331 0.0
H1055 H 0.4129 0.63724 0.03382 0.0
H1056 H 0.50733 0.60955 0.03374 0.0
C1057 C 0.72327 0.63642 0.03399 0.0
C1058 C 0.72501 0.63739 0.24671 0.0
C1059 C 0.66802 0.65301 0.24749 0.0
H1060 H 0.71743 0.60969 0.24708 0.0
C1061 C 0.55536 0.65233 0.24698 0.0
H1062 H 0.81138 0.63743 0.24701 0.0
C1063 C 0.50103 0.63644 0.24679 0.0
C1064 C 0.55803 0.62082 0.24749 0.0
H1065 H 0.5086 0.66414 0.24723 0.0
H1066 H 0.41466 0.6364 0.24716 0.0
C1067 C 0.67068 0.6215 0.24689 0.0
C1068 C 0.25132 0.38732 0.99782 0.0
C1069 C 0.30796 0.40297 0.99874 0.0
H1070 H 0.2595 0.35962 0.99796 0.0
C1071 C 0.42064 0.40236 0.99824 0.0
H1072 H 0.16495 0.3873 0.99811 0.0
C1073 C 0.47532 0.38651 0.99791 0.0
C1074 C 0.41866 0.37085 0.99847 0.0
H1075 H 0.46713 0.41421 0.99859 0.0
H1076 H 0.56168 0.38653 0.99829 0.0
C1077 C 0.30599 0.37146 0.99788 0.0
C1078 C 0.47482 0.38748 0.78518 0.0
C1079 C 0.41778 0.40309 0.78454 0.0
H1080 H 0.46732 0.35977 0.78461 0.0
C1081 C 0.30512 0.4024 0.78513 0.0
H1082 H 0.56119 0.38752 0.78481 0.0
C1083 C 0.25084 0.38651 0.78524 0.0
C1084 C 0.30788 0.3709 0.78438 0.0
H1085 H 0.25834 0.41421 0.78499 0.0
H1086 H 0.16447 0.38646 0.78492 0.0
C1087 C 0.42053 0.37158 0.78491 0.0
loop_
_geom_bond_atom_site_label_1
_geom_bond_atom_site_label_2
_geom_bond_distance
_geom_bond_site_symmetry_2
_ccdc_geom_bond_type
C0 O2 1.247 1_554 S
C0 O4 1.258 . S
C1 O8 1.246 . S
C1 O9 1.259 1_554 S
O2 C0 1.247 1_556 S
O2 Zn3 2.028 . S
Zn3 O2 2.028 . S
Zn3 O7 2.035 1_556 S
Zn3 O9 2.035 . S
Zn3 O10 2.028 . S
O4 C0 1.258 . S
O4 Zn5 2.035 . S
Zn5 O4 2.035 . S
Zn5 O6 2.028 . S
Zn5 O8 2.028 . S
Zn5 O11 2.035 1_554 S
O6 Zn5 2.028 . S
O6 C12 1.247 . S
O7 Zn3 2.035 1_554 S
O7 C12 1.258 . S
O8 C1 1.246 . S
O8 Zn5 2.028 . S
O9 C1 1.259 1_556 S
O9 Zn3 2.035 . S
O10 Zn3 2.028 . S
O10 C13 1.247 . S
O11 Zn5 2.035 1_556 S
O11 C13 1.258 . S
C12 O6 1.247 . S
C12 O7 1.258 . S
C13 O10 1.247 . S
C13 O11 1.258 . S
C14 O16 1.247 1_554 S
C14 O18 1.258 . S
C15 O22 1.246 1_455 S
C15 O23 1.259 1_554 S
O16 C14 1.247 1_556 S
O16 Zn17 2.028 1_655 S
Zn17 O16 2.028 1_455 S
Zn17 O21 2.035 1_556 S
Zn17 O23 2.035 . S
Zn17 O24 2.028 . S
O18 C14 1.258 . S
O18 Zn19 2.035 . S
Zn19 O18 2.035 . S
Zn19 O20 2.028 . S
Zn19 O22 2.028 . S
Zn19 O25 2.035 1_554 S
O20 Zn19 2.028 . S
O20 C26 1.247 1_655 S
O21 Zn17 2.035 1_554 S
O21 C26 1.258 . S
O22 C15 1.246 1_655 S
O22 Zn19 2.028 . S
O23 C15 1.259 1_556 S
O23 Zn17 2.035 . S
O24 Zn17 2.028 . S
O24 C27 1.247 1_455 S
O25 Zn19 2.035 1_556 S
O25 C27 1.258 . S
C26 O20 1.247 1_455 S
C26 O21 1.258 . S
C27 O24 1.247 1_655 S
C27 O25 1.258 . S
C28 O30 1.247 . S
C28 O32 1.258 . S
C29 O36 1.247 . S
C29 O37 1.258 . S
O30 C28 1.247 . S
O30 Zn31 2.028 . S
Zn31 O30 2.028 . S
Zn31 O35 2.035 . S
Zn31 O37 2.035 . S
Zn31 O38 2.028 . S
O32 C28 1.258 . S
O32 Zn33 2.035 . S
Zn33 O32 2.035 . S
Zn33 O34 2.028 . S
Zn33 O36 2.028 . S
Zn33 O39 2.035 . S
O34 Zn33 2.028 . S
O34 C40 1.247 . S
O35 Zn31 2.035 . S
O35 C40 1.258 . S
O36 C29 1.247 . S
O36 Zn33 2.028 . S
O37 C29 1.258 . S
O37 Zn31 2.035 . S
O38 Zn31 2.028 . S
O38 C41 1.247 . S
O39 Zn33 2.035 . S
O39 C41 1.258 . S
C40 O34 1.247 . S
C40 O35 1.258 . S
C41 O38 1.247 . S
C41 O39 1.258 . S
C42 O44 1.247 . S
C42 O46 1.258 1_455 S
C43 O50 1.247 . S
C43 O51 1.258 . S
O44 C42 1.247 . S
O44 Zn45 2.028 . S
Zn45 O44 2.028 . S
Zn45 O49 2.035 . S
Zn45 O51 2.035 1_455 S
Zn45 O52 2.028 . S
O46 C42 1.258 1_655 S
O46 Zn47 2.035 . S
Zn47 O46 2.035 . S
Zn47 O48 2.028 . S
Zn47 O50 2.028 . S
Zn47 O53 2.035 . S
O48 Zn47 2.028 . S
O48 C54 1.247 . S
O49 Zn45 2.035 . S
O49 C54 1.258 1_455 S
O50 C43 1.247 . S
O50 Zn47 2.028 . S
O51 C43 1.258 . S
O51 Zn45 2.035 1_655 S
O52 Zn45 2.028 . S
O52 C55 1.247 . S
O53 Zn47 2.035 . S
O53 C55 1.258 1_655 S
C54 O48 1.247 . S
C54 O49 1.258 1_655 S
C55 O52 1.247 . S
C55 O53 1.258 1_455 S
C56 O58 1.247 . S
C56 O60 1.258 . S
C57 O64 1.247 . S
C57 O65 1.258 . S
O58 C56 1.247 . S
O58 Zn59 2.028 . S
Zn59 O58 2.028 . S
Zn59 O63 2.035 . S
Zn59 O65 2.035 1_554 S
Zn59 O66 2.028 . S
O60 C56 1.258 . S
O60 Zn61 2.035 1_554 S
Zn61 O60 2.035 1_556 S
Zn61 O62 2.028 . S
Zn61 O64 2.028 . S
Zn61 O67 2.035 . S
O62 Zn61 2.028 . S
O62 C68 1.246 . S
O63 Zn59 2.035 . S
O63 C68 1.259 1_554 S
O64 C57 1.247 . S
O64 Zn61 2.028 . S
O65 C57 1.258 . S
O65 Zn59 2.035 1_556 S
O66 Zn59 2.028 . S
O66 C69 1.247 1_554 S
O67 Zn61 2.035 . S
O67 C69 1.258 . S
C68 O62 1.246 . S
C68 O63 1.259 1_556 S
C69 O66 1.247 1_556 S
C69 O67 1.258 . S
C70 O72 1.247 . S
C70 O74 1.258 1_655 S
C71 O78 1.247 . S
C71 O79 1.258 1_455 S
O72 C70 1.247 . S
O72 Zn73 2.028 1_556 S
Zn73 O72 2.028 1_554 S
Zn73 O77 2.035 1_655 S
Zn73 O79 2.035 . S
Zn73 O80 2.028 . S
O74 C70 1.258 1_455 S
O74 Zn75 2.035 . S
Zn75 O74 2.035 . S
Zn75 O76 2.028 . S
Zn75 O78 2.028 1_556 S
Zn75 O81 2.035 . S
O76 Zn75 2.028 . S
O76 C82 1.247 . S
O77 Zn73 2.035 1_455 S
O77 C82 1.258 1_554 S
O78 C71 1.247 . S
O78 Zn75 2.028 1_554 S
O79 C71 1.258 1_655 S
O79 Zn73 2.035 . S
O80 Zn73 2.028 . S
O80 C83 1.246 . S
O81 Zn75 2.035 . S
O81 C83 1.259 1_456 S
C82 O76 1.247 . S
C82 O77 1.258 1_556 S
C83 O80 1.246 . S
C83 O81 1.259 1_654 S
C84 O86 1.247 . S
C84 O88 1.258 . S
C85 O92 1.247 . S
C85 O93 1.258 . S
O86 C84 1.247 . S
O86 Zn87 2.028 . S
Zn87 O86 2.028 . S
Zn87 O91 2.035 . S
Zn87 O93 2.035 . S
Zn87 O94 2.028 . S
O88 C84 1.258 . S
O88 Zn89 2.035 . S
Zn89 O88 2.035 . S
Zn89 O90 2.028 . S
Zn89 O92 2.028 . S
Zn89 O95 2.035 . S
O90 Zn89 2.028 . S
O90 C96 1.247 . S
O91 Zn87 2.035 . S
O91 C96 1.258 . S
O92 C85 1.247 . S
O92 Zn89 2.028 . S
O93 C85 1.258 . S
O93 Zn87 2.035 . S
O94 Zn87 2.028 . S
O94 C97 1.247 . S
O95 Zn89 2.035 . S
O95 C97 1.258 . S
C96 O90 1.247 . S
C96 O91 1.258 . S
C97 O94 1.247 . S
C97 O95 1.258 . S
C98 O100 1.247 . S
C98 O102 1.258 . S
C99 O106 1.247 . S
C99 O107 1.258 1_655 S
O100 C98 1.247 . S
O100 Zn101 2.028 . S
Zn101 O100 2.028 . S
Zn101 O105 2.035 . S
Zn101 O107 2.035 . S
Zn101 O108 2.028 . S
O102 C98 1.258 . S
O102 Zn103 2.035 1_455 S
Zn103 O102 2.035 1_655 S
Zn103 O104 2.028 . S
Zn103 O106 2.028 . S
Zn103 O109 2.035 . S
O104 Zn103 2.028 . S
O104 C110 1.247 . S
O105 Zn101 2.035 . S
O105 C110 1.258 1_455 S
O106 C99 1.247 . S
O106 Zn103 2.028 . S
O107 C99 1.258 1_455 S
O107 Zn101 2.035 . S
O108 Zn101 2.028 . S
O108 C111 1.247 . S
O109 Zn103 2.035 . S
O109 C111 1.258 1_655 S
C110 O104 1.247 . S
C110 O105 1.258 1_655 S
C111 O108 1.247 . S
C111 O109 1.258 1_455 S
C112 O114 1.247 . S
C112 O116 1.258 . S
C113 O120 1.247 . S
C113 O121 1.258 . S
O114 C112 1.247 . S
O114 Zn115 2.028 . S
Zn115 O114 2.028 . S
Zn115 O119 2.035 . S
Zn115 O121 2.035 . S
Zn115 O122 2.028 . S
O116 C112 1.258 . S
O116 Zn117 2.035 . S
Zn117 O116 2.035 . S
Zn117 O118 2.028 . S
Zn117 O120 2.028 . S
Zn117 O123 2.035 . S
O118 Zn117 2.028 . S
O118 C124 1.247 . S
O119 Zn115 2.035 . S
O119 C124 1.258 . S
O120 C113 1.247 . S
O120 Zn117 2.028 . S
O121 C113 1.258 . S
O121 Zn115 2.035 . S
O122 Zn115 2.028 . S
O122 C125 1.247 . S
O123 Zn117 2.035 . S
O123 C125 1.258 . S
C124 O118 1.247 . S
C124 O119 1.258 . S
C125 O122 1.247 . S
C125 O123 1.258 . S
C126 O128 1.247 . S
C126 O130 1.258 1_455 S
C127 O134 1.247 . S
C127 O135 1.258 . S
O128 C126 1.247 . S
O128 Zn129 2.028 . S
Zn129 O128 2.028 . S
Zn129 O133 2.035 . S
Zn129 O135 2.035 1_455 S
Zn129 O136 2.028 . S
O130 C126 1.258 1_655 S
O130 Zn131 2.035 . S
Zn131 O130 2.035 . S
Zn131 O132 2.028 . S
Zn131 O134 2.028 . S
Zn131 O137 2.035 . S
O132 Zn131 2.028 . S
O132 C138 1.247 . S
O133 Zn129 2.035 . S
O133 C138 1.258 1_455 S
O134 C127 1.247 . S
O134 Zn131 2.028 . S
O135 C127 1.258 . S
O135 Zn129 2.035 1_655 S
O136 Zn129 2.028 . S
O136 C139 1.247 . S
O137 Zn131 2.035 . S
O137 C139 1.258 1_655 S
C138 O132 1.247 . S
C138 O133 1.258 1_655 S
C139 O136 1.247 . S
C139 O137 1.258 1_455 S
C140 O142 1.247 . S
C140 O144 1.258 . S
C141 O148 1.247 . S
C141 O149 1.258 . S
O142 C140 1.247 . S
O142 Zn143 2.028 . S
Zn143 O142 2.028 . S
Zn143 O147 2.035 . S
Zn143 O149 2.035 . S
Zn143 O150 2.028 . S
O144 C140 1.258 . S
O144 Zn145 2.035 . S
Zn145 O144 2.035 . S
Zn145 O146 2.028 . S
Zn145 O148 2.028 . S
Zn145 O151 2.035 . S
O146 Zn145 2.028 . S
O146 C152 1.247 . S
O147 Zn143 2.035 . S
O147 C152 1.258 . S
O148 C141 1.247 . S
O148 Zn145 2.028 . S
O149 C141 1.258 . S
O149 Zn143 2.035 . S
O150 Zn143 2.028 . S
O150 C153 1.247 . S
O151 Zn145 2.035 . S
O151 C153 1.258 . S
C152 O146 1.247 . S
C152 O147 1.258 . S
C153 O150 1.247 . S
C153 O151 1.258 . S
C154 O156 1.247 . S
C154 O158 1.258 1_455 S
C155 O162 1.247 . S
C155 O163 1.258 . S
O156 C154 1.247 . S
O156 Zn157 2.028 . S
Zn157 O156 2.028 . S
Zn157 O161 2.035 . S
Zn157 O163 2.035 1_455 S
Zn157 O164 2.028 . S
O158 C154 1.258 1_655 S
O158 Zn159 2.035 . S
Zn159 O158 2.035 . S
Zn159 O160 2.028 . S
Zn159 O162 2.028 . S
Zn159 O165 2.035 . S
O160 Zn159 2.028 . S
O160 C166 1.247 . S
O161 Zn157 2.035 . S
O161 C166 1.258 1_455 S
O162 C155 1.247 . S
O162 Zn159 2.028 . S
O163 C155 1.258 . S
O163 Zn157 2.035 1_655 S
O164 Zn157 2.028 . S
O164 C167 1.247 . S
O165 Zn159 2.035 . S
O165 C167 1.258 1_655 S
C166 O160 1.247 . S
C166 O161 1.258 1_655 S
C167 O164 1.247 . S
C167 O165 1.258 1_455 S
C168 O170 1.247 . S
C168 O172 1.258 . S
C169 O176 1.247 . S
C169 O177 1.258 . S
O170 C168 1.247 . S
O170 Zn171 2.028 . S
Zn171 O170 2.028 . S
Zn171 O175 2.035 . S
Zn171 O177 2.035 . S
Zn171 O178 2.028 . S
O172 C168 1.258 . S
O172 Zn173 2.035 . S
Zn173 O172 2.035 . S
Zn173 O174 2.028 . S
Zn173 O176 2.028 . S
Zn173 O179 2.035 . S
O174 Zn173 2.028 . S
O174 C180 1.247 . S
O175 Zn171 2.035 . S
O175 C180 1.258 . S
O176 C169 1.247 . S
O176 Zn173 2.028 . S
O177 C169 1.258 . S
O177 Zn171 2.035 . S
O178 Zn171 2.028 . S
O178 C181 1.247 . S
O179 Zn173 2.035 . S
O179 C181 1.258 . S
C180 O174 1.247 . S
C180 O175 1.258 . S
C181 O178 1.247 . S
C181 O179 1.258 . S
C182 O184 1.247 1_455 S
C182 O186 1.258 . S
C183 O190 1.247 1_655 S
C183 O191 1.258 . S
O184 C182 1.247 1_655 S
O184 Zn185 2.028 . S
Zn185 O184 2.028 . S
Zn185 O189 2.035 . S
Zn185 O191 2.035 . S
Zn185 O192 2.028 1_655 S
O186 C182 1.258 . S
O186 Zn187 2.035 . S
Zn187 O186 2.035 . S
Zn187 O188 2.028 . S
Zn187 O190 2.028 . S
Zn187 O193 2.035 . S
O188 Zn187 2.028 . S
O188 C194 1.247 1_455 S
O189 Zn185 2.035 . S
O189 C194 1.258 . S
O190 C183 1.247 1_455 S
O190 Zn187 2.028 . S
O191 C183 1.258 . S
O191 Zn185 2.035 . S
O192 Zn185 2.028 1_455 S
O192 C195 1.247 . S
O193 Zn187 2.035 . S
O193 C195 1.258 . S
C194 O188 1.247 1_655 S
C194 O189 1.258 . S
C195 O192 1.247 . S
C195 O193 1.258 . S
C196 O198 1.247 . S
C196 O200 1.258 . S
C197 O204 1.247 . S
C197 O205 1.258 . S
O198 C196 1.247 . S
O198 Zn199 2.028 . S
Zn199 O198 2.028 . S
Zn199 O203 2.035 . S
Zn199 O205 2.035 . S
Zn199 O206 2.028 . S
O200 C196 1.258 . S
O200 Zn201 2.035 . S
Zn201 O200 2.035 . S
Zn201 O202 2.028 . S
Zn201 O204 2.028 . S
Zn201 O207 2.035 . S
O202 Zn201 2.028 . S
O202 C208 1.247 . S
O203 Zn199 2.035 . S
O203 C208 1.258 . S
O204 C197 1.247 . S
O204 Zn201 2.028 . S
O205 C197 1.258 . S
O205 Zn199 2.035 . S
O206 Zn199 2.028 . S
O206 C209 1.247 . S
O207 Zn201 2.035 . S
O207 C209 1.258 . S
C208 O202 1.247 . S
C208 O203 1.258 . S
C209 O206 1.247 . S
C209 O207 1.258 . S
C210 O212 1.247 . S
C210 O214 1.258 1_655 S
C211 O218 1.247 . S
C211 O219 1.258 1_455 S
O212 C210 1.247 . S
O212 Zn213 2.028 . S
Zn213 O212 2.028 . S
Zn213 O217 2.035 1_655 S
Zn213 O219 2.035 . S
Zn213 O220 2.028 . S
O214 C210 1.258 1_455 S
O214 Zn215 2.035 . S
Zn215 O214 2.035 . S
Zn215 O216 2.028 . S
Zn215 O218 2.028 . S
Zn215 O221 2.035 . S
O216 Zn215 2.028 . S
O216 C222 1.247 . S
O217 Zn213 2.035 1_455 S
O217 C222 1.258 . S
O218 C211 1.247 . S
O218 Zn215 2.028 . S
O219 C211 1.258 1_655 S
O219 Zn213 2.035 . S
O220 Zn213 2.028 . S
O220 C223 1.247 . S
O221 Zn215 2.035 . S
O221 C223 1.258 1_455 S
C222 O216 1.247 . S
C222 O217 1.258 . S
C223 O220 1.247 . S
C223 O221 1.258 1_655 S
C224 O226 1.247 . S
C224 O228 1.258 . S
C225 O232 1.247 . S
C225 O233 1.258 . S
O226 C224 1.247 . S
O226 Zn227 2.028 . S
Zn227 O226 2.028 . S
Zn227 O231 2.035 . S
Zn227 O233 2.035 . S
Zn227 O234 2.028 . S
O228 C224 1.258 . S
O228 Zn229 2.035 . S
Zn229 O228 2.035 . S
Zn229 O230 2.028 . S
Zn229 O232 2.028 . S
Zn229 O235 2.035 . S
O230 Zn229 2.028 . S
O230 C236 1.247 . S
O231 Zn227 2.035 . S
O231 C236 1.258 . S
O232 C225 1.247 . S
O232 Zn229 2.028 . S
O233 C225 1.258 . S
O233 Zn227 2.035 . S
O234 Zn227 2.028 . S
O234 C237 1.247 . S
O235 Zn229 2.035 . S
O235 C237 1.258 . S
C236 O230 1.247 . S
C236 O231 1.258 . S
C237 O234 1.247 . S
C237 O235 1.258 . S
C238 O240 1.247 . S
C238 O242 1.258 . S
C239 O246 1.247 . S
C239 O247 1.258 . S
O240 C238 1.247 . S
O240 Zn241 2.028 . S
Zn241 O240 2.028 . S
Zn241 O245 2.035 . S
Zn241 O247 2.035 . S
Zn241 O248 2.028 . S
O242 C238 1.258 . S
O242 Zn243 2.035 . S
Zn243 O242 2.035 . S
Zn243 O244 2.028 . S
Zn243 O246 2.028 . S
Zn243 O249 2.035 . S
O244 Zn243 2.028 . S
O244 C250 1.247 . S
O245 Zn241 2.035 . S
O245 C250 1.258 . S
O246 C239 1.247 . S
O246 Zn243 2.028 . S
O247 C239 1.258 . S
O247 Zn241 2.035 . S
O248 Zn241 2.028 . S
O248 C251 1.247 . S
O249 Zn243 2.035 . S
O249 C251 1.258 . S
C250 O244 1.247 . S
C250 O245 1.258 . S
C251 O248 1.247 . S
C251 O249 1.258 . S
C252 O254 1.247 . S
C252 O256 1.258 . S
C253 O260 1.247 . S
C253 O261 1.258 . S
O254 C252 1.247 . S
O254 Zn255 2.028 . S
Zn255 O254 2.028 . S
Zn255 O259 2.035 . S
Zn255 O261 2.035 . S
Zn255 O262 2.028 . S
O256 C252 1.258 . S
O256 Zn257 2.035 . S
Zn257 O256 2.035 . S
Zn257 O258 2.028 . S
Zn257 O260 2.028 . S
Zn257 O263 2.035 . S
O258 Zn257 2.028 . S
O258 C264 1.247 . S
O259 Zn255 2.035 . S
O259 C264 1.258 . S
O260 C253 1.247 . S
O260 Zn257 2.028 . S
O261 C253 1.258 . S
O261 Zn255 2.035 . S
O262 Zn255 2.028 . S
O262 C265 1.247 . S
O263 Zn257 2.035 . S
O263 C265 1.258 . S
C264 O258 1.247 . S
C264 O259 1.258 . S
C265 O262 1.247 . S
C265 O263 1.258 . S
C266 O268 1.247 . S
C266 O270 1.258 . S
C267 O274 1.247 . S
C267 O275 1.258 . S
O268 C266 1.247 . S
O268 Zn269 2.028 . S
Zn269 O268 2.028 . S
Zn269 O273 2.035 . S
Zn269 O275 2.035 . S
Zn269 O276 2.028 . S
O270 C266 1.258 . S
O270 Zn271 2.035 . S
Zn271 O270 2.035 . S
Zn271 O272 2.028 . S
Zn271 O274 2.028 . S
Zn271 O277 2.035 . S
O272 Zn271 2.028 . S
O272 C278 1.247 . S
O273 Zn269 2.035 . S
O273 C278 1.258 . S
O274 C267 1.247 . S
O274 Zn271 2.028 . S
O275 C267 1.258 . S
O275 Zn269 2.035 . S
O276 Zn269 2.028 . S
O276 C279 1.247 . S
O277 Zn271 2.035 . S
O277 C279 1.258 . S
C278 O272 1.247 . S
C278 O273 1.258 . S
C279 O276 1.247 . S
C279 O277 1.258 . S
C280 O282 1.247 . S
C280 O284 1.258 . S
C281 O288 1.247 . S
C281 O289 1.258 . S
O282 C280 1.247 . S
O282 Zn283 2.028 . S
Zn283 O282 2.028 . S
Zn283 O287 2.035 . S
Zn283 O289 2.035 . S
Zn283 O290 2.028 . S
O284 C280 1.258 . S
O284 Zn285 2.035 . S
Zn285 O284 2.035 . S
Zn285 O286 2.028 . S
Zn285 O288 2.028 . S
Zn285 O291 2.035 . S
O286 Zn285 2.028 . S
O286 C292 1.247 . S
O287 Zn283 2.035 . S
O287 C292 1.258 . S
O288 C281 1.247 . S
O288 Zn285 2.028 . S
O289 C281 1.258 . S
O289 Zn283 2.035 . S
O290 Zn283 2.028 . S
O290 C293 1.247 . S
O291 Zn285 2.035 . S
O291 C293 1.258 . S
C292 O286 1.247 . S
C292 O287 1.258 . S
C293 O290 1.247 . S
C293 O291 1.258 . S
C294 O296 1.247 . S
C294 O298 1.258 . S
C295 O302 1.247 . S
C295 O303 1.258 . S
O296 C294 1.247 . S
O296 Zn297 2.028 . S
Zn297 O296 2.028 . S
Zn297 O301 2.035 . S
Zn297 O303 2.035 . S
Zn297 O304 2.028 . S
O298 C294 1.258 . S
O298 Zn299 2.035 . S
Zn299 O298 2.035 . S
Zn299 O300 2.028 . S
Zn299 O302 2.028 . S
Zn299 O305 2.035 . S
O300 Zn299 2.028 . S
O300 C306 1.247 . S
O301 Zn297 2.035 . S
O301 C306 1.258 . S
O302 C295 1.247 . S
O302 Zn299 2.028 . S
O303 C295 1.258 . S
O303 Zn297 2.035 . S
O304 Zn297 2.028 . S
O304 C307 1.247 . S
O305 Zn299 2.035 . S
O305 C307 1.258 . S
C306 O300 1.247 . S
C306 O301 1.258 . S
C307 O304 1.247 . S
C307 O305 1.258 . S
C308 O310 1.247 . S
C308 O312 1.258 . S
C309 O316 1.247 . S
C309 O317 1.258 . S
O310 C308 1.247 . S
O310 Zn311 2.028 . S
Zn311 O310 2.028 . S
Zn311 O315 2.035 . S
Zn311 O317 2.035 . S
Zn311 O318 2.028 . S
O312 C308 1.258 . S
O312 Zn313 2.035 . S
Zn313 O312 2.035 . S
Zn313 O314 2.028 . S
Zn313 O316 2.028 . S
Zn313 O319 2.035 . S
O314 Zn313 2.028 . S
O314 C320 1.247 . S
O315 Zn311 2.035 . S
O315 C320 1.258 . S
O316 C309 1.247 . S
O316 Zn313 2.028 . S
O317 C309 1.258 . S
O317 Zn311 2.035 . S
O318 Zn311 2.028 . S
O318 C321 1.247 . S
O319 Zn313 2.035 . S
O319 C321 1.258 . S
C320 O314 1.247 . S
C320 O315 1.258 . S
C321 O318 1.247 . S
C321 O319 1.258 . S
C322 O324 1.247 . S
C322 O326 1.258 . S
C323 O330 1.247 . S
C323 O331 1.258 . S
O324 C322 1.247 . S
O324 Zn325 2.028 . S
Zn325 O324 2.028 . S
Zn325 O329 2.035 . S
Zn325 O331 2.035 . S
Zn325 O332 2.028 . S
O326 C322 1.258 . S
O326 Zn327 2.035 . S
Zn327 O326 2.035 . S
Zn327 O328 2.028 . S
Zn327 O330 2.028 . S
Zn327 O333 2.035 . S
O328 Zn327 2.028 . S
O328 C334 1.247 . S
O329 Zn325 2.035 . S
O329 C334 1.258 . S
O330 C323 1.247 . S
O330 Zn327 2.028 . S
O331 C323 1.258 . S
O331 Zn325 2.035 . S
O332 Zn325 2.028 . S
O332 C335 1.247 . S
O333 Zn327 2.035 . S
O333 C335 1.258 . S
C334 O328 1.247 . S
C334 O329 1.258 . S
C335 O332 1.247 . S
C335 O333 1.258 . S
C336 O338 1.247 . S
C336 O340 1.258 . S
C337 O344 1.247 . S
C337 O345 1.258 . S
O338 C336 1.247 . S
O338 Zn339 2.028 1_556 S
Zn339 O338 2.028 1_554 S
Zn339 O343 2.035 . S
Zn339 O345 2.035 . S
Zn339 O346 2.028 . S
O340 C336 1.258 . S
O340 Zn341 2.035 . S
Zn341 O340 2.035 . S
Zn341 O342 2.028 . S
Zn341 O344 2.028 1_556 S
Zn341 O347 2.035 . S
O342 Zn341 2.028 . S
O342 C348 1.246 . S
O343 Zn339 2.035 . S
O343 C348 1.259 1_554 S
O344 C337 1.247 . S
O344 Zn341 2.028 1_554 S
O345 C337 1.258 . S
O345 Zn339 2.035 . S
O346 Zn339 2.028 . S
O346 C349 1.247 . S
O347 Zn341 2.035 . S
O347 C349 1.258 1_556 S
C348 O342 1.246 . S
C348 O343 1.259 1_556 S
C349 O346 1.247 . S
C349 O347 1.258 1_554 S
C350 O352 1.247 1_554 S
C350 O354 1.258 . S
C351 O358 1.247 1_556 S
C351 O359 1.257 . S
O352 C350 1.247 1_556 S
O352 Zn353 2.028 . S
Zn353 O352 2.028 . S
Zn353 O357 2.035 1_556 S
Zn353 O359 2.035 . S
Zn353 O360 2.028 . S
O354 C350 1.258 . S
O354 Zn355 2.035 . S
Zn355 O354 2.035 . S
Zn355 O356 2.028 . S
Zn355 O358 2.028 . S
Zn355 O361 2.035 1_554 S
O356 Zn355 2.028 . S
O356 C362 1.247 . S
O357 Zn353 2.035 1_554 S
O357 C362 1.258 . S
O358 C351 1.247 1_554 S
O358 Zn355 2.028 . S
O359 C351 1.257 . S
O359 Zn353 2.035 . S
O360 Zn353 2.028 . S
O360 C363 1.247 . S
O361 Zn355 2.035 1_556 S
O361 C363 1.258 . S
C362 O356 1.247 . S
C362 O357 1.258 . S
C363 O360 1.247 . S
C363 O361 1.258 . S
C364 O366 1.247 . S
C364 O368 1.258 . S
C365 O372 1.247 . S
C365 O373 1.258 . S
O366 C364 1.247 . S
O366 Zn367 2.028 . S
Zn367 O366 2.028 . S
Zn367 O371 2.035 . S
Zn367 O373 2.035 . S
Zn367 O374 2.028 . S
O368 C364 1.258 . S
O368 Zn369 2.035 . S
Zn369 O368 2.035 . S
Zn369 O370 2.028 . S
Zn369 O372 2.028 . S
Zn369 O375 2.035 . S
O370 Zn369 2.028 . S
O370 C376 1.247 . S
O371 Zn367 2.035 . S
O371 C376 1.258 . S
O372 C365 1.247 . S
O372 Zn369 2.028 . S
O373 C365 1.258 . S
O373 Zn367 2.035 . S
O374 Zn367 2.028 . S
O374 C377 1.247 . S
O375 Zn369 2.035 . S
O375 C377 1.258 . S
C376 O370 1.247 . S
C376 O371 1.258 . S
C377 O374 1.247 . S
C377 O375 1.258 . S
C378 O380 1.247 . S
C378 O382 1.258 . S
C379 O386 1.247 . S
C379 O387 1.258 . S
O380 C378 1.247 . S
O380 Zn381 2.028 . S
Zn381 O380 2.028 . S
Zn381 O385 2.035 . S
Zn381 O387 2.035 . S
Zn381 O388 2.028 . S
O382 C378 1.258 . S
O382 Zn383 2.035 . S
Zn383 O382 2.035 . S
Zn383 O384 2.028 . S
Zn383 O386 2.028 . S
Zn383 O389 2.035 . S
O384 Zn383 2.028 . S
O384 C390 1.247 . S
O385 Zn381 2.035 . S
O385 C390 1.258 . S
O386 C379 1.247 . S
O386 Zn383 2.028 . S
O387 C379 1.258 . S
O387 Zn381 2.035 . S
O388 Zn381 2.028 . S
O388 C391 1.247 . S
O389 Zn383 2.035 . S
O389 C391 1.258 . S
C390 O384 1.247 . S
C390 O385 1.258 . S
C391 O388 1.247 . S
C391 O389 1.258 . S
C392 O394 1.247 . S
C392 O396 1.258 . S
C393 O400 1.247 . S
C393 O401 1.258 . S
O394 C392 1.247 . S
O394 Zn395 2.028 . S
Zn395 O394 2.028 . S
Zn395 O399 2.035 . S
Zn395 O401 2.035 1_554 S
Zn395 O402 2.028 . S
O396 C392 1.258 . S
O396 Zn397 2.035 1_554 S
Zn397 O396 2.035 1_556 S
Zn397 O398 2.028 . S
Zn397 O400 2.028 . S
Zn397 O403 2.035 . S
O398 Zn397 2.028 . S
O398 C404 1.246 . S
O399 Zn395 2.035 . S
O399 C404 1.259 1_554 S
O400 C393 1.247 . S
O400 Zn397 2.028 . S
O401 C393 1.258 . S
O401 Zn395 2.035 1_556 S
O402 Zn395 2.028 . S
O402 C405 1.247 1_554 S
O403 Zn397 2.035 . S
O403 C405 1.258 . S
C404 O398 1.246 . S
C404 O399 1.259 1_556 S
C405 O402 1.247 1_556 S
C405 O403 1.258 . S
C406 O408 1.247 . S
C406 O410 1.258 . S
C407 O414 1.247 . S
C407 O415 1.258 . S
O408 C406 1.247 . S
O408 Zn409 2.028 . S
Zn409 O408 2.028 . S
Zn409 O413 2.035 . S
Zn409 O415 2.035 1_554 S
Zn409 O416 2.028 . S
O410 C406 1.258 . S
O410 Zn411 2.035 1_554 S
Zn411 O410 2.035 1_556 S
Zn411 O412 2.028 . S
Zn411 O414 2.028 . S
Zn411 O417 2.035 . S
O412 Zn411 2.028 . S
O412 C418 1.247 1_556 S
O413 Zn409 2.035 . S
O413 C418 1.257 . S
O414 C407 1.247 . S
O414 Zn411 2.028 . S
O415 C407 1.258 . S
O415 Zn409 2.035 1_556 S
O416 Zn409 2.028 . S
O416 C419 1.247 1_554 S
O417 Zn411 2.035 . S
O417 C419 1.258 . S
C418 O412 1.247 1_554 S
C418 O413 1.257 . S
C419 O416 1.247 1_556 S
C419 O417 1.258 . S
C420 O422 1.247 . S
C420 O424 1.258 . S
C421 O428 1.247 . S
C421 O429 1.258 . S
O422 C420 1.247 . S
O422 Zn423 2.028 . S
Zn423 O422 2.028 . S
Zn423 O427 2.035 . S
Zn423 O429 2.035 . S
Zn423 O430 2.028 . S
O424 C420 1.258 . S
O424 Zn425 2.035 . S
Zn425 O424 2.035 . S
Zn425 O426 2.028 . S
Zn425 O428 2.028 . S
Zn425 O431 2.035 . S
O426 Zn425 2.028 . S
O426 C432 1.247 . S
O427 Zn423 2.035 . S
O427 C432 1.258 . S
O428 C421 1.247 . S
O428 Zn425 2.028 . S
O429 C421 1.258 . S
O429 Zn423 2.035 . S
O430 Zn423 2.028 . S
O430 C433 1.247 . S
O431 Zn425 2.035 . S
O431 C433 1.258 . S
C432 O426 1.247 . S
C432 O427 1.258 . S
C433 O430 1.247 . S
C433 O431 1.258 . S
C434 O436 1.247 . S
C434 O438 1.258 . S
C435 O442 1.247 . S
C435 O443 1.258 . S
O436 C434 1.247 . S
O436 Zn437 2.028 . S
Zn437 O436 2.028 . S
Zn437 O441 2.035 . S
Zn437 O443 2.035 . S
Zn437 O444 2.028 . S
O438 C434 1.258 . S
O438 Zn439 2.035 . S
Zn439 O438 2.035 . S
Zn439 O440 2.028 . S
Zn439 O442 2.028 . S
Zn439 O445 2.035 . S
O440 Zn439 2.028 . S
O440 C446 1.247 . S
O441 Zn437 2.035 . S
O441 C446 1.258 . S
O442 C435 1.247 . S
O442 Zn439 2.028 . S
O443 C435 1.258 . S
O443 Zn437 2.035 . S
O444 Zn437 2.028 . S
O444 C447 1.247 . S
O445 Zn439 2.035 . S
O445 C447 1.258 . S
C446 O440 1.247 . S
C446 O441 1.258 . S
C447 O444 1.247 . S
C447 O445 1.258 . S
C448 C449 1.387 . S
C448 H452 0.950 . S
C448 C457 1.390 . S
C449 C448 1.387 . S
C449 C451 1.387 . S
H450 C457 0.950 . S
C451 C449 1.387 . S
C451 C453 1.390 . S
C451 H455 0.950 . S
H452 C448 0.950 . S
C453 C451 1.390 . S
C453 C454 1.387 . S
C453 H456 0.950 . S
C454 C453 1.387 . S
C454 C457 1.387 . S
H455 C451 0.950 . S
H456 C453 0.950 . S
C457 C448 1.390 . S
C457 H450 0.950 . S
C457 C454 1.387 . S
C458 C459 1.387 . S
C458 H462 0.950 . S
C458 C467 1.390 . S
C459 C458 1.387 . S
C459 C461 1.387 . S
H460 C467 0.950 . S
C461 C459 1.387 . S
C461 C463 1.390 . S
C461 H465 0.950 . S
H462 C458 0.950 . S
C463 C461 1.390 . S
C463 C464 1.387 . S
C463 H466 0.950 . S
C464 C463 1.387 . S
C464 C467 1.387 . S
H465 C461 0.950 . S
H466 C463 0.950 . S
C467 C458 1.390 . S
C467 H460 0.950 . S
C467 C464 1.387 . S
C468 C469 1.387 . S
C468 H472 0.950 . S
C468 C477 1.390 . S
C469 C468 1.387 . S
C469 C471 1.387 . S
H470 C477 0.950 . S
C471 C469 1.387 . S
C471 C473 1.390 . S
C471 H475 0.950 . S
H472 C468 0.950 . S
C473 C471 1.390 . S
C473 C474 1.387 . S
C473 H476 0.950 . S
C474 C473 1.387 . S
C474 C477 1.387 . S
H475 C471 0.950 . S
H476 C473 0.950 . S
C477 C468 1.390 . S
C477 H470 0.950 . S
C477 C474 1.387 . S
C478 C479 1.387 . S
C478 H482 0.950 . S
C478 C487 1.390 . S
C479 C478 1.387 . S
C479 C481 1.387 . S
H480 C487 0.950 . S
C481 C479 1.387 . S
C481 C483 1.390 . S
C481 H485 0.950 . S
H482 C478 0.950 . S
C483 C481 1.390 . S
C483 C484 1.387 . S
C483 H486 0.950 . S
C484 C483 1.387 . S
C484 C487 1.387 . S
H485 C481 0.950 . S
H486 C483 0.950 . S
C487 C478 1.390 . S
C487 H480 0.950 . S
C487 C484 1.387 . S
C488 C489 1.387 . S
C488 H492 0.950 . S
C488 C497 1.390 . S
C489 C488 1.387 . S
C489 C491 1.387 . S
H490 C497 0.950 . S
C491 C489 1.387 . S
C491 C493 1.390 . S
C491 H495 0.950 . S
H492 C488 0.950 . S
C493 C491 1.390 . S
C493 C494 1.387 . S
C493 H496 0.950 . S
C494 C493 1.387 . S
C494 C497 1.387 . S
H495 C491 0.950 . S
H496 C493 0.950 . S
C497 C488 1.390 . S
C497 H490 0.950 . S
C497 C494 1.387 . S
C498 C499 1.387 . S
C498 H502 0.950 . S
C498 C507 1.390 . S
C499 C498 1.387 . S
C499 C501 1.387 . S
H500 C507 0.950 . S
C501 C499 1.387 . S
C501 C503 1.390 . S
C501 H505 0.950 . S
H502 C498 0.950 . S
C503 C501 1.390 . S
C503 C504 1.387 . S
C503 H506 0.950 . S
C504 C503 1.387 . S
C504 C507 1.387 . S
H505 C501 0.950 . S
H506 C503 0.950 . S
C507 C498 1.390 . S
C507 H500 0.950 . S
C507 C504 1.387 . S
C508 C509 1.387 . S
C508 H512 0.950 . S
C508 C517 1.390 . S
C509 C508 1.387 . S
C509 C511 1.387 . S
H510 C517 0.950 . S
C511 C509 1.387 . S
C511 C513 1.390 . S
C511 H515 0.950 . S
H512 C508 0.950 . S
C513 C511 1.390 . S
C513 C514 1.387 . S
C513 H516 0.950 . S
C514 C513 1.387 . S
C514 C517 1.387 . S
H515 C511 0.950 . S
H516 C513 0.950 . S
C517 C508 1.390 . S
C517 H510 0.950 . S
C517 C514 1.387 . S
C518 C519 1.387 . S
C518 H522 0.950 . S
C518 C527 1.390 . S
C519 C518 1.387 . S
C519 C521 1.387 . S
H520 C527 0.950 . S
C521 C519 1.387 . S
C521 C523 1.390 . S
C521 H525 0.950 . S
H522 C518 0.950 . S
C523 C521 1.390 . S
C523 C524 1.387 . S
C523 H526 0.950 . S
C524 C523 1.387 . S
C524 C527 1.387 . S
H525 C521 0.950 . S
H526 C523 0.950 . S
C527 C518 1.390 . S
C527 H520 0.950 . S
C527 C524 1.387 . S
C528 C529 1.387 . S
C528 H532 0.950 . S
C528 C537 1.390 . S
C529 C528 1.387 . S
C529 C531 1.387 . S
H530 C537 0.950 . S
C531 C529 1.387 . S
C531 C533 1.390 . S
C531 H535 0.950 . S
H532 C528 0.950 . S
C533 C531 1.390 . S
C533 C534 1.387 . S
C533 H536 0.950 . S
C534 C533 1.387 . S
C534 C537 1.387 . S
H535 C531 0.950 . S
H536 C533 0.950 . S
C537 C528 1.390 . S
C537 H530 0.950 . S
C537 C534 1.387 . S
C538 C539 1.387 . S
C538 H542 0.950 . S
C538 C547 1.390 . S
C539 C538 1.387 . S
C539 C541 1.387 . S
H540 C547 0.950 . S
C541 C539 1.387 . S
C541 C543 1.390 . S
C541 H545 0.950 . S
H542 C538 0.950 . S
C543 C541 1.390 . S
C543 C544 1.387 . S
C543 H546 0.950 . S
C544 C543 1.387 . S
C544 C547 1.387 . S
H545 C541 0.950 . S
H546 C543 0.950 . S
C547 C538 1.390 . S
C547 H540 0.950 . S
C547 C544 1.387 . S
C548 C549 1.387 . S
C548 H552 0.950 . S
C548 C557 1.390 . S
C549 C548 1.387 . S
C549 C551 1.387 . S
H550 C557 0.950 . S
C551 C549 1.387 . S
C551 C553 1.390 . S
C551 H555 0.950 . S
H552 C548 0.950 . S
C553 C551 1.390 . S
C553 C554 1.387 . S
C553 H556 0.950 . S
C554 C553 1.387 . S
C554 C557 1.387 . S
H555 C551 0.950 . S
H556 C553 0.950 . S
C557 C548 1.390 . S
C557 H550 0.950 . S
C557 C554 1.387 . S
C558 C559 1.387 . S
C558 H562 0.950 . S
C558 C567 1.390 . S
C559 C558 1.387 . S
C559 C561 1.387 . S
H560 C567 0.950 . S
C561 C559 1.387 . S
C561 C563 1.390 . S
C561 H565 0.950 . S
H562 C558 0.950 . S
C563 C561 1.390 . S
C563 C564 1.387 . S
C563 H566 0.950 . S
C564 C563 1.387 . S
C564 C567 1.387 . S
H565 C561 0.950 . S
H566 C563 0.950 . S
C567 C558 1.390 . S
C567 H560 0.950 . S
C567 C564 1.387 . S
C568 C569 1.387 . S
C568 H572 0.950 . S
C568 C577 1.390 . S
C569 C568 1.387 . S
C569 C571 1.387 . S
H570 C577 0.950 . S
C571 C569 1.387 . S
C571 C573 1.390 . S
C571 H575 0.950 . S
H572 C568 0.950 . S
C573 C571 1.390 . S
C573 C574 1.387 . S
C573 H576 0.950 . S
C574 C573 1.387 . S
C574 C577 1.387 . S
H575 C571 0.950 . S
H576 C573 0.950 . S
C577 C568 1.390 . S
C577 H570 0.950 . S
C577 C574 1.387 . S
C578 C579 1.387 . S
C578 H582 0.950 . S
C578 C587 1.390 . S
C579 C578 1.387 . S
C579 C581 1.387 . S
H580 C587 0.950 . S
C581 C579 1.387 . S
C581 C583 1.390 . S
C581 H585 0.950 . S
H582 C578 0.950 . S
C583 C581 1.390 . S
C583 C584 1.387 . S
C583 H586 0.950 . S
C584 C583 1.387 . S
C584 C587 1.387 . S
H585 C581 0.950 . S
H586 C583 0.950 . S
C587 C578 1.390 . S
C587 H580 0.950 . S
C587 C584 1.387 . S
C588 C589 1.387 . S
C588 H592 0.950 . S
C588 C597 1.390 . S
C589 C588 1.387 . S
C589 C591 1.387 . S
H590 C597 0.950 . S
C591 C589 1.387 . S
C591 C593 1.390 . S
C591 H595 0.950 . S
H592 C588 0.950 . S
C593 C591 1.390 . S
C593 C594 1.387 . S
C593 H596 0.950 . S
C594 C593 1.387 . S
C594 C597 1.387 . S
H595 C591 0.950 . S
H596 C593 0.950 . S
C597 C588 1.390 . S
C597 H590 0.950 . S
C597 C594 1.387 . S
C598 C599 1.387 . S
C598 H602 0.950 . S
C598 C607 1.390 . S
C599 C598 1.387 . S
C599 C601 1.387 . S
H600 C607 0.950 . S
C601 C599 1.387 . S
C601 C603 1.390 . S
C601 H605 0.950 . S
H602 C598 0.950 . S
C603 C601 1.390 . S
C603 C604 1.387 . S
C603 H606 0.950 . S
C604 C603 1.387 . S
C604 C607 1.387 . S
H605 C601 0.950 . S
H606 C603 0.950 . S
C607 C598 1.390 . S
C607 H600 0.950 . S
C607 C604 1.387 . S
C608 C609 1.390 . S
C608 H612 0.950 . S
C608 C617 1.390 1_545 S
C609 C608 1.390 . S
C609 C611 1.385 1_554 S
H610 C617 0.950 . S
C611 C609 1.385 1_556 S
C611 C613 1.390 1_545 S
C611 H615 0.950 . S
H612 C608 0.950 . S
C613 C611 1.390 1_565 S
C613 C614 1.390 . S
C613 H616 0.950 . S
C614 C613 1.390 . S
C614 C617 1.385 1_556 S
H615 C611 0.950 . S
H616 C613 0.950 . S
C617 C608 1.390 1_565 S
C617 H610 0.950 . S
C617 C614 1.385 1_554 S
C618 C619 1.386 1_554 S
C618 H622 0.950 . S
C618 C627 1.390 . S
C619 C618 1.386 1_556 S
C619 C621 1.389 . S
H620 C627 0.950 . S
C621 C619 1.389 . S
C621 C623 1.390 . S
C621 H625 0.950 . S
H622 C618 0.950 . S
C623 C621 1.390 . S
C623 C624 1.386 1_556 S
C623 H626 0.950 . S
C624 C623 1.386 1_554 S
C624 C627 1.389 . S
H625 C621 0.950 . S
H626 C623 0.950 . S
C627 C618 1.390 . S
C627 H620 0.950 . S
C627 C624 1.389 . S
C628 C629 1.387 . S
C628 H632 0.950 . S
C628 C637 1.390 . S
C629 C628 1.387 . S
C629 C631 1.387 . S
H630 C637 0.950 . S
C631 C629 1.387 . S
C631 C633 1.390 . S
C631 H635 0.950 . S
H632 C628 0.950 . S
C633 C631 1.390 . S
C633 C634 1.387 . S
C633 H636 0.950 . S
C634 C633 1.387 . S
C634 C637 1.387 . S
H635 C631 0.950 . S
H636 C633 0.950 . S
C637 C628 1.390 . S
C637 H630 0.950 . S
C637 C634 1.387 . S
C638 C639 1.387 . S
C638 H642 0.950 . S
C638 C647 1.390 1_565 S
C639 C638 1.387 . S
C639 C641 1.387 . S
H640 C647 0.950 . S
C641 C639 1.387 . S
C641 C643 1.390 1_565 S
C641 H645 0.950 . S
H642 C638 0.950 . S
C643 C641 1.390 1_545 S
C643 C644 1.387 . S
C643 H646 0.950 . S
C644 C643 1.387 . S
C644 C647 1.387 . S
H645 C641 0.950 . S
H646 C643 0.950 . S
C647 C638 1.390 1_545 S
C647 H640 0.950 . S
C647 C644 1.387 . S
C648 C649 1.389 . S
C648 H652 0.950 . S
C648 C657 1.390 . S
C649 C648 1.389 . S
C649 C651 1.386 1_554 S
H650 C657 0.950 . S
C651 C649 1.386 1_556 S
C651 C653 1.390 . S
C651 H655 0.950 . S
H652 C648 0.950 . S
C653 C651 1.390 . S
C653 C654 1.389 . S
C653 H656 0.950 . S
C654 C653 1.389 . S
C654 C657 1.386 1_556 S
H655 C651 0.950 . S
H656 C653 0.950 . S
C657 C648 1.390 . S
C657 H650 0.950 . S
C657 C654 1.386 1_554 S
C658 C659 1.387 . S
C658 H662 0.950 . S
C658 C667 1.390 . S
C659 C658 1.387 . S
C659 C661 1.387 . S
H660 C667 0.950 . S
C661 C659 1.387 . S
C661 C663 1.390 . S
C661 H665 0.950 . S
H662 C658 0.950 . S
C663 C661 1.390 . S
C663 C664 1.387 . S
C663 H666 0.950 . S
C664 C663 1.387 . S
C664 C667 1.387 . S
H665 C661 0.950 . S
H666 C663 0.950 . S
C667 C658 1.390 . S
C667 H660 0.950 . S
C667 C664 1.387 . S
C668 C669 1.387 . S
C668 H672 0.950 . S
C668 C677 1.390 1_565 S
C669 C668 1.387 . S
C669 C671 1.387 . S
H670 C677 0.950 . S
C671 C669 1.387 . S
C671 C673 1.390 1_565 S
C671 H675 0.950 . S
H672 C668 0.950 . S
C673 C671 1.390 1_545 S
C673 C674 1.387 . S
C673 H676 0.950 . S
C674 C673 1.387 . S
C674 C677 1.387 . S
H675 C671 0.950 . S
H676 C673 0.950 . S
C677 C668 1.390 1_545 S
C677 H670 0.950 . S
C677 C674 1.387 . S
C678 C679 1.387 . S
C678 H682 0.950 . S
C678 C687 1.390 . S
C679 C678 1.387 . S
C679 C681 1.387 . S
H680 C687 0.950 . S
C681 C679 1.387 . S
C681 C683 1.390 . S
C681 H685 0.950 . S
H682 C678 0.950 . S
C683 C681 1.390 . S
C683 C684 1.387 . S
C683 H686 0.950 . S
C684 C683 1.387 . S
C684 C687 1.387 . S
H685 C681 0.950 . S
H686 C683 0.950 . S
C687 C678 1.390 . S
C687 H680 0.950 . S
C687 C684 1.387 . S
C688 C689 1.387 . S
C688 H692 0.950 . S
C688 C697 1.390 . S
C689 C688 1.387 . S
C689 C691 1.387 . S
H690 C697 0.950 . S
C691 C689 1.387 . S
C691 C693 1.390 . S
C691 H695 0.950 . S
H692 C688 0.950 . S
C693 C691 1.390 . S
C693 C694 1.387 . S
C693 H696 0.950 . S
C694 C693 1.387 . S
C694 C697 1.387 . S
H695 C691 0.950 . S
H696 C693 0.950 . S
C697 C688 1.390 . S
C697 H690 0.950 . S
C697 C694 1.387 . S
C698 C699 1.387 . S
C698 H702 0.950 . S
C698 C707 1.390 . S
C699 C698 1.387 . S
C699 C701 1.387 . S
H700 C707 0.950 . S
C701 C699 1.387 . S
C701 C703 1.390 . S
C701 H705 0.950 . S
H702 C698 0.950 . S
C703 C701 1.390 . S
C703 C704 1.387 . S
C703 H706 0.950 . S
C704 C703 1.387 . S
C704 C707 1.387 . S
H705 C701 0.950 . S
H706 C703 0.950 . S
C707 C698 1.390 . S
C707 H700 0.950 . S
C707 C704 1.387 . S
C708 C709 1.387 . S
C708 H712 0.950 . S
C708 C717 1.390 . S
C709 C708 1.387 . S
C709 C711 1.387 . S
H710 C717 0.950 . S
C711 C709 1.387 . S
C711 C713 1.390 . S
C711 H715 0.950 . S
H712 C708 0.950 . S
C713 C711 1.390 . S
C713 C714 1.387 . S
C713 H716 0.950 . S
C714 C713 1.387 . S
C714 C717 1.387 . S
H715 C711 0.950 . S
H716 C713 0.950 . S
C717 C708 1.390 . S
C717 H710 0.950 . S
C717 C714 1.387 . S
C718 C719 1.387 . S
C718 H722 0.950 . S
C718 C727 1.390 . S
C719 C718 1.387 . S
C719 C721 1.387 . S
H720 C727 0.950 . S
C721 C719 1.387 . S
C721 C723 1.390 . S
C721 H725 0.950 . S
H722 C718 0.950 . S
C723 C721 1.390 . S
C723 C724 1.387 . S
C723 H726 0.950 . S
C724 C723 1.387 . S
C724 C727 1.387 . S
H725 C721 0.950 . S
H726 C723 0.950 . S
C727 C718 1.390 . S
C727 H720 0.950 . S
C727 C724 1.387 . S
C728 C729 1.387 . S
C728 H732 0.950 . S
C728 C737 1.390 1_465 S
C729 C728 1.387 . S
C729 C731 1.387 . S
H730 C737 0.950 . S
C731 C729 1.387 . S
C731 C733 1.390 1_465 S
C731 H735 0.950 . S
H732 C728 0.950 . S
C733 C731 1.390 1_645 S
C733 C734 1.387 . S
C733 H736 0.950 . S
C734 C733 1.387 . S
C734 C737 1.387 . S
H735 C731 0.950 . S
H736 C733 0.950 . S
C737 C728 1.390 1_645 S
C737 H730 0.950 . S
C737 C734 1.387 . S
C738 C739 1.387 . S
C738 H742 0.950 . S
C738 C747 1.390 1_655 S
C739 C738 1.387 . S
C739 C741 1.387 . S
H740 C747 0.950 . S
C741 C739 1.387 . S
C741 C743 1.390 1_655 S
C741 H745 0.950 . S
H742 C738 0.950 . S
C743 C741 1.390 1_455 S
C743 C744 1.387 . S
C743 H746 0.950 . S
C744 C743 1.387 . S
C744 C747 1.387 . S
H745 C741 0.950 . S
H746 C743 0.950 . S
C747 C738 1.390 1_455 S
C747 H740 0.950 . S
C747 C744 1.387 . S
C748 C749 1.387 . S
C748 H752 0.950 . S
C748 C757 1.390 1_455 S
C749 C748 1.387 . S
C749 C751 1.387 . S
H750 C757 0.950 . S
C751 C749 1.387 . S
C751 C753 1.390 1_455 S
C751 H755 0.950 . S
H752 C748 0.950 . S
C753 C751 1.390 1_655 S
C753 C754 1.387 . S
C753 H756 0.950 . S
C754 C753 1.387 . S
C754 C757 1.387 . S
H755 C751 0.950 . S
H756 C753 0.950 . S
C757 C748 1.390 1_655 S
C757 H750 0.950 . S
C757 C754 1.387 . S
C758 C759 1.389 . S
C758 H762 0.950 . S
C758 C767 1.390 1_455 S
C759 C758 1.389 . S
C759 C761 1.386 1_556 S
H760 C767 0.950 . S
C761 C759 1.386 1_554 S
C761 C763 1.390 1_455 S
C761 H765 0.950 . S
H762 C758 0.950 . S
C763 C761 1.390 1_655 S
C763 C764 1.389 . S
C763 H766 0.950 . S
C764 C763 1.389 . S
C764 C767 1.386 1_554 S
H765 C761 0.950 . S
H766 C763 0.950 . S
C767 C758 1.390 1_655 S
C767 H760 0.950 . S
C767 C764 1.386 1_556 S
C768 C769 1.387 . S
C768 H772 0.950 . S
C768 C777 1.390 . S
C769 C768 1.387 . S
C769 C771 1.387 . S
H770 C777 0.950 . S
C771 C769 1.387 . S
C771 C773 1.390 . S
C771 H775 0.950 . S
H772 C768 0.950 . S
C773 C771 1.390 . S
C773 C774 1.387 . S
C773 H776 0.950 . S
C774 C773 1.387 . S
C774 C777 1.387 . S
H775 C771 0.950 . S
H776 C773 0.950 . S
C777 C768 1.390 . S
C777 H770 0.950 . S
C777 C774 1.387 . S
C778 C779 1.387 . S
C778 H782 0.950 . S
C778 C787 1.390 . S
C779 C778 1.387 . S
C779 C781 1.387 . S
H780 C787 0.950 . S
C781 C779 1.387 . S
C781 C783 1.390 . S
C781 H785 0.950 . S
H782 C778 0.950 . S
C783 C781 1.390 . S
C783 C784 1.387 . S
C783 H786 0.950 . S
C784 C783 1.387 . S
C784 C787 1.387 . S
H785 C781 0.950 . S
H786 C783 0.950 . S
C787 C778 1.390 . S
C787 H780 0.950 . S
C787 C784 1.387 . S
C788 C789 1.387 . S
C788 H792 0.950 . S
C788 C797 1.390 . S
C789 C788 1.387 . S
C789 C791 1.387 . S
H790 C797 0.950 . S
C791 C789 1.387 . S
C791 C793 1.390 . S
C791 H795 0.950 . S
H792 C788 0.950 . S
C793 C791 1.390 . S
C793 C794 1.387 . S
C793 H796 0.950 . S
C794 C793 1.387 . S
C794 C797 1.387 . S
H795 C791 0.950 . S
H796 C793 0.950 . S
C797 C788 1.390 . S
C797 H790 0.950 . S
C797 C794 1.387 . S
C798 C799 1.387 . S
C798 H802 0.950 . S
C798 C807 1.390 . S
C799 C798 1.387 . S
C799 C801 1.387 . S
H800 C807 0.950 . S
C801 C799 1.387 . S
C801 C803 1.390 . S
C801 H805 0.950 . S
H802 C798 0.950 . S
C803 C801 1.390 . S
C803 C804 1.387 . S
C803 H806 0.950 . S
C804 C803 1.387 . S
C804 C807 1.387 . S
H805 C801 0.950 . S
H806 C803 0.950 . S
C807 C798 1.390 . S
C807 H800 0.950 . S
C807 C804 1.387 . S
C808 C809 1.387 . S
C808 H812 0.950 . S
C808 C817 1.390 . S
C809 C808 1.387 . S
C809 C811 1.387 . S
H810 C817 0.950 . S
C811 C809 1.387 . S
C811 C813 1.390 . S
C811 H815 0.950 . S
H812 C808 0.950 . S
C813 C811 1.390 . S
C813 C814 1.387 . S
C813 H816 0.950 . S
C814 C813 1.387 . S
C814 C817 1.387 . S
H815 C811 0.950 . S
H816 C813 0.950 . S
C817 C808 1.390 . S
C817 H810 0.950 . S
C817 C814 1.387 . S
C818 C819 1.387 . S
C818 H822 0.950 . S
C818 C827 1.390 . S
C819 C818 1.387 . S
C819 C821 1.387 . S
H820 C827 0.950 . S
C821 C819 1.387 . S
C821 C823 1.390 . S
C821 H825 0.950 . S
H822 C818 0.950 . S
C823 C821 1.390 . S
C823 C824 1.387 . S
C823 H826 0.950 . S
C824 C823 1.387 . S
C824 C827 1.387 . S
H825 C821 0.950 . S
H826 C823 0.950 . S
C827 C818 1.390 . S
C827 H820 0.950 . S
C827 C824 1.387 . S
C828 C829 1.387 . S
C828 H832 0.950 . S
C828 C837 1.390 . S
C829 C828 1.387 . S
C829 C831 1.387 . S
H830 C837 0.950 . S
C831 C829 1.387 . S
C831 C833 1.390 . S
C831 H835 0.950 . S
H832 C828 0.950 . S
C833 C831 1.390 . S
C833 C834 1.387 . S
C833 H836 0.950 . S
C834 C833 1.387 . S
C834 C837 1.387 . S
H835 C831 0.950 . S
H836 C833 0.950 . S
C837 C828 1.390 . S
C837 H830 0.950 . S
C837 C834 1.387 . S
C838 C839 1.387 . S
C838 H842 0.950 . S
C838 C847 1.390 . S
C839 C838 1.387 . S
C839 C841 1.387 . S
H840 C847 0.950 . S
C841 C839 1.387 . S
C841 C843 1.390 . S
C841 H845 0.950 . S
H842 C838 0.950 . S
C843 C841 1.390 . S
C843 C844 1.387 . S
C843 H846 0.950 . S
C844 C843 1.387 . S
C844 C847 1.387 . S
H845 C841 0.950 . S
H846 C843 0.950 . S
C847 C838 1.390 . S
C847 H840 0.950 . S
C847 C844 1.387 . S
C848 C849 1.387 . S
C848 H852 0.950 . S
C848 C857 1.390 . S
C849 C848 1.387 . S
C849 C851 1.387 . S
H850 C857 0.950 . S
C851 C849 1.387 . S
C851 C853 1.390 . S
C851 H855 0.950 . S
H852 C848 0.950 . S
C853 C851 1.390 . S
C853 C854 1.387 . S
C853 H856 0.950 . S
C854 C853 1.387 . S
C854 C857 1.387 . S
H855 C851 0.950 . S
H856 C853 0.950 . S
C857 C848 1.390 . S
C857 H850 0.950 . S
C857 C854 1.387 . S
C858 C859 1.387 . S
C858 H862 0.950 . S
C858 C867 1.390 . S
C859 C858 1.387 . S
C859 C861 1.387 . S
H860 C867 0.950 . S
C861 C859 1.387 . S
C861 C863 1.390 . S
C861 H865 0.950 . S
H862 C858 0.950 . S
C863 C861 1.390 . S
C863 C864 1.387 . S
C863 H866 0.950 . S
C864 C863 1.387 . S
C864 C867 1.387 . S
H865 C861 0.950 . S
H866 C863 0.950 . S
C867 C858 1.390 . S
C867 H860 0.950 . S
C867 C864 1.387 . S
C868 C869 1.387 . S
C868 H872 0.950 . S
C868 C877 1.390 . S
C869 C868 1.387 . S
C869 C871 1.387 . S
H870 C877 0.950 . S
C871 C869 1.387 . S
C871 C873 1.390 . S
C871 H875 0.950 . S
H872 C868 0.950 . S
C873 C871 1.390 . S
C873 C874 1.387 . S
C873 H876 0.950 . S
C874 C873 1.387 . S
C874 C877 1.387 . S
H875 C871 0.950 . S
H876 C873 0.950 . S
C877 C868 1.390 . S
C877 H870 0.950 . S
C877 C874 1.387 . S
C878 C879 1.387 . S
C878 H882 0.950 . S
C878 C887 1.390 . S
C879 C878 1.387 . S
C879 C881 1.387 . S
H880 C887 0.950 . S
C881 C879 1.387 . S
C881 C883 1.390 . S
C881 H885 0.950 . S
H882 C878 0.950 . S
C883 C881 1.390 . S
C883 C884 1.387 . S
C883 H886 0.950 . S
C884 C883 1.387 . S
C884 C887 1.387 . S
H885 C881 0.950 . S
H886 C883 0.950 . S
C887 C878 1.390 . S
C887 H880 0.950 . S
C887 C884 1.387 . S
C888 C889 1.387 . S
C888 H892 0.950 . S
C888 C897 1.390 . S
C889 C888 1.387 . S
C889 C891 1.387 . S
H890 C897 0.950 . S
C891 C889 1.387 . S
C891 C893 1.390 . S
C891 H895 0.950 . S
H892 C888 0.950 . S
C893 C891 1.390 . S
C893 C894 1.387 . S
C893 H896 0.950 . S
C894 C893 1.387 . S
C894 C897 1.387 . S
H895 C891 0.950 . S
H896 C893 0.950 . S
C897 C888 1.390 . S
C897 H890 0.950 . S
C897 C894 1.387 . S
C898 C899 1.387 . S
C898 H902 0.950 . S
C898 C907 1.390 . S
C899 C898 1.387 . S
C899 C901 1.387 . S
H900 C907 0.950 . S
C901 C899 1.387 . S
C901 C903 1.390 . S
C901 H905 0.950 . S
H902 C898 0.950 . S
C903 C901 1.390 . S
C903 C904 1.387 . S
C903 H906 0.950 . S
C904 C903 1.387 . S
C904 C907 1.387 . S
H905 C901 0.950 . S
H906 C903 0.950 . S
C907 C898 1.390 . S
C907 H900 0.950 . S
C907 C904 1.387 . S
C908 C909 1.387 . S
C908 H912 0.950 . S
C908 C917 1.390 . S
C909 C908 1.387 . S
C909 C911 1.387 . S
H910 C917 0.950 . S
C911 C909 1.387 . S
C911 C913 1.390 . S
C911 H915 0.950 . S
H912 C908 0.950 . S
C913 C911 1.390 . S
C913 C914 1.387 . S
C913 H916 0.950 . S
C914 C913 1.387 . S
C914 C917 1.387 . S
H915 C911 0.950 . S
H916 C913 0.950 . S
C917 C908 1.390 . S
C917 H910 0.950 . S
C917 C914 1.387 . S
C918 C919 1.387 . S
C918 H922 0.950 . S
C918 C927 1.390 . S
C919 C918 1.387 . S
C919 C921 1.387 . S
H920 C927 0.950 . S
C921 C919 1.387 . S
C921 C923 1.390 . S
C921 H925 0.950 . S
H922 C918 0.950 . S
C923 C921 1.390 . S
C923 C924 1.387 . S
C923 H926 0.950 . S
C924 C923 1.387 . S
C924 C927 1.387 . S
H925 C921 0.950 . S
H926 C923 0.950 . S
C927 C918 1.390 . S
C927 H920 0.950 . S
C927 C924 1.387 . S
C928 C929 1.387 . S
C928 H932 0.950 . S
C928 C937 1.390 . S
C929 C928 1.387 . S
C929 C931 1.387 1_554 S
H930 C937 0.950 . S
C931 C929 1.387 1_556 S
C931 C933 1.390 . S
C931 H935 0.950 . S
H932 C928 0.950 . S
C933 C931 1.390 . S
C933 C934 1.387 1_556 S
C933 H936 0.950 . S
C934 C933 1.387 1_554 S
C934 C937 1.387 . S
H935 C931 0.950 . S
H936 C933 0.950 . S
C937 C928 1.390 . S
C937 H930 0.950 . S
C937 C934 1.387 . S
C938 C939 1.387 . S
C938 H942 0.950 . S
C938 C947 1.390 . S
C939 C938 1.387 . S
C939 C941 1.387 . S
H940 C947 0.950 . S
C941 C939 1.387 . S
C941 C943 1.390 . S
C941 H945 0.950 . S
H942 C938 0.950 . S
C943 C941 1.390 . S
C943 C944 1.387 . S
C943 H946 0.950 . S
C944 C943 1.387 . S
C944 C947 1.387 . S
H945 C941 0.950 . S
H946 C943 0.950 . S
C947 C938 1.390 . S
C947 H940 0.950 . S
C947 C944 1.387 . S
C948 C949 1.387 . S
C948 H952 0.950 . S
C948 C957 1.390 . S
C949 C948 1.387 . S
C949 C951 1.387 1_556 S
H950 C957 0.950 . S
C951 C949 1.387 1_554 S
C951 C953 1.390 . S
C951 H955 0.950 . S
H952 C948 0.950 . S
C953 C951 1.390 . S
C953 C954 1.387 1_554 S
C953 H956 0.950 . S
C954 C953 1.387 1_556 S
C954 C957 1.387 . S
H955 C951 0.950 . S
H956 C953 0.950 . S
C957 C948 1.390 . S
C957 H950 0.950 . S
C957 C954 1.387 . S
C958 C959 1.387 . S
C958 H962 0.950 . S
C958 C967 1.390 . S
C959 C958 1.387 . S
C959 C961 1.387 . S
H960 C967 0.950 . S
C961 C959 1.387 . S
C961 C963 1.390 . S
C961 H965 0.950 . S
H962 C958 0.950 . S
C963 C961 1.390 . S
C963 C964 1.387 . S
C963 H966 0.950 . S
C964 C963 1.387 . S
C964 C967 1.387 . S
H965 C961 0.950 . S
H966 C963 0.950 . S
C967 C958 1.390 . S
C967 H960 0.950 . S
C967 C964 1.387 . S
C968 C969 1.387 . S
C968 H972 0.950 . S
C968 C977 1.390 . S
C969 C968 1.387 . S
C969 C971 1.387 . S
H970 C977 0.950 . S
C971 C969 1.387 . S
C971 C973 1.390 . S
C971 H975 0.950 . S
H972 C968 0.950 . S
C973 C971 1.390 . S
C973 C974 1.387 . S
C973 H976 0.950 . S
C974 C973 1.387 . S
C974 C977 1.387 . S
H975 C971 0.950 . S
H976 C973 0.950 . S
C977 C968 1.390 . S
C977 H970 0.950 . S
C977 C974 1.387 . S
C978 C979 1.387 . S
C978 H982 0.950 . S
C978 C987 1.390 . S
C979 C978 1.387 . S
C979 C981 1.387 . S
H980 C987 0.950 . S
C981 C979 1.387 . S
C981 C983 1.390 . S
C981 H985 0.950 . S
H982 C978 0.950 . S
C983 C981 1.390 . S
C983 C984 1.387 . S
C983 H986 0.950 . S
C984 C983 1.387 . S
C984 C987 1.387 . S
H985 C981 0.950 . S
H986 C983 0.950 . S
C987 C978 1.390 . S
C987 H980 0.950 . S
C987 C984 1.387 . S
C988 C989 1.387 . S
C988 H992 0.950 . S
C988 C997 1.390 . S
C989 C988 1.387 . S
C989 C991 1.387 . S
H990 C997 0.950 . S
C991 C989 1.387 . S
C991 C993 1.390 . S
C991 H995 0.950 . S
H992 C988 0.950 . S
C993 C991 1.390 . S
C993 C994 1.387 . S
C993 H996 0.950 . S
C994 C993 1.387 . S
C994 C997 1.387 . S
H995 C991 0.950 . S
H996 C993 0.950 . S
C997 C988 1.390 . S
C997 H990 0.950 . S
C997 C994 1.387 . S
C998 C999 1.387 . S
C998 H1002 0.950 . S
C998 C1007 1.390 . S
C999 C998 1.387 . S
C999 C1001 1.387 . S
H1000 C1007 0.950 . S
C1001 C999 1.387 . S
C1001 C1003 1.390 . S
C1001 H1005 0.950 . S
H1002 C998 0.950 . S
C1003 C1001 1.390 . S
C1003 C1004 1.387 . S
C1003 H1006 0.950 . S
C1004 C1003 1.387 . S
C1004 C1007 1.387 . S
H1005 C1001 0.950 . S
H1006 C1003 0.950 . S
C1007 C998 1.390 . S
C1007 H1000 0.950 . S
C1007 C1004 1.387 . S
C1008 C1009 1.387 . S
C1008 H1012 0.950 . S
C1008 C1017 1.390 . S
C1009 C1008 1.387 . S
C1009 C1011 1.387 . S
H1010 C1017 0.950 . S
C1011 C1009 1.387 . S
C1011 C1013 1.390 . S
C1011 H1015 0.950 . S
H1012 C1008 0.950 . S
C1013 C1011 1.390 . S
C1013 C1014 1.387 . S
C1013 H1016 0.950 . S
C1014 C1013 1.387 . S
C1014 C1017 1.387 . S
H1015 C1011 0.950 . S
H1016 C1013 0.950 . S
C1017 C1008 1.390 . S
C1017 H1010 0.950 . S
C1017 C1014 1.387 . S
C1018 C1019 1.387 . S
C1018 H1022 0.950 . S
C1018 C1027 1.390 . S
C1019 C1018 1.387 . S
C1019 C1021 1.387 . S
H1020 C1027 0.950 . S
C1021 C1019 1.387 . S
C1021 C1023 1.390 . S
C1021 H1025 0.950 . S
H1022 C1018 0.950 . S
C1023 C1021 1.390 . S
C1023 C1024 1.387 . S
C1023 H1026 0.950 . S
C1024 C1023 1.387 . S
C1024 C1027 1.387 . S
H1025 C1021 0.950 . S
H1026 C1023 0.950 . S
C1027 C1018 1.390 . S
C1027 H1020 0.950 . S
C1027 C1024 1.387 . S
C1028 C1029 1.387 . S
C1028 H1032 0.950 . S
C1028 C1037 1.390 . S
C1029 C1028 1.387 . S
C1029 C1031 1.387 . S
H1030 C1037 0.950 . S
C1031 C1029 1.387 . S
C1031 C1033 1.390 . S
C1031 H1035 0.950 . S
H1032 C1028 0.950 . S
C1033 C1031 1.390 . S
C1033 C1034 1.387 . S
C1033 H1036 0.950 . S
C1034 C1033 1.387 . S
C1034 C1037 1.387 . S
H1035 C1031 0.950 . S
H1036 C1033 0.950 . S
C1037 C1028 1.390 . S
C1037 H1030 0.950 . S
C1037 C1034 1.387 . S
C1038 C1039 1.387 . S
C1038 H1042 0.950 . S
C1038 C1047 1.390 . S
C1039 C1038 1.387 . S
C1039 C1041 1.387 . S
H1040 C1047 0.950 . S
C1041 C1039 1.387 . S
C1041 C1043 1.390 . S
C1041 H1045 0.950 . S
H1042 C1038 0.950 . S
C1043 C1041 1.390 . S
C1043 C1044 1.387 . S
C1043 H1046 0.950 . S
C1044 C1043 1.387 . S
C1044 C1047 1.387 . S
H1045 C1041 0.950 . S
H1046 C1043 0.950 . S
C1047 C1038 1.390 . S
C1047 H1040 0.950 . S
C1047 C1044 1.387 . S
C1048 C1049 1.387 1_556 S
C1048 H1052 0.950 . S
C1048 C1057 1.390 . S
C1049 C1048 1.387 1_554 S
C1049 C1051 1.387 . S
H1050 C1057 0.950 . S
C1051 C1049 1.387 . S
C1051 C1053 1.390 . S
C1051 H1055 0.950 . S
H1052 C1048 0.950 . S
C1053 C1051 1.390 . S
C1053 C1054 1.387 . S
C1053 H1056 0.950 . S
C1054 C1053 1.387 . S
C1054 C1057 1.387 1_554 S
H1055 C1051 0.950 . S
H1056 C1053 0.950 . S
C1057 C1048 1.390 . S
C1057 H1050 0.950 . S
C1057 C1054 1.387 1_556 S
C1058 C1059 1.387 . S
C1058 H1062 0.950 . S
C1058 C1067 1.390 . S
C1059 C1058 1.387 . S
C1059 C1061 1.387 . S
H1060 C1067 0.950 . S
C1061 C1059 1.387 . S
C1061 C1063 1.390 . S
C1061 H1065 0.950 . S
H1062 C1058 0.950 . S
C1063 C1061 1.390 . S
C1063 C1064 1.387 . S
C1063 H1066 0.950 . S
C1064 C1063 1.387 . S
C1064 C1067 1.387 . S
H1065 C1061 0.950 . S
H1066 C1063 0.950 . S
C1067 C1058 1.390 . S
C1067 H1060 0.950 . S
C1067 C1064 1.387 . S
C1068 C1069 1.387 . S
C1068 H1072 0.950 . S
C1068 C1077 1.390 . S
C1069 C1068 1.387 . S
C1069 C1071 1.387 1_556 S
H1070 C1077 0.950 . S
C1071 C1069 1.387 1_554 S
C1071 C1073 1.390 . S
C1071 H1075 0.950 . S
H1072 C1068 0.950 . S
C1073 C1071 1.390 . S
C1073 C1074 1.387 1_554 S
C1073 H1076 0.950 . S
C1074 C1073 1.387 1_556 S
C1074 C1077 1.387 . S
H1075 C1071 0.950 . S
H1076 C1073 0.950 . S
C1077 C1068 1.390 . S
C1077 H1070 0.950 . S
C1077 C1074 1.387 . S
C1078 C1079 1.387 . S
C1078 H1082 0.950 . S
C1078 C1087 1.390 . S
C1079 C1078 1.387 . S
C1079 C1081 1.387 . S
H1080 C1087 0.950 . S
C1081 C1079 1.387 . S
C1081 C1083 1.390 . S
C1081 H1085 0.950 . S
H1082 C1078 0.950 . S
C1083 C1081 1.390 . S
C1083 C1084 1.387 . S
C1083 H1086 0.950 . S
C1084 C1083 1.387 . S
C1084 C1087 1.387 . S
H1085 C1081 0.950 . S
H1086 C1083 0.950 . S
C1087 C1078 1.390 . S
C1087 H1080 0.950 . S
C1087 C1084 1.387 . S
C449 C12 1.534 . S
C454 C55 1.534 . S
C459 C28 1.534 . S
C464 C26 1.534 . S
C469 C110 1.534 . S
C474 C57 1.534 . S
C479 C84 1.533 . S
C484 C70 1.533 . S
C489 C112 1.534 . S
C494 C167 1.533 . S
C499 C139 1.534 . S
C504 C141 1.534 . S
C509 C210 1.533 . S
C514 C168 1.533 . S
C519 C209 1.534 . S
C524 C183 1.534 . S
C529 C224 1.534 . S
C534 C278 1.534 . S
C539 C251 1.533 . S
C544 C252 1.534 . S
C549 C280 1.533 . S
C554 C334 1.533 . S
C559 C294 1.534 . S
C564 C308 1.534 . S
C569 C337 1.533 . S
C574 C391 1.533 . S
C579 C365 1.533 . S
C584 C362 1.534 . S
C589 C447 1.534 . S
C594 C393 1.534 . S
C599 C420 1.534 . S
C604 C407 1.534 . S
C609 C0 1.556 . S
C614 C69 1.556 . S
C619 C419 1.557 . S
C624 C14 1.557 . S
C629 C40 1.558 . S
C634 C197 1.558 . S
C639 C322 1.557 . S
C644 C43 1.557 . S
C649 C350 1.557 . S
C654 C82 1.556 . S
C659 C96 1.555 . S
C664 C153 1.555 . S
C669 C98 1.555 . S
C674 C266 1.557 . S
C679 C180 1.555 . S
C684 C124 1.557 . S
C689 C306 1.556 . S
C694 C127 1.556 . S
C699 C155 1.555 . S
C704 C435 1.556 . S
C709 C195 1.556 . S
C714 C239 1.555 . S
C719 C222 1.556 . S
C724 C379 1.556 . S
C729 C292 1.556 . S
C734 C236 1.558 . S
C739 C264 1.557 . S
C744 C432 1.556 . S
C749 C320 1.556 . S
C754 C377 1.556 . S
C759 C405 1.558 . S
C764 C349 1.557 . S
C769 C13 1.480 . S
C774 C279 1.480 . S
C779 C27 1.479 . S
C784 C253 1.479 . S
C789 C250 1.481 . S
C794 C29 1.480 . S
C799 C225 1.481 . S
C804 C54 1.481 . S
C809 C56 1.479 . S
C814 C335 1.479 . S
C819 C71 1.480 . S
C824 C309 1.480 . S
C829 C85 1.480 . S
C834 C295 1.480 . S
C839 C281 1.480 . S
C844 C111 1.480 . S
C849 C113 1.480 . S
C854 C390 1.481 . S
C859 C364 1.480 . S
C864 C138 1.480 . S
C869 C363 1.480 . S
C874 C140 1.481 . S
C879 C166 1.481 . S
C884 C336 1.481 . S
C889 C169 1.481 . S
C894 C446 1.480 . S
C899 C182 1.480 . S
C904 C421 1.480 . S
C909 C406 1.479 . S
C914 C208 1.479 . S
C919 C211 1.480 . S
C924 C392 1.479 . S
C929 C15 1.549 . S
C934 C1 1.549 . S
C939 C41 1.549 . S
C944 C42 1.550 . S
C949 C83 1.548 1_556 S
C954 C68 1.547 . S
C959 C97 1.550 . S
C964 C99 1.550 . S
C969 C126 1.548 . S
C974 C125 1.547 . S
C979 C152 1.550 . S
C984 C154 1.550 . S
C989 C181 1.550 . S
C994 C194 1.549 . S
C999 C196 1.549 . S
C1004 C223 1.550 . S
C1009 C237 1.547 . S
C1014 C238 1.548 . S
C1019 C267 1.549 . S
C1024 C265 1.549 . S
C1029 C293 1.550 . S
C1034 C307 1.550 . S
C1039 C323 1.550 . S
C1044 C321 1.550 . S
C1049 C351 1.547 1_554 S
C1054 C348 1.549 1_554 S
C1059 C376 1.548 . S
C1064 C378 1.548 . S
C1069 C404 1.547 . S
C1074 C418 1.547 1_556 S
C1079 C434 1.547 . S
C1084 C433 1.548 . S
