# Generated by pormake.
# Topology can, (4)-cn, num edge types: 1
# Building blocks:
#     Node 0, Type 0, BuildingBlock: QUQFOY_clean_sbu_3, # of connection points: 4
#     Node 1, Type 0, BuildingBlock: QUQFOY_clean_sbu_3, # of connection points: 4
#     Node 2, Type 0, BuildingBlock: QUQFOY_clean_sbu_3, # of connection points: 4
#     Node 3, Type 0, BuildingBlock: QUQFOY_clean_sbu_3, # of connection points: 4
#     Node 4, Type 0, BuildingBlock: QUQFOY_clean_sbu_3, # of connection points: 4
#     Node 5, Type 0, BuildingBlock: QUQFOY_clean_sbu_3, # of connection points: 4
#     Node 6, Type 0, BuildingBlock: QUQFOY_clean_sbu_3, # of connection points: 4
#     Node 7, Type 0, BuildingBlock: QUQFOY_clean_sbu_3, # of connection points: 4
#     Node 8, Type 0, BuildingBlock: QUQFOY_clean_sbu_3, # of connection points: 4
#     Node 9, Type 0, BuildingBlock: QUQFOY_clean_sbu_3, # of connection points: 4
#     Node 10, Type 0, BuildingBlock: QUQFOY_clean_sbu_3, # of connection points: 4
#     Node 11, Type 0, BuildingBlock: QUQFOY_clean_sbu_3, # of connection points: 4
#     Edge 12, Type (0, 0), BuildingBlock: UVAHIK_clean_linker_0, # of connection points: 2
#     Edge 13, Type (0, 0), BuildingBlock: UVAHIK_clean_linker_0, # of connection points: 2
#     Edge 14, Type (0, 0), BuildingBlock: UVAHIK_clean_linker_0, # of connection points: 2
#     Edge 15, Type (0, 0), BuildingBlock: UVAHIK_clean_linker_0, # of connection points: 2
#     Edge 16, Type (0, 0), BuildingBlock: UVAHIK_clean_linker_0, # of connection points: 2
#     Edge 17, Type (0, 0), BuildingBlock: UVAHIK_clean_linker_0, # of connection points: 2
#     Edge 18, Type (0, 0), BuildingBlock: UVAHIK_clean_linker_0, # of connection points: 2
#     Edge 19, Type (0, 0), BuildingBlock: UVAHIK_clean_linker_0, # of connection points: 2
#     Edge 20, Type (0, 0), BuildingBlock: UVAHIK_clean_linker_0, # of connection points: 2
#     Edge 21, Type (0, 0), BuildingBlock: UVAHIK_clean_linker_0, # of connection points: 2
#     Edge 22, Type (0, 0), BuildingBlock: UVAHIK_clean_linker_0, # of connection points: 2
#     Edge 23, Type (0, 0), BuildingBlock: UVAHIK_clean_linker_0, # of connection points: 2
#     Edge 24, Type (0, 0), BuildingBlock: UVAHIK_clean_linker_0, # of connection points: 2
#     Edge 25, Type (0, 0), BuildingBlock: UVAHIK_clean_linker_0, # of connection points: 2
#     Edge 26, Type (0, 0), BuildingBlock: UVAHIK_clean_linker_0, # of connection points: 2
#     Edge 27, Type (0, 0), BuildingBlock: UVAHIK_clean_linker_0, # of connection points: 2
#     Edge 28, Type (0, 0), BuildingBlock: UVAHIK_clean_linker_0, # of connection points: 2
#     Edge 29, Type (0, 0), BuildingBlock: UVAHIK_clean_linker_0, # of connection points: 2
#     Edge 30, Type (0, 0), BuildingBlock: UVAHIK_clean_linker_0, # of connection points: 2
#     Edge 31, Type (0, 0), BuildingBlock: UVAHIK_clean_linker_0, # of connection points: 2
#     Edge 32, Type (0, 0), BuildingBlock: UVAHIK_clean_linker_0, # of connection points: 2
#     Edge 33, Type (0, 0), BuildingBlock: UVAHIK_clean_linker_0, # of connection points: 2
#     Edge 34, Type (0, 0), BuildingBlock: UVAHIK_clean_linker_0, # of connection points: 2
#     Edge 35, Type (0, 0), BuildingBlock: UVAHIK_clean_linker_0, # of connection points: 2
# Relax obj value: 0.050
# Max RMSD: 0.036
# Mean RMSD: 0.036
data_MOF--net-can--node1-QUQFOY_clean_sbu_3--edge1-UVAHIK_clean_linker_0
_symmetry_space_group_name_H-M    P1
_symmetry_Int_Tables_number       1
_symmetry_cell_setting            triclinic
loop_
_symmetry_equiv_pos_as_xyz
'x, y, z'
_cell_length_a     72.350303
_cell_length_b     72.318253
_cell_length_c     36.539528
_cell_angle_alpha  90.084433
_cell_angle_beta   89.86028
_cell_angle_gamma 119.95251
loop_
_atom_site_label
_atom_site_type_symbol
_atom_site_fract_x
_atom_site_fract_y
_atom_site_fract_z
_atom_type_partial_charge
C0 C 0.01687 0.35826 0.29408 0.0
O1 O 0.00123 0.35073 0.27201 0.0
Cd2 Cd 0.00428 0.36108 0.20919 0.0
O3 O 0.03577 0.37135 0.28331 0.0
Cd4 Cd 0.05573 0.38834 0.22647 0.0
C5 C 0.02915 0.41593 0.21825 0.0
O6 O 0.03379 0.35728 0.19037 0.0
O7 O 0.05759 0.38395 0.1597 0.0
O8 O 0.08306 0.3819 0.25082 0.0
C9 C 0.0425 0.36474 0.15981 0.0
O10 O 0.01238 0.39838 0.21058 0.0
C11 C 0.09856 0.40041 0.24404 0.0
O12 O 0.04657 0.41643 0.22574 0.0
O13 O 0.09409 0.41368 0.22966 0.0
C14 C 0.6562 0.01861 0.79864 0.0
O15 O 0.64634 0.00216 0.77856 0.0
Cd16 Cd 0.63973 0.00344 0.71464 0.0
O17 O 0.66351 0.03725 0.78527 0.0
Cd18 Cd 0.66613 0.05493 0.72615 0.0
C19 C 0.61196 0.0305 0.71868 0.0
O20 O 0.67351 0.0307 0.69208 0.0
O21 O 0.67124 0.05433 0.65967 0.0
O22 O 0.70081 0.08223 0.74733 0.0
C23 C 0.67466 0.03878 0.6609 0.0
O24 O 0.6118 0.01309 0.7125 0.0
C25 C 0.69819 0.0979 0.73983 0.0
O26 O 0.62935 0.04761 0.72552 0.0
O27 O 0.68032 0.09358 0.72625 0.0
C28 C 0.63506 0.65941 0.30376 0.0
O29 O 0.64117 0.64862 0.28501 0.0
Cd30 Cd 0.63427 0.64056 0.2213 0.0
O31 O 0.62451 0.66721 0.28898 0.0
Cd32 Cd 0.61089 0.6686 0.22749 0.0
C33 C 0.57954 0.61443 0.22245 0.0
O34 O 0.64259 0.67407 0.19512 0.0
O35 O 0.61659 0.67045 0.1613 0.0
O36 O 0.61972 0.70515 0.23867 0.0
C37 C 0.63565 0.67426 0.16345 0.0
O38 O 0.59651 0.61352 0.21779 0.0
C39 C 0.60126 0.70219 0.23161 0.0
O40 O 0.58042 0.63225 0.22789 0.0
O41 O 0.58689 0.68326 0.22394 0.0
C42 C 0.97329 0.63663 0.80111 0.0
O43 O 0.98977 0.64298 0.78116 0.0
Cd44 Cd 0.98821 0.6336 0.71793 0.0
O45 O 0.95473 0.62496 0.7878 0.0
Cd46 Cd 0.93775 0.60911 0.72865 0.0
C47 C 0.96161 0.57894 0.72472 0.0
O48 O 0.96152 0.64012 0.69222 0.0
O49 O 0.93952 0.61197 0.66212 0.0
O50 O 0.91071 0.61791 0.74531 0.0
C51 C 0.95362 0.63157 0.66168 0.0
O52 O 0.97891 0.59608 0.71755 0.0
C53 C 0.89486 0.5996 0.73871 0.0
O54 O 0.94453 0.57934 0.7314 0.0
O55 O 0.89893 0.58527 0.72811 0.0
C56 C 0.32974 0.97398 0.30272 0.0
O57 O 0.34018 0.98963 0.28125 0.0
Cd58 Cd 0.34996 0.98634 0.22029 0.0
O59 O 0.32328 0.9549 0.29217 0.0
Cd60 Cd 0.32368 0.93628 0.23543 0.0
C61 C 0.37761 0.95984 0.23568 0.0
O62 O 0.31737 0.95889 0.19462 0.0
O63 O 0.32519 0.93693 0.16847 0.0
O64 O 0.28704 0.90921 0.24699 0.0
C65 C 0.31914 0.95055 0.16534 0.0
O66 O 0.37801 0.97695 0.22601 0.0
C67 C 0.29 0.8934 0.24372 0.0
O68 O 0.35999 0.94296 0.24232 0.0
O69 O 0.30902 0.89754 0.23819 0.0
C70 C 0.34971 0.33213 0.79892 0.0
O71 O 0.34576 0.34391 0.77843 0.0
Cd72 Cd 0.35907 0.35382 0.71732 0.0
O73 O 0.36143 0.32474 0.78768 0.0
Cd74 Cd 0.38111 0.32518 0.73222 0.0
C75 C 0.41294 0.37931 0.73337 0.0
O76 O 0.35311 0.32098 0.69102 0.0
O77 O 0.38147 0.32422 0.66532 0.0
O78 O 0.37089 0.28843 0.74497 0.0
C79 C 0.3627 0.32109 0.66196 0.0
O80 O 0.39669 0.38061 0.72396 0.0
C81 C 0.38959 0.29114 0.74259 0.0
O82 O 0.41141 0.36125 0.73925 0.0
O83 O 0.40466 0.31004 0.73681 0.0
C84 C 0.63669 0.97963 0.18207 0.0
O85 O 0.64208 0.99431 0.20576 0.0
Cd86 Cd 0.63116 0.98769 0.26866 0.0
O87 O 0.62509 0.96007 0.19098 0.0
Cd88 Cd 0.60763 0.9377 0.24523 0.0
C89 C 0.5767 0.96056 0.2581 0.0
O90 O 0.63729 0.9592 0.28534 0.0
O91 O 0.61014 0.93281 0.31116 0.0
O92 O 0.61669 0.9124 0.21915 0.0
C93 C 0.62894 0.94845 0.31405 0.0
O94 O 0.59345 0.97747 0.26821 0.0
C95 C 0.59823 0.8962 0.2228 0.0
O96 O 0.57764 0.94427 0.24746 0.0
O97 O 0.58382 0.89938 0.23613 0.0
C98 C 0.65239 0.63715 0.68599 0.0
O99 O 0.64298 0.64208 0.71024 0.0
Cd100 Cd 0.63911 0.63095 0.77291 0.0
O101 O 0.66067 0.62572 0.69406 0.0
Cd102 Cd 0.6657 0.60803 0.7479 0.0
C103 C 0.61219 0.57654 0.76163 0.0
O104 O 0.67393 0.63752 0.78901 0.0
O105 O 0.67267 0.60979 0.81359 0.0
O106 O 0.70064 0.61751 0.72419 0.0
C107 C 0.6764 0.62878 0.81712 0.0
O108 O 0.61192 0.59315 0.77245 0.0
C109 C 0.69826 0.59895 0.72707 0.0
O110 O 0.62938 0.57772 0.75017 0.0
O111 O 0.6802 0.58423 0.7381 0.0
C112 C 0.01117 0.65768 0.18356 0.0
O113 O -0.00359 0.64867 0.2072 0.0
Cd114 Cd 0.00303 0.64295 0.26908 0.0
O115 O 0.03058 0.66455 0.19228 0.0
Cd116 Cd 0.05212 0.66734 0.2466 0.0
C117 C 0.02753 0.61341 0.2541 0.0
O118 O 0.03209 0.67692 0.28806 0.0
O119 O 0.05541 0.67077 0.31322 0.0
O120 O 0.07877 0.70189 0.22333 0.0
C121 C 0.04201 0.6771 0.31665 0.0
O122 O 0.01111 0.61382 0.26562 0.0
C123 C 0.09446 0.69882 0.2272 0.0
O124 O 0.04414 0.63049 0.2442 0.0
O125 O 0.09039 0.68071 0.23932 0.0
C126 C 0.35117 0.01472 0.6817 0.0
O127 O 0.34624 -0.00087 0.70314 0.0
Cd128 Cd 0.35918 0.00382 0.76461 0.0
O129 O 0.36342 0.03384 0.69229 0.0
Cd130 Cd 0.38299 0.05395 0.74711 0.0
C131 C 0.41323 0.0301 0.74865 0.0
O132 O 0.35396 0.03191 0.78807 0.0
O133 O 0.38307 0.05541 0.81398 0.0
O134 O 0.37361 0.08016 0.72772 0.0
C135 C 0.36364 0.04113 0.81717 0.0
O136 O 0.39662 0.01315 0.75916 0.0
C137 C 0.39211 0.09624 0.73166 0.0
O138 O 0.41239 0.04683 0.74103 0.0
O139 O 0.40673 0.09264 0.74224 0.0
C140 C 0.33199 0.35613 0.17653 0.0
O141 O 0.34253 0.3512 0.19827 0.0
Cd142 Cd 0.35149 0.3633 0.25983 0.0
O143 O 0.32508 0.36847 0.1867 0.0
Cd144 Cd 0.32471 0.38765 0.24281 0.0
C145 C 0.37903 0.41763 0.24605 0.0
O146 O 0.31826 0.35826 0.28156 0.0
O147 O 0.32217 0.38593 0.31035 0.0
O148 O 0.28877 0.37935 0.22791 0.0
C149 C 0.31812 0.36676 0.31168 0.0
O150 O 0.37933 0.40082 0.25541 0.0
C151 C 0.29225 0.39829 0.23148 0.0
O152 O 0.36151 0.41697 0.2388 0.0
O153 O 0.31123 0.41263 0.23879 0.0
C154 C 0.97423 0.33338 0.67544 0.0
O155 O 0.99016 0.34261 0.69674 0.0
Cd156 Cd 0.98758 0.35164 0.75894 0.0
O157 O 0.95539 0.32728 0.68684 0.0
Cd158 Cd 0.93672 0.32573 0.74441 0.0
C159 C 0.96123 0.37989 0.74803 0.0
O160 O 0.95977 0.31897 0.78352 0.0
O161 O 0.93578 0.32338 0.81107 0.0
O162 O 0.90949 0.28972 0.72923 0.0
C163 C 0.95069 0.31905 0.81315 0.0
O164 O 0.97842 0.37998 0.75592 0.0
C165 C 0.89386 0.29293 0.73291 0.0
O166 O 0.94412 0.36245 0.74157 0.0
O167 O 0.89822 0.31183 0.74046 0.0
C168 C 0.01294 0.33467 0.12584 0.0
C169 C 0.03342 0.35281 0.12568 0.0
C170 C 0.00314 0.32481 0.09305 0.0
C171 C 0.01065 0.31857 -0.00394 0.0
H172 H 0.96016 0.3234 0.98164 0.0
C173 C 0.97981 0.32193 0.85315 0.0
C174 C 0.95834 0.31607 0.84863 0.0
C175 C 0.98755 0.32107 0.88766 0.0
C176 C 0.97381 0.32125 0.98523 0.0
H177 H 0.06032 0.37394 0.09159 0.0
H178 H 0.04319 0.35642 0.03409 0.0
H179 H 0.97681 0.33069 0.04134 0.0
H180 H 0.92769 0.30316 0.87558 0.0
H181 H 0.94079 0.30041 0.93546 0.0
H182 H 0.00768 0.309 0.94002 0.0
C183 C 0.03477 0.34998 0.05962 0.0
C184 C 0.98342 0.32559 0.01952 0.0
C185 C 0.04446 0.36008 0.0924 0.0
C186 C 0.9444 0.30811 0.87861 0.0
C187 C 0.952 0.30668 0.91293 0.0
C188 C 0.00075 0.31373 0.96183 0.0
C189 C 0.01381 0.33268 0.05968 0.0
C190 C 0.0022 0.32485 0.02493 0.0
C191 C 0.97382 0.31382 0.9182 0.0
C192 C 0.98256 0.31565 0.95568 0.0
H193 H 0.00407 0.32866 0.15112 0.0
H194 H 0.98695 0.31147 0.09361 0.0
H195 H 0.02511 0.31781 -0.00017 0.0
H196 H 0.99088 0.32816 0.83033 0.0
H197 H 0.00449 0.32704 0.89053 0.0
C198 C 0.63349 0.94068 0.37884 0.0
C199 C 0.63961 0.95521 0.34975 0.0
C200 C 0.64238 0.94757 0.41351 0.0
C201 C 0.68413 0.99523 0.46474 0.0
H202 H 0.64246 0.97129 0.54303 0.0
C203 C 0.68182 0.03979 0.59386 0.0
C204 C 0.67714 0.02889 0.62738 0.0
C205 C 0.68212 0.02961 0.56156 0.0
C206 C 0.65441 0.97787 0.5216 0.0
H207 H 0.6603 0.98808 0.33345 0.0
H208 H 0.67491 0.0004 0.39411 0.0
H209 H 0.63353 0.95498 0.4829 0.0
H210 H 0.67006 -0.0008 0.65379 0.0
H211 H 0.66995 0.98121 0.59701 0.0
H212 H 0.70426 0.0192 0.50343 0.0
C213 C 0.66386 0.98355 0.39029 0.0
C214 C 0.64937 0.96847 0.48705 0.0
C215 C 0.65533 0.97655 0.35548 0.0
C216 C 0.67366 0.00796 0.62829 0.0
C217 C 0.6736 -0.00233 0.59591 0.0
C218 C 0.68899 0.00489 0.49921 0.0
C219 C 0.65717 0.96924 0.41998 0.0
C220 C 0.66394 0.97733 0.45787 0.0
C221 C 0.67743 0.00829 0.56226 0.0
C222 C 0.67396 0.99652 0.52763 0.0
H223 H 0.62162 0.92404 0.37491 0.0
H224 H 0.63725 0.93596 0.43542 0.0
H225 H 0.69597 0.0022 0.44323 0.0
H226 H 0.6847 0.05598 0.59247 0.0
H227 H 0.6849 0.03804 0.53583 0.0
C228 C 0.64272 0.68167 0.09674 0.0
C229 C 0.64843 0.67675 0.1305 0.0
C230 C 0.65375 0.68231 0.06496 0.0
C231 C 0.67785 0.65476 0.02545 0.0
H232 H 0.69564 0.69687 0.94804 0.0
C233 C 0.69028 0.63294 0.88081 0.0
C234 C 0.68159 0.63953 0.85289 0.0
C235 C 0.69363 0.64206 0.91561 0.0
C236 C 0.69065 0.6849 0.96929 0.0
H237 H 0.67062 0.6695 0.15794 0.0
H238 H 0.68943 0.66986 0.10191 0.0
H239 H 0.68748 0.70516 0.00874 0.0
H240 H 0.67034 0.6613 0.83874 0.0
H241 H 0.6749 0.6763 0.89968 0.0
H242 H 0.679 0.63372 0.98595 0.0
C243 C 0.67664 0.67352 0.10029 0.0
C244 C 0.68619 0.68976 0.00406 0.0
C245 C 0.66587 0.67328 0.1322 0.0
C246 C 0.67707 0.65594 0.85985 0.0
C247 C 0.67993 0.6647 0.89481 0.0
C248 C 0.68185 0.64972 -0.0094 0.0
C249 C 0.67042 0.67769 0.06639 0.0
C250 C 0.67917 0.67448 0.03205 0.0
C251 C 0.68781 0.65755 0.9234 0.0
C252 C 0.68761 0.66446 0.96171 0.0
H253 H 0.62944 0.68456 0.09475 0.0
H254 H 0.64852 0.6853 0.03901 0.0
H255 H 0.67223 0.64264 0.04659 0.0
H256 H 0.69425 0.62055 0.87588 0.0
H257 H 0.70024 0.63652 0.93661 0.0
C258 C 0.02189 0.68953 0.35551 0.0
C259 C 0.03635 0.68197 0.35274 0.0
C260 C 0.01477 0.69199 0.38973 0.0
C261 C 0.02339 0.69083 0.49014 0.0
H262 H 0.96168 0.66312 0.49409 0.0
C263 C 0.95362 0.63304 0.59352 0.0
C264 C 0.96181 0.64335 0.62705 0.0
C265 C 0.96244 0.64358 0.56067 0.0
C266 C 0.97893 0.67103 0.49344 0.0
H267 H 0.05568 0.67228 0.38352 0.0
H268 H 0.04283 0.67593 0.44307 0.0
H269 H 0.97961 0.672 0.4351 0.0
H270 H 0.9849 0.67312 0.65261 0.0
H271 H 0.00028 0.69161 0.59502 0.0
H272 H 0.02254 0.6883 0.54844 0.0
C273 C 0.03722 0.68035 0.41899 0.0
C274 C 0.98927 0.67638 0.45963 0.0
C275 C 0.04445 0.67804 0.38481 0.0
C276 C 0.97839 0.66471 0.62713 0.0
C277 C 0.98722 0.67529 0.5942 0.0
C278 C 0.01304 0.68535 0.52398 0.0
C279 C 0.02187 0.6868 0.4218 0.0
C280 C 0.01155 0.68553 0.45755 0.0
C281 C 0.97959 0.66468 0.56065 0.0
C282 C 0.99064 0.67457 0.52585 0.0
H283 H 0.01561 0.69299 0.33121 0.0
H284 H 0.00321 0.69733 0.39101 0.0
H285 H 0.04061 0.69826 0.48944 0.0
H286 H 0.9408 0.6166 0.59259 0.0
H287 H 0.95641 0.63481 0.53534 0.0
C288 C 0.36525 0.04225 0.8854 0.0
C289 C 0.35339 0.03392 0.85323 0.0
C290 C 0.35608 0.03395 0.91939 0.0
C291 C 0.33129 0.01824 -0.01004 0.0
H292 H 0.30183 0.95639 -0.00648 0.0
C293 C 0.31018 0.97351 0.12698 0.0
C294 C 0.31647 0.95805 0.12935 0.0
C295 C 0.30921 0.98184 0.09308 0.0
C296 C 0.30992 0.97367 -0.00706 0.0
H297 H 0.32226 0.01132 0.83138 0.0
H298 H 0.30617 -0.00305 0.89087 0.0
H299 H 0.31087 0.97442 0.93454 0.0
H300 H 0.32576 0.93846 0.09814 0.0
H301 H 0.3245 0.95327 0.03906 0.0
H302 H 0.33159 0.0175 0.04838 0.0
C303 C 0.32266 0.00962 0.88976 0.0
C304 C 0.31488 0.98401 0.95916 0.0
C305 C 0.33187 0.01788 0.85575 0.0
C306 C 0.32093 0.95042 0.09714 0.0
C307 C 0.32002 0.95878 0.06327 0.0
C308 C 0.32638 0.0079 0.02374 0.0
C309 C 0.33483 0.01722 0.92186 0.0
C310 C 0.32625 0.00641 0.95734 0.0
C311 C 0.31453 0.97485 0.06095 0.0
C312 C 0.31629 0.98553 0.02554 0.0
H313 H 0.38186 0.05467 0.8843 0.0
H314 H 0.36597 0.03996 0.94357 0.0
H315 H 0.33977 0.03552 -0.01063 0.0
H316 H 0.30642 0.97953 0.15137 0.0
H317 H 0.30468 0.99402 0.09207 0.0
C318 C 0.31298 0.3638 0.37949 0.0
C319 C 0.31625 0.35582 0.34655 0.0
C320 C 0.31294 0.35429 0.41273 0.0
C321 C 0.33962 0.33005 0.45446 0.0
H322 H 0.29813 0.31334 0.53289 0.0
C323 C 0.35925 0.31123 0.59606 0.0
C324 C 0.35298 0.31902 0.62591 0.0
C325 C 0.35085 0.31035 0.56138 0.0
C326 C 0.30997 0.31812 0.51139 0.0
H327 H 0.32114 0.33117 0.32223 0.0
H328 H 0.32176 0.31504 0.38054 0.0
H329 H 0.29002 0.32227 0.47276 0.0
H330 H 0.33273 0.33149 0.64351 0.0
H331 H 0.31905 0.33132 0.5828 0.0
H332 H 0.36033 0.32769 0.49298 0.0
C333 C 0.31898 0.32844 0.38048 0.0
C334 C 0.3052 0.32304 0.47699 0.0
C335 C 0.31865 0.3377 0.34725 0.0
C336 C 0.33777 0.32539 0.62086 0.0
C337 C 0.32978 0.32505 0.58602 0.0
C338 C 0.34459 0.32563 0.48893 0.0
C339 C 0.31649 0.3369 0.41344 0.0
C340 C 0.32014 0.32931 0.44852 0.0
C341 C 0.33648 0.31786 0.5557 0.0
C342 C 0.32999 0.31996 0.51807 0.0
H343 H 0.31094 0.37766 0.37963 0.0
H344 H 0.31119 0.36114 0.43798 0.0
H345 H 0.35147 0.33513 0.43289 0.0
H346 H 0.37075 0.30588 0.59953 0.0
H347 H 0.35595 0.30416 0.53895 0.0
C348 C 0.95755 0.63571 0.86264 0.0
C349 C 0.97564 0.64248 0.84028 0.0
C350 C 0.95977 0.64032 0.90001 0.0
C351 C -0.00145 0.67444 0.97063 0.0
H352 H 0.96401 0.62674 0.03485 0.0
C353 C 0.02195 0.66927 0.11879 0.0
C354 C 0.00578 0.65963 0.14531 0.0
C355 C 0.01682 0.66985 0.0822 0.0
C356 C 0.9735 0.64036 0.01739 0.0
H357 H 0.01027 0.65996 0.83947 0.0
H358 H 0.01412 0.66771 0.90472 0.0
H359 H 0.9576 0.62291 0.96925 0.0
H360 H 0.97157 0.64383 0.15441 0.0
H361 H 0.96267 0.64494 0.09044 0.0
H362 H 0.01485 0.69167 0.01885 0.0
C363 C -0.00179 0.65907 0.89328 0.0
C364 C 0.96982 0.63816 0.97977 0.0
C365 C -0.004 0.65447 0.85592 0.0
C366 C 0.98441 0.65123 0.13462 0.0
C367 C 0.97929 0.6518 0.09798 0.0
C368 C 0.00223 0.67664 0.0083 0.0
C369 C 0.98013 0.6518 0.9158 0.0
C370 C 0.98258 0.65503 0.95593 0.0
C371 C -0.00457 0.66082 0.07132 0.0
C372 C 0.99001 0.65947 0.03197 0.0
H373 H 0.94162 0.62659 0.85141 0.0
H374 H 0.94554 0.63474 0.91661 0.0
H375 H 0.0084 0.68783 0.95296 0.0
H376 H 0.03858 0.67595 0.1261 0.0
H377 H 0.02961 0.67668 0.06224 0.0
C378 C 0.31763 0.96168 0.36687 0.0
C379 C 0.32573 0.9781 0.34069 0.0
C380 C 0.31573 0.96609 0.40345 0.0
C381 C 0.34051 0.01061 0.4677 0.0
H382 H 0.29646 0.97141 0.53409 0.0
C383 C 0.34643 0.02786 0.62119 0.0
C384 C 0.34311 0.01075 0.64376 0.0
C385 C 0.3403 0.02439 0.58455 0.0
C386 C 0.30887 0.98248 0.51584 0.0
H387 H 0.33681 0.01173 0.33186 0.0
H388 H 0.33324 0.01933 0.39556 0.0
H389 H 0.29263 0.96429 0.46827 0.0
H390 H 0.32985 0.97643 0.64603 0.0
H391 H 0.3196 0.97043 0.58179 0.0
H392 H 0.35713 0.02843 0.51498 0.0
C393 C 0.32882 0.00315 0.38796 0.0
C394 C 0.30668 0.97842 0.47823 0.0
C395 C 0.33083 -0.00122 0.35147 0.0
C396 C 0.3327 0.98996 0.62931 0.0
C397 C 0.32667 0.9865 0.59257 0.0
C398 C 0.3427 0.01466 0.50516 0.0
C399 C 0.32178 0.98698 0.4145 0.0
C400 C 0.32267 0.99227 0.45386 0.0
C401 C 0.33083 0.00374 0.56962 0.0
C402 C 0.3271 0.00046 0.52971 0.0
H403 H 0.31349 0.94556 0.35941 0.0
H404 H 0.31045 0.95333 0.42331 0.0
H405 H 0.35332 0.02139 0.44976 0.0
H406 H 0.35413 0.04404 0.63163 0.0
H407 H 0.34337 0.03794 0.56768 0.0
C408 C 0.3311 0.33809 0.85151 0.0
C409 C 0.34142 0.32768 0.83676 0.0
C410 C 0.32517 0.33551 0.88833 0.0
C411 C 0.34214 0.32408 0.97501 0.0
H412 H 0.29287 0.32546 0.01364 0.0
C413 C 0.3331 0.33192 0.12884 0.0
C414 C 0.32799 0.3476 0.13887 0.0
C415 C 0.33061 0.32475 0.09278 0.0
C416 C 0.3067 0.32508 0.0032 0.0
H417 H 0.3523 0.30523 0.8484 0.0
H418 H 0.34177 0.3006 0.91258 0.0
H419 H 0.2955 0.32079 0.9479 0.0
H420 H 0.31539 0.36742 0.11925 0.0
H421 H 0.31154 0.35529 0.05605 0.0
H422 H 0.35378 0.32915 0.02978 0.0
C423 C 0.33865 0.31108 0.89583 0.0
C424 C 0.30819 0.32239 0.96565 0.0
C425 C 0.34465 0.31373 0.85906 0.0
C426 C 0.31955 0.35538 0.11237 0.0
C427 C 0.31717 0.34829 0.07621 0.0
C428 C 0.34066 0.32678 0.01243 0.0
C429 C 0.32938 0.32239 0.91107 0.0
C430 C 0.32616 0.32231 0.95111 0.0
C431 C 0.32307 0.33321 0.06591 0.0
C432 C 0.32315 0.32776 0.02685 0.0
H433 H 0.3283 0.34888 0.83502 0.0
H434 H 0.31826 0.34461 0.89934 0.0
H435 H 0.35637 0.32447 0.96463 0.0
H436 H 0.33935 0.32536 0.14872 0.0
H437 H 0.33495 0.31285 0.08579 0.0
C438 C 0.96336 0.32966 0.61006 0.0
C439 C 0.97764 0.3304 0.63666 0.0
C440 C 0.96736 0.32852 0.57303 0.0
C441 C 0.01196 0.33947 0.51006 0.0
H442 H 0.96595 0.31622 0.43945 0.0
C443 C 0.02649 0.36565 0.35998 0.0
C444 C 0.01312 0.35177 0.33277 0.0
C445 C 0.02248 0.35992 0.39679 0.0
C446 C 0.97908 0.32244 0.45862 0.0
H447 H 0.00664 0.32927 0.64583 0.0
H448 H 0.01311 0.32613 0.58125 0.0
H449 H 0.95775 0.30998 0.50403 0.0
H450 H 0.98569 0.32064 0.32226 0.0
H451 H 0.97927 0.31009 0.38637 0.0
H452 H 0.03334 0.35108 0.46462 0.0
C453 C -0.00073 0.32735 0.5887 0.0
C454 C 0.97432 0.31919 0.49589 0.0
C455 C -0.00448 0.32902 0.62574 0.0
C456 C -0.00394 0.33176 0.34284 0.0
C457 C 0.99235 0.32578 0.37962 0.0
C458 C 0.01674 0.34228 0.47278 0.0
C459 C 0.98549 0.32757 0.56178 0.0
C460 C 0.99066 0.32829 0.52216 0.0
C461 C 0.0053 0.33992 0.40717 0.0
C462 C 0.00035 0.33444 0.44657 0.0
H463 H 0.94951 0.33084 0.61776 0.0
H464 H 0.95658 0.3292 0.5533 0.0
H465 H 0.02504 0.34688 0.52928 0.0
H466 H 0.03968 0.38124 0.35291 0.0
H467 H 0.03254 0.37149 0.41706 0.0
C468 C 0.65045 0.99573 0.85364 0.0
C469 C 0.65895 0.01614 0.83808 0.0
C470 C 0.65222 0.99339 0.89116 0.0
C471 C 0.65817 0.02133 0.97765 0.0
H472 H 0.66715 0.97675 0.01745 0.0
C473 C 0.65598 0.00666 0.1328 0.0
C474 C 0.64358 0.98522 0.14359 0.0
C475 C 0.66156 0.01188 0.0961 0.0
C476 C 0.66457 0.98923 0.00671 0.0
H477 H 0.67663 0.05014 0.84956 0.0
H478 H 0.67978 0.046 0.91503 0.0
H479 H 0.67033 0.98333 0.95159 0.0
H480 H 0.62786 0.95242 0.12443 0.0
H481 H 0.63732 0.96155 0.0605 0.0
H482 H 0.65184 0.02688 0.03251 0.0
C483 C 0.67152 0.03182 0.89823 0.0
C484 C 0.66639 0.99299 0.96905 0.0
C485 C 0.66975 0.03417 0.86071 0.0
C486 C 0.63738 0.9691 0.11707 0.0
C487 C 0.64296 0.97433 0.08042 0.0
C488 C 0.65634 0.01757 0.01527 0.0
C489 C 0.66255 0.01141 0.91391 0.0
C490 C 0.66281 0.00881 0.95407 0.0
C491 C 0.65488 0.99577 0.06947 0.0
C492 C 0.65912 0.00121 0.03012 0.0
H493 H 0.64206 0.9815 0.837 0.0
H494 H 0.64491 0.97744 0.9025 0.0
H495 H 0.65504 0.03345 0.9669 0.0
H496 H 0.66115 0.01946 0.15259 0.0
H497 H 0.67097 0.02855 0.08852 0.0
C498 C 0.6319 0.67285 0.36547 0.0
C499 C 0.63992 0.66253 0.34332 0.0
C500 C 0.63564 0.67474 0.40316 0.0
C501 C 0.6696 0.67095 0.47505 0.0
H502 H 0.62007 0.65345 0.53719 0.0
C503 C 0.66401 0.63928 0.62086 0.0
C504 C 0.65353 0.6445 0.64788 0.0
C505 C 0.66441 0.64546 0.5846 0.0
C506 C 0.63416 0.65878 0.52033 0.0
H507 H 0.65872 0.64669 0.34326 0.0
H508 H 0.66501 0.6498 0.40883 0.0
H509 H 0.61723 0.65751 0.47163 0.0
H510 H 0.63573 0.66085 0.65815 0.0
H511 H 0.6365 0.67169 0.59472 0.0
H512 H 0.68636 0.67162 0.52365 0.0
C513 C 0.65602 0.65663 0.39708 0.0
C514 C 0.63253 0.66111 0.48276 0.0
C515 C 0.65225 0.65468 0.3595 0.0
C516 C 0.64384 0.65646 0.63796 0.0
C517 C 0.64422 0.66262 0.60163 0.0
C518 C 0.67123 0.66863 0.51261 0.0
C519 C 0.64755 0.66644 0.41938 0.0
C520 C 0.65009 0.66672 0.45963 0.0
C521 C 0.65433 0.65701 0.57452 0.0
C522 C 0.65339 0.66202 0.53551 0.0
H523 H 0.62243 0.67916 0.35383 0.0
H524 H 0.62907 0.68254 0.41966 0.0
H525 H 0.6835 0.67565 0.45795 0.0
H526 H 0.67166 0.63011 0.62754 0.0
H527 H 0.67207 0.64062 0.56425 0.0
C528 C 0.00788 0.57337 0.25417 0.0
C529 C 0.02716 0.59281 0.25121 0.0
C530 C 0.00749 0.55396 0.24982 0.0
C531 C 0.03944 0.53123 0.21137 0.0
H532 H 0.00208 0.48224 0.271 0.0
C533 C 0.04722 0.4558 0.22127 0.0
C534 C 0.0283 0.43596 0.21943 0.0
C535 C 0.04648 0.47469 0.22361 0.0
C536 C 0.01243 0.49574 0.2539 0.0
H537 H 0.06125 0.60708 0.24236 0.0
H538 H 0.06067 0.57334 0.23585 0.0
H539 H 0.00213 0.51575 0.27922 0.0
H540 H 0.99374 0.42042 0.21839 0.0
H541 H 0.9925 0.4535 0.22284 0.0
H542 H 0.05006 0.51127 0.18673 0.0
C543 C 0.04573 0.57303 0.24049 0.0
C544 C 0.01244 0.51494 0.25854 0.0
C545 C 0.04609 0.5924 0.24449 0.0
C546 C 0.00861 0.43545 0.21971 0.0
C547 C 0.00788 0.45435 0.22247 0.0
C548 C 0.03955 0.5121 0.207 0.0
C549 C 0.0264 0.55355 0.24273 0.0
C550 C 0.02603 0.53296 0.23744 0.0
C551 C 0.02681 0.47415 0.22454 0.0
C552 C 0.02612 0.4942 0.22832 0.0
H553 H 0.99299 0.57312 0.25913 0.0
H554 H 0.99228 0.53931 0.25128 0.0
H555 H 0.04977 0.54462 0.19407 0.0
H556 H 0.06266 0.45677 0.22106 0.0
H557 H 0.06132 0.48973 0.22547 0.0
C558 C 0.43433 0.0112 0.74693 0.0
C559 C 0.43371 0.0303 0.74497 0.0
C560 C 0.45363 0.01137 0.74297 0.0
C561 C 0.51144 0.04591 0.75229 0.0
H562 H 0.51467 0.00465 0.68866 0.0
C563 C 0.59153 0.05009 0.72075 0.0
C564 C 0.5916 0.0307 0.71908 0.0
C565 C 0.5723 0.05022 0.72246 0.0
C566 C 0.514 0.01612 0.7069 0.0
H567 H 0.45295 0.06459 0.73759 0.0
H568 H 0.48664 0.06485 0.73099 0.0
H569 H 0.48096 0.00434 0.69529 0.0
H570 H 0.57147 0.99625 0.7177 0.0
H571 H 0.53802 0.99646 0.72158 0.0
H572 H 0.54428 0.05746 0.76459 0.0
C573 C 0.47217 0.04977 0.73561 0.0
C574 C 0.49469 0.01595 0.71061 0.0
C575 C 0.45285 0.04959 0.73921 0.0
C576 C 0.572 0.01147 0.71877 0.0
C577 C 0.55278 0.0116 0.72079 0.0
C578 C 0.5307 0.04597 0.74885 0.0
C579 C 0.47274 0.03066 0.73733 0.0
C580 C 0.49323 0.03085 0.73333 0.0
C581 C 0.55268 0.03097 0.72286 0.0
C582 C 0.53223 0.03108 0.72609 0.0
H583 H 0.41989 0.99606 0.7513 0.0
H584 H 0.45365 0.99643 0.74476 0.0
H585 H 0.51069 0.05741 0.77036 0.0
H586 H 0.60634 0.0652 0.72077 0.0
H587 H 0.57283 0.06545 0.72334 0.0
C588 C 0.5395 0.59508 0.2235 0.0
C589 C 0.55861 0.59446 0.2225 0.0
C590 C 0.5198 0.57619 0.22455 0.0
C591 C 0.49438 0.51787 0.20749 0.0
H592 H 0.44962 0.51513 0.26985 0.0
C593 C 0.419 0.43858 0.24515 0.0
C594 C 0.39937 0.43812 0.24311 0.0
C595 C 0.43819 0.45783 0.24175 0.0
C596 C 0.46191 0.51573 0.25206 0.0
H597 H 0.57196 0.57344 0.22173 0.0
H598 H 0.53773 0.5406 0.22436 0.0
H599 H 0.48357 0.54841 0.2652 0.0
H600 H 0.38455 0.45762 0.23624 0.0
H601 H 0.41813 0.49126 0.23056 0.0
H602 H 0.47279 0.48502 0.19499 0.0
C603 C 0.53789 0.55565 0.22358 0.0
C604 C 0.48134 0.53481 0.24928 0.0
C605 C 0.55756 0.57452 0.22229 0.0
C606 C 0.39938 0.4574 0.2379 0.0
C607 C 0.4186 0.47668 0.23483 0.0
C608 C 0.47501 0.49876 0.2105 0.0
C609 C 0.51876 0.55623 0.22484 0.0
C610 C 0.49785 0.5361 0.22705 0.0
C611 C 0.43819 0.47707 0.23654 0.0
C612 C 0.4586 0.49747 0.2329 0.0
H613 H 0.53973 0.61017 0.22348 0.0
H614 H 0.50539 0.57724 0.2249 0.0
H615 H 0.50657 0.51837 0.18958 0.0
H616 H 0.41958 0.42404 0.24914 0.0
H617 H 0.45306 0.45769 0.24358 0.0
C618 C 0.94211 0.539 0.72879 0.0
C619 C 0.96144 0.55839 0.72588 0.0
C620 C 0.94201 0.51964 0.73052 0.0
C621 C 0.9756 0.4952 0.7117 0.0
H622 H 0.93555 0.45094 0.7769 0.0
C623 C 0.98049 0.41989 0.74692 0.0
C624 C 0.96122 0.40033 0.74588 0.0
C625 C 0.98049 0.43916 0.74422 0.0
C626 C 0.9467 0.4631 0.75835 0.0
H627 H -0.00415 0.57264 0.72255 0.0
H628 H -0.00431 0.53897 0.72641 0.0
H629 H 0.93565 0.48463 0.77252 0.0
H630 H 0.92681 0.3857 0.74152 0.0
H631 H 0.92686 0.41937 0.73706 0.0
H632 H 0.98684 0.47369 0.69807 0.0
C633 C 0.98056 0.53865 0.72659 0.0
C634 C 0.94673 0.48238 0.75573 0.0
C635 C 0.98066 0.55798 0.72459 0.0
C636 C 0.94194 0.40048 0.74239 0.0
C637 C 0.94194 0.41975 0.74003 0.0
C638 C 0.97567 0.47597 0.71456 0.0
C639 C 0.96124 0.51923 0.72966 0.0
C640 C 0.96116 0.49867 0.73232 0.0
C641 C 0.96121 0.43928 0.74077 0.0
C642 C 0.9612 0.45972 0.73787 0.0
H643 H 0.92701 0.53872 0.72961 0.0
H644 H 0.92681 0.50499 0.73224 0.0
H645 H 0.98669 0.50723 0.69294 0.0
H646 H -0.00438 0.42036 0.74955 0.0
H647 H -0.00444 0.45399 0.74522 0.0
C648 C 0.41753 0.97879 0.23916 0.0
C649 C 0.39787 0.9596 0.23921 0.0
C650 C 0.43665 0.97858 0.24253 0.0
C651 C 0.46047 0.945 0.22704 0.0
H652 H 0.50383 0.98338 0.295 0.0
C653 C 0.5368 0.94066 0.25335 0.0
C654 C 0.55597 0.96002 0.25795 0.0
C655 C 0.51729 0.94027 0.25242 0.0
C656 C 0.49203 0.97275 0.27553 0.0
H657 H 0.38293 0.92512 0.24267 0.0
H658 H 0.41639 0.92479 0.24814 0.0
H659 H 0.47031 0.98356 0.29021 0.0
H660 H 0.5697 0.99419 0.26509 0.0
H661 H 0.53583 0.99359 0.26244 0.0
H662 H 0.48226 0.93451 0.21158 0.0
C663 C 0.41693 0.93997 0.24552 0.0
C664 C 0.47281 0.97283 0.2729 0.0
C665 C 0.39778 0.94019 0.24258 0.0
C666 C 0.55521 0.97897 0.26175 0.0
C667 C 0.53574 0.97861 0.26044 0.0
C668 C 0.47978 0.94507 0.22936 0.0
C669 C 0.43654 0.95917 0.24561 0.0
C670 C 0.45685 0.95895 0.24864 0.0
C671 C 0.51652 0.95926 0.25569 0.0
C672 C 0.49583 0.95896 0.25363 0.0
H673 H 0.41816 0.99402 0.23667 0.0
H674 H 0.45156 0.9936 0.2422 0.0
H675 H 0.44853 0.93432 0.20777 0.0
H676 H 0.53682 0.92575 0.2506 0.0
H677 H 0.50281 0.92503 0.24938 0.0
C678 C 0.59245 0.53664 0.75591 0.0
C679 C 0.59214 0.55571 0.76157 0.0
C680 C 0.57344 0.51705 0.755 0.0
C681 C 0.51589 0.49133 0.7796 0.0
H682 H 0.51023 0.44886 0.70867 0.0
C683 C 0.4349 0.41904 0.73932 0.0
C684 C 0.43377 0.39907 0.73784 0.0
C685 C 0.45449 0.43771 0.74384 0.0
C686 C 0.51167 0.4605 0.72885 0.0
H687 H 0.57157 0.56914 0.77068 0.0
H688 H 0.53848 0.53517 0.76805 0.0
H689 H 0.54395 0.48233 0.71364 0.0
H690 H 0.45237 0.38307 0.73968 0.0
H691 H 0.48669 0.41582 0.74707 0.0
H692 H 0.48333 0.46964 0.79393 0.0
C693 C 0.5534 0.5352 0.76522 0.0
C694 C 0.53101 0.47965 0.73183 0.0
C695 C 0.57241 0.55474 0.7665 0.0
C696 C 0.4527 0.3982 0.74077 0.0
C697 C 0.47234 0.41693 0.74483 0.0
C698 C 0.4965 0.47228 0.77631 0.0
C699 C 0.55366 0.5161 0.75937 0.0
C700 C 0.53333 0.49537 0.75711 0.0
C701 C 0.47341 0.43684 0.74654 0.0
C702 C 0.49418 0.45673 0.75079 0.0
H703 H 0.6074 0.53682 0.75227 0.0
H704 H 0.57428 0.50265 0.75106 0.0
H705 H 0.5172 0.50285 0.79988 0.0
H706 H 0.42062 0.42027 0.73723 0.0
H707 H 0.45489 0.45288 0.74471 0.0
C708 C 0.12493 0.38997 0.26419 0.0
C709 C 0.1208 0.40562 0.25034 0.0
C710 C 0.14577 0.39382 0.26648 0.0
C711 C 0.19831 0.42629 0.22375 0.0
H712 H 0.2144 0.39829 0.2972 0.0
C713 C 0.27857 0.42408 0.2313 0.0
C714 C 0.27458 0.40294 0.23077 0.0
C715 C 0.26168 0.42819 0.23483 0.0
C716 C 0.21015 0.40634 0.27672 0.0
H717 H 0.13531 0.43803 0.22972 0.0
H718 H 0.17194 0.44491 0.23431 0.0
H719 H 0.18172 0.39983 0.30518 0.0
H720 H 0.24982 0.3696 0.23244 0.0
H721 H 0.22055 0.37687 0.23933 0.0
H722 H 0.2269 0.43257 0.19532 0.0
C723 C 0.15897 0.42951 0.24278 0.0
C724 C 0.19143 0.40714 0.28113 0.0
C725 C 0.13802 0.42561 0.24035 0.0
C726 C 0.25343 0.38605 0.23273 0.0
C727 C 0.23668 0.39017 0.23689 0.0
C728 C 0.21727 0.42575 0.21965 0.0
C729 C 0.16304 0.41349 0.25523 0.0
C730 C 0.18484 0.41636 0.25399 0.0
C731 C 0.24071 0.41123 0.23857 0.0
C732 C 0.22286 0.4151 0.24548 0.0
H733 H 0.11202 0.3744 0.2721 0.0
H734 H 0.14821 0.38095 0.27561 0.0
H735 H 0.19365 0.43339 0.2022 0.0
H736 H 0.29473 0.43739 0.22979 0.0
H737 H 0.26505 0.44456 0.23595 0.0
C738 C 0.86774 0.25398 0.7333 0.0
C739 C 0.87168 0.27504 0.7318 0.0
C740 C 0.84698 0.23698 0.73667 0.0
C741 C 0.792 0.21724 0.71776 0.0
H742 H 0.78206 0.18011 0.80099 0.0
C743 C 0.7129 0.13746 0.73572 0.0
C744 C 0.71557 0.12009 0.74514 0.0
C745 C 0.73003 0.15835 0.7383 0.0
C746 C 0.78456 0.19026 0.77755 0.0
H747 H 0.8569 0.29479 0.73091 0.0
H748 H 0.82024 0.26467 0.7357 0.0
H749 H 0.8161 0.21315 0.79495 0.0
H750 H 0.73804 0.11099 0.76554 0.0
H751 H 0.76782 0.14712 0.76929 0.0
H752 H 0.76101 0.19375 0.69904 0.0
C753 C 0.83341 0.26157 0.73482 0.0
C754 C 0.80398 0.20918 0.77426 0.0
C755 C 0.85432 0.2787 0.73209 0.0
C756 C 0.73544 0.12402 0.75814 0.0
C757 C 0.75251 0.14481 0.76058 0.0
C758 C 0.77261 0.19809 0.72076 0.0
C759 C 0.82971 0.24066 0.73802 0.0
C760 C 0.80805 0.22249 0.74385 0.0
C761 C 0.75011 0.16223 0.75033 0.0
C762 C 0.76897 0.18407 0.75013 0.0
H763 H 0.88075 0.25062 0.73317 0.0
H764 H 0.84439 0.2209 0.73868 0.0
H765 H 0.79491 0.22732 0.69407 0.0
H766 H 0.69772 0.1349 0.72574 0.0
H767 H 0.72761 0.17144 0.73054 0.0
C768 C 0.57636 0.7168 0.2269 0.0
C769 C 0.59724 0.72026 0.22964 0.0
C770 C 0.57289 0.73405 0.22227 0.0
C771 C 0.59813 0.78757 0.18466 0.0
H772 H 0.56493 0.79986 0.25373 0.0
C773 C 0.61117 0.87155 0.2035 0.0
C774 C 0.59423 0.87452 0.21446 0.0
C775 C 0.6082 0.85107 0.19968 0.0
C776 C 0.57383 0.79643 0.23362 0.0
H777 H 0.63079 0.7444 0.23017 0.0
H778 H 0.6247 0.77433 0.22146 0.0
H779 H 0.56571 0.76657 0.25904 0.0
H780 H 0.56055 0.85835 0.22814 0.0
H781 H 0.55522 0.82241 0.22072 0.0
H782 H 0.60641 0.81729 0.15921 0.0
C783 C 0.61107 0.75834 0.22297 0.0
C784 C 0.57433 0.77743 0.23683 0.0
C785 C 0.61452 0.74122 0.22822 0.0
C786 C 0.57396 0.85655 0.21987 0.0
C787 C 0.57093 0.83597 0.21583 0.0
C788 C 0.5974 0.80638 0.18109 0.0
C789 C 0.59027 0.75489 0.21959 0.0
C790 C 0.58706 0.77323 0.21311 0.0
C791 C 0.58814 0.83301 0.20643 0.0
C792 C 0.58586 0.81142 0.20632 0.0
H793 H 0.56274 0.7008 0.22794 0.0
H794 H 0.55672 0.73108 0.21984 0.0
H795 H 0.60779 0.78445 0.16569 0.0
H796 H 0.627 0.88507 0.19917 0.0
H797 H 0.62192 0.84947 0.193 0.0
C798 C 0.85523 0.5755 0.73369 0.0
C799 C 0.87283 0.59568 0.74143 0.0
C800 C 0.83455 0.57247 0.73387 0.0
C801 C 0.80363 0.59815 0.76465 0.0
H802 H 0.76557 0.56643 0.68483 0.0
C803 C 0.73714 0.61285 0.71836 0.0
C804 C 0.71644 0.59531 0.72204 0.0
C805 C 0.7548 0.61001 0.7199 0.0
C806 C 0.77601 0.57512 0.70741 0.0
H807 H 0.88257 0.62839 0.75597 0.0
H808 H 0.84686 0.62329 0.7555 0.0
H809 H 0.79933 0.56656 0.69194 0.0
H810 H 0.69792 0.56086 0.72763 0.0
H811 H 0.7291 0.55591 0.72939 0.0
H812 H 0.78083 0.6076 0.77887 0.0
C813 C 0.84879 0.60963 0.75005 0.0
C814 C 0.79524 0.57513 0.71167 0.0
C815 C 0.86935 0.61261 0.75007 0.0
C816 C 0.7137 0.57468 0.72484 0.0
C817 C 0.73145 0.57182 0.72583 0.0
C818 C 0.78466 0.5984 0.76004 0.0
C819 C 0.83114 0.58958 0.74173 0.0
C820 C 0.80951 0.5871 0.73983 0.0
C821 C 0.7521 0.58957 0.72456 0.0
C822 C 0.77096 0.58729 0.73096 0.0
H823 H 0.85745 0.56214 0.727 0.0
H824 H 0.82127 0.55678 0.72771 0.0
H825 H 0.81395 0.60706 0.7872 0.0
H826 H 0.73979 0.62893 0.71609 0.0
H827 H 0.77064 0.62389 0.71853 0.0
C828 C 0.27506 0.85375 0.24191 0.0
C829 C 0.27182 0.87137 0.24291 0.0
C830 C 0.25775 0.83309 0.23728 0.0
C831 C 0.20545 0.80552 0.1956 0.0
H832 H 0.19013 0.75984 0.26555 0.0
C833 C 0.12034 0.73629 0.20938 0.0
C834 C 0.11653 0.7161 0.22043 0.0
C835 C 0.14111 0.7534 0.20693 0.0
C836 C 0.19443 0.77223 0.24523 0.0
H837 H 0.24793 0.88115 0.24085 0.0
H838 H 0.21794 0.84525 0.23223 0.0
H839 H 0.22362 0.79352 0.27288 0.0
H840 H 0.13152 0.69772 0.23586 0.0
H841 H 0.16798 0.72768 0.231 0.0
H842 H 0.17637 0.78457 0.168 0.0
C843 C 0.23381 0.84742 0.23499 0.0
C844 C 0.21354 0.7915 0.24959 0.0
C845 C 0.25097 0.86792 0.24019 0.0
C846 C 0.13398 0.71314 0.22743 0.0
C847 C 0.15484 0.73031 0.22486 0.0
C848 C 0.18654 0.78622 0.19095 0.0
C849 C 0.23709 0.82989 0.23293 0.0
C850 C 0.21878 0.8085 0.2255 0.0
C851 C 0.15861 0.75073 0.21525 0.0
C852 C 0.18041 0.76963 0.21647 0.0
H853 H 0.29097 0.85595 0.24398 0.0
H854 H 0.26057 0.81973 0.2359 0.0
H855 H 0.2094 0.81835 0.17634 0.0
H856 H 0.10725 0.7391 0.20383 0.0
H857 H 0.14335 0.76895 0.20003 0.0
C858 C 0.37583 0.25198 0.7412 0.0
C859 C 0.39327 0.27283 0.74327 0.0
C860 C 0.37909 0.23466 0.73743 0.0
C861 C 0.41507 0.21473 0.75413 0.0
H862 H 0.38458 0.17604 0.67425 0.0
C863 C 0.41612 0.13598 0.73279 0.0
C864 C 0.39597 0.1181 0.72615 0.0
C865 C 0.41905 0.15659 0.73057 0.0
C866 C 0.39314 0.18663 0.69676 0.0
H867 H 0.42782 0.29184 0.74476 0.0
H868 H 0.43347 0.2612 0.73906 0.0
H869 H 0.38325 0.20888 0.68123 0.0
H870 H 0.36327 0.10777 0.71089 0.0
H871 H 0.36821 0.14342 0.70768 0.0
H872 H 0.42406 0.19197 0.77086 0.0
C873 C 0.41733 0.25848 0.7399 0.0
C874 C 0.39242 0.20542 0.70065 0.0
C875 C 0.41408 0.27593 0.74314 0.0
C876 C 0.37901 0.12122 0.71613 0.0
C877 C 0.3819 0.14172 0.714 0.0
C878 C 0.41559 0.19573 0.75052 0.0
C879 C 0.39984 0.23778 0.73614 0.0
C880 C 0.40291 0.21933 0.72988 0.0
C881 C 0.40187 0.15965 0.72163 0.0
C882 C 0.40412 0.1812 0.72236 0.0
H883 H 0.35961 0.24906 0.74126 0.0
H884 H 0.36536 0.21877 0.73511 0.0
H885 H 0.42326 0.22527 0.77689 0.0
H886 H 0.42952 0.13405 0.74047 0.0
H887 H 0.43468 0.17009 0.73622 0.0
loop_
_geom_bond_atom_site_label_1
_geom_bond_atom_site_label_2
_geom_bond_distance
_geom_bond_site_symmetry_2
_ccdc_geom_bond_type
C0 O1 1.306 . S
C0 O3 1.160 . S
O1 C0 1.306 . S
O1 Cd2 2.228 . S
Cd2 O1 2.228 . S
Cd2 O6 2.273 . S
Cd2 O10 2.277 . S
O3 C0 1.160 . S
O3 Cd4 2.203 . S
Cd4 O3 2.203 . S
Cd4 O6 2.411 . S
Cd4 O7 2.333 . S
Cd4 O8 2.352 . S
Cd4 O12 2.277 . S
Cd4 O13 2.356 . S
C5 O10 1.209 . S
C5 O12 1.226 . S
O6 Cd2 2.273 . S
O6 Cd4 2.411 . S
O6 C9 1.320 . S
O7 Cd4 2.333 . S
O7 C9 1.214 . S
O8 Cd4 2.352 . S
O8 C11 1.258 . S
C9 O6 1.320 . S
C9 O7 1.214 . S
O10 Cd2 2.277 . S
O10 C5 1.209 . S
C11 O8 1.258 . S
C11 O13 1.282 . S
O12 Cd4 2.277 . S
O12 C5 1.226 . S
O13 Cd4 2.356 . S
O13 C11 1.282 . S
C14 O15 1.306 . S
C14 O17 1.160 . S
O15 C14 1.306 . S
O15 Cd16 2.228 . S
Cd16 O15 2.228 . S
Cd16 O20 2.273 . S
Cd16 O24 2.277 . S
O17 C14 1.160 . S
O17 Cd18 2.203 . S
Cd18 O17 2.203 . S
Cd18 O20 2.411 . S
Cd18 O21 2.333 . S
Cd18 O22 2.352 . S
Cd18 O26 2.277 . S
Cd18 O27 2.356 . S
C19 O24 1.209 . S
C19 O26 1.226 . S
O20 Cd16 2.273 . S
O20 Cd18 2.411 . S
O20 C23 1.320 . S
O21 Cd18 2.333 . S
O21 C23 1.214 . S
O22 Cd18 2.352 . S
O22 C25 1.258 . S
C23 O20 1.320 . S
C23 O21 1.214 . S
O24 Cd16 2.277 . S
O24 C19 1.209 . S
C25 O22 1.258 . S
C25 O27 1.282 . S
O26 Cd18 2.277 . S
O26 C19 1.226 . S
O27 Cd18 2.356 . S
O27 C25 1.282 . S
C28 O29 1.306 . S
C28 O31 1.160 . S
O29 C28 1.306 . S
O29 Cd30 2.228 . S
Cd30 O29 2.228 . S
Cd30 O34 2.273 . S
Cd30 O38 2.277 . S
O31 C28 1.160 . S
O31 Cd32 2.203 . S
Cd32 O31 2.203 . S
Cd32 O34 2.411 . S
Cd32 O35 2.333 . S
Cd32 O36 2.352 . S
Cd32 O40 2.277 . S
Cd32 O41 2.356 . S
C33 O38 1.209 . S
C33 O40 1.226 . S
O34 Cd30 2.273 . S
O34 Cd32 2.411 . S
O34 C37 1.320 . S
O35 Cd32 2.333 . S
O35 C37 1.214 . S
O36 Cd32 2.352 . S
O36 C39 1.258 . S
C37 O34 1.320 . S
C37 O35 1.214 . S
O38 Cd30 2.277 . S
O38 C33 1.209 . S
C39 O36 1.258 . S
C39 O41 1.282 . S
O40 Cd32 2.277 . S
O40 C33 1.226 . S
O41 Cd32 2.356 . S
O41 C39 1.282 . S
C42 O43 1.306 . S
C42 O45 1.160 . S
O43 C42 1.306 . S
O43 Cd44 2.228 . S
Cd44 O43 2.228 . S
Cd44 O48 2.273 . S
Cd44 O52 2.277 . S
O45 C42 1.160 . S
O45 Cd46 2.203 . S
Cd46 O45 2.203 . S
Cd46 O48 2.411 . S
Cd46 O49 2.333 . S
Cd46 O50 2.352 . S
Cd46 O54 2.277 . S
Cd46 O55 2.356 . S
C47 O52 1.209 . S
C47 O54 1.226 . S
O48 Cd44 2.273 . S
O48 Cd46 2.411 . S
O48 C51 1.320 . S
O49 Cd46 2.333 . S
O49 C51 1.214 . S
O50 Cd46 2.352 . S
O50 C53 1.258 . S
C51 O48 1.320 . S
C51 O49 1.214 . S
O52 Cd44 2.277 . S
O52 C47 1.209 . S
C53 O50 1.258 . S
C53 O55 1.282 . S
O54 Cd46 2.277 . S
O54 C47 1.226 . S
O55 Cd46 2.356 . S
O55 C53 1.282 . S
C56 O57 1.306 . S
C56 O59 1.160 . S
O57 C56 1.306 . S
O57 Cd58 2.228 . S
Cd58 O57 2.228 . S
Cd58 O62 2.273 . S
Cd58 O66 2.277 . S
O59 C56 1.160 . S
O59 Cd60 2.203 . S
Cd60 O59 2.203 . S
Cd60 O62 2.411 . S
Cd60 O63 2.333 . S
Cd60 O64 2.352 . S
Cd60 O68 2.277 . S
Cd60 O69 2.356 . S
C61 O66 1.209 . S
C61 O68 1.226 . S
O62 Cd58 2.273 . S
O62 Cd60 2.411 . S
O62 C65 1.320 . S
O63 Cd60 2.333 . S
O63 C65 1.214 . S
O64 Cd60 2.352 . S
O64 C67 1.258 . S
C65 O62 1.320 . S
C65 O63 1.214 . S
O66 Cd58 2.277 . S
O66 C61 1.209 . S
C67 O64 1.258 . S
C67 O69 1.282 . S
O68 Cd60 2.277 . S
O68 C61 1.226 . S
O69 Cd60 2.356 . S
O69 C67 1.282 . S
C70 O71 1.306 . S
C70 O73 1.160 . S
O71 C70 1.306 . S
O71 Cd72 2.228 . S
Cd72 O71 2.228 . S
Cd72 O76 2.273 . S
Cd72 O80 2.277 . S
O73 C70 1.160 . S
O73 Cd74 2.203 . S
Cd74 O73 2.203 . S
Cd74 O76 2.411 . S
Cd74 O77 2.333 . S
Cd74 O78 2.352 . S
Cd74 O82 2.277 . S
Cd74 O83 2.356 . S
C75 O80 1.209 . S
C75 O82 1.226 . S
O76 Cd72 2.273 . S
O76 Cd74 2.411 . S
O76 C79 1.320 . S
O77 Cd74 2.333 . S
O77 C79 1.214 . S
O78 Cd74 2.352 . S
O78 C81 1.258 . S
C79 O76 1.320 . S
C79 O77 1.214 . S
O80 Cd72 2.277 . S
O80 C75 1.209 . S
C81 O78 1.258 . S
C81 O83 1.282 . S
O82 Cd74 2.277 . S
O82 C75 1.226 . S
O83 Cd74 2.356 . S
O83 C81 1.282 . S
C84 O85 1.306 . S
C84 O87 1.160 . S
O85 C84 1.306 . S
O85 Cd86 2.228 . S
Cd86 O85 2.228 . S
Cd86 O90 2.273 . S
Cd86 O94 2.277 . S
O87 C84 1.160 . S
O87 Cd88 2.203 . S
Cd88 O87 2.203 . S
Cd88 O90 2.411 . S
Cd88 O91 2.333 . S
Cd88 O92 2.352 . S
Cd88 O96 2.277 . S
Cd88 O97 2.356 . S
C89 O94 1.209 . S
C89 O96 1.226 . S
O90 Cd86 2.273 . S
O90 Cd88 2.411 . S
O90 C93 1.320 . S
O91 Cd88 2.333 . S
O91 C93 1.214 . S
O92 Cd88 2.352 . S
O92 C95 1.258 . S
C93 O90 1.320 . S
C93 O91 1.214 . S
O94 Cd86 2.277 . S
O94 C89 1.209 . S
C95 O92 1.258 . S
C95 O97 1.282 . S
O96 Cd88 2.277 . S
O96 C89 1.226 . S
O97 Cd88 2.356 . S
O97 C95 1.282 . S
C98 O99 1.306 . S
C98 O101 1.160 . S
O99 C98 1.306 . S
O99 Cd100 2.228 . S
Cd100 O99 2.228 . S
Cd100 O104 2.273 . S
Cd100 O108 2.277 . S
O101 C98 1.160 . S
O101 Cd102 2.203 . S
Cd102 O101 2.203 . S
Cd102 O104 2.411 . S
Cd102 O105 2.333 . S
Cd102 O106 2.352 . S
Cd102 O110 2.277 . S
Cd102 O111 2.356 . S
C103 O108 1.209 . S
C103 O110 1.226 . S
O104 Cd100 2.273 . S
O104 Cd102 2.411 . S
O104 C107 1.320 . S
O105 Cd102 2.333 . S
O105 C107 1.214 . S
O106 Cd102 2.352 . S
O106 C109 1.258 . S
C107 O104 1.320 . S
C107 O105 1.214 . S
O108 Cd100 2.277 . S
O108 C103 1.209 . S
C109 O106 1.258 . S
C109 O111 1.282 . S
O110 Cd102 2.277 . S
O110 C103 1.226 . S
O111 Cd102 2.356 . S
O111 C109 1.282 . S
C112 O113 1.306 . S
C112 O115 1.160 . S
O113 C112 1.306 . S
O113 Cd114 2.228 . S
Cd114 O113 2.228 . S
Cd114 O118 2.273 . S
Cd114 O122 2.277 . S
O115 C112 1.160 . S
O115 Cd116 2.203 . S
Cd116 O115 2.203 . S
Cd116 O118 2.411 . S
Cd116 O119 2.333 . S
Cd116 O120 2.352 . S
Cd116 O124 2.277 . S
Cd116 O125 2.356 . S
C117 O122 1.209 . S
C117 O124 1.226 . S
O118 Cd114 2.273 . S
O118 Cd116 2.411 . S
O118 C121 1.320 . S
O119 Cd116 2.333 . S
O119 C121 1.214 . S
O120 Cd116 2.352 . S
O120 C123 1.258 . S
C121 O118 1.320 . S
C121 O119 1.214 . S
O122 Cd114 2.277 . S
O122 C117 1.209 . S
C123 O120 1.258 . S
C123 O125 1.282 . S
O124 Cd116 2.277 . S
O124 C117 1.226 . S
O125 Cd116 2.356 . S
O125 C123 1.282 . S
C126 O127 1.306 . S
C126 O129 1.160 . S
O127 C126 1.306 . S
O127 Cd128 2.228 . S
Cd128 O127 2.228 . S
Cd128 O132 2.273 . S
Cd128 O136 2.277 . S
O129 C126 1.160 . S
O129 Cd130 2.203 . S
Cd130 O129 2.203 . S
Cd130 O132 2.411 . S
Cd130 O133 2.333 . S
Cd130 O134 2.352 . S
Cd130 O138 2.277 . S
Cd130 O139 2.356 . S
C131 O136 1.209 . S
C131 O138 1.226 . S
O132 Cd128 2.273 . S
O132 Cd130 2.411 . S
O132 C135 1.320 . S
O133 Cd130 2.333 . S
O133 C135 1.214 . S
O134 Cd130 2.352 . S
O134 C137 1.258 . S
C135 O132 1.320 . S
C135 O133 1.214 . S
O136 Cd128 2.277 . S
O136 C131 1.209 . S
C137 O134 1.258 . S
C137 O139 1.282 . S
O138 Cd130 2.277 . S
O138 C131 1.226 . S
O139 Cd130 2.356 . S
O139 C137 1.282 . S
C140 O141 1.306 . S
C140 O143 1.160 . S
O141 C140 1.306 . S
O141 Cd142 2.228 . S
Cd142 O141 2.228 . S
Cd142 O146 2.273 . S
Cd142 O150 2.277 . S
O143 C140 1.160 . S
O143 Cd144 2.203 . S
Cd144 O143 2.203 . S
Cd144 O146 2.411 . S
Cd144 O147 2.333 . S
Cd144 O148 2.352 . S
Cd144 O152 2.277 . S
Cd144 O153 2.356 . S
C145 O150 1.209 . S
C145 O152 1.226 . S
O146 Cd142 2.273 . S
O146 Cd144 2.411 . S
O146 C149 1.320 . S
O147 Cd144 2.333 . S
O147 C149 1.214 . S
O148 Cd144 2.352 . S
O148 C151 1.258 . S
C149 O146 1.320 . S
C149 O147 1.214 . S
O150 Cd142 2.277 . S
O150 C145 1.209 . S
C151 O148 1.258 . S
C151 O153 1.282 . S
O152 Cd144 2.277 . S
O152 C145 1.226 . S
O153 Cd144 2.356 . S
O153 C151 1.282 . S
C154 O155 1.306 . S
C154 O157 1.160 . S
O155 C154 1.306 . S
O155 Cd156 2.228 . S
Cd156 O155 2.228 . S
Cd156 O160 2.273 . S
Cd156 O164 2.277 . S
O157 C154 1.160 . S
O157 Cd158 2.203 . S
Cd158 O157 2.203 . S
Cd158 O160 2.411 . S
Cd158 O161 2.333 . S
Cd158 O162 2.352 . S
Cd158 O166 2.277 . S
Cd158 O167 2.356 . S
C159 O164 1.209 . S
C159 O166 1.226 . S
O160 Cd156 2.273 . S
O160 Cd158 2.411 . S
O160 C163 1.320 . S
O161 Cd158 2.333 . S
O161 C163 1.214 . S
O162 Cd158 2.352 . S
O162 C165 1.258 . S
C163 O160 1.320 . S
C163 O161 1.214 . S
O164 Cd156 2.277 . S
O164 C159 1.209 . S
C165 O162 1.258 . S
C165 O167 1.282 . S
O166 Cd158 2.277 . S
O166 C159 1.226 . S
O167 Cd158 2.356 . S
O167 C165 1.282 . S
C168 C169 1.349 . S
C168 C170 1.327 . S
C168 H193 0.950 1_455 S
C169 C168 1.349 . S
C169 C185 1.349 . S
C170 C168 1.327 . S
C170 C189 1.429 . S
C170 H194 0.950 1_455 S
C171 C188 1.574 1_554 S
C171 C190 1.368 . S
C171 H195 0.949 . S
H172 C176 0.949 . S
C173 C174 1.349 . S
C173 C175 1.327 . S
C173 H196 0.932 1_655 S
C174 C173 1.349 . S
C174 C186 1.349 . S
C175 C173 1.327 . S
C175 C191 1.429 . S
C175 H197 0.950 1_655 S
C176 H172 0.949 . S
C176 C184 1.574 1_556 S
C176 C192 1.368 . S
H177 C185 0.950 . S
H178 C183 0.950 . S
H179 C184 0.949 . S
H180 C186 0.950 . S
H181 C187 0.950 . S
H182 C188 0.949 . S
C183 H178 0.950 . S
C183 C185 1.327 . S
C183 C189 1.429 . S
C184 C176 1.574 1_554 S
C184 H179 0.949 . S
C184 C190 1.368 1_655 S
C185 C169 1.349 . S
C185 H177 0.950 . S
C185 C183 1.327 . S
C186 C174 1.349 . S
C186 H180 0.950 . S
C186 C187 1.327 . S
C187 H181 0.950 . S
C187 C186 1.327 . S
C187 C191 1.429 . S
C188 C171 1.574 1_556 S
C188 H182 0.949 . S
C188 C192 1.368 1_455 S
C189 C170 1.429 . S
C189 C183 1.429 . S
C189 C190 1.523 . S
C190 C171 1.368 . S
C190 C184 1.368 1_455 S
C190 C189 1.523 . S
C191 C175 1.429 . S
C191 C187 1.429 . S
C191 C192 1.523 . S
C192 C176 1.368 . S
C192 C188 1.368 1_655 S
C192 C191 1.523 . S
H193 C168 0.950 1_655 S
H194 C170 0.950 1_655 S
H195 C171 0.949 . S
H196 C173 0.932 1_455 S
H197 C175 0.950 1_455 S
C198 C199 1.349 . S
C198 C200 1.327 . S
C198 H223 0.950 . S
C199 C198 1.349 . S
C199 C215 1.349 . S
C200 C198 1.327 . S
C200 C219 1.429 . S
C200 H224 0.950 . S
C201 C218 1.574 . S
C201 C220 1.368 1_545 S
C201 H225 0.949 . S
H202 C206 0.949 . S
C203 C204 1.349 . S
C203 C205 1.327 . S
C203 H226 0.950 . S
C204 C203 1.349 . S
C204 C216 1.349 . S
C205 C203 1.327 . S
C205 C221 1.429 . S
C205 H227 0.950 . S
C206 H202 0.949 . S
C206 C214 1.574 . S
C206 C222 1.368 1_565 S
H207 C215 0.932 1_545 S
H208 C213 0.950 1_545 S
H209 C214 0.949 . S
H210 C216 0.932 1_565 S
H211 C217 0.950 1_565 S
H212 C218 0.949 . S
C213 H208 0.950 1_565 S
C213 C215 1.327 . S
C213 C219 1.429 . S
C214 C206 1.574 . S
C214 H209 0.949 . S
C214 C220 1.368 . S
C215 C199 1.349 . S
C215 H207 0.932 1_565 S
C215 C213 1.327 . S
C216 C204 1.349 . S
C216 H210 0.932 1_545 S
C216 C217 1.327 . S
C217 H211 0.950 1_545 S
C217 C216 1.327 . S
C217 C221 1.429 . S
C218 C201 1.574 . S
C218 H212 0.949 . S
C218 C222 1.368 . S
C219 C200 1.429 . S
C219 C213 1.429 . S
C219 C220 1.523 . S
C220 C201 1.368 1_565 S
C220 C214 1.368 . S
C220 C219 1.523 . S
C221 C205 1.429 . S
C221 C217 1.429 . S
C221 C222 1.523 . S
C222 C206 1.368 1_545 S
C222 C218 1.368 . S
C222 C221 1.523 . S
H223 C198 0.950 . S
H224 C200 0.950 . S
H225 C201 0.949 . S
H226 C203 0.950 . S
H227 C205 0.950 . S
C228 C229 1.349 . S
C228 C230 1.327 . S
C228 H253 0.950 . S
C229 C228 1.349 . S
C229 C245 1.349 . S
C230 C228 1.327 . S
C230 C249 1.429 . S
C230 H254 0.950 . S
C231 C248 1.574 1_554 S
C231 C250 1.368 . S
C231 H255 0.949 . S
H232 C236 0.949 . S
C233 C234 1.349 . S
C233 C235 1.327 . S
C233 H256 0.950 . S
C234 C233 1.349 . S
C234 C246 1.349 . S
C235 C233 1.327 . S
C235 C251 1.429 . S
C235 H257 0.950 . S
C236 H232 0.949 . S
C236 C244 1.574 1_556 S
C236 C252 1.368 . S
H237 C245 0.950 . S
H238 C243 0.950 . S
H239 C244 0.949 . S
H240 C246 0.950 . S
H241 C247 0.950 . S
H242 C248 0.949 . S
C243 H238 0.950 . S
C243 C245 1.327 . S
C243 C249 1.429 . S
C244 C236 1.574 1_554 S
C244 H239 0.949 . S
C244 C250 1.368 . S
C245 C229 1.349 . S
C245 H237 0.950 . S
C245 C243 1.327 . S
C246 C234 1.349 . S
C246 H240 0.950 . S
C246 C247 1.327 . S
C247 H241 0.950 . S
C247 C246 1.327 . S
C247 C251 1.429 . S
C248 C231 1.574 1_556 S
C248 H242 0.949 . S
C248 C252 1.368 . S
C249 C230 1.429 . S
C249 C243 1.429 . S
C249 C250 1.523 . S
C250 C231 1.368 . S
C250 C244 1.368 . S
C250 C249 1.523 . S
C251 C235 1.429 . S
C251 C247 1.429 . S
C251 C252 1.523 . S
C252 C236 1.368 . S
C252 C248 1.368 . S
C252 C251 1.523 . S
H253 C228 0.950 . S
H254 C230 0.950 . S
H255 C231 0.949 . S
H256 C233 0.950 . S
H257 C235 0.950 . S
C258 C259 1.349 . S
C258 C260 1.327 . S
C258 H283 0.950 . S
C259 C258 1.349 . S
C259 C275 1.349 . S
C260 C258 1.327 . S
C260 C279 1.429 . S
C260 H284 0.950 . S
C261 C278 1.590 . S
C261 C280 1.368 . S
C261 H285 0.949 . S
H262 C266 0.949 . S
C263 C264 1.349 . S
C263 C265 1.327 . S
C263 H286 0.950 . S
C264 C263 1.349 . S
C264 C276 1.349 . S
C265 C263 1.327 . S
C265 C281 1.429 . S
C265 H287 0.950 . S
C266 H262 0.949 . S
C266 C274 1.590 . S
C266 C282 1.368 . S
H267 C275 0.950 . S
H268 C273 0.950 . S
H269 C274 0.976 . S
H270 C276 0.950 . S
H271 C277 0.950 . S
H272 C278 0.976 . S
C273 H268 0.950 . S
C273 C275 1.327 . S
C273 C279 1.429 . S
C274 C266 1.590 . S
C274 H269 0.976 . S
C274 C280 1.326 1_655 S
C275 C259 1.349 . S
C275 H267 0.950 . S
C275 C273 1.327 . S
C276 C264 1.349 . S
C276 H270 0.950 . S
C276 C277 1.327 . S
C277 H271 0.950 . S
C277 C276 1.327 . S
C277 C281 1.429 . S
C278 C261 1.590 . S
C278 H272 0.976 . S
C278 C282 1.325 1_455 S
C279 C260 1.429 . S
C279 C273 1.429 . S
C279 C280 1.523 . S
C280 C261 1.368 . S
C280 C274 1.326 1_455 S
C280 C279 1.523 . S
C281 C265 1.429 . S
C281 C277 1.429 . S
C281 C282 1.523 . S
C282 C266 1.368 . S
C282 C278 1.325 1_655 S
C282 C281 1.523 . S
H283 C258 0.950 . S
H284 C260 0.950 . S
H285 C261 0.949 . S
H286 C263 0.950 . S
H287 C265 0.950 . S
C288 C289 1.349 . S
C288 C290 1.327 . S
C288 H313 0.950 . S
C289 C288 1.349 . S
C289 C305 1.349 . S
C290 C288 1.327 . S
C290 C309 1.429 . S
C290 H314 0.911 1_545 S
C291 C308 1.574 1_556 S
C291 C310 1.368 . S
C291 H315 0.949 . S
H292 C296 0.949 . S
C293 C294 1.349 . S
C293 C295 1.327 . S
C293 H316 0.950 . S
C294 C293 1.349 . S
C294 C306 1.349 . S
C295 C293 1.327 . S
C295 C311 1.429 . S
C295 H317 0.911 1_565 S
C296 H292 0.949 . S
C296 C304 1.574 1_554 S
C296 C312 1.368 . S
H297 C305 0.950 . S
H298 C303 0.950 . S
H299 C304 0.949 . S
H300 C306 0.950 . S
H301 C307 0.950 . S
H302 C308 0.949 . S
C303 H298 0.950 . S
C303 C305 1.327 . S
C303 C309 1.429 . S
C304 C296 1.574 1_556 S
C304 H299 0.949 . S
C304 C310 1.368 1_565 S
C305 C289 1.349 . S
C305 H297 0.950 . S
C305 C303 1.327 . S
C306 C294 1.349 . S
C306 H300 0.950 . S
C306 C307 1.327 . S
C307 H301 0.950 . S
C307 C306 1.327 . S
C307 C311 1.429 . S
C308 C291 1.574 1_554 S
C308 H302 0.949 . S
C308 C312 1.368 1_545 S
C309 C290 1.429 . S
C309 C303 1.429 . S
C309 C310 1.523 . S
C310 C291 1.368 . S
C310 C304 1.368 1_545 S
C310 C309 1.523 . S
C311 C295 1.429 . S
C311 C307 1.429 . S
C311 C312 1.523 . S
C312 C296 1.368 . S
C312 C308 1.368 1_565 S
C312 C311 1.523 . S
H313 C288 0.950 . S
H314 C290 0.911 1_565 S
H315 C291 0.949 . S
H316 C293 0.950 . S
H317 C295 0.911 1_545 S
C318 C319 1.349 . S
C318 C320 1.327 . S
C318 H343 0.950 . S
C319 C318 1.349 . S
C319 C335 1.349 . S
C320 C318 1.327 . S
C320 C339 1.429 . S
C320 H344 0.950 . S
C321 C338 1.574 . S
C321 C340 1.368 . S
C321 H345 0.949 . S
H322 C326 0.949 . S
C323 C324 1.349 . S
C323 C325 1.327 . S
C323 H346 0.950 . S
C324 C323 1.349 . S
C324 C336 1.349 . S
C325 C323 1.327 . S
C325 C341 1.429 . S
C325 H347 0.950 . S
C326 H322 0.949 . S
C326 C334 1.574 . S
C326 C342 1.368 . S
H327 C335 0.950 . S
H328 C333 0.950 . S
H329 C334 0.949 . S
H330 C336 0.950 . S
H331 C337 0.950 . S
H332 C338 0.949 . S
C333 H328 0.950 . S
C333 C335 1.327 . S
C333 C339 1.429 . S
C334 C326 1.574 . S
C334 H329 0.949 . S
C334 C340 1.368 . S
C335 C319 1.349 . S
C335 H327 0.950 . S
C335 C333 1.327 . S
C336 C324 1.349 . S
C336 H330 0.950 . S
C336 C337 1.327 . S
C337 H331 0.950 . S
C337 C336 1.327 . S
C337 C341 1.429 . S
C338 C321 1.574 . S
C338 H332 0.949 . S
C338 C342 1.368 . S
C339 C320 1.429 . S
C339 C333 1.429 . S
C339 C340 1.523 . S
C340 C321 1.368 . S
C340 C334 1.368 . S
C340 C339 1.523 . S
C341 C325 1.429 . S
C341 C337 1.429 . S
C341 C342 1.523 . S
C342 C326 1.368 . S
C342 C338 1.368 . S
C342 C341 1.523 . S
H343 C318 0.950 . S
H344 C320 0.950 . S
H345 C321 0.949 . S
H346 C323 0.950 . S
H347 C325 0.950 . S
C348 C349 1.349 . S
C348 C350 1.327 . S
C348 H373 0.950 . S
C349 C348 1.349 . S
C349 C365 1.349 . S
C350 C348 1.327 . S
C350 C369 1.429 . S
C350 H374 0.950 . S
C351 C368 1.574 1_656 S
C351 C370 1.368 . S
C351 H375 0.949 . S
H352 C356 0.949 . S
C353 C354 1.349 . S
C353 C355 1.327 . S
C353 H376 0.950 . S
C354 C353 1.349 . S
C354 C366 1.349 . S
C355 C353 1.327 . S
C355 C371 1.429 . S
C355 H377 0.950 . S
C356 H352 0.949 . S
C356 C364 1.574 1_454 S
C356 C372 1.368 . S
H357 C365 0.950 . S
H358 C363 0.950 . S
H359 C364 0.949 . S
H360 C366 0.950 . S
H361 C367 0.950 . S
H362 C368 0.949 . S
C363 H358 0.950 . S
C363 C365 1.327 . S
C363 C369 1.429 . S
C364 C356 1.574 1_656 S
C364 H359 0.949 . S
C364 C370 1.368 . S
C365 C349 1.349 . S
C365 H357 0.950 . S
C365 C363 1.327 . S
C366 C354 1.349 . S
C366 H360 0.950 . S
C366 C367 1.327 . S
C367 H361 0.950 . S
C367 C366 1.327 . S
C367 C371 1.429 . S
C368 C351 1.574 1_454 S
C368 H362 0.949 . S
C368 C372 1.368 . S
C369 C350 1.429 . S
C369 C363 1.429 . S
C369 C370 1.523 . S
C370 C351 1.368 . S
C370 C364 1.368 . S
C370 C369 1.523 . S
C371 C355 1.429 . S
C371 C367 1.429 . S
C371 C372 1.523 . S
C372 C356 1.368 . S
C372 C368 1.368 . S
C372 C371 1.523 . S
H373 C348 0.950 . S
H374 C350 0.950 . S
H375 C351 0.949 . S
H376 C353 0.950 . S
H377 C355 0.950 . S
C378 C379 1.349 . S
C378 C380 1.327 . S
C378 H403 0.950 . S
C379 C378 1.349 . S
C379 C395 1.349 . S
C380 C378 1.327 . S
C380 C399 1.429 . S
C380 H404 0.950 . S
C381 C398 1.574 . S
C381 C400 1.368 1_545 S
C381 H405 0.949 . S
H382 C386 0.949 . S
C383 C384 1.349 . S
C383 C385 1.327 . S
C383 H406 0.950 . S
C384 C383 1.349 . S
C384 C396 1.349 . S
C385 C383 1.327 . S
C385 C401 1.429 . S
C385 H407 0.950 . S
C386 H382 0.949 . S
C386 C394 1.574 . S
C386 C402 1.368 1_565 S
H387 C395 0.950 1_545 S
H388 C393 0.912 1_545 S
H389 C394 0.949 . S
H390 C396 0.950 1_565 S
H391 C397 0.912 1_565 S
H392 C398 0.949 . S
C393 H388 0.912 1_565 S
C393 C395 1.338 . S
C393 C399 1.455 . S
C394 C386 1.574 . S
C394 H389 0.949 . S
C394 C400 1.368 . S
C395 C379 1.349 . S
C395 H387 0.950 1_565 S
C395 C393 1.338 . S
C396 C384 1.349 . S
C396 H390 0.950 1_545 S
C396 C397 1.338 . S
C397 H391 0.912 1_545 S
C397 C396 1.338 . S
C397 C401 1.455 . S
C398 C381 1.574 . S
C398 H392 0.949 . S
C398 C402 1.368 . S
C399 C380 1.429 . S
C399 C393 1.455 . S
C399 C400 1.523 . S
C400 C381 1.368 1_565 S
C400 C394 1.368 . S
C400 C399 1.523 . S
C401 C385 1.429 . S
C401 C397 1.455 . S
C401 C402 1.523 . S
C402 C386 1.368 1_545 S
C402 C398 1.368 . S
C402 C401 1.523 . S
H403 C378 0.950 . S
H404 C380 0.950 . S
H405 C381 0.949 . S
H406 C383 0.950 . S
H407 C385 0.950 . S
C408 C409 1.349 . S
C408 C410 1.327 . S
C408 H433 0.950 . S
C409 C408 1.349 . S
C409 C425 1.349 . S
C410 C408 1.327 . S
C410 C429 1.429 . S
C410 H434 0.950 . S
C411 C428 1.574 1_556 S
C411 C430 1.368 . S
C411 H435 0.949 . S
H412 C416 0.949 . S
C413 C414 1.349 . S
C413 C415 1.327 . S
C413 H436 0.950 . S
C414 C413 1.349 . S
C414 C426 1.349 . S
C415 C413 1.327 . S
C415 C431 1.429 . S
C415 H437 0.950 . S
C416 H412 0.949 . S
C416 C424 1.574 1_554 S
C416 C432 1.368 . S
H417 C425 0.950 . S
H418 C423 0.950 . S
H419 C424 0.949 . S
H420 C426 0.950 . S
H421 C427 0.950 . S
H422 C428 0.949 . S
C423 H418 0.950 . S
C423 C425 1.327 . S
C423 C429 1.429 . S
C424 C416 1.574 1_556 S
C424 H419 0.949 . S
C424 C430 1.368 . S
C425 C409 1.349 . S
C425 H417 0.950 . S
C425 C423 1.327 . S
C426 C414 1.349 . S
C426 H420 0.950 . S
C426 C427 1.327 . S
C427 H421 0.950 . S
C427 C426 1.327 . S
C427 C431 1.429 . S
C428 C411 1.574 1_554 S
C428 H422 0.949 . S
C428 C432 1.368 . S
C429 C410 1.429 . S
C429 C423 1.429 . S
C429 C430 1.523 . S
C430 C411 1.368 . S
C430 C424 1.368 . S
C430 C429 1.523 . S
C431 C415 1.429 . S
C431 C427 1.429 . S
C431 C432 1.523 . S
C432 C416 1.368 . S
C432 C428 1.368 . S
C432 C431 1.523 . S
H433 C408 0.950 . S
H434 C410 0.950 . S
H435 C411 0.949 . S
H436 C413 0.950 . S
H437 C415 0.950 . S
C438 C439 1.349 . S
C438 C440 1.327 . S
C438 H463 0.950 . S
C439 C438 1.349 . S
C439 C455 1.349 . S
C440 C438 1.327 . S
C440 C459 1.429 . S
C440 H464 0.950 . S
C441 C458 1.574 . S
C441 C460 1.368 1_455 S
C441 H465 0.949 . S
H442 C446 0.949 . S
C443 C444 1.349 . S
C443 C445 1.327 . S
C443 H466 0.950 . S
C444 C443 1.349 . S
C444 C456 1.349 . S
C445 C443 1.327 . S
C445 C461 1.429 . S
C445 H467 0.950 . S
C446 H442 0.949 . S
C446 C454 1.574 . S
C446 C462 1.368 1_655 S
H447 C455 0.950 1_455 S
H448 C453 0.950 . S
H449 C454 0.949 . S
H450 C456 0.950 1_655 S
H451 C457 0.950 . S
H452 C458 0.949 . S
C453 H448 0.950 . S
C453 C455 1.327 1_455 S
C453 C459 1.429 1_455 S
C454 C446 1.574 . S
C454 H449 0.949 . S
C454 C460 1.368 . S
C455 C439 1.349 . S
C455 H447 0.950 1_655 S
C455 C453 1.327 1_655 S
C456 C444 1.349 . S
C456 H450 0.950 1_455 S
C456 C457 1.327 1_455 S
C457 H451 0.950 . S
C457 C456 1.327 1_655 S
C457 C461 1.429 1_655 S
C458 C441 1.574 . S
C458 H452 0.949 . S
C458 C462 1.368 . S
C459 C440 1.429 . S
C459 C453 1.429 1_655 S
C459 C460 1.523 . S
C460 C441 1.368 1_655 S
C460 C454 1.368 . S
C460 C459 1.523 . S
C461 C445 1.429 . S
C461 C457 1.429 1_455 S
C461 C462 1.523 . S
C462 C446 1.368 1_455 S
C462 C458 1.368 . S
C462 C461 1.523 . S
H463 C438 0.950 . S
H464 C440 0.950 . S
H465 C441 0.949 . S
H466 C443 0.950 . S
H467 C445 0.950 . S
C468 C469 1.349 . S
C468 C470 1.327 . S
C468 H493 0.956 . S
C469 C468 1.349 . S
C469 C485 1.349 . S
C470 C468 1.327 . S
C470 C489 1.429 . S
C470 H494 0.950 1_545 S
C471 C488 1.574 1_556 S
C471 C490 1.368 . S
C471 H495 0.949 . S
H472 C476 0.949 . S
C473 C474 1.349 . S
C473 C475 1.327 . S
C473 H496 0.955 . S
C474 C473 1.349 . S
C474 C486 1.349 . S
C475 C473 1.327 . S
C475 C491 1.429 . S
C475 H497 0.950 1_565 S
C476 H472 0.949 . S
C476 C484 1.574 1_554 S
C476 C492 1.368 . S
H477 C485 0.950 . S
H478 C483 0.950 . S
H479 C484 0.949 . S
H480 C486 0.950 . S
H481 C487 0.950 . S
H482 C488 0.949 . S
C483 H478 0.950 . S
C483 C485 1.327 . S
C483 C489 1.429 . S
C484 C476 1.574 1_556 S
C484 H479 0.949 . S
C484 C490 1.368 1_565 S
C485 C469 1.349 . S
C485 H477 0.950 . S
C485 C483 1.327 . S
C486 C474 1.349 . S
C486 H480 0.950 . S
C486 C487 1.327 . S
C487 H481 0.950 . S
C487 C486 1.327 . S
C487 C491 1.429 . S
C488 C471 1.574 1_554 S
C488 H482 0.949 . S
C488 C492 1.368 1_545 S
C489 C470 1.429 . S
C489 C483 1.429 . S
C489 C490 1.523 . S
C490 C471 1.368 . S
C490 C484 1.368 1_545 S
C490 C489 1.523 . S
C491 C475 1.429 . S
C491 C487 1.429 . S
C491 C492 1.523 . S
C492 C476 1.368 . S
C492 C488 1.368 1_565 S
C492 C491 1.523 . S
H493 C468 0.956 . S
H494 C470 0.950 1_565 S
H495 C471 0.949 . S
H496 C473 0.955 . S
H497 C475 0.950 1_545 S
C498 C499 1.349 . S
C498 C500 1.327 . S
C498 H523 0.950 . S
C499 C498 1.349 . S
C499 C515 1.349 . S
C500 C498 1.327 . S
C500 C519 1.429 . S
C500 H524 0.950 . S
C501 C518 1.574 . S
C501 C520 1.368 . S
C501 H525 0.949 . S
H502 C506 0.949 . S
C503 C504 1.349 . S
C503 C505 1.327 . S
C503 H526 0.950 . S
C504 C503 1.349 . S
C504 C516 1.349 . S
C505 C503 1.327 . S
C505 C521 1.429 . S
C505 H527 0.950 . S
C506 H502 0.949 . S
C506 C514 1.574 . S
C506 C522 1.368 . S
H507 C515 0.950 . S
H508 C513 0.950 . S
H509 C514 0.949 . S
H510 C516 0.950 . S
H511 C517 0.950 . S
H512 C518 0.949 . S
C513 H508 0.950 . S
C513 C515 1.327 . S
C513 C519 1.429 . S
C514 C506 1.574 . S
C514 H509 0.949 . S
C514 C520 1.368 . S
C515 C499 1.349 . S
C515 H507 0.950 . S
C515 C513 1.327 . S
C516 C504 1.349 . S
C516 H510 0.950 . S
C516 C517 1.327 . S
C517 H511 0.950 . S
C517 C516 1.327 . S
C517 C521 1.429 . S
C518 C501 1.574 . S
C518 H512 0.949 . S
C518 C522 1.368 . S
C519 C500 1.429 . S
C519 C513 1.429 . S
C519 C520 1.523 . S
C520 C501 1.368 . S
C520 C514 1.368 . S
C520 C519 1.523 . S
C521 C505 1.429 . S
C521 C517 1.429 . S
C521 C522 1.523 . S
C522 C506 1.368 . S
C522 C518 1.368 . S
C522 C521 1.523 . S
H523 C498 0.950 . S
H524 C500 0.950 . S
H525 C501 0.949 . S
H526 C503 0.950 . S
H527 C505 0.950 . S
C528 C529 1.349 . S
C528 C530 1.327 . S
C528 H553 0.950 . S
C529 C528 1.349 . S
C529 C545 1.349 . S
C530 C528 1.327 . S
C530 C549 1.429 . S
C530 H554 0.950 . S
C531 C548 1.574 . S
C531 C550 1.368 . S
C531 H555 0.949 . S
H532 C536 0.949 . S
C533 C534 1.349 . S
C533 C535 1.327 . S
C533 H556 0.950 . S
C534 C533 1.349 . S
C534 C546 1.349 . S
C535 C533 1.327 . S
C535 C551 1.429 . S
C535 H557 0.950 . S
C536 H532 0.949 . S
C536 C544 1.574 . S
C536 C552 1.368 . S
H537 C545 0.950 . S
H538 C543 0.950 . S
H539 C544 0.949 . S
H540 C546 0.950 . S
H541 C547 0.950 . S
H542 C548 0.949 . S
C543 H538 0.950 . S
C543 C545 1.327 . S
C543 C549 1.429 . S
C544 C536 1.574 . S
C544 H539 0.949 . S
C544 C550 1.368 . S
C545 C529 1.349 . S
C545 H537 0.950 . S
C545 C543 1.327 . S
C546 C534 1.349 . S
C546 H540 0.950 . S
C546 C547 1.327 . S
C547 H541 0.950 . S
C547 C546 1.327 . S
C547 C551 1.429 . S
C548 C531 1.574 . S
C548 H542 0.949 . S
C548 C552 1.368 . S
C549 C530 1.429 . S
C549 C543 1.429 . S
C549 C550 1.523 . S
C550 C531 1.368 . S
C550 C544 1.368 . S
C550 C549 1.523 . S
C551 C535 1.429 . S
C551 C547 1.429 . S
C551 C552 1.523 . S
C552 C536 1.368 . S
C552 C548 1.368 . S
C552 C551 1.523 . S
H553 C528 0.950 . S
H554 C530 0.950 . S
H555 C531 0.949 . S
H556 C533 0.950 . S
H557 C535 0.950 . S
C558 C559 1.349 . S
C558 C560 1.327 . S
C558 H583 0.950 . S
C559 C558 1.349 . S
C559 C575 1.349 . S
C560 C558 1.327 . S
C560 C579 1.429 . S
C560 H584 0.950 . S
C561 C578 1.574 . S
C561 C580 1.368 . S
C561 H585 0.949 . S
H562 C566 0.949 . S
C563 C564 1.349 . S
C563 C565 1.327 . S
C563 H586 0.950 . S
C564 C563 1.349 . S
C564 C576 1.349 . S
C565 C563 1.327 . S
C565 C581 1.429 . S
C565 H587 0.950 . S
C566 H562 0.949 . S
C566 C574 1.574 . S
C566 C582 1.368 . S
H567 C575 0.950 . S
H568 C573 0.950 . S
H569 C574 0.949 . S
H570 C576 0.950 . S
H571 C577 0.950 . S
H572 C578 0.949 . S
C573 H568 0.950 . S
C573 C575 1.327 . S
C573 C579 1.429 . S
C574 C566 1.574 . S
C574 H569 0.949 . S
C574 C580 1.368 . S
C575 C559 1.349 . S
C575 H567 0.950 . S
C575 C573 1.327 . S
C576 C564 1.349 . S
C576 H570 0.950 . S
C576 C577 1.327 . S
C577 H571 0.950 . S
C577 C576 1.327 . S
C577 C581 1.429 . S
C578 C561 1.574 . S
C578 H572 0.949 . S
C578 C582 1.368 . S
C579 C560 1.429 . S
C579 C573 1.429 . S
C579 C580 1.523 . S
C580 C561 1.368 . S
C580 C574 1.368 . S
C580 C579 1.523 . S
C581 C565 1.429 . S
C581 C577 1.429 . S
C581 C582 1.523 . S
C582 C566 1.368 . S
C582 C578 1.368 . S
C582 C581 1.523 . S
H583 C558 0.950 . S
H584 C560 0.950 . S
H585 C561 0.949 . S
H586 C563 0.950 . S
H587 C565 0.950 . S
C588 C589 1.349 . S
C588 C590 1.327 . S
C588 H613 0.950 . S
C589 C588 1.349 . S
C589 C605 1.349 . S
C590 C588 1.327 . S
C590 C609 1.429 . S
C590 H614 0.950 . S
C591 C608 1.574 . S
C591 C610 1.368 . S
C591 H615 0.949 . S
H592 C596 0.949 . S
C593 C594 1.349 . S
C593 C595 1.327 . S
C593 H616 0.950 . S
C594 C593 1.349 . S
C594 C606 1.349 . S
C595 C593 1.327 . S
C595 C611 1.429 . S
C595 H617 0.950 . S
C596 H592 0.949 . S
C596 C604 1.574 . S
C596 C612 1.368 . S
H597 C605 0.950 . S
H598 C603 0.950 . S
H599 C604 0.949 . S
H600 C606 0.950 . S
H601 C607 0.950 . S
H602 C608 0.949 . S
C603 H598 0.950 . S
C603 C605 1.327 . S
C603 C609 1.429 . S
C604 C596 1.574 . S
C604 H599 0.949 . S
C604 C610 1.368 . S
C605 C589 1.349 . S
C605 H597 0.950 . S
C605 C603 1.327 . S
C606 C594 1.349 . S
C606 H600 0.950 . S
C606 C607 1.327 . S
C607 H601 0.950 . S
C607 C606 1.327 . S
C607 C611 1.429 . S
C608 C591 1.574 . S
C608 H602 0.949 . S
C608 C612 1.368 . S
C609 C590 1.429 . S
C609 C603 1.429 . S
C609 C610 1.523 . S
C610 C591 1.368 . S
C610 C604 1.368 . S
C610 C609 1.523 . S
C611 C595 1.429 . S
C611 C607 1.429 . S
C611 C612 1.523 . S
C612 C596 1.368 . S
C612 C608 1.368 . S
C612 C611 1.523 . S
H613 C588 0.950 . S
H614 C590 0.950 . S
H615 C591 0.949 . S
H616 C593 0.950 . S
H617 C595 0.950 . S
C618 C619 1.349 . S
C618 C620 1.327 . S
C618 H643 0.950 . S
C619 C618 1.349 . S
C619 C635 1.349 . S
C620 C618 1.327 . S
C620 C639 1.429 . S
C620 H644 0.950 . S
C621 C638 1.574 . S
C621 C640 1.368 . S
C621 H645 0.949 . S
H622 C626 0.949 . S
C623 C624 1.349 . S
C623 C625 1.327 . S
C623 H646 0.950 . S
C624 C623 1.349 . S
C624 C636 1.349 . S
C625 C623 1.327 . S
C625 C641 1.429 . S
C625 H647 0.950 . S
C626 H622 0.949 . S
C626 C634 1.574 . S
C626 C642 1.368 . S
H627 C635 0.950 . S
H628 C633 0.950 . S
H629 C634 0.949 . S
H630 C636 0.950 . S
H631 C637 0.950 . S
H632 C638 0.949 . S
C633 H628 0.950 . S
C633 C635 1.327 . S
C633 C639 1.429 . S
C634 C626 1.574 . S
C634 H629 0.949 . S
C634 C640 1.368 . S
C635 C619 1.349 . S
C635 H627 0.950 . S
C635 C633 1.327 . S
C636 C624 1.349 . S
C636 H630 0.950 . S
C636 C637 1.327 . S
C637 H631 0.950 . S
C637 C636 1.327 . S
C637 C641 1.429 . S
C638 C621 1.574 . S
C638 H632 0.949 . S
C638 C642 1.368 . S
C639 C620 1.429 . S
C639 C633 1.429 . S
C639 C640 1.523 . S
C640 C621 1.368 . S
C640 C634 1.368 . S
C640 C639 1.523 . S
C641 C625 1.429 . S
C641 C637 1.429 . S
C641 C642 1.523 . S
C642 C626 1.368 . S
C642 C638 1.368 . S
C642 C641 1.523 . S
H643 C618 0.950 . S
H644 C620 0.950 . S
H645 C621 0.949 . S
H646 C623 0.950 . S
H647 C625 0.950 . S
C648 C649 1.349 . S
C648 C650 1.327 . S
C648 H673 0.950 . S
C649 C648 1.349 . S
C649 C665 1.349 . S
C650 C648 1.327 . S
C650 C669 1.429 . S
C650 H674 0.950 . S
C651 C668 1.574 . S
C651 C670 1.368 . S
C651 H675 0.949 . S
H652 C656 0.949 . S
C653 C654 1.349 . S
C653 C655 1.327 . S
C653 H676 0.950 . S
C654 C653 1.349 . S
C654 C666 1.349 . S
C655 C653 1.327 . S
C655 C671 1.429 . S
C655 H677 0.950 . S
C656 H652 0.949 . S
C656 C664 1.574 . S
C656 C672 1.368 . S
H657 C665 0.950 . S
H658 C663 0.950 . S
H659 C664 0.949 . S
H660 C666 0.950 . S
H661 C667 0.950 . S
H662 C668 0.949 . S
C663 H658 0.950 . S
C663 C665 1.327 . S
C663 C669 1.429 . S
C664 C656 1.574 . S
C664 H659 0.949 . S
C664 C670 1.368 . S
C665 C649 1.349 . S
C665 H657 0.950 . S
C665 C663 1.327 . S
C666 C654 1.349 . S
C666 H660 0.950 . S
C666 C667 1.327 . S
C667 H661 0.950 . S
C667 C666 1.327 . S
C667 C671 1.429 . S
C668 C651 1.574 . S
C668 H662 0.949 . S
C668 C672 1.368 . S
C669 C650 1.429 . S
C669 C663 1.429 . S
C669 C670 1.523 . S
C670 C651 1.368 . S
C670 C664 1.368 . S
C670 C669 1.523 . S
C671 C655 1.429 . S
C671 C667 1.429 . S
C671 C672 1.523 . S
C672 C656 1.368 . S
C672 C668 1.368 . S
C672 C671 1.523 . S
H673 C648 0.950 . S
H674 C650 0.950 . S
H675 C651 0.949 . S
H676 C653 0.950 . S
H677 C655 0.950 . S
C678 C679 1.349 . S
C678 C680 1.327 . S
C678 H703 0.950 . S
C679 C678 1.349 . S
C679 C695 1.349 . S
C680 C678 1.327 . S
C680 C699 1.429 . S
C680 H704 0.950 . S
C681 C698 1.574 . S
C681 C700 1.368 . S
C681 H705 0.949 . S
H682 C686 0.949 . S
C683 C684 1.349 . S
C683 C685 1.327 . S
C683 H706 0.950 . S
C684 C683 1.349 . S
C684 C696 1.349 . S
C685 C683 1.327 . S
C685 C701 1.429 . S
C685 H707 0.950 . S
C686 H682 0.949 . S
C686 C694 1.574 . S
C686 C702 1.368 . S
H687 C695 0.950 . S
H688 C693 0.950 . S
H689 C694 0.949 . S
H690 C696 0.950 . S
H691 C697 0.950 . S
H692 C698 0.949 . S
C693 H688 0.950 . S
C693 C695 1.327 . S
C693 C699 1.429 . S
C694 C686 1.574 . S
C694 H689 0.949 . S
C694 C700 1.368 . S
C695 C679 1.349 . S
C695 H687 0.950 . S
C695 C693 1.327 . S
C696 C684 1.349 . S
C696 H690 0.950 . S
C696 C697 1.327 . S
C697 H691 0.950 . S
C697 C696 1.327 . S
C697 C701 1.429 . S
C698 C681 1.574 . S
C698 H692 0.949 . S
C698 C702 1.368 . S
C699 C680 1.429 . S
C699 C693 1.429 . S
C699 C700 1.523 . S
C700 C681 1.368 . S
C700 C694 1.368 . S
C700 C699 1.523 . S
C701 C685 1.429 . S
C701 C697 1.429 . S
C701 C702 1.523 . S
C702 C686 1.368 . S
C702 C698 1.368 . S
C702 C701 1.523 . S
H703 C678 0.950 . S
H704 C680 0.950 . S
H705 C681 0.949 . S
H706 C683 0.950 . S
H707 C685 0.950 . S
C708 C709 1.349 . S
C708 C710 1.327 . S
C708 H733 0.950 . S
C709 C708 1.349 . S
C709 C725 1.349 . S
C710 C708 1.327 . S
C710 C729 1.429 . S
C710 H734 0.950 . S
C711 C728 1.574 . S
C711 C730 1.368 . S
C711 H735 0.949 . S
H712 C716 0.949 . S
C713 C714 1.349 . S
C713 C715 1.327 . S
C713 H736 0.950 . S
C714 C713 1.349 . S
C714 C726 1.349 . S
C715 C713 1.327 . S
C715 C731 1.429 . S
C715 H737 0.950 . S
C716 H712 0.949 . S
C716 C724 1.574 . S
C716 C732 1.368 . S
H717 C725 0.950 . S
H718 C723 0.950 . S
H719 C724 0.949 . S
H720 C726 0.950 . S
H721 C727 0.950 . S
H722 C728 0.949 . S
C723 H718 0.950 . S
C723 C725 1.327 . S
C723 C729 1.429 . S
C724 C716 1.574 . S
C724 H719 0.949 . S
C724 C730 1.368 . S
C725 C709 1.349 . S
C725 H717 0.950 . S
C725 C723 1.327 . S
C726 C714 1.349 . S
C726 H720 0.950 . S
C726 C727 1.327 . S
C727 H721 0.950 . S
C727 C726 1.327 . S
C727 C731 1.429 . S
C728 C711 1.574 . S
C728 H722 0.949 . S
C728 C732 1.368 . S
C729 C710 1.429 . S
C729 C723 1.429 . S
C729 C730 1.523 . S
C730 C711 1.368 . S
C730 C724 1.368 . S
C730 C729 1.523 . S
C731 C715 1.429 . S
C731 C727 1.429 . S
C731 C732 1.523 . S
C732 C716 1.368 . S
C732 C728 1.368 . S
C732 C731 1.523 . S
H733 C708 0.950 . S
H734 C710 0.950 . S
H735 C711 0.949 . S
H736 C713 0.950 . S
H737 C715 0.950 . S
C738 C739 1.349 . S
C738 C740 1.327 . S
C738 H763 0.950 . S
C739 C738 1.349 . S
C739 C755 1.349 . S
C740 C738 1.327 . S
C740 C759 1.429 . S
C740 H764 0.950 . S
C741 C758 1.574 . S
C741 C760 1.368 . S
C741 H765 0.949 . S
H742 C746 0.949 . S
C743 C744 1.349 . S
C743 C745 1.327 . S
C743 H766 0.950 . S
C744 C743 1.349 . S
C744 C756 1.349 . S
C745 C743 1.327 . S
C745 C761 1.429 . S
C745 H767 0.950 . S
C746 H742 0.949 . S
C746 C754 1.574 . S
C746 C762 1.368 . S
H747 C755 0.950 . S
H748 C753 0.950 . S
H749 C754 0.949 . S
H750 C756 0.950 . S
H751 C757 0.950 . S
H752 C758 0.949 . S
C753 H748 0.950 . S
C753 C755 1.327 . S
C753 C759 1.429 . S
C754 C746 1.574 . S
C754 H749 0.949 . S
C754 C760 1.368 . S
C755 C739 1.349 . S
C755 H747 0.950 . S
C755 C753 1.327 . S
C756 C744 1.349 . S
C756 H750 0.950 . S
C756 C757 1.327 . S
C757 H751 0.950 . S
C757 C756 1.327 . S
C757 C761 1.429 . S
C758 C741 1.574 . S
C758 H752 0.949 . S
C758 C762 1.368 . S
C759 C740 1.429 . S
C759 C753 1.429 . S
C759 C760 1.523 . S
C760 C741 1.368 . S
C760 C754 1.368 . S
C760 C759 1.523 . S
C761 C745 1.429 . S
C761 C757 1.429 . S
C761 C762 1.523 . S
C762 C746 1.368 . S
C762 C758 1.368 . S
C762 C761 1.523 . S
H763 C738 0.950 . S
H764 C740 0.950 . S
H765 C741 0.949 . S
H766 C743 0.950 . S
H767 C745 0.950 . S
C768 C769 1.349 . S
C768 C770 1.327 . S
C768 H793 0.950 . S
C769 C768 1.349 . S
C769 C785 1.349 . S
C770 C768 1.327 . S
C770 C789 1.429 . S
C770 H794 0.950 . S
C771 C788 1.574 . S
C771 C790 1.368 . S
C771 H795 0.949 . S
H772 C776 0.949 . S
C773 C774 1.349 . S
C773 C775 1.327 . S
C773 H796 0.950 . S
C774 C773 1.349 . S
C774 C786 1.349 . S
C775 C773 1.327 . S
C775 C791 1.429 . S
C775 H797 0.950 . S
C776 H772 0.949 . S
C776 C784 1.574 . S
C776 C792 1.368 . S
H777 C785 0.950 . S
H778 C783 0.950 . S
H779 C784 0.949 . S
H780 C786 0.950 . S
H781 C787 0.950 . S
H782 C788 0.949 . S
C783 H778 0.950 . S
C783 C785 1.327 . S
C783 C789 1.429 . S
C784 C776 1.574 . S
C784 H779 0.949 . S
C784 C790 1.368 . S
C785 C769 1.349 . S
C785 H777 0.950 . S
C785 C783 1.327 . S
C786 C774 1.349 . S
C786 H780 0.950 . S
C786 C787 1.327 . S
C787 H781 0.950 . S
C787 C786 1.327 . S
C787 C791 1.429 . S
C788 C771 1.574 . S
C788 H782 0.949 . S
C788 C792 1.368 . S
C789 C770 1.429 . S
C789 C783 1.429 . S
C789 C790 1.523 . S
C790 C771 1.368 . S
C790 C784 1.368 . S
C790 C789 1.523 . S
C791 C775 1.429 . S
C791 C787 1.429 . S
C791 C792 1.523 . S
C792 C776 1.368 . S
C792 C788 1.368 . S
C792 C791 1.523 . S
H793 C768 0.950 . S
H794 C770 0.950 . S
H795 C771 0.949 . S
H796 C773 0.950 . S
H797 C775 0.950 . S
C798 C799 1.349 . S
C798 C800 1.327 . S
C798 H823 0.950 . S
C799 C798 1.349 . S
C799 C815 1.349 . S
C800 C798 1.327 . S
C800 C819 1.429 . S
C800 H824 0.950 . S
C801 C818 1.574 . S
C801 C820 1.368 . S
C801 H825 0.949 . S
H802 C806 0.949 . S
C803 C804 1.349 . S
C803 C805 1.327 . S
C803 H826 0.950 . S
C804 C803 1.349 . S
C804 C816 1.349 . S
C805 C803 1.327 . S
C805 C821 1.429 . S
C805 H827 0.950 . S
C806 H802 0.949 . S
C806 C814 1.574 . S
C806 C822 1.368 . S
H807 C815 0.950 . S
H808 C813 0.950 . S
H809 C814 0.949 . S
H810 C816 0.950 . S
H811 C817 0.950 . S
H812 C818 0.949 . S
C813 H808 0.950 . S
C813 C815 1.327 . S
C813 C819 1.429 . S
C814 C806 1.574 . S
C814 H809 0.949 . S
C814 C820 1.368 . S
C815 C799 1.349 . S
C815 H807 0.950 . S
C815 C813 1.327 . S
C816 C804 1.349 . S
C816 H810 0.950 . S
C816 C817 1.327 . S
C817 H811 0.950 . S
C817 C816 1.327 . S
C817 C821 1.429 . S
C818 C801 1.574 . S
C818 H812 0.949 . S
C818 C822 1.368 . S
C819 C800 1.429 . S
C819 C813 1.429 . S
C819 C820 1.523 . S
C820 C801 1.368 . S
C820 C814 1.368 . S
C820 C819 1.523 . S
C821 C805 1.429 . S
C821 C817 1.429 . S
C821 C822 1.523 . S
C822 C806 1.368 . S
C822 C818 1.368 . S
C822 C821 1.523 . S
H823 C798 0.950 . S
H824 C800 0.950 . S
H825 C801 0.949 . S
H826 C803 0.950 . S
H827 C805 0.950 . S
C828 C829 1.349 . S
C828 C830 1.327 . S
C828 H853 0.950 . S
C829 C828 1.349 . S
C829 C845 1.349 . S
C830 C828 1.327 . S
C830 C849 1.429 . S
C830 H854 0.950 . S
C831 C848 1.574 . S
C831 C850 1.368 . S
C831 H855 0.949 . S
H832 C836 0.949 . S
C833 C834 1.349 . S
C833 C835 1.327 . S
C833 H856 0.950 . S
C834 C833 1.349 . S
C834 C846 1.349 . S
C835 C833 1.327 . S
C835 C851 1.429 . S
C835 H857 0.950 . S
C836 H832 0.949 . S
C836 C844 1.574 . S
C836 C852 1.368 . S
H837 C845 0.950 . S
H838 C843 0.950 . S
H839 C844 0.949 . S
H840 C846 0.950 . S
H841 C847 0.950 . S
H842 C848 0.949 . S
C843 H838 0.950 . S
C843 C845 1.327 . S
C843 C849 1.429 . S
C844 C836 1.574 . S
C844 H839 0.949 . S
C844 C850 1.368 . S
C845 C829 1.349 . S
C845 H837 0.950 . S
C845 C843 1.327 . S
C846 C834 1.349 . S
C846 H840 0.950 . S
C846 C847 1.327 . S
C847 H841 0.950 . S
C847 C846 1.327 . S
C847 C851 1.429 . S
C848 C831 1.574 . S
C848 H842 0.949 . S
C848 C852 1.368 . S
C849 C830 1.429 . S
C849 C843 1.429 . S
C849 C850 1.523 . S
C850 C831 1.368 . S
C850 C844 1.368 . S
C850 C849 1.523 . S
C851 C835 1.429 . S
C851 C847 1.429 . S
C851 C852 1.523 . S
C852 C836 1.368 . S
C852 C848 1.368 . S
C852 C851 1.523 . S
H853 C828 0.950 . S
H854 C830 0.950 . S
H855 C831 0.949 . S
H856 C833 0.950 . S
H857 C835 0.950 . S
C858 C859 1.349 . S
C858 C860 1.327 . S
C858 H883 0.950 . S
C859 C858 1.349 . S
C859 C875 1.349 . S
C860 C858 1.327 . S
C860 C879 1.429 . S
C860 H884 0.950 . S
C861 C878 1.574 . S
C861 C880 1.368 . S
C861 H885 0.949 . S
H862 C866 0.949 . S
C863 C864 1.349 . S
C863 C865 1.327 . S
C863 H886 0.950 . S
C864 C863 1.349 . S
C864 C876 1.349 . S
C865 C863 1.327 . S
C865 C881 1.429 . S
C865 H887 0.950 . S
C866 H862 0.949 . S
C866 C874 1.574 . S
C866 C882 1.368 . S
H867 C875 0.950 . S
H868 C873 0.950 . S
H869 C874 0.949 . S
H870 C876 0.950 . S
H871 C877 0.950 . S
H872 C878 0.949 . S
C873 H868 0.950 . S
C873 C875 1.327 . S
C873 C879 1.429 . S
C874 C866 1.574 . S
C874 H869 0.949 . S
C874 C880 1.368 . S
C875 C859 1.349 . S
C875 H867 0.950 . S
C875 C873 1.327 . S
C876 C864 1.349 . S
C876 H870 0.950 . S
C876 C877 1.327 . S
C877 H871 0.950 . S
C877 C876 1.327 . S
C877 C881 1.429 . S
C878 C861 1.574 . S
C878 H872 0.949 . S
C878 C882 1.368 . S
C879 C860 1.429 . S
C879 C873 1.429 . S
C879 C880 1.523 . S
C880 C861 1.368 . S
C880 C874 1.368 . S
C880 C879 1.523 . S
C881 C865 1.429 . S
C881 C877 1.429 . S
C881 C882 1.523 . S
C882 C866 1.368 . S
C882 C878 1.368 . S
C882 C881 1.523 . S
H883 C858 0.950 . S
H884 C860 0.950 . S
H885 C861 0.949 . S
H886 C863 0.950 . S
H887 C865 0.950 . S
C169 C9 1.319 . S
C174 C163 1.319 . S
C199 C93 1.319 . S
C204 C23 1.319 . S
C229 C37 1.319 . S
C234 C107 1.319 . S
C259 C121 1.319 . S
C264 C51 1.319 . S
C289 C135 1.319 . S
C294 C65 1.319 . S
C319 C149 1.319 . S
C324 C79 1.319 . S
C349 C42 1.234 . S
C354 C112 1.234 . S
C379 C56 1.234 . S
C384 C126 1.234 . S
C409 C70 1.234 . S
C414 C140 1.234 . S
C439 C154 1.234 . S
C444 C0 1.234 . S
C469 C14 1.234 . S
C474 C84 1.234 . S
C499 C28 1.234 . S
C504 C98 1.234 . S
C529 C117 1.703 . S
C534 C5 1.703 . S
C559 C131 1.703 . S
C564 C19 1.703 . S
C589 C33 1.703 . S
C594 C145 1.703 . S
C619 C47 1.703 . S
C624 C159 1.703 . S
C649 C61 1.703 . S
C654 C89 1.703 . S
C679 C103 1.703 . S
C684 C75 1.703 . S
C709 C11 1.618 . S
C714 C151 1.618 . S
C739 C165 1.618 . S
C744 C25 1.618 . S
C769 C39 1.618 . S
C774 C95 1.618 . S
C799 C53 1.618 . S
C804 C109 1.618 . S
C829 C67 1.618 . S
C834 C123 1.618 . S
C859 C81 1.618 . S
C864 C137 1.618 . S
