# Generated by pormake.
# Topology wjt, (5)-cn, num edge types: 1
# Building blocks:
#     Node 0, Type 0, BuildingBlock: XOMCOT_clean_sbu_0, # of connection points: 5
#     Node 1, Type 0, BuildingBlock: XOMCOT_clean_sbu_0, # of connection points: 5
#     Node 2, Type 0, BuildingBlock: XOMCOT_clean_sbu_0, # of connection points: 5
#     Node 3, Type 0, BuildingBlock: XOMCOT_clean_sbu_0, # of connection points: 5
#     Node 4, Type 0, BuildingBlock: XOMCOT_clean_sbu_0, # of connection points: 5
#     Node 5, Type 0, BuildingBlock: XOMCOT_clean_sbu_0, # of connection points: 5
#     Node 6, Type 0, BuildingBlock: XOMCOT_clean_sbu_0, # of connection points: 5
#     Node 7, Type 0, BuildingBlock: XOMCOT_clean_sbu_0, # of connection points: 5
#     Node 8, Type 0, BuildingBlock: XOMCOT_clean_sbu_0, # of connection points: 5
#     Node 9, Type 0, BuildingBlock: XOMCOT_clean_sbu_0, # of connection points: 5
#     Node 10, Type 0, BuildingBlock: XOMCOT_clean_sbu_0, # of connection points: 5
#     Node 11, Type 0, BuildingBlock: XOMCOT_clean_sbu_0, # of connection points: 5
#     Edge 12, Type (0, 0), BuildingBlock: UVAHIK_clean_linker_0, # of connection points: 2
#     Edge 13, Type (0, 0), BuildingBlock: UVAHIK_clean_linker_0, # of connection points: 2
#     Edge 14, Type (0, 0), BuildingBlock: UVAHIK_clean_linker_0, # of connection points: 2
#     Edge 15, Type (0, 0), BuildingBlock: UVAHIK_clean_linker_0, # of connection points: 2
#     Edge 16, Type (0, 0), BuildingBlock: UVAHIK_clean_linker_0, # of connection points: 2
#     Edge 17, Type (0, 0), BuildingBlock: UVAHIK_clean_linker_0, # of connection points: 2
#     Edge 18, Type (0, 0), BuildingBlock: UVAHIK_clean_linker_0, # of connection points: 2
#     Edge 19, Type (0, 0), BuildingBlock: UVAHIK_clean_linker_0, # of connection points: 2
#     Edge 20, Type (0, 0), BuildingBlock: UVAHIK_clean_linker_0, # of connection points: 2
#     Edge 21, Type (0, 0), BuildingBlock: UVAHIK_clean_linker_0, # of connection points: 2
#     Edge 22, Type (0, 0), BuildingBlock: UVAHIK_clean_linker_0, # of connection points: 2
#     Edge 23, Type (0, 0), BuildingBlock: UVAHIK_clean_linker_0, # of connection points: 2
#     Edge 24, Type (0, 0), BuildingBlock: UVAHIK_clean_linker_0, # of connection points: 2
#     Edge 25, Type (0, 0), BuildingBlock: UVAHIK_clean_linker_0, # of connection points: 2
#     Edge 26, Type (0, 0), BuildingBlock: UVAHIK_clean_linker_0, # of connection points: 2
#     Edge 27, Type (0, 0), BuildingBlock: UVAHIK_clean_linker_0, # of connection points: 2
#     Edge 28, Type (0, 0), BuildingBlock: UVAHIK_clean_linker_0, # of connection points: 2
#     Edge 29, Type (0, 0), BuildingBlock: UVAHIK_clean_linker_0, # of connection points: 2
#     Edge 30, Type (0, 0), BuildingBlock: UVAHIK_clean_linker_0, # of connection points: 2
#     Edge 31, Type (0, 0), BuildingBlock: UVAHIK_clean_linker_0, # of connection points: 2
#     Edge 32, Type (0, 0), BuildingBlock: UVAHIK_clean_linker_0, # of connection points: 2
#     Edge 33, Type (0, 0), BuildingBlock: UVAHIK_clean_linker_0, # of connection points: 2
#     Edge 34, Type (0, 0), BuildingBlock: UVAHIK_clean_linker_0, # of connection points: 2
#     Edge 35, Type (0, 0), BuildingBlock: UVAHIK_clean_linker_0, # of connection points: 2
#     Edge 36, Type (0, 0), BuildingBlock: UVAHIK_clean_linker_0, # of connection points: 2
#     Edge 37, Type (0, 0), BuildingBlock: UVAHIK_clean_linker_0, # of connection points: 2
#     Edge 38, Type (0, 0), BuildingBlock: UVAHIK_clean_linker_0, # of connection points: 2
#     Edge 39, Type (0, 0), BuildingBlock: UVAHIK_clean_linker_0, # of connection points: 2
#     Edge 40, Type (0, 0), BuildingBlock: UVAHIK_clean_linker_0, # of connection points: 2
#     Edge 41, Type (0, 0), BuildingBlock: UVAHIK_clean_linker_0, # of connection points: 2
# Relax obj value: 0.228
# Max RMSD: 0.184
# Mean RMSD: 0.184
data_MOF--net-wjt--node1-XOMCOT_clean_sbu_0--edge1-UVAHIK_clean_linker_0
_symmetry_space_group_name_H-M    P1
_symmetry_Int_Tables_number       1
_symmetry_cell_setting            triclinic
loop_
_symmetry_equiv_pos_as_xyz
'x, y, z'
_cell_length_a     86.259514
_cell_length_b     86.24203
_cell_length_c     21.553867
_cell_angle_alpha  89.980374
_cell_angle_beta   90.013289
_cell_angle_gamma 120.00219
loop_
_atom_site_label
_atom_site_type_symbol
_atom_site_fract_x
_atom_site_fract_y
_atom_site_fract_z
_atom_type_partial_charge
Co0 Co 0.31099 0.43336 0.26363 0.0
C1 C 0.30271 0.43271 0.39768 0.0
C2 C 0.27986 0.41405 0.34525 0.0
C3 C 0.27528 0.41191 0.40717 0.0
N4 N 0.297 0.42734 0.33924 0.0
N5 N 0.28971 0.42371 0.4399 0.0
H6 H 0.31634 0.44198 0.41018 0.0
H7 H 0.27147 0.40604 0.30733 0.0
C8 C 0.27953 0.43762 0.22967 0.0
O9 O 0.28059 0.44498 0.28402 0.0
N10 N 0.32451 0.43869 0.18809 0.0
C11 C 0.34205 0.45029 0.17914 0.0
C12 C 0.3456 0.45097 0.11647 0.0
C13 C 0.3177 0.43227 0.1317 0.0
N14 N 0.33023 0.43961 0.08695 0.0
C15 C 0.33493 0.46657 0.32327 0.0
C16 C 0.32928 0.48869 0.24543 0.0
C17 C 0.3422 0.49643 0.29239 0.0
C18 C 0.34487 0.48504 0.33163 0.0
C19 C 0.31955 0.47005 0.23875 0.0
N20 N 0.32196 0.4591 0.27876 0.0
H21 H 0.33858 0.45843 0.35048 0.0
H22 H 0.31088 0.46464 0.19902 0.0
H23 H 0.35145 0.45806 0.21527 0.0
H24 H 0.30366 0.42296 0.12336 0.0
O25 O 0.32837 0.42922 0.30495 0.0
O26 O 0.3045 0.40841 0.2554 0.0
O27 O 0.29058 0.43247 0.21499 0.0
C28 C 0.31891 0.41265 0.28732 0.0
H29 H 0.26251 0.40212 0.42659 0.0
H30 H 0.35839 0.45937 0.0943 0.0
H31 H 0.32706 0.49696 0.21289 0.0
H32 H 0.35534 0.49035 0.36642 0.0
Co33 Co 0.8763 0.31109 0.59873 0.0
C34 C 0.87407 0.30442 0.73343 0.0
C35 C 0.86345 0.27999 0.6822 0.0
C36 C 0.86398 0.27621 0.74403 0.0
N37 N 0.86933 0.29766 0.67573 0.0
N38 N 0.87086 0.29168 0.77579 0.0
H39 H 0.88098 0.31848 0.74419 0.0
H40 H 0.86017 0.27065 0.64432 0.0
C41 C 0.84043 0.27957 0.56615 0.0
O42 O 0.83397 0.28143 0.61907 0.0
N43 N 0.88366 0.32406 0.52205 0.0
C44 C 0.88992 0.3416 0.51166 0.0
C45 C 0.89321 0.34479 0.44891 0.0
C46 C 0.8834 0.31688 0.46662 0.0
N47 N 0.88897 0.32915 0.42096 0.0
C48 C 0.86521 0.33327 0.66122 0.0
C49 C 0.83896 0.32877 0.57788 0.0
C50 C 0.84311 0.34089 0.62701 0.0
C51 C 0.85637 0.34293 0.66917 0.0
C52 C 0.84822 0.31937 0.57151 0.0
N53 N 0.8609 0.32131 0.61384 0.0
H54 H 0.87643 0.33653 0.69081 0.0
H55 H 0.84581 0.31132 0.53047 0.0
H56 H 0.8917 0.35128 0.54694 0.0
H57 H 0.87931 0.30291 0.46 0.0
O58 O 0.8978 0.32938 0.63756 0.0
O59 O 0.89532 0.30541 0.5903 0.0
O60 O 0.85685 0.29004 0.55223 0.0
C61 C 0.90528 0.32019 0.62074 0.0
H62 H 0.86076 0.26336 0.76344 0.0
H63 H 0.8979 0.35748 0.42555 0.0
H64 H 0.82907 0.32696 0.54338 0.0
H65 H 0.86075 0.35277 0.70601 0.0
Co66 Co 0.56599 0.87589 0.92848 0.0
C67 C 0.57067 0.87388 0.06321 0.0
C68 C 0.58365 0.86237 0.01209 0.0
C69 C 0.58802 0.8629 0.07385 0.0
N70 N 0.5723 0.8688 0.00559 0.0
N71 N 0.57994 0.87032 0.10554 0.0
H72 H 0.56399 0.88127 0.07388 0.0
H73 H 0.58941 0.85872 0.97426 0.0
C74 C 0.56094 0.83978 0.8959 0.0
O75 O 0.55239 0.83343 0.94854 0.0
N76 N 0.56055 0.88338 0.85171 0.0
C77 C 0.54951 0.88993 0.84131 0.0
C78 C 0.54968 0.89325 0.77855 0.0
C79 C 0.56739 0.88296 0.79627 0.0
N80 N 0.56086 0.88872 0.7506 0.0
C81 C 0.53282 0.86485 0.99155 0.0
C82 C 0.51084 0.83946 0.90616 0.0
C83 C 0.503 0.84353 0.95591 0.0
C84 C 0.51432 0.8563 -0.00081 0.0
C85 C 0.5295 0.84838 0.90023 0.0
N86 N 0.54034 0.86068 0.9434 0.0
H87 H 0.54089 0.87578 0.02203 0.0
H88 H 0.5351 0.84606 0.85888 0.0
H89 H 0.54176 0.89191 0.8766 0.0
H90 H 0.57708 0.87863 0.78964 0.0
O91 O 0.56936 0.89743 0.96725 0.0
O92 O 0.59076 0.89476 0.92022 0.0
O93 O 0.56733 0.85628 0.88208 0.0
C94 C 0.58603 0.9048 0.95059 0.0
H95 H 0.59735 0.85926 0.09323 0.0
H96 H 0.54187 0.89816 0.75519 0.0
H97 H 0.50266 0.82994 0.87086 0.0
H98 H 0.50897 0.86059 0.03667 0.0
Co99 Co 0.69294 0.56688 0.27352 0.0
C100 C 0.70053 0.56824 0.40814 0.0
C101 C 0.72452 0.58337 0.35566 0.0
C102 C 0.72885 0.58579 0.41785 0.0
N103 N 0.70677 0.57192 0.34949 0.0
N104 N 0.71368 0.57614 0.45055 0.0
H105 H 0.68658 0.56145 0.42039 0.0
H106 H 0.73361 0.59021 0.31771 0.0
C107 C 0.72331 0.5615 0.23502 0.0
O108 O 0.7212 0.5525 0.28653 0.0
N109 N 0.67958 0.56264 0.19797 0.0
C110 C 0.66192 0.55171 0.18873 0.0
C111 C 0.65841 0.5519 0.12637 0.0
C112 C 0.68651 0.56953 0.14212 0.0
N113 N 0.67393 0.56312 0.09732 0.0
C114 C 0.67045 0.53294 0.33241 0.0
C115 C 0.67295 0.51187 0.24102 0.0
C116 C 0.66165 0.5036 0.29177 0.0
C117 C 0.66062 0.51438 0.3381 0.0
C118 C 0.68296 0.53058 0.23794 0.0
N119 N 0.68198 0.54097 0.2841 0.0
H120 H 0.66761 0.54067 0.36458 0.0
H121 H 0.69064 0.53663 0.19645 0.0
H122 H 0.65241 0.54382 0.22443 0.0
H123 H 0.70063 0.57854 0.13416 0.0
O124 O 0.67537 0.57032 0.31669 0.0
O125 O 0.69941 0.59188 0.26984 0.0
O126 O 0.71336 0.56823 0.22361 0.0
C127 C 0.68486 0.58712 0.30164 0.0
H128 H 0.74199 0.59438 0.43738 0.0
H129 H 0.6455 0.54419 0.10411 0.0
H130 H 0.67361 0.50396 0.20317 0.0
H131 H 0.65131 0.5085 0.37635 0.0
Co132 Co 0.12546 0.68956 0.59603 0.0
C133 C 0.12744 0.69621 0.73076 0.0
C134 C 0.138 0.72062 0.6794 0.0
C135 C 0.1374 0.7244 0.74116 0.0
N136 N 0.13222 0.70296 0.67306 0.0
N137 N 0.13057 0.70894 0.773 0.0
H138 H 0.1206 0.68215 0.74159 0.0
H139 H 0.14129 0.72995 0.64144 0.0
C140 C 0.16142 0.72107 0.56492 0.0
O141 O 0.16762 0.7191 0.61828 0.0
N142 N 0.11831 0.67663 0.51929 0.0
C143 C 0.112 0.65907 0.50902 0.0
C144 C 0.10878 0.65589 0.44624 0.0
C145 C 0.11871 0.68383 0.46376 0.0
N146 N 0.11315 0.67155 0.41816 0.0
C147 C 0.13636 0.66731 0.65926 0.0
C148 C 0.16285 0.6719 0.57693 0.0
C149 C 0.15856 0.65973 0.62603 0.0
C150 C 0.14519 0.65765 0.66767 0.0
C151 C 0.15361 0.68129 0.57009 0.0
N152 N 0.14081 0.67932 0.61195 0.0
H153 H 0.12504 0.66401 0.6884 0.0
H154 H 0.15613 0.68938 0.52904 0.0
H155 H 0.11007 0.64938 0.54443 0.0
H156 H 0.12286 0.69781 0.45704 0.0
O157 O 0.10386 0.67127 0.63428 0.0
O158 O 0.10647 0.69525 0.5867 0.0
O159 O 0.14507 0.71063 0.55006 0.0
C160 C 0.09642 0.68045 0.61698 0.0
H161 H 0.14056 0.73724 0.76048 0.0
H162 H 0.10403 0.64318 0.42298 0.0
H163 H 0.17284 0.67374 0.5428 0.0
H164 H 0.1407 0.64778 0.70443 0.0
Co165 Co 0.43418 0.12386 0.92404 0.0
C166 C 0.43363 0.13107 0.05847 0.0
C167 C 0.41783 0.13907 0.00555 0.0
C168 C 0.41589 0.14166 0.06753 0.0
N169 N 0.42928 0.13277 -0.00019 0.0
N170 N 0.42594 0.13666 0.1005 0.0
H171 H 0.44104 0.12458 0.07121 0.0
H172 H 0.41083 0.14102 0.96742 0.0
C173 C 0.44179 0.16068 0.88887 0.0
O174 O 0.45074 0.1668 0.94095 0.0
N175 N 0.43838 0.11479 0.84842 0.0
C176 C 0.44872 0.10738 0.83947 0.0
C177 C 0.44892 0.10415 0.77686 0.0
C178 C 0.43222 0.11573 0.79212 0.0
N179 N 0.43852 0.10943 0.7474 0.0
C180 C 0.4669 0.13181 0.98481 0.0
C181 C 0.49007 0.15831 0.90482 0.0
C182 C 0.49713 0.15367 0.95543 0.0
C183 C 0.48526 0.14011 0.99528 0.0
C184 C 0.47149 0.14975 0.89645 0.0
N185 N 0.46004 0.13726 0.93807 0.0
H186 H 0.45834 0.12032 0.01265 0.0
H187 H 0.46643 0.15274 0.85509 0.0
H188 H 0.45597 0.10496 0.87558 0.0
H189 H 0.4239 0.12163 0.7838 0.0
O190 O 0.42876 0.10197 0.96579 0.0
O191 O 0.40883 0.10663 0.91705 0.0
O192 O 0.43456 0.14406 0.87552 0.0
C193 C 0.41225 0.09586 0.94896 0.0
H194 H 0.40745 0.14642 0.08681 0.0
H195 H 0.45634 0.09862 0.7547 0.0
H196 H 0.4988 0.16827 0.8715 0.0
H197 H 0.49014 0.1353 0.03271 0.0
Co198 Co 0.56669 0.68747 0.40428 0.0
C199 C 0.56794 0.69599 0.26999 0.0
C200 C 0.58653 0.71867 0.3232 0.0
C201 C 0.58886 0.72339 0.26137 0.0
N202 N 0.57317 0.70154 0.32867 0.0
N203 N 0.57708 0.70907 0.22818 0.0
H204 H 0.55863 0.68242 0.25696 0.0
H205 H 0.59442 0.72698 0.36147 0.0
C206 C 0.56222 0.71889 0.43682 0.0
O207 O 0.55526 0.71798 0.38178 0.0
N208 N 0.56095 0.67395 0.47994 0.0
C209 C 0.5491 0.65648 0.48922 0.0
C210 C 0.54834 0.65303 0.55202 0.0
C211 C 0.56744 0.6808 0.53623 0.0
N212 N 0.55991 0.66838 0.58125 0.0
C213 C 0.53394 0.66379 0.34178 0.0
C214 C 0.51123 0.66937 0.41669 0.0
C215 C 0.50397 0.65703 0.36788 0.0
C216 C 0.51562 0.65431 0.33034 0.0
C217 C 0.5298 0.67884 0.42594 0.0
N218 N 0.54106 0.67652 0.38714 0.0
H219 H 0.54225 0.66008 0.31581 0.0
H220 H 0.5349 0.68729 0.46634 0.0
H221 H 0.54123 0.64708 0.45322 0.0
H222 H 0.57694 0.69481 0.54427 0.0
O223 O 0.57104 0.67011 0.36403 0.0
O224 O 0.59158 0.69394 0.41451 0.0
O225 O 0.56727 0.70781 0.45226 0.0
C226 C 0.5875 0.67954 0.38279 0.0
H227 H 0.5987 0.7362 0.24233 0.0
H228 H 0.53977 0.64032 0.57446 0.0
H229 H 0.50263 0.67139 0.44821 0.0
H230 H 0.51053 0.6442 0.2943 0.0
Co231 Co 0.87795 0.56572 0.73055 0.0
C232 C 0.87086 0.56692 0.59636 0.0
C233 C 0.86625 0.58524 0.64903 0.0
C234 C 0.86416 0.58766 0.58699 0.0
N235 N 0.87014 0.57197 0.65495 0.0
N236 N 0.86703 0.57604 0.55415 0.0
H237 H 0.8755 0.55788 0.58376 0.0
H238 H 0.86568 0.59311 0.68708 0.0
C239 C 0.84248 0.56194 0.76535 0.0
O240 O 0.836 0.55462 0.71109 0.0
N241 N 0.88601 0.5602 0.80603 0.0
C242 C 0.89164 0.54835 0.8151 0.0
C243 C 0.89472 0.54784 0.8777 0.0
C244 C 0.88602 0.56693 0.86224 0.0
N245 N 0.89116 0.55955 0.90703 0.0
C246 C 0.8679 0.53252 0.66967 0.0
C247 C 0.84006 0.51049 0.7474 0.0
C248 C 0.84459 0.50283 0.69837 0.0
C249 C 0.85873 0.51413 0.65942 0.0
C250 C 0.84947 0.52912 0.75547 0.0
N251 N 0.86281 0.54004 0.7153 0.0
H252 H 0.87977 0.54051 0.64271 0.0
H253 H 0.84655 0.53454 0.79599 0.0
H254 H 0.89294 0.54034 0.77911 0.0
H255 H 0.88165 0.57652 0.87041 0.0
O256 O 0.89927 0.56943 0.689 0.0
O257 O 0.89677 0.59056 0.73863 0.0
O258 O 0.85869 0.56696 0.77951 0.0
C259 C 0.90667 0.58603 0.70646 0.0
H260 H 0.86127 0.59752 0.56758 0.0
H261 H 0.89901 0.53936 0.89993 0.0
H262 H 0.82962 0.50216 0.77999 0.0
H263 H 0.86337 0.50874 0.62317 0.0
Co264 Co 0.31339 0.88117 0.07746 0.0
C265 C 0.30505 0.87363 0.9433 0.0
C266 C 0.28208 0.86884 0.99624 0.0
C267 C 0.27741 0.86631 0.93437 0.0
N268 N 0.29937 0.87315 0.00189 0.0
N269 N 0.29191 0.8693 0.90135 0.0
H270 H 0.31871 0.87827 0.93046 0.0
H271 H 0.27362 0.86815 0.0344 0.0
C272 C 0.28279 0.84469 0.10975 0.0
O273 O 0.28387 0.83886 0.05452 0.0
N274 N 0.32689 0.88936 0.15304 0.0
C275 C 0.34448 0.8956 0.16217 0.0
C276 C 0.34792 0.89836 0.22496 0.0
C277 C 0.31994 0.88867 0.20941 0.0
N278 N 0.33243 0.89398 0.25432 0.0
C279 C 0.33814 0.87358 0.01486 0.0
C280 C 0.33298 0.84495 0.08709 0.0
C281 C 0.34536 0.85051 0.03827 0.0
C282 C 0.34794 0.86512 0.0023 0.0
C283 C 0.32326 0.85372 0.09765 0.0
N284 N 0.32529 0.86739 0.05991 0.0
H285 H 0.34154 0.88565 0.98963 0.0
H286 H 0.31475 0.84994 0.13797 0.0
H287 H 0.35399 0.89753 0.12608 0.0
H288 H 0.30584 0.88365 0.21757 0.0
O289 O 0.33004 0.90329 0.03719 0.0
O290 O 0.3058 0.89871 0.0881 0.0
O291 O 0.29355 0.86089 0.12542 0.0
C292 C 0.31993 0.90954 0.05609 0.0
H293 H 0.26451 0.86294 0.91518 0.0
H294 H 0.36073 0.90295 0.24729 0.0
H295 H 0.33103 0.83411 0.11746 0.0
H296 H 0.35806 0.87053 0.96633 0.0
Co297 Co 0.43391 0.30938 0.38517 0.0
C298 C 0.42692 0.30167 0.25124 0.0
C299 C 0.42127 0.27799 0.30094 0.0
C300 C 0.41664 0.27351 0.23965 0.0
N301 N 0.42836 0.29585 0.30796 0.0
N302 N 0.42015 0.28848 0.20873 0.0
H303 H 0.43028 0.31528 0.24123 0.0
H304 H 0.41858 0.26853 0.33789 0.0
C305 C 0.44359 0.28192 0.42466 0.0
O306 O 0.45451 0.28639 0.37703 0.0
N307 N 0.43832 0.32221 0.46213 0.0
C308 C 0.44729 0.34002 0.47236 0.0
C309 C 0.44687 0.3429 0.53526 0.0
C310 C 0.4324 0.31457 0.51789 0.0
N311 N 0.43759 0.32683 0.56347 0.0
C312 C 0.46637 0.32929 0.31469 0.0
C313 C 0.4898 0.335 0.4108 0.0
C314 C 0.49676 0.34364 0.35383 0.0
C315 C 0.4847 0.34003 0.30491 0.0
C316 C 0.4713 0.32379 0.418 0.0
N317 N 0.45972 0.3212 0.37043 0.0
H318 H 0.45764 0.32838 0.27783 0.0
H319 H 0.46622 0.31781 0.4629 0.0
H320 H 0.45382 0.3501 0.43684 0.0
H321 H 0.42427 0.30028 0.52493 0.0
O322 O 0.42949 0.32678 0.34591 0.0
O323 O 0.40876 0.30215 0.39274 0.0
O324 O 0.43398 0.28921 0.43234 0.0
C325 C 0.41287 0.31682 0.3625 0.0
H326 H 0.41042 0.26018 0.22003 0.0
H327 H 0.4532 0.35575 0.5585 0.0
H328 H 0.49839 0.33745 0.45054 0.0
H329 H 0.48923 0.34594 0.25949 0.0
Co330 Co 0.12382 0.43515 0.73398 0.0
C331 C 0.13102 0.43386 0.5997 0.0
C332 C 0.13505 0.41521 0.65287 0.0
C333 C 0.13734 0.41282 0.59101 0.0
N334 N 0.13139 0.42865 0.65839 0.0
N335 N 0.13484 0.42464 0.55785 0.0
H336 H 0.12676 0.44317 0.5867 0.0
H337 H 0.13542 0.40728 0.6911 0.0
C338 C 0.15933 0.4389 0.76747 0.0
O339 O 0.16561 0.44619 0.71298 0.0
N340 N 0.11602 0.4409 0.80956 0.0
C341 C 0.11062 0.45292 0.81876 0.0
C342 C 0.10787 0.45366 0.88151 0.0
C343 C 0.11619 0.4343 0.86584 0.0
N344 N 0.11139 0.44192 0.91079 0.0
C345 C 0.13385 0.46825 0.67228 0.0
C346 C 0.16186 0.49037 0.74927 0.0
C347 C 0.15725 0.49797 0.70021 0.0
C348 C 0.14302 0.48661 0.66162 0.0
C349 C 0.15244 0.47176 0.75773 0.0
N350 N 0.139 0.46079 0.71794 0.0
H351 H 0.12192 0.46021 0.64559 0.0
H352 H 0.15542 0.4664 0.79828 0.0
H353 H 0.1093 0.46093 0.78277 0.0
H354 H 0.12051 0.42465 0.87395 0.0
O355 O 0.10243 0.43145 0.69297 0.0
O356 O 0.10496 0.41037 0.74293 0.0
O357 O 0.14318 0.43393 0.7824 0.0
C358 C 0.09502 0.41489 0.7109 0.0
H359 H 0.14018 0.40291 0.57194 0.0
H360 H 0.10387 0.46235 0.90388 0.0
H361 H 0.17236 0.49874 0.78158 0.0
H362 H 0.13833 0.49197 0.62537 0.0
Co363 Co 0.68936 0.12312 0.06693 0.0
C364 C 0.69781 0.13072 0.93289 0.0
C365 C 0.72044 0.13436 0.9855 0.0
C366 C 0.72505 0.13672 0.9236 0.0
N367 N 0.70342 0.13089 0.9914 0.0
N368 N 0.71076 0.13444 0.89076 0.0
H369 H 0.68426 0.12665 0.92028 0.0
H370 H 0.72871 0.13453 0.02349 0.0
C371 C 0.72121 0.15854 0.10116 0.0
O372 O 0.72047 0.16492 0.04657 0.0
N373 N 0.67577 0.11512 0.14242 0.0
C374 C 0.65832 0.1096 0.15146 0.0
C375 C 0.65478 0.10683 0.21418 0.0
C376 C 0.68252 0.11535 0.1988 0.0
N377 N 0.67006 0.11048 0.24363 0.0
C378 C 0.66591 0.13292 0.00685 0.0
C379 C 0.67201 0.16095 0.08403 0.0
C380 C 0.65917 0.15593 0.03688 0.0
C381 C 0.65626 0.14172 -0.002 0.0
C382 C 0.68147 0.15176 0.09118 0.0
N383 N 0.67882 0.13826 0.05148 0.0
H384 H 0.66206 0.12106 0.97983 0.0
H385 H 0.6901 0.15494 0.13098 0.0
H386 H 0.649 0.10822 0.11538 0.0
H387 H 0.6965 0.11978 0.20707 0.0
O388 O 0.67174 0.10178 0.02548 0.0
O389 O 0.69536 0.1043 0.07528 0.0
O390 O 0.70989 0.1424 0.11576 0.0
C391 C 0.68093 0.09438 0.04309 0.0
H392 H 0.73774 0.13942 0.90426 0.0
H393 H 0.64206 0.10277 0.23642 0.0
H394 H 0.67438 0.17152 0.11635 0.0
H395 H 0.64582 0.13668 0.96312 0.0
C396 C 0.26915 0.43451 0.11957 0.0
C397 C 0.26664 0.43681 0.18266 0.0
C398 C 0.2574 0.43435 0.07466 0.0
C399 C 0.21179 0.42566 0.05115 0.0
H400 H 0.23138 0.45575 0.90563 0.0
C401 C 0.16671 0.43573 0.87731 0.0
C402 C 0.17135 0.43785 0.81413 0.0
C403 C 0.17823 0.43527 0.92188 0.0
C404 C 0.22564 0.44702 0.94536 0.0
H405 H 0.24965 0.44047 0.24813 0.0
H406 H 0.22887 0.43985 0.16944 0.0
H407 H 0.25152 0.45532 0.98406 0.0
H408 H 0.19157 0.44081 0.74801 0.0
H409 H 0.21143 0.43937 0.82545 0.0
H410 H 0.18594 0.41697 0.01217 0.0
C411 C 0.24003 0.43826 0.15497 0.0
C412 C 0.23721 0.44687 0.99046 0.0
C413 C 0.25195 0.43869 0.19991 0.0
C414 C 0.18768 0.43928 0.7964 0.0
C415 C 0.19912 0.43857 0.84095 0.0
C416 C 0.2002 0.42561 0.00566 0.0
C417 C 0.24273 0.43623 0.09187 0.0
C418 C 0.2304 0.43625 0.04391 0.0
C419 C 0.1946 0.43667 0.9044 0.0
C420 C 0.20696 0.43637 0.95223 0.0
H421 H 0.28038 0.43312 0.10463 0.0
H422 H 0.25972 0.43262 0.0264 0.0
H423 H 0.20619 0.41719 0.09158 0.0
H424 H 0.15431 0.43478 0.89264 0.0
H425 H 0.1744 0.43416 0.97022 0.0
C426 C 0.73081 0.16603 0.21182 0.0
C427 C 0.73399 0.17051 0.1486 0.0
C428 C 0.74245 0.17755 0.2571 0.0
C429 C 0.77851 0.22485 0.28082 0.0
H430 H 0.78684 0.20557 0.43172 0.0
C431 C 0.83375 0.26807 0.45729 0.0
C432 C 0.82843 0.26636 0.51975 0.0
C433 C 0.82226 0.25618 0.41254 0.0
C434 C 0.78453 0.21112 0.38996 0.0
H435 H 0.75207 0.19043 0.08319 0.0
H436 H 0.77282 0.21026 0.1619 0.0
H437 H 0.76729 0.1852 0.35161 0.0
H438 H 0.80699 0.25057 0.58444 0.0
H439 H 0.78697 0.22946 0.50604 0.0
H440 H 0.79623 0.25078 0.31886 0.0
C441 C 0.76103 0.19809 0.17685 0.0
C442 C 0.77327 0.19947 0.34405 0.0
C443 C 0.74921 0.18667 0.13157 0.0
C444 C 0.81145 0.25226 0.53668 0.0
C445 C 0.80004 0.24015 0.49195 0.0
C446 C 0.78997 0.23647 0.32632 0.0
C447 C 0.75774 0.19376 0.24033 0.0
C448 C 0.77003 0.20616 0.28888 0.0
C449 C 0.80528 0.24212 0.42936 0.0
C450 C 0.79305 0.22972 0.38138 0.0
H451 H 0.71908 0.15376 0.22658 0.0
H452 H 0.73922 0.17387 0.30536 0.0
H453 H 0.7761 0.23057 0.23976 0.0
H454 H 0.8467 0.27881 0.44265 0.0
H455 H 0.82669 0.25792 0.36471 0.0
C456 C 0.56187 0.74689 0.46555 0.0
C457 C 0.5628 0.73173 0.48353 0.0
C458 C 0.56224 0.75887 0.51014 0.0
C459 C 0.57318 0.77167 0.6769 0.0
H460 H 0.54519 0.79492 0.64976 0.0
C461 C 0.55888 0.81058 0.86733 0.0
C462 C 0.562 0.82761 0.84989 0.0
C463 C 0.55946 0.79901 0.82302 0.0
C464 C 0.55315 0.78858 0.65774 0.0
H465 H 0.56453 0.71705 0.56245 0.0
H466 H 0.5645 0.73744 0.64002 0.0
H467 H 0.54508 0.77443 0.57173 0.0
H468 H 0.56809 0.8458 0.77236 0.0
H469 H 0.56876 0.82551 0.6951 0.0
H470 H 0.58074 0.78553 0.76403 0.0
C471 C 0.5641 0.74052 0.59157 0.0
C472 C 0.55319 0.77691 0.61287 0.0
C473 C 0.56401 0.72873 0.54699 0.0
C474 C 0.5657 0.83282 0.78735 0.0
C475 C 0.56598 0.82116 0.743 0.0
C476 C 0.5729 0.78314 0.72219 0.0
C477 C 0.56325 0.7558 0.57385 0.0
C478 C 0.56326 0.76832 0.62167 0.0
C479 C 0.56285 0.80415 0.76036 0.0
C480 C 0.56294 0.79176 0.71291 0.0
H481 H 0.56104 0.74961 0.41696 0.0
H482 H 0.56191 0.77062 0.49447 0.0
H483 H 0.58139 0.76563 0.685 0.0
H484 H 0.55601 0.8062 0.91516 0.0
H485 H 0.55692 0.78592 0.83752 0.0
C486 C 0.83536 0.56461 0.87597 0.0
C487 C 0.8306 0.56288 0.81288 0.0
C488 C 0.82395 0.56486 0.9214 0.0
C489 C 0.78833 0.57511 0.94845 0.0
H490 H 0.77611 0.54302 0.08906 0.0
C491 C 0.73415 0.56609 0.12526 0.0
C492 C 0.73623 0.56266 0.18754 0.0
C493 C 0.74586 0.56647 0.07973 0.0
C494 C 0.7796 0.55232 0.05081 0.0
H495 H 0.81028 0.56036 0.74794 0.0
H496 H 0.79045 0.56121 0.82763 0.0
H497 H 0.79628 0.54329 0.00942 0.0
H498 H 0.75244 0.55735 0.25122 0.0
H499 H 0.77336 0.55874 0.17239 0.0
H500 H 0.77216 0.58459 0.99027 0.0
C501 C 0.803 0.56224 0.84164 0.0
C502 C 0.79108 0.55236 0.00497 0.0
C503 C 0.81429 0.56168 0.79615 0.0
C504 C 0.75044 0.5599 0.20352 0.0
C505 C 0.76235 0.56057 0.15811 0.0
C506 C 0.77707 0.57529 0.99479 0.0
C507 C 0.80766 0.56367 0.90472 0.0
C508 C 0.7955 0.56371 0.95326 0.0
C509 C 0.76014 0.56371 0.09543 0.0
C510 C 0.77247 0.56383 0.04655 0.0
H511 H 0.84779 0.56546 0.89048 0.0
H512 H 0.82792 0.5661 0.96966 0.0
H513 H 0.7917 0.58414 0.90936 0.0
H514 H 0.72319 0.56806 0.1113 0.0
H515 H 0.74344 0.56857 0.032 0.0
C516 C 0.19034 0.74868 0.53771 0.0
C517 C 0.17367 0.73441 0.51932 0.0
C518 C 0.20199 0.76099 0.49395 0.0
C519 C 0.20336 0.77678 0.33137 0.0
H520 H 0.25451 0.79652 0.35104 0.0
C521 C 0.25523 0.81584 0.13795 0.0
C522 C 0.27006 0.83218 0.15623 0.0
C523 C 0.24328 0.80408 0.1823 0.0
C524 C 0.24026 0.79117 0.34519 0.0
H525 H 0.15622 0.72171 0.44054 0.0
H526 H 0.17664 0.74265 0.3642 0.0
H527 H 0.23408 0.7757 0.42835 0.0
H528 H 0.28412 0.8489 0.23542 0.0
H529 H 0.26344 0.82822 0.31265 0.0
H530 H 0.20968 0.79194 0.24702 0.0
C531 C 0.18061 0.7448 0.4125 0.0
C532 C 0.22852 0.77932 0.38968 0.0
C533 C 0.16889 0.73268 0.45633 0.0
C534 C 0.27277 0.83646 0.21974 0.0
C535 C 0.261 0.82458 0.26405 0.0
C536 C 0.2151 0.78843 0.28644 0.0
C537 C 0.19733 0.75915 0.43062 0.0
C538 C 0.20989 0.77196 0.38349 0.0
C539 C 0.24613 0.8083 0.24579 0.0
C540 C 0.23366 0.79577 0.29301 0.0
H541 H 0.19436 0.75042 0.58599 0.0
H542 H 0.21459 0.77203 0.50998 0.0
H543 H 0.18916 0.77172 0.32545 0.0
H544 H 0.25279 0.8122 0.08937 0.0
H545 H 0.23196 0.79156 0.16706 0.0
C546 C 0.4548 0.26234 0.4683 0.0
C547 C 0.4427 0.26877 0.47085 0.0
C548 C 0.45445 0.25057 0.51368 0.0
C549 C 0.42543 0.21797 0.63124 0.0
H550 H 0.47013 0.22637 0.70392 0.0
C551 C 0.43053 0.16653 0.78946 0.0
C552 C 0.44122 0.17317 0.84295 0.0
C553 C 0.43041 0.17825 0.7449 0.0
C554 C 0.45754 0.22392 0.68431 0.0
H555 H 0.42063 0.26769 0.52289 0.0
H556 H 0.42 0.24709 0.60164 0.0
H557 H 0.47049 0.24661 0.62381 0.0
H558 H 0.46008 0.19735 0.89163 0.0
H559 H 0.4599 0.21781 0.81357 0.0
H560 H 0.41248 0.1953 0.69183 0.0
C561 C 0.42969 0.25111 0.56441 0.0
C562 C 0.45775 0.23539 0.63801 0.0
C563 C 0.43012 0.26297 0.51936 0.0
C564 C 0.45169 0.19179 0.85102 0.0
C565 C 0.45168 0.20352 0.80614 0.0
C566 C 0.42523 0.20641 0.67713 0.0
C567 C 0.44192 0.24486 0.5623 0.0
C568 C 0.4417 0.23256 0.61103 0.0
C569 C 0.44107 0.19687 0.75252 0.0
C570 C 0.44127 0.20927 0.70423 0.0
H571 H 0.46469 0.26656 0.43169 0.0
H572 H 0.46393 0.24584 0.5105 0.0
H573 H 0.41286 0.21538 0.61104 0.0
H574 H 0.4223 0.15226 0.7817 0.0
H575 H 0.42223 0.17271 0.7038 0.0
C576 C 0.47313 0.63649 0.40928 0.0
C577 C 0.48436 0.64563 0.35892 0.0
C578 C 0.4553 0.62327 0.39921 0.0
C579 C 0.4284 0.59127 0.27797 0.0
H580 H 0.3888 0.5793 0.38989 0.0
C581 C 0.36147 0.52657 0.24317 0.0
C582 C 0.35424 0.51616 0.29693 0.0
C583 C 0.37494 0.5445 0.2476 0.0
C584 C 0.39974 0.58245 0.35825 0.0
H585 H 0.48538 0.64922 0.25922 0.0
H586 H 0.45423 0.62636 0.24166 0.0
H587 H 0.41704 0.60733 0.40402 0.0
H588 H 0.35454 0.51687 0.39752 0.0
H589 H 0.37835 0.54794 0.40524 0.0
H590 H 0.41153 0.56624 0.23359 0.0
C591 C 0.45928 0.62905 0.28877 0.0
C592 C 0.4159 0.59851 0.36635 0.0
C593 C 0.47709 0.64218 0.29881 0.0
C594 C 0.36003 0.52443 0.35517 0.0
C595 C 0.37356 0.54234 0.3596 0.0
C596 C 0.41231 0.57526 0.26999 0.0
C597 C 0.44835 0.61899 0.3386 0.0
C598 C 0.43051 0.60297 0.32683 0.0
C599 C 0.38157 0.55244 0.30584 0.0
C600 C 0.39786 0.57048 0.31058 0.0
H601 H 0.47841 0.63876 0.45607 0.0
H602 H 0.4473 0.61569 0.4386 0.0
H603 H 0.43946 0.59408 0.24739 0.0
H604 H 0.35742 0.52064 0.19753 0.0
H605 H 0.38059 0.55199 0.20524 0.0
C606 C 0.8319 0.47561 0.6308 0.0
C607 C 0.83609 0.48315 0.69051 0.0
C608 C 0.82715 0.45776 0.62145 0.0
C609 C 0.81456 0.4146 0.69958 0.0
H610 H 0.84293 0.41041 0.56814 0.0
C611 C 0.83219 0.35826 0.68904 0.0
C612 C 0.83534 0.35289 0.631 0.0
C613 C 0.82785 0.37182 0.69328 0.0
C614 C 0.83455 0.41112 0.60413 0.0
H615 H 0.83745 0.47757 0.78777 0.0
H616 H 0.82919 0.44633 0.77148 0.0
H617 H 0.8429 0.43828 0.58151 0.0
H618 H 0.83516 0.35684 0.53159 0.0
H619 H 0.82687 0.37989 0.53889 0.0
H620 H 0.80654 0.38745 0.72291 0.0
C621 C 0.82945 0.4542 0.7319 0.0
C622 C 0.83456 0.42718 0.61189 0.0
C623 C 0.83417 0.4721 0.74128 0.0
C624 C 0.83277 0.36053 0.57711 0.0
C625 C 0.82827 0.37397 0.58134 0.0
C626 C 0.81446 0.39843 0.69158 0.0
C627 C 0.82652 0.44703 0.67159 0.0
C628 C 0.8248 0.42923 0.66024 0.0
C629 C 0.82639 0.38025 0.63952 0.0
C630 C 0.8247 0.39659 0.64433 0.0
H631 H 0.833 0.48375 0.59091 0.0
H632 H 0.82461 0.45253 0.57458 0.0
H633 H 0.80678 0.41572 0.73693 0.0
H634 H 0.83371 0.35244 0.7315 0.0
H635 H 0.82658 0.37631 0.73893 0.0
C636 C 0.47345 0.83482 0.90558 0.0
C637 C 0.48331 0.8363 0.95942 0.0
C638 C 0.45573 0.83105 0.90985 0.0
C639 C 0.41734 0.81742 0.01911 0.0
H640 H 0.40845 0.84905 0.91626 0.0
C641 C 0.36538 0.83918 0.07678 0.0
C642 C 0.35672 0.84234 0.02724 0.0
C643 C 0.37825 0.83417 0.06534 0.0
C644 C 0.4105 0.83985 0.94456 0.0
H645 H 0.48172 0.83346 0.05958 0.0
H646 H 0.45109 0.82751 0.06719 0.0
H647 H 0.43556 0.84766 0.90109 0.0
H648 H 0.35366 0.84132 0.92727 0.0
H649 H 0.37599 0.83246 0.90731 0.0
H650 H 0.39245 0.81023 0.06419 0.0
C651 C 0.45695 0.8291 0.02155 0.0
C652 C 0.42609 0.83901 0.93576 0.0
C653 C 0.47462 0.83274 0.01725 0.0
C654 C 0.36036 0.83928 0.96632 0.0
C655 C 0.37316 0.83425 0.95491 0.0
C656 C 0.40172 0.81832 0.02811 0.0
C657 C 0.44747 0.8288 0.96805 0.0
C658 C 0.42986 0.828 0.97345 0.0
C659 C 0.38267 0.83219 0.00414 0.0
C660 C 0.39826 0.82974 0.99144 0.0
H661 H 0.47969 0.83756 0.86026 0.0
H662 H 0.44871 0.83055 0.86757 0.0
H663 H 0.4197 0.80862 0.04846 0.0
H664 H 0.36297 0.84157 0.1242 0.0
H665 H 0.38543 0.83283 0.1043 0.0
C666 C 0.63719 0.4757 0.24406 0.0
C667 C 0.64914 0.48405 0.29331 0.0
C668 C 0.62322 0.45803 0.2497 0.0
C669 C 0.59655 0.42506 0.37227 0.0
H670 H 0.57316 0.39513 0.22924 0.0
C671 C 0.5296 0.35622 0.37975 0.0
C672 C 0.51613 0.3573 0.34622 0.0
C673 C 0.54761 0.36958 0.37375 0.0
C674 C 0.5797 0.40328 0.26964 0.0
H675 H 0.65668 0.48027 0.3854 0.0
H676 H 0.63288 0.44909 0.39433 0.0
H677 H 0.60242 0.42198 0.21707 0.0
H678 H 0.51144 0.37384 0.28104 0.0
H679 H 0.54268 0.39624 0.26835 0.0
H680 H 0.57366 0.40612 0.42448 0.0
C681 C 0.63379 0.4563 0.35212 0.0
C682 C 0.59637 0.41877 0.26271 0.0
C683 C 0.64755 0.4741 0.34689 0.0
C684 C 0.52127 0.37201 0.30613 0.0
C685 C 0.53922 0.38502 0.29908 0.0
C686 C 0.58005 0.40935 0.37934 0.0
C687 C 0.62105 0.44818 0.30443 0.0
C688 C 0.60476 0.43023 0.3135 0.0
C689 C 0.55251 0.384 0.33305 0.0
C690 C 0.57127 0.39865 0.32775 0.0
H691 H 0.63798 0.48318 0.20263 0.0
H692 H 0.6136 0.45249 0.21227 0.0
H693 H 0.60233 0.43357 0.41243 0.0
H694 H 0.5263 0.34508 0.41055 0.0
H695 H 0.55771 0.3686 0.40056 0.0
C696 C 0.16769 0.52874 0.74262 0.0
C697 C 0.16574 0.51764 0.69202 0.0
C698 C 0.17241 0.54663 0.73296 0.0
C699 C 0.16727 0.57353 0.6124 0.0
H700 H 0.19516 0.61331 0.72334 0.0
C701 C 0.16902 0.64014 0.57671 0.0
C702 C 0.16633 0.64774 0.63043 0.0
C703 C 0.17355 0.62671 0.58123 0.0
C704 C 0.18728 0.60232 0.69202 0.0
H705 H 0.16875 0.51691 0.59243 0.0
H706 H 0.17715 0.54812 0.57562 0.0
H707 H 0.19498 0.58508 0.7377 0.0
H708 H 0.16774 0.64815 0.73097 0.0
H709 H 0.17494 0.62432 0.7389 0.0
H710 H 0.15889 0.59025 0.5683 0.0
C711 C 0.17463 0.54294 0.62257 0.0
C712 C 0.18721 0.58617 0.70022 0.0
C713 C 0.16988 0.5251 0.63219 0.0
C714 C 0.16937 0.64235 0.68863 0.0
C715 C 0.17374 0.62882 0.69317 0.0
C716 C 0.16726 0.58957 0.60443 0.0
C717 C 0.1753 0.55373 0.67254 0.0
C718 C 0.17701 0.57152 0.66093 0.0
C719 C 0.17533 0.62043 0.63955 0.0
C720 C 0.17706 0.60412 0.6446 0.0
H721 H 0.16445 0.52333 0.78919 0.0
H722 H 0.17269 0.55454 0.77242 0.0
H723 H 0.15896 0.56241 0.58206 0.0
H724 H 0.16672 0.64384 0.53107 0.0
H725 H 0.17504 0.62082 0.5389 0.0
C726 C 0.6417 0.16633 0.97326 0.0
C727 C 0.64736 0.16387 0.03178 0.0
C728 C 0.62817 0.17068 0.96823 0.0
C729 C 0.58921 0.16467 0.05695 0.0
H730 H 0.58402 0.19099 0.92027 0.0
C731 C 0.52403 0.16595 0.0246 0.0
C732 C 0.51672 0.16161 0.96458 0.0
C733 C 0.54185 0.17076 0.03508 0.0
C734 C 0.58529 0.1836 0.95869 0.0
H735 H 0.64408 0.16532 0.13101 0.0
H736 H 0.62093 0.1735 0.12226 0.0
H737 H 0.61251 0.19183 0.93589 0.0
H738 H 0.52263 0.15984 0.86798 0.0
H739 H 0.55378 0.16815 0.88626 0.0
H740 H 0.56195 0.15605 0.07892 0.0
C741 C 0.62664 0.17162 0.08015 0.0
C742 C 0.6016 0.18406 0.96764 0.0
C743 C 0.6401 0.16716 0.08518 0.0
C744 C 0.52792 0.16324 0.91468 0.0
C745 C 0.54578 0.16801 0.92519 0.0
C746 C 0.57299 0.16427 0.04817 0.0
C747 C 0.62005 0.1728 0.02163 0.0
C748 C 0.60365 0.17432 0.01624 0.0
C749 C 0.55278 0.17128 0.9858 0.0
C750 C 0.57071 0.17346 -0.00167 0.0
H751 H 0.64723 0.16419 0.93117 0.0
H752 H 0.62342 0.17139 0.92238 0.0
H753 H 0.59011 0.15669 0.09407 0.0
H754 H 0.51579 0.16511 0.06383 0.0
H755 H 0.54694 0.17355 0.08213 0.0
C756 C 0.31754 0.38316 0.27015 0.0
C757 C 0.32492 0.3997 0.30104 0.0
C758 C 0.3248 0.37195 0.27887 0.0
C759 C 0.33931 0.34776 0.32594 0.0
H760 H 0.39122 0.37347 0.32602 0.0
C761 C 0.38377 0.31598 0.38289 0.0
C762 C 0.39973 0.32257 0.34889 0.0
C763 C 0.3727 0.32342 0.37469 0.0
C764 C 0.37672 0.36603 0.32554 0.0
H765 H 0.34481 0.41692 0.36831 0.0
H766 H 0.35719 0.39737 0.38417 0.0
H767 H 0.37538 0.39 0.31875 0.0
H768 H 0.41593 0.34101 0.27637 0.0
H769 H 0.39659 0.35367 0.26134 0.0
H770 H 0.34086 0.3237 0.3318 0.0
C771 C 0.34615 0.3932 0.35203 0.0
C772 C 0.36762 0.37555 0.32225 0.0
C773 C 0.339 0.40439 0.3431 0.0
C774 C 0.40387 0.33588 0.30406 0.0
C775 C 0.39281 0.34318 0.29559 0.0
C776 C 0.34848 0.33818 0.32943 0.0
C777 C 0.3395 0.37711 0.31874 0.0
C778 C 0.34883 0.36658 0.32257 0.0
C779 C 0.37742 0.33748 0.33218 0.0
C780 C 0.36731 0.34725 0.32888 0.0
H781 H 0.30665 0.3792 0.23752 0.0
H782 H 0.31941 0.35966 0.25242 0.0
H783 H 0.32481 0.34048 0.32652 0.0
H784 H 0.38027 0.3057 0.41773 0.0
H785 H 0.36093 0.31877 0.40363 0.0
C786 C 0.06636 0.38593 0.72876 0.0
C787 C 0.07602 0.40224 0.69682 0.0
C788 C 0.04789 0.37505 0.71921 0.0
C789 C 0.00941 0.35127 0.67006 0.0
H790 H 0.98413 0.37782 0.65984 0.0
C791 C 0.93391 0.31977 0.60436 0.0
C792 C 0.9243 0.32669 0.63493 0.0
C793 C 0.95236 0.32732 0.61435 0.0
C794 C 0.99092 0.37015 0.6632 0.0
H795 H 0.07422 0.41939 0.62699 0.0
H796 H 0.0423 0.40039 0.60958 0.0
H797 H 0.0164 0.39386 0.67099 0.0
H798 H 0.92613 0.34608 0.70286 0.0
H799 H 0.95803 0.35896 0.72101 0.0
H800 H 0.98362 0.32748 0.66333 0.0
C801 C 0.04877 0.39617 0.64324 0.0
C802 C 0.00949 0.37938 0.6687 0.0
C803 C 0.0671 0.40703 0.65305 0.0
C804 C 0.93323 0.34066 0.67778 0.0
C805 C 0.95154 0.34809 0.68804 0.0
C806 C 0.9907 0.34197 0.66446 0.0
C807 C 0.03883 0.38031 0.67741 0.0
C808 C 0.019 0.3701 0.67192 0.0
C809 C 0.96144 0.34185 0.65527 0.0
C810 C 0.98126 0.35135 0.6612 0.0
H811 H 0.07292 0.38191 0.76274 0.0
H812 H 0.04059 0.36293 0.74637 0.0
H813 H 0.01637 0.34375 0.67219 0.0
H814 H 0.92733 0.30897 0.57117 0.0
H815 H 0.95961 0.32225 0.58824 0.0
C816 C 0.68135 0.06575 0.06013 0.0
C817 C 0.67466 0.07543 0.02849 0.0
C818 C 0.67381 0.0473 0.05012 0.0
C819 C 0.6592 0.0089 0.00019 0.0
H820 H 0.60737 0.98356 0.99017 0.0
C821 C 0.61513 0.9334 0.93409 0.0
C822 C 0.59864 0.92379 0.96493 0.0
C823 C 0.62607 0.95184 0.94413 0.0
C824 C 0.62183 0.99037 0.99344 0.0
H825 H 0.65576 0.07372 0.95867 0.0
H826 H 0.64294 0.04183 0.94047 0.0
H827 H 0.62357 0.01583 0.00158 0.0
H828 H 0.5812 0.92561 0.03343 0.0
H829 H 0.60028 0.9575 0.05163 0.0
H830 H 0.65724 0.98313 0.99311 0.0
C831 C 0.6536 0.04826 0.97425 0.0
C832 C 0.63116 0.00894 -0.00089 0.0
C833 C 0.661 0.06657 0.98451 0.0
C834 C 0.5937 0.93271 0.00813 0.0
C835 C 0.60461 0.95101 0.01843 0.0
C836 C 0.64981 0.99019 0.99441 0.0
C837 C 0.65954 0.0383 0.00814 0.0
C838 C 0.64994 0.01847 0.0023 0.0
C839 C 0.62068 0.96091 0.98535 0.0
C840 C 0.63099 0.98074 0.99125 0.0
H841 H 0.69189 0.07227 0.09424 0.0
H842 H 0.67864 0.03998 0.07708 0.0
H843 H 0.67368 0.01588 0.00229 0.0
H844 H 0.61928 0.92682 0.90062 0.0
H845 H 0.63834 0.95911 0.9178 0.0
C846 C 0.61682 0.68077 0.40261 0.0
C847 C 0.60049 0.67351 0.3704 0.0
C848 C 0.62806 0.67351 0.3949 0.0
C849 C 0.65259 0.65931 0.34904 0.0
H850 H 0.62714 0.60741 0.34436 0.0
C851 C 0.68528 0.61621 0.28656 0.0
C852 C 0.67864 0.59977 0.3176 0.0
C853 C 0.67758 0.62697 0.29678 0.0
C854 C 0.63452 0.6219 0.34627 0.0
H855 H 0.58368 0.65379 0.302 0.0
H856 H 0.60329 0.64142 0.28783 0.0
H857 H 0.61044 0.62304 0.35288 0.0
H858 H 0.65973 0.5823 0.38687 0.0
H859 H 0.64665 0.60113 0.4056 0.0
H860 H 0.67676 0.65798 0.34328 0.0
C861 C 0.60726 0.65236 0.32026 0.0
C862 C 0.6249 0.63089 0.35024 0.0
C863 C 0.59604 0.65951 0.3282 0.0
C864 C 0.66494 0.59477 0.36152 0.0
C865 C 0.65739 0.60554 0.37205 0.0
C866 C 0.66228 0.65026 0.34495 0.0
C867 C 0.62314 0.65892 0.35473 0.0
C868 C 0.63377 0.64969 0.35127 0.0
C869 C 0.66321 0.62147 0.33843 0.0
C870 C 0.65331 0.63143 0.34366 0.0
H871 H 0.62059 0.69159 0.4354 0.0
H872 H 0.64019 0.67883 0.42223 0.0
H873 H 0.6598 0.67381 0.34954 0.0
H874 H 0.69585 0.62038 0.25246 0.0
H875 H 0.68234 0.63914 0.26999 0.0
C876 C 0.06787 0.681 0.5999 0.0
C877 C 0.07736 0.67394 0.63049 0.0
C878 C 0.0494 0.67348 0.60934 0.0
C879 C 0.01098 0.65883 0.65892 0.0
H880 H 0.98507 0.60692 0.66371 0.0
C881 C 0.93537 0.61498 0.72381 0.0
C882 C 0.92562 0.5987 0.6918 0.0
C883 C 0.95383 0.62585 0.71384 0.0
C884 C 0.99204 0.62141 0.66188 0.0
H885 H 0.07527 0.65429 0.69784 0.0
H886 H 0.04334 0.64145 0.71499 0.0
H887 H 0.01735 0.62287 0.6527 0.0
H888 H 0.92722 0.58161 0.62132 0.0
H889 H 0.95912 0.6006 0.60314 0.0
H890 H 0.98538 0.65717 0.66707 0.0
C891 C 0.04994 0.65243 0.68245 0.0
C892 C 0.01061 0.63058 0.65645 0.0
C893 C 0.06827 0.65984 0.67276 0.0
C894 C 0.93443 0.59395 0.64745 0.0
C895 C 0.95274 0.6048 0.63721 0.0
C896 C 0.99227 0.64959 0.66445 0.0
C897 C 0.04018 0.65882 0.6497 0.0
C898 C 0.02035 0.64939 0.65516 0.0
C899 C 0.96277 0.62061 0.67151 0.0
C900 C 0.9826 0.63076 0.66573 0.0
H901 H 0.07456 0.69191 0.56715 0.0
H902 H 0.04224 0.67866 0.58327 0.0
H903 H 0.01812 0.67333 0.65833 0.0
H904 H 0.9289 0.61898 0.75823 0.0
H905 H 0.96119 0.63792 0.74113 0.0
C906 C 0.38203 0.06878 0.93182 0.0
C907 C 0.39834 0.07736 0.96425 0.0
C908 C 0.36966 0.05071 0.94314 0.0
C909 C 0.35715 0.01396 0.05596 0.0
H910 H 0.34201 0.98304 0.91145 0.0
C911 C 0.33758 0.93793 0.99696 0.0
C912 C 0.32463 0.92816 0.04234 0.0
C913 C 0.34293 0.95585 0.98579 0.0
C914 C 0.346 0.99152 0.95221 0.0
H915 H 0.41415 0.07408 0.03578 0.0
H916 H 0.39257 0.04274 0.05587 0.0
H917 H 0.35805 0.01552 0.89781 0.0
H918 H 0.30686 0.92935 0.11078 0.0
H919 H 0.31652 0.96096 0.09193 0.0
H920 H 0.34572 0.98995 0.11034 0.0
C921 C 0.3893 0.04988 0.02173 0.0
C922 C 0.35505 0.0101 0.94441 0.0
C923 C 0.40173 0.0678 0.00985 0.0
C924 C 0.31686 0.93657 0.07551 0.0
C925 C 0.32242 0.95464 0.06489 0.0
C926 C 0.34795 0.99537 0.06376 0.0
C927 C 0.37327 0.04105 0.9878 0.0
C928 C 0.36118 0.02151 0.99621 0.0
C929 C 0.33562 0.96448 0.0202 0.0
C930 C 0.34276 0.98398 0.01194 0.0
H931 H 0.37908 0.07584 0.89638 0.0
H932 H 0.35737 0.04424 0.91648 0.0
H933 H 0.36159 0.02244 0.0967 0.0
H934 H 0.34376 0.93179 0.97047 0.0
H935 H 0.35329 0.96314 0.95162 0.0
C936 C 0.30467 0.44156 0.53296 0.0
C937 C 0.29182 0.42529 0.50626 0.0
C938 C 0.30798 0.44282 0.59658 0.0
C939 C 0.30389 0.41497 0.73162 0.0
H940 H 0.31474 0.45783 0.82394 0.0
C941 C 0.31316 0.42096 -0.00219 0.0
C942 C 0.32707 0.43721 0.02121 0.0
C943 C 0.30889 0.41912 0.93481 0.0
C944 C 0.31193 0.44586 0.79856 0.0
H945 H 0.27195 0.39769 0.52584 0.0
H946 H 0.27744 0.39998 0.63748 0.0
H947 H 0.30593 0.4553 0.71531 0.0
H948 H 0.34767 0.46411 0.9967 0.0
H949 H 0.34035 0.46083 0.8863 0.0
H950 H 0.30983 0.40552 0.81516 0.0
C951 C 0.28518 0.41169 0.60882 0.0
C952 C 0.30685 0.44439 0.73641 0.0
C953 C 0.28187 0.41043 0.545 0.0
C954 C 0.33698 0.4514 0.97997 0.0
C955 C 0.33265 0.44959 0.91695 0.0
C956 C 0.3089 0.41641 0.79389 0.0
C957 C 0.29845 0.42784 0.63515 0.0
C958 C 0.30289 0.42898 0.7021 0.0
C959 C 0.31839 0.43351 0.89392 0.0
C960 C 0.31309 0.43192 0.82785 0.0
H961 H 0.31236 0.45332 0.50448 0.0
H962 H 0.31839 0.45542 0.61521 0.0
H963 H 0.30121 0.40305 0.70622 0.0
H964 H 0.30542 0.40974 0.02842 0.0
H965 H 0.29779 0.40659 0.91845 0.0
C966 C 0.90179 0.33902 0.31618 0.0
C967 C 0.88927 0.32575 0.35585 0.0
C968 C 0.90209 0.33544 0.25307 0.0
C969 C 0.8865 0.29794 0.14124 0.0
H970 H 0.89057 0.33331 0.02144 0.0
C971 C 0.86499 0.28174 0.88483 0.0
C972 C 0.87558 0.29458 0.84034 0.0
C973 C 0.86874 0.28533 0.94797 0.0
C974 C 0.88969 0.3234 0.05431 0.0
H975 H 0.86691 0.29857 0.36026 0.0
H976 H 0.8673 0.29238 0.25073 0.0
H977 H 0.89345 0.34046 0.1316 0.0
H978 H 0.89921 0.32062 0.82656 0.0
H979 H 0.90568 0.32692 0.93649 0.0
H980 H 0.88227 0.28073 0.06375 0.0
C981 C 0.87723 0.30537 0.26837 0.0
C982 C 0.89137 0.32751 0.11738 0.0
C983 C 0.87698 0.30893 0.3312 0.0
C984 C 0.89048 0.31069 0.85988 0.0
C985 C 0.89423 0.31428 0.92278 0.0
C986 C 0.88476 0.29381 0.07813 0.0
C987 C 0.8898 0.31855 0.22862 0.0
C988 C 0.88955 0.31474 0.16155 0.0
C989 C 0.88318 0.30181 0.96748 0.0
C990 C 0.88614 0.30644 0.03413 0.0
H991 H 0.91151 0.35204 0.33411 0.0
H992 H 0.91202 0.34582 0.22356 0.0
H993 H 0.88533 0.28793 0.17421 0.0
H994 H 0.85342 0.26925 0.87087 0.0
H995 H 0.85992 0.27552 0.98151 0.0
C996 C 0.5812 0.89026 0.18964 0.0
C997 C 0.58193 0.87509 0.17008 0.0
C998 C 0.58144 0.89403 0.25254 0.0
C999 C 0.59182 0.88399 0.40799 0.0
H1000 H 0.55455 0.89374 0.46111 0.0
C1001 C 0.56875 0.87644 0.66082 0.0
C1002 C 0.56455 0.88897 0.6855 0.0
C1003 C 0.57257 0.87665 0.59801 0.0
C1004 C 0.56523 0.89136 0.447 0.0
H1005 H 0.58433 0.85247 0.20064 0.0
H1006 H 0.58471 0.85904 0.31126 0.0
H1007 H 0.55883 0.89085 0.35097 0.0
H1008 H 0.56111 0.91159 0.66387 0.0
H1009 H 0.56787 0.91204 0.55337 0.0
H1010 H 0.59806 0.88427 0.50415 0.0
C1011 C 0.58403 0.86803 0.27772 0.0
C1012 C 0.56767 0.88968 0.38393 0.0
C1013 C 0.58379 0.86425 0.21458 0.0
C1014 C 0.56415 0.90169 0.6459 0.0
C1015 C 0.56804 0.90195 0.58282 0.0
C1016 C 0.58942 0.88574 0.4711 0.0
C1017 C 0.58246 0.88275 0.29724 0.0
C1018 C 0.58082 0.88574 0.36388 0.0
C1019 C 0.57232 0.88943 0.55832 0.0
C1020 C 0.57591 0.88916 0.49128 0.0
H1021 H 0.5803 0.89916 0.15632 0.0
H1022 H 0.5806 0.90568 0.26627 0.0
H1023 H 0.60222 0.8812 0.39371 0.0
H1024 H 0.56877 0.86622 0.68984 0.0
H1025 H 0.57537 0.86655 0.58034 0.0
C1026 C 0.69175 0.58216 0.0098 0.0
C1027 C 0.67706 0.56622 0.03171 0.0
C1028 C 0.69584 0.58453 0.94664 0.0
C1029 C 0.677 0.56723 0.79133 0.0
H1030 H 0.72669 0.58621 0.7443 0.0
C1031 C 0.69682 0.56034 0.54405 0.0
C1032 C 0.7112 0.5755 0.51671 0.0
C1033 C 0.69326 0.56009 0.60716 0.0
C1034 C 0.7128 0.5811 0.75673 0.0
H1035 H 0.65493 0.54042 0.00422 0.0
H1036 H 0.66202 0.54453 0.89398 0.0
H1037 H 0.71875 0.58448 0.85383 0.0
H1038 H 0.7335 0.6021 0.53459 0.0
H1039 H 0.72731 0.60164 0.64561 0.0
H1040 H 0.67101 0.56362 0.69437 0.0
C1041 C 0.67028 0.5553 0.92561 0.0
C1042 C 0.70824 0.58013 0.81939 0.0
C1043 C 0.66619 0.55294 0.98881 0.0
C1044 C 0.7224 0.59019 0.55443 0.0
C1045 C 0.71883 0.58994 0.61787 0.0
C1046 C 0.68154 0.56817 0.7288 0.0
C1047 C 0.6853 0.57102 0.90395 0.0
C1048 C 0.69026 0.573 0.83736 0.0
C1049 C 0.70401 0.57499 0.64456 0.0
C1050 C 0.69945 0.5749 0.71088 0.0
H1051 H 0.70019 0.59278 0.04157 0.0
H1052 H 0.7073 0.59693 0.93124 0.0
H1053 H 0.66308 0.56197 0.80362 0.0
H1054 H 0.68822 0.54867 0.51644 0.0
H1055 H 0.68201 0.54821 0.62669 0.0
C1056 C 0.10025 0.66166 0.3135 0.0
C1057 C 0.11282 0.67493 0.35304 0.0
C1058 C 0.0999 0.66524 0.25042 0.0
C1059 C 0.11529 0.70271 0.1386 0.0
H1060 H 0.11113 0.66735 0.01863 0.0
C1061 C 0.13646 0.71892 0.88195 0.0
C1062 C 0.12587 0.70605 0.83756 0.0
C1063 C 0.13276 0.71533 0.94512 0.0
C1064 C 0.11203 0.67726 0.05154 0.0
H1065 H 0.1352 0.70211 0.35728 0.0
H1066 H 0.13469 0.70829 0.24774 0.0
H1067 H 0.10842 0.66023 0.12879 0.0
H1068 H 0.1023 0.67996 0.82395 0.0
H1069 H 0.09591 0.67368 0.93395 0.0
H1070 H 0.11936 0.7199 0.06115 0.0
C1071 C 0.12479 0.6953 0.26548 0.0
C1072 C 0.11045 0.67316 0.11462 0.0
C1073 C 0.1251 0.69175 0.32829 0.0
C1074 C 0.11102 0.68991 0.85722 0.0
C1075 C 0.10732 0.68633 0.92015 0.0
C1076 C 0.11692 0.70683 0.07548 0.0
C1077 C 0.11216 0.68213 0.22587 0.0
C1078 C 0.11232 0.68593 0.15884 0.0
C1079 C 0.11837 0.69883 0.96475 0.0
C1080 C 0.11551 0.69421 0.03142 0.0
H1081 H 0.09054 0.64865 0.3315 0.0
H1082 H 0.08992 0.65486 0.22101 0.0
H1083 H 0.1165 0.71272 0.17163 0.0
H1084 H 0.14799 0.73143 0.8679 0.0
H1085 H 0.14158 0.72517 0.97858 0.0
C1086 C 0.42055 0.10956 0.65865 0.0
C1087 C 0.43613 0.11027 0.68169 0.0
C1088 C 0.41892 0.1122 0.59565 0.0
C1089 C 0.4465 0.13397 0.45891 0.0
H1090 H 0.40249 0.10528 0.36725 0.0
C1091 C 0.44269 0.13713 0.19361 0.0
C1092 C 0.42721 0.13577 0.16683 0.0
C1093 C 0.44357 0.13483 0.25723 0.0
C1094 C 0.41478 0.11359 0.39249 0.0
H1095 H 0.46202 0.11378 0.65647 0.0
H1096 H 0.45909 0.11815 0.54611 0.0
H1097 H 0.40421 0.09854 0.4762 0.0
H1098 H 0.40067 0.13143 0.18605 0.0
H1099 H 0.4023 0.12772 0.29791 0.0
H1100 H 0.45709 0.14904 0.37546 0.0
C1101 C 0.44822 0.11576 0.57705 0.0
C1102 C 0.41578 0.10967 0.45475 0.0
C1103 C 0.44981 0.11304 0.64006 0.0
C1104 C 0.4128 0.13264 0.2054 0.0
C1105 C 0.41366 0.13031 0.26928 0.0
C1106 C 0.44548 0.13792 0.39679 0.0
C1107 C 0.43288 0.11565 0.55441 0.0
C1108 C 0.43171 0.11974 0.48841 0.0
C1109 C 0.42899 0.13117 0.29571 0.0
C1110 C 0.42967 0.12768 0.36273 0.0
H1111 H 0.40969 0.10722 0.68953 0.0
H1112 H 0.40697 0.11209 0.5796 0.0
H1113 H 0.45883 0.14219 0.48406 0.0
H1114 H 0.45411 0.1398 0.16519 0.0
H1115 H 0.4555 0.13543 0.27598 0.0
C1116 C 0.59038 0.717 0.12313 0.0
C1117 C 0.57549 0.70714 0.16178 0.0
C1118 C 0.58906 0.71382 0.05919 0.0
C1119 C 0.55621 0.69275 0.9315 0.0
H1120 H 0.59448 0.68882 0.85234 0.0
C1121 C 0.54825 0.66205 0.68843 0.0
C1122 C 0.56244 0.67166 0.64691 0.0
C1123 C 0.55023 0.66654 0.75134 0.0
C1124 C 0.58376 0.69002 0.87371 0.0
H1125 H 0.54734 0.68696 0.16334 0.0
H1126 H 0.54512 0.68116 0.05248 0.0
H1127 H 0.59725 0.69757 0.96122 0.0
H1128 H 0.59008 0.69288 0.63912 0.0
H1129 H 0.59352 0.70077 0.74886 0.0
H1130 H 0.54264 0.68499 0.84417 0.0
C1131 C 0.5578 0.69139 0.07122 0.0
C1132 C 0.58538 0.69511 0.93596 0.0
C1133 C 0.55912 0.69456 0.13492 0.0
C1134 C 0.57885 0.68539 0.66993 0.0
C1135 C 0.58087 0.68981 0.73282 0.0
C1136 C 0.55457 0.6876 0.86938 0.0
C1137 C 0.5728 0.70079 0.0327 0.0
C1138 C 0.57157 0.69642 0.96565 0.0
C1139 C 0.56648 0.68062 0.77399 0.0
C1140 C 0.56828 0.68608 0.83996 0.0
H1141 H 0.60318 0.72672 0.14245 0.0
H1142 H 0.6008 0.72145 0.03058 0.0
H1143 H 0.54546 0.69392 0.95273 0.0
H1144 H 0.53542 0.65151 0.67199 0.0
H1145 H 0.53898 0.65908 0.78222 0.0
C1146 C 0.8936 0.57882 0.99538 0.0
C1147 C 0.89092 0.56238 0.97273 0.0
C1148 C 0.89178 0.58111 0.05852 0.0
C1149 C 0.89016 0.56175 0.21318 0.0
H1150 H 0.86425 0.58602 0.25971 0.0
C1151 C 0.86471 0.55852 0.46087 0.0
C1152 C 0.868 0.57472 0.48783 0.0
C1153 C 0.8674 0.55752 0.39761 0.0
C1154 C 0.87166 0.57938 0.2474 0.0
H1155 H 0.88452 0.53555 -0.0013 0.0
H1156 H 0.88126 0.53948 0.10895 0.0
H1157 H 0.87003 0.58354 0.15033 0.0
H1158 H 0.87605 0.60244 0.46898 0.0
H1159 H 0.88061 0.60065 0.35781 0.0
H1160 H 0.89157 0.55738 0.31018 0.0
C1161 C 0.88501 0.5507 0.078 0.0
C1162 C 0.87502 0.57799 0.18482 0.0
C1163 C 0.8869 0.54844 0.01483 0.0
C1164 C 0.87329 0.58974 0.44953 0.0
C1165 C 0.87594 0.58873 0.38596 0.0
C1166 C 0.88674 0.56308 0.27563 0.0
C1167 C 0.8872 0.56699 0.10044 0.0
C1168 C 0.88422 0.56906 0.16701 0.0
C1169 C 0.87337 0.57269 0.35969 0.0
C1170 C 0.87734 0.57178 0.29336 0.0
H1171 H 0.89701 0.5899 0.96418 0.0
H1172 H 0.89391 0.59394 0.07448 0.0
H1173 H 0.89755 0.55508 0.2011 0.0
H1174 H 0.86023 0.54662 0.48891 0.0
H1175 H 0.8649 0.54487 0.37838 0.0
C1176 C 0.33918 0.889 0.3614 0.0
C1177 C 0.32917 0.89311 0.32001 0.0
C1178 C 0.33477 0.88638 0.42437 0.0
C1179 C 0.31055 0.89535 0.54699 0.0
H1180 H 0.30823 0.85385 0.62608 0.0
C1181 C 0.28374 0.8743 0.79618 0.0
C1182 C 0.29392 0.86971 0.83497 0.0
C1183 C 0.28696 0.87626 0.73229 0.0
C1184 C 0.30896 0.86557 0.60483 0.0
H1185 H 0.30726 0.89853 0.31248 0.0
H1186 H 0.29951 0.89389 0.42231 0.0
H1187 H 0.31708 0.86018 0.51748 0.0
H1188 H 0.31476 0.86264 0.8368 0.0
H1189 H 0.32064 0.86643 0.72599 0.0
H1190 H 0.30265 0.90089 0.63448 0.0
C1191 C 0.31073 0.89266 0.40614 0.0
C1192 C 0.31406 0.86921 0.5427 0.0
C1193 C 0.31508 0.89517 0.3432 0.0
C1194 C 0.30689 0.86647 0.80828 0.0
C1195 C 0.31011 0.86844 0.7446 0.0
C1196 C 0.30551 0.89175 0.60924 0.0
C1197 C 0.32035 0.88796 0.44719 0.0
C1198 C 0.315 0.88419 0.51323 0.0
C1199 C 0.30037 0.87361 0.70596 0.0
C1200 C 0.30476 0.87687 0.63895 0.0
H1201 H 0.35001 0.88719 0.34482 0.0
H1202 H 0.34255 0.88299 0.45515 0.0
H1203 H 0.3113 0.90708 0.52559 0.0
H1204 H 0.2737 0.87695 0.81537 0.0
H1205 H 0.27906 0.88003 0.70358 0.0
C1206 C 0.43216 0.33478 0.66818 0.0
C1207 C 0.43434 0.32309 0.62863 0.0
C1208 C 0.42837 0.33065 0.73111 0.0
C1209 C 0.41181 0.29257 0.84151 0.0
H1210 H 0.4359 0.32993 0.9644 0.0
C1211 C 0.41892 0.27918 0.09965 0.0
C1212 C 0.41749 0.29036 0.14388 0.0
C1213 C 0.41841 0.28239 0.03633 0.0
C1214 C 0.42886 0.31939 0.9306 0.0
H1215 H 0.43497 0.29829 0.62415 0.0
H1216 H 0.42869 0.29123 0.73354 0.0
H1217 H 0.44038 0.33757 0.85458 0.0
H1218 H 0.41296 0.31276 0.15644 0.0
H1219 H 0.4123 0.31846 0.04613 0.0
H1220 H 0.40073 0.27434 0.91786 0.0
C1221 C 0.42931 0.3033 0.71597 0.0
C1222 C 0.43141 0.32377 0.86768 0.0
C1223 C 0.43297 0.30737 0.65327 0.0
C1224 C 0.41461 0.30422 0.12356 0.0
C1225 C 0.41417 0.30746 0.06041 0.0
C1226 C 0.40935 0.28818 0.90446 0.0
C1227 C 0.42684 0.31481 0.75559 0.0
C1228 C 0.4231 0.31038 0.82241 0.0
C1229 C 0.41647 0.29684 0.0162 0.0
C1230 C 0.418 0.30153 0.94957 0.0
H1231 H 0.433 0.3469 0.6502 0.0
H1232 H 0.4264 0.33973 0.76035 0.0
H1233 H 0.40493 0.28198 0.80777 0.0
H1234 H 0.42123 0.26848 0.11391 0.0
H1235 H 0.42033 0.27406 0.00321 0.0
C1236 C 0.12922 0.41125 0.4529 0.0
C1237 C 0.13441 0.42619 0.49145 0.0
C1238 C 0.12731 0.41255 0.38898 0.0
C1239 C 0.13927 0.44538 0.26112 0.0
H1240 H 0.0969 0.4073 0.18211 0.0
C1241 C 0.11676 0.45357 0.01799 0.0
C1242 C 0.11205 0.43935 0.97648 0.0
C1243 C 0.1192 0.45155 0.08093 0.0
C1244 C 0.10887 0.41796 0.20344 0.0
H1245 H 0.14257 0.45439 0.49286 0.0
H1246 H 0.1389 0.45658 0.38203 0.0
H1247 H 0.10284 0.4045 0.29103 0.0
H1248 H 0.10536 0.41162 0.96877 0.0
H1249 H 0.10971 0.40811 0.07857 0.0
H1250 H 0.14517 0.45893 0.17373 0.0
C1251 C 0.13637 0.44388 0.40083 0.0
C1252 C 0.11232 0.41633 0.26571 0.0
C1253 C 0.13827 0.44258 0.46452 0.0
C1254 C 0.1092 0.42288 -0.00044 0.0
C1255 C 0.11154 0.42082 0.06248 0.0
C1256 C 0.13578 0.44704 0.19899 0.0
C1257 C 0.13063 0.42883 0.36241 0.0
C1258 C 0.12751 0.43008 0.29535 0.0
C1259 C 0.11686 0.43523 0.10363 0.0
C1260 C 0.12049 0.4334 0.16962 0.0
H1261 H 0.12607 0.39843 0.47229 0.0
H1262 H 0.12309 0.40078 0.36044 0.0
H1263 H 0.15124 0.45608 0.28232 0.0
H1264 H 0.11918 0.46645 0.00153 0.0
H1265 H 0.12308 0.46282 0.11178 0.0
C1266 C 0.66362 0.11586 0.3506 0.0
C1267 C 0.67324 0.11121 0.30936 0.0
C1268 C 0.66801 0.11835 0.41359 0.0
C1269 C 0.69122 0.10817 0.53666 0.0
H1270 H 0.69527 0.1505 0.61517 0.0
C1271 C 0.71839 0.12874 0.7857 0.0
C1272 C 0.7087 0.13397 0.82438 0.0
C1273 C 0.7151 0.12677 0.72185 0.0
C1274 C 0.69405 0.13854 0.59409 0.0
H1275 H 0.69441 0.1047 0.30215 0.0
H1276 H 0.70213 0.10911 0.41205 0.0
H1277 H 0.6864 0.14437 0.50654 0.0
H1278 H 0.68866 0.14213 0.826 0.0
H1279 H 0.68264 0.13833 0.71525 0.0
H1280 H 0.69866 0.10222 0.62436 0.0
C1281 C 0.69123 0.11086 0.39572 0.0
C1282 C 0.68894 0.13502 0.53194 0.0
C1283 C 0.6869 0.10848 0.33274 0.0
C1284 C 0.69614 0.1378 0.79758 0.0
C1285 C 0.69284 0.13583 0.73394 0.0
C1286 C 0.69626 0.11166 0.59894 0.0
C1287 C 0.68202 0.11611 0.43661 0.0
C1288 C 0.68738 0.11975 0.50267 0.0
C1289 C 0.70209 0.13005 0.69543 0.0
C1290 C 0.69765 0.12684 0.62844 0.0
H1291 H 0.65314 0.1182 0.33389 0.0
H1292 H 0.66054 0.12217 0.44424 0.0
H1293 H 0.68998 0.09622 0.51543 0.0
H1294 H 0.72808 0.1256 0.80493 0.0
H1295 H 0.72262 0.12253 0.69325 0.0
loop_
_geom_bond_atom_site_label_1
_geom_bond_atom_site_label_2
_geom_bond_distance
_geom_bond_site_symmetry_2
_ccdc_geom_bond_type
Co0 N4 2.148 . S
Co0 N10 2.128 . S
Co0 N20 2.194 . S
Co0 O25 2.351 . S
Co0 O26 2.155 . S
Co0 O27 2.096 . S
C1 N4 1.301 . S
C1 N5 1.328 . S
C1 H6 0.930 . S
C2 C3 1.333 . S
C2 N4 1.317 . S
C2 H7 0.930 . S
C3 C2 1.333 . S
C3 N5 1.350 . S
C3 H29 0.931 . S
N4 Co0 2.148 . S
N4 C1 1.301 . S
N4 C2 1.317 . S
N5 C1 1.328 . S
N5 C3 1.350 . S
H6 C1 0.930 . S
H7 C2 0.930 . S
C8 O9 1.224 . S
C8 O27 1.247 . S
O9 C8 1.224 . S
N10 Co0 2.128 . S
N10 C11 1.355 . S
N10 C13 1.311 . S
C11 N10 1.355 . S
C11 C12 1.363 . S
C11 H23 0.929 . S
C12 C11 1.363 . S
C12 N14 1.375 . S
C12 H30 0.931 . S
C13 N10 1.311 . S
C13 N14 1.347 . S
C13 H24 0.929 . S
N14 C12 1.375 . S
N14 C13 1.347 . S
C15 C18 1.365 . S
C15 N20 1.328 . S
C15 H21 0.929 . S
C16 C17 1.362 . S
C16 C19 1.378 . S
C16 H31 0.929 . S
C17 C16 1.362 . S
C17 C18 1.366 . S
C18 C15 1.365 . S
C18 C17 1.366 . S
C18 H32 0.930 . S
C19 C16 1.378 . S
C19 N20 1.315 . S
C19 H22 0.930 . S
N20 Co0 2.194 . S
N20 C15 1.328 . S
N20 C19 1.315 . S
H21 C15 0.929 . S
H22 C19 0.930 . S
H23 C11 0.929 . S
H24 C13 0.929 . S
O25 Co0 2.351 . S
O25 C28 1.244 . S
O26 Co0 2.155 . S
O26 C28 1.240 . S
O27 Co0 2.096 . S
O27 C8 1.247 . S
C28 O25 1.244 . S
C28 O26 1.240 . S
H29 C3 0.931 . S
H30 C12 0.931 . S
H31 C16 0.929 . S
H32 C18 0.930 . S
Co33 N37 2.148 . S
Co33 N43 2.128 . S
Co33 N53 2.194 . S
Co33 O58 2.351 . S
Co33 O59 2.155 . S
Co33 O60 2.096 . S
C34 N37 1.301 . S
C34 N38 1.328 . S
C34 H39 0.930 . S
C35 C36 1.333 . S
C35 N37 1.317 . S
C35 H40 0.930 . S
C36 C35 1.333 . S
C36 N38 1.350 . S
C36 H62 0.931 . S
N37 Co33 2.148 . S
N37 C34 1.301 . S
N37 C35 1.317 . S
N38 C34 1.328 . S
N38 C36 1.350 . S
H39 C34 0.930 . S
H40 C35 0.930 . S
C41 O42 1.224 . S
C41 O60 1.247 . S
O42 C41 1.224 . S
N43 Co33 2.128 . S
N43 C44 1.355 . S
N43 C46 1.311 . S
C44 N43 1.355 . S
C44 C45 1.363 . S
C44 H56 0.929 . S
C45 C44 1.363 . S
C45 N47 1.375 . S
C45 H63 0.931 . S
C46 N43 1.311 . S
C46 N47 1.347 . S
C46 H57 0.929 . S
N47 C45 1.375 . S
N47 C46 1.347 . S
C48 C51 1.365 . S
C48 N53 1.328 . S
C48 H54 0.929 . S
C49 C50 1.362 . S
C49 C52 1.378 . S
C49 H64 0.929 . S
C50 C49 1.362 . S
C50 C51 1.366 . S
C51 C48 1.365 . S
C51 C50 1.366 . S
C51 H65 0.930 . S
C52 C49 1.378 . S
C52 N53 1.315 . S
C52 H55 0.930 . S
N53 Co33 2.194 . S
N53 C48 1.328 . S
N53 C52 1.315 . S
H54 C48 0.929 . S
H55 C52 0.930 . S
H56 C44 0.929 . S
H57 C46 0.929 . S
O58 Co33 2.351 . S
O58 C61 1.244 . S
O59 Co33 2.155 . S
O59 C61 1.240 . S
O60 Co33 2.096 . S
O60 C41 1.247 . S
C61 O58 1.244 . S
C61 O59 1.240 . S
H62 C36 0.931 . S
H63 C45 0.931 . S
H64 C49 0.929 . S
H65 C51 0.930 . S
Co66 N70 2.148 1_556 S
Co66 N76 2.128 . S
Co66 N86 2.194 . S
Co66 O91 2.351 . S
Co66 O92 2.155 . S
Co66 O93 2.096 . S
C67 N70 1.301 . S
C67 N71 1.328 . S
C67 H72 0.930 . S
C68 C69 1.333 . S
C68 N70 1.317 . S
C68 H73 0.930 . S
C69 C68 1.333 . S
C69 N71 1.350 . S
C69 H95 0.931 . S
N70 Co66 2.148 1_554 S
N70 C67 1.301 . S
N70 C68 1.317 . S
N71 C67 1.328 . S
N71 C69 1.350 . S
H72 C67 0.930 . S
H73 C68 0.930 . S
C74 O75 1.224 . S
C74 O93 1.247 . S
O75 C74 1.224 . S
N76 Co66 2.128 . S
N76 C77 1.355 . S
N76 C79 1.311 . S
C77 N76 1.355 . S
C77 C78 1.363 . S
C77 H89 0.929 . S
C78 C77 1.363 . S
C78 N80 1.375 . S
C78 H96 0.931 . S
C79 N76 1.311 . S
C79 N80 1.347 . S
C79 H90 0.929 . S
N80 C78 1.375 . S
N80 C79 1.347 . S
C81 C84 1.365 . S
C81 N86 1.328 . S
C81 H87 0.929 . S
C82 C83 1.362 . S
C82 C85 1.378 . S
C82 H97 0.929 . S
C83 C82 1.362 . S
C83 C84 1.366 . S
C84 C81 1.365 . S
C84 C83 1.366 . S
C84 H98 0.930 . S
C85 C82 1.378 . S
C85 N86 1.315 . S
C85 H88 0.930 . S
N86 Co66 2.194 . S
N86 C81 1.328 . S
N86 C85 1.315 . S
H87 C81 0.929 . S
H88 C85 0.930 . S
H89 C77 0.929 . S
H90 C79 0.929 . S
O91 Co66 2.351 . S
O91 C94 1.244 . S
O92 Co66 2.155 . S
O92 C94 1.240 . S
O93 Co66 2.096 . S
O93 C74 1.247 . S
C94 O91 1.244 . S
C94 O92 1.240 . S
H95 C69 0.931 . S
H96 C78 0.931 . S
H97 C82 0.929 . S
H98 C84 0.930 . S
Co99 N103 2.148 . S
Co99 N109 2.128 . S
Co99 N119 2.194 . S
Co99 O124 2.351 . S
Co99 O125 2.155 . S
Co99 O126 2.096 . S
C100 N103 1.301 . S
C100 N104 1.328 . S
C100 H105 0.930 . S
C101 C102 1.333 . S
C101 N103 1.317 . S
C101 H106 0.930 . S
C102 C101 1.333 . S
C102 N104 1.350 . S
C102 H128 0.931 . S
N103 Co99 2.148 . S
N103 C100 1.301 . S
N103 C101 1.317 . S
N104 C100 1.328 . S
N104 C102 1.350 . S
H105 C100 0.930 . S
H106 C101 0.930 . S
C107 O108 1.224 . S
C107 O126 1.247 . S
O108 C107 1.224 . S
N109 Co99 2.128 . S
N109 C110 1.355 . S
N109 C112 1.311 . S
C110 N109 1.355 . S
C110 C111 1.363 . S
C110 H122 0.929 . S
C111 C110 1.363 . S
C111 N113 1.375 . S
C111 H129 0.931 . S
C112 N109 1.311 . S
C112 N113 1.347 . S
C112 H123 0.929 . S
N113 C111 1.375 . S
N113 C112 1.347 . S
C114 C117 1.365 . S
C114 N119 1.328 . S
C114 H120 0.929 . S
C115 C116 1.362 . S
C115 C118 1.378 . S
C115 H130 0.929 . S
C116 C115 1.362 . S
C116 C117 1.366 . S
C117 C114 1.365 . S
C117 C116 1.366 . S
C117 H131 0.930 . S
C118 C115 1.378 . S
C118 N119 1.315 . S
C118 H121 0.930 . S
N119 Co99 2.194 . S
N119 C114 1.328 . S
N119 C118 1.315 . S
H120 C114 0.929 . S
H121 C118 0.930 . S
H122 C110 0.929 . S
H123 C112 0.929 . S
O124 Co99 2.351 . S
O124 C127 1.244 . S
O125 Co99 2.155 . S
O125 C127 1.240 . S
O126 Co99 2.096 . S
O126 C107 1.247 . S
C127 O124 1.244 . S
C127 O125 1.240 . S
H128 C102 0.931 . S
H129 C111 0.931 . S
H130 C115 0.929 . S
H131 C117 0.930 . S
Co132 N136 2.148 . S
Co132 N142 2.128 . S
Co132 N152 2.194 . S
Co132 O157 2.351 . S
Co132 O158 2.155 . S
Co132 O159 2.096 . S
C133 N136 1.301 . S
C133 N137 1.328 . S
C133 H138 0.930 . S
C134 C135 1.333 . S
C134 N136 1.317 . S
C134 H139 0.930 . S
C135 C134 1.333 . S
C135 N137 1.350 . S
C135 H161 0.931 . S
N136 Co132 2.148 . S
N136 C133 1.301 . S
N136 C134 1.317 . S
N137 C133 1.328 . S
N137 C135 1.350 . S
H138 C133 0.930 . S
H139 C134 0.930 . S
C140 O141 1.224 . S
C140 O159 1.247 . S
O141 C140 1.224 . S
N142 Co132 2.128 . S
N142 C143 1.355 . S
N142 C145 1.311 . S
C143 N142 1.355 . S
C143 C144 1.363 . S
C143 H155 0.929 . S
C144 C143 1.363 . S
C144 N146 1.375 . S
C144 H162 0.931 . S
C145 N142 1.311 . S
C145 N146 1.347 . S
C145 H156 0.929 . S
N146 C144 1.375 . S
N146 C145 1.347 . S
C147 C150 1.365 . S
C147 N152 1.328 . S
C147 H153 0.929 . S
C148 C149 1.362 . S
C148 C151 1.378 . S
C148 H163 0.929 . S
C149 C148 1.362 . S
C149 C150 1.366 . S
C150 C147 1.365 . S
C150 C149 1.366 . S
C150 H164 0.930 . S
C151 C148 1.378 . S
C151 N152 1.315 . S
C151 H154 0.930 . S
N152 Co132 2.194 . S
N152 C147 1.328 . S
N152 C151 1.315 . S
H153 C147 0.929 . S
H154 C151 0.930 . S
H155 C143 0.929 . S
H156 C145 0.929 . S
O157 Co132 2.351 . S
O157 C160 1.244 . S
O158 Co132 2.155 . S
O158 C160 1.240 . S
O159 Co132 2.096 . S
O159 C140 1.247 . S
C160 O157 1.244 . S
C160 O158 1.240 . S
H161 C135 0.931 . S
H162 C144 0.931 . S
H163 C148 0.929 . S
H164 C150 0.930 . S
Co165 N169 2.148 1_556 S
Co165 N175 2.128 . S
Co165 N185 2.194 . S
Co165 O190 2.351 . S
Co165 O191 2.155 . S
Co165 O192 2.096 . S
C166 N169 1.301 . S
C166 N170 1.328 . S
C166 H171 0.930 . S
C167 C168 1.333 . S
C167 N169 1.317 . S
C167 H172 0.930 . S
C168 C167 1.333 . S
C168 N170 1.350 . S
C168 H194 0.931 . S
N169 Co165 2.148 1_554 S
N169 C166 1.301 . S
N169 C167 1.317 . S
N170 C166 1.328 . S
N170 C168 1.350 . S
H171 C166 0.930 . S
H172 C167 0.930 . S
C173 O174 1.224 . S
C173 O192 1.247 . S
O174 C173 1.224 . S
N175 Co165 2.128 . S
N175 C176 1.355 . S
N175 C178 1.311 . S
C176 N175 1.355 . S
C176 C177 1.363 . S
C176 H188 0.929 . S
C177 C176 1.363 . S
C177 N179 1.375 . S
C177 H195 0.931 . S
C178 N175 1.311 . S
C178 N179 1.347 . S
C178 H189 0.929 . S
N179 C177 1.375 . S
N179 C178 1.347 . S
C180 C183 1.365 . S
C180 N185 1.328 . S
C180 H186 0.929 . S
C181 C182 1.362 . S
C181 C184 1.378 . S
C181 H196 0.929 . S
C182 C181 1.362 . S
C182 C183 1.366 . S
C183 C180 1.365 . S
C183 C182 1.366 . S
C183 H197 0.930 . S
C184 C181 1.378 . S
C184 N185 1.315 . S
C184 H187 0.930 . S
N185 Co165 2.194 . S
N185 C180 1.328 . S
N185 C184 1.315 . S
H186 C180 0.929 . S
H187 C184 0.930 . S
H188 C176 0.929 . S
H189 C178 0.929 . S
O190 Co165 2.351 . S
O190 C193 1.244 . S
O191 Co165 2.155 . S
O191 C193 1.240 . S
O192 Co165 2.096 . S
O192 C173 1.247 . S
C193 O190 1.244 . S
C193 O191 1.240 . S
H194 C168 0.931 . S
H195 C177 0.931 . S
H196 C181 0.929 . S
H197 C183 0.930 . S
Co198 N202 2.148 . S
Co198 N208 2.128 . S
Co198 N218 2.194 . S
Co198 O223 2.351 . S
Co198 O224 2.155 . S
Co198 O225 2.096 . S
C199 N202 1.301 . S
C199 N203 1.328 . S
C199 H204 0.930 . S
C200 C201 1.333 . S
C200 N202 1.317 . S
C200 H205 0.930 . S
C201 C200 1.333 . S
C201 N203 1.350 . S
C201 H227 0.931 . S
N202 Co198 2.148 . S
N202 C199 1.301 . S
N202 C200 1.317 . S
N203 C199 1.328 . S
N203 C201 1.350 . S
H204 C199 0.930 . S
H205 C200 0.930 . S
C206 O207 1.224 . S
C206 O225 1.247 . S
O207 C206 1.224 . S
N208 Co198 2.128 . S
N208 C209 1.355 . S
N208 C211 1.311 . S
C209 N208 1.355 . S
C209 C210 1.363 . S
C209 H221 0.929 . S
C210 C209 1.363 . S
C210 N212 1.375 . S
C210 H228 0.931 . S
C211 N208 1.311 . S
C211 N212 1.347 . S
C211 H222 0.929 . S
N212 C210 1.375 . S
N212 C211 1.347 . S
C213 C216 1.365 . S
C213 N218 1.328 . S
C213 H219 0.929 . S
C214 C215 1.362 . S
C214 C217 1.378 . S
C214 H229 0.929 . S
C215 C214 1.362 . S
C215 C216 1.366 . S
C216 C213 1.365 . S
C216 C215 1.366 . S
C216 H230 0.930 . S
C217 C214 1.378 . S
C217 N218 1.315 . S
C217 H220 0.930 . S
N218 Co198 2.194 . S
N218 C213 1.328 . S
N218 C217 1.315 . S
H219 C213 0.929 . S
H220 C217 0.930 . S
H221 C209 0.929 . S
H222 C211 0.929 . S
O223 Co198 2.351 . S
O223 C226 1.244 . S
O224 Co198 2.155 . S
O224 C226 1.240 . S
O225 Co198 2.096 . S
O225 C206 1.247 . S
C226 O223 1.244 . S
C226 O224 1.240 . S
H227 C201 0.931 . S
H228 C210 0.931 . S
H229 C214 0.929 . S
H230 C216 0.930 . S
Co231 N235 2.148 . S
Co231 N241 2.128 . S
Co231 N251 2.194 . S
Co231 O256 2.351 . S
Co231 O257 2.155 . S
Co231 O258 2.096 . S
C232 N235 1.301 . S
C232 N236 1.328 . S
C232 H237 0.930 . S
C233 C234 1.333 . S
C233 N235 1.317 . S
C233 H238 0.930 . S
C234 C233 1.333 . S
C234 N236 1.350 . S
C234 H260 0.931 . S
N235 Co231 2.148 . S
N235 C232 1.301 . S
N235 C233 1.317 . S
N236 C232 1.328 . S
N236 C234 1.350 . S
H237 C232 0.930 . S
H238 C233 0.930 . S
C239 O240 1.224 . S
C239 O258 1.247 . S
O240 C239 1.224 . S
N241 Co231 2.128 . S
N241 C242 1.355 . S
N241 C244 1.311 . S
C242 N241 1.355 . S
C242 C243 1.363 . S
C242 H254 0.929 . S
C243 C242 1.363 . S
C243 N245 1.375 . S
C243 H261 0.931 . S
C244 N241 1.311 . S
C244 N245 1.347 . S
C244 H255 0.929 . S
N245 C243 1.375 . S
N245 C244 1.347 . S
C246 C249 1.365 . S
C246 N251 1.328 . S
C246 H252 0.929 . S
C247 C248 1.362 . S
C247 C250 1.378 . S
C247 H262 0.929 . S
C248 C247 1.362 . S
C248 C249 1.366 . S
C249 C246 1.365 . S
C249 C248 1.366 . S
C249 H263 0.930 . S
C250 C247 1.378 . S
C250 N251 1.315 . S
C250 H253 0.930 . S
N251 Co231 2.194 . S
N251 C246 1.328 . S
N251 C250 1.315 . S
H252 C246 0.929 . S
H253 C250 0.930 . S
H254 C242 0.929 . S
H255 C244 0.929 . S
O256 Co231 2.351 . S
O256 C259 1.244 . S
O257 Co231 2.155 . S
O257 C259 1.240 . S
O258 Co231 2.096 . S
O258 C239 1.247 . S
C259 O256 1.244 . S
C259 O257 1.240 . S
H260 C234 0.931 . S
H261 C243 0.931 . S
H262 C247 0.929 . S
H263 C249 0.930 . S
Co264 N268 2.148 1_554 S
Co264 N274 2.128 . S
Co264 N284 2.194 . S
Co264 O289 2.351 . S
Co264 O290 2.155 . S
Co264 O291 2.096 . S
C265 N268 1.301 . S
C265 N269 1.328 . S
C265 H270 0.930 . S
C266 C267 1.333 . S
C266 N268 1.317 . S
C266 H271 0.930 . S
C267 C266 1.333 . S
C267 N269 1.350 . S
C267 H293 0.931 . S
N268 Co264 2.148 1_556 S
N268 C265 1.301 . S
N268 C266 1.317 . S
N269 C265 1.328 . S
N269 C267 1.350 . S
H270 C265 0.930 . S
H271 C266 0.930 . S
C272 O273 1.224 . S
C272 O291 1.247 . S
O273 C272 1.224 . S
N274 Co264 2.128 . S
N274 C275 1.355 . S
N274 C277 1.311 . S
C275 N274 1.355 . S
C275 C276 1.363 . S
C275 H287 0.929 . S
C276 C275 1.363 . S
C276 N278 1.375 . S
C276 H294 0.931 . S
C277 N274 1.311 . S
C277 N278 1.347 . S
C277 H288 0.929 . S
N278 C276 1.375 . S
N278 C277 1.347 . S
C279 C282 1.365 . S
C279 N284 1.328 . S
C279 H285 0.929 . S
C280 C281 1.362 . S
C280 C283 1.378 . S
C280 H295 0.929 . S
C281 C280 1.362 . S
C281 C282 1.366 . S
C282 C279 1.365 . S
C282 C281 1.366 . S
C282 H296 0.930 . S
C283 C280 1.378 . S
C283 N284 1.315 . S
C283 H286 0.930 . S
N284 Co264 2.194 . S
N284 C279 1.328 . S
N284 C283 1.315 . S
H285 C279 0.929 . S
H286 C283 0.930 . S
H287 C275 0.929 . S
H288 C277 0.929 . S
O289 Co264 2.351 . S
O289 C292 1.244 . S
O290 Co264 2.155 . S
O290 C292 1.240 . S
O291 Co264 2.096 . S
O291 C272 1.247 . S
C292 O289 1.244 . S
C292 O290 1.240 . S
H293 C267 0.931 . S
H294 C276 0.931 . S
H295 C280 0.929 . S
H296 C282 0.930 . S
Co297 N301 2.148 . S
Co297 N307 2.128 . S
Co297 N317 2.194 . S
Co297 O322 2.351 . S
Co297 O323 2.155 . S
Co297 O324 2.096 . S
C298 N301 1.301 . S
C298 N302 1.328 . S
C298 H303 0.930 . S
C299 C300 1.333 . S
C299 N301 1.317 . S
C299 H304 0.930 . S
C300 C299 1.333 . S
C300 N302 1.350 . S
C300 H326 0.931 . S
N301 Co297 2.148 . S
N301 C298 1.301 . S
N301 C299 1.317 . S
N302 C298 1.328 . S
N302 C300 1.350 . S
H303 C298 0.930 . S
H304 C299 0.930 . S
C305 O306 1.224 . S
C305 O324 1.247 . S
O306 C305 1.224 . S
N307 Co297 2.128 . S
N307 C308 1.355 . S
N307 C310 1.311 . S
C308 N307 1.355 . S
C308 C309 1.363 . S
C308 H320 0.929 . S
C309 C308 1.363 . S
C309 N311 1.375 . S
C309 H327 0.931 . S
C310 N307 1.311 . S
C310 N311 1.347 . S
C310 H321 0.929 . S
N311 C309 1.375 . S
N311 C310 1.347 . S
C312 C315 1.365 . S
C312 N317 1.328 . S
C312 H318 0.929 . S
C313 C314 1.362 . S
C313 C316 1.378 . S
C313 H328 0.929 . S
C314 C313 1.362 . S
C314 C315 1.366 . S
C315 C312 1.365 . S
C315 C314 1.366 . S
C315 H329 0.930 . S
C316 C313 1.378 . S
C316 N317 1.315 . S
C316 H319 0.930 . S
N317 Co297 2.194 . S
N317 C312 1.328 . S
N317 C316 1.315 . S
H318 C312 0.929 . S
H319 C316 0.930 . S
H320 C308 0.929 . S
H321 C310 0.929 . S
O322 Co297 2.351 . S
O322 C325 1.244 . S
O323 Co297 2.155 . S
O323 C325 1.240 . S
O324 Co297 2.096 . S
O324 C305 1.247 . S
C325 O322 1.244 . S
C325 O323 1.240 . S
H326 C300 0.931 . S
H327 C309 0.931 . S
H328 C313 0.929 . S
H329 C315 0.930 . S
Co330 N334 2.148 . S
Co330 N340 2.128 . S
Co330 N350 2.194 . S
Co330 O355 2.351 . S
Co330 O356 2.155 . S
Co330 O357 2.096 . S
C331 N334 1.301 . S
C331 N335 1.328 . S
C331 H336 0.930 . S
C332 C333 1.333 . S
C332 N334 1.317 . S
C332 H337 0.930 . S
C333 C332 1.333 . S
C333 N335 1.350 . S
C333 H359 0.931 . S
N334 Co330 2.148 . S
N334 C331 1.301 . S
N334 C332 1.317 . S
N335 C331 1.328 . S
N335 C333 1.350 . S
H336 C331 0.930 . S
H337 C332 0.930 . S
C338 O339 1.224 . S
C338 O357 1.247 . S
O339 C338 1.224 . S
N340 Co330 2.128 . S
N340 C341 1.355 . S
N340 C343 1.311 . S
C341 N340 1.355 . S
C341 C342 1.363 . S
C341 H353 0.929 . S
C342 C341 1.363 . S
C342 N344 1.375 . S
C342 H360 0.931 . S
C343 N340 1.311 . S
C343 N344 1.347 . S
C343 H354 0.929 . S
N344 C342 1.375 . S
N344 C343 1.347 . S
C345 C348 1.365 . S
C345 N350 1.328 . S
C345 H351 0.929 . S
C346 C347 1.362 . S
C346 C349 1.378 . S
C346 H361 0.929 . S
C347 C346 1.362 . S
C347 C348 1.366 . S
C348 C345 1.365 . S
C348 C347 1.366 . S
C348 H362 0.930 . S
C349 C346 1.378 . S
C349 N350 1.315 . S
C349 H352 0.930 . S
N350 Co330 2.194 . S
N350 C345 1.328 . S
N350 C349 1.315 . S
H351 C345 0.929 . S
H352 C349 0.930 . S
H353 C341 0.929 . S
H354 C343 0.929 . S
O355 Co330 2.351 . S
O355 C358 1.244 . S
O356 Co330 2.155 . S
O356 C358 1.240 . S
O357 Co330 2.096 . S
O357 C338 1.247 . S
C358 O355 1.244 . S
C358 O356 1.240 . S
H359 C333 0.931 . S
H360 C342 0.931 . S
H361 C346 0.929 . S
H362 C348 0.930 . S
Co363 N367 2.148 1_554 S
Co363 N373 2.128 . S
Co363 N383 2.194 . S
Co363 O388 2.351 . S
Co363 O389 2.155 . S
Co363 O390 2.096 . S
C364 N367 1.301 . S
C364 N368 1.328 . S
C364 H369 0.930 . S
C365 C366 1.333 . S
C365 N367 1.317 . S
C365 H370 0.930 . S
C366 C365 1.333 . S
C366 N368 1.350 . S
C366 H392 0.931 . S
N367 Co363 2.148 1_556 S
N367 C364 1.301 . S
N367 C365 1.317 . S
N368 C364 1.328 . S
N368 C366 1.350 . S
H369 C364 0.930 . S
H370 C365 0.930 . S
C371 O372 1.224 . S
C371 O390 1.247 . S
O372 C371 1.224 . S
N373 Co363 2.128 . S
N373 C374 1.355 . S
N373 C376 1.311 . S
C374 N373 1.355 . S
C374 C375 1.363 . S
C374 H386 0.929 . S
C375 C374 1.363 . S
C375 N377 1.375 . S
C375 H393 0.931 . S
C376 N373 1.311 . S
C376 N377 1.347 . S
C376 H387 0.929 . S
N377 C375 1.375 . S
N377 C376 1.347 . S
C378 C381 1.365 . S
C378 N383 1.328 . S
C378 H384 0.929 . S
C379 C380 1.362 . S
C379 C382 1.378 . S
C379 H394 0.929 . S
C380 C379 1.362 . S
C380 C381 1.366 . S
C381 C378 1.365 . S
C381 C380 1.366 . S
C381 H395 0.930 . S
C382 C379 1.378 . S
C382 N383 1.315 . S
C382 H385 0.930 . S
N383 Co363 2.194 . S
N383 C378 1.328 . S
N383 C382 1.315 . S
H384 C378 0.929 . S
H385 C382 0.930 . S
H386 C374 0.929 . S
H387 C376 0.929 . S
O388 Co363 2.351 . S
O388 C391 1.244 . S
O389 Co363 2.155 . S
O389 C391 1.240 . S
O390 Co363 2.096 . S
O390 C371 1.247 . S
C391 O388 1.244 . S
C391 O389 1.240 . S
H392 C366 0.931 . S
H393 C375 0.931 . S
H394 C379 0.929 . S
H395 C381 0.930 . S
C396 C397 1.349 . S
C396 C398 1.327 . S
C396 H421 0.950 . S
C397 C396 1.349 . S
C397 C413 1.349 . S
C398 C396 1.327 . S
C398 C417 1.429 . S
C398 H422 0.950 . S
C399 C416 1.574 1_554 S
C399 C418 1.368 . S
C399 H423 0.949 . S
H400 C404 0.949 . S
C401 C402 1.349 . S
C401 C403 1.327 . S
C401 H424 0.950 . S
C402 C401 1.349 . S
C402 C414 1.349 . S
C403 C401 1.327 . S
C403 C419 1.429 . S
C403 H425 0.950 . S
C404 H400 0.949 . S
C404 C412 1.574 1_556 S
C404 C420 1.368 . S
H405 C413 0.950 . S
H406 C411 0.950 . S
H407 C412 0.949 . S
H408 C414 0.950 . S
H409 C415 0.950 . S
H410 C416 0.949 . S
C411 H406 0.950 . S
C411 C413 1.327 . S
C411 C417 1.429 . S
C412 C404 1.574 1_554 S
C412 H407 0.949 . S
C412 C418 1.368 . S
C413 C397 1.349 . S
C413 H405 0.950 . S
C413 C411 1.327 . S
C414 C402 1.349 . S
C414 H408 0.950 . S
C414 C415 1.327 . S
C415 H409 0.950 . S
C415 C414 1.327 . S
C415 C419 1.429 . S
C416 C399 1.574 1_556 S
C416 H410 0.949 . S
C416 C420 1.368 . S
C417 C398 1.429 . S
C417 C411 1.429 . S
C417 C418 1.523 . S
C418 C399 1.368 . S
C418 C412 1.368 . S
C418 C417 1.523 . S
C419 C403 1.429 . S
C419 C415 1.429 . S
C419 C420 1.523 . S
C420 C404 1.368 . S
C420 C416 1.368 . S
C420 C419 1.523 . S
H421 C396 0.950 . S
H422 C398 0.950 . S
H423 C399 0.949 . S
H424 C401 0.950 . S
H425 C403 0.950 . S
C426 C427 1.349 . S
C426 C428 1.327 . S
C426 H451 0.950 . S
C427 C426 1.349 . S
C427 C443 1.349 . S
C428 C426 1.327 . S
C428 C447 1.429 . S
C428 H452 0.950 . S
C429 C446 1.574 . S
C429 C448 1.368 . S
C429 H453 0.949 . S
H430 C434 0.949 . S
C431 C432 1.349 . S
C431 C433 1.327 . S
C431 H454 0.950 . S
C432 C431 1.349 . S
C432 C444 1.349 . S
C433 C431 1.327 . S
C433 C449 1.429 . S
C433 H455 0.950 . S
C434 H430 0.949 . S
C434 C442 1.574 . S
C434 C450 1.368 . S
H435 C443 0.950 . S
H436 C441 0.950 . S
H437 C442 0.949 . S
H438 C444 0.950 . S
H439 C445 0.950 . S
H440 C446 0.949 . S
C441 H436 0.950 . S
C441 C443 1.327 . S
C441 C447 1.429 . S
C442 C434 1.574 . S
C442 H437 0.949 . S
C442 C448 1.368 . S
C443 C427 1.349 . S
C443 H435 0.950 . S
C443 C441 1.327 . S
C444 C432 1.349 . S
C444 H438 0.950 . S
C444 C445 1.327 . S
C445 H439 0.950 . S
C445 C444 1.327 . S
C445 C449 1.429 . S
C446 C429 1.574 . S
C446 H440 0.949 . S
C446 C450 1.368 . S
C447 C428 1.429 . S
C447 C441 1.429 . S
C447 C448 1.523 . S
C448 C429 1.368 . S
C448 C442 1.368 . S
C448 C447 1.523 . S
C449 C433 1.429 . S
C449 C445 1.429 . S
C449 C450 1.523 . S
C450 C434 1.368 . S
C450 C446 1.368 . S
C450 C449 1.523 . S
H451 C426 0.950 . S
H452 C428 0.950 . S
H453 C429 0.949 . S
H454 C431 0.950 . S
H455 C433 0.950 . S
C456 C457 1.349 . S
C456 C458 1.327 . S
C456 H481 0.950 . S
C457 C456 1.349 . S
C457 C473 1.349 . S
C458 C456 1.327 . S
C458 C477 1.429 . S
C458 H482 0.950 . S
C459 C476 1.574 . S
C459 C478 1.368 . S
C459 H483 0.949 . S
H460 C464 0.949 . S
C461 C462 1.349 . S
C461 C463 1.327 . S
C461 H484 0.950 . S
C462 C461 1.349 . S
C462 C474 1.349 . S
C463 C461 1.327 . S
C463 C479 1.429 . S
C463 H485 0.950 . S
C464 H460 0.949 . S
C464 C472 1.574 . S
C464 C480 1.368 . S
H465 C473 0.950 . S
H466 C471 0.950 . S
H467 C472 0.949 . S
H468 C474 0.950 . S
H469 C475 0.950 . S
H470 C476 0.949 . S
C471 H466 0.950 . S
C471 C473 1.327 . S
C471 C477 1.429 . S
C472 C464 1.574 . S
C472 H467 0.949 . S
C472 C478 1.368 . S
C473 C457 1.349 . S
C473 H465 0.950 . S
C473 C471 1.327 . S
C474 C462 1.349 . S
C474 H468 0.950 . S
C474 C475 1.327 . S
C475 H469 0.950 . S
C475 C474 1.327 . S
C475 C479 1.429 . S
C476 C459 1.574 . S
C476 H470 0.949 . S
C476 C480 1.368 . S
C477 C458 1.429 . S
C477 C471 1.429 . S
C477 C478 1.523 . S
C478 C459 1.368 . S
C478 C472 1.368 . S
C478 C477 1.523 . S
C479 C463 1.429 . S
C479 C475 1.429 . S
C479 C480 1.523 . S
C480 C464 1.368 . S
C480 C476 1.368 . S
C480 C479 1.523 . S
H481 C456 0.950 . S
H482 C458 0.950 . S
H483 C459 0.949 . S
H484 C461 0.950 . S
H485 C463 0.950 . S
C486 C487 1.349 . S
C486 C488 1.327 . S
C486 H511 0.950 . S
C487 C486 1.349 . S
C487 C503 1.349 . S
C488 C486 1.327 . S
C488 C507 1.429 . S
C488 H512 0.950 . S
C489 C506 1.574 1_556 S
C489 C508 1.368 . S
C489 H513 0.949 . S
H490 C494 0.949 . S
C491 C492 1.349 . S
C491 C493 1.327 . S
C491 H514 0.950 . S
C492 C491 1.349 . S
C492 C504 1.349 . S
C493 C491 1.327 . S
C493 C509 1.429 . S
C493 H515 0.950 . S
C494 H490 0.949 . S
C494 C502 1.574 1_554 S
C494 C510 1.368 . S
H495 C503 0.950 . S
H496 C501 0.950 . S
H497 C502 0.949 . S
H498 C504 0.950 . S
H499 C505 0.950 . S
H500 C506 0.949 . S
C501 H496 0.950 . S
C501 C503 1.327 . S
C501 C507 1.429 . S
C502 C494 1.574 1_556 S
C502 H497 0.949 . S
C502 C508 1.368 . S
C503 C487 1.349 . S
C503 H495 0.950 . S
C503 C501 1.327 . S
C504 C492 1.349 . S
C504 H498 0.950 . S
C504 C505 1.327 . S
C505 H499 0.950 . S
C505 C504 1.327 . S
C505 C509 1.429 . S
C506 C489 1.574 1_554 S
C506 H500 0.949 . S
C506 C510 1.368 . S
C507 C488 1.429 . S
C507 C501 1.429 . S
C507 C508 1.523 . S
C508 C489 1.368 . S
C508 C502 1.368 . S
C508 C507 1.523 . S
C509 C493 1.429 . S
C509 C505 1.429 . S
C509 C510 1.523 . S
C510 C494 1.368 . S
C510 C506 1.368 . S
C510 C509 1.523 . S
H511 C486 0.950 . S
H512 C488 0.950 . S
H513 C489 0.949 . S
H514 C491 0.950 . S
H515 C493 0.950 . S
C516 C517 1.349 . S
C516 C518 1.327 . S
C516 H541 0.950 . S
C517 C516 1.349 . S
C517 C533 1.349 . S
C518 C516 1.327 . S
C518 C537 1.429 . S
C518 H542 0.950 . S
C519 C536 1.574 . S
C519 C538 1.368 . S
C519 H543 0.949 . S
H520 C524 0.949 . S
C521 C522 1.349 . S
C521 C523 1.327 . S
C521 H544 0.950 . S
C522 C521 1.349 . S
C522 C534 1.349 . S
C523 C521 1.327 . S
C523 C539 1.429 . S
C523 H545 0.950 . S
C524 H520 0.949 . S
C524 C532 1.574 . S
C524 C540 1.368 . S
H525 C533 0.950 . S
H526 C531 0.950 . S
H527 C532 0.949 . S
H528 C534 0.950 . S
H529 C535 0.950 . S
H530 C536 0.949 . S
C531 H526 0.950 . S
C531 C533 1.327 . S
C531 C537 1.429 . S
C532 C524 1.574 . S
C532 H527 0.949 . S
C532 C538 1.368 . S
C533 C517 1.349 . S
C533 H525 0.950 . S
C533 C531 1.327 . S
C534 C522 1.349 . S
C534 H528 0.950 . S
C534 C535 1.327 . S
C535 H529 0.950 . S
C535 C534 1.327 . S
C535 C539 1.429 . S
C536 C519 1.574 . S
C536 H530 0.949 . S
C536 C540 1.368 . S
C537 C518 1.429 . S
C537 C531 1.429 . S
C537 C538 1.523 . S
C538 C519 1.368 . S
C538 C532 1.368 . S
C538 C537 1.523 . S
C539 C523 1.429 . S
C539 C535 1.429 . S
C539 C540 1.523 . S
C540 C524 1.368 . S
C540 C536 1.368 . S
C540 C539 1.523 . S
H541 C516 0.950 . S
H542 C518 0.950 . S
H543 C519 0.949 . S
H544 C521 0.950 . S
H545 C523 0.950 . S
C546 C547 1.349 . S
C546 C548 1.327 . S
C546 H571 0.950 . S
C547 C546 1.349 . S
C547 C563 1.349 . S
C548 C546 1.327 . S
C548 C567 1.429 . S
C548 H572 0.950 . S
C549 C566 1.574 . S
C549 C568 1.368 . S
C549 H573 0.949 . S
H550 C554 0.949 . S
C551 C552 1.349 . S
C551 C553 1.327 . S
C551 H574 0.950 . S
C552 C551 1.349 . S
C552 C564 1.349 . S
C553 C551 1.327 . S
C553 C569 1.429 . S
C553 H575 0.950 . S
C554 H550 0.949 . S
C554 C562 1.574 . S
C554 C570 1.368 . S
H555 C563 0.950 . S
H556 C561 0.950 . S
H557 C562 0.949 . S
H558 C564 0.950 . S
H559 C565 0.950 . S
H560 C566 0.949 . S
C561 H556 0.950 . S
C561 C563 1.327 . S
C561 C567 1.429 . S
C562 C554 1.574 . S
C562 H557 0.949 . S
C562 C568 1.368 . S
C563 C547 1.349 . S
C563 H555 0.950 . S
C563 C561 1.327 . S
C564 C552 1.349 . S
C564 H558 0.950 . S
C564 C565 1.327 . S
C565 H559 0.950 . S
C565 C564 1.327 . S
C565 C569 1.429 . S
C566 C549 1.574 . S
C566 H560 0.949 . S
C566 C570 1.368 . S
C567 C548 1.429 . S
C567 C561 1.429 . S
C567 C568 1.523 . S
C568 C549 1.368 . S
C568 C562 1.368 . S
C568 C567 1.523 . S
C569 C553 1.429 . S
C569 C565 1.429 . S
C569 C570 1.523 . S
C570 C554 1.368 . S
C570 C566 1.368 . S
C570 C569 1.523 . S
H571 C546 0.950 . S
H572 C548 0.950 . S
H573 C549 0.949 . S
H574 C551 0.950 . S
H575 C553 0.950 . S
C576 C577 1.349 . S
C576 C578 1.327 . S
C576 H601 0.950 . S
C577 C576 1.349 . S
C577 C593 1.349 . S
C578 C576 1.327 . S
C578 C597 1.429 . S
C578 H602 0.950 . S
C579 C596 1.574 . S
C579 C598 1.368 . S
C579 H603 0.949 . S
H580 C584 0.949 . S
C581 C582 1.349 . S
C581 C583 1.327 . S
C581 H604 0.950 . S
C582 C581 1.349 . S
C582 C594 1.349 . S
C583 C581 1.327 . S
C583 C599 1.429 . S
C583 H605 0.950 . S
C584 H580 0.949 . S
C584 C592 1.574 . S
C584 C600 1.368 . S
H585 C593 0.950 . S
H586 C591 0.950 . S
H587 C592 0.949 . S
H588 C594 0.950 . S
H589 C595 0.950 . S
H590 C596 0.949 . S
C591 H586 0.950 . S
C591 C593 1.327 . S
C591 C597 1.429 . S
C592 C584 1.574 . S
C592 H587 0.949 . S
C592 C598 1.368 . S
C593 C577 1.349 . S
C593 H585 0.950 . S
C593 C591 1.327 . S
C594 C582 1.349 . S
C594 H588 0.950 . S
C594 C595 1.327 . S
C595 H589 0.950 . S
C595 C594 1.327 . S
C595 C599 1.429 . S
C596 C579 1.574 . S
C596 H590 0.949 . S
C596 C600 1.368 . S
C597 C578 1.429 . S
C597 C591 1.429 . S
C597 C598 1.523 . S
C598 C579 1.368 . S
C598 C592 1.368 . S
C598 C597 1.523 . S
C599 C583 1.429 . S
C599 C595 1.429 . S
C599 C600 1.523 . S
C600 C584 1.368 . S
C600 C596 1.368 . S
C600 C599 1.523 . S
H601 C576 0.950 . S
H602 C578 0.950 . S
H603 C579 0.949 . S
H604 C581 0.950 . S
H605 C583 0.950 . S
C606 C607 1.349 . S
C606 C608 1.327 . S
C606 H631 0.950 . S
C607 C606 1.349 . S
C607 C623 1.349 . S
C608 C606 1.327 . S
C608 C627 1.429 . S
C608 H632 0.950 . S
C609 C626 1.574 . S
C609 C628 1.368 . S
C609 H633 0.949 . S
H610 C614 0.949 . S
C611 C612 1.349 . S
C611 C613 1.327 . S
C611 H634 0.950 . S
C612 C611 1.349 . S
C612 C624 1.349 . S
C613 C611 1.327 . S
C613 C629 1.429 . S
C613 H635 0.950 . S
C614 H610 0.949 . S
C614 C622 1.574 . S
C614 C630 1.368 . S
H615 C623 0.950 . S
H616 C621 0.950 . S
H617 C622 0.949 . S
H618 C624 0.950 . S
H619 C625 0.950 . S
H620 C626 0.949 . S
C621 H616 0.950 . S
C621 C623 1.327 . S
C621 C627 1.429 . S
C622 C614 1.574 . S
C622 H617 0.949 . S
C622 C628 1.368 . S
C623 C607 1.349 . S
C623 H615 0.950 . S
C623 C621 1.327 . S
C624 C612 1.349 . S
C624 H618 0.950 . S
C624 C625 1.327 . S
C625 H619 0.950 . S
C625 C624 1.327 . S
C625 C629 1.429 . S
C626 C609 1.574 . S
C626 H620 0.949 . S
C626 C630 1.368 . S
C627 C608 1.429 . S
C627 C621 1.429 . S
C627 C628 1.523 . S
C628 C609 1.368 . S
C628 C622 1.368 . S
C628 C627 1.523 . S
C629 C613 1.429 . S
C629 C625 1.429 . S
C629 C630 1.523 . S
C630 C614 1.368 . S
C630 C626 1.368 . S
C630 C629 1.523 . S
H631 C606 0.950 . S
H632 C608 0.950 . S
H633 C609 0.949 . S
H634 C611 0.950 . S
H635 C613 0.950 . S
C636 C637 1.349 . S
C636 C638 1.327 . S
C636 H661 0.950 . S
C637 C636 1.349 . S
C637 C653 1.349 . S
C638 C636 1.327 . S
C638 C657 1.429 . S
C638 H662 0.950 . S
C639 C656 1.574 . S
C639 C658 1.368 1_554 S
C639 H663 0.949 . S
H640 C644 0.949 . S
C641 C642 1.349 . S
C641 C643 1.327 . S
C641 H664 0.950 . S
C642 C641 1.349 . S
C642 C654 1.349 . S
C643 C641 1.327 . S
C643 C659 1.429 . S
C643 H665 0.950 . S
C644 H640 0.949 . S
C644 C652 1.574 . S
C644 C660 1.368 1_556 S
H645 C653 0.950 1_554 S
H646 C651 0.960 . S
H647 C652 0.949 . S
H648 C654 0.950 1_556 S
H649 C655 0.959 . S
H650 C656 0.949 . S
C651 H646 0.960 . S
C651 C653 1.324 1_554 S
C651 C657 1.422 1_554 S
C652 C644 1.574 . S
C652 H647 0.949 . S
C652 C658 1.368 . S
C653 C637 1.349 . S
C653 H645 0.950 1_556 S
C653 C651 1.324 1_556 S
C654 C642 1.349 . S
C654 H648 0.950 1_554 S
C654 C655 1.324 1_554 S
C655 H649 0.959 . S
C655 C654 1.324 1_556 S
C655 C659 1.422 1_556 S
C656 C639 1.574 . S
C656 H650 0.949 . S
C656 C660 1.368 . S
C657 C638 1.429 . S
C657 C651 1.422 1_556 S
C657 C658 1.523 . S
C658 C639 1.368 1_556 S
C658 C652 1.368 . S
C658 C657 1.523 . S
C659 C643 1.429 . S
C659 C655 1.422 1_554 S
C659 C660 1.523 . S
C660 C644 1.368 1_554 S
C660 C656 1.368 . S
C660 C659 1.523 . S
H661 C636 0.950 . S
H662 C638 0.950 . S
H663 C639 0.949 . S
H664 C641 0.950 . S
H665 C643 0.950 . S
C666 C667 1.349 . S
C666 C668 1.327 . S
C666 H691 0.950 . S
C667 C666 1.349 . S
C667 C683 1.349 . S
C668 C666 1.327 . S
C668 C687 1.429 . S
C668 H692 0.950 . S
C669 C686 1.574 . S
C669 C688 1.368 . S
C669 H693 0.949 . S
H670 C674 0.949 . S
C671 C672 1.349 . S
C671 C673 1.327 . S
C671 H694 0.950 . S
C672 C671 1.349 . S
C672 C684 1.349 . S
C673 C671 1.327 . S
C673 C689 1.429 . S
C673 H695 0.950 . S
C674 H670 0.949 . S
C674 C682 1.574 . S
C674 C690 1.368 . S
H675 C683 0.950 . S
H676 C681 0.950 . S
H677 C682 0.949 . S
H678 C684 0.950 . S
H679 C685 0.950 . S
H680 C686 0.949 . S
C681 H676 0.950 . S
C681 C683 1.327 . S
C681 C687 1.429 . S
C682 C674 1.574 . S
C682 H677 0.949 . S
C682 C688 1.368 . S
C683 C667 1.349 . S
C683 H675 0.950 . S
C683 C681 1.327 . S
C684 C672 1.349 . S
C684 H678 0.950 . S
C684 C685 1.327 . S
C685 H679 0.950 . S
C685 C684 1.327 . S
C685 C689 1.429 . S
C686 C669 1.574 . S
C686 H680 0.949 . S
C686 C690 1.368 . S
C687 C668 1.429 . S
C687 C681 1.429 . S
C687 C688 1.523 . S
C688 C669 1.368 . S
C688 C682 1.368 . S
C688 C687 1.523 . S
C689 C673 1.429 . S
C689 C685 1.429 . S
C689 C690 1.523 . S
C690 C674 1.368 . S
C690 C686 1.368 . S
C690 C689 1.523 . S
H691 C666 0.950 . S
H692 C668 0.950 . S
H693 C669 0.949 . S
H694 C671 0.950 . S
H695 C673 0.950 . S
C696 C697 1.349 . S
C696 C698 1.327 . S
C696 H721 0.950 . S
C697 C696 1.349 . S
C697 C713 1.349 . S
C698 C696 1.327 . S
C698 C717 1.429 . S
C698 H722 0.950 . S
C699 C716 1.574 . S
C699 C718 1.368 . S
C699 H723 0.949 . S
H700 C704 0.949 . S
C701 C702 1.349 . S
C701 C703 1.327 . S
C701 H724 0.950 . S
C702 C701 1.349 . S
C702 C714 1.349 . S
C703 C701 1.327 . S
C703 C719 1.429 . S
C703 H725 0.950 . S
C704 H700 0.949 . S
C704 C712 1.574 . S
C704 C720 1.368 . S
H705 C713 0.950 . S
H706 C711 0.950 . S
H707 C712 0.949 . S
H708 C714 0.950 . S
H709 C715 0.950 . S
H710 C716 0.949 . S
C711 H706 0.950 . S
C711 C713 1.327 . S
C711 C717 1.429 . S
C712 C704 1.574 . S
C712 H707 0.949 . S
C712 C718 1.368 . S
C713 C697 1.349 . S
C713 H705 0.950 . S
C713 C711 1.327 . S
C714 C702 1.349 . S
C714 H708 0.950 . S
C714 C715 1.327 . S
C715 H709 0.950 . S
C715 C714 1.327 . S
C715 C719 1.429 . S
C716 C699 1.574 . S
C716 H710 0.949 . S
C716 C720 1.368 . S
C717 C698 1.429 . S
C717 C711 1.429 . S
C717 C718 1.523 . S
C718 C699 1.368 . S
C718 C712 1.368 . S
C718 C717 1.523 . S
C719 C703 1.429 . S
C719 C715 1.429 . S
C719 C720 1.523 . S
C720 C704 1.368 . S
C720 C716 1.368 . S
C720 C719 1.523 . S
H721 C696 0.950 . S
H722 C698 0.950 . S
H723 C699 0.949 . S
H724 C701 0.950 . S
H725 C703 0.950 . S
C726 C727 1.349 . S
C726 C728 1.324 1_554 S
C726 H751 0.950 1_554 S
C727 C726 1.349 . S
C727 C743 1.349 . S
C728 C726 1.324 1_556 S
C728 C747 1.423 1_556 S
C728 H752 0.958 . S
C729 C746 1.574 . S
C729 C748 1.368 . S
C729 H753 0.949 . S
H730 C734 0.949 . S
C731 C732 1.349 . S
C731 C733 1.324 1_556 S
C731 H754 0.950 1_556 S
C732 C731 1.349 . S
C732 C744 1.349 . S
C733 C731 1.324 1_554 S
C733 C749 1.423 1_554 S
C733 H755 0.959 . S
C734 H730 0.949 . S
C734 C742 1.574 . S
C734 C750 1.368 . S
H735 C743 0.950 . S
H736 C741 0.950 . S
H737 C742 0.949 . S
H738 C744 0.950 . S
H739 C745 0.950 . S
H740 C746 0.949 . S
C741 H736 0.950 . S
C741 C743 1.327 . S
C741 C747 1.429 . S
C742 C734 1.574 . S
C742 H737 0.949 . S
C742 C748 1.368 1_556 S
C743 C727 1.349 . S
C743 H735 0.950 . S
C743 C741 1.327 . S
C744 C732 1.349 . S
C744 H738 0.950 . S
C744 C745 1.327 . S
C745 H739 0.950 . S
C745 C744 1.327 . S
C745 C749 1.429 . S
C746 C729 1.574 . S
C746 H740 0.949 . S
C746 C750 1.368 1_554 S
C747 C728 1.423 1_554 S
C747 C741 1.429 . S
C747 C748 1.523 . S
C748 C729 1.368 . S
C748 C742 1.368 1_554 S
C748 C747 1.523 . S
C749 C733 1.423 1_556 S
C749 C745 1.429 . S
C749 C750 1.523 . S
C750 C734 1.368 . S
C750 C746 1.368 1_556 S
C750 C749 1.523 . S
H751 C726 0.950 1_556 S
H752 C728 0.958 . S
H753 C729 0.949 . S
H754 C731 0.950 1_554 S
H755 C733 0.959 . S
C756 C757 1.349 . S
C756 C758 1.327 . S
C756 H781 0.950 . S
C757 C756 1.349 . S
C757 C773 1.349 . S
C758 C756 1.327 . S
C758 C777 1.429 . S
C758 H782 0.950 . S
C759 C776 1.574 . S
C759 C778 1.368 . S
C759 H783 0.949 . S
H760 C764 0.949 . S
C761 C762 1.349 . S
C761 C763 1.327 . S
C761 H784 0.950 . S
C762 C761 1.349 . S
C762 C774 1.349 . S
C763 C761 1.327 . S
C763 C779 1.429 . S
C763 H785 0.950 . S
C764 H760 0.949 . S
C764 C772 1.574 . S
C764 C780 1.368 . S
H765 C773 0.950 . S
H766 C771 0.950 . S
H767 C772 0.949 . S
H768 C774 0.950 . S
H769 C775 0.950 . S
H770 C776 0.949 . S
C771 H766 0.950 . S
C771 C773 1.327 . S
C771 C777 1.429 . S
C772 C764 1.574 . S
C772 H767 0.949 . S
C772 C778 1.368 . S
C773 C757 1.349 . S
C773 H765 0.950 . S
C773 C771 1.327 . S
C774 C762 1.349 . S
C774 H768 0.950 . S
C774 C775 1.327 . S
C775 H769 0.950 . S
C775 C774 1.327 . S
C775 C779 1.429 . S
C776 C759 1.574 . S
C776 H770 0.949 . S
C776 C780 1.368 . S
C777 C758 1.429 . S
C777 C771 1.429 . S
C777 C778 1.523 . S
C778 C759 1.368 . S
C778 C772 1.368 . S
C778 C777 1.523 . S
C779 C763 1.429 . S
C779 C775 1.429 . S
C779 C780 1.523 . S
C780 C764 1.368 . S
C780 C776 1.368 . S
C780 C779 1.523 . S
H781 C756 0.950 . S
H782 C758 0.950 . S
H783 C759 0.949 . S
H784 C761 0.950 . S
H785 C763 0.950 . S
C786 C787 1.349 . S
C786 C788 1.327 . S
C786 H811 0.950 . S
C787 C786 1.349 . S
C787 C803 1.349 . S
C788 C786 1.327 . S
C788 C807 1.429 . S
C788 H812 0.950 . S
C789 C806 1.574 1_455 S
C789 C808 1.368 . S
C789 H813 0.949 . S
H790 C794 0.949 . S
C791 C792 1.349 . S
C791 C793 1.327 . S
C791 H814 0.950 . S
C792 C791 1.349 . S
C792 C804 1.349 . S
C793 C791 1.327 . S
C793 C809 1.429 . S
C793 H815 0.950 . S
C794 H790 0.949 . S
C794 C802 1.574 1_655 S
C794 C810 1.368 . S
H795 C803 0.950 . S
H796 C801 0.950 . S
H797 C802 0.949 . S
H798 C804 0.950 . S
H799 C805 0.950 . S
H800 C806 0.949 . S
C801 H796 0.950 . S
C801 C803 1.327 . S
C801 C807 1.429 . S
C802 C794 1.574 1_455 S
C802 H797 0.949 . S
C802 C808 1.368 . S
C803 C787 1.349 . S
C803 H795 0.950 . S
C803 C801 1.327 . S
C804 C792 1.349 . S
C804 H798 0.950 . S
C804 C805 1.327 . S
C805 H799 0.950 . S
C805 C804 1.327 . S
C805 C809 1.429 . S
C806 C789 1.574 1_655 S
C806 H800 0.949 . S
C806 C810 1.368 . S
C807 C788 1.429 . S
C807 C801 1.429 . S
C807 C808 1.523 . S
C808 C789 1.368 . S
C808 C802 1.368 . S
C808 C807 1.523 . S
C809 C793 1.429 . S
C809 C805 1.429 . S
C809 C810 1.523 . S
C810 C794 1.368 . S
C810 C806 1.368 . S
C810 C809 1.523 . S
H811 C786 0.950 . S
H812 C788 0.950 . S
H813 C789 0.949 . S
H814 C791 0.950 . S
H815 C793 0.950 . S
C816 C817 1.349 . S
C816 C818 1.327 . S
C816 H841 0.950 . S
C817 C816 1.349 . S
C817 C833 1.336 1_554 S
C818 C816 1.327 . S
C818 C837 1.429 . S
C818 H842 0.950 . S
C819 C836 1.574 1_545 S
C819 C838 1.368 1_556 S
C819 H843 0.949 . S
H820 C824 0.949 . S
C821 C822 1.349 . S
C821 C823 1.327 . S
C821 H844 0.950 . S
C822 C821 1.349 . S
C822 C834 1.349 1_556 S
C823 C821 1.327 . S
C823 C839 1.429 . S
C823 H845 0.950 . S
C824 H820 0.949 . S
C824 C832 1.574 1_565 S
C824 C840 1.368 1_554 S
H825 C833 0.960 . S
H826 C831 0.950 . S
H827 C832 0.949 . S
H828 C834 0.950 . S
H829 C835 0.950 . S
H830 C836 0.949 . S
C831 H826 0.950 . S
C831 C833 1.331 . S
C831 C837 1.429 1_556 S
C832 C824 1.574 1_545 S
C832 H827 0.949 . S
C832 C838 1.368 . S
C833 C817 1.336 1_556 S
C833 H825 0.960 . S
C833 C831 1.331 . S
C834 C822 1.349 1_554 S
C834 H828 0.950 . S
C834 C835 1.327 . S
C835 H829 0.950 . S
C835 C834 1.327 . S
C835 C839 1.429 1_554 S
C836 C819 1.574 1_565 S
C836 H830 0.949 . S
C836 C840 1.368 . S
C837 C818 1.429 . S
C837 C831 1.429 1_554 S
C837 C838 1.523 . S
C838 C819 1.368 1_554 S
C838 C832 1.368 . S
C838 C837 1.523 . S
C839 C823 1.429 . S
C839 C835 1.429 1_556 S
C839 C840 1.523 . S
C840 C824 1.368 1_556 S
C840 C836 1.368 . S
C840 C839 1.523 . S
H841 C816 0.950 . S
H842 C818 0.950 . S
H843 C819 0.949 . S
H844 C821 0.950 . S
H845 C823 0.950 . S
C846 C847 1.349 . S
C846 C848 1.327 . S
C846 H871 0.950 . S
C847 C846 1.349 . S
C847 C863 1.349 . S
C848 C846 1.327 . S
C848 C867 1.429 . S
C848 H872 0.950 . S
C849 C866 1.574 . S
C849 C868 1.368 . S
C849 H873 0.949 . S
H850 C854 0.949 . S
C851 C852 1.349 . S
C851 C853 1.327 . S
C851 H874 0.950 . S
C852 C851 1.349 . S
C852 C864 1.349 . S
C853 C851 1.327 . S
C853 C869 1.429 . S
C853 H875 0.950 . S
C854 H850 0.949 . S
C854 C862 1.574 . S
C854 C870 1.368 . S
H855 C863 0.950 . S
H856 C861 0.950 . S
H857 C862 0.949 . S
H858 C864 0.950 . S
H859 C865 0.950 . S
H860 C866 0.949 . S
C861 H856 0.950 . S
C861 C863 1.327 . S
C861 C867 1.429 . S
C862 C854 1.574 . S
C862 H857 0.949 . S
C862 C868 1.368 . S
C863 C847 1.349 . S
C863 H855 0.950 . S
C863 C861 1.327 . S
C864 C852 1.349 . S
C864 H858 0.950 . S
C864 C865 1.327 . S
C865 H859 0.950 . S
C865 C864 1.327 . S
C865 C869 1.429 . S
C866 C849 1.574 . S
C866 H860 0.949 . S
C866 C870 1.368 . S
C867 C848 1.429 . S
C867 C861 1.429 . S
C867 C868 1.523 . S
C868 C849 1.368 . S
C868 C862 1.368 . S
C868 C867 1.523 . S
C869 C853 1.429 . S
C869 C865 1.429 . S
C869 C870 1.523 . S
C870 C854 1.368 . S
C870 C866 1.368 . S
C870 C869 1.523 . S
H871 C846 0.950 . S
H872 C848 0.950 . S
H873 C849 0.949 . S
H874 C851 0.950 . S
H875 C853 0.950 . S
C876 C877 1.349 . S
C876 C878 1.327 . S
C876 H901 0.950 . S
C877 C876 1.349 . S
C877 C893 1.349 . S
C878 C876 1.327 . S
C878 C897 1.429 . S
C878 H902 0.950 . S
C879 C896 1.574 1_455 S
C879 C898 1.368 . S
C879 H903 0.949 . S
H880 C884 0.949 . S
C881 C882 1.349 . S
C881 C883 1.327 . S
C881 H904 0.950 . S
C882 C881 1.349 . S
C882 C894 1.349 . S
C883 C881 1.327 . S
C883 C899 1.429 . S
C883 H905 0.950 . S
C884 H880 0.949 . S
C884 C892 1.574 1_655 S
C884 C900 1.368 . S
H885 C893 0.950 . S
H886 C891 0.950 . S
H887 C892 0.949 . S
H888 C894 0.950 . S
H889 C895 0.950 . S
H890 C896 0.949 . S
C891 H886 0.950 . S
C891 C893 1.327 . S
C891 C897 1.429 . S
C892 C884 1.574 1_455 S
C892 H887 0.949 . S
C892 C898 1.368 . S
C893 C877 1.349 . S
C893 H885 0.950 . S
C893 C891 1.327 . S
C894 C882 1.349 . S
C894 H888 0.950 . S
C894 C895 1.327 . S
C895 H889 0.950 . S
C895 C894 1.327 . S
C895 C899 1.429 . S
C896 C879 1.574 1_655 S
C896 H890 0.949 . S
C896 C900 1.368 . S
C897 C878 1.429 . S
C897 C891 1.429 . S
C897 C898 1.523 . S
C898 C879 1.368 . S
C898 C892 1.368 . S
C898 C897 1.523 . S
C899 C883 1.429 . S
C899 C895 1.429 . S
C899 C900 1.523 . S
C900 C884 1.368 . S
C900 C896 1.368 . S
C900 C899 1.523 . S
H901 C876 0.950 . S
H902 C878 0.950 . S
H903 C879 0.949 . S
H904 C881 0.950 . S
H905 C883 0.950 . S
C906 C907 1.349 . S
C906 C908 1.327 . S
C906 H931 0.954 . S
C907 C906 1.349 . S
C907 C923 1.349 . S
C908 C906 1.327 . S
C908 C927 1.429 . S
C908 H932 0.950 1_556 S
C909 C926 1.574 1_545 S
C909 C928 1.368 . S
C909 H933 0.949 . S
H910 C914 0.949 . S
C911 C912 1.349 . S
C911 C913 1.327 . S
C911 H934 0.954 . S
C912 C911 1.349 . S
C912 C924 1.349 . S
C913 C911 1.327 . S
C913 C929 1.429 . S
C913 H935 0.950 1_554 S
C914 H910 0.949 . S
C914 C922 1.574 1_565 S
C914 C930 1.368 . S
H915 C923 0.950 . S
H916 C921 0.950 . S
H917 C922 0.949 . S
H918 C924 0.950 . S
H919 C925 0.950 . S
H920 C926 0.949 . S
C921 H916 0.950 . S
C921 C923 1.327 . S
C921 C927 1.429 . S
C922 C914 1.574 1_545 S
C922 H917 0.949 . S
C922 C928 1.368 1_554 S
C923 C907 1.349 . S
C923 H915 0.950 . S
C923 C921 1.327 . S
C924 C912 1.349 . S
C924 H918 0.950 . S
C924 C925 1.327 . S
C925 H919 0.950 . S
C925 C924 1.327 . S
C925 C929 1.429 . S
C926 C909 1.574 1_565 S
C926 H920 0.949 . S
C926 C930 1.368 1_556 S
C927 C908 1.429 . S
C927 C921 1.429 . S
C927 C928 1.523 . S
C928 C909 1.368 . S
C928 C922 1.368 1_556 S
C928 C927 1.523 . S
C929 C913 1.429 . S
C929 C925 1.429 . S
C929 C930 1.523 . S
C930 C914 1.368 . S
C930 C926 1.368 1_554 S
C930 C929 1.523 . S
H931 C906 0.954 . S
H932 C908 0.950 1_554 S
H933 C909 0.949 . S
H934 C911 0.954 . S
H935 C913 0.950 1_556 S
C936 C937 1.349 . S
C936 C938 1.327 . S
C936 H961 0.950 . S
C937 C936 1.349 . S
C937 C953 1.349 . S
C938 C936 1.327 . S
C938 C957 1.429 . S
C938 H962 0.950 . S
C939 C956 1.574 . S
C939 C958 1.368 . S
C939 H963 0.949 . S
H940 C944 0.949 . S
C941 C942 1.349 1_556 S
C941 C943 1.327 . S
C941 H964 0.950 1_556 S
C942 C941 1.349 1_554 S
C942 C954 1.349 1_554 S
C943 C941 1.327 . S
C943 C959 1.429 . S
C943 H965 0.950 . S
C944 H940 0.949 . S
C944 C952 1.574 . S
C944 C960 1.368 . S
H945 C953 0.950 . S
H946 C951 0.950 . S
H947 C952 0.949 . S
H948 C954 0.950 1_554 S
H949 C955 0.950 . S
H950 C956 0.949 . S
C951 H946 0.950 . S
C951 C953 1.327 . S
C951 C957 1.429 . S
C952 C944 1.574 . S
C952 H947 0.949 . S
C952 C958 1.368 . S
C953 C937 1.349 . S
C953 H945 0.950 . S
C953 C951 1.327 . S
C954 C942 1.349 1_556 S
C954 H948 0.950 1_556 S
C954 C955 1.327 . S
C955 H949 0.950 . S
C955 C954 1.327 . S
C955 C959 1.429 . S
C956 C939 1.574 . S
C956 H950 0.949 . S
C956 C960 1.368 . S
C957 C938 1.429 . S
C957 C951 1.429 . S
C957 C958 1.523 . S
C958 C939 1.368 . S
C958 C952 1.368 . S
C958 C957 1.523 . S
C959 C943 1.429 . S
C959 C955 1.429 . S
C959 C960 1.523 . S
C960 C944 1.368 . S
C960 C956 1.368 . S
C960 C959 1.523 . S
H961 C936 0.950 . S
H962 C938 0.950 . S
H963 C939 0.949 . S
H964 C941 0.950 1_554 S
H965 C943 0.950 . S
C966 C967 1.349 . S
C966 C968 1.327 . S
C966 H991 0.950 . S
C967 C966 1.349 . S
C967 C983 1.349 . S
C968 C966 1.327 . S
C968 C987 1.429 . S
C968 H992 0.950 . S
C969 C986 1.574 . S
C969 C988 1.368 . S
C969 H993 0.949 . S
H970 C974 0.949 . S
C971 C972 1.349 . S
C971 C973 1.327 . S
C971 H994 0.950 . S
C972 C971 1.349 . S
C972 C984 1.349 . S
C973 C971 1.327 . S
C973 C989 1.429 . S
C973 H995 0.950 . S
C974 H970 0.949 . S
C974 C982 1.574 . S
C974 C990 1.368 . S
H975 C983 0.950 . S
H976 C981 0.950 . S
H977 C982 0.949 . S
H978 C984 0.950 . S
H979 C985 0.950 . S
H980 C986 0.949 . S
C981 H976 0.950 . S
C981 C983 1.327 . S
C981 C987 1.429 . S
C982 C974 1.574 . S
C982 H977 0.949 . S
C982 C988 1.368 . S
C983 C967 1.349 . S
C983 H975 0.950 . S
C983 C981 1.327 . S
C984 C972 1.349 . S
C984 H978 0.950 . S
C984 C985 1.327 . S
C985 H979 0.950 . S
C985 C984 1.327 . S
C985 C989 1.429 . S
C986 C969 1.574 . S
C986 H980 0.949 . S
C986 C990 1.368 . S
C987 C968 1.429 . S
C987 C981 1.429 . S
C987 C988 1.523 . S
C988 C969 1.368 . S
C988 C982 1.368 . S
C988 C987 1.523 . S
C989 C973 1.429 . S
C989 C985 1.429 . S
C989 C990 1.523 1_556 S
C990 C974 1.368 . S
C990 C986 1.368 . S
C990 C989 1.523 1_554 S
H991 C966 0.950 . S
H992 C968 0.950 . S
H993 C969 0.949 . S
H994 C971 0.950 . S
H995 C973 0.950 . S
C996 C997 1.349 . S
C996 C998 1.327 . S
C996 H1021 0.950 . S
C997 C996 1.349 . S
C997 C1013 1.349 . S
C998 C996 1.327 . S
C998 C1017 1.429 . S
C998 H1022 0.950 . S
C999 C1016 1.574 . S
C999 C1018 1.368 . S
C999 H1023 0.949 . S
H1000 C1004 0.949 . S
C1001 C1002 1.349 . S
C1001 C1003 1.327 . S
C1001 H1024 0.950 . S
C1002 C1001 1.349 . S
C1002 C1014 1.349 . S
C1003 C1001 1.327 . S
C1003 C1019 1.429 . S
C1003 H1025 0.950 . S
C1004 H1000 0.949 . S
C1004 C1012 1.574 . S
C1004 C1020 1.368 . S
H1005 C1013 0.950 . S
H1006 C1011 0.950 . S
H1007 C1012 0.949 . S
H1008 C1014 0.950 . S
H1009 C1015 0.950 . S
H1010 C1016 0.949 . S
C1011 H1006 0.950 . S
C1011 C1013 1.327 . S
C1011 C1017 1.429 . S
C1012 C1004 1.574 . S
C1012 H1007 0.949 . S
C1012 C1018 1.368 . S
C1013 C997 1.349 . S
C1013 H1005 0.950 . S
C1013 C1011 1.327 . S
C1014 C1002 1.349 . S
C1014 H1008 0.950 . S
C1014 C1015 1.327 . S
C1015 H1009 0.950 . S
C1015 C1014 1.327 . S
C1015 C1019 1.429 . S
C1016 C999 1.574 . S
C1016 H1010 0.949 . S
C1016 C1020 1.368 . S
C1017 C998 1.429 . S
C1017 C1011 1.429 . S
C1017 C1018 1.523 . S
C1018 C999 1.368 . S
C1018 C1012 1.368 . S
C1018 C1017 1.523 . S
C1019 C1003 1.429 . S
C1019 C1015 1.429 . S
C1019 C1020 1.523 . S
C1020 C1004 1.368 . S
C1020 C1016 1.368 . S
C1020 C1019 1.523 . S
H1021 C996 0.950 . S
H1022 C998 0.950 . S
H1023 C999 0.949 . S
H1024 C1001 0.950 . S
H1025 C1003 0.950 . S
C1026 C1027 1.349 1_556 S
C1026 C1028 1.327 . S
C1026 H1051 0.950 1_556 S
C1027 C1026 1.349 1_554 S
C1027 C1043 1.349 1_554 S
C1028 C1026 1.327 . S
C1028 C1047 1.429 . S
C1028 H1052 0.950 . S
C1029 C1046 1.574 . S
C1029 C1048 1.368 . S
C1029 H1053 0.949 . S
H1030 C1034 0.949 . S
C1031 C1032 1.349 . S
C1031 C1033 1.327 . S
C1031 H1054 0.950 . S
C1032 C1031 1.349 . S
C1032 C1044 1.349 . S
C1033 C1031 1.327 . S
C1033 C1049 1.429 . S
C1033 H1055 0.950 . S
C1034 H1030 0.949 . S
C1034 C1042 1.574 . S
C1034 C1050 1.368 . S
H1035 C1043 0.950 . S
H1036 C1041 0.950 . S
H1037 C1042 0.949 . S
H1038 C1044 0.950 . S
H1039 C1045 0.950 . S
H1040 C1046 0.949 . S
C1041 H1036 0.950 . S
C1041 C1043 1.327 . S
C1041 C1047 1.429 . S
C1042 C1034 1.574 . S
C1042 H1037 0.949 . S
C1042 C1048 1.368 . S
C1043 C1027 1.349 1_556 S
C1043 H1035 0.950 . S
C1043 C1041 1.327 . S
C1044 C1032 1.349 . S
C1044 H1038 0.950 . S
C1044 C1045 1.327 . S
C1045 H1039 0.950 . S
C1045 C1044 1.327 . S
C1045 C1049 1.429 . S
C1046 C1029 1.574 . S
C1046 H1040 0.949 . S
C1046 C1050 1.368 . S
C1047 C1028 1.429 . S
C1047 C1041 1.429 . S
C1047 C1048 1.523 . S
C1048 C1029 1.368 . S
C1048 C1042 1.368 . S
C1048 C1047 1.523 . S
C1049 C1033 1.429 . S
C1049 C1045 1.429 . S
C1049 C1050 1.523 . S
C1050 C1034 1.368 . S
C1050 C1046 1.368 . S
C1050 C1049 1.523 . S
H1051 C1026 0.950 1_554 S
H1052 C1028 0.950 . S
H1053 C1029 0.949 . S
H1054 C1031 0.950 . S
H1055 C1033 0.950 . S
C1056 C1057 1.349 . S
C1056 C1058 1.327 . S
C1056 H1081 0.950 . S
C1057 C1056 1.349 . S
C1057 C1073 1.349 . S
C1058 C1056 1.327 . S
C1058 C1077 1.429 . S
C1058 H1082 0.950 . S
C1059 C1076 1.574 . S
C1059 C1078 1.368 . S
C1059 H1083 0.949 . S
H1060 C1064 0.949 . S
C1061 C1062 1.349 . S
C1061 C1063 1.327 . S
C1061 H1084 0.950 . S
C1062 C1061 1.349 . S
C1062 C1074 1.349 . S
C1063 C1061 1.327 . S
C1063 C1079 1.429 . S
C1063 H1085 0.950 . S
C1064 H1060 0.949 . S
C1064 C1072 1.574 . S
C1064 C1080 1.368 . S
H1065 C1073 0.950 . S
H1066 C1071 0.950 . S
H1067 C1072 0.949 . S
H1068 C1074 0.950 . S
H1069 C1075 0.950 . S
H1070 C1076 0.949 . S
C1071 H1066 0.950 . S
C1071 C1073 1.327 . S
C1071 C1077 1.429 . S
C1072 C1064 1.574 . S
C1072 H1067 0.949 . S
C1072 C1078 1.368 . S
C1073 C1057 1.349 . S
C1073 H1065 0.950 . S
C1073 C1071 1.327 . S
C1074 C1062 1.349 . S
C1074 H1068 0.950 . S
C1074 C1075 1.327 . S
C1075 H1069 0.950 . S
C1075 C1074 1.327 . S
C1075 C1079 1.429 . S
C1076 C1059 1.574 . S
C1076 H1070 0.949 . S
C1076 C1080 1.368 . S
C1077 C1058 1.429 . S
C1077 C1071 1.429 . S
C1077 C1078 1.523 . S
C1078 C1059 1.368 . S
C1078 C1072 1.368 . S
C1078 C1077 1.523 . S
C1079 C1063 1.429 . S
C1079 C1075 1.429 . S
C1079 C1080 1.523 1_556 S
C1080 C1064 1.368 . S
C1080 C1076 1.368 . S
C1080 C1079 1.523 1_554 S
H1081 C1056 0.950 . S
H1082 C1058 0.950 . S
H1083 C1059 0.949 . S
H1084 C1061 0.950 . S
H1085 C1063 0.950 . S
C1086 C1087 1.349 . S
C1086 C1088 1.327 . S
C1086 H1111 0.950 . S
C1087 C1086 1.349 . S
C1087 C1103 1.349 . S
C1088 C1086 1.327 . S
C1088 C1107 1.429 . S
C1088 H1112 0.950 . S
C1089 C1106 1.574 . S
C1089 C1108 1.368 . S
C1089 H1113 0.949 . S
H1090 C1094 0.949 . S
C1091 C1092 1.349 . S
C1091 C1093 1.327 . S
C1091 H1114 0.950 . S
C1092 C1091 1.349 . S
C1092 C1104 1.349 . S
C1093 C1091 1.327 . S
C1093 C1109 1.429 . S
C1093 H1115 0.950 . S
C1094 H1090 0.949 . S
C1094 C1102 1.574 . S
C1094 C1110 1.368 . S
H1095 C1103 0.950 . S
H1096 C1101 0.950 . S
H1097 C1102 0.949 . S
H1098 C1104 0.950 . S
H1099 C1105 0.950 . S
H1100 C1106 0.949 . S
C1101 H1096 0.950 . S
C1101 C1103 1.327 . S
C1101 C1107 1.429 . S
C1102 C1094 1.574 . S
C1102 H1097 0.949 . S
C1102 C1108 1.368 . S
C1103 C1087 1.349 . S
C1103 H1095 0.950 . S
C1103 C1101 1.327 . S
C1104 C1092 1.349 . S
C1104 H1098 0.950 . S
C1104 C1105 1.327 . S
C1105 H1099 0.950 . S
C1105 C1104 1.327 . S
C1105 C1109 1.429 . S
C1106 C1089 1.574 . S
C1106 H1100 0.949 . S
C1106 C1110 1.368 . S
C1107 C1088 1.429 . S
C1107 C1101 1.429 . S
C1107 C1108 1.523 . S
C1108 C1089 1.368 . S
C1108 C1102 1.368 . S
C1108 C1107 1.523 . S
C1109 C1093 1.429 . S
C1109 C1105 1.429 . S
C1109 C1110 1.523 . S
C1110 C1094 1.368 . S
C1110 C1106 1.368 . S
C1110 C1109 1.523 . S
H1111 C1086 0.950 . S
H1112 C1088 0.950 . S
H1113 C1089 0.949 . S
H1114 C1091 0.950 . S
H1115 C1093 0.950 . S
C1116 C1117 1.349 . S
C1116 C1118 1.327 . S
C1116 H1141 0.950 . S
C1117 C1116 1.349 . S
C1117 C1133 1.349 . S
C1118 C1116 1.327 . S
C1118 C1137 1.429 . S
C1118 H1142 0.950 . S
C1119 C1136 1.574 . S
C1119 C1138 1.368 . S
C1119 H1143 0.949 . S
H1120 C1124 0.949 . S
C1121 C1122 1.349 . S
C1121 C1123 1.327 . S
C1121 H1144 0.950 . S
C1122 C1121 1.349 . S
C1122 C1134 1.349 . S
C1123 C1121 1.327 . S
C1123 C1139 1.429 . S
C1123 H1145 0.950 . S
C1124 H1120 0.949 . S
C1124 C1132 1.574 . S
C1124 C1140 1.368 . S
H1125 C1133 0.950 . S
H1126 C1131 0.950 . S
H1127 C1132 0.949 . S
H1128 C1134 0.950 . S
H1129 C1135 0.950 . S
H1130 C1136 0.949 . S
C1131 H1126 0.950 . S
C1131 C1133 1.327 . S
C1131 C1137 1.429 . S
C1132 C1124 1.574 . S
C1132 H1127 0.949 . S
C1132 C1138 1.368 . S
C1133 C1117 1.349 . S
C1133 H1125 0.950 . S
C1133 C1131 1.327 . S
C1134 C1122 1.349 . S
C1134 H1128 0.950 . S
C1134 C1135 1.327 . S
C1135 H1129 0.950 . S
C1135 C1134 1.327 . S
C1135 C1139 1.429 . S
C1136 C1119 1.574 . S
C1136 H1130 0.949 . S
C1136 C1140 1.368 . S
C1137 C1118 1.429 . S
C1137 C1131 1.429 . S
C1137 C1138 1.523 1_554 S
C1138 C1119 1.368 . S
C1138 C1132 1.368 . S
C1138 C1137 1.523 1_556 S
C1139 C1123 1.429 . S
C1139 C1135 1.429 . S
C1139 C1140 1.523 . S
C1140 C1124 1.368 . S
C1140 C1136 1.368 . S
C1140 C1139 1.523 . S
H1141 C1116 0.950 . S
H1142 C1118 0.950 . S
H1143 C1119 0.949 . S
H1144 C1121 0.950 . S
H1145 C1123 0.950 . S
C1146 C1147 1.349 1_554 S
C1146 C1148 1.327 . S
C1146 H1171 0.950 1_554 S
C1147 C1146 1.349 1_556 S
C1147 C1163 1.349 1_556 S
C1148 C1146 1.327 . S
C1148 C1167 1.429 . S
C1148 H1172 0.950 . S
C1149 C1166 1.574 . S
C1149 C1168 1.368 . S
C1149 H1173 0.949 . S
H1150 C1154 0.949 . S
C1151 C1152 1.349 . S
C1151 C1153 1.327 . S
C1151 H1174 0.950 . S
C1152 C1151 1.349 . S
C1152 C1164 1.349 . S
C1153 C1151 1.327 . S
C1153 C1169 1.429 . S
C1153 H1175 0.950 . S
C1154 H1150 0.949 . S
C1154 C1162 1.574 . S
C1154 C1170 1.368 . S
H1155 C1163 0.950 . S
H1156 C1161 0.950 . S
H1157 C1162 0.949 . S
H1158 C1164 0.950 . S
H1159 C1165 0.950 . S
H1160 C1166 0.949 . S
C1161 H1156 0.950 . S
C1161 C1163 1.327 . S
C1161 C1167 1.429 . S
C1162 C1154 1.574 . S
C1162 H1157 0.949 . S
C1162 C1168 1.368 . S
C1163 C1147 1.349 1_554 S
C1163 H1155 0.950 . S
C1163 C1161 1.327 . S
C1164 C1152 1.349 . S
C1164 H1158 0.950 . S
C1164 C1165 1.327 . S
C1165 H1159 0.950 . S
C1165 C1164 1.327 . S
C1165 C1169 1.429 . S
C1166 C1149 1.574 . S
C1166 H1160 0.949 . S
C1166 C1170 1.368 . S
C1167 C1148 1.429 . S
C1167 C1161 1.429 . S
C1167 C1168 1.523 . S
C1168 C1149 1.368 . S
C1168 C1162 1.368 . S
C1168 C1167 1.523 . S
C1169 C1153 1.429 . S
C1169 C1165 1.429 . S
C1169 C1170 1.523 . S
C1170 C1154 1.368 . S
C1170 C1166 1.368 . S
C1170 C1169 1.523 . S
H1171 C1146 0.950 1_556 S
H1172 C1148 0.950 . S
H1173 C1149 0.949 . S
H1174 C1151 0.950 . S
H1175 C1153 0.950 . S
C1176 C1177 1.349 . S
C1176 C1178 1.327 . S
C1176 H1201 0.950 . S
C1177 C1176 1.349 . S
C1177 C1193 1.349 . S
C1178 C1176 1.327 . S
C1178 C1197 1.429 . S
C1178 H1202 0.950 . S
C1179 C1196 1.574 . S
C1179 C1198 1.368 . S
C1179 H1203 0.949 . S
H1180 C1184 0.949 . S
C1181 C1182 1.349 . S
C1181 C1183 1.327 . S
C1181 H1204 0.950 . S
C1182 C1181 1.349 . S
C1182 C1194 1.349 . S
C1183 C1181 1.327 . S
C1183 C1199 1.429 . S
C1183 H1205 0.950 . S
C1184 H1180 0.949 . S
C1184 C1192 1.574 . S
C1184 C1200 1.368 . S
H1185 C1193 0.950 . S
H1186 C1191 0.950 . S
H1187 C1192 0.949 . S
H1188 C1194 0.950 . S
H1189 C1195 0.950 . S
H1190 C1196 0.949 . S
C1191 H1186 0.950 . S
C1191 C1193 1.327 . S
C1191 C1197 1.429 . S
C1192 C1184 1.574 . S
C1192 H1187 0.949 . S
C1192 C1198 1.368 . S
C1193 C1177 1.349 . S
C1193 H1185 0.950 . S
C1193 C1191 1.327 . S
C1194 C1182 1.349 . S
C1194 H1188 0.950 . S
C1194 C1195 1.327 . S
C1195 H1189 0.950 . S
C1195 C1194 1.327 . S
C1195 C1199 1.429 . S
C1196 C1179 1.574 . S
C1196 H1190 0.949 . S
C1196 C1200 1.368 . S
C1197 C1178 1.429 . S
C1197 C1191 1.429 . S
C1197 C1198 1.523 . S
C1198 C1179 1.368 . S
C1198 C1192 1.368 . S
C1198 C1197 1.523 . S
C1199 C1183 1.429 . S
C1199 C1195 1.429 . S
C1199 C1200 1.523 . S
C1200 C1184 1.368 . S
C1200 C1196 1.368 . S
C1200 C1199 1.523 . S
H1201 C1176 0.950 . S
H1202 C1178 0.950 . S
H1203 C1179 0.949 . S
H1204 C1181 0.950 . S
H1205 C1183 0.950 . S
C1206 C1207 1.349 . S
C1206 C1208 1.327 . S
C1206 H1231 0.950 . S
C1207 C1206 1.349 . S
C1207 C1223 1.349 . S
C1208 C1206 1.327 . S
C1208 C1227 1.429 . S
C1208 H1232 0.950 . S
C1209 C1226 1.574 . S
C1209 C1228 1.368 . S
C1209 H1233 0.949 . S
H1210 C1214 0.949 . S
C1211 C1212 1.349 . S
C1211 C1213 1.327 . S
C1211 H1234 0.950 . S
C1212 C1211 1.349 . S
C1212 C1224 1.349 . S
C1213 C1211 1.327 . S
C1213 C1229 1.429 . S
C1213 H1235 0.950 . S
C1214 H1210 0.949 . S
C1214 C1222 1.574 . S
C1214 C1230 1.368 . S
H1215 C1223 0.950 . S
H1216 C1221 0.950 . S
H1217 C1222 0.949 . S
H1218 C1224 0.950 . S
H1219 C1225 0.950 . S
H1220 C1226 0.949 . S
C1221 H1216 0.950 . S
C1221 C1223 1.327 . S
C1221 C1227 1.429 . S
C1222 C1214 1.574 . S
C1222 H1217 0.949 . S
C1222 C1228 1.368 . S
C1223 C1207 1.349 . S
C1223 H1215 0.950 . S
C1223 C1221 1.327 . S
C1224 C1212 1.349 . S
C1224 H1218 0.950 . S
C1224 C1225 1.327 . S
C1225 H1219 0.950 . S
C1225 C1224 1.327 . S
C1225 C1229 1.429 . S
C1226 C1209 1.574 . S
C1226 H1220 0.949 . S
C1226 C1230 1.368 . S
C1227 C1208 1.429 . S
C1227 C1221 1.429 . S
C1227 C1228 1.523 . S
C1228 C1209 1.368 . S
C1228 C1222 1.368 . S
C1228 C1227 1.523 . S
C1229 C1213 1.429 . S
C1229 C1225 1.429 . S
C1229 C1230 1.523 1_554 S
C1230 C1214 1.368 . S
C1230 C1226 1.368 . S
C1230 C1229 1.523 1_556 S
H1231 C1206 0.950 . S
H1232 C1208 0.950 . S
H1233 C1209 0.949 . S
H1234 C1211 0.950 . S
H1235 C1213 0.950 . S
C1236 C1237 1.349 . S
C1236 C1238 1.327 . S
C1236 H1261 0.950 . S
C1237 C1236 1.349 . S
C1237 C1253 1.349 . S
C1238 C1236 1.327 . S
C1238 C1257 1.429 . S
C1238 H1262 0.950 . S
C1239 C1256 1.574 . S
C1239 C1258 1.368 . S
C1239 H1263 0.949 . S
H1240 C1244 0.949 . S
C1241 C1242 1.349 1_554 S
C1241 C1243 1.327 . S
C1241 H1264 0.950 1_554 S
C1242 C1241 1.349 1_556 S
C1242 C1254 1.349 1_556 S
C1243 C1241 1.327 . S
C1243 C1259 1.429 . S
C1243 H1265 0.950 . S
C1244 H1240 0.949 . S
C1244 C1252 1.574 . S
C1244 C1260 1.368 . S
H1245 C1253 0.950 . S
H1246 C1251 0.950 . S
H1247 C1252 0.949 . S
H1248 C1254 0.950 1_556 S
H1249 C1255 0.950 . S
H1250 C1256 0.949 . S
C1251 H1246 0.950 . S
C1251 C1253 1.327 . S
C1251 C1257 1.429 . S
C1252 C1244 1.574 . S
C1252 H1247 0.949 . S
C1252 C1258 1.368 . S
C1253 C1237 1.349 . S
C1253 H1245 0.950 . S
C1253 C1251 1.327 . S
C1254 C1242 1.349 1_554 S
C1254 H1248 0.950 1_554 S
C1254 C1255 1.327 . S
C1255 H1249 0.950 . S
C1255 C1254 1.327 . S
C1255 C1259 1.429 . S
C1256 C1239 1.574 . S
C1256 H1250 0.949 . S
C1256 C1260 1.368 . S
C1257 C1238 1.429 . S
C1257 C1251 1.429 . S
C1257 C1258 1.523 . S
C1258 C1239 1.368 . S
C1258 C1252 1.368 . S
C1258 C1257 1.523 . S
C1259 C1243 1.429 . S
C1259 C1255 1.429 . S
C1259 C1260 1.523 . S
C1260 C1244 1.368 . S
C1260 C1256 1.368 . S
C1260 C1259 1.523 . S
H1261 C1236 0.950 . S
H1262 C1238 0.950 . S
H1263 C1239 0.949 . S
H1264 C1241 0.950 1_556 S
H1265 C1243 0.950 . S
C1266 C1267 1.349 . S
C1266 C1268 1.327 . S
C1266 H1291 0.950 . S
C1267 C1266 1.349 . S
C1267 C1283 1.349 . S
C1268 C1266 1.327 . S
C1268 C1287 1.429 . S
C1268 H1292 0.950 . S
C1269 C1286 1.574 . S
C1269 C1288 1.368 . S
C1269 H1293 0.949 . S
H1270 C1274 0.949 . S
C1271 C1272 1.349 . S
C1271 C1273 1.327 . S
C1271 H1294 0.950 . S
C1272 C1271 1.349 . S
C1272 C1284 1.349 . S
C1273 C1271 1.327 . S
C1273 C1289 1.429 . S
C1273 H1295 0.950 . S
C1274 H1270 0.949 . S
C1274 C1282 1.574 . S
C1274 C1290 1.368 . S
H1275 C1283 0.950 . S
H1276 C1281 0.950 . S
H1277 C1282 0.949 . S
H1278 C1284 0.950 . S
H1279 C1285 0.950 . S
H1280 C1286 0.949 . S
C1281 H1276 0.950 . S
C1281 C1283 1.327 . S
C1281 C1287 1.429 . S
C1282 C1274 1.574 . S
C1282 H1277 0.949 . S
C1282 C1288 1.368 . S
C1283 C1267 1.349 . S
C1283 H1275 0.950 . S
C1283 C1281 1.327 . S
C1284 C1272 1.349 . S
C1284 H1278 0.950 . S
C1284 C1285 1.327 . S
C1285 H1279 0.950 . S
C1285 C1284 1.327 . S
C1285 C1289 1.429 . S
C1286 C1269 1.574 . S
C1286 H1280 0.949 . S
C1286 C1290 1.368 . S
C1287 C1268 1.429 . S
C1287 C1281 1.429 . S
C1287 C1288 1.523 . S
C1288 C1269 1.368 . S
C1288 C1282 1.368 . S
C1288 C1287 1.523 . S
C1289 C1273 1.429 . S
C1289 C1285 1.429 . S
C1289 C1290 1.523 . S
C1290 C1274 1.368 . S
C1290 C1286 1.368 . S
C1290 C1289 1.523 . S
H1291 C1266 0.950 . S
H1292 C1268 0.950 . S
H1293 C1269 0.949 . S
H1294 C1271 0.950 . S
H1295 C1273 0.950 . S
C397 C8 1.135 . S
C402 C338 1.135 . S
C427 C371 1.133 . S
C432 C41 1.133 . S
C457 C206 1.134 . S
C462 C74 1.134 . S
C487 C239 1.134 . S
C492 C107 1.134 . S
C517 C140 1.133 . S
C522 C272 1.133 . S
C547 C305 1.134 . S
C552 C173 1.134 . S
C577 C215 1.635 . S
C582 C17 1.635 . S
C607 C248 1.635 . S
C612 C50 1.635 . S
C637 C83 1.635 . S
C642 C281 1.635 . S
C667 C116 1.635 . S
C672 C314 1.635 . S
C697 C347 1.635 . S
C702 C149 1.635 . S
C727 C380 1.635 . S
C732 C182 1.635 . S
C757 C28 1.300 . S
C762 C325 1.300 . S
C787 C358 1.300 . S
C792 C61 1.300 . S
C817 C391 1.299 . S
C822 C94 1.299 . S
C847 C226 1.300 . S
C852 C127 1.300 . S
C877 C160 1.300 . S
C882 C259 1.300 . S
C907 C193 1.300 . S
C912 C292 1.300 . S
C937 N5 0.950 . S
C942 N14 0.949 . S
C967 N47 0.949 . S
C972 N38 0.950 . S
C997 N71 0.950 . S
C1002 N80 0.949 . S
C1027 N113 0.949 . S
C1032 N104 0.950 . S
C1057 N146 0.949 . S
C1062 N137 0.950 . S
C1087 N179 0.949 . S
C1092 N170 0.950 . S
C1117 N203 0.950 . S
C1122 N212 0.949 . S
C1147 N245 0.949 . S
C1152 N236 0.950 . S
C1177 N278 0.949 . S
C1182 N269 0.950 . S
C1207 N311 0.949 . S
C1212 N302 0.950 . S
C1237 N335 0.949 . S
C1242 N344 0.949 . S
C1267 N377 0.949 . S
C1272 N368 0.950 . S
