# Generated by pormake.
# Topology una, (4)-cn, num edge types: 1
# Building blocks:
#     Node 0, Type 0, BuildingBlock: CEKHIL_clean_sbu_0, # of connection points: 4
#     Node 1, Type 0, BuildingBlock: CEKHIL_clean_sbu_0, # of connection points: 4
#     Node 2, Type 0, BuildingBlock: CEKHIL_clean_sbu_0, # of connection points: 4
#     Node 3, Type 0, BuildingBlock: CEKHIL_clean_sbu_0, # of connection points: 4
#     Node 4, Type 0, BuildingBlock: CEKHIL_clean_sbu_0, # of connection points: 4
#     Node 5, Type 0, BuildingBlock: CEKHIL_clean_sbu_0, # of connection points: 4
#     Node 6, Type 0, BuildingBlock: CEKHIL_clean_sbu_0, # of connection points: 4
#     Node 7, Type 0, BuildingBlock: CEKHIL_clean_sbu_0, # of connection points: 4
#     Node 8, Type 0, BuildingBlock: CEKHIL_clean_sbu_0, # of connection points: 4
#     Node 9, Type 0, BuildingBlock: CEKHIL_clean_sbu_0, # of connection points: 4
#     Node 10, Type 0, BuildingBlock: CEKHIL_clean_sbu_0, # of connection points: 4
#     Node 11, Type 0, BuildingBlock: CEKHIL_clean_sbu_0, # of connection points: 4
#     Edge 12, Type (0, 0), BuildingBlock: KIFKEQ_clean_linker_1, # of connection points: 2
#     Edge 13, Type (0, 0), BuildingBlock: KIFKEQ_clean_linker_1, # of connection points: 2
#     Edge 14, Type (0, 0), BuildingBlock: KIFKEQ_clean_linker_1, # of connection points: 2
#     Edge 15, Type (0, 0), BuildingBlock: KIFKEQ_clean_linker_1, # of connection points: 2
#     Edge 16, Type (0, 0), BuildingBlock: KIFKEQ_clean_linker_1, # of connection points: 2
#     Edge 17, Type (0, 0), BuildingBlock: KIFKEQ_clean_linker_1, # of connection points: 2
#     Edge 18, Type (0, 0), BuildingBlock: KIFKEQ_clean_linker_1, # of connection points: 2
#     Edge 19, Type (0, 0), BuildingBlock: KIFKEQ_clean_linker_1, # of connection points: 2
#     Edge 20, Type (0, 0), BuildingBlock: KIFKEQ_clean_linker_1, # of connection points: 2
#     Edge 21, Type (0, 0), BuildingBlock: KIFKEQ_clean_linker_1, # of connection points: 2
#     Edge 22, Type (0, 0), BuildingBlock: KIFKEQ_clean_linker_1, # of connection points: 2
#     Edge 23, Type (0, 0), BuildingBlock: KIFKEQ_clean_linker_1, # of connection points: 2
#     Edge 24, Type (0, 0), BuildingBlock: KIFKEQ_clean_linker_1, # of connection points: 2
#     Edge 25, Type (0, 0), BuildingBlock: KIFKEQ_clean_linker_1, # of connection points: 2
#     Edge 26, Type (0, 0), BuildingBlock: KIFKEQ_clean_linker_1, # of connection points: 2
#     Edge 27, Type (0, 0), BuildingBlock: KIFKEQ_clean_linker_1, # of connection points: 2
#     Edge 28, Type (0, 0), BuildingBlock: KIFKEQ_clean_linker_1, # of connection points: 2
#     Edge 29, Type (0, 0), BuildingBlock: KIFKEQ_clean_linker_1, # of connection points: 2
#     Edge 30, Type (0, 0), BuildingBlock: KIFKEQ_clean_linker_1, # of connection points: 2
#     Edge 31, Type (0, 0), BuildingBlock: KIFKEQ_clean_linker_1, # of connection points: 2
#     Edge 32, Type (0, 0), BuildingBlock: KIFKEQ_clean_linker_1, # of connection points: 2
#     Edge 33, Type (0, 0), BuildingBlock: KIFKEQ_clean_linker_1, # of connection points: 2
#     Edge 34, Type (0, 0), BuildingBlock: KIFKEQ_clean_linker_1, # of connection points: 2
#     Edge 35, Type (0, 0), BuildingBlock: KIFKEQ_clean_linker_1, # of connection points: 2
# Relax obj value: 0.022
# Max RMSD: 0.036
# Mean RMSD: 0.036
data_MOF--net-una--node1-CEKHIL_clean_sbu_0--edge1-KIFKEQ_clean_linker_1
_symmetry_space_group_name_H-M    P1
_symmetry_Int_Tables_number       1
_symmetry_cell_setting            triclinic
loop_
_symmetry_equiv_pos_as_xyz
'x, y, z'
_cell_length_a     58.45286
_cell_length_b     58.497582
_cell_length_c     22.195876
_cell_angle_alpha  90.012055
_cell_angle_beta   90.027949
_cell_angle_gamma 120.01921
loop_
_atom_site_label
_atom_site_type_symbol
_atom_site_fract_x
_atom_site_fract_y
_atom_site_fract_z
_atom_type_partial_charge
Co0 Co 0.13482 0.43816 0.02695 0.0
O1 O 0.11283 0.43693 0.96167 0.0
O2 O 0.09733 0.41377 0.04494 0.0
C3 C 0.16319 0.43361 0.96667 0.0
O4 O 0.15407 0.43476 0.10195 0.0
Co5 Co 0.19257 0.48538 0.02578 0.0
O6 O 0.19742 0.46276 0.08478 0.0
C7 C 0.14855 0.49425 0.05491 0.0
C8 C 0.09259 0.41952 0.99119 0.0
C9 C 0.17887 0.44393 0.11446 0.0
O10 O 0.13322 0.46924 0.06249 0.0
O11 O 0.1721 0.50434 0.03438 0.0
O12 O 0.14173 0.41292 0.98488 0.0
O13 O 0.16552 0.45599 0.98146 0.0
Co14 Co 0.69642 0.13552 0.19203 0.0
O15 O 0.67328 0.11246 0.13056 0.0
O16 O 0.6842 0.09849 0.21182 0.0
C17 C 0.7267 0.16249 0.1247 0.0
O18 O 0.72162 0.15518 0.26342 0.0
Co19 Co 0.71044 0.19422 0.19235 0.0
O20 O 0.74009 0.19858 0.24325 0.0
C21 C 0.65853 0.1528 0.23923 0.0
C22 C 0.67199 0.09283 0.16002 0.0
C23 C 0.73923 0.17965 0.2735 0.0
O24 O 0.66525 0.13496 0.23409 0.0
O25 O 0.67312 0.17669 0.22168 0.0
O26 O 0.72692 0.14164 0.14373 0.0
O27 O 0.7077 0.16559 0.14445 0.0
Co28 Co 0.57106 0.69738 0.36551 0.0
O29 O 0.57027 0.67337 0.30539 0.0
O30 O 0.59645 0.6858 0.38488 0.0
C31 C 0.57316 0.72662 0.29671 0.0
O32 O 0.57704 0.7232 0.43591 0.0
Co33 Co 0.52608 0.71097 0.36762 0.0
O34 O 0.55183 0.74139 0.41588 0.0
C35 C 0.51685 0.65998 0.41754 0.0
C36 C 0.58881 0.67237 0.33475 0.0
C37 C 0.57008 0.74075 0.44586 0.0
O38 O 0.54126 0.66659 0.40991 0.0
O39 O 0.5071 0.67432 0.40115 0.0
O40 O 0.59459 0.72731 0.31488 0.0
O41 O 0.55138 0.70778 0.31826 0.0
Co42 Co 0.87591 0.56824 0.52919 0.0
O43 O 0.89935 0.56802 0.46892 0.0
O44 O 0.91285 0.59306 0.55023 0.0
C45 C 0.84931 0.57158 0.46069 0.0
O46 O 0.85576 0.5735 0.60004 0.0
Co47 Co 0.81715 0.52356 0.52793 0.0
O48 O 0.8124 0.54853 0.5789 0.0
C49 C 0.8585 0.51299 0.57514 0.0
C50 C 0.91882 0.586 0.49953 0.0
C51 C 0.8312 0.56643 0.60982 0.0
O52 O 0.87631 0.5376 0.57116 0.0
O53 O 0.83464 0.50372 0.55714 0.0
O54 O 0.87005 0.59265 0.48031 0.0
O55 O 0.84609 0.54949 0.48069 0.0
Co56 Co 0.31262 0.87089 0.69272 0.0
O57 O 0.33279 0.89377 0.62804 0.0
O58 O 0.32316 0.90781 0.71098 0.0
C59 C 0.28127 0.84135 0.63074 0.0
O60 O 0.29029 0.85064 0.76726 0.0
Co61 Co 0.30578 0.81469 0.69196 0.0
O62 O 0.27762 0.80785 0.75092 0.0
C63 C 0.35731 0.86081 0.7218 0.0
C64 C 0.33405 0.91332 0.65764 0.0
C65 C 0.27595 0.82573 0.7802 0.0
O66 O 0.34623 0.87491 0.72922 0.0
O67 O 0.34508 0.83723 0.70101 0.0
O68 O 0.27992 0.86162 0.64969 0.0
O69 O 0.30215 0.8407 0.64652 0.0
Co70 Co 0.44239 0.31028 0.85474 0.0
O71 O 0.44349 0.33261 0.79007 0.0
O72 O 0.42025 0.32584 0.87297 0.0
C73 C 0.43553 0.27706 0.79241 0.0
O74 O 0.43624 0.28672 0.92972 0.0
Co75 Co 0.48414 0.2923 0.85826 0.0
O76 O 0.45776 0.26445 0.91142 0.0
C77 C 0.49896 0.34662 0.89629 0.0
C78 C 0.42683 0.33664 0.81968 0.0
C79 C 0.4412 0.2679 0.94154 0.0
O80 O 0.47472 0.34112 0.89233 0.0
O81 O 0.50665 0.33038 0.88125 0.0
O82 O 0.41579 0.27952 0.81069 0.0
O83 O 0.45859 0.2954 0.80945 0.0
Co84 Co 0.56992 0.87417 0.90783 0.0
O85 O 0.5713 0.89623 0.97317 0.0
O86 O 0.59557 0.91145 0.89128 0.0
C87 C 0.57214 0.84468 0.9691 0.0
O88 O 0.57357 0.8551 0.83286 0.0
Co89 Co 0.52185 0.81707 0.90468 0.0
O90 O 0.54473 0.81179 0.84725 0.0
C91 C 0.5148 0.8623 0.87575 0.0
C92 C 0.58946 0.91628 0.94454 0.0
C93 C 0.56415 0.83041 0.81914 0.0
O94 O 0.54 0.87729 0.87023 0.0
O95 O 0.50396 0.83851 0.89505 0.0
O96 O 0.59366 0.86553 0.95169 0.0
O97 O 0.55044 0.8434 0.95225 0.0
Co98 Co 0.69747 0.56682 0.07126 0.0
O99 O 0.67529 0.56763 0.134 0.0
O100 O 0.68501 0.59143 0.051 0.0
C101 C 0.72898 0.57084 0.13596 0.0
O102 O 0.7213 0.57088 0.99805 0.0
Co103 Co 0.71009 0.52101 0.0733 0.0
O104 O 0.7379 0.54402 0.01556 0.0
C105 C 0.6565 0.51069 0.04263 0.0
C106 C 0.67312 0.58514 0.10314 0.0
C107 C 0.73757 0.56249 0.9858 0.0
O108 O 0.66533 0.53553 0.0338 0.0
O109 O 0.67072 0.5016 0.06397 0.0
O110 O 0.72902 0.59178 0.1165 0.0
O111 O 0.7094 0.54868 0.1185 0.0
Co112 Co 0.1335 0.69365 0.23671 0.0
O113 O 0.11032 0.6715 0.29916 0.0
O114 O 0.09657 0.68268 0.21777 0.0
C115 C 0.16198 0.72401 0.30203 0.0
O116 O 0.15363 0.71757 0.16404 0.0
Co117 Co 0.19097 0.70349 0.23633 0.0
O118 O 0.19692 0.7324 0.18058 0.0
C119 C 0.14616 0.65136 0.20295 0.0
C120 C 0.09081 0.6703 0.26933 0.0
C121 C 0.17842 0.7331 0.15162 0.0
O122 O 0.13105 0.66138 0.19668 0.0
O123 O 0.16967 0.66426 0.22414 0.0
O124 O 0.14148 0.72511 0.28364 0.0
O125 O 0.1636 0.70405 0.28323 0.0
Co126 Co 0.43772 0.1313 0.40235 0.0
O127 O 0.43662 0.11018 0.46969 0.0
O128 O 0.41431 0.09364 0.38562 0.0
C129 C 0.43193 0.15966 0.4601 0.0
O130 O 0.43383 0.1488 0.3248 0.0
Co131 Co 0.48247 0.19014 0.39856 0.0
O132 O 0.45851 0.19282 0.3395 0.0
C133 C 0.49449 0.14733 0.37745 0.0
C134 C 0.41976 0.08953 0.44022 0.0
C135 C 0.44094 0.17297 0.31049 0.0
O136 O 0.46976 0.13056 0.36981 0.0
O137 O 0.50309 0.17117 0.39464 0.0
O138 O 0.41164 0.13777 0.44218 0.0
O139 O 0.45466 0.16273 0.44577 0.0
Co140 Co 0.31317 0.44222 0.57207 0.0
O141 O 0.33608 0.44312 0.63511 0.0
O142 O 0.32808 0.41962 0.55219 0.0
C143 C 0.28083 0.43591 0.63645 0.0
O144 O 0.28865 0.43629 0.49881 0.0
Co145 Co 0.29615 0.48486 0.57252 0.0
O146 O 0.26781 0.45899 0.51977 0.0
C147 C 0.3499 0.49879 0.53181 0.0
C148 C 0.3395 0.42622 0.6049 0.0
C149 C 0.27016 0.44198 0.48865 0.0
O150 O 0.34397 0.47438 0.53371 0.0
O151 O 0.33414 0.50675 0.54902 0.0
O152 O 0.28271 0.41594 0.61753 0.0
O153 O 0.29925 0.45879 0.61894 0.0
Co154 Co 0.87516 0.31069 0.73317 0.0
O155 O 0.89724 0.33275 0.79717 0.0
O156 O 0.91246 0.32254 0.71696 0.0
C157 C 0.84651 0.27993 0.79736 0.0
O158 O 0.85648 0.28657 0.6595 0.0
Co159 Co 0.81689 0.29794 0.72675 0.0
O160 O 0.81286 0.26813 0.67721 0.0
C161 C 0.85993 0.3498 0.684 0.0
C162 C 0.9173 0.33419 0.76936 0.0
C163 C 0.83208 0.26907 0.64808 0.0
O164 O 0.87738 0.34275 0.69207 0.0
O165 O 0.8355 0.33529 0.69769 0.0
O166 O 0.86746 0.27943 0.78022 0.0
O167 O 0.84425 0.29943 0.77765 0.0
H168 H 0.15086 0.41649 0.21634 0.0
H169 H 0.22703 0.44851 0.13034 0.0
H170 H 0.16882 0.40663 0.30624 0.0
H171 H 0.24507 0.43998 0.21949 0.0
H172 H 0.27685 0.42194 0.38091 0.0
H173 H 0.25044 0.41341 0.28914 0.0
H174 H 0.19654 0.4305 0.38584 0.0
H175 H 0.2219 0.43757 0.47681 0.0
C176 C 0.17125 0.42109 0.21618 0.0
C177 C 0.18751 0.43374 0.1663 0.0
C178 C 0.18171 0.41568 0.26797 0.0
C179 C 0.20867 0.42279 0.27106 0.0
C180 C 0.22426 0.43386 0.21945 0.0
C181 C 0.21387 0.43912 0.16811 0.0
C182 C 0.25891 0.42304 0.3828 0.0
C183 C 0.25185 0.43091 0.4361 0.0
C184 C 0.24386 0.41849 0.32995 0.0
C185 C 0.22148 0.42182 0.32913 0.0
C186 C 0.21339 0.42756 0.38392 0.0
C187 C 0.22824 0.43191 0.43641 0.0
H188 H 0.85961 0.27415 0.5425 0.0
H189 H 0.78693 0.22199 0.6351 0.0
H190 H 0.8418 0.24781 0.45061 0.0
H191 H 0.76879 0.19671 0.54398 0.0
H192 H 0.73698 0.15116 0.37558 0.0
H193 H 0.76456 0.16825 0.46597 0.0
H194 H 0.81116 0.24374 0.37823 0.0
H195 H 0.78475 0.22644 0.2884 0.0
C196 C 0.8401 0.2568 0.54368 0.0
C197 C 0.8246 0.25052 0.596 0.0
C198 C 0.82967 0.24181 0.49075 0.0
C199 C 0.80348 0.22025 0.4889 0.0
C200 C 0.78898 0.21289 0.54288 0.0
C201 C 0.79939 0.22769 0.59544 0.0
C202 C 0.75355 0.17115 0.37523 0.0
C203 C 0.75824 0.18748 0.32489 0.0
C204 C 0.76928 0.18113 0.42735 0.0
C205 C 0.79002 0.20769 0.4304 0.0
C206 C 0.79571 0.22323 0.37826 0.0
C207 C 0.78019 0.21328 0.3265 0.0
H208 H 0.59118 0.73559 0.5533 0.0
H209 H 0.5722 0.78803 0.45697 0.0
H210 H 0.59839 0.76166 0.64505 0.0
H211 H 0.57827 0.81323 0.54801 0.0
H212 H 0.59184 0.85893 0.71818 0.0
H213 H 0.60243 0.84161 0.62818 0.0
H214 H 0.56972 0.76521 0.71354 0.0
H215 H 0.56018 0.78257 0.80271 0.0
C216 C 0.58917 0.753 0.55125 0.0
C217 C 0.58074 0.75942 0.49785 0.0
C218 C 0.59296 0.76783 0.60409 0.0
C219 C 0.5884 0.78941 0.60476 0.0
C220 C 0.58214 0.79698 0.5499 0.0
C221 C 0.57843 0.78228 0.49742 0.0
C222 C 0.58752 0.83864 0.71803 0.0
C223 C 0.57477 0.82212 0.7675 0.0
C224 C 0.59337 0.82857 0.66621 0.0
C225 C 0.58672 0.80178 0.6628 0.0
C226 C 0.5755 0.78592 0.71399 0.0
C227 C 0.56969 0.7959 0.76529 0.0
H228 H 0.78514 0.56679 0.62271 0.0
H229 H 0.85804 0.58878 0.71623 0.0
H230 H 0.7664 0.57323 0.71378 0.0
H231 H 0.83955 0.59647 0.808 0.0
H232 H 0.7825 0.56031 0.96986 0.0
H233 H 0.80866 0.56902 0.8797 0.0
H234 H 0.76203 0.59786 0.79177 0.0
H235 H 0.73484 0.58799 0.88272 0.0
C236 C 0.7975 0.57369 0.66253 0.0
C237 C 0.82302 0.57677 0.66216 0.0
C238 C 0.78673 0.57765 0.71505 0.0
C239 C 0.80114 0.58501 0.76919 0.0
C240 C 0.82752 0.5902 0.76768 0.0
C241 C 0.83833 0.58611 0.7148 0.0
C242 C 0.77788 0.5688 0.93164 0.0
C243 C 0.75612 0.57296 0.93348 0.0
C244 C 0.79324 0.57413 0.87971 0.0
C245 C 0.78753 0.58396 0.82754 0.0
C246 C 0.76682 0.58982 0.83054 0.0
C247 C 0.75131 0.58441 0.88292 0.0
H248 H 0.23436 0.77631 0.79716 0.0
H249 H 0.27444 0.85323 0.88101 0.0
H250 H 0.20718 0.75784 0.88561 0.0
H251 H 0.24631 0.83461 0.97043 0.0
H252 H 0.2236 0.78039 0.14188 0.0
H253 H 0.24333 0.806 0.05131 0.0
H254 H 0.17293 0.75354 0.95098 0.0
H255 H 0.15333 0.72739 0.04239 0.0
C256 C 0.23714 0.7895 0.83425 0.0
C257 C 0.25702 0.81631 0.83197 0.0
C258 C 0.22117 0.77884 0.8851 0.0
C259 C 0.22441 0.79456 0.93579 0.0
C260 C 0.2434 0.82175 0.93259 0.0
C261 C 0.25945 0.83253 0.88116 0.0
C262 C 0.21205 0.77457 0.10077 0.0
C263 C 0.18696 0.75159 0.09934 0.0
C264 C 0.22336 0.78946 0.04865 0.0
C265 C 0.21002 0.78179 0.99316 0.0
C266 C 0.18406 0.75985 0.99261 0.0
C267 C 0.17263 0.74497 0.04516 0.0
H268 H 0.41864 0.20379 0.30638 0.0
H269 H 0.44089 0.15829 0.19325 0.0
H270 H 0.4108 0.22348 0.21773 0.0
H271 H 0.43466 0.17899 0.10405 0.0
H272 H 0.41819 0.21462 0.94573 0.0
H273 H 0.41039 0.18719 0.03449 0.0
H274 H 0.43487 0.25576 0.14784 0.0
H275 H 0.44108 0.2826 0.05861 0.0
C276 C 0.42128 0.19758 0.26217 0.0
C277 C 0.43007 0.17927 0.25667 0.0
C278 C 0.41723 0.20923 0.21116 0.0
C279 C 0.42252 0.20343 0.15297 0.0
C280 C 0.42997 0.18392 0.14757 0.0
C281 C 0.43352 0.17188 0.19879 0.0
C282 C 0.42096 0.22355 0.98989 0.0
C283 C 0.42997 0.25071 0.99525 0.0
C284 C 0.41694 0.20791 0.04097 0.0
C285 C 0.42246 0.21909 0.09908 0.0
C286 C 0.43003 0.24607 0.10438 0.0
C287 C 0.43355 0.26162 0.05311 0.0
H288 H 0.11724 0.49062 0.15048 0.0
H289 H 0.15968 0.53981 0.99883 0.0
H290 H 0.10843 0.52514 0.18703 0.0
H291 H 0.15036 0.5738 0.03434 0.0
H292 H 0.1194 0.62644 0.10002 0.0
H293 H 0.11212 0.5839 0.06128 0.0
H294 H 0.14496 0.57237 0.22498 0.0
H295 H 0.15282 0.61489 0.26266 0.0
C296 C 0.12404 0.50846 0.1242 0.0
C297 C 0.13937 0.51272 0.07225 0.0
C298 C 0.11903 0.52816 0.14507 0.0
C299 C 0.12867 0.55206 0.11336 0.0
C300 C 0.14244 0.55547 0.05928 0.0
C301 C 0.14797 0.53612 0.03928 0.0
C302 C 0.12439 0.61443 0.12813 0.0
C303 C 0.13684 0.62392 0.184 0.0
C304 C 0.1203 0.5902 0.10601 0.0
C305 C 0.12797 0.57489 0.14025 0.0
C306 C 0.13861 0.5836 0.19795 0.0
C307 C 0.14326 0.608 0.2193 0.0
H308 H 0.61136 0.1052 0.2416 0.0
H309 H 0.64813 0.18638 0.30046 0.0
H310 H 0.56869 0.0975 0.28161 0.0
H311 H 0.60635 0.17891 0.33917 0.0
H312 H 0.53735 0.15988 0.44547 0.0
H313 H 0.57512 0.15498 0.41987 0.0
H314 H 0.53568 0.11339 0.25716 0.0
H315 H 0.4971 0.11755 0.28437 0.0
C316 C 0.61042 0.12122 0.26374 0.0
C317 C 0.63308 0.14641 0.26775 0.0
C318 C 0.58604 0.11688 0.28617 0.0
C319 C 0.58417 0.13754 0.31396 0.0
C320 C 0.60708 0.16241 0.31906 0.0
C321 C 0.63108 0.16676 0.29632 0.0
C322 C 0.53649 0.14918 0.40488 0.0
C323 C 0.51455 0.1395 0.36633 0.0
C324 C 0.55813 0.1464 0.39014 0.0
C325 C 0.55866 0.13435 0.33578 0.0
C326 C 0.53585 0.12276 0.29938 0.0
C327 C 0.51383 0.1252 0.31477 0.0
H328 H 0.36274 0.54651 0.48561 0.0
H329 H 0.39678 0.49785 0.52958 0.0
H330 H 0.40625 0.58321 0.46362 0.0
H331 H 0.44109 0.53534 0.50737 0.0
H332 H 0.50883 0.61066 0.39058 0.0
H333 H 0.46969 0.56843 0.41882 0.0
H334 H 0.44393 0.6104 0.53496 0.0
H335 H 0.48224 0.65209 0.50589 0.0
C336 C 0.37955 0.54358 0.49033 0.0
C337 C 0.3763 0.51935 0.51038 0.0
C338 C 0.40454 0.5647 0.47793 0.0
C339 C 0.42712 0.56235 0.48537 0.0
C340 C 0.42398 0.53771 0.5018 0.0
C341 C 0.39868 0.5163 0.51431 0.0
C342 C 0.49517 0.6106 0.42361 0.0
C343 C 0.49827 0.63452 0.4457 0.0
C344 C 0.4728 0.58652 0.43959 0.0
C345 C 0.4535 0.58627 0.47791 0.0
C346 C 0.45816 0.61006 0.50423 0.0
C347 C 0.48016 0.63391 0.48794 0.0
H348 H 0.90544 0.51251 0.56684 0.0
H349 H 0.82622 0.46918 0.63842 0.0
H350 H 0.91178 0.47478 0.59018 0.0
H351 H 0.83257 0.43217 0.66145 0.0
H352 H 0.83298 0.36053 0.60134 0.0
H353 H 0.83827 0.40344 0.57705 0.0
H354 H 0.90857 0.44157 0.68688 0.0
H355 H 0.90338 0.39803 0.71101 0.0
C356 C 0.88973 0.49531 0.58895 0.0
C357 C 0.86518 0.49357 0.59996 0.0
C358 C 0.89333 0.47377 0.60207 0.0
C359 C 0.87243 0.45043 0.62631 0.0
C360 C 0.84879 0.44972 0.64158 0.0
C361 C 0.8452 0.47096 0.62849 0.0
C362 C 0.84997 0.37808 0.6191 0.0
C363 C 0.86759 0.37599 0.65856 0.0
C364 C 0.85295 0.40262 0.60536 0.0
C365 C 0.87349 0.4257 0.63116 0.0
C366 C 0.89254 0.424 0.66659 0.0
C367 C 0.88962 0.39918 0.68019 0.0
H368 H 0.38228 0.88988 0.82215 0.0
H369 H 0.39452 0.85457 0.66371 0.0
H370 H 0.42537 0.89905 0.86153 0.0
H371 H 0.43758 0.86425 0.70209 0.0
H372 H 0.519 0.89264 0.77772 0.0
H373 H 0.4846 0.90115 0.73851 0.0
H374 H 0.43611 0.86222 0.89365 0.0
H375 H 0.46995 0.85322 0.93176 0.0
C376 C 0.39454 0.88487 0.79499 0.0
C377 C 0.38505 0.87128 0.74029 0.0
C378 C 0.4191 0.89005 0.81748 0.0
C379 C 0.43476 0.88233 0.78481 0.0
C380 C 0.42608 0.87066 0.72794 0.0
C381 C 0.40136 0.86493 0.70621 0.0
C382 C 0.50126 0.88654 0.80399 0.0
C383 C 0.49694 0.87206 0.85738 0.0
C384 C 0.48161 0.89135 0.78159 0.0
C385 C 0.45774 0.88235 0.81314 0.0
C386 C 0.4544 0.86964 0.86874 0.0
C387 C 0.47368 0.86431 0.89029 0.0
H388 H 0.54651 0.35891 0.94373 0.0
H389 H 0.49774 0.39322 0.90318 0.0
H390 H 0.58083 0.40103 0.98183 0.0
H391 H 0.53283 0.43608 0.9418 0.0
H392 H 0.62617 0.50952 0.94586 0.0
H393 H 0.58431 0.47106 0.91263 0.0
H394 H 0.58326 0.4291 0.07344 0.0
H395 H 0.62467 0.46686 0.1059 0.0
C396 C 0.54307 0.37546 0.94289 0.0
C397 C 0.51929 0.37261 0.92046 0.0
C398 C 0.56275 0.39961 0.96508 0.0
C399 C 0.55941 0.42176 0.96521 0.0
C400 C 0.53584 0.41926 0.9422 0.0
C401 C 0.51578 0.39475 0.92053 0.0
C402 C 0.61651 0.49231 0.97468 0.0
C403 C 0.62886 0.49091 0.02782 0.0
C404 C 0.59262 0.47037 0.95576 0.0
C405 C 0.58088 0.44698 0.99003 0.0
C406 C 0.59212 0.44669 0.04566 0.0
C407 C 0.61584 0.46832 0.06419 0.0
H408 H 0.25049 0.39349 0.70802 0.0
H409 H 0.26736 0.47256 0.66644 0.0
H410 H 0.22266 0.39167 0.79196 0.0
H411 H 0.23881 0.47045 0.74846 0.0
H412 H 0.21233 0.47256 0.93573 0.0
H413 H 0.24022 0.47147 0.85568 0.0
H414 H 0.18222 0.38998 0.81901 0.0
H415 H 0.15488 0.39084 0.9009 0.0
C416 C 0.24779 0.41025 0.71614 0.0
C417 C 0.26116 0.43323 0.68121 0.0
C418 C 0.23188 0.40923 0.76416 0.0
C419 C 0.22889 0.43109 0.77752 0.0
C420 C 0.24132 0.45356 0.7405 0.0
C421 C 0.25744 0.45469 0.6931 0.0
C422 C 0.20577 0.45433 0.91108 0.0
C423 C 0.18144 0.43185 0.92406 0.0
C424 C 0.22158 0.45376 0.86485 0.0
C425 C 0.21317 0.43079 0.83014 0.0
C426 C 0.18932 0.40794 0.84501 0.0
C427 C 0.17365 0.40844 0.89184 0.0
H428 H 0.71891 0.19434 0.04985 0.0
H429 H 0.77491 0.16919 0.09367 0.0
H430 H 0.74687 0.22095 0.96791 0.0
H431 H 0.80411 0.19738 0.01362 0.0
H432 H 0.83913 0.23162 0.82966 0.0
H433 H 0.80993 0.20251 0.90857 0.0
H434 H 0.78558 0.25962 0.94874 0.0
H435 H 0.81324 0.28749 0.86793 0.0
C436 C 0.73753 0.19495 0.04255 0.0
C437 C 0.74489 0.17988 0.07813 0.0
C438 C 0.75368 0.21032 0.99567 0.0
C439 C 0.77793 0.21154 0.98422 0.0
C440 C 0.7854 0.1966 0.02046 0.0
C441 C 0.76887 0.18068 0.06668 0.0
C442 C 0.82721 0.23763 0.8551 0.0
C443 C 0.82819 0.2616 0.84254 0.0
C444 C 0.81071 0.22115 0.90068 0.0
C445 C 0.79532 0.22865 0.93515 0.0
C446 C 0.79657 0.2528 0.92234 0.0
C447 C 0.81255 0.2689 0.87611 0.0
H448 H 0.53254 0.7177 0.22349 0.0
H449 H 0.61403 0.77458 0.26235 0.0
H450 H 0.53279 0.74469 0.14041 0.0
H451 H 0.61395 0.80277 0.18127 0.0
H452 H 0.61313 0.83686 0.99832 0.0
H453 H 0.61362 0.80766 0.07635 0.0
H454 H 0.53228 0.78298 0.11941 0.0
H455 H 0.53148 0.81069 0.03943 0.0
C456 C 0.5504 0.7363 0.21483 0.0
C457 C 0.57323 0.74418 0.24936 0.0
C458 C 0.55054 0.75188 0.16728 0.0
C459 C 0.57335 0.77607 0.15409 0.0
C460 C 0.59616 0.78407 0.18933 0.0
C461 C 0.59617 0.76811 0.23618 0.0
C462 C 0.59532 0.82484 0.02409 0.0
C463 C 0.57225 0.82587 0.01278 0.0
C464 C 0.59564 0.80834 0.06922 0.0
C465 C 0.57301 0.79296 0.10452 0.0
C466 C 0.54993 0.79401 0.0925 0.0
C467 C 0.54947 0.81003 0.04672 0.0
H468 H 0.8184 0.53218 0.38433 0.0
H469 H 0.8421 0.61281 0.42968 0.0
H470 H 0.79149 0.53318 0.30259 0.0
H471 H 0.81358 0.61343 0.34973 0.0
H472 H 0.7771 0.61293 0.16684 0.0
H473 H 0.80735 0.61392 0.24449 0.0
H474 H 0.75206 0.53214 0.28639 0.0
H475 H 0.72309 0.53087 0.20713 0.0
C476 C 0.81743 0.55001 0.37736 0.0
C477 C 0.83209 0.57235 0.4135 0.0
C478 C 0.80189 0.55058 0.33059 0.0
C479 C 0.80004 0.57329 0.3198 0.0
C480 C 0.81477 0.59572 0.35619 0.0
C481 C 0.83088 0.59532 0.40233 0.0
C482 C 0.77173 0.59518 0.19241 0.0
C483 C 0.74795 0.57178 0.18074 0.0
C484 C 0.78887 0.59577 0.23723 0.0
C485 C 0.78225 0.57307 0.27168 0.0
C486 C 0.75825 0.54981 0.2599 0.0
C487 C 0.7415 0.5491 0.21455 0.0
H488 H 0.19523 0.71599 0.37189 0.0
H489 H 0.16911 0.77196 0.337 0.0
H490 H 0.22246 0.7431 0.45428 0.0
H491 H 0.1978 0.80023 0.41764 0.0
H492 H 0.23201 0.8325 0.60274 0.0
H493 H 0.20281 0.80393 0.52317 0.0
H494 H 0.261 0.78188 0.47576 0.0
H495 H 0.28912 0.80901 0.55715 0.0
C496 C 0.19575 0.73443 0.38119 0.0
C497 C 0.18016 0.74196 0.34807 0.0
C498 C 0.21147 0.75007 0.42837 0.0
C499 C 0.21246 0.77396 0.44271 0.0
C500 C 0.19717 0.78174 0.40863 0.0
C501 C 0.18097 0.76574 0.36203 0.0
C502 C 0.23826 0.8212 0.57565 0.0
C503 C 0.26267 0.82278 0.58617 0.0
C504 C 0.22172 0.80508 0.52965 0.0
C505 C 0.22955 0.79064 0.49273 0.0
C506 C 0.254 0.79223 0.50389 0.0
C507 C 0.27022 0.80788 0.55049 0.0
H508 H 0.39214 0.2458 0.72386 0.0
H509 H 0.47212 0.26384 0.75964 0.0
H510 H 0.38954 0.21772 0.63963 0.0
H511 H 0.46928 0.23517 0.67714 0.0
H512 H 0.38922 0.15023 0.52822 0.0
H513 H 0.38843 0.17734 0.61102 0.0
H514 H 0.46878 0.23701 0.56947 0.0
H515 H 0.46981 0.20953 0.48848 0.0
C516 C 0.40896 0.24332 0.71443 0.0
C517 C 0.43242 0.25713 0.74779 0.0
C518 C 0.40747 0.22726 0.66622 0.0
C519 C 0.42938 0.22462 0.65098 0.0
C520 C 0.45233 0.23741 0.68657 0.0
C521 C 0.45388 0.25361 0.73424 0.0
C522 C 0.40653 0.16933 0.53633 0.0
C523 C 0.42967 0.17772 0.50251 0.0
C524 C 0.40609 0.18485 0.58373 0.0
C525 C 0.42873 0.20907 0.5976 0.0
C526 C 0.45128 0.21808 0.56113 0.0
C527 C 0.4518 0.20249 0.51433 0.0
H528 H 0.08208 0.42609 0.87564 0.0
H529 H 0.04367 0.38262 0.03724 0.0
H530 H 0.04036 0.40445 0.82223 0.0
H531 H 1.00131 0.3607 0.98283 0.0
H532 H 0.92848 0.3543 0.88273 0.0
H533 H 0.96998 0.37299 0.93727 0.0
H534 H 0.00712 0.36073 0.78222 0.0
H535 H 0.96513 0.34177 0.72693 0.0
C536 C 0.06468 0.41187 0.90004 0.0
C537 C 0.06629 0.40621 0.96112 0.0
C538 C 0.04073 0.39926 0.86892 0.0
C539 C 0.01749 0.38069 0.8979 0.0
C540 C 0.01889 0.37502 0.9592 0.0
C541 C 0.04311 0.38754 0.99044 0.0
C542 C 0.94545 0.35558 0.85986 0.0
C543 C 0.94344 0.34664 0.80005 0.0
C544 C 0.96923 0.36609 0.89163 0.0
C545 C 0.99187 0.36823 0.86446 0.0
C546 C 0.99003 0.35946 0.80444 0.0
C547 C 0.96603 0.34864 0.77265 0.0
H548 H 0.58427 0.9266 0.06116 0.0
H549 H 0.6251 0.96534 0.89728 0.0
H550 H 0.60504 0.96857 0.11361 0.0
H551 H 0.64616 0.00792 0.95065 0.0
H552 H 0.64977 0.07964 0.04876 0.0
H553 H 0.63199 0.03777 0.99622 0.0
H554 H 0.64841 0.00376 0.15126 0.0
H555 H 0.6665 0.04614 0.2045 0.0
C556 C 0.59776 0.94412 0.03611 0.0
C557 C 0.60287 0.94255 0.97463 0.0
C558 C 0.60987 0.96823 0.06663 0.0
C559 C 0.62734 0.99164 0.03661 0.0
C560 C 0.63264 0.99022 0.97506 0.0
C561 C 0.62065 0.96587 0.94444 0.0
C562 C 0.64956 0.06327 0.0721 0.0
C563 C 0.65949 0.06629 0.13124 0.0
C564 C 0.63959 0.03929 0.04146 0.0
C565 C 0.63897 0.01744 0.06912 0.0
C566 C 0.64853 0.02022 0.12866 0.0
C567 C 0.65883 0.04445 0.15929 0.0
H568 H 0.62993 0.56182 0.17412 0.0
H569 H 0.68533 0.6371 0.09625 0.0
H570 H 0.61022 0.58272 0.23307 0.0
H571 H 0.66572 0.65834 0.15665 0.0
H572 H 0.64123 0.68589 0.33538 0.0
H573 H 0.66163 0.66549 0.27479 0.0
H574 H 0.5845 0.60674 0.21117 0.0
H575 H 0.56439 0.62723 0.27027 0.0
C576 C 0.63763 0.58284 0.16894 0.0
C577 C 0.65896 0.59777 0.13 0.0
C578 C 0.62641 0.59482 0.20296 0.0
C579 C 0.63656 0.62221 0.19999 0.0
C580 C 0.65767 0.63722 0.16029 0.0
C581 C 0.66861 0.62505 0.12507 0.0
C582 C 0.6287 0.66831 0.30935 0.0
C583 C 0.60121 0.65796 0.30805 0.0
C584 C 0.64036 0.6569 0.27399 0.0
C585 C 0.62466 0.63464 0.23781 0.0
C586 C 0.59713 0.62383 0.23852 0.0
C587 C 0.58561 0.6355 0.27264 0.0
H588 H 0.05137 0.68313 0.26351 0.0
H589 H 0.07064 0.62703 0.33989 0.0
H590 H 0.01048 0.66359 0.32388 0.0
H591 H 0.03007 0.60747 0.39887 0.0
H592 H 0.93978 0.56178 0.43536 0.0
H593 H 0.98054 0.58206 0.37684 0.0
H594 H 0.99877 0.65893 0.44152 0.0
H595 H 0.95777 0.63835 0.50148 0.0
C596 C 0.04659 0.66631 0.29206 0.0
C597 C 0.06405 0.65643 0.29654 0.0
C598 C 0.02345 0.6554 0.32725 0.0
C599 C 0.01718 0.63411 0.36649 0.0
C600 C 0.03428 0.62379 0.3691 0.0
C601 C 0.05748 0.63494 0.33507 0.0
C602 C 0.95274 0.58297 0.43812 0.0
C603 C 0.94578 0.59845 0.47363 0.0
C604 C 0.97602 0.5946 0.40432 0.0
C605 C 0.99275 0.62211 0.40405 0.0
C606 C 0.98609 0.63769 0.44038 0.0
C607 C 0.96291 0.62591 0.47541 0.0
H608 H 0.42703 0.07896 0.55561 0.0
H609 H 0.38221 0.04097 0.3951 0.0
H610 H 0.40507 0.03717 0.60908 0.0
H611 H 0.35993 0.99878 0.4493 0.0
H612 H 0.35236 0.92519 0.54325 0.0
H613 H 0.37136 0.96707 0.49117 0.0
H614 H 0.362 0.00369 0.65098 0.0
H615 H 0.34275 0.96113 0.70413 0.0
C616 C 0.41245 0.06165 0.53153 0.0
C617 C 0.40654 0.06335 0.47068 0.0
C618 C 0.39964 0.03768 0.56264 0.0
C619 C 0.38061 0.01458 0.53381 0.0
C620 C 0.37465 0.01618 0.47283 0.0
C621 C 0.3874 0.04033 0.44166 0.0
C622 C 0.35428 0.94208 0.56775 0.0
C623 C 0.34608 0.93972 0.62827 0.0
C624 C 0.365 0.96614 0.53737 0.0
C625 C 0.36808 0.98878 0.5665 0.0
C626 C 0.36001 0.98661 0.62723 0.0
C627 C 0.34897 0.96228 0.65774 0.0
H628 H 0.34947 0.388 0.55914 0.0
H629 H 0.3612 0.43602 0.71675 0.0
H630 H 0.37021 0.36614 0.61208 0.0
H631 H 0.38161 0.41434 0.76895 0.0
H632 H 0.39062 0.34931 0.86592 0.0
H633 H 0.36941 0.37057 0.81249 0.0
H634 H 0.41415 0.3767 0.6526 0.0
H635 H 0.43519 0.35573 0.70536 0.0
C636 C 0.35662 0.39404 0.60468 0.0
C637 C 0.35369 0.41382 0.63343 0.0
C638 C 0.36847 0.38152 0.6351 0.0
C639 C 0.37737 0.38833 0.69509 0.0
C640 C 0.37461 0.40827 0.72332 0.0
C641 C 0.36308 0.42088 0.69292 0.0
C642 C 0.39602 0.35538 0.81957 0.0
C643 C 0.41469 0.35088 0.79021 0.0
C644 C 0.38389 0.36754 0.78886 0.0
C645 C 0.38996 0.37519 0.72799 0.0
C646 C 0.40869 0.37073 0.699 0.0
C647 C 0.42095 0.35889 0.72968 0.0
loop_
_geom_bond_atom_site_label_1
_geom_bond_atom_site_label_2
_geom_bond_distance
_geom_bond_site_symmetry_2
_ccdc_geom_bond_type
Co0 O1 2.216 1_554 S
Co0 O2 2.091 . S
Co0 O4 2.004 . S
Co0 O10 2.021 . S
Co0 O12 2.137 1_554 S
Co0 O13 2.244 1_554 S
O1 Co0 2.216 1_556 S
O1 C8 1.247 . S
O2 Co0 2.091 . S
O2 C8 1.261 1_554 S
C3 O12 1.247 . S
C3 O13 1.272 . S
O4 Co0 2.004 . S
O4 C9 1.259 . S
Co5 O6 2.061 . S
Co5 O11 2.052 . S
Co5 O13 2.135 1_554 S
O6 Co5 2.061 . S
O6 C9 1.235 . S
C7 O10 1.238 . S
C7 O11 1.241 . S
C8 O1 1.247 . S
C8 O2 1.261 1_556 S
C9 O4 1.259 . S
C9 O6 1.235 . S
O10 Co0 2.021 . S
O10 C7 1.238 . S
O11 Co5 2.052 . S
O11 C7 1.241 . S
O12 Co0 2.137 1_556 S
O12 C3 1.247 . S
O13 Co0 2.244 1_556 S
O13 C3 1.272 . S
O13 Co5 2.135 1_556 S
Co14 O15 2.216 . S
Co14 O16 2.091 . S
Co14 O18 2.004 . S
Co14 O24 2.021 . S
Co14 O26 2.137 . S
Co14 O27 2.244 . S
O15 Co14 2.216 . S
O15 C22 1.247 . S
O16 Co14 2.091 . S
O16 C22 1.261 . S
C17 O26 1.247 . S
C17 O27 1.272 . S
O18 Co14 2.004 . S
O18 C23 1.259 . S
Co19 O20 2.061 . S
Co19 O25 2.052 . S
Co19 O27 2.135 . S
O20 Co19 2.061 . S
O20 C23 1.235 . S
C21 O24 1.238 . S
C21 O25 1.241 . S
C22 O15 1.247 . S
C22 O16 1.261 . S
C23 O18 1.259 . S
C23 O20 1.235 . S
O24 Co14 2.021 . S
O24 C21 1.238 . S
O25 Co19 2.052 . S
O25 C21 1.241 . S
O26 Co14 2.137 . S
O26 C17 1.247 . S
O27 Co14 2.244 . S
O27 C17 1.272 . S
O27 Co19 2.135 . S
Co28 O29 2.216 . S
Co28 O30 2.091 . S
Co28 O32 2.004 . S
Co28 O38 2.021 . S
Co28 O40 2.137 . S
Co28 O41 2.244 . S
O29 Co28 2.216 . S
O29 C36 1.247 . S
O30 Co28 2.091 . S
O30 C36 1.261 . S
C31 O40 1.247 . S
C31 O41 1.272 . S
O32 Co28 2.004 . S
O32 C37 1.259 . S
Co33 O34 2.061 . S
Co33 O39 2.052 . S
Co33 O41 2.135 . S
O34 Co33 2.061 . S
O34 C37 1.235 . S
C35 O38 1.238 . S
C35 O39 1.241 . S
C36 O29 1.247 . S
C36 O30 1.261 . S
C37 O32 1.259 . S
C37 O34 1.235 . S
O38 Co28 2.021 . S
O38 C35 1.238 . S
O39 Co33 2.052 . S
O39 C35 1.241 . S
O40 Co28 2.137 . S
O40 C31 1.247 . S
O41 Co28 2.244 . S
O41 C31 1.272 . S
O41 Co33 2.135 . S
Co42 O43 2.216 . S
Co42 O44 2.091 . S
Co42 O46 2.004 . S
Co42 O52 2.021 . S
Co42 O54 2.137 . S
Co42 O55 2.244 . S
O43 Co42 2.216 . S
O43 C50 1.247 . S
O44 Co42 2.091 . S
O44 C50 1.261 . S
C45 O54 1.247 . S
C45 O55 1.272 . S
O46 Co42 2.004 . S
O46 C51 1.259 . S
Co47 O48 2.061 . S
Co47 O53 2.052 . S
Co47 O55 2.135 . S
O48 Co47 2.061 . S
O48 C51 1.235 . S
C49 O52 1.238 . S
C49 O53 1.241 . S
C50 O43 1.247 . S
C50 O44 1.261 . S
C51 O46 1.259 . S
C51 O48 1.235 . S
O52 Co42 2.021 . S
O52 C49 1.238 . S
O53 Co47 2.052 . S
O53 C49 1.241 . S
O54 Co42 2.137 . S
O54 C45 1.247 . S
O55 Co42 2.244 . S
O55 C45 1.272 . S
O55 Co47 2.135 . S
Co56 O57 2.216 . S
Co56 O58 2.091 . S
Co56 O60 2.004 . S
Co56 O66 2.021 . S
Co56 O68 2.137 . S
Co56 O69 2.244 . S
O57 Co56 2.216 . S
O57 C64 1.247 . S
O58 Co56 2.091 . S
O58 C64 1.261 . S
C59 O68 1.247 . S
C59 O69 1.272 . S
O60 Co56 2.004 . S
O60 C65 1.259 . S
Co61 O62 2.061 . S
Co61 O67 2.052 . S
Co61 O69 2.135 . S
O62 Co61 2.061 . S
O62 C65 1.235 . S
C63 O66 1.238 . S
C63 O67 1.241 . S
C64 O57 1.247 . S
C64 O58 1.261 . S
C65 O60 1.259 . S
C65 O62 1.235 . S
O66 Co56 2.021 . S
O66 C63 1.238 . S
O67 Co61 2.052 . S
O67 C63 1.241 . S
O68 Co56 2.137 . S
O68 C59 1.247 . S
O69 Co56 2.244 . S
O69 C59 1.272 . S
O69 Co61 2.135 . S
Co70 O71 2.216 . S
Co70 O72 2.091 . S
Co70 O74 2.004 . S
Co70 O80 2.021 . S
Co70 O82 2.137 . S
Co70 O83 2.244 . S
O71 Co70 2.216 . S
O71 C78 1.247 . S
O72 Co70 2.091 . S
O72 C78 1.261 . S
C73 O82 1.247 . S
C73 O83 1.272 . S
O74 Co70 2.004 . S
O74 C79 1.259 . S
Co75 O76 2.061 . S
Co75 O81 2.052 . S
Co75 O83 2.135 . S
O76 Co75 2.061 . S
O76 C79 1.235 . S
C77 O80 1.238 . S
C77 O81 1.241 . S
C78 O71 1.247 . S
C78 O72 1.261 . S
C79 O74 1.259 . S
C79 O76 1.235 . S
O80 Co70 2.021 . S
O80 C77 1.238 . S
O81 Co75 2.052 . S
O81 C77 1.241 . S
O82 Co70 2.137 . S
O82 C73 1.247 . S
O83 Co70 2.244 . S
O83 C73 1.272 . S
O83 Co75 2.135 . S
Co84 O85 2.216 . S
Co84 O86 2.091 . S
Co84 O88 2.004 . S
Co84 O94 2.021 . S
Co84 O96 2.137 . S
Co84 O97 2.244 . S
O85 Co84 2.216 . S
O85 C92 1.247 . S
O86 Co84 2.091 . S
O86 C92 1.261 . S
C87 O96 1.247 . S
C87 O97 1.272 . S
O88 Co84 2.004 . S
O88 C93 1.259 . S
Co89 O90 2.061 . S
Co89 O95 2.052 . S
Co89 O97 2.135 . S
O90 Co89 2.061 . S
O90 C93 1.235 . S
C91 O94 1.238 . S
C91 O95 1.241 . S
C92 O85 1.247 . S
C92 O86 1.261 . S
C93 O88 1.259 . S
C93 O90 1.235 . S
O94 Co84 2.021 . S
O94 C91 1.238 . S
O95 Co89 2.052 . S
O95 C91 1.241 . S
O96 Co84 2.137 . S
O96 C87 1.247 . S
O97 Co84 2.244 . S
O97 C87 1.272 . S
O97 Co89 2.135 . S
Co98 O99 2.216 . S
Co98 O100 2.091 . S
Co98 O102 2.004 1_554 S
Co98 O108 2.021 . S
Co98 O110 2.137 . S
Co98 O111 2.244 . S
O99 Co98 2.216 . S
O99 C106 1.247 . S
O100 Co98 2.091 . S
O100 C106 1.261 . S
C101 O110 1.247 . S
C101 O111 1.272 . S
O102 Co98 2.004 1_556 S
O102 C107 1.259 . S
Co103 O104 2.061 1_554 S
Co103 O109 2.052 . S
Co103 O111 2.135 . S
O104 Co103 2.061 1_556 S
O104 C107 1.235 . S
C105 O108 1.238 . S
C105 O109 1.241 . S
C106 O99 1.247 . S
C106 O100 1.261 . S
C107 O102 1.259 . S
C107 O104 1.235 . S
O108 Co98 2.021 . S
O108 C105 1.238 . S
O109 Co103 2.052 . S
O109 C105 1.241 . S
O110 Co98 2.137 . S
O110 C101 1.247 . S
O111 Co98 2.244 . S
O111 C101 1.272 . S
O111 Co103 2.135 . S
Co112 O113 2.216 . S
Co112 O114 2.091 . S
Co112 O116 2.004 . S
Co112 O122 2.021 . S
Co112 O124 2.137 . S
Co112 O125 2.244 . S
O113 Co112 2.216 . S
O113 C120 1.247 . S
O114 Co112 2.091 . S
O114 C120 1.261 . S
C115 O124 1.247 . S
C115 O125 1.272 . S
O116 Co112 2.004 . S
O116 C121 1.259 . S
Co117 O118 2.061 . S
Co117 O123 2.052 . S
Co117 O125 2.135 . S
O118 Co117 2.061 . S
O118 C121 1.235 . S
C119 O122 1.238 . S
C119 O123 1.241 . S
C120 O113 1.247 . S
C120 O114 1.261 . S
C121 O116 1.259 . S
C121 O118 1.235 . S
O122 Co112 2.021 . S
O122 C119 1.238 . S
O123 Co117 2.052 . S
O123 C119 1.241 . S
O124 Co112 2.137 . S
O124 C115 1.247 . S
O125 Co112 2.244 . S
O125 C115 1.272 . S
O125 Co117 2.135 . S
Co126 O127 2.216 . S
Co126 O128 2.091 . S
Co126 O130 2.004 . S
Co126 O136 2.021 . S
Co126 O138 2.137 . S
Co126 O139 2.244 . S
O127 Co126 2.216 . S
O127 C134 1.247 . S
O128 Co126 2.091 . S
O128 C134 1.261 . S
C129 O138 1.247 . S
C129 O139 1.272 . S
O130 Co126 2.004 . S
O130 C135 1.259 . S
Co131 O132 2.061 . S
Co131 O137 2.052 . S
Co131 O139 2.135 . S
O132 Co131 2.061 . S
O132 C135 1.235 . S
C133 O136 1.238 . S
C133 O137 1.241 . S
C134 O127 1.247 . S
C134 O128 1.261 . S
C135 O130 1.259 . S
C135 O132 1.235 . S
O136 Co126 2.021 . S
O136 C133 1.238 . S
O137 Co131 2.052 . S
O137 C133 1.241 . S
O138 Co126 2.137 . S
O138 C129 1.247 . S
O139 Co126 2.244 . S
O139 C129 1.272 . S
O139 Co131 2.135 . S
Co140 O141 2.216 . S
Co140 O142 2.091 . S
Co140 O144 2.004 . S
Co140 O150 2.021 . S
Co140 O152 2.137 . S
Co140 O153 2.244 . S
O141 Co140 2.216 . S
O141 C148 1.247 . S
O142 Co140 2.091 . S
O142 C148 1.261 . S
C143 O152 1.247 . S
C143 O153 1.272 . S
O144 Co140 2.004 . S
O144 C149 1.259 . S
Co145 O146 2.061 . S
Co145 O151 2.052 . S
Co145 O153 2.135 . S
O146 Co145 2.061 . S
O146 C149 1.235 . S
C147 O150 1.238 . S
C147 O151 1.241 . S
C148 O141 1.247 . S
C148 O142 1.261 . S
C149 O144 1.259 . S
C149 O146 1.235 . S
O150 Co140 2.021 . S
O150 C147 1.238 . S
O151 Co145 2.052 . S
O151 C147 1.241 . S
O152 Co140 2.137 . S
O152 C143 1.247 . S
O153 Co140 2.244 . S
O153 C143 1.272 . S
O153 Co145 2.135 . S
Co154 O155 2.216 . S
Co154 O156 2.091 . S
Co154 O158 2.004 . S
Co154 O164 2.021 . S
Co154 O166 2.137 . S
Co154 O167 2.244 . S
O155 Co154 2.216 . S
O155 C162 1.247 . S
O156 Co154 2.091 . S
O156 C162 1.261 . S
C157 O166 1.247 . S
C157 O167 1.272 . S
O158 Co154 2.004 . S
O158 C163 1.259 . S
Co159 O160 2.061 . S
Co159 O165 2.052 . S
Co159 O167 2.135 . S
O160 Co159 2.061 . S
O160 C163 1.235 . S
C161 O164 1.238 . S
C161 O165 1.241 . S
C162 O155 1.247 . S
C162 O156 1.261 . S
C163 O158 1.259 . S
C163 O160 1.235 . S
O164 Co154 2.021 . S
O164 C161 1.238 . S
O165 Co159 2.052 . S
O165 C161 1.241 . S
O166 Co154 2.137 . S
O166 C157 1.247 . S
O167 Co154 2.244 . S
O167 C157 1.272 . S
O167 Co159 2.135 . S
H168 C176 0.950 . S
H169 C181 0.950 . S
H170 C178 0.950 . S
H171 C180 0.950 . S
H172 C182 0.950 . S
H173 C184 0.950 . S
H174 C186 0.950 . S
H175 C187 0.950 . S
C176 H168 0.950 . S
C176 C177 1.386 . S
C176 C178 1.391 . S
C177 C176 1.386 . S
C177 C181 1.393 . S
C178 H170 0.950 . S
C178 C176 1.391 . S
C178 C179 1.400 . S
C179 C178 1.400 . S
C179 C180 1.398 . S
C179 C185 1.491 . S
C180 H171 0.950 . S
C180 C179 1.398 . S
C180 C181 1.391 . S
C181 H169 0.950 . S
C181 C177 1.393 . S
C181 C180 1.391 . S
C182 H172 0.950 . S
C182 C183 1.386 . S
C182 C184 1.391 . S
C183 C182 1.386 . S
C183 C187 1.393 . S
C184 H173 0.950 . S
C184 C182 1.391 . S
C184 C185 1.400 . S
C185 C179 1.491 . S
C185 C184 1.400 . S
C185 C186 1.398 . S
C186 H174 0.950 . S
C186 C185 1.398 . S
C186 C187 1.391 . S
C187 H175 0.950 . S
C187 C183 1.393 . S
C187 C186 1.391 . S
H188 C196 0.950 . S
H189 C201 0.950 . S
H190 C198 0.950 . S
H191 C200 0.950 . S
H192 C202 0.950 . S
H193 C204 0.950 . S
H194 C206 0.950 . S
H195 C207 0.950 . S
C196 H188 0.950 . S
C196 C197 1.386 . S
C196 C198 1.391 . S
C197 C196 1.386 . S
C197 C201 1.393 . S
C198 H190 0.950 . S
C198 C196 1.391 . S
C198 C199 1.400 . S
C199 C198 1.400 . S
C199 C200 1.398 . S
C199 C205 1.491 . S
C200 H191 0.950 . S
C200 C199 1.398 . S
C200 C201 1.391 . S
C201 H189 0.950 . S
C201 C197 1.393 . S
C201 C200 1.391 . S
C202 H192 0.950 . S
C202 C203 1.386 . S
C202 C204 1.391 . S
C203 C202 1.386 . S
C203 C207 1.393 . S
C204 H193 0.950 . S
C204 C202 1.391 . S
C204 C205 1.400 . S
C205 C199 1.491 . S
C205 C204 1.400 . S
C205 C206 1.398 . S
C206 H194 0.950 . S
C206 C205 1.398 . S
C206 C207 1.391 . S
C207 H195 0.950 . S
C207 C203 1.393 . S
C207 C206 1.391 . S
H208 C216 0.950 . S
H209 C221 0.950 . S
H210 C218 0.950 . S
H211 C220 0.950 . S
H212 C222 0.950 . S
H213 C224 0.950 . S
H214 C226 0.950 . S
H215 C227 0.950 . S
C216 H208 0.950 . S
C216 C217 1.386 . S
C216 C218 1.391 . S
C217 C216 1.386 . S
C217 C221 1.393 . S
C218 H210 0.950 . S
C218 C216 1.391 . S
C218 C219 1.400 . S
C219 C218 1.400 . S
C219 C220 1.398 . S
C219 C225 1.491 . S
C220 H211 0.950 . S
C220 C219 1.398 . S
C220 C221 1.391 . S
C221 H209 0.950 . S
C221 C217 1.393 . S
C221 C220 1.391 . S
C222 H212 0.950 . S
C222 C223 1.386 . S
C222 C224 1.391 . S
C223 C222 1.386 . S
C223 C227 1.393 . S
C224 H213 0.950 . S
C224 C222 1.391 . S
C224 C225 1.400 . S
C225 C219 1.491 . S
C225 C224 1.400 . S
C225 C226 1.398 . S
C226 H214 0.950 . S
C226 C225 1.398 . S
C226 C227 1.391 . S
C227 H215 0.950 . S
C227 C223 1.393 . S
C227 C226 1.391 . S
H228 C236 0.950 . S
H229 C241 0.950 . S
H230 C238 0.950 . S
H231 C240 0.950 . S
H232 C242 0.950 . S
H233 C244 0.950 . S
H234 C246 0.950 . S
H235 C247 0.950 . S
C236 H228 0.950 . S
C236 C237 1.386 . S
C236 C238 1.391 . S
C237 C236 1.386 . S
C237 C241 1.393 . S
C238 H230 0.950 . S
C238 C236 1.391 . S
C238 C239 1.400 . S
C239 C238 1.400 . S
C239 C240 1.398 . S
C239 C245 1.491 . S
C240 H231 0.950 . S
C240 C239 1.398 . S
C240 C241 1.391 . S
C241 H229 0.950 . S
C241 C237 1.393 . S
C241 C240 1.391 . S
C242 H232 0.950 . S
C242 C243 1.386 . S
C242 C244 1.391 . S
C243 C242 1.386 . S
C243 C247 1.393 . S
C244 H233 0.950 . S
C244 C242 1.391 . S
C244 C245 1.400 . S
C245 C239 1.491 . S
C245 C244 1.400 . S
C245 C246 1.398 . S
C246 H234 0.950 . S
C246 C245 1.398 . S
C246 C247 1.391 . S
C247 H235 0.950 . S
C247 C243 1.393 . S
C247 C246 1.391 . S
H248 C256 0.950 . S
H249 C261 0.950 . S
H250 C258 0.950 . S
H251 C260 0.950 . S
H252 C262 0.950 . S
H253 C264 0.950 1_556 S
H254 C266 0.950 1_556 S
H255 C267 0.950 . S
C256 H248 0.950 . S
C256 C257 1.386 . S
C256 C258 1.391 . S
C257 C256 1.386 . S
C257 C261 1.393 . S
C258 H250 0.950 . S
C258 C256 1.391 . S
C258 C259 1.400 . S
C259 C258 1.400 . S
C259 C260 1.398 . S
C259 C265 1.491 . S
C260 H251 0.950 . S
C260 C259 1.398 . S
C260 C261 1.391 . S
C261 H249 0.950 . S
C261 C257 1.393 . S
C261 C260 1.391 . S
C262 H252 0.950 . S
C262 C263 1.386 . S
C262 C264 1.391 . S
C263 C262 1.386 . S
C263 C267 1.393 . S
C264 H253 0.950 1_554 S
C264 C262 1.391 . S
C264 C265 1.400 1_554 S
C265 C259 1.491 . S
C265 C264 1.400 1_556 S
C265 C266 1.398 1_556 S
C266 H254 0.950 1_554 S
C266 C265 1.398 1_554 S
C266 C267 1.391 . S
C267 H255 0.950 . S
C267 C263 1.393 . S
C267 C266 1.391 . S
H268 C276 0.950 . S
H269 C281 0.950 . S
H270 C278 0.950 . S
H271 C280 0.950 . S
H272 C282 0.950 . S
H273 C284 0.950 . S
H274 C286 0.950 . S
H275 C287 0.950 . S
C276 H268 0.950 . S
C276 C277 1.386 . S
C276 C278 1.391 . S
C277 C276 1.386 . S
C277 C281 1.393 . S
C278 H270 0.950 . S
C278 C276 1.391 . S
C278 C279 1.400 . S
C279 C278 1.400 . S
C279 C280 1.398 . S
C279 C285 1.491 . S
C280 H271 0.950 . S
C280 C279 1.398 . S
C280 C281 1.391 . S
C281 H269 0.950 . S
C281 C277 1.393 . S
C281 C280 1.391 . S
C282 H272 0.950 . S
C282 C283 1.386 1_556 S
C282 C284 1.391 1_556 S
C283 C282 1.386 1_554 S
C283 C287 1.393 . S
C284 H273 0.950 . S
C284 C282 1.391 1_554 S
C284 C285 1.400 . S
C285 C279 1.491 . S
C285 C284 1.400 . S
C285 C286 1.398 . S
C286 H274 0.950 . S
C286 C285 1.398 . S
C286 C287 1.391 . S
C287 H275 0.950 . S
C287 C283 1.393 . S
C287 C286 1.391 . S
H288 C296 0.950 . S
H289 C301 0.950 . S
H290 C298 0.950 . S
H291 C300 0.950 . S
H292 C302 0.950 . S
H293 C304 0.950 . S
H294 C306 0.950 . S
H295 C307 0.950 . S
C296 H288 0.950 . S
C296 C297 1.386 . S
C296 C298 1.391 . S
C297 C296 1.386 . S
C297 C301 1.393 . S
C298 H290 0.950 . S
C298 C296 1.391 . S
C298 C299 1.400 . S
C299 C298 1.400 . S
C299 C300 1.398 . S
C299 C305 1.491 . S
C300 H291 0.950 . S
C300 C299 1.398 . S
C300 C301 1.391 . S
C301 H289 0.950 . S
C301 C297 1.393 . S
C301 C300 1.391 . S
C302 H292 0.950 . S
C302 C303 1.386 . S
C302 C304 1.391 . S
C303 C302 1.386 . S
C303 C307 1.393 . S
C304 H293 0.950 . S
C304 C302 1.391 . S
C304 C305 1.400 . S
C305 C299 1.491 . S
C305 C304 1.400 . S
C305 C306 1.398 . S
C306 H294 0.950 . S
C306 C305 1.398 . S
C306 C307 1.391 . S
C307 H295 0.950 . S
C307 C303 1.393 . S
C307 C306 1.391 . S
H308 C316 0.950 . S
H309 C321 0.950 . S
H310 C318 0.950 . S
H311 C320 0.950 . S
H312 C322 0.950 . S
H313 C324 0.950 . S
H314 C326 0.950 . S
H315 C327 0.950 . S
C316 H308 0.950 . S
C316 C317 1.386 . S
C316 C318 1.391 . S
C317 C316 1.386 . S
C317 C321 1.393 . S
C318 H310 0.950 . S
C318 C316 1.391 . S
C318 C319 1.400 . S
C319 C318 1.400 . S
C319 C320 1.398 . S
C319 C325 1.491 . S
C320 H311 0.950 . S
C320 C319 1.398 . S
C320 C321 1.391 . S
C321 H309 0.950 . S
C321 C317 1.393 . S
C321 C320 1.391 . S
C322 H312 0.950 . S
C322 C323 1.386 . S
C322 C324 1.391 . S
C323 C322 1.386 . S
C323 C327 1.393 . S
C324 H313 0.950 . S
C324 C322 1.391 . S
C324 C325 1.400 . S
C325 C319 1.491 . S
C325 C324 1.400 . S
C325 C326 1.398 . S
C326 H314 0.950 . S
C326 C325 1.398 . S
C326 C327 1.391 . S
C327 H315 0.950 . S
C327 C323 1.393 . S
C327 C326 1.391 . S
H328 C336 0.950 . S
H329 C341 0.950 . S
H330 C338 0.950 . S
H331 C340 0.950 . S
H332 C342 0.950 . S
H333 C344 0.950 . S
H334 C346 0.950 . S
H335 C347 0.950 . S
C336 H328 0.950 . S
C336 C337 1.386 . S
C336 C338 1.391 . S
C337 C336 1.386 . S
C337 C341 1.393 . S
C338 H330 0.950 . S
C338 C336 1.391 . S
C338 C339 1.400 . S
C339 C338 1.400 . S
C339 C340 1.398 . S
C339 C345 1.491 . S
C340 H331 0.950 . S
C340 C339 1.398 . S
C340 C341 1.391 . S
C341 H329 0.950 . S
C341 C337 1.393 . S
C341 C340 1.391 . S
C342 H332 0.950 . S
C342 C343 1.386 . S
C342 C344 1.391 . S
C343 C342 1.386 . S
C343 C347 1.393 . S
C344 H333 0.950 . S
C344 C342 1.391 . S
C344 C345 1.400 . S
C345 C339 1.491 . S
C345 C344 1.400 . S
C345 C346 1.398 . S
C346 H334 0.950 . S
C346 C345 1.398 . S
C346 C347 1.391 . S
C347 H335 0.950 . S
C347 C343 1.393 . S
C347 C346 1.391 . S
H348 C356 0.950 . S
H349 C361 0.950 . S
H350 C358 0.950 . S
H351 C360 0.950 . S
H352 C362 0.950 . S
H353 C364 0.950 . S
H354 C366 0.950 . S
H355 C367 0.950 . S
C356 H348 0.950 . S
C356 C357 1.386 . S
C356 C358 1.391 . S
C357 C356 1.386 . S
C357 C361 1.393 . S
C358 H350 0.950 . S
C358 C356 1.391 . S
C358 C359 1.400 . S
C359 C358 1.400 . S
C359 C360 1.398 . S
C359 C365 1.491 . S
C360 H351 0.950 . S
C360 C359 1.398 . S
C360 C361 1.391 . S
C361 H349 0.950 . S
C361 C357 1.393 . S
C361 C360 1.391 . S
C362 H352 0.950 . S
C362 C363 1.386 . S
C362 C364 1.391 . S
C363 C362 1.386 . S
C363 C367 1.393 . S
C364 H353 0.950 . S
C364 C362 1.391 . S
C364 C365 1.400 . S
C365 C359 1.491 . S
C365 C364 1.400 . S
C365 C366 1.398 . S
C366 H354 0.950 . S
C366 C365 1.398 . S
C366 C367 1.391 . S
C367 H355 0.950 . S
C367 C363 1.393 . S
C367 C366 1.391 . S
H368 C376 0.950 . S
H369 C381 0.950 . S
H370 C378 0.950 . S
H371 C380 0.950 . S
H372 C382 0.950 . S
H373 C384 0.950 . S
H374 C386 0.950 . S
H375 C387 0.950 . S
C376 H368 0.950 . S
C376 C377 1.386 . S
C376 C378 1.391 . S
C377 C376 1.386 . S
C377 C381 1.393 . S
C378 H370 0.950 . S
C378 C376 1.391 . S
C378 C379 1.400 . S
C379 C378 1.400 . S
C379 C380 1.398 . S
C379 C385 1.491 . S
C380 H371 0.950 . S
C380 C379 1.398 . S
C380 C381 1.391 . S
C381 H369 0.950 . S
C381 C377 1.393 . S
C381 C380 1.391 . S
C382 H372 0.950 . S
C382 C383 1.386 . S
C382 C384 1.391 . S
C383 C382 1.386 . S
C383 C387 1.393 . S
C384 H373 0.950 . S
C384 C382 1.391 . S
C384 C385 1.400 . S
C385 C379 1.491 . S
C385 C384 1.400 . S
C385 C386 1.398 . S
C386 H374 0.950 . S
C386 C385 1.398 . S
C386 C387 1.391 . S
C387 H375 0.950 . S
C387 C383 1.393 . S
C387 C386 1.391 . S
H388 C396 0.950 . S
H389 C401 0.950 . S
H390 C398 0.950 1_554 S
H391 C400 0.950 . S
H392 C402 0.950 . S
H393 C404 0.950 . S
H394 C406 0.950 . S
H395 C407 0.950 . S
C396 H388 0.950 . S
C396 C397 1.386 . S
C396 C398 1.391 . S
C397 C396 1.386 . S
C397 C401 1.393 . S
C398 H390 0.950 1_556 S
C398 C396 1.391 . S
C398 C399 1.400 . S
C399 C398 1.400 . S
C399 C400 1.398 . S
C399 C405 1.491 . S
C400 H391 0.950 . S
C400 C399 1.398 . S
C400 C401 1.391 . S
C401 H389 0.950 . S
C401 C397 1.393 . S
C401 C400 1.391 . S
C402 H392 0.950 . S
C402 C403 1.390 . S
C402 C404 1.391 . S
C403 C402 1.390 . S
C403 C407 1.390 1_556 S
C404 H393 0.950 . S
C404 C402 1.391 . S
C404 C405 1.400 . S
C405 C399 1.491 . S
C405 C404 1.400 . S
C405 C406 1.398 1_556 S
C406 H394 0.950 . S
C406 C405 1.398 1_554 S
C406 C407 1.391 . S
C407 H395 0.950 . S
C407 C403 1.390 1_554 S
C407 C406 1.391 . S
H408 C416 0.950 . S
H409 C421 0.950 . S
H410 C418 0.950 . S
H411 C420 0.950 . S
H412 C422 0.950 . S
H413 C424 0.950 . S
H414 C426 0.950 . S
H415 C427 0.950 . S
C416 H408 0.950 . S
C416 C417 1.386 . S
C416 C418 1.391 . S
C417 C416 1.386 . S
C417 C421 1.393 . S
C418 H410 0.950 . S
C418 C416 1.391 . S
C418 C419 1.400 . S
C419 C418 1.400 . S
C419 C420 1.398 . S
C419 C425 1.491 . S
C420 H411 0.950 . S
C420 C419 1.398 . S
C420 C421 1.391 . S
C421 H409 0.950 . S
C421 C417 1.393 . S
C421 C420 1.391 . S
C422 H412 0.950 . S
C422 C423 1.386 . S
C422 C424 1.391 . S
C423 C422 1.386 . S
C423 C427 1.393 . S
C424 H413 0.950 . S
C424 C422 1.391 . S
C424 C425 1.400 . S
C425 C419 1.491 . S
C425 C424 1.400 . S
C425 C426 1.398 . S
C426 H414 0.950 . S
C426 C425 1.398 . S
C426 C427 1.391 . S
C427 H415 0.950 . S
C427 C423 1.393 . S
C427 C426 1.391 . S
H428 C436 0.950 . S
H429 C441 0.950 . S
H430 C438 0.950 . S
H431 C440 0.950 . S
H432 C442 0.950 . S
H433 C444 0.950 . S
H434 C446 0.950 . S
H435 C447 0.950 . S
C436 H428 0.950 . S
C436 C437 1.386 . S
C436 C438 1.391 . S
C437 C436 1.386 . S
C437 C441 1.393 . S
C438 H430 0.950 . S
C438 C436 1.391 . S
C438 C439 1.400 1_554 S
C439 C438 1.400 1_556 S
C439 C440 1.398 . S
C439 C445 1.491 . S
C440 H431 0.950 . S
C440 C439 1.398 . S
C440 C441 1.391 1_556 S
C441 H429 0.950 . S
C441 C437 1.393 . S
C441 C440 1.391 1_554 S
C442 H432 0.950 . S
C442 C443 1.386 . S
C442 C444 1.391 . S
C443 C442 1.386 . S
C443 C447 1.393 . S
C444 H433 0.950 . S
C444 C442 1.391 . S
C444 C445 1.400 . S
C445 C439 1.491 . S
C445 C444 1.400 . S
C445 C446 1.398 . S
C446 H434 0.950 . S
C446 C445 1.398 . S
C446 C447 1.391 . S
C447 H435 0.950 . S
C447 C443 1.393 . S
C447 C446 1.391 . S
H448 C456 0.950 . S
H449 C461 0.950 . S
H450 C458 0.950 . S
H451 C460 0.950 . S
H452 C462 0.950 1_556 S
H453 C464 0.950 . S
H454 C466 0.950 . S
H455 C467 0.950 . S
C456 H448 0.950 . S
C456 C457 1.386 . S
C456 C458 1.391 . S
C457 C456 1.386 . S
C457 C461 1.393 . S
C458 H450 0.950 . S
C458 C456 1.391 . S
C458 C459 1.400 . S
C459 C458 1.400 . S
C459 C460 1.398 . S
C459 C465 1.491 . S
C460 H451 0.950 . S
C460 C459 1.398 . S
C460 C461 1.391 . S
C461 H449 0.950 . S
C461 C457 1.393 . S
C461 C460 1.391 . S
C462 H452 0.950 1_554 S
C462 C463 1.386 . S
C462 C464 1.391 . S
C463 C462 1.386 . S
C463 C467 1.393 . S
C464 H453 0.950 . S
C464 C462 1.391 . S
C464 C465 1.400 . S
C465 C459 1.491 . S
C465 C464 1.400 . S
C465 C466 1.398 . S
C466 H454 0.950 . S
C466 C465 1.398 . S
C466 C467 1.391 . S
C467 H455 0.950 . S
C467 C463 1.393 . S
C467 C466 1.391 . S
H468 C476 0.950 . S
H469 C481 0.950 . S
H470 C478 0.950 . S
H471 C480 0.950 . S
H472 C482 0.950 . S
H473 C484 0.950 . S
H474 C486 0.950 . S
H475 C487 0.950 . S
C476 H468 0.950 . S
C476 C477 1.386 . S
C476 C478 1.391 . S
C477 C476 1.386 . S
C477 C481 1.393 . S
C478 H470 0.950 . S
C478 C476 1.391 . S
C478 C479 1.400 . S
C479 C478 1.400 . S
C479 C480 1.398 . S
C479 C485 1.491 . S
C480 H471 0.950 . S
C480 C479 1.398 . S
C480 C481 1.391 . S
C481 H469 0.950 . S
C481 C477 1.393 . S
C481 C480 1.391 . S
C482 H472 0.950 . S
C482 C483 1.386 . S
C482 C484 1.391 . S
C483 C482 1.386 . S
C483 C487 1.393 . S
C484 H473 0.950 . S
C484 C482 1.391 . S
C484 C485 1.400 . S
C485 C479 1.491 . S
C485 C484 1.400 . S
C485 C486 1.398 . S
C486 H474 0.950 . S
C486 C485 1.398 . S
C486 C487 1.391 . S
C487 H475 0.950 . S
C487 C483 1.393 . S
C487 C486 1.391 . S
H488 C496 0.950 . S
H489 C501 0.950 . S
H490 C498 0.950 . S
H491 C500 0.950 . S
H492 C502 0.950 . S
H493 C504 0.950 . S
H494 C506 0.950 . S
H495 C507 0.950 . S
C496 H488 0.950 . S
C496 C497 1.386 . S
C496 C498 1.391 . S
C497 C496 1.386 . S
C497 C501 1.393 . S
C498 H490 0.950 . S
C498 C496 1.391 . S
C498 C499 1.400 . S
C499 C498 1.400 . S
C499 C500 1.398 . S
C499 C505 1.491 . S
C500 H491 0.950 . S
C500 C499 1.398 . S
C500 C501 1.391 . S
C501 H489 0.950 . S
C501 C497 1.393 . S
C501 C500 1.391 . S
C502 H492 0.950 . S
C502 C503 1.386 . S
C502 C504 1.391 . S
C503 C502 1.386 . S
C503 C507 1.393 . S
C504 H493 0.950 . S
C504 C502 1.391 . S
C504 C505 1.400 . S
C505 C499 1.491 . S
C505 C504 1.400 . S
C505 C506 1.398 . S
C506 H494 0.950 . S
C506 C505 1.398 . S
C506 C507 1.391 . S
C507 H495 0.950 . S
C507 C503 1.393 . S
C507 C506 1.391 . S
H508 C516 0.950 . S
H509 C521 0.950 . S
H510 C518 0.950 . S
H511 C520 0.950 . S
H512 C522 0.950 . S
H513 C524 0.950 . S
H514 C526 0.950 . S
H515 C527 0.950 . S
C516 H508 0.950 . S
C516 C517 1.386 . S
C516 C518 1.391 . S
C517 C516 1.386 . S
C517 C521 1.393 . S
C518 H510 0.950 . S
C518 C516 1.391 . S
C518 C519 1.400 . S
C519 C518 1.400 . S
C519 C520 1.398 . S
C519 C525 1.491 . S
C520 H511 0.950 . S
C520 C519 1.398 . S
C520 C521 1.391 . S
C521 H509 0.950 . S
C521 C517 1.393 . S
C521 C520 1.391 . S
C522 H512 0.950 . S
C522 C523 1.386 . S
C522 C524 1.391 . S
C523 C522 1.386 . S
C523 C527 1.393 . S
C524 H513 0.950 . S
C524 C522 1.391 . S
C524 C525 1.400 . S
C525 C519 1.491 . S
C525 C524 1.400 . S
C525 C526 1.398 . S
C526 H514 0.950 . S
C526 C525 1.398 . S
C526 C527 1.391 . S
C527 H515 0.950 . S
C527 C523 1.393 . S
C527 C526 1.391 . S
H528 C536 0.950 . S
H529 C541 0.950 1_554 S
H530 C538 0.950 . S
H531 C540 0.950 1_655 S
H532 C542 0.950 . S
H533 C544 0.950 . S
H534 C546 0.950 1_455 S
H535 C547 0.950 . S
C536 H528 0.950 . S
C536 C537 1.386 . S
C536 C538 1.391 . S
C537 C536 1.386 . S
C537 C541 1.393 . S
C538 H530 0.950 . S
C538 C536 1.391 . S
C538 C539 1.400 . S
C539 C538 1.400 . S
C539 C540 1.398 . S
C539 C545 1.491 1_455 S
C540 H531 0.950 1_455 S
C540 C539 1.398 . S
C540 C541 1.391 . S
C541 H529 0.950 1_556 S
C541 C537 1.393 . S
C541 C540 1.391 . S
C542 H532 0.950 . S
C542 C543 1.386 . S
C542 C544 1.391 . S
C543 C542 1.386 . S
C543 C547 1.393 . S
C544 H533 0.950 . S
C544 C542 1.391 . S
C544 C545 1.400 . S
C545 C539 1.491 1_655 S
C545 C544 1.400 . S
C545 C546 1.398 . S
C546 H534 0.950 1_655 S
C546 C545 1.398 . S
C546 C547 1.391 . S
C547 H535 0.950 . S
C547 C543 1.393 . S
C547 C546 1.391 . S
H548 C556 0.950 . S
H549 C561 0.950 . S
H550 C558 0.950 . S
H551 C560 0.950 . S
H552 C562 0.950 . S
H553 C564 0.950 . S
H554 C566 0.950 . S
H555 C567 0.950 . S
C556 H548 0.950 . S
C556 C557 1.386 1_554 S
C556 C558 1.391 . S
C557 C556 1.386 1_556 S
C557 C561 1.393 . S
C558 H550 0.950 . S
C558 C556 1.391 . S
C558 C559 1.400 . S
C559 C558 1.400 . S
C559 C560 1.398 1_554 S
C559 C565 1.491 1_565 S
C560 H551 0.950 . S
C560 C559 1.398 1_556 S
C560 C561 1.391 . S
C561 H549 0.950 . S
C561 C557 1.393 . S
C561 C560 1.391 . S
C562 H552 0.950 . S
C562 C563 1.386 . S
C562 C564 1.391 . S
C563 C562 1.386 . S
C563 C567 1.393 . S
C564 H553 0.950 . S
C564 C562 1.391 . S
C564 C565 1.400 . S
C565 C559 1.491 1_545 S
C565 C564 1.400 . S
C565 C566 1.398 . S
C566 H554 0.950 . S
C566 C565 1.398 . S
C566 C567 1.391 . S
C567 H555 0.950 . S
C567 C563 1.393 . S
C567 C566 1.391 . S
H568 C576 0.950 . S
H569 C581 0.950 . S
H570 C578 0.950 . S
H571 C580 0.950 . S
H572 C582 0.950 . S
H573 C584 0.950 . S
H574 C586 0.950 . S
H575 C587 0.950 . S
C576 H568 0.950 . S
C576 C577 1.386 . S
C576 C578 1.391 . S
C577 C576 1.386 . S
C577 C581 1.393 . S
C578 H570 0.950 . S
C578 C576 1.391 . S
C578 C579 1.400 . S
C579 C578 1.400 . S
C579 C580 1.398 . S
C579 C585 1.491 . S
C580 H571 0.950 . S
C580 C579 1.398 . S
C580 C581 1.391 . S
C581 H569 0.950 . S
C581 C577 1.393 . S
C581 C580 1.391 . S
C582 H572 0.950 . S
C582 C583 1.386 . S
C582 C584 1.391 . S
C583 C582 1.386 . S
C583 C587 1.393 . S
C584 H573 0.950 . S
C584 C582 1.391 . S
C584 C585 1.400 . S
C585 C579 1.491 . S
C585 C584 1.400 . S
C585 C586 1.398 . S
C586 H574 0.950 . S
C586 C585 1.398 . S
C586 C587 1.391 . S
C587 H575 0.950 . S
C587 C583 1.393 . S
C587 C586 1.391 . S
H588 C596 0.950 . S
H589 C601 0.950 . S
H590 C598 0.950 . S
H591 C600 0.950 . S
H592 C602 0.950 . S
H593 C604 0.950 . S
H594 C606 0.950 . S
H595 C607 0.950 . S
C596 H588 0.950 . S
C596 C597 1.386 . S
C596 C598 1.391 . S
C597 C596 1.386 . S
C597 C601 1.393 . S
C598 H590 0.950 . S
C598 C596 1.391 . S
C598 C599 1.400 . S
C599 C598 1.400 . S
C599 C600 1.398 . S
C599 C605 1.491 1_455 S
C600 H591 0.950 . S
C600 C599 1.398 . S
C600 C601 1.391 . S
C601 H589 0.950 . S
C601 C597 1.393 . S
C601 C600 1.391 . S
C602 H592 0.950 . S
C602 C603 1.386 . S
C602 C604 1.391 . S
C603 C602 1.386 . S
C603 C607 1.393 . S
C604 H593 0.950 . S
C604 C602 1.391 . S
C604 C605 1.400 . S
C605 C599 1.491 1_655 S
C605 C604 1.400 . S
C605 C606 1.398 . S
C606 H594 0.950 . S
C606 C605 1.398 . S
C606 C607 1.391 . S
C607 H595 0.950 . S
C607 C603 1.393 . S
C607 C606 1.391 . S
H608 C616 0.950 . S
H609 C621 0.950 . S
H610 C618 0.950 . S
H611 C620 0.950 1_565 S
H612 C622 0.950 . S
H613 C624 0.950 . S
H614 C626 0.950 1_545 S
H615 C627 0.950 . S
C616 H608 0.950 . S
C616 C617 1.386 . S
C616 C618 1.391 . S
C617 C616 1.386 . S
C617 C621 1.393 . S
C618 H610 0.950 . S
C618 C616 1.391 . S
C618 C619 1.400 . S
C619 C618 1.400 . S
C619 C620 1.398 . S
C619 C625 1.491 1_545 S
C620 H611 0.950 1_545 S
C620 C619 1.398 . S
C620 C621 1.391 . S
C621 H609 0.950 . S
C621 C617 1.393 . S
C621 C620 1.391 . S
C622 H612 0.950 . S
C622 C623 1.386 . S
C622 C624 1.391 . S
C623 C622 1.386 . S
C623 C627 1.393 . S
C624 H613 0.950 . S
C624 C622 1.391 . S
C624 C625 1.400 . S
C625 C619 1.491 1_565 S
C625 C624 1.400 . S
C625 C626 1.398 . S
C626 H614 0.950 1_565 S
C626 C625 1.398 . S
C626 C627 1.391 . S
C627 H615 0.950 . S
C627 C623 1.393 . S
C627 C626 1.391 . S
H628 C636 0.950 . S
H629 C641 0.950 . S
H630 C638 0.950 . S
H631 C640 0.950 . S
H632 C642 0.950 . S
H633 C644 0.950 . S
H634 C646 0.950 . S
H635 C647 0.950 . S
C636 H628 0.950 . S
C636 C637 1.386 . S
C636 C638 1.391 . S
C637 C636 1.386 . S
C637 C641 1.393 . S
C638 H630 0.950 . S
C638 C636 1.391 . S
C638 C639 1.400 . S
C639 C638 1.400 . S
C639 C640 1.398 . S
C639 C645 1.491 . S
C640 H631 0.950 . S
C640 C639 1.398 . S
C640 C641 1.391 . S
C641 H629 0.950 . S
C641 C637 1.393 . S
C641 C640 1.391 . S
C642 H632 0.950 . S
C642 C643 1.386 . S
C642 C644 1.391 . S
C643 C642 1.386 . S
C643 C647 1.393 . S
C644 H633 0.950 . S
C644 C642 1.391 . S
C644 C645 1.400 . S
C645 C639 1.491 . S
C645 C644 1.400 . S
C645 C646 1.398 . S
C646 H634 0.950 . S
C646 C645 1.398 . S
C646 C647 1.391 . S
C647 H635 0.950 . S
C647 C643 1.393 . S
C647 C646 1.391 . S
C177 C9 1.439 . S
C183 C149 1.431 . S
C197 C163 1.438 . S
C203 C23 1.433 . S
C217 C37 1.425 . S
C223 C93 1.420 . S
C237 C51 1.436 . S
C243 C107 1.436 . S
C257 C65 1.436 . S
C263 C121 1.436 . S
C277 C135 1.422 . S
C283 C79 1.439 1_554 S
C297 C7 1.571 . S
C303 C119 1.586 . S
C317 C21 1.587 . S
C323 C133 1.569 . S
C337 C147 1.579 . S
C343 C35 1.575 . S
C357 C49 1.575 . S
C363 C161 1.582 . S
C377 C63 1.574 . S
C383 C91 1.580 . S
C397 C77 1.570 . S
C403 C105 1.583 1_556 S
C417 C143 1.387 . S
C423 C3 1.388 . S
C437 C17 1.388 . S
C443 C157 1.390 . S
C457 C31 1.388 . S
C463 C87 1.390 1_554 S
C477 C45 1.390 . S
C483 C101 1.389 . S
C497 C115 1.390 . S
C503 C59 1.388 . S
C517 C73 1.390 . S
C523 C129 1.387 . S
C537 C8 1.395 . S
C543 C162 1.394 . S
C557 C92 1.390 . S
C563 C22 1.389 . S
C577 C106 1.389 . S
C583 C36 1.389 . S
C597 C120 1.396 . S
C603 C50 1.396 . S
C617 C134 1.395 . S
C623 C64 1.395 . S
C637 C148 1.395 . S
C643 C78 1.395 . S
