# Generated by pormake.
# Topology smc, (6)-cn, num edge types: 1
# Building blocks:
#     Node 0, Type 0, BuildingBlock: OJICUG_clean_sbu_0, # of connection points: 6
#     Node 1, Type 0, BuildingBlock: OJICUG_clean_sbu_0, # of connection points: 6
#     Node 2, Type 0, BuildingBlock: OJICUG_clean_sbu_0, # of connection points: 6
#     Node 3, Type 0, BuildingBlock: OJICUG_clean_sbu_0, # of connection points: 6
#     Node 4, Type 0, BuildingBlock: OJICUG_clean_sbu_0, # of connection points: 6
#     Node 5, Type 0, BuildingBlock: OJICUG_clean_sbu_0, # of connection points: 6
#     Node 6, Type 0, BuildingBlock: OJICUG_clean_sbu_0, # of connection points: 6
#     Node 7, Type 0, BuildingBlock: OJICUG_clean_sbu_0, # of connection points: 6
#     Node 8, Type 0, BuildingBlock: OJICUG_clean_sbu_0, # of connection points: 6
#     Edge 9, Type (0, 0), BuildingBlock: MIFKUJ_clean_linker_0, # of connection points: 2
#     Edge 10, Type (0, 0), BuildingBlock: MIFKUJ_clean_linker_0, # of connection points: 2
#     Edge 11, Type (0, 0), BuildingBlock: MIFKUJ_clean_linker_0, # of connection points: 2
#     Edge 12, Type (0, 0), BuildingBlock: MIFKUJ_clean_linker_0, # of connection points: 2
#     Edge 13, Type (0, 0), BuildingBlock: MIFKUJ_clean_linker_0, # of connection points: 2
#     Edge 14, Type (0, 0), BuildingBlock: MIFKUJ_clean_linker_0, # of connection points: 2
#     Edge 15, Type (0, 0), BuildingBlock: MIFKUJ_clean_linker_0, # of connection points: 2
#     Edge 16, Type (0, 0), BuildingBlock: MIFKUJ_clean_linker_0, # of connection points: 2
#     Edge 17, Type (0, 0), BuildingBlock: MIFKUJ_clean_linker_0, # of connection points: 2
#     Edge 18, Type (0, 0), BuildingBlock: MIFKUJ_clean_linker_0, # of connection points: 2
#     Edge 19, Type (0, 0), BuildingBlock: MIFKUJ_clean_linker_0, # of connection points: 2
#     Edge 20, Type (0, 0), BuildingBlock: MIFKUJ_clean_linker_0, # of connection points: 2
#     Edge 21, Type (0, 0), BuildingBlock: MIFKUJ_clean_linker_0, # of connection points: 2
#     Edge 22, Type (0, 0), BuildingBlock: MIFKUJ_clean_linker_0, # of connection points: 2
#     Edge 23, Type (0, 0), BuildingBlock: MIFKUJ_clean_linker_0, # of connection points: 2
#     Edge 24, Type (0, 0), BuildingBlock: MIFKUJ_clean_linker_0, # of connection points: 2
#     Edge 25, Type (0, 0), BuildingBlock: MIFKUJ_clean_linker_0, # of connection points: 2
#     Edge 26, Type (0, 0), BuildingBlock: MIFKUJ_clean_linker_0, # of connection points: 2
#     Edge 27, Type (0, 0), BuildingBlock: MIFKUJ_clean_linker_0, # of connection points: 2
#     Edge 28, Type (0, 0), BuildingBlock: MIFKUJ_clean_linker_0, # of connection points: 2
#     Edge 29, Type (0, 0), BuildingBlock: MIFKUJ_clean_linker_0, # of connection points: 2
#     Edge 30, Type (0, 0), BuildingBlock: MIFKUJ_clean_linker_0, # of connection points: 2
#     Edge 31, Type (0, 0), BuildingBlock: MIFKUJ_clean_linker_0, # of connection points: 2
#     Edge 32, Type (0, 0), BuildingBlock: MIFKUJ_clean_linker_0, # of connection points: 2
#     Edge 33, Type (0, 0), BuildingBlock: MIFKUJ_clean_linker_0, # of connection points: 2
#     Edge 34, Type (0, 0), BuildingBlock: MIFKUJ_clean_linker_0, # of connection points: 2
#     Edge 35, Type (0, 0), BuildingBlock: MIFKUJ_clean_linker_0, # of connection points: 2
# Relax obj value: 0.196
# Max RMSD: 0.270
# Mean RMSD: 0.270
data_MOF--net-smc--node1-OJICUG_clean_sbu_0--edge1-MIFKUJ_clean_linker_0
_symmetry_space_group_name_H-M    P1
_symmetry_Int_Tables_number       1
_symmetry_cell_setting            triclinic
loop_
_symmetry_equiv_pos_as_xyz
'x, y, z'
_cell_length_a     39.216962
_cell_length_b     39.250855
_cell_length_c     57.715329
_cell_angle_alpha  89.926773
_cell_angle_beta   90.123102
_cell_angle_gamma 120.06647
loop_
_atom_site_label
_atom_site_type_symbol
_atom_site_fract_x
_atom_site_fract_y
_atom_site_fract_z
_atom_type_partial_charge
Sc0 Sc 0.02871 0.48303 0.97374 0.0
Sc1 Sc 0.00866 0.39044 0.99508 0.0
Sc2 Sc 0.96698 0.44146 0.0221 0.0
O3 O 0.00143 0.43829 0.99697 0.0
C4 C 0.03626 0.53037 0.02011 0.0
C5 C 0.09549 0.46244 0.98739 0.0
C6 C 0.00881 0.40238 0.0498 0.0
C7 C 0.00519 0.40835 0.94161 0.0
C8 C 0.94416 0.47462 0.97753 0.0
C9 C 0.91696 0.35165 0.00538 0.0
O10 O 0.04396 0.5277 -0.00087 0.0
O11 O 0.07136 0.42654 0.99193 0.0
O12 O 0.9908 0.42162 0.04878 0.0
O13 O 0.01629 0.4444 0.94474 0.0
O14 O 0.93895 0.46112 0.99802 0.0
O15 O 0.94661 0.35017 0.99787 0.0
O16 O 0.9749 0.48362 0.96565 0.0
O17 O 0.00076 0.38514 0.95814 0.0
O18 O 0.91976 0.38228 0.01482 0.0
O19 O 0.08501 0.48694 0.98095 0.0
O20 O 0.01069 0.50133 0.03184 0.0
O21 O 0.01718 0.38915 0.03193 0.0
Sc22 Sc 0.51844 0.55444 0.97617 0.0
Sc23 Sc 0.61127 0.62284 -0.00055 0.0
Sc24 Sc 0.55448 0.53028 0.02576 0.0
O25 O 0.5614 0.56917 0.00043 0.0
C26 C 0.46785 0.51621 0.02198 0.0
C27 C 0.54247 0.64211 0.9913 0.0
C28 C 0.59768 0.61058 0.054 0.0
C29 C 0.595 0.60449 0.94548 0.0
C30 C 0.52066 0.4753 0.98087 0.0
C31 C 0.64393 0.56464 0.00915 0.0
O32 O 0.47214 0.52616 0.00083 0.0
O33 O 0.57732 0.65164 0.99728 0.0
O34 O 0.57609 0.57347 0.05283 0.0
O35 O 0.55863 0.58001 0.94788 0.0
O36 O 0.53226 0.48243 0.00176 0.0
O37 O 0.64808 0.59709 0.00187 0.0
O38 O 0.51541 0.4989 0.96822 0.0
O39 O 0.61751 0.62204 0.9625 0.0
O40 O 0.61238 0.53814 0.01871 0.0
O41 O 0.51763 0.6085 0.98304 0.0
O42 O 0.49561 0.51851 0.03457 0.0
O43 O 0.61277 0.63194 0.03624 0.0
Sc44 Sc 0.44508 0.96485 0.98285 0.0
Sc45 Sc 0.37861 0.99485 0.00152 0.0
Sc46 Sc 0.46903 0.02834 0.03043 0.0
O47 O 0.43088 0.9961 0.00492 0.0
C48 C 0.47967 0.95376 0.03042 0.0
C49 C 0.35546 0.90501 0.99544 0.0
C50 C 0.38669 0.9937 0.05654 0.0
C51 C 0.40065 0.99393 0.94872 0.0
C52 C 0.52541 0.04525 0.98666 0.0
C53 C 0.43888 0.08549 0.0119 0.0
O54 O 0.47187 0.94774 0.00904 0.0
O55 O 0.34661 0.93189 0.99762 0.0
O56 O 0.42397 0.01018 0.05612 0.0
O57 O 0.42054 0.97728 0.95301 0.0
O58 O 0.51812 0.05056 0.00735 0.0
O59 O 0.40575 0.05766 0.005 0.0
O60 O 0.50141 0.01615 0.97424 0.0
O61 O 0.38521 0.00424 0.96455 0.0
O62 O 0.46495 0.07963 0.02124 0.0
O63 O 0.39017 0.91183 0.99101 0.0
O64 O 0.47708 0.98001 0.04188 0.0
O65 O 0.36589 0.98539 0.03822 0.0
Sc66 Sc 0.70033 0.84794 0.31662 0.0
Sc67 Sc 0.67398 0.75365 0.33533 0.0
Sc68 Sc 0.64147 0.80909 0.36497 0.0
O69 O 0.67166 0.80311 0.33886 0.0
C70 C 0.71587 0.89094 0.3648 0.0
C71 C 0.76287 0.82259 0.32757 0.0
C72 C 0.6761 0.76004 0.38946 0.0
C73 C 0.67156 0.77396 0.28315 0.0
C74 C 0.6228 0.84848 0.32236 0.0
C75 C 0.58349 0.72394 0.34704 0.0
O76 O 0.71289 0.89201 0.34291 0.0
O77 O 0.73643 0.78623 0.32789 0.0
O78 O 0.6543 0.77544 0.38945 0.0
O79 O 0.69154 0.81078 0.28694 0.0
O80 O 0.62431 0.844 0.34411 0.0
O81 O 0.61177 0.71768 0.34264 0.0
O82 O 0.64577 0.84555 0.30803 0.0
O83 O 0.65872 0.74879 0.29938 0.0
O84 O 0.58857 0.75717 0.35363 0.0
O85 O 0.75503 0.8503 0.32546 0.0
O86 O 0.69457 0.8602 0.37663 0.0
O87 O 0.68953 0.7538 0.37097 0.0
Sc88 Sc 0.15649 0.84812 0.32041 0.0
Sc89 Sc 0.24579 0.92829 0.33876 0.0
Sc90 Sc 0.19766 0.84335 0.37227 0.0
O91 O 0.20059 0.87371 0.34368 0.0
C92 C 0.11165 0.82405 0.36764 0.0
C93 C 0.16798 0.93271 0.32675 0.0
C94 C 0.23759 0.92995 0.39314 0.0
C95 C 0.22929 0.89905 0.28698 0.0
C96 C 0.17146 0.78044 0.33233 0.0
C97 C 0.28536 0.87798 0.35545 0.0
O98 O 0.11286 0.81509 0.34663 0.0
O99 O 0.20525 0.94829 0.3294 0.0
O100 O 0.22421 0.89324 0.39492 0.0
O101 O 0.1928 0.8763 0.29061 0.0
O102 O 0.17069 0.7882 0.35367 0.0
O103 O 0.28768 0.9097 0.34786 0.0
O104 O 0.16919 0.80127 0.31619 0.0
O105 O 0.25351 0.91718 0.30322 0.0
O106 O 0.25401 0.84963 0.3641 0.0
O107 O 0.14464 0.89571 0.32463 0.0
O108 O 0.142 0.83885 0.38051 0.0
O109 O 0.2442 0.94714 0.37367 0.0
Sc110 Sc 0.1457 0.29675 0.31019 0.0
Sc111 Sc 0.08313 0.3287 0.33106 0.0
Sc112 Sc 0.16962 0.35139 0.36027 0.0
O113 O 0.1323 0.32581 0.3337 0.0
C114 C 0.16481 0.27142 0.35744 0.0
C115 C 0.0563 0.23826 0.32221 0.0
C116 C 0.0888 0.32734 0.38539 0.0
C117 C 0.10303 0.33001 0.27806 0.0
C118 C 0.22645 0.36917 0.31824 0.0
C119 C 0.15276 0.41662 0.34146 0.0
O120 O 0.17387 0.2791 0.33618 0.0
O121 O 0.04884 0.26616 0.32505 0.0
O122 O 0.12606 0.34465 0.38507 0.0
O123 O 0.12026 0.31028 0.28099 0.0
O124 O 0.22014 0.36188 0.33975 0.0
O125 O 0.11694 0.39133 0.33672 0.0
O126 O 0.19997 0.35045 0.30312 0.0
O127 O 0.09073 0.34168 0.29482 0.0
O128 O 0.17774 0.40782 0.34961 0.0
O129 O 0.09061 0.24391 0.31754 0.0
O130 O 0.15834 0.29381 0.37028 0.0
O131 O 0.06828 0.31598 0.36706 0.0
Sc132 Sc 0.36648 0.1924 0.64719 0.0
Sc133 Sc 0.36726 0.10722 0.66516 0.0
Sc134 Sc 0.32466 0.14902 0.69939 0.0
O135 O 0.35265 0.14895 0.67041 0.0
C136 C 0.38744 0.23704 0.69442 0.0
C137 C 0.44488 0.18848 0.65171 0.0
C138 C 0.3779 0.11554 0.71938 0.0
C139 C 0.34761 0.12044 0.61383 0.0
C140 C 0.28227 0.17264 0.6609 0.0
C141 C 0.27778 0.06034 0.68276 0.0
O142 O 0.37608 0.23522 0.67362 0.0
O143 O 0.42623 0.1513 0.65512 0.0
O144 O 0.35275 0.12658 0.72122 0.0
O145 O 0.35794 0.15625 0.61728 0.0
O146 O 0.29136 0.17172 0.68198 0.0
O147 O 0.30876 0.06163 0.67477 0.0
O148 O 0.30521 0.17623 0.64433 0.0
O149 O 0.34669 0.09798 0.62994 0.0
O150 O 0.27758 0.09019 0.69147 0.0
O151 O 0.4281 0.20908 0.6498 0.0
O152 O 0.37335 0.20679 0.70734 0.0
O153 O 0.38923 0.10984 0.69993 0.0
Sc154 Sc 0.82086 0.18677 0.63466 0.0
Sc155 Sc 0.909 0.25112 0.66197 0.0
Sc156 Sc 0.84465 0.16046 0.68618 0.0
O157 O 0.8591 0.20003 0.66077 0.0
C158 C 0.76922 0.16261 0.67778 0.0
C159 C 0.84253 0.27259 0.64836 0.0
C160 C 0.89138 0.23926 0.71506 0.0
C161 C 0.90202 0.23718 0.60826 0.0
C162 C 0.81916 0.10913 0.64163 0.0
C163 C 0.93186 0.18525 0.67432 0.0
O164 O 0.77218 0.15159 0.65759 0.0
O165 O 0.87823 0.28197 0.65261 0.0
O166 O 0.87594 0.20225 0.71325 0.0
O167 O 0.86465 0.2195 0.6088 0.0
O168 O 0.81095 0.11178 0.66262 0.0
O169 O 0.94085 0.22117 0.67148 0.0
O170 O 0.82818 0.13693 0.62726 0.0
O171 O 0.92291 0.24678 0.6265 0.0
O172 O 0.89675 0.15718 0.67819 0.0
O173 O 0.81582 0.23777 0.64279 0.0
O174 O 0.79496 0.16859 0.69311 0.0
O175 O 0.90064 0.26162 0.69752 0.0
Sc176 Sc 0.82698 0.64628 0.64212 0.0
Sc177 Sc 0.76054 0.6708 0.66609 0.0
Sc178 Sc 0.85031 0.69917 0.69297 0.0
O179 O 0.81246 0.67276 0.66682 0.0
C180 C 0.85474 0.62355 0.68674 0.0
C181 C 0.73979 0.58284 0.65484 0.0
C182 C 0.76894 0.66478 0.71991 0.0
C183 C 0.77794 0.67605 0.61287 0.0
C184 C 0.90554 0.7228 0.64855 0.0
C185 C 0.82361 0.76012 0.6794 0.0
O186 O 0.86163 0.63312 0.66558 0.0
O187 O 0.72989 0.60901 0.65743 0.0
O188 O 0.80623 0.68478 0.71907 0.0
O189 O 0.79599 0.65686 0.6147 0.0
O190 O 0.90074 0.71836 0.67039 0.0
O191 O 0.78877 0.73255 0.67459 0.0
O192 O 0.87883 0.70157 0.634 0.0
O193 O 0.76688 0.68753 0.63034 0.0
O194 O 0.8515 0.75385 0.68519 0.0
O195 O 0.7751 0.59081 0.65093 0.0
O196 O 0.84655 0.64327 0.70083 0.0
O197 O 0.74769 0.65367 0.70182 0.0
H198 H 0.39972 0.45614 0.00648 0.0
H199 H 0.33541 0.45108 0.01028 0.0
H200 H 0.3829 0.544 0.06112 0.0
H201 H 0.44796 0.54945 0.05715 0.0
H202 H 0.28761 0.46608 0.06055 0.0
H203 H 0.38766 0.58686 0.02494 0.0
H204 H 0.44673 0.6256 0.0013 0.0
H205 H 0.38901 0.55188 0.94252 0.0
H206 H 0.32936 0.5122 0.96608 0.0
H207 H 0.14364 0.52065 0.01699 0.0
H208 H 0.20843 0.53393 0.03126 0.0
H209 H 0.20514 0.44785 0.98359 0.0
H210 H 0.13981 0.43327 0.97009 0.0
H211 H 0.28168 0.53387 0.98919 0.0
H212 H 0.18291 0.41157 0.02672 0.0
H213 H 0.12577 0.37098 0.05173 0.0
H214 H 0.18307 0.44964 0.10868 0.0
H215 H 0.24017 0.49142 0.08377 0.0
C216 C 0.39595 0.47405 0.01936 0.0
C217 C 0.42855 0.50305 0.03159 0.0
C218 C 0.35927 0.47124 0.02146 0.0
C219 C 0.35466 0.49745 0.03577 0.0
C220 C 0.38599 0.52343 0.05007 0.0
C221 C 0.423 0.52634 0.04792 0.0
C222 C 0.32025 0.50252 0.03171 0.0
C223 C 0.2865 0.48182 0.04537 0.0
C224 C 0.31883 0.52262 0.01171 0.0
C225 C 0.35432 0.54628 0.99735 0.0
C226 C 0.38778 0.57848 0.00708 0.0
C227 C 0.42138 0.60068 0.99367 0.0
C228 C 0.42189 0.59111 0.97042 0.0
C229 C 0.38864 0.55926 0.96054 0.0
C230 C 0.35487 0.53692 0.97392 0.0
C231 C 0.15729 0.50531 0.00924 0.0
C232 C 0.13724 0.47634 0.99226 0.0
C233 C 0.19394 0.51258 0.01756 0.0
C234 C 0.21115 0.49152 0.0086 0.0
C235 C 0.19209 0.46419 0.99075 0.0
C236 C 0.15505 0.4561 0.98295 0.0
C237 C 0.24875 0.49717 0.01793 0.0
C238 C 0.28302 0.51941 0.00492 0.0
C239 C 0.25063 0.47895 0.03872 0.0
C240 C 0.21543 0.45508 0.05324 0.0
C241 C 0.18295 0.42078 0.04439 0.0
C242 C 0.15067 0.39744 0.05858 0.0
C243 C 0.15082 0.40783 0.08173 0.0
C244 C 0.183 0.44178 0.09071 0.0
C245 C 0.21526 0.46534 0.07654 0.0
H246 H 0.12621 0.38934 0.09277 0.0
H247 H 0.44796 0.60849 0.96005 0.0
H248 H 0.42946 0.88792 0.05375 0.0
H249 H 0.43615 0.8292 0.05648 0.0
H250 H 0.55594 0.89678 0.03207 0.0
H251 H 0.5491 0.9552 0.02935 0.0
H252 H 0.44625 0.79911 0.01746 0.0
H253 H 0.60775 0.85254 0.04653 0.0
H254 H 0.65501 0.89553 0.07623 0.0
H255 H 0.55946 0.88036 0.11949 0.0
H256 H 0.51159 0.83696 0.09018 0.0
H257 H 0.52333 0.68784 0.96447 0.0
H258 H 0.50781 0.73767 0.97854 0.0
H259 H 0.51474 0.70492 0.04916 0.0
H260 H 0.53195 0.6568 0.03507 0.0
H261 H 0.55411 0.77919 0.04636 0.0
H262 H 0.4227 0.68283 0.02165 0.0
H263 H 0.37076 0.63752 0.99464 0.0
H264 H 0.40105 0.73259 0.94715 0.0
H265 H 0.45245 0.77872 0.97404 0.0
C266 C 0.45789 0.89064 0.05034 0.0
C267 C 0.48907 0.92609 0.04181 0.0
C268 C 0.46153 0.857 0.05156 0.0
C269 C 0.49647 0.85851 0.04438 0.0
C270 C 0.52887 0.89494 0.03801 0.0
C271 C 0.52512 0.92845 0.03663 0.0
C272 C 0.49721 0.82167 0.03976 0.0
C273 C 0.46955 0.79447 0.02405 0.0
C274 C 0.52744 0.81546 0.04836 0.0
C275 C 0.55608 0.84178 0.06603 0.0
C276 C 0.5968 0.85831 0.0624 0.0
C277 C 0.62371 0.88279 0.07916 0.0
C278 C 0.61025 0.89079 0.0997 0.0
C279 C 0.56985 0.87429 0.10353 0.0
C280 C 0.54282 0.84984 0.08681 0.0
C281 C 0.52099 0.69119 0.98292 0.0
C282 C 0.52869 0.66881 -0.00124 0.0
C283 C 0.51192 0.71938 0.991 0.0
C284 C 0.50974 0.72488 0.01497 0.0
C285 C 0.51633 0.70141 0.03064 0.0
C286 C 0.52602 0.67389 0.02261 0.0
C287 C 0.5034 0.7568 0.02389 0.0
C288 C 0.5303 0.78332 0.04017 0.0
C289 C 0.47209 0.76201 0.01611 0.0
C290 C 0.44163 0.73416 -0.00023 0.0
C291 C 0.41851 0.694 0.00536 0.0
C292 C 0.38916 0.66818 0.99009 0.0
C293 C 0.38304 0.68203 0.96908 0.0
C294 C 0.40596 0.72185 0.96338 0.0
C295 C 0.435 0.7479 0.97869 0.0
H296 H 0.36032 0.66196 0.95732 0.0
H297 H 0.63113 0.90968 0.11267 0.0
H298 H 0.36064 0.85418 0.02521 0.0
H299 H 0.3061 0.79266 0.04035 0.0
H300 H 0.22592 0.80389 0.99375 0.0
H301 H 0.27998 0.86681 0.97995 0.0
H302 H 0.19332 0.78336 0.03374 0.0
H303 H 0.26646 0.73661 0.98628 0.0
H304 H 0.32829 0.73712 0.97732 0.0
H305 H 0.33218 0.69927 0.0466 0.0
H306 H 0.27058 0.69882 0.05603 0.0
H307 H 0.04122 0.59723 0.0049 0.0
H308 H 0.09511 0.66352 0.01229 0.0
H309 H 0.1407 0.61858 0.06488 0.0
H310 H 0.0864 0.55147 0.05707 0.0
H311 H 0.19476 0.65777 0.03384 0.0
H312 H 0.11322 0.6887 0.07821 0.0
H313 H 0.05372 0.69111 0.08908 0.0
H314 H 0.06578 0.75965 0.02841 0.0
H315 H 0.12502 0.75721 0.01696 0.0
C316 C 0.33145 0.84294 0.01792 0.0
C317 C 0.32445 0.86468 0.00115 0.0
C318 C 0.30024 0.80784 0.02661 0.0
C319 C 0.26177 0.79315 0.01802 0.0
C320 C 0.25519 0.81454 0.00077 0.0
C321 C 0.28611 0.8502 0.99264 0.0
C322 C 0.22797 0.75584 0.02693 0.0
C323 C 0.19351 0.75582 0.0336 0.0
C324 C 0.22878 0.72021 0.02811 0.0
C325 C 0.26425 0.71807 0.02191 0.0
C326 C 0.28049 0.72831 -0.00044 0.0
C327 C 0.31548 0.72865 0.99442 0.0
C328 C 0.33419 0.7185 0.01145 0.0
C329 C 0.31766 0.70726 0.0335 0.0
C330 C 0.28271 0.70688 0.03873 0.0
C331 C 0.06172 0.60177 0.01879 0.0
C332 C 0.0596 0.56952 0.03059 0.0
C333 C 0.09259 0.63973 0.02305 0.0
C334 C 0.12204 0.64625 0.03924 0.0
C335 C 0.11824 0.61429 0.05239 0.0
C336 C 0.08704 0.57608 0.04814 0.0
C337 C 0.15926 0.68486 0.03928 0.0
C338 C 0.19456 0.6853 0.03441 0.0
C339 C 0.15921 0.72089 0.03987 0.0
C340 C 0.1236 0.72266 0.0467 0.0
C341 C 0.10308 0.7041 0.0671 0.0
C342 C 0.06939 0.7055 0.07338 0.0
C343 C 0.05597 0.7255 0.05944 0.0
C344 C 0.07624 0.74421 0.03921 0.0
C345 C 0.10994 0.74289 0.03284 0.0
H346 H 0.02987 0.72653 0.06432 0.0
H347 H 0.36155 0.7195 0.00762 0.0
H348 H 0.51151 0.15223 0.01133 0.0
H349 H 0.52717 0.21862 0.00031 0.0
H350 H 0.40347 0.1779 0.99068 0.0
H351 H 0.38764 0.11122 0.00103 0.0
H352 H 0.44407 0.2248 0.95616 0.0
H353 H 0.45516 0.23119 0.03932 0.0
H354 H 0.47943 0.22386 0.0774 0.0
H355 H 0.59834 0.30526 0.05689 0.0
H356 H 0.5748 0.31269 0.01856 0.0
H357 H 0.45105 0.41105 0.96858 0.0
H358 H 0.43902 0.34339 0.96697 0.0
H359 H 0.56403 0.38751 0.97272 0.0
H360 H 0.5758 0.45475 0.9748 0.0
H361 H 0.52479 0.33897 0.00725 0.0
H362 H 0.51225 0.33645 0.92476 0.0
H363 H 0.48687 0.34409 0.88716 0.0
H364 H 0.36957 0.25636 0.90675 0.0
H365 H 0.39416 0.24859 0.94462 0.0
C366 C 0.48758 0.15746 0.00712 0.0
C367 C 0.44828 0.12643 0.00724 0.0
C368 C 0.49659 0.19545 0.00077 0.0
C369 C 0.46646 0.20336 0.99485 0.0
C370 C 0.42722 0.1725 0.9951 0.0
C371 C 0.41821 0.13443 0.00118 0.0
C372 C 0.47575 0.24381 0.98849 0.0
C373 C 0.46139 0.24976 0.96743 0.0
C374 C 0.49907 0.27651 0.00293 0.0
C375 C 0.51325 0.27218 0.026 0.0
C376 C 0.48651 0.2473 0.04287 0.0
C377 C 0.50013 0.24317 0.06451 0.0
C378 C 0.54041 0.264 0.06954 0.0
C379 C 0.56715 0.2891 0.05296 0.0
C380 C 0.55369 0.29331 0.03128 0.0
C381 C 0.47593 0.40623 0.96835 0.0
C382 C 0.51431 0.43781 0.97158 0.0
C383 C 0.46911 0.36762 0.96755 0.0
C384 C 0.50065 0.36038 0.96987 0.0
C385 C 0.53927 0.39238 0.97098 0.0
C386 C 0.54602 0.43075 0.97196 0.0
C387 C 0.49324 0.32013 0.97486 0.0
C388 C 0.50779 0.31416 0.99582 0.0
C389 C 0.46993 0.28754 0.96038 0.0
C390 C 0.45502 0.29221 0.93764 0.0
C391 C 0.48098 0.31905 0.92115 0.0
C392 C 0.46675 0.32334 0.89976 0.0
C393 C 0.42662 0.3008 0.89459 0.0
C394 C 0.40065 0.27384 0.91079 0.0
C395 C 0.41473 0.26945 0.93221 0.0
H396 H 0.41566 0.30416 0.87802 0.0
H397 H 0.55089 0.26076 0.0863 0.0
H398 H 0.57899 0.0364 0.96035 0.0
H399 H 0.64803 0.08757 0.95359 0.0
H400 H 0.62581 0.17359 0.98604 0.0
H401 H 0.55756 0.12325 0.99238 0.0
H402 H 0.67947 0.20803 0.95309 0.0
H403 H 0.65526 0.11855 0.01778 0.0
H404 H 0.63227 0.05297 0.03492 0.0
H405 H 0.71374 0.03815 0.99249 0.0
H406 H 0.7368 0.10347 0.97487 0.0
H407 H 0.84502 0.34329 0.01616 0.0
H408 H 0.78008 0.28887 0.00565 0.0
H409 H 0.83391 0.22801 0.97391 0.0
H410 H 0.89894 0.2818 0.98471 0.0
H411 H 0.76897 0.17826 -0.00141 0.0
H412 H 0.8019 0.27667 0.94002 0.0
H413 H 0.82656 0.34517 0.92745 0.0
H414 H 0.7293 0.34545 0.96127 0.0
H415 H 0.70423 0.27704 0.97423 0.0
C416 C 0.58871 0.06654 0.96525 0.0
C417 C 0.56336 0.0759 0.9772 0.0
C418 C 0.6281 0.09567 0.96153 0.0
C419 C 0.64226 0.13426 0.96976 0.0
C420 C 0.61573 0.14411 0.97962 0.0
C421 C 0.57676 0.11523 0.98338 0.0
C422 C 0.68504 0.16315 0.97142 0.0
C423 C 0.69913 0.20145 0.96287 0.0
C424 C 0.71086 0.15458 0.98405 0.0
C425 C 0.69737 0.11559 0.99481 0.0
C426 C 0.66809 0.10118 0.01202 0.0
C427 C 0.65506 0.06408 0.02182 0.0
C428 C 0.67145 0.04135 0.01474 0.0
C429 C 0.701 0.05574 0.99791 0.0
C430 C 0.71405 0.09278 0.988 0.0
C431 C 0.84312 0.31818 0.00718 0.0
C432 C 0.87732 0.31713 0.00119 0.0
C433 C 0.80597 0.28722 0.00102 0.0
C434 C 0.80227 0.25481 0.98856 0.0
C435 C 0.83614 0.25288 0.98337 0.0
C436 C 0.87331 0.28374 0.98958 0.0
C437 C 0.76303 0.22322 0.98072 0.0
C438 C 0.74971 0.18456 0.98818 0.0
C439 C 0.73786 0.23159 0.9673 0.0
C440 C 0.75128 0.27176 0.95819 0.0
C441 C 0.78571 0.29131 0.94473 0.0
C442 C 0.7998 0.33014 0.93757 0.0
C443 C 0.77958 0.34969 0.94362 0.0
C444 C 0.74493 0.33026 0.95658 0.0
C445 C 0.7307 0.29141 0.96379 0.0
H446 H 0.79086 0.37991 0.9383 0.0
H447 H 0.66132 0.01263 0.02234 0.0
H448 H 0.86573 0.42399 0.97819 0.0
H449 H 0.81411 0.44103 0.97413 0.0
H450 H 0.90117 0.55889 0.95368 0.0
H451 H 0.95308 0.54159 0.95754 0.0
H452 H 0.86205 0.5571 0.99281 0.0
H453 H 0.82721 0.50221 0.91756 0.0
H454 H 0.80934 0.45345 0.8863 0.0
H455 H 0.70417 0.3728 0.92288 0.0
H456 H 0.72186 0.42062 0.95468 0.0
H457 H 0.71835 0.61639 0.9941 0.0
H458 H 0.76913 0.60183 0.98194 0.0
H459 H 0.6937 0.47978 0.00011 0.0
H460 H 0.64216 0.49391 0.01207 0.0
H461 H 0.72878 0.4887 0.95745 0.0
H462 H 0.76874 0.53843 0.03479 0.0
H463 H 0.78604 0.58604 0.06672 0.0
H464 H 0.88129 0.67453 0.02643 0.0
H465 H 0.86419 0.62756 0.99412 0.0
C466 C 0.87359 0.45307 0.97193 0.0
C467 C 0.91324 0.4816 0.96825 0.0
C468 C 0.84407 0.46276 0.96955 0.0
C469 C 0.8538 0.50129 0.9637 0.0
C470 C 0.89307 0.52896 0.95816 0.0
C471 C 0.92264 0.51905 0.96022 0.0
C472 C 0.8245 0.51403 0.9676 0.0
C473 C 0.83325 0.54281 0.98461 0.0
C474 C 0.78645 0.49435 0.95752 0.0
C475 C 0.77607 0.46502 0.93865 0.0
C476 C 0.80051 0.47391 0.91911 0.0
C477 C 0.79036 0.44644 0.90125 0.0
C478 C 0.75564 0.41005 0.9026 0.0
C479 C 0.73101 0.40104 0.92183 0.0
C480 C 0.74114 0.4283 0.93981 0.0
C481 C 0.71254 0.58645 0.99574 0.0
C482 C 0.67617 0.55636 0.00424 0.0
C483 C 0.74166 0.57821 0.98874 0.0
C484 C 0.73523 0.53977 0.99019 0.0
C485 C 0.69918 0.50965 -0.00119 0.0
C486 C 0.66995 0.51787 0.00589 0.0
C487 C 0.76635 0.5312 0.98283 0.0
C488 C 0.75784 0.50324 0.96532 0.0
C489 C 0.8046 0.55131 0.99255 0.0
C490 C 0.81489 0.57963 0.01194 0.0
C491 C 0.79314 0.56815 0.03266 0.0
C492 C 0.80295 0.595 0.05084 0.0
C493 C 0.83466 0.63333 0.04858 0.0
C494 C 0.85668 0.64486 0.02814 0.0
C495 C 0.84696 0.61813 0.00989 0.0
H496 H 0.84223 0.65406 0.06268 0.0
H497 H 0.74783 0.38883 0.88875 0.0
H498 H 0.82076 0.88713 0.35012 0.0
H499 H 0.88373 0.89605 0.36445 0.0
H500 H 0.85901 0.78764 0.33117 0.0
H501 H 0.79651 0.77875 0.31686 0.0
H502 H 0.87409 0.7887 0.3778 0.0
H503 H 0.93046 0.87579 0.31093 0.0
H504 H 0.949 0.93432 0.28671 0.0
H505 H 0.00921 0.00962 0.34453 0.0
H506 H 0.99106 0.95155 0.36905 0.0
H507 H 0.03685 0.76866 0.35681 0.0
H508 H 0.97847 0.77512 0.36043 0.0
H509 H 0.04598 0.88361 0.39832 0.0
H510 H 0.1048 0.87703 0.3948 0.0
H511 H 0.01098 0.89336 0.36088 0.0
H512 H 0.96792 0.80724 0.42462 0.0
H513 H 0.95413 0.74937 0.44823 0.0
H514 H 0.87033 0.67301 0.39761 0.0
H515 H 0.88401 0.73034 0.37349 0.0
C516 C 0.82934 0.86582 0.34538 0.0
C517 C 0.80377 0.83225 0.33239 0.0
C518 C 0.86522 0.87087 0.35364 0.0
C519 C 0.87582 0.84229 0.34904 0.0
C520 C 0.85121 0.80988 0.33507 0.0
C521 C 0.81557 0.80488 0.32684 0.0
C522 C 0.91055 0.84363 0.36016 0.0
C523 C 0.90408 0.81155 0.37408 0.0
C524 C 0.94955 0.87456 0.35641 0.0
C525 C 0.95876 0.90932 0.34193 0.0
C526 C 0.94719 0.90482 0.31855 0.0
C527 C 0.95793 0.93793 0.30471 0.0
C528 C 0.98019 0.97567 0.31406 0.0
C529 C 0.99191 0.98041 0.33727 0.0
C530 C 0.98144 0.94741 0.35115 0.0
C531 C 0.03886 0.79307 0.36669 0.0
C532 C 0.07516 0.8222 0.37562 0.0
C533 C 0.00548 0.79674 0.36881 0.0
C534 C 0.00782 0.82977 0.37976 0.0
C535 C 0.04353 0.85777 0.38997 0.0
C536 C 0.07695 0.85379 0.38813 0.0
C537 C 0.97449 0.83722 0.3773 0.0
C538 C 0.98106 0.87104 0.36519 0.0
C539 C 0.93554 0.80797 0.38279 0.0
C540 C 0.92711 0.7732 0.3972 0.0
C541 C 0.94674 0.77811 0.41843 0.0
C542 C 0.93891 0.74538 0.43192 0.0
C543 C 0.91139 0.70754 0.42442 0.0
C544 C 0.89161 0.70235 0.40341 0.0
C545 C 0.89934 0.73497 0.38984 0.0
H546 H 0.90537 0.68224 0.4349 0.0
H547 H 0.98829 0.00118 0.30329 0.0
H548 H 0.21376 0.24158 0.35923 0.0
H549 H 0.19327 0.17152 0.36095 0.0
H550 H 0.07302 0.14252 0.37225 0.0
H551 H 0.09387 0.21297 0.37177 0.0
H552 H 0.1398 0.10342 0.39484 0.0
H553 H 0.03317 0.06776 0.31827 0.0
H554 H 0.01855 0.09915 0.28571 0.0
H555 H 0.13824 0.19448 0.28632 0.0
H556 H 0.15389 0.16265 0.31808 0.0
H557 H 0.09077 0.91257 0.33445 0.0
H558 H 0.06682 0.95778 0.34464 0.0
H559 H 0.18373 0.05665 0.33488 0.0
H560 H 0.2077 0.01254 0.32418 0.0
H561 H 0.09076 0.04441 0.31725 0.0
H562 H 0.19584 0.08644 0.39514 0.0
H563 H 0.21856 0.05393 0.42265 0.0
H564 H 0.10852 0.94588 0.4156 0.0
H565 H 0.08467 0.97805 0.38853 0.0
C566 C 0.18336 0.22034 0.3632 0.0
C567 C 0.15541 0.23234 0.3656 0.0
C568 C 0.17162 0.18044 0.36405 0.0
C569 C 0.13158 0.1521 0.36628 0.0
C570 C 0.10397 0.16411 0.37034 0.0
C571 C 0.11596 0.20422 0.37028 0.0
C572 C 0.11906 0.11054 0.36164 0.0
C573 C 0.12816 0.09003 0.3781 0.0
C574 C 0.10341 0.09305 0.33982 0.0
C575 C 0.09429 0.11344 0.32122 0.0
C576 C 0.05634 0.09539 0.31146 0.0
C577 C 0.04795 0.1131 0.29298 0.0
C578 C 0.07738 0.14896 0.28405 0.0
C579 C 0.11535 0.16692 0.29342 0.0
C580 C 0.12394 0.14907 0.31174 0.0
C581 C 0.11111 0.944 0.33386 0.0
C582 C 0.15129 0.95899 0.32873 0.0
C583 C 0.09738 0.96963 0.3398 0.0
C584 C 0.1238 0.01023 0.34085 0.0
C585 C 0.16312 0.02524 0.33435 0.0
C586 C 0.17674 -6e-05 0.32827 0.0
C587 C 0.11246 0.03797 0.3502 0.0
C588 C 0.09974 0.0565 0.33455 0.0
C589 C 0.12504 0.05379 0.37263 0.0
C590 C 0.13857 0.03464 0.38966 0.0
C591 C 0.17633 0.05585 0.39961 0.0
C592 C 0.18944 0.03744 0.41511 0.0
C593 C 0.16508 0.9978 0.4208 0.0
C594 C 0.12742 0.97654 0.41112 0.0
C595 C 0.11409 0.99486 0.3957 0.0
H596 H 0.17534 0.98357 0.43275 0.0
H597 H 0.0708 0.16277 0.26984 0.0
H598 H 0.97819 0.21329 0.32785 0.0
H599 H 0.92759 0.15006 0.34309 0.0
H600 H 0.01068 0.10878 0.3447 0.0
H601 H 0.06217 0.17254 0.32974 0.0
H602 H 0.92861 0.05512 0.32466 0.0
H603 H -0.00226 0.12436 0.39108 0.0
H604 H 0.03339 0.18292 0.41583 0.0
H605 H 0.92689 0.1866 0.42611 0.0
H606 H 0.89066 0.12851 0.40081 0.0
H607 H 0.77871 0.89035 0.38298 0.0
H608 H 0.84535 0.94775 0.38432 0.0
H609 H 0.79784 0.02387 0.37053 0.0
H610 H 0.73155 0.96632 0.36775 0.0
H611 H 0.87294 0.05485 0.40198 0.0
H612 H 0.81075 0.99434 0.32756 0.0
H613 H 0.77883 0.93968 0.29968 0.0
H614 H 0.87784 0.92153 0.30349 0.0
H615 H 0.9096 0.97498 0.33237 0.0
C616 C 0.98576 0.19069 0.33108 0.0
C617 C 0.0243 0.19793 0.32749 0.0
C618 C 0.95683 0.15467 0.33988 0.0
C619 C 0.96577 0.12517 0.34509 0.0
C620 C 0.0035 0.13137 0.34059 0.0
C621 C 0.03268 0.16764 0.33195 0.0
C622 C 0.93531 0.08826 0.35565 0.0
C623 C 0.91705 0.05455 0.34182 0.0
C624 C 0.92051 0.08802 0.378 0.0
C625 C 0.94153 0.12224 0.39383 0.0
C626 C 0.98192 0.13782 0.39842 0.0
C627 C 0.00225 0.17092 0.41255 0.0
C628 C 0.98244 0.18851 0.42246 0.0
C629 C 0.94218 0.17293 0.41835 0.0
C630 C 0.92171 0.13988 0.4041 0.0
C631 C 0.78241 0.91954 0.3814 0.0
C632 C 0.75037 0.92428 0.37532 0.0
C633 C 0.82041 0.95219 0.38209 0.0
C634 C 0.82629 0.9898 0.37736 0.0
C635 C 0.79367 0.99498 0.37435 0.0
C636 C 0.75588 0.96223 0.37284 0.0
C637 C 0.86559 0.02199 0.37069 0.0
C638 C 0.88531 0.0549 0.38518 0.0
C639 C 0.88208 0.02141 0.34897 0.0
C640 C 0.86214 0.98806 0.33253 0.0
C641 C 0.82531 0.97808 0.32293 0.0
C642 C 0.80733 0.94745 0.30686 0.0
C643 C 0.82635 0.92717 0.29983 0.0
C644 C 0.8633 0.9374 0.30893 0.0
C645 C 0.88111 0.96759 0.3253 0.0
H646 H 0.81245 0.90352 0.28734 0.0
H647 H -0.00163 0.21418 0.43333 0.0
H648 H 0.20912 0.75221 0.35832 0.0
H649 H 0.21688 0.69559 0.35048 0.0
H650 H 0.15428 0.67605 0.28584 0.0
H651 H 0.14691 0.73373 0.29345 0.0
H652 H 0.12309 0.61123 0.31578 0.0
H653 H 0.24634 0.69934 0.28211 0.0
H654 H 0.312 0.75842 0.27809 0.0
H655 H 0.35105 0.72674 0.33974 0.0
H656 H 0.28567 0.66759 0.34421 0.0
H657 H 0.13284 0.44074 0.30277 0.0
H658 H 0.14705 0.50705 0.29318 0.0
H659 H 0.21564 0.55113 0.35586 0.0
H660 H 0.20254 0.48437 0.36517 0.0
H661 H 0.24622 0.60475 0.31943 0.0
H662 H 0.11995 0.52408 0.35643 0.0
H663 H 0.05456 0.46469 0.36075 0.0
H664 H 0.02097 0.48439 0.29338 0.0
H665 H 0.08641 0.54363 0.28854 0.0
C666 C 0.19715 0.73604 0.34234 0.0
C667 C 0.17676 0.74684 0.32665 0.0
C668 C 0.20214 0.70405 0.33775 0.0
C669 C 0.18652 0.68199 0.3175 0.0
C670 C 0.16684 0.6931 0.30147 0.0
C671 C 0.16246 0.72576 0.30588 0.0
C672 C 0.18648 0.64459 0.31498 0.0
C673 C 0.15 0.60975 0.31589 0.0
C674 C 0.2217 0.64297 0.31584 0.0
C675 C 0.26098 0.67898 0.31351 0.0
C676 C 0.26885 0.70508 0.29491 0.0
C677 C 0.30611 0.73851 0.29247 0.0
C678 C 0.33583 0.74611 0.30849 0.0
C679 C 0.32821 0.72055 0.32714 0.0
C680 C 0.29105 0.68705 0.32963 0.0
C681 C 0.15137 0.46468 0.31438 0.0
C682 C 0.16583 0.45755 0.33501 0.0
C683 C 0.15959 0.5025 0.30882 0.0
C684 C 0.18156 0.53371 0.32408 0.0
C685 C 0.19842 0.52726 0.34393 0.0
C686 C 0.19079 0.48926 0.34931 0.0
C687 C 0.18285 0.57164 0.32061 0.0
C688 C 0.21941 0.60635 0.31876 0.0
C689 C 0.14769 0.57335 0.31902 0.0
C690 C 0.10818 0.53802 0.32203 0.0
C691 C 0.0987 0.51559 0.34248 0.0
C692 C 0.06163 0.48198 0.34503 0.0
C693 C 0.03367 0.47071 0.32733 0.0
C694 C 0.04268 0.49311 0.30707 0.0
C695 C 0.07974 0.52672 0.30441 0.0
H696 H 0.00498 0.44467 0.32933 0.0
H697 H 0.36468 0.77192 0.30652 0.0
H698 H 0.23904 0.42962 0.28977 0.0
H699 H 0.29827 0.49516 0.28975 0.0
H700 H 0.35768 0.4513 0.3331 0.0
H701 H 0.29832 0.3865 0.33375 0.0
H702 H 0.356 0.51152 0.3529 0.0
H703 H 0.38574 0.48216 0.27626 0.0
H704 H 0.37105 0.46352 0.23511 0.0
H705 H 0.35722 0.56383 0.2227 0.0
H706 H 0.37136 0.5828 0.26386 0.0
H707 H 0.55731 0.6464 0.35344 0.0
H708 H 0.49223 0.591 0.34423 0.0
H709 H 0.454 0.67136 0.32173 0.0
H710 H 0.51939 0.72743 0.33135 0.0
H711 H 0.43803 0.60133 0.29 0.0
H712 H 0.41485 0.63427 0.36555 0.0
H713 H 0.43097 0.65379 0.40647 0.0
H714 H 0.4316 0.5467 0.42074 0.0
H715 H 0.41626 0.52692 0.37977 0.0
C716 C 0.26537 0.43373 0.29845 0.0
C717 C 0.26441 0.40325 0.31173 0.0
C718 C 0.29907 0.47119 0.29855 0.0
C719 C 0.33222 0.47817 0.31164 0.0
C720 C 0.33228 0.44663 0.32309 0.0
C721 C 0.29856 0.40957 0.32329 0.0
C722 C 0.365 0.51868 0.31595 0.0
C723 C 0.37401 0.531 0.3391 0.0
C724 C 0.38731 0.54488 0.29794 0.0
C725 C 0.37916 0.53364 0.27318 0.0
C726 C 0.37926 0.50006 0.26479 0.0
C727 C 0.3711 0.48948 0.24146 0.0
C728 C 0.36307 0.5124 0.22631 0.0
C729 C 0.36337 0.54606 0.23446 0.0
C730 C 0.37149 0.55676 0.25778 0.0
C731 C 0.53497 0.65231 0.34672 0.0
C732 C 0.54317 0.69109 0.34327 0.0
C733 C 0.49794 0.62071 0.3414 0.0
C734 C 0.4686 0.62726 0.33224 0.0
C735 C 0.47648 0.66591 0.32873 0.0
C736 C 0.51353 0.69775 0.33446 0.0
C737 C 0.4297 0.593 0.32688 0.0
C738 C 0.41944 0.58197 0.30367 0.0
C739 C 0.40599 0.56785 0.34479 0.0
C740 C 0.41469 0.57927 0.36954 0.0
C741 C 0.41877 0.61505 0.37737 0.0
C742 C 0.42771 0.62614 0.40058 0.0
C743 C 0.43236 0.60152 0.4162 0.0
C744 C 0.42799 0.56574 0.40863 0.0
C745 C 0.41914 0.55456 0.38541 0.0
H746 H 0.43928 0.61014 0.43417 0.0
H747 H 0.35673 0.50413 0.20826 0.0
H748 H 0.36148 0.9342 0.34623 0.0
H749 H 0.4153 0.92382 0.33466 0.0
H750 H 0.33994 0.79849 0.34348 0.0
H751 H 0.28622 0.80869 0.35558 0.0
H752 H 0.40788 0.81517 0.35622 0.0
H753 H 0.36083 0.84296 0.28853 0.0
H754 H 0.33764 0.87648 0.26204 0.0
H755 H 0.45218 0.98018 0.26332 0.0
H756 H 0.47592 0.94761 0.29017 0.0
H757 H 0.55752 0.79474 0.29986 0.0
H758 H 0.49507 0.79494 0.29744 0.0
H759 H 0.55226 0.91274 0.32526 0.0
H760 H 0.61429 0.91206 0.32836 0.0
H761 H 0.48565 0.88777 0.28705 0.0
H762 H 0.51961 0.85245 0.36464 0.0
H763 H 0.53854 0.81027 0.38646 0.0
H764 H 0.43908 0.70702 0.35824 0.0
H765 H 0.42036 0.74871 0.33578 0.0
C766 C 0.35644 0.90444 0.3459 0.0
C767 C 0.31944 0.87227 0.35163 0.0
C768 C 0.38714 0.89847 0.33904 0.0
C769 C 0.38128 0.8602 0.33727 0.0
C770 C 0.34502 0.8282 0.3442 0.0
C771 C 0.31437 0.83415 0.3513 0.0
C772 C 0.41314 0.85396 0.32814 0.0
C773 C 0.42429 0.83058 0.34087 0.0
C774 C 0.43413 0.87298 0.30768 0.0
C775 C 0.42011 0.89289 0.29152 0.0
C776 C 0.38102 0.87303 0.28331 0.0
C777 C 0.36777 0.89185 0.26822 0.0
C778 C 0.39342 0.93043 0.26103 0.0
C779 C 0.43236 0.95028 0.26892 0.0
C780 C 0.44574 0.93165 0.28406 0.0
C781 C 0.55701 0.82126 0.30441 0.0
C782 C 0.59047 0.85363 0.31398 0.0
C783 C 0.52143 0.82129 0.30311 0.0
C784 C 0.5193 0.8539 0.31112 0.0
C785 C 0.5536 0.88755 0.31875 0.0
C786 C 0.58892 0.8872 0.32049 0.0
C787 C 0.48082 0.85064 0.31572 0.0
C788 C 0.4685 0.87205 0.30213 0.0
C789 C 0.45768 0.82844 0.33471 0.0
C790 C 0.46846 0.80359 0.34869 0.0
C791 C 0.50185 0.82074 0.36311 0.0
C792 C 0.51262 0.79694 0.37552 0.0
C793 C 0.48998 0.75597 0.37379 0.0
C794 C 0.45654 0.73873 0.35963 0.0
C795 C 0.44583 0.76242 0.34706 0.0
H796 H 0.49838 0.73756 0.38335 0.0
H797 H 0.38316 0.94492 0.2493 0.0
H798 H 0.77813 0.22443 0.70445 0.0
H799 H 0.73835 0.25671 0.70176 0.0
H800 H 0.65881 0.16633 0.65471 0.0
H801 H 0.69836 0.13449 0.65703 0.0
H802 H 0.68555 0.24154 0.63765 0.0
H803 H 0.63478 0.17219 0.71559 0.0
H804 H 0.6522 0.16732 0.75615 0.0
H805 H 0.70426 0.29244 0.76408 0.0
H806 H 0.68693 0.29788 0.72361 0.0
H807 H 0.48896 0.16117 0.6322 0.0
H808 H 0.55905 0.18603 0.63756 0.0
H809 H 0.56922 0.28367 0.67731 0.0
H810 H 0.49819 0.25885 0.67167 0.0
H811 H 0.60124 0.24537 0.70032 0.0
H812 H 0.6188 0.30447 0.6292 0.0
H813 H 0.60904 0.31707 0.58866 0.0
H814 H 0.62991 0.22492 0.5661 0.0
H815 H 0.63946 0.21142 0.60652 0.0
C816 C 0.75144 0.21085 0.69413 0.0
C817 C 0.74111 0.17678 0.68103 0.0
C818 C 0.72903 0.22957 0.69244 0.0
C819 C 0.69598 0.21427 0.67779 0.0
C820 C 0.68459 0.17907 0.66582 0.0
C821 C 0.70693 0.1606 0.66736 0.0
C822 C 0.67278 0.23423 0.67412 0.0
C823 C 0.66709 0.24262 0.65126 0.0
C824 C 0.65144 0.23923 0.69216 0.0
C825 C 0.65958 0.2354 0.71672 0.0
C826 C 0.64969 0.19855 0.72609 0.0
C827 C 0.6596 0.19572 0.74902 0.0
C828 C 0.67932 0.22955 0.76269 0.0
C829 C 0.68889 0.26625 0.75351 0.0
C830 C 0.67892 0.26921 0.73062 0.0
C831 C 0.50626 0.1885 0.64157 0.0
C832 C 0.48826 0.20813 0.65144 0.0
C833 C 0.54639 0.20283 0.64457 0.0
C834 C 0.56947 0.23696 0.6577 0.0
C835 C 0.55193 0.25753 0.66698 0.0
C836 C 0.51156 0.24347 0.66362 0.0
C837 C 0.61055 0.24759 0.66335 0.0
C838 C 0.62026 0.24571 0.6866 0.0
C839 C 0.6364 0.24973 0.64562 0.0
C840 C 0.63032 0.25722 0.62107 0.0
C841 C 0.62139 0.28688 0.61565 0.0
C842 C 0.61582 0.29415 0.59265 0.0
C843 C 0.61897 0.27189 0.5748 0.0
C844 C 0.62766 0.24227 0.57994 0.0
C845 C 0.63331 0.2349 0.60293 0.0
H846 H 0.61461 0.27754 0.557 0.0
H847 H 0.6872 0.22734 0.78039 0.0
H848 H 0.89152 0.34874 0.66087 0.0
H849 H 0.87384 0.3968 0.67317 0.0
H850 H 0.75156 0.3152 0.65838 0.0
H851 H 0.76895 0.26583 0.64591 0.0
H852 H 0.78757 0.39989 0.6416 0.0
H853 H 0.76331 0.32639 0.71172 0.0
H854 H 0.77955 0.28691 0.7381 0.0
H855 H 0.89286 0.38798 0.75162 0.0
H856 H 0.87738 0.42798 0.72525 0.0
H857 H 0.79932 0.56729 0.7152 0.0
H858 H 0.77878 0.49684 0.71437 0.0
H859 H 0.87806 0.52276 0.6708 0.0
H860 H 0.89825 0.59248 0.67129 0.0
H861 H 0.82478 0.45119 0.72188 0.0
H862 H 0.84675 0.48359 0.62829 0.0
H863 H 0.8361 0.52015 0.59689 0.0
H864 H 0.72683 0.49582 0.62797 0.0
H865 H 0.73788 0.46052 0.66009 0.0
C866 C 0.8608 0.34074 0.65997 0.0
C867 C 0.83161 0.30313 0.65256 0.0
C868 C 0.85077 0.36829 0.66718 0.0
C869 C 0.81139 0.35912 0.66714 0.0
C870 C 0.78209 0.32246 0.65876 0.0
C871 C 0.79213 0.29448 0.65157 0.0
C872 C 0.80233 0.38909 0.67569 0.0
C873 C 0.79425 0.41036 0.65934 0.0
C874 C 0.81111 0.40266 0.69884 0.0
C875 C 0.81917 0.38008 0.7165 0.0
C876 C 0.79159 0.34018 0.72043 0.0
C877 C 0.80072 0.31771 0.73528 0.0
C878 C 0.83738 0.33487 0.74626 0.0
C879 C 0.86457 0.37475 0.74296 0.0
C880 C 0.85554 0.39739 0.72817 0.0
C881 C 0.81762 0.55805 0.7063 0.0
C882 C 0.85029 0.58521 0.69323 0.0
C883 C 0.80561 0.51783 0.70562 0.0
C884 C 0.82645 0.50475 0.69206 0.0
C885 C 0.86124 0.53235 0.68101 0.0
C886 C 0.87297 0.57218 0.6815 0.0
C887 C 0.81115 0.46249 0.68754 0.0
C888 C 0.81548 0.43942 0.70456 0.0
C889 C 0.79875 0.44702 0.665 0.0
C890 C 0.79317 0.46984 0.64654 0.0
C891 C 0.82069 0.48649 0.62851 0.0
C892 C 0.81473 0.50715 0.6107 0.0
C893 C 0.781 0.51068 0.6106 0.0
C894 C 0.75328 0.4937 0.62835 0.0
C895 C 0.75952 0.47368 0.64643 0.0
H896 H 0.77621 0.52635 0.59669 0.0
H897 H 0.84469 0.31725 0.75737 0.0
H898 H 0.74508 0.528 0.68111 0.0
H899 H 0.68992 0.46561 0.69534 0.0
H900 H 0.60961 0.48458 0.6535 0.0
H901 H 0.6644 0.54683 0.63964 0.0
H902 H 0.5907 0.47443 0.69993 0.0
H903 H 0.63335 0.41386 0.64086 0.0
H904 H 0.67993 0.39657 0.62326 0.0
H905 H 0.68316 0.34043 0.68644 0.0
H906 H 0.63683 0.35769 0.70452 0.0
H907 H 0.40861 0.31093 0.68038 0.0
H908 H 0.47398 0.36866 0.68298 0.0
H909 H 0.51232 0.30451 0.72635 0.0
H910 H 0.44646 0.24603 0.72353 0.0
H911 H 0.56087 0.33668 0.69079 0.0
H912 H 0.51193 0.38566 0.74796 0.0
H913 H 0.46573 0.40133 0.76761 0.0
H914 H 0.47684 0.47894 0.71198 0.0
H915 H 0.52264 0.46333 0.69178 0.0
C916 C 0.71576 0.51812 0.67452 0.0
C917 C 0.70887 0.54191 0.65922 0.0
C918 C 0.68431 0.48263 0.68269 0.0
C919 C 0.64568 0.47061 0.67554 0.0
C920 C 0.63921 0.49342 0.65928 0.0
C921 C 0.67046 0.52883 0.65129 0.0
C922 C 0.61122 0.43674 0.68646 0.0
C923 C 0.58405 0.44423 0.69786 0.0
C924 C 0.60392 0.39765 0.68509 0.0
C925 C 0.63212 0.38772 0.67419 0.0
C926 C 0.64434 0.39827 0.65111 0.0
C927 C 0.67059 0.38832 0.64102 0.0
C928 C 0.68474 0.3677 0.65379 0.0
C929 C 0.6724 0.35666 0.67663 0.0
C930 C 0.6461 0.36647 0.68679 0.0
C931 C 0.43053 0.30949 0.69114 0.0
C932 C 0.42241 0.27406 0.7018 0.0
C933 C 0.46796 0.34258 0.69266 0.0
C934 C 0.49811 0.34104 0.70495 0.0
C935 C 0.48946 0.30639 0.71685 0.0
C936 C 0.45172 0.27317 0.71546 0.0
C937 C 0.53916 0.37424 0.70281 0.0
C938 C 0.56783 0.36683 0.69333 0.0
C939 C 0.54829 0.41356 0.70626 0.0
C940 C 0.52071 0.4232 0.71831 0.0
C941 C 0.50435 0.40588 0.73982 0.0
C942 C 0.47824 0.41479 0.75108 0.0
C943 C 0.46834 0.4411 0.74105 0.0
C944 C 0.48457 0.45859 0.71974 0.0
C945 C 0.51068 0.44979 0.7084 0.0
H946 H 0.44812 0.44794 0.74979 0.0
H947 H 0.70498 0.35997 0.64593 0.0
H948 H 0.77018 0.78464 0.67531 0.0
H949 H 0.78185 0.84855 0.66256 0.0
H950 H 0.90706 0.8926 0.66153 0.0
H951 H 0.89564 0.82802 0.67452 0.0
H952 H 0.88761 0.94643 0.67944 0.0
H953 H 0.86177 0.87111 0.61162 0.0
H954 H 0.82912 0.81439 0.58513 0.0
H955 H 0.72329 0.82119 0.58724 0.0
H956 H 0.75492 0.8774 0.61415 0.0
H957 H 0.88181 0.10917 0.62173 0.0
H958 H 0.89525 0.05426 0.6225 0.0
H959 H 0.77813 0.9774 0.64859 0.0
H960 H 0.76555 0.03253 0.64914 0.0
H961 H 0.81155 0.94705 0.61074 0.0
H962 H 0.83827 0.01648 0.68498 0.0
H963 H 0.8734 0.07296 0.71129 0.0
H964 H 0.98251 0.07697 0.69632 0.0
H965 H 0.94834 0.0217 0.66893 0.0
C966 C 0.80033 0.80787 0.67261 0.0
C967 C 0.83196 0.80095 0.67563 0.0
C968 C 0.8069 0.84439 0.66516 0.0
C969 C 0.8452 0.87492 0.66045 0.0
C970 C 0.87721 0.86915 0.66478 0.0
C971 C 0.87064 0.83233 0.67229 0.0
C972 C 0.8508 0.91246 0.65095 0.0
C973 C 0.87192 0.94693 0.66405 0.0
C974 C 0.83041 0.91301 0.6308 0.0
C975 C 0.81077 0.87851 0.61501 0.0
C976 C 0.8314 0.86029 0.60665 0.0
C977 C 0.81308 0.82824 0.59153 0.0
C978 C 0.7742 0.81428 0.58449 0.0
C979 C 0.75344 0.83211 0.59269 0.0
C980 C 0.77156 0.86409 0.60787 0.0
C981 C 0.85861 0.08019 0.62691 0.0
C982 C 0.82262 0.07477 0.63531 0.0
C983 C 0.86643 0.04907 0.62752 0.0
C984 C 0.83778 0.01207 0.63583 0.0
C985 C 0.80058 0.00586 0.64219 0.0
C986 C 0.79332 0.03718 0.64237 0.0
C987 C 0.8468 0.98026 0.63981 0.0
C988 C 0.82833 0.94686 0.62566 0.0
C989 C 0.87007 0.98093 0.65881 0.0
C990 C 0.89082 0.0155 0.67439 0.0
C991 C 0.8699 0.03004 0.68674 0.0
C992 C 0.88964 0.06175 0.70196 0.0
C993 C 0.9302 0.07864 0.7054 0.0
C994 C 0.95113 0.06395 0.69356 0.0
C995 C 0.93163 0.03263 0.67804 0.0
H996 H 0.94541 0.1031 0.71725 0.0
H997 H 0.76021 0.78977 0.57262 0.0
H998 H 0.92376 0.79822 0.64721 0.0
H999 H 0.98998 0.85548 0.64686 0.0
H1000 H 0.03832 0.77977 0.63371 0.0
H1001 H 0.97158 0.72213 0.63494 0.0
H1002 H 0.07162 0.82234 0.66983 0.0
H1003 H 0.04991 0.85463 0.59345 0.0
H1004 H 0.01425 0.86591 0.56185 0.0
H1005 H 0.01322 0.95811 0.60127 0.0
H1006 H 0.04831 0.94692 0.63322 0.0
H1007 H 0.26665 0.98915 0.66816 0.0
H1008 H 0.20457 0.93071 0.65783 0.0
H1009 H 0.1411 0.98849 0.67929 0.0
H1010 H 0.20301 0.04758 0.68931 0.0
H1011 H 0.11927 0.95422 0.63514 0.0
H1012 H 0.13836 0.91882 0.71216 0.0
H1013 H 0.17544 0.9081 0.7431 0.0
H1014 H 0.18191 0.82098 0.70142 0.0
H1015 H 0.14537 0.83163 0.67006 0.0
C1016 C 0.94849 0.79413 0.6433 0.0
C1017 C 0.94288 0.75616 0.64074 0.0
C1018 C 0.98637 0.82684 0.64306 0.0
C1019 C 0.01931 0.82211 0.64009 0.0
C1020 C 0.01338 0.78418 0.63595 0.0
C1021 C 0.97535 0.75134 0.6364 0.0
C1022 C 0.05945 0.85572 0.64476 0.0
C1023 C 0.08238 0.85092 0.66179 0.0
C1024 C 0.07317 0.89337 0.63483 0.0
C1025 C 0.05172 0.89992 0.61573 0.0
C1026 C 0.04186 0.87714 0.59543 0.0
C1027 C 0.02177 0.88354 0.57744 0.0
C1028 C 0.01147 0.91271 0.57955 0.0
C1029 C 0.02126 0.93557 0.59964 0.0
C1030 C 0.04135 0.92929 0.61766 0.0
C1031 C 0.23949 0.98944 0.67093 0.0
C1032 C 0.23991 0.02322 0.67955 0.0
C1033 C 0.20403 0.95594 0.66498 0.0
C1034 C 0.16828 0.95545 0.66764 0.0
C1035 C 0.16842 0.98856 0.67685 0.0
C1036 C 0.20386 0.02213 0.68282 0.0
C1037 C 0.13079 0.92069 0.6603 0.0
C1038 C 0.10851 0.92542 0.64287 0.0
C1039 C 0.11774 0.88292 0.66977 0.0
C1040 C 0.13951 0.87633 0.68866 0.0
C1041 C 0.14799 0.89762 0.70951 0.0
C1042 C 0.16885 0.89151 0.72714 0.0
C1043 C 0.18111 0.86396 0.7242 0.0
C1044 C 0.17244 0.84237 0.70365 0.0
C1045 C 0.15164 0.84841 0.68595 0.0
H1046 H 0.19726 0.85927 0.73787 0.0
H1047 H 0.9959 0.9176 0.56561 0.0
H1048 H 0.22387 0.15561 0.69202 0.0
H1049 H 0.15905 0.14686 0.68511 0.0
H1050 H 0.18513 0.16965 0.61228 0.0
H1051 H 0.25112 0.17877 0.61909 0.0
H1052 H 0.15201 0.20933 0.62738 0.0
H1053 H 0.11802 0.07832 0.62974 0.0
H1054 H 0.11074 0.01428 0.64039 0.0
H1055 H 0.05489 0.01484 0.70416 0.0
H1056 H 0.06287 0.07948 0.6943 0.0
H1057 H 0.9254 0.11756 0.65688 0.0
H1058 H 0.97926 0.10718 0.64457 0.0
H1059 H 0.06362 0.22154 0.67159 0.0
H1060 H 0.01008 0.23273 0.68267 0.0
H1061 H 0.03314 0.10097 0.6647 0.0
H1062 H 0.14484 0.26669 0.64085 0.0
H1063 H 0.1417 0.32162 0.62221 0.0
H1064 H 0.03249 0.23987 0.5894 0.0
H1065 H 0.03525 0.18443 0.60751 0.0
C1066 C 0.21613 0.15884 0.67445 0.0
C1067 C 0.24303 0.16823 0.65612 0.0
C1068 C 0.17867 0.15331 0.6705 0.0
C1069 C 0.16687 0.15688 0.64813 0.0
C1070 C 0.19353 0.16643 0.62968 0.0
C1071 C 0.23124 0.17177 0.63361 0.0
C1072 C 0.12768 0.15345 0.64488 0.0
C1073 C 0.12594 0.18548 0.63536 0.0
C1074 C 0.09301 0.12135 0.65418 0.0
C1075 C 0.09111 0.08397 0.66123 0.0
C1076 C 0.1048 0.06519 0.64623 0.0
C1077 C 0.1004 0.02864 0.6521 0.0
C1078 C 0.08202 0.01033 0.67284 0.0
C1079 C 0.0689 0.02896 0.68803 0.0
C1080 C 0.07343 0.06561 0.68232 0.0
C1081 C 0.95545 0.14036 0.66021 0.0
C1082 C 0.96358 0.17604 0.67055 0.0
C1083 C 0.98622 0.13448 0.65311 0.0
C1084 C 0.02558 0.164 0.6566 0.0
C1085 C 0.03356 0.19882 0.66801 0.0
C1086 C 0.00293 0.205 0.67463 0.0
C1087 C 0.0587 0.15839 0.64921 0.0
C1088 C 0.05912 0.12456 0.65652 0.0
C1089 C 0.0915 0.18794 0.63696 0.0
C1090 C 0.09019 0.22134 0.62567 0.0
C1091 C 0.12031 0.26038 0.62952 0.0
C1092 C 0.11854 0.29163 0.61908 0.0
C1093 C 0.08687 0.28425 0.60467 0.0
C1094 C 0.05695 0.24558 0.60061 0.0
C1095 C 0.05859 0.21423 0.61099 0.0
H1096 H 0.08553 0.30848 0.59663 0.0
H1097 H 0.07775 0.9816 0.67712 0.0
H1098 H 0.12041 0.30664 0.23716 0.0
H1099 H 0.10699 0.32034 0.19792 0.0
H1100 H 0.05782 0.38838 0.22573 0.0
H1101 H 0.07067 0.37462 0.26496 0.0
H1102 H 0.01047 0.33756 0.19377 0.0
H1103 H 0.14732 0.43223 0.20089 0.0
H1104 H 0.21788 0.45704 0.20811 0.0
H1105 H 0.22103 0.38778 0.15151 0.0
H1106 H 0.15027 0.36194 0.14422 0.0
H1107 H 0.00403 0.43326 0.09121 0.0
H1108 H 0.02161 0.42049 0.12946 0.0
H1109 H 0.05591 0.34166 0.09941 0.0
H1110 H 0.0393 0.35489 0.06079 0.0
H1111 H 0.11123 0.39759 0.13197 0.0
H1112 H 0.97252 0.30244 0.12564 0.0
H1113 H 0.90279 0.28142 0.11815 0.0
H1114 H 0.90478 0.35597 0.17315 0.0
H1115 H 0.97472 0.37788 0.18075 0.0
C1116 C 0.10692 0.32469 0.23495 0.0
C1117 C 0.09644 0.33936 0.25423 0.0
C1118 C 0.09944 0.33261 0.2125 0.0
C1119 C 0.08161 0.35552 0.20896 0.0
C1120 C 0.07152 0.37055 0.22813 0.0
C1121 C 0.07894 0.36264 0.25054 0.0
C1122 C 0.07197 0.36259 0.18533 0.0
C1123 C 0.0326 0.351 0.18031 0.0
C1124 C 0.10077 0.37949 0.1677 0.0
C1125 C 0.14327 0.39465 0.17225 0.0
C1126 C 0.1629 0.42186 0.19017 0.0
C1127 C 0.20298 0.43621 0.19424 0.0
C1128 C 0.22389 0.42386 0.18034 0.0
C1129 C 0.20477 0.39721 0.16232 0.0
C1130 C 0.16467 0.38269 0.15822 0.0
C1131 C 0.01541 0.41325 0.09263 0.0
C1132 C 0.02015 0.395 0.0729 0.0
C1133 C 0.02537 0.40599 0.11453 0.0
C1134 C 0.03997 0.38015 0.11715 0.0
C1135 C 0.04498 0.36198 0.09759 0.0
C1136 C 0.03532 0.36946 0.07559 0.0
C1137 C 0.04983 0.37209 0.14043 0.0
C1138 C 0.08917 0.38368 0.14538 0.0
C1139 C 0.02112 0.35545 0.15805 0.0
C1140 C 0.97896 0.34206 0.15362 0.0
C1141 C 0.95818 0.31459 0.13602 0.0
C1142 C 0.9186 0.30247 0.13177 0.0
C1143 C 0.89939 0.31742 0.14513 0.0
C1144 C 0.9197 0.34444 0.1628 0.0
C1145 C 0.9593 0.35668 0.1671 0.0
H1146 H 0.86875 0.308 0.14182 0.0
H1147 H 0.25493 0.43505 0.1835 0.0
H1148 H 0.62422 0.69845 0.26815 0.0
H1149 H 0.61199 0.67453 0.22837 0.0
H1150 H 0.68755 0.79268 0.20335 0.0
H1151 H 0.69963 0.8172 0.24322 0.0
H1152 H 0.62078 0.75287 0.17698 0.0
H1153 H 0.72228 0.73045 0.20627 0.0
H1154 H 0.75325 0.70651 0.23416 0.0
H1155 H 0.65861 0.58794 0.22449 0.0
H1156 H 0.62676 0.61124 0.19677 0.0
H1157 H 0.64185 0.68929 0.06417 0.0
H1158 H 0.6542 0.72025 0.10233 0.0
H1159 H 0.5822 0.60643 0.13388 0.0
H1160 H 0.5701 0.57513 0.09599 0.0
H1161 H 0.65087 0.64813 0.15612 0.0
H1162 H 0.54918 0.67103 0.1266 0.0
H1163 H 0.51842 0.69549 0.0989 0.0
H1164 H 0.61366 0.81368 0.10869 0.0
H1165 H 0.64544 0.78987 0.1361 0.0
C1166 C 0.63827 0.71947 0.25424 0.0
C1167 C 0.66327 0.75973 0.25892 0.0
C1168 C 0.63123 0.7057 0.2315 0.0
C1169 C 0.64934 0.73177 0.21297 0.0
C1170 C 0.6734 0.7721 0.21745 0.0
C1171 C 0.68037 0.786 0.24024 0.0
C1172 C 0.64395 0.71651 0.18902 0.0
C1173 C 0.62786 0.73038 0.17226 0.0
C1174 C 0.65274 0.68681 0.18305 0.0
C1175 C 0.67198 0.67265 0.19959 0.0
C1176 C 0.70793 0.6993 0.21021 0.0
C1177 C 0.72567 0.68584 0.22597 0.0
C1178 C 0.70787 0.64574 0.23113 0.0
C1179 C 0.67235 0.619 0.22049 0.0
C1180 C 0.65446 0.63231 0.20474 0.0
C1181 C 0.6286 0.67081 0.07921 0.0
C1182 C 0.6051 0.62967 0.077 0.0
C1183 C 0.63551 0.68861 0.10098 0.0
C1184 C 0.61885 0.66564 0.12087 0.0
C1185 C 0.59533 0.62467 0.11872 0.0
C1186 C 0.58845 0.60684 0.09701 0.0
C1187 C 0.62699 0.6839 0.14412 0.0
C1188 C 0.64384 0.6707 0.16075 0.0
C1189 C 0.61896 0.71425 0.14986 0.0
C1190 C 0.59994 0.72858 0.13324 0.0
C1191 C 0.56381 0.70219 0.12266 0.0
C1192 C 0.54614 0.71595 0.10703 0.0
C1193 C 0.56411 0.75611 0.10201 0.0
C1194 C 0.5998 0.78258 0.11257 0.0
C1195 C 0.61766 0.76896 0.12815 0.0
H1196 H 0.55028 0.76672 0.09002 0.0
H1197 H 0.72164 0.63538 0.24334 0.0
H1198 H 0.42177 0.01429 0.09902 0.0
H1199 H 0.39096 0.99372 0.13684 0.0
H1200 H 0.27685 0.92748 0.10443 0.0
H1201 H 0.30752 0.94836 0.06616 0.0
H1202 H 0.27525 0.96872 0.14206 0.0
H1203 H 0.32193 0.88039 0.12508 0.0
H1204 H 0.3702 0.86118 0.11296 0.0
H1205 H 0.44403 0.92352 0.17091 0.0
H1206 H 0.39654 0.9437 0.18317 0.0
H1207 H 0.18579 0.87039 0.24727 0.0
H1208 H 0.20939 0.88253 0.20737 0.0
H1209 H 0.32883 0.95388 0.23169 0.0
H1210 H 0.3057 0.94147 0.27178 0.0
H1211 H 0.32302 0.90412 0.19683 0.0
H1212 H 0.27881 0.99663 0.21168 0.0
H1213 H 0.23096 0.01655 0.22356 0.0
H1214 H 0.15216 0.94556 0.1694 0.0
H1215 H 0.19936 0.92477 0.1574 0.0
C1216 C 0.39008 0.9954 0.0998 0.0
C1217 C 0.36715 0.98276 0.07947 0.0
C1218 C 0.37254 0.98353 0.1215 0.0
C1219 C 0.33174 0.95847 0.12341 0.0
C1220 C 0.30847 0.94664 0.10328 0.0
C1221 C 0.32603 0.95862 0.08144 0.0
C1222 C 0.31378 0.94492 0.14659 0.0
C1223 C 0.28512 0.95391 0.15389 0.0
C1224 C 0.32726 0.92623 0.16213 0.0
C1225 C 0.35578 0.91385 0.15493 0.0
C1226 C 0.3486 0.89027 0.13515 0.0
C1227 C 0.37581 0.87917 0.12826 0.0
C1228 C 0.4102 0.8912 0.14112 0.0
C1229 C 0.4174 0.91426 0.16094 0.0
C1230 C 0.39032 0.92552 0.16788 0.0
C1231 C 0.21714 0.88854 0.24421 0.0
C1232 C 0.24381 0.90522 0.26278 0.0
C1233 C 0.23052 0.89553 0.22136 0.0
C1234 C 0.27079 0.91945 0.2166 0.0
C1235 C 0.29762 0.93534 0.23504 0.0
C1236 C 0.28429 0.92838 0.25793 0.0
C1237 C 0.28494 0.92845 0.19238 0.0
C1238 C 0.31288 0.91856 0.1849 0.0
C1239 C 0.27075 0.94623 0.17667 0.0
C1240 C 0.24242 0.9588 0.18381 0.0
C1241 C 0.25114 0.985 0.20243 0.0
C1242 C 0.22416 0.9965 0.20916 0.0
C1243 C 0.18849 0.98223 0.19729 0.0
C1244 C 0.17977 0.95653 0.17861 0.0
C1245 C 0.20663 0.9449 0.17183 0.0
H1246 H 0.16765 0.99118 0.20252 0.0
H1247 H 0.43123 0.88258 0.13576 0.0
H1248 H 0.41776 0.96539 0.91001 0.0
H1249 H 0.4175 0.9845 0.86984 0.0
H1250 H 0.37727 0.06352 0.89163 0.0
H1251 H 0.37666 0.04397 0.93195 0.0
H1252 H 0.33916 0.02437 0.85385 0.0
H1253 H 0.47473 0.09669 0.87823 0.0
H1254 H 0.53643 0.10441 0.89448 0.0
H1255 H 0.54147 0.0329 0.83985 0.0
H1256 H 0.47945 0.02427 0.82346 0.0
H1257 H 0.38455 0.14995 0.76099 0.0
H1258 H 0.39408 0.12771 0.79857 0.0
H1259 H 0.41223 0.03985 0.7652 0.0
H1260 H 0.40273 0.06219 0.7271 0.0
H1261 H 0.46135 0.07834 0.80688 0.0
H1262 H 0.32601 0.00866 0.78191 0.0
H1263 H 0.26559 0.00393 0.76564 0.0
H1264 H 0.26147 0.0732 0.82193 0.0
H1265 H 0.32225 0.07887 0.83835 0.0
C1266 C 0.40864 0.98671 0.9063 0.0
C1267 C 0.39743 0.00334 0.92425 0.0
C1268 C 0.40871 0.99773 0.88331 0.0
C1269 C 0.39811 0.02598 0.87779 0.0
C1270 C 0.38574 0.04177 0.89554 0.0
C1271 C 0.38536 0.03053 0.91857 0.0
C1272 C 0.40001 0.03923 0.85352 0.0
C1273 C 0.36599 0.03645 0.8437 0.0
C1274 C 0.43478 0.05408 0.84003 0.0
C1275 C 0.47223 0.05949 0.84976 0.0
C1276 C 0.48884 0.08237 0.86978 0.0
C1277 C 0.52389 0.08694 0.879 0.0
C1278 C 0.5428 0.06907 0.86824 0.0
C1279 C 0.52675 0.04668 0.84819 0.0
C1280 C 0.49167 0.04195 0.83892 0.0
C1281 C 0.39133 0.12638 0.76155 0.0
C1282 C 0.39222 0.1073 0.74116 0.0
C1283 C 0.39683 0.11379 0.78304 0.0
C1284 C 0.40306 0.08171 0.7846 0.0
C1285 C 0.40727 0.06459 0.76425 0.0
C1286 C 0.40189 0.07737 0.74256 0.0
C1287 C 0.40073 0.06392 0.80754 0.0
C1288 C 0.43452 0.06584 0.81705 0.0
C1289 C 0.36583 0.04839 0.82085 0.0
C1290 C 0.32884 0.04442 0.81126 0.0
C1291 C 0.31236 0.02309 0.79074 0.0
C1292 C 0.27803 0.02022 0.7815 0.0
C1293 C 0.25974 0.03831 0.79272 0.0
C1294 C 0.27568 0.05922 0.81325 0.0
C1295 C 0.31004 0.06223 0.82255 0.0
H1296 H 0.23318 0.03608 0.78553 0.0
H1297 H 0.56992 0.07264 0.87541 0.0
H1298 H 0.9896 0.33591 0.92628 0.0
H1299 H 0.96966 0.3087 0.88731 0.0
H1300 H 0.97725 0.41685 0.86425 0.0
H1301 H 0.9972 0.44442 0.90311 0.0
H1302 H 0.90768 0.3496 0.85075 0.0
H1303 H 0.04726 0.39937 0.84894 0.0
H1304 H 0.11029 0.40743 0.86303 0.0
H1305 H 0.06486 0.2831 0.85616 0.0
H1306 H 0.00132 0.2742 0.84233 0.0
H1307 H 0.90685 0.31296 0.72787 0.0
H1308 H 0.9232 0.34192 0.76678 0.0
H1309 H 0.91154 0.23417 0.79387 0.0
H1310 H 0.89495 0.20489 0.7553 0.0
H1311 H 0.98323 0.30288 0.80498 0.0
H1312 H 0.8444 0.25203 0.80697 0.0
H1313 H 0.77913 0.24138 0.79565 0.0
H1314 H 0.82067 0.3648 0.80363 0.0
H1315 H 0.88651 0.37638 0.81452 0.0
C1316 C 0.98726 0.35403 0.91292 0.0
C1317 C 0.99513 0.3924 0.91781 0.0
C1318 C 0.97592 0.33845 0.89067 0.0
C1319 C 0.97217 0.36089 0.87297 0.0
C1320 C 0.97999 0.39913 0.87774 0.0
C1321 C 0.99162 0.41487 0.89992 0.0
C1322 C 0.95966 0.34424 0.8495 0.0
C1323 C 0.92446 0.33998 0.8405 0.0
C1324 C 0.98118 0.33081 0.83657 0.0
C1325 C 0.0194 0.33608 0.84482 0.0
C1326 C 0.05059 0.37369 0.85062 0.0
C1327 C 0.08643 0.37842 0.85852 0.0
C1328 C 0.09155 0.34578 0.86055 0.0
C1329 C 0.06085 0.30835 0.85461 0.0
C1330 C 0.02492 0.30345 0.84672 0.0
C1331 C 0.90763 0.29541 0.74214 0.0
C1332 C 0.89984 0.25672 0.7385 0.0
C1333 C 0.91669 0.31189 0.76433 0.0
C1334 C 0.91837 0.29003 0.78309 0.0
C1335 C 0.91024 0.25137 0.77955 0.0
C1336 C 0.90073 0.23473 0.75751 0.0
C1337 C 0.93117 0.30818 0.80617 0.0
C1338 C 0.96652 0.31276 0.8151 0.0
C1339 C 0.90963 0.3217 0.81903 0.0
C1340 C 0.87064 0.31516 0.81127 0.0
C1341 C 0.83987 0.27704 0.80594 0.0
C1342 C 0.80266 0.27077 0.79975 0.0
C1343 C 0.79571 0.30236 0.799 0.0
C1344 C 0.82604 0.34033 0.80432 0.0
C1345 C 0.86335 0.34677 0.81043 0.0
H1346 H 0.7669 0.29745 0.79418 0.0
H1347 H 0.11932 0.34951 0.86666 0.0
H1348 H 0.68995 0.62177 0.72973 0.0
H1349 H 0.65891 0.60838 0.76789 0.0
H1350 H 0.77334 0.67246 0.80021 0.0
H1351 H 0.80468 0.68548 0.76232 0.0
H1352 H 0.7259 0.60614 0.82376 0.0
H1353 H 0.7182 0.71556 0.79204 0.0
H1354 H 0.70106 0.75031 0.76274 0.0
H1355 H 0.57871 0.66275 0.76883 0.0
H1356 H 0.59521 0.62716 0.79797 0.0
H1357 H 0.67289 0.64636 0.93328 0.0
H1358 H 0.70084 0.65406 0.89455 0.0
H1359 H 0.58404 0.58546 0.8658 0.0
H1360 H 0.55569 0.57783 0.90436 0.0
H1361 H 0.63064 0.65123 0.84021 0.0
H1362 H 0.639 0.54369 0.8739 0.0
H1363 H 0.65712 0.51086 0.90395 0.0
H1364 H 0.77943 0.59647 0.89482 0.0
H1365 H 0.762 0.63021 0.86494 0.0
C1366 C 0.70855 0.63287 0.74495 0.0
C1367 C 0.74981 0.65501 0.74292 0.0
C1368 C 0.69075 0.62525 0.76673 0.0
C1369 C 0.71386 0.63986 0.78681 0.0
C1370 C 0.755 0.66095 0.7849 0.0
C1371 C 0.77282 0.6685 0.76319 0.0
C1372 C 0.69529 0.63439 0.80982 0.0
C1373 C 0.70534 0.61629 0.82744 0.0
C1374 C 0.66798 0.64707 0.81445 0.0
C1375 C 0.65798 0.66848 0.79699 0.0
C1376 C 0.68768 0.70355 0.787 0.0
C1377 C 0.67808 0.72343 0.77044 0.0
C1378 C 0.63884 0.70868 0.76387 0.0
C1379 C 0.6091 0.67409 0.7739 0.0
C1380 C 0.61855 0.65407 0.79045 0.0
C1381 C 0.65308 0.63313 0.91872 0.0
C1382 C 0.61203 0.61134 0.92195 0.0
C1383 C 0.66914 0.63737 0.89664 0.0
C1384 C 0.64446 0.61985 0.87743 0.0
C1385 C 0.60352 0.59904 0.88046 0.0
C1386 C 0.58742 0.59467 0.90253 0.0
C1387 C 0.66136 0.62313 0.85414 0.0
C1388 C 0.65102 0.64085 0.83649 0.0
C1389 C 0.68852 0.61025 0.84955 0.0
C1390 C 0.69914 0.58971 0.86732 0.0
C1391 C 0.66974 0.5557 0.87841 0.0
C1392 C 0.6799 0.5369 0.8954 0.0
C1393 C 0.7194 0.55163 0.90134 0.0
C1394 C 0.74884 0.58512 0.89022 0.0
C1395 C 0.73884 0.60408 0.87324 0.0
H1396 H 0.7272 0.53705 0.91451 0.0
H1397 H 0.63146 0.72412 0.75106 0.0
H1398 H 0.65159 0.76679 0.43267 0.0
H1399 H 0.67157 0.75266 0.46981 0.0
H1400 H 0.7457 0.71715 0.43463 0.0
H1401 H 0.72556 0.73075 0.39727 0.0
H1402 H 0.70386 0.6666 0.46904 0.0
H1403 H 0.7853 0.80565 0.46001 0.0
H1404 H 0.80044 0.87373 0.45276 0.0
H1405 H 0.73363 0.86889 0.51278 0.0
H1406 H 0.71746 0.8005 0.52017 0.0
H1407 H 0.80614 0.66715 0.57133 0.0
H1408 H 0.79099 0.68153 0.53271 0.0
H1409 H 0.71393 0.71829 0.56269 0.0
H1410 H 0.72977 0.70521 0.60141 0.0
H1411 H 0.76153 0.76945 0.52995 0.0
H1412 H 0.67684 0.62888 0.53735 0.0
H1413 H 0.6622 0.56094 0.54463 0.0
H1414 H 0.73652 0.56943 0.48778 0.0
H1415 H 0.75203 0.63765 0.48036 0.0
C1416 C 0.67207 0.75588 0.43276 0.0
C1417 C 0.68707 0.75005 0.41195 0.0
C1418 C 0.68358 0.74799 0.45403 0.0
C1419 C 0.71053 0.73442 0.45495 0.0
C1420 C 0.72496 0.72775 0.43426 0.0
C1421 C 0.71342 0.73559 0.41294 0.0
C1422 C 0.72347 0.72708 0.47756 0.0
C1423 C 0.71701 0.68923 0.48225 0.0
C1424 C 0.74006 0.75653 0.49487 0.0
C1425 C 0.74979 0.79774 0.49049 0.0
C1426 C 0.7735 0.81895 0.47154 0.0
C1427 C 0.78233 0.85763 0.46743 0.0
C1428 C 0.76791 0.87558 0.48226 0.0
C1429 C 0.74471 0.85492 0.50127 0.0
C1430 C 0.73571 0.81619 0.50544 0.0
C1431 C 0.786 0.67835 0.56973 0.0
C1432 C 0.76908 0.68493 0.58946 0.0
C1433 C 0.77731 0.68644 0.54764 0.0
C1434 C 0.75115 0.70072 0.54488 0.0
C1435 C 0.73436 0.70747 0.5645 0.0
C1436 C 0.74336 0.69984 0.58661 0.0
C1437 C 0.74127 0.70882 0.52155 0.0
C1438 C 0.74846 0.74687 0.51671 0.0
C1439 C 0.72542 0.6796 0.5041 0.0
C1440 C 0.7159 0.6385 0.50845 0.0
C1441 C 0.69029 0.61636 0.52651 0.0
C1442 C 0.6818 0.57779 0.53065 0.0
C1443 C 0.69851 0.56092 0.51672 0.0
C1444 C 0.72365 0.58256 0.49857 0.0
C1445 C 0.73228 0.62116 0.49439 0.0
H1446 H 0.69191 0.53105 0.51995 0.0
H1447 H 0.77479 0.90554 0.47905 0.0
H1448 H 0.26292 0.00893 0.39804 0.0
H1449 H 0.27747 0.04624 0.43424 0.0
H1450 H 0.24527 0.94053 0.47322 0.0
H1451 H 0.23023 0.90313 0.43748 0.0
H1452 H 0.21665 0.98072 0.49357 0.0
H1453 H 0.34287 0.0106 0.46133 0.0
H1454 H 0.39429 0.03489 0.43119 0.0
H1455 H 0.40304 0.14837 0.43332 0.0
H1456 H 0.3513 0.12456 0.46329 0.0
H1457 H 0.31713 0.04386 0.60004 0.0
H1458 H 0.29448 0.01654 0.56142 0.0
H1459 H 0.32586 0.13176 0.53561 0.0
H1460 H 0.34899 0.15959 0.57416 0.0
H1461 H 0.35092 0.09381 0.50714 0.0
H1462 H 0.23078 0.06488 0.54451 0.0
H1463 H 0.18079 0.03949 0.57546 0.0
H1464 H 0.16114 0.92282 0.56457 0.0
H1465 H 0.21149 0.94759 0.53379 0.0
C1466 C 0.2589 0.99364 0.41432 0.0
C1467 C 0.24575 0.95307 0.41479 0.0
C1468 C 0.26721 0.01501 0.43499 0.0
C1469 C 0.26273 0.99622 0.45644 0.0
C1470 C 0.24881 0.95565 0.45691 0.0
C1471 C 0.24043 0.93433 0.43637 0.0
C1472 C 0.27373 0.01856 0.47852 0.0
C1473 C 0.24606 0.00534 0.49659 0.0
C1474 C 0.31176 0.05134 0.48226 0.0
C1475 C 0.34294 0.06569 0.46433 0.0
C1476 C 0.35558 0.04065 0.45524 0.0
C1477 C 0.3848 0.05434 0.43821 0.0
C1478 C 0.40183 0.09312 0.43029 0.0
C1479 C 0.38976 0.11832 0.43943 0.0
C1480 C 0.36051 0.10476 0.45645 0.0
C1481 C 0.31934 0.0635 0.58618 0.0
C1482 C 0.3349 0.10396 0.59025 0.0
C1483 C 0.3061 0.04775 0.56414 0.0
C1484 C 0.30797 0.07206 0.54575 0.0
C1485 C 0.32398 0.1125 0.54962 0.0
C1486 C 0.33717 0.12831 0.57168 0.0
C1487 C 0.29421 0.05525 0.52236 0.0
C1488 C 0.32132 0.06958 0.50405 0.0
C1489 C 0.25574 0.02329 0.51848 0.0
C1490 C 0.22519 0.0082 0.53692 0.0
C1491 C 0.21604 0.03386 0.54882 0.0
C1492 C 0.18759 0.01956 0.56632 0.0
C1493 C 0.16784 0.97958 0.57201 0.0
C1494 C 0.17647 0.9538 0.56016 0.0
C1495 C 0.20494 0.96795 0.54266 0.0
H1496 H 0.14582 0.96856 0.58556 0.0
H1497 H 0.42446 0.10366 0.41711 0.0
H1498 H 0.86757 0.22623 0.56567 0.0
H1499 H 0.89964 0.24203 0.52797 0.0
H1500 H 0.01272 0.28541 0.56104 0.0
H1501 H 0.98095 0.27012 0.59904 0.0
H1502 H 0.0149 0.33481 0.52738 0.0
H1503 H 0.96782 0.19707 0.53527 0.0
H1504 H 0.91923 0.12725 0.54232 0.0
H1505 H 0.85142 0.12701 0.48375 0.0
H1506 H 0.89924 0.19707 0.47658 0.0
H1507 H 0.12275 0.3413 0.42824 0.0
H1508 H 0.09023 0.32681 0.46574 0.0
H1509 H 0.97747 0.28131 0.43192 0.0
H1510 H 0.00973 0.2949 0.39408 0.0
H1511 H 0.9745 0.23348 0.46593 0.0
H1512 H 0.02212 0.37164 0.45826 0.0
H1513 H 0.07155 0.44118 0.45104 0.0
H1514 H 0.13983 0.44 0.50898 0.0
H1515 H 0.09107 0.37026 0.51635 0.0
C1516 C 0.89927 0.23907 0.56502 0.0
C1517 C 0.92168 0.24684 0.58542 0.0
C1518 C 0.9175 0.24795 0.54341 0.0
C1519 C 0.95843 0.26445 0.54175 0.0
C1520 C 0.98103 0.27262 0.56201 0.0
C1521 C 0.96281 0.2638 0.58369 0.0
C1522 C 0.97757 0.27359 0.51878 0.0
C1523 C 0.00656 0.31257 0.51402 0.0
C1524 C 0.96582 0.24467 0.50124 0.0
C1525 C 0.93689 0.20252 0.50558 0.0
C1526 C 0.94233 0.18228 0.52404 0.0
C1527 C 0.91496 0.14262 0.52803 0.0
C1528 C 0.88219 0.12275 0.51354 0.0
C1529 C 0.87677 0.14247 0.49499 0.0
C1530 C 0.904 0.18216 0.49096 0.0
C1531 C 0.09104 0.32842 0.42868 0.0
C1532 C 0.06887 0.3195 0.40811 0.0
C1533 C 0.07253 0.32031 0.45018 0.0
C1534 C 0.03155 0.30361 0.4516 0.0
C1535 C 0.0092 0.29449 0.43116 0.0
C1536 C 0.0277 0.30233 0.40957 0.0
C1537 C 0.01207 0.29466 0.47449 0.0
C1538 C 0.98295 0.25574 0.47924 0.0
C1539 C 0.02382 0.32358 0.49204 0.0
C1540 C 0.05309 0.36561 0.48773 0.0
C1541 C 0.04782 0.38612 0.46936 0.0
C1542 C 0.0757 0.42559 0.46526 0.0
C1543 C 0.10886 0.44497 0.47951 0.0
C1544 C 0.11415 0.42494 0.49794 0.0
C1545 C 0.08638 0.38546 0.5021 0.0
H1546 H 0.13041 0.47553 0.47631 0.0
H1547 H 0.86105 0.09203 0.51665 0.0
loop_
_geom_bond_atom_site_label_1
_geom_bond_atom_site_label_2
_geom_bond_distance
_geom_bond_site_symmetry_2
_ccdc_geom_bond_type
Sc0 O3 2.025 1_556 S
Sc0 O10 2.095 1_556 S
Sc0 O13 2.105 . S
Sc0 O16 2.105 1_455 S
Sc0 O19 2.105 . S
Sc1 O3 2.025 . S
Sc1 O11 2.105 1_554 S
Sc1 O15 2.105 1_455 S
Sc1 O17 2.105 1_454 S
Sc1 O21 2.105 . S
Sc2 O3 2.025 1_655 S
Sc2 O12 2.105 1_655 S
Sc2 O14 2.105 . S
Sc2 O18 2.105 . S
Sc2 O20 2.105 1_655 S
O3 Sc0 2.025 1_554 S
O3 Sc1 2.025 . S
O3 Sc2 2.025 1_455 S
C4 O10 1.283 . S
C4 O20 1.268 . S
C5 O11 1.268 . S
C5 O19 1.268 . S
C6 O12 1.268 . S
C6 O21 1.268 . S
C7 O13 1.268 1_655 S
C7 O17 1.268 . S
C8 O14 1.268 1_556 S
C8 O16 1.268 . S
C9 O15 1.268 . S
C9 O18 1.268 . S
O10 Sc0 2.095 1_554 S
O10 C4 1.283 . S
O11 Sc1 2.105 1_556 S
O11 C5 1.268 . S
O12 Sc2 2.105 1_455 S
O12 C6 1.268 . S
O13 Sc0 2.105 . S
O13 C7 1.268 1_455 S
O14 Sc2 2.105 . S
O14 C8 1.268 1_554 S
O15 Sc1 2.105 1_655 S
O15 C9 1.268 . S
O16 Sc0 2.105 1_655 S
O16 C8 1.268 . S
O17 Sc1 2.105 1_656 S
O17 C7 1.268 . S
O18 Sc2 2.105 . S
O18 C9 1.268 . S
O19 Sc0 2.105 . S
O19 C5 1.268 . S
O20 Sc2 2.105 1_455 S
O20 C4 1.268 . S
O21 Sc1 2.105 . S
O21 C6 1.268 . S
Sc22 O25 2.025 1_556 S
Sc22 O32 2.095 1_556 S
Sc22 O35 2.105 . S
Sc22 O38 2.105 . S
Sc22 O41 2.105 . S
Sc23 O25 2.025 . S
Sc23 O33 2.105 1_554 S
Sc23 O37 2.105 . S
Sc23 O39 2.105 1_554 S
Sc23 O43 2.105 . S
Sc24 O25 2.025 . S
Sc24 O34 2.105 . S
Sc24 O36 2.105 . S
Sc24 O40 2.105 . S
Sc24 O42 2.105 . S
O25 Sc22 2.025 1_554 S
O25 Sc23 2.025 . S
O25 Sc24 2.025 . S
C26 O32 1.283 . S
C26 O42 1.268 . S
C27 O33 1.268 . S
C27 O41 1.268 . S
C28 O34 1.268 . S
C28 O43 1.268 . S
C29 O35 1.268 . S
C29 O39 1.268 . S
C30 O36 1.268 1_556 S
C30 O38 1.268 . S
C31 O37 1.268 . S
C31 O40 1.268 . S
O32 Sc22 2.095 1_554 S
O32 C26 1.283 . S
O33 Sc23 2.105 1_556 S
O33 C27 1.268 . S
O34 Sc24 2.105 . S
O34 C28 1.268 . S
O35 Sc22 2.105 . S
O35 C29 1.268 . S
O36 Sc24 2.105 . S
O36 C30 1.268 1_554 S
O37 Sc23 2.105 . S
O37 C31 1.268 . S
O38 Sc22 2.105 . S
O38 C30 1.268 . S
O39 Sc23 2.105 1_556 S
O39 C29 1.268 . S
O40 Sc24 2.105 . S
O40 C31 1.268 . S
O41 Sc22 2.105 . S
O41 C27 1.268 . S
O42 Sc24 2.105 . S
O42 C26 1.268 . S
O43 Sc23 2.105 . S
O43 C28 1.268 . S
Sc44 O47 2.025 1_566 S
Sc44 O54 2.095 1_556 S
Sc44 O57 2.105 1_565 S
Sc44 O60 2.105 1_565 S
Sc44 O63 2.105 . S
Sc45 O47 2.025 . S
Sc45 O55 2.105 1_544 S
Sc45 O59 2.105 . S
Sc45 O61 2.105 1_554 S
Sc45 O65 2.105 1_545 S
Sc46 O47 2.025 . S
Sc46 O56 2.105 . S
Sc46 O58 2.105 . S
Sc46 O62 2.105 . S
Sc46 O64 2.105 1_545 S
O47 Sc44 2.025 1_544 S
O47 Sc45 2.025 . S
O47 Sc46 2.025 . S
C48 O54 1.283 . S
C48 O64 1.268 . S
C49 O55 1.268 . S
C49 O63 1.268 . S
C50 O56 1.268 1_565 S
C50 O65 1.268 . S
C51 O57 1.268 . S
C51 O61 1.268 . S
C52 O58 1.268 1_556 S
C52 O60 1.268 . S
C53 O59 1.268 . S
C53 O62 1.268 . S
O54 Sc44 2.095 1_554 S
O54 C48 1.283 . S
O55 Sc45 2.105 1_566 S
O55 C49 1.268 . S
O56 Sc46 2.105 . S
O56 C50 1.268 1_545 S
O57 Sc44 2.105 1_545 S
O57 C51 1.268 . S
O58 Sc46 2.105 . S
O58 C52 1.268 1_554 S
O59 Sc45 2.105 . S
O59 C53 1.268 . S
O60 Sc44 2.105 1_545 S
O60 C52 1.268 . S
O61 Sc45 2.105 1_556 S
O61 C51 1.268 . S
O62 Sc46 2.105 . S
O62 C53 1.268 . S
O63 Sc44 2.105 . S
O63 C49 1.268 . S
O64 Sc46 2.105 1_565 S
O64 C48 1.268 . S
O65 Sc45 2.105 1_565 S
O65 C50 1.268 . S
Sc66 O69 2.025 . S
Sc66 O76 2.105 . S
Sc66 O79 2.105 . S
Sc66 O82 2.105 . S
Sc66 O85 2.105 . S
Sc67 O69 2.025 . S
Sc67 O77 2.105 . S
Sc67 O81 2.105 . S
Sc67 O83 2.105 . S
Sc67 O87 2.105 . S
Sc68 O69 2.025 . S
Sc68 O78 2.105 . S
Sc68 O80 2.105 . S
Sc68 O84 2.105 . S
Sc68 O86 2.105 . S
O69 Sc66 2.025 . S
O69 Sc67 2.025 . S
O69 Sc68 2.025 . S
C70 O76 1.268 . S
C70 O86 1.268 . S
C71 O77 1.268 . S
C71 O85 1.268 . S
C72 O78 1.268 . S
C72 O87 1.268 . S
C73 O79 1.268 . S
C73 O83 1.268 . S
C74 O80 1.268 . S
C74 O82 1.268 . S
C75 O81 1.268 . S
C75 O84 1.268 . S
O76 Sc66 2.105 . S
O76 C70 1.268 . S
O77 Sc67 2.105 . S
O77 C71 1.268 . S
O78 Sc68 2.105 . S
O78 C72 1.268 . S
O79 Sc66 2.105 . S
O79 C73 1.268 . S
O80 Sc68 2.105 . S
O80 C74 1.268 . S
O81 Sc67 2.105 . S
O81 C75 1.268 . S
O82 Sc66 2.105 . S
O82 C74 1.268 . S
O83 Sc67 2.105 . S
O83 C73 1.268 . S
O84 Sc68 2.105 . S
O84 C75 1.268 . S
O85 Sc66 2.105 . S
O85 C71 1.268 . S
O86 Sc68 2.105 . S
O86 C70 1.268 . S
O87 Sc67 2.105 . S
O87 C72 1.268 . S
Sc88 O91 2.025 . S
Sc88 O98 2.105 . S
Sc88 O101 2.105 . S
Sc88 O104 2.105 . S
Sc88 O107 2.105 . S
Sc89 O91 2.025 . S
Sc89 O99 2.105 . S
Sc89 O103 2.105 . S
Sc89 O105 2.105 . S
Sc89 O109 2.105 . S
Sc90 O91 2.025 . S
Sc90 O100 2.105 . S
Sc90 O102 2.105 . S
Sc90 O106 2.105 . S
Sc90 O108 2.105 . S
O91 Sc88 2.025 . S
O91 Sc89 2.025 . S
O91 Sc90 2.025 . S
C92 O98 1.268 . S
C92 O108 1.268 . S
C93 O99 1.268 . S
C93 O107 1.268 . S
C94 O100 1.268 . S
C94 O109 1.268 . S
C95 O101 1.268 . S
C95 O105 1.268 . S
C96 O102 1.268 . S
C96 O104 1.268 . S
C97 O103 1.268 . S
C97 O106 1.268 . S
O98 Sc88 2.105 . S
O98 C92 1.268 . S
O99 Sc89 2.105 . S
O99 C93 1.268 . S
O100 Sc90 2.105 . S
O100 C94 1.268 . S
O101 Sc88 2.105 . S
O101 C95 1.268 . S
O102 Sc90 2.105 . S
O102 C96 1.268 . S
O103 Sc89 2.105 . S
O103 C97 1.268 . S
O104 Sc88 2.105 . S
O104 C96 1.268 . S
O105 Sc89 2.105 . S
O105 C95 1.268 . S
O106 Sc90 2.105 . S
O106 C97 1.268 . S
O107 Sc88 2.105 . S
O107 C93 1.268 . S
O108 Sc90 2.105 . S
O108 C92 1.268 . S
O109 Sc89 2.105 . S
O109 C94 1.268 . S
Sc110 O113 2.025 . S
Sc110 O120 2.105 . S
Sc110 O123 2.105 . S
Sc110 O126 2.105 . S
Sc110 O129 2.105 . S
Sc111 O113 2.025 . S
Sc111 O121 2.105 . S
Sc111 O125 2.105 . S
Sc111 O127 2.105 . S
Sc111 O131 2.105 . S
Sc112 O113 2.025 . S
Sc112 O122 2.105 . S
Sc112 O124 2.105 . S
Sc112 O128 2.105 . S
Sc112 O130 2.105 . S
O113 Sc110 2.025 . S
O113 Sc111 2.025 . S
O113 Sc112 2.025 . S
C114 O120 1.268 . S
C114 O130 1.268 . S
C115 O121 1.268 . S
C115 O129 1.268 . S
C116 O122 1.268 . S
C116 O131 1.268 . S
C117 O123 1.268 . S
C117 O127 1.268 . S
C118 O124 1.268 . S
C118 O126 1.268 . S
C119 O125 1.268 . S
C119 O128 1.268 . S
O120 Sc110 2.105 . S
O120 C114 1.268 . S
O121 Sc111 2.105 . S
O121 C115 1.268 . S
O122 Sc112 2.105 . S
O122 C116 1.268 . S
O123 Sc110 2.105 . S
O123 C117 1.268 . S
O124 Sc112 2.105 . S
O124 C118 1.268 . S
O125 Sc111 2.105 . S
O125 C119 1.268 . S
O126 Sc110 2.105 . S
O126 C118 1.268 . S
O127 Sc111 2.105 . S
O127 C117 1.268 . S
O128 Sc112 2.105 . S
O128 C119 1.268 . S
O129 Sc110 2.105 . S
O129 C115 1.268 . S
O130 Sc112 2.105 . S
O130 C114 1.268 . S
O131 Sc111 2.105 . S
O131 C116 1.268 . S
Sc132 O135 2.025 . S
Sc132 O142 2.105 . S
Sc132 O145 2.105 . S
Sc132 O148 2.105 . S
Sc132 O151 2.105 . S
Sc133 O135 2.025 . S
Sc133 O143 2.105 . S
Sc133 O147 2.105 . S
Sc133 O149 2.105 . S
Sc133 O153 2.105 . S
Sc134 O135 2.025 . S
Sc134 O144 2.105 . S
Sc134 O146 2.105 . S
Sc134 O150 2.105 . S
Sc134 O152 2.105 . S
O135 Sc132 2.025 . S
O135 Sc133 2.025 . S
O135 Sc134 2.025 . S
C136 O142 1.268 . S
C136 O152 1.268 . S
C137 O143 1.268 . S
C137 O151 1.268 . S
C138 O144 1.268 . S
C138 O153 1.268 . S
C139 O145 1.268 . S
C139 O149 1.268 . S
C140 O146 1.268 . S
C140 O148 1.268 . S
C141 O147 1.268 . S
C141 O150 1.268 . S
O142 Sc132 2.105 . S
O142 C136 1.268 . S
O143 Sc133 2.105 . S
O143 C137 1.268 . S
O144 Sc134 2.105 . S
O144 C138 1.268 . S
O145 Sc132 2.105 . S
O145 C139 1.268 . S
O146 Sc134 2.105 . S
O146 C140 1.268 . S
O147 Sc133 2.105 . S
O147 C141 1.268 . S
O148 Sc132 2.105 . S
O148 C140 1.268 . S
O149 Sc133 2.105 . S
O149 C139 1.268 . S
O150 Sc134 2.105 . S
O150 C141 1.268 . S
O151 Sc132 2.105 . S
O151 C137 1.268 . S
O152 Sc134 2.105 . S
O152 C136 1.268 . S
O153 Sc133 2.105 . S
O153 C138 1.268 . S
Sc154 O157 2.025 . S
Sc154 O164 2.105 . S
Sc154 O167 2.105 . S
Sc154 O170 2.105 . S
Sc154 O173 2.105 . S
Sc155 O157 2.025 . S
Sc155 O165 2.105 . S
Sc155 O169 2.105 . S
Sc155 O171 2.105 . S
Sc155 O175 2.105 . S
Sc156 O157 2.025 . S
Sc156 O166 2.105 . S
Sc156 O168 2.105 . S
Sc156 O172 2.105 . S
Sc156 O174 2.105 . S
O157 Sc154 2.025 . S
O157 Sc155 2.025 . S
O157 Sc156 2.025 . S
C158 O164 1.268 . S
C158 O174 1.268 . S
C159 O165 1.268 . S
C159 O173 1.268 . S
C160 O166 1.268 . S
C160 O175 1.268 . S
C161 O167 1.268 . S
C161 O171 1.268 . S
C162 O168 1.268 . S
C162 O170 1.268 . S
C163 O169 1.268 . S
C163 O172 1.268 . S
O164 Sc154 2.105 . S
O164 C158 1.268 . S
O165 Sc155 2.105 . S
O165 C159 1.268 . S
O166 Sc156 2.105 . S
O166 C160 1.268 . S
O167 Sc154 2.105 . S
O167 C161 1.268 . S
O168 Sc156 2.105 . S
O168 C162 1.268 . S
O169 Sc155 2.105 . S
O169 C163 1.268 . S
O170 Sc154 2.105 . S
O170 C162 1.268 . S
O171 Sc155 2.105 . S
O171 C161 1.268 . S
O172 Sc156 2.105 . S
O172 C163 1.268 . S
O173 Sc154 2.105 . S
O173 C159 1.268 . S
O174 Sc156 2.105 . S
O174 C158 1.268 . S
O175 Sc155 2.105 . S
O175 C160 1.268 . S
Sc176 O179 2.025 . S
Sc176 O186 2.105 . S
Sc176 O189 2.105 . S
Sc176 O192 2.105 . S
Sc176 O195 2.105 . S
Sc177 O179 2.025 . S
Sc177 O187 2.105 . S
Sc177 O191 2.105 . S
Sc177 O193 2.105 . S
Sc177 O197 2.105 . S
Sc178 O179 2.025 . S
Sc178 O188 2.105 . S
Sc178 O190 2.105 . S
Sc178 O194 2.105 . S
Sc178 O196 2.105 . S
O179 Sc176 2.025 . S
O179 Sc177 2.025 . S
O179 Sc178 2.025 . S
C180 O186 1.268 . S
C180 O196 1.268 . S
C181 O187 1.268 . S
C181 O195 1.268 . S
C182 O188 1.268 . S
C182 O197 1.268 . S
C183 O189 1.268 . S
C183 O193 1.268 . S
C184 O190 1.268 . S
C184 O192 1.268 . S
C185 O191 1.268 . S
C185 O194 1.268 . S
O186 Sc176 2.105 . S
O186 C180 1.268 . S
O187 Sc177 2.105 . S
O187 C181 1.268 . S
O188 Sc178 2.105 . S
O188 C182 1.268 . S
O189 Sc176 2.105 . S
O189 C183 1.268 . S
O190 Sc178 2.105 . S
O190 C184 1.268 . S
O191 Sc177 2.105 . S
O191 C185 1.268 . S
O192 Sc176 2.105 . S
O192 C184 1.268 . S
O193 Sc177 2.105 . S
O193 C183 1.268 . S
O194 Sc178 2.105 . S
O194 C185 1.268 . S
O195 Sc176 2.105 . S
O195 C181 1.268 . S
O196 Sc178 2.105 . S
O196 C180 1.268 . S
O197 Sc177 2.105 . S
O197 C182 1.268 . S
H198 C216 0.951 1_556 S
H199 C218 0.989 . S
H200 C220 0.950 . S
H201 C221 0.950 . S
H202 C223 0.950 . S
H203 C226 0.950 . S
H204 C227 0.950 1_554 S
H205 C229 0.950 . S
H206 C230 0.950 . S
H207 C231 0.951 . S
H208 C233 0.951 . S
H209 C235 0.950 . S
H210 C236 0.950 . S
H211 C238 0.950 . S
H212 C241 0.950 1_556 S
H213 C242 0.950 . S
H214 C244 0.950 . S
H215 C245 0.950 . S
C216 H198 0.951 1_554 S
C216 C217 1.366 . S
C216 C218 1.381 1_554 S
C217 C216 1.366 . S
C217 C221 1.385 . S
C218 H199 0.989 . S
C218 C216 1.381 1_556 S
C218 C219 1.335 1_556 S
C219 C218 1.335 1_554 S
C219 C220 1.414 . S
C219 C222 1.499 . S
C220 H200 0.950 . S
C220 C219 1.414 . S
C220 C221 1.374 . S
C221 H201 0.950 . S
C221 C217 1.385 . S
C221 C220 1.374 . S
C222 C219 1.499 . S
C222 C223 1.373 . S
C222 C224 1.389 1_554 S
C223 H202 0.950 . S
C223 C222 1.373 . S
C223 C239 1.377 . S
C224 C222 1.389 1_556 S
C224 C225 1.524 . S
C224 C238 1.377 . S
C225 C224 1.524 . S
C225 C226 1.397 1_556 S
C225 C230 1.363 . S
C226 H203 0.950 . S
C226 C225 1.397 1_554 S
C226 C227 1.334 1_554 S
C227 H204 0.950 1_556 S
C227 C226 1.334 1_556 S
C227 C228 1.287 . S
C228 C227 1.287 . S
C228 C229 1.524 . S
C228 H247 0.913 . S
C229 H205 0.950 . S
C229 C228 1.524 . S
C229 C230 1.415 . S
C230 H206 0.950 . S
C230 C225 1.363 . S
C230 C229 1.415 . S
C231 H207 0.951 . S
C231 C232 1.366 1_554 S
C231 C233 1.388 . S
C232 C231 1.366 1_556 S
C232 C236 1.385 . S
C233 H208 0.951 . S
C233 C231 1.388 . S
C233 C234 1.366 1_554 S
C234 C233 1.366 1_556 S
C234 C235 1.414 . S
C234 C237 1.499 1_556 S
C235 H209 0.950 . S
C235 C234 1.414 . S
C235 C236 1.374 . S
C236 H210 0.950 . S
C236 C232 1.385 . S
C236 C235 1.374 . S
C237 C234 1.499 1_554 S
C237 C238 1.373 1_554 S
C237 C239 1.389 . S
C238 H211 0.950 . S
C238 C224 1.377 . S
C238 C237 1.373 1_556 S
C239 C223 1.377 . S
C239 C237 1.389 . S
C239 C240 1.524 . S
C240 C239 1.524 . S
C240 C241 1.397 . S
C240 C245 1.363 . S
C241 H212 0.950 1_554 S
C241 C240 1.397 . S
C241 C242 1.334 . S
C242 H213 0.950 . S
C242 C241 1.334 . S
C242 C243 1.287 . S
C243 C242 1.287 . S
C243 C244 1.524 . S
C243 H246 0.999 . S
C244 H214 0.950 . S
C244 C243 1.524 . S
C244 C245 1.415 . S
C245 H215 0.950 . S
C245 C240 1.363 . S
C245 C244 1.415 . S
H246 C243 0.999 . S
H247 C228 0.913 . S
H248 C266 0.951 . S
H249 C268 0.951 . S
H250 C270 0.992 . S
H251 C271 0.950 1_556 S
H252 C273 0.950 1_556 S
H253 C276 0.954 1_556 S
H254 C277 0.950 . S
H255 C279 0.950 . S
H256 C280 0.950 . S
H257 C281 0.951 . S
H258 C283 0.951 . S
H259 C285 0.950 . S
H260 C286 0.950 . S
H261 C288 0.950 . S
H262 C291 0.950 . S
H263 C292 0.950 1_554 S
H264 C294 0.950 . S
H265 C295 0.950 . S
C266 H248 0.951 . S
C266 C267 1.366 . S
C266 C268 1.388 . S
C267 C266 1.366 . S
C267 C271 1.385 . S
C268 H249 0.951 . S
C268 C266 1.388 . S
C268 C269 1.366 . S
C269 C268 1.366 . S
C269 C270 1.382 1_554 S
C269 C272 1.499 . S
C270 H250 0.992 . S
C270 C269 1.382 1_556 S
C270 C271 1.366 1_556 S
C271 H251 0.950 1_554 S
C271 C267 1.385 . S
C271 C270 1.366 1_554 S
C272 C269 1.499 . S
C272 C273 1.373 . S
C272 C274 1.389 . S
C273 H252 0.950 1_554 S
C273 C272 1.373 . S
C273 C289 1.377 1_554 S
C274 C272 1.389 . S
C274 C275 1.524 . S
C274 C288 1.377 . S
C275 C274 1.524 . S
C275 C276 1.397 . S
C275 C280 1.363 . S
C276 H253 0.954 1_554 S
C276 C275 1.397 . S
C276 C277 1.334 . S
C277 H254 0.950 . S
C277 C276 1.334 . S
C277 C278 1.287 . S
C278 C277 1.287 . S
C278 C279 1.524 . S
C278 H297 0.913 . S
C279 H255 0.950 . S
C279 C278 1.524 . S
C279 C280 1.415 . S
C280 H256 0.950 . S
C280 C275 1.363 . S
C280 C279 1.415 . S
C281 H257 0.951 . S
C281 C282 1.366 . S
C281 C283 1.388 . S
C282 C281 1.366 . S
C282 C286 1.385 1_556 S
C283 H258 0.951 . S
C283 C281 1.388 . S
C283 C284 1.393 . S
C284 C283 1.393 . S
C284 C285 1.393 1_556 S
C284 C287 1.493 1_556 S
C285 H259 0.950 . S
C285 C284 1.393 1_554 S
C285 C286 1.374 . S
C286 H260 0.950 . S
C286 C282 1.385 1_554 S
C286 C285 1.374 . S
C287 C284 1.493 1_554 S
C287 C288 1.373 . S
C287 C289 1.389 1_554 S
C288 H261 0.950 . S
C288 C274 1.377 . S
C288 C287 1.373 . S
C289 C273 1.377 1_556 S
C289 C287 1.389 1_556 S
C289 C290 1.524 . S
C290 C289 1.524 . S
C290 C291 1.397 1_556 S
C290 C295 1.363 . S
C291 H262 0.950 . S
C291 C290 1.397 1_554 S
C291 C292 1.334 1_554 S
C292 H263 0.950 1_556 S
C292 C291 1.334 1_556 S
C292 C293 1.287 . S
C293 C292 1.287 . S
C293 C294 1.524 . S
C293 H296 0.999 . S
C294 H264 0.950 . S
C294 C293 1.524 . S
C294 C295 1.415 . S
C295 H265 0.950 . S
C295 C290 1.363 . S
C295 C294 1.415 . S
H296 C293 0.999 . S
H297 C278 0.913 . S
H298 C316 0.951 . S
H299 C318 0.951 . S
H300 C320 0.950 . S
H301 C321 0.950 . S
H302 C323 0.950 . S
H303 C326 0.985 . S
H304 C327 0.950 1_556 S
H305 C329 0.950 . S
H306 C330 0.950 . S
H307 C331 0.951 1_556 S
H308 C333 0.936 1_556 S
H309 C335 0.950 . S
H310 C336 0.950 . S
H311 C338 0.950 . S
H312 C341 0.950 . S
H313 C342 0.950 . S
H314 C344 0.950 . S
H315 C345 0.950 . S
C316 H298 0.951 . S
C316 C317 1.366 1_554 S
C316 C318 1.388 . S
C317 C316 1.366 1_556 S
C317 C321 1.385 . S
C318 H299 0.951 . S
C318 C316 1.388 . S
C318 C319 1.366 1_554 S
C319 C318 1.366 1_556 S
C319 C320 1.414 . S
C319 C322 1.499 1_556 S
C320 H300 0.950 . S
C320 C319 1.414 . S
C320 C321 1.374 . S
C321 H301 0.950 . S
C321 C317 1.385 . S
C321 C320 1.374 . S
C322 C319 1.499 1_554 S
C322 C323 1.373 1_554 S
C322 C324 1.389 . S
C323 H302 0.950 . S
C323 C322 1.373 1_556 S
C323 C339 1.377 1_556 S
C324 C322 1.389 . S
C324 C325 1.524 . S
C324 C338 1.377 . S
C325 C324 1.524 . S
C325 C326 1.366 1_554 S
C325 C330 1.363 . S
C326 H303 0.985 . S
C326 C325 1.366 1_556 S
C326 C327 1.331 1_556 S
C327 H304 0.950 1_554 S
C327 C326 1.331 1_554 S
C327 C328 1.287 . S
C328 C327 1.287 . S
C328 C329 1.524 . S
C328 H347 0.913 . S
C329 H305 0.950 . S
C329 C328 1.524 . S
C329 C330 1.415 . S
C330 H306 0.950 . S
C330 C325 1.363 . S
C330 C329 1.415 . S
C331 H307 0.951 1_554 S
C331 C332 1.366 . S
C331 C333 1.391 . S
C332 C331 1.366 . S
C332 C336 1.385 . S
C333 H308 0.936 1_554 S
C333 C331 1.391 . S
C333 C334 1.377 . S
C334 C333 1.377 . S
C334 C335 1.414 . S
C334 C337 1.499 . S
C335 H309 0.950 . S
C335 C334 1.414 . S
C335 C336 1.374 . S
C336 H310 0.950 . S
C336 C332 1.385 . S
C336 C335 1.374 . S
C337 C334 1.499 . S
C337 C338 1.373 . S
C337 C339 1.389 . S
C338 H311 0.950 . S
C338 C324 1.377 . S
C338 C337 1.373 . S
C339 C323 1.377 1_554 S
C339 C337 1.389 . S
C339 C340 1.524 1_554 S
C340 C339 1.524 1_556 S
C340 C341 1.397 1_556 S
C340 C345 1.363 . S
C341 H312 0.950 . S
C341 C340 1.397 1_554 S
C341 C342 1.334 . S
C342 H313 0.950 . S
C342 C341 1.334 . S
C342 C343 1.287 1_554 S
C343 C342 1.287 1_556 S
C343 C344 1.524 . S
C343 H346 0.999 . S
C344 H314 0.950 . S
C344 C343 1.524 . S
C344 C345 1.415 . S
C345 H315 0.950 . S
C345 C340 1.363 . S
C345 C344 1.415 . S
H346 C343 0.999 . S
H347 C328 0.913 . S
H348 C366 0.951 . S
H349 C368 0.951 . S
H350 C370 0.950 . S
H351 C371 0.950 . S
H352 C373 0.950 . S
H353 C376 0.950 . S
H354 C377 0.950 . S
H355 C379 0.950 . S
H356 C380 0.950 . S
H357 C381 0.951 . S
H358 C383 0.951 . S
H359 C385 0.950 . S
H360 C386 0.944 1_554 S
H361 C388 0.950 . S
H362 C391 0.950 . S
H363 C392 0.950 . S
H364 C394 0.950 . S
H365 C395 0.950 . S
C366 H348 0.951 . S
C366 C367 1.366 . S
C366 C368 1.388 . S
C367 C366 1.366 . S
C367 C371 1.385 1_554 S
C368 H349 0.951 . S
C368 C366 1.388 . S
C368 C369 1.366 . S
C369 C368 1.366 . S
C369 C370 1.414 1_554 S
C369 C372 1.499 . S
C370 H350 0.950 . S
C370 C369 1.414 1_556 S
C370 C371 1.374 . S
C371 H351 0.950 . S
C371 C367 1.385 1_556 S
C371 C370 1.374 . S
C372 C369 1.499 . S
C372 C373 1.373 1_554 S
C372 C374 1.389 . S
C373 H352 0.950 . S
C373 C372 1.373 1_556 S
C373 C389 1.377 . S
C374 C372 1.389 . S
C374 C375 1.524 . S
C374 C388 1.377 . S
C375 C374 1.524 . S
C375 C376 1.397 . S
C375 C380 1.363 . S
C376 H353 0.950 . S
C376 C375 1.397 . S
C376 C377 1.334 . S
C377 H354 0.950 . S
C377 C376 1.334 . S
C377 C378 1.287 . S
C378 C377 1.287 . S
C378 C379 1.524 . S
C378 H397 0.913 . S
C379 H355 0.950 . S
C379 C378 1.524 . S
C379 C380 1.415 . S
C380 H356 0.950 . S
C380 C375 1.363 . S
C380 C379 1.415 . S
C381 H357 0.951 . S
C381 C382 1.366 . S
C381 C383 1.388 . S
C382 C381 1.366 . S
C382 C386 1.392 . S
C383 H358 0.951 . S
C383 C381 1.388 . S
C383 C384 1.366 . S
C384 C383 1.366 . S
C384 C385 1.414 1_556 S
C384 C387 1.499 . S
C385 H359 0.950 . S
C385 C384 1.414 1_554 S
C385 C386 1.372 1_554 S
C386 H360 0.944 1_556 S
C386 C382 1.392 . S
C386 C385 1.372 1_556 S
C387 C384 1.499 . S
C387 C388 1.373 1_556 S
C387 C389 1.389 . S
C388 H361 0.950 . S
C388 C374 1.377 . S
C388 C387 1.373 1_554 S
C389 C373 1.377 . S
C389 C387 1.389 . S
C389 C390 1.524 . S
C390 C389 1.524 . S
C390 C391 1.397 . S
C390 C395 1.363 . S
C391 H362 0.950 . S
C391 C390 1.397 . S
C391 C392 1.334 . S
C392 H363 0.950 . S
C392 C391 1.334 . S
C392 C393 1.287 . S
C393 C392 1.287 . S
C393 C394 1.524 . S
C393 H396 0.999 . S
C394 H364 0.950 . S
C394 C393 1.524 . S
C394 C395 1.415 . S
C395 H365 0.950 . S
C395 C390 1.363 . S
C395 C394 1.415 . S
H396 C393 0.999 . S
H397 C378 0.913 . S
H398 C416 0.951 . S
H399 C418 0.951 . S
H400 C420 0.950 . S
H401 C421 0.950 1_554 S
H402 C423 0.950 . S
H403 C426 0.950 . S
H404 C427 0.950 . S
H405 C429 0.950 . S
H406 C430 0.950 . S
H407 C431 0.951 . S
H408 C433 0.951 . S
H409 C435 0.950 . S
H410 C436 0.937 1_556 S
H411 C438 0.950 . S
H412 C441 0.950 . S
H413 C442 0.950 . S
H414 C444 0.950 . S
H415 C445 0.950 . S
C416 H398 0.951 . S
C416 C417 1.366 . S
C416 C418 1.388 . S
C417 C416 1.366 . S
C417 C421 1.385 . S
C418 H399 0.951 . S
C418 C416 1.388 . S
C418 C419 1.366 . S
C419 C418 1.366 . S
C419 C420 1.414 1_556 S
C419 C422 1.499 . S
C420 H400 0.950 . S
C420 C419 1.414 1_554 S
C420 C421 1.374 1_554 S
C421 H401 0.950 1_556 S
C421 C417 1.385 . S
C421 C420 1.374 1_556 S
C422 C419 1.499 . S
C422 C423 1.373 . S
C422 C424 1.389 1_556 S
C423 H402 0.950 . S
C423 C422 1.373 . S
C423 C439 1.377 . S
C424 C422 1.389 1_554 S
C424 C425 1.525 . S
C424 C438 1.377 . S
C425 C424 1.525 . S
C425 C426 1.397 . S
C425 C430 1.363 1_554 S
C426 H403 0.950 . S
C426 C425 1.397 . S
C426 C427 1.334 . S
C427 H404 0.950 . S
C427 C426 1.334 . S
C427 C428 1.287 . S
C428 C427 1.287 . S
C428 C429 1.524 1_554 S
C428 H447 0.913 . S
C429 H405 0.950 . S
C429 C428 1.524 1_556 S
C429 C430 1.415 . S
C430 H406 0.950 . S
C430 C425 1.363 1_556 S
C430 C429 1.415 . S
C431 H407 0.951 . S
C431 C432 1.366 . S
C431 C433 1.388 . S
C432 C431 1.366 . S
C432 C436 1.403 . S
C433 H408 0.951 . S
C433 C431 1.388 . S
C433 C434 1.366 . S
C434 C433 1.366 . S
C434 C435 1.414 1_554 S
C434 C437 1.499 . S
C435 H409 0.950 . S
C435 C434 1.414 1_556 S
C435 C436 1.369 1_556 S
C436 H410 0.937 1_554 S
C436 C432 1.403 . S
C436 C435 1.369 1_554 S
C437 C434 1.499 . S
C437 C438 1.373 . S
C437 C439 1.389 1_554 S
C438 H411 0.950 . S
C438 C424 1.377 . S
C438 C437 1.373 . S
C439 C423 1.377 . S
C439 C437 1.389 1_556 S
C439 C440 1.524 . S
C440 C439 1.524 . S
C440 C441 1.397 . S
C440 C445 1.363 1_556 S
C441 H412 0.950 . S
C441 C440 1.397 . S
C441 C442 1.334 . S
C442 H413 0.950 . S
C442 C441 1.334 . S
C442 C443 1.287 . S
C443 C442 1.287 . S
C443 C444 1.524 1_556 S
C443 H446 0.999 . S
C444 H414 0.950 . S
C444 C443 1.524 1_554 S
C444 C445 1.415 . S
C445 H415 0.950 . S
C445 C440 1.363 1_554 S
C445 C444 1.415 . S
H446 C443 0.999 . S
H447 C428 0.913 . S
H448 C466 0.951 . S
H449 C468 0.951 . S
H450 C470 0.950 . S
H451 C471 0.950 . S
H452 C473 0.950 . S
H453 C476 0.950 . S
H454 C477 0.950 . S
H455 C479 0.950 . S
H456 C480 0.950 . S
H457 C481 0.951 . S
H458 C483 0.951 . S
H459 C485 0.950 . S
H460 C486 0.950 . S
H461 C488 0.950 . S
H462 C491 0.950 . S
H463 C492 0.950 . S
H464 C494 0.950 . S
H465 C495 0.950 . S
C466 H448 0.951 . S
C466 C467 1.366 . S
C466 C468 1.388 . S
C467 C466 1.366 . S
C467 C471 1.385 . S
C468 H449 0.951 . S
C468 C466 1.388 . S
C468 C469 1.366 . S
C469 C468 1.366 . S
C469 C470 1.414 . S
C469 C472 1.499 . S
C470 H450 0.950 . S
C470 C469 1.414 . S
C470 C471 1.374 . S
C471 H451 0.950 . S
C471 C467 1.385 . S
C471 C470 1.374 . S
C472 C469 1.499 . S
C472 C473 1.373 1_556 S
C472 C474 1.389 . S
C473 H452 0.950 . S
C473 C472 1.373 1_554 S
C473 C489 1.377 . S
C474 C472 1.389 . S
C474 C475 1.524 . S
C474 C488 1.377 . S
C475 C474 1.524 . S
C475 C476 1.397 . S
C475 C480 1.363 . S
C476 H453 0.950 . S
C476 C475 1.397 . S
C476 C477 1.334 . S
C477 H454 0.950 . S
C477 C476 1.334 . S
C477 C478 1.287 . S
C478 C477 1.287 . S
C478 C479 1.524 . S
C478 H497 0.913 . S
C479 H455 0.950 . S
C479 C478 1.524 . S
C479 C480 1.415 . S
C480 H456 0.950 . S
C480 C475 1.363 . S
C480 C479 1.415 . S
C481 H457 0.951 . S
C481 C482 1.366 . S
C481 C483 1.388 . S
C482 C481 1.366 . S
C482 C486 1.385 . S
C483 H458 0.951 . S
C483 C481 1.388 . S
C483 C484 1.366 . S
C484 C483 1.366 . S
C484 C485 1.414 . S
C484 C487 1.499 . S
C485 H459 0.950 . S
C485 C484 1.414 . S
C485 C486 1.374 . S
C486 H460 0.950 . S
C486 C482 1.385 . S
C486 C485 1.374 . S
C487 C484 1.499 . S
C487 C488 1.373 1_554 S
C487 C489 1.389 . S
C488 H461 0.950 . S
C488 C474 1.377 . S
C488 C487 1.373 1_556 S
C489 C473 1.377 . S
C489 C487 1.389 . S
C489 C490 1.524 . S
C490 C489 1.524 . S
C490 C491 1.397 . S
C490 C495 1.363 . S
C491 H462 0.950 . S
C491 C490 1.397 . S
C491 C492 1.334 . S
C492 H463 0.950 . S
C492 C491 1.334 . S
C492 C493 1.287 . S
C493 C492 1.287 . S
C493 C494 1.524 . S
C493 H496 0.999 . S
C494 H464 0.950 . S
C494 C493 1.524 . S
C494 C495 1.415 . S
C495 H465 0.950 . S
C495 C490 1.363 . S
C495 C494 1.415 . S
H496 C493 0.999 . S
H497 C478 0.913 . S
H498 C516 0.951 . S
H499 C518 0.951 . S
H500 C520 0.950 . S
H501 C521 0.950 . S
H502 C523 0.950 . S
H503 C526 0.950 . S
H504 C527 0.950 . S
H505 C529 0.950 . S
H506 C530 0.950 . S
H507 C531 0.951 . S
H508 C533 0.951 . S
H509 C535 0.950 . S
H510 C536 0.950 . S
H511 C538 0.950 1_455 S
H512 C541 0.950 . S
H513 C542 0.950 . S
H514 C544 0.950 . S
H515 C545 0.950 . S
C516 H498 0.951 . S
C516 C517 1.366 . S
C516 C518 1.388 . S
C517 C516 1.366 . S
C517 C521 1.385 . S
C518 H499 0.951 . S
C518 C516 1.388 . S
C518 C519 1.366 . S
C519 C518 1.366 . S
C519 C520 1.414 . S
C519 C522 1.499 . S
C520 H500 0.950 . S
C520 C519 1.414 . S
C520 C521 1.374 . S
C521 H501 0.950 . S
C521 C517 1.385 . S
C521 C520 1.374 . S
C522 C519 1.499 . S
C522 C523 1.373 . S
C522 C524 1.389 . S
C523 H502 0.950 . S
C523 C522 1.373 . S
C523 C539 1.377 . S
C524 C522 1.389 . S
C524 C525 1.524 . S
C524 C538 1.377 . S
C525 C524 1.524 . S
C525 C526 1.397 . S
C525 C530 1.363 . S
C526 H503 0.950 . S
C526 C525 1.397 . S
C526 C527 1.334 . S
C527 H504 0.950 . S
C527 C526 1.334 . S
C527 C528 1.287 . S
C528 C527 1.287 . S
C528 C529 1.524 . S
C528 H547 0.913 . S
C529 H505 0.950 . S
C529 C528 1.524 . S
C529 C530 1.415 . S
C530 H506 0.950 . S
C530 C525 1.363 . S
C530 C529 1.415 . S
C531 H507 0.951 . S
C531 C532 1.366 . S
C531 C533 1.388 . S
C532 C531 1.366 . S
C532 C536 1.385 . S
C533 H508 0.951 . S
C533 C531 1.388 . S
C533 C534 1.366 . S
C534 C533 1.366 . S
C534 C535 1.414 . S
C534 C537 1.499 1_455 S
C535 H509 0.950 . S
C535 C534 1.414 . S
C535 C536 1.374 . S
C536 H510 0.950 . S
C536 C532 1.385 . S
C536 C535 1.374 . S
C537 C534 1.499 1_655 S
C537 C538 1.373 . S
C537 C539 1.389 . S
C538 H511 0.950 1_655 S
C538 C524 1.377 . S
C538 C537 1.373 . S
C539 C523 1.377 . S
C539 C537 1.389 . S
C539 C540 1.524 . S
C540 C539 1.524 . S
C540 C541 1.397 . S
C540 C545 1.363 . S
C541 H512 0.950 . S
C541 C540 1.397 . S
C541 C542 1.334 . S
C542 H513 0.950 . S
C542 C541 1.334 . S
C542 C543 1.287 . S
C543 C542 1.287 . S
C543 C544 1.524 . S
C543 H546 0.999 . S
C544 H514 0.950 . S
C544 C543 1.524 . S
C544 C545 1.415 . S
C545 H515 0.950 . S
C545 C540 1.363 . S
C545 C544 1.415 . S
H546 C543 0.999 . S
H547 C528 0.913 . S
H548 C566 0.951 . S
H549 C568 0.951 . S
H550 C570 0.950 . S
H551 C571 0.950 . S
H552 C573 0.950 . S
H553 C576 0.950 . S
H554 C577 0.950 . S
H555 C579 0.950 . S
H556 C580 0.950 . S
H557 C581 0.951 . S
H558 C583 0.951 . S
H559 C585 0.950 . S
H560 C586 0.950 . S
H561 C588 0.950 . S
H562 C591 0.950 . S
H563 C592 0.950 . S
H564 C594 0.950 . S
H565 C595 0.950 . S
C566 H548 0.951 . S
C566 C567 1.366 . S
C566 C568 1.388 . S
C567 C566 1.366 . S
C567 C571 1.385 . S
C568 H549 0.951 . S
C568 C566 1.388 . S
C568 C569 1.366 . S
C569 C568 1.366 . S
C569 C570 1.414 . S
C569 C572 1.499 . S
C570 H550 0.950 . S
C570 C569 1.414 . S
C570 C571 1.374 . S
C571 H551 0.950 . S
C571 C567 1.385 . S
C571 C570 1.374 . S
C572 C569 1.499 . S
C572 C573 1.373 . S
C572 C574 1.389 . S
C573 H552 0.950 . S
C573 C572 1.373 . S
C573 C589 1.377 . S
C574 C572 1.389 . S
C574 C575 1.524 . S
C574 C588 1.377 . S
C575 C574 1.524 . S
C575 C576 1.397 . S
C575 C580 1.363 . S
C576 H553 0.950 . S
C576 C575 1.397 . S
C576 C577 1.334 . S
C577 H554 0.950 . S
C577 C576 1.334 . S
C577 C578 1.287 . S
C578 C577 1.287 . S
C578 C579 1.524 . S
C578 H597 0.913 . S
C579 H555 0.950 . S
C579 C578 1.524 . S
C579 C580 1.415 . S
C580 H556 0.950 . S
C580 C575 1.363 . S
C580 C579 1.415 . S
C581 H557 0.951 . S
C581 C582 1.366 . S
C581 C583 1.388 1_565 S
C582 C581 1.366 . S
C582 C586 1.385 1_565 S
C583 H558 0.951 . S
C583 C581 1.388 1_545 S
C583 C584 1.366 . S
C584 C583 1.366 . S
C584 C585 1.414 . S
C584 C587 1.499 . S
C585 H559 0.950 . S
C585 C584 1.414 . S
C585 C586 1.374 . S
C586 H560 0.950 . S
C586 C582 1.385 1_545 S
C586 C585 1.374 . S
C587 C584 1.499 . S
C587 C588 1.373 . S
C587 C589 1.389 . S
C588 H561 0.950 . S
C588 C574 1.377 . S
C588 C587 1.373 . S
C589 C573 1.377 . S
C589 C587 1.389 . S
C589 C590 1.524 . S
C590 C589 1.524 . S
C590 C591 1.397 . S
C590 C595 1.363 . S
C591 H562 0.950 . S
C591 C590 1.397 . S
C591 C592 1.334 . S
C592 H563 0.950 . S
C592 C591 1.334 . S
C592 C593 1.287 . S
C593 C592 1.287 . S
C593 C594 1.524 . S
C593 H596 0.999 . S
C594 H564 0.950 . S
C594 C593 1.524 . S
C594 C595 1.415 . S
C595 H565 0.950 . S
C595 C590 1.363 . S
C595 C594 1.415 . S
H596 C593 0.999 . S
H597 C578 0.913 . S
H598 C616 0.951 . S
H599 C618 0.951 . S
H600 C620 0.950 . S
H601 C621 0.950 . S
H602 C623 0.950 . S
H603 C626 0.950 . S
H604 C627 0.950 . S
H605 C629 0.950 . S
H606 C630 0.950 . S
H607 C631 0.951 . S
H608 C633 0.951 . S
H609 C635 0.950 1_545 S
H610 C636 0.950 . S
H611 C638 0.950 . S
H612 C641 0.950 1_545 S
H613 C642 0.950 . S
H614 C644 0.950 . S
H615 C645 0.950 . S
C616 H598 0.951 . S
C616 C617 1.366 1_655 S
C616 C618 1.388 . S
C617 C616 1.366 1_455 S
C617 C621 1.385 . S
C618 H599 0.951 . S
C618 C616 1.388 . S
C618 C619 1.366 . S
C619 C618 1.366 . S
C619 C620 1.414 . S
C619 C622 1.499 . S
C620 H600 0.950 . S
C620 C619 1.414 . S
C620 C621 1.374 1_655 S
C621 H601 0.950 . S
C621 C617 1.385 . S
C621 C620 1.374 1_455 S
C622 C619 1.499 . S
C622 C623 1.373 . S
C622 C624 1.389 . S
C623 H602 0.950 . S
C623 C622 1.373 . S
C623 C639 1.377 . S
C624 C622 1.389 . S
C624 C625 1.524 . S
C624 C638 1.377 . S
C625 C624 1.524 . S
C625 C626 1.397 . S
C625 C630 1.363 . S
C626 H603 0.950 . S
C626 C625 1.397 . S
C626 C627 1.334 . S
C627 H604 0.950 . S
C627 C626 1.334 . S
C627 C628 1.287 . S
C628 C627 1.287 . S
C628 C629 1.524 . S
C628 H647 0.913 . S
C629 H605 0.950 . S
C629 C628 1.524 . S
C629 C630 1.415 . S
C630 H606 0.950 . S
C630 C625 1.363 . S
C630 C629 1.415 . S
C631 H607 0.951 . S
C631 C632 1.366 . S
C631 C633 1.388 . S
C632 C631 1.366 . S
C632 C636 1.385 . S
C633 H608 0.951 . S
C633 C631 1.388 . S
C633 C634 1.366 . S
C634 C633 1.366 . S
C634 C635 1.414 . S
C634 C637 1.499 1_565 S
C635 H609 0.950 1_565 S
C635 C634 1.414 . S
C635 C636 1.374 . S
C636 H610 0.950 . S
C636 C632 1.385 . S
C636 C635 1.374 . S
C637 C634 1.499 1_545 S
C637 C638 1.373 . S
C637 C639 1.389 . S
C638 H611 0.950 . S
C638 C624 1.377 . S
C638 C637 1.373 . S
C639 C623 1.377 . S
C639 C637 1.389 . S
C639 C640 1.524 . S
C640 C639 1.524 . S
C640 C641 1.397 1_545 S
C640 C645 1.363 . S
C641 H612 0.950 1_565 S
C641 C640 1.397 1_565 S
C641 C642 1.334 . S
C642 H613 0.950 . S
C642 C641 1.334 . S
C642 C643 1.287 . S
C643 C642 1.287 . S
C643 C644 1.524 . S
C643 H646 0.999 . S
C644 H614 0.950 . S
C644 C643 1.524 . S
C644 C645 1.415 1_565 S
C645 H615 0.950 . S
C645 C640 1.363 . S
C645 C644 1.415 1_545 S
H646 C643 0.999 . S
H647 C628 0.913 . S
H648 C666 0.951 . S
H649 C668 0.951 . S
H650 C670 0.950 . S
H651 C671 0.950 . S
H652 C673 0.950 . S
H653 C676 0.950 . S
H654 C677 0.950 . S
H655 C679 0.950 . S
H656 C680 0.950 . S
H657 C681 0.951 . S
H658 C683 0.951 . S
H659 C685 0.950 . S
H660 C686 0.950 . S
H661 C688 0.950 . S
H662 C691 0.950 . S
H663 C692 0.950 . S
H664 C694 0.950 1_655 S
H665 C695 0.950 . S
C666 H648 0.951 . S
C666 C667 1.366 . S
C666 C668 1.388 . S
C667 C666 1.366 . S
C667 C671 1.385 . S
C668 H649 0.951 . S
C668 C666 1.388 . S
C668 C669 1.366 . S
C669 C668 1.366 . S
C669 C670 1.414 . S
C669 C672 1.499 . S
C670 H650 0.950 . S
C670 C669 1.414 . S
C670 C671 1.374 . S
C671 H651 0.950 . S
C671 C667 1.385 . S
C671 C670 1.374 . S
C672 C669 1.499 . S
C672 C673 1.373 . S
C672 C674 1.389 . S
C673 H652 0.950 . S
C673 C672 1.373 . S
C673 C689 1.377 . S
C674 C672 1.389 . S
C674 C675 1.524 . S
C674 C688 1.377 . S
C675 C674 1.524 . S
C675 C676 1.397 . S
C675 C680 1.363 . S
C676 H653 0.950 . S
C676 C675 1.397 . S
C676 C677 1.334 . S
C677 H654 0.950 . S
C677 C676 1.334 . S
C677 C678 1.287 . S
C678 C677 1.287 . S
C678 C679 1.524 . S
C678 H697 0.913 . S
C679 H655 0.950 . S
C679 C678 1.524 . S
C679 C680 1.415 . S
C680 H656 0.950 . S
C680 C675 1.363 . S
C680 C679 1.415 . S
C681 H657 0.951 . S
C681 C682 1.366 . S
C681 C683 1.388 . S
C682 C681 1.366 . S
C682 C686 1.385 . S
C683 H658 0.951 . S
C683 C681 1.388 . S
C683 C684 1.366 . S
C684 C683 1.366 . S
C684 C685 1.414 . S
C684 C687 1.499 . S
C685 H659 0.950 . S
C685 C684 1.414 . S
C685 C686 1.374 . S
C686 H660 0.950 . S
C686 C682 1.385 . S
C686 C685 1.374 . S
C687 C684 1.499 . S
C687 C688 1.373 . S
C687 C689 1.389 . S
C688 H661 0.950 . S
C688 C674 1.377 . S
C688 C687 1.373 . S
C689 C673 1.377 . S
C689 C687 1.389 . S
C689 C690 1.524 . S
C690 C689 1.524 . S
C690 C691 1.397 . S
C690 C695 1.363 . S
C691 H662 0.950 . S
C691 C690 1.397 . S
C691 C692 1.334 . S
C692 H663 0.950 . S
C692 C691 1.334 . S
C692 C693 1.287 . S
C693 C692 1.287 . S
C693 C694 1.524 . S
C693 H696 0.999 1_455 S
C694 H664 0.950 1_455 S
C694 C693 1.524 . S
C694 C695 1.415 . S
C695 H665 0.950 . S
C695 C690 1.363 . S
C695 C694 1.415 . S
H696 C693 0.999 1_655 S
H697 C678 0.913 . S
H698 C716 0.951 . S
H699 C718 0.951 . S
H700 C720 0.950 . S
H701 C721 0.950 . S
H702 C723 0.950 . S
H703 C726 0.950 . S
H704 C727 0.950 . S
H705 C729 0.950 . S
H706 C730 0.950 . S
H707 C731 0.951 . S
H708 C733 0.951 . S
H709 C735 0.950 . S
H710 C736 0.950 . S
H711 C738 0.950 . S
H712 C741 0.950 . S
H713 C742 0.950 . S
H714 C744 0.950 . S
H715 C745 0.950 . S
C716 H698 0.951 . S
C716 C717 1.366 . S
C716 C718 1.388 . S
C717 C716 1.366 . S
C717 C721 1.385 . S
C718 H699 0.951 . S
C718 C716 1.388 . S
C718 C719 1.366 . S
C719 C718 1.366 . S
C719 C720 1.414 . S
C719 C722 1.499 . S
C720 H700 0.950 . S
C720 C719 1.414 . S
C720 C721 1.374 . S
C721 H701 0.950 . S
C721 C717 1.385 . S
C721 C720 1.374 . S
C722 C719 1.499 . S
C722 C723 1.373 . S
C722 C724 1.389 . S
C723 H702 0.950 . S
C723 C722 1.373 . S
C723 C739 1.377 . S
C724 C722 1.389 . S
C724 C725 1.524 . S
C724 C738 1.377 . S
C725 C724 1.524 . S
C725 C726 1.397 . S
C725 C730 1.363 . S
C726 H703 0.950 . S
C726 C725 1.397 . S
C726 C727 1.334 . S
C727 H704 0.950 . S
C727 C726 1.334 . S
C727 C728 1.287 . S
C728 C727 1.287 . S
C728 C729 1.524 . S
C728 H747 0.913 . S
C729 H705 0.950 . S
C729 C728 1.524 . S
C729 C730 1.415 . S
C730 H706 0.950 . S
C730 C725 1.363 . S
C730 C729 1.415 . S
C731 H707 0.951 . S
C731 C732 1.366 . S
C731 C733 1.388 . S
C732 C731 1.366 . S
C732 C736 1.385 . S
C733 H708 0.951 . S
C733 C731 1.388 . S
C733 C734 1.366 . S
C734 C733 1.366 . S
C734 C735 1.414 . S
C734 C737 1.499 . S
C735 H709 0.950 . S
C735 C734 1.414 . S
C735 C736 1.374 . S
C736 H710 0.950 . S
C736 C732 1.385 . S
C736 C735 1.374 . S
C737 C734 1.499 . S
C737 C738 1.373 . S
C737 C739 1.389 . S
C738 H711 0.950 . S
C738 C724 1.377 . S
C738 C737 1.373 . S
C739 C723 1.377 . S
C739 C737 1.389 . S
C739 C740 1.524 . S
C740 C739 1.524 . S
C740 C741 1.397 . S
C740 C745 1.363 . S
C741 H712 0.950 . S
C741 C740 1.397 . S
C741 C742 1.334 . S
C742 H713 0.950 . S
C742 C741 1.334 . S
C742 C743 1.287 . S
C743 C742 1.287 . S
C743 C744 1.524 . S
C743 H746 0.999 . S
C744 H714 0.950 . S
C744 C743 1.524 . S
C744 C745 1.415 . S
C745 H715 0.950 . S
C745 C740 1.363 . S
C745 C744 1.415 . S
H746 C743 0.999 . S
H747 C728 0.913 . S
H748 C766 0.951 . S
H749 C768 0.951 . S
H750 C770 0.950 . S
H751 C771 0.950 . S
H752 C773 0.950 . S
H753 C776 0.950 . S
H754 C777 0.950 . S
H755 C779 0.950 . S
H756 C780 0.950 . S
H757 C781 0.951 . S
H758 C783 0.951 . S
H759 C785 0.950 . S
H760 C786 0.950 . S
H761 C788 0.950 . S
H762 C791 0.950 . S
H763 C792 0.950 . S
H764 C794 0.950 . S
H765 C795 0.950 . S
C766 H748 0.951 . S
C766 C767 1.366 . S
C766 C768 1.388 . S
C767 C766 1.366 . S
C767 C771 1.385 . S
C768 H749 0.951 . S
C768 C766 1.388 . S
C768 C769 1.366 . S
C769 C768 1.366 . S
C769 C770 1.414 . S
C769 C772 1.499 . S
C770 H750 0.950 . S
C770 C769 1.414 . S
C770 C771 1.374 . S
C771 H751 0.950 . S
C771 C767 1.385 . S
C771 C770 1.374 . S
C772 C769 1.499 . S
C772 C773 1.373 . S
C772 C774 1.389 . S
C773 H752 0.950 . S
C773 C772 1.373 . S
C773 C789 1.377 . S
C774 C772 1.389 . S
C774 C775 1.524 . S
C774 C788 1.377 . S
C775 C774 1.524 . S
C775 C776 1.397 . S
C775 C780 1.363 . S
C776 H753 0.950 . S
C776 C775 1.397 . S
C776 C777 1.334 . S
C777 H754 0.950 . S
C777 C776 1.334 . S
C777 C778 1.287 1_565 S
C778 C777 1.287 1_545 S
C778 C779 1.524 . S
C778 H797 0.913 . S
C779 H755 0.950 . S
C779 C778 1.524 . S
C779 C780 1.415 1_545 S
C780 H756 0.950 . S
C780 C775 1.363 . S
C780 C779 1.415 1_565 S
C781 H757 0.951 . S
C781 C782 1.366 . S
C781 C783 1.388 . S
C782 C781 1.366 . S
C782 C786 1.385 . S
C783 H758 0.951 . S
C783 C781 1.388 . S
C783 C784 1.366 . S
C784 C783 1.366 . S
C784 C785 1.414 . S
C784 C787 1.499 . S
C785 H759 0.950 . S
C785 C784 1.414 . S
C785 C786 1.374 . S
C786 H760 0.950 . S
C786 C782 1.385 . S
C786 C785 1.374 . S
C787 C784 1.499 . S
C787 C788 1.373 . S
C787 C789 1.389 . S
C788 H761 0.950 . S
C788 C774 1.377 . S
C788 C787 1.373 . S
C789 C773 1.377 . S
C789 C787 1.389 . S
C789 C790 1.524 . S
C790 C789 1.524 . S
C790 C791 1.397 . S
C790 C795 1.363 . S
C791 H762 0.950 . S
C791 C790 1.397 . S
C791 C792 1.334 . S
C792 H763 0.950 . S
C792 C791 1.334 . S
C792 C793 1.287 . S
C793 C792 1.287 . S
C793 C794 1.524 . S
C793 H796 0.999 . S
C794 H764 0.950 . S
C794 C793 1.524 . S
C794 C795 1.415 . S
C795 H765 0.950 . S
C795 C790 1.363 . S
C795 C794 1.415 . S
H796 C793 0.999 . S
H797 C778 0.913 . S
H798 C816 0.951 . S
H799 C818 0.951 . S
H800 C820 0.950 . S
H801 C821 0.950 . S
H802 C823 0.950 . S
H803 C826 0.950 . S
H804 C827 0.950 . S
H805 C829 0.950 . S
H806 C830 0.950 . S
H807 C831 0.951 . S
H808 C833 0.951 . S
H809 C835 0.950 . S
H810 C836 0.950 . S
H811 C838 0.950 . S
H812 C841 0.950 . S
H813 C842 0.950 . S
H814 C844 0.950 . S
H815 C845 0.950 . S
C816 H798 0.951 . S
C816 C817 1.366 . S
C816 C818 1.388 . S
C817 C816 1.366 . S
C817 C821 1.385 . S
C818 H799 0.951 . S
C818 C816 1.388 . S
C818 C819 1.366 . S
C819 C818 1.366 . S
C819 C820 1.414 . S
C819 C822 1.499 . S
C820 H800 0.950 . S
C820 C819 1.414 . S
C820 C821 1.374 . S
C821 H801 0.950 . S
C821 C817 1.385 . S
C821 C820 1.374 . S
C822 C819 1.499 . S
C822 C823 1.373 . S
C822 C824 1.389 . S
C823 H802 0.950 . S
C823 C822 1.373 . S
C823 C839 1.377 . S
C824 C822 1.389 . S
C824 C825 1.524 . S
C824 C838 1.377 . S
C825 C824 1.524 . S
C825 C826 1.397 . S
C825 C830 1.363 . S
C826 H803 0.950 . S
C826 C825 1.397 . S
C826 C827 1.334 . S
C827 H804 0.950 . S
C827 C826 1.334 . S
C827 C828 1.287 . S
C828 C827 1.287 . S
C828 C829 1.524 . S
C828 H847 0.913 . S
C829 H805 0.950 . S
C829 C828 1.524 . S
C829 C830 1.415 . S
C830 H806 0.950 . S
C830 C825 1.363 . S
C830 C829 1.415 . S
C831 H807 0.951 . S
C831 C832 1.366 . S
C831 C833 1.388 . S
C832 C831 1.366 . S
C832 C836 1.385 . S
C833 H808 0.951 . S
C833 C831 1.388 . S
C833 C834 1.366 . S
C834 C833 1.366 . S
C834 C835 1.414 . S
C834 C837 1.499 . S
C835 H809 0.950 . S
C835 C834 1.414 . S
C835 C836 1.374 . S
C836 H810 0.950 . S
C836 C832 1.385 . S
C836 C835 1.374 . S
C837 C834 1.499 . S
C837 C838 1.373 . S
C837 C839 1.389 . S
C838 H811 0.950 . S
C838 C824 1.377 . S
C838 C837 1.373 . S
C839 C823 1.377 . S
C839 C837 1.389 . S
C839 C840 1.524 . S
C840 C839 1.524 . S
C840 C841 1.397 . S
C840 C845 1.363 . S
C841 H812 0.950 . S
C841 C840 1.397 . S
C841 C842 1.334 . S
C842 H813 0.950 . S
C842 C841 1.334 . S
C842 C843 1.287 . S
C843 C842 1.287 . S
C843 C844 1.524 . S
C843 H846 0.999 . S
C844 H814 0.950 . S
C844 C843 1.524 . S
C844 C845 1.415 . S
C845 H815 0.950 . S
C845 C840 1.363 . S
C845 C844 1.415 . S
H846 C843 0.999 . S
H847 C828 0.913 . S
H848 C866 0.951 . S
H849 C868 0.951 . S
H850 C870 0.950 . S
H851 C871 0.950 . S
H852 C873 0.950 . S
H853 C876 0.950 . S
H854 C877 0.950 . S
H855 C879 0.950 . S
H856 C880 0.950 . S
H857 C881 0.951 . S
H858 C883 0.951 . S
H859 C885 0.950 . S
H860 C886 0.950 . S
H861 C888 0.950 . S
H862 C891 0.950 . S
H863 C892 0.950 . S
H864 C894 0.950 . S
H865 C895 0.950 . S
C866 H848 0.951 . S
C866 C867 1.366 . S
C866 C868 1.388 . S
C867 C866 1.366 . S
C867 C871 1.385 . S
C868 H849 0.951 . S
C868 C866 1.388 . S
C868 C869 1.366 . S
C869 C868 1.366 . S
C869 C870 1.414 . S
C869 C872 1.499 . S
C870 H850 0.950 . S
C870 C869 1.414 . S
C870 C871 1.374 . S
C871 H851 0.950 . S
C871 C867 1.385 . S
C871 C870 1.374 . S
C872 C869 1.499 . S
C872 C873 1.373 . S
C872 C874 1.389 . S
C873 H852 0.950 . S
C873 C872 1.373 . S
C873 C889 1.377 . S
C874 C872 1.389 . S
C874 C875 1.524 . S
C874 C888 1.377 . S
C875 C874 1.524 . S
C875 C876 1.397 . S
C875 C880 1.363 . S
C876 H853 0.950 . S
C876 C875 1.397 . S
C876 C877 1.334 . S
C877 H854 0.950 . S
C877 C876 1.334 . S
C877 C878 1.287 . S
C878 C877 1.287 . S
C878 C879 1.524 . S
C878 H897 0.913 . S
C879 H855 0.950 . S
C879 C878 1.524 . S
C879 C880 1.415 . S
C880 H856 0.950 . S
C880 C875 1.363 . S
C880 C879 1.415 . S
C881 H857 0.951 . S
C881 C882 1.366 . S
C881 C883 1.388 . S
C882 C881 1.366 . S
C882 C886 1.385 . S
C883 H858 0.951 . S
C883 C881 1.388 . S
C883 C884 1.366 . S
C884 C883 1.366 . S
C884 C885 1.414 . S
C884 C887 1.499 . S
C885 H859 0.950 . S
C885 C884 1.414 . S
C885 C886 1.374 . S
C886 H860 0.950 . S
C886 C882 1.385 . S
C886 C885 1.374 . S
C887 C884 1.499 . S
C887 C888 1.373 . S
C887 C889 1.389 . S
C888 H861 0.950 . S
C888 C874 1.377 . S
C888 C887 1.373 . S
C889 C873 1.377 . S
C889 C887 1.389 . S
C889 C890 1.524 . S
C890 C889 1.524 . S
C890 C891 1.397 . S
C890 C895 1.363 . S
C891 H862 0.950 . S
C891 C890 1.397 . S
C891 C892 1.334 . S
C892 H863 0.950 . S
C892 C891 1.334 . S
C892 C893 1.287 . S
C893 C892 1.287 . S
C893 C894 1.524 . S
C893 H896 0.999 . S
C894 H864 0.950 . S
C894 C893 1.524 . S
C894 C895 1.415 . S
C895 H865 0.950 . S
C895 C890 1.363 . S
C895 C894 1.415 . S
H896 C893 0.999 . S
H897 C878 0.913 . S
H898 C916 0.951 . S
H899 C918 0.951 . S
H900 C920 0.950 . S
H901 C921 0.950 . S
H902 C923 0.950 . S
H903 C926 0.950 . S
H904 C927 0.950 . S
H905 C929 0.950 . S
H906 C930 0.950 . S
H907 C931 0.951 . S
H908 C933 0.951 . S
H909 C935 0.950 . S
H910 C936 0.950 . S
H911 C938 0.950 . S
H912 C941 0.950 . S
H913 C942 0.950 . S
H914 C944 0.950 . S
H915 C945 0.950 . S
C916 H898 0.951 . S
C916 C917 1.366 . S
C916 C918 1.388 . S
C917 C916 1.366 . S
C917 C921 1.385 . S
C918 H899 0.951 . S
C918 C916 1.388 . S
C918 C919 1.366 . S
C919 C918 1.366 . S
C919 C920 1.414 . S
C919 C922 1.499 . S
C920 H900 0.950 . S
C920 C919 1.414 . S
C920 C921 1.374 . S
C921 H901 0.950 . S
C921 C917 1.385 . S
C921 C920 1.374 . S
C922 C919 1.499 . S
C922 C923 1.373 . S
C922 C924 1.389 . S
C923 H902 0.950 . S
C923 C922 1.373 . S
C923 C939 1.377 . S
C924 C922 1.389 . S
C924 C925 1.524 . S
C924 C938 1.377 . S
C925 C924 1.524 . S
C925 C926 1.397 . S
C925 C930 1.363 . S
C926 H903 0.950 . S
C926 C925 1.397 . S
C926 C927 1.334 . S
C927 H904 0.950 . S
C927 C926 1.334 . S
C927 C928 1.287 . S
C928 C927 1.287 . S
C928 C929 1.524 . S
C928 H947 0.913 . S
C929 H905 0.950 . S
C929 C928 1.524 . S
C929 C930 1.415 . S
C930 H906 0.950 . S
C930 C925 1.363 . S
C930 C929 1.415 . S
C931 H907 0.951 . S
C931 C932 1.366 . S
C931 C933 1.388 . S
C932 C931 1.366 . S
C932 C936 1.385 . S
C933 H908 0.951 . S
C933 C931 1.388 . S
C933 C934 1.366 . S
C934 C933 1.366 . S
C934 C935 1.414 . S
C934 C937 1.499 . S
C935 H909 0.950 . S
C935 C934 1.414 . S
C935 C936 1.374 . S
C936 H910 0.950 . S
C936 C932 1.385 . S
C936 C935 1.374 . S
C937 C934 1.499 . S
C937 C938 1.373 . S
C937 C939 1.389 . S
C938 H911 0.950 . S
C938 C924 1.377 . S
C938 C937 1.373 . S
C939 C923 1.377 . S
C939 C937 1.389 . S
C939 C940 1.524 . S
C940 C939 1.524 . S
C940 C941 1.397 . S
C940 C945 1.363 . S
C941 H912 0.950 . S
C941 C940 1.397 . S
C941 C942 1.334 . S
C942 H913 0.950 . S
C942 C941 1.334 . S
C942 C943 1.287 . S
C943 C942 1.287 . S
C943 C944 1.524 . S
C943 H946 0.999 . S
C944 H914 0.950 . S
C944 C943 1.524 . S
C944 C945 1.415 . S
C945 H915 0.950 . S
C945 C940 1.363 . S
C945 C944 1.415 . S
H946 C943 0.999 . S
H947 C928 0.913 . S
H948 C966 0.951 . S
H949 C968 0.951 . S
H950 C970 0.950 . S
H951 C971 0.950 . S
H952 C973 0.950 . S
H953 C976 0.950 . S
H954 C977 0.950 . S
H955 C979 0.950 . S
H956 C980 0.950 . S
H957 C981 0.951 . S
H958 C983 0.951 . S
H959 C985 0.950 . S
H960 C986 0.950 . S
H961 C988 0.950 . S
H962 C991 0.950 . S
H963 C992 0.950 . S
H964 C994 0.950 . S
H965 C995 0.950 1_565 S
C966 H948 0.951 . S
C966 C967 1.366 . S
C966 C968 1.388 . S
C967 C966 1.366 . S
C967 C971 1.385 . S
C968 H949 0.951 . S
C968 C966 1.388 . S
C968 C969 1.366 . S
C969 C968 1.366 . S
C969 C970 1.414 . S
C969 C972 1.499 . S
C970 H950 0.950 . S
C970 C969 1.414 . S
C970 C971 1.374 . S
C971 H951 0.950 . S
C971 C967 1.385 . S
C971 C970 1.374 . S
C972 C969 1.499 . S
C972 C973 1.373 . S
C972 C974 1.389 . S
C973 H952 0.950 . S
C973 C972 1.373 . S
C973 C989 1.377 . S
C974 C972 1.389 . S
C974 C975 1.524 . S
C974 C988 1.377 . S
C975 C974 1.524 . S
C975 C976 1.397 . S
C975 C980 1.363 . S
C976 H953 0.950 . S
C976 C975 1.397 . S
C976 C977 1.334 . S
C977 H954 0.950 . S
C977 C976 1.334 . S
C977 C978 1.287 . S
C978 C977 1.287 . S
C978 C979 1.524 . S
C978 H997 0.913 . S
C979 H955 0.950 . S
C979 C978 1.524 . S
C979 C980 1.415 . S
C980 H956 0.950 . S
C980 C975 1.363 . S
C980 C979 1.415 . S
C981 H957 0.951 . S
C981 C982 1.366 . S
C981 C983 1.388 . S
C982 C981 1.366 . S
C982 C986 1.385 . S
C983 H958 0.951 . S
C983 C981 1.388 . S
C983 C984 1.366 . S
C984 C983 1.366 . S
C984 C985 1.414 . S
C984 C987 1.499 1_545 S
C985 H959 0.950 . S
C985 C984 1.414 . S
C985 C986 1.374 . S
C986 H960 0.950 . S
C986 C982 1.385 . S
C986 C985 1.374 . S
C987 C984 1.499 1_565 S
C987 C988 1.373 . S
C987 C989 1.389 . S
C988 H961 0.950 . S
C988 C974 1.377 . S
C988 C987 1.373 . S
C989 C973 1.377 . S
C989 C987 1.389 . S
C989 C990 1.524 1_565 S
C990 C989 1.524 1_545 S
C990 C991 1.397 . S
C990 C995 1.363 . S
C991 H962 0.950 . S
C991 C990 1.397 . S
C991 C992 1.334 . S
C992 H963 0.950 . S
C992 C991 1.334 . S
C992 C993 1.287 . S
C993 C992 1.287 . S
C993 C994 1.524 . S
C993 H996 0.999 . S
C994 H964 0.950 . S
C994 C993 1.524 . S
C994 C995 1.415 . S
C995 H965 0.950 1_545 S
C995 C990 1.363 . S
C995 C994 1.415 . S
H996 C993 0.999 . S
H997 C978 0.913 . S
H998 C1016 0.951 . S
H999 C1018 0.951 . S
H1000 C1020 0.950 1_455 S
H1001 C1021 0.950 . S
H1002 C1023 0.950 . S
H1003 C1026 0.950 . S
H1004 C1027 0.950 . S
H1005 C1029 0.950 . S
H1006 C1030 0.950 . S
H1007 C1031 0.951 . S
H1008 C1033 0.951 . S
H1009 C1035 0.950 . S
H1010 C1036 0.950 . S
H1011 C1038 0.950 . S
H1012 C1041 0.950 . S
H1013 C1042 0.950 . S
H1014 C1044 0.950 . S
H1015 C1045 0.950 . S
C1016 H998 0.951 . S
C1016 C1017 1.366 . S
C1016 C1018 1.388 . S
C1017 C1016 1.366 . S
C1017 C1021 1.385 . S
C1018 H999 0.951 . S
C1018 C1016 1.388 . S
C1018 C1019 1.366 . S
C1019 C1018 1.366 . S
C1019 C1020 1.414 . S
C1019 C1022 1.499 1_655 S
C1020 H1000 0.950 1_655 S
C1020 C1019 1.414 . S
C1020 C1021 1.374 . S
C1021 H1001 0.950 . S
C1021 C1017 1.385 . S
C1021 C1020 1.374 . S
C1022 C1019 1.499 1_455 S
C1022 C1023 1.373 . S
C1022 C1024 1.389 . S
C1023 H1002 0.950 . S
C1023 C1022 1.373 . S
C1023 C1039 1.377 . S
C1024 C1022 1.389 . S
C1024 C1025 1.524 . S
C1024 C1038 1.377 . S
C1025 C1024 1.524 . S
C1025 C1026 1.397 . S
C1025 C1030 1.363 . S
C1026 H1003 0.950 . S
C1026 C1025 1.397 . S
C1026 C1027 1.334 1_455 S
C1027 H1004 0.950 . S
C1027 C1026 1.334 1_655 S
C1027 C1028 1.287 . S
C1028 C1027 1.287 . S
C1028 C1029 1.524 . S
C1028 H1047 0.913 . S
C1029 H1005 0.950 . S
C1029 C1028 1.524 . S
C1029 C1030 1.415 1_655 S
C1030 H1006 0.950 . S
C1030 C1025 1.363 . S
C1030 C1029 1.415 1_455 S
C1031 H1007 0.951 . S
C1031 C1032 1.366 1_565 S
C1031 C1033 1.388 . S
C1032 C1031 1.366 1_545 S
C1032 C1036 1.385 . S
C1033 H1008 0.951 . S
C1033 C1031 1.388 . S
C1033 C1034 1.366 . S
C1034 C1033 1.366 . S
C1034 C1035 1.414 . S
C1034 C1037 1.499 . S
C1035 H1009 0.950 . S
C1035 C1034 1.414 . S
C1035 C1036 1.374 1_565 S
C1036 H1010 0.950 . S
C1036 C1032 1.385 . S
C1036 C1035 1.374 1_545 S
C1037 C1034 1.499 . S
C1037 C1038 1.373 . S
C1037 C1039 1.389 . S
C1038 H1011 0.950 . S
C1038 C1024 1.377 . S
C1038 C1037 1.373 . S
C1039 C1023 1.377 . S
C1039 C1037 1.389 . S
C1039 C1040 1.524 . S
C1040 C1039 1.524 . S
C1040 C1041 1.397 . S
C1040 C1045 1.363 . S
C1041 H1012 0.950 . S
C1041 C1040 1.397 . S
C1041 C1042 1.334 . S
C1042 H1013 0.950 . S
C1042 C1041 1.334 . S
C1042 C1043 1.287 . S
C1043 C1042 1.287 . S
C1043 C1044 1.524 . S
C1043 H1046 0.999 . S
C1044 H1014 0.950 . S
C1044 C1043 1.524 . S
C1044 C1045 1.415 . S
C1045 H1015 0.950 . S
C1045 C1040 1.363 . S
C1045 C1044 1.415 . S
H1046 C1043 0.999 . S
H1047 C1028 0.913 . S
H1048 C1066 0.951 . S
H1049 C1068 0.951 . S
H1050 C1070 0.950 . S
H1051 C1071 0.950 . S
H1052 C1073 0.950 . S
H1053 C1076 0.950 . S
H1054 C1077 0.950 . S
H1055 C1079 0.950 . S
H1056 C1080 0.950 . S
H1057 C1081 0.951 1_655 S
H1058 C1083 0.951 . S
H1059 C1085 0.950 . S
H1060 C1086 0.950 . S
H1061 C1088 0.950 . S
H1062 C1091 0.950 . S
H1063 C1092 0.950 . S
H1064 C1094 0.950 . S
H1065 C1095 0.950 . S
C1066 H1048 0.951 . S
C1066 C1067 1.366 . S
C1066 C1068 1.388 . S
C1067 C1066 1.366 . S
C1067 C1071 1.385 . S
C1068 H1049 0.951 . S
C1068 C1066 1.388 . S
C1068 C1069 1.366 . S
C1069 C1068 1.366 . S
C1069 C1070 1.414 . S
C1069 C1072 1.499 . S
C1070 H1050 0.950 . S
C1070 C1069 1.414 . S
C1070 C1071 1.374 . S
C1071 H1051 0.950 . S
C1071 C1067 1.385 . S
C1071 C1070 1.374 . S
C1072 C1069 1.499 . S
C1072 C1073 1.373 . S
C1072 C1074 1.389 . S
C1073 H1052 0.950 . S
C1073 C1072 1.373 . S
C1073 C1089 1.377 . S
C1074 C1072 1.389 . S
C1074 C1075 1.524 . S
C1074 C1088 1.377 . S
C1075 C1074 1.524 . S
C1075 C1076 1.397 . S
C1075 C1080 1.363 . S
C1076 H1053 0.950 . S
C1076 C1075 1.397 . S
C1076 C1077 1.334 . S
C1077 H1054 0.950 . S
C1077 C1076 1.334 . S
C1077 C1078 1.287 . S
C1078 C1077 1.287 . S
C1078 C1079 1.524 . S
C1078 H1097 0.913 . S
C1079 H1055 0.950 . S
C1079 C1078 1.524 . S
C1079 C1080 1.415 . S
C1080 H1056 0.950 . S
C1080 C1075 1.363 . S
C1080 C1079 1.415 . S
C1081 H1057 0.951 1_455 S
C1081 C1082 1.366 1_455 S
C1081 C1083 1.388 . S
C1082 C1081 1.366 1_655 S
C1082 C1086 1.385 1_655 S
C1083 H1058 0.951 . S
C1083 C1081 1.388 . S
C1083 C1084 1.366 . S
C1084 C1083 1.366 . S
C1084 C1085 1.414 . S
C1084 C1087 1.499 . S
C1085 H1059 0.950 . S
C1085 C1084 1.414 . S
C1085 C1086 1.374 . S
C1086 H1060 0.950 . S
C1086 C1082 1.385 1_455 S
C1086 C1085 1.374 . S
C1087 C1084 1.499 . S
C1087 C1088 1.373 . S
C1087 C1089 1.389 . S
C1088 H1061 0.950 . S
C1088 C1074 1.377 . S
C1088 C1087 1.373 . S
C1089 C1073 1.377 . S
C1089 C1087 1.389 . S
C1089 C1090 1.524 . S
C1090 C1089 1.524 . S
C1090 C1091 1.397 . S
C1090 C1095 1.363 . S
C1091 H1062 0.950 . S
C1091 C1090 1.397 . S
C1091 C1092 1.334 . S
C1092 H1063 0.950 . S
C1092 C1091 1.334 . S
C1092 C1093 1.287 . S
C1093 C1092 1.287 . S
C1093 C1094 1.524 . S
C1093 H1096 0.999 . S
C1094 H1064 0.950 . S
C1094 C1093 1.524 . S
C1094 C1095 1.415 . S
C1095 H1065 0.950 . S
C1095 C1090 1.363 . S
C1095 C1094 1.415 . S
H1096 C1093 0.999 . S
H1097 C1078 0.913 . S
H1098 C1116 0.951 . S
H1099 C1118 0.951 . S
H1100 C1120 0.950 . S
H1101 C1121 0.950 . S
H1102 C1123 0.950 . S
H1103 C1126 0.950 . S
H1104 C1127 0.950 . S
H1105 C1129 0.950 . S
H1106 C1130 0.950 . S
H1107 C1131 0.951 . S
H1108 C1133 0.951 . S
H1109 C1135 0.950 . S
H1110 C1136 0.950 . S
H1111 C1138 0.950 . S
H1112 C1141 0.950 . S
H1113 C1142 0.950 . S
H1114 C1144 0.950 . S
H1115 C1145 0.950 . S
C1116 H1098 0.951 . S
C1116 C1117 1.366 . S
C1116 C1118 1.388 . S
C1117 C1116 1.366 . S
C1117 C1121 1.385 . S
C1118 H1099 0.951 . S
C1118 C1116 1.388 . S
C1118 C1119 1.366 . S
C1119 C1118 1.366 . S
C1119 C1120 1.414 . S
C1119 C1122 1.499 . S
C1120 H1100 0.950 . S
C1120 C1119 1.414 . S
C1120 C1121 1.374 . S
C1121 H1101 0.950 . S
C1121 C1117 1.385 . S
C1121 C1120 1.374 . S
C1122 C1119 1.499 . S
C1122 C1123 1.373 . S
C1122 C1124 1.389 . S
C1123 H1102 0.950 . S
C1123 C1122 1.373 . S
C1123 C1139 1.377 . S
C1124 C1122 1.389 . S
C1124 C1125 1.524 . S
C1124 C1138 1.377 . S
C1125 C1124 1.524 . S
C1125 C1126 1.397 . S
C1125 C1130 1.363 . S
C1126 H1103 0.950 . S
C1126 C1125 1.397 . S
C1126 C1127 1.334 . S
C1127 H1104 0.950 . S
C1127 C1126 1.334 . S
C1127 C1128 1.287 . S
C1128 C1127 1.287 . S
C1128 C1129 1.524 . S
C1128 H1147 0.913 . S
C1129 H1105 0.950 . S
C1129 C1128 1.524 . S
C1129 C1130 1.415 . S
C1130 H1106 0.950 . S
C1130 C1125 1.363 . S
C1130 C1129 1.415 . S
C1131 H1107 0.951 . S
C1131 C1132 1.366 . S
C1131 C1133 1.388 . S
C1132 C1131 1.366 . S
C1132 C1136 1.385 . S
C1133 H1108 0.951 . S
C1133 C1131 1.388 . S
C1133 C1134 1.366 . S
C1134 C1133 1.366 . S
C1134 C1135 1.414 . S
C1134 C1137 1.499 . S
C1135 H1109 0.950 . S
C1135 C1134 1.414 . S
C1135 C1136 1.374 . S
C1136 H1110 0.950 . S
C1136 C1132 1.385 . S
C1136 C1135 1.374 . S
C1137 C1134 1.499 . S
C1137 C1138 1.373 . S
C1137 C1139 1.389 . S
C1138 H1111 0.950 . S
C1138 C1124 1.377 . S
C1138 C1137 1.373 . S
C1139 C1123 1.377 . S
C1139 C1137 1.389 . S
C1139 C1140 1.524 1_455 S
C1140 C1139 1.524 1_655 S
C1140 C1141 1.397 . S
C1140 C1145 1.363 . S
C1141 H1112 0.950 . S
C1141 C1140 1.397 . S
C1141 C1142 1.334 . S
C1142 H1113 0.950 . S
C1142 C1141 1.334 . S
C1142 C1143 1.287 . S
C1143 C1142 1.287 . S
C1143 C1144 1.524 . S
C1143 H1146 0.999 . S
C1144 H1114 0.950 . S
C1144 C1143 1.524 . S
C1144 C1145 1.415 . S
C1145 H1115 0.950 . S
C1145 C1140 1.363 . S
C1145 C1144 1.415 . S
H1146 C1143 0.999 . S
H1147 C1128 0.913 . S
H1148 C1166 0.951 . S
H1149 C1168 0.951 . S
H1150 C1170 0.950 . S
H1151 C1171 0.950 . S
H1152 C1173 0.950 . S
H1153 C1176 0.950 . S
H1154 C1177 0.950 . S
H1155 C1179 0.950 . S
H1156 C1180 0.950 . S
H1157 C1181 0.951 . S
H1158 C1183 0.951 . S
H1159 C1185 0.950 . S
H1160 C1186 0.950 . S
H1161 C1188 0.950 . S
H1162 C1191 0.950 . S
H1163 C1192 0.950 . S
H1164 C1194 0.950 . S
H1165 C1195 0.950 . S
C1166 H1148 0.951 . S
C1166 C1167 1.366 . S
C1166 C1168 1.388 . S
C1167 C1166 1.366 . S
C1167 C1171 1.385 . S
C1168 H1149 0.951 . S
C1168 C1166 1.388 . S
C1168 C1169 1.366 . S
C1169 C1168 1.366 . S
C1169 C1170 1.414 . S
C1169 C1172 1.499 . S
C1170 H1150 0.950 . S
C1170 C1169 1.414 . S
C1170 C1171 1.374 . S
C1171 H1151 0.950 . S
C1171 C1167 1.385 . S
C1171 C1170 1.374 . S
C1172 C1169 1.499 . S
C1172 C1173 1.373 . S
C1172 C1174 1.389 . S
C1173 H1152 0.950 . S
C1173 C1172 1.373 . S
C1173 C1189 1.377 . S
C1174 C1172 1.389 . S
C1174 C1175 1.524 . S
C1174 C1188 1.377 . S
C1175 C1174 1.524 . S
C1175 C1176 1.397 . S
C1175 C1180 1.363 . S
C1176 H1153 0.950 . S
C1176 C1175 1.397 . S
C1176 C1177 1.334 . S
C1177 H1154 0.950 . S
C1177 C1176 1.334 . S
C1177 C1178 1.287 . S
C1178 C1177 1.287 . S
C1178 C1179 1.524 . S
C1178 H1197 0.913 . S
C1179 H1155 0.950 . S
C1179 C1178 1.524 . S
C1179 C1180 1.415 . S
C1180 H1156 0.950 . S
C1180 C1175 1.363 . S
C1180 C1179 1.415 . S
C1181 H1157 0.951 . S
C1181 C1182 1.366 . S
C1181 C1183 1.388 . S
C1182 C1181 1.366 . S
C1182 C1186 1.385 . S
C1183 H1158 0.951 . S
C1183 C1181 1.388 . S
C1183 C1184 1.366 . S
C1184 C1183 1.366 . S
C1184 C1185 1.414 . S
C1184 C1187 1.499 . S
C1185 H1159 0.950 . S
C1185 C1184 1.414 . S
C1185 C1186 1.374 . S
C1186 H1160 0.950 . S
C1186 C1182 1.385 . S
C1186 C1185 1.374 . S
C1187 C1184 1.499 . S
C1187 C1188 1.373 . S
C1187 C1189 1.389 . S
C1188 H1161 0.950 . S
C1188 C1174 1.377 . S
C1188 C1187 1.373 . S
C1189 C1173 1.377 . S
C1189 C1187 1.389 . S
C1189 C1190 1.524 . S
C1190 C1189 1.524 . S
C1190 C1191 1.397 . S
C1190 C1195 1.363 . S
C1191 H1162 0.950 . S
C1191 C1190 1.397 . S
C1191 C1192 1.334 . S
C1192 H1163 0.950 . S
C1192 C1191 1.334 . S
C1192 C1193 1.287 . S
C1193 C1192 1.287 . S
C1193 C1194 1.524 . S
C1193 H1196 0.999 . S
C1194 H1164 0.950 . S
C1194 C1193 1.524 . S
C1194 C1195 1.415 . S
C1195 H1165 0.950 . S
C1195 C1190 1.363 . S
C1195 C1194 1.415 . S
H1196 C1193 0.999 . S
H1197 C1178 0.913 . S
H1198 C1216 0.951 1_545 S
H1199 C1218 0.951 . S
H1200 C1220 0.950 . S
H1201 C1221 0.950 . S
H1202 C1223 0.950 . S
H1203 C1226 0.950 . S
H1204 C1227 0.950 . S
H1205 C1229 0.950 . S
H1206 C1230 0.950 . S
H1207 C1231 0.951 . S
H1208 C1233 0.951 . S
H1209 C1235 0.950 . S
H1210 C1236 0.950 . S
H1211 C1238 0.950 . S
H1212 C1241 0.950 1_545 S
H1213 C1242 0.932 1_545 S
H1214 C1244 0.950 . S
H1215 C1245 0.950 . S
C1216 H1198 0.951 1_565 S
C1216 C1217 1.366 . S
C1216 C1218 1.388 . S
C1217 C1216 1.366 . S
C1217 C1221 1.385 . S
C1218 H1199 0.951 . S
C1218 C1216 1.388 . S
C1218 C1219 1.366 . S
C1219 C1218 1.366 . S
C1219 C1220 1.414 . S
C1219 C1222 1.499 . S
C1220 H1200 0.950 . S
C1220 C1219 1.414 . S
C1220 C1221 1.374 . S
C1221 H1201 0.950 . S
C1221 C1217 1.385 . S
C1221 C1220 1.374 . S
C1222 C1219 1.499 . S
C1222 C1223 1.373 . S
C1222 C1224 1.389 . S
C1223 H1202 0.950 . S
C1223 C1222 1.373 . S
C1223 C1239 1.377 . S
C1224 C1222 1.389 . S
C1224 C1225 1.524 . S
C1224 C1238 1.377 . S
C1225 C1224 1.524 . S
C1225 C1226 1.397 . S
C1225 C1230 1.363 . S
C1226 H1203 0.950 . S
C1226 C1225 1.397 . S
C1226 C1227 1.334 . S
C1227 H1204 0.950 . S
C1227 C1226 1.334 . S
C1227 C1228 1.287 . S
C1228 C1227 1.287 . S
C1228 C1229 1.524 . S
C1228 H1247 0.913 . S
C1229 H1205 0.950 . S
C1229 C1228 1.524 . S
C1229 C1230 1.415 . S
C1230 H1206 0.950 . S
C1230 C1225 1.363 . S
C1230 C1229 1.415 . S
C1231 H1207 0.951 . S
C1231 C1232 1.366 . S
C1231 C1233 1.388 . S
C1232 C1231 1.366 . S
C1232 C1236 1.385 . S
C1233 H1208 0.951 . S
C1233 C1231 1.388 . S
C1233 C1234 1.366 . S
C1234 C1233 1.366 . S
C1234 C1235 1.414 . S
C1234 C1237 1.499 . S
C1235 H1209 0.950 . S
C1235 C1234 1.414 . S
C1235 C1236 1.374 . S
C1236 H1210 0.950 . S
C1236 C1232 1.385 . S
C1236 C1235 1.374 . S
C1237 C1234 1.499 . S
C1237 C1238 1.373 . S
C1237 C1239 1.389 . S
C1238 H1211 0.950 . S
C1238 C1224 1.377 . S
C1238 C1237 1.373 . S
C1239 C1223 1.377 . S
C1239 C1237 1.389 . S
C1239 C1240 1.524 . S
C1240 C1239 1.524 . S
C1240 C1241 1.397 . S
C1240 C1245 1.363 . S
C1241 H1212 0.950 1_565 S
C1241 C1240 1.397 . S
C1241 C1242 1.353 . S
C1242 H1213 0.932 1_565 S
C1242 C1241 1.353 . S
C1242 C1243 1.287 . S
C1243 C1242 1.287 . S
C1243 C1244 1.524 . S
C1243 H1246 0.999 . S
C1244 H1214 0.950 . S
C1244 C1243 1.524 . S
C1244 C1245 1.415 . S
C1245 H1215 0.950 . S
C1245 C1240 1.363 . S
C1245 C1244 1.415 . S
H1246 C1243 0.999 . S
H1247 C1228 0.913 . S
H1248 C1266 0.951 1_565 S
H1249 C1268 0.951 1_565 S
H1250 C1270 0.950 . S
H1251 C1271 0.950 . S
H1252 C1273 0.950 . S
H1253 C1276 0.950 . S
H1254 C1277 0.950 . S
H1255 C1279 0.950 . S
H1256 C1280 0.950 . S
H1257 C1281 0.951 . S
H1258 C1283 0.951 . S
H1259 C1285 0.950 . S
H1260 C1286 0.950 . S
H1261 C1288 0.950 . S
H1262 C1291 0.950 . S
H1263 C1292 0.950 . S
H1264 C1294 0.950 . S
H1265 C1295 0.950 . S
C1266 H1248 0.951 1_545 S
C1266 C1267 1.366 . S
C1266 C1268 1.388 . S
C1267 C1266 1.366 . S
C1267 C1271 1.385 . S
C1268 H1249 0.951 1_545 S
C1268 C1266 1.388 . S
C1268 C1269 1.366 . S
C1269 C1268 1.366 . S
C1269 C1270 1.414 . S
C1269 C1272 1.499 . S
C1270 H1250 0.950 . S
C1270 C1269 1.414 . S
C1270 C1271 1.374 . S
C1271 H1251 0.950 . S
C1271 C1267 1.385 . S
C1271 C1270 1.374 . S
C1272 C1269 1.499 . S
C1272 C1273 1.373 . S
C1272 C1274 1.389 . S
C1273 H1252 0.950 . S
C1273 C1272 1.373 . S
C1273 C1289 1.377 . S
C1274 C1272 1.389 . S
C1274 C1275 1.524 1_545 S
C1274 C1288 1.377 . S
C1275 C1274 1.524 1_565 S
C1275 C1276 1.397 1_565 S
C1275 C1280 1.363 . S
C1276 H1253 0.950 . S
C1276 C1275 1.397 1_545 S
C1276 C1277 1.334 1_545 S
C1277 H1254 0.950 . S
C1277 C1276 1.334 1_565 S
C1277 C1278 1.287 . S
C1278 C1277 1.287 . S
C1278 C1279 1.524 . S
C1278 H1297 0.913 . S
C1279 H1255 0.950 . S
C1279 C1278 1.524 . S
C1279 C1280 1.415 . S
C1280 H1256 0.950 . S
C1280 C1275 1.363 . S
C1280 C1279 1.415 . S
C1281 H1257 0.951 . S
C1281 C1282 1.366 . S
C1281 C1283 1.388 . S
C1282 C1281 1.366 . S
C1282 C1286 1.385 . S
C1283 H1258 0.951 . S
C1283 C1281 1.388 . S
C1283 C1284 1.366 . S
C1284 C1283 1.366 . S
C1284 C1285 1.414 . S
C1284 C1287 1.499 . S
C1285 H1259 0.950 . S
C1285 C1284 1.414 . S
C1285 C1286 1.374 . S
C1286 H1260 0.950 . S
C1286 C1282 1.385 . S
C1286 C1285 1.374 . S
C1287 C1284 1.499 . S
C1287 C1288 1.373 . S
C1287 C1289 1.389 . S
C1288 H1261 0.950 . S
C1288 C1274 1.377 . S
C1288 C1287 1.373 . S
C1289 C1273 1.377 . S
C1289 C1287 1.389 . S
C1289 C1290 1.524 . S
C1290 C1289 1.524 . S
C1290 C1291 1.397 . S
C1290 C1295 1.363 . S
C1291 H1262 0.950 . S
C1291 C1290 1.397 . S
C1291 C1292 1.334 . S
C1292 H1263 0.950 . S
C1292 C1291 1.334 . S
C1292 C1293 1.287 . S
C1293 C1292 1.287 . S
C1293 C1294 1.524 . S
C1293 H1296 0.999 . S
C1294 H1264 0.950 . S
C1294 C1293 1.524 . S
C1294 C1295 1.415 . S
C1295 H1265 0.950 . S
C1295 C1290 1.363 . S
C1295 C1294 1.415 . S
H1296 C1293 0.999 . S
H1297 C1278 0.913 . S
H1298 C1316 0.951 1_455 S
H1299 C1318 0.951 . S
H1300 C1320 0.950 . S
H1301 C1321 0.950 . S
H1302 C1323 0.950 . S
H1303 C1326 0.950 . S
H1304 C1327 0.950 . S
H1305 C1329 0.950 . S
H1306 C1330 0.950 . S
H1307 C1331 0.951 . S
H1308 C1333 0.951 . S
H1309 C1335 0.950 . S
H1310 C1336 0.950 . S
H1311 C1338 0.950 . S
H1312 C1341 0.950 . S
H1313 C1342 0.950 . S
H1314 C1344 0.950 . S
H1315 C1345 0.950 . S
C1316 H1298 0.951 1_655 S
C1316 C1317 1.366 . S
C1316 C1318 1.388 . S
C1317 C1316 1.366 . S
C1317 C1321 1.385 . S
C1318 H1299 0.951 . S
C1318 C1316 1.388 . S
C1318 C1319 1.366 . S
C1319 C1318 1.366 . S
C1319 C1320 1.414 . S
C1319 C1322 1.499 . S
C1320 H1300 0.950 . S
C1320 C1319 1.414 . S
C1320 C1321 1.374 . S
C1321 H1301 0.950 . S
C1321 C1317 1.385 . S
C1321 C1320 1.374 . S
C1322 C1319 1.499 . S
C1322 C1323 1.373 . S
C1322 C1324 1.389 . S
C1323 H1302 0.950 . S
C1323 C1322 1.373 . S
C1323 C1339 1.377 . S
C1324 C1322 1.389 . S
C1324 C1325 1.524 1_655 S
C1324 C1338 1.377 . S
C1325 C1324 1.524 1_455 S
C1325 C1326 1.397 . S
C1325 C1330 1.363 . S
C1326 H1303 0.950 . S
C1326 C1325 1.397 . S
C1326 C1327 1.334 . S
C1327 H1304 0.950 . S
C1327 C1326 1.334 . S
C1327 C1328 1.287 . S
C1328 C1327 1.287 . S
C1328 C1329 1.524 . S
C1328 H1347 0.913 . S
C1329 H1305 0.950 . S
C1329 C1328 1.524 . S
C1329 C1330 1.415 . S
C1330 H1306 0.950 . S
C1330 C1325 1.363 . S
C1330 C1329 1.415 . S
C1331 H1307 0.951 . S
C1331 C1332 1.366 . S
C1331 C1333 1.388 . S
C1332 C1331 1.366 . S
C1332 C1336 1.385 . S
C1333 H1308 0.951 . S
C1333 C1331 1.388 . S
C1333 C1334 1.366 . S
C1334 C1333 1.366 . S
C1334 C1335 1.414 . S
C1334 C1337 1.499 . S
C1335 H1309 0.950 . S
C1335 C1334 1.414 . S
C1335 C1336 1.374 . S
C1336 H1310 0.950 . S
C1336 C1332 1.385 . S
C1336 C1335 1.374 . S
C1337 C1334 1.499 . S
C1337 C1338 1.373 . S
C1337 C1339 1.389 . S
C1338 H1311 0.950 . S
C1338 C1324 1.377 . S
C1338 C1337 1.373 . S
C1339 C1323 1.377 . S
C1339 C1337 1.389 . S
C1339 C1340 1.524 . S
C1340 C1339 1.524 . S
C1340 C1341 1.397 . S
C1340 C1345 1.363 . S
C1341 H1312 0.950 . S
C1341 C1340 1.397 . S
C1341 C1342 1.334 . S
C1342 H1313 0.950 . S
C1342 C1341 1.334 . S
C1342 C1343 1.287 . S
C1343 C1342 1.287 . S
C1343 C1344 1.524 . S
C1343 H1346 0.999 . S
C1344 H1314 0.950 . S
C1344 C1343 1.524 . S
C1344 C1345 1.415 . S
C1345 H1315 0.950 . S
C1345 C1340 1.363 . S
C1345 C1344 1.415 . S
H1346 C1343 0.999 . S
H1347 C1328 0.913 . S
H1348 C1366 0.951 . S
H1349 C1368 0.951 . S
H1350 C1370 0.950 . S
H1351 C1371 0.950 . S
H1352 C1373 0.950 . S
H1353 C1376 0.950 . S
H1354 C1377 0.950 . S
H1355 C1379 0.950 . S
H1356 C1380 0.950 . S
H1357 C1381 0.951 . S
H1358 C1383 0.951 . S
H1359 C1385 0.950 . S
H1360 C1386 0.950 . S
H1361 C1388 0.950 . S
H1362 C1391 0.950 . S
H1363 C1392 0.950 . S
H1364 C1394 0.950 . S
H1365 C1395 0.950 . S
C1366 H1348 0.951 . S
C1366 C1367 1.366 . S
C1366 C1368 1.388 . S
C1367 C1366 1.366 . S
C1367 C1371 1.385 . S
C1368 H1349 0.951 . S
C1368 C1366 1.388 . S
C1368 C1369 1.366 . S
C1369 C1368 1.366 . S
C1369 C1370 1.414 . S
C1369 C1372 1.499 . S
C1370 H1350 0.950 . S
C1370 C1369 1.414 . S
C1370 C1371 1.374 . S
C1371 H1351 0.950 . S
C1371 C1367 1.385 . S
C1371 C1370 1.374 . S
C1372 C1369 1.499 . S
C1372 C1373 1.373 . S
C1372 C1374 1.389 . S
C1373 H1352 0.950 . S
C1373 C1372 1.373 . S
C1373 C1389 1.377 . S
C1374 C1372 1.389 . S
C1374 C1375 1.524 . S
C1374 C1388 1.377 . S
C1375 C1374 1.524 . S
C1375 C1376 1.397 . S
C1375 C1380 1.363 . S
C1376 H1353 0.950 . S
C1376 C1375 1.397 . S
C1376 C1377 1.334 . S
C1377 H1354 0.950 . S
C1377 C1376 1.334 . S
C1377 C1378 1.287 . S
C1378 C1377 1.287 . S
C1378 C1379 1.524 . S
C1378 H1397 0.913 . S
C1379 H1355 0.950 . S
C1379 C1378 1.524 . S
C1379 C1380 1.415 . S
C1380 H1356 0.950 . S
C1380 C1375 1.363 . S
C1380 C1379 1.415 . S
C1381 H1357 0.951 . S
C1381 C1382 1.366 . S
C1381 C1383 1.388 . S
C1382 C1381 1.366 . S
C1382 C1386 1.385 . S
C1383 H1358 0.951 . S
C1383 C1381 1.388 . S
C1383 C1384 1.366 . S
C1384 C1383 1.366 . S
C1384 C1385 1.414 . S
C1384 C1387 1.499 . S
C1385 H1359 0.950 . S
C1385 C1384 1.414 . S
C1385 C1386 1.374 . S
C1386 H1360 0.950 . S
C1386 C1382 1.385 . S
C1386 C1385 1.374 . S
C1387 C1384 1.499 . S
C1387 C1388 1.373 . S
C1387 C1389 1.389 . S
C1388 H1361 0.950 . S
C1388 C1374 1.377 . S
C1388 C1387 1.373 . S
C1389 C1373 1.377 . S
C1389 C1387 1.389 . S
C1389 C1390 1.524 . S
C1390 C1389 1.524 . S
C1390 C1391 1.397 . S
C1390 C1395 1.363 . S
C1391 H1362 0.950 . S
C1391 C1390 1.397 . S
C1391 C1392 1.334 . S
C1392 H1363 0.950 . S
C1392 C1391 1.334 . S
C1392 C1393 1.287 . S
C1393 C1392 1.287 . S
C1393 C1394 1.524 . S
C1393 H1396 0.999 . S
C1394 H1364 0.950 . S
C1394 C1393 1.524 . S
C1394 C1395 1.415 . S
C1395 H1365 0.950 . S
C1395 C1390 1.363 . S
C1395 C1394 1.415 . S
H1396 C1393 0.999 . S
H1397 C1378 0.913 . S
H1398 C1416 0.951 . S
H1399 C1418 0.951 . S
H1400 C1420 0.950 . S
H1401 C1421 0.950 . S
H1402 C1423 0.950 . S
H1403 C1426 0.950 . S
H1404 C1427 0.950 . S
H1405 C1429 0.950 . S
H1406 C1430 0.950 . S
H1407 C1431 0.951 . S
H1408 C1433 0.951 . S
H1409 C1435 0.950 . S
H1410 C1436 0.950 . S
H1411 C1438 0.950 . S
H1412 C1441 0.950 . S
H1413 C1442 0.950 . S
H1414 C1444 0.950 . S
H1415 C1445 0.950 . S
C1416 H1398 0.951 . S
C1416 C1417 1.366 . S
C1416 C1418 1.388 . S
C1417 C1416 1.366 . S
C1417 C1421 1.385 . S
C1418 H1399 0.951 . S
C1418 C1416 1.388 . S
C1418 C1419 1.366 . S
C1419 C1418 1.366 . S
C1419 C1420 1.414 . S
C1419 C1422 1.499 . S
C1420 H1400 0.950 . S
C1420 C1419 1.414 . S
C1420 C1421 1.374 . S
C1421 H1401 0.950 . S
C1421 C1417 1.385 . S
C1421 C1420 1.374 . S
C1422 C1419 1.499 . S
C1422 C1423 1.373 . S
C1422 C1424 1.389 . S
C1423 H1402 0.950 . S
C1423 C1422 1.373 . S
C1423 C1439 1.377 . S
C1424 C1422 1.389 . S
C1424 C1425 1.524 . S
C1424 C1438 1.377 . S
C1425 C1424 1.524 . S
C1425 C1426 1.397 . S
C1425 C1430 1.363 . S
C1426 H1403 0.950 . S
C1426 C1425 1.397 . S
C1426 C1427 1.334 . S
C1427 H1404 0.950 . S
C1427 C1426 1.334 . S
C1427 C1428 1.287 . S
C1428 C1427 1.287 . S
C1428 C1429 1.524 . S
C1428 H1447 0.913 . S
C1429 H1405 0.950 . S
C1429 C1428 1.524 . S
C1429 C1430 1.415 . S
C1430 H1406 0.950 . S
C1430 C1425 1.363 . S
C1430 C1429 1.415 . S
C1431 H1407 0.951 . S
C1431 C1432 1.366 . S
C1431 C1433 1.388 . S
C1432 C1431 1.366 . S
C1432 C1436 1.385 . S
C1433 H1408 0.951 . S
C1433 C1431 1.388 . S
C1433 C1434 1.366 . S
C1434 C1433 1.366 . S
C1434 C1435 1.414 . S
C1434 C1437 1.499 . S
C1435 H1409 0.950 . S
C1435 C1434 1.414 . S
C1435 C1436 1.374 . S
C1436 H1410 0.950 . S
C1436 C1432 1.385 . S
C1436 C1435 1.374 . S
C1437 C1434 1.499 . S
C1437 C1438 1.373 . S
C1437 C1439 1.389 . S
C1438 H1411 0.950 . S
C1438 C1424 1.377 . S
C1438 C1437 1.373 . S
C1439 C1423 1.377 . S
C1439 C1437 1.389 . S
C1439 C1440 1.524 . S
C1440 C1439 1.524 . S
C1440 C1441 1.397 . S
C1440 C1445 1.363 . S
C1441 H1412 0.950 . S
C1441 C1440 1.397 . S
C1441 C1442 1.334 . S
C1442 H1413 0.950 . S
C1442 C1441 1.334 . S
C1442 C1443 1.287 . S
C1443 C1442 1.287 . S
C1443 C1444 1.524 . S
C1443 H1446 0.999 . S
C1444 H1414 0.950 . S
C1444 C1443 1.524 . S
C1444 C1445 1.415 . S
C1445 H1415 0.950 . S
C1445 C1440 1.363 . S
C1445 C1444 1.415 . S
H1446 C1443 0.999 . S
H1447 C1428 0.913 . S
H1448 C1466 0.951 . S
H1449 C1468 0.951 1_545 S
H1450 C1470 0.950 . S
H1451 C1471 0.950 . S
H1452 C1473 0.950 . S
H1453 C1476 0.950 . S
H1454 C1477 0.950 . S
H1455 C1479 0.950 . S
H1456 C1480 0.950 . S
H1457 C1481 0.951 . S
H1458 C1483 0.951 1_565 S
H1459 C1485 0.950 . S
H1460 C1486 0.950 . S
H1461 C1488 0.950 . S
H1462 C1491 0.950 . S
H1463 C1492 0.950 . S
H1464 C1494 0.950 . S
H1465 C1495 0.950 . S
C1466 H1448 0.951 . S
C1466 C1467 1.366 . S
C1466 C1468 1.388 . S
C1467 C1466 1.366 . S
C1467 C1471 1.385 . S
C1468 H1449 0.951 1_565 S
C1468 C1466 1.388 . S
C1468 C1469 1.366 . S
C1469 C1468 1.366 . S
C1469 C1470 1.414 . S
C1469 C1472 1.499 . S
C1470 H1450 0.950 . S
C1470 C1469 1.414 . S
C1470 C1471 1.374 . S
C1471 H1451 0.950 . S
C1471 C1467 1.385 . S
C1471 C1470 1.374 . S
C1472 C1469 1.499 . S
C1472 C1473 1.373 . S
C1472 C1474 1.389 1_565 S
C1473 H1452 0.950 . S
C1473 C1472 1.373 . S
C1473 C1489 1.377 . S
C1474 C1472 1.389 1_545 S
C1474 C1475 1.524 . S
C1474 C1488 1.377 . S
C1475 C1474 1.524 . S
C1475 C1476 1.397 . S
C1475 C1480 1.363 . S
C1476 H1453 0.950 . S
C1476 C1475 1.397 . S
C1476 C1477 1.334 . S
C1477 H1454 0.950 . S
C1477 C1476 1.334 . S
C1477 C1478 1.287 . S
C1478 C1477 1.287 . S
C1478 C1479 1.524 . S
C1478 H1497 0.913 . S
C1479 H1455 0.950 . S
C1479 C1478 1.524 . S
C1479 C1480 1.415 . S
C1480 H1456 0.950 . S
C1480 C1475 1.363 . S
C1480 C1479 1.415 . S
C1481 H1457 0.951 . S
C1481 C1482 1.366 . S
C1481 C1483 1.388 . S
C1482 C1481 1.366 . S
C1482 C1486 1.385 . S
C1483 H1458 0.951 1_545 S
C1483 C1481 1.388 . S
C1483 C1484 1.366 . S
C1484 C1483 1.366 . S
C1484 C1485 1.414 . S
C1484 C1487 1.499 . S
C1485 H1459 0.950 . S
C1485 C1484 1.414 . S
C1485 C1486 1.374 . S
C1486 H1460 0.950 . S
C1486 C1482 1.385 . S
C1486 C1485 1.374 . S
C1487 C1484 1.499 . S
C1487 C1488 1.373 . S
C1487 C1489 1.389 1_545 S
C1488 H1461 0.950 . S
C1488 C1474 1.377 . S
C1488 C1487 1.373 . S
C1489 C1473 1.377 . S
C1489 C1487 1.389 1_565 S
C1489 C1490 1.524 . S
C1490 C1489 1.524 . S
C1490 C1491 1.397 . S
C1490 C1495 1.363 . S
C1491 H1462 0.950 . S
C1491 C1490 1.397 . S
C1491 C1492 1.334 . S
C1492 H1463 0.950 . S
C1492 C1491 1.334 . S
C1492 C1493 1.287 . S
C1493 C1492 1.287 . S
C1493 C1494 1.524 . S
C1493 H1496 0.999 . S
C1494 H1464 0.950 . S
C1494 C1493 1.524 . S
C1494 C1495 1.415 . S
C1495 H1465 0.950 . S
C1495 C1490 1.363 . S
C1495 C1494 1.415 . S
H1496 C1493 0.999 . S
H1497 C1478 0.913 . S
H1498 C1516 0.951 . S
H1499 C1518 0.951 . S
H1500 C1520 0.950 1_455 S
H1501 C1521 0.950 . S
H1502 C1523 0.950 . S
H1503 C1526 0.950 . S
H1504 C1527 0.950 . S
H1505 C1529 0.950 . S
H1506 C1530 0.950 . S
H1507 C1531 0.951 . S
H1508 C1533 0.951 . S
H1509 C1535 0.950 1_655 S
H1510 C1536 0.950 . S
H1511 C1538 0.950 . S
H1512 C1541 0.950 . S
H1513 C1542 0.950 . S
H1514 C1544 0.950 . S
H1515 C1545 0.950 . S
C1516 H1498 0.951 . S
C1516 C1517 1.366 . S
C1516 C1518 1.388 . S
C1517 C1516 1.366 . S
C1517 C1521 1.385 . S
C1518 H1499 0.951 . S
C1518 C1516 1.388 . S
C1518 C1519 1.366 . S
C1519 C1518 1.366 . S
C1519 C1520 1.414 . S
C1519 C1522 1.499 . S
C1520 H1500 0.950 1_655 S
C1520 C1519 1.414 . S
C1520 C1521 1.374 . S
C1521 H1501 0.950 . S
C1521 C1517 1.385 . S
C1521 C1520 1.374 . S
C1522 C1519 1.499 . S
C1522 C1523 1.373 1_655 S
C1522 C1524 1.389 . S
C1523 H1502 0.950 . S
C1523 C1522 1.373 1_455 S
C1523 C1539 1.377 . S
C1524 C1522 1.389 . S
C1524 C1525 1.524 . S
C1524 C1538 1.377 . S
C1525 C1524 1.524 . S
C1525 C1526 1.397 . S
C1525 C1530 1.363 . S
C1526 H1503 0.950 . S
C1526 C1525 1.397 . S
C1526 C1527 1.334 . S
C1527 H1504 0.950 . S
C1527 C1526 1.334 . S
C1527 C1528 1.287 . S
C1528 C1527 1.287 . S
C1528 C1529 1.524 . S
C1528 H1547 0.913 . S
C1529 H1505 0.950 . S
C1529 C1528 1.524 . S
C1529 C1530 1.415 . S
C1530 H1506 0.950 . S
C1530 C1525 1.363 . S
C1530 C1529 1.415 . S
C1531 H1507 0.951 . S
C1531 C1532 1.366 . S
C1531 C1533 1.388 . S
C1532 C1531 1.366 . S
C1532 C1536 1.385 . S
C1533 H1508 0.951 . S
C1533 C1531 1.388 . S
C1533 C1534 1.366 . S
C1534 C1533 1.366 . S
C1534 C1535 1.414 . S
C1534 C1537 1.499 . S
C1535 H1509 0.950 1_455 S
C1535 C1534 1.414 . S
C1535 C1536 1.374 . S
C1536 H1510 0.950 . S
C1536 C1532 1.385 . S
C1536 C1535 1.374 . S
C1537 C1534 1.499 . S
C1537 C1538 1.373 1_455 S
C1537 C1539 1.389 . S
C1538 H1511 0.950 . S
C1538 C1524 1.377 . S
C1538 C1537 1.373 1_655 S
C1539 C1523 1.377 . S
C1539 C1537 1.389 . S
C1539 C1540 1.524 . S
C1540 C1539 1.524 . S
C1540 C1541 1.397 . S
C1540 C1545 1.363 . S
C1541 H1512 0.950 . S
C1541 C1540 1.397 . S
C1541 C1542 1.334 . S
C1542 H1513 0.950 . S
C1542 C1541 1.334 . S
C1542 C1543 1.287 . S
C1543 C1542 1.287 . S
C1543 C1544 1.524 . S
C1543 H1546 0.999 . S
C1544 H1514 0.950 . S
C1544 C1543 1.524 . S
C1544 C1545 1.415 . S
C1545 H1515 0.950 . S
C1545 C1540 1.363 . S
C1545 C1544 1.415 . S
H1546 C1543 0.999 . S
H1547 C1528 0.913 . S
C217 C26 1.249 . S
C232 C5 1.312 . S
C267 C48 1.249 . S
C282 C27 1.312 . S
C317 C49 1.312 . S
C332 C4 1.249 . S
C367 C53 1.312 . S
C382 C30 1.249 . S
C417 C52 1.250 . S
C432 C9 1.312 . S
C467 C8 1.248 . S
C482 C31 1.312 . S
C517 C71 1.312 . S
C532 C92 1.249 . S
C567 C114 1.250 . S
C582 C93 1.312 . S
C617 C115 1.312 . S
C632 C70 1.250 . S
C667 C96 1.249 . S
C682 C119 1.312 . S
C717 C118 1.249 . S
C732 C75 1.312 . S
C767 C97 1.312 . S
C782 C74 1.249 . S
C817 C158 1.249 . S
C832 C137 1.312 . S
C867 C159 1.312 . S
C882 C180 1.250 . S
C917 C181 1.312 . S
C932 C136 1.249 . S
C967 C185 1.312 . S
C982 C162 1.250 . S
C1017 C184 1.248 . S
C1032 C141 1.312 . S
C1067 C140 1.250 . S
C1082 C163 1.312 . S
C1117 C117 1.349 . S
C1132 C6 1.349 . S
C1167 C73 1.350 . S
C1182 C28 1.349 . S
C1217 C50 1.349 . S
C1232 C95 1.350 . S
C1267 C51 1.349 . S
C1282 C138 1.349 . S
C1317 C7 1.350 . S
C1332 C160 1.349 . S
C1367 C182 1.349 . S
C1382 C29 1.349 . S
C1417 C72 1.349 . S
C1432 C183 1.350 . S
C1467 C94 1.349 . S
C1482 C139 1.349 . S
C1517 C161 1.349 . S
C1532 C116 1.350 . S
