# Generated by pormake.
# Topology crr, (4)-cn, num edge types: 1
# Building blocks:
#     Node 0, Type 0, BuildingBlock: ESEHIV_clean_sbu_0, # of connection points: 4
#     Node 1, Type 0, BuildingBlock: ESEHIV_clean_sbu_0, # of connection points: 4
#     Node 2, Type 0, BuildingBlock: ESEHIV_clean_sbu_0, # of connection points: 4
#     Node 3, Type 0, BuildingBlock: ESEHIV_clean_sbu_0, # of connection points: 4
#     Node 4, Type 0, BuildingBlock: ESEHIV_clean_sbu_0, # of connection points: 4
#     Node 5, Type 0, BuildingBlock: ESEHIV_clean_sbu_0, # of connection points: 4
#     Node 6, Type 0, BuildingBlock: ESEHIV_clean_sbu_0, # of connection points: 4
#     Node 7, Type 0, BuildingBlock: ESEHIV_clean_sbu_0, # of connection points: 4
#     Node 8, Type 0, BuildingBlock: ESEHIV_clean_sbu_0, # of connection points: 4
#     Node 9, Type 0, BuildingBlock: ESEHIV_clean_sbu_0, # of connection points: 4
#     Node 10, Type 0, BuildingBlock: ESEHIV_clean_sbu_0, # of connection points: 4
#     Node 11, Type 0, BuildingBlock: ESEHIV_clean_sbu_0, # of connection points: 4
#     Edge 12, Type (0, 0), BuildingBlock: MIFKUJ_clean_linker_0, # of connection points: 2
#     Edge 13, Type (0, 0), BuildingBlock: MIFKUJ_clean_linker_0, # of connection points: 2
#     Edge 14, Type (0, 0), BuildingBlock: MIFKUJ_clean_linker_0, # of connection points: 2
#     Edge 15, Type (0, 0), BuildingBlock: MIFKUJ_clean_linker_0, # of connection points: 2
#     Edge 16, Type (0, 0), BuildingBlock: MIFKUJ_clean_linker_0, # of connection points: 2
#     Edge 17, Type (0, 0), BuildingBlock: MIFKUJ_clean_linker_0, # of connection points: 2
#     Edge 18, Type (0, 0), BuildingBlock: MIFKUJ_clean_linker_0, # of connection points: 2
#     Edge 19, Type (0, 0), BuildingBlock: MIFKUJ_clean_linker_0, # of connection points: 2
#     Edge 20, Type (0, 0), BuildingBlock: MIFKUJ_clean_linker_0, # of connection points: 2
#     Edge 21, Type (0, 0), BuildingBlock: MIFKUJ_clean_linker_0, # of connection points: 2
#     Edge 22, Type (0, 0), BuildingBlock: MIFKUJ_clean_linker_0, # of connection points: 2
#     Edge 23, Type (0, 0), BuildingBlock: MIFKUJ_clean_linker_0, # of connection points: 2
#     Edge 24, Type (0, 0), BuildingBlock: MIFKUJ_clean_linker_0, # of connection points: 2
#     Edge 25, Type (0, 0), BuildingBlock: MIFKUJ_clean_linker_0, # of connection points: 2
#     Edge 26, Type (0, 0), BuildingBlock: MIFKUJ_clean_linker_0, # of connection points: 2
#     Edge 27, Type (0, 0), BuildingBlock: MIFKUJ_clean_linker_0, # of connection points: 2
#     Edge 28, Type (0, 0), BuildingBlock: MIFKUJ_clean_linker_0, # of connection points: 2
#     Edge 29, Type (0, 0), BuildingBlock: MIFKUJ_clean_linker_0, # of connection points: 2
#     Edge 30, Type (0, 0), BuildingBlock: MIFKUJ_clean_linker_0, # of connection points: 2
#     Edge 31, Type (0, 0), BuildingBlock: MIFKUJ_clean_linker_0, # of connection points: 2
#     Edge 32, Type (0, 0), BuildingBlock: MIFKUJ_clean_linker_0, # of connection points: 2
#     Edge 33, Type (0, 0), BuildingBlock: MIFKUJ_clean_linker_0, # of connection points: 2
#     Edge 34, Type (0, 0), BuildingBlock: MIFKUJ_clean_linker_0, # of connection points: 2
#     Edge 35, Type (0, 0), BuildingBlock: MIFKUJ_clean_linker_0, # of connection points: 2
# Relax obj value: 0.027
# Max RMSD: 0.136
# Mean RMSD: 0.118
data_MOF--net-crr--node1-ESEHIV_clean_sbu_0--edge1-MIFKUJ_clean_linker_0
_symmetry_space_group_name_H-M    P1
_symmetry_Int_Tables_number       1
_symmetry_cell_setting            triclinic
loop_
_symmetry_equiv_pos_as_xyz
'x, y, z'
_cell_length_a     55.134597
_cell_length_b     59.939513
_cell_length_c     55.28279
_cell_angle_alpha  91.474086
_cell_angle_beta   86.526341
_cell_angle_gamma 88.430598
loop_
_atom_site_label
_atom_site_type_symbol
_atom_site_fract_x
_atom_site_fract_y
_atom_site_fract_z
_atom_type_partial_charge
Cu0 Cu 0.12843 0.36659 0.36914 0.0
N1 N 0.10263 0.37979 0.35366 0.0
N2 N 0.07117 0.40267 0.34649 0.0
C3 C 0.08811 0.3971 0.36218 0.0
C4 C 0.07528 0.38818 0.32744 0.0
C5 C 0.09463 0.37414 0.33192 0.0
O6 O 0.12 0.371 0.40378 0.0
C7 C 0.17949 0.37582 0.3642 0.0
O8 O 0.18147 0.36379 0.38355 0.0
H9 H 0.09021 0.40557 0.37941 0.0
H10 H 0.10231 0.36068 0.3202 0.0
N11 N 0.13079 0.33597 0.36114 0.0
N12 N 0.14701 0.30162 0.35355 0.0
C13 C 0.15142 0.32349 0.3571 0.0
C14 C 0.11262 0.32155 0.35982 0.0
C15 C 0.12255 0.30036 0.3551 0.0
C16 C 0.12244 0.35613 0.4196 0.0
O17 O 0.13491 0.33763 0.41357 0.0
H18 H 0.16936 0.33026 0.35701 0.0
H19 H 0.09352 0.32605 0.36276 0.0
O20 O 0.15845 0.38008 0.35682 0.0
H21 H 0.06486 0.38752 0.31148 0.0
H22 H 0.11253 0.28513 0.3539 0.0
Cu23 Cu 0.36007 0.88643 0.66675 0.0
N24 N 0.32738 0.87933 0.66529 0.0
N25 N 0.29546 0.85765 0.66096 0.0
C26 C 0.31939 0.8583 0.66467 0.0
C27 C 0.28804 0.87917 0.65926 0.0
C28 C 0.30777 0.89254 0.66203 0.0
O29 O 0.3759 0.85878 0.67631 0.0
C30 C 0.36496 0.91879 0.63268 0.0
O31 O 0.35014 0.92878 0.6493 0.0
H32 H 0.33118 0.84367 0.66578 0.0
H33 H 0.30789 0.91052 0.66107 0.0
N34 N 0.36491 0.90865 0.69026 0.0
N35 N 0.38446 0.93632 0.70767 0.0
C36 C 0.38577 0.91964 0.69088 0.0
C37 C 0.34953 0.91902 0.70709 0.0
C38 C 0.36161 0.9363 0.71785 0.0
C39 C 0.39394 0.85753 0.6896 0.0
O40 O 0.40684 0.87526 0.69306 0.0
H41 H 0.40139 0.91609 0.6784 0.0
H42 H 0.33072 0.91481 0.71069 0.0
O43 O 0.37176 0.89857 0.6357 0.0
H44 H 0.26975 0.88482 0.65595 0.0
H45 H 0.35419 0.94799 0.7318 0.0
Cu46 Cu 0.89806 0.63483 0.34248 0.0
N47 N 0.89131 0.63751 0.30982 0.0
N48 N 0.86825 0.63805 0.27786 0.0
C49 C 0.86914 0.63404 0.3017 0.0
C50 C 0.89083 0.64431 0.27065 0.0
C51 C 0.90498 0.64415 0.29047 0.0
O52 O 0.8732 0.65424 0.35941 0.0
C53 C 0.91159 0.59066 0.3354 0.0
O54 O 0.92009 0.59923 0.31508 0.0
H55 H 0.85394 0.62866 0.31319 0.0
H56 H 0.92371 0.64891 0.29073 0.0
N57 N 0.92837 0.64505 0.35065 0.0
N58 N 0.9571 0.65428 0.37579 0.0
C59 C 0.93328 0.65053 0.37356 0.0
C60 C 0.94986 0.64514 0.33777 0.0
C61 C 0.9676 0.65095 0.3532 0.0
C62 C 0.87655 0.6748 0.35517 0.0
O63 O 0.89619 0.68005 0.34212 0.0
H64 H 0.9197 0.65045 0.38853 0.0
H65 H 0.95272 0.64026 0.31885 0.0
O66 O 0.89908 0.6033 0.35065 0.0
H67 H 0.89656 0.64919 0.25252 0.0
H68 H 0.9868 0.65202 0.34821 0.0
Cu69 Cu 0.63493 0.1088 0.64034 0.0
N70 N 0.66735 0.11521 0.6451 0.0
N71 N 0.7001 0.13626 0.64798 0.0
C72 C 0.6762 0.13589 0.64386 0.0
C73 C 0.70652 0.11478 0.65188 0.0
C74 C 0.68629 0.10184 0.65009 0.0
O75 O 0.61785 0.13782 0.64518 0.0
C76 C 0.63967 0.07379 0.60679 0.0
O77 O 0.64933 0.06493 0.62558 0.0
H78 H 0.66527 0.15033 0.63954 0.0
H79 H 0.68552 0.08399 0.65224 0.0
N80 N 0.622 0.08887 0.66295 0.0
N81 N 0.59498 0.06654 0.68088 0.0
C82 C 0.59895 0.08193 0.66382 0.0
C83 C 0.63302 0.07753 0.68013 0.0
C84 C 0.61639 0.06361 0.69114 0.0
C85 C 0.60957 0.14365 0.66654 0.0
O86 O 0.60992 0.12905 0.6838 0.0
H87 H 0.58553 0.08764 0.6517 0.0
H88 H 0.65187 0.07899 0.68412 0.0
O89 O 0.6325 0.09425 0.6084 0.0
H90 H 0.72446 0.10878 0.65594 0.0
H91 H 0.61975 0.05225 0.70555 0.0
Cu92 Cu 0.11429 0.64648 0.64707 0.0
N93 N 0.11637 0.65269 0.68016 0.0
N94 N 0.13431 0.65347 0.71549 0.0
C95 C 0.13689 0.64862 0.69146 0.0
C96 C 0.11103 0.6611 0.71936 0.0
C97 C 0.10001 0.66059 0.69753 0.0
O98 O 0.14665 0.65393 0.6337 0.0
C99 C 0.08274 0.61286 0.65264 0.0
O100 O 0.07104 0.63019 0.66325 0.0
H101 H 0.15346 0.64225 0.68195 0.0
H102 H 0.08137 0.66535 0.69464 0.0
N103 N 0.09063 0.66375 0.63259 0.0
N104 N 0.06593 0.67369 0.60385 0.0
C105 C 0.08261 0.65864 0.61068 0.0
C106 C 0.07835 0.68262 0.64017 0.0
C107 C 0.06296 0.68876 0.62244 0.0
C108 C 0.1501 0.66836 0.61739 0.0
O109 O 0.13231 0.67351 0.60364 0.0
H110 H 0.08915 0.64417 0.59982 0.0
H111 H 0.0806 0.69141 0.65718 0.0
O112 O 0.10429 0.61554 0.64358 0.0
H113 H 0.10234 0.6663 0.73673 0.0
H114 H 0.05106 0.70346 0.62288 0.0
Cu115 Cu 0.65579 0.89975 0.3575 0.0
N116 N 0.68913 0.89281 0.35512 0.0
N117 N 0.72121 0.86891 0.35363 0.0
C118 C 0.69739 0.87225 0.36022 0.0
C119 C 0.72833 0.88854 0.34438 0.0
C120 C 0.70846 0.90324 0.34524 0.0
O121 O 0.64175 0.87272 0.34451 0.0
C122 C 0.65455 0.92919 0.39547 0.0
O123 O 0.66915 0.9383 0.3791 0.0
H124 H 0.68565 0.85976 0.36787 0.0
H125 H 0.70799 0.91988 0.3382 0.0
N126 N 0.64517 0.92309 0.33859 0.0
N127 N 0.61813 0.94933 0.32881 0.0
C128 C 0.62209 0.93084 0.34153 0.0
C129 C 0.65641 0.93691 0.32301 0.0
C130 C 0.63968 0.95315 0.31689 0.0
C131 C 0.64982 0.86932 0.32254 0.0
O132 O 0.66343 0.88459 0.31241 0.0
H133 H 0.60868 0.92321 0.35351 0.0
H134 H 0.67549 0.93584 0.31723 0.0
O135 O 0.64648 0.90987 0.39079 0.0
H136 H 0.74627 0.89181 0.33647 0.0
H137 H 0.64343 0.96723 0.30551 0.0
Cu138 Cu 0.90434 0.36386 0.65136 0.0
N139 N 0.87649 0.3538 0.63735 0.0
N140 N 0.84628 0.33054 0.63126 0.0
C141 C 0.86828 0.33304 0.64024 0.0
C142 C 0.84039 0.35058 0.62229 0.0
C143 C 0.85912 0.36491 0.62602 0.0
O144 O 0.90025 0.35282 0.68437 0.0
C145 C 0.93369 0.36073 0.61005 0.0
O146 O 0.91504 0.37296 0.60384 0.0
H147 H 0.87779 0.32034 0.64988 0.0
H148 H 0.85967 0.38232 0.62142 0.0
N149 N 0.90621 0.39506 0.65162 0.0
N150 N 0.92347 0.42845 0.65049 0.0
C151 C 0.9272 0.40608 0.64996 0.0
C152 C 0.88846 0.41097 0.65333 0.0
C153 C 0.89905 0.43159 0.65266 0.0
C154 C 0.89503 0.366 0.70253 0.0
O155 O 0.89942 0.3873 0.70049 0.0
H156 H 0.94489 0.39771 0.64878 0.0
H157 H 0.86923 0.40783 0.65516 0.0
O158 O 0.93293 0.35294 0.63135 0.0
H159 H 0.82365 0.35467 0.61391 0.0
H160 H 0.88944 0.4476 0.65353 0.0
Cu161 Cu 0.36905 0.11553 0.39329 0.0
N162 N 0.38502 0.14208 0.38724 0.0
N163 N 0.39309 0.17375 0.36833 0.0
C164 C 0.37652 0.15814 0.37314 0.0
C165 C 0.41294 0.1673 0.37977 0.0
C166 C 0.40784 0.14778 0.3916 0.0
O167 O 0.33603 0.12155 0.38388 0.0
C168 C 0.40667 0.085 0.3836 0.0
O169 O 0.41287 0.09395 0.40416 0.0
H170 H 0.35919 0.15753 0.36499 0.0
H171 H 0.42031 0.13787 0.40155 0.0
N172 N 0.36887 0.10827 0.42611 0.0
N173 N 0.37133 0.08704 0.45872 0.0
C174 C 0.36653 0.08766 0.43502 0.0
C175 C 0.37514 0.12125 0.44478 0.0
C176 C 0.37657 0.10827 0.4649 0.0
C177 C 0.32452 0.13675 0.39683 0.0
O178 O 0.33425 0.14397 0.41658 0.0
H179 H 0.36245 0.07327 0.42393 0.0
H180 H 0.37959 0.13866 0.44351 0.0
O181 O 0.38724 0.09191 0.37448 0.0
H182 H 0.43014 0.17563 0.37884 0.0
H183 H 0.38237 0.11388 0.48232 0.0
Cu184 Cu 0.38633 0.36975 0.13152 0.0
N185 N 0.37791 0.34057 0.13889 0.0
N186 N 0.37163 0.31219 0.16386 0.0
C187 C 0.38049 0.33279 0.16121 0.0
C188 C 0.36336 0.30661 0.14207 0.0
C189 C 0.36717 0.3242 0.12671 0.0
O190 O 0.37719 0.38558 0.16234 0.0
C191 C 0.42672 0.35643 0.10212 0.0
O192 O 0.41033 0.34276 0.09466 0.0
H193 H 0.38871 0.3423 0.17528 0.0
H194 H 0.36216 0.32492 0.10818 0.0
N195 N 0.36863 0.38263 0.10732 0.0
N196 N 0.35436 0.40968 0.08441 0.0
C197 C 0.36692 0.40476 0.1039 0.0
C198 C 0.35682 0.37313 0.0893 0.0
C199 C 0.34796 0.38977 0.07516 0.0
C200 C 0.35428 0.3883 0.16691 0.0
O201 O 0.33961 0.38319 0.14989 0.0
H202 H 0.37543 0.41695 0.11515 0.0
H203 H 0.35512 0.35542 0.08622 0.0
O204 O 0.42062 0.3701 0.11968 0.0
H205 H 0.35467 0.29119 0.13765 0.0
H206 H 0.33771 0.38734 0.05927 0.0
Cu207 Cu 0.35731 0.65016 0.9147 0.0
N208 N 0.36038 0.68075 0.91019 0.0
N209 N 0.36526 0.71186 0.88916 0.0
C210 C 0.3601 0.69 0.8883 0.0
C211 C 0.36889 0.71658 0.91268 0.0
C212 C 0.36585 0.69731 0.92564 0.0
O213 O 0.33707 0.63967 0.88916 0.0
C214 C 0.40911 0.6461 0.91296 0.0
O215 O 0.40863 0.6654 0.90227 0.0
H216 H 0.35741 0.68047 0.87183 0.0
H217 H 0.36837 0.69533 0.94472 0.0
N218 N 0.34155 0.64351 0.94428 0.0
N219 N 0.3301 0.62126 0.97446 0.0
C220 C 0.33947 0.62238 0.95144 0.0
C221 C 0.33314 0.65644 0.96339 0.0
C222 C 0.32609 0.6427 0.98214 0.0
C223 C 0.31569 0.6485 0.89091 0.0
O224 O 0.30982 0.66218 0.90943 0.0
H225 H 0.34608 0.60812 0.9403 0.0
H226 H 0.3329 0.67449 0.96396 0.0
O227 O 0.38938 0.63574 0.91639 0.0
H228 H 0.3738 0.73265 0.91997 0.0
H229 H 0.31908 0.64807 1.00012 0.0
Cu230 Cu 0.64037 0.64937 0.09719 0.0
N231 N 0.65777 0.64331 0.06761 0.0
N232 N 0.66625 0.6259 0.03174 0.0
C233 C 0.65052 0.62828 0.05132 0.0
C234 C 0.68431 0.64002 0.03593 0.0
C235 C 0.67896 0.65086 0.05811 0.0
O236 O 0.60676 0.64352 0.09003 0.0
C237 C 0.67336 0.61992 0.11923 0.0
O238 O 0.6808 0.61413 0.09689 0.0
H239 H 0.63431 0.61869 0.05426 0.0
H240 H 0.68993 0.66298 0.06687 0.0
N241 N 0.64302 0.67901 0.10769 0.0
N242 N 0.64425 0.70794 0.13391 0.0
C243 C 0.63869 0.6863 0.13083 0.0
C244 C 0.65164 0.6966 0.09561 0.0
C245 C 0.65239 0.71451 0.11175 0.0
C246 C 0.59851 0.65649 0.07431 0.0
O247 O 0.61168 0.67344 0.06755 0.0
H248 H 0.63253 0.6756 0.14529 0.0
H249 H 0.65745 0.69631 0.07656 0.0
O250 O 0.65415 0.63217 0.12292 0.0
H251 H 0.70024 0.64229 0.02392 0.0
H252 H 0.6586 0.731 0.10749 0.0
Cu253 Cu 0.63467 0.37269 0.87086 0.0
N254 N 0.62804 0.40303 0.86735 0.0
N255 N 0.62825 0.43973 0.87532 0.0
C256 C 0.63924 0.41973 0.87852 0.0
C257 C 0.60944 0.43547 0.86154 0.0
C258 C 0.60941 0.41279 0.85658 0.0
O259 O 0.6256 0.36746 0.90506 0.0
C260 C 0.67993 0.34866 0.85672 0.0
O261 O 0.66852 0.33033 0.8622 0.0
H262 H 0.65425 0.41708 0.88997 0.0
H263 H 0.59613 0.40395 0.84672 0.0
N264 N 0.61493 0.35639 0.85084 0.0
N265 N 0.60223 0.33338 0.82202 0.0
C266 C 0.62153 0.34333 0.83117 0.0
C267 C 0.59065 0.3549 0.85398 0.0
C268 C 0.58278 0.34068 0.83634 0.0
C269 C 0.61461 0.35038 0.91283 0.0
O270 O 0.61238 0.33319 0.89798 0.0
H271 H 0.64014 0.34072 0.82407 0.0
H272 H 0.57952 0.36336 0.86838 0.0
O273 O 0.66894 0.36752 0.8605 0.0
H274 H 0.5963 0.44778 0.85602 0.0
H275 H 0.56416 0.33607 0.83423 0.0
H276 H 0.19246 0.30059 0.36983 0.0
H277 H 0.22159 0.26936 0.36756 0.0
H278 H 0.17137 0.22944 0.32957 0.0
H279 H 0.14185 0.26087 0.33193 0.0
H280 H 0.18885 0.2058 0.36299 0.0
H281 H 0.22498 0.24757 0.30098 0.0
H282 H 0.24114 0.27971 0.27896 0.0
H283 H 0.29619 0.28687 0.33005 0.0
H284 H 0.2801 0.25505 0.35272 0.0
H285 H 0.29866 0.12819 0.35635 0.0
H286 H 0.26689 0.15247 0.34027 0.0
H287 H 0.27312 0.19923 0.39992 0.0
H288 H 0.3039 0.17521 0.41636 0.0
H289 H 0.2772 0.21415 0.34415 0.0
H290 H 0.22953 0.1765 0.40993 0.0
H291 H 0.21371 0.14226 0.42816 0.0
H292 H 0.18124 0.12486 0.36182 0.0
H293 H 0.19722 0.15889 0.34311 0.0
C294 C 0.18769 0.28538 0.36054 0.0
C295 C 0.16475 0.28335 0.35099 0.0
C296 C 0.20447 0.26744 0.3592 0.0
C297 C 0.19894 0.24705 0.34803 0.0
C298 C 0.17615 0.24499 0.33822 0.0
C299 C 0.15924 0.26296 0.33966 0.0
C300 C 0.21635 0.22758 0.34843 0.0
C301 C 0.20807 0.20753 0.35821 0.0
C302 C 0.2415 0.22952 0.34201 0.0
C303 C 0.25111 0.249 0.32874 0.0
C304 C 0.24035 0.25614 0.30772 0.0
C305 C 0.24955 0.27428 0.29507 0.0
C306 C 0.26961 0.28537 0.30316 0.0
C307 C 0.2806 0.27829 0.32385 0.0
C308 C 0.27145 0.26018 0.33661 0.0
C309 C 0.29295 0.14348 0.36619 0.0
C310 C 0.30376 0.14966 0.38771 0.0
C311 C 0.27493 0.15734 0.35694 0.0
C312 C 0.26781 0.17762 0.36894 0.0
C313 C 0.27842 0.18365 0.39042 0.0
C314 C 0.29596 0.16976 0.39984 0.0
C315 C 0.24963 0.19314 0.35939 0.0
C316 C 0.25784 0.21241 0.34804 0.0
C317 C 0.22445 0.19032 0.36375 0.0
C318 C 0.21484 0.17 0.37504 0.0
C319 C 0.21926 0.16523 0.39916 0.0
C320 C 0.21021 0.14591 0.4096 0.0
C321 C 0.19656 0.13134 0.39612 0.0
C322 C 0.19187 0.13612 0.37221 0.0
C323 C 0.20091 0.15541 0.36169 0.0
H324 H 0.18956 0.1164 0.40424 0.0
H325 H 0.27662 0.29945 0.29339 0.0
H326 H 0.25918 0.85227 0.63069 0.0
H327 H 0.23695 0.81829 0.62336 0.0
H328 H 0.27772 0.78429 0.67632 0.0
H329 H 0.3006 0.81814 0.68299 0.0
H330 H 0.27407 0.75721 0.64039 0.0
H331 H 0.21632 0.80274 0.68756 0.0
H332 H 0.19147 0.83645 0.69973 0.0
H333 H 0.15626 0.83286 0.63261 0.0
H334 H 0.18115 0.79929 0.61988 0.0
H335 H 0.18574 0.66907 0.65024 0.0
H336 H 0.21359 0.69941 0.65734 0.0
H337 H 0.18822 0.73335 0.59543 0.0
H338 H 0.1606 0.70317 0.58805 0.0
H339 H 0.18424 0.75927 0.63854 0.0
H340 H 0.24407 0.71136 0.59332 0.0
H341 H 0.26807 0.67635 0.58535 0.0
H342 H 0.29814 0.68302 0.65495 0.0
H343 H 0.27414 0.71798 0.66341 0.0
C344 C 0.2632 0.83762 0.64094 0.0
C345 C 0.28152 0.83791 0.65752 0.0
C346 C 0.25046 0.81816 0.63678 0.0
C347 C 0.2553 0.7987 0.64956 0.0
C348 C 0.2736 0.79901 0.66618 0.0
C349 C 0.28664 0.81837 0.67003 0.0
C350 C 0.2415 0.77801 0.64529 0.0
C351 C 0.2544 0.75765 0.64034 0.0
C352 C 0.2158 0.7784 0.64512 0.0
C353 C 0.20077 0.79861 0.65268 0.0
C354 C 0.20341 0.80923 0.67531 0.0
C355 C 0.1893 0.8283 0.68232 0.0
C356 C 0.17234 0.83682 0.66693 0.0
C357 C 0.16943 0.82626 0.6445 0.0
C358 C 0.18352 0.80719 0.63739 0.0
C359 C 0.18656 0.68267 0.63771 0.0
C360 C 0.17075 0.68371 0.61864 0.0
C361 C 0.20245 0.70006 0.64186 0.0
C362 C 0.20281 0.71874 0.62703 0.0
C363 C 0.18811 0.71916 0.6072 0.0
C364 C 0.17239 0.70179 0.60294 0.0
C365 C 0.21685 0.73873 0.63318 0.0
C366 C 0.20392 0.75891 0.63863 0.0
C367 C 0.2424 0.738 0.63441 0.0
C368 C 0.25706 0.71714 0.62913 0.0
C369 C 0.25564 0.70527 0.60701 0.0
C370 C 0.2693 0.68546 0.60237 0.0
C371 C 0.28456 0.67742 0.61966 0.0
C372 C 0.2863 0.68924 0.64157 0.0
C373 C 0.2727 0.70907 0.64628 0.0
H374 H 0.2951 0.66207 0.61605 0.0
H375 H 0.16143 0.85159 0.67239 0.0
H376 H 0.70389 0.82687 0.35868 0.0
H377 H 0.72738 0.79223 0.3613 0.0
H378 H 0.79387 0.82799 0.35196 0.0
H379 H 0.77055 0.86315 0.35023 0.0
H380 H 0.79233 0.78852 0.32231 0.0
H381 H 0.77675 0.81224 0.40638 0.0
H382 H 0.75044 0.824 0.44237 0.0
H383 H 0.71307 0.76219 0.43879 0.0
H384 H 0.73896 0.75019 0.40255 0.0
H385 H 0.88407 0.71905 0.35846 0.0
H386 H 0.85375 0.74939 0.36028 0.0
H387 H 0.79651 0.702 0.36735 0.0
H388 H 0.82712 0.6711 0.36535 0.0
H389 H 0.78892 0.74398 0.3969 0.0
H390 H 0.80534 0.71862 0.31528 0.0
H391 H 0.83103 0.70596 0.27922 0.0
H392 H 0.86487 0.76962 0.27708 0.0
H393 H 0.83968 0.78253 0.31343 0.0
C394 C 0.72348 0.82767 0.35757 0.0
C395 C 0.73521 0.84815 0.35457 0.0
C396 C 0.73689 0.80767 0.3589 0.0
C397 C 0.76234 0.80754 0.35701 0.0
C398 C 0.77419 0.82774 0.35347 0.0
C399 C 0.76079 0.84786 0.35242 0.0
C400 C 0.77662 0.78633 0.35873 0.0
C401 C 0.79174 0.7789 0.33868 0.0
C402 C 0.77507 0.77328 0.37976 0.0
C403 C 0.75961 0.78043 0.40161 0.0
C404 C 0.76278 0.80124 0.41315 0.0
C405 C 0.74798 0.80793 0.43361 0.0
C406 C 0.73005 0.79388 0.44282 0.0
C407 C 0.72694 0.77307 0.43162 0.0
C408 C 0.74168 0.76631 0.41113 0.0
C409 C 0.86506 0.71499 0.36083 0.0
C410 C 0.85797 0.69264 0.36149 0.0
C411 C 0.84775 0.7324 0.36185 0.0
C412 C 0.82291 0.72793 0.36352 0.0
C413 C 0.81564 0.70575 0.36597 0.0
C414 C 0.8331 0.68815 0.3649 0.0
C415 C 0.80507 0.74654 0.3607 0.0
C416 C 0.78928 0.75347 0.38045 0.0
C417 C 0.80573 0.75902 0.33927 0.0
C418 C 0.82076 0.75147 0.31722 0.0
C419 C 0.8184 0.72986 0.30725 0.0
C420 C 0.83286 0.72265 0.28674 0.0
C421 C 0.84961 0.73697 0.27589 0.0
C422 C 0.85189 0.75855 0.28551 0.0
C423 C 0.83752 0.76583 0.30607 0.0
H424 H 0.86078 0.73136 0.26001 0.0
H425 H 0.7186 0.79909 0.45867 0.0
H426 H 0.79704 0.32895 0.63571 0.0
H427 H 0.77266 0.29548 0.63962 0.0
H428 H 0.83813 0.25416 0.63392 0.0
H429 H 0.86254 0.28753 0.62998 0.0
H430 H 0.80254 0.23824 0.60528 0.0
H431 H 0.80994 0.26294 0.68763 0.0
H432 H 0.807 0.28977 0.72232 0.0
H433 H 0.72994 0.29705 0.71619 0.0
H434 H 0.73245 0.2704 0.6813 0.0
H435 H 0.74951 0.13673 0.6417 0.0
H436 H 0.77495 0.16943 0.64004 0.0
H437 H 0.71111 0.21251 0.6509 0.0
H438 H 0.68563 0.18001 0.65375 0.0
H439 H 0.74705 0.2271 0.67768 0.0
H440 H 0.73942 0.20357 0.59456 0.0
H441 H 0.74226 0.17687 0.55974 0.0
H442 H 0.81902 0.16808 0.56691 0.0
H443 H 0.81658 0.19451 0.602 0.0
C444 C 0.80621 0.31273 0.63511 0.0
C445 C 0.83174 0.31089 0.63261 0.0
C446 C 0.79228 0.29364 0.63753 0.0
C447 C 0.80359 0.27233 0.63727 0.0
C448 C 0.82902 0.27043 0.63426 0.0
C449 C 0.84295 0.28951 0.63214 0.0
C450 C 0.78895 0.25198 0.64 0.0
C451 C 0.79057 0.2357 0.62122 0.0
C452 C 0.77302 0.24885 0.66062 0.0
C453 C 0.77144 0.26486 0.68164 0.0
C454 C 0.7924 0.27041 0.69353 0.0
C455 C 0.7908 0.28554 0.71328 0.0
C456 C 0.76831 0.29519 0.7214 0.0
C457 C 0.74736 0.28961 0.70985 0.0
C458 C 0.74885 0.27446 0.69011 0.0
C459 C 0.74082 0.1531 0.64406 0.0
C460 C 0.71537 0.15556 0.64765 0.0
C461 C 0.75543 0.17185 0.64288 0.0
C462 C 0.74494 0.19349 0.64506 0.0
C463 C 0.71964 0.19601 0.64911 0.0
C464 C 0.70504 0.17731 0.65044 0.0
C465 C 0.76022 0.21354 0.64275 0.0
C466 C 0.75883 0.22972 0.66167 0.0
C467 C 0.77625 0.21667 0.62219 0.0
C468 C 0.77777 0.20084 0.60106 0.0
C469 C 0.75687 0.19581 0.58883 0.0
C470 C 0.75841 0.18075 0.56903 0.0
C471 C 0.78079 0.17074 0.56116 0.0
C472 C 0.80169 0.17582 0.57304 0.0
C473 C 0.80024 0.19085 0.59288 0.0
H474 H 0.78195 0.15908 0.54582 0.0
H475 H 0.76713 0.30694 0.73666 0.0
H476 H 0.37298 0.32798 0.2103 0.0
H477 H 0.37512 0.30622 0.24669 0.0
H478 H 0.37018 0.24546 0.20404 0.0
H479 H 0.36864 0.26713 0.16724 0.0
H480 H 0.34211 0.24452 0.2463 0.0
H481 H 0.42484 0.26212 0.22179 0.0
H482 H 0.45781 0.28754 0.21038 0.0
H483 H 0.44683 0.32207 0.27936 0.0
H484 H 0.41359 0.29702 0.29106 0.0
H485 H 0.42678 0.18467 0.33359 0.0
H486 H 0.42097 0.21019 0.30046 0.0
H487 H 0.3489 0.22789 0.33119 0.0
H488 H 0.35434 0.20129 0.36353 0.0
H489 H 0.41405 0.25164 0.2954 0.0
H490 H 0.31128 0.24222 0.28559 0.0
H491 H 0.27885 0.21578 0.29527 0.0
H492 H 0.3315 0.16153 0.29256 0.0
H493 H 0.36417 0.1875 0.28193 0.0
C494 C 0.37266 0.30999 0.20847 0.0
C495 C 0.37112 0.29933 0.18562 0.0
C496 C 0.37375 0.29757 0.2294 0.0
C497 C 0.37314 0.2742 0.22806 0.0
C498 C 0.37066 0.2635 0.20549 0.0
C499 C 0.36973 0.27593 0.18445 0.0
C500 C 0.37595 0.26092 0.25006 0.0
C501 C 0.35781 0.24604 0.25709 0.0
C502 C 0.39644 0.26294 0.2641 0.0
C503 C 0.41661 0.27782 0.25721 0.0
C504 C 0.42938 0.27521 0.23447 0.0
C505 C 0.44812 0.28955 0.22795 0.0
C506 C 0.45437 0.30644 0.24411 0.0
C507 C 0.44195 0.30899 0.26685 0.0
C508 C 0.42318 0.29472 0.27344 0.0
C509 C 0.40986 0.19425 0.33337 0.0
C510 C 0.39097 0.19103 0.35097 0.0
C511 C 0.40649 0.20881 0.31443 0.0
C512 C 0.38428 0.22069 0.31294 0.0
C513 C 0.36593 0.21847 0.33144 0.0
C514 C 0.36909 0.20345 0.35002 0.0
C515 C 0.38037 0.23479 0.29162 0.0
C516 C 0.39826 0.25004 0.28476 0.0
C517 C 0.35975 0.23284 0.27758 0.0
C518 C 0.34023 0.21688 0.28332 0.0
C519 C 0.31594 0.22463 0.28692 0.0
C520 C 0.2975 0.20972 0.29256 0.0
C521 C 0.30313 0.18703 0.2948 0.0
C522 C 0.32718 0.17914 0.29098 0.0
C523 C 0.34566 0.19393 0.28505 0.0
H524 H 0.28885 0.17556 0.29937 0.0
H525 H 0.46888 0.31753 0.23903 0.0
H526 H 0.26876 0.66357 0.89296 0.0
H527 H 0.23946 0.66069 0.86213 0.0
H528 H 0.29198 0.62306 0.81532 0.0
H529 H 0.32202 0.62627 0.84636 0.0
H530 H 0.2687 0.65493 0.7906 0.0
H531 H 0.24404 0.59708 0.84306 0.0
H532 H 0.23311 0.57949 0.88189 0.0
H533 H 0.17244 0.62562 0.89453 0.0
H534 H 0.1832 0.64372 0.85593 0.0
H535 H 0.17647 0.62837 0.71015 0.0
H536 H 0.20791 0.62492 0.7389 0.0
H537 H 0.16567 0.66792 0.79006 0.0
H538 H 0.13418 0.67209 0.7611 0.0
H539 H 0.18516 0.62945 0.81076 0.0
H540 H 0.21226 0.6886 0.75906 0.0
H541 H 0.2227 0.70496 0.71942 0.0
H542 H 0.27887 0.65457 0.70468 0.0
H543 H 0.2685 0.63768 0.7441 0.0
C544 C 0.2742 0.65452 0.87622 0.0
C545 C 0.2978 0.64507 0.87221 0.0
C546 C 0.25728 0.6528 0.85858 0.0
C547 C 0.26332 0.64139 0.83649 0.0
C548 C 0.28686 0.63186 0.8323 0.0
C549 C 0.30396 0.6336 0.85007 0.0
C550 C 0.24499 0.6402 0.8178 0.0
C551 C 0.2506 0.64892 0.79485 0.0
C552 C 0.22117 0.63274 0.82342 0.0
C553 C 0.21455 0.62186 0.84665 0.0
C554 C 0.22847 0.60359 0.85419 0.0
C555 C 0.22229 0.59351 0.87616 0.0
C556 C 0.20212 0.60146 0.89069 0.0
C557 C 0.18806 0.61949 0.88326 0.0
C558 C 0.19418 0.62964 0.86132 0.0
C559 C 0.17378 0.63739 0.72731 0.0
C560 C 0.15264 0.65077 0.733 0.0
C561 C 0.19185 0.63525 0.74384 0.0
C562 C 0.18926 0.64631 0.76653 0.0
C563 C 0.16803 0.65923 0.77261 0.0
C564 C 0.14998 0.66155 0.75599 0.0
C565 C 0.20879 0.6445 0.78384 0.0
C566 C 0.20336 0.63522 0.80649 0.0
C567 C 0.23277 0.65129 0.77786 0.0
C568 C 0.23942 0.66173 0.75442 0.0
C569 C 0.22673 0.68092 0.7473 0.0
C570 C 0.23265 0.69029 0.72489 0.0
C571 C 0.25138 0.68076 0.70952 0.0
C572 C 0.26433 0.6619 0.71659 0.0
C573 C 0.25846 0.65243 0.73898 0.0
H574 H 0.25585 0.68799 0.69215 0.0
H575 H 0.19736 0.59363 0.90768 0.0
H576 H 0.61374 0.70221 0.17356 0.0
H577 H 0.61202 0.72379 0.21189 0.0
H578 H 0.66994 0.76449 0.18377 0.0
H579 H 0.67201 0.74283 0.14559 0.0
H580 H 0.67592 0.74982 0.23161 0.0
H581 H 0.61378 0.78401 0.18419 0.0
H582 H 0.57659 0.78352 0.16157 0.0
H583 H 0.5359 0.76119 0.22464 0.0
H584 H 0.57297 0.76127 0.24755 0.0
H585 H 0.67614 0.85513 0.28213 0.0
H586 H 0.67202 0.8216 0.25774 0.0
H587 H 0.613 0.80132 0.3063 0.0
H588 H 0.61706 0.8356 0.33142 0.0
H589 H 0.60342 0.79781 0.25653 0.0
H590 H 0.6638 0.77227 0.30657 0.0
H591 H 0.70068 0.77397 0.3295 0.0
H592 H 0.74455 0.77935 0.26317 0.0
H593 H 0.70789 0.77807 0.23981 0.0
C594 C 0.62624 0.71563 0.17559 0.0
C595 C 0.64298 0.72081 0.15643 0.0
C596 C 0.62515 0.728 0.19748 0.0
C597 C 0.64085 0.74573 0.20067 0.0
C598 C 0.65768 0.75084 0.18169 0.0
C599 C 0.65868 0.73859 0.15977 0.0
C600 C 0.63948 0.75945 0.22347 0.0
C601 C 0.6601 0.76031 0.23712 0.0
C602 C 0.61843 0.77238 0.23122 0.0
C603 C 0.59619 0.77235 0.21747 0.0
C604 C 0.59695 0.77879 0.19316 0.0
C605 C 0.57589 0.77863 0.1803 0.0
C606 C 0.55391 0.77224 0.19163 0.0
C607 C 0.55294 0.76607 0.21587 0.0
C608 C 0.57397 0.76618 0.2288 0.0
C609 C 0.66222 0.84365 0.28786 0.0
C610 C 0.64681 0.84815 0.30874 0.0
C611 C 0.66006 0.8243 0.27389 0.0
C612 C 0.64245 0.80878 0.28033 0.0
C613 C 0.62685 0.81306 0.30114 0.0
C614 C 0.62919 0.83257 0.31545 0.0
C615 C 0.64023 0.78889 0.26414 0.0
C616 C 0.619 0.78682 0.2516 0.0
C617 C 0.66069 0.77472 0.25752 0.0
C618 C 0.68299 0.77514 0.2714 0.0
C619 C 0.68129 0.77395 0.29684 0.0
C620 C 0.70217 0.77484 0.30994 0.0
C621 C 0.72495 0.7768 0.29781 0.0
C622 C 0.72689 0.77781 0.27255 0.0
C623 C 0.70605 0.77696 0.25936 0.0
H624 H 0.7411 0.77752 0.30799 0.0
H625 H 0.53762 0.77214 0.18165 0.0
H626 H 0.70907 0.31145 0.84511 0.0
H627 H 0.74771 0.30948 0.82064 0.0
H628 H 0.74451 0.38096 0.81361 0.0
H629 H 0.70602 0.38308 0.83795 0.0
H630 H 0.75506 0.35973 0.77003 0.0
H631 H 0.78318 0.35651 0.85097 0.0
H632 H 0.78585 0.34116 0.89172 0.0
H633 H 0.81231 0.27828 0.86011 0.0
H634 H 0.80948 0.29318 0.81914 0.0
H635 H 0.8741 0.39204 0.7397 0.0
H636 H 0.83985 0.38304 0.76731 0.0
H637 H 0.84285 0.31521 0.73939 0.0
H638 H 0.87691 0.3242 0.71088 0.0
H639 H 0.83257 0.32898 0.79838 0.0
H640 H 0.80547 0.33304 0.71691 0.0
H641 H 0.80465 0.34974 0.67673 0.0
H642 H 0.77671 0.41157 0.70975 0.0
H643 H 0.77789 0.39532 0.75026 0.0
C644 C 0.71669 0.32678 0.83856 0.0
C645 C 0.70436 0.34743 0.84357 0.0
C646 C 0.73883 0.32562 0.82456 0.0
C647 C 0.74908 0.34507 0.81525 0.0
C648 C 0.73695 0.3657 0.82049 0.0
C649 C 0.71496 0.36689 0.83456 0.0
C650 C 0.77212 0.3441 0.79958 0.0
C651 C 0.77196 0.35299 0.77631 0.0
C652 C 0.79417 0.33484 0.8074 0.0
C653 C 0.79583 0.32587 0.832 0.0
C654 C 0.78935 0.33935 0.85271 0.0
C655 C 0.79093 0.33074 0.87584 0.0
C656 C 0.79916 0.30874 0.8785 0.0
C657 C 0.80589 0.29531 0.85802 0.0
C658 C 0.80431 0.30383 0.83484 0.0
C659 C 0.86794 0.37504 0.73967 0.0
C660 C 0.87822 0.35891 0.72282 0.0
C661 C 0.8483 0.36995 0.75553 0.0
C662 C 0.83872 0.34854 0.75526 0.0
C663 C 0.85003 0.33184 0.73987 0.0
C664 C 0.86951 0.33702 0.72361 0.0
C665 C 0.81534 0.34475 0.76913 0.0
C666 C 0.81549 0.3352 0.79202 0.0
C667 C 0.79321 0.35328 0.76097 0.0
C668 C 0.79201 0.36301 0.73664 0.0
C669 C 0.79935 0.35024 0.71564 0.0
C670 C 0.79879 0.35961 0.69279 0.0
C671 C 0.79066 0.38172 0.69068 0.0
C672 C 0.78303 0.39446 0.71142 0.0
C673 C 0.78364 0.38516 0.73433 0.0
H674 H 0.79025 0.38896 0.67297 0.0
H675 H 0.80039 0.30211 0.89643 0.0
H676 H 0.423 0.85358 0.7277 0.0
H677 H 0.42026 0.82617 0.75942 0.0
H678 H 0.36721 0.79055 0.72046 0.0
H679 H 0.36927 0.81841 0.68894 0.0
H680 H 0.35076 0.79759 0.76493 0.0
H681 H 0.42621 0.76866 0.72851 0.0
H682 H 0.46855 0.76982 0.71157 0.0
H683 H 0.49127 0.79379 0.78023 0.0
H684 H 0.449 0.79307 0.79751 0.0
H685 H 0.34391 0.70812 0.8464 0.0
H686 H 0.351 0.73071 0.81075 0.0
H687 H 0.40002 0.77125 0.84954 0.0
H688 H 0.39364 0.74816 0.88514 0.0
H689 H 0.41878 0.76014 0.80421 0.0
H690 H 0.34242 0.79022 0.83964 0.0
H691 H 0.29997 0.78837 0.85614 0.0
H692 H 0.27907 0.76109 0.78816 0.0
H693 H 0.32147 0.76251 0.77135 0.0
C694 C 0.41116 0.83964 0.72552 0.0
C695 C 0.39625 0.83831 0.70579 0.0
C696 C 0.40966 0.82388 0.74372 0.0
C697 C 0.39355 0.80619 0.7424 0.0
C698 C 0.37969 0.80409 0.72198 0.0
C699 C 0.38101 0.81997 0.70387 0.0
C700 C 0.38951 0.79123 0.76328 0.0
C701 C 0.36564 0.78906 0.77319 0.0
C702 C 0.40892 0.78055 0.77457 0.0
C703 C 0.43438 0.78099 0.76425 0.0
C704 C 0.4402 0.77435 0.73995 0.0
C705 C 0.46419 0.77489 0.73029 0.0
C706 C 0.48258 0.78192 0.7448 0.0
C707 C 0.47701 0.78837 0.76901 0.0
C708 C 0.45304 0.78787 0.77875 0.0
C709 C 0.3563 0.72175 0.84738 0.0
C710 C 0.36826 0.72625 0.86868 0.0
C711 C 0.36018 0.7348 0.827 0.0
C712 C 0.37591 0.7528 0.82749 0.0
C713 C 0.38778 0.75745 0.84875 0.0
C714 C 0.38392 0.74437 0.86918 0.0
C715 C 0.38011 0.7666 0.80574 0.0
C716 C 0.40396 0.76858 0.79577 0.0
C717 C 0.36069 0.77701 0.79427 0.0
C718 C 0.33516 0.77628 0.80432 0.0
C719 C 0.3288 0.78368 0.82827 0.0
C720 C 0.30474 0.78273 0.83767 0.0
C721 C 0.28684 0.77456 0.82323 0.0
C722 C 0.29295 0.76738 0.79933 0.0
C723 C 0.31699 0.76828 0.78986 0.0
H724 H 0.26823 0.77384 0.83054 0.0
H725 H 0.50115 0.78234 0.73728 0.0
H726 H 0.66551 0.63059 0.16793 0.0
H727 H 0.69595 0.6314 0.19841 0.0
H728 H 0.7504 0.60527 0.14496 0.0
H729 H 0.72002 0.60336 0.11499 0.0
H730 H 0.75907 0.58826 0.18519 0.0
H731 H 0.73969 0.66379 0.16161 0.0
H732 H 0.71277 0.69679 0.15697 0.0
H733 H 0.69574 0.70011 0.23381 0.0
H734 H 0.72219 0.66687 0.23887 0.0
H735 H 0.86829 0.6272 0.22995 0.0
H736 H 0.83279 0.62269 0.20587 0.0
H737 H 0.78539 0.63999 0.26886 0.0
H738 H 0.82082 0.6448 0.29293 0.0
H739 H 0.77089 0.66061 0.22784 0.0
H740 H 0.79252 0.58668 0.25137 0.0
H741 H 0.82019 0.55425 0.25596 0.0
H742 H 0.83381 0.54875 0.1787 0.0
H743 H 0.80648 0.58137 0.17367 0.0
C744 C 0.68386 0.62457 0.16284 0.0
C745 C 0.6903 0.61705 0.13892 0.0
C746 C 0.70135 0.62527 0.18023 0.0
C747 C 0.72574 0.61899 0.1739 0.0
C748 C 0.73181 0.61036 0.15039 0.0
C749 C 0.71432 0.60927 0.13318 0.0
C750 C 0.7453 0.62209 0.19114 0.0
C751 C 0.7617 0.60417 0.19431 0.0
C752 C 0.74856 0.64267 0.20366 0.0
C753 C 0.7327 0.66268 0.20058 0.0
C754 C 0.73006 0.67145 0.17749 0.0
C755 C 0.71489 0.69019 0.17479 0.0
C756 C 0.70252 0.70048 0.19509 0.0
C757 C 0.70529 0.69207 0.21812 0.0
C758 C 0.72035 0.67328 0.22091 0.0
C759 C 0.85032 0.63023 0.23861 0.0
C760 C 0.84739 0.63617 0.26341 0.0
C761 C 0.83004 0.6275 0.22488 0.0
C762 C 0.8064 0.63073 0.23563 0.0
C763 C 0.80343 0.63728 0.26021 0.0
C764 C 0.8237 0.63984 0.27399 0.0
C765 C 0.78482 0.62698 0.22127 0.0
C766 C 0.76808 0.64471 0.21876 0.0
C767 C 0.78131 0.60631 0.20921 0.0
C768 C 0.79761 0.58659 0.21216 0.0
C769 C 0.80155 0.57866 0.23537 0.0
C770 C 0.81715 0.56022 0.23805 0.0
C771 C 0.82879 0.54947 0.21764 0.0
C772 C 0.8248 0.5571 0.1945 0.0
C773 C 0.80924 0.57555 0.19172 0.0
H774 H 0.84086 0.53521 0.21975 0.0
H775 H 0.69087 0.71501 0.19301 0.0
H776 H 0.63078 0.1811 0.6483 0.0
H777 H 0.62859 0.2186 0.66756 0.0
H778 H 0.57478 0.19646 0.72088 0.0
H779 H 0.57704 0.1592 0.70192 0.0
H780 H 0.56514 0.23946 0.70736 0.0
H781 H 0.63457 0.19396 0.72976 0.0
H782 H 0.67375 0.17332 0.72237 0.0
H783 H 0.70685 0.23268 0.69584 0.0
H784 H 0.66775 0.25344 0.70231 0.0
H785 H 0.57166 0.29929 0.81697 0.0
H786 H 0.57194 0.27186 0.78366 0.0
H787 H 0.63318 0.3036 0.7481 0.0
H788 H 0.63324 0.33092 0.78189 0.0
H789 H 0.64064 0.2609 0.74536 0.0
H790 H 0.57407 0.3079 0.727 0.0
H791 H 0.53577 0.32985 0.73456 0.0
H792 H 0.49804 0.27017 0.7524 0.0
H793 H 0.53619 0.24788 0.74528 0.0
C794 C 0.61792 0.1845 0.66363 0.0
C795 C 0.60407 0.16726 0.67365 0.0
C796 C 0.61684 0.20585 0.67475 0.0
C797 C 0.60176 0.21025 0.69587 0.0
C798 C 0.58658 0.19348 0.70466 0.0
C799 C 0.58787 0.17218 0.69379 0.0
C800 C 0.60307 0.23138 0.71037 0.0
C801 C 0.58164 0.2442 0.71566 0.0
C802 C 0.62479 0.23796 0.72063 0.0
C803 C 0.64812 0.22517 0.71615 0.0
C804 C 0.65011 0.20251 0.72198 0.0
C805 C 0.67234 0.19079 0.71799 0.0
C806 C 0.69279 0.20165 0.70857 0.0
C807 C 0.69102 0.22422 0.70302 0.0
C808 C 0.66881 0.23595 0.70677 0.0
C809 C 0.585 0.30063 0.80193 0.0
C810 C 0.60232 0.3174 0.80201 0.0
C811 C 0.5851 0.28494 0.78279 0.0
C812 C 0.60224 0.28588 0.76299 0.0
C813 C 0.61967 0.30256 0.76306 0.0
C814 C 0.61975 0.31814 0.78241 0.0
C815 C 0.60251 0.26873 0.74292 0.0
C816 C 0.62422 0.25659 0.73664 0.0
C817 C 0.58111 0.26293 0.73154 0.0
C818 C 0.55805 0.27623 0.73573 0.0
C819 C 0.55764 0.29947 0.73268 0.0
C820 C 0.53595 0.31197 0.73687 0.0
C821 C 0.51449 0.30141 0.74399 0.0
C822 C 0.51467 0.27832 0.74688 0.0
C823 C 0.53632 0.26574 0.74274 0.0
H824 H 0.49772 0.31112 0.74723 0.0
H825 H 0.71001 0.19259 0.70562 0.0
H826 H 0.36964 0.37329 0.21018 0.0
H827 H 0.34541 0.37363 0.2491 0.0
H828 H 0.28913 0.41282 0.21775 0.0
H829 H 0.31305 0.41234 0.17913 0.0
H830 H 0.29456 0.42673 0.26355 0.0
H831 H 0.28721 0.35673 0.22016 0.0
H832 H 0.29992 0.32035 0.20097 0.0
H833 H 0.32571 0.29827 0.26832 0.0
H834 H 0.31369 0.33475 0.2878 0.0
H835 H 0.18222 0.40183 0.32413 0.0
H836 H 0.21741 0.4069 0.296 0.0
H837 H 0.26182 0.36648 0.34039 0.0
H838 H 0.2266 0.36122 0.36862 0.0
H839 H 0.26786 0.35342 0.29323 0.0
H840 H 0.26994 0.42257 0.33756 0.0
H841 H 0.25339 0.45793 0.35643 0.0
H842 H 0.23502 0.48095 0.28676 0.0
H843 H 0.25114 0.44559 0.26749 0.0
C844 C 0.35246 0.38257 0.21191 0.0
C845 C 0.34329 0.39295 0.1917 0.0
C846 C 0.33848 0.38252 0.23405 0.0
C847 C 0.31526 0.39303 0.23632 0.0
C848 C 0.30692 0.40459 0.21653 0.0
C849 C 0.32066 0.40438 0.19445 0.0
C850 C 0.29873 0.39106 0.25852 0.0
C851 C 0.28873 0.41068 0.27003 0.0
C852 C 0.29144 0.37012 0.26739 0.0
C853 C 0.29988 0.34863 0.25535 0.0
C854 C 0.29597 0.34428 0.23079 0.0
C855 C 0.30295 0.3236 0.21988 0.0
C856 C 0.31353 0.307 0.23344 0.0
C857 C 0.31747 0.31115 0.25785 0.0
C858 C 0.31067 0.33185 0.26881 0.0
C859 C 0.19954 0.39428 0.32815 0.0
C860 C 0.20152 0.38116 0.34873 0.0
C861 C 0.21972 0.39725 0.31205 0.0
C862 C 0.2424 0.38721 0.31611 0.0
C863 C 0.24457 0.37445 0.33686 0.0
C864 C 0.2244 0.37156 0.35308 0.0
C865 C 0.26337 0.38909 0.29793 0.0
C866 C 0.27413 0.36946 0.28715 0.0
C867 C 0.27125 0.41 0.2896 0.0
C868 C 0.26162 0.43135 0.3011 0.0
C869 C 0.26222 0.4351 0.32628 0.0
C870 C 0.25294 0.45516 0.33704 0.0
C871 C 0.24312 0.47166 0.32281 0.0
C872 C 0.24262 0.46815 0.29776 0.0
C873 C 0.25186 0.44811 0.2869 0.0
H874 H 0.23595 0.48718 0.33118 0.0
H875 H 0.31871 0.29094 0.22501 0.0
H876 H 0.94224 0.38315 0.56862 0.0
H877 H 0.97712 0.38012 0.53981 0.0
H878 H 0.00994 0.32987 0.58285 0.0
H879 H 0.97478 0.3333 0.61264 0.0
H880 H 0.04375 0.35855 0.56537 0.0
H881 H 0.98362 0.3148 0.53074 0.0
H882 H 0.94299 0.30567 0.51773 0.0
H883 H 0.94558 0.35976 0.46828 0.0
H884 H 0.98609 0.36943 0.48125 0.0
H885 H 0.12486 0.32931 0.45897 0.0
H886 H 0.09609 0.32875 0.49457 0.0
H887 H 0.05686 0.38541 0.46818 0.0
H888 H 0.08556 0.38631 0.4328 0.0
H889 H 0.02799 0.34806 0.47845 0.0
H890 H 0.08797 0.3925 0.51604 0.0
H891 H 0.12893 0.40023 0.52917 0.0
H892 H 0.12722 0.3419 0.57266 0.0
H893 H 0.08635 0.33364 0.55951 0.0
C894 C 0.95673 0.37133 0.57209 0.0
C895 C 0.95548 0.35822 0.59287 0.0
C896 C 0.97675 0.3696 0.55546 0.0
C897 C 0.99599 0.35441 0.55877 0.0
C898 C 0.99522 0.34159 0.57979 0.0
C899 C 0.9751 0.34349 0.59674 0.0
C900 C 0.01652 0.35215 0.53991 0.0
C901 C 0.04037 0.3558 0.54642 0.0
C902 C 0.01219 0.34875 0.51509 0.0
C903 C 0.98786 0.34292 0.50709 0.0
C904 C 0.97547 0.32484 0.5172 0.0
C905 C 0.95246 0.31956 0.50982 0.0
C906 C 0.94169 0.33215 0.49222 0.0
C907 C 0.95394 0.35002 0.48192 0.0
C908 C 0.97695 0.35539 0.48925 0.0
C909 C 0.11039 0.34193 0.46098 0.0
C910 C 0.10752 0.35781 0.44295 0.0
C911 C 0.09397 0.34158 0.48136 0.0
C912 C 0.07427 0.35698 0.48399 0.0
C913 C 0.0719 0.37334 0.46649 0.0
C914 C 0.08843 0.37388 0.44631 0.0
C915 C 0.05502 0.3551 0.50384 0.0
C916 C 0.03139 0.35056 0.49744 0.0
C917 C 0.05968 0.35736 0.52867 0.0
C918 C 0.08423 0.3623 0.53655 0.0
C919 C 0.09643 0.38119 0.5282 0.0
C920 C 0.1196 0.3857 0.5357 0.0
C921 C 0.1307 0.37152 0.55167 0.0
C922 C 0.11862 0.35284 0.56025 0.0
C923 C 0.09544 0.34825 0.55279 0.0
H924 H 0.14864 0.37505 0.55746 0.0
H925 H 0.92388 0.32803 0.48653 0.0
H926 H 0.37725 0.04334 0.44362 0.0
H927 H 0.38137 0.01088 0.46901 0.0
H928 H 0.37453 0.05371 0.53302 0.0
H929 H 0.36974 0.0862 0.50794 0.0
H930 H 0.41317 0.02294 0.53354 0.0
H931 H 0.32761 0.0236 0.51718 0.0
H932 H 0.29323 0.02296 0.49065 0.0
H933 H 0.31964 0.95998 0.45924 0.0
H934 H 0.35438 0.96041 0.48538 0.0
H935 H 0.37369 0.96273 0.6334 0.0
H936 H 0.38212 0.98658 0.59922 0.0
H937 H 0.38422 0.92914 0.55039 0.0
H938 H 0.37575 0.90486 0.58512 0.0
H939 H 0.35387 0.96214 0.536 0.0
H940 H 0.43654 0.95861 0.55457 0.0
H941 H 0.47247 0.95894 0.57904 0.0
H942 H 0.45308 0.02556 0.60496 0.0
H943 H 0.41712 0.02572 0.58046 0.0
C944 C 0.37624 0.04594 0.46309 0.0
C945 C 0.3731 0.06759 0.47362 0.0
C946 C 0.37876 0.02729 0.47759 0.0
C947 C 0.37827 0.02985 0.50292 0.0
C948 C 0.37514 0.05135 0.51349 0.0
C949 C 0.37245 0.06996 0.49906 0.0
C950 C 0.38097 0.01025 0.51861 0.0
C951 C 0.40015 0.00969 0.53417 0.0
C952 C 0.36462 0.99243 0.51868 0.0
C953 C 0.34374 0.99218 0.503 0.0
C954 C 0.32621 0.00972 0.50445 0.0
C955 C 0.30663 0.00937 0.48953 0.0
C956 C 0.3043 0.99147 0.47321 0.0
C957 C 0.3215 0.97385 0.47185 0.0
C958 C 0.34113 0.97414 0.48672 0.0
C959 C 0.37635 0.95506 0.61544 0.0
C960 C 0.37391 0.93195 0.61188 0.0
C961 C 0.38138 0.96873 0.59588 0.0
C962 C 0.38398 0.95971 0.57217 0.0
C963 C 0.38241 0.93646 0.56855 0.0
C964 C 0.37769 0.9226 0.58834 0.0
C965 C 0.38568 0.97516 0.55152 0.0
C966 C 0.36727 0.97506 0.53503 0.0
C967 C 0.40288 0.99227 0.55041 0.0
C968 C 0.42409 0.99213 0.56573 0.0
C969 C 0.43986 0.97329 0.56559 0.0
C970 C 0.46031 0.97344 0.57934 0.0
C971 C 0.46508 0.99228 0.5935 0.0
C972 C 0.44941 0.01102 0.59391 0.0
C973 C 0.42906 0.01104 0.57999 0.0
H974 H 0.48085 0.99231 0.60425 0.0
H975 H 0.28913 0.99123 0.46167 0.0
H976 H 0.08688 0.66055 0.56022 0.0
H977 H 0.068 0.65966 0.52132 0.0
H978 H 1.00099 0.68635 0.55627 0.0
H979 H 0.01998 0.68736 0.59543 0.0
H980 H 0.99561 0.64819 0.52482 0.0
H981 H 0.03263 0.7197 0.52321 0.0
H982 H 0.06611 0.7458 0.52667 0.0
H983 H 0.10724 0.71048 0.4686 0.0
H984 H 0.07413 0.68394 0.46502 0.0
H985 H 0.93612 0.67173 0.41812 0.0
H986 H 0.95495 0.67641 0.45662 0.0
H987 H 0.02364 0.65229 0.42312 0.0
H988 H 1.00481 0.64689 0.38455 0.0
H989 H 0.0278 0.68995 0.454 0.0
H990 H 0.99317 0.61792 0.45601 0.0
H991 H 0.96102 0.59054 0.452 0.0
H992 H 0.91712 0.62499 0.50876 0.0
H993 H 0.9489 0.65282 0.51286 0.0
C994 C 0.06811 0.66618 0.55964 0.0
C995 C 0.05485 0.67393 0.58088 0.0
C996 C 0.0574 0.6658 0.53738 0.0
C997 C 0.03312 0.673 0.53588 0.0
C998 C 0.01977 0.68075 0.55704 0.0
C999 C 0.03063 0.68144 0.57933 0.0
C1000 C 0.02173 0.67198 0.51222 0.0
C1001 C 1.00235 0.65762 0.50946 0.0
C1002 C 0.03107 0.68373 0.49197 0.0
C1003 C 0.05099 0.6997 0.49401 0.0
C1004 C 0.0489 0.71737 0.51132 0.0
C1005 C 0.0678 0.73227 0.51327 0.0
C1006 C 0.08882 0.72977 0.49791 0.0
C1007 C 0.09096 0.71238 0.48051 0.0
C1008 C 0.07212 0.69742 0.4785 0.0
C1009 C 0.95518 0.66724 0.41884 0.0
C1010 C 0.96879 0.65866 0.39812 0.0
C1011 C 0.96596 0.67005 0.44091 0.0
C1012 C 0.99064 0.6645 0.4428 0.0
C1013 C 1.00456 0.6567 0.42205 0.0
C1014 C 0.99373 0.65369 0.39995 0.0
C1015 C 1.00161 0.66624 0.46666 0.0
C1016 C 0.02095 0.68064 0.46942 0.0
C1017 C 0.99242 0.65435 0.48686 0.0
C1018 C 0.9733 0.6376 0.48456 0.0
C1019 C 0.97657 0.61978 0.46749 0.0
C1020 C 0.95843 0.60416 0.46523 0.0
C1021 C 0.937 0.60606 0.48007 0.0
C1022 C 0.93371 0.62357 0.49725 0.0
C1023 C 0.95179 0.63927 0.49957 0.0
H1024 H 0.92298 0.59394 0.4783 0.0
H1025 H 0.10343 0.74132 0.49944 0.0
H1026 H 0.63329 0.08594 0.55959 0.0
H1027 H 0.63085 0.0608 0.52399 0.0
H1028 H 0.63529 1.00388 0.56994 0.0
H1029 H 0.63863 0.02866 0.60498 0.0
H1030 H 0.66447 0.9964 0.53351 0.0
H1031 H 0.5816 0.02267 0.54283 0.0
H1032 H 0.54726 0.05001 0.54605 0.0
H1033 H 0.56751 0.07314 0.47498 0.0
H1034 H 0.60223 0.0462 0.47148 0.0
H1035 H 0.64192 0.91481 0.44152 0.0
H1036 H 0.63391 0.9385 0.47843 0.0
H1037 H 0.64147 0.99741 0.43572 0.0
H1038 H 0.64962 0.97407 0.39926 0.0
H1039 H 0.60405 1.00246 0.47095 0.0
H1040 H 0.68878 0.97813 0.46408 0.0
H1041 H 0.72232 0.94992 0.46064 0.0
H1042 H 0.69657 0.92211 0.52792 0.0
H1043 H 0.66267 0.95 0.53159 0.0
C1044 C 0.63357 0.06807 0.56202 0.0
C1045 C 0.63638 0.05932 0.58507 0.0
C1046 C 0.63205 0.05367 0.54169 0.0
C1047 C 0.63277 0.03031 0.54417 0.0
C1048 C 0.63488 0.02174 0.56736 0.0
C1049 C 0.63678 0.03601 0.58746 0.0
C1050 C 0.63272 0.01456 0.52274 0.0
C1051 C 0.65091 0.99758 0.52013 0.0
C1052 C 0.61542 0.01616 0.50484 0.0
C1053 C 0.59474 0.0326 0.50704 0.0
C1054 C 0.57891 0.03376 0.52799 0.0
C1055 C 0.55933 0.04916 0.52985 0.0
C1056 C 0.55526 0.06337 0.51077 0.0
C1057 C 0.57073 0.06217 0.48977 0.0
C1058 C 0.59036 0.04684 0.48785 0.0
C1059 C 0.6415 0.93279 0.44007 0.0
C1060 C 0.64671 0.94258 0.41761 0.0
C1061 C 0.63701 0.94632 0.46111 0.0
C1062 C 0.63735 0.96976 0.45986 0.0
C1063 C 0.64117 0.97942 0.43719 0.0
C1064 C 0.64599 0.96601 0.41637 0.0
C1065 C 0.63557 0.98443 0.48209 0.0
C1066 C 0.61726 1.00124 0.48466 0.0
C1067 C 0.65261 0.98264 0.50009 0.0
C1068 C 0.67305 0.96597 0.49796 0.0
C1069 C 0.69017 0.96589 0.47804 0.0
C1070 C 0.70926 0.94998 0.47606 0.0
C1071 C 0.71153 0.93419 0.49401 0.0
C1072 C 0.69475 0.93432 0.51401 0.0
C1073 C 0.67561 0.95017 0.51605 0.0
H1074 H 0.72632 0.92189 0.49245 0.0
H1075 H 0.54007 0.07525 0.51223 0.0
H1076 H 0.42541 0.08238 0.3365 0.0
H1077 H 0.46064 0.05891 0.32115 0.0
H1078 H 0.45991 0.02551 0.38945 0.0
H1079 H 0.42558 0.04935 0.40489 0.0
H1080 H 0.50261 0.04167 0.37933 0.0
H1081 H 0.44577 0.9993 0.33485 0.0
H1082 H 0.41406 0.99393 0.30581 0.0
H1083 H 0.46147 0.01846 0.24862 0.0
H1084 H 0.49337 0.02424 0.27741 0.0
H1085 H 0.58296 0.9514 0.3654 0.0
H1086 H 0.54617 0.97447 0.36829 0.0
H1087 H 0.56629 1.00311 0.29945 0.0
H1088 H 0.6032 0.97899 0.29576 0.0
H1089 H 0.51665 0.99388 0.30495 0.0
H1090 H 0.57516 0.03202 0.35014 0.0
H1091 H 0.60659 0.03524 0.37983 0.0
H1092 H 0.55507 0.0174 0.43692 0.0
H1093 H 0.52341 0.01367 0.40751 0.0
C1094 C 0.43237 0.0695 0.34783 0.0
C1095 C 0.42293 0.06757 0.37182 0.0
C1096 C 0.45252 0.05616 0.33912 0.0
C1097 C 0.4631 0.04056 0.35423 0.0
C1098 C 0.4523 0.03758 0.37754 0.0
C1099 C 0.43258 0.05107 0.3863 0.0
C1100 C 0.48677 0.02895 0.34723 0.0
C1101 C 0.50554 0.03107 0.36315 0.0
C1102 C 0.49103 0.01586 0.32562 0.0
C1103 C 0.47184 0.01247 0.30835 0.0
C1104 C 0.44935 1.00375 0.31613 0.0
C1105 C 0.43136 1.00059 0.29971 0.0
C1106 C 0.43572 1.00592 0.2754 0.0
C1107 C 0.4581 0.01438 0.26746 0.0
C1108 C 0.47614 0.01759 0.28382 0.0
C1109 C 0.57957 0.96219 0.35053 0.0
C1110 C 0.59617 0.96316 0.33023 0.0
C1111 C 0.55852 0.97562 0.35239 0.0
C1112 C 0.55364 0.99074 0.33427 0.0
C1113 C 0.5698 0.9916 0.3137 0.0
C1114 C 0.59097 0.97796 0.31173 0.0
C1115 C 0.53191 1.00593 0.33761 0.0
C1116 C 0.5137 1.00469 0.32096 0.0
C1117 C 0.52799 0.01977 0.35869 0.0
C1118 C 0.54691 0.02245 0.37654 0.0
C1119 C 0.57055 0.02867 0.36899 0.0
C1120 C 0.58841 0.03057 0.38578 0.0
C1121 C 0.58284 0.02648 0.41023 0.0
C1122 C 0.55936 0.02055 0.41796 0.0
C1123 C 0.54144 0.01856 0.40124 0.0
H1124 H 0.59671 0.02792 0.4232 0.0
H1125 H 0.42177 1.00345 0.26271 0.0
H1126 H 0.03605 0.60547 0.66759 0.0
H1127 H 0.01417 0.57106 0.66606 0.0
H1128 H 0.07788 0.53655 0.63296 0.0
H1129 H 0.10025 0.57163 0.63408 0.0
H1130 H 0.03564 0.52478 0.61141 0.0
H1131 H 0.06225 0.52808 0.69155 0.0
H1132 H 0.06964 0.54538 0.73127 0.0
H1133 H 0.9929 0.55696 0.74592 0.0
H1134 H 0.98505 0.54002 0.70614 0.0
H1135 H 0.96999 0.42396 0.63107 0.0
H1136 H 1.00126 0.45207 0.6307 0.0
H1137 H 0.94992 0.49957 0.66636 0.0
H1138 H 0.91884 0.47136 0.66761 0.0
H1139 H 0.99241 0.50023 0.68704 0.0
H1140 H 0.96682 0.50096 0.60462 0.0
H1141 H 0.9596 0.48381 0.56476 0.0
H1142 H 0.03506 0.46403 0.55472 0.0
H1143 H 0.04267 0.48085 0.59468 0.0
C1144 C 0.04564 0.59065 0.65999 0.0
C1145 C 0.07008 0.59134 0.65115 0.0
C1146 C 0.03301 0.57088 0.65921 0.0
C1147 C 0.04445 0.55108 0.64984 0.0
C1148 C 0.06873 0.55163 0.64045 0.0
C1149 C 0.08151 0.57163 0.64116 0.0
C1150 C 0.03053 0.53014 0.65007 0.0
C1151 C 0.02662 0.51907 0.62801 0.0
C1152 C 0.01848 0.52283 0.67168 0.0
C1153 C 0.02308 0.53286 0.69578 0.0
C1154 C 0.04696 0.53443 0.70318 0.0
C1155 C 0.05123 0.54416 0.72572 0.0
C1156 C 0.03176 0.55229 0.7411 0.0
C1157 C 0.00797 0.55065 0.73399 0.0
C1158 C 1.00359 0.54095 0.71146 0.0
C1159 C 0.96534 0.44032 0.63902 0.0
C1160 C 0.94179 0.4453 0.64945 0.0
C1161 C 0.98323 0.45647 0.63855 0.0
C1162 C 0.97795 0.47804 0.64832 0.0
C1163 C 0.95447 0.48307 0.65867 0.0
C1164 C 0.9366 0.46694 0.65919 0.0
C1165 C 0.99683 0.49535 0.6483 0.0
C1166 C 1.00172 0.50569 0.67047 0.0
C1167 C 0.0098 0.50187 0.62682 0.0
C1168 C 1.00526 0.49194 0.60274 0.0
C1169 C 0.98184 0.49281 0.59398 0.0
C1170 C 0.97768 0.48318 0.57136 0.0
C1171 C 0.99684 0.47278 0.55725 0.0
C1172 C 0.02022 0.47206 0.56569 0.0
C1173 C 0.02447 0.48165 0.58831 0.0
H1174 H 0.99358 0.46532 0.53975 0.0
H1175 H 0.0351 0.55983 0.75854 0.0
H1176 H 0.54917 0.08374 0.68087 0.0
H1177 H 0.51126 0.0638 0.68863 0.0
H1178 H 0.55269 1.0033 0.69985 0.0
H1179 H 0.5906 0.02326 0.6925 0.0
H1180 H 0.51326 1.00021 0.66588 0.0
H1181 H 0.52926 0.02691 0.74688 0.0
H1182 H 0.53724 0.05606 0.77743 0.0
H1183 H 0.4696 0.08958 0.76452 0.0
H1184 H 0.46139 0.06076 0.73361 0.0
H1185 H 0.43139 0.92507 0.71126 0.0
H1186 H 0.46546 0.95032 0.71066 0.0
H1187 H 0.4153 0.00693 0.71203 0.0
H1188 H 0.38095 0.98141 0.71314 0.0
H1189 H 0.45656 0.0152 0.7381 0.0
H1190 H 0.43809 0.9885 0.66001 0.0
H1191 H 0.42812 0.95944 0.63019 0.0
H1192 H 0.49859 0.92822 0.63506 0.0
H1193 H 0.50874 0.95669 0.66556 0.0
C1194 C 0.55012 0.0662 0.68504 0.0
C1195 C 0.57277 0.05502 0.68612 0.0
C1196 C 0.52852 0.05488 0.68954 0.0
C1197 C 0.52922 0.03211 0.69481 0.0
C1198 C 0.5518 0.02089 0.69582 0.0
C1199 C 0.5734 0.0323 0.69178 0.0
C1200 C 0.50643 0.01983 0.69887 0.0
C1201 C 0.50097 1.00333 0.68176 0.0
C1202 C 0.48996 0.02457 0.71911 0.0
C1203 C 0.49486 0.04184 0.73773 0.0
C1204 C 0.51621 0.04062 0.75038 0.0
C1205 C 0.52074 0.05705 0.7678 0.0
C1206 C 0.50397 0.0747 0.77286 0.0
C1207 C 0.48259 0.07592 0.76055 0.0
C1208 C 0.47798 0.05953 0.74309 0.0
C1209 C 0.42767 0.94292 0.71196 0.0
C1210 C 0.40368 0.95136 0.71198 0.0
C1211 C 0.44708 0.95732 0.7116 0.0
C1212 C 0.44292 0.98047 0.71076 0.0
C1213 C 0.41889 0.98909 0.71258 0.0
C1214 C 0.39932 0.97458 0.71324 0.0
C1215 C 0.46375 0.99513 0.70546 0.0
C1216 C 0.46876 0.01217 0.72214 0.0
C1217 C 0.47963 0.99119 0.68455 0.0
C1218 C 0.47409 0.97462 0.66532 0.0
C1219 C 0.4514 0.97533 0.65491 0.0
C1220 C 0.44566 0.95889 0.63797 0.0
C1221 C 0.46264 0.9419 0.63088 0.0
C1222 C 0.48543 0.94136 0.64065 0.0
C1223 C 0.49117 0.95762 0.6578 0.0
H1224 H 0.4582 0.92925 0.61767 0.0
H1225 H 0.50751 0.08741 0.78636 0.0
H1226 H 0.91552 0.57218 0.38029 0.0
H1227 H 0.93733 0.53715 0.38877 0.0
H1228 H 0.94982 0.52345 0.31196 0.0
H1229 H 0.9279 0.55785 0.3035 0.0
H1230 H 0.94092 0.48581 0.33487 0.0
H1231 H 0.99216 0.55028 0.34663 0.0
H1232 H 1.00061 0.5862 0.36683 0.0
H1233 H 0.99744 0.55492 0.43591 0.0
H1234 H 0.9887 0.51886 0.41612 0.0
H1235 H 0.04905 0.42391 0.31065 0.0
H1236 H 0.01743 0.45314 0.31507 0.0
H1237 H 0.01958 0.45161 0.39284 0.0
H1238 H 0.05134 0.42211 0.38856 0.0
H1239 H 0.01669 0.49423 0.3779 0.0
H1240 H 0.97267 0.42833 0.36526 0.0
H1241 H 0.96279 0.3926 0.34562 0.0
H1242 H 0.95076 0.4261 0.27949 0.0
H1243 H 0.96092 0.462 0.29862 0.0
C1244 C 0.92236 0.56135 0.36528 0.0
C1245 C 0.92013 0.56785 0.34122 0.0
C1246 C 0.93503 0.54145 0.37012 0.0
C1247 C 0.94564 0.52782 0.35099 0.0
C1248 C 0.94193 0.53365 0.32705 0.0
C1249 C 0.92941 0.55341 0.32224 0.0
C1250 C 0.96212 0.50835 0.35527 0.0
C1251 C 0.9575 0.48766 0.34427 0.0
C1252 C 0.98341 0.51049 0.36819 0.0
C1253 C 0.98957 0.53195 0.37994 0.0
C1254 C 0.99323 0.55109 0.36613 0.0
C1255 C 0.99805 0.57147 0.3775 0.0
C1256 C 0.9995 0.57285 0.40265 0.0
C1257 C 0.99629 0.55382 0.41645 0.0
C1258 C 0.99142 0.53341 0.40516 0.0
C1259 C 0.0427 0.42954 0.32874 0.0
C1260 C 0.05271 0.42038 0.34924 0.0
C1261 C 0.02458 0.44635 0.33125 0.0
C1262 C 0.01576 0.45438 0.35431 0.0
C1263 C 0.026 0.44566 0.37485 0.0
C1264 C 0.04423 0.42881 0.37235 0.0
C1265 C 0.99592 0.47191 0.35664 0.0
C1266 C 0.99992 0.4922 0.3689 0.0
C1267 C 0.97395 0.4694 0.34494 0.0
C1268 C 0.9677 0.44785 0.33336 0.0
C1269 C 0.96808 0.42806 0.34648 0.0
C1270 C 0.9624 0.40778 0.33545 0.0
C1271 C 0.95619 0.40707 0.31132 0.0
C1272 C 0.95558 0.42667 0.29819 0.0
C1273 C 0.96126 0.447 0.30913 0.0
H1274 H 0.9518 0.39135 0.3028 0.0
H1275 H 1.00314 0.58866 0.41143 0.0
H1276 H 0.35169 0.44937 0.10936 0.0
H1277 H 0.34577 0.48645 0.09291 0.0
H1278 H 0.34044 0.45682 0.02158 0.0
H1279 H 0.34706 0.41976 0.03776 0.0
H1280 H 0.3701 0.4918 0.02043 0.0
H1281 H 0.29002 0.47698 0.05511 0.0
H1282 H 0.26004 0.46711 0.08772 0.0
H1283 H 0.27912 0.52426 0.13021 0.0
H1284 H 0.30947 0.5343 0.09796 0.0
H1285 H 0.32179 0.57987 0.95695 0.0
H1286 H 0.32402 0.54504 0.97864 0.0
H1287 H 0.33529 0.58184 0.04486 0.0
H1288 H 0.33348 0.61696 0.02306 0.0
H1289 H 0.30388 0.54487 0.05101 0.0
H1290 H 0.38283 0.56051 0.01631 0.0
H1291 H 0.41252 0.57101 0.98372 0.0
H1292 H 0.39607 0.5126 0.94189 0.0
H1293 H 0.36594 0.50196 0.97406 0.0
C1294 C 0.34938 0.45072 0.09016 0.0
C1295 C 0.34988 0.43153 0.07489 0.0
C1296 C 0.34577 0.47194 0.08082 0.0
C1297 C 0.34246 0.47442 0.05604 0.0
C1298 C 0.34289 0.45531 0.04077 0.0
C1299 C 0.34647 0.43409 0.0501 0.0
C1300 C 0.33914 0.49692 0.04585 0.0
C1301 C 0.35545 0.50327 0.02695 0.0
C1302 C 0.3205 0.51222 0.05488 0.0
C1303 C 0.30219 0.50625 0.07423 0.0
C1304 C 0.28796 0.48734 0.07149 0.0
C1305 C 0.27088 0.48173 0.08989 0.0
C1306 C 0.26772 0.49501 0.11106 0.0
C1307 C 0.28161 0.51397 0.11382 0.0
C1308 C 0.29874 0.51963 0.09548 0.0
C1309 C 0.32467 0.58062 0.97614 0.0
C1310 C 0.32789 0.60119 0.98817 0.0
C1311 C 0.32583 0.56069 0.98853 0.0
C1312 C 0.33023 0.56085 0.01325 0.0
C1313 C 0.33196 0.58138 0.02575 0.0
C1314 C 0.33085 0.60143 0.01328 0.0
C1315 C 0.33456 0.53945 0.02537 0.0
C1316 C 0.31856 0.53337 0.04462 0.0
C1317 C 0.35357 0.5244 0.01678 0.0
C1318 C 0.37196 0.53054 0.99752 0.0
C1319 C 0.3854 0.54999 1.00009 0.0
C1320 C 0.40233 0.55596 0.9817 0.0
C1321 C 0.40614 0.54251 0.96073 0.0
C1322 C 0.39308 0.52302 0.95814 0.0
C1323 C 0.37608 0.517 0.97646 0.0
H1324 H 0.41925 0.54716 0.94651 0.0
H1325 H 0.25449 0.49065 0.12529 0.0
H1326 H 0.45203 0.66754 0.91405 0.0
H1327 H 0.48452 0.66115 0.94099 0.0
H1328 H 0.44858 0.60324 0.96879 0.0
H1329 H 0.41524 0.61009 0.94229 0.0
H1330 H 0.46179 0.62728 1.00506 0.0
H1331 H 0.50483 0.59883 0.93362 0.0
H1332 H 0.51953 0.59767 0.89057 0.0
H1333 H 0.55742 0.65842 0.90132 0.0
H1334 H 0.54285 0.66003 0.9444 0.0
H1335 H 0.57075 0.6186 0.07564 0.0
H1336 H 0.53878 0.60885 0.04822 0.0
H1337 H 0.54681 0.6721 0.01366 0.0
H1338 H 0.57802 0.68203 0.04083 0.0
H1339 H 0.5492 0.63494 0.98086 0.0
H1340 H 0.49963 0.66501 0.05117 0.0
H1341 H 0.48448 0.66524 0.09408 0.0
H1342 H 0.45933 0.59856 0.08485 0.0
H1343 H 0.47464 0.59784 0.04193 0.0
C1344 C 0.45117 0.65314 0.92549 0.0
C1345 C 0.43092 0.63936 0.92593 0.0
C1346 C 0.46994 0.64942 0.94089 0.0
C1347 C 0.46931 0.63153 0.95685 0.0
C1348 C 0.44958 0.61714 0.95666 0.0
C1349 C 0.43059 0.62099 0.94134 0.0
C1350 C 0.4883 0.62922 0.97488 0.0
C1351 C 0.48096 0.62836 0.99966 0.0
C1352 C 0.5134 0.63066 0.96806 0.0
C1353 C 0.52263 0.62959 0.94224 0.0
C1354 C 0.51622 0.61199 0.92679 0.0
C1355 C 0.52455 0.61125 0.90238 0.0
C1356 C 0.53935 0.62799 0.8932 0.0
C1357 C 0.54593 0.64548 0.90844 0.0
C1358 C 0.53773 0.64626 0.93289 0.0
C1359 C 0.56537 0.63054 0.06247 0.0
C1360 C 0.57704 0.65108 0.06044 0.0
C1361 C 0.54721 0.62491 0.04674 0.0
C1362 C 0.54061 0.63967 0.02871 0.0
C1363 C 0.55177 0.66035 0.02722 0.0
C1364 C 0.56959 0.66603 0.04293 0.0
C1365 C 0.5225 0.63392 0.01084 0.0
C1366 C 0.53007 0.63323 0.98611 0.0
C1367 C 0.49773 0.63078 0.0177 0.0
C1368 C 0.48858 0.63125 0.04346 0.0
C1369 C 0.49109 0.65031 0.05836 0.0
C1370 C 0.48243 0.65055 0.08266 0.0
C1371 C 0.47104 0.63189 0.09221 0.0
C1372 C 0.46822 0.61298 0.07745 0.0
C1373 C 0.47688 0.61265 0.05314 0.0
H1374 H 0.46433 0.63211 0.11103 0.0
H1375 H 0.54578 0.62739 0.8743 0.0
H1376 H 0.67272 0.45502 0.88342 0.0
H1377 H 0.68197 0.48944 0.90543 0.0
H1378 H 0.60522 0.50553 0.91637 0.0
H1379 H 0.5961 0.47162 0.89351 0.0
H1380 H 0.62735 0.54189 0.90839 0.0
H1381 H 0.64031 0.48077 0.96102 0.0
H1382 H 0.65794 0.44477 0.97308 0.0
H1383 H 0.7296 0.47102 0.96538 0.0
H1384 H 0.71241 0.50711 0.95295 0.0
H1385 H 0.62487 0.61057 0.01432 0.0
H1386 H 0.6213 0.58122 0.98359 0.0
H1387 H 0.6994 0.57668 0.97211 0.0
H1388 H 0.70312 0.60568 1.00371 0.0
H1389 H 0.68002 0.53602 0.97774 0.0
H1390 H 0.66357 0.5996 0.92879 0.0
H1391 H 0.64277 0.63532 0.92052 0.0
H1392 H 0.5738 0.60365 0.92571 0.0
H1393 H 0.59415 0.56781 0.93406 0.0
C1394 C 0.6579 0.46604 0.89042 0.0
C1395 C 0.63372 0.46064 0.88688 0.0
C1396 C 0.66316 0.48565 0.90308 0.0
C1397 C 0.64429 0.49993 0.91306 0.0
C1398 C 0.62013 0.49484 0.90889 0.0
C1399 C 0.61491 0.47546 0.89582 0.0
C1400 C 0.64954 0.51974 0.92851 0.0
C1401 C 0.63877 0.54053 0.92362 0.0
C1402 C 0.66472 0.51819 0.94825 0.0
C1403 C 0.6751 0.49654 0.95579 0.0
C1404 C 0.65984 0.47881 0.96173 0.0
C1405 C 0.66975 0.4584 0.96865 0.0
C1406 C 0.69488 0.45559 0.96992 0.0
C1407 C 0.71015 0.47321 0.96434 0.0
C1408 C 0.70033 0.49365 0.95737 0.0
C1409 C 0.64132 0.60338 1.00528 0.0
C1410 C 0.6643 0.61035 0.01165 0.0
C1411 C 0.63924 0.58675 0.98747 0.0
C1412 C 0.66007 0.57687 0.97533 0.0
C1413 C 0.68307 0.58414 0.98118 0.0
C1414 C 0.68517 0.60082 0.9991 0.0
C1415 C 0.6577 0.55803 0.95769 0.0
C1416 C 0.66895 0.53742 0.96224 0.0
C1417 C 0.64257 0.55965 0.93798 0.0
C1418 C 0.63039 0.58104 0.93213 0.0
C1419 C 0.64396 0.60028 0.92817 0.0
C1420 C 0.63225 0.62054 0.92345 0.0
C1421 C 0.60697 0.62177 0.92258 0.0
C1422 C 0.59336 0.6027 0.92629 0.0
C1423 C 0.60499 0.58238 0.93094 0.0
H1424 H 0.59796 0.6375 0.91903 0.0
H1425 H 0.70252 0.43978 0.97529 0.0
H1426 H 0.46051 0.38974 0.10039 0.0
H1427 H 0.4977 0.39076 0.07347 0.0
H1428 H 0.48407 0.32463 0.04584 0.0
H1429 H 0.44735 0.32349 0.07249 0.0
H1430 H 0.53182 0.32913 0.05216 0.0
H1431 H 0.46771 0.37129 0.01568 0.0
H1432 H 0.43664 0.4016 0.01464 0.0
H1433 H 0.49137 0.45035 0.02307 0.0
H1434 H 0.52271 0.42028 0.02448 0.0
H1435 H 0.58747 0.31775 0.93399 0.0
H1436 H 0.561 0.32074 0.97097 0.0
H1437 H 0.5838 0.38808 0.98358 0.0
H1438 H 0.61013 0.38534 0.94623 0.0
H1439 H 0.53595 0.38675 0.98936 0.0
H1440 H 0.6011 0.34473 0.02 0.0
H1441 H 0.63223 0.3145 0.02098 0.0
H1442 H 0.5765 0.26582 0.02409 0.0
H1443 H 0.54503 0.29574 0.02279 0.0
C1444 C 0.46571 0.37531 0.08886 0.0
C1445 C 0.45086 0.35659 0.08852 0.0
C1446 C 0.48688 0.37595 0.07336 0.0
C1447 C 0.49362 0.35785 0.05737 0.0
C1448 C 0.47936 0.33882 0.05792 0.0
C1449 C 0.45824 0.33824 0.07317 0.0
C1450 C 0.51466 0.35877 0.03908 0.0
C1451 C 0.5327 0.3417 0.03839 0.0
C1452 C 0.51629 0.37549 0.02145 0.0
C1453 C 0.49748 0.39355 0.02049 0.0
C1454 C 0.47307 0.38847 0.0175 0.0
C1455 C 0.45543 0.4056 0.01682 0.0
C1456 C 0.46201 0.42788 0.01887 0.0
C1457 C 0.48628 0.43308 0.02154 0.0
C1458 C 0.50399 0.416 0.02228 0.0
C1459 C 0.5872 0.33311 0.94477 0.0
C1460 C 0.60104 0.35128 0.93704 0.0
C1461 C 0.57205 0.33478 0.96605 0.0
C1462 C 0.57045 0.35459 0.98033 0.0
C1463 C 0.58467 0.3726 0.97296 0.0
C1464 C 0.59986 0.37095 0.95163 0.0
C1465 C 0.55288 0.35677 1.00206 0.0
C1466 C 0.53544 0.37439 1.00337 0.0
C1467 C 0.55184 0.34057 0.0203 0.0
C1468 C 0.5707 0.32249 0.02113 0.0
C1469 C 0.59548 0.32757 0.02072 0.0
C1470 C 0.61319 0.31049 0.02136 0.0
C1471 C 0.60635 0.28825 0.02255 0.0
C1472 C 0.58178 0.28305 0.02316 0.0
C1473 C 0.56399 0.30007 0.0225 0.0
H1474 H 0.62009 0.27505 0.02305 0.0
H1475 H 0.44833 0.44113 0.01833 0.0
loop_
_geom_bond_atom_site_label_1
_geom_bond_atom_site_label_2
_geom_bond_distance
_geom_bond_site_symmetry_2
_ccdc_geom_bond_type
Cu0 N1 1.999 . S
Cu0 O6 1.974 . S
Cu0 N11 1.985 . S
Cu0 O20 1.959 . S
N1 Cu0 1.999 . S
N1 C3 1.263 . S
N1 C5 1.389 . S
N2 C3 1.358 . S
N2 C4 1.400 . S
C3 N1 1.263 . S
C3 N2 1.358 . S
C3 H9 0.930 . S
C4 N2 1.400 . S
C4 C5 1.351 . S
C4 H21 0.930 . S
C5 N1 1.389 . S
C5 C4 1.351 . S
C5 H10 0.930 . S
O6 Cu0 1.974 . S
O6 C16 1.282 . S
C7 O8 1.261 . S
C7 O20 1.251 . S
O8 C7 1.261 . S
H9 C3 0.930 . S
H10 C5 0.930 . S
N11 Cu0 1.985 . S
N11 C13 1.335 . S
N11 C14 1.390 . S
N12 C13 1.345 . S
N12 C15 1.336 . S
C13 N11 1.335 . S
C13 N12 1.345 . S
C13 H18 0.930 . S
C14 N11 1.390 . S
C14 C15 1.346 . S
C14 H19 0.930 . S
C15 N12 1.336 . S
C15 C14 1.346 . S
C15 H22 0.929 . S
C16 O6 1.282 . S
C16 O17 1.216 . S
O17 C16 1.216 . S
H18 C13 0.930 . S
H19 C14 0.930 . S
O20 Cu0 1.959 . S
O20 C7 1.251 . S
H21 C4 0.930 . S
H22 C15 0.929 . S
Cu23 N24 1.999 . S
Cu23 O29 1.974 . S
Cu23 N34 1.985 . S
Cu23 O43 1.959 . S
N24 Cu23 1.999 . S
N24 C26 1.263 . S
N24 C28 1.389 . S
N25 C26 1.358 . S
N25 C27 1.400 . S
C26 N24 1.263 . S
C26 N25 1.358 . S
C26 H32 0.930 . S
C27 N25 1.400 . S
C27 C28 1.351 . S
C27 H44 0.930 . S
C28 N24 1.389 . S
C28 C27 1.351 . S
C28 H33 0.930 . S
O29 Cu23 1.974 . S
O29 C39 1.282 . S
C30 O31 1.261 . S
C30 O43 1.251 . S
O31 C30 1.261 . S
H32 C26 0.930 . S
H33 C28 0.930 . S
N34 Cu23 1.985 . S
N34 C36 1.335 . S
N34 C37 1.390 . S
N35 C36 1.345 . S
N35 C38 1.336 . S
C36 N34 1.335 . S
C36 N35 1.345 . S
C36 H41 0.930 . S
C37 N34 1.390 . S
C37 C38 1.346 . S
C37 H42 0.930 . S
C38 N35 1.336 . S
C38 C37 1.346 . S
C38 H45 0.929 . S
C39 O29 1.282 . S
C39 O40 1.216 . S
O40 C39 1.216 . S
H41 C36 0.930 . S
H42 C37 0.930 . S
O43 Cu23 1.959 . S
O43 C30 1.251 . S
H44 C27 0.930 . S
H45 C38 0.929 . S
Cu46 N47 1.999 . S
Cu46 O52 1.974 . S
Cu46 N57 1.985 . S
Cu46 O66 1.959 . S
N47 Cu46 1.999 . S
N47 C49 1.263 . S
N47 C51 1.389 . S
N48 C49 1.358 . S
N48 C50 1.400 . S
C49 N47 1.263 . S
C49 N48 1.358 . S
C49 H55 0.930 . S
C50 N48 1.400 . S
C50 C51 1.351 . S
C50 H67 0.930 . S
C51 N47 1.389 . S
C51 C50 1.351 . S
C51 H56 0.930 . S
O52 Cu46 1.974 . S
O52 C62 1.282 . S
C53 O54 1.261 . S
C53 O66 1.251 . S
O54 C53 1.261 . S
H55 C49 0.930 . S
H56 C51 0.930 . S
N57 Cu46 1.985 . S
N57 C59 1.335 . S
N57 C60 1.390 . S
N58 C59 1.345 . S
N58 C61 1.336 . S
C59 N57 1.335 . S
C59 N58 1.345 . S
C59 H64 0.930 . S
C60 N57 1.390 . S
C60 C61 1.346 . S
C60 H65 0.930 . S
C61 N58 1.336 . S
C61 C60 1.346 . S
C61 H68 0.929 . S
C62 O52 1.282 . S
C62 O63 1.216 . S
O63 C62 1.216 . S
H64 C59 0.930 . S
H65 C60 0.930 . S
O66 Cu46 1.959 . S
O66 C53 1.251 . S
H67 C50 0.930 . S
H68 C61 0.929 . S
Cu69 N70 1.999 . S
Cu69 O75 1.974 . S
Cu69 N80 1.985 . S
Cu69 O89 1.959 . S
N70 Cu69 1.999 . S
N70 C72 1.263 . S
N70 C74 1.389 . S
N71 C72 1.358 . S
N71 C73 1.400 . S
C72 N70 1.263 . S
C72 N71 1.358 . S
C72 H78 0.930 . S
C73 N71 1.400 . S
C73 C74 1.351 . S
C73 H90 0.930 . S
C74 N70 1.389 . S
C74 C73 1.351 . S
C74 H79 0.930 . S
O75 Cu69 1.974 . S
O75 C85 1.282 . S
C76 O77 1.261 . S
C76 O89 1.251 . S
O77 C76 1.261 . S
H78 C72 0.930 . S
H79 C74 0.930 . S
N80 Cu69 1.985 . S
N80 C82 1.335 . S
N80 C83 1.390 . S
N81 C82 1.345 . S
N81 C84 1.336 . S
C82 N80 1.335 . S
C82 N81 1.345 . S
C82 H87 0.930 . S
C83 N80 1.390 . S
C83 C84 1.346 . S
C83 H88 0.930 . S
C84 N81 1.336 . S
C84 C83 1.346 . S
C84 H91 0.929 . S
C85 O75 1.282 . S
C85 O86 1.216 . S
O86 C85 1.216 . S
H87 C82 0.930 . S
H88 C83 0.930 . S
O89 Cu69 1.959 . S
O89 C76 1.251 . S
H90 C73 0.930 . S
H91 C84 0.929 . S
Cu92 N93 1.999 . S
Cu92 O98 1.974 . S
Cu92 N103 1.985 . S
Cu92 O112 1.959 . S
N93 Cu92 1.999 . S
N93 C95 1.263 . S
N93 C97 1.389 . S
N94 C95 1.358 . S
N94 C96 1.400 . S
C95 N93 1.263 . S
C95 N94 1.358 . S
C95 H101 0.930 . S
C96 N94 1.400 . S
C96 C97 1.351 . S
C96 H113 0.930 . S
C97 N93 1.389 . S
C97 C96 1.351 . S
C97 H102 0.930 . S
O98 Cu92 1.974 . S
O98 C108 1.282 . S
C99 O100 1.261 . S
C99 O112 1.251 . S
O100 C99 1.261 . S
H101 C95 0.930 . S
H102 C97 0.930 . S
N103 Cu92 1.985 . S
N103 C105 1.335 . S
N103 C106 1.390 . S
N104 C105 1.345 . S
N104 C107 1.336 . S
C105 N103 1.335 . S
C105 N104 1.345 . S
C105 H110 0.930 . S
C106 N103 1.390 . S
C106 C107 1.346 . S
C106 H111 0.930 . S
C107 N104 1.336 . S
C107 C106 1.346 . S
C107 H114 0.929 . S
C108 O98 1.282 . S
C108 O109 1.216 . S
O109 C108 1.216 . S
H110 C105 0.930 . S
H111 C106 0.930 . S
O112 Cu92 1.959 . S
O112 C99 1.251 . S
H113 C96 0.930 . S
H114 C107 0.929 . S
Cu115 N116 1.999 . S
Cu115 O121 1.974 . S
Cu115 N126 1.985 . S
Cu115 O135 1.959 . S
N116 Cu115 1.999 . S
N116 C118 1.263 . S
N116 C120 1.389 . S
N117 C118 1.358 . S
N117 C119 1.400 . S
C118 N116 1.263 . S
C118 N117 1.358 . S
C118 H124 0.930 . S
C119 N117 1.400 . S
C119 C120 1.351 . S
C119 H136 0.930 . S
C120 N116 1.389 . S
C120 C119 1.351 . S
C120 H125 0.930 . S
O121 Cu115 1.974 . S
O121 C131 1.282 . S
C122 O123 1.261 . S
C122 O135 1.251 . S
O123 C122 1.261 . S
H124 C118 0.930 . S
H125 C120 0.930 . S
N126 Cu115 1.985 . S
N126 C128 1.335 . S
N126 C129 1.390 . S
N127 C128 1.345 . S
N127 C130 1.336 . S
C128 N126 1.335 . S
C128 N127 1.345 . S
C128 H133 0.930 . S
C129 N126 1.390 . S
C129 C130 1.346 . S
C129 H134 0.930 . S
C130 N127 1.336 . S
C130 C129 1.346 . S
C130 H137 0.929 . S
C131 O121 1.282 . S
C131 O132 1.216 . S
O132 C131 1.216 . S
H133 C128 0.930 . S
H134 C129 0.930 . S
O135 Cu115 1.959 . S
O135 C122 1.251 . S
H136 C119 0.930 . S
H137 C130 0.929 . S
Cu138 N139 1.999 . S
Cu138 O144 1.974 . S
Cu138 N149 1.985 . S
Cu138 O158 1.959 . S
N139 Cu138 1.999 . S
N139 C141 1.263 . S
N139 C143 1.389 . S
N140 C141 1.358 . S
N140 C142 1.400 . S
C141 N139 1.263 . S
C141 N140 1.358 . S
C141 H147 0.930 . S
C142 N140 1.400 . S
C142 C143 1.351 . S
C142 H159 0.930 . S
C143 N139 1.389 . S
C143 C142 1.351 . S
C143 H148 0.930 . S
O144 Cu138 1.974 . S
O144 C154 1.282 . S
C145 O146 1.261 . S
C145 O158 1.251 . S
O146 C145 1.261 . S
H147 C141 0.930 . S
H148 C143 0.930 . S
N149 Cu138 1.985 . S
N149 C151 1.335 . S
N149 C152 1.390 . S
N150 C151 1.345 . S
N150 C153 1.336 . S
C151 N149 1.335 . S
C151 N150 1.345 . S
C151 H156 0.930 . S
C152 N149 1.390 . S
C152 C153 1.346 . S
C152 H157 0.930 . S
C153 N150 1.336 . S
C153 C152 1.346 . S
C153 H160 0.929 . S
C154 O144 1.282 . S
C154 O155 1.216 . S
O155 C154 1.216 . S
H156 C151 0.930 . S
H157 C152 0.930 . S
O158 Cu138 1.959 . S
O158 C145 1.251 . S
H159 C142 0.930 . S
H160 C153 0.929 . S
Cu161 N162 1.999 . S
Cu161 O167 1.974 . S
Cu161 N172 1.985 . S
Cu161 O181 1.959 . S
N162 Cu161 1.999 . S
N162 C164 1.263 . S
N162 C166 1.389 . S
N163 C164 1.358 . S
N163 C165 1.400 . S
C164 N162 1.263 . S
C164 N163 1.358 . S
C164 H170 0.930 . S
C165 N163 1.400 . S
C165 C166 1.351 . S
C165 H182 0.930 . S
C166 N162 1.389 . S
C166 C165 1.351 . S
C166 H171 0.930 . S
O167 Cu161 1.974 . S
O167 C177 1.282 . S
C168 O169 1.261 . S
C168 O181 1.251 . S
O169 C168 1.261 . S
H170 C164 0.930 . S
H171 C166 0.930 . S
N172 Cu161 1.985 . S
N172 C174 1.335 . S
N172 C175 1.390 . S
N173 C174 1.345 . S
N173 C176 1.336 . S
C174 N172 1.335 . S
C174 N173 1.345 . S
C174 H179 0.930 . S
C175 N172 1.390 . S
C175 C176 1.346 . S
C175 H180 0.930 . S
C176 N173 1.336 . S
C176 C175 1.346 . S
C176 H183 0.929 . S
C177 O167 1.282 . S
C177 O178 1.216 . S
O178 C177 1.216 . S
H179 C174 0.930 . S
H180 C175 0.930 . S
O181 Cu161 1.959 . S
O181 C168 1.251 . S
H182 C165 0.930 . S
H183 C176 0.929 . S
Cu184 N185 1.999 . S
Cu184 O190 1.974 . S
Cu184 N195 1.985 . S
Cu184 O204 1.959 . S
N185 Cu184 1.999 . S
N185 C187 1.263 . S
N185 C189 1.389 . S
N186 C187 1.358 . S
N186 C188 1.400 . S
C187 N185 1.263 . S
C187 N186 1.358 . S
C187 H193 0.930 . S
C188 N186 1.400 . S
C188 C189 1.351 . S
C188 H205 0.930 . S
C189 N185 1.389 . S
C189 C188 1.351 . S
C189 H194 0.930 . S
O190 Cu184 1.974 . S
O190 C200 1.282 . S
C191 O192 1.261 . S
C191 O204 1.251 . S
O192 C191 1.261 . S
H193 C187 0.930 . S
H194 C189 0.930 . S
N195 Cu184 1.985 . S
N195 C197 1.335 . S
N195 C198 1.390 . S
N196 C197 1.345 . S
N196 C199 1.336 . S
C197 N195 1.335 . S
C197 N196 1.345 . S
C197 H202 0.930 . S
C198 N195 1.390 . S
C198 C199 1.346 . S
C198 H203 0.930 . S
C199 N196 1.336 . S
C199 C198 1.346 . S
C199 H206 0.929 . S
C200 O190 1.282 . S
C200 O201 1.216 . S
O201 C200 1.216 . S
H202 C197 0.930 . S
H203 C198 0.930 . S
O204 Cu184 1.959 . S
O204 C191 1.251 . S
H205 C188 0.930 . S
H206 C199 0.929 . S
Cu207 N208 1.999 . S
Cu207 O213 1.974 . S
Cu207 N218 1.985 . S
Cu207 O227 1.959 . S
N208 Cu207 1.999 . S
N208 C210 1.263 . S
N208 C212 1.389 . S
N209 C210 1.358 . S
N209 C211 1.400 . S
C210 N208 1.263 . S
C210 N209 1.358 . S
C210 H216 0.930 . S
C211 N209 1.400 . S
C211 C212 1.351 . S
C211 H228 0.930 . S
C212 N208 1.389 . S
C212 C211 1.351 . S
C212 H217 0.930 . S
O213 Cu207 1.974 . S
O213 C223 1.282 . S
C214 O215 1.261 . S
C214 O227 1.251 . S
O215 C214 1.261 . S
H216 C210 0.930 . S
H217 C212 0.930 . S
N218 Cu207 1.985 . S
N218 C220 1.335 . S
N218 C221 1.390 . S
N219 C220 1.345 . S
N219 C222 1.336 . S
C220 N218 1.335 . S
C220 N219 1.345 . S
C220 H225 0.930 . S
C221 N218 1.390 . S
C221 C222 1.346 . S
C221 H226 0.930 . S
C222 N219 1.336 . S
C222 C221 1.346 . S
C222 H229 0.929 . S
C223 O213 1.282 . S
C223 O224 1.216 . S
O224 C223 1.216 . S
H225 C220 0.930 . S
H226 C221 0.930 . S
O227 Cu207 1.959 . S
O227 C214 1.251 . S
H228 C211 0.930 . S
H229 C222 0.929 . S
Cu230 N231 1.999 . S
Cu230 O236 1.974 . S
Cu230 N241 1.985 . S
Cu230 O250 1.959 . S
N231 Cu230 1.999 . S
N231 C233 1.263 . S
N231 C235 1.389 . S
N232 C233 1.358 . S
N232 C234 1.400 . S
C233 N231 1.263 . S
C233 N232 1.358 . S
C233 H239 0.930 . S
C234 N232 1.400 . S
C234 C235 1.351 . S
C234 H251 0.930 . S
C235 N231 1.389 . S
C235 C234 1.351 . S
C235 H240 0.930 . S
O236 Cu230 1.974 . S
O236 C246 1.282 . S
C237 O238 1.261 . S
C237 O250 1.251 . S
O238 C237 1.261 . S
H239 C233 0.930 . S
H240 C235 0.930 . S
N241 Cu230 1.985 . S
N241 C243 1.335 . S
N241 C244 1.390 . S
N242 C243 1.345 . S
N242 C245 1.336 . S
C243 N241 1.335 . S
C243 N242 1.345 . S
C243 H248 0.930 . S
C244 N241 1.390 . S
C244 C245 1.346 . S
C244 H249 0.930 . S
C245 N242 1.336 . S
C245 C244 1.346 . S
C245 H252 0.929 . S
C246 O236 1.282 . S
C246 O247 1.216 . S
O247 C246 1.216 . S
H248 C243 0.930 . S
H249 C244 0.930 . S
O250 Cu230 1.959 . S
O250 C237 1.251 . S
H251 C234 0.930 . S
H252 C245 0.929 . S
Cu253 N254 1.999 . S
Cu253 O259 1.974 . S
Cu253 N264 1.985 . S
Cu253 O273 1.959 . S
N254 Cu253 1.999 . S
N254 C256 1.263 . S
N254 C258 1.389 . S
N255 C256 1.358 . S
N255 C257 1.400 . S
C256 N254 1.263 . S
C256 N255 1.358 . S
C256 H262 0.930 . S
C257 N255 1.400 . S
C257 C258 1.351 . S
C257 H274 0.930 . S
C258 N254 1.389 . S
C258 C257 1.351 . S
C258 H263 0.930 . S
O259 Cu253 1.974 . S
O259 C269 1.282 . S
C260 O261 1.261 . S
C260 O273 1.251 . S
O261 C260 1.261 . S
H262 C256 0.930 . S
H263 C258 0.930 . S
N264 Cu253 1.985 . S
N264 C266 1.335 . S
N264 C267 1.390 . S
N265 C266 1.345 . S
N265 C268 1.336 . S
C266 N264 1.335 . S
C266 N265 1.345 . S
C266 H271 0.930 . S
C267 N264 1.390 . S
C267 C268 1.346 . S
C267 H272 0.930 . S
C268 N265 1.336 . S
C268 C267 1.346 . S
C268 H275 0.929 . S
C269 O259 1.282 . S
C269 O270 1.216 . S
O270 C269 1.216 . S
H271 C266 0.930 . S
H272 C267 0.930 . S
O273 Cu253 1.959 . S
O273 C260 1.251 . S
H274 C257 0.930 . S
H275 C268 0.929 . S
H276 C294 0.951 . S
H277 C296 0.951 . S
H278 C298 0.950 . S
H279 C299 0.950 . S
H280 C301 0.950 . S
H281 C304 0.950 . S
H282 C305 0.950 . S
H283 C307 0.950 . S
H284 C308 0.950 . S
H285 C309 0.951 . S
H286 C311 0.951 . S
H287 C313 0.950 . S
H288 C314 0.950 . S
H289 C316 0.950 . S
H290 C319 0.950 . S
H291 C320 0.950 . S
H292 C322 0.950 . S
H293 C323 0.950 . S
C294 H276 0.951 . S
C294 C295 1.366 . S
C294 C296 1.388 . S
C295 C294 1.366 . S
C295 C299 1.385 . S
C296 H277 0.951 . S
C296 C294 1.388 . S
C296 C297 1.366 . S
C297 C296 1.366 . S
C297 C298 1.414 . S
C297 C300 1.499 . S
C298 H278 0.950 . S
C298 C297 1.414 . S
C298 C299 1.374 . S
C299 H279 0.950 . S
C299 C295 1.385 . S
C299 C298 1.374 . S
C300 C297 1.499 . S
C300 C301 1.373 . S
C300 C302 1.389 . S
C301 H280 0.950 . S
C301 C300 1.373 . S
C301 C317 1.377 . S
C302 C300 1.389 . S
C302 C303 1.524 . S
C302 C316 1.377 . S
C303 C302 1.524 . S
C303 C304 1.397 . S
C303 C308 1.363 . S
C304 H281 0.950 . S
C304 C303 1.397 . S
C304 C305 1.334 . S
C305 H282 0.950 . S
C305 C304 1.334 . S
C305 C306 1.287 . S
C306 C305 1.287 . S
C306 C307 1.524 . S
C306 H325 0.913 . S
C307 H283 0.950 . S
C307 C306 1.524 . S
C307 C308 1.415 . S
C308 H284 0.950 . S
C308 C303 1.363 . S
C308 C307 1.415 . S
C309 H285 0.951 . S
C309 C310 1.366 . S
C309 C311 1.388 . S
C310 C309 1.366 . S
C310 C314 1.385 . S
C311 H286 0.951 . S
C311 C309 1.388 . S
C311 C312 1.366 . S
C312 C311 1.366 . S
C312 C313 1.414 . S
C312 C315 1.499 . S
C313 H287 0.950 . S
C313 C312 1.414 . S
C313 C314 1.374 . S
C314 H288 0.950 . S
C314 C310 1.385 . S
C314 C313 1.374 . S
C315 C312 1.499 . S
C315 C316 1.373 . S
C315 C317 1.389 . S
C316 H289 0.950 . S
C316 C302 1.377 . S
C316 C315 1.373 . S
C317 C301 1.377 . S
C317 C315 1.389 . S
C317 C318 1.524 . S
C318 C317 1.524 . S
C318 C319 1.397 . S
C318 C323 1.363 . S
C319 H290 0.950 . S
C319 C318 1.397 . S
C319 C320 1.334 . S
C320 H291 0.950 . S
C320 C319 1.334 . S
C320 C321 1.287 . S
C321 C320 1.287 . S
C321 C322 1.524 . S
C321 H324 0.999 . S
C322 H292 0.950 . S
C322 C321 1.524 . S
C322 C323 1.415 . S
C323 H293 0.950 . S
C323 C318 1.363 . S
C323 C322 1.415 . S
H324 C321 0.999 . S
H325 C306 0.913 . S
H326 C344 0.951 . S
H327 C346 0.951 . S
H328 C348 0.950 . S
H329 C349 0.950 . S
H330 C351 0.950 . S
H331 C354 0.950 . S
H332 C355 0.950 . S
H333 C357 0.950 . S
H334 C358 0.950 . S
H335 C359 0.951 . S
H336 C361 0.951 . S
H337 C363 0.950 . S
H338 C364 0.950 . S
H339 C366 0.950 . S
H340 C369 0.950 . S
H341 C370 0.950 . S
H342 C372 0.950 . S
H343 C373 0.950 . S
C344 H326 0.951 . S
C344 C345 1.366 . S
C344 C346 1.388 . S
C345 C344 1.366 . S
C345 C349 1.385 . S
C346 H327 0.951 . S
C346 C344 1.388 . S
C346 C347 1.366 . S
C347 C346 1.366 . S
C347 C348 1.414 . S
C347 C350 1.499 . S
C348 H328 0.950 . S
C348 C347 1.414 . S
C348 C349 1.374 . S
C349 H329 0.950 . S
C349 C345 1.385 . S
C349 C348 1.374 . S
C350 C347 1.499 . S
C350 C351 1.373 . S
C350 C352 1.389 . S
C351 H330 0.950 . S
C351 C350 1.373 . S
C351 C367 1.377 . S
C352 C350 1.389 . S
C352 C353 1.524 . S
C352 C366 1.377 . S
C353 C352 1.524 . S
C353 C354 1.397 . S
C353 C358 1.363 . S
C354 H331 0.950 . S
C354 C353 1.397 . S
C354 C355 1.334 . S
C355 H332 0.950 . S
C355 C354 1.334 . S
C355 C356 1.287 . S
C356 C355 1.287 . S
C356 C357 1.524 . S
C356 H375 0.913 . S
C357 H333 0.950 . S
C357 C356 1.524 . S
C357 C358 1.415 . S
C358 H334 0.950 . S
C358 C353 1.363 . S
C358 C357 1.415 . S
C359 H335 0.951 . S
C359 C360 1.366 . S
C359 C361 1.388 . S
C360 C359 1.366 . S
C360 C364 1.385 . S
C361 H336 0.951 . S
C361 C359 1.388 . S
C361 C362 1.366 . S
C362 C361 1.366 . S
C362 C363 1.414 . S
C362 C365 1.499 . S
C363 H337 0.950 . S
C363 C362 1.414 . S
C363 C364 1.374 . S
C364 H338 0.950 . S
C364 C360 1.385 . S
C364 C363 1.374 . S
C365 C362 1.499 . S
C365 C366 1.373 . S
C365 C367 1.389 . S
C366 H339 0.950 . S
C366 C352 1.377 . S
C366 C365 1.373 . S
C367 C351 1.377 . S
C367 C365 1.389 . S
C367 C368 1.524 . S
C368 C367 1.524 . S
C368 C369 1.397 . S
C368 C373 1.363 . S
C369 H340 0.950 . S
C369 C368 1.397 . S
C369 C370 1.334 . S
C370 H341 0.950 . S
C370 C369 1.334 . S
C370 C371 1.287 . S
C371 C370 1.287 . S
C371 C372 1.524 . S
C371 H374 0.999 . S
C372 H342 0.950 . S
C372 C371 1.524 . S
C372 C373 1.415 . S
C373 H343 0.950 . S
C373 C368 1.363 . S
C373 C372 1.415 . S
H374 C371 0.999 . S
H375 C356 0.913 . S
H376 C394 0.951 . S
H377 C396 0.951 . S
H378 C398 0.950 . S
H379 C399 0.950 . S
H380 C401 0.950 . S
H381 C404 0.950 . S
H382 C405 0.950 . S
H383 C407 0.950 . S
H384 C408 0.950 . S
H385 C409 0.951 . S
H386 C411 0.951 . S
H387 C413 0.950 . S
H388 C414 0.950 . S
H389 C416 0.950 . S
H390 C419 0.950 . S
H391 C420 0.950 . S
H392 C422 0.950 . S
H393 C423 0.950 . S
C394 H376 0.951 . S
C394 C395 1.366 . S
C394 C396 1.388 . S
C395 C394 1.366 . S
C395 C399 1.385 . S
C396 H377 0.951 . S
C396 C394 1.388 . S
C396 C397 1.366 . S
C397 C396 1.366 . S
C397 C398 1.414 . S
C397 C400 1.499 . S
C398 H378 0.950 . S
C398 C397 1.414 . S
C398 C399 1.374 . S
C399 H379 0.950 . S
C399 C395 1.385 . S
C399 C398 1.374 . S
C400 C397 1.499 . S
C400 C401 1.373 . S
C400 C402 1.389 . S
C401 H380 0.950 . S
C401 C400 1.373 . S
C401 C417 1.377 . S
C402 C400 1.389 . S
C402 C403 1.524 . S
C402 C416 1.377 . S
C403 C402 1.524 . S
C403 C404 1.397 . S
C403 C408 1.363 . S
C404 H381 0.950 . S
C404 C403 1.397 . S
C404 C405 1.334 . S
C405 H382 0.950 . S
C405 C404 1.334 . S
C405 C406 1.287 . S
C406 C405 1.287 . S
C406 C407 1.524 . S
C406 H425 0.913 . S
C407 H383 0.950 . S
C407 C406 1.524 . S
C407 C408 1.415 . S
C408 H384 0.950 . S
C408 C403 1.363 . S
C408 C407 1.415 . S
C409 H385 0.951 . S
C409 C410 1.366 . S
C409 C411 1.388 . S
C410 C409 1.366 . S
C410 C414 1.385 . S
C411 H386 0.951 . S
C411 C409 1.388 . S
C411 C412 1.366 . S
C412 C411 1.366 . S
C412 C413 1.414 . S
C412 C415 1.499 . S
C413 H387 0.950 . S
C413 C412 1.414 . S
C413 C414 1.374 . S
C414 H388 0.950 . S
C414 C410 1.385 . S
C414 C413 1.374 . S
C415 C412 1.499 . S
C415 C416 1.373 . S
C415 C417 1.389 . S
C416 H389 0.950 . S
C416 C402 1.377 . S
C416 C415 1.373 . S
C417 C401 1.377 . S
C417 C415 1.389 . S
C417 C418 1.524 . S
C418 C417 1.524 . S
C418 C419 1.397 . S
C418 C423 1.363 . S
C419 H390 0.950 . S
C419 C418 1.397 . S
C419 C420 1.334 . S
C420 H391 0.950 . S
C420 C419 1.334 . S
C420 C421 1.287 . S
C421 C420 1.287 . S
C421 C422 1.524 . S
C421 H424 0.999 . S
C422 H392 0.950 . S
C422 C421 1.524 . S
C422 C423 1.415 . S
C423 H393 0.950 . S
C423 C418 1.363 . S
C423 C422 1.415 . S
H424 C421 0.999 . S
H425 C406 0.913 . S
H426 C444 0.951 . S
H427 C446 0.951 . S
H428 C448 0.950 . S
H429 C449 0.950 . S
H430 C451 0.950 . S
H431 C454 0.950 . S
H432 C455 0.950 . S
H433 C457 0.950 . S
H434 C458 0.950 . S
H435 C459 0.951 . S
H436 C461 0.951 . S
H437 C463 0.950 . S
H438 C464 0.950 . S
H439 C466 0.950 . S
H440 C469 0.950 . S
H441 C470 0.950 . S
H442 C472 0.950 . S
H443 C473 0.950 . S
C444 H426 0.951 . S
C444 C445 1.366 . S
C444 C446 1.388 . S
C445 C444 1.366 . S
C445 C449 1.385 . S
C446 H427 0.951 . S
C446 C444 1.388 . S
C446 C447 1.366 . S
C447 C446 1.366 . S
C447 C448 1.414 . S
C447 C450 1.499 . S
C448 H428 0.950 . S
C448 C447 1.414 . S
C448 C449 1.374 . S
C449 H429 0.950 . S
C449 C445 1.385 . S
C449 C448 1.374 . S
C450 C447 1.499 . S
C450 C451 1.373 . S
C450 C452 1.389 . S
C451 H430 0.950 . S
C451 C450 1.373 . S
C451 C467 1.377 . S
C452 C450 1.389 . S
C452 C453 1.524 . S
C452 C466 1.377 . S
C453 C452 1.524 . S
C453 C454 1.397 . S
C453 C458 1.363 . S
C454 H431 0.950 . S
C454 C453 1.397 . S
C454 C455 1.334 . S
C455 H432 0.950 . S
C455 C454 1.334 . S
C455 C456 1.287 . S
C456 C455 1.287 . S
C456 C457 1.524 . S
C456 H475 0.913 . S
C457 H433 0.950 . S
C457 C456 1.524 . S
C457 C458 1.415 . S
C458 H434 0.950 . S
C458 C453 1.363 . S
C458 C457 1.415 . S
C459 H435 0.951 . S
C459 C460 1.366 . S
C459 C461 1.388 . S
C460 C459 1.366 . S
C460 C464 1.385 . S
C461 H436 0.951 . S
C461 C459 1.388 . S
C461 C462 1.366 . S
C462 C461 1.366 . S
C462 C463 1.414 . S
C462 C465 1.499 . S
C463 H437 0.950 . S
C463 C462 1.414 . S
C463 C464 1.374 . S
C464 H438 0.950 . S
C464 C460 1.385 . S
C464 C463 1.374 . S
C465 C462 1.499 . S
C465 C466 1.373 . S
C465 C467 1.389 . S
C466 H439 0.950 . S
C466 C452 1.377 . S
C466 C465 1.373 . S
C467 C451 1.377 . S
C467 C465 1.389 . S
C467 C468 1.524 . S
C468 C467 1.524 . S
C468 C469 1.397 . S
C468 C473 1.363 . S
C469 H440 0.950 . S
C469 C468 1.397 . S
C469 C470 1.334 . S
C470 H441 0.950 . S
C470 C469 1.334 . S
C470 C471 1.287 . S
C471 C470 1.287 . S
C471 C472 1.524 . S
C471 H474 0.999 . S
C472 H442 0.950 . S
C472 C471 1.524 . S
C472 C473 1.415 . S
C473 H443 0.950 . S
C473 C468 1.363 . S
C473 C472 1.415 . S
H474 C471 0.999 . S
H475 C456 0.913 . S
H476 C494 0.951 . S
H477 C496 0.951 . S
H478 C498 0.950 . S
H479 C499 0.950 . S
H480 C501 0.950 . S
H481 C504 0.950 . S
H482 C505 0.950 . S
H483 C507 0.950 . S
H484 C508 0.950 . S
H485 C509 0.951 . S
H486 C511 0.951 . S
H487 C513 0.950 . S
H488 C514 0.950 . S
H489 C516 0.950 . S
H490 C519 0.950 . S
H491 C520 0.950 . S
H492 C522 0.950 . S
H493 C523 0.950 . S
C494 H476 0.951 . S
C494 C495 1.366 . S
C494 C496 1.388 . S
C495 C494 1.366 . S
C495 C499 1.385 . S
C496 H477 0.951 . S
C496 C494 1.388 . S
C496 C497 1.366 . S
C497 C496 1.366 . S
C497 C498 1.414 . S
C497 C500 1.499 . S
C498 H478 0.950 . S
C498 C497 1.414 . S
C498 C499 1.374 . S
C499 H479 0.950 . S
C499 C495 1.385 . S
C499 C498 1.374 . S
C500 C497 1.499 . S
C500 C501 1.373 . S
C500 C502 1.389 . S
C501 H480 0.950 . S
C501 C500 1.373 . S
C501 C517 1.377 . S
C502 C500 1.389 . S
C502 C503 1.524 . S
C502 C516 1.377 . S
C503 C502 1.524 . S
C503 C504 1.397 . S
C503 C508 1.363 . S
C504 H481 0.950 . S
C504 C503 1.397 . S
C504 C505 1.334 . S
C505 H482 0.950 . S
C505 C504 1.334 . S
C505 C506 1.287 . S
C506 C505 1.287 . S
C506 C507 1.524 . S
C506 H525 0.913 . S
C507 H483 0.950 . S
C507 C506 1.524 . S
C507 C508 1.415 . S
C508 H484 0.950 . S
C508 C503 1.363 . S
C508 C507 1.415 . S
C509 H485 0.951 . S
C509 C510 1.366 . S
C509 C511 1.388 . S
C510 C509 1.366 . S
C510 C514 1.385 . S
C511 H486 0.951 . S
C511 C509 1.388 . S
C511 C512 1.366 . S
C512 C511 1.366 . S
C512 C513 1.414 . S
C512 C515 1.499 . S
C513 H487 0.950 . S
C513 C512 1.414 . S
C513 C514 1.374 . S
C514 H488 0.950 . S
C514 C510 1.385 . S
C514 C513 1.374 . S
C515 C512 1.499 . S
C515 C516 1.373 . S
C515 C517 1.389 . S
C516 H489 0.950 . S
C516 C502 1.377 . S
C516 C515 1.373 . S
C517 C501 1.377 . S
C517 C515 1.389 . S
C517 C518 1.524 . S
C518 C517 1.524 . S
C518 C519 1.397 . S
C518 C523 1.363 . S
C519 H490 0.950 . S
C519 C518 1.397 . S
C519 C520 1.334 . S
C520 H491 0.950 . S
C520 C519 1.334 . S
C520 C521 1.287 . S
C521 C520 1.287 . S
C521 C522 1.524 . S
C521 H524 0.999 . S
C522 H492 0.950 . S
C522 C521 1.524 . S
C522 C523 1.415 . S
C523 H493 0.950 . S
C523 C518 1.363 . S
C523 C522 1.415 . S
H524 C521 0.999 . S
H525 C506 0.913 . S
H526 C544 0.951 . S
H527 C546 0.951 . S
H528 C548 0.950 . S
H529 C549 0.950 . S
H530 C551 0.950 . S
H531 C554 0.950 . S
H532 C555 0.950 . S
H533 C557 0.950 . S
H534 C558 0.950 . S
H535 C559 0.951 . S
H536 C561 0.951 . S
H537 C563 0.950 . S
H538 C564 0.950 . S
H539 C566 0.950 . S
H540 C569 0.950 . S
H541 C570 0.950 . S
H542 C572 0.950 . S
H543 C573 0.950 . S
C544 H526 0.951 . S
C544 C545 1.366 . S
C544 C546 1.388 . S
C545 C544 1.366 . S
C545 C549 1.385 . S
C546 H527 0.951 . S
C546 C544 1.388 . S
C546 C547 1.366 . S
C547 C546 1.366 . S
C547 C548 1.414 . S
C547 C550 1.499 . S
C548 H528 0.950 . S
C548 C547 1.414 . S
C548 C549 1.374 . S
C549 H529 0.950 . S
C549 C545 1.385 . S
C549 C548 1.374 . S
C550 C547 1.499 . S
C550 C551 1.373 . S
C550 C552 1.389 . S
C551 H530 0.950 . S
C551 C550 1.373 . S
C551 C567 1.377 . S
C552 C550 1.389 . S
C552 C553 1.524 . S
C552 C566 1.377 . S
C553 C552 1.524 . S
C553 C554 1.397 . S
C553 C558 1.363 . S
C554 H531 0.950 . S
C554 C553 1.397 . S
C554 C555 1.334 . S
C555 H532 0.950 . S
C555 C554 1.334 . S
C555 C556 1.287 . S
C556 C555 1.287 . S
C556 C557 1.524 . S
C556 H575 0.913 . S
C557 H533 0.950 . S
C557 C556 1.524 . S
C557 C558 1.415 . S
C558 H534 0.950 . S
C558 C553 1.363 . S
C558 C557 1.415 . S
C559 H535 0.951 . S
C559 C560 1.366 . S
C559 C561 1.388 . S
C560 C559 1.366 . S
C560 C564 1.385 . S
C561 H536 0.951 . S
C561 C559 1.388 . S
C561 C562 1.366 . S
C562 C561 1.366 . S
C562 C563 1.414 . S
C562 C565 1.499 . S
C563 H537 0.950 . S
C563 C562 1.414 . S
C563 C564 1.374 . S
C564 H538 0.950 . S
C564 C560 1.385 . S
C564 C563 1.374 . S
C565 C562 1.499 . S
C565 C566 1.373 . S
C565 C567 1.389 . S
C566 H539 0.950 . S
C566 C552 1.377 . S
C566 C565 1.373 . S
C567 C551 1.377 . S
C567 C565 1.389 . S
C567 C568 1.524 . S
C568 C567 1.524 . S
C568 C569 1.397 . S
C568 C573 1.363 . S
C569 H540 0.950 . S
C569 C568 1.397 . S
C569 C570 1.334 . S
C570 H541 0.950 . S
C570 C569 1.334 . S
C570 C571 1.287 . S
C571 C570 1.287 . S
C571 C572 1.524 . S
C571 H574 0.999 . S
C572 H542 0.950 . S
C572 C571 1.524 . S
C572 C573 1.415 . S
C573 H543 0.950 . S
C573 C568 1.363 . S
C573 C572 1.415 . S
H574 C571 0.999 . S
H575 C556 0.913 . S
H576 C594 0.951 . S
H577 C596 0.951 . S
H578 C598 0.950 . S
H579 C599 0.950 . S
H580 C601 0.950 . S
H581 C604 0.950 . S
H582 C605 0.950 . S
H583 C607 0.950 . S
H584 C608 0.950 . S
H585 C609 0.951 . S
H586 C611 0.951 . S
H587 C613 0.950 . S
H588 C614 0.950 . S
H589 C616 0.950 . S
H590 C619 0.950 . S
H591 C620 0.950 . S
H592 C622 0.950 . S
H593 C623 0.950 . S
C594 H576 0.951 . S
C594 C595 1.366 . S
C594 C596 1.388 . S
C595 C594 1.366 . S
C595 C599 1.385 . S
C596 H577 0.951 . S
C596 C594 1.388 . S
C596 C597 1.366 . S
C597 C596 1.366 . S
C597 C598 1.414 . S
C597 C600 1.499 . S
C598 H578 0.950 . S
C598 C597 1.414 . S
C598 C599 1.374 . S
C599 H579 0.950 . S
C599 C595 1.385 . S
C599 C598 1.374 . S
C600 C597 1.499 . S
C600 C601 1.373 . S
C600 C602 1.389 . S
C601 H580 0.950 . S
C601 C600 1.373 . S
C601 C617 1.377 . S
C602 C600 1.389 . S
C602 C603 1.524 . S
C602 C616 1.377 . S
C603 C602 1.524 . S
C603 C604 1.397 . S
C603 C608 1.363 . S
C604 H581 0.950 . S
C604 C603 1.397 . S
C604 C605 1.334 . S
C605 H582 0.950 . S
C605 C604 1.334 . S
C605 C606 1.287 . S
C606 C605 1.287 . S
C606 C607 1.524 . S
C606 H625 0.913 . S
C607 H583 0.950 . S
C607 C606 1.524 . S
C607 C608 1.415 . S
C608 H584 0.950 . S
C608 C603 1.363 . S
C608 C607 1.415 . S
C609 H585 0.951 . S
C609 C610 1.366 . S
C609 C611 1.388 . S
C610 C609 1.366 . S
C610 C614 1.385 . S
C611 H586 0.951 . S
C611 C609 1.388 . S
C611 C612 1.366 . S
C612 C611 1.366 . S
C612 C613 1.414 . S
C612 C615 1.499 . S
C613 H587 0.950 . S
C613 C612 1.414 . S
C613 C614 1.374 . S
C614 H588 0.950 . S
C614 C610 1.385 . S
C614 C613 1.374 . S
C615 C612 1.499 . S
C615 C616 1.373 . S
C615 C617 1.389 . S
C616 H589 0.950 . S
C616 C602 1.377 . S
C616 C615 1.373 . S
C617 C601 1.377 . S
C617 C615 1.389 . S
C617 C618 1.524 . S
C618 C617 1.524 . S
C618 C619 1.397 . S
C618 C623 1.363 . S
C619 H590 0.950 . S
C619 C618 1.397 . S
C619 C620 1.334 . S
C620 H591 0.950 . S
C620 C619 1.334 . S
C620 C621 1.287 . S
C621 C620 1.287 . S
C621 C622 1.524 . S
C621 H624 0.999 . S
C622 H592 0.950 . S
C622 C621 1.524 . S
C622 C623 1.415 . S
C623 H593 0.950 . S
C623 C618 1.363 . S
C623 C622 1.415 . S
H624 C621 0.999 . S
H625 C606 0.913 . S
H626 C644 0.951 . S
H627 C646 0.951 . S
H628 C648 0.950 . S
H629 C649 0.950 . S
H630 C651 0.950 . S
H631 C654 0.950 . S
H632 C655 0.950 . S
H633 C657 0.950 . S
H634 C658 0.950 . S
H635 C659 0.951 . S
H636 C661 0.951 . S
H637 C663 0.950 . S
H638 C664 0.950 . S
H639 C666 0.950 . S
H640 C669 0.950 . S
H641 C670 0.950 . S
H642 C672 0.950 . S
H643 C673 0.950 . S
C644 H626 0.951 . S
C644 C645 1.366 . S
C644 C646 1.388 . S
C645 C644 1.366 . S
C645 C649 1.385 . S
C646 H627 0.951 . S
C646 C644 1.388 . S
C646 C647 1.366 . S
C647 C646 1.366 . S
C647 C648 1.414 . S
C647 C650 1.499 . S
C648 H628 0.950 . S
C648 C647 1.414 . S
C648 C649 1.374 . S
C649 H629 0.950 . S
C649 C645 1.385 . S
C649 C648 1.374 . S
C650 C647 1.499 . S
C650 C651 1.373 . S
C650 C652 1.389 . S
C651 H630 0.950 . S
C651 C650 1.373 . S
C651 C667 1.377 . S
C652 C650 1.389 . S
C652 C653 1.524 . S
C652 C666 1.377 . S
C653 C652 1.524 . S
C653 C654 1.397 . S
C653 C658 1.363 . S
C654 H631 0.950 . S
C654 C653 1.397 . S
C654 C655 1.334 . S
C655 H632 0.950 . S
C655 C654 1.334 . S
C655 C656 1.287 . S
C656 C655 1.287 . S
C656 C657 1.524 . S
C656 H675 0.913 . S
C657 H633 0.950 . S
C657 C656 1.524 . S
C657 C658 1.415 . S
C658 H634 0.950 . S
C658 C653 1.363 . S
C658 C657 1.415 . S
C659 H635 0.951 . S
C659 C660 1.366 . S
C659 C661 1.388 . S
C660 C659 1.366 . S
C660 C664 1.385 . S
C661 H636 0.951 . S
C661 C659 1.388 . S
C661 C662 1.366 . S
C662 C661 1.366 . S
C662 C663 1.414 . S
C662 C665 1.499 . S
C663 H637 0.950 . S
C663 C662 1.414 . S
C663 C664 1.374 . S
C664 H638 0.950 . S
C664 C660 1.385 . S
C664 C663 1.374 . S
C665 C662 1.499 . S
C665 C666 1.373 . S
C665 C667 1.389 . S
C666 H639 0.950 . S
C666 C652 1.377 . S
C666 C665 1.373 . S
C667 C651 1.377 . S
C667 C665 1.389 . S
C667 C668 1.524 . S
C668 C667 1.524 . S
C668 C669 1.397 . S
C668 C673 1.363 . S
C669 H640 0.950 . S
C669 C668 1.397 . S
C669 C670 1.334 . S
C670 H641 0.950 . S
C670 C669 1.334 . S
C670 C671 1.287 . S
C671 C670 1.287 . S
C671 C672 1.524 . S
C671 H674 0.999 . S
C672 H642 0.950 . S
C672 C671 1.524 . S
C672 C673 1.415 . S
C673 H643 0.950 . S
C673 C668 1.363 . S
C673 C672 1.415 . S
H674 C671 0.999 . S
H675 C656 0.913 . S
H676 C694 0.951 . S
H677 C696 0.951 . S
H678 C698 0.950 . S
H679 C699 0.950 . S
H680 C701 0.950 . S
H681 C704 0.950 . S
H682 C705 0.950 . S
H683 C707 0.950 . S
H684 C708 0.950 . S
H685 C709 0.951 . S
H686 C711 0.951 . S
H687 C713 0.950 . S
H688 C714 0.950 . S
H689 C716 0.950 . S
H690 C719 0.950 . S
H691 C720 0.950 . S
H692 C722 0.950 . S
H693 C723 0.950 . S
C694 H676 0.951 . S
C694 C695 1.366 . S
C694 C696 1.388 . S
C695 C694 1.366 . S
C695 C699 1.385 . S
C696 H677 0.951 . S
C696 C694 1.388 . S
C696 C697 1.366 . S
C697 C696 1.366 . S
C697 C698 1.414 . S
C697 C700 1.499 . S
C698 H678 0.950 . S
C698 C697 1.414 . S
C698 C699 1.374 . S
C699 H679 0.950 . S
C699 C695 1.385 . S
C699 C698 1.374 . S
C700 C697 1.499 . S
C700 C701 1.373 . S
C700 C702 1.389 . S
C701 H680 0.950 . S
C701 C700 1.373 . S
C701 C717 1.377 . S
C702 C700 1.389 . S
C702 C703 1.524 . S
C702 C716 1.377 . S
C703 C702 1.524 . S
C703 C704 1.397 . S
C703 C708 1.363 . S
C704 H681 0.950 . S
C704 C703 1.397 . S
C704 C705 1.334 . S
C705 H682 0.950 . S
C705 C704 1.334 . S
C705 C706 1.287 . S
C706 C705 1.287 . S
C706 C707 1.524 . S
C706 H725 0.913 . S
C707 H683 0.950 . S
C707 C706 1.524 . S
C707 C708 1.415 . S
C708 H684 0.950 . S
C708 C703 1.363 . S
C708 C707 1.415 . S
C709 H685 0.951 . S
C709 C710 1.366 . S
C709 C711 1.388 . S
C710 C709 1.366 . S
C710 C714 1.385 . S
C711 H686 0.951 . S
C711 C709 1.388 . S
C711 C712 1.366 . S
C712 C711 1.366 . S
C712 C713 1.414 . S
C712 C715 1.499 . S
C713 H687 0.950 . S
C713 C712 1.414 . S
C713 C714 1.374 . S
C714 H688 0.950 . S
C714 C710 1.385 . S
C714 C713 1.374 . S
C715 C712 1.499 . S
C715 C716 1.373 . S
C715 C717 1.389 . S
C716 H689 0.950 . S
C716 C702 1.377 . S
C716 C715 1.373 . S
C717 C701 1.377 . S
C717 C715 1.389 . S
C717 C718 1.524 . S
C718 C717 1.524 . S
C718 C719 1.397 . S
C718 C723 1.363 . S
C719 H690 0.950 . S
C719 C718 1.397 . S
C719 C720 1.334 . S
C720 H691 0.950 . S
C720 C719 1.334 . S
C720 C721 1.287 . S
C721 C720 1.287 . S
C721 C722 1.524 . S
C721 H724 0.999 . S
C722 H692 0.950 . S
C722 C721 1.524 . S
C722 C723 1.415 . S
C723 H693 0.950 . S
C723 C718 1.363 . S
C723 C722 1.415 . S
H724 C721 0.999 . S
H725 C706 0.913 . S
H726 C744 0.951 . S
H727 C746 0.951 . S
H728 C748 0.950 . S
H729 C749 0.950 . S
H730 C751 0.950 . S
H731 C754 0.950 . S
H732 C755 0.950 . S
H733 C757 0.950 . S
H734 C758 0.950 . S
H735 C759 0.951 . S
H736 C761 0.951 . S
H737 C763 0.950 . S
H738 C764 0.950 . S
H739 C766 0.950 . S
H740 C769 0.950 . S
H741 C770 0.950 . S
H742 C772 0.950 . S
H743 C773 0.950 . S
C744 H726 0.951 . S
C744 C745 1.366 . S
C744 C746 1.388 . S
C745 C744 1.366 . S
C745 C749 1.385 . S
C746 H727 0.951 . S
C746 C744 1.388 . S
C746 C747 1.366 . S
C747 C746 1.366 . S
C747 C748 1.414 . S
C747 C750 1.499 . S
C748 H728 0.950 . S
C748 C747 1.414 . S
C748 C749 1.374 . S
C749 H729 0.950 . S
C749 C745 1.385 . S
C749 C748 1.374 . S
C750 C747 1.499 . S
C750 C751 1.373 . S
C750 C752 1.389 . S
C751 H730 0.950 . S
C751 C750 1.373 . S
C751 C767 1.377 . S
C752 C750 1.389 . S
C752 C753 1.524 . S
C752 C766 1.377 . S
C753 C752 1.524 . S
C753 C754 1.397 . S
C753 C758 1.363 . S
C754 H731 0.950 . S
C754 C753 1.397 . S
C754 C755 1.334 . S
C755 H732 0.950 . S
C755 C754 1.334 . S
C755 C756 1.287 . S
C756 C755 1.287 . S
C756 C757 1.524 . S
C756 H775 0.913 . S
C757 H733 0.950 . S
C757 C756 1.524 . S
C757 C758 1.415 . S
C758 H734 0.950 . S
C758 C753 1.363 . S
C758 C757 1.415 . S
C759 H735 0.951 . S
C759 C760 1.366 . S
C759 C761 1.388 . S
C760 C759 1.366 . S
C760 C764 1.385 . S
C761 H736 0.951 . S
C761 C759 1.388 . S
C761 C762 1.366 . S
C762 C761 1.366 . S
C762 C763 1.414 . S
C762 C765 1.499 . S
C763 H737 0.950 . S
C763 C762 1.414 . S
C763 C764 1.374 . S
C764 H738 0.950 . S
C764 C760 1.385 . S
C764 C763 1.374 . S
C765 C762 1.499 . S
C765 C766 1.373 . S
C765 C767 1.389 . S
C766 H739 0.950 . S
C766 C752 1.377 . S
C766 C765 1.373 . S
C767 C751 1.377 . S
C767 C765 1.389 . S
C767 C768 1.524 . S
C768 C767 1.524 . S
C768 C769 1.397 . S
C768 C773 1.363 . S
C769 H740 0.950 . S
C769 C768 1.397 . S
C769 C770 1.334 . S
C770 H741 0.950 . S
C770 C769 1.334 . S
C770 C771 1.287 . S
C771 C770 1.287 . S
C771 C772 1.524 . S
C771 H774 0.999 . S
C772 H742 0.950 . S
C772 C771 1.524 . S
C772 C773 1.415 . S
C773 H743 0.950 . S
C773 C768 1.363 . S
C773 C772 1.415 . S
H774 C771 0.999 . S
H775 C756 0.913 . S
H776 C794 0.951 . S
H777 C796 0.951 . S
H778 C798 0.950 . S
H779 C799 0.950 . S
H780 C801 0.950 . S
H781 C804 0.950 . S
H782 C805 0.950 . S
H783 C807 0.950 . S
H784 C808 0.950 . S
H785 C809 0.951 . S
H786 C811 0.951 . S
H787 C813 0.950 . S
H788 C814 0.950 . S
H789 C816 0.950 . S
H790 C819 0.950 . S
H791 C820 0.950 . S
H792 C822 0.950 . S
H793 C823 0.950 . S
C794 H776 0.951 . S
C794 C795 1.366 . S
C794 C796 1.388 . S
C795 C794 1.366 . S
C795 C799 1.385 . S
C796 H777 0.951 . S
C796 C794 1.388 . S
C796 C797 1.366 . S
C797 C796 1.366 . S
C797 C798 1.414 . S
C797 C800 1.499 . S
C798 H778 0.950 . S
C798 C797 1.414 . S
C798 C799 1.374 . S
C799 H779 0.950 . S
C799 C795 1.385 . S
C799 C798 1.374 . S
C800 C797 1.499 . S
C800 C801 1.373 . S
C800 C802 1.389 . S
C801 H780 0.950 . S
C801 C800 1.373 . S
C801 C817 1.377 . S
C802 C800 1.389 . S
C802 C803 1.524 . S
C802 C816 1.377 . S
C803 C802 1.524 . S
C803 C804 1.397 . S
C803 C808 1.363 . S
C804 H781 0.950 . S
C804 C803 1.397 . S
C804 C805 1.334 . S
C805 H782 0.950 . S
C805 C804 1.334 . S
C805 C806 1.287 . S
C806 C805 1.287 . S
C806 C807 1.524 . S
C806 H825 0.913 . S
C807 H783 0.950 . S
C807 C806 1.524 . S
C807 C808 1.415 . S
C808 H784 0.950 . S
C808 C803 1.363 . S
C808 C807 1.415 . S
C809 H785 0.951 . S
C809 C810 1.366 . S
C809 C811 1.388 . S
C810 C809 1.366 . S
C810 C814 1.385 . S
C811 H786 0.951 . S
C811 C809 1.388 . S
C811 C812 1.366 . S
C812 C811 1.366 . S
C812 C813 1.414 . S
C812 C815 1.499 . S
C813 H787 0.950 . S
C813 C812 1.414 . S
C813 C814 1.374 . S
C814 H788 0.950 . S
C814 C810 1.385 . S
C814 C813 1.374 . S
C815 C812 1.499 . S
C815 C816 1.373 . S
C815 C817 1.389 . S
C816 H789 0.950 . S
C816 C802 1.377 . S
C816 C815 1.373 . S
C817 C801 1.377 . S
C817 C815 1.389 . S
C817 C818 1.524 . S
C818 C817 1.524 . S
C818 C819 1.397 . S
C818 C823 1.363 . S
C819 H790 0.950 . S
C819 C818 1.397 . S
C819 C820 1.334 . S
C820 H791 0.950 . S
C820 C819 1.334 . S
C820 C821 1.287 . S
C821 C820 1.287 . S
C821 C822 1.524 . S
C821 H824 0.999 . S
C822 H792 0.950 . S
C822 C821 1.524 . S
C822 C823 1.415 . S
C823 H793 0.950 . S
C823 C818 1.363 . S
C823 C822 1.415 . S
H824 C821 0.999 . S
H825 C806 0.913 . S
H826 C844 0.951 . S
H827 C846 0.951 . S
H828 C848 0.950 . S
H829 C849 0.950 . S
H830 C851 0.950 . S
H831 C854 0.950 . S
H832 C855 0.950 . S
H833 C857 0.950 . S
H834 C858 0.950 . S
H835 C859 0.951 . S
H836 C861 0.951 . S
H837 C863 0.950 . S
H838 C864 0.950 . S
H839 C866 0.950 . S
H840 C869 0.950 . S
H841 C870 0.950 . S
H842 C872 0.950 . S
H843 C873 0.950 . S
C844 H826 0.951 . S
C844 C845 1.366 . S
C844 C846 1.388 . S
C845 C844 1.366 . S
C845 C849 1.385 . S
C846 H827 0.951 . S
C846 C844 1.388 . S
C846 C847 1.366 . S
C847 C846 1.366 . S
C847 C848 1.414 . S
C847 C850 1.499 . S
C848 H828 0.950 . S
C848 C847 1.414 . S
C848 C849 1.374 . S
C849 H829 0.950 . S
C849 C845 1.385 . S
C849 C848 1.374 . S
C850 C847 1.499 . S
C850 C851 1.373 . S
C850 C852 1.389 . S
C851 H830 0.950 . S
C851 C850 1.373 . S
C851 C867 1.377 . S
C852 C850 1.389 . S
C852 C853 1.524 . S
C852 C866 1.377 . S
C853 C852 1.524 . S
C853 C854 1.397 . S
C853 C858 1.363 . S
C854 H831 0.950 . S
C854 C853 1.397 . S
C854 C855 1.334 . S
C855 H832 0.950 . S
C855 C854 1.334 . S
C855 C856 1.287 . S
C856 C855 1.287 . S
C856 C857 1.524 . S
C856 H875 0.913 . S
C857 H833 0.950 . S
C857 C856 1.524 . S
C857 C858 1.415 . S
C858 H834 0.950 . S
C858 C853 1.363 . S
C858 C857 1.415 . S
C859 H835 0.951 . S
C859 C860 1.366 . S
C859 C861 1.388 . S
C860 C859 1.366 . S
C860 C864 1.385 . S
C861 H836 0.951 . S
C861 C859 1.388 . S
C861 C862 1.366 . S
C862 C861 1.366 . S
C862 C863 1.414 . S
C862 C865 1.499 . S
C863 H837 0.950 . S
C863 C862 1.414 . S
C863 C864 1.374 . S
C864 H838 0.950 . S
C864 C860 1.385 . S
C864 C863 1.374 . S
C865 C862 1.499 . S
C865 C866 1.373 . S
C865 C867 1.389 . S
C866 H839 0.950 . S
C866 C852 1.377 . S
C866 C865 1.373 . S
C867 C851 1.377 . S
C867 C865 1.389 . S
C867 C868 1.524 . S
C868 C867 1.524 . S
C868 C869 1.397 . S
C868 C873 1.363 . S
C869 H840 0.950 . S
C869 C868 1.397 . S
C869 C870 1.334 . S
C870 H841 0.950 . S
C870 C869 1.334 . S
C870 C871 1.287 . S
C871 C870 1.287 . S
C871 C872 1.524 . S
C871 H874 0.999 . S
C872 H842 0.950 . S
C872 C871 1.524 . S
C872 C873 1.415 . S
C873 H843 0.950 . S
C873 C868 1.363 . S
C873 C872 1.415 . S
H874 C871 0.999 . S
H875 C856 0.913 . S
H876 C894 0.951 . S
H877 C896 0.951 . S
H878 C898 0.950 1_455 S
H879 C899 0.950 . S
H880 C901 0.950 . S
H881 C904 0.950 . S
H882 C905 0.950 . S
H883 C907 0.950 . S
H884 C908 0.950 . S
H885 C909 0.951 . S
H886 C911 0.951 . S
H887 C913 0.943 1_655 S
H888 C914 0.950 . S
H889 C916 0.950 . S
H890 C919 0.950 . S
H891 C920 0.950 . S
H892 C922 0.950 . S
H893 C923 0.950 . S
C894 H876 0.951 . S
C894 C895 1.366 . S
C894 C896 1.388 . S
C895 C894 1.366 . S
C895 C899 1.385 . S
C896 H877 0.951 . S
C896 C894 1.388 . S
C896 C897 1.366 . S
C897 C896 1.366 . S
C897 C898 1.414 . S
C897 C900 1.499 . S
C898 H878 0.950 1_655 S
C898 C897 1.414 . S
C898 C899 1.374 . S
C899 H879 0.950 . S
C899 C895 1.385 . S
C899 C898 1.374 . S
C900 C897 1.499 . S
C900 C901 1.373 1_655 S
C900 C902 1.389 . S
C901 H880 0.950 . S
C901 C900 1.373 1_455 S
C901 C917 1.377 . S
C902 C900 1.389 . S
C902 C903 1.524 . S
C902 C916 1.377 . S
C903 C902 1.524 . S
C903 C904 1.397 . S
C903 C908 1.363 . S
C904 H881 0.950 . S
C904 C903 1.397 . S
C904 C905 1.334 . S
C905 H882 0.950 . S
C905 C904 1.334 . S
C905 C906 1.287 . S
C906 C905 1.287 . S
C906 C907 1.524 . S
C906 H925 0.913 . S
C907 H883 0.950 . S
C907 C906 1.524 . S
C907 C908 1.415 . S
C908 H884 0.950 . S
C908 C903 1.363 . S
C908 C907 1.415 . S
C909 H885 0.951 . S
C909 C910 1.366 . S
C909 C911 1.388 . S
C910 C909 1.366 . S
C910 C914 1.385 . S
C911 H886 0.951 . S
C911 C909 1.388 . S
C911 C912 1.366 . S
C912 C911 1.366 . S
C912 C913 1.414 . S
C912 C915 1.499 . S
C913 H887 0.943 1_455 S
C913 C912 1.414 . S
C913 C914 1.374 . S
C914 H888 0.950 . S
C914 C910 1.385 . S
C914 C913 1.374 . S
C915 C912 1.499 . S
C915 C916 1.373 1_455 S
C915 C917 1.389 . S
C916 H889 0.950 . S
C916 C902 1.377 . S
C916 C915 1.373 1_655 S
C917 C901 1.377 . S
C917 C915 1.389 . S
C917 C918 1.524 . S
C918 C917 1.524 . S
C918 C919 1.397 . S
C918 C923 1.363 . S
C919 H890 0.950 . S
C919 C918 1.397 . S
C919 C920 1.334 . S
C920 H891 0.950 . S
C920 C919 1.334 . S
C920 C921 1.287 . S
C921 C920 1.287 . S
C921 C922 1.524 . S
C921 H924 0.999 . S
C922 H892 0.950 . S
C922 C921 1.524 . S
C922 C923 1.415 . S
C923 H893 0.950 . S
C923 C918 1.363 . S
C923 C922 1.415 . S
H924 C921 0.999 . S
H925 C906 0.913 . S
H926 C944 0.953 . S
H927 C946 0.951 . S
H928 C948 0.950 . S
H929 C949 0.950 . S
H930 C951 0.956 . S
H931 C954 0.950 . S
H932 C955 0.975 . S
H933 C957 0.950 . S
H934 C958 0.950 . S
H935 C959 0.951 . S
H936 C961 0.998 . S
H937 C963 0.950 . S
H938 C964 0.950 . S
H939 C966 0.950 . S
H940 C969 0.950 . S
H941 C970 0.950 . S
H942 C972 0.950 . S
H943 C973 0.950 . S
C944 H926 0.953 . S
C944 C945 1.362 1_565 S
C944 C946 1.389 . S
C945 C944 1.362 1_545 S
C945 C949 1.385 . S
C946 H927 0.951 . S
C946 C944 1.389 . S
C946 C947 1.366 1_565 S
C947 C946 1.366 1_545 S
C947 C948 1.414 . S
C947 C950 1.499 1_545 S
C948 H928 0.950 . S
C948 C947 1.414 . S
C948 C949 1.374 . S
C949 H929 0.950 . S
C949 C945 1.385 . S
C949 C948 1.374 . S
C950 C947 1.499 1_565 S
C950 C951 1.372 1_565 S
C950 C952 1.389 . S
C951 H930 0.956 . S
C951 C950 1.372 1_545 S
C951 C967 1.372 1_545 S
C952 C950 1.389 . S
C952 C953 1.524 . S
C952 C966 1.377 . S
C953 C952 1.524 . S
C953 C954 1.397 1_565 S
C953 C958 1.363 . S
C954 H931 0.950 . S
C954 C953 1.397 1_545 S
C954 C955 1.336 . S
C955 H932 0.975 . S
C955 C954 1.336 . S
C955 C956 1.260 1_545 S
C956 C955 1.260 1_565 S
C956 C957 1.524 . S
C956 H975 0.913 . S
C957 H933 0.950 . S
C957 C956 1.524 . S
C957 C958 1.415 . S
C958 H934 0.950 . S
C958 C953 1.363 . S
C958 C957 1.415 . S
C959 H935 0.951 . S
C959 C960 1.366 . S
C959 C961 1.388 . S
C960 C959 1.366 . S
C960 C964 1.385 . S
C961 H936 0.998 . S
C961 C959 1.388 . S
C961 C962 1.366 . S
C962 C961 1.366 . S
C962 C963 1.414 . S
C962 C965 1.499 . S
C963 H937 0.950 . S
C963 C962 1.414 . S
C963 C964 1.374 . S
C964 H938 0.950 . S
C964 C960 1.385 . S
C964 C963 1.374 . S
C965 C962 1.499 . S
C965 C966 1.373 . S
C965 C967 1.389 . S
C966 H939 0.950 . S
C966 C952 1.377 . S
C966 C965 1.373 . S
C967 C951 1.372 1_565 S
C967 C965 1.389 . S
C967 C968 1.524 . S
C968 C967 1.524 . S
C968 C969 1.397 . S
C968 C973 1.363 1_565 S
C969 H940 0.950 . S
C969 C968 1.397 . S
C969 C970 1.334 . S
C970 H941 0.950 . S
C970 C969 1.334 . S
C970 C971 1.287 . S
C971 C970 1.287 . S
C971 C972 1.524 1_565 S
C971 H974 0.999 . S
C972 H942 0.950 . S
C972 C971 1.524 1_545 S
C972 C973 1.415 . S
C973 H943 0.950 . S
C973 C968 1.363 1_545 S
C973 C972 1.415 . S
H974 C971 0.999 . S
H975 C956 0.913 . S
H976 C994 0.951 . S
H977 C996 0.951 . S
H978 C998 0.931 1_655 S
H979 C999 0.930 1_655 S
H980 C1001 0.950 . S
H981 C1004 0.950 . S
H982 C1005 0.950 . S
H983 C1007 0.950 . S
H984 C1008 0.950 . S
H985 C1009 0.951 . S
H986 C1011 0.951 . S
H987 C1013 0.950 1_455 S
H988 C1014 0.950 . S
H989 C1016 0.950 . S
H990 C1019 0.950 . S
H991 C1020 0.950 . S
H992 C1022 0.950 . S
H993 C1023 0.950 . S
C994 H976 0.951 . S
C994 C995 1.366 . S
C994 C996 1.388 . S
C995 C994 1.366 . S
C995 C999 1.385 . S
C996 H977 0.951 . S
C996 C994 1.388 . S
C996 C997 1.366 . S
C997 C996 1.366 . S
C997 C998 1.425 . S
C997 C1000 1.499 . S
C998 H978 0.931 1_455 S
C998 C997 1.425 . S
C998 C999 1.382 . S
C999 H979 0.930 1_455 S
C999 C995 1.385 . S
C999 C998 1.382 . S
C1000 C997 1.499 . S
C1000 C1001 1.373 1_455 S
C1000 C1002 1.389 . S
C1001 H980 0.950 . S
C1001 C1000 1.373 1_655 S
C1001 C1017 1.377 . S
C1002 C1000 1.389 . S
C1002 C1003 1.524 . S
C1002 C1016 1.377 . S
C1003 C1002 1.524 . S
C1003 C1004 1.397 . S
C1003 C1008 1.363 . S
C1004 H981 0.950 . S
C1004 C1003 1.397 . S
C1004 C1005 1.334 . S
C1005 H982 0.950 . S
C1005 C1004 1.334 . S
C1005 C1006 1.287 . S
C1006 C1005 1.287 . S
C1006 C1007 1.524 . S
C1006 H1025 0.913 . S
C1007 H983 0.950 . S
C1007 C1006 1.524 . S
C1007 C1008 1.415 . S
C1008 H984 0.950 . S
C1008 C1003 1.363 . S
C1008 C1007 1.415 . S
C1009 H985 0.951 . S
C1009 C1010 1.366 . S
C1009 C1011 1.388 . S
C1010 C1009 1.366 . S
C1010 C1014 1.385 . S
C1011 H986 0.951 . S
C1011 C1009 1.388 . S
C1011 C1012 1.366 . S
C1012 C1011 1.366 . S
C1012 C1013 1.414 . S
C1012 C1015 1.499 . S
C1013 H987 0.950 1_655 S
C1013 C1012 1.414 . S
C1013 C1014 1.374 . S
C1014 H988 0.950 . S
C1014 C1010 1.385 . S
C1014 C1013 1.374 . S
C1015 C1012 1.499 . S
C1015 C1016 1.373 1_655 S
C1015 C1017 1.389 . S
C1016 H989 0.950 . S
C1016 C1002 1.377 . S
C1016 C1015 1.373 1_455 S
C1017 C1001 1.377 . S
C1017 C1015 1.389 . S
C1017 C1018 1.524 . S
C1018 C1017 1.524 . S
C1018 C1019 1.397 . S
C1018 C1023 1.363 . S
C1019 H990 0.950 . S
C1019 C1018 1.397 . S
C1019 C1020 1.334 . S
C1020 H991 0.950 . S
C1020 C1019 1.334 . S
C1020 C1021 1.287 . S
C1021 C1020 1.287 . S
C1021 C1022 1.524 . S
C1021 H1024 0.999 . S
C1022 H992 0.950 . S
C1022 C1021 1.524 . S
C1022 C1023 1.415 . S
C1023 H993 0.950 . S
C1023 C1018 1.363 . S
C1023 C1022 1.415 . S
H1024 C1021 0.999 . S
H1025 C1006 0.913 . S
H1026 C1044 0.951 . S
H1027 C1046 0.951 . S
H1028 C1048 0.950 1_565 S
H1029 C1049 0.950 . S
H1030 C1051 0.950 . S
H1031 C1054 0.950 . S
H1032 C1055 0.950 . S
H1033 C1057 0.950 . S
H1034 C1058 0.950 . S
H1035 C1059 0.951 . S
H1036 C1061 0.951 . S
H1037 C1063 0.950 1_545 S
H1038 C1064 0.950 . S
H1039 C1066 0.950 . S
H1040 C1069 0.950 . S
H1041 C1070 0.950 . S
H1042 C1072 0.950 . S
H1043 C1073 0.950 . S
C1044 H1026 0.951 . S
C1044 C1045 1.366 . S
C1044 C1046 1.388 . S
C1045 C1044 1.366 . S
C1045 C1049 1.385 . S
C1046 H1027 0.951 . S
C1046 C1044 1.388 . S
C1046 C1047 1.366 . S
C1047 C1046 1.366 . S
C1047 C1048 1.414 . S
C1047 C1050 1.499 . S
C1048 H1028 0.950 1_545 S
C1048 C1047 1.414 . S
C1048 C1049 1.374 . S
C1049 H1029 0.950 . S
C1049 C1045 1.385 . S
C1049 C1048 1.374 . S
C1050 C1047 1.499 . S
C1050 C1051 1.373 1_545 S
C1050 C1052 1.389 . S
C1051 H1030 0.950 . S
C1051 C1050 1.373 1_565 S
C1051 C1067 1.377 . S
C1052 C1050 1.389 . S
C1052 C1053 1.524 . S
C1052 C1066 1.377 . S
C1053 C1052 1.524 . S
C1053 C1054 1.397 . S
C1053 C1058 1.363 . S
C1054 H1031 0.950 . S
C1054 C1053 1.397 . S
C1054 C1055 1.334 . S
C1055 H1032 0.950 . S
C1055 C1054 1.334 . S
C1055 C1056 1.287 . S
C1056 C1055 1.287 . S
C1056 C1057 1.524 . S
C1056 H1075 0.913 . S
C1057 H1033 0.950 . S
C1057 C1056 1.524 . S
C1057 C1058 1.415 . S
C1058 H1034 0.950 . S
C1058 C1053 1.363 . S
C1058 C1057 1.415 . S
C1059 H1035 0.951 . S
C1059 C1060 1.366 . S
C1059 C1061 1.388 . S
C1060 C1059 1.366 . S
C1060 C1064 1.385 . S
C1061 H1036 0.951 . S
C1061 C1059 1.388 . S
C1061 C1062 1.366 . S
C1062 C1061 1.366 . S
C1062 C1063 1.414 . S
C1062 C1065 1.499 . S
C1063 H1037 0.950 1_565 S
C1063 C1062 1.414 . S
C1063 C1064 1.374 . S
C1064 H1038 0.950 . S
C1064 C1060 1.385 . S
C1064 C1063 1.374 . S
C1065 C1062 1.499 . S
C1065 C1066 1.373 1_565 S
C1065 C1067 1.389 . S
C1066 H1039 0.950 . S
C1066 C1052 1.377 . S
C1066 C1065 1.373 1_545 S
C1067 C1051 1.377 . S
C1067 C1065 1.389 . S
C1067 C1068 1.524 . S
C1068 C1067 1.524 . S
C1068 C1069 1.397 . S
C1068 C1073 1.363 . S
C1069 H1040 0.950 . S
C1069 C1068 1.397 . S
C1069 C1070 1.334 . S
C1070 H1041 0.950 . S
C1070 C1069 1.334 . S
C1070 C1071 1.287 . S
C1071 C1070 1.287 . S
C1071 C1072 1.524 . S
C1071 H1074 0.999 . S
C1072 H1042 0.950 . S
C1072 C1071 1.524 . S
C1072 C1073 1.415 . S
C1073 H1043 0.950 . S
C1073 C1068 1.363 . S
C1073 C1072 1.415 . S
H1074 C1071 0.999 . S
H1075 C1056 0.913 . S
H1076 C1094 0.951 . S
H1077 C1096 0.951 . S
H1078 C1098 0.950 . S
H1079 C1099 0.950 . S
H1080 C1101 0.950 . S
H1081 C1104 0.950 . S
H1082 C1105 0.950 . S
H1083 C1107 0.950 . S
H1084 C1108 0.950 . S
H1085 C1109 0.951 . S
H1086 C1111 0.951 . S
H1087 C1113 0.950 1_545 S
H1088 C1114 0.950 . S
H1089 C1116 0.950 1_565 S
H1090 C1119 0.950 . S
H1091 C1120 0.950 . S
H1092 C1122 0.950 . S
H1093 C1123 0.950 . S
C1094 H1076 0.951 . S
C1094 C1095 1.366 . S
C1094 C1096 1.388 . S
C1095 C1094 1.366 . S
C1095 C1099 1.385 . S
C1096 H1077 0.951 . S
C1096 C1094 1.388 . S
C1096 C1097 1.366 . S
C1097 C1096 1.366 . S
C1097 C1098 1.414 . S
C1097 C1100 1.499 . S
C1098 H1078 0.950 . S
C1098 C1097 1.414 . S
C1098 C1099 1.374 . S
C1099 H1079 0.950 . S
C1099 C1095 1.385 . S
C1099 C1098 1.374 . S
C1100 C1097 1.499 . S
C1100 C1101 1.373 . S
C1100 C1102 1.389 . S
C1101 H1080 0.950 . S
C1101 C1100 1.373 . S
C1101 C1117 1.377 . S
C1102 C1100 1.389 . S
C1102 C1103 1.524 . S
C1102 C1116 1.377 . S
C1103 C1102 1.524 . S
C1103 C1104 1.397 1_545 S
C1103 C1108 1.363 . S
C1104 H1081 0.950 . S
C1104 C1103 1.397 1_565 S
C1104 C1105 1.334 . S
C1105 H1082 0.950 . S
C1105 C1104 1.334 . S
C1105 C1106 1.287 1_565 S
C1106 C1105 1.287 1_545 S
C1106 C1107 1.524 . S
C1106 H1125 0.913 . S
C1107 H1083 0.950 . S
C1107 C1106 1.524 . S
C1107 C1108 1.415 . S
C1108 H1084 0.950 . S
C1108 C1103 1.363 . S
C1108 C1107 1.415 . S
C1109 H1085 0.951 . S
C1109 C1110 1.366 . S
C1109 C1111 1.388 . S
C1110 C1109 1.366 . S
C1110 C1114 1.385 . S
C1111 H1086 0.951 . S
C1111 C1109 1.388 . S
C1111 C1112 1.366 . S
C1112 C1111 1.366 . S
C1112 C1113 1.414 . S
C1112 C1115 1.484 1_565 S
C1113 H1087 0.950 1_565 S
C1113 C1112 1.414 . S
C1113 C1114 1.374 . S
C1114 H1088 0.950 . S
C1114 C1110 1.385 . S
C1114 C1113 1.374 . S
C1115 C1112 1.484 1_545 S
C1115 C1116 1.378 . S
C1115 C1117 1.399 . S
C1116 H1089 0.950 1_545 S
C1116 C1102 1.377 . S
C1116 C1115 1.378 . S
C1117 C1101 1.377 . S
C1117 C1115 1.399 . S
C1117 C1118 1.524 . S
C1118 C1117 1.524 . S
C1118 C1119 1.397 . S
C1118 C1123 1.363 1_545 S
C1119 H1090 0.950 . S
C1119 C1118 1.397 . S
C1119 C1120 1.334 . S
C1120 H1091 0.950 . S
C1120 C1119 1.334 . S
C1120 C1121 1.287 . S
C1121 C1120 1.287 . S
C1121 C1122 1.524 1_545 S
C1121 H1124 0.999 . S
C1122 H1092 0.950 . S
C1122 C1121 1.524 1_565 S
C1122 C1123 1.415 . S
C1123 H1093 0.950 . S
C1123 C1118 1.363 1_565 S
C1123 C1122 1.415 . S
H1124 C1121 0.999 . S
H1125 C1106 0.913 . S
H1126 C1144 0.951 . S
H1127 C1146 0.951 1_655 S
H1128 C1148 0.950 . S
H1129 C1149 0.950 . S
H1130 C1151 0.950 . S
H1131 C1154 0.950 1_455 S
H1132 C1155 0.950 . S
H1133 C1157 0.950 . S
H1134 C1158 0.950 . S
H1135 C1159 0.951 1_455 S
H1136 C1161 0.951 . S
H1137 C1163 0.950 . S
H1138 C1164 0.950 . S
H1139 C1166 0.950 . S
H1140 C1169 0.950 . S
H1141 C1170 0.950 . S
H1142 C1172 0.950 . S
H1143 C1173 0.950 . S
C1144 H1126 0.951 . S
C1144 C1145 1.366 . S
C1144 C1146 1.388 . S
C1145 C1144 1.366 . S
C1145 C1149 1.385 . S
C1146 H1127 0.951 1_455 S
C1146 C1144 1.388 . S
C1146 C1147 1.366 . S
C1147 C1146 1.366 . S
C1147 C1148 1.414 . S
C1147 C1150 1.499 . S
C1148 H1128 0.950 . S
C1148 C1147 1.414 . S
C1148 C1149 1.374 . S
C1149 H1129 0.950 . S
C1149 C1145 1.385 . S
C1149 C1148 1.374 . S
C1150 C1147 1.499 . S
C1150 C1151 1.373 . S
C1150 C1152 1.389 1_455 S
C1151 H1130 0.950 . S
C1151 C1150 1.373 . S
C1151 C1167 1.377 . S
C1152 C1150 1.389 1_655 S
C1152 C1153 1.524 . S
C1152 C1166 1.377 . S
C1153 C1152 1.524 . S
C1153 C1154 1.397 . S
C1153 C1158 1.363 . S
C1154 H1131 0.950 1_655 S
C1154 C1153 1.397 . S
C1154 C1155 1.334 . S
C1155 H1132 0.950 . S
C1155 C1154 1.334 . S
C1155 C1156 1.287 . S
C1156 C1155 1.287 . S
C1156 C1157 1.524 . S
C1156 H1175 0.913 . S
C1157 H1133 0.950 . S
C1157 C1156 1.524 . S
C1157 C1158 1.415 . S
C1158 H1134 0.950 . S
C1158 C1153 1.363 . S
C1158 C1157 1.415 . S
C1159 H1135 0.951 1_655 S
C1159 C1160 1.366 . S
C1159 C1161 1.388 1_655 S
C1160 C1159 1.366 . S
C1160 C1164 1.385 . S
C1161 H1136 0.951 . S
C1161 C1159 1.388 1_455 S
C1161 C1162 1.366 1_455 S
C1162 C1161 1.366 1_655 S
C1162 C1163 1.414 . S
C1162 C1165 1.506 . S
C1163 H1137 0.950 . S
C1163 C1162 1.414 . S
C1163 C1164 1.374 . S
C1164 H1138 0.950 . S
C1164 C1160 1.385 . S
C1164 C1163 1.374 . S
C1165 C1162 1.506 . S
C1165 C1166 1.385 . S
C1165 C1167 1.370 1_655 S
C1166 H1139 0.950 . S
C1166 C1152 1.377 . S
C1166 C1165 1.385 . S
C1167 C1151 1.377 . S
C1167 C1165 1.370 1_455 S
C1167 C1168 1.524 . S
C1168 C1167 1.524 . S
C1168 C1169 1.397 . S
C1168 C1173 1.363 . S
C1169 H1140 0.950 . S
C1169 C1168 1.397 . S
C1169 C1170 1.334 . S
C1170 H1141 0.950 . S
C1170 C1169 1.334 . S
C1170 C1171 1.287 . S
C1171 C1170 1.287 . S
C1171 C1172 1.524 . S
C1171 H1174 0.999 . S
C1172 H1142 0.950 . S
C1172 C1171 1.524 . S
C1172 C1173 1.415 . S
C1173 H1143 0.950 . S
C1173 C1168 1.363 . S
C1173 C1172 1.415 . S
H1174 C1171 0.999 . S
H1175 C1156 0.913 . S
H1176 C1194 0.951 . S
H1177 C1196 0.951 . S
H1178 C1198 0.928 1_565 S
H1179 C1199 0.975 . S
H1180 C1201 0.950 . S
H1181 C1204 0.950 . S
H1182 C1205 0.950 . S
H1183 C1207 0.950 . S
H1184 C1208 0.950 . S
H1185 C1209 0.951 . S
H1186 C1211 0.951 . S
H1187 C1213 0.950 1_545 S
H1188 C1214 0.950 . S
H1189 C1216 0.950 . S
H1190 C1219 0.950 . S
H1191 C1220 0.950 . S
H1192 C1222 0.950 . S
H1193 C1223 0.950 . S
C1194 H1176 0.951 . S
C1194 C1195 1.366 . S
C1194 C1196 1.388 . S
C1195 C1194 1.366 . S
C1195 C1199 1.385 . S
C1196 H1177 0.951 . S
C1196 C1194 1.388 . S
C1196 C1197 1.366 . S
C1197 C1196 1.366 . S
C1197 C1198 1.427 . S
C1197 C1200 1.499 . S
C1198 H1178 0.928 1_545 S
C1198 C1197 1.427 . S
C1198 C1199 1.384 . S
C1199 H1179 0.975 . S
C1199 C1195 1.385 . S
C1199 C1198 1.384 . S
C1200 C1197 1.499 . S
C1200 C1201 1.373 1_545 S
C1200 C1202 1.389 . S
C1201 H1180 0.950 . S
C1201 C1200 1.373 1_565 S
C1201 C1217 1.377 . S
C1202 C1200 1.389 . S
C1202 C1203 1.524 . S
C1202 C1216 1.377 . S
C1203 C1202 1.524 . S
C1203 C1204 1.397 . S
C1203 C1208 1.363 . S
C1204 H1181 0.950 . S
C1204 C1203 1.397 . S
C1204 C1205 1.334 . S
C1205 H1182 0.950 . S
C1205 C1204 1.334 . S
C1205 C1206 1.287 . S
C1206 C1205 1.287 . S
C1206 C1207 1.524 . S
C1206 H1225 0.913 . S
C1207 H1183 0.950 . S
C1207 C1206 1.524 . S
C1207 C1208 1.415 . S
C1208 H1184 0.950 . S
C1208 C1203 1.363 . S
C1208 C1207 1.415 . S
C1209 H1185 0.951 . S
C1209 C1210 1.366 . S
C1209 C1211 1.388 . S
C1210 C1209 1.366 . S
C1210 C1214 1.385 . S
C1211 H1186 0.951 . S
C1211 C1209 1.388 . S
C1211 C1212 1.366 . S
C1212 C1211 1.366 . S
C1212 C1213 1.414 . S
C1212 C1215 1.499 . S
C1213 H1187 0.950 1_565 S
C1213 C1212 1.414 . S
C1213 C1214 1.374 . S
C1214 H1188 0.950 . S
C1214 C1210 1.385 . S
C1214 C1213 1.374 . S
C1215 C1212 1.499 . S
C1215 C1216 1.373 1_565 S
C1215 C1217 1.389 . S
C1216 H1189 0.950 . S
C1216 C1202 1.377 . S
C1216 C1215 1.373 1_545 S
C1217 C1201 1.377 . S
C1217 C1215 1.389 . S
C1217 C1218 1.524 . S
C1218 C1217 1.524 . S
C1218 C1219 1.397 . S
C1218 C1223 1.363 . S
C1219 H1190 0.950 . S
C1219 C1218 1.397 . S
C1219 C1220 1.334 . S
C1220 H1191 0.950 . S
C1220 C1219 1.334 . S
C1220 C1221 1.287 . S
C1221 C1220 1.287 . S
C1221 C1222 1.524 . S
C1221 H1224 0.999 . S
C1222 H1192 0.950 . S
C1222 C1221 1.524 . S
C1222 C1223 1.415 . S
C1223 H1193 0.950 . S
C1223 C1218 1.363 . S
C1223 C1222 1.415 . S
H1224 C1221 0.999 . S
H1225 C1206 0.913 . S
H1226 C1244 0.951 . S
H1227 C1246 0.951 . S
H1228 C1248 0.950 . S
H1229 C1249 0.950 . S
H1230 C1251 0.950 . S
H1231 C1254 0.950 . S
H1232 C1255 0.950 . S
H1233 C1257 0.950 . S
H1234 C1258 0.950 . S
H1235 C1259 0.951 . S
H1236 C1261 0.951 . S
H1237 C1263 0.950 . S
H1238 C1264 0.950 . S
H1239 C1266 0.950 . S
H1240 C1269 0.950 . S
H1241 C1270 0.950 . S
H1242 C1272 0.950 . S
H1243 C1273 0.950 . S
C1244 H1226 0.951 . S
C1244 C1245 1.366 . S
C1244 C1246 1.388 . S
C1245 C1244 1.366 . S
C1245 C1249 1.385 . S
C1246 H1227 0.951 . S
C1246 C1244 1.388 . S
C1246 C1247 1.366 . S
C1247 C1246 1.366 . S
C1247 C1248 1.414 . S
C1247 C1250 1.499 . S
C1248 H1228 0.950 . S
C1248 C1247 1.414 . S
C1248 C1249 1.374 . S
C1249 H1229 0.950 . S
C1249 C1245 1.385 . S
C1249 C1248 1.374 . S
C1250 C1247 1.499 . S
C1250 C1251 1.373 . S
C1250 C1252 1.389 1_655 S
C1251 H1230 0.950 . S
C1251 C1250 1.373 . S
C1251 C1267 1.377 . S
C1252 C1250 1.389 1_455 S
C1252 C1253 1.524 . S
C1252 C1266 1.377 . S
C1253 C1252 1.524 . S
C1253 C1254 1.397 . S
C1253 C1258 1.363 . S
C1254 H1231 0.950 . S
C1254 C1253 1.397 . S
C1254 C1255 1.334 . S
C1255 H1232 0.950 . S
C1255 C1254 1.334 . S
C1255 C1256 1.287 . S
C1256 C1255 1.287 . S
C1256 C1257 1.524 . S
C1256 H1275 0.913 . S
C1257 H1233 0.950 . S
C1257 C1256 1.524 . S
C1257 C1258 1.415 . S
C1258 H1234 0.950 . S
C1258 C1253 1.363 . S
C1258 C1257 1.415 . S
C1259 H1235 0.951 . S
C1259 C1260 1.366 . S
C1259 C1261 1.388 . S
C1260 C1259 1.366 . S
C1260 C1264 1.385 . S
C1261 H1236 0.951 . S
C1261 C1259 1.388 . S
C1261 C1262 1.366 . S
C1262 C1261 1.366 . S
C1262 C1263 1.414 . S
C1262 C1265 1.499 1_455 S
C1263 H1237 0.950 . S
C1263 C1262 1.414 . S
C1263 C1264 1.374 . S
C1264 H1238 0.950 . S
C1264 C1260 1.385 . S
C1264 C1263 1.374 . S
C1265 C1262 1.499 1_655 S
C1265 C1266 1.373 1_655 S
C1265 C1267 1.389 . S
C1266 H1239 0.950 . S
C1266 C1252 1.377 . S
C1266 C1265 1.373 1_455 S
C1267 C1251 1.377 . S
C1267 C1265 1.389 . S
C1267 C1268 1.524 . S
C1268 C1267 1.524 . S
C1268 C1269 1.397 . S
C1268 C1273 1.363 . S
C1269 H1240 0.950 . S
C1269 C1268 1.397 . S
C1269 C1270 1.334 . S
C1270 H1241 0.950 . S
C1270 C1269 1.334 . S
C1270 C1271 1.287 . S
C1271 C1270 1.287 . S
C1271 C1272 1.524 . S
C1271 H1274 0.999 . S
C1272 H1242 0.950 . S
C1272 C1271 1.524 . S
C1272 C1273 1.415 . S
C1273 H1243 0.950 . S
C1273 C1268 1.363 . S
C1273 C1272 1.415 . S
H1274 C1271 0.999 . S
H1275 C1256 0.913 . S
H1276 C1294 0.951 . S
H1277 C1296 0.951 . S
H1278 C1298 0.950 1_556 S
H1279 C1299 0.950 . S
H1280 C1301 0.950 . S
H1281 C1304 0.950 . S
H1282 C1305 0.950 . S
H1283 C1307 0.950 . S
H1284 C1308 0.950 . S
H1285 C1309 0.951 . S
H1286 C1311 0.951 . S
H1287 C1313 0.950 . S
H1288 C1314 0.950 1_554 S
H1289 C1316 0.950 . S
H1290 C1319 0.950 . S
H1291 C1320 0.950 . S
H1292 C1322 0.950 . S
H1293 C1323 0.950 . S
C1294 H1276 0.951 . S
C1294 C1295 1.366 . S
C1294 C1296 1.388 . S
C1295 C1294 1.366 . S
C1295 C1299 1.385 . S
C1296 H1277 0.951 . S
C1296 C1294 1.388 . S
C1296 C1297 1.366 . S
C1297 C1296 1.366 . S
C1297 C1298 1.414 . S
C1297 C1300 1.499 . S
C1298 H1278 0.950 1_554 S
C1298 C1297 1.414 . S
C1298 C1299 1.374 . S
C1299 H1279 0.950 . S
C1299 C1295 1.385 . S
C1299 C1298 1.374 . S
C1300 C1297 1.499 . S
C1300 C1301 1.373 1_554 S
C1300 C1302 1.389 . S
C1301 H1280 0.950 . S
C1301 C1300 1.373 1_556 S
C1301 C1317 1.377 . S
C1302 C1300 1.389 . S
C1302 C1303 1.524 . S
C1302 C1316 1.377 . S
C1303 C1302 1.524 . S
C1303 C1304 1.397 . S
C1303 C1308 1.363 . S
C1304 H1281 0.950 . S
C1304 C1303 1.397 . S
C1304 C1305 1.334 . S
C1305 H1282 0.950 . S
C1305 C1304 1.334 . S
C1305 C1306 1.287 . S
C1306 C1305 1.287 . S
C1306 C1307 1.524 . S
C1306 H1325 0.913 . S
C1307 H1283 0.950 . S
C1307 C1306 1.524 . S
C1307 C1308 1.415 . S
C1308 H1284 0.950 . S
C1308 C1303 1.363 . S
C1308 C1307 1.415 . S
C1309 H1285 0.951 . S
C1309 C1310 1.366 . S
C1309 C1311 1.388 . S
C1310 C1309 1.366 . S
C1310 C1314 1.385 . S
C1311 H1286 0.951 . S
C1311 C1309 1.388 . S
C1311 C1312 1.366 . S
C1312 C1311 1.366 . S
C1312 C1313 1.414 1_556 S
C1312 C1315 1.499 . S
C1313 H1287 0.950 . S
C1313 C1312 1.414 1_554 S
C1313 C1314 1.374 1_554 S
C1314 H1288 0.950 1_556 S
C1314 C1310 1.385 . S
C1314 C1313 1.374 1_556 S
C1315 C1312 1.499 . S
C1315 C1316 1.373 1_556 S
C1315 C1317 1.389 . S
C1316 H1289 0.950 . S
C1316 C1302 1.377 . S
C1316 C1315 1.373 1_554 S
C1317 C1301 1.377 . S
C1317 C1315 1.389 . S
C1317 C1318 1.524 . S
C1318 C1317 1.524 . S
C1318 C1319 1.397 . S
C1318 C1323 1.363 . S
C1319 H1290 0.950 . S
C1319 C1318 1.397 . S
C1319 C1320 1.334 . S
C1320 H1291 0.950 . S
C1320 C1319 1.334 . S
C1320 C1321 1.287 . S
C1321 C1320 1.287 . S
C1321 C1322 1.524 . S
C1321 H1324 0.999 . S
C1322 H1292 0.950 . S
C1322 C1321 1.524 . S
C1322 C1323 1.415 . S
C1323 H1293 0.950 . S
C1323 C1318 1.363 . S
C1323 C1322 1.415 . S
H1324 C1321 0.999 . S
H1325 C1306 0.913 . S
H1326 C1344 0.951 . S
H1327 C1346 0.951 . S
H1328 C1348 0.950 1_554 S
H1329 C1349 0.950 . S
H1330 C1351 0.950 . S
H1331 C1354 0.950 . S
H1332 C1355 0.950 . S
H1333 C1357 0.950 . S
H1334 C1358 0.950 . S
H1335 C1359 0.951 . S
H1336 C1361 0.951 . S
H1337 C1363 0.950 1_556 S
H1338 C1364 0.950 . S
H1339 C1366 0.950 . S
H1340 C1369 0.950 . S
H1341 C1370 0.950 . S
H1342 C1372 0.950 . S
H1343 C1373 0.950 . S
C1344 H1326 0.951 . S
C1344 C1345 1.366 . S
C1344 C1346 1.388 . S
C1345 C1344 1.366 . S
C1345 C1349 1.385 . S
C1346 H1327 0.951 . S
C1346 C1344 1.388 . S
C1346 C1347 1.366 . S
C1347 C1346 1.366 . S
C1347 C1348 1.414 . S
C1347 C1350 1.499 . S
C1348 H1328 0.950 1_556 S
C1348 C1347 1.414 . S
C1348 C1349 1.374 . S
C1349 H1329 0.950 . S
C1349 C1345 1.385 . S
C1349 C1348 1.374 . S
C1350 C1347 1.499 . S
C1350 C1351 1.373 1_556 S
C1350 C1352 1.389 . S
C1351 H1330 0.950 . S
C1351 C1350 1.373 1_554 S
C1351 C1367 1.377 . S
C1352 C1350 1.389 . S
C1352 C1353 1.524 . S
C1352 C1366 1.377 . S
C1353 C1352 1.524 . S
C1353 C1354 1.397 . S
C1353 C1358 1.363 . S
C1354 H1331 0.950 . S
C1354 C1353 1.397 . S
C1354 C1355 1.334 . S
C1355 H1332 0.950 . S
C1355 C1354 1.334 . S
C1355 C1356 1.287 . S
C1356 C1355 1.287 . S
C1356 C1357 1.524 . S
C1356 H1375 0.913 . S
C1357 H1333 0.950 . S
C1357 C1356 1.524 . S
C1357 C1358 1.415 . S
C1358 H1334 0.950 . S
C1358 C1353 1.363 . S
C1358 C1357 1.415 . S
C1359 H1335 0.951 . S
C1359 C1360 1.366 . S
C1359 C1361 1.388 . S
C1360 C1359 1.366 . S
C1360 C1364 1.385 . S
C1361 H1336 0.951 . S
C1361 C1359 1.388 . S
C1361 C1362 1.366 . S
C1362 C1361 1.366 . S
C1362 C1363 1.414 . S
C1362 C1365 1.499 . S
C1363 H1337 0.950 1_554 S
C1363 C1362 1.414 . S
C1363 C1364 1.374 . S
C1364 H1338 0.950 . S
C1364 C1360 1.385 . S
C1364 C1363 1.374 . S
C1365 C1362 1.499 . S
C1365 C1366 1.373 1_554 S
C1365 C1367 1.389 . S
C1366 H1339 0.950 . S
C1366 C1352 1.377 . S
C1366 C1365 1.373 1_556 S
C1367 C1351 1.377 . S
C1367 C1365 1.389 . S
C1367 C1368 1.524 . S
C1368 C1367 1.524 . S
C1368 C1369 1.397 . S
C1368 C1373 1.363 . S
C1369 H1340 0.950 . S
C1369 C1368 1.397 . S
C1369 C1370 1.334 . S
C1370 H1341 0.950 . S
C1370 C1369 1.334 . S
C1370 C1371 1.287 . S
C1371 C1370 1.287 . S
C1371 C1372 1.524 . S
C1371 H1374 0.999 . S
C1372 H1342 0.950 . S
C1372 C1371 1.524 . S
C1372 C1373 1.415 . S
C1373 H1343 0.950 . S
C1373 C1368 1.363 . S
C1373 C1372 1.415 . S
H1374 C1371 0.999 . S
H1375 C1356 0.913 . S
H1376 C1394 0.951 . S
H1377 C1396 0.951 . S
H1378 C1398 0.950 . S
H1379 C1399 0.950 . S
H1380 C1401 0.950 . S
H1381 C1404 0.950 . S
H1382 C1405 0.950 . S
H1383 C1407 0.950 . S
H1384 C1408 0.950 . S
H1385 C1409 0.951 . S
H1386 C1411 0.951 . S
H1387 C1413 0.950 . S
H1388 C1414 0.950 . S
H1389 C1416 0.950 . S
H1390 C1419 0.950 . S
H1391 C1420 0.950 . S
H1392 C1422 0.950 . S
H1393 C1423 0.950 . S
C1394 H1376 0.951 . S
C1394 C1395 1.366 . S
C1394 C1396 1.388 . S
C1395 C1394 1.366 . S
C1395 C1399 1.385 . S
C1396 H1377 0.951 . S
C1396 C1394 1.388 . S
C1396 C1397 1.366 . S
C1397 C1396 1.366 . S
C1397 C1398 1.414 . S
C1397 C1400 1.499 . S
C1398 H1378 0.950 . S
C1398 C1397 1.414 . S
C1398 C1399 1.374 . S
C1399 H1379 0.950 . S
C1399 C1395 1.385 . S
C1399 C1398 1.374 . S
C1400 C1397 1.499 . S
C1400 C1401 1.373 . S
C1400 C1402 1.389 1_556 S
C1401 H1380 0.950 . S
C1401 C1400 1.373 . S
C1401 C1417 1.377 . S
C1402 C1400 1.389 1_554 S
C1402 C1403 1.524 . S
C1402 C1416 1.377 . S
C1403 C1402 1.524 . S
C1403 C1404 1.397 . S
C1403 C1408 1.363 . S
C1404 H1381 0.950 . S
C1404 C1403 1.397 . S
C1404 C1405 1.334 . S
C1405 H1382 0.950 . S
C1405 C1404 1.334 . S
C1405 C1406 1.287 . S
C1406 C1405 1.287 . S
C1406 C1407 1.524 . S
C1406 H1425 0.913 . S
C1407 H1383 0.950 . S
C1407 C1406 1.524 . S
C1407 C1408 1.415 . S
C1408 H1384 0.950 . S
C1408 C1403 1.363 . S
C1408 C1407 1.415 . S
C1409 H1385 0.951 . S
C1409 C1410 1.366 . S
C1409 C1411 1.388 . S
C1410 C1409 1.366 . S
C1410 C1414 1.385 . S
C1411 H1386 0.951 . S
C1411 C1409 1.388 . S
C1411 C1412 1.366 . S
C1412 C1411 1.366 . S
C1412 C1413 1.414 . S
C1412 C1415 1.499 . S
C1413 H1387 0.950 . S
C1413 C1412 1.414 . S
C1413 C1414 1.374 . S
C1414 H1388 0.950 . S
C1414 C1410 1.385 . S
C1414 C1413 1.374 . S
C1415 C1412 1.499 . S
C1415 C1416 1.373 . S
C1415 C1417 1.389 1_554 S
C1416 H1389 0.950 . S
C1416 C1402 1.377 . S
C1416 C1415 1.373 . S
C1417 C1401 1.377 . S
C1417 C1415 1.389 1_556 S
C1417 C1418 1.524 . S
C1418 C1417 1.524 . S
C1418 C1419 1.397 . S
C1418 C1423 1.363 . S
C1419 H1390 0.950 . S
C1419 C1418 1.397 . S
C1419 C1420 1.334 . S
C1420 H1391 0.950 . S
C1420 C1419 1.334 . S
C1420 C1421 1.287 . S
C1421 C1420 1.287 . S
C1421 C1422 1.524 . S
C1421 H1424 0.999 . S
C1422 H1392 0.950 . S
C1422 C1421 1.524 . S
C1422 C1423 1.415 . S
C1423 H1393 0.950 . S
C1423 C1418 1.363 . S
C1423 C1422 1.415 . S
H1424 C1421 0.999 . S
H1425 C1406 0.913 . S
H1426 C1444 0.951 . S
H1427 C1446 0.951 . S
H1428 C1448 0.950 . S
H1429 C1449 0.950 . S
H1430 C1451 0.950 . S
H1431 C1454 0.950 . S
H1432 C1455 0.950 . S
H1433 C1457 0.950 . S
H1434 C1458 0.950 . S
H1435 C1459 0.951 . S
H1436 C1461 0.951 . S
H1437 C1463 0.950 . S
H1438 C1464 0.950 . S
H1439 C1466 0.950 . S
H1440 C1469 0.950 . S
H1441 C1470 0.950 . S
H1442 C1472 0.950 . S
H1443 C1473 0.950 . S
C1444 H1426 0.951 . S
C1444 C1445 1.366 . S
C1444 C1446 1.388 . S
C1445 C1444 1.366 . S
C1445 C1449 1.385 . S
C1446 H1427 0.951 . S
C1446 C1444 1.388 . S
C1446 C1447 1.366 . S
C1447 C1446 1.366 . S
C1447 C1448 1.414 . S
C1447 C1450 1.499 . S
C1448 H1428 0.950 . S
C1448 C1447 1.414 . S
C1448 C1449 1.374 . S
C1449 H1429 0.950 . S
C1449 C1445 1.385 . S
C1449 C1448 1.374 . S
C1450 C1447 1.499 . S
C1450 C1451 1.373 . S
C1450 C1452 1.389 1_554 S
C1451 H1430 0.950 . S
C1451 C1450 1.373 . S
C1451 C1467 1.377 . S
C1452 C1450 1.389 1_556 S
C1452 C1453 1.524 . S
C1452 C1466 1.377 . S
C1453 C1452 1.524 . S
C1453 C1454 1.397 . S
C1453 C1458 1.363 . S
C1454 H1431 0.950 . S
C1454 C1453 1.397 . S
C1454 C1455 1.334 . S
C1455 H1432 0.950 . S
C1455 C1454 1.334 . S
C1455 C1456 1.287 . S
C1456 C1455 1.287 . S
C1456 C1457 1.524 . S
C1456 H1475 0.913 . S
C1457 H1433 0.950 . S
C1457 C1456 1.524 . S
C1457 C1458 1.415 . S
C1458 H1434 0.950 . S
C1458 C1453 1.363 . S
C1458 C1457 1.415 . S
C1459 H1435 0.951 . S
C1459 C1460 1.366 . S
C1459 C1461 1.388 . S
C1460 C1459 1.366 . S
C1460 C1464 1.385 . S
C1461 H1436 0.951 . S
C1461 C1459 1.388 . S
C1461 C1462 1.366 . S
C1462 C1461 1.366 . S
C1462 C1463 1.414 . S
C1462 C1465 1.499 . S
C1463 H1437 0.950 . S
C1463 C1462 1.414 . S
C1463 C1464 1.374 . S
C1464 H1438 0.950 . S
C1464 C1460 1.385 . S
C1464 C1463 1.374 . S
C1465 C1462 1.499 . S
C1465 C1466 1.373 . S
C1465 C1467 1.389 1_556 S
C1466 H1439 0.950 . S
C1466 C1452 1.377 . S
C1466 C1465 1.373 . S
C1467 C1451 1.377 . S
C1467 C1465 1.389 1_554 S
C1467 C1468 1.524 . S
C1468 C1467 1.524 . S
C1468 C1469 1.397 . S
C1468 C1473 1.363 . S
C1469 H1440 0.950 . S
C1469 C1468 1.397 . S
C1469 C1470 1.334 . S
C1470 H1441 0.950 . S
C1470 C1469 1.334 . S
C1470 C1471 1.287 . S
C1471 C1470 1.287 . S
C1471 C1472 1.524 . S
C1471 H1474 0.999 . S
C1472 H1442 0.950 . S
C1472 C1471 1.524 . S
C1472 C1473 1.415 . S
C1473 H1443 0.950 . S
C1473 C1468 1.363 . S
C1473 C1472 1.415 . S
H1474 C1471 0.999 . S
H1475 C1456 0.913 . S
C295 N12 1.358 . S
C310 C177 1.381 . S
C345 N25 1.294 . S
C360 C108 1.333 . S
C395 N117 1.328 . S
C410 C62 1.368 . S
C445 N140 1.224 . S
C460 N71 1.208 . S
C495 N186 1.176 . S
C510 N163 1.191 . S
C545 C223 1.357 . S
C560 N94 1.324 . S
C595 N242 1.401 . S
C610 C131 1.410 . S
C645 C260 1.571 . S
C660 C154 1.568 . S
C695 C39 1.386 . S
C710 N209 1.358 . S
C745 C237 1.360 . S
C760 N48 1.334 . S
C795 C85 1.354 . S
C810 N265 1.340 . S
C845 C200 1.559 . S
C860 C7 1.557 . S
C895 C145 1.586 . S
C910 C16 1.561 . S
C945 N173 1.752 . S
C960 C30 1.816 . S
C995 N104 1.343 . S
C1010 N58 1.340 . S
C1045 C76 1.951 . S
C1060 C122 1.949 . S
C1095 C168 1.598 . S
C1110 N127 1.559 . S
C1145 C99 1.797 . S
C1160 N150 1.731 . S
C1195 N81 1.446 . S
C1210 N35 1.455 . S
C1245 C53 1.825 . S
C1260 N2 1.794 . S
C1295 N196 1.433 . S
C1310 N219 1.433 . S
C1345 C214 1.829 . S
C1360 C246 1.838 . S
C1395 N255 1.443 . S
C1410 N232 1.445 . S
C1445 C191 1.797 . S
C1460 C269 1.804 . S
