# Generated by pormake.
# Topology smk, (6)-cn, num edge types: 1
# Building blocks:
#     Node 0, Type 0, BuildingBlock: JUFBIX_clean_sbu_0, # of connection points: 6
#     Node 1, Type 0, BuildingBlock: JUFBIX_clean_sbu_0, # of connection points: 6
#     Node 2, Type 0, BuildingBlock: JUFBIX_clean_sbu_0, # of connection points: 6
#     Node 3, Type 0, BuildingBlock: JUFBIX_clean_sbu_0, # of connection points: 6
#     Node 4, Type 0, BuildingBlock: JUFBIX_clean_sbu_0, # of connection points: 6
#     Node 5, Type 0, BuildingBlock: JUFBIX_clean_sbu_0, # of connection points: 6
#     Edge 6, Type (0, 0), BuildingBlock: CIFDUS_clean_linker_0, # of connection points: 2
#     Edge 7, Type (0, 0), BuildingBlock: CIFDUS_clean_linker_0, # of connection points: 2
#     Edge 8, Type (0, 0), BuildingBlock: CIFDUS_clean_linker_0, # of connection points: 2
#     Edge 9, Type (0, 0), BuildingBlock: CIFDUS_clean_linker_0, # of connection points: 2
#     Edge 10, Type (0, 0), BuildingBlock: CIFDUS_clean_linker_0, # of connection points: 2
#     Edge 11, Type (0, 0), BuildingBlock: CIFDUS_clean_linker_0, # of connection points: 2
#     Edge 12, Type (0, 0), BuildingBlock: CIFDUS_clean_linker_0, # of connection points: 2
#     Edge 13, Type (0, 0), BuildingBlock: CIFDUS_clean_linker_0, # of connection points: 2
#     Edge 14, Type (0, 0), BuildingBlock: CIFDUS_clean_linker_0, # of connection points: 2
#     Edge 15, Type (0, 0), BuildingBlock: CIFDUS_clean_linker_0, # of connection points: 2
#     Edge 16, Type (0, 0), BuildingBlock: CIFDUS_clean_linker_0, # of connection points: 2
#     Edge 17, Type (0, 0), BuildingBlock: CIFDUS_clean_linker_0, # of connection points: 2
#     Edge 18, Type (0, 0), BuildingBlock: CIFDUS_clean_linker_0, # of connection points: 2
#     Edge 19, Type (0, 0), BuildingBlock: CIFDUS_clean_linker_0, # of connection points: 2
#     Edge 20, Type (0, 0), BuildingBlock: CIFDUS_clean_linker_0, # of connection points: 2
#     Edge 21, Type (0, 0), BuildingBlock: CIFDUS_clean_linker_0, # of connection points: 2
#     Edge 22, Type (0, 0), BuildingBlock: CIFDUS_clean_linker_0, # of connection points: 2
#     Edge 23, Type (0, 0), BuildingBlock: CIFDUS_clean_linker_0, # of connection points: 2
# Relax obj value: 0.375
# Max RMSD: 0.250
# Mean RMSD: 0.250
data_MOF--net-smk--node1-JUFBIX_clean_sbu_0--edge1-CIFDUS_clean_linker_0
_symmetry_space_group_name_H-M    P1
_symmetry_Int_Tables_number       1
_symmetry_cell_setting            triclinic
loop_
_symmetry_equiv_pos_as_xyz
'x, y, z'
_cell_length_a     40.34657
_cell_length_b     40.423576
_cell_length_c     13.03795
_cell_angle_alpha  90.341111
_cell_angle_beta   89.623016
_cell_angle_gamma 120.09765
loop_
_atom_site_label
_atom_site_type_symbol
_atom_site_fract_x
_atom_site_fract_y
_atom_site_fract_z
_atom_type_partial_charge
Co0 Co 0.42343 0.19689 0.50805 0.0
C1 C 0.39766 0.11921 0.51527 0.0
Co2 Co 0.47032 0.18379 0.52353 0.0
C3 C 0.37692 0.23047 0.56099 0.0
C4 C 0.35925 0.19981 0.41901 0.0
N5 N 0.38486 0.20925 0.49556 0.0
N6 N 0.34755 0.23466 0.52838 0.0
C7 C 0.33643 0.21556 0.43874 0.0
H8 H 0.39265 0.24303 0.63095 0.0
H9 H 0.35713 0.18245 0.35321 0.0
C10 C 0.49684 0.26101 0.50722 0.0
N11 N 0.50928 0.17243 0.53861 0.0
C12 C 0.54075 0.19153 0.59768 0.0
C13 C 0.51252 0.14372 0.49583 0.0
N14 N 0.56358 0.17601 0.59367 0.0
C15 C 0.54583 0.1458 0.52972 0.0
C16 C 0.45159 0.18773 0.32157 0.0
O17 O 0.46132 0.25021 0.50211 0.0
O18 O 0.50687 0.23625 0.52108 0.0
O19 O 0.47394 0.1822 0.37814 0.0
O20 O 0.42691 0.19435 0.36327 0.0
O21 O 0.43334 0.13138 0.52343 0.0
H22 H 0.49209 0.12277 0.44308 0.0
H23 H 0.5466 0.21625 0.64366 0.0
O24 O 0.38594 0.14316 0.51095 0.0
O25 O 0.42074 0.1992 0.65369 0.0
O26 O 0.46647 0.18539 0.66823 0.0
C27 C 0.4425 0.19289 0.71016 0.0
H28 H 0.31292 0.21244 0.39212 0.0
H29 H 0.55656 0.12707 0.50714 0.0
Co30 Co 0.2131 0.42322 0.79262 0.0
C31 C 0.1382 0.40741 0.79028 0.0
Co32 Co 0.20819 0.47525 0.8081 0.0
C33 C 0.24244 0.37502 0.71731 0.0
C34 C 0.2025 0.34918 0.84091 0.0
N35 N 0.21934 0.38073 0.78169 0.0
N36 N 0.24092 0.34137 0.73492 0.0
C37 C 0.21585 0.32508 0.81277 0.0
H38 H 0.26068 0.39553 0.66016 0.0
H39 H 0.18202 0.34416 0.90138 0.0
C40 C 0.28294 0.49241 0.81506 0.0
N41 N 0.20087 0.51727 0.81859 0.0
C42 C 0.20744 0.54378 0.74638 0.0
C43 C 0.18276 0.52463 0.89497 0.0
N44 N 0.19376 0.56704 0.77383 0.0
C45 C 0.17853 0.55516 0.86806 0.0
C46 C 0.20793 0.44252 -0.00553 0.0
O47 O 0.26783 0.45633 0.8027 0.0
O48 O 0.26154 0.50714 0.81617 0.0
O49 O 0.2062 0.47007 0.95351 0.0
O50 O 0.21061 0.41844 0.93729 0.0
O51 O 0.15508 0.44344 0.80075 0.0
H52 H 0.1719 0.50802 0.9644 0.0
H53 H 0.22061 0.54494 0.6731 0.0
O54 O 0.1581 0.39098 0.78486 0.0
O55 O 0.21557 0.4283 0.64733 0.0
O56 O 0.21039 0.47947 0.66318 0.0
C57 C 0.21348 0.4556 0.60615 0.0
H58 H 0.20751 0.29753 0.84626 0.0
H59 H 0.16478 0.56718 0.9143 0.0
Co60 Co 0.83392 0.22098 0.82836 0.0
C61 C 0.91043 0.27725 0.82517 0.0
Co62 Co 0.84258 0.27933 0.81403 0.0
C63 C 0.79989 0.14185 0.89319 0.0
C64 C 0.84692 0.15874 0.78909 0.0
N65 N 0.82602 0.17178 0.83729 0.0
N66 N 0.80401 0.11083 0.8824 0.0
C67 C 0.83358 0.12141 0.81692 0.0
H68 H 0.77888 0.14309 0.94265 0.0
H69 H 0.87057 0.17544 0.73747 0.0
C70 C 0.76623 0.22367 0.81097 0.0
N71 N 0.85172 0.32925 0.80557 0.0
C72 C 0.84276 0.34857 0.87492 0.0
C73 C 0.87259 0.35536 0.73348 0.0
N74 N 0.85749 0.38581 0.8497 0.0
C75 C 0.87604 0.38995 0.76 0.0
C76 C 0.83946 0.24548 0.62692 0.0
O77 O 0.77984 0.20141 0.82062 0.0
O78 O 0.78902 0.25965 0.81016 0.0
O79 O 0.84294 0.27556 0.66865 0.0
O80 O 0.83568 0.2183 0.6834 0.0
O81 O 0.89593 0.29864 0.81624 0.0
H82 H 0.88546 0.34995 0.66722 0.0
H83 H 0.82684 0.33575 0.94449 0.0
O84 O 0.88828 0.24139 0.83426 0.0
O85 O 0.83219 0.22391 -0.0264 0.0
O86 O 0.84204 0.28213 0.95923 0.0
C87 C 0.83694 0.25444 0.01554 0.0
H88 H 0.84464 0.10334 0.79056 0.0
H89 H 0.8913 0.41609 0.71637 0.0
Co90 Co 0.63019 0.79738 0.15113 0.0
C91 C 0.6492 0.7404 0.13508 0.0
Co92 Co 0.57982 0.73939 0.13549 0.0
C93 C 0.68183 0.87822 0.11427 0.0
C94 C 0.7022 0.85544 0.22989 0.0
N95 N 0.67239 0.84589 0.16668 0.0
N96 N 0.7166 0.90734 0.14149 0.0
C97 C 0.72944 0.89309 0.2143 0.0
H98 H 0.66433 0.8799 0.05421 0.0
H99 H 0.70444 0.83593 0.28196 0.0
C100 C 0.56042 0.79566 0.15895 0.0
N101 N 0.5379 0.69062 0.11858 0.0
C102 C 0.5077 0.67987 0.05561 0.0
C103 C 0.532 0.65789 0.16192 0.0
N104 N 0.48327 0.64171 0.05734 0.0
C105 C 0.49851 0.6278 0.12437 0.0
C106 C 0.60066 0.76033 0.33733 0.0
O107 O 0.5966 0.81777 0.16117 0.0
O108 O 0.54696 0.76007 0.14428 0.0
O109 O 0.5766 0.73336 0.28049 0.0
O110 O 0.62679 0.79076 0.29587 0.0
O111 O 0.61306 0.71917 0.12913 0.0
H112 H 0.55102 0.656 0.21664 0.0
H113 H 0.50419 0.69967 0.0077 0.0
O114 O 0.66349 0.77637 0.14291 0.0
O115 O 0.63304 0.80344 0.00608 0.0
O116 O 0.58341 0.74579 -0.00921 0.0
C117 C 0.60923 0.77634 0.94926 0.0
H118 H 0.75687 0.90865 0.25236 0.0
H119 H 0.48612 0.59808 0.14582 0.0
Co120 Co 0.7997 0.58821 0.16785 0.0
C121 C 0.74241 0.60698 0.17078 0.0
Co122 Co 0.74128 0.53783 0.15485 0.0
C123 C 0.87898 0.63569 0.23643 0.0
C124 C 0.86456 0.6604 0.112 0.0
N125 N 0.84958 0.6298 0.17486 0.0
N126 N 0.91167 0.66841 0.21302 0.0
C127 C 0.90264 0.68395 0.13475 0.0
H128 H 0.87671 0.61599 0.29564 0.0
H129 H 0.84886 0.66514 0.05249 0.0
C130 C 0.79616 0.51714 0.14854 0.0
N131 N 0.69124 0.49704 0.14738 0.0
C132 C 0.67177 0.46949 0.21786 0.0
C133 C 0.66497 0.49154 0.07581 0.0
N134 N 0.63431 0.44734 0.19402 0.0
C135 C 0.63011 0.46105 0.10395 0.0
C136 C 0.77435 0.56853 0.96713 0.0
O137 O 0.8192 0.55313 0.15601 0.0
O138 O 0.76031 0.50435 0.15004 0.0
O139 O 0.74452 0.54154 0.00891 0.0
O140 O 0.80145 0.59232 0.02351 0.0
O141 O 0.72216 0.57109 0.15968 0.0
H142 H 0.67041 0.50939 0.00918 0.0
H143 H 0.68454 0.46679 0.28765 0.0
O144 O 0.77873 0.62226 0.17705 0.0
O145 O 0.79743 0.58359 0.3135 0.0
O146 O 0.73907 0.53492 0.29942 0.0
C147 C 0.76693 0.55764 0.35552 0.0
H148 H 0.92214 0.71069 0.09746 0.0
H149 H 0.60368 0.45024 0.06162 0.0
Co150 Co 0.24022 0.81774 0.43447 0.0
C151 C 0.29759 0.89394 0.43093 0.0
Co152 Co 0.29864 0.82593 0.44578 0.0
C153 C 0.16117 0.78463 0.36758 0.0
C154 C 0.17442 0.8238 0.49259 0.0
N155 N 0.19027 0.80911 0.42878 0.0
N156 N 0.12781 0.78313 0.39185 0.0
C157 C 0.13604 0.80772 0.47051 0.0
H158 H 0.1641 0.76734 0.30845 0.0
H159 H 0.18962 0.84437 0.55275 0.0
C160 C 0.24338 0.75032 0.45299 0.0
N161 N 0.34806 0.83393 0.44969 0.0
C162 C 0.36197 0.81608 0.39065 0.0
C163 C 0.37857 0.8606 0.50225 0.0
N164 N 0.39998 0.83072 0.40311 0.0
C165 C 0.41058 0.85876 0.47355 0.0
C166 C 0.26654 0.82444 0.63442 0.0
O167 O 0.22041 0.76321 0.44534 0.0
O168 O 0.27915 0.77339 0.45191 0.0
O169 O 0.29653 0.82765 0.59192 0.0
O170 O 0.23906 0.82042 0.57875 0.0
O171 O 0.31813 0.87851 0.43958 0.0
H172 H 0.37776 0.88072 0.55583 0.0
H173 H 0.3447 0.79368 0.33638 0.0
O174 O 0.26123 0.87276 0.4267 0.0
O175 O 0.24212 0.81515 0.2884 0.0
O176 O 0.30017 0.82411 0.30146 0.0
C177 C 0.27237 0.81913 0.24584 0.0
H178 H 0.11578 0.81376 0.50888 0.0
H179 H 0.43937 0.87674 0.50203 0.0
H180 H 0.41023 0.20123 0.18128 0.0
H181 H 0.49966 0.17274 0.2074 0.0
H182 H 0.50486 0.17214 0.02078 0.0
H183 H 0.48405 0.17963 0.85041 0.0
H184 H 0.39463 0.20815 0.82436 0.0
H185 H 0.38952 0.20886 0.01097 0.0
C186 C 0.43084 0.19483 0.14629 0.0
C187 C 0.45448 0.187 0.20841 0.0
C188 C 0.43374 0.19458 0.03895 0.0
C189 C 0.48109 0.17886 0.16156 0.0
C190 C 0.4841 0.17851 0.05478 0.0
C191 C 0.46344 0.18603 0.88543 0.0
C192 C 0.43974 0.19379 0.82333 0.0
C193 C 0.46059 0.18635 -0.00723 0.0
C194 C 0.41322 0.20205 0.87019 0.0
C195 C 0.41026 0.20245 -0.02304 0.0
H196 H 0.21377 0.40664 0.46236 0.0
H197 H 0.21232 0.51225 0.49617 0.0
H198 H 0.20987 0.5172 0.31047 0.0
H199 H 0.20784 0.49152 0.13827 0.0
H200 H 0.2091 0.38584 0.10421 0.0
H201 H 0.2117 0.38093 0.29003 0.0
C202 C 0.21304 0.43081 0.42914 0.0
C203 C 0.21328 0.45902 0.49326 0.0
C204 C 0.2114 0.43342 0.32214 0.0
C205 C 0.2122 0.4901 0.4488 0.0
C206 C 0.21073 0.49295 0.34248 0.0
C207 C 0.20855 0.46734 0.17145 0.0
C208 C 0.20823 0.4391 0.10731 0.0
C209 C 0.21019 0.46473 0.27842 0.0
C210 C 0.20929 0.40801 0.1517 0.0
C211 C 0.21083 0.40518 0.25803 0.0
H212 H 0.83197 0.20312 0.15775 0.0
H213 H 0.84318 0.31462 0.12719 0.0
H214 H 0.8453 0.32182 0.31324 0.0
H215 H 0.84422 0.29669 0.48473 0.0
H216 H 0.83323 0.18529 0.51536 0.0
H217 H 0.83094 0.17801 0.32928 0.0
C218 C 0.83479 0.22897 0.19174 0.0
C219 C 0.83738 0.25823 0.1285 0.0
C220 C 0.83617 0.23305 0.29888 0.0
C221 C 0.84112 0.29159 0.17393 0.0
C222 C 0.84238 0.29579 0.28042 0.0
C223 C 0.8414 0.27084 0.45076 0.0
C224 C 0.83892 0.24162 0.51399 0.0
C225 C 0.84002 0.26675 0.34363 0.0
C226 C 0.83521 0.20828 0.46858 0.0
C227 C 0.83386 0.20404 0.3621 0.0
H228 H 0.64449 0.81438 0.47832 0.0
H229 H 0.54977 0.69881 0.45099 0.0
H230 H 0.54375 0.69388 0.63755 0.0
H231 H 0.56525 0.72233 0.80827 0.0
H232 H 0.65995 0.83792 0.83554 0.0
H233 H 0.6659 0.84286 0.64899 0.0
C234 C 0.62257 0.78804 0.51305 0.0
C235 C 0.59766 0.75699 0.45055 0.0
C236 C 0.61915 0.78543 0.62037 0.0
C237 C 0.56937 0.72315 0.49708 0.0
C238 C 0.56586 0.72032 0.60384 0.0
C239 C 0.58716 0.74867 0.77353 0.0
C240 C 0.61211 0.77971 0.83602 0.0
C241 C 0.59054 0.75129 0.66619 0.0
C242 C 0.64035 0.81357 0.78946 0.0
C243 C 0.64382 0.81642 0.68271 0.0
H244 H 0.81769 0.60462 0.49917 0.0
H245 H 0.70711 0.50264 0.46543 0.0
H246 H 0.69943 0.49719 0.6511 0.0
H247 H 0.72381 0.52139 0.82346 0.0
H248 H 0.83424 0.62355 0.85739 0.0
H249 H 0.84206 0.62888 0.67164 0.0
C250 C 0.79197 0.58115 0.53243 0.0
C251 C 0.7631 0.55412 0.46836 0.0
C252 C 0.78756 0.57823 0.63948 0.0
C253 C 0.72986 0.52391 0.51281 0.0
C254 C 0.72537 0.52074 0.61912 0.0
C255 C 0.74954 0.54487 0.79024 0.0
C256 C 0.77833 0.57199 0.85433 0.0
C257 C 0.75397 0.54779 0.68322 0.0
C258 C 0.81155 0.60222 0.80993 0.0
C259 C 0.81613 0.60532 0.7036 0.0
H260 H 0.22277 0.81754 0.10251 0.0
H261 H 0.33105 0.82133 0.13565 0.0
H262 H 0.33921 0.82396 0.95002 0.0
H263 H 0.31594 0.82558 0.77776 0.0
H264 H 0.20772 0.82193 0.74469 0.0
H265 H 0.19945 0.81905 0.93026 0.0
C266 C 0.24807 0.81879 0.0691 0.0
C267 C 0.27619 0.81924 0.13297 0.0
C268 C 0.25278 0.82053 0.96209 0.0
C269 C 0.30891 0.82099 0.08836 0.0
C270 C 0.31368 0.82254 -0.01791 0.0
C271 C 0.29063 0.82431 0.81116 0.0
C272 C 0.26259 0.82404 0.7473 0.0
C273 C 0.28589 0.82249 0.91817 0.0
C274 C 0.22984 0.82221 0.79193 0.0
C275 C 0.225 0.8205 0.89819 0.0
H276 H 0.41592 0.06942 0.43504 0.0
H277 H 0.32021 0.07608 0.55931 0.0
H278 H 0.27883 1.00649 0.53724 0.0
H279 H 0.27151 0.94286 0.49049 0.0
H280 H 0.36919 0.9401 0.36283 0.0
H281 H 0.40785 1.009 0.3771 0.0
C282 C 0.386 0.05573 0.45779 0.0
C283 C 0.37132 0.07768 0.50068 0.0
C284 C 0.36264 1.01631 0.44358 0.0
C285 C 0.33225 0.05964 0.527 0.0
C286 C 0.30864 1.01991 0.51427 0.0
C287 C 0.30103 0.95754 0.4643 0.0
C288 C 0.3175 0.93623 0.42672 0.0
C289 C 0.32365 0.99777 0.47347 0.0
C290 C 0.35587 0.95565 0.39326 0.0
C291 C 0.37813 0.99513 0.40147 0.0
H292 H 0.31988 0.27649 0.44356 0.0
H293 H 0.33656 0.23565 0.73222 0.0
H294 H 0.30505 0.26562 0.82272 0.0
H295 H 0.2713 0.30217 0.81923 0.0
H296 H 0.25705 0.34573 0.53234 0.0
H297 H 0.28917 0.31629 0.44133 0.0
C298 C 0.31651 0.2742 0.52621 0.0
C299 C 0.33029 0.25373 0.58118 0.0
C300 C 0.29884 0.29201 0.57782 0.0
C301 C 0.32638 0.25145 0.68846 0.0
C302 C 0.30822 0.26842 0.74009 0.0
C303 C 0.27523 0.30511 0.73679 0.0
C304 C 0.26158 0.32577 0.68231 0.0
C305 C 0.29413 0.28856 0.68553 0.0
C306 C 0.26746 0.33007 0.57577 0.0
C307 C 0.28564 0.3131 0.52381 0.0
H308 H 0.96212 0.35008 0.77767 0.0
H309 H 0.95359 0.24297 0.86117 0.0
H310 H 1.02364 0.27292 0.85296 0.0
H311 H 0.08783 0.33086 0.82605 0.0
H312 H 0.09332 0.43679 0.74246 0.0
H313 H 1.02405 0.40579 0.74586 0.0
C314 C 0.97542 0.33313 0.79441 0.0
C315 C 0.95263 0.29443 0.82088 0.0
C316 C 1.01533 0.35036 0.78906 0.0
C317 C 0.9705 0.27293 0.84106 0.0
C318 C 1.01055 0.29003 0.83622 0.0
C319 C 0.07374 0.34692 0.80767 0.0
C320 C 0.09585 0.38617 0.78476 0.0
C321 C 1.03336 0.32888 0.81063 0.0
C322 C 0.07716 0.40666 0.76139 0.0
C323 C 1.03744 0.38899 0.76326 0.0
H324 H 0.68831 0.95175 0.07883 0.0
H325 H 0.79218 0.94664 0.10112 0.0
H326 H 0.82863 1.00974 0.02301 0.0
H327 H 0.83108 0.06621 0.94762 0.0
H328 H 0.72835 0.07343 0.92915 0.0
H329 H 0.69128 1.00995 0.00727 0.0
C330 C 0.71888 0.96455 0.06605 0.0
C331 C 0.73758 0.94465 0.09556 0.0
C332 C 0.73981 1.0012 0.02225 0.0
C333 C 0.77728 0.9616 0.07997 0.0
C334 C 0.79809 0.99759 0.03495 0.0
C335 C 0.80054 0.05377 0.96022 0.0
C336 C 0.78238 0.07425 0.93195 0.0
C337 C 0.77967 1.01761 0.00574 0.0
C338 C 0.74294 0.05821 0.95077 0.0
C339 C 0.72176 1.02188 -0.00512 0.0
H340 H 0.77101 0.68447 0.14035 0.0
H341 H 0.66765 0.57868 0.21322 0.0
H342 H 0.63052 0.61051 0.20705 0.0
H343 H 0.62594 0.66687 0.17577 0.0
H344 H 0.72738 0.77434 0.10722 0.0
H345 H 0.76647 0.74345 0.11659 0.0
C346 C 0.74048 0.66863 0.15586 0.0
C347 C 0.72223 0.62911 0.1761 0.0
C348 C 0.71874 0.68723 0.15195 0.0
C349 C 0.68255 0.60898 0.19609 0.0
C350 C 0.6611 0.62711 0.19264 0.0
C351 C 0.6566 0.68365 0.16231 0.0
C352 C 0.67362 0.7227 0.13952 0.0
C353 C 0.67871 0.66597 0.16921 0.0
C354 C 0.71351 0.74409 0.12429 0.0
C355 C 0.73587 0.72645 0.12982 0.0
H356 H 0.98021 0.7012 0.11893 0.0
H357 H 0.92592 0.6717 0.41589 0.0
H358 H 0.98883 0.70451 0.49919 0.0
H359 H 0.05942 0.74453 0.48667 0.0
H360 H 0.11365 0.77069 0.18944 0.0
H361 H 0.05083 0.73621 0.10644 0.0
C362 C 0.98231 0.70186 0.20185 0.0
C363 C 0.9486 0.68442 0.26145 0.0
C364 C 1.01854 0.72029 0.24876 0.0
C365 C 0.95153 0.68483 0.36873 0.0
C366 C 0.98745 0.70376 0.41616 0.0
C367 C 0.05732 0.74249 0.40378 0.0
C368 C 0.09098 0.7604 0.34396 0.0
C369 C 1.02114 0.72205 0.35694 0.0
C370 C 0.0881 0.75705 0.23673 0.0
C371 C 0.05222 0.7375 0.18945 0.0
H372 H 0.4873 0.31246 0.39696 0.0
H373 H 0.57319 0.29674 0.5483 0.0
H374 H 0.62381 0.35471 0.46806 0.0
H375 H 0.64354 0.40534 0.33999 0.0
H376 H 0.55766 0.42055 0.18625 0.0
H377 H 0.50734 0.36695 0.28081 0.0
C378 C 0.51707 0.32229 0.41454 0.0
C379 C 0.52644 0.30029 0.47841 0.0
C380 C 0.54612 0.355 0.3655 0.0
C381 C 0.5652 0.31315 0.49934 0.0
C382 C 0.59419 0.34615 0.45284 0.0
C383 C 0.61394 0.39746 0.32811 0.0
C384 C 0.60466 0.41685 0.25449 0.0
C385 C 0.58499 0.3666 0.38322 0.0
C386 C 0.56587 0.40573 0.24015 0.0
C387 C 0.53695 0.37521 0.29507 0.0
H388 H 0.23834 0.60282 0.6087 0.0
H389 H 0.14891 0.59921 0.8006 0.0
H390 H 0.15206 0.65245 0.70615 0.0
H391 H 0.18461 0.70424 0.57945 0.0
H392 H 0.27473 0.70805 0.39136 0.0
H393 H 0.26558 0.64947 0.47064 0.0
C394 C 0.21895 0.61299 0.6292 0.0
C395 C 0.19389 0.59705 0.7134 0.0
C396 C 0.2207 0.64356 0.57407 0.0
C397 C 0.16929 0.61129 0.73828 0.0
C398 C 0.17076 0.64163 0.68348 0.0
C399 C 0.20125 0.69142 0.55355 0.0
C400 C 0.23013 0.7102 0.47946 0.0
C401 C 0.19689 0.65851 0.6025 0.0
C402 C 0.25217 0.69388 0.448 0.0
C403 C 0.24723 0.66064 0.49405 0.0
H404 H 0.72936 0.26343 0.77703 0.0
H405 H 0.71052 0.14855 0.79026 0.0
H406 H 0.64529 0.12339 0.72731 0.0
H407 H 0.59504 0.13442 0.65709 0.0
H408 H 0.61471 0.24946 0.64172 0.0
H409 H 0.67794 0.27402 0.71743 0.0
C410 C 0.71088 0.23282 0.7675 0.0
C411 C 0.72503 0.20799 0.78781 0.0
C412 C 0.67356 0.21856 0.72996 0.0
C413 C 0.7005 0.16839 0.77517 0.0
C414 C 0.6632 0.15396 0.7386 0.0
C415 C 0.61321 0.16485 0.67024 0.0
C416 C 0.60017 0.19004 0.64309 0.0
C417 C 0.64972 0.17884 0.71357 0.0
C418 C 0.62381 0.22936 0.6625 0.0
C419 C 0.66011 0.24348 0.70538 0.0
H420 H 0.45048 0.56832 -0.00706 0.0
H421 H 0.43611 0.66712 -0.00452 0.0
H422 H 0.37443 0.63043 0.90992 0.0
H423 H 0.3225 0.56925 0.84643 0.0
H424 H 0.33565 0.46963 0.84698 0.0
H425 H 0.39998 0.50776 0.91828 0.0
C426 C 0.43382 0.58179 -0.02511 0.0
C427 C 0.44784 0.62039 0.00154 0.0
C428 C 0.39816 0.56038 0.92609 0.0
C429 C 0.42621 0.6376 -0.02452 0.0
C430 C 0.39081 0.61656 0.92692 0.0
C431 C 0.33957 0.55588 0.86076 0.0
C432 C 0.32404 0.51649 0.84193 0.0
C433 C 0.37625 0.5778 0.90332 0.0
C434 C 0.34677 0.49984 0.86066 0.0
C435 C 0.38351 0.5216 0.90211 0.0
H436 H 0.8586 0.53049 0.0352 0.0
H437 H 0.76208 0.44248 0.20126 0.0
H438 H 0.77395 0.39378 0.1273 0.0
H439 H 0.80658 0.37553 0.00025 0.0
H440 H 0.90287 0.46309 0.83142 0.0
H441 H 0.89575 0.51232 0.92008 0.0
C442 C 0.84095 0.50078 0.05741 0.0
C443 C 0.80957 0.49008 0.12364 0.0
C444 C 0.84716 0.47265 0.01181 0.0
C445 C 0.78645 0.45139 0.15041 0.0
C446 C 0.79302 0.42349 0.10752 0.0
C447 C 0.82654 0.40529 -0.01634 0.0
C448 C 0.85484 0.41515 0.90743 0.0
C449 C 0.82247 0.43364 0.03548 0.0
C450 C 0.88012 0.45421 0.88742 0.0
C451 C 0.87633 0.4826 0.93895 0.0
H452 H 0.4831 0.75423 0.18178 0.0
H453 H 0.57914 0.86916 0.20614 0.0
H454 H 0.53749 0.89049 0.28223 0.0
H455 H 0.4746 0.87548 0.35275 0.0
H456 H 0.3794 0.76015 0.33171 0.0
H457 H 0.41991 0.74006 0.24338 0.0
C458 C 0.49491 0.7841 0.20226 0.0
C459 C 0.5343 0.80998 0.18861 0.0
C460 C 0.47099 0.79601 0.24783 0.0
C461 C 0.54897 0.84857 0.21572 0.0
C462 C 0.5252 0.86076 0.25992 0.0
C463 C 0.46282 0.84594 0.32924 0.0
C464 C 0.42407 0.81931 0.34955 0.0
C465 C 0.48636 0.83454 0.27856 0.0
C466 C 0.40902 0.78128 0.31658 0.0
C467 C 0.43221 0.76973 0.2663 0.0
loop_
_geom_bond_atom_site_label_1
_geom_bond_atom_site_label_2
_geom_bond_distance
_geom_bond_site_symmetry_2
_ccdc_geom_bond_type
Co0 N5 2.057 . S
Co0 O17 2.021 . S
Co0 O20 2.062 . S
Co0 O24 2.117 . S
Co0 O25 2.020 . S
C1 O21 1.259 . S
C1 O24 1.258 . S
Co2 N11 2.057 . S
Co2 O18 2.117 . S
Co2 O19 2.020 . S
Co2 O21 2.021 . S
Co2 O26 2.062 . S
C3 N5 1.316 . S
C3 N6 1.347 . S
C3 H8 0.931 . S
C4 N5 1.375 . S
C4 C7 1.350 . S
C4 H9 0.930 . S
N5 Co0 2.057 . S
N5 C3 1.316 . S
N5 C4 1.375 . S
N6 C3 1.347 . S
N6 C7 1.373 . S
C7 C4 1.350 . S
C7 N6 1.373 . S
C7 H28 0.931 . S
H8 C3 0.931 . S
H9 C4 0.930 . S
C10 O17 1.259 . S
C10 O18 1.258 . S
N11 Co2 2.057 . S
N11 C12 1.316 . S
N11 C13 1.375 . S
C12 N11 1.316 . S
C12 N14 1.347 . S
C12 H23 0.931 . S
C13 N11 1.375 . S
C13 C15 1.350 . S
C13 H22 0.930 . S
N14 C12 1.347 . S
N14 C15 1.373 . S
C15 C13 1.350 . S
C15 N14 1.373 . S
C15 H29 0.931 . S
C16 O19 1.256 . S
C16 O20 1.255 . S
O17 Co0 2.021 . S
O17 C10 1.259 . S
O18 Co2 2.117 . S
O18 C10 1.258 . S
O19 Co2 2.020 . S
O19 C16 1.256 . S
O20 Co0 2.062 . S
O20 C16 1.255 . S
O21 C1 1.259 . S
O21 Co2 2.021 . S
H22 C13 0.930 . S
H23 C12 0.931 . S
O24 Co0 2.117 . S
O24 C1 1.258 . S
O25 Co0 2.020 . S
O25 C27 1.256 . S
O26 Co2 2.062 . S
O26 C27 1.255 . S
C27 O25 1.256 . S
C27 O26 1.255 . S
H28 C7 0.931 . S
H29 C15 0.931 . S
Co30 N35 2.057 . S
Co30 O47 2.021 . S
Co30 O50 2.062 . S
Co30 O54 2.117 . S
Co30 O55 2.020 . S
C31 O51 1.259 . S
C31 O54 1.258 . S
Co32 N41 2.057 . S
Co32 O48 2.117 . S
Co32 O49 2.020 . S
Co32 O51 2.021 . S
Co32 O56 2.062 . S
C33 N35 1.316 . S
C33 N36 1.347 . S
C33 H38 0.931 . S
C34 N35 1.375 . S
C34 C37 1.350 . S
C34 H39 0.930 . S
N35 Co30 2.057 . S
N35 C33 1.316 . S
N35 C34 1.375 . S
N36 C33 1.347 . S
N36 C37 1.373 . S
C37 C34 1.350 . S
C37 N36 1.373 . S
C37 H58 0.931 . S
H38 C33 0.931 . S
H39 C34 0.930 . S
C40 O47 1.259 . S
C40 O48 1.258 . S
N41 Co32 2.057 . S
N41 C42 1.316 . S
N41 C43 1.375 . S
C42 N41 1.316 . S
C42 N44 1.347 . S
C42 H53 0.931 . S
C43 N41 1.375 . S
C43 C45 1.350 . S
C43 H52 0.930 . S
N44 C42 1.347 . S
N44 C45 1.373 . S
C45 C43 1.350 . S
C45 N44 1.373 . S
C45 H59 0.931 . S
C46 O49 1.256 . S
C46 O50 1.255 . S
O47 Co30 2.021 . S
O47 C40 1.259 . S
O48 Co32 2.117 . S
O48 C40 1.258 . S
O49 Co32 2.020 . S
O49 C46 1.256 . S
O50 Co30 2.062 . S
O50 C46 1.255 . S
O51 C31 1.259 . S
O51 Co32 2.021 . S
H52 C43 0.930 . S
H53 C42 0.931 . S
O54 Co30 2.117 . S
O54 C31 1.258 . S
O55 Co30 2.020 . S
O55 C57 1.256 . S
O56 Co32 2.062 . S
O56 C57 1.255 . S
C57 O55 1.256 . S
C57 O56 1.255 . S
H58 C37 0.931 . S
H59 C45 0.931 . S
Co60 N65 2.057 . S
Co60 O77 2.021 . S
Co60 O80 2.062 . S
Co60 O84 2.117 . S
Co60 O85 2.020 1_556 S
C61 O81 1.259 . S
C61 O84 1.258 . S
Co62 N71 2.057 . S
Co62 O78 2.117 . S
Co62 O79 2.020 . S
Co62 O81 2.021 . S
Co62 O86 2.062 1_556 S
C63 N65 1.316 . S
C63 N66 1.347 . S
C63 H68 0.931 . S
C64 N65 1.375 . S
C64 C67 1.350 . S
C64 H69 0.930 . S
N65 Co60 2.057 . S
N65 C63 1.316 . S
N65 C64 1.375 . S
N66 C63 1.347 . S
N66 C67 1.373 . S
C67 C64 1.350 . S
C67 N66 1.373 . S
C67 H88 0.931 . S
H68 C63 0.931 . S
H69 C64 0.930 . S
C70 O77 1.259 . S
C70 O78 1.258 . S
N71 Co62 2.057 . S
N71 C72 1.316 1_556 S
N71 C73 1.375 . S
C72 N71 1.316 1_554 S
C72 N74 1.347 . S
C72 H83 0.931 . S
C73 N71 1.375 . S
C73 C75 1.350 1_556 S
C73 H82 0.930 . S
N74 C72 1.347 . S
N74 C75 1.373 . S
C75 C73 1.350 1_554 S
C75 N74 1.373 . S
C75 H89 0.931 . S
C76 O79 1.256 . S
C76 O80 1.255 . S
O77 Co60 2.021 . S
O77 C70 1.259 . S
O78 Co62 2.117 . S
O78 C70 1.258 . S
O79 Co62 2.020 . S
O79 C76 1.256 . S
O80 Co60 2.062 . S
O80 C76 1.255 . S
O81 C61 1.259 . S
O81 Co62 2.021 . S
H82 C73 0.930 . S
H83 C72 0.931 . S
O84 Co60 2.117 . S
O84 C61 1.258 . S
O85 Co60 2.020 1_554 S
O85 C87 1.256 . S
O86 Co62 2.062 1_554 S
O86 C87 1.255 . S
C87 O85 1.256 . S
C87 O86 1.255 . S
H88 C67 0.931 . S
H89 C75 0.931 . S
Co90 N95 2.057 . S
Co90 O107 2.021 . S
Co90 O110 2.062 . S
Co90 O114 2.117 . S
Co90 O115 2.020 1_554 S
C91 O111 1.259 . S
C91 O114 1.258 . S
Co92 N101 2.057 . S
Co92 O108 2.117 . S
Co92 O109 2.020 . S
Co92 O111 2.021 . S
Co92 O116 2.062 1_554 S
C93 N95 1.316 . S
C93 N96 1.347 . S
C93 H98 0.931 . S
C94 N95 1.375 . S
C94 C97 1.350 . S
C94 H99 0.930 . S
N95 Co90 2.057 . S
N95 C93 1.316 . S
N95 C94 1.375 . S
N96 C93 1.347 . S
N96 C97 1.373 . S
C97 C94 1.350 . S
C97 N96 1.373 . S
C97 H118 0.931 . S
H98 C93 0.931 . S
H99 C94 0.930 . S
C100 O107 1.259 . S
C100 O108 1.258 . S
N101 Co92 2.057 . S
N101 C102 1.316 . S
N101 C103 1.375 . S
C102 N101 1.316 . S
C102 N104 1.347 1_554 S
C102 H113 0.930 . S
C103 N101 1.375 . S
C103 C105 1.350 . S
C103 H112 0.930 . S
N104 C102 1.347 1_556 S
N104 C105 1.373 1_556 S
C105 C103 1.350 . S
C105 N104 1.373 1_554 S
C105 H119 0.931 . S
C106 O109 1.256 . S
C106 O110 1.255 . S
O107 Co90 2.021 . S
O107 C100 1.259 . S
O108 Co92 2.117 . S
O108 C100 1.258 . S
O109 Co92 2.020 . S
O109 C106 1.256 . S
O110 Co90 2.062 . S
O110 C106 1.255 . S
O111 C91 1.259 . S
O111 Co92 2.021 . S
H112 C103 0.930 . S
H113 C102 0.930 . S
O114 Co90 2.117 . S
O114 C91 1.258 . S
O115 Co90 2.020 1_556 S
O115 C117 1.256 . S
O116 Co92 2.062 1_556 S
O116 C117 1.255 . S
C117 O115 1.256 . S
C117 O116 1.255 . S
H118 C97 0.931 . S
H119 C105 0.931 . S
Co120 N125 2.057 . S
Co120 O137 2.021 . S
Co120 O140 2.062 . S
Co120 O144 2.117 . S
Co120 O145 2.020 . S
C121 O141 1.259 . S
C121 O144 1.258 . S
Co122 N131 2.057 . S
Co122 O138 2.117 . S
Co122 O139 2.020 . S
Co122 O141 2.021 . S
Co122 O146 2.062 . S
C123 N125 1.316 . S
C123 N126 1.347 . S
C123 H128 0.931 . S
C124 N125 1.375 . S
C124 C127 1.350 . S
C124 H129 0.930 . S
N125 Co120 2.057 . S
N125 C123 1.316 . S
N125 C124 1.375 . S
N126 C123 1.347 . S
N126 C127 1.373 . S
C127 C124 1.350 . S
C127 N126 1.373 . S
C127 H148 0.931 . S
H128 C123 0.931 . S
H129 C124 0.930 . S
C130 O137 1.259 . S
C130 O138 1.258 . S
N131 Co122 2.057 . S
N131 C132 1.316 . S
N131 C133 1.375 . S
C132 N131 1.316 . S
C132 N134 1.347 . S
C132 H143 0.931 . S
C133 N131 1.375 . S
C133 C135 1.350 . S
C133 H142 0.930 . S
N134 C132 1.347 . S
N134 C135 1.373 . S
C135 C133 1.350 . S
C135 N134 1.373 . S
C135 H149 0.931 . S
C136 O139 1.256 . S
C136 O140 1.255 . S
O137 Co120 2.021 . S
O137 C130 1.259 . S
O138 Co122 2.117 . S
O138 C130 1.258 . S
O139 Co122 2.020 . S
O139 C136 1.256 . S
O140 Co120 2.062 . S
O140 C136 1.255 . S
O141 C121 1.259 . S
O141 Co122 2.021 . S
H142 C133 0.930 . S
H143 C132 0.931 . S
O144 Co120 2.117 . S
O144 C121 1.258 . S
O145 Co120 2.020 . S
O145 C147 1.256 . S
O146 Co122 2.062 . S
O146 C147 1.255 . S
C147 O145 1.256 . S
C147 O146 1.255 . S
H148 C127 0.931 . S
H149 C135 0.931 . S
Co150 N155 2.057 . S
Co150 O167 2.021 . S
Co150 O170 2.062 . S
Co150 O174 2.117 . S
Co150 O175 2.020 . S
C151 O171 1.259 . S
C151 O174 1.258 . S
Co152 N161 2.057 . S
Co152 O168 2.117 . S
Co152 O169 2.020 . S
Co152 O171 2.021 . S
Co152 O176 2.062 . S
C153 N155 1.316 . S
C153 N156 1.347 . S
C153 H158 0.931 . S
C154 N155 1.375 . S
C154 C157 1.350 . S
C154 H159 0.930 . S
N155 Co150 2.057 . S
N155 C153 1.316 . S
N155 C154 1.375 . S
N156 C153 1.347 . S
N156 C157 1.373 . S
C157 C154 1.350 . S
C157 N156 1.373 . S
C157 H178 0.931 . S
H158 C153 0.931 . S
H159 C154 0.930 . S
C160 O167 1.259 . S
C160 O168 1.258 . S
N161 Co152 2.057 . S
N161 C162 1.316 . S
N161 C163 1.375 . S
C162 N161 1.316 . S
C162 N164 1.347 . S
C162 H173 0.931 . S
C163 N161 1.375 . S
C163 C165 1.350 . S
C163 H172 0.930 . S
N164 C162 1.347 . S
N164 C165 1.373 . S
C165 C163 1.350 . S
C165 N164 1.373 . S
C165 H179 0.931 . S
C166 O169 1.256 . S
C166 O170 1.255 . S
O167 Co150 2.021 . S
O167 C160 1.259 . S
O168 Co152 2.117 . S
O168 C160 1.258 . S
O169 Co152 2.020 . S
O169 C166 1.256 . S
O170 Co150 2.062 . S
O170 C166 1.255 . S
O171 C151 1.259 . S
O171 Co152 2.021 . S
H172 C163 0.930 . S
H173 C162 0.931 . S
O174 Co150 2.117 . S
O174 C151 1.258 . S
O175 Co150 2.020 . S
O175 C177 1.256 . S
O176 Co152 2.062 . S
O176 C177 1.255 . S
C177 O175 1.256 . S
C177 O176 1.255 . S
H178 C157 0.931 . S
H179 C165 0.931 . S
H180 C186 0.930 . S
H181 C189 0.930 . S
H182 C190 0.930 . S
H183 C191 0.930 1_556 S
H184 C194 0.930 . S
H185 C195 0.930 . S
C186 H180 0.930 . S
C186 C187 1.355 . S
C186 C188 1.415 . S
C187 C186 1.355 . S
C187 C189 1.419 . S
C188 C186 1.415 . S
C188 C193 1.425 . S
C188 C195 1.409 . S
C189 H181 0.930 . S
C189 C187 1.419 . S
C189 C190 1.362 . S
C190 H182 0.930 . S
C190 C189 1.362 . S
C190 C193 1.409 . S
C191 H183 0.930 1_554 S
C191 C192 1.355 1_554 S
C191 C193 1.415 . S
C192 C191 1.355 1_556 S
C192 C194 1.419 . S
C193 C188 1.425 . S
C193 C190 1.409 . S
C193 C191 1.415 . S
C194 H184 0.930 . S
C194 C192 1.419 . S
C194 C195 1.362 1_556 S
C195 H185 0.930 . S
C195 C188 1.409 . S
C195 C194 1.362 1_554 S
H196 C202 0.930 . S
H197 C205 0.930 . S
H198 C206 0.930 . S
H199 C207 0.930 . S
H200 C210 0.930 1_556 S
H201 C211 0.930 . S
C202 H196 0.930 . S
C202 C203 1.355 . S
C202 C204 1.415 . S
C203 C202 1.355 . S
C203 C205 1.419 . S
C204 C202 1.415 . S
C204 C209 1.425 . S
C204 C211 1.409 . S
C205 H197 0.930 . S
C205 C203 1.419 . S
C205 C206 1.362 . S
C206 H198 0.930 . S
C206 C205 1.362 . S
C206 C209 1.409 . S
C207 H199 0.930 . S
C207 C208 1.355 . S
C207 C209 1.415 . S
C208 C207 1.355 . S
C208 C210 1.419 . S
C209 C204 1.425 . S
C209 C206 1.409 . S
C209 C207 1.415 . S
C210 H200 0.930 1_554 S
C210 C208 1.419 . S
C210 C211 1.362 . S
C211 H201 0.930 . S
C211 C204 1.409 . S
C211 C210 1.362 . S
H212 C218 0.930 . S
H213 C221 0.930 . S
H214 C222 0.930 . S
H215 C223 0.930 . S
H216 C226 0.930 . S
H217 C227 0.930 . S
C218 H212 0.930 . S
C218 C219 1.355 . S
C218 C220 1.415 . S
C219 C218 1.355 . S
C219 C221 1.419 . S
C220 C218 1.415 . S
C220 C225 1.425 . S
C220 C227 1.409 . S
C221 H213 0.930 . S
C221 C219 1.419 . S
C221 C222 1.362 . S
C222 H214 0.930 . S
C222 C221 1.362 . S
C222 C225 1.409 . S
C223 H215 0.930 . S
C223 C224 1.355 . S
C223 C225 1.415 . S
C224 C223 1.355 . S
C224 C226 1.419 . S
C225 C220 1.425 . S
C225 C222 1.409 . S
C225 C223 1.415 . S
C226 H216 0.930 . S
C226 C224 1.419 . S
C226 C227 1.362 . S
C227 H217 0.930 . S
C227 C220 1.409 . S
C227 C226 1.362 . S
H228 C234 0.930 . S
H229 C237 0.930 . S
H230 C238 0.930 . S
H231 C239 0.930 . S
H232 C242 0.930 . S
H233 C243 0.930 . S
C234 H228 0.930 . S
C234 C235 1.355 . S
C234 C236 1.415 . S
C235 C234 1.355 . S
C235 C237 1.419 . S
C236 C234 1.415 . S
C236 C241 1.425 . S
C236 C243 1.409 . S
C237 H229 0.930 . S
C237 C235 1.419 . S
C237 C238 1.362 . S
C238 H230 0.930 . S
C238 C237 1.362 . S
C238 C241 1.409 . S
C239 H231 0.930 . S
C239 C240 1.355 . S
C239 C241 1.415 . S
C240 C239 1.355 . S
C240 C242 1.419 . S
C241 C236 1.425 . S
C241 C238 1.409 . S
C241 C239 1.415 . S
C242 H232 0.930 . S
C242 C240 1.419 . S
C242 C243 1.362 . S
C243 H233 0.930 . S
C243 C236 1.409 . S
C243 C242 1.362 . S
H244 C250 0.930 . S
H245 C253 0.930 . S
H246 C254 0.930 . S
H247 C255 0.930 . S
H248 C258 0.930 1_554 S
H249 C259 0.930 . S
C250 H244 0.930 . S
C250 C251 1.355 . S
C250 C252 1.415 . S
C251 C250 1.355 . S
C251 C253 1.419 . S
C252 C250 1.415 . S
C252 C257 1.425 . S
C252 C259 1.409 . S
C253 H245 0.930 . S
C253 C251 1.419 . S
C253 C254 1.362 . S
C254 H246 0.930 . S
C254 C253 1.362 . S
C254 C257 1.409 . S
C255 H247 0.930 . S
C255 C256 1.355 1_556 S
C255 C257 1.415 . S
C256 C255 1.355 1_554 S
C256 C258 1.419 1_554 S
C257 C252 1.425 . S
C257 C254 1.409 . S
C257 C255 1.415 . S
C258 H248 0.930 1_556 S
C258 C256 1.419 1_556 S
C258 C259 1.362 . S
C259 H249 0.930 . S
C259 C252 1.409 . S
C259 C258 1.362 . S
H260 C266 0.930 . S
H261 C269 0.930 . S
H262 C270 0.930 . S
H263 C271 0.930 . S
H264 C274 0.930 . S
H265 C275 0.930 . S
C266 H260 0.930 . S
C266 C267 1.355 . S
C266 C268 1.415 1_554 S
C267 C266 1.355 . S
C267 C269 1.419 . S
C268 C266 1.415 1_556 S
C268 C273 1.425 . S
C268 C275 1.409 . S
C269 H261 0.930 . S
C269 C267 1.419 . S
C269 C270 1.362 1_554 S
C270 H262 0.930 . S
C270 C269 1.362 1_556 S
C270 C273 1.409 . S
C271 H263 0.930 . S
C271 C272 1.355 . S
C271 C273 1.415 . S
C272 C271 1.355 . S
C272 C274 1.419 . S
C273 C268 1.425 . S
C273 C270 1.409 . S
C273 C271 1.415 . S
C274 H264 0.930 . S
C274 C272 1.419 . S
C274 C275 1.362 . S
C275 H265 0.930 . S
C275 C268 1.409 . S
C275 C274 1.362 . S
H276 C282 0.930 . S
H277 C285 0.930 . S
H278 C286 0.930 . S
H279 C287 0.930 . S
H280 C290 0.930 . S
H281 C291 0.930 . S
C282 H276 0.930 . S
C282 C283 1.355 . S
C282 C284 1.415 1_545 S
C283 C282 1.355 . S
C283 C285 1.419 . S
C284 C282 1.415 1_565 S
C284 C289 1.425 . S
C284 C291 1.409 . S
C285 H277 0.930 . S
C285 C283 1.419 . S
C285 C286 1.362 1_545 S
C286 H278 0.930 . S
C286 C285 1.362 1_565 S
C286 C289 1.409 . S
C287 H279 0.930 . S
C287 C288 1.355 . S
C287 C289 1.415 . S
C288 C287 1.355 . S
C288 C290 1.419 . S
C289 C284 1.425 . S
C289 C286 1.409 . S
C289 C287 1.415 . S
C290 H280 0.930 . S
C290 C288 1.419 . S
C290 C291 1.362 . S
C291 H281 0.930 . S
C291 C284 1.409 . S
C291 C290 1.362 . S
H292 C298 0.930 . S
H293 C301 0.930 . S
H294 C302 0.930 . S
H295 C303 0.930 . S
H296 C306 0.930 . S
H297 C307 0.930 . S
C298 H292 0.930 . S
C298 C299 1.355 . S
C298 C300 1.415 . S
C299 C298 1.355 . S
C299 C301 1.419 . S
C300 C298 1.415 . S
C300 C305 1.425 . S
C300 C307 1.409 . S
C301 H293 0.930 . S
C301 C299 1.419 . S
C301 C302 1.362 . S
C302 H294 0.930 . S
C302 C301 1.362 . S
C302 C305 1.409 . S
C303 H295 0.930 . S
C303 C304 1.355 . S
C303 C305 1.415 . S
C304 C303 1.355 . S
C304 C306 1.419 . S
C305 C300 1.425 . S
C305 C302 1.409 . S
C305 C303 1.415 . S
C306 H296 0.930 . S
C306 C304 1.419 . S
C306 C307 1.362 . S
C307 H297 0.930 . S
C307 C300 1.409 . S
C307 C306 1.362 . S
H308 C314 0.930 . S
H309 C317 0.930 . S
H310 C318 0.935 1_554 S
H311 C319 0.930 . S
H312 C322 0.930 . S
H313 C323 0.930 . S
C314 H308 0.930 . S
C314 C315 1.355 . S
C314 C316 1.415 . S
C315 C314 1.355 . S
C315 C317 1.419 1_556 S
C316 C314 1.415 . S
C316 C321 1.425 . S
C316 C323 1.409 . S
C317 H309 0.930 . S
C317 C315 1.419 1_554 S
C317 C318 1.362 1_554 S
C318 H310 0.935 1_556 S
C318 C317 1.362 1_556 S
C318 C321 1.409 . S
C319 H311 0.930 . S
C319 C320 1.355 . S
C319 C321 1.415 1_455 S
C320 C319 1.355 . S
C320 C322 1.419 . S
C321 C316 1.425 . S
C321 C318 1.409 . S
C321 C319 1.415 1_655 S
C322 H312 0.930 . S
C322 C320 1.419 . S
C322 C323 1.362 1_455 S
C323 H313 0.930 . S
C323 C316 1.409 . S
C323 C322 1.362 1_655 S
H324 C330 0.930 . S
H325 C333 0.930 . S
H326 C334 0.930 . S
H327 C335 0.930 . S
H328 C338 0.930 . S
H329 C339 0.930 . S
C330 H324 0.930 . S
C330 C331 1.355 . S
C330 C332 1.415 . S
C331 C330 1.355 . S
C331 C333 1.419 . S
C332 C330 1.415 . S
C332 C337 1.425 . S
C332 C339 1.409 1_554 S
C333 H325 0.930 . S
C333 C331 1.419 . S
C333 C334 1.362 . S
C334 H326 0.930 . S
C334 C333 1.362 . S
C334 C337 1.409 . S
C335 H327 0.930 . S
C335 C336 1.355 . S
C335 C337 1.415 1_546 S
C336 C335 1.355 . S
C336 C338 1.419 . S
C337 C332 1.425 . S
C337 C334 1.409 . S
C337 C335 1.415 1_564 S
C338 H328 0.930 . S
C338 C336 1.419 . S
C338 C339 1.362 1_545 S
C339 H329 0.930 . S
C339 C332 1.409 1_556 S
C339 C338 1.362 1_565 S
H340 C346 0.930 . S
H341 C349 0.930 . S
H342 C350 0.930 . S
H343 C351 0.930 . S
H344 C354 0.930 . S
H345 C355 0.930 1_556 S
C346 H340 0.930 . S
C346 C347 1.355 . S
C346 C348 1.415 . S
C347 C346 1.355 . S
C347 C349 1.419 . S
C348 C346 1.415 . S
C348 C353 1.425 . S
C348 C355 1.409 . S
C349 H341 0.930 . S
C349 C347 1.419 . S
C349 C350 1.362 . S
C350 H342 0.930 . S
C350 C349 1.362 . S
C350 C353 1.409 . S
C351 H343 0.930 . S
C351 C352 1.355 . S
C351 C353 1.415 . S
C352 C351 1.355 . S
C352 C354 1.419 1_554 S
C353 C348 1.425 . S
C353 C350 1.409 . S
C353 C351 1.415 . S
C354 H344 0.930 . S
C354 C352 1.419 1_556 S
C354 C355 1.362 1_556 S
C355 H345 0.930 1_554 S
C355 C348 1.409 . S
C355 C354 1.362 1_554 S
H356 C362 0.930 . S
H357 C365 0.930 . S
H358 C366 0.930 . S
H359 C367 0.930 . S
H360 C370 0.930 . S
H361 C371 0.930 1_655 S
C362 H356 0.930 . S
C362 C363 1.355 . S
C362 C364 1.415 . S
C363 C362 1.355 . S
C363 C365 1.419 . S
C364 C362 1.415 . S
C364 C369 1.425 . S
C364 C371 1.409 1_655 S
C365 H357 0.930 . S
C365 C363 1.419 . S
C365 C366 1.362 . S
C366 H358 0.930 . S
C366 C365 1.362 . S
C366 C369 1.409 . S
C367 H359 0.930 . S
C367 C368 1.355 . S
C367 C369 1.415 1_455 S
C368 C367 1.355 . S
C368 C370 1.419 . S
C369 C364 1.425 . S
C369 C366 1.409 . S
C369 C367 1.415 1_655 S
C370 H360 0.930 . S
C370 C368 1.419 . S
C370 C371 1.362 . S
C371 H361 0.930 1_455 S
C371 C364 1.409 1_455 S
C371 C370 1.362 . S
H372 C378 0.930 . S
H373 C381 0.930 . S
H374 C382 0.930 . S
H375 C383 0.930 . S
H376 C386 0.930 . S
H377 C387 0.930 . S
C378 H372 0.930 . S
C378 C379 1.355 . S
C378 C380 1.415 . S
C379 C378 1.355 . S
C379 C381 1.419 . S
C380 C378 1.415 . S
C380 C385 1.425 . S
C380 C387 1.409 . S
C381 H373 0.930 . S
C381 C379 1.419 . S
C381 C382 1.362 . S
C382 H374 0.930 . S
C382 C381 1.362 . S
C382 C385 1.409 . S
C383 H375 0.930 . S
C383 C384 1.355 . S
C383 C385 1.415 . S
C384 C383 1.355 . S
C384 C386 1.419 . S
C385 C380 1.425 . S
C385 C382 1.409 . S
C385 C383 1.415 . S
C386 H376 0.930 . S
C386 C384 1.419 . S
C386 C387 1.362 . S
C387 H377 0.930 . S
C387 C380 1.409 . S
C387 C386 1.362 . S
H388 C394 0.930 . S
H389 C397 0.930 . S
H390 C398 0.930 . S
H391 C399 0.930 . S
H392 C402 0.930 . S
H393 C403 0.930 . S
C394 H388 0.930 . S
C394 C395 1.355 . S
C394 C396 1.415 . S
C395 C394 1.355 . S
C395 C397 1.419 . S
C396 C394 1.415 . S
C396 C401 1.425 . S
C396 C403 1.409 . S
C397 H389 0.930 . S
C397 C395 1.419 . S
C397 C398 1.362 . S
C398 H390 0.930 . S
C398 C397 1.362 . S
C398 C401 1.409 . S
C399 H391 0.930 . S
C399 C400 1.355 . S
C399 C401 1.415 . S
C400 C399 1.355 . S
C400 C402 1.419 . S
C401 C396 1.425 . S
C401 C398 1.409 . S
C401 C399 1.415 . S
C402 H392 0.930 . S
C402 C400 1.419 . S
C402 C403 1.362 . S
C403 H393 0.930 . S
C403 C396 1.409 . S
C403 C402 1.362 . S
H404 C410 0.930 . S
H405 C413 0.930 . S
H406 C414 0.930 . S
H407 C415 0.930 . S
H408 C418 0.930 . S
H409 C419 0.930 . S
C410 H404 0.930 . S
C410 C411 1.355 . S
C410 C412 1.415 . S
C411 C410 1.355 . S
C411 C413 1.419 . S
C412 C410 1.415 . S
C412 C417 1.425 . S
C412 C419 1.409 . S
C413 H405 0.930 . S
C413 C411 1.419 . S
C413 C414 1.362 . S
C414 H406 0.930 . S
C414 C413 1.362 . S
C414 C417 1.409 . S
C415 H407 0.930 . S
C415 C416 1.355 . S
C415 C417 1.415 . S
C416 C415 1.355 . S
C416 C418 1.419 . S
C417 C412 1.425 . S
C417 C414 1.409 . S
C417 C415 1.415 . S
C418 H408 0.930 . S
C418 C416 1.419 . S
C418 C419 1.362 . S
C419 H409 0.930 . S
C419 C412 1.409 . S
C419 C418 1.362 . S
H420 C426 0.930 1_554 S
H421 C429 0.930 . S
H422 C430 0.930 . S
H423 C431 0.930 . S
H424 C434 0.930 . S
H425 C435 0.930 1_554 S
C426 H420 0.930 1_556 S
C426 C427 1.355 . S
C426 C428 1.415 . S
C427 C426 1.355 . S
C427 C429 1.419 . S
C428 C426 1.415 . S
C428 C433 1.425 . S
C428 C435 1.409 . S
C429 H421 0.930 . S
C429 C427 1.419 . S
C429 C430 1.362 . S
C430 H422 0.930 . S
C430 C429 1.362 . S
C430 C433 1.409 . S
C431 H423 0.930 . S
C431 C432 1.355 . S
C431 C433 1.415 . S
C432 C431 1.355 . S
C432 C434 1.419 . S
C433 C428 1.425 . S
C433 C430 1.409 . S
C433 C431 1.415 . S
C434 H424 0.930 . S
C434 C432 1.419 . S
C434 C435 1.362 . S
C435 H425 0.930 1_556 S
C435 C428 1.409 . S
C435 C434 1.362 . S
H436 C442 0.930 . S
H437 C445 0.930 . S
H438 C446 0.930 . S
H439 C447 0.930 . S
H440 C450 0.930 . S
H441 C451 0.930 1_556 S
C442 H436 0.930 . S
C442 C443 1.355 . S
C442 C444 1.415 . S
C443 C442 1.355 . S
C443 C445 1.419 . S
C444 C442 1.415 . S
C444 C449 1.425 . S
C444 C451 1.409 . S
C445 H437 0.930 . S
C445 C443 1.419 . S
C445 C446 1.362 . S
C446 H438 0.930 . S
C446 C445 1.362 . S
C446 C449 1.409 . S
C447 H439 0.930 . S
C447 C448 1.355 . S
C447 C449 1.415 . S
C448 C447 1.355 . S
C448 C450 1.419 1_554 S
C449 C444 1.425 . S
C449 C446 1.409 . S
C449 C447 1.415 . S
C450 H440 0.930 . S
C450 C448 1.419 1_556 S
C450 C451 1.362 1_556 S
C451 H441 0.930 1_554 S
C451 C444 1.409 . S
C451 C450 1.362 1_554 S
H452 C458 0.930 . S
H453 C461 0.930 . S
H454 C462 0.930 . S
H455 C463 0.930 . S
H456 C466 0.930 . S
H457 C467 0.930 . S
C458 H452 0.930 . S
C458 C459 1.355 . S
C458 C460 1.415 . S
C459 C458 1.355 . S
C459 C461 1.419 . S
C460 C458 1.415 . S
C460 C465 1.425 . S
C460 C467 1.409 . S
C461 H453 0.930 . S
C461 C459 1.419 . S
C461 C462 1.362 . S
C462 H454 0.930 . S
C462 C461 1.362 . S
C462 C465 1.409 . S
C463 H455 0.930 . S
C463 C464 1.355 . S
C463 C465 1.415 . S
C464 C463 1.355 . S
C464 C466 1.419 . S
C465 C460 1.425 . S
C465 C462 1.409 . S
C465 C463 1.415 . S
C466 H456 0.930 . S
C466 C464 1.419 . S
C466 C467 1.362 . S
C467 H457 0.930 . S
C467 C460 1.409 . S
C467 C466 1.362 . S
C187 C16 1.035 . S
C192 C27 1.035 . S
C203 C57 1.042 . S
C208 C46 1.042 1_554 S
C219 C87 1.042 . S
C224 C76 1.042 . S
C235 C106 1.035 . S
C240 C117 1.035 . S
C251 C147 1.043 . S
C256 C136 1.043 . S
C267 C177 1.045 . S
C272 C166 1.045 . S
C283 C1 1.969 . S
C288 C151 1.938 . S
C299 N6 1.615 . S
C304 N36 1.624 . S
C315 C61 1.995 . S
C320 C31 1.982 . S
C331 N96 1.630 . S
C336 N66 1.639 . S
C347 C121 1.991 . S
C352 C91 1.992 . S
C363 N126 1.607 . S
C368 N156 1.613 . S
C379 C10 1.919 . S
C384 N134 1.792 . S
C395 N44 1.780 . S
C400 C160 1.935 . S
C411 C70 1.908 . S
C416 N14 1.778 . S
C427 N104 1.780 . S
C432 C40 1.909 . S
C443 C130 1.936 . S
C448 N74 1.764 . S
C459 C100 1.901 . S
C464 N164 1.704 . S
