# Generated by pormake.
# Topology wjs, (5)-cn, num edge types: 1
# Building blocks:
#     Node 0, Type 0, BuildingBlock: XOMCOT_clean_sbu_1, # of connection points: 5
#     Node 1, Type 0, BuildingBlock: XOMCOT_clean_sbu_1, # of connection points: 5
#     Node 2, Type 0, BuildingBlock: XOMCOT_clean_sbu_1, # of connection points: 5
#     Node 3, Type 0, BuildingBlock: XOMCOT_clean_sbu_1, # of connection points: 5
#     Node 4, Type 0, BuildingBlock: XOMCOT_clean_sbu_1, # of connection points: 5
#     Node 5, Type 0, BuildingBlock: XOMCOT_clean_sbu_1, # of connection points: 5
#     Node 6, Type 0, BuildingBlock: XOMCOT_clean_sbu_1, # of connection points: 5
#     Node 7, Type 0, BuildingBlock: XOMCOT_clean_sbu_1, # of connection points: 5
#     Node 8, Type 0, BuildingBlock: XOMCOT_clean_sbu_1, # of connection points: 5
#     Node 9, Type 0, BuildingBlock: XOMCOT_clean_sbu_1, # of connection points: 5
#     Node 10, Type 0, BuildingBlock: XOMCOT_clean_sbu_1, # of connection points: 5
#     Node 11, Type 0, BuildingBlock: XOMCOT_clean_sbu_1, # of connection points: 5
#     Edge 12, Type (0, 0), BuildingBlock: UVAHIK_clean_linker_0, # of connection points: 2
#     Edge 13, Type (0, 0), BuildingBlock: UVAHIK_clean_linker_0, # of connection points: 2
#     Edge 14, Type (0, 0), BuildingBlock: UVAHIK_clean_linker_0, # of connection points: 2
#     Edge 15, Type (0, 0), BuildingBlock: UVAHIK_clean_linker_0, # of connection points: 2
#     Edge 16, Type (0, 0), BuildingBlock: UVAHIK_clean_linker_0, # of connection points: 2
#     Edge 17, Type (0, 0), BuildingBlock: UVAHIK_clean_linker_0, # of connection points: 2
#     Edge 18, Type (0, 0), BuildingBlock: UVAHIK_clean_linker_0, # of connection points: 2
#     Edge 19, Type (0, 0), BuildingBlock: UVAHIK_clean_linker_0, # of connection points: 2
#     Edge 20, Type (0, 0), BuildingBlock: UVAHIK_clean_linker_0, # of connection points: 2
#     Edge 21, Type (0, 0), BuildingBlock: UVAHIK_clean_linker_0, # of connection points: 2
#     Edge 22, Type (0, 0), BuildingBlock: UVAHIK_clean_linker_0, # of connection points: 2
#     Edge 23, Type (0, 0), BuildingBlock: UVAHIK_clean_linker_0, # of connection points: 2
#     Edge 24, Type (0, 0), BuildingBlock: UVAHIK_clean_linker_0, # of connection points: 2
#     Edge 25, Type (0, 0), BuildingBlock: UVAHIK_clean_linker_0, # of connection points: 2
#     Edge 26, Type (0, 0), BuildingBlock: UVAHIK_clean_linker_0, # of connection points: 2
#     Edge 27, Type (0, 0), BuildingBlock: UVAHIK_clean_linker_0, # of connection points: 2
#     Edge 28, Type (0, 0), BuildingBlock: UVAHIK_clean_linker_0, # of connection points: 2
#     Edge 29, Type (0, 0), BuildingBlock: UVAHIK_clean_linker_0, # of connection points: 2
#     Edge 30, Type (0, 0), BuildingBlock: UVAHIK_clean_linker_0, # of connection points: 2
#     Edge 31, Type (0, 0), BuildingBlock: UVAHIK_clean_linker_0, # of connection points: 2
#     Edge 32, Type (0, 0), BuildingBlock: UVAHIK_clean_linker_0, # of connection points: 2
#     Edge 33, Type (0, 0), BuildingBlock: UVAHIK_clean_linker_0, # of connection points: 2
#     Edge 34, Type (0, 0), BuildingBlock: UVAHIK_clean_linker_0, # of connection points: 2
#     Edge 35, Type (0, 0), BuildingBlock: UVAHIK_clean_linker_0, # of connection points: 2
#     Edge 36, Type (0, 0), BuildingBlock: UVAHIK_clean_linker_0, # of connection points: 2
#     Edge 37, Type (0, 0), BuildingBlock: UVAHIK_clean_linker_0, # of connection points: 2
#     Edge 38, Type (0, 0), BuildingBlock: UVAHIK_clean_linker_0, # of connection points: 2
#     Edge 39, Type (0, 0), BuildingBlock: UVAHIK_clean_linker_0, # of connection points: 2
#     Edge 40, Type (0, 0), BuildingBlock: UVAHIK_clean_linker_0, # of connection points: 2
#     Edge 41, Type (0, 0), BuildingBlock: UVAHIK_clean_linker_0, # of connection points: 2
# Relax obj value: 0.369
# Max RMSD: 0.266
# Mean RMSD: 0.266
data_MOF--net-wjs--node1-XOMCOT_clean_sbu_1--edge1-UVAHIK_clean_linker_0
_symmetry_space_group_name_H-M    P1
_symmetry_Int_Tables_number       1
_symmetry_cell_setting            triclinic
loop_
_symmetry_equiv_pos_as_xyz
'x, y, z'
_cell_length_a     38.986611
_cell_length_b     39.0111
_cell_length_c     86.66712
_cell_angle_alpha  90.00956
_cell_angle_beta   89.989932
_cell_angle_gamma 120.0189
loop_
_atom_site_label
_atom_site_type_symbol
_atom_site_fract_x
_atom_site_fract_y
_atom_site_fract_z
_atom_type_partial_charge
C0 C 0.27233 0.35589 0.03398 0.0
C1 C 0.2833 0.3338 0.04289 0.0
N2 N 0.25961 0.29537 0.03927 0.0
N3 N 0.24227 0.33144 0.02467 0.0
C4 C 0.23491 0.29474 0.02823 0.0
H5 H 0.28535 0.38772 0.03427 0.0
Co6 Co 0.21682 0.34638 0.01053 0.0
C7 C 0.17836 0.2776 0.98973 0.0
O8 O 0.14429 0.27659 0.99101 0.0
N9 N 0.19133 0.3621 0.99644 0.0
C10 C 0.17252 0.37988 0.97513 0.0
C11 C 0.1968 0.36688 0.98104 0.0
C12 C 0.16391 0.37251 0.99964 0.0
N13 N 0.15175 0.38318 0.98689 0.0
O14 O 0.16793 0.31235 0.02069 0.0
H15 H 0.21721 0.36133 0.97453 0.0
H16 H 0.15362 0.37321 0.01114 0.0
O17 O 0.20859 0.30355 0.99706 0.0
C18 C 0.16012 0.32566 0.03276 0.0
O19 O 0.18416 0.36251 0.03693 0.0
N20 N 0.26572 0.38043 0.00128 0.0
C21 C 0.34407 0.43388 0.99348 0.0
C22 C 0.32752 0.39341 0.99033 0.0
C23 C 0.28845 0.3671 0.99447 0.0
C24 C 0.28063 0.41986 0.00382 0.0
C25 C 0.31992 0.44721 1.00004 0.0
H26 H 0.27762 0.33588 0.99303 0.0
H27 H 0.26252 0.42983 0.00955 0.0
H28 H 0.21205 0.26811 0.02277 0.0
H29 H 0.30639 0.34505 0.05156 0.0
H30 H 0.17011 0.38612 0.96314 0.0
H31 H 0.34536 0.38173 0.98564 0.0
H32 H 0.33164 0.47824 0.00267 0.0
C33 C 0.92856 0.28369 0.19715 0.0
C34 C 0.96328 0.29565 0.20505 0.0
N35 N 0.97586 0.26988 0.20198 0.0
N36 N 0.91958 0.25079 0.18902 0.0
C37 C 0.94873 0.24288 0.19226 0.0
H38 H 0.91078 0.29785 0.19737 0.0
Co39 Co 0.87522 0.22319 0.17673 0.0
C40 C 0.89612 0.17547 0.15669 0.0
O41 O 0.86223 0.14333 0.15965 0.0
N42 N 0.83016 0.19581 0.16462 0.0
C43 C 0.78777 0.17063 0.14511 0.0
C44 C 0.82677 0.19542 0.14911 0.0
C45 C 0.79304 0.1718 0.16979 0.0
N46 N 0.76663 0.15582 0.15817 0.0
O47 O 0.86008 0.17705 0.18898 0.0
H48 H 0.85113 0.21192 0.14124 0.0
H49 H 0.78561 0.16566 0.18187 0.0
O50 O 0.90438 0.20823 0.16298 0.0
C51 C 0.84666 0.17781 0.20228 0.0
O52 O 0.84183 0.20788 0.20584 0.0
N53 N 0.89031 0.26946 0.16548 0.0
C54 C 0.92033 0.34824 0.15733 0.0
C55 C 0.94174 0.32904 0.1541 0.0
C56 C 0.92625 0.28956 0.15829 0.0
C57 C 0.86767 0.28668 0.16759 0.0
C58 C 0.88208 0.32621 0.16349 0.0
H59 H 0.94491 0.2766 0.15701 0.0
H60 H 0.8397 0.27065 0.17362 0.0
H61 H 0.95002 0.21784 0.18757 0.0
H62 H 0.97761 0.32078 0.21276 0.0
H63 H 0.7759 0.16437 0.13351 0.0
H64 H 0.97139 0.34521 0.14935 0.0
H65 H 0.8649 0.34024 0.16628 0.0
C66 C 0.63434 0.9258 0.36209 0.0
C67 C 0.65607 0.96015 0.37039 0.0
N68 N 0.69477 0.97209 0.36853 0.0
N69 N 0.65933 0.91653 0.35494 0.0
C70 C 0.69588 0.94511 0.35913 0.0
H71 H 0.60238 0.90845 0.36144 0.0
Co72 Co 0.64595 0.87268 0.34272 0.0
C73 C 0.71778 0.89954 0.32354 0.0
O74 O 0.71892 0.86689 0.32599 0.0
N75 N 0.63209 0.82837 0.33059 0.0
C76 C 0.61916 0.78671 0.31109 0.0
C77 C 0.63051 0.82512 0.31507 0.0
C78 C 0.62109 0.79174 0.33577 0.0
N79 N 0.61329 0.76577 0.32418 0.0
O80 O 0.67762 0.85965 0.35563 0.0
H81 H 0.63736 0.84918 0.30717 0.0
H82 H 0.61945 0.78441 0.34787 0.0
O83 O 0.69071 0.90421 0.32965 0.0
C84 C 0.66158 0.84528 0.36861 0.0
O85 O 0.62598 0.83975 0.37132 0.0
N86 N 0.6137 0.88508 0.3308 0.0
C87 C 0.56086 0.90717 0.31933 0.0
C88 C 0.60175 0.93122 0.31695 0.0
C89 C 0.62775 0.91981 0.32288 0.0
C90 C 0.57401 0.86025 0.33252 0.0
C91 C 0.54697 0.8707 0.32684 0.0
H92 H 0.65914 0.94035 0.322 0.0
H93 H 0.56344 0.83324 0.33909 0.0
H94 H 0.72278 0.94599 0.35537 0.0
H95 H 0.64429 0.9746 0.37754 0.0
H96 H 0.61516 0.77509 0.29949 0.0
H97 H 0.61383 0.95998 0.31152 0.0
H98 H 0.51562 0.85122 0.32887 0.0
C99 C 0.70631 0.63426 0.53461 0.0
C100 C 0.69433 0.65647 0.54292 0.0
N101 N 0.71941 0.69498 0.53982 0.0
N102 N 0.73849 0.65871 0.52621 0.0
C103 C 0.74595 0.6955 0.52968 0.0
H104 H 0.69263 0.60236 0.53474 0.0
Co105 Co 0.76638 0.64361 0.51328 0.0
C106 C 0.80811 0.71353 0.49269 0.0
O107 O 0.8426 0.71567 0.49449 0.0
N108 N 0.79418 0.62782 0.50054 0.0
C109 C 0.81956 0.61219 0.48063 0.0
C110 C 0.79458 0.6259 0.485 0.0
C111 C 0.81834 0.61459 0.50536 0.0
N112 N 0.83441 0.60507 0.4935 0.0
O113 O 0.81337 0.67645 0.52486 0.0
H114 H 0.77776 0.63389 0.47736 0.0
H115 H 0.82435 0.61238 0.51738 0.0
O116 O 0.77761 0.68685 0.49964 0.0
C117 C 0.81415 0.66224 0.53799 0.0
O118 O 0.78512 0.62674 0.5416 0.0
N119 N 0.71939 0.61052 0.50265 0.0
C120 C 0.64077 0.55871 0.49505 0.0
C121 C 0.65774 0.59932 0.49224 0.0
C122 C 0.69715 0.62482 0.49614 0.0
C123 C 0.70423 0.57079 0.50444 0.0
C124 C 0.66479 0.54414 0.50058 0.0
H125 H 0.70834 0.65622 0.49519 0.0
H126 H 0.72189 0.56 0.50996 0.0
H127 H 0.77036 0.72212 0.52484 0.0
H128 H 0.66967 0.6452 0.55089 0.0
H129 H 0.82576 0.60727 0.46893 0.0
H130 H 0.63991 0.61152 0.48802 0.0
H131 H 0.65241 0.51292 0.50305 0.0
C132 C 0.06817 0.70364 0.69785 0.0
C133 C 0.03348 0.69105 0.70591 0.0
N134 N 0.02122 0.71739 0.7036 0.0
N135 N 0.07738 0.73749 0.69039 0.0
C136 C 0.04837 0.74519 0.69414 0.0
H137 H 0.08591 0.68943 0.69765 0.0
Co138 Co 0.12202 0.76809 0.67855 0.0
C139 C 0.09554 0.81162 0.65835 0.0
O140 O 0.12773 0.84575 0.66095 0.0
N141 N 0.16707 0.79863 0.66684 0.0
C142 C 0.21013 0.82728 0.64776 0.0
C143 C 0.17145 0.80013 0.65137 0.0
C144 C 0.2033 0.82443 0.67238 0.0
N145 N 0.23009 0.84254 0.66102 0.0
O146 O 0.13328 0.81312 0.69094 0.0
H147 H 0.148 0.78271 0.64326 0.0
H148 H 0.20972 0.83021 0.68455 0.0
O149 O 0.09093 0.78019 0.66473 0.0
C150 C 0.14507 0.81278 0.7046 0.0
O151 O 0.15032 0.78331 0.70876 0.0
N152 N 0.11116 0.7232 0.66705 0.0
C153 C 0.09107 0.64856 0.65582 0.0
C154 C 0.06686 0.66492 0.65284 0.0
C155 C 0.07724 0.70215 0.65867 0.0
C156 C 0.13614 0.70877 0.66941 0.0
C157 C 0.12666 0.6714 0.66388 0.0
H158 H 0.05649 0.71259 0.65728 0.0
H159 H 0.16249 0.72549 0.67634 0.0
H160 H 0.04743 0.77096 0.6901 0.0
H161 H 0.01912 0.66524 0.71329 0.0
H162 H 0.22262 0.83477 0.63627 0.0
H163 H 0.0387 0.648 0.647 0.0
H164 H 0.14619 0.65987 0.6664 0.0
C165 C 0.36123 0.06792 0.86143 0.0
C166 C 0.33794 0.03334 0.86937 0.0
N167 N 0.29983 0.02382 0.8677 0.0
N168 N 0.33779 0.07975 0.85462 0.0
C169 C 0.3006 0.05241 0.8587 0.0
H170 H 0.39324 0.08392 0.86094 0.0
Co171 Co 0.35398 0.12615 0.84359 0.0
C172 C 0.27734 0.09055 0.82603 0.0
O173 O 0.2592 0.10195 0.83577 0.0
N174 N 0.37015 0.17263 0.83271 0.0
C175 C 0.38346 0.21657 0.81409 0.0
C176 C 0.37117 0.17757 0.81728 0.0
C177 C 0.38231 0.20886 0.83865 0.0
N178 N 0.39034 0.23619 0.82758 0.0
O179 O 0.32025 0.13714 0.85611 0.0
H180 H 0.36324 0.15425 0.80889 0.0
H181 H 0.38426 0.21484 0.8509 0.0
O182 O 0.31269 0.09838 0.8286 0.0
C183 C 0.33357 0.14901 0.86964 0.0
O184 O 0.36861 0.15415 0.87322 0.0
N185 N 0.38844 0.11586 0.83209 0.0
C186 C 0.44305 0.0957 0.82094 0.0
C187 C 0.40252 0.07175 0.8178 0.0
C188 C 0.37563 0.08214 0.82359 0.0
C189 C 0.42784 0.14062 0.83461 0.0
C190 C 0.45577 0.13111 0.82912 0.0
H191 H 0.34441 0.06145 0.82216 0.0
H192 H 0.43743 0.16675 0.84166 0.0
H193 H 0.27463 0.05386 0.85538 0.0
H194 H 0.34834 0.01731 0.87632 0.0
H195 H 0.38721 0.22946 0.80273 0.0
H196 H 0.39129 0.0437 0.81187 0.0
H197 H 0.4868 0.15044 0.83178 0.0
C198 C 0.63139 0.70665 0.78134 0.0
C199 C 0.65304 0.69384 0.77311 0.0
N200 N 0.69179 0.72015 0.77517 0.0
N201 N 0.65645 0.74061 0.78865 0.0
C202 C 0.69299 0.74822 0.78462 0.0
H203 H 0.59944 0.69245 0.78181 0.0
Co204 Co 0.64255 0.7709 0.80071 0.0
C205 C 0.71281 0.81641 0.82052 0.0
O206 O 0.71219 0.84948 0.81857 0.0
N207 N 0.62791 0.8011 0.81264 0.0
C208 C 0.61326 0.82897 0.83194 0.0
C209 C 0.62505 0.80217 0.82813 0.0
C210 C 0.61715 0.82679 0.8073 0.0
N211 N 0.60833 0.84444 0.81879 0.0
O212 O 0.67463 0.81564 0.78792 0.0
H213 H 0.63134 0.78472 0.83612 0.0
H214 H 0.61634 0.83285 0.79517 0.0
O215 O 0.68714 0.78461 0.81397 0.0
C216 C 0.66058 0.81484 0.7746 0.0
O217 O 0.62518 0.78537 0.77115 0.0
N218 N 0.61027 0.72617 0.81263 0.0
C219 C 0.55801 0.65197 0.8249 0.0
C220 C 0.59902 0.66894 0.82697 0.0
C221 C 0.6247 0.70595 0.82065 0.0
C222 C 0.5705 0.71109 0.81109 0.0
C223 C 0.54375 0.67397 0.81718 0.0
H224 H 0.65615 0.71692 0.82138 0.0
H225 H 0.5596 0.72713 0.80444 0.0
H226 H 0.71994 0.77399 0.78851 0.0
H227 H 0.64117 0.66784 0.76583 0.0
H228 H 0.60825 0.83609 0.84349 0.0
H229 H 0.61139 0.65268 0.83252 0.0
H230 H 0.5123 0.66199 0.81537 0.0
C231 C 0.91526 0.64122 0.94583 0.0
C232 C 0.94821 0.66306 0.93684 0.0
N233 N 0.96307 0.70162 0.94029 0.0
N234 N 0.90972 0.66591 0.95502 0.0
C235 C 0.93905 0.70253 0.9513 0.0
H236 H 0.89647 0.60938 0.94572 0.0
Co237 Co 0.8691 0.65027 0.96914 0.0
C238 C 0.89603 0.71997 0.98933 0.0
O239 O 0.8615 0.71812 0.98847 0.0
N240 N 0.82741 0.63349 0.98312 0.0
C241 C 0.78969 0.61692 0.00413 0.0
C242 C 0.82775 0.63172 0.99868 0.0
C243 C 0.78903 0.61897 0.9794 0.0
N244 N 0.7654 0.60886 0.99193 0.0
O245 O 0.85136 0.68088 0.95815 0.0
H246 H 0.85398 0.64063 0.00559 0.0
H247 H 0.77853 0.61617 0.9677 0.0
O248 O 0.90206 0.69513 0.98204 0.0
C249 C 0.83113 0.66446 0.94611 0.0
O250 O 0.82192 0.62791 0.94289 0.0
N251 N 0.88683 0.61955 0.97917 0.0
C252 C 0.91789 0.57089 0.98609 0.0
C253 C 0.94051 0.61186 0.98838 0.0
C254 C 0.9245 0.63577 0.98481 0.0
C255 C 0.86342 0.57952 0.97786 0.0
C256 C 0.87834 0.55446 0.98139 0.0
H257 H 0.94371 0.66745 0.98538 0.0
H258 H 0.834 0.56722 0.97303 0.0
H259 H 0.94288 0.72929 0.95665 0.0
H260 H 0.95991 0.65151 0.92824 0.0
H261 H 0.78058 0.61192 0.0161 0.0
H262 H 0.97115 0.62554 0.99202 0.0
H263 H 0.86013 0.52295 0.97935 0.0
C264 C 0.28195 0.92075 0.11501 0.0
C265 C 0.29267 0.95345 0.10589 0.0
N266 N 0.26643 0.9658 0.10825 0.0
N267 N 0.24947 0.91305 0.12321 0.0
C268 C 0.24053 0.94076 0.11877 0.0
H269 H 0.29673 0.90358 0.1156 0.0
Co270 Co 0.2224 0.87211 0.13702 0.0
C271 C 0.18058 0.90127 0.1566 0.0
O272 O 0.14692 0.86788 0.15506 0.0
N273 N 0.19522 0.83044 0.15081 0.0
C274 C 0.17393 0.7932 0.17193 0.0
C275 C 0.19889 0.83067 0.16632 0.0
C276 C 0.16813 0.79274 0.14728 0.0
N277 N 0.15451 0.76956 0.1599 0.0
O278 O 0.17498 0.8566 0.12559 0.0
H279 H 0.21852 0.85641 0.17309 0.0
H280 H 0.1591 0.78206 0.13566 0.0
O281 O 0.21166 0.90597 0.14984 0.0
C282 C 0.17089 0.83616 0.11359 0.0
O283 O 0.19719 0.82529 0.11071 0.0
N284 N 0.26988 0.88734 0.14748 0.0
C285 C 0.34674 0.91203 0.15741 0.0
C286 C 0.32993 0.93614 0.15957 0.0
C287 C 0.29158 0.92344 0.15439 0.0
C288 C 0.28499 0.86271 0.14588 0.0
C289 C 0.32349 0.87449 0.15076 0.0
H290 H 0.28055 0.94383 0.15512 0.0
H291 H 0.26772 0.83457 0.14008 0.0
H292 H 0.21556 0.9426 0.12322 0.0
H293 H 0.31734 0.96661 0.09791 0.0
H294 H 0.17014 0.78413 0.1839 0.0
H295 H 0.34713 0.96569 0.16431 0.0
H296 H 0.33539 0.855 0.1489 0.0
C297 C 0.36988 0.29454 0.28173 0.0
C298 C 0.34778 0.30626 0.27318 0.0
N299 N 0.30919 0.27932 0.27518 0.0
N300 N 0.34522 0.26066 0.28918 0.0
C301 C 0.30852 0.25211 0.28496 0.0
H302 H 0.40186 0.30921 0.28217 0.0
Co303 Co 0.35883 0.23004 0.3012 0.0
C304 C 0.28874 0.18934 0.32187 0.0
O305 O 0.28434 0.15413 0.31938 0.0
N306 N 0.37284 0.19942 0.31306 0.0
C307 C 0.38695 0.17068 0.33219 0.0
C308 C 0.37502 0.19749 0.32854 0.0
C309 C 0.3841 0.17428 0.30755 0.0
N310 N 0.39266 0.15615 0.31892 0.0
O311 O 0.32404 0.18472 0.28914 0.0
H312 H 0.36843 0.21452 0.33664 0.0
H313 H 0.38558 0.16906 0.29538 0.0
O314 O 0.31648 0.21966 0.31521 0.0
C315 C 0.33719 0.18447 0.27572 0.0
O316 O 0.37288 0.21298 0.27201 0.0
N317 N 0.39403 0.27519 0.31234 0.0
C318 C 0.45015 0.34985 0.32305 0.0
C319 C 0.40982 0.33426 0.32632 0.0
C320 C 0.38217 0.29704 0.32074 0.0
C321 C 0.43323 0.28888 0.30969 0.0
C322 C 0.46191 0.3263 0.31494 0.0
H323 H 0.35121 0.28728 0.32234 0.0
H324 H 0.44206 0.27156 0.30275 0.0
H325 H 0.28183 0.22596 0.2888 0.0
H326 H 0.35924 0.33173 0.26563 0.0
H327 H 0.39167 0.16303 0.34368 0.0
H328 H 0.39933 0.35178 0.3322 0.0
H329 H 0.49277 0.33729 0.31217 0.0
C330 C 0.07219 0.36005 0.44814 0.0
C331 C 0.03928 0.33919 0.43899 0.0
N332 N 0.02548 0.30026 0.44123 0.0
N333 N 0.07873 0.33431 0.45619 0.0
C334 C 0.05001 0.29816 0.45168 0.0
H335 H 0.09035 0.39191 0.44883 0.0
Co336 Co 0.11955 0.34703 0.46999 0.0
C337 C 0.08985 0.27446 0.4887 0.0
O338 O 0.12319 0.27413 0.48705 0.0
N339 N 0.16093 0.36034 0.48376 0.0
C340 C 0.19748 0.37349 0.50495 0.0
C341 C 0.16037 0.3624 0.4993 0.0
C342 C 0.19851 0.37044 0.48023 0.0
N343 N 0.22131 0.37831 0.4929 0.0
O344 O 0.13569 0.3164 0.45798 0.0
H345 H 0.13454 0.35599 0.50609 0.0
H346 H 0.20922 0.37259 0.46856 0.0
O347 O 0.08547 0.3014 0.48228 0.0
C348 C 0.15375 0.33364 0.44563 0.0
O349 O 0.16075 0.36977 0.443 0.0
N350 N 0.10408 0.37829 0.481 0.0
C351 C 0.07893 0.42968 0.49137 0.0
C352 C 0.05487 0.38864 0.49323 0.0
C353 C 0.06781 0.36338 0.48783 0.0
C354 C 0.12872 0.41813 0.47975 0.0
C355 C 0.11671 0.44446 0.48488 0.0
H356 H 0.04745 0.33191 0.48828 0.0
H357 H 0.15698 0.4294 0.47401 0.0
H358 H 0.04709 0.27082 0.45603 0.0
H359 H 0.02699 0.35168 0.43108 0.0
H360 H 0.2061 0.37717 0.51698 0.0
H361 H 0.02517 0.37595 0.49786 0.0
H362 H 0.13619 0.47596 0.48326 0.0
C363 C 0.7006 0.07134 0.61595 0.0
C364 C 0.68822 0.03709 0.60761 0.0
N365 N 0.71515 0.0254 0.60946 0.0
N366 N 0.73488 0.08077 0.62314 0.0
C367 C 0.74306 0.05237 0.61892 0.0
H368 H 0.68591 0.0886 0.61656 0.0
Co369 Co 0.76567 0.12484 0.63521 0.0
C370 C 0.80954 0.09741 0.65473 0.0
O371 O 0.84367 0.12967 0.65222 0.0
N372 N 0.79646 0.16935 0.64716 0.0
C373 C 0.82538 0.21154 0.66648 0.0
C374 C 0.79821 0.17304 0.66266 0.0
C375 C 0.82216 0.20581 0.64181 0.0
N376 N 0.84043 0.23209 0.65331 0.0
O377 O 0.81042 0.13657 0.62254 0.0
H378 H 0.78091 0.14924 0.67065 0.0
H379 H 0.82774 0.21277 0.62968 0.0
O380 O 0.77801 0.09317 0.64857 0.0
C381 C 0.80992 0.14992 0.6092 0.0
O382 O 0.78095 0.15662 0.60577 0.0
N383 N 0.72097 0.11349 0.64695 0.0
C384 C 0.64649 0.09294 0.65856 0.0
C385 C 0.66293 0.06867 0.66119 0.0
C386 C 0.70009 0.07928 0.65518 0.0
C387 C 0.70647 0.13851 0.64494 0.0
C388 C 0.66917 0.1288 0.65066 0.0
H389 H 0.71058 0.05852 0.65631 0.0
H390 H 0.72304 0.16509 0.63813 0.0
H391 H 0.76921 0.05171 0.62266 0.0
H392 H 0.66211 0.02262 0.60039 0.0
H393 H 0.83301 0.22351 0.67803 0.0
H394 H 0.64612 0.04032 0.66691 0.0
H395 H 0.65756 0.14839 0.6484 0.0
C396 C 0.22523 0.22553 0.04757 0.0
C397 C 0.26037 0.26197 0.04587 0.0
C398 C 0.22593 0.19324 0.05417 0.0
C399 C 0.28829 0.168 0.07859 0.0
H400 H 0.21912 0.0621 0.06289 0.0
C401 C 0.30141 0.0327 0.09688 0.0
C402 C 0.26585 -0.00139 0.10098 0.0
C403 C 0.30085 0.06481 0.09002 0.0
C404 C 0.23839 0.0915 0.06745 0.0
H405 H 0.32386 0.29303 0.04939 0.0
H406 H 0.32539 0.23653 0.06061 0.0
H407 H 0.21824 0.11829 0.05098 0.0
H408 H 0.20185 0.97096 0.10085 0.0
H409 H 0.20084 0.02709 0.08879 0.0
H410 H 0.30885 0.14106 0.09489 0.0
C411 C 0.29708 0.23306 0.05724 0.0
C412 C 0.23782 0.12369 0.06067 0.0
C413 C 0.29628 0.26543 0.05078 0.0
C414 C 0.22969 0.99705 0.09795 0.0
C415 C 0.22911 0.02897 0.09093 0.0
C416 C 0.28912 0.13585 0.08526 0.0
C417 C 0.26189 0.1966 0.05909 0.0
C418 C 0.26269 0.16234 0.06619 0.0
C419 C 0.26469 0.06321 0.08698 0.0
C420 C 0.2641 0.0973 0.07978 0.0
H421 H 0.19707 0.22224 0.04408 0.0
H422 H 0.19818 0.16584 0.05566 0.0
H423 H 0.30731 0.19722 0.08333 0.0
H424 H 0.32966 0.03475 0.0992 0.0
H425 H 0.3287 0.09077 0.08698 0.0
C426 C 0.27693 0.31345 0.2633 0.0
C427 C 0.27585 0.27822 0.26759 0.0
C428 C 0.24467 0.31233 0.2558 0.0
C429 C 0.13748 0.24683 0.24874 0.0
H430 H 0.1554 0.32061 0.21554 0.0
C431 C 0.01054 0.23501 0.21076 0.0
C432 C 0.01031 0.27047 0.20825 0.0
C433 C 0.0434 0.23559 0.21747 0.0
C434 C 0.14998 0.30001 0.22486 0.0
H435 H 0.24051 0.21416 0.26707 0.0
H436 H 0.18441 0.21211 0.25388 0.0
H437 H 0.21188 0.32241 0.22845 0.0
H438 H 0.04471 0.33435 0.21033 0.0
H439 H 0.10203 0.33538 0.22212 0.0
H440 H 0.07556 0.22434 0.24508 0.0
C441 C 0.20978 0.24067 0.25661 0.0
C442 C 0.1823 0.3011 0.23229 0.0
C443 C 0.24192 0.24182 0.26418 0.0
C444 C 0.04389 0.30655 0.21229 0.0
C445 C 0.07683 0.30715 0.21889 0.0
C446 C 0.10519 0.24562 0.24126 0.0
C447 C 0.21074 0.2759 0.25234 0.0
C448 C 0.17642 0.2746 0.24435 0.0
C449 C 0.07679 0.27166 0.22168 0.0
C450 C 0.11111 0.27229 0.22929 0.0
H451 H 0.30251 0.34191 0.26594 0.0
H452 H 0.24613 0.34002 0.25289 0.0
H453 H 0.13191 0.22643 0.25815 0.0
H454 H 0.98498 0.20676 0.20788 0.0
H455 H 0.0427 0.2078 0.21936 0.0
C456 C 0.95951 0.27136 0.42907 0.0
C457 C 0.99203 0.26774 0.4338 0.0
C458 C 0.92706 0.23979 0.42185 0.0
C459 C 0.89843 0.14934 0.39963 0.0
H460 H 0.79165 0.11936 0.41235 0.0
C461 C 0.76269 0.00488 0.37903 0.0
C462 C 0.72797 0.00578 0.37554 0.0
C463 C 0.79481 0.03739 0.38594 0.0
C464 C 0.82125 0.12769 0.40851 0.0
H465 H 0.01627 0.22843 0.43449 0.0
H466 H 0.9595 0.1732 0.42195 0.0
H467 H 0.848 0.17533 0.42476 0.0
H468 H 0.69988 0.04163 0.37634 0.0
H469 H 0.75619 0.09873 0.38825 0.0
H470 H 0.87188 0.10202 0.38331 0.0
C471 C 0.95918 0.2005 0.4238 0.0
C472 C 0.8535 0.15968 0.41565 0.0
C473 C 0.99148 0.23195 0.43113 0.0
C474 C 0.72607 0.03993 0.37908 0.0
C475 C 0.75831 0.07258 0.38592 0.0
C476 C 0.86622 0.11751 0.39244 0.0
C477 C 0.92664 0.2041 0.4191 0.0
C478 C 0.8924 0.17067 0.41134 0.0
C479 C 0.79304 0.07166 0.38945 0.0
C480 C 0.82725 0.10615 0.39685 0.0
H481 H 0.95897 0.29845 0.43112 0.0
H482 H 0.90249 0.24347 0.41825 0.0
H483 H 0.9281 0.15755 0.39592 0.0
H484 H 0.76477 0.97873 0.37669 0.0
H485 H 0.82081 0.03539 0.38877 0.0
C486 C 0.75398 0.7646 0.54848 0.0
C487 C 0.71865 0.72852 0.54632 0.0
C488 C 0.75332 0.79686 0.55513 0.0
C489 C 0.68855 0.83834 0.5625 0.0
H490 H 0.76474 0.89775 0.59458 0.0
C491 C 0.67935 0.95773 0.59872 0.0
C492 C 0.71516 0.99213 0.60231 0.0
C493 C 0.67944 0.9254 0.59183 0.0
C494 C 0.74359 0.88181 0.58551 0.0
H495 H 0.65488 0.6982 0.54912 0.0
H496 H 0.65371 0.75456 0.56082 0.0
H497 H 0.76579 0.84199 0.58239 0.0
H498 H 0.77913 0.02005 0.60112 0.0
H499 H 0.77938 0.96395 0.58895 0.0
H500 H 0.66657 0.87835 0.56548 0.0
C501 C 0.68189 0.75786 0.55734 0.0
C502 C 0.74417 0.84984 0.57854 0.0
C503 C 0.68259 0.72551 0.55079 0.0
C504 C 0.75106 0.99367 0.59876 0.0
C505 C 0.75118 0.96149 0.59179 0.0
C506 C 0.6881 0.87047 0.5694 0.0
C507 C 0.71728 0.79377 0.55966 0.0
C508 C 0.71667 0.82779 0.56698 0.0
C509 C 0.71538 0.92691 0.58829 0.0
C510 C 0.71563 0.89259 0.58098 0.0
H511 H 0.78224 0.76769 0.54529 0.0
H512 H 0.78102 0.8243 0.55667 0.0
H513 H 0.66729 0.82212 0.55348 0.0
H514 H 0.65126 0.95557 0.60149 0.0
H515 H 0.65134 0.899 0.58949 0.0
C516 C 0.95357 0.68108 0.71438 0.0
C517 C 0.9874 0.71703 0.71043 0.0
C518 C 0.92095 0.6808 0.7212 0.0
C519 C 0.87496 0.74297 0.7269 0.0
H520 H 0.81976 0.66993 0.76039 0.0
C521 C 0.76004 0.75478 0.76492 0.0
C522 C 0.72486 0.71935 0.76817 0.0
C523 C 0.7918 0.75402 0.75782 0.0
C524 C 0.83466 0.69022 0.75095 0.0
H525 H 0.01384 0.78089 0.71077 0.0
H526 H 0.95718 0.78048 0.72276 0.0
H527 H 0.87564 0.66942 0.74795 0.0
H528 H 0.69566 0.65536 0.7668 0.0
H529 H 0.7511 0.65402 0.75429 0.0
H530 H 0.83418 0.76401 0.73002 0.0
C531 C 0.95544 0.75243 0.7203 0.0
C532 C 0.86661 0.6899 0.74381 0.0
C533 C 0.98794 0.75269 0.71343 0.0
C534 C 0.72225 0.68313 0.7643 0.0
C535 C 0.7541 0.68236 0.75728 0.0
C536 C 0.84313 0.7434 0.73409 0.0
C537 C 0.92156 0.71649 0.72428 0.0
C538 C 0.88718 0.71634 0.73171 0.0
C539 C 0.78913 0.71781 0.7539 0.0
C540 C 0.82272 0.7171 0.74621 0.0
H541 H 0.95211 0.65314 0.71202 0.0
H542 H 0.89508 0.65258 0.7239 0.0
H543 H 0.88972 0.76325 0.71744 0.0
H544 H 0.76281 0.78315 0.7676 0.0
H545 H 0.81857 0.78181 0.75548 0.0
C546 C 0.26493 0.9558 0.87809 0.0
C547 C 0.26572 0.99148 0.87489 0.0
C548 C 0.23207 0.92462 0.88529 0.0
C549 C 0.12595 0.88688 0.89373 0.0
H550 H 0.14216 0.82431 0.92456 0.0
C551 C -0.00064 0.7716 0.93203 0.0
C552 C -0.00269 0.73475 0.93353 0.0
C553 C 0.03226 0.80345 0.92513 0.0
C554 C 0.13719 0.84136 0.91589 0.0
H555 H 0.23302 0.02273 0.87698 0.0
H556 H 0.17589 0.96858 0.88969 0.0
H557 H 0.19925 0.87886 0.91191 0.0
H558 H 0.02844 0.70264 0.92931 0.0
H559 H 0.08583 0.7582 0.91721 0.0
H560 H 0.06384 0.84949 0.89786 0.0
C561 C 0.20024 0.96428 0.88633 0.0
C562 C 0.16986 0.87253 0.9086 0.0
C563 C 0.23299 0.99535 0.87904 0.0
C564 C 0.02901 0.73055 0.92816 0.0
C565 C 0.06202 0.76245 0.92138 0.0
C566 C 0.09329 0.85586 0.90109 0.0
C567 C 0.19939 0.92854 0.88955 0.0
C568 C 0.16463 0.89557 0.89739 0.0
C569 C 0.0639 0.79917 0.91972 0.0
C570 C 0.09858 0.8327 0.91219 0.0
H571 H 0.28954 0.95184 0.87485 0.0
H572 H 0.23212 0.89727 0.88736 0.0
H573 H 0.12082 0.90362 0.88498 0.0
H574 H 0.97522 0.7756 0.93595 0.0
H575 H 0.03306 0.83152 0.92411 0.0
C576 C 0.7001 0.5715 0.97927 0.0
C577 C 0.72314 0.59307 0.992 0.0
C578 C 0.65937 0.55714 0.97904 0.0
C579 C 0.58092 0.57121 0.99643 0.0
H580 H 0.51189 0.46525 0.9808 0.0
C581 C 0.41003 0.48632 0.00341 0.0
C582 C 0.38727 0.46073 0.99143 0.0
C583 C 0.45141 0.5064 0.0027 0.0
C584 C 0.53076 0.49515 0.98496 0.0
H585 H 0.72133 0.61643 0.01449 0.0
H586 H 0.64983 0.59066 0.01421 0.0
H587 H 0.583 0.49122 0.98166 0.0
H588 H 0.38984 0.43843 0.96882 0.0
H589 H 0.46203 0.47387 0.96746 0.0
H590 H 0.52838 0.57485 0.99985 0.0
C591 C 0.66351 0.58531 0.00433 0.0
C592 C 0.57155 0.50999 0.9855 0.0
C593 C 0.70437 0.59966 0.00457 0.0
C594 C 0.40665 0.45753 0.97831 0.0
C595 C 0.44796 0.47767 0.97758 0.0
C596 C 0.53999 0.55632 0.99589 0.0
C597 C 0.64058 0.56388 0.99155 0.0
C598 C 0.59714 0.54819 0.99121 0.0
C599 C 0.47082 0.50133 0.98998 0.0
C600 C 0.51446 0.51812 0.99012 0.0
H601 H 0.71344 0.56541 0.96948 0.0
H602 H 0.64265 0.54107 0.96895 0.0
H603 H 0.59992 0.60094 0.00073 0.0
H604 H 0.39595 0.48904 0.01375 0.0
H605 H 0.46812 0.52418 0.01249 0.0
C606 C 0.92274 0.41149 0.14943 0.0
C607 C 0.94036 0.39192 0.15667 0.0
C608 C 0.94173 0.45293 0.1496 0.0
C609 C 0.01078 0.53824 0.17226 0.0
H610 H 0.03893 0.59882 0.1343 0.0
C611 C 0.12949 0.70297 0.17092 0.0
C612 C 0.12592 0.72797 0.16022 0.0
C613 C 0.10289 0.66226 0.17069 0.0
C614 C 0.03064 0.58249 0.14505 0.0
H615 H 0.99087 0.3999 0.17003 0.0
H616 H 0.02356 0.47195 0.1705 0.0
H617 H -0.00168 0.52675 0.13331 0.0
H618 H 0.09092 0.73043 0.14131 0.0
H619 H 0.04366 0.65951 0.14116 0.0
H620 H 0.04254 0.59348 0.1841 0.0
C621 C 0.99545 0.45544 0.16457 0.0
C622 C 0.00749 0.54121 0.14444 0.0
C623 C 0.97695 0.41431 0.16416 0.0
C624 C 0.09465 0.71166 0.14954 0.0
C625 C 0.06768 0.67102 0.14944 0.0
C626 C 0.03337 0.57944 0.17291 0.0
C627 C 0.97801 0.47512 0.15735 0.0
C628 C -0.00182 0.51877 0.15802 0.0
C629 C 0.07171 0.6457 0.1599 0.0
C630 C 0.04444 0.60209 0.15929 0.0
H631 H 0.89445 0.39476 0.14365 0.0
H632 H 0.92779 0.46761 0.14397 0.0
H633 H 0.00354 0.52147 0.18291 0.0
H634 H 0.15362 0.71475 0.17914 0.0
H635 H 0.1075 0.64371 0.17873 0.0
C636 C 0.39741 0.09915 0.32874 0.0
C637 C 0.40522 0.12734 0.31716 0.0
C638 C 0.40962 0.07124 0.32701 0.0
C639 C 0.48299 0.05533 0.30657 0.0
H640 H 0.41682 0.94649 0.31981 0.0
C641 C 0.53889 0.94476 0.30235 0.0
C642 C 0.53389 0.92269 0.31582 0.0
C643 C 0.51809 0.96502 0.30037 0.0
C644 C 0.43567 0.97681 0.3161 0.0
H645 H 0.43221 0.14837 0.2947 0.0
H646 H 0.45307 0.09946 0.2916 0.0
H647 H 0.39098 0.99202 0.32082 0.0
H648 H 0.50186 0.90321 0.33747 0.0
H649 H 0.46575 0.93849 0.33404 0.0
H650 H 0.52805 0.04065 0.30225 0.0
C651 C 0.43765 0.09905 0.30206 0.0
C652 C 0.4209 0.00288 0.31671 0.0
C653 C 0.42535 0.12686 0.30377 0.0
C654 C 0.50599 0.91948 0.32685 0.0
C655 C 0.48529 0.93979 0.32489 0.0
C656 C 0.49777 0.02934 0.306 0.0
C657 C 0.43005 0.07102 0.31367 0.0
C658 C 0.44461 0.04256 0.31214 0.0
C659 C 0.49195 0.96373 0.31184 0.0
C660 C 0.4745 0.98991 0.31095 0.0
H661 H 0.3816 0.09843 0.33911 0.0
H662 H 0.40371 0.0503 0.33625 0.0
H663 H 0.50219 0.08585 0.30317 0.0
H664 H 0.55981 0.94735 0.29356 0.0
H665 H 0.5233 0.98259 0.29004 0.0
C666 C 0.27874 0.37589 0.48215 0.0
C667 C 0.26256 0.38972 0.49337 0.0
C668 C 0.31898 0.38757 0.48245 0.0
C669 C 0.40792 0.43458 0.50787 0.0
H670 H 0.46569 0.46188 0.46918 0.0
C671 C 0.57387 0.54412 0.50327 0.0
C672 C 0.59727 0.53323 0.49456 0.0
C673 C 0.53279 0.52064 0.50323 0.0
C674 C 0.44978 0.45373 0.48003 0.0
H675 H 0.27576 0.42677 0.51361 0.0
H676 H 0.34603 0.44802 0.51397 0.0
H677 H 0.39371 0.4323 0.46895 0.0
H678 H 0.59648 0.48932 0.47907 0.0
H679 H 0.52362 0.44832 0.4786 0.0
H680 H 0.46439 0.45807 0.51893 0.0
C681 C 0.32759 0.42725 0.50516 0.0
C682 C 0.40856 0.43674 0.47994 0.0
C683 C 0.28733 0.41524 0.50495 0.0
C684 C 0.57888 0.49825 0.48582 0.0
C685 C 0.53745 0.47498 0.48554 0.0
C686 C 0.44908 0.45198 0.50796 0.0
C687 C 0.34398 0.41363 0.4939 0.0
C688 C 0.38722 0.42779 0.49388 0.0
C689 C 0.51416 0.48598 0.49433 0.0
C690 C 0.47042 0.46246 0.49406 0.0
H691 H 0.26018 0.35569 0.47323 0.0
H692 H 0.33041 0.37601 0.47374 0.0
H693 H 0.39241 0.42714 0.51881 0.0
H694 H 0.58746 0.57076 0.51024 0.0
H695 H 0.51547 0.52994 0.50997 0.0
C696 C 0.8717 0.29443 0.63834 0.0
C697 C 0.86994 0.27334 0.65176 0.0
C698 C 0.9001 0.33444 0.63686 0.0
C699 C 0.99558 0.41299 0.65267 0.0
H700 H 0.96002 0.48326 0.63725 0.0
C701 C 0.07847 0.58138 0.66347 0.0
C702 C 0.07643 0.60628 0.65223 0.0
C703 C 0.05844 0.5404 0.66135 0.0
C704 C 0.97074 0.46404 0.64128 0.0
H705 H 0.89736 0.27774 0.674 0.0
H706 H 0.94637 0.34779 0.67156 0.0
H707 H 0.91429 0.4123 0.63775 0.0
H708 H 0.05442 0.60802 0.62945 0.0
H709 H 0.01969 0.53639 0.62567 0.0
H710 H 0.05186 0.46502 0.65653 0.0
C711 C 0.926 0.33321 0.66211 0.0
C712 C 0.94444 0.42331 0.64161 0.0
C713 C 0.89755 0.29317 0.6636 0.0
C714 C 0.05604 0.58951 0.6384 0.0
C715 C 0.03607 0.54852 0.63627 0.0
C716 C 0.02195 0.45381 0.65234 0.0
C717 C 0.92745 0.35435 0.64875 0.0
C718 C 0.95637 0.39735 0.6475 0.0
C719 C 0.03597 0.52342 0.64794 0.0
C720 C 0.00965 0.47984 0.64683 0.0
H721 H 0.85071 0.28026 0.62906 0.0
H722 H 0.90064 0.3498 0.62637 0.0
H723 H 0.00584 0.39368 0.65706 0.0
H724 H 0.09348 0.5933 0.67433 0.0
H725 H 0.05868 0.52195 0.67063 0.0
C726 C 0.57765 0.87597 0.80374 0.0
C727 C 0.5965 0.87388 0.81725 0.0
C728 C 0.56604 0.90436 0.80225 0.0
C729 C 0.58251 -0.00059 0.81827 0.0
H730 H 0.47717 0.96446 0.80233 0.0
C731 C 0.49719 0.08257 0.82879 0.0
C732 C 0.47062 0.08089 0.81745 0.0
C733 C 0.51802 0.0624 0.82674 0.0
C734 C 0.50699 0.97501 0.80651 0.0
H735 H 0.61861 0.90063 0.83965 0.0
H736 H 0.59759 0.94964 0.83719 0.0
H737 H 0.50227 0.91861 0.80288 0.0
H738 H 0.44741 0.05933 0.79456 0.0
H739 H 0.48412 0.02435 0.79091 0.0
H740 H 0.58679 0.05563 0.82221 0.0
C741 C 0.59219 0.92955 0.82768 0.0
C742 C 0.52134 0.94864 0.80686 0.0
C743 C 0.60375 0.9011 0.82918 0.0
C744 C 0.46725 0.06069 0.8036 0.0
C745 C 0.48816 0.04057 0.80153 0.0
C746 C 0.56815 0.02584 0.8179 0.0
C747 C 0.57301 0.93136 0.81423 0.0
C748 C 0.55903 0.96035 0.81294 0.0
C749 C 0.5128 0.04015 0.81329 0.0
C750 C 0.52999 0.01376 0.81222 0.0
H751 H 0.57124 0.85527 0.79438 0.0
H752 H 0.55161 0.90518 0.79169 0.0
H753 H 0.61193 0.00949 0.82279 0.0
H754 H 0.50006 0.09741 0.83968 0.0
H755 H 0.53641 0.06237 0.8361 0.0
C756 C 0.39349 0.2978 0.81856 0.0
C757 C 0.40245 0.27735 0.82973 0.0
C758 C 0.40543 0.33774 0.82057 0.0
C759 C 0.48004 0.42702 0.84051 0.0
H760 H 0.41299 0.46927 0.82794 0.0
C761 C 0.53724 0.5941 0.84274 0.0
C762 C 0.53117 0.60989 0.82911 0.0
C763 C 0.51639 0.55329 0.84539 0.0
C764 C 0.43208 0.45792 0.83148 0.0
H765 H 0.43096 0.28294 0.85181 0.0
H766 H 0.45152 0.35263 0.85539 0.0
H767 H 0.38685 0.39784 0.82751 0.0
H768 H 0.49716 0.5953 0.80791 0.0
H769 H 0.46091 0.52435 0.81249 0.0
H770 H 0.52563 0.48699 0.84405 0.0
C771 C 0.43538 0.33773 0.84503 0.0
C772 C 0.41713 0.41704 0.83121 0.0
C773 C 0.42332 0.29771 0.84304 0.0
C774 C 0.50217 0.58421 0.81862 0.0
C775 C 0.48138 0.54344 0.82125 0.0
C776 C 0.49499 0.46787 0.84076 0.0
C777 C 0.42671 0.35823 0.83379 0.0
C778 C 0.4412 0.40121 0.83544 0.0
C779 C 0.48908 0.5274 0.83444 0.0
C780 C 0.47143 0.48385 0.83598 0.0
H781 H 0.37701 0.28291 0.80828 0.0
H782 H 0.39869 0.3528 0.8116 0.0
H783 H 0.49949 0.41582 0.84367 0.0
H784 H 0.55899 0.61322 0.85115 0.0
H785 H 0.52246 0.5419 0.8558 0.0
C786 C 0.92054 0.51061 0.99465 0.0
C787 C 0.93726 0.54658 0.98654 0.0
C788 C 0.93931 0.48794 0.99466 0.0
C789 C 0.00771 0.46942 0.97206 0.0
H790 H 0.03557 0.43959 0.01071 0.0
C791 C 0.12728 0.4247 0.97532 0.0
C792 C 0.12322 0.39626 0.98619 0.0
C793 C 0.10057 0.43868 0.9751 0.0
C794 C 0.02739 0.44695 0.99979 0.0
H795 H 0.98579 0.58654 0.97175 0.0
H796 H 0.01817 0.54693 0.97165 0.0
H797 H 0.99485 0.47096 0.01091 0.0
H798 H 0.0872 0.359 0.00497 0.0
H799 H 0.03998 0.38269 0.00442 0.0
H800 H 0.03995 0.44551 0.96087 0.0
C801 C 0.99088 0.53635 0.97808 0.0
C802 C 0.00413 0.46499 0.99993 0.0
C803 C 0.97258 0.55919 0.97828 0.0
C804 C 0.09139 0.38141 0.99663 0.0
C805 C 0.0644 0.39506 0.99631 0.0
C806 C 0.03051 0.45099 0.97189 0.0
C807 C 0.9745 0.50056 0.98626 0.0
C808 C 0.99487 0.47718 0.98609 0.0
C809 C 0.06886 0.42417 0.98564 0.0
C810 C 0.04145 0.44035 0.98577 0.0
H811 H 0.89326 0.50027 0.00106 0.0
H812 H 0.92612 0.46037 0.00103 0.0
H813 H 0.00049 0.47811 0.96121 0.0
H814 H 0.15181 0.437 0.96727 0.0
H815 H 0.10546 0.46165 0.96691 0.0
C816 C 0.41359 0.92426 0.14935 0.0
C817 C 0.38954 0.92815 0.16048 0.0
C818 C 0.45475 0.94469 0.15097 0.0
C819 C 0.53347 0.0346 0.16942 0.0
H820 H 0.60136 0.99527 0.15475 0.0
C821 C 0.70389 0.12793 0.17279 0.0
C822 C 0.72478 0.12825 0.15952 0.0
C823 C 0.66335 0.10116 0.17413 0.0
C824 C 0.58273 0.0067 0.15881 0.0
H825 H 0.38953 0.95426 0.18255 0.0
H826 H 0.46144 0.9895 0.18552 0.0
H827 H 0.52971 0.9509 0.15562 0.0
H828 H 0.71954 0.1002 0.13737 0.0
H829 H 0.64861 0.05381 0.13961 0.0
H830 H 0.58637 0.09047 0.17244 0.0
C831 C 0.44854 0.97142 0.17535 0.0
C832 C 0.54172 0.9813 0.15933 0.0
C833 C 0.40738 0.95113 0.17369 0.0
C834 C 0.70423 0.10101 0.14766 0.0
C835 C 0.6637 0.07411 0.14903 0.0
C836 C 0.57443 0.05991 0.16896 0.0
C837 C 0.47278 0.96935 0.16379 0.0
C838 C 0.51656 0.99508 0.16447 0.0
C839 C 0.64279 0.07399 0.16226 0.0
C840 C 0.59948 0.04639 0.16348 0.0
H841 H 0.40078 0.90722 0.13894 0.0
H842 H 0.47248 0.94274 0.14176 0.0
H843 H 0.51498 0.04647 0.17317 0.0
H844 H 0.71872 0.14874 0.18207 0.0
H845 H 0.64811 0.10163 0.18452 0.0
C846 C 0.6095 0.70495 0.31368 0.0
C847 C 0.60169 0.72454 0.3256 0.0
C848 C 0.59831 0.66501 0.31512 0.0
C849 C 0.52799 0.57465 0.33596 0.0
H850 H 0.59424 0.53399 0.32066 0.0
C851 C 0.4759 0.40945 0.34021 0.0
C852 C 0.47845 0.39214 0.32635 0.0
C853 C 0.49694 0.45052 0.34205 0.0
C854 C 0.57541 0.54492 0.32496 0.0
H855 H 0.57577 0.71721 0.34838 0.0
H856 H 0.55702 0.64798 0.351 0.0
H857 H 0.61854 0.60513 0.31983 0.0
H858 H 0.50682 0.40416 0.30392 0.0
H859 H 0.54345 0.47573 0.30711 0.0
H860 H 0.48453 0.51462 0.34077 0.0
C861 C 0.57151 0.6634 0.34047 0.0
C862 C 0.58926 0.58562 0.32444 0.0
C863 C 0.58265 0.70328 0.33903 0.0
C864 C 0.50457 0.41655 0.3148 0.0
C865 C 0.52554 0.45764 0.31663 0.0
C866 C 0.51419 0.53407 0.33648 0.0
C867 C 0.57902 0.64374 0.32851 0.0
C868 C 0.56549 0.60086 0.32978 0.0
C869 C 0.52086 0.47514 0.33005 0.0
C870 C 0.53753 0.51865 0.33083 0.0
H871 H 0.62451 0.7205 0.30326 0.0
H872 H 0.60413 0.65061 0.30561 0.0
H873 H 0.50866 0.58531 0.33993 0.0
H874 H 0.45643 0.39131 0.34939 0.0
H875 H 0.49338 0.46309 0.35266 0.0
C876 C 0.88914 0.59788 0.48262 0.0
C877 C 0.86178 0.5905 0.49451 0.0
C878 C 0.91595 0.58409 0.48372 0.0
C879 C 0.92977 0.50782 0.50284 0.0
H880 H 0.03929 0.57317 0.49018 0.0
C881 C 0.03896 0.4502 0.50762 0.0
C882 C 0.06252 0.45605 0.49453 0.0
C883 C 0.01842 0.4708 0.50931 0.0
C884 C 0.00875 0.55449 0.49369 0.0
H885 H 0.84088 0.56241 0.51681 0.0
H886 H 0.88782 0.5387 0.51879 0.0
H887 H 0.99475 0.60022 0.48943 0.0
H888 H 0.0842 0.48919 0.47322 0.0
H889 H 0.04828 0.5249 0.47609 0.0
H890 H 0.94326 0.46179 0.50676 0.0
C891 C 0.88847 0.55507 0.50859 0.0
C892 C 0.98325 0.56997 0.49323 0.0
C893 C 0.86182 0.56899 0.50752 0.0
C894 C 0.06672 0.48441 0.48355 0.0
C895 C 0.04605 0.50487 0.48519 0.0
C896 C 0.95517 0.49231 0.50324 0.0
C897 C 0.91581 0.56242 0.49671 0.0
C898 C 0.9434 0.54668 0.49769 0.0
C899 C 0.02083 0.49754 0.49789 0.0
C900 C 0.99489 0.51533 0.49855 0.0
H901 H 0.89013 0.61469 0.47253 0.0
H902 H 0.9364 0.58987 0.4743 0.0
H903 H 0.89909 0.48894 0.50614 0.0
H904 H 0.03557 0.42888 0.51637 0.0
H905 H -0.00011 0.46507 0.51938 0.0
C906 C 0.29138 0.89983 0.65099 0.0
C907 C 0.27126 0.87212 0.66276 0.0
C908 C 0.33137 0.9283 0.65264 0.0
C909 C 0.4211 0.94639 0.67327 0.0
H910 H 0.46301 0.05399 0.65862 0.0
C911 C 0.58771 0.05739 0.6761 0.0
C912 C 0.60423 0.07815 0.66232 0.0
C913 C 0.54673 0.03745 0.67837 0.0
C914 C 0.45176 0.02403 0.66273 0.0
H915 H 0.27755 0.85271 0.68551 0.0
H916 H 0.34714 0.90262 0.68845 0.0
H917 H 0.39162 0.00812 0.65808 0.0
H918 H 0.59085 0.09582 0.64044 0.0
H919 H 0.51955 0.06104 0.64435 0.0
H920 H 0.48108 0.96171 0.67751 0.0
C921 C 0.332 0.90218 0.67791 0.0
C922 C 0.41091 -0.00224 0.66239 0.0
C923 C 0.292 0.87379 0.67628 0.0
C924 C 0.57912 0.08053 0.65127 0.0
C925 C 0.53816 0.06051 0.65351 0.0
C926 C 0.46189 0.97258 0.67357 0.0
C927 C 0.35219 0.92963 0.66608 0.0
C928 C 0.3952 0.95848 0.66745 0.0
C929 C 0.5214 0.03773 0.66688 0.0
C930 C 0.47778 0.01154 0.66809 0.0
H931 H 0.27619 0.89969 0.64052 0.0
H932 H 0.3462 0.94875 0.64324 0.0
H933 H 0.41001 0.91618 0.67705 0.0
H934 H 0.60639 0.05548 0.68491 0.0
H935 H 0.5348 0.02082 0.68893 0.0
C936 C 0.27233 0.1501 0.87813 0.0
C937 C 0.30993 0.1553 0.88148 0.0
C938 C 0.2503 0.15566 0.88964 0.0
C939 C 0.24273 0.15994 0.93216 0.0
H940 H 0.19669 0.22602 0.92376 0.0
C941 C 0.21707 0.2479 0.97908 0.0
C942 C 0.18358 0.25244 0.97831 0.0
C943 C 0.22488 0.22816 0.9674 0.0
C944 C 0.20867 0.20685 0.92623 0.0
H945 H 0.35382 0.17038 0.89953 0.0
H946 H 0.31582 0.18028 0.91938 0.0
H947 H 0.22472 0.20648 0.9026 0.0
H948 H 0.13116 0.23856 0.96496 0.0
H949 H 0.14498 0.20404 0.94441 0.0
H950 H 0.22799 0.16143 0.95584 0.0
C951 C 0.30298 0.17139 0.90798 0.0
C952 C 0.22475 0.19568 0.91411 0.0
C953 C 0.32495 0.16605 0.89653 0.0
C954 C 0.15718 0.23546 0.96588 0.0
C955 C 0.16522 0.21597 0.95407 0.0
C956 C 0.22675 0.17112 0.94425 0.0
C957 C 0.26537 0.16618 0.90471 0.0
C958 C 0.24304 0.17312 0.91703 0.0
C959 C 0.19949 0.21265 0.95461 0.0
C960 C 0.2106 0.19567 0.94149 0.0
H961 H 0.25992 0.14171 0.86665 0.0
H962 H 0.22135 0.15136 0.88679 0.0
H963 H 0.25583 0.14179 0.93473 0.0
H964 H 0.23785 0.26044 0.98856 0.0
H965 H 0.25175 0.2265 0.96809 0.0
C966 C 0.10683 0.31571 0.0511 0.0
C967 C 0.12623 0.29974 0.04266 0.0
C968 C 0.07728 0.29237 0.06168 0.0
C969 C 0.05229 0.21685 0.08936 0.0
H970 H 0.94843 0.20751 0.09022 0.0
C971 C 0.96207 0.20429 0.14394 0.0
C972 C 0.92148 0.17609 0.14396 0.0
C973 C 0.98511 0.20955 0.13086 0.0
C974 C 0.97708 0.20933 0.09001 0.0
H975 H 0.13 0.24696 0.03844 0.0
H976 H 0.07902 0.20633 0.05753 0.0
H977 H 0.99103 0.23605 0.06755 0.0
H978 H 0.87336 0.13041 0.13056 0.0
H979 H 0.91363 0.1406 0.10743 0.0
H980 H 0.03947 0.19278 0.11228 0.0
C981 C 0.08622 0.23666 0.05565 0.0
C982 C 0.00141 0.22574 0.0771 0.0
C983 C 0.11511 0.25977 0.04473 0.0
C984 C 0.90467 0.15209 0.13089 0.0
C985 C 0.92757 0.15802 0.11766 0.0
C986 C 0.0283 0.20124 0.10242 0.0
C987 C 0.06733 0.25294 0.06427 0.0
C988 C 0.03944 0.23027 0.0768 0.0
C989 C 0.96779 0.18732 0.11746 0.0
C990 C 0.99078 0.198 0.10294 0.0
H991 H 0.11493 0.34646 0.04969 0.0
H992 H 0.0633 0.30559 0.06831 0.0
H993 H 0.0817 0.22043 0.08941 0.0
H994 H 0.97568 0.22321 0.15386 0.0
H995 H 0.01599 0.23258 0.13093 0.0
C996 C 0.74983 0.96749 0.31251 0.0
C997 C 0.74421 0.92903 0.31211 0.0
C998 C 0.77006 0.99419 0.30065 0.0
C999 C 0.78976 0.99618 0.25953 0.0
H1000 H 0.85557 0.10884 0.26701 0.0
C1001 C 0.84481 0.11515 0.21074 0.0
C1002 C 0.83942 0.14745 0.21405 0.0
C1003 C 0.83942 0.08771 0.22228 0.0
C1004 C 0.83726 0.07745 0.26473 0.0
H1005 H 0.75672 0.88879 0.2993 0.0
H1006 H 0.79214 0.93573 0.27838 0.0
H1007 H 0.83725 0.06256 0.28848 0.0
H1008 H 0.82379 0.17601 0.23201 0.0
H1009 H 0.8143 0.12841 0.25194 0.0
H1010 H 0.78869 0.01135 0.23582 0.0
C1011 C 0.78073 0.94503 0.28791 0.0
C1012 C 0.82684 0.05097 0.27701 0.0
C1013 C 0.76076 0.91832 0.29993 0.0
C1014 C 0.82829 0.15157 0.22904 0.0
C1015 C 0.82319 0.12445 0.24053 0.0
C1016 C 0.80024 0.02276 0.2472 0.0
C1017 C 0.78497 0.98302 0.28804 0.0
C1018 C 0.80189 0.01016 0.27464 0.0
C1019 C 0.82895 0.09238 0.23734 0.0
C1020 C 0.82297 0.06375 0.24978 0.0
H1021 H 0.73756 0.97664 0.32179 0.0
H1022 H 0.77238 0.02303 0.30102 0.0
H1023 H 0.77027 0.96492 0.25735 0.0
H1024 H 0.85347 0.11124 0.19929 0.0
H1025 H 0.84403 0.06325 0.2195 0.0
C1026 C 0.7198 0.83991 0.37817 0.0
C1027 C 0.6819 0.83495 0.38059 0.0
C1028 C 0.73812 0.8295 0.38973 0.0
C1029 C 0.71278 0.76593 0.42424 0.0
H1030 H 0.82262 0.83297 0.43622 0.0
C1031 C 0.76805 0.7405 0.4812 0.0
C1032 C 0.80226 0.73714 0.48074 0.0
C1033 C 0.75796 0.75612 0.46871 0.0
C1034 C 0.79202 0.81386 0.43288 0.0
H1035 H 0.634 0.81609 0.39716 0.0
H1036 H 0.66579 0.79846 0.41713 0.0
H1037 H 0.79584 0.85197 0.41426 0.0
H1038 H 0.85429 0.7502 0.46728 0.0
H1039 H 0.83653 0.77785 0.44529 0.0
H1040 H 0.7085 0.72817 0.44287 0.0
C1041 C 0.68119 0.80963 0.40628 0.0
C1042 C 0.77674 0.82463 0.42031 0.0
C1043 C 0.66302 0.81996 0.39481 0.0
C1044 C 0.82773 0.75242 0.46795 0.0
C1045 C 0.81757 0.76817 0.45537 0.0
C1046 C 0.72791 0.75535 0.43676 0.0
C1047 C 0.71872 0.81382 0.40385 0.0
C1048 C 0.73667 0.80114 0.41609 0.0
C1049 C 0.78181 0.76879 0.45543 0.0
C1050 C 0.76739 0.77956 0.44144 0.0
H1051 H 0.73515 0.85155 0.36734 0.0
H1052 H 0.76704 0.83297 0.38752 0.0
H1053 H 0.6821 0.74664 0.42105 0.0
H1054 H 0.74823 0.72972 0.49103 0.0
H1055 H 0.73072 0.75715 0.46923 0.0
C1056 C 0.87672 0.72373 0.54616 0.0
C1057 C 0.84501 0.68572 0.54955 0.0
C1058 C 0.90469 0.74591 0.55755 0.0
C1059 C 0.91692 0.75357 0.5999 0.0
H1060 H 0.02928 0.79932 0.59192 0.0
C1061 C 0.02791 0.77482 0.64701 0.0
C1062 C 0.06617 0.80805 0.64675 0.0
C1063 C 0.00114 0.76841 0.63518 0.0
C1064 C -0.00193 0.78748 0.59426 0.0
H1065 H 0.81803 0.64115 0.56748 0.0
H1066 H 0.86643 0.67952 0.58713 0.0
H1067 H 0.9821 0.77182 0.57055 0.0
H1068 H 0.10604 0.86139 0.63417 0.0
H1069 H 0.05898 0.84994 0.61328 0.0
H1070 H 0.93256 0.76781 0.62365 0.0
C1071 C 0.86957 0.69249 0.57579 0.0
C1072 C 0.97108 0.77169 0.58203 0.0
C1073 C 0.84199 0.67033 0.56446 0.0
C1074 C 0.07667 0.83558 0.63468 0.0
C1075 C 0.0499 0.82891 0.62269 0.0
C1076 C 0.9438 0.76931 0.61208 0.0
C1077 C 0.90107 0.7306 0.57254 0.0
C1078 C 0.93014 0.75332 0.58484 0.0
C1079 C 0.01202 0.79494 0.62274 0.0
C1080 C 0.98454 0.78518 0.60949 0.0
H1081 H 0.8798 0.73639 0.53478 0.0
H1082 H 0.92873 0.77521 0.55473 0.0
H1083 H 0.88558 0.74037 0.60236 0.0
H1084 H 0.01889 0.75316 0.65619 0.0
H1085 H 0.9724 0.74171 0.63548 0.0
C1086 C 0.15122 0.87831 0.71142 0.0
C1087 C 0.15134 0.84375 0.71592 0.0
C1088 C 0.15781 0.90752 0.72232 0.0
C1089 C 0.15686 0.9241 0.76439 0.0
H1090 H 0.23836 0.03186 0.75529 0.0
C1091 C 0.27951 0.06509 0.79988 0.0
C1092 C 0.25704 0.06773 0.81203 0.0
C1093 C 0.261 0.04158 0.78703 0.0
C1094 C 0.2153 0.00196 0.75796 0.0
H1095 H 0.15757 0.81234 0.73541 0.0
H1096 H 0.16902 0.86299 0.75427 0.0
H1097 H 0.21526 0.98183 0.73496 0.0
H1098 H 0.19746 0.04877 0.81997 0.0
H1099 H 0.16485 0.00703 0.79741 0.0
H1100 H 0.15827 0.94373 0.78756 0.0
C1101 C 0.16361 0.86755 0.74239 0.0
C1102 C 0.20185 0.9734 0.74628 0.0
C1103 C 0.15743 0.83866 0.73153 0.0
C1104 C 0.21554 0.04725 0.8108 0.0
C1105 C 0.1969 0.02329 0.79794 0.0
C1106 C 0.17016 0.95268 0.77604 0.0
C1107 C 0.1641 0.90239 0.73793 0.0
C1108 C 0.17344 0.93389 0.74952 0.0
C1109 C 0.2195 0.01991 0.786 0.0
C1110 C 0.20046 0.99162 0.77307 0.0
H1111 H 0.1465 0.88299 0.69947 0.0
H1112 H 0.15796 0.93406 0.71856 0.0
H1113 H 0.13453 0.89396 0.76716 0.0
H1114 H 0.31157 0.08077 0.80039 0.0
H1115 H 0.27927 0.03923 0.77815 0.0
C1116 C 0.75306 0.78793 0.83028 0.0
C1117 C 0.73775 0.81329 0.83253 0.0
C1118 C 0.76999 0.77848 0.84254 0.0
C1119 C 0.77163 0.73685 0.87118 0.0
H1120 H 0.82036 0.80188 0.90729 0.0
C1121 C 0.78547 0.66573 0.92648 0.0
C1122 C 0.82016 0.68632 0.93522 0.0
C1123 C 0.77705 0.68482 0.91474 0.0
C1124 C 0.80717 0.78341 0.89724 0.0
H1125 H 0.72935 0.84999 0.84907 0.0
H1126 H 0.75712 0.83206 0.87076 0.0
H1127 H 0.80827 0.83103 0.88451 0.0
H1128 H 0.87284 0.7432 0.93898 0.0
H1129 H 0.85909 0.77645 0.91796 0.0
H1130 H 0.77201 0.6898 0.88345 0.0
C1131 C 0.75743 0.82039 0.85947 0.0
C1132 C 0.79979 0.80004 0.88421 0.0
C1133 C 0.74144 0.83069 0.84705 0.0
C1134 C 0.8457 0.7268 0.93242 0.0
C1135 C 0.83774 0.7458 0.9204 0.0
C1136 C 0.77955 0.72051 0.88403 0.0
C1137 C 0.7707 0.79305 0.85748 0.0
C1138 C 0.78154 0.77683 0.87104 0.0
C1139 C 0.80372 0.72474 0.91115 0.0
C1140 C 0.79678 0.74328 0.89735 0.0
H1141 H 0.7507 0.77435 0.81912 0.0
H1142 H 0.78115 0.75848 0.84039 0.0
H1143 H 0.75681 0.71759 0.86147 0.0
H1144 H 0.76507 0.63459 0.92856 0.0
H1145 H 0.74988 0.66792 0.90827 0.0
C1146 C 0.96566 0.75954 0.99841 0.0
C1147 C 0.9252 0.74479 0.00109 0.0
C1148 C 0.99297 0.77659 0.0104 0.0
C1149 C 0.03819 0.7791 0.03863 0.0
H1150 H 0.02431 0.82895 0.07492 0.0
C1151 C 0.12413 0.79177 0.0936 0.0
C1152 C 0.13867 0.82628 0.10248 0.0
C1153 C 0.09685 0.78407 0.08183 0.0
C1154 C 0.02894 0.81547 0.06481 0.0
H1155 H 0.88151 0.73756 0.01814 0.0
H1156 H 0.92876 0.76554 0.03931 0.0
H1157 H 0.982 0.81677 0.05248 0.0
H1158 H 0.1356 0.87951 0.10637 0.0
H1159 H 0.08892 0.86696 0.08532 0.0
H1160 H 0.08602 0.77922 0.05053 0.0
C1161 C 0.93989 0.7653 0.02789 0.0
C1162 C 0.0043 0.80802 0.05198 0.0
C1163 C 0.91268 0.74915 0.01576 0.0
C1164 C 0.12452 0.85249 0.09972 0.0
C1165 C 0.09774 0.84521 0.08768 0.0
C1166 C 0.06309 0.78709 0.05128 0.0
C1167 C 0.98028 0.77807 0.02548 0.0
C1168 C 0.00828 0.78926 0.03876 0.0
C1169 C 0.0842 0.81126 0.07836 0.0
C1170 C 0.0584 0.80467 0.06468 0.0
H1171 H 0.97601 0.75671 0.98713 0.0
H1172 H 0.02392 0.78731 0.00791 0.0
H1173 H 0.04193 0.76394 0.02888 0.0
H1174 H 0.13424 0.77085 0.09565 0.0
H1175 H 0.08614 0.75694 0.0753 0.0
C1176 C 0.15771 0.92162 0.18015 0.0
C1177 C 0.18443 0.93153 0.16781 0.0
C1178 C 0.16494 0.94907 0.19192 0.0
C1179 C 0.2252 0.05562 0.20184 0.0
H1180 H 0.22486 0.01829 0.24336 0.0
C1181 C 0.32673 0.15808 0.24892 0.0
C1182 C 0.31251 0.1545 0.26407 0.0
C1183 C 0.30373 0.13085 0.23761 0.0
C1184 C 0.22438 0.02907 0.23189 0.0
H1185 H 0.2383 0.97855 0.15761 0.0
H1186 H 0.25079 0.02624 0.17798 0.0
H1187 H 0.19623 0.9707 0.22223 0.0
H1188 H 0.26288 0.11934 0.27926 0.0
H1189 H 0.22256 0.07109 0.25937 0.0
H1190 H 0.25464 0.11404 0.21137 0.0
C1191 C 0.22428 0.99741 0.17865 0.0
C1192 C 0.20794 0.00183 0.21978 0.0
C1193 C 0.21729 0.96996 0.16702 0.0
C1194 C 0.27467 0.12281 0.26768 0.0
C1195 C 0.25163 0.09523 0.25633 0.0
C1196 C 0.24157 0.08278 0.21391 0.0
C1197 C 0.19871 0.98704 0.1914 0.0
C1198 C 0.2094 0.01496 0.20455 0.0
C1199 C 0.26591 0.09917 0.24114 0.0
C1200 C 0.24259 0.06991 0.22897 0.0
H1201 H 0.13218 0.89216 0.18108 0.0
H1202 H 0.14459 0.94036 0.20156 0.0
H1203 H 0.22608 0.06656 0.19028 0.0
H1204 H 0.35573 0.18209 0.24571 0.0
H1205 H 0.31593 0.13428 0.22611 0.0
C1206 C 0.18679 0.33468 0.42092 0.0
C1207 C 0.16619 0.31388 0.43417 0.0
C1208 C 0.19821 0.31665 0.40978 0.0
C1209 C 0.17668 0.22042 0.39405 0.0
H1210 H 0.27936 0.28492 0.37486 0.0
C1211 C 0.24811 0.16849 0.34622 0.0
C1212 C 0.26604 0.1957 0.33409 0.0
C1213 C 0.2327 0.1783 0.35903 0.0
C1214 C 0.25054 0.26657 0.38007 0.0
H1215 H 0.14118 0.25757 0.44611 0.0
H1216 H 0.16161 0.22589 0.42652 0.0
H1217 H 0.26059 0.31077 0.39681 0.0
H1218 H 0.27861 0.25283 0.3252 0.0
H1219 H 0.25216 0.26987 0.34745 0.0
H1220 H 0.16697 0.17621 0.37708 0.0
C1221 C 0.16863 0.25621 0.42479 0.0
C1222 C 0.23976 0.28137 0.39264 0.0
C1223 C 0.15716 0.2744 0.43603 0.0
C1224 C 0.26585 0.23161 0.33452 0.0
C1225 C 0.25074 0.24141 0.34727 0.0
C1226 C 0.18767 0.20542 0.38145 0.0
C1227 C 0.1895 0.27731 0.41158 0.0
C1228 C 0.2023 0.259 0.39951 0.0
C1229 C 0.2352 0.21547 0.35987 0.0
C1230 C 0.2243 0.22889 0.3741 0.0
H1231 H 0.19402 0.36503 0.41904 0.0
H1232 H 0.2135 0.33352 0.39961 0.0
H1233 H 0.14758 0.20251 0.39909 0.0
H1234 H 0.24778 0.14057 0.3462 0.0
H1235 H 0.22072 0.15774 0.36859 0.0
C1236 C 0.87128 0.1492 0.60064 0.0
C1237 C 0.83955 0.15552 0.59733 0.0
C1238 C 0.89839 0.15372 0.58908 0.0
C1239 C 0.90908 0.15603 0.54659 0.0
H1240 H 0.02171 0.22124 0.55433 0.0
C1241 C 0.02117 0.24251 0.49915 0.0
C1242 C 0.05952 0.24783 0.49985 0.0
C1243 C 0.99384 0.22234 0.51085 0.0
C1244 C 0.99041 0.20223 0.55205 0.0
H1245 H 0.81147 0.17154 0.57931 0.0
H1246 H 0.85851 0.17952 0.55935 0.0
H1247 H 0.97495 0.20322 0.57572 0.0
H1248 H 0.09879 0.23462 0.513 0.0
H1249 H 0.05079 0.19924 0.53359 0.0
H1250 H 0.92432 0.15614 0.52287 0.0
C1251 C 0.8623 0.17063 0.57077 0.0
C1252 C 0.96363 0.19198 0.5643 0.0
C1253 C 0.83551 0.1664 0.58228 0.0
C1254 C 0.0694 0.23088 0.51214 0.0
C1255 C 0.04207 0.21092 0.52397 0.0
C1256 C 0.93578 0.16623 0.53438 0.0
C1257 C 0.89396 0.16422 0.57399 0.0
C1258 C 0.92263 0.16987 0.5616 0.0
C1259 C 0.00425 0.20715 0.52359 0.0
C1260 C 0.97665 0.19052 0.53688 0.0
H1261 H 0.87511 0.1407 0.61213 0.0
H1262 H 0.9225 0.14856 0.59189 0.0
H1263 H 0.87767 0.13822 0.54421 0.0
H1264 H 0.01261 0.25505 0.48978 0.0
H1265 H 0.96515 0.22035 0.51027 0.0
C1266 C 0.83359 0.07756 0.67809 0.0
C1267 C 0.80608 0.06754 0.66604 0.0
C1268 C 0.82685 0.05033 0.6899 0.0
C1269 C 0.76698 0.94403 0.7001 0.0
H1270 H 0.76926 0.98155 0.74174 0.0
C1271 C 0.66878 0.84103 0.74781 0.0
C1272 C 0.68399 0.84499 0.7628 0.0
C1273 C 0.69075 0.86843 0.73638 0.0
C1274 C 0.76919 0.97071 0.73023 0.0
H1275 H 0.75124 0.02064 0.65639 0.0
H1276 H 0.73969 0.97335 0.6768 0.0
H1277 H 0.79684 0.02905 0.72053 0.0
H1278 H 0.73426 0.88103 0.77759 0.0
H1279 H 0.77277 0.92942 0.7575 0.0
H1280 H 0.73814 0.88567 0.70966 0.0
C1281 C 0.76641 0.00206 0.67722 0.0
C1282 C 0.78503 -0.0021 0.71809 0.0
C1283 C 0.77287 0.02928 0.66558 0.0
C1284 C 0.72171 0.87724 0.76614 0.0
C1285 C 0.74372 0.90493 0.75466 0.0
C1286 C 0.75122 0.91692 0.71221 0.0
C1287 C 0.79285 0.0125 0.68968 0.0
C1288 C 0.78287 0.98469 0.70283 0.0
C1289 C 0.72852 0.9006 0.73963 0.0
C1290 C 0.75092 0.92984 0.72732 0.0
H1291 H 0.85937 0.10691 0.67876 0.0
H1292 H 0.84782 0.05908 0.69932 0.0
H1293 H 0.76555 0.93304 0.6885 0.0
H1294 H 0.63981 0.81661 0.74482 0.0
H1295 H 0.67783 0.86468 0.725 0.0
loop_
_geom_bond_atom_site_label_1
_geom_bond_atom_site_label_2
_geom_bond_distance
_geom_bond_site_symmetry_2
_ccdc_geom_bond_type
C0 C1 1.351 . S
C0 N3 1.368 . S
C0 H5 0.931 . S
C1 C0 1.351 . S
C1 N2 1.373 . S
C1 H29 0.930 . S
N2 C1 1.373 . S
N2 C4 1.340 . S
N3 C0 1.368 . S
N3 C4 1.321 . S
N3 Co6 2.135 . S
C4 N2 1.340 . S
C4 N3 1.321 . S
C4 H28 0.930 . S
H5 C0 0.931 . S
Co6 N3 2.135 . S
Co6 N9 2.121 1_554 S
Co6 O14 2.055 . S
Co6 O17 2.039 1_554 S
Co6 N20 2.140 . S
C7 O8 1.227 . S
C7 O17 1.265 . S
O8 C7 1.227 . S
N9 Co6 2.121 1_556 S
N9 C11 1.375 . S
N9 C12 1.313 . S
C10 C11 1.338 . S
C10 N13 1.377 . S
C10 H30 0.930 . S
C11 N9 1.375 . S
C11 C10 1.338 . S
C11 H15 0.931 . S
C12 N9 1.313 . S
C12 N13 1.344 . S
C12 H16 0.930 1_556 S
N13 C10 1.377 . S
N13 C12 1.344 . S
O14 Co6 2.055 . S
O14 C18 1.253 . S
H15 C11 0.931 . S
H16 C12 0.930 1_554 S
O17 Co6 2.039 1_556 S
O17 C7 1.265 . S
C18 O14 1.253 . S
C18 O19 1.227 . S
O19 C18 1.227 . S
N20 Co6 2.140 . S
N20 C23 1.346 . S
N20 C24 1.345 . S
C21 C22 1.387 . S
C21 C25 1.391 . S
C22 C21 1.387 . S
C22 C23 1.369 . S
C22 H31 0.929 . S
C23 N20 1.346 . S
C23 C22 1.369 . S
C23 H26 0.928 . S
C24 N20 1.345 . S
C24 C25 1.371 . S
C24 H27 0.931 . S
C25 C21 1.391 . S
C25 C24 1.371 . S
C25 H32 0.930 . S
H26 C23 0.928 . S
H27 C24 0.931 . S
H28 C4 0.930 . S
H29 C1 0.930 . S
H30 C10 0.930 . S
H31 C22 0.929 . S
H32 C25 0.930 . S
C33 C34 1.351 1_655 S
C33 N36 1.368 . S
C33 H38 0.931 . S
C34 C33 1.351 1_455 S
C34 N35 1.373 . S
C34 H62 0.930 . S
N35 C34 1.373 . S
N35 C37 1.340 . S
N36 C33 1.368 . S
N36 C37 1.321 1_655 S
N36 Co39 2.135 . S
C37 N35 1.340 . S
C37 N36 1.321 1_455 S
C37 H61 0.930 . S
H38 C33 0.931 . S
Co39 N36 2.135 . S
Co39 N42 2.121 . S
Co39 O47 2.055 . S
Co39 O50 2.039 . S
Co39 N53 2.140 . S
C40 O41 1.227 . S
C40 O50 1.265 . S
O41 C40 1.227 . S
N42 Co39 2.121 . S
N42 C44 1.375 . S
N42 C45 1.313 . S
C43 C44 1.338 . S
C43 N46 1.377 . S
C43 H63 0.930 . S
C44 N42 1.375 . S
C44 C43 1.338 . S
C44 H48 0.931 . S
C45 N42 1.313 . S
C45 N46 1.344 . S
C45 H49 0.930 . S
N46 C43 1.377 . S
N46 C45 1.344 . S
O47 Co39 2.055 . S
O47 C51 1.253 . S
H48 C44 0.931 . S
H49 C45 0.930 . S
O50 Co39 2.039 . S
O50 C40 1.265 . S
C51 O47 1.253 . S
C51 O52 1.227 . S
O52 C51 1.227 . S
N53 Co39 2.140 . S
N53 C56 1.346 . S
N53 C57 1.345 . S
C54 C55 1.387 . S
C54 C58 1.391 . S
C55 C54 1.387 . S
C55 C56 1.369 . S
C55 H64 0.929 1_655 S
C56 N53 1.346 . S
C56 C55 1.369 . S
C56 H59 0.928 . S
C57 N53 1.345 . S
C57 C58 1.371 . S
C57 H60 0.931 . S
C58 C54 1.391 . S
C58 C57 1.371 . S
C58 H65 0.930 . S
H59 C56 0.928 . S
H60 C57 0.931 . S
H61 C37 0.930 . S
H62 C34 0.930 . S
H63 C43 0.930 . S
H64 C55 0.929 1_455 S
H65 C58 0.930 . S
C66 C67 1.351 1_565 S
C66 N69 1.368 . S
C66 H71 0.931 . S
C67 C66 1.351 1_545 S
C67 N68 1.373 . S
C67 H95 0.930 . S
N68 C67 1.373 . S
N68 C70 1.340 . S
N69 C66 1.368 . S
N69 C70 1.321 1_565 S
N69 Co72 2.135 . S
C70 N68 1.340 . S
C70 N69 1.321 1_545 S
C70 H94 0.930 . S
H71 C66 0.931 . S
Co72 N69 2.135 . S
Co72 N75 2.121 . S
Co72 O80 2.055 . S
Co72 O83 2.039 . S
Co72 N86 2.140 . S
C73 O74 1.227 . S
C73 O83 1.265 . S
O74 C73 1.227 . S
N75 Co72 2.121 . S
N75 C77 1.375 . S
N75 C78 1.313 . S
C76 C77 1.338 . S
C76 N79 1.377 . S
C76 H96 0.930 . S
C77 N75 1.375 . S
C77 C76 1.338 . S
C77 H81 0.931 . S
C78 N75 1.313 . S
C78 N79 1.344 . S
C78 H82 0.930 . S
N79 C76 1.377 . S
N79 C78 1.344 . S
O80 Co72 2.055 . S
O80 C84 1.253 . S
H81 C77 0.931 . S
H82 C78 0.930 . S
O83 Co72 2.039 . S
O83 C73 1.265 . S
C84 O80 1.253 . S
C84 O85 1.227 . S
O85 C84 1.227 . S
N86 Co72 2.140 . S
N86 C89 1.346 . S
N86 C90 1.345 . S
C87 C88 1.387 . S
C87 C91 1.391 . S
C88 C87 1.387 . S
C88 C89 1.369 . S
C88 H97 0.929 1_565 S
C89 N86 1.346 . S
C89 C88 1.369 . S
C89 H92 0.928 . S
C90 N86 1.345 . S
C90 C91 1.371 . S
C90 H93 0.931 . S
C91 C87 1.391 . S
C91 C90 1.371 . S
C91 H98 0.930 . S
H92 C89 0.928 . S
H93 C90 0.931 . S
H94 C70 0.930 . S
H95 C67 0.930 . S
H96 C76 0.930 . S
H97 C88 0.929 1_545 S
H98 C91 0.930 . S
C99 C100 1.351 . S
C99 N102 1.368 . S
C99 H104 0.931 . S
C100 C99 1.351 . S
C100 N101 1.373 . S
C100 H128 0.930 . S
N101 C100 1.373 . S
N101 C103 1.340 . S
N102 C99 1.368 . S
N102 C103 1.321 . S
N102 Co105 2.135 . S
C103 N101 1.340 . S
C103 N102 1.321 . S
C103 H127 0.930 . S
H104 C99 0.931 . S
Co105 N102 2.135 . S
Co105 N108 2.121 . S
Co105 O113 2.055 . S
Co105 O116 2.039 . S
Co105 N119 2.140 . S
C106 O107 1.227 . S
C106 O116 1.265 . S
O107 C106 1.227 . S
N108 Co105 2.121 . S
N108 C110 1.375 . S
N108 C111 1.313 . S
C109 C110 1.338 . S
C109 N112 1.377 . S
C109 H129 0.930 . S
C110 N108 1.375 . S
C110 C109 1.338 . S
C110 H114 0.931 . S
C111 N108 1.313 . S
C111 N112 1.344 . S
C111 H115 0.930 . S
N112 C109 1.377 . S
N112 C111 1.344 . S
O113 Co105 2.055 . S
O113 C117 1.253 . S
H114 C110 0.931 . S
H115 C111 0.930 . S
O116 Co105 2.039 . S
O116 C106 1.265 . S
C117 O113 1.253 . S
C117 O118 1.227 . S
O118 C117 1.227 . S
N119 Co105 2.140 . S
N119 C122 1.346 . S
N119 C123 1.345 . S
C120 C121 1.387 . S
C120 C124 1.391 . S
C121 C120 1.387 . S
C121 C122 1.369 . S
C121 H130 0.929 . S
C122 N119 1.346 . S
C122 C121 1.369 . S
C122 H125 0.928 . S
C123 N119 1.345 . S
C123 C124 1.371 . S
C123 H126 0.931 . S
C124 C120 1.391 . S
C124 C123 1.371 . S
C124 H131 0.930 . S
H125 C122 0.928 . S
H126 C123 0.931 . S
H127 C103 0.930 . S
H128 C100 0.930 . S
H129 C109 0.930 . S
H130 C121 0.929 . S
H131 C124 0.930 . S
C132 C133 1.351 1_455 S
C132 N135 1.368 . S
C132 H137 0.931 . S
C133 C132 1.351 1_655 S
C133 N134 1.373 . S
C133 H161 0.930 . S
N134 C133 1.373 . S
N134 C136 1.340 . S
N135 C132 1.368 . S
N135 C136 1.321 1_455 S
N135 Co138 2.135 . S
C136 N134 1.340 . S
C136 N135 1.321 1_655 S
C136 H160 0.930 . S
H137 C132 0.931 . S
Co138 N135 2.135 . S
Co138 N141 2.121 . S
Co138 O146 2.055 . S
Co138 O149 2.039 . S
Co138 N152 2.140 . S
C139 O140 1.227 . S
C139 O149 1.265 . S
O140 C139 1.227 . S
N141 Co138 2.121 . S
N141 C143 1.375 . S
N141 C144 1.313 . S
C142 C143 1.338 . S
C142 N145 1.377 . S
C142 H162 0.930 . S
C143 N141 1.375 . S
C143 C142 1.338 . S
C143 H147 0.931 . S
C144 N141 1.313 . S
C144 N145 1.344 . S
C144 H148 0.930 . S
N145 C142 1.377 . S
N145 C144 1.344 . S
O146 Co138 2.055 . S
O146 C150 1.253 . S
H147 C143 0.931 . S
H148 C144 0.930 . S
O149 Co138 2.039 . S
O149 C139 1.265 . S
C150 O146 1.253 . S
C150 O151 1.227 . S
O151 C150 1.227 . S
N152 Co138 2.140 . S
N152 C155 1.346 . S
N152 C156 1.345 . S
C153 C154 1.387 . S
C153 C157 1.391 . S
C154 C153 1.387 . S
C154 C155 1.369 . S
C154 H163 0.929 1_455 S
C155 N152 1.346 . S
C155 C154 1.369 . S
C155 H158 0.928 . S
C156 N152 1.345 . S
C156 C157 1.371 . S
C156 H159 0.931 . S
C157 C153 1.391 . S
C157 C156 1.371 . S
C157 H164 0.930 . S
H158 C155 0.928 . S
H159 C156 0.931 . S
H160 C136 0.930 . S
H161 C133 0.930 . S
H162 C142 0.930 . S
H163 C154 0.929 1_655 S
H164 C157 0.930 . S
C165 C166 1.351 1_545 S
C165 N168 1.368 . S
C165 H170 0.931 . S
C166 C165 1.351 1_565 S
C166 N167 1.373 . S
C166 H194 0.930 . S
N167 C166 1.373 . S
N167 C169 1.340 . S
N168 C165 1.368 . S
N168 C169 1.321 1_545 S
N168 Co171 2.135 . S
C169 N167 1.340 . S
C169 N168 1.321 1_565 S
C169 H193 0.930 . S
H170 C165 0.931 . S
Co171 N168 2.135 . S
Co171 N174 2.121 . S
Co171 O179 2.055 . S
Co171 O182 2.039 . S
Co171 N185 2.140 . S
C172 O173 1.227 . S
C172 O182 1.265 . S
O173 C172 1.227 . S
N174 Co171 2.121 . S
N174 C176 1.375 . S
N174 C177 1.313 . S
C175 C176 1.338 . S
C175 N178 1.377 . S
C175 H195 0.930 . S
C176 N174 1.375 . S
C176 C175 1.338 . S
C176 H180 0.931 . S
C177 N174 1.313 . S
C177 N178 1.344 . S
C177 H181 0.930 . S
N178 C175 1.377 . S
N178 C177 1.344 . S
O179 Co171 2.055 . S
O179 C183 1.253 . S
H180 C176 0.931 . S
H181 C177 0.930 . S
O182 Co171 2.039 . S
O182 C172 1.265 . S
C183 O179 1.253 . S
C183 O184 1.227 . S
O184 C183 1.227 . S
N185 Co171 2.140 . S
N185 C188 1.346 . S
N185 C189 1.345 . S
C186 C187 1.387 . S
C186 C190 1.391 . S
C187 C186 1.387 . S
C187 C188 1.369 . S
C187 H196 0.929 1_545 S
C188 N185 1.346 . S
C188 C187 1.369 . S
C188 H191 0.928 . S
C189 N185 1.345 . S
C189 C190 1.371 . S
C189 H192 0.931 . S
C190 C186 1.391 . S
C190 C189 1.371 . S
C190 H197 0.930 . S
H191 C188 0.928 . S
H192 C189 0.931 . S
H193 C169 0.930 . S
H194 C166 0.930 . S
H195 C175 0.930 . S
H196 C187 0.929 1_565 S
H197 C190 0.930 . S
C198 C199 1.351 . S
C198 N201 1.368 . S
C198 H203 0.931 . S
C199 C198 1.351 . S
C199 N200 1.373 . S
C199 H227 0.930 . S
N200 C199 1.373 . S
N200 C202 1.340 . S
N201 C198 1.368 . S
N201 C202 1.321 . S
N201 Co204 2.135 . S
C202 N200 1.340 . S
C202 N201 1.321 . S
C202 H226 0.930 . S
H203 C198 0.931 . S
Co204 N201 2.135 . S
Co204 N207 2.121 . S
Co204 O212 2.055 . S
Co204 O215 2.039 . S
Co204 N218 2.140 . S
C205 O206 1.227 . S
C205 O215 1.265 . S
O206 C205 1.227 . S
N207 Co204 2.121 . S
N207 C209 1.375 . S
N207 C210 1.313 . S
C208 C209 1.338 . S
C208 N211 1.377 . S
C208 H228 0.930 . S
C209 N207 1.375 . S
C209 C208 1.338 . S
C209 H213 0.931 . S
C210 N207 1.313 . S
C210 N211 1.344 . S
C210 H214 0.930 . S
N211 C208 1.377 . S
N211 C210 1.344 . S
O212 Co204 2.055 . S
O212 C216 1.253 . S
H213 C209 0.931 . S
H214 C210 0.930 . S
O215 Co204 2.039 . S
O215 C205 1.265 . S
C216 O212 1.253 . S
C216 O217 1.227 . S
O217 C216 1.227 . S
N218 Co204 2.140 . S
N218 C221 1.346 . S
N218 C222 1.345 . S
C219 C220 1.387 . S
C219 C223 1.391 . S
C220 C219 1.387 . S
C220 C221 1.369 . S
C220 H229 0.929 . S
C221 N218 1.346 . S
C221 C220 1.369 . S
C221 H224 0.928 . S
C222 N218 1.345 . S
C222 C223 1.371 . S
C222 H225 0.931 . S
C223 C219 1.391 . S
C223 C222 1.371 . S
C223 H230 0.930 . S
H224 C221 0.928 . S
H225 C222 0.931 . S
H226 C202 0.930 . S
H227 C199 0.930 . S
H228 C208 0.930 . S
H229 C220 0.929 . S
H230 C223 0.930 . S
C231 C232 1.351 1_655 S
C231 N234 1.368 . S
C231 H236 0.931 . S
C232 C231 1.351 1_455 S
C232 N233 1.373 . S
C232 H260 0.930 . S
N233 C232 1.373 . S
N233 C235 1.340 . S
N234 C231 1.368 . S
N234 C235 1.321 1_655 S
N234 Co237 2.135 . S
C235 N233 1.340 . S
C235 N234 1.321 1_455 S
C235 H259 0.930 . S
H236 C231 0.931 . S
Co237 N234 2.135 . S
Co237 N240 2.121 . S
Co237 O245 2.055 . S
Co237 O248 2.039 . S
Co237 N251 2.140 . S
C238 O239 1.232 . S
C238 O248 1.293 . S
O239 C238 1.232 . S
N240 Co237 2.121 . S
N240 C242 1.375 1_556 S
N240 C243 1.313 . S
C241 C242 1.338 . S
C241 N244 1.377 1_554 S
C241 H261 0.930 . S
C242 N240 1.375 1_554 S
C242 C241 1.338 . S
C242 H246 0.931 . S
C243 N240 1.313 . S
C243 N244 1.344 . S
C243 H247 0.930 . S
N244 C241 1.377 1_556 S
N244 C243 1.344 . S
O245 Co237 2.055 . S
O245 C249 1.253 . S
H246 C242 0.931 . S
H247 C243 0.930 . S
O248 Co237 2.039 . S
O248 C238 1.293 . S
C249 O245 1.253 . S
C249 O250 1.227 . S
O250 C249 1.227 . S
N251 Co237 2.140 . S
N251 C254 1.346 . S
N251 C255 1.345 . S
C252 C253 1.387 . S
C252 C256 1.391 . S
C253 C252 1.387 . S
C253 C254 1.369 . S
C253 H262 0.929 1_655 S
C254 N251 1.346 . S
C254 C253 1.369 . S
C254 H257 0.928 . S
C255 N251 1.345 . S
C255 C256 1.371 . S
C255 H258 0.931 . S
C256 C252 1.391 . S
C256 C255 1.371 . S
C256 H263 0.930 . S
H257 C254 0.928 . S
H258 C255 0.931 . S
H259 C235 0.930 . S
H260 C232 0.930 . S
H261 C241 0.930 . S
H262 C253 0.929 1_455 S
H263 C256 0.930 . S
C264 C265 1.351 1_565 S
C264 N267 1.368 . S
C264 H269 0.931 . S
C265 C264 1.351 1_545 S
C265 N266 1.373 . S
C265 H293 0.930 . S
N266 C265 1.373 . S
N266 C268 1.340 . S
N267 C264 1.368 . S
N267 C268 1.321 1_565 S
N267 Co270 2.135 . S
C268 N266 1.340 . S
C268 N267 1.321 1_545 S
C268 H292 0.930 . S
H269 C264 0.931 . S
Co270 N267 2.135 . S
Co270 N273 2.121 . S
Co270 O278 2.055 . S
Co270 O281 2.039 . S
Co270 N284 2.140 . S
C271 O272 1.227 . S
C271 O281 1.265 . S
O272 C271 1.227 . S
N273 Co270 2.121 . S
N273 C275 1.375 . S
N273 C276 1.313 . S
C274 C275 1.338 . S
C274 N277 1.377 . S
C274 H294 0.930 . S
C275 N273 1.375 . S
C275 C274 1.338 . S
C275 H279 0.931 . S
C276 N273 1.313 . S
C276 N277 1.344 . S
C276 H280 0.930 . S
N277 C274 1.377 . S
N277 C276 1.344 . S
O278 Co270 2.055 . S
O278 C282 1.253 . S
H279 C275 0.931 . S
H280 C276 0.930 . S
O281 Co270 2.039 . S
O281 C271 1.265 . S
C282 O278 1.253 . S
C282 O283 1.227 . S
O283 C282 1.227 . S
N284 Co270 2.140 . S
N284 C287 1.346 . S
N284 C288 1.345 . S
C285 C286 1.387 . S
C285 C289 1.391 . S
C286 C285 1.387 . S
C286 C287 1.369 . S
C286 H295 0.929 1_565 S
C287 N284 1.346 . S
C287 C286 1.369 . S
C287 H290 0.928 . S
C288 N284 1.345 . S
C288 C289 1.371 . S
C288 H291 0.931 . S
C289 C285 1.391 . S
C289 C288 1.371 . S
C289 H296 0.930 . S
H290 C287 0.928 . S
H291 C288 0.931 . S
H292 C268 0.930 . S
H293 C265 0.930 . S
H294 C274 0.930 . S
H295 C286 0.929 1_545 S
H296 C289 0.930 . S
C297 C298 1.351 . S
C297 N300 1.368 . S
C297 H302 0.931 . S
C298 C297 1.351 . S
C298 N299 1.373 . S
C298 H326 0.930 . S
N299 C298 1.373 . S
N299 C301 1.340 . S
N300 C297 1.368 . S
N300 C301 1.321 . S
N300 Co303 2.135 . S
C301 N299 1.340 . S
C301 N300 1.321 . S
C301 H325 0.930 . S
H302 C297 0.931 . S
Co303 N300 2.135 . S
Co303 N306 2.121 . S
Co303 O311 2.055 . S
Co303 O314 2.039 . S
Co303 N317 2.140 . S
C304 O305 1.227 . S
C304 O314 1.265 . S
O305 C304 1.227 . S
N306 Co303 2.121 . S
N306 C308 1.375 . S
N306 C309 1.313 . S
C307 C308 1.338 . S
C307 N310 1.377 . S
C307 H327 0.930 . S
C308 N306 1.375 . S
C308 C307 1.338 . S
C308 H312 0.931 . S
C309 N306 1.313 . S
C309 N310 1.344 . S
C309 H313 0.930 . S
N310 C307 1.377 . S
N310 C309 1.344 . S
O311 Co303 2.055 . S
O311 C315 1.253 . S
H312 C308 0.931 . S
H313 C309 0.930 . S
O314 Co303 2.039 . S
O314 C304 1.265 . S
C315 O311 1.253 . S
C315 O316 1.227 . S
O316 C315 1.227 . S
N317 Co303 2.140 . S
N317 C320 1.346 . S
N317 C321 1.345 . S
C318 C319 1.387 . S
C318 C322 1.391 . S
C319 C318 1.387 . S
C319 C320 1.369 . S
C319 H328 0.929 . S
C320 N317 1.346 . S
C320 C319 1.369 . S
C320 H323 0.928 . S
C321 N317 1.345 . S
C321 C322 1.371 . S
C321 H324 0.931 . S
C322 C318 1.391 . S
C322 C321 1.371 . S
C322 H329 0.930 . S
H323 C320 0.928 . S
H324 C321 0.931 . S
H325 C301 0.930 . S
H326 C298 0.930 . S
H327 C307 0.930 . S
H328 C319 0.929 . S
H329 C322 0.930 . S
C330 C331 1.351 1_455 S
C330 N333 1.368 . S
C330 H335 0.931 . S
C331 C330 1.351 1_655 S
C331 N332 1.373 . S
C331 H359 0.930 . S
N332 C331 1.373 . S
N332 C334 1.340 . S
N333 C330 1.368 . S
N333 C334 1.321 1_455 S
N333 Co336 2.135 . S
C334 N332 1.340 . S
C334 N333 1.321 1_655 S
C334 H358 0.930 . S
H335 C330 0.931 . S
Co336 N333 2.135 . S
Co336 N339 2.121 . S
Co336 O344 2.055 . S
Co336 O347 2.039 . S
Co336 N350 2.140 . S
C337 O338 1.227 . S
C337 O347 1.265 . S
O338 C337 1.227 . S
N339 Co336 2.121 . S
N339 C341 1.375 . S
N339 C342 1.313 . S
C340 C341 1.338 . S
C340 N343 1.377 . S
C340 H360 0.930 . S
C341 N339 1.375 . S
C341 C340 1.338 . S
C341 H345 0.931 . S
C342 N339 1.313 . S
C342 N343 1.344 . S
C342 H346 0.930 . S
N343 C340 1.377 . S
N343 C342 1.344 . S
O344 Co336 2.055 . S
O344 C348 1.253 . S
H345 C341 0.931 . S
H346 C342 0.930 . S
O347 Co336 2.039 . S
O347 C337 1.265 . S
C348 O344 1.253 . S
C348 O349 1.227 . S
O349 C348 1.227 . S
N350 Co336 2.140 . S
N350 C353 1.346 . S
N350 C354 1.345 . S
C351 C352 1.387 . S
C351 C355 1.391 . S
C352 C351 1.387 . S
C352 C353 1.369 . S
C352 H361 0.929 1_455 S
C353 N350 1.346 . S
C353 C352 1.369 . S
C353 H356 0.928 . S
C354 N350 1.345 . S
C354 C355 1.371 . S
C354 H357 0.931 . S
C355 C351 1.391 . S
C355 C354 1.371 . S
C355 H362 0.930 . S
H356 C353 0.928 . S
H357 C354 0.931 . S
H358 C334 0.930 . S
H359 C331 0.930 . S
H360 C340 0.930 . S
H361 C352 0.929 1_655 S
H362 C355 0.930 . S
C363 C364 1.351 1_545 S
C363 N366 1.368 . S
C363 H368 0.931 . S
C364 C363 1.351 1_565 S
C364 N365 1.373 . S
C364 H392 0.930 . S
N365 C364 1.373 . S
N365 C367 1.340 . S
N366 C363 1.368 . S
N366 C367 1.321 1_545 S
N366 Co369 2.135 . S
C367 N365 1.340 . S
C367 N366 1.321 1_565 S
C367 H391 0.930 . S
H368 C363 0.931 . S
Co369 N366 2.135 . S
Co369 N372 2.121 . S
Co369 O377 2.055 . S
Co369 O380 2.039 . S
Co369 N383 2.140 . S
C370 O371 1.227 . S
C370 O380 1.265 . S
O371 C370 1.227 . S
N372 Co369 2.121 . S
N372 C374 1.375 . S
N372 C375 1.313 . S
C373 C374 1.338 . S
C373 N376 1.377 . S
C373 H393 0.930 . S
C374 N372 1.375 . S
C374 C373 1.338 . S
C374 H378 0.931 . S
C375 N372 1.313 . S
C375 N376 1.344 . S
C375 H379 0.930 . S
N376 C373 1.377 . S
N376 C375 1.344 . S
O377 Co369 2.055 . S
O377 C381 1.253 . S
H378 C374 0.931 . S
H379 C375 0.930 . S
O380 Co369 2.039 . S
O380 C370 1.265 . S
C381 O377 1.253 . S
C381 O382 1.227 . S
O382 C381 1.227 . S
N383 Co369 2.140 . S
N383 C386 1.346 . S
N383 C387 1.345 . S
C384 C385 1.387 . S
C384 C388 1.391 . S
C385 C384 1.387 . S
C385 C386 1.369 . S
C385 H394 0.929 1_545 S
C386 N383 1.346 . S
C386 C385 1.369 . S
C386 H389 0.928 . S
C387 N383 1.345 . S
C387 C388 1.371 . S
C387 H390 0.931 . S
C388 C384 1.391 . S
C388 C387 1.371 . S
C388 H395 0.930 . S
H389 C386 0.928 . S
H390 C387 0.931 . S
H391 C367 0.930 . S
H392 C364 0.930 . S
H393 C373 0.930 . S
H394 C385 0.929 1_565 S
H395 C388 0.930 . S
C396 C397 1.349 . S
C396 C398 1.327 . S
C396 H421 0.950 . S
C397 C396 1.349 . S
C397 C413 1.349 . S
C398 C396 1.327 . S
C398 C417 1.429 . S
C398 H422 0.950 . S
C399 C416 1.574 . S
C399 C418 1.368 . S
C399 H423 0.949 . S
H400 C404 0.949 . S
C401 C402 1.349 . S
C401 C403 1.327 . S
C401 H424 0.950 . S
C402 C401 1.349 . S
C402 C414 1.349 . S
C403 C401 1.327 . S
C403 C419 1.429 . S
C403 H425 0.950 . S
C404 H400 0.949 . S
C404 C412 1.574 . S
C404 C420 1.368 . S
H405 C413 0.950 . S
H406 C411 0.950 . S
H407 C412 0.949 . S
H408 C414 0.950 1_565 S
H409 C415 0.950 . S
H410 C416 0.949 . S
C411 H406 0.950 . S
C411 C413 1.327 . S
C411 C417 1.429 . S
C412 C404 1.574 . S
C412 H407 0.949 . S
C412 C418 1.368 . S
C413 C397 1.349 . S
C413 H405 0.950 . S
C413 C411 1.327 . S
C414 C402 1.349 . S
C414 H408 0.950 1_545 S
C414 C415 1.327 . S
C415 H409 0.950 . S
C415 C414 1.327 . S
C415 C419 1.429 . S
C416 C399 1.574 . S
C416 H410 0.949 . S
C416 C420 1.368 . S
C417 C398 1.429 . S
C417 C411 1.429 . S
C417 C418 1.523 . S
C418 C399 1.368 . S
C418 C412 1.368 . S
C418 C417 1.523 . S
C419 C403 1.429 . S
C419 C415 1.429 . S
C419 C420 1.523 . S
C420 C404 1.368 . S
C420 C416 1.368 . S
C420 C419 1.523 . S
H421 C396 0.950 . S
H422 C398 0.950 . S
H423 C399 0.949 . S
H424 C401 0.950 . S
H425 C403 0.950 . S
C426 C427 1.349 . S
C426 C428 1.327 . S
C426 H451 0.950 . S
C427 C426 1.349 . S
C427 C443 1.349 . S
C428 C426 1.327 . S
C428 C447 1.429 . S
C428 H452 0.950 . S
C429 C446 1.574 . S
C429 C448 1.368 . S
C429 H453 0.949 . S
H430 C434 0.949 . S
C431 C432 1.349 . S
C431 C433 1.327 . S
C431 H454 0.950 1_455 S
C432 C431 1.349 . S
C432 C444 1.349 . S
C433 C431 1.327 . S
C433 C449 1.429 . S
C433 H455 0.950 . S
C434 H430 0.949 . S
C434 C442 1.574 . S
C434 C450 1.368 . S
H435 C443 0.950 . S
H436 C441 0.950 . S
H437 C442 0.949 . S
H438 C444 0.950 . S
H439 C445 0.950 . S
H440 C446 0.949 . S
C441 H436 0.950 . S
C441 C443 1.327 . S
C441 C447 1.429 . S
C442 C434 1.574 . S
C442 H437 0.949 . S
C442 C448 1.368 . S
C443 C427 1.349 . S
C443 H435 0.950 . S
C443 C441 1.327 . S
C444 C432 1.349 . S
C444 H438 0.950 . S
C444 C445 1.327 . S
C445 H439 0.950 . S
C445 C444 1.327 . S
C445 C449 1.429 . S
C446 C429 1.574 . S
C446 H440 0.949 . S
C446 C450 1.368 . S
C447 C428 1.429 . S
C447 C441 1.429 . S
C447 C448 1.523 . S
C448 C429 1.368 . S
C448 C442 1.368 . S
C448 C447 1.523 . S
C449 C433 1.429 . S
C449 C445 1.429 . S
C449 C450 1.523 . S
C450 C434 1.368 . S
C450 C446 1.368 . S
C450 C449 1.523 . S
H451 C426 0.950 . S
H452 C428 0.950 . S
H453 C429 0.949 . S
H454 C431 0.950 1_655 S
H455 C433 0.950 . S
C456 C457 1.349 . S
C456 C458 1.327 . S
C456 H481 0.950 . S
C457 C456 1.349 . S
C457 C473 1.349 . S
C458 C456 1.327 . S
C458 C477 1.429 . S
C458 H482 0.950 . S
C459 C476 1.574 . S
C459 C478 1.368 . S
C459 H483 0.949 . S
H460 C464 0.949 . S
C461 C462 1.349 . S
C461 C463 1.327 . S
C461 H484 0.950 . S
C462 C461 1.349 . S
C462 C474 1.349 . S
C463 C461 1.327 . S
C463 C479 1.429 . S
C463 H485 0.950 . S
C464 H460 0.949 . S
C464 C472 1.574 . S
C464 C480 1.368 . S
H465 C473 0.927 1_455 S
H466 C471 0.950 . S
H467 C472 0.949 . S
H468 C474 0.950 . S
H469 C475 0.950 . S
H470 C476 0.949 . S
C471 H466 0.950 . S
C471 C473 1.327 . S
C471 C477 1.429 . S
C472 C464 1.574 . S
C472 H467 0.949 . S
C472 C478 1.368 . S
C473 C457 1.349 . S
C473 H465 0.927 1_655 S
C473 C471 1.327 . S
C474 C462 1.349 . S
C474 H468 0.950 . S
C474 C475 1.327 . S
C475 H469 0.950 . S
C475 C474 1.327 . S
C475 C479 1.429 . S
C476 C459 1.574 . S
C476 H470 0.949 . S
C476 C480 1.368 . S
C477 C458 1.429 . S
C477 C471 1.429 . S
C477 C478 1.523 . S
C478 C459 1.368 . S
C478 C472 1.368 . S
C478 C477 1.523 . S
C479 C463 1.429 . S
C479 C475 1.429 . S
C479 C480 1.523 . S
C480 C464 1.368 . S
C480 C476 1.368 . S
C480 C479 1.523 . S
H481 C456 0.950 . S
H482 C458 0.950 . S
H483 C459 0.949 . S
H484 C461 0.950 . S
H485 C463 0.950 . S
C486 C487 1.349 . S
C486 C488 1.327 . S
C486 H511 0.950 . S
C487 C486 1.349 . S
C487 C503 1.349 . S
C488 C486 1.327 . S
C488 C507 1.429 . S
C488 H512 0.950 . S
C489 C506 1.574 . S
C489 C508 1.368 . S
C489 H513 0.949 . S
H490 C494 0.949 . S
C491 C492 1.349 . S
C491 C493 1.327 . S
C491 H514 0.950 . S
C492 C491 1.349 . S
C492 C504 1.349 . S
C493 C491 1.327 . S
C493 C509 1.429 . S
C493 H515 0.950 . S
C494 H490 0.949 . S
C494 C502 1.574 . S
C494 C510 1.368 . S
H495 C503 0.950 . S
H496 C501 0.950 . S
H497 C502 0.949 . S
H498 C504 0.950 . S
H499 C505 0.950 . S
H500 C506 0.949 . S
C501 H496 0.950 . S
C501 C503 1.327 . S
C501 C507 1.429 . S
C502 C494 1.574 . S
C502 H497 0.949 . S
C502 C508 1.368 . S
C503 C487 1.349 . S
C503 H495 0.950 . S
C503 C501 1.327 . S
C504 C492 1.349 . S
C504 H498 0.950 . S
C504 C505 1.327 . S
C505 H499 0.950 . S
C505 C504 1.327 . S
C505 C509 1.429 . S
C506 C489 1.574 . S
C506 H500 0.949 . S
C506 C510 1.368 . S
C507 C488 1.429 . S
C507 C501 1.429 . S
C507 C508 1.523 . S
C508 C489 1.368 . S
C508 C502 1.368 . S
C508 C507 1.523 . S
C509 C493 1.429 . S
C509 C505 1.429 . S
C509 C510 1.523 . S
C510 C494 1.368 . S
C510 C506 1.368 . S
C510 C509 1.523 . S
H511 C486 0.950 . S
H512 C488 0.950 . S
H513 C489 0.949 . S
H514 C491 0.950 . S
H515 C493 0.950 . S
C516 C517 1.349 . S
C516 C518 1.327 . S
C516 H541 0.950 . S
C517 C516 1.349 . S
C517 C533 1.349 . S
C518 C516 1.327 . S
C518 C537 1.429 . S
C518 H542 0.950 . S
C519 C536 1.574 . S
C519 C538 1.368 . S
C519 H543 0.949 . S
H520 C524 0.949 . S
C521 C522 1.349 . S
C521 C523 1.327 . S
C521 H544 0.950 . S
C522 C521 1.349 . S
C522 C534 1.349 . S
C523 C521 1.327 . S
C523 C539 1.429 . S
C523 H545 0.950 . S
C524 H520 0.949 . S
C524 C532 1.574 . S
C524 C540 1.368 . S
H525 C533 0.950 . S
H526 C531 0.950 . S
H527 C532 0.949 . S
H528 C534 0.950 . S
H529 C535 0.950 . S
H530 C536 0.949 . S
C531 H526 0.950 . S
C531 C533 1.327 . S
C531 C537 1.429 . S
C532 C524 1.574 . S
C532 H527 0.949 . S
C532 C538 1.368 . S
C533 C517 1.349 . S
C533 H525 0.950 . S
C533 C531 1.327 . S
C534 C522 1.349 . S
C534 H528 0.950 . S
C534 C535 1.327 . S
C535 H529 0.950 . S
C535 C534 1.327 . S
C535 C539 1.429 . S
C536 C519 1.574 . S
C536 H530 0.949 . S
C536 C540 1.368 . S
C537 C518 1.429 . S
C537 C531 1.429 . S
C537 C538 1.523 . S
C538 C519 1.368 . S
C538 C532 1.368 . S
C538 C537 1.523 . S
C539 C523 1.429 . S
C539 C535 1.429 . S
C539 C540 1.523 . S
C540 C524 1.368 . S
C540 C536 1.368 . S
C540 C539 1.523 . S
H541 C516 0.950 . S
H542 C518 0.950 . S
H543 C519 0.949 . S
H544 C521 0.950 . S
H545 C523 0.950 . S
C546 C547 1.349 . S
C546 C548 1.327 . S
C546 H571 0.950 . S
C547 C546 1.349 . S
C547 C563 1.349 . S
C548 C546 1.327 . S
C548 C567 1.429 . S
C548 H572 0.950 . S
C549 C566 1.574 . S
C549 C568 1.368 . S
C549 H573 0.949 . S
H550 C554 0.949 . S
C551 C552 1.349 . S
C551 C553 1.327 . S
C551 H574 0.950 . S
C552 C551 1.349 . S
C552 C564 1.349 . S
C553 C551 1.327 . S
C553 C569 1.429 . S
C553 H575 0.950 . S
C554 H550 0.949 . S
C554 C562 1.574 . S
C554 C570 1.368 . S
H555 C563 0.950 . S
H556 C561 0.950 . S
H557 C562 0.949 . S
H558 C564 0.950 . S
H559 C565 0.950 . S
H560 C566 0.949 . S
C561 H556 0.950 . S
C561 C563 1.327 . S
C561 C567 1.429 . S
C562 C554 1.574 . S
C562 H557 0.949 . S
C562 C568 1.368 . S
C563 C547 1.349 . S
C563 H555 0.950 . S
C563 C561 1.327 . S
C564 C552 1.349 . S
C564 H558 0.950 . S
C564 C565 1.327 . S
C565 H559 0.950 . S
C565 C564 1.327 . S
C565 C569 1.429 . S
C566 C549 1.574 . S
C566 H560 0.949 . S
C566 C570 1.368 . S
C567 C548 1.429 . S
C567 C561 1.429 . S
C567 C568 1.523 . S
C568 C549 1.368 . S
C568 C562 1.368 . S
C568 C567 1.523 . S
C569 C553 1.429 . S
C569 C565 1.429 . S
C569 C570 1.523 . S
C570 C554 1.368 . S
C570 C566 1.368 . S
C570 C569 1.523 . S
H571 C546 0.950 . S
H572 C548 0.950 . S
H573 C549 0.949 . S
H574 C551 0.950 . S
H575 C553 0.950 . S
C576 C577 1.349 . S
C576 C578 1.327 . S
C576 H601 0.950 . S
C577 C576 1.349 . S
C577 C593 1.349 1_556 S
C578 C576 1.327 . S
C578 C597 1.429 . S
C578 H602 0.950 . S
C579 C596 1.574 . S
C579 C598 1.368 . S
C579 H603 0.949 . S
H580 C584 0.949 . S
C581 C582 1.349 . S
C581 C583 1.327 . S
C581 H604 0.950 . S
C582 C581 1.349 . S
C582 C594 1.324 1_554 S
C583 C581 1.327 . S
C583 C599 1.429 . S
C583 H605 0.950 . S
C584 H580 0.949 . S
C584 C592 1.574 . S
C584 C600 1.368 1_556 S
H585 C593 0.950 . S
H586 C591 0.950 . S
H587 C592 0.949 . S
H588 C594 0.972 . S
H589 C595 0.950 . S
H590 C596 0.949 . S
C591 H586 0.950 . S
C591 C593 1.327 . S
C591 C597 1.429 1_554 S
C592 C584 1.574 . S
C592 H587 0.949 . S
C592 C598 1.369 1_556 S
C593 C577 1.349 1_554 S
C593 H585 0.950 . S
C593 C591 1.327 . S
C594 C582 1.324 1_556 S
C594 H588 0.972 . S
C594 C595 1.333 . S
C595 H589 0.950 . S
C595 C594 1.333 . S
C595 C599 1.429 1_556 S
C596 C579 1.574 . S
C596 H590 0.949 . S
C596 C600 1.368 . S
C597 C578 1.429 . S
C597 C591 1.429 1_556 S
C597 C598 1.523 1_556 S
C598 C579 1.368 . S
C598 C592 1.369 1_554 S
C598 C597 1.523 1_554 S
C599 C583 1.429 . S
C599 C595 1.429 1_554 S
C599 C600 1.523 . S
C600 C584 1.368 1_554 S
C600 C596 1.368 . S
C600 C599 1.523 . S
H601 C576 0.950 . S
H602 C578 0.950 . S
H603 C579 0.949 . S
H604 C581 0.950 . S
H605 C583 0.950 . S
C606 C607 1.349 . S
C606 C608 1.330 . S
C606 H631 0.950 . S
C607 C606 1.349 . S
C607 C623 1.349 1_655 S
C608 C606 1.330 . S
C608 C627 1.412 1_655 S
C608 H632 0.965 . S
C609 C626 1.574 . S
C609 C628 1.368 . S
C609 H633 0.949 . S
H610 C614 0.949 . S
C611 C612 1.349 . S
C611 C613 1.327 . S
C611 H634 0.950 . S
C612 C611 1.349 . S
C612 C624 1.349 . S
C613 C611 1.327 . S
C613 C629 1.429 . S
C613 H635 0.950 . S
C614 H610 0.949 . S
C614 C622 1.574 . S
C614 C630 1.368 . S
H615 C623 0.950 . S
H616 C621 0.950 . S
H617 C622 0.949 . S
H618 C624 0.950 . S
H619 C625 0.950 . S
H620 C626 0.949 . S
C621 H616 0.950 . S
C621 C623 1.327 . S
C621 C627 1.429 . S
C622 C614 1.574 . S
C622 H617 0.949 . S
C622 C628 1.368 . S
C623 C607 1.349 1_455 S
C623 H615 0.950 . S
C623 C621 1.327 . S
C624 C612 1.349 . S
C624 H618 0.950 . S
C624 C625 1.327 . S
C625 H619 0.950 . S
C625 C624 1.327 . S
C625 C629 1.429 . S
C626 C609 1.574 . S
C626 H620 0.949 . S
C626 C630 1.368 . S
C627 C608 1.412 1_455 S
C627 C621 1.429 . S
C627 C628 1.523 . S
C628 C609 1.368 . S
C628 C622 1.368 . S
C628 C627 1.523 . S
C629 C613 1.429 . S
C629 C625 1.429 . S
C629 C630 1.523 . S
C630 C614 1.368 . S
C630 C626 1.368 . S
C630 C629 1.523 . S
H631 C606 0.950 . S
H632 C608 0.965 . S
H633 C609 0.949 . S
H634 C611 0.950 . S
H635 C613 0.950 . S
C636 C637 1.349 . S
C636 C638 1.327 . S
C636 H661 0.950 . S
C637 C636 1.349 . S
C637 C653 1.349 . S
C638 C636 1.327 . S
C638 C657 1.429 . S
C638 H662 0.950 . S
C639 C656 1.574 . S
C639 C658 1.368 . S
C639 H663 0.949 . S
H640 C644 0.949 . S
C641 C642 1.349 1_545 S
C641 C643 1.327 . S
C641 H664 0.950 . S
C642 C641 1.349 1_565 S
C642 C654 1.349 . S
C643 C641 1.327 . S
C643 C659 1.429 . S
C643 H665 0.950 . S
C644 H640 0.949 . S
C644 C652 1.574 . S
C644 C660 1.368 . S
H645 C653 0.950 . S
H646 C651 0.950 . S
H647 C652 0.949 . S
H648 C654 0.950 . S
H649 C655 0.949 . S
H650 C656 0.949 . S
C651 H646 0.950 . S
C651 C653 1.327 . S
C651 C657 1.429 . S
C652 C644 1.574 . S
C652 H647 0.949 . S
C652 C658 1.368 . S
C653 C637 1.349 . S
C653 H645 0.950 . S
C653 C651 1.327 . S
C654 C642 1.349 . S
C654 H648 0.950 . S
C654 C655 1.328 . S
C655 H649 0.949 . S
C655 C654 1.328 . S
C655 C659 1.428 1_565 S
C656 C639 1.574 . S
C656 H650 0.949 . S
C656 C660 1.368 . S
C657 C638 1.429 . S
C657 C651 1.429 . S
C657 C658 1.523 . S
C658 C639 1.368 . S
C658 C652 1.368 . S
C658 C657 1.523 . S
C659 C643 1.429 . S
C659 C655 1.428 1_545 S
C659 C660 1.523 . S
C660 C644 1.368 . S
C660 C656 1.368 . S
C660 C659 1.523 . S
H661 C636 0.950 . S
H662 C638 0.950 . S
H663 C639 0.949 . S
H664 C641 0.950 . S
H665 C643 0.950 . S
C666 C667 1.349 . S
C666 C668 1.327 . S
C666 H691 0.950 . S
C667 C666 1.349 . S
C667 C683 1.349 . S
C668 C666 1.327 . S
C668 C687 1.429 . S
C668 H692 0.950 . S
C669 C686 1.574 . S
C669 C688 1.368 . S
C669 H693 0.949 . S
H670 C674 0.949 . S
C671 C672 1.349 . S
C671 C673 1.327 . S
C671 H694 0.950 . S
C672 C671 1.349 . S
C672 C684 1.349 . S
C673 C671 1.327 . S
C673 C689 1.429 . S
C673 H695 0.950 . S
C674 H670 0.949 . S
C674 C682 1.574 . S
C674 C690 1.368 . S
H675 C683 0.950 . S
H676 C681 0.950 . S
H677 C682 0.949 . S
H678 C684 0.950 . S
H679 C685 0.950 . S
H680 C686 0.949 . S
C681 H676 0.950 . S
C681 C683 1.327 . S
C681 C687 1.429 . S
C682 C674 1.574 . S
C682 H677 0.949 . S
C682 C688 1.368 . S
C683 C667 1.349 . S
C683 H675 0.950 . S
C683 C681 1.327 . S
C684 C672 1.349 . S
C684 H678 0.950 . S
C684 C685 1.327 . S
C685 H679 0.950 . S
C685 C684 1.327 . S
C685 C689 1.429 . S
C686 C669 1.574 . S
C686 H680 0.949 . S
C686 C690 1.368 . S
C687 C668 1.429 . S
C687 C681 1.429 . S
C687 C688 1.523 . S
C688 C669 1.368 . S
C688 C682 1.368 . S
C688 C687 1.523 . S
C689 C673 1.429 . S
C689 C685 1.429 . S
C689 C690 1.523 . S
C690 C674 1.368 . S
C690 C686 1.368 . S
C690 C689 1.523 . S
H691 C666 0.950 . S
H692 C668 0.950 . S
H693 C669 0.949 . S
H694 C671 0.950 . S
H695 C673 0.950 . S
C696 C697 1.349 . S
C696 C698 1.327 . S
C696 H721 0.950 . S
C697 C696 1.349 . S
C697 C713 1.349 . S
C698 C696 1.327 . S
C698 C717 1.429 . S
C698 H722 0.950 . S
C699 C716 1.574 . S
C699 C718 1.368 . S
C699 H723 0.949 . S
H700 C704 0.949 . S
C701 C702 1.349 . S
C701 C703 1.327 1_455 S
C701 H724 0.950 . S
C702 C701 1.349 . S
C702 C714 1.349 1_455 S
C703 C701 1.327 1_655 S
C703 C719 1.429 . S
C703 H725 0.951 1_655 S
C704 H700 0.949 . S
C704 C712 1.574 . S
C704 C720 1.368 . S
H705 C713 0.950 . S
H706 C711 0.950 . S
H707 C712 0.949 . S
H708 C714 0.950 . S
H709 C715 0.950 . S
H710 C716 0.949 . S
C711 H706 0.950 . S
C711 C713 1.327 . S
C711 C717 1.429 . S
C712 C704 1.574 . S
C712 H707 0.949 . S
C712 C718 1.368 . S
C713 C697 1.349 . S
C713 H705 0.950 . S
C713 C711 1.327 . S
C714 C702 1.349 1_655 S
C714 H708 0.950 . S
C714 C715 1.327 . S
C715 H709 0.950 . S
C715 C714 1.327 . S
C715 C719 1.429 . S
C716 C699 1.574 . S
C716 H710 0.949 . S
C716 C720 1.368 . S
C717 C698 1.429 . S
C717 C711 1.429 . S
C717 C718 1.523 . S
C718 C699 1.368 . S
C718 C712 1.368 . S
C718 C717 1.523 . S
C719 C703 1.429 . S
C719 C715 1.429 . S
C719 C720 1.523 . S
C720 C704 1.368 . S
C720 C716 1.368 . S
C720 C719 1.523 . S
H721 C696 0.950 . S
H722 C698 0.950 . S
H723 C699 0.949 . S
H724 C701 0.950 . S
H725 C703 0.951 1_455 S
C726 C727 1.349 . S
C726 C728 1.327 . S
C726 H751 0.950 . S
C727 C726 1.349 . S
C727 C743 1.349 . S
C728 C726 1.327 . S
C728 C747 1.429 . S
C728 H752 0.950 . S
C729 C746 1.574 . S
C729 C748 1.368 . S
C729 H753 0.949 . S
H730 C734 0.949 . S
C731 C732 1.349 . S
C731 C733 1.327 . S
C731 H754 0.950 . S
C732 C731 1.349 . S
C732 C744 1.349 1_545 S
C733 C731 1.327 . S
C733 C749 1.429 1_545 S
C733 H755 0.950 . S
C734 H730 0.949 . S
C734 C742 1.574 . S
C734 C750 1.368 . S
H735 C743 0.950 . S
H736 C741 0.950 . S
H737 C742 0.949 . S
H738 C744 0.950 . S
H739 C745 0.950 . S
H740 C746 0.949 . S
C741 H736 0.950 . S
C741 C743 1.327 . S
C741 C747 1.429 . S
C742 C734 1.574 . S
C742 H737 0.949 . S
C742 C748 1.368 . S
C743 C727 1.349 . S
C743 H735 0.950 . S
C743 C741 1.327 . S
C744 C732 1.349 1_565 S
C744 H738 0.950 . S
C744 C745 1.327 . S
C745 H739 0.950 . S
C745 C744 1.327 . S
C745 C749 1.429 . S
C746 C729 1.574 . S
C746 H740 0.949 . S
C746 C750 1.368 . S
C747 C728 1.429 . S
C747 C741 1.429 . S
C747 C748 1.523 . S
C748 C729 1.368 . S
C748 C742 1.368 . S
C748 C747 1.523 . S
C749 C733 1.429 1_565 S
C749 C745 1.429 . S
C749 C750 1.523 . S
C750 C734 1.368 . S
C750 C746 1.368 . S
C750 C749 1.523 . S
H751 C726 0.950 . S
H752 C728 0.950 . S
H753 C729 0.949 . S
H754 C731 0.950 . S
H755 C733 0.950 . S
C756 C757 1.349 . S
C756 C758 1.327 . S
C756 H781 0.950 . S
C757 C756 1.349 . S
C757 C773 1.349 . S
C758 C756 1.327 . S
C758 C777 1.429 . S
C758 H782 0.950 . S
C759 C776 1.574 . S
C759 C778 1.368 . S
C759 H783 0.949 . S
H760 C764 0.949 . S
C761 C762 1.349 . S
C761 C763 1.327 . S
C761 H784 0.950 . S
C762 C761 1.349 . S
C762 C774 1.349 . S
C763 C761 1.327 . S
C763 C779 1.429 . S
C763 H785 0.950 . S
C764 H760 0.949 . S
C764 C772 1.574 . S
C764 C780 1.368 . S
H765 C773 0.950 . S
H766 C771 0.950 . S
H767 C772 0.949 . S
H768 C774 0.950 . S
H769 C775 0.950 . S
H770 C776 0.949 . S
C771 H766 0.950 . S
C771 C773 1.327 . S
C771 C777 1.429 . S
C772 C764 1.574 . S
C772 H767 0.949 . S
C772 C778 1.368 . S
C773 C757 1.349 . S
C773 H765 0.950 . S
C773 C771 1.327 . S
C774 C762 1.349 . S
C774 H768 0.950 . S
C774 C775 1.327 . S
C775 H769 0.950 . S
C775 C774 1.327 . S
C775 C779 1.429 . S
C776 C759 1.574 . S
C776 H770 0.949 . S
C776 C780 1.368 . S
C777 C758 1.429 . S
C777 C771 1.429 . S
C777 C778 1.523 . S
C778 C759 1.368 . S
C778 C772 1.368 . S
C778 C777 1.523 . S
C779 C763 1.429 . S
C779 C775 1.429 . S
C779 C780 1.523 . S
C780 C764 1.368 . S
C780 C776 1.368 . S
C780 C779 1.523 . S
H781 C756 0.950 . S
H782 C758 0.950 . S
H783 C759 0.949 . S
H784 C761 0.950 . S
H785 C763 0.950 . S
C786 C787 1.349 . S
C786 C788 1.327 1_655 S
C786 H811 0.950 . S
C787 C786 1.349 . S
C787 C803 1.349 1_655 S
C788 C786 1.327 1_455 S
C788 C807 1.429 . S
C788 H812 0.950 . S
C789 C806 1.574 . S
C789 C808 1.368 . S
C789 H813 0.949 . S
H790 C794 0.949 1_554 S
C791 C792 1.349 . S
C791 C793 1.327 . S
C791 H814 0.950 . S
C792 C791 1.349 . S
C792 C804 1.349 . S
C793 C791 1.327 . S
C793 C809 1.429 . S
C793 H815 0.950 . S
C794 H790 0.949 1_556 S
C794 C802 1.574 . S
C794 C810 1.368 . S
H795 C803 0.950 . S
H796 C801 0.950 . S
H797 C802 1.006 . S
H798 C804 0.950 1_554 S
H799 C805 0.950 1_554 S
H800 C806 0.949 . S
C801 H796 0.950 . S
C801 C803 1.327 . S
C801 C807 1.429 . S
C802 C794 1.574 . S
C802 H797 1.006 . S
C802 C808 1.368 . S
C803 C787 1.349 1_455 S
C803 H795 0.950 . S
C803 C801 1.327 . S
C804 C792 1.349 . S
C804 H798 0.950 1_556 S
C804 C805 1.327 . S
C805 H799 0.950 1_556 S
C805 C804 1.327 . S
C805 C809 1.429 . S
C806 C789 1.574 . S
C806 H800 0.949 . S
C806 C810 1.368 . S
C807 C788 1.429 . S
C807 C801 1.429 . S
C807 C808 1.523 . S
C808 C789 1.368 . S
C808 C802 1.368 . S
C808 C807 1.523 . S
C809 C793 1.429 . S
C809 C805 1.429 . S
C809 C810 1.523 . S
C810 C794 1.368 . S
C810 C806 1.368 . S
C810 C809 1.523 . S
H811 C786 0.950 . S
H812 C788 0.950 . S
H813 C789 0.949 . S
H814 C791 0.950 . S
H815 C793 0.950 . S
C816 C817 1.349 . S
C816 C818 1.327 1_565 S
C816 H841 0.950 . S
C817 C816 1.349 . S
C817 C833 1.349 . S
C818 C816 1.327 1_545 S
C818 C837 1.429 . S
C818 H842 0.950 . S
C819 C836 1.574 . S
C819 C838 1.368 . S
C819 H843 0.949 . S
H820 C824 0.949 . S
C821 C822 1.349 . S
C821 C823 1.327 . S
C821 H844 0.950 . S
C822 C821 1.349 . S
C822 C834 1.349 . S
C823 C821 1.327 . S
C823 C839 1.429 . S
C823 H845 0.950 . S
C824 H820 0.949 . S
C824 C832 1.574 . S
C824 C840 1.368 . S
H825 C833 0.950 . S
H826 C831 0.950 . S
H827 C832 0.949 . S
H828 C834 0.950 . S
H829 C835 0.950 . S
H830 C836 0.949 . S
C831 H826 0.950 . S
C831 C833 1.327 1_545 S
C831 C837 1.429 . S
C832 C824 1.574 . S
C832 H827 0.949 . S
C832 C838 1.368 . S
C833 C817 1.349 . S
C833 H825 0.950 . S
C833 C831 1.327 1_565 S
C834 C822 1.349 . S
C834 H828 0.950 . S
C834 C835 1.327 . S
C835 H829 0.950 . S
C835 C834 1.327 . S
C835 C839 1.429 . S
C836 C819 1.574 . S
C836 H830 0.949 . S
C836 C840 1.368 . S
C837 C818 1.429 . S
C837 C831 1.429 . S
C837 C838 1.523 . S
C838 C819 1.368 . S
C838 C832 1.368 . S
C838 C837 1.523 . S
C839 C823 1.429 . S
C839 C835 1.429 . S
C839 C840 1.523 . S
C840 C824 1.368 . S
C840 C836 1.368 . S
C840 C839 1.523 . S
H841 C816 0.950 . S
H842 C818 0.950 . S
H843 C819 0.949 . S
H844 C821 0.950 . S
H845 C823 0.950 . S
C846 C847 1.349 . S
C846 C848 1.327 . S
C846 H871 0.950 . S
C847 C846 1.349 . S
C847 C863 1.349 . S
C848 C846 1.327 . S
C848 C867 1.429 . S
C848 H872 0.950 . S
C849 C866 1.574 . S
C849 C868 1.368 . S
C849 H873 0.949 . S
H850 C854 0.949 . S
C851 C852 1.349 . S
C851 C853 1.327 . S
C851 H874 0.950 . S
C852 C851 1.349 . S
C852 C864 1.349 . S
C853 C851 1.327 . S
C853 C869 1.429 . S
C853 H875 0.950 . S
C854 H850 0.949 . S
C854 C862 1.574 . S
C854 C870 1.368 . S
H855 C863 0.950 . S
H856 C861 0.950 . S
H857 C862 0.949 . S
H858 C864 0.950 . S
H859 C865 0.950 . S
H860 C866 0.949 . S
C861 H856 0.950 . S
C861 C863 1.327 . S
C861 C867 1.429 . S
C862 C854 1.574 . S
C862 H857 0.949 . S
C862 C868 1.368 . S
C863 C847 1.349 . S
C863 H855 0.950 . S
C863 C861 1.327 . S
C864 C852 1.349 . S
C864 H858 0.950 . S
C864 C865 1.327 . S
C865 H859 0.950 . S
C865 C864 1.327 . S
C865 C869 1.429 . S
C866 C849 1.574 . S
C866 H860 0.949 . S
C866 C870 1.368 . S
C867 C848 1.429 . S
C867 C861 1.429 . S
C867 C868 1.523 . S
C868 C849 1.368 . S
C868 C862 1.368 . S
C868 C867 1.523 . S
C869 C853 1.429 . S
C869 C865 1.429 . S
C869 C870 1.523 . S
C870 C854 1.368 . S
C870 C866 1.368 . S
C870 C869 1.523 . S
H871 C846 0.950 . S
H872 C848 0.950 . S
H873 C849 0.949 . S
H874 C851 0.950 . S
H875 C853 0.950 . S
C876 C877 1.349 . S
C876 C878 1.327 . S
C876 H901 0.950 . S
C877 C876 1.349 . S
C877 C893 1.349 . S
C878 C876 1.327 . S
C878 C897 1.429 . S
C878 H902 0.950 . S
C879 C896 1.574 . S
C879 C898 1.368 . S
C879 H903 0.949 . S
H880 C884 0.949 . S
C881 C882 1.349 1_655 S
C881 C883 1.327 . S
C881 H904 0.950 . S
C882 C881 1.349 1_455 S
C882 C894 1.349 . S
C883 C881 1.327 . S
C883 C899 1.429 . S
C883 H905 0.950 . S
C884 H880 0.949 . S
C884 C892 1.574 . S
C884 C900 1.368 . S
H885 C893 0.950 . S
H886 C891 0.950 . S
H887 C892 0.949 . S
H888 C894 0.950 . S
H889 C895 0.950 . S
H890 C896 0.949 . S
C891 H886 0.950 . S
C891 C893 1.327 . S
C891 C897 1.429 . S
C892 C884 1.574 . S
C892 H887 0.949 . S
C892 C898 1.368 . S
C893 C877 1.349 . S
C893 H885 0.950 . S
C893 C891 1.327 . S
C894 C882 1.349 . S
C894 H888 0.950 . S
C894 C895 1.327 . S
C895 H889 0.950 . S
C895 C894 1.327 . S
C895 C899 1.429 1_455 S
C896 C879 1.574 . S
C896 H890 0.949 . S
C896 C900 1.368 . S
C897 C878 1.429 . S
C897 C891 1.429 . S
C897 C898 1.523 . S
C898 C879 1.368 . S
C898 C892 1.368 . S
C898 C897 1.523 . S
C899 C883 1.429 . S
C899 C895 1.429 1_655 S
C899 C900 1.523 . S
C900 C884 1.368 . S
C900 C896 1.368 . S
C900 C899 1.523 . S
H901 C876 0.950 . S
H902 C878 0.950 . S
H903 C879 0.949 . S
H904 C881 0.950 . S
H905 C883 0.950 . S
C906 C907 1.349 . S
C906 C908 1.327 . S
C906 H931 0.950 . S
C907 C906 1.349 . S
C907 C923 1.349 . S
C908 C906 1.327 . S
C908 C927 1.429 . S
C908 H932 0.950 . S
C909 C926 1.574 . S
C909 C928 1.368 . S
C909 H933 0.949 . S
H910 C914 0.949 . S
C911 C912 1.349 1_565 S
C911 C913 1.327 . S
C911 H934 0.950 . S
C912 C911 1.349 1_545 S
C912 C924 1.349 . S
C913 C911 1.327 . S
C913 C929 1.429 . S
C913 H935 0.950 . S
C914 H910 0.949 . S
C914 C922 1.574 . S
C914 C930 1.368 . S
H915 C923 0.950 . S
H916 C921 0.950 . S
H917 C922 0.949 . S
H918 C924 0.950 . S
H919 C925 0.950 . S
H920 C926 0.949 . S
C921 H916 0.950 . S
C921 C923 1.327 . S
C921 C927 1.429 . S
C922 C914 1.574 . S
C922 H917 0.949 . S
C922 C928 1.368 . S
C923 C907 1.349 . S
C923 H915 0.950 . S
C923 C921 1.327 . S
C924 C912 1.349 . S
C924 H918 0.950 . S
C924 C925 1.327 1_545 S
C925 H919 0.950 . S
C925 C924 1.327 1_565 S
C925 C929 1.429 . S
C926 C909 1.574 . S
C926 H920 0.949 . S
C926 C930 1.368 . S
C927 C908 1.429 . S
C927 C921 1.429 . S
C927 C928 1.523 . S
C928 C909 1.368 . S
C928 C922 1.368 . S
C928 C927 1.523 . S
C929 C913 1.429 . S
C929 C925 1.429 . S
C929 C930 1.523 . S
C930 C914 1.368 . S
C930 C926 1.368 . S
C930 C929 1.523 . S
H931 C906 0.950 . S
H932 C908 0.950 . S
H933 C909 0.949 . S
H934 C911 0.950 . S
H935 C913 0.950 . S
C936 C937 1.349 . S
C936 C938 1.327 . S
C936 H961 0.950 . S
C937 C936 1.349 . S
C937 C953 1.349 . S
C938 C936 1.327 . S
C938 C957 1.429 . S
C938 H962 0.950 . S
C939 C956 1.574 . S
C939 C958 1.368 . S
C939 H963 0.949 . S
H940 C944 0.949 . S
C941 C942 1.349 . S
C941 C943 1.327 . S
C941 H964 0.950 . S
C942 C941 1.349 . S
C942 C954 1.349 . S
C943 C941 1.327 . S
C943 C959 1.429 . S
C943 H965 0.950 . S
C944 H940 0.949 . S
C944 C952 1.574 . S
C944 C960 1.368 . S
H945 C953 0.950 . S
H946 C951 0.950 . S
H947 C952 0.949 . S
H948 C954 0.950 . S
H949 C955 0.950 . S
H950 C956 0.949 . S
C951 H946 0.950 . S
C951 C953 1.327 . S
C951 C957 1.429 . S
C952 C944 1.574 . S
C952 H947 0.949 . S
C952 C958 1.368 . S
C953 C937 1.349 . S
C953 H945 0.950 . S
C953 C951 1.327 . S
C954 C942 1.349 . S
C954 H948 0.950 . S
C954 C955 1.327 . S
C955 H949 0.950 . S
C955 C954 1.327 . S
C955 C959 1.429 . S
C956 C939 1.574 . S
C956 H950 0.949 . S
C956 C960 1.368 . S
C957 C938 1.429 . S
C957 C951 1.429 . S
C957 C958 1.523 . S
C958 C939 1.368 . S
C958 C952 1.368 . S
C958 C957 1.523 . S
C959 C943 1.429 . S
C959 C955 1.429 . S
C959 C960 1.523 . S
C960 C944 1.368 . S
C960 C956 1.368 . S
C960 C959 1.523 . S
H961 C936 0.950 . S
H962 C938 0.950 . S
H963 C939 0.949 . S
H964 C941 0.950 . S
H965 C943 0.950 . S
C966 C967 1.349 . S
C966 C968 1.327 . S
C966 H991 0.950 . S
C967 C966 1.349 . S
C967 C983 1.349 . S
C968 C966 1.327 . S
C968 C987 1.429 . S
C968 H992 0.950 . S
C969 C986 1.574 . S
C969 C988 1.368 . S
C969 H993 0.949 . S
H970 C974 0.949 . S
C971 C972 1.349 . S
C971 C973 1.327 1_655 S
C971 H994 0.950 . S
C972 C971 1.349 . S
C972 C984 1.349 . S
C973 C971 1.327 1_455 S
C973 C989 1.429 . S
C973 H995 0.950 . S
C974 H970 0.949 . S
C974 C982 1.574 . S
C974 C990 1.368 . S
H975 C983 0.950 . S
H976 C981 0.950 . S
H977 C982 0.949 . S
H978 C984 0.950 . S
H979 C985 0.950 . S
H980 C986 0.949 . S
C981 H976 0.950 . S
C981 C983 1.327 . S
C981 C987 1.429 . S
C982 C974 1.574 . S
C982 H977 0.949 . S
C982 C988 1.368 . S
C983 C967 1.349 . S
C983 H975 0.950 . S
C983 C981 1.327 . S
C984 C972 1.349 . S
C984 H978 0.950 . S
C984 C985 1.327 . S
C985 H979 0.950 . S
C985 C984 1.327 . S
C985 C989 1.429 1_655 S
C986 C969 1.574 . S
C986 H980 0.949 . S
C986 C990 1.368 . S
C987 C968 1.429 . S
C987 C981 1.429 . S
C987 C988 1.523 . S
C988 C969 1.368 . S
C988 C982 1.368 . S
C988 C987 1.523 . S
C989 C973 1.429 . S
C989 C985 1.429 1_455 S
C989 C990 1.523 . S
C990 C974 1.368 . S
C990 C986 1.368 . S
C990 C989 1.523 . S
H991 C966 0.950 . S
H992 C968 0.950 . S
H993 C969 0.949 . S
H994 C971 0.950 . S
H995 C973 0.950 . S
C996 C997 1.349 . S
C996 C998 1.327 1_565 S
C996 H1021 0.950 1_565 S
C997 C996 1.349 . S
C997 C1013 1.349 . S
C998 C996 1.327 1_545 S
C998 C1017 1.429 . S
C998 H1022 0.950 . S
C999 C1016 1.574 . S
C999 C1018 1.368 . S
C999 H1023 0.949 . S
H1000 C1004 0.949 . S
C1001 C1002 1.349 . S
C1001 C1003 1.327 . S
C1001 H1024 0.950 . S
C1002 C1001 1.349 . S
C1002 C1014 1.349 . S
C1003 C1001 1.327 . S
C1003 C1019 1.429 . S
C1003 H1025 0.950 . S
C1004 H1000 0.949 . S
C1004 C1012 1.574 . S
C1004 C1020 1.368 . S
H1005 C1013 0.950 . S
H1006 C1011 0.950 . S
H1007 C1012 0.949 . S
H1008 C1014 0.950 . S
H1009 C1015 0.950 . S
H1010 C1016 0.949 . S
C1011 H1006 0.950 . S
C1011 C1013 1.327 . S
C1011 C1017 1.429 1_565 S
C1012 C1004 1.574 . S
C1012 H1007 0.949 . S
C1012 C1018 1.368 . S
C1013 C997 1.349 . S
C1013 H1005 0.950 . S
C1013 C1011 1.327 . S
C1014 C1002 1.349 . S
C1014 H1008 0.950 . S
C1014 C1015 1.327 . S
C1015 H1009 0.950 . S
C1015 C1014 1.327 . S
C1015 C1019 1.429 . S
C1016 C999 1.574 . S
C1016 H1010 0.949 . S
C1016 C1020 1.368 . S
C1017 C998 1.429 . S
C1017 C1011 1.429 1_545 S
C1017 C1018 1.523 . S
C1018 C999 1.368 . S
C1018 C1012 1.368 . S
C1018 C1017 1.523 . S
C1019 C1003 1.429 . S
C1019 C1015 1.429 . S
C1019 C1020 1.523 . S
C1020 C1004 1.368 . S
C1020 C1016 1.368 . S
C1020 C1019 1.523 . S
H1021 C996 0.950 1_545 S
H1022 C998 0.950 . S
H1023 C999 0.949 . S
H1024 C1001 0.950 . S
H1025 C1003 0.950 . S
C1026 C1027 1.349 . S
C1026 C1028 1.327 . S
C1026 H1051 0.950 . S
C1027 C1026 1.349 . S
C1027 C1043 1.349 . S
C1028 C1026 1.327 . S
C1028 C1047 1.429 . S
C1028 H1052 0.950 . S
C1029 C1046 1.574 . S
C1029 C1048 1.368 . S
C1029 H1053 0.949 . S
H1030 C1034 0.949 . S
C1031 C1032 1.349 . S
C1031 C1033 1.327 . S
C1031 H1054 0.950 . S
C1032 C1031 1.349 . S
C1032 C1044 1.349 . S
C1033 C1031 1.327 . S
C1033 C1049 1.429 . S
C1033 H1055 0.950 . S
C1034 H1030 0.949 . S
C1034 C1042 1.574 . S
C1034 C1050 1.368 . S
H1035 C1043 0.950 . S
H1036 C1041 0.950 . S
H1037 C1042 0.949 . S
H1038 C1044 0.950 . S
H1039 C1045 0.950 . S
H1040 C1046 0.949 . S
C1041 H1036 0.950 . S
C1041 C1043 1.327 . S
C1041 C1047 1.429 . S
C1042 C1034 1.574 . S
C1042 H1037 0.949 . S
C1042 C1048 1.368 . S
C1043 C1027 1.349 . S
C1043 H1035 0.950 . S
C1043 C1041 1.327 . S
C1044 C1032 1.349 . S
C1044 H1038 0.950 . S
C1044 C1045 1.327 . S
C1045 H1039 0.950 . S
C1045 C1044 1.327 . S
C1045 C1049 1.429 . S
C1046 C1029 1.574 . S
C1046 H1040 0.949 . S
C1046 C1050 1.368 . S
C1047 C1028 1.429 . S
C1047 C1041 1.429 . S
C1047 C1048 1.523 . S
C1048 C1029 1.368 . S
C1048 C1042 1.368 . S
C1048 C1047 1.523 . S
C1049 C1033 1.429 . S
C1049 C1045 1.429 . S
C1049 C1050 1.523 . S
C1050 C1034 1.368 . S
C1050 C1046 1.368 . S
C1050 C1049 1.523 . S
H1051 C1026 0.950 . S
H1052 C1028 0.950 . S
H1053 C1029 0.949 . S
H1054 C1031 0.950 . S
H1055 C1033 0.950 . S
C1056 C1057 1.349 . S
C1056 C1058 1.327 . S
C1056 H1081 0.950 . S
C1057 C1056 1.349 . S
C1057 C1073 1.349 . S
C1058 C1056 1.327 . S
C1058 C1077 1.429 . S
C1058 H1082 0.950 . S
C1059 C1076 1.574 . S
C1059 C1078 1.368 . S
C1059 H1083 0.949 . S
H1060 C1064 0.949 . S
C1061 C1062 1.349 . S
C1061 C1063 1.327 1_455 S
C1061 H1084 0.950 1_455 S
C1062 C1061 1.349 . S
C1062 C1074 1.349 . S
C1063 C1061 1.327 1_655 S
C1063 C1079 1.429 . S
C1063 H1085 0.950 . S
C1064 H1060 0.949 . S
C1064 C1072 1.574 . S
C1064 C1080 1.368 . S
H1065 C1073 0.950 . S
H1066 C1071 0.950 . S
H1067 C1072 0.949 . S
H1068 C1074 0.950 . S
H1069 C1075 0.950 . S
H1070 C1076 0.949 . S
C1071 H1066 0.950 . S
C1071 C1073 1.327 . S
C1071 C1077 1.429 . S
C1072 C1064 1.574 . S
C1072 H1067 0.949 . S
C1072 C1078 1.368 . S
C1073 C1057 1.349 . S
C1073 H1065 0.950 . S
C1073 C1071 1.327 . S
C1074 C1062 1.349 . S
C1074 H1068 0.950 . S
C1074 C1075 1.327 . S
C1075 H1069 0.950 . S
C1075 C1074 1.327 . S
C1075 C1079 1.429 1_455 S
C1076 C1059 1.574 . S
C1076 H1070 0.949 . S
C1076 C1080 1.368 . S
C1077 C1058 1.429 . S
C1077 C1071 1.429 . S
C1077 C1078 1.523 . S
C1078 C1059 1.368 . S
C1078 C1072 1.368 . S
C1078 C1077 1.523 . S
C1079 C1063 1.429 . S
C1079 C1075 1.429 1_655 S
C1079 C1080 1.523 . S
C1080 C1064 1.368 . S
C1080 C1076 1.368 . S
C1080 C1079 1.523 . S
H1081 C1056 0.950 . S
H1082 C1058 0.950 . S
H1083 C1059 0.949 . S
H1084 C1061 0.950 1_655 S
H1085 C1063 0.950 . S
C1086 C1087 1.349 . S
C1086 C1088 1.327 . S
C1086 H1111 0.950 . S
C1087 C1086 1.349 . S
C1087 C1103 1.349 . S
C1088 C1086 1.327 . S
C1088 C1107 1.429 . S
C1088 H1112 0.950 . S
C1089 C1106 1.574 . S
C1089 C1108 1.368 . S
C1089 H1113 0.949 . S
H1090 C1094 0.949 . S
C1091 C1092 1.349 . S
C1091 C1093 1.327 1_545 S
C1091 H1114 0.950 . S
C1092 C1091 1.349 . S
C1092 C1104 1.349 . S
C1093 C1091 1.327 1_565 S
C1093 C1109 1.429 . S
C1093 H1115 0.950 . S
C1094 H1090 0.949 . S
C1094 C1102 1.574 . S
C1094 C1110 1.368 . S
H1095 C1103 0.950 . S
H1096 C1101 0.950 . S
H1097 C1102 0.949 . S
H1098 C1104 0.950 . S
H1099 C1105 0.950 1_565 S
H1100 C1106 0.949 . S
C1101 H1096 0.950 . S
C1101 C1103 1.327 . S
C1101 C1107 1.429 . S
C1102 C1094 1.574 . S
C1102 H1097 0.949 . S
C1102 C1108 1.368 . S
C1103 C1087 1.349 . S
C1103 H1095 0.950 . S
C1103 C1101 1.327 . S
C1104 C1092 1.349 . S
C1104 H1098 0.950 . S
C1104 C1105 1.327 . S
C1105 H1099 0.950 1_545 S
C1105 C1104 1.327 . S
C1105 C1109 1.429 1_545 S
C1106 C1089 1.574 . S
C1106 H1100 0.949 . S
C1106 C1110 1.368 . S
C1107 C1088 1.429 . S
C1107 C1101 1.429 . S
C1107 C1108 1.523 . S
C1108 C1089 1.368 . S
C1108 C1102 1.368 . S
C1108 C1107 1.523 . S
C1109 C1093 1.429 . S
C1109 C1105 1.429 1_565 S
C1109 C1110 1.523 . S
C1110 C1094 1.368 . S
C1110 C1106 1.368 . S
C1110 C1109 1.523 . S
H1111 C1086 0.950 . S
H1112 C1088 0.950 . S
H1113 C1089 0.949 . S
H1114 C1091 0.950 . S
H1115 C1093 0.950 . S
C1116 C1117 1.349 . S
C1116 C1118 1.327 . S
C1116 H1141 0.950 . S
C1117 C1116 1.349 . S
C1117 C1133 1.349 . S
C1118 C1116 1.327 . S
C1118 C1137 1.429 . S
C1118 H1142 0.950 . S
C1119 C1136 1.574 . S
C1119 C1138 1.368 . S
C1119 H1143 0.949 . S
H1120 C1124 0.949 . S
C1121 C1122 1.349 . S
C1121 C1123 1.327 . S
C1121 H1144 0.950 . S
C1122 C1121 1.349 . S
C1122 C1134 1.349 . S
C1123 C1121 1.327 . S
C1123 C1139 1.429 . S
C1123 H1145 0.950 . S
C1124 H1120 0.949 . S
C1124 C1132 1.574 . S
C1124 C1140 1.368 . S
H1125 C1133 0.950 . S
H1126 C1131 0.950 . S
H1127 C1132 0.949 . S
H1128 C1134 0.950 . S
H1129 C1135 0.950 . S
H1130 C1136 0.949 . S
C1131 H1126 0.950 . S
C1131 C1133 1.327 . S
C1131 C1137 1.429 . S
C1132 C1124 1.574 . S
C1132 H1127 0.949 . S
C1132 C1138 1.368 . S
C1133 C1117 1.349 . S
C1133 H1125 0.950 . S
C1133 C1131 1.327 . S
C1134 C1122 1.349 . S
C1134 H1128 0.950 . S
C1134 C1135 1.327 . S
C1135 H1129 0.950 . S
C1135 C1134 1.327 . S
C1135 C1139 1.429 . S
C1136 C1119 1.574 . S
C1136 H1130 0.949 . S
C1136 C1140 1.368 . S
C1137 C1118 1.429 . S
C1137 C1131 1.429 . S
C1137 C1138 1.523 . S
C1138 C1119 1.368 . S
C1138 C1132 1.368 . S
C1138 C1137 1.523 . S
C1139 C1123 1.429 . S
C1139 C1135 1.429 . S
C1139 C1140 1.523 . S
C1140 C1124 1.368 . S
C1140 C1136 1.368 . S
C1140 C1139 1.523 . S
H1141 C1116 0.950 . S
H1142 C1118 0.950 . S
H1143 C1119 0.949 . S
H1144 C1121 0.950 . S
H1145 C1123 0.950 . S
C1146 C1147 1.349 . S
C1146 C1148 1.327 1_655 S
C1146 H1171 0.950 . S
C1147 C1146 1.349 . S
C1147 C1163 1.349 . S
C1148 C1146 1.327 1_455 S
C1148 C1167 1.429 . S
C1148 H1172 0.950 . S
C1149 C1166 1.574 . S
C1149 C1168 1.368 . S
C1149 H1173 0.949 . S
H1150 C1154 0.949 . S
C1151 C1152 1.349 . S
C1151 C1153 1.327 . S
C1151 H1174 0.950 . S
C1152 C1151 1.349 . S
C1152 C1164 1.349 . S
C1153 C1151 1.327 . S
C1153 C1169 1.429 . S
C1153 H1175 0.950 . S
C1154 H1150 0.949 . S
C1154 C1162 1.574 . S
C1154 C1170 1.368 . S
H1155 C1163 0.950 . S
H1156 C1161 0.936 1_455 S
H1157 C1162 0.949 . S
H1158 C1164 0.950 . S
H1159 C1165 0.950 . S
H1160 C1166 0.949 . S
C1161 H1156 0.936 1_655 S
C1161 C1163 1.327 . S
C1161 C1167 1.429 1_655 S
C1162 C1154 1.574 . S
C1162 H1157 0.949 . S
C1162 C1168 1.368 . S
C1163 C1147 1.349 . S
C1163 H1155 0.950 . S
C1163 C1161 1.327 . S
C1164 C1152 1.349 . S
C1164 H1158 0.950 . S
C1164 C1165 1.327 . S
C1165 H1159 0.950 . S
C1165 C1164 1.327 . S
C1165 C1169 1.429 . S
C1166 C1149 1.574 . S
C1166 H1160 0.949 . S
C1166 C1170 1.368 . S
C1167 C1148 1.429 . S
C1167 C1161 1.429 1_455 S
C1167 C1168 1.523 . S
C1168 C1149 1.368 . S
C1168 C1162 1.368 . S
C1168 C1167 1.523 . S
C1169 C1153 1.429 . S
C1169 C1165 1.429 . S
C1169 C1170 1.523 . S
C1170 C1154 1.368 . S
C1170 C1166 1.368 . S
C1170 C1169 1.523 . S
H1171 C1146 0.950 . S
H1172 C1148 0.950 . S
H1173 C1149 0.949 . S
H1174 C1151 0.950 . S
H1175 C1153 0.950 . S
C1176 C1177 1.349 . S
C1176 C1178 1.327 . S
C1176 H1201 0.950 . S
C1177 C1176 1.349 . S
C1177 C1193 1.349 . S
C1178 C1176 1.327 . S
C1178 C1197 1.429 1_565 S
C1178 H1202 0.950 . S
C1179 C1196 1.574 . S
C1179 C1198 1.368 . S
C1179 H1203 0.949 . S
H1180 C1184 0.949 . S
C1181 C1182 1.349 . S
C1181 C1183 1.327 . S
C1181 H1204 0.950 . S
C1182 C1181 1.349 . S
C1182 C1194 1.349 . S
C1183 C1181 1.327 . S
C1183 C1199 1.429 . S
C1183 H1205 0.950 . S
C1184 H1180 0.949 . S
C1184 C1192 1.574 . S
C1184 C1200 1.368 . S
H1185 C1193 0.950 1_545 S
H1186 C1191 0.950 . S
H1187 C1192 0.949 . S
H1188 C1194 0.950 . S
H1189 C1195 0.950 . S
H1190 C1196 0.949 . S
C1191 H1186 0.950 . S
C1191 C1193 1.327 1_545 S
C1191 C1197 1.429 . S
C1192 C1184 1.574 . S
C1192 H1187 0.949 . S
C1192 C1198 1.368 . S
C1193 C1177 1.349 . S
C1193 H1185 0.950 1_565 S
C1193 C1191 1.327 1_565 S
C1194 C1182 1.349 . S
C1194 H1188 0.950 . S
C1194 C1195 1.327 . S
C1195 H1189 0.950 . S
C1195 C1194 1.327 . S
C1195 C1199 1.429 . S
C1196 C1179 1.574 . S
C1196 H1190 0.949 . S
C1196 C1200 1.368 . S
C1197 C1178 1.429 1_545 S
C1197 C1191 1.429 . S
C1197 C1198 1.523 . S
C1198 C1179 1.368 . S
C1198 C1192 1.368 . S
C1198 C1197 1.523 . S
C1199 C1183 1.429 . S
C1199 C1195 1.429 . S
C1199 C1200 1.523 . S
C1200 C1184 1.368 . S
C1200 C1196 1.368 . S
C1200 C1199 1.523 . S
H1201 C1176 0.950 . S
H1202 C1178 0.950 . S
H1203 C1179 0.949 . S
H1204 C1181 0.950 . S
H1205 C1183 0.950 . S
C1206 C1207 1.349 . S
C1206 C1208 1.327 . S
C1206 H1231 0.950 . S
C1207 C1206 1.349 . S
C1207 C1223 1.349 . S
C1208 C1206 1.327 . S
C1208 C1227 1.429 . S
C1208 H1232 0.950 . S
C1209 C1226 1.574 . S
C1209 C1228 1.368 . S
C1209 H1233 0.949 . S
H1210 C1214 0.949 . S
C1211 C1212 1.349 . S
C1211 C1213 1.327 . S
C1211 H1234 0.950 . S
C1212 C1211 1.349 . S
C1212 C1224 1.349 . S
C1213 C1211 1.327 . S
C1213 C1229 1.429 . S
C1213 H1235 0.950 . S
C1214 H1210 0.949 . S
C1214 C1222 1.574 . S
C1214 C1230 1.368 . S
H1215 C1223 0.950 . S
H1216 C1221 0.950 . S
H1217 C1222 0.949 . S
H1218 C1224 0.950 . S
H1219 C1225 0.950 . S
H1220 C1226 0.949 . S
C1221 H1216 0.950 . S
C1221 C1223 1.327 . S
C1221 C1227 1.429 . S
C1222 C1214 1.574 . S
C1222 H1217 0.949 . S
C1222 C1228 1.368 . S
C1223 C1207 1.349 . S
C1223 H1215 0.950 . S
C1223 C1221 1.327 . S
C1224 C1212 1.349 . S
C1224 H1218 0.950 . S
C1224 C1225 1.327 . S
C1225 H1219 0.950 . S
C1225 C1224 1.327 . S
C1225 C1229 1.429 . S
C1226 C1209 1.574 . S
C1226 H1220 0.949 . S
C1226 C1230 1.368 . S
C1227 C1208 1.429 . S
C1227 C1221 1.429 . S
C1227 C1228 1.523 . S
C1228 C1209 1.368 . S
C1228 C1222 1.368 . S
C1228 C1227 1.523 . S
C1229 C1213 1.429 . S
C1229 C1225 1.429 . S
C1229 C1230 1.523 . S
C1230 C1214 1.368 . S
C1230 C1226 1.368 . S
C1230 C1229 1.523 . S
H1231 C1206 0.950 . S
H1232 C1208 0.950 . S
H1233 C1209 0.949 . S
H1234 C1211 0.950 . S
H1235 C1213 0.950 . S
C1236 C1237 1.349 . S
C1236 C1238 1.327 . S
C1236 H1261 0.950 . S
C1237 C1236 1.349 . S
C1237 C1253 1.349 . S
C1238 C1236 1.327 . S
C1238 C1257 1.429 . S
C1238 H1262 0.950 . S
C1239 C1256 1.574 . S
C1239 C1258 1.368 . S
C1239 H1263 0.949 . S
H1240 C1244 0.949 . S
C1241 C1242 1.330 1_655 S
C1241 C1243 1.345 . S
C1241 H1264 0.952 . S
C1242 C1241 1.330 1_455 S
C1242 C1254 1.349 . S
C1243 C1241 1.345 . S
C1243 C1259 1.429 . S
C1243 H1265 0.950 . S
C1244 H1240 0.949 . S
C1244 C1252 1.574 . S
C1244 C1260 1.368 . S
H1245 C1253 0.950 . S
H1246 C1251 0.950 . S
H1247 C1252 0.949 . S
H1248 C1254 0.950 . S
H1249 C1255 0.950 . S
H1250 C1256 0.949 . S
C1251 H1246 0.950 . S
C1251 C1253 1.327 . S
C1251 C1257 1.429 . S
C1252 C1244 1.574 . S
C1252 H1247 0.949 . S
C1252 C1258 1.368 . S
C1253 C1237 1.349 . S
C1253 H1245 0.950 . S
C1253 C1251 1.327 . S
C1254 C1242 1.349 . S
C1254 H1248 0.950 . S
C1254 C1255 1.327 . S
C1255 H1249 0.950 . S
C1255 C1254 1.327 . S
C1255 C1259 1.429 1_455 S
C1256 C1239 1.574 . S
C1256 H1250 0.949 . S
C1256 C1260 1.368 . S
C1257 C1238 1.429 . S
C1257 C1251 1.429 . S
C1257 C1258 1.523 . S
C1258 C1239 1.368 . S
C1258 C1252 1.368 . S
C1258 C1257 1.523 . S
C1259 C1243 1.429 . S
C1259 C1255 1.429 1_655 S
C1259 C1260 1.523 . S
C1260 C1244 1.368 . S
C1260 C1256 1.368 . S
C1260 C1259 1.523 . S
H1261 C1236 0.950 . S
H1262 C1238 0.950 . S
H1263 C1239 0.949 . S
H1264 C1241 0.952 . S
H1265 C1243 0.950 . S
C1266 C1267 1.349 . S
C1266 C1268 1.327 . S
C1266 H1291 0.950 . S
C1267 C1266 1.349 . S
C1267 C1283 1.349 1_545 S
C1268 C1266 1.327 . S
C1268 C1287 1.429 1_545 S
C1268 H1292 0.950 . S
C1269 C1286 1.574 . S
C1269 C1288 1.368 . S
C1269 H1293 0.949 . S
H1270 C1274 0.949 . S
C1271 C1272 1.349 . S
C1271 C1273 1.327 . S
C1271 H1294 0.950 . S
C1272 C1271 1.349 . S
C1272 C1284 1.349 . S
C1273 C1271 1.327 . S
C1273 C1289 1.429 . S
C1273 H1295 0.950 . S
C1274 H1270 0.949 . S
C1274 C1282 1.574 . S
C1274 C1290 1.368 . S
H1275 C1283 0.950 . S
H1276 C1281 0.950 . S
H1277 C1282 0.949 1_545 S
H1278 C1284 0.950 . S
H1279 C1285 0.950 . S
H1280 C1286 0.949 . S
C1281 H1276 0.950 . S
C1281 C1283 1.327 . S
C1281 C1287 1.429 . S
C1282 C1274 1.574 . S
C1282 H1277 0.949 1_565 S
C1282 C1288 1.368 . S
C1283 C1267 1.349 1_565 S
C1283 H1275 0.950 . S
C1283 C1281 1.327 . S
C1284 C1272 1.349 . S
C1284 H1278 0.950 . S
C1284 C1285 1.327 . S
C1285 H1279 0.950 . S
C1285 C1284 1.327 . S
C1285 C1289 1.429 . S
C1286 C1269 1.574 . S
C1286 H1280 0.949 . S
C1286 C1290 1.368 . S
C1287 C1268 1.429 1_565 S
C1287 C1281 1.429 . S
C1287 C1288 1.523 . S
C1288 C1269 1.368 . S
C1288 C1282 1.368 . S
C1288 C1287 1.523 . S
C1289 C1273 1.429 . S
C1289 C1285 1.429 . S
C1289 C1290 1.523 . S
C1290 C1274 1.368 . S
C1290 C1286 1.368 . S
C1290 C1289 1.523 . S
H1291 C1266 0.950 . S
H1292 C1268 0.950 . S
H1293 C1269 0.949 . S
H1294 C1271 0.950 . S
H1295 C1273 0.950 . S
C397 N2 0.674 . S
C402 N266 0.674 . S
C427 N299 0.674 . S
C432 N35 0.674 . S
C457 N332 0.674 . S
C462 N68 0.674 . S
C487 N101 0.673 . S
C492 N365 0.673 . S
C517 N134 0.673 . S
C522 N200 0.673 . S
C547 N167 0.673 . S
C552 N233 0.673 . S
C577 N244 1.885 . S
C582 C21 1.870 . S
C607 C54 1.870 . S
C612 N277 1.884 . S
C637 N310 1.885 . S
C642 C87 1.870 . S
C667 N343 1.885 . S
C672 C120 1.870 . S
C697 N376 1.885 . S
C702 C153 1.870 . S
C727 N211 1.885 . S
C732 C186 1.870 . S
C757 N178 1.885 . S
C762 C219 1.870 . S
C787 C252 1.870 . S
C792 N13 1.884 . S
C817 C285 1.870 . S
C822 N46 1.885 . S
C847 N79 1.885 . S
C852 C318 1.870 . S
C877 N112 1.885 . S
C882 C351 1.870 . S
C907 N145 1.885 . S
C912 C384 1.870 . S
C937 C183 0.789 . S
C942 C7 0.781 . S
C967 C18 0.789 . S
C972 C40 0.781 . S
C997 C73 0.781 . S
C1002 C51 0.789 . S
C1027 C84 0.788 . S
C1032 C106 0.781 . S
C1057 C117 0.788 . S
C1062 C139 0.781 . S
C1087 C150 0.789 . S
C1092 C172 0.781 . S
C1117 C205 0.781 . S
C1122 C249 0.788 . S
C1147 C238 0.747 1_554 S
C1152 C282 0.788 . S
C1177 C271 0.781 . S
C1182 C315 0.789 . S
C1207 C348 0.789 . S
C1212 C304 0.781 . S
C1237 C381 0.789 . S
C1242 C337 0.781 . S
C1267 C370 0.781 . S
C1272 C216 0.788 . S
