# Generated by pormake.
# Topology wgd, (5)-cn, num edge types: 1
# Building blocks:
#     Node 0, Type 0, BuildingBlock: XOMCOT_clean_sbu_1, # of connection points: 5
#     Node 1, Type 0, BuildingBlock: XOMCOT_clean_sbu_1, # of connection points: 5
#     Node 2, Type 0, BuildingBlock: XOMCOT_clean_sbu_1, # of connection points: 5
#     Node 3, Type 0, BuildingBlock: XOMCOT_clean_sbu_1, # of connection points: 5
#     Node 4, Type 0, BuildingBlock: XOMCOT_clean_sbu_1, # of connection points: 5
#     Node 5, Type 0, BuildingBlock: XOMCOT_clean_sbu_1, # of connection points: 5
#     Node 6, Type 0, BuildingBlock: XOMCOT_clean_sbu_1, # of connection points: 5
#     Node 7, Type 0, BuildingBlock: XOMCOT_clean_sbu_1, # of connection points: 5
#     Node 8, Type 0, BuildingBlock: XOMCOT_clean_sbu_1, # of connection points: 5
#     Node 9, Type 0, BuildingBlock: XOMCOT_clean_sbu_1, # of connection points: 5
#     Node 10, Type 0, BuildingBlock: XOMCOT_clean_sbu_1, # of connection points: 5
#     Node 11, Type 0, BuildingBlock: XOMCOT_clean_sbu_1, # of connection points: 5
#     Node 12, Type 0, BuildingBlock: XOMCOT_clean_sbu_1, # of connection points: 5
#     Node 13, Type 0, BuildingBlock: XOMCOT_clean_sbu_1, # of connection points: 5
#     Node 14, Type 0, BuildingBlock: XOMCOT_clean_sbu_1, # of connection points: 5
#     Node 15, Type 0, BuildingBlock: XOMCOT_clean_sbu_1, # of connection points: 5
#     Node 16, Type 0, BuildingBlock: XOMCOT_clean_sbu_1, # of connection points: 5
#     Node 17, Type 0, BuildingBlock: XOMCOT_clean_sbu_1, # of connection points: 5
#     Node 18, Type 0, BuildingBlock: XOMCOT_clean_sbu_1, # of connection points: 5
#     Node 19, Type 0, BuildingBlock: XOMCOT_clean_sbu_1, # of connection points: 5
#     Node 20, Type 0, BuildingBlock: XOMCOT_clean_sbu_1, # of connection points: 5
#     Node 21, Type 0, BuildingBlock: XOMCOT_clean_sbu_1, # of connection points: 5
#     Node 22, Type 0, BuildingBlock: XOMCOT_clean_sbu_1, # of connection points: 5
#     Node 23, Type 0, BuildingBlock: XOMCOT_clean_sbu_1, # of connection points: 5
#     Node 24, Type 0, BuildingBlock: XOMCOT_clean_sbu_1, # of connection points: 5
#     Node 25, Type 0, BuildingBlock: XOMCOT_clean_sbu_1, # of connection points: 5
#     Node 26, Type 0, BuildingBlock: XOMCOT_clean_sbu_1, # of connection points: 5
#     Node 27, Type 0, BuildingBlock: XOMCOT_clean_sbu_1, # of connection points: 5
#     Node 28, Type 0, BuildingBlock: XOMCOT_clean_sbu_1, # of connection points: 5
#     Node 29, Type 0, BuildingBlock: XOMCOT_clean_sbu_1, # of connection points: 5
#     Node 30, Type 0, BuildingBlock: XOMCOT_clean_sbu_1, # of connection points: 5
#     Node 31, Type 0, BuildingBlock: XOMCOT_clean_sbu_1, # of connection points: 5
#     Edge 32, Type (0, 0), BuildingBlock: ZUJKAS_clean_linker_0, # of connection points: 2
#     Edge 33, Type (0, 0), BuildingBlock: ZUJKAS_clean_linker_0, # of connection points: 2
#     Edge 34, Type (0, 0), BuildingBlock: ZUJKAS_clean_linker_0, # of connection points: 2
#     Edge 35, Type (0, 0), BuildingBlock: ZUJKAS_clean_linker_0, # of connection points: 2
#     Edge 36, Type (0, 0), BuildingBlock: ZUJKAS_clean_linker_0, # of connection points: 2
#     Edge 37, Type (0, 0), BuildingBlock: ZUJKAS_clean_linker_0, # of connection points: 2
#     Edge 38, Type (0, 0), BuildingBlock: ZUJKAS_clean_linker_0, # of connection points: 2
#     Edge 39, Type (0, 0), BuildingBlock: ZUJKAS_clean_linker_0, # of connection points: 2
#     Edge 40, Type (0, 0), BuildingBlock: ZUJKAS_clean_linker_0, # of connection points: 2
#     Edge 41, Type (0, 0), BuildingBlock: ZUJKAS_clean_linker_0, # of connection points: 2
#     Edge 42, Type (0, 0), BuildingBlock: ZUJKAS_clean_linker_0, # of connection points: 2
#     Edge 43, Type (0, 0), BuildingBlock: ZUJKAS_clean_linker_0, # of connection points: 2
#     Edge 44, Type (0, 0), BuildingBlock: ZUJKAS_clean_linker_0, # of connection points: 2
#     Edge 45, Type (0, 0), BuildingBlock: ZUJKAS_clean_linker_0, # of connection points: 2
#     Edge 46, Type (0, 0), BuildingBlock: ZUJKAS_clean_linker_0, # of connection points: 2
#     Edge 47, Type (0, 0), BuildingBlock: ZUJKAS_clean_linker_0, # of connection points: 2
#     Edge 48, Type (0, 0), BuildingBlock: ZUJKAS_clean_linker_0, # of connection points: 2
#     Edge 49, Type (0, 0), BuildingBlock: ZUJKAS_clean_linker_0, # of connection points: 2
#     Edge 50, Type (0, 0), BuildingBlock: ZUJKAS_clean_linker_0, # of connection points: 2
#     Edge 51, Type (0, 0), BuildingBlock: ZUJKAS_clean_linker_0, # of connection points: 2
#     Edge 52, Type (0, 0), BuildingBlock: ZUJKAS_clean_linker_0, # of connection points: 2
#     Edge 53, Type (0, 0), BuildingBlock: ZUJKAS_clean_linker_0, # of connection points: 2
#     Edge 54, Type (0, 0), BuildingBlock: ZUJKAS_clean_linker_0, # of connection points: 2
#     Edge 55, Type (0, 0), BuildingBlock: ZUJKAS_clean_linker_0, # of connection points: 2
#     Edge 56, Type (0, 0), BuildingBlock: ZUJKAS_clean_linker_0, # of connection points: 2
#     Edge 57, Type (0, 0), BuildingBlock: ZUJKAS_clean_linker_0, # of connection points: 2
#     Edge 58, Type (0, 0), BuildingBlock: ZUJKAS_clean_linker_0, # of connection points: 2
#     Edge 59, Type (0, 0), BuildingBlock: ZUJKAS_clean_linker_0, # of connection points: 2
#     Edge 60, Type (0, 0), BuildingBlock: ZUJKAS_clean_linker_0, # of connection points: 2
#     Edge 61, Type (0, 0), BuildingBlock: ZUJKAS_clean_linker_0, # of connection points: 2
#     Edge 62, Type (0, 0), BuildingBlock: ZUJKAS_clean_linker_0, # of connection points: 2
#     Edge 63, Type (0, 0), BuildingBlock: ZUJKAS_clean_linker_0, # of connection points: 2
#     Edge 64, Type (0, 0), BuildingBlock: ZUJKAS_clean_linker_0, # of connection points: 2
#     Edge 65, Type (0, 0), BuildingBlock: ZUJKAS_clean_linker_0, # of connection points: 2
#     Edge 66, Type (0, 0), BuildingBlock: ZUJKAS_clean_linker_0, # of connection points: 2
#     Edge 67, Type (0, 0), BuildingBlock: ZUJKAS_clean_linker_0, # of connection points: 2
#     Edge 68, Type (0, 0), BuildingBlock: ZUJKAS_clean_linker_0, # of connection points: 2
#     Edge 69, Type (0, 0), BuildingBlock: ZUJKAS_clean_linker_0, # of connection points: 2
#     Edge 70, Type (0, 0), BuildingBlock: ZUJKAS_clean_linker_0, # of connection points: 2
#     Edge 71, Type (0, 0), BuildingBlock: ZUJKAS_clean_linker_0, # of connection points: 2
#     Edge 72, Type (0, 0), BuildingBlock: ZUJKAS_clean_linker_0, # of connection points: 2
#     Edge 73, Type (0, 0), BuildingBlock: ZUJKAS_clean_linker_0, # of connection points: 2
#     Edge 74, Type (0, 0), BuildingBlock: ZUJKAS_clean_linker_0, # of connection points: 2
#     Edge 75, Type (0, 0), BuildingBlock: ZUJKAS_clean_linker_0, # of connection points: 2
#     Edge 76, Type (0, 0), BuildingBlock: ZUJKAS_clean_linker_0, # of connection points: 2
#     Edge 77, Type (0, 0), BuildingBlock: ZUJKAS_clean_linker_0, # of connection points: 2
#     Edge 78, Type (0, 0), BuildingBlock: ZUJKAS_clean_linker_0, # of connection points: 2
#     Edge 79, Type (0, 0), BuildingBlock: ZUJKAS_clean_linker_0, # of connection points: 2
#     Edge 80, Type (0, 0), BuildingBlock: ZUJKAS_clean_linker_0, # of connection points: 2
#     Edge 81, Type (0, 0), BuildingBlock: ZUJKAS_clean_linker_0, # of connection points: 2
#     Edge 82, Type (0, 0), BuildingBlock: ZUJKAS_clean_linker_0, # of connection points: 2
#     Edge 83, Type (0, 0), BuildingBlock: ZUJKAS_clean_linker_0, # of connection points: 2
#     Edge 84, Type (0, 0), BuildingBlock: ZUJKAS_clean_linker_0, # of connection points: 2
#     Edge 85, Type (0, 0), BuildingBlock: ZUJKAS_clean_linker_0, # of connection points: 2
#     Edge 86, Type (0, 0), BuildingBlock: ZUJKAS_clean_linker_0, # of connection points: 2
#     Edge 87, Type (0, 0), BuildingBlock: ZUJKAS_clean_linker_0, # of connection points: 2
#     Edge 88, Type (0, 0), BuildingBlock: ZUJKAS_clean_linker_0, # of connection points: 2
#     Edge 89, Type (0, 0), BuildingBlock: ZUJKAS_clean_linker_0, # of connection points: 2
#     Edge 90, Type (0, 0), BuildingBlock: ZUJKAS_clean_linker_0, # of connection points: 2
#     Edge 91, Type (0, 0), BuildingBlock: ZUJKAS_clean_linker_0, # of connection points: 2
#     Edge 92, Type (0, 0), BuildingBlock: ZUJKAS_clean_linker_0, # of connection points: 2
#     Edge 93, Type (0, 0), BuildingBlock: ZUJKAS_clean_linker_0, # of connection points: 2
#     Edge 94, Type (0, 0), BuildingBlock: ZUJKAS_clean_linker_0, # of connection points: 2
#     Edge 95, Type (0, 0), BuildingBlock: ZUJKAS_clean_linker_0, # of connection points: 2
#     Edge 96, Type (0, 0), BuildingBlock: ZUJKAS_clean_linker_0, # of connection points: 2
#     Edge 97, Type (0, 0), BuildingBlock: ZUJKAS_clean_linker_0, # of connection points: 2
#     Edge 98, Type (0, 0), BuildingBlock: ZUJKAS_clean_linker_0, # of connection points: 2
#     Edge 99, Type (0, 0), BuildingBlock: ZUJKAS_clean_linker_0, # of connection points: 2
#     Edge 100, Type (0, 0), BuildingBlock: ZUJKAS_clean_linker_0, # of connection points: 2
#     Edge 101, Type (0, 0), BuildingBlock: ZUJKAS_clean_linker_0, # of connection points: 2
#     Edge 102, Type (0, 0), BuildingBlock: ZUJKAS_clean_linker_0, # of connection points: 2
#     Edge 103, Type (0, 0), BuildingBlock: ZUJKAS_clean_linker_0, # of connection points: 2
#     Edge 104, Type (0, 0), BuildingBlock: ZUJKAS_clean_linker_0, # of connection points: 2
#     Edge 105, Type (0, 0), BuildingBlock: ZUJKAS_clean_linker_0, # of connection points: 2
#     Edge 106, Type (0, 0), BuildingBlock: ZUJKAS_clean_linker_0, # of connection points: 2
#     Edge 107, Type (0, 0), BuildingBlock: ZUJKAS_clean_linker_0, # of connection points: 2
#     Edge 108, Type (0, 0), BuildingBlock: ZUJKAS_clean_linker_0, # of connection points: 2
#     Edge 109, Type (0, 0), BuildingBlock: ZUJKAS_clean_linker_0, # of connection points: 2
#     Edge 110, Type (0, 0), BuildingBlock: ZUJKAS_clean_linker_0, # of connection points: 2
#     Edge 111, Type (0, 0), BuildingBlock: ZUJKAS_clean_linker_0, # of connection points: 2
# Relax obj value: 0.181
# Max RMSD: 0.162
# Mean RMSD: 0.162
data_MOF--net-wgd--node1-XOMCOT_clean_sbu_1--edge1-ZUJKAS_clean_linker_0
_symmetry_space_group_name_H-M    P1
_symmetry_Int_Tables_number       1
_symmetry_cell_setting            triclinic
loop_
_symmetry_equiv_pos_as_xyz
'x, y, z'
_cell_length_a     130.45697
_cell_length_b     130.45322
_cell_length_c     21.62374
_cell_angle_alpha  89.987561
_cell_angle_beta   90.011093
_cell_angle_gamma 90.003571
loop_
_atom_site_label
_atom_site_type_symbol
_atom_site_fract_x
_atom_site_fract_y
_atom_site_fract_z
_atom_type_partial_charge
C0 C 0.17882 0.16806 0.02724 0.0
C1 C 0.17639 0.16804 0.08923 0.0
N2 N 0.18317 0.16199 0.11889 0.0
N3 N 0.18711 0.16209 0.01826 0.0
C4 C 0.18945 0.15835 0.07456 0.0
H5 H 0.17508 0.17247 0.99138 0.0
Co6 Co 0.19418 0.16043 0.94494 0.0
C7 C 0.21577 0.15982 0.98738 0.0
O8 O 0.21818 0.16645 0.94391 0.0
N9 N 0.20092 0.15835 0.86939 0.0
C10 C 0.20994 0.15108 0.79365 0.0
C11 C 0.20892 0.1521 0.85657 0.0
C12 C 0.19691 0.16054 0.81336 0.0
N13 N 0.20235 0.15641 0.7666 0.0
O14 O 0.18973 0.14646 0.94132 0.0
H15 H 0.2133 0.14784 0.89027 0.0
H16 H 0.18956 0.16419 0.80694 0.0
O17 O 0.20657 0.15648 0.99132 0.0
C18 C 0.18115 0.14571 0.91363 0.0
O19 O 0.17673 0.15417 0.8941 0.0
N20 N 0.19786 0.1746 0.94799 0.0
C21 C 0.2008 0.19587 0.9557 0.0
C22 C 0.20381 0.18941 0.00421 0.0
C23 C 0.20211 0.17886 -7e-05 0.0
C24 C 0.19449 0.18087 0.90171 0.0
C25 C 0.19606 0.19145 0.904 0.0
H26 H 0.204 0.17416 0.03942 0.0
H27 H 0.19007 0.17783 0.86405 0.0
H28 H 0.19581 0.15323 0.08322 0.0
H29 H 0.17045 0.17256 0.11106 0.0
H30 H 0.21555 0.14641 0.76993 0.0
H31 H 0.20734 0.19248 0.04558 0.0
H32 H 0.19317 0.19618 0.86669 0.0
C33 C 0.08354 0.92696 0.30972 0.0
C34 C 0.08529 0.92506 0.37146 0.0
N35 N 0.09183 0.93222 0.39292 0.0
N36 N 0.08896 0.93529 0.2925 0.0
C37 C 0.094 0.93825 0.34397 0.0
H38 H 0.07844 0.92275 0.27963 0.0
Co39 Co 0.08873 0.94141 0.21492 0.0
C40 C 0.0912 0.96383 0.24894 0.0
O41 O 0.08423 0.96688 0.20944 0.0
N42 N 0.08847 0.94741 0.13456 0.0
C43 C 0.08374 0.95574 0.04901 0.0
C44 C 0.08154 0.95399 0.10998 0.0
C45 C 0.09461 0.94504 0.086 0.0
N46 N 0.09195 0.95008 0.03392 0.0
O47 O 0.10271 0.93723 0.20272 0.0
H48 H 0.07489 0.95701 0.13345 0.0
H49 H 0.10073 0.93947 0.08769 0.0
O50 O 0.09349 0.95432 0.2528 0.0
C51 C 0.10342 0.92768 0.19094 0.0
O52 O 0.09494 0.92228 0.18684 0.0
N53 N 0.07483 0.94456 0.22727 0.0
C54 C 0.05369 0.94696 0.24019 0.0
C55 C 0.06047 0.95175 0.28147 0.0
C56 C 0.07105 0.95034 0.2747 0.0
C57 C 0.06834 0.93937 0.1891 0.0
C58 C 0.05775 0.94061 0.19398 0.0
H59 H 0.07614 0.95374 0.30831 0.0
H60 H 0.07143 0.93432 0.15412 0.0
H61 H 0.09909 0.94477 0.3459 0.0
H62 H 0.08166 0.91915 0.39897 0.0
H63 H 0.07925 0.9603 0.0171 0.0
H64 H 0.05765 0.95656 0.31857 0.0
H65 H 0.05279 0.93647 0.16248 0.0
C66 C 0.32919 0.83807 0.59828 0.0
C67 C 0.3316 0.83852 0.66018 0.0
N68 N 0.32478 0.84473 0.68829 0.0
N69 N 0.32087 0.84391 0.58748 0.0
C70 C 0.31842 0.84797 0.64303 0.0
H71 H 0.33303 0.83349 0.5636 0.0
Co72 Co 0.31397 0.84471 0.51238 0.0
C73 C 0.2953 0.85596 0.5494 0.0
O74 O 0.29667 0.86276 0.50535 0.0
N75 N 0.30718 0.84541 0.43689 0.0
C76 C 0.296 0.84325 0.36066 0.0
C77 C 0.29756 0.84236 0.42333 0.0
C78 C 0.31133 0.84808 0.38206 0.0
N79 N 0.30469 0.84683 0.33476 0.0
O80 O 0.31792 0.85882 0.50406 0.0
H81 H 0.29214 0.83937 0.4566 0.0
H82 H 0.31924 0.85042 0.37666 0.0
O83 O 0.30156 0.84853 0.55547 0.0
C84 C 0.3273 0.86023 0.49021 0.0
O85 O 0.33333 0.85221 0.48493 0.0
N86 N 0.31069 0.83079 0.51864 0.0
C87 C 0.30781 0.80961 0.52255 0.0
C88 C 0.30354 0.81596 0.56821 0.0
C89 C 0.30508 0.82656 0.56549 0.0
C90 C 0.31503 0.82473 0.47452 0.0
C91 C 0.31361 0.81414 0.47522 0.0
H92 H 0.30196 0.83132 0.60174 0.0
H93 H 0.31972 0.82816 0.43883 0.0
H94 H 0.31182 0.85282 0.65081 0.0
H95 H 0.33776 0.83444 0.68286 0.0
H96 H 0.28906 0.84126 0.336 0.0
H97 H 0.29905 0.81276 0.60567 0.0
H98 H 0.31724 0.80951 0.43986 0.0
C99 C 0.41969 0.07488 0.75703 0.0
C100 C 0.41961 0.07743 0.81888 0.0
N101 N 0.41358 0.07066 0.8488 0.0
N102 N 0.41377 0.06654 0.74839 0.0
C103 C 0.41002 0.06426 0.80482 0.0
H104 H 0.42403 0.07864 0.72095 0.0
Co105 Co 0.41189 0.05952 0.67484 0.0
C106 C 0.41129 0.03796 0.71949 0.0
O107 O 0.4181 0.03537 0.67753 0.0
N108 N 0.40959 0.05286 0.59908 0.0
C109 C 0.40264 0.04364 0.52312 0.0
C110 C 0.40393 0.04444 0.586 0.0
C111 C 0.41111 0.0573 0.5434 0.0
N112 N 0.40714 0.05178 0.49638 0.0
O113 O 0.39795 0.06409 0.67257 0.0
H114 H 0.40018 0.0396 0.61953 0.0
H115 H 0.41455 0.06477 0.53777 0.0
O116 O 0.40792 0.04717 0.72142 0.0
C117 C 0.39716 0.07278 0.64608 0.0
O118 O 0.40559 0.07725 0.62653 0.0
N119 N 0.42604 0.05572 0.67638 0.0
C120 C 0.44734 0.0528 0.68166 0.0
C121 C 0.44107 0.05008 0.73167 0.0
C122 C 0.43049 0.05173 0.72848 0.0
C123 C 0.4321 0.05867 0.62816 0.0
C124 C 0.44269 0.0571 0.62929 0.0
H125 H 0.42593 0.05007 0.76894 0.0
H126 H 0.42891 0.06269 0.58938 0.0
H127 H 0.40489 0.05793 0.81379 0.0
H128 H 0.42399 0.0835 0.84043 0.0
H129 H 0.39812 0.0379 0.49942 0.0
H130 H 0.44432 0.04706 0.774 0.0
H131 H 0.44719 0.05944 0.58967 0.0
C132 C 0.17227 0.84829 0.85347 0.0
C133 C 0.17213 0.85043 0.79113 0.0
N134 N 0.18135 0.84796 0.76728 0.0
N135 N 0.18156 0.84456 0.86871 0.0
C136 C 0.1869 0.84441 0.81537 0.0
H137 H 0.16595 0.8492 0.88529 0.0
Co138 Co 0.18586 0.84007 0.94547 0.0
C139 C 0.20859 0.8451 0.94863 0.0
O140 O 0.21035 0.84061 0.00187 0.0
N141 N 0.18994 0.83544 0.02432 0.0
C142 C 0.19258 0.82558 0.10684 0.0
C143 C 0.19 0.82567 0.0454 0.0
C144 C 0.1923 0.84114 0.0747 0.0
N145 N 0.194 0.83531 0.1252 0.0
O146 O 0.18237 0.85323 0.97924 0.0
H147 H 0.18787 0.81898 0.01906 0.0
H148 H 0.19271 0.84942 0.07467 0.0
O149 O 0.19958 0.84507 0.9255 0.0
C150 C 0.17382 0.8535 0.0077 0.0
O151 O 0.16857 0.84494 0.01296 0.0
N152 N 0.1885 0.82704 0.91155 0.0
C153 C 0.18948 0.80627 0.88059 0.0
C154 C 0.19847 0.81205 0.88856 0.0
C155 C 0.19783 0.82245 0.90392 0.0
C156 C 0.17971 0.82172 0.9003 0.0
C157 C 0.18002 0.81135 0.88459 0.0
H158 H 0.20483 0.82653 0.91299 0.0
H159 H 0.17238 0.82545 0.90652 0.0
H160 H 0.19469 0.84164 0.81192 0.0
H161 H 0.16561 0.85324 0.76516 0.0
H162 H 0.19282 0.8189 0.13657 0.0
H163 H 0.20595 0.80847 0.8864 0.0
H164 H 0.17288 0.80728 0.87754 0.0
C165 C 0.41935 0.93234 0.18447 0.0
C166 C 0.41933 0.9298 0.12265 0.0
N167 N 0.41292 0.93624 0.09304 0.0
N168 N 0.41299 0.94034 0.19346 0.0
C169 C 0.40909 0.94246 0.13718 0.0
H170 H 0.42388 0.92876 0.2204 0.0
Co171 Co 0.41062 0.94705 0.2676 0.0
C172 C 0.40991 0.96876 0.22533 0.0
O173 O 0.41642 0.97135 0.26902 0.0
N174 N 0.40784 0.95338 0.34354 0.0
C175 C 0.40046 0.96227 0.41935 0.0
C176 C 0.40203 0.96169 0.35665 0.0
C177 C 0.40913 0.94875 0.39885 0.0
N178 N 0.40493 0.95409 0.44588 0.0
O179 O 0.39671 0.94237 0.26698 0.0
H180 H 0.39839 0.96661 0.3231 0.0
H181 H 0.41261 0.94128 0.40402 0.0
O182 O 0.40673 0.9595 0.22167 0.0
C183 C 0.39579 0.93301 0.28277 0.0
O184 O 0.40413 0.92769 0.29446 0.0
N185 N 0.42469 0.95103 0.26931 0.0
C186 C 0.44591 0.95449 0.26944 0.0
C187 C 0.43989 0.95731 0.2185 0.0
C188 C 0.42936 0.95536 0.21892 0.0
C189 C 0.43054 0.9479 0.31811 0.0
C190 C 0.44109 0.94971 0.31963 0.0
H191 H 0.42499 0.95715 0.17785 0.0
H192 H 0.42722 0.94353 0.35508 0.0
H193 H 0.4036 0.9485 0.12856 0.0
H194 H 0.42396 0.92394 0.10092 0.0
H195 H 0.39581 0.96792 0.44297 0.0
H196 H 0.44329 0.96089 0.17823 0.0
H197 H 0.44548 0.94698 0.35881 0.0
C198 C 0.3253 0.1689 0.44628 0.0
C199 C 0.32802 0.16907 0.38478 0.0
N200 N 0.32079 0.164 0.35244 0.0
N201 N 0.31637 0.16383 0.45244 0.0
C202 C 0.31388 0.16082 0.39469 0.0
H203 H 0.32939 0.1725 0.48398 0.0
Co204 Co 0.30918 0.16246 0.52568 0.0
C205 C 0.28756 0.16172 0.48355 0.0
O206 O 0.2852 0.16853 0.52606 0.0
N207 N 0.30231 0.16074 0.60152 0.0
C208 C 0.29316 0.15361 0.67722 0.0
C209 C 0.29442 0.15435 0.61436 0.0
C210 C 0.30601 0.16332 0.6578 0.0
N211 N 0.30051 0.15924 0.70456 0.0
O212 O 0.31348 0.14846 0.53114 0.0
H213 H 0.2903 0.14981 0.58083 0.0
H214 H 0.31323 0.1672 0.66467 0.0
O215 O 0.29678 0.15841 0.47955 0.0
C216 C 0.32182 0.1476 0.5614 0.0
O217 O 0.32612 0.15598 0.58299 0.0
N218 N 0.30569 0.17664 0.52055 0.0
C219 C 0.30359 0.19797 0.50832 0.0
C220 C 0.29992 0.19132 0.46245 0.0
C221 C 0.30125 0.18075 0.46875 0.0
C222 C 0.30962 0.18304 0.56446 0.0
C223 C 0.3085 0.19367 0.55987 0.0
H224 H 0.29899 0.17591 0.43062 0.0
H225 H 0.31421 0.18003 0.60151 0.0
H226 H 0.30688 0.15681 0.38327 0.0
H227 H 0.3347 0.17279 0.36536 0.0
H228 H 0.28758 0.14887 0.70077 0.0
H229 H 0.29621 0.19424 0.42127 0.0
H230 H 0.31191 0.19849 0.59508 0.0
C231 C 0.08408 0.0704 0.70824 0.0
C232 C 0.08398 0.07305 0.6466 0.0
N233 N 0.09034 0.06668 0.61606 0.0
N234 N 0.09039 0.06234 0.7162 0.0
C235 C 0.09418 0.06032 0.65949 0.0
H236 H 0.07972 0.07399 0.74486 0.0
Co237 Co 0.09295 0.05564 0.79006 0.0
C238 C 0.09393 0.0339 0.74941 0.0
O239 O 0.08757 0.03136 0.79403 0.0
N240 N 0.0959 0.04931 0.8661 0.0
C241 C 0.10371 0.04059 0.94125 0.0
C242 C 0.10219 0.04132 0.87851 0.0
C243 C 0.09422 0.05361 0.92202 0.0
N244 N 0.09867 0.04835 0.96855 0.0
O245 O 0.10676 0.06057 0.78854 0.0
H246 H 0.10611 0.03671 0.84446 0.0
H247 H 0.09059 0.06098 0.92822 0.0
O248 O 0.09692 0.04321 0.74415 0.0
C249 C 0.1073 0.06937 0.81376 0.0
O250 O 0.09877 0.07356 0.83396 0.0
N251 N 0.07891 0.05155 0.79254 0.0
C252 C 0.05769 0.0481 0.79465 0.0
C253 C 0.06363 0.04497 0.744 0.0
C254 C 0.07417 0.04692 0.74337 0.0
C255 C 0.07312 0.05507 0.84058 0.0
C256 C 0.06259 0.05325 0.8432 0.0
H257 H 0.07847 0.04494 0.7024 0.0
H258 H 0.07647 0.0598 0.87577 0.0
H259 H 0.09943 0.0541 0.64989 0.0
H260 H 0.07954 0.07917 0.62597 0.0
H261 H 0.10847 0.035 0.96456 0.0
H262 H 0.06015 0.04115 0.70478 0.0
H263 H 0.05825 0.05628 0.88179 0.0
C264 C 0.82598 0.83464 0.91154 0.0
C265 C 0.82837 0.83496 0.84959 0.0
N266 N 0.82162 0.8412 0.82121 0.0
N267 N 0.81772 0.84058 0.92198 0.0
C268 C 0.81531 0.84458 0.86624 0.0
H269 H 0.82976 0.83005 0.94644 0.0
Co270 Co 0.81076 0.84151 0.99671 0.0
C271 C 0.79285 0.85337 0.95149 0.0
O272 O 0.79541 0.8614 0.98463 0.0
N273 N 0.8039 0.84238 0.07157 0.0
C274 C 0.79247 0.84076 0.14689 0.0
C275 C 0.79409 0.83988 0.08426 0.0
C276 C 0.80809 0.84476 0.12674 0.0
N277 N 0.8013 0.84382 0.17348 0.0
O278 O 0.81487 0.85557 0.00469 0.0
H279 H 0.78857 0.83724 0.05048 0.0
H280 H 0.8161 0.84667 0.13279 0.0
O281 O 0.7983 0.84526 0.9534 0.0
C282 C 0.82424 0.85689 0.01912 0.0
O283 O 0.83017 0.84881 0.02496 0.0
N284 N 0.80742 0.82758 0.99098 0.0
C285 C 0.80507 0.80634 0.9849 0.0
C286 C 0.80075 0.81271 0.93947 0.0
C287 C 0.80209 0.82333 0.94307 0.0
C288 C 0.81164 0.82153 0.03556 0.0
C289 C 0.81049 0.81091 0.0337 0.0
H290 H 0.79919 0.82808 0.9061 0.0
H291 H 0.8161 0.82498 0.07227 0.0
H292 H 0.80873 0.84944 0.85805 0.0
H293 H 0.83445 0.83073 0.82699 0.0
H294 H 0.7854 0.8391 0.17108 0.0
H295 H 0.7967 0.8095 0.90028 0.0
H296 H 0.8139 0.80631 0.06999 0.0
C297 C 0.92035 0.07197 0.75167 0.0
C298 C 0.92038 0.0743 0.6895 0.0
N299 N 0.91404 0.06771 0.66044 0.0
N300 N 0.91407 0.06393 0.7613 0.0
C301 C 0.91018 0.06166 0.70526 0.0
H302 H 0.92496 0.07557 0.78715 0.0
Co303 Co 0.91219 0.05688 0.83455 0.0
C304 C 0.91118 0.03531 0.79088 0.0
O305 O 0.91779 0.03262 0.83388 0.0
N306 N 0.90991 0.05012 0.90989 0.0
C307 C 0.90254 0.04098 0.98477 0.0
C308 C 0.90356 0.04216 0.92197 0.0
C309 C 0.91215 0.05395 0.9663 0.0
N310 N 0.90796 0.04843 0.01255 0.0
O311 O 0.89829 0.06152 0.83722 0.0
H312 H 0.89926 0.03791 0.88789 0.0
H313 H 0.91594 0.06121 0.97344 0.0
O314 O 0.90808 0.0446 0.78782 0.0
C315 C 0.89742 0.07007 0.86515 0.0
O316 O 0.90577 0.07442 0.8868 0.0
N317 N 0.92631 0.05297 0.83225 0.0
C318 C 0.94754 0.04972 0.82553 0.0
C319 C 0.94109 0.04675 0.77687 0.0
C320 C 0.93056 0.04861 0.78063 0.0
C321 C 0.93256 0.05628 0.87869 0.0
C322 C 0.94313 0.05456 0.87688 0.0
H323 H 0.92588 0.04678 0.74092 0.0
H324 H 0.92955 0.06078 0.91603 0.0
H325 H 0.9048 0.05551 0.6971 0.0
H326 H 0.92512 0.08002 0.66715 0.0
H327 H 0.89782 0.03534 0.00796 0.0
H328 H 0.94415 0.04314 0.73573 0.0
H329 H 0.94785 0.05743 0.91427 0.0
C330 C 0.68023 0.1669 0.46067 0.0
C331 C 0.67773 0.1667 0.39876 0.0
N332 N 0.68449 0.16057 0.36952 0.0
N333 N 0.68854 0.16097 0.46999 0.0
C334 C 0.69085 0.15709 0.41395 0.0
H335 H 0.67646 0.17132 0.49632 0.0
Co336 Co 0.69551 0.15916 0.54366 0.0
C337 C 0.71714 0.1589 0.49989 0.0
O338 O 0.71961 0.16565 0.54248 0.0
N339 N 0.70216 0.15693 0.61955 0.0
C340 C 0.71144 0.15011 0.69568 0.0
C341 C 0.71062 0.15134 0.63277 0.0
C342 C 0.69771 0.15845 0.67518 0.0
N343 N 0.70326 0.15456 0.72226 0.0
O344 O 0.69116 0.14514 0.54558 0.0
H345 H 0.71549 0.14762 0.59931 0.0
H346 H 0.6902 0.16181 0.68079 0.0
O347 O 0.70797 0.15543 0.49732 0.0
C348 C 0.68246 0.1443 0.57193 0.0
O349 O 0.67793 0.1527 0.59132 0.0
N350 N 0.69905 0.17336 0.54259 0.0
C351 C 0.70145 0.19472 0.53825 0.0
C352 C 0.70464 0.18856 0.48878 0.0
C353 C 0.70319 0.17794 0.49133 0.0
C354 C 0.69564 0.17932 0.59014 0.0
C355 C 0.69692 0.18994 0.58947 0.0
H356 H 0.70512 0.17345 0.451 0.0
H357 H 0.69143 0.176 0.62778 0.0
H358 H 0.69715 0.1519 0.40562 0.0
H359 H 0.67168 0.17105 0.37671 0.0
H360 H 0.71722 0.14566 0.71956 0.0
H361 H 0.70783 0.19193 0.44727 0.0
H362 H 0.69419 0.19438 0.62841 0.0
C363 C 0.58386 0.93291 0.23012 0.0
C364 C 0.58366 0.93028 0.16843 0.0
N365 N 0.58937 0.93713 0.13689 0.0
N366 N 0.58959 0.94142 0.2372 0.0
C367 C 0.59295 0.94371 0.17985 0.0
H368 H 0.57982 0.92909 0.26723 0.0
Co369 Co 0.59133 0.94864 0.31034 0.0
C370 C 0.5928 0.97008 0.26441 0.0
O371 O 0.58615 0.97304 0.30646 0.0
N372 N 0.59344 0.95556 0.38577 0.0
C373 C 0.60062 0.96486 0.46066 0.0
C374 C 0.59979 0.96351 0.39786 0.0
C375 C 0.59097 0.95192 0.4424 0.0
N376 N 0.59506 0.95752 0.48869 0.0
O377 O 0.60515 0.94379 0.3153 0.0
H378 H 0.60422 0.96765 0.36388 0.0
H379 H 0.58709 0.94471 0.44982 0.0
O380 O 0.59576 0.96073 0.263 0.0
C381 C 0.60559 0.9354 0.34538 0.0
O382 O 0.59699 0.93148 0.36645 0.0
N383 N 0.5773 0.95267 0.30608 0.0
C384 C 0.55607 0.95565 0.2967 0.0
C385 C 0.56265 0.95879 0.2491 0.0
C386 C 0.57319 0.95705 0.25413 0.0
C387 C 0.57093 0.94923 0.35159 0.0
C388 C 0.56036 0.95081 0.34846 0.0
H389 H 0.57797 0.95893 0.21501 0.0
H390 H 0.57388 0.94469 0.38899 0.0
H391 H 0.59754 0.95038 0.16916 0.0
H392 H 0.57948 0.92393 0.14836 0.0
H393 H 0.60531 0.97054 0.48371 0.0
H394 H 0.55969 0.96239 0.20767 0.0
H395 H 0.55554 0.9478 0.38501 0.0
C396 C 0.82385 0.16793 0.03237 0.0
C397 C 0.82646 0.16818 0.09409 0.0
N398 N 0.81962 0.16245 0.12559 0.0
N399 N 0.81537 0.16216 0.02532 0.0
C400 C 0.81305 0.15882 0.08266 0.0
H401 H 0.82773 0.17189 0.99515 0.0
Co402 Co 0.8084 0.16002 0.95195 0.0
C403 C 0.7867 0.15936 0.99445 0.0
O404 O 0.7841 0.16582 0.95045 0.0
N405 N 0.8017 0.15752 0.87628 0.0
C406 C 0.7925 0.15009 0.80178 0.0
C407 C 0.7937 0.1512 0.86457 0.0
C408 C 0.80553 0.15964 0.81964 0.0
N409 N 0.79997 0.15543 0.77359 0.0
O410 O 0.81286 0.14605 0.95175 0.0
H411 H 0.7894 0.14703 0.89899 0.0
H412 H 0.81281 0.16336 0.81211 0.0
O413 O 0.79599 0.15628 -0.00138 0.0
C414 C 0.82137 0.14512 0.92346 0.0
O415 O 0.82565 0.15342 0.9005 0.0
N416 N 0.80478 0.17418 0.95144 0.0
C417 C 0.80248 0.19556 0.9528 0.0
C418 C 0.79868 0.18953 0.00139 0.0
C419 C 0.80012 0.1789 0.0005 0.0
C420 C 0.80889 0.18001 0.90537 0.0
C421 C 0.80764 0.19063 0.90434 0.0
H422 H 0.7978 0.17455 0.0406 0.0
H423 H 0.81369 0.17659 0.87078 0.0
H424 H 0.80644 0.15415 0.09322 0.0
H425 H 0.83282 0.17234 0.11417 0.0
H426 H 0.78681 0.1454 0.77891 0.0
H427 H 0.79504 0.19303 0.04111 0.0
H428 H 0.8109 0.19495 0.86637 0.0
C429 C 0.58548 0.07124 0.76544 0.0
C430 C 0.5851 0.07374 0.82731 0.0
N431 N 0.59062 0.06675 0.85894 0.0
N432 N 0.59113 0.06268 0.75838 0.0
C433 C 0.59426 0.06021 0.81594 0.0
H434 H 0.58163 0.07521 0.72814 0.0
Co435 Co 0.59307 0.05559 0.68508 0.0
C436 C 0.59439 0.03394 0.72851 0.0
O437 O 0.58811 0.03101 0.68434 0.0
N438 N 0.59534 0.04873 0.60967 0.0
C439 C 0.60295 0.03955 0.53588 0.0
C440 C 0.60219 0.04117 0.59845 0.0
C441 C 0.59247 0.05188 0.55265 0.0
N442 N 0.59684 0.04633 0.50703 0.0
O443 O 0.607 0.06017 0.68263 0.0
H444 H 0.60691 0.03749 0.63298 0.0
H445 H 0.58807 0.05874 0.54415 0.0
O446 O 0.59711 0.04334 0.73214 0.0
C447 C 0.60785 0.06846 0.65195 0.0
O448 O 0.5995 0.07252 0.62829 0.0
N449 N 0.57897 0.05188 0.68681 0.0
C450 C 0.55763 0.04933 0.69083 0.0
C451 C 0.56392 0.04519 0.73715 0.0
C452 C 0.57451 0.04678 0.73517 0.0
C453 C 0.5729 0.05643 0.64345 0.0
C454 C 0.56228 0.05509 0.6438 0.0
H455 H 0.57903 0.04422 0.77401 0.0
H456 H 0.57616 0.06166 0.6105 0.0
H457 H 0.59875 0.05348 0.82668 0.0
H458 H 0.58095 0.0801 0.84743 0.0
H459 H 0.60797 0.03408 0.51349 0.0
H460 H 0.5607 0.0409 0.77537 0.0
H461 H 0.55772 0.05896 0.60903 0.0
C462 C 0.67497 0.83424 0.55306 0.0
C463 C 0.67239 0.83443 0.61481 0.0
N464 N 0.67904 0.84066 0.64426 0.0
N465 N 0.68322 0.84026 0.54403 0.0
C466 C 0.68541 0.84419 0.60008 0.0
H467 H 0.67128 0.82977 0.51728 0.0
Co468 Co 0.6901 0.84212 0.47028 0.0
C469 C 0.71185 0.843 0.51068 0.0
O470 O 0.71425 0.83639 0.46712 0.0
N471 N 0.6966 0.84437 0.39404 0.0
C472 C 0.70538 0.85169 0.31742 0.0
C473 C 0.70464 0.85053 0.38038 0.0
C474 C 0.69227 0.84243 0.33854 0.0
N475 N 0.69753 0.84662 0.2912 0.0
O476 O 0.6856 0.85606 0.46801 0.0
H477 H 0.70919 0.8547 0.4136 0.0
H478 H 0.68496 0.83866 0.33316 0.0
O479 O 0.70258 0.84611 0.51578 0.0
C480 C 0.67696 0.85703 0.44117 0.0
O481 O 0.67233 0.84871 0.4213 0.0
N482 N 0.6939 0.82799 0.47203 0.0
C483 C 0.69702 0.80673 0.47794 0.0
C484 C 0.70017 0.81313 0.52645 0.0
C485 C 0.69838 0.82368 0.5231 0.0
C486 C 0.69041 0.82179 0.42578 0.0
C487 C 0.69205 0.81121 0.42721 0.0
H488 H 0.70037 0.82833 0.56262 0.0
H489 H 0.68586 0.82487 0.38886 0.0
H490 H 0.69163 0.84948 0.60852 0.0
H491 H 0.66636 0.83003 0.63659 0.0
H492 H 0.71079 0.85654 0.29324 0.0
H493 H 0.70388 0.81001 0.56712 0.0
H494 H 0.68905 0.80654 0.38999 0.0
C495 C 0.91626 0.92737 0.3326 0.0
C496 C 0.91624 0.92469 0.39415 0.0
N497 N 0.91004 0.93124 0.42459 0.0
N498 N 0.91017 0.9356 0.32453 0.0
C499 C 0.9064 0.93771 0.38114 0.0
H500 H 0.92059 0.9237 0.29614 0.0
Co501 Co 0.90807 0.94242 0.2505 0.0
C502 C 0.90782 0.96417 0.29052 0.0
O503 O 0.91427 0.96638 0.24572 0.0
N504 N 0.90557 0.94886 0.17448 0.0
C505 C 0.89803 0.9577 0.09895 0.0
C506 C 0.89947 0.95697 0.1617 0.0
C507 C 0.9072 0.94447 0.11878 0.0
N508 N 0.9029 0.94979 0.07202 0.0
O509 O 0.89405 0.93809 0.25012 0.0
H510 H 0.89559 0.96166 0.1955 0.0
H511 H 0.91065 0.93699 0.113 0.0
O512 O 0.90445 0.955 0.29619 0.0
C513 C 0.893 0.92878 0.23347 0.0
O514 O 0.90126 0.92336 0.22169 0.0
N515 N 0.92225 0.94603 0.24996 0.0
C516 C 0.94357 0.94881 0.25306 0.0
C517 C 0.9374 0.95205 0.3024 0.0
C518 C 0.92683 0.9504 0.30052 0.0
C519 C 0.92821 0.94252 0.20265 0.0
C520 C 0.93882 0.94397 0.20274 0.0
H521 H 0.92237 0.95243 0.34077 0.0
H522 H 0.9249 0.93809 0.16587 0.0
H523 H 0.90136 0.9441 0.3907 0.0
H524 H 0.92052 0.91847 0.41483 0.0
H525 H 0.89339 0.96336 0.07541 0.0
H526 H 0.94071 0.95569 0.3427 0.0
H527 H 0.94329 0.94091 0.16484 0.0
C528 C 0.67573 0.67024 0.57553 0.0
C529 C 0.67312 0.67008 0.63722 0.0
N530 N 0.67926 0.66329 0.66614 0.0
N531 N 0.6835 0.66363 0.56595 0.0
C532 C 0.68539 0.65942 0.62168 0.0
H533 H 0.67235 0.67502 0.54009 0.0
Co534 Co 0.69008 0.66121 0.49157 0.0
C535 C 0.71191 0.65996 0.53091 0.0
O536 O 0.71444 0.66637 0.48653 0.0
N537 N 0.69624 0.65838 0.41509 0.0
C538 C 0.70473 0.65068 0.33868 0.0
C539 C 0.70427 0.65221 0.40145 0.0
C540 C 0.69161 0.65991 0.35998 0.0
N541 N 0.69671 0.65551 0.31266 0.0
O542 O 0.68523 0.64738 0.49207 0.0
H543 H 0.70904 0.6483 0.4347 0.0
H544 H 0.68426 0.66362 0.35511 0.0
O545 O 0.70257 0.65711 0.53669 0.0
C546 C 0.67595 0.64664 0.47429 0.0
O547 O 0.67088 0.65509 0.46171 0.0
N548 N 0.69423 0.67522 0.48994 0.0
C549 C 0.69761 0.69646 0.49057 0.0
C550 C 0.70077 0.69035 0.54041 0.0
C551 C 0.69888 0.67979 0.53962 0.0
C552 C 0.69079 0.68115 0.4423 0.0
C553 C 0.69255 0.6917 0.4411 0.0
H554 H 0.70087 0.67536 0.58006 0.0
H555 H 0.68615 0.6779 0.40631 0.0
H556 H 0.69116 0.65362 0.62954 0.0
H557 H 0.66738 0.67483 0.65931 0.0
H558 H 0.71012 0.64579 0.31468 0.0
H559 H 0.70454 0.6937 0.58017 0.0
H560 H 0.68955 0.69616 0.40292 0.0
C561 C 0.58435 0.42438 0.83287 0.0
C562 C 0.58498 0.42215 0.89502 0.0
N563 N 0.5918 0.42862 0.92095 0.0
N564 N 0.59072 0.43222 0.81996 0.0
C565 C 0.59526 0.43452 0.87417 0.0
H566 H 0.57929 0.4208 0.79964 0.0
Co567 Co 0.59203 0.43899 0.74507 0.0
C568 C 0.60319 0.45757 0.78688 0.0
O569 O 0.61064 0.45607 0.74702 0.0
N570 N 0.5933 0.44565 0.67005 0.0
C571 C 0.59236 0.45676 0.59267 0.0
C572 C 0.59105 0.45544 0.65528 0.0
C573 C 0.59584 0.44115 0.61616 0.0
N574 N 0.59533 0.44774 0.56814 0.0
O575 O 0.60616 0.43492 0.74045 0.0
H576 H 0.58827 0.46114 0.68748 0.0
H577 H 0.5978 0.43312 0.61226 0.0
O578 O 0.5956 0.45143 0.78866 0.0
C579 C 0.6076 0.42546 0.72859 0.0
O580 O 0.59957 0.41945 0.72258 0.0
N581 N 0.57808 0.44239 0.74765 0.0
C582 C 0.55694 0.44571 0.74602 0.0
C583 C 0.56304 0.44981 0.79342 0.0
C584 C 0.57362 0.44804 0.79351 0.0
C585 C 0.57225 0.4382 0.70189 0.0
C586 C 0.56169 0.43984 0.69984 0.0
H587 H 0.57816 0.45103 0.83114 0.0
H588 H 0.57584 0.43346 0.667 0.0
H589 H 0.60085 0.44057 0.8795 0.0
H590 H 0.58039 0.41657 0.91961 0.0
H591 H 0.59075 0.46369 0.56688 0.0
H592 H 0.55969 0.45436 0.8301 0.0
H593 H 0.55725 0.43632 0.6632 0.0
C594 C 0.82455 0.33357 0.02832 0.0
C595 C 0.82712 0.33337 0.09009 0.0
N596 N 0.8203 0.33917 0.1212 0.0
N597 N 0.81611 0.33937 0.02084 0.0
C598 C 0.81378 0.34279 0.07799 0.0
H599 H 0.82841 0.32952 0.99137 0.0
Co600 Co 0.80912 0.34139 0.94738 0.0
C601 C 0.78744 0.34184 0.98898 0.0
O602 O 0.78501 0.33546 0.94424 0.0
N603 N 0.80241 0.34381 0.87168 0.0
C604 C 0.7933 0.3514 0.7974 0.0
C605 C 0.79451 0.35025 0.86013 0.0
C606 C 0.80619 0.34164 0.81496 0.0
N607 N 0.80068 0.34596 0.76906 0.0
O608 O 0.81352 0.35539 0.94645 0.0
H609 H 0.7903 0.35449 0.89467 0.0
H610 H 0.81342 0.33784 0.80728 0.0
O611 O 0.79667 0.34507 0.99394 0.0
C612 C 0.82208 0.35622 0.91852 0.0
O613 O 0.82639 0.34784 0.89701 0.0
N614 N 0.80555 0.3272 0.94759 0.0
C615 C 0.80309 0.30584 0.9504 0.0
C616 C 0.79946 0.31197 -0.00105 0.0
C617 C 0.80097 0.32258 0.99732 0.0
C618 C 0.80952 0.32127 0.90152 0.0
C619 C 0.80819 0.31065 0.90127 0.0
H620 H 0.79876 0.32701 0.03734 0.0
H621 H 0.81423 0.32461 0.86621 0.0
H622 H 0.80717 0.34749 0.08823 0.0
H623 H 0.83342 0.32917 0.11052 0.0
H624 H 0.78768 0.35621 0.77467 0.0
H625 H 0.79587 0.30856 0.03916 0.0
H626 H 0.81133 0.30624 0.86332 0.0
C627 C 0.91899 0.57219 0.27538 0.0
C628 C 0.91879 0.57466 0.33733 0.0
N629 N 0.91271 0.56785 0.36651 0.0
N630 N 0.91309 0.56385 0.26601 0.0
C631 C 0.90923 0.56152 0.32203 0.0
H632 H 0.92346 0.57594 0.23984 0.0
Co633 Co 0.91159 0.55673 0.19267 0.0
C634 C 0.91066 0.5352 0.23734 0.0
O635 O 0.91749 0.53257 0.19559 0.0
N636 N 0.9097 0.54993 0.11701 0.0
C637 C 0.90288 0.54071 0.04059 0.0
C638 C 0.90379 0.5417 0.10359 0.0
C639 C 0.91177 0.5541 0.06122 0.0
N640 N 0.90787 0.54858 0.01405 0.0
O641 O 0.89768 0.56134 0.18726 0.0
H642 H 0.8996 0.53716 0.13681 0.0
H643 H 0.91546 0.56144 0.05536 0.0
O644 O 0.90736 0.54444 0.23916 0.0
C645 C 0.89714 0.56983 0.15829 0.0
O646 O 0.90571 0.57405 0.13904 0.0
N647 N 0.92571 0.55293 0.19735 0.0
C648 C 0.94695 0.54998 0.20728 0.0
C649 C 0.94036 0.54704 0.25531 0.0
C650 C 0.92982 0.54875 0.24995 0.0
C651 C 0.93209 0.55616 0.15131 0.0
C652 C 0.94266 0.5546 0.15478 0.0
H653 H 0.92501 0.54695 0.28912 0.0
H654 H 0.92914 0.56046 0.11289 0.0
H655 H 0.90412 0.55515 0.33049 0.0
H656 H 0.92318 0.58066 0.35952 0.0
H657 H 0.89824 0.53511 0.01646 0.0
H658 H 0.9433 0.54358 0.29721 0.0
H659 H 0.94748 0.55743 0.11773 0.0
C660 C 0.68048 0.33201 0.45328 0.0
C661 C 0.67814 0.33202 0.39117 0.0
N662 N 0.68465 0.33846 0.36235 0.0
N663 N 0.68844 0.33838 0.46311 0.0
C664 C 0.69069 0.34232 0.4072 0.0
H665 H 0.67688 0.32739 0.48869 0.0
Co666 Co 0.69524 0.34055 0.53696 0.0
C667 C 0.71694 0.34088 0.49493 0.0
O668 O 0.7194 0.33438 0.53897 0.0
N669 N 0.70172 0.34313 0.61249 0.0
C670 C 0.71075 0.35042 0.68811 0.0
C671 C 0.70996 0.34906 0.62529 0.0
C672 C 0.69733 0.34153 0.66812 0.0
N673 N 0.70277 0.34564 0.71489 0.0
O674 O 0.69082 0.35456 0.53682 0.0
H675 H 0.71474 0.35284 0.59152 0.0
H676 H 0.68981 0.33818 0.67397 0.0
O677 O 0.70773 0.3442 0.49091 0.0
C678 C 0.68148 0.35554 0.5528 0.0
O679 O 0.67614 0.34724 0.565 0.0
N680 N 0.6989 0.32637 0.53801 0.0
C681 C 0.70133 0.305 0.53556 0.0
C682 C 0.70469 0.31107 0.48608 0.0
C683 C 0.70323 0.32169 0.48768 0.0
C684 C 0.69534 0.3205 0.58563 0.0
C685 C 0.69664 0.30988 0.58591 0.0
H686 H 0.70525 0.32608 0.44711 0.0
H687 H 0.69098 0.32388 0.62242 0.0
H688 H 0.69677 0.34781 0.3993 0.0
H689 H 0.67243 0.32729 0.3687 0.0
H690 H 0.71653 0.35487 0.7119 0.0
H691 H 0.70801 0.30762 0.44516 0.0
H692 H 0.69377 0.3055 0.6248 0.0
C693 C 0.91915 0.43065 0.71489 0.0
C694 C 0.91905 0.4282 0.65288 0.0
N695 N 0.91281 0.43486 0.6237 0.0
N696 N 0.91303 0.43882 0.72429 0.0
C697 C 0.90915 0.44109 0.6682 0.0
H698 H 0.92365 0.42695 0.75052 0.0
Co699 Co 0.91105 0.44576 0.79791 0.0
C700 C 0.9103 0.46735 0.75377 0.0
O701 O 0.91697 0.47 0.79647 0.0
N702 N 0.90865 0.45237 0.87362 0.0
C703 C 0.90161 0.46153 0.94948 0.0
C704 C 0.90286 0.4607 0.8866 0.0
C705 C 0.91028 0.44799 0.92936 0.0
N706 N 0.90626 0.45348 0.97627 0.0
O707 O 0.89714 0.44106 0.7998 0.0
H708 H 0.89902 0.46546 0.85301 0.0
H709 H 0.91382 0.44057 0.93519 0.0
O710 O 0.90704 0.4581 0.75139 0.0
C711 C 0.89657 0.43232 0.82585 0.0
O712 O 0.90511 0.42801 0.84491 0.0
N713 N 0.92516 0.44964 0.79691 0.0
C714 C 0.94644 0.45271 0.79299 0.0
C715 C 0.94022 0.45559 0.74308 0.0
C716 C 0.92965 0.45384 0.74552 0.0
C717 C 0.93121 0.44645 0.84469 0.0
C718 C 0.94178 0.44807 0.84423 0.0
H719 H 0.92512 0.45564 0.70512 0.0
H720 H 0.928 0.44213 0.88226 0.0
H721 H 0.90383 0.44729 0.65984 0.0
H722 H 0.92356 0.42228 0.63072 0.0
H723 H 0.89703 0.46722 0.97322 0.0
H724 H 0.94348 0.45905 0.70204 0.0
H725 H 0.94633 0.44528 0.88264 0.0
C726 C 0.82716 0.66799 0.92345 0.0
C727 C 0.82961 0.66786 0.86152 0.0
N728 N 0.82275 0.66187 0.83208 0.0
N729 N 0.81876 0.66218 0.93276 0.0
C730 C 0.81633 0.65845 0.87641 0.0
H731 H 0.83099 0.67237 0.9591 0.0
Co732 Co 0.81169 0.66119 0.00697 0.0
C733 C 0.79404 0.64895 0.96128 0.0
O734 O 0.79677 0.64094 0.9942 0.0
N735 N 0.80471 0.66026 0.08171 0.0
C736 C 0.79311 0.66182 0.15627 0.0
C737 C 0.79481 0.6625 0.09357 0.0
C738 C 0.80888 0.65826 0.13751 0.0
N739 N 0.80199 0.65915 0.18372 0.0
O740 O 0.81614 0.64723 0.01542 0.0
H741 H 0.78926 0.66485 0.05919 0.0
H742 H 0.81694 0.65671 0.14453 0.0
O743 O 0.79935 0.65715 0.96328 0.0
C744 C 0.82514 0.64651 0.03781 0.0
O745 O 0.83016 0.65501 0.05021 0.0
N746 N 0.80808 0.67504 0.00051 0.0
C747 C 0.80534 0.69623 0.99316 0.0
C748 C 0.80126 0.68972 0.94768 0.0
C749 C 0.80278 0.67913 0.95193 0.0
C750 C 0.81207 0.68122 0.04516 0.0
C751 C 0.81073 0.69182 0.04269 0.0
H752 H 0.80007 0.67429 0.91492 0.0
H753 H 0.81651 0.67791 0.08239 0.0
H754 H 0.80965 0.65378 0.86725 0.0
H755 H 0.83578 0.67206 0.83966 0.0
H756 H 0.78596 0.66337 0.17989 0.0
H757 H 0.79725 0.6928 0.90793 0.0
H758 H 0.81396 0.69653 0.07904 0.0
C759 C 0.57984 0.57491 0.18102 0.0
C760 C 0.57956 0.5775 0.11934 0.0
N761 N 0.58672 0.57191 0.08972 0.0
N762 N 0.58699 0.56759 0.18978 0.0
C763 C 0.59118 0.56605 0.13347 0.0
H764 H 0.57491 0.5779 0.21694 0.0
Co765 Co 0.58958 0.56087 0.26393 0.0
C766 C 0.59029 0.53919 0.22096 0.0
O767 O 0.5837 0.53662 0.26426 0.0
N768 N 0.59252 0.55456 0.3402 0.0
C769 C 0.59894 0.54513 0.41706 0.0
C770 C 0.59764 0.54583 0.35413 0.0
C771 C 0.5915 0.55934 0.39534 0.0
N772 N 0.5951 0.55368 0.44271 0.0
O773 O 0.60344 0.56563 0.26248 0.0
H774 H 0.6009 0.54055 0.32124 0.0
H775 H 0.58846 0.56701 0.40054 0.0
O776 O 0.59348 0.54845 0.21742 0.0
C777 C 0.60425 0.57495 0.27926 0.0
O778 O 0.59584 0.58012 0.29144 0.0
N779 N 0.57554 0.5568 0.26684 0.0
C780 C 0.55432 0.55339 0.2691 0.0
C781 C 0.56018 0.5506 0.21745 0.0
C782 C 0.57072 0.55252 0.21682 0.0
C783 C 0.56986 0.55986 0.31649 0.0
C784 C 0.55931 0.55809 0.31903 0.0
H785 H 0.57497 0.55078 0.17524 0.0
H786 H 0.57332 0.56415 0.35339 0.0
H787 H 0.59709 0.56044 0.12416 0.0
H788 H 0.57442 0.58293 0.09773 0.0
H789 H 0.60291 0.5391 0.44176 0.0
H790 H 0.55666 0.54707 0.17741 0.0
H791 H 0.55505 0.56078 0.35879 0.0
C792 C 0.32302 0.34847 0.4376 0.0
C793 C 0.3236 0.35036 0.37505 0.0
N794 N 0.31411 0.34947 0.351 0.0
N795 N 0.31323 0.34636 0.45277 0.0
C796 C 0.30798 0.34702 0.39898 0.0
H797 H 0.32936 0.34843 0.46981 0.0
Co798 Co 0.30865 0.34255 0.53084 0.0
C799 C 0.28588 0.34764 0.52678 0.0
O800 O 0.28343 0.34336 0.57972 0.0
N801 N 0.30433 0.3386 0.61091 0.0
C802 C 0.30292 0.3293 0.69669 0.0
C803 C 0.30542 0.32912 0.63524 0.0
C804 C 0.3013 0.34444 0.6595 0.0
N805 N 0.30035 0.33894 0.71238 0.0
O806 O 0.31215 0.35593 0.561 0.0
H807 H 0.30842 0.32252 0.61124 0.0
H808 H 0.30012 0.35263 0.65641 0.0
O809 O 0.29512 0.34742 0.50769 0.0
C810 C 0.32055 0.35625 0.59108 0.0
O811 O 0.3255 0.34762 0.60073 0.0
N812 N 0.30602 0.32926 0.50065 0.0
C813 C 0.30512 0.30825 0.47655 0.0
C814 C 0.29611 0.31402 0.48319 0.0
C815 C 0.29671 0.32454 0.49535 0.0
C816 C 0.31483 0.32389 0.49055 0.0
C817 C 0.31456 0.31339 0.47841 0.0
H818 H 0.28971 0.32862 0.50385 0.0
H819 H 0.32215 0.32769 0.49541 0.0
H820 H 0.29989 0.34535 0.39449 0.0
H821 H 0.33046 0.35221 0.34921 0.0
H822 H 0.30363 0.32288 0.72811 0.0
H823 H 0.28866 0.31035 0.48255 0.0
H824 H 0.32171 0.30929 0.47259 0.0
C825 C 0.41596 0.57232 0.23546 0.0
C826 C 0.41609 0.57495 0.17377 0.0
N827 N 0.41045 0.56802 0.14239 0.0
N828 N 0.41036 0.56373 0.24268 0.0
C829 C 0.40699 0.56139 0.18542 0.0
H830 H 0.41996 0.57621 0.27249 0.0
Co831 Co 0.40873 0.55652 0.3159 0.0
C832 C 0.40802 0.53499 0.2723 0.0
O833 O 0.41461 0.5325 0.3158 0.0
N834 N 0.4067 0.54959 0.3915 0.0
C835 C 0.39939 0.54024 0.46574 0.0
C836 C 0.40027 0.54167 0.40306 0.0
C837 C 0.40913 0.55315 0.44839 0.0
N838 N 0.40496 0.54751 0.49428 0.0
O839 O 0.39478 0.56102 0.32016 0.0
H840 H 0.39584 0.53762 0.36873 0.0
H841 H 0.41301 0.56034 0.45631 0.0
O842 O 0.40472 0.54421 0.26877 0.0
C843 C 0.39419 0.56937 0.35047 0.0
O844 O 0.40273 0.5734 0.37175 0.0
N845 N 0.42287 0.55287 0.31227 0.0
C846 C 0.44418 0.55038 0.30319 0.0
C847 C 0.43769 0.5471 0.25551 0.0
C848 C 0.42711 0.54859 0.26039 0.0
C849 C 0.42915 0.55647 0.35784 0.0
C850 C 0.43976 0.55512 0.35489 0.0
H851 H 0.42239 0.54658 0.22122 0.0
H852 H 0.42609 0.56095 0.39512 0.0
H853 H 0.40248 0.55466 0.17488 0.0
H854 H 0.42016 0.58136 0.15356 0.0
H855 H 0.39463 0.53457 0.48835 0.0
H856 H 0.44075 0.54356 0.21413 0.0
H857 H 0.4445 0.55823 0.39149 0.0
C858 C 0.16923 0.66587 0.86865 0.0
C859 C 0.16688 0.66506 0.80685 0.0
N860 N 0.1745 0.65989 0.77869 0.0
N861 N 0.17828 0.66124 0.87947 0.0
C862 C 0.18127 0.65759 0.82388 0.0
H863 H 0.16484 0.66998 0.90313 0.0
Co864 Co 0.18519 0.66189 0.95447 0.0
C865 C 0.20458 0.65089 0.93055 0.0
O866 O 0.20398 0.64601 0.98356 0.0
N867 N 0.19191 0.66275 0.03026 0.0
C868 C 0.20279 0.66662 0.10575 0.0
C869 C 0.20108 0.66705 0.043 0.0
C870 C 0.18817 0.65983 0.08567 0.0
N871 N 0.19465 0.66206 0.13242 0.0
O872 O 0.18145 0.64793 0.972 0.0
H873 H 0.20614 0.67041 0.00889 0.0
H874 H 0.18067 0.65646 0.0919 0.0
O875 O 0.1977 0.65732 0.91487 0.0
C876 C 0.17216 0.64647 0.98785 0.0
O877 O 0.16595 0.65439 0.99043 0.0
N878 N 0.18831 0.67564 0.93832 0.0
C879 C 0.1909 0.69663 0.91816 0.0
C880 C 0.19566 0.68941 0.87947 0.0
C881 C 0.19424 0.67893 0.89019 0.0
C882 C 0.18355 0.68252 0.97597 0.0
C883 C 0.18479 0.69304 0.96703 0.0
H884 H 0.19776 0.6735 0.859 0.0
H885 H 0.17866 0.67979 0.01286 0.0
H886 H 0.18854 0.65386 0.8158 0.0
H887 H 0.16023 0.66829 0.78418 0.0
H888 H 0.20949 0.66946 0.12983 0.0
H889 H 0.20044 0.69183 0.84122 0.0
H890 H 0.18079 0.69831 0.99725 0.0
C891 C 0.08464 0.4289 0.73383 0.0
C892 C 0.08491 0.42632 0.67206 0.0
N893 N 0.09104 0.43308 0.64273 0.0
N894 N 0.09052 0.43725 0.743 0.0
C895 C 0.09445 0.43951 0.68701 0.0
H896 H 0.08018 0.42516 0.76946 0.0
Co897 Co 0.09211 0.44428 0.81661 0.0
C898 C 0.09284 0.46588 0.77312 0.0
O899 O 0.08598 0.46836 0.81504 0.0
N900 N 0.0941 0.45095 0.8926 0.0
C901 C 0.10097 0.46004 0.96937 0.0
C902 C 0.09991 0.45923 0.90635 0.0
C903 C 0.09224 0.44658 0.94811 0.0
N904 N 0.09617 0.45202 0.99554 0.0
O905 O 0.10606 0.43974 0.82088 0.0
H906 H 0.10393 0.46394 0.87327 0.0
H907 H 0.08867 0.43917 0.95344 0.0
O908 O 0.09621 0.45667 0.77056 0.0
C909 C 0.10676 0.43114 0.84844 0.0
O910 O 0.09827 0.42671 0.86736 0.0
N911 N 0.07797 0.44803 0.81304 0.0
C912 C 0.05671 0.45106 0.80497 0.0
C913 C 0.0632 0.45393 0.75625 0.0
C914 C 0.07374 0.45218 0.76073 0.0
C915 C 0.07169 0.44485 0.85973 0.0
C916 C 0.06111 0.44645 0.85717 0.0
H917 H 0.07847 0.45398 0.7212 0.0
H918 H 0.07471 0.44059 0.89808 0.0
H919 H 0.0996 0.44585 0.67857 0.0
H920 H 0.08059 0.42025 0.65014 0.0
H921 H 0.10557 0.46566 0.99364 0.0
H922 H 0.06016 0.45739 0.71458 0.0
H923 H 0.05637 0.44368 0.89477 0.0
C924 C 0.32909 0.66892 0.57105 0.0
C925 C 0.33174 0.66838 0.63261 0.0
N926 N 0.32428 0.66327 0.66281 0.0
N927 N 0.32 0.66421 0.56279 0.0
C928 C 0.31735 0.66071 0.61919 0.0
H929 H 0.33332 0.6728 0.53493 0.0
Co930 Co 0.3128 0.66362 0.48921 0.0
C931 C 0.29132 0.66482 0.53302 0.0
O932 O 0.28964 0.67234 0.49386 0.0
N933 N 0.30594 0.66263 0.41308 0.0
C934 C 0.29621 0.65695 0.33564 0.0
C935 C 0.29709 0.65777 0.39872 0.0
C936 C 0.3105 0.66417 0.35778 0.0
N937 N 0.30471 0.66093 0.30993 0.0
O938 O 0.31605 0.64936 0.48233 0.0
H939 H 0.29197 0.65416 0.43131 0.0
H940 H 0.31824 0.66699 0.35293 0.0
O941 O 0.30007 0.66038 0.53456 0.0
C942 C 0.32456 0.64801 0.45466 0.0
O943 O 0.32975 0.65615 0.43716 0.0
N944 N 0.31034 0.67803 0.49544 0.0
C945 C 0.30862 0.6994 0.50611 0.0
C946 C 0.30562 0.69295 0.55472 0.0
C947 C 0.30674 0.68234 0.54897 0.0
C948 C 0.31373 0.68425 0.44898 0.0
C949 C 0.31279 0.6949 0.45291 0.0
H950 H 0.30472 0.6776 0.58805 0.0
H951 H 0.31756 0.68108 0.40944 0.0
H952 H 0.31035 0.65653 0.62844 0.0
H953 H 0.33839 0.67188 0.65385 0.0
H954 H 0.29018 0.65298 0.31099 0.0
H955 H 0.30245 0.69604 0.59706 0.0
H956 H 0.31566 0.69957 0.41527 0.0
C957 C 0.08322 0.57218 0.31491 0.0
C958 C 0.08325 0.57459 0.37692 0.0
N959 N 0.09007 0.56842 0.40544 0.0
N960 N 0.08994 0.56452 0.30482 0.0
C961 C 0.0941 0.56252 0.36048 0.0
H962 H 0.07837 0.57554 0.27973 0.0
Co963 Co 0.09235 0.55781 0.23093 0.0
C964 C 0.09352 0.53612 0.27281 0.0
O965 O 0.0871 0.53345 0.22879 0.0
N966 N 0.09516 0.55144 0.15533 0.0
C967 C 0.10282 0.54271 0.07982 0.0
C968 C 0.10142 0.54344 0.14261 0.0
C969 C 0.09341 0.55577 0.09965 0.0
N970 N 0.09775 0.55049 0.05294 0.0
O971 O 0.10617 0.56276 0.23076 0.0
H972 H 0.10538 0.53882 0.17642 0.0
H973 H 0.08977 0.56315 0.09375 0.0
O974 O 0.09649 0.54544 0.27702 0.0
C975 C 0.10681 0.57215 0.21503 0.0
O976 O 0.09831 0.57724 0.20404 0.0
N977 N 0.07833 0.5536 0.22993 0.0
C978 C 0.05713 0.55 0.2312 0.0
C979 C 0.06328 0.54708 0.28134 0.0
C980 C 0.07381 0.54909 0.28025 0.0
C981 C 0.07234 0.55684 0.18202 0.0
C982 C 0.06181 0.55496 0.18114 0.0
H983 H 0.07826 0.54727 0.32091 0.0
H984 H 0.07553 0.56141 0.1455 0.0
H985 H 0.0999 0.55673 0.36809 0.0
H986 H 0.07832 0.5801 0.39956 0.0
H987 H 0.10751 0.53711 0.05612 0.0
H988 H 0.05999 0.54339 0.32157 0.0
H989 H 0.0573 0.55779 0.14269 0.0
C990 C 0.17957 0.33353 0.06018 0.0
C991 C 0.17706 0.33368 0.1221 0.0
N992 N 0.18375 0.33988 0.15141 0.0
N993 N 0.18781 0.33957 0.05093 0.0
C994 C 0.19006 0.34345 0.10703 0.0
H995 H 0.17585 0.32906 0.02449 0.0
Co996 Co 0.19476 0.34149 0.97728 0.0
C997 C 0.21634 0.34207 0.02257 0.0
O998 O 0.21902 0.3352 0.98109 0.0
N999 N 0.2014 0.34383 0.90147 0.0
C1000 C 0.21072 0.35056 0.82527 0.0
C1001 C 0.20993 0.34929 0.88819 0.0
C1002 C 0.19689 0.34239 0.8459 0.0
N1003 N 0.20246 0.34623 0.79877 0.0
O1004 O 0.1902 0.35545 0.97531 0.0
H1005 H 0.2149 0.35291 0.92158 0.0
H1006 H 0.18936 0.33907 0.84039 0.0
O1007 O 0.20713 0.34543 0.02381 0.0
C1008 C 0.1815 0.35617 0.94885 0.0
O1009 O 0.17704 0.34769 0.92987 0.0
N1010 N 0.19852 0.32736 0.97816 0.0
C1011 C 0.20167 0.30609 0.98 0.0
C1012 C 0.20446 0.31217 0.03073 0.0
C1013 C 0.20267 0.32275 0.02931 0.0
C1014 C 0.19534 0.32143 0.92985 0.0
C1015 C 0.197 0.31087 0.92927 0.0
H1016 H 0.20445 0.32719 0.07007 0.0
H1017 H 0.19103 0.32473 0.89249 0.0
H1018 H 0.1963 0.34873 0.11545 0.0
H1019 H 0.17107 0.32925 0.1441 0.0
H1020 H 0.21656 0.35492 0.80135 0.0
H1021 H 0.20792 0.30881 0.07146 0.0
H1022 H 0.19425 0.30643 0.89032 0.0
C1023 C 0.41979 0.42784 0.80527 0.0
C1024 C 0.42012 0.42526 0.86698 0.0
N1025 N 0.41346 0.43133 0.89738 0.0
N1026 N 0.41313 0.43564 0.79742 0.0
C1027 C 0.40925 0.43747 0.85419 0.0
H1028 H 0.42446 0.4246 0.76887 0.0
Co1029 Co 0.4111 0.44278 0.72435 0.0
C1030 C 0.41092 0.46428 0.77038 0.0
O1031 O 0.4178 0.46679 0.72856 0.0
N1032 N 0.40873 0.44955 0.64877 0.0
C1033 C 0.40293 0.4595 0.57244 0.0
C1034 C 0.40383 0.45844 0.63548 0.0
C1035 C 0.41005 0.44508 0.59295 0.0
N1036 N 0.40682 0.45104 0.54602 0.0
O1037 O 0.3971 0.43838 0.72333 0.0
H1038 H 0.40046 0.46359 0.66876 0.0
H1039 H 0.41303 0.43741 0.58676 0.0
O1040 O 0.40738 0.45513 0.77201 0.0
C1041 C 0.39616 0.42969 0.69717 0.0
O1042 O 0.40448 0.42511 0.67691 0.0
N1043 N 0.4253 0.4464 0.72456 0.0
C1044 C 0.44666 0.44887 0.72816 0.0
C1045 C 0.44055 0.45176 0.77855 0.0
C1046 C 0.42995 0.45029 0.77628 0.0
C1047 C 0.43119 0.44329 0.67592 0.0
C1048 C 0.44182 0.44459 0.67633 0.0
H1049 H 0.42551 0.45205 0.8171 0.0
H1050 H 0.42782 0.43927 0.63765 0.0
H1051 H 0.40389 0.44356 0.86444 0.0
H1052 H 0.42507 0.4196 0.88818 0.0
H1053 H 0.39919 0.46571 0.54805 0.0
H1054 H 0.44393 0.45499 0.81994 0.0
H1055 H 0.44624 0.44183 0.63735 0.0
H1056 H 0.19842 0.29279 0.07645 0.0
H1057 H 0.19952 0.27407 0.07497 0.0
H1058 H 0.20888 0.27498 0.88382 0.0
H1059 H 0.20788 0.2937 0.88498 0.0
H1060 H 0.19261 0.26161 0.90696 0.0
H1061 H 0.2245 0.25496 0.07227 0.0
H1062 H 0.2144 0.26301 0.10107 0.0
H1063 H 0.22211 0.26731 0.03728 0.0
C1064 C 0.20092 0.28903 0.03446 0.0
C1065 C 0.20306 0.29476 0.98081 0.0
C1066 C 0.20155 0.27832 0.0337 0.0
C1067 C 0.20439 0.27314 0.97947 0.0
C1068 C 0.20669 0.27883 0.92619 0.0
H1069 H 0.20682 0.20921 0.86491 0.0
H1070 H 0.20796 0.2279 0.87086 0.0
C1071 C 0.20606 0.28952 0.92688 0.0
C1072 C 0.20434 0.26177 0.97697 0.0
H1073 H 0.21514 0.2403 0.03977 0.0
C1074 C 0.19758 0.25694 0.93571 0.0
C1075 C 0.21078 0.25571 0.01483 0.0
C1076 C 0.21843 0.26049 0.05853 0.0
C1077 C 0.19697 0.24622 0.93188 0.0
C1078 C 0.20345 0.24015 0.96948 0.0
C1079 C 0.2102 0.24497 0.0109 0.0
C1080 C 0.20326 0.22878 0.96667 0.0
C1081 C 0.18921 0.24149 0.88869 0.0
C1082 C 0.20057 0.22305 0.01912 0.0
C1083 C 0.19994 0.21236 0.01592 0.0
C1084 C 0.20203 0.20719 0.96019 0.0
C1085 C 0.20499 0.21296 0.9082 0.0
C1086 C 0.20564 0.22364 0.91151 0.0
H1087 H 0.18311 0.24703 0.87562 0.0
H1088 H 0.19313 0.239 0.84571 0.0
H1089 H 0.18555 0.23467 0.91005 0.0
H1090 H 0.19872 0.22687 0.06219 0.0
H1091 H 0.19753 0.20817 0.05665 0.0
H1092 H 0.04201 0.94694 0.34567 0.0
H1093 H 0.02332 0.94844 0.35349 0.0
H1094 H 0.02121 0.95138 0.15531 0.0
H1095 H 0.03987 0.95008 0.14712 0.0
H1096 H 0.00894 0.9658 0.22593 0.0
H1097 H 0.00332 0.92526 0.29857 0.0
H1098 H 0.0124 0.93259 0.34294 0.0
H1099 H 0.01506 0.92972 0.26335 0.0
C1100 C 0.03757 0.94802 0.30383 0.0
C1101 C 0.04241 0.94833 0.24572 0.0
C1102 C 0.0269 0.94879 0.30834 0.0
C1103 C 0.02089 0.94989 0.25489 0.0
C1104 C 0.02571 0.95048 0.19705 0.0
H1105 H 0.95667 0.95365 0.15823 0.0
H1106 H 0.97538 0.95441 0.16109 0.0
C1107 C 0.03636 0.94967 0.19245 0.0
C1108 C 0.00956 0.95024 0.25885 0.0
H1109 H 0.98859 0.93567 0.29319 0.0
C1110 C 0.00448 0.95923 0.24076 0.0
C1111 C 0.00379 0.94166 0.27834 0.0
C1112 C 0.00887 0.93171 0.29652 0.0
C1113 C 0.99373 0.95989 0.24191 0.0
C1114 C 0.98793 0.95123 0.2603 0.0
C1115 C 0.99305 0.94229 0.27913 0.0
C1116 C 0.97655 0.95117 0.25901 0.0
C1117 C 0.9887 0.96989 0.22427 0.0
C1118 C 0.97099 0.94887 0.31277 0.0
C1119 C 0.96029 0.94826 0.31108 0.0
C1120 C 0.95493 0.94991 0.25546 0.0
C1121 C 0.96054 0.95227 0.20174 0.0
C1122 C 0.97124 0.95285 0.20346 0.0
H1123 H 0.99405 0.97645 0.22962 0.0
H1124 H 0.98634 0.96954 0.17501 0.0
H1125 H 0.98178 0.97135 0.25278 0.0
H1126 H 0.97493 0.94745 0.35602 0.0
H1127 H 0.95626 0.94623 0.35309 0.0
H1128 H 0.30354 0.7966 0.42683 0.0
H1129 H 0.30266 0.77787 0.42942 0.0
H1130 H 0.30837 0.77826 0.6258 0.0
H1131 H 0.30943 0.79702 0.62346 0.0
H1132 H 0.32123 0.76474 0.55557 0.0
H1133 H 0.27999 0.75913 0.50178 0.0
H1134 H 0.28668 0.76757 0.44993 0.0
H1135 H 0.28507 0.77117 0.52952 0.0
C1136 C 0.30457 0.7927 0.47062 0.0
C1137 C 0.30656 0.79829 0.52495 0.0
C1138 C 0.30397 0.78201 0.47211 0.0
C1139 C 0.30533 0.77669 0.52791 0.0
C1140 C 0.30722 0.78223 0.58236 0.0
H1141 H 0.31208 0.71137 0.60853 0.0
H1142 H 0.31089 0.73001 0.61666 0.0
C1143 C 0.30776 0.79294 0.58099 0.0
C1144 C 0.30536 0.76533 0.52861 0.0
H1145 H 0.2906 0.74433 0.49794 0.0
C1146 C 0.31452 0.76026 0.54355 0.0
C1147 C 0.29661 0.75953 0.51253 0.0
C1148 C 0.28649 0.7646 0.49801 0.0
C1149 C 0.31524 0.74953 0.54113 0.0
C1150 C 0.30649 0.74371 0.52472 0.0
C1151 C 0.2973 0.74879 0.51048 0.0
C1152 C 0.30678 0.73235 0.52072 0.0
C1153 C 0.32546 0.74455 0.55408 0.0
C1154 C 0.30451 0.72743 0.46467 0.0
C1155 C 0.305 0.71675 0.46009 0.0
C1156 C 0.30776 0.71075 0.51159 0.0
C1157 C 0.30984 0.71572 0.56804 0.0
C1158 C 0.3093 0.7264 0.5726 0.0
H1159 H 0.33189 0.75009 0.54963 0.0
H1160 H 0.3255 0.74156 0.60211 0.0
H1161 H 0.32687 0.73804 0.52213 0.0
H1162 H 0.30246 0.73187 0.42416 0.0
H1163 H 0.30318 0.71319 0.41621 0.0
H1164 H 0.45846 0.0371 0.73359 0.0
H1165 H 0.47713 0.03564 0.74186 0.0
H1166 H 0.48059 0.06425 0.6442 0.0
H1167 H 0.46202 0.06602 0.63819 0.0
H1168 H 0.49181 0.03451 0.65209 0.0
H1169 H 0.4981 0.06905 0.79592 0.0
H1170 H 0.48554 0.0636 0.78376 0.0
H1171 H 0.49118 0.07183 0.72624 0.0
C1172 C 0.46319 0.04315 0.71455 0.0
C1173 C 0.4587 0.05169 0.68536 0.0
C1174 C 0.47386 0.04227 0.71896 0.0
C1175 C 0.48026 0.04992 0.69457 0.0
C1176 C 0.47581 0.05836 0.66452 0.0
H1177 H 0.54424 0.04668 0.59426 0.0
H1178 H 0.52555 0.04617 0.59796 0.0
C1179 C 0.46517 0.05927 0.66032 0.0
C1180 C 0.49158 0.04904 0.6994 0.0
H1181 H 0.51294 0.06185 0.74788 0.0
C1182 C 0.49644 0.04044 0.6735 0.0
C1183 C 0.4976 0.05669 0.72831 0.0
C1184 C 0.49284 0.06576 0.76071 0.0
C1185 C 0.50716 0.03946 0.6739 0.0
C1186 C 0.51321 0.0474 0.69973 0.0
C1187 C 0.50833 0.05582 0.72742 0.0
C1188 C 0.5246 0.04724 0.69769 0.0
C1189 C 0.5119 0.02989 0.64713 0.0
C1190 C 0.53031 0.04825 0.75236 0.0
C1191 C 0.54102 0.04875 0.75032 0.0
C1192 C 0.54625 0.04826 0.69345 0.0
C1193 C 0.54049 0.04715 0.63882 0.0
C1194 C 0.52978 0.04672 0.64091 0.0
H1195 H 0.50641 0.02338 0.64759 0.0
H1196 H 0.51408 0.03135 0.59831 0.0
H1197 H 0.51888 0.02761 0.67306 0.0
H1198 H 0.52648 0.04877 0.79669 0.0
H1199 H 0.54516 0.0498 0.79325 0.0
H1200 H 0.19064 0.70679 0.8071 0.0
H1201 H 0.1918 0.7253 0.78938 0.0
H1202 H 0.19446 0.73033 0.98581 0.0
H1203 H 0.19359 0.71185 0.00381 0.0
H1204 H 0.17851 0.74018 0.83302 0.0
H1205 H 0.21796 0.74757 0.91657 0.0
H1206 H 0.21337 0.73485 0.89865 0.0
H1207 H 0.21025 0.74072 0.97154 0.0
C1208 C 0.19167 0.71182 0.84645 0.0
C1209 C 0.19205 0.70783 0.9069 0.0
C1210 C 0.19227 0.7224 0.83625 0.0
C1211 C 0.19336 0.72919 0.88618 0.0
C1212 C 0.19382 0.72523 0.94648 0.0
H1213 H 0.17687 0.79197 0.93306 0.0
H1214 H 0.17798 0.77337 0.92602 0.0
C1215 C 0.1932 0.71467 0.95674 0.0
C1216 C 0.19342 0.74044 0.8758 0.0
H1217 H 0.20704 0.76224 0.90583 0.0
C1218 C 0.1848 0.74499 0.84827 0.0
C1219 C 0.20169 0.74671 0.89487 0.0
C1220 C 0.21139 0.74221 0.92149 0.0
C1221 C 0.18404 0.75568 0.84182 0.0
C1222 C 0.19205 0.76198 0.86423 0.0
C1223 C 0.20086 0.7574 0.88921 0.0
C1224 C 0.19117 0.77332 0.8654 0.0
C1225 C 0.17463 0.76013 0.81144 0.0
C1226 C 0.19831 0.7795 0.83433 0.0
C1227 C 0.19768 0.79021 0.83799 0.0
C1228 C 0.18992 0.79492 0.8732 0.0
C1229 C 0.18279 0.78865 0.9042 0.0
C1230 C 0.18342 0.77799 0.90038 0.0
H1231 H 0.17079 0.75444 0.78103 0.0
H1232 H 0.16908 0.76245 0.84771 0.0
H1233 H 0.17658 0.76701 0.78354 0.0
H1234 H 0.20439 0.77604 0.80734 0.0
H1235 H 0.20326 0.79478 0.81327 0.0
H1236 H 0.54226 0.96103 0.38656 0.0
H1237 H 0.52355 0.96165 0.37828 0.0
H1238 H 0.52556 0.95363 0.18525 0.0
H1239 H 0.54422 0.95267 0.19348 0.0
H1240 H 0.51073 0.97351 0.30051 0.0
H1241 H 0.50624 0.93179 0.25658 0.0
H1242 H 0.51801 0.93728 0.28535 0.0
H1243 H 0.51483 0.93823 0.20466 0.0
C1244 C 0.53872 0.95935 0.3424 0.0
C1245 C 0.54475 0.95674 0.29079 0.0
C1246 C 0.52803 0.95977 0.33767 0.0
C1247 C 0.52317 0.95754 0.2814 0.0
C1248 C 0.52916 0.95522 0.22937 0.0
H1249 H 0.45925 0.95147 0.17322 0.0
H1250 H 0.47793 0.95306 0.17435 0.0
C1251 C 0.53984 0.9548 0.23402 0.0
C1252 C 0.51182 0.95749 0.27742 0.0
H1253 H 0.49129 0.94196 0.24879 0.0
C1254 C 0.50646 0.96662 0.2893 0.0
C1255 C 0.50629 0.94848 0.26278 0.0
C1256 C 0.5116 0.93836 0.25212 0.0
C1257 C 0.49571 0.967 0.28613 0.0
C1258 C 0.49018 0.95798 0.27172 0.0
C1259 C 0.49555 0.94888 0.25959 0.0
C1260 C 0.47881 0.95772 0.2702 0.0
C1261 C 0.49037 0.97709 0.2972 0.0
C1262 C 0.47311 0.95982 0.32373 0.0
C1263 C 0.46242 0.95898 0.32314 0.0
C1264 C 0.45723 0.95597 0.26907 0.0
C1265 C 0.46298 0.95396 0.21536 0.0
C1266 C 0.47366 0.9548 0.21602 0.0
H1267 H 0.49566 0.98369 0.29086 0.0
H1268 H 0.48374 0.97804 0.26554 0.0
H1269 H 0.48748 0.97731 0.34544 0.0
H1270 H 0.47693 0.9619 0.36638 0.0
H1271 H 0.45823 0.96064 0.36518 0.0
H1272 H 0.30597 0.20924 0.402 0.0
H1273 H 0.3054 0.22785 0.39044 0.0
H1274 H 0.29959 0.23108 0.58574 0.0
H1275 H 0.2997 0.21243 0.59738 0.0
H1276 H 0.28746 0.24384 0.51492 0.0
H1277 H 0.32827 0.24702 0.44481 0.0
H1278 H 0.32081 0.2386 0.39703 0.0
H1279 H 0.32295 0.23542 0.47691 0.0
C1280 C 0.30441 0.21388 0.44243 0.0
C1281 C 0.30291 0.2093 0.50074 0.0
C1282 C 0.30422 0.22454 0.43582 0.0
C1283 C 0.30264 0.23087 0.4874 0.0
C1284 C 0.3009 0.22635 0.54536 0.0
H1285 H 0.31742 0.29457 0.53664 0.0
H1286 H 0.31645 0.2759 0.5355 0.0
C1287 C 0.30104 0.21568 0.55201 0.0
C1288 C 0.3029 0.2422 0.48124 0.0
H1289 H 0.31839 0.26221 0.44061 0.0
C1290 C 0.29421 0.24787 0.49856 0.0
C1291 C 0.31176 0.24744 0.46054 0.0
C1292 C 0.32152 0.24183 0.44428 0.0
C1293 C 0.29414 0.25863 0.49583 0.0
C1294 C 0.30294 0.26386 0.47408 0.0
C1295 C 0.31162 0.25819 0.45664 0.0
C1296 C 0.30356 0.27523 0.47265 0.0
C1297 C 0.28477 0.26431 0.5181 0.0
C1298 C 0.29673 0.28108 0.43686 0.0
C1299 C 0.29728 0.2918 0.43733 0.0
C1300 C 0.30475 0.29686 0.47304 0.0
C1301 C 0.31169 0.29094 0.50781 0.0
C1302 C 0.3111 0.28026 0.50751 0.0
H1303 H 0.27973 0.25936 0.54683 0.0
H1304 H 0.28696 0.27115 0.54564 0.0
H1305 H 0.28026 0.26695 0.47757 0.0
H1306 H 0.29099 0.27735 0.40853 0.0
H1307 H 0.2919 0.29614 0.40955 0.0
H1308 H 0.96078 0.04377 0.91718 0.0
H1309 H 0.97946 0.04236 0.91158 0.0
H1310 H 0.97861 0.0511 0.71936 0.0
H1311 H 0.95994 0.05259 0.72457 0.0
H1312 H 0.99173 0.0344 0.74412 0.0
H1313 H 0.99901 0.06696 0.90374 0.0
H1314 H 0.99079 0.05716 0.9345 0.0
H1315 H 0.98662 0.06463 0.86934 0.0
C1316 C 0.96457 0.04544 0.87377 0.0
C1317 C 0.95885 0.04834 0.82142 0.0
C1318 C 0.97525 0.04463 0.87066 0.0
C1319 C 0.98044 0.04678 0.81531 0.0
C1320 C 0.97476 0.04943 0.76257 0.0
H1321 H 0.04407 0.05058 0.69914 0.0
H1322 H 0.02537 0.04946 0.70326 0.0
C1323 C 0.96408 0.05023 0.76559 0.0
C1324 C 0.9918 0.0464 0.81249 0.0
H1325 H 0.01344 0.05733 0.87204 0.0
C1326 C 0.99649 0.03942 0.77198 0.0
C1327 C 0.99798 0.05296 0.84885 0.0
C1328 C 0.99337 0.06092 0.89119 0.0
C1329 C 0.00722 0.03873 0.76754 0.0
C1330 C 0.0134 0.04531 0.80384 0.0
C1331 C 0.00869 0.05226 0.84443 0.0
C1332 C 0.02476 0.04525 0.80001 0.0
C1333 C 0.01185 0.03083 0.72489 0.0
C1334 C 0.03064 0.04335 0.85312 0.0
C1335 C 0.04133 0.044 0.85094 0.0
C1336 C 0.04637 0.04663 0.79562 0.0
C1337 C 0.04046 0.04837 0.7422 0.0
C1338 C 0.02976 0.04772 0.74447 0.0
H1339 H 0.0063 0.02466 0.71348 0.0
H1340 H 0.01415 0.0346 0.68103 0.0
H1341 H 0.01878 0.02731 0.74582 0.0
H1342 H 0.02695 0.04145 0.8965 0.0
H1343 H 0.04566 0.04251 0.89275 0.0
H1344 H 0.82004 0.71064 0.01662 0.0
H1345 H 0.81856 0.72926 0.00904 0.0
H1346 H 0.78728 0.72618 0.94741 0.0
H1347 H 0.7886 0.70749 0.95654 0.0
H1348 H 0.81373 0.74108 0.90351 0.0
H1349 H 0.78527 0.74668 0.09215 0.0
H1350 H 0.79244 0.73493 0.08321 0.0
H1351 H 0.7818 0.73762 0.03305 0.0
C1352 C 0.81279 0.71391 0.00229 0.0
C1353 C 0.8044 0.70757 0.98782 0.0
C1354 C 0.81199 0.72455 0.9975 0.0
C1355 C 0.80278 0.72911 0.97842 0.0
C1356 C 0.79441 0.72283 0.96318 0.0
H1357 H 0.78838 0.79475 0.95149 0.0
H1358 H 0.78731 0.77601 0.94408 0.0
C1359 C 0.79521 0.71215 0.96786 0.0
C1360 C 0.80208 0.74043 0.97388 0.0
H1361 H 0.79066 0.76144 0.03833 0.0
C1362 C 0.80865 0.74553 0.93276 0.0
C1363 C 0.7954 0.74621 0.01184 0.0
C1364 C 0.78836 0.74113 0.05796 0.0
C1365 C 0.80883 0.75628 0.92913 0.0
C1366 C 0.8024 0.76207 0.9685 0.0
C1367 C 0.7956 0.75697 0.00829 0.0
C1368 C 0.80304 0.77341 0.97155 0.0
C1369 C 0.81591 0.76133 0.88313 0.0
C1370 C 0.8122 0.77814 0.99007 0.0
C1371 C 0.81284 0.7888 0.99418 0.0
C1372 C 0.80431 0.79498 0.98025 0.0
C1373 C 0.79511 0.79022 0.96191 0.0
C1374 C 0.79448 0.77952 0.95795 0.0
H1375 H 0.81796 0.75603 0.84484 0.0
H1376 H 0.81238 0.76833 0.86316 0.0
H1377 H 0.82311 0.76358 0.9069 0.0
H1378 H 0.81885 0.77357 0.00183 0.0
H1379 H 0.82007 0.79221 0.00776 0.0
H1380 H 0.71738 0.29328 0.49367 0.0
H1381 H 0.7183 0.27452 0.48746 0.0
H1382 H 0.68804 0.27229 0.56646 0.0
H1383 H 0.68693 0.29094 0.57119 0.0
H1384 H 0.71664 0.25993 0.58366 0.0
H1385 H 0.68588 0.25482 0.4095 0.0
H1386 H 0.69186 0.26707 0.42413 0.0
H1387 H 0.68201 0.26235 0.4749 0.0
C1388 C 0.71089 0.28879 0.5092 0.0
C1389 C 0.70208 0.29362 0.53293 0.0
C1390 C 0.71145 0.27808 0.50591 0.0
C1391 C 0.70318 0.27202 0.52566 0.0
C1392 C 0.69444 0.27682 0.54998 0.0
H1393 H 0.6872 0.20889 0.5743 0.0
H1394 H 0.68846 0.22754 0.5695 0.0
C1395 C 0.69388 0.28749 0.55338 0.0
C1396 C 0.70369 0.26068 0.52212 0.0
H1397 H 0.69126 0.2398 0.46347 0.0
C1398 C 0.71118 0.25551 0.55684 0.0
C1399 C 0.69657 0.25495 0.48693 0.0
C1400 C 0.68869 0.26007 0.44626 0.0
C1401 C 0.71145 0.24475 0.55939 0.0
C1402 C 0.70414 0.23903 0.52556 0.0
C1403 C 0.69683 0.2442 0.48959 0.0
C1404 C 0.70362 0.22768 0.52897 0.0
C1405 C 0.7193 0.23959 0.60009 0.0
C1406 C 0.7117 0.22155 0.50731 0.0
C1407 C 0.71103 0.21085 0.51036 0.0
C1408 C 0.70226 0.20609 0.53507 0.0
C1409 C 0.69415 0.21228 0.55616 0.0
C1410 C 0.69482 0.22296 0.553 0.0
H1411 H 0.72294 0.24505 0.6328 0.0
H1412 H 0.71575 0.23326 0.62701 0.0
H1413 H 0.72542 0.23624 0.57068 0.0
H1414 H 0.71849 0.22504 0.48765 0.0
H1415 H 0.71742 0.2063 0.49388 0.0
H1416 H 0.78608 0.2073 0.98957 0.0
H1417 H 0.78479 0.22606 0.99015 0.0
H1418 H 0.81566 0.22828 0.9204 0.0
H1419 H 0.81707 0.20964 0.92037 0.0
H1420 H 0.7973 0.24076 0.05207 0.0
H1421 H 0.79888 0.24557 0.79749 0.0
H1422 H 0.79618 0.2334 0.83382 0.0
H1423 H 0.80916 0.23795 0.82812 0.0
C1424 C 0.7926 0.21179 0.97463 0.0
C1425 C 0.80163 0.20694 0.95414 0.0
C1426 C 0.79184 0.2225 0.97478 0.0
C1427 C 0.80005 0.22855 0.95417 0.0
C1428 C 0.80913 0.22375 0.935 0.0
H1429 H 0.81743 0.29151 0.91783 0.0
H1430 H 0.81582 0.27288 0.92023 0.0
C1431 C 0.80991 0.21308 0.93488 0.0
C1432 C 0.79929 0.23989 0.95341 0.0
H1433 H 0.80138 0.26065 0.858 0.0
C1434 C 0.79806 0.24513 0.00963 0.0
C1435 C 0.80026 0.24555 0.89791 0.0
C1436 C 0.8011 0.24034 0.83581 0.0
C1437 C 0.79824 0.2559 0.01213 0.0
C1438 C 0.79951 0.26155 0.95677 0.0
C1439 C 0.80045 0.2563 0.90041 0.0
C1440 C 0.80036 0.27289 0.95636 0.0
C1441 C 0.79748 0.26114 0.07416 0.0
C1442 C 0.79216 0.2791 0.97549 0.0
C1443 C 0.79304 0.2898 0.97385 0.0
C1444 C 0.8021 0.29447 0.95258 0.0
C1445 C 0.81028 0.28819 0.93345 0.0
C1446 C 0.80939 0.27753 0.93514 0.0
H1447 H 0.79873 0.25571 0.11303 0.0
H1448 H 0.80315 0.26745 0.07777 0.0
H1449 H 0.78971 0.2645 0.07932 0.0
H1450 H 0.78504 0.27568 0.99095 0.0
H1451 H 0.78656 0.29441 0.98822 0.0
H1452 H 0.69485 0.70961 0.5881 0.0
H1453 H 0.69581 0.72835 0.58704 0.0
H1454 H 0.7042 0.72769 0.39424 0.0
H1455 H 0.7033 0.70896 0.39489 0.0
H1456 H 0.7119 0.74191 0.55633 0.0
H1457 H 0.6788 0.74623 0.39697 0.0
H1458 H 0.6817 0.73432 0.43569 0.0
H1459 H 0.68883 0.73808 0.36827 0.0
C1460 C 0.69704 0.71344 0.54567 0.0
C1461 C 0.69893 0.70779 0.49143 0.0
C1462 C 0.69753 0.72415 0.5451 0.0
C1463 C 0.69989 0.72942 0.4903 0.0
C1464 C 0.70213 0.72379 0.43668 0.0
H1465 H 0.7025 0.79357 0.38494 0.0
H1466 H 0.70375 0.77487 0.38947 0.0
C1467 C 0.70162 0.71309 0.43715 0.0
C1468 C 0.69982 0.74079 0.4889 0.0
H1469 H 0.68808 0.76131 0.42101 0.0
C1470 C 0.70668 0.74617 0.52691 0.0
C1471 C 0.69297 0.74631 0.45057 0.0
C1472 C 0.68509 0.74096 0.41094 0.0
C1473 C 0.70703 0.75694 0.52669 0.0
C1474 C 0.70021 0.76245 0.48814 0.0
C1475 C 0.69333 0.75706 0.45027 0.0
C1476 C 0.69997 0.77382 0.48666 0.0
C1477 C 0.71482 0.76232 0.56677 0.0
C1478 C 0.69739 0.77944 0.53977 0.0
C1479 C 0.69663 0.79013 0.53729 0.0
C1480 C 0.69836 0.79541 0.48148 0.0
C1481 C 0.70102 0.78974 0.42849 0.0
C1482 C 0.70179 0.77906 0.43105 0.0
H1483 H 0.72113 0.7571 0.58077 0.0
H1484 H 0.71816 0.76903 0.5424 0.0
H1485 H 0.711 0.76512 0.6094 0.0
H1486 H 0.69572 0.77554 0.58283 0.0
H1487 H 0.69438 0.79422 0.57868 0.0
H1488 H 0.45986 0.45443 0.63522 0.0
H1489 H 0.47861 0.45482 0.63826 0.0
H1490 H 0.47804 0.44571 0.82985 0.0
H1491 H 0.45931 0.44513 0.82712 0.0
H1492 H 0.49191 0.46237 0.80064 0.0
H1493 H 0.49677 0.42868 0.64594 0.0
H1494 H 0.48867 0.43871 0.61668 0.0
H1495 H 0.48478 0.43159 0.68378 0.0
C1496 C 0.46371 0.45246 0.67795 0.0
C1497 C 0.45805 0.4497 0.73083 0.0
C1498 C 0.47442 0.4527 0.67961 0.0
C1499 C 0.4797 0.45017 0.73406 0.0
C1500 C 0.4741 0.44768 0.78735 0.0
H1501 H 0.54359 0.44464 0.84364 0.0
H1502 H 0.52492 0.44633 0.84129 0.0
C1503 C 0.46339 0.44741 0.78575 0.0
C1504 C 0.49106 0.44996 0.73527 0.0
H1505 H 0.51181 0.43747 0.67561 0.0
C1506 C 0.49628 0.45693 0.7734 0.0
C1507 C 0.49672 0.44285 0.69962 0.0
C1508 C 0.49148 0.43497 0.65951 0.0
C1509 C 0.50705 0.45708 0.77613 0.0
C1510 C 0.51271 0.44991 0.74079 0.0
C1511 C 0.50747 0.44297 0.70257 0.0
C1512 C 0.52408 0.44938 0.743 0.0
C1513 C 0.51224 0.46504 0.81582 0.0
C1514 C 0.52982 0.45036 0.68842 0.0
C1515 C 0.54049 0.44932 0.68957 0.0
C1516 C 0.54564 0.44727 0.74537 0.0
C1517 C 0.53988 0.44639 0.8001 0.0
C1518 C 0.5292 0.44738 0.79885 0.0
H1519 H 0.50711 0.47166 0.82527 0.0
H1520 H 0.51435 0.46156 0.86086 0.0
H1521 H 0.51935 0.46793 0.79351 0.0
H1522 H 0.52604 0.45188 0.64477 0.0
H1523 H 0.54471 0.45014 0.64671 0.0
H1524 H 0.04401 0.55289 0.32867 0.0
H1525 H 0.02531 0.55147 0.32871 0.0
H1526 H 0.02589 0.54289 0.1362 0.0
H1527 H 0.0446 0.54401 0.13616 0.0
H1528 H 0.01199 0.56288 0.25478 0.0
H1529 H 0.00698 0.52123 0.21244 0.0
H1530 H 0.01899 0.52669 0.23766 0.0
H1531 H 0.01523 0.52752 0.15785 0.0
C1532 C 0.04019 0.55048 0.28668 0.0
C1533 C 0.04582 0.54853 0.23244 0.0
C1534 C 0.02949 0.54974 0.28669 0.0
C1535 C 0.02421 0.54695 0.23269 0.0
C1536 C 0.02981 0.54487 0.1787 0.0
H1537 H 0.96071 0.54427 0.11782 0.0
H1538 H 0.9794 0.54345 0.12609 0.0
C1539 C 0.0405 0.54562 0.17859 0.0
C1540 C 0.01284 0.54685 0.23177 0.0
H1541 H 0.99205 0.53163 0.20346 0.0
C1542 C 0.00762 0.55603 0.2441 0.0
C1543 C 0.00717 0.53791 0.21749 0.0
C1544 C 0.01236 0.52775 0.20613 0.0
C1545 C 0.99688 0.55658 0.24112 0.0
C1546 C 0.9912 0.54766 0.22658 0.0
C1547 C 0.99642 0.53846 0.21461 0.0
C1548 C 0.97985 0.54778 0.22261 0.0
C1549 C 0.99173 0.56679 0.25177 0.0
C1550 C 0.97389 0.5503 0.27444 0.0
C1551 C 0.96321 0.55085 0.26977 0.0
C1552 C 0.95827 0.54883 0.2132 0.0
C1553 C 0.96427 0.54603 0.16181 0.0
C1554 C 0.97495 0.54549 0.16654 0.0
H1555 H 0.99719 0.57328 0.24688 0.0
H1556 H 0.9853 0.56795 0.21883 0.0
H1557 H 0.98857 0.567 0.29939 0.0
H1558 H 0.97751 0.55193 0.31844 0.0
H1559 H 0.95886 0.55312 0.31015 0.0
H1560 H 0.04328 0.457 0.89565 0.0
H1561 H 0.02458 0.45804 0.88932 0.0
H1562 H 0.02581 0.44932 0.69716 0.0
H1563 H 0.04447 0.44793 0.70352 0.0
H1564 H 0.01189 0.46997 0.81238 0.0
H1565 H 0.00601 0.42834 0.77195 0.0
H1566 H 0.01804 0.43352 0.79867 0.0
H1567 H 0.01459 0.43442 0.71838 0.0
C1568 C 0.03957 0.45524 0.85212 0.0
C1569 C 0.04539 0.45232 0.80022 0.0
C1570 C 0.02889 0.4559 0.84849 0.0
C1571 C 0.02379 0.45361 0.79304 0.0
C1572 C 0.02957 0.45096 0.7407 0.0
H1573 H 0.95923 0.44924 0.69453 0.0
H1574 H 0.97795 0.45031 0.69235 0.0
C1575 C 0.04026 0.45028 0.74426 0.0
C1576 C 0.01243 0.45389 0.79024 0.0
H1577 H 0.99134 0.43894 0.76532 0.0
C1578 C 0.00739 0.46319 0.80216 0.0
C1579 C 0.00658 0.44503 0.77688 0.0
C1580 C 0.01155 0.43473 0.76626 0.0
C1581 C 0.99664 0.46389 0.80041 0.0
C1582 C 0.99079 0.45502 0.78738 0.0
C1583 C 0.99584 0.44574 0.77507 0.0
C1584 C 0.97942 0.45508 0.78775 0.0
C1585 C 0.99165 0.47416 0.81158 0.0
C1586 C 0.97402 0.45742 0.8421 0.0
C1587 C 0.96332 0.45687 0.84342 0.0
C1588 C 0.95779 0.45392 0.79045 0.0
C1589 C 0.96322 0.4517 0.73586 0.0
C1590 C 0.97393 0.45223 0.73464 0.0
H1591 H 0.99709 0.48058 0.80398 0.0
H1592 H 0.98491 0.47524 0.78088 0.0
H1593 H 0.98897 0.47454 0.86023 0.0
H1594 H 0.9781 0.45945 0.88396 0.0
H1595 H 0.95938 0.4587 0.88609 0.0
H1596 H 0.45598 0.55387 0.20056 0.0
H1597 H 0.47466 0.55315 0.19225 0.0
H1598 H 0.47676 0.54473 0.38467 0.0
H1599 H 0.45806 0.54516 0.39302 0.0
H1600 H 0.48859 0.56499 0.25996 0.0
H1601 H 0.49513 0.52345 0.2994 0.0
H1602 H 0.48271 0.52862 0.27965 0.0
H1603 H 0.48745 0.52961 0.35747 0.0
C1604 C 0.46039 0.55166 0.24083 0.0
C1605 C 0.45551 0.54951 0.29741 0.0
C1606 C 0.47108 0.55132 0.23609 0.0
C1607 C 0.47709 0.54876 0.2876 0.0
C1608 C 0.47226 0.54655 0.34404 0.0
H1609 H 0.54221 0.54732 0.36601 0.0
H1610 H 0.52349 0.54615 0.36886 0.0
C1611 C 0.46157 0.5469 0.34889 0.0
C1612 C 0.48844 0.54894 0.28306 0.0
H1613 H 0.50988 0.53415 0.29925 0.0
C1614 C 0.49325 0.55823 0.26812 0.0
C1615 C 0.49448 0.54012 0.29401 0.0
C1616 C 0.4897 0.52985 0.308 0.0
C1617 C 0.50397 0.55901 0.26504 0.0
C1618 C 0.51003 0.5502 0.27602 0.0
C1619 C 0.50521 0.54089 0.2908 0.0
C1620 C 0.52139 0.55054 0.27322 0.0
C1621 C 0.50872 0.56933 0.25171 0.0
C1622 C 0.52642 0.5532 0.21817 0.0
C1623 C 0.53711 0.55395 0.21649 0.0
C1624 C 0.54299 0.55199 0.2698 0.0
C1625 C 0.53791 0.54904 0.3244 0.0
C1626 C 0.52722 0.5483 0.32602 0.0
H1627 H 0.50324 0.5757 0.26005 0.0
H1628 H 0.51564 0.57059 0.28069 0.0
H1629 H 0.51108 0.56963 0.20244 0.0
H1630 H 0.52208 0.55479 0.17658 0.0
H1631 H 0.54074 0.55633 0.1738 0.0
H1632 H 0.16841 0.16341 0.20667 0.0
H1633 H 0.17084 0.16248 0.31898 0.0
H1634 H 0.20309 0.15676 0.29208 0.0
H1635 H 0.20083 0.15799 0.18063 0.0
H1636 H 0.17911 0.1463 0.39309 0.0
H1637 H 0.20222 0.18197 0.4069 0.0
H1638 H 0.19462 0.17871 0.33994 0.0
H1639 H 0.20691 0.17279 0.35187 0.0
C1640 C 0.17601 0.162 0.22475 0.0
C1641 C 0.18441 0.1608 0.18465 0.0
C1642 C 0.17737 0.16141 0.28876 0.0
C1643 C 0.18716 0.1597 0.31352 0.0
C1644 C 0.1955 0.15823 0.27372 0.0
H1645 H 0.20654 0.14206 0.67933 0.0
H1646 H 0.20224 0.14289 0.5694 0.0
C1647 C 0.19415 0.15881 0.20991 0.0
C1648 C 0.18874 0.15956 0.38106 0.0
H1649 H 0.20173 0.17156 0.49717 0.0
C1650 C 0.184 0.15184 0.41605 0.0
C1651 C 0.19502 0.1669 0.41067 0.0
C1652 C 0.19992 0.17562 0.37558 0.0
C1653 C 0.18563 0.15111 0.48001 0.0
C1654 C 0.19223 0.15821 0.50915 0.0
C1655 C 0.19674 0.16608 0.4744 0.0
C1656 C 0.19465 0.1576 0.5757 0.0
C1657 C 0.18024 0.14279 0.51595 0.0
C1658 C 0.19199 0.1657 0.6151 0.0
C1659 C 0.19453 0.1653 0.67772 0.0
C1660 C 0.19983 0.15681 0.70189 0.0
C1661 C 0.20254 0.14874 0.66207 0.0
C1662 C 0.19998 0.14914 0.59944 0.0
H1663 H 0.17359 0.13964 0.49009 0.0
H1664 H 0.18569 0.13642 0.52474 0.0
H1665 H 0.17753 0.1457 0.56132 0.0
H1666 H 0.18796 0.17234 0.59734 0.0
H1667 H 0.19246 0.17169 0.7071 0.0
H1668 H 0.0962 0.95041 0.44745 0.0
H1669 H 0.09956 0.95339 0.55707 0.0
H1670 H 0.09722 0.92097 0.59257 0.0
H1671 H 0.09398 0.91786 0.48248 0.0
H1672 H 0.08445 0.9467 0.64853 0.0
H1673 H 0.1234 0.93083 0.69105 0.0
H1674 H 0.1192 0.93499 0.61542 0.0
H1675 H 0.11471 0.92306 0.64645 0.0
C1676 C 0.09666 0.94387 0.47814 0.0
C1677 C 0.0948 0.93388 0.45628 0.0
C1678 C 0.09855 0.94561 0.54079 0.0
C1679 C 0.09874 0.93739 0.58257 0.0
C1680 C 0.09725 0.92738 0.56076 0.0
H1681 H 0.09735 0.93209 0.98106 0.0
H1682 H 0.10031 0.92918 0.87033 0.0
C1683 C 0.0953 0.92564 0.49808 0.0
C1684 C 0.09925 0.93944 0.64968 0.0
H1685 H 0.11385 0.93597 0.77907 0.0
C1686 C 0.0909 0.94443 0.67709 0.0
C1687 C 0.10763 0.93633 0.68654 0.0
C1688 C 0.1168 0.93105 0.6586 0.0
C1689 C 0.09061 0.94627 0.74084 0.0
C1690 C 0.09906 0.94333 0.7779 0.0
C1691 C 0.10743 0.9383 0.75045 0.0
C1692 C 0.09912 0.94521 0.84542 0.0
C1693 C 0.08108 0.95106 0.76804 0.0
C1694 C 0.098 0.95521 0.8683 0.0
C1695 C 0.09619 0.95685 0.93108 0.0
C1696 C 0.0957 0.94854 0.97222 0.0
C1697 C 0.09773 0.93861 0.9502 0.0
C1698 C 0.09939 0.93696 0.88706 0.0
H1699 H 0.07437 0.95023 0.73678 0.0
H1700 H 0.07914 0.94756 0.81336 0.0
H1701 H 0.08242 0.95938 0.77521 0.0
H1702 H 0.09804 0.96171 0.83713 0.0
H1703 H 0.09478 0.96457 0.94733 0.0
H1704 H 0.31684 0.8616 0.7437 0.0
H1705 H 0.31423 0.86425 0.85475 0.0
H1706 H 0.32736 0.83453 0.8918 0.0
H1707 H 0.33008 0.83191 0.7814 0.0
H1708 H 0.30254 0.85361 0.93273 0.0
H1709 H 0.34261 0.85184 0.01479 0.0
H1710 H 0.33939 0.85314 0.93399 0.0
H1711 H 0.33934 0.84071 0.97033 0.0
C1712 C 0.31923 0.85567 0.77561 0.0
C1713 C 0.32373 0.84657 0.75373 0.0
C1714 C 0.31776 0.85721 0.83904 0.0
C1715 C 0.32077 0.84968 0.88178 0.0
C1716 C 0.32527 0.8406 0.85998 0.0
H1717 H 0.29636 0.8362 0.23978 0.0
H1718 H 0.30016 0.83813 0.12997 0.0
C1719 C 0.3268 0.83909 0.79672 0.0
C1720 C 0.31863 0.85098 0.94878 0.0
H1721 H 0.32957 0.84906 0.09178 0.0
C1722 C 0.30848 0.85275 0.96748 0.0
C1723 C 0.32639 0.85006 0.99421 0.0
C1724 C 0.33756 0.84895 0.97728 0.0
C1725 C 0.3058 0.85316 0.03031 0.0
C1726 C 0.31345 0.85148 0.07568 0.0
C1727 C 0.32367 0.85019 0.05703 0.0
C1728 C 0.31094 0.85058 0.14245 0.0
C1729 C 0.29481 0.85539 0.0473 0.0
C1730 C 0.31595 0.85673 0.18638 0.0
C1731 C 0.31386 0.85555 0.24948 0.0
C1732 C 0.30672 0.84821 0.26977 0.0
C1733 C 0.30174 0.84207 0.22563 0.0
C1734 C 0.30388 0.84319 0.16274 0.0
H1735 H 0.29088 0.85982 0.01035 0.0
H1736 H 0.29062 0.84805 0.05309 0.0
H1737 H 0.29429 0.85976 0.09123 0.0
H1738 H 0.32148 0.86244 0.17184 0.0
H1739 H 0.31778 0.86043 0.28235 0.0
H1740 H 0.41399 0.08588 0.93409 0.0
H1741 H 0.41202 0.08403 0.04632 0.0
H1742 H 0.40801 0.05141 0.02428 0.0
H1743 H 0.40995 0.05319 0.91274 0.0
H1744 H 0.3938 0.06026 0.10411 0.0
H1745 H 0.43364 0.07194 0.16263 0.0
H1746 H 0.42652 0.08102 0.11728 0.0
H1747 H 0.42977 0.06877 0.08484 0.0
C1748 C 0.41273 0.07833 0.95329 0.0
C1749 C 0.41212 0.0697 0.91452 0.0
C1750 C 0.41162 0.07727 0.0173 0.0
C1751 C 0.41 0.06756 0.04351 0.0
C1752 C 0.40924 0.05897 0.00488 0.0
H1753 H 0.40582 0.03874 0.39948 0.0
H1754 H 0.40581 0.04319 0.28967 0.0
C1755 C 0.4103 0.06002 0.94106 0.0
C1756 C 0.40914 0.06624 0.11122 0.0
H1757 H 0.4226 0.06822 0.24604 0.0
C1758 C 0.40007 0.06203 0.13523 0.0
C1759 C 0.41736 0.06857 0.15154 0.0
C1760 C 0.42741 0.07275 0.12794 0.0
C1761 C 0.39902 0.06002 0.1986 0.0
C1762 C 0.4073 0.06217 0.23868 0.0
C1763 C 0.41628 0.0666 0.21497 0.0
C1764 C 0.40696 0.05953 0.30509 0.0
C1765 C 0.38906 0.05565 0.2222 0.0
C1766 C 0.40777 0.06725 0.34993 0.0
C1767 C 0.40776 0.06473 0.4127 0.0
C1768 C 0.40702 0.05443 0.4317 0.0
C1769 C 0.40623 0.04674 0.38645 0.0
C1770 C 0.40623 0.04926 0.32372 0.0
H1771 H 0.38267 0.05696 0.18913 0.0
H1772 H 0.38992 0.04725 0.22858 0.0
H1773 H 0.38697 0.05906 0.26753 0.0
H1774 H 0.40837 0.07522 0.3363 0.0
H1775 H 0.40822 0.07087 0.44616 0.0
H1776 H 0.17372 0.86029 0.67727 0.0
H1777 H 0.17794 0.85975 0.56699 0.0
H1778 H 0.20029 0.83612 0.60206 0.0
H1779 H 0.19594 0.83635 0.71158 0.0
H1780 H 0.19795 0.86167 0.50134 0.0
H1781 H 0.17903 0.82364 0.4781 0.0
H1782 H 0.17684 0.83197 0.54342 0.0
H1783 H 0.18845 0.82461 0.53848 0.0
C1784 C 0.17952 0.85497 0.66154 0.0
C1785 C 0.18439 0.84828 0.70328 0.0
C1786 C 0.18199 0.85476 0.59869 0.0
C1787 C 0.18935 0.84784 0.57668 0.0
C1788 C 0.19454 0.84146 0.61837 0.0
H1789 H 0.20504 0.82578 0.21331 0.0
H1790 H 0.20537 0.82996 0.32356 0.0
C1791 C 0.19207 0.84166 0.68108 0.0
C1792 C 0.19109 0.84672 0.50966 0.0
H1793 H 0.18763 0.83001 0.39047 0.0
C1794 C 0.19571 0.85476 0.47685 0.0
C1795 C 0.18811 0.83771 0.47827 0.0
C1796 C 0.18275 0.829 0.51108 0.0
C1797 C 0.19761 0.85393 0.4131 0.0
C1798 C 0.19464 0.84489 0.38178 0.0
C1799 C 0.18999 0.83689 0.4148 0.0
C1800 C 0.19595 0.84354 0.31439 0.0
C1801 C 0.20291 0.86263 0.38009 0.0
C1802 C 0.19076 0.84993 0.27265 0.0
C1803 C 0.1906 0.84757 0.20964 0.0
C1804 C 0.19551 0.83869 0.18774 0.0
C1805 C 0.20111 0.8326 0.22923 0.0
C1806 C 0.20133 0.835 0.29201 0.0
H1807 H 0.20717 0.86762 0.41284 0.0
H1808 H 0.20834 0.85969 0.3447 0.0
H1809 H 0.19708 0.86741 0.35632 0.0
H1810 H 0.18637 0.85643 0.28913 0.0
H1811 H 0.18612 0.85232 0.17874 0.0
H1812 H 0.41378 0.92086 0.009 0.0
H1813 H 0.41141 0.92236 0.89691 0.0
H1814 H 0.40587 0.95479 0.91673 0.0
H1815 H 0.40821 0.95336 0.02828 0.0
H1816 H 0.39195 0.94508 0.83852 0.0
H1817 H 0.43221 0.93517 0.77827 0.0
H1818 H 0.4256 0.92587 0.82477 0.0
H1819 H 0.42833 0.93833 0.85606 0.0
C1820 C 0.4121 0.92831 0.98935 0.0
C1821 C 0.4112 0.93699 0.02746 0.0
C1822 C 0.41076 0.92915 0.92541 0.0
C1823 C 0.40861 0.93871 0.8986 0.0
C1824 C 0.40753 0.94734 0.93661 0.0
H1825 H 0.40298 0.96698 0.54319 0.0
H1826 H 0.40305 0.96245 0.65274 0.0
C1827 C 0.40882 0.9465 0.00041 0.0
C1828 C 0.40755 0.93982 0.83086 0.0
H1829 H 0.42086 0.93821 0.69536 0.0
C1830 C 0.39825 0.94354 0.80714 0.0
C1831 C 0.41579 0.93779 0.79019 0.0
C1832 C 0.42608 0.93415 0.81343 0.0
C1833 C 0.397 0.94537 0.74369 0.0
C1834 C 0.40531 0.94354 0.70328 0.0
C1835 C 0.41452 0.93958 0.7267 0.0
C1836 C 0.40479 0.94617 0.63692 0.0
C1837 C 0.38681 0.94924 0.72039 0.0
C1838 C 0.40588 0.93852 0.59192 0.0
C1839 C 0.40582 0.94108 0.5292 0.0
C1840 C 0.40475 0.95136 0.51045 0.0
C1841 C 0.40365 0.95899 0.55592 0.0
C1842 C 0.40369 0.95641 0.61855 0.0
H1843 H 0.38054 0.94766 0.75383 0.0
H1844 H 0.38727 0.95766 0.71361 0.0
H1845 H 0.38483 0.94568 0.6753 0.0
H1846 H 0.40678 0.93057 0.60537 0.0
H1847 H 0.40653 0.93498 0.49559 0.0
H1848 H 0.31044 0.17453 0.76433 0.0
H1849 H 0.3149 0.17517 0.87421 0.0
H1850 H 0.30012 0.14598 0.90252 0.0
H1851 H 0.29593 0.14511 0.7927 0.0
H1852 H 0.30168 0.17471 0.9762 0.0
H1853 H 0.32851 0.14169 0.97931 0.0
H1854 H 0.32443 0.1478 0.90853 0.0
H1855 H 0.31616 0.13881 0.94702 0.0
C1856 C 0.30824 0.1682 0.79381 0.0
C1857 C 0.30287 0.15975 0.76959 0.0
C1858 C 0.31075 0.1686 0.85657 0.0
C1859 C 0.30798 0.16054 0.89615 0.0
C1860 C 0.30249 0.15218 0.87244 0.0
H1861 H 0.31115 0.14899 0.28833 0.0
H1862 H 0.30837 0.14833 0.1765 0.0
C1863 C 0.29998 0.15177 0.80974 0.0
C1864 C 0.31059 0.161 0.96264 0.0
H1865 H 0.3235 0.1484 0.07709 0.0
C1866 C 0.30651 0.16901 -0.00176 0.0
C1867 C 0.31689 0.15354 0.99107 0.0
C1868 C 0.32184 0.14502 0.95448 0.0
C1869 C 0.30837 0.16962 0.06201 0.0
C1870 C 0.31459 0.16211 0.09049 0.0
C1871 C 0.31873 0.15414 0.05489 0.0
C1872 C 0.31671 0.16231 0.15756 0.0
C1873 C 0.30346 0.17814 0.09879 0.0
C1874 C 0.3225 0.17028 0.18349 0.0
C1875 C 0.32407 0.1707 0.24732 0.0
C1876 C 0.31989 0.16314 0.28626 0.0
C1877 C 0.31435 0.155 0.25972 0.0
C1878 C 0.3128 0.15458 0.19588 0.0
H1879 H 0.29727 0.18203 0.07242 0.0
H1880 H 0.3002 0.17513 0.14266 0.0
H1881 H 0.30936 0.18394 0.1107 0.0
H1882 H 0.32568 0.17625 0.1544 0.0
H1883 H 0.3283 0.17711 0.26626 0.0
H1884 H 0.07746 0.07277 0.5246 0.0
H1885 H 0.07999 0.07061 0.41332 0.0
H1886 H 0.10966 0.05716 0.4469 0.0
H1887 H 0.10726 0.05938 0.55815 0.0
H1888 H 0.09596 0.07763 0.33254 0.0
H1889 H 0.09396 0.03515 0.34739 0.0
H1890 H 0.09001 0.04338 0.41009 0.0
H1891 H 0.10339 0.04101 0.39663 0.0
C1892 C 0.08459 0.06949 0.50837 0.0
C1893 C 0.09212 0.06615 0.55037 0.0
C1894 C 0.086 0.06823 0.44478 0.0
C1895 C 0.09493 0.06358 0.42215 0.0
C1896 C 0.10263 0.06059 0.46365 0.0
H1897 H 0.11318 0.04385 0.05449 0.0
H1898 H 0.11276 0.04813 0.16452 0.0
C1899 C 0.10123 0.06184 0.5272 0.0
C1900 C 0.09605 0.06156 0.35524 0.0
H1901 H 0.09787 0.04221 0.24973 0.0
C1902 C 0.09638 0.0699 0.31429 0.0
C1903 C 0.09659 0.05146 0.33184 0.0
C1904 C 0.09588 0.04222 0.37361 0.0
C1905 C 0.09734 0.06838 0.25029 0.0
C1906 C 0.09779 0.05827 0.22689 0.0
C1907 C 0.09755 0.04995 0.26794 0.0
C1908 C 0.09823 0.05609 0.15984 0.0
C1909 C 0.09799 0.07761 0.20836 0.0
C1910 C 0.09015 0.05905 0.12104 0.0
C1911 C 0.09034 0.05657 0.05827 0.0
C1912 C 0.09858 0.051 0.03321 0.0
C1913 C 0.10667 0.04803 0.07235 0.0
C1914 C 0.10648 0.05053 0.13514 0.0
H1915 H 0.10034 0.0846 0.23408 0.0
H1916 H 0.10351 0.07628 0.17014 0.0
H1917 H 0.09034 0.07907 0.18772 0.0
H1918 H 0.08359 0.06312 0.13954 0.0
H1919 H 0.08391 0.05881 0.02963 0.0
H1920 H 0.81439 0.85822 0.76434 0.0
H1921 H 0.81139 0.86051 0.65329 0.0
H1922 H 0.82289 0.83002 0.61928 0.0
H1923 H 0.82607 0.82779 0.72972 0.0
H1924 H 0.83006 0.84334 0.53548 0.0
H1925 H 0.78792 0.84802 0.55858 0.0
H1926 H 0.79524 0.85727 0.60125 0.0
H1927 H 0.7959 0.84393 0.62202 0.0
C1928 C 0.81627 0.85202 0.73305 0.0
C1929 C 0.82043 0.84282 0.75572 0.0
C1930 C 0.81452 0.85332 0.66971 0.0
C1931 C 0.81672 0.84536 0.62809 0.0
C1932 C 0.82112 0.83626 0.65053 0.0
H1933 H 0.7926 0.83312 0.26684 0.0
H1934 H 0.79657 0.83441 0.37692 0.0
C1935 C 0.82297 0.83501 0.71366 0.0
C1936 C 0.8144 0.84636 0.56119 0.0
H1937 H 0.79486 0.84988 0.45828 0.0
C1938 C 0.82237 0.84481 0.51854 0.0
C1939 C 0.80434 0.84817 0.53923 0.0
C1940 C 0.79533 0.84935 0.58255 0.0
C1941 C 0.82053 0.84484 0.45458 0.0
C1942 C 0.8105 0.84678 0.4326 0.0
C1943 C 0.80256 0.84849 0.47522 0.0
C1944 C 0.80792 0.84638 0.36579 0.0
C1945 C 0.82929 0.84239 0.4114 0.0
C1946 C 0.81285 0.8528 0.32294 0.0
C1947 C 0.81065 0.852 0.25981 0.0
C1948 C 0.80333 0.84491 0.23859 0.0
C1949 C 0.79819 0.83872 0.28181 0.0
C1950 C 0.80048 0.83944 0.34472 0.0
H1951 H 0.83571 0.83854 0.43589 0.0
H1952 H 0.82672 0.83737 0.37296 0.0
H1953 H 0.83228 0.84962 0.39123 0.0
H1954 H 0.81843 0.8584 0.33827 0.0
H1955 H 0.8146 0.85698 0.2276 0.0
H1956 H 0.9234 0.05795 0.0729 0.0
H1957 H 0.92423 0.06194 0.18334 0.0
H1958 H 0.89464 0.0479 0.21022 0.0
H1959 H 0.89363 0.04411 0.09964 0.0
H1960 H 0.89726 0.06759 0.26819 0.0
H1961 H 0.9288 0.0403 0.32143 0.0
H1962 H 0.93128 0.04905 0.25895 0.0
H1963 H 0.92136 0.03958 0.25114 0.0
C1964 C 0.91704 0.05578 0.10225 0.0
C1965 C 0.90847 0.05068 0.0776 0.0
C1966 C 0.91756 0.05799 0.16531 0.0
C1967 C 0.90954 0.05511 0.20474 0.0
C1968 C 0.90092 0.05013 0.18035 0.0
H1969 H 0.90953 0.05004 0.60038 0.0
H1970 H 0.90795 0.04759 0.48926 0.0
C1971 C 0.9004 0.04789 0.11731 0.0
C1972 C 0.91013 0.05727 0.27159 0.0
H1973 H 0.92346 0.05126 0.4023 0.0
C1974 C 0.90298 0.06404 0.29766 0.0
C1975 C 0.91755 0.05253 0.30962 0.0
C1976 C 0.92515 0.04489 0.28418 0.0
C1977 C 0.9031 0.06625 0.36114 0.0
C1978 C 0.91063 0.06163 0.39897 0.0
C1979 C 0.91775 0.05483 0.37287 0.0
C1980 C 0.91106 0.06342 0.4663 0.0
C1981 C 0.89504 0.0733 0.38748 0.0
C1982 C 0.91332 0.07317 0.49011 0.0
C1983 C 0.91415 0.07464 0.55395 0.0
C1984 C 0.91275 0.06637 0.59482 0.0
C1985 C 0.91044 0.05663 0.57051 0.0
C1986 C 0.90962 0.05518 0.5069 0.0
H1987 H 0.88854 0.07443 0.35496 0.0
H1988 H 0.89201 0.07024 0.43178 0.0
H1989 H 0.89853 0.0809 0.39692 0.0
H1990 H 0.91461 0.07959 0.4593 0.0
H1991 H 0.91591 0.08222 0.57131 0.0
H1992 H 0.66934 0.16102 0.28369 0.0
H1993 H 0.67127 0.15877 0.17168 0.0
H1994 H 0.70381 0.1544 0.19522 0.0
H1995 H 0.70197 0.15665 0.30639 0.0
H1996 H 0.68305 0.17052 0.09215 0.0
H1997 H 0.69594 0.13006 0.08755 0.0
H1998 H 0.69007 0.13579 0.15481 0.0
H1999 H 0.70343 0.13791 0.13854 0.0
C2000 C 0.67689 0.15954 0.26491 0.0
C2001 C 0.68548 0.15892 0.30399 0.0
C2002 C 0.67797 0.15822 0.20109 0.0
C2003 C 0.68764 0.15621 0.17544 0.0
C2004 C 0.69623 0.15564 0.21428 0.0
H2005 H 0.71631 0.15369 0.8193 0.0
H2006 H 0.71182 0.15379 0.92915 0.0
C2007 C 0.69515 0.15693 0.27791 0.0
C2008 C 0.68894 0.15532 0.10775 0.0
H2009 H 0.6987 0.13981 0.99517 0.0
C2010 C 0.68634 0.16376 0.07072 0.0
C2011 C 0.69325 0.14649 0.08017 0.0
C2012 C 0.69574 0.13701 0.11725 0.0
C2013 C 0.6883 0.16376 0.00697 0.0
C2014 C 0.69286 0.15503 0.97972 0.0
C2015 C 0.69525 0.1465 0.01647 0.0
C2016 C 0.69547 0.15471 0.91332 0.0
C2017 C 0.68584 0.17322 0.96966 0.0
C2018 C 0.68774 0.15504 0.86835 0.0
C2019 C 0.69028 0.15494 0.80564 0.0
C2020 C 0.7006 0.15448 0.78688 0.0
C2021 C 0.7083 0.15397 0.83224 0.0
C2022 C 0.70575 0.15407 0.89493 0.0
H2023 H 0.68436 0.17998 -0.0004 0.0
H2024 H 0.69221 0.17508 0.93754 0.0
H2025 H 0.67887 0.17179 0.94154 0.0
H2026 H 0.67975 0.15533 0.88178 0.0
H2027 H 0.68414 0.15509 0.77202 0.0
H2028 H 0.57613 0.93047 0.04875 0.0
H2029 H 0.57745 0.93324 0.9372 0.0
H2030 H 0.60607 0.94917 0.96342 0.0
H2031 H 0.605 0.94617 0.07471 0.0
H2032 H 0.57864 0.95277 0.87902 0.0
H2033 H 0.61242 0.92847 0.82433 0.0
H2034 H 0.60517 0.92708 0.89501 0.0
H2035 H 0.61426 0.93734 0.8869 0.0
C2036 C 0.58282 0.93436 0.03077 0.0
C2037 C 0.59047 0.93808 0.07079 0.0
C2038 C 0.58351 0.93601 0.96705 0.0
C2039 C 0.5919 0.94132 0.94214 0.0
C2040 C 0.59962 0.94491 0.98168 0.0
H2041 H 0.60901 0.96246 0.57717 0.0
H2042 H 0.60791 0.95874 0.68768 0.0
C2043 C 0.59893 0.94328 0.04537 0.0
C2044 C 0.59232 0.94355 0.87512 0.0
H2045 H 0.60644 0.93945 0.74462 0.0
C2046 C 0.58467 0.94981 0.84945 0.0
C2047 C 0.60024 0.93972 0.83699 0.0
C2048 C 0.60846 0.93271 0.86192 0.0
C2049 C 0.58483 0.95249 0.78663 0.0
C2050 C 0.59275 0.94865 0.74842 0.0
C2051 C 0.60039 0.94238 0.77412 0.0
C2052 C 0.59325 0.95106 0.6816 0.0
C2053 C 0.57668 0.95961 0.76203 0.0
C2054 C 0.5854 0.94791 0.64157 0.0
C2055 C 0.58596 0.95009 0.57841 0.0
C2056 C 0.59443 0.95541 0.55403 0.0
C2057 C 0.60231 0.9585 0.59439 0.0
C2058 C 0.60173 0.95631 0.65753 0.0
H2059 H 0.57281 0.9639 0.7998 0.0
H2060 H 0.57999 0.96521 0.72887 0.0
H2061 H 0.57078 0.95506 0.73732 0.0
H2062 H 0.57886 0.9437 0.6591 0.0
H2063 H 0.57974 0.94767 0.54873 0.0
H2064 H 0.8111 0.14649 0.18714 0.0
H2065 H 0.80822 0.14518 0.29859 0.0
H2066 H 0.8235 0.17415 0.32562 0.0
H2067 H 0.82616 0.17566 0.21406 0.0
H2068 H 0.82255 0.14555 0.3987 0.0
H2069 H 0.79503 0.17806 0.40672 0.0
H2070 H 0.79867 0.17186 0.33541 0.0
H2071 H 0.80716 0.18091 0.37132 0.0
C2072 C 0.81382 0.1526 0.21672 0.0
C2073 C 0.81877 0.16123 0.1916 0.0
C2074 C 0.81222 0.15181 0.28038 0.0
C2075 C 0.81551 0.15965 0.32002 0.0
C2076 C 0.82077 0.1681 0.29552 0.0
H2077 H 0.80973 0.1707 0.71292 0.0
H2078 H 0.81382 0.17141 0.60267 0.0
C2079 C 0.82238 0.16889 0.23184 0.0
C2080 C 0.81326 0.15905 0.3869 0.0
H2081 H 0.79993 0.17083 0.50261 0.0
C2082 C 0.81759 0.15105 0.42152 0.0
C2083 C 0.80676 0.16623 0.41622 0.0
C2084 C 0.80155 0.17471 0.38056 0.0
C2085 C 0.81574 0.15016 0.48522 0.0
C2086 C 0.80925 0.15735 0.51454 0.0
C2087 C 0.80492 0.16534 0.47987 0.0
C2088 C 0.80689 0.15677 0.5813 0.0
C2089 C 0.82088 0.14164 0.52084 0.0
C2090 C 0.80153 0.14836 0.60552 0.0
C2091 C 0.79921 0.14791 0.66855 0.0
C2092 C 0.8022 0.1559 0.70839 0.0
C2093 C 0.80747 0.16436 0.68367 0.0
C2094 C 0.80976 0.16481 0.62068 0.0
H2095 H 0.82746 0.13834 0.49499 0.0
H2096 H 0.82365 0.14443 0.56639 0.0
H2097 H 0.81526 0.13541 0.52924 0.0
H2098 H 0.79909 0.14217 0.57559 0.0
H2099 H 0.79521 0.14126 0.68608 0.0
H2100 H 0.58091 0.0551 0.44634 0.0
H2101 H 0.57973 0.05868 0.33551 0.0
H2102 H 0.60954 0.0452 0.30775 0.0
H2103 H 0.61087 0.04172 0.41835 0.0
H2104 H 0.59354 0.07076 0.26399 0.0
H2105 H 0.59125 0.03063 0.17901 0.0
H2106 H 0.58891 0.03403 0.25873 0.0
H2107 H 0.6018 0.03319 0.23007 0.0
C2108 C 0.58723 0.05292 0.41674 0.0
C2109 C 0.59598 0.04811 0.44139 0.0
C2110 C 0.58652 0.05493 0.35342 0.0
C2111 C 0.59449 0.05209 0.31348 0.0
C2112 C 0.60322 0.04726 0.33771 0.0
H2113 H 0.60619 0.05775 0.92162 0.0
H2114 H 0.60714 0.05468 0.03289 0.0
C2115 C 0.60395 0.04527 0.40101 0.0
C2116 C 0.59386 0.05451 0.24677 0.0
H2117 H 0.59345 0.04362 0.1034 0.0
C2118 C 0.59347 0.06484 0.22878 0.0
C2119 C 0.5938 0.04675 0.20116 0.0
C2120 C 0.59387 0.03552 0.218 0.0
C2121 C 0.59324 0.06763 0.16612 0.0
C2122 C 0.59319 0.05987 0.12048 0.0
C2123 C 0.59353 0.04954 0.13855 0.0
C2124 C 0.59279 0.06225 0.05358 0.0
C2125 C 0.59331 0.07886 0.14935 0.0
C2126 C 0.58441 0.06753 0.02834 0.0
C2127 C 0.58383 0.06929 0.96467 0.0
C2128 C 0.59159 0.0657 0.92503 0.0
C2129 C 0.60003 0.06052 0.95071 0.0
C2130 C 0.60061 0.05879 0.01431 0.0
H2131 H 0.59611 0.08368 0.18819 0.0
H2132 H 0.5982 0.0803 0.10824 0.0
H2133 H 0.58539 0.08133 0.13813 0.0
H2134 H 0.57817 0.07007 0.05767 0.0
H2135 H 0.57714 0.07313 0.94634 0.0
H2136 H 0.66376 0.83988 0.72914 0.0
H2137 H 0.66545 0.8421 0.84125 0.0
H2138 H 0.6979 0.84735 0.81974 0.0
H2139 H 0.6963 0.84509 0.70843 0.0
H2140 H 0.67761 0.83046 0.92059 0.0
H2141 H 0.68901 0.87136 0.9283 0.0
H2142 H 0.68331 0.86556 0.86072 0.0
H2143 H 0.69674 0.86387 0.87661 0.0
C2144 C 0.67123 0.84154 0.74835 0.0
C2145 C 0.67987 0.84238 0.70981 0.0
C2146 C 0.67218 0.84285 0.81225 0.0
C2147 C 0.68176 0.84508 0.83849 0.0
C2148 C 0.69038 0.84592 0.80019 0.0
H2149 H 0.71039 0.84816 0.19376 0.0
H2150 H 0.70577 0.84802 0.08409 0.0
C2151 C 0.68945 0.84462 0.73648 0.0
C2152 C 0.68294 0.8459 0.90624 0.0
H2153 H 0.69207 0.86154 0.02005 0.0
C2154 C 0.68063 0.83729 0.94259 0.0
C2155 C 0.6869 0.85483 0.93453 0.0
C2156 C 0.68904 0.86447 0.89811 0.0
C2157 C 0.68259 0.83723 0.00634 0.0
C2158 C 0.68682 0.84607 0.03428 0.0
C2159 C 0.68888 0.85477 -0.00177 0.0
C2160 C 0.6895 0.84632 0.10058 0.0
C2161 C 0.68049 0.8276 0.04288 0.0
C2162 C 0.68186 0.84554 0.14586 0.0
C2163 C 0.68447 0.84564 0.20845 0.0
C2164 C 0.69478 0.84658 0.22675 0.0
C2165 C 0.70239 0.8475 0.18111 0.0
C2166 C 0.69977 0.84739 0.11855 0.0
H2167 H 0.67926 0.82086 0.0124 0.0
H2168 H 0.68694 0.82591 0.07484 0.0
H2169 H 0.67348 0.82871 0.07111 0.0
H2170 H 0.67386 0.84491 0.13277 0.0
H2171 H 0.6784 0.84515 0.24236 0.0
H2172 H 0.88835 0.95444 0.98673 0.0
H2173 H 0.88859 0.95014 0.87678 0.0
H2174 H 0.91754 0.93468 0.90074 0.0
H2175 H 0.9174 0.93901 0.01073 0.0
H2176 H 0.90354 0.95588 0.79141 0.0
H2177 H 0.90029 0.91353 0.80647 0.0
H2178 H 0.8973 0.92188 0.8706 0.0
H2179 H 0.91041 0.91888 0.85256 0.0
C2180 C 0.89478 0.95015 0.96867 0.0
C2181 C 0.90286 0.94707 0.0075 0.0
C2182 C 0.89486 0.94764 0.90593 0.0
C2183 C 0.903 0.94196 0.88097 0.0
C2184 C 0.91107 0.93886 0.91948 0.0
H2185 H 0.92284 0.92485 0.51559 0.0
H2186 H 0.9205 0.9271 0.62686 0.0
C2187 C 0.91099 0.94135 0.98225 0.0
C2188 C 0.90333 0.93981 0.81391 0.0
H2189 H 0.90455 0.92047 0.70786 0.0
C2190 C 0.90367 0.94814 0.77303 0.0
C2191 C 0.90353 0.9297 0.79035 0.0
C2192 C 0.90277 0.92047 0.83218 0.0
C2193 C 0.90448 0.94665 0.70905 0.0
C2194 C 0.90475 0.93655 0.68546 0.0
C2195 C 0.90433 0.9282 0.72628 0.0
C2196 C 0.90575 0.93454 0.61852 0.0
C2197 C 0.90532 0.9559 0.66743 0.0
C2198 C 0.89809 0.93774 0.5773 0.0
C2199 C 0.89939 0.93644 0.51372 0.0
C2200 C 0.90834 0.93186 0.49029 0.0
C2201 C 0.91582 0.92832 0.53203 0.0
C2202 C 0.91452 0.92964 0.59561 0.0
H2203 H 0.90744 0.96291 0.6937 0.0
H2204 H 0.91111 0.95464 0.63058 0.0
H2205 H 0.89781 0.9573 0.64486 0.0
H2206 H 0.89117 0.94136 0.59431 0.0
H2207 H 0.8934 0.93906 0.48294 0.0
H2208 H 0.70937 0.65342 0.2145 0.0
H2209 H 0.7046 0.65358 0.10517 0.0
H2210 H 0.67286 0.65755 0.15516 0.0
H2211 H 0.67752 0.65726 0.26462 0.0
H2212 H 0.69019 0.64048 0.04092 0.0
H2213 H 0.67923 0.68173 0.03592 0.0
H2214 H 0.68684 0.67629 0.09745 0.0
H2215 H 0.67329 0.67398 0.09461 0.0
C2216 C 0.70137 0.65423 0.20231 0.0
C2217 C 0.69385 0.65541 0.24834 0.0
C2218 C 0.69866 0.65436 0.13988 0.0
C2219 C 0.68841 0.6557 0.12233 0.0
C2220 C 0.68084 0.65669 0.16794 0.0
H2221 H 0.66385 0.66479 0.74978 0.0
H2222 H 0.66508 0.66202 0.86163 0.0
C2223 C 0.68354 0.65656 0.23045 0.0
C2224 C 0.68571 0.65616 0.05608 0.0
H2225 H 0.67752 0.67248 0.94312 0.0
C2226 C 0.68737 0.64745 0.01946 0.0
C2227 C 0.68196 0.66525 0.02862 0.0
C2228 C 0.68028 0.67489 0.06587 0.0
C2229 C 0.6855 0.64762 0.95562 0.0
C2230 C 0.68209 0.65682 0.92775 0.0
C2231 C 0.68014 0.66544 0.96472 0.0
C2232 C 0.68114 0.65789 0.85992 0.0
C2233 C 0.68719 0.63797 0.91863 0.0
C2234 C 0.68978 0.65656 0.8222 0.0
C2235 C 0.68911 0.65816 0.75858 0.0
C2236 C 0.6798 0.66122 0.73144 0.0
C2237 C 0.67114 0.66252 0.76937 0.0
C2238 C 0.67181 0.66089 0.83313 0.0
H2239 H 0.68661 0.63102 0.94821 0.0
H2240 H 0.68156 0.63731 0.88033 0.0
H2241 H 0.69501 0.63813 0.89836 0.0
H2242 H 0.69712 0.65454 0.84217 0.0
H2243 H 0.69598 0.65731 0.731 0.0
H2244 H 0.59782 0.44609 0.97851 0.0
H2245 H 0.60029 0.44863 0.08901 0.0
H2246 H 0.59249 0.417 0.12259 0.0
H2247 H 0.59032 0.41426 0.01131 0.0
H2248 H 0.58486 0.44588 0.17622 0.0
H2249 H 0.61845 0.42112 0.22767 0.0
H2250 H 0.61521 0.42513 0.15013 0.0
H2251 H 0.60822 0.41491 0.18654 0.0
C2252 C 0.59688 0.43958 0.00896 0.0
C2253 C 0.59391 0.42994 0.98588 0.0
C2254 C 0.59823 0.44108 0.07227 0.0
C2255 C 0.59668 0.43298 0.11381 0.0
C2256 C 0.59389 0.4233 0.09111 0.0
H2257 H 0.59241 0.42937 0.51201 0.0
H2258 H 0.5934 0.42577 0.40132 0.0
C2259 C 0.59254 0.42178 0.02763 0.0
C2260 C 0.59719 0.43494 0.18106 0.0
H2261 H 0.60964 0.42821 0.31385 0.0
C2262 C 0.59032 0.44207 0.2063 0.0
C2263 C 0.60428 0.42989 0.22001 0.0
C2264 C 0.61203 0.42239 0.19482 0.0
C2265 C 0.59025 0.44422 0.26975 0.0
C2266 C 0.59737 0.43922 0.30873 0.0
C2267 C 0.60423 0.43205 0.28362 0.0
C2268 C 0.59765 0.44124 0.37593 0.0
C2269 C 0.5824 0.45164 0.29474 0.0
C2270 C 0.59997 0.45106 0.39825 0.0
C2271 C 0.59943 0.45314 0.46149 0.0
C2272 C 0.59662 0.44541 0.50352 0.0
C2273 C 0.59468 0.43547 0.48107 0.0
C2274 C 0.59521 0.43341 0.4178 0.0
H2275 H 0.57601 0.45289 0.26161 0.0
H2276 H 0.57915 0.44884 0.33913 0.0
H2277 H 0.58612 0.45914 0.30344 0.0
H2278 H 0.60207 0.45715 0.36663 0.0
H2279 H 0.60115 0.46081 0.47747 0.0
H2280 H 0.81002 0.33055 0.70745 0.0
H2281 H 0.81404 0.32993 0.59699 0.0
H2282 H 0.80017 0.35964 0.57206 0.0
H2283 H 0.79634 0.36044 0.68265 0.0
H2284 H 0.79984 0.33129 0.49699 0.0
H2285 H 0.8288 0.36256 0.49146 0.0
H2286 H 0.82489 0.35636 0.56233 0.0
H2287 H 0.81678 0.36582 0.52699 0.0
C2288 C 0.80793 0.337 0.67858 0.0
C2289 C 0.8029 0.34556 0.70388 0.0
C2290 C 0.81018 0.33661 0.61552 0.0
C2291 C 0.80752 0.34479 0.57671 0.0
C2292 C 0.80242 0.35331 0.60155 0.0
H2293 H 0.81193 0.35526 0.18221 0.0
H2294 H 0.80896 0.35663 0.29361 0.0
C2295 C 0.80014 0.35371 0.66461 0.0
C2296 C 0.80981 0.34427 0.50988 0.0
H2297 H 0.82362 0.35569 0.39483 0.0
C2298 C 0.80508 0.33659 0.47462 0.0
C2299 C 0.81661 0.35123 0.48106 0.0
C2300 C 0.82214 0.35941 0.51734 0.0
C2301 C 0.80685 0.33576 0.41088 0.0
C2302 C 0.8137 0.34268 0.38213 0.0
C2303 C 0.81841 0.35039 0.41728 0.0
C2304 C 0.81598 0.34205 0.31535 0.0
C2305 C 0.80124 0.32764 0.37448 0.0
C2306 C 0.82111 0.3335 0.29114 0.0
C2307 C 0.82279 0.33268 0.22755 0.0
C2308 C 0.81937 0.3404 0.18714 0.0
C2309 C 0.81452 0.34911 0.21198 0.0
C2310 C 0.81286 0.34994 0.27557 0.0
H2311 H 0.79467 0.32442 0.40071 0.0
H2312 H 0.79837 0.33081 0.33007 0.0
H2313 H 0.8066 0.32128 0.36367 0.0
H2314 H 0.82368 0.3274 0.32138 0.0
H2315 H 0.82648 0.32585 0.20995 0.0
H2316 H 0.90708 0.53541 0.91781 0.0
H2317 H 0.90728 0.53975 0.80767 0.0
H2318 H 0.90911 0.57187 0.85358 0.0
H2319 H 0.90883 0.56761 0.96353 0.0
H2320 H 0.8934 0.55251 0.74194 0.0
H2321 H 0.93332 0.56742 0.73416 0.0
H2322 H 0.92858 0.55975 0.7975 0.0
H2323 H 0.92521 0.57307 0.79203 0.0
C2324 C 0.90749 0.54339 0.9044 0.0
C2325 C 0.90803 0.55115 0.94935 0.0
C2326 C 0.90764 0.54586 0.8416 0.0
C2327 C 0.90836 0.55611 0.82273 0.0
C2328 C 0.90877 0.56389 0.86735 0.0
H2329 H 0.9131 0.5828 0.45345 0.0
H2330 H 0.91127 0.58056 0.56556 0.0
C2331 C 0.90864 0.56143 0.93016 0.0
C2332 C 0.90853 0.55866 0.75622 0.0
H2333 H 0.92355 0.56886 0.64267 0.0
C2334 C 0.89997 0.55609 0.72014 0.0
C2335 C 0.91711 0.56339 0.72828 0.0
C2336 C 0.92663 0.56601 0.76473 0.0
C2337 C 0.89977 0.55812 0.6565 0.0
C2338 C 0.90843 0.56266 0.62829 0.0
C2339 C 0.91691 0.5654 0.66461 0.0
C2340 C 0.90909 0.56413 0.56067 0.0
C2341 C 0.89026 0.55543 0.62016 0.0
C2342 C 0.90857 0.55563 0.5212 0.0
C2343 C 0.90961 0.55688 0.45753 0.0
C2344 C 0.91128 0.56667 0.43209 0.0
C2345 C 0.91185 0.57518 0.47179 0.0
C2346 C 0.91077 0.57391 0.53565 0.0
H2347 H 0.8834 0.55499 0.65047 0.0
H2348 H 0.88879 0.56113 0.58307 0.0
H2349 H 0.89132 0.54781 0.59829 0.0
H2350 H 0.90758 0.54798 0.53974 0.0
H2351 H 0.90939 0.55013 0.4285 0.0
H2352 H 0.69234 0.33075 0.77445 0.0
H2353 H 0.6881 0.33014 0.88453 0.0
H2354 H 0.70333 0.35912 0.91212 0.0
H2355 H 0.70741 0.3599 0.80175 0.0
H2356 H 0.70277 0.3306 0.9825 0.0
H2357 H 0.6748 0.36267 0.99583 0.0
H2358 H 0.67817 0.35651 0.92384 0.0
H2359 H 0.68673 0.36564 0.95831 0.0
C2360 C 0.69465 0.33707 0.80378 0.0
C2361 C 0.70019 0.34539 0.77948 0.0
C2362 C 0.69227 0.33668 0.86657 0.0
C2363 C 0.69531 0.34464 0.90598 0.0
C2364 C 0.7008 0.35298 0.88204 0.0
H2365 H 0.70214 0.34329 0.30133 0.0
H2366 H 0.70432 0.34509 0.19 0.0
C2367 C 0.70322 0.35336 0.81921 0.0
C2368 C 0.69319 0.34394 0.97278 0.0
H2369 H 0.68032 0.35548 0.09115 0.0
C2370 C 0.69783 0.336 0.00631 0.0
C2371 C 0.68667 0.35096 0.0032 0.0
C2372 C 0.68122 0.35939 0.96853 0.0
C2373 C 0.69628 0.33501 0.07008 0.0
C2374 C 0.69001 0.34221 0.10088 0.0
C2375 C 0.68518 0.35003 0.06718 0.0
C2376 C 0.68847 0.34177 0.16832 0.0
C2377 C 0.70132 0.32623 0.10394 0.0
C2378 C 0.67876 0.33961 0.19283 0.0
C2379 C 0.67745 0.33867 0.25669 0.0
C2380 C 0.68583 0.33995 0.29684 0.0
C2381 C 0.69549 0.34238 0.27191 0.0
C2382 C 0.69679 0.34331 0.20822 0.0
H2383 H 0.70379 0.32007 0.07177 0.0
H2384 H 0.70822 0.3291 0.12852 0.0
H2385 H 0.69604 0.32289 0.13882 0.0
H2386 H 0.67225 0.33846 0.16248 0.0
H2387 H 0.66991 0.33691 0.27463 0.0
H2388 H 0.90526 0.4666 0.07279 0.0
H2389 H 0.90553 0.46222 0.1828 0.0
H2390 H 0.90748 0.43013 0.13652 0.0
H2391 H 0.9071 0.43442 0.02659 0.0
H2392 H 0.89188 0.44915 0.24993 0.0
H2393 H 0.93211 0.43501 0.25318 0.0
H2394 H 0.92706 0.44269 0.1907 0.0
H2395 H 0.92389 0.42932 0.19601 0.0
C2396 C 0.90567 0.45862 0.08603 0.0
C2397 C 0.90626 0.45088 0.04095 0.0
C2398 C 0.90587 0.45613 0.1488 0.0
C2399 C 0.90668 0.44587 0.16753 0.0
C2400 C 0.90707 0.43811 0.12282 0.0
H2401 H 0.9134 0.41981 0.53749 0.0
H2402 H 0.91112 0.42181 0.42553 0.0
C2403 C 0.90688 0.44058 0.06003 0.0
C2404 C 0.90709 0.44333 0.234 0.0
H2405 H 0.92274 0.43363 0.34604 0.0
C2406 C 0.8986 0.44574 0.27105 0.0
C2407 C 0.91587 0.43883 0.26103 0.0
C2408 C 0.9253 0.43637 0.22344 0.0
C2409 C 0.89867 0.44379 0.3348 0.0
C2410 C 0.90754 0.4395 0.36211 0.0
C2411 C 0.91595 0.4369 0.32482 0.0
C2412 C 0.90849 0.43817 0.42974 0.0
C2413 C 0.88923 0.44629 0.37221 0.0
C2414 C 0.90789 0.44673 0.46879 0.0
C2415 C 0.90918 0.4456 0.5324 0.0
C2416 C 0.9112 0.43591 0.55818 0.0
C2417 C 0.91189 0.42736 0.51889 0.0
C2418 C 0.91055 0.42849 0.45511 0.0
H2419 H 0.88225 0.44648 0.34277 0.0
H2420 H 0.88805 0.44062 0.40985 0.0
H2421 H 0.89016 0.45398 0.39341 0.0
H2422 H 0.90661 0.45431 0.44995 0.0
H2423 H 0.90886 0.45239 0.56112 0.0
H2424 H 0.79302 0.67003 0.27535 0.0
H2425 H 0.79706 0.66933 0.38565 0.0
H2426 H 0.8194 0.64565 0.35062 0.0
H2427 H 0.81553 0.64651 0.23987 0.0
H2428 H 0.79565 0.65433 0.46938 0.0
H2429 H 0.83633 0.66606 0.44548 0.0
H2430 H 0.82735 0.66682 0.38229 0.0
H2431 H 0.83318 0.65476 0.40219 0.0
C2432 C 0.79874 0.66463 0.29122 0.0
C2433 C 0.80401 0.65837 0.249 0.0
C2434 C 0.80107 0.66426 0.35422 0.0
C2435 C 0.80867 0.65758 0.37631 0.0
C2436 C 0.81372 0.65107 0.33447 0.0
H2437 H 0.8154 0.64515 0.77282 0.0
H2438 H 0.8123 0.64336 0.66158 0.0
C2439 C 0.81147 0.65154 0.2713 0.0
C2440 C 0.81126 0.65747 0.44315 0.0
H2441 H 0.83091 0.66096 0.54538 0.0
C2442 C 0.80336 0.65577 0.48604 0.0
C2443 C 0.8213 0.65948 0.46481 0.0
C2444 C 0.83001 0.66199 0.42137 0.0
C2445 C 0.8052 0.65609 0.54997 0.0
C2446 C 0.81529 0.65786 0.57161 0.0
C2447 C 0.8232 0.6595 0.52871 0.0
C2448 C 0.81772 0.65858 0.63853 0.0
C2449 C 0.79624 0.6549 0.59355 0.0
C2450 C 0.82222 0.66754 0.66219 0.0
C2451 C 0.82415 0.6685 0.72545 0.0
C2452 C 0.82156 0.66054 0.76637 0.0
C2453 C 0.81732 0.65146 0.74242 0.0
C2454 C 0.8155 0.65046 0.67898 0.0
H2455 H 0.78882 0.65641 0.57001 0.0
H2456 H 0.79605 0.64692 0.61127 0.0
H2457 H 0.79692 0.66018 0.63362 0.0
H2458 H 0.82402 0.6739 0.63184 0.0
H2459 H 0.82733 0.67561 0.74257 0.0
H2460 H 0.59958 0.57213 0.49251 0.0
H2461 H 0.60005 0.57646 0.60294 0.0
H2462 H 0.59066 0.5456 0.6478 0.0
H2463 H 0.59075 0.54119 0.53788 0.0
H2464 H 0.58619 0.5773 0.68634 0.0
H2465 H 0.61393 0.54809 0.76322 0.0
H2466 H 0.61159 0.55061 0.68249 0.0
H2467 H 0.60337 0.54202 0.72517 0.0
C2468 C 0.59769 0.5663 0.52626 0.0
C2469 C 0.59522 0.55631 0.50715 0.0
C2470 C 0.59797 0.56875 0.58921 0.0
C2471 C 0.59564 0.56129 0.63402 0.0
C2472 C 0.59288 0.55139 0.61454 0.0
H2473 H 0.57243 0.5723 -5e-05 0.0
H2474 H 0.57528 0.57053 0.8888 0.0
C2475 C 0.59285 0.54888 0.55179 0.0
C2476 C 0.59562 0.56394 0.70089 0.0
H2477 H 0.60309 0.55522 0.84268 0.0
C2478 C 0.59002 0.57255 0.72042 0.0
C2479 C 0.60082 0.55793 0.74556 0.0
C2480 C 0.60785 0.54923 0.72787 0.0
C2481 C 0.58912 0.57505 0.78332 0.0
C2482 C 0.59355 0.5685 0.82823 0.0
C2483 C 0.59952 0.56015 0.80855 0.0
C2484 C 0.59185 0.56993 0.89569 0.0
C2485 C 0.58351 0.58476 0.80059 0.0
C2486 C 0.60015 0.56976 0.93715 0.0
C2487 C 0.59848 0.57046 0.00089 0.0
C2488 C 0.5885 0.57149 0.02422 0.0
C2489 C 0.58021 0.57173 0.98288 0.0
C2490 C 0.58185 0.5708 0.91933 0.0
H2491 H 0.58409 0.59058 0.76323 0.0
H2492 H 0.57525 0.58301 0.8071 0.0
H2493 H 0.58656 0.58814 0.84395 0.0
H2494 H 0.60793 0.56903 0.92022 0.0
H2495 H 0.60498 0.57025 0.03204 0.0
H2496 H 0.29386 0.3277 0.81028 0.0
H2497 H 0.29359 0.33286 0.91775 0.0
H2498 H 0.30152 0.36377 0.86515 0.0
H2499 H 0.30261 0.35841 0.75702 0.0
H2500 H 0.31317 0.35855 0.95256 0.0
H2501 H 0.27471 0.3472 0.02878 0.0
H2502 H 0.28058 0.33624 0.99404 0.0
H2503 H 0.27812 0.34753 0.94793 0.0
C2504 C 0.29553 0.33561 0.82116 0.0
C2505 C 0.29845 0.34257 0.77459 0.0
C2506 C 0.29516 0.33863 0.883 0.0
C2507 C 0.29735 0.34877 0.90006 0.0
C2508 C 0.29974 0.3559 0.85336 0.0
H2509 H 0.29648 0.35739 0.30524 0.0
H2510 H 0.29179 0.35922 0.19581 0.0
C2511 C 0.30029 0.35283 0.79128 0.0
C2512 C 0.29841 0.35147 0.96678 0.0
H2513 H 0.28808 0.34656 0.10888 0.0
C2514 C 0.30755 0.35613 0.98652 0.0
C2515 C 0.29102 0.34863 0.0117 0.0
C2516 C 0.28052 0.34474 0.99423 0.0
C2517 C 0.30982 0.35731 0.04957 0.0
C2518 C 0.303 0.35328 0.09438 0.0
C2519 C 0.2935 0.34936 0.0748 0.0
C2520 C 0.30584 0.35248 0.16096 0.0
C2521 C 0.31958 0.36281 0.06712 0.0
C2522 C 0.31517 0.3479 0.17815 0.0
C2523 C 0.31791 0.34704 0.24034 0.0
C2524 C 0.31124 0.35044 0.28696 0.0
C2525 C 0.30175 0.35472 0.27012 0.0
C2526 C 0.29909 0.35578 0.20765 0.0
H2527 H 0.32156 0.36874 0.03222 0.0
H2528 H 0.31893 0.36657 0.11302 0.0
H2529 H 0.326 0.35724 0.06842 0.0
H2530 H 0.32032 0.34487 0.14344 0.0
H2531 H 0.32515 0.3435 0.2521 0.0
H2532 H 0.42022 0.55722 0.55575 0.0
H2533 H 0.42097 0.56096 0.66656 0.0
H2534 H 0.39168 0.54624 0.69214 0.0
H2535 H 0.39082 0.54256 0.58162 0.0
H2536 H 0.40683 0.57241 0.7376 0.0
H2537 H 0.41003 0.53229 0.82183 0.0
H2538 H 0.41235 0.5358 0.74224 0.0
H2539 H 0.39945 0.53459 0.7705 0.0
C2540 C 0.41393 0.55481 0.5849 0.0
C2541 C 0.40549 0.54955 0.55974 0.0
C2542 C 0.41439 0.55691 0.6482 0.0
C2543 C 0.40645 0.55375 0.68757 0.0
C2544 C 0.39799 0.54855 0.66271 0.0
H2545 H 0.39478 0.55901 0.08065 0.0
H2546 H 0.39359 0.55607 0.96928 0.0
C2547 C 0.39752 0.54644 0.59945 0.0
C2548 C 0.40688 0.55614 0.75441 0.0
H2549 H 0.40742 0.54515 0.8976 0.0
C2550 C 0.40701 0.56646 0.77266 0.0
C2551 C 0.40707 0.54835 0.79987 0.0
C2552 C 0.40731 0.53713 0.78283 0.0
C2553 C 0.40715 0.56921 0.83539 0.0
C2554 C 0.40736 0.56142 0.88085 0.0
C2555 C 0.40723 0.5511 0.86257 0.0
C2556 C 0.40783 0.56378 0.94775 0.0
C2557 C 0.40685 0.58043 0.85243 0.0
C2558 C 0.41623 0.5691 0.97251 0.0
C2559 C 0.41694 0.57078 0.03618 0.0
C2560 C 0.40931 0.56707 0.07634 0.0
C2561 C 0.40084 0.56187 0.05115 0.0
C2562 C 0.40013 0.56021 0.98751 0.0
H2563 H 0.40393 0.58522 0.81376 0.0
H2564 H 0.40195 0.58173 0.89368 0.0
H2565 H 0.41473 0.58305 0.86356 0.0
H2566 H 0.42237 0.57172 0.94277 0.0
H2567 H 0.42365 0.57465 0.05406 0.0
H2568 H 0.16748 0.67204 0.68647 0.0
H2569 H 0.17069 0.67014 0.57607 0.0
H2570 H 0.18802 0.64259 0.61114 0.0
H2571 H 0.18491 0.64453 0.7223 0.0
H2572 H 0.19806 0.65516 0.53444 0.0
H2573 H 0.15821 0.65096 0.45153 0.0
H2574 H 0.15974 0.66233 0.49721 0.0
H2575 H 0.16158 0.64993 0.53226 0.0
C2576 C 0.1718 0.66546 0.67072 0.0
C2577 C 0.17588 0.65839 0.71318 0.0
C2578 C 0.17361 0.66437 0.60746 0.0
C2579 C 0.17942 0.65611 0.58513 0.0
C2580 C 0.18346 0.64899 0.62731 0.0
H2581 H 0.18384 0.64661 0.18482 0.0
H2582 H 0.18064 0.64397 0.29529 0.0
C2583 C 0.18171 0.65012 0.69077 0.0
C2584 C 0.18177 0.65531 0.51817 0.0
H2585 H 0.1707 0.65587 0.37518 0.0
C2586 C 0.19208 0.65518 0.4996 0.0
C2587 C 0.17397 0.65514 0.47268 0.0
C2588 C 0.16276 0.65448 0.48945 0.0
C2589 C 0.1948 0.65534 0.43681 0.0
C2590 C 0.187 0.65592 0.39144 0.0
C2591 C 0.17669 0.65558 0.40995 0.0
C2592 C 0.18934 0.65723 0.32473 0.0
C2593 C 0.20601 0.65486 0.41987 0.0
C2594 C 0.19521 0.66561 0.3045 0.0
C2595 C 0.19709 0.66709 0.24154 0.0
C2596 C 0.19298 0.66033 0.19743 0.0
C2597 C 0.18704 0.65199 0.21771 0.0
C2598 C 0.18524 0.65045 0.28078 0.0
H2599 H 0.21057 0.65104 0.45664 0.0
H2600 H 0.20721 0.65069 0.37571 0.0
H2601 H 0.20901 0.66277 0.41453 0.0
H2602 H 0.19819 0.67112 0.33732 0.0
H2603 H 0.20153 0.67369 0.22728 0.0
H2604 H 0.09523 0.43287 0.04465 0.0
H2605 H 0.0951 0.42836 0.15427 0.0
H2606 H 0.09724 0.46035 0.20266 0.0
H2607 H 0.09725 0.46496 0.09294 0.0
H2608 H 0.1112 0.44706 0.26662 0.0
H2609 H 0.07092 0.43307 0.27502 0.0
H2610 H 0.07889 0.42753 0.21605 0.0
H2611 H 0.07571 0.44091 0.21255 0.0
C2612 C 0.09552 0.43897 0.07848 0.0
C2613 C 0.09616 0.4493 0.06006 0.0
C2614 C 0.09548 0.43637 0.14111 0.0
C2615 C 0.09603 0.44404 0.18633 0.0
C2616 C 0.09679 0.45433 0.16825 0.0
H2617 H 0.09504 0.4505 0.57906 0.0
H2618 H 0.09714 0.45227 0.46776 0.0
C2619 C 0.09684 0.45694 0.10565 0.0
C2620 C 0.09589 0.44136 0.25266 0.0
H2621 H 0.08064 0.43163 0.36654 0.0
C2622 C 0.10454 0.44365 0.28854 0.0
C2623 C 0.0872 0.43686 0.28074 0.0
C2624 C 0.07761 0.4345 0.24439 0.0
C2625 C 0.10472 0.44163 0.3522 0.0
C2626 C 0.09593 0.43738 0.38064 0.0
C2627 C 0.08736 0.43486 0.34446 0.0
C2628 C 0.0952 0.43611 0.4484 0.0
C2629 C 0.11432 0.44402 0.38835 0.0
C2630 C 0.09321 0.42645 0.47435 0.0
C2631 C 0.09198 0.42541 0.53827 0.0
C2632 C 0.09269 0.43402 0.57715 0.0
C2633 C 0.0947 0.44367 0.55077 0.0
C2634 C 0.0959 0.44471 0.48705 0.0
H2635 H 0.12119 0.44417 0.35796 0.0
H2636 H 0.11354 0.45171 0.40985 0.0
H2637 H 0.11559 0.43832 0.42571 0.0
H2638 H 0.09257 0.41974 0.44511 0.0
H2639 H 0.0905 0.41788 0.55726 0.0
H2640 H 0.29182 0.66103 0.21205 0.0
H2641 H 0.29647 0.66026 0.10265 0.0
H2642 H 0.32849 0.65956 0.15187 0.0
H2643 H 0.32392 0.66018 0.26136 0.0
H2644 H 0.32325 0.67394 0.05778 0.0
H2645 H 0.30788 0.63512 0.00877 0.0
H2646 H 0.29893 0.64356 0.04602 0.0
H2647 H 0.31033 0.63965 0.08632 0.0
C2648 C 0.29984 0.66061 0.19966 0.0
C2649 C 0.30748 0.66066 0.2455 0.0
C2650 C 0.30249 0.66015 0.13719 0.0
C2651 C 0.31281 0.6597 0.11945 0.0
C2652 C 0.32048 0.65987 0.16484 0.0
H2653 H 0.3396 0.66179 0.74711 0.0
H2654 H 0.33773 0.66039 0.85961 0.0
C2655 C 0.31784 0.66031 0.22738 0.0
C2656 C 0.31558 0.65935 0.05328 0.0
H2657 H 0.31227 0.64538 0.92148 0.0
C2658 C 0.32097 0.66766 0.02796 0.0
C2659 C 0.3126 0.65111 0.01488 0.0
C2660 C 0.3072 0.6418 0.04036 0.0
C2661 C 0.32307 0.66815 0.96442 0.0
C2662 C 0.31985 0.66003 0.92571 0.0
C2663 C 0.31471 0.65159 0.9514 0.0
C2664 C 0.32114 0.66044 0.85788 0.0
C2665 C 0.32833 0.67755 0.93885 0.0
C2666 C 0.31245 0.66064 0.81985 0.0
C2667 C 0.31349 0.66141 0.75587 0.0
C2668 C 0.32326 0.66195 0.72862 0.0
C2669 C 0.33198 0.66153 0.76682 0.0
C2670 C 0.33092 0.66074 0.83099 0.0
H2671 H 0.32838 0.68397 0.97259 0.0
H2672 H 0.3364 0.67564 0.92746 0.0
H2673 H 0.32451 0.68018 0.89578 0.0
H2674 H 0.30483 0.66043 0.83982 0.0
H2675 H 0.30661 0.66187 0.72803 0.0
H2676 H 0.08256 0.56046 0.99302 0.0
H2677 H 0.0818 0.56452 0.88268 0.0
H2678 H 0.11129 0.55027 0.85581 0.0
H2679 H 0.11222 0.54637 0.96641 0.0
H2680 H 0.10827 0.57024 0.79585 0.0
H2681 H 0.07738 0.54192 0.74795 0.0
H2682 H 0.07495 0.55072 0.81028 0.0
H2683 H 0.08511 0.5415 0.8172 0.0
C2684 C 0.08894 0.55829 0.96376 0.0
C2685 C 0.09743 0.55305 0.9883 0.0
C2686 C 0.08845 0.56055 0.90079 0.0
C2687 C 0.09645 0.55759 0.86139 0.0
C2688 C 0.10504 0.55256 0.88573 0.0
H2689 H 0.09588 0.55128 0.46664 0.0
H2690 H 0.09808 0.54929 0.57782 0.0
C2691 C 0.10551 0.55026 0.94872 0.0
C2692 C 0.09573 0.55952 0.79441 0.0
H2693 H 0.08237 0.55267 0.66539 0.0
C2694 C 0.10262 0.56643 0.76715 0.0
C2695 C 0.08839 0.55443 0.75747 0.0
C2696 C 0.08107 0.54666 0.78439 0.0
C2697 C 0.10231 0.56844 0.70344 0.0
C2698 C 0.09487 0.56345 0.6667 0.0
C2699 C 0.08802 0.55651 0.69401 0.0
C2700 C 0.09423 0.56502 0.59929 0.0
C2701 C 0.11005 0.57569 0.67567 0.0
C2702 C 0.09137 0.57455 0.57472 0.0
C2703 C 0.09017 0.57574 0.5109 0.0
C2704 C 0.09179 0.56741 0.47086 0.0
C2705 C 0.09476 0.55791 0.4959 0.0
C2706 C 0.09595 0.55673 0.5595 0.0
H2707 H 0.11652 0.57723 0.70778 0.0
H2708 H 0.11317 0.57254 0.63183 0.0
H2709 H 0.10625 0.58309 0.66496 0.0
H2710 H 0.08987 0.581 0.60495 0.0
H2711 H 0.08792 0.58315 0.49292 0.0
H2712 H 0.1686 0.3393 0.23715 0.0
H2713 H 0.17048 0.34162 0.34916 0.0
H2714 H 0.20299 0.34623 0.32583 0.0
H2715 H 0.20119 0.34393 0.21466 0.0
H2716 H 0.18223 0.33007 0.42927 0.0
H2717 H 0.19503 0.37055 0.4328 0.0
H2718 H 0.18925 0.36474 0.3655 0.0
H2719 H 0.20261 0.3627 0.38236 0.0
C2720 C 0.17613 0.34085 0.25598 0.0
C2721 C 0.18472 0.34154 0.21697 0.0
C2722 C 0.17719 0.34221 0.31981 0.0
C2723 C 0.18684 0.3443 0.34552 0.0
C2724 C 0.19542 0.34493 0.30674 0.0
H2725 H 0.2155 0.34702 0.70161 0.0
H2726 H 0.21098 0.34686 0.59179 0.0
C2727 C 0.19437 0.3436 0.2431 0.0
C2728 C 0.18812 0.34526 0.41322 0.0
H2729 H 0.19785 0.36087 0.52544 0.0
C2730 C 0.18551 0.33685 0.45051 0.0
C2731 C 0.19242 0.35412 0.44061 0.0
C2732 C 0.1949 0.36358 0.40331 0.0
C2733 C 0.18746 0.3369 0.51428 0.0
C2734 C 0.19202 0.34566 0.54131 0.0
C2735 C 0.19441 0.35416 0.50432 0.0
C2736 C 0.19464 0.34602 0.6077 0.0
C2737 C 0.18499 0.32748 0.55188 0.0
C2738 C 0.18692 0.34576 0.65272 0.0
C2739 C 0.18947 0.34589 0.71542 0.0
C2740 C 0.19979 0.34632 0.73415 0.0
C2741 C 0.20749 0.34676 0.68872 0.0
C2742 C 0.20493 0.34664 0.62604 0.0
H2743 H 0.18348 0.3207 0.52216 0.0
H2744 H 0.19138 0.32562 0.58395 0.0
H2745 H 0.17804 0.32895 0.58008 0.0
H2746 H 0.17892 0.34548 0.63932 0.0
H2747 H 0.18333 0.34578 0.74907 0.0
H2748 H 0.39578 0.43363 0.96005 0.0
H2749 H 0.39385 0.43606 0.07197 0.0
H2750 H 0.42672 0.43432 0.09346 0.0
H2751 H 0.42853 0.43128 0.98234 0.0
H2752 H 0.41825 0.42456 0.18265 0.0
H2753 H 0.39837 0.46193 0.16269 0.0
H2754 H 0.39143 0.45183 0.12535 0.0
H2755 H 0.40387 0.45552 0.09673 0.0
C2756 C 0.40254 0.43371 0.98909 0.0
C2757 C 0.41228 0.43227 0.96308 0.0
C2758 C 0.40147 0.4352 0.05278 0.0
C2759 C 0.41016 0.43566 0.0911 0.0
C2760 C 0.41989 0.43403 0.06499 0.0
H2761 H 0.41195 0.46379 0.45344 0.0
H2762 H 0.41283 0.45965 0.34303 0.0
C2763 C 0.42093 0.43228 0.00163 0.0
C2764 C 0.40921 0.43779 0.15836 0.0
H2765 H 0.3992 0.45463 0.26299 0.0
C2766 C 0.41412 0.43117 0.20018 0.0
C2767 C 0.40395 0.44649 0.18132 0.0
C2768 C 0.39921 0.4544 0.13914 0.0
C2769 C 0.41398 0.43303 0.26409 0.0
C2770 C 0.40837 0.44149 0.28721 0.0
C2771 C 0.40341 0.44808 0.24541 0.0
C2772 C 0.40784 0.44391 0.35427 0.0
C2773 C 0.42019 0.42609 0.30563 0.0
C2774 C 0.40464 0.4365 0.39736 0.0
C2775 C 0.4044 0.43881 0.46046 0.0
C2776 C 0.40702 0.44865 0.48128 0.0
C2777 C 0.40988 0.45616 0.43817 0.0
C2778 C 0.41037 0.45379 0.37528 0.0
H2779 H 0.42646 0.42224 0.27978 0.0
H2780 H 0.42363 0.43041 0.34471 0.0
H2781 H 0.41514 0.42003 0.32469 0.0
H2782 H 0.40229 0.42895 0.38227 0.0
H2783 H 0.40199 0.43297 0.49297 0.0
H2784 H 0.2878 0.14544 0.403 0.0
H2785 H 0.27536 0.1417 0.32093 0.0
H2786 H 0.25797 0.16851 0.37261 0.0
H2787 H 0.26998 0.17193 0.45616 0.0
H2788 H 0.24542 0.15379 0.3463 0.0
H2789 H 0.27443 0.15589 0.15875 0.0
H2790 H 0.27688 0.14597 0.2142 0.0
H2791 H 0.2774 0.1592 0.23757 0.0
C2792 C 0.28126 0.15047 0.39704 0.0
C2793 C 0.27989 0.15899 0.43593 0.0
C2794 C 0.27421 0.14838 0.34978 0.0
C2795 C 0.26583 0.15495 0.33952 0.0
C2796 C 0.26436 0.16331 0.37938 0.0
H2797 H 0.2336 0.16984 0.01132 0.0
H2798 H 0.24539 0.16711 0.09683 0.0
C2799 C 0.27126 0.16527 0.42722 0.0
C2800 C 0.25865 0.15341 0.28676 0.0
H2801 H 0.25747 0.1523 0.12913 0.0
C2802 C 0.24806 0.15341 0.29877 0.0
C2803 C 0.26208 0.153 0.22465 0.0
C2804 C 0.2733 0.15361 0.2078 0.0
C2805 C 0.24081 0.15347 0.25067 0.0
C2806 C 0.24425 0.15304 0.18857 0.0
C2807 C 0.25483 0.15257 0.17668 0.0
C2808 C 0.23713 0.15417 0.13516 0.0
C2809 C 0.22961 0.15459 0.26703 0.0
C2810 C 0.2286 0.14771 0.12725 0.0
C2811 C 0.22168 0.1494 0.07867 0.0
C2812 C 0.22334 0.15741 0.03628 0.0
C2813 C 0.2321 0.16357 0.04291 0.0
C2814 C 0.23888 0.16201 0.09191 0.0
H2815 H 0.22854 0.15744 0.315 0.0
H2816 H 0.22568 0.15994 0.23492 0.0
H2817 H 0.22581 0.147 0.26371 0.0
H2818 H 0.22723 0.14143 0.15886 0.0
H2819 H 0.21503 0.14448 0.07451 0.0
H2820 H 0.11006 0.03421 0.66781 0.0
H2821 H 0.11367 0.02182 0.58529 0.0
H2822 H 0.08697 0.00437 0.63835 0.0
H2823 H 0.08372 0.01631 0.72254 0.0
H2824 H 0.10139 0.99179 0.60892 0.0
H2825 H 0.0993 0.02132 0.42459 0.0
H2826 H 0.10941 0.0235 0.47913 0.0
H2827 H 0.09624 0.02419 0.50383 0.0
C2828 C 0.10504 0.02766 0.66206 0.0
C2829 C 0.09659 0.02625 0.70151 0.0
C2830 C 0.10705 0.02063 0.61456 0.0
C2831 C 0.10046 0.01226 0.60443 0.0
C2832 C 0.09219 0.01074 0.64496 0.0
H2833 H 0.08261 0.98216 0.27825 0.0
H2834 H 0.08677 0.99337 0.36408 0.0
C2835 C 0.09032 0.01761 0.69315 0.0
C2836 C 0.10182 0.0052 0.55083 0.0
H2837 H 0.10238 0.00447 0.39298 0.0
C2838 C 0.10166 0.99457 0.56165 0.0
C2839 C 0.10215 0.0088 0.48904 0.0
C2840 C 0.10169 0.02007 0.47328 0.0
C2841 C 0.10125 0.98748 0.51274 0.0
C2842 C 0.10147 0.9911 0.45098 0.0
C2843 C 0.10224 0.00169 0.44026 0.0
C2844 C 0.09954 0.98426 0.39699 0.0
C2845 C 0.09994 0.97625 0.52797 0.0
C2846 C 0.10544 0.97542 0.38572 0.0
C2847 C 0.10293 0.96882 0.33677 0.0
C2848 C 0.09464 0.97108 0.29745 0.0
C2849 C 0.08908 0.98017 0.30732 0.0
C2850 C 0.09146 0.98662 0.3566 0.0
H2851 H 0.09751 0.97506 0.5767 0.0
H2852 H 0.09417 0.97262 0.49722 0.0
H2853 H 0.10736 0.97225 0.5214 0.0
H2854 H 0.1119 0.97357 0.41501 0.0
H2855 H 0.10742 0.96194 0.32994 0.0
H2856 H 0.27791 0.86753 0.53486 0.0
H2857 H 0.26282 0.86797 0.60274 0.0
H2858 H 0.27734 0.84638 0.7257 0.0
H2859 H 0.29236 0.84584 0.65837 0.0
H2860 H 0.25089 0.84928 0.64024 0.0
H2861 H 0.26737 0.87103 0.83752 0.0
H2862 H 0.2726 0.8717 0.76021 0.0
H2863 H 0.27512 0.86073 0.80798 0.0
C2864 C 0.27791 0.86294 0.5766 0.0
C2865 C 0.28632 0.85663 0.59114 0.0
C2866 C 0.2693 0.86319 0.61521 0.0
C2867 C 0.26903 0.85728 0.66942 0.0
C2868 C 0.27745 0.85109 0.68441 0.0
H2869 H 0.22898 0.84145 0.9675 0.0
H2870 H 0.24318 0.8454 0.89799 0.0
C2871 C 0.286 0.85074 0.64564 0.0
C2872 C 0.25979 0.85715 0.70916 0.0
H2873 H 0.25139 0.86281 0.85464 0.0
C2874 C 0.25091 0.85235 0.68687 0.0
C2875 C 0.25993 0.86109 0.76997 0.0
C2876 C 0.26923 0.86651 0.79546 0.0
C2877 C 0.24227 0.85099 0.72479 0.0
C2878 C 0.24243 0.85483 0.78612 0.0
C2879 C 0.25125 0.85988 0.8077 0.0
C2880 C 0.2338 0.85313 0.82979 0.0
C2881 C 0.23327 0.84502 0.69965 0.0
C2882 C 0.22381 0.85641 0.81558 0.0
C2883 C 0.21564 0.85405 0.855 0.0
C2884 C 0.21733 0.84853 0.90996 0.0
C2885 C 0.2274 0.84571 0.92556 0.0
C2886 C 0.23554 0.84796 0.8858 0.0
H2887 H 0.23543 0.84037 0.65861 0.0
H2888 H 0.23005 0.83981 0.73531 0.0
H2889 H 0.22717 0.85044 0.6852 0.0
H2890 H 0.22231 0.86067 0.77356 0.0
H2891 H 0.20799 0.85645 0.84199 0.0
H2892 H 0.41943 0.98685 0.20063 0.0
H2893 H 0.4162 0.99856 0.11536 0.0
H2894 H 0.39103 0.97961 0.05442 0.0
H2895 H 0.39458 0.96752 0.13856 0.0
H2896 H 0.40182 0.98451 0.96031 0.0
H2897 H 0.39568 0.02032 0.08948 0.0
H2898 H 0.40779 0.01499 0.11129 0.0
H2899 H 0.39614 0.00803 0.12762 0.0
C2900 C 0.4131 0.98523 0.16974 0.0
C2901 C 0.40722 0.97628 0.17668 0.0
C2902 C 0.41119 0.99201 0.12112 0.0
C2903 C 0.40318 0.99016 0.07916 0.0
C2904 C 0.3972 0.98128 0.08646 0.0
H2905 H 0.39542 0.03917 0.80265 0.0
H2906 H 0.39144 0.02713 0.88638 0.0
C2907 C 0.39922 0.97438 0.13462 0.0
C2908 C 0.4017 0.99708 0.02508 0.0
H2909 H 0.40163 0.02233 0.98348 0.0
C2910 C 0.40157 0.99278 0.96553 0.0
C2911 C 0.40109 0.00788 0.03134 0.0
C2912 C 0.40005 0.01304 0.09349 0.0
C2913 C 0.40152 0.99896 0.91237 0.0
C2914 C 0.40203 0.00976 0.91876 0.0
C2915 C 0.40147 0.01406 0.97822 0.0
C2916 C 0.40385 0.01668 0.86507 0.0
C2917 C 0.40095 0.9938 0.85001 0.0
C2918 C 0.41216 0.01488 0.82526 0.0
C2919 C 0.41432 0.02163 0.77688 0.0
C2920 C 0.40839 0.0305 0.76805 0.0
C2921 C 0.4001 0.03237 0.80806 0.0
C2922 C 0.39783 0.0255 0.85599 0.0
H2923 H 0.39661 0.98649 0.85292 0.0
H2924 H 0.39723 0.99878 0.81495 0.0
H2925 H 0.40882 0.99191 0.83414 0.0
H2926 H 0.41718 0.00839 0.8325 0.0
H2927 H 0.42087 0.02004 0.74763 0.0
H2928 H 0.78312 0.83723 0.89668 0.0
H2929 H 0.76864 0.83773 0.82528 0.0
H2930 H 0.76735 0.87063 0.84191 0.0
H2931 H 0.78195 0.87023 0.91358 0.0
H2932 H 0.7482 0.8468 0.84624 0.0
H2933 H 0.76999 0.8641 0.65076 0.0
H2934 H 0.77626 0.85771 0.71444 0.0
H2935 H 0.77092 0.87025 0.72511 0.0
C2936 C 0.7798 0.84459 0.88517 0.0
C2937 C 0.78376 0.8537 0.91044 0.0
C2938 C 0.77148 0.84485 0.84457 0.0
C2939 C 0.767 0.85421 0.82799 0.0
C2940 C 0.77079 0.86333 0.85379 0.0
H2941 H 0.70965 0.85563 0.61173 0.0
H2942 H 0.7226 0.85968 0.69014 0.0
C2943 C 0.77909 0.86308 0.89488 0.0
C2944 C 0.75844 0.85434 0.78295 0.0
H2945 H 0.75269 0.86 0.63278 0.0
C2946 C 0.7491 0.8498 0.79975 0.0
C2947 C 0.75974 0.85815 0.72228 0.0
C2948 C 0.76977 0.86278 0.70151 0.0
C2949 C 0.74106 0.84877 0.75698 0.0
C2950 C 0.74238 0.85251 0.69603 0.0
C2951 C 0.75167 0.85723 0.67967 0.0
C2952 C 0.73461 0.85072 0.64709 0.0
C2953 C 0.7314 0.8433 0.77658 0.0
C2954 C 0.73715 0.84463 0.59592 0.0
C2955 C 0.7298 0.84235 0.55104 0.0
C2956 C 0.71975 0.84614 0.55621 0.0
C2957 C 0.71729 0.85252 0.60656 0.0
C2958 C 0.72467 0.85481 0.65157 0.0
H2959 H 0.73241 0.83912 0.82097 0.0
H2960 H 0.72515 0.84898 0.78278 0.0
H2961 H 0.72893 0.83774 0.74063 0.0
H2962 H 0.74477 0.84142 0.59144 0.0
H2963 H 0.73199 0.83745 0.51284 0.0
H2964 H 0.92102 0.01756 0.76224 0.0
H2965 H 0.91763 0.00605 0.67615 0.0
H2966 H 0.89164 0.02451 0.62272 0.0
H2967 H 0.89535 0.03643 0.70747 0.0
H2968 H 0.90259 0.99415 0.64752 0.0
H2969 H 0.90621 0.02331 0.46178 0.0
H2970 H 0.90938 0.02606 0.54114 0.0
H2971 H 0.89622 0.02605 0.51623 0.0
C2972 C 0.91455 0.01918 0.73237 0.0
C2973 C 0.90847 0.02793 0.74154 0.0
C2974 C 0.91261 0.01257 0.68302 0.0
C2975 C 0.90448 0.01447 0.64204 0.0
C2976 C 0.89814 0.02302 0.65246 0.0
H2977 H 0.89244 0.96415 0.37729 0.0
H2978 H 0.88975 0.97664 0.46049 0.0
C2979 C 0.9002 0.02977 0.70129 0.0
C2980 C 0.90284 0.00746 0.58863 0.0
H2981 H 0.90191 0.00653 0.43086 0.0
C2982 C 0.9024 0.99686 0.60011 0.0
C2983 C 0.90267 0.01099 0.52667 0.0
C2984 C 0.90374 0.0222 0.5105 0.0
C2985 C 0.90226 0.98969 0.5517 0.0
C2986 C 0.90202 0.99321 0.48973 0.0
C2987 C 0.90203 0.00382 0.47829 0.0
C2988 C 0.90282 0.98607 0.43617 0.0
C2989 C 0.903 0.97845 0.56781 0.0
C2990 C 0.9107 0.98748 0.39276 0.0
C2991 C 0.91205 0.98054 0.34436 0.0
C2992 C 0.90563 0.97194 0.33857 0.0
C2993 C 0.89756 0.97066 0.38091 0.0
C2994 C 0.89608 0.97775 0.42878 0.0
H2995 H 0.90599 0.9773 0.61539 0.0
H2996 H 0.89526 0.97495 0.56555 0.0
H2997 H 0.90811 0.97432 0.53518 0.0
H2998 H 0.91601 0.99382 0.39725 0.0
H2999 H 0.91837 0.98175 0.3127 0.0
H3000 H 0.71615 0.14334 0.41444 0.0
H3001 H 0.72824 0.13985 0.33023 0.0
H3002 H 0.74667 0.16559 0.38813 0.0
H3003 H 0.73497 0.16879 0.47341 0.0
H3004 H 0.73298 0.15051 0.23465 0.0
H3005 H 0.7688 0.14533 0.36538 0.0
H3006 H 0.75648 0.14569 0.40313 0.0
H3007 H 0.76323 0.15741 0.38556 0.0
C3008 C 0.72289 0.14813 0.40979 0.0
C3009 C 0.72466 0.15627 0.45106 0.0
C3010 C 0.72979 0.14614 0.36159 0.0
C3011 C 0.73854 0.1523 0.35349 0.0
C3012 C 0.74023 0.16046 0.39455 0.0
H3013 H 0.76863 0.16892 0.01955 0.0
H3014 H 0.75686 0.16555 0.10436 0.0
C3015 C 0.73346 0.16234 0.44318 0.0
C3016 C 0.7455 0.15076 0.29969 0.0
H3017 H 0.77078 0.15084 0.25869 0.0
C3018 C 0.74124 0.15039 0.24006 0.0
C3019 C 0.7563 0.15031 0.30627 0.0
C3020 C 0.76144 0.14958 0.36866 0.0
C3021 C 0.74746 0.15021 0.18704 0.0
C3022 C 0.75825 0.15085 0.19361 0.0
C3023 C 0.76252 0.15057 0.25325 0.0
C3024 C 0.76521 0.15245 0.13983 0.0
C3025 C 0.74234 0.14936 0.12466 0.0
C3026 C 0.77408 0.14646 0.13231 0.0
C3027 C 0.78102 0.14856 0.08447 0.0
C3028 C 0.77916 0.15664 0.04292 0.0
C3029 C 0.77022 0.16253 0.05007 0.0
C3030 C 0.76341 0.16055 0.09841 0.0
H3031 H 0.73505 0.14499 0.12802 0.0
H3032 H 0.74042 0.15715 0.10757 0.0
H3033 H 0.74737 0.14553 0.0903 0.0
H3034 H 0.77572 0.14022 0.1639 0.0
H3035 H 0.78786 0.14391 0.08031 0.0
H3036 H 0.5842 0.01648 0.75955 0.0
H3037 H 0.58664 0.00586 0.85104 0.0
H3038 H 0.61255 0.02441 0.90472 0.0
H3039 H 0.60976 0.03545 0.81454 0.0
H3040 H 0.60081 0.99403 0.89243 0.0
H3041 H 0.59647 0.02599 0.05952 0.0
H3042 H 0.59421 0.02764 0.97799 0.0
H3043 H 0.60709 0.02771 0.00803 0.0
C3044 C 0.59047 0.01827 0.79056 0.0
C3045 C 0.59675 0.02685 0.78005 0.0
C3046 C 0.59186 0.01219 0.84301 0.0
C3047 C 0.59965 0.01444 0.8858 0.0
C3048 C 0.60628 0.0227 0.87365 0.0
H3049 H 0.60865 0.96842 0.18157 0.0
H3050 H 0.61198 0.97936 0.0916 0.0
C3051 C 0.60475 0.02894 0.82174 0.0
C3052 C 0.60055 0.00821 0.94333 0.0
H3053 H 0.6003 0.00976 0.10104 0.0
C3054 C 0.60072 0.99747 0.93808 0.0
C3055 C 0.60033 0.01269 0.00304 0.0
C3056 C 0.59941 0.02413 0.01265 0.0
C3057 C 0.60033 0.9911 0.9904 0.0
C3058 C 0.60024 0.99558 0.0501 0.0
C3059 C 0.60044 0.00631 0.05539 0.0
C3060 C 0.59898 0.98937 0.10744 0.0
C3061 C 0.59943 0.97966 0.98072 0.0
C3062 C 0.59095 0.99167 0.14841 0.0
C3063 C 0.58925 0.98564 0.20072 0.0
C3064 C 0.59545 0.97707 0.21294 0.0
C3065 C 0.60369 0.97493 0.17305 0.0
C3066 C 0.60553 0.98111 0.12124 0.0
H3067 H 0.59679 0.97776 0.93322 0.0
H3068 H 0.60706 0.97606 0.98731 0.0
H3069 H 0.594 0.97618 0.01422 0.0
H3070 H 0.5858 0.998 0.13907 0.0
H3071 H 0.58281 0.98748 0.2303 0.0
H3072 H 0.78419 0.665 0.90621 0.0
H3073 H 0.76926 0.66445 0.8385 0.0
H3074 H 0.76782 0.6316 0.85849 0.0
H3075 H 0.7829 0.63206 0.92634 0.0
H3076 H 0.76656 0.63891 0.73356 0.0
H3077 H 0.73912 0.65886 0.88775 0.0
H3078 H 0.75107 0.66553 0.87853 0.0
H3079 H 0.75088 0.6532 0.91568 0.0
C3080 C 0.78073 0.65764 0.89636 0.0
C3081 C 0.78477 0.64857 0.92163 0.0
C3082 C 0.77212 0.65736 0.85802 0.0
C3083 C 0.76735 0.64801 0.84416 0.0
C3084 C 0.77136 0.63891 0.86904 0.0
H3085 H 0.7093 0.64865 0.6371 0.0
H3086 H 0.72238 0.64415 0.71384 0.0
C3087 C 0.77996 0.63919 0.90785 0.0
C3088 C 0.75844 0.6478 0.80161 0.0
H3089 H 0.73452 0.65786 0.78069 0.0
C3090 C 0.75949 0.64292 0.74414 0.0
C3091 C 0.74917 0.65292 0.81583 0.0
C3092 C 0.74742 0.65784 0.87804 0.0
C3093 C 0.75173 0.64348 0.69925 0.0
C3094 C 0.74273 0.64916 0.71203 0.0
C3095 C 0.74146 0.65358 0.77072 0.0
C3096 C 0.73489 0.65123 0.66389 0.0
C3097 C 0.75328 0.6381 0.63823 0.0
C3098 C 0.73757 0.65674 0.61057 0.0
C3099 C 0.73013 0.65935 0.5669 0.0
C3100 C 0.71982 0.65655 0.57568 0.0
C3101 C 0.71716 0.65091 0.62879 0.0
C3102 C 0.72462 0.64834 0.67272 0.0
H3103 H 0.75882 0.63167 0.64256 0.0
H3104 H 0.74593 0.63506 0.61992 0.0
H3105 H 0.75642 0.64363 0.60414 0.0
H3106 H 0.74539 0.65925 0.60343 0.0
H3107 H 0.73246 0.66373 0.5267 0.0
H3108 H 0.59122 0.46072 0.88834 0.0
H3109 H 0.59068 0.47574 0.95515 0.0
H3110 H 0.61489 0.48978 0.849 0.0
H3111 H 0.61553 0.47463 0.78155 0.0
H3112 H 0.61728 0.49176 0.97903 0.0
H3113 H 0.57837 0.5034 0.90441 0.0
H3114 H 0.57893 0.49029 0.92932 0.0
H3115 H 0.58599 0.49424 0.8619 0.0
C3116 C 0.5964 0.46701 0.87876 0.0
C3117 C 0.60331 0.46654 0.8289 0.0
C3118 C 0.59607 0.47561 0.91706 0.0
C3119 C 0.60258 0.48397 0.90618 0.0
C3120 C 0.60973 0.48343 0.85778 0.0
H3121 H 0.60351 0.54152 0.12262 0.0
H3122 H 0.60757 0.5288 0.04252 0.0
C3123 C 0.61009 0.47478 0.81935 0.0
C3124 C 0.60179 0.49324 0.94572 0.0
H3125 H 0.58453 0.51084 -0.00128 0.0
C3126 C 0.61019 0.49606 0.98267 0.0
C3127 C 0.59255 0.49888 0.94997 0.0
C3128 C 0.58348 0.49663 0.90882 0.0
C3129 C 0.60937 0.50402 0.02631 0.0
C3130 C 0.59995 0.50927 0.03269 0.0
C3131 C 0.59172 0.50673 0.99392 0.0
C3132 C 0.59817 0.51685 0.08249 0.0
C3133 C 0.61838 0.50647 0.06736 0.0
C3134 C 0.59158 0.51431 0.13129 0.0
C3135 C 0.58926 0.52151 0.17692 0.0
C3136 C 0.59343 0.53145 0.17449 0.0
C3137 C 0.60018 0.53393 0.12593 0.0
C3138 C 0.60253 0.52668 0.08024 0.0
H3139 H 0.62487 0.50108 0.06031 0.0
H3140 H 0.6211 0.51437 0.05744 0.0
H3141 H 0.61603 0.50621 0.11668 0.0
H3142 H 0.58812 0.50677 0.13368 0.0
H3143 H 0.58404 0.51931 0.2135 0.0
H3144 H 0.71631 0.35641 0.4093 0.0
H3145 H 0.72836 0.35945 0.32427 0.0
H3146 H 0.74615 0.33326 0.38227 0.0
H3147 H 0.73451 0.33054 0.46867 0.0
H3148 H 0.75847 0.34777 0.34994 0.0
H3149 H 0.72896 0.34396 0.16649 0.0
H3150 H 0.72649 0.35431 0.21893 0.0
H3151 H 0.72624 0.34129 0.24653 0.0
C3152 C 0.72285 0.35137 0.4041 0.0
C3153 C 0.72445 0.34323 0.44565 0.0
C3154 C 0.72968 0.35305 0.35513 0.0
C3155 C 0.73806 0.34644 0.34583 0.0
C3156 C 0.73976 0.33846 0.38823 0.0
H3157 H 0.76993 0.33132 0.01394 0.0
H3158 H 0.75822 0.33373 0.10027 0.0
C3159 C 0.73308 0.33691 0.43774 0.0
C3160 C 0.74506 0.34762 0.29186 0.0
H3161 H 0.74574 0.348 0.13398 0.0
C3162 C 0.75568 0.34785 0.30268 0.0
C3163 C 0.74143 0.34762 0.23008 0.0
C3164 C 0.73017 0.34668 0.21463 0.0
C3165 C 0.76278 0.34772 0.25382 0.0
C3166 C 0.75915 0.34785 0.19204 0.0
C3167 C 0.74852 0.34797 0.18124 0.0
C3168 C 0.76617 0.3469 0.13799 0.0
C3169 C 0.77404 0.34688 0.26922 0.0
C3170 C 0.77449 0.3536 0.12938 0.0
C3171 C 0.78137 0.35209 0.08044 0.0
C3172 C 0.77987 0.34404 0.03824 0.0
C3173 C 0.77129 0.33763 0.04541 0.0
C3174 C 0.76457 0.33901 0.09487 0.0
H3175 H 0.77529 0.34405 0.31712 0.0
H3176 H 0.77803 0.34161 0.23686 0.0
H3177 H 0.77764 0.35456 0.26562 0.0
H3178 H 0.77574 0.35994 0.16079 0.0
H3179 H 0.78788 0.3572 0.0758 0.0
H3180 H 0.89454 0.46629 0.66978 0.0
H3181 H 0.89123 0.47796 0.58314 0.0
H3182 H 0.91741 0.49617 0.6363 0.0
H3183 H 0.9204 0.48492 0.72424 0.0
H3184 H 0.90277 0.50825 0.60222 0.0
H3185 H 0.90647 0.47773 0.4246 0.0
H3186 H 0.89619 0.47562 0.47807 0.0
H3187 H 0.90925 0.47546 0.50501 0.0
C3188 C 0.89951 0.47285 0.66321 0.0
C3189 C 0.90774 0.47467 0.70379 0.0
C3190 C 0.89768 0.47946 0.61332 0.0
C3191 C 0.90421 0.48784 0.60214 0.0
C3192 C 0.91226 0.48977 0.6437 0.0
H3193 H 0.92067 0.51763 0.26762 0.0
H3194 H 0.91757 0.50642 0.35555 0.0
C3195 C 0.91396 0.48331 0.69409 0.0
C3196 C 0.90296 0.49454 0.54684 0.0
H3197 H 0.90284 0.49438 0.38888 0.0
C3198 C 0.90274 0.50522 0.55553 0.0
C3199 C 0.90299 0.49058 0.4858 0.0
C3200 C 0.90383 0.47924 0.4726 0.0
C3201 C 0.90299 0.51205 0.5053 0.0
C3202 C 0.90301 0.50809 0.44427 0.0
C3203 C 0.90278 0.49742 0.43557 0.0
C3204 C 0.90434 0.51478 0.389 0.0
C3205 C 0.90384 0.52339 0.5185 0.0
C3206 C 0.89783 0.52317 0.37741 0.0
C3207 C 0.89973 0.52975 0.32747 0.0
C3208 C 0.90801 0.52791 0.28729 0.0
C3209 C 0.9142 0.51926 0.29744 0.0
C3210 C 0.91243 0.51282 0.34784 0.0
H3211 H 0.90641 0.5249 0.56663 0.0
H3212 H 0.9093 0.52716 0.48634 0.0
H3213 H 0.89621 0.52702 0.51261 0.0
H3214 H 0.89136 0.52469 0.40728 0.0
H3215 H 0.89478 0.53632 0.32058 0.0
H3216 H 0.28709 0.36141 0.43229 0.0
H3217 H 0.2747 0.36404 0.34886 0.0
H3218 H 0.25461 0.34168 0.43251 0.0
H3219 H 0.26668 0.33954 0.51763 0.0
H3220 H 0.2694 0.35179 0.26602 0.0
H3221 H 0.23363 0.36174 0.3867 0.0
H3222 H 0.2458 0.36155 0.42617 0.0
H3223 H 0.23842 0.34993 0.41723 0.0
C3224 C 0.27987 0.35731 0.43372 0.0
C3225 C 0.27779 0.35036 0.48181 0.0
C3226 C 0.27281 0.35877 0.38585 0.0
C3227 C 0.26358 0.35319 0.38447 0.0
C3228 C 0.26145 0.34638 0.43326 0.0
H3229 H 0.23356 0.33183 0.05748 0.0
H3230 H 0.24505 0.33579 0.14278 0.0
C3231 C 0.2684 0.34511 0.48192 0.0
C3232 C 0.25674 0.35367 0.32924 0.0
H3233 H 0.23161 0.35404 0.28518 0.0
C3234 C 0.26115 0.35248 0.27033 0.0
C3235 C 0.24597 0.3548 0.33397 0.0
C3236 C 0.24072 0.3572 0.39445 0.0
C3237 C 0.2551 0.3519 0.21675 0.0
C3238 C 0.24427 0.35202 0.22226 0.0
C3239 C 0.23988 0.35374 0.28072 0.0
C3240 C 0.23737 0.34987 0.16884 0.0
C3241 C 0.26045 0.35122 0.15495 0.0
C3242 C 0.2289 0.3562 0.15618 0.0
C3243 C 0.22209 0.35377 0.10821 0.0
C3244 C 0.22371 0.34503 0.07153 0.0
C3245 C 0.23221 0.33874 0.08403 0.0
C3246 C 0.23886 0.34105 0.13265 0.0
H3247 H 0.26798 0.35519 0.15624 0.0
H3248 H 0.26194 0.34306 0.14377 0.0
H3249 H 0.25577 0.35464 0.11734 0.0
H3250 H 0.2275 0.363 0.18369 0.0
H3251 H 0.21557 0.35873 0.09993 0.0
H3252 H 0.42084 0.482 0.79861 0.0
H3253 H 0.41725 0.49384 0.88273 0.0
H3254 H 0.39084 0.47585 0.93452 0.0
H3255 H 0.39473 0.46361 0.85165 0.0
H3256 H 0.40224 0.50608 0.91028 0.0
H3257 H 0.40542 0.47688 0.0958 0.0
H3258 H 0.40848 0.47405 0.01649 0.0
H3259 H 0.39533 0.47425 0.04175 0.0
C3260 C 0.41424 0.48055 0.82768 0.0
C3261 C 0.40811 0.47182 0.8187 0.0
C3262 C 0.41217 0.48736 0.87583 0.0
C3263 C 0.40387 0.48568 0.91585 0.0
C3264 C 0.39746 0.47718 0.90543 0.0
H3265 H 0.39265 0.53575 0.18527 0.0
H3266 H 0.38979 0.52376 0.09959 0.0
C3267 C 0.39964 0.47023 0.85776 0.0
C3268 C 0.40224 0.49275 0.96904 0.0
H3269 H 0.40127 0.49363 0.12675 0.0
C3270 C 0.40199 0.50336 0.95766 0.0
C3271 C 0.40198 0.48921 0.03095 0.0
C3272 C 0.40291 0.47799 0.04716 0.0
C3273 C 0.40192 0.51052 0.00622 0.0
C3274 C 0.40164 0.50698 0.06815 0.0
C3275 C 0.40143 0.49636 0.07937 0.0
C3276 C 0.40271 0.514 0.12207 0.0
C3277 C 0.40274 0.52178 0.99046 0.0
C3278 C 0.41059 0.51227 0.16507 0.0
C3279 C 0.41204 0.51891 0.21484 0.0
C3280 C 0.40572 0.52754 0.22252 0.0
C3281 C 0.39769 0.5292 0.18031 0.0
C3282 C 0.39611 0.5224 0.13096 0.0
H3283 H 0.4055 0.523 0.9424 0.0
H3284 H 0.39506 0.52538 0.9944 0.0
H3285 H 0.40804 0.52578 0.02254 0.0
H3286 H 0.41579 0.50587 0.15943 0.0
H3287 H 0.41834 0.51743 0.24622 0.0
H3288 H 0.22435 0.65317 0.96722 0.0
H3289 H 0.23955 0.65418 0.90073 0.0
H3290 H 0.22084 0.64699 0.7418 0.0
H3291 H 0.20559 0.64674 0.80767 0.0
H3292 H 0.24994 0.64247 0.82881 0.0
H3293 H 0.23293 0.67273 0.68191 0.0
H3294 H 0.22675 0.66825 0.75118 0.0
H3295 H 0.22542 0.66126 0.67962 0.0
C3296 C 0.22355 0.65175 0.91808 0.0
C3297 C 0.21385 0.65001 0.89218 0.0
C3298 C 0.23222 0.65232 0.88009 0.0
C3299 C 0.23133 0.65098 0.81576 0.0
C3300 C 0.22169 0.64849 0.79076 0.0
H3301 H 0.28562 0.64581 0.57459 0.0
H3302 H 0.27125 0.6418 0.64392 0.0
C3303 C 0.21299 0.64825 0.82843 0.0
C3304 C 0.24039 0.65255 0.77485 0.0
H3305 H 0.24843 0.66537 0.64616 0.0
C3306 C 0.24963 0.64753 0.78905 0.0
C3307 C 0.24008 0.6593 0.72353 0.0
C3308 C 0.2308 0.66577 0.70858 0.0
C3309 C 0.25855 0.64908 0.75362 0.0
C3310 C 0.25809 0.65548 0.70071 0.0
C3311 C 0.24881 0.66041 0.68634 0.0
C3312 C 0.26717 0.65767 0.66089 0.0
C3313 C 0.2684 0.64415 0.77482 0.0
C3314 C 0.26955 0.66788 0.64584 0.0
C3315 C 0.27744 0.67012 0.60451 0.0
C3316 C 0.28331 0.66222 0.57838 0.0
C3317 C 0.28122 0.65202 0.59466 0.0
C3318 C 0.27308 0.64974 0.63472 0.0
H3319 H 0.2682 0.64236 0.82505 0.0
H3320 H 0.2695 0.63682 0.74963 0.0
H3321 H 0.2751 0.64917 0.76569 0.0
H3322 H 0.26519 0.67415 0.66546 0.0
H3323 H 0.27898 0.67806 0.59311 0.0
H3324 H 0.10873 0.53754 0.36033 0.0
H3325 H 0.11249 0.52535 0.4436 0.0
H3326 H 0.08781 0.50597 0.38046 0.0
H3327 H 0.08438 0.51778 0.29604 0.0
H3328 H 0.10184 0.51995 0.53706 0.0
H3329 H 0.10875 0.4846 0.40495 0.0
H3330 H 0.10804 0.49696 0.36782 0.0
H3331 H 0.09653 0.48971 0.38332 0.0
C3332 C 0.10425 0.53057 0.36361 0.0
C3333 C 0.09633 0.52857 0.32114 0.0
C3334 C 0.10639 0.52361 0.41127 0.0
C3335 C 0.10061 0.51457 0.41767 0.0
C3336 C 0.09267 0.51264 0.37537 0.0
H3337 H 0.08314 0.48376 0.74598 0.0
H3338 H 0.08679 0.49562 0.66219 0.0
C3339 C 0.09065 0.51948 0.32724 0.0
C3340 C 0.10222 0.50755 0.47117 0.0
H3341 H 0.10269 0.4822 0.51055 0.0
C3342 C 0.10224 0.5117 0.5311 0.0
C3343 C 0.10304 0.49678 0.46399 0.0
C3344 C 0.10421 0.49179 0.40144 0.0
C3345 C 0.10236 0.50539 0.58372 0.0
C3346 C 0.10203 0.4946 0.57637 0.0
C3347 C 0.10271 0.49046 0.51655 0.0
C3348 C 0.10023 0.48753 0.62937 0.0
C3349 C 0.10282 0.51042 0.64652 0.0
C3350 C 0.10631 0.47873 0.63789 0.0
C3351 C 0.10405 0.47173 0.68518 0.0
C3352 C 0.09572 0.47345 0.72512 0.0
C3353 C 0.08972 0.48229 0.71681 0.0
C3354 C 0.09187 0.48916 0.66905 0.0
H3355 H 0.10709 0.51778 0.64437 0.0
H3356 H 0.09492 0.5122 0.66222 0.0
H3357 H 0.10655 0.50539 0.68133 0.0
H3358 H 0.11274 0.47722 0.60756 0.0
H3359 H 0.10878 0.46496 0.69018 0.0
H3360 H 0.16327 0.14242 0.85262 0.0
H3361 H 0.15446 0.12628 0.83486 0.0
H3362 H 0.17861 0.11003 0.92937 0.0
H3363 H 0.18755 0.12635 0.94826 0.0
H3364 H 0.16096 0.10844 0.77272 0.0
H3365 H 0.1523 0.1012 0.02139 0.0
H3366 H 0.15662 0.11355 0.99427 0.0
H3367 H 0.16548 0.10308 -0.00019 0.0
C3368 C 0.16677 0.13544 0.86977 0.0
C3369 C 0.17609 0.1357 0.90235 0.0
C3370 C 0.16172 0.12619 0.85922 0.0
C3371 C 0.16583 0.11695 0.88103 0.0
C3372 C 0.17524 0.11709 0.91272 0.0
H3373 H 0.12678 0.06348 0.77819 0.0
H3374 H 0.14285 0.07305 0.79423 0.0
C3375 C 0.18034 0.12641 0.92336 0.0
C3376 C 0.15987 0.10737 0.87181 0.0
H3377 H 0.14404 0.09085 0.94845 0.0
C3378 C 0.15743 0.10441 0.81109 0.0
C3379 C 0.15527 0.10217 0.92202 0.0
C3380 C 0.15746 0.10514 0.98815 0.0
C3381 C 0.15002 0.09684 0.79918 0.0
C3382 C 0.145 0.09205 0.8494 0.0
C3383 C 0.14793 0.09453 0.91009 0.0
C3384 C 0.13558 0.08585 0.84041 0.0
C3385 C 0.14706 0.09456 0.73314 0.0
C3386 C 0.12623 0.08981 0.86154 0.0
C3387 C 0.11714 0.08442 0.85253 0.0
C3388 C 0.11714 0.07488 0.82226 0.0
C3389 C 0.12653 0.07083 0.80142 0.0
C3390 C 0.13569 0.07629 0.81045 0.0
H3391 H 0.151 0.09969 0.6997 0.0
H3392 H 0.1491 0.08652 0.72187 0.0
H3393 H 0.13865 0.0954 0.72705 0.0
H3394 H 0.12595 0.09719 0.88453 0.0
H3395 H 0.11009 0.08779 0.86938 0.0
H3396 H 0.15689 0.85566 0.07957 0.0
H3397 H 0.14895 0.87144 0.11563 0.0
H3398 H 0.17301 0.88912 0.03001 0.0
H3399 H 0.18103 0.87321 0.99278 0.0
H3400 H 0.15685 0.88738 0.19127 0.0
H3401 H 0.1463 0.90108 0.95533 0.0
H3402 H 0.15019 0.88801 0.96949 0.0
H3403 H 0.15954 0.8981 0.97029 0.0
C3404 C 0.16055 0.86288 0.06843 0.0
C3405 C 0.16956 0.86317 0.0328 0.0
C3406 C 0.15601 0.87191 0.08933 0.0
C3407 C 0.16032 0.88146 0.07499 0.0
C3408 C 0.16948 0.88183 0.04088 0.0
H3409 H 0.12185 0.93616 0.15483 0.0
H3410 H 0.13782 0.92685 0.13059 0.0
C3411 C 0.17408 0.87274 0.01993 0.0
C3412 C 0.15485 0.89089 0.0947 0.0
H3413 H 0.13903 0.90968 0.03968 0.0
C3414 C 0.15315 0.89241 0.15815 0.0
C3415 C 0.15006 0.89749 0.05148 0.0
C3416 C 0.15153 0.89613 0.98276 0.0
C3417 C 0.14628 0.89991 0.17931 0.0
C3418 C 0.1409 0.90597 0.13593 0.0
C3419 C 0.14318 0.90502 0.07278 0.0
C3420 C 0.13171 0.91193 0.15422 0.0
C3421 C 0.14444 0.90096 0.24787 0.0
C3422 C 0.12304 0.90662 0.17512 0.0
C3423 C 0.11399 0.91184 0.18815 0.0
C3424 C 0.11338 0.92253 0.1809 0.0
C3425 C 0.12213 0.92793 0.16124 0.0
C3426 C 0.13122 0.92263 0.14728 0.0
H3427 H 0.15113 0.89821 0.275 0.0
H3428 H 0.14282 0.90905 0.26059 0.0
H3429 H 0.1377 0.89624 0.26102 0.0
H3430 H 0.1232 0.89835 0.1799 0.0
H3431 H 0.1074 0.90746 0.20335 0.0
H3432 H 0.34699 0.86647 0.50115 0.0
H3433 H 0.35449 0.8826 0.46645 0.0
H3434 H 0.32466 0.89327 0.40963 0.0
H3435 H 0.31701 0.87705 0.44549 0.0
H3436 H 0.34148 0.89363 0.31581 0.0
H3437 H 0.35206 0.91266 0.53582 0.0
H3438 H 0.35514 0.89924 0.53359 0.0
H3439 H 0.34196 0.90321 0.53052 0.0
C3440 C 0.34198 0.87231 0.4823 0.0
C3441 C 0.33142 0.87052 0.47605 0.0
C3442 C 0.34627 0.88155 0.46278 0.0
C3443 C 0.34012 0.88916 0.43604 0.0
C3444 C 0.32951 0.88752 0.43075 0.0
H3445 H 0.37773 0.94212 0.31802 0.0
H3446 H 0.36182 0.93333 0.34914 0.0
C3447 C 0.32516 0.87829 0.45137 0.0
C3448 C 0.34511 0.89831 0.40878 0.0
H3449 H 0.36192 0.91739 0.44583 0.0
C3450 C 0.34572 0.89903 0.34414 0.0
C3451 C 0.35058 0.90538 0.44577 0.0
C3452 C 0.34985 0.90517 0.51533 0.0
C3453 C 0.35235 0.90609 0.31569 0.0
C3454 C 0.35851 0.91253 0.3529 0.0
C3455 C 0.35723 0.91241 0.41733 0.0
C3456 C 0.36741 0.91815 0.327 0.0
C3457 C 0.35313 0.90624 0.24613 0.0
C3458 C 0.37574 0.91253 0.30402 0.0
C3459 C 0.38479 0.91748 0.2872 0.0
C3460 C 0.38568 0.92817 0.29244 0.0
C3461 C 0.37719 0.93388 0.31292 0.0
C3462 C 0.36814 0.92887 0.33086 0.0
H3463 H 0.34602 0.90326 0.22423 0.0
H3464 H 0.3546 0.91412 0.22887 0.0
H3465 H 0.3596 0.90128 0.23151 0.0
H3466 H 0.3754 0.90424 0.30161 0.0
H3467 H 0.39121 0.91289 0.27162 0.0
H3468 H 0.37797 0.06675 0.68601 0.0
H3469 H 0.36163 0.0758 0.66952 0.0
H3470 H 0.37756 0.09939 0.56812 0.0
H3471 H 0.39368 0.09047 0.58355 0.0
H3472 H 0.3563 0.0953 0.707 0.0
H3473 H 0.3539 0.09305 0.45286 0.0
H3474 H 0.36232 0.08491 0.49744 0.0
H3475 H 0.36624 0.09768 0.47624 0.0
C3476 C 0.37794 0.07382 0.65972 0.0
C3477 C 0.38713 0.07787 0.63603 0.0
C3478 C 0.36861 0.07897 0.65028 0.0
C3479 C 0.36834 0.08816 0.61636 0.0
C3480 C 0.37751 0.09217 0.59288 0.0
H3481 H 0.33854 0.14388 0.63263 0.0
H3482 H 0.34753 0.12779 0.64791 0.0
C3483 C 0.38677 0.08709 0.60235 0.0
C3484 C 0.35871 0.09412 0.60871 0.0
H3485 H 0.3454 0.10773 0.50029 0.0
C3486 C 0.35374 0.09782 0.66174 0.0
C3487 C 0.35518 0.09724 0.5497 0.0
C3488 C 0.35963 0.09291 0.49087 0.0
C3489 C 0.34599 0.10526 0.65743 0.0
C3490 C 0.34328 0.10923 0.59868 0.0
C3491 C 0.34758 0.10483 0.54544 0.0
C3492 C 0.33714 0.11877 0.59199 0.0
C3493 C 0.34102 0.10905 0.71611 0.0
C3494 C 0.32839 0.11916 0.55408 0.0
C3495 C 0.32321 0.12848 0.5447 0.0
C3496 C 0.3268 0.13754 0.57248 0.0
C3497 C 0.33552 0.13706 0.61056 0.0
C3498 C 0.34064 0.12781 0.61996 0.0
H3499 H 0.34091 0.10296 0.75201 0.0
H3500 H 0.34552 0.11558 0.7347 0.0
H3501 H 0.33304 0.11168 0.70774 0.0
H3502 H 0.32563 0.1123 0.53139 0.0
H3503 H 0.31653 0.1286 0.51496 0.0
H3504 H 0.81402 0.87386 0.06235 0.0
H3505 H 0.82176 0.89001 0.09878 0.0
H3506 H 0.85162 0.87896 0.04536 0.0
H3507 H 0.84403 0.8629 0.01009 0.0
H3508 H 0.83822 0.89023 0.19441 0.0
H3509 H 0.84987 0.90899 0.97557 0.0
H3510 H 0.83965 0.89964 0.97959 0.0
H3511 H 0.85281 0.89554 0.97847 0.0
C3512 C 0.8222 0.875 0.05732 0.0
C3513 C 0.82844 0.86714 0.03345 0.0
C3514 C 0.8266 0.88418 0.07826 0.0
C3515 C 0.83724 0.8857 0.07412 0.0
C3516 C 0.84338 0.87801 0.04814 0.0
H3517 H 0.88804 0.90876 0.24483 0.0
H3518 H 0.8722 0.90035 0.21308 0.0
C3519 C 0.83904 0.86881 0.02829 0.0
C3520 C 0.84227 0.89479 0.10187 0.0
H3521 H 0.85947 0.91363 0.0668 0.0
C3522 C 0.84264 0.89555 0.16657 0.0
C3523 C 0.84797 0.90177 0.06551 0.0
C3524 C 0.8475 0.90154 0.99587 0.0
C3525 C 0.84925 0.90253 0.19579 0.0
C3526 C 0.85564 0.90887 0.15933 0.0
C3527 C 0.8546 0.90873 0.09473 0.0
C3528 C 0.86452 0.91437 0.18635 0.0
C3529 C 0.84976 0.90271 0.26543 0.0
C3530 C 0.86543 0.92508 0.18239 0.0
C3531 C 0.8745 0.92995 0.20137 0.0
C3532 C 0.88283 0.92412 0.22299 0.0
C3533 C 0.88175 0.91345 0.22838 0.0
C3534 C 0.87268 0.90863 0.21055 0.0
H3535 H 0.84253 0.89985 0.28639 0.0
H3536 H 0.8561 0.89767 0.28108 0.0
H3537 H 0.85129 0.91058 0.28273 0.0
H3538 H 0.85925 0.92962 0.16318 0.0
H3539 H 0.87519 0.93818 0.1961 0.0
H3540 H 0.83869 0.14127 0.85801 0.0
H3541 H 0.84794 0.12521 0.84793 0.0
H3542 H 0.82534 0.11003 0.96103 0.0
H3543 H 0.81598 0.12631 0.97221 0.0
H3544 H 0.84498 0.10569 0.99747 0.0
H3545 H 0.842 0.09998 0.74561 0.0
H3546 H 0.84643 0.11268 0.76231 0.0
H3547 H 0.83382 0.1088 0.787 0.0
C3548 C 0.83558 0.13452 0.88045 0.0
C3549 C 0.82657 0.13509 0.91596 0.0
C3550 C 0.84085 0.12529 0.87405 0.0
C3551 C 0.83722 0.11634 0.90248 0.0
C3552 C 0.82821 0.11682 0.93801 0.0
H3553 H 0.87843 0.06413 0.82178 0.0
H3554 H 0.86208 0.07329 0.83465 0.0
C3555 C 0.82288 0.12612 0.9444 0.0
C3556 C 0.84344 0.10682 0.89851 0.0
H3557 H 0.85708 0.09251 0.79499 0.0
C3558 C 0.84743 0.10263 0.95323 0.0
C3559 C 0.84649 0.10264 0.84094 0.0
C3560 C 0.84186 0.10619 0.78073 0.0
C3561 C 0.85506 0.09503 0.95166 0.0
C3562 C 0.85892 0.09169 0.89388 0.0
C3563 C 0.85427 0.0952 0.83933 0.0
C3564 C 0.86854 0.08563 0.889 0.0
C3565 C 0.85913 0.0909 0.01201 0.0
C3566 C 0.87761 0.08958 0.91448 0.0
C3567 C 0.88688 0.08442 0.90713 0.0
C3568 C 0.88737 0.0752 0.87358 0.0
C3569 C 0.8783 0.0712 0.84802 0.0
C3570 C 0.86896 0.07642 0.8554 0.0
H3571 H 0.85315 0.09114 0.04859 0.0
H3572 H 0.86188 0.08289 0.00708 0.0
H3573 H 0.86562 0.09575 0.02765 0.0
H3574 H 0.87756 0.09682 0.93899 0.0
H3575 H 0.89371 0.08777 0.92728 0.0
H3576 H 0.66478 0.14076 0.63437 0.0
H3577 H 0.6559 0.12461 0.64958 0.0
H3578 H 0.67955 0.10876 0.54836 0.0
H3579 H 0.68857 0.12512 0.53206 0.0
H3580 H 0.66012 0.10339 0.51048 0.0
H3581 H 0.66215 0.10093 0.76465 0.0
H3582 H 0.65749 0.11327 0.74131 0.0
H3583 H 0.6703 0.1094 0.72046 0.0
C3584 C 0.66819 0.13386 0.61557 0.0
C3585 C 0.67741 0.13425 0.58197 0.0
C3586 C 0.66313 0.12459 0.62493 0.0
C3587 C 0.66716 0.11542 0.60143 0.0
C3588 C 0.67637 0.11573 0.56762 0.0
H3589 H 0.62679 0.06338 0.70011 0.0
H3590 H 0.64304 0.07264 0.68513 0.0
C3591 C 0.6815 0.12507 0.55828 0.0
C3592 C 0.66121 0.10578 0.60883 0.0
H3593 H 0.6475 0.09244 0.71666 0.0
C3594 C 0.65756 0.10082 0.55563 0.0
C3595 C 0.65803 0.10224 0.6677 0.0
C3596 C 0.6623 0.10668 0.72673 0.0
C3597 C 0.65012 0.09305 0.55962 0.0
C3598 C 0.6461 0.09034 0.6182 0.0
C3599 C 0.65044 0.09463 0.67163 0.0
C3600 C 0.63658 0.08416 0.62447 0.0
C3601 C 0.6464 0.08809 0.50078 0.0
C3602 C 0.62755 0.08761 0.5961 0.0
C3603 C 0.61833 0.0824 0.60466 0.0
C3604 C 0.61786 0.07362 0.6423 0.0
C3605 C 0.62691 0.0701 0.67069 0.0
C3606 C 0.63619 0.07537 0.66213 0.0
H3607 H 0.65252 0.08802 0.46507 0.0
H3608 H 0.6438 0.0801 0.50899 0.0
H3609 H 0.63987 0.09257 0.48201 0.0
H3610 H 0.62756 0.09453 0.56836 0.0
H3611 H 0.61153 0.08537 0.5822 0.0
H3612 H 0.60847 0.91875 0.41843 0.0
H3613 H 0.62411 0.90906 0.43523 0.0
H3614 H 0.64069 0.92984 0.31672 0.0
H3615 H 0.62484 0.93966 0.29885 0.0
H3616 H 0.64423 0.90962 0.28815 0.0
H3617 H 0.64922 0.915 0.53916 0.0
H3618 H 0.63637 0.91101 0.52221 0.0
H3619 H 0.64096 0.92314 0.4934 0.0
C3620 C 0.61544 0.92136 0.39622 0.0
C3621 C 0.61539 0.92999 0.35719 0.0
C3622 C 0.62442 0.91585 0.40648 0.0
C3623 C 0.63364 0.91884 0.3784 0.0
C3624 C 0.63369 0.92748 0.33951 0.0
H3625 H 0.68375 0.8761 0.47838 0.0
H3626 H 0.67536 0.89272 0.45967 0.0
C3627 C 0.62464 0.93307 0.32931 0.0
C3628 C 0.64286 0.91228 0.38613 0.0
H3629 H 0.65611 0.89908 0.49669 0.0
C3630 C 0.64702 0.90751 0.33366 0.0
C3631 C 0.64669 0.90965 0.44534 0.0
C3632 C 0.64314 0.91507 0.50311 0.0
C3633 C 0.6542 0.89955 0.33925 0.0
C3634 C 0.65715 0.89615 0.39886 0.0
C3635 C 0.65372 0.90155 0.45101 0.0
C3636 C 0.66266 0.8863 0.40818 0.0
C3637 C 0.65829 0.8946 0.28124 0.0
C3638 C 0.65822 0.8772 0.38648 0.0
C3639 C 0.66293 0.86777 0.39723 0.0
C3640 C 0.67218 0.86719 0.43042 0.0
C3641 C 0.67664 0.8763 0.45253 0.0
C3642 C 0.67187 0.88579 0.44179 0.0
H3643 H 0.65839 0.90012 0.24212 0.0
H3644 H 0.66616 0.89158 0.28821 0.0
H3645 H 0.65321 0.88814 0.268 0.0
H3646 H 0.65098 0.87735 0.36199 0.0
H3647 H 0.65924 0.86093 0.37968 0.0
H3648 H 0.62274 0.56573 0.3048 0.0
H3649 H 0.63868 0.57434 0.33724 0.0
H3650 H 0.6242 0.60374 0.31179 0.0
H3651 H 0.60836 0.59529 0.28022 0.0
H3652 H 0.64656 0.60017 0.263 0.0
H3653 H 0.63855 0.59155 0.51105 0.0
H3654 H 0.63737 0.58166 0.45315 0.0
H3655 H 0.62827 0.59194 0.45516 0.0
C3656 C 0.62305 0.57403 0.30506 0.0
C3657 C 0.61431 0.57985 0.29028 0.0
C3658 C 0.63212 0.57892 0.32379 0.0
C3659 C 0.63256 0.58966 0.32709 0.0
C3660 C 0.624 0.59544 0.3095 0.0
H3661 H 0.65559 0.6427 0.4701 0.0
H3662 H 0.64714 0.62688 0.43818 0.0
C3663 C 0.61495 0.59059 0.29161 0.0
C3664 C 0.64158 0.59508 0.35272 0.0
H3665 H 0.65077 0.60434 0.48967 0.0
C3666 C 0.64774 0.60084 0.31248 0.0
C3667 C 0.64299 0.596 0.41731 0.0
C3668 C 0.63647 0.58999 0.46211 0.0
C3669 C 0.65489 0.60795 0.33537 0.0
C3670 C 0.65581 0.60935 0.39995 0.0
C3671 C 0.65008 0.60316 0.44018 0.0
C3672 C 0.66121 0.61838 0.42554 0.0
C3673 C 0.66087 0.61449 0.29059 0.0
C3674 C 0.67194 0.61874 0.43036 0.0
C3675 C 0.67682 0.6278 0.44927 0.0
C3676 C 0.67102 0.63662 0.46273 0.0
C3677 C 0.66028 0.63606 0.45976 0.0
C3678 C 0.65543 0.62702 0.44167 0.0
H3679 H 0.65944 0.61231 0.24168 0.0
H3680 H 0.65876 0.62267 0.2969 0.0
H3681 H 0.6692 0.61376 0.30023 0.0
H3682 H 0.67651 0.61212 0.41799 0.0
H3683 H 0.68512 0.62804 0.45079 0.0
H3684 H 0.66138 0.36 0.53912 0.0
H3685 H 0.65262 0.37596 0.56466 0.0
H3686 H 0.68152 0.38987 0.61278 0.0
H3687 H 0.69045 0.37381 0.58601 0.0
H3688 H 0.66477 0.39021 0.70749 0.0
H3689 H 0.65242 0.40496 0.47902 0.0
H3690 H 0.65052 0.39141 0.48862 0.0
H3691 H 0.66332 0.39653 0.48858 0.0
C3692 C 0.66591 0.36651 0.554 0.0
C3693 C 0.67659 0.36568 0.56056 0.0
C3694 C 0.66089 0.37564 0.56828 0.0
C3695 C 0.66642 0.38412 0.59006 0.0
C3696 C 0.67714 0.38343 0.59542 0.0
H3697 H 0.62489 0.4354 0.68747 0.0
H3698 H 0.64131 0.42745 0.65788 0.0
C3699 C 0.68222 0.37429 0.57997 0.0
C3700 C 0.6607 0.39319 0.61266 0.0
H3701 H 0.64225 0.41013 0.56689 0.0
C3702 C 0.66006 0.39479 0.67672 0.0
C3703 C 0.6546 0.39919 0.57248 0.0
C3704 C 0.65529 0.39802 0.50325 0.0
C3705 C 0.65285 0.40163 0.70179 0.0
C3706 C 0.64614 0.40695 0.66177 0.0
C3707 C 0.64738 0.40601 0.59756 0.0
C3708 C 0.63682 0.41215 0.68534 0.0
C3709 C 0.65208 0.4027 0.77105 0.0
C3710 C 0.62893 0.40618 0.71061 0.0
C3711 C 0.61958 0.41064 0.72655 0.0
C3712 C 0.61795 0.42119 0.71811 0.0
C3713 C 0.62598 0.42727 0.69494 0.0
C3714 C 0.63533 0.42274 0.67791 0.0
H3715 H 0.65937 0.40051 0.79419 0.0
H3716 H 0.65009 0.41069 0.7842 0.0
H3717 H 0.64594 0.39756 0.78839 0.0
H3718 H 0.62987 0.39797 0.71592 0.0
H3719 H 0.61354 0.40576 0.74435 0.0
H3720 H 0.89368 0.41413 0.88413 0.0
H3721 H 0.87778 0.40481 0.89986 0.0
H3722 H 0.86098 0.42884 0.80776 0.0
H3723 H 0.87707 0.4383 0.79089 0.0
H3724 H 0.85982 0.41061 0.96232 0.0
H3725 H 0.85276 0.40265 0.71266 0.0
H3726 H 0.86499 0.4072 0.74031 0.0
H3727 H 0.85429 0.4158 0.73588 0.0
C3728 C 0.88663 0.4175 0.86704 0.0
C3729 C 0.88667 0.42695 0.83578 0.0
C3730 C 0.87752 0.41215 0.87642 0.0
C3731 C 0.86819 0.41608 0.85474 0.0
C3732 C 0.86811 0.42561 0.82427 0.0
H3733 H 0.81598 0.37545 0.95779 0.0
H3734 H 0.82511 0.39176 0.94198 0.0
C3735 C 0.8773 0.43101 0.81481 0.0
C3736 C 0.85876 0.40985 0.86313 0.0
H3737 H 0.84258 0.39393 0.78453 0.0
C3738 C 0.85587 0.40712 0.92352 0.0
C3739 C 0.85366 0.4053 0.81237 0.0
C3740 C 0.85656 0.4078 0.74653 0.0
C3741 C 0.84849 0.39948 0.93453 0.0
C3742 C 0.84379 0.39454 0.8837 0.0
C3743 C 0.84618 0.39775 0.82339 0.0
C3744 C 0.83774 0.38497 0.89154 0.0
C3745 C 0.84635 0.39622 0.00024 0.0
C3746 C 0.84169 0.37581 0.86756 0.0
C3747 C 0.83653 0.36658 0.87632 0.0
C3748 C 0.82724 0.36624 0.90924 0.0
C3749 C 0.82315 0.37545 0.93254 0.0
C3750 C 0.82837 0.38476 0.92368 0.0
H3751 H 0.85162 0.39994 0.03385 0.0
H3752 H 0.83838 0.39833 0.01265 0.0
H3753 H 0.8471 0.38778 0.00491 0.0
H3754 H 0.84891 0.37578 0.8428 0.0
H3755 H 0.83991 0.35967 0.85746 0.0
H3756 H 0.87793 0.56556 0.20554 0.0
H3757 H 0.86194 0.57503 0.18534 0.0
H3758 H 0.87823 0.59524 0.06183 0.0
H3759 H 0.89402 0.58591 0.08117 0.0
H3760 H 0.85835 0.59574 0.20855 0.0
H3761 H 0.85305 0.58789 0.95994 0.0
H3762 H 0.86131 0.58018 0.00839 0.0
H3763 H 0.8659 0.59202 0.97561 0.0
C3764 C 0.87804 0.57195 0.17353 0.0
C3765 C 0.88725 0.57499 0.14506 0.0
C3766 C 0.86891 0.57734 0.16202 0.0
C3767 C 0.86885 0.58572 0.1211 0.0
C3768 C 0.87802 0.58865 0.09231 0.0
H3769 H 0.84317 0.64328 0.09738 0.0
H3770 H 0.85147 0.62708 0.12101 0.0
C3771 C 0.88709 0.58335 0.104 0.0
C3772 C 0.85953 0.59209 0.11167 0.0
H3773 H 0.84594 0.60402 0.9974 0.0
C3774 C 0.85544 0.59735 0.16257 0.0
C3775 C 0.85558 0.59408 0.05188 0.0
C3776 C 0.85912 0.58815 0.99597 0.0
C3777 C 0.84818 0.6052 0.15453 0.0
C3778 C 0.84506 0.60793 0.09401 0.0
C3779 C 0.84844 0.60204 0.04373 0.0
C3780 C 0.83951 0.61765 0.08143 0.0
C3781 C 0.84422 0.61076 0.21079 0.0
C3782 C 0.8301 0.61778 0.04973 0.0
C3783 C 0.82529 0.62714 0.03574 0.0
C3784 C 0.82992 0.63648 0.05247 0.0
C3785 C 0.83936 0.63626 0.08384 0.0
C3786 C 0.84409 0.62697 0.09799 0.0
H3787 H 0.84436 0.60573 0.25224 0.0
H3788 H 0.84923 0.61745 0.22042 0.0
H3789 H 0.83628 0.61358 0.20354 0.0
H3790 H 0.82649 0.61067 0.03583 0.0
H3791 H 0.81803 0.62706 0.0114 0.0
H3792 H 0.33703 0.35875 0.66636 0.0
H3793 H 0.34603 0.37454 0.69107 0.0
H3794 H 0.32376 0.39188 0.58714 0.0
H3795 H 0.3147 0.37592 0.56114 0.0
H3796 H 0.34313 0.39658 0.55363 0.0
H3797 H 0.34084 0.39799 0.8079 0.0
H3798 H 0.34523 0.38564 0.78325 0.0
H3799 H 0.33255 0.38989 0.76218 0.0
C3800 C 0.33392 0.36592 0.64943 0.0
C3801 C 0.32516 0.36606 0.61156 0.0
C3802 C 0.33903 0.37498 0.66422 0.0
C3803 C 0.33549 0.38444 0.64198 0.0
C3804 C 0.32658 0.38467 0.60538 0.0
H3805 H 0.37728 0.43544 0.74344 0.0
H3806 H 0.36082 0.42648 0.72901 0.0
C3807 C 0.32141 0.37556 0.59061 0.0
C3808 C 0.34183 0.39378 0.65155 0.0
H3809 H 0.35588 0.40619 0.76188 0.0
C3810 C 0.34571 0.39885 0.5993 0.0
C3811 C 0.34508 0.39694 0.71108 0.0
C3812 C 0.34061 0.39239 0.76924 0.0
C3813 C 0.3534 0.40633 0.60474 0.0
C3814 C 0.35744 0.40867 0.66384 0.0
C3815 C 0.35292 0.40428 0.71645 0.0
C3816 C 0.36713 0.41452 0.67109 0.0
C3817 C 0.35742 0.41137 0.54683 0.0
C3818 C 0.37612 0.41069 0.64416 0.0
C3819 C 0.38545 0.41571 0.6525 0.0
C3820 C 0.38605 0.42468 0.68831 0.0
C3821 C 0.37705 0.42856 0.7154 0.0
C3822 C 0.36766 0.42346 0.70721 0.0
H3823 H 0.35146 0.4116 0.51015 0.0
H3824 H 0.36007 0.41931 0.55612 0.0
H3825 H 0.36399 0.40687 0.52883 0.0
H3826 H 0.37596 0.40367 0.61739 0.0
H3827 H 0.39221 0.41247 0.63099 0.0
H3828 H 0.39108 0.58583 0.42462 0.0
H3829 H 0.37534 0.5953 0.44178 0.0
H3830 H 0.35902 0.57456 0.32161 0.0
H3831 H 0.375 0.56496 0.30333 0.0
H3832 H 0.35521 0.59474 0.29435 0.0
H3833 H 0.35028 0.58901 0.54491 0.0
H3834 H 0.36312 0.5931 0.52867 0.0
H3835 H 0.35861 0.581 0.4989 0.0
C3836 C 0.38415 0.58317 0.4021 0.0
C3837 C 0.38431 0.57462 0.36249 0.0
C3838 C 0.3751 0.58855 0.41259 0.0
C3839 C 0.36593 0.58552 0.38419 0.0
C3840 C 0.36599 0.57695 0.34469 0.0
H3841 H 0.31704 0.62914 0.49077 0.0
H3842 H 0.32464 0.61223 0.46935 0.0
C3843 C 0.37511 0.57149 0.33425 0.0
C3844 C 0.35665 0.59198 0.39221 0.0
H3845 H 0.34358 0.60516 0.50358 0.0
C3846 C 0.35246 0.59681 0.34 0.0
C3847 C 0.35285 0.59455 0.45158 0.0
C3848 C 0.35638 0.58904 0.50907 0.0
C3849 C 0.34534 0.60483 0.34607 0.0
C3850 C 0.3425 0.60822 0.40587 0.0
C3851 C 0.3459 0.60271 0.45772 0.0
C3852 C 0.33731 0.61823 0.41578 0.0
C3853 C 0.34124 0.60985 0.28831 0.0
C3854 C 0.34197 0.62719 0.39361 0.0
C3855 C 0.33771 0.63676 0.40588 0.0
C3856 C 0.3287 0.63767 0.44115 0.0
C3857 C 0.32397 0.6287 0.46333 0.0
C3858 C 0.32829 0.61904 0.45106 0.0
H3859 H 0.34087 0.60429 0.24945 0.0
H3860 H 0.33348 0.61312 0.29591 0.0
H3861 H 0.34649 0.61614 0.27427 0.0
H3862 H 0.34908 0.6268 0.36789 0.0
H3863 H 0.34159 0.64349 0.38812 0.0
H3864 H 0.12501 0.56361 0.17698 0.0
H3865 H 0.1405 0.57292 0.14381 0.0
H3866 H 0.12628 0.60152 0.19499 0.0
H3867 H 0.11088 0.59236 0.2271 0.0
H3868 H 0.13957 0.58861 0.04802 0.0
H3869 H 0.15583 0.60377 0.26603 0.0
H3870 H 0.14751 0.59268 0.26361 0.0
H3871 H 0.14219 0.60539 0.26081 0.0
C3872 C 0.12533 0.57186 0.18252 0.0
C3873 C 0.11676 0.57728 0.20457 0.0
C3874 C 0.13414 0.57716 0.16341 0.0
C3875 C 0.13457 0.5879 0.16763 0.0
C3876 C 0.12619 0.59323 0.19232 0.0
H3877 H 0.1525 0.63987 0.98519 0.0
H3878 H 0.14561 0.62377 0.02477 0.0
C3879 C 0.11736 0.58799 0.21033 0.0
C3880 C 0.14314 0.59382 0.14007 0.0
H3881 H 0.15956 0.61345 0.17314 0.0
C3882 C 0.14417 0.59384 0.07545 0.0
C3883 C 0.14918 0.60059 0.17585 0.0
C3884 C 0.14871 0.60056 0.24551 0.0
C3885 C 0.15043 0.60106 0.04552 0.0
C3886 C 0.15575 0.60842 0.08112 0.0
C3887 C 0.15542 0.60783 0.14588 0.0
C3888 C 0.16033 0.61765 0.05226 0.0
C3889 C 0.15088 0.60114 0.97585 0.0
C3890 C 0.17093 0.61954 0.05447 0.0
C3891 C 0.17493 0.62875 0.03107 0.0
C3892 C 0.16833 0.63626 0.00658 0.0
C3893 C 0.15777 0.63425 0.00384 0.0
C3894 C 0.15382 0.62503 0.02618 0.0
H3895 H 0.14877 0.59356 0.9562 0.0
H3896 H 0.14537 0.60691 0.95794 0.0
H3897 H 0.15866 0.60326 0.95941 0.0
H3898 H 0.17605 0.61397 0.075 0.0
H3899 H 0.18309 0.63016 0.03424 0.0
H3900 H 0.1641 0.3595 0.88315 0.0
H3901 H 0.1552 0.37557 0.86537 0.0
H3902 H 0.1782 0.39172 0.97036 0.0
H3903 H 0.18725 0.37543 0.98908 0.0
H3904 H 0.15828 0.39685 0.00406 0.0
H3905 H 0.16217 0.39923 0.75051 0.0
H3906 H 0.15757 0.38684 0.77331 0.0
H3907 H 0.17015 0.39095 0.79719 0.0
C3908 C 0.16736 0.36644 0.90229 0.0
C3909 C 0.17641 0.36616 0.93759 0.0
C3910 C 0.16229 0.37567 0.89147 0.0
C3911 C 0.16614 0.38489 0.91528 0.0
C3912 C 0.17516 0.3847 0.95085 0.0
H3913 H 0.12602 0.43667 0.80709 0.0
H3914 H 0.14226 0.4276 0.82634 0.0
C3915 C 0.18031 0.3754 0.96157 0.0
C3916 C 0.16017 0.39447 0.90616 0.0
H3917 H 0.14718 0.40767 0.79445 0.0
C3918 C 0.15606 0.3994 0.95822 0.0
C3919 C 0.15741 0.39797 0.84642 0.0
C3920 C 0.16216 0.39353 0.78873 0.0
C3921 C 0.14857 0.40708 0.95207 0.0
C3922 C 0.14499 0.40976 0.89238 0.0
C3923 C 0.14979 0.40551 0.84028 0.0
C3924 C 0.13544 0.4158 0.88341 0.0
C3925 C 0.14429 0.41197 0.00973 0.0
C3926 C 0.12623 0.4121 0.90829 0.0
C3927 C 0.11702 0.41719 0.89719 0.0
C3928 C 0.11675 0.42609 0.86053 0.0
C3929 C 0.12598 0.42985 0.83567 0.0
C3930 C 0.13526 0.42469 0.84667 0.0
H3931 H 0.15007 0.41204 0.04747 0.0
H3932 H 0.14173 0.41995 0.00087 0.0
H3933 H 0.13762 0.40744 0.02607 0.0
H3934 H 0.12612 0.40511 0.93531 0.0
H3935 H 0.11008 0.41405 0.91707 0.0
loop_
_geom_bond_atom_site_label_1
_geom_bond_atom_site_label_2
_geom_bond_distance
_geom_bond_site_symmetry_2
_ccdc_geom_bond_type
C0 C1 1.351 . S
C0 N3 1.368 . S
C0 H5 0.931 . S
C1 C0 1.351 . S
C1 N2 1.373 . S
C1 H29 0.930 . S
N2 C1 1.373 . S
N2 C4 1.340 . S
N3 C0 1.368 . S
N3 C4 1.321 . S
N3 Co6 2.135 . S
C4 N2 1.340 . S
C4 N3 1.321 . S
C4 H28 0.930 . S
H5 C0 0.931 . S
Co6 N3 2.135 . S
Co6 N9 2.121 1_554 S
Co6 O14 2.055 . S
Co6 O17 2.039 . S
Co6 N20 2.140 . S
C7 O8 1.227 . S
C7 O17 1.265 . S
O8 C7 1.227 . S
N9 Co6 2.121 1_556 S
N9 C11 1.375 . S
N9 C12 1.313 . S
C10 C11 1.338 . S
C10 N13 1.377 . S
C10 H30 0.930 . S
C11 N9 1.375 . S
C11 C10 1.338 . S
C11 H15 0.931 . S
C12 N9 1.313 . S
C12 N13 1.344 . S
C12 H16 0.930 . S
N13 C10 1.377 . S
N13 C12 1.344 . S
O14 Co6 2.055 . S
O14 C18 1.253 . S
H15 C11 0.931 . S
H16 C12 0.930 . S
O17 Co6 2.039 . S
O17 C7 1.265 . S
C18 O14 1.253 . S
C18 O19 1.227 . S
O19 C18 1.227 . S
N20 Co6 2.140 . S
N20 C23 1.346 . S
N20 C24 1.345 . S
C21 C22 1.387 . S
C21 C25 1.391 . S
C22 C21 1.387 . S
C22 C23 1.369 . S
C22 H31 0.929 . S
C23 N20 1.346 . S
C23 C22 1.369 . S
C23 H26 0.928 . S
C24 N20 1.345 . S
C24 C25 1.371 . S
C24 H27 0.931 1_554 S
C25 C21 1.391 . S
C25 C24 1.371 . S
C25 H32 0.930 1_554 S
H26 C23 0.928 . S
H27 C24 0.931 1_556 S
H28 C4 0.930 . S
H29 C1 0.930 . S
H30 C10 0.930 . S
H31 C22 0.929 . S
H32 C25 0.930 1_556 S
C33 C34 1.351 . S
C33 N36 1.368 . S
C33 H38 0.931 . S
C34 C33 1.351 . S
C34 N35 1.373 . S
C34 H62 0.930 . S
N35 C34 1.373 . S
N35 C37 1.340 . S
N36 C33 1.368 . S
N36 C37 1.321 . S
N36 Co39 2.135 . S
C37 N35 1.340 . S
C37 N36 1.321 . S
C37 H61 0.930 . S
H38 C33 0.931 . S
Co39 N36 2.135 . S
Co39 N42 2.121 . S
Co39 O47 2.055 . S
Co39 O50 2.039 . S
Co39 N53 2.140 . S
C40 O41 1.227 . S
C40 O50 1.265 . S
O41 C40 1.227 . S
N42 Co39 2.121 . S
N42 C44 1.375 . S
N42 C45 1.313 . S
C43 C44 1.338 . S
C43 N46 1.377 . S
C43 H63 0.930 . S
C44 N42 1.375 . S
C44 C43 1.338 . S
C44 H48 0.931 . S
C45 N42 1.313 . S
C45 N46 1.344 . S
C45 H49 0.930 . S
N46 C43 1.377 . S
N46 C45 1.344 . S
O47 Co39 2.055 . S
O47 C51 1.253 . S
H48 C44 0.931 . S
H49 C45 0.930 . S
O50 Co39 2.039 . S
O50 C40 1.265 . S
C51 O47 1.253 . S
C51 O52 1.227 . S
O52 C51 1.227 . S
N53 Co39 2.140 . S
N53 C56 1.346 . S
N53 C57 1.345 . S
C54 C55 1.387 . S
C54 C58 1.391 . S
C55 C54 1.387 . S
C55 C56 1.369 . S
C55 H64 0.929 . S
C56 N53 1.346 . S
C56 C55 1.369 . S
C56 H59 0.928 . S
C57 N53 1.345 . S
C57 C58 1.371 . S
C57 H60 0.931 . S
C58 C54 1.391 . S
C58 C57 1.371 . S
C58 H65 0.930 . S
H59 C56 0.928 . S
H60 C57 0.931 . S
H61 C37 0.930 . S
H62 C34 0.930 . S
H63 C43 0.930 . S
H64 C55 0.929 . S
H65 C58 0.930 . S
C66 C67 1.351 . S
C66 N69 1.368 . S
C66 H71 0.931 . S
C67 C66 1.351 . S
C67 N68 1.373 . S
C67 H95 0.930 . S
N68 C67 1.373 . S
N68 C70 1.340 . S
N69 C66 1.368 . S
N69 C70 1.321 . S
N69 Co72 2.135 . S
C70 N68 1.340 . S
C70 N69 1.321 . S
C70 H94 0.930 . S
H71 C66 0.931 . S
Co72 N69 2.135 . S
Co72 N75 2.121 . S
Co72 O80 2.055 . S
Co72 O83 2.039 . S
Co72 N86 2.140 . S
C73 O74 1.227 . S
C73 O83 1.265 . S
O74 C73 1.227 . S
N75 Co72 2.121 . S
N75 C77 1.375 . S
N75 C78 1.313 . S
C76 C77 1.338 . S
C76 N79 1.377 . S
C76 H96 0.930 . S
C77 N75 1.375 . S
C77 C76 1.338 . S
C77 H81 0.931 . S
C78 N75 1.313 . S
C78 N79 1.344 . S
C78 H82 0.930 . S
N79 C76 1.377 . S
N79 C78 1.344 . S
O80 Co72 2.055 . S
O80 C84 1.253 . S
H81 C77 0.931 . S
H82 C78 0.930 . S
O83 Co72 2.039 . S
O83 C73 1.265 . S
C84 O80 1.253 . S
C84 O85 1.227 . S
O85 C84 1.227 . S
N86 Co72 2.140 . S
N86 C89 1.346 . S
N86 C90 1.345 . S
C87 C88 1.387 . S
C87 C91 1.391 . S
C88 C87 1.387 . S
C88 C89 1.369 . S
C88 H97 0.929 . S
C89 N86 1.346 . S
C89 C88 1.369 . S
C89 H92 0.928 . S
C90 N86 1.345 . S
C90 C91 1.371 . S
C90 H93 0.931 . S
C91 C87 1.391 . S
C91 C90 1.371 . S
C91 H98 0.930 . S
H92 C89 0.928 . S
H93 C90 0.931 . S
H94 C70 0.930 . S
H95 C67 0.930 . S
H96 C76 0.930 . S
H97 C88 0.929 . S
H98 C91 0.930 . S
C99 C100 1.361 . S
C99 N102 1.368 . S
C99 H104 0.931 . S
C100 C99 1.361 . S
C100 N101 1.369 1_556 S
C100 H128 0.924 1_556 S
N101 C100 1.369 1_554 S
N101 C103 1.340 1_554 S
N102 C99 1.368 . S
N102 C103 1.321 . S
N102 Co105 2.135 . S
C103 N101 1.340 1_556 S
C103 N102 1.321 . S
C103 H127 0.930 . S
H104 C99 0.931 . S
Co105 N102 2.135 . S
Co105 N108 2.121 . S
Co105 O113 2.055 . S
Co105 O116 2.039 . S
Co105 N119 2.140 . S
C106 O107 1.227 . S
C106 O116 1.265 . S
O107 C106 1.227 . S
N108 Co105 2.121 . S
N108 C110 1.375 . S
N108 C111 1.313 . S
C109 C110 1.338 . S
C109 N112 1.377 . S
C109 H129 0.930 . S
C110 N108 1.375 . S
C110 C109 1.338 . S
C110 H114 0.931 . S
C111 N108 1.313 . S
C111 N112 1.344 . S
C111 H115 0.930 . S
N112 C109 1.377 . S
N112 C111 1.344 . S
O113 Co105 2.055 . S
O113 C117 1.253 . S
H114 C110 0.931 . S
H115 C111 0.930 . S
O116 Co105 2.039 . S
O116 C106 1.265 . S
C117 O113 1.253 . S
C117 O118 1.227 . S
O118 C117 1.227 . S
N119 Co105 2.140 . S
N119 C122 1.346 . S
N119 C123 1.345 . S
C120 C121 1.387 . S
C120 C124 1.391 . S
C121 C120 1.387 . S
C121 C122 1.369 . S
C121 H130 0.929 . S
C122 N119 1.346 . S
C122 C121 1.369 . S
C122 H125 0.928 . S
C123 N119 1.345 . S
C123 C124 1.371 . S
C123 H126 0.931 . S
C124 C120 1.391 . S
C124 C123 1.371 . S
C124 H131 0.930 . S
H125 C122 0.928 . S
H126 C123 0.931 . S
H127 C103 0.930 . S
H128 C100 0.924 1_554 S
H129 C109 0.930 . S
H130 C121 0.929 . S
H131 C124 0.930 . S
C132 C133 1.351 . S
C132 N135 1.368 . S
C132 H137 0.931 . S
C133 C132 1.351 . S
C133 N134 1.373 . S
C133 H161 0.930 . S
N134 C133 1.373 . S
N134 C136 1.340 . S
N135 C132 1.368 . S
N135 C136 1.321 . S
N135 Co138 2.135 . S
C136 N134 1.340 . S
C136 N135 1.321 . S
C136 H160 0.930 . S
H137 C132 0.931 . S
Co138 N135 2.135 . S
Co138 N141 2.121 1_556 S
Co138 O146 2.055 . S
Co138 O149 2.039 . S
Co138 N152 2.140 . S
C139 O140 1.227 . S
C139 O149 1.265 . S
O140 C139 1.227 . S
N141 Co138 2.121 1_554 S
N141 C143 1.375 . S
N141 C144 1.313 . S
C142 C143 1.338 . S
C142 N145 1.377 . S
C142 H162 0.930 . S
C143 N141 1.375 . S
C143 C142 1.338 . S
C143 H147 0.931 . S
C144 N141 1.313 . S
C144 N145 1.344 . S
C144 H148 0.930 . S
N145 C142 1.377 . S
N145 C144 1.344 . S
O146 Co138 2.055 . S
O146 C150 1.253 . S
H147 C143 0.931 . S
H148 C144 0.930 . S
O149 Co138 2.039 . S
O149 C139 1.265 . S
C150 O146 1.253 . S
C150 O151 1.227 . S
O151 C150 1.227 . S
N152 Co138 2.140 . S
N152 C155 1.346 . S
N152 C156 1.345 . S
C153 C154 1.387 . S
C153 C157 1.391 . S
C154 C153 1.387 . S
C154 C155 1.369 . S
C154 H163 0.929 . S
C155 N152 1.346 . S
C155 C154 1.369 . S
C155 H158 0.928 . S
C156 N152 1.345 . S
C156 C157 1.371 . S
C156 H159 0.931 1_556 S
C157 C153 1.391 . S
C157 C156 1.371 . S
C157 H164 0.930 1_556 S
H158 C155 0.928 . S
H159 C156 0.931 1_554 S
H160 C136 0.930 . S
H161 C133 0.930 . S
H162 C142 0.930 . S
H163 C154 0.929 . S
H164 C157 0.930 1_554 S
C165 C166 1.361 . S
C165 N168 1.368 . S
C165 H170 0.931 . S
C166 C165 1.361 . S
C166 N167 1.369 1_554 S
C166 H194 0.924 1_554 S
N167 C166 1.369 1_556 S
N167 C169 1.340 1_556 S
N168 C165 1.368 . S
N168 C169 1.321 . S
N168 Co171 2.135 . S
C169 N167 1.340 1_554 S
C169 N168 1.321 . S
C169 H193 0.930 . S
H170 C165 0.931 . S
Co171 N168 2.135 . S
Co171 N174 2.121 . S
Co171 O179 2.055 . S
Co171 O182 2.039 . S
Co171 N185 2.140 . S
C172 O173 1.227 . S
C172 O182 1.265 . S
O173 C172 1.227 . S
N174 Co171 2.121 . S
N174 C176 1.375 . S
N174 C177 1.313 . S
C175 C176 1.338 . S
C175 N178 1.377 . S
C175 H195 0.930 . S
C176 N174 1.375 . S
C176 C175 1.338 . S
C176 H180 0.931 . S
C177 N174 1.313 . S
C177 N178 1.344 . S
C177 H181 0.930 . S
N178 C175 1.377 . S
N178 C177 1.344 . S
O179 Co171 2.055 . S
O179 C183 1.253 . S
H180 C176 0.931 . S
H181 C177 0.930 . S
O182 Co171 2.039 . S
O182 C172 1.265 . S
C183 O179 1.253 . S
C183 O184 1.227 . S
O184 C183 1.227 . S
N185 Co171 2.140 . S
N185 C188 1.346 . S
N185 C189 1.345 . S
C186 C187 1.387 . S
C186 C190 1.391 . S
C187 C186 1.387 . S
C187 C188 1.369 . S
C187 H196 0.929 . S
C188 N185 1.346 . S
C188 C187 1.369 . S
C188 H191 0.928 . S
C189 N185 1.345 . S
C189 C190 1.371 . S
C189 H192 0.931 . S
C190 C186 1.391 . S
C190 C189 1.371 . S
C190 H197 0.930 . S
H191 C188 0.928 . S
H192 C189 0.931 . S
H193 C169 0.930 . S
H194 C166 0.924 1_556 S
H195 C175 0.930 . S
H196 C187 0.929 . S
H197 C190 0.930 . S
C198 C199 1.351 . S
C198 N201 1.368 . S
C198 H203 0.931 . S
C199 C198 1.351 . S
C199 N200 1.373 . S
C199 H227 0.930 . S
N200 C199 1.373 . S
N200 C202 1.340 . S
N201 C198 1.368 . S
N201 C202 1.321 . S
N201 Co204 2.135 . S
C202 N200 1.340 . S
C202 N201 1.321 . S
C202 H226 0.930 . S
H203 C198 0.931 . S
Co204 N201 2.135 . S
Co204 N207 2.121 . S
Co204 O212 2.055 . S
Co204 O215 2.039 . S
Co204 N218 2.140 . S
C205 O206 1.227 . S
C205 O215 1.265 . S
O206 C205 1.227 . S
N207 Co204 2.121 . S
N207 C209 1.375 . S
N207 C210 1.313 . S
C208 C209 1.338 . S
C208 N211 1.377 . S
C208 H228 0.930 . S
C209 N207 1.375 . S
C209 C208 1.338 . S
C209 H213 0.931 . S
C210 N207 1.313 . S
C210 N211 1.344 . S
C210 H214 0.930 . S
N211 C208 1.377 . S
N211 C210 1.344 . S
O212 Co204 2.055 . S
O212 C216 1.253 . S
H213 C209 0.931 . S
H214 C210 0.930 . S
O215 Co204 2.039 . S
O215 C205 1.265 . S
C216 O212 1.253 . S
C216 O217 1.227 . S
O217 C216 1.227 . S
N218 Co204 2.140 . S
N218 C221 1.346 . S
N218 C222 1.345 . S
C219 C220 1.387 . S
C219 C223 1.391 . S
C220 C219 1.387 . S
C220 C221 1.369 . S
C220 H229 0.929 . S
C221 N218 1.346 . S
C221 C220 1.369 . S
C221 H224 0.928 . S
C222 N218 1.345 . S
C222 C223 1.371 . S
C222 H225 0.931 . S
C223 C219 1.391 . S
C223 C222 1.371 . S
C223 H230 0.930 . S
H224 C221 0.928 . S
H225 C222 0.931 . S
H226 C202 0.930 . S
H227 C199 0.930 . S
H228 C208 0.930 . S
H229 C220 0.929 . S
H230 C223 0.930 . S
C231 C232 1.351 . S
C231 N234 1.368 . S
C231 H236 0.931 . S
C232 C231 1.351 . S
C232 N233 1.373 . S
C232 H260 0.930 . S
N233 C232 1.373 . S
N233 C235 1.340 . S
N234 C231 1.368 . S
N234 C235 1.321 . S
N234 Co237 2.135 . S
C235 N233 1.340 . S
C235 N234 1.321 . S
C235 H259 0.930 . S
H236 C231 0.931 . S
Co237 N234 2.135 . S
Co237 N240 2.121 . S
Co237 O245 2.055 . S
Co237 O248 2.039 . S
Co237 N251 2.140 . S
C238 O239 1.227 . S
C238 O248 1.265 . S
O239 C238 1.227 . S
N240 Co237 2.121 . S
N240 C242 1.375 . S
N240 C243 1.313 . S
C241 C242 1.338 . S
C241 N244 1.377 . S
C241 H261 0.930 . S
C242 N240 1.375 . S
C242 C241 1.338 . S
C242 H246 0.931 . S
C243 N240 1.313 . S
C243 N244 1.344 . S
C243 H247 0.930 . S
N244 C241 1.377 . S
N244 C243 1.344 . S
O245 Co237 2.055 . S
O245 C249 1.253 . S
H246 C242 0.931 . S
H247 C243 0.930 . S
O248 Co237 2.039 . S
O248 C238 1.265 . S
C249 O245 1.253 . S
C249 O250 1.227 . S
O250 C249 1.227 . S
N251 Co237 2.140 . S
N251 C254 1.346 . S
N251 C255 1.345 . S
C252 C253 1.387 . S
C252 C256 1.391 . S
C253 C252 1.387 . S
C253 C254 1.369 . S
C253 H262 0.929 . S
C254 N251 1.346 . S
C254 C253 1.369 . S
C254 H257 0.928 . S
C255 N251 1.345 . S
C255 C256 1.371 . S
C255 H258 0.931 . S
C256 C252 1.391 . S
C256 C255 1.371 . S
C256 H263 0.930 . S
H257 C254 0.928 . S
H258 C255 0.931 . S
H259 C235 0.930 . S
H260 C232 0.930 . S
H261 C241 0.930 . S
H262 C253 0.929 . S
H263 C256 0.930 . S
C264 C265 1.351 . S
C264 N267 1.368 . S
C264 H269 0.931 . S
C265 C264 1.351 . S
C265 N266 1.373 . S
C265 H293 0.930 . S
N266 C265 1.373 . S
N266 C268 1.340 . S
N267 C264 1.368 . S
N267 C268 1.321 . S
N267 Co270 2.135 . S
C268 N266 1.340 . S
C268 N267 1.321 . S
C268 H292 0.930 . S
H269 C264 0.931 . S
Co270 N267 2.135 . S
Co270 N273 2.121 1_556 S
Co270 O278 2.055 . S
Co270 O281 2.039 . S
Co270 N284 2.140 . S
C271 O272 1.227 . S
C271 O281 1.265 . S
O272 C271 1.227 . S
N273 Co270 2.121 1_554 S
N273 C275 1.375 . S
N273 C276 1.313 . S
C274 C275 1.338 . S
C274 N277 1.377 . S
C274 H294 0.930 . S
C275 N273 1.375 . S
C275 C274 1.338 . S
C275 H279 0.931 . S
C276 N273 1.313 . S
C276 N277 1.344 . S
C276 H280 0.930 . S
N277 C274 1.377 . S
N277 C276 1.344 . S
O278 Co270 2.055 . S
O278 C282 1.253 . S
H279 C275 0.931 . S
H280 C276 0.930 . S
O281 Co270 2.039 . S
O281 C271 1.265 . S
C282 O278 1.253 . S
C282 O283 1.227 . S
O283 C282 1.227 . S
N284 Co270 2.140 . S
N284 C287 1.346 . S
N284 C288 1.345 . S
C285 C286 1.387 . S
C285 C289 1.391 . S
C286 C285 1.387 . S
C286 C287 1.369 . S
C286 H295 0.929 . S
C287 N284 1.346 . S
C287 C286 1.369 . S
C287 H290 0.928 . S
C288 N284 1.345 . S
C288 C289 1.371 . S
C288 H291 0.931 1_556 S
C289 C285 1.391 . S
C289 C288 1.371 . S
C289 H296 0.930 1_556 S
H290 C287 0.928 . S
H291 C288 0.931 1_554 S
H292 C268 0.930 . S
H293 C265 0.930 . S
H294 C274 0.930 . S
H295 C286 0.929 . S
H296 C289 0.930 1_554 S
C297 C298 1.351 . S
C297 N300 1.368 . S
C297 H302 0.931 . S
C298 C297 1.351 . S
C298 N299 1.373 . S
C298 H326 0.930 . S
N299 C298 1.373 . S
N299 C301 1.340 . S
N300 C297 1.368 . S
N300 C301 1.321 . S
N300 Co303 2.135 . S
C301 N299 1.340 . S
C301 N300 1.321 . S
C301 H325 0.930 . S
H302 C297 0.931 . S
Co303 N300 2.135 . S
Co303 N306 2.121 . S
Co303 O311 2.055 . S
Co303 O314 2.039 . S
Co303 N317 2.140 . S
C304 O305 1.227 . S
C304 O314 1.265 . S
O305 C304 1.227 . S
N306 Co303 2.121 . S
N306 C308 1.375 . S
N306 C309 1.313 . S
C307 C308 1.338 . S
C307 N310 1.377 . S
C307 H327 0.930 . S
C308 N306 1.375 . S
C308 C307 1.338 . S
C308 H312 0.931 . S
C309 N306 1.313 . S
C309 N310 1.344 . S
C309 H313 0.930 . S
N310 C307 1.377 . S
N310 C309 1.344 . S
O311 Co303 2.055 . S
O311 C315 1.253 . S
H312 C308 0.931 . S
H313 C309 0.930 . S
O314 Co303 2.039 . S
O314 C304 1.265 . S
C315 O311 1.253 . S
C315 O316 1.227 . S
O316 C315 1.227 . S
N317 Co303 2.140 . S
N317 C320 1.346 . S
N317 C321 1.345 . S
C318 C319 1.387 . S
C318 C322 1.391 . S
C319 C318 1.387 . S
C319 C320 1.369 . S
C319 H328 0.929 . S
C320 N317 1.346 . S
C320 C319 1.369 . S
C320 H323 0.928 . S
C321 N317 1.345 . S
C321 C322 1.371 . S
C321 H324 0.931 . S
C322 C318 1.391 . S
C322 C321 1.371 . S
C322 H329 0.930 . S
H323 C320 0.928 . S
H324 C321 0.931 . S
H325 C301 0.930 . S
H326 C298 0.930 . S
H327 C307 0.930 . S
H328 C319 0.929 . S
H329 C322 0.930 . S
C330 C331 1.351 . S
C330 N333 1.368 . S
C330 H335 0.931 . S
C331 C330 1.351 . S
C331 N332 1.373 . S
C331 H359 0.930 . S
N332 C331 1.373 . S
N332 C334 1.340 . S
N333 C330 1.368 . S
N333 C334 1.321 . S
N333 Co336 2.135 . S
C334 N332 1.340 . S
C334 N333 1.321 . S
C334 H358 0.930 . S
H335 C330 0.931 . S
Co336 N333 2.135 . S
Co336 N339 2.121 . S
Co336 O344 2.055 . S
Co336 O347 2.039 . S
Co336 N350 2.140 . S
C337 O338 1.227 . S
C337 O347 1.265 . S
O338 C337 1.227 . S
N339 Co336 2.121 . S
N339 C341 1.375 . S
N339 C342 1.313 . S
C340 C341 1.338 . S
C340 N343 1.377 . S
C340 H360 0.930 . S
C341 N339 1.375 . S
C341 C340 1.338 . S
C341 H345 0.931 . S
C342 N339 1.313 . S
C342 N343 1.344 . S
C342 H346 0.930 . S
N343 C340 1.377 . S
N343 C342 1.344 . S
O344 Co336 2.055 . S
O344 C348 1.253 . S
H345 C341 0.931 . S
H346 C342 0.930 . S
O347 Co336 2.039 . S
O347 C337 1.265 . S
C348 O344 1.253 . S
C348 O349 1.227 . S
O349 C348 1.227 . S
N350 Co336 2.140 . S
N350 C353 1.346 . S
N350 C354 1.345 . S
C351 C352 1.387 . S
C351 C355 1.391 . S
C352 C351 1.387 . S
C352 C353 1.369 . S
C352 H361 0.929 . S
C353 N350 1.346 . S
C353 C352 1.369 . S
C353 H356 0.928 . S
C354 N350 1.345 . S
C354 C355 1.371 . S
C354 H357 0.931 . S
C355 C351 1.391 . S
C355 C354 1.371 . S
C355 H362 0.930 . S
H356 C353 0.928 . S
H357 C354 0.931 . S
H358 C334 0.930 . S
H359 C331 0.930 . S
H360 C340 0.930 . S
H361 C352 0.929 . S
H362 C355 0.930 . S
C363 C364 1.361 . S
C363 N366 1.368 . S
C363 H368 0.931 . S
C364 C363 1.361 . S
C364 N365 1.369 1_554 S
C364 H392 0.924 1_554 S
N365 C364 1.369 1_556 S
N365 C367 1.340 1_556 S
N366 C363 1.368 . S
N366 C367 1.321 . S
N366 Co369 2.135 . S
C367 N365 1.340 1_554 S
C367 N366 1.321 . S
C367 H391 0.930 . S
H368 C363 0.931 . S
Co369 N366 2.135 . S
Co369 N372 2.121 . S
Co369 O377 2.055 . S
Co369 O380 2.039 . S
Co369 N383 2.140 . S
C370 O371 1.227 . S
C370 O380 1.265 . S
O371 C370 1.227 . S
N372 Co369 2.121 . S
N372 C374 1.375 . S
N372 C375 1.313 . S
C373 C374 1.338 . S
C373 N376 1.377 . S
C373 H393 0.930 . S
C374 N372 1.375 . S
C374 C373 1.338 . S
C374 H378 0.931 . S
C375 N372 1.313 . S
C375 N376 1.344 . S
C375 H379 0.930 . S
N376 C373 1.377 . S
N376 C375 1.344 . S
O377 Co369 2.055 . S
O377 C381 1.253 . S
H378 C374 0.931 . S
H379 C375 0.930 . S
O380 Co369 2.039 . S
O380 C370 1.265 . S
C381 O377 1.253 . S
C381 O382 1.227 . S
O382 C381 1.227 . S
N383 Co369 2.140 . S
N383 C386 1.346 . S
N383 C387 1.345 . S
C384 C385 1.387 . S
C384 C388 1.391 . S
C385 C384 1.387 . S
C385 C386 1.369 . S
C385 H394 0.929 . S
C386 N383 1.346 . S
C386 C385 1.369 . S
C386 H389 0.928 . S
C387 N383 1.345 . S
C387 C388 1.371 . S
C387 H390 0.931 . S
C388 C384 1.391 . S
C388 C387 1.371 . S
C388 H395 0.930 . S
H389 C386 0.928 . S
H390 C387 0.931 . S
H391 C367 0.930 . S
H392 C364 0.924 1_556 S
H393 C373 0.930 . S
H394 C385 0.929 . S
H395 C388 0.930 . S
C396 C397 1.351 . S
C396 N399 1.368 . S
C396 H401 0.931 . S
C397 C396 1.351 . S
C397 N398 1.373 . S
C397 H425 0.930 . S
N398 C397 1.373 . S
N398 C400 1.340 . S
N399 C396 1.368 . S
N399 C400 1.321 . S
N399 Co402 2.135 . S
C400 N398 1.340 . S
C400 N399 1.321 . S
C400 H424 0.930 . S
H401 C396 0.931 . S
Co402 N399 2.135 . S
Co402 N405 2.121 1_554 S
Co402 O410 2.055 . S
Co402 O413 2.039 . S
Co402 N416 2.140 . S
C403 O404 1.227 . S
C403 O413 1.265 . S
O404 C403 1.227 . S
N405 Co402 2.121 1_556 S
N405 C407 1.375 . S
N405 C408 1.313 . S
C406 C407 1.338 . S
C406 N409 1.377 . S
C406 H426 0.930 . S
C407 N405 1.375 . S
C407 C406 1.338 . S
C407 H411 0.931 . S
C408 N405 1.313 . S
C408 N409 1.344 . S
C408 H412 0.930 . S
N409 C406 1.377 . S
N409 C408 1.344 . S
O410 Co402 2.055 . S
O410 C414 1.253 . S
H411 C407 0.931 . S
H412 C408 0.930 . S
O413 Co402 2.039 . S
O413 C403 1.265 . S
C414 O410 1.253 . S
C414 O415 1.227 . S
O415 C414 1.227 . S
N416 Co402 2.140 . S
N416 C419 1.346 . S
N416 C420 1.345 . S
C417 C418 1.387 . S
C417 C421 1.391 . S
C418 C417 1.387 . S
C418 C419 1.369 . S
C418 H427 0.929 . S
C419 N416 1.346 . S
C419 C418 1.369 . S
C419 H422 0.928 . S
C420 N416 1.345 . S
C420 C421 1.371 . S
C420 H423 0.931 1_554 S
C421 C417 1.391 . S
C421 C420 1.371 . S
C421 H428 0.930 1_554 S
H422 C419 0.928 . S
H423 C420 0.931 1_556 S
H424 C400 0.930 . S
H425 C397 0.930 . S
H426 C406 0.930 . S
H427 C418 0.929 . S
H428 C421 0.930 1_556 S
C429 C430 1.361 . S
C429 N432 1.368 . S
C429 H434 0.931 . S
C430 C429 1.361 . S
C430 N431 1.369 1_556 S
C430 H458 0.924 1_556 S
N431 C430 1.369 1_554 S
N431 C433 1.340 1_554 S
N432 C429 1.368 . S
N432 C433 1.321 . S
N432 Co435 2.135 . S
C433 N431 1.340 1_556 S
C433 N432 1.321 . S
C433 H457 0.930 . S
H434 C429 0.931 . S
Co435 N432 2.135 . S
Co435 N438 2.121 . S
Co435 O443 2.055 . S
Co435 O446 2.039 . S
Co435 N449 2.140 . S
C436 O437 1.227 . S
C436 O446 1.265 . S
O437 C436 1.227 . S
N438 Co435 2.121 . S
N438 C440 1.375 . S
N438 C441 1.313 . S
C439 C440 1.338 . S
C439 N442 1.377 . S
C439 H459 0.930 . S
C440 N438 1.375 . S
C440 C439 1.338 . S
C440 H444 0.931 . S
C441 N438 1.313 . S
C441 N442 1.344 . S
C441 H445 0.930 . S
N442 C439 1.377 . S
N442 C441 1.344 . S
O443 Co435 2.055 . S
O443 C447 1.253 . S
H444 C440 0.931 . S
H445 C441 0.930 . S
O446 Co435 2.039 . S
O446 C436 1.265 . S
C447 O443 1.253 . S
C447 O448 1.227 . S
O448 C447 1.227 . S
N449 Co435 2.140 . S
N449 C452 1.346 . S
N449 C453 1.345 . S
C450 C451 1.387 . S
C450 C454 1.391 . S
C451 C450 1.387 . S
C451 C452 1.369 . S
C451 H460 0.929 . S
C452 N449 1.346 . S
C452 C451 1.369 . S
C452 H455 0.928 . S
C453 N449 1.345 . S
C453 C454 1.371 . S
C453 H456 0.931 . S
C454 C450 1.391 . S
C454 C453 1.371 . S
C454 H461 0.930 . S
H455 C452 0.928 . S
H456 C453 0.931 . S
H457 C433 0.930 . S
H458 C430 0.924 1_554 S
H459 C439 0.930 . S
H460 C451 0.929 . S
H461 C454 0.930 . S
C462 C463 1.351 . S
C462 N465 1.368 . S
C462 H467 0.931 . S
C463 C462 1.351 . S
C463 N464 1.373 . S
C463 H491 0.930 . S
N464 C463 1.373 . S
N464 C466 1.340 . S
N465 C462 1.368 . S
N465 C466 1.321 . S
N465 Co468 2.135 . S
C466 N464 1.340 . S
C466 N465 1.321 . S
C466 H490 0.930 . S
H467 C462 0.931 . S
Co468 N465 2.135 . S
Co468 N471 2.121 . S
Co468 O476 2.055 . S
Co468 O479 2.039 . S
Co468 N482 2.140 . S
C469 O470 1.227 . S
C469 O479 1.265 . S
O470 C469 1.227 . S
N471 Co468 2.121 . S
N471 C473 1.375 . S
N471 C474 1.313 . S
C472 C473 1.338 . S
C472 N475 1.377 . S
C472 H492 0.930 . S
C473 N471 1.375 . S
C473 C472 1.338 . S
C473 H477 0.931 . S
C474 N471 1.313 . S
C474 N475 1.344 . S
C474 H478 0.930 . S
N475 C472 1.377 . S
N475 C474 1.344 . S
O476 Co468 2.055 . S
O476 C480 1.253 . S
H477 C473 0.931 . S
H478 C474 0.930 . S
O479 Co468 2.039 . S
O479 C469 1.265 . S
C480 O476 1.253 . S
C480 O481 1.227 . S
O481 C480 1.227 . S
N482 Co468 2.140 . S
N482 C485 1.346 . S
N482 C486 1.345 . S
C483 C484 1.387 . S
C483 C487 1.391 . S
C484 C483 1.387 . S
C484 C485 1.369 . S
C484 H493 0.929 . S
C485 N482 1.346 . S
C485 C484 1.369 . S
C485 H488 0.928 . S
C486 N482 1.345 . S
C486 C487 1.371 . S
C486 H489 0.931 . S
C487 C483 1.391 . S
C487 C486 1.371 . S
C487 H494 0.930 . S
H488 C485 0.928 . S
H489 C486 0.931 . S
H490 C466 0.930 . S
H491 C463 0.930 . S
H492 C472 0.930 . S
H493 C484 0.929 . S
H494 C487 0.930 . S
C495 C496 1.351 . S
C495 N498 1.368 . S
C495 H500 0.931 . S
C496 C495 1.351 . S
C496 N497 1.373 . S
C496 H524 0.930 . S
N497 C496 1.373 . S
N497 C499 1.340 . S
N498 C495 1.368 . S
N498 C499 1.321 . S
N498 Co501 2.135 . S
C499 N497 1.340 . S
C499 N498 1.321 . S
C499 H523 0.930 . S
H500 C495 0.931 . S
Co501 N498 2.135 . S
Co501 N504 2.121 . S
Co501 O509 2.055 . S
Co501 O512 2.039 . S
Co501 N515 2.140 . S
C502 O503 1.227 . S
C502 O512 1.265 . S
O503 C502 1.227 . S
N504 Co501 2.121 . S
N504 C506 1.375 . S
N504 C507 1.313 . S
C505 C506 1.338 . S
C505 N508 1.377 . S
C505 H525 0.930 . S
C506 N504 1.375 . S
C506 C505 1.338 . S
C506 H510 0.931 . S
C507 N504 1.313 . S
C507 N508 1.344 . S
C507 H511 0.930 . S
N508 C505 1.377 . S
N508 C507 1.344 . S
O509 Co501 2.055 . S
O509 C513 1.253 . S
H510 C506 0.931 . S
H511 C507 0.930 . S
O512 Co501 2.039 . S
O512 C502 1.265 . S
C513 O509 1.253 . S
C513 O514 1.227 . S
O514 C513 1.227 . S
N515 Co501 2.140 . S
N515 C518 1.346 . S
N515 C519 1.345 . S
C516 C517 1.387 . S
C516 C520 1.391 . S
C517 C516 1.387 . S
C517 C518 1.369 . S
C517 H526 0.929 . S
C518 N515 1.346 . S
C518 C517 1.369 . S
C518 H521 0.928 . S
C519 N515 1.345 . S
C519 C520 1.371 . S
C519 H522 0.931 . S
C520 C516 1.391 . S
C520 C519 1.371 . S
C520 H527 0.930 . S
H521 C518 0.928 . S
H522 C519 0.931 . S
H523 C499 0.930 . S
H524 C496 0.930 . S
H525 C505 0.930 . S
H526 C517 0.929 . S
H527 C520 0.930 . S
C528 C529 1.351 . S
C528 N531 1.368 . S
C528 H533 0.931 . S
C529 C528 1.351 . S
C529 N530 1.373 . S
C529 H557 0.930 . S
N530 C529 1.373 . S
N530 C532 1.340 . S
N531 C528 1.368 . S
N531 C532 1.321 . S
N531 Co534 2.135 . S
C532 N530 1.340 . S
C532 N531 1.321 . S
C532 H556 0.930 . S
H533 C528 0.931 . S
Co534 N531 2.135 . S
Co534 N537 2.121 . S
Co534 O542 2.055 . S
Co534 O545 2.039 . S
Co534 N548 2.140 . S
C535 O536 1.227 . S
C535 O545 1.265 . S
O536 C535 1.227 . S
N537 Co534 2.121 . S
N537 C539 1.375 . S
N537 C540 1.313 . S
C538 C539 1.338 . S
C538 N541 1.377 . S
C538 H558 0.930 . S
C539 N537 1.375 . S
C539 C538 1.338 . S
C539 H543 0.931 . S
C540 N537 1.313 . S
C540 N541 1.344 . S
C540 H544 0.930 . S
N541 C538 1.377 . S
N541 C540 1.344 . S
O542 Co534 2.055 . S
O542 C546 1.253 . S
H543 C539 0.931 . S
H544 C540 0.930 . S
O545 Co534 2.039 . S
O545 C535 1.265 . S
C546 O542 1.253 . S
C546 O547 1.227 . S
O547 C546 1.227 . S
N548 Co534 2.140 . S
N548 C551 1.346 . S
N548 C552 1.345 . S
C549 C550 1.387 . S
C549 C553 1.391 . S
C550 C549 1.387 . S
C550 C551 1.369 . S
C550 H559 0.929 . S
C551 N548 1.346 . S
C551 C550 1.369 . S
C551 H554 0.928 . S
C552 N548 1.345 . S
C552 C553 1.371 . S
C552 H555 0.931 . S
C553 C549 1.391 . S
C553 C552 1.371 . S
C553 H560 0.930 . S
H554 C551 0.928 . S
H555 C552 0.931 . S
H556 C532 0.930 . S
H557 C529 0.930 . S
H558 C538 0.930 . S
H559 C550 0.929 . S
H560 C553 0.930 . S
C561 C562 1.361 . S
C561 N564 1.368 . S
C561 H566 0.931 . S
C562 C561 1.361 . S
C562 N563 1.369 1_556 S
C562 H590 0.924 1_556 S
N563 C562 1.369 1_554 S
N563 C565 1.340 1_554 S
N564 C561 1.368 . S
N564 C565 1.321 . S
N564 Co567 2.135 . S
C565 N563 1.340 1_556 S
C565 N564 1.321 . S
C565 H589 0.930 . S
H566 C561 0.931 . S
Co567 N564 2.135 . S
Co567 N570 2.121 . S
Co567 O575 2.055 . S
Co567 O578 2.039 . S
Co567 N581 2.140 . S
C568 O569 1.227 . S
C568 O578 1.265 . S
O569 C568 1.227 . S
N570 Co567 2.121 . S
N570 C572 1.375 . S
N570 C573 1.313 . S
C571 C572 1.338 . S
C571 N574 1.377 . S
C571 H591 0.930 . S
C572 N570 1.375 . S
C572 C571 1.338 . S
C572 H576 0.931 . S
C573 N570 1.313 . S
C573 N574 1.344 . S
C573 H577 0.930 . S
N574 C571 1.377 . S
N574 C573 1.344 . S
O575 Co567 2.055 . S
O575 C579 1.253 . S
H576 C572 0.931 . S
H577 C573 0.930 . S
O578 Co567 2.039 . S
O578 C568 1.265 . S
C579 O575 1.253 . S
C579 O580 1.227 . S
O580 C579 1.227 . S
N581 Co567 2.140 . S
N581 C584 1.346 . S
N581 C585 1.345 . S
C582 C583 1.387 . S
C582 C586 1.391 . S
C583 C582 1.387 . S
C583 C584 1.369 . S
C583 H592 0.929 . S
C584 N581 1.346 . S
C584 C583 1.369 . S
C584 H587 0.928 . S
C585 N581 1.345 . S
C585 C586 1.371 . S
C585 H588 0.931 . S
C586 C582 1.391 . S
C586 C585 1.371 . S
C586 H593 0.930 . S
H587 C584 0.928 . S
H588 C585 0.931 . S
H589 C565 0.930 . S
H590 C562 0.924 1_554 S
H591 C571 0.930 . S
H592 C583 0.929 . S
H593 C586 0.930 . S
C594 C595 1.351 . S
C594 N597 1.368 . S
C594 H599 0.931 . S
C595 C594 1.351 . S
C595 N596 1.373 . S
C595 H623 0.930 . S
N596 C595 1.373 . S
N596 C598 1.340 . S
N597 C594 1.368 . S
N597 C598 1.321 . S
N597 Co600 2.135 . S
C598 N596 1.340 . S
C598 N597 1.321 . S
C598 H622 0.930 . S
H599 C594 0.931 . S
Co600 N597 2.135 . S
Co600 N603 2.121 1_554 S
Co600 O608 2.055 . S
Co600 O611 2.039 . S
Co600 N614 2.140 . S
C601 O602 1.227 . S
C601 O611 1.265 . S
O602 C601 1.227 . S
N603 Co600 2.121 1_556 S
N603 C605 1.375 . S
N603 C606 1.313 . S
C604 C605 1.338 . S
C604 N607 1.377 . S
C604 H624 0.930 . S
C605 N603 1.375 . S
C605 C604 1.338 . S
C605 H609 0.931 . S
C606 N603 1.313 . S
C606 N607 1.344 . S
C606 H610 0.930 . S
N607 C604 1.377 . S
N607 C606 1.344 . S
O608 Co600 2.055 . S
O608 C612 1.253 . S
H609 C605 0.931 . S
H610 C606 0.930 . S
O611 Co600 2.039 . S
O611 C601 1.265 . S
C612 O608 1.253 . S
C612 O613 1.227 . S
O613 C612 1.227 . S
N614 Co600 2.140 . S
N614 C617 1.346 . S
N614 C618 1.345 . S
C615 C616 1.387 . S
C615 C619 1.391 . S
C616 C615 1.387 . S
C616 C617 1.369 . S
C616 H625 0.929 . S
C617 N614 1.346 . S
C617 C616 1.369 . S
C617 H620 0.928 . S
C618 N614 1.345 . S
C618 C619 1.371 . S
C618 H621 0.931 1_554 S
C619 C615 1.391 . S
C619 C618 1.371 . S
C619 H626 0.930 1_554 S
H620 C617 0.928 . S
H621 C618 0.931 1_556 S
H622 C598 0.930 . S
H623 C595 0.930 . S
H624 C604 0.930 . S
H625 C616 0.929 . S
H626 C619 0.930 1_556 S
C627 C628 1.351 . S
C627 N630 1.368 . S
C627 H632 0.931 . S
C628 C627 1.351 . S
C628 N629 1.373 . S
C628 H656 0.930 . S
N629 C628 1.373 . S
N629 C631 1.340 . S
N630 C627 1.368 . S
N630 C631 1.321 . S
N630 Co633 2.135 . S
C631 N629 1.340 . S
C631 N630 1.321 . S
C631 H655 0.930 . S
H632 C627 0.931 . S
Co633 N630 2.135 . S
Co633 N636 2.121 . S
Co633 O641 2.055 . S
Co633 O644 2.039 . S
Co633 N647 2.140 . S
C634 O635 1.227 . S
C634 O644 1.265 . S
O635 C634 1.227 . S
N636 Co633 2.121 . S
N636 C638 1.375 . S
N636 C639 1.313 . S
C637 C638 1.338 . S
C637 N640 1.377 . S
C637 H657 0.930 . S
C638 N636 1.375 . S
C638 C637 1.338 . S
C638 H642 0.931 . S
C639 N636 1.313 . S
C639 N640 1.344 . S
C639 H643 0.930 . S
N640 C637 1.377 . S
N640 C639 1.344 . S
O641 Co633 2.055 . S
O641 C645 1.253 . S
H642 C638 0.931 . S
H643 C639 0.930 . S
O644 Co633 2.039 . S
O644 C634 1.265 . S
C645 O641 1.253 . S
C645 O646 1.227 . S
O646 C645 1.227 . S
N647 Co633 2.140 . S
N647 C650 1.346 . S
N647 C651 1.345 . S
C648 C649 1.387 . S
C648 C652 1.391 . S
C649 C648 1.387 . S
C649 C650 1.369 . S
C649 H658 0.929 . S
C650 N647 1.346 . S
C650 C649 1.369 . S
C650 H653 0.928 . S
C651 N647 1.345 . S
C651 C652 1.371 . S
C651 H654 0.931 . S
C652 C648 1.391 . S
C652 C651 1.371 . S
C652 H659 0.930 . S
H653 C650 0.928 . S
H654 C651 0.931 . S
H655 C631 0.930 . S
H656 C628 0.930 . S
H657 C637 0.930 . S
H658 C649 0.929 . S
H659 C652 0.930 . S
C660 C661 1.351 . S
C660 N663 1.368 . S
C660 H665 0.931 . S
C661 C660 1.351 . S
C661 N662 1.373 . S
C661 H689 0.930 . S
N662 C661 1.373 . S
N662 C664 1.340 . S
N663 C660 1.368 . S
N663 C664 1.321 . S
N663 Co666 2.135 . S
C664 N662 1.340 . S
C664 N663 1.321 . S
C664 H688 0.930 . S
H665 C660 0.931 . S
Co666 N663 2.135 . S
Co666 N669 2.121 . S
Co666 O674 2.055 . S
Co666 O677 2.039 . S
Co666 N680 2.140 . S
C667 O668 1.227 . S
C667 O677 1.265 . S
O668 C667 1.227 . S
N669 Co666 2.121 . S
N669 C671 1.375 . S
N669 C672 1.313 . S
C670 C671 1.338 . S
C670 N673 1.377 . S
C670 H690 0.930 . S
C671 N669 1.375 . S
C671 C670 1.338 . S
C671 H675 0.931 . S
C672 N669 1.313 . S
C672 N673 1.344 . S
C672 H676 0.930 . S
N673 C670 1.377 . S
N673 C672 1.344 . S
O674 Co666 2.055 . S
O674 C678 1.253 . S
H675 C671 0.931 . S
H676 C672 0.930 . S
O677 Co666 2.039 . S
O677 C667 1.265 . S
C678 O674 1.253 . S
C678 O679 1.227 . S
O679 C678 1.227 . S
N680 Co666 2.140 . S
N680 C683 1.346 . S
N680 C684 1.345 . S
C681 C682 1.387 . S
C681 C685 1.391 . S
C682 C681 1.387 . S
C682 C683 1.369 . S
C682 H691 0.929 . S
C683 N680 1.346 . S
C683 C682 1.369 . S
C683 H686 0.928 . S
C684 N680 1.345 . S
C684 C685 1.371 . S
C684 H687 0.931 . S
C685 C681 1.391 . S
C685 C684 1.371 . S
C685 H692 0.930 . S
H686 C683 0.928 . S
H687 C684 0.931 . S
H688 C664 0.930 . S
H689 C661 0.930 . S
H690 C670 0.930 . S
H691 C682 0.929 . S
H692 C685 0.930 . S
C693 C694 1.351 . S
C693 N696 1.368 . S
C693 H698 0.931 . S
C694 C693 1.351 . S
C694 N695 1.373 . S
C694 H722 0.930 . S
N695 C694 1.373 . S
N695 C697 1.340 . S
N696 C693 1.368 . S
N696 C697 1.321 . S
N696 Co699 2.135 . S
C697 N695 1.340 . S
C697 N696 1.321 . S
C697 H721 0.930 . S
H698 C693 0.931 . S
Co699 N696 2.135 . S
Co699 N702 2.121 . S
Co699 O707 2.055 . S
Co699 O710 2.039 . S
Co699 N713 2.140 . S
C700 O701 1.227 . S
C700 O710 1.265 . S
O701 C700 1.227 . S
N702 Co699 2.121 . S
N702 C704 1.375 . S
N702 C705 1.313 . S
C703 C704 1.338 . S
C703 N706 1.377 . S
C703 H723 0.930 . S
C704 N702 1.375 . S
C704 C703 1.338 . S
C704 H708 0.931 . S
C705 N702 1.313 . S
C705 N706 1.344 . S
C705 H709 0.930 . S
N706 C703 1.377 . S
N706 C705 1.344 . S
O707 Co699 2.055 . S
O707 C711 1.253 . S
H708 C704 0.931 . S
H709 C705 0.930 . S
O710 Co699 2.039 . S
O710 C700 1.265 . S
C711 O707 1.253 . S
C711 O712 1.227 . S
O712 C711 1.227 . S
N713 Co699 2.140 . S
N713 C716 1.346 . S
N713 C717 1.345 . S
C714 C715 1.387 . S
C714 C718 1.391 . S
C715 C714 1.387 . S
C715 C716 1.369 . S
C715 H724 0.929 . S
C716 N713 1.346 . S
C716 C715 1.369 . S
C716 H719 0.928 . S
C717 N713 1.345 . S
C717 C718 1.371 . S
C717 H720 0.931 . S
C718 C714 1.391 . S
C718 C717 1.371 . S
C718 H725 0.930 . S
H719 C716 0.928 . S
H720 C717 0.931 . S
H721 C697 0.930 . S
H722 C694 0.930 . S
H723 C703 0.930 . S
H724 C715 0.929 . S
H725 C718 0.930 . S
C726 C727 1.351 . S
C726 N729 1.368 . S
C726 H731 0.931 . S
C727 C726 1.351 . S
C727 N728 1.373 . S
C727 H755 0.930 . S
N728 C727 1.373 . S
N728 C730 1.340 . S
N729 C726 1.368 . S
N729 C730 1.321 . S
N729 Co732 2.135 . S
C730 N728 1.340 . S
C730 N729 1.321 . S
C730 H754 0.930 . S
H731 C726 0.931 . S
Co732 N729 2.135 . S
Co732 N735 2.121 1_556 S
Co732 O740 2.055 . S
Co732 O743 2.039 . S
Co732 N746 2.140 . S
C733 O734 1.227 . S
C733 O743 1.265 . S
O734 C733 1.227 . S
N735 Co732 2.121 1_554 S
N735 C737 1.375 . S
N735 C738 1.313 . S
C736 C737 1.338 . S
C736 N739 1.377 . S
C736 H756 0.930 . S
C737 N735 1.375 . S
C737 C736 1.338 . S
C737 H741 0.931 . S
C738 N735 1.313 . S
C738 N739 1.344 . S
C738 H742 0.930 . S
N739 C736 1.377 . S
N739 C738 1.344 . S
O740 Co732 2.055 . S
O740 C744 1.253 . S
H741 C737 0.931 . S
H742 C738 0.930 . S
O743 Co732 2.039 . S
O743 C733 1.265 . S
C744 O740 1.253 . S
C744 O745 1.227 . S
O745 C744 1.227 . S
N746 Co732 2.140 . S
N746 C749 1.346 . S
N746 C750 1.345 . S
C747 C748 1.387 . S
C747 C751 1.391 . S
C748 C747 1.387 . S
C748 C749 1.369 . S
C748 H757 0.929 . S
C749 N746 1.346 . S
C749 C748 1.369 . S
C749 H752 0.928 . S
C750 N746 1.345 . S
C750 C751 1.371 . S
C750 H753 0.931 1_556 S
C751 C747 1.391 . S
C751 C750 1.371 . S
C751 H758 0.930 1_556 S
H752 C749 0.928 . S
H753 C750 0.931 1_554 S
H754 C730 0.930 . S
H755 C727 0.930 . S
H756 C736 0.930 . S
H757 C748 0.929 . S
H758 C751 0.930 1_554 S
C759 C760 1.361 . S
C759 N762 1.368 . S
C759 H764 0.931 . S
C760 C759 1.361 . S
C760 N761 1.369 1_554 S
C760 H788 0.924 1_554 S
N761 C760 1.369 1_556 S
N761 C763 1.340 1_556 S
N762 C759 1.368 . S
N762 C763 1.321 . S
N762 Co765 2.135 . S
C763 N761 1.340 1_554 S
C763 N762 1.321 . S
C763 H787 0.930 . S
H764 C759 0.931 . S
Co765 N762 2.135 . S
Co765 N768 2.121 . S
Co765 O773 2.055 . S
Co765 O776 2.039 . S
Co765 N779 2.140 . S
C766 O767 1.227 . S
C766 O776 1.265 . S
O767 C766 1.227 . S
N768 Co765 2.121 . S
N768 C770 1.375 . S
N768 C771 1.313 . S
C769 C770 1.338 . S
C769 N772 1.377 . S
C769 H789 0.930 . S
C770 N768 1.375 . S
C770 C769 1.338 . S
C770 H774 0.931 . S
C771 N768 1.313 . S
C771 N772 1.344 . S
C771 H775 0.930 . S
N772 C769 1.377 . S
N772 C771 1.344 . S
O773 Co765 2.055 . S
O773 C777 1.253 . S
H774 C770 0.931 . S
H775 C771 0.930 . S
O776 Co765 2.039 . S
O776 C766 1.265 . S
C777 O773 1.253 . S
C777 O778 1.227 . S
O778 C777 1.227 . S
N779 Co765 2.140 . S
N779 C782 1.346 . S
N779 C783 1.345 . S
C780 C781 1.387 . S
C780 C784 1.391 . S
C781 C780 1.387 . S
C781 C782 1.369 . S
C781 H790 0.929 . S
C782 N779 1.346 . S
C782 C781 1.369 . S
C782 H785 0.928 . S
C783 N779 1.345 . S
C783 C784 1.371 . S
C783 H786 0.931 . S
C784 C780 1.391 . S
C784 C783 1.371 . S
C784 H791 0.930 . S
H785 C782 0.928 . S
H786 C783 0.931 . S
H787 C763 0.930 . S
H788 C760 0.924 1_556 S
H789 C769 0.930 . S
H790 C781 0.929 . S
H791 C784 0.930 . S
C792 C793 1.351 . S
C792 N795 1.368 . S
C792 H797 0.931 . S
C793 C792 1.351 . S
C793 N794 1.373 . S
C793 H821 0.930 . S
N794 C793 1.373 . S
N794 C796 1.340 . S
N795 C792 1.368 . S
N795 C796 1.321 . S
N795 Co798 2.135 . S
C796 N794 1.340 . S
C796 N795 1.321 . S
C796 H820 0.930 . S
H797 C792 0.931 . S
Co798 N795 2.135 . S
Co798 N801 2.121 . S
Co798 O806 2.055 . S
Co798 O809 2.039 . S
Co798 N812 2.140 . S
C799 O800 1.227 . S
C799 O809 1.265 . S
O800 C799 1.227 . S
N801 Co798 2.121 . S
N801 C803 1.375 . S
N801 C804 1.313 . S
C802 C803 1.338 . S
C802 N805 1.377 . S
C802 H822 0.930 . S
C803 N801 1.375 . S
C803 C802 1.338 . S
C803 H807 0.931 . S
C804 N801 1.313 . S
C804 N805 1.344 . S
C804 H808 0.930 . S
N805 C802 1.377 . S
N805 C804 1.344 . S
O806 Co798 2.055 . S
O806 C810 1.253 . S
H807 C803 0.931 . S
H808 C804 0.930 . S
O809 Co798 2.039 . S
O809 C799 1.265 . S
C810 O806 1.253 . S
C810 O811 1.227 . S
O811 C810 1.227 . S
N812 Co798 2.140 . S
N812 C815 1.346 . S
N812 C816 1.345 . S
C813 C814 1.387 . S
C813 C817 1.391 . S
C814 C813 1.387 . S
C814 C815 1.369 . S
C814 H823 0.929 . S
C815 N812 1.346 . S
C815 C814 1.369 . S
C815 H818 0.928 . S
C816 N812 1.345 . S
C816 C817 1.371 . S
C816 H819 0.931 . S
C817 C813 1.391 . S
C817 C816 1.371 . S
C817 H824 0.930 . S
H818 C815 0.928 . S
H819 C816 0.931 . S
H820 C796 0.930 . S
H821 C793 0.930 . S
H822 C802 0.930 . S
H823 C814 0.929 . S
H824 C817 0.930 . S
C825 C826 1.361 . S
C825 N828 1.368 . S
C825 H830 0.931 . S
C826 C825 1.361 . S
C826 N827 1.369 1_554 S
C826 H854 0.924 1_554 S
N827 C826 1.369 1_556 S
N827 C829 1.340 1_556 S
N828 C825 1.368 . S
N828 C829 1.321 . S
N828 Co831 2.135 . S
C829 N827 1.340 1_554 S
C829 N828 1.321 . S
C829 H853 0.930 . S
H830 C825 0.931 . S
Co831 N828 2.135 . S
Co831 N834 2.121 . S
Co831 O839 2.055 . S
Co831 O842 2.039 . S
Co831 N845 2.140 . S
C832 O833 1.227 . S
C832 O842 1.265 . S
O833 C832 1.227 . S
N834 Co831 2.121 . S
N834 C836 1.375 . S
N834 C837 1.313 . S
C835 C836 1.338 . S
C835 N838 1.377 . S
C835 H855 0.930 . S
C836 N834 1.375 . S
C836 C835 1.338 . S
C836 H840 0.931 . S
C837 N834 1.313 . S
C837 N838 1.344 . S
C837 H841 0.930 . S
N838 C835 1.377 . S
N838 C837 1.344 . S
O839 Co831 2.055 . S
O839 C843 1.253 . S
H840 C836 0.931 . S
H841 C837 0.930 . S
O842 Co831 2.039 . S
O842 C832 1.265 . S
C843 O839 1.253 . S
C843 O844 1.227 . S
O844 C843 1.227 . S
N845 Co831 2.140 . S
N845 C848 1.346 . S
N845 C849 1.345 . S
C846 C847 1.387 . S
C846 C850 1.391 . S
C847 C846 1.387 . S
C847 C848 1.369 . S
C847 H856 0.929 . S
C848 N845 1.346 . S
C848 C847 1.369 . S
C848 H851 0.928 . S
C849 N845 1.345 . S
C849 C850 1.371 . S
C849 H852 0.931 . S
C850 C846 1.391 . S
C850 C849 1.371 . S
C850 H857 0.930 . S
H851 C848 0.928 . S
H852 C849 0.931 . S
H853 C829 0.930 . S
H854 C826 0.924 1_556 S
H855 C835 0.930 . S
H856 C847 0.929 . S
H857 C850 0.930 . S
C858 C859 1.351 . S
C858 N861 1.368 . S
C858 H863 0.931 . S
C859 C858 1.351 . S
C859 N860 1.373 . S
C859 H887 0.930 . S
N860 C859 1.373 . S
N860 C862 1.340 . S
N861 C858 1.368 . S
N861 C862 1.321 . S
N861 Co864 2.135 . S
C862 N860 1.340 . S
C862 N861 1.321 . S
C862 H886 0.930 . S
H863 C858 0.931 . S
Co864 N861 2.135 . S
Co864 N867 2.121 1_556 S
Co864 O872 2.055 . S
Co864 O875 2.039 . S
Co864 N878 2.140 . S
C865 O866 1.227 . S
C865 O875 1.265 . S
O866 C865 1.227 . S
N867 Co864 2.121 1_554 S
N867 C869 1.375 . S
N867 C870 1.313 . S
C868 C869 1.338 . S
C868 N871 1.377 . S
C868 H888 0.930 . S
C869 N867 1.375 . S
C869 C868 1.338 . S
C869 H873 0.931 . S
C870 N867 1.313 . S
C870 N871 1.344 . S
C870 H874 0.930 . S
N871 C868 1.377 . S
N871 C870 1.344 . S
O872 Co864 2.055 . S
O872 C876 1.253 . S
H873 C869 0.931 . S
H874 C870 0.930 . S
O875 Co864 2.039 . S
O875 C865 1.265 . S
C876 O872 1.253 . S
C876 O877 1.227 . S
O877 C876 1.227 . S
N878 Co864 2.140 . S
N878 C881 1.346 . S
N878 C882 1.345 . S
C879 C880 1.387 . S
C879 C883 1.391 . S
C880 C879 1.387 . S
C880 C881 1.369 . S
C880 H889 0.929 . S
C881 N878 1.346 . S
C881 C880 1.369 . S
C881 H884 0.928 . S
C882 N878 1.345 . S
C882 C883 1.371 . S
C882 H885 0.931 1_556 S
C883 C879 1.391 . S
C883 C882 1.371 . S
C883 H890 0.930 1_556 S
H884 C881 0.928 . S
H885 C882 0.931 1_554 S
H886 C862 0.930 . S
H887 C859 0.930 . S
H888 C868 0.930 . S
H889 C880 0.929 . S
H890 C883 0.930 1_554 S
C891 C892 1.351 . S
C891 N894 1.368 . S
C891 H896 0.931 . S
C892 C891 1.351 . S
C892 N893 1.373 . S
C892 H920 0.930 . S
N893 C892 1.373 . S
N893 C895 1.340 . S
N894 C891 1.368 . S
N894 C895 1.321 . S
N894 Co897 2.135 . S
C895 N893 1.340 . S
C895 N894 1.321 . S
C895 H919 0.930 . S
H896 C891 0.931 . S
Co897 N894 2.135 . S
Co897 N900 2.121 . S
Co897 O905 2.055 . S
Co897 O908 2.039 . S
Co897 N911 2.140 . S
C898 O899 1.227 . S
C898 O908 1.265 . S
O899 C898 1.227 . S
N900 Co897 2.121 . S
N900 C902 1.375 . S
N900 C903 1.313 . S
C901 C902 1.338 . S
C901 N904 1.377 . S
C901 H921 0.930 . S
C902 N900 1.375 . S
C902 C901 1.338 . S
C902 H906 0.931 . S
C903 N900 1.313 . S
C903 N904 1.344 . S
C903 H907 0.930 . S
N904 C901 1.377 . S
N904 C903 1.344 . S
O905 Co897 2.055 . S
O905 C909 1.253 . S
H906 C902 0.931 . S
H907 C903 0.930 . S
O908 Co897 2.039 . S
O908 C898 1.265 . S
C909 O905 1.253 . S
C909 O910 1.227 . S
O910 C909 1.227 . S
N911 Co897 2.140 . S
N911 C914 1.346 . S
N911 C915 1.345 . S
C912 C913 1.387 . S
C912 C916 1.391 . S
C913 C912 1.387 . S
C913 C914 1.369 . S
C913 H922 0.929 . S
C914 N911 1.346 . S
C914 C913 1.369 . S
C914 H917 0.928 . S
C915 N911 1.345 . S
C915 C916 1.371 . S
C915 H918 0.931 . S
C916 C912 1.391 . S
C916 C915 1.371 . S
C916 H923 0.930 . S
H917 C914 0.928 . S
H918 C915 0.931 . S
H919 C895 0.930 . S
H920 C892 0.930 . S
H921 C901 0.930 . S
H922 C913 0.929 . S
H923 C916 0.930 . S
C924 C925 1.351 . S
C924 N927 1.368 . S
C924 H929 0.931 . S
C925 C924 1.351 . S
C925 N926 1.373 . S
C925 H953 0.930 . S
N926 C925 1.373 . S
N926 C928 1.340 . S
N927 C924 1.368 . S
N927 C928 1.321 . S
N927 Co930 2.135 . S
C928 N926 1.340 . S
C928 N927 1.321 . S
C928 H952 0.930 . S
H929 C924 0.931 . S
Co930 N927 2.135 . S
Co930 N933 2.121 . S
Co930 O938 2.055 . S
Co930 O941 2.039 . S
Co930 N944 2.140 . S
C931 O932 1.227 . S
C931 O941 1.265 . S
O932 C931 1.227 . S
N933 Co930 2.121 . S
N933 C935 1.375 . S
N933 C936 1.313 . S
C934 C935 1.338 . S
C934 N937 1.377 . S
C934 H954 0.930 . S
C935 N933 1.375 . S
C935 C934 1.338 . S
C935 H939 0.931 . S
C936 N933 1.313 . S
C936 N937 1.344 . S
C936 H940 0.930 . S
N937 C934 1.377 . S
N937 C936 1.344 . S
O938 Co930 2.055 . S
O938 C942 1.253 . S
H939 C935 0.931 . S
H940 C936 0.930 . S
O941 Co930 2.039 . S
O941 C931 1.265 . S
C942 O938 1.253 . S
C942 O943 1.227 . S
O943 C942 1.227 . S
N944 Co930 2.140 . S
N944 C947 1.346 . S
N944 C948 1.345 . S
C945 C946 1.387 . S
C945 C949 1.391 . S
C946 C945 1.387 . S
C946 C947 1.369 . S
C946 H955 0.929 . S
C947 N944 1.346 . S
C947 C946 1.369 . S
C947 H950 0.928 . S
C948 N944 1.345 . S
C948 C949 1.371 . S
C948 H951 0.931 . S
C949 C945 1.391 . S
C949 C948 1.371 . S
C949 H956 0.930 . S
H950 C947 0.928 . S
H951 C948 0.931 . S
H952 C928 0.930 . S
H953 C925 0.930 . S
H954 C934 0.930 . S
H955 C946 0.929 . S
H956 C949 0.930 . S
C957 C958 1.351 . S
C957 N960 1.368 . S
C957 H962 0.931 . S
C958 C957 1.351 . S
C958 N959 1.373 . S
C958 H986 0.930 . S
N959 C958 1.373 . S
N959 C961 1.340 . S
N960 C957 1.368 . S
N960 C961 1.321 . S
N960 Co963 2.135 . S
C961 N959 1.340 . S
C961 N960 1.321 . S
C961 H985 0.930 . S
H962 C957 0.931 . S
Co963 N960 2.135 . S
Co963 N966 2.121 . S
Co963 O971 2.055 . S
Co963 O974 2.039 . S
Co963 N977 2.140 . S
C964 O965 1.227 . S
C964 O974 1.265 . S
O965 C964 1.227 . S
N966 Co963 2.121 . S
N966 C968 1.375 . S
N966 C969 1.313 . S
C967 C968 1.338 . S
C967 N970 1.377 . S
C967 H987 0.930 . S
C968 N966 1.375 . S
C968 C967 1.338 . S
C968 H972 0.931 . S
C969 N966 1.313 . S
C969 N970 1.344 . S
C969 H973 0.930 . S
N970 C967 1.377 . S
N970 C969 1.344 . S
O971 Co963 2.055 . S
O971 C975 1.253 . S
H972 C968 0.931 . S
H973 C969 0.930 . S
O974 Co963 2.039 . S
O974 C964 1.265 . S
C975 O971 1.253 . S
C975 O976 1.227 . S
O976 C975 1.227 . S
N977 Co963 2.140 . S
N977 C980 1.346 . S
N977 C981 1.345 . S
C978 C979 1.387 . S
C978 C982 1.391 . S
C979 C978 1.387 . S
C979 C980 1.369 . S
C979 H988 0.929 . S
C980 N977 1.346 . S
C980 C979 1.369 . S
C980 H983 0.928 . S
C981 N977 1.345 . S
C981 C982 1.371 . S
C981 H984 0.931 . S
C982 C978 1.391 . S
C982 C981 1.371 . S
C982 H989 0.930 . S
H983 C980 0.928 . S
H984 C981 0.931 . S
H985 C961 0.930 . S
H986 C958 0.930 . S
H987 C967 0.930 . S
H988 C979 0.929 . S
H989 C982 0.930 . S
C990 C991 1.351 . S
C990 N993 1.368 . S
C990 H995 0.931 . S
C991 C990 1.351 . S
C991 N992 1.373 . S
C991 H1019 0.930 . S
N992 C991 1.373 . S
N992 C994 1.340 . S
N993 C990 1.368 . S
N993 C994 1.321 . S
N993 Co996 2.135 . S
C994 N992 1.340 . S
C994 N993 1.321 . S
C994 H1018 0.930 . S
H995 C990 0.931 . S
Co996 N993 2.135 . S
Co996 N999 2.121 1_554 S
Co996 O1004 2.055 . S
Co996 O1007 2.039 . S
Co996 N1010 2.140 . S
C997 O998 1.227 . S
C997 O1007 1.265 . S
O998 C997 1.227 . S
N999 Co996 2.121 1_556 S
N999 C1001 1.375 . S
N999 C1002 1.313 . S
C1000 C1001 1.338 . S
C1000 N1003 1.377 . S
C1000 H1020 0.930 . S
C1001 N999 1.375 . S
C1001 C1000 1.338 . S
C1001 H1005 0.931 . S
C1002 N999 1.313 . S
C1002 N1003 1.344 . S
C1002 H1006 0.930 . S
N1003 C1000 1.377 . S
N1003 C1002 1.344 . S
O1004 Co996 2.055 . S
O1004 C1008 1.253 . S
H1005 C1001 0.931 . S
H1006 C1002 0.930 . S
O1007 Co996 2.039 . S
O1007 C997 1.265 . S
C1008 O1004 1.253 . S
C1008 O1009 1.227 . S
O1009 C1008 1.227 . S
N1010 Co996 2.140 . S
N1010 C1013 1.346 . S
N1010 C1014 1.345 . S
C1011 C1012 1.387 . S
C1011 C1015 1.391 . S
C1012 C1011 1.387 . S
C1012 C1013 1.369 . S
C1012 H1021 0.929 . S
C1013 N1010 1.346 . S
C1013 C1012 1.369 . S
C1013 H1016 0.928 . S
C1014 N1010 1.345 . S
C1014 C1015 1.371 . S
C1014 H1017 0.931 1_554 S
C1015 C1011 1.391 . S
C1015 C1014 1.371 . S
C1015 H1022 0.930 1_554 S
H1016 C1013 0.928 . S
H1017 C1014 0.931 1_556 S
H1018 C994 0.930 . S
H1019 C991 0.930 . S
H1020 C1000 0.930 . S
H1021 C1012 0.929 . S
H1022 C1015 0.930 1_556 S
C1023 C1024 1.361 . S
C1023 N1026 1.368 . S
C1023 H1028 0.931 . S
C1024 C1023 1.361 . S
C1024 N1025 1.369 1_556 S
C1024 H1052 0.924 1_556 S
N1025 C1024 1.369 1_554 S
N1025 C1027 1.340 1_554 S
N1026 C1023 1.368 . S
N1026 C1027 1.321 . S
N1026 Co1029 2.135 . S
C1027 N1025 1.340 1_556 S
C1027 N1026 1.321 . S
C1027 H1051 0.930 . S
H1028 C1023 0.931 . S
Co1029 N1026 2.135 . S
Co1029 N1032 2.121 . S
Co1029 O1037 2.055 . S
Co1029 O1040 2.039 . S
Co1029 N1043 2.140 . S
C1030 O1031 1.227 . S
C1030 O1040 1.265 . S
O1031 C1030 1.227 . S
N1032 Co1029 2.121 . S
N1032 C1034 1.375 . S
N1032 C1035 1.313 . S
C1033 C1034 1.338 . S
C1033 N1036 1.377 . S
C1033 H1053 0.930 . S
C1034 N1032 1.375 . S
C1034 C1033 1.338 . S
C1034 H1038 0.931 . S
C1035 N1032 1.313 . S
C1035 N1036 1.344 . S
C1035 H1039 0.930 . S
N1036 C1033 1.377 . S
N1036 C1035 1.344 . S
O1037 Co1029 2.055 . S
O1037 C1041 1.253 . S
H1038 C1034 0.931 . S
H1039 C1035 0.930 . S
O1040 Co1029 2.039 . S
O1040 C1030 1.265 . S
C1041 O1037 1.253 . S
C1041 O1042 1.227 . S
O1042 C1041 1.227 . S
N1043 Co1029 2.140 . S
N1043 C1046 1.346 . S
N1043 C1047 1.345 . S
C1044 C1045 1.387 . S
C1044 C1048 1.391 . S
C1045 C1044 1.387 . S
C1045 C1046 1.369 . S
C1045 H1054 0.929 . S
C1046 N1043 1.346 . S
C1046 C1045 1.369 . S
C1046 H1049 0.928 . S
C1047 N1043 1.345 . S
C1047 C1048 1.371 . S
C1047 H1050 0.931 . S
C1048 C1044 1.391 . S
C1048 C1047 1.371 . S
C1048 H1055 0.930 . S
H1049 C1046 0.928 . S
H1050 C1047 0.931 . S
H1051 C1027 0.930 . S
H1052 C1024 0.924 1_554 S
H1053 C1033 0.930 . S
H1054 C1045 0.929 . S
H1055 C1048 0.930 . S
H1056 C1064 0.929 . S
H1057 C1066 0.930 . S
H1058 C1068 0.930 . S
H1059 C1071 0.929 . S
H1060 C1074 0.930 . S
H1061 C1076 0.960 . S
H1062 C1076 0.960 . S
H1063 C1076 0.960 . S
C1064 H1056 0.929 . S
C1064 C1065 1.377 . S
C1064 C1066 1.384 . S
C1065 C1064 1.377 . S
C1065 C1071 1.390 . S
C1066 H1057 0.930 . S
C1066 C1064 1.384 . S
C1066 C1067 1.372 . S
C1067 C1066 1.372 . S
C1067 C1068 1.400 . S
C1067 C1072 1.490 . S
C1068 H1058 0.930 . S
C1068 C1067 1.400 . S
C1068 C1071 1.386 . S
H1069 C1085 0.930 . S
H1070 C1086 0.931 . S
C1071 H1059 0.929 . S
C1071 C1065 1.390 . S
C1071 C1068 1.386 . S
C1072 C1067 1.490 . S
C1072 C1074 1.395 . S
C1072 C1075 1.403 . S
H1073 C1079 0.930 . S
C1074 H1060 0.930 . S
C1074 C1072 1.395 . S
C1074 C1077 1.403 . S
C1075 C1072 1.403 . S
C1075 C1076 1.524 . S
C1075 C1079 1.400 . S
C1076 H1061 0.960 . S
C1076 H1062 0.960 . S
C1076 H1063 0.960 . S
C1076 C1075 1.524 . S
C1077 C1074 1.403 . S
C1077 C1078 1.392 . S
C1077 C1081 1.495 . S
C1078 C1077 1.392 . S
C1078 C1079 1.385 . S
C1078 C1080 1.478 . S
C1079 H1073 0.930 . S
C1079 C1075 1.400 . S
C1079 C1078 1.385 . S
C1080 C1078 1.478 . S
C1080 C1082 1.381 . S
C1080 C1086 1.383 . S
C1081 C1077 1.495 . S
C1081 H1087 0.959 1_554 S
C1081 H1088 0.961 1_554 S
C1081 H1089 0.960 . S
C1082 C1080 1.381 . S
C1082 C1083 1.394 . S
C1082 H1090 0.930 . S
C1083 C1082 1.394 . S
C1083 C1084 1.383 . S
C1083 H1091 0.929 . S
C1084 C1083 1.383 . S
C1084 C1085 1.377 . S
C1085 H1069 0.930 . S
C1085 C1084 1.377 . S
C1085 C1086 1.379 . S
C1086 H1070 0.931 . S
C1086 C1080 1.383 . S
C1086 C1085 1.379 . S
H1087 C1081 0.959 1_556 S
H1088 C1081 0.961 1_556 S
H1089 C1081 0.960 . S
H1090 C1082 0.930 . S
H1091 C1083 0.929 . S
H1092 C1100 0.929 . S
H1093 C1102 0.930 . S
H1094 C1104 0.930 . S
H1095 C1107 0.929 . S
H1096 C1110 0.930 . S
H1097 C1112 0.960 . S
H1098 C1112 0.960 . S
H1099 C1112 0.960 . S
C1100 H1092 0.929 . S
C1100 C1101 1.377 . S
C1100 C1102 1.384 . S
C1101 C1100 1.377 . S
C1101 C1107 1.390 . S
C1102 H1093 0.930 . S
C1102 C1100 1.384 . S
C1102 C1103 1.372 . S
C1103 C1102 1.372 . S
C1103 C1104 1.400 . S
C1103 C1108 1.490 . S
C1104 H1094 0.930 . S
C1104 C1103 1.400 . S
C1104 C1107 1.386 . S
H1105 C1121 0.930 . S
H1106 C1122 0.931 . S
C1107 H1095 0.929 . S
C1107 C1101 1.390 . S
C1107 C1104 1.386 . S
C1108 C1103 1.490 . S
C1108 C1110 1.395 . S
C1108 C1111 1.403 . S
H1109 C1115 0.930 . S
C1110 H1096 0.930 . S
C1110 C1108 1.395 . S
C1110 C1113 1.403 1_455 S
C1111 C1108 1.403 . S
C1111 C1112 1.524 . S
C1111 C1115 1.400 1_455 S
C1112 H1097 0.960 . S
C1112 H1098 0.960 . S
C1112 H1099 0.960 . S
C1112 C1111 1.524 . S
C1113 C1110 1.403 1_655 S
C1113 C1114 1.392 . S
C1113 C1117 1.495 . S
C1114 C1113 1.392 . S
C1114 C1115 1.385 . S
C1114 C1116 1.478 . S
C1115 H1109 0.930 . S
C1115 C1111 1.400 1_655 S
C1115 C1114 1.385 . S
C1116 C1114 1.478 . S
C1116 C1118 1.381 . S
C1116 C1122 1.383 . S
C1117 C1113 1.495 . S
C1117 H1123 0.959 . S
C1117 H1124 0.961 . S
C1117 H1125 0.960 . S
C1118 C1116 1.381 . S
C1118 C1119 1.394 . S
C1118 H1126 0.930 . S
C1119 C1118 1.394 . S
C1119 C1120 1.383 . S
C1119 H1127 0.929 . S
C1120 C1119 1.383 . S
C1120 C1121 1.377 . S
C1121 H1105 0.930 . S
C1121 C1120 1.377 . S
C1121 C1122 1.379 . S
C1122 H1106 0.931 . S
C1122 C1116 1.383 . S
C1122 C1121 1.379 . S
H1123 C1117 0.959 . S
H1124 C1117 0.961 . S
H1125 C1117 0.960 . S
H1126 C1118 0.930 . S
H1127 C1119 0.929 . S
H1128 C1136 0.929 . S
H1129 C1138 0.930 . S
H1130 C1140 0.930 . S
H1131 C1143 0.929 . S
H1132 C1146 0.930 . S
H1133 C1148 0.960 . S
H1134 C1148 0.960 . S
H1135 C1148 0.960 . S
C1136 H1128 0.929 . S
C1136 C1137 1.377 . S
C1136 C1138 1.384 . S
C1137 C1136 1.377 . S
C1137 C1143 1.390 . S
C1138 H1129 0.930 . S
C1138 C1136 1.384 . S
C1138 C1139 1.372 . S
C1139 C1138 1.372 . S
C1139 C1140 1.400 . S
C1139 C1144 1.490 . S
C1140 H1130 0.930 . S
C1140 C1139 1.400 . S
C1140 C1143 1.386 . S
H1141 C1157 0.930 . S
H1142 C1158 0.931 . S
C1143 H1131 0.929 . S
C1143 C1137 1.390 . S
C1143 C1140 1.386 . S
C1144 C1139 1.490 . S
C1144 C1146 1.395 . S
C1144 C1147 1.403 . S
H1145 C1151 0.930 . S
C1146 H1132 0.930 . S
C1146 C1144 1.395 . S
C1146 C1149 1.403 . S
C1147 C1144 1.403 . S
C1147 C1148 1.524 . S
C1147 C1151 1.400 . S
C1148 H1133 0.960 . S
C1148 H1134 0.960 . S
C1148 H1135 0.960 . S
C1148 C1147 1.524 . S
C1149 C1146 1.403 . S
C1149 C1150 1.392 . S
C1149 C1153 1.495 . S
C1150 C1149 1.392 . S
C1150 C1151 1.385 . S
C1150 C1152 1.478 . S
C1151 H1145 0.930 . S
C1151 C1147 1.400 . S
C1151 C1150 1.385 . S
C1152 C1150 1.478 . S
C1152 C1154 1.381 . S
C1152 C1158 1.383 . S
C1153 C1149 1.495 . S
C1153 H1159 0.959 . S
C1153 H1160 0.961 . S
C1153 H1161 0.960 . S
C1154 C1152 1.381 . S
C1154 C1155 1.394 . S
C1154 H1162 0.930 . S
C1155 C1154 1.394 . S
C1155 C1156 1.383 . S
C1155 H1163 0.929 . S
C1156 C1155 1.383 . S
C1156 C1157 1.377 . S
C1157 H1141 0.930 . S
C1157 C1156 1.377 . S
C1157 C1158 1.379 . S
C1158 H1142 0.931 . S
C1158 C1152 1.383 . S
C1158 C1157 1.379 . S
H1159 C1153 0.959 . S
H1160 C1153 0.961 . S
H1161 C1153 0.960 . S
H1162 C1154 0.930 . S
H1163 C1155 0.929 . S
H1164 C1172 0.929 . S
H1165 C1174 0.930 . S
H1166 C1176 0.930 . S
H1167 C1179 0.929 . S
H1168 C1182 0.930 . S
H1169 C1184 0.960 . S
H1170 C1184 0.960 . S
H1171 C1184 0.960 . S
C1172 H1164 0.929 . S
C1172 C1173 1.377 . S
C1172 C1174 1.384 . S
C1173 C1172 1.377 . S
C1173 C1179 1.390 . S
C1174 H1165 0.930 . S
C1174 C1172 1.384 . S
C1174 C1175 1.372 . S
C1175 C1174 1.372 . S
C1175 C1176 1.400 . S
C1175 C1180 1.490 . S
C1176 H1166 0.930 . S
C1176 C1175 1.400 . S
C1176 C1179 1.386 . S
H1177 C1193 0.930 . S
H1178 C1194 0.931 . S
C1179 H1167 0.929 . S
C1179 C1173 1.390 . S
C1179 C1176 1.386 . S
C1180 C1175 1.490 . S
C1180 C1182 1.395 . S
C1180 C1183 1.403 . S
H1181 C1187 0.930 . S
C1182 H1168 0.930 . S
C1182 C1180 1.395 . S
C1182 C1185 1.403 . S
C1183 C1180 1.403 . S
C1183 C1184 1.524 . S
C1183 C1187 1.400 . S
C1184 H1169 0.960 . S
C1184 H1170 0.960 . S
C1184 H1171 0.960 . S
C1184 C1183 1.524 . S
C1185 C1182 1.403 . S
C1185 C1186 1.392 . S
C1185 C1189 1.495 . S
C1186 C1185 1.392 . S
C1186 C1187 1.385 . S
C1186 C1188 1.478 . S
C1187 H1181 0.930 . S
C1187 C1183 1.400 . S
C1187 C1186 1.385 . S
C1188 C1186 1.478 . S
C1188 C1190 1.381 . S
C1188 C1194 1.383 . S
C1189 C1185 1.495 . S
C1189 H1195 0.959 . S
C1189 H1196 0.961 . S
C1189 H1197 0.960 . S
C1190 C1188 1.381 . S
C1190 C1191 1.394 . S
C1190 H1198 0.930 . S
C1191 C1190 1.394 . S
C1191 C1192 1.383 . S
C1191 H1199 0.929 . S
C1192 C1191 1.383 . S
C1192 C1193 1.377 . S
C1193 H1177 0.930 . S
C1193 C1192 1.377 . S
C1193 C1194 1.379 . S
C1194 H1178 0.931 . S
C1194 C1188 1.383 . S
C1194 C1193 1.379 . S
H1195 C1189 0.959 . S
H1196 C1189 0.961 . S
H1197 C1189 0.960 . S
H1198 C1190 0.930 . S
H1199 C1191 0.929 . S
H1200 C1208 0.929 . S
H1201 C1210 0.930 . S
H1202 C1212 0.930 1_554 S
H1203 C1215 0.929 1_554 S
H1204 C1218 0.930 . S
H1205 C1220 0.960 . S
H1206 C1220 0.960 . S
H1207 C1220 0.960 . S
C1208 H1200 0.929 . S
C1208 C1209 1.377 . S
C1208 C1210 1.384 . S
C1209 C1208 1.377 . S
C1209 C1215 1.390 . S
C1210 H1201 0.930 . S
C1210 C1208 1.384 . S
C1210 C1211 1.372 . S
C1211 C1210 1.372 . S
C1211 C1212 1.400 . S
C1211 C1216 1.490 . S
C1212 H1202 0.930 1_556 S
C1212 C1211 1.400 . S
C1212 C1215 1.386 . S
H1213 C1229 0.930 1_554 S
H1214 C1230 0.931 1_554 S
C1215 H1203 0.929 1_556 S
C1215 C1209 1.390 . S
C1215 C1212 1.386 . S
C1216 C1211 1.490 . S
C1216 C1218 1.395 . S
C1216 C1219 1.403 . S
H1217 C1223 0.930 . S
C1218 H1204 0.930 . S
C1218 C1216 1.395 . S
C1218 C1221 1.403 . S
C1219 C1216 1.403 . S
C1219 C1220 1.524 . S
C1219 C1223 1.400 . S
C1220 H1205 0.960 . S
C1220 H1206 0.960 . S
C1220 H1207 0.960 . S
C1220 C1219 1.524 . S
C1221 C1218 1.403 . S
C1221 C1222 1.392 . S
C1221 C1225 1.495 . S
C1222 C1221 1.392 . S
C1222 C1223 1.385 . S
C1222 C1224 1.478 . S
C1223 H1217 0.930 . S
C1223 C1219 1.400 . S
C1223 C1222 1.385 . S
C1224 C1222 1.478 . S
C1224 C1226 1.381 . S
C1224 C1230 1.383 . S
C1225 C1221 1.495 . S
C1225 H1231 0.959 . S
C1225 H1232 0.961 . S
C1225 H1233 0.960 . S
C1226 C1224 1.381 . S
C1226 C1227 1.394 . S
C1226 H1234 0.930 . S
C1227 C1226 1.394 . S
C1227 C1228 1.383 . S
C1227 H1235 0.929 . S
C1228 C1227 1.383 . S
C1228 C1229 1.377 . S
C1229 H1213 0.930 1_556 S
C1229 C1228 1.377 . S
C1229 C1230 1.379 . S
C1230 H1214 0.931 1_556 S
C1230 C1224 1.383 . S
C1230 C1229 1.379 . S
H1231 C1225 0.959 . S
H1232 C1225 0.961 . S
H1233 C1225 0.960 . S
H1234 C1226 0.930 . S
H1235 C1227 0.929 . S
H1236 C1244 0.929 . S
H1237 C1246 0.930 . S
H1238 C1248 0.930 . S
H1239 C1251 0.929 . S
H1240 C1254 0.930 . S
H1241 C1256 0.960 . S
H1242 C1256 0.960 . S
H1243 C1256 0.960 . S
C1244 H1236 0.929 . S
C1244 C1245 1.377 . S
C1244 C1246 1.384 . S
C1245 C1244 1.377 . S
C1245 C1251 1.390 . S
C1246 H1237 0.930 . S
C1246 C1244 1.384 . S
C1246 C1247 1.372 . S
C1247 C1246 1.372 . S
C1247 C1248 1.400 . S
C1247 C1252 1.490 . S
C1248 H1238 0.930 . S
C1248 C1247 1.400 . S
C1248 C1251 1.386 . S
H1249 C1265 0.930 . S
H1250 C1266 0.931 . S
C1251 H1239 0.929 . S
C1251 C1245 1.390 . S
C1251 C1248 1.386 . S
C1252 C1247 1.490 . S
C1252 C1254 1.395 . S
C1252 C1255 1.403 . S
H1253 C1259 0.930 . S
C1254 H1240 0.930 . S
C1254 C1252 1.395 . S
C1254 C1257 1.403 . S
C1255 C1252 1.403 . S
C1255 C1256 1.524 . S
C1255 C1259 1.400 . S
C1256 H1241 0.960 . S
C1256 H1242 0.960 . S
C1256 H1243 0.960 . S
C1256 C1255 1.524 . S
C1257 C1254 1.403 . S
C1257 C1258 1.392 . S
C1257 C1261 1.495 . S
C1258 C1257 1.392 . S
C1258 C1259 1.385 . S
C1258 C1260 1.478 . S
C1259 H1253 0.930 . S
C1259 C1255 1.400 . S
C1259 C1258 1.385 . S
C1260 C1258 1.478 . S
C1260 C1262 1.381 . S
C1260 C1266 1.383 . S
C1261 C1257 1.495 . S
C1261 H1267 0.959 . S
C1261 H1268 0.961 . S
C1261 H1269 0.960 . S
C1262 C1260 1.381 . S
C1262 C1263 1.394 . S
C1262 H1270 0.930 . S
C1263 C1262 1.394 . S
C1263 C1264 1.383 . S
C1263 H1271 0.929 . S
C1264 C1263 1.383 . S
C1264 C1265 1.377 . S
C1265 H1249 0.930 . S
C1265 C1264 1.377 . S
C1265 C1266 1.379 . S
C1266 H1250 0.931 . S
C1266 C1260 1.383 . S
C1266 C1265 1.379 . S
H1267 C1261 0.959 . S
H1268 C1261 0.961 . S
H1269 C1261 0.960 . S
H1270 C1262 0.930 . S
H1271 C1263 0.929 . S
H1272 C1280 0.929 . S
H1273 C1282 0.930 . S
H1274 C1284 0.930 . S
H1275 C1287 0.929 . S
H1276 C1290 0.930 . S
H1277 C1292 0.960 . S
H1278 C1292 0.960 . S
H1279 C1292 0.960 . S
C1280 H1272 0.929 . S
C1280 C1281 1.377 . S
C1280 C1282 1.384 . S
C1281 C1280 1.377 . S
C1281 C1287 1.390 . S
C1282 H1273 0.930 . S
C1282 C1280 1.384 . S
C1282 C1283 1.372 . S
C1283 C1282 1.372 . S
C1283 C1284 1.400 . S
C1283 C1288 1.490 . S
C1284 H1274 0.930 . S
C1284 C1283 1.400 . S
C1284 C1287 1.386 . S
H1285 C1301 0.930 . S
H1286 C1302 0.931 . S
C1287 H1275 0.929 . S
C1287 C1281 1.390 . S
C1287 C1284 1.386 . S
C1288 C1283 1.490 . S
C1288 C1290 1.395 . S
C1288 C1291 1.403 . S
H1289 C1295 0.930 . S
C1290 H1276 0.930 . S
C1290 C1288 1.395 . S
C1290 C1293 1.403 . S
C1291 C1288 1.403 . S
C1291 C1292 1.524 . S
C1291 C1295 1.400 . S
C1292 H1277 0.960 . S
C1292 H1278 0.960 . S
C1292 H1279 0.960 . S
C1292 C1291 1.524 . S
C1293 C1290 1.403 . S
C1293 C1294 1.392 . S
C1293 C1297 1.495 . S
C1294 C1293 1.392 . S
C1294 C1295 1.385 . S
C1294 C1296 1.478 . S
C1295 H1289 0.930 . S
C1295 C1291 1.400 . S
C1295 C1294 1.385 . S
C1296 C1294 1.478 . S
C1296 C1298 1.381 . S
C1296 C1302 1.383 . S
C1297 C1293 1.495 . S
C1297 H1303 0.959 . S
C1297 H1304 0.961 . S
C1297 H1305 0.960 . S
C1298 C1296 1.381 . S
C1298 C1299 1.394 . S
C1298 H1306 0.930 . S
C1299 C1298 1.394 . S
C1299 C1300 1.383 . S
C1299 H1307 0.929 . S
C1300 C1299 1.383 . S
C1300 C1301 1.377 . S
C1301 H1285 0.930 . S
C1301 C1300 1.377 . S
C1301 C1302 1.379 . S
C1302 H1286 0.931 . S
C1302 C1296 1.383 . S
C1302 C1301 1.379 . S
H1303 C1297 0.959 . S
H1304 C1297 0.961 . S
H1305 C1297 0.960 . S
H1306 C1298 0.930 . S
H1307 C1299 0.929 . S
H1308 C1316 0.929 . S
H1309 C1318 0.930 . S
H1310 C1320 0.930 . S
H1311 C1323 0.929 . S
H1312 C1326 0.930 . S
H1313 C1328 0.960 . S
H1314 C1328 0.960 . S
H1315 C1328 0.960 . S
C1316 H1308 0.929 . S
C1316 C1317 1.377 . S
C1316 C1318 1.384 . S
C1317 C1316 1.377 . S
C1317 C1323 1.390 . S
C1318 H1309 0.930 . S
C1318 C1316 1.384 . S
C1318 C1319 1.372 . S
C1319 C1318 1.372 . S
C1319 C1320 1.400 . S
C1319 C1324 1.490 . S
C1320 H1310 0.930 . S
C1320 C1319 1.400 . S
C1320 C1323 1.386 . S
H1321 C1337 0.930 . S
H1322 C1338 0.931 . S
C1323 H1311 0.929 . S
C1323 C1317 1.390 . S
C1323 C1320 1.386 . S
C1324 C1319 1.490 . S
C1324 C1326 1.395 . S
C1324 C1327 1.403 . S
H1325 C1331 0.930 . S
C1326 H1312 0.930 . S
C1326 C1324 1.395 . S
C1326 C1329 1.403 1_655 S
C1327 C1324 1.403 . S
C1327 C1328 1.524 . S
C1327 C1331 1.400 1_655 S
C1328 H1313 0.960 . S
C1328 H1314 0.960 . S
C1328 H1315 0.960 . S
C1328 C1327 1.524 . S
C1329 C1326 1.403 1_455 S
C1329 C1330 1.392 . S
C1329 C1333 1.495 . S
C1330 C1329 1.392 . S
C1330 C1331 1.385 . S
C1330 C1332 1.478 . S
C1331 H1325 0.930 . S
C1331 C1327 1.400 1_455 S
C1331 C1330 1.385 . S
C1332 C1330 1.478 . S
C1332 C1334 1.381 . S
C1332 C1338 1.383 . S
C1333 C1329 1.495 . S
C1333 H1339 0.959 . S
C1333 H1340 0.961 . S
C1333 H1341 0.960 . S
C1334 C1332 1.381 . S
C1334 C1335 1.394 . S
C1334 H1342 0.930 . S
C1335 C1334 1.394 . S
C1335 C1336 1.383 . S
C1335 H1343 0.929 . S
C1336 C1335 1.383 . S
C1336 C1337 1.377 . S
C1337 H1321 0.930 . S
C1337 C1336 1.377 . S
C1337 C1338 1.379 . S
C1338 H1322 0.931 . S
C1338 C1332 1.383 . S
C1338 C1337 1.379 . S
H1339 C1333 0.959 . S
H1340 C1333 0.961 . S
H1341 C1333 0.960 . S
H1342 C1334 0.930 . S
H1343 C1335 0.929 . S
H1344 C1352 0.929 . S
H1345 C1354 0.930 . S
H1346 C1356 0.930 . S
H1347 C1359 0.929 . S
H1348 C1362 0.930 . S
H1349 C1364 0.960 . S
H1350 C1364 0.960 1_554 S
H1351 C1364 0.960 . S
C1352 H1344 0.929 . S
C1352 C1353 1.377 . S
C1352 C1354 1.384 . S
C1353 C1352 1.377 . S
C1353 C1359 1.390 . S
C1354 H1345 0.930 . S
C1354 C1352 1.384 . S
C1354 C1355 1.372 . S
C1355 C1354 1.372 . S
C1355 C1356 1.400 . S
C1355 C1360 1.490 . S
C1356 H1346 0.930 . S
C1356 C1355 1.400 . S
C1356 C1359 1.386 . S
H1357 C1373 0.930 . S
H1358 C1374 0.931 . S
C1359 H1347 0.929 . S
C1359 C1353 1.390 . S
C1359 C1356 1.386 . S
C1360 C1355 1.490 . S
C1360 C1362 1.395 . S
C1360 C1363 1.403 . S
H1361 C1367 0.930 . S
C1362 H1348 0.930 . S
C1362 C1360 1.395 . S
C1362 C1365 1.403 . S
C1363 C1360 1.403 . S
C1363 C1364 1.524 . S
C1363 C1367 1.400 . S
C1364 H1349 0.960 . S
C1364 H1350 0.960 1_556 S
C1364 H1351 0.960 . S
C1364 C1363 1.524 . S
C1365 C1362 1.403 . S
C1365 C1366 1.392 . S
C1365 C1369 1.495 . S
C1366 C1365 1.392 . S
C1366 C1367 1.385 . S
C1366 C1368 1.478 . S
C1367 H1361 0.930 . S
C1367 C1363 1.400 . S
C1367 C1366 1.385 . S
C1368 C1366 1.478 . S
C1368 C1370 1.381 . S
C1368 C1374 1.383 . S
C1369 C1365 1.495 . S
C1369 H1375 0.959 . S
C1369 H1376 0.961 . S
C1369 H1377 0.960 . S
C1370 C1368 1.381 . S
C1370 C1371 1.394 . S
C1370 H1378 0.930 . S
C1371 C1370 1.394 . S
C1371 C1372 1.383 . S
C1371 H1379 0.929 . S
C1372 C1371 1.383 . S
C1372 C1373 1.377 . S
C1373 H1357 0.930 . S
C1373 C1372 1.377 . S
C1373 C1374 1.379 . S
C1374 H1358 0.931 . S
C1374 C1368 1.383 . S
C1374 C1373 1.379 . S
H1375 C1369 0.959 . S
H1376 C1369 0.961 . S
H1377 C1369 0.960 . S
H1378 C1370 0.930 . S
H1379 C1371 0.929 . S
H1380 C1388 0.929 . S
H1381 C1390 0.930 . S
H1382 C1392 0.930 . S
H1383 C1395 0.929 . S
H1384 C1398 0.930 . S
H1385 C1400 0.960 . S
H1386 C1400 0.960 . S
H1387 C1400 0.960 . S
C1388 H1380 0.929 . S
C1388 C1389 1.377 . S
C1388 C1390 1.384 . S
C1389 C1388 1.377 . S
C1389 C1395 1.390 . S
C1390 H1381 0.930 . S
C1390 C1388 1.384 . S
C1390 C1391 1.372 . S
C1391 C1390 1.372 . S
C1391 C1392 1.400 . S
C1391 C1396 1.490 . S
C1392 H1382 0.930 . S
C1392 C1391 1.400 . S
C1392 C1395 1.386 . S
H1393 C1409 0.930 . S
H1394 C1410 0.931 . S
C1395 H1383 0.929 . S
C1395 C1389 1.390 . S
C1395 C1392 1.386 . S
C1396 C1391 1.490 . S
C1396 C1398 1.395 . S
C1396 C1399 1.403 . S
H1397 C1403 0.930 . S
C1398 H1384 0.930 . S
C1398 C1396 1.395 . S
C1398 C1401 1.403 . S
C1399 C1396 1.403 . S
C1399 C1400 1.524 . S
C1399 C1403 1.400 . S
C1400 H1385 0.960 . S
C1400 H1386 0.960 . S
C1400 H1387 0.960 . S
C1400 C1399 1.524 . S
C1401 C1398 1.403 . S
C1401 C1402 1.392 . S
C1401 C1405 1.495 . S
C1402 C1401 1.392 . S
C1402 C1403 1.385 . S
C1402 C1404 1.478 . S
C1403 H1397 0.930 . S
C1403 C1399 1.400 . S
C1403 C1402 1.385 . S
C1404 C1402 1.478 . S
C1404 C1406 1.381 . S
C1404 C1410 1.383 . S
C1405 C1401 1.495 . S
C1405 H1411 0.959 . S
C1405 H1412 0.961 . S
C1405 H1413 0.960 . S
C1406 C1404 1.381 . S
C1406 C1407 1.394 . S
C1406 H1414 0.930 . S
C1407 C1406 1.394 . S
C1407 C1408 1.383 . S
C1407 H1415 0.929 . S
C1408 C1407 1.383 . S
C1408 C1409 1.377 . S
C1409 H1393 0.930 . S
C1409 C1408 1.377 . S
C1409 C1410 1.379 . S
C1410 H1394 0.931 . S
C1410 C1404 1.383 . S
C1410 C1409 1.379 . S
H1411 C1405 0.959 . S
H1412 C1405 0.961 . S
H1413 C1405 0.960 . S
H1414 C1406 0.930 . S
H1415 C1407 0.929 . S
H1416 C1424 0.929 . S
H1417 C1426 0.930 . S
H1418 C1428 0.930 . S
H1419 C1431 0.929 . S
H1420 C1434 0.930 . S
H1421 C1436 0.960 . S
H1422 C1436 0.960 . S
H1423 C1436 0.967 . S
C1424 H1416 0.929 . S
C1424 C1425 1.377 . S
C1424 C1426 1.384 . S
C1425 C1424 1.377 . S
C1425 C1431 1.390 . S
C1426 H1417 0.930 . S
C1426 C1424 1.384 . S
C1426 C1427 1.372 . S
C1427 C1426 1.372 . S
C1427 C1428 1.400 . S
C1427 C1432 1.490 . S
C1428 H1418 0.930 . S
C1428 C1427 1.400 . S
C1428 C1431 1.386 . S
H1429 C1445 0.930 . S
H1430 C1446 0.931 . S
C1431 H1419 0.929 . S
C1431 C1425 1.390 . S
C1431 C1428 1.386 . S
C1432 C1427 1.490 . S
C1432 C1434 1.395 . S
C1432 C1435 1.403 . S
H1433 C1439 0.930 . S
C1434 H1420 0.930 . S
C1434 C1432 1.395 . S
C1434 C1437 1.403 . S
C1435 C1432 1.403 . S
C1435 C1436 1.524 1_554 S
C1435 C1439 1.400 . S
C1436 H1421 0.960 . S
C1436 H1422 0.960 . S
C1436 H1423 0.967 . S
C1436 C1435 1.524 1_556 S
C1437 C1434 1.403 . S
C1437 C1438 1.392 . S
C1437 C1441 1.495 . S
C1438 C1437 1.392 . S
C1438 C1439 1.385 . S
C1438 C1440 1.478 . S
C1439 H1433 0.930 . S
C1439 C1435 1.400 . S
C1439 C1438 1.385 . S
C1440 C1438 1.478 . S
C1440 C1442 1.381 . S
C1440 C1446 1.383 . S
C1441 C1437 1.495 . S
C1441 H1447 0.959 . S
C1441 H1448 0.961 . S
C1441 H1449 0.960 . S
C1442 C1440 1.381 . S
C1442 C1443 1.394 . S
C1442 H1450 0.930 . S
C1443 C1442 1.394 . S
C1443 C1444 1.383 . S
C1443 H1451 0.929 . S
C1444 C1443 1.383 . S
C1444 C1445 1.377 . S
C1445 H1429 0.930 . S
C1445 C1444 1.377 . S
C1445 C1446 1.379 . S
C1446 H1430 0.931 . S
C1446 C1440 1.383 . S
C1446 C1445 1.379 . S
H1447 C1441 0.959 . S
H1448 C1441 0.961 . S
H1449 C1441 0.960 . S
H1450 C1442 0.930 . S
H1451 C1443 0.929 . S
H1452 C1460 0.929 . S
H1453 C1462 0.930 . S
H1454 C1464 0.930 . S
H1455 C1467 0.929 . S
H1456 C1470 0.930 . S
H1457 C1472 0.960 . S
H1458 C1472 0.960 . S
H1459 C1472 0.960 . S
C1460 H1452 0.929 . S
C1460 C1461 1.377 . S
C1460 C1462 1.384 . S
C1461 C1460 1.377 . S
C1461 C1467 1.390 . S
C1462 H1453 0.930 . S
C1462 C1460 1.384 . S
C1462 C1463 1.372 . S
C1463 C1462 1.372 . S
C1463 C1464 1.400 . S
C1463 C1468 1.490 . S
C1464 H1454 0.930 . S
C1464 C1463 1.400 . S
C1464 C1467 1.386 . S
H1465 C1481 0.930 . S
H1466 C1482 0.931 . S
C1467 H1455 0.929 . S
C1467 C1461 1.390 . S
C1467 C1464 1.386 . S
C1468 C1463 1.490 . S
C1468 C1470 1.395 . S
C1468 C1471 1.403 . S
H1469 C1475 0.930 . S
C1470 H1456 0.930 . S
C1470 C1468 1.395 . S
C1470 C1473 1.403 . S
C1471 C1468 1.403 . S
C1471 C1472 1.524 . S
C1471 C1475 1.400 . S
C1472 H1457 0.960 . S
C1472 H1458 0.960 . S
C1472 H1459 0.960 . S
C1472 C1471 1.524 . S
C1473 C1470 1.403 . S
C1473 C1474 1.392 . S
C1473 C1477 1.495 . S
C1474 C1473 1.392 . S
C1474 C1475 1.385 . S
C1474 C1476 1.478 . S
C1475 H1469 0.930 . S
C1475 C1471 1.400 . S
C1475 C1474 1.385 . S
C1476 C1474 1.478 . S
C1476 C1478 1.381 . S
C1476 C1482 1.383 . S
C1477 C1473 1.495 . S
C1477 H1483 0.959 . S
C1477 H1484 0.961 . S
C1477 H1485 0.960 . S
C1478 C1476 1.381 . S
C1478 C1479 1.394 . S
C1478 H1486 0.930 . S
C1479 C1478 1.394 . S
C1479 C1480 1.383 . S
C1479 H1487 0.929 . S
C1480 C1479 1.383 . S
C1480 C1481 1.377 . S
C1481 H1465 0.930 . S
C1481 C1480 1.377 . S
C1481 C1482 1.379 . S
C1482 H1466 0.931 . S
C1482 C1476 1.383 . S
C1482 C1481 1.379 . S
H1483 C1477 0.959 . S
H1484 C1477 0.961 . S
H1485 C1477 0.960 . S
H1486 C1478 0.930 . S
H1487 C1479 0.929 . S
H1488 C1496 0.929 . S
H1489 C1498 0.930 . S
H1490 C1500 0.930 . S
H1491 C1503 0.929 . S
H1492 C1506 0.930 . S
H1493 C1508 0.960 . S
H1494 C1508 0.960 . S
H1495 C1508 0.960 . S
C1496 H1488 0.929 . S
C1496 C1497 1.377 . S
C1496 C1498 1.384 . S
C1497 C1496 1.377 . S
C1497 C1503 1.390 . S
C1498 H1489 0.930 . S
C1498 C1496 1.384 . S
C1498 C1499 1.372 . S
C1499 C1498 1.372 . S
C1499 C1500 1.400 . S
C1499 C1504 1.490 . S
C1500 H1490 0.930 . S
C1500 C1499 1.400 . S
C1500 C1503 1.386 . S
H1501 C1517 0.930 . S
H1502 C1518 0.931 . S
C1503 H1491 0.929 . S
C1503 C1497 1.390 . S
C1503 C1500 1.386 . S
C1504 C1499 1.490 . S
C1504 C1506 1.395 . S
C1504 C1507 1.403 . S
H1505 C1511 0.930 . S
C1506 H1492 0.930 . S
C1506 C1504 1.395 . S
C1506 C1509 1.403 . S
C1507 C1504 1.403 . S
C1507 C1508 1.524 . S
C1507 C1511 1.400 . S
C1508 H1493 0.960 . S
C1508 H1494 0.960 . S
C1508 H1495 0.960 . S
C1508 C1507 1.524 . S
C1509 C1506 1.403 . S
C1509 C1510 1.392 . S
C1509 C1513 1.495 . S
C1510 C1509 1.392 . S
C1510 C1511 1.385 . S
C1510 C1512 1.478 . S
C1511 H1505 0.930 . S
C1511 C1507 1.400 . S
C1511 C1510 1.385 . S
C1512 C1510 1.478 . S
C1512 C1514 1.381 . S
C1512 C1518 1.383 . S
C1513 C1509 1.495 . S
C1513 H1519 0.959 . S
C1513 H1520 0.961 . S
C1513 H1521 0.960 . S
C1514 C1512 1.381 . S
C1514 C1515 1.394 . S
C1514 H1522 0.930 . S
C1515 C1514 1.394 . S
C1515 C1516 1.383 . S
C1515 H1523 0.929 . S
C1516 C1515 1.383 . S
C1516 C1517 1.377 . S
C1517 H1501 0.930 . S
C1517 C1516 1.377 . S
C1517 C1518 1.379 . S
C1518 H1502 0.931 . S
C1518 C1512 1.383 . S
C1518 C1517 1.379 . S
H1519 C1513 0.959 . S
H1520 C1513 0.961 . S
H1521 C1513 0.960 . S
H1522 C1514 0.930 . S
H1523 C1515 0.929 . S
H1524 C1532 0.929 . S
H1525 C1534 0.930 . S
H1526 C1536 0.930 . S
H1527 C1539 0.929 . S
H1528 C1542 0.930 . S
H1529 C1544 0.960 . S
H1530 C1544 0.960 . S
H1531 C1544 0.960 . S
C1532 H1524 0.929 . S
C1532 C1533 1.377 . S
C1532 C1534 1.384 . S
C1533 C1532 1.377 . S
C1533 C1539 1.390 . S
C1534 H1525 0.930 . S
C1534 C1532 1.384 . S
C1534 C1535 1.372 . S
C1535 C1534 1.372 . S
C1535 C1536 1.400 . S
C1535 C1540 1.490 . S
C1536 H1526 0.930 . S
C1536 C1535 1.400 . S
C1536 C1539 1.386 . S
H1537 C1553 0.930 . S
H1538 C1554 0.931 . S
C1539 H1527 0.929 . S
C1539 C1533 1.390 . S
C1539 C1536 1.386 . S
C1540 C1535 1.490 . S
C1540 C1542 1.395 . S
C1540 C1543 1.403 . S
H1541 C1547 0.930 . S
C1542 H1528 0.930 . S
C1542 C1540 1.395 . S
C1542 C1545 1.403 1_455 S
C1543 C1540 1.403 . S
C1543 C1544 1.524 . S
C1543 C1547 1.400 1_455 S
C1544 H1529 0.960 . S
C1544 H1530 0.960 . S
C1544 H1531 0.960 . S
C1544 C1543 1.524 . S
C1545 C1542 1.403 1_655 S
C1545 C1546 1.392 . S
C1545 C1549 1.495 . S
C1546 C1545 1.392 . S
C1546 C1547 1.385 . S
C1546 C1548 1.478 . S
C1547 H1541 0.930 . S
C1547 C1543 1.400 1_655 S
C1547 C1546 1.385 . S
C1548 C1546 1.478 . S
C1548 C1550 1.381 . S
C1548 C1554 1.383 . S
C1549 C1545 1.495 . S
C1549 H1555 0.959 . S
C1549 H1556 0.961 . S
C1549 H1557 0.960 . S
C1550 C1548 1.381 . S
C1550 C1551 1.394 . S
C1550 H1558 0.930 . S
C1551 C1550 1.394 . S
C1551 C1552 1.383 . S
C1551 H1559 0.929 . S
C1552 C1551 1.383 . S
C1552 C1553 1.377 . S
C1553 H1537 0.930 . S
C1553 C1552 1.377 . S
C1553 C1554 1.379 . S
C1554 H1538 0.931 . S
C1554 C1548 1.383 . S
C1554 C1553 1.379 . S
H1555 C1549 0.959 . S
H1556 C1549 0.961 . S
H1557 C1549 0.960 . S
H1558 C1550 0.930 . S
H1559 C1551 0.929 . S
H1560 C1568 0.929 . S
H1561 C1570 0.930 . S
H1562 C1572 0.930 . S
H1563 C1575 0.929 . S
H1564 C1578 0.930 . S
H1565 C1580 0.960 . S
H1566 C1580 0.960 . S
H1567 C1580 0.960 . S
C1568 H1560 0.929 . S
C1568 C1569 1.377 . S
C1568 C1570 1.384 . S
C1569 C1568 1.377 . S
C1569 C1575 1.390 . S
C1570 H1561 0.930 . S
C1570 C1568 1.384 . S
C1570 C1571 1.372 . S
C1571 C1570 1.372 . S
C1571 C1572 1.400 . S
C1571 C1576 1.490 . S
C1572 H1562 0.930 . S
C1572 C1571 1.400 . S
C1572 C1575 1.386 . S
H1573 C1589 0.930 . S
H1574 C1590 0.931 . S
C1575 H1563 0.929 . S
C1575 C1569 1.390 . S
C1575 C1572 1.386 . S
C1576 C1571 1.490 . S
C1576 C1578 1.395 . S
C1576 C1579 1.403 . S
H1577 C1583 0.930 . S
C1578 H1564 0.930 . S
C1578 C1576 1.395 . S
C1578 C1581 1.403 1_455 S
C1579 C1576 1.403 . S
C1579 C1580 1.524 . S
C1579 C1583 1.400 1_455 S
C1580 H1565 0.960 . S
C1580 H1566 0.960 . S
C1580 H1567 0.960 . S
C1580 C1579 1.524 . S
C1581 C1578 1.403 1_655 S
C1581 C1582 1.392 . S
C1581 C1585 1.495 . S
C1582 C1581 1.392 . S
C1582 C1583 1.385 . S
C1582 C1584 1.478 . S
C1583 H1577 0.930 . S
C1583 C1579 1.400 1_655 S
C1583 C1582 1.385 . S
C1584 C1582 1.478 . S
C1584 C1586 1.381 . S
C1584 C1590 1.383 . S
C1585 C1581 1.495 . S
C1585 H1591 0.959 . S
C1585 H1592 0.961 . S
C1585 H1593 0.960 . S
C1586 C1584 1.381 . S
C1586 C1587 1.394 . S
C1586 H1594 0.930 . S
C1587 C1586 1.394 . S
C1587 C1588 1.383 . S
C1587 H1595 0.929 . S
C1588 C1587 1.383 . S
C1588 C1589 1.377 . S
C1589 H1573 0.930 . S
C1589 C1588 1.377 . S
C1589 C1590 1.379 . S
C1590 H1574 0.931 . S
C1590 C1584 1.383 . S
C1590 C1589 1.379 . S
H1591 C1585 0.959 . S
H1592 C1585 0.961 . S
H1593 C1585 0.960 . S
H1594 C1586 0.930 . S
H1595 C1587 0.929 . S
H1596 C1604 0.929 . S
H1597 C1606 0.930 . S
H1598 C1608 0.930 . S
H1599 C1611 0.929 . S
H1600 C1614 0.930 . S
H1601 C1616 0.960 . S
H1602 C1616 0.960 . S
H1603 C1616 0.960 . S
C1604 H1596 0.929 . S
C1604 C1605 1.377 . S
C1604 C1606 1.384 . S
C1605 C1604 1.377 . S
C1605 C1611 1.390 . S
C1606 H1597 0.930 . S
C1606 C1604 1.384 . S
C1606 C1607 1.372 . S
C1607 C1606 1.372 . S
C1607 C1608 1.400 . S
C1607 C1612 1.490 . S
C1608 H1598 0.930 . S
C1608 C1607 1.400 . S
C1608 C1611 1.386 . S
H1609 C1625 0.930 . S
H1610 C1626 0.931 . S
C1611 H1599 0.929 . S
C1611 C1605 1.390 . S
C1611 C1608 1.386 . S
C1612 C1607 1.490 . S
C1612 C1614 1.395 . S
C1612 C1615 1.403 . S
H1613 C1619 0.930 . S
C1614 H1600 0.930 . S
C1614 C1612 1.395 . S
C1614 C1617 1.403 . S
C1615 C1612 1.403 . S
C1615 C1616 1.524 . S
C1615 C1619 1.400 . S
C1616 H1601 0.960 . S
C1616 H1602 0.960 . S
C1616 H1603 0.960 . S
C1616 C1615 1.524 . S
C1617 C1614 1.403 . S
C1617 C1618 1.392 . S
C1617 C1621 1.495 . S
C1618 C1617 1.392 . S
C1618 C1619 1.385 . S
C1618 C1620 1.478 . S
C1619 H1613 0.930 . S
C1619 C1615 1.400 . S
C1619 C1618 1.385 . S
C1620 C1618 1.478 . S
C1620 C1622 1.381 . S
C1620 C1626 1.383 . S
C1621 C1617 1.495 . S
C1621 H1627 0.959 . S
C1621 H1628 0.961 . S
C1621 H1629 0.960 . S
C1622 C1620 1.381 . S
C1622 C1623 1.394 . S
C1622 H1630 0.930 . S
C1623 C1622 1.394 . S
C1623 C1624 1.383 . S
C1623 H1631 0.929 . S
C1624 C1623 1.383 . S
C1624 C1625 1.377 . S
C1625 H1609 0.930 . S
C1625 C1624 1.377 . S
C1625 C1626 1.379 . S
C1626 H1610 0.931 . S
C1626 C1620 1.383 . S
C1626 C1625 1.379 . S
H1627 C1621 0.959 . S
H1628 C1621 0.961 . S
H1629 C1621 0.960 . S
H1630 C1622 0.930 . S
H1631 C1623 0.929 . S
H1632 C1640 0.929 . S
H1633 C1642 0.930 . S
H1634 C1644 0.930 . S
H1635 C1647 0.929 . S
H1636 C1650 0.930 . S
H1637 C1652 0.960 . S
H1638 C1652 0.960 . S
H1639 C1652 0.960 . S
C1640 H1632 0.929 . S
C1640 C1641 1.377 . S
C1640 C1642 1.384 . S
C1641 C1640 1.377 . S
C1641 C1647 1.390 . S
C1642 H1633 0.930 . S
C1642 C1640 1.384 . S
C1642 C1643 1.372 . S
C1643 C1642 1.372 . S
C1643 C1644 1.400 . S
C1643 C1648 1.490 . S
C1644 H1634 0.930 . S
C1644 C1643 1.400 . S
C1644 C1647 1.386 . S
H1645 C1661 0.930 . S
H1646 C1662 0.931 . S
C1647 H1635 0.929 . S
C1647 C1641 1.390 . S
C1647 C1644 1.386 . S
C1648 C1643 1.490 . S
C1648 C1650 1.395 . S
C1648 C1651 1.403 . S
H1649 C1655 0.930 . S
C1650 H1636 0.930 . S
C1650 C1648 1.395 . S
C1650 C1653 1.403 . S
C1651 C1648 1.403 . S
C1651 C1652 1.524 . S
C1651 C1655 1.400 . S
C1652 H1637 0.960 . S
C1652 H1638 0.960 . S
C1652 H1639 0.960 . S
C1652 C1651 1.524 . S
C1653 C1650 1.403 . S
C1653 C1654 1.392 . S
C1653 C1657 1.495 . S
C1654 C1653 1.392 . S
C1654 C1655 1.385 . S
C1654 C1656 1.478 . S
C1655 H1649 0.930 . S
C1655 C1651 1.400 . S
C1655 C1654 1.385 . S
C1656 C1654 1.478 . S
C1656 C1658 1.381 . S
C1656 C1662 1.383 . S
C1657 C1653 1.495 . S
C1657 H1663 0.959 . S
C1657 H1664 0.961 . S
C1657 H1665 0.960 . S
C1658 C1656 1.381 . S
C1658 C1659 1.394 . S
C1658 H1666 0.930 . S
C1659 C1658 1.394 . S
C1659 C1660 1.383 . S
C1659 H1667 0.929 . S
C1660 C1659 1.383 . S
C1660 C1661 1.377 . S
C1661 H1645 0.930 . S
C1661 C1660 1.377 . S
C1661 C1662 1.379 . S
C1662 H1646 0.931 . S
C1662 C1656 1.383 . S
C1662 C1661 1.379 . S
H1663 C1657 0.959 . S
H1664 C1657 0.961 . S
H1665 C1657 0.960 . S
H1666 C1658 0.930 . S
H1667 C1659 0.929 . S
H1668 C1676 0.929 . S
H1669 C1678 0.930 . S
H1670 C1680 0.930 . S
H1671 C1683 0.929 . S
H1672 C1686 0.930 . S
H1673 C1688 0.960 . S
H1674 C1688 0.960 . S
H1675 C1688 0.960 . S
C1676 H1668 0.929 . S
C1676 C1677 1.377 . S
C1676 C1678 1.384 . S
C1677 C1676 1.377 . S
C1677 C1683 1.390 . S
C1678 H1669 0.930 . S
C1678 C1676 1.384 . S
C1678 C1679 1.372 . S
C1679 C1678 1.372 . S
C1679 C1680 1.400 . S
C1679 C1684 1.490 . S
C1680 H1670 0.930 . S
C1680 C1679 1.400 . S
C1680 C1683 1.386 . S
H1681 C1697 0.930 . S
H1682 C1698 0.931 . S
C1683 H1671 0.929 . S
C1683 C1677 1.390 . S
C1683 C1680 1.386 . S
C1684 C1679 1.490 . S
C1684 C1686 1.395 . S
C1684 C1687 1.403 . S
H1685 C1691 0.930 . S
C1686 H1672 0.930 . S
C1686 C1684 1.395 . S
C1686 C1689 1.403 . S
C1687 C1684 1.403 . S
C1687 C1688 1.524 . S
C1687 C1691 1.400 . S
C1688 H1673 0.960 . S
C1688 H1674 0.960 . S
C1688 H1675 0.960 . S
C1688 C1687 1.524 . S
C1689 C1686 1.403 . S
C1689 C1690 1.392 . S
C1689 C1693 1.495 . S
C1690 C1689 1.392 . S
C1690 C1691 1.385 . S
C1690 C1692 1.478 . S
C1691 H1685 0.930 . S
C1691 C1687 1.400 . S
C1691 C1690 1.385 . S
C1692 C1690 1.478 . S
C1692 C1694 1.381 . S
C1692 C1698 1.383 . S
C1693 C1689 1.495 . S
C1693 H1699 0.959 . S
C1693 H1700 0.961 . S
C1693 H1701 0.960 . S
C1694 C1692 1.381 . S
C1694 C1695 1.394 1_556 S
C1694 H1702 0.930 . S
C1695 C1694 1.394 1_554 S
C1695 C1696 1.383 . S
C1695 H1703 0.929 . S
C1696 C1695 1.383 . S
C1696 C1697 1.377 . S
C1697 H1681 0.930 . S
C1697 C1696 1.377 . S
C1697 C1698 1.379 1_554 S
C1698 H1682 0.931 . S
C1698 C1692 1.383 . S
C1698 C1697 1.379 1_556 S
H1699 C1693 0.959 . S
H1700 C1693 0.961 . S
H1701 C1693 0.960 . S
H1702 C1694 0.930 . S
H1703 C1695 0.929 . S
H1704 C1712 0.929 . S
H1705 C1714 0.930 . S
H1706 C1716 0.930 . S
H1707 C1719 0.929 . S
H1708 C1722 0.930 . S
H1709 C1724 0.960 . S
H1710 C1724 0.960 . S
H1711 C1724 0.960 . S
C1712 H1704 0.929 . S
C1712 C1713 1.377 . S
C1712 C1714 1.384 . S
C1713 C1712 1.377 . S
C1713 C1719 1.390 . S
C1714 H1705 0.930 . S
C1714 C1712 1.384 . S
C1714 C1715 1.372 . S
C1715 C1714 1.372 . S
C1715 C1716 1.400 . S
C1715 C1720 1.490 1_556 S
C1716 H1706 0.930 . S
C1716 C1715 1.400 . S
C1716 C1719 1.386 . S
H1717 C1733 0.930 . S
H1718 C1734 0.931 . S
C1719 H1707 0.929 . S
C1719 C1713 1.390 . S
C1719 C1716 1.386 . S
C1720 C1715 1.490 1_554 S
C1720 C1722 1.395 . S
C1720 C1723 1.403 . S
H1721 C1727 0.930 . S
C1722 H1708 0.930 . S
C1722 C1720 1.395 . S
C1722 C1725 1.403 . S
C1723 C1720 1.403 . S
C1723 C1724 1.524 . S
C1723 C1727 1.400 . S
C1724 H1709 0.960 . S
C1724 H1710 0.960 . S
C1724 H1711 0.960 . S
C1724 C1723 1.524 . S
C1725 C1722 1.403 . S
C1725 C1726 1.392 . S
C1725 C1729 1.495 . S
C1726 C1725 1.392 . S
C1726 C1727 1.385 . S
C1726 C1728 1.478 . S
C1727 H1721 0.930 . S
C1727 C1723 1.400 . S
C1727 C1726 1.385 . S
C1728 C1726 1.478 . S
C1728 C1730 1.381 . S
C1728 C1734 1.383 . S
C1729 C1725 1.495 . S
C1729 H1735 0.959 . S
C1729 H1736 0.961 . S
C1729 H1737 0.960 . S
C1730 C1728 1.381 . S
C1730 C1731 1.394 . S
C1730 H1738 0.930 . S
C1731 C1730 1.394 . S
C1731 C1732 1.383 . S
C1731 H1739 0.929 . S
C1732 C1731 1.383 . S
C1732 C1733 1.377 . S
C1733 H1717 0.930 . S
C1733 C1732 1.377 . S
C1733 C1734 1.379 . S
C1734 H1718 0.931 . S
C1734 C1728 1.383 . S
C1734 C1733 1.379 . S
H1735 C1729 0.959 . S
H1736 C1729 0.961 . S
H1737 C1729 0.960 . S
H1738 C1730 0.930 . S
H1739 C1731 0.929 . S
H1740 C1748 0.929 . S
H1741 C1750 0.930 . S
H1742 C1752 0.930 . S
H1743 C1755 0.929 . S
H1744 C1758 0.930 . S
H1745 C1760 0.960 . S
H1746 C1760 0.960 . S
H1747 C1760 0.960 . S
C1748 H1740 0.929 . S
C1748 C1749 1.377 . S
C1748 C1750 1.384 . S
C1749 C1748 1.377 . S
C1749 C1755 1.390 . S
C1750 H1741 0.930 . S
C1750 C1748 1.384 . S
C1750 C1751 1.372 . S
C1751 C1750 1.372 . S
C1751 C1752 1.400 . S
C1751 C1756 1.490 . S
C1752 H1742 0.930 . S
C1752 C1751 1.400 . S
C1752 C1755 1.386 . S
H1753 C1769 0.930 . S
H1754 C1770 0.931 . S
C1755 H1743 0.929 . S
C1755 C1749 1.390 . S
C1755 C1752 1.386 . S
C1756 C1751 1.490 . S
C1756 C1758 1.395 . S
C1756 C1759 1.403 . S
H1757 C1763 0.930 . S
C1758 H1744 0.930 . S
C1758 C1756 1.395 . S
C1758 C1761 1.403 . S
C1759 C1756 1.403 . S
C1759 C1760 1.524 . S
C1759 C1763 1.400 . S
C1760 H1745 0.960 . S
C1760 H1746 0.960 . S
C1760 H1747 0.960 . S
C1760 C1759 1.524 . S
C1761 C1758 1.403 . S
C1761 C1762 1.392 . S
C1761 C1765 1.495 . S
C1762 C1761 1.392 . S
C1762 C1763 1.385 . S
C1762 C1764 1.478 . S
C1763 H1757 0.930 . S
C1763 C1759 1.400 . S
C1763 C1762 1.385 . S
C1764 C1762 1.478 . S
C1764 C1766 1.381 . S
C1764 C1770 1.383 . S
C1765 C1761 1.495 . S
C1765 H1771 0.959 . S
C1765 H1772 0.961 . S
C1765 H1773 0.960 . S
C1766 C1764 1.381 . S
C1766 C1767 1.394 . S
C1766 H1774 0.930 . S
C1767 C1766 1.394 . S
C1767 C1768 1.383 . S
C1767 H1775 0.929 . S
C1768 C1767 1.383 . S
C1768 C1769 1.377 . S
C1769 H1753 0.930 . S
C1769 C1768 1.377 . S
C1769 C1770 1.379 . S
C1770 H1754 0.931 . S
C1770 C1764 1.383 . S
C1770 C1769 1.379 . S
H1771 C1765 0.959 . S
H1772 C1765 0.961 . S
H1773 C1765 0.960 . S
H1774 C1766 0.930 . S
H1775 C1767 0.929 . S
H1776 C1784 0.929 . S
H1777 C1786 0.930 . S
H1778 C1788 0.930 . S
H1779 C1791 0.929 . S
H1780 C1794 0.930 . S
H1781 C1796 0.960 . S
H1782 C1796 0.960 . S
H1783 C1796 0.960 . S
C1784 H1776 0.929 . S
C1784 C1785 1.377 . S
C1784 C1786 1.384 . S
C1785 C1784 1.377 . S
C1785 C1791 1.390 . S
C1786 H1777 0.930 . S
C1786 C1784 1.384 . S
C1786 C1787 1.372 . S
C1787 C1786 1.372 . S
C1787 C1788 1.400 . S
C1787 C1792 1.490 . S
C1788 H1778 0.930 . S
C1788 C1787 1.400 . S
C1788 C1791 1.386 . S
H1789 C1805 0.930 . S
H1790 C1806 0.931 . S
C1791 H1779 0.929 . S
C1791 C1785 1.390 . S
C1791 C1788 1.386 . S
C1792 C1787 1.490 . S
C1792 C1794 1.395 . S
C1792 C1795 1.403 . S
H1793 C1799 0.930 . S
C1794 H1780 0.930 . S
C1794 C1792 1.395 . S
C1794 C1797 1.403 . S
C1795 C1792 1.403 . S
C1795 C1796 1.524 . S
C1795 C1799 1.400 . S
C1796 H1781 0.960 . S
C1796 H1782 0.960 . S
C1796 H1783 0.960 . S
C1796 C1795 1.524 . S
C1797 C1794 1.403 . S
C1797 C1798 1.392 . S
C1797 C1801 1.495 . S
C1798 C1797 1.392 . S
C1798 C1799 1.385 . S
C1798 C1800 1.478 . S
C1799 H1793 0.930 . S
C1799 C1795 1.400 . S
C1799 C1798 1.385 . S
C1800 C1798 1.478 . S
C1800 C1802 1.381 . S
C1800 C1806 1.383 . S
C1801 C1797 1.495 . S
C1801 H1807 0.959 . S
C1801 H1808 0.961 . S
C1801 H1809 0.960 . S
C1802 C1800 1.381 . S
C1802 C1803 1.394 . S
C1802 H1810 0.930 . S
C1803 C1802 1.394 . S
C1803 C1804 1.383 . S
C1803 H1811 0.929 . S
C1804 C1803 1.383 . S
C1804 C1805 1.377 . S
C1805 H1789 0.930 . S
C1805 C1804 1.377 . S
C1805 C1806 1.379 . S
C1806 H1790 0.931 . S
C1806 C1800 1.383 . S
C1806 C1805 1.379 . S
H1807 C1801 0.959 . S
H1808 C1801 0.961 . S
H1809 C1801 0.960 . S
H1810 C1802 0.930 . S
H1811 C1803 0.929 . S
H1812 C1820 0.929 . S
H1813 C1822 0.930 . S
H1814 C1824 0.930 . S
H1815 C1827 0.929 . S
H1816 C1830 0.930 . S
H1817 C1832 0.960 . S
H1818 C1832 0.960 . S
H1819 C1832 0.960 . S
C1820 H1812 0.929 . S
C1820 C1821 1.377 . S
C1820 C1822 1.384 . S
C1821 C1820 1.377 . S
C1821 C1827 1.390 . S
C1822 H1813 0.930 . S
C1822 C1820 1.384 . S
C1822 C1823 1.372 . S
C1823 C1822 1.372 . S
C1823 C1824 1.400 . S
C1823 C1828 1.490 . S
C1824 H1814 0.930 . S
C1824 C1823 1.400 . S
C1824 C1827 1.386 . S
H1825 C1841 0.930 . S
H1826 C1842 0.931 . S
C1827 H1815 0.929 . S
C1827 C1821 1.390 . S
C1827 C1824 1.386 . S
C1828 C1823 1.490 . S
C1828 C1830 1.395 . S
C1828 C1831 1.403 . S
H1829 C1835 0.930 . S
C1830 H1816 0.930 . S
C1830 C1828 1.395 . S
C1830 C1833 1.403 . S
C1831 C1828 1.403 . S
C1831 C1832 1.524 . S
C1831 C1835 1.400 . S
C1832 H1817 0.960 . S
C1832 H1818 0.960 . S
C1832 H1819 0.960 . S
C1832 C1831 1.524 . S
C1833 C1830 1.403 . S
C1833 C1834 1.392 . S
C1833 C1837 1.495 . S
C1834 C1833 1.392 . S
C1834 C1835 1.385 . S
C1834 C1836 1.478 . S
C1835 H1829 0.930 . S
C1835 C1831 1.400 . S
C1835 C1834 1.385 . S
C1836 C1834 1.478 . S
C1836 C1838 1.381 . S
C1836 C1842 1.383 . S
C1837 C1833 1.495 . S
C1837 H1843 0.959 . S
C1837 H1844 0.961 . S
C1837 H1845 0.960 . S
C1838 C1836 1.381 . S
C1838 C1839 1.394 . S
C1838 H1846 0.930 . S
C1839 C1838 1.394 . S
C1839 C1840 1.383 . S
C1839 H1847 0.929 . S
C1840 C1839 1.383 . S
C1840 C1841 1.377 . S
C1841 H1825 0.930 . S
C1841 C1840 1.377 . S
C1841 C1842 1.379 . S
C1842 H1826 0.931 . S
C1842 C1836 1.383 . S
C1842 C1841 1.379 . S
H1843 C1837 0.959 . S
H1844 C1837 0.961 . S
H1845 C1837 0.960 . S
H1846 C1838 0.930 . S
H1847 C1839 0.929 . S
H1848 C1856 0.929 . S
H1849 C1858 0.930 . S
H1850 C1860 0.930 . S
H1851 C1863 0.929 . S
H1852 C1866 0.930 . S
H1853 C1868 0.960 . S
H1854 C1868 0.960 . S
H1855 C1868 0.960 . S
C1856 H1848 0.929 . S
C1856 C1857 1.377 . S
C1856 C1858 1.384 . S
C1857 C1856 1.377 . S
C1857 C1863 1.390 . S
C1858 H1849 0.930 . S
C1858 C1856 1.384 . S
C1858 C1859 1.372 . S
C1859 C1858 1.372 . S
C1859 C1860 1.400 . S
C1859 C1864 1.490 . S
C1860 H1850 0.930 . S
C1860 C1859 1.400 . S
C1860 C1863 1.386 . S
H1861 C1877 0.930 . S
H1862 C1878 0.931 . S
C1863 H1851 0.929 . S
C1863 C1857 1.390 . S
C1863 C1860 1.386 . S
C1864 C1859 1.490 . S
C1864 C1866 1.395 . S
C1864 C1867 1.403 . S
H1865 C1871 0.930 . S
C1866 H1852 0.930 . S
C1866 C1864 1.395 . S
C1866 C1869 1.403 . S
C1867 C1864 1.403 . S
C1867 C1868 1.524 . S
C1867 C1871 1.400 . S
C1868 H1853 0.960 . S
C1868 H1854 0.960 . S
C1868 H1855 0.960 . S
C1868 C1867 1.524 . S
C1869 C1866 1.403 . S
C1869 C1870 1.392 . S
C1869 C1873 1.495 . S
C1870 C1869 1.392 . S
C1870 C1871 1.385 . S
C1870 C1872 1.478 1_556 S
C1871 H1865 0.930 . S
C1871 C1867 1.400 . S
C1871 C1870 1.385 . S
C1872 C1870 1.478 1_554 S
C1872 C1874 1.381 . S
C1872 C1878 1.383 . S
C1873 C1869 1.495 . S
C1873 H1879 0.959 . S
C1873 H1880 0.961 1_556 S
C1873 H1881 0.960 1_556 S
C1874 C1872 1.381 . S
C1874 C1875 1.394 . S
C1874 H1882 0.930 . S
C1875 C1874 1.394 . S
C1875 C1876 1.383 . S
C1875 H1883 0.929 . S
C1876 C1875 1.383 . S
C1876 C1877 1.377 . S
C1877 H1861 0.930 . S
C1877 C1876 1.377 . S
C1877 C1878 1.379 . S
C1878 H1862 0.931 . S
C1878 C1872 1.383 . S
C1878 C1877 1.379 . S
H1879 C1873 0.959 . S
H1880 C1873 0.961 1_554 S
H1881 C1873 0.960 1_554 S
H1882 C1874 0.930 . S
H1883 C1875 0.929 . S
H1884 C1892 0.929 . S
H1885 C1894 0.930 . S
H1886 C1896 0.930 . S
H1887 C1899 0.929 . S
H1888 C1902 0.930 . S
H1889 C1904 0.960 . S
H1890 C1904 0.960 . S
H1891 C1904 0.960 . S
C1892 H1884 0.929 . S
C1892 C1893 1.377 . S
C1892 C1894 1.384 . S
C1893 C1892 1.377 . S
C1893 C1899 1.390 . S
C1894 H1885 0.930 . S
C1894 C1892 1.384 . S
C1894 C1895 1.372 . S
C1895 C1894 1.372 . S
C1895 C1896 1.400 . S
C1895 C1900 1.490 . S
C1896 H1886 0.930 . S
C1896 C1895 1.400 . S
C1896 C1899 1.386 . S
H1897 C1913 0.930 . S
H1898 C1914 0.931 . S
C1899 H1887 0.929 . S
C1899 C1893 1.390 . S
C1899 C1896 1.386 . S
C1900 C1895 1.490 . S
C1900 C1902 1.395 . S
C1900 C1903 1.403 . S
H1901 C1907 0.930 . S
C1902 H1888 0.930 . S
C1902 C1900 1.395 . S
C1902 C1905 1.403 . S
C1903 C1900 1.403 . S
C1903 C1904 1.524 . S
C1903 C1907 1.400 . S
C1904 H1889 0.960 . S
C1904 H1890 0.960 . S
C1904 H1891 0.960 . S
C1904 C1903 1.524 . S
C1905 C1902 1.403 . S
C1905 C1906 1.392 . S
C1905 C1909 1.495 . S
C1906 C1905 1.392 . S
C1906 C1907 1.385 . S
C1906 C1908 1.478 . S
C1907 H1901 0.930 . S
C1907 C1903 1.400 . S
C1907 C1906 1.385 . S
C1908 C1906 1.478 . S
C1908 C1910 1.381 . S
C1908 C1914 1.383 . S
C1909 C1905 1.495 . S
C1909 H1915 0.959 . S
C1909 H1916 0.961 . S
C1909 H1917 0.960 . S
C1910 C1908 1.381 . S
C1910 C1911 1.394 1_554 S
C1910 H1918 0.930 . S
C1911 C1910 1.394 1_556 S
C1911 C1912 1.383 . S
C1911 H1919 0.929 . S
C1912 C1911 1.383 . S
C1912 C1913 1.377 . S
C1913 H1897 0.930 . S
C1913 C1912 1.377 . S
C1913 C1914 1.379 1_556 S
C1914 H1898 0.931 . S
C1914 C1908 1.383 . S
C1914 C1913 1.379 1_554 S
H1915 C1909 0.959 . S
H1916 C1909 0.961 . S
H1917 C1909 0.960 . S
H1918 C1910 0.930 . S
H1919 C1911 0.929 . S
H1920 C1928 0.929 . S
H1921 C1930 0.930 . S
H1922 C1932 0.930 . S
H1923 C1935 0.929 . S
H1924 C1938 0.930 . S
H1925 C1940 0.960 . S
H1926 C1940 0.960 . S
H1927 C1940 0.960 . S
C1928 H1920 0.929 . S
C1928 C1929 1.377 . S
C1928 C1930 1.384 . S
C1929 C1928 1.377 . S
C1929 C1935 1.390 . S
C1930 H1921 0.930 . S
C1930 C1928 1.384 . S
C1930 C1931 1.372 . S
C1931 C1930 1.372 . S
C1931 C1932 1.400 . S
C1931 C1936 1.490 . S
C1932 H1922 0.930 . S
C1932 C1931 1.400 . S
C1932 C1935 1.386 . S
H1933 C1949 0.930 . S
H1934 C1950 0.931 . S
C1935 H1923 0.929 . S
C1935 C1929 1.390 . S
C1935 C1932 1.386 . S
C1936 C1931 1.490 . S
C1936 C1938 1.395 . S
C1936 C1939 1.403 . S
H1937 C1943 0.930 . S
C1938 H1924 0.930 . S
C1938 C1936 1.395 . S
C1938 C1941 1.403 . S
C1939 C1936 1.403 . S
C1939 C1940 1.524 . S
C1939 C1943 1.400 . S
C1940 H1925 0.960 . S
C1940 H1926 0.960 . S
C1940 H1927 0.960 . S
C1940 C1939 1.524 . S
C1941 C1938 1.403 . S
C1941 C1942 1.392 . S
C1941 C1945 1.495 . S
C1942 C1941 1.392 . S
C1942 C1943 1.385 . S
C1942 C1944 1.478 . S
C1943 H1937 0.930 . S
C1943 C1939 1.400 . S
C1943 C1942 1.385 . S
C1944 C1942 1.478 . S
C1944 C1946 1.381 . S
C1944 C1950 1.383 . S
C1945 C1941 1.495 . S
C1945 H1951 0.959 . S
C1945 H1952 0.961 . S
C1945 H1953 0.960 . S
C1946 C1944 1.381 . S
C1946 C1947 1.394 . S
C1946 H1954 0.930 . S
C1947 C1946 1.394 . S
C1947 C1948 1.383 . S
C1947 H1955 0.929 . S
C1948 C1947 1.383 . S
C1948 C1949 1.377 . S
C1949 H1933 0.930 . S
C1949 C1948 1.377 . S
C1949 C1950 1.379 . S
C1950 H1934 0.931 . S
C1950 C1944 1.383 . S
C1950 C1949 1.379 . S
H1951 C1945 0.959 . S
H1952 C1945 0.961 . S
H1953 C1945 0.960 . S
H1954 C1946 0.930 . S
H1955 C1947 0.929 . S
H1956 C1964 0.929 . S
H1957 C1966 0.937 . S
H1958 C1968 0.930 . S
H1959 C1971 0.929 . S
H1960 C1974 0.930 . S
H1961 C1976 0.960 . S
H1962 C1976 0.960 . S
H1963 C1976 0.960 . S
C1964 H1956 0.929 . S
C1964 C1965 1.377 . S
C1964 C1966 1.366 1_556 S
C1965 C1964 1.377 . S
C1965 C1971 1.390 . S
C1966 H1957 0.937 . S
C1966 C1964 1.366 1_554 S
C1966 C1967 1.383 . S
C1967 C1966 1.383 . S
C1967 C1968 1.400 . S
C1967 C1972 1.490 . S
C1968 H1958 0.930 . S
C1968 C1967 1.400 . S
C1968 C1971 1.386 1_554 S
H1969 C1985 0.930 . S
H1970 C1986 0.931 . S
C1971 H1959 0.929 . S
C1971 C1965 1.390 . S
C1971 C1968 1.386 1_556 S
C1972 C1967 1.490 . S
C1972 C1974 1.395 . S
C1972 C1975 1.403 . S
H1973 C1979 0.930 . S
C1974 H1960 0.930 . S
C1974 C1972 1.395 . S
C1974 C1977 1.403 . S
C1975 C1972 1.403 . S
C1975 C1976 1.524 . S
C1975 C1979 1.400 . S
C1976 H1961 0.960 . S
C1976 H1962 0.960 . S
C1976 H1963 0.960 . S
C1976 C1975 1.524 . S
C1977 C1974 1.403 . S
C1977 C1978 1.392 . S
C1977 C1981 1.495 . S
C1978 C1977 1.392 . S
C1978 C1979 1.385 . S
C1978 C1980 1.478 . S
C1979 H1973 0.930 . S
C1979 C1975 1.400 . S
C1979 C1978 1.385 . S
C1980 C1978 1.478 . S
C1980 C1982 1.381 . S
C1980 C1986 1.383 . S
C1981 C1977 1.495 . S
C1981 H1987 0.959 . S
C1981 H1988 0.961 . S
C1981 H1989 0.960 . S
C1982 C1980 1.381 . S
C1982 C1983 1.394 . S
C1982 H1990 0.930 . S
C1983 C1982 1.394 . S
C1983 C1984 1.383 . S
C1983 H1991 0.929 . S
C1984 C1983 1.383 . S
C1984 C1985 1.377 . S
C1985 H1969 0.930 . S
C1985 C1984 1.377 . S
C1985 C1986 1.379 . S
C1986 H1970 0.931 . S
C1986 C1980 1.383 . S
C1986 C1985 1.379 . S
H1987 C1981 0.959 . S
H1988 C1981 0.961 . S
H1989 C1981 0.960 . S
H1990 C1982 0.930 . S
H1991 C1983 0.929 . S
H1992 C2000 0.929 . S
H1993 C2002 0.930 . S
H1994 C2004 0.930 . S
H1995 C2007 0.929 . S
H1996 C2010 0.930 . S
H1997 C2012 0.960 . S
H1998 C2012 0.960 1_554 S
H1999 C2012 0.960 1_554 S
C2000 H1992 0.929 . S
C2000 C2001 1.377 . S
C2000 C2002 1.384 . S
C2001 C2000 1.377 . S
C2001 C2007 1.390 . S
C2002 H1993 0.930 . S
C2002 C2000 1.384 . S
C2002 C2003 1.372 . S
C2003 C2002 1.372 . S
C2003 C2004 1.400 . S
C2003 C2008 1.490 1_554 S
C2004 H1994 0.930 . S
C2004 C2003 1.400 . S
C2004 C2007 1.386 . S
H2005 C2021 0.930 . S
H2006 C2022 0.931 . S
C2007 H1995 0.929 . S
C2007 C2001 1.390 . S
C2007 C2004 1.386 . S
C2008 C2003 1.490 1_556 S
C2008 C2010 1.395 . S
C2008 C2011 1.403 . S
H2009 C2015 0.930 . S
C2010 H1996 0.930 . S
C2010 C2008 1.395 . S
C2010 C2013 1.403 . S
C2011 C2008 1.403 . S
C2011 C2012 1.524 . S
C2011 C2015 1.400 . S
C2012 H1997 0.960 . S
C2012 H1998 0.960 1_556 S
C2012 H1999 0.960 1_556 S
C2012 C2011 1.524 . S
C2013 C2010 1.403 . S
C2013 C2014 1.392 . S
C2013 C2017 1.495 . S
C2014 C2013 1.392 . S
C2014 C2015 1.385 . S
C2014 C2016 1.478 . S
C2015 H2009 0.930 . S
C2015 C2011 1.400 . S
C2015 C2014 1.385 . S
C2016 C2014 1.478 . S
C2016 C2018 1.381 . S
C2016 C2022 1.383 . S
C2017 C2013 1.495 . S
C2017 H2023 0.959 . S
C2017 H2024 0.961 . S
C2017 H2025 0.960 . S
C2018 C2016 1.381 . S
C2018 C2019 1.394 . S
C2018 H2026 0.930 . S
C2019 C2018 1.394 . S
C2019 C2020 1.383 . S
C2019 H2027 0.929 . S
C2020 C2019 1.383 . S
C2020 C2021 1.377 . S
C2021 H2005 0.930 . S
C2021 C2020 1.377 . S
C2021 C2022 1.379 . S
C2022 H2006 0.931 . S
C2022 C2016 1.383 . S
C2022 C2021 1.379 . S
H2023 C2017 0.959 . S
H2024 C2017 0.961 . S
H2025 C2017 0.960 . S
H2026 C2018 0.930 . S
H2027 C2019 0.929 . S
H2028 C2036 0.929 . S
H2029 C2038 0.930 . S
H2030 C2040 0.930 . S
H2031 C2043 0.929 . S
H2032 C2046 0.930 . S
H2033 C2048 0.960 . S
H2034 C2048 0.960 . S
H2035 C2048 0.960 . S
C2036 H2028 0.929 . S
C2036 C2037 1.377 . S
C2036 C2038 1.384 . S
C2037 C2036 1.377 . S
C2037 C2043 1.390 . S
C2038 H2029 0.930 . S
C2038 C2036 1.384 . S
C2038 C2039 1.372 . S
C2039 C2038 1.372 . S
C2039 C2040 1.400 . S
C2039 C2044 1.490 . S
C2040 H2030 0.930 . S
C2040 C2039 1.400 . S
C2040 C2043 1.386 . S
H2041 C2057 0.930 . S
H2042 C2058 0.931 . S
C2043 H2031 0.929 . S
C2043 C2037 1.390 . S
C2043 C2040 1.386 . S
C2044 C2039 1.490 . S
C2044 C2046 1.395 . S
C2044 C2047 1.403 . S
H2045 C2051 0.930 . S
C2046 H2032 0.930 . S
C2046 C2044 1.395 . S
C2046 C2049 1.403 . S
C2047 C2044 1.403 . S
C2047 C2048 1.524 . S
C2047 C2051 1.400 . S
C2048 H2033 0.960 . S
C2048 H2034 0.960 . S
C2048 H2035 0.960 . S
C2048 C2047 1.524 . S
C2049 C2046 1.403 . S
C2049 C2050 1.392 . S
C2049 C2053 1.495 . S
C2050 C2049 1.392 . S
C2050 C2051 1.385 . S
C2050 C2052 1.478 . S
C2051 H2045 0.930 . S
C2051 C2047 1.400 . S
C2051 C2050 1.385 . S
C2052 C2050 1.478 . S
C2052 C2054 1.381 . S
C2052 C2058 1.383 . S
C2053 C2049 1.495 . S
C2053 H2059 0.959 . S
C2053 H2060 0.961 . S
C2053 H2061 0.960 . S
C2054 C2052 1.381 . S
C2054 C2055 1.394 . S
C2054 H2062 0.930 . S
C2055 C2054 1.394 . S
C2055 C2056 1.383 . S
C2055 H2063 0.929 . S
C2056 C2055 1.383 . S
C2056 C2057 1.377 . S
C2057 H2041 0.930 . S
C2057 C2056 1.377 . S
C2057 C2058 1.379 . S
C2058 H2042 0.931 . S
C2058 C2052 1.383 . S
C2058 C2057 1.379 . S
H2059 C2053 0.959 . S
H2060 C2053 0.961 . S
H2061 C2053 0.960 . S
H2062 C2054 0.930 . S
H2063 C2055 0.929 . S
H2064 C2072 0.929 . S
H2065 C2074 0.930 . S
H2066 C2076 0.930 . S
H2067 C2079 0.929 . S
H2068 C2082 0.930 . S
H2069 C2084 0.960 . S
H2070 C2084 0.960 . S
H2071 C2084 0.960 . S
C2072 H2064 0.929 . S
C2072 C2073 1.377 . S
C2072 C2074 1.384 . S
C2073 C2072 1.377 . S
C2073 C2079 1.390 . S
C2074 H2065 0.930 . S
C2074 C2072 1.384 . S
C2074 C2075 1.372 . S
C2075 C2074 1.372 . S
C2075 C2076 1.400 . S
C2075 C2080 1.490 . S
C2076 H2066 0.930 . S
C2076 C2075 1.400 . S
C2076 C2079 1.386 . S
H2077 C2093 0.930 . S
H2078 C2094 0.931 . S
C2079 H2067 0.929 . S
C2079 C2073 1.390 . S
C2079 C2076 1.386 . S
C2080 C2075 1.490 . S
C2080 C2082 1.395 . S
C2080 C2083 1.403 . S
H2081 C2087 0.930 . S
C2082 H2068 0.930 . S
C2082 C2080 1.395 . S
C2082 C2085 1.403 . S
C2083 C2080 1.403 . S
C2083 C2084 1.524 . S
C2083 C2087 1.400 . S
C2084 H2069 0.960 . S
C2084 H2070 0.960 . S
C2084 H2071 0.960 . S
C2084 C2083 1.524 . S
C2085 C2082 1.403 . S
C2085 C2086 1.392 . S
C2085 C2089 1.495 . S
C2086 C2085 1.392 . S
C2086 C2087 1.385 . S
C2086 C2088 1.478 . S
C2087 H2081 0.930 . S
C2087 C2083 1.400 . S
C2087 C2086 1.385 . S
C2088 C2086 1.478 . S
C2088 C2090 1.381 . S
C2088 C2094 1.383 . S
C2089 C2085 1.495 . S
C2089 H2095 0.959 . S
C2089 H2096 0.961 . S
C2089 H2097 0.960 . S
C2090 C2088 1.381 . S
C2090 C2091 1.394 . S
C2090 H2098 0.930 . S
C2091 C2090 1.394 . S
C2091 C2092 1.383 . S
C2091 H2099 0.929 . S
C2092 C2091 1.383 . S
C2092 C2093 1.377 . S
C2093 H2077 0.930 . S
C2093 C2092 1.377 . S
C2093 C2094 1.379 . S
C2094 H2078 0.931 . S
C2094 C2088 1.383 . S
C2094 C2093 1.379 . S
H2095 C2089 0.959 . S
H2096 C2089 0.961 . S
H2097 C2089 0.960 . S
H2098 C2090 0.930 . S
H2099 C2091 0.929 . S
H2100 C2108 0.929 . S
H2101 C2110 0.930 . S
H2102 C2112 0.930 . S
H2103 C2115 0.929 . S
H2104 C2118 0.930 . S
H2105 C2120 0.960 . S
H2106 C2120 0.960 . S
H2107 C2120 0.960 . S
C2108 H2100 0.929 . S
C2108 C2109 1.377 . S
C2108 C2110 1.384 . S
C2109 C2108 1.377 . S
C2109 C2115 1.390 . S
C2110 H2101 0.930 . S
C2110 C2108 1.384 . S
C2110 C2111 1.372 . S
C2111 C2110 1.372 . S
C2111 C2112 1.400 . S
C2111 C2116 1.490 . S
C2112 H2102 0.930 . S
C2112 C2111 1.400 . S
C2112 C2115 1.386 . S
H2113 C2129 0.930 . S
H2114 C2130 0.931 . S
C2115 H2103 0.929 . S
C2115 C2109 1.390 . S
C2115 C2112 1.386 . S
C2116 C2111 1.490 . S
C2116 C2118 1.395 . S
C2116 C2119 1.403 . S
H2117 C2123 0.930 . S
C2118 H2104 0.930 . S
C2118 C2116 1.395 . S
C2118 C2121 1.403 . S
C2119 C2116 1.403 . S
C2119 C2120 1.524 . S
C2119 C2123 1.400 . S
C2120 H2105 0.960 . S
C2120 H2106 0.960 . S
C2120 H2107 0.960 . S
C2120 C2119 1.524 . S
C2121 C2118 1.403 . S
C2121 C2122 1.392 . S
C2121 C2125 1.495 . S
C2122 C2121 1.392 . S
C2122 C2123 1.385 . S
C2122 C2124 1.478 . S
C2123 H2117 0.930 . S
C2123 C2119 1.400 . S
C2123 C2122 1.385 . S
C2124 C2122 1.478 . S
C2124 C2126 1.381 . S
C2124 C2130 1.383 . S
C2125 C2121 1.495 . S
C2125 H2131 0.959 . S
C2125 H2132 0.961 . S
C2125 H2133 0.960 . S
C2126 C2124 1.381 . S
C2126 C2127 1.394 . S
C2126 H2134 0.930 . S
C2127 C2126 1.394 . S
C2127 C2128 1.383 . S
C2127 H2135 0.929 . S
C2128 C2127 1.383 . S
C2128 C2129 1.377 . S
C2129 H2113 0.930 . S
C2129 C2128 1.377 . S
C2129 C2130 1.379 . S
C2130 H2114 0.931 . S
C2130 C2124 1.383 . S
C2130 C2129 1.379 . S
H2131 C2125 0.959 . S
H2132 C2125 0.961 . S
H2133 C2125 0.960 . S
H2134 C2126 0.930 . S
H2135 C2127 0.929 . S
H2136 C2144 0.929 . S
H2137 C2146 0.930 . S
H2138 C2148 0.930 . S
H2139 C2151 0.929 . S
H2140 C2154 0.930 . S
H2141 C2156 0.960 . S
H2142 C2156 0.960 1_556 S
H2143 C2156 0.960 1_556 S
C2144 H2136 0.929 . S
C2144 C2145 1.377 . S
C2144 C2146 1.384 . S
C2145 C2144 1.377 . S
C2145 C2151 1.390 . S
C2146 H2137 0.930 . S
C2146 C2144 1.384 . S
C2146 C2147 1.372 . S
C2147 C2146 1.372 . S
C2147 C2148 1.400 . S
C2147 C2152 1.490 1_556 S
C2148 H2138 0.930 . S
C2148 C2147 1.400 . S
C2148 C2151 1.386 . S
H2149 C2165 0.930 . S
H2150 C2166 0.931 . S
C2151 H2139 0.929 . S
C2151 C2145 1.390 . S
C2151 C2148 1.386 . S
C2152 C2147 1.490 1_554 S
C2152 C2154 1.395 . S
C2152 C2155 1.403 . S
H2153 C2159 0.930 . S
C2154 H2140 0.930 . S
C2154 C2152 1.395 . S
C2154 C2157 1.403 . S
C2155 C2152 1.403 . S
C2155 C2156 1.524 . S
C2155 C2159 1.400 . S
C2156 H2141 0.960 . S
C2156 H2142 0.960 1_554 S
C2156 H2143 0.960 1_554 S
C2156 C2155 1.524 . S
C2157 C2154 1.403 . S
C2157 C2158 1.392 . S
C2157 C2161 1.495 . S
C2158 C2157 1.392 . S
C2158 C2159 1.385 . S
C2158 C2160 1.478 . S
C2159 H2153 0.930 . S
C2159 C2155 1.400 . S
C2159 C2158 1.385 . S
C2160 C2158 1.478 . S
C2160 C2162 1.381 . S
C2160 C2166 1.383 . S
C2161 C2157 1.495 . S
C2161 H2167 0.959 . S
C2161 H2168 0.961 . S
C2161 H2169 0.960 . S
C2162 C2160 1.381 . S
C2162 C2163 1.394 . S
C2162 H2170 0.930 . S
C2163 C2162 1.394 . S
C2163 C2164 1.383 . S
C2163 H2171 0.929 . S
C2164 C2163 1.383 . S
C2164 C2165 1.377 . S
C2165 H2149 0.930 . S
C2165 C2164 1.377 . S
C2165 C2166 1.379 . S
C2166 H2150 0.931 . S
C2166 C2160 1.383 . S
C2166 C2165 1.379 . S
H2167 C2161 0.959 . S
H2168 C2161 0.961 . S
H2169 C2161 0.960 . S
H2170 C2162 0.930 . S
H2171 C2163 0.929 . S
H2172 C2180 0.929 . S
H2173 C2182 0.930 . S
H2174 C2184 0.930 . S
H2175 C2187 0.929 . S
H2176 C2190 0.930 . S
H2177 C2192 0.960 . S
H2178 C2192 0.960 . S
H2179 C2192 0.960 . S
C2180 H2172 0.929 . S
C2180 C2181 1.377 . S
C2180 C2182 1.384 1_554 S
C2181 C2180 1.377 . S
C2181 C2187 1.390 . S
C2182 H2173 0.930 . S
C2182 C2180 1.384 1_556 S
C2182 C2183 1.372 . S
C2183 C2182 1.372 . S
C2183 C2184 1.400 . S
C2183 C2188 1.490 . S
C2184 H2174 0.930 . S
C2184 C2183 1.400 . S
C2184 C2187 1.386 1_556 S
H2185 C2201 0.930 . S
H2186 C2202 0.931 . S
C2187 H2175 0.929 . S
C2187 C2181 1.390 . S
C2187 C2184 1.386 1_554 S
C2188 C2183 1.490 . S
C2188 C2190 1.395 . S
C2188 C2191 1.403 . S
H2189 C2195 0.930 . S
C2190 H2176 0.930 . S
C2190 C2188 1.395 . S
C2190 C2193 1.403 . S
C2191 C2188 1.403 . S
C2191 C2192 1.524 . S
C2191 C2195 1.400 . S
C2192 H2177 0.960 . S
C2192 H2178 0.960 . S
C2192 H2179 0.960 . S
C2192 C2191 1.524 . S
C2193 C2190 1.403 . S
C2193 C2194 1.392 . S
C2193 C2197 1.495 . S
C2194 C2193 1.392 . S
C2194 C2195 1.385 . S
C2194 C2196 1.478 . S
C2195 H2189 0.930 . S
C2195 C2191 1.400 . S
C2195 C2194 1.385 . S
C2196 C2194 1.478 . S
C2196 C2198 1.381 . S
C2196 C2202 1.383 . S
C2197 C2193 1.495 . S
C2197 H2203 0.959 . S
C2197 H2204 0.961 . S
C2197 H2205 0.960 . S
C2198 C2196 1.381 . S
C2198 C2199 1.394 . S
C2198 H2206 0.930 . S
C2199 C2198 1.394 . S
C2199 C2200 1.383 . S
C2199 H2207 0.929 . S
C2200 C2199 1.383 . S
C2200 C2201 1.377 . S
C2201 H2185 0.930 . S
C2201 C2200 1.377 . S
C2201 C2202 1.379 . S
C2202 H2186 0.931 . S
C2202 C2196 1.383 . S
C2202 C2201 1.379 . S
H2203 C2197 0.959 . S
H2204 C2197 0.961 . S
H2205 C2197 0.960 . S
H2206 C2198 0.930 . S
H2207 C2199 0.929 . S
H2208 C2216 0.929 . S
H2209 C2218 0.930 . S
H2210 C2220 0.930 . S
H2211 C2223 0.929 . S
H2212 C2226 0.930 . S
H2213 C2228 0.960 . S
H2214 C2228 0.960 . S
H2215 C2228 0.960 . S
C2216 H2208 0.929 . S
C2216 C2217 1.377 . S
C2216 C2218 1.384 . S
C2217 C2216 1.377 . S
C2217 C2223 1.390 . S
C2218 H2209 0.930 . S
C2218 C2216 1.384 . S
C2218 C2219 1.372 . S
C2219 C2218 1.372 . S
C2219 C2220 1.400 . S
C2219 C2224 1.490 . S
C2220 H2210 0.930 . S
C2220 C2219 1.400 . S
C2220 C2223 1.386 . S
H2221 C2237 0.930 . S
H2222 C2238 0.931 . S
C2223 H2211 0.929 . S
C2223 C2217 1.390 . S
C2223 C2220 1.386 . S
C2224 C2219 1.490 . S
C2224 C2226 1.395 . S
C2224 C2227 1.403 . S
H2225 C2231 0.930 . S
C2226 H2212 0.930 . S
C2226 C2224 1.395 . S
C2226 C2229 1.403 . S
C2227 C2224 1.403 . S
C2227 C2228 1.524 . S
C2227 C2231 1.400 . S
C2228 H2213 0.960 . S
C2228 H2214 0.960 . S
C2228 H2215 0.960 . S
C2228 C2227 1.524 . S
C2229 C2226 1.403 . S
C2229 C2230 1.392 . S
C2229 C2233 1.495 . S
C2230 C2229 1.392 . S
C2230 C2231 1.385 . S
C2230 C2232 1.478 1_554 S
C2231 H2225 0.930 . S
C2231 C2227 1.400 . S
C2231 C2230 1.385 . S
C2232 C2230 1.478 1_556 S
C2232 C2234 1.381 . S
C2232 C2238 1.383 . S
C2233 C2229 1.495 . S
C2233 H2239 0.959 . S
C2233 H2240 0.961 1_554 S
C2233 H2241 0.960 1_554 S
C2234 C2232 1.381 . S
C2234 C2235 1.394 . S
C2234 H2242 0.930 . S
C2235 C2234 1.394 . S
C2235 C2236 1.383 . S
C2235 H2243 0.929 . S
C2236 C2235 1.383 . S
C2236 C2237 1.377 . S
C2237 H2221 0.930 . S
C2237 C2236 1.377 . S
C2237 C2238 1.379 . S
C2238 H2222 0.931 . S
C2238 C2232 1.383 . S
C2238 C2237 1.379 . S
H2239 C2233 0.959 . S
H2240 C2233 0.961 1_556 S
H2241 C2233 0.960 1_556 S
H2242 C2234 0.930 . S
H2243 C2235 0.929 . S
H2244 C2252 0.929 . S
H2245 C2254 0.930 . S
H2246 C2256 0.930 . S
H2247 C2259 0.929 . S
H2248 C2262 0.930 . S
H2249 C2264 0.960 . S
H2250 C2264 0.960 . S
H2251 C2264 0.960 . S
C2252 H2244 0.929 . S
C2252 C2253 1.377 . S
C2252 C2254 1.384 . S
C2253 C2252 1.377 . S
C2253 C2259 1.390 . S
C2254 H2245 0.930 . S
C2254 C2252 1.384 . S
C2254 C2255 1.372 . S
C2255 C2254 1.372 . S
C2255 C2256 1.400 . S
C2255 C2260 1.490 . S
C2256 H2246 0.930 . S
C2256 C2255 1.400 . S
C2256 C2259 1.386 . S
H2257 C2273 0.930 . S
H2258 C2274 0.931 . S
C2259 H2247 0.929 . S
C2259 C2253 1.390 . S
C2259 C2256 1.386 . S
C2260 C2255 1.490 . S
C2260 C2262 1.395 . S
C2260 C2263 1.403 . S
H2261 C2267 0.930 . S
C2262 H2248 0.930 . S
C2262 C2260 1.395 . S
C2262 C2265 1.403 . S
C2263 C2260 1.403 . S
C2263 C2264 1.524 . S
C2263 C2267 1.400 . S
C2264 H2249 0.960 . S
C2264 H2250 0.960 . S
C2264 H2251 0.960 . S
C2264 C2263 1.524 . S
C2265 C2262 1.403 . S
C2265 C2266 1.392 . S
C2265 C2269 1.495 . S
C2266 C2265 1.392 . S
C2266 C2267 1.385 . S
C2266 C2268 1.478 . S
C2267 H2261 0.930 . S
C2267 C2263 1.400 . S
C2267 C2266 1.385 . S
C2268 C2266 1.478 . S
C2268 C2270 1.381 . S
C2268 C2274 1.383 . S
C2269 C2265 1.495 . S
C2269 H2275 0.959 . S
C2269 H2276 0.961 . S
C2269 H2277 0.960 . S
C2270 C2268 1.381 . S
C2270 C2271 1.394 . S
C2270 H2278 0.930 . S
C2271 C2270 1.394 . S
C2271 C2272 1.383 . S
C2271 H2279 0.929 . S
C2272 C2271 1.383 . S
C2272 C2273 1.377 . S
C2273 H2257 0.930 . S
C2273 C2272 1.377 . S
C2273 C2274 1.379 . S
C2274 H2258 0.931 . S
C2274 C2268 1.383 . S
C2274 C2273 1.379 . S
H2275 C2269 0.959 . S
H2276 C2269 0.961 . S
H2277 C2269 0.960 . S
H2278 C2270 0.930 . S
H2279 C2271 0.929 . S
H2280 C2288 0.929 . S
H2281 C2290 0.930 . S
H2282 C2292 0.930 . S
H2283 C2295 0.929 . S
H2284 C2298 0.930 . S
H2285 C2300 0.960 . S
H2286 C2300 0.960 . S
H2287 C2300 0.960 . S
C2288 H2280 0.929 . S
C2288 C2289 1.377 . S
C2288 C2290 1.384 . S
C2289 C2288 1.377 . S
C2289 C2295 1.390 . S
C2290 H2281 0.930 . S
C2290 C2288 1.384 . S
C2290 C2291 1.372 . S
C2291 C2290 1.372 . S
C2291 C2292 1.400 . S
C2291 C2296 1.490 . S
C2292 H2282 0.930 . S
C2292 C2291 1.400 . S
C2292 C2295 1.386 . S
H2293 C2309 0.930 . S
H2294 C2310 0.931 . S
C2295 H2283 0.929 . S
C2295 C2289 1.390 . S
C2295 C2292 1.386 . S
C2296 C2291 1.490 . S
C2296 C2298 1.395 . S
C2296 C2299 1.403 . S
H2297 C2303 0.930 . S
C2298 H2284 0.930 . S
C2298 C2296 1.395 . S
C2298 C2301 1.403 . S
C2299 C2296 1.403 . S
C2299 C2300 1.524 . S
C2299 C2303 1.400 . S
C2300 H2285 0.960 . S
C2300 H2286 0.960 . S
C2300 H2287 0.960 . S
C2300 C2299 1.524 . S
C2301 C2298 1.403 . S
C2301 C2302 1.392 . S
C2301 C2305 1.495 . S
C2302 C2301 1.392 . S
C2302 C2303 1.385 . S
C2302 C2304 1.478 . S
C2303 H2297 0.930 . S
C2303 C2299 1.400 . S
C2303 C2302 1.385 . S
C2304 C2302 1.478 . S
C2304 C2306 1.381 . S
C2304 C2310 1.383 . S
C2305 C2301 1.495 . S
C2305 H2311 0.959 . S
C2305 H2312 0.961 . S
C2305 H2313 0.960 . S
C2306 C2304 1.381 . S
C2306 C2307 1.394 . S
C2306 H2314 0.930 . S
C2307 C2306 1.394 . S
C2307 C2308 1.383 . S
C2307 H2315 0.929 . S
C2308 C2307 1.383 . S
C2308 C2309 1.377 . S
C2309 H2293 0.930 . S
C2309 C2308 1.377 . S
C2309 C2310 1.379 . S
C2310 H2294 0.931 . S
C2310 C2304 1.383 . S
C2310 C2309 1.379 . S
H2311 C2305 0.959 . S
H2312 C2305 0.961 . S
H2313 C2305 0.960 . S
H2314 C2306 0.930 . S
H2315 C2307 0.929 . S
H2316 C2324 0.929 . S
H2317 C2326 0.930 . S
H2318 C2328 0.930 . S
H2319 C2331 0.929 . S
H2320 C2334 0.930 . S
H2321 C2336 0.960 . S
H2322 C2336 0.960 . S
H2323 C2336 0.960 . S
C2324 H2316 0.929 . S
C2324 C2325 1.377 . S
C2324 C2326 1.384 1_554 S
C2325 C2324 1.377 . S
C2325 C2331 1.390 . S
C2326 H2317 0.930 . S
C2326 C2324 1.384 1_556 S
C2326 C2327 1.372 . S
C2327 C2326 1.372 . S
C2327 C2328 1.400 . S
C2327 C2332 1.490 . S
C2328 H2318 0.930 . S
C2328 C2327 1.400 . S
C2328 C2331 1.386 1_556 S
H2329 C2345 0.930 . S
H2330 C2346 0.931 . S
C2331 H2319 0.929 . S
C2331 C2325 1.390 . S
C2331 C2328 1.386 1_554 S
C2332 C2327 1.490 . S
C2332 C2334 1.395 . S
C2332 C2335 1.403 . S
H2333 C2339 0.930 . S
C2334 H2320 0.930 . S
C2334 C2332 1.395 . S
C2334 C2337 1.403 . S
C2335 C2332 1.403 . S
C2335 C2336 1.524 . S
C2335 C2339 1.400 . S
C2336 H2321 0.960 . S
C2336 H2322 0.960 . S
C2336 H2323 0.960 . S
C2336 C2335 1.524 . S
C2337 C2334 1.403 . S
C2337 C2338 1.392 . S
C2337 C2341 1.495 . S
C2338 C2337 1.392 . S
C2338 C2339 1.385 . S
C2338 C2340 1.478 . S
C2339 H2333 0.930 . S
C2339 C2335 1.400 . S
C2339 C2338 1.385 . S
C2340 C2338 1.478 . S
C2340 C2342 1.381 . S
C2340 C2346 1.383 . S
C2341 C2337 1.495 . S
C2341 H2347 0.959 . S
C2341 H2348 0.961 . S
C2341 H2349 0.960 . S
C2342 C2340 1.381 . S
C2342 C2343 1.394 . S
C2342 H2350 0.930 . S
C2343 C2342 1.394 . S
C2343 C2344 1.383 . S
C2343 H2351 0.929 . S
C2344 C2343 1.383 . S
C2344 C2345 1.377 . S
C2345 H2329 0.930 . S
C2345 C2344 1.377 . S
C2345 C2346 1.379 . S
C2346 H2330 0.931 . S
C2346 C2340 1.383 . S
C2346 C2345 1.379 . S
H2347 C2341 0.959 . S
H2348 C2341 0.961 . S
H2349 C2341 0.960 . S
H2350 C2342 0.930 . S
H2351 C2343 0.929 . S
H2352 C2360 0.929 . S
H2353 C2362 0.930 . S
H2354 C2364 0.930 . S
H2355 C2367 0.929 . S
H2356 C2370 0.930 . S
H2357 C2372 0.960 . S
H2358 C2372 0.960 . S
H2359 C2372 0.960 . S
C2360 H2352 0.929 . S
C2360 C2361 1.377 . S
C2360 C2362 1.384 . S
C2361 C2360 1.377 . S
C2361 C2367 1.390 . S
C2362 H2353 0.930 . S
C2362 C2360 1.384 . S
C2362 C2363 1.372 . S
C2363 C2362 1.372 . S
C2363 C2364 1.400 . S
C2363 C2368 1.490 . S
C2364 H2354 0.930 . S
C2364 C2363 1.400 . S
C2364 C2367 1.386 . S
H2365 C2381 0.930 . S
H2366 C2382 0.931 . S
C2367 H2355 0.929 . S
C2367 C2361 1.390 . S
C2367 C2364 1.386 . S
C2368 C2363 1.490 . S
C2368 C2370 1.395 . S
C2368 C2371 1.403 . S
H2369 C2375 0.930 . S
C2370 H2356 0.930 . S
C2370 C2368 1.395 . S
C2370 C2373 1.403 . S
C2371 C2368 1.403 . S
C2371 C2372 1.524 . S
C2371 C2375 1.400 . S
C2372 H2357 0.960 . S
C2372 H2358 0.960 . S
C2372 H2359 0.960 . S
C2372 C2371 1.524 . S
C2373 C2370 1.403 . S
C2373 C2374 1.392 . S
C2373 C2377 1.495 . S
C2374 C2373 1.392 . S
C2374 C2375 1.385 . S
C2374 C2376 1.478 1_556 S
C2375 H2369 0.930 . S
C2375 C2371 1.400 . S
C2375 C2374 1.385 . S
C2376 C2374 1.478 1_554 S
C2376 C2378 1.381 . S
C2376 C2382 1.383 . S
C2377 C2373 1.495 . S
C2377 H2383 0.959 . S
C2377 H2384 0.961 1_556 S
C2377 H2385 0.960 1_556 S
C2378 C2376 1.381 . S
C2378 C2379 1.394 . S
C2378 H2386 0.930 . S
C2379 C2378 1.394 . S
C2379 C2380 1.383 . S
C2379 H2387 0.929 . S
C2380 C2379 1.383 . S
C2380 C2381 1.377 . S
C2381 H2365 0.930 . S
C2381 C2380 1.377 . S
C2381 C2382 1.379 . S
C2382 H2366 0.931 . S
C2382 C2376 1.383 . S
C2382 C2381 1.379 . S
H2383 C2377 0.959 . S
H2384 C2377 0.961 1_554 S
H2385 C2377 0.960 1_554 S
H2386 C2378 0.930 . S
H2387 C2379 0.929 . S
H2388 C2396 0.929 . S
H2389 C2398 0.930 . S
H2390 C2400 0.930 . S
H2391 C2403 0.929 . S
H2392 C2406 0.930 . S
H2393 C2408 0.960 . S
H2394 C2408 0.960 . S
H2395 C2408 0.960 . S
C2396 H2388 0.929 . S
C2396 C2397 1.377 . S
C2396 C2398 1.384 1_556 S
C2397 C2396 1.377 . S
C2397 C2403 1.390 . S
C2398 H2389 0.930 . S
C2398 C2396 1.384 1_554 S
C2398 C2399 1.372 . S
C2399 C2398 1.372 . S
C2399 C2400 1.400 . S
C2399 C2404 1.490 . S
C2400 H2390 0.930 . S
C2400 C2399 1.400 . S
C2400 C2403 1.386 1_554 S
H2401 C2417 0.930 . S
H2402 C2418 0.931 . S
C2403 H2391 0.929 . S
C2403 C2397 1.390 . S
C2403 C2400 1.386 1_556 S
C2404 C2399 1.490 . S
C2404 C2406 1.395 . S
C2404 C2407 1.403 . S
H2405 C2411 0.930 . S
C2406 H2392 0.930 . S
C2406 C2404 1.395 . S
C2406 C2409 1.403 . S
C2407 C2404 1.403 . S
C2407 C2408 1.524 . S
C2407 C2411 1.400 . S
C2408 H2393 0.960 . S
C2408 H2394 0.960 . S
C2408 H2395 0.960 . S
C2408 C2407 1.524 . S
C2409 C2406 1.403 . S
C2409 C2410 1.392 . S
C2409 C2413 1.495 . S
C2410 C2409 1.392 . S
C2410 C2411 1.385 . S
C2410 C2412 1.478 . S
C2411 H2405 0.930 . S
C2411 C2407 1.400 . S
C2411 C2410 1.385 . S
C2412 C2410 1.478 . S
C2412 C2414 1.381 . S
C2412 C2418 1.383 . S
C2413 C2409 1.495 . S
C2413 H2419 0.959 . S
C2413 H2420 0.961 . S
C2413 H2421 0.960 . S
C2414 C2412 1.381 . S
C2414 C2415 1.394 . S
C2414 H2422 0.930 . S
C2415 C2414 1.394 . S
C2415 C2416 1.383 . S
C2415 H2423 0.929 . S
C2416 C2415 1.383 . S
C2416 C2417 1.377 . S
C2417 H2401 0.930 . S
C2417 C2416 1.377 . S
C2417 C2418 1.379 . S
C2418 H2402 0.931 . S
C2418 C2412 1.383 . S
C2418 C2417 1.379 . S
H2419 C2413 0.959 . S
H2420 C2413 0.961 . S
H2421 C2413 0.960 . S
H2422 C2414 0.930 . S
H2423 C2415 0.929 . S
H2424 C2432 0.929 . S
H2425 C2434 0.930 . S
H2426 C2436 0.930 . S
H2427 C2439 0.929 . S
H2428 C2442 0.930 . S
H2429 C2444 0.960 . S
H2430 C2444 0.960 . S
H2431 C2444 0.960 . S
C2432 H2424 0.929 . S
C2432 C2433 1.377 . S
C2432 C2434 1.384 . S
C2433 C2432 1.377 . S
C2433 C2439 1.390 . S
C2434 H2425 0.930 . S
C2434 C2432 1.384 . S
C2434 C2435 1.372 . S
C2435 C2434 1.372 . S
C2435 C2436 1.400 . S
C2435 C2440 1.490 . S
C2436 H2426 0.930 . S
C2436 C2435 1.400 . S
C2436 C2439 1.386 . S
H2437 C2453 0.930 . S
H2438 C2454 0.931 . S
C2439 H2427 0.929 . S
C2439 C2433 1.390 . S
C2439 C2436 1.386 . S
C2440 C2435 1.490 . S
C2440 C2442 1.395 . S
C2440 C2443 1.403 . S
H2441 C2447 0.930 . S
C2442 H2428 0.930 . S
C2442 C2440 1.395 . S
C2442 C2445 1.403 . S
C2443 C2440 1.403 . S
C2443 C2444 1.524 . S
C2443 C2447 1.400 . S
C2444 H2429 0.960 . S
C2444 H2430 0.960 . S
C2444 H2431 0.960 . S
C2444 C2443 1.524 . S
C2445 C2442 1.403 . S
C2445 C2446 1.392 . S
C2445 C2449 1.495 . S
C2446 C2445 1.392 . S
C2446 C2447 1.385 . S
C2446 C2448 1.478 . S
C2447 H2441 0.930 . S
C2447 C2443 1.400 . S
C2447 C2446 1.385 . S
C2448 C2446 1.478 . S
C2448 C2450 1.381 . S
C2448 C2454 1.383 . S
C2449 C2445 1.495 . S
C2449 H2455 0.959 . S
C2449 H2456 0.961 . S
C2449 H2457 0.960 . S
C2450 C2448 1.381 . S
C2450 C2451 1.394 . S
C2450 H2458 0.930 . S
C2451 C2450 1.394 . S
C2451 C2452 1.383 . S
C2451 H2459 0.929 . S
C2452 C2451 1.383 . S
C2452 C2453 1.377 . S
C2453 H2437 0.930 . S
C2453 C2452 1.377 . S
C2453 C2454 1.379 . S
C2454 H2438 0.931 . S
C2454 C2448 1.383 . S
C2454 C2453 1.379 . S
H2455 C2449 0.959 . S
H2456 C2449 0.961 . S
H2457 C2449 0.960 . S
H2458 C2450 0.930 . S
H2459 C2451 0.929 . S
H2460 C2468 0.929 . S
H2461 C2470 0.930 . S
H2462 C2472 0.930 . S
H2463 C2475 0.929 . S
H2464 C2478 0.930 . S
H2465 C2480 0.960 . S
H2466 C2480 0.960 . S
H2467 C2480 0.960 . S
C2468 H2460 0.929 . S
C2468 C2469 1.377 . S
C2468 C2470 1.384 . S
C2469 C2468 1.377 . S
C2469 C2475 1.390 . S
C2470 H2461 0.930 . S
C2470 C2468 1.384 . S
C2470 C2471 1.372 . S
C2471 C2470 1.372 . S
C2471 C2472 1.400 . S
C2471 C2476 1.490 . S
C2472 H2462 0.930 . S
C2472 C2471 1.400 . S
C2472 C2475 1.386 . S
H2473 C2489 0.930 . S
H2474 C2490 0.931 . S
C2475 H2463 0.929 . S
C2475 C2469 1.390 . S
C2475 C2472 1.386 . S
C2476 C2471 1.490 . S
C2476 C2478 1.395 . S
C2476 C2479 1.403 . S
H2477 C2483 0.930 . S
C2478 H2464 0.930 . S
C2478 C2476 1.395 . S
C2478 C2481 1.403 . S
C2479 C2476 1.403 . S
C2479 C2480 1.524 . S
C2479 C2483 1.400 . S
C2480 H2465 0.960 . S
C2480 H2466 0.960 . S
C2480 H2467 0.960 . S
C2480 C2479 1.524 . S
C2481 C2478 1.403 . S
C2481 C2482 1.392 . S
C2481 C2485 1.495 . S
C2482 C2481 1.392 . S
C2482 C2483 1.385 . S
C2482 C2484 1.478 . S
C2483 H2477 0.930 . S
C2483 C2479 1.400 . S
C2483 C2482 1.385 . S
C2484 C2482 1.478 . S
C2484 C2486 1.381 . S
C2484 C2490 1.383 . S
C2485 C2481 1.495 . S
C2485 H2491 0.959 . S
C2485 H2492 0.961 . S
C2485 H2493 0.960 . S
C2486 C2484 1.381 . S
C2486 C2487 1.394 . S
C2486 H2494 0.930 . S
C2487 C2486 1.394 . S
C2487 C2488 1.383 . S
C2487 H2495 0.929 . S
C2488 C2487 1.383 . S
C2488 C2489 1.377 . S
C2489 H2473 0.930 . S
C2489 C2488 1.377 . S
C2489 C2490 1.379 . S
C2490 H2474 0.931 . S
C2490 C2484 1.383 . S
C2490 C2489 1.379 . S
H2491 C2485 0.959 . S
H2492 C2485 0.961 . S
H2493 C2485 0.960 . S
H2494 C2486 0.930 . S
H2495 C2487 0.929 . S
H2496 C2504 0.929 . S
H2497 C2506 0.930 . S
H2498 C2508 0.930 . S
H2499 C2511 0.929 . S
H2500 C2514 0.930 . S
H2501 C2516 0.960 . S
H2502 C2516 0.960 . S
H2503 C2516 0.960 . S
C2504 H2496 0.929 . S
C2504 C2505 1.377 . S
C2504 C2506 1.384 . S
C2505 C2504 1.377 . S
C2505 C2511 1.390 . S
C2506 H2497 0.930 . S
C2506 C2504 1.384 . S
C2506 C2507 1.372 . S
C2507 C2506 1.372 . S
C2507 C2508 1.400 . S
C2507 C2512 1.490 . S
C2508 H2498 0.930 . S
C2508 C2507 1.400 . S
C2508 C2511 1.386 . S
H2509 C2525 0.930 . S
H2510 C2526 0.931 . S
C2511 H2499 0.929 . S
C2511 C2505 1.390 . S
C2511 C2508 1.386 . S
C2512 C2507 1.490 . S
C2512 C2514 1.395 . S
C2512 C2515 1.403 . S
H2513 C2519 0.930 . S
C2514 H2500 0.930 . S
C2514 C2512 1.395 . S
C2514 C2517 1.403 . S
C2515 C2512 1.403 . S
C2515 C2516 1.524 . S
C2515 C2519 1.400 . S
C2516 H2501 0.960 . S
C2516 H2502 0.960 . S
C2516 H2503 0.960 . S
C2516 C2515 1.524 . S
C2517 C2514 1.403 . S
C2517 C2518 1.392 . S
C2517 C2521 1.495 . S
C2518 C2517 1.392 . S
C2518 C2519 1.385 . S
C2518 C2520 1.478 1_556 S
C2519 H2513 0.930 . S
C2519 C2515 1.400 . S
C2519 C2518 1.385 . S
C2520 C2518 1.478 1_554 S
C2520 C2522 1.381 . S
C2520 C2526 1.383 . S
C2521 C2517 1.495 . S
C2521 H2527 0.959 . S
C2521 H2528 0.961 . S
C2521 H2529 0.960 . S
C2522 C2520 1.381 . S
C2522 C2523 1.394 . S
C2522 H2530 0.930 . S
C2523 C2522 1.394 . S
C2523 C2524 1.383 . S
C2523 H2531 0.929 . S
C2524 C2523 1.383 . S
C2524 C2525 1.377 . S
C2525 H2509 0.930 . S
C2525 C2524 1.377 . S
C2525 C2526 1.379 . S
C2526 H2510 0.931 . S
C2526 C2520 1.383 . S
C2526 C2525 1.379 . S
H2527 C2521 0.959 . S
H2528 C2521 0.961 . S
H2529 C2521 0.960 . S
H2530 C2522 0.930 . S
H2531 C2523 0.929 . S
H2532 C2540 0.929 . S
H2533 C2542 0.930 . S
H2534 C2544 0.930 . S
H2535 C2547 0.929 . S
H2536 C2550 0.930 . S
H2537 C2552 0.960 . S
H2538 C2552 0.960 . S
H2539 C2552 0.960 . S
C2540 H2532 0.929 . S
C2540 C2541 1.377 . S
C2540 C2542 1.384 . S
C2541 C2540 1.377 . S
C2541 C2547 1.390 . S
C2542 H2533 0.930 . S
C2542 C2540 1.384 . S
C2542 C2543 1.372 . S
C2543 C2542 1.372 . S
C2543 C2544 1.400 . S
C2543 C2548 1.490 . S
C2544 H2534 0.930 . S
C2544 C2543 1.400 . S
C2544 C2547 1.386 . S
H2545 C2561 0.930 . S
H2546 C2562 0.931 . S
C2547 H2535 0.929 . S
C2547 C2541 1.390 . S
C2547 C2544 1.386 . S
C2548 C2543 1.490 . S
C2548 C2550 1.395 . S
C2548 C2551 1.403 . S
H2549 C2555 0.930 . S
C2550 H2536 0.930 . S
C2550 C2548 1.395 . S
C2550 C2553 1.403 . S
C2551 C2548 1.403 . S
C2551 C2552 1.524 . S
C2551 C2555 1.400 . S
C2552 H2537 0.960 . S
C2552 H2538 0.960 . S
C2552 H2539 0.960 . S
C2552 C2551 1.524 . S
C2553 C2550 1.403 . S
C2553 C2554 1.392 . S
C2553 C2557 1.495 . S
C2554 C2553 1.392 . S
C2554 C2555 1.385 . S
C2554 C2556 1.478 . S
C2555 H2549 0.930 . S
C2555 C2551 1.400 . S
C2555 C2554 1.385 . S
C2556 C2554 1.478 . S
C2556 C2558 1.381 . S
C2556 C2562 1.383 . S
C2557 C2553 1.495 . S
C2557 H2563 0.959 . S
C2557 H2564 0.961 . S
C2557 H2565 0.960 . S
C2558 C2556 1.381 . S
C2558 C2559 1.394 . S
C2558 H2566 0.930 . S
C2559 C2558 1.394 . S
C2559 C2560 1.383 . S
C2559 H2567 0.929 . S
C2560 C2559 1.383 . S
C2560 C2561 1.377 . S
C2561 H2545 0.930 . S
C2561 C2560 1.377 . S
C2561 C2562 1.379 . S
C2562 H2546 0.931 . S
C2562 C2556 1.383 . S
C2562 C2561 1.379 . S
H2563 C2557 0.959 . S
H2564 C2557 0.961 . S
H2565 C2557 0.960 . S
H2566 C2558 0.930 . S
H2567 C2559 0.929 . S
H2568 C2576 0.929 . S
H2569 C2578 0.930 . S
H2570 C2580 0.930 . S
H2571 C2583 0.929 . S
H2572 C2586 0.930 . S
H2573 C2588 0.960 . S
H2574 C2588 0.960 . S
H2575 C2588 0.960 . S
C2576 H2568 0.929 . S
C2576 C2577 1.377 . S
C2576 C2578 1.384 . S
C2577 C2576 1.377 . S
C2577 C2583 1.390 . S
C2578 H2569 0.930 . S
C2578 C2576 1.384 . S
C2578 C2579 1.372 . S
C2579 C2578 1.372 . S
C2579 C2580 1.400 . S
C2579 C2584 1.490 . S
C2580 H2570 0.930 . S
C2580 C2579 1.400 . S
C2580 C2583 1.386 . S
H2581 C2597 0.930 . S
H2582 C2598 0.931 . S
C2583 H2571 0.929 . S
C2583 C2577 1.390 . S
C2583 C2580 1.386 . S
C2584 C2579 1.490 . S
C2584 C2586 1.395 . S
C2584 C2587 1.403 . S
H2585 C2591 0.930 . S
C2586 H2572 0.930 . S
C2586 C2584 1.395 . S
C2586 C2589 1.403 . S
C2587 C2584 1.403 . S
C2587 C2588 1.524 . S
C2587 C2591 1.400 . S
C2588 H2573 0.960 . S
C2588 H2574 0.960 . S
C2588 H2575 0.960 . S
C2588 C2587 1.524 . S
C2589 C2586 1.403 . S
C2589 C2590 1.392 . S
C2589 C2593 1.495 . S
C2590 C2589 1.392 . S
C2590 C2591 1.385 . S
C2590 C2592 1.478 . S
C2591 H2585 0.930 . S
C2591 C2587 1.400 . S
C2591 C2590 1.385 . S
C2592 C2590 1.478 . S
C2592 C2594 1.381 . S
C2592 C2598 1.383 . S
C2593 C2589 1.495 . S
C2593 H2599 0.959 . S
C2593 H2600 0.961 . S
C2593 H2601 0.960 . S
C2594 C2592 1.381 . S
C2594 C2595 1.394 . S
C2594 H2602 0.930 . S
C2595 C2594 1.394 . S
C2595 C2596 1.383 . S
C2595 H2603 0.929 . S
C2596 C2595 1.383 . S
C2596 C2597 1.377 . S
C2597 H2581 0.930 . S
C2597 C2596 1.377 . S
C2597 C2598 1.379 . S
C2598 H2582 0.931 . S
C2598 C2592 1.383 . S
C2598 C2597 1.379 . S
H2599 C2593 0.959 . S
H2600 C2593 0.961 . S
H2601 C2593 0.960 . S
H2602 C2594 0.930 . S
H2603 C2595 0.929 . S
H2604 C2612 0.929 . S
H2605 C2614 0.930 . S
H2606 C2616 0.930 . S
H2607 C2619 0.929 . S
H2608 C2622 0.930 . S
H2609 C2624 0.960 . S
H2610 C2624 0.960 . S
H2611 C2624 0.960 . S
C2612 H2604 0.929 . S
C2612 C2613 1.377 . S
C2612 C2614 1.384 1_556 S
C2613 C2612 1.377 . S
C2613 C2619 1.390 . S
C2614 H2605 0.930 . S
C2614 C2612 1.384 1_554 S
C2614 C2615 1.372 . S
C2615 C2614 1.372 . S
C2615 C2616 1.400 . S
C2615 C2620 1.490 . S
C2616 H2606 0.930 . S
C2616 C2615 1.400 . S
C2616 C2619 1.386 1_554 S
H2617 C2633 0.930 . S
H2618 C2634 0.931 . S
C2619 H2607 0.929 . S
C2619 C2613 1.390 . S
C2619 C2616 1.386 1_556 S
C2620 C2615 1.490 . S
C2620 C2622 1.395 . S
C2620 C2623 1.403 . S
H2621 C2627 0.930 . S
C2622 H2608 0.930 . S
C2622 C2620 1.395 . S
C2622 C2625 1.403 . S
C2623 C2620 1.403 . S
C2623 C2624 1.524 . S
C2623 C2627 1.400 . S
C2624 H2609 0.960 . S
C2624 H2610 0.960 . S
C2624 H2611 0.960 . S
C2624 C2623 1.524 . S
C2625 C2622 1.403 . S
C2625 C2626 1.392 . S
C2625 C2629 1.495 . S
C2626 C2625 1.392 . S
C2626 C2627 1.385 . S
C2626 C2628 1.478 . S
C2627 H2621 0.930 . S
C2627 C2623 1.400 . S
C2627 C2626 1.385 . S
C2628 C2626 1.478 . S
C2628 C2630 1.381 . S
C2628 C2634 1.383 . S
C2629 C2625 1.495 . S
C2629 H2635 0.959 . S
C2629 H2636 0.961 . S
C2629 H2637 0.960 . S
C2630 C2628 1.381 . S
C2630 C2631 1.394 . S
C2630 H2638 0.930 . S
C2631 C2630 1.394 . S
C2631 C2632 1.383 . S
C2631 H2639 0.929 . S
C2632 C2631 1.383 . S
C2632 C2633 1.377 . S
C2633 H2617 0.930 . S
C2633 C2632 1.377 . S
C2633 C2634 1.379 . S
C2634 H2618 0.931 . S
C2634 C2628 1.383 . S
C2634 C2633 1.379 . S
H2635 C2629 0.959 . S
H2636 C2629 0.961 . S
H2637 C2629 0.960 . S
H2638 C2630 0.930 . S
H2639 C2631 0.929 . S
H2640 C2648 0.929 . S
H2641 C2650 0.930 . S
H2642 C2652 0.930 . S
H2643 C2655 0.929 . S
H2644 C2658 0.930 . S
H2645 C2660 0.960 . S
H2646 C2660 0.960 . S
H2647 C2660 0.960 . S
C2648 H2640 0.929 . S
C2648 C2649 1.377 . S
C2648 C2650 1.384 . S
C2649 C2648 1.377 . S
C2649 C2655 1.390 . S
C2650 H2641 0.930 . S
C2650 C2648 1.384 . S
C2650 C2651 1.372 . S
C2651 C2650 1.372 . S
C2651 C2652 1.400 . S
C2651 C2656 1.490 . S
C2652 H2642 0.930 . S
C2652 C2651 1.400 . S
C2652 C2655 1.386 . S
H2653 C2669 0.930 . S
H2654 C2670 0.931 . S
C2655 H2643 0.929 . S
C2655 C2649 1.390 . S
C2655 C2652 1.386 . S
C2656 C2651 1.490 . S
C2656 C2658 1.395 . S
C2656 C2659 1.403 . S
H2657 C2663 0.930 . S
C2658 H2644 0.930 . S
C2658 C2656 1.395 . S
C2658 C2661 1.403 . S
C2659 C2656 1.403 . S
C2659 C2660 1.524 . S
C2659 C2663 1.400 . S
C2660 H2645 0.960 . S
C2660 H2646 0.960 . S
C2660 H2647 0.960 . S
C2660 C2659 1.524 . S
C2661 C2658 1.403 . S
C2661 C2662 1.392 . S
C2661 C2665 1.495 . S
C2662 C2661 1.392 . S
C2662 C2663 1.385 . S
C2662 C2664 1.478 1_554 S
C2663 H2657 0.930 . S
C2663 C2659 1.400 . S
C2663 C2662 1.385 . S
C2664 C2662 1.478 1_556 S
C2664 C2666 1.381 . S
C2664 C2670 1.383 . S
C2665 C2661 1.495 . S
C2665 H2671 0.959 . S
C2665 H2672 0.961 . S
C2665 H2673 0.958 . S
C2666 C2664 1.381 . S
C2666 C2667 1.394 . S
C2666 H2674 0.930 . S
C2667 C2666 1.394 . S
C2667 C2668 1.383 . S
C2667 H2675 0.929 . S
C2668 C2667 1.383 . S
C2668 C2669 1.377 . S
C2669 H2653 0.930 . S
C2669 C2668 1.377 . S
C2669 C2670 1.379 . S
C2670 H2654 0.931 . S
C2670 C2664 1.383 . S
C2670 C2669 1.379 . S
H2671 C2665 0.959 . S
H2672 C2665 0.961 . S
H2673 C2665 0.958 . S
H2674 C2666 0.930 . S
H2675 C2667 0.929 . S
H2676 C2684 0.929 . S
H2677 C2686 0.936 . S
H2678 C2688 0.930 . S
H2679 C2691 0.929 . S
H2680 C2694 0.930 . S
H2681 C2696 0.960 . S
H2682 C2696 0.960 . S
H2683 C2696 0.960 . S
C2684 H2676 0.929 . S
C2684 C2685 1.377 . S
C2684 C2686 1.367 1_554 S
C2685 C2684 1.377 . S
C2685 C2691 1.390 . S
C2686 H2677 0.936 . S
C2686 C2684 1.367 1_556 S
C2686 C2687 1.382 . S
C2687 C2686 1.382 . S
C2687 C2688 1.400 . S
C2687 C2692 1.490 . S
C2688 H2678 0.930 . S
C2688 C2687 1.400 . S
C2688 C2691 1.386 1_556 S
H2689 C2705 0.930 . S
H2690 C2706 0.931 . S
C2691 H2679 0.929 . S
C2691 C2685 1.390 . S
C2691 C2688 1.386 1_554 S
C2692 C2687 1.490 . S
C2692 C2694 1.395 . S
C2692 C2695 1.403 . S
H2693 C2699 0.930 . S
C2694 H2680 0.930 . S
C2694 C2692 1.395 . S
C2694 C2697 1.403 . S
C2695 C2692 1.403 . S
C2695 C2696 1.524 . S
C2695 C2699 1.400 . S
C2696 H2681 0.960 . S
C2696 H2682 0.960 . S
C2696 H2683 0.960 . S
C2696 C2695 1.524 . S
C2697 C2694 1.403 . S
C2697 C2698 1.392 . S
C2697 C2701 1.495 . S
C2698 C2697 1.392 . S
C2698 C2699 1.385 . S
C2698 C2700 1.478 . S
C2699 H2693 0.930 . S
C2699 C2695 1.400 . S
C2699 C2698 1.385 . S
C2700 C2698 1.478 . S
C2700 C2702 1.381 . S
C2700 C2706 1.383 . S
C2701 C2697 1.495 . S
C2701 H2707 0.959 . S
C2701 H2708 0.961 . S
C2701 H2709 0.960 . S
C2702 C2700 1.381 . S
C2702 C2703 1.394 . S
C2702 H2710 0.930 . S
C2703 C2702 1.394 . S
C2703 C2704 1.383 . S
C2703 H2711 0.929 . S
C2704 C2703 1.383 . S
C2704 C2705 1.377 . S
C2705 H2689 0.930 . S
C2705 C2704 1.377 . S
C2705 C2706 1.379 . S
C2706 H2690 0.931 . S
C2706 C2700 1.383 . S
C2706 C2705 1.379 . S
H2707 C2701 0.959 . S
H2708 C2701 0.961 . S
H2709 C2701 0.960 . S
H2710 C2702 0.930 . S
H2711 C2703 0.929 . S
H2712 C2720 0.929 . S
H2713 C2722 0.930 . S
H2714 C2724 0.930 . S
H2715 C2727 0.929 . S
H2716 C2730 0.930 . S
H2717 C2732 0.960 . S
H2718 C2732 0.960 . S
H2719 C2732 0.960 . S
C2720 H2712 0.929 . S
C2720 C2721 1.377 . S
C2720 C2722 1.384 . S
C2721 C2720 1.377 . S
C2721 C2727 1.390 . S
C2722 H2713 0.930 . S
C2722 C2720 1.384 . S
C2722 C2723 1.372 . S
C2723 C2722 1.372 . S
C2723 C2724 1.400 . S
C2723 C2728 1.490 . S
C2724 H2714 0.930 . S
C2724 C2723 1.400 . S
C2724 C2727 1.386 . S
H2725 C2741 0.930 . S
H2726 C2742 0.931 . S
C2727 H2715 0.929 . S
C2727 C2721 1.390 . S
C2727 C2724 1.386 . S
C2728 C2723 1.490 . S
C2728 C2730 1.395 . S
C2728 C2731 1.403 . S
H2729 C2735 0.930 . S
C2730 H2716 0.930 . S
C2730 C2728 1.395 . S
C2730 C2733 1.403 . S
C2731 C2728 1.403 . S
C2731 C2732 1.524 . S
C2731 C2735 1.400 . S
C2732 H2717 0.960 . S
C2732 H2718 0.960 . S
C2732 H2719 0.960 . S
C2732 C2731 1.524 . S
C2733 C2730 1.403 . S
C2733 C2734 1.392 . S
C2733 C2737 1.495 . S
C2734 C2733 1.392 . S
C2734 C2735 1.385 . S
C2734 C2736 1.478 . S
C2735 H2729 0.930 . S
C2735 C2731 1.400 . S
C2735 C2734 1.385 . S
C2736 C2734 1.478 . S
C2736 C2738 1.381 . S
C2736 C2742 1.383 . S
C2737 C2733 1.495 . S
C2737 H2743 0.959 . S
C2737 H2744 0.961 . S
C2737 H2745 0.960 . S
C2738 C2736 1.381 . S
C2738 C2739 1.394 . S
C2738 H2746 0.930 . S
C2739 C2738 1.394 . S
C2739 C2740 1.383 . S
C2739 H2747 0.929 . S
C2740 C2739 1.383 . S
C2740 C2741 1.377 . S
C2741 H2725 0.930 . S
C2741 C2740 1.377 . S
C2741 C2742 1.379 . S
C2742 H2726 0.931 . S
C2742 C2736 1.383 . S
C2742 C2741 1.379 . S
H2743 C2737 0.959 . S
H2744 C2737 0.961 . S
H2745 C2737 0.960 . S
H2746 C2738 0.930 . S
H2747 C2739 0.929 . S
H2748 C2756 0.929 . S
H2749 C2758 0.930 . S
H2750 C2760 0.930 . S
H2751 C2763 0.929 . S
H2752 C2766 0.930 . S
H2753 C2768 0.960 . S
H2754 C2768 0.960 . S
H2755 C2768 0.960 . S
C2756 H2748 0.929 . S
C2756 C2757 1.377 . S
C2756 C2758 1.384 . S
C2757 C2756 1.377 . S
C2757 C2763 1.390 . S
C2758 H2749 0.930 . S
C2758 C2756 1.384 . S
C2758 C2759 1.372 . S
C2759 C2758 1.372 . S
C2759 C2760 1.400 . S
C2759 C2764 1.490 . S
C2760 H2750 0.930 . S
C2760 C2759 1.400 . S
C2760 C2763 1.386 . S
H2761 C2777 0.930 . S
H2762 C2778 0.931 . S
C2763 H2751 0.929 . S
C2763 C2757 1.390 . S
C2763 C2760 1.386 . S
C2764 C2759 1.490 . S
C2764 C2766 1.395 . S
C2764 C2767 1.403 . S
H2765 C2771 0.930 . S
C2766 H2752 0.930 . S
C2766 C2764 1.395 . S
C2766 C2769 1.403 . S
C2767 C2764 1.403 . S
C2767 C2768 1.524 . S
C2767 C2771 1.400 . S
C2768 H2753 0.960 . S
C2768 H2754 0.960 . S
C2768 H2755 0.960 . S
C2768 C2767 1.524 . S
C2769 C2766 1.403 . S
C2769 C2770 1.392 . S
C2769 C2773 1.495 . S
C2770 C2769 1.392 . S
C2770 C2771 1.385 . S
C2770 C2772 1.478 . S
C2771 H2765 0.930 . S
C2771 C2767 1.400 . S
C2771 C2770 1.385 . S
C2772 C2770 1.478 . S
C2772 C2774 1.381 . S
C2772 C2778 1.383 . S
C2773 C2769 1.495 . S
C2773 H2779 0.959 . S
C2773 H2780 0.961 . S
C2773 H2781 0.960 . S
C2774 C2772 1.381 . S
C2774 C2775 1.394 . S
C2774 H2782 0.930 . S
C2775 C2774 1.394 . S
C2775 C2776 1.383 . S
C2775 H2783 0.929 . S
C2776 C2775 1.383 . S
C2776 C2777 1.377 . S
C2777 H2761 0.930 . S
C2777 C2776 1.377 . S
C2777 C2778 1.379 . S
C2778 H2762 0.931 . S
C2778 C2772 1.383 . S
C2778 C2777 1.379 . S
H2779 C2773 0.959 . S
H2780 C2773 0.961 . S
H2781 C2773 0.960 . S
H2782 C2774 0.930 . S
H2783 C2775 0.929 . S
H2784 C2792 0.929 . S
H2785 C2794 0.930 . S
H2786 C2796 0.930 . S
H2787 C2799 0.929 . S
H2788 C2802 0.930 . S
H2789 C2804 0.960 . S
H2790 C2804 0.960 . S
H2791 C2804 0.960 . S
C2792 H2784 0.929 . S
C2792 C2793 1.377 . S
C2792 C2794 1.384 . S
C2793 C2792 1.377 . S
C2793 C2799 1.390 . S
C2794 H2785 0.930 . S
C2794 C2792 1.384 . S
C2794 C2795 1.372 . S
C2795 C2794 1.372 . S
C2795 C2796 1.400 . S
C2795 C2800 1.490 . S
C2796 H2786 0.930 . S
C2796 C2795 1.400 . S
C2796 C2799 1.386 . S
H2797 C2813 0.930 . S
H2798 C2814 0.931 . S
C2799 H2787 0.929 . S
C2799 C2793 1.390 . S
C2799 C2796 1.386 . S
C2800 C2795 1.490 . S
C2800 C2802 1.395 . S
C2800 C2803 1.403 . S
H2801 C2807 0.930 . S
C2802 H2788 0.930 . S
C2802 C2800 1.395 . S
C2802 C2805 1.403 . S
C2803 C2800 1.403 . S
C2803 C2804 1.524 . S
C2803 C2807 1.400 . S
C2804 H2789 0.960 . S
C2804 H2790 0.960 . S
C2804 H2791 0.960 . S
C2804 C2803 1.524 . S
C2805 C2802 1.403 . S
C2805 C2806 1.392 . S
C2805 C2809 1.495 . S
C2806 C2805 1.392 . S
C2806 C2807 1.385 . S
C2806 C2808 1.478 . S
C2807 H2801 0.930 . S
C2807 C2803 1.400 . S
C2807 C2806 1.385 . S
C2808 C2806 1.478 . S
C2808 C2810 1.381 . S
C2808 C2814 1.383 . S
C2809 C2805 1.495 . S
C2809 H2815 0.959 . S
C2809 H2816 0.961 . S
C2809 H2817 0.960 . S
C2810 C2808 1.381 . S
C2810 C2811 1.394 . S
C2810 H2818 0.930 . S
C2811 C2810 1.394 . S
C2811 C2812 1.383 . S
C2811 H2819 0.929 . S
C2812 C2811 1.383 . S
C2812 C2813 1.377 . S
C2813 H2797 0.930 . S
C2813 C2812 1.377 . S
C2813 C2814 1.379 . S
C2814 H2798 0.931 . S
C2814 C2808 1.383 . S
C2814 C2813 1.379 . S
H2815 C2809 0.959 . S
H2816 C2809 0.961 . S
H2817 C2809 0.960 . S
H2818 C2810 0.930 . S
H2819 C2811 0.929 . S
H2820 C2828 0.929 . S
H2821 C2830 0.930 . S
H2822 C2832 0.930 . S
H2823 C2835 0.929 . S
H2824 C2838 0.949 . S
H2825 C2840 0.960 . S
H2826 C2840 0.960 . S
H2827 C2840 0.960 . S
C2828 H2820 0.929 . S
C2828 C2829 1.377 . S
C2828 C2830 1.384 . S
C2829 C2828 1.377 . S
C2829 C2835 1.390 . S
C2830 H2821 0.930 . S
C2830 C2828 1.384 . S
C2830 C2831 1.372 . S
C2831 C2830 1.372 . S
C2831 C2832 1.400 . S
C2831 C2836 1.490 . S
C2832 H2822 0.930 . S
C2832 C2831 1.400 . S
C2832 C2835 1.386 . S
H2833 C2849 0.930 . S
H2834 C2850 0.931 . S
C2835 H2823 0.929 . S
C2835 C2829 1.390 . S
C2835 C2832 1.386 . S
C2836 C2831 1.490 . S
C2836 C2838 1.470 . S
C2836 C2839 1.403 . S
H2837 C2843 0.930 . S
C2838 H2824 0.949 . S
C2838 C2836 1.470 . S
C2838 C2841 1.315 1_545 S
C2839 C2836 1.403 . S
C2839 C2840 1.524 . S
C2839 C2843 1.400 1_545 S
C2840 H2825 0.960 . S
C2840 H2826 0.960 . S
C2840 H2827 0.960 . S
C2840 C2839 1.524 . S
C2841 C2838 1.315 1_565 S
C2841 C2842 1.392 . S
C2841 C2845 1.495 . S
C2842 C2841 1.392 . S
C2842 C2843 1.385 . S
C2842 C2844 1.478 . S
C2843 H2837 0.930 . S
C2843 C2839 1.400 1_565 S
C2843 C2842 1.385 . S
C2844 C2842 1.478 . S
C2844 C2846 1.381 . S
C2844 C2850 1.383 . S
C2845 C2841 1.495 . S
C2845 H2851 0.959 . S
C2845 H2852 0.961 . S
C2845 H2853 0.960 . S
C2846 C2844 1.381 . S
C2846 C2847 1.394 . S
C2846 H2854 0.930 . S
C2847 C2846 1.394 . S
C2847 C2848 1.383 . S
C2847 H2855 0.929 . S
C2848 C2847 1.383 . S
C2848 C2849 1.377 . S
C2849 H2833 0.930 . S
C2849 C2848 1.377 . S
C2849 C2850 1.379 . S
C2850 H2834 0.931 . S
C2850 C2844 1.383 . S
C2850 C2849 1.379 . S
H2851 C2845 0.959 . S
H2852 C2845 0.961 . S
H2853 C2845 0.960 . S
H2854 C2846 0.930 . S
H2855 C2847 0.929 . S
H2856 C2864 0.929 . S
H2857 C2866 0.930 . S
H2858 C2868 0.930 . S
H2859 C2871 0.929 . S
H2860 C2874 0.930 . S
H2861 C2876 0.960 . S
H2862 C2876 0.960 . S
H2863 C2876 0.960 . S
C2864 H2856 0.929 . S
C2864 C2865 1.377 . S
C2864 C2866 1.384 . S
C2865 C2864 1.377 . S
C2865 C2871 1.390 . S
C2866 H2857 0.930 . S
C2866 C2864 1.384 . S
C2866 C2867 1.372 . S
C2867 C2866 1.372 . S
C2867 C2868 1.400 . S
C2867 C2872 1.490 . S
C2868 H2858 0.930 . S
C2868 C2867 1.400 . S
C2868 C2871 1.386 . S
H2869 C2885 0.930 . S
H2870 C2886 0.931 . S
C2871 H2859 0.929 . S
C2871 C2865 1.390 . S
C2871 C2868 1.386 . S
C2872 C2867 1.490 . S
C2872 C2874 1.395 . S
C2872 C2875 1.403 . S
H2873 C2879 0.930 . S
C2874 H2860 0.930 . S
C2874 C2872 1.395 . S
C2874 C2877 1.403 . S
C2875 C2872 1.403 . S
C2875 C2876 1.524 . S
C2875 C2879 1.400 . S
C2876 H2861 0.960 . S
C2876 H2862 0.960 . S
C2876 H2863 0.960 . S
C2876 C2875 1.524 . S
C2877 C2874 1.403 . S
C2877 C2878 1.392 . S
C2877 C2881 1.495 . S
C2878 C2877 1.392 . S
C2878 C2879 1.385 . S
C2878 C2880 1.478 . S
C2879 H2873 0.930 . S
C2879 C2875 1.400 . S
C2879 C2878 1.385 . S
C2880 C2878 1.478 . S
C2880 C2882 1.381 . S
C2880 C2886 1.383 . S
C2881 C2877 1.495 . S
C2881 H2887 0.959 . S
C2881 H2888 0.961 . S
C2881 H2889 0.960 . S
C2882 C2880 1.381 . S
C2882 C2883 1.394 . S
C2882 H2890 0.930 . S
C2883 C2882 1.394 . S
C2883 C2884 1.383 . S
C2883 H2891 0.929 . S
C2884 C2883 1.383 . S
C2884 C2885 1.377 . S
C2885 H2869 0.930 . S
C2885 C2884 1.377 . S
C2885 C2886 1.379 . S
C2886 H2870 0.931 . S
C2886 C2880 1.383 . S
C2886 C2885 1.379 . S
H2887 C2881 0.959 . S
H2888 C2881 0.961 . S
H2889 C2881 0.960 . S
H2890 C2882 0.930 . S
H2891 C2883 0.929 . S
H2892 C2900 0.929 . S
H2893 C2902 0.930 . S
H2894 C2904 0.930 . S
H2895 C2907 0.929 . S
H2896 C2910 0.930 . S
H2897 C2912 0.857 1_545 S
H2898 C2912 0.994 . S
H2899 C2912 1.041 . S
C2900 H2892 0.929 . S
C2900 C2901 1.377 . S
C2900 C2902 1.384 . S
C2901 C2900 1.377 . S
C2901 C2907 1.390 . S
C2902 H2893 0.930 . S
C2902 C2900 1.384 . S
C2902 C2903 1.372 . S
C2903 C2902 1.372 . S
C2903 C2904 1.400 . S
C2903 C2908 1.490 . S
C2904 H2894 0.930 . S
C2904 C2903 1.400 . S
C2904 C2907 1.386 . S
H2905 C2921 0.930 . S
H2906 C2922 0.931 . S
C2907 H2895 0.929 . S
C2907 C2901 1.390 . S
C2907 C2904 1.386 . S
C2908 C2903 1.490 . S
C2908 C2910 1.395 1_554 S
C2908 C2911 1.490 . S
H2909 C2915 0.930 . S
C2910 H2896 0.930 . S
C2910 C2908 1.395 1_556 S
C2910 C2913 1.364 1_565 S
C2911 C2908 1.490 . S
C2911 C2912 1.524 . S
C2911 C2915 1.310 1_565 S
C2912 H2897 0.857 1_565 S
C2912 H2898 0.994 . S
C2912 H2899 1.041 . S
C2912 C2911 1.524 . S
C2913 C2910 1.364 1_545 S
C2913 C2914 1.430 . S
C2913 C2917 1.495 . S
C2914 C2913 1.430 . S
C2914 C2915 1.385 1_556 S
C2914 C2916 1.478 . S
C2915 H2909 0.930 . S
C2915 C2911 1.310 1_545 S
C2915 C2914 1.385 1_554 S
C2916 C2914 1.478 . S
C2916 C2918 1.381 . S
C2916 C2922 1.383 . S
C2917 C2913 1.495 . S
C2917 H2923 0.880 1_545 S
C2917 H2924 0.988 . S
C2917 H2925 1.021 . S
C2918 C2916 1.381 . S
C2918 C2919 1.394 . S
C2918 H2926 0.930 . S
C2919 C2918 1.394 . S
C2919 C2920 1.383 . S
C2919 H2927 0.929 . S
C2920 C2919 1.383 . S
C2920 C2921 1.377 . S
C2921 H2905 0.930 . S
C2921 C2920 1.377 . S
C2921 C2922 1.379 . S
C2922 H2906 0.931 . S
C2922 C2916 1.383 . S
C2922 C2921 1.379 . S
H2923 C2917 0.880 1_565 S
H2924 C2917 0.988 . S
H2925 C2917 1.021 . S
H2926 C2918 0.930 . S
H2927 C2919 0.929 . S
H2928 C2936 0.929 . S
H2929 C2938 0.930 . S
H2930 C2940 0.930 . S
H2931 C2943 0.929 . S
H2932 C2946 0.930 . S
H2933 C2948 0.960 . S
H2934 C2948 0.960 . S
H2935 C2948 0.960 . S
C2936 H2928 0.929 . S
C2936 C2937 1.377 . S
C2936 C2938 1.384 . S
C2937 C2936 1.377 . S
C2937 C2943 1.390 . S
C2938 H2929 0.930 . S
C2938 C2936 1.384 . S
C2938 C2939 1.372 . S
C2939 C2938 1.372 . S
C2939 C2940 1.400 . S
C2939 C2944 1.490 . S
C2940 H2930 0.930 . S
C2940 C2939 1.400 . S
C2940 C2943 1.386 . S
H2941 C2957 0.930 . S
H2942 C2958 0.931 . S
C2943 H2931 0.929 . S
C2943 C2937 1.390 . S
C2943 C2940 1.386 . S
C2944 C2939 1.490 . S
C2944 C2946 1.395 . S
C2944 C2947 1.403 . S
H2945 C2951 0.930 . S
C2946 H2932 0.930 . S
C2946 C2944 1.395 . S
C2946 C2949 1.403 . S
C2947 C2944 1.403 . S
C2947 C2948 1.524 . S
C2947 C2951 1.400 . S
C2948 H2933 0.960 . S
C2948 H2934 0.960 . S
C2948 H2935 0.960 . S
C2948 C2947 1.524 . S
C2949 C2946 1.403 . S
C2949 C2950 1.392 . S
C2949 C2953 1.495 . S
C2950 C2949 1.392 . S
C2950 C2951 1.385 . S
C2950 C2952 1.478 . S
C2951 H2945 0.930 . S
C2951 C2947 1.400 . S
C2951 C2950 1.385 . S
C2952 C2950 1.478 . S
C2952 C2954 1.381 . S
C2952 C2958 1.383 . S
C2953 C2949 1.495 . S
C2953 H2959 0.959 . S
C2953 H2960 0.961 . S
C2953 H2961 0.960 . S
C2954 C2952 1.381 . S
C2954 C2955 1.394 . S
C2954 H2962 0.930 . S
C2955 C2954 1.394 . S
C2955 C2956 1.383 . S
C2955 H2963 0.929 . S
C2956 C2955 1.383 . S
C2956 C2957 1.377 . S
C2957 H2941 0.930 . S
C2957 C2956 1.377 . S
C2957 C2958 1.379 . S
C2958 H2942 0.931 . S
C2958 C2952 1.383 . S
C2958 C2957 1.379 . S
H2959 C2953 0.959 . S
H2960 C2953 0.961 . S
H2961 C2953 0.960 . S
H2962 C2954 0.930 . S
H2963 C2955 0.929 . S
H2964 C2972 0.929 . S
H2965 C2974 0.930 . S
H2966 C2976 0.930 . S
H2967 C2979 0.929 . S
H2968 C2982 0.930 . S
H2969 C2984 0.960 . S
H2970 C2984 0.960 . S
H2971 C2984 0.960 . S
C2972 H2964 0.929 . S
C2972 C2973 1.377 . S
C2972 C2974 1.384 . S
C2973 C2972 1.377 . S
C2973 C2979 1.390 . S
C2974 H2965 0.930 . S
C2974 C2972 1.384 . S
C2974 C2975 1.372 . S
C2975 C2974 1.372 . S
C2975 C2976 1.400 . S
C2975 C2980 1.490 . S
C2976 H2966 0.930 . S
C2976 C2975 1.400 . S
C2976 C2979 1.386 . S
H2977 C2993 0.930 . S
H2978 C2994 0.931 . S
C2979 H2967 0.929 . S
C2979 C2973 1.390 . S
C2979 C2976 1.386 . S
C2980 C2975 1.490 . S
C2980 C2982 1.395 . S
C2980 C2983 1.403 . S
H2981 C2987 0.930 . S
C2982 H2968 0.930 . S
C2982 C2980 1.395 . S
C2982 C2985 1.403 1_545 S
C2983 C2980 1.403 . S
C2983 C2984 1.524 . S
C2983 C2987 1.400 1_545 S
C2984 H2969 0.960 . S
C2984 H2970 0.960 . S
C2984 H2971 0.960 . S
C2984 C2983 1.524 . S
C2985 C2982 1.403 1_565 S
C2985 C2986 1.392 . S
C2985 C2989 1.495 . S
C2986 C2985 1.392 . S
C2986 C2987 1.385 . S
C2986 C2988 1.478 . S
C2987 H2981 0.930 . S
C2987 C2983 1.400 1_565 S
C2987 C2986 1.385 . S
C2988 C2986 1.478 . S
C2988 C2990 1.381 . S
C2988 C2994 1.383 . S
C2989 C2985 1.495 . S
C2989 H2995 0.959 . S
C2989 H2996 0.961 . S
C2989 H2997 0.960 . S
C2990 C2988 1.381 . S
C2990 C2991 1.394 . S
C2990 H2998 0.930 . S
C2991 C2990 1.394 . S
C2991 C2992 1.383 . S
C2991 H2999 0.929 . S
C2992 C2991 1.383 . S
C2992 C2993 1.377 . S
C2993 H2977 0.930 . S
C2993 C2992 1.377 . S
C2993 C2994 1.379 . S
C2994 H2978 0.931 . S
C2994 C2988 1.383 . S
C2994 C2993 1.379 . S
H2995 C2989 0.959 . S
H2996 C2989 0.961 . S
H2997 C2989 0.960 . S
H2998 C2990 0.930 . S
H2999 C2991 0.929 . S
H3000 C3008 0.929 . S
H3001 C3010 0.930 . S
H3002 C3012 0.930 . S
H3003 C3015 0.929 . S
H3004 C3018 0.930 . S
H3005 C3020 0.960 . S
H3006 C3020 0.960 . S
H3007 C3020 0.960 . S
C3008 H3000 0.929 . S
C3008 C3009 1.377 . S
C3008 C3010 1.384 . S
C3009 C3008 1.377 . S
C3009 C3015 1.390 . S
C3010 H3001 0.930 . S
C3010 C3008 1.384 . S
C3010 C3011 1.372 . S
C3011 C3010 1.372 . S
C3011 C3012 1.400 . S
C3011 C3016 1.490 . S
C3012 H3002 0.930 . S
C3012 C3011 1.400 . S
C3012 C3015 1.386 . S
H3013 C3029 0.930 . S
H3014 C3030 0.931 . S
C3015 H3003 0.929 . S
C3015 C3009 1.390 . S
C3015 C3012 1.386 . S
C3016 C3011 1.490 . S
C3016 C3018 1.395 . S
C3016 C3019 1.403 . S
H3017 C3023 0.930 . S
C3018 H3004 0.930 . S
C3018 C3016 1.395 . S
C3018 C3021 1.403 . S
C3019 C3016 1.403 . S
C3019 C3020 1.524 . S
C3019 C3023 1.400 . S
C3020 H3005 0.960 . S
C3020 H3006 0.960 . S
C3020 H3007 0.960 . S
C3020 C3019 1.524 . S
C3021 C3018 1.403 . S
C3021 C3022 1.392 . S
C3021 C3025 1.495 . S
C3022 C3021 1.392 . S
C3022 C3023 1.385 . S
C3022 C3024 1.478 . S
C3023 H3017 0.930 . S
C3023 C3019 1.400 . S
C3023 C3022 1.385 . S
C3024 C3022 1.478 . S
C3024 C3026 1.381 . S
C3024 C3030 1.383 . S
C3025 C3021 1.495 . S
C3025 H3031 0.959 . S
C3025 H3032 0.961 . S
C3025 H3033 0.960 . S
C3026 C3024 1.381 . S
C3026 C3027 1.394 . S
C3026 H3034 0.930 . S
C3027 C3026 1.394 . S
C3027 C3028 1.383 . S
C3027 H3035 0.929 . S
C3028 C3027 1.383 . S
C3028 C3029 1.377 . S
C3029 H3013 0.930 . S
C3029 C3028 1.377 . S
C3029 C3030 1.379 . S
C3030 H3014 0.931 . S
C3030 C3024 1.383 . S
C3030 C3029 1.379 . S
H3031 C3025 0.959 . S
H3032 C3025 0.961 . S
H3033 C3025 0.960 . S
H3034 C3026 0.930 . S
H3035 C3027 0.929 . S
H3036 C3044 0.929 . S
H3037 C3046 0.930 . S
H3038 C3048 0.930 . S
H3039 C3051 0.929 . S
H3040 C3054 0.946 . S
H3041 C3056 0.960 . S
H3042 C3056 0.960 . S
H3043 C3056 0.960 . S
C3044 H3036 0.929 . S
C3044 C3045 1.377 . S
C3044 C3046 1.384 . S
C3045 C3044 1.377 . S
C3045 C3051 1.390 . S
C3046 H3037 0.930 . S
C3046 C3044 1.384 . S
C3046 C3047 1.372 . S
C3047 C3046 1.372 . S
C3047 C3048 1.400 . S
C3047 C3052 1.490 . S
C3048 H3038 0.930 . S
C3048 C3047 1.400 . S
C3048 C3051 1.386 . S
H3049 C3065 0.930 . S
H3050 C3066 0.931 . S
C3051 H3039 0.929 . S
C3051 C3045 1.390 . S
C3051 C3048 1.386 . S
C3052 C3047 1.490 . S
C3052 C3054 1.463 . S
C3052 C3055 1.403 1_556 S
H3053 C3059 0.930 . S
C3054 H3040 0.946 . S
C3054 C3052 1.463 . S
C3054 C3057 1.324 1_545 S
C3055 C3052 1.403 1_554 S
C3055 C3056 1.524 . S
C3055 C3059 1.400 1_545 S
C3056 H3041 0.960 . S
C3056 H3042 0.960 . S
C3056 H3043 0.960 . S
C3056 C3055 1.524 . S
C3057 C3054 1.324 1_565 S
C3057 C3058 1.392 1_556 S
C3057 C3061 1.495 . S
C3058 C3057 1.392 1_554 S
C3058 C3059 1.385 . S
C3058 C3060 1.478 . S
C3059 H3053 0.930 . S
C3059 C3055 1.400 1_565 S
C3059 C3058 1.385 . S
C3060 C3058 1.478 . S
C3060 C3062 1.381 . S
C3060 C3066 1.383 . S
C3061 C3057 1.495 . S
C3061 H3067 0.959 . S
C3061 H3068 0.961 . S
C3061 H3069 0.960 . S
C3062 C3060 1.381 . S
C3062 C3063 1.394 . S
C3062 H3070 0.930 . S
C3063 C3062 1.394 . S
C3063 C3064 1.383 . S
C3063 H3071 0.929 . S
C3064 C3063 1.383 . S
C3064 C3065 1.377 . S
C3065 H3049 0.930 . S
C3065 C3064 1.377 . S
C3065 C3066 1.379 . S
C3066 H3050 0.931 . S
C3066 C3060 1.383 . S
C3066 C3065 1.379 . S
H3067 C3061 0.959 . S
H3068 C3061 0.961 . S
H3069 C3061 0.960 . S
H3070 C3062 0.930 . S
H3071 C3063 0.929 . S
H3072 C3080 0.929 . S
H3073 C3082 0.930 . S
H3074 C3084 0.930 . S
H3075 C3087 0.929 . S
H3076 C3090 0.930 . S
H3077 C3092 0.960 . S
H3078 C3092 0.960 . S
H3079 C3092 0.960 . S
C3080 H3072 0.929 . S
C3080 C3081 1.377 . S
C3080 C3082 1.384 . S
C3081 C3080 1.377 . S
C3081 C3087 1.390 . S
C3082 H3073 0.930 . S
C3082 C3080 1.384 . S
C3082 C3083 1.372 . S
C3083 C3082 1.372 . S
C3083 C3084 1.400 . S
C3083 C3088 1.490 . S
C3084 H3074 0.930 . S
C3084 C3083 1.400 . S
C3084 C3087 1.386 . S
H3085 C3101 0.930 . S
H3086 C3102 0.931 . S
C3087 H3075 0.929 . S
C3087 C3081 1.390 . S
C3087 C3084 1.386 . S
C3088 C3083 1.490 . S
C3088 C3090 1.395 . S
C3088 C3091 1.403 . S
H3089 C3095 0.930 . S
C3090 H3076 0.930 . S
C3090 C3088 1.395 . S
C3090 C3093 1.403 . S
C3091 C3088 1.403 . S
C3091 C3092 1.524 . S
C3091 C3095 1.400 . S
C3092 H3077 0.960 . S
C3092 H3078 0.960 . S
C3092 H3079 0.960 . S
C3092 C3091 1.524 . S
C3093 C3090 1.403 . S
C3093 C3094 1.392 . S
C3093 C3097 1.495 . S
C3094 C3093 1.392 . S
C3094 C3095 1.385 . S
C3094 C3096 1.478 . S
C3095 H3089 0.930 . S
C3095 C3091 1.400 . S
C3095 C3094 1.385 . S
C3096 C3094 1.478 . S
C3096 C3098 1.381 . S
C3096 C3102 1.383 . S
C3097 C3093 1.495 . S
C3097 H3103 0.959 . S
C3097 H3104 0.961 . S
C3097 H3105 0.960 . S
C3098 C3096 1.381 . S
C3098 C3099 1.394 . S
C3098 H3106 0.930 . S
C3099 C3098 1.394 . S
C3099 C3100 1.383 . S
C3099 H3107 0.929 . S
C3100 C3099 1.383 . S
C3100 C3101 1.377 . S
C3101 H3085 0.930 . S
C3101 C3100 1.377 . S
C3101 C3102 1.379 . S
C3102 H3086 0.931 . S
C3102 C3096 1.383 . S
C3102 C3101 1.379 . S
H3103 C3097 0.959 . S
H3104 C3097 0.961 . S
H3105 C3097 0.960 . S
H3106 C3098 0.930 . S
H3107 C3099 0.929 . S
H3108 C3116 0.929 . S
H3109 C3118 0.930 . S
H3110 C3120 0.930 . S
H3111 C3123 0.929 . S
H3112 C3126 0.930 . S
H3113 C3128 0.960 . S
H3114 C3128 0.960 . S
H3115 C3128 0.960 1_556 S
C3116 H3108 0.929 . S
C3116 C3117 1.377 . S
C3116 C3118 1.384 . S
C3117 C3116 1.377 . S
C3117 C3123 1.390 . S
C3118 H3109 0.930 . S
C3118 C3116 1.384 . S
C3118 C3119 1.372 . S
C3119 C3118 1.372 . S
C3119 C3120 1.400 . S
C3119 C3124 1.490 . S
C3120 H3110 0.930 . S
C3120 C3119 1.400 . S
C3120 C3123 1.386 . S
H3121 C3137 0.930 . S
H3122 C3138 0.930 1_556 S
C3123 H3111 0.929 . S
C3123 C3117 1.390 . S
C3123 C3120 1.386 . S
C3124 C3119 1.490 . S
C3124 C3126 1.395 . S
C3124 C3127 1.403 1_556 S
H3125 C3131 0.930 . S
C3126 H3112 0.930 . S
C3126 C3124 1.395 . S
C3126 C3129 1.403 . S
C3127 C3124 1.403 1_554 S
C3127 C3128 1.524 . S
C3127 C3131 1.400 . S
C3128 H3113 0.960 . S
C3128 H3114 0.960 . S
C3128 H3115 0.960 1_554 S
C3128 C3127 1.524 . S
C3129 C3126 1.403 . S
C3129 C3130 1.392 1_556 S
C3129 C3133 1.495 . S
C3130 C3129 1.392 1_554 S
C3130 C3131 1.385 . S
C3130 C3132 1.478 . S
C3131 H3125 0.930 . S
C3131 C3127 1.400 . S
C3131 C3130 1.385 . S
C3132 C3130 1.478 . S
C3132 C3134 1.381 . S
C3132 C3138 1.383 . S
C3133 C3129 1.495 . S
C3133 H3139 0.959 . S
C3133 H3140 0.961 . S
C3133 H3141 0.960 1_556 S
C3134 C3132 1.381 . S
C3134 C3135 1.394 . S
C3134 H3142 0.930 . S
C3135 C3134 1.394 . S
C3135 C3136 1.383 . S
C3135 H3143 0.929 . S
C3136 C3135 1.383 . S
C3136 C3137 1.377 . S
C3137 H3121 0.930 . S
C3137 C3136 1.377 . S
C3137 C3138 1.379 . S
C3138 H3122 0.930 1_554 S
C3138 C3132 1.383 . S
C3138 C3137 1.379 . S
H3139 C3133 0.959 . S
H3140 C3133 0.961 . S
H3141 C3133 0.960 1_554 S
H3142 C3134 0.930 . S
H3143 C3135 0.929 . S
H3144 C3152 0.929 . S
H3145 C3154 0.930 . S
H3146 C3156 0.930 . S
H3147 C3159 0.929 . S
H3148 C3162 0.930 . S
H3149 C3164 0.960 . S
H3150 C3164 0.960 . S
H3151 C3164 0.960 . S
C3152 H3144 0.929 . S
C3152 C3153 1.377 . S
C3152 C3154 1.384 . S
C3153 C3152 1.377 . S
C3153 C3159 1.390 . S
C3154 H3145 0.930 . S
C3154 C3152 1.384 . S
C3154 C3155 1.372 . S
C3155 C3154 1.372 . S
C3155 C3156 1.400 . S
C3155 C3160 1.490 . S
C3156 H3146 0.930 . S
C3156 C3155 1.400 . S
C3156 C3159 1.386 . S
H3157 C3173 0.930 . S
H3158 C3174 0.931 . S
C3159 H3147 0.929 . S
C3159 C3153 1.390 . S
C3159 C3156 1.386 . S
C3160 C3155 1.490 . S
C3160 C3162 1.395 . S
C3160 C3163 1.403 . S
H3161 C3167 0.930 . S
C3162 H3148 0.930 . S
C3162 C3160 1.395 . S
C3162 C3165 1.403 . S
C3163 C3160 1.403 . S
C3163 C3164 1.524 . S
C3163 C3167 1.400 . S
C3164 H3149 0.960 . S
C3164 H3150 0.960 . S
C3164 H3151 0.960 . S
C3164 C3163 1.524 . S
C3165 C3162 1.403 . S
C3165 C3166 1.392 . S
C3165 C3169 1.495 . S
C3166 C3165 1.392 . S
C3166 C3167 1.385 . S
C3166 C3168 1.478 . S
C3167 H3161 0.930 . S
C3167 C3163 1.400 . S
C3167 C3166 1.385 . S
C3168 C3166 1.478 . S
C3168 C3170 1.381 . S
C3168 C3174 1.383 . S
C3169 C3165 1.495 . S
C3169 H3175 0.959 . S
C3169 H3176 0.961 . S
C3169 H3177 0.960 . S
C3170 C3168 1.381 . S
C3170 C3171 1.394 . S
C3170 H3178 0.930 . S
C3171 C3170 1.394 . S
C3171 C3172 1.383 . S
C3171 H3179 0.929 . S
C3172 C3171 1.383 . S
C3172 C3173 1.377 . S
C3173 H3157 0.930 . S
C3173 C3172 1.377 . S
C3173 C3174 1.379 . S
C3174 H3158 0.931 . S
C3174 C3168 1.383 . S
C3174 C3173 1.379 . S
H3175 C3169 0.959 . S
H3176 C3169 0.961 . S
H3177 C3169 0.960 . S
H3178 C3170 0.930 . S
H3179 C3171 0.929 . S
H3180 C3188 0.929 . S
H3181 C3190 0.930 . S
H3182 C3192 0.930 . S
H3183 C3195 0.929 . S
H3184 C3198 0.930 . S
H3185 C3200 0.960 . S
H3186 C3200 0.960 . S
H3187 C3200 0.960 . S
C3188 H3180 0.929 . S
C3188 C3189 1.377 . S
C3188 C3190 1.384 . S
C3189 C3188 1.377 . S
C3189 C3195 1.390 . S
C3190 H3181 0.930 . S
C3190 C3188 1.384 . S
C3190 C3191 1.372 . S
C3191 C3190 1.372 . S
C3191 C3192 1.400 . S
C3191 C3196 1.490 . S
C3192 H3182 0.930 . S
C3192 C3191 1.400 . S
C3192 C3195 1.386 . S
H3193 C3209 0.930 . S
H3194 C3210 0.931 . S
C3195 H3183 0.929 . S
C3195 C3189 1.390 . S
C3195 C3192 1.386 . S
C3196 C3191 1.490 . S
C3196 C3198 1.395 . S
C3196 C3199 1.403 . S
H3197 C3203 0.930 . S
C3198 H3184 0.930 . S
C3198 C3196 1.395 . S
C3198 C3201 1.403 . S
C3199 C3196 1.403 . S
C3199 C3200 1.524 . S
C3199 C3203 1.400 . S
C3200 H3185 0.960 . S
C3200 H3186 0.960 . S
C3200 H3187 0.960 . S
C3200 C3199 1.524 . S
C3201 C3198 1.403 . S
C3201 C3202 1.392 . S
C3201 C3205 1.495 . S
C3202 C3201 1.392 . S
C3202 C3203 1.385 . S
C3202 C3204 1.478 . S
C3203 H3197 0.930 . S
C3203 C3199 1.400 . S
C3203 C3202 1.385 . S
C3204 C3202 1.478 . S
C3204 C3206 1.381 . S
C3204 C3210 1.383 . S
C3205 C3201 1.495 . S
C3205 H3211 0.959 . S
C3205 H3212 0.961 . S
C3205 H3213 0.960 . S
C3206 C3204 1.381 . S
C3206 C3207 1.394 . S
C3206 H3214 0.930 . S
C3207 C3206 1.394 . S
C3207 C3208 1.383 . S
C3207 H3215 0.929 . S
C3208 C3207 1.383 . S
C3208 C3209 1.377 . S
C3209 H3193 0.930 . S
C3209 C3208 1.377 . S
C3209 C3210 1.379 . S
C3210 H3194 0.931 . S
C3210 C3204 1.383 . S
C3210 C3209 1.379 . S
H3211 C3205 0.959 . S
H3212 C3205 0.961 . S
H3213 C3205 0.960 . S
H3214 C3206 0.930 . S
H3215 C3207 0.929 . S
H3216 C3224 0.929 . S
H3217 C3226 0.930 . S
H3218 C3228 0.930 . S
H3219 C3231 0.929 . S
H3220 C3234 0.930 . S
H3221 C3236 0.960 . S
H3222 C3236 0.960 . S
H3223 C3236 0.960 . S
C3224 H3216 0.929 . S
C3224 C3225 1.377 . S
C3224 C3226 1.384 . S
C3225 C3224 1.377 . S
C3225 C3231 1.390 . S
C3226 H3217 0.930 . S
C3226 C3224 1.384 . S
C3226 C3227 1.372 . S
C3227 C3226 1.372 . S
C3227 C3228 1.400 . S
C3227 C3232 1.490 . S
C3228 H3218 0.930 . S
C3228 C3227 1.400 . S
C3228 C3231 1.386 . S
H3229 C3245 0.930 . S
H3230 C3246 0.931 . S
C3231 H3219 0.929 . S
C3231 C3225 1.390 . S
C3231 C3228 1.386 . S
C3232 C3227 1.490 . S
C3232 C3234 1.395 . S
C3232 C3235 1.403 . S
H3233 C3239 0.930 . S
C3234 H3220 0.930 . S
C3234 C3232 1.395 . S
C3234 C3237 1.403 . S
C3235 C3232 1.403 . S
C3235 C3236 1.524 . S
C3235 C3239 1.400 . S
C3236 H3221 0.960 . S
C3236 H3222 0.960 . S
C3236 H3223 0.960 . S
C3236 C3235 1.524 . S
C3237 C3234 1.403 . S
C3237 C3238 1.392 . S
C3237 C3241 1.495 . S
C3238 C3237 1.392 . S
C3238 C3239 1.385 . S
C3238 C3240 1.478 . S
C3239 H3233 0.930 . S
C3239 C3235 1.400 . S
C3239 C3238 1.385 . S
C3240 C3238 1.478 . S
C3240 C3242 1.381 . S
C3240 C3246 1.383 . S
C3241 C3237 1.495 . S
C3241 H3247 0.959 . S
C3241 H3248 0.961 . S
C3241 H3249 0.960 . S
C3242 C3240 1.381 . S
C3242 C3243 1.394 . S
C3242 H3250 0.930 . S
C3243 C3242 1.394 . S
C3243 C3244 1.383 . S
C3243 H3251 0.929 . S
C3244 C3243 1.383 . S
C3244 C3245 1.377 . S
C3245 H3229 0.930 . S
C3245 C3244 1.377 . S
C3245 C3246 1.379 . S
C3246 H3230 0.931 . S
C3246 C3240 1.383 . S
C3246 C3245 1.379 . S
H3247 C3241 0.959 . S
H3248 C3241 0.961 . S
H3249 C3241 0.960 . S
H3250 C3242 0.930 . S
H3251 C3243 0.929 . S
H3252 C3260 0.929 . S
H3253 C3262 0.930 1_554 S
H3254 C3264 0.930 . S
H3255 C3267 0.929 . S
H3256 C3270 0.930 . S
H3257 C3272 0.960 1_554 S
H3258 C3272 0.960 1_554 S
H3259 C3272 0.960 . S
C3260 H3252 0.929 . S
C3260 C3261 1.377 . S
C3260 C3262 1.384 . S
C3261 C3260 1.377 . S
C3261 C3267 1.390 . S
C3262 H3253 0.930 1_556 S
C3262 C3260 1.384 . S
C3262 C3263 1.372 . S
C3263 C3262 1.372 . S
C3263 C3264 1.400 . S
C3263 C3268 1.490 . S
C3264 H3254 0.930 . S
C3264 C3263 1.400 . S
C3264 C3267 1.386 . S
H3265 C3281 0.930 . S
H3266 C3282 0.931 1_556 S
C3267 H3255 0.929 . S
C3267 C3261 1.390 . S
C3267 C3264 1.386 . S
C3268 C3263 1.490 . S
C3268 C3270 1.395 . S
C3268 C3271 1.403 . S
H3269 C3275 0.930 . S
C3270 H3256 0.930 . S
C3270 C3268 1.395 . S
C3270 C3273 1.403 1_556 S
C3271 C3268 1.403 . S
C3271 C3272 1.524 . S
C3271 C3275 1.400 1_556 S
C3272 H3257 0.960 1_556 S
C3272 H3258 0.960 1_556 S
C3272 H3259 0.960 . S
C3272 C3271 1.524 . S
C3273 C3270 1.403 1_554 S
C3273 C3274 1.392 . S
C3273 C3277 1.495 . S
C3274 C3273 1.392 . S
C3274 C3275 1.385 . S
C3274 C3276 1.478 . S
C3275 H3269 0.930 . S
C3275 C3271 1.400 1_554 S
C3275 C3274 1.385 . S
C3276 C3274 1.478 . S
C3276 C3278 1.381 . S
C3276 C3282 1.383 . S
C3277 C3273 1.495 . S
C3277 H3283 0.959 1_554 S
C3277 H3284 0.961 1_554 S
C3277 H3285 0.960 . S
C3278 C3276 1.381 . S
C3278 C3279 1.394 . S
C3278 H3286 0.930 . S
C3279 C3278 1.394 . S
C3279 C3280 1.383 . S
C3279 H3287 0.929 . S
C3280 C3279 1.383 . S
C3280 C3281 1.377 . S
C3281 H3265 0.930 . S
C3281 C3280 1.377 . S
C3281 C3282 1.379 . S
C3282 H3266 0.931 1_554 S
C3282 C3276 1.383 . S
C3282 C3281 1.379 . S
H3283 C3277 0.959 1_556 S
H3284 C3277 0.961 1_556 S
H3285 C3277 0.960 . S
H3286 C3278 0.930 . S
H3287 C3279 0.929 . S
H3288 C3296 0.929 . S
H3289 C3298 0.930 . S
H3290 C3300 0.930 . S
H3291 C3303 0.929 . S
H3292 C3306 0.930 . S
H3293 C3308 0.960 . S
H3294 C3308 0.960 . S
H3295 C3308 0.960 . S
C3296 H3288 0.929 . S
C3296 C3297 1.377 . S
C3296 C3298 1.384 . S
C3297 C3296 1.377 . S
C3297 C3303 1.390 . S
C3298 H3289 0.930 . S
C3298 C3296 1.384 . S
C3298 C3299 1.372 . S
C3299 C3298 1.372 . S
C3299 C3300 1.400 . S
C3299 C3304 1.490 . S
C3300 H3290 0.930 . S
C3300 C3299 1.400 . S
C3300 C3303 1.386 . S
H3301 C3317 0.930 . S
H3302 C3318 0.931 . S
C3303 H3291 0.929 . S
C3303 C3297 1.390 . S
C3303 C3300 1.386 . S
C3304 C3299 1.490 . S
C3304 C3306 1.395 . S
C3304 C3307 1.403 . S
H3305 C3311 0.930 . S
C3306 H3292 0.930 . S
C3306 C3304 1.395 . S
C3306 C3309 1.403 . S
C3307 C3304 1.403 . S
C3307 C3308 1.524 . S
C3307 C3311 1.400 . S
C3308 H3293 0.960 . S
C3308 H3294 0.960 . S
C3308 H3295 0.960 . S
C3308 C3307 1.524 . S
C3309 C3306 1.403 . S
C3309 C3310 1.392 . S
C3309 C3313 1.495 . S
C3310 C3309 1.392 . S
C3310 C3311 1.385 . S
C3310 C3312 1.478 . S
C3311 H3305 0.930 . S
C3311 C3307 1.400 . S
C3311 C3310 1.385 . S
C3312 C3310 1.478 . S
C3312 C3314 1.381 . S
C3312 C3318 1.383 . S
C3313 C3309 1.495 . S
C3313 H3319 0.959 . S
C3313 H3320 0.961 . S
C3313 H3321 0.960 . S
C3314 C3312 1.381 . S
C3314 C3315 1.394 . S
C3314 H3322 0.930 . S
C3315 C3314 1.394 . S
C3315 C3316 1.383 . S
C3315 H3323 0.929 . S
C3316 C3315 1.383 . S
C3316 C3317 1.377 . S
C3317 H3301 0.930 . S
C3317 C3316 1.377 . S
C3317 C3318 1.379 . S
C3318 H3302 0.931 . S
C3318 C3312 1.383 . S
C3318 C3317 1.379 . S
H3319 C3313 0.959 . S
H3320 C3313 0.961 . S
H3321 C3313 0.960 . S
H3322 C3314 0.930 . S
H3323 C3315 0.929 . S
H3324 C3332 0.929 . S
H3325 C3334 0.930 . S
H3326 C3336 0.930 . S
H3327 C3339 0.929 . S
H3328 C3342 0.930 . S
H3329 C3344 0.960 . S
H3330 C3344 0.960 . S
H3331 C3344 0.960 . S
C3332 H3324 0.929 . S
C3332 C3333 1.377 . S
C3332 C3334 1.384 . S
C3333 C3332 1.377 . S
C3333 C3339 1.390 . S
C3334 H3325 0.930 . S
C3334 C3332 1.384 . S
C3334 C3335 1.372 . S
C3335 C3334 1.372 . S
C3335 C3336 1.400 . S
C3335 C3340 1.490 . S
C3336 H3326 0.930 . S
C3336 C3335 1.400 . S
C3336 C3339 1.386 . S
H3337 C3353 0.930 . S
H3338 C3354 0.931 . S
C3339 H3327 0.929 . S
C3339 C3333 1.390 . S
C3339 C3336 1.386 . S
C3340 C3335 1.490 . S
C3340 C3342 1.395 . S
C3340 C3343 1.403 . S
H3341 C3347 0.930 . S
C3342 H3328 0.930 . S
C3342 C3340 1.395 . S
C3342 C3345 1.403 . S
C3343 C3340 1.403 . S
C3343 C3344 1.524 . S
C3343 C3347 1.400 . S
C3344 H3329 0.960 . S
C3344 H3330 0.960 . S
C3344 H3331 0.960 . S
C3344 C3343 1.524 . S
C3345 C3342 1.403 . S
C3345 C3346 1.392 . S
C3345 C3349 1.495 . S
C3346 C3345 1.392 . S
C3346 C3347 1.385 . S
C3346 C3348 1.478 . S
C3347 H3341 0.930 . S
C3347 C3343 1.400 . S
C3347 C3346 1.385 . S
C3348 C3346 1.478 . S
C3348 C3350 1.381 . S
C3348 C3354 1.383 . S
C3349 C3345 1.495 . S
C3349 H3355 0.959 . S
C3349 H3356 0.961 . S
C3349 H3357 0.960 . S
C3350 C3348 1.381 . S
C3350 C3351 1.394 . S
C3350 H3358 0.930 . S
C3351 C3350 1.394 . S
C3351 C3352 1.383 . S
C3351 H3359 0.929 . S
C3352 C3351 1.383 . S
C3352 C3353 1.377 . S
C3353 H3337 0.930 . S
C3353 C3352 1.377 . S
C3353 C3354 1.379 . S
C3354 H3338 0.931 . S
C3354 C3348 1.383 . S
C3354 C3353 1.379 . S
H3355 C3349 0.959 . S
H3356 C3349 0.961 . S
H3357 C3349 0.960 . S
H3358 C3350 0.930 . S
H3359 C3351 0.929 . S
H3360 C3368 0.929 . S
H3361 C3370 0.930 . S
H3362 C3372 0.930 . S
H3363 C3375 0.929 . S
H3364 C3378 0.930 . S
H3365 C3380 0.960 . S
H3366 C3380 0.960 . S
H3367 C3380 0.960 . S
C3368 H3360 0.929 . S
C3368 C3369 1.377 1_556 S
C3368 C3370 1.384 . S
C3369 C3368 1.377 1_554 S
C3369 C3375 1.390 . S
C3370 H3361 0.930 . S
C3370 C3368 1.384 . S
C3370 C3371 1.372 . S
C3371 C3370 1.372 . S
C3371 C3372 1.400 . S
C3371 C3376 1.490 . S
C3372 H3362 0.930 . S
C3372 C3371 1.400 . S
C3372 C3375 1.386 1_556 S
H3373 C3389 0.930 . S
H3374 C3390 0.931 . S
C3375 H3363 0.929 . S
C3375 C3369 1.390 . S
C3375 C3372 1.386 1_554 S
C3376 C3371 1.490 . S
C3376 C3378 1.395 . S
C3376 C3379 1.403 . S
H3377 C3383 0.930 . S
C3378 H3364 0.930 . S
C3378 C3376 1.395 . S
C3378 C3381 1.403 . S
C3379 C3376 1.403 . S
C3379 C3380 1.524 1_556 S
C3379 C3383 1.400 . S
C3380 H3365 0.960 . S
C3380 H3366 0.960 . S
C3380 H3367 0.960 . S
C3380 C3379 1.524 1_554 S
C3381 C3378 1.403 . S
C3381 C3382 1.392 . S
C3381 C3385 1.495 . S
C3382 C3381 1.392 . S
C3382 C3383 1.385 . S
C3382 C3384 1.478 . S
C3383 H3377 0.930 . S
C3383 C3379 1.400 . S
C3383 C3382 1.385 . S
C3384 C3382 1.478 . S
C3384 C3386 1.381 . S
C3384 C3390 1.383 . S
C3385 C3381 1.495 . S
C3385 H3391 0.959 . S
C3385 H3392 0.961 . S
C3385 H3393 0.960 . S
C3386 C3384 1.381 . S
C3386 C3387 1.394 . S
C3386 H3394 0.930 . S
C3387 C3386 1.394 . S
C3387 C3388 1.383 . S
C3387 H3395 0.929 . S
C3388 C3387 1.383 . S
C3388 C3389 1.377 . S
C3389 H3373 0.930 . S
C3389 C3388 1.377 . S
C3389 C3390 1.379 . S
C3390 H3374 0.931 . S
C3390 C3384 1.383 . S
C3390 C3389 1.379 . S
H3391 C3385 0.959 . S
H3392 C3385 0.961 . S
H3393 C3385 0.960 . S
H3394 C3386 0.930 . S
H3395 C3387 0.929 . S
H3396 C3404 0.929 . S
H3397 C3406 0.930 . S
H3398 C3408 0.934 . S
H3399 C3411 0.929 . S
H3400 C3414 0.930 . S
H3401 C3416 0.960 1_556 S
H3402 C3416 0.958 1_556 S
H3403 C3416 0.960 1_556 S
C3404 H3396 0.929 . S
C3404 C3405 1.377 1_554 S
C3404 C3406 1.384 . S
C3405 C3404 1.377 1_556 S
C3405 C3411 1.390 . S
C3406 H3397 0.930 . S
C3406 C3404 1.384 . S
C3406 C3407 1.372 . S
C3407 C3406 1.372 . S
C3407 C3408 1.388 1_554 S
C3407 C3412 1.490 . S
C3408 H3398 0.934 . S
C3408 C3407 1.388 1_556 S
C3408 C3411 1.394 . S
H3409 C3425 0.930 . S
H3410 C3426 0.931 . S
C3411 H3399 0.929 . S
C3411 C3405 1.390 . S
C3411 C3408 1.394 . S
C3412 C3407 1.490 . S
C3412 C3414 1.395 . S
C3412 C3415 1.403 . S
H3413 C3419 0.930 . S
C3414 H3400 0.930 . S
C3414 C3412 1.395 . S
C3414 C3417 1.403 . S
C3415 C3412 1.403 . S
C3415 C3416 1.524 . S
C3415 C3419 1.400 . S
C3416 H3401 0.960 1_554 S
C3416 H3402 0.958 1_554 S
C3416 H3403 0.960 1_554 S
C3416 C3415 1.524 . S
C3417 C3414 1.403 . S
C3417 C3418 1.392 . S
C3417 C3421 1.495 . S
C3418 C3417 1.392 . S
C3418 C3419 1.385 . S
C3418 C3420 1.478 . S
C3419 H3413 0.930 . S
C3419 C3415 1.400 . S
C3419 C3418 1.385 . S
C3420 C3418 1.478 . S
C3420 C3422 1.381 . S
C3420 C3426 1.383 . S
C3421 C3417 1.495 . S
C3421 H3427 0.959 . S
C3421 H3428 0.961 . S
C3421 H3429 0.960 . S
C3422 C3420 1.381 . S
C3422 C3423 1.394 . S
C3422 H3430 0.930 . S
C3423 C3422 1.394 . S
C3423 C3424 1.383 . S
C3423 H3431 0.929 . S
C3424 C3423 1.383 . S
C3424 C3425 1.377 . S
C3425 H3409 0.930 . S
C3425 C3424 1.377 . S
C3425 C3426 1.379 . S
C3426 H3410 0.931 . S
C3426 C3420 1.383 . S
C3426 C3425 1.379 . S
H3427 C3421 0.959 . S
H3428 C3421 0.961 . S
H3429 C3421 0.960 . S
H3430 C3422 0.930 . S
H3431 C3423 0.929 . S
H3432 C3440 0.929 . S
H3433 C3442 0.930 . S
H3434 C3444 0.930 . S
H3435 C3447 0.929 . S
H3436 C3450 0.930 . S
H3437 C3452 0.960 . S
H3438 C3452 0.960 . S
H3439 C3452 0.960 . S
C3440 H3432 0.929 . S
C3440 C3441 1.377 . S
C3440 C3442 1.384 . S
C3441 C3440 1.377 . S
C3441 C3447 1.390 . S
C3442 H3433 0.930 . S
C3442 C3440 1.384 . S
C3442 C3443 1.372 . S
C3443 C3442 1.372 . S
C3443 C3444 1.400 . S
C3443 C3448 1.490 . S
C3444 H3434 0.930 . S
C3444 C3443 1.400 . S
C3444 C3447 1.386 . S
H3445 C3461 0.930 . S
H3446 C3462 0.931 . S
C3447 H3435 0.929 . S
C3447 C3441 1.390 . S
C3447 C3444 1.386 . S
C3448 C3443 1.490 . S
C3448 C3450 1.395 . S
C3448 C3451 1.403 . S
H3449 C3455 0.930 . S
C3450 H3436 0.930 . S
C3450 C3448 1.395 . S
C3450 C3453 1.403 . S
C3451 C3448 1.403 . S
C3451 C3452 1.524 . S
C3451 C3455 1.400 . S
C3452 H3437 0.960 . S
C3452 H3438 0.960 . S
C3452 H3439 0.960 . S
C3452 C3451 1.524 . S
C3453 C3450 1.403 . S
C3453 C3454 1.392 . S
C3453 C3457 1.495 . S
C3454 C3453 1.392 . S
C3454 C3455 1.385 . S
C3454 C3456 1.478 . S
C3455 H3449 0.930 . S
C3455 C3451 1.400 . S
C3455 C3454 1.385 . S
C3456 C3454 1.478 . S
C3456 C3458 1.381 . S
C3456 C3462 1.383 . S
C3457 C3453 1.495 . S
C3457 H3463 0.959 . S
C3457 H3464 0.961 . S
C3457 H3465 0.960 . S
C3458 C3456 1.381 . S
C3458 C3459 1.394 . S
C3458 H3466 0.930 . S
C3459 C3458 1.394 . S
C3459 C3460 1.383 . S
C3459 H3467 0.929 . S
C3460 C3459 1.383 . S
C3460 C3461 1.377 . S
C3461 H3445 0.930 . S
C3461 C3460 1.377 . S
C3461 C3462 1.379 . S
C3462 H3446 0.931 . S
C3462 C3456 1.383 . S
C3462 C3461 1.379 . S
H3463 C3457 0.959 . S
H3464 C3457 0.961 . S
H3465 C3457 0.960 . S
H3466 C3458 0.930 . S
H3467 C3459 0.929 . S
H3468 C3476 0.929 . S
H3469 C3478 0.930 . S
H3470 C3480 0.930 . S
H3471 C3483 0.929 . S
H3472 C3486 0.930 . S
H3473 C3488 0.960 . S
H3474 C3488 0.960 . S
H3475 C3488 0.960 . S
C3476 H3468 0.929 . S
C3476 C3477 1.377 . S
C3476 C3478 1.384 . S
C3477 C3476 1.377 . S
C3477 C3483 1.390 . S
C3478 H3469 0.930 . S
C3478 C3476 1.384 . S
C3478 C3479 1.372 . S
C3479 C3478 1.372 . S
C3479 C3480 1.400 . S
C3479 C3484 1.490 . S
C3480 H3470 0.930 . S
C3480 C3479 1.400 . S
C3480 C3483 1.386 . S
H3481 C3497 0.930 . S
H3482 C3498 0.931 . S
C3483 H3471 0.929 . S
C3483 C3477 1.390 . S
C3483 C3480 1.386 . S
C3484 C3479 1.490 . S
C3484 C3486 1.395 . S
C3484 C3487 1.403 . S
H3485 C3491 0.930 . S
C3486 H3472 0.930 . S
C3486 C3484 1.395 . S
C3486 C3489 1.403 . S
C3487 C3484 1.403 . S
C3487 C3488 1.524 . S
C3487 C3491 1.400 . S
C3488 H3473 0.960 . S
C3488 H3474 0.960 . S
C3488 H3475 0.960 . S
C3488 C3487 1.524 . S
C3489 C3486 1.403 . S
C3489 C3490 1.392 . S
C3489 C3493 1.495 . S
C3490 C3489 1.392 . S
C3490 C3491 1.385 . S
C3490 C3492 1.478 . S
C3491 H3485 0.930 . S
C3491 C3487 1.400 . S
C3491 C3490 1.385 . S
C3492 C3490 1.478 . S
C3492 C3494 1.381 . S
C3492 C3498 1.383 . S
C3493 C3489 1.495 . S
C3493 H3499 0.959 . S
C3493 H3500 0.961 . S
C3493 H3501 0.960 . S
C3494 C3492 1.381 . S
C3494 C3495 1.394 . S
C3494 H3502 0.930 . S
C3495 C3494 1.394 . S
C3495 C3496 1.383 . S
C3495 H3503 0.929 . S
C3496 C3495 1.383 . S
C3496 C3497 1.377 . S
C3497 H3481 0.930 . S
C3497 C3496 1.377 . S
C3497 C3498 1.379 . S
C3498 H3482 0.931 . S
C3498 C3492 1.383 . S
C3498 C3497 1.379 . S
H3499 C3493 0.959 . S
H3500 C3493 0.961 . S
H3501 C3493 0.960 . S
H3502 C3494 0.930 . S
H3503 C3495 0.929 . S
H3504 C3512 0.929 . S
H3505 C3514 0.930 . S
H3506 C3516 0.930 . S
H3507 C3519 0.929 . S
H3508 C3522 0.930 . S
H3509 C3524 0.960 . S
H3510 C3524 0.960 . S
H3511 C3524 0.960 . S
C3512 H3504 0.929 . S
C3512 C3513 1.377 . S
C3512 C3514 1.384 . S
C3513 C3512 1.377 . S
C3513 C3519 1.390 1_556 S
C3514 H3505 0.930 . S
C3514 C3512 1.384 . S
C3514 C3515 1.372 1_556 S
C3515 C3514 1.372 1_554 S
C3515 C3516 1.400 . S
C3515 C3520 1.490 . S
C3516 H3506 0.930 . S
C3516 C3515 1.400 . S
C3516 C3519 1.386 . S
H3517 C3533 0.930 . S
H3518 C3534 0.931 . S
C3519 H3507 0.929 . S
C3519 C3513 1.390 1_554 S
C3519 C3516 1.386 . S
C3520 C3515 1.490 . S
C3520 C3522 1.395 . S
C3520 C3523 1.403 . S
H3521 C3527 0.930 . S
C3522 H3508 0.930 . S
C3522 C3520 1.395 . S
C3522 C3525 1.403 . S
C3523 C3520 1.403 . S
C3523 C3524 1.524 . S
C3523 C3527 1.400 . S
C3524 H3509 0.960 . S
C3524 H3510 0.960 . S
C3524 H3511 0.960 . S
C3524 C3523 1.524 . S
C3525 C3522 1.403 . S
C3525 C3526 1.392 . S
C3525 C3529 1.495 . S
C3526 C3525 1.392 . S
C3526 C3527 1.385 . S
C3526 C3528 1.478 . S
C3527 H3521 0.930 . S
C3527 C3523 1.400 . S
C3527 C3526 1.385 . S
C3528 C3526 1.478 . S
C3528 C3530 1.381 . S
C3528 C3534 1.383 . S
C3529 C3525 1.495 . S
C3529 H3535 0.959 . S
C3529 H3536 0.961 . S
C3529 H3537 0.960 . S
C3530 C3528 1.381 . S
C3530 C3531 1.394 . S
C3530 H3538 0.930 . S
C3531 C3530 1.394 . S
C3531 C3532 1.383 . S
C3531 H3539 0.929 . S
C3532 C3531 1.383 . S
C3532 C3533 1.377 . S
C3533 H3517 0.930 . S
C3533 C3532 1.377 . S
C3533 C3534 1.379 . S
C3534 H3518 0.931 . S
C3534 C3528 1.383 . S
C3534 C3533 1.379 . S
H3535 C3529 0.959 . S
H3536 C3529 0.961 . S
H3537 C3529 0.960 . S
H3538 C3530 0.930 . S
H3539 C3531 0.929 . S
H3540 C3548 0.929 . S
H3541 C3550 0.930 . S
H3542 C3552 0.930 . S
H3543 C3555 0.929 . S
H3544 C3558 0.930 . S
H3545 C3560 0.960 . S
H3546 C3560 0.960 . S
H3547 C3560 0.960 . S
C3548 H3540 0.929 . S
C3548 C3549 1.377 1_556 S
C3548 C3550 1.384 . S
C3549 C3548 1.377 1_554 S
C3549 C3555 1.390 . S
C3550 H3541 0.930 . S
C3550 C3548 1.384 . S
C3550 C3551 1.372 . S
C3551 C3550 1.372 . S
C3551 C3552 1.400 . S
C3551 C3556 1.490 . S
C3552 H3542 0.930 . S
C3552 C3551 1.400 . S
C3552 C3555 1.386 1_556 S
H3553 C3569 0.930 . S
H3554 C3570 0.931 . S
C3555 H3543 0.929 . S
C3555 C3549 1.390 . S
C3555 C3552 1.386 1_554 S
C3556 C3551 1.490 . S
C3556 C3558 1.395 . S
C3556 C3559 1.403 . S
H3557 C3563 0.930 . S
C3558 H3544 0.930 . S
C3558 C3556 1.395 . S
C3558 C3561 1.403 . S
C3559 C3556 1.403 . S
C3559 C3560 1.524 . S
C3559 C3563 1.400 . S
C3560 H3545 0.960 . S
C3560 H3546 0.960 . S
C3560 H3547 0.960 . S
C3560 C3559 1.524 . S
C3561 C3558 1.403 . S
C3561 C3562 1.392 . S
C3561 C3565 1.495 . S
C3562 C3561 1.392 . S
C3562 C3563 1.385 . S
C3562 C3564 1.478 . S
C3563 H3557 0.930 . S
C3563 C3559 1.400 . S
C3563 C3562 1.385 . S
C3564 C3562 1.478 . S
C3564 C3566 1.381 . S
C3564 C3570 1.383 . S
C3565 C3561 1.495 . S
C3565 H3571 0.959 . S
C3565 H3572 0.961 . S
C3565 H3573 0.960 . S
C3566 C3564 1.381 . S
C3566 C3567 1.394 . S
C3566 H3574 0.930 . S
C3567 C3566 1.394 . S
C3567 C3568 1.383 . S
C3567 H3575 0.929 . S
C3568 C3567 1.383 . S
C3568 C3569 1.377 . S
C3569 H3553 0.930 . S
C3569 C3568 1.377 . S
C3569 C3570 1.379 . S
C3570 H3554 0.931 . S
C3570 C3564 1.383 . S
C3570 C3569 1.379 . S
H3571 C3565 0.959 . S
H3572 C3565 0.961 . S
H3573 C3565 0.960 . S
H3574 C3566 0.930 . S
H3575 C3567 0.929 . S
H3576 C3584 0.929 . S
H3577 C3586 0.930 . S
H3578 C3588 0.930 . S
H3579 C3591 0.929 . S
H3580 C3594 0.930 . S
H3581 C3596 0.960 . S
H3582 C3596 0.960 . S
H3583 C3596 0.960 . S
C3584 H3576 0.929 . S
C3584 C3585 1.377 . S
C3584 C3586 1.384 . S
C3585 C3584 1.377 . S
C3585 C3591 1.390 . S
C3586 H3577 0.930 . S
C3586 C3584 1.384 . S
C3586 C3587 1.372 . S
C3587 C3586 1.372 . S
C3587 C3588 1.400 . S
C3587 C3592 1.490 . S
C3588 H3578 0.930 . S
C3588 C3587 1.400 . S
C3588 C3591 1.386 . S
H3589 C3605 0.930 . S
H3590 C3606 0.931 . S
C3591 H3579 0.929 . S
C3591 C3585 1.390 . S
C3591 C3588 1.386 . S
C3592 C3587 1.490 . S
C3592 C3594 1.395 . S
C3592 C3595 1.403 . S
H3593 C3599 0.930 . S
C3594 H3580 0.930 . S
C3594 C3592 1.395 . S
C3594 C3597 1.403 . S
C3595 C3592 1.403 . S
C3595 C3596 1.524 . S
C3595 C3599 1.400 . S
C3596 H3581 0.960 . S
C3596 H3582 0.960 . S
C3596 H3583 0.960 . S
C3596 C3595 1.524 . S
C3597 C3594 1.403 . S
C3597 C3598 1.392 . S
C3597 C3601 1.495 . S
C3598 C3597 1.392 . S
C3598 C3599 1.385 . S
C3598 C3600 1.478 . S
C3599 H3593 0.930 . S
C3599 C3595 1.400 . S
C3599 C3598 1.385 . S
C3600 C3598 1.478 . S
C3600 C3602 1.381 . S
C3600 C3606 1.383 . S
C3601 C3597 1.495 . S
C3601 H3607 0.959 . S
C3601 H3608 0.961 . S
C3601 H3609 0.960 . S
C3602 C3600 1.381 . S
C3602 C3603 1.394 . S
C3602 H3610 0.930 . S
C3603 C3602 1.394 . S
C3603 C3604 1.383 . S
C3603 H3611 0.929 . S
C3604 C3603 1.383 . S
C3604 C3605 1.377 . S
C3605 H3589 0.930 . S
C3605 C3604 1.377 . S
C3605 C3606 1.379 . S
C3606 H3590 0.931 . S
C3606 C3600 1.383 . S
C3606 C3605 1.379 . S
H3607 C3601 0.959 . S
H3608 C3601 0.961 . S
H3609 C3601 0.960 . S
H3610 C3602 0.930 . S
H3611 C3603 0.929 . S
H3612 C3620 0.929 . S
H3613 C3622 0.930 . S
H3614 C3624 0.930 . S
H3615 C3627 0.929 . S
H3616 C3630 0.930 . S
H3617 C3632 0.960 . S
H3618 C3632 0.960 . S
H3619 C3632 0.960 . S
C3620 H3612 0.929 . S
C3620 C3621 1.377 . S
C3620 C3622 1.384 . S
C3621 C3620 1.377 . S
C3621 C3627 1.390 . S
C3622 H3613 0.930 . S
C3622 C3620 1.384 . S
C3622 C3623 1.372 . S
C3623 C3622 1.372 . S
C3623 C3624 1.400 . S
C3623 C3628 1.490 . S
C3624 H3614 0.930 . S
C3624 C3623 1.400 . S
C3624 C3627 1.386 . S
H3625 C3641 0.930 . S
H3626 C3642 0.931 . S
C3627 H3615 0.929 . S
C3627 C3621 1.390 . S
C3627 C3624 1.386 . S
C3628 C3623 1.490 . S
C3628 C3630 1.395 . S
C3628 C3631 1.403 . S
H3629 C3635 0.930 . S
C3630 H3616 0.930 . S
C3630 C3628 1.395 . S
C3630 C3633 1.403 . S
C3631 C3628 1.403 . S
C3631 C3632 1.524 . S
C3631 C3635 1.400 . S
C3632 H3617 0.960 . S
C3632 H3618 0.960 . S
C3632 H3619 0.960 . S
C3632 C3631 1.524 . S
C3633 C3630 1.403 . S
C3633 C3634 1.392 . S
C3633 C3637 1.495 . S
C3634 C3633 1.392 . S
C3634 C3635 1.385 . S
C3634 C3636 1.478 . S
C3635 H3629 0.930 . S
C3635 C3631 1.400 . S
C3635 C3634 1.385 . S
C3636 C3634 1.478 . S
C3636 C3638 1.381 . S
C3636 C3642 1.383 . S
C3637 C3633 1.495 . S
C3637 H3643 0.959 . S
C3637 H3644 0.961 . S
C3637 H3645 0.960 . S
C3638 C3636 1.381 . S
C3638 C3639 1.394 . S
C3638 H3646 0.930 . S
C3639 C3638 1.394 . S
C3639 C3640 1.383 . S
C3639 H3647 0.929 . S
C3640 C3639 1.383 . S
C3640 C3641 1.377 . S
C3641 H3625 0.930 . S
C3641 C3640 1.377 . S
C3641 C3642 1.379 . S
C3642 H3626 0.931 . S
C3642 C3636 1.383 . S
C3642 C3641 1.379 . S
H3643 C3637 0.959 . S
H3644 C3637 0.961 . S
H3645 C3637 0.960 . S
H3646 C3638 0.930 . S
H3647 C3639 0.929 . S
H3648 C3656 0.929 . S
H3649 C3658 0.930 . S
H3650 C3660 0.930 . S
H3651 C3663 0.929 . S
H3652 C3666 0.930 . S
H3653 C3668 0.960 . S
H3654 C3668 0.960 . S
H3655 C3668 0.960 . S
C3656 H3648 0.929 . S
C3656 C3657 1.377 . S
C3656 C3658 1.384 . S
C3657 C3656 1.377 . S
C3657 C3663 1.390 . S
C3658 H3649 0.930 . S
C3658 C3656 1.384 . S
C3658 C3659 1.372 . S
C3659 C3658 1.372 . S
C3659 C3660 1.400 . S
C3659 C3664 1.490 . S
C3660 H3650 0.930 . S
C3660 C3659 1.400 . S
C3660 C3663 1.386 . S
H3661 C3677 0.930 . S
H3662 C3678 0.931 . S
C3663 H3651 0.929 . S
C3663 C3657 1.390 . S
C3663 C3660 1.386 . S
C3664 C3659 1.490 . S
C3664 C3666 1.395 . S
C3664 C3667 1.403 . S
H3665 C3671 0.930 . S
C3666 H3652 0.930 . S
C3666 C3664 1.395 . S
C3666 C3669 1.403 . S
C3667 C3664 1.403 . S
C3667 C3668 1.524 . S
C3667 C3671 1.400 . S
C3668 H3653 0.960 . S
C3668 H3654 0.960 . S
C3668 H3655 0.960 . S
C3668 C3667 1.524 . S
C3669 C3666 1.403 . S
C3669 C3670 1.392 . S
C3669 C3673 1.495 . S
C3670 C3669 1.392 . S
C3670 C3671 1.385 . S
C3670 C3672 1.478 . S
C3671 H3665 0.930 . S
C3671 C3667 1.400 . S
C3671 C3670 1.385 . S
C3672 C3670 1.478 . S
C3672 C3674 1.381 . S
C3672 C3678 1.383 . S
C3673 C3669 1.495 . S
C3673 H3679 0.959 . S
C3673 H3680 0.961 . S
C3673 H3681 0.960 . S
C3674 C3672 1.381 . S
C3674 C3675 1.394 . S
C3674 H3682 0.930 . S
C3675 C3674 1.394 . S
C3675 C3676 1.383 . S
C3675 H3683 0.929 . S
C3676 C3675 1.383 . S
C3676 C3677 1.377 . S
C3677 H3661 0.930 . S
C3677 C3676 1.377 . S
C3677 C3678 1.379 . S
C3678 H3662 0.931 . S
C3678 C3672 1.383 . S
C3678 C3677 1.379 . S
H3679 C3673 0.959 . S
H3680 C3673 0.961 . S
H3681 C3673 0.960 . S
H3682 C3674 0.930 . S
H3683 C3675 0.929 . S
H3684 C3692 0.929 . S
H3685 C3694 0.930 . S
H3686 C3696 0.930 . S
H3687 C3699 0.929 . S
H3688 C3702 0.930 . S
H3689 C3704 0.960 . S
H3690 C3704 0.960 . S
H3691 C3704 0.960 . S
C3692 H3684 0.929 . S
C3692 C3693 1.377 . S
C3692 C3694 1.384 . S
C3693 C3692 1.377 . S
C3693 C3699 1.390 . S
C3694 H3685 0.930 . S
C3694 C3692 1.384 . S
C3694 C3695 1.372 . S
C3695 C3694 1.372 . S
C3695 C3696 1.400 . S
C3695 C3700 1.490 . S
C3696 H3686 0.930 . S
C3696 C3695 1.400 . S
C3696 C3699 1.386 . S
H3697 C3713 0.930 . S
H3698 C3714 0.931 . S
C3699 H3687 0.929 . S
C3699 C3693 1.390 . S
C3699 C3696 1.386 . S
C3700 C3695 1.490 . S
C3700 C3702 1.395 . S
C3700 C3703 1.403 . S
H3701 C3707 0.930 . S
C3702 H3688 0.930 . S
C3702 C3700 1.395 . S
C3702 C3705 1.403 . S
C3703 C3700 1.403 . S
C3703 C3704 1.524 . S
C3703 C3707 1.400 . S
C3704 H3689 0.960 . S
C3704 H3690 0.960 . S
C3704 H3691 0.960 . S
C3704 C3703 1.524 . S
C3705 C3702 1.403 . S
C3705 C3706 1.392 . S
C3705 C3709 1.495 . S
C3706 C3705 1.392 . S
C3706 C3707 1.385 . S
C3706 C3708 1.478 . S
C3707 H3701 0.930 . S
C3707 C3703 1.400 . S
C3707 C3706 1.385 . S
C3708 C3706 1.478 . S
C3708 C3710 1.381 . S
C3708 C3714 1.383 . S
C3709 C3705 1.495 . S
C3709 H3715 0.959 . S
C3709 H3716 0.961 . S
C3709 H3717 0.960 . S
C3710 C3708 1.381 . S
C3710 C3711 1.394 . S
C3710 H3718 0.930 . S
C3711 C3710 1.394 . S
C3711 C3712 1.383 . S
C3711 H3719 0.929 . S
C3712 C3711 1.383 . S
C3712 C3713 1.377 . S
C3713 H3697 0.930 . S
C3713 C3712 1.377 . S
C3713 C3714 1.379 . S
C3714 H3698 0.931 . S
C3714 C3708 1.383 . S
C3714 C3713 1.379 . S
H3715 C3709 0.959 . S
H3716 C3709 0.961 . S
H3717 C3709 0.960 . S
H3718 C3710 0.930 . S
H3719 C3711 0.929 . S
H3720 C3728 0.929 . S
H3721 C3730 0.930 . S
H3722 C3732 0.930 . S
H3723 C3735 0.929 . S
H3724 C3738 0.930 . S
H3725 C3740 0.960 . S
H3726 C3740 0.960 . S
H3727 C3740 0.960 . S
C3728 H3720 0.929 . S
C3728 C3729 1.377 . S
C3728 C3730 1.384 . S
C3729 C3728 1.377 . S
C3729 C3735 1.390 . S
C3730 H3721 0.930 . S
C3730 C3728 1.384 . S
C3730 C3731 1.372 . S
C3731 C3730 1.372 . S
C3731 C3732 1.400 . S
C3731 C3736 1.490 . S
C3732 H3722 0.930 . S
C3732 C3731 1.400 . S
C3732 C3735 1.386 . S
H3733 C3749 0.930 . S
H3734 C3750 0.931 . S
C3735 H3723 0.929 . S
C3735 C3729 1.390 . S
C3735 C3732 1.386 . S
C3736 C3731 1.490 . S
C3736 C3738 1.395 . S
C3736 C3739 1.403 . S
H3737 C3743 0.930 . S
C3738 H3724 0.930 . S
C3738 C3736 1.395 . S
C3738 C3741 1.403 . S
C3739 C3736 1.403 . S
C3739 C3740 1.524 . S
C3739 C3743 1.400 . S
C3740 H3725 0.960 . S
C3740 H3726 0.960 . S
C3740 H3727 0.960 . S
C3740 C3739 1.524 . S
C3741 C3738 1.403 . S
C3741 C3742 1.392 . S
C3741 C3745 1.495 . S
C3742 C3741 1.392 . S
C3742 C3743 1.385 . S
C3742 C3744 1.478 . S
C3743 H3737 0.930 . S
C3743 C3739 1.400 . S
C3743 C3742 1.385 . S
C3744 C3742 1.478 . S
C3744 C3746 1.381 . S
C3744 C3750 1.383 . S
C3745 C3741 1.495 . S
C3745 H3751 0.959 . S
C3745 H3752 0.961 1_556 S
C3745 H3753 0.960 . S
C3746 C3744 1.381 . S
C3746 C3747 1.394 . S
C3746 H3754 0.930 . S
C3747 C3746 1.394 . S
C3747 C3748 1.383 1_556 S
C3747 H3755 0.929 . S
C3748 C3747 1.383 1_554 S
C3748 C3749 1.377 . S
C3749 H3733 0.930 . S
C3749 C3748 1.377 . S
C3749 C3750 1.379 1_554 S
C3750 H3734 0.931 . S
C3750 C3744 1.383 . S
C3750 C3749 1.379 1_556 S
H3751 C3745 0.959 . S
H3752 C3745 0.961 1_554 S
H3753 C3745 0.960 . S
H3754 C3746 0.930 . S
H3755 C3747 0.929 . S
H3756 C3764 0.929 . S
H3757 C3766 0.930 . S
H3758 C3768 0.930 . S
H3759 C3771 0.929 . S
H3760 C3774 0.930 . S
H3761 C3776 0.960 . S
H3762 C3776 0.960 . S
H3763 C3776 0.960 . S
C3764 H3756 0.929 . S
C3764 C3765 1.377 . S
C3764 C3766 1.384 . S
C3765 C3764 1.377 . S
C3765 C3771 1.390 . S
C3766 H3757 0.930 . S
C3766 C3764 1.384 . S
C3766 C3767 1.372 . S
C3767 C3766 1.372 . S
C3767 C3768 1.400 . S
C3767 C3772 1.490 . S
C3768 H3758 0.930 . S
C3768 C3767 1.400 . S
C3768 C3771 1.386 . S
H3769 C3785 0.930 . S
H3770 C3786 0.931 . S
C3771 H3759 0.929 . S
C3771 C3765 1.390 . S
C3771 C3768 1.386 . S
C3772 C3767 1.490 . S
C3772 C3774 1.395 . S
C3772 C3775 1.403 . S
H3773 C3779 0.930 . S
C3774 H3760 0.930 . S
C3774 C3772 1.395 . S
C3774 C3777 1.403 . S
C3775 C3772 1.403 . S
C3775 C3776 1.524 . S
C3775 C3779 1.400 . S
C3776 H3761 0.960 . S
C3776 H3762 0.960 . S
C3776 H3763 0.960 . S
C3776 C3775 1.524 . S
C3777 C3774 1.403 . S
C3777 C3778 1.392 . S
C3777 C3781 1.495 . S
C3778 C3777 1.392 . S
C3778 C3779 1.385 . S
C3778 C3780 1.478 . S
C3779 H3773 0.930 . S
C3779 C3775 1.400 . S
C3779 C3778 1.385 . S
C3780 C3778 1.478 . S
C3780 C3782 1.381 1_554 S
C3780 C3786 1.383 . S
C3781 C3777 1.495 . S
C3781 H3787 0.959 . S
C3781 H3788 0.961 . S
C3781 H3789 0.960 . S
C3782 C3780 1.381 1_556 S
C3782 C3783 1.394 . S
C3782 H3790 0.930 . S
C3783 C3782 1.394 . S
C3783 C3784 1.383 . S
C3783 H3791 0.929 . S
C3784 C3783 1.383 . S
C3784 C3785 1.377 1_556 S
C3785 H3769 0.930 . S
C3785 C3784 1.377 1_554 S
C3785 C3786 1.379 . S
C3786 H3770 0.931 . S
C3786 C3780 1.383 . S
C3786 C3785 1.379 . S
H3787 C3781 0.959 . S
H3788 C3781 0.961 . S
H3789 C3781 0.960 . S
H3790 C3782 0.930 . S
H3791 C3783 0.929 . S
H3792 C3800 0.929 . S
H3793 C3802 0.930 . S
H3794 C3804 0.930 . S
H3795 C3807 0.929 . S
H3796 C3810 0.930 . S
H3797 C3812 0.960 . S
H3798 C3812 0.960 . S
H3799 C3812 0.960 . S
C3800 H3792 0.929 . S
C3800 C3801 1.377 . S
C3800 C3802 1.384 . S
C3801 C3800 1.377 . S
C3801 C3807 1.390 . S
C3802 H3793 0.930 . S
C3802 C3800 1.384 . S
C3802 C3803 1.372 . S
C3803 C3802 1.372 . S
C3803 C3804 1.400 . S
C3803 C3808 1.490 . S
C3804 H3794 0.930 . S
C3804 C3803 1.400 . S
C3804 C3807 1.386 . S
H3805 C3821 0.930 . S
H3806 C3822 0.931 . S
C3807 H3795 0.929 . S
C3807 C3801 1.390 . S
C3807 C3804 1.386 . S
C3808 C3803 1.490 . S
C3808 C3810 1.395 . S
C3808 C3811 1.403 . S
H3809 C3815 0.930 . S
C3810 H3796 0.930 . S
C3810 C3808 1.395 . S
C3810 C3813 1.403 . S
C3811 C3808 1.403 . S
C3811 C3812 1.524 . S
C3811 C3815 1.400 . S
C3812 H3797 0.960 . S
C3812 H3798 0.960 . S
C3812 H3799 0.960 . S
C3812 C3811 1.524 . S
C3813 C3810 1.403 . S
C3813 C3814 1.392 . S
C3813 C3817 1.495 . S
C3814 C3813 1.392 . S
C3814 C3815 1.385 . S
C3814 C3816 1.478 . S
C3815 H3809 0.930 . S
C3815 C3811 1.400 . S
C3815 C3814 1.385 . S
C3816 C3814 1.478 . S
C3816 C3818 1.381 . S
C3816 C3822 1.383 . S
C3817 C3813 1.495 . S
C3817 H3823 0.959 . S
C3817 H3824 0.961 . S
C3817 H3825 0.960 . S
C3818 C3816 1.381 . S
C3818 C3819 1.394 . S
C3818 H3826 0.930 . S
C3819 C3818 1.394 . S
C3819 C3820 1.383 . S
C3819 H3827 0.929 . S
C3820 C3819 1.383 . S
C3820 C3821 1.377 . S
C3821 H3805 0.930 . S
C3821 C3820 1.377 . S
C3821 C3822 1.379 . S
C3822 H3806 0.931 . S
C3822 C3816 1.383 . S
C3822 C3821 1.379 . S
H3823 C3817 0.959 . S
H3824 C3817 0.961 . S
H3825 C3817 0.960 . S
H3826 C3818 0.930 . S
H3827 C3819 0.929 . S
H3828 C3836 0.929 . S
H3829 C3838 0.930 . S
H3830 C3840 0.930 . S
H3831 C3843 0.929 . S
H3832 C3846 0.930 . S
H3833 C3848 0.960 . S
H3834 C3848 0.960 . S
H3835 C3848 0.960 . S
C3836 H3828 0.929 . S
C3836 C3837 1.377 . S
C3836 C3838 1.384 . S
C3837 C3836 1.377 . S
C3837 C3843 1.390 . S
C3838 H3829 0.930 . S
C3838 C3836 1.384 . S
C3838 C3839 1.372 . S
C3839 C3838 1.372 . S
C3839 C3840 1.400 . S
C3839 C3844 1.490 . S
C3840 H3830 0.930 . S
C3840 C3839 1.400 . S
C3840 C3843 1.386 . S
H3841 C3857 0.930 . S
H3842 C3858 0.931 . S
C3843 H3831 0.929 . S
C3843 C3837 1.390 . S
C3843 C3840 1.386 . S
C3844 C3839 1.490 . S
C3844 C3846 1.395 . S
C3844 C3847 1.403 . S
H3845 C3851 0.930 . S
C3846 H3832 0.930 . S
C3846 C3844 1.395 . S
C3846 C3849 1.403 . S
C3847 C3844 1.403 . S
C3847 C3848 1.524 . S
C3847 C3851 1.400 . S
C3848 H3833 0.960 . S
C3848 H3834 0.960 . S
C3848 H3835 0.960 . S
C3848 C3847 1.524 . S
C3849 C3846 1.403 . S
C3849 C3850 1.392 . S
C3849 C3853 1.495 . S
C3850 C3849 1.392 . S
C3850 C3851 1.385 . S
C3850 C3852 1.478 . S
C3851 H3845 0.930 . S
C3851 C3847 1.400 . S
C3851 C3850 1.385 . S
C3852 C3850 1.478 . S
C3852 C3854 1.381 . S
C3852 C3858 1.383 . S
C3853 C3849 1.495 . S
C3853 H3859 0.959 . S
C3853 H3860 0.961 . S
C3853 H3861 0.960 . S
C3854 C3852 1.381 . S
C3854 C3855 1.394 . S
C3854 H3862 0.930 . S
C3855 C3854 1.394 . S
C3855 C3856 1.383 . S
C3855 H3863 0.929 . S
C3856 C3855 1.383 . S
C3856 C3857 1.377 . S
C3857 H3841 0.930 . S
C3857 C3856 1.377 . S
C3857 C3858 1.379 . S
C3858 H3842 0.931 . S
C3858 C3852 1.383 . S
C3858 C3857 1.379 . S
H3859 C3853 0.959 . S
H3860 C3853 0.961 . S
H3861 C3853 0.960 . S
H3862 C3854 0.930 . S
H3863 C3855 0.929 . S
H3864 C3872 0.929 . S
H3865 C3874 0.930 . S
H3866 C3876 0.930 . S
H3867 C3879 0.929 . S
H3868 C3882 0.930 . S
H3869 C3884 0.960 . S
H3870 C3884 0.960 . S
H3871 C3884 0.960 . S
C3872 H3864 0.929 . S
C3872 C3873 1.377 . S
C3872 C3874 1.384 . S
C3873 C3872 1.377 . S
C3873 C3879 1.390 . S
C3874 H3865 0.930 . S
C3874 C3872 1.384 . S
C3874 C3875 1.372 . S
C3875 C3874 1.372 . S
C3875 C3876 1.400 . S
C3875 C3880 1.490 . S
C3876 H3866 0.930 . S
C3876 C3875 1.400 . S
C3876 C3879 1.386 . S
H3877 C3893 0.930 . S
H3878 C3894 0.931 . S
C3879 H3867 0.929 . S
C3879 C3873 1.390 . S
C3879 C3876 1.386 . S
C3880 C3875 1.490 . S
C3880 C3882 1.395 . S
C3880 C3883 1.403 . S
H3881 C3887 0.930 . S
C3882 H3868 0.930 . S
C3882 C3880 1.395 . S
C3882 C3885 1.403 . S
C3883 C3880 1.403 . S
C3883 C3884 1.524 . S
C3883 C3887 1.400 . S
C3884 H3869 0.960 . S
C3884 H3870 0.960 . S
C3884 H3871 0.960 . S
C3884 C3883 1.524 . S
C3885 C3882 1.403 . S
C3885 C3886 1.392 . S
C3885 C3889 1.495 1_554 S
C3886 C3885 1.392 . S
C3886 C3887 1.385 . S
C3886 C3888 1.478 . S
C3887 H3881 0.930 . S
C3887 C3883 1.400 . S
C3887 C3886 1.385 . S
C3888 C3886 1.478 . S
C3888 C3890 1.381 1_554 S
C3888 C3894 1.383 . S
C3889 C3885 1.495 1_556 S
C3889 H3895 0.959 . S
C3889 H3896 0.961 . S
C3889 H3897 0.960 . S
C3890 C3888 1.381 1_556 S
C3890 C3891 1.394 . S
C3890 H3898 0.930 . S
C3891 C3890 1.394 . S
C3891 C3892 1.383 . S
C3891 H3899 0.929 . S
C3892 C3891 1.383 . S
C3892 C3893 1.377 1_556 S
C3893 H3877 0.930 . S
C3893 C3892 1.377 1_554 S
C3893 C3894 1.379 . S
C3894 H3878 0.931 . S
C3894 C3888 1.383 . S
C3894 C3893 1.379 . S
H3895 C3889 0.959 . S
H3896 C3889 0.961 . S
H3897 C3889 0.960 . S
H3898 C3890 0.930 . S
H3899 C3891 0.929 . S
H3900 C3908 0.929 . S
H3901 C3910 0.930 . S
H3902 C3912 0.930 . S
H3903 C3915 0.929 . S
H3904 C3918 0.930 . S
H3905 C3920 0.960 . S
H3906 C3920 0.960 . S
H3907 C3920 0.960 . S
C3908 H3900 0.929 . S
C3908 C3909 1.377 1_556 S
C3908 C3910 1.384 . S
C3909 C3908 1.377 1_554 S
C3909 C3915 1.390 . S
C3910 H3901 0.930 . S
C3910 C3908 1.384 . S
C3910 C3911 1.372 . S
C3911 C3910 1.372 . S
C3911 C3912 1.400 . S
C3911 C3916 1.490 . S
C3912 H3902 0.930 . S
C3912 C3911 1.400 . S
C3912 C3915 1.386 1_556 S
H3913 C3929 0.930 . S
H3914 C3930 0.931 . S
C3915 H3903 0.929 . S
C3915 C3909 1.390 . S
C3915 C3912 1.386 1_554 S
C3916 C3911 1.490 . S
C3916 C3918 1.395 . S
C3916 C3919 1.403 . S
H3917 C3923 0.930 . S
C3918 H3904 0.930 . S
C3918 C3916 1.395 . S
C3918 C3921 1.403 . S
C3919 C3916 1.403 . S
C3919 C3920 1.524 . S
C3919 C3923 1.400 . S
C3920 H3905 0.960 . S
C3920 H3906 0.960 . S
C3920 H3907 0.960 . S
C3920 C3919 1.524 . S
C3921 C3918 1.403 . S
C3921 C3922 1.392 . S
C3921 C3925 1.495 . S
C3922 C3921 1.392 . S
C3922 C3923 1.385 . S
C3922 C3924 1.478 . S
C3923 H3917 0.930 . S
C3923 C3919 1.400 . S
C3923 C3922 1.385 . S
C3924 C3922 1.478 . S
C3924 C3926 1.381 . S
C3924 C3930 1.383 . S
C3925 C3921 1.495 . S
C3925 H3931 0.959 . S
C3925 H3932 0.961 . S
C3925 H3933 0.960 . S
C3926 C3924 1.381 . S
C3926 C3927 1.394 . S
C3926 H3934 0.930 . S
C3927 C3926 1.394 . S
C3927 C3928 1.383 . S
C3927 H3935 0.929 . S
C3928 C3927 1.383 . S
C3928 C3929 1.377 . S
C3929 H3913 0.930 . S
C3929 C3928 1.377 . S
C3929 C3930 1.379 . S
C3930 H3914 0.931 . S
C3930 C3924 1.383 . S
C3930 C3929 1.379 . S
H3931 C3925 0.959 . S
H3932 C3925 0.961 . S
H3933 C3925 0.960 . S
H3934 C3926 0.930 . S
H3935 C3927 0.929 . S
C1065 C1011 1.497 . S
C1084 C21 1.501 . S
C1101 C54 1.498 . S
C1120 C516 1.483 . S
C1137 C87 1.495 . S
C1156 C945 1.504 . S
C1173 C120 1.498 . S
C1192 C450 1.483 . S
C1209 C879 1.495 . S
C1228 C153 1.504 . S
C1245 C384 1.497 . S
C1264 C186 1.485 . S
C1281 C219 1.498 . S
C1300 C813 1.483 . S
C1317 C318 1.496 . S
C1336 C252 1.485 . S
C1353 C747 1.497 . S
C1372 C285 1.503 . S
C1389 C681 1.497 . S
C1408 C351 1.483 . S
C1425 C417 1.496 . S
C1444 C615 1.489 . S
C1461 C549 1.499 . S
C1480 C483 1.490 . S
C1497 C1044 1.498 . S
C1516 C582 1.483 . S
C1533 C978 1.496 . S
C1552 C648 1.504 . S
C1569 C912 1.499 . S
C1588 C714 1.485 . S
C1605 C846 1.496 . S
C1624 C780 1.504 . S
C1641 N2 0.962 . S
C1660 N13 0.976 . S
C1677 N35 0.962 . S
C1696 N46 0.947 . S
C1713 N68 0.958 . S
C1732 N79 0.947 . S
C1749 N101 0.958 . S
C1768 N112 0.957 . S
C1785 N134 0.960 . S
C1804 N145 0.972 . S
C1821 N167 0.958 . S
C1840 N178 0.962 . S
C1857 N211 0.965 . S
C1876 N200 0.972 . S
C1893 N233 0.964 . S
C1912 N244 0.974 . S
C1929 N266 0.962 . S
C1948 N277 0.975 . S
C1965 N310 0.961 . S
C1984 N299 0.943 . S
C2001 N332 0.958 . S
C2020 N343 0.960 . S
C2037 N365 0.958 . S
C2056 N376 0.946 . S
C2073 N398 0.964 . S
C2092 N409 0.976 . S
C2109 N442 0.960 . S
C2128 N431 0.942 . S
C2145 N464 0.957 . S
C2164 N475 0.954 . S
C2181 N508 0.964 . S
C2200 N497 0.977 . S
C2217 N541 0.958 . S
C2236 N530 0.952 . S
C2253 N563 0.963 . S
C2272 N574 0.950 . S
C2289 N607 0.965 . S
C2308 N596 0.973 . S
C2325 N640 0.958 . S
C2344 N629 0.950 . S
C2361 N673 0.965 . S
C2380 N662 0.971 . S
C2397 N706 0.959 . S
C2416 N695 0.966 . S
C2433 N739 0.962 . S
C2452 N728 0.976 . S
C2469 N772 0.961 . S
C2488 N761 0.942 . S
C2505 N805 0.958 . S
C2524 N794 0.948 . S
C2541 N838 0.960 . S
C2560 N827 0.942 . S
C2577 N860 0.961 . S
C2596 N871 0.946 . S
C2613 N904 0.965 . S
C2632 N893 0.963 . S
C2649 N937 0.958 . S
C2668 N926 0.956 . S
C2685 N970 0.961 . S
C2704 N959 0.943 . S
C2721 N992 0.959 . S
C2740 N1003 0.968 . S
C2757 N1025 0.961 . S
C2776 N1036 0.975 . S
C2793 C205 1.336 . S
C2812 C7 1.357 . S
C2829 C238 1.345 . S
C2848 C40 1.314 . S
C2865 C73 1.340 . S
C2884 C139 1.332 . S
C2901 C172 1.342 . S
C2920 C106 1.347 . S
C2937 C271 1.336 . S
C2956 C469 1.317 . S
C2973 C304 1.338 . S
C2992 C502 1.335 . S
C3009 C337 1.345 . S
C3028 C403 1.345 . S
C3045 C436 1.337 . S
C3064 C370 1.327 . S
C3081 C733 1.345 . S
C3100 C535 1.331 . S
C3117 C568 1.337 . S
C3136 C766 1.347 . S
C3153 C667 1.345 . S
C3172 C601 1.315 . S
C3189 C700 1.346 . S
C3208 C634 1.313 . S
C3225 C799 1.347 . S
C3244 C997 1.360 . S
C3261 C1030 1.339 . S
C3280 C832 1.316 . S
C3297 C865 1.336 . S
C3316 C931 1.320 . S
C3333 C964 1.346 . S
C3352 C898 1.352 . S
C3369 C18 1.110 . S
C3388 C249 1.130 . S
C3405 C150 1.109 . S
C3424 C51 1.128 . S
C3441 C84 1.110 . S
C3460 C183 1.130 . S
C3477 C117 1.103 . S
C3496 C216 1.088 . S
C3513 C282 1.112 . S
C3532 C513 1.100 . S
C3549 C414 1.103 . S
C3568 C315 1.088 . S
C3585 C348 1.103 . S
C3604 C447 1.089 . S
C3621 C381 1.103 . S
C3640 C480 1.087 . S
C3657 C777 1.104 . S
C3676 C546 1.082 . S
C3693 C678 1.113 . S
C3712 C579 1.125 . S
C3729 C711 1.113 . S
C3748 C612 1.127 . S
C3765 C645 1.104 . S
C3784 C744 1.106 . S
C3801 C810 1.104 . S
C3820 C1041 1.111 . S
C3837 C843 1.105 . S
C3856 C942 1.082 . S
C3873 C975 1.108 . S
C3892 C876 1.128 . S
C3909 C1008 1.103 . S
C3928 C909 1.088 . S
