# Generated by pormake.
# Topology wix, (3)-cn, num edge types: 1
# Building blocks:
#     Node 0, Type 0, BuildingBlock: OLANEW_clean_sbu_2, # of connection points: 3
#     Node 1, Type 0, BuildingBlock: OLANEW_clean_sbu_2, # of connection points: 3
#     Node 2, Type 0, BuildingBlock: OLANEW_clean_sbu_2, # of connection points: 3
#     Node 3, Type 0, BuildingBlock: OLANEW_clean_sbu_2, # of connection points: 3
#     Node 4, Type 0, BuildingBlock: OLANEW_clean_sbu_2, # of connection points: 3
#     Node 5, Type 0, BuildingBlock: OLANEW_clean_sbu_2, # of connection points: 3
#     Node 6, Type 0, BuildingBlock: OLANEW_clean_sbu_2, # of connection points: 3
#     Node 7, Type 0, BuildingBlock: OLANEW_clean_sbu_2, # of connection points: 3
#     Node 8, Type 0, BuildingBlock: OLANEW_clean_sbu_2, # of connection points: 3
#     Node 9, Type 0, BuildingBlock: OLANEW_clean_sbu_2, # of connection points: 3
#     Node 10, Type 0, BuildingBlock: OLANEW_clean_sbu_2, # of connection points: 3
#     Node 11, Type 0, BuildingBlock: OLANEW_clean_sbu_2, # of connection points: 3
#     Edge 12, Type (0, 0), BuildingBlock: FUNLAD_clean_linker_0, # of connection points: 2
#     Edge 13, Type (0, 0), BuildingBlock: FUNLAD_clean_linker_0, # of connection points: 2
#     Edge 14, Type (0, 0), BuildingBlock: FUNLAD_clean_linker_0, # of connection points: 2
#     Edge 15, Type (0, 0), BuildingBlock: FUNLAD_clean_linker_0, # of connection points: 2
#     Edge 16, Type (0, 0), BuildingBlock: FUNLAD_clean_linker_0, # of connection points: 2
#     Edge 17, Type (0, 0), BuildingBlock: FUNLAD_clean_linker_0, # of connection points: 2
#     Edge 18, Type (0, 0), BuildingBlock: FUNLAD_clean_linker_0, # of connection points: 2
#     Edge 19, Type (0, 0), BuildingBlock: FUNLAD_clean_linker_0, # of connection points: 2
#     Edge 20, Type (0, 0), BuildingBlock: FUNLAD_clean_linker_0, # of connection points: 2
#     Edge 21, Type (0, 0), BuildingBlock: FUNLAD_clean_linker_0, # of connection points: 2
#     Edge 22, Type (0, 0), BuildingBlock: FUNLAD_clean_linker_0, # of connection points: 2
#     Edge 23, Type (0, 0), BuildingBlock: FUNLAD_clean_linker_0, # of connection points: 2
#     Edge 24, Type (0, 0), BuildingBlock: FUNLAD_clean_linker_0, # of connection points: 2
#     Edge 25, Type (0, 0), BuildingBlock: FUNLAD_clean_linker_0, # of connection points: 2
#     Edge 26, Type (0, 0), BuildingBlock: FUNLAD_clean_linker_0, # of connection points: 2
#     Edge 27, Type (0, 0), BuildingBlock: FUNLAD_clean_linker_0, # of connection points: 2
#     Edge 28, Type (0, 0), BuildingBlock: FUNLAD_clean_linker_0, # of connection points: 2
#     Edge 29, Type (0, 0), BuildingBlock: FUNLAD_clean_linker_0, # of connection points: 2
# Relax obj value: 0.008
# Max RMSD: 0.076
# Mean RMSD: 0.076
data_MOF--net-wix--node1-OLANEW_clean_sbu_2--edge1-FUNLAD_clean_linker_0
_symmetry_space_group_name_H-M    P1
_symmetry_Int_Tables_number       1
_symmetry_cell_setting            triclinic
loop_
_symmetry_equiv_pos_as_xyz
'x, y, z'
_cell_length_a     73.329052
_cell_length_b     73.342027
_cell_length_c     38.446629
_cell_angle_alpha  89.992238
_cell_angle_beta   90.008152
_cell_angle_gamma 119.94497
loop_
_atom_site_label
_atom_site_type_symbol
_atom_site_fract_x
_atom_site_fract_y
_atom_site_fract_z
_atom_type_partial_charge
O0 O 0.29559 0.36745 0.10777 0.0
Cd1 Cd 0.26695 0.37246 0.08713 0.0
O2 O 0.31749 0.39709 0.0822 0.0
Cd3 Cd 0.34798 0.42129 0.0622 0.0
O4 O 0.37446 0.44561 0.03301 0.0
C5 C 0.3934 0.45403 0.04346 0.0
O6 O 0.39749 0.44796 0.07317 0.0
C7 C 0.31438 0.38134 0.10048 0.0
C8 C 0.24823 0.38117 0.14278 0.0
O9 O 0.24127 0.36225 0.13228 0.0
O10 O 0.26393 0.39601 0.12667 0.0
O11 O 0.91345 0.32365 0.28572 0.0
Cd12 Cd 0.87953 0.30464 0.25632 0.0
O13 O 0.92334 0.35021 0.25012 0.0
Cd14 Cd 0.94272 0.38184 0.22878 0.0
O15 O 0.95277 0.41002 0.19723 0.0
C16 C 0.95185 0.40793 0.16435 0.0
O17 O 0.94583 0.38926 0.15108 0.0
C18 C 0.92732 0.34195 0.276 0.0
C19 C 0.8485 0.28127 0.30518 0.0
O20 O 0.85844 0.27346 0.28943 0.0
O21 O 0.85297 0.30004 0.29731 0.0
O22 O 0.6134 0.91309 0.41065 0.0
Cd23 Cd 0.60408 0.8794 0.38393 0.0
O24 O 0.58538 0.91124 0.38703 0.0
Cd25 Cd 0.56374 0.92228 0.37211 0.0
O26 O 0.5401 0.92806 0.34818 0.0
C27 C 0.53725 0.92529 0.31556 0.0
O28 O 0.54886 0.91954 0.2978 0.0
C29 C 0.60151 0.9209 0.40638 0.0
C30 C 0.58891 0.84842 0.43514 0.0
O31 O 0.60852 0.85861 0.42734 0.0
O32 O 0.5764 0.85264 0.41822 0.0
O33 O 0.68932 0.62195 0.592 0.0
Cd34 Cd 0.71341 0.61162 0.56707 0.0
O35 O 0.66321 0.59152 0.57544 0.0
Cd36 Cd 0.63041 0.56834 0.56414 0.0
O37 O 0.60206 0.54377 0.53899 0.0
C38 C 0.60005 0.54569 0.50658 0.0
O39 O 0.61454 0.56252 0.49049 0.0
C40 C 0.66965 0.60921 0.59022 0.0
C41 C 0.7323 0.6001 0.61876 0.0
O42 O 0.74075 0.61918 0.60814 0.0
O43 O 0.71491 0.58643 0.60478 0.0
O44 O 0.09902 0.70142 0.77303 0.0
Cd45 Cd 0.13531 0.72612 0.75669 0.0
O46 O 0.1022 0.67545 0.7517 0.0
Cd47 Cd 0.09084 0.6429 0.7359 0.0
O48 O 0.08272 0.61247 0.71338 0.0
C49 C 0.07862 0.60951 0.68107 0.0
O50 O 0.07899 0.62472 0.66247 0.0
C51 C 0.09116 0.68186 0.76736 0.0
C52 C 0.15685 0.74889 0.81544 0.0
O53 O 0.14782 0.7557 0.79488 0.0
O54 O 0.15607 0.73151 0.80776 0.0
O55 O 0.38475 0.07438 0.93076 0.0
Cd56 Cd 0.39895 0.10462 0.89169 0.0
O57 O 0.40401 0.0643 0.90242 0.0
Cd58 Cd 0.41972 0.0464 0.89013 0.0
O59 O 0.44136 0.03829 0.86476 0.0
C60 C 0.444 0.0416 0.83221 0.0
O61 O 0.4331 0.04877 0.81591 0.0
C62 C 0.39112 0.06127 0.92688 0.0
C63 C 0.41633 0.14176 0.93001 0.0
O64 O 0.39743 0.13328 0.91849 0.0
O65 O 0.42708 0.13279 0.92303 0.0
O66 O 0.55482 0.67888 0.71771 0.0
Cd67 Cd 0.5375 0.69804 0.73742 0.0
O68 O 0.53934 0.65402 0.75671 0.0
Cd69 Cd 0.52951 0.62391 0.78241 0.0
O70 O 0.51368 0.59505 0.81305 0.0
C71 C 0.51475 0.59619 0.84604 0.0
O72 O 0.52606 0.61469 0.86076 0.0
C73 C 0.55185 0.66176 0.73105 0.0
C74 C 0.54543 0.7289 0.68802 0.0
O75 O 0.55752 0.73289 0.71443 0.0
O76 O 0.52924 0.71048 0.68557 0.0
O77 O 0.89445 0.58137 0.86776 0.0
Cd78 Cd 0.85907 0.56313 0.8924 0.0
O79 O 0.90496 0.56556 0.9041 0.0
Cd80 Cd 0.92555 0.5555 0.92817 0.0
O81 O 0.93887 0.54098 0.96147 0.0
C82 C 0.93456 0.53951 0.99373 0.0
O83 O 0.92296 0.54725 0.00532 0.0
C84 C 0.90903 0.57839 0.87907 0.0
C85 C 0.83226 0.5694 0.84909 0.0
O86 O 0.84176 0.5819 0.87451 0.0
O87 O 0.83511 0.55368 0.84465 0.0
O88 O 0.28306 0.90024 0.12344 0.0
Cd89 Cd 0.26195 0.86482 0.14693 0.0
O90 O 0.31173 0.90051 0.14016 0.0
Cd91 Cd 0.34549 0.91392 0.14912 0.0
O92 O 0.37699 0.92243 0.16711 0.0
C93 C 0.38233 0.92924 0.19796 0.0
O94 O 0.36895 0.93152 0.21762 0.0
C95 C 0.30301 0.90953 0.12476 0.0
C96 C 0.24228 0.8375 0.09148 0.0
O97 O 0.23329 0.84621 0.1075 0.0
O98 O 0.26038 0.84131 0.1023 0.0
O99 O 0.45489 0.32646 0.17108 0.0
Cd100 Cd 0.48317 0.31912 0.18406 0.0
O101 O 0.46705 0.35234 0.20848 0.0
Cd102 Cd 0.47094 0.37987 0.23705 0.0
O103 O 0.48176 0.40634 0.27295 0.0
C104 C 0.48689 0.40391 0.30345 0.0
O105 O 0.48479 0.38561 0.312 0.0
C106 C 0.45344 0.34124 0.18561 0.0
C107 C 0.47853 0.28653 0.14107 0.0
O108 O 0.47107 0.28281 0.17205 0.0
O109 O 0.4886 0.30571 0.13079 0.0
O110 O 0.10032 0.39111 0.43693 0.0
Cd111 Cd 0.13608 0.40359 0.4576 0.0
O112 O 0.10283 0.4208 0.45367 0.0
Cd113 Cd 0.09127 0.44252 0.4646 0.0
O114 O 0.08407 0.46581 0.48575 0.0
C115 C 0.08093 0.46555 0.51829 0.0
O116 O 0.08161 0.45105 0.53742 0.0
C117 C 0.09226 0.40289 0.43928 0.0
C118 C 0.15931 0.39911 0.40444 0.0
O119 O 0.1498 0.38459 0.42718 0.0
O120 O 0.15817 0.41592 0.40731 0.0
O121 O 0.68629 0.1054 0.55572 0.0
Cd122 Cd 0.70161 0.13913 0.58582 0.0
O123 O 0.6567 0.0928 0.58448 0.0
Cd124 Cd 0.62394 0.07127 0.59899 0.0
O125 O 0.59324 0.05746 0.62436 0.0
C126 C 0.593 0.05956 0.65714 0.0
O127 O 0.61099 0.06918 0.67396 0.0
C128 C 0.66774 0.09041 0.56137 0.0
C129 C 0.7314 0.16939 0.54158 0.0
O130 O 0.7366 0.15972 0.56373 0.0
O131 O 0.7122 0.16518 0.54112 0.0
C132 C 0.2208 0.36941 0.18937 0.0
C133 C 0.23861 0.3857 0.17296 0.0
C134 C 0.21192 0.37357 0.21829 0.0
C135 C 0.22083 0.39413 0.2317 0.0
C136 C 0.23839 0.41045 0.21485 0.0
C137 C 0.24723 0.4063 0.18586 0.0
C138 C 0.2119 0.39928 0.26242 0.0
C139 C 0.2 0.385 0.28671 0.0
C140 C 0.19059 0.38972 0.31729 0.0
C141 C 0.18275 0.37513 0.34471 0.0
C142 C 0.17291 0.37833 0.37328 0.0
C143 C 0.17067 0.39624 0.37508 0.0
H144 H 0.1936 0.41912 0.29834 0.0
C145 C 0.17865 0.41097 0.34786 0.0
C146 C 0.18839 0.40772 0.31917 0.0
H147 H 0.17699 0.42484 0.34831 0.0
H148 H 0.21363 0.3534 0.17981 0.0
H149 H 0.19792 0.36064 0.22957 0.0
H150 H 0.24543 0.42647 0.22434 0.0
H151 H 0.26091 0.41922 0.17372 0.0
H152 H 0.21613 0.41562 0.26559 0.0
H153 H 0.19741 0.36911 0.28491 0.0
H154 H 0.18408 0.36107 0.34395 0.0
H155 H 0.16689 0.36665 0.3938 0.0
C156 C 0.7406 0.19344 0.49023 0.0
C157 C 0.74683 0.18412 0.51609 0.0
C158 C 0.75474 0.20601 0.46444 0.0
C159 C 0.77551 0.20968 0.46414 0.0
C160 C 0.78178 0.20063 0.49035 0.0
C161 C 0.76765 0.18805 0.51611 0.0
C162 C 0.79068 0.22167 0.43594 0.0
C163 C 0.78899 0.23547 0.41494 0.0
C164 C 0.8041 0.24679 0.38635 0.0
C165 C 0.80733 0.26648 0.37568 0.0
C166 C 0.82161 0.27764 0.3491 0.0
C167 C 0.83276 0.26917 0.33235 0.0
H168 H 0.81225 0.22261 0.3756 0.0
C169 C 0.82909 0.24919 0.34237 0.0
C170 C 0.81488 0.23809 0.36901 0.0
H171 H 0.83727 0.24213 0.32977 0.0
H172 H 0.72462 0.19058 0.48934 0.0
H173 H 0.74904 0.21218 0.44427 0.0
H174 H 0.79762 0.20308 0.49069 0.0
H175 H 0.77294 0.18108 0.53561 0.0
H176 H 0.80414 0.21938 0.4331 0.0
H177 H 0.77679 0.23943 0.41963 0.0
H178 H 0.79903 0.27342 0.38829 0.0
H179 H 0.824 0.29295 0.34186 0.0
C180 C 0.53856 0.73947 0.62969 0.0
C181 C 0.55062 0.74474 0.6603 0.0
C182 C 0.54441 0.75388 0.60233 0.0
C183 C 0.56238 0.774 0.60516 0.0
C184 C 0.57419 0.77933 0.63602 0.0
C185 C 0.56838 0.7649 0.66331 0.0
C186 C 0.57006 0.78941 0.57602 0.0
C187 C 0.55814 0.78858 0.54871 0.0
C188 C 0.56641 0.80385 0.51945 0.0
C189 C 0.55237 0.80753 0.49998 0.0
C190 C 0.55961 0.82186 0.47239 0.0
C191 C 0.58106 0.83267 0.46348 0.0
H192 H 0.59903 0.81135 0.52346 0.0
C193 C 0.59505 0.82862 0.4824 0.0
C194 C 0.58782 0.81432 0.50999 0.0
H195 H 0.61164 0.83653 0.47598 0.0
H196 H 0.52489 0.724 0.62643 0.0
H197 H 0.53514 0.74883 0.57877 0.0
H198 H 0.58815 0.79464 0.6389 0.0
H199 H 0.57804 0.76945 0.68651 0.0
H200 H 0.58617 0.80231 0.57779 0.0
H201 H 0.54151 0.77696 0.54822 0.0
H202 H 0.53577 0.79949 0.50641 0.0
H203 H 0.5484 0.82455 0.45823 0.0
C204 C 0.76142 0.60919 0.66138 0.0
C205 C 0.74233 0.59405 0.64635 0.0
C206 C 0.77097 0.60353 0.68736 0.0
C207 C 0.76154 0.58257 0.6991 0.0
C208 C 0.74258 0.56742 0.68379 0.0
C209 C 0.73302 0.57309 0.65781 0.0
C210 C 0.77147 0.5758 0.72603 0.0
C211 C 0.78507 0.58898 0.75002 0.0
C212 C 0.79589 0.58269 0.77609 0.0
C213 C 0.80478 0.59542 0.80555 0.0
C214 C 0.81618 0.59084 0.82968 0.0
C215 C 0.81906 0.57347 0.82477 0.0
H216 H 0.79261 0.55525 0.74856 0.0
C217 C 0.80999 0.56056 0.79552 0.0
C218 C 0.79861 0.56515 0.77135 0.0
H219 H 0.81207 0.54715 0.79083 0.0
H220 H 0.76911 0.62544 0.6529 0.0
H221 H 0.78594 0.61556 0.69753 0.0
H222 H 0.73509 0.55114 0.69205 0.0
H223 H 0.71835 0.56103 0.64667 0.0
H224 H 0.76679 0.55924 0.72661 0.0
H225 H 0.78814 0.60505 0.75137 0.0
H226 H 0.80307 0.6091 0.80977 0.0
H227 H 0.823 0.60114 0.8519 0.0
C228 C 0.2129 0.82071 0.04829 0.0
C229 C 0.23245 0.82419 0.06051 0.0
C230 C 0.2042 0.80926 0.01781 0.0
C231 C 0.21495 0.80116 0.9987 0.0
C232 C 0.23411 0.804 0.01159 0.0
C233 C 0.24284 0.81548 0.04208 0.0
C234 C 0.20653 0.78948 0.96557 0.0
C235 C 0.19372 0.79266 0.94441 0.0
C236 C 0.18525 0.78143 0.9109 0.0
C237 C 0.17716 0.78995 0.8868 0.0
C238 C 0.16829 0.7796 0.85554 0.0
C239 C 0.16723 0.76039 0.84771 0.0
H240 H 0.18974 0.75471 0.92113 0.0
C241 C 0.17543 0.75187 0.87166 0.0
C242 C 0.18426 0.7622 0.903 0.0
H243 H 0.17468 0.73698 0.86654 0.0
H244 H 0.20438 0.827 0.06209 0.0
H245 H 0.189 0.80671 0.0095 0.0
H246 H 0.24259 0.7977 0.99765 0.0
H247 H 0.25787 0.81778 0.0509 0.0
H248 H 0.21213 0.77893 0.95765 0.0
H249 H 0.18982 0.8047 0.95109 0.0
H250 H 0.17759 0.80466 0.89223 0.0
H251 H 0.16206 0.78657 0.8377 0.0
C252 C 0.44362 0.16727 0.97111 0.0
C253 C 0.42532 0.16108 0.95135 0.0
C254 C 0.45165 0.18507 0.99239 0.0
C255 C 0.44161 0.19713 0.99405 0.0
C256 C 0.42371 0.1913 0.97352 0.0
C257 C 0.41549 0.17332 0.95266 0.0
C258 C 0.44955 0.21596 0.01661 0.0
C259 C 0.45851 0.21731 0.04778 0.0
C260 C 0.46479 0.23546 0.07139 0.0
C261 C 0.46249 0.23203 0.10742 0.0
C262 C 0.46721 0.24867 0.13019 0.0
C263 C 0.47479 0.26915 0.11734 0.0
H264 H 0.47539 0.25926 0.03097 0.0
C265 C 0.47794 0.27272 0.08136 0.0
C266 C 0.4729 0.25603 0.05857 0.0
H267 H 0.48384 0.28834 0.07068 0.0
H268 H 0.4516 0.1582 0.97052 0.0
H269 H 0.4658 0.18946 0.00725 0.0
H270 H 0.41582 0.20045 0.97413 0.0
H271 H 0.40145 0.16902 0.93754 0.0
H272 H 0.44637 0.2283 0.00853 0.0
H273 H 0.45963 0.204 0.05757 0.0
H274 H 0.45646 0.21635 0.11791 0.0
H275 H 0.46476 0.24546 0.15781 0.0
C276 C 0.32928 0.3585 0.11672 0.0
C277 C 0.33207 0.37875 0.11254 0.0
C278 C 0.34577 0.35583 0.12871 0.0
C279 C 0.36539 0.3734 0.13697 0.0
C280 C 0.36799 0.39362 0.13364 0.0
C281 C 0.35152 0.39629 0.12137 0.0
C282 C 0.38315 0.37102 0.15005 0.0
C283 C 0.38599 0.35499 0.14025 0.0
C284 C 0.40376 0.35241 0.15244 0.0
C285 C 0.41078 0.34169 0.13104 0.0
C286 C 0.42704 0.33835 0.14186 0.0
C287 C 0.43656 0.34548 0.17456 0.0
H288 H 0.40753 0.36703 0.20306 0.0
C289 C 0.42927 0.35586 0.19635 0.0
C290 C 0.41309 0.35941 0.18535 0.0
H291 H 0.43547 0.36064 0.22229 0.0
H292 H 0.31434 0.34469 0.1106 0.0
H293 H 0.34295 0.33997 0.13206 0.0
H294 H 0.38283 0.40739 0.1404 0.0
H295 H 0.35386 0.41205 0.11972 0.0
H296 H 0.39476 0.38341 0.16655 0.0
H297 H 0.37553 0.34384 0.12096 0.0
H298 H 0.40371 0.33593 0.10574 0.0
H299 H 0.43216 0.33016 0.12448 0.0
C300 C 0.94793 0.34858 0.33068 0.0
C301 C 0.94736 0.3532 0.29537 0.0
C302 C 0.96688 0.35814 0.34905 0.0
C303 C 0.98579 0.37233 0.33233 0.0
C304 C 0.98513 0.37738 0.29727 0.0
C305 C 0.96612 0.3678 0.27887 0.0
C306 C 0.0064 0.38196 0.35058 0.0
C307 C 0.01029 0.3724 0.37719 0.0
C308 C 0.03122 0.38093 0.394 0.0
C309 C 0.03632 0.36683 0.40991 0.0
C310 C 0.05606 0.37404 0.42506 0.0
C311 C 0.07098 0.3956 0.42526 0.0
H312 H 0.04254 0.414 0.38337 0.0
C313 C 0.06577 0.40982 0.41006 0.0
C314 C 0.04605 0.40259 0.39466 0.0
H315 H 0.07715 0.42646 0.40899 0.0
H316 H 0.93367 0.33753 0.34419 0.0
H317 H 0.96657 0.35438 0.37633 0.0
H318 H -0.00054 0.3883 0.28378 0.0
H319 H 0.96632 0.37127 0.25149 0.0
H320 H 0.01911 0.3965 0.33998 0.0
H321 H -0.00187 0.35687 0.38542 0.0
H322 H 0.02515 0.35009 0.41 0.0
H323 H 0.05968 0.36273 0.43654 0.0
C324 C 0.6277 0.95561 0.4314 0.0
C325 C 0.60665 0.94083 0.42386 0.0
C326 C 0.63275 0.97398 0.44967 0.0
C327 C 0.6168 0.97797 0.4609 0.0
C328 C 0.59574 0.96306 0.45374 0.0
C329 C 0.5907 0.94469 0.43528 0.0
C330 C 0.62162 0.99698 0.48159 0.0
C331 C 0.64 0.01518 0.47875 0.0
C332 C 0.64566 0.0342 0.49995 0.0
C333 C 0.66127 0.05378 0.48736 0.0
C334 C 0.66806 0.07196 0.50718 0.0
C335 C 0.65946 0.07101 0.54025 0.0
H336 H 0.62547 0.01827 0.54425 0.0
C337 C 0.64387 0.05143 0.55304 0.0
C338 C 0.63699 0.03317 0.53308 0.0
H339 H 0.63758 0.05 0.57895 0.0
H340 H 0.64031 0.95288 0.42339 0.0
H341 H 0.64912 0.98469 0.45573 0.0
H342 H 0.58313 0.96555 0.46264 0.0
H343 H 0.5743 0.93321 0.43113 0.0
H344 H 0.60939 0.99609 0.49863 0.0
H345 H 0.6513 0.01655 0.45917 0.0
H346 H 0.66837 0.05502 0.46211 0.0
H347 H 0.68017 0.08681 0.49662 0.0
C348 C 0.56819 0.65423 0.6804 0.0
C349 C 0.5626 0.65116 0.71575 0.0
C350 C 0.57954 0.64554 0.66578 0.0
C351 C 0.58582 0.63377 0.68632 0.0
C352 C 0.57969 0.63014 0.7214 0.0
C353 C 0.56833 0.6389 0.7361 0.0
C354 C 0.59891 0.62533 0.67185 0.0
C355 C 0.61307 0.63524 0.64632 0.0
C356 C 0.62717 0.62791 0.63234 0.0
C357 C 0.64639 0.64278 0.61743 0.0
C358 C 0.66014 0.63664 0.60381 0.0
C359 C 0.65476 0.6154 0.60413 0.0
H360 H 0.60689 0.59462 0.64333 0.0
C361 C 0.63546 0.60042 0.61873 0.0
C362 C 0.62175 0.6066 0.63269 0.0
H363 H 0.63114 0.58401 0.62009 0.0
H364 H 0.56383 0.66345 0.66397 0.0
H365 H 0.58333 0.64807 0.63836 0.0
H366 H 0.58428 0.62107 0.73776 0.0
H367 H 0.5648 0.63674 0.7636 0.0
H368 H 0.5979 0.61154 0.68424 0.0
H369 H 0.61547 0.65019 0.63659 0.0
H370 H 0.6509 0.65928 0.61663 0.0
H371 H 0.67494 0.64852 0.59273 0.0
C372 C 0.94837 0.59428 0.88106 0.0
C373 C 0.93003 0.58958 0.86252 0.0
C374 C 0.96816 0.6057 0.86534 0.0
C375 C 0.96997 0.61276 0.83078 0.0
C376 C 0.95165 0.6082 0.81243 0.0
C377 C 0.93191 0.59669 0.82804 0.0
C378 C 0.99068 0.62612 0.81384 0.0
C379 C 0.00827 0.62574 0.82255 0.0
C380 C 0.02906 0.63991 0.80642 0.0
C381 C 0.04424 0.63359 0.80528 0.0
C382 C 0.06428 0.64697 0.79171 0.0
C383 C 0.06958 0.66702 0.77927 0.0
H384 H 0.02342 0.66578 0.79552 0.0
C385 C 0.05449 0.67345 0.78068 0.0
C386 C 0.03442 0.66004 0.79402 0.0
H387 H 0.05828 0.68896 0.77176 0.0
H388 H 0.94759 0.58994 0.9081 0.0
H389 H 0.98198 0.60961 0.88078 0.0
H390 H 0.95259 0.61364 0.78593 0.0
H391 H 0.91808 0.59346 0.81311 0.0
H392 H 0.9912 0.63615 0.79262 0.0
H393 H 0.0074 0.61425 0.84131 0.0
H394 H 0.04065 0.61833 0.81523 0.0
H395 H 0.07584 0.64191 0.79224 0.0
C396 C 0.37834 0.04527 0.98538 0.0
C397 C 0.38401 0.0434 0.95123 0.0
C398 C 0.371 0.02835 0.00848 0.0
C399 C 0.36879 0.00901 0.99769 0.0
C400 C 0.37483 0.0073 0.96371 0.0
C401 C 0.38227 0.02428 0.94064 0.0
C402 C 0.3602 0.99031 0.02095 0.0
C403 C 0.34733 0.98747 0.048 0.0
C404 C 0.3371 0.96796 0.06932 0.0
C405 C 0.31806 0.96256 0.0861 0.0
C406 C 0.30729 0.94381 0.10485 0.0
C407 C 0.31553 0.93022 0.10777 0.0
H408 H 0.36056 0.95848 0.06125 0.0
C409 C 0.3349 0.93589 0.09194 0.0
C410 C 0.34566 0.95463 0.07303 0.0
H411 H 0.34137 0.92549 0.09291 0.0
H412 H 0.37972 0.05991 0.99437 0.0
H413 H 0.36724 0.03064 0.03474 0.0
H414 H 0.37334 0.99262 0.95469 0.0
H415 H 0.38599 0.02217 0.91426 0.0
H416 H 0.36334 0.97782 0.01379 0.0
H417 H 0.3426 -0.00094 0.05315 0.0
H418 H 0.31119 0.9726 0.08394 0.0
H419 H 0.29236 0.93982 0.11674 0.0
C420 C 0.40596 0.47683 0.99045 0.0
C421 C 0.41052 0.47074 0.02246 0.0
C422 C 0.42191 0.49284 0.97076 0.0
C423 C 0.44288 0.50308 0.98252 0.0
C424 C 0.44743 0.49708 0.01461 0.0
C425 C 0.43145 0.481 0.03431 0.0
C426 C 0.46005 0.52083 0.96291 0.0
C427 C 0.45936 0.52311 0.92822 0.0
C428 C 0.47525 0.54168 0.90831 0.0
C429 C 0.47587 0.54006 0.87199 0.0
C430 C 0.48915 0.55759 0.85182 0.0
C431 C 0.50206 0.57722 0.86756 0.0
H432 H 0.48823 0.5634 0.95192 0.0
C433 C 0.50184 0.57878 0.90397 0.0
C434 C 0.48854 0.56124 0.92416 0.0
H435 H 0.51152 0.5937 0.91691 0.0
H436 H 0.38998 0.46939 0.98066 0.0
H437 H 0.41757 0.49746 0.94683 0.0
H438 H 0.4634 0.50487 0.02448 0.0
H439 H 0.43548 0.47675 0.05894 0.0
H440 H 0.47372 0.53204 0.97761 0.0
H441 H 0.44658 0.51074 0.91336 0.0
H442 H 0.46575 0.52525 0.85903 0.0
H443 H 0.48893 0.55583 0.82383 0.0
C444 C 0.95334 0.51938 0.00529 0.0
C445 C 0.9412 0.52801 0.01749 0.0
C446 C 0.95835 0.50732 0.02729 0.0
C447 C 0.95112 0.50347 0.06193 0.0
C448 C 0.93974 0.51283 0.07439 0.0
C449 C 0.93478 0.52491 0.05246 0.0
C450 C 0.95462 0.48949 0.08573 0.0
C451 C 0.95846 0.47429 0.07461 0.0
C452 C 0.95873 0.45829 0.0981 0.0
C453 C 0.95434 0.43888 0.08393 0.0
C454 C 0.95272 0.42274 0.10532 0.0
C455 C 0.95557 0.42569 0.14144 0.0
H456 H 0.96688 0.4766 0.14592 0.0
C457 C 0.96099 0.44545 0.1555 0.0
C458 C 0.96265 0.46163 0.13407 0.0
H459 H 0.96359 0.44834 0.18318 0.0
H460 H 0.95878 0.52172 0.9786 0.0
H461 H 0.96782 0.50108 0.01691 0.0
H462 H 0.93416 0.51035 0.10102 0.0
H463 H 0.92554 0.53146 0.0628 0.0
H464 H 0.95189 0.49055 0.11321 0.0
H465 H 0.95941 0.47205 0.04691 0.0
H466 H 0.95151 0.43593 0.05629 0.0
H467 H 0.9487 0.40777 0.09357 0.0
C468 C 0.50771 0.93324 0.31694 0.0
C469 C 0.52049 0.92752 0.29802 0.0
C470 C 0.49128 0.93439 0.3006 0.0
C471 C 0.48735 0.92996 0.26484 0.0
C472 C 0.50024 0.92441 0.24599 0.0
C473 C 0.51668 0.92329 0.2623 0.0
C474 C 0.46927 0.92965 0.24671 0.0
C475 C 0.45951 0.93998 0.25808 0.0
C476 C 0.44043 0.93821 0.2412 0.0
C477 C 0.42679 0.94219 0.26124 0.0
C478 C 0.40812 0.93966 0.24703 0.0
C479 C 0.40275 0.93324 0.2123 0.0
H480 H 0.44587 0.93013 0.18922 0.0
C481 C 0.41677 0.93003 0.1918 0.0
C482 C 0.43544 0.93256 0.20601 0.0
H483 H 0.41324 0.92534 0.16481 0.0
H484 H 0.51015 0.93647 0.34456 0.0
H485 H 0.48139 0.93812 0.31642 0.0
H486 H 0.4975 0.92076 0.21851 0.0
H487 H 0.52619 0.9188 0.24694 0.0
H488 H 0.46372 0.92017 0.22329 0.0
H489 H 0.46503 0.94944 0.28151 0.0
H490 H 0.43033 0.9468 0.28827 0.0
H491 H 0.39776 0.94241 0.2635 0.0
C492 C 0.58178 0.52996 0.45034 0.0
C493 C 0.58265 0.52855 0.48668 0.0
C494 C 0.56644 0.51316 0.43103 0.0
C495 C 0.55141 0.49456 0.4477 0.0
C496 C 0.55202 0.49338 0.48412 0.0
C497 C 0.56743 0.51018 0.50343 0.0
C498 C 0.53609 0.47554 0.42799 0.0
C499 C 0.53094 0.47589 0.39441 0.0
C500 C 0.51794 0.45666 0.37322 0.0
C501 C 0.50975 0.45873 0.34137 0.0
C502 C 0.49916 0.44151 0.31907 0.0
C503 C 0.49658 0.42179 0.3281 0.0
H504 H 0.52146 0.43446 0.40625 0.0
C505 C 0.50431 0.41956 0.3603 0.0
C506 C 0.51497 0.43678 0.38253 0.0
H507 H 0.5027 0.40461 0.36799 0.0
H508 H 0.59334 0.54384 0.43658 0.0
H509 H 0.56706 0.51465 0.40303 0.0
H510 H 0.54078 0.47923 0.49768 0.0
H511 H 0.56765 0.50857 0.53141 0.0
H512 H 0.52896 0.46071 0.44194 0.0
H513 H 0.53654 0.49089 0.38142 0.0
H514 H 0.5119 0.47385 0.33336 0.0
H515 H 0.49338 0.44377 0.29445 0.0
C516 C 0.07145 0.58698 0.62817 0.0
C517 C 0.07459 0.58967 0.66429 0.0
C518 C 0.0688 0.56875 0.61199 0.0
C519 C 0.06935 0.55283 0.63164 0.0
C520 C 0.0717 0.5552 0.66788 0.0
C521 C 0.0744 0.57345 0.68404 0.0
C522 C 0.06768 0.53365 0.61544 0.0
C523 C 0.07375 0.53314 0.58251 0.0
C524 C 0.07409 0.51476 0.56677 0.0
C525 C 0.07575 0.51406 0.53046 0.0
C526 C 0.07752 0.49787 0.51459 0.0
C527 C 0.07779 0.48203 0.53476 0.0
H528 H 0.07348 0.49884 0.615 0.0
C529 C 0.07584 0.48252 0.57105 0.0
C530 C 0.07411 0.49873 0.58693 0.0
H531 H 0.07612 0.47063 0.58738 0.0
H532 H 0.07124 0.59906 0.61224 0.0
H533 H 0.06624 0.56721 0.58418 0.0
H534 H 0.07195 0.5431 0.6837 0.0
H535 H 0.07662 0.57495 0.71196 0.0
H536 H 0.06223 0.51995 0.63202 0.0
H537 H 0.0793 0.54701 0.56622 0.0
H538 H 0.07591 0.52623 0.51425 0.0
H539 H 0.079 0.49797 0.48655 0.0
C540 C 0.57304 0.05691 0.7115 0.0
C541 C 0.57295 0.05277 0.6758 0.0
C542 C 0.55437 0.05201 0.72874 0.0
C543 C 0.53507 0.04262 0.7107 0.0
C544 C 0.53497 0.0381 0.67517 0.0
C545 C 0.55366 0.04306 0.6579 0.0
C546 C 0.51514 0.03896 0.72716 0.0
C547 C 0.51207 0.03828 0.76184 0.0
C548 C 0.49326 0.03738 0.7783 0.0
C549 C 0.489 0.03155 0.81346 0.0
C550 C 0.47264 0.03232 0.83081 0.0
C551 C 0.46022 0.03908 0.81337 0.0
H552 H 0.48355 0.04903 0.73398 0.0
C553 C 0.46416 0.0445 0.77802 0.0
C554 C 0.48054 0.04378 0.76071 0.0
H555 H 0.45498 0.0499 0.76385 0.0
H556 H 0.58764 0.06449 0.72603 0.0
H557 H 0.5554 0.05638 0.75582 0.0
H558 H 0.5204 0.03103 0.66052 0.0
H559 H 0.55304 0.03966 0.63037 0.0
H560 H 0.50259 0.03682 0.70971 0.0
H561 H 0.52379 0.03844 0.77925 0.0
H562 H 0.49861 0.02672 0.82777 0.0
H563 H 0.47003 0.02805 0.85807 0.0
loop_
_geom_bond_atom_site_label_1
_geom_bond_atom_site_label_2
_geom_bond_distance
_geom_bond_site_symmetry_2
_ccdc_geom_bond_type
O0 Cd1 2.300 . S
O0 C7 1.275 . S
Cd1 O0 2.300 . S
Cd1 O9 2.381 . S
Cd1 O10 2.378 . S
O2 Cd3 2.385 . S
O2 C7 1.255 . S
Cd3 O2 2.385 . S
Cd3 O4 2.317 . S
O4 Cd3 2.317 . S
O4 C5 1.232 . S
C5 O4 1.232 . S
C5 O6 1.218 . S
O6 C5 1.218 . S
C7 O0 1.275 . S
C7 O2 1.255 . S
C8 O9 1.258 . S
C8 O10 1.256 . S
O9 Cd1 2.381 . S
O9 C8 1.258 . S
O10 Cd1 2.378 . S
O10 C8 1.256 . S
O11 Cd12 2.300 . S
O11 C18 1.275 . S
Cd12 O11 2.300 . S
Cd12 O20 2.381 . S
Cd12 O21 2.378 . S
O13 Cd14 2.385 . S
O13 C18 1.255 . S
Cd14 O13 2.385 . S
Cd14 O15 2.317 . S
O15 Cd14 2.317 . S
O15 C16 1.232 . S
C16 O15 1.232 . S
C16 O17 1.218 . S
O17 C16 1.218 . S
C18 O11 1.275 . S
C18 O13 1.255 . S
C19 O20 1.258 . S
C19 O21 1.256 . S
O20 Cd12 2.381 . S
O20 C19 1.258 . S
O21 Cd12 2.378 . S
O21 C19 1.256 . S
O22 Cd23 2.300 . S
O22 C29 1.275 . S
Cd23 O22 2.300 . S
Cd23 O31 2.381 . S
Cd23 O32 2.378 . S
O24 Cd25 2.385 . S
O24 C29 1.255 . S
Cd25 O24 2.385 . S
Cd25 O26 2.317 . S
O26 Cd25 2.317 . S
O26 C27 1.232 . S
C27 O26 1.232 . S
C27 O28 1.218 . S
O28 C27 1.218 . S
C29 O22 1.275 . S
C29 O24 1.255 . S
C30 O31 1.258 . S
C30 O32 1.256 . S
O31 Cd23 2.381 . S
O31 C30 1.258 . S
O32 Cd23 2.378 . S
O32 C30 1.256 . S
O33 Cd34 2.300 . S
O33 C40 1.275 . S
Cd34 O33 2.300 . S
Cd34 O42 2.381 . S
Cd34 O43 2.378 . S
O35 Cd36 2.385 . S
O35 C40 1.255 . S
Cd36 O35 2.385 . S
Cd36 O37 2.317 . S
O37 Cd36 2.317 . S
O37 C38 1.232 . S
C38 O37 1.232 . S
C38 O39 1.218 . S
O39 C38 1.218 . S
C40 O33 1.275 . S
C40 O35 1.255 . S
C41 O42 1.258 . S
C41 O43 1.256 . S
O42 Cd34 2.381 . S
O42 C41 1.258 . S
O43 Cd34 2.378 . S
O43 C41 1.256 . S
O44 Cd45 2.300 . S
O44 C51 1.275 . S
Cd45 O44 2.300 . S
Cd45 O53 2.381 . S
Cd45 O54 2.378 . S
O46 Cd47 2.385 . S
O46 C51 1.255 . S
Cd47 O46 2.385 . S
Cd47 O48 2.317 . S
O48 Cd47 2.317 . S
O48 C49 1.232 . S
C49 O48 1.232 . S
C49 O50 1.218 . S
O50 C49 1.218 . S
C51 O44 1.275 . S
C51 O46 1.255 . S
C52 O53 1.258 . S
C52 O54 1.256 . S
O53 Cd45 2.381 . S
O53 C52 1.258 . S
O54 Cd45 2.378 . S
O54 C52 1.256 . S
O55 Cd56 2.300 . S
O55 C62 1.275 . S
Cd56 O55 2.300 . S
Cd56 O64 2.381 . S
Cd56 O65 2.378 . S
O57 Cd58 2.385 . S
O57 C62 1.255 . S
Cd58 O57 2.385 . S
Cd58 O59 2.317 . S
O59 Cd58 2.317 . S
O59 C60 1.232 . S
C60 O59 1.232 . S
C60 O61 1.218 . S
O61 C60 1.218 . S
C62 O55 1.275 . S
C62 O57 1.255 . S
C63 O64 1.258 . S
C63 O65 1.256 . S
O64 Cd56 2.381 . S
O64 C63 1.258 . S
O65 Cd56 2.378 . S
O65 C63 1.256 . S
O66 Cd67 2.300 . S
O66 C73 1.275 . S
Cd67 O66 2.300 . S
Cd67 O75 2.381 . S
Cd67 O76 2.378 . S
O68 Cd69 2.385 . S
O68 C73 1.255 . S
Cd69 O68 2.385 . S
Cd69 O70 2.317 . S
O70 Cd69 2.317 . S
O70 C71 1.232 . S
C71 O70 1.232 . S
C71 O72 1.218 . S
O72 C71 1.218 . S
C73 O66 1.275 . S
C73 O68 1.255 . S
C74 O75 1.258 . S
C74 O76 1.256 . S
O75 Cd67 2.381 . S
O75 C74 1.258 . S
O76 Cd67 2.378 . S
O76 C74 1.256 . S
O77 Cd78 2.300 . S
O77 C84 1.275 . S
Cd78 O77 2.300 . S
Cd78 O86 2.381 . S
Cd78 O87 2.378 . S
O79 Cd80 2.385 . S
O79 C84 1.255 . S
Cd80 O79 2.385 . S
Cd80 O81 2.317 . S
O81 Cd80 2.317 . S
O81 C82 1.232 . S
C82 O81 1.232 . S
C82 O83 1.218 . S
O83 C82 1.218 . S
C84 O77 1.275 . S
C84 O79 1.255 . S
C85 O86 1.258 . S
C85 O87 1.256 . S
O86 Cd78 2.381 . S
O86 C85 1.258 . S
O87 Cd78 2.378 . S
O87 C85 1.256 . S
O88 Cd89 2.300 . S
O88 C95 1.275 . S
Cd89 O88 2.300 . S
Cd89 O97 2.381 . S
Cd89 O98 2.378 . S
O90 Cd91 2.385 . S
O90 C95 1.255 . S
Cd91 O90 2.385 . S
Cd91 O92 2.317 . S
O92 Cd91 2.317 . S
O92 C93 1.232 . S
C93 O92 1.232 . S
C93 O94 1.218 . S
O94 C93 1.218 . S
C95 O88 1.275 . S
C95 O90 1.255 . S
C96 O97 1.258 . S
C96 O98 1.256 . S
O97 Cd89 2.381 . S
O97 C96 1.258 . S
O98 Cd89 2.378 . S
O98 C96 1.256 . S
O99 Cd100 2.300 . S
O99 C106 1.275 . S
Cd100 O99 2.300 . S
Cd100 O108 2.381 . S
Cd100 O109 2.378 . S
O101 Cd102 2.385 . S
O101 C106 1.255 . S
Cd102 O101 2.385 . S
Cd102 O103 2.317 . S
O103 Cd102 2.317 . S
O103 C104 1.232 . S
C104 O103 1.232 . S
C104 O105 1.218 . S
O105 C104 1.218 . S
C106 O99 1.275 . S
C106 O101 1.255 . S
C107 O108 1.258 . S
C107 O109 1.256 . S
O108 Cd100 2.381 . S
O108 C107 1.258 . S
O109 Cd100 2.378 . S
O109 C107 1.256 . S
O110 Cd111 2.300 . S
O110 C117 1.275 . S
Cd111 O110 2.300 . S
Cd111 O119 2.381 . S
Cd111 O120 2.378 . S
O112 Cd113 2.385 . S
O112 C117 1.255 . S
Cd113 O112 2.385 . S
Cd113 O114 2.317 . S
O114 Cd113 2.317 . S
O114 C115 1.232 . S
C115 O114 1.232 . S
C115 O116 1.218 . S
O116 C115 1.218 . S
C117 O110 1.275 . S
C117 O112 1.255 . S
C118 O119 1.258 . S
C118 O120 1.256 . S
O119 Cd111 2.381 . S
O119 C118 1.258 . S
O120 Cd111 2.378 . S
O120 C118 1.256 . S
O121 Cd122 2.300 . S
O121 C128 1.275 . S
Cd122 O121 2.300 . S
Cd122 O130 2.381 . S
Cd122 O131 2.378 . S
O123 Cd124 2.385 . S
O123 C128 1.255 . S
Cd124 O123 2.385 . S
Cd124 O125 2.317 . S
O125 Cd124 2.317 . S
O125 C126 1.232 . S
C126 O125 1.232 . S
C126 O127 1.218 . S
O127 C126 1.218 . S
C128 O121 1.275 . S
C128 O123 1.255 . S
C129 O130 1.258 . S
C129 O131 1.256 . S
O130 Cd122 2.381 . S
O130 C129 1.258 . S
O131 Cd122 2.378 . S
O131 C129 1.256 . S
C132 C133 1.386 . S
C132 C134 1.383 . S
C132 H148 0.951 . S
C133 C132 1.386 . S
C133 C137 1.383 . S
C134 C132 1.383 . S
C134 C135 1.402 . S
C134 H149 0.951 . S
C135 C134 1.402 . S
C135 C136 1.375 . S
C135 C138 1.481 . S
C136 C135 1.375 . S
C136 C137 1.367 . S
C136 H150 0.951 . S
C137 C133 1.383 . S
C137 C136 1.367 . S
C137 H151 0.950 . S
C138 C135 1.481 . S
C138 C139 1.297 . S
C138 H152 0.950 . S
C139 C138 1.297 . S
C139 C140 1.479 . S
C139 H153 0.950 . S
C140 C139 1.479 . S
C140 C141 1.375 . S
C140 C146 1.404 . S
C141 C140 1.375 . S
C141 C142 1.369 . S
C141 H154 0.950 . S
C142 C141 1.369 . S
C142 C143 1.392 . S
C142 H155 0.951 . S
C143 C142 1.392 . S
C143 C145 1.384 . S
H144 C146 0.949 . S
C145 C143 1.384 . S
C145 C146 1.385 . S
C145 H147 0.950 . S
C146 C140 1.404 . S
C146 H144 0.949 . S
C146 C145 1.385 . S
H147 C145 0.950 . S
H148 C132 0.951 . S
H149 C134 0.951 . S
H150 C136 0.951 . S
H151 C137 0.950 . S
H152 C138 0.950 . S
H153 C139 0.950 . S
H154 C141 0.950 . S
H155 C142 0.951 . S
C156 C157 1.386 . S
C156 C158 1.383 . S
C156 H172 0.951 . S
C157 C156 1.386 . S
C157 C161 1.383 . S
C158 C156 1.383 . S
C158 C159 1.402 . S
C158 H173 0.951 . S
C159 C158 1.402 . S
C159 C160 1.375 . S
C159 C162 1.481 . S
C160 C159 1.375 . S
C160 C161 1.367 . S
C160 H174 0.951 . S
C161 C157 1.383 . S
C161 C160 1.367 . S
C161 H175 0.950 . S
C162 C159 1.481 . S
C162 C163 1.297 . S
C162 H176 0.950 . S
C163 C162 1.297 . S
C163 C164 1.479 . S
C163 H177 0.950 . S
C164 C163 1.479 . S
C164 C165 1.375 . S
C164 C170 1.404 . S
C165 C164 1.375 . S
C165 C166 1.369 . S
C165 H178 0.950 . S
C166 C165 1.369 . S
C166 C167 1.392 . S
C166 H179 0.951 . S
C167 C166 1.392 . S
C167 C169 1.384 . S
H168 C170 0.949 . S
C169 C167 1.384 . S
C169 C170 1.385 . S
C169 H171 0.950 . S
C170 C164 1.404 . S
C170 H168 0.949 . S
C170 C169 1.385 . S
H171 C169 0.950 . S
H172 C156 0.951 . S
H173 C158 0.951 . S
H174 C160 0.951 . S
H175 C161 0.950 . S
H176 C162 0.950 . S
H177 C163 0.950 . S
H178 C165 0.950 . S
H179 C166 0.951 . S
C180 C181 1.386 . S
C180 C182 1.383 . S
C180 H196 0.951 . S
C181 C180 1.386 . S
C181 C185 1.383 . S
C182 C180 1.383 . S
C182 C183 1.402 . S
C182 H197 0.951 . S
C183 C182 1.402 . S
C183 C184 1.375 . S
C183 C186 1.481 . S
C184 C183 1.375 . S
C184 C185 1.367 . S
C184 H198 0.951 . S
C185 C181 1.383 . S
C185 C184 1.367 . S
C185 H199 0.950 . S
C186 C183 1.481 . S
C186 C187 1.297 . S
C186 H200 0.950 . S
C187 C186 1.297 . S
C187 C188 1.479 . S
C187 H201 0.950 . S
C188 C187 1.479 . S
C188 C189 1.375 . S
C188 C194 1.404 . S
C189 C188 1.375 . S
C189 C190 1.369 . S
C189 H202 0.950 . S
C190 C189 1.369 . S
C190 C191 1.392 . S
C190 H203 0.951 . S
C191 C190 1.392 . S
C191 C193 1.384 . S
H192 C194 0.949 . S
C193 C191 1.384 . S
C193 C194 1.385 . S
C193 H195 0.950 . S
C194 C188 1.404 . S
C194 H192 0.949 . S
C194 C193 1.385 . S
H195 C193 0.950 . S
H196 C180 0.951 . S
H197 C182 0.951 . S
H198 C184 0.951 . S
H199 C185 0.950 . S
H200 C186 0.950 . S
H201 C187 0.950 . S
H202 C189 0.950 . S
H203 C190 0.951 . S
C204 C205 1.386 . S
C204 C206 1.383 . S
C204 H220 0.951 . S
C205 C204 1.386 . S
C205 C209 1.383 . S
C206 C204 1.383 . S
C206 C207 1.402 . S
C206 H221 0.951 . S
C207 C206 1.402 . S
C207 C208 1.375 . S
C207 C210 1.481 . S
C208 C207 1.375 . S
C208 C209 1.367 . S
C208 H222 0.951 . S
C209 C205 1.383 . S
C209 C208 1.367 . S
C209 H223 0.950 . S
C210 C207 1.481 . S
C210 C211 1.297 . S
C210 H224 0.950 . S
C211 C210 1.297 . S
C211 C212 1.479 . S
C211 H225 0.950 . S
C212 C211 1.479 . S
C212 C213 1.375 . S
C212 C218 1.404 . S
C213 C212 1.375 . S
C213 C214 1.369 . S
C213 H226 0.950 . S
C214 C213 1.369 . S
C214 C215 1.392 . S
C214 H227 0.951 . S
C215 C214 1.392 . S
C215 C217 1.384 . S
H216 C218 0.949 . S
C217 C215 1.384 . S
C217 C218 1.385 . S
C217 H219 0.950 . S
C218 C212 1.404 . S
C218 H216 0.949 . S
C218 C217 1.385 . S
H219 C217 0.950 . S
H220 C204 0.951 . S
H221 C206 0.951 . S
H222 C208 0.951 . S
H223 C209 0.950 . S
H224 C210 0.950 . S
H225 C211 0.950 . S
H226 C213 0.950 . S
H227 C214 0.951 . S
C228 C229 1.386 . S
C228 C230 1.383 . S
C228 H244 0.951 . S
C229 C228 1.386 . S
C229 C233 1.384 . S
C230 C228 1.383 . S
C230 C231 1.402 . S
C230 H245 0.951 . S
C231 C230 1.402 . S
C231 C232 1.375 . S
C231 C234 1.481 . S
C232 C231 1.375 . S
C232 C233 1.369 . S
C232 H246 0.951 . S
C233 C229 1.384 . S
C233 C232 1.369 . S
C233 H247 0.946 1_556 S
C234 C231 1.481 . S
C234 C235 1.297 . S
C234 H248 0.950 . S
C235 C234 1.297 . S
C235 C236 1.479 . S
C235 H249 0.950 . S
C236 C235 1.479 . S
C236 C237 1.375 . S
C236 C242 1.404 . S
C237 C236 1.375 . S
C237 C238 1.369 . S
C237 H250 0.950 . S
C238 C237 1.369 . S
C238 C239 1.392 . S
C238 H251 0.951 . S
C239 C238 1.392 . S
C239 C241 1.384 . S
H240 C242 0.949 . S
C241 C239 1.384 . S
C241 C242 1.385 . S
C241 H243 0.950 . S
C242 C236 1.404 . S
C242 H240 0.949 . S
C242 C241 1.385 . S
H243 C241 0.950 . S
H244 C228 0.951 . S
H245 C230 0.951 . S
H246 C232 0.951 . S
H247 C233 0.946 1_554 S
H248 C234 0.950 . S
H249 C235 0.950 . S
H250 C237 0.950 . S
H251 C238 0.951 . S
C252 C253 1.386 . S
C252 C254 1.383 . S
C252 H268 0.951 . S
C253 C252 1.386 . S
C253 C257 1.383 1_554 S
C254 C252 1.383 . S
C254 C255 1.402 . S
C254 H269 0.951 . S
C255 C254 1.402 . S
C255 C256 1.375 . S
C255 C258 1.481 . S
C256 C255 1.375 . S
C256 C257 1.367 1_554 S
C256 H270 0.951 1_554 S
C257 C253 1.383 1_556 S
C257 C256 1.367 1_556 S
C257 H271 0.950 . S
C258 C255 1.481 . S
C258 C259 1.297 . S
C258 H272 0.950 . S
C259 C258 1.297 . S
C259 C260 1.479 . S
C259 H273 0.950 . S
C260 C259 1.479 . S
C260 C261 1.375 . S
C260 C266 1.404 . S
C261 C260 1.375 . S
C261 C262 1.369 . S
C261 H274 0.950 . S
C262 C261 1.369 . S
C262 C263 1.392 . S
C262 H275 0.951 . S
C263 C262 1.392 . S
C263 C265 1.384 . S
H264 C266 0.949 . S
C265 C263 1.384 . S
C265 C266 1.385 . S
C265 H267 0.950 . S
C266 C260 1.404 . S
C266 H264 0.949 . S
C266 C265 1.385 . S
H267 C265 0.950 . S
H268 C252 0.951 . S
H269 C254 0.951 . S
H270 C256 0.951 1_556 S
H271 C257 0.950 . S
H272 C258 0.950 . S
H273 C259 0.950 . S
H274 C261 0.950 . S
H275 C262 0.951 . S
C276 C277 1.386 . S
C276 C278 1.383 . S
C276 H292 0.951 . S
C277 C276 1.386 . S
C277 C281 1.383 . S
C278 C276 1.383 . S
C278 C279 1.402 . S
C278 H293 0.951 . S
C279 C278 1.402 . S
C279 C280 1.375 . S
C279 C282 1.481 . S
C280 C279 1.375 . S
C280 C281 1.367 . S
C280 H294 0.951 . S
C281 C277 1.383 . S
C281 C280 1.367 . S
C281 H295 0.950 . S
C282 C279 1.481 . S
C282 C283 1.297 . S
C282 H296 0.950 . S
C283 C282 1.297 . S
C283 C284 1.479 . S
C283 H297 0.950 . S
C284 C283 1.479 . S
C284 C285 1.375 . S
C284 C290 1.404 . S
C285 C284 1.375 . S
C285 C286 1.369 . S
C285 H298 0.950 . S
C286 C285 1.369 . S
C286 C287 1.392 . S
C286 H299 0.951 . S
C287 C286 1.392 . S
C287 C289 1.384 . S
H288 C290 0.949 . S
C289 C287 1.384 . S
C289 C290 1.385 . S
C289 H291 0.950 . S
C290 C284 1.404 . S
C290 H288 0.949 . S
C290 C289 1.385 . S
H291 C289 0.950 . S
H292 C276 0.951 . S
H293 C278 0.951 . S
H294 C280 0.951 . S
H295 C281 0.950 . S
H296 C282 0.950 . S
H297 C283 0.950 . S
H298 C285 0.950 . S
H299 C286 0.951 . S
C300 C301 1.386 . S
C300 C302 1.383 . S
C300 H316 0.951 . S
C301 C300 1.386 . S
C301 C305 1.383 . S
C302 C300 1.383 . S
C302 C303 1.402 . S
C302 H317 0.951 . S
C303 C302 1.402 . S
C303 C304 1.375 . S
C303 C306 1.481 . S
C304 C303 1.375 . S
C304 C305 1.367 . S
C304 H318 0.951 . S
C305 C301 1.383 . S
C305 C304 1.367 . S
C305 H319 0.950 . S
C306 C303 1.481 . S
C306 C307 1.297 1_655 S
C306 H320 0.950 . S
C307 C306 1.297 1_455 S
C307 C308 1.479 . S
C307 H321 0.950 . S
C308 C307 1.479 . S
C308 C309 1.375 . S
C308 C314 1.404 . S
C309 C308 1.375 . S
C309 C310 1.369 . S
C309 H322 0.950 . S
C310 C309 1.369 . S
C310 C311 1.392 . S
C310 H323 0.951 . S
C311 C310 1.392 . S
C311 C313 1.384 . S
H312 C314 0.949 . S
C313 C311 1.384 . S
C313 C314 1.385 . S
C313 H315 0.950 . S
C314 C308 1.404 . S
C314 H312 0.949 . S
C314 C313 1.385 . S
H315 C313 0.950 . S
H316 C300 0.951 . S
H317 C302 0.951 . S
H318 C304 0.951 . S
H319 C305 0.950 . S
H320 C306 0.950 . S
H321 C307 0.950 . S
H322 C309 0.950 . S
H323 C310 0.951 . S
C324 C325 1.386 . S
C324 C326 1.383 . S
C324 H340 0.951 . S
C325 C324 1.386 . S
C325 C329 1.383 . S
C326 C324 1.383 . S
C326 C327 1.402 . S
C326 H341 0.951 . S
C327 C326 1.402 . S
C327 C328 1.375 . S
C327 C330 1.481 . S
C328 C327 1.375 . S
C328 C329 1.367 . S
C328 H342 0.951 . S
C329 C325 1.383 . S
C329 C328 1.367 . S
C329 H343 0.950 . S
C330 C327 1.481 . S
C330 C331 1.297 1_565 S
C330 H344 0.950 . S
C331 C330 1.297 1_545 S
C331 C332 1.479 . S
C331 H345 0.950 . S
C332 C331 1.479 . S
C332 C333 1.375 . S
C332 C338 1.404 . S
C333 C332 1.375 . S
C333 C334 1.369 . S
C333 H346 0.950 . S
C334 C333 1.369 . S
C334 C335 1.392 . S
C334 H347 0.951 . S
C335 C334 1.392 . S
C335 C337 1.384 . S
H336 C338 0.949 . S
C337 C335 1.384 . S
C337 C338 1.385 . S
C337 H339 0.950 . S
C338 C332 1.404 . S
C338 H336 0.949 . S
C338 C337 1.385 . S
H339 C337 0.950 . S
H340 C324 0.951 . S
H341 C326 0.951 . S
H342 C328 0.951 . S
H343 C329 0.950 . S
H344 C330 0.950 . S
H345 C331 0.950 . S
H346 C333 0.950 . S
H347 C334 0.951 . S
C348 C349 1.386 . S
C348 C350 1.383 . S
C348 H364 0.951 . S
C349 C348 1.386 . S
C349 C353 1.383 . S
C350 C348 1.383 . S
C350 C351 1.402 . S
C350 H365 0.951 . S
C351 C350 1.402 . S
C351 C352 1.375 . S
C351 C354 1.481 . S
C352 C351 1.375 . S
C352 C353 1.367 . S
C352 H366 0.951 . S
C353 C349 1.383 . S
C353 C352 1.367 . S
C353 H367 0.950 . S
C354 C351 1.481 . S
C354 C355 1.297 . S
C354 H368 0.950 . S
C355 C354 1.297 . S
C355 C356 1.479 . S
C355 H369 0.950 . S
C356 C355 1.479 . S
C356 C357 1.375 . S
C356 C362 1.404 . S
C357 C356 1.375 . S
C357 C358 1.369 . S
C357 H370 0.950 . S
C358 C357 1.369 . S
C358 C359 1.392 . S
C358 H371 0.951 . S
C359 C358 1.392 . S
C359 C361 1.384 . S
H360 C362 0.949 . S
C361 C359 1.384 . S
C361 C362 1.385 . S
C361 H363 0.950 . S
C362 C356 1.404 . S
C362 H360 0.949 . S
C362 C361 1.385 . S
H363 C361 0.950 . S
H364 C348 0.951 . S
H365 C350 0.951 . S
H366 C352 0.951 . S
H367 C353 0.950 . S
H368 C354 0.950 . S
H369 C355 0.950 . S
H370 C357 0.950 . S
H371 C358 0.951 . S
C372 C373 1.386 . S
C372 C374 1.383 . S
C372 H388 0.951 . S
C373 C372 1.386 . S
C373 C377 1.383 . S
C374 C372 1.383 . S
C374 C375 1.402 . S
C374 H389 0.951 . S
C375 C374 1.402 . S
C375 C376 1.375 . S
C375 C378 1.481 . S
C376 C375 1.375 . S
C376 C377 1.367 . S
C376 H390 0.951 . S
C377 C373 1.383 . S
C377 C376 1.367 . S
C377 H391 0.950 . S
C378 C375 1.481 . S
C378 C379 1.297 1_655 S
C378 H392 0.950 . S
C379 C378 1.297 1_455 S
C379 C380 1.479 . S
C379 H393 0.950 . S
C380 C379 1.479 . S
C380 C381 1.375 . S
C380 C386 1.404 . S
C381 C380 1.375 . S
C381 C382 1.369 . S
C381 H394 0.950 . S
C382 C381 1.369 . S
C382 C383 1.392 . S
C382 H395 0.951 . S
C383 C382 1.392 . S
C383 C385 1.384 . S
H384 C386 0.949 . S
C385 C383 1.384 . S
C385 C386 1.385 . S
C385 H387 0.950 . S
C386 C380 1.404 . S
C386 H384 0.949 . S
C386 C385 1.385 . S
H387 C385 0.950 . S
H388 C372 0.951 . S
H389 C374 0.951 . S
H390 C376 0.951 . S
H391 C377 0.950 . S
H392 C378 0.950 . S
H393 C379 0.950 . S
H394 C381 0.950 . S
H395 C382 0.951 . S
C396 C397 1.386 . S
C396 C398 1.383 . S
C396 H412 0.951 1_556 S
C397 C396 1.386 . S
C397 C401 1.383 . S
C398 C396 1.383 . S
C398 C399 1.402 . S
C398 H413 0.951 1_556 S
C399 C398 1.402 . S
C399 C400 1.375 . S
C399 C402 1.481 . S
C400 C399 1.375 . S
C400 C401 1.367 . S
C400 H414 0.951 . S
C401 C397 1.383 . S
C401 C400 1.367 . S
C401 H415 0.950 . S
C402 C399 1.481 . S
C402 C403 1.297 1_546 S
C402 H416 0.950 1_545 S
C403 C402 1.297 1_564 S
C403 C404 1.479 . S
C403 H417 0.950 1_565 S
C404 C403 1.479 . S
C404 C405 1.375 . S
C404 C410 1.404 1_554 S
C405 C404 1.375 . S
C405 C406 1.369 . S
C405 H418 0.950 . S
C406 C405 1.369 . S
C406 C407 1.392 . S
C406 H419 0.951 . S
C407 C406 1.392 . S
C407 C409 1.384 . S
H408 C410 0.949 . S
C409 C407 1.384 . S
C409 C410 1.385 1_554 S
C409 H411 0.950 1_554 S
C410 C404 1.404 1_556 S
C410 H408 0.949 . S
C410 C409 1.385 1_556 S
H411 C409 0.950 1_556 S
H412 C396 0.951 1_554 S
H413 C398 0.951 1_554 S
H414 C400 0.951 . S
H415 C401 0.950 . S
H416 C402 0.950 1_565 S
H417 C403 0.950 1_545 S
H418 C405 0.950 . S
H419 C406 0.951 . S
C420 C421 1.386 1_556 S
C420 C422 1.383 . S
C420 H436 0.951 . S
C421 C420 1.386 1_554 S
C421 C425 1.383 . S
C422 C420 1.383 . S
C422 C423 1.402 . S
C422 H437 0.951 . S
C423 C422 1.402 . S
C423 C424 1.375 . S
C423 C426 1.481 . S
C424 C423 1.375 . S
C424 C425 1.367 1_556 S
C424 H438 0.951 . S
C425 C421 1.383 . S
C425 C424 1.367 1_554 S
C425 H439 0.950 . S
C426 C423 1.481 . S
C426 C427 1.297 . S
C426 H440 0.950 . S
C427 C426 1.297 . S
C427 C428 1.479 . S
C427 H441 0.950 . S
C428 C427 1.479 . S
C428 C429 1.375 . S
C428 C434 1.404 . S
C429 C428 1.375 . S
C429 C430 1.369 . S
C429 H442 0.950 . S
C430 C429 1.369 . S
C430 C431 1.392 . S
C430 H443 0.951 . S
C431 C430 1.392 . S
C431 C433 1.384 . S
H432 C434 0.949 . S
C433 C431 1.384 . S
C433 C434 1.385 . S
C433 H435 0.950 . S
C434 C428 1.404 . S
C434 H432 0.949 . S
C434 C433 1.385 . S
H435 C433 0.950 . S
H436 C420 0.951 . S
H437 C422 0.951 . S
H438 C424 0.951 . S
H439 C425 0.950 . S
H440 C426 0.950 . S
H441 C427 0.950 . S
H442 C429 0.950 . S
H443 C430 0.951 . S
C444 C445 1.386 1_554 S
C444 C446 1.383 . S
C444 H460 0.951 1_554 S
C445 C444 1.386 1_556 S
C445 C449 1.383 1_556 S
C446 C444 1.383 . S
C446 C447 1.402 . S
C446 H461 0.951 . S
C447 C446 1.402 . S
C447 C448 1.375 . S
C447 C450 1.481 . S
C448 C447 1.375 . S
C448 C449 1.367 . S
C448 H462 0.951 . S
C449 C445 1.383 1_554 S
C449 C448 1.367 . S
C449 H463 0.950 . S
C450 C447 1.481 . S
C450 C451 1.297 . S
C450 H464 0.950 . S
C451 C450 1.297 . S
C451 C452 1.479 . S
C451 H465 0.950 . S
C452 C451 1.479 . S
C452 C453 1.375 . S
C452 C458 1.404 . S
C453 C452 1.375 . S
C453 C454 1.369 . S
C453 H466 0.950 . S
C454 C453 1.369 . S
C454 C455 1.392 . S
C454 H467 0.951 . S
C455 C454 1.392 . S
C455 C457 1.384 . S
H456 C458 0.949 . S
C457 C455 1.384 . S
C457 C458 1.385 . S
C457 H459 0.950 . S
C458 C452 1.404 . S
C458 H456 0.949 . S
C458 C457 1.385 . S
H459 C457 0.950 . S
H460 C444 0.951 1_556 S
H461 C446 0.951 . S
H462 C448 0.951 . S
H463 C449 0.950 . S
H464 C450 0.950 . S
H465 C451 0.950 . S
H466 C453 0.950 . S
H467 C454 0.951 . S
C468 C469 1.386 . S
C468 C470 1.383 . S
C468 H484 0.951 . S
C469 C468 1.386 . S
C469 C473 1.383 . S
C470 C468 1.383 . S
C470 C471 1.402 . S
C470 H485 0.951 . S
C471 C470 1.402 . S
C471 C472 1.375 . S
C471 C474 1.481 . S
C472 C471 1.375 . S
C472 C473 1.367 . S
C472 H486 0.951 . S
C473 C469 1.383 . S
C473 C472 1.367 . S
C473 H487 0.950 . S
C474 C471 1.481 . S
C474 C475 1.297 . S
C474 H488 0.950 . S
C475 C474 1.297 . S
C475 C476 1.479 . S
C475 H489 0.950 . S
C476 C475 1.479 . S
C476 C477 1.375 . S
C476 C482 1.404 . S
C477 C476 1.375 . S
C477 C478 1.369 . S
C477 H490 0.950 . S
C478 C477 1.369 . S
C478 C479 1.392 . S
C478 H491 0.951 . S
C479 C478 1.392 . S
C479 C481 1.384 . S
H480 C482 0.949 . S
C481 C479 1.384 . S
C481 C482 1.385 . S
C481 H483 0.950 . S
C482 C476 1.404 . S
C482 H480 0.949 . S
C482 C481 1.385 . S
H483 C481 0.950 . S
H484 C468 0.951 . S
H485 C470 0.951 . S
H486 C472 0.951 . S
H487 C473 0.950 . S
H488 C474 0.950 . S
H489 C475 0.950 . S
H490 C477 0.950 . S
H491 C478 0.951 . S
C492 C493 1.386 . S
C492 C494 1.383 . S
C492 H508 0.951 . S
C493 C492 1.386 . S
C493 C497 1.383 . S
C494 C492 1.383 . S
C494 C495 1.402 . S
C494 H509 0.951 . S
C495 C494 1.402 . S
C495 C496 1.375 . S
C495 C498 1.481 . S
C496 C495 1.375 . S
C496 C497 1.367 . S
C496 H510 0.951 . S
C497 C493 1.383 . S
C497 C496 1.367 . S
C497 H511 0.950 . S
C498 C495 1.481 . S
C498 C499 1.297 . S
C498 H512 0.950 . S
C499 C498 1.297 . S
C499 C500 1.479 . S
C499 H513 0.950 . S
C500 C499 1.479 . S
C500 C501 1.375 . S
C500 C506 1.404 . S
C501 C500 1.375 . S
C501 C502 1.369 . S
C501 H514 0.950 . S
C502 C501 1.369 . S
C502 C503 1.392 . S
C502 H515 0.951 . S
C503 C502 1.392 . S
C503 C505 1.384 . S
H504 C506 0.949 . S
C505 C503 1.384 . S
C505 C506 1.385 . S
C505 H507 0.950 . S
C506 C500 1.404 . S
C506 H504 0.949 . S
C506 C505 1.385 . S
H507 C505 0.950 . S
H508 C492 0.951 . S
H509 C494 0.951 . S
H510 C496 0.951 . S
H511 C497 0.950 . S
H512 C498 0.950 . S
H513 C499 0.950 . S
H514 C501 0.950 . S
H515 C502 0.951 . S
C516 C517 1.386 . S
C516 C518 1.383 . S
C516 H532 0.951 . S
C517 C516 1.386 . S
C517 C521 1.383 . S
C518 C516 1.383 . S
C518 C519 1.402 . S
C518 H533 0.951 . S
C519 C518 1.402 . S
C519 C520 1.375 . S
C519 C522 1.481 . S
C520 C519 1.375 . S
C520 C521 1.367 . S
C520 H534 0.951 . S
C521 C517 1.383 . S
C521 C520 1.367 . S
C521 H535 0.950 . S
C522 C519 1.481 . S
C522 C523 1.297 . S
C522 H536 0.950 . S
C523 C522 1.297 . S
C523 C524 1.479 . S
C523 H537 0.950 . S
C524 C523 1.479 . S
C524 C525 1.375 . S
C524 C530 1.404 . S
C525 C524 1.375 . S
C525 C526 1.369 . S
C525 H538 0.950 . S
C526 C525 1.369 . S
C526 C527 1.392 . S
C526 H539 0.951 . S
C527 C526 1.392 . S
C527 C529 1.384 . S
H528 C530 0.949 . S
C529 C527 1.384 . S
C529 C530 1.385 . S
C529 H531 0.950 . S
C530 C524 1.404 . S
C530 H528 0.949 . S
C530 C529 1.385 . S
H531 C529 0.950 . S
H532 C516 0.951 . S
H533 C518 0.951 . S
H534 C520 0.951 . S
H535 C521 0.950 . S
H536 C522 0.950 . S
H537 C523 0.950 . S
H538 C525 0.950 . S
H539 C526 0.951 . S
C540 C541 1.386 . S
C540 C542 1.383 . S
C540 H556 0.951 . S
C541 C540 1.386 . S
C541 C545 1.383 . S
C542 C540 1.383 . S
C542 C543 1.402 . S
C542 H557 0.951 . S
C543 C542 1.402 . S
C543 C544 1.375 . S
C543 C546 1.481 . S
C544 C543 1.375 . S
C544 C545 1.367 . S
C544 H558 0.951 . S
C545 C541 1.383 . S
C545 C544 1.367 . S
C545 H559 0.950 . S
C546 C543 1.481 . S
C546 C547 1.297 . S
C546 H560 0.950 . S
C547 C546 1.297 . S
C547 C548 1.479 . S
C547 H561 0.950 . S
C548 C547 1.479 . S
C548 C549 1.375 . S
C548 C554 1.404 . S
C549 C548 1.375 . S
C549 C550 1.369 . S
C549 H562 0.950 . S
C550 C549 1.369 . S
C550 C551 1.392 . S
C550 H563 0.951 . S
C551 C550 1.392 . S
C551 C553 1.384 . S
H552 C554 0.949 . S
C553 C551 1.384 . S
C553 C554 1.385 . S
C553 H555 0.950 . S
C554 C548 1.404 . S
C554 H552 0.949 . S
C554 C553 1.385 . S
H555 C553 0.950 . S
H556 C540 0.951 . S
H557 C542 0.951 . S
H558 C544 0.951 . S
H559 C545 0.950 . S
H560 C546 0.950 . S
H561 C547 0.950 . S
H562 C549 0.950 . S
H563 C550 0.951 . S
C133 C8 1.538 . S
C143 C118 1.566 . S
C157 C129 1.564 . S
C167 C19 1.522 . S
C181 C74 1.563 . S
C191 C30 1.516 . S
C205 C41 1.537 . S
C215 C85 1.557 . S
C229 C96 1.544 1_556 S
C239 C52 1.542 . S
C253 C63 1.557 1_554 S
C263 C107 1.522 . S
C277 C7 1.411 . S
C287 C106 1.403 . S
C301 C18 1.449 . S
C311 C117 1.376 . S
C325 C29 1.438 . S
C335 C128 1.374 . S
C349 C73 1.459 . S
C359 C40 1.387 . S
C373 C84 1.404 . S
C383 C51 1.431 . S
C397 C62 1.467 . S
C407 C95 1.422 . S
C421 C5 1.341 . S
C431 C71 1.472 . S
C445 C82 1.440 . S
C455 C16 1.294 . S
C469 C27 1.441 . S
C479 C93 1.312 . S
C493 C38 1.336 . S
C503 C104 1.445 . S
C517 C49 1.366 . S
C527 C115 1.370 . S
C541 C126 1.379 . S
C551 C60 1.348 . S
