# Generated by pormake.
# Topology umc, (4)-cn, num edge types: 1
# Building blocks:
#     Node 0, Type 0, BuildingBlock: ESEHIV_clean_sbu_0, # of connection points: 4
#     Node 1, Type 0, BuildingBlock: ESEHIV_clean_sbu_0, # of connection points: 4
#     Node 2, Type 0, BuildingBlock: ESEHIV_clean_sbu_0, # of connection points: 4
#     Node 3, Type 0, BuildingBlock: ESEHIV_clean_sbu_0, # of connection points: 4
#     Node 4, Type 0, BuildingBlock: ESEHIV_clean_sbu_0, # of connection points: 4
#     Node 5, Type 0, BuildingBlock: ESEHIV_clean_sbu_0, # of connection points: 4
#     Node 6, Type 0, BuildingBlock: ESEHIV_clean_sbu_0, # of connection points: 4
#     Node 7, Type 0, BuildingBlock: ESEHIV_clean_sbu_0, # of connection points: 4
#     Node 8, Type 0, BuildingBlock: ESEHIV_clean_sbu_0, # of connection points: 4
#     Node 9, Type 0, BuildingBlock: ESEHIV_clean_sbu_0, # of connection points: 4
#     Node 10, Type 0, BuildingBlock: ESEHIV_clean_sbu_0, # of connection points: 4
#     Node 11, Type 0, BuildingBlock: ESEHIV_clean_sbu_0, # of connection points: 4
#     Node 12, Type 0, BuildingBlock: ESEHIV_clean_sbu_0, # of connection points: 4
#     Node 13, Type 0, BuildingBlock: ESEHIV_clean_sbu_0, # of connection points: 4
#     Node 14, Type 0, BuildingBlock: ESEHIV_clean_sbu_0, # of connection points: 4
#     Node 15, Type 0, BuildingBlock: ESEHIV_clean_sbu_0, # of connection points: 4
#     Edge 16, Type (0, 0), BuildingBlock: TEMPAE_clean_linker_10, # of connection points: 2
#     Edge 17, Type (0, 0), BuildingBlock: TEMPAE_clean_linker_10, # of connection points: 2
#     Edge 18, Type (0, 0), BuildingBlock: TEMPAE_clean_linker_10, # of connection points: 2
#     Edge 19, Type (0, 0), BuildingBlock: TEMPAE_clean_linker_10, # of connection points: 2
#     Edge 20, Type (0, 0), BuildingBlock: TEMPAE_clean_linker_10, # of connection points: 2
#     Edge 21, Type (0, 0), BuildingBlock: TEMPAE_clean_linker_10, # of connection points: 2
#     Edge 22, Type (0, 0), BuildingBlock: TEMPAE_clean_linker_10, # of connection points: 2
#     Edge 23, Type (0, 0), BuildingBlock: TEMPAE_clean_linker_10, # of connection points: 2
#     Edge 24, Type (0, 0), BuildingBlock: TEMPAE_clean_linker_10, # of connection points: 2
#     Edge 25, Type (0, 0), BuildingBlock: TEMPAE_clean_linker_10, # of connection points: 2
#     Edge 26, Type (0, 0), BuildingBlock: TEMPAE_clean_linker_10, # of connection points: 2
#     Edge 27, Type (0, 0), BuildingBlock: TEMPAE_clean_linker_10, # of connection points: 2
#     Edge 28, Type (0, 0), BuildingBlock: TEMPAE_clean_linker_10, # of connection points: 2
#     Edge 29, Type (0, 0), BuildingBlock: TEMPAE_clean_linker_10, # of connection points: 2
#     Edge 30, Type (0, 0), BuildingBlock: TEMPAE_clean_linker_10, # of connection points: 2
#     Edge 31, Type (0, 0), BuildingBlock: TEMPAE_clean_linker_10, # of connection points: 2
#     Edge 32, Type (0, 0), BuildingBlock: TEMPAE_clean_linker_10, # of connection points: 2
#     Edge 33, Type (0, 0), BuildingBlock: TEMPAE_clean_linker_10, # of connection points: 2
#     Edge 34, Type (0, 0), BuildingBlock: TEMPAE_clean_linker_10, # of connection points: 2
#     Edge 35, Type (0, 0), BuildingBlock: TEMPAE_clean_linker_10, # of connection points: 2
#     Edge 36, Type (0, 0), BuildingBlock: TEMPAE_clean_linker_10, # of connection points: 2
#     Edge 37, Type (0, 0), BuildingBlock: TEMPAE_clean_linker_10, # of connection points: 2
#     Edge 38, Type (0, 0), BuildingBlock: TEMPAE_clean_linker_10, # of connection points: 2
#     Edge 39, Type (0, 0), BuildingBlock: TEMPAE_clean_linker_10, # of connection points: 2
#     Edge 40, Type (0, 0), BuildingBlock: TEMPAE_clean_linker_10, # of connection points: 2
#     Edge 41, Type (0, 0), BuildingBlock: TEMPAE_clean_linker_10, # of connection points: 2
#     Edge 42, Type (0, 0), BuildingBlock: TEMPAE_clean_linker_10, # of connection points: 2
#     Edge 43, Type (0, 0), BuildingBlock: TEMPAE_clean_linker_10, # of connection points: 2
#     Edge 44, Type (0, 0), BuildingBlock: TEMPAE_clean_linker_10, # of connection points: 2
#     Edge 45, Type (0, 0), BuildingBlock: TEMPAE_clean_linker_10, # of connection points: 2
#     Edge 46, Type (0, 0), BuildingBlock: TEMPAE_clean_linker_10, # of connection points: 2
#     Edge 47, Type (0, 0), BuildingBlock: TEMPAE_clean_linker_10, # of connection points: 2
# Relax obj value: 0.039
# Max RMSD: 0.093
# Mean RMSD: 0.093
data_MOF--net-umc--node1-ESEHIV_clean_sbu_0--edge1-TEMPAE_clean_linker_10
_symmetry_space_group_name_H-M    P1
_symmetry_Int_Tables_number       1
_symmetry_cell_setting            triclinic
loop_
_symmetry_equiv_pos_as_xyz
'x, y, z'
_cell_length_a     59.929326
_cell_length_b     35.107041
_cell_length_c     56.614968
_cell_angle_alpha  90.277046
_cell_angle_beta   89.885603
_cell_angle_gamma 89.915168
loop_
_atom_site_label
_atom_site_type_symbol
_atom_site_fract_x
_atom_site_fract_y
_atom_site_fract_z
_atom_type_partial_charge
Cu0 Cu 0.3893 0.08682 0.37422 0.0
N1 N 0.42011 0.08971 0.36845 0.0
N2 N 0.45604 0.07241 0.36665 0.0
C3 C 0.43557 0.06401 0.37516 0.0
C4 C 0.45343 0.10481 0.35425 0.0
C5 C 0.43122 0.11523 0.35522 0.0
O6 O 0.377 0.05529 0.34881 0.0
C7 C 0.36802 0.06856 0.41816 0.0
O8 O 0.34975 0.08112 0.40805 0.0
H9 H 0.43183 0.03931 0.38582 0.0
H10 H 0.4236 0.13909 0.3463 0.0
N11 N 0.37658 0.13588 0.37385 0.0
N12 N 0.35176 0.18383 0.37393 0.0
C13 C 0.3549 0.1458 0.37137 0.0
C14 C 0.3874 0.16871 0.37824 0.0
C15 C 0.37224 0.19823 0.37814 0.0
C16 C 0.38494 0.02209 0.34508 0.0
O17 O 0.39885 0.00776 0.36058 0.0
H18 H 0.34168 0.1255 0.36808 0.0
H19 H 0.40502 0.17093 0.38201 0.0
O20 O 0.38589 0.06622 0.406 0.0
H21 H 0.46646 0.11906 0.34442 0.0
H22 H 0.3759 0.22786 0.38182 0.0
Cu23 Cu 0.66175 0.90369 0.38866 0.0
N24 N 0.63057 0.89834 0.38923 0.0
N25 N 0.59446 0.91495 0.38816 0.0
C26 C 0.61498 0.9204 0.37878 0.0
C27 C 0.5972 0.88819 0.40491 0.0
C28 C 0.6194 0.87819 0.40559 0.0
O29 O 0.671 0.92783 0.35915 0.0
C30 C 0.68641 0.93468 0.42916 0.0
O31 O 0.70521 0.9249 0.41881 0.0
H32 H 0.61877 0.94217 0.36597 0.0
H33 H 0.62715 0.85971 0.41843 0.0
N34 N 0.67549 0.85557 0.38943 0.0
N35 N 0.70177 0.81004 0.38795 0.0
C36 C 0.69754 0.84793 0.38795 0.0
C37 C 0.66545 0.82133 0.39025 0.0
C38 C 0.68155 0.7933 0.38941 0.0
C39 C 0.66523 0.9606 0.35177 0.0
O40 O 0.65384 0.98336 0.36581 0.0
H41 H 0.71017 0.86971 0.38614 0.0
H42 H 0.64763 0.81691 0.39099 0.0
O43 O 0.66802 0.93057 0.41821 0.0
H44 H 0.58428 0.87807 0.4167 0.0
H45 H 0.67855 0.76292 0.38986 0.0
Cu46 Cu 0.40556 0.85482 0.14834 0.0
N47 N 0.43676 0.8571 0.15126 0.0
N48 N 0.47098 0.88292 0.15356 0.0
C49 C 0.44879 0.8884 0.1568 0.0
C50 C 0.47285 0.84661 0.14576 0.0
C51 C 0.45182 0.831 0.14414 0.0
O52 O 0.39365 0.89016 0.17225 0.0
C53 C 0.3817 0.8719 0.10486 0.0
O54 O 0.36306 0.86621 0.11653 0.0
H55 H 0.44126 0.91537 0.16167 0.0
H56 H 0.44777 0.80325 0.13701 0.0
N57 N 0.39481 0.8046 0.15264 0.0
N58 N 0.37249 0.75324 0.15273 0.0
C59 C 0.37404 0.79104 0.14848 0.0
C60 C 0.40657 0.77426 0.16015 0.0
C61 C 0.39296 0.74263 0.16003 0.0
C62 C 0.38195 0.87968 0.18992 0.0
O63 O 0.37526 0.84416 0.19117 0.0
H64 H 0.3603 0.80838 0.14246 0.0
H65 H 0.42383 0.775 0.16558 0.0
O66 O 0.40025 0.87015 0.11571 0.0
H67 H 0.48825 0.83252 0.14083 0.0
H68 H 0.39763 0.71414 0.16535 0.0
Cu69 Cu 0.66265 0.08582 0.14564 0.0
N70 N 0.63162 0.09224 0.14959 0.0
N71 N 0.59572 0.07437 0.15312 0.0
C72 C 0.61728 0.06558 0.15766 0.0
C73 C 0.59655 0.10827 0.14197 0.0
C74 C 0.61859 0.11896 0.13964 0.0
O75 O 0.67349 0.05516 0.17201 0.0
C76 C 0.68166 0.07262 0.0992 0.0
O77 O 0.69993 0.0883 0.10746 0.0
H78 H 0.62259 0.03878 0.16496 0.0
H79 H 0.62464 0.14296 0.12965 0.0
N80 N 0.67854 0.13205 0.14789 0.0
N81 N 0.70785 0.17159 0.15083 0.0
C82 C 0.70091 0.13497 0.15011 0.0
C83 C 0.67102 0.16821 0.14771 0.0
C84 C 0.68902 0.19259 0.14949 0.0
C85 C 0.66845 0.02106 0.17736 0.0
O86 O 0.65721 1.00007 0.16226 0.0
H87 H 0.71189 0.11054 0.15117 0.0
H88 H 0.65373 0.17653 0.14635 0.0
O89 O 0.66567 0.06542 0.1134 0.0
H90 H 0.58238 0.12347 0.13486 0.0
H91 H 0.6883 0.2234 0.14927 0.0
Cu92 Cu 0.66934 0.91874 0.64939 0.0
N93 N 0.63841 0.91401 0.64501 0.0
N94 N 0.60197 0.92823 0.64263 0.0
C95 C 0.62239 0.94002 0.64977 0.0
C96 C 0.60538 0.89331 0.63315 0.0
C97 C 0.62779 0.88474 0.63458 0.0
O98 O 0.6747 0.94986 0.67767 0.0
C99 C 0.67329 0.96039 0.60592 0.0
O100 O 0.65575 0.97956 0.61328 0.0
H101 H 0.62576 0.96761 0.65749 0.0
H102 H 0.63587 0.85922 0.62802 0.0
N103 N 0.68183 0.87058 0.6551 0.0
N104 N 0.70661 0.82263 0.65721 0.0
C105 C 0.70299 0.85923 0.65069 0.0
C106 C 0.6717 0.84026 0.66475 0.0
C107 C 0.68683 0.81073 0.66602 0.0
C108 C 0.67024 0.98513 0.68034 0.0
O109 O 0.66341 1.00489 0.66208 0.0
H110 H 0.71552 0.87778 0.64321 0.0
H111 H 0.65448 0.83969 0.6705 0.0
O112 O 0.68234 0.93617 0.61961 0.0
H113 H 0.59266 0.87521 0.62554 0.0
H114 H 0.68336 0.78256 0.67274 0.0
Cu115 Cu 0.39225 0.09118 0.64189 0.0
N116 N 0.42339 0.09644 0.64075 0.0
N117 N 0.45974 0.08102 0.6408 0.0
C118 C 0.43862 0.06883 0.64466 0.0
C119 C 0.45758 0.1178 0.63425 0.0
C120 C 0.43523 0.12712 0.63414 0.0
O121 O 0.38572 0.05345 0.66629 0.0
C122 C 0.38471 0.10022 0.59391 0.0
O123 O 0.392 0.13435 0.59953 0.0
H124 H 0.43416 0.04001 0.64945 0.0
H125 H 0.42812 0.15419 0.62909 0.0
N126 N 0.37843 0.13792 0.64978 0.0
N127 N 0.35282 0.18422 0.65465 0.0
C128 C 0.35686 0.14823 0.64685 0.0
C129 C 0.38833 0.16834 0.65974 0.0
C130 C 0.37273 0.19678 0.66268 0.0
C131 C 0.38836 0.06348 0.68778 0.0
O132 O 0.39457 0.09858 0.69243 0.0
H133 H 0.34438 0.12944 0.63944 0.0
H134 H 0.4057 0.16971 0.66474 0.0
O135 O 0.38272 0.0756 0.61027 0.0
H136 H 0.47113 0.13675 0.62972 0.0
H137 H 0.37601 0.22472 0.67 0.0
Cu138 Cu 0.637 0.13981 0.88228 0.0
N139 N 0.6059 0.14777 0.88479 0.0
N140 N 0.5688 0.13873 0.88478 0.0
C141 C 0.58914 0.12224 0.88226 0.0
C142 C 0.57296 0.17579 0.88927 0.0
C143 C 0.59572 0.1812 0.88943 0.0
O144 O 0.6424 0.10705 0.85466 0.0
C145 C 0.64488 0.13716 0.93074 0.0
O146 O 0.63606 0.17132 0.92896 0.0
H147 H 0.59179 0.09236 0.87832 0.0
H148 H 0.60425 0.20776 0.89285 0.0
N149 N 0.65153 0.18694 0.87752 0.0
N150 N 0.67616 0.23488 0.8785 0.0
C151 C 0.67162 0.19893 0.88554 0.0
C152 C 0.64347 0.21621 0.8648 0.0
C153 C 0.65851 0.24585 0.86555 0.0
C154 C 0.66078 0.10692 0.84325 0.0
O155 O 0.67749 0.12738 0.85126 0.0
H156 H 0.6826 0.18182 0.89634 0.0
H157 H 0.62771 0.21596 0.85553 0.0
O158 O 0.64732 0.11737 0.91196 0.0
H159 H 0.56041 0.19739 0.8926 0.0
H160 H 0.65679 0.27322 0.857 0.0
Cu161 Cu 0.36925 0.94605 0.88438 0.0
N162 N 0.38348 0.99368 0.8865 0.0
N163 N 0.41248 0.03402 0.88747 0.0
C164 C 0.40541 0.99858 0.88193 0.0
C165 C 0.39421 0.05229 0.89576 0.0
C166 C 0.37632 0.02742 0.89502 0.0
O167 O 0.37987 0.92652 0.85382 0.0
C168 C 0.37052 0.93682 0.93173 0.0
O169 O 0.35863 0.96788 0.92878 0.0
H170 H 0.41622 0.97591 0.8757 0.0
H171 H 0.35952 0.03315 0.90111 0.0
N172 N 0.33779 0.94783 0.88423 0.0
N173 N 0.30266 0.92552 0.88495 0.0
C174 C 0.32447 0.91766 0.88868 0.0
C175 C 0.32392 0.97604 0.87775 0.0
C176 C 0.30227 0.96243 0.87825 0.0
C177 C 0.36662 0.91683 0.83723 0.0
O178 O 0.34599 0.90776 0.84254 0.0
H179 H 0.33086 0.89006 0.89379 0.0
H180 H 0.32923 1.00402 0.87216 0.0
O181 O 0.37757 0.91923 0.91335 0.0
H182 H 0.39386 0.08136 0.90221 0.0
H183 H 0.28752 0.97802 0.87297 0.0
Cu184 Cu 0.89448 0.59252 0.37371 0.0
N185 N 0.92516 0.6021 0.37135 0.0
N186 N 0.96192 0.59058 0.3698 0.0
C187 C 0.94123 0.57599 0.36717 0.0
C188 C 0.95874 0.62745 0.37582 0.0
C189 C 0.93608 0.63442 0.37682 0.0
O190 O 0.88664 0.55827 0.34778 0.0
C191 C 0.87323 0.55898 0.41556 0.0
O192 O 0.85525 0.55214 0.40301 0.0
H193 H 0.93787 0.54633 0.36363 0.0
H194 H 0.92814 0.66078 0.38216 0.0
N195 N 0.87844 0.6379 0.36953 0.0
N196 N 0.85081 0.68103 0.36901 0.0
C197 C 0.8577 0.64677 0.37719 0.0
C198 C 0.88483 0.66745 0.35611 0.0
C199 C 0.86795 0.69407 0.35583 0.0
C200 C 0.89296 0.52378 0.34568 0.0
O201 O 0.90277 0.50707 0.36359 0.0
H202 H 0.84759 0.6279 0.3878 0.0
H203 H 0.90052 0.66913 0.34671 0.0
O204 O 0.89023 0.57381 0.40575 0.0
H205 H 0.9718 0.64772 0.37982 0.0
H206 H 0.86826 0.72087 0.34647 0.0
Cu207 Cu 0.16885 0.42635 0.38789 0.0
N208 N 0.13788 0.42016 0.38513 0.0
N209 N 0.10156 0.43391 0.38105 0.0
C210 C 0.12275 0.44601 0.37782 0.0
C211 C 0.10348 0.3989 0.39061 0.0
C212 C 0.12584 0.39059 0.39315 0.0
O213 O 0.17824 0.46224 0.36342 0.0
C214 C 0.18994 0.45583 0.4316 0.0
O215 O 0.20717 0.46757 0.41926 0.0
H216 H 0.12708 0.47389 0.37134 0.0
H217 H 0.13285 0.3653 0.40108 0.0
N218 N 0.18276 0.37959 0.38095 0.0
N219 N 0.20837 0.33365 0.37561 0.0
C220 C 0.20382 0.36798 0.3856 0.0
C221 C 0.17378 0.35168 0.3677 0.0
C222 C 0.18941 0.3234 0.36444 0.0
C223 C 0.17219 0.49687 0.36125 0.0
O224 O 0.1614 0.51359 0.37867 0.0
H225 H 0.2158 0.38498 0.39528 0.0
H226 H 0.15714 0.35232 0.36035 0.0
O227 O 0.17363 0.43987 0.42111 0.0
H228 H 0.08974 0.38085 0.39588 0.0
H229 H 0.18705 0.29739 0.35441 0.0
Cu230 Cu 0.91309 0.3492 0.14922 0.0
N231 N 0.94385 0.3376 0.1486 0.0
N232 N 0.98111 0.3443 0.14739 0.0
C233 C 0.96138 0.36066 0.1533 0.0
C234 C 0.97575 0.30946 0.13898 0.0
C235 C 0.95288 0.30548 0.13971 0.0
O236 O 0.90572 0.38165 0.17627 0.0
C237 C 0.91762 0.38522 0.10408 0.0
O238 O 0.93789 0.39361 0.11114 0.0
H239 H 0.95968 0.38965 0.15953 0.0
H240 H 0.94341 0.28141 0.13326 0.0
N241 N 0.89619 0.30491 0.1538 0.0
N242 N 0.86627 0.26688 0.15674 0.0
C243 C 0.87435 0.30039 0.14869 0.0
C244 C 0.90216 0.27321 0.16546 0.0
C245 C 0.8838 0.2497 0.16724 0.0
C246 C 0.91266 0.41505 0.18103 0.0
O247 O 0.92558 0.43275 0.16589 0.0
H248 H 0.86436 0.32207 0.14019 0.0
H249 H 0.91853 0.26809 0.17281 0.0
O250 O 0.90423 0.36907 0.1184 0.0
H251 H 0.98747 0.28857 0.13224 0.0
H252 H 0.88335 0.22229 0.1759 0.0
Cu253 Cu 0.17545 0.55298 0.14702 0.0
N254 N 0.16206 0.50475 0.14497 0.0
N255 N 0.13443 0.46172 0.14531 0.0
C256 C 0.13979 0.49908 0.14478 0.0
C257 C 0.15416 0.44311 0.14575 0.0
C258 C 0.17117 0.4697 0.14546 0.0
O259 O 0.16481 0.57228 0.17768 0.0
C260 C 0.17449 0.56355 0.09919 0.0
O261 O 0.18704 0.5331 0.10168 0.0
H262 H 0.12774 0.52208 0.14508 0.0
H263 H 0.18886 0.4638 0.14593 0.0
N264 N 0.20682 0.55103 0.14854 0.0
N265 N 0.24182 0.57361 0.15025 0.0
C266 C 0.22095 0.57893 0.14176 0.0
C267 C 0.21926 0.52705 0.16152 0.0
C268 C 0.24079 0.54077 0.16252 0.0
C269 C 0.17744 0.58913 0.19255 0.0
O270 O 0.19626 0.60402 0.18514 0.0
H271 H 0.21555 0.60434 0.13263 0.0
H272 H 0.21278 0.50288 0.17109 0.0
O273 O 0.167 0.57968 0.1179 0.0
H274 H 0.15618 0.41248 0.14625 0.0
H275 H 0.25438 0.52843 0.17248 0.0
Cu276 Cu 0.17025 0.42813 0.65308 0.0
N277 N 0.13954 0.42095 0.64818 0.0
N278 N 0.10284 0.43232 0.64452 0.0
C279 C 0.12279 0.44609 0.65178 0.0
C280 C 0.10731 0.39695 0.63623 0.0
C281 C 0.12986 0.39016 0.63842 0.0
O282 O 0.17423 0.45926 0.68179 0.0
C283 C 0.1729 0.46926 0.6094 0.0
O284 O 0.15432 0.48552 0.61655 0.0
H285 H 0.12535 0.47448 0.65868 0.0
H286 H 0.13869 0.36479 0.63279 0.0
N287 N 0.1836 0.3806 0.65895 0.0
N288 N 0.20862 0.33294 0.661 0.0
C289 C 0.20468 0.36928 0.65404 0.0
C290 C 0.17388 0.35057 0.66939 0.0
C291 C 0.18913 0.32125 0.67059 0.0
C292 C 0.16861 0.49402 0.68474 0.0
O293 O 0.16152 0.51361 0.66652 0.0
H294 H 0.21692 0.38764 0.64588 0.0
H295 H 0.15684 0.35004 0.6757 0.0
O296 O 0.18316 0.44689 0.62339 0.0
H297 H 0.09525 0.37733 0.62888 0.0
H298 H 0.18588 0.29333 0.67781 0.0
Cu299 Cu 0.88969 0.58153 0.63638 0.0
N300 N 0.92059 0.58733 0.63278 0.0
N301 N 0.95723 0.5742 0.6328 0.0
C302 C 0.93651 0.56169 0.63831 0.0
C303 C 0.95406 0.60915 0.62345 0.0
C304 C 0.93152 0.61705 0.62339 0.0
O305 O 0.88486 0.54529 0.66203 0.0
C306 C 0.88611 0.54056 0.59279 0.0
O307 O 0.90241 0.51964 0.60123 0.0
H308 H 0.93281 0.53403 0.64569 0.0
H309 H 0.92361 0.64259 0.6168 0.0
N310 N 0.87641 0.62837 0.64459 0.0
N311 N 0.85089 0.67453 0.65012 0.0
C312 C 0.85471 0.63835 0.64261 0.0
C313 C 0.88667 0.6592 0.65361 0.0
C314 C 0.87108 0.68758 0.657 0.0
C315 C 0.89247 0.55545 0.68212 0.0
O316 O 0.90248 0.58861 0.68389 0.0
H317 H 0.84199 0.61922 0.63605 0.0
H318 H 0.9043 0.66096 0.65746 0.0
O319 O 0.87753 0.5664 0.60582 0.0
H320 H 0.96705 0.62792 0.61715 0.0
H321 H 0.87452 0.71587 0.66371 0.0
Cu322 Cu 0.13167 0.65542 0.88404 0.0
N323 N 0.10049 0.66335 0.88503 0.0
N324 N 0.0634 0.65414 0.88433 0.0
C325 C 0.08381 0.63761 0.88284 0.0
C326 C 0.06745 0.69161 0.88751 0.0
C327 C 0.09022 0.69714 0.88801 0.0
O328 O 0.13795 0.6182 0.8587 0.0
C329 C 0.13072 0.62002 0.92971 0.0
O330 O 0.11199 0.60503 0.92211 0.0
H331 H 0.08657 0.60743 0.88009 0.0
H332 H 0.09872 0.724 0.8905 0.0
N333 N 0.14571 0.70155 0.8758 0.0
N334 N 0.17049 0.74925 0.87237 0.0
C335 C 0.16484 0.71706 0.88413 0.0
C336 C 0.13906 0.72476 0.85836 0.0
C337 C 0.15416 0.75407 0.85624 0.0
C338 C 0.15629 0.61797 0.84717 0.0
O339 O 0.1725 0.64047 0.85416 0.0
H340 H 0.17478 0.70428 0.89793 0.0
H341 H 0.12437 0.72025 0.84763 0.0
O342 O 0.14215 0.64064 0.91567 0.0
H343 H 0.05484 0.71343 0.88981 0.0
H344 H 0.15315 0.77717 0.84369 0.0
Cu345 Cu 0.86835 0.45017 0.88839 0.0
N346 N 0.88093 0.49919 0.89036 0.0
N347 N 0.9088 0.54187 0.89079 0.0
C348 C 0.90238 0.50634 0.88456 0.0
C349 C 0.89055 0.55784 0.90081 0.0
C350 C 0.87338 0.53151 0.90049 0.0
O351 O 0.87672 0.43259 0.85661 0.0
C352 C 0.87217 0.43882 0.93532 0.0
O353 O 0.85776 0.46684 0.93338 0.0
H354 H 0.91344 0.48501 0.87712 0.0
H355 H 0.85696 0.53516 0.90811 0.0
N356 N 0.83686 0.44733 0.89034 0.0
N357 N 0.8029 0.42048 0.8902 0.0
C358 C 0.82514 0.41453 0.8916 0.0
C359 C 0.82141 0.47506 0.88841 0.0
C360 C 0.80049 0.45855 0.88813 0.0
C361 C 0.86607 0.45082 0.84069 0.0
O362 O 0.85151 0.47667 0.84741 0.0
H363 H 0.83285 0.38666 0.8925 0.0
H364 H 0.82511 0.505 0.88637 0.0
O365 O 0.87978 0.42377 0.91632 0.0
H366 H 0.8898 0.58622 0.90833 0.0
H367 H 0.78473 0.47332 0.88623 0.0
C368 C 0.34964 0.06993 0.45808 0.0
C369 C 0.36877 0.06345 0.44426 0.0
C370 C 0.35081 0.0711 0.4829 0.0
C371 C 0.37161 0.06573 0.49425 0.0
C372 C 0.3907 0.05686 0.48046 0.0
C373 C 0.38905 0.05578 0.45568 0.0
C374 C 0.33 0.08039 0.49687 0.0
C375 C 0.41321 0.05085 0.49178 0.0
C376 C 0.38206 0.11955 0.55158 0.0
C377 C 0.38016 0.09089 0.56868 0.0
C378 C 0.37907 0.11168 0.52748 0.0
C379 C 0.374 0.07412 0.52005 0.0
C380 C 0.37166 0.04506 0.53719 0.0
C381 C 0.37478 0.05377 0.56132 0.0
C382 C 0.38168 0.14362 0.50989 0.0
C383 C 0.36619 1.00471 0.53 0.0
H384 H 0.33384 0.07567 0.44951 0.0
H385 H 0.40394 0.05054 0.44524 0.0
H386 H 0.32815 0.06061 0.51196 0.0
H387 H 0.33135 0.10963 0.50425 0.0
H388 H 0.31472 0.07885 0.48584 0.0
H389 H 0.42579 0.03988 0.479 0.0
H390 H 0.41932 0.07828 0.49912 0.0
H391 H 0.41188 0.03055 0.50667 0.0
H392 H 0.38613 0.14836 0.55698 0.0
H393 H 0.37329 0.03142 0.57437 0.0
H394 H 0.36622 0.14665 0.49932 0.0
H395 H 0.39545 0.13691 0.49742 0.0
H396 H 0.38531 0.17138 0.51856 0.0
H397 H 0.35064 1.00419 0.51942 0.0
H398 H 0.36407 0.98571 0.54547 0.0
H399 H 0.37972 0.99312 0.51865 0.0
C400 C 0.67417 0.99341 0.56666 0.0
C401 C 0.67973 0.96178 0.58054 0.0
C402 C 0.67739 0.99293 0.54201 0.0
C403 C 0.68572 0.9596 0.53082 0.0
C404 C 0.69209 0.92809 0.54487 0.0
C405 C 0.68931 0.92977 0.56954 0.0
C406 C 0.67103 0.02758 0.52785 0.0
C407 C 0.70057 0.89165 0.53375 0.0
C408 C 0.66656 0.93821 0.46805 0.0
C409 C 0.68601 0.94457 0.45477 0.0
C410 C 0.66626 0.94332 0.49267 0.0
C411 C 0.68571 0.95616 0.50444 0.0
C412 C 0.70516 0.96414 0.49104 0.0
C413 C 0.70519 0.95768 0.46642 0.0
C414 C 0.64528 0.93364 0.5062 0.0
C415 C 0.72603 0.97895 0.50275 0.0
H416 H 0.66687 0.01832 0.57503 0.0
H417 H 0.69348 0.90507 0.58008 0.0
H418 H 0.68444 0.03472 0.51507 0.0
H419 H 0.65572 0.02151 0.51753 0.0
H420 H 0.66781 0.0528 0.53929 0.0
H421 H 0.70611 0.87065 0.54713 0.0
H422 H 0.68712 0.87857 0.52299 0.0
H423 H 0.71472 0.89765 0.52169 0.0
H424 H 0.6517 0.92772 0.4593 0.0
H425 H 0.72026 0.96278 0.45631 0.0
H426 H 0.63939 0.95883 0.51634 0.0
H427 H 0.64888 0.91078 0.51913 0.0
H428 H 0.63158 0.92393 0.49445 0.0
H429 H 0.72203 1.0042 0.51386 0.0
H430 H 0.73905 0.98699 0.4897 0.0
H431 H 0.73301 0.95688 0.51459 0.0
C432 C 0.40117 0.88673 0.06662 0.0
C433 C 0.38137 0.87839 0.07889 0.0
C434 C 0.40113 0.89292 0.04209 0.0
C435 C 0.38083 0.89058 0.0294 0.0
C436 C 0.36091 0.88119 0.04156 0.0
C437 C 0.3614 0.87536 0.06612 0.0
C438 C 0.42271 0.90319 0.02989 0.0
C439 C 0.33891 0.87834 0.02873 0.0
C440 C 0.37315 0.95101 0.97466 0.0
C441 C 0.37526 0.9243 0.95624 0.0
C442 C 0.37549 0.94046 0.99835 0.0
C443 C 0.37994 0.90202 1.00401 0.0
C444 C 0.38273 0.87493 0.98553 0.0
C445 C 0.38047 0.88644 0.96177 0.0
C446 C 0.37266 0.97047 0.01736 0.0
C447 C 0.38746 0.83366 0.99089 0.0
H448 H 0.41673 0.88895 0.07624 0.0
H449 H 0.34606 0.86854 0.07533 0.0
H450 H 0.42545 0.8845 1.01429 0.0
H451 H 0.42175 0.93291 0.02339 0.0
H452 H 0.43733 0.90074 0.04181 0.0
H453 H 0.32531 0.86765 0.04028 0.0
H454 H 0.33405 0.90682 0.02202 0.0
H455 H 0.34052 0.85908 1.01322 0.0
H456 H 0.36939 0.98047 0.97058 0.0
H457 H 0.38207 0.86566 0.94765 0.0
H458 H 0.3875 0.97098 0.02903 0.0
H459 H 0.35801 0.96352 0.02854 0.0
H460 H 0.37023 0.99943 1.00995 0.0
H461 H 0.40223 0.83123 1.00255 0.0
H462 H 0.39048 0.81659 0.97462 0.0
H463 H 0.37309 0.8212 1.00051 0.0
C464 C 0.65895 0.08503 0.95765 0.0
C465 C 0.65137 0.12253 0.95445 0.0
C466 C 0.66458 0.07142 0.98031 0.0
C467 C 0.66267 0.0959 1.00022 0.0
C468 C 0.65513 0.13377 0.99701 0.0
C469 C 0.64958 0.14651 0.9743 0.0
C470 C 0.6725 0.03086 0.98296 0.0
C471 C 0.65292 0.16101 0.01763 0.0
C472 C 0.65679 0.06255 0.06389 0.0
C473 C 0.67793 0.07115 0.07315 0.0
C474 C 0.65197 0.0681 0.0398 0.0
C475 C 0.66866 0.08262 0.02452 0.0
C476 C 0.69042 0.08885 0.03344 0.0
C477 C 0.69479 0.08303 0.05757 0.0
C478 C 0.62858 0.06078 0.03107 0.0
C479 C 0.70877 0.10417 0.01785 0.0
H480 H 0.66036 0.06622 0.94248 0.0
H481 H 0.6438 0.17555 0.97214 0.0
H482 H 0.68941 0.03045 0.9909 0.0
H483 H 0.66127 0.0153 0.99516 0.0
H484 H 0.67307 0.01539 0.96581 0.0
H485 H 0.64682 0.18954 1.01219 0.0
H486 H 0.64116 0.14928 0.03089 0.0
H487 H 0.6693 0.16451 0.02646 0.0
H488 H 0.64362 0.05325 0.07567 0.0
H489 H 0.71123 0.08956 0.06441 0.0
H490 H 0.62895 0.04443 1.01426 0.0
H491 H 0.6202 0.08835 0.02749 0.0
H492 H 0.61842 0.04488 0.04416 0.0
H493 H 0.70964 0.08795 1.00102 0.0
H494 H 0.72535 0.10294 0.02658 0.0
H495 H 0.70512 0.13428 1.0134 0.0
C496 C 0.8886 0.50844 0.5531 0.0
C497 C 0.88019 0.53809 0.56728 0.0
C498 C 0.88558 0.5084 0.52845 0.0
C499 C 0.87414 0.53901 0.51761 0.0
C500 C 0.86475 0.56812 0.53194 0.0
C501 C 0.86776 0.56719 0.55657 0.0
C502 C 0.89556 0.47647 0.51391 0.0
C503 C 0.85258 0.60146 0.52116 0.0
C504 C 0.89138 0.56596 0.45517 0.0
C505 C 0.87356 0.55216 0.44152 0.0
C506 C 0.89174 0.56167 0.47981 0.0
C507 C 0.87396 0.54266 0.49128 0.0
C508 C 0.85609 0.52799 0.47763 0.0
C509 C 0.85602 0.53312 0.45294 0.0
C510 C 0.91104 0.57809 0.49362 0.0
C511 C 0.83699 0.50712 0.48915 0.0
H512 H 0.89809 0.48568 0.56118 0.0
H513 H 0.86119 0.59027 0.56731 0.0
H514 H 0.88311 0.46524 0.50119 0.0
H515 H 0.90985 0.48746 0.50349 0.0
H516 H 0.90158 0.45265 0.52507 0.0
H517 H 0.84461 0.61997 0.53474 0.0
H518 H 0.86451 0.61892 0.51084 0.0
H519 H 0.83955 0.59132 0.50876 0.0
H520 H 0.905 0.58084 0.44664 0.0
H521 H 0.8422 0.52227 0.4426 0.0
H522 H 0.91949 0.55526 0.50372 0.0
H523 H 0.90479 0.59939 0.50659 0.0
H524 H 0.92356 0.59206 0.48206 0.0
H525 H 0.84344 0.48285 0.49962 0.0
H526 H 0.8248 0.49612 0.47603 0.0
H527 H 0.82812 0.52643 0.50158 0.0
C528 C 0.19402 0.44506 0.5738 0.0
C529 C 0.17956 0.47202 0.58404 0.0
C530 C 0.19765 0.44387 0.54919 0.0
C531 C 0.18678 0.47055 0.53438 0.0
C532 C 0.17315 0.4991 0.54478 0.0
C533 C 0.1696 0.49934 0.56937 0.0
C534 C 0.21219 0.41276 0.53893 0.0
C535 C 0.16147 0.52845 0.52981 0.0
C536 C 0.20555 0.48142 0.47 0.0
C537 C 0.18944 0.45987 0.4579 0.0
C538 C 0.20497 0.48518 0.49484 0.0
C539 C 0.18804 0.46663 0.50799 0.0
C540 C 0.17188 0.4446 0.49586 0.0
C541 C 0.1727 0.44167 0.47109 0.0
C542 C 0.22238 0.50926 0.507 0.0
C543 C 0.15362 0.42404 0.50907 0.0
H544 H 0.20173 0.42368 0.58488 0.0
H545 H 0.15849 0.52043 0.57705 0.0
H546 H 0.20174 0.39279 0.52849 0.0
H547 H 0.22475 0.42498 0.52672 0.0
H548 H 0.221 0.39635 0.55282 0.0
H549 H 0.15335 0.551 0.54067 0.0
H550 H 0.17348 0.54206 0.51754 0.0
H551 H 0.1485 0.51437 0.51888 0.0
H552 H 0.21853 0.49565 0.46006 0.0
H553 H 0.16021 0.42476 0.46205 0.0
H554 H 0.23164 0.49187 0.52005 0.0
H555 H 0.21418 0.53279 0.51689 0.0
H556 H 0.23452 0.52166 0.49435 0.0
H557 H 0.16103 0.40447 0.52225 0.0
H558 H 0.14266 0.40727 0.49712 0.0
H559 H 0.14316 0.44489 0.51889 0.0
C560 C 0.87276 0.44995 0.97879 0.0
C561 C 0.8796 0.42763 0.95939 0.0
C562 C 0.87933 0.44132 1.00187 0.0
C563 C 0.89302 0.40923 1.00598 0.0
C564 C 0.89994 0.38625 0.98659 0.0
C565 C 0.89324 0.39583 0.96345 0.0
C566 C 0.87171 0.46689 0.02189 0.0
C567 C 0.91441 0.35161 0.99032 0.0
C568 C 0.92513 0.41231 0.06392 0.0
C569 C 0.91125 0.39124 0.07898 0.0
C570 C 0.91979 0.41731 0.03996 0.0
C571 C 0.90017 0.40056 0.03067 0.0
C572 C 0.8863 0.37866 0.04566 0.0
C573 C 0.89192 0.37445 0.06963 0.0
C574 C 0.93487 0.4414 0.02474 0.0
C575 C 0.86528 0.36019 0.03647 0.0
H576 H 0.86232 0.47474 0.97599 0.0
H577 H 0.89857 0.37841 0.94862 0.0
H578 H 0.86204 0.4502 0.03496 0.0
H579 H 0.8864 0.47887 0.03122 0.0
H580 H 0.86115 0.49086 0.0157 0.0
H581 H 0.91799 0.33623 0.97354 0.0
H582 H 0.93046 0.36017 0.99849 0.0
H583 H 0.90609 0.33175 1.00271 0.0
H584 H 0.94015 0.42529 0.07091 0.0
H585 H 0.88121 0.35772 0.08102 0.0
H586 H 0.92573 0.46716 0.01885 0.0
H587 H 0.93988 0.42535 1.00865 0.0
H588 H 0.95016 0.45058 0.03423 0.0
H589 H 0.85315 0.38248 0.03123 0.0
H590 H 0.85727 0.34157 0.04983 0.0
H591 H 0.86906 0.34292 0.02048 0.0
C592 C 0.17767 0.55666 0.05531 0.0
C593 C 0.16878 0.5765 0.07483 0.0
C594 C 0.17191 0.56612 0.03204 0.0
C595 C 0.1569 0.59647 0.02784 0.0
C596 C 0.14824 0.61738 0.04737 0.0
C597 C 0.15424 0.60711 0.07064 0.0
C598 C 0.1815 0.54284 1.01191 0.0
C599 C 0.13231 0.6501 0.04368 0.0
C600 C 0.15591 0.634 0.96446 0.0
C601 C 0.13757 0.61452 0.95484 0.0
C602 C 0.16197 0.62944 0.98836 0.0
C603 C 0.14952 0.60462 1.00305 0.0
C604 C 0.1309 0.58519 0.99345 0.0
C605 C 0.12515 0.59042 0.9696 0.0
C606 C 0.18191 0.65078 0.99783 0.0
C607 C 0.11725 0.55817 1.00829 0.0
H608 H 0.18899 0.53304 0.05816 0.0
H609 H 0.1473 0.62268 0.08551 0.0
H610 H 0.16784 0.52818 1.00231 0.0
H611 H 0.19005 0.56168 0.99911 0.0
H612 H 0.19359 0.52102 0.01806 0.0
H613 H 0.12819 0.66507 0.06046 0.0
H614 H 0.1396 0.6709 0.03116 0.0
H615 H 0.11662 0.6394 0.0357 0.0
H616 H 0.16553 0.65293 0.95334 0.0
H617 H 0.1109 0.57528 0.96248 0.0
H618 H 0.19512 0.63029 1.00299 0.0
H619 H 0.17717 0.66706 1.01393 0.0
H620 H 0.18898 0.67082 0.98467 0.0
H621 H 0.12784 0.534 1.01405 0.0
H622 H 0.10266 0.54659 0.99855 0.0
H623 H 0.11116 0.57287 0.02445 0.0
C624 C 0.56097 0.94805 0.4033 0.0
C625 C 0.57471 0.93764 0.38423 0.0
C626 C 0.54188 0.97062 0.39999 0.0
C627 C 0.53607 0.98261 0.37696 0.0
C628 C 0.54983 0.97206 0.35758 0.0
C629 C 0.56914 0.95005 0.3615 0.0
C630 C 0.528 0.98186 0.42121 0.0
C631 C 0.54403 0.98367 0.33271 0.0
C632 C 0.47513 0.01011 0.36831 0.0
C633 C 0.47613 0.05 0.36886 0.0
C634 C 0.49457 0.98787 0.37023 0.0
C635 C 0.5155 1.00594 0.37329 0.0
C636 C 0.51659 0.04626 0.37384 0.0
C637 C 0.49692 0.06779 0.37136 0.0
C638 C 0.49268 0.94503 0.36907 0.0
C639 C 0.53847 0.06667 0.37757 0.0
H640 H 0.56544 0.93916 0.42096 0.0
H641 H 0.5797 0.94193 0.34675 0.0
H642 H 0.52668 0.01334 0.42235 0.0
H643 H 0.51082 0.97054 0.41933 0.0
H644 H 0.53513 0.9711 0.43801 0.0
H645 H 0.55631 0.97286 0.31956 0.0
H646 H 0.52726 0.97266 0.32801 0.0
H647 H 0.54329 0.01516 0.33146 0.0
H648 H 0.45912 0.9963 0.36599 0.0
H649 H 0.4977 0.09861 0.37192 0.0
H650 H 0.49803 0.9325 0.38609 0.0
H651 H 0.50394 0.93356 0.35515 0.0
H652 H 0.47538 0.93548 0.36528 0.0
H653 H 0.54568 0.05843 0.39485 0.0
H654 H 0.53654 0.09814 0.37721 0.0
H655 H 0.55063 0.05811 0.36373 0.0
C656 C 0.48644 0.94288 0.17033 0.0
C657 C 0.48865 0.91098 0.15541 0.0
C658 C 0.5033 0.97075 0.17175 0.0
C659 C 0.52291 0.96679 0.15791 0.0
C660 C 0.52534 0.93451 0.14301 0.0
C661 C 0.50825 0.90717 0.14193 0.0
C662 C 0.50005 1.00463 0.18791 0.0
C663 C 0.54589 0.92912 0.12786 0.0
C664 C 0.55798 0.05293 0.14083 0.0
C665 C 0.57654 0.04954 0.15582 0.0
C666 C 0.54011 0.02704 0.1419 0.0
C667 C 0.54069 0.99674 0.15833 0.0
C668 C 0.55899 0.9938 0.17403 0.0
C669 C 0.57662 0.02019 0.17262 0.0
C670 C 0.52096 0.03133 0.12482 0.0
C671 C 0.56028 0.96208 0.19188 0.0
H672 H 0.47154 0.94599 0.18102 0.0
H673 H 0.51012 0.88315 0.13004 0.0
H674 H 0.51408 1.00657 0.20061 0.0
H675 H 0.5001 0.03125 0.17742 0.0
H676 H 0.48414 1.00311 0.19797 0.0
H677 H 0.54554 0.90196 0.11773 0.0
H678 H 0.54738 0.95302 0.11521 0.0
H679 H 0.56106 0.92944 0.13906 0.0
H680 H 0.55769 0.07504 0.12759 0.0
H681 H 0.59061 0.01755 0.18457 0.0
H682 H 0.50484 0.03148 0.13448 0.0
H683 H 0.5207 1.00667 0.11248 0.0
H684 H 0.52219 0.05787 0.1143 0.0
H685 H 0.54485 0.9614 0.20273 0.0
H686 H 0.57486 0.9651 0.20383 0.0
H687 H 0.56155 0.93427 0.18258 0.0
C688 C 0.57799 0.97867 0.6602 0.0
C689 C 0.5812 0.9494 0.64352 0.0
C690 C 0.55812 1.00008 0.6608 0.0
C691 C 0.54093 0.99206 0.64437 0.0
C692 C 0.54393 0.96228 0.6277 0.0
C693 C 0.56397 0.94144 0.62745 0.0
C694 C 0.55561 0.03157 0.67887 0.0
C695 C 0.52607 0.95281 0.60983 0.0
C696 C 0.48154 0.02653 0.65641 0.0
C697 C 0.48018 0.05903 0.64211 0.0
C698 C 0.50122 1.00468 0.65752 0.0
C699 C 0.5201 0.01554 0.64405 0.0
C700 C 0.51892 0.04845 0.62975 0.0
C701 C 0.49903 0.06967 0.62892 0.0
C702 C 0.50178 0.9698 0.673 0.0
C703 C 0.53861 0.06104 0.61505 0.0
H704 H 0.59099 0.9848 0.67291 0.0
H705 H 0.56628 0.91938 0.61426 0.0
H706 H 0.5534 0.05926 0.66981 0.0
H707 H 0.54046 0.02675 0.68975 0.0
H708 H 0.57027 0.03366 0.69078 0.0
H709 H 0.53063 0.92794 0.5986 0.0
H710 H 0.51011 0.94654 0.61897 0.0
H711 H 0.52312 0.97768 0.59823 0.0
H712 H 0.46725 0.01826 0.66692 0.0
H713 H 0.49818 0.09428 0.61752 0.0
H714 H 0.51551 0.97225 0.68603 0.0
H715 H 0.50518 0.94412 0.66206 0.0
H716 H 0.48585 0.9655 0.68268 0.0
H717 H 0.5534 0.0654 0.62651 0.0
H718 H 0.53523 0.08788 0.60537 0.0
H719 H 0.54299 0.03852 0.60203 0.0
C720 C 0.543 0.08521 0.89305 0.0
C721 C 0.54698 0.12125 0.88333 0.0
C722 C 0.52131 0.06957 0.89346 0.0
C723 C 0.50325 0.09006 0.88345 0.0
C724 C 0.50741 0.12587 0.87288 0.0
C725 C 0.5291 0.14113 0.87318 0.0
C726 C 0.51762 0.03166 0.90528 0.0
C727 C 0.48887 0.14837 0.86149 0.0
C728 C 0.44942 0.03717 0.86788 0.0
C729 C 0.43515 0.04812 0.8864 0.0
C730 C 0.47156 0.05055 0.86665 0.0
C731 C 0.47987 0.07485 0.88467 0.0
C732 C 0.46559 0.08554 0.90359 0.0
C733 C 0.44339 0.07242 0.90407 0.0
C734 C 0.48594 0.03912 0.84588 0.0
C735 C 0.47379 0.11077 0.9234 0.0
H736 H 0.5567 0.06992 0.9011 0.0
H737 H 0.53215 0.16878 0.8654 0.0
H738 H 0.50609 0.03533 0.92049 0.0
H739 H 0.50963 0.01144 0.8928 0.0
H740 H 0.53343 0.01886 0.91173 0.0
H741 H 0.49507 0.17458 0.85276 0.0
H742 H 0.48017 0.13056 0.84815 0.0
H743 H 0.47634 0.1567 0.87502 0.0
H744 H 0.44309 0.01864 0.85409 0.0
H745 H 0.43255 0.08055 0.91859 0.0
H746 H 0.50115 0.02425 0.85213 0.0
H747 H 0.4915 0.06491 0.83627 0.0
H748 H 0.47701 0.02014 0.83332 0.0
H749 H 0.48884 0.09804 0.9316 0.0
H750 H 0.46094 0.11517 0.93733 0.0
H751 H 0.47868 0.13897 0.91634 0.0
C752 C 0.98487 0.53698 0.35488 0.0
C753 C 0.98272 0.56969 0.36907 0.0
C754 C 1.00442 0.51481 0.35522 0.0
C755 C 1.02228 0.52551 0.37018 0.0
C756 C 1.02045 0.559 0.3841 0.0
C757 C 1.00073 0.58069 0.38334 0.0
C758 C 1.00576 0.47949 0.33996 0.0
C759 C 0.03906 0.57133 0.40036 0.0
C760 C 0.06247 0.44919 0.39161 0.0
C761 C 0.08134 0.45563 0.37747 0.0
C762 C 0.04309 0.47138 0.38918 0.0
C763 C 0.04247 0.50077 0.37215 0.0
C764 C 0.06129 0.50703 0.35752 0.0
C765 C 0.08049 0.48445 0.36037 0.0
C766 C 1.02343 0.46385 0.40522 0.0
C767 C 0.06124 0.53788 0.33904 0.0
H768 H 0.97118 0.52858 0.34354 0.0
H769 H 0.99917 0.60561 0.39457 0.0
H770 H 1.02092 0.48042 0.3287 0.0
H771 H 1.00716 0.45392 0.3513 0.0
H772 H 0.99091 0.47617 0.32842 0.0
H773 H 0.03547 0.59901 0.40919 0.0
H774 H 0.04169 0.54943 0.41414 0.0
H775 H 0.0549 0.57394 0.39033 0.0
H776 H 0.06302 0.42744 0.40508 0.0
H777 H 0.09486 0.48932 0.34916 0.0
H778 H 1.00829 0.45808 0.39455 0.0
H779 H 1.01993 0.48945 0.41619 0.0
H780 H 0.02635 0.43929 0.41713 0.0
H781 H 0.04704 0.53371 0.32677 0.0
H782 H 0.07696 0.53839 0.32861 0.0
H783 H 0.05896 0.5661 0.34762 0.0
C784 C 0.10819 0.41185 0.15879 0.0
C785 C 0.11228 0.44538 0.14611 0.0
C786 C 0.08668 0.39583 0.15987 0.0
C787 C 0.0688 0.41335 0.14764 0.0
C788 C 0.07286 0.44719 0.13476 0.0
C789 C 0.09446 0.46291 0.13432 0.0
C790 C 0.08309 0.36009 0.17409 0.0
C791 C 0.05444 0.46648 0.12114 0.0
C792 C 1.01913 0.35117 0.1307 0.0
C793 C 1.00304 0.36164 0.14761 0.0
C794 C 0.04045 0.36786 0.13046 0.0
C795 C 0.04606 0.39562 0.14769 0.0
C796 C 0.02993 0.40631 0.16486 0.0
C797 C 1.00861 0.38939 0.16453 0.0
C798 C 0.05695 0.35594 0.11162 0.0
C799 C 0.03526 0.43546 0.18369 0.0
H800 H 0.12178 0.39844 0.16821 0.0
H801 H 0.09754 0.48859 0.1243 0.0
H802 H 0.06978 0.3649 0.18744 0.0
H803 H 0.0774 0.33668 0.16234 0.0
H804 H 0.09849 0.35074 0.1833 0.0
H805 H 0.06023 0.49279 0.1122 0.0
H806 H 0.04773 0.44666 0.10759 0.0
H807 H 0.04047 0.47398 0.13317 0.0
H808 H 1.01492 0.33031 0.11729 0.0
H809 H 0.99638 0.39745 0.17775 0.0
H810 H 0.07215 0.34396 0.11993 0.0
H811 H 0.06219 0.38112 0.10124 0.0
H812 H 0.04995 0.3343 0.09933 0.0
H813 H 0.04983 0.42586 0.19418 0.0
H814 H 1.02099 0.4405 0.19588 0.0
H815 H 0.03989 0.4629 0.17539 0.0
C816 C 0.99688 0.56389 0.62186 0.0
C817 C 0.9782 0.55411 0.63558 0.0
C818 C 1.01727 0.54441 0.62412 0.0
C819 C 1.01912 0.51407 0.64038 0.0
C820 C 1.00044 0.50409 0.6544 0.0
C821 C 0.98028 0.52426 0.65189 0.0
C822 C 0.03678 0.55605 0.60886 0.0
C823 C 1.00168 0.47185 0.67189 0.0
C824 C 0.06472 0.4408 0.62837 0.0
C825 C 0.08159 0.45211 0.64411 0.0
C826 C 0.04423 0.46025 0.6273 0.0
C827 C 0.04045 0.49214 0.64218 0.0
C828 C 0.05727 0.50361 0.65825 0.0
C829 C 0.07756 0.48344 0.65907 0.0
C830 C 0.02675 0.44698 0.60995 0.0
C831 C 0.05392 0.53752 0.67438 0.0
H832 H 0.99554 0.58641 0.60896 0.0
H833 H 0.96617 0.51671 0.66287 0.0
H834 H 0.05139 0.56298 0.62009 0.0
H835 H 0.04172 0.53202 0.59717 0.0
H836 H 0.0329 0.58112 0.5977 0.0
H837 H 0.98579 0.46797 0.68173 0.0
H838 H 1.00576 0.44486 0.66254 0.0
H839 H 1.01525 0.47722 0.68478 0.0
H840 H 0.0676 0.41712 0.61645 0.0
H841 H 0.09023 0.49221 0.67154 0.0
H842 H 1.02338 0.46973 0.5969 0.0
H843 H 1.01084 0.44117 0.61932 0.0
H844 H 0.03191 0.42081 0.60027 0.0
H845 H 0.05115 0.56352 0.66372 0.0
H846 H 0.06845 0.5424 0.68617 0.0
H847 H 0.03884 0.53337 0.68545 0.0
C848 C 0.03822 0.60014 0.89358 0.0
C849 C 0.04167 0.63614 0.88356 0.0
C850 C 1.01675 0.58374 0.89443 0.0
C851 C 0.99829 0.60347 0.88466 0.0
C852 C 1.00184 0.63932 0.8739 0.0
C853 C 1.02338 0.65528 0.87366 0.0
C854 C 1.01373 0.54575 0.90637 0.0
C855 C 0.98283 0.66109 0.86284 0.0
C856 C 0.94513 0.5479 0.87011 0.0
C857 C 0.93106 0.55772 0.88906 0.0
C858 C 0.96695 0.56259 0.86839 0.0
C859 C 0.97515 0.58727 0.88626 0.0
C860 C 0.96106 0.59705 0.90552 0.0
C861 C 0.93919 0.58246 0.90657 0.0
C862 C 0.98116 0.55193 0.84733 0.0
C863 C 0.96914 0.62278 0.92515 0.0
H864 H 0.05221 0.58536 0.90146 0.0
H865 H 0.02595 0.68287 0.86562 0.0
H866 H 1.00231 0.54899 0.9217 0.0
H867 H 1.00592 0.52514 0.89401 0.0
H868 H 0.02978 0.53365 0.91266 0.0
H869 H 0.98852 0.68765 0.85412 0.0
H870 H 0.97426 0.643 0.84954 0.0
H871 H 0.97033 0.6687 0.87655 0.0
H872 H 0.93891 0.52908 0.85641 0.0
H873 H 0.92858 0.58977 0.92143 0.0
H874 H 0.99667 0.53766 0.85328 0.0
H875 H 0.98619 0.57801 0.8377 0.0
H876 H 0.97231 0.53266 0.83487 0.0
H877 H 0.98442 0.61064 0.93322 0.0
H878 H 0.95639 0.62688 0.9392 0.0
H879 H 0.97365 0.65106 0.91792 0.0
C880 C 0.23513 0.29002 0.35603 0.0
C881 C 0.22923 0.31282 0.37552 0.0
C882 C 0.25504 0.26883 0.35571 0.0
C883 C 0.26948 0.27005 0.37547 0.0
C884 C 0.26367 0.29307 0.39522 0.0
C885 C 0.24371 0.31436 0.39494 0.0
C886 C 0.26068 0.24523 0.33413 0.0
C887 C 0.27848 0.29495 0.41672 0.0
C888 C 0.31118 0.18836 0.38209 0.0
C889 C 0.33099 0.20488 0.37379 0.0
C890 C 0.29113 0.20934 0.38304 0.0
C891 C 0.29076 0.24765 0.37522 0.0
C892 C 0.31067 0.2643 0.36658 0.0
C893 C 0.3305 0.24283 0.36609 0.0
C894 C 0.27035 0.19057 0.39257 0.0
C895 C 0.31101 0.30478 0.3577 0.0
H896 H 0.22426 0.28914 0.34078 0.0
H897 H 0.23918 0.33162 0.41013 0.0
H898 H 0.2769 0.25456 0.32666 0.0
H899 H 0.2625 0.21485 0.33907 0.0
H900 H 0.24774 0.24745 0.32017 0.0
H901 H 0.2715 0.31376 0.43075 0.0
H902 H 0.28079 0.26598 0.42408 0.0
H903 H 0.29523 0.30567 0.41171 0.0
H904 H 0.31147 0.15927 0.38837 0.0
H905 H 0.34566 0.25565 0.35941 0.0
H906 H 0.25719 0.19017 0.37882 0.0
H907 H 0.26375 0.20722 0.40776 0.0
H908 H 0.27348 0.16087 0.3984 0.0
H909 H 0.2991 0.30791 0.34284 0.0
H910 H 0.32784 0.31357 0.35156 0.0
H911 H 0.30553 0.32458 0.3719 0.0
C912 C 0.72494 0.75486 0.37579 0.0
C913 C 0.72321 0.79123 0.38607 0.0
C914 C 0.74564 0.73626 0.37365 0.0
C915 C 0.7652 0.75431 0.38207 0.0
C916 C 0.76358 0.79087 0.39268 0.0
C917 C 0.74265 0.80891 0.39448 0.0
C918 C 0.74661 0.69748 0.36203 0.0
C919 C 0.784 0.81104 0.40201 0.0
C920 C 0.81669 0.69263 0.3929 0.0
C921 C 0.82934 0.69921 0.37242 0.0
C922 C 0.7959 0.71056 0.3964 0.0
C923 C 0.78743 0.73552 0.37895 0.0
C924 C 0.80008 0.74214 0.35823 0.0
C925 C 0.82081 0.72399 0.35524 0.0
C926 C 0.78299 0.70286 0.41879 0.0
C927 C 0.79163 0.76822 0.33907 0.0
H928 H 0.71011 0.74114 0.36894 0.0
H929 H 0.74146 0.83673 0.40273 0.0
H930 H 0.75715 0.69877 0.34592 0.0
H931 H 0.75443 0.67661 0.37412 0.0
H932 H 0.72982 0.68684 0.35699 0.0
H933 H 0.77986 0.83881 0.41044 0.0
H934 H 0.7926 0.79287 0.41515 0.0
H935 H 0.79595 0.81613 0.38737 0.0
H936 H 0.82321 0.67387 0.40636 0.0
H937 H 0.8302 0.7288 0.33919 0.0
H938 H 0.76651 0.69038 0.41442 0.0
H939 H 0.77983 0.72998 0.42838 0.0
H940 H 0.79196 0.68308 0.43075 0.0
H941 H 0.77549 0.7575 0.33218 0.0
H942 H 0.80355 0.77063 0.32411 0.0
H943 H 0.78855 0.79711 0.34643 0.0
C944 C 0.27472 0.60372 0.16894 0.0
C945 C 0.26024 0.60024 0.14959 0.0
C946 C 0.29251 0.62981 0.16882 0.0
C947 C 0.29623 0.65284 0.14871 0.0
C948 C 0.28169 0.64947 0.12907 0.0
C949 C 0.26378 0.62347 0.12983 0.0
C950 C 0.30731 0.63279 0.1903 0.0
C951 C 0.28521 0.67299 0.10714 0.0
C952 C 0.33186 0.7422 0.15693 0.0
C953 C 0.35311 0.72902 0.15041 0.0
C954 C 0.31314 0.71795 0.15617 0.0
C955 C 0.31561 0.6798 0.1482 0.0
C956 C 0.33693 0.66682 0.14083 0.0
C957 C 0.35541 0.6914 0.14228 0.0
C958 C 0.29085 0.73282 0.16463 0.0
C959 C 0.34031 0.62672 0.13175 0.0
H960 H 0.27189 0.58647 0.18446 0.0
H961 H 0.25273 0.62081 0.11479 0.0
H962 H 0.32473 0.62526 0.18549 0.0
H963 H 0.30746 0.66257 0.19696 0.0
H964 H 0.30179 0.61378 0.2048 0.0
H965 H 0.27242 0.66717 0.09342 0.0
H966 H 0.28473 0.70375 0.11166 0.0
H967 H 0.30195 0.66692 0.09958 0.0
H968 H 0.33004 0.77112 0.16342 0.0
H969 H 0.37175 0.68126 0.13693 0.0
H970 H 0.28532 0.71637 0.18026 0.0
H971 H 0.27806 0.72886 0.15071 0.0
H972 H 0.29151 0.76348 0.16952 0.0
H973 H 0.33684 0.60607 0.14605 0.0
H974 H 0.35757 0.62184 0.12518 0.0
H975 H 0.32844 0.62064 0.1172 0.0
C976 C 0.7481 0.16397 0.14181 0.0
C977 C 0.73061 0.18535 0.15177 0.0
C978 C 0.77025 0.17727 0.14222 0.0
C979 C 0.77517 0.21276 0.15303 0.0
C980 C 0.75761 0.23444 0.16319 0.0
C981 C 0.73558 0.22059 0.16234 0.0
C982 C 0.78838 0.15338 0.13097 0.0
C983 C 0.7621 0.2722 0.17511 0.0
C984 C 0.8349 0.23001 0.17366 0.0
C985 C 0.84346 0.25339 0.15575 0.0
C986 C 0.81275 0.21684 0.17306 0.0
C987 C 0.79872 0.22694 0.15397 0.0
C988 C 0.80726 0.25046 0.13578 0.0
C989 C 0.82944 0.26353 0.13696 0.0
C990 C 0.80431 0.19223 0.19296 0.0
C991 C 0.79299 0.26161 0.11499 0.0
H992 H 0.74442 0.13704 0.13328 0.0
H993 H 0.72225 0.23713 0.17029 0.0
H994 H 0.79697 0.16997 0.11702 0.0
H995 H 0.8011 0.14578 0.14436 0.0
H996 H 0.78179 0.12672 0.12298 0.0
H997 H 0.74665 0.28564 0.18214 0.0
H998 H 0.77398 0.2682 0.18991 0.0
H999 H 0.77001 0.29208 0.16244 0.0
H1000 H 0.84545 0.2225 0.18844 0.0
H1001 H 0.83595 0.28124 0.12294 0.0
H1002 H 0.79875 0.16428 0.18592 0.0
H1003 H 0.78962 0.2059 0.20146 0.0
H1004 H 0.81723 0.18722 0.20665 0.0
H1005 H 0.78714 0.23569 0.10558 0.0
H1006 H 0.8021 0.2799 0.10226 0.0
H1007 H 0.77795 0.27716 0.12122 0.0
C1008 C 0.7307 0.76896 0.67001 0.0
C1009 C 0.72719 0.80088 0.65556 0.0
C1010 C 0.75054 0.74756 0.66869 0.0
C1011 C 0.76753 0.75829 0.65264 0.0
C1012 C 0.76414 0.79035 0.63795 0.0
C1013 C 0.74406 0.81114 0.63954 0.0
C1014 C 0.7534 0.71362 0.6847 0.0
C1015 C 0.78183 0.80287 0.62064 0.0
C1016 C 0.82699 0.72637 0.66616 0.0
C1017 C 0.82989 0.69518 0.65077 0.0
C1018 C 0.80694 0.74721 0.66678 0.0
C1019 C 0.78909 0.73663 0.65179 0.0
C1020 C 0.79177 0.7051 0.6363 0.0
C1021 C 0.8121 0.68484 0.63595 0.0
C1022 C 0.80484 0.78055 0.6836 0.0
C1023 C 0.77315 0.69275 0.62008 0.0
H1024 H 0.71809 0.7609 0.68272 0.0
H1025 H 0.74155 0.83528 0.62803 0.0
H1026 H 0.7571 0.68775 0.67406 0.0
H1027 H 0.76779 0.71832 0.69666 0.0
H1028 H 0.73833 0.70817 0.69563 0.0
H1029 H 0.77655 0.82803 0.61021 0.0
H1030 H 0.79739 0.81011 0.63024 0.0
H1031 H 0.78588 0.77923 0.60827 0.0
H1032 H 0.84035 0.73438 0.678 0.0
H1033 H 0.81411 0.66119 0.6238 0.0
H1034 H 0.79099 0.77549 0.69622 0.0
H1035 H 0.80072 0.8068 0.67367 0.0
H1036 H 0.82039 0.7856 0.69379 0.0
H1037 H 0.75812 0.68552 0.6306 0.0
H1038 H 0.77782 0.66765 0.60911 0.0
H1039 H 0.7685 0.7165 0.6082 0.0
C1040 C 0.2328 0.27911 0.67345 0.0
C1041 C 0.22921 0.31116 0.65912 0.0
C1042 C 0.25258 0.25761 0.67192 0.0
C1043 C 0.26951 0.26841 0.65582 0.0
C1044 C 0.26607 0.3006 0.64124 0.0
C1045 C 0.246 0.32145 0.643 0.0
C1046 C 0.25547 0.22351 0.6878 0.0
C1047 C 0.28373 0.31328 0.62394 0.0
C1048 C 0.32877 0.23638 0.67009 0.0
C1049 C 0.33187 0.20511 0.65479 0.0
C1050 C 0.30879 0.25742 0.6703 0.0
C1051 C 0.29114 0.24692 0.65504 0.0
C1052 C 0.294 0.21534 0.63961 0.0
C1053 C 0.31429 0.19493 0.63962 0.0
C1054 C 0.30653 0.29083 0.68706 0.0
C1055 C 0.27556 0.203 0.62316 0.0
H1056 H 0.2203 0.27097 0.68627 0.0
H1057 H 0.24347 0.3457 0.63159 0.0
H1058 H 0.25936 0.1978 0.67709 0.0
H1059 H 0.26973 0.22827 0.69991 0.0
H1060 H 0.24034 0.21774 0.69857 0.0
H1061 H 0.27836 0.33836 0.61349 0.0
H1062 H 0.29924 0.32071 0.63357 0.0
H1063 H 0.28788 0.28967 0.6116 0.0
H1064 H 0.34189 0.24432 0.68224 0.0
H1065 H 0.31642 0.17123 0.62754 0.0
H1066 H 0.29273 0.2856 0.69971 0.0
H1067 H 0.30226 0.31697 0.67709 0.0
H1068 H 0.32206 0.29617 0.69723 0.0
H1069 H 0.26049 0.19546 0.63353 0.0
H1070 H 0.28042 0.17809 0.61211 0.0
H1071 H 0.2709 0.22684 0.61136 0.0
C1072 C 0.69426 0.28982 0.89752 0.0
C1073 C 0.69574 0.25743 0.88309 0.0
C1074 C 0.71246 0.31484 0.90005 0.0
C1075 C 0.73243 0.30794 0.88722 0.0
C1076 C 0.73405 0.27478 0.87286 0.0
C1077 C 0.71574 0.24973 0.87116 0.0
C1078 C 0.71007 0.34922 0.91597 0.0
C1079 C 0.75474 0.26665 0.85845 0.0
C1080 C 0.76778 0.39554 0.87335 0.0
C1081 C 0.78548 0.39204 0.88936 0.0
C1082 C 0.75077 0.36799 0.87212 0.0
C1083 C 0.75103 0.33656 0.88778 0.0
C1084 C 0.76881 0.33306 0.90414 0.0
C1085 C 0.78597 0.36051 0.90448 0.0
C1086 C 0.73254 0.37246 0.85398 0.0
C1087 C 0.76948 0.3007 0.92157 0.0
H1088 H 0.67866 0.29577 0.90654 0.0
H1089 H 0.71663 0.22495 0.8597 0.0
H1090 H 0.72437 0.35088 0.92835 0.0
H1091 H 0.71023 0.37554 0.90522 0.0
H1092 H 0.69434 0.3486 0.92638 0.0
H1093 H 0.75377 0.23889 0.84902 0.0
H1094 H 0.75714 0.28955 0.84525 0.0
H1095 H 0.76969 0.26653 0.86997 0.0
H1096 H 0.76751 0.4196 0.86144 0.0
H1097 H 0.79955 0.35789 0.91698 0.0
H1098 H 0.71619 0.37598 0.86293 0.0
H1099 H 0.73149 0.34644 0.84283 0.0
H1100 H 0.73533 0.39739 0.84233 0.0
H1101 H 0.75425 0.30135 0.93275 0.0
H1102 H 0.78435 0.30208 0.93322 0.0
H1103 H 0.76961 0.27301 0.91206 0.0
C1104 C 0.20066 0.77647 0.8974 0.0
C1105 C 0.1901 0.77297 0.87537 0.0
C1106 C 0.21925 0.80065 0.90051 0.0
C1107 C 0.22766 0.82171 0.8811 0.0
C1108 C 0.21727 0.81778 0.85877 0.0
C1109 C 0.19871 0.79363 0.85621 0.0
C1110 C 0.22973 0.80404 0.92463 0.0
C1111 C 0.22573 0.83923 0.8375 0.0
C1112 C 0.26223 0.91214 0.88981 0.0
C1113 C 0.28404 0.89912 0.88547 0.0
C1114 C 0.24387 0.88711 0.8892 0.0
C1115 C 0.24723 0.84798 0.88395 0.0
C1116 C 0.26924 0.83452 0.88 0.0
C1117 C 0.28731 0.86013 0.88086 0.0
C1118 C 0.22076 0.90274 0.8937 0.0
C1119 C 0.27366 0.79319 0.87414 0.0
H1120 H 0.1941 0.76092 0.91235 0.0
H1121 H 0.19104 0.79068 0.839 0.0
H1122 H 0.24767 0.79633 0.92366 0.0
H1123 H 0.22875 0.83399 0.9309 0.0
H1124 H 0.22148 0.78546 0.93785 0.0
H1125 H 0.21599 0.83275 0.8213 0.0
H1126 H 0.22487 0.87035 0.84092 0.0
H1127 H 0.24348 0.83199 0.83417 0.0
H1128 H 0.25951 0.94203 0.89367 0.0
H1129 H 0.30397 0.8497 0.87716 0.0
H1130 H 0.21241 0.88624 0.90785 0.0
H1131 H 0.21049 0.8997 0.87752 0.0
H1132 H 0.22103 0.93327 0.89894 0.0
H1133 H 0.26613 0.77457 0.88776 0.0
H1134 H 0.29178 0.78673 0.87289 0.0
H1135 H 0.26573 0.78584 0.85703 0.0
C1136 C 0.36653 0.01628 0.30513 0.0
C1137 C 0.38131 1.00199 0.32216 0.0
C1138 C 0.36451 0.99874 0.28276 0.0
C1139 C 0.37776 0.96643 0.27717 0.0
C1140 C 0.39249 0.95169 0.29441 0.0
C1141 C 0.39397 0.96943 0.31664 0.0
C1142 C 0.34839 0.01503 0.26502 0.0
C1143 C 0.40705 0.91748 0.28923 0.0
C1144 C 0.36343 0.89542 0.2285 0.0
C1145 C 0.37857 0.9054 0.21062 0.0
C1146 C 0.36211 0.91631 0.24972 0.0
C1147 C 0.37648 0.94778 0.25337 0.0
C1148 C 0.3911 0.95906 0.23496 0.0
C1149 C 0.39188 0.93789 0.21377 0.0
C1150 C 0.34608 0.90354 0.26869 0.0
C1151 C 0.40682 0.99224 0.23813 0.0
H1152 H 0.3567 0.04142 0.30917 0.0
H1153 H 0.40554 0.95817 0.32954 0.0
H1154 H 0.35764 0.0249 0.2492 0.0
H1155 H 0.33659 0.99266 0.25905 0.0
H1156 H 0.33867 0.03934 0.27235 0.0
H1157 H 0.41769 0.90959 0.3045 0.0
H1158 H 0.39654 0.89263 0.28448 0.0
H1159 H 0.41802 0.92344 0.27388 0.0
H1160 H 0.35295 0.87053 0.22621 0.0
H1161 H 0.40369 0.94578 0.20013 0.0
H1162 H 0.33626 0.9281 0.27546 0.0
H1163 H 0.35557 0.89172 0.28378 0.0
H1164 H 0.33436 0.88136 0.26219 0.0
H1165 H 0.39758 0.01777 0.24436 0.0
H1166 H 0.41574 0.99943 0.22152 0.0
H1167 H 0.41938 0.98521 0.25182 0.0
C1168 C 0.68647 0.02743 0.21721 0.0
C1169 C 0.67159 0.00824 0.20218 0.0
C1170 C 0.68746 0.01914 0.24149 0.0
C1171 C 0.67295 0.99144 0.25116 0.0
C1172 C 0.65837 0.97116 0.23594 0.0
C1173 C 0.65801 0.97956 0.21165 0.0
C1174 C 0.70356 0.04093 0.25693 0.0
C1175 C 0.64242 0.94172 0.24548 0.0
C1176 C 0.68333 0.94917 0.31221 0.0
C1177 C 0.66874 0.97063 0.32649 0.0
C1178 C 0.68531 0.95623 0.28783 0.0
C1179 C 0.67214 0.98505 0.27729 0.0
C1180 C 0.65768 0.00723 0.29168 0.0
C1181 C 0.65629 0.99997 0.31607 0.0
C1182 C 0.70123 0.93238 0.27327 0.0
C1183 C 0.64316 0.03797 0.2812 0.0
H1184 H 0.69707 0.04959 0.21007 0.0
H1185 H 0.64629 0.96482 0.20027 0.0
H1186 H 0.69413 0.05944 0.26937 0.0
H1187 H 0.71363 0.02095 0.26768 0.0
H1188 H 0.71505 0.05907 0.24646 0.0
H1189 H 0.63282 0.92732 0.23126 0.0
H1190 H 0.65166 0.91983 0.25561 0.0
H1191 H 0.63047 0.95553 0.25784 0.0
H1192 H 0.69307 0.92651 0.32007 0.0
H1193 H 0.64485 0.01655 0.32685 0.0
H1194 H 0.71275 0.95104 0.26325 0.0
H1195 H 0.69175 0.91531 0.26016 0.0
H1196 H 0.71126 0.91268 0.2843 0.0
H1197 H 0.65363 0.05915 0.27185 0.0
H1198 H 0.63304 0.05307 0.29479 0.0
H1199 H 0.6317 0.02527 0.26796 0.0
C1200 C 0.68306 0.08761 0.80746 0.0
C1201 C 0.66291 0.08644 0.82018 0.0
C1202 C 0.68507 0.07055 0.78501 0.0
C1203 C 0.6665 0.05173 0.77485 0.0
C1204 C 0.64623 0.04981 0.78776 0.0
C1205 C 0.64467 0.06714 0.81021 0.0
C1206 C 0.70701 0.07325 0.77196 0.0
C1207 C 0.62603 0.02999 0.77765 0.0
C1208 C 0.66404 0.04084 0.70774 0.0
C1209 C 0.67054 1.00273 0.7044 0.0
C1210 C 0.66278 0.05712 0.73049 0.0
C1211 C 0.66814 0.03487 0.75053 0.0
C1212 C 0.67503 0.99657 0.74727 0.0
C1213 C 0.67615 0.981 0.72431 0.0
C1214 C 0.65544 0.09809 0.7331 0.0
C1215 C 0.68095 0.97184 0.76808 0.0
H1216 H 0.69729 0.10237 0.81491 0.0
H1217 H 0.62902 0.06604 0.8198 0.0
H1218 H 0.71307 0.04436 0.76717 0.0
H1219 H 0.70465 0.08914 0.75525 0.0
H1220 H 0.72007 0.08783 0.78255 0.0
H1221 H 0.61171 0.02994 0.79015 0.0
H1222 H 0.62077 0.0443 0.76114 0.0
H1223 H 0.63023 1.00009 0.77301 0.0
H1224 H 0.65961 0.05794 0.69257 0.0
H1225 H 0.68114 0.95153 0.72203 0.0
H1226 H 0.66844 0.11473 0.74248 0.0
H1227 H 0.64001 0.09963 0.74393 0.0
H1228 H 0.65215 0.11174 0.71579 0.0
H1229 H 0.69457 0.98523 0.77843 0.0
H1230 H 0.68635 0.94282 0.7626 0.0
H1231 H 0.66633 0.96921 0.78001 0.0
C1232 C 0.3551 0.9277 0.7953 0.0
C1233 C 0.37213 0.92675 0.81232 0.0
C1234 C 0.35833 0.94525 0.77331 0.0
C1235 C 0.37928 0.96159 0.76785 0.0
C1236 C 0.39714 0.95771 0.78407 0.0
C1237 C 0.39331 0.94067 0.80619 0.0
C1238 C 0.3387 0.94911 0.75679 0.0
C1239 C 0.41992 0.97383 0.77874 0.0
C1240 C 0.38881 0.99729 0.70484 0.0
C1241 C 0.38512 0.03653 0.70762 0.0
C1242 C 0.38735 0.97244 0.72431 0.0
C1243 C 0.38152 0.98711 0.74689 0.0
C1244 C 0.37733 0.02663 0.74956 0.0
C1245 C 0.37945 0.0508 0.73002 0.0
C1246 C 0.39245 0.93069 0.72083 0.0
C1247 C 0.37056 0.04351 0.77311 0.0
H1248 H 0.33866 0.91697 0.7997 0.0
H1249 H 0.40665 0.93991 0.81908 0.0
H1250 H 0.33313 0.97927 0.75652 0.0
H1251 H 0.34353 0.94122 0.73849 0.0
H1252 H 0.32438 0.93113 0.76226 0.0
H1253 H 0.43279 0.96305 0.79114 0.0
H1254 H 0.42504 0.96665 0.76041 0.0
H1255 H 0.41935 1.00533 0.78023 0.0
H1256 H 0.39347 0.98619 0.68763 0.0
H1257 H 0.37649 0.08108 0.73226 0.0
H1258 H 0.37789 0.91323 0.72616 0.0
H1259 H 0.40661 0.92233 0.73231 0.0
H1260 H 0.39677 0.92374 0.70221 0.0
H1261 H 0.35531 0.02917 0.77975 0.0
H1262 H 0.36722 0.07459 0.77206 0.0
H1263 H 0.38394 0.03875 0.78629 0.0
C1264 C 0.91994 0.46333 0.21305 0.0
C1265 C 0.90754 0.43232 0.20451 0.0
C1266 C 0.91641 0.47791 0.23596 0.0
C1267 C 0.89986 0.46149 0.25065 0.0
C1268 C 0.88685 0.43092 0.24188 0.0
C1269 C 0.89094 0.41655 0.21903 0.0
C1270 C 0.93081 0.5103 0.24468 0.0
C1271 C 0.86882 0.41296 0.25677 0.0
C1272 C 0.9066 0.47384 0.31723 0.0
C1273 C 0.89276 0.50526 0.32196 0.0
C1274 C 0.90882 0.45903 0.2942 0.0
C1275 C 0.89666 0.47561 0.27542 0.0
C1276 C 0.88199 0.50638 0.28025 0.0
C1277 C 0.88034 0.52099 0.30338 0.0
C1278 C 0.9248 0.42644 0.28985 0.0
C1279 C 0.86843 0.5245 0.26085 0.0
H1280 H 0.93286 0.47559 0.20205 0.0
H1281 H 0.88119 0.39271 0.21259 0.0
H1282 H 0.92019 0.5346 0.25033 0.0
H1283 H 0.94048 0.50103 0.26033 0.0
H1284 H 0.94267 0.52038 0.23097 0.0
H1285 H 0.85937 0.3908 0.24694 0.0
H1286 H 0.87634 0.39972 0.27263 0.0
H1287 H 0.85694 0.43508 0.26306 0.0
H1288 H 0.91642 0.46165 0.33137 0.0
H1289 H 0.86957 0.54522 0.30684 0.0
H1290 H 0.93826 0.4357 0.27767 0.0
H1291 H 0.916 0.40238 0.28119 0.0
H1292 H 0.93255 0.416 0.30641 0.0
H1293 H 0.87974 0.53804 0.24784 0.0
H1294 H 0.85672 0.54647 0.26773 0.0
H1295 H 0.85871 0.50246 0.25126 0.0
C1296 C 0.1625 0.5498 0.3331 0.0
C1297 C 0.17398 0.5157 0.33772 0.0
C1298 C 0.162 0.56551 0.31024 0.0
C1299 C 0.17332 0.54687 0.29145 0.0
C1300 C 0.18544 0.51304 0.29615 0.0
C1301 C 0.18558 0.49789 0.31912 0.0
C1302 C 0.14886 0.60156 0.30605 0.0
C1303 C 0.19791 0.49232 0.27676 0.0
C1304 C 0.15677 0.5601 0.22688 0.0
C1305 C 0.17391 0.5837 0.21845 0.0
C1306 C 0.1558 0.54925 0.2508 0.0
C1307 C 0.17237 0.56219 0.26678 0.0
C1308 C 0.18898 0.58764 0.25865 0.0
C1309 C 0.18953 0.5981 0.23469 0.0
C1310 C 0.13766 0.52236 0.2587 0.0
C1311 C 0.20692 0.60231 0.27501 0.0
H1312 H 0.15333 0.56374 0.34723 0.0
H1313 H 0.1945 0.47156 0.3224 0.0
H1314 H 0.15965 0.62339 0.29773 0.0
H1315 H 0.13498 0.59567 0.29364 0.0
H1316 H 0.14178 0.61354 0.32265 0.0
H1317 H 0.20704 0.46698 0.28339 0.0
H1318 H 0.18605 0.48289 0.2629 0.0
H1319 H 0.21006 0.51178 0.26827 0.0
H1320 H 0.14461 0.54872 0.21459 0.0
H1321 H 0.20284 0.61639 0.22849 0.0
H1322 H 0.12926 0.53361 0.27477 0.0
H1323 H 0.14513 0.49446 0.26337 0.0
H1324 H 0.12491 0.51762 0.24478 0.0
H1325 H 0.19938 0.61438 0.29132 0.0
H1326 H 0.21741 0.62451 0.26658 0.0
H1327 H 0.21788 0.57838 0.28039 0.0
C1328 C 0.17891 0.59711 0.81192 0.0
C1329 C 0.15874 0.59591 0.82462 0.0
C1330 C 0.18114 0.5794 0.78966 0.0
C1331 C 0.16277 0.55981 0.77964 0.0
C1332 C 0.14253 0.55762 0.79261 0.0
C1333 C 0.14075 0.57564 0.81488 0.0
C1334 C 0.20305 0.58249 0.7766 0.0
C1335 C 0.12254 0.53696 0.78269 0.0
C1336 C 0.16088 0.54897 0.7124 0.0
C1337 C 0.16809 0.51124 0.70897 0.0
C1338 C 0.15906 0.56499 0.7352 0.0
C1339 C 0.16456 0.54288 0.75527 0.0
C1340 C 0.17202 0.50488 0.75194 0.0
C1341 C 0.17371 0.48957 0.72892 0.0
C1342 C 0.15113 0.60563 0.73781 0.0
C1343 C 0.17809 0.48026 0.77276 0.0
H1344 H 0.19297 0.61258 0.81917 0.0
H1345 H 0.12508 0.57451 0.82443 0.0
H1346 H 0.2093 0.55372 0.77178 0.0
H1347 H 0.20056 0.59837 0.75991 0.0
H1348 H 0.21603 0.5973 0.78718 0.0
H1349 H 0.10836 0.53625 0.79535 0.0
H1350 H 0.11691 0.55116 0.76627 0.0
H1351 H 0.12713 0.50728 0.77792 0.0
H1352 H 0.15641 0.56604 0.69722 0.0
H1353 H 0.17921 0.46037 0.7266 0.0
H1354 H 0.16396 0.62284 0.74707 0.0
H1355 H 0.13577 0.60658 0.74877 0.0
H1356 H 0.14752 0.61909 0.72051 0.0
H1357 H 0.19165 0.49389 0.78307 0.0
H1358 H 0.18364 0.45133 0.76727 0.0
H1359 H 0.16351 0.47743 0.78472 0.0
C1360 C 0.89111 0.54916 0.72587 0.0
C1361 C 0.88989 0.53167 0.70359 0.0
C1362 C 0.88862 0.52816 0.7467 0.0
C1363 C 0.88527 0.48826 0.74542 0.0
C1364 C 0.88474 0.47009 0.72299 0.0
C1365 C 0.88674 0.49211 0.70228 0.0
C1366 C 0.88885 0.54904 0.77011 0.0
C1367 C 0.88181 0.42754 0.72088 0.0
C1368 C 0.89281 0.44548 0.80649 0.0
C1369 C 0.87091 0.44787 0.81509 0.0
C1370 C 0.89766 0.4548 0.78279 0.0
C1371 C 0.88022 0.46701 0.76763 0.0
C1372 C 0.85789 0.46551 0.77573 0.0
C1373 C 0.85355 0.45585 0.79928 0.0
C1374 C 0.92164 0.45495 0.77469 0.0
C1375 C 0.83869 0.47833 0.76043 0.0
H1376 H 0.8935 0.57971 0.72707 0.0
H1377 H 0.88609 0.47833 0.68512 0.0
H1378 H 0.87256 0.54539 0.77918 0.0
H1379 H 0.9019 0.53697 0.78177 0.0
H1380 H 0.89205 0.58002 0.76808 0.0
H1381 H 0.88452 0.41721 0.70252 0.0
H1382 H 0.89361 0.41265 0.73278 0.0
H1383 H 0.8647 0.41957 0.72644 0.0
H1384 H 0.90631 0.43946 0.81864 0.0
H1385 H 0.83655 0.45738 0.80584 0.0
H1386 H 0.92815 0.4845 0.77535 0.0
H1387 H 0.92305 0.44473 0.75616 0.0
H1388 H 0.9323 0.43691 0.78613 0.0
H1389 H 0.83924 0.50977 0.75857 0.0
H1390 H 0.82227 0.47044 0.7681 0.0
H1391 H 0.83998 0.4658 0.74247 0.0
loop_
_geom_bond_atom_site_label_1
_geom_bond_atom_site_label_2
_geom_bond_distance
_geom_bond_site_symmetry_2
_ccdc_geom_bond_type
Cu0 N1 1.999 . S
Cu0 O6 1.974 . S
Cu0 N11 1.985 . S
Cu0 O20 1.959 . S
N1 Cu0 1.999 . S
N1 C3 1.263 . S
N1 C5 1.389 . S
N2 C3 1.358 . S
N2 C4 1.400 . S
C3 N1 1.263 . S
C3 N2 1.358 . S
C3 H9 0.930 . S
C4 N2 1.400 . S
C4 C5 1.351 . S
C4 H21 0.930 . S
C5 N1 1.389 . S
C5 C4 1.351 . S
C5 H10 0.930 . S
O6 Cu0 1.974 . S
O6 C16 1.282 . S
C7 O8 1.261 . S
C7 O20 1.251 . S
O8 C7 1.261 . S
H9 C3 0.930 . S
H10 C5 0.930 . S
N11 Cu0 1.985 . S
N11 C13 1.335 . S
N11 C14 1.390 . S
N12 C13 1.345 . S
N12 C15 1.336 . S
C13 N11 1.335 . S
C13 N12 1.345 . S
C13 H18 0.930 . S
C14 N11 1.390 . S
C14 C15 1.346 . S
C14 H19 0.930 . S
C15 N12 1.336 . S
C15 C14 1.346 . S
C15 H22 0.929 . S
C16 O6 1.282 . S
C16 O17 1.216 . S
O17 C16 1.216 . S
H18 C13 0.930 . S
H19 C14 0.930 . S
O20 Cu0 1.959 . S
O20 C7 1.251 . S
H21 C4 0.930 . S
H22 C15 0.929 . S
Cu23 N24 1.999 . S
Cu23 O29 1.974 . S
Cu23 N34 1.985 . S
Cu23 O43 1.959 . S
N24 Cu23 1.999 . S
N24 C26 1.263 . S
N24 C28 1.389 . S
N25 C26 1.358 . S
N25 C27 1.400 . S
C26 N24 1.263 . S
C26 N25 1.358 . S
C26 H32 0.930 . S
C27 N25 1.400 . S
C27 C28 1.351 . S
C27 H44 0.930 . S
C28 N24 1.389 . S
C28 C27 1.351 . S
C28 H33 0.930 . S
O29 Cu23 1.974 . S
O29 C39 1.282 . S
C30 O31 1.261 . S
C30 O43 1.251 . S
O31 C30 1.261 . S
H32 C26 0.930 . S
H33 C28 0.930 . S
N34 Cu23 1.985 . S
N34 C36 1.335 . S
N34 C37 1.390 . S
N35 C36 1.345 . S
N35 C38 1.336 . S
C36 N34 1.335 . S
C36 N35 1.345 . S
C36 H41 0.930 . S
C37 N34 1.390 . S
C37 C38 1.346 . S
C37 H42 0.930 . S
C38 N35 1.336 . S
C38 C37 1.346 . S
C38 H45 0.929 . S
C39 O29 1.282 . S
C39 O40 1.216 . S
O40 C39 1.216 . S
H41 C36 0.930 . S
H42 C37 0.930 . S
O43 Cu23 1.959 . S
O43 C30 1.251 . S
H44 C27 0.930 . S
H45 C38 0.929 . S
Cu46 N47 1.999 . S
Cu46 O52 1.974 . S
Cu46 N57 1.985 . S
Cu46 O66 1.959 . S
N47 Cu46 1.999 . S
N47 C49 1.263 . S
N47 C51 1.389 . S
N48 C49 1.358 . S
N48 C50 1.400 . S
C49 N47 1.263 . S
C49 N48 1.358 . S
C49 H55 0.930 . S
C50 N48 1.400 . S
C50 C51 1.351 . S
C50 H67 0.930 . S
C51 N47 1.389 . S
C51 C50 1.351 . S
C51 H56 0.930 . S
O52 Cu46 1.974 . S
O52 C62 1.282 . S
C53 O54 1.261 . S
C53 O66 1.251 . S
O54 C53 1.261 . S
H55 C49 0.930 . S
H56 C51 0.930 . S
N57 Cu46 1.985 . S
N57 C59 1.335 . S
N57 C60 1.390 . S
N58 C59 1.345 . S
N58 C61 1.336 . S
C59 N57 1.335 . S
C59 N58 1.345 . S
C59 H64 0.930 . S
C60 N57 1.390 . S
C60 C61 1.346 . S
C60 H65 0.930 . S
C61 N58 1.336 . S
C61 C60 1.346 . S
C61 H68 0.929 . S
C62 O52 1.282 . S
C62 O63 1.216 . S
O63 C62 1.216 . S
H64 C59 0.930 . S
H65 C60 0.930 . S
O66 Cu46 1.959 . S
O66 C53 1.251 . S
H67 C50 0.930 . S
H68 C61 0.929 . S
Cu69 N70 1.999 . S
Cu69 O75 1.974 . S
Cu69 N80 1.985 . S
Cu69 O89 1.959 . S
N70 Cu69 1.999 . S
N70 C72 1.263 . S
N70 C74 1.389 . S
N71 C72 1.358 . S
N71 C73 1.400 . S
C72 N70 1.263 . S
C72 N71 1.358 . S
C72 H78 0.930 . S
C73 N71 1.400 . S
C73 C74 1.351 . S
C73 H90 0.930 . S
C74 N70 1.389 . S
C74 C73 1.351 . S
C74 H79 0.930 . S
O75 Cu69 1.974 . S
O75 C85 1.282 . S
C76 O77 1.261 . S
C76 O89 1.251 . S
O77 C76 1.261 . S
H78 C72 0.930 . S
H79 C74 0.930 . S
N80 Cu69 1.985 . S
N80 C82 1.335 . S
N80 C83 1.390 . S
N81 C82 1.345 . S
N81 C84 1.336 . S
C82 N80 1.335 . S
C82 N81 1.345 . S
C82 H87 0.930 . S
C83 N80 1.390 . S
C83 C84 1.346 . S
C83 H88 0.930 . S
C84 N81 1.336 . S
C84 C83 1.346 . S
C84 H91 0.929 . S
C85 O75 1.282 . S
C85 O86 1.216 . S
O86 C85 1.216 . S
H87 C82 0.930 . S
H88 C83 0.930 . S
O89 Cu69 1.959 . S
O89 C76 1.251 . S
H90 C73 0.930 . S
H91 C84 0.929 . S
Cu92 N93 1.999 . S
Cu92 O98 1.974 . S
Cu92 N103 1.985 . S
Cu92 O112 1.959 . S
N93 Cu92 1.999 . S
N93 C95 1.263 . S
N93 C97 1.389 . S
N94 C95 1.358 . S
N94 C96 1.400 . S
C95 N93 1.263 . S
C95 N94 1.358 . S
C95 H101 0.930 . S
C96 N94 1.400 . S
C96 C97 1.351 . S
C96 H113 0.930 . S
C97 N93 1.389 . S
C97 C96 1.351 . S
C97 H102 0.930 . S
O98 Cu92 1.974 . S
O98 C108 1.282 . S
C99 O100 1.261 . S
C99 O112 1.251 . S
O100 C99 1.261 . S
H101 C95 0.930 . S
H102 C97 0.930 . S
N103 Cu92 1.985 . S
N103 C105 1.335 . S
N103 C106 1.390 . S
N104 C105 1.345 . S
N104 C107 1.336 . S
C105 N103 1.335 . S
C105 N104 1.345 . S
C105 H110 0.930 . S
C106 N103 1.390 . S
C106 C107 1.346 . S
C106 H111 0.930 . S
C107 N104 1.336 . S
C107 C106 1.346 . S
C107 H114 0.929 . S
C108 O98 1.282 . S
C108 O109 1.216 . S
O109 C108 1.216 . S
H110 C105 0.930 . S
H111 C106 0.930 . S
O112 Cu92 1.959 . S
O112 C99 1.251 . S
H113 C96 0.930 . S
H114 C107 0.929 . S
Cu115 N116 1.999 . S
Cu115 O121 1.974 . S
Cu115 N126 1.985 . S
Cu115 O135 1.959 . S
N116 Cu115 1.999 . S
N116 C118 1.263 . S
N116 C120 1.389 . S
N117 C118 1.358 . S
N117 C119 1.400 . S
C118 N116 1.263 . S
C118 N117 1.358 . S
C118 H124 0.930 . S
C119 N117 1.400 . S
C119 C120 1.351 . S
C119 H136 0.930 . S
C120 N116 1.389 . S
C120 C119 1.351 . S
C120 H125 0.930 . S
O121 Cu115 1.974 . S
O121 C131 1.282 . S
C122 O123 1.261 . S
C122 O135 1.251 . S
O123 C122 1.261 . S
H124 C118 0.930 . S
H125 C120 0.930 . S
N126 Cu115 1.985 . S
N126 C128 1.335 . S
N126 C129 1.390 . S
N127 C128 1.345 . S
N127 C130 1.336 . S
C128 N126 1.335 . S
C128 N127 1.345 . S
C128 H133 0.930 . S
C129 N126 1.390 . S
C129 C130 1.346 . S
C129 H134 0.930 . S
C130 N127 1.336 . S
C130 C129 1.346 . S
C130 H137 0.929 . S
C131 O121 1.282 . S
C131 O132 1.216 . S
O132 C131 1.216 . S
H133 C128 0.930 . S
H134 C129 0.930 . S
O135 Cu115 1.959 . S
O135 C122 1.251 . S
H136 C119 0.930 . S
H137 C130 0.929 . S
Cu138 N139 1.999 . S
Cu138 O144 1.974 . S
Cu138 N149 1.985 . S
Cu138 O158 1.959 . S
N139 Cu138 1.999 . S
N139 C141 1.263 . S
N139 C143 1.389 . S
N140 C141 1.358 . S
N140 C142 1.400 . S
C141 N139 1.263 . S
C141 N140 1.358 . S
C141 H147 0.930 . S
C142 N140 1.400 . S
C142 C143 1.351 . S
C142 H159 0.930 . S
C143 N139 1.389 . S
C143 C142 1.351 . S
C143 H148 0.930 . S
O144 Cu138 1.974 . S
O144 C154 1.282 . S
C145 O146 1.261 . S
C145 O158 1.251 . S
O146 C145 1.261 . S
H147 C141 0.930 . S
H148 C143 0.930 . S
N149 Cu138 1.985 . S
N149 C151 1.335 . S
N149 C152 1.390 . S
N150 C151 1.345 . S
N150 C153 1.336 . S
C151 N149 1.335 . S
C151 N150 1.345 . S
C151 H156 0.930 . S
C152 N149 1.390 . S
C152 C153 1.346 . S
C152 H157 0.930 . S
C153 N150 1.336 . S
C153 C152 1.346 . S
C153 H160 0.929 . S
C154 O144 1.282 . S
C154 O155 1.216 . S
O155 C154 1.216 . S
H156 C151 0.930 . S
H157 C152 0.930 . S
O158 Cu138 1.959 . S
O158 C145 1.251 . S
H159 C142 0.930 . S
H160 C153 0.929 . S
Cu161 N162 1.999 . S
Cu161 O167 1.974 . S
Cu161 N172 1.985 . S
Cu161 O181 1.959 . S
N162 Cu161 1.999 . S
N162 C164 1.263 . S
N162 C166 1.389 . S
N163 C164 1.358 . S
N163 C165 1.400 . S
C164 N162 1.263 . S
C164 N163 1.358 . S
C164 H170 0.930 . S
C165 N163 1.400 . S
C165 C166 1.351 . S
C165 H182 0.930 . S
C166 N162 1.389 . S
C166 C165 1.351 . S
C166 H171 0.930 . S
O167 Cu161 1.974 . S
O167 C177 1.282 . S
C168 O169 1.261 . S
C168 O181 1.251 . S
O169 C168 1.261 . S
H170 C164 0.930 . S
H171 C166 0.930 . S
N172 Cu161 1.985 . S
N172 C174 1.335 . S
N172 C175 1.390 . S
N173 C174 1.345 . S
N173 C176 1.336 . S
C174 N172 1.335 . S
C174 N173 1.345 . S
C174 H179 0.930 . S
C175 N172 1.390 . S
C175 C176 1.346 . S
C175 H180 0.930 . S
C176 N173 1.336 . S
C176 C175 1.346 . S
C176 H183 0.929 . S
C177 O167 1.282 . S
C177 O178 1.216 . S
O178 C177 1.216 . S
H179 C174 0.930 . S
H180 C175 0.930 . S
O181 Cu161 1.959 . S
O181 C168 1.251 . S
H182 C165 0.930 . S
H183 C176 0.929 . S
Cu184 N185 1.999 . S
Cu184 O190 1.974 . S
Cu184 N195 1.985 . S
Cu184 O204 1.959 . S
N185 Cu184 1.999 . S
N185 C187 1.263 . S
N185 C189 1.389 . S
N186 C187 1.358 . S
N186 C188 1.400 . S
C187 N185 1.263 . S
C187 N186 1.358 . S
C187 H193 0.930 . S
C188 N186 1.400 . S
C188 C189 1.351 . S
C188 H205 0.930 . S
C189 N185 1.389 . S
C189 C188 1.351 . S
C189 H194 0.930 . S
O190 Cu184 1.974 . S
O190 C200 1.282 . S
C191 O192 1.261 . S
C191 O204 1.251 . S
O192 C191 1.261 . S
H193 C187 0.930 . S
H194 C189 0.930 . S
N195 Cu184 1.985 . S
N195 C197 1.335 . S
N195 C198 1.390 . S
N196 C197 1.345 . S
N196 C199 1.336 . S
C197 N195 1.335 . S
C197 N196 1.345 . S
C197 H202 0.930 . S
C198 N195 1.390 . S
C198 C199 1.346 . S
C198 H203 0.930 . S
C199 N196 1.336 . S
C199 C198 1.346 . S
C199 H206 0.929 . S
C200 O190 1.282 . S
C200 O201 1.216 . S
O201 C200 1.216 . S
H202 C197 0.930 . S
H203 C198 0.930 . S
O204 Cu184 1.959 . S
O204 C191 1.251 . S
H205 C188 0.930 . S
H206 C199 0.929 . S
Cu207 N208 1.999 . S
Cu207 O213 1.974 . S
Cu207 N218 1.985 . S
Cu207 O227 1.959 . S
N208 Cu207 1.999 . S
N208 C210 1.263 . S
N208 C212 1.389 . S
N209 C210 1.358 . S
N209 C211 1.400 . S
C210 N208 1.263 . S
C210 N209 1.358 . S
C210 H216 0.930 . S
C211 N209 1.400 . S
C211 C212 1.351 . S
C211 H228 0.930 . S
C212 N208 1.389 . S
C212 C211 1.351 . S
C212 H217 0.930 . S
O213 Cu207 1.974 . S
O213 C223 1.282 . S
C214 O215 1.261 . S
C214 O227 1.251 . S
O215 C214 1.261 . S
H216 C210 0.930 . S
H217 C212 0.930 . S
N218 Cu207 1.985 . S
N218 C220 1.335 . S
N218 C221 1.390 . S
N219 C220 1.345 . S
N219 C222 1.336 . S
C220 N218 1.335 . S
C220 N219 1.345 . S
C220 H225 0.930 . S
C221 N218 1.390 . S
C221 C222 1.346 . S
C221 H226 0.930 . S
C222 N219 1.336 . S
C222 C221 1.346 . S
C222 H229 0.929 . S
C223 O213 1.282 . S
C223 O224 1.216 . S
O224 C223 1.216 . S
H225 C220 0.930 . S
H226 C221 0.930 . S
O227 Cu207 1.959 . S
O227 C214 1.251 . S
H228 C211 0.930 . S
H229 C222 0.929 . S
Cu230 N231 1.999 . S
Cu230 O236 1.974 . S
Cu230 N241 1.985 . S
Cu230 O250 1.959 . S
N231 Cu230 1.999 . S
N231 C233 1.263 . S
N231 C235 1.389 . S
N232 C233 1.358 . S
N232 C234 1.400 . S
C233 N231 1.263 . S
C233 N232 1.358 . S
C233 H239 0.930 . S
C234 N232 1.400 . S
C234 C235 1.351 . S
C234 H251 0.930 . S
C235 N231 1.389 . S
C235 C234 1.351 . S
C235 H240 0.930 . S
O236 Cu230 1.974 . S
O236 C246 1.282 . S
C237 O238 1.261 . S
C237 O250 1.251 . S
O238 C237 1.261 . S
H239 C233 0.930 . S
H240 C235 0.930 . S
N241 Cu230 1.985 . S
N241 C243 1.335 . S
N241 C244 1.390 . S
N242 C243 1.345 . S
N242 C245 1.336 . S
C243 N241 1.335 . S
C243 N242 1.345 . S
C243 H248 0.930 . S
C244 N241 1.390 . S
C244 C245 1.346 . S
C244 H249 0.930 . S
C245 N242 1.336 . S
C245 C244 1.346 . S
C245 H252 0.929 . S
C246 O236 1.282 . S
C246 O247 1.216 . S
O247 C246 1.216 . S
H248 C243 0.930 . S
H249 C244 0.930 . S
O250 Cu230 1.959 . S
O250 C237 1.251 . S
H251 C234 0.930 . S
H252 C245 0.929 . S
Cu253 N254 1.999 . S
Cu253 O259 1.974 . S
Cu253 N264 1.985 . S
Cu253 O273 1.959 . S
N254 Cu253 1.999 . S
N254 C256 1.263 . S
N254 C258 1.389 . S
N255 C256 1.358 . S
N255 C257 1.400 . S
C256 N254 1.263 . S
C256 N255 1.358 . S
C256 H262 0.930 . S
C257 N255 1.400 . S
C257 C258 1.351 . S
C257 H274 0.930 . S
C258 N254 1.389 . S
C258 C257 1.351 . S
C258 H263 0.930 . S
O259 Cu253 1.974 . S
O259 C269 1.282 . S
C260 O261 1.261 . S
C260 O273 1.251 . S
O261 C260 1.261 . S
H262 C256 0.930 . S
H263 C258 0.930 . S
N264 Cu253 1.985 . S
N264 C266 1.335 . S
N264 C267 1.390 . S
N265 C266 1.345 . S
N265 C268 1.336 . S
C266 N264 1.335 . S
C266 N265 1.345 . S
C266 H271 0.930 . S
C267 N264 1.390 . S
C267 C268 1.346 . S
C267 H272 0.930 . S
C268 N265 1.336 . S
C268 C267 1.346 . S
C268 H275 0.929 . S
C269 O259 1.282 . S
C269 O270 1.216 . S
O270 C269 1.216 . S
H271 C266 0.930 . S
H272 C267 0.930 . S
O273 Cu253 1.959 . S
O273 C260 1.251 . S
H274 C257 0.930 . S
H275 C268 0.929 . S
Cu276 N277 1.999 . S
Cu276 O282 1.974 . S
Cu276 N287 1.985 . S
Cu276 O296 1.959 . S
N277 Cu276 1.999 . S
N277 C279 1.263 . S
N277 C281 1.389 . S
N278 C279 1.358 . S
N278 C280 1.400 . S
C279 N277 1.263 . S
C279 N278 1.358 . S
C279 H285 0.930 . S
C280 N278 1.400 . S
C280 C281 1.351 . S
C280 H297 0.930 . S
C281 N277 1.389 . S
C281 C280 1.351 . S
C281 H286 0.930 . S
O282 Cu276 1.974 . S
O282 C292 1.282 . S
C283 O284 1.261 . S
C283 O296 1.251 . S
O284 C283 1.261 . S
H285 C279 0.930 . S
H286 C281 0.930 . S
N287 Cu276 1.985 . S
N287 C289 1.335 . S
N287 C290 1.390 . S
N288 C289 1.345 . S
N288 C291 1.336 . S
C289 N287 1.335 . S
C289 N288 1.345 . S
C289 H294 0.930 . S
C290 N287 1.390 . S
C290 C291 1.346 . S
C290 H295 0.930 . S
C291 N288 1.336 . S
C291 C290 1.346 . S
C291 H298 0.929 . S
C292 O282 1.282 . S
C292 O293 1.216 . S
O293 C292 1.216 . S
H294 C289 0.930 . S
H295 C290 0.930 . S
O296 Cu276 1.959 . S
O296 C283 1.251 . S
H297 C280 0.930 . S
H298 C291 0.929 . S
Cu299 N300 1.999 . S
Cu299 O305 1.974 . S
Cu299 N310 1.985 . S
Cu299 O319 1.959 . S
N300 Cu299 1.999 . S
N300 C302 1.263 . S
N300 C304 1.389 . S
N301 C302 1.358 . S
N301 C303 1.400 . S
C302 N300 1.263 . S
C302 N301 1.358 . S
C302 H308 0.930 . S
C303 N301 1.400 . S
C303 C304 1.351 . S
C303 H320 0.930 . S
C304 N300 1.389 . S
C304 C303 1.351 . S
C304 H309 0.930 . S
O305 Cu299 1.974 . S
O305 C315 1.282 . S
C306 O307 1.261 . S
C306 O319 1.251 . S
O307 C306 1.261 . S
H308 C302 0.930 . S
H309 C304 0.930 . S
N310 Cu299 1.985 . S
N310 C312 1.335 . S
N310 C313 1.390 . S
N311 C312 1.345 . S
N311 C314 1.336 . S
C312 N310 1.335 . S
C312 N311 1.345 . S
C312 H317 0.930 . S
C313 N310 1.390 . S
C313 C314 1.346 . S
C313 H318 0.930 . S
C314 N311 1.336 . S
C314 C313 1.346 . S
C314 H321 0.929 . S
C315 O305 1.282 . S
C315 O316 1.216 . S
O316 C315 1.216 . S
H317 C312 0.930 . S
H318 C313 0.930 . S
O319 Cu299 1.959 . S
O319 C306 1.251 . S
H320 C303 0.930 . S
H321 C314 0.929 . S
Cu322 N323 1.999 . S
Cu322 O328 1.974 . S
Cu322 N333 1.985 . S
Cu322 O342 1.959 . S
N323 Cu322 1.999 . S
N323 C325 1.263 . S
N323 C327 1.389 . S
N324 C325 1.358 . S
N324 C326 1.400 . S
C325 N323 1.263 . S
C325 N324 1.358 . S
C325 H331 0.930 . S
C326 N324 1.400 . S
C326 C327 1.351 . S
C326 H343 0.930 . S
C327 N323 1.389 . S
C327 C326 1.351 . S
C327 H332 0.930 . S
O328 Cu322 1.974 . S
O328 C338 1.282 . S
C329 O330 1.261 . S
C329 O342 1.251 . S
O330 C329 1.261 . S
H331 C325 0.930 . S
H332 C327 0.930 . S
N333 Cu322 1.985 . S
N333 C335 1.335 . S
N333 C336 1.390 . S
N334 C335 1.345 . S
N334 C337 1.336 . S
C335 N333 1.335 . S
C335 N334 1.345 . S
C335 H340 0.930 . S
C336 N333 1.390 . S
C336 C337 1.346 . S
C336 H341 0.930 . S
C337 N334 1.336 . S
C337 C336 1.346 . S
C337 H344 0.929 . S
C338 O328 1.282 . S
C338 O339 1.216 . S
O339 C338 1.216 . S
H340 C335 0.930 . S
H341 C336 0.930 . S
O342 Cu322 1.959 . S
O342 C329 1.251 . S
H343 C326 0.930 . S
H344 C337 0.929 . S
Cu345 N346 1.999 . S
Cu345 O351 1.974 . S
Cu345 N356 1.985 . S
Cu345 O365 1.959 . S
N346 Cu345 1.999 . S
N346 C348 1.263 . S
N346 C350 1.389 . S
N347 C348 1.358 . S
N347 C349 1.400 . S
C348 N346 1.263 . S
C348 N347 1.358 . S
C348 H354 0.930 . S
C349 N347 1.400 . S
C349 C350 1.351 . S
C349 H366 0.930 . S
C350 N346 1.389 . S
C350 C349 1.351 . S
C350 H355 0.930 . S
O351 Cu345 1.974 . S
O351 C361 1.282 . S
C352 O353 1.261 . S
C352 O365 1.251 . S
O353 C352 1.261 . S
H354 C348 0.930 . S
H355 C350 0.930 . S
N356 Cu345 1.985 . S
N356 C358 1.335 . S
N356 C359 1.390 . S
N357 C358 1.345 . S
N357 C360 1.336 . S
C358 N356 1.335 . S
C358 N357 1.345 . S
C358 H363 0.930 . S
C359 N356 1.390 . S
C359 C360 1.346 . S
C359 H364 0.930 . S
C360 N357 1.336 . S
C360 C359 1.346 . S
C360 H367 0.929 . S
C361 O351 1.282 . S
C361 O362 1.216 . S
O362 C361 1.216 . S
H363 C358 0.930 . S
H364 C359 0.930 . S
O365 Cu345 1.959 . S
O365 C352 1.251 . S
H366 C349 0.930 . S
H367 C360 0.929 . S
C368 C369 1.391 . S
C368 C370 1.394 . S
C368 H384 0.931 . S
C369 C368 1.391 . S
C369 C373 1.376 . S
C370 C368 1.394 . S
C370 C371 1.369 . S
C370 C374 1.531 . S
C371 C370 1.369 . S
C371 C372 1.410 . S
C371 C379 1.503 . S
C372 C371 1.410 . S
C372 C373 1.392 . S
C372 C375 1.511 . S
C373 C369 1.376 . S
C373 C372 1.392 . S
C373 H385 0.929 . S
C374 C370 1.531 . S
C374 H386 0.960 . S
C374 H387 0.962 . S
C374 H388 0.960 . S
C375 C372 1.511 . S
C375 H389 0.961 . S
C375 H390 0.961 . S
C375 H391 0.961 . S
C376 C377 1.370 . S
C376 C378 1.363 . S
C376 H392 0.931 . S
C377 C376 1.370 . S
C377 C381 1.408 . S
C378 C376 1.363 . S
C378 C379 1.370 . S
C378 C382 1.524 . S
C379 C371 1.503 . S
C379 C378 1.370 . S
C379 C380 1.403 . S
C380 C379 1.403 . S
C380 C381 1.404 . S
C380 C383 1.539 . S
C381 C377 1.408 . S
C381 C380 1.404 . S
C381 H393 0.930 . S
C382 C378 1.524 . S
C382 H394 0.956 . S
C382 H395 0.961 . S
C382 H396 0.961 . S
C383 C380 1.539 . S
C383 H397 0.958 . S
C383 H398 0.961 . S
C383 H399 0.960 . S
H384 C368 0.931 . S
H385 C373 0.929 . S
H386 C374 0.960 . S
H387 C374 0.962 . S
H388 C374 0.960 . S
H389 C375 0.961 . S
H390 C375 0.961 . S
H391 C375 0.961 . S
H392 C376 0.931 . S
H393 C381 0.930 . S
H394 C382 0.956 . S
H395 C382 0.961 . S
H396 C382 0.961 . S
H397 C383 0.958 . S
H398 C383 0.961 . S
H399 C383 0.960 . S
C400 C401 1.391 . S
C400 C402 1.394 . S
C400 H416 0.931 . S
C401 C400 1.391 . S
C401 C405 1.376 . S
C402 C400 1.394 . S
C402 C403 1.369 . S
C402 C406 1.531 . S
C403 C402 1.369 . S
C403 C404 1.410 . S
C403 C411 1.503 . S
C404 C403 1.410 . S
C404 C405 1.392 . S
C404 C407 1.511 . S
C405 C401 1.376 . S
C405 C404 1.392 . S
C405 H417 0.929 . S
C406 C402 1.531 . S
C406 H418 0.960 . S
C406 H419 0.962 . S
C406 H420 0.960 . S
C407 C404 1.511 . S
C407 H421 0.961 . S
C407 H422 0.961 . S
C407 H423 0.961 . S
C408 C409 1.370 . S
C408 C410 1.363 . S
C408 H424 0.931 . S
C409 C408 1.370 . S
C409 C413 1.408 . S
C410 C408 1.363 . S
C410 C411 1.370 . S
C410 C414 1.524 . S
C411 C403 1.503 . S
C411 C410 1.370 . S
C411 C412 1.403 . S
C412 C411 1.403 . S
C412 C413 1.404 . S
C412 C415 1.539 . S
C413 C409 1.408 . S
C413 C412 1.404 . S
C413 H425 0.930 . S
C414 C410 1.524 . S
C414 H426 0.956 . S
C414 H427 0.961 . S
C414 H428 0.961 . S
C415 C412 1.539 . S
C415 H429 0.958 . S
C415 H430 0.961 . S
C415 H431 0.960 . S
H416 C400 0.931 . S
H417 C405 0.929 . S
H418 C406 0.960 . S
H419 C406 0.962 . S
H420 C406 0.960 . S
H421 C407 0.961 . S
H422 C407 0.961 . S
H423 C407 0.961 . S
H424 C408 0.931 . S
H425 C413 0.930 . S
H426 C414 0.956 . S
H427 C414 0.961 . S
H428 C414 0.961 . S
H429 C415 0.958 . S
H430 C415 0.961 . S
H431 C415 0.960 . S
C432 C433 1.391 . S
C432 C434 1.394 . S
C432 H448 0.931 . S
C433 C432 1.391 . S
C433 C437 1.376 . S
C434 C432 1.394 . S
C434 C435 1.369 . S
C434 C438 1.531 . S
C435 C434 1.369 . S
C435 C436 1.410 . S
C435 C443 1.503 1_554 S
C436 C435 1.410 . S
C436 C437 1.392 . S
C436 C439 1.511 . S
C437 C433 1.376 . S
C437 C436 1.392 . S
C437 H449 0.929 . S
C438 C434 1.531 . S
C438 H450 0.960 1_554 S
C438 H451 0.962 . S
C438 H452 0.960 . S
C439 C436 1.511 . S
C439 H453 0.961 . S
C439 H454 0.961 1_554 S
C439 H455 0.961 . S
C440 C441 1.370 . S
C440 C442 1.363 . S
C440 H456 0.931 . S
C441 C440 1.370 . S
C441 C445 1.408 . S
C442 C440 1.363 . S
C442 C443 1.370 . S
C442 C446 1.524 . S
C443 C435 1.503 1_556 S
C443 C442 1.370 . S
C443 C444 1.403 . S
C444 C443 1.403 . S
C444 C445 1.404 . S
C444 C447 1.539 . S
C445 C441 1.408 . S
C445 C444 1.404 . S
C445 H457 0.930 . S
C446 C442 1.524 . S
C446 H458 0.956 . S
C446 H459 0.961 1_556 S
C446 H460 0.961 . S
C447 C444 1.539 . S
C447 H461 0.958 . S
C447 H462 0.961 . S
C447 H463 0.970 . S
H448 C432 0.931 . S
H449 C437 0.929 . S
H450 C438 0.960 1_556 S
H451 C438 0.962 . S
H452 C438 0.960 . S
H453 C439 0.961 . S
H454 C439 0.961 1_556 S
H455 C439 0.961 . S
H456 C440 0.931 . S
H457 C445 0.930 . S
H458 C446 0.956 . S
H459 C446 0.961 1_554 S
H460 C446 0.961 . S
H461 C447 0.958 . S
H462 C447 0.961 . S
H463 C447 0.970 . S
C464 C465 1.391 . S
C464 C466 1.394 . S
C464 H480 0.931 . S
C465 C464 1.391 . S
C465 C469 1.376 . S
C466 C464 1.394 . S
C466 C467 1.369 . S
C466 C470 1.531 . S
C467 C466 1.369 . S
C467 C468 1.410 . S
C467 C475 1.503 1_556 S
C468 C467 1.410 . S
C468 C469 1.392 . S
C468 C471 1.511 . S
C469 C465 1.376 . S
C469 C468 1.392 . S
C469 H481 0.929 . S
C470 C466 1.531 . S
C470 H482 0.960 1_556 S
C470 H483 0.962 . S
C470 H484 0.960 . S
C471 C468 1.511 . S
C471 H485 0.961 . S
C471 H486 0.961 1_556 S
C471 H487 0.961 . S
C472 C473 1.370 . S
C472 C474 1.363 . S
C472 H488 0.931 . S
C473 C472 1.370 . S
C473 C477 1.408 . S
C474 C472 1.363 . S
C474 C475 1.370 . S
C474 C478 1.524 . S
C475 C467 1.503 1_554 S
C475 C474 1.370 . S
C475 C476 1.403 . S
C476 C475 1.403 . S
C476 C477 1.404 . S
C476 C479 1.539 . S
C477 C473 1.408 . S
C477 C476 1.404 . S
C477 H489 0.930 . S
C478 C474 1.524 . S
C478 H490 0.956 . S
C478 H491 0.961 1_554 S
C478 H492 0.961 . S
C479 C476 1.539 . S
C479 H493 0.958 . S
C479 H494 0.961 . S
C479 H495 0.970 . S
H480 C464 0.931 . S
H481 C469 0.929 . S
H482 C470 0.960 1_554 S
H483 C470 0.962 . S
H484 C470 0.960 . S
H485 C471 0.961 . S
H486 C471 0.961 1_554 S
H487 C471 0.961 . S
H488 C472 0.931 . S
H489 C477 0.930 . S
H490 C478 0.956 . S
H491 C478 0.961 1_556 S
H492 C478 0.961 . S
H493 C479 0.958 . S
H494 C479 0.961 . S
H495 C479 0.970 . S
C496 C497 1.391 . S
C496 C498 1.394 . S
C496 H512 0.931 . S
C497 C496 1.391 . S
C497 C501 1.376 . S
C498 C496 1.394 . S
C498 C499 1.369 . S
C498 C502 1.531 . S
C499 C498 1.369 . S
C499 C500 1.410 . S
C499 C507 1.503 . S
C500 C499 1.410 . S
C500 C501 1.392 . S
C500 C503 1.511 . S
C501 C497 1.376 . S
C501 C500 1.392 . S
C501 H513 0.929 . S
C502 C498 1.531 . S
C502 H514 0.960 . S
C502 H515 0.962 . S
C502 H516 0.960 . S
C503 C500 1.511 . S
C503 H517 0.961 . S
C503 H518 0.961 . S
C503 H519 0.961 . S
C504 C505 1.370 . S
C504 C506 1.363 . S
C504 H520 0.931 . S
C505 C504 1.370 . S
C505 C509 1.408 . S
C506 C504 1.363 . S
C506 C507 1.370 . S
C506 C510 1.524 . S
C507 C499 1.503 . S
C507 C506 1.370 . S
C507 C508 1.403 . S
C508 C507 1.403 . S
C508 C509 1.404 . S
C508 C511 1.539 . S
C509 C505 1.408 . S
C509 C508 1.404 . S
C509 H521 0.930 . S
C510 C506 1.524 . S
C510 H522 0.956 . S
C510 H523 0.961 . S
C510 H524 0.961 . S
C511 C508 1.539 . S
C511 H525 0.958 . S
C511 H526 0.961 . S
C511 H527 0.960 . S
H512 C496 0.931 . S
H513 C501 0.929 . S
H514 C502 0.960 . S
H515 C502 0.962 . S
H516 C502 0.960 . S
H517 C503 0.961 . S
H518 C503 0.961 . S
H519 C503 0.961 . S
H520 C504 0.931 . S
H521 C509 0.930 . S
H522 C510 0.956 . S
H523 C510 0.961 . S
H524 C510 0.961 . S
H525 C511 0.958 . S
H526 C511 0.961 . S
H527 C511 0.960 . S
C528 C529 1.391 . S
C528 C530 1.394 . S
C528 H544 0.931 . S
C529 C528 1.391 . S
C529 C533 1.376 . S
C530 C528 1.394 . S
C530 C531 1.369 . S
C530 C534 1.531 . S
C531 C530 1.369 . S
C531 C532 1.410 . S
C531 C539 1.503 . S
C532 C531 1.410 . S
C532 C533 1.392 . S
C532 C535 1.511 . S
C533 C529 1.376 . S
C533 C532 1.392 . S
C533 H545 0.929 . S
C534 C530 1.531 . S
C534 H546 0.960 . S
C534 H547 0.962 . S
C534 H548 0.960 . S
C535 C532 1.511 . S
C535 H549 0.961 . S
C535 H550 0.961 . S
C535 H551 0.961 . S
C536 C537 1.370 . S
C536 C538 1.363 . S
C536 H552 0.931 . S
C537 C536 1.370 . S
C537 C541 1.408 . S
C538 C536 1.363 . S
C538 C539 1.370 . S
C538 C542 1.524 . S
C539 C531 1.503 . S
C539 C538 1.370 . S
C539 C540 1.403 . S
C540 C539 1.403 . S
C540 C541 1.404 . S
C540 C543 1.539 . S
C541 C537 1.408 . S
C541 C540 1.404 . S
C541 H553 0.930 . S
C542 C538 1.524 . S
C542 H554 0.956 . S
C542 H555 0.961 . S
C542 H556 0.961 . S
C543 C540 1.539 . S
C543 H557 0.958 . S
C543 H558 0.961 . S
C543 H559 0.960 . S
H544 C528 0.931 . S
H545 C533 0.929 . S
H546 C534 0.960 . S
H547 C534 0.962 . S
H548 C534 0.960 . S
H549 C535 0.961 . S
H550 C535 0.961 . S
H551 C535 0.961 . S
H552 C536 0.931 . S
H553 C541 0.930 . S
H554 C542 0.956 . S
H555 C542 0.961 . S
H556 C542 0.961 . S
H557 C543 0.958 . S
H558 C543 0.961 . S
H559 C543 0.960 . S
C560 C561 1.391 . S
C560 C562 1.394 . S
C560 H576 0.931 . S
C561 C560 1.391 . S
C561 C565 1.376 . S
C562 C560 1.394 . S
C562 C563 1.369 . S
C562 C566 1.531 . S
C563 C562 1.369 . S
C563 C564 1.410 . S
C563 C571 1.503 1_556 S
C564 C563 1.410 . S
C564 C565 1.392 . S
C564 C567 1.511 . S
C565 C561 1.376 . S
C565 C564 1.392 . S
C565 H577 0.929 . S
C566 C562 1.531 . S
C566 H578 0.960 1_556 S
C566 H579 0.962 . S
C566 H580 0.960 . S
C567 C564 1.511 . S
C567 H581 0.961 . S
C567 H582 0.961 1_556 S
C567 H583 0.961 . S
C568 C569 1.370 . S
C568 C570 1.363 . S
C568 H584 0.931 . S
C569 C568 1.370 . S
C569 C573 1.408 . S
C570 C568 1.363 . S
C570 C571 1.370 . S
C570 C574 1.524 . S
C571 C563 1.503 1_554 S
C571 C570 1.370 . S
C571 C572 1.403 . S
C572 C571 1.403 . S
C572 C573 1.404 . S
C572 C575 1.539 . S
C573 C569 1.408 . S
C573 C572 1.404 . S
C573 H585 0.930 . S
C574 C570 1.524 . S
C574 H586 0.956 . S
C574 H587 0.961 1_554 S
C574 H588 0.961 . S
C575 C572 1.539 . S
C575 H589 0.958 . S
C575 H590 0.961 . S
C575 H591 0.970 . S
H576 C560 0.931 . S
H577 C565 0.929 . S
H578 C566 0.960 1_554 S
H579 C566 0.962 . S
H580 C566 0.960 . S
H581 C567 0.961 . S
H582 C567 0.961 1_554 S
H583 C567 0.961 . S
H584 C568 0.931 . S
H585 C573 0.930 . S
H586 C574 0.956 . S
H587 C574 0.961 1_556 S
H588 C574 0.961 . S
H589 C575 0.958 . S
H590 C575 0.961 . S
H591 C575 0.970 . S
C592 C593 1.391 . S
C592 C594 1.394 . S
C592 H608 0.931 . S
C593 C592 1.391 . S
C593 C597 1.376 . S
C594 C592 1.394 . S
C594 C595 1.369 . S
C594 C598 1.531 . S
C595 C594 1.369 . S
C595 C596 1.410 . S
C595 C603 1.503 1_554 S
C596 C595 1.410 . S
C596 C597 1.392 . S
C596 C599 1.511 . S
C597 C593 1.376 . S
C597 C596 1.392 . S
C597 H609 0.929 . S
C598 C594 1.531 . S
C598 H610 0.960 1_554 S
C598 H611 0.962 . S
C598 H612 0.960 . S
C599 C596 1.511 . S
C599 H613 0.961 . S
C599 H614 0.961 1_554 S
C599 H615 0.961 . S
C600 C601 1.370 . S
C600 C602 1.363 . S
C600 H616 0.931 . S
C601 C600 1.370 . S
C601 C605 1.408 . S
C602 C600 1.363 . S
C602 C603 1.370 . S
C602 C606 1.524 . S
C603 C595 1.503 1_556 S
C603 C602 1.370 . S
C603 C604 1.403 . S
C604 C603 1.403 . S
C604 C605 1.404 . S
C604 C607 1.539 . S
C605 C601 1.408 . S
C605 C604 1.404 . S
C605 H617 0.930 . S
C606 C602 1.524 . S
C606 H618 0.956 . S
C606 H619 0.961 1_556 S
C606 H620 0.961 . S
C607 C604 1.539 . S
C607 H621 0.958 . S
C607 H622 0.961 . S
C607 H623 0.970 . S
H608 C592 0.931 . S
H609 C597 0.929 . S
H610 C598 0.960 1_556 S
H611 C598 0.962 . S
H612 C598 0.960 . S
H613 C599 0.961 . S
H614 C599 0.961 1_556 S
H615 C599 0.961 . S
H616 C600 0.931 . S
H617 C605 0.930 . S
H618 C606 0.956 . S
H619 C606 0.961 1_554 S
H620 C606 0.961 . S
H621 C607 0.958 . S
H622 C607 0.961 . S
H623 C607 0.970 . S
C624 C625 1.391 . S
C624 C626 1.394 . S
C624 H640 0.931 . S
C625 C624 1.391 . S
C625 C629 1.376 . S
C626 C624 1.394 . S
C626 C627 1.371 . S
C626 C630 1.531 1_565 S
C627 C626 1.371 . S
C627 C628 1.421 . S
C627 C635 1.493 1_565 S
C628 C627 1.421 . S
C628 C629 1.392 . S
C628 C631 1.511 . S
C629 C625 1.376 . S
C629 C628 1.392 . S
C629 H641 0.929 . S
C630 C626 1.531 1_545 S
C630 H642 0.960 . S
C630 H643 0.962 1_545 S
C630 H644 0.960 . S
C631 C628 1.511 . S
C631 H645 0.961 . S
C631 H646 0.961 . S
C631 H647 0.961 1_565 S
C632 C633 1.370 . S
C632 C634 1.363 1_545 S
C632 H648 0.931 1_545 S
C633 C632 1.370 . S
C633 C637 1.408 . S
C634 C632 1.363 1_565 S
C634 C635 1.370 1_565 S
C634 C638 1.524 . S
C635 C627 1.493 1_545 S
C635 C634 1.370 1_545 S
C635 C636 1.403 . S
C636 C635 1.403 . S
C636 C637 1.404 . S
C636 C639 1.539 . S
C637 C633 1.408 . S
C637 C636 1.404 . S
C637 H649 0.930 . S
C638 C634 1.524 . S
C638 H650 0.956 . S
C638 H651 0.961 . S
C638 H652 0.961 . S
C639 C636 1.539 . S
C639 H653 0.958 . S
C639 H654 0.961 . S
C639 H655 0.960 . S
H640 C624 0.931 . S
H641 C629 0.929 . S
H642 C630 0.960 . S
H643 C630 0.962 1_565 S
H644 C630 0.960 . S
H645 C631 0.961 . S
H646 C631 0.961 . S
H647 C631 0.961 1_545 S
H648 C632 0.931 1_565 S
H649 C637 0.930 . S
H650 C638 0.956 . S
H651 C638 0.961 . S
H652 C638 0.961 . S
H653 C639 0.958 . S
H654 C639 0.961 . S
H655 C639 0.960 . S
C656 C657 1.391 . S
C656 C658 1.394 1_565 S
C656 H672 0.931 1_565 S
C657 C656 1.391 . S
C657 C661 1.376 . S
C658 C656 1.394 1_545 S
C658 C659 1.369 1_545 S
C658 C662 1.531 . S
C659 C658 1.369 1_565 S
C659 C660 1.410 . S
C659 C667 1.503 1_565 S
C660 C659 1.410 . S
C660 C661 1.392 . S
C660 C663 1.511 . S
C661 C657 1.376 . S
C661 C660 1.392 . S
C661 H673 0.929 . S
C662 C658 1.531 . S
C662 H674 0.960 . S
C662 H675 0.962 . S
C662 H676 0.960 . S
C663 C660 1.511 . S
C663 H677 0.961 . S
C663 H678 0.961 . S
C663 H679 0.961 . S
C664 C665 1.370 . S
C664 C666 1.363 . S
C664 H680 0.931 . S
C665 C664 1.370 . S
C665 C669 1.408 . S
C666 C664 1.363 . S
C666 C667 1.370 . S
C666 C670 1.524 . S
C667 C659 1.503 1_545 S
C667 C666 1.370 . S
C667 C668 1.403 . S
C668 C667 1.403 . S
C668 C669 1.404 . S
C668 C671 1.539 . S
C669 C665 1.408 . S
C669 C668 1.404 . S
C669 H681 0.930 . S
C670 C666 1.524 . S
C670 H682 0.956 . S
C670 H683 0.961 1_545 S
C670 H684 0.961 . S
C671 C668 1.539 . S
C671 H685 0.958 . S
C671 H686 0.961 . S
C671 H687 0.960 1_545 S
H672 C656 0.931 1_545 S
H673 C661 0.929 . S
H674 C662 0.960 . S
H675 C662 0.962 . S
H676 C662 0.960 . S
H677 C663 0.961 . S
H678 C663 0.961 . S
H679 C663 0.961 . S
H680 C664 0.931 . S
H681 C669 0.930 . S
H682 C670 0.956 . S
H683 C670 0.961 1_565 S
H684 C670 0.961 . S
H685 C671 0.958 . S
H686 C671 0.961 . S
H687 C671 0.960 1_565 S
C688 C689 1.391 . S
C688 C690 1.394 1_565 S
C688 H704 0.931 1_565 S
C689 C688 1.391 . S
C689 C693 1.376 . S
C690 C688 1.394 1_545 S
C690 C691 1.369 1_545 S
C690 C694 1.531 . S
C691 C690 1.369 1_565 S
C691 C692 1.410 . S
C691 C699 1.503 1_565 S
C692 C691 1.410 . S
C692 C693 1.392 . S
C692 C695 1.511 . S
C693 C689 1.376 . S
C693 C692 1.392 . S
C693 H705 0.929 . S
C694 C690 1.531 . S
C694 H706 0.960 . S
C694 H707 0.962 . S
C694 H708 0.960 . S
C695 C692 1.511 . S
C695 H709 0.961 . S
C695 H710 0.961 . S
C695 H711 0.961 . S
C696 C697 1.370 . S
C696 C698 1.363 . S
C696 H712 0.931 . S
C697 C696 1.370 . S
C697 C701 1.408 . S
C698 C696 1.363 . S
C698 C699 1.370 . S
C698 C702 1.524 1_545 S
C699 C691 1.503 1_545 S
C699 C698 1.370 . S
C699 C700 1.403 . S
C700 C699 1.403 . S
C700 C701 1.404 . S
C700 C703 1.539 . S
C701 C697 1.408 . S
C701 C700 1.404 . S
C701 H713 0.930 . S
C702 C698 1.524 1_565 S
C702 H714 0.956 . S
C702 H715 0.961 . S
C702 H716 0.961 . S
C703 C700 1.539 . S
C703 H717 0.958 . S
C703 H718 0.961 . S
C703 H719 0.960 . S
H704 C688 0.931 1_545 S
H705 C693 0.929 . S
H706 C694 0.960 . S
H707 C694 0.962 . S
H708 C694 0.960 . S
H709 C695 0.961 . S
H710 C695 0.961 . S
H711 C695 0.961 . S
H712 C696 0.931 . S
H713 C701 0.930 . S
H714 C702 0.956 . S
H715 C702 0.961 . S
H716 C702 0.961 . S
H717 C703 0.958 . S
H718 C703 0.961 . S
H719 C703 0.960 . S
C720 C721 1.391 . S
C720 C722 1.394 1_545 S
C720 H736 0.931 . S
C721 C720 1.391 . S
C721 C725 1.376 . S
C722 C720 1.394 1_565 S
C722 C723 1.369 1_565 S
C722 C726 1.531 . S
C723 C722 1.369 1_545 S
C723 C724 1.410 . S
C723 C731 1.503 1_545 S
C724 C723 1.410 . S
C724 C725 1.392 . S
C724 C727 1.511 . S
C725 C721 1.376 . S
C725 C724 1.392 . S
C725 H737 0.929 . S
C726 C722 1.531 . S
C726 H738 0.960 . S
C726 H739 0.962 . S
C726 H740 0.960 . S
C727 C724 1.511 . S
C727 H741 0.961 . S
C727 H742 0.961 . S
C727 H743 0.961 . S
C728 C729 1.370 . S
C728 C730 1.363 . S
C728 H744 0.931 . S
C729 C728 1.370 . S
C729 C733 1.408 . S
C730 C728 1.363 . S
C730 C731 1.370 . S
C730 C734 1.524 . S
C731 C723 1.503 1_565 S
C731 C730 1.370 . S
C731 C732 1.403 1_565 S
C732 C731 1.403 1_545 S
C732 C733 1.404 1_545 S
C732 C735 1.539 . S
C733 C729 1.408 . S
C733 C732 1.404 1_565 S
C733 H745 0.930 . S
C734 C730 1.524 . S
C734 H746 0.956 . S
C734 H747 0.961 . S
C734 H748 0.961 . S
C735 C732 1.539 . S
C735 H749 0.958 . S
C735 H750 0.961 . S
C735 H751 0.960 . S
H736 C720 0.931 . S
H737 C725 0.929 . S
H738 C726 0.960 . S
H739 C726 0.962 . S
H740 C726 0.960 . S
H741 C727 0.961 . S
H742 C727 0.961 . S
H743 C727 0.961 . S
H744 C728 0.931 . S
H745 C733 0.930 . S
H746 C734 0.956 . S
H747 C734 0.961 . S
H748 C734 0.961 . S
H749 C735 0.958 . S
H750 C735 0.961 . S
H751 C735 0.960 . S
C752 C753 1.391 . S
C752 C754 1.394 . S
C752 H768 0.931 . S
C753 C752 1.391 . S
C753 C757 1.376 . S
C754 C752 1.394 . S
C754 C755 1.369 . S
C754 C758 1.531 . S
C755 C754 1.369 . S
C755 C756 1.410 . S
C755 C763 1.503 1_655 S
C756 C755 1.410 . S
C756 C757 1.392 . S
C756 C759 1.511 1_655 S
C757 C753 1.376 . S
C757 C756 1.392 . S
C757 H769 0.929 . S
C758 C754 1.531 . S
C758 H770 0.960 . S
C758 H771 0.962 . S
C758 H772 0.960 . S
C759 C756 1.511 1_455 S
C759 H773 0.958 1_455 S
C759 H774 0.961 . S
C759 H775 0.961 . S
C760 C761 1.370 . S
C760 C762 1.363 . S
C760 H776 0.931 . S
C761 C760 1.370 . S
C761 C765 1.408 . S
C762 C760 1.363 . S
C762 C763 1.370 . S
C762 C766 1.510 1_455 S
C763 C755 1.503 1_455 S
C763 C762 1.370 . S
C763 C764 1.403 . S
C764 C763 1.403 . S
C764 C765 1.404 . S
C764 C767 1.539 . S
C765 C761 1.408 . S
C765 C764 1.404 . S
C765 H777 0.930 . S
C766 C762 1.510 1_655 S
C766 H778 0.972 . S
C766 H779 0.967 . S
C766 H780 0.952 1_655 S
C767 C764 1.539 . S
C767 H781 0.958 . S
C767 H782 0.961 . S
C767 H783 0.960 . S
H768 C752 0.931 . S
H769 C757 0.929 . S
H770 C758 0.960 . S
H771 C758 0.962 . S
H772 C758 0.960 . S
H773 C759 0.958 1_655 S
H774 C759 0.961 . S
H775 C759 0.961 . S
H776 C760 0.931 . S
H777 C765 0.930 . S
H778 C766 0.972 . S
H779 C766 0.967 . S
H780 C766 0.952 1_455 S
H781 C767 0.958 . S
H782 C767 0.961 . S
H783 C767 0.960 . S
C784 C785 1.391 . S
C784 C786 1.394 . S
C784 H800 0.931 . S
C785 C784 1.391 . S
C785 C789 1.376 . S
C786 C784 1.394 . S
C786 C787 1.369 . S
C786 C790 1.531 . S
C787 C786 1.369 . S
C787 C788 1.410 . S
C787 C795 1.503 1_455 S
C788 C787 1.410 . S
C788 C789 1.392 . S
C788 C791 1.511 1_455 S
C789 C785 1.376 . S
C789 C788 1.392 . S
C789 H801 0.929 . S
C790 C786 1.531 . S
C790 H802 0.960 . S
C790 H803 0.962 . S
C790 H804 0.960 . S
C791 C788 1.511 1_655 S
C791 H805 0.961 . S
C791 H806 0.961 . S
C791 H807 0.961 . S
C792 C793 1.370 . S
C792 C794 1.363 . S
C792 H808 0.931 . S
C793 C792 1.370 . S
C793 C797 1.408 . S
C794 C792 1.363 . S
C794 C795 1.370 . S
C794 C798 1.524 . S
C795 C787 1.503 1_655 S
C795 C794 1.370 . S
C795 C796 1.403 . S
C796 C795 1.403 . S
C796 C797 1.404 . S
C796 C799 1.539 . S
C797 C793 1.408 . S
C797 C796 1.404 . S
C797 H809 0.930 . S
C798 C794 1.524 . S
C798 H810 0.956 1_655 S
C798 H811 0.961 . S
C798 H812 0.961 . S
C799 C796 1.539 . S
C799 H813 0.958 . S
C799 H814 0.961 . S
C799 H815 0.960 . S
H800 C784 0.931 . S
H801 C789 0.929 . S
H802 C790 0.960 . S
H803 C790 0.962 . S
H804 C790 0.960 . S
H805 C791 0.961 . S
H806 C791 0.961 . S
H807 C791 0.961 . S
H808 C792 0.931 . S
H809 C797 0.930 . S
H810 C798 0.956 1_455 S
H811 C798 0.961 . S
H812 C798 0.961 . S
H813 C799 0.958 . S
H814 C799 0.961 . S
H815 C799 0.960 . S
C816 C817 1.391 . S
C816 C818 1.394 . S
C816 H832 0.931 . S
C817 C816 1.391 . S
C817 C821 1.376 . S
C818 C816 1.394 . S
C818 C819 1.369 . S
C818 C822 1.531 1_655 S
C819 C818 1.369 . S
C819 C820 1.410 . S
C819 C827 1.503 1_655 S
C820 C819 1.410 . S
C820 C821 1.392 . S
C820 C823 1.511 . S
C821 C817 1.376 . S
C821 C820 1.392 . S
C821 H833 0.929 . S
C822 C818 1.531 1_455 S
C822 H834 0.960 . S
C822 H835 0.962 . S
C822 H836 0.960 1_455 S
C823 C820 1.511 . S
C823 H837 0.961 . S
C823 H838 0.961 . S
C823 H839 0.961 . S
C824 C825 1.370 . S
C824 C826 1.363 . S
C824 H840 0.931 . S
C825 C824 1.370 . S
C825 C829 1.408 . S
C826 C824 1.363 . S
C826 C827 1.370 . S
C826 C830 1.524 . S
C827 C819 1.503 1_455 S
C827 C826 1.370 . S
C827 C828 1.403 . S
C828 C827 1.403 . S
C828 C829 1.404 . S
C828 C831 1.539 . S
C829 C825 1.408 . S
C829 C828 1.404 . S
C829 H841 0.930 . S
C830 C826 1.524 . S
C830 H842 0.956 . S
C830 H843 0.961 . S
C830 H844 0.961 . S
C831 C828 1.539 . S
C831 H845 0.958 . S
C831 H846 0.961 . S
C831 H847 0.960 1_455 S
H832 C816 0.931 . S
H833 C821 0.929 . S
H834 C822 0.960 . S
H835 C822 0.962 . S
H836 C822 0.960 1_655 S
H837 C823 0.961 . S
H838 C823 0.961 . S
H839 C823 0.961 . S
H840 C824 0.931 . S
H841 C829 0.930 . S
H842 C830 0.956 . S
H843 C830 0.961 . S
H844 C830 0.961 . S
H845 C831 0.958 . S
H846 C831 0.961 . S
H847 C831 0.960 1_655 S
C848 C849 1.391 . S
C848 C850 1.394 . S
C848 H864 0.931 . S
C849 C848 1.391 . S
C849 C853 1.376 . S
C850 C848 1.394 . S
C850 C851 1.369 . S
C850 C854 1.531 . S
C851 C850 1.369 . S
C851 C852 1.410 . S
C851 C859 1.503 1_455 S
C852 C851 1.410 . S
C852 C853 1.392 . S
C852 C855 1.511 1_455 S
C853 C849 1.376 . S
C853 C852 1.392 . S
C853 H865 0.929 . S
C854 C850 1.531 . S
C854 H866 0.960 . S
C854 H867 0.962 . S
C854 H868 0.960 . S
C855 C852 1.511 1_655 S
C855 H869 0.961 1_655 S
C855 H870 0.961 . S
C855 H871 0.961 . S
C856 C857 1.370 . S
C856 C858 1.363 . S
C856 H872 0.931 . S
C857 C856 1.370 . S
C857 C861 1.408 . S
C858 C856 1.363 . S
C858 C859 1.370 . S
C858 C862 1.524 1_655 S
C859 C851 1.503 1_655 S
C859 C858 1.370 . S
C859 C860 1.403 . S
C860 C859 1.403 . S
C860 C861 1.404 . S
C860 C863 1.539 . S
C861 C857 1.408 . S
C861 C860 1.404 . S
C861 H873 0.930 . S
C862 C858 1.524 1_455 S
C862 H874 0.956 . S
C862 H875 0.961 . S
C862 H876 0.962 1_455 S
C863 C860 1.539 . S
C863 H877 0.958 . S
C863 H878 0.961 . S
C863 H879 0.960 . S
H864 C848 0.931 . S
H865 C853 0.929 . S
H866 C854 0.960 . S
H867 C854 0.962 . S
H868 C854 0.960 . S
H869 C855 0.961 1_455 S
H870 C855 0.961 . S
H871 C855 0.961 . S
H872 C856 0.931 . S
H873 C861 0.930 . S
H874 C862 0.956 . S
H875 C862 0.961 . S
H876 C862 0.962 1_655 S
H877 C863 0.958 . S
H878 C863 0.961 . S
H879 C863 0.960 . S
C880 C881 1.391 . S
C880 C882 1.394 . S
C880 H896 0.931 . S
C881 C880 1.391 . S
C881 C885 1.376 . S
C882 C880 1.394 . S
C882 C883 1.369 . S
C882 C886 1.531 . S
C883 C882 1.369 . S
C883 C884 1.410 . S
C883 C891 1.503 . S
C884 C883 1.410 . S
C884 C885 1.392 . S
C884 C887 1.511 . S
C885 C881 1.376 . S
C885 C884 1.392 . S
C885 H897 0.929 . S
C886 C882 1.531 . S
C886 H898 0.960 . S
C886 H899 0.962 . S
C886 H900 0.960 . S
C887 C884 1.511 . S
C887 H901 0.961 . S
C887 H902 0.961 . S
C887 H903 0.961 . S
C888 C889 1.370 . S
C888 C890 1.363 . S
C888 H904 0.931 . S
C889 C888 1.370 . S
C889 C893 1.408 . S
C890 C888 1.363 . S
C890 C891 1.370 . S
C890 C894 1.524 . S
C891 C883 1.503 . S
C891 C890 1.370 . S
C891 C892 1.403 . S
C892 C891 1.403 . S
C892 C893 1.404 . S
C892 C895 1.539 . S
C893 C889 1.408 . S
C893 C892 1.404 . S
C893 H905 0.930 . S
C894 C890 1.524 . S
C894 H906 0.956 . S
C894 H907 0.961 . S
C894 H908 0.961 . S
C895 C892 1.539 . S
C895 H909 0.958 . S
C895 H910 0.961 . S
C895 H911 0.960 . S
H896 C880 0.931 . S
H897 C885 0.929 . S
H898 C886 0.960 . S
H899 C886 0.962 . S
H900 C886 0.960 . S
H901 C887 0.961 . S
H902 C887 0.961 . S
H903 C887 0.961 . S
H904 C888 0.931 . S
H905 C893 0.930 . S
H906 C894 0.956 . S
H907 C894 0.961 . S
H908 C894 0.961 . S
H909 C895 0.958 . S
H910 C895 0.961 . S
H911 C895 0.960 . S
C912 C913 1.391 . S
C912 C914 1.394 . S
C912 H928 0.931 . S
C913 C912 1.391 . S
C913 C917 1.376 . S
C914 C912 1.394 . S
C914 C915 1.369 . S
C914 C918 1.531 . S
C915 C914 1.369 . S
C915 C916 1.410 . S
C915 C923 1.503 . S
C916 C915 1.410 . S
C916 C917 1.392 . S
C916 C919 1.511 . S
C917 C913 1.376 . S
C917 C916 1.392 . S
C917 H929 0.929 . S
C918 C914 1.531 . S
C918 H930 0.960 . S
C918 H931 0.962 . S
C918 H932 0.960 . S
C919 C916 1.511 . S
C919 H933 0.961 . S
C919 H934 0.961 . S
C919 H935 0.961 . S
C920 C921 1.370 . S
C920 C922 1.363 . S
C920 H936 0.931 . S
C921 C920 1.370 . S
C921 C925 1.408 . S
C922 C920 1.363 . S
C922 C923 1.370 . S
C922 C926 1.524 . S
C923 C915 1.503 . S
C923 C922 1.370 . S
C923 C924 1.403 . S
C924 C923 1.403 . S
C924 C925 1.404 . S
C924 C927 1.539 . S
C925 C921 1.408 . S
C925 C924 1.404 . S
C925 H937 0.930 . S
C926 C922 1.524 . S
C926 H938 0.956 . S
C926 H939 0.961 . S
C926 H940 0.961 . S
C927 C924 1.539 . S
C927 H941 0.958 . S
C927 H942 0.961 . S
C927 H943 0.960 . S
H928 C912 0.931 . S
H929 C917 0.929 . S
H930 C918 0.960 . S
H931 C918 0.962 . S
H932 C918 0.960 . S
H933 C919 0.961 . S
H934 C919 0.961 . S
H935 C919 0.961 . S
H936 C920 0.931 . S
H937 C925 0.930 . S
H938 C926 0.956 . S
H939 C926 0.961 . S
H940 C926 0.961 . S
H941 C927 0.958 . S
H942 C927 0.961 . S
H943 C927 0.960 . S
C944 C945 1.391 . S
C944 C946 1.394 . S
C944 H960 0.931 . S
C945 C944 1.391 . S
C945 C949 1.376 . S
C946 C944 1.394 . S
C946 C947 1.369 . S
C946 C950 1.531 . S
C947 C946 1.369 . S
C947 C948 1.410 . S
C947 C955 1.503 . S
C948 C947 1.410 . S
C948 C949 1.392 . S
C948 C951 1.511 . S
C949 C945 1.376 . S
C949 C948 1.392 . S
C949 H961 0.929 . S
C950 C946 1.531 . S
C950 H962 0.960 . S
C950 H963 0.962 . S
C950 H964 0.960 . S
C951 C948 1.511 . S
C951 H965 0.961 . S
C951 H966 0.961 . S
C951 H967 0.961 . S
C952 C953 1.370 . S
C952 C954 1.363 . S
C952 H968 0.931 . S
C953 C952 1.370 . S
C953 C957 1.408 . S
C954 C952 1.363 . S
C954 C955 1.370 . S
C954 C958 1.524 . S
C955 C947 1.503 . S
C955 C954 1.370 . S
C955 C956 1.403 . S
C956 C955 1.403 . S
C956 C957 1.404 . S
C956 C959 1.539 . S
C957 C953 1.408 . S
C957 C956 1.404 . S
C957 H969 0.930 . S
C958 C954 1.524 . S
C958 H970 0.956 . S
C958 H971 0.961 . S
C958 H972 0.961 . S
C959 C956 1.539 . S
C959 H973 0.958 . S
C959 H974 0.961 . S
C959 H975 0.960 . S
H960 C944 0.931 . S
H961 C949 0.929 . S
H962 C950 0.960 . S
H963 C950 0.962 . S
H964 C950 0.960 . S
H965 C951 0.961 . S
H966 C951 0.961 . S
H967 C951 0.961 . S
H968 C952 0.931 . S
H969 C957 0.930 . S
H970 C958 0.956 . S
H971 C958 0.961 . S
H972 C958 0.961 . S
H973 C959 0.958 . S
H974 C959 0.961 . S
H975 C959 0.960 . S
C976 C977 1.391 . S
C976 C978 1.394 . S
C976 H992 0.931 . S
C977 C976 1.391 . S
C977 C981 1.376 . S
C978 C976 1.394 . S
C978 C979 1.369 . S
C978 C982 1.531 . S
C979 C978 1.369 . S
C979 C980 1.410 . S
C979 C987 1.503 . S
C980 C979 1.410 . S
C980 C981 1.392 . S
C980 C983 1.511 . S
C981 C977 1.376 . S
C981 C980 1.392 . S
C981 H993 0.929 . S
C982 C978 1.531 . S
C982 H994 0.960 . S
C982 H995 0.962 . S
C982 H996 0.960 . S
C983 C980 1.511 . S
C983 H997 0.961 . S
C983 H998 0.961 . S
C983 H999 0.961 . S
C984 C985 1.370 . S
C984 C986 1.363 . S
C984 H1000 0.931 . S
C985 C984 1.370 . S
C985 C989 1.408 . S
C986 C984 1.363 . S
C986 C987 1.370 . S
C986 C990 1.524 . S
C987 C979 1.503 . S
C987 C986 1.370 . S
C987 C988 1.403 . S
C988 C987 1.403 . S
C988 C989 1.404 . S
C988 C991 1.539 . S
C989 C985 1.408 . S
C989 C988 1.404 . S
C989 H1001 0.930 . S
C990 C986 1.524 . S
C990 H1002 0.956 . S
C990 H1003 0.961 . S
C990 H1004 0.961 . S
C991 C988 1.539 . S
C991 H1005 0.958 . S
C991 H1006 0.961 . S
C991 H1007 0.960 . S
H992 C976 0.931 . S
H993 C981 0.929 . S
H994 C982 0.960 . S
H995 C982 0.962 . S
H996 C982 0.960 . S
H997 C983 0.961 . S
H998 C983 0.961 . S
H999 C983 0.961 . S
H1000 C984 0.931 . S
H1001 C989 0.930 . S
H1002 C990 0.956 . S
H1003 C990 0.961 . S
H1004 C990 0.961 . S
H1005 C991 0.958 . S
H1006 C991 0.961 . S
H1007 C991 0.960 . S
C1008 C1009 1.391 . S
C1008 C1010 1.394 . S
C1008 H1024 0.931 . S
C1009 C1008 1.391 . S
C1009 C1013 1.376 . S
C1010 C1008 1.394 . S
C1010 C1011 1.369 . S
C1010 C1014 1.531 . S
C1011 C1010 1.369 . S
C1011 C1012 1.410 . S
C1011 C1019 1.503 . S
C1012 C1011 1.410 . S
C1012 C1013 1.392 . S
C1012 C1015 1.511 . S
C1013 C1009 1.376 . S
C1013 C1012 1.392 . S
C1013 H1025 0.929 . S
C1014 C1010 1.531 . S
C1014 H1026 0.960 . S
C1014 H1027 0.962 . S
C1014 H1028 0.960 . S
C1015 C1012 1.511 . S
C1015 H1029 0.961 . S
C1015 H1030 0.961 . S
C1015 H1031 0.961 . S
C1016 C1017 1.370 . S
C1016 C1018 1.363 . S
C1016 H1032 0.931 . S
C1017 C1016 1.370 . S
C1017 C1021 1.408 . S
C1018 C1016 1.363 . S
C1018 C1019 1.370 . S
C1018 C1022 1.524 . S
C1019 C1011 1.503 . S
C1019 C1018 1.370 . S
C1019 C1020 1.403 . S
C1020 C1019 1.403 . S
C1020 C1021 1.404 . S
C1020 C1023 1.539 . S
C1021 C1017 1.408 . S
C1021 C1020 1.404 . S
C1021 H1033 0.930 . S
C1022 C1018 1.524 . S
C1022 H1034 0.956 . S
C1022 H1035 0.961 . S
C1022 H1036 0.961 . S
C1023 C1020 1.539 . S
C1023 H1037 0.958 . S
C1023 H1038 0.961 . S
C1023 H1039 0.960 . S
H1024 C1008 0.931 . S
H1025 C1013 0.929 . S
H1026 C1014 0.960 . S
H1027 C1014 0.962 . S
H1028 C1014 0.960 . S
H1029 C1015 0.961 . S
H1030 C1015 0.961 . S
H1031 C1015 0.961 . S
H1032 C1016 0.931 . S
H1033 C1021 0.930 . S
H1034 C1022 0.956 . S
H1035 C1022 0.961 . S
H1036 C1022 0.961 . S
H1037 C1023 0.958 . S
H1038 C1023 0.961 . S
H1039 C1023 0.960 . S
C1040 C1041 1.391 . S
C1040 C1042 1.394 . S
C1040 H1056 0.931 . S
C1041 C1040 1.391 . S
C1041 C1045 1.376 . S
C1042 C1040 1.394 . S
C1042 C1043 1.369 . S
C1042 C1046 1.531 . S
C1043 C1042 1.369 . S
C1043 C1044 1.410 . S
C1043 C1051 1.503 . S
C1044 C1043 1.410 . S
C1044 C1045 1.392 . S
C1044 C1047 1.511 . S
C1045 C1041 1.376 . S
C1045 C1044 1.392 . S
C1045 H1057 0.929 . S
C1046 C1042 1.531 . S
C1046 H1058 0.960 . S
C1046 H1059 0.962 . S
C1046 H1060 0.960 . S
C1047 C1044 1.511 . S
C1047 H1061 0.961 . S
C1047 H1062 0.961 . S
C1047 H1063 0.961 . S
C1048 C1049 1.370 . S
C1048 C1050 1.363 . S
C1048 H1064 0.931 . S
C1049 C1048 1.370 . S
C1049 C1053 1.408 . S
C1050 C1048 1.363 . S
C1050 C1051 1.370 . S
C1050 C1054 1.524 . S
C1051 C1043 1.503 . S
C1051 C1050 1.370 . S
C1051 C1052 1.403 . S
C1052 C1051 1.403 . S
C1052 C1053 1.404 . S
C1052 C1055 1.539 . S
C1053 C1049 1.408 . S
C1053 C1052 1.404 . S
C1053 H1065 0.930 . S
C1054 C1050 1.524 . S
C1054 H1066 0.956 . S
C1054 H1067 0.961 . S
C1054 H1068 0.961 . S
C1055 C1052 1.539 . S
C1055 H1069 0.958 . S
C1055 H1070 0.961 . S
C1055 H1071 0.960 . S
H1056 C1040 0.931 . S
H1057 C1045 0.929 . S
H1058 C1046 0.960 . S
H1059 C1046 0.962 . S
H1060 C1046 0.960 . S
H1061 C1047 0.961 . S
H1062 C1047 0.961 . S
H1063 C1047 0.961 . S
H1064 C1048 0.931 . S
H1065 C1053 0.930 . S
H1066 C1054 0.956 . S
H1067 C1054 0.961 . S
H1068 C1054 0.961 . S
H1069 C1055 0.958 . S
H1070 C1055 0.961 . S
H1071 C1055 0.960 . S
C1072 C1073 1.391 . S
C1072 C1074 1.394 . S
C1072 H1088 0.931 . S
C1073 C1072 1.391 . S
C1073 C1077 1.376 . S
C1074 C1072 1.394 . S
C1074 C1075 1.369 . S
C1074 C1078 1.531 . S
C1075 C1074 1.369 . S
C1075 C1076 1.410 . S
C1075 C1083 1.503 . S
C1076 C1075 1.410 . S
C1076 C1077 1.392 . S
C1076 C1079 1.511 . S
C1077 C1073 1.376 . S
C1077 C1076 1.392 . S
C1077 H1089 0.929 . S
C1078 C1074 1.531 . S
C1078 H1090 0.960 . S
C1078 H1091 0.962 . S
C1078 H1092 0.960 . S
C1079 C1076 1.511 . S
C1079 H1093 0.961 . S
C1079 H1094 0.961 . S
C1079 H1095 0.961 . S
C1080 C1081 1.370 . S
C1080 C1082 1.363 . S
C1080 H1096 0.931 . S
C1081 C1080 1.370 . S
C1081 C1085 1.408 . S
C1082 C1080 1.363 . S
C1082 C1083 1.370 . S
C1082 C1086 1.524 . S
C1083 C1075 1.503 . S
C1083 C1082 1.370 . S
C1083 C1084 1.403 . S
C1084 C1083 1.403 . S
C1084 C1085 1.404 . S
C1084 C1087 1.539 . S
C1085 C1081 1.408 . S
C1085 C1084 1.404 . S
C1085 H1097 0.930 . S
C1086 C1082 1.524 . S
C1086 H1098 0.956 . S
C1086 H1099 0.961 . S
C1086 H1100 0.961 . S
C1087 C1084 1.539 . S
C1087 H1101 0.958 . S
C1087 H1102 0.961 . S
C1087 H1103 0.960 . S
H1088 C1072 0.931 . S
H1089 C1077 0.929 . S
H1090 C1078 0.960 . S
H1091 C1078 0.962 . S
H1092 C1078 0.960 . S
H1093 C1079 0.961 . S
H1094 C1079 0.961 . S
H1095 C1079 0.961 . S
H1096 C1080 0.931 . S
H1097 C1085 0.930 . S
H1098 C1086 0.956 . S
H1099 C1086 0.961 . S
H1100 C1086 0.961 . S
H1101 C1087 0.958 . S
H1102 C1087 0.961 . S
H1103 C1087 0.960 . S
C1104 C1105 1.391 . S
C1104 C1106 1.394 . S
C1104 H1120 0.931 . S
C1105 C1104 1.391 . S
C1105 C1109 1.376 . S
C1106 C1104 1.394 . S
C1106 C1107 1.369 . S
C1106 C1110 1.531 . S
C1107 C1106 1.369 . S
C1107 C1108 1.410 . S
C1107 C1115 1.503 . S
C1108 C1107 1.410 . S
C1108 C1109 1.392 . S
C1108 C1111 1.511 . S
C1109 C1105 1.376 . S
C1109 C1108 1.392 . S
C1109 H1121 0.929 . S
C1110 C1106 1.531 . S
C1110 H1122 0.960 . S
C1110 H1123 0.962 . S
C1110 H1124 0.960 . S
C1111 C1108 1.511 . S
C1111 H1125 0.961 . S
C1111 H1126 0.961 . S
C1111 H1127 0.961 . S
C1112 C1113 1.370 . S
C1112 C1114 1.363 . S
C1112 H1128 0.931 . S
C1113 C1112 1.370 . S
C1113 C1117 1.408 . S
C1114 C1112 1.363 . S
C1114 C1115 1.370 . S
C1114 C1118 1.524 . S
C1115 C1107 1.503 . S
C1115 C1114 1.370 . S
C1115 C1116 1.403 . S
C1116 C1115 1.403 . S
C1116 C1117 1.404 . S
C1116 C1119 1.539 . S
C1117 C1113 1.408 . S
C1117 C1116 1.404 . S
C1117 H1129 0.930 . S
C1118 C1114 1.524 . S
C1118 H1130 0.956 . S
C1118 H1131 0.961 . S
C1118 H1132 0.961 . S
C1119 C1116 1.539 . S
C1119 H1133 0.958 . S
C1119 H1134 0.961 . S
C1119 H1135 0.960 . S
H1120 C1104 0.931 . S
H1121 C1109 0.929 . S
H1122 C1110 0.960 . S
H1123 C1110 0.962 . S
H1124 C1110 0.960 . S
H1125 C1111 0.961 . S
H1126 C1111 0.961 . S
H1127 C1111 0.961 . S
H1128 C1112 0.931 . S
H1129 C1117 0.930 . S
H1130 C1118 0.956 . S
H1131 C1118 0.961 . S
H1132 C1118 0.961 . S
H1133 C1119 0.958 . S
H1134 C1119 0.961 . S
H1135 C1119 0.960 . S
C1136 C1137 1.391 . S
C1136 C1138 1.394 . S
C1136 H1152 0.931 . S
C1137 C1136 1.391 . S
C1137 C1141 1.376 . S
C1138 C1136 1.394 . S
C1138 C1139 1.369 . S
C1138 C1142 1.531 . S
C1139 C1138 1.369 . S
C1139 C1140 1.410 1_545 S
C1139 C1147 1.503 1_545 S
C1140 C1139 1.410 1_565 S
C1140 C1141 1.392 1_565 S
C1140 C1143 1.511 . S
C1141 C1137 1.376 . S
C1141 C1140 1.392 1_545 S
C1141 H1153 0.929 . S
C1142 C1138 1.531 . S
C1142 H1154 0.960 . S
C1142 H1155 0.962 . S
C1142 H1156 0.960 . S
C1143 C1140 1.511 . S
C1143 H1157 0.961 . S
C1143 H1158 0.961 . S
C1143 H1159 0.961 . S
C1144 C1145 1.370 . S
C1144 C1146 1.363 . S
C1144 H1160 0.931 . S
C1145 C1144 1.370 . S
C1145 C1149 1.408 . S
C1146 C1144 1.363 . S
C1146 C1147 1.370 . S
C1146 C1150 1.524 . S
C1147 C1139 1.503 1_565 S
C1147 C1146 1.370 . S
C1147 C1148 1.403 . S
C1148 C1147 1.403 . S
C1148 C1149 1.404 . S
C1148 C1151 1.539 1_565 S
C1149 C1145 1.408 . S
C1149 C1148 1.404 . S
C1149 H1161 0.930 . S
C1150 C1146 1.524 . S
C1150 H1162 0.956 1_565 S
C1150 H1163 0.961 . S
C1150 H1164 0.961 . S
C1151 C1148 1.539 1_545 S
C1151 H1165 0.958 . S
C1151 H1166 0.961 1_545 S
C1151 H1167 0.960 . S
H1152 C1136 0.931 . S
H1153 C1141 0.929 . S
H1154 C1142 0.960 . S
H1155 C1142 0.962 . S
H1156 C1142 0.960 . S
H1157 C1143 0.961 . S
H1158 C1143 0.961 . S
H1159 C1143 0.961 . S
H1160 C1144 0.931 . S
H1161 C1149 0.930 . S
H1162 C1150 0.956 1_545 S
H1163 C1150 0.961 . S
H1164 C1150 0.961 . S
H1165 C1151 0.958 . S
H1166 C1151 0.961 1_565 S
H1167 C1151 0.960 . S
C1168 C1169 1.391 . S
C1168 C1170 1.394 . S
C1168 H1184 0.931 . S
C1169 C1168 1.391 . S
C1169 C1173 1.376 . S
C1170 C1168 1.394 . S
C1170 C1171 1.369 . S
C1170 C1174 1.531 . S
C1171 C1170 1.369 . S
C1171 C1172 1.410 . S
C1171 C1179 1.503 1_545 S
C1172 C1171 1.410 . S
C1172 C1173 1.392 . S
C1172 C1175 1.511 1_545 S
C1173 C1169 1.376 . S
C1173 C1172 1.392 . S
C1173 H1185 0.929 . S
C1174 C1170 1.531 . S
C1174 H1186 0.960 . S
C1174 H1187 0.962 . S
C1174 H1188 0.960 . S
C1175 C1172 1.511 1_565 S
C1175 H1189 0.961 . S
C1175 H1190 0.961 . S
C1175 H1191 0.961 . S
C1176 C1177 1.370 . S
C1176 C1178 1.363 . S
C1176 H1192 0.931 . S
C1177 C1176 1.370 . S
C1177 C1181 1.408 . S
C1178 C1176 1.363 . S
C1178 C1179 1.370 . S
C1178 C1182 1.524 . S
C1179 C1171 1.503 1_565 S
C1179 C1178 1.370 . S
C1179 C1180 1.403 1_565 S
C1180 C1179 1.403 1_545 S
C1180 C1181 1.404 1_545 S
C1180 C1183 1.539 . S
C1181 C1177 1.408 . S
C1181 C1180 1.404 1_565 S
C1181 H1193 0.930 . S
C1182 C1178 1.524 . S
C1182 H1194 0.956 . S
C1182 H1195 0.961 . S
C1182 H1196 0.961 . S
C1183 C1180 1.539 . S
C1183 H1197 0.958 . S
C1183 H1198 0.961 . S
C1183 H1199 0.960 . S
H1184 C1168 0.931 . S
H1185 C1173 0.929 . S
H1186 C1174 0.960 . S
H1187 C1174 0.962 . S
H1188 C1174 0.960 . S
H1189 C1175 0.961 . S
H1190 C1175 0.961 . S
H1191 C1175 0.961 . S
H1192 C1176 0.931 . S
H1193 C1181 0.930 . S
H1194 C1182 0.956 . S
H1195 C1182 0.961 . S
H1196 C1182 0.961 . S
H1197 C1183 0.958 . S
H1198 C1183 0.961 . S
H1199 C1183 0.960 . S
C1200 C1201 1.391 . S
C1200 C1202 1.394 . S
C1200 H1216 0.931 . S
C1201 C1200 1.391 . S
C1201 C1205 1.376 . S
C1202 C1200 1.394 . S
C1202 C1203 1.369 . S
C1202 C1206 1.531 . S
C1203 C1202 1.369 . S
C1203 C1204 1.410 . S
C1203 C1211 1.503 1_545 S
C1204 C1203 1.410 . S
C1204 C1205 1.392 . S
C1204 C1207 1.511 1_545 S
C1205 C1201 1.376 . S
C1205 C1204 1.392 . S
C1205 H1217 0.929 . S
C1206 C1202 1.531 . S
C1206 H1218 0.960 . S
C1206 H1219 0.962 . S
C1206 H1220 0.960 . S
C1207 C1204 1.511 1_565 S
C1207 H1221 0.961 . S
C1207 H1222 0.961 . S
C1207 H1223 0.961 . S
C1208 C1209 1.370 . S
C1208 C1210 1.371 . S
C1208 H1224 0.931 . S
C1209 C1208 1.370 . S
C1209 C1213 1.408 . S
C1210 C1208 1.371 . S
C1210 C1211 1.377 . S
C1210 C1214 1.511 1_565 S
C1211 C1203 1.503 1_565 S
C1211 C1210 1.377 . S
C1211 C1212 1.403 . S
C1212 C1211 1.403 . S
C1212 C1213 1.404 . S
C1212 C1215 1.539 . S
C1213 C1209 1.408 . S
C1213 C1212 1.404 . S
C1213 H1225 0.930 . S
C1214 C1210 1.511 1_545 S
C1214 H1226 0.956 . S
C1214 H1227 0.961 . S
C1214 H1228 0.961 . S
C1215 C1212 1.539 . S
C1215 H1229 0.958 . S
C1215 H1230 0.961 . S
C1215 H1231 0.960 . S
H1216 C1200 0.931 . S
H1217 C1205 0.929 . S
H1218 C1206 0.960 . S
H1219 C1206 0.962 . S
H1220 C1206 0.960 . S
H1221 C1207 0.961 . S
H1222 C1207 0.961 . S
H1223 C1207 0.961 . S
H1224 C1208 0.931 . S
H1225 C1213 0.930 . S
H1226 C1214 0.956 . S
H1227 C1214 0.961 . S
H1228 C1214 0.961 . S
H1229 C1215 0.958 . S
H1230 C1215 0.961 . S
H1231 C1215 0.960 . S
C1232 C1233 1.391 . S
C1232 C1234 1.394 . S
C1232 H1248 0.931 . S
C1233 C1232 1.391 . S
C1233 C1237 1.376 . S
C1234 C1232 1.394 . S
C1234 C1235 1.369 . S
C1234 C1238 1.531 . S
C1235 C1234 1.369 . S
C1235 C1236 1.410 1_565 S
C1235 C1243 1.503 1_565 S
C1236 C1235 1.410 1_545 S
C1236 C1237 1.392 1_545 S
C1236 C1239 1.511 . S
C1237 C1233 1.376 . S
C1237 C1236 1.392 1_565 S
C1237 H1249 0.929 . S
C1238 C1234 1.531 . S
C1238 H1250 0.960 . S
C1238 H1251 0.962 . S
C1238 H1252 0.960 . S
C1239 C1236 1.511 . S
C1239 H1253 0.961 . S
C1239 H1254 0.961 . S
C1239 H1255 0.961 . S
C1240 C1241 1.370 . S
C1240 C1242 1.363 . S
C1240 H1256 0.931 . S
C1241 C1240 1.370 . S
C1241 C1245 1.408 . S
C1242 C1240 1.363 . S
C1242 C1243 1.370 . S
C1242 C1246 1.524 . S
C1243 C1235 1.503 1_545 S
C1243 C1242 1.370 . S
C1243 C1244 1.403 . S
C1244 C1243 1.403 . S
C1244 C1245 1.404 . S
C1244 C1247 1.539 1_545 S
C1245 C1241 1.408 . S
C1245 C1244 1.404 . S
C1245 H1257 0.930 . S
C1246 C1242 1.524 . S
C1246 H1258 0.956 . S
C1246 H1259 0.961 . S
C1246 H1260 0.961 . S
C1247 C1244 1.539 1_565 S
C1247 H1261 0.958 . S
C1247 H1262 0.961 1_565 S
C1247 H1263 0.960 . S
H1248 C1232 0.931 . S
H1249 C1237 0.929 . S
H1250 C1238 0.960 . S
H1251 C1238 0.962 . S
H1252 C1238 0.960 . S
H1253 C1239 0.961 . S
H1254 C1239 0.961 . S
H1255 C1239 0.961 . S
H1256 C1240 0.931 . S
H1257 C1245 0.930 . S
H1258 C1246 0.956 . S
H1259 C1246 0.961 . S
H1260 C1246 0.961 . S
H1261 C1247 0.958 . S
H1262 C1247 0.961 1_545 S
H1263 C1247 0.960 . S
C1264 C1265 1.391 . S
C1264 C1266 1.394 . S
C1264 H1280 0.931 . S
C1265 C1264 1.391 . S
C1265 C1269 1.376 . S
C1266 C1264 1.394 . S
C1266 C1267 1.369 . S
C1266 C1270 1.531 . S
C1267 C1266 1.369 . S
C1267 C1268 1.410 . S
C1267 C1275 1.503 . S
C1268 C1267 1.410 . S
C1268 C1269 1.392 . S
C1268 C1271 1.511 . S
C1269 C1265 1.376 . S
C1269 C1268 1.392 . S
C1269 H1281 0.929 . S
C1270 C1266 1.531 . S
C1270 H1282 0.960 . S
C1270 H1283 0.962 . S
C1270 H1284 0.960 . S
C1271 C1268 1.511 . S
C1271 H1285 0.961 . S
C1271 H1286 0.961 . S
C1271 H1287 0.961 . S
C1272 C1273 1.370 . S
C1272 C1274 1.363 . S
C1272 H1288 0.931 . S
C1273 C1272 1.370 . S
C1273 C1277 1.408 . S
C1274 C1272 1.363 . S
C1274 C1275 1.370 . S
C1274 C1278 1.524 . S
C1275 C1267 1.503 . S
C1275 C1274 1.370 . S
C1275 C1276 1.403 . S
C1276 C1275 1.403 . S
C1276 C1277 1.404 . S
C1276 C1279 1.539 . S
C1277 C1273 1.408 . S
C1277 C1276 1.404 . S
C1277 H1289 0.930 . S
C1278 C1274 1.524 . S
C1278 H1290 0.956 . S
C1278 H1291 0.961 . S
C1278 H1292 0.961 . S
C1279 C1276 1.539 . S
C1279 H1293 0.958 . S
C1279 H1294 0.961 . S
C1279 H1295 0.960 . S
H1280 C1264 0.931 . S
H1281 C1269 0.929 . S
H1282 C1270 0.960 . S
H1283 C1270 0.962 . S
H1284 C1270 0.960 . S
H1285 C1271 0.961 . S
H1286 C1271 0.961 . S
H1287 C1271 0.961 . S
H1288 C1272 0.931 . S
H1289 C1277 0.930 . S
H1290 C1278 0.956 . S
H1291 C1278 0.961 . S
H1292 C1278 0.961 . S
H1293 C1279 0.958 . S
H1294 C1279 0.961 . S
H1295 C1279 0.960 . S
C1296 C1297 1.391 . S
C1296 C1298 1.394 . S
C1296 H1312 0.931 . S
C1297 C1296 1.391 . S
C1297 C1301 1.376 . S
C1298 C1296 1.394 . S
C1298 C1299 1.369 . S
C1298 C1302 1.531 . S
C1299 C1298 1.369 . S
C1299 C1300 1.410 . S
C1299 C1307 1.503 . S
C1300 C1299 1.410 . S
C1300 C1301 1.392 . S
C1300 C1303 1.511 . S
C1301 C1297 1.376 . S
C1301 C1300 1.392 . S
C1301 H1313 0.929 . S
C1302 C1298 1.531 . S
C1302 H1314 0.960 . S
C1302 H1315 0.962 . S
C1302 H1316 0.960 . S
C1303 C1300 1.511 . S
C1303 H1317 0.961 . S
C1303 H1318 0.961 . S
C1303 H1319 0.961 . S
C1304 C1305 1.370 . S
C1304 C1306 1.363 . S
C1304 H1320 0.931 . S
C1305 C1304 1.370 . S
C1305 C1309 1.408 . S
C1306 C1304 1.363 . S
C1306 C1307 1.370 . S
C1306 C1310 1.524 . S
C1307 C1299 1.503 . S
C1307 C1306 1.370 . S
C1307 C1308 1.403 . S
C1308 C1307 1.403 . S
C1308 C1309 1.404 . S
C1308 C1311 1.539 . S
C1309 C1305 1.408 . S
C1309 C1308 1.404 . S
C1309 H1321 0.930 . S
C1310 C1306 1.524 . S
C1310 H1322 0.956 . S
C1310 H1323 0.961 . S
C1310 H1324 0.961 . S
C1311 C1308 1.539 . S
C1311 H1325 0.958 . S
C1311 H1326 0.961 . S
C1311 H1327 0.960 . S
H1312 C1296 0.931 . S
H1313 C1301 0.929 . S
H1314 C1302 0.960 . S
H1315 C1302 0.962 . S
H1316 C1302 0.960 . S
H1317 C1303 0.961 . S
H1318 C1303 0.961 . S
H1319 C1303 0.961 . S
H1320 C1304 0.931 . S
H1321 C1309 0.930 . S
H1322 C1310 0.956 . S
H1323 C1310 0.961 . S
H1324 C1310 0.961 . S
H1325 C1311 0.958 . S
H1326 C1311 0.961 . S
H1327 C1311 0.960 . S
C1328 C1329 1.391 . S
C1328 C1330 1.394 . S
C1328 H1344 0.931 . S
C1329 C1328 1.391 . S
C1329 C1333 1.376 . S
C1330 C1328 1.394 . S
C1330 C1331 1.369 . S
C1330 C1334 1.531 . S
C1331 C1330 1.369 . S
C1331 C1332 1.410 . S
C1331 C1339 1.503 . S
C1332 C1331 1.410 . S
C1332 C1333 1.392 . S
C1332 C1335 1.511 . S
C1333 C1329 1.376 . S
C1333 C1332 1.392 . S
C1333 H1345 0.929 . S
C1334 C1330 1.531 . S
C1334 H1346 0.960 . S
C1334 H1347 0.962 . S
C1334 H1348 0.960 . S
C1335 C1332 1.511 . S
C1335 H1349 0.961 . S
C1335 H1350 0.961 . S
C1335 H1351 0.961 . S
C1336 C1337 1.370 . S
C1336 C1338 1.363 . S
C1336 H1352 0.931 . S
C1337 C1336 1.370 . S
C1337 C1341 1.408 . S
C1338 C1336 1.363 . S
C1338 C1339 1.370 . S
C1338 C1342 1.524 . S
C1339 C1331 1.503 . S
C1339 C1338 1.370 . S
C1339 C1340 1.403 . S
C1340 C1339 1.403 . S
C1340 C1341 1.404 . S
C1340 C1343 1.539 . S
C1341 C1337 1.408 . S
C1341 C1340 1.404 . S
C1341 H1353 0.930 . S
C1342 C1338 1.524 . S
C1342 H1354 0.956 . S
C1342 H1355 0.961 . S
C1342 H1356 0.961 . S
C1343 C1340 1.539 . S
C1343 H1357 0.958 . S
C1343 H1358 0.961 . S
C1343 H1359 0.960 . S
H1344 C1328 0.931 . S
H1345 C1333 0.929 . S
H1346 C1334 0.960 . S
H1347 C1334 0.962 . S
H1348 C1334 0.960 . S
H1349 C1335 0.961 . S
H1350 C1335 0.961 . S
H1351 C1335 0.961 . S
H1352 C1336 0.931 . S
H1353 C1341 0.930 . S
H1354 C1342 0.956 . S
H1355 C1342 0.961 . S
H1356 C1342 0.961 . S
H1357 C1343 0.958 . S
H1358 C1343 0.961 . S
H1359 C1343 0.960 . S
C1360 C1361 1.391 . S
C1360 C1362 1.394 . S
C1360 H1376 0.931 . S
C1361 C1360 1.391 . S
C1361 C1365 1.376 . S
C1362 C1360 1.394 . S
C1362 C1363 1.369 . S
C1362 C1366 1.531 . S
C1363 C1362 1.369 . S
C1363 C1364 1.410 . S
C1363 C1371 1.503 . S
C1364 C1363 1.410 . S
C1364 C1365 1.392 . S
C1364 C1367 1.511 . S
C1365 C1361 1.376 . S
C1365 C1364 1.392 . S
C1365 H1377 0.929 . S
C1366 C1362 1.531 . S
C1366 H1378 0.960 . S
C1366 H1379 0.962 . S
C1366 H1380 0.960 . S
C1367 C1364 1.511 . S
C1367 H1381 0.961 . S
C1367 H1382 0.961 . S
C1367 H1383 0.961 . S
C1368 C1369 1.370 . S
C1368 C1370 1.363 . S
C1368 H1384 0.931 . S
C1369 C1368 1.370 . S
C1369 C1373 1.408 . S
C1370 C1368 1.363 . S
C1370 C1371 1.370 . S
C1370 C1374 1.524 . S
C1371 C1363 1.503 . S
C1371 C1370 1.370 . S
C1371 C1372 1.403 . S
C1372 C1371 1.403 . S
C1372 C1373 1.404 . S
C1372 C1375 1.539 . S
C1373 C1369 1.408 . S
C1373 C1372 1.404 . S
C1373 H1385 0.930 . S
C1374 C1370 1.524 . S
C1374 H1386 0.956 . S
C1374 H1387 0.961 . S
C1374 H1388 0.961 . S
C1375 C1372 1.539 . S
C1375 H1389 0.958 . S
C1375 H1390 0.961 . S
C1375 H1391 0.960 . S
H1376 C1360 0.931 . S
H1377 C1365 0.929 . S
H1378 C1366 0.960 . S
H1379 C1366 0.962 . S
H1380 C1366 0.960 . S
H1381 C1367 0.961 . S
H1382 C1367 0.961 . S
H1383 C1367 0.961 . S
H1384 C1368 0.931 . S
H1385 C1373 0.930 . S
H1386 C1374 0.956 . S
H1387 C1374 0.961 . S
H1388 C1374 0.961 . S
H1389 C1375 0.958 . S
H1390 C1375 0.961 . S
H1391 C1375 0.960 . S
C369 C7 1.648 . S
C377 C122 1.663 . S
C401 C99 1.662 . S
C409 C30 1.669 . S
C433 C53 1.679 . S
C441 C168 1.674 . S
C465 C145 1.657 . S
C473 C76 1.667 . S
C497 C306 1.660 . S
C505 C191 1.668 . S
C529 C283 1.668 . S
C537 C214 1.670 . S
C561 C352 1.678 . S
C569 C237 1.674 . S
C593 C260 1.648 . S
C601 C329 1.663 . S
C625 N25 1.482 . S
C633 N2 1.447 . S
C657 N48 1.471 . S
C665 N71 1.463 . S
C689 N94 1.451 . S
C697 N117 1.444 . S
C721 N140 1.421 . S
C729 N163 1.459 . S
C753 N186 1.451 . S
C761 N209 1.468 . S
C785 N255 1.463 . S
C793 N232 1.466 . S
C817 N301 1.479 . S
C825 N278 1.454 . S
C849 N324 1.419 . S
C857 N347 1.462 . S
C881 N219 1.441 . S
C889 N12 1.466 . S
C913 N35 1.441 . S
C921 N196 1.466 . S
C945 N265 1.463 . S
C953 N58 1.476 . S
C977 N81 1.491 . S
C985 N242 1.474 . S
C1009 N104 1.490 . S
C1017 N311 1.479 . S
C1041 N288 1.490 . S
C1049 N127 1.479 . S
C1073 N150 1.489 . S
C1081 N357 1.479 . S
C1105 N334 1.439 . S
C1113 N173 1.457 . S
C1137 C16 1.659 . S
C1145 C62 1.650 . S
C1169 C85 1.666 . S
C1177 C39 1.643 . S
C1201 C154 1.616 . S
C1209 C108 1.652 . S
C1233 C177 1.636 . S
C1241 C131 1.638 . S
C1265 C246 1.616 . S
C1273 C200 1.648 . S
C1297 C223 1.617 . S
C1305 C269 1.646 . S
C1329 C338 1.626 . S
C1337 C292 1.656 . S
C1361 C315 1.623 . S
C1369 C361 1.656 . S
