# Generated by pormake.
# Topology sne, (6)-cn, num edge types: 1
# Building blocks:
#     Node 0, Type 0, BuildingBlock: IZENUY_clean_sbu_0, # of connection points: 6
#     Node 1, Type 0, BuildingBlock: IZENUY_clean_sbu_0, # of connection points: 6
#     Node 2, Type 0, BuildingBlock: IZENUY_clean_sbu_0, # of connection points: 6
#     Node 3, Type 0, BuildingBlock: IZENUY_clean_sbu_0, # of connection points: 6
#     Node 4, Type 0, BuildingBlock: IZENUY_clean_sbu_0, # of connection points: 6
#     Node 5, Type 0, BuildingBlock: IZENUY_clean_sbu_0, # of connection points: 6
#     Node 6, Type 0, BuildingBlock: IZENUY_clean_sbu_0, # of connection points: 6
#     Node 7, Type 0, BuildingBlock: IZENUY_clean_sbu_0, # of connection points: 6
#     Edge 8, Type (0, 0), BuildingBlock: CIFDUS_clean_linker_0, # of connection points: 2
#     Edge 9, Type (0, 0), BuildingBlock: CIFDUS_clean_linker_0, # of connection points: 2
#     Edge 10, Type (0, 0), BuildingBlock: CIFDUS_clean_linker_0, # of connection points: 2
#     Edge 11, Type (0, 0), BuildingBlock: CIFDUS_clean_linker_0, # of connection points: 2
#     Edge 12, Type (0, 0), BuildingBlock: CIFDUS_clean_linker_0, # of connection points: 2
#     Edge 13, Type (0, 0), BuildingBlock: CIFDUS_clean_linker_0, # of connection points: 2
#     Edge 14, Type (0, 0), BuildingBlock: CIFDUS_clean_linker_0, # of connection points: 2
#     Edge 15, Type (0, 0), BuildingBlock: CIFDUS_clean_linker_0, # of connection points: 2
#     Edge 16, Type (0, 0), BuildingBlock: CIFDUS_clean_linker_0, # of connection points: 2
#     Edge 17, Type (0, 0), BuildingBlock: CIFDUS_clean_linker_0, # of connection points: 2
#     Edge 18, Type (0, 0), BuildingBlock: CIFDUS_clean_linker_0, # of connection points: 2
#     Edge 19, Type (0, 0), BuildingBlock: CIFDUS_clean_linker_0, # of connection points: 2
#     Edge 20, Type (0, 0), BuildingBlock: CIFDUS_clean_linker_0, # of connection points: 2
#     Edge 21, Type (0, 0), BuildingBlock: CIFDUS_clean_linker_0, # of connection points: 2
#     Edge 22, Type (0, 0), BuildingBlock: CIFDUS_clean_linker_0, # of connection points: 2
#     Edge 23, Type (0, 0), BuildingBlock: CIFDUS_clean_linker_0, # of connection points: 2
#     Edge 24, Type (0, 0), BuildingBlock: CIFDUS_clean_linker_0, # of connection points: 2
#     Edge 25, Type (0, 0), BuildingBlock: CIFDUS_clean_linker_0, # of connection points: 2
#     Edge 26, Type (0, 0), BuildingBlock: CIFDUS_clean_linker_0, # of connection points: 2
#     Edge 27, Type (0, 0), BuildingBlock: CIFDUS_clean_linker_0, # of connection points: 2
#     Edge 28, Type (0, 0), BuildingBlock: CIFDUS_clean_linker_0, # of connection points: 2
#     Edge 29, Type (0, 0), BuildingBlock: CIFDUS_clean_linker_0, # of connection points: 2
#     Edge 30, Type (0, 0), BuildingBlock: CIFDUS_clean_linker_0, # of connection points: 2
#     Edge 31, Type (0, 0), BuildingBlock: CIFDUS_clean_linker_0, # of connection points: 2
# Relax obj value: 0.265
# Max RMSD: 0.254
# Mean RMSD: 0.252
data_MOF--net-sne--node1-IZENUY_clean_sbu_0--edge1-CIFDUS_clean_linker_0
_symmetry_space_group_name_H-M    P1
_symmetry_Int_Tables_number       1
_symmetry_cell_setting            triclinic
loop_
_symmetry_equiv_pos_as_xyz
'x, y, z'
_cell_length_a     31.049773
_cell_length_b     31.052841
_cell_length_c     22.916864
_cell_angle_alpha  90.27292
_cell_angle_beta   90.004897
_cell_angle_gamma 90.03536
loop_
_atom_site_label
_atom_site_type_symbol
_atom_site_fract_x
_atom_site_fract_y
_atom_site_fract_z
_atom_type_partial_charge
Fe0 Fe 0.25468 0.19943 0.35863 0.0
Fe1 Fe 0.20207 0.11814 0.32901 0.0
O2 O 0.24833 0.14263 0.36025 0.0
Fe3 Fe 0.28818 0.10992 0.39305 0.0
O4 O 0.30439 0.14981 0.44897 0.0
O5 O 0.25878 0.20302 0.43648 0.0
O6 O 0.19645 0.21075 0.36813 0.0
C7 C 0.16643 0.18646 0.38652 0.0
C8 C 0.33765 0.16658 0.33155 0.0
O9 O 0.16769 0.14636 0.37883 0.0
C10 C 0.26294 0.06168 0.29294 0.0
O11 O 0.25104 0.20077 0.28064 0.0
O12 O 0.19445 0.15878 0.27153 0.0
O13 O 0.32795 0.12811 0.342 0.0
O14 O 0.31399 0.19749 0.34888 0.0
C15 C 0.21681 0.06882 0.43121 0.0
O16 O 0.23414 0.08779 0.27743 0.0
O17 O 0.27962 0.06408 0.34337 0.0
C18 C 0.21999 0.18672 0.25123 0.0
O19 O 0.20063 0.07302 0.3808 0.0
O20 O 0.2504 0.08898 0.44559 0.0
C21 C 0.28547 0.18332 0.46749 0.0
Fe22 Fe 0.20209 0.76178 0.62182 0.0
Fe23 Fe 0.1164 0.80569 0.65081 0.0
O24 O 0.14503 0.7615 0.62125 0.0
Fe25 Fe 0.11729 0.71675 0.59153 0.0
O26 O 0.15808 0.67718 0.61408 0.0
O27 O 0.20288 0.71484 0.66859 0.0
O28 O 0.20738 0.79501 0.68729 0.0
C29 C 0.18188 0.79938 0.72967 0.0
C30 C 0.18294 0.7244 0.51315 0.0
O31 O 0.14173 0.79853 0.7217 0.0
C32 C 0.06607 0.78801 0.55631 0.0
O33 O 0.20365 0.80893 0.57558 0.0
O34 O 0.15626 0.84572 0.62744 0.0
O35 O 0.14266 0.72477 0.52071 0.0
O36 O 0.20813 0.72868 0.55603 0.0
C37 C 0.06709 0.73342 0.68737 0.0
O38 O 0.08888 0.81561 0.58241 0.0
O39 O 0.07144 0.74814 0.56488 0.0
C40 C 0.18469 0.84385 0.58776 0.0
O41 O 0.07134 0.7734 0.67832 0.0
O42 O 0.08991 0.70625 0.66015 0.0
C43 C 0.18518 0.67948 0.65537 0.0
Fe44 Fe 0.75371 0.81293 0.38474 0.0
Fe45 Fe 0.70216 0.89436 0.41316 0.0
O46 O 0.74983 0.86999 0.38652 0.0
Fe47 Fe 0.79321 0.90161 0.36088 0.0
O48 O 0.7905 0.87579 0.28895 0.0
O49 O 0.79002 0.81001 0.32217 0.0
O50 O 0.70914 0.80974 0.33381 0.0
C51 C 0.67242 0.82552 0.34381 0.0
C52 C 0.83321 0.83444 0.42526 0.0
O53 O 0.66657 0.85145 0.38594 0.0
C54 C 0.76783 0.95061 0.45513 0.0
O55 O 0.71828 0.80394 0.4475 0.0
O56 O 0.70909 0.86852 0.48385 0.0
O57 O 0.8347 0.86421 0.38744 0.0
O58 O 0.79876 0.81392 0.43477 0.0
C59 C 0.71959 0.94696 0.31996 0.0
O60 O 0.72899 0.9415 0.44407 0.0
O61 O 0.79831 0.93069 0.43006 0.0
C62 C 0.71154 0.8283 0.49077 0.0
O63 O 0.69257 0.92257 0.34472 0.0
O64 O 0.75938 0.94421 0.33112 0.0
C65 C 0.79367 0.83574 0.28021 0.0
Fe66 Fe 0.90008 0.30613 0.58616 0.0
Fe67 Fe 0.89701 0.22399 0.66013 0.0
O68 O 0.8699 0.26437 0.61938 0.0
Fe69 Fe 0.81314 0.26306 0.61189 0.0
O70 O 0.81546 0.26317 0.53377 0.0
O71 O 0.86287 0.31486 0.52412 0.0
O72 O 0.92921 0.26805 0.54125 0.0
C73 C 0.9516 0.23808 0.56252 0.0
C74 C 0.83346 0.35123 0.63473 0.0
O75 O 0.94586 0.2255 0.61461 0.0
C76 C 0.81801 0.23456 0.72315 0.0
O77 O 0.94263 0.30632 0.64203 0.0
O78 O 0.91909 0.2632 0.71109 0.0
O79 O 0.80701 0.32261 0.61696 0.0
O80 O 0.87345 0.34598 0.62971 0.0
C81 C 0.84014 0.17585 0.59575 0.0
O82 O 0.8522 0.21362 0.71233 0.0
O83 O 0.80531 0.26316 0.68906 0.0
C84 C 0.94325 0.29355 0.69452 0.0
O85 O 0.87827 0.18291 0.61139 0.0
O86 O 0.81034 0.20316 0.60573 0.0
C87 C 0.83258 0.29201 0.50369 0.0
Fe88 Fe 0.2995 0.40111 0.82324 0.0
Fe89 Fe 0.26009 0.31553 0.86481 0.0
O90 O 0.25848 0.37261 0.86057 0.0
Fe91 Fe 0.21584 0.40193 0.89387 0.0
O92 O 0.21705 0.44622 0.84104 0.0
O93 O 0.261 0.42387 0.77235 0.0
O94 O 0.31037 0.35896 0.76855 0.0
C95 C 0.28923 0.32595 0.75338 0.0
C96 C 0.28354 0.45272 0.92334 0.0
O97 O 0.26219 0.30908 0.78689 0.0
C98 C 0.22921 0.33345 0.97322 0.0
O99 O 0.33983 0.38091 0.87209 0.0
O100 O 0.31967 0.31279 0.87266 0.0
O101 O 0.25272 0.43012 0.94195 0.0
O102 O 0.29718 0.44848 0.87149 0.0
C103 C 0.17143 0.3357 0.8426 0.0
O104 O 0.25818 0.31628 0.94304 0.0
O105 O 0.20613 0.36341 0.95321 0.0
C106 C 0.34644 0.34233 0.88593 0.0
O107 O 0.20072 0.30933 0.85809 0.0
O108 O 0.17675 0.37582 0.84772 0.0
C109 C 0.23085 0.4481 0.78913 0.0
Fe110 Fe 0.31424 0.75832 0.12052 0.0
Fe111 Fe 0.40125 0.79674 0.0846 0.0
O112 O 0.37108 0.75552 0.11856 0.0
Fe113 Fe 0.39828 0.71173 0.15089 0.0
O114 O 0.37252 0.67432 0.10201 0.0
O115 O 0.30659 0.6994 0.11317 0.0
O116 O 0.31073 0.76042 0.04263 0.0
C117 C 0.32759 0.78901 0.01168 0.0
C118 C 0.32814 0.72632 0.22863 0.0
O119 O 0.35991 0.81018 0.02963 0.0
C120 C 0.45011 0.77706 0.18517 0.0
O121 O 0.31262 0.81771 0.12835 0.0
O122 O 0.38107 0.83584 0.13535 0.0
O123 O 0.35772 0.70221 0.20877 0.0
O124 O 0.31317 0.75644 0.19862 0.0
C125 C 0.44757 0.72871 0.04786 0.0
O126 O 0.44813 0.79147 0.13357 0.0
O127 O 0.42547 0.74729 0.20161 0.0
C128 C 0.34201 0.84327 0.14559 0.0
O129 O 0.42355 0.75927 0.0324 0.0
O130 O 0.44402 0.71287 0.09879 0.0
C131 C 0.33241 0.67032 0.09555 0.0
Fe132 Fe 0.81027 0.61874 0.91727 0.0
Fe133 Fe 0.7602 0.70086 0.88503 0.0
O134 O 0.76524 0.64393 0.88429 0.0
Fe135 Fe 0.7249 0.61176 0.85071 0.0
O136 O 0.73209 0.56565 0.8999 0.0
O137 O 0.77647 0.58904 0.96751 0.0
O138 O 0.81756 0.65975 0.97555 0.0
C139 C 0.79319 0.68966 0.99403 0.0
C140 C 0.79552 0.56869 0.81392 0.0
O141 O 0.76298 0.70366 0.96318 0.0
C142 C 0.72926 0.68485 0.77616 0.0
O143 O 0.84677 0.64596 0.86921 0.0
O144 O 0.81872 0.7109 0.87642 0.0
O145 O 0.76267 0.58967 0.79865 0.0
O146 O 0.81165 0.57348 0.86457 0.0
C147 C 0.67652 0.66986 0.91161 0.0
O148 O 0.75709 0.70335 0.80696 0.0
O149 O 0.70957 0.65188 0.7948 0.0
C150 C 0.84908 0.68588 0.86075 0.0
O151 O 0.70074 0.70014 0.89386 0.0
O152 O 0.68536 0.63106 0.90155 0.0
C153 C 0.74817 0.56267 0.95059 0.0
Fe154 Fe 0.69895 0.25478 0.12094 0.0
Fe155 Fe 0.61165 0.29639 0.1484 0.0
O156 O 0.64191 0.25284 0.11996 0.0
Fe157 Fe 0.61487 0.2074 0.0904 0.0
O158 O 0.63887 0.17256 0.14365 0.0
O159 O 0.70536 0.19616 0.13381 0.0
O160 O 0.70058 0.26102 0.19853 0.0
C161 C 0.68317 0.29109 0.22645 0.0
C162 C 0.68779 0.21696 0.01551 0.0
O163 O 0.65159 0.31177 0.20527 0.0
C164 C 0.5633 0.27018 0.04784 0.0
O165 O 0.70212 0.31375 0.1083 0.0
O166 O 0.63434 0.33241 0.09577 0.0
O167 O 0.65711 0.19436 0.03551 0.0
O168 O 0.70209 0.24867 0.04336 0.0
C169 C 0.56318 0.23086 0.18898 0.0
O170 O 0.56615 0.2894 0.09685 0.0
O171 O 0.58853 0.23967 0.03538 0.0
C172 C 0.67381 0.33907 0.08781 0.0
O173 O 0.58666 0.26247 0.20232 0.0
O174 O 0.56799 0.21174 0.14018 0.0
C175 C 0.67867 0.16811 0.15197 0.0
H176 H 0.33112 0.00875 0.30255 0.0
H177 H 0.21563 0.02906 0.20165 0.0
H178 H 0.22866 0.96196 0.14799 0.0
H179 H 0.27255 0.89629 0.13154 0.0
H180 H 0.38909 0.87903 0.23137 0.0
H181 H 0.3756 0.94582 0.28424 0.0
C182 C 0.30882 0.99861 0.26869 0.0
C183 C 0.2724 0.02363 0.25636 0.0
C184 C 0.31648 0.96028 0.23822 0.0
C185 C 0.24406 0.01035 0.21187 0.0
C186 C 0.25132 0.97187 0.18144 0.0
C187 C 0.29468 0.90721 0.16513 0.0
C188 C 0.3316 0.88292 0.17781 0.0
C189 C 0.28724 0.94631 0.19466 0.0
C190 C 0.3605 0.89744 0.2208 0.0
C191 C 0.35288 0.93558 0.25103 0.0
H192 H 1.00187 0.78165 0.73311 0.0
H193 H 0.05045 0.65143 0.72421 0.0
H194 H 0.98808 0.62605 0.77905 0.0
H195 H 0.91883 0.64013 0.82546 0.0
H196 H 0.86866 0.76976 0.83286 0.0
H197 H 0.933 0.79609 0.78255 0.0
C198 C 0.9991 0.74774 0.74356 0.0
C199 C 0.03089 0.71846 0.72433 0.0
C200 C 0.96286 0.73325 0.77452 0.0
C201 C 0.02651 0.67465 0.73818 0.0
C202 C 0.99082 0.6601 0.76951 0.0
C203 C 0.92186 0.67427 0.8165 0.0
C204 C 0.88875 0.70293 0.83298 0.0
C205 C 0.95861 0.68903 0.78724 0.0
C206 C 0.89354 0.74697 0.82078 0.0
C207 C 0.93032 0.76202 0.79194 0.0
H208 H 0.76912 0.00967 0.27209 0.0
H209 H 0.63697 0.96751 0.28721 0.0
H210 H 0.61313 0.03191 0.23535 0.0
H211 H 0.62957 0.10129 0.18995 0.0
H212 H 0.76166 0.14402 0.17677 0.0
H213 H 0.78572 0.07795 0.22431 0.0
C214 C 0.73505 0.01422 0.26377 0.0
C215 C 0.70486 0.98368 0.28384 0.0
C216 C 0.72156 0.05154 0.23479 0.0
C217 C 0.66091 0.99038 0.27243 0.0
C218 C 0.64726 0.02728 0.24294 0.0
C219 C 0.66371 0.09625 0.19722 0.0
C220 C 0.69378 0.12781 0.17986 0.0
C221 C 0.67728 0.05831 0.22467 0.0
C222 C 0.73781 0.12046 0.18971 0.0
C223 C 0.75158 0.08264 0.21685 0.0
H224 H 0.10491 0.38405 0.80298 0.0
H225 H 0.1418 0.25216 0.83455 0.0
H226 H 0.0717 0.2276 0.79816 0.0
H227 H 1.00129 0.24369 0.75179 0.0
H228 H 0.96778 0.37552 0.71543 0.0
H229 H 0.03485 0.40016 0.76057 0.0
C230 C 0.09775 0.34986 0.80234 0.0
C231 C 0.12886 0.32002 0.82142 0.0
C232 C 0.05769 0.33604 0.78098 0.0
C233 C 0.11868 0.27588 0.81994 0.0
C234 C 0.07851 0.26183 0.79928 0.0
C235 C 0.00834 0.27783 0.75527 0.0
C236 C 0.97947 0.30794 0.73138 0.0
C237 C 0.04786 0.29161 0.77922 0.0
C238 C 0.98937 0.35197 0.7343 0.0
C239 C 0.02781 0.36597 0.75963 0.0
H240 H 0.37819 0.61101 0.03558 0.0
H241 H 0.24963 0.63886 0.09666 0.0
H242 H 0.22359 0.57163 0.0527 0.0
H243 H 0.23731 0.50602 0.99388 0.0
H244 H 0.36536 0.48174 0.92868 0.0
H245 H 0.39192 0.54634 0.97821 0.0
C246 C 0.34447 0.60235 0.03973 0.0
C247 C 0.31592 0.62985 0.06956 0.0
C248 C 0.32976 0.56419 0.01384 0.0
C249 C 0.27226 0.6183 0.0738 0.0
C250 C 0.2574 0.57983 0.04884 0.0
C251 C 0.27111 0.51466 0.99142 0.0
C252 C 0.29954 0.48921 0.95823 0.0
C253 C 0.28586 0.55261 0.01852 0.0
C254 C 0.34306 0.50098 0.95416 0.0
C255 C 0.35818 0.53788 0.98228 0.0
H256 H 0.61168 0.72541 0.88397 0.0
H257 H 0.65216 0.63223 0.01145 0.0
H258 H 0.58414 0.64045 0.06383 0.0
H259 H 0.51306 0.67363 0.07317 0.0
H260 H 0.47041 0.7644 0.94325 0.0
H261 H 0.53865 0.7569 0.89157 0.0
C262 C 0.60558 0.70745 0.92361 0.0
C263 C 0.63681 0.67876 0.94447 0.0
C264 C 0.56574 0.71128 0.95253 0.0
C265 C 0.62846 0.65476 0.99504 0.0
C266 C 0.58957 0.65925 0.02479 0.0
C267 C 0.51842 0.69145 0.03323 0.0
C268 C 0.48655 0.71959 0.01244 0.0
C269 C 0.55782 0.68716 0.00371 0.0
C270 C 0.49426 0.74241 0.96046 0.0
C271 C 0.53346 0.73841 0.93095 0.0
H272 H 0.73835 0.39698 0.111 0.0
H273 H 0.63445 0.36858 0.9919 0.0
H274 H 0.64749 0.43566 0.94015 0.0
H275 H 0.68696 0.50272 0.92951 0.0
H276 H 0.78964 0.53417 0.0493 0.0
H277 H 0.77802 0.46617 0.10062 0.0
C278 C 0.7191 0.40543 0.07326 0.0
C279 C 0.68574 0.3779 0.05489 0.0
C280 C 0.72603 0.44484 0.04443 0.0
C281 C 0.66036 0.38936 0.00665 0.0
C282 C 0.66766 0.42774 0.97718 0.0
C283 C 0.7068 0.49489 0.96696 0.0
C284 C 0.73916 0.52353 0.98534 0.0
C285 C 0.70008 0.45588 0.99599 0.0
C286 C 0.76433 0.51282 0.03425 0.0
C287 C 0.75791 0.47378 0.06343 0.0
H288 H 0.50947 0.33914 0.05002 0.0
H289 H 0.53118 0.21852 0.96067 0.0
H290 H 0.46516 0.22855 0.90427 0.0
H291 H 0.39985 0.2715 0.8811 0.0
H292 H 0.38145 0.39368 0.96797 0.0
H293 H 0.44687 0.3829 0.02452 0.0
C294 C 0.49991 0.31512 0.01802 0.0
C295 C 0.52531 0.27814 0.00987 0.0
C296 C 0.46206 0.32118 0.98541 0.0
C297 C 0.51246 0.24749 0.9678 0.0
C298 C 0.47448 0.25304 0.93567 0.0
C299 C 0.41017 0.29551 0.91265 0.0
C300 C 0.38573 0.33322 0.92042 0.0
C301 C 0.44874 0.28964 0.94437 0.0
C302 C 0.39977 0.36441 0.96096 0.0
C303 C 0.43722 0.35832 0.9934 0.0
H304 H 0.74655 0.51823 0.74252 0.0
H305 H 0.87628 0.53598 0.80587 0.0
H306 H 0.89924 0.47106 0.75385 0.0
H307 H 0.88197 0.40808 0.69512 0.0
H308 H 0.75177 0.38645 0.63556 0.0
H309 H 0.72924 0.45422 0.68197 0.0
C310 C 0.77998 0.5082 0.74409 0.0
C311 C 0.80987 0.53202 0.77753 0.0
C312 C 0.79264 0.47006 0.71549 0.0
C313 C 0.85283 0.51822 0.78029 0.0
C314 C 0.86589 0.48109 0.75073 0.0
C315 C 0.84862 0.41816 0.69165 0.0
C316 C 0.81861 0.39223 0.66148 0.0
C317 C 0.83596 0.45653 0.71894 0.0
C318 C 0.7755 0.40573 0.65844 0.0
C319 C 0.76268 0.44451 0.68487 0.0
H320 H 0.50412 0.16686 0.17482 0.0
H321 H 0.53417 0.27694 0.28324 0.0
H322 H 0.46617 0.26852 0.33511 0.0
H323 H 0.39678 0.2307 0.34856 0.0
H324 H 0.36901 0.11878 0.24295 0.0
H325 H 0.43691 0.1275 0.19084 0.0
C326 C 0.49601 0.18882 0.21009 0.0
C327 C 0.52425 0.22253 0.22473 0.0
C328 C 0.45683 0.18384 0.23991 0.0
C329 C 0.51316 0.25058 0.27087 0.0
C330 C 0.47408 0.246 0.30046 0.0
C331 C 0.40561 0.20856 0.31383 0.0
C332 C 0.37795 0.17441 0.29925 0.0
C333 C 0.44538 0.21305 0.28495 0.0
C334 C 0.38992 0.14537 0.25487 0.0
C335 C 0.42874 0.15024 0.22512 0.0
H336 H 0.1852 0.59732 0.61392 0.0
H337 H 0.21147 0.67347 0.76791 0.0
H338 H 0.22629 0.60804 0.82322 0.0
H339 H 0.23055 0.52942 0.82823 0.0
H340 H 0.21056 0.45286 0.67326 0.0
H341 H 0.19428 0.5183 0.61746 0.0
C342 C 0.19431 0.59948 0.65954 0.0
C343 C 0.19707 0.64002 0.68701 0.0
C344 C 0.20357 0.56178 0.69074 0.0
C345 C 0.20939 0.64258 0.74586 0.0
C346 C 0.21762 0.60523 0.77753 0.0
C347 C 0.2223 0.52715 0.78228 0.0
C348 C 0.2208 0.48665 0.75481 0.0
C349 C 0.21449 0.56473 0.75052 0.0
C350 C 0.2114 0.48388 0.69508 0.0
C351 C 0.20219 0.52118 0.66337 0.0
H352 H 0.58845 0.82403 0.37532 0.0
H353 H 0.67376 0.79939 0.23034 0.0
H354 H 0.61191 0.78433 0.16728 0.0
H355 H 0.53346 0.77928 0.15325 0.0
H356 H 0.44863 0.79825 0.29995 0.0
H357 H 0.51044 0.81494 0.36275 0.0
C358 C 0.59344 0.8152 0.32997 0.0
C359 C 0.63543 0.81291 0.30734 0.0
C360 C 0.55789 0.80603 0.29436 0.0
C361 C 0.64164 0.80102 0.24873 0.0
C362 C 0.60635 0.79271 0.21262 0.0
C363 C 0.5287 0.78747 0.1989 0.0
C364 C 0.48692 0.78839 0.22217 0.0
C365 C 0.56435 0.79546 0.23488 0.0
C366 C 0.48075 0.7978 0.28146 0.0
C367 C 0.51597 0.8072 0.3172 0.0
H368 H 0.76601 0.12703 0.59508 0.0
H369 H 0.89654 0.1304 0.53053 0.0
H370 H 0.88727 0.06007 0.48525 0.0
H371 H 0.84211 0.99762 0.46202 0.0
H372 H 0.71168 0.993 0.52665 0.0
H373 H 0.72118 0.06279 0.57413 0.0
C374 C 0.7922 0.11241 0.57076 0.0
C375 C 0.83179 0.13406 0.56624 0.0
C376 C 0.78696 0.07129 0.54518 0.0
C377 C 0.86568 0.11442 0.53503 0.0
C378 C 0.86052 0.07407 0.50907 0.0
C379 C 0.81598 0.01152 0.48721 0.0
C380 C 0.7763 0.98994 0.49054 0.0
C381 C 0.82139 0.05207 0.51395 0.0
C382 C 0.74266 0.00884 0.5231 0.0
C383 C 0.74793 0.04896 0.55015 0.0
H384 H 0.11203 0.14366 0.45641 0.0
H385 H 0.1342 0.26902 0.38163 0.0
H386 H 0.06769 0.29569 0.42712 0.0
H387 H 0.00334 0.28274 0.48852 0.0
H388 H 0.98468 0.15772 0.56601 0.0
H389 H 0.04971 0.13113 0.518 0.0
C390 C 0.10232 0.17684 0.44973 0.0
C391 C 0.12776 0.20428 0.41529 0.0
C392 C 0.0646 0.19178 0.47612 0.0
C393 C 0.11514 0.24733 0.40802 0.0
C394 C 0.07707 0.26246 0.43376 0.0
C395 C 0.01339 0.24958 0.49424 0.0
C396 C 0.98927 0.22199 0.53024 0.0
C397 C 0.05147 0.23486 0.46773 0.0
C398 C 0.00285 0.17938 0.5384 0.0
C399 C 0.03998 0.16424 0.51111 0.0
H400 H 0.13455 0.91253 0.56442 0.0
H401 H 0.26429 0.86464 0.54632 0.0
H402 H 0.28626 0.93218 0.5004 0.0
H403 H 0.26811 0.00413 0.46383 0.0
H404 H 0.13712 0.04928 0.47266 0.0
H405 H 0.11581 0.98359 0.52459 0.0
C406 C 0.16767 0.91707 0.55063 0.0
C407 C 0.19793 0.88401 0.55902 0.0
C408 C 0.17971 0.95544 0.52307 0.0
C409 C 0.24052 0.88974 0.54012 0.0
C410 C 0.25309 0.92832 0.51414 0.0
C411 C 0.23506 0.99967 0.47802 0.0
C412 C 0.20423 0.03142 0.46595 0.0
C413 C 0.22295 0.96132 0.5054 0.0
C414 C 0.16125 0.02519 0.48249 0.0
C415 C 0.14916 0.98771 0.51182 0.0
H416 H 0.99123 0.74469 0.54642 0.0
H417 H 0.05299 0.86401 0.49907 0.0
H418 H 0.98601 0.88896 0.45376 0.0
H419 H 0.90965 0.87707 0.42966 0.0
H420 H 0.84761 0.75902 0.48274 0.0
H421 H 0.9151 0.73351 0.52448 0.0
C422 C 0.99024 0.77594 0.52548 0.0
C423 C 0.02706 0.80229 0.52527 0.0
C424 C 0.95152 0.79044 0.50124 0.0
C425 C 0.02503 0.84311 0.49934 0.0
C426 C 0.98678 0.85738 0.47367 0.0
C427 C 0.91091 0.84574 0.45031 0.0
C428 C 0.87368 0.81991 0.4528 0.0
C429 C 0.94975 0.8314 0.47475 0.0
C430 C 0.87573 0.7796 0.48029 0.0
C431 C 0.91435 0.76488 0.50396 0.0
H432 H 0.2152 0.24961 0.99259 0.0
H433 H 0.22033 0.37323 0.07853 0.0
H434 H 0.21389 0.33806 0.17388 0.0
H435 H 0.21481 0.27155 0.23196 0.0
H436 H 0.20662 0.1481 0.146 0.0
H437 H 0.20555 0.18371 0.05057 0.0
C438 C 0.21429 0.26872 0.03234 0.0
C439 C 0.21885 0.31366 0.02936 0.0
C440 C 0.21017 0.24833 0.08639 0.0
C441 C 0.21696 0.33854 0.08042 0.0
C442 C 0.21349 0.31844 0.13464 0.0
C443 C 0.21204 0.25265 0.19218 0.0
C444 C 0.21127 0.20749 0.19523 0.0
C445 C 0.21125 0.27332 0.13807 0.0
C446 C 0.20716 0.18296 0.1441 0.0
C447 C 0.20687 0.20328 0.08982 0.0
H448 H 0.24299 0.78127 0.98864 0.0
H449 H 0.36312 0.82253 0.91248 0.0
H450 H 0.32687 0.8338 0.81867 0.0
H451 H 0.26263 0.82523 0.75717 0.0
H452 H 0.14269 0.78378 0.83407 0.0
H453 H 0.17733 0.77994 0.92974 0.0
C454 C 0.26124 0.79292 0.95154 0.0
C455 C 0.30578 0.80031 0.95683 0.0
C456 C 0.24025 0.79929 0.8983 0.0
C457 C 0.32886 0.81641 0.90908 0.0
C458 C 0.30817 0.82271 0.8556 0.0
C459 C 0.24391 0.81585 0.79502 0.0
C460 C 0.2003 0.80425 0.78859 0.0
C461 C 0.26412 0.81328 0.84951 0.0
C462 C 0.17627 0.79284 0.838 0.0
C463 C 0.19613 0.79034 0.89253 0.0
H464 H 0.82442 0.75659 0.25112 0.0
H465 H 0.77395 0.87331 0.17592 0.0
H466 H 0.77116 0.83842 0.08002 0.0
H467 H 0.77724 0.77314 0.01975 0.0
H468 H 0.82911 0.6567 0.0937 0.0
H469 H 0.83731 0.69321 0.1883 0.0
C470 C 0.81336 0.77462 0.21357 0.0
C471 C 0.79911 0.81748 0.22075 0.0
C472 C 0.81166 0.75426 0.1587 0.0
C473 C 0.78528 0.84046 0.1716 0.0
C474 C 0.78334 0.82038 0.11687 0.0
C475 C 0.7905 0.75574 0.05653 0.0
C476 C 0.80191 0.71201 0.05008 0.0
C477 C 0.79545 0.77703 0.11029 0.0
C478 C 0.81993 0.69023 0.0977 0.0
C479 C 0.8245 0.7111 0.15172 0.0
H480 H 0.83582 0.20169 0.83226 0.0
H481 H 0.73149 0.23961 0.71919 0.0
H482 H 0.67997 0.22975 0.79755 0.0
H483 H 0.6653 0.22041 0.90182 0.0
H484 H 0.76886 0.18623 0.01732 0.0
H485 H 0.81929 0.18355 0.93524 0.0
C486 C 0.80176 0.20703 0.82475 0.0
C487 C 0.7878 0.22231 0.77037 0.0
C488 C 0.77189 0.20196 0.87071 0.0
C489 C 0.74339 0.22887 0.76113 0.0
C490 C 0.71368 0.22306 0.80586 0.0
C491 C 0.69854 0.21079 0.90838 0.0
C492 C 0.71338 0.20295 0.96493 0.0
C493 C 0.72763 0.21099 0.86135 0.0
C494 C 0.75678 0.19174 0.97361 0.0
C495 C 0.7857 0.1907 0.92684 0.0
H496 H 0.69511 0.74448 0.51759 0.0
H497 H 0.7212 0.86843 0.59616 0.0
H498 H 0.7265 0.83478 0.69203 0.0
H499 H 0.72991 0.76968 0.75187 0.0
H500 H 0.70218 0.64571 0.67505 0.0
H501 H 0.69099 0.67991 0.57984 0.0
C502 C 0.70144 0.76423 0.5558 0.0
C503 C 0.70816 0.80892 0.5496 0.0
C504 C 0.70447 0.74463 0.61084 0.0
C505 C 0.71585 0.83406 0.59964 0.0
C506 C 0.71915 0.81478 0.65443 0.0
C507 C 0.72113 0.75015 0.71433 0.0
C508 C 0.7175 0.70515 0.72011 0.0
C509 C 0.71453 0.77003 0.66025 0.0
C510 C 0.70525 0.68035 0.67153 0.0
C511 C 0.69905 0.6999 0.61717 0.0
H512 H 0.74789 0.30272 0.48458 0.0
H513 H 0.87095 0.30408 0.39765 0.0
H514 H 0.83457 0.30912 0.30271 0.0
H515 H 0.76765 0.30404 0.24504 0.0
H516 H 0.64461 0.30461 0.33204 0.0
H517 H 0.68099 0.30876 0.42707 0.0
C518 C 0.76667 0.30481 0.44476 0.0
C519 C 0.81193 0.30241 0.44757 0.0
C520 C 0.74552 0.30795 0.39082 0.0
C521 C 0.83612 0.3058 0.39621 0.0
C522 C 0.8153 0.30846 0.34212 0.0
C523 C 0.74887 0.30607 0.2849 0.0
C524 C 0.70361 0.30374 0.282 0.0
C525 C 0.77004 0.30827 0.33894 0.0
C526 C 0.67943 0.30665 0.33348 0.0
C527 C 0.70027 0.30859 0.38764 0.0
H528 H 0.29188 0.24067 0.72984 0.0
H529 H 0.30422 0.3654 0.64965 0.0
H530 H 0.30813 0.33137 0.5531 0.0
H531 H 0.30074 0.26665 0.49165 0.0
H532 H 0.29183 0.1416 0.57148 0.0
H533 H 0.29462 0.17509 0.66867 0.0
C534 C 0.29588 0.26026 0.69115 0.0
C535 C 0.2971 0.30541 0.69635 0.0
C536 C 0.29871 0.24044 0.63615 0.0
C537 C 0.30311 0.3306 0.64638 0.0
C538 C 0.30518 0.31117 0.59133 0.0
C539 C 0.30021 0.24678 0.53047 0.0
C540 C 0.29571 0.2019 0.52495 0.0
C541 C 0.30199 0.26623 0.5857 0.0
C542 C 0.29547 0.17621 0.57507 0.0
C543 C 0.29669 0.19539 0.63043 0.0
H544 H 0.24407 0.73692 0.25268 0.0
H545 H 0.36348 0.69414 0.32899 0.0
H546 H 0.32767 0.68647 0.42396 0.0
H547 H 0.26387 0.69797 0.48604 0.0
H548 H 0.14438 0.73964 0.40824 0.0
H549 H 0.1788 0.7412 0.31232 0.0
C550 C 0.26223 0.72568 0.29008 0.0
C551 C 0.30648 0.71678 0.28438 0.0
C552 C 0.24144 0.72122 0.34393 0.0
C553 C 0.32944 0.70131 0.33261 0.0
C554 C 0.30901 0.69712 0.38677 0.0
C555 C 0.24522 0.70696 0.44798 0.0
C556 C 0.20172 0.71917 0.45428 0.0
C557 C 0.26525 0.70787 0.3931 0.0
C558 C 0.17783 0.73011 0.40453 0.0
C559 C 0.19757 0.73125 0.34979 0.0
loop_
_geom_bond_atom_site_label_1
_geom_bond_atom_site_label_2
_geom_bond_distance
_geom_bond_site_symmetry_2
_ccdc_geom_bond_type
Fe0 O2 1.918 . S
Fe0 O5 1.997 . S
Fe0 O6 2.002 . S
Fe0 O11 1.976 . S
Fe0 O14 1.996 . S
Fe1 O2 1.918 . S
Fe1 O9 1.997 . S
Fe1 O12 1.996 . S
Fe1 O16 1.976 . S
Fe1 O19 2.002 . S
O2 Fe0 1.918 . S
O2 Fe1 1.918 . S
O2 Fe3 1.918 . S
Fe3 O2 1.918 . S
Fe3 O4 2.002 . S
Fe3 O13 1.976 . S
Fe3 O17 1.996 . S
Fe3 O20 1.997 . S
O4 Fe3 2.002 . S
O4 C21 1.295 . S
O5 Fe0 1.997 . S
O5 C21 1.235 . S
O6 Fe0 2.002 . S
O6 C7 1.295 . S
C7 O6 1.295 . S
C7 O9 1.235 . S
C8 O13 1.287 . S
C8 O14 1.255 . S
O9 Fe1 1.997 . S
O9 C7 1.235 . S
C10 O16 1.287 . S
C10 O17 1.255 . S
O11 Fe0 1.976 . S
O11 C18 1.287 . S
O12 Fe1 1.996 . S
O12 C18 1.255 . S
O13 Fe3 1.976 . S
O13 C8 1.287 . S
O14 Fe0 1.996 . S
O14 C8 1.255 . S
C15 O19 1.295 . S
C15 O20 1.235 . S
O16 Fe1 1.976 . S
O16 C10 1.287 . S
O17 Fe3 1.996 . S
O17 C10 1.255 . S
C18 O11 1.287 . S
C18 O12 1.255 . S
O19 Fe1 2.002 . S
O19 C15 1.295 . S
O20 Fe3 1.997 . S
O20 C15 1.235 . S
C21 O4 1.295 . S
C21 O5 1.235 . S
Fe22 O24 1.918 . S
Fe22 O27 1.997 . S
Fe22 O28 2.002 . S
Fe22 O33 1.976 . S
Fe22 O36 1.996 . S
Fe23 O24 1.918 . S
Fe23 O31 1.997 . S
Fe23 O34 1.996 . S
Fe23 O38 1.976 . S
Fe23 O41 2.002 . S
O24 Fe22 1.918 . S
O24 Fe23 1.918 . S
O24 Fe25 1.918 . S
Fe25 O24 1.918 . S
Fe25 O26 2.002 . S
Fe25 O35 1.976 . S
Fe25 O39 1.996 . S
Fe25 O42 1.997 . S
O26 Fe25 2.002 . S
O26 C43 1.295 . S
O27 Fe22 1.997 . S
O27 C43 1.235 . S
O28 Fe22 2.002 . S
O28 C29 1.295 . S
C29 O28 1.295 . S
C29 O31 1.235 . S
C30 O35 1.287 . S
C30 O36 1.255 . S
O31 Fe23 1.997 . S
O31 C29 1.235 . S
C32 O38 1.287 . S
C32 O39 1.255 . S
O33 Fe22 1.976 . S
O33 C40 1.287 . S
O34 Fe23 1.996 . S
O34 C40 1.255 . S
O35 Fe25 1.976 . S
O35 C30 1.287 . S
O36 Fe22 1.996 . S
O36 C30 1.255 . S
C37 O41 1.295 . S
C37 O42 1.235 . S
O38 Fe23 1.976 . S
O38 C32 1.287 . S
O39 Fe25 1.996 . S
O39 C32 1.255 . S
C40 O33 1.287 . S
C40 O34 1.255 . S
O41 Fe23 2.002 . S
O41 C37 1.295 . S
O42 Fe25 1.997 . S
O42 C37 1.235 . S
C43 O26 1.295 . S
C43 O27 1.235 . S
Fe44 O46 1.918 . S
Fe44 O49 1.997 . S
Fe44 O50 2.002 . S
Fe44 O55 1.976 . S
Fe44 O58 1.996 . S
Fe45 O46 1.918 . S
Fe45 O53 1.997 . S
Fe45 O56 1.996 . S
Fe45 O60 1.976 . S
Fe45 O63 2.002 . S
O46 Fe44 1.918 . S
O46 Fe45 1.918 . S
O46 Fe47 1.918 . S
Fe47 O46 1.918 . S
Fe47 O48 2.002 . S
Fe47 O57 1.976 . S
Fe47 O61 1.996 . S
Fe47 O64 1.997 . S
O48 Fe47 2.002 . S
O48 C65 1.295 . S
O49 Fe44 1.997 . S
O49 C65 1.235 . S
O50 Fe44 2.002 . S
O50 C51 1.295 . S
C51 O50 1.295 . S
C51 O53 1.235 . S
C52 O57 1.287 . S
C52 O58 1.255 . S
O53 Fe45 1.997 . S
O53 C51 1.235 . S
C54 O60 1.287 . S
C54 O61 1.255 . S
O55 Fe44 1.976 . S
O55 C62 1.287 . S
O56 Fe45 1.996 . S
O56 C62 1.255 . S
O57 Fe47 1.976 . S
O57 C52 1.287 . S
O58 Fe44 1.996 . S
O58 C52 1.255 . S
C59 O63 1.295 . S
C59 O64 1.235 . S
O60 Fe45 1.976 . S
O60 C54 1.287 . S
O61 Fe47 1.996 . S
O61 C54 1.255 . S
C62 O55 1.287 . S
C62 O56 1.255 . S
O63 Fe45 2.002 . S
O63 C59 1.295 . S
O64 Fe47 1.997 . S
O64 C59 1.235 . S
C65 O48 1.295 . S
C65 O49 1.235 . S
Fe66 O68 1.918 . S
Fe66 O71 1.997 . S
Fe66 O72 2.002 . S
Fe66 O77 1.976 . S
Fe66 O80 1.996 . S
Fe67 O68 1.918 . S
Fe67 O75 1.997 . S
Fe67 O78 1.996 . S
Fe67 O82 1.976 . S
Fe67 O85 2.002 . S
O68 Fe66 1.918 . S
O68 Fe67 1.918 . S
O68 Fe69 1.918 . S
Fe69 O68 1.918 . S
Fe69 O70 2.002 . S
Fe69 O79 1.976 . S
Fe69 O83 1.996 . S
Fe69 O86 1.997 . S
O70 Fe69 2.002 . S
O70 C87 1.295 . S
O71 Fe66 1.997 . S
O71 C87 1.235 . S
O72 Fe66 2.002 . S
O72 C73 1.295 . S
C73 O72 1.295 . S
C73 O75 1.235 . S
C74 O79 1.287 . S
C74 O80 1.255 . S
O75 Fe67 1.997 . S
O75 C73 1.235 . S
C76 O82 1.287 . S
C76 O83 1.255 . S
O77 Fe66 1.976 . S
O77 C84 1.287 . S
O78 Fe67 1.996 . S
O78 C84 1.255 . S
O79 Fe69 1.976 . S
O79 C74 1.287 . S
O80 Fe66 1.996 . S
O80 C74 1.255 . S
C81 O85 1.295 . S
C81 O86 1.235 . S
O82 Fe67 1.976 . S
O82 C76 1.287 . S
O83 Fe69 1.996 . S
O83 C76 1.255 . S
C84 O77 1.287 . S
C84 O78 1.255 . S
O85 Fe67 2.002 . S
O85 C81 1.295 . S
O86 Fe69 1.997 . S
O86 C81 1.235 . S
C87 O70 1.295 . S
C87 O71 1.235 . S
Fe88 O90 1.918 . S
Fe88 O93 1.997 . S
Fe88 O94 2.002 . S
Fe88 O99 1.976 . S
Fe88 O102 1.996 . S
Fe89 O90 1.918 . S
Fe89 O97 1.997 . S
Fe89 O100 1.996 . S
Fe89 O104 1.976 . S
Fe89 O107 2.002 . S
O90 Fe88 1.918 . S
O90 Fe89 1.918 . S
O90 Fe91 1.918 . S
Fe91 O90 1.918 . S
Fe91 O92 2.002 . S
Fe91 O101 1.976 . S
Fe91 O105 1.996 . S
Fe91 O108 1.997 . S
O92 Fe91 2.002 . S
O92 C109 1.295 . S
O93 Fe88 1.997 . S
O93 C109 1.235 . S
O94 Fe88 2.002 . S
O94 C95 1.295 . S
C95 O94 1.295 . S
C95 O97 1.235 . S
C96 O101 1.287 . S
C96 O102 1.255 . S
O97 Fe89 1.997 . S
O97 C95 1.235 . S
C98 O104 1.299 . S
C98 O105 1.258 . S
O99 Fe88 1.976 . S
O99 C106 1.287 . S
O100 Fe89 1.996 . S
O100 C106 1.255 . S
O101 Fe91 1.976 . S
O101 C96 1.287 . S
O102 Fe88 1.996 . S
O102 C96 1.255 . S
C103 O107 1.295 . S
C103 O108 1.235 . S
O104 Fe89 1.976 . S
O104 C98 1.299 . S
O105 Fe91 1.996 . S
O105 C98 1.258 . S
C106 O99 1.287 . S
C106 O100 1.255 . S
O107 Fe89 2.002 . S
O107 C103 1.295 . S
O108 Fe91 1.997 . S
O108 C103 1.235 . S
C109 O92 1.295 . S
C109 O93 1.235 . S
Fe110 O112 1.918 . S
Fe110 O115 1.997 . S
Fe110 O116 2.002 . S
Fe110 O121 1.976 . S
Fe110 O124 1.996 . S
Fe111 O112 1.918 . S
Fe111 O119 1.997 . S
Fe111 O122 1.996 . S
Fe111 O126 1.976 . S
Fe111 O129 2.002 . S
O112 Fe110 1.918 . S
O112 Fe111 1.918 . S
O112 Fe113 1.918 . S
Fe113 O112 1.918 . S
Fe113 O114 2.002 . S
Fe113 O123 1.976 . S
Fe113 O127 1.996 . S
Fe113 O130 1.997 . S
O114 Fe113 2.002 . S
O114 C131 1.295 . S
O115 Fe110 1.997 . S
O115 C131 1.235 . S
O116 Fe110 2.002 . S
O116 C117 1.295 . S
C117 O116 1.295 . S
C117 O119 1.235 . S
C118 O123 1.287 . S
C118 O124 1.255 . S
O119 Fe111 1.997 . S
O119 C117 1.235 . S
C120 O126 1.287 . S
C120 O127 1.255 . S
O121 Fe110 1.976 . S
O121 C128 1.287 . S
O122 Fe111 1.996 . S
O122 C128 1.255 . S
O123 Fe113 1.976 . S
O123 C118 1.287 . S
O124 Fe110 1.996 . S
O124 C118 1.255 . S
C125 O129 1.295 . S
C125 O130 1.235 . S
O126 Fe111 1.976 . S
O126 C120 1.287 . S
O127 Fe113 1.996 . S
O127 C120 1.255 . S
C128 O121 1.287 . S
C128 O122 1.255 . S
O129 Fe111 2.002 . S
O129 C125 1.295 . S
O130 Fe113 1.997 . S
O130 C125 1.235 . S
C131 O114 1.295 . S
C131 O115 1.235 . S
Fe132 O134 1.918 . S
Fe132 O137 1.997 . S
Fe132 O138 2.002 . S
Fe132 O143 1.976 . S
Fe132 O146 1.996 . S
Fe133 O134 1.918 . S
Fe133 O141 1.997 . S
Fe133 O144 1.996 . S
Fe133 O148 1.976 . S
Fe133 O151 2.002 . S
O134 Fe132 1.918 . S
O134 Fe133 1.918 . S
O134 Fe135 1.918 . S
Fe135 O134 1.918 . S
Fe135 O136 2.002 . S
Fe135 O145 1.976 . S
Fe135 O149 1.996 . S
Fe135 O152 1.997 . S
O136 Fe135 2.002 . S
O136 C153 1.295 . S
O137 Fe132 1.997 . S
O137 C153 1.235 . S
O138 Fe132 2.002 . S
O138 C139 1.295 . S
C139 O138 1.295 . S
C139 O141 1.235 . S
C140 O145 1.287 . S
C140 O146 1.255 . S
O141 Fe133 1.997 . S
O141 C139 1.235 . S
C142 O148 1.287 . S
C142 O149 1.255 . S
O143 Fe132 1.976 . S
O143 C150 1.287 . S
O144 Fe133 1.996 . S
O144 C150 1.255 . S
O145 Fe135 1.976 . S
O145 C140 1.287 . S
O146 Fe132 1.996 . S
O146 C140 1.255 . S
C147 O151 1.295 . S
C147 O152 1.235 . S
O148 Fe133 1.976 . S
O148 C142 1.287 . S
O149 Fe135 1.996 . S
O149 C142 1.255 . S
C150 O143 1.287 . S
C150 O144 1.255 . S
O151 Fe133 2.002 . S
O151 C147 1.295 . S
O152 Fe135 1.997 . S
O152 C147 1.235 . S
C153 O136 1.295 . S
C153 O137 1.235 . S
Fe154 O156 1.918 . S
Fe154 O159 1.997 . S
Fe154 O160 2.002 . S
Fe154 O165 1.976 . S
Fe154 O168 1.996 . S
Fe155 O156 1.918 . S
Fe155 O163 1.997 . S
Fe155 O166 1.996 . S
Fe155 O170 1.976 . S
Fe155 O173 2.002 . S
O156 Fe154 1.918 . S
O156 Fe155 1.918 . S
O156 Fe157 1.918 . S
Fe157 O156 1.918 . S
Fe157 O158 2.002 . S
Fe157 O167 1.976 . S
Fe157 O171 1.996 . S
Fe157 O174 1.997 . S
O158 Fe157 2.002 . S
O158 C175 1.295 . S
O159 Fe154 1.997 . S
O159 C175 1.235 . S
O160 Fe154 2.002 . S
O160 C161 1.295 . S
C161 O160 1.295 . S
C161 O163 1.235 . S
C162 O167 1.287 . S
C162 O168 1.255 . S
O163 Fe155 1.997 . S
O163 C161 1.235 . S
C164 O170 1.287 . S
C164 O171 1.255 . S
O165 Fe154 1.976 . S
O165 C172 1.287 . S
O166 Fe155 1.996 . S
O166 C172 1.255 . S
O167 Fe157 1.976 . S
O167 C162 1.287 . S
O168 Fe154 1.996 . S
O168 C162 1.255 . S
C169 O173 1.295 . S
C169 O174 1.235 . S
O170 Fe155 1.976 . S
O170 C164 1.287 . S
O171 Fe157 1.996 . S
O171 C164 1.255 . S
C172 O165 1.287 . S
C172 O166 1.255 . S
O173 Fe155 2.002 . S
O173 C169 1.295 . S
O174 Fe157 1.997 . S
O174 C169 1.235 . S
C175 O158 1.295 . S
C175 O159 1.235 . S
H176 C182 0.930 . S
H177 C185 0.930 . S
H178 C186 0.930 . S
H179 C187 0.930 . S
H180 C190 0.930 . S
H181 C191 0.930 . S
C182 H176 0.930 . S
C182 C183 1.355 . S
C182 C184 1.415 1_545 S
C183 C182 1.355 . S
C183 C185 1.419 . S
C184 C182 1.415 1_565 S
C184 C189 1.425 . S
C184 C191 1.409 . S
C185 H177 0.930 . S
C185 C183 1.419 . S
C185 C186 1.362 1_545 S
C186 H178 0.930 . S
C186 C185 1.362 1_565 S
C186 C189 1.409 . S
C187 H179 0.930 . S
C187 C188 1.355 . S
C187 C189 1.415 . S
C188 C187 1.355 . S
C188 C190 1.419 . S
C189 C184 1.425 . S
C189 C186 1.409 . S
C189 C187 1.415 . S
C190 H180 0.930 . S
C190 C188 1.419 . S
C190 C191 1.362 . S
C191 H181 0.930 . S
C191 C184 1.409 . S
C191 C190 1.362 . S
H192 C198 0.930 . S
H193 C201 0.930 . S
H194 C202 0.930 . S
H195 C203 0.930 . S
H196 C206 0.930 . S
H197 C207 0.930 . S
C198 H192 0.930 . S
C198 C199 1.355 . S
C198 C200 1.415 1_455 S
C199 C198 1.355 . S
C199 C201 1.419 . S
C200 C198 1.415 1_655 S
C200 C205 1.425 . S
C200 C207 1.409 . S
C201 H193 0.930 . S
C201 C199 1.419 . S
C201 C202 1.362 1_455 S
C202 H194 0.930 . S
C202 C201 1.362 1_655 S
C202 C205 1.409 . S
C203 H195 0.930 . S
C203 C204 1.355 . S
C203 C205 1.415 . S
C204 C203 1.355 . S
C204 C206 1.419 . S
C205 C200 1.425 . S
C205 C202 1.409 . S
C205 C203 1.415 . S
C206 H196 0.930 . S
C206 C204 1.419 . S
C206 C207 1.362 . S
C207 H197 0.930 . S
C207 C200 1.409 . S
C207 C206 1.362 . S
H208 C214 0.930 . S
H209 C217 0.930 . S
H210 C218 0.930 . S
H211 C219 0.930 . S
H212 C222 0.930 . S
H213 C223 0.930 . S
C214 H208 0.930 . S
C214 C215 1.355 1_545 S
C214 C216 1.415 . S
C215 C214 1.355 1_565 S
C215 C217 1.419 . S
C216 C214 1.415 . S
C216 C221 1.425 . S
C216 C223 1.409 . S
C217 H209 0.930 . S
C217 C215 1.419 . S
C217 C218 1.362 1_565 S
C218 H210 0.930 . S
C218 C217 1.362 1_545 S
C218 C221 1.409 . S
C219 H211 0.930 . S
C219 C220 1.355 . S
C219 C221 1.415 . S
C220 C219 1.355 . S
C220 C222 1.419 . S
C221 C216 1.425 . S
C221 C218 1.409 . S
C221 C219 1.415 . S
C222 H212 0.930 . S
C222 C220 1.419 . S
C222 C223 1.362 . S
C223 H213 0.930 . S
C223 C216 1.409 . S
C223 C222 1.362 . S
H224 C230 0.930 . S
H225 C233 0.930 . S
H226 C234 0.930 . S
H227 C235 0.930 1_655 S
H228 C238 0.930 . S
H229 C239 0.930 . S
C230 H224 0.930 . S
C230 C231 1.355 . S
C230 C232 1.415 . S
C231 C230 1.355 . S
C231 C233 1.419 . S
C232 C230 1.415 . S
C232 C237 1.425 . S
C232 C239 1.409 . S
C233 H225 0.930 . S
C233 C231 1.419 . S
C233 C234 1.362 . S
C234 H226 0.930 . S
C234 C233 1.362 . S
C234 C237 1.409 . S
C235 H227 0.930 1_455 S
C235 C236 1.355 1_455 S
C235 C237 1.415 . S
C236 C235 1.355 1_655 S
C236 C238 1.419 1_655 S
C237 C232 1.425 . S
C237 C234 1.409 . S
C237 C235 1.415 . S
C238 H228 0.930 . S
C238 C236 1.419 1_455 S
C238 C239 1.362 . S
C239 H229 0.930 . S
C239 C232 1.409 . S
C239 C238 1.362 . S
H240 C246 0.930 . S
H241 C249 0.930 . S
H242 C250 0.930 . S
H243 C251 0.930 . S
H244 C254 0.930 . S
H245 C255 0.930 . S
C246 H240 0.930 . S
C246 C247 1.355 . S
C246 C248 1.415 . S
C247 C246 1.355 . S
C247 C249 1.419 . S
C248 C246 1.415 . S
C248 C253 1.425 . S
C248 C255 1.409 1_554 S
C249 H241 0.930 . S
C249 C247 1.419 . S
C249 C250 1.362 . S
C250 H242 0.930 . S
C250 C249 1.362 . S
C250 C253 1.409 . S
C251 H243 0.930 . S
C251 C252 1.355 1_554 S
C251 C253 1.415 . S
C252 C251 1.355 1_556 S
C252 C254 1.419 . S
C253 C248 1.425 . S
C253 C250 1.409 . S
C253 C251 1.415 . S
C254 H244 0.930 . S
C254 C252 1.419 . S
C254 C255 1.362 . S
C255 H245 0.930 . S
C255 C248 1.409 1_556 S
C255 C254 1.362 . S
H256 C262 0.930 . S
H257 C265 0.930 . S
H258 C266 0.930 . S
H259 C267 0.930 . S
H260 C270 0.930 . S
H261 C271 0.930 . S
C262 H256 0.930 . S
C262 C263 1.355 . S
C262 C264 1.415 . S
C263 C262 1.355 . S
C263 C265 1.419 . S
C264 C262 1.415 . S
C264 C269 1.425 . S
C264 C271 1.409 . S
C265 H257 0.930 . S
C265 C263 1.419 . S
C265 C266 1.362 1_556 S
C266 H258 0.930 . S
C266 C265 1.362 1_554 S
C266 C269 1.409 1_554 S
C267 H259 0.930 . S
C267 C268 1.355 . S
C267 C269 1.415 1_554 S
C268 C267 1.355 . S
C268 C270 1.419 1_554 S
C269 C264 1.425 . S
C269 C266 1.409 1_556 S
C269 C267 1.415 1_556 S
C270 H260 0.930 . S
C270 C268 1.419 1_556 S
C270 C271 1.362 . S
C271 H261 0.930 . S
C271 C264 1.409 . S
C271 C270 1.362 . S
H272 C278 0.930 . S
H273 C281 0.930 . S
H274 C282 0.930 . S
H275 C283 0.930 . S
H276 C286 0.930 . S
H277 C287 0.930 . S
C278 H272 0.930 . S
C278 C279 1.355 . S
C278 C280 1.415 . S
C279 C278 1.355 . S
C279 C281 1.419 . S
C280 C278 1.415 . S
C280 C285 1.425 . S
C280 C287 1.409 . S
C281 H273 0.930 . S
C281 C279 1.419 . S
C281 C282 1.362 . S
C282 H274 0.930 . S
C282 C281 1.362 . S
C282 C285 1.409 . S
C283 H275 0.930 . S
C283 C284 1.355 . S
C283 C285 1.415 1_556 S
C284 C283 1.355 . S
C284 C286 1.419 1_556 S
C285 C280 1.425 . S
C285 C282 1.409 . S
C285 C283 1.415 1_554 S
C286 H276 0.930 . S
C286 C284 1.419 1_554 S
C286 C287 1.362 . S
C287 H277 0.930 . S
C287 C280 1.409 . S
C287 C286 1.362 . S
H288 C294 0.930 . S
H289 C297 0.930 . S
H290 C298 0.930 . S
H291 C299 0.930 . S
H292 C302 0.930 . S
H293 C303 0.930 . S
C294 H288 0.930 . S
C294 C295 1.355 1_556 S
C294 C296 1.415 . S
C295 C294 1.355 1_554 S
C295 C297 1.419 . S
C296 C294 1.415 . S
C296 C301 1.425 . S
C296 C303 1.409 . S
C297 H289 0.930 . S
C297 C295 1.419 . S
C297 C298 1.362 . S
C298 H290 0.930 . S
C298 C297 1.362 . S
C298 C301 1.409 1_554 S
C299 H291 0.930 . S
C299 C300 1.355 . S
C299 C301 1.415 . S
C300 C299 1.355 . S
C300 C302 1.419 . S
C301 C296 1.425 . S
C301 C298 1.409 1_556 S
C301 C299 1.415 . S
C302 H292 0.930 . S
C302 C300 1.419 . S
C302 C303 1.362 . S
C303 H293 0.930 . S
C303 C296 1.409 . S
C303 C302 1.362 . S
H304 C310 0.930 . S
H305 C313 0.930 . S
H306 C314 0.930 . S
H307 C315 0.930 . S
H308 C318 0.930 . S
H309 C319 0.930 . S
C310 H304 0.930 . S
C310 C311 1.355 . S
C310 C312 1.415 . S
C311 C310 1.355 . S
C311 C313 1.419 . S
C312 C310 1.415 . S
C312 C317 1.425 . S
C312 C319 1.409 . S
C313 H305 0.930 . S
C313 C311 1.419 . S
C313 C314 1.362 . S
C314 H306 0.930 . S
C314 C313 1.362 . S
C314 C317 1.409 . S
C315 H307 0.930 . S
C315 C316 1.355 . S
C315 C317 1.415 . S
C316 C315 1.355 . S
C316 C318 1.419 . S
C317 C312 1.425 . S
C317 C314 1.409 . S
C317 C315 1.415 . S
C318 H308 0.930 . S
C318 C316 1.419 . S
C318 C319 1.362 . S
C319 H309 0.930 . S
C319 C312 1.409 . S
C319 C318 1.362 . S
H320 C326 0.930 . S
H321 C329 0.930 . S
H322 C330 0.930 . S
H323 C331 0.930 . S
H324 C334 0.930 . S
H325 C335 0.930 . S
C326 H320 0.930 . S
C326 C327 1.355 . S
C326 C328 1.415 . S
C327 C326 1.355 . S
C327 C329 1.419 . S
C328 C326 1.415 . S
C328 C333 1.425 . S
C328 C335 1.409 . S
C329 H321 0.930 . S
C329 C327 1.419 . S
C329 C330 1.362 . S
C330 H322 0.930 . S
C330 C329 1.362 . S
C330 C333 1.409 . S
C331 H323 0.930 . S
C331 C332 1.355 . S
C331 C333 1.415 . S
C332 C331 1.355 . S
C332 C334 1.419 . S
C333 C328 1.425 . S
C333 C330 1.409 . S
C333 C331 1.415 . S
C334 H324 0.930 . S
C334 C332 1.419 . S
C334 C335 1.362 . S
C335 H325 0.930 . S
C335 C328 1.409 . S
C335 C334 1.362 . S
H336 C342 0.930 . S
H337 C345 0.930 . S
H338 C346 0.930 . S
H339 C347 0.930 . S
H340 C350 0.930 . S
H341 C351 0.930 . S
C342 H336 0.930 . S
C342 C343 1.355 . S
C342 C344 1.415 . S
C343 C342 1.355 . S
C343 C345 1.419 . S
C344 C342 1.415 . S
C344 C349 1.425 . S
C344 C351 1.409 . S
C345 H337 0.930 . S
C345 C343 1.419 . S
C345 C346 1.362 . S
C346 H338 0.930 . S
C346 C345 1.362 . S
C346 C349 1.409 . S
C347 H339 0.930 . S
C347 C348 1.355 . S
C347 C349 1.415 . S
C348 C347 1.355 . S
C348 C350 1.419 . S
C349 C344 1.425 . S
C349 C346 1.409 . S
C349 C347 1.415 . S
C350 H340 0.930 . S
C350 C348 1.419 . S
C350 C351 1.362 . S
C351 H341 0.930 . S
C351 C344 1.409 . S
C351 C350 1.362 . S
H352 C358 0.930 . S
H353 C361 0.930 . S
H354 C362 0.930 . S
H355 C363 0.930 . S
H356 C366 0.930 . S
H357 C367 0.930 . S
C358 H352 0.930 . S
C358 C359 1.355 . S
C358 C360 1.415 . S
C359 C358 1.355 . S
C359 C361 1.419 . S
C360 C358 1.415 . S
C360 C365 1.425 . S
C360 C367 1.409 . S
C361 H353 0.930 . S
C361 C359 1.419 . S
C361 C362 1.362 . S
C362 H354 0.930 . S
C362 C361 1.362 . S
C362 C365 1.409 . S
C363 H355 0.930 . S
C363 C364 1.355 . S
C363 C365 1.415 . S
C364 C363 1.355 . S
C364 C366 1.419 . S
C365 C360 1.425 . S
C365 C362 1.409 . S
C365 C363 1.415 . S
C366 H356 0.930 . S
C366 C364 1.419 . S
C366 C367 1.362 . S
C367 H357 0.930 . S
C367 C360 1.409 . S
C367 C366 1.362 . S
H368 C374 0.930 . S
H369 C377 0.930 . S
H370 C378 0.930 . S
H371 C379 0.930 . S
H372 C382 0.930 1_565 S
H373 C383 0.930 . S
C374 H368 0.930 . S
C374 C375 1.355 . S
C374 C376 1.415 . S
C375 C374 1.355 . S
C375 C377 1.419 . S
C376 C374 1.415 . S
C376 C381 1.425 . S
C376 C383 1.409 . S
C377 H369 0.930 . S
C377 C375 1.419 . S
C377 C378 1.362 . S
C378 H370 0.930 . S
C378 C377 1.362 . S
C378 C381 1.409 . S
C379 H371 0.930 . S
C379 C380 1.355 1_545 S
C379 C381 1.415 . S
C380 C379 1.355 1_565 S
C380 C382 1.419 1_565 S
C381 C376 1.425 . S
C381 C378 1.409 . S
C381 C379 1.415 . S
C382 H372 0.930 1_545 S
C382 C380 1.419 1_545 S
C382 C383 1.362 . S
C383 H373 0.930 . S
C383 C376 1.409 . S
C383 C382 1.362 . S
H384 C390 0.930 . S
H385 C393 0.930 . S
H386 C394 0.930 . S
H387 C395 0.930 . S
H388 C398 0.930 . S
H389 C399 0.930 . S
C390 H384 0.930 . S
C390 C391 1.355 . S
C390 C392 1.415 . S
C391 C390 1.355 . S
C391 C393 1.419 . S
C392 C390 1.415 . S
C392 C397 1.425 . S
C392 C399 1.409 . S
C393 H385 0.930 . S
C393 C391 1.419 . S
C393 C394 1.362 . S
C394 H386 0.930 . S
C394 C393 1.362 . S
C394 C397 1.409 . S
C395 H387 0.930 . S
C395 C396 1.355 1_455 S
C395 C397 1.415 . S
C396 C395 1.355 1_655 S
C396 C398 1.419 . S
C397 C392 1.425 . S
C397 C394 1.409 . S
C397 C395 1.415 . S
C398 H388 0.930 . S
C398 C396 1.419 . S
C398 C399 1.362 1_655 S
C399 H389 0.930 . S
C399 C392 1.409 . S
C399 C398 1.362 1_455 S
H400 C406 0.930 . S
H401 C409 0.930 . S
H402 C410 0.930 . S
H403 C411 0.930 1_545 S
H404 C414 0.930 . S
H405 C415 0.930 . S
C406 H400 0.930 . S
C406 C407 1.355 . S
C406 C408 1.415 . S
C407 C406 1.355 . S
C407 C409 1.419 . S
C408 C406 1.415 . S
C408 C413 1.425 . S
C408 C415 1.409 . S
C409 H401 0.930 . S
C409 C407 1.419 . S
C409 C410 1.362 . S
C410 H402 0.930 . S
C410 C409 1.362 . S
C410 C413 1.409 . S
C411 H403 0.930 1_565 S
C411 C412 1.355 1_565 S
C411 C413 1.415 . S
C412 C411 1.355 1_545 S
C412 C414 1.419 . S
C413 C408 1.425 . S
C413 C410 1.409 . S
C413 C411 1.415 . S
C414 H404 0.930 . S
C414 C412 1.419 . S
C414 C415 1.362 1_545 S
C415 H405 0.930 . S
C415 C408 1.409 . S
C415 C414 1.362 1_565 S
H416 C422 0.930 . S
H417 C425 0.930 . S
H418 C426 0.930 . S
H419 C427 0.930 . S
H420 C430 0.930 . S
H421 C431 0.930 . S
C422 H416 0.930 . S
C422 C423 1.355 1_655 S
C422 C424 1.415 . S
C423 C422 1.355 1_455 S
C423 C425 1.419 . S
C424 C422 1.415 . S
C424 C429 1.425 . S
C424 C431 1.409 . S
C425 H417 0.930 . S
C425 C423 1.419 . S
C425 C426 1.362 1_455 S
C426 H418 0.930 . S
C426 C425 1.362 1_655 S
C426 C429 1.409 . S
C427 H419 0.930 . S
C427 C428 1.355 . S
C427 C429 1.415 . S
C428 C427 1.355 . S
C428 C430 1.419 . S
C429 C424 1.425 . S
C429 C426 1.409 . S
C429 C427 1.415 . S
C430 H420 0.930 . S
C430 C428 1.419 . S
C430 C431 1.362 . S
C431 H421 0.930 . S
C431 C424 1.409 . S
C431 C430 1.362 . S
H432 C438 0.930 . S
H433 C441 0.930 . S
H434 C442 0.930 . S
H435 C443 0.930 . S
H436 C446 0.930 . S
H437 C447 0.930 . S
C438 H432 0.930 . S
C438 C439 1.355 . S
C438 C440 1.415 . S
C439 C438 1.355 . S
C439 C441 1.419 . S
C440 C438 1.415 . S
C440 C445 1.425 . S
C440 C447 1.409 . S
C441 H433 0.930 . S
C441 C439 1.419 . S
C441 C442 1.362 . S
C442 H434 0.930 . S
C442 C441 1.362 . S
C442 C445 1.409 . S
C443 H435 0.930 . S
C443 C444 1.355 . S
C443 C445 1.415 . S
C444 C443 1.355 . S
C444 C446 1.419 . S
C445 C440 1.425 . S
C445 C442 1.409 . S
C445 C443 1.415 . S
C446 H436 0.930 . S
C446 C444 1.419 . S
C446 C447 1.362 . S
C447 H437 0.930 . S
C447 C440 1.409 . S
C447 C446 1.362 . S
H448 C454 0.930 . S
H449 C457 0.930 . S
H450 C458 0.930 . S
H451 C459 0.930 . S
H452 C462 0.930 . S
H453 C463 0.930 . S
C454 H448 0.930 . S
C454 C455 1.355 . S
C454 C456 1.415 . S
C455 C454 1.355 . S
C455 C457 1.419 . S
C456 C454 1.415 . S
C456 C461 1.425 . S
C456 C463 1.409 . S
C457 H449 0.930 . S
C457 C455 1.419 . S
C457 C458 1.362 . S
C458 H450 0.930 . S
C458 C457 1.362 . S
C458 C461 1.409 . S
C459 H451 0.930 . S
C459 C460 1.355 . S
C459 C461 1.415 . S
C460 C459 1.355 . S
C460 C462 1.419 . S
C461 C456 1.425 . S
C461 C458 1.409 . S
C461 C459 1.415 . S
C462 H452 0.930 . S
C462 C460 1.419 . S
C462 C463 1.362 . S
C463 H453 0.930 . S
C463 C456 1.409 . S
C463 C462 1.362 . S
H464 C470 0.930 . S
H465 C473 0.930 . S
H466 C474 0.930 . S
H467 C475 0.930 . S
H468 C478 0.930 . S
H469 C479 0.930 . S
C470 H464 0.930 . S
C470 C471 1.355 . S
C470 C472 1.415 . S
C471 C470 1.355 . S
C471 C473 1.419 . S
C472 C470 1.415 . S
C472 C477 1.425 . S
C472 C479 1.409 . S
C473 H465 0.930 . S
C473 C471 1.419 . S
C473 C474 1.362 . S
C474 H466 0.930 . S
C474 C473 1.362 . S
C474 C477 1.409 . S
C475 H467 0.930 . S
C475 C476 1.355 . S
C475 C477 1.415 . S
C476 C475 1.355 . S
C476 C478 1.419 . S
C477 C472 1.425 . S
C477 C474 1.409 . S
C477 C475 1.415 . S
C478 H468 0.930 . S
C478 C476 1.419 . S
C478 C479 1.362 . S
C479 H469 0.930 . S
C479 C472 1.409 . S
C479 C478 1.362 . S
H480 C486 0.930 . S
H481 C489 0.930 . S
H482 C490 0.930 . S
H483 C491 0.930 . S
H484 C494 0.930 1_554 S
H485 C495 0.930 . S
C486 H480 0.930 . S
C486 C487 1.355 . S
C486 C488 1.415 . S
C487 C486 1.355 . S
C487 C489 1.419 . S
C488 C486 1.415 . S
C488 C493 1.425 . S
C488 C495 1.409 . S
C489 H481 0.930 . S
C489 C487 1.419 . S
C489 C490 1.362 . S
C490 H482 0.930 . S
C490 C489 1.362 . S
C490 C493 1.409 . S
C491 H483 0.930 . S
C491 C492 1.355 . S
C491 C493 1.415 . S
C492 C491 1.355 . S
C492 C494 1.419 . S
C493 C488 1.425 . S
C493 C490 1.409 . S
C493 C491 1.415 . S
C494 H484 0.930 1_556 S
C494 C492 1.419 . S
C494 C495 1.362 . S
C495 H485 0.930 . S
C495 C488 1.409 . S
C495 C494 1.362 . S
H496 C502 0.930 . S
H497 C505 0.930 . S
H498 C506 0.930 . S
H499 C507 0.930 . S
H500 C510 0.930 . S
H501 C511 0.930 . S
C502 H496 0.930 . S
C502 C503 1.355 . S
C502 C504 1.415 . S
C503 C502 1.355 . S
C503 C505 1.419 . S
C504 C502 1.415 . S
C504 C509 1.425 . S
C504 C511 1.409 . S
C505 H497 0.930 . S
C505 C503 1.419 . S
C505 C506 1.362 . S
C506 H498 0.930 . S
C506 C505 1.362 . S
C506 C509 1.409 . S
C507 H499 0.930 . S
C507 C508 1.355 . S
C507 C509 1.415 . S
C508 C507 1.355 . S
C508 C510 1.419 . S
C509 C504 1.425 . S
C509 C506 1.409 . S
C509 C507 1.415 . S
C510 H500 0.930 . S
C510 C508 1.419 . S
C510 C511 1.362 . S
C511 H501 0.930 . S
C511 C504 1.409 . S
C511 C510 1.362 . S
H512 C518 0.930 . S
H513 C521 0.930 . S
H514 C522 0.930 . S
H515 C523 0.930 . S
H516 C526 0.930 . S
H517 C527 0.930 . S
C518 H512 0.930 . S
C518 C519 1.355 . S
C518 C520 1.415 . S
C519 C518 1.355 . S
C519 C521 1.419 . S
C520 C518 1.415 . S
C520 C525 1.425 . S
C520 C527 1.409 . S
C521 H513 0.930 . S
C521 C519 1.419 . S
C521 C522 1.362 . S
C522 H514 0.930 . S
C522 C521 1.362 . S
C522 C525 1.409 . S
C523 H515 0.930 . S
C523 C524 1.355 . S
C523 C525 1.415 . S
C524 C523 1.355 . S
C524 C526 1.419 . S
C525 C520 1.425 . S
C525 C522 1.409 . S
C525 C523 1.415 . S
C526 H516 0.930 . S
C526 C524 1.419 . S
C526 C527 1.362 . S
C527 H517 0.930 . S
C527 C520 1.409 . S
C527 C526 1.362 . S
H528 C534 0.930 . S
H529 C537 0.930 . S
H530 C538 0.930 . S
H531 C539 0.930 . S
H532 C542 0.930 . S
H533 C543 0.930 . S
C534 H528 0.930 . S
C534 C535 1.355 . S
C534 C536 1.415 . S
C535 C534 1.355 . S
C535 C537 1.419 . S
C536 C534 1.415 . S
C536 C541 1.425 . S
C536 C543 1.409 . S
C537 H529 0.930 . S
C537 C535 1.419 . S
C537 C538 1.362 . S
C538 H530 0.930 . S
C538 C537 1.362 . S
C538 C541 1.409 . S
C539 H531 0.930 . S
C539 C540 1.355 . S
C539 C541 1.415 . S
C540 C539 1.355 . S
C540 C542 1.419 . S
C541 C536 1.425 . S
C541 C538 1.409 . S
C541 C539 1.415 . S
C542 H532 0.930 . S
C542 C540 1.419 . S
C542 C543 1.362 . S
C543 H533 0.930 . S
C543 C536 1.409 . S
C543 C542 1.362 . S
H544 C550 0.930 . S
H545 C553 0.930 . S
H546 C554 0.930 . S
H547 C555 0.930 . S
H548 C558 0.930 . S
H549 C559 0.930 . S
C550 H544 0.930 . S
C550 C551 1.355 . S
C550 C552 1.415 . S
C551 C550 1.355 . S
C551 C553 1.419 . S
C552 C550 1.415 . S
C552 C557 1.425 . S
C552 C559 1.409 . S
C553 H545 0.930 . S
C553 C551 1.419 . S
C553 C554 1.362 . S
C554 H546 0.930 . S
C554 C553 1.362 . S
C554 C557 1.409 . S
C555 H547 0.930 . S
C555 C556 1.355 . S
C555 C557 1.415 . S
C556 C555 1.355 . S
C556 C558 1.419 . S
C557 C552 1.425 . S
C557 C554 1.409 . S
C557 C555 1.415 . S
C558 H548 0.930 . S
C558 C556 1.419 . S
C558 C559 1.362 . S
C559 H549 0.930 . S
C559 C552 1.409 . S
C559 C558 1.362 . S
C183 C10 1.232 . S
C188 C128 1.209 . S
C199 C37 1.310 . S
C204 C150 1.322 . S
C215 C59 1.316 . S
C220 C175 1.340 . S
C231 C103 1.262 . S
C236 C84 1.239 . S
C247 C131 1.271 . S
C252 C96 1.265 . S
C263 C147 1.311 . S
C268 C125 1.306 . S
C279 C172 1.283 . S
C284 C153 1.274 . S
C295 C164 1.223 . S
C300 C106 1.250 . S
C311 C140 1.257 . S
C316 C74 1.218 . S
C327 C169 1.299 . S
C332 C8 1.278 . S
C343 C43 1.313 . S
C348 C109 1.272 . S
C359 C51 1.246 . S
C364 C120 1.257 . S
C375 C81 1.239 . S
C380 C54 1.234 . S
C391 C7 1.323 . S
C396 C73 1.327 . S
C407 C40 1.318 . S
C412 C15 1.325 . S
C423 C32 1.259 . S
C428 C52 1.238 . S
C439 C98 1.215 1_554 S
C444 C18 1.202 . S
C455 C117 1.308 1_556 S
C460 C29 1.305 . S
C471 C65 1.298 . S
C476 C139 1.294 1_554 S
C487 C76 1.181 . S
C492 C162 1.175 1_556 S
C503 C62 1.189 . S
C508 C142 1.214 . S
C519 C87 1.288 . S
C524 C161 1.279 . S
C535 C95 1.305 . S
C540 C21 1.303 . S
C551 C118 1.233 . S
C556 C30 1.200 . S
