# Generated by pormake.
# Topology wga, (5)-cn, num edge types: 1
# Building blocks:
#     Node 0, Type 0, BuildingBlock: XOMCOT_clean_sbu_0, # of connection points: 5
#     Node 1, Type 0, BuildingBlock: XOMCOT_clean_sbu_0, # of connection points: 5
#     Node 2, Type 0, BuildingBlock: XOMCOT_clean_sbu_0, # of connection points: 5
#     Node 3, Type 0, BuildingBlock: XOMCOT_clean_sbu_0, # of connection points: 5
#     Node 4, Type 0, BuildingBlock: XOMCOT_clean_sbu_0, # of connection points: 5
#     Node 5, Type 0, BuildingBlock: XOMCOT_clean_sbu_0, # of connection points: 5
#     Node 6, Type 0, BuildingBlock: XOMCOT_clean_sbu_0, # of connection points: 5
#     Node 7, Type 0, BuildingBlock: XOMCOT_clean_sbu_0, # of connection points: 5
#     Node 8, Type 0, BuildingBlock: XOMCOT_clean_sbu_0, # of connection points: 5
#     Node 9, Type 0, BuildingBlock: XOMCOT_clean_sbu_0, # of connection points: 5
#     Node 10, Type 0, BuildingBlock: XOMCOT_clean_sbu_0, # of connection points: 5
#     Node 11, Type 0, BuildingBlock: XOMCOT_clean_sbu_0, # of connection points: 5
#     Node 12, Type 0, BuildingBlock: XOMCOT_clean_sbu_0, # of connection points: 5
#     Node 13, Type 0, BuildingBlock: XOMCOT_clean_sbu_0, # of connection points: 5
#     Node 14, Type 0, BuildingBlock: XOMCOT_clean_sbu_0, # of connection points: 5
#     Node 15, Type 0, BuildingBlock: XOMCOT_clean_sbu_0, # of connection points: 5
#     Node 16, Type 0, BuildingBlock: XOMCOT_clean_sbu_0, # of connection points: 5
#     Node 17, Type 0, BuildingBlock: XOMCOT_clean_sbu_0, # of connection points: 5
#     Node 18, Type 0, BuildingBlock: XOMCOT_clean_sbu_0, # of connection points: 5
#     Node 19, Type 0, BuildingBlock: XOMCOT_clean_sbu_0, # of connection points: 5
#     Node 20, Type 0, BuildingBlock: XOMCOT_clean_sbu_0, # of connection points: 5
#     Node 21, Type 0, BuildingBlock: XOMCOT_clean_sbu_0, # of connection points: 5
#     Node 22, Type 0, BuildingBlock: XOMCOT_clean_sbu_0, # of connection points: 5
#     Node 23, Type 0, BuildingBlock: XOMCOT_clean_sbu_0, # of connection points: 5
#     Node 24, Type 0, BuildingBlock: XOMCOT_clean_sbu_0, # of connection points: 5
#     Node 25, Type 0, BuildingBlock: XOMCOT_clean_sbu_0, # of connection points: 5
#     Node 26, Type 0, BuildingBlock: XOMCOT_clean_sbu_0, # of connection points: 5
#     Node 27, Type 0, BuildingBlock: XOMCOT_clean_sbu_0, # of connection points: 5
#     Node 28, Type 0, BuildingBlock: XOMCOT_clean_sbu_0, # of connection points: 5
#     Node 29, Type 0, BuildingBlock: XOMCOT_clean_sbu_0, # of connection points: 5
#     Node 30, Type 0, BuildingBlock: XOMCOT_clean_sbu_0, # of connection points: 5
#     Node 31, Type 0, BuildingBlock: XOMCOT_clean_sbu_0, # of connection points: 5
#     Edge 32, Type (0, 0), BuildingBlock: EZIPEK_clean_linker_0, # of connection points: 2
#     Edge 33, Type (0, 0), BuildingBlock: EZIPEK_clean_linker_0, # of connection points: 2
#     Edge 34, Type (0, 0), BuildingBlock: EZIPEK_clean_linker_0, # of connection points: 2
#     Edge 35, Type (0, 0), BuildingBlock: EZIPEK_clean_linker_0, # of connection points: 2
#     Edge 36, Type (0, 0), BuildingBlock: EZIPEK_clean_linker_0, # of connection points: 2
#     Edge 37, Type (0, 0), BuildingBlock: EZIPEK_clean_linker_0, # of connection points: 2
#     Edge 38, Type (0, 0), BuildingBlock: EZIPEK_clean_linker_0, # of connection points: 2
#     Edge 39, Type (0, 0), BuildingBlock: EZIPEK_clean_linker_0, # of connection points: 2
#     Edge 40, Type (0, 0), BuildingBlock: EZIPEK_clean_linker_0, # of connection points: 2
#     Edge 41, Type (0, 0), BuildingBlock: EZIPEK_clean_linker_0, # of connection points: 2
#     Edge 42, Type (0, 0), BuildingBlock: EZIPEK_clean_linker_0, # of connection points: 2
#     Edge 43, Type (0, 0), BuildingBlock: EZIPEK_clean_linker_0, # of connection points: 2
#     Edge 44, Type (0, 0), BuildingBlock: EZIPEK_clean_linker_0, # of connection points: 2
#     Edge 45, Type (0, 0), BuildingBlock: EZIPEK_clean_linker_0, # of connection points: 2
#     Edge 46, Type (0, 0), BuildingBlock: EZIPEK_clean_linker_0, # of connection points: 2
#     Edge 47, Type (0, 0), BuildingBlock: EZIPEK_clean_linker_0, # of connection points: 2
#     Edge 48, Type (0, 0), BuildingBlock: EZIPEK_clean_linker_0, # of connection points: 2
#     Edge 49, Type (0, 0), BuildingBlock: EZIPEK_clean_linker_0, # of connection points: 2
#     Edge 50, Type (0, 0), BuildingBlock: EZIPEK_clean_linker_0, # of connection points: 2
#     Edge 51, Type (0, 0), BuildingBlock: EZIPEK_clean_linker_0, # of connection points: 2
#     Edge 52, Type (0, 0), BuildingBlock: EZIPEK_clean_linker_0, # of connection points: 2
#     Edge 53, Type (0, 0), BuildingBlock: EZIPEK_clean_linker_0, # of connection points: 2
#     Edge 54, Type (0, 0), BuildingBlock: EZIPEK_clean_linker_0, # of connection points: 2
#     Edge 55, Type (0, 0), BuildingBlock: EZIPEK_clean_linker_0, # of connection points: 2
#     Edge 56, Type (0, 0), BuildingBlock: EZIPEK_clean_linker_0, # of connection points: 2
#     Edge 57, Type (0, 0), BuildingBlock: EZIPEK_clean_linker_0, # of connection points: 2
#     Edge 58, Type (0, 0), BuildingBlock: EZIPEK_clean_linker_0, # of connection points: 2
#     Edge 59, Type (0, 0), BuildingBlock: EZIPEK_clean_linker_0, # of connection points: 2
#     Edge 60, Type (0, 0), BuildingBlock: EZIPEK_clean_linker_0, # of connection points: 2
#     Edge 61, Type (0, 0), BuildingBlock: EZIPEK_clean_linker_0, # of connection points: 2
#     Edge 62, Type (0, 0), BuildingBlock: EZIPEK_clean_linker_0, # of connection points: 2
#     Edge 63, Type (0, 0), BuildingBlock: EZIPEK_clean_linker_0, # of connection points: 2
#     Edge 64, Type (0, 0), BuildingBlock: EZIPEK_clean_linker_0, # of connection points: 2
#     Edge 65, Type (0, 0), BuildingBlock: EZIPEK_clean_linker_0, # of connection points: 2
#     Edge 66, Type (0, 0), BuildingBlock: EZIPEK_clean_linker_0, # of connection points: 2
#     Edge 67, Type (0, 0), BuildingBlock: EZIPEK_clean_linker_0, # of connection points: 2
#     Edge 68, Type (0, 0), BuildingBlock: EZIPEK_clean_linker_0, # of connection points: 2
#     Edge 69, Type (0, 0), BuildingBlock: EZIPEK_clean_linker_0, # of connection points: 2
#     Edge 70, Type (0, 0), BuildingBlock: EZIPEK_clean_linker_0, # of connection points: 2
#     Edge 71, Type (0, 0), BuildingBlock: EZIPEK_clean_linker_0, # of connection points: 2
#     Edge 72, Type (0, 0), BuildingBlock: EZIPEK_clean_linker_0, # of connection points: 2
#     Edge 73, Type (0, 0), BuildingBlock: EZIPEK_clean_linker_0, # of connection points: 2
#     Edge 74, Type (0, 0), BuildingBlock: EZIPEK_clean_linker_0, # of connection points: 2
#     Edge 75, Type (0, 0), BuildingBlock: EZIPEK_clean_linker_0, # of connection points: 2
#     Edge 76, Type (0, 0), BuildingBlock: EZIPEK_clean_linker_0, # of connection points: 2
#     Edge 77, Type (0, 0), BuildingBlock: EZIPEK_clean_linker_0, # of connection points: 2
#     Edge 78, Type (0, 0), BuildingBlock: EZIPEK_clean_linker_0, # of connection points: 2
#     Edge 79, Type (0, 0), BuildingBlock: EZIPEK_clean_linker_0, # of connection points: 2
#     Edge 80, Type (0, 0), BuildingBlock: EZIPEK_clean_linker_0, # of connection points: 2
#     Edge 81, Type (0, 0), BuildingBlock: EZIPEK_clean_linker_0, # of connection points: 2
#     Edge 82, Type (0, 0), BuildingBlock: EZIPEK_clean_linker_0, # of connection points: 2
#     Edge 83, Type (0, 0), BuildingBlock: EZIPEK_clean_linker_0, # of connection points: 2
#     Edge 84, Type (0, 0), BuildingBlock: EZIPEK_clean_linker_0, # of connection points: 2
#     Edge 85, Type (0, 0), BuildingBlock: EZIPEK_clean_linker_0, # of connection points: 2
#     Edge 86, Type (0, 0), BuildingBlock: EZIPEK_clean_linker_0, # of connection points: 2
#     Edge 87, Type (0, 0), BuildingBlock: EZIPEK_clean_linker_0, # of connection points: 2
#     Edge 88, Type (0, 0), BuildingBlock: EZIPEK_clean_linker_0, # of connection points: 2
#     Edge 89, Type (0, 0), BuildingBlock: EZIPEK_clean_linker_0, # of connection points: 2
#     Edge 90, Type (0, 0), BuildingBlock: EZIPEK_clean_linker_0, # of connection points: 2
#     Edge 91, Type (0, 0), BuildingBlock: EZIPEK_clean_linker_0, # of connection points: 2
#     Edge 92, Type (0, 0), BuildingBlock: EZIPEK_clean_linker_0, # of connection points: 2
#     Edge 93, Type (0, 0), BuildingBlock: EZIPEK_clean_linker_0, # of connection points: 2
#     Edge 94, Type (0, 0), BuildingBlock: EZIPEK_clean_linker_0, # of connection points: 2
#     Edge 95, Type (0, 0), BuildingBlock: EZIPEK_clean_linker_0, # of connection points: 2
#     Edge 96, Type (0, 0), BuildingBlock: EZIPEK_clean_linker_0, # of connection points: 2
#     Edge 97, Type (0, 0), BuildingBlock: EZIPEK_clean_linker_0, # of connection points: 2
#     Edge 98, Type (0, 0), BuildingBlock: EZIPEK_clean_linker_0, # of connection points: 2
#     Edge 99, Type (0, 0), BuildingBlock: EZIPEK_clean_linker_0, # of connection points: 2
#     Edge 100, Type (0, 0), BuildingBlock: EZIPEK_clean_linker_0, # of connection points: 2
#     Edge 101, Type (0, 0), BuildingBlock: EZIPEK_clean_linker_0, # of connection points: 2
#     Edge 102, Type (0, 0), BuildingBlock: EZIPEK_clean_linker_0, # of connection points: 2
#     Edge 103, Type (0, 0), BuildingBlock: EZIPEK_clean_linker_0, # of connection points: 2
#     Edge 104, Type (0, 0), BuildingBlock: EZIPEK_clean_linker_0, # of connection points: 2
#     Edge 105, Type (0, 0), BuildingBlock: EZIPEK_clean_linker_0, # of connection points: 2
#     Edge 106, Type (0, 0), BuildingBlock: EZIPEK_clean_linker_0, # of connection points: 2
#     Edge 107, Type (0, 0), BuildingBlock: EZIPEK_clean_linker_0, # of connection points: 2
#     Edge 108, Type (0, 0), BuildingBlock: EZIPEK_clean_linker_0, # of connection points: 2
#     Edge 109, Type (0, 0), BuildingBlock: EZIPEK_clean_linker_0, # of connection points: 2
#     Edge 110, Type (0, 0), BuildingBlock: EZIPEK_clean_linker_0, # of connection points: 2
#     Edge 111, Type (0, 0), BuildingBlock: EZIPEK_clean_linker_0, # of connection points: 2
# Relax obj value: 0.120
# Max RMSD: 0.127
# Mean RMSD: 0.127
data_MOF--net-wga--node1-XOMCOT_clean_sbu_0--edge1-EZIPEK_clean_linker_0
_symmetry_space_group_name_H-M    P1
_symmetry_Int_Tables_number       1
_symmetry_cell_setting            triclinic
loop_
_symmetry_equiv_pos_as_xyz
'x, y, z'
_cell_length_a     81.924632
_cell_length_b     81.953445
_cell_length_c     13.78495
_cell_angle_alpha  89.923001
_cell_angle_beta   90.023417
_cell_angle_gamma 90.027323
loop_
_atom_site_label
_atom_site_type_symbol
_atom_site_fract_x
_atom_site_fract_y
_atom_site_fract_z
_atom_type_partial_charge
Co0 Co 0.09052 0.56827 0.10699 0.0
C1 C 0.09093 0.56972 0.32422 0.0
C2 C 0.10466 0.54943 0.2692 0.0
C3 C 0.10551 0.54923 0.36923 0.0
N4 N 0.09549 0.56222 0.24076 0.0
N5 N 0.09693 0.56199 0.40364 0.0
H6 H 0.08333 0.58051 0.32697 0.0
H7 H 0.11042 0.54084 0.22056 0.0
C8 C 0.08145 0.53656 1.00878 0.0
O9 O 0.06957 0.54422 0.96383 0.0
N10 N 0.0858 0.57448 0.97158 0.0
C11 C 0.07404 0.5846 0.93788 0.0
C12 C 0.07456 0.58501 0.83812 0.0
C13 C 0.09369 0.56938 0.89033 0.0
N14 N 0.08678 0.57534 0.80801 0.0
C15 C 0.05973 0.58332 0.15425 0.0
C16 C 0.04185 0.55499 0.17558 0.0
C17 C 0.0337 0.56997 0.17655 0.0
C18 C 0.04289 0.58431 0.16982 0.0
C19 C 0.05871 0.55462 0.1605 0.0
N20 N 0.06726 0.56859 0.14144 0.0
H21 H 0.06657 0.59453 0.14792 0.0
H22 H 0.06469 0.54303 0.16367 0.0
H23 H 0.06549 0.59138 0.98086 0.0
H24 H 0.1041 0.56127 0.89147 0.0
O25 O 0.09601 0.59075 0.13623 0.0
O26 O 0.1135 0.57214 0.08326 0.0
O27 O 0.09044 0.54422 0.0695 0.0
C28 C 0.11086 0.58704 0.11131 0.0
H29 H 0.11187 0.54036 0.41355 0.0
H30 H 0.06634 0.59164 0.79087 0.0
H31 H 0.03519 0.54367 0.18474 0.0
H32 H 0.03702 0.59613 0.17348 0.0
Co33 Co 0.68009 0.84201 0.37139 0.0
C34 C 0.67873 0.84242 0.58842 0.0
C35 C 0.69987 0.85485 0.53318 0.0
C36 C 0.70027 0.85544 0.63325 0.0
N37 N 0.68643 0.84664 0.50491 0.0
N38 N 0.68698 0.84767 0.66778 0.0
H39 H 0.66746 0.83554 0.5912 0.0
H40 H 0.70881 0.86007 0.48444 0.0
C41 C 0.71079 0.83107 0.27194 0.0
O42 O 0.70207 0.81971 0.22899 0.0
N43 N 0.67363 0.83771 0.23573 0.0
C44 C 0.66127 0.82824 0.20293 0.0
C45 C 0.66097 0.82859 0.10307 0.0
C46 C 0.6803 0.84413 0.15364 0.0
N47 N 0.67296 0.83848 0.0721 0.0
C48 C 0.6645 0.81111 0.41082 0.0
C49 C 0.69275 0.79372 0.44624 0.0
C50 C 0.67798 0.78528 0.43741 0.0
C51 C 0.6636 0.79422 0.4243 0.0
C52 C 0.69301 0.81064 0.43285 0.0
N53 N 0.67924 0.81885 0.40544 0.0
H54 H 0.6533 0.81789 0.40308 0.0
H55 H 0.70439 0.81704 0.44318 0.0
H56 H 0.65258 0.82176 0.24678 0.0
H57 H 0.69046 0.85254 0.15326 0.0
O58 O 0.65782 0.84804 0.40184 0.0
O59 O 0.67681 0.86513 0.34837 0.0
O60 O 0.70405 0.84064 0.33345 0.0
C61 C 0.66186 0.86282 0.37718 0.0
H62 H 0.70959 0.86111 0.67749 0.0
H63 H 0.65256 0.82207 0.05646 0.0
H64 H 0.704 0.78726 0.46128 0.0
H65 H 0.65187 0.78815 0.42191 0.0
Co66 Co 0.40557 0.4279 0.6063 0.0
C67 C 0.40379 0.42499 0.82507 0.0
C68 C 0.39376 0.44743 0.77173 0.0
C69 C 0.39259 0.44739 0.87146 0.0
N70 N 0.40104 0.43352 0.74198 0.0
N71 N 0.39889 0.43331 0.90475 0.0
H72 H 0.40918 0.41301 0.82839 0.0
H73 H 0.38951 0.45705 0.72439 0.0
C74 C 0.41071 0.46138 0.50576 0.0
O75 O 0.41631 0.45496 0.42554 0.0
N76 N 0.40977 0.42192 0.47094 0.0
C77 C 0.42145 0.41145 0.44096 0.0
C78 C 0.42081 0.41008 0.34152 0.0
C79 C 0.40165 0.42616 0.38872 0.0
N80 N 0.40853 0.41948 0.30855 0.0
C81 C 0.43459 0.41349 0.68994 0.0
C82 C 0.45675 0.43487 0.60843 0.0
C83 C 0.46253 0.42228 0.66719 0.0
C84 C 0.45131 0.41138 0.70797 0.0
C85 C 0.44005 0.43642 0.5918 0.0
N86 N 0.42901 0.42621 0.63467 0.0
H87 H 0.42625 0.40442 0.71717 0.0
H88 H 0.43634 0.44531 0.54007 0.0
H89 H 0.43003 0.40528 0.48791 0.0
H90 H 0.39148 0.43459 0.38699 0.0
O91 O 0.39924 0.40549 0.63071 0.0
O92 O 0.38231 0.42516 0.58494 0.0
O93 O 0.40705 0.45249 0.57922 0.0
C94 C 0.38445 0.40995 0.60915 0.0
H95 H 0.38771 0.45705 0.9164 0.0
H96 H 0.42909 0.40316 0.29629 0.0
H97 H 0.46517 0.44313 0.57271 0.0
H98 H 0.45546 0.40114 0.75113 0.0
Co99 Co 0.81804 0.15611 0.86922 0.0
C100 C 0.81843 0.1574 0.08635 0.0
C101 C 0.79878 0.14271 0.03143 0.0
C102 C 0.79806 0.14264 0.13139 0.0
N103 N 0.81151 0.15198 1.00301 0.0
N104 N 0.81046 0.15177 0.1658 0.0
H105 H 0.82919 0.16506 0.08891 0.0
H106 H 0.79065 0.13629 0.98287 0.0
C107 C 0.78537 0.16559 0.78199 0.0
O108 O 0.79194 0.17895 0.74647 0.0
N109 N 0.82481 0.15988 0.73304 0.0
C110 C 0.84017 0.16321 0.70232 0.0
C111 C 0.84067 0.16327 0.60243 0.0
C112 C 0.81636 0.15745 0.64921 0.0
N113 N 0.82568 0.15972 0.56927 0.0
C114 C 0.83043 0.18916 0.87406 0.0
C115 C 0.80286 0.2031 0.95456 0.0
C116 C 0.81569 0.21321 0.92483 0.0
C117 C 0.82979 0.20607 0.88676 0.0
C118 C 0.80408 0.18622 0.94095 0.0
N119 N 0.8173 0.17954 0.89541 0.0
H120 H 0.84157 0.18389 0.84761 0.0
H121 H 0.79421 0.1785 0.96529 0.0
H122 H 0.8507 0.16463 0.74869 0.0
H123 H 0.80389 0.1535 0.64517 0.0
O124 O 0.84056 0.15165 0.90492 0.0
O125 O 0.8229 0.13311 0.85314 0.0
O126 O 0.79404 0.15549 0.83058 0.0
C127 C 0.8376 0.13649 0.88287 0.0
H128 H 0.78933 0.1361 0.17573 0.0
H129 H 0.85133 0.16519 0.55749 0.0
H130 H 0.79195 0.20824 0.98664 0.0
H131 H 0.84012 0.21353 0.86577 0.0
Co132 Co 0.08987 0.43228 0.9115 0.0
C133 C 0.08851 0.43192 0.69075 0.0
C134 C 0.10505 0.44962 0.74917 0.0
C135 C 0.10603 0.45023 0.6495 0.0
N136 N 0.09393 0.4383 0.77586 0.0
N137 N 0.09561 0.43915 0.6131 0.0
H138 H 0.08003 0.42196 0.68408 0.0
H139 H 0.11227 0.45677 0.79925 0.0
C140 C 0.08206 0.46788 0.90434 0.0
O141 O 0.07233 0.46451 0.83116 0.0
N142 N 0.08626 0.42644 0.04663 0.0
C143 C 0.07647 0.41429 0.07814 0.0
C144 C 0.07654 0.41412 0.17803 0.0
C145 C 0.09221 0.43351 0.12804 0.0
N146 N 0.08639 0.42618 0.20911 0.0
C147 C 0.05931 0.4197 0.83731 0.0
C148 C 0.0393 0.44037 0.9417 0.0
C149 C 0.03217 0.42888 0.88004 0.0
C150 C 0.04234 0.41826 0.82843 0.0
C151 C 0.05626 0.44122 0.94934 0.0
N152 N 0.06615 0.43166 0.89311 0.0
H153 H 0.0669 0.41067 0.80285 0.0
H154 H 0.06137 0.44931 1.00275 0.0
H155 H 0.06969 0.40613 0.03151 0.0
H156 H 0.10048 0.44382 0.12817 0.0
O157 O 0.09506 0.40969 0.88261 0.0
O158 O 0.11307 0.42843 0.92729 0.0
O159 O 0.08979 0.45632 0.94679 0.0
C160 C 0.11015 0.41343 0.90207 0.0
H161 H 0.11391 0.45805 0.60688 0.0
H162 H 0.06982 0.40585 0.22456 0.0
H163 H 0.0318 0.44829 0.98596 0.0
H164 H 0.03718 0.4087 0.78366 0.0
Co165 Co 0.81439 0.83994 0.15375 0.0
C166 C 0.8141 0.83821 0.93282 0.0
C167 C 0.79725 0.85558 0.99128 0.0
C168 C 0.79629 0.85623 0.89161 0.0
N169 N 0.80815 0.84405 0.01811 0.0
N170 N 0.80696 0.8454 0.85504 0.0
H171 H 0.82378 0.82941 0.92614 0.0
H172 H 0.79061 0.86326 0.04114 0.0
C173 C 0.77847 0.83308 0.14535 0.0
O174 O 0.781 0.82608 0.06101 0.0
N175 N 0.8206 0.8364 0.28858 0.0
C176 C 0.8336 0.8277 0.31903 0.0
C177 C 0.83377 0.82743 0.41904 0.0
C178 C 0.81304 0.84142 0.37074 0.0
N179 N 0.82088 0.83605 0.45129 0.0
C180 C 0.82697 0.8093 0.08054 0.0
C181 C 0.80615 0.78957 0.18626 0.0
C182 C 0.81768 0.78225 0.12566 0.0
C183 C 0.82836 0.79229 0.07315 0.0
C184 C 0.80531 0.80654 0.19213 0.0
N185 N 0.81501 0.81627 0.13571 0.0
H186 H 0.836 0.81681 0.04522 0.0
H187 H 0.7972 0.81177 0.24521 0.0
H188 H 0.8423 0.82182 0.2716 0.0
H189 H 0.80206 0.84875 0.37177 0.0
O190 O 0.83688 0.84528 0.12251 0.0
O191 O 0.81818 0.86317 0.16913 0.0
O192 O 0.79045 0.8392 0.19285 0.0
C193 C 0.83316 0.86034 0.14255 0.0
H194 H 0.78877 0.8644 0.84903 0.0
H195 H 0.84266 0.82141 0.46481 0.0
H196 H 0.79817 0.78218 0.2311 0.0
H197 H 0.83792 0.78701 0.02895 0.0
Co198 Co 0.40653 0.56584 0.42388 0.0
C199 C 0.40772 0.56634 0.20325 0.0
C200 C 0.39204 0.54775 0.26006 0.0
C201 C 0.39127 0.54721 0.16029 0.0
N202 N 0.40266 0.55947 0.28804 0.0
N203 N 0.40113 0.55888 0.12485 0.0
H204 H 0.41549 0.57687 0.19732 0.0
H205 H 0.38491 0.54035 0.30892 0.0
C206 C 0.41288 0.52976 0.42209 0.0
O207 O 0.42117 0.53189 0.34147 0.0
N208 N 0.40995 0.5722 0.55835 0.0
C209 C 0.41972 0.58442 0.58889 0.0
C210 C 0.41982 0.58465 0.68884 0.0
C211 C 0.4042 0.56512 0.64039 0.0
N212 N 0.41009 0.57254 0.72091 0.0
C213 C 0.4374 0.57748 0.34856 0.0
C214 C 0.45682 0.55723 0.45994 0.0
C215 C 0.46425 0.56802 0.39502 0.0
C216 C 0.4544 0.57839 0.33956 0.0
C217 C 0.43981 0.55665 0.46597 0.0
N218 N 0.43023 0.56605 0.40685 0.0
H219 H 0.4301 0.58654 0.31224 0.0
H220 H 0.43436 0.54905 0.52112 0.0
H221 H 0.42647 0.59251 0.54156 0.0
H222 H 0.39613 0.55466 0.64135 0.0
O223 O 0.40164 0.58833 0.39071 0.0
O224 O 0.38334 0.56998 0.43754 0.0
O225 O 0.40658 0.54202 0.46561 0.0
C226 C 0.38647 0.58483 0.40974 0.0
H227 H 0.38376 0.53915 0.11696 0.0
H228 H 0.42661 0.59294 0.7347 0.0
H229 H 0.46412 0.54953 0.5069 0.0
H230 H 0.45983 0.58743 0.29209 0.0
Co231 Co 0.68136 0.15519 0.67414 0.0
C232 C 0.6815 0.15657 0.45363 0.0
C233 C 0.69722 0.13814 0.51218 0.0
C234 C 0.69784 0.13726 0.41233 0.0
N235 N 0.68711 0.15034 0.53887 0.0
N236 N 0.68798 0.14885 0.37584 0.0
H237 H 0.67261 0.16616 0.44698 0.0
H238 H 0.70338 0.13007 0.56238 0.0
C239 C 0.71777 0.16023 0.66683 0.0
O240 O 0.71592 0.16756 0.58277 0.0
N241 N 0.67574 0.15968 0.80881 0.0
C242 C 0.66408 0.17006 0.83983 0.0
C243 C 0.66393 0.17009 0.93989 0.0
C244 C 0.68256 0.15353 0.8907 0.0
N245 N 0.67553 0.15974 0.97161 0.0
C246 C 0.66855 0.1853 0.59833 0.0
C247 C 0.69107 0.20582 0.68396 0.0
C248 C 0.67844 0.21256 0.62899 0.0
C249 C 0.66702 0.20217 0.58605 0.0
C250 C 0.69207 0.18892 0.69472 0.0
N251 N 0.68129 0.17874 0.64928 0.0
H252 H 0.65909 0.17756 0.56929 0.0
H253 H 0.70112 0.18423 0.74323 0.0
H254 H 0.65618 0.17709 0.79291 0.0
H255 H 0.69243 0.14476 0.89124 0.0
O256 O 0.65862 0.15053 0.64583 0.0
O257 O 0.6767 0.13218 0.69473 0.0
O258 O 0.70532 0.15481 0.71269 0.0
C259 C 0.6618 0.13547 0.66848 0.0
H260 H 0.70475 0.12859 0.36969 0.0
H261 H 0.65593 0.17717 0.98604 0.0
H262 H 0.69975 0.21361 0.72099 0.0
H263 H 0.6568 0.20708 0.54559 0.0
Co264 Co 0.90416 0.42924 0.93064 0.0
C265 C 0.90574 0.42904 0.7135 0.0
C266 C 0.89181 0.44919 0.76857 0.0
C267 C 0.89158 0.44983 0.66853 0.0
N268 N 0.90067 0.43617 0.79692 0.0
N269 N 0.90023 0.43712 0.63411 0.0
H270 H 0.91294 0.41797 0.71083 0.0
H271 H 0.88567 0.4575 0.81729 0.0
C272 C 0.91511 0.46005 0.03037 0.0
O273 O 0.92665 0.45147 0.07265 0.0
N274 N 0.90725 0.42219 0.06674 0.0
C275 C 0.91315 0.40769 0.09805 0.0
C276 C 0.91297 0.40723 0.19798 0.0
C277 C 0.90269 0.42993 0.14983 0.0
N278 N 0.90649 0.42124 0.23043 0.0
C279 C 0.93558 0.4138 0.90766 0.0
C280 C 0.95275 0.44178 0.86177 0.0
C281 C 0.96132 0.42722 0.87664 0.0
C282 C 0.9525 0.41296 0.89579 0.0
C283 C 0.93578 0.44199 0.87325 0.0
N284 N 0.92759 0.42841 0.9043 0.0
H285 H 0.92894 0.40262 0.91827 0.0
H286 H 0.92928 0.45317 0.8584 0.0
H287 H 0.91674 0.39766 0.05256 0.0
H288 H 0.89667 0.44164 0.15202 0.0
O289 O 0.89836 0.40709 0.89506 0.0
O290 O 0.88085 0.42585 0.94563 0.0
O291 O 0.90532 0.45312 0.97078 0.0
C292 C 0.88336 0.411 0.91552 0.0
H293 H 0.88519 0.45868 0.62422 0.0
H294 H 0.91702 0.39725 0.24351 0.0
H295 H 0.95913 0.45291 0.84273 0.0
H296 H 0.95868 0.40134 0.90311 0.0
Co297 Co 0.31736 0.15548 0.68167 0.0
C298 C 0.31782 0.15688 0.46453 0.0
C299 C 0.29806 0.14234 0.51966 0.0
C300 C 0.2976 0.14189 0.41966 0.0
N301 N 0.3107 0.15174 0.54792 0.0
N302 N 0.31001 0.15099 0.38527 0.0
H303 H 0.32864 0.16446 0.46182 0.0
H304 H 0.28992 0.13597 0.56849 0.0
C305 C 0.28627 0.16641 0.77813 0.0
O306 O 0.2947 0.17812 0.81977 0.0
N307 N 0.32424 0.15869 0.81786 0.0
C308 C 0.33912 0.16364 0.84879 0.0
C309 C 0.33969 0.1633 0.94862 0.0
C310 C 0.31631 0.15451 0.90114 0.0
N311 N 0.32532 0.15767 0.98141 0.0
C312 C 0.33244 0.1872 0.6622 0.0
C313 C 0.30455 0.20375 0.60727 0.0
C314 C 0.31883 0.21263 0.62529 0.0
C315 C 0.33306 0.2041 0.64931 0.0
C316 C 0.30454 0.1868 0.61989 0.0
N317 N 0.31803 0.1789 0.6547 0.0
H318 H 0.34362 0.18082 0.67688 0.0
H319 H 0.29357 0.18007 0.60309 0.0
H320 H 0.34937 0.16652 0.80294 0.0
H321 H 0.30435 0.14901 0.90375 0.0
O322 O 0.3396 0.14987 0.64781 0.0
O323 O 0.32086 0.13226 0.69756 0.0
O324 O 0.29339 0.15648 0.72028 0.0
C325 C 0.33582 0.13488 0.66934 0.0
H326 H 0.28902 0.13514 0.37539 0.0
H327 H 0.34999 0.16656 0.99382 0.0
H328 H 0.29346 0.20989 0.58487 0.0
H329 H 0.3445 0.21051 0.65955 0.0
Co330 Co 0.59266 0.56658 0.43219 0.0
C331 C 0.59093 0.56631 0.21166 0.0
C332 C 0.60998 0.55133 0.26989 0.0
C333 C 0.61084 0.55071 0.17012 0.0
N334 N 0.59742 0.56096 0.29676 0.0
N335 N 0.59886 0.5601 0.13382 0.0
H336 H 0.58102 0.57486 0.20514 0.0
H337 H 0.61837 0.54559 0.31998 0.0
C338 C 0.58819 0.53021 0.42323 0.0
O339 O 0.58033 0.5323 0.34108 0.0
N340 N 0.58829 0.57213 0.56692 0.0
C341 C 0.57789 0.58377 0.59788 0.0
C342 C 0.57782 0.58391 0.69786 0.0
C343 C 0.59443 0.5653 0.64875 0.0
N344 N 0.58818 0.57231 0.72957 0.0
C345 C 0.56191 0.57845 0.35816 0.0
C346 C 0.54232 0.55569 0.44957 0.0
C347 C 0.535 0.56786 0.39362 0.0
C348 C 0.54493 0.57943 0.34791 0.0
C349 C 0.5593 0.55523 0.45827 0.0
N350 N 0.56903 0.56607 0.40969 0.0
H351 H 0.5693 0.58804 0.32732 0.0
H352 H 0.56445 0.54656 0.50779 0.0
H353 H 0.57085 0.59166 0.5509 0.0
H354 H 0.6032 0.55543 0.64932 0.0
O355 O 0.59693 0.58946 0.40354 0.0
O356 O 0.61563 0.57167 0.45107 0.0
O357 O 0.59364 0.54257 0.46984 0.0
C358 C 0.61212 0.58651 0.42498 0.0
H359 H 0.61979 0.54419 0.12739 0.0
H360 H 0.57073 0.59189 0.74399 0.0
H361 H 0.53494 0.54693 0.4889 0.0
H362 H 0.53958 0.58935 0.30679 0.0
Co363 Co 0.17788 0.84048 0.17165 0.0
C364 C 0.17473 0.84239 0.95304 0.0
C365 C 0.19726 0.8524 1.00493 0.0
C366 C 0.19705 0.85361 0.90524 0.0
N367 N 0.18341 0.84507 0.03563 0.0
N368 N 0.18291 0.84732 0.87283 0.0
H369 H 0.1627 0.83706 0.95051 0.0
H370 H 0.20699 0.85668 0.0514 0.0
C371 C 0.2116 0.83804 0.27323 0.0
O372 O 0.20559 0.83292 0.35572 0.0
N373 N 0.17189 0.83619 0.30711 0.0
C374 C 0.16201 0.82398 0.33709 0.0
C375 C 0.16044 0.82462 0.43641 0.0
C376 C 0.17548 0.84463 0.38919 0.0
N377 N 0.16908 0.83744 0.46936 0.0
C378 C 0.16604 0.81049 0.08724 0.0
C379 C 0.1879 0.78992 0.17847 0.0
C380 C 0.17627 0.78327 0.11613 0.0
C381 C 0.16512 0.79367 0.07061 0.0
C382 C 0.18827 0.80673 0.19365 0.0
N383 N 0.17786 0.81697 0.14577 0.0
H384 H 0.15674 0.81817 0.05629 0.0
H385 H 0.19644 0.8112 0.24776 0.0
H386 H 0.15644 0.81501 0.29018 0.0
H387 H 0.18331 0.85528 0.39092 0.0
O388 O 0.15521 0.84507 0.14509 0.0
O389 O 0.17355 0.86348 0.19064 0.0
O390 O 0.20245 0.84057 0.19942 0.0
C391 C 0.15859 0.8602 0.16503 0.0
H392 H 0.20665 0.8585 0.85969 0.0
H393 H 0.15399 0.81595 0.48165 0.0
H394 H 0.19629 0.78211 0.21774 0.0
H395 H 0.15558 0.78879 0.02459 0.0
Co396 Co 0.90546 0.56384 0.14053 0.0
C397 C 0.9065 0.56431 0.36131 0.0
C398 C 0.8896 0.54691 0.30338 0.0
C399 C 0.88874 0.54627 0.40312 0.0
N400 N 0.90095 0.558 0.27627 0.0
N401 N 0.89936 0.5572 0.4392 0.0
H402 H 0.91521 0.57407 0.36783 0.0
H403 H 0.88219 0.53993 0.25368 0.0
C404 C 0.91248 0.52796 0.15296 0.0
O405 O 0.91927 0.53072 0.23774 0.0
N406 N 0.90947 0.56963 1.00565 0.0
C407 C 0.91942 0.58165 0.97433 0.0
C408 C 0.91945 0.58178 0.87437 0.0
C409 C 0.90351 0.5626 0.92409 0.0
N410 N 0.90947 0.56984 0.84308 0.0
C411 C 0.93566 0.5769 0.21667 0.0
C412 C 0.95606 0.55602 0.1165 0.0
C413 C 0.96295 0.56785 0.17683 0.0
C414 C 0.9526 0.57852 0.22663 0.0
C415 C 0.93912 0.55488 0.10852 0.0
N416 N 0.92905 0.56465 0.1621 0.0
H417 H 0.92793 0.58601 0.24922 0.0
H418 H 0.93417 0.54653 0.05568 0.0
H419 H 0.92622 0.58978 0.02107 0.0
H420 H 0.89511 0.5524 0.92387 0.0
O421 O 0.89998 0.58639 0.16842 0.0
O422 O 0.88224 0.56754 0.12158 0.0
O423 O 0.90642 0.5398 0.1039 0.0
C424 C 0.88499 0.58259 0.14701 0.0
H425 H 0.88075 0.53861 0.44599 0.0
H426 H 0.92626 0.58999 0.82797 0.0
H427 H 0.96373 0.54805 0.07359 0.0
H428 H 0.95759 0.58831 0.27033 0.0
Co429 Co 0.18232 0.15749 0.8923 0.0
C430 C 0.1827 0.15924 0.11327 0.0
C431 C 0.19941 0.14178 0.0545 0.0
C432 C 0.20045 0.14115 0.15414 0.0
N433 N 0.18856 0.15336 0.02789 0.0
N434 N 0.18986 0.15203 0.19092 0.0
H435 H 0.17306 0.16807 0.12015 0.0
H436 H 0.20598 0.13405 1.00451 0.0
C437 C 0.21831 0.16401 0.90028 0.0
O438 O 0.21574 0.17116 0.98414 0.0
N439 N 0.17613 0.16103 0.75739 0.0
C440 C 0.1632 0.16982 0.72677 0.0
C441 C 0.16306 0.17007 0.62674 0.0
C442 C 0.18368 0.15594 0.67531 0.0
N443 N 0.1759 0.16136 0.59465 0.0
C444 C 0.17029 0.18827 0.96513 0.0
C445 C 0.19115 0.20768 0.85765 0.0
C446 C 0.17974 0.21514 0.91845 0.0
C447 C 0.16905 0.20527 0.97179 0.0
C448 C 0.19181 0.1907 0.85228 0.0
N449 N 0.18212 0.18113 0.90967 0.0
H450 H 0.16123 0.18089 1.00109 0.0
H451 H 0.19979 0.18531 0.79899 0.0
H452 H 0.15454 0.17579 0.77408 0.0
H453 H 0.19461 0.14854 0.6744 0.0
O454 O 0.15974 0.15279 0.92424 0.0
O455 O 0.17787 0.13431 0.87793 0.0
O456 O 0.20631 0.1578 0.85308 0.0
C457 C 0.16299 0.13763 0.90488 0.0
H458 H 0.20795 0.13293 0.19658 0.0
H459 H 0.15423 0.17616 0.58086 0.0
H460 H 0.19914 0.21494 0.81224 0.0
H461 H 0.15958 0.21067 1.01615 0.0
Co462 Co 0.58974 0.42885 0.61063 0.0
C463 C 0.5979 0.4251 0.82341 0.0
C464 C 0.58542 0.44738 0.78926 0.0
C465 C 0.58685 0.44624 0.88804 0.0
N466 N 0.59235 0.43419 0.74775 0.0
N467 N 0.59464 0.43226 0.90995 0.0
H468 H 0.60355 0.41325 0.81622 0.0
H469 H 0.57889 0.45682 0.75101 0.0
C470 C 0.58608 0.46168 0.50676 0.0
O471 O 0.58009 0.45468 0.42915 0.0
N472 N 0.5867 0.42322 0.47334 0.0
C473 C 0.57313 0.41662 0.43411 0.0
C474 C 0.57504 0.41551 0.3355 0.0
C475 C 0.59712 0.42505 0.39723 0.0
N476 N 0.59007 0.42085 0.3114 0.0
C477 C 0.56073 0.41546 0.69371 0.0
C478 C 0.53848 0.43637 0.60854 0.0
C479 C 0.53276 0.42364 0.66679 0.0
C480 C 0.54405 0.41323 0.71108 0.0
C481 C 0.55523 0.43824 0.59363 0.0
N482 N 0.56619 0.42767 0.63421 0.0
H483 H 0.56932 0.40724 0.72765 0.0
H484 H 0.55906 0.44785 0.54648 0.0
H485 H 0.56239 0.41286 0.47354 0.0
H486 H 0.60939 0.42982 0.4041 0.0
O487 O 0.59544 0.40625 0.63501 0.0
O488 O 0.61307 0.42575 0.59666 0.0
O489 O 0.58945 0.45334 0.58275 0.0
C490 C 0.61048 0.41049 0.61763 0.0
H491 H 0.5821 0.45485 0.94049 0.0
H492 H 0.56594 0.41116 0.28469 0.0
H493 H 0.53001 0.44463 0.57339 0.0
H494 H 0.53998 0.4033 0.75706 0.0
Co495 Co 0.31649 0.84134 0.33257 0.0
C496 C 0.31587 0.83916 0.55365 0.0
C497 C 0.30133 0.85852 0.4952 0.0
C498 C 0.30059 0.85936 0.59476 0.0
N499 N 0.31071 0.84575 0.46838 0.0
N500 N 0.30976 0.84722 0.63128 0.0
H501 H 0.32432 0.82918 0.56053 0.0
H502 H 0.29582 0.86708 0.44547 0.0
C503 C 0.28038 0.83631 0.34444 0.0
O504 O 0.28295 0.82854 0.42646 0.0
N505 N 0.32231 0.83756 0.19771 0.0
C506 C 0.33526 0.8288 0.16718 0.0
C507 C 0.33547 0.82871 0.06725 0.0
C508 C 0.31479 0.84274 0.11574 0.0
N509 N 0.32263 0.83743 0.03523 0.0
C510 C 0.32783 0.8103 0.4053 0.0
C511 C 0.30584 0.79141 0.30288 0.0
C512 C 0.31719 0.78367 0.36323 0.0
C513 C 0.32849 0.79329 0.41365 0.0
C514 C 0.30586 0.8084 0.29527 0.0
N515 N 0.31604 0.81772 0.35081 0.0
H516 H 0.33722 0.81746 0.43992 0.0
H517 H 0.298 0.81401 0.24205 0.0
H518 H 0.34394 0.82283 0.21452 0.0
H519 H 0.30392 0.85023 0.11478 0.0
O520 O 0.33922 0.84532 0.36203 0.0
O521 O 0.32151 0.86432 0.31755 0.0
O522 O 0.29243 0.84198 0.29566 0.0
C523 C 0.33635 0.86062 0.34355 0.0
H524 H 0.29429 0.86849 0.6373 0.0
H525 H 0.34436 0.82273 0.02137 0.0
H526 H 0.29739 0.78434 0.25949 0.0
H527 H 0.3379 0.78767 0.45759 0.0
Co528 Co 0.5901 0.06765 0.63732 0.0
C529 C 0.58955 0.06824 0.85475 0.0
C530 C 0.60529 0.04953 0.79891 0.0
C531 C 0.60599 0.04916 0.899 0.0
N532 N 0.59497 0.06146 0.77096 0.0
N533 N 0.59618 0.06096 0.9339 0.0
H534 H 0.58112 0.07839 0.85788 0.0
H535 H 0.61199 0.04173 0.74983 0.0
C536 C 0.58186 0.03585 0.53736 0.0
O537 O 0.5697 0.04326 0.49362 0.0
N538 N 0.58547 0.07402 0.50191 0.0
C539 C 0.57395 0.08445 0.46871 0.0
C540 C 0.57432 0.08483 0.36885 0.0
C541 C 0.59315 0.06877 0.42025 0.0
N542 N 0.58627 0.07487 0.33817 0.0
C543 C 0.55876 0.08172 0.68286 0.0
C544 C 0.5419 0.05282 0.70674 0.0
C545 C 0.53328 0.06751 0.70844 0.0
C546 C 0.54193 0.08215 0.69992 0.0
C547 C 0.55874 0.053 0.69026 0.0
N548 N 0.56678 0.06724 0.67026 0.0
H549 H 0.56523 0.09315 0.67675 0.0
H550 H 0.56513 0.04163 0.69366 0.0
H551 H 0.56566 0.09147 0.5122 0.0
H552 H 0.60345 0.06052 0.42103 0.0
O553 O 0.59497 0.09025 0.66842 0.0
O554 O 0.61301 0.07221 0.61605 0.0
O555 O 0.59073 0.04366 0.59812 0.0
C556 C 0.61001 0.08701 0.64504 0.0
H557 H 0.61327 0.04098 0.94297 0.0
H558 H 0.56622 0.09168 0.32198 0.0
H559 H 0.53564 0.0413 0.717 0.0
H560 H 0.53567 0.09377 0.7039 0.0
Co561 Co 0.17906 0.34314 0.85978 0.0
C562 C 0.17884 0.34147 0.07699 0.0
C563 C 0.19852 0.35611 0.02174 0.0
C564 C 0.19901 0.35654 0.12175 0.0
N565 N 0.1859 0.34668 0.99352 0.0
N566 N 0.18663 0.3474 0.15626 0.0
H567 H 0.16802 0.3339 0.07976 0.0
H568 H 0.20659 0.36256 0.97289 0.0
C569 C 0.21004 0.33235 0.76186 0.0
O570 O 0.20157 0.32062 0.72078 0.0
N571 N 0.17203 0.34016 0.72362 0.0
C572 C 0.15707 0.33541 0.69277 0.0
C573 C 0.1565 0.33576 0.5929 0.0
C574 C 0.17998 0.34425 0.64028 0.0
N575 N 0.17094 0.34119 0.56006 0.0
C576 C 0.16418 0.31135 0.87704 0.0
C577 C 0.19209 0.29488 0.93245 0.0
C578 C 0.17784 0.28598 0.91403 0.0
C579 C 0.1636 0.29445 0.88973 0.0
C580 C 0.19204 0.31183 0.92021 0.0
N581 N 0.17854 0.31969 0.88531 0.0
H582 H 0.15299 0.31769 0.86193 0.0
H583 H 0.20298 0.3186 0.9373 0.0
H584 H 0.14681 0.33261 0.73874 0.0
H585 H 0.192 0.34961 0.63751 0.0
O586 O 0.15685 0.34848 0.89538 0.0
O587 O 0.17533 0.36638 0.84563 0.0
O588 O 0.20299 0.3423 0.81987 0.0
C589 C 0.16047 0.36355 0.87492 0.0
H590 H 0.20754 0.36336 0.16595 0.0
H591 H 0.14616 0.33259 0.54773 0.0
H592 H 0.20319 0.28877 0.95493 0.0
H593 H 0.15219 0.28801 0.87907 0.0
Co594 Co 0.90223 0.93088 0.11108 0.0
C595 C 0.90366 0.93113 0.33264 0.0
C596 C 0.88654 0.94804 0.27191 0.0
C597 C 0.88571 0.94914 0.37147 0.0
N598 N 0.89799 0.93698 0.24659 0.0
N599 N 0.89641 0.93846 0.40941 0.0
H600 H 0.91239 0.92143 0.34076 0.0
H601 H 0.8791 0.95478 0.22089 0.0
C602 C 0.91005 0.96641 0.11951 0.0
O603 O 0.91886 0.96281 0.19634 0.0
N604 N 0.90587 0.92496 0.97598 0.0
C605 C 0.91504 0.91234 0.94492 0.0
C606 C 0.9152 0.91228 0.84492 0.0
C607 C 0.9004 0.93235 0.89418 0.0
N608 N 0.90601 0.92483 0.81328 0.0
C609 C 0.93273 0.9186 0.18725 0.0
C610 C 0.95279 0.93872 0.0791 0.0
C611 C 0.95984 0.92746 0.1425 0.0
C612 C 0.94969 0.91718 0.19652 0.0
C613 C 0.93583 0.93976 0.07248 0.0
N614 N 0.92592 0.93039 0.12986 0.0
H615 H 0.92512 0.90969 0.22288 0.0
H616 H 0.93073 0.94776 0.01855 0.0
H617 H 0.92133 0.90384 0.99193 0.0
H618 H 0.89259 0.94299 0.89367 0.0
O619 O 0.89737 0.90826 0.14103 0.0
O620 O 0.87904 0.9266 0.09533 0.0
O621 O 0.90245 0.955 0.07463 0.0
C622 C 0.88224 0.91164 0.1211 0.0
H623 H 0.8776 0.95686 0.41303 0.0
H624 H 0.92154 0.90371 0.79873 0.0
H625 H 0.96035 0.94639 0.03341 0.0
H626 H 0.95482 0.90783 0.243 0.0
Co627 Co 0.31815 0.65524 0.34142 0.0
C628 C 0.31826 0.65776 0.55827 0.0
C629 C 0.29852 0.64302 0.5049 0.0
C630 C 0.29809 0.64285 0.6049 0.0
N631 N 0.31115 0.65235 0.47548 0.0
N632 N 0.31051 0.65205 0.63823 0.0
H633 H 0.32915 0.66523 0.56007 0.0
H634 H 0.29047 0.63637 0.45697 0.0
C635 C 0.28576 0.66518 0.25088 0.0
O636 O 0.29259 0.67826 0.21361 0.0
N637 N 0.32546 0.65764 0.20509 0.0
C638 C 0.34114 0.65949 0.17557 0.0
C639 C 0.34188 0.65951 0.07581 0.0
C640 C 0.31702 0.65599 0.12057 0.0
N641 N 0.32671 0.65737 0.04146 0.0
C642 C 0.33204 0.6875 0.33771 0.0
C643 C 0.30492 0.70359 0.40886 0.0
C644 C 0.31837 0.71275 0.37752 0.0
C645 C 0.33228 0.70449 0.34504 0.0
C646 C 0.30538 0.68655 0.40228 0.0
N647 N 0.31834 0.67881 0.36041 0.0
H648 H 0.34294 0.6814 0.31416 0.0
H649 H 0.29515 0.67953 0.42873 0.0
H650 H 0.35163 0.66027 0.2228 0.0
H651 H 0.30422 0.65338 0.11525 0.0
O652 O 0.34036 0.65045 0.38045 0.0
O653 O 0.32224 0.63201 0.33332 0.0
O654 O 0.29421 0.65507 0.30084 0.0
C655 C 0.33697 0.63519 0.36365 0.0
H656 H 0.28964 0.63607 0.64993 0.0
H657 H 0.35276 0.66058 0.03173 0.0
H658 H 0.29414 0.70955 0.43717 0.0
H659 H 0.3431 0.71116 0.32346 0.0
Co660 Co 0.59206 0.93188 0.42897 0.0
C661 C 0.59021 0.93208 0.20771 0.0
C662 C 0.60614 0.9502 0.26717 0.0
C663 C 0.60702 0.9511 0.16756 0.0
N664 N 0.59537 0.93851 0.29334 0.0
N665 N 0.59706 0.93968 0.13044 0.0
H666 H 0.58232 0.92165 0.20038 0.0
H667 H 0.61325 0.95739 0.31757 0.0
C668 C 0.5837 0.96734 0.42895 0.0
O669 O 0.57355 0.964 0.35782 0.0
N670 N 0.58939 0.92542 0.56402 0.0
C671 C 0.58074 0.91244 0.59542 0.0
C672 C 0.58083 0.91226 0.6954 0.0
C673 C 0.59482 0.93289 0.64555 0.0
N674 N 0.58964 0.92509 0.72664 0.0
C675 C 0.56116 0.92004 0.3559 0.0
C676 C 0.54166 0.93968 0.47034 0.0
C677 C 0.53431 0.92925 0.4033 0.0
C678 C 0.54417 0.91908 0.3469 0.0
C679 C 0.55865 0.94018 0.47718 0.0
N680 N 0.56827 0.93126 0.41575 0.0
H681 H 0.56853 0.91131 0.3175 0.0
H682 H 0.56405 0.94767 0.53272 0.0
H683 H 0.57451 0.90388 0.54868 0.0
H684 H 0.60217 0.94386 0.64581 0.0
O685 O 0.5969 0.90944 0.3956 0.0
O686 O 0.61531 0.9279 0.43852 0.0
O687 O 0.59202 0.95581 0.46782 0.0
C688 C 0.61214 0.91299 0.41197 0.0
H689 H 0.61475 0.95915 0.12549 0.0
H690 H 0.57474 0.90351 0.74186 0.0
H691 H 0.53432 0.9472 0.51795 0.0
H692 H 0.53878 0.91031 0.29765 0.0
Co693 Co 0.31377 0.34118 0.64588 0.0
C694 C 0.31335 0.33916 0.42498 0.0
C695 C 0.29754 0.3575 0.48329 0.0
C696 C 0.29679 0.35834 0.38365 0.0
N697 N 0.30771 0.34533 0.51016 0.0
N698 N 0.30675 0.34685 0.34722 0.0
H699 H 0.32244 0.32976 0.41835 0.0
H700 H 0.29133 0.36554 0.53318 0.0
C701 C 0.27779 0.33481 0.63563 0.0
O702 O 0.28037 0.32791 0.55108 0.0
N703 N 0.31985 0.33768 0.78081 0.0
C704 C 0.33316 0.32947 0.81146 0.0
C705 C 0.33341 0.32941 0.91143 0.0
C706 C 0.31215 0.34256 0.86278 0.0
N707 N 0.32023 0.3376 0.9434 0.0
C708 C 0.32614 0.31045 0.57431 0.0
C709 C 0.30505 0.29092 0.67947 0.0
C710 C 0.3167 0.28351 0.62002 0.0
C711 C 0.3275 0.29344 0.56782 0.0
C712 C 0.30428 0.3079 0.68471 0.0
N713 N 0.31412 0.31752 0.62853 0.0
H714 H 0.33523 0.31789 0.53892 0.0
H715 H 0.29609 0.31324 0.73704 0.0
H716 H 0.34206 0.32385 0.76419 0.0
H717 H 0.30097 0.34958 0.86366 0.0
O718 O 0.33633 0.34603 0.6154 0.0
O719 O 0.31799 0.36436 0.66016 0.0
O720 O 0.28976 0.34079 0.68394 0.0
C721 C 0.33295 0.36121 0.63417 0.0
H722 H 0.28987 0.36702 0.34101 0.0
H723 H 0.34255 0.3238 0.95737 0.0
H724 H 0.29696 0.28361 0.72397 0.0
H725 H 0.33712 0.28809 0.52442 0.0
Co726 Co 0.90785 0.06713 0.92133 0.0
C727 C 0.90915 0.06699 0.7035 0.0
C728 C 0.89321 0.04856 0.76102 0.0
C729 C 0.8927 0.04779 0.66114 0.0
N730 N 0.90353 0.06055 0.78786 0.0
N731 N 0.90262 0.05942 0.62505 0.0
H732 H 0.9175 0.07721 0.69948 0.0
H733 H 0.88628 0.04106 0.81079 0.0
C734 C 0.91688 0.03502 1.01671 0.0
O735 O 0.92992 0.04202 0.05349 0.0
N736 N 0.91172 0.07361 0.05695 0.0
C737 C 0.91921 0.08722 0.09012 0.0
C738 C 0.9188 0.08735 0.19006 0.0
C739 C 0.90619 0.06608 0.13853 0.0
N740 N 0.91074 0.07401 0.22047 0.0
C741 C 0.93981 0.08106 0.89497 0.0
C742 C 0.95623 0.05237 0.85671 0.0
C743 C 0.96523 0.0667 0.87103 0.0
C744 C 0.9568 0.0813 0.88614 0.0
C745 C 0.93919 0.05277 0.86531 0.0
N746 N 0.93133 0.06671 0.89333 0.0
H747 H 0.93353 0.0925 0.90309 0.0
H748 H 0.93243 0.04175 0.85171 0.0
H749 H 0.92408 0.09691 0.04611 0.0
H750 H 0.8987 0.05522 0.13814 0.0
O751 O 0.90331 0.08968 0.88673 0.0
O752 O 0.88483 0.07199 0.93891 0.0
O753 O 0.90719 0.04322 0.96228 0.0
C754 C 0.88817 0.08669 0.90891 0.0
H755 H 0.88532 0.03957 0.61803 0.0
H756 H 0.92388 0.09663 0.23705 0.0
H757 H 0.96233 0.04096 0.84084 0.0
H758 H 0.96332 0.09273 0.89303 0.0
Co759 Co 0.18173 0.65546 0.14192 0.0
C760 C 0.18253 0.65719 0.92077 0.0
C761 C 0.19725 0.63808 0.98075 0.0
C762 C 0.19806 0.63712 0.88104 0.0
N763 N 0.1877 0.65078 1.0066 0.0
N764 N 0.18878 0.64911 0.84356 0.0
H765 H 0.17403 0.66711 0.91317 0.0
H766 H 0.20294 0.62977 0.03148 0.0
C767 C 0.21806 0.66059 0.13657 0.0
O768 O 0.21621 0.66814 0.05318 0.0
N769 N 0.17586 0.65957 0.27668 0.0
C770 C 0.16329 0.66882 0.30755 0.0
C771 C 0.16312 0.66886 0.40765 0.0
C772 C 0.18316 0.65402 0.35866 0.0
N773 N 0.1756 0.6596 0.43952 0.0
C774 C 0.1693 0.6857 0.0661 0.0
C775 C 0.19088 0.70604 0.16133 0.0
C776 C 0.17863 0.7129 0.10386 0.0
C777 C 0.16775 0.7026 0.05559 0.0
C778 C 0.19206 0.6891 0.16914 0.0
N779 N 0.18172 0.67904 0.11938 0.0
H780 H 0.1601 0.67802 0.03392 0.0
H781 H 0.20081 0.68423 0.2189 0.0
H782 H 0.15483 0.67514 0.26043 0.0
H783 H 0.19371 0.64608 0.35935 0.0
O784 O 0.15907 0.65105 0.11231 0.0
O785 O 0.177 0.63247 0.15969 0.0
O786 O 0.20562 0.65497 0.18155 0.0
C787 C 0.16213 0.63588 0.13313 0.0
H788 H 0.20456 0.62805 0.83913 0.0
H789 H 0.15451 0.67519 0.45373 0.0
H790 H 0.19915 0.71373 0.20216 0.0
H791 H 0.1578 0.70759 1.0131 0.0
Co792 Co 0.40578 0.92997 0.41031 0.0
C793 C 0.40415 0.92761 0.19146 0.0
C794 C 0.39925 0.95184 0.23935 0.0
C795 C 0.39864 0.9517 0.13979 0.0
N796 N 0.40306 0.93686 0.27338 0.0
N797 N 0.40173 0.93648 0.10967 0.0
H798 H 0.40673 0.91467 0.19087 0.0
H799 H 0.3971 0.96236 0.28216 0.0
C800 C 0.41232 0.96624 0.44308 0.0
O801 O 0.42398 0.96592 0.3778 0.0
N802 N 0.40839 0.92266 0.54406 0.0
C803 C 0.41794 0.91013 0.57267 0.0
C804 C 0.41792 0.9093 0.67242 0.0
C805 C 0.40272 0.92937 0.62727 0.0
N806 N 0.40841 0.92139 0.70653 0.0
C807 C 0.43728 0.92269 0.32616 0.0
C808 C 0.4557 0.93793 0.46763 0.0
C809 C 0.46366 0.92995 0.39172 0.0
C810 C 0.45432 0.92224 0.3203 0.0
C811 C 0.43867 0.93817 0.47028 0.0
N812 N 0.42958 0.93099 0.39886 0.0
H813 H 0.43038 0.91579 0.27413 0.0
H814 H 0.43279 0.94379 0.53135 0.0
H815 H 0.4248 0.90238 0.52409 0.0
H816 H 0.39507 0.94012 0.63017 0.0
O817 O 0.40222 0.90746 0.3713 0.0
O818 O 0.38279 0.9247 0.41628 0.0
O819 O 0.40394 0.9534 0.46086 0.0
C820 C 0.38678 0.91014 0.38741 0.0
H821 H 0.39631 0.96203 0.09278 0.0
H822 H 0.42475 0.9008 0.71684 0.0
H823 H 0.46261 0.94369 0.52523 0.0
H824 H 0.46016 0.91559 0.26203 0.0
Co825 Co 0.81715 0.65411 0.18953 0.0
C826 C 0.81714 0.65568 0.97211 0.0
C827 C 0.79781 0.64068 0.02814 0.0
C828 C 0.79728 0.64016 0.92811 0.0
N829 N 0.81022 0.65041 0.05595 0.0
N830 N 0.80945 0.64952 0.89303 0.0
H831 H 0.82781 0.66345 0.96895 0.0
H832 H 0.78991 0.63409 0.0773 0.0
C833 C 0.78595 0.66487 0.28749 0.0
O834 O 0.79392 0.67747 0.3227 0.0
N835 N 0.82418 0.65731 0.32509 0.0
C836 C 0.83844 0.66366 0.35707 0.0
C837 C 0.83882 0.66325 0.45701 0.0
C838 C 0.81652 0.65228 0.40742 0.0
N839 N 0.82498 0.65624 0.48867 0.0
C840 C 0.83237 0.68562 0.16438 0.0
C841 C 0.80435 0.70275 0.11934 0.0
C842 C 0.81896 0.71134 0.13216 0.0
C843 C 0.83322 0.70251 0.15114 0.0
C844 C 0.80413 0.6858 0.13191 0.0
N845 N 0.81774 0.67761 0.16254 0.0
H846 H 0.84357 0.679 0.17454 0.0
H847 H 0.79292 0.67935 0.11836 0.0
H848 H 0.84836 0.66777 0.31213 0.0
H849 H 0.80517 0.64556 0.40802 0.0
O850 O 0.83937 0.6486 0.15364 0.0
O851 O 0.82085 0.63089 0.20469 0.0
O852 O 0.79331 0.65465 0.23238 0.0
C853 C 0.83569 0.63356 0.1747 0.0
H854 H 0.78886 0.63314 0.88428 0.0
H855 H 0.84858 0.66762 0.50312 0.0
H856 H 0.79319 0.70911 0.10062 0.0
H857 H 0.84488 0.70867 0.15696 0.0
Co858 Co 0.09377 0.06731 0.9363 0.0
C859 C 0.09228 0.06663 0.71523 0.0
C860 C 0.11225 0.05309 0.7751 0.0
C861 C 0.11311 0.05215 0.67542 0.0
N862 N 0.09903 0.0619 0.80098 0.0
N863 N 0.10063 0.06075 0.63794 0.0
H864 H 0.08184 0.0745 0.70784 0.0
H865 H 0.12089 0.0479 0.82579 0.0
C866 C 0.09054 0.0309 0.9264 0.0
O867 O 0.08303 0.03278 0.8429 0.0
N868 N 0.08901 0.07267 0.07102 0.0
C869 C 0.0784 0.08414 0.10169 0.0
C870 C 0.07813 0.08416 0.20175 0.0
C871 C 0.09517 0.06593 0.15312 0.0
N872 N 0.08866 0.07275 0.23386 0.0
C873 C 0.06278 0.07812 0.85967 0.0
C874 C 0.0438 0.05448 0.9477 0.0
C875 C 0.03616 0.06637 0.89084 0.0
C876 C 0.04581 0.07839 0.84693 0.0
C877 C 0.06074 0.05477 0.95913 0.0
N878 N 0.07019 0.06603 0.91205 0.0
H879 H 0.06991 0.08798 0.82958 0.0
H880 H 0.06604 0.04629 1.00927 0.0
H881 H 0.0713 0.09194 0.05446 0.0
H882 H 0.1042 0.05629 0.15395 0.0
O883 O 0.09736 0.09027 0.90809 0.0
O884 O 0.11647 0.07298 0.9567 0.0
O885 O 0.0954 0.04338 0.97387 0.0
C886 C 0.1126 0.0877 0.92999 0.0
H887 H 0.12247 0.04606 0.63347 0.0
H888 H 0.07085 0.09202 0.24766 0.0
H889 H 0.03665 0.04538 0.98577 0.0
H890 H 0.04023 0.08811 0.80524 0.0
Co891 Co 0.67975 0.34052 0.65493 0.0
C892 C 0.68015 0.33855 0.43369 0.0
C893 C 0.69662 0.35626 0.49255 0.0
C894 C 0.69741 0.35714 0.39294 0.0
N895 N 0.68601 0.34444 0.51914 0.0
N896 N 0.68705 0.34604 0.35619 0.0
H897 H 0.67067 0.32956 0.42647 0.0
H898 H 0.70307 0.36408 0.54261 0.0
C899 C 0.7155 0.33326 0.64655 0.0
O900 O 0.71277 0.32616 0.56273 0.0
N901 N 0.67352 0.33731 0.78985 0.0
C902 C 0.66 0.32946 0.82063 0.0
C903 C 0.65976 0.32947 0.92061 0.0
C904 C 0.68135 0.34204 0.87173 0.0
N905 N 0.67315 0.33734 0.95243 0.0
C906 C 0.66736 0.30993 0.58133 0.0
C907 C 0.68756 0.29024 0.69142 0.0
C908 C 0.67662 0.28301 0.6269 0.0
C909 C 0.66623 0.29296 0.57224 0.0
C910 C 0.68838 0.30721 0.69743 0.0
N911 N 0.67904 0.31689 0.63867 0.0
H912 H 0.65843 0.31741 0.54497 0.0
H913 H 0.69628 0.31251 0.75153 0.0
H914 H 0.65097 0.324 0.77345 0.0
H915 H 0.69273 0.34875 0.87249 0.0
O916 O 0.65732 0.34563 0.62363 0.0
O917 O 0.67595 0.36374 0.66804 0.0
O918 O 0.70368 0.33972 0.69377 0.0
C919 C 0.66095 0.36077 0.64196 0.0
H920 H 0.70463 0.36561 0.35055 0.0
H921 H 0.6505 0.32409 0.96666 0.0
H922 H 0.69529 0.28283 0.73757 0.0
H923 H 0.65709 0.28765 0.52501 0.0
Co924 Co 0.40568 0.06525 0.65655 0.0
C925 C 0.40516 0.06693 0.87383 0.0
C926 C 0.39048 0.04733 0.81822 0.0
C927 C 0.38953 0.04715 0.91814 0.0
N928 N 0.40029 0.05968 0.79024 0.0
N929 N 0.39872 0.05946 0.95288 0.0
H930 H 0.41334 0.07729 0.87696 0.0
H931 H 0.38438 0.03902 0.76929 0.0
C932 C 0.41425 0.03294 0.56315 0.0
O933 O 0.42626 0.0401 0.51661 0.0
N934 N 0.41079 0.07089 0.52077 0.0
C935 C 0.423 0.08041 0.48632 0.0
C936 C 0.42241 0.08075 0.38663 0.0
C937 C 0.40261 0.06607 0.43989 0.0
N938 N 0.4097 0.07167 0.35726 0.0
C939 C 0.43661 0.08008 0.7033 0.0
C940 C 0.45418 0.05163 0.72719 0.0
C941 C 0.46252 0.0665 0.72441 0.0
C942 C 0.45352 0.08092 0.71634 0.0
C943 C 0.43727 0.0514 0.7133 0.0
N944 N 0.42888 0.0654 0.69271 0.0
H945 H 0.42993 0.09135 0.69539 0.0
H946 H 0.43113 0.03992 0.71795 0.0
H947 H 0.43191 0.08686 0.52853 0.0
H948 H 0.39182 0.05846 0.44151 0.0
O949 O 0.40049 0.08793 0.68242 0.0
O950 O 0.3828 0.06944 0.63044 0.0
O951 O 0.40546 0.04104 0.62279 0.0
C952 C 0.38564 0.0844 0.65661 0.0
H953 H 0.38274 0.03856 0.96218 0.0
H954 H 0.43086 0.08699 0.33891 0.0
H955 H 0.46074 0.04027 0.737 0.0
H956 H 0.45958 0.09267 0.71663 0.0
Co957 Co 0.6815 0.65685 0.39279 0.0
C958 C 0.68182 0.65848 0.61396 0.0
C959 C 0.6979 0.64049 0.55441 0.0
C960 C 0.69874 0.63955 0.65406 0.0
N961 N 0.68748 0.6525 0.52836 0.0
N962 N 0.68863 0.65084 0.69121 0.0
H963 H 0.67259 0.66773 0.6213 0.0
H964 H 0.7043 0.6327 0.50385 0.0
C965 C 0.71741 0.66325 0.39988 0.0
O966 O 0.71448 0.67213 0.47727 0.0
N967 N 0.67563 0.66061 0.25769 0.0
C968 C 0.66298 0.66974 0.22648 0.0
C969 C 0.6628 0.66974 0.12646 0.0
C970 C 0.68296 0.65506 0.176 0.0
N971 N 0.67534 0.66054 0.095 0.0
C972 C 0.66958 0.68749 0.46717 0.0
C973 C 0.69099 0.70729 0.36636 0.0
C974 C 0.67943 0.7145 0.42731 0.0
C975 C 0.66848 0.70445 0.47726 0.0
C976 C 0.69154 0.69033 0.35776 0.0
N977 N 0.68153 0.68053 0.41185 0.0
H978 H 0.66036 0.68001 0.50096 0.0
H979 H 0.69971 0.68519 0.3051 0.0
H980 H 0.65451 0.67606 0.27336 0.0
H981 H 0.69357 0.6472 0.17562 0.0
O982 O 0.65878 0.65245 0.42245 0.0
O983 O 0.67681 0.63382 0.37759 0.0
O984 O 0.70553 0.65633 0.35566 0.0
C985 C 0.6619 0.63723 0.4033 0.0
H986 H 0.70591 0.63101 0.69617 0.0
H987 H 0.65416 0.67601 0.08014 0.0
H988 H 0.69919 0.71475 0.32346 0.0
H989 H 0.65892 0.70968 0.5217 0.0
Co990 Co 0.08818 0.92914 0.10209 0.0
C991 C 0.09788 0.92744 0.31525 0.0
C992 C 0.07912 0.94487 0.28343 0.0
C993 C 0.08131 0.94444 0.38186 0.0
N994 N 0.08922 0.93403 0.24078 0.0
N995 N 0.09297 0.93343 0.40222 0.0
H996 H 0.10738 0.91844 0.30717 0.0
H997 H 0.07022 0.95224 0.24582 0.0
C998 C 0.0872 0.96261 1.00413 0.0
O999 O 0.08095 0.95641 0.92484 0.0
N1000 N 0.08663 0.92426 0.96318 0.0
C1001 C 0.07379 0.91691 0.92038 0.0
C1002 C 0.0763 0.91636 0.82211 0.0
C1003 C 0.09721 0.92738 0.8894 0.0
N1004 N 0.09096 0.923 0.80175 0.0
C1005 C 0.0575 0.91675 0.16675 0.0
C1006 C 0.03739 0.93977 0.08213 0.0
C1007 C 0.0304 0.927 0.13474 0.0
C1008 C 0.04058 0.9154 0.17785 0.0
C1009 C 0.05434 0.94062 0.07232 0.0
N1010 N 0.06428 0.92912 0.11346 0.0
H1011 H 0.0652 0.90782 0.20177 0.0
H1012 H 0.0591 0.95054 0.03128 0.0
H1013 H 0.06312 0.91229 0.95744 0.0
H1014 H 0.10893 0.93323 0.89931 0.0
O1015 O 0.09201 0.90607 0.12462 0.0
O1016 O 0.11143 0.92425 0.10011 0.0
O1017 O 0.08973 0.95372 0.07907 0.0
C1018 C 0.10752 0.9091 0.11727 0.0
H1019 H 0.07458 0.95144 0.43511 0.0
H1020 H 0.06789 0.91147 0.76892 0.0
H1021 H 0.02979 0.94895 0.04816 0.0
H1022 H 0.0355 0.90542 0.21964 0.0
Co1023 Co 0.81404 0.3411 0.87132 0.0
C1024 C 0.81496 0.34084 0.08852 0.0
C1025 C 0.79329 0.35228 0.03307 0.0
C1026 C 0.79262 0.35243 0.13304 0.0
N1027 N 0.80724 0.34495 1.00493 0.0
N1028 N 0.80627 0.34536 0.16778 0.0
H1029 H 0.82666 0.33473 0.09142 0.0
H1030 H 0.7842 0.35724 0.98439 0.0
C1031 C 0.78311 0.33011 0.77398 0.0
O1032 O 0.79152 0.31823 0.73404 0.0
N1033 N 0.82096 0.33766 0.73536 0.0
C1034 C 0.83565 0.33226 0.704 0.0
C1035 C 0.83607 0.33245 0.60406 0.0
C1036 C 0.81304 0.34194 0.65222 0.0
N1037 N 0.82182 0.33843 0.5717 0.0
C1038 C 0.82839 0.3089 0.88868 0.0
C1039 C 0.80037 0.2933 0.95092 0.0
C1040 C 0.81413 0.28396 0.92837 0.0
C1041 C 0.82844 0.29195 0.90002 0.0
C1042 C 0.80081 0.31022 0.93711 0.0
N1043 N 0.81435 0.31768 0.89945 0.0
H1044 H 0.83971 0.31491 0.87243 0.0
H1045 H 0.79009 0.31727 0.95492 0.0
H1046 H 0.84595 0.32933 0.74941 0.0
H1047 H 0.80123 0.34772 0.64983 0.0
O1048 O 0.83629 0.34673 0.90638 0.0
O1049 O 0.81769 0.36432 0.85397 0.0
O1050 O 0.79018 0.34014 0.83133 0.0
C1051 C 0.83253 0.36169 0.88384 0.0
H1052 H 0.78296 0.35754 0.17713 0.0
H1053 H 0.84622 0.32888 0.55853 0.0
H1054 H 0.78927 0.28753 0.9763 0.0
H1055 H 0.83952 0.28512 0.88635 0.0
C1056 C 0.07905 0.56092 0.6566 0.0
C1057 C 0.0901 0.57116 0.7076 0.0
C1058 C 0.10585 0.57518 0.55718 0.0
C1059 C 0.09425 0.56573 0.50525 0.0
N1060 N 0.06919 0.55065 0.5014 0.0
N1061 N 0.11298 0.5894 0.7066 0.0
C1062 C 0.08066 0.55889 0.55408 0.0
C1063 C 0.1033 0.5786 0.65786 0.0
N1064 N 0.06723 0.55284 0.7074 0.0
N1065 N 0.11941 0.58068 0.50979 0.0
H1066 H 0.11142 0.59189 0.78023 0.0
H1067 H 0.12191 0.59655 0.67374 0.0
H1068 H 0.12118 0.57876 0.43578 0.0
H1069 H 0.12923 0.58633 0.54389 0.0
H1070 H 0.05962 0.54398 0.67775 0.0
H1071 H 0.06579 0.55418 0.78207 0.0
H1072 H 0.05812 0.5466 0.52943 0.0
H1073 H 0.07034 0.54872 0.42692 0.0
C1074 C 0.68766 0.83055 0.81629 0.0
C1075 C 0.68304 0.84524 0.76938 0.0
C1076 C 0.672 0.85568 0.92374 0.0
C1077 C 0.67731 0.84131 0.97149 0.0
N1078 N 0.69169 0.81583 0.96811 0.0
N1079 N 0.67237 0.87246 0.77783 0.0
C1080 C 0.68554 0.82893 0.91881 0.0
C1081 C 0.67566 0.85802 0.82324 0.0
N1082 N 0.69397 0.81813 0.76199 0.0
N1083 N 0.66296 0.86679 0.97427 0.0
H1084 H 0.67439 0.87417 0.70388 0.0
H1085 H 0.66847 0.88293 0.81353 0.0
H1086 H 0.66036 0.8654 0.04791 0.0
H1087 H 0.65726 0.87683 0.94283 0.0
H1088 H 0.69622 0.80646 0.78858 0.0
H1089 H 0.69612 0.81925 0.68769 0.0
H1090 H 0.69904 0.80692 0.93704 0.0
H1091 H 0.6903 0.81447 0.0429 0.0
C1092 C 0.38937 0.42047 0.05807 0.0
C1093 C 0.40147 0.4292 1.00579 0.0
C1094 C 0.41714 0.43305 0.15612 0.0
C1095 C 0.40557 0.42346 0.20756 0.0
N1096 N 0.38167 0.40655 0.20759 0.0
N1097 N 0.42768 0.4422 1.0003 0.0
C1098 C 0.39189 0.4168 0.15847 0.0
C1099 C 0.4156 0.43502 0.05372 0.0
N1100 N 0.37538 0.41598 1.01144 0.0
N1101 N 0.42931 0.4407 0.20628 0.0
H1102 H 0.42671 0.44401 0.92559 0.0
H1103 H 0.43909 0.44529 0.02804 0.0
H1104 H 0.43073 0.43949 0.28108 0.0
H1105 H 0.43725 0.44918 0.1757 0.0
H1106 H 0.3653 0.4109 0.04606 0.0
H1107 H 0.37357 0.41821 0.9377 0.0
H1108 H 0.37227 0.39999 0.17506 0.0
H1109 H 0.38324 0.40387 0.28101 0.0
C1110 C 0.8124 0.16938 0.31219 0.0
C1111 C 0.81465 0.15398 0.26717 0.0
C1112 C 0.82233 0.14206 0.42482 0.0
C1113 C 0.82114 0.15765 0.46845 0.0
N1114 N 0.81652 0.18645 0.45469 0.0
N1115 N 0.82371 0.12614 0.27647 0.0
C1116 C 0.8166 0.17141 0.41215 0.0
C1117 C 0.82011 0.14043 0.32263 0.0
N1118 N 0.80562 0.18182 0.25997 0.0
N1119 N 0.82536 0.12878 0.48196 0.0
H1120 H 0.82223 0.12462 0.20195 0.0
H1121 H 0.82931 0.11623 0.30999 0.0
H1122 H 0.82723 0.12975 0.55648 0.0
H1123 H 0.82485 0.11679 0.45748 0.0
H1124 H 0.80221 0.19297 0.28975 0.0
H1125 H 0.80234 0.18058 0.18723 0.0
H1126 H 0.81497 0.19731 0.41666 0.0
H1127 H 0.81891 0.18808 0.52841 0.0
C1128 C 0.08236 0.44568 0.45635 0.0
C1129 C 0.09307 0.43571 0.51129 0.0
C1130 C 0.10087 0.42089 0.3633 0.0
C1131 C 0.08948 0.43024 0.30947 0.0
N1132 N 0.06824 0.45035 0.30327 0.0
N1133 N 0.1117 0.4132 0.52149 0.0
C1134 C 0.07996 0.4424 0.35564 0.0
C1135 C 0.10211 0.42311 0.46578 0.0
N1136 N 0.07464 0.45838 0.50105 0.0
N1137 N 0.11065 0.41009 0.31519 0.0
H1138 H 0.11289 0.4148 0.59615 0.0
H1139 H 0.11772 0.40292 0.49573 0.0
H1140 H 0.10986 0.40834 0.24035 0.0
H1141 H 0.12015 0.40363 0.34728 0.0
H1142 H 0.06788 0.46721 0.46457 0.0
H1143 H 0.07568 0.46054 0.57539 0.0
H1144 H 0.05976 0.45832 0.33319 0.0
H1145 H 0.06644 0.44825 0.22939 0.0
C1146 C 0.82034 0.85448 0.70272 0.0
C1147 C 0.81056 0.84296 0.75317 0.0
C1148 C 0.80621 0.82784 0.60092 0.0
C1149 C 0.81675 0.83883 0.55205 0.0
N1150 N 0.83556 0.86125 0.55676 0.0
N1151 N 0.79476 0.81831 0.75423 0.0
C1152 C 0.82426 0.85181 0.60321 0.0
C1153 C 0.80367 0.82949 0.70314 0.0
N1154 N 0.8256 0.86813 0.74998 0.0
N1155 N 0.79856 0.81593 0.54857 0.0
H1156 H 0.7923 0.81964 0.82803 0.0
H1157 H 0.79041 0.80742 0.72548 0.0
H1158 H 0.80054 0.81438 0.47438 0.0
H1159 H 0.78971 0.80813 0.5765 0.0
H1160 H 0.83138 0.87789 0.7159 0.0
H1161 H 0.82325 0.8702 0.82317 0.0
H1162 H 0.84283 0.8699 0.59122 0.0
H1163 H 0.83845 0.85961 0.48385 0.0
C1164 C 0.39471 0.57647 0.87353 0.0
C1165 C 0.40725 0.56842 0.82155 0.0
C1166 C 0.41649 0.55503 0.97186 0.0
C1167 C 0.4036 0.56267 0.02326 0.0
N1168 N 0.37977 0.57963 0.02503 0.0
N1169 N 0.42942 0.54937 0.81612 0.0
C1170 C 0.39251 0.57313 0.97439 0.0
C1171 C 0.41797 0.55748 0.86953 0.0
N1172 N 0.3852 0.58761 0.82603 0.0
N1173 N 0.42736 0.54562 0.02206 0.0
H1174 H 0.43079 0.5512 0.74162 0.0
H1175 H 0.43704 0.54033 0.84346 0.0
H1176 H 0.42628 0.5435 0.09644 0.0
H1177 H 0.43782 0.54052 0.99214 0.0
H1178 H 0.37671 0.59512 0.8598 0.0
H1179 H 0.38632 0.58983 0.75175 0.0
H1180 H 0.37026 0.58621 0.99389 0.0
H1181 H 0.3784 0.57781 0.09939 0.0
C1182 C 0.69158 0.16552 0.12029 0.0
C1183 C 0.67934 0.15634 0.07225 0.0
C1184 C 0.672 0.14313 0.22676 0.0
C1185 C 0.68471 0.15179 0.27397 0.0
N1186 N 0.70765 0.16992 0.26674 0.0
N1187 N 0.65892 0.13539 0.07471 0.0
C1188 C 0.69481 0.16263 0.22076 0.0
C1189 C 0.66983 0.14483 0.12434 0.0
N1190 N 0.69971 0.17735 0.06984 0.0
N1191 N 0.66186 0.13353 0.28096 0.0
H1192 H 0.65714 0.13656 1.00007 0.0
H1193 H 0.65237 0.1258 0.10533 0.0
H1194 H 0.66336 0.13209 0.35557 0.0
H1195 H 0.65148 0.12779 0.25407 0.0
H1196 H 0.70777 0.18561 0.10122 0.0
H1197 H 0.69766 0.17948 0.9962 0.0
H1198 H 0.71654 0.17679 0.23148 0.0
H1199 H 0.70989 0.16835 0.3407 0.0
C1200 C 0.89058 0.42075 0.38356 0.0
C1201 C 0.9046 0.42582 0.33141 0.0
C1202 C 0.91636 0.43714 0.48175 0.0
C1203 C 0.90201 0.43269 0.53286 0.0
N1204 N 0.87488 0.4216 0.53339 0.0
N1205 N 0.9305 0.43943 0.32658 0.0
C1206 C 0.88894 0.42486 0.48379 0.0
C1207 C 0.91742 0.4342 0.37959 0.0
N1208 N 0.87905 0.41162 0.33703 0.0
N1209 N 0.92897 0.44406 0.53191 0.0
H1210 H 0.93166 0.43701 0.25264 0.0
H1211 H 0.93985 0.44669 0.35373 0.0
H1212 H 0.92822 0.44668 0.60582 0.0
H1213 H 0.94037 0.44659 0.50245 0.0
H1214 H 0.8692 0.40605 0.37135 0.0
H1215 H 0.87986 0.40888 0.26342 0.0
H1216 H 0.86421 0.41733 0.50127 0.0
H1217 H 0.87361 0.42394 0.60732 0.0
C1218 C 0.32595 0.1416 0.13392 0.0
C1219 C 0.32085 0.15569 0.08244 0.0
C1220 C 0.30866 0.16676 0.23185 0.0
C1221 C 0.31431 0.15296 0.28404 0.0
N1222 N 0.3291 0.12774 0.28938 0.0
N1223 N 0.3089 0.18241 0.08141 0.0
C1224 C 0.32317 0.14049 0.23607 0.0
C1225 C 0.31257 0.16847 0.13129 0.0
N1226 N 0.33324 0.12922 0.08392 0.0
N1227 N 0.2992 0.17799 0.27867 0.0
H1228 H 0.31138 0.18376 1.00761 0.0
H1229 H 0.30425 0.19291 0.11332 0.0
H1230 H 0.29652 0.17711 0.3525 0.0
H1231 H 0.29331 0.18763 0.24427 0.0
H1232 H 0.33627 0.11795 0.11362 0.0
H1233 H 0.33559 0.13001 1.0098 0.0
H1234 H 0.33683 0.11877 0.26231 0.0
H1235 H 0.32687 0.12655 0.36352 0.0
C1236 C 0.5828 0.55593 0.8775 0.0
C1237 C 0.59158 0.56855 0.83017 0.0
C1238 C 0.60416 0.57639 0.98546 0.0
C1239 C 0.59591 0.56334 0.03203 0.0
N1240 N 0.57876 0.53967 0.02363 0.0
N1241 N 0.61173 0.58975 0.83389 0.0
C1242 C 0.58561 0.55281 0.97813 0.0
C1243 C 0.6026 0.5785 0.88297 0.0
N1244 N 0.57142 0.54734 0.82624 0.0
N1245 N 0.61326 0.58688 0.04027 0.0
H1246 H 0.6107 0.59145 0.75909 0.0
H1247 H 0.62099 0.59667 0.86516 0.0
H1248 H 0.61462 0.58542 0.11498 0.0
H1249 H 0.61864 0.59747 1.01373 0.0
H1250 H 0.56342 0.53894 0.85706 0.0
H1251 H 0.56936 0.54931 0.75244 0.0
H1252 H 0.57235 0.53051 0.9879 0.0
H1253 H 0.58025 0.53749 0.09772 0.0
C1254 C 0.18533 0.83095 0.72314 0.0
C1255 C 0.17872 0.84462 0.77206 0.0
C1256 C 0.1655 0.8536 0.62051 0.0
C1257 C 0.17299 0.84049 0.57034 0.0
N1258 N 0.19172 0.81793 0.56967 0.0
N1259 N 0.16383 0.86978 0.76853 0.0
C1260 C 0.18336 0.82949 0.62075 0.0
C1261 C 0.16914 0.85619 0.72091 0.0
N1262 N 0.19318 0.81919 0.77569 0.0
N1263 N 0.15455 0.86321 0.57238 0.0
H1264 H 0.16605 0.87162 0.84225 0.0
H1265 H 0.15804 0.87955 0.73467 0.0
H1266 H 0.15189 0.86157 0.49898 0.0
H1267 H 0.14743 0.87208 0.60574 0.0
H1268 H 0.19692 0.80805 0.7471 0.0
H1269 H 0.19487 0.82006 0.85053 0.0
H1270 H 0.20075 0.81054 0.59954 0.0
H1271 H 0.19053 0.81655 0.49486 0.0
C1272 C 0.89406 0.57468 0.69127 0.0
C1273 C 0.90623 0.56591 0.74264 0.0
C1274 C 0.9145 0.55214 0.59183 0.0
C1275 C 0.90207 0.56062 0.54094 0.0
N1276 N 0.87931 0.57899 0.53987 0.0
N1277 N 0.92739 0.54575 0.74692 0.0
C1278 C 0.89164 0.57164 0.59027 0.0
C1279 C 0.91627 0.55444 0.6941 0.0
N1280 N 0.88512 0.58615 0.73958 0.0
N1281 N 0.92467 0.54206 0.54117 0.0
H1282 H 0.92897 0.54747 0.82134 0.0
H1283 H 0.93457 0.5364 0.71918 0.0
H1284 H 0.92336 0.54005 0.46684 0.0
H1285 H 0.93476 0.53618 0.57067 0.0
H1286 H 0.87696 0.59412 0.70655 0.0
H1287 H 0.88635 0.58811 0.81401 0.0
H1288 H 0.87026 0.58614 0.5712 0.0
H1289 H 0.87781 0.57741 0.46539 0.0
C1290 C 0.19038 0.16974 0.44471 0.0
C1291 C 0.18006 0.15858 0.49393 0.0
C1292 C 0.17671 0.14278 0.34363 0.0
C1293 C 0.18626 0.15445 0.29282 0.0
N1294 N 0.20163 0.17937 0.29114 0.0
N1295 N 0.16164 0.13584 0.48985 0.0
C1296 C 0.19293 0.16806 0.3425 0.0
C1297 C 0.17277 0.14544 0.44313 0.0
N1298 N 0.19784 0.1818 0.49676 0.0
N1299 N 0.17162 0.12902 0.2967 0.0
H1300 H 0.15873 0.1375 0.56271 0.0
H1301 H 0.15451 0.12706 0.45568 0.0
H1302 H 0.1739 0.12698 0.22337 0.0
H1303 H 0.16607 0.11917 0.33111 0.0
H1304 H 0.20652 0.18975 0.46857 0.0
H1305 H 0.19588 0.18333 0.57102 0.0
H1306 H 0.20578 0.19036 0.31958 0.0
H1307 H 0.20415 0.17802 0.21738 0.0
C1308 C 0.60552 0.43808 0.0723 0.0
C1309 C 0.59809 0.42689 1.00807 0.0
C1310 C 0.59289 0.40898 0.14719 0.0
C1311 C 0.59604 0.42208 0.21202 0.0
N1312 N 0.60403 0.4504 0.23001 0.0
N1313 N 0.58324 0.40165 0.98729 0.0
C1314 C 0.60239 0.43691 0.17341 0.0
C1315 C 0.59164 0.41211 0.04577 0.0
N1316 N 0.61519 0.45017 0.03569 0.0
N1317 N 0.59093 0.3936 0.18317 0.0
H1318 H 0.58133 0.40378 0.91376 0.0
H1319 H 0.57693 0.39155 1.01402 0.0
H1320 H 0.5924 0.39102 0.25688 0.0
H1321 H 0.58973 0.38336 0.13894 0.0
H1322 H 0.62197 0.45802 0.07946 0.0
H1323 H 0.61774 0.45103 0.96163 0.0
H1324 H 0.60693 0.46188 0.20229 0.0
H1325 H 0.60089 0.45056 0.30252 0.0
C1326 C 0.30832 0.82937 0.88442 0.0
C1327 C 0.31863 0.84041 0.93461 0.0
C1328 C 0.32405 0.85515 0.78251 0.0
C1329 C 0.3132 0.84452 0.73299 0.0
N1330 N 0.29357 0.82281 0.73607 0.0
N1331 N 0.33529 0.86445 0.93645 0.0
C1332 C 0.30497 0.83194 0.78387 0.0
C1333 C 0.3262 0.85351 0.88482 0.0
N1334 N 0.30211 0.81625 0.93314 0.0
N1335 N 0.33257 0.86651 0.73051 0.0
H1336 H 0.33727 0.86321 1.01084 0.0
H1337 H 0.34011 0.87516 0.90774 0.0
H1338 H 0.33102 0.86803 0.65599 0.0
H1339 H 0.34179 0.87377 0.75913 0.0
H1340 H 0.29579 0.80675 0.9 0.0
H1341 H 0.30404 0.81445 1.00723 0.0
H1342 H 0.28593 0.81439 0.76975 0.0
H1343 H 0.29106 0.82441 0.66243 0.0
C1344 C 0.58013 0.05778 0.08535 0.0
C1345 C 0.59357 0.06475 0.03555 0.0
C1346 C 0.60239 0.07828 0.18654 0.0
C1347 C 0.58943 0.07066 0.23754 0.0
N1348 N 0.5667 0.05216 0.2394 0.0
N1349 N 0.61842 0.08024 0.03813 0.0
C1350 C 0.57848 0.06013 0.1877 0.0
C1351 C 0.60499 0.07459 0.08627 0.0
N1352 N 0.56887 0.04907 0.03377 0.0
N1353 N 0.61176 0.08955 0.23358 0.0
H1354 H 0.62026 0.07816 0.9643 0.0
H1355 H 0.62812 0.08619 0.07164 0.0
H1356 H 0.60998 0.09242 0.30649 0.0
H1357 H 0.6205 0.0968 0.19973 0.0
H1358 H 0.55791 0.04483 0.06226 0.0
H1359 H 0.57011 0.04683 0.95966 0.0
H1360 H 0.55916 0.04315 0.21091 0.0
H1361 H 0.56516 0.05384 0.31375 0.0
C1362 C 0.17406 0.35846 0.30599 0.0
C1363 C 0.18222 0.34557 0.25749 0.0
C1364 C 0.18303 0.32982 0.4097 0.0
C1365 C 0.1755 0.34301 0.45905 0.0
N1366 N 0.16484 0.37022 0.45876 0.0
N1367 N 0.19596 0.31976 0.26224 0.0
C1368 C 0.17129 0.35744 0.40817 0.0
C1369 C 0.18707 0.33141 0.30923 0.0
N1370 N 0.16871 0.37152 0.25313 0.0
N1371 N 0.18591 0.31566 0.45914 0.0
H1372 H 0.1988 0.3206 0.18861 0.0
H1373 H 0.20128 0.30976 0.29641 0.0
H1374 H 0.18343 0.31441 0.53301 0.0
H1375 H 0.18994 0.30493 0.42681 0.0
H1376 H 0.16142 0.38081 0.28068 0.0
H1377 H 0.17086 0.37261 0.17886 0.0
H1378 H 0.1626 0.3817 0.42944 0.0
H1379 H 0.16251 0.36953 0.53296 0.0
C1380 C 0.91184 0.94263 0.56226 0.0
C1381 C 0.89879 0.93509 0.51161 0.0
C1382 C 0.89044 0.92093 0.66099 0.0
C1383 C 0.90303 0.92899 0.71272 0.0
N1384 N 0.92498 0.94831 0.71743 0.0
N1385 N 0.87423 0.91908 0.51374 0.0
C1386 C 0.91352 0.94012 0.66452 0.0
C1387 C 0.88765 0.92482 0.56149 0.0
N1388 N 0.92265 0.95206 0.51166 0.0
N1389 N 0.88147 0.90919 0.7069 0.0
H1390 H 0.87203 0.92159 0.44075 0.0
H1391 H 0.86473 0.91283 0.54732 0.0
H1392 H 0.88318 0.90633 0.77988 0.0
H1393 H 0.87319 0.90158 0.67195 0.0
H1394 H 0.93327 0.95694 0.54097 0.0
H1395 H 0.9213 0.95442 0.43767 0.0
H1396 H 0.93228 0.95762 0.69002 0.0
H1397 H 0.92663 0.9463 0.79158 0.0
C1398 C 0.32278 0.64049 0.78753 0.0
C1399 C 0.31522 0.65376 0.73897 0.0
C1400 C 0.31554 0.6696 0.8906 0.0
C1401 C 0.32217 0.65596 0.94027 0.0
N1402 N 0.33045 0.6279 0.94092 0.0
N1403 N 0.30282 0.68025 0.74379 0.0
C1404 C 0.32536 0.64125 0.88982 0.0
C1405 C 0.31121 0.66817 0.79049 0.0
N1406 N 0.32781 0.62733 0.73472 0.0
N1407 N 0.31381 0.68401 0.93915 0.0
H1408 H 0.29976 0.67952 0.67043 0.0
H1409 H 0.29806 0.69048 0.7783 0.0
H1410 H 0.31667 0.68521 1.01257 0.0
H1411 H 0.31052 0.69494 0.90609 0.0
H1412 H 0.33482 0.61786 0.76284 0.0
H1413 H 0.32593 0.62647 0.66007 0.0
H1414 H 0.33165 0.6163 0.91125 0.0
H1415 H 0.33238 0.62821 1.0157 0.0
C1416 C 0.58199 0.94277 0.97566 0.0
C1417 C 0.59514 0.93587 0.02853 0.0
C1418 C 0.60501 0.92232 0.88044 0.0
C1419 C 0.59213 0.92959 0.82702 0.0
N1420 N 0.56907 0.94753 0.81866 0.0
N1421 N 0.62011 0.92058 0.03229 0.0
C1422 C 0.58082 0.94009 0.87341 0.0
C1423 C 0.60694 0.92606 0.98098 0.0
N1424 N 0.57058 0.95175 0.02432 0.0
N1425 N 0.61513 0.91156 0.83467 0.0
H1426 H 0.62153 0.92281 0.10628 0.0
H1427 H 0.63002 0.91457 1.00159 0.0
H1428 H 0.61421 0.9091 0.76061 0.0
H1429 H 0.62387 0.90451 0.86985 0.0
H1430 H 0.55992 0.95624 0.99334 0.0
H1431 H 0.57149 0.95416 0.09846 0.0
H1432 H 0.56105 0.95632 0.84467 0.0
H1433 H 0.56784 0.94542 0.74438 0.0
C1434 C 0.30279 0.33131 0.19484 0.0
C1435 C 0.31033 0.34434 0.24548 0.0
C1436 C 0.323 0.35386 0.09365 0.0
C1437 C 0.31609 0.34039 0.04404 0.0
N1438 N 0.30073 0.31548 0.04585 0.0
N1439 N 0.32836 0.36742 0.24748 0.0
C1440 C 0.3063 0.32889 0.09436 0.0
C1441 C 0.32062 0.3555 0.19579 0.0
N1442 N 0.29188 0.32162 0.2428 0.0
N1443 N 0.33171 0.36511 0.04199 0.0
H1444 H 0.32655 0.36901 0.32172 0.0
H1445 H 0.33717 0.3752 0.21901 0.0
H1446 H 0.3339 0.36385 0.96787 0.0
H1447 H 0.33607 0.37603 0.07029 0.0
H1448 H 0.28473 0.31277 0.20938 0.0
H1449 H 0.28928 0.32311 0.31637 0.0
H1450 H 0.29485 0.3057 0.07902 0.0
H1451 H 0.30278 0.31375 0.97183 0.0
C1452 C 0.89191 0.07077 0.47041 0.0
C1453 C 0.90479 0.06326 0.52305 0.0
C1454 C 0.92132 0.06218 0.37394 0.0
C1455 C 0.90827 0.06928 0.32086 0.0
N1456 N 0.88064 0.07881 0.31389 0.0
N1457 N 0.9308 0.04984 0.52477 0.0
C1458 C 0.89338 0.07309 0.36797 0.0
C1459 C 0.91928 0.05848 0.47465 0.0
N1460 N 0.87845 0.07607 0.51958 0.0
N1461 N 0.93572 0.05916 0.32745 0.0
H1462 H 0.92956 0.04706 0.59827 0.0
H1463 H 0.94104 0.04459 0.49315 0.0
H1464 H 0.93717 0.0609 0.25294 0.0
H1465 H 0.94639 0.05559 0.36245 0.0
H1466 H 0.86918 0.08304 0.48885 0.0
H1467 H 0.87699 0.0743 0.59393 0.0
H1468 H 0.8689 0.0806 0.34052 0.0
H1469 H 0.8816 0.08084 0.2395 0.0
C1470 C 0.1907 0.66678 0.58957 0.0
C1471 C 0.17961 0.65642 0.54016 0.0
C1472 C 0.17405 0.64168 0.69249 0.0
C1473 C 0.18545 0.6518 0.74146 0.0
N1474 N 0.20595 0.67266 0.7374 0.0
N1475 N 0.1615 0.63345 0.53973 0.0
C1476 C 0.19413 0.66403 0.69002 0.0
C1477 C 0.1715 0.64368 0.59055 0.0
N1478 N 0.1976 0.67949 0.54018 0.0
N1479 N 0.16547 0.6304 0.74469 0.0
H1480 H 0.15921 0.63502 0.4659 0.0
H1481 H 0.15604 0.62306 0.56841 0.0
H1482 H 0.16746 0.62848 0.81849 0.0
H1483 H 0.15595 0.62341 0.71706 0.0
H1484 H 0.20469 0.68852 0.5723 0.0
H1485 H 0.19555 0.68144 0.46634 0.0
H1486 H 0.21385 0.68083 0.70372 0.0
H1487 H 0.20848 0.67093 0.81091 0.0
C1488 C 0.41862 0.93454 0.96163 0.0
C1489 C 0.4036 0.9316 1.00948 0.0
C1490 C 0.39174 0.9216 0.8567 0.0
C1491 C 0.4064 0.92562 0.80764 0.0
N1492 N 0.43294 0.93803 0.80849 0.0
N1493 N 0.37521 0.92455 1.00209 0.0
C1494 C 0.41964 0.93266 0.85898 0.0
C1495 C 0.38996 0.92571 0.95674 0.0
N1496 N 0.43192 0.93897 1.0152 0.0
N1497 N 0.37976 0.91344 0.80791 0.0
H1498 H 0.37373 0.92749 0.07511 0.0
H1499 H 0.36434 0.92182 0.96647 0.0
H1500 H 0.38077 0.91047 0.73453 0.0
H1501 H 0.36939 0.90867 0.84111 0.0
H1502 H 0.44367 0.93987 0.98702 0.0
H1503 H 0.43138 0.94056 0.09024 0.0
H1504 H 0.44245 0.94464 0.83946 0.0
H1505 H 0.43381 0.93702 0.7332 0.0
C1506 C 0.8088 0.6656 0.74025 0.0
C1507 C 0.81372 0.65142 0.7915 0.0
C1508 C 0.82456 0.63972 0.63984 0.0
C1509 C 0.82032 0.65421 0.58954 0.0
N1510 N 0.81001 0.68161 0.59145 0.0
N1511 N 0.82734 0.62552 0.79448 0.0
C1512 C 0.81286 0.66734 0.63986 0.0
C1513 C 0.82186 0.63859 0.74218 0.0
N1514 N 0.79978 0.67713 0.78749 0.0
N1515 N 0.83108 0.62704 0.58878 0.0
H1516 H 0.82535 0.62441 0.86891 0.0
H1517 H 0.8346 0.61627 0.76633 0.0
H1518 H 0.83352 0.62788 0.51476 0.0
H1519 H 0.83333 0.61552 0.61755 0.0
H1520 H 0.79434 0.68707 0.75341 0.0
H1521 H 0.7969 0.67618 0.86102 0.0
H1522 H 0.80614 0.69232 0.62476 0.0
H1523 H 0.81233 0.68296 0.51745 0.0
C1524 C 0.08547 0.05465 0.48612 0.0
C1525 C 0.09761 0.06375 0.53575 0.0
C1526 C 0.10387 0.0787 0.38522 0.0
C1527 C 0.09223 0.06915 0.3346 0.0
N1528 N 0.07268 0.0474 0.33211 0.0
N1529 N 0.11989 0.08281 0.53157 0.0
C1530 C 0.08324 0.0569 0.38395 0.0
C1531 C 0.10727 0.0753 0.48475 0.0
N1532 N 0.07607 0.04393 0.53757 0.0
N1533 N 0.11128 0.09137 0.33822 0.0
H1534 H 0.12241 0.08083 0.60465 0.0
H1535 H 0.12851 0.09014 0.49721 0.0
H1536 H 0.10912 0.09394 0.26532 0.0
H1537 H 0.11868 0.09997 0.37223 0.0
H1538 H 0.06606 0.03774 0.5092 0.0
H1539 H 0.07792 0.04169 0.61125 0.0
H1540 H 0.06653 0.03735 0.36023 0.0
H1541 H 0.07062 0.04918 0.25816 0.0
C1542 C 0.67075 0.35351 0.10321 0.0
C1543 C 0.67744 0.34 0.053 0.0
C1544 C 0.69076 0.33064 0.20314 0.0
C1545 C 0.6834 0.34369 0.25441 0.0
N1546 N 0.66556 0.36689 0.25778 0.0
N1547 N 0.69249 0.31491 0.05362 0.0
C1548 C 0.67319 0.35499 0.2054 0.0
C1549 C 0.68713 0.32835 0.10269 0.0
N1550 N 0.66224 0.36497 0.05203 0.0
N1551 N 0.70157 0.32077 0.25058 0.0
H1552 H 0.69034 0.31327 0.97965 0.0
H1553 H 0.6983 0.30505 0.08634 0.0
H1554 H 0.70421 0.32214 0.32419 0.0
H1555 H 0.70861 0.31189 0.2167 0.0
H1556 H 0.65808 0.37592 0.08094 0.0
H1557 H 0.66007 0.36387 0.97778 0.0
H1558 H 0.6568 0.37477 0.22971 0.0
H1559 H 0.6674 0.36834 0.33212 0.0
C1560 C 0.41617 0.05662 0.20626 0.0
C1561 C 0.40601 0.06774 0.25704 0.0
C1562 C 0.39087 0.07332 0.10612 0.0
C1563 C 0.40163 0.0629 0.05453 0.0
N1564 N 0.42518 0.04558 0.05118 0.0
N1565 N 0.38476 0.08785 0.25598 0.0
C1566 C 0.41447 0.0548 0.1037 0.0
C1567 C 0.39357 0.07635 0.20706 0.0
N1568 N 0.42727 0.04761 0.25728 0.0
N1569 N 0.37794 0.08007 0.05814 0.0
H1570 H 0.38638 0.09001 0.32991 0.0
H1571 H 0.37653 0.09578 0.22317 0.0
H1572 H 0.37612 0.0784 0.98393 0.0
H1573 H 0.36864 0.08658 0.09185 0.0
H1574 H 0.43415 0.03818 0.22784 0.0
H1575 H 0.42883 0.04889 0.33191 0.0
H1576 H 0.43575 0.04042 0.07954 0.0
H1577 H 0.42397 0.04389 0.97652 0.0
C1578 C 0.67119 0.64497 0.94316 0.0
C1579 C 0.67943 0.65749 0.9945 0.0
C1580 C 0.69397 0.66541 0.84539 0.0
C1581 C 0.68524 0.65334 0.7932 0.0
N1582 N 0.66553 0.63172 0.7884 0.0
N1583 N 0.69766 0.68038 0.99659 0.0
C1584 C 0.67385 0.6431 0.8413 0.0
C1585 C 0.69063 0.66789 0.94607 0.0
N1586 N 0.66092 0.63485 0.99303 0.0
N1587 N 0.70574 0.6742 0.79833 0.0
H1588 H 0.69563 0.68214 0.07058 0.0
H1589 H 0.70489 0.68941 0.96541 0.0
H1590 H 0.70813 0.67274 0.72448 0.0
H1591 H 0.71366 0.68229 0.83232 0.0
H1592 H 0.65507 0.62476 0.96347 0.0
H1593 H 0.65864 0.63629 0.06692 0.0
H1594 H 0.65621 0.62441 0.81542 0.0
H1595 H 0.66769 0.62989 0.7147 0.0
C1596 C 0.1035 0.94174 0.56139 0.0
C1597 C 0.09797 0.92915 0.49966 0.0
C1598 C 0.09627 0.91107 0.64086 0.0
C1599 C 0.09743 0.92469 0.70382 0.0
N1600 N 0.10203 0.95374 0.72048 0.0
N1601 N 0.08765 0.90175 0.48259 0.0
C1602 C 0.10144 0.94021 0.66352 0.0
C1603 C 0.09433 0.91361 0.5394 0.0
N1604 N 0.11031 0.95536 0.5213 0.0
N1605 N 0.09655 0.89572 0.67919 0.0
H1606 H 0.08507 0.90352 0.40944 0.0
H1607 H 0.0833 0.89074 0.51021 0.0
H1608 H 0.09823 0.89374 0.7534 0.0
H1609 H 0.09689 0.88522 0.63669 0.0
H1610 H 0.11585 0.96451 0.56213 0.0
H1611 H 0.11185 0.95656 0.44641 0.0
H1612 H 0.10281 0.96556 0.69307 0.0
H1613 H 0.10075 0.95325 0.79489 0.0
C1614 C 0.81154 0.32674 0.41764 0.0
C1615 C 0.81719 0.34042 0.47089 0.0
C1616 C 0.81533 0.35743 0.32406 0.0
C1617 C 0.81054 0.34354 0.26936 0.0
N1618 N 0.80466 0.31488 0.26069 0.0
N1619 N 0.82598 0.3683 0.47565 0.0
C1620 C 0.80886 0.32813 0.31538 0.0
C1621 C 0.81944 0.35566 0.42421 0.0
N1622 N 0.80836 0.31255 0.46628 0.0
N1623 N 0.8157 0.37236 0.28002 0.0
H1624 H 0.82855 0.36738 0.54946 0.0
H1625 H 0.82968 0.3793 0.44505 0.0
H1626 H 0.81338 0.37391 0.2063 0.0
H1627 H 0.81743 0.38331 0.31669 0.0
H1628 H 0.80302 0.30232 0.43503 0.0
H1629 H 0.81022 0.31135 0.54085 0.0
H1630 H 0.80459 0.30295 0.28635 0.0
H1631 H 0.80187 0.31577 0.18705 0.0
C1632 C 0.14693 0.61185 0.20382 0.0
C1633 C 0.1492 0.62312 0.12652 0.0
C1634 C 0.12542 0.61141 0.04254 0.0
C1635 C 0.12421 0.59925 0.11538 0.0
N1636 N 0.13566 0.58597 0.25598 0.0
N1637 N 0.14259 0.63133 0.96254 0.0
C1638 C 0.13559 0.59883 0.19285 0.0
C1639 C 0.13894 0.62232 0.04323 0.0
N1640 N 0.15481 0.61409 0.29021 0.0
N1641 N 0.11365 0.61257 0.97253 0.0
H1642 H 0.15271 0.63897 0.95801 0.0
H1643 H 0.1366 0.62996 0.8964 0.0
H1644 H 0.10399 0.60436 0.96688 0.0
H1645 H 0.11282 0.62233 0.92435 0.0
H1646 H 0.15226 0.60729 0.35229 0.0
H1647 H 0.16265 0.62385 0.30341 0.0
H1648 H 0.14486 0.58409 0.30698 0.0
H1649 H 0.12728 0.57644 0.25219 0.0
C1650 C 0.62642 0.89116 0.31466 0.0
C1651 C 0.62528 0.90052 0.40123 0.0
C1652 C 0.64993 0.88701 0.46347 0.0
C1653 C 0.64986 0.87637 0.38243 0.0
N1654 N 0.6372 0.86717 0.23449 0.0
N1655 N 0.63419 0.90502 0.56619 0.0
C1656 C 0.63782 0.87809 0.30922 0.0
C1657 C 0.63663 0.89791 0.4777 0.0
N1658 N 0.61718 0.89522 0.23567 0.0
N1659 N 0.66276 0.88678 0.52676 0.0
H1660 H 0.62426 0.91253 0.5814 0.0
H1661 H 0.64105 0.90215 0.62751 0.0
H1662 H 0.67257 0.87878 0.51973 0.0
H1663 H 0.66438 0.8955 0.58086 0.0
H1664 H 0.61876 0.89005 0.16735 0.0
H1665 H 0.60899 0.9049 0.23548 0.0
H1666 H 0.62753 0.86647 0.18566 0.0
H1667 H 0.64593 0.8581 0.2247 0.0
C1668 C 0.3558 0.37497 0.54211 0.0
C1669 C 0.34565 0.37424 0.62578 0.0
C1670 C 0.35933 0.39868 0.69008 0.0
C1671 C 0.37068 0.39814 0.61245 0.0
N1672 N 0.38099 0.38463 0.46979 0.0
N1673 N 0.34001 0.38365 0.78846 0.0
C1674 C 0.36932 0.3859 0.54024 0.0
C1675 C 0.34792 0.38571 0.702 0.0
N1676 N 0.35208 0.36584 0.46219 0.0
N1677 N 0.35944 0.41157 0.75288 0.0
H1678 H 0.3321 0.37398 0.80227 0.0
H1679 H 0.34256 0.39055 0.85004 0.0
H1680 H 0.36793 0.42102 0.74876 0.0
H1681 H 0.35031 0.41357 0.80403 0.0
H1682 H 0.35796 0.36716 0.39565 0.0
H1683 H 0.342 0.35814 0.45874 0.0
H1684 H 0.38178 0.37478 0.42235 0.0
H1685 H 0.3906 0.39287 0.46278 0.0
C1686 C 0.86891 0.10656 0.98832 0.0
C1687 C 0.87534 0.09956 0.90221 0.0
C1688 C 0.85694 0.11662 0.80371 0.0
C1689 C 0.85053 0.12369 0.88967 0.0
N1690 N 0.84887 0.12429 0.06395 0.0
N1691 N 0.87779 0.09993 0.72814 0.0
C1692 C 0.85621 0.11845 0.98208 0.0
C1693 C 0.86999 0.10515 0.80997 0.0
N1694 N 0.87556 0.10239 0.0759 0.0
N1695 N 0.85021 0.12049 0.71589 0.0
H1696 H 0.887 0.09121 0.72939 0.0
H1697 H 0.87608 0.10504 0.65975 0.0
H1698 H 0.84102 0.12913 0.70785 0.0
H1699 H 0.85281 0.11436 0.65165 0.0
H1700 H 0.87293 0.10817 0.14113 0.0
H1701 H 0.88471 0.09367 0.08298 0.0
H1702 H 0.85105 0.11993 0.13359 0.0
H1703 H 0.83962 0.13296 0.06193 0.0
C1704 C 0.13841 0.37812 0.96895 0.0
C1705 C 0.14802 0.37677 0.88337 0.0
C1706 C 0.13432 0.40101 0.81687 0.0
C1707 C 0.12343 0.40107 0.89686 0.0
N1708 N 0.11393 0.3886 0.04495 0.0
N1709 N 0.15267 0.3851 0.71742 0.0
C1710 C 0.12509 0.38925 0.97144 0.0
C1711 C 0.1454 0.38779 0.80516 0.0
N1712 N 0.14251 0.3694 0.04992 0.0
N1713 N 0.13419 0.41362 0.75207 0.0
H1714 H 0.16032 0.37522 0.70404 0.0
H1715 H 0.14979 0.39167 0.65501 0.0
H1716 H 0.12602 0.42331 0.75679 0.0
H1717 H 0.14303 0.41515 0.69855 0.0
H1718 H 0.13713 0.37119 0.11749 0.0
H1719 H 0.15247 0.36156 0.05252 0.0
H1720 H 0.11328 0.37905 0.0947 0.0
H1721 H 0.10458 0.39708 0.05243 0.0
C1722 C 0.86441 0.89255 0.21816 0.0
C1723 C 0.8693 0.89887 0.12668 0.0
C1724 C 0.8516 0.87886 0.04546 0.0
C1725 C 0.84554 0.87366 0.13692 0.0
N1726 N 0.84443 0.87723 0.31041 0.0
N1727 N 0.86575 0.8997 0.95313 0.0
C1728 C 0.85139 0.88105 0.22326 0.0
C1729 C 0.86231 0.89255 0.0403 0.0
N1730 N 0.87245 0.89723 0.30034 0.0
N1731 N 0.84744 0.87051 0.96341 0.0
H1732 H 0.87393 0.90936 0.94583 0.0
H1733 H 0.85955 0.89693 0.88927 0.0
H1734 H 0.83928 0.86077 0.96357 0.0
H1735 H 0.85302 0.87241 0.89648 0.0
H1736 H 0.87088 0.89156 0.36734 0.0
H1737 H 0.88165 0.906 0.30028 0.0
H1738 H 0.84675 0.88366 0.37405 0.0
H1739 H 0.83537 0.8684 0.31795 0.0
C1740 C 0.35914 0.62151 0.46253 0.0
C1741 C 0.34944 0.62208 0.37686 0.0
C1742 C 0.36226 0.59663 0.32172 0.0
C1743 C 0.37335 0.5973 0.40061 0.0
N1744 N 0.38351 0.61139 0.54175 0.0
N1745 N 0.34463 0.61198 0.21458 0.0
C1746 C 0.3722 0.61011 0.46933 0.0
C1747 C 0.3517 0.61008 0.30374 0.0
N1748 N 0.35535 0.63119 0.53993 0.0
N1749 N 0.36166 0.58313 0.26397 0.0
H1750 H 0.33757 0.62207 0.19586 0.0
H1751 H 0.34728 0.60448 0.15567 0.0
H1752 H 0.36939 0.57318 0.27331 0.0
H1753 H 0.35257 0.58126 0.21226 0.0
H1754 H 0.3608 0.63002 0.60784 0.0
H1755 H 0.34555 0.63923 0.53994 0.0
H1756 H 0.38453 0.62157 0.58653 0.0
H1757 H 0.39258 0.60272 0.55318 0.0
C1758 C 0.62532 0.10884 0.73778 0.0
C1759 C 0.62323 0.09951 0.65165 0.0
C1760 C 0.64794 0.1121 0.58363 0.0
C1761 C 0.64891 0.12269 0.66465 0.0
N1762 N 0.63732 0.13262 0.81404 0.0
N1763 N 0.63072 0.09493 0.4844 0.0
C1764 C 0.63718 0.12155 0.74005 0.0
C1765 C 0.63409 0.10181 0.57242 0.0
N1766 N 0.61668 0.10501 0.81946 0.0
N1767 N 0.66033 0.1117 0.51751 0.0
H1768 H 0.62037 0.0879 0.47161 0.0
H1769 H 0.63722 0.09763 0.42144 0.0
H1770 H 0.67051 0.11922 0.52241 0.0
H1771 H 0.66117 0.10297 0.46289 0.0
H1772 H 0.619 0.11016 0.88712 0.0
H1773 H 0.60829 0.0955 0.82243 0.0
H1774 H 0.62795 0.13367 0.86466 0.0
H1775 H 0.64631 0.14152 0.82106 0.0
C1776 C 0.84783 0.3827 0.98103 0.0
C1777 C 0.84479 0.37508 0.8905 0.0
C1778 C 0.86627 0.39175 0.81455 0.0
C1779 C 0.86979 0.39893 0.90622 0.0
N1780 N 0.86562 0.39961 0.0793 0.0
N1781 N 0.84869 0.37427 0.71776 0.0
C1782 C 0.8609 0.39408 0.99002 0.0
C1783 C 0.85338 0.38012 0.80631 0.0
N1784 N 0.8377 0.37956 0.05752 0.0
N1785 N 0.87548 0.39585 0.73555 0.0
H1786 H 0.83921 0.36595 0.70954 0.0
H1787 H 0.85317 0.37844 0.65169 0.0
H1788 H 0.88414 0.40509 0.73683 0.0
H1789 H 0.87516 0.38974 0.66951 0.0
H1790 H 0.83797 0.38598 0.12256 0.0
H1791 H 0.82792 0.37149 0.05274 0.0
H1792 H 0.86109 0.39505 0.1444 0.0
H1793 H 0.87508 0.40792 0.08926 0.0
C1794 C 0.36111 0.09717 0.73507 0.0
C1795 C 0.37252 0.0969 0.65779 0.0
C1796 C 0.35838 0.11997 0.5813 0.0
C1797 C 0.34818 0.12151 0.66435 0.0
N1798 N 0.34231 0.1134 0.82943 0.0
N1799 N 0.38344 0.10925 0.51292 0.0
C1800 C 0.35013 0.11053 0.74355 0.0
C1801 C 0.37162 0.10871 0.58274 0.0
N1802 N 0.36073 0.08466 0.80064 0.0
N1803 N 0.35496 0.12863 0.49899 0.0
H1804 H 0.39296 0.10084 0.50928 0.0
H1805 H 0.3845 0.11873 0.46287 0.0
H1806 H 0.34508 0.13654 0.49337 0.0
H1807 H 0.36086 0.12672 0.43306 0.0
H1808 H 0.35149 0.08326 0.85188 0.0
H1809 H 0.36888 0.07492 0.79875 0.0
H1810 H 0.34466 0.10682 0.89261 0.0
H1811 H 0.33477 0.12342 0.84097 0.0
C1812 C 0.62586 0.61151 0.49381 0.0
C1813 C 0.62486 0.59951 0.41988 0.0
C1814 C 0.64681 0.61339 0.3305 0.0
C1815 C 0.649 0.62439 0.40899 0.0
N1816 N 0.6423 0.63211 0.57334 0.0
N1817 N 0.63624 0.58747 0.27542 0.0
C1818 C 0.63891 0.62303 0.49269 0.0
C1819 C 0.63594 0.59996 0.34077 0.0
N1820 N 0.61433 0.61193 0.56536 0.0
N1821 N 0.65438 0.61626 0.24377 0.0
H1822 H 0.62816 0.57773 0.27849 0.0
H1823 H 0.6453 0.58614 0.223 0.0
H1824 H 0.66191 0.62629 0.2315 0.0
H1825 H 0.65184 0.60972 0.18082 0.0
H1826 H 0.6132 0.6215 0.61454 0.0
H1827 H 0.60511 0.60325 0.57148 0.0
H1828 H 0.63657 0.63037 0.63995 0.0
H1829 H 0.65195 0.64036 0.57701 0.0
C1830 C 0.14727 0.88522 0.08392 0.0
C1831 C 0.14589 0.87305 0.15663 0.0
C1832 C 0.11936 0.8844 0.20626 0.0
C1833 C 0.12023 0.89601 0.1289 0.0
N1834 N 0.13308 0.90398 0.97853 0.0
N1835 N 0.13004 0.85979 0.28111 0.0
C1836 C 0.13373 0.89555 0.06395 0.0
C1837 C 0.13173 0.87225 0.21568 0.0
N1838 N 0.16144 0.88682 0.03237 0.0
N1839 N 0.10718 0.88528 0.27376 0.0
H1840 H 0.13939 0.85161 0.29734 0.0
H1841 H 0.11911 0.85699 0.31584 0.0
H1842 H 0.09725 0.89306 0.2687 0.0
H1843 H 0.10736 0.87893 0.3392 0.0
H1844 H 0.16389 0.89675 0.98744 0.0
H1845 H 0.1713 0.87889 0.03933 0.0
H1846 H 0.14168 0.90279 0.9234 0.0
H1847 H 0.12288 0.91057 0.95721 0.0
C1848 C 0.87039 0.60696 0.07673 0.0
C1849 C 0.87171 0.59499 0.15083 0.0
C1850 C 0.85024 0.60891 0.24338 0.0
C1851 C 0.84794 0.62012 0.16579 0.0
N1852 N 0.85358 0.62746 0.99929 0.0
N1853 N 0.86051 0.58259 0.29477 0.0
C1854 C 0.85744 0.61854 0.0799 0.0
C1855 C 0.86083 0.59531 0.23079 0.0
N1856 N 0.88154 0.60731 1.0031 0.0
N1857 N 0.84314 0.61174 0.33147 0.0
H1858 H 0.86826 0.57258 0.28895 0.0
H1859 H 0.85163 0.58129 0.34827 0.0
H1860 H 0.83594 0.62192 0.34564 0.0
H1861 H 0.84581 0.60495 0.39344 0.0
H1862 H 0.88248 0.6169 0.95373 0.0
H1863 H 0.89056 0.59849 0.99498 0.0
H1864 H 0.85887 0.62555 0.93158 0.0
H1865 H 0.84389 0.63563 0.99709 0.0
C1866 C 0.14418 0.11976 1.0037 0.0
C1867 C 0.15013 0.1248 0.91164 0.0
C1868 C 0.12978 0.10726 0.83224 0.0
C1869 C 0.12512 0.10086 0.92395 0.0
N1870 N 0.12921 0.09964 0.09708 0.0
N1871 N 0.15008 0.12178 0.73778 0.0
C1872 C 0.13276 0.10668 1.00969 0.0
C1873 C 0.14337 0.11807 0.82578 0.0
N1874 N 0.14917 0.1277 0.08555 0.0
N1875 N 0.12106 0.10328 0.75116 0.0
H1876 H 0.15967 0.13001 0.72969 0.0
H1877 H 0.14702 0.11574 0.67387 0.0
H1878 H 0.11144 0.09499 0.7517 0.0
H1879 H 0.12253 0.10918 0.68475 0.0
H1880 H 0.1438 0.12599 0.15327 0.0
H1881 H 0.15785 0.13697 0.08459 0.0
H1882 H 0.13581 0.10191 0.16022 0.0
H1883 H 0.12032 0.09065 0.1054 0.0
C1884 C 0.62453 0.38561 0.55103 0.0
C1885 C 0.62398 0.39837 0.62051 0.0
C1886 C 0.64691 0.38589 0.70776 0.0
C1887 C 0.64847 0.37396 0.6336 0.0
N1888 N 0.64104 0.36506 0.47234 0.0
N1889 N 0.6372 0.41273 0.75196 0.0
C1890 C 0.63788 0.3745 0.55181 0.0
C1891 C 0.63603 0.39923 0.69438 0.0
N1892 N 0.61237 0.3841 0.48368 0.0
N1893 N 0.655 0.38402 0.79384 0.0
H1894 H 0.62951 0.42278 0.74517 0.0
H1895 H 0.64682 0.41462 0.80017 0.0
H1896 H 0.66238 0.37402 0.80941 0.0
H1897 H 0.65292 0.39143 0.85393 0.0
H1898 H 0.6111 0.37392 0.43908 0.0
H1899 H 0.60288 0.39246 0.47655 0.0
H1900 H 0.63478 0.36622 0.40691 0.0
H1901 H 0.65107 0.35732 0.46758 0.0
C1902 C 0.37334 0.88392 0.44014 0.0
C1903 C 0.37419 0.89721 0.37421 0.0
C1904 C 0.35147 0.88542 0.2814 0.0
C1905 C 0.34935 0.87325 0.35387 0.0
N1906 N 0.3562 0.86343 0.51442 0.0
N1907 N 0.36214 0.91213 0.2412 0.0
C1908 C 0.35977 0.87312 0.43644 0.0
C1909 C 0.36261 0.89847 0.29792 0.0
N1910 N 0.38541 0.88158 0.50699 0.0
N1911 N 0.3436 0.88409 0.19434 0.0
H1912 H 0.37038 0.92174 0.24856 0.0
H1913 H 0.35275 0.91448 0.19214 0.0
H1914 H 0.33599 0.87433 0.177 0.0
H1915 H 0.34601 0.8917 0.13542 0.0
H1916 H 0.38637 0.87107 0.54919 0.0
H1917 H 0.39524 0.88947 0.51449 0.0
H1918 H 0.36236 0.86418 0.58039 0.0
H1919 H 0.34594 0.85597 0.51783 0.0
C1920 C 0.08279 0.48991 0.03455 0.0
C1921 C 0.08415 0.48529 0.9351 0.0
C1922 C 0.08731 0.51419 0.88898 0.0
C1923 C 0.08438 0.5189 0.98664 0.0
N1924 N 0.08067 0.51146 0.15461 0.0
N1925 N 0.08923 0.49283 0.76828 0.0
C1926 C 0.08287 0.5068 0.0603 0.0
C1927 C 0.0869 0.4974 0.86274 0.0
N1928 N 0.08123 0.47819 0.10475 0.0
N1929 N 0.09135 0.52583 0.82201 0.0
H1930 H 0.0918 0.4809 0.74755 0.0
H1931 H 0.08842 0.50071 0.70931 0.0
H1932 H 0.09199 0.53814 0.83871 0.0
H1933 H 0.09527 0.52347 0.75174 0.0
H1934 H 0.08277 0.48029 0.17854 0.0
H1935 H 0.07876 0.46602 0.09025 0.0
H1936 H 0.07674 0.50376 0.20988 0.0
H1937 H 0.08263 0.52328 0.1789 0.0
C1938 C 0.73624 0.84723 0.22771 0.0
C1939 C 0.72867 0.83208 0.25108 0.0
C1940 C 0.75379 0.81766 0.20528 0.0
C1941 C 0.76171 0.83282 0.18771 0.0
N1942 N 0.76136 0.86222 0.20157 0.0
N1943 N 0.73211 0.80351 0.2891 0.0
C1944 C 0.75327 0.84765 0.2061 0.0
C1945 C 0.738 0.81749 0.24771 0.0
N1946 N 0.72707 0.8611 0.2194 0.0
N1947 N 0.76116 0.80329 0.18074 0.0
H1948 H 0.7209 0.80291 0.32429 0.0
H1949 H 0.73911 0.79301 0.29841 0.0
H1950 H 0.77298 0.8025 0.15406 0.0
H1951 H 0.75503 0.79214 0.18008 0.0
H1952 H 0.73158 0.87198 0.19082 0.0
H1953 H 0.71458 0.86152 0.23241 0.0
H1954 H 0.75632 0.87316 0.22568 0.0
H1955 H 0.77354 0.86329 0.18128 0.0
C1956 C 0.39612 0.50504 0.4697 0.0
C1957 C 0.41155 0.51301 0.46402 0.0
C1958 C 0.42457 0.48822 0.52719 0.0
C1959 C 0.40996 0.47945 0.51179 0.0
N1960 N 0.38155 0.47919 0.46838 0.0
N1961 N 0.44091 0.51156 0.48323 0.0
C1962 C 0.39557 0.48781 0.48421 0.0
C1963 C 0.42591 0.50444 0.49198 0.0
N1964 N 0.38202 0.51381 0.46112 0.0
N1965 N 0.43697 0.48118 0.57828 0.0
H1966 H 0.44258 0.52353 0.46044 0.0
H1967 H 0.45181 0.50516 0.49189 0.0
H1968 H 0.43557 0.4699 0.612 0.0
H1969 H 0.44754 0.48738 0.59848 0.0
H1970 H 0.37049 0.50886 0.4732 0.0
H1971 H 0.38183 0.5264 0.45154 0.0
H1972 H 0.37117 0.48419 0.43639 0.0
H1973 H 0.38061 0.46672 0.48284 0.0
C1974 C 0.76294 0.14975 0.69835 0.0
C1975 C 0.76773 0.16221 0.764 0.0
C1976 C 0.73882 0.16846 0.79118 0.0
C1977 C 0.73448 0.15894 0.70929 0.0
N1978 N 0.74292 0.14086 0.58056 0.0
N1979 N 0.7598 0.18487 0.86585 0.0
C1980 C 0.74671 0.14968 0.66147 0.0
C1981 C 0.75554 0.17201 0.80836 0.0
N1982 N 0.77365 0.13774 0.67284 0.0
N1983 N 0.72716 0.17373 0.85442 0.0
H1984 H 0.77184 0.1879 0.88105 0.0
H1985 H 0.75135 0.19336 0.89132 0.0
H1986 H 0.71506 0.17001 0.84994 0.0
H1987 H 0.72992 0.17975 0.91894 0.0
H1988 H 0.77034 0.1277 0.63094 0.0
H1989 H 0.7852 0.13666 0.70356 0.0
H1990 H 0.75173 0.13549 0.53643 0.0
H1991 H 0.73106 0.13978 0.55421 0.0
C1992 C 0.8987 0.48544 0.07332 0.0
C1993 C 0.91392 0.47794 0.05086 0.0
C1994 C 0.92813 0.50324 0.09586 0.0
C1995 C 0.9129 0.5111 0.11206 0.0
N1996 N 0.88352 0.51051 0.09627 0.0
N1997 N 0.94247 0.48166 1.01281 0.0
C1998 C 0.89815 0.50251 0.09346 0.0
C1999 C 0.92844 0.48742 0.05404 0.0
N2000 N 0.88487 0.47621 0.08207 0.0
N2001 N 0.94244 0.51072 0.12096 0.0
H2002 H 0.94313 0.47049 0.97733 0.0
H2003 H 0.95292 0.48875 1.00365 0.0
H2004 H 0.94312 0.52254 0.14761 0.0
H2005 H 0.95362 0.50466 0.1223 0.0
H2006 H 0.87396 0.48072 0.11005 0.0
H2007 H 0.88451 0.46369 0.07025 0.0
H2008 H 0.87265 0.50534 0.07194 0.0
H2009 H 0.88236 0.52274 0.11513 0.0
C2010 C 0.24373 0.1495 0.84177 0.0
C2011 C 0.23511 0.1643 0.85825 0.0
C2012 C 0.25881 0.17965 0.79814 0.0
C2013 C 0.26833 0.16518 0.7975 0.0
N2014 N 0.27009 0.13626 0.83266 0.0
N2015 N 0.23555 0.19386 0.86349 0.0
C2016 C 0.26083 0.15002 0.82184 0.0
C2017 C 0.24298 0.17947 0.83997 0.0
N2018 N 0.23574 0.13488 0.84664 0.0
N2019 N 0.26456 0.19352 0.75479 0.0
H2020 H 0.22378 0.19464 0.89081 0.0
H2021 H 0.24163 0.20503 0.86312 0.0
H2022 H 0.27575 0.19406 0.71945 0.0
H2023 H 0.25743 0.20389 0.74383 0.0
H2024 H 0.24095 0.12393 0.8241 0.0
H2025 H 0.22349 0.13379 0.86541 0.0
H2026 H 0.26558 0.12544 0.86188 0.0
H2027 H 0.28263 0.13591 0.82124 0.0
C2028 C 0.57976 0.49068 0.55808 0.0
C2029 C 0.58924 0.47952 0.5035 0.0
C2030 C 0.6 0.50196 0.40562 0.0
C2031 C 0.59064 0.51327 0.46038 0.0
N2032 N 0.57656 0.51865 0.61111 0.0
N2033 N 0.613 0.47544 0.40444 0.0
C2034 C 0.58215 0.50775 0.54422 0.0
C2035 C 0.60083 0.48546 0.43629 0.0
N2036 N 0.56796 0.4851 0.61963 0.0
N2037 N 0.60789 0.5068 0.32331 0.0
H2038 H 0.6144 0.46356 0.43073 0.0
H2039 H 0.62264 0.47946 0.36128 0.0
H2040 H 0.60815 0.51885 0.29992 0.0
H2041 H 0.61327 0.49861 0.27515 0.0
H2042 H 0.55948 0.49272 0.65295 0.0
H2043 H 0.56586 0.47272 0.63145 0.0
H2044 H 0.57134 0.51515 0.67681 0.0
H2045 H 0.5791 0.53107 0.60697 0.0
C2046 C 0.25525 0.85296 0.30536 0.0
C2047 C 0.26336 0.8376 0.307 0.0
C2048 C 0.23846 0.82469 0.24525 0.0
C2049 C 0.22962 0.83909 0.26438 0.0
N2050 N 0.22927 0.86725 0.31289 0.0
N2051 N 0.26169 0.80823 0.2885 0.0
C2052 C 0.23795 0.8534 0.29353 0.0
C2053 C 0.25471 0.82328 0.27934 0.0
N2054 N 0.26397 0.86705 0.31567 0.0
N2055 N 0.23143 0.8125 0.19253 0.0
H2056 H 0.27343 0.80646 0.31472 0.0
H2057 H 0.25522 0.79741 0.27866 0.0
H2058 H 0.22009 0.81399 0.1596 0.0
H2059 H 0.23771 0.8021 0.17021 0.0
H2060 H 0.25891 0.87861 0.30679 0.0
H2061 H 0.27659 0.8672 0.32399 0.0
H2062 H 0.23431 0.87752 0.34566 0.0
H2063 H 0.21673 0.8681 0.30031 0.0
C2064 C 0.58775 0.99702 0.38861 0.0
C2065 C 0.58566 0.98473 0.46062 0.0
C2066 C 0.58426 0.00603 0.58716 0.0
C2067 C 0.58518 0.01829 0.51398 0.0
N2068 N 0.59138 0.02557 0.3487 0.0
N2069 N 0.58355 0.9773 0.63003 0.0
C2070 C 0.58787 0.01377 0.41572 0.0
C2071 C 0.58456 0.98917 0.56045 0.0
N2072 N 0.58963 0.99268 0.29343 0.0
N2073 N 0.58223 0.01049 0.68196 0.0
H2074 H 0.58142 0.96509 0.61475 0.0
H2075 H 0.58521 0.9793 0.70382 0.0
H2076 H 0.5838 0.02235 0.7066 0.0
H2077 H 0.57881 0.00259 0.73736 0.0
H2078 H 0.58824 0.00065 0.23525 0.0
H2079 H 0.59232 0.98085 0.27134 0.0
H2080 H 0.59529 0.02335 0.27823 0.0
H2081 H 0.5916 0.03787 0.36549 0.0
C2082 C 0.23537 0.34878 0.71612 0.0
C2083 C 0.22794 0.33361 0.74112 0.0
C2084 C 0.25317 0.31933 0.69608 0.0
C2085 C 0.26098 0.3345 0.67743 0.0
N2086 N 0.26038 0.36391 0.68857 0.0
N2087 N 0.23183 0.30526 0.78315 0.0
C2088 C 0.2524 0.3493 0.6945 0.0
C2089 C 0.23746 0.31914 0.73939 0.0
N2090 N 0.22608 0.36254 0.7063 0.0
N2091 N 0.26054 0.30496 0.67158 0.0
H2092 H 0.22075 0.30471 0.81975 0.0
H2093 H 0.23897 0.29487 0.79319 0.0
H2094 H 0.27223 0.30421 0.64277 0.0
H2095 H 0.25448 0.29378 0.6725 0.0
H2096 H 0.23051 0.37337 0.67666 0.0
H2097 H 0.21359 0.36291 0.71912 0.0
H2098 H 0.25525 0.37488 0.71156 0.0
H2099 H 0.27256 0.365 0.66812 0.0
C2100 C 0.91173 0.9887 0.98966 0.0
C2101 C 0.90914 0.9839 0.08782 0.0
C2102 C 0.91154 0.01255 0.13863 0.0
C2103 C 0.91333 0.01753 0.04024 0.0
N2104 N 0.91143 0.01034 0.87017 0.0
N2105 N 0.90109 0.99211 0.2488 0.0
C2106 C 0.91209 0.00564 0.96521 0.0
C2107 C 0.9074 0.9961 0.1601 0.0
N2108 N 0.91489 0.97728 0.92005 0.0
N2109 N 0.91388 0.02339 0.21262 0.0
H2110 H 0.89709 0.98039 0.26589 0.0
H2111 H 0.89797 0.00075 0.301 0.0
H2112 H 0.9162 0.03572 0.20219 0.0
H2113 H 0.91477 0.01984 0.28507 0.0
H2114 H 0.91914 0.9802 0.85097 0.0
H2115 H 0.91454 0.9648 0.93235 0.0
H2116 H 0.90837 0.0024 0.81406 0.0
H2117 H 0.91264 0.02235 0.84723 0.0
C2118 C 0.26315 0.64966 0.16678 0.0
C2119 C 0.26808 0.66204 0.23265 0.0
C2120 C 0.23925 0.66851 0.26064 0.0
C2121 C 0.23477 0.65908 0.17868 0.0
N2122 N 0.24292 0.64095 0.04962 0.0
N2123 N 0.26039 0.68479 0.33453 0.0
C2124 C 0.24688 0.64973 0.13041 0.0
C2125 C 0.25601 0.67193 0.27735 0.0
N2126 N 0.27376 0.63761 0.14064 0.0
N2127 N 0.22768 0.67378 0.32445 0.0
H2128 H 0.27248 0.68781 0.34863 0.0
H2129 H 0.25201 0.69329 0.36049 0.0
H2130 H 0.21558 0.67003 0.32048 0.0
H2131 H 0.23053 0.67977 0.38894 0.0
H2132 H 0.27036 0.62762 0.09855 0.0
H2133 H 0.28534 0.63646 0.17094 0.0
H2134 H 0.25163 0.6355 1.00515 0.0
H2135 H 0.23101 0.63996 0.02384 0.0
C2136 C 0.40388 0.01083 0.45201 0.0
C2137 C 0.41062 0.01541 0.54292 0.0
C2138 C 0.41477 0.9864 0.58188 0.0
C2139 C 0.40826 0.98213 0.49012 0.0
N2140 N 0.38853 0.98984 0.37032 0.0
N2141 N 0.41673 0.00706 0.70723 0.0
C2142 C 0.4004 0.9942 0.43433 0.0
C2143 C 0.41426 0.00305 0.61236 0.0
N2144 N 0.40078 0.02217 0.38202 0.0
N2145 N 0.42145 0.97464 0.63956 0.0
H2146 H 0.41509 0.01885 0.73313 0.0
H2147 H 0.41835 -0.00156 0.76199 0.0
H2148 H 0.42036 0.96228 0.62353 0.0
H2149 H 0.42826 0.9772 0.70153 0.0
H2150 H 0.39728 0.01902 0.31173 0.0
H2151 H 0.403 0.03452 0.39182 0.0
H2152 H 0.38175 -0.00171 0.33066 0.0
H2153 H 0.38357 0.97813 0.37192 0.0
C2154 C 0.73928 0.66343 0.26746 0.0
C2155 C 0.7347 0.6613 0.36639 0.0
C2156 C 0.76365 0.66135 0.41289 0.0
C2157 C 0.76835 0.66255 0.31366 0.0
N2158 N 0.76025 0.66092 0.14489 0.0
N2159 N 0.74294 0.65269 0.52654 0.0
C2160 C 0.75606 0.66221 0.24049 0.0
C2161 C 0.74702 0.65861 0.43699 0.0
N2162 N 0.72789 0.66766 0.19947 0.0
N2163 N 0.77494 0.66295 0.48521 0.0
H2164 H 0.73101 0.64966 0.54564 0.0
H2165 H 0.75154 0.64892 0.57752 0.0
H2166 H 0.78736 0.66424 0.47282 0.0
H2167 H 0.77179 0.66426 0.55803 0.0
H2168 H 0.73089 0.6715 0.12963 0.0
H2169 H 0.71552 0.66874 0.21403 0.0
H2170 H 0.75179 0.65855 0.09025 0.0
H2171 H 0.77222 0.6608 0.12021 0.0
C2172 C 0.1029 0.98615 0.93858 0.0
C2173 C 0.09108 0.9803 1.00473 0.0
C2174 C 0.08444 0.00854 0.04758 0.0
C2175 C 0.09311 0.01406 0.96444 0.0
N2176 N 0.11101 0.00786 0.8302 0.0
N2177 N 0.06994 0.98597 0.12163 0.0
C2178 C 0.10256 0.00279 0.91008 0.0
C2179 C 0.08181 0.9915 0.06036 0.0
N2180 N 0.11474 0.97586 0.90541 0.0
N2181 N 0.07888 0.01942 0.1147 0.0
H2182 H 0.06775 0.97362 0.13327 0.0
H2183 H 0.06154 0.99364 0.15528 0.0
H2184 H 0.08153 0.03181 0.11122 0.0
H2185 H 0.07354 0.0159 0.18005 0.0
H2186 H 0.12454 0.97971 0.86298 0.0
H2187 H 0.11567 0.96382 0.92953 0.0
H2188 H 0.11642 -0.00018 0.78133 0.0
H2189 H 0.11187 0.02006 0.81008 0.0
C2190 C 0.73984 0.31751 0.70833 0.0
C2191 C 0.73227 0.33277 0.68858 0.0
C2192 C 0.75806 0.34676 0.7268 0.0
C2193 C 0.76527 0.33153 0.75253 0.0
N2194 N 0.76102 0.30329 0.79611 0.0
N2195 N 0.73329 0.3622 0.69869 0.0
C2196 C 0.75557 0.31717 0.75156 0.0
C2197 C 0.74105 0.34747 0.70508 0.0
N2198 N 0.73219 0.30321 0.68521 0.0
N2199 N 0.76751 0.36041 0.71651 0.0
H2200 H 0.72113 0.36345 0.67812 0.0
H2201 H 0.73856 0.3731 0.72156 0.0
H2202 H 0.77998 0.36071 0.72999 0.0
H2203 H 0.76324 0.37122 0.68593 0.0
H2204 H 0.73806 0.29194 0.68678 0.0
H2205 H 0.72044 0.30259 0.65718 0.0
H2206 H 0.75377 0.293 0.80654 0.0
H2207 H 0.77209 0.30269 0.83298 0.0
C2208 C 0.00713 0.56619 0.26605 0.0
C2209 C 0.01554 0.57054 0.17977 0.0
C2210 C 0.9894 0.57601 0.09906 0.0
C2211 C 0.98102 0.56974 0.18104 0.0
N2212 N 0.98175 0.55711 0.33908 0.0
N2213 N 0.01475 0.5772 1.00907 0.0
C2214 C 0.98983 0.56442 0.26396 0.0
C2215 C 0.0067 0.57488 0.09492 0.0
N2216 N 0.01567 0.56412 0.3504 0.0
N2217 N 0.98084 0.58338 0.02596 0.0
H2218 H 0.02739 0.57635 1.00229 0.0
H2219 H 0.0088 0.57854 0.94274 0.0
H2220 H 0.96816 0.58452 0.02674 0.0
H2221 H 0.98637 0.5897 0.96922 0.0
H2222 H 0.01013 0.56258 0.41777 0.0
H2223 H 0.02833 0.56535 0.3544 0.0
H2224 H 0.98763 0.55132 0.39655 0.0
H2225 H 0.96909 0.55574 0.34056 0.0
C2226 C 0.68286 0.74097 0.51855 0.0
C2227 C 0.67814 0.7326 0.43283 0.0
C2228 C 0.67425 0.75873 0.34925 0.0
C2229 C 0.67768 0.76712 0.43704 0.0
N2230 N 0.68235 0.7663 0.60963 0.0
N2231 N 0.66587 0.73342 0.27377 0.0
C2232 C 0.68114 0.75825 0.52314 0.0
C2233 C 0.67279 0.74147 0.35028 0.0
N2234 N 0.68958 0.7325 0.59415 0.0
N2235 N 0.67309 0.76718 0.26389 0.0
H2236 H 0.66437 0.72078 0.27235 0.0
H2237 H 0.6602 0.73937 0.21608 0.0
H2238 H 0.67435 0.77982 0.25929 0.0
H2239 H 0.67241 0.76153 0.19637 0.0
H2240 H 0.69489 0.7381 0.65413 0.0
H2241 H 0.69105 0.71986 0.59353 0.0
H2242 H 0.68318 0.76037 0.67631 0.0
H2243 H 0.68109 0.77892 0.61562 0.0
C2244 C 0.48921 0.41131 0.60629 0.0
C2245 C 0.48044 0.42004 0.67831 0.0
C2246 C 0.50613 0.42957 0.75049 0.0
C2247 C 0.51488 0.42103 0.67763 0.0
N2248 N 0.51535 0.4013 0.54829 0.0
N2249 N 0.48007 0.43475 0.82923 0.0
C2250 C 0.50658 0.41105 0.60954 0.0
C2251 C 0.48879 0.42826 0.75402 0.0
N2252 N 0.4809 0.40385 0.53254 0.0
N2253 N 0.51439 0.43937 0.81395 0.0
H2254 H 0.46736 0.43414 0.8329 0.0
H2255 H 0.48536 0.43961 0.89146 0.0
H2256 H 0.52711 0.44008 0.81574 0.0
H2257 H 0.50875 0.44741 0.86167 0.0
H2258 H 0.48647 0.39905 0.47105 0.0
H2259 H 0.46819 0.40315 0.53021 0.0
H2260 H 0.51014 0.39248 0.5037 0.0
H2261 H 0.52807 0.40112 0.54704 0.0
C2262 C 0.8195 0.25721 1.01312 0.0
C2263 C 0.81347 0.2658 0.93102 0.0
C2264 C 0.80851 0.23991 0.84627 0.0
C2265 C 0.81418 0.2313 0.92916 0.0
N2266 N 0.8229 0.23119 0.09597 0.0
N2267 N 0.80009 0.26569 0.77516 0.0
C2268 C 0.81902 0.23981 1.01409 0.0
C2269 C 0.80729 0.25723 0.84935 0.0
N2270 N 0.82598 0.26574 0.08916 0.0
N2271 N 0.80474 0.23149 0.76352 0.0
H2272 H 0.79959 0.2784 0.77256 0.0
H2273 H 0.79362 0.26021 0.71898 0.0
H2274 H 0.80476 0.21878 0.75963 0.0
H2275 H 0.80248 0.23701 0.69684 0.0
H2276 H 0.83227 0.26037 0.1465 0.0
H2277 H 0.82583 0.27845 0.09272 0.0
H2278 H 0.82493 0.23651 0.1634 0.0
H2279 H 0.82304 0.21847 0.09827 0.0
C2280 C 0.98812 0.43001 0.78778 0.0
C2281 C 0.97951 0.42698 0.87533 0.0
C2282 C 0.00543 0.42223 0.95973 0.0
C2283 C 0.01406 0.42733 0.87578 0.0
N2284 N 0.01361 0.43834 0.71331 0.0
N2285 N 0.98006 0.4232 0.04917 0.0
C2286 C 0.00541 0.43179 0.79043 0.0
C2287 C 0.98818 0.42387 0.96262 0.0
N2288 N 0.97985 0.43073 0.70178 0.0
N2289 N 0.01368 0.41542 0.03591 0.0
H2290 H 0.96746 0.42473 0.05519 0.0
H2291 H 0.98598 0.42272 0.11601 0.0
H2292 H 0.02629 0.41371 0.03574 0.0
H2293 H 0.00785 0.40998 0.09485 0.0
H2294 H 0.98562 0.43123 0.63454 0.0
H2295 H 0.96722 0.42931 0.69699 0.0
H2296 H 0.00778 0.44346 0.65346 0.0
H2297 H 0.02625 0.4399 0.71251 0.0
C2298 C 0.82434 0.75576 0.20861 0.0
C2299 C 0.8192 0.76411 0.12368 0.0
C2300 C 0.81621 0.73785 0.03965 0.0
C2301 C 0.8193 0.72954 0.12826 0.0
N2302 N 0.82342 0.73073 0.30165 0.0
N2303 N 0.80804 0.76312 0.96179 0.0
C2304 C 0.82262 0.73853 0.21404 0.0
C2305 C 0.81458 0.75517 0.03984 0.0
N2306 N 0.83127 0.76427 0.28331 0.0
N2307 N 0.8153 0.72926 0.95493 0.0
H2308 H 0.80663 0.77576 0.95912 0.0
H2309 H 0.80278 0.7571 0.90305 0.0
H2310 H 0.81659 0.7166 0.95192 0.0
H2311 H 0.81474 0.73477 0.88689 0.0
H2312 H 0.83675 0.75865 0.34282 0.0
H2313 H 0.83301 0.77687 0.28132 0.0
H2314 H 0.82404 0.73688 0.36761 0.0
H2315 H 0.82187 0.71816 0.3095 0.0
C2316 C 0.49098 0.57923 0.45462 0.0
C2317 C 0.48237 0.56896 0.3894 0.0
C2318 C 0.50827 0.55995 0.31736 0.0
C2319 C 0.51688 0.56899 0.38865 0.0
N2320 N 0.51683 0.58617 0.53047 0.0
N2321 N 0.48241 0.54854 0.26385 0.0
C2322 C 0.50834 0.57842 0.4585 0.0
C2323 C 0.49091 0.55909 0.32176 0.0
N2324 N 0.48254 0.58992 0.51179 0.0
N2325 N 0.51672 0.5524 0.24462 0.0
H2326 H 0.46969 0.54795 0.26296 0.0
H2327 H 0.48789 0.53965 0.221 0.0
H2328 H 0.52944 0.55254 0.24036 0.0
H2329 H 0.51121 0.54703 0.18459 0.0
H2330 H 0.48805 0.59899 0.55319 0.0
H2331 H 0.46982 0.59057 0.51257 0.0
H2332 H 0.51134 0.59161 0.59031 0.0
H2333 H 0.52955 0.58631 0.53391 0.0
C2334 C 0.66709 0.23893 0.69194 0.0
C2335 C 0.67668 0.23055 0.62222 0.0
C2336 C 0.68564 0.25659 0.55225 0.0
C2337 C 0.67572 0.26495 0.62032 0.0
N2338 N 0.65491 0.26449 0.74375 0.0
N2339 N 0.69284 0.23084 0.47636 0.0
C2340 C 0.66576 0.25622 0.68667 0.0
C2341 C 0.68526 0.23923 0.54922 0.0
N2342 N 0.65972 0.23038 0.76517 0.0
N2343 N 0.69584 0.26525 0.49283 0.0
H2344 H 0.69303 0.21812 0.47306 0.0
H2345 H 0.69789 0.23638 0.41535 0.0
H2346 H 0.69604 0.27798 0.4908 0.0
H2347 H 0.70478 0.25994 0.44965 0.0
H2348 H 0.6542 0.23584 0.82484 0.0
H2349 H 0.66 0.21768 0.76979 0.0
H2350 H 0.64608 0.25881 0.78628 0.0
H2351 H 0.65387 0.27717 0.74314 0.0
C2352 C 0.32286 0.25702 0.70444 0.0
C2353 C 0.3182 0.26537 0.61854 0.0
C2354 C 0.31621 0.23916 0.53308 0.0
C2355 C 0.3188 0.23082 0.6221 0.0
N2356 N 0.32144 0.23192 0.79655 0.0
N2357 N 0.30801 0.26434 0.45437 0.0
C2358 C 0.32129 0.23978 0.70898 0.0
C2359 C 0.31425 0.25643 0.53348 0.0
N2360 N 0.32922 0.26551 0.78092 0.0
N2361 N 0.31609 0.23066 0.44785 0.0
H2362 H 0.30627 0.27694 0.45199 0.0
H2363 H 0.30325 0.25827 0.39432 0.0
H2364 H 0.31768 0.21805 0.44465 0.0
H2365 H 0.31593 0.23626 0.37998 0.0
H2366 H 0.33434 0.25988 0.84151 0.0
H2367 H 0.33092 0.27813 0.77962 0.0
H2368 H 0.32147 0.23805 0.86271 0.0
H2369 H 0.31991 0.21934 0.80368 0.0
C2370 C 0.16647 0.7387 0.1693 0.0
C2371 C 0.17662 0.7309 0.10003 0.0
C2372 C 0.18394 0.75746 0.02973 0.0
C2373 C 0.17518 0.76528 0.10526 0.0
N2374 N 0.15868 0.76385 0.24981 0.0
N2375 N 0.19565 0.73235 0.96713 0.0
C2376 C 0.16648 0.75603 0.17544 0.0
C2377 C 0.18545 0.74014 0.03044 0.0
N2378 N 0.15671 0.7295 0.2285 0.0
N2379 N 0.19067 0.76663 0.95708 0.0
H2380 H 0.19658 0.71967 0.9633 0.0
H2381 H 0.20387 0.73835 0.92193 0.0
H2382 H 0.19008 0.77934 0.95568 0.0
H2383 H 0.19583 0.76173 0.89464 0.0
H2384 H 0.14773 0.73435 0.27326 0.0
H2385 H 0.15677 0.71677 0.22824 0.0
H2386 H 0.15385 0.75792 0.31009 0.0
H2387 H 0.15775 0.77653 0.25415 0.0
C2388 C 0.18059 0.25942 1.0058 0.0
C2389 C 0.17791 0.2678 0.91699 0.0
C2390 C 0.1736 0.24166 0.83461 0.0
C2391 C 0.17835 0.23327 0.92017 0.0
N2392 N 0.18888 0.23421 0.08365 0.0
N2393 N 0.17511 0.26675 0.74258 0.0
C2394 C 0.1825 0.24216 1.00506 0.0
C2395 C 0.17528 0.25888 0.83011 0.0
N2396 N 0.18082 0.26788 0.09116 0.0
N2397 N 0.16703 0.23323 0.75848 0.0
H2398 H 0.17676 0.27931 0.73545 0.0
H2399 H 0.17496 0.26063 0.67641 0.0
H2400 H 0.16522 0.22064 0.75985 0.0
H2401 H 0.16186 0.23892 0.69823 0.0
H2402 H 0.18106 0.26225 0.15891 0.0
H2403 H 0.17923 0.2805 0.09467 0.0
H2404 H 0.19376 0.24026 0.14343 0.0
H2405 H 0.19061 0.22161 0.08573 0.0
C2406 C 0.31643 0.74004 0.46231 0.0
C2407 C 0.31785 0.73094 0.37513 0.0
C2408 C 0.32121 0.75637 0.28343 0.0
C2409 C 0.3178 0.7655 0.36846 0.0
N2410 N 0.30908 0.76585 0.53578 0.0
N2411 N 0.31781 0.73068 0.19984 0.0
C2412 C 0.31455 0.75729 0.45724 0.0
C2413 C 0.31915 0.73918 0.28476 0.0
N2414 N 0.31746 0.73232 0.55004 0.0
N2415 N 0.327 0.76402 0.20224 0.0
H2416 H 0.31572 0.71813 0.19733 0.0
H2417 H 0.31705 0.73633 0.13223 0.0
H2418 H 0.32924 0.77654 0.1992 0.0
H2419 H 0.33119 0.75771 0.14156 0.0
H2420 H 0.31818 0.73856 0.61572 0.0
H2421 H 0.31916 0.71976 0.55684 0.0
H2422 H 0.30492 0.76028 0.59907 0.0
H2423 H 0.30725 0.77844 0.53458 0.0
C2424 C 0.50717 0.06706 0.80515 0.0
C2425 C 0.51514 0.0675 0.71373 0.0
C2426 C 0.48868 0.06637 0.63027 0.0
C2427 C 0.48067 0.06689 0.72157 0.0
N2428 N 0.48177 0.0695 0.89535 0.0
N2429 N 0.51384 0.06952 0.53932 0.0
C2430 C 0.48978 0.06773 0.809 0.0
C2431 C 0.50598 0.06772 0.62627 0.0
N2432 N 0.51626 0.06569 0.888 0.0
N2433 N 0.47973 0.06414 0.54745 0.0
H2434 H 0.52652 0.06988 0.53278 0.0
H2435 H 0.50788 0.07177 0.474 0.0
H2436 H 0.46701 0.06363 0.54674 0.0
H2437 H 0.48485 0.06167 0.47998 0.0
H2438 H 0.5113 0.06354 0.9563 0.0
H2439 H 0.52899 0.06574 0.88786 0.0
H2440 H 0.48758 0.07191 0.96091 0.0
H2441 H 0.46906 0.0696 0.90071 0.0
C2442 C 0.00414 0.934 0.21886 0.0
C2443 C 0.01235 0.92574 0.14279 0.0
C2444 C 0.98613 0.91624 0.07758 0.0
C2445 C 0.9779 0.92593 0.14735 0.0
N2446 N 0.97861 0.94492 0.28057 0.0
N2447 N 0.01158 0.9099 0.99565 0.0
C2448 C 0.98678 0.93497 0.21751 0.0
C2449 C 0.00346 0.91701 0.0713 0.0
N2450 N 0.01297 0.94074 0.29287 0.0
N2451 N 0.97735 0.90614 0.01834 0.0
H2452 H 0.02428 0.90971 0.99041 0.0
H2453 H 0.0058 0.90504 0.93496 0.0
H2454 H 0.96464 0.90548 0.01989 0.0
H2455 H 0.98261 0.89748 0.97288 0.0
H2456 H 0.00777 0.94546 0.35572 0.0
H2457 H 0.0257 0.94055 0.29493 0.0
H2458 H 0.98434 0.95329 0.32597 0.0
H2459 H 0.96591 0.94553 0.28365 0.0
C2460 C 0.50725 0.91735 0.45217 0.0
C2461 C 0.51623 0.92866 0.39519 0.0
C2462 C 0.49074 0.94087 0.33591 0.0
C2463 C 0.48177 0.92912 0.38966 0.0
N2464 N 0.48111 0.90462 0.48645 0.0
N2465 N 0.51698 0.94947 0.27164 0.0
C2466 C 0.48993 0.91687 0.44408 0.0
C2467 C 0.50809 0.93991 0.33356 0.0
N2468 N 0.51527 0.90742 0.51619 0.0
N2469 N 0.48267 0.95324 0.28967 0.0
H2470 H 0.52971 0.9493 0.26937 0.0
H2471 H 0.51182 0.95667 0.2175 0.0
H2472 H 0.46997 0.95409 0.28773 0.0
H2473 H 0.48847 0.96326 0.2586 0.0
H2474 H 0.50941 0.90028 0.568 0.0
H2475 H 0.52797 0.90709 0.52204 0.0
H2476 H 0.48635 0.89435 0.5182 0.0
H2477 H 0.46839 0.90406 0.48359 0.0
C2478 C 0.00866 0.07092 0.9671 0.0
C2479 C 0.01799 0.06685 0.88383 0.0
C2480 C 0.99271 0.064 0.78905 0.0
C2481 C 0.98343 0.06644 0.87478 0.0
N2482 N 0.98259 0.0691 0.04909 0.0
N2483 N 0.01899 0.0571 0.71894 0.0
C2484 C 0.99142 0.06902 0.96491 0.0
C2485 C 0.01004 0.06273 0.79554 0.0
N2486 N 0.01623 0.07713 0.04742 0.0
N2487 N 0.98502 0.0634 0.70112 0.0
H2488 H 0.03167 0.05603 0.7209 0.0
H2489 H 0.01378 0.05223 0.65641 0.0
H2490 H 0.97238 0.06427 0.69366 0.0
H2491 H 0.99121 0.06341 0.63516 0.0
H2492 H 0.00992 0.08193 0.10637 0.0
H2493 H 0.02882 0.07894 0.0515 0.0
H2494 H 0.98794 0.06915 0.11767 0.0
H2495 H 0.96996 0.06753 0.05099 0.0
loop_
_geom_bond_atom_site_label_1
_geom_bond_atom_site_label_2
_geom_bond_distance
_geom_bond_site_symmetry_2
_ccdc_geom_bond_type
Co0 N4 2.148 . S
Co0 N10 2.128 1_554 S
Co0 N20 2.194 . S
Co0 O25 2.351 . S
Co0 O26 2.155 . S
Co0 O27 2.096 . S
C1 N4 1.301 . S
C1 N5 1.328 . S
C1 H6 0.930 . S
C2 C3 1.333 . S
C2 N4 1.317 . S
C2 H7 0.930 . S
C3 C2 1.333 . S
C3 N5 1.350 . S
C3 H29 0.931 . S
N4 Co0 2.148 . S
N4 C1 1.301 . S
N4 C2 1.317 . S
N5 C1 1.328 . S
N5 C3 1.350 . S
H6 C1 0.930 . S
H7 C2 0.930 . S
C8 O9 1.224 . S
C8 O27 1.247 . S
O9 C8 1.224 . S
N10 Co0 2.128 1_556 S
N10 C11 1.355 . S
N10 C13 1.311 . S
C11 N10 1.355 . S
C11 C12 1.363 . S
C11 H23 0.929 . S
C12 C11 1.363 . S
C12 N14 1.375 . S
C12 H30 0.931 . S
C13 N10 1.311 . S
C13 N14 1.347 . S
C13 H24 0.929 . S
N14 C12 1.375 . S
N14 C13 1.347 . S
C15 C18 1.365 . S
C15 N20 1.328 . S
C15 H21 0.929 . S
C16 C17 1.362 . S
C16 C19 1.378 . S
C16 H31 0.929 . S
C17 C16 1.362 . S
C17 C18 1.366 . S
C18 C15 1.365 . S
C18 C17 1.366 . S
C18 H32 0.930 . S
C19 C16 1.378 . S
C19 N20 1.315 . S
C19 H22 0.930 . S
N20 Co0 2.194 . S
N20 C15 1.328 . S
N20 C19 1.315 . S
H21 C15 0.929 . S
H22 C19 0.930 . S
H23 C11 0.929 . S
H24 C13 0.929 . S
O25 Co0 2.351 . S
O25 C28 1.244 . S
O26 Co0 2.155 . S
O26 C28 1.240 . S
O27 Co0 2.096 . S
O27 C8 1.247 . S
C28 O25 1.244 . S
C28 O26 1.240 . S
H29 C3 0.931 . S
H30 C12 0.931 . S
H31 C16 0.929 . S
H32 C18 0.930 . S
Co33 N37 2.148 . S
Co33 N43 2.128 . S
Co33 N53 2.194 . S
Co33 O58 2.351 . S
Co33 O59 2.155 . S
Co33 O60 2.096 . S
C34 N37 1.301 . S
C34 N38 1.328 . S
C34 H39 0.930 . S
C35 C36 1.333 . S
C35 N37 1.317 . S
C35 H40 0.930 . S
C36 C35 1.333 . S
C36 N38 1.350 . S
C36 H62 0.931 . S
N37 Co33 2.148 . S
N37 C34 1.301 . S
N37 C35 1.317 . S
N38 C34 1.328 . S
N38 C36 1.350 . S
H39 C34 0.930 . S
H40 C35 0.930 . S
C41 O42 1.224 . S
C41 O60 1.247 . S
O42 C41 1.224 . S
N43 Co33 2.128 . S
N43 C44 1.355 . S
N43 C46 1.311 . S
C44 N43 1.355 . S
C44 C45 1.363 . S
C44 H56 0.929 . S
C45 C44 1.363 . S
C45 N47 1.375 . S
C45 H63 0.931 . S
C46 N43 1.311 . S
C46 N47 1.347 . S
C46 H57 0.929 . S
N47 C45 1.375 . S
N47 C46 1.347 . S
C48 C51 1.365 . S
C48 N53 1.328 . S
C48 H54 0.929 . S
C49 C50 1.362 . S
C49 C52 1.378 . S
C49 H64 0.929 . S
C50 C49 1.362 . S
C50 C51 1.366 . S
C51 C48 1.365 . S
C51 C50 1.366 . S
C51 H65 0.930 . S
C52 C49 1.378 . S
C52 N53 1.315 . S
C52 H55 0.930 . S
N53 Co33 2.194 . S
N53 C48 1.328 . S
N53 C52 1.315 . S
H54 C48 0.929 . S
H55 C52 0.930 . S
H56 C44 0.929 . S
H57 C46 0.929 . S
O58 Co33 2.351 . S
O58 C61 1.244 . S
O59 Co33 2.155 . S
O59 C61 1.240 . S
O60 Co33 2.096 . S
O60 C41 1.247 . S
C61 O58 1.244 . S
C61 O59 1.240 . S
H62 C36 0.931 . S
H63 C45 0.931 . S
H64 C49 0.929 . S
H65 C51 0.930 . S
Co66 N70 2.148 . S
Co66 N76 2.128 . S
Co66 N86 2.194 . S
Co66 O91 2.351 . S
Co66 O92 2.155 . S
Co66 O93 2.096 . S
C67 N70 1.301 . S
C67 N71 1.328 . S
C67 H72 0.930 . S
C68 C69 1.333 . S
C68 N70 1.317 . S
C68 H73 0.930 . S
C69 C68 1.333 . S
C69 N71 1.350 . S
C69 H95 0.931 . S
N70 Co66 2.148 . S
N70 C67 1.301 . S
N70 C68 1.317 . S
N71 C67 1.328 . S
N71 C69 1.350 . S
H72 C67 0.930 . S
H73 C68 0.930 . S
C74 O75 1.224 . S
C74 O93 1.247 . S
O75 C74 1.224 . S
N76 Co66 2.128 . S
N76 C77 1.355 . S
N76 C79 1.311 . S
C77 N76 1.355 . S
C77 C78 1.363 . S
C77 H89 0.929 . S
C78 C77 1.363 . S
C78 N80 1.375 . S
C78 H96 0.931 . S
C79 N76 1.311 . S
C79 N80 1.347 . S
C79 H90 0.929 . S
N80 C78 1.375 . S
N80 C79 1.347 . S
C81 C84 1.365 . S
C81 N86 1.328 . S
C81 H87 0.929 . S
C82 C83 1.362 . S
C82 C85 1.378 . S
C82 H97 0.929 . S
C83 C82 1.362 . S
C83 C84 1.366 . S
C84 C81 1.365 . S
C84 C83 1.366 . S
C84 H98 0.930 . S
C85 C82 1.378 . S
C85 N86 1.315 . S
C85 H88 0.930 . S
N86 Co66 2.194 . S
N86 C81 1.328 . S
N86 C85 1.315 . S
H87 C81 0.929 . S
H88 C85 0.930 . S
H89 C77 0.929 . S
H90 C79 0.929 . S
O91 Co66 2.351 . S
O91 C94 1.244 . S
O92 Co66 2.155 . S
O92 C94 1.240 . S
O93 Co66 2.096 . S
O93 C74 1.247 . S
C94 O91 1.244 . S
C94 O92 1.240 . S
H95 C69 0.931 . S
H96 C78 0.931 . S
H97 C82 0.929 . S
H98 C84 0.930 . S
Co99 N103 2.148 . S
Co99 N109 2.128 . S
Co99 N119 2.194 . S
Co99 O124 2.351 . S
Co99 O125 2.155 . S
Co99 O126 2.096 . S
C100 N103 1.301 1_554 S
C100 N104 1.328 . S
C100 H105 0.930 . S
C101 C102 1.333 . S
C101 N103 1.317 1_554 S
C101 H106 0.930 1_554 S
C102 C101 1.333 . S
C102 N104 1.350 . S
C102 H128 0.931 . S
N103 Co99 2.148 . S
N103 C100 1.301 1_556 S
N103 C101 1.317 1_556 S
N104 C100 1.328 . S
N104 C102 1.350 . S
H105 C100 0.930 . S
H106 C101 0.930 1_556 S
C107 O108 1.224 . S
C107 O126 1.247 . S
O108 C107 1.224 . S
N109 Co99 2.128 . S
N109 C110 1.355 . S
N109 C112 1.311 . S
C110 N109 1.355 . S
C110 C111 1.363 . S
C110 H122 0.929 . S
C111 C110 1.363 . S
C111 N113 1.375 . S
C111 H129 0.931 . S
C112 N109 1.311 . S
C112 N113 1.347 . S
C112 H123 0.929 . S
N113 C111 1.375 . S
N113 C112 1.347 . S
C114 C117 1.365 . S
C114 N119 1.328 . S
C114 H120 0.929 . S
C115 C116 1.362 . S
C115 C118 1.378 . S
C115 H130 0.929 . S
C116 C115 1.362 . S
C116 C117 1.366 . S
C117 C114 1.365 . S
C117 C116 1.366 . S
C117 H131 0.930 . S
C118 C115 1.378 . S
C118 N119 1.315 . S
C118 H121 0.930 . S
N119 Co99 2.194 . S
N119 C114 1.328 . S
N119 C118 1.315 . S
H120 C114 0.929 . S
H121 C118 0.930 . S
H122 C110 0.929 . S
H123 C112 0.929 . S
O124 Co99 2.351 . S
O124 C127 1.244 . S
O125 Co99 2.155 . S
O125 C127 1.240 . S
O126 Co99 2.096 . S
O126 C107 1.247 . S
C127 O124 1.244 . S
C127 O125 1.240 . S
H128 C102 0.931 . S
H129 C111 0.931 . S
H130 C115 0.929 . S
H131 C117 0.930 . S
Co132 N136 2.148 . S
Co132 N142 2.128 1_556 S
Co132 N152 2.194 . S
Co132 O157 2.351 . S
Co132 O158 2.155 . S
Co132 O159 2.096 . S
C133 N136 1.301 . S
C133 N137 1.328 . S
C133 H138 0.930 . S
C134 C135 1.333 . S
C134 N136 1.317 . S
C134 H139 0.930 . S
C135 C134 1.333 . S
C135 N137 1.350 . S
C135 H161 0.931 . S
N136 Co132 2.148 . S
N136 C133 1.301 . S
N136 C134 1.317 . S
N137 C133 1.328 . S
N137 C135 1.350 . S
H138 C133 0.930 . S
H139 C134 0.930 . S
C140 O141 1.224 . S
C140 O159 1.247 . S
O141 C140 1.224 . S
N142 Co132 2.128 1_554 S
N142 C143 1.355 . S
N142 C145 1.311 . S
C143 N142 1.355 . S
C143 C144 1.363 . S
C143 H155 0.929 . S
C144 C143 1.363 . S
C144 N146 1.375 . S
C144 H162 0.931 . S
C145 N142 1.311 . S
C145 N146 1.347 . S
C145 H156 0.929 . S
N146 C144 1.375 . S
N146 C145 1.347 . S
C147 C150 1.365 . S
C147 N152 1.328 . S
C147 H153 0.929 . S
C148 C149 1.362 . S
C148 C151 1.378 . S
C148 H163 0.929 . S
C149 C148 1.362 . S
C149 C150 1.366 . S
C150 C147 1.365 . S
C150 C149 1.366 . S
C150 H164 0.930 . S
C151 C148 1.378 . S
C151 N152 1.315 . S
C151 H154 0.930 . S
N152 Co132 2.194 . S
N152 C147 1.328 . S
N152 C151 1.315 . S
H153 C147 0.929 . S
H154 C151 0.930 . S
H155 C143 0.929 . S
H156 C145 0.929 . S
O157 Co132 2.351 . S
O157 C160 1.244 . S
O158 Co132 2.155 . S
O158 C160 1.240 . S
O159 Co132 2.096 . S
O159 C140 1.247 . S
C160 O157 1.244 . S
C160 O158 1.240 . S
H161 C135 0.931 . S
H162 C144 0.931 . S
H163 C148 0.929 . S
H164 C150 0.930 . S
Co165 N169 2.148 . S
Co165 N175 2.128 . S
Co165 N185 2.194 . S
Co165 O190 2.351 . S
Co165 O191 2.155 . S
Co165 O192 2.096 . S
C166 N169 1.301 1_556 S
C166 N170 1.328 . S
C166 H171 0.930 . S
C167 C168 1.333 . S
C167 N169 1.317 1_556 S
C167 H172 0.930 1_556 S
C168 C167 1.333 . S
C168 N170 1.350 . S
C168 H194 0.931 . S
N169 Co165 2.148 . S
N169 C166 1.301 1_554 S
N169 C167 1.317 1_554 S
N170 C166 1.328 . S
N170 C168 1.350 . S
H171 C166 0.930 . S
H172 C167 0.930 1_554 S
C173 O174 1.224 . S
C173 O192 1.247 . S
O174 C173 1.224 . S
N175 Co165 2.128 . S
N175 C176 1.355 . S
N175 C178 1.311 . S
C176 N175 1.355 . S
C176 C177 1.363 . S
C176 H188 0.929 . S
C177 C176 1.363 . S
C177 N179 1.375 . S
C177 H195 0.931 . S
C178 N175 1.311 . S
C178 N179 1.347 . S
C178 H189 0.929 . S
N179 C177 1.375 . S
N179 C178 1.347 . S
C180 C183 1.365 . S
C180 N185 1.328 . S
C180 H186 0.929 . S
C181 C182 1.362 . S
C181 C184 1.378 . S
C181 H196 0.929 . S
C182 C181 1.362 . S
C182 C183 1.366 . S
C183 C180 1.365 . S
C183 C182 1.366 . S
C183 H197 0.930 . S
C184 C181 1.378 . S
C184 N185 1.315 . S
C184 H187 0.930 . S
N185 Co165 2.194 . S
N185 C180 1.328 . S
N185 C184 1.315 . S
H186 C180 0.929 . S
H187 C184 0.930 . S
H188 C176 0.929 . S
H189 C178 0.929 . S
O190 Co165 2.351 . S
O190 C193 1.244 . S
O191 Co165 2.155 . S
O191 C193 1.240 . S
O192 Co165 2.096 . S
O192 C173 1.247 . S
C193 O190 1.244 . S
C193 O191 1.240 . S
H194 C168 0.931 . S
H195 C177 0.931 . S
H196 C181 0.929 . S
H197 C183 0.930 . S
Co198 N202 2.148 . S
Co198 N208 2.128 . S
Co198 N218 2.194 . S
Co198 O223 2.351 . S
Co198 O224 2.155 . S
Co198 O225 2.096 . S
C199 N202 1.301 . S
C199 N203 1.328 . S
C199 H204 0.930 . S
C200 C201 1.333 . S
C200 N202 1.317 . S
C200 H205 0.930 . S
C201 C200 1.333 . S
C201 N203 1.350 . S
C201 H227 0.931 . S
N202 Co198 2.148 . S
N202 C199 1.301 . S
N202 C200 1.317 . S
N203 C199 1.328 . S
N203 C201 1.350 . S
H204 C199 0.930 . S
H205 C200 0.930 . S
C206 O207 1.224 . S
C206 O225 1.247 . S
O207 C206 1.224 . S
N208 Co198 2.128 . S
N208 C209 1.355 . S
N208 C211 1.311 . S
C209 N208 1.355 . S
C209 C210 1.363 . S
C209 H221 0.929 . S
C210 C209 1.363 . S
C210 N212 1.375 . S
C210 H228 0.931 . S
C211 N208 1.311 . S
C211 N212 1.347 . S
C211 H222 0.929 . S
N212 C210 1.375 . S
N212 C211 1.347 . S
C213 C216 1.365 . S
C213 N218 1.328 . S
C213 H219 0.929 . S
C214 C215 1.362 . S
C214 C217 1.378 . S
C214 H229 0.929 . S
C215 C214 1.362 . S
C215 C216 1.366 . S
C216 C213 1.365 . S
C216 C215 1.366 . S
C216 H230 0.930 . S
C217 C214 1.378 . S
C217 N218 1.315 . S
C217 H220 0.930 . S
N218 Co198 2.194 . S
N218 C213 1.328 . S
N218 C217 1.315 . S
H219 C213 0.929 . S
H220 C217 0.930 . S
H221 C209 0.929 . S
H222 C211 0.929 . S
O223 Co198 2.351 . S
O223 C226 1.244 . S
O224 Co198 2.155 . S
O224 C226 1.240 . S
O225 Co198 2.096 . S
O225 C206 1.247 . S
C226 O223 1.244 . S
C226 O224 1.240 . S
H227 C201 0.931 . S
H228 C210 0.931 . S
H229 C214 0.929 . S
H230 C216 0.930 . S
Co231 N235 2.148 . S
Co231 N241 2.128 . S
Co231 N251 2.194 . S
Co231 O256 2.351 . S
Co231 O257 2.155 . S
Co231 O258 2.096 . S
C232 N235 1.301 . S
C232 N236 1.328 . S
C232 H237 0.930 . S
C233 C234 1.333 . S
C233 N235 1.317 . S
C233 H238 0.930 . S
C234 C233 1.333 . S
C234 N236 1.350 . S
C234 H260 0.931 . S
N235 Co231 2.148 . S
N235 C232 1.301 . S
N235 C233 1.317 . S
N236 C232 1.328 . S
N236 C234 1.350 . S
H237 C232 0.930 . S
H238 C233 0.930 . S
C239 O240 1.224 . S
C239 O258 1.247 . S
O240 C239 1.224 . S
N241 Co231 2.128 . S
N241 C242 1.355 . S
N241 C244 1.311 . S
C242 N241 1.355 . S
C242 C243 1.363 . S
C242 H254 0.929 . S
C243 C242 1.363 . S
C243 N245 1.375 . S
C243 H261 0.931 . S
C244 N241 1.311 . S
C244 N245 1.347 . S
C244 H255 0.929 . S
N245 C243 1.375 . S
N245 C244 1.347 . S
C246 C249 1.365 . S
C246 N251 1.328 . S
C246 H252 0.929 . S
C247 C248 1.362 . S
C247 C250 1.378 . S
C247 H262 0.929 . S
C248 C247 1.362 . S
C248 C249 1.366 . S
C249 C246 1.365 . S
C249 C248 1.366 . S
C249 H263 0.930 . S
C250 C247 1.378 . S
C250 N251 1.315 . S
C250 H253 0.930 . S
N251 Co231 2.194 . S
N251 C246 1.328 . S
N251 C250 1.315 . S
H252 C246 0.929 . S
H253 C250 0.930 . S
H254 C242 0.929 . S
H255 C244 0.929 . S
O256 Co231 2.351 . S
O256 C259 1.244 . S
O257 Co231 2.155 . S
O257 C259 1.240 . S
O258 Co231 2.096 . S
O258 C239 1.247 . S
C259 O256 1.244 . S
C259 O257 1.240 . S
H260 C234 0.931 . S
H261 C243 0.931 . S
H262 C247 0.929 . S
H263 C249 0.930 . S
Co264 N268 2.148 . S
Co264 N274 2.128 1_556 S
Co264 N284 2.194 . S
Co264 O289 2.351 . S
Co264 O290 2.155 . S
Co264 O291 2.096 . S
C265 N268 1.301 . S
C265 N269 1.328 . S
C265 H270 0.930 . S
C266 C267 1.333 . S
C266 N268 1.317 . S
C266 H271 0.930 . S
C267 C266 1.333 . S
C267 N269 1.350 . S
C267 H293 0.931 . S
N268 Co264 2.148 . S
N268 C265 1.301 . S
N268 C266 1.317 . S
N269 C265 1.328 . S
N269 C267 1.350 . S
H270 C265 0.930 . S
H271 C266 0.930 . S
C272 O273 1.224 . S
C272 O291 1.247 . S
O273 C272 1.224 . S
N274 Co264 2.128 1_554 S
N274 C275 1.355 . S
N274 C277 1.311 . S
C275 N274 1.355 . S
C275 C276 1.363 . S
C275 H287 0.929 . S
C276 C275 1.363 . S
C276 N278 1.375 . S
C276 H294 0.931 . S
C277 N274 1.311 . S
C277 N278 1.347 . S
C277 H288 0.929 . S
N278 C276 1.375 . S
N278 C277 1.347 . S
C279 C282 1.365 . S
C279 N284 1.328 . S
C279 H285 0.929 . S
C280 C281 1.362 . S
C280 C283 1.378 . S
C280 H295 0.929 . S
C281 C280 1.362 . S
C281 C282 1.366 . S
C282 C279 1.365 . S
C282 C281 1.366 . S
C282 H296 0.930 . S
C283 C280 1.378 . S
C283 N284 1.315 . S
C283 H286 0.930 . S
N284 Co264 2.194 . S
N284 C279 1.328 . S
N284 C283 1.315 . S
H285 C279 0.929 . S
H286 C283 0.930 . S
H287 C275 0.929 . S
H288 C277 0.929 . S
O289 Co264 2.351 . S
O289 C292 1.244 . S
O290 Co264 2.155 . S
O290 C292 1.240 . S
O291 Co264 2.096 . S
O291 C272 1.247 . S
C292 O289 1.244 . S
C292 O290 1.240 . S
H293 C267 0.931 . S
H294 C276 0.931 . S
H295 C280 0.929 . S
H296 C282 0.930 . S
Co297 N301 2.148 . S
Co297 N307 2.128 . S
Co297 N317 2.194 . S
Co297 O322 2.351 . S
Co297 O323 2.155 . S
Co297 O324 2.096 . S
C298 N301 1.301 . S
C298 N302 1.328 . S
C298 H303 0.930 . S
C299 C300 1.333 . S
C299 N301 1.317 . S
C299 H304 0.930 . S
C300 C299 1.333 . S
C300 N302 1.350 . S
C300 H326 0.931 . S
N301 Co297 2.148 . S
N301 C298 1.301 . S
N301 C299 1.317 . S
N302 C298 1.328 . S
N302 C300 1.350 . S
H303 C298 0.930 . S
H304 C299 0.930 . S
C305 O306 1.224 . S
C305 O324 1.247 . S
O306 C305 1.224 . S
N307 Co297 2.128 . S
N307 C308 1.355 . S
N307 C310 1.311 . S
C308 N307 1.355 . S
C308 C309 1.363 . S
C308 H320 0.929 . S
C309 C308 1.363 . S
C309 N311 1.375 . S
C309 H327 0.931 . S
C310 N307 1.311 . S
C310 N311 1.347 . S
C310 H321 0.929 . S
N311 C309 1.375 . S
N311 C310 1.347 . S
C312 C315 1.365 . S
C312 N317 1.328 . S
C312 H318 0.929 . S
C313 C314 1.362 . S
C313 C316 1.378 . S
C313 H328 0.929 . S
C314 C313 1.362 . S
C314 C315 1.366 . S
C315 C312 1.365 . S
C315 C314 1.366 . S
C315 H329 0.930 . S
C316 C313 1.378 . S
C316 N317 1.315 . S
C316 H319 0.930 . S
N317 Co297 2.194 . S
N317 C312 1.328 . S
N317 C316 1.315 . S
H318 C312 0.929 . S
H319 C316 0.930 . S
H320 C308 0.929 . S
H321 C310 0.929 . S
O322 Co297 2.351 . S
O322 C325 1.244 . S
O323 Co297 2.155 . S
O323 C325 1.240 . S
O324 Co297 2.096 . S
O324 C305 1.247 . S
C325 O322 1.244 . S
C325 O323 1.240 . S
H326 C300 0.931 . S
H327 C309 0.931 . S
H328 C313 0.929 . S
H329 C315 0.930 . S
Co330 N334 2.148 . S
Co330 N340 2.128 . S
Co330 N350 2.194 . S
Co330 O355 2.351 . S
Co330 O356 2.155 . S
Co330 O357 2.096 . S
C331 N334 1.301 . S
C331 N335 1.328 . S
C331 H336 0.930 . S
C332 C333 1.333 . S
C332 N334 1.317 . S
C332 H337 0.930 . S
C333 C332 1.333 . S
C333 N335 1.350 . S
C333 H359 0.931 . S
N334 Co330 2.148 . S
N334 C331 1.301 . S
N334 C332 1.317 . S
N335 C331 1.328 . S
N335 C333 1.350 . S
H336 C331 0.930 . S
H337 C332 0.930 . S
C338 O339 1.224 . S
C338 O357 1.247 . S
O339 C338 1.224 . S
N340 Co330 2.128 . S
N340 C341 1.355 . S
N340 C343 1.311 . S
C341 N340 1.355 . S
C341 C342 1.363 . S
C341 H353 0.929 . S
C342 C341 1.363 . S
C342 N344 1.375 . S
C342 H360 0.931 . S
C343 N340 1.311 . S
C343 N344 1.347 . S
C343 H354 0.929 . S
N344 C342 1.375 . S
N344 C343 1.347 . S
C345 C348 1.365 . S
C345 N350 1.328 . S
C345 H351 0.929 . S
C346 C347 1.362 . S
C346 C349 1.378 . S
C346 H361 0.929 . S
C347 C346 1.362 . S
C347 C348 1.366 . S
C348 C345 1.365 . S
C348 C347 1.366 . S
C348 H362 0.930 . S
C349 C346 1.378 . S
C349 N350 1.315 . S
C349 H352 0.930 . S
N350 Co330 2.194 . S
N350 C345 1.328 . S
N350 C349 1.315 . S
H351 C345 0.929 . S
H352 C349 0.930 . S
H353 C341 0.929 . S
H354 C343 0.929 . S
O355 Co330 2.351 . S
O355 C358 1.244 . S
O356 Co330 2.155 . S
O356 C358 1.240 . S
O357 Co330 2.096 . S
O357 C338 1.247 . S
C358 O355 1.244 . S
C358 O356 1.240 . S
H359 C333 0.931 . S
H360 C342 0.931 . S
H361 C346 0.929 . S
H362 C348 0.930 . S
Co363 N367 2.148 . S
Co363 N373 2.128 . S
Co363 N383 2.194 . S
Co363 O388 2.351 . S
Co363 O389 2.155 . S
Co363 O390 2.096 . S
C364 N367 1.301 1_556 S
C364 N368 1.328 . S
C364 H369 0.930 . S
C365 C366 1.333 . S
C365 N367 1.317 1_556 S
C365 H370 0.930 1_556 S
C366 C365 1.333 . S
C366 N368 1.350 . S
C366 H392 0.931 . S
N367 Co363 2.148 . S
N367 C364 1.301 1_554 S
N367 C365 1.317 1_554 S
N368 C364 1.328 . S
N368 C366 1.350 . S
H369 C364 0.930 . S
H370 C365 0.930 1_554 S
C371 O372 1.224 . S
C371 O390 1.247 . S
O372 C371 1.224 . S
N373 Co363 2.128 . S
N373 C374 1.355 . S
N373 C376 1.311 . S
C374 N373 1.355 . S
C374 C375 1.363 . S
C374 H386 0.929 . S
C375 C374 1.363 . S
C375 N377 1.375 . S
C375 H393 0.931 . S
C376 N373 1.311 . S
C376 N377 1.347 . S
C376 H387 0.929 . S
N377 C375 1.375 . S
N377 C376 1.347 . S
C378 C381 1.365 . S
C378 N383 1.328 . S
C378 H384 0.929 . S
C379 C380 1.362 . S
C379 C382 1.378 . S
C379 H394 0.929 . S
C380 C379 1.362 . S
C380 C381 1.366 . S
C381 C378 1.365 . S
C381 C380 1.366 . S
C381 H395 0.930 . S
C382 C379 1.378 . S
C382 N383 1.315 . S
C382 H385 0.930 . S
N383 Co363 2.194 . S
N383 C378 1.328 . S
N383 C382 1.315 . S
H384 C378 0.929 . S
H385 C382 0.930 . S
H386 C374 0.929 . S
H387 C376 0.929 . S
O388 Co363 2.351 . S
O388 C391 1.244 . S
O389 Co363 2.155 . S
O389 C391 1.240 . S
O390 Co363 2.096 . S
O390 C371 1.247 . S
C391 O388 1.244 . S
C391 O389 1.240 . S
H392 C366 0.931 . S
H393 C375 0.931 . S
H394 C379 0.929 . S
H395 C381 0.930 . S
Co396 N400 2.148 . S
Co396 N406 2.128 1_554 S
Co396 N416 2.194 . S
Co396 O421 2.351 . S
Co396 O422 2.155 . S
Co396 O423 2.096 . S
C397 N400 1.301 . S
C397 N401 1.328 . S
C397 H402 0.930 . S
C398 C399 1.333 . S
C398 N400 1.317 . S
C398 H403 0.930 . S
C399 C398 1.333 . S
C399 N401 1.350 . S
C399 H425 0.931 . S
N400 Co396 2.148 . S
N400 C397 1.301 . S
N400 C398 1.317 . S
N401 C397 1.328 . S
N401 C399 1.350 . S
H402 C397 0.930 . S
H403 C398 0.930 . S
C404 O405 1.224 . S
C404 O423 1.247 . S
O405 C404 1.224 . S
N406 Co396 2.128 1_556 S
N406 C407 1.355 . S
N406 C409 1.311 . S
C407 N406 1.355 . S
C407 C408 1.363 . S
C407 H419 0.929 . S
C408 C407 1.363 . S
C408 N410 1.375 . S
C408 H426 0.931 . S
C409 N406 1.311 . S
C409 N410 1.347 . S
C409 H420 0.929 . S
N410 C408 1.375 . S
N410 C409 1.347 . S
C411 C414 1.365 . S
C411 N416 1.328 . S
C411 H417 0.929 . S
C412 C413 1.362 . S
C412 C415 1.378 . S
C412 H427 0.929 . S
C413 C412 1.362 . S
C413 C414 1.366 . S
C414 C411 1.365 . S
C414 C413 1.366 . S
C414 H428 0.930 . S
C415 C412 1.378 . S
C415 N416 1.315 . S
C415 H418 0.930 . S
N416 Co396 2.194 . S
N416 C411 1.328 . S
N416 C415 1.315 . S
H417 C411 0.929 . S
H418 C415 0.930 . S
H419 C407 0.929 . S
H420 C409 0.929 . S
O421 Co396 2.351 . S
O421 C424 1.244 . S
O422 Co396 2.155 . S
O422 C424 1.240 . S
O423 Co396 2.096 . S
O423 C404 1.247 . S
C424 O421 1.244 . S
C424 O422 1.240 . S
H425 C399 0.931 . S
H426 C408 0.931 . S
H427 C412 0.929 . S
H428 C414 0.930 . S
Co429 N433 2.148 . S
Co429 N439 2.128 . S
Co429 N449 2.194 . S
Co429 O454 2.351 . S
Co429 O455 2.155 . S
Co429 O456 2.096 . S
C430 N433 1.301 1_554 S
C430 N434 1.328 . S
C430 H435 0.930 . S
C431 C432 1.333 . S
C431 N433 1.317 1_554 S
C431 H436 0.930 1_554 S
C432 C431 1.333 . S
C432 N434 1.350 . S
C432 H458 0.931 . S
N433 Co429 2.148 . S
N433 C430 1.301 1_556 S
N433 C431 1.317 1_556 S
N434 C430 1.328 . S
N434 C432 1.350 . S
H435 C430 0.930 . S
H436 C431 0.930 1_556 S
C437 O438 1.224 . S
C437 O456 1.247 . S
O438 C437 1.224 . S
N439 Co429 2.128 . S
N439 C440 1.355 . S
N439 C442 1.311 . S
C440 N439 1.355 . S
C440 C441 1.363 . S
C440 H452 0.929 . S
C441 C440 1.363 . S
C441 N443 1.375 . S
C441 H459 0.931 . S
C442 N439 1.311 . S
C442 N443 1.347 . S
C442 H453 0.929 . S
N443 C441 1.375 . S
N443 C442 1.347 . S
C444 C447 1.365 . S
C444 N449 1.328 . S
C444 H450 0.929 . S
C445 C446 1.362 . S
C445 C448 1.378 . S
C445 H460 0.929 . S
C446 C445 1.362 . S
C446 C447 1.366 . S
C447 C444 1.365 . S
C447 C446 1.366 . S
C447 H461 0.930 . S
C448 C445 1.378 . S
C448 N449 1.315 . S
C448 H451 0.930 . S
N449 Co429 2.194 . S
N449 C444 1.328 . S
N449 C448 1.315 . S
H450 C444 0.929 . S
H451 C448 0.930 . S
H452 C440 0.929 . S
H453 C442 0.929 . S
O454 Co429 2.351 . S
O454 C457 1.244 . S
O455 Co429 2.155 . S
O455 C457 1.240 . S
O456 Co429 2.096 . S
O456 C437 1.247 . S
C457 O454 1.244 . S
C457 O455 1.240 . S
H458 C432 0.931 . S
H459 C441 0.931 . S
H460 C445 0.929 . S
H461 C447 0.930 . S
Co462 N466 2.148 . S
Co462 N472 2.128 . S
Co462 N482 2.194 . S
Co462 O487 2.351 . S
Co462 O488 2.155 . S
Co462 O489 2.096 . S
C463 N466 1.301 . S
C463 N467 1.328 . S
C463 H468 0.930 . S
C464 C465 1.333 . S
C464 N466 1.317 . S
C464 H469 0.930 . S
C465 C464 1.333 . S
C465 N467 1.350 . S
C465 H491 0.931 . S
N466 Co462 2.148 . S
N466 C463 1.301 . S
N466 C464 1.317 . S
N467 C463 1.328 . S
N467 C465 1.350 . S
H468 C463 0.930 . S
H469 C464 0.930 . S
C470 O471 1.224 . S
C470 O489 1.247 . S
O471 C470 1.224 . S
N472 Co462 2.128 . S
N472 C473 1.355 . S
N472 C475 1.311 . S
C473 N472 1.355 . S
C473 C474 1.363 . S
C473 H485 0.929 . S
C474 C473 1.363 . S
C474 N476 1.375 . S
C474 H492 0.931 . S
C475 N472 1.311 . S
C475 N476 1.347 . S
C475 H486 0.929 . S
N476 C474 1.375 . S
N476 C475 1.347 . S
C477 C480 1.365 . S
C477 N482 1.328 . S
C477 H483 0.929 . S
C478 C479 1.362 . S
C478 C481 1.378 . S
C478 H493 0.929 . S
C479 C478 1.362 . S
C479 C480 1.366 . S
C480 C477 1.365 . S
C480 C479 1.366 . S
C480 H494 0.930 . S
C481 C478 1.378 . S
C481 N482 1.315 . S
C481 H484 0.930 . S
N482 Co462 2.194 . S
N482 C477 1.328 . S
N482 C481 1.315 . S
H483 C477 0.929 . S
H484 C481 0.930 . S
H485 C473 0.929 . S
H486 C475 0.929 . S
O487 Co462 2.351 . S
O487 C490 1.244 . S
O488 Co462 2.155 . S
O488 C490 1.240 . S
O489 Co462 2.096 . S
O489 C470 1.247 . S
C490 O487 1.244 . S
C490 O488 1.240 . S
H491 C465 0.931 . S
H492 C474 0.931 . S
H493 C478 0.929 . S
H494 C480 0.930 . S
Co495 N499 2.148 . S
Co495 N505 2.128 . S
Co495 N515 2.194 . S
Co495 O520 2.351 . S
Co495 O521 2.155 . S
Co495 O522 2.096 . S
C496 N499 1.301 . S
C496 N500 1.328 . S
C496 H501 0.930 . S
C497 C498 1.333 . S
C497 N499 1.317 . S
C497 H502 0.930 . S
C498 C497 1.333 . S
C498 N500 1.350 . S
C498 H524 0.931 . S
N499 Co495 2.148 . S
N499 C496 1.301 . S
N499 C497 1.317 . S
N500 C496 1.328 . S
N500 C498 1.350 . S
H501 C496 0.930 . S
H502 C497 0.930 . S
C503 O504 1.224 . S
C503 O522 1.247 . S
O504 C503 1.224 . S
N505 Co495 2.128 . S
N505 C506 1.355 . S
N505 C508 1.311 . S
C506 N505 1.355 . S
C506 C507 1.363 . S
C506 H518 0.929 . S
C507 C506 1.363 . S
C507 N509 1.375 . S
C507 H525 0.931 . S
C508 N505 1.311 . S
C508 N509 1.347 . S
C508 H519 0.929 . S
N509 C507 1.375 . S
N509 C508 1.347 . S
C510 C513 1.365 . S
C510 N515 1.328 . S
C510 H516 0.929 . S
C511 C512 1.362 . S
C511 C514 1.378 . S
C511 H526 0.929 . S
C512 C511 1.362 . S
C512 C513 1.366 . S
C513 C510 1.365 . S
C513 C512 1.366 . S
C513 H527 0.930 . S
C514 C511 1.378 . S
C514 N515 1.315 . S
C514 H517 0.930 . S
N515 Co495 2.194 . S
N515 C510 1.328 . S
N515 C514 1.315 . S
H516 C510 0.929 . S
H517 C514 0.930 . S
H518 C506 0.929 . S
H519 C508 0.929 . S
O520 Co495 2.351 . S
O520 C523 1.244 . S
O521 Co495 2.155 . S
O521 C523 1.240 . S
O522 Co495 2.096 . S
O522 C503 1.247 . S
C523 O520 1.244 . S
C523 O521 1.240 . S
H524 C498 0.931 . S
H525 C507 0.931 . S
H526 C511 0.929 . S
H527 C513 0.930 . S
Co528 N532 2.148 . S
Co528 N538 2.128 . S
Co528 N548 2.194 . S
Co528 O553 2.351 . S
Co528 O554 2.155 . S
Co528 O555 2.096 . S
C529 N532 1.301 . S
C529 N533 1.328 . S
C529 H534 0.930 . S
C530 C531 1.333 . S
C530 N532 1.317 . S
C530 H535 0.930 . S
C531 C530 1.333 . S
C531 N533 1.350 . S
C531 H557 0.931 . S
N532 Co528 2.148 . S
N532 C529 1.301 . S
N532 C530 1.317 . S
N533 C529 1.328 . S
N533 C531 1.350 . S
H534 C529 0.930 . S
H535 C530 0.930 . S
C536 O537 1.224 . S
C536 O555 1.247 . S
O537 C536 1.224 . S
N538 Co528 2.128 . S
N538 C539 1.355 . S
N538 C541 1.311 . S
C539 N538 1.355 . S
C539 C540 1.363 . S
C539 H551 0.929 . S
C540 C539 1.363 . S
C540 N542 1.375 . S
C540 H558 0.931 . S
C541 N538 1.311 . S
C541 N542 1.347 . S
C541 H552 0.929 . S
N542 C540 1.375 . S
N542 C541 1.347 . S
C543 C546 1.365 . S
C543 N548 1.328 . S
C543 H549 0.929 . S
C544 C545 1.362 . S
C544 C547 1.378 . S
C544 H559 0.929 . S
C545 C544 1.362 . S
C545 C546 1.366 . S
C546 C543 1.365 . S
C546 C545 1.366 . S
C546 H560 0.930 . S
C547 C544 1.378 . S
C547 N548 1.315 . S
C547 H550 0.930 . S
N548 Co528 2.194 . S
N548 C543 1.328 . S
N548 C547 1.315 . S
H549 C543 0.929 . S
H550 C547 0.930 . S
H551 C539 0.929 . S
H552 C541 0.929 . S
O553 Co528 2.351 . S
O553 C556 1.244 . S
O554 Co528 2.155 . S
O554 C556 1.240 . S
O555 Co528 2.096 . S
O555 C536 1.247 . S
C556 O553 1.244 . S
C556 O554 1.240 . S
H557 C531 0.931 . S
H558 C540 0.931 . S
H559 C544 0.929 . S
H560 C546 0.930 . S
Co561 N565 2.148 . S
Co561 N571 2.128 . S
Co561 N581 2.194 . S
Co561 O586 2.351 . S
Co561 O587 2.155 . S
Co561 O588 2.096 . S
C562 N565 1.301 1_554 S
C562 N566 1.328 . S
C562 H567 0.930 . S
C563 C564 1.333 . S
C563 N565 1.317 1_554 S
C563 H568 0.930 1_554 S
C564 C563 1.333 . S
C564 N566 1.350 . S
C564 H590 0.931 . S
N565 Co561 2.148 . S
N565 C562 1.301 1_556 S
N565 C563 1.317 1_556 S
N566 C562 1.328 . S
N566 C564 1.350 . S
H567 C562 0.930 . S
H568 C563 0.930 1_556 S
C569 O570 1.224 . S
C569 O588 1.247 . S
O570 C569 1.224 . S
N571 Co561 2.128 . S
N571 C572 1.355 . S
N571 C574 1.311 . S
C572 N571 1.355 . S
C572 C573 1.363 . S
C572 H584 0.929 . S
C573 C572 1.363 . S
C573 N575 1.375 . S
C573 H591 0.931 . S
C574 N571 1.311 . S
C574 N575 1.347 . S
C574 H585 0.929 . S
N575 C573 1.375 . S
N575 C574 1.347 . S
C576 C579 1.365 . S
C576 N581 1.328 . S
C576 H582 0.929 . S
C577 C578 1.362 . S
C577 C580 1.378 . S
C577 H592 0.929 . S
C578 C577 1.362 . S
C578 C579 1.366 . S
C579 C576 1.365 . S
C579 C578 1.366 . S
C579 H593 0.930 . S
C580 C577 1.378 . S
C580 N581 1.315 . S
C580 H583 0.930 . S
N581 Co561 2.194 . S
N581 C576 1.328 . S
N581 C580 1.315 . S
H582 C576 0.929 . S
H583 C580 0.930 . S
H584 C572 0.929 . S
H585 C574 0.929 . S
O586 Co561 2.351 . S
O586 C589 1.244 . S
O587 Co561 2.155 . S
O587 C589 1.240 . S
O588 Co561 2.096 . S
O588 C569 1.247 . S
C589 O586 1.244 . S
C589 O587 1.240 . S
H590 C564 0.931 . S
H591 C573 0.931 . S
H592 C577 0.929 . S
H593 C579 0.930 . S
Co594 N598 2.148 . S
Co594 N604 2.128 1_554 S
Co594 N614 2.194 . S
Co594 O619 2.351 . S
Co594 O620 2.155 . S
Co594 O621 2.096 . S
C595 N598 1.301 . S
C595 N599 1.328 . S
C595 H600 0.930 . S
C596 C597 1.333 . S
C596 N598 1.317 . S
C596 H601 0.930 . S
C597 C596 1.333 . S
C597 N599 1.350 . S
C597 H623 0.931 . S
N598 Co594 2.148 . S
N598 C595 1.301 . S
N598 C596 1.317 . S
N599 C595 1.328 . S
N599 C597 1.350 . S
H600 C595 0.930 . S
H601 C596 0.930 . S
C602 O603 1.224 . S
C602 O621 1.247 . S
O603 C602 1.224 . S
N604 Co594 2.128 1_556 S
N604 C605 1.355 . S
N604 C607 1.311 . S
C605 N604 1.355 . S
C605 C606 1.363 . S
C605 H617 0.929 . S
C606 C605 1.363 . S
C606 N608 1.375 . S
C606 H624 0.931 . S
C607 N604 1.311 . S
C607 N608 1.347 . S
C607 H618 0.929 . S
N608 C606 1.375 . S
N608 C607 1.347 . S
C609 C612 1.365 . S
C609 N614 1.328 . S
C609 H615 0.929 . S
C610 C611 1.362 . S
C610 C613 1.378 . S
C610 H625 0.929 . S
C611 C610 1.362 . S
C611 C612 1.366 . S
C612 C609 1.365 . S
C612 C611 1.366 . S
C612 H626 0.930 . S
C613 C610 1.378 . S
C613 N614 1.315 . S
C613 H616 0.930 . S
N614 Co594 2.194 . S
N614 C609 1.328 . S
N614 C613 1.315 . S
H615 C609 0.929 . S
H616 C613 0.930 . S
H617 C605 0.929 . S
H618 C607 0.929 . S
O619 Co594 2.351 . S
O619 C622 1.244 . S
O620 Co594 2.155 . S
O620 C622 1.240 . S
O621 Co594 2.096 . S
O621 C602 1.247 . S
C622 O619 1.244 . S
C622 O620 1.240 . S
H623 C597 0.931 . S
H624 C606 0.931 . S
H625 C610 0.929 . S
H626 C612 0.930 . S
Co627 N631 2.148 . S
Co627 N637 2.128 . S
Co627 N647 2.194 . S
Co627 O652 2.351 . S
Co627 O653 2.155 . S
Co627 O654 2.096 . S
C628 N631 1.301 . S
C628 N632 1.328 . S
C628 H633 0.930 . S
C629 C630 1.333 . S
C629 N631 1.317 . S
C629 H634 0.930 . S
C630 C629 1.333 . S
C630 N632 1.350 . S
C630 H656 0.931 . S
N631 Co627 2.148 . S
N631 C628 1.301 . S
N631 C629 1.317 . S
N632 C628 1.328 . S
N632 C630 1.350 . S
H633 C628 0.930 . S
H634 C629 0.930 . S
C635 O636 1.224 . S
C635 O654 1.247 . S
O636 C635 1.224 . S
N637 Co627 2.128 . S
N637 C638 1.355 . S
N637 C640 1.311 . S
C638 N637 1.355 . S
C638 C639 1.363 . S
C638 H650 0.929 . S
C639 C638 1.363 . S
C639 N641 1.375 . S
C639 H657 0.931 . S
C640 N637 1.311 . S
C640 N641 1.347 . S
C640 H651 0.929 . S
N641 C639 1.375 . S
N641 C640 1.347 . S
C642 C645 1.365 . S
C642 N647 1.328 . S
C642 H648 0.929 . S
C643 C644 1.362 . S
C643 C646 1.378 . S
C643 H658 0.929 . S
C644 C643 1.362 . S
C644 C645 1.366 . S
C645 C642 1.365 . S
C645 C644 1.366 . S
C645 H659 0.930 . S
C646 C643 1.378 . S
C646 N647 1.315 . S
C646 H649 0.930 . S
N647 Co627 2.194 . S
N647 C642 1.328 . S
N647 C646 1.315 . S
H648 C642 0.929 . S
H649 C646 0.930 . S
H650 C638 0.929 . S
H651 C640 0.929 . S
O652 Co627 2.351 . S
O652 C655 1.244 . S
O653 Co627 2.155 . S
O653 C655 1.240 . S
O654 Co627 2.096 . S
O654 C635 1.247 . S
C655 O652 1.244 . S
C655 O653 1.240 . S
H656 C630 0.931 . S
H657 C639 0.931 . S
H658 C643 0.929 . S
H659 C645 0.930 . S
Co660 N664 2.148 . S
Co660 N670 2.128 . S
Co660 N680 2.194 . S
Co660 O685 2.351 . S
Co660 O686 2.155 . S
Co660 O687 2.096 . S
C661 N664 1.301 . S
C661 N665 1.328 . S
C661 H666 0.930 . S
C662 C663 1.333 . S
C662 N664 1.317 . S
C662 H667 0.930 . S
C663 C662 1.333 . S
C663 N665 1.350 . S
C663 H689 0.931 . S
N664 Co660 2.148 . S
N664 C661 1.301 . S
N664 C662 1.317 . S
N665 C661 1.328 . S
N665 C663 1.350 . S
H666 C661 0.930 . S
H667 C662 0.930 . S
C668 O669 1.224 . S
C668 O687 1.247 . S
O669 C668 1.224 . S
N670 Co660 2.128 . S
N670 C671 1.355 . S
N670 C673 1.311 . S
C671 N670 1.355 . S
C671 C672 1.363 . S
C671 H683 0.929 . S
C672 C671 1.363 . S
C672 N674 1.375 . S
C672 H690 0.931 . S
C673 N670 1.311 . S
C673 N674 1.347 . S
C673 H684 0.929 . S
N674 C672 1.375 . S
N674 C673 1.347 . S
C675 C678 1.365 . S
C675 N680 1.328 . S
C675 H681 0.929 . S
C676 C677 1.362 . S
C676 C679 1.378 . S
C676 H691 0.929 . S
C677 C676 1.362 . S
C677 C678 1.366 . S
C678 C675 1.365 . S
C678 C677 1.366 . S
C678 H692 0.930 . S
C679 C676 1.378 . S
C679 N680 1.315 . S
C679 H682 0.930 . S
N680 Co660 2.194 . S
N680 C675 1.328 . S
N680 C679 1.315 . S
H681 C675 0.929 . S
H682 C679 0.930 . S
H683 C671 0.929 . S
H684 C673 0.929 . S
O685 Co660 2.351 . S
O685 C688 1.244 . S
O686 Co660 2.155 . S
O686 C688 1.240 . S
O687 Co660 2.096 . S
O687 C668 1.247 . S
C688 O685 1.244 . S
C688 O686 1.240 . S
H689 C663 0.931 . S
H690 C672 0.931 . S
H691 C676 0.929 . S
H692 C678 0.930 . S
Co693 N697 2.148 . S
Co693 N703 2.128 . S
Co693 N713 2.194 . S
Co693 O718 2.351 . S
Co693 O719 2.155 . S
Co693 O720 2.096 . S
C694 N697 1.301 . S
C694 N698 1.328 . S
C694 H699 0.930 . S
C695 C696 1.333 . S
C695 N697 1.317 . S
C695 H700 0.930 . S
C696 C695 1.333 . S
C696 N698 1.350 . S
C696 H722 0.931 . S
N697 Co693 2.148 . S
N697 C694 1.301 . S
N697 C695 1.317 . S
N698 C694 1.328 . S
N698 C696 1.350 . S
H699 C694 0.930 . S
H700 C695 0.930 . S
C701 O702 1.224 . S
C701 O720 1.247 . S
O702 C701 1.224 . S
N703 Co693 2.128 . S
N703 C704 1.355 . S
N703 C706 1.311 . S
C704 N703 1.355 . S
C704 C705 1.363 . S
C704 H716 0.929 . S
C705 C704 1.363 . S
C705 N707 1.375 . S
C705 H723 0.931 . S
C706 N703 1.311 . S
C706 N707 1.347 . S
C706 H717 0.929 . S
N707 C705 1.375 . S
N707 C706 1.347 . S
C708 C711 1.365 . S
C708 N713 1.328 . S
C708 H714 0.929 . S
C709 C710 1.362 . S
C709 C712 1.378 . S
C709 H724 0.929 . S
C710 C709 1.362 . S
C710 C711 1.366 . S
C711 C708 1.365 . S
C711 C710 1.366 . S
C711 H725 0.930 . S
C712 C709 1.378 . S
C712 N713 1.315 . S
C712 H715 0.930 . S
N713 Co693 2.194 . S
N713 C708 1.328 . S
N713 C712 1.315 . S
H714 C708 0.929 . S
H715 C712 0.930 . S
H716 C704 0.929 . S
H717 C706 0.929 . S
O718 Co693 2.351 . S
O718 C721 1.244 . S
O719 Co693 2.155 . S
O719 C721 1.240 . S
O720 Co693 2.096 . S
O720 C701 1.247 . S
C721 O718 1.244 . S
C721 O719 1.240 . S
H722 C696 0.931 . S
H723 C705 0.931 . S
H724 C709 0.929 . S
H725 C711 0.930 . S
Co726 N730 2.148 . S
Co726 N736 2.128 1_556 S
Co726 N746 2.194 . S
Co726 O751 2.351 . S
Co726 O752 2.155 . S
Co726 O753 2.096 . S
C727 N730 1.301 . S
C727 N731 1.328 . S
C727 H732 0.930 . S
C728 C729 1.333 . S
C728 N730 1.317 . S
C728 H733 0.930 . S
C729 C728 1.333 . S
C729 N731 1.350 . S
C729 H755 0.931 . S
N730 Co726 2.148 . S
N730 C727 1.301 . S
N730 C728 1.317 . S
N731 C727 1.328 . S
N731 C729 1.350 . S
H732 C727 0.930 . S
H733 C728 0.930 . S
C734 O735 1.224 . S
C734 O753 1.247 . S
O735 C734 1.224 . S
N736 Co726 2.128 1_554 S
N736 C737 1.355 . S
N736 C739 1.311 . S
C737 N736 1.355 . S
C737 C738 1.363 . S
C737 H749 0.929 . S
C738 C737 1.363 . S
C738 N740 1.375 . S
C738 H756 0.931 . S
C739 N736 1.311 . S
C739 N740 1.347 . S
C739 H750 0.929 . S
N740 C738 1.375 . S
N740 C739 1.347 . S
C741 C744 1.365 . S
C741 N746 1.328 . S
C741 H747 0.929 . S
C742 C743 1.362 . S
C742 C745 1.378 . S
C742 H757 0.929 . S
C743 C742 1.362 . S
C743 C744 1.366 . S
C744 C741 1.365 . S
C744 C743 1.366 . S
C744 H758 0.930 . S
C745 C742 1.378 . S
C745 N746 1.315 . S
C745 H748 0.930 . S
N746 Co726 2.194 . S
N746 C741 1.328 . S
N746 C745 1.315 . S
H747 C741 0.929 . S
H748 C745 0.930 . S
H749 C737 0.929 . S
H750 C739 0.929 . S
O751 Co726 2.351 . S
O751 C754 1.244 . S
O752 Co726 2.155 . S
O752 C754 1.240 . S
O753 Co726 2.096 . S
O753 C734 1.247 . S
C754 O751 1.244 . S
C754 O752 1.240 . S
H755 C729 0.931 . S
H756 C738 0.931 . S
H757 C742 0.929 . S
H758 C744 0.930 . S
Co759 N763 2.148 . S
Co759 N769 2.128 . S
Co759 N779 2.194 . S
Co759 O784 2.351 . S
Co759 O785 2.155 . S
Co759 O786 2.096 . S
C760 N763 1.301 1_556 S
C760 N764 1.328 . S
C760 H765 0.930 . S
C761 C762 1.333 . S
C761 N763 1.317 1_556 S
C761 H766 0.930 1_556 S
C762 C761 1.333 . S
C762 N764 1.350 . S
C762 H788 0.931 . S
N763 Co759 2.148 . S
N763 C760 1.301 1_554 S
N763 C761 1.317 1_554 S
N764 C760 1.328 . S
N764 C762 1.350 . S
H765 C760 0.930 . S
H766 C761 0.930 1_554 S
C767 O768 1.224 . S
C767 O786 1.247 . S
O768 C767 1.224 . S
N769 Co759 2.128 . S
N769 C770 1.355 . S
N769 C772 1.311 . S
C770 N769 1.355 . S
C770 C771 1.363 . S
C770 H782 0.929 . S
C771 C770 1.363 . S
C771 N773 1.375 . S
C771 H789 0.931 . S
C772 N769 1.311 . S
C772 N773 1.347 . S
C772 H783 0.929 . S
N773 C771 1.375 . S
N773 C772 1.347 . S
C774 C777 1.365 . S
C774 N779 1.328 . S
C774 H780 0.929 . S
C775 C776 1.362 . S
C775 C778 1.378 . S
C775 H790 0.929 . S
C776 C775 1.362 . S
C776 C777 1.366 . S
C777 C774 1.365 . S
C777 C776 1.366 . S
C777 H791 0.930 . S
C778 C775 1.378 . S
C778 N779 1.315 . S
C778 H781 0.930 . S
N779 Co759 2.194 . S
N779 C774 1.328 . S
N779 C778 1.315 . S
H780 C774 0.929 . S
H781 C778 0.930 . S
H782 C770 0.929 . S
H783 C772 0.929 . S
O784 Co759 2.351 . S
O784 C787 1.244 . S
O785 Co759 2.155 . S
O785 C787 1.240 . S
O786 Co759 2.096 . S
O786 C767 1.247 . S
C787 O784 1.244 . S
C787 O785 1.240 . S
H788 C762 0.931 . S
H789 C771 0.931 . S
H790 C775 0.929 . S
H791 C777 0.930 . S
Co792 N796 2.148 . S
Co792 N802 2.128 . S
Co792 N812 2.194 . S
Co792 O817 2.351 . S
Co792 O818 2.155 . S
Co792 O819 2.096 . S
C793 N796 1.301 . S
C793 N797 1.328 . S
C793 H798 0.930 . S
C794 C795 1.333 . S
C794 N796 1.317 . S
C794 H799 0.930 . S
C795 C794 1.333 . S
C795 N797 1.350 . S
C795 H821 0.931 . S
N796 Co792 2.148 . S
N796 C793 1.301 . S
N796 C794 1.317 . S
N797 C793 1.328 . S
N797 C795 1.350 . S
H798 C793 0.930 . S
H799 C794 0.930 . S
C800 O801 1.224 . S
C800 O819 1.247 . S
O801 C800 1.224 . S
N802 Co792 2.128 . S
N802 C803 1.355 . S
N802 C805 1.311 . S
C803 N802 1.355 . S
C803 C804 1.363 . S
C803 H815 0.929 . S
C804 C803 1.363 . S
C804 N806 1.375 . S
C804 H822 0.931 . S
C805 N802 1.311 . S
C805 N806 1.347 . S
C805 H816 0.929 . S
N806 C804 1.375 . S
N806 C805 1.347 . S
C807 C810 1.365 . S
C807 N812 1.328 . S
C807 H813 0.929 . S
C808 C809 1.362 . S
C808 C811 1.378 . S
C808 H823 0.929 . S
C809 C808 1.362 . S
C809 C810 1.366 . S
C810 C807 1.365 . S
C810 C809 1.366 . S
C810 H824 0.930 . S
C811 C808 1.378 . S
C811 N812 1.315 . S
C811 H814 0.930 . S
N812 Co792 2.194 . S
N812 C807 1.328 . S
N812 C811 1.315 . S
H813 C807 0.929 . S
H814 C811 0.930 . S
H815 C803 0.929 . S
H816 C805 0.929 . S
O817 Co792 2.351 . S
O817 C820 1.244 . S
O818 Co792 2.155 . S
O818 C820 1.240 . S
O819 Co792 2.096 . S
O819 C800 1.247 . S
C820 O817 1.244 . S
C820 O818 1.240 . S
H821 C795 0.931 . S
H822 C804 0.931 . S
H823 C808 0.929 . S
H824 C810 0.930 . S
Co825 N829 2.148 . S
Co825 N835 2.128 . S
Co825 N845 2.194 . S
Co825 O850 2.351 . S
Co825 O851 2.155 . S
Co825 O852 2.096 . S
C826 N829 1.301 1_556 S
C826 N830 1.328 . S
C826 H831 0.930 . S
C827 C828 1.333 . S
C827 N829 1.317 1_556 S
C827 H832 0.930 1_556 S
C828 C827 1.333 . S
C828 N830 1.350 . S
C828 H854 0.931 . S
N829 Co825 2.148 . S
N829 C826 1.301 1_554 S
N829 C827 1.317 1_554 S
N830 C826 1.328 . S
N830 C828 1.350 . S
H831 C826 0.930 . S
H832 C827 0.930 1_554 S
C833 O834 1.224 . S
C833 O852 1.247 . S
O834 C833 1.224 . S
N835 Co825 2.128 . S
N835 C836 1.355 . S
N835 C838 1.311 . S
C836 N835 1.355 . S
C836 C837 1.363 . S
C836 H848 0.929 . S
C837 C836 1.363 . S
C837 N839 1.375 . S
C837 H855 0.931 . S
C838 N835 1.311 . S
C838 N839 1.347 . S
C838 H849 0.929 . S
N839 C837 1.375 . S
N839 C838 1.347 . S
C840 C843 1.365 . S
C840 N845 1.328 . S
C840 H846 0.929 . S
C841 C842 1.362 . S
C841 C844 1.378 . S
C841 H856 0.929 . S
C842 C841 1.362 . S
C842 C843 1.366 . S
C843 C840 1.365 . S
C843 C842 1.366 . S
C843 H857 0.930 . S
C844 C841 1.378 . S
C844 N845 1.315 . S
C844 H847 0.930 . S
N845 Co825 2.194 . S
N845 C840 1.328 . S
N845 C844 1.315 . S
H846 C840 0.929 . S
H847 C844 0.930 . S
H848 C836 0.929 . S
H849 C838 0.929 . S
O850 Co825 2.351 . S
O850 C853 1.244 . S
O851 Co825 2.155 . S
O851 C853 1.240 . S
O852 Co825 2.096 . S
O852 C833 1.247 . S
C853 O850 1.244 . S
C853 O851 1.240 . S
H854 C828 0.931 . S
H855 C837 0.931 . S
H856 C841 0.929 . S
H857 C843 0.930 . S
Co858 N862 2.148 . S
Co858 N868 2.128 1_556 S
Co858 N878 2.194 . S
Co858 O883 2.351 . S
Co858 O884 2.155 . S
Co858 O885 2.096 . S
C859 N862 1.301 . S
C859 N863 1.328 . S
C859 H864 0.930 . S
C860 C861 1.333 . S
C860 N862 1.317 . S
C860 H865 0.930 . S
C861 C860 1.333 . S
C861 N863 1.350 . S
C861 H887 0.931 . S
N862 Co858 2.148 . S
N862 C859 1.301 . S
N862 C860 1.317 . S
N863 C859 1.328 . S
N863 C861 1.350 . S
H864 C859 0.930 . S
H865 C860 0.930 . S
C866 O867 1.224 . S
C866 O885 1.247 . S
O867 C866 1.224 . S
N868 Co858 2.128 1_554 S
N868 C869 1.355 . S
N868 C871 1.311 . S
C869 N868 1.355 . S
C869 C870 1.363 . S
C869 H881 0.929 . S
C870 C869 1.363 . S
C870 N872 1.375 . S
C870 H888 0.931 . S
C871 N868 1.311 . S
C871 N872 1.347 . S
C871 H882 0.929 . S
N872 C870 1.375 . S
N872 C871 1.347 . S
C873 C876 1.365 . S
C873 N878 1.328 . S
C873 H879 0.929 . S
C874 C875 1.362 . S
C874 C877 1.378 . S
C874 H889 0.929 . S
C875 C874 1.362 . S
C875 C876 1.366 . S
C876 C873 1.365 . S
C876 C875 1.366 . S
C876 H890 0.930 . S
C877 C874 1.378 . S
C877 N878 1.315 . S
C877 H880 0.930 . S
N878 Co858 2.194 . S
N878 C873 1.328 . S
N878 C877 1.315 . S
H879 C873 0.929 . S
H880 C877 0.930 . S
H881 C869 0.929 . S
H882 C871 0.929 . S
O883 Co858 2.351 . S
O883 C886 1.244 . S
O884 Co858 2.155 . S
O884 C886 1.240 . S
O885 Co858 2.096 . S
O885 C866 1.247 . S
C886 O883 1.244 . S
C886 O884 1.240 . S
H887 C861 0.931 . S
H888 C870 0.931 . S
H889 C874 0.929 . S
H890 C876 0.930 . S
Co891 N895 2.148 . S
Co891 N901 2.128 . S
Co891 N911 2.194 . S
Co891 O916 2.351 . S
Co891 O917 2.155 . S
Co891 O918 2.096 . S
C892 N895 1.301 . S
C892 N896 1.328 . S
C892 H897 0.930 . S
C893 C894 1.333 . S
C893 N895 1.317 . S
C893 H898 0.930 . S
C894 C893 1.333 . S
C894 N896 1.350 . S
C894 H920 0.931 . S
N895 Co891 2.148 . S
N895 C892 1.301 . S
N895 C893 1.317 . S
N896 C892 1.328 . S
N896 C894 1.350 . S
H897 C892 0.930 . S
H898 C893 0.930 . S
C899 O900 1.224 . S
C899 O918 1.247 . S
O900 C899 1.224 . S
N901 Co891 2.128 . S
N901 C902 1.355 . S
N901 C904 1.311 . S
C902 N901 1.355 . S
C902 C903 1.363 . S
C902 H914 0.929 . S
C903 C902 1.363 . S
C903 N905 1.375 . S
C903 H921 0.931 . S
C904 N901 1.311 . S
C904 N905 1.347 . S
C904 H915 0.929 . S
N905 C903 1.375 . S
N905 C904 1.347 . S
C906 C909 1.365 . S
C906 N911 1.328 . S
C906 H912 0.929 . S
C907 C908 1.362 . S
C907 C910 1.378 . S
C907 H922 0.929 . S
C908 C907 1.362 . S
C908 C909 1.366 . S
C909 C906 1.365 . S
C909 C908 1.366 . S
C909 H923 0.930 . S
C910 C907 1.378 . S
C910 N911 1.315 . S
C910 H913 0.930 . S
N911 Co891 2.194 . S
N911 C906 1.328 . S
N911 C910 1.315 . S
H912 C906 0.929 . S
H913 C910 0.930 . S
H914 C902 0.929 . S
H915 C904 0.929 . S
O916 Co891 2.351 . S
O916 C919 1.244 . S
O917 Co891 2.155 . S
O917 C919 1.240 . S
O918 Co891 2.096 . S
O918 C899 1.247 . S
C919 O916 1.244 . S
C919 O917 1.240 . S
H920 C894 0.931 . S
H921 C903 0.931 . S
H922 C907 0.929 . S
H923 C909 0.930 . S
Co924 N928 2.148 . S
Co924 N934 2.128 . S
Co924 N944 2.194 . S
Co924 O949 2.351 . S
Co924 O950 2.155 . S
Co924 O951 2.096 . S
C925 N928 1.301 . S
C925 N929 1.328 . S
C925 H930 0.930 . S
C926 C927 1.333 . S
C926 N928 1.317 . S
C926 H931 0.930 . S
C927 C926 1.333 . S
C927 N929 1.350 . S
C927 H953 0.931 . S
N928 Co924 2.148 . S
N928 C925 1.301 . S
N928 C926 1.317 . S
N929 C925 1.328 . S
N929 C927 1.350 . S
H930 C925 0.930 . S
H931 C926 0.930 . S
C932 O933 1.224 . S
C932 O951 1.247 . S
O933 C932 1.224 . S
N934 Co924 2.128 . S
N934 C935 1.355 . S
N934 C937 1.311 . S
C935 N934 1.355 . S
C935 C936 1.363 . S
C935 H947 0.929 . S
C936 C935 1.363 . S
C936 N938 1.375 . S
C936 H954 0.931 . S
C937 N934 1.311 . S
C937 N938 1.347 . S
C937 H948 0.929 . S
N938 C936 1.375 . S
N938 C937 1.347 . S
C939 C942 1.365 . S
C939 N944 1.328 . S
C939 H945 0.929 . S
C940 C941 1.362 . S
C940 C943 1.378 . S
C940 H955 0.929 . S
C941 C940 1.362 . S
C941 C942 1.366 . S
C942 C939 1.365 . S
C942 C941 1.366 . S
C942 H956 0.930 . S
C943 C940 1.378 . S
C943 N944 1.315 . S
C943 H946 0.930 . S
N944 Co924 2.194 . S
N944 C939 1.328 . S
N944 C943 1.315 . S
H945 C939 0.929 . S
H946 C943 0.930 . S
H947 C935 0.929 . S
H948 C937 0.929 . S
O949 Co924 2.351 . S
O949 C952 1.244 . S
O950 Co924 2.155 . S
O950 C952 1.240 . S
O951 Co924 2.096 . S
O951 C932 1.247 . S
C952 O949 1.244 . S
C952 O950 1.240 . S
H953 C927 0.931 . S
H954 C936 0.931 . S
H955 C940 0.929 . S
H956 C942 0.930 . S
Co957 N961 2.148 . S
Co957 N967 2.128 . S
Co957 N977 2.194 . S
Co957 O982 2.351 . S
Co957 O983 2.155 . S
Co957 O984 2.096 . S
C958 N961 1.301 . S
C958 N962 1.328 . S
C958 H963 0.930 . S
C959 C960 1.333 . S
C959 N961 1.317 . S
C959 H964 0.930 . S
C960 C959 1.333 . S
C960 N962 1.350 . S
C960 H986 0.931 . S
N961 Co957 2.148 . S
N961 C958 1.301 . S
N961 C959 1.317 . S
N962 C958 1.328 . S
N962 C960 1.350 . S
H963 C958 0.930 . S
H964 C959 0.930 . S
C965 O966 1.224 . S
C965 O984 1.247 . S
O966 C965 1.224 . S
N967 Co957 2.128 . S
N967 C968 1.355 . S
N967 C970 1.311 . S
C968 N967 1.355 . S
C968 C969 1.363 . S
C968 H980 0.929 . S
C969 C968 1.363 . S
C969 N971 1.375 . S
C969 H987 0.931 . S
C970 N967 1.311 . S
C970 N971 1.347 . S
C970 H981 0.929 . S
N971 C969 1.375 . S
N971 C970 1.347 . S
C972 C975 1.365 . S
C972 N977 1.328 . S
C972 H978 0.929 . S
C973 C974 1.362 . S
C973 C976 1.378 . S
C973 H988 0.929 . S
C974 C973 1.362 . S
C974 C975 1.366 . S
C975 C972 1.365 . S
C975 C974 1.366 . S
C975 H989 0.930 . S
C976 C973 1.378 . S
C976 N977 1.315 . S
C976 H979 0.930 . S
N977 Co957 2.194 . S
N977 C972 1.328 . S
N977 C976 1.315 . S
H978 C972 0.929 . S
H979 C976 0.930 . S
H980 C968 0.929 . S
H981 C970 0.929 . S
O982 Co957 2.351 . S
O982 C985 1.244 . S
O983 Co957 2.155 . S
O983 C985 1.240 . S
O984 Co957 2.096 . S
O984 C965 1.247 . S
C985 O982 1.244 . S
C985 O983 1.240 . S
H986 C960 0.931 . S
H987 C969 0.931 . S
H988 C973 0.929 . S
H989 C975 0.930 . S
Co990 N994 2.148 . S
Co990 N1000 2.128 1_554 S
Co990 N1010 2.194 . S
Co990 O1015 2.351 . S
Co990 O1016 2.155 . S
Co990 O1017 2.096 . S
C991 N994 1.301 . S
C991 N995 1.328 . S
C991 H996 0.930 . S
C992 C993 1.333 . S
C992 N994 1.317 . S
C992 H997 0.930 . S
C993 C992 1.333 . S
C993 N995 1.350 . S
C993 H1019 0.931 . S
N994 Co990 2.148 . S
N994 C991 1.301 . S
N994 C992 1.317 . S
N995 C991 1.328 . S
N995 C993 1.350 . S
H996 C991 0.930 . S
H997 C992 0.930 . S
C998 O999 1.224 . S
C998 O1017 1.247 . S
O999 C998 1.224 . S
N1000 Co990 2.128 1_556 S
N1000 C1001 1.355 . S
N1000 C1003 1.311 . S
C1001 N1000 1.355 . S
C1001 C1002 1.363 . S
C1001 H1013 0.929 . S
C1002 C1001 1.363 . S
C1002 N1004 1.375 . S
C1002 H1020 0.931 . S
C1003 N1000 1.311 . S
C1003 N1004 1.347 . S
C1003 H1014 0.929 . S
N1004 C1002 1.375 . S
N1004 C1003 1.347 . S
C1005 C1008 1.365 . S
C1005 N1010 1.328 . S
C1005 H1011 0.929 . S
C1006 C1007 1.362 . S
C1006 C1009 1.378 . S
C1006 H1021 0.929 . S
C1007 C1006 1.362 . S
C1007 C1008 1.366 . S
C1008 C1005 1.365 . S
C1008 C1007 1.366 . S
C1008 H1022 0.930 . S
C1009 C1006 1.378 . S
C1009 N1010 1.315 . S
C1009 H1012 0.930 . S
N1010 Co990 2.194 . S
N1010 C1005 1.328 . S
N1010 C1009 1.315 . S
H1011 C1005 0.929 . S
H1012 C1009 0.930 . S
H1013 C1001 0.929 . S
H1014 C1003 0.929 . S
O1015 Co990 2.351 . S
O1015 C1018 1.244 . S
O1016 Co990 2.155 . S
O1016 C1018 1.240 . S
O1017 Co990 2.096 . S
O1017 C998 1.247 . S
C1018 O1015 1.244 . S
C1018 O1016 1.240 . S
H1019 C993 0.931 . S
H1020 C1002 0.931 . S
H1021 C1006 0.929 . S
H1022 C1008 0.930 . S
Co1023 N1027 2.148 . S
Co1023 N1033 2.128 . S
Co1023 N1043 2.194 . S
Co1023 O1048 2.351 . S
Co1023 O1049 2.155 . S
Co1023 O1050 2.096 . S
C1024 N1027 1.301 1_554 S
C1024 N1028 1.328 . S
C1024 H1029 0.930 . S
C1025 C1026 1.333 . S
C1025 N1027 1.317 1_554 S
C1025 H1030 0.930 1_554 S
C1026 C1025 1.333 . S
C1026 N1028 1.350 . S
C1026 H1052 0.931 . S
N1027 Co1023 2.148 . S
N1027 C1024 1.301 1_556 S
N1027 C1025 1.317 1_556 S
N1028 C1024 1.328 . S
N1028 C1026 1.350 . S
H1029 C1024 0.930 . S
H1030 C1025 0.930 1_556 S
C1031 O1032 1.224 . S
C1031 O1050 1.247 . S
O1032 C1031 1.224 . S
N1033 Co1023 2.128 . S
N1033 C1034 1.355 . S
N1033 C1036 1.311 . S
C1034 N1033 1.355 . S
C1034 C1035 1.363 . S
C1034 H1046 0.929 . S
C1035 C1034 1.363 . S
C1035 N1037 1.375 . S
C1035 H1053 0.931 . S
C1036 N1033 1.311 . S
C1036 N1037 1.347 . S
C1036 H1047 0.929 . S
N1037 C1035 1.375 . S
N1037 C1036 1.347 . S
C1038 C1041 1.365 . S
C1038 N1043 1.328 . S
C1038 H1044 0.929 . S
C1039 C1040 1.362 . S
C1039 C1042 1.378 . S
C1039 H1054 0.929 . S
C1040 C1039 1.362 . S
C1040 C1041 1.366 . S
C1041 C1038 1.365 . S
C1041 C1040 1.366 . S
C1041 H1055 0.930 . S
C1042 C1039 1.378 . S
C1042 N1043 1.315 . S
C1042 H1045 0.930 . S
N1043 Co1023 2.194 . S
N1043 C1038 1.328 . S
N1043 C1042 1.315 . S
H1044 C1038 0.929 . S
H1045 C1042 0.930 . S
H1046 C1034 0.929 . S
H1047 C1036 0.929 . S
O1048 Co1023 2.351 . S
O1048 C1051 1.244 . S
O1049 Co1023 2.155 . S
O1049 C1051 1.240 . S
O1050 Co1023 2.096 . S
O1050 C1031 1.247 . S
C1051 O1048 1.244 . S
C1051 O1049 1.240 . S
H1052 C1026 0.931 . S
H1053 C1035 0.931 . S
H1054 C1039 0.929 . S
H1055 C1041 0.930 . S
C1056 C1057 1.363 . S
C1056 C1062 1.379 . S
C1056 N1064 1.356 . S
C1057 C1056 1.363 . S
C1057 C1063 1.363 . S
C1058 C1059 1.363 . S
C1058 C1063 1.379 . S
C1058 N1065 1.356 . S
C1059 C1058 1.363 . S
C1059 C1062 1.363 . S
N1060 C1062 1.356 . S
N1060 H1072 0.984 . S
N1060 H1073 0.985 . S
N1061 C1063 1.356 . S
N1061 H1066 0.984 . S
N1061 H1067 0.985 . S
C1062 C1056 1.379 . S
C1062 C1059 1.363 . S
C1062 N1060 1.356 . S
C1063 C1057 1.363 . S
C1063 C1058 1.379 . S
C1063 N1061 1.356 . S
N1064 C1056 1.356 . S
N1064 H1070 0.984 . S
N1064 H1071 0.984 . S
N1065 C1058 1.356 . S
N1065 H1068 0.984 . S
N1065 H1069 0.985 . S
H1066 N1061 0.984 . S
H1067 N1061 0.985 . S
H1068 N1065 0.984 . S
H1069 N1065 0.985 . S
H1070 N1064 0.984 . S
H1071 N1064 0.984 . S
H1072 N1060 0.984 . S
H1073 N1060 0.985 . S
C1074 C1075 1.363 . S
C1074 C1080 1.379 . S
C1074 N1082 1.356 . S
C1075 C1074 1.363 . S
C1075 C1081 1.363 . S
C1076 C1077 1.363 . S
C1076 C1081 1.379 . S
C1076 N1083 1.356 . S
C1077 C1076 1.363 . S
C1077 C1080 1.363 . S
N1078 C1080 1.356 . S
N1078 H1090 0.984 . S
N1078 H1091 0.985 1_556 S
N1079 C1081 1.356 . S
N1079 H1084 0.984 . S
N1079 H1085 0.985 . S
C1080 C1074 1.379 . S
C1080 C1077 1.363 . S
C1080 N1078 1.356 . S
C1081 C1075 1.363 . S
C1081 C1076 1.379 . S
C1081 N1079 1.356 . S
N1082 C1074 1.356 . S
N1082 H1088 0.984 . S
N1082 H1089 0.984 . S
N1083 C1076 1.356 . S
N1083 H1086 0.984 1_556 S
N1083 H1087 0.985 . S
H1084 N1079 0.984 . S
H1085 N1079 0.985 . S
H1086 N1083 0.984 1_554 S
H1087 N1083 0.985 . S
H1088 N1082 0.984 . S
H1089 N1082 0.984 . S
H1090 N1078 0.984 . S
H1091 N1078 0.985 1_554 S
C1092 C1093 1.363 1_554 S
C1092 C1098 1.379 . S
C1092 N1100 1.356 1_554 S
C1093 C1092 1.363 1_556 S
C1093 C1099 1.363 1_556 S
C1094 C1095 1.363 . S
C1094 C1099 1.379 . S
C1094 N1101 1.356 . S
C1095 C1094 1.363 . S
C1095 C1098 1.363 . S
N1096 C1098 1.356 . S
N1096 H1108 0.984 . S
N1096 H1109 0.985 . S
N1097 C1099 1.356 1_556 S
N1097 H1102 0.984 . S
N1097 H1103 0.985 . S
C1098 C1092 1.379 . S
C1098 C1095 1.363 . S
C1098 N1096 1.356 . S
C1099 C1093 1.363 1_554 S
C1099 C1094 1.379 . S
C1099 N1097 1.356 1_554 S
N1100 C1092 1.356 1_556 S
N1100 H1106 0.984 . S
N1100 H1107 0.984 . S
N1101 C1094 1.356 . S
N1101 H1104 0.984 . S
N1101 H1105 0.985 . S
H1102 N1097 0.984 . S
H1103 N1097 0.985 . S
H1104 N1101 0.984 . S
H1105 N1101 0.985 . S
H1106 N1100 0.984 . S
H1107 N1100 0.984 . S
H1108 N1096 0.984 . S
H1109 N1096 0.985 . S
C1110 C1111 1.363 . S
C1110 C1116 1.379 . S
C1110 N1118 1.356 . S
C1111 C1110 1.363 . S
C1111 C1117 1.363 . S
C1112 C1113 1.363 . S
C1112 C1117 1.379 . S
C1112 N1119 1.356 . S
C1113 C1112 1.363 . S
C1113 C1116 1.363 . S
N1114 C1116 1.356 . S
N1114 H1126 0.984 . S
N1114 H1127 0.985 . S
N1115 C1117 1.356 . S
N1115 H1120 0.984 . S
N1115 H1121 0.985 . S
C1116 C1110 1.379 . S
C1116 C1113 1.363 . S
C1116 N1114 1.356 . S
C1117 C1111 1.363 . S
C1117 C1112 1.379 . S
C1117 N1115 1.356 . S
N1118 C1110 1.356 . S
N1118 H1124 0.984 . S
N1118 H1125 0.984 . S
N1119 C1112 1.356 . S
N1119 H1122 0.984 . S
N1119 H1123 0.985 . S
H1120 N1115 0.984 . S
H1121 N1115 0.985 . S
H1122 N1119 0.984 . S
H1123 N1119 0.985 . S
H1124 N1118 0.984 . S
H1125 N1118 0.984 . S
H1126 N1114 0.984 . S
H1127 N1114 0.985 . S
C1128 C1129 1.363 . S
C1128 C1134 1.379 . S
C1128 N1136 1.356 . S
C1129 C1128 1.363 . S
C1129 C1135 1.363 . S
C1130 C1131 1.363 . S
C1130 C1135 1.379 . S
C1130 N1137 1.356 . S
C1131 C1130 1.363 . S
C1131 C1134 1.363 . S
N1132 C1134 1.356 . S
N1132 H1144 0.984 . S
N1132 H1145 0.985 . S
N1133 C1135 1.356 . S
N1133 H1138 0.984 . S
N1133 H1139 0.985 . S
C1134 C1128 1.379 . S
C1134 C1131 1.363 . S
C1134 N1132 1.356 . S
C1135 C1129 1.363 . S
C1135 C1130 1.379 . S
C1135 N1133 1.356 . S
N1136 C1128 1.356 . S
N1136 H1142 0.984 . S
N1136 H1143 0.984 . S
N1137 C1130 1.356 . S
N1137 H1140 0.984 . S
N1137 H1141 0.985 . S
H1138 N1133 0.984 . S
H1139 N1133 0.985 . S
H1140 N1137 0.984 . S
H1141 N1137 0.985 . S
H1142 N1136 0.984 . S
H1143 N1136 0.984 . S
H1144 N1132 0.984 . S
H1145 N1132 0.985 . S
C1146 C1147 1.363 . S
C1146 C1152 1.379 . S
C1146 N1154 1.356 . S
C1147 C1146 1.363 . S
C1147 C1153 1.363 . S
C1148 C1149 1.363 . S
C1148 C1153 1.379 . S
C1148 N1155 1.356 . S
C1149 C1148 1.363 . S
C1149 C1152 1.363 . S
N1150 C1152 1.356 . S
N1150 H1162 0.984 . S
N1150 H1163 0.985 . S
N1151 C1153 1.356 . S
N1151 H1156 0.984 . S
N1151 H1157 0.985 . S
C1152 C1146 1.379 . S
C1152 C1149 1.363 . S
C1152 N1150 1.356 . S
C1153 C1147 1.363 . S
C1153 C1148 1.379 . S
C1153 N1151 1.356 . S
N1154 C1146 1.356 . S
N1154 H1160 0.984 . S
N1154 H1161 0.984 . S
N1155 C1148 1.356 . S
N1155 H1158 0.984 . S
N1155 H1159 0.985 . S
H1156 N1151 0.984 . S
H1157 N1151 0.985 . S
H1158 N1155 0.984 . S
H1159 N1155 0.985 . S
H1160 N1154 0.984 . S
H1161 N1154 0.984 . S
H1162 N1150 0.984 . S
H1163 N1150 0.985 . S
C1164 C1165 1.363 . S
C1164 C1170 1.379 . S
C1164 N1172 1.356 . S
C1165 C1164 1.363 . S
C1165 C1171 1.363 . S
C1166 C1167 1.363 1_556 S
C1166 C1171 1.379 . S
C1166 N1173 1.356 1_556 S
C1167 C1166 1.363 1_554 S
C1167 C1170 1.363 1_554 S
N1168 C1170 1.356 1_554 S
N1168 H1180 0.984 . S
N1168 H1181 0.985 . S
N1169 C1171 1.356 . S
N1169 H1174 0.984 . S
N1169 H1175 0.985 . S
C1170 C1164 1.379 . S
C1170 C1167 1.363 1_556 S
C1170 N1168 1.356 1_556 S
C1171 C1165 1.363 . S
C1171 C1166 1.379 . S
C1171 N1169 1.356 . S
N1172 C1164 1.356 . S
N1172 H1178 0.984 . S
N1172 H1179 0.984 . S
N1173 C1166 1.356 1_554 S
N1173 H1176 0.984 . S
N1173 H1177 0.985 . S
H1174 N1169 0.984 . S
H1175 N1169 0.985 . S
H1176 N1173 0.984 . S
H1177 N1173 0.985 . S
H1178 N1172 0.984 . S
H1179 N1172 0.984 . S
H1180 N1168 0.984 . S
H1181 N1168 0.985 . S
C1182 C1183 1.363 . S
C1182 C1188 1.379 . S
C1182 N1190 1.356 . S
C1183 C1182 1.363 . S
C1183 C1189 1.363 . S
C1184 C1185 1.363 . S
C1184 C1189 1.379 . S
C1184 N1191 1.356 . S
C1185 C1184 1.363 . S
C1185 C1188 1.363 . S
N1186 C1188 1.356 . S
N1186 H1198 0.984 . S
N1186 H1199 0.985 . S
N1187 C1189 1.356 . S
N1187 H1192 0.984 1_554 S
N1187 H1193 0.985 . S
C1188 C1182 1.379 . S
C1188 C1185 1.363 . S
C1188 N1186 1.356 . S
C1189 C1183 1.363 . S
C1189 C1184 1.379 . S
C1189 N1187 1.356 . S
N1190 C1182 1.356 . S
N1190 H1196 0.984 . S
N1190 H1197 0.984 1_554 S
N1191 C1184 1.356 . S
N1191 H1194 0.984 . S
N1191 H1195 0.985 . S
H1192 N1187 0.984 1_556 S
H1193 N1187 0.985 . S
H1194 N1191 0.984 . S
H1195 N1191 0.985 . S
H1196 N1190 0.984 . S
H1197 N1190 0.984 1_556 S
H1198 N1186 0.984 . S
H1199 N1186 0.985 . S
C1200 C1201 1.363 . S
C1200 C1206 1.379 . S
C1200 N1208 1.356 . S
C1201 C1200 1.363 . S
C1201 C1207 1.363 . S
C1202 C1203 1.363 . S
C1202 C1207 1.379 . S
C1202 N1209 1.356 . S
C1203 C1202 1.363 . S
C1203 C1206 1.363 . S
N1204 C1206 1.356 . S
N1204 H1216 0.984 . S
N1204 H1217 0.985 . S
N1205 C1207 1.356 . S
N1205 H1210 0.984 . S
N1205 H1211 0.985 . S
C1206 C1200 1.379 . S
C1206 C1203 1.363 . S
C1206 N1204 1.356 . S
C1207 C1201 1.363 . S
C1207 C1202 1.379 . S
C1207 N1205 1.356 . S
N1208 C1200 1.356 . S
N1208 H1214 0.984 . S
N1208 H1215 0.984 . S
N1209 C1202 1.356 . S
N1209 H1212 0.984 . S
N1209 H1213 0.985 . S
H1210 N1205 0.984 . S
H1211 N1205 0.985 . S
H1212 N1209 0.984 . S
H1213 N1209 0.985 . S
H1214 N1208 0.984 . S
H1215 N1208 0.984 . S
H1216 N1204 0.984 . S
H1217 N1204 0.985 . S
C1218 C1219 1.363 . S
C1218 C1224 1.379 . S
C1218 N1226 1.356 . S
C1219 C1218 1.363 . S
C1219 C1225 1.363 . S
C1220 C1221 1.363 . S
C1220 C1225 1.379 . S
C1220 N1227 1.356 . S
C1221 C1220 1.363 . S
C1221 C1224 1.363 . S
N1222 C1224 1.356 . S
N1222 H1234 0.984 . S
N1222 H1235 0.985 . S
N1223 C1225 1.356 . S
N1223 H1228 0.984 1_554 S
N1223 H1229 0.985 . S
C1224 C1218 1.379 . S
C1224 C1221 1.363 . S
C1224 N1222 1.356 . S
C1225 C1219 1.363 . S
C1225 C1220 1.379 . S
C1225 N1223 1.356 . S
N1226 C1218 1.356 . S
N1226 H1232 0.984 . S
N1226 H1233 0.984 1_554 S
N1227 C1220 1.356 . S
N1227 H1230 0.984 . S
N1227 H1231 0.985 . S
H1228 N1223 0.984 1_556 S
H1229 N1223 0.985 . S
H1230 N1227 0.984 . S
H1231 N1227 0.985 . S
H1232 N1226 0.984 . S
H1233 N1226 0.984 1_556 S
H1234 N1222 0.984 . S
H1235 N1222 0.985 . S
C1236 C1237 1.363 . S
C1236 C1242 1.379 . S
C1236 N1244 1.356 . S
C1237 C1236 1.363 . S
C1237 C1243 1.363 . S
C1238 C1239 1.363 1_556 S
C1238 C1243 1.379 . S
C1238 N1245 1.356 1_556 S
C1239 C1238 1.363 1_554 S
C1239 C1242 1.363 1_554 S
N1240 C1242 1.356 1_554 S
N1240 H1252 0.984 . S
N1240 H1253 0.985 . S
N1241 C1243 1.356 . S
N1241 H1246 0.984 . S
N1241 H1247 0.985 . S
C1242 C1236 1.379 . S
C1242 C1239 1.363 1_556 S
C1242 N1240 1.356 1_556 S
C1243 C1237 1.363 . S
C1243 C1238 1.379 . S
C1243 N1241 1.356 . S
N1244 C1236 1.356 . S
N1244 H1250 0.984 . S
N1244 H1251 0.984 . S
N1245 C1238 1.356 1_554 S
N1245 H1248 0.984 . S
N1245 H1249 0.985 . S
H1246 N1241 0.984 . S
H1247 N1241 0.985 . S
H1248 N1245 0.984 . S
H1249 N1245 0.985 . S
H1250 N1244 0.984 . S
H1251 N1244 0.984 . S
H1252 N1240 0.984 . S
H1253 N1240 0.985 . S
C1254 C1255 1.363 . S
C1254 C1260 1.379 . S
C1254 N1262 1.356 . S
C1255 C1254 1.363 . S
C1255 C1261 1.363 . S
C1256 C1257 1.363 . S
C1256 C1261 1.379 . S
C1256 N1263 1.356 . S
C1257 C1256 1.363 . S
C1257 C1260 1.363 . S
N1258 C1260 1.356 . S
N1258 H1270 0.984 . S
N1258 H1271 0.985 . S
N1259 C1261 1.356 . S
N1259 H1264 0.984 . S
N1259 H1265 0.985 . S
C1260 C1254 1.379 . S
C1260 C1257 1.363 . S
C1260 N1258 1.356 . S
C1261 C1255 1.363 . S
C1261 C1256 1.379 . S
C1261 N1259 1.356 . S
N1262 C1254 1.356 . S
N1262 H1268 0.984 . S
N1262 H1269 0.984 . S
N1263 C1256 1.356 . S
N1263 H1266 0.984 . S
N1263 H1267 0.985 . S
H1264 N1259 0.984 . S
H1265 N1259 0.985 . S
H1266 N1263 0.984 . S
H1267 N1263 0.985 . S
H1268 N1262 0.984 . S
H1269 N1262 0.984 . S
H1270 N1258 0.984 . S
H1271 N1258 0.985 . S
C1272 C1273 1.363 . S
C1272 C1278 1.379 . S
C1272 N1280 1.356 . S
C1273 C1272 1.363 . S
C1273 C1279 1.363 . S
C1274 C1275 1.363 . S
C1274 C1279 1.379 . S
C1274 N1281 1.356 . S
C1275 C1274 1.363 . S
C1275 C1278 1.363 . S
N1276 C1278 1.356 . S
N1276 H1288 0.984 . S
N1276 H1289 0.985 . S
N1277 C1279 1.356 . S
N1277 H1282 0.984 . S
N1277 H1283 0.985 . S
C1278 C1272 1.379 . S
C1278 C1275 1.363 . S
C1278 N1276 1.356 . S
C1279 C1273 1.363 . S
C1279 C1274 1.379 . S
C1279 N1277 1.356 . S
N1280 C1272 1.356 . S
N1280 H1286 0.984 . S
N1280 H1287 0.984 . S
N1281 C1274 1.356 . S
N1281 H1284 0.984 . S
N1281 H1285 0.985 . S
H1282 N1277 0.984 . S
H1283 N1277 0.985 . S
H1284 N1281 0.984 . S
H1285 N1281 0.985 . S
H1286 N1280 0.984 . S
H1287 N1280 0.984 . S
H1288 N1276 0.984 . S
H1289 N1276 0.985 . S
C1290 C1291 1.363 . S
C1290 C1296 1.379 . S
C1290 N1298 1.356 . S
C1291 C1290 1.363 . S
C1291 C1297 1.363 . S
C1292 C1293 1.363 . S
C1292 C1297 1.379 . S
C1292 N1299 1.356 . S
C1293 C1292 1.363 . S
C1293 C1296 1.363 . S
N1294 C1296 1.356 . S
N1294 H1306 0.984 . S
N1294 H1307 0.985 . S
N1295 C1297 1.356 . S
N1295 H1300 0.984 . S
N1295 H1301 0.985 . S
C1296 C1290 1.379 . S
C1296 C1293 1.363 . S
C1296 N1294 1.356 . S
C1297 C1291 1.363 . S
C1297 C1292 1.379 . S
C1297 N1295 1.356 . S
N1298 C1290 1.356 . S
N1298 H1304 0.984 . S
N1298 H1305 0.984 . S
N1299 C1292 1.356 . S
N1299 H1302 0.984 . S
N1299 H1303 0.985 . S
H1300 N1295 0.984 . S
H1301 N1295 0.985 . S
H1302 N1299 0.984 . S
H1303 N1299 0.985 . S
H1304 N1298 0.984 . S
H1305 N1298 0.984 . S
H1306 N1294 0.984 . S
H1307 N1294 0.985 . S
C1308 C1309 1.363 1_554 S
C1308 C1314 1.379 . S
C1308 N1316 1.356 1_554 S
C1309 C1308 1.363 1_556 S
C1309 C1315 1.363 1_556 S
C1310 C1311 1.363 . S
C1310 C1315 1.379 . S
C1310 N1317 1.356 . S
C1311 C1310 1.363 . S
C1311 C1314 1.363 . S
N1312 C1314 1.356 . S
N1312 H1324 0.984 . S
N1312 H1325 0.985 . S
N1313 C1315 1.356 1_556 S
N1313 H1318 0.984 . S
N1313 H1319 0.985 . S
C1314 C1308 1.379 . S
C1314 C1311 1.363 . S
C1314 N1312 1.356 . S
C1315 C1309 1.363 1_554 S
C1315 C1310 1.379 . S
C1315 N1313 1.356 1_554 S
N1316 C1308 1.356 1_556 S
N1316 H1322 0.984 . S
N1316 H1323 0.984 . S
N1317 C1310 1.356 . S
N1317 H1320 0.984 . S
N1317 H1321 0.985 . S
H1318 N1313 0.984 . S
H1319 N1313 0.985 . S
H1320 N1317 0.984 . S
H1321 N1317 0.985 . S
H1322 N1316 0.984 . S
H1323 N1316 0.984 . S
H1324 N1312 0.984 . S
H1325 N1312 0.985 . S
C1326 C1327 1.363 . S
C1326 C1332 1.379 . S
C1326 N1334 1.356 . S
C1327 C1326 1.363 . S
C1327 C1333 1.363 . S
C1328 C1329 1.363 . S
C1328 C1333 1.379 . S
C1328 N1335 1.356 . S
C1329 C1328 1.363 . S
C1329 C1332 1.363 . S
N1330 C1332 1.356 . S
N1330 H1342 0.984 . S
N1330 H1343 0.985 . S
N1331 C1333 1.356 . S
N1331 H1336 0.984 1_556 S
N1331 H1337 0.985 . S
C1332 C1326 1.379 . S
C1332 C1329 1.363 . S
C1332 N1330 1.356 . S
C1333 C1327 1.363 . S
C1333 C1328 1.379 . S
C1333 N1331 1.356 . S
N1334 C1326 1.356 . S
N1334 H1340 0.984 . S
N1334 H1341 0.984 1_556 S
N1335 C1328 1.356 . S
N1335 H1338 0.984 . S
N1335 H1339 0.985 . S
H1336 N1331 0.984 1_554 S
H1337 N1331 0.985 . S
H1338 N1335 0.984 . S
H1339 N1335 0.985 . S
H1340 N1334 0.984 . S
H1341 N1334 0.984 1_554 S
H1342 N1330 0.984 . S
H1343 N1330 0.985 . S
C1344 C1345 1.363 1_554 S
C1344 C1350 1.379 . S
C1344 N1352 1.356 1_554 S
C1345 C1344 1.363 1_556 S
C1345 C1351 1.363 1_556 S
C1346 C1347 1.363 . S
C1346 C1351 1.379 . S
C1346 N1353 1.356 . S
C1347 C1346 1.363 . S
C1347 C1350 1.363 . S
N1348 C1350 1.356 . S
N1348 H1360 0.984 . S
N1348 H1361 0.985 . S
N1349 C1351 1.356 1_556 S
N1349 H1354 0.984 . S
N1349 H1355 0.985 . S
C1350 C1344 1.379 . S
C1350 C1347 1.363 . S
C1350 N1348 1.356 . S
C1351 C1345 1.363 1_554 S
C1351 C1346 1.379 . S
C1351 N1349 1.356 1_554 S
N1352 C1344 1.356 1_556 S
N1352 H1358 0.984 . S
N1352 H1359 0.984 . S
N1353 C1346 1.356 . S
N1353 H1356 0.984 . S
N1353 H1357 0.985 . S
H1354 N1349 0.984 . S
H1355 N1349 0.985 . S
H1356 N1353 0.984 . S
H1357 N1353 0.985 . S
H1358 N1352 0.984 . S
H1359 N1352 0.984 . S
H1360 N1348 0.984 . S
H1361 N1348 0.985 . S
C1362 C1363 1.363 . S
C1362 C1368 1.379 . S
C1362 N1370 1.356 . S
C1363 C1362 1.363 . S
C1363 C1369 1.363 . S
C1364 C1365 1.363 . S
C1364 C1369 1.379 . S
C1364 N1371 1.356 . S
C1365 C1364 1.363 . S
C1365 C1368 1.363 . S
N1366 C1368 1.356 . S
N1366 H1378 0.984 . S
N1366 H1379 0.985 . S
N1367 C1369 1.356 . S
N1367 H1372 0.984 . S
N1367 H1373 0.985 . S
C1368 C1362 1.379 . S
C1368 C1365 1.363 . S
C1368 N1366 1.356 . S
C1369 C1363 1.363 . S
C1369 C1364 1.379 . S
C1369 N1367 1.356 . S
N1370 C1362 1.356 . S
N1370 H1376 0.984 . S
N1370 H1377 0.984 . S
N1371 C1364 1.356 . S
N1371 H1374 0.984 . S
N1371 H1375 0.985 . S
H1372 N1367 0.984 . S
H1373 N1367 0.985 . S
H1374 N1371 0.984 . S
H1375 N1371 0.985 . S
H1376 N1370 0.984 . S
H1377 N1370 0.984 . S
H1378 N1366 0.984 . S
H1379 N1366 0.985 . S
C1380 C1381 1.363 . S
C1380 C1386 1.379 . S
C1380 N1388 1.356 . S
C1381 C1380 1.363 . S
C1381 C1387 1.363 . S
C1382 C1383 1.363 . S
C1382 C1387 1.379 . S
C1382 N1389 1.356 . S
C1383 C1382 1.363 . S
C1383 C1386 1.363 . S
N1384 C1386 1.356 . S
N1384 H1396 0.984 . S
N1384 H1397 0.985 . S
N1385 C1387 1.356 . S
N1385 H1390 0.984 . S
N1385 H1391 0.985 . S
C1386 C1380 1.379 . S
C1386 C1383 1.363 . S
C1386 N1384 1.356 . S
C1387 C1381 1.363 . S
C1387 C1382 1.379 . S
C1387 N1385 1.356 . S
N1388 C1380 1.356 . S
N1388 H1394 0.984 . S
N1388 H1395 0.984 . S
N1389 C1382 1.356 . S
N1389 H1392 0.984 . S
N1389 H1393 0.985 . S
H1390 N1385 0.984 . S
H1391 N1385 0.985 . S
H1392 N1389 0.984 . S
H1393 N1389 0.985 . S
H1394 N1388 0.984 . S
H1395 N1388 0.984 . S
H1396 N1384 0.984 . S
H1397 N1384 0.985 . S
C1398 C1399 1.363 . S
C1398 C1404 1.379 . S
C1398 N1406 1.356 . S
C1399 C1398 1.363 . S
C1399 C1405 1.363 . S
C1400 C1401 1.363 . S
C1400 C1405 1.379 . S
C1400 N1407 1.356 . S
C1401 C1400 1.363 . S
C1401 C1404 1.363 . S
N1402 C1404 1.356 . S
N1402 H1414 0.984 . S
N1402 H1415 0.985 1_556 S
N1403 C1405 1.356 . S
N1403 H1408 0.984 . S
N1403 H1409 0.985 . S
C1404 C1398 1.379 . S
C1404 C1401 1.363 . S
C1404 N1402 1.356 . S
C1405 C1399 1.363 . S
C1405 C1400 1.379 . S
C1405 N1403 1.356 . S
N1406 C1398 1.356 . S
N1406 H1412 0.984 . S
N1406 H1413 0.984 . S
N1407 C1400 1.356 . S
N1407 H1410 0.984 1_556 S
N1407 H1411 0.985 . S
H1408 N1403 0.984 . S
H1409 N1403 0.985 . S
H1410 N1407 0.984 1_554 S
H1411 N1407 0.985 . S
H1412 N1406 0.984 . S
H1413 N1406 0.984 . S
H1414 N1402 0.984 . S
H1415 N1402 0.985 1_554 S
C1416 C1417 1.363 1_556 S
C1416 C1422 1.379 . S
C1416 N1424 1.356 1_556 S
C1417 C1416 1.363 1_554 S
C1417 C1423 1.363 1_554 S
C1418 C1419 1.363 . S
C1418 C1423 1.379 . S
C1418 N1425 1.356 . S
C1419 C1418 1.363 . S
C1419 C1422 1.363 . S
N1420 C1422 1.356 . S
N1420 H1432 0.984 . S
N1420 H1433 0.985 . S
N1421 C1423 1.356 1_554 S
N1421 H1426 0.984 . S
N1421 H1427 0.985 . S
C1422 C1416 1.379 . S
C1422 C1419 1.363 . S
C1422 N1420 1.356 . S
C1423 C1417 1.363 1_556 S
C1423 C1418 1.379 . S
C1423 N1421 1.356 1_556 S
N1424 C1416 1.356 1_554 S
N1424 H1430 0.984 . S
N1424 H1431 0.984 . S
N1425 C1418 1.356 . S
N1425 H1428 0.984 . S
N1425 H1429 0.985 . S
H1426 N1421 0.984 . S
H1427 N1421 0.985 . S
H1428 N1425 0.984 . S
H1429 N1425 0.985 . S
H1430 N1424 0.984 . S
H1431 N1424 0.984 . S
H1432 N1420 0.984 . S
H1433 N1420 0.985 . S
C1434 C1435 1.363 . S
C1434 C1440 1.379 . S
C1434 N1442 1.356 . S
C1435 C1434 1.363 . S
C1435 C1441 1.363 . S
C1436 C1437 1.363 . S
C1436 C1441 1.379 . S
C1436 N1443 1.356 . S
C1437 C1436 1.363 . S
C1437 C1440 1.363 . S
N1438 C1440 1.356 . S
N1438 H1450 0.984 . S
N1438 H1451 0.985 1_554 S
N1439 C1441 1.356 . S
N1439 H1444 0.984 . S
N1439 H1445 0.985 . S
C1440 C1434 1.379 . S
C1440 C1437 1.363 . S
C1440 N1438 1.356 . S
C1441 C1435 1.363 . S
C1441 C1436 1.379 . S
C1441 N1439 1.356 . S
N1442 C1434 1.356 . S
N1442 H1448 0.984 . S
N1442 H1449 0.984 . S
N1443 C1436 1.356 . S
N1443 H1446 0.984 1_554 S
N1443 H1447 0.985 . S
H1444 N1439 0.984 . S
H1445 N1439 0.985 . S
H1446 N1443 0.984 1_556 S
H1447 N1443 0.985 . S
H1448 N1442 0.984 . S
H1449 N1442 0.984 . S
H1450 N1438 0.984 . S
H1451 N1438 0.985 1_556 S
C1452 C1453 1.363 . S
C1452 C1458 1.379 . S
C1452 N1460 1.356 . S
C1453 C1452 1.363 . S
C1453 C1459 1.363 . S
C1454 C1455 1.363 . S
C1454 C1459 1.379 . S
C1454 N1461 1.356 . S
C1455 C1454 1.363 . S
C1455 C1458 1.363 . S
N1456 C1458 1.356 . S
N1456 H1468 0.984 . S
N1456 H1469 0.985 . S
N1457 C1459 1.356 . S
N1457 H1462 0.984 . S
N1457 H1463 0.985 . S
C1458 C1452 1.379 . S
C1458 C1455 1.363 . S
C1458 N1456 1.356 . S
C1459 C1453 1.363 . S
C1459 C1454 1.379 . S
C1459 N1457 1.356 . S
N1460 C1452 1.356 . S
N1460 H1466 0.984 . S
N1460 H1467 0.984 . S
N1461 C1454 1.356 . S
N1461 H1464 0.984 . S
N1461 H1465 0.985 . S
H1462 N1457 0.984 . S
H1463 N1457 0.985 . S
H1464 N1461 0.984 . S
H1465 N1461 0.985 . S
H1466 N1460 0.984 . S
H1467 N1460 0.984 . S
H1468 N1456 0.984 . S
H1469 N1456 0.985 . S
C1470 C1471 1.363 . S
C1470 C1476 1.379 . S
C1470 N1478 1.356 . S
C1471 C1470 1.363 . S
C1471 C1477 1.363 . S
C1472 C1473 1.363 . S
C1472 C1477 1.379 . S
C1472 N1479 1.356 . S
C1473 C1472 1.363 . S
C1473 C1476 1.363 . S
N1474 C1476 1.356 . S
N1474 H1486 0.984 . S
N1474 H1487 0.985 . S
N1475 C1477 1.356 . S
N1475 H1480 0.984 . S
N1475 H1481 0.985 . S
C1476 C1470 1.379 . S
C1476 C1473 1.363 . S
C1476 N1474 1.356 . S
C1477 C1471 1.363 . S
C1477 C1472 1.379 . S
C1477 N1475 1.356 . S
N1478 C1470 1.356 . S
N1478 H1484 0.984 . S
N1478 H1485 0.984 . S
N1479 C1472 1.356 . S
N1479 H1482 0.984 . S
N1479 H1483 0.985 . S
H1480 N1475 0.984 . S
H1481 N1475 0.985 . S
H1482 N1479 0.984 . S
H1483 N1479 0.985 . S
H1484 N1478 0.984 . S
H1485 N1478 0.984 . S
H1486 N1474 0.984 . S
H1487 N1474 0.985 . S
C1488 C1489 1.363 1_556 S
C1488 C1494 1.379 . S
C1488 N1496 1.356 1_556 S
C1489 C1488 1.363 1_554 S
C1489 C1495 1.363 1_554 S
C1490 C1491 1.363 . S
C1490 C1495 1.379 . S
C1490 N1497 1.356 . S
C1491 C1490 1.363 . S
C1491 C1494 1.363 . S
N1492 C1494 1.356 . S
N1492 H1504 0.984 . S
N1492 H1505 0.985 . S
N1493 C1495 1.356 1_554 S
N1493 H1498 0.984 . S
N1493 H1499 0.985 . S
C1494 C1488 1.379 . S
C1494 C1491 1.363 . S
C1494 N1492 1.356 . S
C1495 C1489 1.363 1_556 S
C1495 C1490 1.379 . S
C1495 N1493 1.356 1_556 S
N1496 C1488 1.356 1_554 S
N1496 H1502 0.984 . S
N1496 H1503 0.984 . S
N1497 C1490 1.356 . S
N1497 H1500 0.984 . S
N1497 H1501 0.985 . S
H1498 N1493 0.984 . S
H1499 N1493 0.985 . S
H1500 N1497 0.984 . S
H1501 N1497 0.985 . S
H1502 N1496 0.984 . S
H1503 N1496 0.984 . S
H1504 N1492 0.984 . S
H1505 N1492 0.985 . S
C1506 C1507 1.363 . S
C1506 C1512 1.379 . S
C1506 N1514 1.356 . S
C1507 C1506 1.363 . S
C1507 C1513 1.363 . S
C1508 C1509 1.363 . S
C1508 C1513 1.379 . S
C1508 N1515 1.356 . S
C1509 C1508 1.363 . S
C1509 C1512 1.363 . S
N1510 C1512 1.356 . S
N1510 H1522 0.984 . S
N1510 H1523 0.985 . S
N1511 C1513 1.356 . S
N1511 H1516 0.984 . S
N1511 H1517 0.985 . S
C1512 C1506 1.379 . S
C1512 C1509 1.363 . S
C1512 N1510 1.356 . S
C1513 C1507 1.363 . S
C1513 C1508 1.379 . S
C1513 N1511 1.356 . S
N1514 C1506 1.356 . S
N1514 H1520 0.984 . S
N1514 H1521 0.984 . S
N1515 C1508 1.356 . S
N1515 H1518 0.984 . S
N1515 H1519 0.985 . S
H1516 N1511 0.984 . S
H1517 N1511 0.985 . S
H1518 N1515 0.984 . S
H1519 N1515 0.985 . S
H1520 N1514 0.984 . S
H1521 N1514 0.984 . S
H1522 N1510 0.984 . S
H1523 N1510 0.985 . S
C1524 C1525 1.363 . S
C1524 C1530 1.379 . S
C1524 N1532 1.356 . S
C1525 C1524 1.363 . S
C1525 C1531 1.363 . S
C1526 C1527 1.363 . S
C1526 C1531 1.379 . S
C1526 N1533 1.356 . S
C1527 C1526 1.363 . S
C1527 C1530 1.363 . S
N1528 C1530 1.356 . S
N1528 H1540 0.984 . S
N1528 H1541 0.985 . S
N1529 C1531 1.356 . S
N1529 H1534 0.984 . S
N1529 H1535 0.985 . S
C1530 C1524 1.379 . S
C1530 C1527 1.363 . S
C1530 N1528 1.356 . S
C1531 C1525 1.363 . S
C1531 C1526 1.379 . S
C1531 N1529 1.356 . S
N1532 C1524 1.356 . S
N1532 H1538 0.984 . S
N1532 H1539 0.984 . S
N1533 C1526 1.356 . S
N1533 H1536 0.984 . S
N1533 H1537 0.985 . S
H1534 N1529 0.984 . S
H1535 N1529 0.985 . S
H1536 N1533 0.984 . S
H1537 N1533 0.985 . S
H1538 N1532 0.984 . S
H1539 N1532 0.984 . S
H1540 N1528 0.984 . S
H1541 N1528 0.985 . S
C1542 C1543 1.363 . S
C1542 C1548 1.379 . S
C1542 N1550 1.356 . S
C1543 C1542 1.363 . S
C1543 C1549 1.363 . S
C1544 C1545 1.363 . S
C1544 C1549 1.379 . S
C1544 N1551 1.356 . S
C1545 C1544 1.363 . S
C1545 C1548 1.363 . S
N1546 C1548 1.356 . S
N1546 H1558 0.984 . S
N1546 H1559 0.985 . S
N1547 C1549 1.356 . S
N1547 H1552 0.984 1_554 S
N1547 H1553 0.985 . S
C1548 C1542 1.379 . S
C1548 C1545 1.363 . S
C1548 N1546 1.356 . S
C1549 C1543 1.363 . S
C1549 C1544 1.379 . S
C1549 N1547 1.356 . S
N1550 C1542 1.356 . S
N1550 H1556 0.984 . S
N1550 H1557 0.984 1_554 S
N1551 C1544 1.356 . S
N1551 H1554 0.984 . S
N1551 H1555 0.985 . S
H1552 N1547 0.984 1_556 S
H1553 N1547 0.985 . S
H1554 N1551 0.984 . S
H1555 N1551 0.985 . S
H1556 N1550 0.984 . S
H1557 N1550 0.984 1_556 S
H1558 N1546 0.984 . S
H1559 N1546 0.985 . S
C1560 C1561 1.363 . S
C1560 C1566 1.379 . S
C1560 N1568 1.356 . S
C1561 C1560 1.363 . S
C1561 C1567 1.363 . S
C1562 C1563 1.363 1_554 S
C1562 C1567 1.379 . S
C1562 N1569 1.356 1_554 S
C1563 C1562 1.363 1_556 S
C1563 C1566 1.363 1_556 S
N1564 C1566 1.356 1_556 S
N1564 H1576 0.984 . S
N1564 H1577 0.985 . S
N1565 C1567 1.356 . S
N1565 H1570 0.984 . S
N1565 H1571 0.985 . S
C1566 C1560 1.379 . S
C1566 C1563 1.363 1_554 S
C1566 N1564 1.356 1_554 S
C1567 C1561 1.363 . S
C1567 C1562 1.379 . S
C1567 N1565 1.356 . S
N1568 C1560 1.356 . S
N1568 H1574 0.984 . S
N1568 H1575 0.984 . S
N1569 C1562 1.356 1_556 S
N1569 H1572 0.984 . S
N1569 H1573 0.985 . S
H1570 N1565 0.984 . S
H1571 N1565 0.985 . S
H1572 N1569 0.984 . S
H1573 N1569 0.985 . S
H1574 N1568 0.984 . S
H1575 N1568 0.984 . S
H1576 N1564 0.984 . S
H1577 N1564 0.985 . S
C1578 C1579 1.363 . S
C1578 C1584 1.379 . S
C1578 N1586 1.356 . S
C1579 C1578 1.363 . S
C1579 C1585 1.363 . S
C1580 C1581 1.363 . S
C1580 C1585 1.379 . S
C1580 N1587 1.356 . S
C1581 C1580 1.363 . S
C1581 C1584 1.363 . S
N1582 C1584 1.356 . S
N1582 H1594 0.984 . S
N1582 H1595 0.985 . S
N1583 C1585 1.356 . S
N1583 H1588 0.984 1_556 S
N1583 H1589 0.985 . S
C1584 C1578 1.379 . S
C1584 C1581 1.363 . S
C1584 N1582 1.356 . S
C1585 C1579 1.363 . S
C1585 C1580 1.379 . S
C1585 N1583 1.356 . S
N1586 C1578 1.356 . S
N1586 H1592 0.984 . S
N1586 H1593 0.984 1_556 S
N1587 C1580 1.356 . S
N1587 H1590 0.984 . S
N1587 H1591 0.985 . S
H1588 N1583 0.984 1_554 S
H1589 N1583 0.985 . S
H1590 N1587 0.984 . S
H1591 N1587 0.985 . S
H1592 N1586 0.984 . S
H1593 N1586 0.984 1_554 S
H1594 N1582 0.984 . S
H1595 N1582 0.985 . S
C1596 C1597 1.363 . S
C1596 C1602 1.379 . S
C1596 N1604 1.356 . S
C1597 C1596 1.363 . S
C1597 C1603 1.363 . S
C1598 C1599 1.363 . S
C1598 C1603 1.379 . S
C1598 N1605 1.356 . S
C1599 C1598 1.363 . S
C1599 C1602 1.363 . S
N1600 C1602 1.356 . S
N1600 H1612 0.984 . S
N1600 H1613 0.985 . S
N1601 C1603 1.356 . S
N1601 H1606 0.984 . S
N1601 H1607 0.985 . S
C1602 C1596 1.379 . S
C1602 C1599 1.363 . S
C1602 N1600 1.356 . S
C1603 C1597 1.363 . S
C1603 C1598 1.379 . S
C1603 N1601 1.356 . S
N1604 C1596 1.356 . S
N1604 H1610 0.984 . S
N1604 H1611 0.984 . S
N1605 C1598 1.356 . S
N1605 H1608 0.984 . S
N1605 H1609 0.985 . S
H1606 N1601 0.984 . S
H1607 N1601 0.985 . S
H1608 N1605 0.984 . S
H1609 N1605 0.985 . S
H1610 N1604 0.984 . S
H1611 N1604 0.984 . S
H1612 N1600 0.984 . S
H1613 N1600 0.985 . S
C1614 C1615 1.363 . S
C1614 C1620 1.379 . S
C1614 N1622 1.356 . S
C1615 C1614 1.363 . S
C1615 C1621 1.363 . S
C1616 C1617 1.363 . S
C1616 C1621 1.379 . S
C1616 N1623 1.356 . S
C1617 C1616 1.363 . S
C1617 C1620 1.363 . S
N1618 C1620 1.356 . S
N1618 H1630 0.984 . S
N1618 H1631 0.985 . S
N1619 C1621 1.356 . S
N1619 H1624 0.984 . S
N1619 H1625 0.985 . S
C1620 C1614 1.379 . S
C1620 C1617 1.363 . S
C1620 N1618 1.356 . S
C1621 C1615 1.363 . S
C1621 C1616 1.379 . S
C1621 N1619 1.356 . S
N1622 C1614 1.356 . S
N1622 H1628 0.984 . S
N1622 H1629 0.984 . S
N1623 C1616 1.356 . S
N1623 H1626 0.984 . S
N1623 H1627 0.985 . S
H1624 N1619 0.984 . S
H1625 N1619 0.985 . S
H1626 N1623 0.984 . S
H1627 N1623 0.985 . S
H1628 N1622 0.984 . S
H1629 N1622 0.984 . S
H1630 N1618 0.984 . S
H1631 N1618 0.985 . S
C1632 C1633 1.363 . S
C1632 C1638 1.379 . S
C1632 N1640 1.356 . S
C1633 C1632 1.363 . S
C1633 C1639 1.363 . S
C1634 C1635 1.363 . S
C1634 C1639 1.379 . S
C1634 N1641 1.356 . S
C1635 C1634 1.363 . S
C1635 C1638 1.363 . S
N1636 C1638 1.356 . S
N1636 H1648 0.984 . S
N1636 H1649 0.985 . S
N1637 C1639 1.356 . S
N1637 H1642 0.984 . S
N1637 H1643 0.985 1_554 S
C1638 C1632 1.379 . S
C1638 C1635 1.363 . S
C1638 N1636 1.356 . S
C1639 C1633 1.363 . S
C1639 C1634 1.379 . S
C1639 N1637 1.356 . S
N1640 C1632 1.356 . S
N1640 H1646 0.984 . S
N1640 H1647 0.984 . S
N1641 C1634 1.356 . S
N1641 H1644 0.984 . S
N1641 H1645 0.985 1_554 S
H1642 N1637 0.984 . S
H1643 N1637 0.985 1_556 S
H1644 N1641 0.984 . S
H1645 N1641 0.985 1_556 S
H1646 N1640 0.984 . S
H1647 N1640 0.984 . S
H1648 N1636 0.984 . S
H1649 N1636 0.985 . S
C1650 C1651 1.363 . S
C1650 C1656 1.379 . S
C1650 N1658 1.356 . S
C1651 C1650 1.363 . S
C1651 C1657 1.363 . S
C1652 C1653 1.363 . S
C1652 C1657 1.379 . S
C1652 N1659 1.356 . S
C1653 C1652 1.363 . S
C1653 C1656 1.363 . S
N1654 C1656 1.356 . S
N1654 H1666 0.984 . S
N1654 H1667 0.985 . S
N1655 C1657 1.356 . S
N1655 H1660 0.984 . S
N1655 H1661 0.985 . S
C1656 C1650 1.379 . S
C1656 C1653 1.363 . S
C1656 N1654 1.356 . S
C1657 C1651 1.363 . S
C1657 C1652 1.379 . S
C1657 N1655 1.356 . S
N1658 C1650 1.356 . S
N1658 H1664 0.984 . S
N1658 H1665 0.984 . S
N1659 C1652 1.356 . S
N1659 H1662 0.984 . S
N1659 H1663 0.985 . S
H1660 N1655 0.984 . S
H1661 N1655 0.985 . S
H1662 N1659 0.984 . S
H1663 N1659 0.985 . S
H1664 N1658 0.984 . S
H1665 N1658 0.984 . S
H1666 N1654 0.984 . S
H1667 N1654 0.985 . S
C1668 C1669 1.363 . S
C1668 C1674 1.379 . S
C1668 N1676 1.356 . S
C1669 C1668 1.363 . S
C1669 C1675 1.363 . S
C1670 C1671 1.363 . S
C1670 C1675 1.379 . S
C1670 N1677 1.356 . S
C1671 C1670 1.363 . S
C1671 C1674 1.363 . S
N1672 C1674 1.356 . S
N1672 H1684 0.984 . S
N1672 H1685 0.985 . S
N1673 C1675 1.356 . S
N1673 H1678 0.984 . S
N1673 H1679 0.985 . S
C1674 C1668 1.379 . S
C1674 C1671 1.363 . S
C1674 N1672 1.356 . S
C1675 C1669 1.363 . S
C1675 C1670 1.379 . S
C1675 N1673 1.356 . S
N1676 C1668 1.356 . S
N1676 H1682 0.984 . S
N1676 H1683 0.984 . S
N1677 C1670 1.356 . S
N1677 H1680 0.984 . S
N1677 H1681 0.985 . S
H1678 N1673 0.984 . S
H1679 N1673 0.985 . S
H1680 N1677 0.984 . S
H1681 N1677 0.985 . S
H1682 N1676 0.984 . S
H1683 N1676 0.984 . S
H1684 N1672 0.984 . S
H1685 N1672 0.985 . S
C1686 C1687 1.363 . S
C1686 C1692 1.379 . S
C1686 N1694 1.356 1_556 S
C1687 C1686 1.363 . S
C1687 C1693 1.363 . S
C1688 C1689 1.363 . S
C1688 C1693 1.379 . S
C1688 N1695 1.356 . S
C1689 C1688 1.363 . S
C1689 C1692 1.363 . S
N1690 C1692 1.356 . S
N1690 H1702 0.984 1_556 S
N1690 H1703 0.985 . S
N1691 C1693 1.356 . S
N1691 H1696 0.984 . S
N1691 H1697 0.985 . S
C1692 C1686 1.379 . S
C1692 C1689 1.363 . S
C1692 N1690 1.356 . S
C1693 C1687 1.363 . S
C1693 C1688 1.379 . S
C1693 N1691 1.356 . S
N1694 C1686 1.356 1_554 S
N1694 H1700 0.984 . S
N1694 H1701 0.983 1_554 S
N1695 C1688 1.356 . S
N1695 H1698 0.984 . S
N1695 H1699 0.985 . S
H1696 N1691 0.984 . S
H1697 N1691 0.985 . S
H1698 N1695 0.984 . S
H1699 N1695 0.985 . S
H1700 N1694 0.984 . S
H1701 N1694 0.983 1_556 S
H1702 N1690 0.984 1_554 S
H1703 N1690 0.985 . S
C1704 C1705 1.363 . S
C1704 C1710 1.379 . S
C1704 N1712 1.356 . S
C1705 C1704 1.363 . S
C1705 C1711 1.363 . S
C1706 C1707 1.363 . S
C1706 C1711 1.379 . S
C1706 N1713 1.356 . S
C1707 C1706 1.363 . S
C1707 C1710 1.363 . S
N1708 C1710 1.356 . S
N1708 H1720 0.984 1_556 S
N1708 H1721 0.985 . S
N1709 C1711 1.356 . S
N1709 H1714 0.984 . S
N1709 H1715 0.985 . S
C1710 C1704 1.379 . S
C1710 C1707 1.363 . S
C1710 N1708 1.356 . S
C1711 C1705 1.363 . S
C1711 C1706 1.379 . S
C1711 N1709 1.356 . S
N1712 C1704 1.356 . S
N1712 H1718 0.984 . S
N1712 H1719 0.984 . S
N1713 C1706 1.356 . S
N1713 H1716 0.984 . S
N1713 H1717 0.985 . S
H1714 N1709 0.984 . S
H1715 N1709 0.985 . S
H1716 N1713 0.984 . S
H1717 N1713 0.985 . S
H1718 N1712 0.984 . S
H1719 N1712 0.984 . S
H1720 N1708 0.984 1_554 S
H1721 N1708 0.985 . S
C1722 C1723 1.363 . S
C1722 C1728 1.379 . S
C1722 N1730 1.356 . S
C1723 C1722 1.363 . S
C1723 C1729 1.363 . S
C1724 C1725 1.363 . S
C1724 C1729 1.379 . S
C1724 N1731 1.356 1_554 S
C1725 C1724 1.363 . S
C1725 C1728 1.363 . S
N1726 C1728 1.356 . S
N1726 H1738 0.984 . S
N1726 H1739 0.985 . S
N1727 C1729 1.356 1_556 S
N1727 H1732 0.984 . S
N1727 H1733 0.985 . S
C1728 C1722 1.379 . S
C1728 C1725 1.363 . S
C1728 N1726 1.356 . S
C1729 C1723 1.363 . S
C1729 C1724 1.379 . S
C1729 N1727 1.356 1_554 S
N1730 C1722 1.356 . S
N1730 H1736 0.984 . S
N1730 H1737 0.984 . S
N1731 C1724 1.356 1_556 S
N1731 H1734 0.984 1_556 S
N1731 H1735 0.985 . S
H1732 N1727 0.984 . S
H1733 N1727 0.985 . S
H1734 N1731 0.984 1_554 S
H1735 N1731 0.985 . S
H1736 N1730 0.984 . S
H1737 N1730 0.984 . S
H1738 N1726 0.984 . S
H1739 N1726 0.985 . S
C1740 C1741 1.363 . S
C1740 C1746 1.379 . S
C1740 N1748 1.356 . S
C1741 C1740 1.363 . S
C1741 C1747 1.363 . S
C1742 C1743 1.363 . S
C1742 C1747 1.379 . S
C1742 N1749 1.356 . S
C1743 C1742 1.363 . S
C1743 C1746 1.363 . S
N1744 C1746 1.356 . S
N1744 H1756 0.984 . S
N1744 H1757 0.985 . S
N1745 C1747 1.356 . S
N1745 H1750 0.984 . S
N1745 H1751 0.985 . S
C1746 C1740 1.379 . S
C1746 C1743 1.363 . S
C1746 N1744 1.356 . S
C1747 C1741 1.363 . S
C1747 C1742 1.379 . S
C1747 N1745 1.356 . S
N1748 C1740 1.356 . S
N1748 H1754 0.984 . S
N1748 H1755 0.984 . S
N1749 C1742 1.356 . S
N1749 H1752 0.984 . S
N1749 H1753 0.985 . S
H1750 N1745 0.984 . S
H1751 N1745 0.985 . S
H1752 N1749 0.984 . S
H1753 N1749 0.985 . S
H1754 N1748 0.984 . S
H1755 N1748 0.984 . S
H1756 N1744 0.984 . S
H1757 N1744 0.985 . S
C1758 C1759 1.363 . S
C1758 C1764 1.379 . S
C1758 N1766 1.356 . S
C1759 C1758 1.363 . S
C1759 C1765 1.363 . S
C1760 C1761 1.363 . S
C1760 C1765 1.379 . S
C1760 N1767 1.356 . S
C1761 C1760 1.363 . S
C1761 C1764 1.363 . S
N1762 C1764 1.356 . S
N1762 H1774 0.984 . S
N1762 H1775 0.985 . S
N1763 C1765 1.356 . S
N1763 H1768 0.984 . S
N1763 H1769 0.985 . S
C1764 C1758 1.379 . S
C1764 C1761 1.363 . S
C1764 N1762 1.356 . S
C1765 C1759 1.363 . S
C1765 C1760 1.379 . S
C1765 N1763 1.356 . S
N1766 C1758 1.356 . S
N1766 H1772 0.984 . S
N1766 H1773 0.984 . S
N1767 C1760 1.356 . S
N1767 H1770 0.984 . S
N1767 H1771 0.985 . S
H1768 N1763 0.984 . S
H1769 N1763 0.985 . S
H1770 N1767 0.984 . S
H1771 N1767 0.985 . S
H1772 N1766 0.984 . S
H1773 N1766 0.984 . S
H1774 N1762 0.984 . S
H1775 N1762 0.985 . S
C1776 C1777 1.363 . S
C1776 C1782 1.379 . S
C1776 N1784 1.356 . S
C1777 C1776 1.363 . S
C1777 C1783 1.363 . S
C1778 C1779 1.363 . S
C1778 C1783 1.379 . S
C1778 N1785 1.356 . S
C1779 C1778 1.363 . S
C1779 C1782 1.363 . S
N1780 C1782 1.356 1_554 S
N1780 H1792 0.984 . S
N1780 H1793 0.985 1_554 S
N1781 C1783 1.356 . S
N1781 H1786 0.984 . S
N1781 H1787 0.985 . S
C1782 C1776 1.379 . S
C1782 C1779 1.363 . S
C1782 N1780 1.356 1_556 S
C1783 C1777 1.363 . S
C1783 C1778 1.379 . S
C1783 N1781 1.356 . S
N1784 C1776 1.356 . S
N1784 H1790 0.984 1_556 S
N1784 H1791 0.984 . S
N1785 C1778 1.356 . S
N1785 H1788 0.984 . S
N1785 H1789 0.985 . S
H1786 N1781 0.984 . S
H1787 N1781 0.985 . S
H1788 N1785 0.984 . S
H1789 N1785 0.985 . S
H1790 N1784 0.984 1_554 S
H1791 N1784 0.984 . S
H1792 N1780 0.984 . S
H1793 N1780 0.985 1_556 S
C1794 C1795 1.363 . S
C1794 C1800 1.379 . S
C1794 N1802 1.356 . S
C1795 C1794 1.363 . S
C1795 C1801 1.363 . S
C1796 C1797 1.363 . S
C1796 C1801 1.379 . S
C1796 N1803 1.356 . S
C1797 C1796 1.363 . S
C1797 C1800 1.363 . S
N1798 C1800 1.356 . S
N1798 H1810 0.984 . S
N1798 H1811 0.985 . S
N1799 C1801 1.356 . S
N1799 H1804 0.984 . S
N1799 H1805 0.985 . S
C1800 C1794 1.379 . S
C1800 C1797 1.363 . S
C1800 N1798 1.356 . S
C1801 C1795 1.363 . S
C1801 C1796 1.379 . S
C1801 N1799 1.356 . S
N1802 C1794 1.356 . S
N1802 H1808 0.984 . S
N1802 H1809 0.984 . S
N1803 C1796 1.356 . S
N1803 H1806 0.984 . S
N1803 H1807 0.985 . S
H1804 N1799 0.984 . S
H1805 N1799 0.985 . S
H1806 N1803 0.984 . S
H1807 N1803 0.985 . S
H1808 N1802 0.984 . S
H1809 N1802 0.984 . S
H1810 N1798 0.984 . S
H1811 N1798 0.985 . S
C1812 C1813 1.363 . S
C1812 C1818 1.379 . S
C1812 N1820 1.356 . S
C1813 C1812 1.363 . S
C1813 C1819 1.363 . S
C1814 C1815 1.363 . S
C1814 C1819 1.379 . S
C1814 N1821 1.356 . S
C1815 C1814 1.363 . S
C1815 C1818 1.363 . S
N1816 C1818 1.356 . S
N1816 H1828 0.984 . S
N1816 H1829 0.985 . S
N1817 C1819 1.356 . S
N1817 H1822 0.984 . S
N1817 H1823 0.985 . S
C1818 C1812 1.379 . S
C1818 C1815 1.363 . S
C1818 N1816 1.356 . S
C1819 C1813 1.363 . S
C1819 C1814 1.379 . S
C1819 N1817 1.356 . S
N1820 C1812 1.356 . S
N1820 H1826 0.984 . S
N1820 H1827 0.984 . S
N1821 C1814 1.356 . S
N1821 H1824 0.984 . S
N1821 H1825 0.985 . S
H1822 N1817 0.984 . S
H1823 N1817 0.985 . S
H1824 N1821 0.984 . S
H1825 N1821 0.985 . S
H1826 N1820 0.984 . S
H1827 N1820 0.984 . S
H1828 N1816 0.984 . S
H1829 N1816 0.985 . S
C1830 C1831 1.363 . S
C1830 C1836 1.379 . S
C1830 N1838 1.356 . S
C1831 C1830 1.363 . S
C1831 C1837 1.363 . S
C1832 C1833 1.363 . S
C1832 C1837 1.379 . S
C1832 N1839 1.356 . S
C1833 C1832 1.363 . S
C1833 C1836 1.363 . S
N1834 C1836 1.356 . S
N1834 H1846 0.984 1_554 S
N1834 H1847 0.985 . S
N1835 C1837 1.356 . S
N1835 H1840 0.984 . S
N1835 H1841 0.985 . S
C1836 C1830 1.379 . S
C1836 C1833 1.363 . S
C1836 N1834 1.356 . S
C1837 C1831 1.363 . S
C1837 C1832 1.379 . S
C1837 N1835 1.356 . S
N1838 C1830 1.356 . S
N1838 H1844 0.984 1_554 S
N1838 H1845 0.984 . S
N1839 C1832 1.356 . S
N1839 H1842 0.984 . S
N1839 H1843 0.985 . S
H1840 N1835 0.984 . S
H1841 N1835 0.985 . S
H1842 N1839 0.984 . S
H1843 N1839 0.985 . S
H1844 N1838 0.984 1_556 S
H1845 N1838 0.984 . S
H1846 N1834 0.984 1_556 S
H1847 N1834 0.985 . S
C1848 C1849 1.363 . S
C1848 C1854 1.379 . S
C1848 N1856 1.356 1_554 S
C1849 C1848 1.363 . S
C1849 C1855 1.363 . S
C1850 C1851 1.363 . S
C1850 C1855 1.379 . S
C1850 N1857 1.356 . S
C1851 C1850 1.363 . S
C1851 C1854 1.363 . S
N1852 C1854 1.356 . S
N1852 H1864 0.984 1_554 S
N1852 H1865 0.985 . S
N1853 C1855 1.356 . S
N1853 H1858 0.984 . S
N1853 H1859 0.985 . S
C1854 C1848 1.379 . S
C1854 C1851 1.363 . S
C1854 N1852 1.356 . S
C1855 C1849 1.363 . S
C1855 C1850 1.379 . S
C1855 N1853 1.356 . S
N1856 C1848 1.356 1_556 S
N1856 H1862 0.984 . S
N1856 H1863 0.984 . S
N1857 C1850 1.356 . S
N1857 H1860 0.984 . S
N1857 H1861 0.985 . S
H1858 N1853 0.984 . S
H1859 N1853 0.985 . S
H1860 N1857 0.984 . S
H1861 N1857 0.985 . S
H1862 N1856 0.984 . S
H1863 N1856 0.984 . S
H1864 N1852 0.984 1_556 S
H1865 N1852 0.985 . S
C1866 C1867 1.363 . S
C1866 C1872 1.379 . S
C1866 N1874 1.356 . S
C1867 C1866 1.363 . S
C1867 C1873 1.363 . S
C1868 C1869 1.363 . S
C1868 C1873 1.379 . S
C1868 N1875 1.356 . S
C1869 C1868 1.363 . S
C1869 C1872 1.363 . S
N1870 C1872 1.356 1_554 S
N1870 H1882 0.984 . S
N1870 H1883 0.985 . S
N1871 C1873 1.356 . S
N1871 H1876 0.984 . S
N1871 H1877 0.985 . S
C1872 C1866 1.379 . S
C1872 C1869 1.363 . S
C1872 N1870 1.356 1_556 S
C1873 C1867 1.363 . S
C1873 C1868 1.379 . S
C1873 N1871 1.356 . S
N1874 C1866 1.356 . S
N1874 H1880 0.984 1_556 S
N1874 H1881 0.984 . S
N1875 C1868 1.356 . S
N1875 H1878 0.984 . S
N1875 H1879 0.985 . S
H1876 N1871 0.984 . S
H1877 N1871 0.985 . S
H1878 N1875 0.984 . S
H1879 N1875 0.985 . S
H1880 N1874 0.984 1_554 S
H1881 N1874 0.984 . S
H1882 N1870 0.984 . S
H1883 N1870 0.985 . S
C1884 C1885 1.363 . S
C1884 C1890 1.379 . S
C1884 N1892 1.356 . S
C1885 C1884 1.363 . S
C1885 C1891 1.363 . S
C1886 C1887 1.363 . S
C1886 C1891 1.379 . S
C1886 N1893 1.356 . S
C1887 C1886 1.363 . S
C1887 C1890 1.363 . S
N1888 C1890 1.356 . S
N1888 H1900 0.984 . S
N1888 H1901 0.985 . S
N1889 C1891 1.356 . S
N1889 H1894 0.984 . S
N1889 H1895 0.985 . S
C1890 C1884 1.379 . S
C1890 C1887 1.363 . S
C1890 N1888 1.356 . S
C1891 C1885 1.363 . S
C1891 C1886 1.379 . S
C1891 N1889 1.356 . S
N1892 C1884 1.356 . S
N1892 H1898 0.984 . S
N1892 H1899 0.984 . S
N1893 C1886 1.356 . S
N1893 H1896 0.984 . S
N1893 H1897 0.985 . S
H1894 N1889 0.984 . S
H1895 N1889 0.985 . S
H1896 N1893 0.984 . S
H1897 N1893 0.985 . S
H1898 N1892 0.984 . S
H1899 N1892 0.984 . S
H1900 N1888 0.984 . S
H1901 N1888 0.985 . S
C1902 C1903 1.363 . S
C1902 C1908 1.379 . S
C1902 N1910 1.356 . S
C1903 C1902 1.363 . S
C1903 C1909 1.363 . S
C1904 C1905 1.363 . S
C1904 C1909 1.379 . S
C1904 N1911 1.356 . S
C1905 C1904 1.363 . S
C1905 C1908 1.363 . S
N1906 C1908 1.356 . S
N1906 H1918 0.984 . S
N1906 H1919 0.985 . S
N1907 C1909 1.356 . S
N1907 H1912 0.984 . S
N1907 H1913 0.985 . S
C1908 C1902 1.379 . S
C1908 C1905 1.363 . S
C1908 N1906 1.356 . S
C1909 C1903 1.363 . S
C1909 C1904 1.379 . S
C1909 N1907 1.356 . S
N1910 C1902 1.356 . S
N1910 H1916 0.984 . S
N1910 H1917 0.984 . S
N1911 C1904 1.356 . S
N1911 H1914 0.984 . S
N1911 H1915 0.985 . S
H1912 N1907 0.984 . S
H1913 N1907 0.985 . S
H1914 N1911 0.984 . S
H1915 N1911 0.985 . S
H1916 N1910 0.984 . S
H1917 N1910 0.984 . S
H1918 N1906 0.984 . S
H1919 N1906 0.985 . S
C1920 C1921 1.363 1_554 S
C1920 C1926 1.379 . S
C1920 N1928 1.356 . S
C1921 C1920 1.363 1_556 S
C1921 C1927 1.363 . S
C1922 C1923 1.363 1_556 S
C1922 C1927 1.379 . S
C1922 N1929 1.356 . S
C1923 C1922 1.363 1_554 S
C1923 C1926 1.363 . S
N1924 C1926 1.356 . S
N1924 H1936 0.984 . S
N1924 H1937 0.985 . S
N1925 C1927 1.356 . S
N1925 H1930 0.984 . S
N1925 H1931 0.985 . S
C1926 C1920 1.379 . S
C1926 C1923 1.363 . S
C1926 N1924 1.356 . S
C1927 C1921 1.363 . S
C1927 C1922 1.379 . S
C1927 N1925 1.356 . S
N1928 C1920 1.356 . S
N1928 H1934 0.984 . S
N1928 H1935 0.984 . S
N1929 C1922 1.356 . S
N1929 H1932 0.984 . S
N1929 H1933 0.985 . S
H1930 N1925 0.984 . S
H1931 N1925 0.985 . S
H1932 N1929 0.984 . S
H1933 N1929 0.985 . S
H1934 N1928 0.984 . S
H1935 N1928 0.984 . S
H1936 N1924 0.984 . S
H1937 N1924 0.985 . S
C1938 C1939 1.363 . S
C1938 C1944 1.379 . S
C1938 N1946 1.356 . S
C1939 C1938 1.363 . S
C1939 C1945 1.363 . S
C1940 C1941 1.363 . S
C1940 C1945 1.379 . S
C1940 N1947 1.356 . S
C1941 C1940 1.363 . S
C1941 C1944 1.363 . S
N1942 C1944 1.356 . S
N1942 H1954 0.984 . S
N1942 H1955 0.985 . S
N1943 C1945 1.356 . S
N1943 H1948 0.984 . S
N1943 H1949 0.985 . S
C1944 C1938 1.379 . S
C1944 C1941 1.363 . S
C1944 N1942 1.356 . S
C1945 C1939 1.363 . S
C1945 C1940 1.379 . S
C1945 N1943 1.356 . S
N1946 C1938 1.356 . S
N1946 H1952 0.984 . S
N1946 H1953 0.984 . S
N1947 C1940 1.356 . S
N1947 H1950 0.984 . S
N1947 H1951 0.985 . S
H1948 N1943 0.984 . S
H1949 N1943 0.985 . S
H1950 N1947 0.984 . S
H1951 N1947 0.985 . S
H1952 N1946 0.984 . S
H1953 N1946 0.984 . S
H1954 N1942 0.984 . S
H1955 N1942 0.985 . S
C1956 C1957 1.363 . S
C1956 C1962 1.379 . S
C1956 N1964 1.356 . S
C1957 C1956 1.363 . S
C1957 C1963 1.363 . S
C1958 C1959 1.363 . S
C1958 C1963 1.379 . S
C1958 N1965 1.356 . S
C1959 C1958 1.363 . S
C1959 C1962 1.363 . S
N1960 C1962 1.356 . S
N1960 H1972 0.984 . S
N1960 H1973 0.985 . S
N1961 C1963 1.356 . S
N1961 H1966 0.984 . S
N1961 H1967 0.985 . S
C1962 C1956 1.379 . S
C1962 C1959 1.363 . S
C1962 N1960 1.356 . S
C1963 C1957 1.363 . S
C1963 C1958 1.379 . S
C1963 N1961 1.356 . S
N1964 C1956 1.356 . S
N1964 H1970 0.984 . S
N1964 H1971 0.984 . S
N1965 C1958 1.356 . S
N1965 H1968 0.984 . S
N1965 H1969 0.985 . S
H1966 N1961 0.984 . S
H1967 N1961 0.985 . S
H1968 N1965 0.984 . S
H1969 N1965 0.985 . S
H1970 N1964 0.984 . S
H1971 N1964 0.984 . S
H1972 N1960 0.984 . S
H1973 N1960 0.985 . S
C1974 C1975 1.363 . S
C1974 C1980 1.379 . S
C1974 N1982 1.356 . S
C1975 C1974 1.363 . S
C1975 C1981 1.363 . S
C1976 C1977 1.363 . S
C1976 C1981 1.379 . S
C1976 N1983 1.356 . S
C1977 C1976 1.363 . S
C1977 C1980 1.363 . S
N1978 C1980 1.356 . S
N1978 H1990 0.984 . S
N1978 H1991 0.985 . S
N1979 C1981 1.356 . S
N1979 H1984 0.984 . S
N1979 H1985 0.985 . S
C1980 C1974 1.379 . S
C1980 C1977 1.363 . S
C1980 N1978 1.356 . S
C1981 C1975 1.363 . S
C1981 C1976 1.379 . S
C1981 N1979 1.356 . S
N1982 C1974 1.356 . S
N1982 H1988 0.984 . S
N1982 H1989 0.984 . S
N1983 C1976 1.356 . S
N1983 H1986 0.984 . S
N1983 H1987 0.985 . S
H1984 N1979 0.984 . S
H1985 N1979 0.985 . S
H1986 N1983 0.984 . S
H1987 N1983 0.985 . S
H1988 N1982 0.984 . S
H1989 N1982 0.984 . S
H1990 N1978 0.984 . S
H1991 N1978 0.985 . S
C1992 C1993 1.363 1_554 S
C1992 C1998 1.379 . S
C1992 N2000 1.356 . S
C1993 C1992 1.363 1_556 S
C1993 C1999 1.363 . S
C1994 C1995 1.363 1_556 S
C1994 C1999 1.379 . S
C1994 N2001 1.356 . S
C1995 C1994 1.363 1_554 S
C1995 C1998 1.363 . S
N1996 C1998 1.356 . S
N1996 H2008 0.984 . S
N1996 H2009 0.985 . S
N1997 C1999 1.356 . S
N1997 H2002 0.984 . S
N1997 H2003 0.985 . S
C1998 C1992 1.379 . S
C1998 C1995 1.363 . S
C1998 N1996 1.356 . S
C1999 C1993 1.363 . S
C1999 C1994 1.379 . S
C1999 N1997 1.356 . S
N2000 C1992 1.356 . S
N2000 H2006 0.984 . S
N2000 H2007 0.984 . S
N2001 C1994 1.356 . S
N2001 H2004 0.984 . S
N2001 H2005 0.985 . S
H2002 N1997 0.984 . S
H2003 N1997 0.985 . S
H2004 N2001 0.984 . S
H2005 N2001 0.985 . S
H2006 N2000 0.984 . S
H2007 N2000 0.984 . S
H2008 N1996 0.984 . S
H2009 N1996 0.985 . S
C2010 C2011 1.363 . S
C2010 C2016 1.379 . S
C2010 N2018 1.356 . S
C2011 C2010 1.363 . S
C2011 C2017 1.363 . S
C2012 C2013 1.363 . S
C2012 C2017 1.379 . S
C2012 N2019 1.356 . S
C2013 C2012 1.363 . S
C2013 C2016 1.363 . S
N2014 C2016 1.356 . S
N2014 H2026 0.984 . S
N2014 H2027 0.985 . S
N2015 C2017 1.356 . S
N2015 H2020 0.984 . S
N2015 H2021 0.985 . S
C2016 C2010 1.379 . S
C2016 C2013 1.363 . S
C2016 N2014 1.356 . S
C2017 C2011 1.363 . S
C2017 C2012 1.379 . S
C2017 N2015 1.356 . S
N2018 C2010 1.356 . S
N2018 H2024 0.984 . S
N2018 H2025 0.984 . S
N2019 C2012 1.356 . S
N2019 H2022 0.984 . S
N2019 H2023 0.985 . S
H2020 N2015 0.984 . S
H2021 N2015 0.985 . S
H2022 N2019 0.984 . S
H2023 N2019 0.985 . S
H2024 N2018 0.984 . S
H2025 N2018 0.984 . S
H2026 N2014 0.984 . S
H2027 N2014 0.985 . S
C2028 C2029 1.363 . S
C2028 C2034 1.379 . S
C2028 N2036 1.356 . S
C2029 C2028 1.363 . S
C2029 C2035 1.363 . S
C2030 C2031 1.363 . S
C2030 C2035 1.379 . S
C2030 N2037 1.356 . S
C2031 C2030 1.363 . S
C2031 C2034 1.363 . S
N2032 C2034 1.356 . S
N2032 H2044 0.984 . S
N2032 H2045 0.985 . S
N2033 C2035 1.356 . S
N2033 H2038 0.984 . S
N2033 H2039 0.985 . S
C2034 C2028 1.379 . S
C2034 C2031 1.363 . S
C2034 N2032 1.356 . S
C2035 C2029 1.363 . S
C2035 C2030 1.379 . S
C2035 N2033 1.356 . S
N2036 C2028 1.356 . S
N2036 H2042 0.984 . S
N2036 H2043 0.984 . S
N2037 C2030 1.356 . S
N2037 H2040 0.984 . S
N2037 H2041 0.985 . S
H2038 N2033 0.984 . S
H2039 N2033 0.985 . S
H2040 N2037 0.984 . S
H2041 N2037 0.985 . S
H2042 N2036 0.984 . S
H2043 N2036 0.984 . S
H2044 N2032 0.984 . S
H2045 N2032 0.985 . S
C2046 C2047 1.363 . S
C2046 C2052 1.379 . S
C2046 N2054 1.356 . S
C2047 C2046 1.363 . S
C2047 C2053 1.363 . S
C2048 C2049 1.363 . S
C2048 C2053 1.379 . S
C2048 N2055 1.356 . S
C2049 C2048 1.363 . S
C2049 C2052 1.363 . S
N2050 C2052 1.356 . S
N2050 H2062 0.984 . S
N2050 H2063 0.985 . S
N2051 C2053 1.356 . S
N2051 H2056 0.984 . S
N2051 H2057 0.985 . S
C2052 C2046 1.379 . S
C2052 C2049 1.363 . S
C2052 N2050 1.356 . S
C2053 C2047 1.363 . S
C2053 C2048 1.379 . S
C2053 N2051 1.356 . S
N2054 C2046 1.356 . S
N2054 H2060 0.984 . S
N2054 H2061 0.984 . S
N2055 C2048 1.356 . S
N2055 H2058 0.984 . S
N2055 H2059 0.985 . S
H2056 N2051 0.984 . S
H2057 N2051 0.985 . S
H2058 N2055 0.984 . S
H2059 N2055 0.985 . S
H2060 N2054 0.984 . S
H2061 N2054 0.984 . S
H2062 N2050 0.984 . S
H2063 N2050 0.985 . S
C2064 C2065 1.363 . S
C2064 C2070 1.379 1_565 S
C2064 N2072 1.356 . S
C2065 C2064 1.363 . S
C2065 C2071 1.363 . S
C2066 C2067 1.363 . S
C2066 C2071 1.379 1_545 S
C2066 N2073 1.356 . S
C2067 C2066 1.363 . S
C2067 C2070 1.363 . S
N2068 C2070 1.356 . S
N2068 H2080 0.984 . S
N2068 H2081 0.985 . S
N2069 C2071 1.356 . S
N2069 H2074 0.984 . S
N2069 H2075 0.985 . S
C2070 C2064 1.379 1_545 S
C2070 C2067 1.363 . S
C2070 N2068 1.356 . S
C2071 C2065 1.363 . S
C2071 C2066 1.379 1_565 S
C2071 N2069 1.356 . S
N2072 C2064 1.356 . S
N2072 H2078 0.984 . S
N2072 H2079 0.984 . S
N2073 C2066 1.356 . S
N2073 H2076 0.984 . S
N2073 H2077 0.985 . S
H2074 N2069 0.984 . S
H2075 N2069 0.985 . S
H2076 N2073 0.984 . S
H2077 N2073 0.985 . S
H2078 N2072 0.984 . S
H2079 N2072 0.984 . S
H2080 N2068 0.984 . S
H2081 N2068 0.985 . S
C2082 C2083 1.363 . S
C2082 C2088 1.379 . S
C2082 N2090 1.356 . S
C2083 C2082 1.363 . S
C2083 C2089 1.363 . S
C2084 C2085 1.363 . S
C2084 C2089 1.379 . S
C2084 N2091 1.356 . S
C2085 C2084 1.363 . S
C2085 C2088 1.363 . S
N2086 C2088 1.356 . S
N2086 H2098 0.984 . S
N2086 H2099 0.985 . S
N2087 C2089 1.356 . S
N2087 H2092 0.984 . S
N2087 H2093 0.985 . S
C2088 C2082 1.379 . S
C2088 C2085 1.363 . S
C2088 N2086 1.356 . S
C2089 C2083 1.363 . S
C2089 C2084 1.379 . S
C2089 N2087 1.356 . S
N2090 C2082 1.356 . S
N2090 H2096 0.984 . S
N2090 H2097 0.984 . S
N2091 C2084 1.356 . S
N2091 H2094 0.984 . S
N2091 H2095 0.985 . S
H2092 N2087 0.984 . S
H2093 N2087 0.985 . S
H2094 N2091 0.984 . S
H2095 N2091 0.985 . S
H2096 N2090 0.984 . S
H2097 N2090 0.984 . S
H2098 N2086 0.984 . S
H2099 N2086 0.985 . S
C2100 C2101 1.363 1_556 S
C2100 C2106 1.379 1_565 S
C2100 N2108 1.356 . S
C2101 C2100 1.363 1_554 S
C2101 C2107 1.363 . S
C2102 C2103 1.363 1_554 S
C2102 C2107 1.379 1_545 S
C2102 N2109 1.356 . S
C2103 C2102 1.363 1_556 S
C2103 C2106 1.363 . S
N2104 C2106 1.356 . S
N2104 H2116 0.984 . S
N2104 H2117 0.985 . S
N2105 C2107 1.356 . S
N2105 H2110 0.984 . S
N2105 H2111 0.985 . S
C2106 C2100 1.379 1_545 S
C2106 C2103 1.363 . S
C2106 N2104 1.356 . S
C2107 C2101 1.363 . S
C2107 C2102 1.379 1_565 S
C2107 N2105 1.356 . S
N2108 C2100 1.356 . S
N2108 H2114 0.984 . S
N2108 H2115 0.984 . S
N2109 C2102 1.356 . S
N2109 H2112 0.984 . S
N2109 H2113 0.985 . S
H2110 N2105 0.984 . S
H2111 N2105 0.985 . S
H2112 N2109 0.984 . S
H2113 N2109 0.985 . S
H2114 N2108 0.984 . S
H2115 N2108 0.984 . S
H2116 N2104 0.984 . S
H2117 N2104 0.985 . S
C2118 C2119 1.363 . S
C2118 C2124 1.379 . S
C2118 N2126 1.356 . S
C2119 C2118 1.363 . S
C2119 C2125 1.363 . S
C2120 C2121 1.363 . S
C2120 C2125 1.379 . S
C2120 N2127 1.356 . S
C2121 C2120 1.363 . S
C2121 C2124 1.363 . S
N2122 C2124 1.356 . S
N2122 H2134 0.984 . S
N2122 H2135 0.985 . S
N2123 C2125 1.356 . S
N2123 H2128 0.984 . S
N2123 H2129 0.985 . S
C2124 C2118 1.379 . S
C2124 C2121 1.363 . S
C2124 N2122 1.356 . S
C2125 C2119 1.363 . S
C2125 C2120 1.379 . S
C2125 N2123 1.356 . S
N2126 C2118 1.356 . S
N2126 H2132 0.984 . S
N2126 H2133 0.984 . S
N2127 C2120 1.356 . S
N2127 H2130 0.984 . S
N2127 H2131 0.985 . S
H2128 N2123 0.984 . S
H2129 N2123 0.985 . S
H2130 N2127 0.984 . S
H2131 N2127 0.985 . S
H2132 N2126 0.984 . S
H2133 N2126 0.984 . S
H2134 N2122 0.984 . S
H2135 N2122 0.985 . S
C2136 C2137 1.363 . S
C2136 C2142 1.379 1_545 S
C2136 N2144 1.356 . S
C2137 C2136 1.363 . S
C2137 C2143 1.363 . S
C2138 C2139 1.363 . S
C2138 C2143 1.379 1_565 S
C2138 N2145 1.356 . S
C2139 C2138 1.363 . S
C2139 C2142 1.363 . S
N2140 C2142 1.356 . S
N2140 H2152 0.984 . S
N2140 H2153 0.985 . S
N2141 C2143 1.356 . S
N2141 H2146 0.984 . S
N2141 H2147 0.985 . S
C2142 C2136 1.379 1_565 S
C2142 C2139 1.363 . S
C2142 N2140 1.356 . S
C2143 C2137 1.363 . S
C2143 C2138 1.379 1_545 S
C2143 N2141 1.356 . S
N2144 C2136 1.356 . S
N2144 H2150 0.984 . S
N2144 H2151 0.984 . S
N2145 C2138 1.356 . S
N2145 H2148 0.984 . S
N2145 H2149 0.985 . S
H2146 N2141 0.984 . S
H2147 N2141 0.985 . S
H2148 N2145 0.984 . S
H2149 N2145 0.985 . S
H2150 N2144 0.984 . S
H2151 N2144 0.984 . S
H2152 N2140 0.984 . S
H2153 N2140 0.985 . S
C2154 C2155 1.363 . S
C2154 C2160 1.379 . S
C2154 N2162 1.356 . S
C2155 C2154 1.363 . S
C2155 C2161 1.363 . S
C2156 C2157 1.363 . S
C2156 C2161 1.379 . S
C2156 N2163 1.356 . S
C2157 C2156 1.363 . S
C2157 C2160 1.363 . S
N2158 C2160 1.356 . S
N2158 H2170 0.984 . S
N2158 H2171 0.985 . S
N2159 C2161 1.356 . S
N2159 H2164 0.984 . S
N2159 H2165 0.985 . S
C2160 C2154 1.379 . S
C2160 C2157 1.363 . S
C2160 N2158 1.356 . S
C2161 C2155 1.363 . S
C2161 C2156 1.379 . S
C2161 N2159 1.356 . S
N2162 C2154 1.356 . S
N2162 H2168 0.984 . S
N2162 H2169 0.984 . S
N2163 C2156 1.356 . S
N2163 H2166 0.984 . S
N2163 H2167 0.985 . S
H2164 N2159 0.984 . S
H2165 N2159 0.985 . S
H2166 N2163 0.984 . S
H2167 N2163 0.985 . S
H2168 N2162 0.984 . S
H2169 N2162 0.984 . S
H2170 N2158 0.984 . S
H2171 N2158 0.985 . S
C2172 C2173 1.363 1_556 S
C2172 C2178 1.379 1_565 S
C2172 N2180 1.356 . S
C2173 C2172 1.363 1_554 S
C2173 C2179 1.363 . S
C2174 C2175 1.363 1_554 S
C2174 C2179 1.379 1_545 S
C2174 N2181 1.356 . S
C2175 C2174 1.363 1_556 S
C2175 C2178 1.363 . S
N2176 C2178 1.356 . S
N2176 H2188 0.984 . S
N2176 H2189 0.985 . S
N2177 C2179 1.356 . S
N2177 H2182 0.984 . S
N2177 H2183 0.985 . S
C2178 C2172 1.379 1_545 S
C2178 C2175 1.363 . S
C2178 N2176 1.356 . S
C2179 C2173 1.363 . S
C2179 C2174 1.379 1_565 S
C2179 N2177 1.356 . S
N2180 C2172 1.356 . S
N2180 H2186 0.984 . S
N2180 H2187 0.984 . S
N2181 C2174 1.356 . S
N2181 H2184 0.984 . S
N2181 H2185 0.985 . S
H2182 N2177 0.984 . S
H2183 N2177 0.985 . S
H2184 N2181 0.984 . S
H2185 N2181 0.985 . S
H2186 N2180 0.984 . S
H2187 N2180 0.984 . S
H2188 N2176 0.984 . S
H2189 N2176 0.985 . S
C2190 C2191 1.363 . S
C2190 C2196 1.379 . S
C2190 N2198 1.356 . S
C2191 C2190 1.363 . S
C2191 C2197 1.363 . S
C2192 C2193 1.363 . S
C2192 C2197 1.379 . S
C2192 N2199 1.356 . S
C2193 C2192 1.363 . S
C2193 C2196 1.363 . S
N2194 C2196 1.356 . S
N2194 H2206 0.984 . S
N2194 H2207 0.985 . S
N2195 C2197 1.356 . S
N2195 H2200 0.984 . S
N2195 H2201 0.985 . S
C2196 C2190 1.379 . S
C2196 C2193 1.363 . S
C2196 N2194 1.356 . S
C2197 C2191 1.363 . S
C2197 C2192 1.379 . S
C2197 N2195 1.356 . S
N2198 C2190 1.356 . S
N2198 H2204 0.984 . S
N2198 H2205 0.984 . S
N2199 C2192 1.356 . S
N2199 H2202 0.984 . S
N2199 H2203 0.985 . S
H2200 N2195 0.984 . S
H2201 N2195 0.985 . S
H2202 N2199 0.984 . S
H2203 N2199 0.985 . S
H2204 N2198 0.984 . S
H2205 N2198 0.984 . S
H2206 N2194 0.984 . S
H2207 N2194 0.985 . S
C2208 C2209 1.363 . S
C2208 C2214 1.379 1_455 S
C2208 N2216 1.356 . S
C2209 C2208 1.363 . S
C2209 C2215 1.363 . S
C2210 C2211 1.363 . S
C2210 C2215 1.379 1_655 S
C2210 N2217 1.356 1_554 S
C2211 C2210 1.363 . S
C2211 C2214 1.363 . S
N2212 C2214 1.356 . S
N2212 H2224 0.984 . S
N2212 H2225 0.985 . S
N2213 C2215 1.356 1_556 S
N2213 H2218 0.984 . S
N2213 H2219 0.985 . S
C2214 C2208 1.379 1_655 S
C2214 C2211 1.363 . S
C2214 N2212 1.356 . S
C2215 C2209 1.363 . S
C2215 C2210 1.379 1_455 S
C2215 N2213 1.356 1_554 S
N2216 C2208 1.356 . S
N2216 H2222 0.984 . S
N2216 H2223 0.984 . S
N2217 C2210 1.356 1_556 S
N2217 H2220 0.984 . S
N2217 H2221 0.985 . S
H2218 N2213 0.984 . S
H2219 N2213 0.985 . S
H2220 N2217 0.984 . S
H2221 N2217 0.985 . S
H2222 N2216 0.984 . S
H2223 N2216 0.984 . S
H2224 N2212 0.984 . S
H2225 N2212 0.985 . S
C2226 C2227 1.363 . S
C2226 C2232 1.379 . S
C2226 N2234 1.356 . S
C2227 C2226 1.363 . S
C2227 C2233 1.363 . S
C2228 C2229 1.363 . S
C2228 C2233 1.379 . S
C2228 N2235 1.356 . S
C2229 C2228 1.363 . S
C2229 C2232 1.363 . S
N2230 C2232 1.356 . S
N2230 H2242 0.984 . S
N2230 H2243 0.985 . S
N2231 C2233 1.356 . S
N2231 H2236 0.984 . S
N2231 H2237 0.985 . S
C2232 C2226 1.379 . S
C2232 C2229 1.363 . S
C2232 N2230 1.356 . S
C2233 C2227 1.363 . S
C2233 C2228 1.379 . S
C2233 N2231 1.356 . S
N2234 C2226 1.356 . S
N2234 H2240 0.984 . S
N2234 H2241 0.984 . S
N2235 C2228 1.356 . S
N2235 H2238 0.984 . S
N2235 H2239 0.985 . S
H2236 N2231 0.984 . S
H2237 N2231 0.985 . S
H2238 N2235 0.984 . S
H2239 N2235 0.985 . S
H2240 N2234 0.984 . S
H2241 N2234 0.984 . S
H2242 N2230 0.984 . S
H2243 N2230 0.985 . S
C2244 C2245 1.363 . S
C2244 C2250 1.379 . S
C2244 N2252 1.356 . S
C2245 C2244 1.363 . S
C2245 C2251 1.363 . S
C2246 C2247 1.363 . S
C2246 C2251 1.379 . S
C2246 N2253 1.356 . S
C2247 C2246 1.363 . S
C2247 C2250 1.363 . S
N2248 C2250 1.356 . S
N2248 H2260 0.984 . S
N2248 H2261 0.985 . S
N2249 C2251 1.356 . S
N2249 H2254 0.984 . S
N2249 H2255 0.985 . S
C2250 C2244 1.379 . S
C2250 C2247 1.363 . S
C2250 N2248 1.356 . S
C2251 C2245 1.363 . S
C2251 C2246 1.379 . S
C2251 N2249 1.356 . S
N2252 C2244 1.356 . S
N2252 H2258 0.984 . S
N2252 H2259 0.984 . S
N2253 C2246 1.356 . S
N2253 H2256 0.984 . S
N2253 H2257 0.985 . S
H2254 N2249 0.984 . S
H2255 N2249 0.985 . S
H2256 N2253 0.984 . S
H2257 N2253 0.985 . S
H2258 N2252 0.984 . S
H2259 N2252 0.984 . S
H2260 N2248 0.984 . S
H2261 N2248 0.985 . S
C2262 C2263 1.363 . S
C2262 C2268 1.379 . S
C2262 N2270 1.356 . S
C2263 C2262 1.363 . S
C2263 C2269 1.363 . S
C2264 C2265 1.363 . S
C2264 C2269 1.379 . S
C2264 N2271 1.356 . S
C2265 C2264 1.363 . S
C2265 C2268 1.363 . S
N2266 C2268 1.356 . S
N2266 H2278 0.984 1_556 S
N2266 H2279 0.985 . S
N2267 C2269 1.356 . S
N2267 H2272 0.984 . S
N2267 H2273 0.985 . S
C2268 C2262 1.379 . S
C2268 C2265 1.363 . S
C2268 N2266 1.356 . S
C2269 C2263 1.363 . S
C2269 C2264 1.379 . S
C2269 N2267 1.356 . S
N2270 C2262 1.356 . S
N2270 H2276 0.984 1_556 S
N2270 H2277 0.984 . S
N2271 C2264 1.356 . S
N2271 H2274 0.984 . S
N2271 H2275 0.985 . S
H2272 N2267 0.984 . S
H2273 N2267 0.985 . S
H2274 N2271 0.984 . S
H2275 N2271 0.985 . S
H2276 N2270 0.984 1_554 S
H2277 N2270 0.984 . S
H2278 N2266 0.984 1_554 S
H2279 N2266 0.985 . S
C2280 C2281 1.363 . S
C2280 C2286 1.379 1_655 S
C2280 N2288 1.356 . S
C2281 C2280 1.363 . S
C2281 C2287 1.363 . S
C2282 C2283 1.363 . S
C2282 C2287 1.379 1_455 S
C2282 N2289 1.356 1_556 S
C2283 C2282 1.363 . S
C2283 C2286 1.363 . S
N2284 C2286 1.356 . S
N2284 H2296 0.984 . S
N2284 H2297 0.985 . S
N2285 C2287 1.356 1_554 S
N2285 H2290 0.984 . S
N2285 H2291 0.985 . S
C2286 C2280 1.379 1_455 S
C2286 C2283 1.363 . S
C2286 N2284 1.356 . S
C2287 C2281 1.363 . S
C2287 C2282 1.379 1_655 S
C2287 N2285 1.356 1_556 S
N2288 C2280 1.356 . S
N2288 H2294 0.984 . S
N2288 H2295 0.984 . S
N2289 C2282 1.356 1_554 S
N2289 H2292 0.984 . S
N2289 H2293 0.985 . S
H2290 N2285 0.984 . S
H2291 N2285 0.985 . S
H2292 N2289 0.984 . S
H2293 N2289 0.985 . S
H2294 N2288 0.984 . S
H2295 N2288 0.984 . S
H2296 N2284 0.984 . S
H2297 N2284 0.985 . S
C2298 C2299 1.363 . S
C2298 C2304 1.379 . S
C2298 N2306 1.356 . S
C2299 C2298 1.363 . S
C2299 C2305 1.363 . S
C2300 C2301 1.363 . S
C2300 C2305 1.379 . S
C2300 N2307 1.356 . S
C2301 C2300 1.363 . S
C2301 C2304 1.363 . S
N2302 C2304 1.356 . S
N2302 H2314 0.984 . S
N2302 H2315 0.985 . S
N2303 C2305 1.356 . S
N2303 H2308 0.984 . S
N2303 H2309 0.985 1_554 S
C2304 C2298 1.379 . S
C2304 C2301 1.363 . S
C2304 N2302 1.356 . S
C2305 C2299 1.363 . S
C2305 C2300 1.379 . S
C2305 N2303 1.356 . S
N2306 C2298 1.356 . S
N2306 H2312 0.984 . S
N2306 H2313 0.984 . S
N2307 C2300 1.356 . S
N2307 H2310 0.984 . S
N2307 H2311 0.985 1_554 S
H2308 N2303 0.984 . S
H2309 N2303 0.985 1_556 S
H2310 N2307 0.984 . S
H2311 N2307 0.985 1_556 S
H2312 N2306 0.984 . S
H2313 N2306 0.984 . S
H2314 N2302 0.984 . S
H2315 N2302 0.985 . S
C2316 C2317 1.363 . S
C2316 C2322 1.379 . S
C2316 N2324 1.356 . S
C2317 C2316 1.363 . S
C2317 C2323 1.363 . S
C2318 C2319 1.363 . S
C2318 C2323 1.379 . S
C2318 N2325 1.356 . S
C2319 C2318 1.363 . S
C2319 C2322 1.363 . S
N2320 C2322 1.356 . S
N2320 H2332 0.984 . S
N2320 H2333 0.985 . S
N2321 C2323 1.356 . S
N2321 H2326 0.984 . S
N2321 H2327 0.985 . S
C2322 C2316 1.379 . S
C2322 C2319 1.363 . S
C2322 N2320 1.356 . S
C2323 C2317 1.363 . S
C2323 C2318 1.379 . S
C2323 N2321 1.356 . S
N2324 C2316 1.356 . S
N2324 H2330 0.984 . S
N2324 H2331 0.984 . S
N2325 C2318 1.356 . S
N2325 H2328 0.984 . S
N2325 H2329 0.985 . S
H2326 N2321 0.984 . S
H2327 N2321 0.985 . S
H2328 N2325 0.984 . S
H2329 N2325 0.985 . S
H2330 N2324 0.984 . S
H2331 N2324 0.984 . S
H2332 N2320 0.984 . S
H2333 N2320 0.985 . S
C2334 C2335 1.363 . S
C2334 C2340 1.379 . S
C2334 N2342 1.356 . S
C2335 C2334 1.363 . S
C2335 C2341 1.363 . S
C2336 C2337 1.363 . S
C2336 C2341 1.379 . S
C2336 N2343 1.356 . S
C2337 C2336 1.363 . S
C2337 C2340 1.363 . S
N2338 C2340 1.356 . S
N2338 H2350 0.984 . S
N2338 H2351 0.985 . S
N2339 C2341 1.356 . S
N2339 H2344 0.984 . S
N2339 H2345 0.985 . S
C2340 C2334 1.379 . S
C2340 C2337 1.363 . S
C2340 N2338 1.356 . S
C2341 C2335 1.363 . S
C2341 C2336 1.379 . S
C2341 N2339 1.356 . S
N2342 C2334 1.356 . S
N2342 H2348 0.984 . S
N2342 H2349 0.984 . S
N2343 C2336 1.356 . S
N2343 H2346 0.984 . S
N2343 H2347 0.985 . S
H2344 N2339 0.984 . S
H2345 N2339 0.985 . S
H2346 N2343 0.984 . S
H2347 N2343 0.985 . S
H2348 N2342 0.984 . S
H2349 N2342 0.984 . S
H2350 N2338 0.984 . S
H2351 N2338 0.985 . S
C2352 C2353 1.363 . S
C2352 C2358 1.379 . S
C2352 N2360 1.356 . S
C2353 C2352 1.363 . S
C2353 C2359 1.363 . S
C2354 C2355 1.363 . S
C2354 C2359 1.379 . S
C2354 N2361 1.356 . S
C2355 C2354 1.363 . S
C2355 C2358 1.363 . S
N2356 C2358 1.356 . S
N2356 H2368 0.984 . S
N2356 H2369 0.985 . S
N2357 C2359 1.356 . S
N2357 H2362 0.984 . S
N2357 H2363 0.985 . S
C2358 C2352 1.379 . S
C2358 C2355 1.363 . S
C2358 N2356 1.356 . S
C2359 C2353 1.363 . S
C2359 C2354 1.379 . S
C2359 N2357 1.356 . S
N2360 C2352 1.356 . S
N2360 H2366 0.984 . S
N2360 H2367 0.984 . S
N2361 C2354 1.356 . S
N2361 H2364 0.984 . S
N2361 H2365 0.985 . S
H2362 N2357 0.984 . S
H2363 N2357 0.985 . S
H2364 N2361 0.984 . S
H2365 N2361 0.985 . S
H2366 N2360 0.984 . S
H2367 N2360 0.984 . S
H2368 N2356 0.984 . S
H2369 N2356 0.985 . S
C2370 C2371 1.363 . S
C2370 C2376 1.379 . S
C2370 N2378 1.356 . S
C2371 C2370 1.363 . S
C2371 C2377 1.363 . S
C2372 C2373 1.363 . S
C2372 C2377 1.379 . S
C2372 N2379 1.356 . S
C2373 C2372 1.363 . S
C2373 C2376 1.363 . S
N2374 C2376 1.356 . S
N2374 H2386 0.984 . S
N2374 H2387 0.985 . S
N2375 C2377 1.356 . S
N2375 H2380 0.984 . S
N2375 H2381 0.985 1_554 S
C2376 C2370 1.379 . S
C2376 C2373 1.363 . S
C2376 N2374 1.356 . S
C2377 C2371 1.363 . S
C2377 C2372 1.379 . S
C2377 N2375 1.356 . S
N2378 C2370 1.356 . S
N2378 H2384 0.984 . S
N2378 H2385 0.984 . S
N2379 C2372 1.356 . S
N2379 H2382 0.984 . S
N2379 H2383 0.985 1_554 S
H2380 N2375 0.984 . S
H2381 N2375 0.985 1_556 S
H2382 N2379 0.984 . S
H2383 N2379 0.985 1_556 S
H2384 N2378 0.984 . S
H2385 N2378 0.984 . S
H2386 N2374 0.984 . S
H2387 N2374 0.985 . S
C2388 C2389 1.363 . S
C2388 C2394 1.379 . S
C2388 N2396 1.356 . S
C2389 C2388 1.363 . S
C2389 C2395 1.363 . S
C2390 C2391 1.363 . S
C2390 C2395 1.379 . S
C2390 N2397 1.356 . S
C2391 C2390 1.363 . S
C2391 C2394 1.363 . S
N2392 C2394 1.356 . S
N2392 H2404 0.984 1_556 S
N2392 H2405 0.985 . S
N2393 C2395 1.356 . S
N2393 H2398 0.984 . S
N2393 H2399 0.985 . S
C2394 C2388 1.379 . S
C2394 C2391 1.363 . S
C2394 N2392 1.356 . S
C2395 C2389 1.363 . S
C2395 C2390 1.379 . S
C2395 N2393 1.356 . S
N2396 C2388 1.356 . S
N2396 H2402 0.984 1_556 S
N2396 H2403 0.984 . S
N2397 C2390 1.356 . S
N2397 H2400 0.984 . S
N2397 H2401 0.985 . S
H2398 N2393 0.984 . S
H2399 N2393 0.985 . S
H2400 N2397 0.984 . S
H2401 N2397 0.985 . S
H2402 N2396 0.984 1_554 S
H2403 N2396 0.984 . S
H2404 N2392 0.984 1_554 S
H2405 N2392 0.985 . S
C2406 C2407 1.363 . S
C2406 C2412 1.379 . S
C2406 N2414 1.356 . S
C2407 C2406 1.363 . S
C2407 C2413 1.363 . S
C2408 C2409 1.363 . S
C2408 C2413 1.379 . S
C2408 N2415 1.356 . S
C2409 C2408 1.363 . S
C2409 C2412 1.363 . S
N2410 C2412 1.356 . S
N2410 H2422 0.984 . S
N2410 H2423 0.985 . S
N2411 C2413 1.356 . S
N2411 H2416 0.984 . S
N2411 H2417 0.985 . S
C2412 C2406 1.379 . S
C2412 C2409 1.363 . S
C2412 N2410 1.356 . S
C2413 C2407 1.363 . S
C2413 C2408 1.379 . S
C2413 N2411 1.356 . S
N2414 C2406 1.356 . S
N2414 H2420 0.984 . S
N2414 H2421 0.984 . S
N2415 C2408 1.356 . S
N2415 H2418 0.984 . S
N2415 H2419 0.985 . S
H2416 N2411 0.984 . S
H2417 N2411 0.985 . S
H2418 N2415 0.984 . S
H2419 N2415 0.985 . S
H2420 N2414 0.984 . S
H2421 N2414 0.984 . S
H2422 N2410 0.984 . S
H2423 N2410 0.985 . S
C2424 C2425 1.363 . S
C2424 C2430 1.379 . S
C2424 N2432 1.356 . S
C2425 C2424 1.363 . S
C2425 C2431 1.363 . S
C2426 C2427 1.363 . S
C2426 C2431 1.379 . S
C2426 N2433 1.356 . S
C2427 C2426 1.363 . S
C2427 C2430 1.363 . S
N2428 C2430 1.356 . S
N2428 H2440 0.984 . S
N2428 H2441 0.985 . S
N2429 C2431 1.356 . S
N2429 H2434 0.984 . S
N2429 H2435 0.985 . S
C2430 C2424 1.379 . S
C2430 C2427 1.363 . S
C2430 N2428 1.356 . S
C2431 C2425 1.363 . S
C2431 C2426 1.379 . S
C2431 N2429 1.356 . S
N2432 C2424 1.356 . S
N2432 H2438 0.984 . S
N2432 H2439 0.984 . S
N2433 C2426 1.356 . S
N2433 H2436 0.984 . S
N2433 H2437 0.985 . S
H2434 N2429 0.984 . S
H2435 N2429 0.985 . S
H2436 N2433 0.984 . S
H2437 N2433 0.985 . S
H2438 N2432 0.984 . S
H2439 N2432 0.984 . S
H2440 N2428 0.984 . S
H2441 N2428 0.985 . S
C2442 C2443 1.363 . S
C2442 C2448 1.379 1_455 S
C2442 N2450 1.356 . S
C2443 C2442 1.363 . S
C2443 C2449 1.363 . S
C2444 C2445 1.363 . S
C2444 C2449 1.379 1_655 S
C2444 N2451 1.356 1_554 S
C2445 C2444 1.363 . S
C2445 C2448 1.363 . S
N2446 C2448 1.356 . S
N2446 H2458 0.984 . S
N2446 H2459 0.985 . S
N2447 C2449 1.356 1_556 S
N2447 H2452 0.984 . S
N2447 H2453 0.985 . S
C2448 C2442 1.379 1_655 S
C2448 C2445 1.363 . S
C2448 N2446 1.356 . S
C2449 C2443 1.363 . S
C2449 C2444 1.379 1_455 S
C2449 N2447 1.356 1_554 S
N2450 C2442 1.356 . S
N2450 H2456 0.984 . S
N2450 H2457 0.984 . S
N2451 C2444 1.356 1_556 S
N2451 H2454 0.984 . S
N2451 H2455 0.985 . S
H2452 N2447 0.984 . S
H2453 N2447 0.985 . S
H2454 N2451 0.984 . S
H2455 N2451 0.985 . S
H2456 N2450 0.984 . S
H2457 N2450 0.984 . S
H2458 N2446 0.984 . S
H2459 N2446 0.985 . S
C2460 C2461 1.363 . S
C2460 C2466 1.379 . S
C2460 N2468 1.356 . S
C2461 C2460 1.363 . S
C2461 C2467 1.363 . S
C2462 C2463 1.363 . S
C2462 C2467 1.379 . S
C2462 N2469 1.356 . S
C2463 C2462 1.363 . S
C2463 C2466 1.363 . S
N2464 C2466 1.356 . S
N2464 H2476 0.984 . S
N2464 H2477 0.985 . S
N2465 C2467 1.356 . S
N2465 H2470 0.984 . S
N2465 H2471 0.985 . S
C2466 C2460 1.379 . S
C2466 C2463 1.363 . S
C2466 N2464 1.356 . S
C2467 C2461 1.363 . S
C2467 C2462 1.379 . S
C2467 N2465 1.356 . S
N2468 C2460 1.356 . S
N2468 H2474 0.984 . S
N2468 H2475 0.984 . S
N2469 C2462 1.356 . S
N2469 H2472 0.984 . S
N2469 H2473 0.985 . S
H2470 N2465 0.984 . S
H2471 N2465 0.985 . S
H2472 N2469 0.984 . S
H2473 N2469 0.985 . S
H2474 N2468 0.984 . S
H2475 N2468 0.984 . S
H2476 N2464 0.984 . S
H2477 N2464 0.985 . S
C2478 C2479 1.363 . S
C2478 C2484 1.379 1_455 S
C2478 N2486 1.356 1_556 S
C2479 C2478 1.363 . S
C2479 C2485 1.363 . S
C2480 C2481 1.363 . S
C2480 C2485 1.379 1_655 S
C2480 N2487 1.356 . S
C2481 C2480 1.363 . S
C2481 C2484 1.363 . S
N2482 C2484 1.356 1_554 S
N2482 H2494 0.984 . S
N2482 H2495 0.985 . S
N2483 C2485 1.356 . S
N2483 H2488 0.984 . S
N2483 H2489 0.985 . S
C2484 C2478 1.379 1_655 S
C2484 C2481 1.363 . S
C2484 N2482 1.356 1_556 S
C2485 C2479 1.363 . S
C2485 C2480 1.379 1_455 S
C2485 N2483 1.356 . S
N2486 C2478 1.356 1_554 S
N2486 H2492 0.984 . S
N2486 H2493 0.984 . S
N2487 C2480 1.356 . S
N2487 H2490 0.984 . S
N2487 H2491 0.985 . S
H2488 N2483 0.984 . S
H2489 N2483 0.985 . S
H2490 N2487 0.984 . S
H2491 N2487 0.985 . S
H2492 N2486 0.984 . S
H2493 N2486 0.984 . S
H2494 N2482 0.984 . S
H2495 N2482 0.985 . S
C1057 N14 1.482 . S
C1059 N5 1.488 . S
C1075 N38 1.488 . S
C1077 N47 1.482 1_556 S
C1093 N71 1.488 . S
C1095 N80 1.482 . S
C1111 N104 1.488 . S
C1113 N113 1.482 . S
C1129 N137 1.488 . S
C1131 N146 1.482 . S
C1147 N170 1.488 . S
C1149 N179 1.482 . S
C1165 N212 1.482 . S
C1167 N203 1.488 . S
C1183 N245 1.482 1_554 S
C1185 N236 1.488 . S
C1201 N278 1.482 . S
C1203 N269 1.488 . S
C1219 N311 1.482 1_554 S
C1221 N302 1.488 . S
C1237 N344 1.482 . S
C1239 N335 1.488 . S
C1255 N368 1.488 . S
C1257 N377 1.482 . S
C1273 N410 1.482 . S
C1275 N401 1.488 . S
C1291 N443 1.482 . S
C1293 N434 1.488 . S
C1309 N467 1.488 . S
C1311 N476 1.482 . S
C1327 N509 1.482 1_556 S
C1329 N500 1.488 . S
C1345 N533 1.488 . S
C1347 N542 1.482 . S
C1363 N566 1.488 . S
C1365 N575 1.482 . S
C1381 N599 1.488 . S
C1383 N608 1.482 . S
C1399 N632 1.488 . S
C1401 N641 1.482 1_556 S
C1417 N665 1.488 . S
C1419 N674 1.482 . S
C1435 N698 1.488 . S
C1437 N707 1.482 1_554 S
C1453 N731 1.488 . S
C1455 N740 1.482 . S
C1471 N773 1.482 . S
C1473 N764 1.488 . S
C1489 N797 1.488 . S
C1491 N806 1.482 . S
C1507 N830 1.488 . S
C1509 N839 1.482 . S
C1525 N863 1.488 . S
C1527 N872 1.482 . S
C1543 N905 1.482 1_554 S
C1545 N896 1.488 . S
C1561 N938 1.482 . S
C1563 N929 1.488 . S
C1579 N971 1.482 1_556 S
C1581 N962 1.488 . S
C1597 N995 1.488 . S
C1599 N1004 1.482 . S
C1615 N1037 1.482 . S
C1617 N1028 1.488 . S
C1633 C787 1.103 . S
C1635 C28 1.103 . S
C1651 C688 1.103 . S
C1653 C61 1.103 . S
C1669 C721 1.103 . S
C1671 C94 1.103 . S
C1687 C754 1.103 . S
C1689 C127 1.103 . S
C1705 C589 1.103 . S
C1707 C160 1.103 . S
C1723 C622 1.103 . S
C1725 C193 1.103 . S
C1741 C655 1.103 . S
C1743 C226 1.103 . S
C1759 C556 1.103 . S
C1761 C259 1.103 . S
C1777 C1051 1.103 . S
C1779 C292 1.103 . S
C1795 C952 1.103 . S
C1797 C325 1.103 . S
C1813 C358 1.103 . S
C1815 C985 1.103 . S
C1831 C391 1.103 . S
C1833 C1018 1.103 . S
C1849 C424 1.103 . S
C1851 C853 1.103 . S
C1867 C457 1.103 . S
C1869 C886 1.103 . S
C1885 C490 1.103 . S
C1887 C919 1.103 . S
C1903 C820 1.103 . S
C1905 C523 1.103 . S
C1921 C140 1.453 . S
C1923 C8 1.453 . S
C1939 C41 1.453 . S
C1941 C173 1.453 . S
C1957 C206 1.453 . S
C1959 C74 1.453 . S
C1975 C107 1.453 . S
C1977 C239 1.453 . S
C1993 C272 1.453 . S
C1995 C404 1.453 . S
C2011 C437 1.453 . S
C2013 C305 1.453 . S
C2029 C470 1.453 . S
C2031 C338 1.453 . S
C2047 C503 1.453 . S
C2049 C371 1.453 . S
C2065 C668 1.453 . S
C2067 C536 1.453 . S
C2083 C569 1.453 . S
C2085 C701 1.453 . S
C2101 C602 1.453 . S
C2103 C734 1.453 . S
C2119 C635 1.453 . S
C2121 C767 1.453 . S
C2137 C932 1.453 . S
C2139 C800 1.453 . S
C2155 C965 1.453 . S
C2157 C833 1.453 . S
C2173 C998 1.453 . S
C2175 C866 1.453 . S
C2191 C899 1.453 . S
C2193 C1031 1.453 . S
C2209 C17 1.538 . S
C2211 C413 1.538 . S
C2227 C974 1.538 . S
C2229 C50 1.538 . S
C2245 C83 1.538 . S
C2247 C479 1.538 . S
C2263 C1040 1.538 . S
C2265 C116 1.538 . S
C2281 C281 1.538 . S
C2283 C149 1.538 . S
C2299 C182 1.538 . S
C2301 C842 1.538 . S
C2317 C215 1.538 . S
C2319 C347 1.538 . S
C2335 C248 1.538 . S
C2337 C908 1.538 . S
C2353 C710 1.538 . S
C2355 C314 1.538 . S
C2371 C776 1.538 . S
C2373 C380 1.538 . S
C2389 C578 1.538 . S
C2391 C446 1.538 . S
C2407 C644 1.538 . S
C2409 C512 1.538 . S
C2425 C545 1.538 . S
C2427 C941 1.538 . S
C2443 C1007 1.538 . S
C2445 C611 1.538 . S
C2461 C677 1.538 . S
C2463 C809 1.538 . S
C2479 C875 1.538 . S
C2481 C743 1.538 . S
