# Generated by pormake.
# Topology ums, (4)-cn, num edge types: 1
# Building blocks:
#     Node 0, Type 0, BuildingBlock: GALJAG_clean_sbu_0, # of connection points: 4
#     Node 1, Type 0, BuildingBlock: GALJAG_clean_sbu_0, # of connection points: 4
#     Node 2, Type 0, BuildingBlock: GALJAG_clean_sbu_0, # of connection points: 4
#     Node 3, Type 0, BuildingBlock: GALJAG_clean_sbu_0, # of connection points: 4
#     Node 4, Type 0, BuildingBlock: GALJAG_clean_sbu_0, # of connection points: 4
#     Node 5, Type 0, BuildingBlock: GALJAG_clean_sbu_0, # of connection points: 4
#     Node 6, Type 0, BuildingBlock: GALJAG_clean_sbu_0, # of connection points: 4
#     Node 7, Type 0, BuildingBlock: GALJAG_clean_sbu_0, # of connection points: 4
#     Node 8, Type 0, BuildingBlock: GALJAG_clean_sbu_0, # of connection points: 4
#     Node 9, Type 0, BuildingBlock: GALJAG_clean_sbu_0, # of connection points: 4
#     Node 10, Type 0, BuildingBlock: GALJAG_clean_sbu_0, # of connection points: 4
#     Node 11, Type 0, BuildingBlock: GALJAG_clean_sbu_0, # of connection points: 4
#     Node 12, Type 0, BuildingBlock: GALJAG_clean_sbu_0, # of connection points: 4
#     Node 13, Type 0, BuildingBlock: GALJAG_clean_sbu_0, # of connection points: 4
#     Node 14, Type 0, BuildingBlock: GALJAG_clean_sbu_0, # of connection points: 4
#     Node 15, Type 0, BuildingBlock: GALJAG_clean_sbu_0, # of connection points: 4
#     Node 16, Type 0, BuildingBlock: GALJAG_clean_sbu_0, # of connection points: 4
#     Node 17, Type 0, BuildingBlock: GALJAG_clean_sbu_0, # of connection points: 4
#     Node 18, Type 0, BuildingBlock: GALJAG_clean_sbu_0, # of connection points: 4
#     Node 19, Type 0, BuildingBlock: GALJAG_clean_sbu_0, # of connection points: 4
#     Node 20, Type 0, BuildingBlock: GALJAG_clean_sbu_0, # of connection points: 4
#     Node 21, Type 0, BuildingBlock: GALJAG_clean_sbu_0, # of connection points: 4
#     Node 22, Type 0, BuildingBlock: GALJAG_clean_sbu_0, # of connection points: 4
#     Node 23, Type 0, BuildingBlock: GALJAG_clean_sbu_0, # of connection points: 4
#     Node 24, Type 0, BuildingBlock: GALJAG_clean_sbu_0, # of connection points: 4
#     Node 25, Type 0, BuildingBlock: GALJAG_clean_sbu_0, # of connection points: 4
#     Node 26, Type 0, BuildingBlock: GALJAG_clean_sbu_0, # of connection points: 4
#     Node 27, Type 0, BuildingBlock: GALJAG_clean_sbu_0, # of connection points: 4
#     Node 28, Type 0, BuildingBlock: GALJAG_clean_sbu_0, # of connection points: 4
#     Node 29, Type 0, BuildingBlock: GALJAG_clean_sbu_0, # of connection points: 4
#     Node 30, Type 0, BuildingBlock: GALJAG_clean_sbu_0, # of connection points: 4
#     Node 31, Type 0, BuildingBlock: GALJAG_clean_sbu_0, # of connection points: 4
#     Node 32, Type 0, BuildingBlock: GALJAG_clean_sbu_0, # of connection points: 4
#     Node 33, Type 0, BuildingBlock: GALJAG_clean_sbu_0, # of connection points: 4
#     Node 34, Type 0, BuildingBlock: GALJAG_clean_sbu_0, # of connection points: 4
#     Node 35, Type 0, BuildingBlock: GALJAG_clean_sbu_0, # of connection points: 4
#     Edge 36, Type (0, 0), None
#     Edge 37, Type (0, 0), None
#     Edge 38, Type (0, 0), None
#     Edge 39, Type (0, 0), None
#     Edge 40, Type (0, 0), None
#     Edge 41, Type (0, 0), None
#     Edge 42, Type (0, 0), None
#     Edge 43, Type (0, 0), None
#     Edge 44, Type (0, 0), None
#     Edge 45, Type (0, 0), None
#     Edge 46, Type (0, 0), None
#     Edge 47, Type (0, 0), None
#     Edge 48, Type (0, 0), None
#     Edge 49, Type (0, 0), None
#     Edge 50, Type (0, 0), None
#     Edge 51, Type (0, 0), None
#     Edge 52, Type (0, 0), None
#     Edge 53, Type (0, 0), None
#     Edge 54, Type (0, 0), None
#     Edge 55, Type (0, 0), None
#     Edge 56, Type (0, 0), None
#     Edge 57, Type (0, 0), None
#     Edge 58, Type (0, 0), None
#     Edge 59, Type (0, 0), None
#     Edge 60, Type (0, 0), None
#     Edge 61, Type (0, 0), None
#     Edge 62, Type (0, 0), None
#     Edge 63, Type (0, 0), None
#     Edge 64, Type (0, 0), None
#     Edge 65, Type (0, 0), None
#     Edge 66, Type (0, 0), None
#     Edge 67, Type (0, 0), None
#     Edge 68, Type (0, 0), None
#     Edge 69, Type (0, 0), None
#     Edge 70, Type (0, 0), None
#     Edge 71, Type (0, 0), None
#     Edge 72, Type (0, 0), None
#     Edge 73, Type (0, 0), None
#     Edge 74, Type (0, 0), None
#     Edge 75, Type (0, 0), None
#     Edge 76, Type (0, 0), None
#     Edge 77, Type (0, 0), None
#     Edge 78, Type (0, 0), None
#     Edge 79, Type (0, 0), None
#     Edge 80, Type (0, 0), None
#     Edge 81, Type (0, 0), None
#     Edge 82, Type (0, 0), None
#     Edge 83, Type (0, 0), None
#     Edge 84, Type (0, 0), None
#     Edge 85, Type (0, 0), None
#     Edge 86, Type (0, 0), None
#     Edge 87, Type (0, 0), None
#     Edge 88, Type (0, 0), None
#     Edge 89, Type (0, 0), None
#     Edge 90, Type (0, 0), None
#     Edge 91, Type (0, 0), None
#     Edge 92, Type (0, 0), None
#     Edge 93, Type (0, 0), None
#     Edge 94, Type (0, 0), None
#     Edge 95, Type (0, 0), None
#     Edge 96, Type (0, 0), None
#     Edge 97, Type (0, 0), None
#     Edge 98, Type (0, 0), None
#     Edge 99, Type (0, 0), None
#     Edge 100, Type (0, 0), None
#     Edge 101, Type (0, 0), None
#     Edge 102, Type (0, 0), None
#     Edge 103, Type (0, 0), None
#     Edge 104, Type (0, 0), None
#     Edge 105, Type (0, 0), None
#     Edge 106, Type (0, 0), None
#     Edge 107, Type (0, 0), None
# Relax obj value: 0.176
# Max RMSD: 0.175
# Mean RMSD: 0.174
data_MOF--net-ums--node1-GALJAG_clean_sbu_0--edge1-none
_symmetry_space_group_name_H-M    P1
_symmetry_Int_Tables_number       1
_symmetry_cell_setting            triclinic
loop_
_symmetry_equiv_pos_as_xyz
'x, y, z'
_cell_length_a     45.469881
_cell_length_b     45.472521
_cell_length_c     11.238333
_cell_angle_alpha  90.010803
_cell_angle_beta   89.981323
_cell_angle_gamma 119.99877
loop_
_atom_site_label
_atom_site_type_symbol
_atom_site_fract_x
_atom_site_fract_y
_atom_site_fract_z
_atom_type_partial_charge
In0 In 0.13482 0.23138 0.21169 0.0
O1 O 0.13535 0.18138 0.23277 0.0
O2 O 0.1819 0.22797 0.25011 0.0
C3 C 0.09321 0.22223 0.02869 0.0
C4 C 0.10174 0.22389 0.41881 0.0
C5 C 0.1793 0.29367 0.1293 0.0
O6 O 0.10829 0.20527 0.03778 0.0
O7 O 0.09715 0.2415 0.11531 0.0
O8 O 0.16872 0.2886 0.23557 0.0
O9 O 0.16893 0.26731 0.06674 0.0
C10 C 0.1667 0.19609 0.25531 0.0
O11 O 0.13211 0.24681 0.40196 0.0
O12 O 0.08747 0.20494 0.3305 0.0
In13 In 0.71198 0.89214 0.2118 0.0
O14 O 0.69657 0.87401 0.40207 0.0
O15 O 0.73843 0.87123 0.3305 0.0
C16 C 0.6497 0.87435 0.12943 0.0
C17 C 0.74728 0.95931 0.25541 0.0
C18 C 0.72112 0.85967 0.02871 0.0
O19 O 0.65476 0.86883 0.23568 0.0
O20 O 0.67607 0.89033 0.06688 0.0
O21 O 0.7381 0.8917 0.03786 0.0
O22 O 0.70184 0.84434 0.11531 0.0
C23 C 0.71949 0.86655 0.41885 0.0
O24 O 0.76199 0.94267 0.23276 0.0
O25 O 0.7154 0.94262 0.25035 0.0
In26 In 0.05122 0.80858 0.21178 0.0
O27 O 0.00068 0.80804 0.23285 0.0
O28 O 0.00073 0.7615 0.25018 0.0
C29 C 0.08368 0.85018 0.02872 0.0
C30 C 0.07679 0.84166 0.41886 0.0
C31 C 0.06903 0.76409 0.1294 0.0
O32 O 0.05165 0.83512 0.03789 0.0
O33 O 0.09902 0.84624 0.11529 0.0
O34 O 0.07453 0.77467 0.23566 0.0
O35 O 0.05306 0.77447 0.06684 0.0
C36 C -0.01596 0.77669 0.25535 0.0
O37 O 0.06933 0.81128 0.40205 0.0
O38 O 0.07212 0.85592 0.33053 0.0
In39 In 0.22003 0.14617 0.32881 0.0
O40 O 0.23546 0.14346 0.13854 0.0
O41 O 0.19358 0.09883 0.21004 0.0
C42 C 0.28231 0.19066 0.41121 0.0
C43 C 0.18474 0.17806 0.28518 0.0
C44 C 0.21088 0.10456 0.51184 0.0
O45 O 0.27725 0.18008 0.30495 0.0
O46 O 0.25594 0.18029 0.47375 0.0
O47 O 0.19392 0.11963 0.50274 0.0
O48 O 0.23016 0.10851 0.42523 0.0
C49 C 0.21253 0.11309 0.12172 0.0
O50 O 0.17003 0.14671 0.30781 0.0
O51 O 0.21662 0.19324 0.29029 0.0
In52 In 0.79721 0.06256 0.32881 0.0
O53 O 0.79991 0.08068 0.13854 0.0
O54 O 0.84455 0.08346 0.21001 0.0
C55 C 0.75272 0.08038 0.41121 0.0
C56 C 0.76532 -0.00462 0.28524 0.0
C57 C 0.83882 0.09502 0.51183 0.0
O58 O 0.7633 0.08588 0.30494 0.0
O59 O 0.7631 0.0644 0.47377 0.0
O60 O 0.82374 0.06299 0.5027 0.0
O61 O 0.83488 0.11035 0.42524 0.0
C62 C 0.83029 0.08814 0.1217 0.0
O63 O 0.79667 0.01203 0.30771 0.0
O64 O 0.75012 0.01207 0.29047 0.0
In65 In 0.88078 0.72334 0.32875 0.0
O66 O 0.86267 0.70794 0.13847 0.0
O67 O 0.85987 0.74978 0.21006 0.0
C68 C 0.863 0.66105 0.4111 0.0
C69 C 0.94796 0.75864 0.28516 0.0
C70 C 0.84831 0.73247 0.51185 0.0
O71 O 0.85748 0.66612 0.30485 0.0
O72 O 0.87897 0.68741 0.47365 0.0
O73 O 0.88034 0.74945 0.50267 0.0
O74 O 0.83298 0.71319 0.42527 0.0
C75 C 0.8552 0.73084 0.1217 0.0
O76 O 0.93131 0.77335 0.30776 0.0
O77 O 0.93128 0.72676 0.29025 0.0
In78 In 0.79719 0.72333 0.82885 0.0
O79 O 0.79666 0.77334 0.80778 0.0
O80 O 0.75011 0.72675 0.79043 0.0
C81 C 0.83879 0.73247 1.01187 0.0
C82 C 0.83028 0.73083 0.62176 0.0
C83 C 0.7527 0.66105 0.91125 0.0
O84 O 0.82372 0.74944 1.00277 0.0
O85 O 0.83486 0.71321 0.92524 0.0
O86 O 0.76328 0.66611 0.80498 0.0
O87 O 0.76307 0.68741 0.97381 0.0
C88 C 0.76531 0.75863 0.78524 0.0
O89 O 0.7999 0.70791 0.63859 0.0
O90 O 0.84453 0.74978 0.71005 0.0
In91 In 0.22003 0.06258 0.82875 0.0
O92 O 0.23544 0.08072 0.63847 0.0
O93 O 0.19358 0.08348 0.71005 0.0
C94 C 0.28231 0.08036 0.91112 0.0
C95 C 0.18473 -0.00459 0.78514 0.0
C96 C 0.2109 0.09505 1.01185 0.0
O97 O 0.27725 0.08589 0.80487 0.0
O98 O 0.25594 0.06438 0.97366 0.0
O99 O 0.19391 0.06302 1.00269 0.0
O100 O 0.23018 0.11038 0.92524 0.0
C101 C 0.21253 0.08818 0.62171 0.0
O102 O 0.17002 0.01205 0.8078 0.0
O103 O 0.21661 0.0121 0.79018 0.0
In104 In 0.88079 0.14614 0.82877 0.0
O105 O 0.93133 0.14668 0.80771 0.0
O106 O 0.93128 0.19322 0.79036 0.0
C107 C 0.84832 0.10455 1.01184 0.0
C108 C 0.85521 0.11306 0.6217 0.0
C109 C 0.86299 0.19064 0.91115 0.0
O110 O 0.88036 0.1196 1.00266 0.0
O111 O 0.83299 0.10849 0.92526 0.0
O112 O 0.85748 0.18005 0.80489 0.0
O113 O 0.87896 0.18026 0.9737 0.0
C114 C 0.94797 0.17803 0.78519 0.0
O115 O 0.86268 0.14343 0.63849 0.0
O116 O 0.85989 0.0988 0.71002 0.0
In117 In 0.71198 0.80855 0.71174 0.0
O118 O 0.69655 0.81127 0.902 0.0
O119 O 0.73844 0.85589 0.8305 0.0
C120 C 0.6497 0.76405 0.62934 0.0
C121 C 0.74727 0.77666 0.75537 0.0
C122 C 0.72112 0.85014 0.52869 0.0
O123 O 0.65476 0.77464 0.7356 0.0
O124 O 0.67607 0.77443 0.5668 0.0
O125 O 0.73809 0.83509 0.53781 0.0
O126 O 0.70184 0.8462 0.61532 0.0
C127 C 0.71948 0.84164 0.91881 0.0
O128 O 0.76198 0.80801 0.73273 0.0
O129 O 0.71539 0.76147 0.75026 0.0
In130 In 0.1348 0.89216 0.71174 0.0
O131 O 0.13534 0.94269 0.73284 0.0
O132 O 0.18189 0.94265 0.75009 0.0
C133 C 0.09321 0.8597 0.52871 0.0
C134 C 0.10172 0.86657 0.91883 0.0
C135 C 0.17929 0.87435 0.62934 0.0
O136 O 0.10827 0.89173 0.53785 0.0
O137 O 0.09714 0.84436 0.61531 0.0
O138 O 0.16871 0.86884 0.73561 0.0
O139 O 0.16891 0.89032 0.56678 0.0
C140 C 0.16669 0.95934 0.75531 0.0
O141 O 0.1321 0.87404 0.90201 0.0
O142 O 0.08746 0.87126 0.83053 0.0
In143 In 0.05123 0.23138 0.7118 0.0
O144 O 0.00069 0.18137 0.73279 0.0
O145 O 0.00073 0.22796 0.7503 0.0
C146 C 0.0837 0.22226 0.52869 0.0
C147 C 0.07682 0.22388 0.91883 0.0
C148 C 0.06901 0.29366 0.62945 0.0
O149 O 0.05167 0.20527 0.53788 0.0
O150 O 0.09903 0.24154 0.61527 0.0
O151 O 0.07453 0.2886 0.7357 0.0
O152 O 0.05304 0.26731 0.5669 0.0
C153 C -0.01595 0.19608 0.75539 0.0
O154 O 0.06934 0.24678 0.90208 0.0
O155 O 0.07214 0.20494 0.83048 0.0
In156 In 0.80154 0.56483 0.54618 0.0
O157 O 0.79886 0.58024 0.73651 0.0
O158 O 0.75421 0.5384 0.66501 0.0
C159 C 0.84602 0.62711 0.46375 0.0
C160 C 0.83338 0.52949 0.58955 0.0
C161 C 0.75992 0.55568 0.36322 0.0
O162 O 0.83546 0.62205 0.57005 0.0
O163 O 0.83565 0.60075 0.4012 0.0
O164 O 0.775 0.53873 0.37229 0.0
O165 O 0.76386 0.57496 0.44984 0.0
C166 C 0.76848 0.55733 0.75334 0.0
O167 O 0.80204 0.51481 0.56694 0.0
O168 O 0.8486 0.56137 0.5846 0.0
In169 In 0.37852 0.22541 0.54627 0.0
O170 O 0.42855 0.27593 0.56692 0.0
O171 O 0.38199 0.27592 0.58483 0.0
C172 C 0.38766 0.19292 0.36323 0.0
C173 C 0.38603 0.19984 0.75338 0.0
C174 C 0.31625 0.20762 0.46387 0.0
O175 O 0.40463 0.22496 0.37236 0.0
O176 O 0.36837 0.1776 0.44983 0.0
O177 O 0.3213 0.20211 0.57015 0.0
O178 O 0.34261 0.22361 0.40134 0.0
C179 C 0.41387 0.29259 0.58965 0.0
O180 O 0.36312 0.20732 0.73661 0.0
O181 O 0.40495 0.2045 0.665 0.0
In182 In 0.71795 0.14185 0.54627 0.0
O183 O 0.73601 0.14453 0.73661 0.0
O184 O 0.73886 0.18919 0.66504 0.0
C185 C 0.73576 0.09737 0.46386 0.0
C186 C 0.65076 0.11 0.58959 0.0
C187 C 0.75043 0.18347 0.36326 0.0
O188 O 0.74126 0.10793 0.57014 0.0
O189 O 0.71979 0.10774 0.40131 0.0
O190 O 0.7184 0.1684 0.3724 0.0
O191 O 0.76576 0.17951 0.44982 0.0
C192 C 0.7435 0.17491 0.7534 0.0
O193 O 0.66743 0.14135 0.56702 0.0
O194 O 0.66743 0.09479 0.58467 0.0
In195 In 0.88664 0.47946 0.66232 0.0
O196 O 0.83666 0.48004 0.64133 0.0
O197 O 0.88327 0.52659 0.62449 0.0
C198 C 0.87745 0.43783 0.84533 0.0
C199 C 0.87909 0.44638 0.45519 0.0
C200 C 0.94901 0.52388 0.74417 0.0
O201 O 0.86054 0.45296 0.83632 0.0
O202 O 0.89669 0.44173 0.75866 0.0
O203 O 0.94386 0.5133 0.6379 0.0
O204 O 0.92271 0.51352 0.80703 0.0
C205 C 0.85139 0.51141 0.61918 0.0
O206 O 0.90197 0.47677 0.4719 0.0
O207 O 0.86019 0.4321 0.54362 0.0
In208 In 0.46391 0.39589 0.66231 0.0
O209 O 0.46659 0.41387 0.47189 0.0
O210 O 0.51127 0.4168 0.54358 0.0
C211 C 0.41951 0.41387 0.74416 0.0
C212 C 0.43195 0.32868 0.61923 0.0
C213 C 0.50554 0.42831 0.84531 0.0
O214 O 0.43007 0.41926 0.63788 0.0
O215 O 0.42986 0.39794 0.80704 0.0
O216 O 0.4904 0.39628 0.83628 0.0
O217 O 0.50165 0.44366 0.75867 0.0
C218 C 0.49699 0.4214 0.45516 0.0
O219 O 0.46334 0.34533 0.64122 0.0
O220 O 0.41678 0.34538 0.62466 0.0
In221 In 0.54745 0.05673 0.66224 0.0
O222 O 0.52947 0.04143 0.47181 0.0
O223 O 0.52653 0.08317 0.54362 0.0
C224 C 0.52951 -0.00565 0.74405 0.0
C225 C 0.61466 0.09198 0.61915 0.0
C226 C 0.51502 0.06591 0.84532 0.0
O227 O 0.5241 -0.00048 0.63779 0.0
O228 O 0.54543 0.02065 0.80692 0.0
O229 O 0.54705 0.08282 0.83624 0.0
O230 O 0.49967 0.04666 0.7587 0.0
C231 C 0.52194 0.06429 0.45516 0.0
O232 O 0.59801 0.10671 0.64128 0.0
O233 O 0.59797 0.06011 0.62444 0.0
In234 In 0.4639 0.05672 0.16235 0.0
O235 O 0.46332 0.1067 0.1413 0.0
O236 O 0.41676 0.0601 0.12462 0.0
C237 C 0.50552 0.06591 0.34535 0.0
C238 C 0.49698 0.06428 0.95521 0.0
C239 C 0.41948 -0.00565 0.24421 0.0
O240 O 0.49038 0.08282 0.33634 0.0
O241 O 0.50163 0.04668 0.25866 0.0
O242 O 0.43006 -0.00049 0.13793 0.0
O243 O 0.42984 0.02064 0.30708 0.0
C244 C 0.43194 0.09197 0.11923 0.0
O245 O 0.46659 0.0414 0.97193 0.0
O246 O 0.51126 0.08317 0.04362 0.0
In247 In 0.88664 0.3959 0.16226 0.0
O248 O 0.90196 0.41391 0.97183 0.0
O249 O 0.86019 0.41682 0.04363 0.0
C250 C 0.94902 0.41385 0.24408 0.0
C251 C 0.85139 0.3287 0.11914 0.0
C252 C 0.87747 0.42834 0.34534 0.0
O253 O 0.94386 0.41926 0.13782 0.0
O254 O 0.92271 0.39791 0.30694 0.0
O255 O 0.86054 0.3963 0.33627 0.0
O256 O 0.89671 0.44368 0.25867 0.0
C257 C 0.87908 0.42143 0.95518 0.0
O258 O 0.83666 0.34534 0.14132 0.0
O259 O 0.88327 0.3454 0.12439 0.0
In260 In 0.54746 0.47944 0.16227 0.0
O261 O 0.59802 0.48002 0.14123 0.0
O262 O 0.59797 0.52657 0.12455 0.0
C263 C 0.51503 0.43782 0.34532 0.0
C264 C 0.52194 0.44635 0.95516 0.0
C265 C 0.5295 0.52385 0.2441 0.0
O266 O 0.54707 0.45294 0.33623 0.0
O267 O 0.49968 0.44172 0.25869 0.0
O268 O 0.5241 0.51328 0.13783 0.0
O269 O 0.54542 0.51349 0.30697 0.0
C270 C 0.61467 0.51139 0.11919 0.0
O271 O 0.52948 0.47675 0.97184 0.0
O272 O 0.52655 0.43207 0.04359 0.0
In273 In 0.37852 0.14182 0.04621 0.0
O274 O 0.36311 0.14451 0.23654 0.0
O275 O 0.40496 0.18916 0.165 0.0
C276 C 0.31625 0.09734 0.96378 0.0
C277 C 0.41387 0.10998 0.0896 0.0
C278 C 0.38765 0.18343 0.86321 0.0
O279 O 0.32129 0.1079 0.07007 0.0
O280 O 0.34261 0.10771 0.90125 0.0
O281 O 0.40463 0.16837 0.87231 0.0
O282 O 0.36838 0.17949 0.94985 0.0
C283 C 0.38602 0.17489 0.25334 0.0
O284 O 0.42855 0.14132 0.0669 0.0
O285 O 0.38198 0.09478 0.08474 0.0
In286 In 0.80153 0.22542 0.04622 0.0
O287 O 0.80203 0.27594 0.06701 0.0
O288 O 0.84858 0.27594 0.08459 0.0
C289 C 0.75992 0.19295 0.86324 0.0
C290 C 0.76846 0.19986 0.25337 0.0
C291 C 0.846 0.2076 0.9638 0.0
O292 O 0.77498 0.22498 0.87236 0.0
O293 O 0.76386 0.17762 0.94984 0.0
O294 O 0.83544 0.20211 0.07009 0.0
O295 O 0.83563 0.22358 0.90125 0.0
C296 C 0.83337 0.29261 0.08956 0.0
O297 O 0.79885 0.20735 0.23656 0.0
O298 O 0.75419 0.20452 0.16505 0.0
In299 In 0.71796 0.56483 0.04628 0.0
O300 O 0.66744 0.5148 0.06696 0.0
O301 O 0.66744 0.56136 0.0848 0.0
C302 C 0.75045 0.55571 0.86322 0.0
C303 C 0.74353 0.55732 0.25336 0.0
C304 C 0.73575 0.62711 0.9639 0.0
O305 O 0.71841 0.53873 0.87239 0.0
O306 O 0.76577 0.57499 0.94981 0.0
O307 O 0.74125 0.62205 0.07018 0.0
O308 O 0.71977 0.60075 0.90136 0.0
C309 C 0.65077 0.52948 0.08963 0.0
O310 O 0.73603 0.58021 0.23663 0.0
O311 O 0.73888 0.5384 0.16499 0.0
In312 In 0.46811 0.89799 0.87819 0.0
O313 O 0.46869 0.84801 0.89924 0.0
O314 O 0.51524 0.89462 0.91593 0.0
C315 C 0.42647 0.88878 0.69521 0.0
C316 C 0.43503 0.89043 0.08535 0.0
C317 C 0.5125 0.96036 0.7963 0.0
O318 O 0.44162 0.87189 0.70421 0.0
O319 O 0.43037 0.90802 0.78188 0.0
O320 O 0.50194 0.9552 0.90259 0.0
O321 O 0.50216 0.93406 0.73345 0.0
C322 C 0.50007 0.86274 0.92132 0.0
O323 O 0.46542 0.91331 0.06861 0.0
O324 O 0.42075 0.87154 0.99693 0.0
In325 In 0.04537 0.55882 0.87828 0.0
O326 O 0.09535 0.60938 0.89922 0.0
O327 O 0.04875 0.60932 0.91616 0.0
C328 C 0.05457 0.52638 0.69521 0.0
C329 C 0.05294 0.5333 0.08538 0.0
C330 C -0.01699 0.54086 0.79642 0.0
O331 O 0.07148 0.55842 0.70428 0.0
O332 O 0.03531 0.51104 0.78187 0.0
O333 O -0.01184 0.53545 0.9027 0.0
O334 O 0.00931 0.55682 0.73358 0.0
C335 C 0.08062 0.62602 0.92141 0.0
O336 O 0.03006 0.54082 0.06871 0.0
O337 O 0.07182 0.53791 0.99692 0.0
In338 In 0.38454 0.47529 0.87827 0.0
O339 O 0.40253 0.47797 0.0687 0.0
O340 O 0.40546 0.52265 0.99696 0.0
C341 C 0.40252 0.43089 0.7964 0.0
C342 C 0.31733 0.44333 0.92136 0.0
C343 C 0.41698 0.51692 0.69524 0.0
O344 O 0.40792 0.44145 0.90268 0.0
O345 O 0.38658 0.44123 0.73355 0.0
O346 O 0.38494 0.50178 0.70431 0.0
O347 O 0.43232 0.51301 0.78185 0.0
C348 C 0.41005 0.50837 0.08539 0.0
O349 O 0.33398 0.47471 0.89931 0.0
O350 O 0.33404 0.42815 0.916 0.0
In351 In 0.55349 0.8129 0.99434 0.0
O352 O 0.50346 0.81339 0.97364 0.0
O353 O 0.55003 0.85994 0.95583 0.0
C354 C 0.54435 0.77128 0.17733 0.0
C355 C 0.54599 0.77983 0.7872 0.0
C356 C 0.61576 0.85737 0.07677 0.0
O357 O 0.52738 0.78635 0.16825 0.0
O358 O 0.56363 0.77523 0.09071 0.0
O359 O 0.61072 0.84681 0.97048 0.0
O360 O 0.5894 0.847 0.1393 0.0
C361 C 0.51814 0.84473 0.95095 0.0
O362 O 0.5689 0.81021 0.80401 0.0
O363 O 0.52705 0.76556 0.87555 0.0
In364 In 0.13048 0.7293 0.99433 0.0
O365 O 0.13316 0.74737 0.804 0.0
O366 O 0.17782 0.75021 0.87551 0.0
C367 C 0.08601 0.74712 0.07676 0.0
C368 C 0.09864 0.66211 0.951 0.0
C369 C 0.1721 0.76177 0.1773 0.0
O370 O 0.09657 0.75261 0.97046 0.0
O371 O 0.09638 0.73114 0.13931 0.0
O372 O 0.15702 0.72974 0.1682 0.0
O373 O 0.16816 0.7771 0.09071 0.0
C374 C 0.16354 0.75485 0.78717 0.0
O375 O 0.12999 0.67878 0.97353 0.0
O376 O 0.08343 0.67878 0.95599 0.0
In377 In 0.21405 0.38989 0.99427 0.0
O378 O 0.19598 0.3745 0.80393 0.0
O379 O 0.19313 0.41631 0.87556 0.0
C380 C 0.19626 0.32761 0.07665 0.0
C381 C 0.28124 0.42524 0.95092 0.0
C382 C 0.18156 0.39902 0.17733 0.0
O383 O 0.19076 0.33267 0.97037 0.0
O384 O 0.21224 0.35397 0.1392 0.0
O385 O 0.2136 0.41599 0.16817 0.0
O386 O 0.16624 0.37973 0.09075 0.0
C387 C 0.18849 0.3974 0.78717 0.0
O388 O 0.26457 0.43992 0.97359 0.0
O389 O 0.26457 0.39336 0.95578 0.0
In390 In 0.13046 0.38989 0.49438 0.0
O391 O 0.12997 0.43991 0.47361 0.0
O392 O 0.08341 0.39335 0.45595 0.0
C393 C 0.17207 0.39902 0.67735 0.0
C394 C 0.16353 0.39738 0.28723 0.0
C395 C 0.08599 0.32761 0.5768 0.0
O396 O 0.15701 0.41599 0.66827 0.0
O397 O 0.16814 0.37975 0.59072 0.0
O398 O 0.09655 0.33266 0.47051 0.0
O399 O 0.09635 0.35396 0.63935 0.0
C400 C 0.09863 0.42523 0.451 0.0
O401 O 0.13315 0.37448 0.30405 0.0
O402 O 0.1778 0.41632 0.37555 0.0
In403 In 0.55349 0.72931 0.49428 0.0
O404 O 0.56889 0.7474 0.30394 0.0
O405 O 0.52705 0.75022 0.37556 0.0
C406 C 0.61576 0.7471 0.57668 0.0
C407 C 0.51814 0.66213 0.45091 0.0
C408 C 0.54437 0.7618 0.67734 0.0
O409 O 0.61072 0.75261 0.4704 0.0
O410 O 0.5894 0.73111 0.63921 0.0
O411 O 0.52738 0.72976 0.66819 0.0
O412 O 0.56365 0.77712 0.59073 0.0
C413 C 0.54599 0.75488 0.2872 0.0
O414 O 0.50346 0.67879 0.47363 0.0
O415 O 0.55002 0.6788 0.45572 0.0
In416 In 0.21406 0.81287 0.49429 0.0
O417 O 0.19599 0.81019 0.30395 0.0
O418 O 0.19315 0.76553 0.37552 0.0
C419 C 0.19625 0.85735 0.57669 0.0
C420 C 0.28125 0.84472 0.45096 0.0
C421 C 0.18158 0.77127 0.67731 0.0
O422 O 0.19075 0.84679 0.47041 0.0
O423 O 0.21222 0.84698 0.63924 0.0
O424 O 0.21361 0.78632 0.66815 0.0
O425 O 0.16625 0.77521 0.59073 0.0
C426 C 0.1885 0.77981 0.28717 0.0
O427 O 0.26458 0.81337 0.47354 0.0
O428 O 0.26457 0.85993 0.45589 0.0
In429 In 0.04537 0.47526 0.37822 0.0
O430 O 0.03004 0.47796 0.56864 0.0
O431 O 0.07183 0.52262 0.49691 0.0
C432 C -0.01699 0.43086 0.29633 0.0
C433 C 0.08062 0.44331 0.42137 0.0
C434 C 0.05456 0.51688 0.1952 0.0
O435 O -0.01185 0.44142 0.40261 0.0
O436 O 0.00931 0.4412 0.2335 0.0
O437 O 0.07147 0.50176 0.20422 0.0
O438 O 0.03532 0.51299 0.28188 0.0
C439 C 0.05293 0.50835 0.58533 0.0
O440 O 0.09535 0.47468 0.3992 0.0
O441 O 0.04874 0.42814 0.41608 0.0
In442 In 0.46809 0.55883 0.37822 0.0
O443 O 0.46867 0.60939 0.39931 0.0
O444 O 0.51523 0.60934 0.41591 0.0
C445 C 0.42647 0.52641 0.19522 0.0
C446 C 0.43501 0.53332 0.58536 0.0
C447 C 0.51249 0.54084 0.29634 0.0
O448 O 0.4416 0.55844 0.20427 0.0
O449 O 0.43036 0.51106 0.28187 0.0
O450 O 0.50193 0.53546 0.40263 0.0
O451 O 0.50215 0.5568 0.23349 0.0
C452 C 0.50006 0.62604 0.42132 0.0
O453 O 0.46541 0.54084 0.56865 0.0
O454 O 0.42073 0.53793 0.49695 0.0
In455 In 0.38455 0.89799 0.37829 0.0
O456 O 0.33399 0.84801 0.39925 0.0
O457 O 0.33404 0.89461 0.41613 0.0
C458 C 0.41699 0.88881 0.1952 0.0
C459 C 0.41007 0.89042 0.58536 0.0
C460 C 0.40251 0.96035 0.29645 0.0
O461 O 0.38495 0.87189 0.20431 0.0
O462 O 0.43234 0.90806 0.28184 0.0
O463 O 0.40792 0.9552 0.40272 0.0
O464 O 0.38656 0.93406 0.2336 0.0
C465 C 0.31734 0.86273 0.4214 0.0
O466 O 0.40254 0.91329 0.56873 0.0
O467 O 0.40547 0.87154 0.49691 0.0
loop_
_geom_bond_atom_site_label_1
_geom_bond_atom_site_label_2
_geom_bond_distance
_geom_bond_site_symmetry_2
_ccdc_geom_bond_type
In0 O1 2.294 . S
In0 O2 2.326 . S
In0 O6 2.266 1_554 S
In0 O7 2.326 . S
In0 O8 2.266 . S
In0 O9 2.326 . S
In0 O11 2.294 . S
In0 O12 2.326 . S
O1 In0 2.294 . S
O1 C10 1.240 . S
O2 In0 2.326 . S
O2 C10 1.252 . S
C3 O6 1.252 . S
C3 O7 1.260 1_556 S
C4 O11 1.240 . S
C4 O12 1.252 . S
C5 O8 1.252 . S
C5 O9 1.260 . S
O6 In0 2.266 1_556 S
O6 C3 1.252 . S
O7 In0 2.326 . S
O7 C3 1.260 1_554 S
O8 In0 2.266 . S
O8 C5 1.252 . S
O9 In0 2.326 . S
O9 C5 1.260 . S
C10 O1 1.240 . S
C10 O2 1.252 . S
O11 In0 2.294 . S
O11 C4 1.240 . S
O12 In0 2.326 . S
O12 C4 1.252 . S
In13 O14 2.294 . S
In13 O15 2.326 . S
In13 O19 2.266 . S
In13 O20 2.326 . S
In13 O21 2.266 1_554 S
In13 O22 2.326 . S
In13 O24 2.294 . S
In13 O25 2.326 . S
O14 In13 2.294 . S
O14 C23 1.240 . S
O15 In13 2.326 . S
O15 C23 1.252 . S
C16 O19 1.252 . S
C16 O20 1.260 . S
C17 O24 1.240 . S
C17 O25 1.252 . S
C18 O21 1.252 . S
C18 O22 1.260 1_556 S
O19 In13 2.266 . S
O19 C16 1.252 . S
O20 In13 2.326 . S
O20 C16 1.260 . S
O21 In13 2.266 1_556 S
O21 C18 1.252 . S
O22 In13 2.326 . S
O22 C18 1.260 1_554 S
C23 O14 1.240 . S
C23 O15 1.252 . S
O24 In13 2.294 . S
O24 C17 1.240 . S
O25 In13 2.326 . S
O25 C17 1.252 . S
In26 O27 2.294 . S
In26 O28 2.326 . S
In26 O32 2.266 1_554 S
In26 O33 2.326 . S
In26 O34 2.266 . S
In26 O35 2.326 . S
In26 O37 2.294 . S
In26 O38 2.326 . S
O27 In26 2.294 . S
O27 C36 1.240 . S
O28 In26 2.326 . S
O28 C36 1.252 . S
C29 O32 1.252 . S
C29 O33 1.260 1_556 S
C30 O37 1.240 . S
C30 O38 1.252 . S
C31 O34 1.252 . S
C31 O35 1.260 . S
O32 In26 2.266 1_556 S
O32 C29 1.252 . S
O33 In26 2.326 . S
O33 C29 1.260 1_554 S
O34 In26 2.266 . S
O34 C31 1.252 . S
O35 In26 2.326 . S
O35 C31 1.260 . S
C36 O27 1.240 . S
C36 O28 1.252 . S
O37 In26 2.294 . S
O37 C30 1.240 . S
O38 In26 2.326 . S
O38 C30 1.252 . S
In39 O40 2.294 . S
In39 O41 2.326 . S
In39 O45 2.266 . S
In39 O46 2.326 . S
In39 O47 2.266 . S
In39 O48 2.326 . S
In39 O50 2.294 . S
In39 O51 2.326 . S
O40 In39 2.294 . S
O40 C49 1.240 . S
O41 In39 2.326 . S
O41 C49 1.252 . S
C42 O45 1.252 . S
C42 O46 1.260 . S
C43 O50 1.240 . S
C43 O51 1.252 . S
C44 O47 1.252 . S
C44 O48 1.260 . S
O45 In39 2.266 . S
O45 C42 1.252 . S
O46 In39 2.326 . S
O46 C42 1.260 . S
O47 In39 2.266 . S
O47 C44 1.252 . S
O48 In39 2.326 . S
O48 C44 1.260 . S
C49 O40 1.240 . S
C49 O41 1.252 . S
O50 In39 2.294 . S
O50 C43 1.240 . S
O51 In39 2.326 . S
O51 C43 1.252 . S
In52 O53 2.294 . S
In52 O54 2.326 . S
In52 O58 2.266 . S
In52 O59 2.326 . S
In52 O60 2.266 . S
In52 O61 2.326 . S
In52 O63 2.294 . S
In52 O64 2.326 . S
O53 In52 2.294 . S
O53 C62 1.240 . S
O54 In52 2.326 . S
O54 C62 1.252 . S
C55 O58 1.252 . S
C55 O59 1.260 . S
C56 O63 1.240 . S
C56 O64 1.252 . S
C57 O60 1.252 . S
C57 O61 1.260 . S
O58 In52 2.266 . S
O58 C55 1.252 . S
O59 In52 2.326 . S
O59 C55 1.260 . S
O60 In52 2.266 . S
O60 C57 1.252 . S
O61 In52 2.326 . S
O61 C57 1.260 . S
C62 O53 1.240 . S
C62 O54 1.252 . S
O63 In52 2.294 . S
O63 C56 1.240 . S
O64 In52 2.326 . S
O64 C56 1.252 . S
In65 O66 2.294 . S
In65 O67 2.326 . S
In65 O71 2.266 . S
In65 O72 2.326 . S
In65 O73 2.266 . S
In65 O74 2.326 . S
In65 O76 2.294 . S
In65 O77 2.326 . S
O66 In65 2.294 . S
O66 C75 1.240 . S
O67 In65 2.326 . S
O67 C75 1.252 . S
C68 O71 1.252 . S
C68 O72 1.260 . S
C69 O76 1.240 . S
C69 O77 1.252 . S
C70 O73 1.252 . S
C70 O74 1.260 . S
O71 In65 2.266 . S
O71 C68 1.252 . S
O72 In65 2.326 . S
O72 C68 1.260 . S
O73 In65 2.266 . S
O73 C70 1.252 . S
O74 In65 2.326 . S
O74 C70 1.260 . S
C75 O66 1.240 . S
C75 O67 1.252 . S
O76 In65 2.294 . S
O76 C69 1.240 . S
O77 In65 2.326 . S
O77 C69 1.252 . S
In78 O79 2.294 . S
In78 O80 2.326 . S
In78 O84 2.266 1_556 S
In78 O85 2.326 . S
In78 O86 2.266 . S
In78 O87 2.326 . S
In78 O89 2.294 . S
In78 O90 2.326 . S
O79 In78 2.294 . S
O79 C88 1.240 . S
O80 In78 2.326 . S
O80 C88 1.252 . S
C81 O84 1.252 . S
C81 O85 1.260 1_554 S
C82 O89 1.240 . S
C82 O90 1.252 . S
C83 O86 1.252 . S
C83 O87 1.260 . S
O84 In78 2.266 1_554 S
O84 C81 1.252 . S
O85 In78 2.326 . S
O85 C81 1.260 1_556 S
O86 In78 2.266 . S
O86 C83 1.252 . S
O87 In78 2.326 . S
O87 C83 1.260 . S
C88 O79 1.240 . S
C88 O80 1.252 . S
O89 In78 2.294 . S
O89 C82 1.240 . S
O90 In78 2.326 . S
O90 C82 1.252 . S
In91 O92 2.294 . S
In91 O93 2.326 . S
In91 O97 2.266 . S
In91 O98 2.326 . S
In91 O99 2.266 1_556 S
In91 O100 2.326 . S
In91 O102 2.294 . S
In91 O103 2.326 . S
O92 In91 2.294 . S
O92 C101 1.240 . S
O93 In91 2.326 . S
O93 C101 1.252 . S
C94 O97 1.252 . S
C94 O98 1.260 . S
C95 O102 1.240 . S
C95 O103 1.252 . S
C96 O99 1.252 . S
C96 O100 1.260 1_554 S
O97 In91 2.266 . S
O97 C94 1.252 . S
O98 In91 2.326 . S
O98 C94 1.260 . S
O99 In91 2.266 1_554 S
O99 C96 1.252 . S
O100 In91 2.326 . S
O100 C96 1.260 1_556 S
C101 O92 1.240 . S
C101 O93 1.252 . S
O102 In91 2.294 . S
O102 C95 1.240 . S
O103 In91 2.326 . S
O103 C95 1.252 . S
In104 O105 2.294 . S
In104 O106 2.326 . S
In104 O110 2.266 1_556 S
In104 O111 2.326 . S
In104 O112 2.266 . S
In104 O113 2.326 . S
In104 O115 2.294 . S
In104 O116 2.326 . S
O105 In104 2.294 . S
O105 C114 1.240 . S
O106 In104 2.326 . S
O106 C114 1.252 . S
C107 O110 1.252 . S
C107 O111 1.260 1_554 S
C108 O115 1.240 . S
C108 O116 1.252 . S
C109 O112 1.252 . S
C109 O113 1.260 . S
O110 In104 2.266 1_554 S
O110 C107 1.252 . S
O111 In104 2.326 . S
O111 C107 1.260 1_556 S
O112 In104 2.266 . S
O112 C109 1.252 . S
O113 In104 2.326 . S
O113 C109 1.260 . S
C114 O105 1.240 . S
C114 O106 1.252 . S
O115 In104 2.294 . S
O115 C108 1.240 . S
O116 In104 2.326 . S
O116 C108 1.252 . S
In117 O118 2.294 . S
In117 O119 2.326 . S
In117 O123 2.266 . S
In117 O124 2.326 . S
In117 O125 2.266 . S
In117 O126 2.326 . S
In117 O128 2.294 . S
In117 O129 2.326 . S
O118 In117 2.294 . S
O118 C127 1.240 . S
O119 In117 2.326 . S
O119 C127 1.252 . S
C120 O123 1.252 . S
C120 O124 1.260 . S
C121 O128 1.240 . S
C121 O129 1.252 . S
C122 O125 1.252 . S
C122 O126 1.260 . S
O123 In117 2.266 . S
O123 C120 1.252 . S
O124 In117 2.326 . S
O124 C120 1.260 . S
O125 In117 2.266 . S
O125 C122 1.252 . S
O126 In117 2.326 . S
O126 C122 1.260 . S
C127 O118 1.240 . S
C127 O119 1.252 . S
O128 In117 2.294 . S
O128 C121 1.240 . S
O129 In117 2.326 . S
O129 C121 1.252 . S
In130 O131 2.294 . S
In130 O132 2.326 . S
In130 O136 2.266 . S
In130 O137 2.326 . S
In130 O138 2.266 . S
In130 O139 2.326 . S
In130 O141 2.294 . S
In130 O142 2.326 . S
O131 In130 2.294 . S
O131 C140 1.240 . S
O132 In130 2.326 . S
O132 C140 1.252 . S
C133 O136 1.252 . S
C133 O137 1.260 . S
C134 O141 1.240 . S
C134 O142 1.252 . S
C135 O138 1.252 . S
C135 O139 1.260 . S
O136 In130 2.266 . S
O136 C133 1.252 . S
O137 In130 2.326 . S
O137 C133 1.260 . S
O138 In130 2.266 . S
O138 C135 1.252 . S
O139 In130 2.326 . S
O139 C135 1.260 . S
C140 O131 1.240 . S
C140 O132 1.252 . S
O141 In130 2.294 . S
O141 C134 1.240 . S
O142 In130 2.326 . S
O142 C134 1.252 . S
In143 O144 2.294 . S
In143 O145 2.326 . S
In143 O149 2.266 . S
In143 O150 2.326 . S
In143 O151 2.266 . S
In143 O152 2.326 . S
In143 O154 2.294 . S
In143 O155 2.326 . S
O144 In143 2.294 . S
O144 C153 1.240 . S
O145 In143 2.326 . S
O145 C153 1.252 . S
C146 O149 1.252 . S
C146 O150 1.260 . S
C147 O154 1.240 . S
C147 O155 1.252 . S
C148 O151 1.252 . S
C148 O152 1.260 . S
O149 In143 2.266 . S
O149 C146 1.252 . S
O150 In143 2.326 . S
O150 C146 1.260 . S
O151 In143 2.266 . S
O151 C148 1.252 . S
O152 In143 2.326 . S
O152 C148 1.260 . S
C153 O144 1.240 . S
C153 O145 1.252 . S
O154 In143 2.294 . S
O154 C147 1.240 . S
O155 In143 2.326 . S
O155 C147 1.252 . S
In156 O157 2.294 . S
In156 O158 2.326 . S
In156 O162 2.266 . S
In156 O163 2.326 . S
In156 O164 2.266 . S
In156 O165 2.326 . S
In156 O167 2.294 . S
In156 O168 2.326 . S
O157 In156 2.294 . S
O157 C166 1.240 . S
O158 In156 2.326 . S
O158 C166 1.252 . S
C159 O162 1.252 . S
C159 O163 1.260 . S
C160 O167 1.240 . S
C160 O168 1.252 . S
C161 O164 1.252 . S
C161 O165 1.260 . S
O162 In156 2.266 . S
O162 C159 1.252 . S
O163 In156 2.326 . S
O163 C159 1.260 . S
O164 In156 2.266 . S
O164 C161 1.252 . S
O165 In156 2.326 . S
O165 C161 1.260 . S
C166 O157 1.240 . S
C166 O158 1.252 . S
O167 In156 2.294 . S
O167 C160 1.240 . S
O168 In156 2.326 . S
O168 C160 1.252 . S
In169 O170 2.294 . S
In169 O171 2.326 . S
In169 O175 2.266 . S
In169 O176 2.326 . S
In169 O177 2.266 . S
In169 O178 2.326 . S
In169 O180 2.294 . S
In169 O181 2.326 . S
O170 In169 2.294 . S
O170 C179 1.240 . S
O171 In169 2.326 . S
O171 C179 1.252 . S
C172 O175 1.252 . S
C172 O176 1.260 . S
C173 O180 1.240 . S
C173 O181 1.252 . S
C174 O177 1.252 . S
C174 O178 1.260 . S
O175 In169 2.266 . S
O175 C172 1.252 . S
O176 In169 2.326 . S
O176 C172 1.260 . S
O177 In169 2.266 . S
O177 C174 1.252 . S
O178 In169 2.326 . S
O178 C174 1.260 . S
C179 O170 1.240 . S
C179 O171 1.252 . S
O180 In169 2.294 . S
O180 C173 1.240 . S
O181 In169 2.326 . S
O181 C173 1.252 . S
In182 O183 2.294 . S
In182 O184 2.326 . S
In182 O188 2.266 . S
In182 O189 2.326 . S
In182 O190 2.266 . S
In182 O191 2.326 . S
In182 O193 2.294 . S
In182 O194 2.326 . S
O183 In182 2.294 . S
O183 C192 1.240 . S
O184 In182 2.326 . S
O184 C192 1.252 . S
C185 O188 1.252 . S
C185 O189 1.260 . S
C186 O193 1.240 . S
C186 O194 1.252 . S
C187 O190 1.252 . S
C187 O191 1.260 . S
O188 In182 2.266 . S
O188 C185 1.252 . S
O189 In182 2.326 . S
O189 C185 1.260 . S
O190 In182 2.266 . S
O190 C187 1.252 . S
O191 In182 2.326 . S
O191 C187 1.260 . S
C192 O183 1.240 . S
C192 O184 1.252 . S
O193 In182 2.294 . S
O193 C186 1.240 . S
O194 In182 2.326 . S
O194 C186 1.252 . S
In195 O196 2.294 . S
In195 O197 2.326 . S
In195 O201 2.266 . S
In195 O202 2.326 . S
In195 O203 2.266 . S
In195 O204 2.326 . S
In195 O206 2.294 . S
In195 O207 2.326 . S
O196 In195 2.294 . S
O196 C205 1.240 . S
O197 In195 2.326 . S
O197 C205 1.252 . S
C198 O201 1.252 . S
C198 O202 1.260 . S
C199 O206 1.240 . S
C199 O207 1.252 . S
C200 O203 1.252 . S
C200 O204 1.260 . S
O201 In195 2.266 . S
O201 C198 1.252 . S
O202 In195 2.326 . S
O202 C198 1.260 . S
O203 In195 2.266 . S
O203 C200 1.252 . S
O204 In195 2.326 . S
O204 C200 1.260 . S
C205 O196 1.240 . S
C205 O197 1.252 . S
O206 In195 2.294 . S
O206 C199 1.240 . S
O207 In195 2.326 . S
O207 C199 1.252 . S
In208 O209 2.294 . S
In208 O210 2.326 . S
In208 O214 2.266 . S
In208 O215 2.326 . S
In208 O216 2.266 . S
In208 O217 2.326 . S
In208 O219 2.294 . S
In208 O220 2.326 . S
O209 In208 2.294 . S
O209 C218 1.240 . S
O210 In208 2.326 . S
O210 C218 1.252 . S
C211 O214 1.252 . S
C211 O215 1.260 . S
C212 O219 1.240 . S
C212 O220 1.252 . S
C213 O216 1.252 . S
C213 O217 1.260 . S
O214 In208 2.266 . S
O214 C211 1.252 . S
O215 In208 2.326 . S
O215 C211 1.260 . S
O216 In208 2.266 . S
O216 C213 1.252 . S
O217 In208 2.326 . S
O217 C213 1.260 . S
C218 O209 1.240 . S
C218 O210 1.252 . S
O219 In208 2.294 . S
O219 C212 1.240 . S
O220 In208 2.326 . S
O220 C212 1.252 . S
In221 O222 2.294 . S
In221 O223 2.326 . S
In221 O227 2.266 . S
In221 O228 2.326 . S
In221 O229 2.266 . S
In221 O230 2.326 . S
In221 O232 2.294 . S
In221 O233 2.326 . S
O222 In221 2.294 . S
O222 C231 1.240 . S
O223 In221 2.326 . S
O223 C231 1.252 . S
C224 O227 1.252 . S
C224 O228 1.260 . S
C225 O232 1.240 . S
C225 O233 1.252 . S
C226 O229 1.252 . S
C226 O230 1.260 . S
O227 In221 2.266 . S
O227 C224 1.252 . S
O228 In221 2.326 . S
O228 C224 1.260 . S
O229 In221 2.266 . S
O229 C226 1.252 . S
O230 In221 2.326 . S
O230 C226 1.260 . S
C231 O222 1.240 . S
C231 O223 1.252 . S
O232 In221 2.294 . S
O232 C225 1.240 . S
O233 In221 2.326 . S
O233 C225 1.252 . S
In234 O235 2.294 . S
In234 O236 2.326 . S
In234 O240 2.266 . S
In234 O241 2.326 . S
In234 O242 2.266 . S
In234 O243 2.326 . S
In234 O245 2.294 1_554 S
In234 O246 2.326 . S
O235 In234 2.294 . S
O235 C244 1.240 . S
O236 In234 2.326 . S
O236 C244 1.252 . S
C237 O240 1.252 . S
C237 O241 1.260 . S
C238 O245 1.240 . S
C238 O246 1.252 1_556 S
C239 O242 1.252 . S
C239 O243 1.260 . S
O240 In234 2.266 . S
O240 C237 1.252 . S
O241 In234 2.326 . S
O241 C237 1.260 . S
O242 In234 2.266 . S
O242 C239 1.252 . S
O243 In234 2.326 . S
O243 C239 1.260 . S
C244 O235 1.240 . S
C244 O236 1.252 . S
O245 In234 2.294 1_556 S
O245 C238 1.240 . S
O246 In234 2.326 . S
O246 C238 1.252 1_554 S
In247 O248 2.294 1_554 S
In247 O249 2.326 . S
In247 O253 2.266 . S
In247 O254 2.326 . S
In247 O255 2.266 . S
In247 O256 2.326 . S
In247 O258 2.294 . S
In247 O259 2.326 . S
O248 In247 2.294 1_556 S
O248 C257 1.240 . S
O249 In247 2.326 . S
O249 C257 1.252 1_554 S
C250 O253 1.252 . S
C250 O254 1.260 . S
C251 O258 1.240 . S
C251 O259 1.252 . S
C252 O255 1.252 . S
C252 O256 1.260 . S
O253 In247 2.266 . S
O253 C250 1.252 . S
O254 In247 2.326 . S
O254 C250 1.260 . S
O255 In247 2.266 . S
O255 C252 1.252 . S
O256 In247 2.326 . S
O256 C252 1.260 . S
C257 O248 1.240 . S
C257 O249 1.252 1_556 S
O258 In247 2.294 . S
O258 C251 1.240 . S
O259 In247 2.326 . S
O259 C251 1.252 . S
In260 O261 2.294 . S
In260 O262 2.326 . S
In260 O266 2.266 . S
In260 O267 2.326 . S
In260 O268 2.266 . S
In260 O269 2.326 . S
In260 O271 2.294 1_554 S
In260 O272 2.326 . S
O261 In260 2.294 . S
O261 C270 1.240 . S
O262 In260 2.326 . S
O262 C270 1.252 . S
C263 O266 1.252 . S
C263 O267 1.260 . S
C264 O271 1.240 . S
C264 O272 1.252 1_556 S
C265 O268 1.252 . S
C265 O269 1.260 . S
O266 In260 2.266 . S
O266 C263 1.252 . S
O267 In260 2.326 . S
O267 C263 1.260 . S
O268 In260 2.266 . S
O268 C265 1.252 . S
O269 In260 2.326 . S
O269 C265 1.260 . S
C270 O261 1.240 . S
C270 O262 1.252 . S
O271 In260 2.294 1_556 S
O271 C264 1.240 . S
O272 In260 2.326 . S
O272 C264 1.252 1_554 S
In273 O274 2.297 . S
In273 O275 2.328 . S
In273 O279 2.266 1_554 S
In273 O280 2.323 1_554 S
In273 O281 2.263 1_554 S
In273 O282 2.324 1_554 S
In273 O284 2.294 . S
In273 O285 2.329 . S
O274 In273 2.297 . S
O274 C283 1.240 . S
O275 In273 2.328 . S
O275 C283 1.252 . S
C276 O279 1.252 . S
C276 O280 1.260 . S
C277 O284 1.240 . S
C277 O285 1.252 . S
C278 O281 1.252 . S
C278 O282 1.260 . S
O279 In273 2.266 1_556 S
O279 C276 1.252 . S
O280 In273 2.323 1_556 S
O280 C276 1.260 . S
O281 In273 2.263 1_556 S
O281 C278 1.252 . S
O282 In273 2.324 1_556 S
O282 C278 1.260 . S
C283 O274 1.240 . S
C283 O275 1.252 . S
O284 In273 2.294 . S
O284 C277 1.240 . S
O285 In273 2.329 . S
O285 C277 1.252 . S
In286 O287 2.294 . S
In286 O288 2.329 . S
In286 O292 2.263 1_554 S
In286 O293 2.324 1_554 S
In286 O294 2.266 1_554 S
In286 O295 2.323 1_554 S
In286 O297 2.297 . S
In286 O298 2.328 . S
O287 In286 2.294 . S
O287 C296 1.240 . S
O288 In286 2.329 . S
O288 C296 1.252 . S
C289 O292 1.252 . S
C289 O293 1.260 . S
C290 O297 1.240 . S
C290 O298 1.252 . S
C291 O294 1.252 . S
C291 O295 1.260 . S
O292 In286 2.263 1_556 S
O292 C289 1.252 . S
O293 In286 2.324 1_556 S
O293 C289 1.260 . S
O294 In286 2.266 1_556 S
O294 C291 1.252 . S
O295 In286 2.323 1_556 S
O295 C291 1.260 . S
C296 O287 1.240 . S
C296 O288 1.252 . S
O297 In286 2.297 . S
O297 C290 1.240 . S
O298 In286 2.328 . S
O298 C290 1.252 . S
In299 O300 2.294 . S
In299 O301 2.329 . S
In299 O305 2.263 1_554 S
In299 O306 2.324 1_554 S
In299 O307 2.266 1_554 S
In299 O308 2.323 1_554 S
In299 O310 2.297 . S
In299 O311 2.328 . S
O300 In299 2.294 . S
O300 C309 1.240 . S
O301 In299 2.329 . S
O301 C309 1.252 . S
C302 O305 1.252 . S
C302 O306 1.260 . S
C303 O310 1.240 . S
C303 O311 1.252 . S
C304 O307 1.252 . S
C304 O308 1.260 . S
O305 In299 2.263 1_556 S
O305 C302 1.252 . S
O306 In299 2.324 1_556 S
O306 C302 1.260 . S
O307 In299 2.266 1_556 S
O307 C304 1.252 . S
O308 In299 2.323 1_556 S
O308 C304 1.260 . S
C309 O300 1.240 . S
C309 O301 1.252 . S
O310 In299 2.297 . S
O310 C303 1.240 . S
O311 In299 2.328 . S
O311 C303 1.252 . S
In312 O313 2.294 . S
In312 O314 2.326 . S
In312 O318 2.266 . S
In312 O319 2.326 . S
In312 O320 2.266 . S
In312 O321 2.326 . S
In312 O323 2.294 1_556 S
In312 O324 2.326 . S
O313 In312 2.294 . S
O313 C322 1.240 . S
O314 In312 2.326 . S
O314 C322 1.252 . S
C315 O318 1.252 . S
C315 O319 1.260 . S
C316 O323 1.240 . S
C316 O324 1.252 1_554 S
C317 O320 1.252 . S
C317 O321 1.260 . S
O318 In312 2.266 . S
O318 C315 1.252 . S
O319 In312 2.326 . S
O319 C315 1.260 . S
O320 In312 2.266 . S
O320 C317 1.252 . S
O321 In312 2.326 . S
O321 C317 1.260 . S
C322 O313 1.240 . S
C322 O314 1.252 . S
O323 In312 2.294 1_554 S
O323 C316 1.240 . S
O324 In312 2.326 . S
O324 C316 1.252 1_556 S
In325 O326 2.294 . S
In325 O327 2.326 . S
In325 O331 2.266 . S
In325 O332 2.326 . S
In325 O333 2.266 . S
In325 O334 2.326 . S
In325 O336 2.294 1_556 S
In325 O337 2.326 . S
O326 In325 2.294 . S
O326 C335 1.240 . S
O327 In325 2.326 . S
O327 C335 1.252 . S
C328 O331 1.252 . S
C328 O332 1.260 . S
C329 O336 1.240 . S
C329 O337 1.252 1_554 S
C330 O333 1.252 . S
C330 O334 1.260 . S
O331 In325 2.266 . S
O331 C328 1.252 . S
O332 In325 2.326 . S
O332 C328 1.260 . S
O333 In325 2.266 . S
O333 C330 1.252 . S
O334 In325 2.326 . S
O334 C330 1.260 . S
C335 O326 1.240 . S
C335 O327 1.252 . S
O336 In325 2.294 1_554 S
O336 C329 1.240 . S
O337 In325 2.326 . S
O337 C329 1.252 1_556 S
In338 O339 2.294 1_556 S
In338 O340 2.326 . S
In338 O344 2.266 . S
In338 O345 2.326 . S
In338 O346 2.266 . S
In338 O347 2.326 . S
In338 O349 2.294 . S
In338 O350 2.326 . S
O339 In338 2.294 1_554 S
O339 C348 1.240 . S
O340 In338 2.326 . S
O340 C348 1.252 1_556 S
C341 O344 1.252 . S
C341 O345 1.260 . S
C342 O349 1.240 . S
C342 O350 1.252 . S
C343 O346 1.252 . S
C343 O347 1.260 . S
O344 In338 2.266 . S
O344 C341 1.252 . S
O345 In338 2.326 . S
O345 C341 1.260 . S
O346 In338 2.266 . S
O346 C343 1.252 . S
O347 In338 2.326 . S
O347 C343 1.260 . S
C348 O339 1.240 . S
C348 O340 1.252 1_554 S
O349 In338 2.294 . S
O349 C342 1.240 . S
O350 In338 2.326 . S
O350 C342 1.252 . S
In351 O352 2.294 . S
In351 O353 2.329 . S
In351 O357 2.263 1_556 S
In351 O358 2.324 1_556 S
In351 O359 2.266 1_556 S
In351 O360 2.323 1_556 S
In351 O362 2.297 . S
In351 O363 2.328 . S
O352 In351 2.294 . S
O352 C361 1.240 . S
O353 In351 2.329 . S
O353 C361 1.252 . S
C354 O357 1.252 . S
C354 O358 1.260 . S
C355 O362 1.240 . S
C355 O363 1.252 . S
C356 O359 1.252 . S
C356 O360 1.260 . S
O357 In351 2.263 1_554 S
O357 C354 1.252 . S
O358 In351 2.324 1_554 S
O358 C354 1.260 . S
O359 In351 2.266 1_554 S
O359 C356 1.252 . S
O360 In351 2.323 1_554 S
O360 C356 1.260 . S
C361 O352 1.240 . S
C361 O353 1.252 . S
O362 In351 2.297 . S
O362 C355 1.240 . S
O363 In351 2.328 . S
O363 C355 1.252 . S
In364 O365 2.297 . S
In364 O366 2.328 . S
In364 O370 2.266 1_556 S
In364 O371 2.323 1_556 S
In364 O372 2.263 1_556 S
In364 O373 2.324 1_556 S
In364 O375 2.294 . S
In364 O376 2.329 . S
O365 In364 2.297 . S
O365 C374 1.240 . S
O366 In364 2.328 . S
O366 C374 1.252 . S
C367 O370 1.252 . S
C367 O371 1.260 . S
C368 O375 1.240 . S
C368 O376 1.252 . S
C369 O372 1.252 . S
C369 O373 1.260 . S
O370 In364 2.266 1_554 S
O370 C367 1.252 . S
O371 In364 2.323 1_554 S
O371 C367 1.260 . S
O372 In364 2.263 1_554 S
O372 C369 1.252 . S
O373 In364 2.324 1_554 S
O373 C369 1.260 . S
C374 O365 1.240 . S
C374 O366 1.252 . S
O375 In364 2.294 . S
O375 C368 1.240 . S
O376 In364 2.329 . S
O376 C368 1.252 . S
In377 O378 2.297 . S
In377 O379 2.328 . S
In377 O383 2.266 1_556 S
In377 O384 2.323 1_556 S
In377 O385 2.263 1_556 S
In377 O386 2.324 1_556 S
In377 O388 2.294 . S
In377 O389 2.329 . S
O378 In377 2.297 . S
O378 C387 1.240 . S
O379 In377 2.328 . S
O379 C387 1.252 . S
C380 O383 1.252 . S
C380 O384 1.260 . S
C381 O388 1.240 . S
C381 O389 1.252 . S
C382 O385 1.252 . S
C382 O386 1.260 . S
O383 In377 2.266 1_554 S
O383 C380 1.252 . S
O384 In377 2.323 1_554 S
O384 C380 1.260 . S
O385 In377 2.263 1_554 S
O385 C382 1.252 . S
O386 In377 2.324 1_554 S
O386 C382 1.260 . S
C387 O378 1.240 . S
C387 O379 1.252 . S
O388 In377 2.294 . S
O388 C381 1.240 . S
O389 In377 2.329 . S
O389 C381 1.252 . S
In390 O391 2.294 . S
In390 O392 2.326 . S
In390 O396 2.266 . S
In390 O397 2.326 . S
In390 O398 2.266 . S
In390 O399 2.326 . S
In390 O401 2.294 . S
In390 O402 2.326 . S
O391 In390 2.294 . S
O391 C400 1.240 . S
O392 In390 2.326 . S
O392 C400 1.252 . S
C393 O396 1.252 . S
C393 O397 1.260 . S
C394 O401 1.240 . S
C394 O402 1.252 . S
C395 O398 1.252 . S
C395 O399 1.260 . S
O396 In390 2.266 . S
O396 C393 1.252 . S
O397 In390 2.326 . S
O397 C393 1.260 . S
O398 In390 2.266 . S
O398 C395 1.252 . S
O399 In390 2.326 . S
O399 C395 1.260 . S
C400 O391 1.240 . S
C400 O392 1.252 . S
O401 In390 2.294 . S
O401 C394 1.240 . S
O402 In390 2.326 . S
O402 C394 1.252 . S
In403 O404 2.294 . S
In403 O405 2.326 . S
In403 O409 2.266 . S
In403 O410 2.326 . S
In403 O411 2.266 . S
In403 O412 2.326 . S
In403 O414 2.294 . S
In403 O415 2.326 . S
O404 In403 2.294 . S
O404 C413 1.240 . S
O405 In403 2.326 . S
O405 C413 1.252 . S
C406 O409 1.252 . S
C406 O410 1.260 . S
C407 O414 1.240 . S
C407 O415 1.252 . S
C408 O411 1.252 . S
C408 O412 1.260 . S
O409 In403 2.266 . S
O409 C406 1.252 . S
O410 In403 2.326 . S
O410 C406 1.260 . S
O411 In403 2.266 . S
O411 C408 1.252 . S
O412 In403 2.326 . S
O412 C408 1.260 . S
C413 O404 1.240 . S
C413 O405 1.252 . S
O414 In403 2.294 . S
O414 C407 1.240 . S
O415 In403 2.326 . S
O415 C407 1.252 . S
In416 O417 2.294 . S
In416 O418 2.326 . S
In416 O422 2.266 . S
In416 O423 2.326 . S
In416 O424 2.266 . S
In416 O425 2.326 . S
In416 O427 2.294 . S
In416 O428 2.326 . S
O417 In416 2.294 . S
O417 C426 1.240 . S
O418 In416 2.326 . S
O418 C426 1.252 . S
C419 O422 1.252 . S
C419 O423 1.260 . S
C420 O427 1.240 . S
C420 O428 1.252 . S
C421 O424 1.252 . S
C421 O425 1.260 . S
O422 In416 2.266 . S
O422 C419 1.252 . S
O423 In416 2.326 . S
O423 C419 1.260 . S
O424 In416 2.266 . S
O424 C421 1.252 . S
O425 In416 2.326 . S
O425 C421 1.260 . S
C426 O417 1.240 . S
C426 O418 1.252 . S
O427 In416 2.294 . S
O427 C420 1.240 . S
O428 In416 2.326 . S
O428 C420 1.252 . S
In429 O430 2.294 . S
In429 O431 2.326 . S
In429 O435 2.266 . S
In429 O436 2.326 . S
In429 O437 2.266 . S
In429 O438 2.326 . S
In429 O440 2.294 . S
In429 O441 2.326 . S
O430 In429 2.294 . S
O430 C439 1.240 . S
O431 In429 2.326 . S
O431 C439 1.252 . S
C432 O435 1.252 . S
C432 O436 1.260 . S
C433 O440 1.240 . S
C433 O441 1.252 . S
C434 O437 1.252 . S
C434 O438 1.260 . S
O435 In429 2.266 . S
O435 C432 1.252 . S
O436 In429 2.326 . S
O436 C432 1.260 . S
O437 In429 2.266 . S
O437 C434 1.252 . S
O438 In429 2.326 . S
O438 C434 1.260 . S
C439 O430 1.240 . S
C439 O431 1.252 . S
O440 In429 2.294 . S
O440 C433 1.240 . S
O441 In429 2.326 . S
O441 C433 1.252 . S
In442 O443 2.294 . S
In442 O444 2.326 . S
In442 O448 2.266 . S
In442 O449 2.326 . S
In442 O450 2.266 . S
In442 O451 2.326 . S
In442 O453 2.294 . S
In442 O454 2.326 . S
O443 In442 2.294 . S
O443 C452 1.240 . S
O444 In442 2.326 . S
O444 C452 1.252 . S
C445 O448 1.252 . S
C445 O449 1.260 . S
C446 O453 1.240 . S
C446 O454 1.252 . S
C447 O450 1.252 . S
C447 O451 1.260 . S
O448 In442 2.266 . S
O448 C445 1.252 . S
O449 In442 2.326 . S
O449 C445 1.260 . S
O450 In442 2.266 . S
O450 C447 1.252 . S
O451 In442 2.326 . S
O451 C447 1.260 . S
C452 O443 1.240 . S
C452 O444 1.252 . S
O453 In442 2.294 . S
O453 C446 1.240 . S
O454 In442 2.326 . S
O454 C446 1.252 . S
In455 O456 2.294 . S
In455 O457 2.326 . S
In455 O461 2.266 . S
In455 O462 2.326 . S
In455 O463 2.266 . S
In455 O464 2.326 . S
In455 O466 2.294 . S
In455 O467 2.326 . S
O456 In455 2.294 . S
O456 C465 1.240 . S
O457 In455 2.326 . S
O457 C465 1.252 . S
C458 O461 1.252 . S
C458 O462 1.260 . S
C459 O466 1.240 . S
C459 O467 1.252 . S
C460 O463 1.252 . S
C460 O464 1.260 . S
O461 In455 2.266 . S
O461 C458 1.252 . S
O462 In455 2.326 . S
O462 C458 1.260 . S
O463 In455 2.266 . S
O463 C460 1.252 . S
O464 In455 2.326 . S
O464 C460 1.260 . S
C465 O456 1.240 . S
C465 O457 1.252 . S
O466 In455 2.294 . S
O466 C459 1.240 . S
O467 In455 2.326 . S
O467 C459 1.252 . S
C43 C10 1.270 . S
C56 C17 1.270 1_545 S
C69 C36 1.269 1_655 S
C88 C121 1.270 . S
C95 C140 1.270 1_545 S
C153 C114 1.269 1_455 S
C160 C205 1.273 . S
C179 C212 1.273 . S
C186 C225 1.273 . S
C244 C277 1.274 . S
C296 C251 1.275 . S
C270 C309 1.274 . S
C322 C361 1.274 . S
C335 C368 1.275 . S
C381 C342 1.274 . S
C433 C400 1.273 . S
C452 C407 1.273 . S
C465 C420 1.273 . S
C147 C3 1.810 . S
C18 C127 1.811 . S
C29 C134 1.811 . S
C101 C44 1.813 . S
C57 C108 1.812 . S
C82 C70 1.812 . S
C81 C75 1.811 . S
C96 C49 1.811 . S
C62 C107 1.811 . S
C23 C122 1.813 . S
C30 C133 1.812 . S
C146 C4 1.812 . S
C161 C303 1.806 . S
C283 C172 1.806 . S
C290 C187 1.806 . S
C198 C257 1.815 . S
C264 C213 1.815 . S
C226 C238 1.815 . S
C237 C231 1.814 . S
C252 C199 1.814 . S
C218 C263 1.814 . S
C173 C278 1.818 . S
C192 C289 1.818 . S
C302 C166 1.818 . S
C459 C315 1.814 . S
C328 C439 1.814 . S
C343 C446 1.814 . S
C354 C413 1.818 . S
C426 C369 1.818 . S
C382 C394 1.818 . S
C387 C393 1.806 . S
C355 C408 1.806 . S
C374 C421 1.806 . S
C329 C434 1.815 . S
C348 C445 1.815 . S
C316 C458 1.815 . S
C380 C5 1.713 . S
C16 C356 1.713 . S
C367 C31 1.713 . S
C42 C174 1.715 . S
C185 C55 1.715 . S
C68 C159 1.715 . S
C83 C304 1.713 . S
C276 C94 1.713 . S
C109 C291 1.713 . S
C120 C406 1.715 . S
C135 C419 1.715 . S
C395 C148 1.715 . S
C330 C200 1.719 1_455 S
C341 C211 1.719 . S
C317 C224 1.718 1_565 S
C239 C460 1.718 1_545 S
C432 C250 1.718 1_455 S
C265 C447 1.719 . S
