# Generated by pormake.
# Topology wkj, (6)-cn, num edge types: 1
# Building blocks:
#     Node 0, Type 0, BuildingBlock: NUHQIS_clean_sbu_0, # of connection points: 6
#     Node 1, Type 0, BuildingBlock: NUHQIS_clean_sbu_0, # of connection points: 6
#     Node 2, Type 0, BuildingBlock: NUHQIS_clean_sbu_0, # of connection points: 6
#     Node 3, Type 0, BuildingBlock: NUHQIS_clean_sbu_0, # of connection points: 6
#     Node 4, Type 0, BuildingBlock: NUHQIS_clean_sbu_0, # of connection points: 6
#     Node 5, Type 0, BuildingBlock: NUHQIS_clean_sbu_0, # of connection points: 6
#     Node 6, Type 0, BuildingBlock: NUHQIS_clean_sbu_0, # of connection points: 6
#     Node 7, Type 0, BuildingBlock: NUHQIS_clean_sbu_0, # of connection points: 6
#     Node 8, Type 0, BuildingBlock: NUHQIS_clean_sbu_0, # of connection points: 6
#     Node 9, Type 0, BuildingBlock: NUHQIS_clean_sbu_0, # of connection points: 6
#     Node 10, Type 0, BuildingBlock: NUHQIS_clean_sbu_0, # of connection points: 6
#     Node 11, Type 0, BuildingBlock: NUHQIS_clean_sbu_0, # of connection points: 6
#     Edge 12, Type (0, 0), BuildingBlock: XUDNAN_clean_linker_2, # of connection points: 2
#     Edge 13, Type (0, 0), BuildingBlock: XUDNAN_clean_linker_2, # of connection points: 2
#     Edge 14, Type (0, 0), BuildingBlock: XUDNAN_clean_linker_2, # of connection points: 2
#     Edge 15, Type (0, 0), BuildingBlock: XUDNAN_clean_linker_2, # of connection points: 2
#     Edge 16, Type (0, 0), BuildingBlock: XUDNAN_clean_linker_2, # of connection points: 2
#     Edge 17, Type (0, 0), BuildingBlock: XUDNAN_clean_linker_2, # of connection points: 2
#     Edge 18, Type (0, 0), BuildingBlock: XUDNAN_clean_linker_2, # of connection points: 2
#     Edge 19, Type (0, 0), BuildingBlock: XUDNAN_clean_linker_2, # of connection points: 2
#     Edge 20, Type (0, 0), BuildingBlock: XUDNAN_clean_linker_2, # of connection points: 2
#     Edge 21, Type (0, 0), BuildingBlock: XUDNAN_clean_linker_2, # of connection points: 2
#     Edge 22, Type (0, 0), BuildingBlock: XUDNAN_clean_linker_2, # of connection points: 2
#     Edge 23, Type (0, 0), BuildingBlock: XUDNAN_clean_linker_2, # of connection points: 2
#     Edge 24, Type (0, 0), BuildingBlock: XUDNAN_clean_linker_2, # of connection points: 2
#     Edge 25, Type (0, 0), BuildingBlock: XUDNAN_clean_linker_2, # of connection points: 2
#     Edge 26, Type (0, 0), BuildingBlock: XUDNAN_clean_linker_2, # of connection points: 2
#     Edge 27, Type (0, 0), BuildingBlock: XUDNAN_clean_linker_2, # of connection points: 2
#     Edge 28, Type (0, 0), BuildingBlock: XUDNAN_clean_linker_2, # of connection points: 2
#     Edge 29, Type (0, 0), BuildingBlock: XUDNAN_clean_linker_2, # of connection points: 2
#     Edge 30, Type (0, 0), BuildingBlock: XUDNAN_clean_linker_2, # of connection points: 2
#     Edge 31, Type (0, 0), BuildingBlock: XUDNAN_clean_linker_2, # of connection points: 2
#     Edge 32, Type (0, 0), BuildingBlock: XUDNAN_clean_linker_2, # of connection points: 2
#     Edge 33, Type (0, 0), BuildingBlock: XUDNAN_clean_linker_2, # of connection points: 2
#     Edge 34, Type (0, 0), BuildingBlock: XUDNAN_clean_linker_2, # of connection points: 2
#     Edge 35, Type (0, 0), BuildingBlock: XUDNAN_clean_linker_2, # of connection points: 2
#     Edge 36, Type (0, 0), BuildingBlock: XUDNAN_clean_linker_2, # of connection points: 2
#     Edge 37, Type (0, 0), BuildingBlock: XUDNAN_clean_linker_2, # of connection points: 2
#     Edge 38, Type (0, 0), BuildingBlock: XUDNAN_clean_linker_2, # of connection points: 2
#     Edge 39, Type (0, 0), BuildingBlock: XUDNAN_clean_linker_2, # of connection points: 2
#     Edge 40, Type (0, 0), BuildingBlock: XUDNAN_clean_linker_2, # of connection points: 2
#     Edge 41, Type (0, 0), BuildingBlock: XUDNAN_clean_linker_2, # of connection points: 2
#     Edge 42, Type (0, 0), BuildingBlock: XUDNAN_clean_linker_2, # of connection points: 2
#     Edge 43, Type (0, 0), BuildingBlock: XUDNAN_clean_linker_2, # of connection points: 2
#     Edge 44, Type (0, 0), BuildingBlock: XUDNAN_clean_linker_2, # of connection points: 2
#     Edge 45, Type (0, 0), BuildingBlock: XUDNAN_clean_linker_2, # of connection points: 2
#     Edge 46, Type (0, 0), BuildingBlock: XUDNAN_clean_linker_2, # of connection points: 2
#     Edge 47, Type (0, 0), BuildingBlock: XUDNAN_clean_linker_2, # of connection points: 2
# Relax obj value: 0.757
# Max RMSD: 0.176
# Mean RMSD: 0.176
data_MOF--net-wkj--node1-NUHQIS_clean_sbu_0--edge1-XUDNAN_clean_linker_2
_symmetry_space_group_name_H-M    P1
_symmetry_Int_Tables_number       1
_symmetry_cell_setting            triclinic
loop_
_symmetry_equiv_pos_as_xyz
'x, y, z'
_cell_length_a     49.511196
_cell_length_b     49.499181
_cell_length_c     30.326699
_cell_angle_alpha  90.06784
_cell_angle_beta   90.427423
_cell_angle_gamma 120.2842
loop_
_atom_site_label
_atom_site_type_symbol
_atom_site_fract_x
_atom_site_fract_y
_atom_site_fract_z
_atom_type_partial_charge
Tb0 Tb 0.50191 0.09596 0.38666 0.0
Eu1 Eu 0.57182 0.13799 0.3583 0.0
C2 C 0.5281 0.16915 0.3598 0.0
C3 C 0.51635 0.08777 0.28115 0.0
C4 C 0.41857 0.04897 0.43204 0.0
C5 C 0.39475 0.05573 0.49747 0.0
C6 C 0.42037 0.06667 0.4692 0.0
C7 C 0.39074 0.02119 0.42222 0.0
C8 C 0.36533 0.01019 0.45045 0.0
C9 C 0.36737 0.02694 0.48885 0.0
C10 C 0.44543 0.05759 0.4037 0.0
O11 O 0.52417 0.06933 0.3641 0.0
O12 O 0.56678 0.10032 0.40067 0.0
O13 O 0.57527 0.13564 0.43735 0.0
O14 O 0.52392 0.10629 0.45696 0.0
C15 C 0.5512 0.07477 0.3797 0.0
O16 O 0.61266 0.1472 0.31901 0.0
O17 O 0.61665 0.17963 0.37035 0.0
O18 O 0.55391 0.17052 0.34751 0.0
O19 O 0.50565 0.14331 0.37864 0.0
O20 O 0.49616 0.08215 0.31388 0.0
O21 O 0.54686 0.10803 0.29095 0.0
C22 C 0.55416 0.12214 0.4699 0.0
O23 O 0.45447 0.08186 0.37839 0.0
O24 O 0.46892 0.05601 0.42053 0.0
C25 C 0.64451 0.20185 0.30516 0.0
C26 C 0.66422 0.24852 0.24006 0.0
C27 C 0.66891 0.22293 0.23459 0.0
C28 C 0.65911 0.19977 0.26689 0.0
C29 C 0.64209 0.22873 0.31201 0.0
C30 C 0.65175 0.25173 0.27974 0.0
C31 C 0.62979 0.17524 0.3361 0.0
H32 H 0.39697 0.06879 0.52729 0.0
H33 H 0.44178 0.08822 0.47706 0.0
H34 H 0.38902 0.00739 0.39344 0.0
H35 H 0.34451 0.98794 0.44324 0.0
H36 H 0.6781 0.21963 0.20402 0.0
H37 H 0.6615 0.17949 0.26097 0.0
H38 H 0.63137 0.23144 0.34139 0.0
H39 H 0.64794 0.27123 0.2848 0.0
Tb40 Tb 0.36196 0.45265 0.70633 0.0
Eu41 Eu 0.39995 0.52377 0.69058 0.0
C42 C 0.32733 0.48705 0.66734 0.0
C43 C 0.4006 0.47235 0.61375 0.0
C44 C 0.31498 0.37237 0.75403 0.0
C45 C 0.275 0.32537 0.78962 0.0
C46 C 0.28396 0.34768 0.75634 0.0
C47 C 0.33707 0.37461 0.78516 0.0
C48 C 0.32823 0.35218 0.81808 0.0
C49 C 0.29713 0.32738 0.82059 0.0
C50 C 0.3238 0.39549 0.71895 0.0
O51 O 0.40293 0.46495 0.74584 0.0
O52 O 0.43598 0.51383 0.71877 0.0
O53 O 0.40051 0.52497 0.76828 0.0
O54 O 0.36579 0.47284 0.77738 0.0
C55 C 0.42974 0.49129 0.74677 0.0
O56 O 0.42539 0.56212 0.64421 0.0
O57 O 0.41931 0.57236 0.71122 0.0
O58 O 0.34891 0.5124 0.68709 0.0
O59 O 0.3331 0.46408 0.66222 0.0
O60 O 0.38736 0.45076 0.64502 0.0
O61 O 0.40451 0.5007 0.62328 0.0
C62 C 0.38439 0.50146 0.79593 0.0
O63 O 0.31723 0.4176 0.72571 0.0
O64 O 0.3516 0.4062 0.70228 0.0
C65 C 0.41382 0.60223 0.65508 0.0
C66 C 0.37845 0.62438 0.61124 0.0
C67 C 0.40609 0.62795 0.59251 0.0
C68 C 0.42361 0.6171 0.61434 0.0
C69 C 0.38828 0.60169 0.67609 0.0
C70 C 0.37094 0.61295 0.6545 0.0
C71 C 0.42701 0.58326 0.6715 0.0
H72 H 0.25089 0.30657 0.79114 0.0
H73 H 0.26665 0.34576 0.7325 0.0
H74 H 0.36107 0.39374 0.78416 0.0
H75 H 0.34558 0.35465 0.84225 0.0
H76 H 0.41274 0.63624 0.55913 0.0
H77 H 0.4433 0.61793 0.59766 0.0
H78 H 0.38029 0.5906 0.70785 0.0
H79 H 0.35023 0.6104 0.67029 0.0
Tb80 Tb 0.92014 0.40993 1.05059 0.0
Eu81 Eu 0.86496 0.41863 1.02719 0.0
C82 C 0.85046 0.34858 1.02595 0.0
C83 C 0.92351 0.43031 0.94836 0.0
C84 C 0.97528 0.3865 1.10154 0.0
C85 C 0.97478 0.33868 1.12212 0.0
C86 C 0.96489 0.3546 1.09431 0.0
C87 C -0.00396 0.40222 0.13649 0.0
C88 C 0.00579 0.38635 0.16428 0.0
C89 C 0.99535 0.35441 0.15742 0.0
C90 C 0.96649 0.40427 1.07153 0.0
O91 O 0.93271 0.45885 1.0345 0.0
O92 O 0.89377 0.45689 1.07162 0.0
O93 O 0.86778 0.42518 1.10683 0.0
O94 O 0.90524 0.41253 1.12155 0.0
C95 C 0.9205 0.47373 1.0548 0.0
O96 O 0.84806 0.44456 0.98851 0.0
O97 O 0.81674 0.40754 1.03228 0.0
O98 O 0.83882 0.36688 1.02632 0.0
O99 O 0.88105 0.36052 1.03348 0.0
O100 O 0.93769 0.42476 0.98133 0.0
O101 O 0.89566 0.42816 0.95877 0.0
C102 C 0.88544 0.4212 0.13742 0.0
O103 O 0.94683 0.38866 1.03977 0.0
O104 O 0.96077 0.42493 1.08919 0.0
C105 C 0.7958 0.40971 0.96362 0.0
C106 C 0.75919 0.36904 0.89524 0.0
C107 C 0.78618 0.39758 0.88557 0.0
C108 C 0.80435 0.41783 0.91946 0.0
C109 C 0.7668 0.38278 0.97275 0.0
C110 C 0.74872 0.36242 0.93872 0.0
C111 C 0.8189 0.42567 0.99966 0.0
H112 H 0.96632 0.31411 1.11605 0.0
H113 H 0.94918 0.3419 1.06718 0.0
H114 H 0.00468 0.42685 0.14249 0.0
H115 H 0.02095 0.39905 0.19189 0.0
H116 H 0.79464 0.40293 0.85203 0.0
H117 H 0.82625 0.43853 0.91116 0.0
H118 H 0.75932 0.37612 1.00645 0.0
H119 H 0.72788 0.34053 0.94666 0.0
Tb120 Tb 0.53651 0.89534 0.38103 0.0
Eu121 Eu 0.46722 0.87739 0.35516 0.0
C122 C 0.49105 0.82572 0.34481 0.0
C123 C 0.5224 0.91048 0.27598 0.0
C124 C 0.61988 0.93375 0.42401 0.0
C125 C 0.67489 0.95605 0.44187 0.0
C126 C 0.64873 0.93577 0.4166 0.0
C127 C 0.61734 0.95259 0.45617 0.0
C128 C 0.6435 0.97299 0.48135 0.0
C129 C 0.67248 0.97472 0.47466 0.0
C130 C 0.59309 0.91241 0.39682 0.0
O131 O 0.5267 0.93114 0.39975 0.0
O132 O 0.49576 0.92965 0.34588 0.0
O133 O 0.46857 0.88572 0.43341 0.0
O134 O 0.51472 0.88805 0.45065 0.0
C135 C 0.5218 0.94578 0.36817 0.0
O136 O 0.42857 0.86637 0.30972 0.0
O137 O 0.42034 0.86297 0.37961 0.0
O138 O 0.4674 0.83099 0.34315 0.0
O139 O 0.51861 0.84761 0.35867 0.0
O140 O 0.54149 0.91015 0.30774 0.0
O141 O 0.49225 0.89854 0.2866 0.0
C142 C 0.4885 0.88733 0.46492 0.0
O143 O 0.5696 0.88908 0.41655 0.0
O144 O 0.58388 0.92551 0.36795 0.0
C145 C 0.38445 0.82139 0.334 0.0
C146 C 0.36406 0.76331 0.29367 0.0
C147 C 0.35387 0.7833 0.27744 0.0
C148 C 0.36427 0.81243 0.29739 0.0
C149 C 0.3895 0.79891 0.35488 0.0
C150 C 0.37931 0.76994 0.33476 0.0
C151 C 0.40763 0.85474 0.34052 0.0
H152 H 0.69689 0.95692 0.43615 0.0
H153 H 0.65096 0.92145 0.39147 0.0
H154 H 0.59514 0.95123 0.46212 0.0
H155 H 0.64077 0.98659 0.5071 0.0
H156 H 0.34216 0.77872 0.24567 0.0
H157 H 0.3601 0.82937 0.28077 0.0
H158 H 0.40493 0.80514 0.3833 0.0
H159 H 0.38733 0.75482 0.34785 0.0
Tb160 Tb 0.58817 0.49552 0.70777 0.0
Eu161 Eu 0.54056 0.42332 0.68807 0.0
C162 C 0.61674 0.4545 0.66973 0.0
C163 C 0.54909 0.47821 0.61199 0.0
C164 C 0.63614 0.57749 0.7551 0.0
C165 C 0.67019 0.63176 0.77633 0.0
C166 C 0.65949 0.60804 0.7446 0.0
C167 C 0.62352 0.57061 0.79748 0.0
C168 C 0.63398 0.59433 0.82902 0.0
C169 C 0.65729 0.62495 0.81851 0.0
C170 C 0.62579 0.55316 0.72148 0.0
O171 O 0.54064 0.48568 0.71031 0.0
O172 O 0.51413 0.43666 0.7345 0.0
O173 O 0.545 0.42339 0.76503 0.0
O174 O 0.5783 0.47539 0.77984 0.0
C175 C 0.52115 0.46569 0.73842 0.0
O176 O 0.50204 0.38529 0.65076 0.0
O177 O 0.52466 0.37476 0.70357 0.0
O178 O 0.58879 0.42922 0.67245 0.0
O179 O 0.62034 0.48208 0.67868 0.0
O180 O 0.5743 0.49832 0.63599 0.0
O181 O 0.53174 0.4492 0.62807 0.0
C182 C 0.5599 0.4459 0.79521 0.0
O183 O 0.63242 0.53125 0.72868 0.0
O184 O 0.59745 0.54186 0.70644 0.0
C185 C 0.50937 0.3422 0.6422 0.0
C186 C 0.51736 0.30441 0.58038 0.0
C187 C 0.48895 0.29276 0.60327 0.0
C188 C 0.48494 0.31167 0.63384 0.0
C189 C 0.53846 0.35276 0.62269 0.0
C190 C 0.54251 0.33411 0.5924 0.0
C191 C 0.50503 0.36355 0.67067 0.0
H192 H 0.68825 0.65528 0.76799 0.0
H193 H 0.6695 0.61349 0.7119 0.0
H194 H 0.60581 0.54702 0.80613 0.0
H195 H 0.62412 0.5888 0.86179 0.0
H196 H 0.46922 0.26989 0.59543 0.0
H197 H 0.46248 0.30297 0.64953 0.0
H198 H 0.55773 0.37613 0.62924 0.0
H199 H 0.56473 0.34451 0.57569 0.0
Tb200 Tb 0.09614 0.64727 1.04535 0.0
Eu201 Eu 0.10809 0.59268 1.01923 0.0
C202 C 0.16305 0.66741 1.00466 0.0
C203 C 0.07043 0.61295 0.94343 0.0
C204 C 0.06623 0.69451 1.10014 0.0
C205 C 0.04507 0.72566 0.12895 0.0
C206 C 0.06321 0.72115 1.09803 0.0
C207 C 0.05151 0.67263 0.13369 0.0
C208 C 0.03312 0.67691 0.16423 0.0
C209 C 0.02948 0.70328 0.1618 0.0
C210 C 0.08317 0.68885 1.06566 0.0
O211 O 0.061 0.60374 1.07127 0.0
O212 O 0.05583 0.57263 1.01596 0.0
O213 O 0.10525 0.58785 1.09794 0.0
O214 O 0.10702 0.63375 1.11445 0.0
C215 C 0.0428 0.58345 1.0424 0.0
O216 O 0.11931 0.56707 0.97147 0.0
O217 O 0.11337 0.55318 1.03983 0.0
O218 O 0.15653 0.638 1.00782 0.0
O219 O 0.14171 0.67453 1.01461 0.0
O220 O 0.07465 0.63465 0.97425 0.0
O221 O 0.08176 0.59416 0.95374 0.0
C222 C 0.10676 0.6077 0.12925 0.0
O223 O 0.10895 0.68969 1.07766 0.0
O224 O 0.06593 0.66509 1.03993 0.0
C225 C 0.15399 0.55274 0.99966 0.0
C226 C 0.21602 0.57315 0.97467 0.0
C227 C 0.19058 0.54767 0.95292 0.0
C228 C 0.1599 0.53759 0.96539 0.0
C229 C 0.17913 0.5754 1.02503 0.0
C230 C 0.20994 0.58522 1.01298 0.0
C231 C 0.12326 0.55044 1.00128 0.0
H232 H 0.04264 0.74617 1.12664 0.0
H233 H 0.07448 0.73817 1.07209 0.0
H234 H 0.05389 0.65207 0.13583 0.0
H235 H 0.02179 0.65965 0.18988 0.0
H236 H 0.19381 0.53765 0.92309 0.0
H237 H 0.14081 0.52018 0.94532 0.0
H238 H 0.17508 0.58747 1.05171 0.0
H239 H 0.22884 0.60428 1.03122 0.0
Tb240 Tb 0.89133 0.5395 0.55418 0.0
Eu241 Eu 0.8936 0.47957 0.58227 0.0
C242 C 0.82903 0.48485 0.5955 0.0
C243 C 0.92689 0.53923 0.6534 0.0
C244 C 0.90278 0.61218 0.49665 0.0
C245 C 0.88858 0.62953 0.43007 0.0
C246 C 0.88018 0.60897 0.46548 0.0
C247 C 0.93352 0.6374 0.49314 0.0
C248 C 0.94191 0.65794 0.45772 0.0
C249 C 0.91965 0.65382 0.42538 0.0
C250 C 0.89395 0.59016 0.53371 0.0
O251 O 0.92703 0.53708 0.52018 0.0
O252 O 0.94323 0.52145 0.57677 0.0
O253 O 0.89057 0.47391 0.5051 0.0
O254 O 0.88249 0.51385 0.4852 0.0
C255 C 0.9498 0.54206 0.54562 0.0
O256 O 0.89051 0.44598 0.631 0.0
O257 O 0.89852 0.43961 0.56282 0.0
O258 O 0.84195 0.46697 0.59499 0.0
O259 O 0.84542 0.5141 0.58381 0.0
O260 O 0.91689 0.55306 0.62371 0.0
O261 O 0.92015 0.51024 0.64394 0.0
C262 C 0.88515 0.48882 0.47266 0.0
O263 O 0.86915 0.56258 0.52819 0.0
O264 O 0.91642 0.58855 0.55405 0.0
C265 C 0.86421 0.39505 0.60409 0.0
C266 C 0.81144 0.34049 0.63539 0.0
C267 C 0.84125 0.34318 0.63568 0.0
C268 C 0.86757 0.37062 0.62109 0.0
C269 C 0.83419 0.3904 0.59709 0.0
C270 C 0.80809 0.36358 0.61281 0.0
C271 C 0.89114 0.42695 0.60182 0.0
H272 H 0.87094 0.626 0.40574 0.0
H273 H 0.85609 0.59028 0.46803 0.0
H274 H 0.95127 0.64097 0.51728 0.0
H275 H 0.96615 0.67619 0.45466 0.0
H276 H 0.84482 0.32537 0.65062 0.0
H277 H 0.89062 0.37363 0.62606 0.0
H278 H 0.83113 0.40887 0.58336 0.0
H279 H 0.78599 0.363 0.61114 0.0
Tb280 Tb 0.406 0.92979 0.88188 0.0
Eu281 Eu 0.44392 0.89738 0.91412 0.0
C282 C 0.36717 0.85872 0.9158 0.0
C283 C 0.44287 0.95256 0.98129 0.0
C284 C 0.35025 0.95318 0.83485 0.0
C285 C 0.30971 0.9233 0.78059 0.0
C286 C 0.33023 0.92467 0.81366 0.0
C287 C 0.348 0.97958 0.82524 0.0
C288 C 0.32785 0.97835 0.79205 0.0
C289 C 0.30949 0.95057 0.76782 0.0
C290 C 0.37599 0.95713 0.86322 0.0
O291 O 0.45542 0.96199 0.88881 0.0
O292 O 0.47783 0.93491 0.86975 0.0
O293 O 0.44076 0.89007 0.83591 0.0
O294 O 0.4151 0.91526 0.81281 0.0
C295 C 0.4747 0.95908 0.86307 0.0
O296 O 0.47502 0.89046 0.95869 0.0
O297 O 0.45365 0.85989 0.90248 0.0
O298 O 0.39299 0.8627 0.93465 0.0
O299 O 0.36892 0.88038 0.8888 0.0
O300 O 0.42009 0.94943 0.95328 0.0
O301 O 0.45651 0.93577 0.97118 0.0
C302 C 0.42997 0.89961 0.80198 0.0
O303 O 0.36896 0.93759 0.89579 0.0
O304 O 0.40094 0.96174 0.84271 0.0
C305 C 0.45839 0.83687 0.96648 0.0
C306 C 0.43638 0.78425 1.02126 0.0
C307 C 0.46836 0.80203 1.01075 0.0
C308 C 0.47929 0.82823 0.98353 0.0
C309 C 0.42638 0.81836 0.97522 0.0
C310 C 0.41545 0.79232 1.00226 0.0
C311 C 0.4695 0.8647 0.9389 0.0
H312 H 0.29557 0.90143 0.76308 0.0
H313 H 0.33164 0.904 0.82101 0.0
H314 H 0.36336 0.00175 0.84144 0.0
H315 H 0.32886 -1e-05 0.78301 0.0
H316 H 0.48502 0.79635 1.02492 0.0
H317 H 0.50405 0.84207 0.97655 0.0
H318 H 0.40981 0.82442 0.96193 0.0
H319 H 0.39082 0.77971 1.01031 0.0
Tb320 Tb 0.45577 0.36688 0.22558 0.0
Eu321 Eu 0.52388 0.42533 0.23792 0.0
C322 C 0.50572 0.3526 0.26625 0.0
C323 C 0.46837 0.40889 0.31694 0.0
C324 C 0.38066 0.30875 0.17132 0.0
C325 C 0.32886 0.27458 0.1408 0.0
C326 C 0.34898 0.28666 0.17724 0.0
C327 C 0.39222 0.3185 0.12879 0.0
C328 C 0.37219 0.30665 1.09249 0.0
C329 C 0.34029 0.28449 1.09805 0.0
C330 C 0.40155 0.32122 0.20957 0.0
O331 O 0.45598 0.41 0.21798 0.0
O332 O 0.50173 0.44185 0.18743 0.0
O333 O 0.52552 0.42068 0.16132 0.0
O334 O 0.47755 0.37594 0.15435 0.0
C335 C 0.47128 0.42821 0.18552 0.0
O336 O 0.55612 0.46918 0.2721 0.0
O337 O 0.57418 0.44812 0.2279 0.0
O338 O 0.52732 0.38148 0.25567 0.0
O339 O 0.4762 0.34403 0.26281 0.0
O340 O 0.45124 0.38115 0.29635 0.0
O341 O 0.49508 0.42966 0.29742 0.0
C342 C 0.50421 0.3986 0.13496 0.0
O343 O 0.4271 0.31991 0.20725 0.0
O344 O 0.40702 0.34816 0.2245 0.0
C345 C 0.59772 0.46237 0.2979 0.0
C346 C 0.59562 0.41953 0.35946 0.0
C347 C 0.58726 0.44161 0.37202 0.0
C348 C 0.58873 0.46335 0.34147 0.0
C349 C 0.61307 0.44546 0.28928 0.0
C350 C 0.61156 0.42365 0.31986 0.0
C351 C 0.58054 0.4671 0.26124 0.0
H352 H 0.30443 0.25757 0.14603 0.0
H353 H 0.33983 0.27884 0.21002 0.0
H354 H 0.41666 0.33553 1.1237 0.0
H355 H 0.38161 0.31547 1.06014 0.0
H356 H 0.57552 0.43917 0.40303 0.0
H357 H 0.57814 0.47718 0.34988 0.0
H358 H 0.6214 0.4451 0.25647 0.0
H359 H 0.61865 0.40713 0.30987 0.0
Tb360 Tb 0.06782 0.48542 0.54369 0.0
Eu361 Eu 0.1187 0.54708 0.5812 0.0
C362 C 0.13364 0.49397 0.57819 0.0
C363 C 0.05662 0.49887 0.64843 0.0
C364 C 0.02838 0.40568 0.4946 0.0
C365 C 0.05638 0.38315 0.4592 0.0
C366 C 0.05628 0.40557 0.4871 0.0
C367 C 0.00045 0.38244 0.47552 0.0
C368 C 0.00054 0.36017 0.44741 0.0
C369 C 0.02864 0.36071 0.43801 0.0
C370 C 0.02813 0.43011 0.52162 0.0
O371 O 0.04952 0.51803 0.55207 0.0
O372 O 0.09474 0.56165 0.53653 0.0
O373 O 0.12141 0.55287 0.50023 0.0
O374 O 0.08009 0.50725 0.4751 0.0
C375 C 0.06491 0.54719 0.53792 0.0
O376 O 0.13969 0.59053 0.61946 0.0
O377 O 0.16872 0.57898 0.57885 0.0
O378 O 0.1327 0.51351 0.60532 0.0
O379 O 0.11321 0.4842 0.54492 0.0
O380 O 0.04839 0.47958 0.61361 0.0
O381 O 0.08201 0.52758 0.6424 0.0
C382 C 0.1034 0.53579 0.46513 0.0
O383 O 0.04503 0.43761 0.55757 0.0
O384 O 0.03166 0.45471 0.50071 0.0
C385 C 0.19087 0.60568 0.64435 0.0
C386 C 0.23669 0.61833 0.70935 0.0
C387 C 0.24172 0.64082 0.67722 0.0
C388 C 0.21897 0.63445 0.6448 0.0
C389 C 0.18581 0.58316 0.67613 0.0
C390 C 0.20841 0.58945 0.70842 0.0
C391 C 0.1682 0.59796 0.6084 0.0
H392 H 0.07835 0.38414 0.4528 0.0
H393 H 0.0781 0.42329 0.5019 0.0
H394 H 0.97872 0.38215 0.48117 0.0
H395 H 0.97884 0.34374 0.43101 0.0
H396 H 0.2632 0.66326 0.67716 0.0
H397 H 0.2234 0.65186 0.6199 0.0
H398 H 0.16438 0.56066 0.67585 0.0
H399 H 0.20336 0.57186 0.73326 0.0
Tb400 Tb 0.63382 0.07134 0.8856 0.0
Eu401 Eu 0.59044 0.09802 0.91102 0.0
C402 C 0.66656 0.14084 0.92858 0.0
C403 C 0.59161 0.04283 0.97853 0.0
C404 C 0.6847 0.04834 0.82734 0.0
C405 C 0.72815 0.04846 0.79076 0.0
C406 C 0.71313 0.04863 0.82946 0.0
C407 C 0.67115 0.04758 0.78638 0.0
C408 C 0.68603 0.04731 0.74777 0.0
C409 C 0.71491 0.0482 0.74953 0.0
C410 C 0.67145 0.05274 0.86762 0.0
O411 O 0.59613 0.04745 0.83852 0.0
O412 O 0.55917 0.05362 0.87392 0.0
O413 O 0.59754 0.11104 0.83462 0.0
O414 O 0.6306 0.09266 0.81855 0.0
C415 C 0.56839 0.04452 0.83942 0.0
O416 O 0.56686 0.10938 0.9621 0.0
O417 O 0.56081 0.11754 0.89386 0.0
O418 O 0.6395 0.13997 0.92775 0.0
O419 O 0.66785 0.11612 0.91613 0.0
O420 O 0.61339 0.0449 0.95046 0.0
O421 O 0.57914 0.06078 0.96915 0.0
C422 C 0.61374 0.10571 0.80407 0.0
O423 O 0.67975 0.08176 0.87554 0.0
O424 O 0.64159 0.03389 0.87396 0.0
C425 C 0.56467 0.15462 0.94667 0.0
C426 C 0.59034 0.21585 0.98087 0.0
C427 C 0.59823 0.21089 0.93833 0.0
C428 C 0.58576 0.18052 0.92155 0.0
C429 C 0.5544 0.15966 0.98704 0.0
C430 C 0.56716 0.18986 1.0041 0.0
C431 C 0.55671 0.12258 0.93471 0.0
H432 H 0.75029 0.04907 0.79304 0.0
H433 H 0.72405 0.04974 0.86103 0.0
H434 H 0.64937 0.04774 0.78425 0.0
H435 H 0.67478 0.04621 0.71652 0.0
H436 H 0.61554 0.23026 0.91914 0.0
H437 H 0.59403 0.17729 0.89012 0.0
H438 H 0.5382 0.14002 1.00696 0.0
H439 H 0.56065 0.19226 1.03723 0.0
Tb440 Tb 0.49585 0.57456 0.21703 0.0
Eu441 Eu 0.42536 0.54373 0.24514 0.0
C442 C 0.46848 0.61885 0.2529 0.0
C443 C 0.47835 0.54278 0.31733 0.0
C444 C 0.57515 0.61741 0.16514 0.0
C445 C 0.6258 0.65707 0.13825 0.0
C446 C 0.60595 0.64139 0.17328 0.0
C447 C 0.56431 0.60882 1.12178 0.0
C448 C 0.58414 0.62437 1.08676 0.0
C449 C 0.61495 0.64897 1.09465 0.0
C450 C 0.55393 0.6041 0.20219 0.0
O451 O 0.47433 0.53194 0.17864 0.0
O452 O 0.42865 0.50387 0.21631 0.0
O453 O 0.42281 0.54674 0.16697 0.0
O454 O 0.47436 0.57068 0.14722 0.0
C455 C 0.44679 0.50682 0.1833 0.0
O456 O 0.38626 0.51447 0.2888 0.0
O457 O 0.37832 0.53404 0.2299 0.0
O458 O 0.44102 0.59447 0.26066 0.0
O459 O 0.49083 0.61511 0.23579 0.0
O460 O 0.49812 0.55355 0.2835 0.0
O461 O 0.45018 0.53983 0.31054 0.0
C462 C 0.44403 0.55723 0.13457 0.0
O463 O 0.53738 0.61722 0.21001 0.0
O464 O 0.53724 0.57372 0.20469 0.0
C465 C 0.34894 0.53092 0.29253 0.0
C466 C 0.3207 0.55519 0.34804 0.0
C467 C 0.3173 0.52563 0.35625 0.0
C468 C 0.33123 0.5136 0.32866 0.0
C469 C 0.35083 0.55961 0.28275 0.0
C470 C 0.33669 0.57151 0.31009 0.0
C471 C 0.36662 0.51973 0.26687 0.0
H472 H 0.64938 0.67586 0.14522 0.0
H473 H 0.61441 0.64847 0.20677 0.0
H474 H 0.54045 0.59049 1.11509 0.0
H475 H 0.57537 0.61702 1.05346 0.0
H476 H 0.30562 0.51262 0.38555 0.0
H477 H 0.32933 0.49138 0.33668 0.0
H478 H 0.36418 0.57349 0.25492 0.0
H479 H 0.33951 0.59418 0.30262 0.0
H480 H 0.47738 0.18124 0.34403 0.0
H481 H 0.57849 0.2274 0.35759 0.0
H482 H 0.58328 0.2769 0.33498 0.0
H483 H 0.47665 0.22507 0.24915 0.0
H484 H 0.44402 0.22897 0.26646 0.0
H485 H 0.44733 0.19609 0.28464 0.0
H486 H 0.44407 0.21025 0.36529 0.0
H487 H 0.44144 0.24374 0.34818 0.0
H488 H 0.4718 0.24857 0.38607 0.0
H489 H 0.57899 0.32213 0.30572 0.0
H490 H 0.56454 0.36024 0.27855 0.0
H491 H 0.46642 0.28935 0.28823 0.0
C492 C 0.50044 0.20186 0.34328 0.0
C493 C 0.52755 0.1995 0.35271 0.0
C494 C 0.55715 0.22762 0.35035 0.0
C495 C 0.56029 0.25631 0.33748 0.0
C496 C 0.53362 0.25778 0.3275 0.0
C497 C 0.50414 0.23152 0.33081 0.0
C498 C 0.47958 0.24035 0.31773 0.0
C499 C 0.46077 0.22149 0.27708 0.0
C500 C 0.45791 0.23544 0.35662 0.0
C501 C 0.49994 0.27528 0.30668 0.0
C502 C 0.5311 0.2846 0.31212 0.0
C503 C 0.55456 0.31511 0.30192 0.0
C504 C 0.54612 0.33679 0.28636 0.0
C505 C 0.51434 0.32859 0.28184 0.0
C506 C 0.49102 0.297 0.29194 0.0
H507 H 0.29421 0.51762 0.69174 0.0
H508 H 0.29189 0.45045 0.59777 0.0
H509 H 0.24352 0.44469 0.56456 0.0
H510 H 0.20948 0.47547 0.70781 0.0
H511 H 0.20725 0.51046 0.71482 0.0
H512 H 0.24262 0.51055 0.72955 0.0
H513 H 0.27477 0.55773 0.67642 0.0
H514 H 0.23878 0.55736 0.66528 0.0
H515 H 0.26066 0.55458 0.62045 0.0
H516 H 0.19387 0.44697 0.53928 0.0
H517 H 0.14869 0.45531 0.52881 0.0
H518 H 0.18076 0.51796 0.6418 0.0
C519 C 0.28372 0.5019 0.66391 0.0
C520 C 0.29767 0.48472 0.64742 0.0
C521 C 0.28228 0.46401 0.61138 0.0
C522 C 0.25455 0.4606 0.59205 0.0
C523 C 0.24135 0.47757 0.60912 0.0
C524 C 0.25536 0.49765 0.64466 0.0
C525 C 0.23525 0.51165 0.65847 0.0
C526 C 0.22291 0.50141 0.70545 0.0
C527 C 0.25354 0.54748 0.65501 0.0
C528 C 0.20853 0.49722 0.62446 0.0
C529 C 0.21238 0.47761 0.59615 0.0
C530 C 0.19078 0.46224 0.56161 0.0
C531 C 0.16495 0.46708 0.55577 0.0
C532 C 0.16038 0.48716 0.58427 0.0
C533 C 0.18285 0.5022 0.61917 0.0
H534 H 0.78578 0.31897 1.01673 0.0
H535 H 0.8618 0.2997 1.00621 0.0
H536 H 0.82361 0.24562 0.98108 0.0
H537 H 0.72699 0.24115 1.05641 0.0
H538 H 0.69565 0.2419 1.02693 0.0
H539 H 0.72934 0.27798 1.04536 0.0
H540 H 0.73738 0.29836 0.9651 0.0
H541 H 0.70445 0.26202 0.94632 0.0
H542 H 0.74227 0.27627 0.92178 0.0
H543 H 0.77562 0.19272 0.95455 0.0
H544 H 0.72514 0.14771 0.93187 0.0
H545 H 0.67912 0.20074 0.95944 0.0
C546 C 0.79469 0.30348 1.00957 0.0
C547 C 0.82748 0.3143 1.01401 0.0
C548 C 0.83726 0.29258 1.00378 0.0
C549 C 0.81552 0.26164 0.98918 0.0
C550 C 0.78362 0.25212 0.98485 0.0
C551 C 0.7733 0.27251 0.99512 0.0
C552 C 0.73783 0.25671 0.98789 0.0
C553 C 0.72144 0.25429 1.03174 0.0
C554 C 0.73001 0.27439 0.95319 0.0
C555 C 0.72952 0.22427 0.97106 0.0
C556 C 0.75635 0.22212 0.96982 0.0
C557 C 0.75472 0.19449 0.95566 0.0
C558 C 0.7255 0.16873 0.9427 0.0
C559 C 0.69727 0.16984 0.94349 0.0
C560 C 0.69974 0.19848 0.95811 0.0
H561 H 0.42967 0.63993 0.2904 0.0
H562 H 0.52308 0.67381 0.23947 0.0
H563 H 0.53649 0.72775 0.25585 0.0
H564 H 0.41977 0.70386 0.25049 0.0
H565 H 0.4007 0.70694 0.29913 0.0
H566 H 0.39705 0.67004 0.28404 0.0
H567 H 0.41767 0.66593 0.35872 0.0
H568 H 0.42122 0.70252 0.3761 0.0
H569 H 0.4545 0.69703 0.3798 0.0
H570 H 0.54145 0.7782 0.27833 0.0
H571 H 0.53798 0.82293 0.30507 0.0
H572 H 0.44153 0.76086 0.34321 0.0
C573 C 0.45292 0.6587 0.28246 0.0
C574 C 0.47524 0.65189 0.2633 0.0
C575 C 0.50534 0.67763 0.25393 0.0
C576 C 0.51328 0.70868 0.26315 0.0
C577 C 0.49105 0.7145 0.28194 0.0
C578 C 0.4614 0.6904 0.29147 0.0
C579 C 0.44254 0.7039 0.31268 0.0
C580 C 0.41331 0.69576 0.2849 0.0
C581 C 0.43346 0.69166 0.35977 0.0
C582 C 0.46608 0.73927 0.3129 0.0
C583 C 0.49395 0.74437 0.29524 0.0
C584 C 0.51975 0.77439 0.29229 0.0
C585 C 0.51745 0.79988 0.30785 0.0
C586 C 0.48954 0.79618 0.32662 0.0
C587 C 0.46321 0.76503 0.32878 0.0
H588 H 0.67825 0.50235 0.65326 0.0
H589 H 0.62146 0.40126 0.65824 0.0
H590 H 0.66825 0.39723 0.64163 0.0
H591 H 0.72719 0.50524 0.56215 0.0
H592 H 0.76198 0.53865 0.584 0.0
H593 H 0.72406 0.53327 0.5965 0.0
H594 H 0.7366 0.53595 0.67988 0.0
H595 H 0.77449 0.54119 0.66762 0.0
H596 H 0.74811 0.50961 0.70273 0.0
H597 H 0.72444 0.40495 0.62588 0.0
H598 H 0.78011 0.42335 0.60871 0.0
H599 H 0.79955 0.5191 0.61157 0.0
C600 C 0.67544 0.47925 0.65078 0.0
C601 C 0.64546 0.45209 0.65741 0.0
C602 C 0.64362 0.42256 0.65349 0.0
C603 C 0.67036 0.42003 0.64409 0.0
C604 C 0.69946 0.44722 0.63813 0.0
C605 C 0.70195 0.4763 0.64098 0.0
C606 C 0.73566 0.50203 0.63248 0.0
C607 C 0.73731 0.52091 0.59134 0.0
C608 C 0.74953 0.52346 0.6731 0.0
C609 C 0.7519 0.48313 0.62463 0.0
C610 C 0.73078 0.4515 0.62825 0.0
C611 C 0.74087 0.42975 0.62285 0.0
C612 C 0.77282 0.44044 0.61317 0.0
C613 C 0.79495 0.4728 0.60845 0.0
C614 C 0.78377 0.49415 0.61461 0.0
H615 H 0.34818 0.80561 0.9728 0.0
H616 H 0.31157 0.84448 0.877 0.0
H617 H 0.25892 0.79959 0.88708 0.0
H618 H 0.2949 0.72241 0.94123 0.0
H619 H 0.28915 0.70776 0.99678 0.0
H620 H 0.32519 0.74251 0.98225 0.0
H621 H 0.31719 0.77334 1.04441 0.0
H622 H 0.28125 0.73871 1.05941 0.0
H623 H 0.28126 0.77424 1.04642 0.0
H624 H 0.20912 0.75166 0.90744 0.0
H625 H 0.16496 0.7044 0.93868 0.0
H626 H 0.22893 0.69192 1.02309 0.0
C627 C 0.32913 0.80465 0.95376 0.0
C628 C 0.33498 0.82948 0.92372 0.0
C629 C 0.30871 0.82656 0.90007 0.0
C630 C 0.27829 0.8008 0.90554 0.0
C631 C 0.27337 0.77711 0.93499 0.0
C632 C 0.29793 0.77857 0.95891 0.0
C633 C 0.28515 0.74959 0.989 0.0
C634 C 0.29946 0.72938 0.97659 0.0
C635 C 0.29161 0.75957 1.03771 0.0
C636 C 0.24973 0.73216 0.97865 0.0
C637 C 0.24393 0.74873 0.94699 0.0
C638 C 0.21353 0.73852 0.93208 0.0
C639 C 0.18837 0.71132 0.95014 0.0
C640 C 0.19272 0.69352 0.98319 0.0
C641 C 0.22432 0.70418 0.99729 0.0
H642 H 0.57257 0.24335 1.04404 0.0
H643 H 0.65371 0.25582 0.97341 0.0
H644 H 0.68768 0.28946 1.03248 0.0
H645 H 0.62029 0.321 1.12164 0.0
H646 H 0.59512 0.29878 0.16636 0.0
H647 H 0.57948 0.29365 1.11108 0.0
H648 H 0.55834 0.2342 1.11677 0.0
H649 H 0.57398 0.23916 0.17117 0.0
H650 H 0.58509 0.22053 0.12964 0.0
H651 H 0.70809 0.2943 1.10637 0.0
H652 H 0.7123 0.27712 0.18098 0.0
H653 H 0.62005 0.26081 0.21096 0.0
C654 C 0.59764 0.25428 1.04049 0.0
C655 C 0.61022 0.24596 1.00485 0.0
C656 C 0.64312 0.26143 1.00031 0.0
C657 C 0.6628 0.28053 1.03424 0.0
C658 C 0.64935 0.28373 1.07267 0.0
C659 C 0.61738 0.2721 1.07535 0.0
C660 C 0.60766 0.27164 1.12279 0.0
C661 C 0.60022 0.29784 0.13094 0.0
C662 C 0.57971 0.23947 0.13579 0.0
C663 C 0.6376 0.27878 0.14648 0.0
C664 C 0.66195 0.28762 1.11714 0.0
C665 C 0.68969 0.2887 0.12984 0.0
C666 C 0.69189 0.2787 0.17225 0.0
C667 C 0.66655 0.26794 0.20158 0.0
C668 C 0.64006 0.26993 0.18942 0.0
H669 H 0.35551 0.61549 0.3752 0.0
H670 H 0.26876 0.52984 0.40122 0.0
H671 H 0.26491 0.55145 0.47248 0.0
H672 H 0.38735 0.62009 0.47153 0.0
H673 H 0.40873 0.66228 0.47405 0.0
H674 H 0.39677 0.64267 0.42216 0.0
H675 H 0.36829 0.67576 0.40788 0.0
H676 H 0.37998 0.69247 0.46245 0.0
H677 H 0.33926 0.67222 0.44652 0.0
H678 H 0.28137 0.57058 0.54656 0.0
H679 H 0.31524 0.58473 0.6116 0.0
H680 H 0.38824 0.66405 0.54263 0.0
C681 C 0.33472 0.60205 0.39469 0.0
C682 C 0.31255 0.57098 0.3828 0.0
C683 C 0.28618 0.55367 0.40982 0.0
C684 C 0.28368 0.56595 0.45025 0.0
C685 C 0.30753 0.59573 0.46299 0.0
C686 C 0.33229 0.61387 0.43542 0.0
C687 C 0.35833 0.64153 0.4599 0.0
C688 C 0.38956 0.64165 0.45672 0.0
C689 C 0.36167 0.67234 0.44321 0.0
C690 C 0.34587 0.63458 0.50641 0.0
C691 C 0.31614 0.60836 0.50742 0.0
C692 C 0.30385 0.59195 0.54644 0.0
C693 C 0.32332 0.60037 0.58374 0.0
C694 C 0.35464 0.62535 0.58204 0.0
C695 C 0.36444 0.64473 0.54462 0.0
H696 H 0.78408 0.33403 0.87619 0.0
H697 H 0.71041 0.35154 0.83692 0.0
H698 H 0.70328 0.32255 0.76722 0.0
H699 H 0.82239 0.35829 0.7897 0.0
H700 H 0.83699 0.33161 0.78432 0.0
H701 H 0.82559 0.33801 0.83707 0.0
H702 H 0.78694 0.27854 0.84479 0.0
H703 H 0.79839 0.272 0.79128 0.0
H704 H 0.75774 0.25783 0.80266 0.0
H705 H 0.71437 0.30661 0.69576 0.0
H706 H 0.74695 0.31623 0.6306 0.0
H707 H 0.81902 0.31683 0.71355 0.0
C708 C 0.76522 0.32989 0.85377 0.0
C709 C 0.74731 0.34412 0.86169 0.0
C710 C 0.7237 0.33992 0.83154 0.0
C711 C 0.7195 0.32336 0.79202 0.0
C712 C 0.73937 0.31157 0.78321 0.0
C713 C 0.7618 0.31459 0.81365 0.0
C714 C 0.78593 0.30857 0.79266 0.0
C715 C 0.81963 0.33576 0.80138 0.0
C716 C 0.782 0.27737 0.80879 0.0
C717 C 0.7763 0.30624 0.74466 0.0
C718 C 0.74802 0.30537 0.74026 0.0
C719 C 0.73643 0.30716 0.699 0.0
C720 C 0.75546 0.31315 0.66206 0.0
C721 C 0.78659 0.31927 0.66698 0.0
C722 C 0.79565 0.31266 0.70811 0.0
H723 H 0.46575 0.79141 1.0993 0.0
H724 H 0.3813 0.72775 1.02731 0.0
H725 H 0.35614 0.70214 1.09697 0.0
H726 H 0.45641 0.73707 0.19716 0.0
H727 H 0.47144 0.77098 0.23276 0.0
H728 H 0.48557 0.77493 0.17744 0.0
H729 H 0.47158 0.81812 0.16503 0.0
H730 H 0.45681 0.81328 0.21971 0.0
H731 H 0.43189 0.80918 0.17346 0.0
H732 H 0.33506 0.69811 0.17145 0.0
H733 H 0.32211 0.71354 0.24229 0.0
H734 H 0.4205 0.77626 0.26814 0.0
C735 C 0.44272 0.77075 1.09781 0.0
C736 C 0.42549 0.76162 1.05806 0.0
C737 C 0.39491 0.73519 1.0576 0.0
C738 C 0.38049 0.72041 1.09707 0.0
C739 C 0.39715 0.73201 0.13651 0.0
C740 C 0.42797 0.75621 0.13693 0.0
C741 C 0.43888 0.76902 0.18285 0.0
C742 C 0.46454 0.76248 0.19849 0.0
C743 C 0.45038 0.80442 0.18533 0.0
C744 C 0.40878 0.74992 0.20792 0.0
C745 C 0.38497 0.72829 0.18086 0.0
C746 C 0.35365 0.71364 0.19372 0.0
C747 C 0.34639 0.72243 0.234 0.0
C748 C 0.37044 0.74516 0.26108 0.0
C749 C 0.40192 0.75758 0.24892 0.0
H750 H 0.61934 0.38823 0.40604 0.0
H751 H 0.53365 0.38106 0.35733 0.0
H752 H 0.50309 0.32918 0.39041 0.0
H753 H 0.58685 0.29621 0.41367 0.0
H754 H 0.60834 0.3028 0.4645 0.0
H755 H 0.6243 0.33128 0.42087 0.0
H756 H 0.62995 0.37411 0.47576 0.0
H757 H 0.61407 0.34576 0.51866 0.0
H758 H 0.59598 0.36856 0.50506 0.0
H759 H 0.48109 0.28818 0.44166 0.0
H760 H 0.47039 0.27558 0.5189 0.0
H761 H 0.56747 0.30394 0.54243 0.0
C762 C 0.59422 0.37492 0.40136 0.0
C763 C 0.57871 0.38811 0.37893 0.0
C764 C 0.54583 0.37109 0.3745 0.0
C765 C 0.52835 0.34131 0.39245 0.0
C766 C 0.54394 0.32883 0.41552 0.0
C767 C 0.57623 0.34534 0.42073 0.0
C768 C 0.58627 0.33127 0.45717 0.0
C769 C 0.60241 0.31439 0.43788 0.0
C770 C 0.60774 0.35639 0.49118 0.0
C771 C 0.55453 0.30777 0.47589 0.0
C772 C 0.53052 0.30471 0.44865 0.0
C773 C 0.49958 0.28981 0.46276 0.0
C774 C 0.49359 0.28243 0.50731 0.0
C775 C 0.51869 0.29081 0.53717 0.0
C776 C 0.54825 0.29859 0.52008 0.0
H777 H 0.2454 0.55127 0.92122 0.0
H778 H 0.25406 0.63708 0.97211 0.0
H779 H 0.28492 0.66534 0.90866 0.0
H780 H 0.32004 0.59336 0.83818 0.0
H781 H 0.29714 0.56303 0.79844 0.0
H782 H 0.29483 0.55376 0.85632 0.0
H783 H 0.23482 0.5292 0.85208 0.0
H784 H 0.23692 0.53878 0.79518 0.0
H785 H 0.21859 0.55264 0.83298 0.0
H786 H 0.28845 0.67775 0.8321 0.0
H787 H 0.26717 0.67256 0.75738 0.0
H788 H 0.25476 0.5798 0.74662 0.0
C789 C 0.25523 0.57634 0.91974 0.0
C790 C 0.24624 0.5915 0.95088 0.0
C791 C 0.26022 0.62447 0.94891 0.0
C792 C 0.27792 0.64093 0.9124 0.0
C793 C 0.28153 0.62425 0.87807 0.0
C794 C 0.27153 0.59263 0.88206 0.0
C795 C 0.27001 0.57812 0.83729 0.0
C796 C 0.29713 0.57171 0.83227 0.0
C797 C 0.23819 0.548 0.82895 0.0
C798 C 0.27464 0.60464 0.80748 0.0
C799 C 0.28348 0.63173 0.83148 0.0
C800 C 0.28279 0.65716 0.81273 0.0
C801 C 0.27056 0.65402 0.77002 0.0
C802 C 0.25899 0.62556 0.74656 0.0
C803 C 0.26342 0.60171 0.76422 0.0
H804 H 0.49461 0.01568 1.01386 0.0
H805 H 0.4087 0.93579 1.0593 0.0
H806 H 0.41765 0.96071 0.13277 0.0
H807 H 0.54199 0.03406 1.11737 0.0
H808 H 0.55943 0.07567 1.11338 0.0
H809 H 0.54636 0.05195 1.06411 0.0
H810 H 0.51341 0.07718 1.04453 0.0
H811 H 0.52602 0.0999 1.09483 0.0
H812 H 0.4849 0.07505 1.08316 0.0
H813 H 0.43722 0.9943 0.20815 0.0
H814 H 0.46207 0.03069 0.2702 0.0
H815 H 0.53777 0.09325 0.18493 0.0
C816 C 0.47733 0.00319 1.03895 0.0
C817 C 0.45031 0.97208 1.02778 0.0
C818 C 0.42937 0.95856 1.06401 0.0
C819 C 0.43446 0.97302 1.10708 0.0
C820 C 0.46102 0.00257 1.11692 0.0
C821 C 0.48217 0.01785 1.08344 0.0
C822 C 0.50864 0.04989 1.10378 0.0
C823 C 0.54097 0.05299 1.09935 0.0
C824 C 0.50825 0.07713 1.08016 0.0
C825 C 0.50014 0.04951 0.15391 0.0
C826 C 0.47214 0.02183 0.16 0.0
C827 C 0.45903 0.01579 0.20254 0.0
C828 C 0.4738 0.03737 0.23876 0.0
C829 C 0.50288 0.06643 0.23604 0.0
C830 C 0.51589 0.072 0.19111 0.0
H831 H 0.45468 0.38807 0.41122 0.0
H832 H 0.45279 0.45528 0.32193 0.0
H833 H 0.43378 0.4747 0.38231 0.0
H834 H 0.38604 0.37496 0.48004 0.0
H835 H 0.40291 0.37264 0.53177 0.0
H836 H 0.41375 0.36149 0.48118 0.0
H837 H 0.47159 0.40042 0.49815 0.0
H838 H 0.46112 0.41217 0.54858 0.0
H839 H 0.48399 0.4409 0.5078 0.0
H840 H 0.41537 0.49005 0.45725 0.0
H841 H 0.40388 0.50014 0.53251 0.0
H842 H 0.41769 0.42575 0.58127 0.0
C843 C 0.4503 0.40691 0.4039 0.0
C844 C 0.45568 0.4194 0.35891 0.0
C845 C 0.44949 0.4445 0.354 0.0
C846 C 0.43868 0.45617 0.38914 0.0
C847 C 0.43455 0.4442 0.43237 0.0
C848 C 0.44032 0.41999 0.44001 0.0
C849 C 0.43459 0.41205 0.4904 0.0
C850 C 0.40774 0.37826 0.4962 0.0
C851 C 0.46459 0.41661 0.51258 0.0
C852 C 0.42533 0.43562 0.50992 0.0
C853 C 0.42507 0.45359 0.47521 0.0
C854 C 0.41657 0.47634 0.48414 0.0
C855 C 0.40974 0.48199 0.52814 0.0
C856 C 0.40956 0.46459 0.56586 0.0
C857 C 0.41738 0.4404 0.55508 0.0
H858 H 0.06497 0.49211 0.74694 0.0
H859 H 0.99269 0.47729 0.65256 0.0
H860 H 0.95395 0.45784 0.71242 0.0
H861 H 0.00826 0.41812 0.81167 0.0
H862 H 0.02631 0.43359 0.86456 0.0
H863 H 0.04941 0.44657 0.81511 0.0
H864 H 0.06701 0.50422 0.83339 0.0
H865 H 0.04543 0.49011 0.88392 0.0
H866 H 0.03796 0.5142 0.84789 0.0
H867 H 0.9198 0.44192 0.78901 0.0
H868 H 0.89781 0.4307 0.86427 0.0
H869 H 0.9877 0.45006 0.9155 0.0
C870 C 0.04109 0.48519 0.73835 0.0
C871 C 0.03365 0.48789 0.6918 0.0
C872 C 0.00092 0.47675 0.68554 0.0
C873 C 0.97801 0.46512 0.72044 0.0
C874 C 0.986 0.46284 0.76474 0.0
C875 C 0.01709 0.47256 0.77382 0.0
C876 C 0.0187 0.466 0.82449 0.0
C877 C 0.02614 0.43952 0.82926 0.0
C878 C 0.04375 0.49538 0.84874 0.0
C879 C 0.98504 0.45487 0.84328 0.0
C880 C 0.96631 0.45216 0.8075 0.0
C881 C 0.93473 0.44339 0.81625 0.0
C882 C 0.92205 0.43714 0.86049 0.0
C883 C 0.93956 0.43873 0.89923 0.0
C884 C 0.9722 0.44793 0.8887 0.0
H885 H 0.49428 0.91692 0.1917 0.0
H886 H 0.58503 0.94696 0.25051 0.0
H887 H 0.61029 0.9797 0.18539 0.0
H888 H 0.52628 0.91775 1.07254 0.0
H889 H 0.49934 0.92769 1.04754 0.0
H890 H 0.48857 0.90434 1.0969 0.0
H891 H 0.47743 0.94324 0.13625 0.0
H892 H 0.48792 0.96548 1.08654 0.0
H893 H 0.50689 0.98405 0.13806 0.0
H894 H 0.62762 0.01517 1.11024 0.0
H895 H 0.63359 0.04349 1.04068 0.0
H896 H 0.53295 0.99308 1.02363 0.0
C897 C 0.51956 0.92994 0.19111 0.0
C898 C 0.53679 0.9283 0.22952 0.0
C899 C 0.57004 0.94645 0.22396 0.0
C900 C 0.58503 0.96564 0.18593 0.0
C901 C 0.56755 0.96717 0.14988 0.0
C902 C 0.53536 0.9489 0.15182 0.0
C903 C 0.52219 0.95419 1.10778 0.0
C904 C 0.50824 0.92421 1.07954 0.0
C905 C 0.49714 0.96239 1.11796 0.0
C906 C 0.55106 0.98145 1.08338 0.0
C907 C 0.57724 0.98735 1.10783 0.0
C908 C 0.60683 0.01009 1.09164 0.0
C909 C 0.61012 0.02661 1.05095 0.0
C910 C 0.58442 0.0225 1.02395 0.0
C911 C 0.554 -0.00135 1.04185 0.0
H912 H 0.56389 0.48588 0.51553 0.0
H913 H 0.50488 0.49703 0.60968 0.0
H914 H 0.4837 0.51496 0.54965 0.0
H915 H 0.57924 0.55373 0.4425 0.0
H916 H 0.57702 0.53368 0.39173 0.0
H917 H 0.58922 0.52338 0.44207 0.0
H918 H 0.54696 0.46695 0.42921 0.0
H919 H 0.53141 0.47583 0.3808 0.0
H920 H 0.50667 0.45659 0.42716 0.0
H921 H 0.46958 0.53613 0.47571 0.0
H922 H 0.45737 0.54668 0.40085 0.0
H923 H 0.52276 0.5218 0.34707 0.0
C924 C 0.54671 0.49234 0.52407 0.0
C925 C 0.537 0.48979 0.57021 0.0
C926 C 0.51375 0.49842 0.57672 0.0
C927 C 0.50134 0.50896 0.54191 0.0
C928 C 0.5114 0.51135 0.49784 0.0
C929 C 0.53354 0.50293 0.48868 0.0
C930 C 0.53897 0.50629 0.43757 0.0
C931 C 0.57316 0.53071 0.42789 0.0
C932 C 0.53056 0.47455 0.41737 0.0
C933 C 0.51659 0.5176 0.4194 0.0
C934 C 0.50141 0.52087 0.45537 0.0
C935 C 0.48075 0.53226 0.44785 0.0
C936 C 0.47396 0.53863 0.40407 0.0
C937 C 0.48805 0.53523 0.36503 0.0
C938 C 0.51054 0.52482 0.37432 0.0
H939 H 0.04714 0.56561 0.8707 0.0
H940 H 0.04375 0.64782 0.90971 0.0
H941 H 0.01095 0.64134 0.84397 0.0
H942 H 0.04772 0.57431 0.75098 0.0
H943 H 0.02056 0.53408 0.73761 0.0
H944 H 0.04419 0.54407 0.78707 0.0
H945 H 0.99293 0.51468 0.83606 0.0
H946 H 0.97037 0.50461 0.78464 0.0
H947 H 0.96266 0.52416 0.82675 0.0
H948 H 0.97257 0.62237 0.76527 0.0
H949 H 0.94014 0.59585 0.69866 0.0
H950 H 0.96556 0.52453 0.7102 0.0
C951 C 0.04015 0.58283 0.86557 0.0
C952 C 0.05001 0.60806 0.8982 0.0
C953 C 0.03819 0.62851 0.88756 0.0
C954 C 0.01892 0.62484 0.84909 0.0
C955 C 0.0097 0.59995 0.8184 0.0
C956 C 0.02012 0.57918 0.82686 0.0
C957 C 0.00535 0.55325 0.79054 0.0
C958 C 0.03092 0.55118 0.76512 0.0
C959 C 0.98177 0.52222 0.81106 0.0
C960 C 0.9866 0.56266 0.75931 0.0
C961 C 0.98869 0.58958 0.77618 0.0
C962 C 0.9715 0.60124 0.75333 0.0
C963 C 0.95244 0.58554 0.71448 0.0
C964 C 0.94861 0.55693 0.69651 0.0
C965 C 0.96671 0.54595 0.72092 0.0
H966 H 0.5423 0.05408 0.29578 0.0
H967 H 0.60767 0.08345 0.40414 0.0
H968 H 0.64043 0.06901 0.36253 0.0
H969 H 0.51961 0.00886 0.26037 0.0
H970 H 0.52864 0.99403 0.21238 0.0
H971 H 0.53724 0.03376 0.21362 0.0
H972 H 0.5986 0.06037 0.20074 0.0
H973 H 0.58176 0.02122 0.18233 0.0
H974 H 0.61525 0.03714 0.21837 0.0
H975 H 0.6281 0.01541 0.35866 0.0
H976 H 0.58257 0.97482 0.39605 0.0
H977 H 0.52406 0.96853 0.28627 0.0
C978 C 0.56429 0.05859 0.30933 0.0
C979 C 0.5713 0.06742 0.35356 0.0
C980 C 0.60056 0.07425 0.37097 0.0
C981 C 0.62002 0.0674 0.3466 0.0
C982 C 0.60826 0.05068 0.30718 0.0
C983 C 0.58363 0.05129 0.28492 0.0
C984 C 0.57048 0.02574 0.25102 0.0
C985 C 0.53696 0.01501 0.23374 0.0
C986 C 0.59291 0.03654 0.21113 0.0
C987 C 0.57338 0.00234 0.27956 0.0
C988 C 0.60137 0.01818 0.30402 0.0
C989 C 0.60582 0.00426 0.34139 0.0
C990 C 0.57953 0.98179 0.36343 0.0
C991 C 0.54961 0.96964 0.34444 0.0
C992 C 0.547 0.97849 0.30128 0.0
H993 H 0.48231 0.54584 0.7696 0.0
H994 H 0.41309 0.45704 0.82271 0.0
H995 H 0.44471 0.46711 0.88872 0.0
H996 H 0.53242 0.55734 0.75657 0.0
H997 H 0.56821 0.58094 0.78666 0.0
H998 H 0.53757 0.59037 0.78808 0.0
H999 H 0.53944 0.5905 0.87167 0.0
H1000 H 0.57026 0.58128 0.86936 0.0
H1001 H 0.53618 0.55782 0.90184 0.0
H1002 H 0.48341 0.45143 0.88096 0.0
H1003 H 0.48926 0.43128 0.81053 0.0
H1004 H 0.55278 0.5253 0.76802 0.0
C1005 C 0.47442 0.52872 0.79567 0.0
C1006 C 0.44747 0.49926 0.78882 0.0
C1007 C 0.43542 0.47857 0.82478 0.0
C1008 C 0.45288 0.48489 0.86344 0.0
C1009 C 0.48429 0.50848 0.8622 0.0
C1010 C 0.49364 0.53358 0.83298 0.0
C1011 C 0.52877 0.55027 0.82934 0.0
C1012 C 0.54244 0.57077 0.78761 0.0
C1013 C 0.54449 0.57104 0.87051 0.0
C1014 C 0.53144 0.5212 0.83117 0.0
C1015 C 0.50858 0.49969 0.85993 0.0
C1016 C 0.49918 0.46784 0.85689 0.0
C1017 C 0.50172 0.45632 0.81613 0.0
C1018 C 0.51934 0.47721 0.78258 0.0
C1019 C 0.53743 0.50932 0.79268 0.0
H1020 H 0.92199 0.48892 0.97058 0.0
H1021 H 0.91582 0.51764 1.10149 0.0
H1022 H 0.92137 0.56638 1.07305 0.0
H1023 H 0.97144 0.51844 0.94159 0.0
H1024 H 0.98274 0.54406 0.89561 0.0
H1025 H 0.94349 0.51106 0.89853 0.0
H1026 H 0.91991 0.54525 0.88748 0.0
H1027 H 0.95864 0.57827 0.88071 0.0
H1028 H 0.9325 0.58017 0.91965 0.0
H1029 H 0.96937 0.61412 1.05821 0.0
H1030 H 0.01604 0.61354 1.08221 0.0
H1031 H 0.01313 0.56417 0.96388 0.0
C1032 C 0.92298 0.50657 0.99263 0.0
C1033 C 0.92363 0.50255 1.03804 0.0
C1034 C 0.91947 0.52252 1.06653 0.0
C1035 C 0.9213 0.54963 1.05 0.0
C1036 C 0.93206 0.55844 1.00678 0.0
C1037 C 0.92925 0.53562 0.97644 0.0
C1038 C 0.9528 0.55114 0.94061 0.0
C1039 C 0.96319 0.52985 0.91784 0.0
C1040 C 0.94024 0.56456 0.9052 0.0
C1041 C 0.97751 0.577 0.96893 0.0
C1042 C 0.96286 0.58633 0.99982 0.0
C1043 C 0.97982 0.60487 1.03604 0.0
C1044 C 0.00582 0.60347 1.05044 0.0
C1045 C 0.01686 0.58712 1.02548 0.0
C1046 C 0.00419 0.5762 0.98326 0.0
H1047 H 0.06261 0.57455 0.61081 0.0
H1048 H 0.05373 0.57454 0.46983 0.0
H1049 H 0.04982 0.6219 0.4739 0.0
H1050 H 0.0227 0.57272 0.65396 0.0
H1051 H 0.02188 0.60282 0.6864 0.0
H1052 H 0.05773 0.60247 0.67949 0.0
H1053 H 0.08662 0.6568 0.65365 0.0
H1054 H 0.05248 0.66016 0.66273 0.0
H1055 H 0.07222 0.67116 0.61074 0.0
H1056 H 0.01296 0.64147 0.49284 0.0
H1057 H 0.96606 0.58986 0.48791 0.0
H1058 H 0.98262 0.57046 0.62015 0.0
C1059 C 0.05913 0.58479 0.58127 0.0
C1060 C 0.05428 0.56933 0.54067 0.0
C1061 C 0.05369 0.58435 0.50179 0.0
C1062 C 0.0535 0.61237 0.50396 0.0
C1063 C 0.05203 0.62426 0.5454 0.0
C1064 C 0.05816 0.61252 0.58389 0.0
C1065 C 0.0437 0.61972 0.62204 0.0
C1066 C 0.03584 0.59798 0.6626 0.0
C1067 C 0.06495 0.65395 0.638 0.0
C1068 C 0.01605 0.6164 0.59593 0.0
C1069 C 0.02716 0.63144 0.55516 0.0
C1070 C 0.00564 0.62661 0.52163 0.0
C1071 C 0.97953 0.59677 0.51835 0.0
C1072 C 0.9731 0.5753 0.55274 0.0
C1073 C 0.98856 0.58663 0.59345 0.0
H1074 H 0.45563 0.99692 0.83024 0.0
H1075 H 0.49957 0.94456 0.79261 0.0
H1076 H 0.50534 0.9642 0.71787 0.0
H1077 H 0.4708 0.03246 0.68558 0.0
H1078 H 0.47106 0.06515 0.71194 0.0
H1079 H 0.4388 0.02641 0.71953 0.0
H1080 H 0.44743 0.04154 0.80041 0.0
H1081 H 0.48375 0.07741 0.79165 0.0
H1082 H 0.48196 0.0489 0.82962 0.0
H1083 H 0.54981 0.01602 0.69181 0.0
H1084 H 0.58011 0.02557 0.76006 0.0
H1085 H 0.53183 0.06882 0.81623 0.0
C1086 C 0.46542 0.9891 0.8051 0.0
C1087 C 0.47799 0.97036 0.81739 0.0
C1088 C 0.49101 0.96029 0.78478 0.0
C1089 C 0.49326 0.97063 0.74157 0.0
C1090 C 0.48926 0.99634 0.73383 0.0
C1091 C 0.47125 0.00273 0.76315 0.0
C1092 C 0.48059 0.03649 0.75808 0.0
C1093 C 0.46466 0.04039 0.71623 0.0
C1094 C 0.47314 0.05188 0.79736 0.0
C1095 C 0.51495 0.04779 0.75137 0.0
C1096 C 0.51702 0.02672 0.72223 0.0
C1097 C 0.5457 0.02761 0.71904 0.0
C1098 C 0.56219 0.03198 0.75843 0.0
C1099 C 0.55382 0.04284 0.7959 0.0
C1100 C 0.5346 0.05608 0.78939 0.0
H1101 H 0.47177 0.51701 1.102 0.0
H1102 H 0.38724 0.45628 0.17192 0.0
H1103 H 0.36838 0.42069 1.10872 0.0
H1104 H 0.43081 0.44522 0.98742 0.0
H1105 H 0.47091 0.4567 0.97767 0.0
H1106 H 0.45899 0.48559 0.97898 0.0
H1107 H 0.50222 0.51663 1.03282 0.0
H1108 H 0.51324 0.4871 1.03523 0.0
H1109 H 0.50532 0.50111 1.08477 0.0
H1110 H 0.38255 0.38003 1.09774 0.0
H1111 H 0.41098 0.38347 0.16464 0.0
H1112 H 0.4964 0.45425 1.10639 0.0
C1113 C 0.44942 0.49561 1.10362 0.0
C1114 C 0.43277 0.48714 0.14356 0.0
C1115 C 0.40198 0.46178 0.14324 0.0
C1116 C 0.39075 0.4421 1.10637 0.0
C1117 C 0.41227 0.44527 1.07384 0.0
C1118 C 0.43969 0.47426 1.0683 0.0
C1119 C 0.46314 0.46887 1.04432 0.0
C1120 C 0.4554 0.46369 0.99431 0.0
C1121 C 0.49793 0.49495 1.04983 0.0
C1122 C 0.45429 0.43826 1.06653 0.0
C1123 C 0.42144 0.42118 1.06993 0.0
C1124 C 0.40763 0.39573 1.09856 0.0
C1125 C 0.42384 0.39827 0.13745 0.0
C1126 C 0.45548 0.42169 0.14191 0.0
C1127 C 0.47151 0.43813 1.10397 0.0
H1128 H 0.30977 0.92183 0.69153 0.0
H1129 H 0.28172 0.98506 0.74525 0.0
H1130 H 0.28139 0.00419 0.67048 0.0
H1131 H 0.36262 0.96847 0.629 0.0
H1132 H 0.35662 0.94387 0.58173 0.0
H1133 H 0.34328 0.92652 0.6346 0.0
H1134 H 0.28682 0.89237 0.60468 0.0
H1135 H 0.30007 0.9089 0.55074 0.0
H1136 H 0.26802 0.91042 0.57599 0.0
H1137 H 0.30305 0.02919 0.59871 0.0
H1138 H 0.3363 0.05157 0.53291 0.0
H1139 H 0.34649 0.96993 0.52371 0.0
C1140 C 0.30144 0.93811 0.68746 0.0
C1141 C 0.29635 0.95233 0.72438 0.0
C1142 C 0.28631 0.97423 0.7175 0.0
C1143 C 0.28585 0.9851 0.67502 0.0
C1144 C 0.29436 0.97301 0.63969 0.0
C1145 C 0.30071 0.94898 0.64525 0.0
C1146 C 0.3142 0.94351 0.60383 0.0
C1147 C 0.34604 0.94578 0.61289 0.0
C1148 C 0.29087 0.91193 0.58254 0.0
C1149 C 0.31772 0.97039 0.57602 0.0
C1150 C 0.3055 0.98676 0.59669 0.0
C1151 C 0.31135 0.01578 0.58114 0.0
C1152 C 0.33045 0.02848 0.54407 0.0
C1153 C 0.34321 0.01203 0.52298 0.0
C1154 C 0.33591 0.98229 0.53838 0.0
H1155 H 0.35163 0.26914 1.01686 0.0
H1156 H 0.28193 0.27758 1.09143 0.0
H1157 H 0.25317 0.27314 1.02274 0.0
H1158 H 0.36162 0.32054 0.94383 0.0
H1159 H 0.36776 0.30267 0.89604 0.0
H1160 H 0.37576 0.29353 0.94987 0.0
H1161 H 0.33781 0.23447 0.93528 0.0
H1162 H 0.32981 0.24345 0.8808 0.0
H1163 H 0.29807 0.22108 0.91809 0.0
H1164 H 0.24123 0.28384 0.94832 0.0
H1165 H 0.24816 0.30973 0.87646 0.0
H1166 H 0.32657 0.2968 0.84877 0.0
C1167 C 0.32964 0.26882 1.01874 0.0
C1168 C 0.31903 0.27377 1.05927 0.0
C1169 C 0.29026 0.27333 1.06075 0.0
C1170 C 0.27373 0.27078 1.0218 0.0
C1171 C 0.28615 0.26841 0.98181 0.0
C1172 C 0.31333 0.26695 0.98009 0.0
C1173 C 0.3256 0.27122 0.93357 0.0
C1174 C 0.35965 0.29862 0.93072 0.0
C1175 C 0.32263 0.24073 0.91589 0.0
C1176 C 0.30297 0.2785 0.91022 0.0
C1177 C 0.27954 0.27539 0.93806 0.0
C1178 C 0.25876 0.28535 0.92576 0.0
C1179 C 0.26286 0.30006 0.88491 0.0
C1180 C 0.28788 0.30509 0.8574 0.0
C1181 C 0.30712 0.29285 0.8693 0.0
H1182 H 0.05202 0.37493 0.19657 0.0
H1183 H 0.95725 0.29657 0.19291 0.0
H1184 H 0.96659 0.2774 0.26258 0.0
H1185 H 0.08774 0.33532 0.27509 0.0
H1186 H 0.11074 0.37259 0.30238 0.0
H1187 H 0.10368 0.37094 0.24371 0.0
H1188 H 0.08146 0.40801 0.25323 0.0
H1189 H 0.08844 0.40974 0.31113 0.0
H1190 H 0.04955 0.39735 0.29075 0.0
H1191 H 0.9771 0.27803 0.34063 0.0
H1192 H 0.98571 0.2998 0.41567 0.0
H1193 H 0.07248 0.38022 0.37421 0.0
C1194 C 0.03382 0.35297 0.20971 0.0
C1195 C 0.0039 0.33749 0.18982 0.0
C1196 C 0.98051 0.30874 0.20734 0.0
C1197 C 0.9857 0.29762 0.24708 0.0
C1198 C 0.0144 0.31544 0.26882 0.0
C1199 C 0.03844 0.34235 0.25018 0.0
C1200 C 0.06351 0.36179 0.28403 0.0
C1201 C 0.09317 0.36003 0.27581 0.0
C1202 C 0.07107 0.39617 0.28485 0.0
C1203 C 0.04744 0.3444 0.32562 0.0
C1204 C 0.02026 0.31653 0.31593 0.0
C1205 C -0.0013 0.2993 0.34861 0.0
C1206 C 0.00363 0.31198 0.39119 0.0
C1207 C 0.02956 0.34194 0.40046 0.0
C1208 C 0.0528 0.35702 0.36821 0.0
H1209 H 0.72035 0.07994 0.67408 0.0
H1210 H 0.7416 0.01269 0.73144 0.0
H1211 H 0.75223 -0.00018 0.65772 0.0
H1212 H 0.67318 0.03509 0.60219 0.0
H1213 H 0.68219 0.06158 0.55661 0.0
H1214 H 0.69121 0.07667 0.61157 0.0
H1215 H 0.74925 0.11283 0.59066 0.0
H1216 H 0.74027 0.09788 0.53494 0.0
H1217 H 0.7708 0.09646 0.56575 0.0
H1218 H 0.74155 0.9806 0.58259 0.0
H1219 H 0.70964 0.95646 0.51614 0.0
H1220 H 0.693 0.03398 0.50374 0.0
C1221 C 0.72856 0.06349 0.67098 0.0
C1222 C 0.72991 0.04711 0.70812 0.0
C1223 C 0.74073 0.02577 0.7034 0.0
C1224 C 0.74692 0.01838 0.6615 0.0
C1225 C 0.74239 0.03272 0.62483 0.0
C1226 C 0.73399 0.05539 0.62925 0.0
C1227 C 0.72316 0.06176 0.58571 0.0
C1228 C 0.69052 0.05851 0.58929 0.0
C1229 C 0.74732 0.09416 0.56823 0.0
C1230 C 0.72248 0.03611 0.55775 0.0
C1231 C 0.73543 0.02086 0.58003 0.0
C1232 C 0.73243 0.993 0.56415 0.0
C1233 C 0.71418 0.97938 0.52629 0.0
C1234 C 0.69886 0.99346 0.50517 0.0
C1235 C 0.70472 0.02303 0.51946 0.0
H1236 H 0.6 0.66779 1.01901 0.0
H1237 H 0.67615 0.66482 1.08536 0.0
H1238 H 0.70567 0.67884 1.01621 0.0
H1239 H 0.5944 0.62509 0.93807 0.0
H1240 H 0.58538 0.64417 0.89451 0.0
H1241 H 0.57698 0.64863 0.95025 0.0
H1242 H 0.61053 0.70894 0.94271 0.0
H1243 H 0.61909 0.70432 0.8864 0.0
H1244 H 0.65055 0.72667 0.92495 0.0
H1245 H 0.71802 0.6741 0.94045 0.0
H1246 H 0.71038 0.64879 0.86766 0.0
H1247 H 0.62568 0.65207 0.84752 0.0
C1248 C 0.62344 0.67136 1.0191 0.0
C1249 C 0.63575 0.66504 1.05713 0.0
C1250 C 0.66642 0.6699 1.05659 0.0
C1251 C 0.68342 0.67801 1.01737 0.0
C1252 C 0.6695 0.68141 0.9792 0.0
C1253 C 0.64025 0.67871 0.97995 0.0
C1254 C 0.62706 0.67581 0.93392 0.0
C1255 C 0.59408 0.64668 0.92898 0.0
C1256 C 0.62682 0.70573 0.92125 0.0
C1257 C 0.65127 0.67277 0.90777 0.0
C1258 C 0.67657 0.67804 0.93398 0.0
C1259 C 0.69907 0.67113 0.91916 0.0
C1260 C 0.69461 0.65675 0.87787 0.0
C1261 C 0.66774 0.64923 0.8525 0.0
C1262 C 0.64683 0.65877 0.86636 0.0
H1263 H 0.97054 0.66001 0.18479 0.0
H1264 H 0.04461 0.75471 0.21261 0.0
H1265 H 0.01544 0.75677 0.27709 0.0
H1266 H 0.90273 0.66842 0.23159 0.0
H1267 H 0.88483 0.62924 0.25305 0.0
H1268 H 0.90632 0.63872 0.20219 0.0
H1269 H 0.9411 0.61804 0.23441 0.0
H1270 H 0.91989 0.6086 0.28498 0.0
H1271 H 0.96177 0.63408 0.28572 0.0
H1272 H 0.98638 0.74369 0.34722 0.0
H1273 H 0.95982 0.71697 0.41583 0.0
H1274 H 0.9044 0.6308 0.34237 0.0
C1275 C 0.97993 0.68154 0.20363 0.0
C1276 C 0.00963 0.70718 0.19412 0.0
C1277 C 0.02163 0.73497 0.21932 0.0
C1278 C 0.00517 0.73634 0.25585 0.0
C1279 C 0.97658 0.70993 0.26596 0.0
C1280 C 0.96379 0.68318 0.24002 0.0
C1281 C 0.93567 0.65627 0.26152 0.0
C1282 C 0.90561 0.64767 0.23554 0.0
C1283 C 0.93991 0.62762 0.26701 0.0
C1284 C 0.93634 0.67115 0.30534 0.0
C1285 C 0.95943 0.70239 0.30684 0.0
C1286 C 0.96756 0.71959 0.34605 0.0
C1287 C 0.95255 0.70421 0.38489 0.0
C1288 C 0.9299 0.67194 0.38412 0.0
C1289 C 0.92086 0.65571 0.34358 0.0
H1290 H 0.53591 0.12857 0.56261 0.0
H1291 H 0.60126 0.1101 0.49383 0.0
H1292 H 0.62201 0.10443 0.56533 0.0
H1293 H 0.59361 0.17559 0.65327 0.0
H1294 H 0.5647 0.16252 0.69608 0.0
H1295 H 0.55375 0.16427 0.63974 0.0
H1296 H 0.51104 0.10633 0.64313 0.0
H1297 H 0.52234 0.10461 0.69931 0.0
H1298 H 0.52154 0.0776 0.65845 0.0
H1299 H 0.63625 0.09831 0.65077 0.0
H1300 H 0.64307 0.09644 0.7313 0.0
H1301 H 0.57275 0.12249 0.75208 0.0
C1302 C 0.55456 0.12322 0.56204 0.0
C1303 C 0.56603 0.11959 0.51917 0.0
C1304 C 0.59108 0.11315 0.52355 0.0
C1305 C 0.60332 0.10974 0.56521 0.0
C1306 C 0.59172 0.11342 0.60588 0.0
C1307 C 0.5681 0.12065 0.60453 0.0
C1308 C 0.56116 0.12505 0.65358 0.0
C1309 C 0.56872 0.15886 0.66112 0.0
C1310 C 0.52691 0.10199 0.66421 0.0
C1311 C 0.58329 0.11808 0.68264 0.0
C1312 C 0.6008 0.11144 0.65396 0.0
C1313 C 0.62247 0.10386 0.6725 0.0
C1314 C 0.62642 0.10294 0.71965 0.0
C1315 C 0.60936 0.10964 0.75155 0.0
C1316 C 0.58721 0.11747 0.73098 0.0
H1317 H 0.43548 0.54963 0.85164 0.0
H1318 H 0.34534 0.46533 0.86503 0.0
H1319 H 0.35064 0.47129 0.94621 0.0
H1320 H 0.47279 0.53458 0.94742 0.0
H1321 H 0.49544 0.57457 0.96604 0.0
H1322 H 0.48486 0.56601 0.9086 0.0
H1323 H 0.45914 0.59953 0.90878 0.0
H1324 H 0.46998 0.60914 0.96602 0.0
H1325 H 0.42968 0.59236 0.94903 0.0
H1326 H 0.36451 0.48864 1.03162 0.0
H1327 H 0.38642 0.50982 1.10498 0.0
H1328 H 0.47214 0.58057 1.04454 0.0
C1329 C 0.41652 0.53231 0.87132 0.0
C1330 C 0.38918 0.5068 0.84876 0.0
C1331 C 0.36625 0.48517 0.87854 0.0
C1332 C 0.3692 0.4885 0.92588 0.0
C1333 C 0.3959 0.51353 0.94641 0.0
C1334 C 0.41957 0.53491 0.91978 0.0
C1335 C 0.4464 0.55903 0.95098 0.0
C1336 C 0.47669 0.55851 0.9428 0.0
C1337 C 0.45163 0.59198 0.94322 0.0
C1338 C 0.43443 0.54805 0.99902 0.0
C1339 C 0.40477 0.52202 0.99505 0.0
C1340 C 0.38788 0.50873 1.03397 0.0
C1341 C 0.40087 0.5214 1.07672 0.0
C1342 C 0.43179 0.5474 1.08403 0.0
C1343 C 0.44864 0.56067 1.04283 0.0
H1344 H 0.86513 0.45951 0.19001 0.0
H1345 H 0.90733 0.40205 0.20889 0.0
H1346 H 0.91071 0.41251 0.28886 0.0
H1347 H 0.91349 0.5187 0.27675 0.0
H1348 H 0.88273 0.525 0.29597 0.0
H1349 H 0.88225 0.51273 0.23978 0.0
H1350 H 0.82709 0.46543 0.25089 0.0
H1351 H 0.82742 0.47757 0.30711 0.0
H1352 H 0.82029 0.43877 0.29553 0.0
H1353 H 0.9092 0.42868 0.37263 0.0
H1354 H 0.90554 0.44919 0.44443 0.0
H1355 H 0.86674 0.50074 0.38089 0.0
C1356 C 0.8749 0.44871 0.21067 0.0
C1357 C 0.88553 0.42887 0.18974 0.0
C1358 C 0.89855 0.41675 0.2209 0.0
C1359 C 0.90064 0.42278 0.26769 0.0
C1360 C 0.89016 0.44196 0.28662 0.0
C1361 C 0.87769 0.45508 0.25882 0.0
C1362 C 0.86911 0.47571 0.28866 0.0
C1363 C 0.88799 0.51009 0.27443 0.0
C1364 C 0.83388 0.46368 0.28532 0.0
C1365 C 0.8783 0.47202 0.33717 0.0
C1366 C 0.89026 0.45209 0.33449 0.0
C1367 C 0.8999 0.44431 0.37394 0.0
C1368 C 0.89758 0.45648 0.41593 0.0
C1369 C 0.88587 0.47749 0.42218 0.0
C1370 C 0.87611 0.48518 0.38027 0.0
H1371 H 0.44816 0.90501 0.51774 0.0
H1372 H 0.51262 0.87109 0.53766 0.0
H1373 H 0.50392 0.86962 0.61791 0.0
H1374 H 0.47358 0.95558 0.62072 0.0
H1375 H 0.43516 0.94877 0.63344 0.0
H1376 H 0.44539 0.9468 0.57702 0.0
H1377 H 0.39781 0.89111 0.56999 0.0
H1378 H 0.38764 0.89307 0.62643 0.0
H1379 H 0.39335 0.86154 0.60869 0.0
H1380 H 0.4865 0.87 0.70257 0.0
H1381 H 0.46735 0.87575 0.77447 0.0
H1382 H 0.41536 0.91344 0.70947 0.0
C1383 C 0.4606 0.8971 0.53859 0.0
C1384 C 0.48147 0.88775 0.51761 0.0
C1385 C 0.49664 0.87834 0.54941 0.0
C1386 C 0.49164 0.87739 0.59645 0.0
C1387 C 0.47132 0.88647 0.61536 0.0
C1388 C 0.45628 0.8967 0.58713 0.0
C1389 C 0.43661 0.90642 0.6171 0.0
C1390 C 0.44836 0.94147 0.61171 0.0
C1391 C 0.40177 0.88689 0.6048 0.0
C1392 C 0.44219 0.8995 0.66596 0.0
C1393 C 0.46238 0.88784 0.66359 0.0
C1394 C 0.47088 0.87929 0.70353 0.0
C1395 C 0.45937 0.88263 0.74558 0.0
C1396 C 0.43891 0.89501 0.75151 0.0
C1397 C 0.43049 0.90356 0.70914 0.0
H1398 H 0.58348 0.47782 0.88453 0.0
H1399 H 0.51252 0.38984 0.82708 0.0
H1400 H 0.49188 0.3704 0.9006 0.0
H1401 H 0.59555 0.44035 0.98603 0.0
H1402 H 0.60171 0.47163 1.02281 0.0
H1403 H 0.61155 0.47955 0.9653 0.0
H1404 H 0.57716 0.50401 0.95979 0.0
H1405 H 0.56502 0.49504 1.01636 0.0
H1406 H 0.53624 0.48121 0.9722 0.0
H1407 H 0.47551 0.35854 0.98576 0.0
H1408 H 0.4693 0.35597 1.06684 0.0
H1409 H 0.55098 0.44856 1.07802 0.0
C1410 C 0.56374 0.45429 0.88691 0.0
C1411 C 0.5504 0.43603 0.84634 0.0
C1412 C 0.52434 0.40536 0.85468 0.0
C1413 C 0.51193 0.3937 0.89761 0.0
C1414 C 0.52528 0.41188 0.93586 0.0
C1415 C 0.55113 0.44153 0.93103 0.0
C1416 C 0.5613 0.45562 0.97859 0.0
C1417 C 0.59452 0.46221 0.98878 0.0
C1418 C 0.55984 0.48578 0.98206 0.0
C1419 C 0.53719 0.42979 1.01043 0.0
C1420 C 0.51653 0.40473 0.98451 0.0
C1421 C 0.49209 0.37824 1.00562 0.0
C1422 C 0.48863 0.37684 1.05291 0.0
C1423 C 0.50942 0.4014 1.08208 0.0
C1424 C 0.53425 0.42853 1.05886 0.0
H1425 H 0.08292 0.50858 0.37353 0.0
H1426 H 0.13212 0.59879 0.43881 0.0
H1427 H 0.1371 0.62457 0.36713 0.0
H1428 H 0.13138 0.53484 0.27055 0.0
H1429 H 0.09942 0.51086 0.23354 0.0
H1430 H 0.09862 0.49886 0.28988 0.0
H1431 H 0.04544 0.49527 0.30056 0.0
H1432 H 0.04612 0.50731 0.24427 0.0
H1433 H 0.04147 0.52879 0.28873 0.0
H1434 H 0.13471 0.64293 0.28143 0.0
H1435 H 0.13005 0.64971 0.20145 0.0
H1436 H 0.08697 0.54961 0.18309 0.0
C1437 C 0.095 0.53388 0.37334 0.0
C1438 C 0.10711 0.55074 0.41559 0.0
C1439 C 0.12249 0.58401 0.4099 0.0
C1440 C 0.12537 0.5993 0.36799 0.0
C1441 C 0.11341 0.58225 0.32803 0.0
C1442 C 0.09884 0.54995 0.33041 0.0
C1443 C 0.08905 0.53723 0.28181 0.0
C1444 C 0.10558 0.51936 0.26813 0.0
C1445 C 0.0534 0.51585 0.27866 0.0
C1446 C 0.09995 0.56687 0.25185 0.0
C1447 C 0.11362 0.59264 0.27975 0.0
C1448 C 0.12428 0.6224 0.26039 0.0
C1449 C 0.12143 0.6262 0.21345 0.0
C1450 C 0.10845 0.60096 0.18205 0.0
C1451 C 0.09758 0.57046 0.20348 0.0
loop_
_geom_bond_atom_site_label_1
_geom_bond_atom_site_label_2
_geom_bond_distance
_geom_bond_site_symmetry_2
_ccdc_geom_bond_type
Tb0 C10 2.825 . S
Tb0 O11 2.347 . S
Tb0 O14 2.366 . S
Tb0 O19 2.418 . S
Tb0 O20 2.384 . S
Tb0 O23 2.479 . S
Tb0 O24 2.471 . S
Eu1 O12 2.418 . S
Eu1 O13 2.384 . S
Eu1 O16 2.479 . S
Eu1 O17 2.471 . S
Eu1 O18 2.347 . S
Eu1 O21 2.366 . S
Eu1 C31 2.825 . S
C2 O18 1.259 . S
C2 O19 1.265 . S
C3 O20 1.255 . S
C3 O21 1.265 . S
C4 C6 1.380 . S
C4 C7 1.374 . S
C4 C10 1.507 . S
C5 C6 1.384 . S
C5 C9 1.387 . S
C5 H32 0.930 . S
C6 C4 1.380 . S
C6 C5 1.384 . S
C6 H33 0.931 . S
C7 C4 1.374 . S
C7 C8 1.390 . S
C7 H34 0.930 . S
C8 C7 1.390 . S
C8 C9 1.391 . S
C8 H35 0.930 . S
C9 C5 1.387 . S
C9 C8 1.391 . S
C10 Tb0 2.825 . S
C10 C4 1.507 . S
C10 O23 1.238 . S
C10 O24 1.247 . S
O11 Tb0 2.347 . S
O11 C15 1.259 . S
O12 Eu1 2.418 . S
O12 C15 1.265 . S
O13 Eu1 2.384 . S
O13 C22 1.255 . S
O14 Tb0 2.366 . S
O14 C22 1.265 . S
C15 O11 1.259 . S
C15 O12 1.265 . S
O16 Eu1 2.479 . S
O16 C31 1.238 . S
O17 Eu1 2.471 . S
O17 C31 1.247 . S
O18 Eu1 2.347 . S
O18 C2 1.259 . S
O19 Tb0 2.418 . S
O19 C2 1.265 . S
O20 Tb0 2.384 . S
O20 C3 1.255 . S
O21 Eu1 2.366 . S
O21 C3 1.265 . S
C22 O13 1.255 . S
C22 O14 1.265 . S
O23 Tb0 2.479 . S
O23 C10 1.238 . S
O24 Tb0 2.471 . S
O24 C10 1.247 . S
C25 C28 1.380 . S
C25 C29 1.374 . S
C25 C31 1.507 . S
C26 C27 1.387 . S
C26 C30 1.391 . S
C27 C26 1.387 . S
C27 C28 1.384 . S
C27 H36 0.930 . S
C28 C25 1.380 . S
C28 C27 1.384 . S
C28 H37 0.931 . S
C29 C25 1.374 . S
C29 C30 1.390 . S
C29 H38 0.930 . S
C30 C26 1.391 . S
C30 C29 1.390 . S
C30 H39 0.930 . S
C31 Eu1 2.825 . S
C31 O16 1.238 . S
C31 O17 1.247 . S
C31 C25 1.507 . S
H32 C5 0.930 . S
H33 C6 0.931 . S
H34 C7 0.930 . S
H35 C8 0.930 . S
H36 C27 0.930 . S
H37 C28 0.931 . S
H38 C29 0.930 . S
H39 C30 0.930 . S
Tb40 C50 2.825 . S
Tb40 O51 2.347 . S
Tb40 O54 2.366 . S
Tb40 O59 2.418 . S
Tb40 O60 2.384 . S
Tb40 O63 2.479 . S
Tb40 O64 2.471 . S
Eu41 O52 2.418 . S
Eu41 O53 2.384 . S
Eu41 O56 2.479 . S
Eu41 O57 2.471 . S
Eu41 O58 2.347 . S
Eu41 O61 2.366 . S
Eu41 C71 2.825 . S
C42 O58 1.259 . S
C42 O59 1.265 . S
C43 O60 1.255 . S
C43 O61 1.265 . S
C44 C46 1.380 . S
C44 C47 1.374 . S
C44 C50 1.507 . S
C45 C46 1.384 . S
C45 C49 1.387 . S
C45 H72 0.930 . S
C46 C44 1.380 . S
C46 C45 1.384 . S
C46 H73 0.931 . S
C47 C44 1.374 . S
C47 C48 1.390 . S
C47 H74 0.930 . S
C48 C47 1.390 . S
C48 C49 1.391 . S
C48 H75 0.930 . S
C49 C45 1.387 . S
C49 C48 1.391 . S
C50 Tb40 2.825 . S
C50 C44 1.507 . S
C50 O63 1.238 . S
C50 O64 1.247 . S
O51 Tb40 2.347 . S
O51 C55 1.259 . S
O52 Eu41 2.418 . S
O52 C55 1.265 . S
O53 Eu41 2.384 . S
O53 C62 1.255 . S
O54 Tb40 2.366 . S
O54 C62 1.265 . S
C55 O51 1.259 . S
C55 O52 1.265 . S
O56 Eu41 2.479 . S
O56 C71 1.238 . S
O57 Eu41 2.471 . S
O57 C71 1.247 . S
O58 Eu41 2.347 . S
O58 C42 1.259 . S
O59 Tb40 2.418 . S
O59 C42 1.265 . S
O60 Tb40 2.384 . S
O60 C43 1.255 . S
O61 Eu41 2.366 . S
O61 C43 1.265 . S
C62 O53 1.255 . S
C62 O54 1.265 . S
O63 Tb40 2.479 . S
O63 C50 1.238 . S
O64 Tb40 2.471 . S
O64 C50 1.247 . S
C65 C68 1.380 . S
C65 C69 1.374 . S
C65 C71 1.507 . S
C66 C67 1.387 . S
C66 C70 1.391 . S
C67 C66 1.387 . S
C67 C68 1.384 . S
C67 H76 0.930 . S
C68 C65 1.380 . S
C68 C67 1.384 . S
C68 H77 0.931 . S
C69 C65 1.374 . S
C69 C70 1.390 . S
C69 H78 0.930 . S
C70 C66 1.391 . S
C70 C69 1.390 . S
C70 H79 0.930 . S
C71 Eu41 2.825 . S
C71 O56 1.238 . S
C71 O57 1.247 . S
C71 C65 1.507 . S
H72 C45 0.930 . S
H73 C46 0.931 . S
H74 C47 0.930 . S
H75 C48 0.930 . S
H76 C67 0.930 . S
H77 C68 0.931 . S
H78 C69 0.930 . S
H79 C70 0.930 . S
Tb80 C90 2.825 1_556 S
Tb80 O91 2.347 . S
Tb80 O94 2.366 . S
Tb80 O99 2.418 . S
Tb80 O100 2.384 . S
Tb80 O103 2.479 . S
Tb80 O104 2.471 . S
Eu81 O92 2.418 . S
Eu81 O93 2.384 . S
Eu81 O96 2.479 . S
Eu81 O97 2.471 . S
Eu81 O98 2.347 . S
Eu81 O101 2.366 . S
Eu81 C111 2.825 . S
C82 O98 1.259 . S
C82 O99 1.265 . S
C83 O100 1.255 . S
C83 O101 1.265 . S
C84 C86 1.380 . S
C84 C87 1.374 . S
C84 C90 1.507 . S
C85 C86 1.384 . S
C85 C89 1.387 . S
C85 H112 0.930 . S
C86 C84 1.380 . S
C86 C85 1.384 . S
C86 H113 0.931 . S
C87 C84 1.374 . S
C87 C88 1.390 . S
C87 H114 0.930 . S
C88 C87 1.390 . S
C88 C89 1.391 . S
C88 H115 0.930 . S
C89 C85 1.387 . S
C89 C88 1.391 . S
C90 Tb80 2.825 1_554 S
C90 C84 1.507 . S
C90 O103 1.238 1_554 S
C90 O104 1.247 1_554 S
O91 Tb80 2.347 . S
O91 C95 1.259 . S
O92 Eu81 2.418 . S
O92 C95 1.265 . S
O93 Eu81 2.384 . S
O93 C102 1.255 . S
O94 Tb80 2.366 . S
O94 C102 1.265 . S
C95 O91 1.259 . S
C95 O92 1.265 . S
O96 Eu81 2.479 . S
O96 C111 1.238 . S
O97 Eu81 2.471 . S
O97 C111 1.247 . S
O98 Eu81 2.347 . S
O98 C82 1.259 . S
O99 Tb80 2.418 . S
O99 C82 1.265 . S
O100 Tb80 2.384 . S
O100 C83 1.255 . S
O101 Eu81 2.366 . S
O101 C83 1.265 . S
C102 O93 1.255 . S
C102 O94 1.265 . S
O103 Tb80 2.479 . S
O103 C90 1.238 1_556 S
O104 Tb80 2.471 . S
O104 C90 1.247 1_556 S
C105 C108 1.380 . S
C105 C109 1.374 . S
C105 C111 1.507 . S
C106 C107 1.387 . S
C106 C110 1.391 . S
C107 C106 1.387 . S
C107 C108 1.384 . S
C107 H116 0.930 . S
C108 C105 1.380 . S
C108 C107 1.384 . S
C108 H117 0.931 . S
C109 C105 1.374 . S
C109 C110 1.390 . S
C109 H118 0.930 . S
C110 C106 1.391 . S
C110 C109 1.390 . S
C110 H119 0.930 . S
C111 Eu81 2.825 . S
C111 O96 1.238 . S
C111 O97 1.247 . S
C111 C105 1.507 . S
H112 C85 0.930 . S
H113 C86 0.931 . S
H114 C87 0.930 . S
H115 C88 0.930 . S
H116 C107 0.930 . S
H117 C108 0.931 . S
H118 C109 0.930 . S
H119 C110 0.930 . S
Tb120 C130 2.825 . S
Tb120 O131 2.347 . S
Tb120 O134 2.366 . S
Tb120 O139 2.418 . S
Tb120 O140 2.384 . S
Tb120 O143 2.479 . S
Tb120 O144 2.471 . S
Eu121 O132 2.418 . S
Eu121 O133 2.384 . S
Eu121 O136 2.479 . S
Eu121 O137 2.471 . S
Eu121 O138 2.347 . S
Eu121 O141 2.366 . S
Eu121 C151 2.825 . S
C122 O138 1.259 . S
C122 O139 1.265 . S
C123 O140 1.255 . S
C123 O141 1.265 . S
C124 C126 1.380 . S
C124 C127 1.374 . S
C124 C130 1.507 . S
C125 C126 1.384 . S
C125 C129 1.387 . S
C125 H152 0.930 . S
C126 C124 1.380 . S
C126 C125 1.384 . S
C126 H153 0.931 . S
C127 C124 1.374 . S
C127 C128 1.390 . S
C127 H154 0.930 . S
C128 C127 1.390 . S
C128 C129 1.391 . S
C128 H155 0.930 . S
C129 C125 1.387 . S
C129 C128 1.391 . S
C130 Tb120 2.825 . S
C130 C124 1.507 . S
C130 O143 1.238 . S
C130 O144 1.247 . S
O131 Tb120 2.347 . S
O131 C135 1.259 . S
O132 Eu121 2.418 . S
O132 C135 1.265 . S
O133 Eu121 2.384 . S
O133 C142 1.255 . S
O134 Tb120 2.366 . S
O134 C142 1.265 . S
C135 O131 1.259 . S
C135 O132 1.265 . S
O136 Eu121 2.479 . S
O136 C151 1.238 . S
O137 Eu121 2.471 . S
O137 C151 1.247 . S
O138 Eu121 2.347 . S
O138 C122 1.259 . S
O139 Tb120 2.418 . S
O139 C122 1.265 . S
O140 Tb120 2.384 . S
O140 C123 1.255 . S
O141 Eu121 2.366 . S
O141 C123 1.265 . S
C142 O133 1.255 . S
C142 O134 1.265 . S
O143 Tb120 2.479 . S
O143 C130 1.238 . S
O144 Tb120 2.471 . S
O144 C130 1.247 . S
C145 C148 1.380 . S
C145 C149 1.374 . S
C145 C151 1.507 . S
C146 C147 1.387 . S
C146 C150 1.391 . S
C147 C146 1.387 . S
C147 C148 1.384 . S
C147 H156 0.930 . S
C148 C145 1.380 . S
C148 C147 1.384 . S
C148 H157 0.931 . S
C149 C145 1.374 . S
C149 C150 1.390 . S
C149 H158 0.930 . S
C150 C146 1.391 . S
C150 C149 1.390 . S
C150 H159 0.930 . S
C151 Eu121 2.825 . S
C151 O136 1.238 . S
C151 O137 1.247 . S
C151 C145 1.507 . S
H152 C125 0.930 . S
H153 C126 0.931 . S
H154 C127 0.930 . S
H155 C128 0.930 . S
H156 C147 0.930 . S
H157 C148 0.931 . S
H158 C149 0.930 . S
H159 C150 0.930 . S
Tb160 C170 2.825 . S
Tb160 O171 2.347 . S
Tb160 O174 2.366 . S
Tb160 O179 2.418 . S
Tb160 O180 2.384 . S
Tb160 O183 2.479 . S
Tb160 O184 2.471 . S
Eu161 O172 2.418 . S
Eu161 O173 2.384 . S
Eu161 O176 2.479 . S
Eu161 O177 2.471 . S
Eu161 O178 2.347 . S
Eu161 O181 2.366 . S
Eu161 C191 2.825 . S
C162 O178 1.259 . S
C162 O179 1.265 . S
C163 O180 1.255 . S
C163 O181 1.265 . S
C164 C166 1.380 . S
C164 C167 1.374 . S
C164 C170 1.507 . S
C165 C166 1.384 . S
C165 C169 1.387 . S
C165 H192 0.930 . S
C166 C164 1.380 . S
C166 C165 1.384 . S
C166 H193 0.931 . S
C167 C164 1.374 . S
C167 C168 1.390 . S
C167 H194 0.930 . S
C168 C167 1.390 . S
C168 C169 1.391 . S
C168 H195 0.930 . S
C169 C165 1.387 . S
C169 C168 1.391 . S
C170 Tb160 2.825 . S
C170 C164 1.507 . S
C170 O183 1.238 . S
C170 O184 1.247 . S
O171 Tb160 2.347 . S
O171 C175 1.259 . S
O172 Eu161 2.418 . S
O172 C175 1.265 . S
O173 Eu161 2.384 . S
O173 C182 1.255 . S
O174 Tb160 2.366 . S
O174 C182 1.265 . S
C175 O171 1.259 . S
C175 O172 1.265 . S
O176 Eu161 2.479 . S
O176 C191 1.238 . S
O177 Eu161 2.471 . S
O177 C191 1.247 . S
O178 Eu161 2.347 . S
O178 C162 1.259 . S
O179 Tb160 2.418 . S
O179 C162 1.265 . S
O180 Tb160 2.384 . S
O180 C163 1.255 . S
O181 Eu161 2.366 . S
O181 C163 1.265 . S
C182 O173 1.255 . S
C182 O174 1.265 . S
O183 Tb160 2.479 . S
O183 C170 1.238 . S
O184 Tb160 2.471 . S
O184 C170 1.247 . S
C185 C188 1.380 . S
C185 C189 1.374 . S
C185 C191 1.507 . S
C186 C187 1.387 . S
C186 C190 1.391 . S
C187 C186 1.387 . S
C187 C188 1.384 . S
C187 H196 0.930 . S
C188 C185 1.380 . S
C188 C187 1.384 . S
C188 H197 0.931 . S
C189 C185 1.374 . S
C189 C190 1.390 . S
C189 H198 0.930 . S
C190 C186 1.391 . S
C190 C189 1.390 . S
C190 H199 0.930 . S
C191 Eu161 2.825 . S
C191 O176 1.238 . S
C191 O177 1.247 . S
C191 C185 1.507 . S
H192 C165 0.930 . S
H193 C166 0.931 . S
H194 C167 0.930 . S
H195 C168 0.930 . S
H196 C187 0.930 . S
H197 C188 0.931 . S
H198 C189 0.930 . S
H199 C190 0.930 . S
Tb200 C210 2.825 1_556 S
Tb200 O211 2.347 . S
Tb200 O214 2.366 . S
Tb200 O219 2.418 . S
Tb200 O220 2.384 . S
Tb200 O223 2.479 . S
Tb200 O224 2.471 . S
Eu201 O212 2.418 . S
Eu201 O213 2.384 . S
Eu201 O216 2.479 . S
Eu201 O217 2.471 . S
Eu201 O218 2.347 . S
Eu201 O221 2.366 . S
Eu201 C231 2.825 . S
C202 O218 1.259 . S
C202 O219 1.265 . S
C203 O220 1.255 . S
C203 O221 1.265 . S
C204 C206 1.380 . S
C204 C207 1.374 . S
C204 C210 1.507 . S
C205 C206 1.384 . S
C205 C209 1.387 . S
C205 H232 0.930 . S
C206 C204 1.380 . S
C206 C205 1.384 . S
C206 H233 0.931 . S
C207 C204 1.374 . S
C207 C208 1.390 . S
C207 H234 0.930 . S
C208 C207 1.390 . S
C208 C209 1.391 . S
C208 H235 0.930 . S
C209 C205 1.387 . S
C209 C208 1.391 . S
C210 Tb200 2.825 1_554 S
C210 C204 1.507 . S
C210 O223 1.238 1_554 S
C210 O224 1.247 1_554 S
O211 Tb200 2.347 . S
O211 C215 1.259 . S
O212 Eu201 2.418 . S
O212 C215 1.265 . S
O213 Eu201 2.384 . S
O213 C222 1.255 . S
O214 Tb200 2.366 . S
O214 C222 1.265 . S
C215 O211 1.259 . S
C215 O212 1.265 . S
O216 Eu201 2.479 . S
O216 C231 1.238 . S
O217 Eu201 2.471 . S
O217 C231 1.247 . S
O218 Eu201 2.347 . S
O218 C202 1.259 . S
O219 Tb200 2.418 . S
O219 C202 1.265 . S
O220 Tb200 2.384 . S
O220 C203 1.255 . S
O221 Eu201 2.366 . S
O221 C203 1.265 . S
C222 O213 1.255 . S
C222 O214 1.265 . S
O223 Tb200 2.479 . S
O223 C210 1.238 1_556 S
O224 Tb200 2.471 . S
O224 C210 1.247 1_556 S
C225 C228 1.380 . S
C225 C229 1.374 . S
C225 C231 1.507 . S
C226 C227 1.387 . S
C226 C230 1.391 . S
C227 C226 1.387 . S
C227 C228 1.384 . S
C227 H236 0.930 . S
C228 C225 1.380 . S
C228 C227 1.384 . S
C228 H237 0.931 . S
C229 C225 1.374 . S
C229 C230 1.390 . S
C229 H238 0.930 . S
C230 C226 1.391 . S
C230 C229 1.390 . S
C230 H239 0.930 . S
C231 Eu201 2.825 . S
C231 O216 1.238 . S
C231 O217 1.247 . S
C231 C225 1.507 . S
H232 C205 0.930 . S
H233 C206 0.931 . S
H234 C207 0.930 . S
H235 C208 0.930 . S
H236 C227 0.930 . S
H237 C228 0.931 . S
H238 C229 0.930 . S
H239 C230 0.930 . S
Tb240 C250 2.825 . S
Tb240 O251 2.347 . S
Tb240 O254 2.366 . S
Tb240 O259 2.418 . S
Tb240 O260 2.384 . S
Tb240 O263 2.479 . S
Tb240 O264 2.471 . S
Eu241 O252 2.418 . S
Eu241 O253 2.384 . S
Eu241 O256 2.479 . S
Eu241 O257 2.471 . S
Eu241 O258 2.347 . S
Eu241 O261 2.366 . S
Eu241 C271 2.825 . S
C242 O258 1.259 . S
C242 O259 1.265 . S
C243 O260 1.255 . S
C243 O261 1.265 . S
C244 C246 1.380 . S
C244 C247 1.374 . S
C244 C250 1.507 . S
C245 C246 1.384 . S
C245 C249 1.387 . S
C245 H272 0.930 . S
C246 C244 1.380 . S
C246 C245 1.384 . S
C246 H273 0.931 . S
C247 C244 1.374 . S
C247 C248 1.390 . S
C247 H274 0.930 . S
C248 C247 1.390 . S
C248 C249 1.391 . S
C248 H275 0.930 . S
C249 C245 1.387 . S
C249 C248 1.391 . S
C250 Tb240 2.825 . S
C250 C244 1.507 . S
C250 O263 1.238 . S
C250 O264 1.247 . S
O251 Tb240 2.347 . S
O251 C255 1.259 . S
O252 Eu241 2.418 . S
O252 C255 1.265 . S
O253 Eu241 2.384 . S
O253 C262 1.255 . S
O254 Tb240 2.366 . S
O254 C262 1.265 . S
C255 O251 1.259 . S
C255 O252 1.265 . S
O256 Eu241 2.479 . S
O256 C271 1.238 . S
O257 Eu241 2.471 . S
O257 C271 1.247 . S
O258 Eu241 2.347 . S
O258 C242 1.259 . S
O259 Tb240 2.418 . S
O259 C242 1.265 . S
O260 Tb240 2.384 . S
O260 C243 1.255 . S
O261 Eu241 2.366 . S
O261 C243 1.265 . S
C262 O253 1.255 . S
C262 O254 1.265 . S
O263 Tb240 2.479 . S
O263 C250 1.238 . S
O264 Tb240 2.471 . S
O264 C250 1.247 . S
C265 C268 1.380 . S
C265 C269 1.374 . S
C265 C271 1.507 . S
C266 C267 1.387 . S
C266 C270 1.391 . S
C267 C266 1.387 . S
C267 C268 1.384 . S
C267 H276 0.930 . S
C268 C265 1.380 . S
C268 C267 1.384 . S
C268 H277 0.931 . S
C269 C265 1.374 . S
C269 C270 1.390 . S
C269 H278 0.930 . S
C270 C266 1.391 . S
C270 C269 1.390 . S
C270 H279 0.930 . S
C271 Eu241 2.825 . S
C271 O256 1.238 . S
C271 O257 1.247 . S
C271 C265 1.507 . S
H272 C245 0.930 . S
H273 C246 0.931 . S
H274 C247 0.930 . S
H275 C248 0.930 . S
H276 C267 0.930 . S
H277 C268 0.931 . S
H278 C269 0.930 . S
H279 C270 0.930 . S
Tb280 C290 2.825 . S
Tb280 O291 2.347 . S
Tb280 O294 2.366 . S
Tb280 O299 2.418 . S
Tb280 O300 2.384 . S
Tb280 O303 2.479 . S
Tb280 O304 2.471 . S
Eu281 O292 2.418 . S
Eu281 O293 2.384 . S
Eu281 O296 2.479 . S
Eu281 O297 2.471 . S
Eu281 O298 2.347 . S
Eu281 O301 2.366 . S
Eu281 C311 2.825 . S
C282 O298 1.259 . S
C282 O299 1.265 . S
C283 O300 1.255 . S
C283 O301 1.265 . S
C284 C286 1.380 . S
C284 C287 1.374 . S
C284 C290 1.507 . S
C285 C286 1.384 . S
C285 C289 1.387 . S
C285 H312 0.930 . S
C286 C284 1.380 . S
C286 C285 1.384 . S
C286 H313 0.931 . S
C287 C284 1.374 . S
C287 C288 1.390 . S
C287 H314 0.930 . S
C288 C287 1.390 . S
C288 C289 1.391 . S
C288 H315 0.930 . S
C289 C285 1.387 . S
C289 C288 1.391 . S
C290 Tb280 2.825 . S
C290 C284 1.507 . S
C290 O303 1.238 . S
C290 O304 1.247 . S
O291 Tb280 2.347 . S
O291 C295 1.259 . S
O292 Eu281 2.418 . S
O292 C295 1.265 . S
O293 Eu281 2.384 . S
O293 C302 1.255 . S
O294 Tb280 2.366 . S
O294 C302 1.265 . S
C295 O291 1.259 . S
C295 O292 1.265 . S
O296 Eu281 2.479 . S
O296 C311 1.238 . S
O297 Eu281 2.471 . S
O297 C311 1.247 . S
O298 Eu281 2.347 . S
O298 C282 1.259 . S
O299 Tb280 2.418 . S
O299 C282 1.265 . S
O300 Tb280 2.384 . S
O300 C283 1.255 . S
O301 Eu281 2.366 . S
O301 C283 1.265 . S
C302 O293 1.255 . S
C302 O294 1.265 . S
O303 Tb280 2.479 . S
O303 C290 1.238 . S
O304 Tb280 2.471 . S
O304 C290 1.247 . S
C305 C308 1.380 . S
C305 C309 1.374 . S
C305 C311 1.507 . S
C306 C307 1.387 . S
C306 C310 1.391 . S
C307 C306 1.387 . S
C307 C308 1.384 . S
C307 H316 0.930 . S
C308 C305 1.380 . S
C308 C307 1.384 . S
C308 H317 0.931 . S
C309 C305 1.374 . S
C309 C310 1.390 . S
C309 H318 0.930 . S
C310 C306 1.391 . S
C310 C309 1.390 . S
C310 H319 0.930 . S
C311 Eu281 2.825 . S
C311 O296 1.238 . S
C311 O297 1.247 . S
C311 C305 1.507 . S
H312 C285 0.930 . S
H313 C286 0.931 . S
H314 C287 0.930 . S
H315 C288 0.930 . S
H316 C307 0.930 . S
H317 C308 0.931 . S
H318 C309 0.930 . S
H319 C310 0.930 . S
Tb320 C330 2.825 1_554 S
Tb320 O331 2.347 . S
Tb320 O334 2.366 . S
Tb320 O339 2.418 . S
Tb320 O340 2.384 . S
Tb320 O343 2.479 . S
Tb320 O344 2.471 . S
Eu321 O332 2.418 . S
Eu321 O333 2.384 . S
Eu321 O336 2.479 . S
Eu321 O337 2.471 . S
Eu321 O338 2.347 . S
Eu321 O341 2.366 . S
Eu321 C351 2.825 . S
C322 O338 1.259 . S
C322 O339 1.265 . S
C323 O340 1.255 . S
C323 O341 1.265 . S
C324 C326 1.380 . S
C324 C327 1.374 . S
C324 C330 1.507 . S
C325 C326 1.384 . S
C325 C329 1.387 . S
C325 H352 0.930 . S
C326 C324 1.380 . S
C326 C325 1.384 . S
C326 H353 0.931 . S
C327 C324 1.374 . S
C327 C328 1.390 . S
C327 H354 0.930 . S
C328 C327 1.390 . S
C328 C329 1.391 . S
C328 H355 0.930 . S
C329 C325 1.387 . S
C329 C328 1.391 . S
C330 Tb320 2.825 1_556 S
C330 C324 1.507 . S
C330 O343 1.238 1_556 S
C330 O344 1.247 1_556 S
O331 Tb320 2.347 . S
O331 C335 1.259 . S
O332 Eu321 2.418 . S
O332 C335 1.265 . S
O333 Eu321 2.384 . S
O333 C342 1.255 . S
O334 Tb320 2.366 . S
O334 C342 1.265 . S
C335 O331 1.259 . S
C335 O332 1.265 . S
O336 Eu321 2.479 . S
O336 C351 1.238 . S
O337 Eu321 2.471 . S
O337 C351 1.247 . S
O338 Eu321 2.347 . S
O338 C322 1.259 . S
O339 Tb320 2.418 . S
O339 C322 1.265 . S
O340 Tb320 2.384 . S
O340 C323 1.255 . S
O341 Eu321 2.366 . S
O341 C323 1.265 . S
C342 O333 1.255 . S
C342 O334 1.265 . S
O343 Tb320 2.479 . S
O343 C330 1.238 1_554 S
O344 Tb320 2.471 . S
O344 C330 1.247 1_554 S
C345 C348 1.380 . S
C345 C349 1.374 . S
C345 C351 1.507 . S
C346 C347 1.387 . S
C346 C350 1.391 . S
C347 C346 1.387 . S
C347 C348 1.384 . S
C347 H356 0.930 . S
C348 C345 1.380 . S
C348 C347 1.384 . S
C348 H357 0.931 . S
C349 C345 1.374 . S
C349 C350 1.390 . S
C349 H358 0.930 . S
C350 C346 1.391 . S
C350 C349 1.390 . S
C350 H359 0.930 . S
C351 Eu321 2.825 . S
C351 O336 1.238 . S
C351 O337 1.247 . S
C351 C345 1.507 . S
H352 C325 0.930 . S
H353 C326 0.931 . S
H354 C327 0.930 . S
H355 C328 0.930 . S
H356 C347 0.930 . S
H357 C348 0.931 . S
H358 C349 0.930 . S
H359 C350 0.930 . S
Tb360 C370 2.825 . S
Tb360 O371 2.347 . S
Tb360 O374 2.366 . S
Tb360 O379 2.418 . S
Tb360 O380 2.384 . S
Tb360 O383 2.479 . S
Tb360 O384 2.471 . S
Eu361 O372 2.418 . S
Eu361 O373 2.384 . S
Eu361 O376 2.479 . S
Eu361 O377 2.471 . S
Eu361 O378 2.347 . S
Eu361 O381 2.366 . S
Eu361 C391 2.825 . S
C362 O378 1.259 . S
C362 O379 1.265 . S
C363 O380 1.255 . S
C363 O381 1.265 . S
C364 C366 1.380 . S
C364 C367 1.374 . S
C364 C370 1.507 . S
C365 C366 1.384 . S
C365 C369 1.387 . S
C365 H392 0.930 . S
C366 C364 1.380 . S
C366 C365 1.384 . S
C366 H393 0.931 . S
C367 C364 1.374 . S
C367 C368 1.390 . S
C367 H394 0.930 . S
C368 C367 1.390 . S
C368 C369 1.391 . S
C368 H395 0.930 . S
C369 C365 1.387 . S
C369 C368 1.391 . S
C370 Tb360 2.825 . S
C370 C364 1.507 . S
C370 O383 1.238 . S
C370 O384 1.247 . S
O371 Tb360 2.347 . S
O371 C375 1.259 . S
O372 Eu361 2.418 . S
O372 C375 1.265 . S
O373 Eu361 2.384 . S
O373 C382 1.255 . S
O374 Tb360 2.366 . S
O374 C382 1.265 . S
C375 O371 1.259 . S
C375 O372 1.265 . S
O376 Eu361 2.479 . S
O376 C391 1.238 . S
O377 Eu361 2.471 . S
O377 C391 1.247 . S
O378 Eu361 2.347 . S
O378 C362 1.259 . S
O379 Tb360 2.418 . S
O379 C362 1.265 . S
O380 Tb360 2.384 . S
O380 C363 1.255 . S
O381 Eu361 2.366 . S
O381 C363 1.265 . S
C382 O373 1.255 . S
C382 O374 1.265 . S
O383 Tb360 2.479 . S
O383 C370 1.238 . S
O384 Tb360 2.471 . S
O384 C370 1.247 . S
C385 C388 1.380 . S
C385 C389 1.374 . S
C385 C391 1.507 . S
C386 C387 1.387 . S
C386 C390 1.391 . S
C387 C386 1.387 . S
C387 C388 1.384 . S
C387 H396 0.930 . S
C388 C385 1.380 . S
C388 C387 1.384 . S
C388 H397 0.931 . S
C389 C385 1.374 . S
C389 C390 1.390 . S
C389 H398 0.930 . S
C390 C386 1.391 . S
C390 C389 1.390 . S
C390 H399 0.930 . S
C391 Eu361 2.825 . S
C391 O376 1.238 . S
C391 O377 1.247 . S
C391 C385 1.507 . S
H392 C365 0.930 . S
H393 C366 0.931 . S
H394 C367 0.930 . S
H395 C368 0.930 . S
H396 C387 0.930 . S
H397 C388 0.931 . S
H398 C389 0.930 . S
H399 C390 0.930 . S
Tb400 C410 2.825 . S
Tb400 O411 2.347 . S
Tb400 O414 2.366 . S
Tb400 O419 2.418 . S
Tb400 O420 2.384 . S
Tb400 O423 2.479 . S
Tb400 O424 2.471 . S
Eu401 O412 2.418 . S
Eu401 O413 2.384 . S
Eu401 O416 2.479 . S
Eu401 O417 2.471 . S
Eu401 O418 2.347 . S
Eu401 O421 2.366 . S
Eu401 C431 2.825 . S
C402 O418 1.259 . S
C402 O419 1.265 . S
C403 O420 1.255 . S
C403 O421 1.265 . S
C404 C406 1.380 . S
C404 C407 1.374 . S
C404 C410 1.507 . S
C405 C406 1.384 . S
C405 C409 1.387 . S
C405 H432 0.930 . S
C406 C404 1.380 . S
C406 C405 1.384 . S
C406 H433 0.931 . S
C407 C404 1.374 . S
C407 C408 1.390 . S
C407 H434 0.930 . S
C408 C407 1.390 . S
C408 C409 1.391 . S
C408 H435 0.930 . S
C409 C405 1.387 . S
C409 C408 1.391 . S
C410 Tb400 2.825 . S
C410 C404 1.507 . S
C410 O423 1.238 . S
C410 O424 1.247 . S
O411 Tb400 2.347 . S
O411 C415 1.259 . S
O412 Eu401 2.418 . S
O412 C415 1.265 . S
O413 Eu401 2.384 . S
O413 C422 1.255 . S
O414 Tb400 2.366 . S
O414 C422 1.265 . S
C415 O411 1.259 . S
C415 O412 1.265 . S
O416 Eu401 2.479 . S
O416 C431 1.238 . S
O417 Eu401 2.471 . S
O417 C431 1.247 . S
O418 Eu401 2.347 . S
O418 C402 1.259 . S
O419 Tb400 2.418 . S
O419 C402 1.265 . S
O420 Tb400 2.384 . S
O420 C403 1.255 . S
O421 Eu401 2.366 . S
O421 C403 1.265 . S
C422 O413 1.255 . S
C422 O414 1.265 . S
O423 Tb400 2.479 . S
O423 C410 1.238 . S
O424 Tb400 2.471 . S
O424 C410 1.247 . S
C425 C428 1.380 . S
C425 C429 1.374 . S
C425 C431 1.507 . S
C426 C427 1.387 . S
C426 C430 1.391 . S
C427 C426 1.387 . S
C427 C428 1.384 . S
C427 H436 0.930 . S
C428 C425 1.380 . S
C428 C427 1.384 . S
C428 H437 0.931 . S
C429 C425 1.374 . S
C429 C430 1.390 . S
C429 H438 0.930 . S
C430 C426 1.391 . S
C430 C429 1.390 . S
C430 H439 0.930 . S
C431 Eu401 2.825 . S
C431 O416 1.238 . S
C431 O417 1.247 . S
C431 C425 1.507 . S
H432 C405 0.930 . S
H433 C406 0.931 . S
H434 C407 0.930 . S
H435 C408 0.930 . S
H436 C427 0.930 . S
H437 C428 0.931 . S
H438 C429 0.930 . S
H439 C430 0.930 . S
Tb440 C450 2.825 1_554 S
Tb440 O451 2.347 . S
Tb440 O454 2.366 . S
Tb440 O459 2.418 . S
Tb440 O460 2.384 . S
Tb440 O463 2.479 . S
Tb440 O464 2.471 . S
Eu441 O452 2.418 . S
Eu441 O453 2.384 . S
Eu441 O456 2.479 . S
Eu441 O457 2.471 . S
Eu441 O458 2.347 . S
Eu441 O461 2.366 . S
Eu441 C471 2.825 . S
C442 O458 1.259 . S
C442 O459 1.265 . S
C443 O460 1.255 . S
C443 O461 1.265 . S
C444 C446 1.380 . S
C444 C447 1.374 . S
C444 C450 1.507 . S
C445 C446 1.384 . S
C445 C449 1.387 . S
C445 H472 0.930 . S
C446 C444 1.380 . S
C446 C445 1.384 . S
C446 H473 0.931 . S
C447 C444 1.374 . S
C447 C448 1.390 . S
C447 H474 0.930 . S
C448 C447 1.390 . S
C448 C449 1.391 . S
C448 H475 0.930 . S
C449 C445 1.387 . S
C449 C448 1.391 . S
C450 Tb440 2.825 1_556 S
C450 C444 1.507 . S
C450 O463 1.238 1_556 S
C450 O464 1.247 1_556 S
O451 Tb440 2.347 . S
O451 C455 1.259 . S
O452 Eu441 2.418 . S
O452 C455 1.265 . S
O453 Eu441 2.384 . S
O453 C462 1.255 . S
O454 Tb440 2.366 . S
O454 C462 1.265 . S
C455 O451 1.259 . S
C455 O452 1.265 . S
O456 Eu441 2.479 . S
O456 C471 1.238 . S
O457 Eu441 2.471 . S
O457 C471 1.247 . S
O458 Eu441 2.347 . S
O458 C442 1.259 . S
O459 Tb440 2.418 . S
O459 C442 1.265 . S
O460 Tb440 2.384 . S
O460 C443 1.255 . S
O461 Eu441 2.366 . S
O461 C443 1.265 . S
C462 O453 1.255 . S
C462 O454 1.265 . S
O463 Tb440 2.479 . S
O463 C450 1.238 1_554 S
O464 Tb440 2.471 . S
O464 C450 1.247 1_554 S
C465 C468 1.380 . S
C465 C469 1.374 . S
C465 C471 1.507 . S
C466 C467 1.387 . S
C466 C470 1.391 . S
C467 C466 1.387 . S
C467 C468 1.384 . S
C467 H476 0.930 . S
C468 C465 1.380 . S
C468 C467 1.384 . S
C468 H477 0.931 . S
C469 C465 1.374 . S
C469 C470 1.390 . S
C469 H478 0.930 . S
C470 C466 1.391 . S
C470 C469 1.390 . S
C470 H479 0.930 . S
C471 Eu441 2.825 . S
C471 O456 1.238 . S
C471 O457 1.247 . S
C471 C465 1.507 . S
H472 C445 0.930 . S
H473 C446 0.931 . S
H474 C447 0.930 . S
H475 C448 0.930 . S
H476 C467 0.930 . S
H477 C468 0.931 . S
H478 C469 0.930 . S
H479 C470 0.930 . S
H480 C492 0.930 . S
H481 C494 0.930 . S
H482 C495 0.930 . S
H483 C499 0.959 . S
H484 C499 0.959 . S
H485 C499 0.961 . S
H486 C500 0.960 . S
H487 C500 0.961 . S
H488 C500 0.959 . S
H489 C503 0.929 . S
H490 C504 0.931 . S
H491 C506 0.930 . S
C492 H480 0.930 . S
C492 C493 1.399 . S
C492 C497 1.399 . S
C493 C492 1.399 . S
C493 C494 1.376 . S
C494 H481 0.930 . S
C494 C493 1.376 . S
C494 C495 1.388 . S
C495 H482 0.930 . S
C495 C494 1.388 . S
C495 C496 1.390 . S
C496 C495 1.390 . S
C496 C497 1.394 . S
C496 C502 1.465 . S
C497 C492 1.399 . S
C497 C496 1.394 . S
C497 C498 1.516 . S
C498 C497 1.516 . S
C498 C499 1.502 . S
C498 C500 1.561 . S
C498 C501 1.526 . S
C499 H483 0.959 . S
C499 H484 0.959 . S
C499 H485 0.961 . S
C499 C498 1.502 . S
C500 H486 0.960 . S
C500 H487 0.961 . S
C500 H488 0.959 . S
C500 C498 1.561 . S
C501 C498 1.526 . S
C501 C502 1.396 . S
C501 C506 1.390 . S
C502 C496 1.465 . S
C502 C501 1.396 . S
C502 C503 1.399 . S
C503 H489 0.929 . S
C503 C502 1.399 . S
C503 C504 1.385 . S
C504 H490 0.931 . S
C504 C503 1.385 . S
C504 C505 1.389 . S
C505 C504 1.389 . S
C505 C506 1.387 . S
C506 H491 0.930 . S
C506 C501 1.390 . S
C506 C505 1.387 . S
H507 C519 0.930 . S
H508 C521 0.930 . S
H509 C522 0.930 . S
H510 C526 0.959 . S
H511 C526 0.959 . S
H512 C526 0.961 . S
H513 C527 0.960 . S
H514 C527 0.961 . S
H515 C527 0.959 . S
H516 C530 0.929 . S
H517 C531 0.931 . S
H518 C533 0.930 . S
C519 H507 0.930 . S
C519 C520 1.399 . S
C519 C524 1.399 . S
C520 C519 1.399 . S
C520 C521 1.376 . S
C521 H508 0.930 . S
C521 C520 1.376 . S
C521 C522 1.388 . S
C522 H509 0.930 . S
C522 C521 1.388 . S
C522 C523 1.390 . S
C523 C522 1.390 . S
C523 C524 1.394 . S
C523 C529 1.465 . S
C524 C519 1.399 . S
C524 C523 1.394 . S
C524 C525 1.516 . S
C525 C524 1.516 . S
C525 C526 1.502 . S
C525 C527 1.561 . S
C525 C528 1.526 . S
C526 H510 0.959 . S
C526 H511 0.959 . S
C526 H512 0.961 . S
C526 C525 1.502 . S
C527 H513 0.960 . S
C527 H514 0.961 . S
C527 H515 0.959 . S
C527 C525 1.561 . S
C528 C525 1.526 . S
C528 C529 1.396 . S
C528 C533 1.390 . S
C529 C523 1.465 . S
C529 C528 1.396 . S
C529 C530 1.399 . S
C530 H516 0.929 . S
C530 C529 1.399 . S
C530 C531 1.385 . S
C531 H517 0.931 . S
C531 C530 1.385 . S
C531 C532 1.389 . S
C532 C531 1.389 . S
C532 C533 1.387 . S
C533 H518 0.930 . S
C533 C528 1.390 . S
C533 C532 1.387 . S
H534 C546 0.930 . S
H535 C548 0.930 . S
H536 C549 0.930 . S
H537 C553 0.959 . S
H538 C553 0.959 . S
H539 C553 0.961 . S
H540 C554 0.960 . S
H541 C554 0.961 . S
H542 C554 0.959 . S
H543 C557 0.929 . S
H544 C558 0.931 . S
H545 C560 0.930 . S
C546 H534 0.930 . S
C546 C547 1.399 . S
C546 C551 1.399 . S
C547 C546 1.399 . S
C547 C548 1.376 . S
C548 H535 0.930 . S
C548 C547 1.376 . S
C548 C549 1.388 . S
C549 H536 0.930 . S
C549 C548 1.388 . S
C549 C550 1.390 . S
C550 C549 1.390 . S
C550 C551 1.394 . S
C550 C556 1.465 . S
C551 C546 1.399 . S
C551 C550 1.394 . S
C551 C552 1.516 . S
C552 C551 1.516 . S
C552 C553 1.502 . S
C552 C554 1.561 . S
C552 C555 1.526 . S
C553 H537 0.959 . S
C553 H538 0.959 . S
C553 H539 0.961 . S
C553 C552 1.502 . S
C554 H540 0.960 . S
C554 H541 0.961 . S
C554 H542 0.959 . S
C554 C552 1.561 . S
C555 C552 1.526 . S
C555 C556 1.396 . S
C555 C560 1.390 . S
C556 C550 1.465 . S
C556 C555 1.396 . S
C556 C557 1.399 . S
C557 H543 0.929 . S
C557 C556 1.399 . S
C557 C558 1.385 . S
C558 H544 0.931 . S
C558 C557 1.385 . S
C558 C559 1.389 . S
C559 C558 1.389 . S
C559 C560 1.387 . S
C560 H545 0.930 . S
C560 C555 1.390 . S
C560 C559 1.387 . S
H561 C573 0.930 . S
H562 C575 0.930 . S
H563 C576 0.930 . S
H564 C580 0.959 . S
H565 C580 0.959 . S
H566 C580 0.961 . S
H567 C581 0.960 . S
H568 C581 0.961 . S
H569 C581 0.959 . S
H570 C584 0.929 . S
H571 C585 0.931 . S
H572 C587 0.930 . S
C573 H561 0.930 . S
C573 C574 1.399 . S
C573 C578 1.399 . S
C574 C573 1.399 . S
C574 C575 1.376 . S
C575 H562 0.930 . S
C575 C574 1.376 . S
C575 C576 1.388 . S
C576 H563 0.930 . S
C576 C575 1.388 . S
C576 C577 1.390 . S
C577 C576 1.390 . S
C577 C578 1.394 . S
C577 C583 1.465 . S
C578 C573 1.399 . S
C578 C577 1.394 . S
C578 C579 1.516 . S
C579 C578 1.516 . S
C579 C580 1.502 . S
C579 C581 1.561 . S
C579 C582 1.526 . S
C580 H564 0.959 . S
C580 H565 0.959 . S
C580 H566 0.961 . S
C580 C579 1.502 . S
C581 H567 0.960 . S
C581 H568 0.961 . S
C581 H569 0.959 . S
C581 C579 1.561 . S
C582 C579 1.526 . S
C582 C583 1.396 . S
C582 C587 1.390 . S
C583 C577 1.465 . S
C583 C582 1.396 . S
C583 C584 1.399 . S
C584 H570 0.929 . S
C584 C583 1.399 . S
C584 C585 1.385 . S
C585 H571 0.931 . S
C585 C584 1.385 . S
C585 C586 1.389 . S
C586 C585 1.389 . S
C586 C587 1.387 . S
C587 H572 0.930 . S
C587 C582 1.390 . S
C587 C586 1.387 . S
H588 C600 0.930 . S
H589 C602 0.930 . S
H590 C603 0.930 . S
H591 C607 0.959 . S
H592 C607 0.959 . S
H593 C607 0.961 . S
H594 C608 0.960 . S
H595 C608 0.961 . S
H596 C608 0.959 . S
H597 C611 0.929 . S
H598 C612 0.931 . S
H599 C614 0.930 . S
C600 H588 0.930 . S
C600 C601 1.399 . S
C600 C605 1.399 . S
C601 C600 1.399 . S
C601 C602 1.376 . S
C602 H589 0.930 . S
C602 C601 1.376 . S
C602 C603 1.388 . S
C603 H590 0.930 . S
C603 C602 1.388 . S
C603 C604 1.390 . S
C604 C603 1.390 . S
C604 C605 1.394 . S
C604 C610 1.465 . S
C605 C600 1.399 . S
C605 C604 1.394 . S
C605 C606 1.516 . S
C606 C605 1.516 . S
C606 C607 1.502 . S
C606 C608 1.561 . S
C606 C609 1.526 . S
C607 H591 0.959 . S
C607 H592 0.959 . S
C607 H593 0.961 . S
C607 C606 1.502 . S
C608 H594 0.960 . S
C608 H595 0.961 . S
C608 H596 0.959 . S
C608 C606 1.561 . S
C609 C606 1.526 . S
C609 C610 1.396 . S
C609 C614 1.390 . S
C610 C604 1.465 . S
C610 C609 1.396 . S
C610 C611 1.399 . S
C611 H597 0.929 . S
C611 C610 1.399 . S
C611 C612 1.385 . S
C612 H598 0.931 . S
C612 C611 1.385 . S
C612 C613 1.389 . S
C613 C612 1.389 . S
C613 C614 1.387 . S
C614 H599 0.930 . S
C614 C609 1.390 . S
C614 C613 1.387 . S
H615 C627 0.930 . S
H616 C629 0.930 . S
H617 C630 0.930 . S
H618 C634 0.959 . S
H619 C634 0.959 . S
H620 C634 0.961 . S
H621 C635 0.960 . S
H622 C635 0.961 . S
H623 C635 0.959 . S
H624 C638 0.929 . S
H625 C639 0.931 . S
H626 C641 0.930 . S
C627 H615 0.930 . S
C627 C628 1.399 . S
C627 C632 1.399 . S
C628 C627 1.399 . S
C628 C629 1.376 . S
C629 H616 0.930 . S
C629 C628 1.376 . S
C629 C630 1.388 . S
C630 H617 0.930 . S
C630 C629 1.388 . S
C630 C631 1.390 . S
C631 C630 1.390 . S
C631 C632 1.394 . S
C631 C637 1.465 . S
C632 C627 1.399 . S
C632 C631 1.394 . S
C632 C633 1.516 . S
C633 C632 1.516 . S
C633 C634 1.502 . S
C633 C635 1.561 . S
C633 C636 1.526 . S
C634 H618 0.959 . S
C634 H619 0.959 . S
C634 H620 0.961 . S
C634 C633 1.502 . S
C635 H621 0.960 . S
C635 H622 0.961 . S
C635 H623 0.959 . S
C635 C633 1.561 . S
C636 C633 1.526 . S
C636 C637 1.396 . S
C636 C641 1.390 . S
C637 C631 1.465 . S
C637 C636 1.396 . S
C637 C638 1.399 . S
C638 H624 0.929 . S
C638 C637 1.399 . S
C638 C639 1.385 . S
C639 H625 0.931 . S
C639 C638 1.385 . S
C639 C640 1.389 . S
C640 C639 1.389 . S
C640 C641 1.387 . S
C641 H626 0.930 . S
C641 C636 1.390 . S
C641 C640 1.387 . S
H642 C654 0.930 . S
H643 C656 0.930 . S
H644 C657 0.930 1_554 S
H645 C661 0.959 . S
H646 C661 0.959 . S
H647 C661 0.961 . S
H648 C662 0.960 . S
H649 C662 0.963 . S
H650 C662 0.959 1_554 S
H651 C665 0.929 . S
H652 C666 0.931 . S
H653 C668 0.930 . S
C654 H642 0.930 . S
C654 C655 1.399 . S
C654 C659 1.399 . S
C655 C654 1.399 . S
C655 C656 1.376 . S
C656 H643 0.930 . S
C656 C655 1.376 . S
C656 C657 1.388 . S
C657 H644 0.930 1_556 S
C657 C656 1.388 . S
C657 C658 1.390 . S
C658 C657 1.390 . S
C658 C659 1.394 . S
C658 C664 1.465 1_556 S
C659 C654 1.399 . S
C659 C658 1.394 . S
C659 C660 1.516 . S
C660 C659 1.516 . S
C660 C661 1.502 . S
C660 C662 1.561 . S
C660 C663 1.526 1_556 S
C661 H645 0.959 . S
C661 H646 0.959 . S
C661 H647 0.961 . S
C661 C660 1.502 . S
C662 H648 0.960 . S
C662 H649 0.963 . S
C662 H650 0.959 1_556 S
C662 C660 1.561 . S
C663 C660 1.526 1_554 S
C663 C664 1.396 . S
C663 C668 1.390 . S
C664 C658 1.465 1_554 S
C664 C663 1.396 . S
C664 C665 1.399 . S
C665 H651 0.929 . S
C665 C664 1.399 . S
C665 C666 1.385 . S
C666 H652 0.931 . S
C666 C665 1.385 . S
C666 C667 1.389 . S
C667 C666 1.389 . S
C667 C668 1.387 . S
C668 H653 0.930 . S
C668 C663 1.390 . S
C668 C667 1.387 . S
H669 C681 0.930 . S
H670 C683 0.930 . S
H671 C684 0.930 . S
H672 C688 0.959 . S
H673 C688 0.959 . S
H674 C688 0.961 . S
H675 C689 0.960 . S
H676 C689 0.961 . S
H677 C689 0.959 . S
H678 C692 0.929 . S
H679 C693 0.931 . S
H680 C695 0.930 . S
C681 H669 0.930 . S
C681 C682 1.399 . S
C681 C686 1.399 . S
C682 C681 1.399 . S
C682 C683 1.376 . S
C683 H670 0.930 . S
C683 C682 1.376 . S
C683 C684 1.388 . S
C684 H671 0.930 . S
C684 C683 1.388 . S
C684 C685 1.390 . S
C685 C684 1.390 . S
C685 C686 1.394 . S
C685 C691 1.465 . S
C686 C681 1.399 . S
C686 C685 1.394 . S
C686 C687 1.516 . S
C687 C686 1.516 . S
C687 C688 1.502 . S
C687 C689 1.561 . S
C687 C690 1.526 . S
C688 H672 0.959 . S
C688 H673 0.959 . S
C688 H674 0.961 . S
C688 C687 1.502 . S
C689 H675 0.960 . S
C689 H676 0.961 . S
C689 H677 0.959 . S
C689 C687 1.561 . S
C690 C687 1.526 . S
C690 C691 1.396 . S
C690 C695 1.390 . S
C691 C685 1.465 . S
C691 C690 1.396 . S
C691 C692 1.399 . S
C692 H678 0.929 . S
C692 C691 1.399 . S
C692 C693 1.385 . S
C693 H679 0.931 . S
C693 C692 1.385 . S
C693 C694 1.389 . S
C694 C693 1.389 . S
C694 C695 1.387 . S
C695 H680 0.930 . S
C695 C690 1.390 . S
C695 C694 1.387 . S
H696 C708 0.930 . S
H697 C710 0.930 . S
H698 C711 0.930 . S
H699 C715 0.959 . S
H700 C715 0.959 . S
H701 C715 0.961 . S
H702 C716 0.960 . S
H703 C716 0.961 . S
H704 C716 0.959 . S
H705 C719 0.929 . S
H706 C720 0.931 . S
H707 C722 0.930 . S
C708 H696 0.930 . S
C708 C709 1.399 . S
C708 C713 1.399 . S
C709 C708 1.399 . S
C709 C710 1.376 . S
C710 H697 0.930 . S
C710 C709 1.376 . S
C710 C711 1.388 . S
C711 H698 0.930 . S
C711 C710 1.388 . S
C711 C712 1.390 . S
C712 C711 1.390 . S
C712 C713 1.394 . S
C712 C718 1.465 . S
C713 C708 1.399 . S
C713 C712 1.394 . S
C713 C714 1.516 . S
C714 C713 1.516 . S
C714 C715 1.502 . S
C714 C716 1.561 . S
C714 C717 1.526 . S
C715 H699 0.959 . S
C715 H700 0.959 . S
C715 H701 0.961 . S
C715 C714 1.502 . S
C716 H702 0.960 . S
C716 H703 0.961 . S
C716 H704 0.959 . S
C716 C714 1.561 . S
C717 C714 1.526 . S
C717 C718 1.396 . S
C717 C722 1.390 . S
C718 C712 1.465 . S
C718 C717 1.396 . S
C718 C719 1.399 . S
C719 H705 0.929 . S
C719 C718 1.399 . S
C719 C720 1.385 . S
C720 H706 0.931 . S
C720 C719 1.385 . S
C720 C721 1.389 . S
C721 C720 1.389 . S
C721 C722 1.387 . S
C722 H707 0.930 . S
C722 C717 1.390 . S
C722 C721 1.387 . S
H723 C735 0.930 . S
H724 C737 0.930 . S
H725 C738 0.930 . S
H726 C742 0.959 . S
H727 C742 0.959 . S
H728 C742 0.961 . S
H729 C743 0.960 . S
H730 C743 0.961 . S
H731 C743 0.959 . S
H732 C746 0.929 . S
H733 C747 0.931 . S
H734 C749 0.930 . S
C735 H723 0.930 . S
C735 C736 1.399 . S
C735 C740 1.399 . S
C736 C735 1.399 . S
C736 C737 1.376 . S
C737 H724 0.930 . S
C737 C736 1.376 . S
C737 C738 1.388 . S
C738 H725 0.930 . S
C738 C737 1.388 . S
C738 C739 1.390 . S
C739 C738 1.390 . S
C739 C740 1.394 . S
C739 C745 1.465 1_556 S
C740 C735 1.399 . S
C740 C739 1.394 . S
C740 C741 1.516 . S
C741 C740 1.516 . S
C741 C742 1.502 . S
C741 C743 1.561 1_556 S
C741 C744 1.526 1_556 S
C742 H726 0.959 . S
C742 H727 0.959 . S
C742 H728 0.961 . S
C742 C741 1.502 . S
C743 H729 0.960 . S
C743 H730 0.961 . S
C743 H731 0.959 . S
C743 C741 1.561 1_554 S
C744 C741 1.526 1_554 S
C744 C745 1.396 . S
C744 C749 1.390 . S
C745 C739 1.465 1_554 S
C745 C744 1.396 . S
C745 C746 1.399 . S
C746 H732 0.929 . S
C746 C745 1.399 . S
C746 C747 1.385 . S
C747 H733 0.931 . S
C747 C746 1.385 . S
C747 C748 1.389 . S
C748 C747 1.389 . S
C748 C749 1.387 . S
C749 H734 0.930 . S
C749 C744 1.390 . S
C749 C748 1.387 . S
H750 C762 0.930 . S
H751 C764 0.930 . S
H752 C765 0.930 . S
H753 C769 0.959 . S
H754 C769 0.959 . S
H755 C769 0.961 . S
H756 C770 0.960 . S
H757 C770 0.961 . S
H758 C770 0.959 . S
H759 C773 0.929 . S
H760 C774 0.931 . S
H761 C776 0.930 . S
C762 H750 0.930 . S
C762 C763 1.399 . S
C762 C767 1.399 . S
C763 C762 1.399 . S
C763 C764 1.376 . S
C764 H751 0.930 . S
C764 C763 1.376 . S
C764 C765 1.388 . S
C765 H752 0.930 . S
C765 C764 1.388 . S
C765 C766 1.390 . S
C766 C765 1.390 . S
C766 C767 1.394 . S
C766 C772 1.465 . S
C767 C762 1.399 . S
C767 C766 1.394 . S
C767 C768 1.516 . S
C768 C767 1.516 . S
C768 C769 1.502 . S
C768 C770 1.561 . S
C768 C771 1.526 . S
C769 H753 0.959 . S
C769 H754 0.959 . S
C769 H755 0.961 . S
C769 C768 1.502 . S
C770 H756 0.960 . S
C770 H757 0.961 . S
C770 H758 0.959 . S
C770 C768 1.561 . S
C771 C768 1.526 . S
C771 C772 1.396 . S
C771 C776 1.390 . S
C772 C766 1.465 . S
C772 C771 1.396 . S
C772 C773 1.399 . S
C773 H759 0.929 . S
C773 C772 1.399 . S
C773 C774 1.385 . S
C774 H760 0.931 . S
C774 C773 1.385 . S
C774 C775 1.389 . S
C775 C774 1.389 . S
C775 C776 1.387 . S
C776 H761 0.930 . S
C776 C771 1.390 . S
C776 C775 1.387 . S
H777 C789 0.930 . S
H778 C791 0.930 . S
H779 C792 0.930 . S
H780 C796 0.959 . S
H781 C796 0.959 . S
H782 C796 0.961 . S
H783 C797 0.960 . S
H784 C797 0.961 . S
H785 C797 0.959 . S
H786 C800 0.929 . S
H787 C801 0.931 . S
H788 C803 0.930 . S
C789 H777 0.930 . S
C789 C790 1.399 . S
C789 C794 1.399 . S
C790 C789 1.399 . S
C790 C791 1.376 . S
C791 H778 0.930 . S
C791 C790 1.376 . S
C791 C792 1.388 . S
C792 H779 0.930 . S
C792 C791 1.388 . S
C792 C793 1.390 . S
C793 C792 1.390 . S
C793 C794 1.394 . S
C793 C799 1.465 . S
C794 C789 1.399 . S
C794 C793 1.394 . S
C794 C795 1.516 . S
C795 C794 1.516 . S
C795 C796 1.502 . S
C795 C797 1.561 . S
C795 C798 1.526 . S
C796 H780 0.959 . S
C796 H781 0.959 . S
C796 H782 0.961 . S
C796 C795 1.502 . S
C797 H783 0.960 . S
C797 H784 0.961 . S
C797 H785 0.959 . S
C797 C795 1.561 . S
C798 C795 1.526 . S
C798 C799 1.396 . S
C798 C803 1.390 . S
C799 C793 1.465 . S
C799 C798 1.396 . S
C799 C800 1.399 . S
C800 H786 0.929 . S
C800 C799 1.399 . S
C800 C801 1.385 . S
C801 H787 0.931 . S
C801 C800 1.385 . S
C801 C802 1.389 . S
C802 C801 1.389 . S
C802 C803 1.387 . S
C803 H788 0.930 . S
C803 C798 1.390 . S
C803 C802 1.387 . S
H804 C816 0.930 . S
H805 C818 0.930 . S
H806 C819 0.930 . S
H807 C823 0.959 . S
H808 C823 0.959 . S
H809 C823 0.961 . S
H810 C824 0.960 . S
H811 C824 0.961 . S
H812 C824 0.959 . S
H813 C827 0.929 . S
H814 C828 0.931 . S
H815 C830 0.930 . S
C816 H804 0.930 . S
C816 C817 1.399 . S
C816 C821 1.399 . S
C817 C816 1.399 . S
C817 C818 1.376 . S
C818 H805 0.930 . S
C818 C817 1.376 . S
C818 C819 1.388 . S
C819 H806 0.930 . S
C819 C818 1.388 . S
C819 C820 1.390 . S
C820 C819 1.390 . S
C820 C821 1.394 . S
C820 C826 1.467 1_556 S
C821 C816 1.399 . S
C821 C820 1.394 . S
C821 C822 1.516 1_565 S
C822 C821 1.516 1_545 S
C822 C823 1.502 . S
C822 C824 1.561 . S
C822 C825 1.526 1_556 S
C823 H807 0.959 . S
C823 H808 0.959 . S
C823 H809 0.961 . S
C823 C822 1.502 . S
C824 H810 0.960 . S
C824 H811 0.961 . S
C824 H812 0.959 . S
C824 C822 1.561 . S
C825 C822 1.526 1_554 S
C825 C826 1.395 1_545 S
C825 C830 1.390 . S
C826 C820 1.467 1_554 S
C826 C825 1.395 1_565 S
C826 C827 1.398 . S
C827 H813 0.929 . S
C827 C826 1.398 . S
C827 C828 1.385 1_565 S
C828 H814 0.931 . S
C828 C827 1.385 1_545 S
C828 C829 1.389 . S
C829 C828 1.389 . S
C829 C830 1.387 . S
C830 H815 0.930 . S
C830 C825 1.390 . S
C830 C829 1.387 . S
H831 C843 0.930 . S
H832 C845 0.930 . S
H833 C846 0.930 . S
H834 C850 0.959 . S
H835 C850 0.959 . S
H836 C850 0.961 . S
H837 C851 0.960 . S
H838 C851 0.961 . S
H839 C851 0.959 . S
H840 C854 0.929 . S
H841 C855 0.931 . S
H842 C857 0.930 . S
C843 H831 0.930 . S
C843 C844 1.399 . S
C843 C848 1.399 . S
C844 C843 1.399 . S
C844 C845 1.376 . S
C845 H832 0.930 . S
C845 C844 1.376 . S
C845 C846 1.388 . S
C846 H833 0.930 . S
C846 C845 1.388 . S
C846 C847 1.390 . S
C847 C846 1.390 . S
C847 C848 1.394 . S
C847 C853 1.465 . S
C848 C843 1.399 . S
C848 C847 1.394 . S
C848 C849 1.516 . S
C849 C848 1.516 . S
C849 C850 1.502 . S
C849 C851 1.561 . S
C849 C852 1.526 . S
C850 H834 0.959 . S
C850 H835 0.959 . S
C850 H836 0.961 . S
C850 C849 1.502 . S
C851 H837 0.960 . S
C851 H838 0.961 . S
C851 H839 0.959 . S
C851 C849 1.561 . S
C852 C849 1.526 . S
C852 C853 1.396 . S
C852 C857 1.390 . S
C853 C847 1.465 . S
C853 C852 1.396 . S
C853 C854 1.399 . S
C854 H840 0.929 . S
C854 C853 1.399 . S
C854 C855 1.385 . S
C855 H841 0.931 . S
C855 C854 1.385 . S
C855 C856 1.389 . S
C856 C855 1.389 . S
C856 C857 1.387 . S
C857 H842 0.930 . S
C857 C852 1.390 . S
C857 C856 1.387 . S
H858 C870 0.930 . S
H859 C872 0.930 1_655 S
H860 C873 0.930 . S
H861 C877 0.959 . S
H862 C877 0.959 . S
H863 C877 0.961 . S
H864 C878 0.960 . S
H865 C878 0.961 . S
H866 C878 0.959 . S
H867 C881 0.929 . S
H868 C882 0.931 . S
H869 C884 0.930 1_455 S
C870 H858 0.930 . S
C870 C871 1.399 . S
C870 C875 1.399 . S
C871 C870 1.399 . S
C871 C872 1.376 . S
C872 H859 0.930 1_455 S
C872 C871 1.376 . S
C872 C873 1.388 1_455 S
C873 H860 0.930 . S
C873 C872 1.388 1_655 S
C873 C874 1.390 . S
C874 C873 1.390 . S
C874 C875 1.394 1_655 S
C874 C880 1.465 . S
C875 C870 1.399 . S
C875 C874 1.394 1_455 S
C875 C876 1.516 . S
C876 C875 1.516 . S
C876 C877 1.502 . S
C876 C878 1.561 . S
C876 C879 1.526 1_455 S
C877 H861 0.959 . S
C877 H862 0.959 . S
C877 H863 0.961 . S
C877 C876 1.502 . S
C878 H864 0.960 . S
C878 H865 0.961 . S
C878 H866 0.959 . S
C878 C876 1.561 . S
C879 C876 1.526 1_655 S
C879 C880 1.396 . S
C879 C884 1.390 . S
C880 C874 1.465 . S
C880 C879 1.396 . S
C880 C881 1.399 . S
C881 H867 0.929 . S
C881 C880 1.399 . S
C881 C882 1.385 . S
C882 H868 0.931 . S
C882 C881 1.385 . S
C882 C883 1.389 . S
C883 C882 1.389 . S
C883 C884 1.387 . S
C884 H869 0.930 1_655 S
C884 C879 1.390 . S
C884 C883 1.387 . S
H885 C897 0.930 . S
H886 C899 0.930 . S
H887 C900 0.930 . S
H888 C904 0.959 . S
H889 C904 0.959 . S
H890 C904 0.961 1_554 S
H891 C905 0.960 . S
H892 C905 0.961 . S
H893 C905 0.959 . S
H894 C908 0.929 . S
H895 C909 0.931 . S
H896 C911 0.930 . S
C897 H885 0.930 . S
C897 C898 1.399 . S
C897 C902 1.399 . S
C898 C897 1.399 . S
C898 C899 1.376 . S
C899 H886 0.930 . S
C899 C898 1.376 . S
C899 C900 1.388 . S
C900 H887 0.930 . S
C900 C899 1.388 . S
C900 C901 1.390 . S
C901 C900 1.390 . S
C901 C902 1.394 . S
C901 C907 1.465 1_564 S
C902 C897 1.399 . S
C902 C901 1.394 . S
C902 C903 1.516 1_565 S
C903 C902 1.516 1_545 S
C903 C904 1.502 1_544 S
C903 C905 1.561 . S
C903 C906 1.526 1_554 S
C904 H888 0.959 . S
C904 H889 0.959 . S
C904 H890 0.961 1_556 S
C904 C903 1.502 1_566 S
C905 H891 0.960 . S
C905 H892 0.961 . S
C905 H893 0.959 . S
C905 C903 1.561 . S
C906 C903 1.526 1_556 S
C906 C907 1.396 . S
C906 C911 1.390 . S
C907 C901 1.465 1_546 S
C907 C906 1.396 . S
C907 C908 1.399 . S
C908 H894 0.929 . S
C908 C907 1.399 . S
C908 C909 1.385 . S
C909 H895 0.931 . S
C909 C908 1.385 . S
C909 C910 1.389 . S
C910 C909 1.389 . S
C910 C911 1.387 . S
C911 H896 0.930 . S
C911 C906 1.390 . S
C911 C910 1.387 . S
H912 C924 0.930 . S
H913 C926 0.930 . S
H914 C927 0.930 . S
H915 C931 0.959 . S
H916 C931 0.959 . S
H917 C931 0.961 . S
H918 C932 0.960 . S
H919 C932 0.961 . S
H920 C932 0.959 . S
H921 C935 0.929 . S
H922 C936 0.931 . S
H923 C938 0.930 . S
C924 H912 0.930 . S
C924 C925 1.399 . S
C924 C929 1.399 . S
C925 C924 1.399 . S
C925 C926 1.376 . S
C926 H913 0.930 . S
C926 C925 1.376 . S
C926 C927 1.388 . S
C927 H914 0.930 . S
C927 C926 1.388 . S
C927 C928 1.390 . S
C928 C927 1.390 . S
C928 C929 1.394 . S
C928 C934 1.465 . S
C929 C924 1.399 . S
C929 C928 1.394 . S
C929 C930 1.516 . S
C930 C929 1.516 . S
C930 C931 1.502 . S
C930 C932 1.561 . S
C930 C933 1.526 . S
C931 H915 0.959 . S
C931 H916 0.959 . S
C931 H917 0.961 . S
C931 C930 1.502 . S
C932 H918 0.960 . S
C932 H919 0.961 . S
C932 H920 0.959 . S
C932 C930 1.561 . S
C933 C930 1.526 . S
C933 C934 1.396 . S
C933 C938 1.390 . S
C934 C928 1.465 . S
C934 C933 1.396 . S
C934 C935 1.399 . S
C935 H921 0.929 . S
C935 C934 1.399 . S
C935 C936 1.385 . S
C936 H922 0.931 . S
C936 C935 1.385 . S
C936 C937 1.389 . S
C937 C936 1.389 . S
C937 C938 1.387 . S
C938 H923 0.930 . S
C938 C933 1.390 . S
C938 C937 1.387 . S
H939 C951 0.930 . S
H940 C953 0.930 . S
H941 C954 0.930 1_655 S
H942 C958 0.959 . S
H943 C958 0.959 . S
H944 C958 0.961 . S
H945 C959 0.960 . S
H946 C959 0.961 . S
H947 C959 0.959 . S
H948 C962 0.929 . S
H949 C963 0.931 . S
H950 C965 0.930 . S
C951 H939 0.930 . S
C951 C952 1.399 . S
C951 C956 1.399 . S
C952 C951 1.399 . S
C952 C953 1.376 . S
C953 H940 0.930 . S
C953 C952 1.376 . S
C953 C954 1.388 . S
C954 H941 0.930 1_455 S
C954 C953 1.388 . S
C954 C955 1.380 . S
C955 C954 1.380 . S
C955 C956 1.425 . S
C955 C961 1.450 1_455 S
C956 C951 1.399 . S
C956 C955 1.425 . S
C956 C957 1.516 . S
C957 C956 1.516 . S
C957 C958 1.502 . S
C957 C959 1.561 1_455 S
C957 C960 1.526 1_455 S
C958 H942 0.959 . S
C958 H943 0.959 . S
C958 H944 0.961 . S
C958 C957 1.502 . S
C959 H945 0.960 . S
C959 H946 0.961 . S
C959 H947 0.959 . S
C959 C957 1.561 1_655 S
C960 C957 1.526 1_655 S
C960 C961 1.396 . S
C960 C965 1.390 . S
C961 C955 1.450 1_655 S
C961 C960 1.396 . S
C961 C962 1.399 . S
C962 H948 0.929 . S
C962 C961 1.399 . S
C962 C963 1.385 . S
C963 H949 0.931 . S
C963 C962 1.385 . S
C963 C964 1.389 . S
C964 C963 1.389 . S
C964 C965 1.387 . S
C965 H950 0.930 . S
C965 C960 1.390 . S
C965 C964 1.387 . S
H966 C978 0.930 . S
H967 C980 0.930 . S
H968 C981 0.930 . S
H969 C985 0.959 . S
H970 C985 0.959 . S
H971 C985 0.961 . S
H972 C986 0.960 . S
H973 C986 0.961 1_565 S
H974 C986 0.959 . S
H975 C989 0.932 . S
H976 C990 0.931 . S
H977 C992 0.930 . S
C978 H966 0.930 . S
C978 C979 1.399 . S
C978 C983 1.399 . S
C979 C978 1.399 . S
C979 C980 1.376 . S
C980 H967 0.930 . S
C980 C979 1.376 . S
C980 C981 1.388 . S
C981 H968 0.930 . S
C981 C980 1.388 . S
C981 C982 1.390 . S
C982 C981 1.390 . S
C982 C983 1.394 . S
C982 C988 1.465 1_545 S
C983 C978 1.399 . S
C983 C982 1.394 . S
C983 C984 1.516 1_545 S
C984 C983 1.516 1_565 S
C984 C985 1.502 . S
C984 C986 1.561 1_565 S
C984 C987 1.526 . S
C985 H969 0.959 . S
C985 H970 0.959 . S
C985 H971 0.961 . S
C985 C984 1.502 . S
C986 H972 0.960 . S
C986 H973 0.961 1_545 S
C986 H974 0.959 . S
C986 C984 1.561 1_545 S
C987 C984 1.526 . S
C987 C988 1.396 . S
C987 C992 1.390 . S
C988 C982 1.465 1_565 S
C988 C987 1.396 . S
C988 C989 1.399 . S
C989 H975 0.932 . S
C989 C988 1.399 . S
C989 C990 1.385 . S
C990 H976 0.931 . S
C990 C989 1.385 . S
C990 C991 1.389 . S
C991 C990 1.389 . S
C991 C992 1.387 . S
C992 H977 0.930 . S
C992 C987 1.390 . S
C992 C991 1.387 . S
H993 C1005 0.930 . S
H994 C1007 0.930 . S
H995 C1008 0.930 . S
H996 C1012 0.959 . S
H997 C1012 0.959 . S
H998 C1012 0.961 . S
H999 C1013 0.960 . S
H1000 C1013 0.961 . S
H1001 C1013 0.959 . S
H1002 C1016 0.929 . S
H1003 C1017 0.931 . S
H1004 C1019 0.930 . S
C1005 H993 0.930 . S
C1005 C1006 1.399 . S
C1005 C1010 1.399 . S
C1006 C1005 1.399 . S
C1006 C1007 1.376 . S
C1007 H994 0.930 . S
C1007 C1006 1.376 . S
C1007 C1008 1.388 . S
C1008 H995 0.930 . S
C1008 C1007 1.388 . S
C1008 C1009 1.390 . S
C1009 C1008 1.390 . S
C1009 C1010 1.394 . S
C1009 C1015 1.465 . S
C1010 C1005 1.399 . S
C1010 C1009 1.394 . S
C1010 C1011 1.516 . S
C1011 C1010 1.516 . S
C1011 C1012 1.502 . S
C1011 C1013 1.561 . S
C1011 C1014 1.526 . S
C1012 H996 0.959 . S
C1012 H997 0.959 . S
C1012 H998 0.961 . S
C1012 C1011 1.502 . S
C1013 H999 0.960 . S
C1013 H1000 0.961 . S
C1013 H1001 0.959 . S
C1013 C1011 1.561 . S
C1014 C1011 1.526 . S
C1014 C1015 1.396 . S
C1014 C1019 1.390 . S
C1015 C1009 1.465 . S
C1015 C1014 1.396 . S
C1015 C1016 1.399 . S
C1016 H1002 0.929 . S
C1016 C1015 1.399 . S
C1016 C1017 1.385 . S
C1017 H1003 0.931 . S
C1017 C1016 1.385 . S
C1017 C1018 1.389 . S
C1018 C1017 1.389 . S
C1018 C1019 1.387 . S
C1019 H1004 0.930 . S
C1019 C1014 1.390 . S
C1019 C1018 1.387 . S
H1020 C1032 0.930 . S
H1021 C1034 0.930 . S
H1022 C1035 0.930 . S
H1023 C1039 0.959 . S
H1024 C1039 0.959 . S
H1025 C1039 0.961 . S
H1026 C1040 0.960 . S
H1027 C1040 0.961 1_455 S
H1028 C1040 0.959 . S
H1029 C1043 0.934 . S
H1030 C1044 0.931 . S
H1031 C1046 0.930 . S
C1032 H1020 0.930 . S
C1032 C1033 1.399 . S
C1032 C1037 1.399 . S
C1033 C1032 1.399 . S
C1033 C1034 1.376 . S
C1034 H1021 0.930 . S
C1034 C1033 1.376 . S
C1034 C1035 1.388 . S
C1035 H1022 0.930 . S
C1035 C1034 1.388 . S
C1035 C1036 1.390 . S
C1036 C1035 1.390 . S
C1036 C1037 1.394 . S
C1036 C1042 1.465 1_655 S
C1037 C1032 1.399 . S
C1037 C1036 1.394 . S
C1037 C1038 1.516 1_655 S
C1038 C1037 1.516 1_455 S
C1038 C1039 1.502 . S
C1038 C1040 1.561 1_455 S
C1038 C1041 1.526 . S
C1039 H1023 0.959 . S
C1039 H1024 0.959 . S
C1039 H1025 0.961 . S
C1039 C1038 1.502 . S
C1040 H1026 0.960 . S
C1040 H1027 0.961 1_655 S
C1040 H1028 0.959 . S
C1040 C1038 1.561 1_655 S
C1041 C1038 1.526 . S
C1041 C1042 1.396 . S
C1041 C1046 1.390 . S
C1042 C1036 1.465 1_455 S
C1042 C1041 1.396 . S
C1042 C1043 1.399 . S
C1043 H1029 0.934 . S
C1043 C1042 1.399 . S
C1043 C1044 1.385 . S
C1044 H1030 0.931 . S
C1044 C1043 1.385 . S
C1044 C1045 1.389 . S
C1045 C1044 1.389 . S
C1045 C1046 1.387 . S
C1046 H1031 0.930 . S
C1046 C1041 1.390 . S
C1046 C1045 1.387 . S
H1047 C1059 0.930 . S
H1048 C1061 0.930 . S
H1049 C1062 0.930 . S
H1050 C1066 0.959 . S
H1051 C1066 0.959 . S
H1052 C1066 0.961 . S
H1053 C1067 0.960 . S
H1054 C1067 0.961 . S
H1055 C1067 0.959 . S
H1056 C1070 0.929 . S
H1057 C1071 0.931 . S
H1058 C1073 0.930 . S
C1059 H1047 0.930 . S
C1059 C1060 1.399 . S
C1059 C1064 1.399 . S
C1060 C1059 1.399 . S
C1060 C1061 1.376 . S
C1061 H1048 0.930 . S
C1061 C1060 1.376 . S
C1061 C1062 1.388 . S
C1062 H1049 0.930 . S
C1062 C1061 1.388 . S
C1062 C1063 1.390 . S
C1063 C1062 1.390 . S
C1063 C1064 1.394 . S
C1063 C1069 1.465 1_455 S
C1064 C1059 1.399 . S
C1064 C1063 1.394 . S
C1064 C1065 1.516 1_455 S
C1065 C1064 1.516 1_655 S
C1065 C1066 1.502 . S
C1065 C1067 1.561 1_655 S
C1065 C1068 1.526 . S
C1066 H1050 0.959 . S
C1066 H1051 0.959 . S
C1066 H1052 0.961 . S
C1066 C1065 1.502 . S
C1067 H1053 0.960 . S
C1067 H1054 0.961 . S
C1067 H1055 0.959 . S
C1067 C1065 1.561 1_455 S
C1068 C1065 1.526 . S
C1068 C1069 1.396 . S
C1068 C1073 1.390 . S
C1069 C1063 1.465 1_655 S
C1069 C1068 1.396 . S
C1069 C1070 1.399 . S
C1070 H1056 0.929 . S
C1070 C1069 1.399 . S
C1070 C1071 1.385 . S
C1071 H1057 0.931 . S
C1071 C1070 1.385 . S
C1071 C1072 1.389 . S
C1072 C1071 1.389 . S
C1072 C1073 1.387 . S
C1073 H1058 0.930 . S
C1073 C1068 1.390 . S
C1073 C1072 1.387 . S
H1074 C1086 0.930 . S
H1075 C1088 0.930 . S
H1076 C1089 0.930 . S
H1077 C1093 0.959 . S
H1078 C1093 0.959 . S
H1079 C1093 0.961 . S
H1080 C1094 0.960 . S
H1081 C1094 0.961 1_545 S
H1082 C1094 0.959 . S
H1083 C1097 0.929 . S
H1084 C1098 0.931 . S
H1085 C1100 0.930 . S
C1086 H1074 0.930 . S
C1086 C1087 1.399 . S
C1086 C1091 1.399 . S
C1087 C1086 1.399 . S
C1087 C1088 1.376 . S
C1088 H1075 0.930 . S
C1088 C1087 1.376 . S
C1088 C1089 1.388 . S
C1089 H1076 0.930 . S
C1089 C1088 1.388 . S
C1089 C1090 1.390 . S
C1090 C1089 1.390 . S
C1090 C1091 1.394 . S
C1090 C1096 1.465 1_565 S
C1091 C1086 1.399 . S
C1091 C1090 1.394 . S
C1091 C1092 1.516 1_565 S
C1092 C1091 1.516 1_545 S
C1092 C1093 1.502 . S
C1092 C1094 1.561 1_545 S
C1092 C1095 1.526 . S
C1093 H1077 0.959 . S
C1093 H1078 0.959 . S
C1093 H1079 0.961 . S
C1093 C1092 1.502 . S
C1094 H1080 0.960 . S
C1094 H1081 0.961 1_565 S
C1094 H1082 0.959 . S
C1094 C1092 1.561 1_565 S
C1095 C1092 1.526 . S
C1095 C1096 1.396 . S
C1095 C1100 1.390 . S
C1096 C1090 1.465 1_545 S
C1096 C1095 1.396 . S
C1096 C1097 1.399 . S
C1097 H1083 0.929 . S
C1097 C1096 1.399 . S
C1097 C1098 1.385 . S
C1098 H1084 0.931 . S
C1098 C1097 1.385 . S
C1098 C1099 1.389 . S
C1099 C1098 1.389 . S
C1099 C1100 1.387 . S
C1100 H1085 0.930 . S
C1100 C1095 1.390 . S
C1100 C1099 1.387 . S
H1101 C1113 0.930 . S
H1102 C1115 0.930 . S
H1103 C1116 0.930 . S
H1104 C1120 0.959 . S
H1105 C1120 0.959 . S
H1106 C1120 0.961 . S
H1107 C1121 0.960 1_556 S
H1108 C1121 0.961 1_556 S
H1109 C1121 0.959 . S
H1110 C1124 0.929 . S
H1111 C1125 0.931 . S
H1112 C1127 0.930 . S
C1113 H1101 0.930 . S
C1113 C1114 1.399 . S
C1113 C1118 1.399 . S
C1114 C1113 1.399 . S
C1114 C1115 1.376 . S
C1115 H1102 0.930 . S
C1115 C1114 1.376 . S
C1115 C1116 1.388 . S
C1116 H1103 0.930 . S
C1116 C1115 1.388 . S
C1116 C1117 1.390 . S
C1117 C1116 1.390 . S
C1117 C1118 1.394 . S
C1117 C1123 1.465 . S
C1118 C1113 1.399 . S
C1118 C1117 1.394 . S
C1118 C1119 1.516 . S
C1119 C1118 1.516 . S
C1119 C1120 1.502 . S
C1119 C1121 1.561 . S
C1119 C1122 1.526 . S
C1120 H1104 0.959 . S
C1120 H1105 0.959 . S
C1120 H1106 0.961 . S
C1120 C1119 1.502 . S
C1121 H1107 0.960 1_554 S
C1121 H1108 0.961 1_554 S
C1121 H1109 0.959 . S
C1121 C1119 1.561 . S
C1122 C1119 1.526 . S
C1122 C1123 1.396 . S
C1122 C1127 1.390 . S
C1123 C1117 1.465 . S
C1123 C1122 1.396 . S
C1123 C1124 1.399 . S
C1124 H1110 0.929 . S
C1124 C1123 1.399 . S
C1124 C1125 1.385 . S
C1125 H1111 0.931 . S
C1125 C1124 1.385 . S
C1125 C1126 1.389 . S
C1126 C1125 1.389 . S
C1126 C1127 1.387 . S
C1127 H1112 0.930 . S
C1127 C1122 1.390 . S
C1127 C1126 1.387 . S
H1128 C1140 0.930 . S
H1129 C1142 0.930 . S
H1130 C1143 0.930 . S
H1131 C1147 0.959 1_545 S
H1132 C1147 0.959 1_545 S
H1133 C1147 0.961 . S
H1134 C1148 0.960 . S
H1135 C1148 0.961 . S
H1136 C1148 0.959 . S
H1137 C1151 0.929 . S
H1138 C1152 0.931 . S
H1139 C1154 0.930 . S
C1140 H1128 0.930 . S
C1140 C1141 1.399 . S
C1140 C1145 1.399 . S
C1141 C1140 1.399 . S
C1141 C1142 1.376 . S
C1142 H1129 0.930 . S
C1142 C1141 1.376 . S
C1142 C1143 1.388 . S
C1143 H1130 0.930 . S
C1143 C1142 1.388 . S
C1143 C1144 1.390 . S
C1144 C1143 1.390 . S
C1144 C1145 1.394 . S
C1144 C1150 1.465 1_565 S
C1145 C1140 1.399 . S
C1145 C1144 1.394 . S
C1145 C1146 1.516 . S
C1146 C1145 1.516 . S
C1146 C1147 1.502 . S
C1146 C1148 1.561 . S
C1146 C1149 1.526 1_565 S
C1147 H1131 0.959 1_565 S
C1147 H1132 0.959 1_565 S
C1147 H1133 0.961 . S
C1147 C1146 1.502 . S
C1148 H1134 0.960 . S
C1148 H1135 0.961 . S
C1148 H1136 0.959 . S
C1148 C1146 1.561 . S
C1149 C1146 1.526 1_545 S
C1149 C1150 1.396 . S
C1149 C1154 1.390 . S
C1150 C1144 1.465 1_545 S
C1150 C1149 1.396 . S
C1150 C1151 1.399 . S
C1151 H1137 0.929 . S
C1151 C1150 1.399 . S
C1151 C1152 1.385 . S
C1152 H1138 0.931 . S
C1152 C1151 1.385 . S
C1152 C1153 1.389 . S
C1153 C1152 1.389 . S
C1153 C1154 1.387 . S
C1154 H1139 0.930 . S
C1154 C1149 1.390 . S
C1154 C1153 1.387 . S
H1155 C1167 0.930 . S
H1156 C1169 0.930 . S
H1157 C1170 0.930 . S
H1158 C1174 0.959 . S
H1159 C1174 0.959 . S
H1160 C1174 0.961 . S
H1161 C1175 0.960 . S
H1162 C1175 0.961 . S
H1163 C1175 0.959 . S
H1164 C1178 0.929 . S
H1165 C1179 0.931 . S
H1166 C1181 0.930 . S
C1167 H1155 0.930 . S
C1167 C1168 1.399 . S
C1167 C1172 1.399 . S
C1168 C1167 1.399 . S
C1168 C1169 1.376 . S
C1169 H1156 0.930 . S
C1169 C1168 1.376 . S
C1169 C1170 1.388 . S
C1170 H1157 0.930 . S
C1170 C1169 1.388 . S
C1170 C1171 1.390 . S
C1171 C1170 1.390 . S
C1171 C1172 1.394 . S
C1171 C1177 1.465 . S
C1172 C1167 1.399 . S
C1172 C1171 1.394 . S
C1172 C1173 1.516 . S
C1173 C1172 1.516 . S
C1173 C1174 1.502 . S
C1173 C1175 1.561 . S
C1173 C1176 1.526 . S
C1174 H1158 0.959 . S
C1174 H1159 0.959 . S
C1174 H1160 0.961 . S
C1174 C1173 1.502 . S
C1175 H1161 0.960 . S
C1175 H1162 0.961 . S
C1175 H1163 0.959 . S
C1175 C1173 1.561 . S
C1176 C1173 1.526 . S
C1176 C1177 1.396 . S
C1176 C1181 1.390 . S
C1177 C1171 1.465 . S
C1177 C1176 1.396 . S
C1177 C1178 1.399 . S
C1178 H1164 0.929 . S
C1178 C1177 1.399 . S
C1178 C1179 1.385 . S
C1179 H1165 0.931 . S
C1179 C1178 1.385 . S
C1179 C1180 1.389 . S
C1180 C1179 1.389 . S
C1180 C1181 1.387 . S
C1181 H1166 0.930 . S
C1181 C1176 1.390 . S
C1181 C1180 1.387 . S
H1182 C1194 0.930 . S
H1183 C1196 0.930 . S
H1184 C1197 0.930 . S
H1185 C1201 0.959 . S
H1186 C1201 0.959 . S
H1187 C1201 0.961 . S
H1188 C1202 0.960 . S
H1189 C1202 0.961 . S
H1190 C1202 0.959 . S
H1191 C1205 0.929 1_655 S
H1192 C1206 0.931 . S
H1193 C1208 0.930 . S
C1194 H1182 0.930 . S
C1194 C1195 1.399 . S
C1194 C1199 1.399 . S
C1195 C1194 1.399 . S
C1195 C1196 1.376 . S
C1196 H1183 0.930 . S
C1196 C1195 1.376 . S
C1196 C1197 1.388 . S
C1197 H1184 0.930 . S
C1197 C1196 1.388 . S
C1197 C1198 1.390 . S
C1198 C1197 1.390 . S
C1198 C1199 1.394 . S
C1198 C1204 1.465 1_655 S
C1199 C1194 1.399 . S
C1199 C1198 1.394 . S
C1199 C1200 1.516 1_655 S
C1200 C1199 1.516 1_455 S
C1200 C1201 1.502 . S
C1200 C1202 1.561 . S
C1200 C1203 1.526 . S
C1201 H1185 0.959 . S
C1201 H1186 0.959 . S
C1201 H1187 0.961 . S
C1201 C1200 1.502 . S
C1202 H1188 0.960 . S
C1202 H1189 0.961 . S
C1202 H1190 0.959 . S
C1202 C1200 1.561 . S
C1203 C1200 1.526 . S
C1203 C1204 1.396 . S
C1203 C1208 1.390 . S
C1204 C1198 1.465 1_455 S
C1204 C1203 1.396 . S
C1204 C1205 1.399 . S
C1205 H1191 0.929 1_455 S
C1205 C1204 1.399 . S
C1205 C1206 1.385 . S
C1206 H1192 0.931 . S
C1206 C1205 1.385 . S
C1206 C1207 1.389 . S
C1207 C1206 1.389 . S
C1207 C1208 1.387 . S
C1208 H1193 0.930 . S
C1208 C1203 1.390 . S
C1208 C1207 1.387 . S
H1209 C1221 0.930 . S
H1210 C1223 0.930 . S
H1211 C1224 0.930 1_565 S
H1212 C1228 0.959 . S
H1213 C1228 0.959 . S
H1214 C1228 0.961 . S
H1215 C1229 0.960 . S
H1216 C1229 0.961 . S
H1217 C1229 0.959 . S
H1218 C1232 0.929 . S
H1219 C1233 0.931 . S
H1220 C1235 0.930 . S
C1221 H1209 0.930 . S
C1221 C1222 1.399 . S
C1221 C1226 1.399 . S
C1222 C1221 1.399 . S
C1222 C1223 1.376 . S
C1223 H1210 0.930 . S
C1223 C1222 1.376 . S
C1223 C1224 1.388 . S
C1224 H1211 0.930 1_545 S
C1224 C1223 1.388 . S
C1224 C1225 1.390 . S
C1225 C1224 1.390 . S
C1225 C1226 1.394 . S
C1225 C1231 1.465 1_545 S
C1226 C1221 1.399 . S
C1226 C1225 1.394 . S
C1226 C1227 1.516 . S
C1227 C1226 1.516 . S
C1227 C1228 1.502 . S
C1227 C1229 1.561 . S
C1227 C1230 1.526 1_545 S
C1228 H1212 0.959 . S
C1228 H1213 0.959 . S
C1228 H1214 0.961 . S
C1228 C1227 1.502 . S
C1229 H1215 0.960 . S
C1229 H1216 0.961 . S
C1229 H1217 0.959 . S
C1229 C1227 1.561 . S
C1230 C1227 1.526 1_565 S
C1230 C1231 1.396 . S
C1230 C1235 1.390 . S
C1231 C1225 1.465 1_565 S
C1231 C1230 1.396 . S
C1231 C1232 1.399 . S
C1232 H1218 0.929 . S
C1232 C1231 1.399 . S
C1232 C1233 1.385 . S
C1233 H1219 0.931 . S
C1233 C1232 1.385 . S
C1233 C1234 1.389 . S
C1234 C1233 1.389 . S
C1234 C1235 1.387 . S
C1235 H1220 0.930 . S
C1235 C1230 1.390 . S
C1235 C1234 1.387 . S
H1236 C1248 0.930 . S
H1237 C1250 0.930 . S
H1238 C1251 0.930 . S
H1239 C1255 0.959 . S
H1240 C1255 0.959 . S
H1241 C1255 0.961 . S
H1242 C1256 0.960 . S
H1243 C1256 0.961 . S
H1244 C1256 0.959 . S
H1245 C1259 0.929 . S
H1246 C1260 0.931 . S
H1247 C1262 0.930 . S
C1248 H1236 0.930 . S
C1248 C1249 1.399 . S
C1248 C1253 1.399 . S
C1249 C1248 1.399 . S
C1249 C1250 1.376 . S
C1250 H1237 0.930 . S
C1250 C1249 1.376 . S
C1250 C1251 1.388 . S
C1251 H1238 0.930 . S
C1251 C1250 1.388 . S
C1251 C1252 1.390 . S
C1252 C1251 1.390 . S
C1252 C1253 1.394 . S
C1252 C1258 1.465 . S
C1253 C1248 1.399 . S
C1253 C1252 1.394 . S
C1253 C1254 1.516 . S
C1254 C1253 1.516 . S
C1254 C1255 1.502 . S
C1254 C1256 1.561 . S
C1254 C1257 1.526 . S
C1255 H1239 0.959 . S
C1255 H1240 0.959 . S
C1255 H1241 0.961 . S
C1255 C1254 1.502 . S
C1256 H1242 0.960 . S
C1256 H1243 0.961 . S
C1256 H1244 0.959 . S
C1256 C1254 1.561 . S
C1257 C1254 1.526 . S
C1257 C1258 1.396 . S
C1257 C1262 1.390 . S
C1258 C1252 1.465 . S
C1258 C1257 1.396 . S
C1258 C1259 1.399 . S
C1259 H1245 0.929 . S
C1259 C1258 1.399 . S
C1259 C1260 1.385 . S
C1260 H1246 0.931 . S
C1260 C1259 1.385 . S
C1260 C1261 1.389 . S
C1261 C1260 1.389 . S
C1261 C1262 1.387 . S
C1262 H1247 0.930 . S
C1262 C1257 1.390 . S
C1262 C1261 1.387 . S
H1263 C1275 0.930 . S
H1264 C1277 0.930 . S
H1265 C1278 0.930 . S
H1266 C1282 0.959 . S
H1267 C1282 0.959 . S
H1268 C1282 0.961 . S
H1269 C1283 0.960 . S
H1270 C1283 0.961 . S
H1271 C1283 0.959 . S
H1272 C1286 0.929 1_455 S
H1273 C1287 0.931 . S
H1274 C1289 0.930 . S
C1275 H1263 0.930 . S
C1275 C1276 1.399 . S
C1275 C1280 1.399 . S
C1276 C1275 1.399 . S
C1276 C1277 1.376 . S
C1277 H1264 0.930 . S
C1277 C1276 1.376 . S
C1277 C1278 1.388 . S
C1278 H1265 0.930 . S
C1278 C1277 1.388 . S
C1278 C1279 1.390 . S
C1279 C1278 1.390 . S
C1279 C1280 1.394 . S
C1279 C1285 1.465 1_455 S
C1280 C1275 1.399 . S
C1280 C1279 1.394 . S
C1280 C1281 1.516 1_455 S
C1281 C1280 1.516 1_655 S
C1281 C1282 1.502 . S
C1281 C1283 1.561 . S
C1281 C1284 1.526 . S
C1282 H1266 0.959 . S
C1282 H1267 0.959 . S
C1282 H1268 0.961 . S
C1282 C1281 1.502 . S
C1283 H1269 0.960 . S
C1283 H1270 0.961 . S
C1283 H1271 0.959 . S
C1283 C1281 1.561 . S
C1284 C1281 1.526 . S
C1284 C1285 1.396 . S
C1284 C1289 1.390 . S
C1285 C1279 1.465 1_655 S
C1285 C1284 1.396 . S
C1285 C1286 1.399 . S
C1286 H1272 0.929 1_655 S
C1286 C1285 1.399 . S
C1286 C1287 1.385 . S
C1287 H1273 0.931 . S
C1287 C1286 1.385 . S
C1287 C1288 1.389 . S
C1288 C1287 1.389 . S
C1288 C1289 1.387 . S
C1289 H1274 0.930 . S
C1289 C1284 1.390 . S
C1289 C1288 1.387 . S
H1290 C1302 0.930 . S
H1291 C1304 0.930 . S
H1292 C1305 0.930 . S
H1293 C1309 0.959 . S
H1294 C1309 0.959 . S
H1295 C1309 0.961 . S
H1296 C1310 0.960 . S
H1297 C1310 0.961 . S
H1298 C1310 0.959 . S
H1299 C1313 0.929 . S
H1300 C1314 0.931 . S
H1301 C1316 0.930 . S
C1302 H1290 0.930 . S
C1302 C1303 1.399 . S
C1302 C1307 1.399 . S
C1303 C1302 1.399 . S
C1303 C1304 1.376 . S
C1304 H1291 0.930 . S
C1304 C1303 1.376 . S
C1304 C1305 1.388 . S
C1305 H1292 0.930 . S
C1305 C1304 1.388 . S
C1305 C1306 1.390 . S
C1306 C1305 1.390 . S
C1306 C1307 1.394 . S
C1306 C1312 1.465 . S
C1307 C1302 1.399 . S
C1307 C1306 1.394 . S
C1307 C1308 1.516 . S
C1308 C1307 1.516 . S
C1308 C1309 1.502 . S
C1308 C1310 1.561 . S
C1308 C1311 1.526 . S
C1309 H1293 0.959 . S
C1309 H1294 0.959 . S
C1309 H1295 0.961 . S
C1309 C1308 1.502 . S
C1310 H1296 0.960 . S
C1310 H1297 0.961 . S
C1310 H1298 0.959 . S
C1310 C1308 1.561 . S
C1311 C1308 1.526 . S
C1311 C1312 1.396 . S
C1311 C1316 1.390 . S
C1312 C1306 1.465 . S
C1312 C1311 1.396 . S
C1312 C1313 1.399 . S
C1313 H1299 0.929 . S
C1313 C1312 1.399 . S
C1313 C1314 1.385 . S
C1314 H1300 0.931 . S
C1314 C1313 1.385 . S
C1314 C1315 1.389 . S
C1315 C1314 1.389 . S
C1315 C1316 1.387 . S
C1316 H1301 0.930 . S
C1316 C1311 1.390 . S
C1316 C1315 1.387 . S
H1317 C1329 0.930 . S
H1318 C1331 0.930 . S
H1319 C1332 0.930 . S
H1320 C1336 0.959 . S
H1321 C1336 0.959 . S
H1322 C1336 0.961 . S
H1323 C1337 0.960 . S
H1324 C1337 0.961 . S
H1325 C1337 0.959 . S
H1326 C1340 0.929 . S
H1327 C1341 0.931 . S
H1328 C1343 0.930 . S
C1329 H1317 0.930 . S
C1329 C1330 1.399 . S
C1329 C1334 1.399 . S
C1330 C1329 1.399 . S
C1330 C1331 1.376 . S
C1331 H1318 0.930 . S
C1331 C1330 1.376 . S
C1331 C1332 1.388 . S
C1332 H1319 0.930 . S
C1332 C1331 1.388 . S
C1332 C1333 1.390 . S
C1333 C1332 1.390 . S
C1333 C1334 1.394 . S
C1333 C1339 1.465 . S
C1334 C1329 1.399 . S
C1334 C1333 1.394 . S
C1334 C1335 1.516 . S
C1335 C1334 1.516 . S
C1335 C1336 1.502 . S
C1335 C1337 1.561 . S
C1335 C1338 1.526 . S
C1336 H1320 0.959 . S
C1336 H1321 0.959 . S
C1336 H1322 0.961 . S
C1336 C1335 1.502 . S
C1337 H1323 0.960 . S
C1337 H1324 0.961 . S
C1337 H1325 0.959 . S
C1337 C1335 1.561 . S
C1338 C1335 1.526 . S
C1338 C1339 1.396 . S
C1338 C1343 1.390 . S
C1339 C1333 1.465 . S
C1339 C1338 1.396 . S
C1339 C1340 1.399 . S
C1340 H1326 0.929 . S
C1340 C1339 1.399 . S
C1340 C1341 1.385 . S
C1341 H1327 0.931 . S
C1341 C1340 1.385 . S
C1341 C1342 1.389 . S
C1342 C1341 1.389 . S
C1342 C1343 1.387 . S
C1343 H1328 0.930 . S
C1343 C1338 1.390 . S
C1343 C1342 1.387 . S
H1344 C1356 0.930 . S
H1345 C1358 0.930 . S
H1346 C1359 0.930 . S
H1347 C1363 0.959 . S
H1348 C1363 0.959 . S
H1349 C1363 0.961 . S
H1350 C1364 0.960 . S
H1351 C1364 0.961 . S
H1352 C1364 0.959 . S
H1353 C1367 0.929 . S
H1354 C1368 0.931 . S
H1355 C1370 0.930 . S
C1356 H1344 0.930 . S
C1356 C1357 1.399 . S
C1356 C1361 1.399 . S
C1357 C1356 1.399 . S
C1357 C1358 1.376 . S
C1358 H1345 0.930 . S
C1358 C1357 1.376 . S
C1358 C1359 1.388 . S
C1359 H1346 0.930 . S
C1359 C1358 1.388 . S
C1359 C1360 1.390 . S
C1360 C1359 1.390 . S
C1360 C1361 1.394 . S
C1360 C1366 1.465 . S
C1361 C1356 1.399 . S
C1361 C1360 1.394 . S
C1361 C1362 1.516 . S
C1362 C1361 1.516 . S
C1362 C1363 1.502 . S
C1362 C1364 1.561 . S
C1362 C1365 1.526 . S
C1363 H1347 0.959 . S
C1363 H1348 0.959 . S
C1363 H1349 0.961 . S
C1363 C1362 1.502 . S
C1364 H1350 0.960 . S
C1364 H1351 0.961 . S
C1364 H1352 0.959 . S
C1364 C1362 1.561 . S
C1365 C1362 1.526 . S
C1365 C1366 1.396 . S
C1365 C1370 1.390 . S
C1366 C1360 1.465 . S
C1366 C1365 1.396 . S
C1366 C1367 1.399 . S
C1367 H1353 0.929 . S
C1367 C1366 1.399 . S
C1367 C1368 1.385 . S
C1368 H1354 0.931 . S
C1368 C1367 1.385 . S
C1368 C1369 1.389 . S
C1369 C1368 1.389 . S
C1369 C1370 1.387 . S
C1370 H1355 0.930 . S
C1370 C1365 1.390 . S
C1370 C1369 1.387 . S
H1371 C1383 0.930 . S
H1372 C1385 0.930 . S
H1373 C1386 0.930 . S
H1374 C1390 0.959 . S
H1375 C1390 0.959 . S
H1376 C1390 0.961 . S
H1377 C1391 0.960 . S
H1378 C1391 0.961 . S
H1379 C1391 0.959 . S
H1380 C1394 0.929 . S
H1381 C1395 0.931 . S
H1382 C1397 0.930 . S
C1383 H1371 0.930 . S
C1383 C1384 1.399 . S
C1383 C1388 1.399 . S
C1384 C1383 1.399 . S
C1384 C1385 1.376 . S
C1385 H1372 0.930 . S
C1385 C1384 1.376 . S
C1385 C1386 1.388 . S
C1386 H1373 0.930 . S
C1386 C1385 1.388 . S
C1386 C1387 1.390 . S
C1387 C1386 1.390 . S
C1387 C1388 1.394 . S
C1387 C1393 1.465 . S
C1388 C1383 1.399 . S
C1388 C1387 1.394 . S
C1388 C1389 1.516 . S
C1389 C1388 1.516 . S
C1389 C1390 1.502 . S
C1389 C1391 1.561 . S
C1389 C1392 1.526 . S
C1390 H1374 0.959 . S
C1390 H1375 0.959 . S
C1390 H1376 0.961 . S
C1390 C1389 1.502 . S
C1391 H1377 0.960 . S
C1391 H1378 0.961 . S
C1391 H1379 0.959 . S
C1391 C1389 1.561 . S
C1392 C1389 1.526 . S
C1392 C1393 1.396 . S
C1392 C1397 1.390 . S
C1393 C1387 1.465 . S
C1393 C1392 1.396 . S
C1393 C1394 1.399 . S
C1394 H1380 0.929 . S
C1394 C1393 1.399 . S
C1394 C1395 1.385 . S
C1395 H1381 0.931 . S
C1395 C1394 1.385 . S
C1395 C1396 1.389 . S
C1396 C1395 1.389 . S
C1396 C1397 1.387 . S
C1397 H1382 0.930 . S
C1397 C1392 1.390 . S
C1397 C1396 1.387 . S
H1398 C1410 0.930 . S
H1399 C1412 0.930 . S
H1400 C1413 0.930 . S
H1401 C1417 0.959 . S
H1402 C1417 0.959 . S
H1403 C1417 0.961 . S
H1404 C1418 0.960 . S
H1405 C1418 0.961 . S
H1406 C1418 0.959 . S
H1407 C1421 0.929 . S
H1408 C1422 0.931 . S
H1409 C1424 0.930 . S
C1410 H1398 0.930 . S
C1410 C1411 1.399 . S
C1410 C1415 1.399 . S
C1411 C1410 1.399 . S
C1411 C1412 1.376 . S
C1412 H1399 0.930 . S
C1412 C1411 1.376 . S
C1412 C1413 1.388 . S
C1413 H1400 0.930 . S
C1413 C1412 1.388 . S
C1413 C1414 1.390 . S
C1414 C1413 1.390 . S
C1414 C1415 1.394 . S
C1414 C1420 1.465 . S
C1415 C1410 1.399 . S
C1415 C1414 1.394 . S
C1415 C1416 1.516 . S
C1416 C1415 1.516 . S
C1416 C1417 1.502 . S
C1416 C1418 1.561 . S
C1416 C1419 1.526 . S
C1417 H1401 0.959 . S
C1417 H1402 0.959 . S
C1417 H1403 0.961 . S
C1417 C1416 1.502 . S
C1418 H1404 0.960 . S
C1418 H1405 0.961 . S
C1418 H1406 0.959 . S
C1418 C1416 1.561 . S
C1419 C1416 1.526 . S
C1419 C1420 1.396 . S
C1419 C1424 1.390 . S
C1420 C1414 1.465 . S
C1420 C1419 1.396 . S
C1420 C1421 1.399 . S
C1421 H1407 0.929 . S
C1421 C1420 1.399 . S
C1421 C1422 1.385 . S
C1422 H1408 0.931 . S
C1422 C1421 1.385 . S
C1422 C1423 1.389 . S
C1423 C1422 1.389 . S
C1423 C1424 1.387 . S
C1424 H1409 0.930 . S
C1424 C1419 1.390 . S
C1424 C1423 1.387 . S
H1425 C1437 0.930 . S
H1426 C1439 0.930 . S
H1427 C1440 0.930 . S
H1428 C1444 0.959 . S
H1429 C1444 0.959 . S
H1430 C1444 0.961 . S
H1431 C1445 0.960 . S
H1432 C1445 0.961 . S
H1433 C1445 0.959 . S
H1434 C1448 0.929 . S
H1435 C1449 0.931 . S
H1436 C1451 0.930 . S
C1437 H1425 0.930 . S
C1437 C1438 1.399 . S
C1437 C1442 1.399 . S
C1438 C1437 1.399 . S
C1438 C1439 1.376 . S
C1439 H1426 0.930 . S
C1439 C1438 1.376 . S
C1439 C1440 1.388 . S
C1440 H1427 0.930 . S
C1440 C1439 1.388 . S
C1440 C1441 1.390 . S
C1441 C1440 1.390 . S
C1441 C1442 1.394 . S
C1441 C1447 1.465 . S
C1442 C1437 1.399 . S
C1442 C1441 1.394 . S
C1442 C1443 1.516 . S
C1443 C1442 1.516 . S
C1443 C1444 1.502 . S
C1443 C1445 1.561 . S
C1443 C1446 1.526 . S
C1444 H1428 0.959 . S
C1444 H1429 0.959 . S
C1444 H1430 0.961 . S
C1444 C1443 1.502 . S
C1445 H1431 0.960 . S
C1445 H1432 0.961 . S
C1445 H1433 0.959 . S
C1445 C1443 1.561 . S
C1446 C1443 1.526 . S
C1446 C1447 1.396 . S
C1446 C1451 1.390 . S
C1447 C1441 1.465 . S
C1447 C1446 1.396 . S
C1447 C1448 1.399 . S
C1448 H1434 0.929 . S
C1448 C1447 1.399 . S
C1448 C1449 1.385 . S
C1449 H1435 0.931 . S
C1449 C1448 1.385 . S
C1449 C1450 1.389 . S
C1450 C1449 1.389 . S
C1450 C1451 1.387 . S
C1451 H1436 0.930 . S
C1451 C1446 1.390 . S
C1451 C1450 1.387 . S
C493 C2 1.133 . S
C505 C322 1.067 . S
C520 C42 1.095 . S
C532 C362 1.146 . S
C547 C82 1.076 . S
C559 C402 1.141 . S
C574 C442 1.129 . S
C586 C122 1.064 . S
C601 C162 1.145 . S
C613 C242 1.106 . S
C628 C282 1.059 . S
C640 C202 1.119 . S
C655 C426 1.672 . S
C667 C26 1.614 . S
C682 C466 1.599 . S
C694 C66 1.665 . S
C709 C106 1.636 . S
C721 C266 1.665 . S
C736 C306 1.666 . S
C748 C146 1.635 . S
C763 C346 1.634 . S
C775 C186 1.595 . S
C790 C226 1.626 . S
C802 C386 1.599 . S
C817 C283 4.374 . S
C829 C3 4.369 . S
C844 C323 4.360 . S
C856 C43 4.368 . S
C871 C363 4.361 . S
C883 C83 4.371 . S
C898 C123 4.371 . S
C910 C403 4.373 . S
C925 C163 4.359 . S
C937 C443 4.364 . S
C952 C203 4.368 . S
C964 C243 4.374 . S
C979 C15 0.456 . S
C991 C135 0.596 . S
C1006 C55 0.456 . S
C1018 C175 0.596 . S
C1033 C95 0.456 . S
C1045 C215 0.596 . S
C1060 C375 0.491 . S
C1072 C255 0.583 . S
C1087 C295 0.470 . S
C1099 C415 0.591 . S
C1114 C455 0.514 . S
C1126 C335 0.373 . S
C1141 C289 0.746 . S
C1153 C9 0.776 . S
C1168 C329 0.612 . S
C1180 C49 0.778 . S
C1195 C89 0.745 . S
C1207 C369 0.625 . S
C1222 C409 0.663 . S
C1234 C129 0.814 . S
C1249 C449 0.811 . S
C1261 C169 0.686 . S
C1276 C209 0.756 . S
C1288 C249 0.620 . S
C1303 C22 4.605 . S
C1315 C422 4.611 . S
C1330 C62 4.604 . S
C1342 C462 4.596 1_556 S
C1357 C102 4.611 1_554 S
C1369 C262 4.609 . S
C1384 C142 4.600 . S
C1396 C302 4.594 . S
C1411 C182 4.595 . S
C1423 C342 4.595 1_556 S
C1438 C382 4.604 . S
C1450 C222 4.611 1_554 S
