# Generated by pormake.
# Topology ecs, (8)-cn, num edge types: 1
# Building blocks:
#     Node 0, Type 0, BuildingBlock: TAGTUT_clean_sbu_1, # of connection points: 8
#     Node 1, Type 0, BuildingBlock: TAGTUT_clean_sbu_1, # of connection points: 8
#     Node 2, Type 0, BuildingBlock: TAGTUT_clean_sbu_1, # of connection points: 8
#     Node 3, Type 0, BuildingBlock: TAGTUT_clean_sbu_1, # of connection points: 8
#     Node 4, Type 0, BuildingBlock: TAGTUT_clean_sbu_1, # of connection points: 8
#     Node 5, Type 0, BuildingBlock: TAGTUT_clean_sbu_1, # of connection points: 8
#     Node 6, Type 0, BuildingBlock: TAGTUT_clean_sbu_1, # of connection points: 8
#     Node 7, Type 0, BuildingBlock: TAGTUT_clean_sbu_1, # of connection points: 8
#     Node 8, Type 0, BuildingBlock: TAGTUT_clean_sbu_1, # of connection points: 8
#     Node 9, Type 0, BuildingBlock: TAGTUT_clean_sbu_1, # of connection points: 8
#     Node 10, Type 0, BuildingBlock: TAGTUT_clean_sbu_1, # of connection points: 8
#     Node 11, Type 0, BuildingBlock: TAGTUT_clean_sbu_1, # of connection points: 8
#     Edge 12, Type (0, 0), BuildingBlock: KIFKEQ_clean_linker_1, # of connection points: 2
#     Edge 13, Type (0, 0), BuildingBlock: KIFKEQ_clean_linker_1, # of connection points: 2
#     Edge 14, Type (0, 0), BuildingBlock: KIFKEQ_clean_linker_1, # of connection points: 2
#     Edge 15, Type (0, 0), BuildingBlock: KIFKEQ_clean_linker_1, # of connection points: 2
#     Edge 16, Type (0, 0), BuildingBlock: KIFKEQ_clean_linker_1, # of connection points: 2
#     Edge 17, Type (0, 0), BuildingBlock: KIFKEQ_clean_linker_1, # of connection points: 2
#     Edge 18, Type (0, 0), BuildingBlock: KIFKEQ_clean_linker_1, # of connection points: 2
#     Edge 19, Type (0, 0), BuildingBlock: KIFKEQ_clean_linker_1, # of connection points: 2
#     Edge 20, Type (0, 0), BuildingBlock: KIFKEQ_clean_linker_1, # of connection points: 2
#     Edge 21, Type (0, 0), BuildingBlock: KIFKEQ_clean_linker_1, # of connection points: 2
#     Edge 22, Type (0, 0), BuildingBlock: KIFKEQ_clean_linker_1, # of connection points: 2
#     Edge 23, Type (0, 0), BuildingBlock: KIFKEQ_clean_linker_1, # of connection points: 2
#     Edge 24, Type (0, 0), BuildingBlock: KIFKEQ_clean_linker_1, # of connection points: 2
#     Edge 25, Type (0, 0), BuildingBlock: KIFKEQ_clean_linker_1, # of connection points: 2
#     Edge 26, Type (0, 0), BuildingBlock: KIFKEQ_clean_linker_1, # of connection points: 2
#     Edge 27, Type (0, 0), BuildingBlock: KIFKEQ_clean_linker_1, # of connection points: 2
#     Edge 28, Type (0, 0), BuildingBlock: KIFKEQ_clean_linker_1, # of connection points: 2
#     Edge 29, Type (0, 0), BuildingBlock: KIFKEQ_clean_linker_1, # of connection points: 2
#     Edge 30, Type (0, 0), BuildingBlock: KIFKEQ_clean_linker_1, # of connection points: 2
#     Edge 31, Type (0, 0), BuildingBlock: KIFKEQ_clean_linker_1, # of connection points: 2
#     Edge 32, Type (0, 0), BuildingBlock: KIFKEQ_clean_linker_1, # of connection points: 2
#     Edge 33, Type (0, 0), BuildingBlock: KIFKEQ_clean_linker_1, # of connection points: 2
#     Edge 34, Type (0, 0), BuildingBlock: KIFKEQ_clean_linker_1, # of connection points: 2
#     Edge 35, Type (0, 0), BuildingBlock: KIFKEQ_clean_linker_1, # of connection points: 2
#     Edge 36, Type (0, 0), BuildingBlock: KIFKEQ_clean_linker_1, # of connection points: 2
#     Edge 37, Type (0, 0), BuildingBlock: KIFKEQ_clean_linker_1, # of connection points: 2
#     Edge 38, Type (0, 0), BuildingBlock: KIFKEQ_clean_linker_1, # of connection points: 2
#     Edge 39, Type (0, 0), BuildingBlock: KIFKEQ_clean_linker_1, # of connection points: 2
#     Edge 40, Type (0, 0), BuildingBlock: KIFKEQ_clean_linker_1, # of connection points: 2
#     Edge 41, Type (0, 0), BuildingBlock: KIFKEQ_clean_linker_1, # of connection points: 2
#     Edge 42, Type (0, 0), BuildingBlock: KIFKEQ_clean_linker_1, # of connection points: 2
#     Edge 43, Type (0, 0), BuildingBlock: KIFKEQ_clean_linker_1, # of connection points: 2
#     Edge 44, Type (0, 0), BuildingBlock: KIFKEQ_clean_linker_1, # of connection points: 2
#     Edge 45, Type (0, 0), BuildingBlock: KIFKEQ_clean_linker_1, # of connection points: 2
#     Edge 46, Type (0, 0), BuildingBlock: KIFKEQ_clean_linker_1, # of connection points: 2
#     Edge 47, Type (0, 0), BuildingBlock: KIFKEQ_clean_linker_1, # of connection points: 2
#     Edge 48, Type (0, 0), BuildingBlock: KIFKEQ_clean_linker_1, # of connection points: 2
#     Edge 49, Type (0, 0), BuildingBlock: KIFKEQ_clean_linker_1, # of connection points: 2
#     Edge 50, Type (0, 0), BuildingBlock: KIFKEQ_clean_linker_1, # of connection points: 2
#     Edge 51, Type (0, 0), BuildingBlock: KIFKEQ_clean_linker_1, # of connection points: 2
#     Edge 52, Type (0, 0), BuildingBlock: KIFKEQ_clean_linker_1, # of connection points: 2
#     Edge 53, Type (0, 0), BuildingBlock: KIFKEQ_clean_linker_1, # of connection points: 2
#     Edge 54, Type (0, 0), BuildingBlock: KIFKEQ_clean_linker_1, # of connection points: 2
#     Edge 55, Type (0, 0), BuildingBlock: KIFKEQ_clean_linker_1, # of connection points: 2
#     Edge 56, Type (0, 0), BuildingBlock: KIFKEQ_clean_linker_1, # of connection points: 2
#     Edge 57, Type (0, 0), BuildingBlock: KIFKEQ_clean_linker_1, # of connection points: 2
#     Edge 58, Type (0, 0), BuildingBlock: KIFKEQ_clean_linker_1, # of connection points: 2
#     Edge 59, Type (0, 0), BuildingBlock: KIFKEQ_clean_linker_1, # of connection points: 2
# Relax obj value: 0.344
# Max RMSD: 0.278
# Mean RMSD: 0.278
data_MOF--net-ecs--node1-TAGTUT_clean_sbu_1--edge1-KIFKEQ_clean_linker_1
_symmetry_space_group_name_H-M    P1
_symmetry_Int_Tables_number       1
_symmetry_cell_setting            triclinic
loop_
_symmetry_equiv_pos_as_xyz
'x, y, z'
_cell_length_a     53.88045
_cell_length_b     53.878612
_cell_length_c     27.397514
_cell_angle_alpha  90.043135
_cell_angle_beta   89.970158
_cell_angle_gamma 119.9864
loop_
_atom_site_label
_atom_site_type_symbol
_atom_site_fract_x
_atom_site_fract_y
_atom_site_fract_z
_atom_type_partial_charge
C0 C 0.4732 0.4159 0.10373 0.0
C1 C 0.52793 0.38505 0.06973 0.0
C2 C 0.4404 0.27853 0.10412 0.0
Mg3 Mg 0.50564 0.39549 0.16766 0.0
O4 O 0.47171 0.36071 0.16446 0.0
Mg5 Mg 0.45746 0.3463 0.09624 0.0
Mg6 Mg 0.47447 0.3274 0.18858 0.0
O7 O 0.47859 0.2948 0.21129 0.0
Mg8 Mg 0.45301 0.25598 0.20289 0.0
Mg9 Mg 0.50035 0.30851 0.27353 0.0
C10 C 0.5107 0.37339 0.27427 0.0
C11 C 0.54339 0.35055 0.19097 0.0
O12 O 0.46029 0.39095 0.08335 0.0
O13 O 0.48943 0.42136 0.14105 0.0
O14 O 0.50213 0.36618 0.05911 0.0
O15 O 0.53418 0.39805 0.11056 0.0
O16 O 0.51746 0.39339 0.24265 0.0
O17 O 0.49139 0.34715 0.26557 0.0
C18 C 0.40858 0.31414 0.18084 0.0
O19 O 0.42627 0.31011 0.207 0.0
O20 O 0.41555 0.32657 0.13894 0.0
O21 O 0.51186 0.27242 0.26522 0.0
O22 O 0.48382 0.2422 0.20656 0.0
O23 O 0.45946 0.27691 0.31736 0.0
C24 C 0.50517 0.25141 0.23574 0.0
O25 O 0.42821 0.24218 0.26795 0.0
O26 O 0.43554 0.25781 0.13297 0.0
C27 C 0.43597 0.25326 0.31031 0.0
O28 O 0.45796 0.30491 0.1151 0.0
O29 O 0.52231 0.34927 0.16733 0.0
O30 O 0.5399 0.33712 0.23083 0.0
C31 C 0.58427 0.05991 0.11013 0.0
C32 C 0.61684 0.14456 0.07246 0.0
C33 C 0.72277 0.16177 0.1024 0.0
Mg34 Mg 0.60738 0.11399 0.17265 0.0
O35 O 0.64135 0.1129 0.16781 0.0
Mg36 Mg 0.65445 0.11173 0.099 0.0
Mg37 Mg 0.67591 0.1486 0.1899 0.0
O38 O 0.70958 0.18507 0.21082 0.0
Mg39 Mg 0.74816 0.19817 0.19963 0.0
Mg40 Mg 0.69742 0.19413 0.27373 0.0
C41 C 0.63249 0.1411 0.27856 0.0
C42 C 0.65438 0.19569 0.19376 0.0
O43 O 0.60899 0.07071 0.08913 0.0
O44 O 0.57977 0.0717 0.14715 0.0
O45 O 0.63496 0.13665 0.06188 0.0
O46 O 0.6047 0.13927 0.11404 0.0
O47 O 0.61155 0.12926 0.24811 0.0
O48 O 0.65809 0.14678 0.26783 0.0
C49 C 0.68746 0.09489 0.1816 0.0
O50 O 0.69254 0.11706 0.20742 0.0
O51 O 0.67407 0.08916 0.14061 0.0
O52 O 0.73376 0.2414 0.2637 0.0
O53 O 0.7621 0.24289 0.2022 0.0
O54 O 0.72932 0.18442 0.31542 0.0
C55 C 0.75386 0.25538 0.23253 0.0
O56 O 0.7634 0.18807 0.26408 0.0
O57 O 0.74425 0.17781 0.12979 0.0
C58 C 0.75292 0.18471 0.30697 0.0
O59 O 0.69673 0.15334 0.11523 0.0
O60 O 0.65468 0.17541 0.16996 0.0
O61 O 0.66861 0.20565 0.23293 0.0
C62 C 0.94334 0.52607 0.10843 0.0
C63 C 0.85861 0.47378 0.07024 0.0
C64 C 0.84136 0.56259 0.10108 0.0
Mg65 Mg 0.88922 0.49481 0.17055 0.0
O66 O 0.8901 0.52976 0.16591 0.0
Mg67 Mg 0.89129 0.54415 0.09722 0.0
Mg68 Mg 0.85433 0.52843 0.18797 0.0
O69 O 0.81777 0.52546 0.20883 0.0
Mg70 Mg 0.80511 0.55139 0.19851 0.0
Mg71 Mg 0.80873 0.5041 0.27155 0.0
C72 C 0.86186 0.49233 0.27636 0.0
C73 C 0.80743 0.45972 0.19117 0.0
O74 O 0.93239 0.53982 0.08735 0.0
O75 O 0.93159 0.50976 0.1454 0.0
O76 O 0.86636 0.49978 0.05977 0.0
O77 O 0.86412 0.46698 0.11166 0.0
O78 O 0.87385 0.4834 0.24587 0.0
O79 O 0.8561 0.51221 0.26575 0.0
C80 C 0.90799 0.59375 0.18035 0.0
O81 O 0.88579 0.57658 0.206 0.0
O82 O 0.91378 0.58622 0.13925 0.0
O83 O 0.76157 0.49346 0.26146 0.0
O84 O 0.7603 0.52104 0.20108 0.0
O85 O 0.81838 0.54546 0.31391 0.0
C86 C 0.7477 0.50009 0.23091 0.0
O87 O 0.81538 0.5765 0.26332 0.0
O88 O 0.82545 0.56805 0.12879 0.0
C89 C 0.81837 0.56895 0.30605 0.0
O90 O 0.84964 0.54479 0.11344 0.0
O91 O 0.8277 0.48042 0.16759 0.0
O92 O 0.7973 0.46384 0.23029 0.0
C93 C 0.41865 0.47622 0.37831 0.0
C94 C 0.38654 0.52914 0.41524 0.0
C95 C 0.28034 0.44018 0.3856 0.0
Mg96 Mg 0.39597 0.50732 0.31551 0.0
O97 O 0.36179 0.47251 0.32063 0.0
Mg98 Mg 0.34864 0.45856 0.38951 0.0
Mg99 Mg 0.32733 0.47372 0.29832 0.0
O100 O 0.29376 0.47661 0.27714 0.0
Mg101 Mg 0.25516 0.45125 0.28827 0.0
Mg102 Mg 0.30604 0.49783 0.21429 0.0
C103 C 0.37087 0.5094 0.20964 0.0
C104 C 0.34909 0.54236 0.29447 0.0
O105 O 0.39398 0.46277 0.39954 0.0
O106 O 0.42329 0.49233 0.34104 0.0
O107 O 0.36815 0.50325 0.42617 0.0
O108 O 0.39892 0.53556 0.37385 0.0
O109 O 0.39181 0.51838 0.24007 0.0
O110 O 0.34523 0.48958 0.22036 0.0
C111 C 0.31567 0.40846 0.30715 0.0
O112 O 0.31064 0.42548 0.28107 0.0
O113 O 0.32899 0.41623 0.3482 0.0
O114 O 0.26981 0.50892 0.22427 0.0
O115 O 0.24134 0.4821 0.28564 0.0
O116 O 0.27396 0.4563 0.17242 0.0
C117 C 0.24966 0.50282 0.25533 0.0
O118 O 0.23987 0.42595 0.22375 0.0
O119 O 0.25891 0.43473 0.35809 0.0
C120 C 0.25028 0.43307 0.18083 0.0
O121 O 0.3064 0.45784 0.37294 0.0
O122 O 0.34862 0.52171 0.31824 0.0
O123 O 0.33498 0.53819 0.2552 0.0
C124 C 0.526 0.94314 0.37884 0.0
C125 C 0.47363 0.85835 0.41718 0.0
C126 C 0.56249 0.84103 0.38652 0.0
Mg127 Mg 0.49487 0.889 0.31688 0.0
O128 O 0.52982 0.88988 0.32168 0.0
Mg129 Mg 0.54406 0.89104 0.39043 0.0
Mg130 Mg 0.52863 0.85418 0.2995 0.0
O131 O 0.52574 0.81768 0.27837 0.0
Mg132 Mg 0.55091 0.80422 0.28951 0.0
Mg133 Mg 0.50423 0.80848 0.21577 0.0
C134 C 0.4926 0.86162 0.21109 0.0
C135 C 0.45998 0.80731 0.29631 0.0
O136 O 0.53962 0.93213 0.40018 0.0
O137 O 0.50982 0.93141 0.34172 0.0
O138 O 0.4996 0.86598 0.42773 0.0
O139 O 0.46694 0.86401 0.37578 0.0
O140 O 0.4836 0.87355 0.24159 0.0
O141 O 0.51253 0.85595 0.22166 0.0
C142 C 0.59386 0.90788 0.30758 0.0
O143 O 0.57678 0.88571 0.28177 0.0
O144 O 0.58621 0.9136 0.34862 0.0
O145 O 0.4931 0.76121 0.22596 0.0
O146 O 0.51982 0.75961 0.28752 0.0
O147 O 0.54553 0.81763 0.17343 0.0
C148 C 0.49911 0.74719 0.25719 0.0
O149 O 0.5758 0.81357 0.22452 0.0
O150 O 0.56774 0.82487 0.35905 0.0
C151 C 0.56861 0.81684 0.18164 0.0
O152 O 0.54482 0.84945 0.37402 0.0
O153 O 0.4807 0.82753 0.31992 0.0
O154 O 0.46405 0.79727 0.25704 0.0
C155 C 0.05946 0.5834 0.3778 0.0
C156 C 0.14419 0.61549 0.4163 0.0
C157 C 0.16166 0.72174 0.38689 0.0
Mg158 Mg 0.11363 0.60636 0.31597 0.0
O159 O 0.11283 0.64046 0.32111 0.0
Mg160 Mg 0.11163 0.65342 0.38999 0.0
Mg161 Mg 0.14855 0.67498 0.29923 0.0
O162 O 0.18507 0.70863 0.27849 0.0
Mg163 Mg 0.19821 0.7472 0.28984 0.0
Mg164 Mg 0.19421 0.6965 0.21561 0.0
C165 C 0.14111 0.63169 0.21038 0.0
C166 C 0.19545 0.65322 0.29551 0.0
O167 O 0.0705 0.60798 0.39932 0.0
O168 O 0.07118 0.57895 0.34063 0.0
O169 O 0.13659 0.63384 0.42702 0.0
O170 O 0.13855 0.60323 0.3748 0.0
O171 O 0.12914 0.61069 0.24068 0.0
O172 O 0.1468 0.65728 0.2212 0.0
C173 C 0.09489 0.6866 0.30752 0.0
O174 O 0.11707 0.69171 0.28173 0.0
O175 O 0.08913 0.67315 0.34845 0.0
O176 O 0.24144 0.73274 0.22597 0.0
O177 O 0.24289 0.76106 0.2875 0.0
O178 O 0.18481 0.72862 0.17384 0.0
C179 C 0.25539 0.75282 0.25719 0.0
O180 O 0.1884 0.76263 0.2253 0.0
O181 O 0.17773 0.74324 0.35958 0.0
C182 C 0.18522 0.75228 0.18233 0.0
O183 O 0.15326 0.69571 0.374 0.0
O184 O 0.17519 0.65361 0.31922 0.0
O185 O 0.20553 0.66748 0.25642 0.0
C186 C 0.49798 0.75011 0.74947 0.0
C187 C 0.56528 0.74483 0.67371 0.0
C188 C 0.49082 0.62603 0.71607 0.0
Mg189 Mg 0.55001 0.7448 0.78096 0.0
O190 O 0.52332 0.706 0.77582 0.0
Mg191 Mg 0.50081 0.69128 0.71452 0.0
Mg192 Mg 0.52745 0.67367 0.80003 0.0
O193 O 0.53028 0.64062 0.82568 0.0
Mg194 Mg 0.49644 0.60546 0.82419 0.0
Mg195 Mg 0.54532 0.65672 0.89285 0.0
C196 C 0.56296 0.72441 0.88155 0.0
C197 C 0.59325 0.68635 0.80616 0.0
O198 O 0.4899 0.72806 0.7218 0.0
O199 O 0.52021 0.75979 0.77664 0.0
O200 O 0.54109 0.72166 0.66881 0.0
O201 O 0.57436 0.75652 0.71532 0.0
O202 O 0.56786 0.74443 0.85107 0.0
O203 O 0.54504 0.69783 0.87224 0.0
C204 C 0.45848 0.65094 0.79909 0.0
O205 O 0.47966 0.65235 0.82265 0.0
O206 O 0.4618 0.66378 0.75867 0.0
O207 O 0.54214 0.61275 0.90895 0.0
O208 O 0.51244 0.57974 0.85473 0.0
O209 O 0.50098 0.63739 0.93064 0.0
C210 C 0.52906 0.58702 0.89191 0.0
O211 O 0.46834 0.60486 0.88056 0.0
O212 O 0.48436 0.60641 0.74844 0.0
C213 C 0.47504 0.61846 0.9209 0.0
O214 O 0.50968 0.6525 0.72428 0.0
O215 O 0.57537 0.69013 0.78008 0.0
O216 O 0.5868 0.67509 0.84901 0.0
C217 C 0.25309 0.74835 0.75019 0.0
C218 C 0.25821 0.82085 0.6748 0.0
C219 C 0.37685 0.8661 0.71881 0.0
Mg220 Mg 0.25785 0.80543 0.78198 0.0
O221 O 0.29671 0.81766 0.77759 0.0
Mg222 Mg 0.31186 0.81031 0.71634 0.0
Mg223 Mg 0.3287 0.85419 0.8024 0.0
O224 O 0.36141 0.89019 0.82861 0.0
Mg225 Mg 0.39677 0.89187 0.82744 0.0
Mg226 Mg 0.34493 0.88862 0.89568 0.0
C227 C 0.27754 0.83847 0.883 0.0
C228 C 0.31502 0.90661 0.8091 0.0
O229 O 0.2753 0.76249 0.72293 0.0
O230 O 0.24313 0.76073 0.77721 0.0
O231 O 0.28149 0.82 0.67027 0.0
O232 O 0.24631 0.81814 0.71623 0.0
O233 O 0.25774 0.82343 0.85212 0.0
O234 O 0.30418 0.84712 0.87427 0.0
C235 C 0.35203 0.80842 0.8013 0.0
O236 O 0.35035 0.82803 0.82496 0.0
O237 O 0.33939 0.79896 0.76071 0.0
O238 O 0.38853 0.92972 0.91271 0.0
O239 O 0.42202 0.9334 0.85922 0.0
O240 O 0.36452 0.86379 0.93316 0.0
C241 C 0.41438 0.9426 0.8962 0.0
O242 O 0.39727 0.86405 0.88314 0.0
O243 O 0.39632 0.87932 0.75142 0.0
C244 C 0.38353 0.8569 0.92332 0.0
O245 O 0.35027 0.8581 0.72687 0.0
O246 O 0.3117 0.8852 0.78273 0.0
O247 O 0.32621 0.91145 0.85203 0.0
C248 C 0.25401 0.50476 0.74878 0.0
C249 C 0.18132 0.43726 0.67369 0.0
C250 C 0.13638 0.51098 0.71775 0.0
Mg251 Mg 0.19698 0.45254 0.78081 0.0
O252 O 0.18469 0.47911 0.77632 0.0
Mg253 Mg 0.19202 0.50156 0.71507 0.0
Mg254 Mg 0.14826 0.47476 0.80132 0.0
O255 O 0.11239 0.47168 0.82769 0.0
Mg256 Mg 0.11082 0.50541 0.82645 0.0
Mg257 Mg 0.114 0.45685 0.89476 0.0
C258 C 0.164 0.43936 0.88187 0.0
C259 C 0.09563 0.40878 0.80829 0.0
O260 O 0.23983 0.51275 0.72146 0.0
O261 O 0.24167 0.48252 0.77595 0.0
O262 O 0.18215 0.46138 0.66909 0.0
O263 O 0.18417 0.4282 0.71513 0.0
O264 O 0.179 0.43453 0.85097 0.0
O265 O 0.15539 0.45738 0.87317 0.0
C266 C 0.19421 0.54378 0.80007 0.0
O267 O 0.17461 0.52257 0.8238 0.0
O268 O 0.20354 0.54051 0.75939 0.0
O269 O 0.07304 0.45956 0.91186 0.0
O270 O 0.06932 0.48924 0.85821 0.0
O271 O 0.13898 0.50133 0.93217 0.0
C272 C 0.06016 0.47252 0.89528 0.0
O273 O 0.13868 0.53377 0.88213 0.0
O274 O 0.12328 0.51737 0.7504 0.0
C275 C 0.14585 0.52722 0.92232 0.0
O276 O 0.1443 0.49235 0.72578 0.0
O277 O 0.11702 0.42673 0.78179 0.0
O278 O 0.09096 0.41525 0.85125 0.0
C279 C 0.75127 0.49835 0.74439 0.0
C280 C 0.74456 0.56611 0.81506 0.0
C281 C 0.62593 0.49024 0.77094 0.0
Mg282 Mg 0.74499 0.54915 0.70908 0.0
O283 O 0.7064 0.52161 0.71362 0.0
Mg284 Mg 0.69168 0.50073 0.77628 0.0
Mg285 Mg 0.67403 0.52486 0.68695 0.0
O286 O 0.64138 0.52754 0.65907 0.0
Mg287 Mg 0.60544 0.49507 0.66202 0.0
Mg288 Mg 0.65777 0.54133 0.59172 0.0
C289 C 0.72507 0.55983 0.60626 0.0
C290 C 0.68703 0.5907 0.67625 0.0
O291 O 0.72902 0.49025 0.77163 0.0
O292 O 0.76076 0.52022 0.71643 0.0
O293 O 0.7215 0.5419 0.82046 0.0
O294 O 0.75626 0.57469 0.77335 0.0
O295 O 0.74486 0.56579 0.63781 0.0
O296 O 0.6986 0.5412 0.61473 0.0
C297 C 0.65198 0.45594 0.69372 0.0
O298 O 0.65276 0.47606 0.66753 0.0
O299 O 0.66495 0.46102 0.73437 0.0
O300 O 0.61427 0.53875 0.57349 0.0
O301 O 0.58098 0.512 0.62962 0.0
O302 O 0.63826 0.496 0.55679 0.0
C303 C 0.58866 0.52733 0.59081 0.0
O304 O 0.60385 0.46598 0.60726 0.0
O305 O 0.60646 0.48381 0.73824 0.0
C306 C 0.61812 0.4708 0.56792 0.0
O307 O 0.65252 0.50878 0.76287 0.0
O308 O 0.69047 0.57313 0.7038 0.0
O309 O 0.67615 0.58367 0.63318 0.0
C310 C 0.50684 0.25138 0.75099 0.0
C311 C 0.4362 0.17757 0.81845 0.0
C312 C 0.50936 0.13191 0.77166 0.0
Mg313 Mg 0.45421 0.19668 0.71318 0.0
O314 O 0.47957 0.18277 0.71719 0.0
Mg315 Mg 0.50061 0.18748 0.77929 0.0
Mg316 Mg 0.47498 0.14679 0.68916 0.0
O317 O 0.47151 0.11136 0.6601 0.0
Mg318 Mg 0.50461 0.10874 0.66128 0.0
Mg319 Mg 0.45716 0.11439 0.59347 0.0
C320 C 0.44157 0.16579 0.60978 0.0
C321 C 0.40869 0.09506 0.67944 0.0
O322 O 0.51349 0.23561 0.77671 0.0
O323 O 0.48513 0.24102 0.72255 0.0
O324 O 0.45976 0.17732 0.82385 0.0
O325 O 0.42846 0.18218 0.77705 0.0
O326 O 0.43722 0.18075 0.6415 0.0
O327 O 0.45869 0.156 0.61793 0.0
C328 C 0.5441 0.19196 0.69476 0.0
O329 O 0.52341 0.17344 0.66853 0.0
O330 O 0.53991 0.19952 0.73645 0.0
O331 O 0.45903 0.07312 0.574 0.0
O332 O 0.48749 0.06759 0.62796 0.0
O333 O 0.50183 0.13923 0.55679 0.0
C334 C 0.4712 0.0594 0.59029 0.0
O335 O 0.53339 0.13688 0.6063 0.0
O336 O 0.51615 0.11964 0.73804 0.0
C337 C 0.52743 0.14513 0.56666 0.0
O338 O 0.49091 0.14012 0.7642 0.0
O339 O 0.42672 0.11585 0.70687 0.0
O340 O 0.41523 0.09106 0.63609 0.0
C341 C 0.74978 0.25571 0.74375 0.0
C342 C 0.82243 0.25915 0.81548 0.0
C343 C 0.86905 0.3778 0.76952 0.0
Mg344 Mg 0.80527 0.25821 0.70918 0.0
O345 O 0.81878 0.29742 0.71299 0.0
Mg346 Mg 0.81296 0.31361 0.77441 0.0
Mg347 Mg 0.85524 0.32885 0.68655 0.0
O348 O 0.89106 0.361 0.6589 0.0
Mg349 Mg 0.89323 0.39658 0.65995 0.0
Mg350 Mg 0.88847 0.34392 0.59207 0.0
C351 C 0.83751 0.27681 0.60702 0.0
C352 C 0.90705 0.31435 0.67836 0.0
O353 O 0.76496 0.27835 0.76939 0.0
O354 O 0.76074 0.24441 0.71648 0.0
O355 O 0.82226 0.28278 0.82012 0.0
O356 O 0.81884 0.24691 0.77414 0.0
O357 O 0.8223 0.25737 0.63836 0.0
O358 O 0.84686 0.30365 0.61519 0.0
C359 C 0.81045 0.35333 0.68935 0.0
O360 O 0.82932 0.35095 0.66463 0.0
O361 O 0.80179 0.34135 0.73061 0.0
O362 O 0.92974 0.38709 0.57361 0.0
O363 O 0.93449 0.421 0.62714 0.0
O364 O 0.86381 0.36393 0.55517 0.0
C365 C 0.94312 0.41298 0.5899 0.0
O366 O 0.86507 0.39728 0.60497 0.0
O367 O 0.88187 0.39701 0.73639 0.0
C368 C 0.85744 0.38333 0.56498 0.0
O369 O 0.86073 0.35113 0.76176 0.0
O370 O 0.88601 0.31143 0.70533 0.0
O371 O 0.91143 0.32513 0.63516 0.0
H372 H 0.557 0.2705 0.28057 0.0
H373 H 0.49941 0.20825 0.17572 0.0
H374 H 0.59308 0.25745 0.26108 0.0
H375 H 0.53579 0.19571 0.15571 0.0
H376 H 0.66226 0.24936 0.18511 0.0
H377 H 0.62491 0.26244 0.19234 0.0
H378 H 0.56031 0.17272 0.19359 0.0
H379 H 0.59744 0.16005 0.1877 0.0
C380 C 0.55188 0.25384 0.25377 0.0
C381 C 0.52527 0.24046 0.22971 0.0
C382 C 0.57275 0.2467 0.24204 0.0
C383 C 0.56745 0.22599 0.20613 0.0
C384 C 0.5405 0.21182 0.18343 0.0
C385 C 0.51963 0.21896 0.19509 0.0
C386 C 0.63997 0.23259 0.18486 0.0
C387 C 0.63261 0.2037 0.1833 0.0
C388 C 0.61866 0.24 0.18975 0.0
C389 C 0.5897 0.21856 0.19373 0.0
C390 C 0.58234 0.18972 0.18955 0.0
C391 C 0.60362 0.18239 0.18484 0.0
H392 H 0.8435 0.4389 0.18485 0.0
H393 H 0.75396 0.41354 0.18259 0.0
H394 H 0.83137 0.38923 0.18983 0.0
H395 H 0.74144 0.36325 0.18933 0.0
H396 H 0.79607 0.29258 0.17079 0.0
H397 H 0.80813 0.34141 0.1508 0.0
H398 H 0.74763 0.33708 0.25871 0.0
H399 H 0.73519 0.28817 0.2784 0.0
C400 C 0.82122 0.4226 0.18183 0.0
C401 C 0.7997 0.43001 0.18056 0.0
C402 C 0.81421 0.39406 0.18606 0.0
C403 C 0.78547 0.37238 0.19022 0.0
C404 C 0.76381 0.37961 0.18664 0.0
C405 C 0.7709 0.40825 0.18209 0.0
C406 C 0.78555 0.30211 0.19071 0.0
C407 C 0.76461 0.28638 0.22618 0.0
C408 C 0.7924 0.33005 0.17905 0.0
C409 C 0.77839 0.3428 0.2025 0.0
C410 C 0.75823 0.3275 0.23914 0.0
C411 C 0.75145 0.29962 0.25095 0.0
H412 H 0.71457 0.44851 0.27592 0.0
H413 H 0.71063 0.50614 0.17035 0.0
H414 H 0.6655 0.41261 0.25616 0.0
H415 H 0.66155 0.4699 0.15034 0.0
H416 H 0.58938 0.34339 0.17921 0.0
H417 H 0.63966 0.38117 0.18536 0.0
H418 H 0.61349 0.44497 0.18983 0.0
H419 H 0.5637 0.40733 0.18478 0.0
C420 C 0.70319 0.4537 0.24892 0.0
C421 C 0.71662 0.48023 0.22467 0.0
C422 C 0.67521 0.43293 0.23708 0.0
C423 C 0.65998 0.43826 0.20094 0.0
C424 C 0.67288 0.46518 0.17815 0.0
C425 C 0.70095 0.48595 0.18981 0.0
C426 C 0.59462 0.3656 0.1794 0.0
C427 C 0.57281 0.37259 0.17928 0.0
C428 C 0.62324 0.38715 0.18363 0.0
C429 C 0.6304 0.41597 0.18839 0.0
C430 C 0.60866 0.42302 0.18536 0.0
C431 C 0.5801 0.40147 0.18137 0.0
H432 H 0.24898 0.66072 0.30433 0.0
H433 H 0.15953 0.59633 0.3015 0.0
H434 H 0.2617 0.62306 0.29794 0.0
H435 H 0.17185 0.55891 0.29687 0.0
H436 H 0.26835 0.5542 0.20934 0.0
H437 H 0.25576 0.59062 0.22867 0.0
H438 H 0.19516 0.53458 0.33649 0.0
H439 H 0.20736 0.49784 0.31684 0.0
C440 C 0.2321 0.63847 0.30476 0.0
C441 C 0.20326 0.63132 0.30607 0.0
C442 C 0.2393 0.61699 0.30042 0.0
C443 C 0.21772 0.58806 0.29682 0.0
C444 C 0.18894 0.58092 0.30069 0.0
C445 C 0.18182 0.60237 0.30472 0.0
C446 C 0.25204 0.54941 0.23669 0.0
C447 C 0.23888 0.52306 0.26153 0.0
C448 C 0.24518 0.57049 0.2483 0.0
C449 C 0.22493 0.56563 0.2848 0.0
C450 C 0.21095 0.53893 0.30834 0.0
C451 C 0.21787 0.51786 0.29688 0.0
H452 H 0.34128 0.58817 0.304 0.0
H453 H 0.40599 0.56352 0.30056 0.0
H454 H 0.37879 0.63865 0.29866 0.0
H455 H 0.44327 0.61336 0.29703 0.0
H456 H 0.44782 0.71458 0.21091 0.0
H457 H 0.41142 0.66551 0.22969 0.0
H458 H 0.46719 0.66082 0.33789 0.0
H459 H 0.5039 0.70984 0.31884 0.0
C460 C 0.36356 0.59364 0.30451 0.0
C461 C 0.37086 0.57206 0.30536 0.0
C462 C 0.38496 0.62238 0.3008 0.0
C463 C 0.41393 0.62987 0.29739 0.0
C464 C 0.42121 0.60832 0.30075 0.0
C465 C 0.39984 0.57968 0.30412 0.0
C466 C 0.45255 0.70303 0.23826 0.0
C467 C 0.47883 0.7162 0.26335 0.0
C468 C 0.43149 0.67506 0.24954 0.0
C469 C 0.43629 0.6596 0.28595 0.0
C470 C 0.4629 0.67232 0.30981 0.0
C471 C 0.48395 0.70035 0.2987 0.0
H472 H 0.29258 0.79505 0.31893 0.0
H473 H 0.28818 0.73421 0.2112 0.0
H474 H 0.34152 0.80732 0.33856 0.0
H475 H 0.33717 0.74684 0.23056 0.0
H476 H 0.41409 0.75377 0.30582 0.0
H477 H 0.36367 0.74094 0.29996 0.0
H478 H 0.38916 0.83075 0.29848 0.0
H479 H 0.43895 0.84318 0.30253 0.0
C480 C 0.30213 0.78458 0.29893 0.0
C481 C 0.28639 0.7636 0.2635 0.0
C482 C 0.33012 0.79154 0.31039 0.0
C483 C 0.3429 0.77761 0.28678 0.0
C484 C 0.32757 0.75738 0.25024 0.0
C485 C 0.29964 0.75049 0.23862 0.0
C486 C 0.40867 0.77062 0.30628 0.0
C487 C 0.43031 0.79948 0.30727 0.0
C488 C 0.37996 0.76336 0.30226 0.0
C489 C 0.37256 0.7849 0.29868 0.0
C490 C 0.39415 0.8137 0.30229 0.0
C491 C 0.42275 0.82089 0.30598 0.0
H492 H 0.50695 0.79553 0.80659 0.0
H493 H 0.44463 0.73074 0.7102 0.0
H494 H 0.47195 0.80925 0.83026 0.0
H495 H 0.40992 0.74506 0.73309 0.0
H496 H 0.40889 0.84443 0.80794 0.0
H497 H 0.4458 0.83152 0.79808 0.0
H498 H 0.38117 0.74186 0.8043 0.0
H499 H 0.34416 0.75512 0.81408 0.0
C500 C 0.48596 0.78452 0.78974 0.0
C501 C 0.4786 0.7619 0.75659 0.0
C502 C 0.46588 0.79237 0.8035 0.0
C503 C 0.43799 0.77784 0.78437 0.0
C504 C 0.43101 0.75612 0.74956 0.0
C505 C 0.45108 0.74823 0.73581 0.0
C506 C 0.40278 0.82206 0.8104 0.0
C507 C 0.37382 0.80078 0.8136 0.0
C508 C 0.4239 0.81459 0.80376 0.0
C509 C 0.41636 0.78566 0.79962 0.0
C510 C 0.38757 0.76435 0.80642 0.0
C511 C 0.36645 0.77187 0.81299 0.0
H512 H 0.1584 0.56488 0.80682 0.0
H513 H 0.24761 0.58903 0.8129 0.0
H514 H 0.17153 0.61476 0.79732 0.0
H515 H 0.26109 0.63937 0.80356 0.0
H516 H 0.2727 0.71455 0.7108 0.0
H517 H 0.25828 0.66542 0.73305 0.0
H518 H 0.19375 0.66294 0.82983 0.0
H519 H 0.20752 0.7117 0.80672 0.0
C520 C 0.1808 0.58106 0.80934 0.0
C521 C 0.20199 0.57325 0.81243 0.0
C522 C 0.18839 0.60968 0.80291 0.0
C523 C 0.21736 0.63098 0.79892 0.0
C524 C 0.23857 0.62336 0.80557 0.0
C525 C 0.23093 0.59468 0.81189 0.0
C526 C 0.25511 0.70341 0.73618 0.0
C527 C 0.24135 0.71718 0.75699 0.0
C528 C 0.24716 0.67539 0.74957 0.0
C529 C 0.22529 0.66052 0.78407 0.0
C530 C 0.21071 0.67383 0.80327 0.0
C531 C 0.21861 0.7018 0.78984 0.0
H532 H 0.28767 0.55811 0.70924 0.0
H533 H 0.29079 0.49603 0.80528 0.0
H534 H 0.33677 0.59295 0.73146 0.0
H535 H 0.33953 0.53115 0.82833 0.0
H536 H 0.43751 0.59406 0.80545 0.0
H537 H 0.3877 0.5572 0.79577 0.0
H538 H 0.36276 0.62193 0.80201 0.0
H539 H 0.41305 0.6589 0.8116 0.0
C540 C 0.29887 0.55175 0.73463 0.0
C541 C 0.28518 0.52425 0.7555 0.0
C542 C 0.32687 0.57189 0.748 0.0
C543 C 0.34181 0.565 0.78252 0.0
C544 C 0.32859 0.53714 0.80176 0.0
C545 C 0.30063 0.51699 0.78836 0.0
C546 C 0.42128 0.60021 0.80796 0.0
C547 C 0.42899 0.62918 0.81116 0.0
C548 C 0.39269 0.57912 0.80141 0.0
C549 C 0.37132 0.58668 0.79738 0.0
C550 C 0.37884 0.6155 0.80406 0.0
C551 C 0.40748 0.6366 0.81052 0.0
H552 H 0.73185 0.44481 0.78318 0.0
H553 H 0.79766 0.50811 0.68949 0.0
H554 H 0.74654 0.41038 0.76006 0.0
H555 H 0.81156 0.47343 0.66523 0.0
H556 H 0.75706 0.34529 0.67787 0.0
H557 H 0.74377 0.38213 0.68951 0.0
H558 H 0.83345 0.44691 0.69389 0.0
H559 H 0.84638 0.41016 0.68154 0.0
C560 C 0.74967 0.45154 0.7582 0.0
C561 C 0.76346 0.47924 0.73814 0.0
C562 C 0.75777 0.43163 0.74424 0.0
C563 C 0.77978 0.43895 0.70984 0.0
C564 C 0.79449 0.46705 0.69168 0.0
C565 C 0.7865 0.48697 0.70576 0.0
C566 C 0.77378 0.3676 0.67888 0.0
C567 C 0.8027 0.37505 0.67716 0.0
C568 C 0.76626 0.38862 0.68664 0.0
C569 C 0.78757 0.4174 0.69364 0.0
C570 C 0.81648 0.42503 0.68822 0.0
C571 C 0.82395 0.40401 0.68019 0.0
H572 H 0.66333 0.41298 0.70433 0.0
H573 H 0.59583 0.43019 0.6667 0.0
H574 H 0.6284 0.36335 0.71837 0.0
H575 H 0.56086 0.37978 0.67324 0.0
H576 H 0.50038 0.29861 0.75417 0.0
H577 H 0.53607 0.34746 0.73156 0.0
H578 H 0.59641 0.31859 0.69962 0.0
H579 H 0.56177 0.27114 0.7277 0.0
C580 C 0.64106 0.40571 0.69595 0.0
C581 C 0.63249 0.42546 0.68279 0.0
C582 C 0.6208 0.37704 0.70401 0.0
C583 C 0.59133 0.3671 0.69776 0.0
C584 C 0.58312 0.38648 0.67994 0.0
C585 C 0.60341 0.41544 0.67371 0.0
C586 C 0.52165 0.30322 0.74363 0.0
C587 C 0.52873 0.28152 0.7439 0.0
C588 C 0.54201 0.33106 0.72948 0.0
C589 C 0.56945 0.33741 0.71308 0.0
C590 C 0.57609 0.31523 0.71311 0.0
C591 C 0.55619 0.28785 0.72924 0.0
H592 H 0.56919 0.16066 0.67049 0.0
H593 H 0.58683 0.24668 0.69773 0.0
H594 H 0.61999 0.17674 0.67394 0.0
H595 H 0.63704 0.26241 0.70795 0.0
H596 H 0.72949 0.28892 0.71121 0.0
H597 H 0.68124 0.27416 0.68432 0.0
H598 H 0.65364 0.18753 0.73233 0.0
H599 H 0.70303 0.20228 0.75424 0.0
C600 C 0.58407 0.1833 0.67459 0.0
C601 C 0.57418 0.20264 0.68169 0.0
C602 C 0.61325 0.19243 0.67881 0.0
C603 C 0.63296 0.22086 0.69247 0.0
C604 C 0.62301 0.24048 0.69672 0.0
C605 C 0.59405 0.2315 0.69087 0.0
C606 C 0.71289 0.26679 0.71644 0.0
C607 C 0.71959 0.24678 0.7357 0.0
C608 C 0.68513 0.25823 0.70101 0.0
C609 C 0.66307 0.22956 0.70611 0.0
C610 C 0.66993 0.20964 0.72648 0.0
C611 C 0.69808 0.21809 0.74014 0.0
H612 H 0.51916 0.53382 0.86518 0.0
H613 H 0.53012 0.58706 0.99038 0.0
H614 H 0.50307 0.49236 0.91869 0.0
H615 H 0.51191 0.54583 0.04307 0.0
H616 H 0.5026 0.47167 0.13247 0.0
H617 H 0.51891 0.51305 0.0813 0.0
H618 H 0.46433 0.45952 0.96442 0.0
H619 H 0.44981 0.41726 0.01502 0.0
C620 C 0.51859 0.5367 0.90423 0.0
C621 C 0.52633 0.56373 0.92365 0.0
C622 C 0.50873 0.51285 0.93488 0.0
C623 C 0.50561 0.51542 0.98541 0.0
C624 C 0.51439 0.5428 0.00471 0.0
C625 C 0.52505 0.56667 0.97435 0.0
C626 C 0.49362 0.46857 0.09612 0.0
C627 C 0.47525 0.44093 0.07767 0.0
C628 C 0.50299 0.49257 0.06653 0.0
C629 C 0.4935 0.48985 0.01802 0.0
C630 C 0.47298 0.46244 0.00096 0.0
C631 C 0.46412 0.43819 0.03035 0.0
H632 H 0.58189 0.03084 0.02597 0.0
H633 H 0.52834 0.03859 0.13555 0.0
H634 H 0.5398 0.00316 0.97497 0.0
H635 H 0.48714 0.0131 0.08369 0.0
H636 H 0.4128 0.94727 -0.0055 0.0
H637 H 0.45338 0.9716 0.04864 0.0
H638 H 0.50916 0.01041 0.92429 0.0
H639 H 0.46842 0.98416 0.86978 0.0
C640 C 0.56115 0.0263 0.03955 0.0
C641 C 0.55867 0.03722 0.08474 0.0
C642 C 0.53704 0.01091 0.00987 0.0
C643 C 0.51003 0.00646 0.02444 0.0
C644 C 0.50738 0.01583 0.07102 0.0
C645 C 0.53125 0.03061 0.10097 0.0
C646 C 0.43358 0.96158 0.97865 0.0
C647 C 0.43737 0.96386 0.9278 0.0
C648 C 0.45703 0.97551 0.00985 0.0
C649 C 0.48484 0.99273 0.99107 0.0
C650 C 0.48828 0.99661 0.94016 0.0
C651 C 0.46485 0.98207 0.90885 0.0
H652 H 0.9719 0.55223 0.02369 0.0
H653 H 0.96548 0.49233 0.13482 0.0
H654 H 0.99961 0.53771 0.97294 0.0
H655 H 0.99094 0.47643 0.08323 0.0
H656 H 0.05622 0.46728 0.99369 0.0
H657 H 0.03219 0.48399 0.04762 0.0
H658 H 0.99229 0.49945 0.92322 0.0
H659 H 0.01828 0.48452 0.86884 0.0
C660 C 0.97674 0.53633 0.03765 0.0
C661 C 0.96615 0.5233 0.08318 0.0
C662 C 0.99215 0.52754 0.00813 0.0
C663 C 0.99692 0.50526 0.02321 0.0
C664 C 0.98795 0.4937 0.07014 0.0
C665 C 0.97317 0.50288 0.09993 0.0
C666 C 0.04173 0.4735 0.97781 0.0
C667 C 0.03906 0.47447 0.92696 0.0
C668 C 0.02797 0.4833 0.00889 0.0
C669 C 0.01053 0.49359 0.98999 0.0
C670 C 0.00627 0.4926 0.93914 0.0
C671 C 0.02065 0.48346 0.90793 0.0
H672 H 0.47459 0.50934 0.35166 0.0
H673 H 0.42071 0.45004 0.46319 0.0
H674 H 0.51599 0.52455 0.40294 0.0
H675 H 0.46289 0.46396 0.51367 0.0
H676 H 0.53524 0.51687 0.61709 0.0
H677 H 0.49441 0.50255 0.56287 0.0
H678 H 0.54906 0.51559 0.43835 0.0
H679 H 0.58979 0.53158 0.49209 0.0
C680 C 0.47163 0.49879 0.38657 0.0
C681 C 0.44411 0.47871 0.40352 0.0
C682 C 0.49559 0.50757 0.41617 0.0
C683 C 0.49288 0.496 0.4631 0.0
C684 C 0.4657 0.47411 0.47843 0.0
C685 C 0.44153 0.46568 0.44908 0.0
C686 C 0.53857 0.51748 0.57801 0.0
C687 C 0.56576 0.52553 0.55891 0.0
C688 C 0.51508 0.50871 0.54691 0.0
C689 C 0.51818 0.50725 0.49611 0.0
C690 C 0.54572 0.51664 0.47708 0.0
C691 C 0.56925 0.526 0.50804 0.0
H692 H 0.5506 0.97053 0.46517 0.0
H693 H 0.49382 0.96668 0.35016 0.0
H694 H 0.53556 0.99811 0.51511 0.0
H695 H 0.47744 0.99216 0.40085 0.0
H696 H 0.46807 0.05736 0.49152 0.0
H697 H 0.48507 0.03337 0.43785 0.0
H698 H 0.49586 0.99 0.56194 0.0
H699 H 0.48055 0.01574 0.61609 0.0
C700 C 0.5353 0.97593 0.45018 0.0
C701 C 0.52322 0.96603 0.40382 0.0
C702 C 0.5262 0.99126 0.47921 0.0
C703 C 0.50459 0.99668 0.46275 0.0
C704 C 0.49412 0.98855 0.41502 0.0
C705 C 0.50358 0.97378 0.38576 0.0
C706 C 0.47329 0.04209 0.50728 0.0
C707 C 0.47289 0.03837 0.55806 0.0
C708 C 0.48327 0.02839 0.4764 0.0
C709 C 0.49244 0.01006 0.49544 0.0
C710 C 0.48995 0.0047 0.54602 0.0
C711 C 0.48058 0.01895 0.57705 0.0
H712 H 0.94602 0.41155 0.49131 0.0
H713 H 0.98609 0.46636 0.61588 0.0
H714 H 0.96998 0.45232 0.43739 0.0
H715 H 0.01188 0.50724 0.56151 0.0
H716 H 0.03133 0.58074 0.46317 0.0
H717 H 0.00375 0.53831 0.5134 0.0
H718 H 0.01121 0.486 0.40095 0.0
H719 H 0.03665 0.52763 0.34992 0.0
C720 C 0.96096 0.43216 0.50706 0.0
C721 C 0.96423 0.43573 0.55788 0.0
C722 C 0.97464 0.45572 0.47602 0.0
C723 C 0.99256 0.48335 0.49494 0.0
C724 C 0.9975 0.4865 0.54564 0.0
C725 C 0.98323 0.46299 0.57682 0.0
C726 C 0.02626 0.56003 0.44863 0.0
C727 C 0.03656 0.55776 0.4027 0.0
C728 C 0.01093 0.53573 0.47783 0.0
C729 C 0.00593 0.50871 0.46199 0.0
C730 C 0.01447 0.50626 0.41463 0.0
C731 C 0.02922 0.53036 0.38517 0.0
H732 H 0.57888 0.43557 0.06782 0.0
H733 H 0.52703 0.35892 0.98342 0.0
H734 H 0.60787 0.45883 -0.00383 0.0
H735 H 0.55706 0.38165 0.91231 0.0
H736 H 0.57331 0.44499 0.79017 0.0
H737 H 0.55616 0.41694 0.8631 0.0
H738 H 0.63994 0.46604 0.92886 0.0
H739 H 0.65739 0.49539 0.85455 0.0
C740 C 0.57427 0.42328 0.0344 0.0
C741 C 0.55008 0.39565 0.03093 0.0
C742 C 0.59108 0.43664 0.99325 0.0
C743 C 0.58429 0.42248 0.94798 0.0
C744 C 0.56227 0.39358 0.9462 0.0
C745 C 0.54513 0.38043 0.98705 0.0
C746 C 0.58839 0.45002 0.8198 0.0
C747 C 0.6168 0.47282 0.81636 0.0
C748 C 0.57852 0.43343 0.86175 0.0
C749 C 0.59667 0.43882 0.90192 0.0
C750 C 0.62534 0.46131 0.89857 0.0
C751 C 0.63536 0.47811 0.85604 0.0
H752 H 0.64162 0.16686 0.98408 0.0
H753 H 0.56628 0.14498 0.07033 0.0
H754 H 0.61767 0.17132 0.91204 0.0
H755 H 0.54185 0.14807 -0.00211 0.0
H756 H 0.50491 0.15919 0.85442 0.0
H757 H 0.5344 0.17159 0.92847 0.0
H758 H 0.58119 0.13347 0.86596 0.0
H759 H 0.55287 0.12199 0.79291 0.0
C760 C 0.62016 0.16356 0.98789 0.0
C761 C 0.60567 0.15495 0.03271 0.0
C762 C 0.60629 0.16587 0.9465 0.0
C763 C 0.57744 0.15907 0.94877 0.0
C764 C 0.56399 0.15334 -0.00537 0.0
C765 C 0.57804 0.1515 0.03626 0.0
C766 C 0.52167 0.15373 0.8565 0.0
C767 C 0.5264 0.13957 0.81751 0.0
C768 C 0.53855 0.1608 0.89894 0.0
C769 C 0.56053 0.15394 0.90303 0.0
C770 C 0.56512 0.1399 0.86386 0.0
C771 C 0.54844 0.1329 0.8219 0.0
H772 H 0.87752 0.43083 0.78957 0.0
H773 H 0.8423 0.34629 0.85267 0.0
H774 H 0.86641 0.44789 0.8627 0.0
H775 H 0.83021 0.36359 0.92691 0.0
H776 H 0.85841 0.42293 0.06764 0.0
H777 H 0.85429 0.39496 -0.00475 0.0
H778 H 0.82963 0.44688 0.91077 0.0
H779 H 0.83524 0.47582 0.9827 0.0
C780 C 0.86712 0.41566 0.81896 0.0
C781 C 0.86105 0.38712 0.81509 0.0
C782 C 0.86031 0.42547 0.86098 0.0
C783 C 0.847 0.4071 0.90074 0.0
C784 C 0.8405 0.37835 0.89698 0.0
C785 C 0.84739 0.36842 0.85446 0.0
C786 C 0.85141 0.42796 0.03389 0.0
C787 C 0.84789 0.45211 0.03063 0.0
C788 C 0.84894 0.41178 0.99229 0.0
C789 C 0.84248 0.41916 0.94674 0.0
C790 C 0.83565 0.44121 0.94491 0.0
C791 C 0.83862 0.45769 0.98625 0.0
H792 H 0.4978 0.65723 0.63143 0.0
H793 H 0.4435 0.57463 0.69815 0.0
H794 H 0.469 0.64008 0.55653 0.0
H795 H 0.41601 0.5576 0.62453 0.0
H796 H 0.36004 0.52895 0.50064 0.0
H797 H 0.38255 0.55875 0.5721 0.0
H798 H 0.46109 0.60765 0.49064 0.0
H799 H 0.43801 0.57899 0.41856 0.0
C800 C 0.47976 0.63558 0.6303 0.0
C801 C 0.4733 0.61728 0.67073 0.0
C802 C 0.46328 0.6257 0.58739 0.0
C803 C 0.43995 0.59743 0.58432 0.0
C804 C 0.43324 0.57966 0.62543 0.0
C805 C 0.4495 0.58941 0.66781 0.0
C806 C 0.38183 0.54661 0.49763 0.0
C807 C 0.39739 0.55118 0.45425 0.0
C808 C 0.39489 0.56359 0.53872 0.0
C809 C 0.42404 0.58504 0.53779 0.0
C810 C 0.4387 0.59136 0.49298 0.0
C811 C 0.42542 0.57476 0.45155 0.0
H812 H 0.42904 0.87216 0.70005 0.0
H813 H 0.34561 0.84093 0.63457 0.0
H814 H 0.44626 0.86183 0.62642 0.0
H815 H 0.36301 0.82949 0.5597 0.0
H816 H 0.42337 0.85924 0.42061 0.0
H817 H 0.39502 0.85412 0.49296 0.0
H818 H 0.44542 0.82663 0.57525 0.0
H819 H 0.47481 0.83337 0.50345 0.0
C820 C 0.41413 0.86277 0.67 0.0
C821 C 0.38591 0.85776 0.67331 0.0
C822 C 0.42401 0.85637 0.62763 0.0
C823 C 0.40605 0.84449 0.58692 0.0
C824 C 0.37752 0.83876 0.59028 0.0
C825 C 0.3675 0.84525 0.63318 0.0
C826 C 0.428 0.85145 0.45385 0.0
C827 C 0.45184 0.84741 0.45661 0.0
C828 C 0.41158 0.84839 0.49544 0.0
C829 C 0.4184 0.84078 0.54049 0.0
C830 C 0.44018 0.83354 0.54162 0.0
C831 C 0.45693 0.83715 0.50035 0.0
H832 H 0.13065 0.55732 0.69913 0.0
H833 H 0.16121 0.50458 0.63332 0.0
H834 H 0.14097 0.58479 0.62547 0.0
H835 H 0.17263 0.53334 0.55841 0.0
H836 H 0.14289 0.56414 0.4196 0.0
H837 H 0.14798 0.54086 0.49186 0.0
H838 H 0.17617 0.61892 0.57414 0.0
H839 H 0.16946 0.64164 0.50245 0.0
C840 C 0.13989 0.55165 0.66899 0.0
C841 C 0.14472 0.52834 0.67222 0.0
C842 C 0.14628 0.56789 0.62661 0.0
C843 C 0.15797 0.56164 0.5858 0.0
C844 C 0.16352 0.53871 0.58907 0.0
C845 C 0.15704 0.52226 0.63199 0.0
C846 C 0.15083 0.57658 0.45282 0.0
C847 C 0.15508 0.60455 0.45562 0.0
C848 C 0.15387 0.5632 0.49435 0.0
C849 C 0.16167 0.57767 0.53938 0.0
C850 C 0.16911 0.60675 0.54053 0.0
C851 C 0.16551 0.61992 0.49932 0.0
H852 H 0.36292 0.49045 0.11533 0.0
H853 H 0.3919 0.56639 0.2031 0.0
H854 H 0.38274 0.52031 0.04251 0.0
H855 H 0.41024 0.59627 0.13074 0.0
H856 H 0.48311 0.63457 0.01677 0.0
H857 H 0.45136 0.60944 0.08412 0.0
H858 H 0.38542 0.55378 0.98263 0.0
H859 H 0.41776 0.57853 0.91482 0.0
C860 C 0.37261 0.51349 0.11862 0.0
C861 C 0.37625 0.52622 0.16463 0.0
C862 C 0.38391 0.53068 0.07698 0.0
C863 C 0.39865 0.56085 0.08076 0.0
C864 C 0.39982 0.57323 0.12651 0.0
C865 C 0.38909 0.55612 0.16799 0.0
C866 C 0.46161 0.61747 0.00858 0.0
C867 C 0.45325 0.60832 0.96032 0.0
C868 C 0.44322 0.60301 0.04741 0.0
C869 C 0.41583 0.57918 0.03902 0.0
C870 C 0.40657 0.57159 0.99053 0.0
C871 C 0.42507 0.58599 0.9516 0.0
H872 H 0.42326 0.83931 0.91675 0.0
H873 H 0.36727 0.84848 0.01909 0.0
H874 H 0.4479 0.83139 0.98432 0.0
H875 H 0.39232 0.84158 0.08622 0.0
H876 H 0.43563 0.8255 0.20487 0.0
H877 H 0.40562 0.81372 0.13262 0.0
H878 H 0.4814 0.86216 0.04407 0.0
H879 H 0.51139 0.87242 0.11676 0.0
C880 C 0.41579 0.83905 0.95356 0.0
C881 C 0.39353 0.84499 0.96248 0.0
C882 C 0.43012 0.83477 0.99235 0.0
C883 C 0.42254 0.83635 0.04089 0.0
C884 C 0.39874 0.83994 0.04945 0.0
C885 C 0.38433 0.84404 0.01076 0.0
C886 C 0.44583 0.83291 0.16971 0.0
C887 C 0.47571 0.85003 0.1662 0.0
C888 C 0.42865 0.82637 0.12829 0.0
C889 C 0.44094 0.83753 0.0825 0.0
C890 C 0.4711 0.85301 0.07858 0.0
C891 C 0.48836 0.85903 0.12015 0.0
H892 H 0.16322 0.58449 0.9158 0.0
H893 H 0.15437 0.5195 0.01809 0.0
H894 H 0.17104 0.61705 0.98338 0.0
H895 H 0.1612 0.55148 0.08524 0.0
H896 H 0.17743 0.61106 0.20387 0.0
H897 H 0.1891 0.59276 0.13155 0.0
H898 H 0.14025 0.61972 0.04332 0.0
H899 H 0.13006 0.6395 0.1161 0.0
C900 C 0.16353 0.57731 0.9526 0.0
C901 C 0.15772 0.54916 0.9615 0.0
C902 C 0.16776 0.59594 0.9914 0.0
C903 C 0.16626 0.58683 0.03994 0.0
C904 C 0.16278 0.55949 0.04848 0.0
C905 C 0.15872 0.54097 0.00977 0.0
C906 C 0.16992 0.61377 0.16877 0.0
C907 C 0.1527 0.62644 0.16539 0.0
C908 C 0.17638 0.60307 0.1273 0.0
C909 C 0.16509 0.60408 0.08159 0.0
C910 C 0.14951 0.61867 0.07778 0.0
C911 C 0.14354 0.62995 0.1194 0.0
H912 H 0.56073 0.42274 0.28913 0.0
H913 H 0.50324 0.34199 0.35878 0.0
H914 H 0.58961 0.43888 0.36121 0.0
H915 H 0.53351 0.3581 0.43213 0.0
H916 H 0.56666 0.42098 0.56691 0.0
H917 H 0.54333 0.39117 0.49649 0.0
H918 H 0.6221 0.43713 0.41442 0.0
H919 H 0.64493 0.46839 0.48426 0.0
C920 C 0.55431 0.40815 0.31983 0.0
C921 C 0.52913 0.38121 0.31836 0.0
C922 C 0.5714 0.41733 0.36128 0.0
C923 C 0.56417 0.39986 0.40287 0.0
C924 C 0.53963 0.37228 0.40094 0.0
C925 C 0.52229 0.363 0.35895 0.0
C926 C 0.57928 0.42439 0.53422 0.0
C927 C 0.60743 0.44774 0.53068 0.0
C928 C 0.56585 0.40703 0.49371 0.0
C929 C 0.58045 0.41228 0.44903 0.0
C930 C 0.6098 0.43319 0.44766 0.0
C931 C 0.62303 0.45101 0.48783 0.0
H932 H 0.58431 0.16099 0.57351 0.0
H933 H 0.52055 0.15514 0.47122 0.0
H934 H 0.617 0.16894 0.50618 0.0
H935 H 0.55259 0.16195 0.4042 0.0
H936 H 0.61248 0.17791 0.28586 0.0
H937 H 0.59405 0.18926 0.3584 0.0
H938 H 0.61951 0.13875 0.44544 0.0
H939 H 0.63944 0.12893 0.37254 0.0
C940 C 0.57745 0.162 0.53679 0.0
C941 C 0.54959 0.15703 0.52782 0.0
C942 C 0.59614 0.16627 0.49809 0.0
C943 C 0.58738 0.16557 0.44953 0.0
C944 C 0.56036 0.1629 0.44098 0.0
C945 C 0.54179 0.15886 0.47962 0.0
C946 C 0.61483 0.16996 0.32079 0.0
C947 C 0.62715 0.15243 0.32379 0.0
C948 C 0.60404 0.17623 0.36237 0.0
C949 C 0.6046 0.16441 0.40781 0.0
C950 C 0.61881 0.14844 0.41125 0.0
C951 C 0.63018 0.14268 0.36954 0.0
H952 H 0.82576 0.43536 0.28321 0.0
H953 H 0.87323 0.51137 0.37056 0.0
H954 H 0.81436 0.40557 0.35566 0.0
H955 H 0.86335 0.48161 0.44343 0.0
H956 H 0.84072 0.42375 0.57141 0.0
H957 H 0.83302 0.44851 0.50375 0.0
H958 H 0.84191 0.39201 0.40208 0.0
H959 H 0.84856 0.36686 0.4693 0.0
C960 C 0.83337 0.44566 0.31825 0.0
C961 C 0.85051 0.47556 0.32146 0.0
C962 C 0.82707 0.4286 0.3598 0.0
C963 C 0.83847 0.44102 0.40545 0.0
C964 C 0.85401 0.4712 0.40906 0.0
C965 C 0.8598 0.48833 0.36738 0.0
C966 C 0.84023 0.41612 0.53464 0.0
C967 C 0.84569 0.39353 0.52582 0.0
C968 C 0.83608 0.43053 0.49577 0.0
C969 C 0.83734 0.42271 0.44723 0.0
C970 C 0.84051 0.39864 0.43881 0.0
C971 C 0.84446 0.38415 0.47757 0.0
H972 H 0.30607 0.36046 0.35624 0.0
H973 H 0.31827 0.396 0.21132 0.0
H974 H 0.31723 0.32449 0.32658 0.0
H975 H 0.3304 0.36085 0.18183 0.0
H976 H 0.35983 0.30368 0.13324 0.0
H977 H 0.32426 0.31523 0.16351 0.0
H978 H 0.36256 0.33038 0.30694 0.0
H979 H 0.39732 0.3179 0.27691 0.0
C980 C 0.3102 0.35997 0.31764 0.0
C981 C 0.3117 0.38134 0.28624 0.0
C982 C 0.31692 0.33953 0.30072 0.0
C983 C 0.3256 0.34017 0.2521 0.0
C984 C 0.3238 0.35949 0.21952 0.0
C985 C 0.31675 0.37976 0.23639 0.0
C986 C 0.35986 0.30834 0.17173 0.0
C987 C 0.38168 0.31031 0.20253 0.0
C988 C 0.33964 0.31528 0.18898 0.0
C989 C 0.34094 0.32463 0.23734 0.0
C990 C 0.3607 0.32328 0.26946 0.0
C991 C 0.38075 0.31602 0.25228 0.0
H992 H 0.64216 0.94621 0.3561 0.0
H993 H 0.60582 0.92279 0.21168 0.0
H994 H 0.67803 0.99326 0.32617 0.0
H995 H 0.64082 0.97 0.18195 0.0
H996 H 0.69737 0.05651 0.13302 0.0
H997 H 0.68613 0.00943 0.16294 0.0
H998 H 0.67226 0.03277 0.30721 0.0
H999 H 0.68453 0.08 0.2775 0.0
C1000 C 0.64245 0.9508 0.31754 0.0
C1001 C 0.6209 0.93094 0.28637 0.0
C1002 C 0.66283 0.97793 0.30047 0.0
C1003 C 0.66192 0.98593 0.25195 0.0
C1004 C 0.6424 0.9648 0.21956 0.0
C1005 C 0.62222 0.93752 0.23656 0.0
C1006 C 0.69308 0.05193 0.17159 0.0
C1007 C 0.69142 0.07182 0.20278 0.0
C1008 C 0.6863 0.02479 0.18866 0.0
C1009 C 0.67738 0.0168 0.23719 0.0
C1010 C 0.67903 0.03795 0.2696 0.0
C1011 C 0.68616 0.06524 0.2526 0.0
H1012 H 0.08011 0.6839 0.21159 0.0
H1013 H 0.05643 0.69638 0.35613 0.0
H1014 H 0.03296 0.67179 0.1817 0.0
H1015 H 0.00942 0.6853 0.32606 0.0
H1016 H 0.94653 0.64217 0.13238 0.0
H1017 H 0.99359 0.6778 0.16273 0.0
H1018 H 0.96992 0.64012 0.30654 0.0
H1019 H 0.92272 0.60536 0.2764 0.0
C1020 C 0.06534 0.68549 0.23648 0.0
C1021 C 0.07183 0.69061 0.28635 0.0
C1022 C 0.03809 0.67846 0.21939 0.0
C1023 C 0.01689 0.67675 0.25174 0.0
C1024 C 0.02481 0.68551 0.30037 0.0
C1025 C 0.05191 0.6922 0.31752 0.0
C1026 C 0.95103 0.64231 0.17095 0.0
C1027 C 0.93106 0.62069 0.20187 0.0
C1028 C 0.97816 0.66255 0.18826 0.0
C1029 C 0.98605 0.66143 0.23678 0.0
C1030 C 0.96481 0.64186 0.26894 0.0
C1031 C 0.93754 0.62181 0.25171 0.0
H1032 H 0.60292 0.68092 0.7098 0.0
H1033 H 0.64204 0.69541 0.85215 0.0
H1034 H 0.63659 0.66718 0.67871 0.0
H1035 H 0.67645 0.68255 0.8208 0.0
H1036 H 0.68344 0.60267 0.77221 0.0
H1037 H 0.67014 0.63687 0.80208 0.0
H1038 H 0.68181 0.67302 0.65744 0.0
H1039 H 0.69428 0.63809 0.62735 0.0
C1040 C 0.61959 0.68252 0.73392 0.0
C1041 C 0.61947 0.68884 0.78363 0.0
C1042 C 0.63899 0.67453 0.71611 0.0
C1043 C 0.65893 0.67298 0.74752 0.0
C1044 C 0.66092 0.68264 0.79585 0.0
C1045 C 0.64136 0.69036 0.81371 0.0
C1046 C 0.68428 0.61861 0.74714 0.0
C1047 C 0.68947 0.61727 0.69723 0.0
C1048 C 0.67656 0.63834 0.76427 0.0
C1049 C 0.67414 0.65741 0.73195 0.0
C1050 C 0.6826 0.65818 0.68314 0.0
C1051 C 0.69008 0.63831 0.66598 0.0
H1052 H 0.30535 0.94578 0.85574 0.0
H1053 H 0.31966 0.9216 0.71279 0.0
H1054 H 0.31738 0.99287 0.82473 0.0
H1055 H 0.33252 0.96882 0.68202 0.0
H1056 H 0.36075 0.05529 0.63129 0.0
H1057 H 0.3259 0.00795 0.66162 0.0
H1058 H 0.36307 0.03235 0.80564 0.0
H1059 H 0.39723 0.07977 0.77555 0.0
C1060 C 0.31018 0.9502 0.81726 0.0
C1061 C 0.31196 0.93006 0.7869 0.0
C1062 C 0.31739 0.97736 0.79959 0.0
C1063 C 0.32676 0.98511 0.75118 0.0
C1064 C 0.32539 0.96379 0.71951 0.0
C1065 C 0.31792 0.93651 0.73713 0.0
C1066 C 0.36076 0.05087 0.66986 0.0
C1067 C 0.38211 0.07121 0.70083 0.0
C1068 C 0.34093 0.02357 0.68716 0.0
C1069 C 0.34206 0.01588 0.7358 0.0
C1070 C 0.36136 0.03733 0.76795 0.0
C1071 C 0.38107 0.06473 0.7507 0.0
H1072 H 0.94662 0.30557 0.6309 0.0
H1073 H 0.92226 0.31864 0.77459 0.0
H1074 H 0.99392 0.31806 0.66147 0.0
H1075 H 0.96965 0.33186 0.80494 0.0
H1076 H 0.08049 0.39818 0.71202 0.0
H1077 H 0.03316 0.36395 0.68144 0.0
H1078 H 0.009 0.32536 0.82447 0.0
H1079 H 0.05622 0.36025 0.85527 0.0
C1080 C 0.95104 0.31022 0.66943 0.0
C1081 C 0.93076 0.31153 0.70014 0.0
C1082 C 0.97832 0.31769 0.68685 0.0
C1083 C 0.98604 0.32679 0.73538 0.0
C1084 C 0.96464 0.32495 0.76734 0.0
C1085 C 0.93726 0.31726 0.74995 0.0
C1086 C 0.06552 0.38168 0.73648 0.0
C1087 C 0.07201 0.38229 0.78626 0.0
C1088 C 0.03818 0.36195 0.71897 0.0
C1089 C 0.01682 0.34222 0.75077 0.0
C1090 C 0.02456 0.34072 0.79923 0.0
C1091 C 0.05179 0.36056 0.81678 0.0
H1092 H 0.39199 0.18913 0.8224 0.0
H1093 H 0.45165 0.17877 0.91394 0.0
H1094 H 0.38558 0.21668 0.88718 0.0
H1095 H 0.44503 0.20632 0.97796 0.0
H1096 H 0.46904 0.29875 0.01877 0.0
H1097 H 0.45862 0.26893 0.9458 0.0
H1098 H 0.37662 0.20733 0.00577 0.0
H1099 H 0.38699 0.237 0.07891 0.0
C1100 C 0.40289 0.19169 0.85683 0.0
C1101 C 0.42302 0.18237 0.86236 0.0
C1102 C 0.39934 0.20771 0.89359 0.0
C1103 C 0.41556 0.21421 0.93639 0.0
C1104 C 0.4328 0.20191 0.94451 0.0
C1105 C 0.4363 0.18587 0.908 0.0
C1106 C 0.44809 0.2798 0.01509 0.0
C1107 C 0.42893 0.26997 0.0545 0.0
C1108 C 0.44228 0.26258 0.97369 0.0
C1109 C 0.41707 0.23577 0.97107 0.0
C1110 C 0.39617 0.22792 0.00728 0.0
C1111 C 0.40205 0.24502 0.04881 0.0
H1112 H 0.70142 0.17125 0.01953 0.0
H1113 H 0.76263 0.14834 0.07297 0.0
H1114 H 0.7303 0.19112 0.94582 0.0
H1115 H 0.7913 0.16795 -0.00109 0.0
H1116 H 0.8187 0.27319 0.91006 0.0
H1117 H 0.79065 0.23891 0.97344 0.0
H1118 H 0.7841 0.16965 0.88522 0.0
H1119 H 0.81201 0.20376 0.82083 0.0
C1120 C 0.71998 0.16875 0.01412 0.0
C1121 C 0.73003 0.15861 0.05198 0.0
C1122 C 0.7367 0.18046 0.97232 0.0
C1123 C 0.76316 0.18146 0.96767 0.0
C1124 C 0.77099 0.16743 0.00203 0.0
C1125 C 0.75445 0.15601 0.04407 0.0
C1126 C 0.81224 0.25085 0.90452 0.0
C1127 C 0.81699 0.24124 0.85964 0.0
C1128 C 0.79588 0.23123 0.94063 0.0
C1129 C 0.78454 0.20177 0.93301 0.0
C1130 C 0.79225 0.19231 0.89117 0.0
C1131 C 0.80849 0.21195 0.85467 0.0
H1132 H 0.85499 0.61612 0.07312 0.0
H1133 H 0.83193 0.5324 0.01724 0.0
H1134 H 0.8358 0.62599 -0.00061 0.0
H1135 H 0.81255 0.54229 0.94375 0.0
H1136 H 0.80057 0.60989 0.81839 0.0
H1137 H 0.83466 0.61603 0.88272 0.0
H1138 H 0.76494 0.55694 0.97408 0.0
H1139 H 0.73066 0.55071 0.91062 0.0
C1140 C 0.84739 0.60054 0.04377 0.0
C1141 C 0.84464 0.57339 0.05089 0.0
C1142 C 0.83621 0.60613 0.00191 0.0
C1143 C 0.82234 0.58466 0.96682 0.0
C1144 C 0.82315 0.55906 0.97076 0.0
C1145 C 0.83457 0.55356 0.01245 0.0
C1146 C 0.79229 0.59903 0.85287 0.0
C1147 C 0.76281 0.57915 0.85874 0.0
C1148 C 0.81193 0.6024 0.88936 0.0
C1149 C 0.80227 0.58618 0.93218 0.0
C1150 C 0.77275 0.56914 0.94059 0.0
C1151 C 0.75314 0.56586 0.90441 0.0
H1152 H 0.30183 0.47052 0.46901 0.0
H1153 H 0.24025 0.38686 0.41423 0.0
H1154 H 0.27316 0.46109 0.54314 0.0
H1155 H 0.21178 0.37743 0.48864 0.0
H1156 H 0.1927 0.39293 0.66875 0.0
H1157 H 0.22039 0.38671 0.60393 0.0
H1158 H 0.21184 0.44792 0.51496 0.0
H1159 H 0.18403 0.45421 0.57885 0.0
C1160 C 0.28323 0.44946 0.47415 0.0
C1161 C 0.27302 0.42953 0.43587 0.0
C1162 C 0.26665 0.44422 0.51622 0.0
C1163 C 0.24015 0.41878 0.52066 0.0
C1164 C 0.23213 0.39717 0.48571 0.0
C1165 C 0.24854 0.40251 0.44345 0.0
C1166 C 0.19572 0.40429 0.63469 0.0
C1167 C 0.18673 0.42469 0.6296 0.0
C1168 C 0.21183 0.40087 0.59794 0.0
C1169 C 0.21889 0.41762 0.55569 0.0
C1170 C 0.20708 0.43532 0.54805 0.0
C1171 C 0.19088 0.43863 0.58446 0.0
H1172 H 0.54877 0.73092 0.57861 0.0
H1173 H 0.60951 0.80059 0.66965 0.0
H1174 H 0.55534 0.76521 0.51497 0.0
H1175 H 0.61599 0.8347 0.60513 0.0
H1176 H 0.53268 0.83292 0.47037 0.0
H1177 H 0.54226 0.81381 0.54446 0.0
H1178 H 0.62542 0.83506 0.48878 0.0
H1179 H 0.61585 0.854 0.41445 0.0
C1180 C 0.56429 0.75333 0.58452 0.0
C1181 C 0.578 0.76297 0.62988 0.0
C1182 C 0.56777 0.77294 0.54825 0.0
C1183 C 0.5854 0.80243 0.55628 0.0
C1184 C 0.60191 0.812 0.59882 0.0
C1185 C 0.59834 0.79235 0.6354 0.0
C1186 C 0.55368 0.8352 0.47524 0.0
C1187 C 0.5734 0.84457 0.43665 0.0
C1188 C 0.55902 0.82394 0.5173 0.0
C1189 C 0.58433 0.82262 0.5214 0.0
C1190 C 0.60578 0.83589 0.48612 0.0
C1191 C 0.60035 0.8469 0.4439 0.0
H1192 H 0.27229 0.81745 0.58012 0.0
H1193 H 0.2026 0.8098 0.66971 0.0
H1194 H 0.23812 0.78953 0.51647 0.0
H1195 H 0.1686 0.78202 0.60508 0.0
H1196 H 0.14841 0.76175 0.41609 0.0
H1197 H 0.16762 0.79015 0.49054 0.0
H1198 H 0.19 0.72867 0.54412 0.0
H1199 H 0.17055 0.70007 0.46998 0.0
C1200 C 0.24991 0.8108 0.5857 0.0
C1201 C 0.24021 0.81529 0.6307 0.0
C1202 C 0.23035 0.79452 0.54944 0.0
C1203 C 0.20087 0.78297 0.55705 0.0
C1204 C 0.19129 0.79036 0.59912 0.0
C1205 C 0.21087 0.80653 0.63576 0.0
C1206 C 0.15582 0.75342 0.44514 0.0
C1207 C 0.15833 0.72894 0.43727 0.0
C1208 C 0.16699 0.7698 0.48742 0.0
C1209 C 0.18067 0.76173 0.52209 0.0
C1210 C 0.17958 0.73523 0.5174 0.0
C1211 C 0.16812 0.71868 0.47534 0.0
H1212 H 0.54072 0.69973 0.97039 0.0
H1213 H 0.61325 0.77209 0.90288 0.0
H1214 H 0.55266 0.72598 0.04801 0.0
H1215 H 0.62433 0.79838 0.97968 0.0
H1216 H 0.59673 0.78661 0.18325 0.0
H1217 H 0.60357 0.76223 0.11384 0.0
H1218 H 0.57704 0.80721 0.01598 0.0
H1219 H 0.56895 0.8309 0.08543 0.0
C1220 C 0.55991 0.72058 0.97262 0.0
C1221 C 0.57574 0.73406 0.93045 0.0
C1222 C 0.56662 0.73567 0.01687 0.0
C1223 C 0.58911 0.76426 0.01914 0.0
C1224 C 0.60683 0.77642 0.97853 0.0
C1225 C 0.60045 0.76129 0.93472 0.0
C1226 C 0.59333 0.7922 0.14687 0.0
C1227 C 0.58213 0.81067 0.13987 0.0
C1228 C 0.59702 0.77797 0.10731 0.0
C1229 C 0.59056 0.78274 0.06004 0.0
C1230 C 0.58216 0.80329 0.05238 0.0
C1231 C 0.57771 0.81696 0.09202 0.0
H1232 H 0.30201 0.84163 0.97235 0.0
H1233 H 0.22947 0.84062 0.90317 0.0
H1234 H 0.27558 0.82769 0.04977 0.0
H1235 H 0.20301 0.82577 0.97979 0.0
H1236 H 0.17065 0.73859 0.0863 0.0
H1237 H 0.19407 0.77038 0.01684 0.0
H1238 H 0.23937 0.84183 0.1148 0.0
H1239 H 0.21523 0.8106 0.18422 0.0
C1240 C 0.28107 0.83977 0.97414 0.0
C1241 C 0.2676 0.84165 0.9316 0.0
C1242 C 0.26588 0.83163 0.01829 0.0
C1243 C 0.2372 0.82528 0.02007 0.0
C1244 C 0.22503 0.83041 0.97901 0.0
C1245 C 0.24026 0.83893 0.93531 0.0
C1246 C 0.18458 0.76128 0.09291 0.0
C1247 C 0.19107 0.77197 0.14076 0.0
C1248 C 0.19809 0.77942 0.05327 0.0
C1249 C 0.21868 0.80834 0.06094 0.0
C1250 C 0.2236 0.81957 0.10826 0.0
C1251 C 0.20951 0.80164 0.14783 0.0
H1252 H 0.16111 0.46081 0.97128 0.0
H1253 H 0.16156 0.389 0.90189 0.0
H1254 H 0.1751 0.44827 0.04857 0.0
H1255 H 0.17646 0.37733 0.97838 0.0
H1256 H 0.26403 0.43251 0.08471 0.0
H1257 H 0.2322 0.42419 0.01533 0.0
H1258 H 0.16067 0.39737 0.11333 0.0
H1259 H 0.19194 0.40441 0.18266 0.0
C1260 C 0.16284 0.44165 0.97301 0.0
C1261 C 0.16079 0.42623 0.93044 0.0
C1262 C 0.17102 0.43458 0.01707 0.0
C1263 C 0.17722 0.41214 0.01874 0.0
C1264 C 0.17192 0.39478 0.97769 0.0
C1265 C 0.16337 0.40152 0.93405 0.0
C1266 C 0.24132 0.42361 0.09133 0.0
C1267 C 0.23062 0.41923 0.1392 0.0
C1268 C 0.22316 0.41902 0.05174 0.0
C1269 C 0.1942 0.41051 0.05948 0.0
C1270 C 0.18296 0.40399 0.10675 0.0
C1271 C 0.20093 0.40781 0.14627 0.0
H1272 H 0.83287 0.56913 0.40185 0.0
H1273 H 0.78829 0.59719 0.3053 0.0
H1274 H 0.80889 0.57636 0.47175 0.0
H1275 H 0.76361 0.60316 0.37515 0.0
H1276 H 0.70133 0.53747 0.51688 0.0
H1277 H 0.72786 0.55063 0.43951 0.0
H1278 H 0.7988 0.62306 0.50932 0.0
H1279 H 0.77222 0.61075 0.58588 0.0
C1280 C 0.81884 0.57782 0.39568 0.0
C1281 C 0.81248 0.58249 0.34805 0.0
C1282 C 0.805 0.58178 0.43556 0.0
C1283 C 0.78425 0.58992 0.4283 0.0
C1284 C 0.77951 0.5968 0.38132 0.0
C1285 C 0.79392 0.59361 0.34153 0.0
C1286 C 0.72191 0.55701 0.51506 0.0
C1287 C 0.73494 0.57275 0.55753 0.0
C1288 C 0.73714 0.56445 0.47096 0.0
C1289 C 0.76542 0.58758 0.46916 0.0
C1290 C 0.77708 0.6051 0.51014 0.0
C1291 C 0.7618 0.59797 0.55381 0.0
H1292 H 0.43871 0.26851 0.40643 0.0
H1293 H 0.40443 0.1949 0.31053 0.0
H1294 H 0.43053 0.23703 0.47626 0.0
H1295 H 0.39748 0.16395 0.38026 0.0
H1296 H 0.46271 0.16309 0.51995 0.0
H1297 H 0.45065 0.17804 0.44314 0.0
H1298 H 0.38098 0.18126 0.51448 0.0
H1299 H 0.39217 0.16546 0.59048 0.0
C1300 C 0.42854 0.24561 0.4004 0.0
C1301 C 0.42241 0.23433 0.35288 0.0
C1302 C 0.42404 0.22766 0.44024 0.0
C1303 C 0.4138 0.19829 0.43306 0.0
C1304 C 0.40551 0.18657 0.38634 0.0
C1305 C 0.4093 0.20438 0.34662 0.0
C1306 C 0.44393 0.1655 0.51856 0.0
C1307 C 0.42872 0.16364 0.5613 0.0
C1308 C 0.43714 0.17421 0.4748 0.0
C1309 C 0.41518 0.18112 0.47361 0.0
C1310 C 0.39805 0.17616 0.51483 0.0
C1311 C 0.40452 0.1671 0.55817 0.0
H1312 H 0.73882 0.16912 0.40251 0.0
H1313 H 0.81122 0.21497 0.30587 0.0
H1314 H 0.77018 0.19214 0.47259 0.0
H1315 H 0.84203 0.23871 0.37593 0.0
H1316 H 0.84199 0.3011 0.51695 0.0
H1317 H 0.82863 0.27452 0.43964 0.0
H1318 H 0.82396 0.20124 0.51193 0.0
H1319 H 0.8382 0.22782 0.58846 0.0
C1320 C 0.76153 0.18323 0.39631 0.0
C1321 C 0.77243 0.19022 0.34866 0.0
C1322 C 0.77943 0.19651 0.43631 0.0
C1323 C 0.80832 0.21736 0.4292 0.0
C1324 C 0.81979 0.22273 0.38204 0.0
C1325 C 0.8021 0.20887 0.3421 0.0
C1326 C 0.8396 0.27991 0.51576 0.0
C1327 C 0.84055 0.26632 0.55884 0.0
C1328 C 0.83182 0.26465 0.47167 0.0
C1329 C 0.82488 0.23577 0.47047 0.0
C1330 C 0.82904 0.22341 0.51223 0.0
C1331 C 0.83719 0.23869 0.55591 0.0
loop_
_geom_bond_atom_site_label_1
_geom_bond_atom_site_label_2
_geom_bond_distance
_geom_bond_site_symmetry_2
_ccdc_geom_bond_type
C0 O12 1.241 . S
C0 O13 1.280 . S
C1 O14 1.277 1_554 S
C1 O15 1.245 . S
C2 O26 1.247 . S
C2 O28 1.289 . S
Mg3 O4 1.926 . S
Mg3 O13 1.984 . S
Mg3 O15 1.988 . S
Mg3 O16 2.061 . S
O4 Mg3 1.926 . S
O4 Mg5 1.986 . S
O4 Mg6 1.917 . S
Mg5 O4 1.986 . S
Mg5 O12 2.042 . S
Mg5 O14 2.041 1_554 S
Mg5 O20 2.038 . S
Mg5 O28 2.238 . S
Mg6 O4 1.917 . S
Mg6 O7 1.917 . S
Mg6 O17 2.106 . S
Mg6 O19 2.079 . S
Mg6 O28 2.106 . S
Mg6 O29 2.079 . S
O7 Mg6 1.917 . S
O7 Mg8 1.926 . S
O7 Mg9 1.986 . S
Mg8 O7 1.926 . S
Mg8 O22 1.984 . S
Mg8 O25 1.988 . S
Mg8 O26 2.061 . S
Mg9 O7 1.986 . S
Mg9 O17 2.238 . S
Mg9 O21 2.042 . S
Mg9 O23 2.041 . S
Mg9 O30 2.038 . S
C10 O16 1.247 . S
C10 O17 1.289 . S
C11 O29 1.245 . S
C11 O30 1.274 . S
O12 C0 1.241 . S
O12 Mg5 2.042 . S
O13 C0 1.280 . S
O13 Mg3 1.984 . S
O14 C1 1.277 1_556 S
O14 Mg5 2.041 1_556 S
O15 C1 1.245 . S
O15 Mg3 1.988 . S
O16 Mg3 2.061 . S
O16 C10 1.247 . S
O17 Mg6 2.106 . S
O17 Mg9 2.238 . S
O17 C10 1.289 . S
C18 O19 1.245 . S
C18 O20 1.274 . S
O19 Mg6 2.079 . S
O19 C18 1.245 . S
O20 Mg5 2.038 . S
O20 C18 1.274 . S
O21 Mg9 2.042 . S
O21 C24 1.241 . S
O22 Mg8 1.984 . S
O22 C24 1.280 . S
O23 Mg9 2.041 . S
O23 C27 1.277 . S
C24 O21 1.241 . S
C24 O22 1.280 . S
O25 Mg8 1.988 . S
O25 C27 1.245 . S
O26 C2 1.247 . S
O26 Mg8 2.061 . S
C27 O23 1.277 . S
C27 O25 1.245 . S
O28 C2 1.289 . S
O28 Mg5 2.238 . S
O28 Mg6 2.106 . S
O29 Mg6 2.079 . S
O29 C11 1.245 . S
O30 Mg9 2.038 . S
O30 C11 1.274 . S
C31 O43 1.241 . S
C31 O44 1.280 . S
C32 O45 1.277 1_554 S
C32 O46 1.245 . S
C33 O57 1.247 . S
C33 O59 1.289 . S
Mg34 O35 1.926 . S
Mg34 O44 1.984 . S
Mg34 O46 1.988 . S
Mg34 O47 2.061 . S
O35 Mg34 1.926 . S
O35 Mg36 1.986 . S
O35 Mg37 1.917 . S
Mg36 O35 1.986 . S
Mg36 O43 2.042 . S
Mg36 O45 2.041 1_554 S
Mg36 O51 2.038 . S
Mg36 O59 2.238 . S
Mg37 O35 1.917 . S
Mg37 O38 1.917 . S
Mg37 O48 2.106 . S
Mg37 O50 2.079 . S
Mg37 O59 2.106 . S
Mg37 O60 2.079 . S
O38 Mg37 1.917 . S
O38 Mg39 1.926 . S
O38 Mg40 1.986 . S
Mg39 O38 1.926 . S
Mg39 O53 1.984 . S
Mg39 O56 1.988 . S
Mg39 O57 2.061 . S
Mg40 O38 1.986 . S
Mg40 O48 2.238 . S
Mg40 O52 2.042 . S
Mg40 O54 2.041 . S
Mg40 O61 2.038 . S
C41 O47 1.247 . S
C41 O48 1.289 . S
C42 O60 1.245 . S
C42 O61 1.274 . S
O43 C31 1.241 . S
O43 Mg36 2.042 . S
O44 C31 1.280 . S
O44 Mg34 1.984 . S
O45 C32 1.277 1_556 S
O45 Mg36 2.041 1_556 S
O46 C32 1.245 . S
O46 Mg34 1.988 . S
O47 Mg34 2.061 . S
O47 C41 1.247 . S
O48 Mg37 2.106 . S
O48 Mg40 2.238 . S
O48 C41 1.289 . S
C49 O50 1.245 . S
C49 O51 1.274 . S
O50 Mg37 2.079 . S
O50 C49 1.245 . S
O51 Mg36 2.038 . S
O51 C49 1.274 . S
O52 Mg40 2.042 . S
O52 C55 1.241 . S
O53 Mg39 1.984 . S
O53 C55 1.280 . S
O54 Mg40 2.041 . S
O54 C58 1.277 . S
C55 O52 1.241 . S
C55 O53 1.280 . S
O56 Mg39 1.988 . S
O56 C58 1.245 . S
O57 C33 1.247 . S
O57 Mg39 2.061 . S
C58 O54 1.277 . S
C58 O56 1.245 . S
O59 C33 1.289 . S
O59 Mg36 2.238 . S
O59 Mg37 2.106 . S
O60 Mg37 2.079 . S
O60 C42 1.245 . S
O61 Mg40 2.038 . S
O61 C42 1.274 . S
C62 O74 1.241 . S
C62 O75 1.280 . S
C63 O76 1.277 1_554 S
C63 O77 1.245 . S
C64 O88 1.247 . S
C64 O90 1.289 . S
Mg65 O66 1.926 . S
Mg65 O75 1.984 . S
Mg65 O77 1.988 . S
Mg65 O78 2.061 . S
O66 Mg65 1.926 . S
O66 Mg67 1.986 . S
O66 Mg68 1.917 . S
Mg67 O66 1.986 . S
Mg67 O74 2.042 . S
Mg67 O76 2.041 1_554 S
Mg67 O82 2.038 . S
Mg67 O90 2.238 . S
Mg68 O66 1.917 . S
Mg68 O69 1.917 . S
Mg68 O79 2.106 . S
Mg68 O81 2.079 . S
Mg68 O90 2.106 . S
Mg68 O91 2.079 . S
O69 Mg68 1.917 . S
O69 Mg70 1.926 . S
O69 Mg71 1.986 . S
Mg70 O69 1.926 . S
Mg70 O84 1.984 . S
Mg70 O87 1.988 . S
Mg70 O88 2.061 . S
Mg71 O69 1.986 . S
Mg71 O79 2.238 . S
Mg71 O83 2.042 . S
Mg71 O85 2.041 . S
Mg71 O92 2.038 . S
C72 O78 1.247 . S
C72 O79 1.289 . S
C73 O91 1.245 . S
C73 O92 1.274 . S
O74 C62 1.241 . S
O74 Mg67 2.042 . S
O75 C62 1.280 . S
O75 Mg65 1.984 . S
O76 C63 1.277 1_556 S
O76 Mg67 2.041 1_556 S
O77 C63 1.245 . S
O77 Mg65 1.988 . S
O78 Mg65 2.061 . S
O78 C72 1.247 . S
O79 Mg68 2.106 . S
O79 Mg71 2.238 . S
O79 C72 1.289 . S
C80 O81 1.245 . S
C80 O82 1.274 . S
O81 Mg68 2.079 . S
O81 C80 1.245 . S
O82 Mg67 2.038 . S
O82 C80 1.274 . S
O83 Mg71 2.042 . S
O83 C86 1.241 . S
O84 Mg70 1.984 . S
O84 C86 1.280 . S
O85 Mg71 2.041 . S
O85 C89 1.277 . S
C86 O83 1.241 . S
C86 O84 1.280 . S
O87 Mg70 1.988 . S
O87 C89 1.245 . S
O88 C64 1.247 . S
O88 Mg70 2.061 . S
C89 O85 1.277 . S
C89 O87 1.245 . S
O90 C64 1.289 . S
O90 Mg67 2.238 . S
O90 Mg68 2.106 . S
O91 Mg68 2.079 . S
O91 C73 1.245 . S
O92 Mg71 2.038 . S
O92 C73 1.274 . S
C93 O105 1.241 . S
C93 O106 1.280 . S
C94 O107 1.277 . S
C94 O108 1.245 . S
C95 O119 1.247 . S
C95 O121 1.289 . S
Mg96 O97 1.926 . S
Mg96 O106 1.984 . S
Mg96 O108 1.988 . S
Mg96 O109 2.061 . S
O97 Mg96 1.926 . S
O97 Mg98 1.986 . S
O97 Mg99 1.917 . S
Mg98 O97 1.986 . S
Mg98 O105 2.042 . S
Mg98 O107 2.041 . S
Mg98 O113 2.038 . S
Mg98 O121 2.238 . S
Mg99 O97 1.917 . S
Mg99 O100 1.917 . S
Mg99 O110 2.106 . S
Mg99 O112 2.079 . S
Mg99 O121 2.106 . S
Mg99 O122 2.079 . S
O100 Mg99 1.917 . S
O100 Mg101 1.926 . S
O100 Mg102 1.986 . S
Mg101 O100 1.926 . S
Mg101 O115 1.984 . S
Mg101 O118 1.988 . S
Mg101 O119 2.061 . S
Mg102 O100 1.986 . S
Mg102 O110 2.238 . S
Mg102 O114 2.042 . S
Mg102 O116 2.041 . S
Mg102 O123 2.038 . S
C103 O109 1.247 . S
C103 O110 1.289 . S
C104 O122 1.245 . S
C104 O123 1.274 . S
O105 C93 1.241 . S
O105 Mg98 2.042 . S
O106 C93 1.280 . S
O106 Mg96 1.984 . S
O107 C94 1.277 . S
O107 Mg98 2.041 . S
O108 C94 1.245 . S
O108 Mg96 1.988 . S
O109 Mg96 2.061 . S
O109 C103 1.247 . S
O110 Mg99 2.106 . S
O110 Mg102 2.238 . S
O110 C103 1.289 . S
C111 O112 1.245 . S
C111 O113 1.274 . S
O112 Mg99 2.079 . S
O112 C111 1.245 . S
O113 Mg98 2.038 . S
O113 C111 1.274 . S
O114 Mg102 2.042 . S
O114 C117 1.241 . S
O115 Mg101 1.984 . S
O115 C117 1.280 . S
O116 Mg102 2.041 . S
O116 C120 1.277 . S
C117 O114 1.241 . S
C117 O115 1.280 . S
O118 Mg101 1.988 . S
O118 C120 1.245 . S
O119 C95 1.247 . S
O119 Mg101 2.061 . S
C120 O116 1.277 . S
C120 O118 1.245 . S
O121 C95 1.289 . S
O121 Mg98 2.238 . S
O121 Mg99 2.106 . S
O122 Mg99 2.079 . S
O122 C104 1.245 . S
O123 Mg102 2.038 . S
O123 C104 1.274 . S
C124 O136 1.241 . S
C124 O137 1.280 . S
C125 O138 1.277 . S
C125 O139 1.245 . S
C126 O150 1.247 . S
C126 O152 1.289 . S
Mg127 O128 1.926 . S
Mg127 O137 1.984 . S
Mg127 O139 1.988 . S
Mg127 O140 2.061 . S
O128 Mg127 1.926 . S
O128 Mg129 1.986 . S
O128 Mg130 1.917 . S
Mg129 O128 1.986 . S
Mg129 O136 2.042 . S
Mg129 O138 2.041 . S
Mg129 O144 2.038 . S
Mg129 O152 2.238 . S
Mg130 O128 1.917 . S
Mg130 O131 1.917 . S
Mg130 O141 2.106 . S
Mg130 O143 2.079 . S
Mg130 O152 2.106 . S
Mg130 O153 2.079 . S
O131 Mg130 1.917 . S
O131 Mg132 1.926 . S
O131 Mg133 1.986 . S
Mg132 O131 1.926 . S
Mg132 O146 1.984 . S
Mg132 O149 1.988 . S
Mg132 O150 2.061 . S
Mg133 O131 1.986 . S
Mg133 O141 2.238 . S
Mg133 O145 2.042 . S
Mg133 O147 2.041 . S
Mg133 O154 2.038 . S
C134 O140 1.247 . S
C134 O141 1.289 . S
C135 O153 1.245 . S
C135 O154 1.274 . S
O136 C124 1.241 . S
O136 Mg129 2.042 . S
O137 C124 1.280 . S
O137 Mg127 1.984 . S
O138 C125 1.277 . S
O138 Mg129 2.041 . S
O139 C125 1.245 . S
O139 Mg127 1.988 . S
O140 Mg127 2.061 . S
O140 C134 1.247 . S
O141 Mg130 2.106 . S
O141 Mg133 2.238 . S
O141 C134 1.289 . S
C142 O143 1.245 . S
C142 O144 1.274 . S
O143 Mg130 2.079 . S
O143 C142 1.245 . S
O144 Mg129 2.038 . S
O144 C142 1.274 . S
O145 Mg133 2.042 . S
O145 C148 1.241 . S
O146 Mg132 1.984 . S
O146 C148 1.280 . S
O147 Mg133 2.041 . S
O147 C151 1.277 . S
C148 O145 1.241 . S
C148 O146 1.280 . S
O149 Mg132 1.988 . S
O149 C151 1.245 . S
O150 C126 1.247 . S
O150 Mg132 2.061 . S
C151 O147 1.277 . S
C151 O149 1.245 . S
O152 C126 1.289 . S
O152 Mg129 2.238 . S
O152 Mg130 2.106 . S
O153 Mg130 2.079 . S
O153 C135 1.245 . S
O154 Mg133 2.038 . S
O154 C135 1.274 . S
C155 O167 1.241 . S
C155 O168 1.280 . S
C156 O169 1.277 . S
C156 O170 1.245 . S
C157 O181 1.247 . S
C157 O183 1.289 . S
Mg158 O159 1.926 . S
Mg158 O168 1.984 . S
Mg158 O170 1.988 . S
Mg158 O171 2.061 . S
O159 Mg158 1.926 . S
O159 Mg160 1.986 . S
O159 Mg161 1.917 . S
Mg160 O159 1.986 . S
Mg160 O167 2.042 . S
Mg160 O169 2.041 . S
Mg160 O175 2.038 . S
Mg160 O183 2.238 . S
Mg161 O159 1.917 . S
Mg161 O162 1.917 . S
Mg161 O172 2.106 . S
Mg161 O174 2.079 . S
Mg161 O183 2.106 . S
Mg161 O184 2.079 . S
O162 Mg161 1.917 . S
O162 Mg163 1.926 . S
O162 Mg164 1.986 . S
Mg163 O162 1.926 . S
Mg163 O177 1.984 . S
Mg163 O180 1.988 . S
Mg163 O181 2.061 . S
Mg164 O162 1.986 . S
Mg164 O172 2.238 . S
Mg164 O176 2.042 . S
Mg164 O178 2.041 . S
Mg164 O185 2.038 . S
C165 O171 1.247 . S
C165 O172 1.289 . S
C166 O184 1.245 . S
C166 O185 1.274 . S
O167 C155 1.241 . S
O167 Mg160 2.042 . S
O168 C155 1.280 . S
O168 Mg158 1.984 . S
O169 C156 1.277 . S
O169 Mg160 2.041 . S
O170 C156 1.245 . S
O170 Mg158 1.988 . S
O171 Mg158 2.061 . S
O171 C165 1.247 . S
O172 Mg161 2.106 . S
O172 Mg164 2.238 . S
O172 C165 1.289 . S
C173 O174 1.245 . S
C173 O175 1.274 . S
O174 Mg161 2.079 . S
O174 C173 1.245 . S
O175 Mg160 2.038 . S
O175 C173 1.274 . S
O176 Mg164 2.042 . S
O176 C179 1.241 . S
O177 Mg163 1.984 . S
O177 C179 1.280 . S
O178 Mg164 2.041 . S
O178 C182 1.277 . S
C179 O176 1.241 . S
C179 O177 1.280 . S
O180 Mg163 1.988 . S
O180 C182 1.245 . S
O181 C157 1.247 . S
O181 Mg163 2.061 . S
C182 O178 1.277 . S
C182 O180 1.245 . S
O183 C157 1.289 . S
O183 Mg160 2.238 . S
O183 Mg161 2.106 . S
O184 Mg161 2.079 . S
O184 C166 1.245 . S
O185 Mg164 2.038 . S
O185 C166 1.274 . S
C186 O198 1.241 . S
C186 O199 1.280 . S
C187 O200 1.277 . S
C187 O201 1.245 . S
C188 O212 1.247 . S
C188 O214 1.289 . S
Mg189 O190 1.926 . S
Mg189 O199 1.984 . S
Mg189 O201 1.988 . S
Mg189 O202 2.061 . S
O190 Mg189 1.926 . S
O190 Mg191 1.986 . S
O190 Mg192 1.917 . S
Mg191 O190 1.986 . S
Mg191 O198 2.042 . S
Mg191 O200 2.041 . S
Mg191 O206 2.038 . S
Mg191 O214 2.238 . S
Mg192 O190 1.917 . S
Mg192 O193 1.917 . S
Mg192 O203 2.106 . S
Mg192 O205 2.079 . S
Mg192 O214 2.106 . S
Mg192 O215 2.079 . S
O193 Mg192 1.917 . S
O193 Mg194 1.926 . S
O193 Mg195 1.986 . S
Mg194 O193 1.926 . S
Mg194 O208 1.984 . S
Mg194 O211 1.988 . S
Mg194 O212 2.061 . S
Mg195 O193 1.986 . S
Mg195 O203 2.238 . S
Mg195 O207 2.042 . S
Mg195 O209 2.041 1_556 S
Mg195 O216 2.038 . S
C196 O202 1.247 . S
C196 O203 1.289 . S
C197 O215 1.245 . S
C197 O216 1.274 . S
O198 C186 1.241 . S
O198 Mg191 2.042 . S
O199 C186 1.280 . S
O199 Mg189 1.984 . S
O200 C187 1.277 . S
O200 Mg191 2.041 . S
O201 C187 1.245 . S
O201 Mg189 1.988 . S
O202 Mg189 2.061 . S
O202 C196 1.247 . S
O203 Mg192 2.106 . S
O203 Mg195 2.238 . S
O203 C196 1.289 . S
C204 O205 1.245 . S
C204 O206 1.274 . S
O205 Mg192 2.079 . S
O205 C204 1.245 . S
O206 Mg191 2.038 . S
O206 C204 1.274 . S
O207 Mg195 2.042 . S
O207 C210 1.241 . S
O208 Mg194 1.984 . S
O208 C210 1.280 . S
O209 Mg195 2.041 1_554 S
O209 C213 1.277 1_554 S
C210 O207 1.241 . S
C210 O208 1.280 . S
O211 Mg194 1.988 . S
O211 C213 1.245 . S
O212 C188 1.247 . S
O212 Mg194 2.061 . S
C213 O209 1.277 1_556 S
C213 O211 1.245 . S
O214 C188 1.289 . S
O214 Mg191 2.238 . S
O214 Mg192 2.106 . S
O215 Mg192 2.079 . S
O215 C197 1.245 . S
O216 Mg195 2.038 . S
O216 C197 1.274 . S
C217 O229 1.241 . S
C217 O230 1.280 . S
C218 O231 1.277 . S
C218 O232 1.245 . S
C219 O243 1.247 . S
C219 O245 1.289 . S
Mg220 O221 1.926 . S
Mg220 O230 1.984 . S
Mg220 O232 1.988 . S
Mg220 O233 2.061 . S
O221 Mg220 1.926 . S
O221 Mg222 1.986 . S
O221 Mg223 1.917 . S
Mg222 O221 1.986 . S
Mg222 O229 2.042 . S
Mg222 O231 2.041 . S
Mg222 O237 2.038 . S
Mg222 O245 2.238 . S
Mg223 O221 1.917 . S
Mg223 O224 1.917 . S
Mg223 O234 2.106 . S
Mg223 O236 2.079 . S
Mg223 O245 2.106 . S
Mg223 O246 2.079 . S
O224 Mg223 1.917 . S
O224 Mg225 1.926 . S
O224 Mg226 1.986 . S
Mg225 O224 1.926 . S
Mg225 O239 1.984 . S
Mg225 O242 1.988 . S
Mg225 O243 2.061 . S
Mg226 O224 1.986 . S
Mg226 O234 2.238 . S
Mg226 O238 2.042 . S
Mg226 O240 2.041 1_556 S
Mg226 O247 2.038 . S
C227 O233 1.247 . S
C227 O234 1.289 . S
C228 O246 1.245 . S
C228 O247 1.274 . S
O229 C217 1.241 . S
O229 Mg222 2.042 . S
O230 C217 1.280 . S
O230 Mg220 1.984 . S
O231 C218 1.277 . S
O231 Mg222 2.041 . S
O232 C218 1.245 . S
O232 Mg220 1.988 . S
O233 Mg220 2.061 . S
O233 C227 1.247 . S
O234 Mg223 2.106 . S
O234 Mg226 2.238 . S
O234 C227 1.289 . S
C235 O236 1.245 . S
C235 O237 1.274 . S
O236 Mg223 2.079 . S
O236 C235 1.245 . S
O237 Mg222 2.038 . S
O237 C235 1.274 . S
O238 Mg226 2.042 . S
O238 C241 1.241 . S
O239 Mg225 1.984 . S
O239 C241 1.280 . S
O240 Mg226 2.041 1_554 S
O240 C244 1.277 1_554 S
C241 O238 1.241 . S
C241 O239 1.280 . S
O242 Mg225 1.988 . S
O242 C244 1.245 . S
O243 C219 1.247 . S
O243 Mg225 2.061 . S
C244 O240 1.277 1_556 S
C244 O242 1.245 . S
O245 C219 1.289 . S
O245 Mg222 2.238 . S
O245 Mg223 2.106 . S
O246 Mg223 2.079 . S
O246 C228 1.245 . S
O247 Mg226 2.038 . S
O247 C228 1.274 . S
C248 O260 1.241 . S
C248 O261 1.280 . S
C249 O262 1.277 . S
C249 O263 1.245 . S
C250 O274 1.247 . S
C250 O276 1.289 . S
Mg251 O252 1.926 . S
Mg251 O261 1.984 . S
Mg251 O263 1.988 . S
Mg251 O264 2.061 . S
O252 Mg251 1.926 . S
O252 Mg253 1.986 . S
O252 Mg254 1.917 . S
Mg253 O252 1.986 . S
Mg253 O260 2.042 . S
Mg253 O262 2.041 . S
Mg253 O268 2.038 . S
Mg253 O276 2.238 . S
Mg254 O252 1.917 . S
Mg254 O255 1.917 . S
Mg254 O265 2.106 . S
Mg254 O267 2.079 . S
Mg254 O276 2.106 . S
Mg254 O277 2.079 . S
O255 Mg254 1.917 . S
O255 Mg256 1.926 . S
O255 Mg257 1.986 . S
Mg256 O255 1.926 . S
Mg256 O270 1.984 . S
Mg256 O273 1.988 . S
Mg256 O274 2.061 . S
Mg257 O255 1.986 . S
Mg257 O265 2.238 . S
Mg257 O269 2.042 . S
Mg257 O271 2.041 1_556 S
Mg257 O278 2.038 . S
C258 O264 1.247 . S
C258 O265 1.289 . S
C259 O277 1.245 . S
C259 O278 1.274 . S
O260 C248 1.241 . S
O260 Mg253 2.042 . S
O261 C248 1.280 . S
O261 Mg251 1.984 . S
O262 C249 1.277 . S
O262 Mg253 2.041 . S
O263 C249 1.245 . S
O263 Mg251 1.988 . S
O264 Mg251 2.061 . S
O264 C258 1.247 . S
O265 Mg254 2.106 . S
O265 Mg257 2.238 . S
O265 C258 1.289 . S
C266 O267 1.245 . S
C266 O268 1.274 . S
O267 Mg254 2.079 . S
O267 C266 1.245 . S
O268 Mg253 2.038 . S
O268 C266 1.274 . S
O269 Mg257 2.042 . S
O269 C272 1.241 . S
O270 Mg256 1.984 . S
O270 C272 1.280 . S
O271 Mg257 2.041 1_554 S
O271 C275 1.277 1_554 S
C272 O269 1.241 . S
C272 O270 1.280 . S
O273 Mg256 1.988 . S
O273 C275 1.245 . S
O274 C250 1.247 . S
O274 Mg256 2.061 . S
C275 O271 1.277 1_556 S
C275 O273 1.245 . S
O276 C250 1.289 . S
O276 Mg253 2.238 . S
O276 Mg254 2.106 . S
O277 Mg254 2.079 . S
O277 C259 1.245 . S
O278 Mg257 2.038 . S
O278 C259 1.274 . S
C279 O291 1.241 . S
C279 O292 1.280 . S
C280 O293 1.277 . S
C280 O294 1.245 . S
C281 O305 1.247 . S
C281 O307 1.289 . S
Mg282 O283 1.926 . S
Mg282 O292 1.984 . S
Mg282 O294 1.988 . S
Mg282 O295 2.061 . S
O283 Mg282 1.926 . S
O283 Mg284 1.986 . S
O283 Mg285 1.917 . S
Mg284 O283 1.986 . S
Mg284 O291 2.042 . S
Mg284 O293 2.041 . S
Mg284 O299 2.038 . S
Mg284 O307 2.238 . S
Mg285 O283 1.917 . S
Mg285 O286 1.917 . S
Mg285 O296 2.106 . S
Mg285 O298 2.079 . S
Mg285 O307 2.106 . S
Mg285 O308 2.079 . S
O286 Mg285 1.917 . S
O286 Mg287 1.926 . S
O286 Mg288 1.986 . S
Mg287 O286 1.926 . S
Mg287 O301 1.984 . S
Mg287 O304 1.988 . S
Mg287 O305 2.061 . S
Mg288 O286 1.986 . S
Mg288 O296 2.238 . S
Mg288 O300 2.042 . S
Mg288 O302 2.041 . S
Mg288 O309 2.038 . S
C289 O295 1.247 . S
C289 O296 1.289 . S
C290 O308 1.245 . S
C290 O309 1.274 . S
O291 C279 1.241 . S
O291 Mg284 2.042 . S
O292 C279 1.280 . S
O292 Mg282 1.984 . S
O293 C280 1.277 . S
O293 Mg284 2.041 . S
O294 C280 1.245 . S
O294 Mg282 1.988 . S
O295 Mg282 2.061 . S
O295 C289 1.247 . S
O296 Mg285 2.106 . S
O296 Mg288 2.238 . S
O296 C289 1.289 . S
C297 O298 1.245 . S
C297 O299 1.274 . S
O298 Mg285 2.079 . S
O298 C297 1.245 . S
O299 Mg284 2.038 . S
O299 C297 1.274 . S
O300 Mg288 2.042 . S
O300 C303 1.241 . S
O301 Mg287 1.984 . S
O301 C303 1.280 . S
O302 Mg288 2.041 . S
O302 C306 1.277 . S
C303 O300 1.241 . S
C303 O301 1.280 . S
O304 Mg287 1.988 . S
O304 C306 1.245 . S
O305 C281 1.247 . S
O305 Mg287 2.061 . S
C306 O302 1.277 . S
C306 O304 1.245 . S
O307 C281 1.289 . S
O307 Mg284 2.238 . S
O307 Mg285 2.106 . S
O308 Mg285 2.079 . S
O308 C290 1.245 . S
O309 Mg288 2.038 . S
O309 C290 1.274 . S
C310 O322 1.241 . S
C310 O323 1.280 . S
C311 O324 1.277 . S
C311 O325 1.245 . S
C312 O336 1.247 . S
C312 O338 1.289 . S
Mg313 O314 1.926 . S
Mg313 O323 1.984 . S
Mg313 O325 1.988 . S
Mg313 O326 2.061 . S
O314 Mg313 1.926 . S
O314 Mg315 1.986 . S
O314 Mg316 1.917 . S
Mg315 O314 1.986 . S
Mg315 O322 2.042 . S
Mg315 O324 2.041 . S
Mg315 O330 2.038 . S
Mg315 O338 2.238 . S
Mg316 O314 1.917 . S
Mg316 O317 1.917 . S
Mg316 O327 2.106 . S
Mg316 O329 2.079 . S
Mg316 O338 2.106 . S
Mg316 O339 2.079 . S
O317 Mg316 1.917 . S
O317 Mg318 1.926 . S
O317 Mg319 1.986 . S
Mg318 O317 1.926 . S
Mg318 O332 1.984 . S
Mg318 O335 1.988 . S
Mg318 O336 2.061 . S
Mg319 O317 1.986 . S
Mg319 O327 2.238 . S
Mg319 O331 2.042 . S
Mg319 O333 2.041 . S
Mg319 O340 2.038 . S
C320 O326 1.247 . S
C320 O327 1.289 . S
C321 O339 1.245 . S
C321 O340 1.274 . S
O322 C310 1.241 . S
O322 Mg315 2.042 . S
O323 C310 1.280 . S
O323 Mg313 1.984 . S
O324 C311 1.277 . S
O324 Mg315 2.041 . S
O325 C311 1.245 . S
O325 Mg313 1.988 . S
O326 Mg313 2.061 . S
O326 C320 1.247 . S
O327 Mg316 2.106 . S
O327 Mg319 2.238 . S
O327 C320 1.289 . S
C328 O329 1.245 . S
C328 O330 1.274 . S
O329 Mg316 2.079 . S
O329 C328 1.245 . S
O330 Mg315 2.038 . S
O330 C328 1.274 . S
O331 Mg319 2.042 . S
O331 C334 1.241 . S
O332 Mg318 1.984 . S
O332 C334 1.280 . S
O333 Mg319 2.041 . S
O333 C337 1.277 . S
C334 O331 1.241 . S
C334 O332 1.280 . S
O335 Mg318 1.988 . S
O335 C337 1.245 . S
O336 C312 1.247 . S
O336 Mg318 2.061 . S
C337 O333 1.277 . S
C337 O335 1.245 . S
O338 C312 1.289 . S
O338 Mg315 2.238 . S
O338 Mg316 2.106 . S
O339 Mg316 2.079 . S
O339 C321 1.245 . S
O340 Mg319 2.038 . S
O340 C321 1.274 . S
C341 O353 1.241 . S
C341 O354 1.280 . S
C342 O355 1.277 . S
C342 O356 1.245 . S
C343 O367 1.247 . S
C343 O369 1.289 . S
Mg344 O345 1.926 . S
Mg344 O354 1.984 . S
Mg344 O356 1.988 . S
Mg344 O357 2.061 . S
O345 Mg344 1.926 . S
O345 Mg346 1.986 . S
O345 Mg347 1.917 . S
Mg346 O345 1.986 . S
Mg346 O353 2.042 . S
Mg346 O355 2.041 . S
Mg346 O361 2.038 . S
Mg346 O369 2.238 . S
Mg347 O345 1.917 . S
Mg347 O348 1.917 . S
Mg347 O358 2.106 . S
Mg347 O360 2.079 . S
Mg347 O369 2.106 . S
Mg347 O370 2.079 . S
O348 Mg347 1.917 . S
O348 Mg349 1.926 . S
O348 Mg350 1.986 . S
Mg349 O348 1.926 . S
Mg349 O363 1.984 . S
Mg349 O366 1.988 . S
Mg349 O367 2.061 . S
Mg350 O348 1.986 . S
Mg350 O358 2.238 . S
Mg350 O362 2.042 . S
Mg350 O364 2.041 . S
Mg350 O371 2.038 . S
C351 O357 1.247 . S
C351 O358 1.289 . S
C352 O370 1.245 . S
C352 O371 1.274 . S
O353 C341 1.241 . S
O353 Mg346 2.042 . S
O354 C341 1.280 . S
O354 Mg344 1.984 . S
O355 C342 1.277 . S
O355 Mg346 2.041 . S
O356 C342 1.245 . S
O356 Mg344 1.988 . S
O357 Mg344 2.061 . S
O357 C351 1.247 . S
O358 Mg347 2.106 . S
O358 Mg350 2.238 . S
O358 C351 1.289 . S
C359 O360 1.245 . S
C359 O361 1.274 . S
O360 Mg347 2.079 . S
O360 C359 1.245 . S
O361 Mg346 2.038 . S
O361 C359 1.274 . S
O362 Mg350 2.042 . S
O362 C365 1.241 . S
O363 Mg349 1.984 . S
O363 C365 1.280 . S
O364 Mg350 2.041 . S
O364 C368 1.277 . S
C365 O362 1.241 . S
C365 O363 1.280 . S
O366 Mg349 1.988 . S
O366 C368 1.245 . S
O367 C343 1.247 . S
O367 Mg349 2.061 . S
C368 O364 1.277 . S
C368 O366 1.245 . S
O369 C343 1.289 . S
O369 Mg346 2.238 . S
O369 Mg347 2.106 . S
O370 Mg347 2.079 . S
O370 C352 1.245 . S
O371 Mg350 2.038 . S
O371 C352 1.274 . S
H372 C380 0.950 . S
H373 C385 0.950 . S
H374 C382 0.950 . S
H375 C384 0.950 . S
H376 C386 0.950 . S
H377 C388 0.950 . S
H378 C390 0.950 . S
H379 C391 0.950 . S
C380 H372 0.950 . S
C380 C381 1.386 . S
C380 C382 1.391 . S
C381 C380 1.386 . S
C381 C385 1.393 . S
C382 H374 0.950 . S
C382 C380 1.391 . S
C382 C383 1.400 . S
C383 C382 1.400 . S
C383 C384 1.398 . S
C383 C389 1.491 . S
C384 H375 0.950 . S
C384 C383 1.398 . S
C384 C385 1.391 . S
C385 H373 0.950 . S
C385 C381 1.393 . S
C385 C384 1.391 . S
C386 H376 0.950 . S
C386 C387 1.386 . S
C386 C388 1.391 . S
C387 C386 1.386 . S
C387 C391 1.393 . S
C388 H377 0.950 . S
C388 C386 1.391 . S
C388 C389 1.400 . S
C389 C383 1.491 . S
C389 C388 1.400 . S
C389 C390 1.398 . S
C390 H378 0.950 . S
C390 C389 1.398 . S
C390 C391 1.391 . S
C391 H379 0.950 . S
C391 C387 1.393 . S
C391 C390 1.391 . S
H392 C400 0.950 . S
H393 C405 0.950 . S
H394 C402 0.950 . S
H395 C404 0.950 . S
H396 C406 0.950 . S
H397 C408 0.950 . S
H398 C410 0.950 . S
H399 C411 0.950 . S
C400 H392 0.950 . S
C400 C401 1.386 . S
C400 C402 1.391 . S
C401 C400 1.386 . S
C401 C405 1.393 . S
C402 H394 0.950 . S
C402 C400 1.391 . S
C402 C403 1.400 . S
C403 C402 1.400 . S
C403 C404 1.398 . S
C403 C409 1.491 . S
C404 H395 0.950 . S
C404 C403 1.398 . S
C404 C405 1.391 . S
C405 H393 0.950 . S
C405 C401 1.393 . S
C405 C404 1.391 . S
C406 H396 0.950 . S
C406 C407 1.386 . S
C406 C408 1.391 . S
C407 C406 1.386 . S
C407 C411 1.393 . S
C408 H397 0.950 . S
C408 C406 1.391 . S
C408 C409 1.400 . S
C409 C403 1.491 . S
C409 C408 1.400 . S
C409 C410 1.398 . S
C410 H398 0.950 . S
C410 C409 1.398 . S
C410 C411 1.391 . S
C411 H399 0.950 . S
C411 C407 1.393 . S
C411 C410 1.391 . S
H412 C420 0.950 . S
H413 C425 0.950 . S
H414 C422 0.950 . S
H415 C424 0.950 . S
H416 C426 0.950 . S
H417 C428 0.950 . S
H418 C430 0.950 . S
H419 C431 0.950 . S
C420 H412 0.950 . S
C420 C421 1.386 . S
C420 C422 1.391 . S
C421 C420 1.386 . S
C421 C425 1.393 . S
C422 H414 0.950 . S
C422 C420 1.391 . S
C422 C423 1.400 . S
C423 C422 1.400 . S
C423 C424 1.398 . S
C423 C429 1.491 . S
C424 H415 0.950 . S
C424 C423 1.398 . S
C424 C425 1.391 . S
C425 H413 0.950 . S
C425 C421 1.393 . S
C425 C424 1.391 . S
C426 H416 0.950 . S
C426 C427 1.386 . S
C426 C428 1.391 . S
C427 C426 1.386 . S
C427 C431 1.393 . S
C428 H417 0.950 . S
C428 C426 1.391 . S
C428 C429 1.400 . S
C429 C423 1.491 . S
C429 C428 1.400 . S
C429 C430 1.398 . S
C430 H418 0.950 . S
C430 C429 1.398 . S
C430 C431 1.391 . S
C431 H419 0.950 . S
C431 C427 1.393 . S
C431 C430 1.391 . S
H432 C440 0.950 . S
H433 C445 0.950 . S
H434 C442 0.950 . S
H435 C444 0.950 . S
H436 C446 0.950 . S
H437 C448 0.950 . S
H438 C450 0.950 . S
H439 C451 0.950 . S
C440 H432 0.950 . S
C440 C441 1.386 . S
C440 C442 1.391 . S
C441 C440 1.386 . S
C441 C445 1.393 . S
C442 H434 0.950 . S
C442 C440 1.391 . S
C442 C443 1.400 . S
C443 C442 1.400 . S
C443 C444 1.398 . S
C443 C449 1.491 . S
C444 H435 0.950 . S
C444 C443 1.398 . S
C444 C445 1.391 . S
C445 H433 0.950 . S
C445 C441 1.393 . S
C445 C444 1.391 . S
C446 H436 0.950 . S
C446 C447 1.386 . S
C446 C448 1.391 . S
C447 C446 1.386 . S
C447 C451 1.393 . S
C448 H437 0.950 . S
C448 C446 1.391 . S
C448 C449 1.400 . S
C449 C443 1.491 . S
C449 C448 1.400 . S
C449 C450 1.398 . S
C450 H438 0.950 . S
C450 C449 1.398 . S
C450 C451 1.391 . S
C451 H439 0.950 . S
C451 C447 1.393 . S
C451 C450 1.391 . S
H452 C460 0.950 . S
H453 C465 0.950 . S
H454 C462 0.950 . S
H455 C464 0.950 . S
H456 C466 0.950 . S
H457 C468 0.950 . S
H458 C470 0.950 . S
H459 C471 0.950 . S
C460 H452 0.950 . S
C460 C461 1.386 . S
C460 C462 1.391 . S
C461 C460 1.386 . S
C461 C465 1.393 . S
C462 H454 0.950 . S
C462 C460 1.391 . S
C462 C463 1.400 . S
C463 C462 1.400 . S
C463 C464 1.398 . S
C463 C469 1.491 . S
C464 H455 0.950 . S
C464 C463 1.398 . S
C464 C465 1.391 . S
C465 H453 0.950 . S
C465 C461 1.393 . S
C465 C464 1.391 . S
C466 H456 0.950 . S
C466 C467 1.386 . S
C466 C468 1.391 . S
C467 C466 1.386 . S
C467 C471 1.393 . S
C468 H457 0.950 . S
C468 C466 1.391 . S
C468 C469 1.400 . S
C469 C463 1.491 . S
C469 C468 1.400 . S
C469 C470 1.398 . S
C470 H458 0.950 . S
C470 C469 1.398 . S
C470 C471 1.391 . S
C471 H459 0.950 . S
C471 C467 1.393 . S
C471 C470 1.391 . S
H472 C480 0.950 . S
H473 C485 0.950 . S
H474 C482 0.950 . S
H475 C484 0.950 . S
H476 C486 0.950 . S
H477 C488 0.950 . S
H478 C490 0.950 . S
H479 C491 0.950 . S
C480 H472 0.950 . S
C480 C481 1.386 . S
C480 C482 1.391 . S
C481 C480 1.386 . S
C481 C485 1.393 . S
C482 H474 0.950 . S
C482 C480 1.391 . S
C482 C483 1.400 . S
C483 C482 1.400 . S
C483 C484 1.398 . S
C483 C489 1.491 . S
C484 H475 0.950 . S
C484 C483 1.398 . S
C484 C485 1.391 . S
C485 H473 0.950 . S
C485 C481 1.393 . S
C485 C484 1.391 . S
C486 H476 0.950 . S
C486 C487 1.386 . S
C486 C488 1.391 . S
C487 C486 1.386 . S
C487 C491 1.393 . S
C488 H477 0.950 . S
C488 C486 1.391 . S
C488 C489 1.400 . S
C489 C483 1.491 . S
C489 C488 1.400 . S
C489 C490 1.398 . S
C490 H478 0.950 . S
C490 C489 1.398 . S
C490 C491 1.391 . S
C491 H479 0.950 . S
C491 C487 1.393 . S
C491 C490 1.391 . S
H492 C500 0.950 . S
H493 C505 0.950 . S
H494 C502 0.950 . S
H495 C504 0.950 . S
H496 C506 0.950 . S
H497 C508 0.950 . S
H498 C510 0.950 . S
H499 C511 0.950 . S
C500 H492 0.950 . S
C500 C501 1.386 . S
C500 C502 1.391 . S
C501 C500 1.386 . S
C501 C505 1.393 . S
C502 H494 0.950 . S
C502 C500 1.391 . S
C502 C503 1.400 . S
C503 C502 1.400 . S
C503 C504 1.398 . S
C503 C509 1.491 . S
C504 H495 0.950 . S
C504 C503 1.398 . S
C504 C505 1.391 . S
C505 H493 0.950 . S
C505 C501 1.393 . S
C505 C504 1.391 . S
C506 H496 0.950 . S
C506 C507 1.386 . S
C506 C508 1.391 . S
C507 C506 1.386 . S
C507 C511 1.393 . S
C508 H497 0.950 . S
C508 C506 1.391 . S
C508 C509 1.400 . S
C509 C503 1.491 . S
C509 C508 1.400 . S
C509 C510 1.398 . S
C510 H498 0.950 . S
C510 C509 1.398 . S
C510 C511 1.391 . S
C511 H499 0.950 . S
C511 C507 1.393 . S
C511 C510 1.391 . S
H512 C520 0.950 . S
H513 C525 0.950 . S
H514 C522 0.950 . S
H515 C524 0.950 . S
H516 C526 0.950 . S
H517 C528 0.950 . S
H518 C530 0.950 . S
H519 C531 0.950 . S
C520 H512 0.950 . S
C520 C521 1.386 . S
C520 C522 1.391 . S
C521 C520 1.386 . S
C521 C525 1.393 . S
C522 H514 0.950 . S
C522 C520 1.391 . S
C522 C523 1.400 . S
C523 C522 1.400 . S
C523 C524 1.398 . S
C523 C529 1.491 . S
C524 H515 0.950 . S
C524 C523 1.398 . S
C524 C525 1.391 . S
C525 H513 0.950 . S
C525 C521 1.393 . S
C525 C524 1.391 . S
C526 H516 0.950 . S
C526 C527 1.386 . S
C526 C528 1.391 . S
C527 C526 1.386 . S
C527 C531 1.393 . S
C528 H517 0.950 . S
C528 C526 1.391 . S
C528 C529 1.400 . S
C529 C523 1.491 . S
C529 C528 1.400 . S
C529 C530 1.398 . S
C530 H518 0.950 . S
C530 C529 1.398 . S
C530 C531 1.391 . S
C531 H519 0.950 . S
C531 C527 1.393 . S
C531 C530 1.391 . S
H532 C540 0.950 . S
H533 C545 0.950 . S
H534 C542 0.950 . S
H535 C544 0.950 . S
H536 C546 0.950 . S
H537 C548 0.950 . S
H538 C550 0.950 . S
H539 C551 0.950 . S
C540 H532 0.950 . S
C540 C541 1.386 . S
C540 C542 1.391 . S
C541 C540 1.386 . S
C541 C545 1.393 . S
C542 H534 0.950 . S
C542 C540 1.391 . S
C542 C543 1.400 . S
C543 C542 1.400 . S
C543 C544 1.398 . S
C543 C549 1.491 . S
C544 H535 0.950 . S
C544 C543 1.398 . S
C544 C545 1.391 . S
C545 H533 0.950 . S
C545 C541 1.393 . S
C545 C544 1.391 . S
C546 H536 0.950 . S
C546 C547 1.386 . S
C546 C548 1.391 . S
C547 C546 1.386 . S
C547 C551 1.393 . S
C548 H537 0.950 . S
C548 C546 1.391 . S
C548 C549 1.400 . S
C549 C543 1.491 . S
C549 C548 1.400 . S
C549 C550 1.398 . S
C550 H538 0.950 . S
C550 C549 1.398 . S
C550 C551 1.391 . S
C551 H539 0.950 . S
C551 C547 1.393 . S
C551 C550 1.391 . S
H552 C560 0.950 . S
H553 C565 0.950 . S
H554 C562 0.950 . S
H555 C564 0.950 . S
H556 C566 0.950 . S
H557 C568 0.950 . S
H558 C570 0.950 . S
H559 C571 0.950 . S
C560 H552 0.950 . S
C560 C561 1.386 . S
C560 C562 1.391 . S
C561 C560 1.386 . S
C561 C565 1.393 . S
C562 H554 0.950 . S
C562 C560 1.391 . S
C562 C563 1.400 . S
C563 C562 1.400 . S
C563 C564 1.398 . S
C563 C569 1.491 . S
C564 H555 0.950 . S
C564 C563 1.398 . S
C564 C565 1.391 . S
C565 H553 0.950 . S
C565 C561 1.393 . S
C565 C564 1.391 . S
C566 H556 0.950 . S
C566 C567 1.386 . S
C566 C568 1.391 . S
C567 C566 1.386 . S
C567 C571 1.393 . S
C568 H557 0.950 . S
C568 C566 1.391 . S
C568 C569 1.400 . S
C569 C563 1.491 . S
C569 C568 1.400 . S
C569 C570 1.398 . S
C570 H558 0.950 . S
C570 C569 1.398 . S
C570 C571 1.391 . S
C571 H559 0.950 . S
C571 C567 1.393 . S
C571 C570 1.391 . S
H572 C580 0.950 . S
H573 C585 0.950 . S
H574 C582 0.950 . S
H575 C584 0.950 . S
H576 C586 0.950 . S
H577 C588 0.950 . S
H578 C590 0.950 . S
H579 C591 0.950 . S
C580 H572 0.950 . S
C580 C581 1.386 . S
C580 C582 1.391 . S
C581 C580 1.386 . S
C581 C585 1.393 . S
C582 H574 0.950 . S
C582 C580 1.391 . S
C582 C583 1.400 . S
C583 C582 1.400 . S
C583 C584 1.398 . S
C583 C589 1.491 . S
C584 H575 0.950 . S
C584 C583 1.398 . S
C584 C585 1.391 . S
C585 H573 0.950 . S
C585 C581 1.393 . S
C585 C584 1.391 . S
C586 H576 0.950 . S
C586 C587 1.386 . S
C586 C588 1.391 . S
C587 C586 1.386 . S
C587 C591 1.393 . S
C588 H577 0.950 . S
C588 C586 1.391 . S
C588 C589 1.400 . S
C589 C583 1.491 . S
C589 C588 1.400 . S
C589 C590 1.398 . S
C590 H578 0.950 . S
C590 C589 1.398 . S
C590 C591 1.391 . S
C591 H579 0.950 . S
C591 C587 1.393 . S
C591 C590 1.391 . S
H592 C600 0.950 . S
H593 C605 0.950 . S
H594 C602 0.950 . S
H595 C604 0.950 . S
H596 C606 0.950 . S
H597 C608 0.950 . S
H598 C610 0.950 . S
H599 C611 0.950 . S
C600 H592 0.950 . S
C600 C601 1.386 . S
C600 C602 1.391 . S
C601 C600 1.386 . S
C601 C605 1.393 . S
C602 H594 0.950 . S
C602 C600 1.391 . S
C602 C603 1.400 . S
C603 C602 1.400 . S
C603 C604 1.398 . S
C603 C609 1.491 . S
C604 H595 0.950 . S
C604 C603 1.398 . S
C604 C605 1.391 . S
C605 H593 0.950 . S
C605 C601 1.393 . S
C605 C604 1.391 . S
C606 H596 0.950 . S
C606 C607 1.386 . S
C606 C608 1.391 . S
C607 C606 1.386 . S
C607 C611 1.393 . S
C608 H597 0.950 . S
C608 C606 1.391 . S
C608 C609 1.400 . S
C609 C603 1.491 . S
C609 C608 1.400 . S
C609 C610 1.398 . S
C610 H598 0.950 . S
C610 C609 1.398 . S
C610 C611 1.391 . S
C611 H599 0.950 . S
C611 C607 1.393 . S
C611 C610 1.391 . S
H612 C620 0.950 . S
H613 C625 0.950 . S
H614 C622 0.950 . S
H615 C624 0.950 1_554 S
H616 C626 0.950 . S
H617 C628 0.950 . S
H618 C630 0.950 1_556 S
H619 C631 0.950 . S
C620 H612 0.950 . S
C620 C621 1.386 . S
C620 C622 1.391 . S
C621 C620 1.386 . S
C621 C625 1.393 . S
C622 H614 0.950 . S
C622 C620 1.391 . S
C622 C623 1.400 . S
C623 C622 1.400 . S
C623 C624 1.398 . S
C623 C629 1.491 1_556 S
C624 H615 0.950 1_556 S
C624 C623 1.398 . S
C624 C625 1.391 . S
C625 H613 0.950 . S
C625 C621 1.393 . S
C625 C624 1.391 . S
C626 H616 0.950 . S
C626 C627 1.386 . S
C626 C628 1.391 . S
C627 C626 1.386 . S
C627 C631 1.393 . S
C628 H617 0.950 . S
C628 C626 1.391 . S
C628 C629 1.400 . S
C629 C623 1.491 1_554 S
C629 C628 1.400 . S
C629 C630 1.398 . S
C630 H618 0.950 1_554 S
C630 C629 1.398 . S
C630 C631 1.391 . S
C631 H619 0.950 . S
C631 C627 1.393 . S
C631 C630 1.391 . S
H632 C640 0.952 . S
H633 C645 0.950 . S
H634 C642 0.950 . S
H635 C644 0.950 . S
H636 C646 0.952 . S
H637 C648 0.950 . S
H638 C650 0.950 . S
H639 C651 0.950 . S
C640 H632 0.952 . S
C640 C641 1.386 . S
C640 C642 1.391 1_545 S
C641 C640 1.386 . S
C641 C645 1.393 . S
C642 H634 0.950 . S
C642 C640 1.391 1_565 S
C642 C643 1.400 1_565 S
C643 C642 1.400 1_545 S
C643 C644 1.398 . S
C643 C649 1.491 1_544 S
C644 H635 0.950 . S
C644 C643 1.398 . S
C644 C645 1.391 . S
C645 H633 0.950 . S
C645 C641 1.393 . S
C645 C644 1.391 . S
C646 H636 0.952 . S
C646 C647 1.386 . S
C646 C648 1.391 1_565 S
C647 C646 1.386 . S
C647 C651 1.393 . S
C648 H637 0.950 . S
C648 C646 1.391 1_545 S
C648 C649 1.400 1_545 S
C649 C643 1.491 1_566 S
C649 C648 1.400 1_565 S
C649 C650 1.398 . S
C650 H638 0.950 . S
C650 C649 1.398 . S
C650 C651 1.391 . S
C651 H639 0.950 . S
C651 C647 1.393 . S
C651 C650 1.391 . S
H652 C660 0.950 . S
H653 C665 0.950 . S
H654 C662 0.950 . S
H655 C664 0.950 . S
H656 C666 0.950 . S
H657 C668 0.950 . S
H658 C670 0.950 . S
H659 C671 0.950 . S
C660 H652 0.950 . S
C660 C661 1.386 . S
C660 C662 1.391 1_554 S
C661 C660 1.386 . S
C661 C665 1.393 . S
C662 H654 0.950 . S
C662 C660 1.391 1_556 S
C662 C663 1.400 1_556 S
C663 C662 1.400 1_554 S
C663 C664 1.398 . S
C663 C669 1.491 1_654 S
C664 H655 0.950 . S
C664 C663 1.398 . S
C664 C665 1.391 . S
C665 H653 0.950 . S
C665 C661 1.393 . S
C665 C664 1.391 . S
C666 H656 0.950 . S
C666 C667 1.386 . S
C666 C668 1.391 1_556 S
C667 C666 1.386 . S
C667 C671 1.393 . S
C668 H657 0.950 . S
C668 C666 1.391 1_554 S
C668 C669 1.400 1_554 S
C669 C663 1.491 1_456 S
C669 C668 1.400 1_556 S
C669 C670 1.398 . S
C670 H658 0.950 . S
C670 C669 1.398 . S
C670 C671 1.391 . S
C671 H659 0.950 . S
C671 C667 1.393 . S
C671 C670 1.391 . S
H672 C680 0.950 . S
H673 C685 0.950 . S
H674 C682 0.950 . S
H675 C684 0.950 . S
H676 C686 0.950 . S
H677 C688 0.950 . S
H678 C690 0.950 . S
H679 C691 0.950 . S
C680 H672 0.950 . S
C680 C681 1.386 . S
C680 C682 1.391 . S
C681 C680 1.386 . S
C681 C685 1.393 . S
C682 H674 0.950 . S
C682 C680 1.391 . S
C682 C683 1.400 . S
C683 C682 1.400 . S
C683 C684 1.398 . S
C683 C689 1.491 . S
C684 H675 0.950 . S
C684 C683 1.398 . S
C684 C685 1.391 . S
C685 H673 0.950 . S
C685 C681 1.393 . S
C685 C684 1.391 . S
C686 H676 0.950 . S
C686 C687 1.386 . S
C686 C688 1.391 . S
C687 C686 1.386 . S
C687 C691 1.393 . S
C688 H677 0.950 . S
C688 C686 1.391 . S
C688 C689 1.400 . S
C689 C683 1.491 . S
C689 C688 1.400 . S
C689 C690 1.398 . S
C690 H678 0.950 . S
C690 C689 1.398 . S
C690 C691 1.391 . S
C691 H679 0.950 . S
C691 C687 1.393 . S
C691 C690 1.391 . S
H692 C700 0.950 . S
H693 C705 0.950 . S
H694 C702 0.950 . S
H695 C704 0.950 . S
H696 C706 0.950 . S
H697 C708 0.950 . S
H698 C710 0.950 . S
H699 C711 0.950 . S
C700 H692 0.950 . S
C700 C701 1.386 . S
C700 C702 1.391 . S
C701 C700 1.386 . S
C701 C705 1.393 . S
C702 H694 0.950 . S
C702 C700 1.391 . S
C702 C703 1.400 . S
C703 C702 1.400 . S
C703 C704 1.398 . S
C703 C709 1.491 1_565 S
C704 H695 0.950 . S
C704 C703 1.398 . S
C704 C705 1.391 . S
C705 H693 0.950 . S
C705 C701 1.393 . S
C705 C704 1.391 . S
C706 H696 0.950 . S
C706 C707 1.386 . S
C706 C708 1.391 . S
C707 C706 1.386 . S
C707 C711 1.393 . S
C708 H697 0.950 . S
C708 C706 1.391 . S
C708 C709 1.400 . S
C709 C703 1.491 1_545 S
C709 C708 1.400 . S
C709 C710 1.398 . S
C710 H698 0.950 . S
C710 C709 1.398 . S
C710 C711 1.391 . S
C711 H699 0.950 . S
C711 C707 1.393 . S
C711 C710 1.391 . S
H712 C720 0.950 . S
H713 C725 0.950 1_455 S
H714 C722 0.950 . S
H715 C724 0.950 . S
H716 C726 0.950 . S
H717 C728 0.950 . S
H718 C730 0.950 . S
H719 C731 0.950 1_655 S
C720 H712 0.950 . S
C720 C721 1.386 . S
C720 C722 1.391 . S
C721 C720 1.386 . S
C721 C725 1.393 . S
C722 H714 0.950 . S
C722 C720 1.391 . S
C722 C723 1.400 . S
C723 C722 1.400 . S
C723 C724 1.398 1_655 S
C723 C729 1.491 1_655 S
C724 H715 0.950 . S
C724 C723 1.398 1_455 S
C724 C725 1.391 1_455 S
C725 H713 0.950 1_655 S
C725 C721 1.393 . S
C725 C724 1.391 1_655 S
C726 H716 0.950 . S
C726 C727 1.386 . S
C726 C728 1.391 . S
C727 C726 1.386 . S
C727 C731 1.393 . S
C728 H717 0.950 . S
C728 C726 1.391 . S
C728 C729 1.400 . S
C729 C723 1.491 1_455 S
C729 C728 1.400 . S
C729 C730 1.398 1_455 S
C730 H718 0.950 . S
C730 C729 1.398 1_655 S
C730 C731 1.391 1_655 S
C731 H719 0.950 1_455 S
C731 C727 1.393 . S
C731 C730 1.391 1_455 S
H732 C740 0.950 . S
H733 C745 0.950 . S
H734 C742 0.950 . S
H735 C744 0.950 . S
H736 C746 0.950 . S
H737 C748 0.950 . S
H738 C750 0.950 . S
H739 C751 0.950 . S
C740 H732 0.950 . S
C740 C741 1.386 . S
C740 C742 1.391 . S
C741 C740 1.386 . S
C741 C745 1.393 . S
C742 H734 0.950 . S
C742 C740 1.391 . S
C742 C743 1.400 . S
C743 C742 1.400 . S
C743 C744 1.398 . S
C743 C749 1.491 . S
C744 H735 0.950 . S
C744 C743 1.398 . S
C744 C745 1.391 . S
C745 H733 0.950 . S
C745 C741 1.393 . S
C745 C744 1.391 . S
C746 H736 0.950 . S
C746 C747 1.386 . S
C746 C748 1.391 . S
C747 C746 1.386 . S
C747 C751 1.393 . S
C748 H737 0.950 . S
C748 C746 1.391 . S
C748 C749 1.400 . S
C749 C743 1.491 . S
C749 C748 1.400 . S
C749 C750 1.398 . S
C750 H738 0.950 . S
C750 C749 1.398 . S
C750 C751 1.391 . S
C751 H739 0.950 . S
C751 C747 1.393 . S
C751 C750 1.391 . S
H752 C760 0.950 . S
H753 C765 0.950 . S
H754 C762 0.950 . S
H755 C764 0.950 . S
H756 C766 0.950 . S
H757 C768 0.950 . S
H758 C770 0.950 . S
H759 C771 0.950 . S
C760 H752 0.950 . S
C760 C761 1.386 . S
C760 C762 1.391 . S
C761 C760 1.386 . S
C761 C765 1.393 . S
C762 H754 0.950 . S
C762 C760 1.391 . S
C762 C763 1.400 . S
C763 C762 1.400 . S
C763 C764 1.398 . S
C763 C769 1.491 . S
C764 H755 0.950 . S
C764 C763 1.398 . S
C764 C765 1.391 . S
C765 H753 0.950 . S
C765 C761 1.393 . S
C765 C764 1.391 . S
C766 H756 0.950 . S
C766 C767 1.386 . S
C766 C768 1.391 . S
C767 C766 1.386 . S
C767 C771 1.393 . S
C768 H757 0.950 . S
C768 C766 1.391 . S
C768 C769 1.400 . S
C769 C763 1.491 . S
C769 C768 1.400 . S
C769 C770 1.398 . S
C770 H758 0.950 . S
C770 C769 1.398 . S
C770 C771 1.391 . S
C771 H759 0.950 . S
C771 C767 1.393 . S
C771 C770 1.391 . S
H772 C780 0.950 . S
H773 C785 0.950 . S
H774 C782 0.950 . S
H775 C784 0.950 . S
H776 C786 0.950 . S
H777 C788 0.950 . S
H778 C790 0.950 . S
H779 C791 0.950 . S
C780 H772 0.950 . S
C780 C781 1.386 . S
C780 C782 1.391 . S
C781 C780 1.386 . S
C781 C785 1.393 . S
C782 H774 0.950 . S
C782 C780 1.391 . S
C782 C783 1.400 . S
C783 C782 1.400 . S
C783 C784 1.398 . S
C783 C789 1.491 . S
C784 H775 0.950 . S
C784 C783 1.398 . S
C784 C785 1.391 . S
C785 H773 0.950 . S
C785 C781 1.393 . S
C785 C784 1.391 . S
C786 H776 0.950 . S
C786 C787 1.386 . S
C786 C788 1.391 . S
C787 C786 1.386 . S
C787 C791 1.393 . S
C788 H777 0.950 . S
C788 C786 1.391 . S
C788 C789 1.400 . S
C789 C783 1.491 . S
C789 C788 1.400 . S
C789 C790 1.398 . S
C790 H778 0.950 . S
C790 C789 1.398 . S
C790 C791 1.391 . S
C791 H779 0.950 . S
C791 C787 1.393 . S
C791 C790 1.391 . S
H792 C800 0.950 . S
H793 C805 0.950 . S
H794 C802 0.950 . S
H795 C804 0.950 . S
H796 C806 0.950 . S
H797 C808 0.950 . S
H798 C810 0.950 . S
H799 C811 0.950 . S
C800 H792 0.950 . S
C800 C801 1.386 . S
C800 C802 1.391 . S
C801 C800 1.386 . S
C801 C805 1.393 . S
C802 H794 0.950 . S
C802 C800 1.391 . S
C802 C803 1.400 . S
C803 C802 1.400 . S
C803 C804 1.398 . S
C803 C809 1.491 . S
C804 H795 0.950 . S
C804 C803 1.398 . S
C804 C805 1.391 . S
C805 H793 0.950 . S
C805 C801 1.393 . S
C805 C804 1.391 . S
C806 H796 0.950 . S
C806 C807 1.386 . S
C806 C808 1.391 . S
C807 C806 1.386 . S
C807 C811 1.393 . S
C808 H797 0.950 . S
C808 C806 1.391 . S
C808 C809 1.400 . S
C809 C803 1.491 . S
C809 C808 1.400 . S
C809 C810 1.398 . S
C810 H798 0.950 . S
C810 C809 1.398 . S
C810 C811 1.391 . S
C811 H799 0.950 . S
C811 C807 1.393 . S
C811 C810 1.391 . S
H812 C820 0.950 . S
H813 C825 0.950 . S
H814 C822 0.950 . S
H815 C824 0.950 . S
H816 C826 0.950 . S
H817 C828 0.950 . S
H818 C830 0.950 . S
H819 C831 0.950 . S
C820 H812 0.950 . S
C820 C821 1.386 . S
C820 C822 1.391 . S
C821 C820 1.386 . S
C821 C825 1.393 . S
C822 H814 0.950 . S
C822 C820 1.391 . S
C822 C823 1.400 . S
C823 C822 1.400 . S
C823 C824 1.398 . S
C823 C829 1.491 . S
C824 H815 0.950 . S
C824 C823 1.398 . S
C824 C825 1.391 . S
C825 H813 0.950 . S
C825 C821 1.393 . S
C825 C824 1.391 . S
C826 H816 0.950 . S
C826 C827 1.386 . S
C826 C828 1.391 . S
C827 C826 1.386 . S
C827 C831 1.393 . S
C828 H817 0.950 . S
C828 C826 1.391 . S
C828 C829 1.400 . S
C829 C823 1.491 . S
C829 C828 1.400 . S
C829 C830 1.398 . S
C830 H818 0.950 . S
C830 C829 1.398 . S
C830 C831 1.391 . S
C831 H819 0.950 . S
C831 C827 1.393 . S
C831 C830 1.391 . S
H832 C840 0.950 . S
H833 C845 0.950 . S
H834 C842 0.950 . S
H835 C844 0.950 . S
H836 C846 0.950 . S
H837 C848 0.950 . S
H838 C850 0.950 . S
H839 C851 0.950 . S
C840 H832 0.950 . S
C840 C841 1.386 . S
C840 C842 1.391 . S
C841 C840 1.386 . S
C841 C845 1.393 . S
C842 H834 0.950 . S
C842 C840 1.391 . S
C842 C843 1.400 . S
C843 C842 1.400 . S
C843 C844 1.398 . S
C843 C849 1.491 . S
C844 H835 0.950 . S
C844 C843 1.398 . S
C844 C845 1.391 . S
C845 H833 0.950 . S
C845 C841 1.393 . S
C845 C844 1.391 . S
C846 H836 0.950 . S
C846 C847 1.386 . S
C846 C848 1.391 . S
C847 C846 1.386 . S
C847 C851 1.393 . S
C848 H837 0.950 . S
C848 C846 1.391 . S
C848 C849 1.400 . S
C849 C843 1.491 . S
C849 C848 1.400 . S
C849 C850 1.398 . S
C850 H838 0.950 . S
C850 C849 1.398 . S
C850 C851 1.391 . S
C851 H839 0.950 . S
C851 C847 1.393 . S
C851 C850 1.391 . S
H852 C860 0.950 . S
H853 C865 0.950 . S
H854 C862 0.950 . S
H855 C864 0.950 . S
H856 C866 0.950 . S
H857 C868 0.950 . S
H858 C870 0.950 . S
H859 C871 0.950 . S
C860 H852 0.950 . S
C860 C861 1.386 . S
C860 C862 1.391 . S
C861 C860 1.386 . S
C861 C865 1.393 . S
C862 H854 0.950 . S
C862 C860 1.391 . S
C862 C863 1.400 . S
C863 C862 1.400 . S
C863 C864 1.398 . S
C863 C869 1.491 . S
C864 H855 0.950 . S
C864 C863 1.398 . S
C864 C865 1.391 . S
C865 H853 0.950 . S
C865 C861 1.393 . S
C865 C864 1.391 . S
C866 H856 0.950 . S
C866 C867 1.386 . S
C866 C868 1.391 . S
C867 C866 1.386 . S
C867 C871 1.393 . S
C868 H857 0.950 . S
C868 C866 1.391 . S
C868 C869 1.400 . S
C869 C863 1.491 . S
C869 C868 1.400 . S
C869 C870 1.398 . S
C870 H858 0.950 . S
C870 C869 1.398 . S
C870 C871 1.391 . S
C871 H859 0.950 . S
C871 C867 1.393 . S
C871 C870 1.391 . S
H872 C880 0.950 . S
H873 C885 0.950 . S
H874 C882 0.950 . S
H875 C884 0.950 . S
H876 C886 0.950 . S
H877 C888 0.950 . S
H878 C890 0.950 . S
H879 C891 0.950 . S
C880 H872 0.950 . S
C880 C881 1.386 . S
C880 C882 1.391 . S
C881 C880 1.386 . S
C881 C885 1.393 . S
C882 H874 0.950 . S
C882 C880 1.391 . S
C882 C883 1.400 . S
C883 C882 1.400 . S
C883 C884 1.398 . S
C883 C889 1.491 . S
C884 H875 0.950 . S
C884 C883 1.398 . S
C884 C885 1.391 . S
C885 H873 0.950 . S
C885 C881 1.393 . S
C885 C884 1.391 . S
C886 H876 0.950 . S
C886 C887 1.386 . S
C886 C888 1.391 . S
C887 C886 1.386 . S
C887 C891 1.393 . S
C888 H877 0.950 . S
C888 C886 1.391 . S
C888 C889 1.400 . S
C889 C883 1.491 . S
C889 C888 1.400 . S
C889 C890 1.398 . S
C890 H878 0.950 . S
C890 C889 1.398 . S
C890 C891 1.391 . S
C891 H879 0.950 . S
C891 C887 1.393 . S
C891 C890 1.391 . S
H892 C900 0.950 . S
H893 C905 0.950 . S
H894 C902 0.950 . S
H895 C904 0.950 . S
H896 C906 0.950 . S
H897 C908 0.950 . S
H898 C910 0.950 . S
H899 C911 0.950 . S
C900 H892 0.950 . S
C900 C901 1.386 . S
C900 C902 1.391 . S
C901 C900 1.386 . S
C901 C905 1.393 . S
C902 H894 0.950 . S
C902 C900 1.391 . S
C902 C903 1.400 . S
C903 C902 1.400 . S
C903 C904 1.398 . S
C903 C909 1.491 . S
C904 H895 0.950 . S
C904 C903 1.398 . S
C904 C905 1.391 . S
C905 H893 0.950 . S
C905 C901 1.393 . S
C905 C904 1.391 . S
C906 H896 0.950 . S
C906 C907 1.386 . S
C906 C908 1.391 . S
C907 C906 1.386 . S
C907 C911 1.393 . S
C908 H897 0.950 . S
C908 C906 1.391 . S
C908 C909 1.400 . S
C909 C903 1.491 . S
C909 C908 1.400 . S
C909 C910 1.398 . S
C910 H898 0.950 . S
C910 C909 1.398 . S
C910 C911 1.391 . S
C911 H899 0.950 . S
C911 C907 1.393 . S
C911 C910 1.391 . S
H912 C920 0.950 . S
H913 C925 0.950 . S
H914 C922 0.950 . S
H915 C924 0.950 . S
H916 C926 0.950 . S
H917 C928 0.950 . S
H918 C930 0.950 . S
H919 C931 0.950 . S
C920 H912 0.950 . S
C920 C921 1.386 . S
C920 C922 1.391 . S
C921 C920 1.386 . S
C921 C925 1.393 . S
C922 H914 0.950 . S
C922 C920 1.391 . S
C922 C923 1.400 . S
C923 C922 1.400 . S
C923 C924 1.398 . S
C923 C929 1.491 . S
C924 H915 0.950 . S
C924 C923 1.398 . S
C924 C925 1.391 . S
C925 H913 0.950 . S
C925 C921 1.393 . S
C925 C924 1.391 . S
C926 H916 0.950 . S
C926 C927 1.386 . S
C926 C928 1.391 . S
C927 C926 1.386 . S
C927 C931 1.393 . S
C928 H917 0.950 . S
C928 C926 1.391 . S
C928 C929 1.400 . S
C929 C923 1.491 . S
C929 C928 1.400 . S
C929 C930 1.398 . S
C930 H918 0.950 . S
C930 C929 1.398 . S
C930 C931 1.391 . S
C931 H919 0.950 . S
C931 C927 1.393 . S
C931 C930 1.391 . S
H932 C940 0.950 . S
H933 C945 0.950 . S
H934 C942 0.950 . S
H935 C944 0.950 . S
H936 C946 0.950 . S
H937 C948 0.950 . S
H938 C950 0.950 . S
H939 C951 0.950 . S
C940 H932 0.950 . S
C940 C941 1.386 . S
C940 C942 1.391 . S
C941 C940 1.386 . S
C941 C945 1.393 . S
C942 H934 0.950 . S
C942 C940 1.391 . S
C942 C943 1.400 . S
C943 C942 1.400 . S
C943 C944 1.398 . S
C943 C949 1.491 . S
C944 H935 0.950 . S
C944 C943 1.398 . S
C944 C945 1.391 . S
C945 H933 0.950 . S
C945 C941 1.393 . S
C945 C944 1.391 . S
C946 H936 0.950 . S
C946 C947 1.386 . S
C946 C948 1.391 . S
C947 C946 1.386 . S
C947 C951 1.393 . S
C948 H937 0.950 . S
C948 C946 1.391 . S
C948 C949 1.400 . S
C949 C943 1.491 . S
C949 C948 1.400 . S
C949 C950 1.398 . S
C950 H938 0.950 . S
C950 C949 1.398 . S
C950 C951 1.391 . S
C951 H939 0.950 . S
C951 C947 1.393 . S
C951 C950 1.391 . S
H952 C960 0.950 . S
H953 C965 0.950 . S
H954 C962 0.950 . S
H955 C964 0.950 . S
H956 C966 0.950 . S
H957 C968 0.950 . S
H958 C970 0.950 . S
H959 C971 0.950 . S
C960 H952 0.950 . S
C960 C961 1.386 . S
C960 C962 1.391 . S
C961 C960 1.386 . S
C961 C965 1.393 . S
C962 H954 0.950 . S
C962 C960 1.391 . S
C962 C963 1.400 . S
C963 C962 1.400 . S
C963 C964 1.398 . S
C963 C969 1.491 . S
C964 H955 0.950 . S
C964 C963 1.398 . S
C964 C965 1.391 . S
C965 H953 0.950 . S
C965 C961 1.393 . S
C965 C964 1.391 . S
C966 H956 0.950 . S
C966 C967 1.386 . S
C966 C968 1.391 . S
C967 C966 1.386 . S
C967 C971 1.393 . S
C968 H957 0.950 . S
C968 C966 1.391 . S
C968 C969 1.400 . S
C969 C963 1.491 . S
C969 C968 1.400 . S
C969 C970 1.398 . S
C970 H958 0.950 . S
C970 C969 1.398 . S
C970 C971 1.391 . S
C971 H959 0.950 . S
C971 C967 1.393 . S
C971 C970 1.391 . S
H972 C980 0.950 . S
H973 C985 0.950 . S
H974 C982 0.950 . S
H975 C984 0.950 . S
H976 C986 0.950 . S
H977 C988 0.950 . S
H978 C990 0.950 . S
H979 C991 0.950 . S
C980 H972 0.950 . S
C980 C981 1.386 . S
C980 C982 1.391 . S
C981 C980 1.386 . S
C981 C985 1.393 . S
C982 H974 0.950 . S
C982 C980 1.391 . S
C982 C983 1.400 . S
C983 C982 1.400 . S
C983 C984 1.398 . S
C983 C989 1.491 . S
C984 H975 0.950 . S
C984 C983 1.398 . S
C984 C985 1.391 . S
C985 H973 0.950 . S
C985 C981 1.393 . S
C985 C984 1.391 . S
C986 H976 0.950 . S
C986 C987 1.386 . S
C986 C988 1.391 . S
C987 C986 1.386 . S
C987 C991 1.393 . S
C988 H977 0.950 . S
C988 C986 1.391 . S
C988 C989 1.400 . S
C989 C983 1.491 . S
C989 C988 1.400 . S
C989 C990 1.398 . S
C990 H978 0.950 . S
C990 C989 1.398 . S
C990 C991 1.391 . S
C991 H979 0.950 . S
C991 C987 1.393 . S
C991 C990 1.391 . S
H992 C1000 0.950 . S
H993 C1005 0.950 . S
H994 C1002 0.950 1_545 S
H995 C1004 0.950 . S
H996 C1006 0.950 . S
H997 C1008 0.950 1_565 S
H998 C1010 0.950 . S
H999 C1011 0.950 . S
C1000 H992 0.950 . S
C1000 C1001 1.386 . S
C1000 C1002 1.391 . S
C1001 C1000 1.386 . S
C1001 C1005 1.393 . S
C1002 H994 0.950 1_565 S
C1002 C1000 1.391 . S
C1002 C1003 1.400 . S
C1003 C1002 1.400 . S
C1003 C1004 1.398 . S
C1003 C1009 1.491 1_565 S
C1004 H995 0.950 . S
C1004 C1003 1.398 . S
C1004 C1005 1.391 . S
C1005 H993 0.950 . S
C1005 C1001 1.393 . S
C1005 C1004 1.391 . S
C1006 H996 0.950 . S
C1006 C1007 1.386 . S
C1006 C1008 1.391 . S
C1007 C1006 1.386 . S
C1007 C1011 1.393 . S
C1008 H997 0.950 1_545 S
C1008 C1006 1.391 . S
C1008 C1009 1.400 . S
C1009 C1003 1.491 1_545 S
C1009 C1008 1.400 . S
C1009 C1010 1.398 . S
C1010 H998 0.950 . S
C1010 C1009 1.398 . S
C1010 C1011 1.391 . S
C1011 H999 0.950 . S
C1011 C1007 1.393 . S
C1011 C1010 1.391 . S
H1012 C1020 0.950 . S
H1013 C1025 0.950 . S
H1014 C1022 0.950 . S
H1015 C1024 0.950 . S
H1016 C1026 0.950 . S
H1017 C1028 0.950 . S
H1018 C1030 0.950 . S
H1019 C1031 0.950 . S
C1020 H1012 0.950 . S
C1020 C1021 1.386 . S
C1020 C1022 1.391 . S
C1021 C1020 1.386 . S
C1021 C1025 1.393 . S
C1022 H1014 0.950 . S
C1022 C1020 1.391 . S
C1022 C1023 1.400 . S
C1023 C1022 1.400 . S
C1023 C1024 1.398 . S
C1023 C1029 1.491 1_455 S
C1024 H1015 0.950 . S
C1024 C1023 1.398 . S
C1024 C1025 1.391 . S
C1025 H1013 0.950 . S
C1025 C1021 1.393 . S
C1025 C1024 1.391 . S
C1026 H1016 0.950 . S
C1026 C1027 1.386 . S
C1026 C1028 1.391 . S
C1027 C1026 1.386 . S
C1027 C1031 1.393 . S
C1028 H1017 0.950 . S
C1028 C1026 1.391 . S
C1028 C1029 1.400 . S
C1029 C1023 1.491 1_655 S
C1029 C1028 1.400 . S
C1029 C1030 1.398 . S
C1030 H1018 0.950 . S
C1030 C1029 1.398 . S
C1030 C1031 1.391 . S
C1031 H1019 0.950 . S
C1031 C1027 1.393 . S
C1031 C1030 1.391 . S
H1032 C1040 0.950 . S
H1033 C1045 0.950 . S
H1034 C1042 0.950 . S
H1035 C1044 0.950 . S
H1036 C1046 0.950 . S
H1037 C1048 0.950 . S
H1038 C1050 0.950 . S
H1039 C1051 0.950 . S
C1040 H1032 0.950 . S
C1040 C1041 1.386 . S
C1040 C1042 1.391 . S
C1041 C1040 1.386 . S
C1041 C1045 1.393 . S
C1042 H1034 0.950 . S
C1042 C1040 1.391 . S
C1042 C1043 1.400 . S
C1043 C1042 1.400 . S
C1043 C1044 1.398 . S
C1043 C1049 1.491 . S
C1044 H1035 0.950 . S
C1044 C1043 1.398 . S
C1044 C1045 1.391 . S
C1045 H1033 0.950 . S
C1045 C1041 1.393 . S
C1045 C1044 1.391 . S
C1046 H1036 0.950 . S
C1046 C1047 1.386 . S
C1046 C1048 1.391 . S
C1047 C1046 1.386 . S
C1047 C1051 1.393 . S
C1048 H1037 0.950 . S
C1048 C1046 1.391 . S
C1048 C1049 1.400 . S
C1049 C1043 1.491 . S
C1049 C1048 1.400 . S
C1049 C1050 1.398 . S
C1050 H1038 0.950 . S
C1050 C1049 1.398 . S
C1050 C1051 1.391 . S
C1051 H1039 0.950 . S
C1051 C1047 1.393 . S
C1051 C1050 1.391 . S
H1052 C1060 0.950 . S
H1053 C1065 0.950 . S
H1054 C1062 0.952 . S
H1055 C1064 0.950 . S
H1056 C1066 0.950 . S
H1057 C1068 0.952 . S
H1058 C1070 0.950 . S
H1059 C1071 0.950 . S
C1060 H1052 0.950 . S
C1060 C1061 1.386 . S
C1060 C1062 1.391 . S
C1061 C1060 1.386 . S
C1061 C1065 1.393 . S
C1062 H1054 0.952 . S
C1062 C1060 1.391 . S
C1062 C1063 1.400 . S
C1063 C1062 1.400 . S
C1063 C1064 1.398 . S
C1063 C1069 1.491 1_565 S
C1064 H1055 0.950 . S
C1064 C1063 1.398 . S
C1064 C1065 1.391 . S
C1065 H1053 0.950 . S
C1065 C1061 1.393 . S
C1065 C1064 1.391 . S
C1066 H1056 0.950 . S
C1066 C1067 1.386 . S
C1066 C1068 1.391 . S
C1067 C1066 1.386 . S
C1067 C1071 1.393 . S
C1068 H1057 0.952 . S
C1068 C1066 1.391 . S
C1068 C1069 1.400 . S
C1069 C1063 1.491 1_545 S
C1069 C1068 1.400 . S
C1069 C1070 1.398 . S
C1070 H1058 0.950 . S
C1070 C1069 1.398 . S
C1070 C1071 1.391 . S
C1071 H1059 0.950 . S
C1071 C1067 1.393 . S
C1071 C1070 1.391 . S
H1072 C1080 0.950 . S
H1073 C1085 0.950 . S
H1074 C1082 0.950 . S
H1075 C1084 0.950 . S
H1076 C1086 0.950 . S
H1077 C1088 0.950 . S
H1078 C1090 0.950 . S
H1079 C1091 0.950 . S
C1080 H1072 0.950 . S
C1080 C1081 1.386 . S
C1080 C1082 1.391 . S
C1081 C1080 1.386 . S
C1081 C1085 1.393 . S
C1082 H1074 0.950 . S
C1082 C1080 1.391 . S
C1082 C1083 1.400 . S
C1083 C1082 1.400 . S
C1083 C1084 1.398 . S
C1083 C1089 1.491 1_655 S
C1084 H1075 0.950 . S
C1084 C1083 1.398 . S
C1084 C1085 1.391 . S
C1085 H1073 0.950 . S
C1085 C1081 1.393 . S
C1085 C1084 1.391 . S
C1086 H1076 0.950 . S
C1086 C1087 1.386 . S
C1086 C1088 1.391 . S
C1087 C1086 1.386 . S
C1087 C1091 1.393 . S
C1088 H1077 0.950 . S
C1088 C1086 1.391 . S
C1088 C1089 1.400 . S
C1089 C1083 1.491 1_455 S
C1089 C1088 1.400 . S
C1089 C1090 1.398 . S
C1090 H1078 0.950 . S
C1090 C1089 1.398 . S
C1090 C1091 1.391 . S
C1091 H1079 0.950 . S
C1091 C1087 1.393 . S
C1091 C1090 1.391 . S
H1092 C1100 0.950 . S
H1093 C1105 0.950 . S
H1094 C1102 0.950 . S
H1095 C1104 0.950 . S
H1096 C1106 0.950 . S
H1097 C1108 0.950 . S
H1098 C1110 0.950 . S
H1099 C1111 0.950 . S
C1100 H1092 0.950 . S
C1100 C1101 1.386 . S
C1100 C1102 1.391 . S
C1101 C1100 1.386 . S
C1101 C1105 1.393 . S
C1102 H1094 0.950 . S
C1102 C1100 1.391 . S
C1102 C1103 1.400 . S
C1103 C1102 1.400 . S
C1103 C1104 1.398 . S
C1103 C1109 1.491 . S
C1104 H1095 0.950 . S
C1104 C1103 1.398 . S
C1104 C1105 1.391 . S
C1105 H1093 0.950 . S
C1105 C1101 1.393 . S
C1105 C1104 1.391 . S
C1106 H1096 0.950 . S
C1106 C1107 1.386 . S
C1106 C1108 1.391 . S
C1107 C1106 1.386 . S
C1107 C1111 1.393 . S
C1108 H1097 0.950 . S
C1108 C1106 1.391 . S
C1108 C1109 1.400 . S
C1109 C1103 1.491 . S
C1109 C1108 1.400 . S
C1109 C1110 1.398 . S
C1110 H1098 0.950 . S
C1110 C1109 1.398 . S
C1110 C1111 1.391 . S
C1111 H1099 0.950 . S
C1111 C1107 1.393 . S
C1111 C1110 1.391 . S
H1112 C1120 0.950 . S
H1113 C1125 0.950 . S
H1114 C1122 0.950 . S
H1115 C1124 0.950 . S
H1116 C1126 0.950 . S
H1117 C1128 0.950 . S
H1118 C1130 0.950 . S
H1119 C1131 0.950 . S
C1120 H1112 0.950 . S
C1120 C1121 1.386 . S
C1120 C1122 1.391 . S
C1121 C1120 1.386 . S
C1121 C1125 1.393 1_556 S
C1122 H1114 0.950 . S
C1122 C1120 1.391 . S
C1122 C1123 1.400 . S
C1123 C1122 1.400 . S
C1123 C1124 1.398 . S
C1123 C1129 1.491 . S
C1124 H1115 0.950 . S
C1124 C1123 1.398 . S
C1124 C1125 1.391 1_556 S
C1125 H1113 0.950 . S
C1125 C1121 1.393 1_554 S
C1125 C1124 1.391 1_554 S
C1126 H1116 0.950 . S
C1126 C1127 1.386 . S
C1126 C1128 1.391 . S
C1127 C1126 1.386 . S
C1127 C1131 1.393 . S
C1128 H1117 0.950 . S
C1128 C1126 1.391 . S
C1128 C1129 1.400 . S
C1129 C1123 1.491 . S
C1129 C1128 1.400 . S
C1129 C1130 1.398 . S
C1130 H1118 0.950 . S
C1130 C1129 1.398 . S
C1130 C1131 1.391 . S
C1131 H1119 0.950 . S
C1131 C1127 1.393 . S
C1131 C1130 1.391 . S
H1132 C1140 0.950 . S
H1133 C1145 0.950 . S
H1134 C1142 0.950 . S
H1135 C1144 0.950 . S
H1136 C1146 0.950 . S
H1137 C1148 0.950 . S
H1138 C1150 0.950 . S
H1139 C1151 0.950 . S
C1140 H1132 0.950 . S
C1140 C1141 1.386 1_554 S
C1140 C1142 1.391 1_554 S
C1141 C1140 1.386 1_556 S
C1141 C1145 1.393 . S
C1142 H1134 0.950 . S
C1142 C1140 1.391 1_556 S
C1142 C1143 1.400 . S
C1143 C1142 1.400 . S
C1143 C1144 1.398 . S
C1143 C1149 1.491 . S
C1144 H1135 0.950 . S
C1144 C1143 1.398 . S
C1144 C1145 1.391 . S
C1145 H1133 0.950 . S
C1145 C1141 1.393 . S
C1145 C1144 1.391 . S
C1146 H1136 0.950 . S
C1146 C1147 1.386 . S
C1146 C1148 1.391 . S
C1147 C1146 1.386 . S
C1147 C1151 1.393 . S
C1148 H1137 0.950 . S
C1148 C1146 1.391 . S
C1148 C1149 1.400 . S
C1149 C1143 1.491 . S
C1149 C1148 1.400 . S
C1149 C1150 1.398 . S
C1150 H1138 0.950 . S
C1150 C1149 1.398 . S
C1150 C1151 1.391 . S
C1151 H1139 0.950 . S
C1151 C1147 1.393 . S
C1151 C1150 1.391 . S
H1152 C1160 0.950 . S
H1153 C1165 0.950 . S
H1154 C1162 0.950 . S
H1155 C1164 0.950 . S
H1156 C1166 0.950 . S
H1157 C1168 0.950 . S
H1158 C1170 0.950 . S
H1159 C1171 0.950 . S
C1160 H1152 0.950 . S
C1160 C1161 1.386 . S
C1160 C1162 1.391 . S
C1161 C1160 1.386 . S
C1161 C1165 1.393 . S
C1162 H1154 0.950 . S
C1162 C1160 1.391 . S
C1162 C1163 1.400 . S
C1163 C1162 1.400 . S
C1163 C1164 1.398 . S
C1163 C1169 1.491 . S
C1164 H1155 0.950 . S
C1164 C1163 1.398 . S
C1164 C1165 1.391 . S
C1165 H1153 0.950 . S
C1165 C1161 1.393 . S
C1165 C1164 1.391 . S
C1166 H1156 0.950 . S
C1166 C1167 1.386 . S
C1166 C1168 1.391 . S
C1167 C1166 1.386 . S
C1167 C1171 1.393 . S
C1168 H1157 0.950 . S
C1168 C1166 1.391 . S
C1168 C1169 1.400 . S
C1169 C1163 1.491 . S
C1169 C1168 1.400 . S
C1169 C1170 1.398 . S
C1170 H1158 0.950 . S
C1170 C1169 1.398 . S
C1170 C1171 1.391 . S
C1171 H1159 0.950 . S
C1171 C1167 1.393 . S
C1171 C1170 1.391 . S
H1172 C1180 0.950 . S
H1173 C1185 0.950 . S
H1174 C1182 0.950 . S
H1175 C1184 0.950 . S
H1176 C1186 0.950 . S
H1177 C1188 0.950 . S
H1178 C1190 0.950 . S
H1179 C1191 0.950 . S
C1180 H1172 0.950 . S
C1180 C1181 1.386 . S
C1180 C1182 1.391 . S
C1181 C1180 1.386 . S
C1181 C1185 1.393 . S
C1182 H1174 0.950 . S
C1182 C1180 1.391 . S
C1182 C1183 1.400 . S
C1183 C1182 1.400 . S
C1183 C1184 1.398 . S
C1183 C1189 1.491 . S
C1184 H1175 0.950 . S
C1184 C1183 1.398 . S
C1184 C1185 1.391 . S
C1185 H1173 0.950 . S
C1185 C1181 1.393 . S
C1185 C1184 1.391 . S
C1186 H1176 0.950 . S
C1186 C1187 1.386 . S
C1186 C1188 1.391 . S
C1187 C1186 1.386 . S
C1187 C1191 1.393 . S
C1188 H1177 0.950 . S
C1188 C1186 1.391 . S
C1188 C1189 1.400 . S
C1189 C1183 1.491 . S
C1189 C1188 1.400 . S
C1189 C1190 1.398 . S
C1190 H1178 0.950 . S
C1190 C1189 1.398 . S
C1190 C1191 1.391 . S
C1191 H1179 0.950 . S
C1191 C1187 1.393 . S
C1191 C1190 1.391 . S
H1192 C1200 0.950 . S
H1193 C1205 0.950 . S
H1194 C1202 0.950 . S
H1195 C1204 0.950 . S
H1196 C1206 0.950 . S
H1197 C1208 0.950 . S
H1198 C1210 0.950 . S
H1199 C1211 0.950 . S
C1200 H1192 0.950 . S
C1200 C1201 1.386 . S
C1200 C1202 1.391 . S
C1201 C1200 1.386 . S
C1201 C1205 1.393 . S
C1202 H1194 0.950 . S
C1202 C1200 1.391 . S
C1202 C1203 1.400 . S
C1203 C1202 1.400 . S
C1203 C1204 1.398 . S
C1203 C1209 1.491 . S
C1204 H1195 0.950 . S
C1204 C1203 1.398 . S
C1204 C1205 1.391 . S
C1205 H1193 0.950 . S
C1205 C1201 1.393 . S
C1205 C1204 1.391 . S
C1206 H1196 0.950 . S
C1206 C1207 1.386 . S
C1206 C1208 1.391 . S
C1207 C1206 1.386 . S
C1207 C1211 1.393 . S
C1208 H1197 0.950 . S
C1208 C1206 1.391 . S
C1208 C1209 1.400 . S
C1209 C1203 1.491 . S
C1209 C1208 1.400 . S
C1209 C1210 1.398 . S
C1210 H1198 0.950 . S
C1210 C1209 1.398 . S
C1210 C1211 1.391 . S
C1211 H1199 0.950 . S
C1211 C1207 1.393 . S
C1211 C1210 1.391 . S
H1212 C1220 0.952 . S
H1213 C1225 0.950 . S
H1214 C1222 0.950 . S
H1215 C1224 0.950 . S
H1216 C1226 0.950 . S
H1217 C1228 0.950 . S
H1218 C1230 0.950 . S
H1219 C1231 0.950 . S
C1220 H1212 0.952 . S
C1220 C1221 1.386 . S
C1220 C1222 1.391 . S
C1221 C1220 1.386 . S
C1221 C1225 1.393 . S
C1222 H1214 0.950 . S
C1222 C1220 1.391 . S
C1222 C1223 1.400 . S
C1223 C1222 1.400 . S
C1223 C1224 1.398 . S
C1223 C1229 1.491 . S
C1224 H1215 0.950 . S
C1224 C1223 1.398 . S
C1224 C1225 1.391 . S
C1225 H1213 0.950 . S
C1225 C1221 1.393 . S
C1225 C1224 1.391 . S
C1226 H1216 0.950 . S
C1226 C1227 1.386 . S
C1226 C1228 1.391 . S
C1227 C1226 1.386 . S
C1227 C1231 1.393 . S
C1228 H1217 0.950 . S
C1228 C1226 1.391 . S
C1228 C1229 1.400 . S
C1229 C1223 1.491 . S
C1229 C1228 1.400 . S
C1229 C1230 1.398 . S
C1230 H1218 0.950 . S
C1230 C1229 1.398 . S
C1230 C1231 1.391 . S
C1231 H1219 0.950 . S
C1231 C1227 1.393 . S
C1231 C1230 1.391 . S
H1232 C1240 0.950 . S
H1233 C1245 0.950 . S
H1234 C1242 0.950 . S
H1235 C1244 0.950 . S
H1236 C1246 0.950 . S
H1237 C1248 0.950 . S
H1238 C1250 0.950 . S
H1239 C1251 0.950 . S
C1240 H1232 0.950 . S
C1240 C1241 1.386 . S
C1240 C1242 1.391 . S
C1241 C1240 1.386 . S
C1241 C1245 1.393 1_554 S
C1242 H1234 0.950 . S
C1242 C1240 1.391 . S
C1242 C1243 1.400 . S
C1243 C1242 1.400 . S
C1243 C1244 1.398 . S
C1243 C1249 1.491 . S
C1244 H1235 0.950 . S
C1244 C1243 1.398 . S
C1244 C1245 1.391 1_554 S
C1245 H1233 0.950 . S
C1245 C1241 1.393 1_556 S
C1245 C1244 1.391 1_556 S
C1246 H1236 0.950 . S
C1246 C1247 1.386 . S
C1246 C1248 1.391 . S
C1247 C1246 1.386 . S
C1247 C1251 1.393 . S
C1248 H1237 0.950 . S
C1248 C1246 1.391 . S
C1248 C1249 1.400 . S
C1249 C1243 1.491 . S
C1249 C1248 1.400 . S
C1249 C1250 1.398 . S
C1250 H1238 0.950 . S
C1250 C1249 1.398 . S
C1250 C1251 1.391 . S
C1251 H1239 0.950 . S
C1251 C1247 1.393 . S
C1251 C1250 1.391 . S
H1252 C1260 0.950 . S
H1253 C1265 0.950 1_556 S
H1254 C1262 0.950 . S
H1255 C1264 0.950 . S
H1256 C1266 0.950 . S
H1257 C1268 0.950 . S
H1258 C1270 0.950 . S
H1259 C1271 0.950 . S
C1260 H1252 0.950 . S
C1260 C1261 1.386 . S
C1260 C1262 1.391 . S
C1261 C1260 1.386 . S
C1261 C1265 1.393 . S
C1262 H1254 0.950 . S
C1262 C1260 1.391 . S
C1262 C1263 1.400 . S
C1263 C1262 1.400 . S
C1263 C1264 1.398 . S
C1263 C1269 1.491 . S
C1264 H1255 0.950 . S
C1264 C1263 1.398 . S
C1264 C1265 1.391 . S
C1265 H1253 0.950 1_554 S
C1265 C1261 1.393 . S
C1265 C1264 1.391 . S
C1266 H1256 0.950 . S
C1266 C1267 1.386 . S
C1266 C1268 1.391 . S
C1267 C1266 1.386 . S
C1267 C1271 1.393 . S
C1268 H1257 0.950 . S
C1268 C1266 1.391 . S
C1268 C1269 1.400 . S
C1269 C1263 1.491 . S
C1269 C1268 1.400 . S
C1269 C1270 1.398 . S
C1270 H1258 0.950 . S
C1270 C1269 1.398 . S
C1270 C1271 1.391 . S
C1271 H1259 0.950 . S
C1271 C1267 1.393 . S
C1271 C1270 1.391 . S
H1272 C1280 0.950 . S
H1273 C1285 0.950 . S
H1274 C1282 0.950 . S
H1275 C1284 0.950 . S
H1276 C1286 0.950 . S
H1277 C1288 0.950 . S
H1278 C1290 0.950 . S
H1279 C1291 0.950 . S
C1280 H1272 0.950 . S
C1280 C1281 1.386 . S
C1280 C1282 1.391 . S
C1281 C1280 1.386 . S
C1281 C1285 1.393 . S
C1282 H1274 0.950 . S
C1282 C1280 1.391 . S
C1282 C1283 1.400 . S
C1283 C1282 1.400 . S
C1283 C1284 1.398 . S
C1283 C1289 1.491 . S
C1284 H1275 0.950 . S
C1284 C1283 1.398 . S
C1284 C1285 1.391 . S
C1285 H1273 0.950 . S
C1285 C1281 1.393 . S
C1285 C1284 1.391 . S
C1286 H1276 0.950 . S
C1286 C1287 1.386 . S
C1286 C1288 1.391 . S
C1287 C1286 1.386 . S
C1287 C1291 1.393 . S
C1288 H1277 0.950 . S
C1288 C1286 1.391 . S
C1288 C1289 1.400 . S
C1289 C1283 1.491 . S
C1289 C1288 1.400 . S
C1289 C1290 1.398 . S
C1290 H1278 0.950 . S
C1290 C1289 1.398 . S
C1290 C1291 1.391 . S
C1291 H1279 0.950 . S
C1291 C1287 1.393 . S
C1291 C1290 1.391 . S
H1292 C1300 0.950 . S
H1293 C1305 0.950 . S
H1294 C1302 0.950 . S
H1295 C1304 0.950 . S
H1296 C1306 0.950 . S
H1297 C1308 0.950 . S
H1298 C1310 0.950 . S
H1299 C1311 0.950 . S
C1300 H1292 0.950 . S
C1300 C1301 1.386 . S
C1300 C1302 1.391 . S
C1301 C1300 1.386 . S
C1301 C1305 1.393 . S
C1302 H1294 0.950 . S
C1302 C1300 1.391 . S
C1302 C1303 1.400 . S
C1303 C1302 1.400 . S
C1303 C1304 1.398 . S
C1303 C1309 1.491 . S
C1304 H1295 0.950 . S
C1304 C1303 1.398 . S
C1304 C1305 1.391 . S
C1305 H1293 0.950 . S
C1305 C1301 1.393 . S
C1305 C1304 1.391 . S
C1306 H1296 0.950 . S
C1306 C1307 1.386 . S
C1306 C1308 1.391 . S
C1307 C1306 1.386 . S
C1307 C1311 1.393 . S
C1308 H1297 0.950 . S
C1308 C1306 1.391 . S
C1308 C1309 1.400 . S
C1309 C1303 1.491 . S
C1309 C1308 1.400 . S
C1309 C1310 1.398 . S
C1310 H1298 0.950 . S
C1310 C1309 1.398 . S
C1310 C1311 1.391 . S
C1311 H1299 0.950 . S
C1311 C1307 1.393 . S
C1311 C1310 1.391 . S
H1312 C1320 0.950 . S
H1313 C1325 0.950 . S
H1314 C1322 0.950 . S
H1315 C1324 0.950 . S
H1316 C1326 0.950 . S
H1317 C1328 0.950 . S
H1318 C1330 0.950 . S
H1319 C1331 0.950 . S
C1320 H1312 0.950 . S
C1320 C1321 1.386 . S
C1320 C1322 1.391 . S
C1321 C1320 1.386 . S
C1321 C1325 1.393 . S
C1322 H1314 0.950 . S
C1322 C1320 1.391 . S
C1322 C1323 1.400 . S
C1323 C1322 1.400 . S
C1323 C1324 1.398 . S
C1323 C1329 1.491 . S
C1324 H1315 0.950 . S
C1324 C1323 1.398 . S
C1324 C1325 1.391 . S
C1325 H1313 0.950 . S
C1325 C1321 1.393 . S
C1325 C1324 1.391 . S
C1326 H1316 0.950 . S
C1326 C1327 1.386 . S
C1326 C1328 1.391 . S
C1327 C1326 1.386 . S
C1327 C1331 1.393 . S
C1328 H1317 0.950 . S
C1328 C1326 1.391 . S
C1328 C1329 1.400 . S
C1329 C1323 1.491 . S
C1329 C1328 1.400 . S
C1329 C1330 1.398 . S
C1330 H1318 0.950 . S
C1330 C1329 1.398 . S
C1330 C1331 1.391 . S
C1331 H1319 0.950 . S
C1331 C1327 1.393 . S
C1331 C1330 1.391 . S
C381 C24 1.286 . S
C387 C42 1.132 . S
C401 C73 1.123 . S
C407 C55 1.285 . S
C421 C86 1.281 . S
C427 C11 1.107 . S
C441 C166 1.153 . S
C447 C117 1.277 . S
C461 C104 1.124 . S
C467 C148 1.274 . S
C481 C179 1.279 . S
C487 C135 1.104 . S
C501 C186 1.285 . S
C507 C235 1.127 . S
C521 C266 1.151 . S
C527 C217 1.285 . S
C541 C248 1.282 . S
C547 C204 1.108 . S
C561 C279 1.274 . S
C567 C359 1.122 . S
C581 C297 1.117 . S
C587 C310 1.284 . S
C601 C328 1.155 . S
C607 C341 1.278 . S
C621 C210 1.220 . S
C627 C0 1.220 . S
C641 C31 1.206 . S
C647 C241 1.206 . S
C661 C62 1.220 . S
C667 C272 1.220 . S
C681 C93 1.175 . S
C687 C303 1.175 . S
C701 C124 1.220 . S
C707 C334 1.220 . S
C721 C365 1.195 . S
C727 C155 1.195 . S
C741 C1 1.056 1_556 S
C747 C281 1.050 . S
C761 C32 1.038 1_556 S
C767 C312 1.017 . S
C781 C343 1.016 . S
C787 C63 1.040 1_556 S
C801 C188 1.050 . S
C807 C94 1.059 . S
C821 C219 1.016 . S
C827 C125 1.040 . S
C841 C250 1.016 . S
C847 C156 1.039 . S
C861 C103 1.036 . S
C867 C213 1.043 1_554 S
C881 C244 1.044 1_554 S
C887 C134 1.037 . S
C901 C275 1.041 1_554 S
C907 C165 1.033 . S
C921 C10 1.043 . S
C927 C306 1.060 . S
C941 C337 1.043 . S
C947 C41 1.036 . S
C961 C72 1.024 . S
C967 C368 1.052 . S
C981 C111 2.273 . S
C987 C18 2.256 . S
C1001 C142 2.277 . S
C1007 C49 2.260 . S
C1021 C173 2.267 . S
C1027 C80 2.259 . S
C1041 C197 2.271 . S
C1047 C290 2.257 . S
C1061 C228 2.261 . S
C1067 C321 2.277 . S
C1081 C352 2.258 . S
C1087 C259 2.269 . S
C1101 C311 1.496 . S
C1107 C2 1.636 1_556 S
C1121 C33 1.627 1_556 S
C1127 C342 1.495 . S
C1141 C64 1.624 1_556 S
C1147 C280 1.471 . S
C1161 C95 1.616 . S
C1167 C249 1.462 . S
C1181 C187 1.471 . S
C1187 C126 1.625 . S
C1201 C218 1.491 . S
C1207 C157 1.624 . S
C1221 C196 1.637 1_554 S
C1227 C151 1.501 . S
C1241 C227 1.619 1_554 S
C1247 C182 1.464 . S
C1261 C258 1.617 1_554 S
C1267 C120 1.462 . S
C1281 C89 1.487 . S
C1287 C289 1.622 . S
C1301 C27 1.497 . S
C1307 C320 1.628 . S
C1321 C58 1.498 . S
C1327 C351 1.629 . S
