# Generated by pormake.
# Topology ukt, (4)-cn, num edge types: 1
# Building blocks:
#     Node 0, Type 0, BuildingBlock: UXUYUI_clean_sbu_0, # of connection points: 4
#     Node 1, Type 0, BuildingBlock: UXUYUI_clean_sbu_0, # of connection points: 4
#     Node 2, Type 0, BuildingBlock: UXUYUI_clean_sbu_0, # of connection points: 4
#     Node 3, Type 0, BuildingBlock: UXUYUI_clean_sbu_0, # of connection points: 4
#     Node 4, Type 0, BuildingBlock: UXUYUI_clean_sbu_0, # of connection points: 4
#     Node 5, Type 0, BuildingBlock: UXUYUI_clean_sbu_0, # of connection points: 4
#     Node 6, Type 0, BuildingBlock: UXUYUI_clean_sbu_0, # of connection points: 4
#     Node 7, Type 0, BuildingBlock: UXUYUI_clean_sbu_0, # of connection points: 4
#     Node 8, Type 0, BuildingBlock: UXUYUI_clean_sbu_0, # of connection points: 4
#     Node 9, Type 0, BuildingBlock: UXUYUI_clean_sbu_0, # of connection points: 4
#     Node 10, Type 0, BuildingBlock: UXUYUI_clean_sbu_0, # of connection points: 4
#     Node 11, Type 0, BuildingBlock: UXUYUI_clean_sbu_0, # of connection points: 4
#     Node 12, Type 0, BuildingBlock: UXUYUI_clean_sbu_0, # of connection points: 4
#     Node 13, Type 0, BuildingBlock: UXUYUI_clean_sbu_0, # of connection points: 4
#     Node 14, Type 0, BuildingBlock: UXUYUI_clean_sbu_0, # of connection points: 4
#     Node 15, Type 0, BuildingBlock: UXUYUI_clean_sbu_0, # of connection points: 4
#     Edge 16, Type (0, 0), None
#     Edge 17, Type (0, 0), None
#     Edge 18, Type (0, 0), None
#     Edge 19, Type (0, 0), None
#     Edge 20, Type (0, 0), None
#     Edge 21, Type (0, 0), None
#     Edge 22, Type (0, 0), None
#     Edge 23, Type (0, 0), None
#     Edge 24, Type (0, 0), None
#     Edge 25, Type (0, 0), None
#     Edge 26, Type (0, 0), None
#     Edge 27, Type (0, 0), None
#     Edge 28, Type (0, 0), None
#     Edge 29, Type (0, 0), None
#     Edge 30, Type (0, 0), None
#     Edge 31, Type (0, 0), None
#     Edge 32, Type (0, 0), None
#     Edge 33, Type (0, 0), None
#     Edge 34, Type (0, 0), None
#     Edge 35, Type (0, 0), None
#     Edge 36, Type (0, 0), None
#     Edge 37, Type (0, 0), None
#     Edge 38, Type (0, 0), None
#     Edge 39, Type (0, 0), None
#     Edge 40, Type (0, 0), None
#     Edge 41, Type (0, 0), None
#     Edge 42, Type (0, 0), None
#     Edge 43, Type (0, 0), None
#     Edge 44, Type (0, 0), None
#     Edge 45, Type (0, 0), None
#     Edge 46, Type (0, 0), None
#     Edge 47, Type (0, 0), None
# Relax obj value: 0.433
# Max RMSD: 0.238
# Mean RMSD: 0.238
data_MOF--net-ukt--node1-UXUYUI_clean_sbu_0--edge1-none
_symmetry_space_group_name_H-M    P1
_symmetry_Int_Tables_number       1
_symmetry_cell_setting            triclinic
loop_
_symmetry_equiv_pos_as_xyz
'x, y, z'
_cell_length_a     38.226352
_cell_length_b     38.22733
_cell_length_c     34.110555
_cell_angle_alpha  90.001817
_cell_angle_beta   89.995861
_cell_angle_gamma 89.997493
loop_
_atom_site_label
_atom_site_type_symbol
_atom_site_fract_x
_atom_site_fract_y
_atom_site_fract_z
_atom_type_partial_charge
Li0 Li 0.55344 0.16313 0.13058 0.0
Li1 Li 0.5482 0.11568 0.08293 0.0
Li2 Li 0.6055 0.13447 0.10167 0.0
Li3 Li 0.56619 0.17278 0.06057 0.0
C4 C 0.58237 0.10907 0.17371 0.0
N5 N 0.60746 0.10197 0.24926 0.0
C6 C 0.56903 0.08304 0.19827 0.0
C7 C 0.60854 0.13142 0.18752 0.0
C8 C 0.58204 0.07987 0.23638 0.0
C9 C 0.62086 0.12744 0.22581 0.0
C10 C 0.4874 0.15373 0.099 0.0
C11 C 0.42609 0.16816 0.10321 0.0
N12 N 0.42135 0.14135 0.12887 0.0
C13 C 0.48192 0.1263 0.12544 0.0
C14 C 0.45929 0.17484 0.08779 0.0
C15 C 0.44834 0.12047 0.14019 0.0
C16 C 0.54213 0.22595 0.16915 0.0
N17 N 0.53851 0.19095 0.17499 0.0
C18 C 0.52367 0.20105 0.24235 0.0
C19 C 0.52863 0.17822 0.21053 0.0
C20 C 0.52963 0.23736 0.23792 0.0
C21 C 0.53828 0.24953 0.20018 0.0
H22 H 0.54991 0.2355 0.14061 0.0
H23 H 0.5256 0.15032 0.21457 0.0
C24 C 0.55125 0.04528 0.06732 0.0
N25 N 0.529 0.07276 0.06324 0.0
C26 C 0.54663 0.01488 0.04528 0.0
C27 C 0.49468 0.04048 0.017 0.0
C28 C 0.50068 0.07078 0.03922 0.0
C29 C 0.51841 0.01224 0.019 0.0
H30 H 0.57416 0.04801 0.08563 0.0
H31 H 0.48393 0.09336 0.03556 0.0
C32 C 0.62093 0.20944 0.10904 0.0
N33 N 0.67216 0.26041 0.11271 0.0
C34 C 0.63889 0.21952 0.07516 0.0
C35 C 0.62928 0.22515 0.14486 0.0
C36 C 0.66461 0.24538 0.07758 0.0
C37 C 0.65522 0.25087 0.1461 0.0
C38 C 0.58601 0.1092 0.01469 0.0
C39 C 0.61093 0.08334 0.00695 0.0
C40 C 0.55888 0.11502 0.98801 0.0
C41 C 0.60801 0.06338 0.9728 0.0
C42 C 0.55681 0.09443 0.95425 0.0
N43 N 0.5812 0.06924 0.94742 0.0
C44 C 0.65303 0.08048 0.10734 0.0
C45 C 0.6796 0.13539 0.09491 0.0
C46 C 0.68332 0.06293 0.09569 0.0
N47 N 0.65128 0.11593 0.10493 0.0
C48 C 0.71045 0.11899 0.08329 0.0
C49 C 0.7119 0.08226 0.08165 0.0
H50 H 0.62987 0.06569 0.1148 0.0
H51 H 0.6775 0.16339 0.09264 0.0
C52 C 0.55317 0.23906 0.03444 0.0
N53 N 0.56655 0.20807 0.02219 0.0
C54 C 0.56049 0.26953 0.01375 0.0
C55 C 0.59283 0.23518 0.9664 0.0
C56 C 0.58495 0.20522 0.98818 0.0
C57 C 0.58188 0.2679 0.98035 0.0
H58 H 0.53915 0.2404 0.06195 0.0
H59 H 0.59612 0.18035 0.9798 0.0
O60 O 0.56931 0.11273 0.1366 0.0
O61 O 0.52003 0.1603 0.08424 0.0
O62 O 0.5948 0.18495 0.10708 0.0
O63 O 0.58803 0.12858 0.04834 0.0
H64 H 0.54868 0.06559 0.18802 0.0
H65 H 0.61931 0.15159 0.16897 0.0
H66 H 0.5719 0.05988 0.25574 0.0
H67 H 0.64107 0.1446 0.23689 0.0
H68 H 0.4041 0.18431 0.0948 0.0
H69 H 0.50321 0.10957 0.13447 0.0
H70 H 0.46313 0.19622 0.06742 0.0
H71 H 0.44372 0.09934 0.16064 0.0
H72 H 0.51598 0.19006 0.27026 0.0
H73 H 0.54379 0.27683 0.19466 0.0
H74 H 0.56602 0.99437 0.04763 0.0
H75 H 0.47211 0.03955 0.99788 0.0
H76 H 0.63358 0.20703 0.04741 0.0
H77 H 0.6159 0.21758 0.1715 0.0
H78 H 0.67868 0.25337 0.05156 0.0
H79 H 0.66185 0.26328 0.17362 0.0
H80 H 0.63225 0.07865 0.0271 0.0
H81 H 0.53936 0.13492 0.99365 0.0
H82 H 0.62705 0.0432 0.9665 0.0
H83 H 0.53576 0.09841 0.93353 0.0
H84 H 0.68349 0.03461 0.09507 0.0
H85 H 0.73169 0.13495 0.07226 0.0
H86 H 0.55158 0.29442 0.02521 0.0
H87 H 0.60974 0.23314 0.94102 0.0
Li88 Li 0.33617 0.55353 0.1305 0.0
Li89 Li 0.38366 0.54832 0.08287 0.0
Li90 Li 0.3649 0.6056 0.10176 0.0
Li91 Li 0.32659 0.56644 0.0605 0.0
C92 C 0.39023 0.58229 0.17375 0.0
N93 N 0.39733 0.60722 0.24937 0.0
C94 C 0.41627 0.5689 0.19828 0.0
C95 C 0.36788 0.60843 0.18764 0.0
C96 C 0.41943 0.58184 0.23642 0.0
C97 C 0.37186 0.62067 0.22596 0.0
C98 C 0.34551 0.48754 0.09874 0.0
C99 C 0.33098 0.42625 0.10277 0.0
N100 N 0.35777 0.42141 0.12845 0.0
C101 C 0.3729 0.48197 0.12519 0.0
C102 C 0.32437 0.45949 0.08744 0.0
C103 C 0.37867 0.44834 0.13986 0.0
C104 C 0.27332 0.54221 0.16902 0.0
N105 N 0.30831 0.53854 0.17485 0.0
C106 C 0.29819 0.52364 0.24219 0.0
C107 C 0.32103 0.5286 0.21038 0.0
C108 C 0.26188 0.52965 0.23777 0.0
C109 C 0.24973 0.53836 0.20004 0.0
H110 H 0.26378 0.55004 0.14049 0.0
H111 H 0.34892 0.52553 0.21442 0.0
C112 C 0.45411 0.55122 0.06746 0.0
N113 N 0.42658 0.52908 0.06319 0.0
C114 C 0.48456 0.54656 0.04551 0.0
C115 C 0.45887 0.49482 0.01689 0.0
C116 C 0.42852 0.50084 0.03904 0.0
C117 C 0.48718 0.51843 0.01911 0.0
H118 H 0.45142 0.57406 0.08588 0.0
H119 H 0.40589 0.48419 0.03523 0.0
C120 C 0.28997 0.62114 0.10908 0.0
N121 N 0.23913 0.6725 0.1128 0.0
C122 C 0.28003 0.63923 0.07524 0.0
C123 C 0.27419 0.62941 0.14489 0.0
C124 C 0.25424 0.66502 0.07769 0.0
C125 C 0.24854 0.65542 0.14615 0.0
C126 C 0.39017 0.58614 0.01469 0.0
C127 C 0.41619 0.61089 0.00697 0.0
C128 C 0.38414 0.55909 0.98798 0.0
C129 C 0.4361 0.60788 0.97279 0.0
C130 C 0.40467 0.55693 0.95418 0.0
N131 N 0.43002 0.58115 0.94737 0.0
C132 C 0.41895 0.653 0.10741 0.0
C133 C 0.36405 0.67977 0.09546 0.0
C134 C 0.43652 0.68327 0.09581 0.0
N135 N 0.38348 0.65135 0.10519 0.0
C136 C 0.38049 0.71062 0.0839 0.0
C137 C 0.41721 0.71196 0.08201 0.0
H138 H 0.4337 0.62976 0.11467 0.0
H139 H 0.33603 0.67777 0.09337 0.0
C140 C 0.26045 0.55317 0.03409 0.0
N141 N 0.29135 0.5669 0.02207 0.0
C142 C 0.22996 0.56044 0.01341 0.0
C143 C 0.26414 0.59349 0.96653 0.0
C144 C 0.29412 0.58561 0.98826 0.0
C145 C 0.23147 0.58218 0.98028 0.0
H146 H 0.25916 0.53889 0.06143 0.0
H147 H 0.31893 0.59702 0.98006 0.0
O148 O 0.38658 0.56931 0.1366 0.0
O149 O 0.339 0.52021 0.08407 0.0
O150 O 0.3144 0.59495 0.10709 0.0
O151 O 0.37085 0.58824 0.04838 0.0
H152 H 0.43373 0.54859 0.18796 0.0
H153 H 0.34771 0.61923 0.16912 0.0
H154 H 0.43943 0.57166 0.25575 0.0
H155 H 0.35469 0.64085 0.2371 0.0
H156 H 0.3148 0.4043 0.09429 0.0
H157 H 0.38966 0.5032 0.1343 0.0
H158 H 0.30301 0.4634 0.06706 0.0
H159 H 0.39978 0.44365 0.16032 0.0
H160 H 0.30917 0.5159 0.27009 0.0
H161 H 0.22243 0.54391 0.19454 0.0
H162 H 0.50514 0.56587 0.04803 0.0
H163 H 0.45976 0.47232 0.99767 0.0
H164 H 0.29259 0.63399 0.04752 0.0
H165 H 0.28166 0.61594 0.17149 0.0
H166 H 0.24635 0.67921 0.05171 0.0
H167 H 0.23608 0.662 0.17366 0.0
H168 H 0.42105 0.63214 0.02716 0.0
H169 H 0.36411 0.53969 0.99361 0.0
H170 H 0.4564 0.62678 0.9665 0.0
H171 H 0.40052 0.53594 0.93343 0.0
H172 H 0.46485 0.68336 0.095 0.0
H173 H 0.36454 0.73195 0.07307 0.0
H174 H 0.20512 0.55122 0.02471 0.0
H175 H 0.2661 0.61066 0.94136 0.0
Li176 Li 0.95175 0.38479 0.08434 0.0
Li177 Li 0.94572 0.33684 0.13105 0.0
Li178 Li 0.934 0.32552 0.06272 0.0
Li179 Li 0.89416 0.3648 0.10268 0.0
C180 C 0.00909 0.33494 0.10688 0.0
N181 N 0.06672 0.32289 0.15377 0.0
C182 C 0.0237 0.36226 0.12861 0.0
C183 C 0.02381 0.30152 0.10884 0.0
C184 C 0.05285 0.35563 0.15216 0.0
C185 C 0.05293 0.29595 0.13278 0.0
C186 C 0.91691 0.39077 0.1746 0.0
C187 C 0.87929 0.37145 0.22709 0.0
N188 N 0.8911 0.3982 0.24981 0.0
C189 C 0.92862 0.41809 0.19843 0.0
C190 C 0.89198 0.36727 0.18897 0.0
C191 C 0.91526 0.42141 0.23638 0.0
C192 C 0.94702 0.45479 0.06675 0.0
N193 N 0.97006 0.42784 0.06405 0.0
C194 C 0.00487 0.46025 0.01839 0.0
C195 C 0.99898 0.43014 0.04098 0.0
C196 C 0.98045 0.48794 0.01905 0.0
C197 C 0.95153 0.48497 0.04431 0.0
H198 H 0.92371 0.45181 0.08434 0.0
H199 H 0.01639 0.40795 0.03844 0.0
C200 C 0.95661 0.27426 0.17016 0.0
N201 N 0.96077 0.30922 0.17579 0.0
C202 C 0.9608 0.25069 0.20111 0.0
C203 C 0.97661 0.29907 0.24286 0.0
C204 C 0.97138 0.32191 0.21109 0.0
C205 C 0.97024 0.26282 0.23861 0.0
H206 H 0.94837 0.2647 0.1418 0.0
H207 H 0.97482 0.34978 0.21498 0.0
C208 C 0.91357 0.38919 0.01567 0.0
N209 N 0.91726 0.42883 0.94807 0.0
C210 C 0.88747 0.41368 0.00724 0.0
C211 C 0.94134 0.38458 0.98952 0.0
C212 C 0.88984 0.4335 0.97294 0.0
C213 C 0.94281 0.40498 0.95558 0.0
C214 C 0.87821 0.29007 0.10751 0.0
C215 C 0.86077 0.28304 0.07235 0.0
C216 C 0.86909 0.27157 0.14137 0.0
C217 C 0.83485 0.25729 0.07152 0.0
C218 C 0.84295 0.2461 0.13937 0.0
N219 N 0.82657 0.23948 0.10476 0.0
C220 C 0.94494 0.25837 0.03828 0.0
C221 C 0.91787 0.29317 0.98927 0.0
C222 C 0.93733 0.22805 0.01747 0.0
N223 N 0.93407 0.28986 0.02461 0.0
C224 C 0.90974 0.26336 0.96735 0.0
C225 C 0.91813 0.23031 0.9825 0.0
H226 H 0.95699 0.25661 0.06688 0.0
H227 H 0.90851 0.31844 0.97973 0.0
C228 C 0.8469 0.41909 0.10733 0.0
N229 N 0.84835 0.38359 0.10568 0.0
C230 C 0.8167 0.43669 0.09554 0.0
C231 C 0.78894 0.38069 0.08483 0.0
C232 C 0.81971 0.36422 0.09664 0.0
C233 C 0.78785 0.41738 0.08218 0.0
H234 H 0.8702 0.4338 0.11437 0.0
H235 H 0.82137 0.33615 0.09543 0.0
O236 O 0.97985 0.34075 0.0848 0.0
O237 O 0.93019 0.38709 0.13759 0.0
O238 O 0.91216 0.3701 0.04957 0.0
O239 O 0.90463 0.31425 0.10872 0.0
H240 H 0.0124 0.38822 0.12757 0.0
H241 H 0.01269 0.28008 0.09233 0.0
H242 H 0.06437 0.37648 0.16928 0.0
H243 H 0.06452 0.2702 0.13476 0.0
H244 H 0.86005 0.35342 0.23861 0.0
H245 H 0.94793 0.43647 0.18772 0.0
H246 H 0.88248 0.34605 0.17103 0.0
H247 H 0.92413 0.44241 0.25516 0.0
H248 H 0.02796 0.46147 1.00008 0.0
H249 H 0.93162 0.50505 0.04561 0.0
H250 H 0.95494 0.22343 0.19577 0.0
H251 H 0.98484 0.31 0.27062 0.0
H252 H 0.86565 0.4174 0.02695 0.0
H253 H 0.96177 0.36575 0.99569 0.0
H254 H 0.86988 0.45262 0.96611 0.0
H255 H 0.96433 0.40193 0.93526 0.0
H256 H 0.86663 0.2978 0.04618 0.0
H257 H 0.88203 0.27685 0.16896 0.0
H258 H 0.8212 0.2516 0.04448 0.0
H259 H 0.83572 0.23155 0.16534 0.0
H260 H 0.94426 0.2029 0.02991 0.0
H261 H 0.89453 0.26592 0.94071 0.0
H262 H 0.81678 0.465 0.0943 0.0
H263 H 0.76745 0.3647 0.07448 0.0
Li264 Li 0.11575 0.95157 0.08298 0.0
Li265 Li 0.16324 0.94627 0.13054 0.0
Li266 Li 0.17273 0.93335 0.06055 0.0
Li267 Li 0.13435 0.89427 0.1018 0.0
C268 C 0.154 0.01227 0.09884 0.0
N269 N 0.14187 0.0784 0.1286 0.0
C270 C 0.12659 0.01789 0.12526 0.0
C271 C 0.17522 0.04028 0.08759 0.0
C272 C 0.12089 0.05152 0.13996 0.0
C273 C 0.16867 0.07352 0.10296 0.0
C274 C 0.10921 0.91755 0.17385 0.0
C275 C 0.12774 0.8792 0.226 0.0
N276 N 0.10222 0.89252 0.24943 0.0
C277 C 0.08313 0.93081 0.19839 0.0
C278 C 0.13167 0.89148 0.18769 0.0
C279 C 0.08002 0.91783 0.23652 0.0
C280 C 0.04506 0.94928 0.0685 0.0
N281 N 0.07286 0.97096 0.06342 0.0
C282 C 0.04076 0.00462 0.01643 0.0
C283 C 0.07114 0.99871 0.03855 0.0
C284 C 0.01217 0.98145 0.0195 0.0
C285 C 0.01454 0.95389 0.04668 0.0
H286 H 0.04757 0.9268 0.0875 0.0
H287 H 0.09396 0.01496 0.03412 0.0
C288 C 0.22613 0.95743 0.169 0.0
N289 N 0.19115 0.96119 0.17486 0.0
C290 C 0.24975 0.96127 0.2 0.0
C291 C 0.20135 0.97613 0.24217 0.0
C292 C 0.17848 0.9712 0.21039 0.0
C293 C 0.23764 0.97003 0.23773 0.0
H294 H 0.23564 0.94956 0.14047 0.0
H295 H 0.1506 0.97433 0.21445 0.0
C296 C 0.10895 0.91396 0.01483 0.0
N297 N 0.06885 0.91939 0.94773 0.0
C298 C 0.08246 0.88964 0.00739 0.0
C299 C 0.11532 0.9408 0.98795 0.0
C300 C 0.06244 0.89287 0.97333 0.0
C301 C 0.09466 0.94319 0.95427 0.0
C302 C 0.20925 0.87852 0.10868 0.0
C303 C 0.21868 0.8604 0.07468 0.0
C304 C 0.22547 0.87019 0.14423 0.0
C305 C 0.24443 0.83454 0.0767 0.0
C306 C 0.25106 0.84411 0.14506 0.0
N307 N 0.25998 0.82701 0.11155 0.0
C308 C 0.23899 0.94632 0.03432 0.0
C309 C 0.20518 0.91438 0.98818 0.0
C310 C 0.26946 0.93902 0.01362 0.0
N311 N 0.20802 0.93285 0.02214 0.0
C312 C 0.23514 0.90651 0.9664 0.0
C313 C 0.26785 0.91756 0.98027 0.0
H314 H 0.24033 0.96041 0.06179 0.0
H315 H 0.18032 0.90315 0.97986 0.0
C316 C 0.08017 0.84705 0.1073 0.0
N317 N 0.11565 0.84856 0.10532 0.0
C318 C 0.06255 0.8168 0.09571 0.0
C319 C 0.11855 0.78917 0.08439 0.0
C320 C 0.13503 0.82 0.09595 0.0
C321 C 0.08183 0.78799 0.08218 0.0
H322 H 0.06546 0.87038 0.11431 0.0
H323 H 0.16308 0.82186 0.09413 0.0
O324 O 0.16045 0.9796 0.08413 0.0
O325 O 0.11281 0.93059 0.13671 0.0
O326 O 0.12843 0.91163 0.0484 0.0
O327 O 0.18488 0.90479 0.10712 0.0
H328 H 0.10977 0.99669 0.13432 0.0
H329 H 0.1966 0.03633 0.06723 0.0
H330 H 0.09976 0.05624 0.16039 0.0
H331 H 0.18492 0.09544 0.09451 0.0
H332 H 0.14499 0.85907 0.23711 0.0
H333 H 0.06559 0.95107 0.18811 0.0
H334 H 0.1519 0.88078 0.16916 0.0
H335 H 0.05999 0.92791 0.25587 0.0
H336 H 0.04005 0.02667 0.99653 0.0
H337 H 0.99368 0.93496 0.04989 0.0
H338 H 0.27703 0.95564 0.19448 0.0
H339 H 0.1904 0.98391 0.27008 0.0
H340 H 0.07733 0.86856 0.02771 0.0
H341 H 0.13569 0.95987 0.99336 0.0
H342 H 0.04177 0.87431 0.96726 0.0
H343 H 0.09907 0.96402 0.93339 0.0
H344 H 0.20576 0.86567 0.04718 0.0
H345 H 0.21837 0.88367 0.17096 0.0
H346 H 0.25193 0.82034 0.05058 0.0
H347 H 0.26385 0.83747 0.17235 0.0
H348 H 0.29435 0.948 0.02503 0.0
H349 H 0.23311 0.88954 0.94107 0.0
H350 H 0.03423 0.81683 0.09468 0.0
H351 H 0.13448 0.76773 0.07381 0.0
Li352 Li 0.60562 0.36486 0.40862 0.0
Li353 Li 0.56638 0.32658 0.44982 0.0
Li354 Li 0.55354 0.33619 0.37983 0.0
Li355 Li 0.54834 0.38366 0.42747 0.0
C356 C 0.62113 0.28995 0.40152 0.0
N357 N 0.67249 0.23907 0.39829 0.0
C358 C 0.63915 0.2802 0.43547 0.0
C359 C 0.62948 0.27396 0.36584 0.0
C360 C 0.66494 0.25438 0.43327 0.0
C361 C 0.65548 0.24829 0.36483 0.0
C362 C 0.58622 0.39015 0.49565 0.0
C363 C 0.55704 0.40489 0.55612 0.0
N364 N 0.58142 0.43009 0.56293 0.0
C365 C 0.61113 0.41602 0.50338 0.0
C366 C 0.5591 0.38432 0.52234 0.0
C367 C 0.60821 0.43598 0.53753 0.0
C368 C 0.65302 0.41891 0.4029 0.0
N369 N 0.65138 0.38344 0.40521 0.0
C370 C 0.71064 0.38051 0.42655 0.0
C371 C 0.6798 0.36404 0.415 0.0
C372 C 0.71196 0.41724 0.42835 0.0
C373 C 0.68328 0.43651 0.41449 0.0
H374 H 0.62979 0.43364 0.39559 0.0
H375 H 0.67781 0.33603 0.41714 0.0
C376 C 0.5533 0.26034 0.47601 0.0
N377 N 0.56676 0.2913 0.48822 0.0
C378 C 0.56058 0.22986 0.4967 0.0
C379 C 0.59303 0.26417 0.54399 0.0
C380 C 0.58518 0.29413 0.52222 0.0
C381 C 0.58201 0.23146 0.53007 0.0
H382 H 0.53925 0.25901 0.44851 0.0
H383 H 0.5964 0.31899 0.53057 0.0
C384 C 0.5824 0.39022 0.33662 0.0
N385 N 0.60743 0.39729 0.26104 0.0
C386 C 0.56915 0.41633 0.31212 0.0
C387 C 0.60846 0.36777 0.32274 0.0
C388 C 0.58213 0.41949 0.27399 0.0
C389 C 0.62075 0.37174 0.28443 0.0
C390 C 0.48753 0.3456 0.41152 0.0
C391 C 0.48201 0.37302 0.38508 0.0
C392 C 0.45944 0.32449 0.42279 0.0
C393 C 0.4484 0.37884 0.37039 0.0
C394 C 0.42622 0.33116 0.40743 0.0
N395 N 0.42144 0.35796 0.38176 0.0
C396 C 0.54225 0.27337 0.34128 0.0
C397 C 0.5286 0.32108 0.29994 0.0
C398 C 0.53837 0.24978 0.31026 0.0
N399 N 0.53856 0.30836 0.33546 0.0
C400 C 0.52362 0.29824 0.26813 0.0
C401 C 0.52964 0.26194 0.27254 0.0
H402 H 0.55008 0.26383 0.36981 0.0
H403 H 0.52553 0.34897 0.29591 0.0
C404 C 0.55137 0.45407 0.44307 0.0
N405 N 0.52914 0.42659 0.44718 0.0
C406 C 0.54674 0.48448 0.46509 0.0
C407 C 0.49483 0.45887 0.49343 0.0
C408 C 0.50083 0.42856 0.47122 0.0
C409 C 0.51853 0.48712 0.49139 0.0
H410 H 0.57427 0.45135 0.42473 0.0
H411 H 0.4841 0.40597 0.47491 0.0
O412 O 0.59493 0.31437 0.40325 0.0
O413 O 0.58823 0.37079 0.46199 0.0
O414 O 0.56937 0.38658 0.37375 0.0
O415 O 0.52018 0.33904 0.42623 0.0
H416 H 0.63385 0.29292 0.46308 0.0
H417 H 0.61606 0.28128 0.33915 0.0
H418 H 0.67906 0.24664 0.45935 0.0
H419 H 0.66212 0.23568 0.33743 0.0
H420 H 0.53601 0.4009 0.57685 0.0
H421 H 0.63243 0.42073 0.48321 0.0
H422 H 0.53959 0.36441 0.51672 0.0
H423 H 0.62724 0.45616 0.54382 0.0
H424 H 0.73197 0.36459 0.43743 0.0
H425 H 0.68336 0.46484 0.41522 0.0
H426 H 0.55163 0.20498 0.48526 0.0
H427 H 0.60998 0.26618 0.56934 0.0
H428 H 0.54889 0.43387 0.32243 0.0
H429 H 0.61916 0.34752 0.34124 0.0
H430 H 0.57205 0.43954 0.25467 0.0
H431 H 0.64087 0.35449 0.2733 0.0
H432 H 0.50328 0.38975 0.37601 0.0
H433 H 0.46332 0.30312 0.44316 0.0
H434 H 0.44376 0.39997 0.34994 0.0
H435 H 0.40425 0.315 0.41589 0.0
H436 H 0.54394 0.22249 0.31576 0.0
H437 H 0.51587 0.30923 0.24024 0.0
H438 H 0.56612 0.505 0.4627 0.0
H439 H 0.47226 0.45979 0.51256 0.0
Li440 Li 0.13451 0.60572 0.40859 0.0
Li441 Li 0.17277 0.56641 0.44972 0.0
Li442 Li 0.16312 0.55362 0.37974 0.0
Li443 Li 0.11566 0.54845 0.4274 0.0
C444 C 0.20945 0.62115 0.40159 0.0
N445 N 0.26038 0.67246 0.39869 0.0
C446 C 0.21905 0.63915 0.43561 0.0
C447 C 0.22561 0.62949 0.36602 0.0
C448 C 0.2449 0.66492 0.43358 0.0
C449 C 0.2513 0.65547 0.36516 0.0
C450 C 0.10925 0.58626 0.49563 0.0
C451 C 0.09455 0.557 0.55605 0.0
N452 N 0.06937 0.58139 0.56295 0.0
C453 C 0.08341 0.61118 0.50344 0.0
C454 C 0.11509 0.5591 0.52226 0.0
C455 C 0.06349 0.60823 0.53761 0.0
C456 C 0.08051 0.65317 0.40305 0.0
N457 N 0.11598 0.65151 0.4052 0.0
C458 C 0.11903 0.71079 0.42644 0.0
C459 C 0.13543 0.67993 0.41485 0.0
C460 C 0.0823 0.71214 0.42841 0.0
C461 C 0.06297 0.68346 0.41467 0.0
H462 H 0.06574 0.62994 0.39583 0.0
H463 H 0.16346 0.67794 0.41684 0.0
C464 C 0.23902 0.55326 0.47587 0.0
N465 N 0.20806 0.56672 0.48811 0.0
C466 C 0.2695 0.56048 0.49659 0.0
C467 C 0.23522 0.59289 0.54393 0.0
C468 C 0.20525 0.5851 0.52214 0.0
C469 C 0.26791 0.58186 0.53 0.0
H470 H 0.24033 0.53924 0.44836 0.0
H471 H 0.1804 0.59632 0.53052 0.0
C472 C 0.10912 0.5826 0.33659 0.0
N473 N 0.10206 0.60773 0.26105 0.0
C474 C 0.08292 0.56948 0.31211 0.0
C475 C 0.13167 0.60857 0.3227 0.0
C476 C 0.07977 0.58251 0.274 0.0
C477 C 0.1277 0.62091 0.28441 0.0
C478 C 0.15364 0.48761 0.41138 0.0
C479 C 0.12622 0.48214 0.38494 0.0
C480 C 0.17472 0.45948 0.42264 0.0
C481 C 0.12036 0.44854 0.37023 0.0
C482 C 0.16801 0.42628 0.40726 0.0
N483 N 0.1412 0.42154 0.38159 0.0
C484 C 0.22591 0.54225 0.34116 0.0
C485 C 0.17817 0.52871 0.29982 0.0
C486 C 0.24949 0.53837 0.31013 0.0
N487 N 0.19092 0.53863 0.33534 0.0
C488 C 0.201 0.52372 0.268 0.0
C489 C 0.23731 0.52968 0.2724 0.0
H490 H 0.23547 0.55006 0.36969 0.0
H491 H 0.15028 0.52569 0.29578 0.0
C492 C 0.04525 0.55155 0.44303 0.0
N493 N 0.07271 0.52929 0.44711 0.0
C494 C 0.01485 0.54696 0.46507 0.0
C495 C 0.04041 0.495 0.49335 0.0
C496 C 0.07072 0.50097 0.47113 0.0
C497 C 0.01219 0.51874 0.49136 0.0
H498 H 0.04799 0.57445 0.4247 0.0
H499 H 0.09329 0.48421 0.47479 0.0
O500 O 0.18499 0.59497 0.40318 0.0
O501 O 0.12858 0.58831 0.46194 0.0
O502 O 0.11274 0.56952 0.3737 0.0
O503 O 0.16025 0.52024 0.42611 0.0
H504 H 0.20619 0.63387 0.46315 0.0
H505 H 0.21839 0.6161 0.33928 0.0
H506 H 0.25253 0.67903 0.4597 0.0
H507 H 0.26404 0.66211 0.33784 0.0
H508 H 0.09855 0.53593 0.57674 0.0
H509 H 0.0787 0.63251 0.48332 0.0
H510 H 0.13498 0.53958 0.51657 0.0
H511 H 0.04332 0.62726 0.54396 0.0
H512 H 0.135 0.73213 0.4372 0.0
H513 H 0.03464 0.68355 0.41552 0.0
H514 H 0.29437 0.55151 0.48513 0.0
H515 H 0.23321 0.6098 0.56932 0.0
H516 H 0.06531 0.54929 0.32242 0.0
H517 H 0.15198 0.61916 0.34118 0.0
H518 H 0.05965 0.57254 0.2547 0.0
H519 H 0.14501 0.64097 0.27328 0.0
H520 H 0.10952 0.50342 0.37588 0.0
H521 H 0.1961 0.46332 0.44301 0.0
H522 H 0.09923 0.44393 0.34978 0.0
H523 H 0.18414 0.40428 0.4157 0.0
H524 H 0.27679 0.54388 0.31563 0.0
H525 H 0.19 0.51601 0.24009 0.0
H526 H 0.99435 0.56637 0.46271 0.0
H527 H 0.03947 0.47243 0.51248 0.0
Li528 Li 0.93361 0.17327 0.45024 0.0
Li529 Li 0.89441 0.13512 0.40884 0.0
Li530 Li 0.95164 0.11622 0.42778 0.0
Li531 Li 0.9466 0.16381 0.38026 0.0
C532 C 0.91355 0.10965 0.49585 0.0
N533 N 0.91805 0.06959 0.56306 0.0
C534 C 0.88855 0.08384 0.50344 0.0
C535 C 0.94061 0.11536 0.52264 0.0
C536 C 0.8913 0.06383 0.53756 0.0
C537 C 0.94252 0.09472 0.55638 0.0
C538 C 0.87912 0.21013 0.40151 0.0
C539 C 0.84511 0.25163 0.3642 0.0
N540 N 0.828 0.2612 0.39748 0.0
C541 C 0.861 0.22026 0.43527 0.0
C542 C 0.871 0.22585 0.36563 0.0
C543 C 0.83533 0.24616 0.43266 0.0
C544 C 0.94677 0.2394 0.47671 0.0
N545 N 0.93315 0.20845 0.48873 0.0
C546 C 0.9066 0.23553 0.54436 0.0
C547 C 0.91451 0.20559 0.52257 0.0
C548 C 0.91779 0.26823 0.53062 0.0
C549 C 0.93944 0.26985 0.49743 0.0
H550 H 0.96099 0.24075 0.44932 0.0
H551 H 0.90317 0.18075 0.53076 0.0
C552 C 0.84691 0.08119 0.40274 0.0
N553 N 0.84864 0.11663 0.40533 0.0
C554 C 0.81661 0.06359 0.41422 0.0
C555 C 0.78941 0.11958 0.4268 0.0
C556 C 0.82029 0.13604 0.41536 0.0
C557 C 0.78798 0.08285 0.42827 0.0
H558 H 0.8701 0.06644 0.39528 0.0
H559 H 0.82238 0.16404 0.4178 0.0
C560 C 0.01252 0.15425 0.41207 0.0
N561 N 0.07864 0.14187 0.38239 0.0
C562 C 0.01805 0.12687 0.38558 0.0
C563 C 0.04062 0.17531 0.42343 0.0
C564 C 0.05167 0.12104 0.37093 0.0
C565 C 0.07385 0.16864 0.40811 0.0
C566 C 0.91779 0.10983 0.33683 0.0
C567 C 0.93121 0.08383 0.31228 0.0
C568 C 0.89167 0.13221 0.32295 0.0
C569 C 0.91832 0.08072 0.27411 0.0
C570 C 0.87948 0.12829 0.2846 0.0
N571 N 0.89296 0.10285 0.26117 0.0
C572 C 0.94846 0.04582 0.44333 0.0
C573 C 0.99907 0.07121 0.47147 0.0
C574 C 0.95303 0.01539 0.46533 0.0
N575 N 0.97075 0.07325 0.44745 0.0
C576 C 0.00502 0.04087 0.49364 0.0
C577 C 0.98125 0.01268 0.4916 0.0
H578 H 0.92555 0.0486 0.42502 0.0
H579 H 0.01585 0.09376 0.47515 0.0
C580 C 0.95827 0.22675 0.342 0.0
N581 N 0.96169 0.19174 0.33603 0.0
C582 C 0.96213 0.25039 0.31102 0.0
C583 C 0.97636 0.20193 0.26866 0.0
C584 C 0.97143 0.17905 0.30043 0.0
C585 C 0.97053 0.23825 0.27321 0.0
H586 H 0.95059 0.23626 0.3706 0.0
H587 H 0.97431 0.15115 0.29628 0.0
O588 O 0.91169 0.12907 0.46222 0.0
O589 O 0.90519 0.18559 0.40365 0.0
O590 O 0.97986 0.16083 0.42673 0.0
O591 O 0.93071 0.11343 0.37401 0.0
H592 H 0.86729 0.07923 0.48319 0.0
H593 H 0.9602 0.13522 0.51713 0.0
H594 H 0.8722 0.04369 0.54375 0.0
H595 H 0.96351 0.09862 0.57719 0.0
H596 H 0.83865 0.26404 0.33664 0.0
H597 H 0.86615 0.20778 0.46305 0.0
H598 H 0.88451 0.21826 0.33909 0.0
H599 H 0.82114 0.25419 0.45858 0.0
H600 H 0.88948 0.23351 0.56957 0.0
H601 H 0.94853 0.29473 0.48612 0.0
H602 H 0.81645 0.03526 0.41473 0.0
H603 H 0.76813 0.13549 0.43784 0.0
H604 H 0.99678 0.11018 0.37643 0.0
H605 H 0.03674 0.19665 0.44384 0.0
H606 H 0.05632 0.09995 0.35044 0.0
H607 H 0.09583 0.18475 0.41664 0.0
H608 H 0.95151 0.06635 0.32259 0.0
H609 H 0.88084 0.15235 0.3415 0.0
H610 H 0.92852 0.06076 0.25475 0.0
H611 H 0.85931 0.14547 0.27347 0.0
H612 H 0.9336 0.99492 0.46295 0.0
H613 H 0.0276 0.0399 0.51275 0.0
H614 H 0.95676 0.27772 0.3166 0.0
H615 H 0.98387 0.19098 0.24066 0.0
Li616 Li 0.32688 0.93324 0.44958 0.0
Li617 Li 0.3651 0.89391 0.40843 0.0
Li618 Li 0.38397 0.95117 0.42717 0.0
Li619 Li 0.33648 0.946 0.37958 0.0
C620 C 0.39044 0.91344 0.49542 0.0
N621 N 0.43038 0.91841 0.56268 0.0
C622 C 0.41636 0.88859 0.50319 0.0
C623 C 0.38456 0.94059 0.52206 0.0
C624 C 0.43631 0.89158 0.53733 0.0
C625 C 0.40514 0.94273 0.55582 0.0
C626 C 0.29013 0.8785 0.40149 0.0
C627 C 0.24824 0.84422 0.36507 0.0
N628 N 0.23916 0.82724 0.3986 0.0
C629 C 0.28053 0.8605 0.4355 0.0
C630 C 0.27396 0.87018 0.36592 0.0
C631 C 0.25466 0.83476 0.43348 0.0
C632 C 0.26067 0.94646 0.47582 0.0
N633 N 0.29162 0.93295 0.48801 0.0
C634 C 0.26447 0.90675 0.54382 0.0
C635 C 0.29443 0.91453 0.52201 0.0
C636 C 0.23177 0.91783 0.52992 0.0
C637 C 0.23019 0.93925 0.49655 0.0
H638 H 0.25936 0.9605 0.44832 0.0
H639 H 0.31927 0.90327 0.53035 0.0
C640 C 0.41909 0.84644 0.40287 0.0
N641 N 0.38362 0.84811 0.40505 0.0
C642 C 0.43663 0.81615 0.41451 0.0
C643 C 0.38056 0.78884 0.42635 0.0
C644 C 0.36416 0.8197 0.41474 0.0
C645 C 0.41729 0.78749 0.4283 0.0
H646 H 0.43386 0.86966 0.39562 0.0
H647 H 0.33614 0.82171 0.41676 0.0
C648 C 0.34598 0.01202 0.41119 0.0
N649 N 0.35841 0.07808 0.38137 0.0
C650 C 0.37336 0.01748 0.38469 0.0
C651 C 0.32494 0.04016 0.42249 0.0
C652 C 0.37922 0.05107 0.36996 0.0
C653 C 0.33164 0.07336 0.40709 0.0
C654 C 0.39044 0.91698 0.33638 0.0
C655 C 0.41661 0.93009 0.31185 0.0
C656 C 0.36788 0.891 0.32254 0.0
C657 C 0.41972 0.91704 0.27375 0.0
C658 C 0.37181 0.87864 0.28426 0.0
N659 N 0.39743 0.89181 0.26085 0.0
C660 C 0.45441 0.94814 0.4426 0.0
C661 C 0.42891 0.99865 0.47086 0.0
C662 C 0.48485 0.95276 0.46457 0.0
N663 N 0.42692 0.97036 0.44679 0.0
C664 C 0.45926 0.00464 0.49302 0.0
C665 C 0.48751 0.98094 0.4909 0.0
H666 H 0.45168 0.92527 0.42424 0.0
H667 H 0.40633 0.01537 0.47461 0.0
C668 C 0.27366 0.95741 0.34107 0.0
N669 N 0.30866 0.96099 0.33521 0.0
C670 C 0.25007 0.96132 0.31007 0.0
C671 C 0.29855 0.9759 0.26788 0.0
C672 C 0.32139 0.97089 0.29967 0.0
C673 C 0.26223 0.96998 0.27233 0.0
H674 H 0.26412 0.94963 0.36962 0.0
H675 H 0.34929 0.97388 0.29561 0.0
O676 O 0.37108 0.91134 0.46177 0.0
O677 O 0.31462 0.90466 0.40306 0.0
O678 O 0.33939 0.97939 0.42593 0.0
O679 O 0.38685 0.93008 0.37348 0.0
H680 H 0.42109 0.86726 0.48306 0.0
H681 H 0.36463 0.96006 0.5164 0.0
H682 H 0.45652 0.8726 0.54365 0.0
H683 H 0.40111 0.9638 0.57651 0.0
H684 H 0.23549 0.8376 0.33775 0.0
H685 H 0.2934 0.86577 0.46303 0.0
H686 H 0.28118 0.88357 0.33917 0.0
H687 H 0.24703 0.82065 0.4596 0.0
H688 H 0.26647 0.88981 0.56917 0.0
H689 H 0.20533 0.94827 0.48513 0.0
H690 H 0.46495 0.81605 0.41534 0.0
H691 H 0.36459 0.76752 0.43716 0.0
H692 H 0.39004 0.99618 0.37559 0.0
H693 H 0.30359 0.03633 0.44291 0.0
H694 H 0.40032 0.05567 0.34946 0.0
H695 H 0.31554 0.09536 0.41558 0.0
H696 H 0.43423 0.95029 0.32213 0.0
H697 H 0.34759 0.88041 0.34105 0.0
H698 H 0.43983 0.927 0.25442 0.0
H699 H 0.35449 0.85857 0.27316 0.0
H700 H 0.50538 0.93339 0.46212 0.0
H701 H 0.46019 0.02718 0.51219 0.0
H702 H 0.22276 0.95585 0.31559 0.0
H703 H 0.30953 0.98359 0.23996 0.0
Li704 Li 0.47186 0.87857 0.93714 0.0
Li705 Li 0.41054 0.8605 0.93096 0.0
Li706 Li 0.4533 0.82223 0.96126 0.0
Li707 Li 0.45536 0.82797 0.88976 0.0
C708 C 0.43647 0.89533 1.00409 0.0
N709 N 0.43474 0.95125 0.05546 0.0
C710 C 0.42016 0.92659 0.99325 0.0
C711 C 0.45176 0.89248 0.04121 0.0
C712 C 0.41962 0.95458 0.01957 0.0
C713 C 0.4506 0.92104 0.06674 0.0
C714 C 0.42055 0.89808 0.86338 0.0
C715 C 0.38774 0.90165 0.80305 0.0
N716 N 0.37796 0.93482 0.81237 0.0
C717 C 0.41019 0.93227 0.8723 0.0
C718 C 0.40928 0.88268 0.82842 0.0
C719 C 0.38866 0.95038 0.84616 0.0
C720 C 0.49109 0.95133 0.93591 0.0
N721 N 0.49821 0.9196 0.95209 0.0
C722 C 0.52355 0.9471 0.00834 0.0
C723 C 0.5157 0.91713 0.98666 0.0
C724 C 0.51386 0.98027 0.99412 0.0
C725 C 0.49881 0.98215 0.95647 0.0
H726 H 0.47737 0.95278 0.90832 0.0
H727 H 0.5202 0.89177 0.99954 0.0
C728 C 0.35456 0.8721 0.977 0.0
N729 N 0.36358 0.87558 0.9387 0.0
C730 C 0.32319 0.88551 0.99073 0.0
C731 C 0.3089 0.9034 0.92465 0.0
C732 C 0.34108 0.8898 0.91214 0.0
C733 C 0.30037 0.90221 0.96466 0.0
H734 H 0.37224 0.85952 0.99727 0.0
H735 H 0.34814 0.89114 0.88156 0.0
C736 C 0.51882 0.80692 0.94109 0.0
N737 N 0.56556 0.75692 0.96729 0.0
C738 C 0.52617 0.77754 0.91809 0.0
C739 C 0.53527 0.81083 0.97743 0.0
C740 C 0.5499 0.75258 0.93183 0.0
C741 C 0.55878 0.78526 0.99017 0.0
C742 C 0.4057 0.77775 0.93441 0.0
C743 C 0.42376 0.74769 0.92272 0.0
C744 C 0.37721 0.77471 0.95988 0.0
C745 C 0.41315 0.71509 0.93698 0.0
C746 C 0.36751 0.74166 0.97361 0.0
N747 N 0.38553 0.71279 0.96199 0.0
C748 C 0.43176 0.79921 0.03412 0.0
C749 C 0.46826 0.75763 1.00284 0.0
C750 C 0.42193 0.7748 0.06234 0.0
N751 N 0.45374 0.79008 1.00447 0.0
C752 C 0.45904 0.73229 0.03045 0.0
C753 C 0.4344 0.74042 0.05968 0.0
H754 H 0.41942 0.82458 0.0341 0.0
H755 H 0.48434 0.75025 0.97823 0.0
C756 C 0.4902 0.80113 0.81882 0.0
N757 N 0.46044 0.80253 0.84073 0.0
C758 C 0.4916 0.78023 0.7849 0.0
C759 C 0.43177 0.76308 0.79659 0.0
C760 C 0.43149 0.78423 0.82994 0.0
C761 C 0.46204 0.76076 0.77331 0.0
H762 H 0.51296 0.81588 0.82786 0.0
H763 H 0.40803 0.78584 0.84752 0.0
O764 O 0.43798 0.8678 0.97834 0.0
O765 O 0.44212 0.88001 0.88825 0.0
O766 O 0.49605 0.83187 0.92779 0.0
O767 O 0.41632 0.81002 0.92164 0.0
H768 H 0.4082 0.9293 0.96473 0.0
H769 H 0.46492 0.86867 0.04997 0.0
H770 H 0.40726 0.97897 0.01142 0.0
H771 H 0.46253 0.91926 0.09543 0.0
H772 H 0.37883 0.88999 0.77593 0.0
H773 H 0.41828 0.94465 0.89924 0.0
H774 H 0.41712 0.85641 0.82082 0.0
H775 H 0.38035 0.97678 0.85281 0.0
H776 H 0.53482 0.9439 0.03721 0.0
H777 H 0.4919 0.00706 0.94353 0.0
H778 H 0.31689 0.88302 0.02158 0.0
H779 H 0.2914 0.91547 0.90367 0.0
H780 H 0.51355 0.77386 0.89008 0.0
H781 H 0.52961 0.83306 0.99588 0.0
H782 H 0.55575 0.72971 0.91435 0.0
H783 H 0.57155 0.78789 0.01832 0.0
H784 H 0.44618 0.74955 0.90347 0.0
H785 H 0.36296 0.79764 0.96929 0.0
H786 H 0.42707 0.69166 0.92844 0.0
H787 H 0.34571 0.73897 0.99361 0.0
H788 H 0.40286 0.7821 0.08435 0.0
H789 H 0.46864 0.70584 0.0267 0.0
H790 H 0.51543 0.77967 0.76775 0.0
H791 H 0.40846 0.74831 0.78949 0.0
Li792 Li 0.63906 0.41054 0.93113 0.0
Li793 Li 0.62099 0.47185 0.93742 0.0
Li794 Li 0.67153 0.45537 0.88991 0.0
Li795 Li 0.67739 0.45325 0.96139 0.0
C796 C 0.60137 0.42064 0.8636 0.0
N797 N 0.56454 0.37818 0.81252 0.0
C798 C 0.56714 0.41039 0.87246 0.0
C799 C 0.61677 0.40933 0.82865 0.0
C800 C 0.54899 0.38892 0.8463 0.0
C801 C 0.59776 0.38786 0.80325 0.0
C802 C 0.60428 0.4363 1.00427 0.0
C803 C 0.57846 0.45016 0.06695 0.0
N804 N 0.54827 0.43433 0.05553 0.0
C805 C 0.57303 0.42003 0.99328 0.0
C806 C 0.60706 0.45143 0.04147 0.0
C807 C 0.545 0.41937 0.01955 0.0
C808 C 0.62755 0.35449 0.97709 0.0
N809 N 0.62398 0.36358 0.93882 0.0
C810 C 0.59598 0.30899 0.92477 0.0
C811 C 0.60962 0.34116 0.91227 0.0
C812 C 0.59727 0.3004 0.96475 0.0
C813 C 0.6141 0.32313 0.9908 0.0
H814 H 0.64021 0.37212 0.99735 0.0
H815 H 0.60819 0.34827 0.88171 0.0
C816 C 0.54825 0.49123 0.93611 0.0
N817 N 0.57997 0.49818 0.95243 0.0
C818 C 0.51741 0.49896 0.9566 0.0
C819 C 0.55238 0.52336 0.00873 0.0
C820 C 0.58239 0.51551 0.98711 0.0
C821 C 0.51922 0.51385 0.99434 0.0
H822 H 0.54684 0.47764 0.90843 0.0
H823 H 0.60773 0.51989 1.0001 0.0
C824 C 0.72183 0.40569 0.9344 0.0
N825 N 0.78685 0.38555 0.96183 0.0
C826 C 0.75188 0.4237 0.92256 0.0
C827 C 0.72492 0.37726 0.95995 0.0
C828 C 0.78451 0.4131 0.93674 0.0
C829 C 0.758 0.36757 0.97361 0.0
C830 C 0.69262 0.5188 0.94131 0.0
C831 C 0.72198 0.5262 0.91831 0.0
C832 C 0.6887 0.53519 0.97768 0.0
C833 C 0.74692 0.54992 0.93208 0.0
C834 C 0.71426 0.5587 0.99047 0.0
N835 N 0.74259 0.56553 0.96758 0.0
C836 C 0.69827 0.49033 0.819 0.0
C837 C 0.71517 0.4316 0.82995 0.0
C838 C 0.71912 0.49178 0.78504 0.0
N839 N 0.69688 0.46053 0.84084 0.0
C840 C 0.73628 0.43193 0.79657 0.0
C841 C 0.73857 0.46224 0.77335 0.0
H842 H 0.68353 0.51308 0.82811 0.0
H843 H 0.71358 0.4081 0.84748 0.0
C844 C 0.70053 0.43184 0.03428 0.0
N845 N 0.70965 0.45369 1.00451 0.0
C846 C 0.72497 0.42208 0.0625 0.0
C847 C 0.7675 0.45895 0.03032 0.0
C848 C 0.74212 0.46813 1.00274 0.0
C849 C 0.75939 0.43446 0.05971 0.0
H850 H 0.67514 0.41955 0.03438 0.0
H851 H 0.74948 0.48412 0.97805 0.0
O852 O 0.61949 0.44214 0.8885 0.0
O853 O 0.63183 0.43794 0.97857 0.0
O854 O 0.68954 0.4163 0.9217 0.0
O855 O 0.66768 0.49603 0.92799 0.0
H856 H 0.55476 0.41852 0.89939 0.0
H857 H 0.64307 0.41708 0.82108 0.0
H858 H 0.52256 0.38069 0.85292 0.0
H859 H 0.60941 0.37893 0.77613 0.0
H860 H 0.58019 0.46197 0.0957 0.0
H861 H 0.57037 0.40819 0.96469 0.0
H862 H 0.63084 0.46458 0.05035 0.0
H863 H 0.52063 0.40703 0.01129 0.0
H864 H 0.5838 0.29156 0.90379 0.0
H865 H 0.61667 0.31677 0.02164 0.0
H866 H 0.49251 0.49219 0.94353 0.0
H867 H 0.55553 0.53451 0.03767 0.0
H868 H 0.74998 0.44608 0.90326 0.0
H869 H 0.702 0.36305 0.96948 0.0
H870 H 0.80793 0.42697 0.92808 0.0
H871 H 0.76072 0.34583 0.99368 0.0
H872 H 0.72565 0.51363 0.89027 0.0
H873 H 0.66648 0.52949 0.99613 0.0
H874 H 0.76979 0.55582 0.91461 0.0
H875 H 0.71163 0.57142 0.01864 0.0
H876 H 0.71966 0.51564 0.76795 0.0
H877 H 0.75104 0.40863 0.7894 0.0
H878 H 0.71764 0.40315 0.08466 0.0
H879 H 0.79396 0.46848 0.02645 0.0
Li880 Li 0.04396 0.67196 0.88989 0.0
Li881 Li 0.04584 0.67765 0.96141 0.0
Li882 Li 0.08868 0.63933 0.9312 0.0
Li883 Li 0.02734 0.62138 0.93716 0.0
C884 C 0.09378 0.72197 0.93476 0.0
N885 N 0.11439 0.78671 0.96255 0.0
C886 C 0.07606 0.75221 0.92298 0.0
C887 C 0.12215 0.72472 0.96044 0.0
C888 C 0.08689 0.78469 0.93735 0.0
C889 C 0.13208 0.75767 0.97428 0.0
C890 C 0.98046 0.69303 0.94127 0.0
C891 C 0.94103 0.71483 0.99081 0.0
N892 N 0.93387 0.74301 0.96784 0.0
C893 C 0.97275 0.72226 0.9182 0.0
C894 C 0.96448 0.68927 0.97789 0.0
C895 C 0.94911 0.74721 0.93212 0.0
C896 C 0.00927 0.69885 0.81894 0.0
N897 N 0.03902 0.69738 0.84086 0.0
C898 C 0.06782 0.73669 0.79668 0.0
C899 C 0.06803 0.71556 0.83004 0.0
C900 C 0.03755 0.7391 0.7734 0.0
C901 C 0.00793 0.71972 0.78501 0.0
H902 H 0.98646 0.68417 0.82799 0.0
H903 H 0.09148 0.7139 0.84764 0.0
C904 C 0.06716 0.70069 0.03441 0.0
N905 N 0.04539 0.70986 1.00458 0.0
C906 C 0.07696 0.72512 0.06262 0.0
C907 C 0.04025 0.76773 0.03034 0.0
C908 C 0.03107 0.74238 1.00273 0.0
C909 C 0.06467 0.75955 0.05978 0.0
H910 H 0.07937 0.67525 0.03455 0.0
H911 H 0.01519 0.74979 0.97797 0.0
C912 C 0.07893 0.60184 0.86371 0.0
N913 N 0.12185 0.56499 0.81314 0.0
C914 C 0.09006 0.56805 0.87334 0.0
C915 C 0.0896 0.61679 0.82827 0.0
C916 C 0.11175 0.54987 0.84741 0.0
C917 C 0.11132 0.59777 0.80313 0.0
C918 C 0.06159 0.6049 1.00471 0.0
C919 C 0.07811 0.57342 0.99508 0.0
C920 C 0.04513 0.60834 0.04112 0.0
C921 C 0.07765 0.5458 0.0219 0.0
C922 C 0.04533 0.58014 0.06719 0.0
N923 N 0.0614 0.5497 0.05709 0.0
C924 C 0.1444 0.62701 0.97748 0.0
C925 C 0.15839 0.6107 0.9123 0.0
C926 C 0.17578 0.61355 0.9911 0.0
N927 N 0.13562 0.62421 0.93903 0.0
C928 C 0.19058 0.59705 0.92472 0.0
C929 C 0.19887 0.59751 0.96482 0.0
H930 H 0.12656 0.63916 0.99791 0.0
H931 H 0.15154 0.60999 0.88162 0.0
C932 C 0.00898 0.54852 0.93622 0.0
N933 N 0.00093 0.58028 0.95177 0.0
C934 C 0.00119 0.51777 0.95685 0.0
C935 C 0.97436 0.55286 0.00736 0.0
C936 C 0.98237 0.58278 0.98563 0.0
C937 C 0.98504 0.51974 0.99391 0.0
H938 H 0.02352 0.54704 0.90916 0.0
H939 H 0.97705 0.60816 0.99803 0.0
O940 O 0.08294 0.68981 0.92188 0.0
O941 O 0.00316 0.66808 0.9278 0.0
O942 O 0.05718 0.61993 0.88835 0.0
O943 O 0.06114 0.63209 0.97848 0.0
H944 H 0.05374 0.75056 0.90357 0.0
H945 H 0.13612 0.70164 0.96994 0.0
H946 H 0.07324 0.80826 0.92874 0.0
H947 H 0.15378 0.76014 0.99444 0.0
H948 H 0.92862 0.71232 0.01918 0.0
H949 H 0.98503 0.72583 0.88997 0.0
H950 H 0.9705 0.66721 0.99645 0.0
H951 H 0.94297 0.76997 0.91458 0.0
H952 H 0.09118 0.75138 0.78956 0.0
H953 H 0.98412 0.72034 0.76785 0.0
H954 H 0.09586 0.71777 0.0848 0.0
H955 H 0.03081 0.79422 0.02644 0.0
H956 H 0.08251 0.55608 0.90071 0.0
H957 H 0.08113 0.64273 0.8201 0.0
H958 H 0.12066 0.52379 0.85462 0.0
H959 H 0.11976 0.60907 0.77564 0.0
H960 H 0.09097 0.57025 0.96711 0.0
H961 H 0.03182 0.63233 0.04893 0.0
H962 H 0.09014 0.52124 0.01468 0.0
H963 H 0.03249 0.58238 0.09534 0.0
H964 H 0.18189 0.61554 0.02205 0.0
H965 H 0.20829 0.58553 0.90356 0.0
H966 H 0.0089 0.49286 0.94448 0.0
H967 H 0.96218 0.55612 0.03576 0.0
Li968 Li 0.8604 0.08883 0.93064 0.0
Li969 Li 0.87861 0.02749 0.93705 0.0
Li970 Li 0.82807 0.04402 0.88947 0.0
Li971 Li 0.82213 0.04622 0.96088 0.0
C972 C 0.89814 0.0785 0.86282 0.0
N973 N 0.93463 0.12043 0.81088 0.0
C974 C 0.93308 0.08722 0.87017 0.0
C975 C 0.88186 0.09109 0.82895 0.0
C976 C 0.95105 0.10845 0.84359 0.0
C977 C 0.90071 0.11225 0.80308 0.0
C978 C 0.89586 0.06477 1.00281 0.0
C979 C 0.92339 0.05448 0.06544 0.0
N980 N 0.95314 0.06987 0.052 0.0
C981 C 0.92669 0.0806 0.98972 0.0
C982 C 0.89417 0.05164 0.04104 0.0
C983 C 0.95536 0.08289 0.01498 0.0
C984 C 0.87015 0.14507 0.97649 0.0
N985 N 0.87549 0.13575 0.93855 0.0
C986 C 0.90555 0.18954 0.92617 0.0
C987 C 0.8918 0.15767 0.91292 0.0
C988 C 0.90237 0.19835 0.96597 0.0
C989 C 0.88357 0.17618 0.99093 0.0
H990 H 0.85628 0.12768 0.99601 0.0
H991 H 0.89485 0.15032 0.88259 0.0
C992 C 0.95117 0.00689 0.93575 0.0
N993 N 0.91944 0.00117 0.95261 0.0
C994 C 0.98199 0.99934 0.9564 0.0
C995 C 0.94687 0.9776 0.00987 0.0
C996 C 0.91689 0.98527 0.98813 0.0
C997 C 0.9801 0.98587 0.99479 0.0
H998 H 0.95268 0.01936 0.90743 0.0
H999 H 0.89154 0.98199 1.00154 0.0
C1000 C 0.77735 0.09318 0.93365 0.0
N1001 N 0.71182 0.11226 0.96055 0.0
C1002 C 0.74772 0.07441 0.92196 0.0
C1003 C 0.77357 0.12184 0.95876 0.0
C1004 C 0.71483 0.08448 0.93586 0.0
C1005 C 0.74025 0.13098 0.97216 0.0
C1006 C 0.80698 0.98049 0.94062 0.0
C1007 C 0.77746 0.97353 0.91771 0.0
C1008 C 0.8111 0.96347 0.97659 0.0
C1009 C 0.75253 0.94966 0.93121 0.0
C1010 C 0.78555 0.93984 0.98911 0.0
N1011 N 0.75705 0.93347 0.96634 0.0
C1012 C 0.80147 0.00906 0.81842 0.0
C1013 C 0.78419 0.06764 0.82965 0.0
C1014 C 0.78061 0.0076 0.78448 0.0
N1015 N 0.80269 0.0388 0.84039 0.0
C1016 C 0.76308 0.0673 0.79628 0.0
C1017 C 0.76099 0.03707 0.77292 0.0
H1018 H 0.81634 0.98637 0.82744 0.0
H1019 H 0.78563 0.09109 0.84727 0.0
C1020 C 0.7991 0.06786 0.03361 0.0
N1021 N 0.79001 0.0457 1.00411 0.0
C1022 C 0.77472 0.0777 0.06184 0.0
C1023 C 0.73233 0.04019 0.03037 0.0
C1024 C 0.75766 0.03095 1.00273 0.0
C1025 C 0.74039 0.06505 0.05938 0.0
H1026 H 0.82441 0.08032 0.03343 0.0
H1027 H 0.75031 0.01465 0.97829 0.0
O1028 O 0.88017 0.05724 0.88813 0.0
O1029 O 0.86772 0.06141 0.97814 0.0
O1030 O 0.80991 0.08311 0.92121 0.0
O1031 O 0.83189 0.00341 0.92756 0.0
H1032 H 0.9462 0.07809 0.89624 0.0
H1033 H 0.85499 0.0846 0.82258 0.0
H1034 H 0.97802 0.11549 0.84904 0.0
H1035 H 0.88837 0.12217 0.77679 0.0
H1036 H 0.9225 0.04422 0.09498 0.0
H1037 H 0.92854 0.09082 0.9603 0.0
H1038 H 0.87074 0.03881 0.05156 0.0
H1039 H 0.9794 0.09492 1.00511 0.0
H1040 H 0.91937 0.2065 0.906 0.0
H1041 H 0.87961 0.18268 0.02154 0.0
H1042 H 0.00696 0.00513 0.94289 0.0
H1043 H 0.9437 0.96759 0.03934 0.0
H1044 H 0.75014 0.05187 0.90298 0.0
H1045 H 0.79612 0.13669 0.96812 0.0
H1046 H 0.69174 0.07001 0.92732 0.0
H1047 H 0.737 0.1529 0.99189 0.0
H1048 H 0.77364 0.98655 0.88995 0.0
H1049 H 0.83353 0.96871 0.99489 0.0
H1050 H 0.72953 0.94411 0.91381 0.0
H1051 H 0.78835 0.92662 0.01698 0.0
H1052 H 0.7802 0.98381 0.76727 0.0
H1053 H 0.74817 0.09054 0.78922 0.0
H1054 H 0.78198 0.09692 0.08371 0.0
H1055 H 0.70593 0.03042 0.02678 0.0
Li1056 Li 0.4554 0.67143 0.62055 0.0
Li1057 Li 0.45334 0.67717 0.54906 0.0
Li1058 Li 0.41061 0.63888 0.57935 0.0
Li1059 Li 0.47193 0.62084 0.57317 0.0
C1060 C 0.40573 0.72163 0.57592 0.0
N1061 N 0.38555 0.7866 0.54837 0.0
C1062 C 0.42379 0.7517 0.58762 0.0
C1063 C 0.37724 0.72467 0.55046 0.0
C1064 C 0.41317 0.7843 0.57337 0.0
C1065 C 0.36753 0.75773 0.53674 0.0
C1066 C 0.51887 0.69249 0.56921 0.0
C1067 C 0.55881 0.71413 0.52009 0.0
N1068 N 0.56561 0.74247 0.54297 0.0
C1069 C 0.52624 0.72186 0.5922 0.0
C1070 C 0.5353 0.68857 0.53286 0.0
C1071 C 0.54996 0.74681 0.57845 0.0
C1072 C 0.49023 0.69829 0.69148 0.0
N1073 N 0.46047 0.69686 0.66958 0.0
C1074 C 0.43178 0.73628 0.71375 0.0
C1075 C 0.43151 0.71514 0.6804 0.0
C1076 C 0.46205 0.73863 0.73701 0.0
C1077 C 0.49163 0.71919 0.7254 0.0
H1078 H 0.51301 0.68356 0.68243 0.0
H1079 H 0.40804 0.71351 0.66282 0.0
C1080 C 0.43179 0.70023 0.47621 0.0
N1081 N 0.45377 0.70935 0.50586 0.0
C1082 C 0.42196 0.72464 0.448 0.0
C1083 C 0.45908 0.76713 0.47988 0.0
C1084 C 0.46829 0.74179 0.5075 0.0
C1085 C 0.43444 0.75902 0.45065 0.0
H1086 H 0.41944 0.67486 0.47623 0.0
H1087 H 0.48438 0.74917 0.5321 0.0
C1088 C 0.42062 0.6013 0.64691 0.0
N1089 N 0.37804 0.56451 0.6979 0.0
C1090 C 0.41026 0.56712 0.63797 0.0
C1091 C 0.40935 0.61667 0.68189 0.0
C1092 C 0.38873 0.54898 0.66409 0.0
C1093 C 0.38782 0.59768 0.70725 0.0
C1094 C 0.43659 0.6041 0.50619 0.0
C1095 C 0.42029 0.57281 0.51698 0.0
C1096 C 0.4519 0.607 0.46908 0.0
C1097 C 0.4198 0.54485 0.49062 0.0
C1098 C 0.45078 0.57846 0.44351 0.0
N1099 N 0.43494 0.54822 0.45475 0.0
C1100 C 0.35465 0.62727 0.5333 0.0
C1101 C 0.34115 0.60956 0.59815 0.0
C1102 C 0.32328 0.61387 0.51956 0.0
N1103 N 0.36366 0.62378 0.5716 0.0
C1104 C 0.30897 0.59596 0.58562 0.0
C1105 C 0.30045 0.59717 0.54561 0.0
H1106 H 0.37233 0.63986 0.51304 0.0
H1107 H 0.3482 0.60821 0.62874 0.0
C1108 C 0.49118 0.54808 0.57443 0.0
N1109 N 0.49829 0.57981 0.55823 0.0
C1110 C 0.49891 0.51725 0.5539 0.0
C1111 C 0.52364 0.55227 0.502 0.0
C1112 C 0.51579 0.58226 0.52366 0.0
C1113 C 0.51396 0.51912 0.51624 0.0
H1114 H 0.47746 0.54664 0.60203 0.0
H1115 H 0.52029 0.60761 0.51076 0.0
O1116 O 0.41636 0.68936 0.58869 0.0
O1117 O 0.4961 0.66755 0.58252 0.0
O1118 O 0.44219 0.61938 0.62206 0.0
O1119 O 0.43805 0.6316 0.53197 0.0
H1120 H 0.44621 0.74983 0.60686 0.0
H1121 H 0.36299 0.70174 0.54104 0.0
H1122 H 0.42708 0.80773 0.58191 0.0
H1123 H 0.34573 0.76041 0.51674 0.0
H1124 H 0.57157 0.7115 0.49194 0.0
H1125 H 0.51363 0.72555 0.62023 0.0
H1126 H 0.52963 0.66634 0.51441 0.0
H1127 H 0.55583 0.76969 0.59592 0.0
H1128 H 0.40845 0.75103 0.72086 0.0
H1129 H 0.51545 0.71977 0.74254 0.0
H1130 H 0.40288 0.71735 0.42599 0.0
H1131 H 0.46868 0.79358 0.48363 0.0
H1132 H 0.41835 0.55476 0.61101 0.0
H1133 H 0.41719 0.64293 0.68952 0.0
H1134 H 0.38042 0.52259 0.65742 0.0
H1135 H 0.37892 0.60931 0.73439 0.0
H1136 H 0.40832 0.57007 0.54549 0.0
H1137 H 0.46505 0.63083 0.46036 0.0
H1138 H 0.40746 0.52044 0.49873 0.0
H1139 H 0.46273 0.58028 0.41484 0.0
H1140 H 0.31699 0.61638 0.48871 0.0
H1141 H 0.29147 0.58389 0.6066 0.0
H1142 H 0.49201 0.49235 0.56686 0.0
H1143 H 0.53492 0.55546 0.47313 0.0
Li1144 Li 0.86049 0.41092 0.57947 0.0
Li1145 Li 0.87849 0.47224 0.5732 0.0
Li1146 Li 0.82788 0.45575 0.62057 0.0
Li1147 Li 0.82219 0.45361 0.54906 0.0
C1148 C 0.89803 0.42104 0.64703 0.0
N1149 N 0.93484 0.37853 0.69806 0.0
C1150 C 0.93218 0.4106 0.63803 0.0
C1151 C 0.8827 0.40989 0.68208 0.0
C1152 C 0.95033 0.38911 0.66418 0.0
C1153 C 0.9017 0.3884 0.70746 0.0
C1154 C 0.89526 0.4369 0.50624 0.0
C1155 C 0.92083 0.4512 0.44355 0.0
N1156 N 0.95109 0.43537 0.45472 0.0
C1157 C 0.92658 0.42061 0.51696 0.0
C1158 C 0.89232 0.45226 0.46916 0.0
C1159 C 0.95451 0.42018 0.49056 0.0
C1160 C 0.87228 0.35491 0.53355 0.0
N1161 N 0.87561 0.36397 0.57186 0.0
C1162 C 0.90339 0.30932 0.58612 0.0
C1163 C 0.88972 0.34151 0.59852 0.0
C1164 C 0.90237 0.30075 0.54611 0.0
C1165 C 0.88576 0.32353 0.51994 0.0
H1166 H 0.85976 0.37255 0.5132 0.0
H1167 H 0.89093 0.34859 0.6291 0.0
C1168 C 0.95126 0.49144 0.57443 0.0
N1169 N 0.91953 0.4986 0.55827 0.0
C1170 C 0.98208 0.49914 0.55388 0.0
C1171 C 0.94705 0.52396 0.50204 0.0
C1172 C 0.91707 0.51613 0.52372 0.0
C1173 C 0.98021 0.51422 0.51624 0.0
H1174 H 0.9527 0.47769 0.60201 0.0
H1175 H 0.89171 0.52068 0.51085 0.0
C1176 C 0.77775 0.40597 0.57594 0.0
N1177 N 0.71286 0.38563 0.54833 0.0
C1178 C 0.74764 0.42398 0.58757 0.0
C1179 C 0.7748 0.37743 0.55052 0.0
C1180 C 0.71508 0.41329 0.5733 0.0
C1181 C 0.74178 0.36765 0.53677 0.0
C1182 C 0.8068 0.51913 0.56913 0.0
C1183 C 0.77742 0.52651 0.59211 0.0
C1184 C 0.8107 0.53551 0.53275 0.0
C1185 C 0.75245 0.55019 0.57832 0.0
C1186 C 0.78512 0.55898 0.51995 0.0
N1187 N 0.75677 0.56579 0.54281 0.0
C1188 C 0.80096 0.49056 0.6915 0.0
C1189 C 0.78417 0.43183 0.68037 0.0
C1190 C 0.78007 0.49191 0.72544 0.0
N1191 N 0.80242 0.46081 0.66958 0.0
C1192 C 0.76303 0.43206 0.71372 0.0
C1193 C 0.76067 0.4623 0.73703 0.0
H1194 H 0.81567 0.51336 0.68247 0.0
H1195 H 0.78582 0.40837 0.66278 0.0
C1196 C 0.7992 0.43192 0.47624 0.0
N1197 N 0.79005 0.45395 0.50584 0.0
C1198 C 0.7748 0.42202 0.44804 0.0
C1199 C 0.73226 0.45916 0.47983 0.0
C1200 C 0.75758 0.46844 0.50743 0.0
C1201 C 0.74041 0.43448 0.45066 0.0
H1202 H 0.82458 0.4196 0.4763 0.0
H1203 H 0.75018 0.48456 0.53201 0.0
O1204 O 0.87993 0.44257 0.62214 0.0
O1205 O 0.86778 0.4383 0.53205 0.0
O1206 O 0.80999 0.41666 0.58873 0.0
O1207 O 0.83176 0.4964 0.58248 0.0
H1208 H 0.94449 0.41859 0.61101 0.0
H1209 H 0.85647 0.4178 0.68975 0.0
H1210 H 0.97669 0.38074 0.65747 0.0
H1211 H 0.89011 0.37959 0.73465 0.0
H1212 H 0.91898 0.46319 0.4149 0.0
H1213 H 0.92936 0.4086 0.54543 0.0
H1214 H 0.86847 0.46541 0.4605 0.0
H1215 H 0.97894 0.40784 0.49861 0.0
H1216 H 0.91539 0.29184 0.60718 0.0
H1217 H 0.88339 0.3172 0.48908 0.0
H1218 H 0.00698 0.49219 0.56681 0.0
H1219 H 0.94386 0.53527 0.47319 0.0
H1220 H 0.74945 0.44643 0.60679 0.0
H1221 H 0.79777 0.36322 0.54115 0.0
H1222 H 0.69161 0.42717 0.58178 0.0
H1223 H 0.73915 0.34582 0.5168 0.0
H1224 H 0.77375 0.51394 0.62016 0.0
H1225 H 0.83293 0.52982 0.51431 0.0
H1226 H 0.72957 0.55607 0.59578 0.0
H1227 H 0.78774 0.57169 0.49177 0.0
H1228 H 0.77948 0.51572 0.74261 0.0
H1229 H 0.7483 0.40871 0.72081 0.0
H1230 H 0.78212 0.40291 0.42607 0.0
H1231 H 0.7058 0.46874 0.48355 0.0
Li1232 Li 0.08907 0.86084 0.57933 0.0
Li1233 Li 0.02775 0.87888 0.57321 0.0
Li1234 Li 0.0443 0.82832 0.62059 0.0
Li1235 Li 0.0463 0.82254 0.5491 0.0
C1236 C 0.07912 0.89845 0.64687 0.0
N1237 N 0.12177 0.93527 0.69775 0.0
C1238 C 0.08957 0.93258 0.63781 0.0
C1239 C 0.09034 0.88314 0.6819 0.0
C1240 C 0.11113 0.95074 0.66388 0.0
C1241 C 0.1119 0.90215 0.7072 0.0
C1242 C 0.06294 0.89554 0.50611 0.0
C1243 C 0.04849 0.92103 0.44344 0.0
N1244 N 0.06436 0.9513 0.4545 0.0
C1245 C 0.07926 0.92686 0.51674 0.0
C1246 C 0.04749 0.89255 0.46909 0.0
C1247 C 0.07963 0.95476 0.4903 0.0
C1248 C 0.14499 0.87251 0.53321 0.0
N1249 N 0.13602 0.87593 0.57154 0.0
C1250 C 0.19075 0.90366 0.58557 0.0
C1251 C 0.15857 0.89006 0.5981 0.0
C1252 C 0.19923 0.90253 0.54554 0.0
C1253 C 0.17636 0.88591 0.51947 0.0
H1254 H 0.12728 0.85998 0.51295 0.0
H1255 H 0.15156 0.89134 0.6287 0.0
C1256 C 0.00859 0.95163 0.57455 0.0
N1257 N 0.0014 0.91993 0.55835 0.0
C1258 C 0.00088 0.98248 0.55406 0.0
C1259 C 0.97598 0.94754 0.5022 0.0
C1260 C 0.98382 0.91752 0.52383 0.0
C1261 C 0.98577 0.98067 0.51644 0.0
H1262 H 0.02237 0.95303 0.60211 0.0
H1263 H 0.97923 0.89219 0.51093 0.0
C1264 C 0.09396 0.7781 0.57593 0.0
N1265 N 0.11417 0.71315 0.54836 0.0
C1266 C 0.07594 0.74802 0.58766 0.0
C1267 C 0.12243 0.77508 0.55043 0.0
C1268 C 0.08658 0.71543 0.5734 0.0
C1269 C 0.13216 0.74203 0.5367 0.0
C1270 C 0.98079 0.80727 0.56927 0.0
C1271 C 0.97336 0.77792 0.59227 0.0
C1272 C 0.96442 0.81119 0.53289 0.0
C1273 C 0.94962 0.75299 0.5785 0.0
C1274 C 0.94089 0.78564 0.52011 0.0
N1275 N 0.93403 0.75733 0.543 0.0
C1276 C 0.00947 0.80155 0.69153 0.0
C1277 C 0.06817 0.78462 0.68046 0.0
C1278 C 0.00805 0.78069 0.72547 0.0
N1279 N 0.03923 0.80292 0.66963 0.0
C1280 C 0.06788 0.7635 0.71383 0.0
C1281 C 0.0376 0.76121 0.7371 0.0
H1282 H 0.98671 0.8163 0.68247 0.0
H1283 H 0.09164 0.7862 0.66288 0.0
C1284 C 0.06781 0.79944 0.47625 0.0
N1285 N 0.04585 0.79034 0.50592 0.0
C1286 C 0.07763 0.775 0.44805 0.0
C1287 C 0.04054 0.73253 0.48001 0.0
C1288 C 0.03134 0.75789 0.50761 0.0
C1289 C 0.06516 0.74063 0.45075 0.0
H1290 H 0.08016 0.82481 0.47623 0.0
H1291 H 0.01528 0.75053 0.53224 0.0
O1292 O 0.05753 0.88035 0.62206 0.0
O1293 O 0.0616 0.8681 0.53197 0.0
O1294 O 0.08332 0.81036 0.5887 0.0
O1295 O 0.00357 0.83219 0.5826 0.0
H1296 H 0.08154 0.94488 0.6108 0.0
H1297 H 0.08243 0.85693 0.68962 0.0
H1298 H 0.11951 0.97708 0.65712 0.0
H1299 H 0.12076 0.89057 0.73439 0.0
H1300 H 0.03644 0.91914 0.41483 0.0
H1301 H 0.09134 0.92968 0.54517 0.0
H1302 H 0.03432 0.86869 0.4605 0.0
H1303 H 0.09199 0.9792 0.49827 0.0
H1304 H 0.20829 0.91566 0.60656 0.0
H1305 H 0.18262 0.88345 0.4886 0.0
H1306 H 0.00786 0.00737 0.56702 0.0
H1307 H 0.96464 0.94438 0.47336 0.0
H1308 H 0.05354 0.74987 0.60693 0.0
H1309 H 0.13665 0.79802 0.54099 0.0
H1310 H 0.07269 0.69198 0.58196 0.0
H1311 H 0.15394 0.73935 0.51668 0.0
H1312 H 0.98592 0.77424 0.62032 0.0
H1313 H 0.97015 0.83339 0.51444 0.0
H1314 H 0.9437 0.73013 0.59598 0.0
H1315 H 0.92818 0.78828 0.49193 0.0
H1316 H 0.98422 0.78016 0.74262 0.0
H1317 H 0.09118 0.74873 0.72095 0.0
H1318 H 0.09669 0.78228 0.42601 0.0
H1319 H 0.03095 0.70609 0.4838 0.0
Li1320 Li 0.67758 0.04614 0.54862 0.0
Li1321 Li 0.67181 0.04387 0.6201 0.0
Li1322 Li 0.62125 0.02744 0.57266 0.0
Li1323 Li 0.63923 0.08876 0.57906 0.0
C1324 C 0.69293 0.98056 0.56854 0.0
N1325 N 0.74293 0.93391 0.54213 0.0
C1326 C 0.72231 0.97314 0.5915 0.0
C1327 C 0.68901 0.96423 0.53213 0.0
C1328 C 0.74727 0.94946 0.57766 0.0
C1329 C 0.71459 0.94076 0.51928 0.0
C1330 C 0.722 0.09371 0.5757 0.0
C1331 C 0.7581 0.13211 0.53678 0.0
N1332 N 0.78697 0.11405 0.54833 0.0
C1333 C 0.75206 0.07561 0.58732 0.0
C1334 C 0.72504 0.12233 0.55041 0.0
C1335 C 0.78466 0.08631 0.57316 0.0
C1336 C 0.70067 0.06803 0.47593 0.0
N1337 N 0.70977 0.04589 0.50544 0.0
C1338 C 0.76759 0.04073 0.47948 0.0
C1339 C 0.74222 0.03136 0.507 0.0
C1340 C 0.75949 0.06554 0.45043 0.0
C1341 C 0.72512 0.07803 0.44783 0.0
H1342 H 0.67529 0.08037 0.476 0.0
H1343 H 0.74958 0.01515 0.53151 0.0
C1344 C 0.69873 0.00887 0.69092 0.0
N1345 N 0.69723 0.03869 0.66911 0.0
C1346 C 0.7196 0.00745 0.72485 0.0
C1347 C 0.73655 0.06737 0.71338 0.0
C1348 C 0.71543 0.06766 0.68002 0.0
C1349 C 0.73894 0.03706 0.73657 0.0
H1350 H 0.68406 0.98608 0.68179 0.0
H1351 H 0.71375 0.09117 0.66252 0.0
C1352 C 0.60453 0.06293 0.50577 0.0
N1353 N 0.5487 0.06463 0.45427 0.0
C1354 C 0.5732 0.07916 0.51658 0.0
C1355 C 0.60748 0.04772 0.46863 0.0
C1356 C 0.54527 0.07968 0.49019 0.0
C1357 C 0.57897 0.04886 0.44303 0.0
C1358 C 0.60164 0.07854 0.64657 0.0
C1359 C 0.56746 0.08891 0.63763 0.0
C1360 C 0.61697 0.08971 0.6816 0.0
C1361 C 0.54928 0.11035 0.66381 0.0
C1362 C 0.59795 0.11116 0.70702 0.0
N1363 N 0.56478 0.12096 0.69767 0.0
C1364 C 0.54852 0.00814 0.57393 0.0
C1365 C 0.58268 0.98371 0.52303 0.0
C1366 C 0.51768 0.00043 0.55342 0.0
N1367 N 0.58024 0.00111 0.55766 0.0
C1368 C 0.55267 0.97587 0.50139 0.0
C1369 C 0.51952 0.98548 0.51572 0.0
H1370 H 0.5471 0.02178 0.60158 0.0
H1371 H 0.60802 0.97926 0.51008 0.0
C1372 C 0.62761 0.14483 0.53318 0.0
N1373 N 0.6241 0.13572 0.57146 0.0
C1374 C 0.61416 0.1762 0.51952 0.0
C1375 C 0.59618 0.19033 0.58561 0.0
C1376 C 0.60983 0.15815 0.59806 0.0
C1377 C 0.5974 0.19894 0.54562 0.0
H1378 H 0.64024 0.12721 0.51289 0.0
H1379 H 0.60846 0.15103 0.62862 0.0
O1380 O 0.66797 0.00328 0.58193 0.0
O1381 O 0.68972 0.08301 0.58838 0.0
O1382 O 0.632 0.06144 0.53158 0.0
O1383 O 0.61975 0.05705 0.62165 0.0
H1384 H 0.72598 0.98567 0.61957 0.0
H1385 H 0.66678 0.96995 0.51371 0.0
H1386 H 0.77014 0.94355 0.59511 0.0
H1387 H 0.71195 0.92808 0.49108 0.0
H1388 H 0.7608 0.15401 0.51693 0.0
H1389 H 0.75019 0.0531 0.60643 0.0
H1390 H 0.70211 0.13661 0.54106 0.0
H1391 H 0.8081 0.07236 0.58164 0.0
H1392 H 0.79403 0.03112 0.48319 0.0
H1393 H 0.71785 0.09725 0.42595 0.0
H1394 H 0.72024 0.98359 0.74193 0.0
H1395 H 0.75123 0.09072 0.72058 0.0
H1396 H 0.57041 0.09107 0.54511 0.0
H1397 H 0.63134 0.03463 0.45989 0.0
H1398 H 0.52083 0.09197 0.49831 0.0
H1399 H 0.58083 0.03699 0.41432 0.0
H1400 H 0.55513 0.0809 0.61062 0.0
H1401 H 0.64323 0.08186 0.68923 0.0
H1402 H 0.5229 0.11867 0.65713 0.0
H1403 H 0.60955 0.11999 0.7342 0.0
H1404 H 0.49278 0.00727 0.56644 0.0
H1405 H 0.55584 0.96467 0.47247 0.0
H1406 H 0.61668 0.18256 0.48868 0.0
H1407 H 0.58406 0.20777 0.60662 0.0
loop_
_geom_bond_atom_site_label_1
_geom_bond_atom_site_label_2
_geom_bond_distance
_geom_bond_site_symmetry_2
_ccdc_geom_bond_type
Li0 N17 1.990 . S
Li0 O60 1.956 . S
Li0 O61 1.970 . S
Li0 O62 1.961 . S
Li1 N25 1.990 . S
Li1 O60 1.970 . S
Li1 O61 1.956 . S
Li1 O63 1.961 . S
Li2 N47 1.990 . S
Li2 O60 1.961 . S
Li2 O62 1.956 . S
Li2 O63 1.970 . S
Li3 N53 1.990 . S
Li3 O61 1.961 . S
Li3 O62 1.970 . S
Li3 O63 1.956 . S
C4 C6 1.348 . S
C4 C7 1.356 . S
C4 O60 1.325 . S
N5 C8 1.314 . S
N5 C9 1.279 . S
C6 C4 1.348 . S
C6 C8 1.353 . S
C6 H64 0.929 . S
C7 C4 1.356 . S
C7 C9 1.358 . S
C7 H65 0.930 . S
C8 N5 1.314 . S
C8 C6 1.353 . S
C8 H66 0.930 . S
C9 N5 1.279 . S
C9 C7 1.358 . S
C9 H67 0.930 . S
C10 C13 1.348 . S
C10 C14 1.356 . S
C10 O61 1.325 . S
C11 N12 1.279 . S
C11 C14 1.358 . S
C11 H68 0.930 . S
N12 C11 1.279 . S
N12 C15 1.314 . S
C13 C10 1.348 . S
C13 C15 1.353 . S
C13 H69 0.929 . S
C14 C10 1.356 . S
C14 C11 1.358 . S
C14 H70 0.930 . S
C15 N12 1.314 . S
C15 C13 1.353 . S
C15 H71 0.930 . S
C16 N17 1.314 . S
C16 C21 1.353 . S
C16 H22 0.930 . S
N17 Li0 1.990 . S
N17 C16 1.314 . S
N17 C19 1.279 . S
C18 C19 1.358 . S
C18 C20 1.356 . S
C18 H72 0.930 . S
C19 N17 1.279 . S
C19 C18 1.358 . S
C19 H23 0.930 . S
C20 C18 1.356 . S
C20 C21 1.348 . S
C21 C16 1.353 . S
C21 C20 1.348 . S
C21 H73 0.929 . S
H22 C16 0.930 . S
H23 C19 0.930 . S
C24 N25 1.314 . S
C24 C26 1.353 . S
C24 H30 0.930 . S
N25 Li1 1.990 . S
N25 C24 1.314 . S
N25 C28 1.279 . S
C26 C24 1.353 . S
C26 C29 1.348 . S
C26 H74 0.929 . S
C27 C28 1.358 . S
C27 C29 1.356 . S
C27 H75 0.930 . S
C28 N25 1.279 . S
C28 C27 1.358 . S
C28 H31 0.930 . S
C29 C26 1.348 . S
C29 C27 1.356 . S
H30 C24 0.930 . S
H31 C28 0.930 . S
C32 C34 1.348 . S
C32 C35 1.356 . S
C32 O62 1.325 . S
N33 C36 1.314 . S
N33 C37 1.279 . S
C34 C32 1.348 . S
C34 C36 1.353 . S
C34 H76 0.929 . S
C35 C32 1.356 . S
C35 C37 1.358 . S
C35 H77 0.930 . S
C36 N33 1.314 . S
C36 C34 1.353 . S
C36 H78 0.930 . S
C37 N33 1.279 . S
C37 C35 1.358 . S
C37 H79 0.930 . S
C38 C39 1.348 . S
C38 C40 1.356 . S
C38 O63 1.325 1_556 S
C39 C38 1.348 . S
C39 C41 1.353 . S
C39 H80 0.929 . S
C40 C38 1.356 . S
C40 C42 1.358 . S
C40 H81 0.930 . S
C41 C39 1.353 . S
C41 N43 1.314 . S
C41 H82 0.930 . S
C42 C40 1.358 . S
C42 N43 1.279 . S
C42 H83 0.930 . S
N43 C41 1.314 . S
N43 C42 1.279 . S
C44 C46 1.353 . S
C44 N47 1.314 . S
C44 H50 0.930 . S
C45 N47 1.279 . S
C45 C48 1.358 . S
C45 H51 0.930 . S
C46 C44 1.353 . S
C46 C49 1.348 . S
C46 H84 0.929 . S
N47 Li2 1.990 . S
N47 C44 1.314 . S
N47 C45 1.279 . S
C48 C45 1.358 . S
C48 C49 1.356 . S
C48 H85 0.930 . S
C49 C46 1.348 . S
C49 C48 1.356 . S
H50 C44 0.930 . S
H51 C45 0.930 . S
C52 N53 1.314 . S
C52 C54 1.353 . S
C52 H58 0.930 . S
N53 Li3 1.990 . S
N53 C52 1.314 . S
N53 C56 1.279 1_554 S
C54 C52 1.353 . S
C54 C57 1.348 1_554 S
C54 H86 0.929 . S
C55 C56 1.358 . S
C55 C57 1.356 . S
C55 H87 0.930 . S
C56 N53 1.279 1_556 S
C56 C55 1.358 . S
C56 H59 0.930 . S
C57 C54 1.348 1_556 S
C57 C55 1.356 . S
H58 C52 0.930 . S
H59 C56 0.930 . S
O60 Li0 1.956 . S
O60 Li1 1.970 . S
O60 Li2 1.961 . S
O60 C4 1.325 . S
O61 Li0 1.970 . S
O61 Li1 1.956 . S
O61 Li3 1.961 . S
O61 C10 1.325 . S
O62 Li0 1.961 . S
O62 Li2 1.956 . S
O62 Li3 1.970 . S
O62 C32 1.325 . S
O63 Li1 1.961 . S
O63 Li2 1.970 . S
O63 Li3 1.956 . S
O63 C38 1.325 1_554 S
H64 C6 0.929 . S
H65 C7 0.930 . S
H66 C8 0.930 . S
H67 C9 0.930 . S
H68 C11 0.930 . S
H69 C13 0.929 . S
H70 C14 0.930 . S
H71 C15 0.930 . S
H72 C18 0.930 . S
H73 C21 0.929 . S
H74 C26 0.929 . S
H75 C27 0.930 . S
H76 C34 0.929 . S
H77 C35 0.930 . S
H78 C36 0.930 . S
H79 C37 0.930 . S
H80 C39 0.929 . S
H81 C40 0.930 . S
H82 C41 0.930 . S
H83 C42 0.930 . S
H84 C46 0.929 . S
H85 C48 0.930 . S
H86 C54 0.929 . S
H87 C55 0.930 . S
Li88 N105 1.990 . S
Li88 O148 1.956 . S
Li88 O149 1.970 . S
Li88 O150 1.961 . S
Li89 N113 1.990 . S
Li89 O148 1.970 . S
Li89 O149 1.956 . S
Li89 O151 1.961 . S
Li90 N135 1.990 . S
Li90 O148 1.961 . S
Li90 O150 1.956 . S
Li90 O151 1.970 . S
Li91 N141 1.990 . S
Li91 O149 1.961 . S
Li91 O150 1.970 . S
Li91 O151 1.956 . S
C92 C94 1.348 . S
C92 C95 1.356 . S
C92 O148 1.325 . S
N93 C96 1.314 . S
N93 C97 1.279 . S
C94 C92 1.348 . S
C94 C96 1.353 . S
C94 H152 0.929 . S
C95 C92 1.356 . S
C95 C97 1.358 . S
C95 H153 0.930 . S
C96 N93 1.314 . S
C96 C94 1.353 . S
C96 H154 0.930 . S
C97 N93 1.279 . S
C97 C95 1.358 . S
C97 H155 0.930 . S
C98 C101 1.348 . S
C98 C102 1.356 . S
C98 O149 1.325 . S
C99 N100 1.279 . S
C99 C102 1.358 . S
C99 H156 0.930 . S
N100 C99 1.279 . S
N100 C103 1.314 . S
C101 C98 1.348 . S
C101 C103 1.353 . S
C101 H157 0.929 . S
C102 C98 1.356 . S
C102 C99 1.358 . S
C102 H158 0.930 . S
C103 N100 1.314 . S
C103 C101 1.353 . S
C103 H159 0.930 . S
C104 N105 1.314 . S
C104 C109 1.353 . S
C104 H110 0.930 . S
N105 Li88 1.990 . S
N105 C104 1.314 . S
N105 C107 1.279 . S
C106 C107 1.358 . S
C106 C108 1.356 . S
C106 H160 0.930 . S
C107 N105 1.279 . S
C107 C106 1.358 . S
C107 H111 0.930 . S
C108 C106 1.356 . S
C108 C109 1.348 . S
C109 C104 1.353 . S
C109 C108 1.348 . S
C109 H161 0.929 . S
H110 C104 0.930 . S
H111 C107 0.930 . S
C112 N113 1.314 . S
C112 C114 1.353 . S
C112 H118 0.930 . S
N113 Li89 1.990 . S
N113 C112 1.314 . S
N113 C116 1.279 . S
C114 C112 1.353 . S
C114 C117 1.348 . S
C114 H162 0.929 . S
C115 C116 1.358 . S
C115 C117 1.356 . S
C115 H163 0.930 . S
C116 N113 1.279 . S
C116 C115 1.358 . S
C116 H119 0.930 . S
C117 C114 1.348 . S
C117 C115 1.356 . S
H118 C112 0.930 . S
H119 C116 0.930 . S
C120 C122 1.348 . S
C120 C123 1.356 . S
C120 O150 1.325 . S
N121 C124 1.314 . S
N121 C125 1.279 . S
C122 C120 1.348 . S
C122 C124 1.353 . S
C122 H164 0.929 . S
C123 C120 1.356 . S
C123 C125 1.358 . S
C123 H165 0.930 . S
C124 N121 1.314 . S
C124 C122 1.353 . S
C124 H166 0.930 . S
C125 N121 1.279 . S
C125 C123 1.358 . S
C125 H167 0.930 . S
C126 C127 1.348 . S
C126 C128 1.356 . S
C126 O151 1.325 1_556 S
C127 C126 1.348 . S
C127 C129 1.353 . S
C127 H168 0.929 . S
C128 C126 1.356 . S
C128 C130 1.358 . S
C128 H169 0.930 . S
C129 C127 1.353 . S
C129 N131 1.314 . S
C129 H170 0.930 . S
C130 C128 1.358 . S
C130 N131 1.279 . S
C130 H171 0.930 . S
N131 C129 1.314 . S
N131 C130 1.279 . S
C132 C134 1.353 . S
C132 N135 1.314 . S
C132 H138 0.930 . S
C133 N135 1.279 . S
C133 C136 1.358 . S
C133 H139 0.930 . S
C134 C132 1.353 . S
C134 C137 1.348 . S
C134 H172 0.929 . S
N135 Li90 1.990 . S
N135 C132 1.314 . S
N135 C133 1.279 . S
C136 C133 1.358 . S
C136 C137 1.356 . S
C136 H173 0.930 . S
C137 C134 1.348 . S
C137 C136 1.356 . S
H138 C132 0.930 . S
H139 C133 0.930 . S
C140 N141 1.314 . S
C140 C142 1.353 . S
C140 H146 0.930 . S
N141 Li91 1.990 . S
N141 C140 1.314 . S
N141 C144 1.279 1_554 S
C142 C140 1.353 . S
C142 C145 1.348 1_554 S
C142 H174 0.929 . S
C143 C144 1.358 . S
C143 C145 1.356 . S
C143 H175 0.930 . S
C144 N141 1.279 1_556 S
C144 C143 1.358 . S
C144 H147 0.930 . S
C145 C142 1.348 1_556 S
C145 C143 1.356 . S
H146 C140 0.930 . S
H147 C144 0.930 . S
O148 Li88 1.956 . S
O148 Li89 1.970 . S
O148 Li90 1.961 . S
O148 C92 1.325 . S
O149 Li88 1.970 . S
O149 Li89 1.956 . S
O149 Li91 1.961 . S
O149 C98 1.325 . S
O150 Li88 1.961 . S
O150 Li90 1.956 . S
O150 Li91 1.970 . S
O150 C120 1.325 . S
O151 Li89 1.961 . S
O151 Li90 1.970 . S
O151 Li91 1.956 . S
O151 C126 1.325 1_554 S
H152 C94 0.929 . S
H153 C95 0.930 . S
H154 C96 0.930 . S
H155 C97 0.930 . S
H156 C99 0.930 . S
H157 C101 0.929 . S
H158 C102 0.930 . S
H159 C103 0.930 . S
H160 C106 0.930 . S
H161 C109 0.929 . S
H162 C114 0.929 . S
H163 C115 0.930 . S
H164 C122 0.929 . S
H165 C123 0.930 . S
H166 C124 0.930 . S
H167 C125 0.930 . S
H168 C127 0.929 . S
H169 C128 0.930 . S
H170 C129 0.930 . S
H171 C130 0.930 . S
H172 C134 0.929 . S
H173 C136 0.930 . S
H174 C142 0.929 . S
H175 C143 0.930 . S
Li176 N193 1.990 . S
Li176 O236 1.956 . S
Li176 O237 1.970 . S
Li176 O238 1.961 . S
Li177 N201 1.990 . S
Li177 O236 1.970 . S
Li177 O237 1.956 . S
Li177 O239 1.961 . S
Li178 N223 1.990 . S
Li178 O236 1.961 . S
Li178 O238 1.956 . S
Li178 O239 1.970 . S
Li179 N229 1.990 . S
Li179 O237 1.961 . S
Li179 O238 1.970 . S
Li179 O239 1.956 . S
C180 C182 1.348 1_655 S
C180 C183 1.356 1_655 S
C180 O236 1.325 . S
N181 C184 1.314 . S
N181 C185 1.279 . S
C182 C180 1.348 1_455 S
C182 C184 1.353 . S
C182 H240 0.929 1_455 S
C183 C180 1.356 1_455 S
C183 C185 1.358 . S
C183 H241 0.930 . S
C184 N181 1.314 . S
C184 C182 1.353 . S
C184 H242 0.930 . S
C185 N181 1.279 . S
C185 C183 1.358 . S
C185 H243 0.930 . S
C186 C189 1.348 . S
C186 C190 1.356 . S
C186 O237 1.325 . S
C187 N188 1.279 . S
C187 C190 1.358 . S
C187 H244 0.930 . S
N188 C187 1.279 . S
N188 C191 1.314 . S
C189 C186 1.348 . S
C189 C191 1.353 . S
C189 H245 0.929 . S
C190 C186 1.356 . S
C190 C187 1.358 . S
C190 H246 0.930 . S
C191 N188 1.314 . S
C191 C189 1.353 . S
C191 H247 0.930 . S
C192 N193 1.314 . S
C192 C197 1.334 1_655 S
C192 H198 0.930 . S
N193 Li176 1.990 . S
N193 C192 1.314 . S
N193 C195 1.279 1_655 S
C194 C195 1.358 . S
C194 C196 1.356 . S
C194 H248 0.930 . S
C195 N193 1.279 1_455 S
C195 C194 1.358 . S
C195 H199 0.930 . S
C196 C194 1.356 . S
C196 C197 1.375 . S
C197 C192 1.334 1_455 S
C197 C196 1.375 . S
C197 H249 0.921 1_455 S
H198 C192 0.930 . S
H199 C195 0.930 . S
C200 N201 1.314 . S
C200 C202 1.353 . S
C200 H206 0.930 . S
N201 Li177 1.990 . S
N201 C200 1.314 . S
N201 C204 1.279 . S
C202 C200 1.353 . S
C202 C205 1.348 . S
C202 H250 0.929 . S
C203 C204 1.358 . S
C203 C205 1.356 . S
C203 H251 0.930 . S
C204 N201 1.279 . S
C204 C203 1.358 . S
C204 H207 0.930 . S
C205 C202 1.348 . S
C205 C203 1.356 . S
H206 C200 0.930 . S
H207 C204 0.930 . S
C208 C210 1.348 . S
C208 C211 1.356 . S
C208 O238 1.325 1_556 S
N209 C212 1.314 . S
N209 C213 1.279 . S
C210 C208 1.348 . S
C210 C212 1.353 . S
C210 H252 0.929 . S
C211 C208 1.356 . S
C211 C213 1.358 . S
C211 H253 0.930 . S
C212 N209 1.314 . S
C212 C210 1.353 . S
C212 H254 0.930 . S
C213 N209 1.279 . S
C213 C211 1.358 . S
C213 H255 0.930 . S
C214 C215 1.348 . S
C214 C216 1.356 . S
C214 O239 1.325 . S
C215 C214 1.348 . S
C215 C217 1.353 . S
C215 H256 0.929 . S
C216 C214 1.356 . S
C216 C218 1.358 . S
C216 H257 0.930 . S
C217 C215 1.353 . S
C217 N219 1.314 . S
C217 H258 0.930 . S
C218 C216 1.358 . S
C218 N219 1.279 . S
C218 H259 0.930 . S
N219 C217 1.314 . S
N219 C218 1.279 . S
C220 C222 1.353 . S
C220 N223 1.314 . S
C220 H226 0.930 . S
C221 N223 1.279 1_556 S
C221 C224 1.358 . S
C221 H227 0.930 . S
C222 C220 1.353 . S
C222 C225 1.348 1_554 S
C222 H260 0.929 . S
N223 Li178 1.990 . S
N223 C220 1.314 . S
N223 C221 1.279 1_554 S
C224 C221 1.358 . S
C224 C225 1.356 . S
C224 H261 0.930 . S
C225 C222 1.348 1_556 S
C225 C224 1.356 . S
H226 C220 0.930 . S
H227 C221 0.930 . S
C228 N229 1.314 . S
C228 C230 1.353 . S
C228 H234 0.930 . S
N229 Li179 1.990 . S
N229 C228 1.314 . S
N229 C232 1.279 . S
C230 C228 1.353 . S
C230 C233 1.348 . S
C230 H262 0.929 . S
C231 C232 1.358 . S
C231 C233 1.356 . S
C231 H263 0.930 . S
C232 N229 1.279 . S
C232 C231 1.358 . S
C232 H235 0.930 . S
C233 C230 1.348 . S
C233 C231 1.356 . S
H234 C228 0.930 . S
H235 C232 0.930 . S
O236 Li176 1.956 . S
O236 Li177 1.970 . S
O236 Li178 1.961 . S
O236 C180 1.325 . S
O237 Li176 1.970 . S
O237 Li177 1.956 . S
O237 Li179 1.961 . S
O237 C186 1.325 . S
O238 Li176 1.961 . S
O238 Li178 1.956 . S
O238 Li179 1.970 . S
O238 C208 1.325 1_554 S
O239 Li177 1.961 . S
O239 Li178 1.970 . S
O239 Li179 1.956 . S
O239 C214 1.325 . S
H240 C182 0.929 1_655 S
H241 C183 0.930 . S
H242 C184 0.930 . S
H243 C185 0.930 . S
H244 C187 0.930 . S
H245 C189 0.929 . S
H246 C190 0.930 . S
H247 C191 0.930 . S
H248 C194 0.930 . S
H249 C197 0.921 1_655 S
H250 C202 0.929 . S
H251 C203 0.930 . S
H252 C210 0.929 . S
H253 C211 0.930 . S
H254 C212 0.930 . S
H255 C213 0.930 . S
H256 C215 0.929 . S
H257 C216 0.930 . S
H258 C217 0.930 . S
H259 C218 0.930 . S
H260 C222 0.929 . S
H261 C224 0.930 . S
H262 C230 0.929 . S
H263 C231 0.930 . S
Li264 N281 1.990 . S
Li264 O324 1.956 . S
Li264 O325 1.970 . S
Li264 O326 1.961 . S
Li265 N289 1.990 . S
Li265 O324 1.970 . S
Li265 O325 1.956 . S
Li265 O327 1.961 . S
Li266 N311 1.990 . S
Li266 O324 1.961 . S
Li266 O326 1.956 . S
Li266 O327 1.970 . S
Li267 N317 1.990 . S
Li267 O325 1.961 . S
Li267 O326 1.970 . S
Li267 O327 1.956 . S
C268 C270 1.348 1_565 S
C268 C271 1.356 1_565 S
C268 O324 1.325 . S
N269 C272 1.314 . S
N269 C273 1.279 . S
C270 C268 1.348 1_545 S
C270 C272 1.353 . S
C270 H328 0.929 1_545 S
C271 C268 1.356 1_545 S
C271 C273 1.358 . S
C271 H329 0.930 . S
C272 N269 1.314 . S
C272 C270 1.353 . S
C272 H330 0.930 . S
C273 N269 1.279 . S
C273 C271 1.358 . S
C273 H331 0.930 . S
C274 C277 1.348 . S
C274 C278 1.356 . S
C274 O325 1.325 . S
C275 N276 1.279 . S
C275 C278 1.358 . S
C275 H332 0.930 . S
N276 C275 1.279 . S
N276 C279 1.314 . S
C277 C274 1.348 . S
C277 C279 1.353 . S
C277 H333 0.929 . S
C278 C274 1.356 . S
C278 C275 1.358 . S
C278 H334 0.930 . S
C279 N276 1.314 . S
C279 C277 1.353 . S
C279 H335 0.930 . S
C280 N281 1.314 . S
C280 C285 1.334 1_565 S
C280 H286 0.930 . S
N281 Li264 1.990 . S
N281 C280 1.314 . S
N281 C283 1.279 1_565 S
C282 C283 1.358 . S
C282 C284 1.356 . S
C282 H336 0.930 . S
C283 N281 1.279 1_545 S
C283 C282 1.358 . S
C283 H287 0.930 . S
C284 C282 1.356 . S
C284 C285 1.375 . S
C285 C280 1.334 1_545 S
C285 C284 1.375 . S
C285 H337 0.921 1_545 S
H286 C280 0.930 . S
H287 C283 0.930 . S
C288 N289 1.314 . S
C288 C290 1.353 . S
C288 H294 0.930 . S
N289 Li265 1.990 . S
N289 C288 1.314 . S
N289 C292 1.279 . S
C290 C288 1.353 . S
C290 C293 1.348 . S
C290 H338 0.929 . S
C291 C292 1.358 . S
C291 C293 1.356 . S
C291 H339 0.930 . S
C292 N289 1.279 . S
C292 C291 1.358 . S
C292 H295 0.930 . S
C293 C290 1.348 . S
C293 C291 1.356 . S
H294 C288 0.930 . S
H295 C292 0.930 . S
C296 C298 1.348 . S
C296 C299 1.356 . S
C296 O326 1.325 1_556 S
N297 C300 1.314 . S
N297 C301 1.279 . S
C298 C296 1.348 . S
C298 C300 1.353 . S
C298 H340 0.929 . S
C299 C296 1.356 . S
C299 C301 1.358 . S
C299 H341 0.930 . S
C300 N297 1.314 . S
C300 C298 1.353 . S
C300 H342 0.930 . S
C301 N297 1.279 . S
C301 C299 1.358 . S
C301 H343 0.930 . S
C302 C303 1.348 . S
C302 C304 1.356 . S
C302 O327 1.325 . S
C303 C302 1.348 . S
C303 C305 1.353 . S
C303 H344 0.929 . S
C304 C302 1.356 . S
C304 C306 1.358 . S
C304 H345 0.930 . S
C305 C303 1.353 . S
C305 N307 1.314 . S
C305 H346 0.930 . S
C306 C304 1.358 . S
C306 N307 1.279 . S
C306 H347 0.930 . S
N307 C305 1.314 . S
N307 C306 1.279 . S
C308 C310 1.353 . S
C308 N311 1.314 . S
C308 H314 0.930 . S
C309 N311 1.279 1_556 S
C309 C312 1.358 . S
C309 H315 0.930 . S
C310 C308 1.353 . S
C310 C313 1.348 1_554 S
C310 H348 0.929 . S
N311 Li266 1.990 . S
N311 C308 1.314 . S
N311 C309 1.279 1_554 S
C312 C309 1.358 . S
C312 C313 1.356 . S
C312 H349 0.930 . S
C313 C310 1.348 1_556 S
C313 C312 1.356 . S
H314 C308 0.930 . S
H315 C309 0.930 . S
C316 N317 1.314 . S
C316 C318 1.353 . S
C316 H322 0.930 . S
N317 Li267 1.990 . S
N317 C316 1.314 . S
N317 C320 1.279 . S
C318 C316 1.353 . S
C318 C321 1.348 . S
C318 H350 0.929 . S
C319 C320 1.358 . S
C319 C321 1.356 . S
C319 H351 0.930 . S
C320 N317 1.279 . S
C320 C319 1.358 . S
C320 H323 0.930 . S
C321 C318 1.348 . S
C321 C319 1.356 . S
H322 C316 0.930 . S
H323 C320 0.930 . S
O324 Li264 1.956 . S
O324 Li265 1.970 . S
O324 Li266 1.961 . S
O324 C268 1.325 . S
O325 Li264 1.970 . S
O325 Li265 1.956 . S
O325 Li267 1.961 . S
O325 C274 1.325 . S
O326 Li264 1.961 . S
O326 Li266 1.956 . S
O326 Li267 1.970 . S
O326 C296 1.325 1_554 S
O327 Li265 1.961 . S
O327 Li266 1.970 . S
O327 Li267 1.956 . S
O327 C302 1.325 . S
H328 C270 0.929 1_565 S
H329 C271 0.930 . S
H330 C272 0.930 . S
H331 C273 0.930 . S
H332 C275 0.930 . S
H333 C277 0.929 . S
H334 C278 0.930 . S
H335 C279 0.930 . S
H336 C282 0.930 . S
H337 C285 0.921 1_565 S
H338 C290 0.929 . S
H339 C291 0.930 . S
H340 C298 0.929 . S
H341 C299 0.930 . S
H342 C300 0.930 . S
H343 C301 0.930 . S
H344 C303 0.929 . S
H345 C304 0.930 . S
H346 C305 0.930 . S
H347 C306 0.930 . S
H348 C310 0.929 . S
H349 C312 0.930 . S
H350 C318 0.929 . S
H351 C319 0.930 . S
Li352 N369 1.990 . S
Li352 O412 1.956 . S
Li352 O413 1.970 . S
Li352 O414 1.961 . S
Li353 N377 1.990 . S
Li353 O412 1.970 . S
Li353 O413 1.956 . S
Li353 O415 1.961 . S
Li354 N399 1.990 . S
Li354 O412 1.961 . S
Li354 O414 1.956 . S
Li354 O415 1.970 . S
Li355 N405 1.990 . S
Li355 O413 1.961 . S
Li355 O414 1.970 . S
Li355 O415 1.956 . S
C356 C358 1.348 . S
C356 C359 1.356 . S
C356 O412 1.325 . S
N357 C360 1.314 . S
N357 C361 1.279 . S
C358 C356 1.348 . S
C358 C360 1.353 . S
C358 H416 0.929 . S
C359 C356 1.356 . S
C359 C361 1.358 . S
C359 H417 0.930 . S
C360 N357 1.314 . S
C360 C358 1.353 . S
C360 H418 0.930 . S
C361 N357 1.279 . S
C361 C359 1.358 . S
C361 H419 0.930 . S
C362 C365 1.348 . S
C362 C366 1.356 . S
C362 O413 1.325 . S
C363 N364 1.279 . S
C363 C366 1.358 . S
C363 H420 0.930 . S
N364 C363 1.279 . S
N364 C367 1.314 . S
C365 C362 1.348 . S
C365 C367 1.353 . S
C365 H421 0.929 . S
C366 C362 1.356 . S
C366 C363 1.358 . S
C366 H422 0.930 . S
C367 N364 1.314 . S
C367 C365 1.353 . S
C367 H423 0.930 . S
C368 N369 1.314 . S
C368 C373 1.353 . S
C368 H374 0.930 . S
N369 Li352 1.990 . S
N369 C368 1.314 . S
N369 C371 1.279 . S
C370 C371 1.358 . S
C370 C372 1.356 . S
C370 H424 0.930 . S
C371 N369 1.279 . S
C371 C370 1.358 . S
C371 H375 0.930 . S
C372 C370 1.356 . S
C372 C373 1.348 . S
C373 C368 1.353 . S
C373 C372 1.348 . S
C373 H425 0.929 . S
H374 C368 0.930 . S
H375 C371 0.930 . S
C376 N377 1.314 . S
C376 C378 1.353 . S
C376 H382 0.930 . S
N377 Li353 1.990 . S
N377 C376 1.314 . S
N377 C380 1.279 . S
C378 C376 1.353 . S
C378 C381 1.348 . S
C378 H426 0.929 . S
C379 C380 1.358 . S
C379 C381 1.356 . S
C379 H427 0.930 . S
C380 N377 1.279 . S
C380 C379 1.358 . S
C380 H383 0.930 . S
C381 C378 1.348 . S
C381 C379 1.356 . S
H382 C376 0.930 . S
H383 C380 0.930 . S
C384 C386 1.348 . S
C384 C387 1.356 . S
C384 O414 1.325 . S
N385 C388 1.314 . S
N385 C389 1.279 . S
C386 C384 1.348 . S
C386 C388 1.353 . S
C386 H428 0.929 . S
C387 C384 1.356 . S
C387 C389 1.358 . S
C387 H429 0.930 . S
C388 N385 1.314 . S
C388 C386 1.353 . S
C388 H430 0.930 . S
C389 N385 1.279 . S
C389 C387 1.358 . S
C389 H431 0.930 . S
C390 C391 1.348 . S
C390 C392 1.356 . S
C390 O415 1.325 . S
C391 C390 1.348 . S
C391 C393 1.353 . S
C391 H432 0.929 . S
C392 C390 1.356 . S
C392 C394 1.358 . S
C392 H433 0.930 . S
C393 C391 1.353 . S
C393 N395 1.314 . S
C393 H434 0.930 . S
C394 C392 1.358 . S
C394 N395 1.279 . S
C394 H435 0.930 . S
N395 C393 1.314 . S
N395 C394 1.279 . S
C396 C398 1.353 . S
C396 N399 1.314 . S
C396 H402 0.930 . S
C397 N399 1.279 . S
C397 C400 1.358 . S
C397 H403 0.930 . S
C398 C396 1.353 . S
C398 C401 1.348 . S
C398 H436 0.929 . S
N399 Li354 1.990 . S
N399 C396 1.314 . S
N399 C397 1.279 . S
C400 C397 1.358 . S
C400 C401 1.356 . S
C400 H437 0.930 . S
C401 C398 1.348 . S
C401 C400 1.356 . S
H402 C396 0.930 . S
H403 C397 0.930 . S
C404 N405 1.314 . S
C404 C406 1.353 . S
C404 H410 0.930 . S
N405 Li355 1.990 . S
N405 C404 1.314 . S
N405 C408 1.279 . S
C406 C404 1.353 . S
C406 C409 1.348 . S
C406 H438 0.929 . S
C407 C408 1.358 . S
C407 C409 1.356 . S
C407 H439 0.930 . S
C408 N405 1.279 . S
C408 C407 1.358 . S
C408 H411 0.930 . S
C409 C406 1.348 . S
C409 C407 1.356 . S
H410 C404 0.930 . S
H411 C408 0.930 . S
O412 Li352 1.956 . S
O412 Li353 1.970 . S
O412 Li354 1.961 . S
O412 C356 1.325 . S
O413 Li352 1.970 . S
O413 Li353 1.956 . S
O413 Li355 1.961 . S
O413 C362 1.325 . S
O414 Li352 1.961 . S
O414 Li354 1.956 . S
O414 Li355 1.970 . S
O414 C384 1.325 . S
O415 Li353 1.961 . S
O415 Li354 1.970 . S
O415 Li355 1.956 . S
O415 C390 1.325 . S
H416 C358 0.929 . S
H417 C359 0.930 . S
H418 C360 0.930 . S
H419 C361 0.930 . S
H420 C363 0.930 . S
H421 C365 0.929 . S
H422 C366 0.930 . S
H423 C367 0.930 . S
H424 C370 0.930 . S
H425 C373 0.929 . S
H426 C378 0.929 . S
H427 C379 0.930 . S
H428 C386 0.929 . S
H429 C387 0.930 . S
H430 C388 0.930 . S
H431 C389 0.930 . S
H432 C391 0.929 . S
H433 C392 0.930 . S
H434 C393 0.930 . S
H435 C394 0.930 . S
H436 C398 0.929 . S
H437 C400 0.930 . S
H438 C406 0.929 . S
H439 C407 0.930 . S
Li440 N457 1.990 . S
Li440 O500 1.956 . S
Li440 O501 1.970 . S
Li440 O502 1.961 . S
Li441 N465 1.990 . S
Li441 O500 1.970 . S
Li441 O501 1.956 . S
Li441 O503 1.961 . S
Li442 N487 1.990 . S
Li442 O500 1.961 . S
Li442 O502 1.956 . S
Li442 O503 1.970 . S
Li443 N493 1.990 . S
Li443 O501 1.961 . S
Li443 O502 1.970 . S
Li443 O503 1.956 . S
C444 C446 1.348 . S
C444 C447 1.356 . S
C444 O500 1.325 . S
N445 C448 1.314 . S
N445 C449 1.279 . S
C446 C444 1.348 . S
C446 C448 1.353 . S
C446 H504 0.929 . S
C447 C444 1.356 . S
C447 C449 1.358 . S
C447 H505 0.930 . S
C448 N445 1.314 . S
C448 C446 1.353 . S
C448 H506 0.930 . S
C449 N445 1.279 . S
C449 C447 1.358 . S
C449 H507 0.930 . S
C450 C453 1.348 . S
C450 C454 1.356 . S
C450 O501 1.325 . S
C451 N452 1.279 . S
C451 C454 1.358 . S
C451 H508 0.930 . S
N452 C451 1.279 . S
N452 C455 1.314 . S
C453 C450 1.348 . S
C453 C455 1.353 . S
C453 H509 0.929 . S
C454 C450 1.356 . S
C454 C451 1.358 . S
C454 H510 0.930 . S
C455 N452 1.314 . S
C455 C453 1.353 . S
C455 H511 0.930 . S
C456 N457 1.314 . S
C456 C461 1.353 . S
C456 H462 0.930 . S
N457 Li440 1.990 . S
N457 C456 1.314 . S
N457 C459 1.279 . S
C458 C459 1.358 . S
C458 C460 1.356 . S
C458 H512 0.930 . S
C459 N457 1.279 . S
C459 C458 1.358 . S
C459 H463 0.930 . S
C460 C458 1.356 . S
C460 C461 1.348 . S
C461 C456 1.353 . S
C461 C460 1.348 . S
C461 H513 0.929 . S
H462 C456 0.930 . S
H463 C459 0.930 . S
C464 N465 1.314 . S
C464 C466 1.353 . S
C464 H470 0.930 . S
N465 Li441 1.990 . S
N465 C464 1.314 . S
N465 C468 1.279 . S
C466 C464 1.353 . S
C466 C469 1.348 . S
C466 H514 0.929 . S
C467 C468 1.358 . S
C467 C469 1.356 . S
C467 H515 0.930 . S
C468 N465 1.279 . S
C468 C467 1.358 . S
C468 H471 0.930 . S
C469 C466 1.348 . S
C469 C467 1.356 . S
H470 C464 0.930 . S
H471 C468 0.930 . S
C472 C474 1.348 . S
C472 C475 1.356 . S
C472 O502 1.325 . S
N473 C476 1.314 . S
N473 C477 1.279 . S
C474 C472 1.348 . S
C474 C476 1.353 . S
C474 H516 0.929 . S
C475 C472 1.356 . S
C475 C477 1.358 . S
C475 H517 0.930 . S
C476 N473 1.314 . S
C476 C474 1.353 . S
C476 H518 0.930 . S
C477 N473 1.279 . S
C477 C475 1.358 . S
C477 H519 0.930 . S
C478 C479 1.348 . S
C478 C480 1.356 . S
C478 O503 1.325 . S
C479 C478 1.348 . S
C479 C481 1.353 . S
C479 H520 0.929 . S
C480 C478 1.356 . S
C480 C482 1.358 . S
C480 H521 0.930 . S
C481 C479 1.353 . S
C481 N483 1.314 . S
C481 H522 0.930 . S
C482 C480 1.358 . S
C482 N483 1.279 . S
C482 H523 0.930 . S
N483 C481 1.314 . S
N483 C482 1.279 . S
C484 C486 1.353 . S
C484 N487 1.314 . S
C484 H490 0.930 . S
C485 N487 1.279 . S
C485 C488 1.358 . S
C485 H491 0.930 . S
C486 C484 1.353 . S
C486 C489 1.348 . S
C486 H524 0.929 . S
N487 Li442 1.990 . S
N487 C484 1.314 . S
N487 C485 1.279 . S
C488 C485 1.358 . S
C488 C489 1.356 . S
C488 H525 0.930 . S
C489 C486 1.348 . S
C489 C488 1.356 . S
H490 C484 0.930 . S
H491 C485 0.930 . S
C492 N493 1.314 . S
C492 C494 1.353 . S
C492 H498 0.930 . S
N493 Li443 1.990 . S
N493 C492 1.314 . S
N493 C496 1.279 . S
C494 C492 1.353 . S
C494 C497 1.348 . S
C494 H526 0.929 . S
C495 C496 1.358 . S
C495 C497 1.356 . S
C495 H527 0.930 . S
C496 N493 1.279 . S
C496 C495 1.358 . S
C496 H499 0.930 . S
C497 C494 1.348 . S
C497 C495 1.356 . S
H498 C492 0.930 . S
H499 C496 0.930 . S
O500 Li440 1.956 . S
O500 Li441 1.970 . S
O500 Li442 1.961 . S
O500 C444 1.325 . S
O501 Li440 1.970 . S
O501 Li441 1.956 . S
O501 Li443 1.961 . S
O501 C450 1.325 . S
O502 Li440 1.961 . S
O502 Li442 1.956 . S
O502 Li443 1.970 . S
O502 C472 1.325 . S
O503 Li441 1.961 . S
O503 Li442 1.970 . S
O503 Li443 1.956 . S
O503 C478 1.325 . S
H504 C446 0.929 . S
H505 C447 0.930 . S
H506 C448 0.930 . S
H507 C449 0.930 . S
H508 C451 0.930 . S
H509 C453 0.929 . S
H510 C454 0.930 . S
H511 C455 0.930 . S
H512 C458 0.930 . S
H513 C461 0.929 . S
H514 C466 0.929 . S
H515 C467 0.930 . S
H516 C474 0.929 . S
H517 C475 0.930 . S
H518 C476 0.930 . S
H519 C477 0.930 . S
H520 C479 0.929 . S
H521 C480 0.930 . S
H522 C481 0.930 . S
H523 C482 0.930 . S
H524 C486 0.929 . S
H525 C488 0.930 . S
H526 C494 0.929 . S
H527 C495 0.930 . S
Li528 N545 1.990 . S
Li528 O588 1.956 . S
Li528 O589 1.970 . S
Li528 O590 1.961 . S
Li529 N553 1.990 . S
Li529 O588 1.970 . S
Li529 O589 1.956 . S
Li529 O591 1.961 . S
Li530 N575 1.990 . S
Li530 O588 1.961 . S
Li530 O590 1.956 . S
Li530 O591 1.970 . S
Li531 N581 1.990 . S
Li531 O589 1.961 . S
Li531 O590 1.970 . S
Li531 O591 1.956 . S
C532 C534 1.348 . S
C532 C535 1.356 . S
C532 O588 1.325 . S
N533 C536 1.314 . S
N533 C537 1.279 . S
C534 C532 1.348 . S
C534 C536 1.353 . S
C534 H592 0.929 . S
C535 C532 1.356 . S
C535 C537 1.358 . S
C535 H593 0.930 . S
C536 N533 1.314 . S
C536 C534 1.353 . S
C536 H594 0.930 . S
C537 N533 1.279 . S
C537 C535 1.358 . S
C537 H595 0.930 . S
C538 C541 1.348 . S
C538 C542 1.356 . S
C538 O589 1.325 . S
C539 N540 1.279 . S
C539 C542 1.358 . S
C539 H596 0.930 . S
N540 C539 1.279 . S
N540 C543 1.314 . S
C541 C538 1.348 . S
C541 C543 1.353 . S
C541 H597 0.929 . S
C542 C538 1.356 . S
C542 C539 1.358 . S
C542 H598 0.930 . S
C543 N540 1.314 . S
C543 C541 1.353 . S
C543 H599 0.930 . S
C544 N545 1.314 . S
C544 C549 1.353 . S
C544 H550 0.930 . S
N545 Li528 1.990 . S
N545 C544 1.314 . S
N545 C547 1.279 . S
C546 C547 1.358 . S
C546 C548 1.356 . S
C546 H600 0.930 . S
C547 N545 1.279 . S
C547 C546 1.358 . S
C547 H551 0.930 . S
C548 C546 1.356 . S
C548 C549 1.348 . S
C549 C544 1.353 . S
C549 C548 1.348 . S
C549 H601 0.929 . S
H550 C544 0.930 . S
H551 C547 0.930 . S
C552 N553 1.314 . S
C552 C554 1.353 . S
C552 H558 0.930 . S
N553 Li529 1.990 . S
N553 C552 1.314 . S
N553 C556 1.279 . S
C554 C552 1.353 . S
C554 C557 1.348 . S
C554 H602 0.929 . S
C555 C556 1.358 . S
C555 C557 1.356 . S
C555 H603 0.930 . S
C556 N553 1.279 . S
C556 C555 1.358 . S
C556 H559 0.930 . S
C557 C554 1.348 . S
C557 C555 1.356 . S
H558 C552 0.930 . S
H559 C556 0.930 . S
C560 C562 1.348 1_655 S
C560 C563 1.356 1_655 S
C560 O590 1.325 . S
N561 C564 1.314 . S
N561 C565 1.279 . S
C562 C560 1.348 1_455 S
C562 C564 1.353 . S
C562 H604 0.929 1_455 S
C563 C560 1.356 1_455 S
C563 C565 1.358 . S
C563 H605 0.930 . S
C564 N561 1.314 . S
C564 C562 1.353 . S
C564 H606 0.930 . S
C565 N561 1.279 . S
C565 C563 1.358 . S
C565 H607 0.930 . S
C566 C567 1.348 . S
C566 C568 1.356 . S
C566 O591 1.325 . S
C567 C566 1.348 . S
C567 C569 1.353 . S
C567 H608 0.929 . S
C568 C566 1.356 . S
C568 C570 1.358 . S
C568 H609 0.930 . S
C569 C567 1.353 . S
C569 N571 1.314 . S
C569 H610 0.930 . S
C570 C568 1.358 . S
C570 N571 1.279 . S
C570 H611 0.930 . S
N571 C569 1.314 . S
N571 C570 1.279 . S
C572 C574 1.335 1_655 S
C572 N575 1.314 . S
C572 H578 0.930 . S
C573 N575 1.279 1_455 S
C573 C576 1.358 . S
C573 H579 0.930 . S
C574 C572 1.335 1_455 S
C574 C577 1.375 . S
C574 H612 0.921 1_455 S
N575 Li530 1.990 . S
N575 C572 1.314 . S
N575 C573 1.279 1_655 S
C576 C573 1.358 . S
C576 C577 1.356 . S
C576 H613 0.930 . S
C577 C574 1.375 . S
C577 C576 1.356 . S
H578 C572 0.930 . S
H579 C573 0.930 . S
C580 N581 1.314 . S
C580 C582 1.353 . S
C580 H586 0.930 . S
N581 Li531 1.990 . S
N581 C580 1.314 . S
N581 C584 1.279 . S
C582 C580 1.353 . S
C582 C585 1.348 . S
C582 H614 0.929 . S
C583 C584 1.358 . S
C583 C585 1.356 . S
C583 H615 0.930 . S
C584 N581 1.279 . S
C584 C583 1.358 . S
C584 H587 0.930 . S
C585 C582 1.348 . S
C585 C583 1.356 . S
H586 C580 0.930 . S
H587 C584 0.930 . S
O588 Li528 1.956 . S
O588 Li529 1.970 . S
O588 Li530 1.961 . S
O588 C532 1.325 . S
O589 Li528 1.970 . S
O589 Li529 1.956 . S
O589 Li531 1.961 . S
O589 C538 1.325 . S
O590 Li528 1.961 . S
O590 Li530 1.956 . S
O590 Li531 1.970 . S
O590 C560 1.325 . S
O591 Li529 1.961 . S
O591 Li530 1.970 . S
O591 Li531 1.956 . S
O591 C566 1.325 . S
H592 C534 0.929 . S
H593 C535 0.930 . S
H594 C536 0.930 . S
H595 C537 0.930 . S
H596 C539 0.930 . S
H597 C541 0.929 . S
H598 C542 0.930 . S
H599 C543 0.930 . S
H600 C546 0.930 . S
H601 C549 0.929 . S
H602 C554 0.929 . S
H603 C555 0.930 . S
H604 C562 0.929 1_655 S
H605 C563 0.930 . S
H606 C564 0.930 . S
H607 C565 0.930 . S
H608 C567 0.929 . S
H609 C568 0.930 . S
H610 C569 0.930 . S
H611 C570 0.930 . S
H612 C574 0.921 1_655 S
H613 C576 0.930 . S
H614 C582 0.929 . S
H615 C583 0.930 . S
Li616 N633 1.990 . S
Li616 O676 1.956 . S
Li616 O677 1.970 . S
Li616 O678 1.961 . S
Li617 N641 1.990 . S
Li617 O676 1.970 . S
Li617 O677 1.956 . S
Li617 O679 1.961 . S
Li618 N663 1.990 . S
Li618 O676 1.961 . S
Li618 O678 1.956 . S
Li618 O679 1.970 . S
Li619 N669 1.990 . S
Li619 O677 1.961 . S
Li619 O678 1.970 . S
Li619 O679 1.956 . S
C620 C622 1.348 . S
C620 C623 1.356 . S
C620 O676 1.325 . S
N621 C624 1.314 . S
N621 C625 1.279 . S
C622 C620 1.348 . S
C622 C624 1.353 . S
C622 H680 0.929 . S
C623 C620 1.356 . S
C623 C625 1.358 . S
C623 H681 0.930 . S
C624 N621 1.314 . S
C624 C622 1.353 . S
C624 H682 0.930 . S
C625 N621 1.279 . S
C625 C623 1.358 . S
C625 H683 0.930 . S
C626 C629 1.348 . S
C626 C630 1.356 . S
C626 O677 1.325 . S
C627 N628 1.279 . S
C627 C630 1.358 . S
C627 H684 0.930 . S
N628 C627 1.279 . S
N628 C631 1.314 . S
C629 C626 1.348 . S
C629 C631 1.353 . S
C629 H685 0.929 . S
C630 C626 1.356 . S
C630 C627 1.358 . S
C630 H686 0.930 . S
C631 N628 1.314 . S
C631 C629 1.353 . S
C631 H687 0.930 . S
C632 N633 1.314 . S
C632 C637 1.353 . S
C632 H638 0.930 . S
N633 Li616 1.990 . S
N633 C632 1.314 . S
N633 C635 1.279 . S
C634 C635 1.358 . S
C634 C636 1.356 . S
C634 H688 0.930 . S
C635 N633 1.279 . S
C635 C634 1.358 . S
C635 H639 0.930 . S
C636 C634 1.356 . S
C636 C637 1.348 . S
C637 C632 1.353 . S
C637 C636 1.348 . S
C637 H689 0.929 . S
H638 C632 0.930 . S
H639 C635 0.930 . S
C640 N641 1.314 . S
C640 C642 1.353 . S
C640 H646 0.930 . S
N641 Li617 1.990 . S
N641 C640 1.314 . S
N641 C644 1.279 . S
C642 C640 1.353 . S
C642 C645 1.348 . S
C642 H690 0.929 . S
C643 C644 1.358 . S
C643 C645 1.356 . S
C643 H691 0.930 . S
C644 N641 1.279 . S
C644 C643 1.358 . S
C644 H647 0.930 . S
C645 C642 1.348 . S
C645 C643 1.356 . S
H646 C640 0.930 . S
H647 C644 0.930 . S
C648 C650 1.348 1_565 S
C648 C651 1.356 1_565 S
C648 O678 1.325 . S
N649 C652 1.314 . S
N649 C653 1.279 . S
C650 C648 1.348 1_545 S
C650 C652 1.353 . S
C650 H692 0.929 1_545 S
C651 C648 1.356 1_545 S
C651 C653 1.358 . S
C651 H693 0.930 . S
C652 N649 1.314 . S
C652 C650 1.353 . S
C652 H694 0.930 . S
C653 N649 1.279 . S
C653 C651 1.358 . S
C653 H695 0.930 . S
C654 C655 1.348 . S
C654 C656 1.356 . S
C654 O679 1.325 . S
C655 C654 1.348 . S
C655 C657 1.353 . S
C655 H696 0.929 . S
C656 C654 1.356 . S
C656 C658 1.358 . S
C656 H697 0.930 . S
C657 C655 1.353 . S
C657 N659 1.314 . S
C657 H698 0.930 . S
C658 C656 1.358 . S
C658 N659 1.279 . S
C658 H699 0.930 . S
N659 C657 1.314 . S
N659 C658 1.279 . S
C660 C662 1.335 1_565 S
C660 N663 1.314 . S
C660 H666 0.930 . S
C661 N663 1.279 1_545 S
C661 C664 1.358 . S
C661 H667 0.930 . S
C662 C660 1.335 1_545 S
C662 C665 1.375 . S
C662 H700 0.921 1_545 S
N663 Li618 1.990 . S
N663 C660 1.314 . S
N663 C661 1.279 1_565 S
C664 C661 1.358 . S
C664 C665 1.356 . S
C664 H701 0.930 . S
C665 C662 1.375 . S
C665 C664 1.356 . S
H666 C660 0.930 . S
H667 C661 0.930 . S
C668 N669 1.314 . S
C668 C670 1.353 . S
C668 H674 0.930 . S
N669 Li619 1.990 . S
N669 C668 1.314 . S
N669 C672 1.279 . S
C670 C668 1.353 . S
C670 C673 1.348 . S
C670 H702 0.929 . S
C671 C672 1.358 . S
C671 C673 1.356 . S
C671 H703 0.930 . S
C672 N669 1.279 . S
C672 C671 1.358 . S
C672 H675 0.930 . S
C673 C670 1.348 . S
C673 C671 1.356 . S
H674 C668 0.930 . S
H675 C672 0.930 . S
O676 Li616 1.956 . S
O676 Li617 1.970 . S
O676 Li618 1.961 . S
O676 C620 1.325 . S
O677 Li616 1.970 . S
O677 Li617 1.956 . S
O677 Li619 1.961 . S
O677 C626 1.325 . S
O678 Li616 1.961 . S
O678 Li618 1.956 . S
O678 Li619 1.970 . S
O678 C648 1.325 . S
O679 Li617 1.961 . S
O679 Li618 1.970 . S
O679 Li619 1.956 . S
O679 C654 1.325 . S
H680 C622 0.929 . S
H681 C623 0.930 . S
H682 C624 0.930 . S
H683 C625 0.930 . S
H684 C627 0.930 . S
H685 C629 0.929 . S
H686 C630 0.930 . S
H687 C631 0.930 . S
H688 C634 0.930 . S
H689 C637 0.929 . S
H690 C642 0.929 . S
H691 C643 0.930 . S
H692 C650 0.929 1_565 S
H693 C651 0.930 . S
H694 C652 0.930 . S
H695 C653 0.930 . S
H696 C655 0.929 . S
H697 C656 0.930 . S
H698 C657 0.930 . S
H699 C658 0.930 . S
H700 C662 0.921 1_565 S
H701 C664 0.930 . S
H702 C670 0.929 . S
H703 C671 0.930 . S
Li704 N721 1.990 . S
Li704 O764 1.956 . S
Li704 O765 1.970 . S
Li704 O766 1.961 . S
Li705 N729 1.990 . S
Li705 O764 1.970 . S
Li705 O765 1.956 . S
Li705 O767 1.961 . S
Li706 N751 1.990 . S
Li706 O764 1.961 . S
Li706 O766 1.956 . S
Li706 O767 1.970 . S
Li707 N757 1.990 . S
Li707 O765 1.961 . S
Li707 O766 1.970 . S
Li707 O767 1.956 . S
C708 C710 1.348 . S
C708 C711 1.356 . S
C708 O764 1.325 1_554 S
N709 C712 1.314 . S
N709 C713 1.279 . S
C710 C708 1.348 . S
C710 C712 1.353 . S
C710 H768 0.929 . S
C711 C708 1.356 . S
C711 C713 1.358 . S
C711 H769 0.930 . S
C712 N709 1.314 . S
C712 C710 1.353 . S
C712 H770 0.930 . S
C713 N709 1.279 . S
C713 C711 1.358 . S
C713 H771 0.930 . S
C714 C717 1.348 . S
C714 C718 1.356 . S
C714 O765 1.325 . S
C715 N716 1.279 . S
C715 C718 1.358 . S
C715 H772 0.930 . S
N716 C715 1.279 . S
N716 C719 1.314 . S
C717 C714 1.348 . S
C717 C719 1.353 . S
C717 H773 0.929 . S
C718 C714 1.356 . S
C718 C715 1.358 . S
C718 H774 0.930 . S
C719 N716 1.314 . S
C719 C717 1.353 . S
C719 H775 0.930 1_565 S
C720 N721 1.314 . S
C720 C725 1.353 . S
C720 H726 0.930 . S
N721 Li704 1.990 . S
N721 C720 1.314 . S
N721 C723 1.279 . S
C722 C723 1.358 . S
C722 C724 1.356 . S
C722 H776 0.930 1_556 S
C723 N721 1.279 . S
C723 C722 1.358 . S
C723 H727 0.930 . S
C724 C722 1.356 . S
C724 C725 1.348 . S
C725 C720 1.353 . S
C725 C724 1.348 . S
C725 H777 0.929 . S
H726 C720 0.930 . S
H727 C723 0.930 . S
C728 N729 1.314 . S
C728 C730 1.353 . S
C728 H734 0.930 . S
N729 Li705 1.990 . S
N729 C728 1.314 . S
N729 C732 1.279 . S
C730 C728 1.353 . S
C730 C733 1.348 . S
C730 H778 0.929 . S
C731 C732 1.358 . S
C731 C733 1.356 . S
C731 H779 0.930 . S
C732 N729 1.279 . S
C732 C731 1.358 . S
C732 H735 0.930 . S
C733 C730 1.348 . S
C733 C731 1.356 . S
H734 C728 0.930 . S
H735 C732 0.930 . S
C736 C738 1.348 . S
C736 C739 1.356 . S
C736 O766 1.325 . S
N737 C740 1.314 . S
N737 C741 1.279 . S
C738 C736 1.348 . S
C738 C740 1.353 . S
C738 H780 0.929 . S
C739 C736 1.356 . S
C739 C741 1.358 . S
C739 H781 0.930 . S
C740 N737 1.314 . S
C740 C738 1.353 . S
C740 H782 0.930 . S
C741 N737 1.279 . S
C741 C739 1.358 . S
C741 H783 0.930 . S
C742 C743 1.348 . S
C742 C744 1.356 . S
C742 O767 1.325 . S
C743 C742 1.348 . S
C743 C745 1.353 . S
C743 H784 0.929 . S
C744 C742 1.356 . S
C744 C746 1.358 . S
C744 H785 0.930 . S
C745 C743 1.353 . S
C745 N747 1.314 . S
C745 H786 0.930 . S
C746 C744 1.358 . S
C746 N747 1.279 . S
C746 H787 0.930 . S
N747 C745 1.314 . S
N747 C746 1.279 . S
C748 C750 1.353 . S
C748 N751 1.314 1_554 S
C748 H754 0.930 . S
C749 N751 1.279 . S
C749 C752 1.358 . S
C749 H755 0.930 . S
C750 C748 1.353 . S
C750 C753 1.348 . S
C750 H788 0.929 . S
N751 Li706 1.990 . S
N751 C748 1.314 1_556 S
N751 C749 1.279 . S
C752 C749 1.358 . S
C752 C753 1.356 1_556 S
C752 H789 0.930 . S
C753 C750 1.348 . S
C753 C752 1.356 1_554 S
H754 C748 0.930 . S
H755 C749 0.930 . S
C756 N757 1.314 . S
C756 C758 1.353 . S
C756 H762 0.930 . S
N757 Li707 1.990 . S
N757 C756 1.314 . S
N757 C760 1.279 . S
C758 C756 1.353 . S
C758 C761 1.348 . S
C758 H790 0.929 . S
C759 C760 1.358 . S
C759 C761 1.356 . S
C759 H791 0.930 . S
C760 N757 1.279 . S
C760 C759 1.358 . S
C760 H763 0.930 . S
C761 C758 1.348 . S
C761 C759 1.356 . S
H762 C756 0.930 . S
H763 C760 0.930 . S
O764 Li704 1.956 . S
O764 Li705 1.970 . S
O764 Li706 1.961 . S
O764 C708 1.325 1_556 S
O765 Li704 1.970 . S
O765 Li705 1.956 . S
O765 Li707 1.961 . S
O765 C714 1.325 . S
O766 Li704 1.961 . S
O766 Li706 1.956 . S
O766 Li707 1.970 . S
O766 C736 1.325 . S
O767 Li705 1.961 . S
O767 Li706 1.970 . S
O767 Li707 1.956 . S
O767 C742 1.325 . S
H768 C710 0.929 . S
H769 C711 0.930 . S
H770 C712 0.930 . S
H771 C713 0.930 . S
H772 C715 0.930 . S
H773 C717 0.929 . S
H774 C718 0.930 . S
H775 C719 0.930 1_545 S
H776 C722 0.930 1_554 S
H777 C725 0.929 . S
H778 C730 0.929 . S
H779 C731 0.930 . S
H780 C738 0.929 . S
H781 C739 0.930 . S
H782 C740 0.930 . S
H783 C741 0.930 . S
H784 C743 0.929 . S
H785 C744 0.930 . S
H786 C745 0.930 . S
H787 C746 0.930 . S
H788 C750 0.929 . S
H789 C752 0.930 . S
H790 C758 0.929 . S
H791 C759 0.930 . S
Li792 N809 1.990 . S
Li792 O852 1.956 . S
Li792 O853 1.970 . S
Li792 O854 1.961 . S
Li793 N817 1.990 . S
Li793 O852 1.970 . S
Li793 O853 1.956 . S
Li793 O855 1.961 . S
Li794 N839 1.990 . S
Li794 O852 1.961 . S
Li794 O854 1.956 . S
Li794 O855 1.970 . S
Li795 N845 1.990 . S
Li795 O853 1.961 . S
Li795 O854 1.970 . S
Li795 O855 1.956 . S
C796 C798 1.348 . S
C796 C799 1.356 . S
C796 O852 1.325 . S
N797 C800 1.314 . S
N797 C801 1.279 . S
C798 C796 1.348 . S
C798 C800 1.353 . S
C798 H856 0.929 . S
C799 C796 1.356 . S
C799 C801 1.358 . S
C799 H857 0.930 . S
C800 N797 1.314 . S
C800 C798 1.353 . S
C800 H858 0.930 . S
C801 N797 1.279 . S
C801 C799 1.358 . S
C801 H859 0.930 . S
C802 C805 1.348 . S
C802 C806 1.356 . S
C802 O853 1.325 1_554 S
C803 N804 1.279 . S
C803 C806 1.358 . S
C803 H860 0.930 . S
N804 C803 1.279 . S
N804 C807 1.314 . S
C805 C802 1.348 . S
C805 C807 1.353 . S
C805 H861 0.929 . S
C806 C802 1.356 . S
C806 C803 1.358 . S
C806 H862 0.930 . S
C807 N804 1.314 . S
C807 C805 1.353 . S
C807 H863 0.930 . S
C808 N809 1.314 . S
C808 C813 1.353 . S
C808 H814 0.930 . S
N809 Li792 1.990 . S
N809 C808 1.314 . S
N809 C811 1.279 . S
C810 C811 1.358 . S
C810 C812 1.356 . S
C810 H864 0.930 . S
C811 N809 1.279 . S
C811 C810 1.358 . S
C811 H815 0.930 . S
C812 C810 1.356 . S
C812 C813 1.348 . S
C813 C808 1.353 . S
C813 C812 1.348 . S
C813 H865 0.929 . S
H814 C808 0.930 . S
H815 C811 0.930 . S
C816 N817 1.314 . S
C816 C818 1.353 . S
C816 H822 0.930 . S
N817 Li793 1.990 . S
N817 C816 1.314 . S
N817 C820 1.279 . S
C818 C816 1.353 . S
C818 C821 1.348 . S
C818 H866 0.929 . S
C819 C820 1.358 . S
C819 C821 1.356 . S
C819 H867 0.930 1_556 S
C820 N817 1.279 . S
C820 C819 1.358 . S
C820 H823 0.930 . S
C821 C818 1.348 . S
C821 C819 1.356 . S
H822 C816 0.930 . S
H823 C820 0.930 . S
C824 C826 1.348 . S
C824 C827 1.356 . S
C824 O854 1.325 . S
N825 C828 1.314 . S
N825 C829 1.279 . S
C826 C824 1.348 . S
C826 C828 1.353 . S
C826 H868 0.929 . S
C827 C824 1.356 . S
C827 C829 1.358 . S
C827 H869 0.930 . S
C828 N825 1.314 . S
C828 C826 1.353 . S
C828 H870 0.930 . S
C829 N825 1.279 . S
C829 C827 1.358 . S
C829 H871 0.930 . S
C830 C831 1.348 . S
C830 C832 1.356 . S
C830 O855 1.325 . S
C831 C830 1.348 . S
C831 C833 1.353 . S
C831 H872 0.929 . S
C832 C830 1.356 . S
C832 C834 1.358 . S
C832 H873 0.930 . S
C833 C831 1.353 . S
C833 N835 1.314 . S
C833 H874 0.930 . S
C834 C832 1.358 . S
C834 N835 1.279 . S
C834 H875 0.930 . S
N835 C833 1.314 . S
N835 C834 1.279 . S
C836 C838 1.353 . S
C836 N839 1.314 . S
C836 H842 0.930 . S
C837 N839 1.279 . S
C837 C840 1.358 . S
C837 H843 0.930 . S
C838 C836 1.353 . S
C838 C841 1.348 . S
C838 H876 0.929 . S
N839 Li794 1.990 . S
N839 C836 1.314 . S
N839 C837 1.279 . S
C840 C837 1.358 . S
C840 C841 1.356 . S
C840 H877 0.930 . S
C841 C838 1.348 . S
C841 C840 1.356 . S
H842 C836 0.930 . S
H843 C837 0.930 . S
C844 N845 1.314 1_554 S
C844 C846 1.353 . S
C844 H850 0.930 . S
N845 Li795 1.990 . S
N845 C844 1.314 1_556 S
N845 C848 1.279 . S
C846 C844 1.353 . S
C846 C849 1.348 . S
C846 H878 0.929 . S
C847 C848 1.358 . S
C847 C849 1.356 1_556 S
C847 H879 0.930 . S
C848 N845 1.279 . S
C848 C847 1.358 . S
C848 H851 0.930 . S
C849 C846 1.348 . S
C849 C847 1.356 1_554 S
H850 C844 0.930 . S
H851 C848 0.930 . S
O852 Li792 1.956 . S
O852 Li793 1.970 . S
O852 Li794 1.961 . S
O852 C796 1.325 . S
O853 Li792 1.970 . S
O853 Li793 1.956 . S
O853 Li795 1.961 . S
O853 C802 1.325 1_556 S
O854 Li792 1.961 . S
O854 Li794 1.956 . S
O854 Li795 1.970 . S
O854 C824 1.325 . S
O855 Li793 1.961 . S
O855 Li794 1.970 . S
O855 Li795 1.956 . S
O855 C830 1.325 . S
H856 C798 0.929 . S
H857 C799 0.930 . S
H858 C800 0.930 . S
H859 C801 0.930 . S
H860 C803 0.930 . S
H861 C805 0.929 . S
H862 C806 0.930 . S
H863 C807 0.930 . S
H864 C810 0.930 . S
H865 C813 0.929 . S
H866 C818 0.929 . S
H867 C819 0.930 1_554 S
H868 C826 0.929 . S
H869 C827 0.930 . S
H870 C828 0.930 . S
H871 C829 0.930 . S
H872 C831 0.929 . S
H873 C832 0.930 . S
H874 C833 0.930 . S
H875 C834 0.930 . S
H876 C838 0.929 . S
H877 C840 0.930 . S
H878 C846 0.929 . S
H879 C847 0.930 . S
Li880 N897 1.990 . S
Li880 O940 1.956 . S
Li880 O941 1.970 . S
Li880 O942 1.961 . S
Li881 N905 1.990 . S
Li881 O940 1.970 . S
Li881 O941 1.956 . S
Li881 O943 1.961 . S
Li882 N927 1.990 . S
Li882 O940 1.961 . S
Li882 O942 1.956 . S
Li882 O943 1.970 . S
Li883 N933 1.990 . S
Li883 O941 1.961 . S
Li883 O942 1.970 . S
Li883 O943 1.956 . S
C884 C886 1.348 . S
C884 C887 1.356 . S
C884 O940 1.325 . S
N885 C888 1.314 . S
N885 C889 1.279 . S
C886 C884 1.348 . S
C886 C888 1.353 . S
C886 H944 0.929 . S
C887 C884 1.356 . S
C887 C889 1.358 . S
C887 H945 0.930 . S
C888 N885 1.314 . S
C888 C886 1.353 . S
C888 H946 0.930 . S
C889 N885 1.279 . S
C889 C887 1.358 . S
C889 H947 0.930 . S
C890 C893 1.352 . S
C890 C894 1.356 1_455 S
C890 O941 1.325 . S
C891 N892 1.279 . S
C891 C894 1.358 . S
C891 H948 0.930 . S
N892 C891 1.279 . S
N892 C895 1.314 . S
C893 C890 1.352 . S
C893 C895 1.335 1_455 S
C893 H949 0.944 . S
C894 C890 1.356 1_655 S
C894 C891 1.358 . S
C894 H950 0.930 . S
C895 N892 1.314 . S
C895 C893 1.335 1_655 S
C895 H951 0.930 . S
C896 N897 1.314 . S
C896 C901 1.353 . S
C896 H902 0.930 . S
N897 Li880 1.990 . S
N897 C896 1.314 . S
N897 C899 1.279 . S
C898 C899 1.358 . S
C898 C900 1.356 . S
C898 H952 0.930 . S
C899 N897 1.279 . S
C899 C898 1.358 . S
C899 H903 0.930 . S
C900 C898 1.356 . S
C900 C901 1.348 . S
C901 C896 1.353 . S
C901 C900 1.348 . S
C901 H953 0.929 . S
H902 C896 0.930 . S
H903 C899 0.930 . S
C904 N905 1.314 1_554 S
C904 C906 1.353 . S
C904 H910 0.930 . S
N905 Li881 1.990 . S
N905 C904 1.314 1_556 S
N905 C908 1.279 . S
C906 C904 1.353 . S
C906 C909 1.348 . S
C906 H954 0.929 . S
C907 C908 1.358 . S
C907 C909 1.356 1_556 S
C907 H955 0.930 . S
C908 N905 1.279 . S
C908 C907 1.358 . S
C908 H911 0.930 . S
C909 C906 1.348 . S
C909 C907 1.356 1_554 S
H910 C904 0.930 . S
H911 C908 0.930 . S
C912 C914 1.348 . S
C912 C915 1.356 . S
C912 O942 1.325 . S
N913 C916 1.314 . S
N913 C917 1.279 . S
C914 C912 1.348 . S
C914 C916 1.353 . S
C914 H956 0.929 . S
C915 C912 1.356 . S
C915 C917 1.358 . S
C915 H957 0.930 . S
C916 N913 1.314 . S
C916 C914 1.353 . S
C916 H958 0.930 . S
C917 N913 1.279 . S
C917 C915 1.358 . S
C917 H959 0.930 . S
C918 C919 1.348 . S
C918 C920 1.356 . S
C918 O943 1.325 1_554 S
C919 C918 1.348 . S
C919 C921 1.353 . S
C919 H960 0.929 . S
C920 C918 1.356 . S
C920 C922 1.358 . S
C920 H961 0.930 . S
C921 C919 1.353 . S
C921 N923 1.314 . S
C921 H962 0.930 . S
C922 C920 1.358 . S
C922 N923 1.279 . S
C922 H963 0.930 . S
N923 C921 1.314 . S
N923 C922 1.279 . S
C924 C926 1.353 . S
C924 N927 1.314 . S
C924 H930 0.930 . S
C925 N927 1.279 . S
C925 C928 1.358 . S
C925 H931 0.930 . S
C926 C924 1.353 . S
C926 C929 1.348 . S
C926 H964 0.929 . S
N927 Li882 1.990 . S
N927 C924 1.314 . S
N927 C925 1.279 . S
C928 C925 1.358 . S
C928 C929 1.356 . S
C928 H965 0.930 . S
C929 C926 1.348 . S
C929 C928 1.356 . S
H930 C924 0.930 . S
H931 C925 0.930 . S
C932 N933 1.314 1_655 S
C932 C934 1.353 . S
C932 H938 0.930 . S
N933 Li883 1.990 . S
N933 C932 1.314 1_455 S
N933 C936 1.279 . S
C934 C932 1.353 . S
C934 C937 1.348 . S
C934 H966 0.929 . S
C935 C936 1.358 1_655 S
C935 C937 1.356 . S
C935 H967 0.930 1_556 S
C936 N933 1.279 . S
C936 C935 1.358 1_455 S
C936 H939 0.930 . S
C937 C934 1.348 . S
C937 C935 1.356 . S
H938 C932 0.930 . S
H939 C936 0.930 . S
O940 Li880 1.956 . S
O940 Li881 1.970 . S
O940 Li882 1.961 . S
O940 C884 1.325 . S
O941 Li880 1.970 . S
O941 Li881 1.956 . S
O941 Li883 1.961 . S
O941 C890 1.325 . S
O942 Li880 1.961 . S
O942 Li882 1.956 . S
O942 Li883 1.970 . S
O942 C912 1.325 . S
O943 Li881 1.961 . S
O943 Li882 1.970 . S
O943 Li883 1.956 . S
O943 C918 1.325 1_556 S
H944 C886 0.929 . S
H945 C887 0.930 . S
H946 C888 0.930 . S
H947 C889 0.930 . S
H948 C891 0.930 . S
H949 C893 0.944 . S
H950 C894 0.930 . S
H951 C895 0.930 . S
H952 C898 0.930 . S
H953 C901 0.929 . S
H954 C906 0.929 . S
H955 C907 0.930 . S
H956 C914 0.929 . S
H957 C915 0.930 . S
H958 C916 0.930 . S
H959 C917 0.930 . S
H960 C919 0.929 . S
H961 C920 0.930 . S
H962 C921 0.930 . S
H963 C922 0.930 . S
H964 C926 0.929 . S
H965 C928 0.930 . S
H966 C934 0.929 . S
H967 C935 0.930 1_554 S
Li968 N985 1.990 . S
Li968 O1028 1.956 . S
Li968 O1029 1.970 . S
Li968 O1030 1.961 . S
Li969 N993 1.990 . S
Li969 O1028 1.970 . S
Li969 O1029 1.956 . S
Li969 O1031 1.961 . S
Li970 N1015 1.990 . S
Li970 O1028 1.961 . S
Li970 O1030 1.956 . S
Li970 O1031 1.970 . S
Li971 N1021 1.990 . S
Li971 O1029 1.961 . S
Li971 O1030 1.970 . S
Li971 O1031 1.956 . S
C972 C974 1.348 . S
C972 C975 1.356 . S
C972 O1028 1.325 . S
N973 C976 1.314 . S
N973 C977 1.279 . S
C974 C972 1.348 . S
C974 C976 1.353 . S
C974 H1032 0.929 . S
C975 C972 1.356 . S
C975 C977 1.358 . S
C975 H1033 0.930 . S
C976 N973 1.314 . S
C976 C974 1.353 . S
C976 H1034 0.930 1_655 S
C977 N973 1.279 . S
C977 C975 1.358 . S
C977 H1035 0.930 . S
C978 C981 1.348 . S
C978 C982 1.356 . S
C978 O1029 1.325 1_554 S
C979 N980 1.279 . S
C979 C982 1.358 . S
C979 H1036 0.930 . S
N980 C979 1.279 . S
N980 C983 1.314 . S
C981 C978 1.348 . S
C981 C983 1.353 . S
C981 H1037 0.929 . S
C982 C978 1.356 . S
C982 C979 1.358 . S
C982 H1038 0.930 . S
C983 N980 1.314 . S
C983 C981 1.353 . S
C983 H1039 0.930 . S
C984 N985 1.314 . S
C984 C989 1.353 . S
C984 H990 0.930 . S
N985 Li968 1.990 . S
N985 C984 1.314 . S
N985 C987 1.279 . S
C986 C987 1.358 . S
C986 C988 1.356 . S
C986 H1040 0.930 . S
C987 N985 1.279 . S
C987 C986 1.358 . S
C987 H991 0.930 . S
C988 C986 1.356 . S
C988 C989 1.348 . S
C989 C984 1.353 . S
C989 C988 1.348 . S
C989 H1041 0.929 . S
H990 C984 0.930 . S
H991 C987 0.930 . S
C992 N993 1.314 1_565 S
C992 C994 1.353 . S
C992 H998 0.930 . S
N993 Li969 1.990 . S
N993 C992 1.314 1_545 S
N993 C996 1.279 . S
C994 C992 1.353 . S
C994 C997 1.348 . S
C994 H1042 0.929 . S
C995 C996 1.358 1_565 S
C995 C997 1.356 . S
C995 H1043 0.930 1_556 S
C996 N993 1.279 . S
C996 C995 1.358 1_545 S
C996 H999 0.930 . S
C997 C994 1.348 . S
C997 C995 1.356 . S
H998 C992 0.930 . S
H999 C996 0.930 . S
C1000 C1002 1.348 . S
C1000 C1003 1.356 . S
C1000 O1030 1.325 . S
N1001 C1004 1.314 . S
N1001 C1005 1.279 . S
C1002 C1000 1.348 . S
C1002 C1004 1.353 . S
C1002 H1044 0.929 . S
C1003 C1000 1.356 . S
C1003 C1005 1.358 . S
C1003 H1045 0.930 . S
C1004 N1001 1.314 . S
C1004 C1002 1.353 . S
C1004 H1046 0.930 . S
C1005 N1001 1.279 . S
C1005 C1003 1.358 . S
C1005 H1047 0.930 . S
C1006 C1007 1.352 . S
C1006 C1008 1.356 1_545 S
C1006 O1031 1.325 . S
C1007 C1006 1.352 . S
C1007 C1009 1.335 1_545 S
C1007 H1048 0.943 . S
C1008 C1006 1.356 1_565 S
C1008 C1010 1.358 . S
C1008 H1049 0.930 . S
C1009 C1007 1.335 1_565 S
C1009 N1011 1.314 . S
C1009 H1050 0.930 . S
C1010 C1008 1.358 . S
C1010 N1011 1.279 . S
C1010 H1051 0.930 . S
N1011 C1009 1.314 . S
N1011 C1010 1.279 . S
C1012 C1014 1.353 . S
C1012 N1015 1.314 . S
C1012 H1018 0.930 . S
C1013 N1015 1.279 . S
C1013 C1016 1.358 . S
C1013 H1019 0.930 . S
C1014 C1012 1.353 . S
C1014 C1017 1.348 . S
C1014 H1052 0.929 . S
N1015 Li970 1.990 . S
N1015 C1012 1.314 . S
N1015 C1013 1.279 . S
C1016 C1013 1.358 . S
C1016 C1017 1.356 . S
C1016 H1053 0.930 . S
C1017 C1014 1.348 . S
C1017 C1016 1.356 . S
H1018 C1012 0.930 . S
H1019 C1013 0.930 . S
C1020 N1021 1.314 1_554 S
C1020 C1022 1.353 . S
C1020 H1026 0.930 . S
N1021 Li971 1.990 . S
N1021 C1020 1.314 1_556 S
N1021 C1024 1.279 . S
C1022 C1020 1.353 . S
C1022 C1025 1.348 . S
C1022 H1054 0.929 . S
C1023 C1024 1.358 . S
C1023 C1025 1.356 1_556 S
C1023 H1055 0.930 . S
C1024 N1021 1.279 . S
C1024 C1023 1.358 . S
C1024 H1027 0.930 . S
C1025 C1022 1.348 . S
C1025 C1023 1.356 1_554 S
H1026 C1020 0.930 . S
H1027 C1024 0.930 . S
O1028 Li968 1.956 . S
O1028 Li969 1.970 . S
O1028 Li970 1.961 . S
O1028 C972 1.325 . S
O1029 Li968 1.970 . S
O1029 Li969 1.956 . S
O1029 Li971 1.961 . S
O1029 C978 1.325 1_556 S
O1030 Li968 1.961 . S
O1030 Li970 1.956 . S
O1030 Li971 1.970 . S
O1030 C1000 1.325 . S
O1031 Li969 1.961 . S
O1031 Li970 1.970 . S
O1031 Li971 1.956 . S
O1031 C1006 1.325 . S
H1032 C974 0.929 . S
H1033 C975 0.930 . S
H1034 C976 0.930 1_455 S
H1035 C977 0.930 . S
H1036 C979 0.930 . S
H1037 C981 0.929 . S
H1038 C982 0.930 . S
H1039 C983 0.930 . S
H1040 C986 0.930 . S
H1041 C989 0.929 . S
H1042 C994 0.929 . S
H1043 C995 0.930 1_554 S
H1044 C1002 0.929 . S
H1045 C1003 0.930 . S
H1046 C1004 0.930 . S
H1047 C1005 0.930 . S
H1048 C1007 0.943 . S
H1049 C1008 0.930 . S
H1050 C1009 0.930 . S
H1051 C1010 0.930 . S
H1052 C1014 0.929 . S
H1053 C1016 0.930 . S
H1054 C1022 0.929 . S
H1055 C1023 0.930 . S
Li1056 N1073 1.990 . S
Li1056 O1116 1.956 . S
Li1056 O1117 1.970 . S
Li1056 O1118 1.961 . S
Li1057 N1081 1.990 . S
Li1057 O1116 1.970 . S
Li1057 O1117 1.956 . S
Li1057 O1119 1.961 . S
Li1058 N1103 1.990 . S
Li1058 O1116 1.961 . S
Li1058 O1118 1.956 . S
Li1058 O1119 1.970 . S
Li1059 N1109 1.990 . S
Li1059 O1117 1.961 . S
Li1059 O1118 1.970 . S
Li1059 O1119 1.956 . S
C1060 C1062 1.348 . S
C1060 C1063 1.356 . S
C1060 O1116 1.325 . S
N1061 C1064 1.314 . S
N1061 C1065 1.279 . S
C1062 C1060 1.348 . S
C1062 C1064 1.353 . S
C1062 H1120 0.929 . S
C1063 C1060 1.356 . S
C1063 C1065 1.358 . S
C1063 H1121 0.930 . S
C1064 N1061 1.314 . S
C1064 C1062 1.353 . S
C1064 H1122 0.930 . S
C1065 N1061 1.279 . S
C1065 C1063 1.358 . S
C1065 H1123 0.930 . S
C1066 C1069 1.348 . S
C1066 C1070 1.356 . S
C1066 O1117 1.325 . S
C1067 N1068 1.279 . S
C1067 C1070 1.358 . S
C1067 H1124 0.930 . S
N1068 C1067 1.279 . S
N1068 C1071 1.314 . S
C1069 C1066 1.348 . S
C1069 C1071 1.353 . S
C1069 H1125 0.929 . S
C1070 C1066 1.356 . S
C1070 C1067 1.358 . S
C1070 H1126 0.930 . S
C1071 N1068 1.314 . S
C1071 C1069 1.353 . S
C1071 H1127 0.930 . S
C1072 N1073 1.314 . S
C1072 C1077 1.353 . S
C1072 H1078 0.930 . S
N1073 Li1056 1.990 . S
N1073 C1072 1.314 . S
N1073 C1075 1.279 . S
C1074 C1075 1.358 . S
C1074 C1076 1.356 . S
C1074 H1128 0.930 . S
C1075 N1073 1.279 . S
C1075 C1074 1.358 . S
C1075 H1079 0.930 . S
C1076 C1074 1.356 . S
C1076 C1077 1.348 . S
C1077 C1072 1.353 . S
C1077 C1076 1.348 . S
C1077 H1129 0.929 . S
H1078 C1072 0.930 . S
H1079 C1075 0.930 . S
C1080 N1081 1.314 . S
C1080 C1082 1.353 . S
C1080 H1086 0.930 . S
N1081 Li1057 1.990 . S
N1081 C1080 1.314 . S
N1081 C1084 1.279 . S
C1082 C1080 1.353 . S
C1082 C1085 1.348 . S
C1082 H1130 0.929 . S
C1083 C1084 1.358 . S
C1083 C1085 1.356 . S
C1083 H1131 0.930 . S
C1084 N1081 1.279 . S
C1084 C1083 1.358 . S
C1084 H1087 0.930 . S
C1085 C1082 1.348 . S
C1085 C1083 1.356 . S
H1086 C1080 0.930 . S
H1087 C1084 0.930 . S
C1088 C1090 1.348 . S
C1088 C1091 1.356 . S
C1088 O1118 1.325 . S
N1089 C1092 1.314 . S
N1089 C1093 1.279 . S
C1090 C1088 1.348 . S
C1090 C1092 1.353 . S
C1090 H1132 0.929 . S
C1091 C1088 1.356 . S
C1091 C1093 1.358 . S
C1091 H1133 0.930 . S
C1092 N1089 1.314 . S
C1092 C1090 1.353 . S
C1092 H1134 0.930 . S
C1093 N1089 1.279 . S
C1093 C1091 1.358 . S
C1093 H1135 0.930 . S
C1094 C1095 1.348 . S
C1094 C1096 1.356 . S
C1094 O1119 1.325 . S
C1095 C1094 1.348 . S
C1095 C1097 1.353 . S
C1095 H1136 0.929 . S
C1096 C1094 1.356 . S
C1096 C1098 1.358 . S
C1096 H1137 0.930 . S
C1097 C1095 1.353 . S
C1097 N1099 1.314 . S
C1097 H1138 0.930 . S
C1098 C1096 1.358 . S
C1098 N1099 1.279 . S
C1098 H1139 0.930 . S
N1099 C1097 1.314 . S
N1099 C1098 1.279 . S
C1100 C1102 1.353 . S
C1100 N1103 1.314 . S
C1100 H1106 0.930 . S
C1101 N1103 1.279 . S
C1101 C1104 1.358 . S
C1101 H1107 0.930 . S
C1102 C1100 1.353 . S
C1102 C1105 1.348 . S
C1102 H1140 0.929 . S
N1103 Li1058 1.990 . S
N1103 C1100 1.314 . S
N1103 C1101 1.279 . S
C1104 C1101 1.358 . S
C1104 C1105 1.356 . S
C1104 H1141 0.930 . S
C1105 C1102 1.348 . S
C1105 C1104 1.356 . S
H1106 C1100 0.930 . S
H1107 C1101 0.930 . S
C1108 N1109 1.314 . S
C1108 C1110 1.353 . S
C1108 H1114 0.930 . S
N1109 Li1059 1.990 . S
N1109 C1108 1.314 . S
N1109 C1112 1.279 . S
C1110 C1108 1.353 . S
C1110 C1113 1.348 . S
C1110 H1142 0.929 . S
C1111 C1112 1.358 . S
C1111 C1113 1.356 . S
C1111 H1143 0.930 . S
C1112 N1109 1.279 . S
C1112 C1111 1.358 . S
C1112 H1115 0.930 . S
C1113 C1110 1.348 . S
C1113 C1111 1.356 . S
H1114 C1108 0.930 . S
H1115 C1112 0.930 . S
O1116 Li1056 1.956 . S
O1116 Li1057 1.970 . S
O1116 Li1058 1.961 . S
O1116 C1060 1.325 . S
O1117 Li1056 1.970 . S
O1117 Li1057 1.956 . S
O1117 Li1059 1.961 . S
O1117 C1066 1.325 . S
O1118 Li1056 1.961 . S
O1118 Li1058 1.956 . S
O1118 Li1059 1.970 . S
O1118 C1088 1.325 . S
O1119 Li1057 1.961 . S
O1119 Li1058 1.970 . S
O1119 Li1059 1.956 . S
O1119 C1094 1.325 . S
H1120 C1062 0.929 . S
H1121 C1063 0.930 . S
H1122 C1064 0.930 . S
H1123 C1065 0.930 . S
H1124 C1067 0.930 . S
H1125 C1069 0.929 . S
H1126 C1070 0.930 . S
H1127 C1071 0.930 . S
H1128 C1074 0.930 . S
H1129 C1077 0.929 . S
H1130 C1082 0.929 . S
H1131 C1083 0.930 . S
H1132 C1090 0.929 . S
H1133 C1091 0.930 . S
H1134 C1092 0.930 . S
H1135 C1093 0.930 . S
H1136 C1095 0.929 . S
H1137 C1096 0.930 . S
H1138 C1097 0.930 . S
H1139 C1098 0.930 . S
H1140 C1102 0.929 . S
H1141 C1104 0.930 . S
H1142 C1110 0.929 . S
H1143 C1111 0.930 . S
Li1144 N1161 1.990 . S
Li1144 O1204 1.956 . S
Li1144 O1205 1.970 . S
Li1144 O1206 1.961 . S
Li1145 N1169 1.990 . S
Li1145 O1204 1.970 . S
Li1145 O1205 1.956 . S
Li1145 O1207 1.961 . S
Li1146 N1191 1.990 . S
Li1146 O1204 1.961 . S
Li1146 O1206 1.956 . S
Li1146 O1207 1.970 . S
Li1147 N1197 1.990 . S
Li1147 O1205 1.961 . S
Li1147 O1206 1.970 . S
Li1147 O1207 1.956 . S
C1148 C1150 1.348 . S
C1148 C1151 1.356 . S
C1148 O1204 1.325 . S
N1149 C1152 1.314 . S
N1149 C1153 1.279 . S
C1150 C1148 1.348 . S
C1150 C1152 1.353 . S
C1150 H1208 0.929 . S
C1151 C1148 1.356 . S
C1151 C1153 1.358 . S
C1151 H1209 0.930 . S
C1152 N1149 1.314 . S
C1152 C1150 1.353 . S
C1152 H1210 0.930 1_655 S
C1153 N1149 1.279 . S
C1153 C1151 1.358 . S
C1153 H1211 0.930 . S
C1154 C1157 1.348 . S
C1154 C1158 1.356 . S
C1154 O1205 1.325 . S
C1155 N1156 1.279 . S
C1155 C1158 1.358 . S
C1155 H1212 0.930 . S
N1156 C1155 1.279 . S
N1156 C1159 1.314 . S
C1157 C1154 1.348 . S
C1157 C1159 1.353 . S
C1157 H1213 0.929 . S
C1158 C1154 1.356 . S
C1158 C1155 1.358 . S
C1158 H1214 0.930 . S
C1159 N1156 1.314 . S
C1159 C1157 1.353 . S
C1159 H1215 0.930 . S
C1160 N1161 1.314 . S
C1160 C1165 1.353 . S
C1160 H1166 0.930 . S
N1161 Li1144 1.990 . S
N1161 C1160 1.314 . S
N1161 C1163 1.279 . S
C1162 C1163 1.358 . S
C1162 C1164 1.356 . S
C1162 H1216 0.930 . S
C1163 N1161 1.279 . S
C1163 C1162 1.358 . S
C1163 H1167 0.930 . S
C1164 C1162 1.356 . S
C1164 C1165 1.348 . S
C1165 C1160 1.353 . S
C1165 C1164 1.348 . S
C1165 H1217 0.929 . S
H1166 C1160 0.930 . S
H1167 C1163 0.930 . S
C1168 N1169 1.314 . S
C1168 C1170 1.353 . S
C1168 H1174 0.930 . S
N1169 Li1145 1.990 . S
N1169 C1168 1.314 . S
N1169 C1172 1.279 . S
C1170 C1168 1.353 . S
C1170 C1173 1.348 . S
C1170 H1218 0.929 . S
C1171 C1172 1.358 . S
C1171 C1173 1.356 . S
C1171 H1219 0.930 . S
C1172 N1169 1.279 . S
C1172 C1171 1.358 . S
C1172 H1175 0.930 . S
C1173 C1170 1.348 . S
C1173 C1171 1.356 . S
H1174 C1168 0.930 . S
H1175 C1172 0.930 . S
C1176 C1178 1.348 . S
C1176 C1179 1.356 . S
C1176 O1206 1.325 . S
N1177 C1180 1.314 . S
N1177 C1181 1.279 . S
C1178 C1176 1.348 . S
C1178 C1180 1.353 . S
C1178 H1220 0.929 . S
C1179 C1176 1.356 . S
C1179 C1181 1.358 . S
C1179 H1221 0.930 . S
C1180 N1177 1.314 . S
C1180 C1178 1.353 . S
C1180 H1222 0.930 . S
C1181 N1177 1.279 . S
C1181 C1179 1.358 . S
C1181 H1223 0.930 . S
C1182 C1183 1.348 . S
C1182 C1184 1.356 . S
C1182 O1207 1.325 . S
C1183 C1182 1.348 . S
C1183 C1185 1.353 . S
C1183 H1224 0.929 . S
C1184 C1182 1.356 . S
C1184 C1186 1.358 . S
C1184 H1225 0.930 . S
C1185 C1183 1.353 . S
C1185 N1187 1.314 . S
C1185 H1226 0.930 . S
C1186 C1184 1.358 . S
C1186 N1187 1.279 . S
C1186 H1227 0.930 . S
N1187 C1185 1.314 . S
N1187 C1186 1.279 . S
C1188 C1190 1.353 . S
C1188 N1191 1.314 . S
C1188 H1194 0.930 . S
C1189 N1191 1.279 . S
C1189 C1192 1.358 . S
C1189 H1195 0.930 . S
C1190 C1188 1.353 . S
C1190 C1193 1.348 . S
C1190 H1228 0.929 . S
N1191 Li1146 1.990 . S
N1191 C1188 1.314 . S
N1191 C1189 1.279 . S
C1192 C1189 1.358 . S
C1192 C1193 1.356 . S
C1192 H1229 0.930 . S
C1193 C1190 1.348 . S
C1193 C1192 1.356 . S
H1194 C1188 0.930 . S
H1195 C1189 0.930 . S
C1196 N1197 1.314 . S
C1196 C1198 1.353 . S
C1196 H1202 0.930 . S
N1197 Li1147 1.990 . S
N1197 C1196 1.314 . S
N1197 C1200 1.279 . S
C1198 C1196 1.353 . S
C1198 C1201 1.348 . S
C1198 H1230 0.929 . S
C1199 C1200 1.358 . S
C1199 C1201 1.356 . S
C1199 H1231 0.930 . S
C1200 N1197 1.279 . S
C1200 C1199 1.358 . S
C1200 H1203 0.930 . S
C1201 C1198 1.348 . S
C1201 C1199 1.356 . S
H1202 C1196 0.930 . S
H1203 C1200 0.930 . S
O1204 Li1144 1.956 . S
O1204 Li1145 1.970 . S
O1204 Li1146 1.961 . S
O1204 C1148 1.325 . S
O1205 Li1144 1.970 . S
O1205 Li1145 1.956 . S
O1205 Li1147 1.961 . S
O1205 C1154 1.325 . S
O1206 Li1144 1.961 . S
O1206 Li1146 1.956 . S
O1206 Li1147 1.970 . S
O1206 C1176 1.325 . S
O1207 Li1145 1.961 . S
O1207 Li1146 1.970 . S
O1207 Li1147 1.956 . S
O1207 C1182 1.325 . S
H1208 C1150 0.929 . S
H1209 C1151 0.930 . S
H1210 C1152 0.930 1_455 S
H1211 C1153 0.930 . S
H1212 C1155 0.930 . S
H1213 C1157 0.929 . S
H1214 C1158 0.930 . S
H1215 C1159 0.930 . S
H1216 C1162 0.930 . S
H1217 C1165 0.929 . S
H1218 C1170 0.929 . S
H1219 C1171 0.930 . S
H1220 C1178 0.929 . S
H1221 C1179 0.930 . S
H1222 C1180 0.930 . S
H1223 C1181 0.930 . S
H1224 C1183 0.929 . S
H1225 C1184 0.930 . S
H1226 C1185 0.930 . S
H1227 C1186 0.930 . S
H1228 C1190 0.929 . S
H1229 C1192 0.930 . S
H1230 C1198 0.929 . S
H1231 C1199 0.930 . S
Li1232 N1249 1.990 . S
Li1232 O1292 1.956 . S
Li1232 O1293 1.970 . S
Li1232 O1294 1.961 . S
Li1233 N1257 1.990 . S
Li1233 O1292 1.970 . S
Li1233 O1293 1.956 . S
Li1233 O1295 1.961 . S
Li1234 N1279 1.990 . S
Li1234 O1292 1.961 . S
Li1234 O1294 1.956 . S
Li1234 O1295 1.970 . S
Li1235 N1285 1.990 . S
Li1235 O1293 1.961 . S
Li1235 O1294 1.970 . S
Li1235 O1295 1.956 . S
C1236 C1238 1.348 . S
C1236 C1239 1.356 . S
C1236 O1292 1.325 . S
N1237 C1240 1.314 . S
N1237 C1241 1.279 . S
C1238 C1236 1.348 . S
C1238 C1240 1.353 . S
C1238 H1296 0.929 . S
C1239 C1236 1.356 . S
C1239 C1241 1.358 . S
C1239 H1297 0.930 . S
C1240 N1237 1.314 . S
C1240 C1238 1.353 . S
C1240 H1298 0.930 1_565 S
C1241 N1237 1.279 . S
C1241 C1239 1.358 . S
C1241 H1299 0.930 . S
C1242 C1245 1.348 . S
C1242 C1246 1.356 . S
C1242 O1293 1.325 . S
C1243 N1244 1.279 . S
C1243 C1246 1.358 . S
C1243 H1300 0.930 . S
N1244 C1243 1.279 . S
N1244 C1247 1.314 . S
C1245 C1242 1.348 . S
C1245 C1247 1.353 . S
C1245 H1301 0.929 . S
C1246 C1242 1.356 . S
C1246 C1243 1.358 . S
C1246 H1302 0.930 . S
C1247 N1244 1.314 . S
C1247 C1245 1.353 . S
C1247 H1303 0.930 . S
C1248 N1249 1.314 . S
C1248 C1253 1.353 . S
C1248 H1254 0.930 . S
N1249 Li1232 1.990 . S
N1249 C1248 1.314 . S
N1249 C1251 1.279 . S
C1250 C1251 1.358 . S
C1250 C1252 1.356 . S
C1250 H1304 0.930 . S
C1251 N1249 1.279 . S
C1251 C1250 1.358 . S
C1251 H1255 0.930 . S
C1252 C1250 1.356 . S
C1252 C1253 1.348 . S
C1253 C1248 1.353 . S
C1253 C1252 1.348 . S
C1253 H1305 0.929 . S
H1254 C1248 0.930 . S
H1255 C1251 0.930 . S
C1256 N1257 1.314 1_655 S
C1256 C1258 1.353 . S
C1256 H1262 0.930 . S
N1257 Li1233 1.990 . S
N1257 C1256 1.314 1_455 S
N1257 C1260 1.279 . S
C1258 C1256 1.353 . S
C1258 C1261 1.348 . S
C1258 H1306 0.929 . S
C1259 C1260 1.358 1_655 S
C1259 C1261 1.356 . S
C1259 H1307 0.930 . S
C1260 N1257 1.279 . S
C1260 C1259 1.358 1_455 S
C1260 H1263 0.930 . S
C1261 C1258 1.348 . S
C1261 C1259 1.356 . S
H1262 C1256 0.930 . S
H1263 C1260 0.930 . S
C1264 C1266 1.348 . S
C1264 C1267 1.356 . S
C1264 O1294 1.325 . S
N1265 C1268 1.314 . S
N1265 C1269 1.279 . S
C1266 C1264 1.348 . S
C1266 C1268 1.353 . S
C1266 H1308 0.929 . S
C1267 C1264 1.356 . S
C1267 C1269 1.358 . S
C1267 H1309 0.930 . S
C1268 N1265 1.314 . S
C1268 C1266 1.353 . S
C1268 H1310 0.930 . S
C1269 N1265 1.279 . S
C1269 C1267 1.358 . S
C1269 H1311 0.930 . S
C1270 C1271 1.352 . S
C1270 C1272 1.356 1_455 S
C1270 O1295 1.325 . S
C1271 C1270 1.352 . S
C1271 C1273 1.335 1_455 S
C1271 H1312 0.943 . S
C1272 C1270 1.356 1_655 S
C1272 C1274 1.358 . S
C1272 H1313 0.930 . S
C1273 C1271 1.335 1_655 S
C1273 N1275 1.314 . S
C1273 H1314 0.930 . S
C1274 C1272 1.358 . S
C1274 N1275 1.279 . S
C1274 H1315 0.930 . S
N1275 C1273 1.314 . S
N1275 C1274 1.279 . S
C1276 C1278 1.353 . S
C1276 N1279 1.314 . S
C1276 H1282 0.930 . S
C1277 N1279 1.279 . S
C1277 C1280 1.358 . S
C1277 H1283 0.930 . S
C1278 C1276 1.353 . S
C1278 C1281 1.348 . S
C1278 H1316 0.929 . S
N1279 Li1234 1.990 . S
N1279 C1276 1.314 . S
N1279 C1277 1.279 . S
C1280 C1277 1.358 . S
C1280 C1281 1.356 . S
C1280 H1317 0.930 . S
C1281 C1278 1.348 . S
C1281 C1280 1.356 . S
H1282 C1276 0.930 . S
H1283 C1277 0.930 . S
C1284 N1285 1.314 . S
C1284 C1286 1.353 . S
C1284 H1290 0.930 . S
N1285 Li1235 1.990 . S
N1285 C1284 1.314 . S
N1285 C1288 1.279 . S
C1286 C1284 1.353 . S
C1286 C1289 1.348 . S
C1286 H1318 0.929 . S
C1287 C1288 1.358 . S
C1287 C1289 1.356 . S
C1287 H1319 0.930 . S
C1288 N1285 1.279 . S
C1288 C1287 1.358 . S
C1288 H1291 0.930 . S
C1289 C1286 1.348 . S
C1289 C1287 1.356 . S
H1290 C1284 0.930 . S
H1291 C1288 0.930 . S
O1292 Li1232 1.956 . S
O1292 Li1233 1.970 . S
O1292 Li1234 1.961 . S
O1292 C1236 1.325 . S
O1293 Li1232 1.970 . S
O1293 Li1233 1.956 . S
O1293 Li1235 1.961 . S
O1293 C1242 1.325 . S
O1294 Li1232 1.961 . S
O1294 Li1234 1.956 . S
O1294 Li1235 1.970 . S
O1294 C1264 1.325 . S
O1295 Li1233 1.961 . S
O1295 Li1234 1.970 . S
O1295 Li1235 1.956 . S
O1295 C1270 1.325 . S
H1296 C1238 0.929 . S
H1297 C1239 0.930 . S
H1298 C1240 0.930 1_545 S
H1299 C1241 0.930 . S
H1300 C1243 0.930 . S
H1301 C1245 0.929 . S
H1302 C1246 0.930 . S
H1303 C1247 0.930 . S
H1304 C1250 0.930 . S
H1305 C1253 0.929 . S
H1306 C1258 0.929 . S
H1307 C1259 0.930 . S
H1308 C1266 0.929 . S
H1309 C1267 0.930 . S
H1310 C1268 0.930 . S
H1311 C1269 0.930 . S
H1312 C1271 0.943 . S
H1313 C1272 0.930 . S
H1314 C1273 0.930 . S
H1315 C1274 0.930 . S
H1316 C1278 0.929 . S
H1317 C1280 0.930 . S
H1318 C1286 0.929 . S
H1319 C1287 0.930 . S
Li1320 N1337 1.990 . S
Li1320 O1380 1.956 . S
Li1320 O1381 1.970 . S
Li1320 O1382 1.961 . S
Li1321 N1345 1.990 . S
Li1321 O1380 1.970 . S
Li1321 O1381 1.956 . S
Li1321 O1383 1.961 . S
Li1322 N1367 1.990 . S
Li1322 O1380 1.961 . S
Li1322 O1382 1.956 . S
Li1322 O1383 1.970 . S
Li1323 N1373 1.990 . S
Li1323 O1381 1.961 . S
Li1323 O1382 1.970 . S
Li1323 O1383 1.956 . S
C1324 C1326 1.352 . S
C1324 C1327 1.356 1_545 S
C1324 O1380 1.325 . S
N1325 C1328 1.314 . S
N1325 C1329 1.279 . S
C1326 C1324 1.352 . S
C1326 C1328 1.335 1_545 S
C1326 H1384 0.943 . S
C1327 C1324 1.356 1_565 S
C1327 C1329 1.358 . S
C1327 H1385 0.930 . S
C1328 N1325 1.314 . S
C1328 C1326 1.335 1_565 S
C1328 H1386 0.930 . S
C1329 N1325 1.279 . S
C1329 C1327 1.358 . S
C1329 H1387 0.930 . S
C1330 C1333 1.348 . S
C1330 C1334 1.356 . S
C1330 O1381 1.325 . S
C1331 N1332 1.279 . S
C1331 C1334 1.358 . S
C1331 H1388 0.930 . S
N1332 C1331 1.279 . S
N1332 C1335 1.314 . S
C1333 C1330 1.348 . S
C1333 C1335 1.353 . S
C1333 H1389 0.929 . S
C1334 C1330 1.356 . S
C1334 C1331 1.358 . S
C1334 H1390 0.930 . S
C1335 N1332 1.314 . S
C1335 C1333 1.353 . S
C1335 H1391 0.930 . S
C1336 N1337 1.314 . S
C1336 C1341 1.353 . S
C1336 H1342 0.930 . S
N1337 Li1320 1.990 . S
N1337 C1336 1.314 . S
N1337 C1339 1.279 . S
C1338 C1339 1.358 . S
C1338 C1340 1.356 . S
C1338 H1392 0.930 . S
C1339 N1337 1.279 . S
C1339 C1338 1.358 . S
C1339 H1343 0.930 . S
C1340 C1338 1.356 . S
C1340 C1341 1.348 . S
C1341 C1336 1.353 . S
C1341 C1340 1.348 . S
C1341 H1393 0.929 . S
H1342 C1336 0.930 . S
H1343 C1339 0.930 . S
C1344 N1345 1.314 . S
C1344 C1346 1.353 . S
C1344 H1350 0.930 . S
N1345 Li1321 1.990 . S
N1345 C1344 1.314 . S
N1345 C1348 1.279 . S
C1346 C1344 1.353 . S
C1346 C1349 1.348 . S
C1346 H1394 0.929 . S
C1347 C1348 1.358 . S
C1347 C1349 1.356 . S
C1347 H1395 0.930 . S
C1348 N1345 1.279 . S
C1348 C1347 1.358 . S
C1348 H1351 0.930 . S
C1349 C1346 1.348 . S
C1349 C1347 1.356 . S
H1350 C1344 0.930 . S
H1351 C1348 0.930 . S
C1352 C1354 1.348 . S
C1352 C1355 1.356 . S
C1352 O1382 1.325 . S
N1353 C1356 1.314 . S
N1353 C1357 1.279 . S
C1354 C1352 1.348 . S
C1354 C1356 1.353 . S
C1354 H1396 0.929 . S
C1355 C1352 1.356 . S
C1355 C1357 1.358 . S
C1355 H1397 0.930 . S
C1356 N1353 1.314 . S
C1356 C1354 1.353 . S
C1356 H1398 0.930 . S
C1357 N1353 1.279 . S
C1357 C1355 1.358 . S
C1357 H1399 0.930 . S
C1358 C1359 1.348 . S
C1358 C1360 1.356 . S
C1358 O1383 1.325 . S
C1359 C1358 1.348 . S
C1359 C1361 1.353 . S
C1359 H1400 0.929 . S
C1360 C1358 1.356 . S
C1360 C1362 1.358 . S
C1360 H1401 0.930 . S
C1361 C1359 1.353 . S
C1361 N1363 1.314 . S
C1361 H1402 0.930 . S
C1362 C1360 1.358 . S
C1362 N1363 1.279 . S
C1362 H1403 0.930 . S
N1363 C1361 1.314 . S
N1363 C1362 1.279 . S
C1364 C1366 1.353 . S
C1364 N1367 1.314 1_565 S
C1364 H1370 0.930 . S
C1365 N1367 1.279 . S
C1365 C1368 1.358 1_545 S
C1365 H1371 0.930 . S
C1366 C1364 1.353 . S
C1366 C1369 1.348 . S
C1366 H1404 0.929 . S
N1367 Li1322 1.990 . S
N1367 C1364 1.314 1_545 S
N1367 C1365 1.279 . S
C1368 C1365 1.358 1_565 S
C1368 C1369 1.356 . S
C1368 H1405 0.930 . S
C1369 C1366 1.348 . S
C1369 C1368 1.356 . S
H1370 C1364 0.930 . S
H1371 C1365 0.930 . S
C1372 N1373 1.314 . S
C1372 C1374 1.353 . S
C1372 H1378 0.930 . S
N1373 Li1323 1.990 . S
N1373 C1372 1.314 . S
N1373 C1376 1.279 . S
C1374 C1372 1.353 . S
C1374 C1377 1.348 . S
C1374 H1406 0.929 . S
C1375 C1376 1.358 . S
C1375 C1377 1.356 . S
C1375 H1407 0.930 . S
C1376 N1373 1.279 . S
C1376 C1375 1.358 . S
C1376 H1379 0.930 . S
C1377 C1374 1.348 . S
C1377 C1375 1.356 . S
H1378 C1372 0.930 . S
H1379 C1376 0.930 . S
O1380 Li1320 1.956 . S
O1380 Li1321 1.970 . S
O1380 Li1322 1.961 . S
O1380 C1324 1.325 . S
O1381 Li1320 1.970 . S
O1381 Li1321 1.956 . S
O1381 Li1323 1.961 . S
O1381 C1330 1.325 . S
O1382 Li1320 1.961 . S
O1382 Li1322 1.956 . S
O1382 Li1323 1.970 . S
O1382 C1352 1.325 . S
O1383 Li1321 1.961 . S
O1383 Li1322 1.970 . S
O1383 Li1323 1.956 . S
O1383 C1358 1.325 . S
H1384 C1326 0.943 . S
H1385 C1327 0.930 . S
H1386 C1328 0.930 . S
H1387 C1329 0.930 . S
H1388 C1331 0.930 . S
H1389 C1333 0.929 . S
H1390 C1334 0.930 . S
H1391 C1335 0.930 . S
H1392 C1338 0.930 . S
H1393 C1341 0.929 . S
H1394 C1346 0.929 . S
H1395 C1347 0.930 . S
H1396 C1354 0.929 . S
H1397 C1355 0.930 . S
H1398 C1356 0.930 . S
H1399 C1357 0.930 . S
H1400 C1359 0.929 . S
H1401 C1360 0.930 . S
H1402 C1361 0.930 . S
H1403 C1362 0.930 . S
H1404 C1366 0.929 . S
H1405 C1368 0.930 . S
H1406 C1374 0.929 . S
H1407 C1375 0.930 . S
C57 C812 1.305 . S
C929 C145 1.305 . S
C988 C225 1.305 . S
C733 C313 1.305 . S
C381 C1377 1.305 . S
C1105 C469 1.305 . S
C1164 C548 1.305 . S
C1252 C636 1.305 . S
C753 C137 1.342 . S
C849 C233 1.342 . S
C909 C321 1.341 . S
C49 C1025 1.342 . S
C1085 C645 1.342 . S
C1201 C372 1.341 . S
C460 C1289 1.342 . S
C1340 C557 1.342 . S
C724 C29 4.209 1_566 S
C117 C821 4.209 1_554 S
C937 C196 4.209 1_656 S
C284 C997 4.209 1_444 S
C1113 C409 4.209 . S
C497 C1173 4.209 1_455 S
C1261 C577 4.209 1_665 S
C1369 C665 4.209 1_565 S
C401 C20 5.232 . S
C489 C108 5.232 . S
C205 C585 5.232 . S
C673 C293 5.232 . S
C761 C1076 5.218 . S
C1193 C841 5.218 . S
C1281 C900 5.218 . S
C1349 C1017 5.218 . S
