# Generated by pormake.
# Topology ech, (8)-cn, num edge types: 1
# Building blocks:
#     Node 0, Type 0, BuildingBlock: LIZSOE_clean_sbu_0, # of connection points: 8
#     Node 1, Type 0, BuildingBlock: LIZSOE_clean_sbu_0, # of connection points: 8
#     Node 2, Type 0, BuildingBlock: LIZSOE_clean_sbu_0, # of connection points: 8
#     Node 3, Type 0, BuildingBlock: LIZSOE_clean_sbu_0, # of connection points: 8
#     Node 4, Type 0, BuildingBlock: LIZSOE_clean_sbu_0, # of connection points: 8
#     Node 5, Type 0, BuildingBlock: LIZSOE_clean_sbu_0, # of connection points: 8
#     Node 6, Type 0, BuildingBlock: LIZSOE_clean_sbu_0, # of connection points: 8
#     Node 7, Type 0, BuildingBlock: LIZSOE_clean_sbu_0, # of connection points: 8
#     Node 8, Type 0, BuildingBlock: LIZSOE_clean_sbu_0, # of connection points: 8
#     Node 9, Type 0, BuildingBlock: LIZSOE_clean_sbu_0, # of connection points: 8
#     Node 10, Type 0, BuildingBlock: LIZSOE_clean_sbu_0, # of connection points: 8
#     Node 11, Type 0, BuildingBlock: LIZSOE_clean_sbu_0, # of connection points: 8
#     Node 12, Type 0, BuildingBlock: LIZSOE_clean_sbu_0, # of connection points: 8
#     Node 13, Type 0, BuildingBlock: LIZSOE_clean_sbu_0, # of connection points: 8
#     Node 14, Type 0, BuildingBlock: LIZSOE_clean_sbu_0, # of connection points: 8
#     Node 15, Type 0, BuildingBlock: LIZSOE_clean_sbu_0, # of connection points: 8
#     Node 16, Type 0, BuildingBlock: LIZSOE_clean_sbu_0, # of connection points: 8
#     Node 17, Type 0, BuildingBlock: LIZSOE_clean_sbu_0, # of connection points: 8
#     Node 18, Type 0, BuildingBlock: LIZSOE_clean_sbu_0, # of connection points: 8
#     Node 19, Type 0, BuildingBlock: LIZSOE_clean_sbu_0, # of connection points: 8
#     Node 20, Type 0, BuildingBlock: LIZSOE_clean_sbu_0, # of connection points: 8
#     Node 21, Type 0, BuildingBlock: LIZSOE_clean_sbu_0, # of connection points: 8
#     Node 22, Type 0, BuildingBlock: LIZSOE_clean_sbu_0, # of connection points: 8
#     Node 23, Type 0, BuildingBlock: LIZSOE_clean_sbu_0, # of connection points: 8
#     Edge 24, Type (0, 0), BuildingBlock: KIFKEQ_clean_linker_1, # of connection points: 2
#     Edge 25, Type (0, 0), BuildingBlock: KIFKEQ_clean_linker_1, # of connection points: 2
#     Edge 26, Type (0, 0), BuildingBlock: KIFKEQ_clean_linker_1, # of connection points: 2
#     Edge 27, Type (0, 0), BuildingBlock: KIFKEQ_clean_linker_1, # of connection points: 2
#     Edge 28, Type (0, 0), BuildingBlock: KIFKEQ_clean_linker_1, # of connection points: 2
#     Edge 29, Type (0, 0), BuildingBlock: KIFKEQ_clean_linker_1, # of connection points: 2
#     Edge 30, Type (0, 0), BuildingBlock: KIFKEQ_clean_linker_1, # of connection points: 2
#     Edge 31, Type (0, 0), BuildingBlock: KIFKEQ_clean_linker_1, # of connection points: 2
#     Edge 32, Type (0, 0), BuildingBlock: KIFKEQ_clean_linker_1, # of connection points: 2
#     Edge 33, Type (0, 0), BuildingBlock: KIFKEQ_clean_linker_1, # of connection points: 2
#     Edge 34, Type (0, 0), BuildingBlock: KIFKEQ_clean_linker_1, # of connection points: 2
#     Edge 35, Type (0, 0), BuildingBlock: KIFKEQ_clean_linker_1, # of connection points: 2
#     Edge 36, Type (0, 0), BuildingBlock: KIFKEQ_clean_linker_1, # of connection points: 2
#     Edge 37, Type (0, 0), BuildingBlock: KIFKEQ_clean_linker_1, # of connection points: 2
#     Edge 38, Type (0, 0), BuildingBlock: KIFKEQ_clean_linker_1, # of connection points: 2
#     Edge 39, Type (0, 0), BuildingBlock: KIFKEQ_clean_linker_1, # of connection points: 2
#     Edge 40, Type (0, 0), BuildingBlock: KIFKEQ_clean_linker_1, # of connection points: 2
#     Edge 41, Type (0, 0), BuildingBlock: KIFKEQ_clean_linker_1, # of connection points: 2
#     Edge 42, Type (0, 0), BuildingBlock: KIFKEQ_clean_linker_1, # of connection points: 2
#     Edge 43, Type (0, 0), BuildingBlock: KIFKEQ_clean_linker_1, # of connection points: 2
#     Edge 44, Type (0, 0), BuildingBlock: KIFKEQ_clean_linker_1, # of connection points: 2
#     Edge 45, Type (0, 0), BuildingBlock: KIFKEQ_clean_linker_1, # of connection points: 2
#     Edge 46, Type (0, 0), BuildingBlock: KIFKEQ_clean_linker_1, # of connection points: 2
#     Edge 47, Type (0, 0), BuildingBlock: KIFKEQ_clean_linker_1, # of connection points: 2
#     Edge 48, Type (0, 0), BuildingBlock: KIFKEQ_clean_linker_1, # of connection points: 2
#     Edge 49, Type (0, 0), BuildingBlock: KIFKEQ_clean_linker_1, # of connection points: 2
#     Edge 50, Type (0, 0), BuildingBlock: KIFKEQ_clean_linker_1, # of connection points: 2
#     Edge 51, Type (0, 0), BuildingBlock: KIFKEQ_clean_linker_1, # of connection points: 2
#     Edge 52, Type (0, 0), BuildingBlock: KIFKEQ_clean_linker_1, # of connection points: 2
#     Edge 53, Type (0, 0), BuildingBlock: KIFKEQ_clean_linker_1, # of connection points: 2
#     Edge 54, Type (0, 0), BuildingBlock: KIFKEQ_clean_linker_1, # of connection points: 2
#     Edge 55, Type (0, 0), BuildingBlock: KIFKEQ_clean_linker_1, # of connection points: 2
#     Edge 56, Type (0, 0), BuildingBlock: KIFKEQ_clean_linker_1, # of connection points: 2
#     Edge 57, Type (0, 0), BuildingBlock: KIFKEQ_clean_linker_1, # of connection points: 2
#     Edge 58, Type (0, 0), BuildingBlock: KIFKEQ_clean_linker_1, # of connection points: 2
#     Edge 59, Type (0, 0), BuildingBlock: KIFKEQ_clean_linker_1, # of connection points: 2
#     Edge 60, Type (0, 0), BuildingBlock: KIFKEQ_clean_linker_1, # of connection points: 2
#     Edge 61, Type (0, 0), BuildingBlock: KIFKEQ_clean_linker_1, # of connection points: 2
#     Edge 62, Type (0, 0), BuildingBlock: KIFKEQ_clean_linker_1, # of connection points: 2
#     Edge 63, Type (0, 0), BuildingBlock: KIFKEQ_clean_linker_1, # of connection points: 2
#     Edge 64, Type (0, 0), BuildingBlock: KIFKEQ_clean_linker_1, # of connection points: 2
#     Edge 65, Type (0, 0), BuildingBlock: KIFKEQ_clean_linker_1, # of connection points: 2
#     Edge 66, Type (0, 0), BuildingBlock: KIFKEQ_clean_linker_1, # of connection points: 2
#     Edge 67, Type (0, 0), BuildingBlock: KIFKEQ_clean_linker_1, # of connection points: 2
#     Edge 68, Type (0, 0), BuildingBlock: KIFKEQ_clean_linker_1, # of connection points: 2
#     Edge 69, Type (0, 0), BuildingBlock: KIFKEQ_clean_linker_1, # of connection points: 2
#     Edge 70, Type (0, 0), BuildingBlock: KIFKEQ_clean_linker_1, # of connection points: 2
#     Edge 71, Type (0, 0), BuildingBlock: KIFKEQ_clean_linker_1, # of connection points: 2
#     Edge 72, Type (0, 0), BuildingBlock: KIFKEQ_clean_linker_1, # of connection points: 2
#     Edge 73, Type (0, 0), BuildingBlock: KIFKEQ_clean_linker_1, # of connection points: 2
#     Edge 74, Type (0, 0), BuildingBlock: KIFKEQ_clean_linker_1, # of connection points: 2
#     Edge 75, Type (0, 0), BuildingBlock: KIFKEQ_clean_linker_1, # of connection points: 2
#     Edge 76, Type (0, 0), BuildingBlock: KIFKEQ_clean_linker_1, # of connection points: 2
#     Edge 77, Type (0, 0), BuildingBlock: KIFKEQ_clean_linker_1, # of connection points: 2
#     Edge 78, Type (0, 0), BuildingBlock: KIFKEQ_clean_linker_1, # of connection points: 2
#     Edge 79, Type (0, 0), BuildingBlock: KIFKEQ_clean_linker_1, # of connection points: 2
#     Edge 80, Type (0, 0), BuildingBlock: KIFKEQ_clean_linker_1, # of connection points: 2
#     Edge 81, Type (0, 0), BuildingBlock: KIFKEQ_clean_linker_1, # of connection points: 2
#     Edge 82, Type (0, 0), BuildingBlock: KIFKEQ_clean_linker_1, # of connection points: 2
#     Edge 83, Type (0, 0), BuildingBlock: KIFKEQ_clean_linker_1, # of connection points: 2
#     Edge 84, Type (0, 0), BuildingBlock: KIFKEQ_clean_linker_1, # of connection points: 2
#     Edge 85, Type (0, 0), BuildingBlock: KIFKEQ_clean_linker_1, # of connection points: 2
#     Edge 86, Type (0, 0), BuildingBlock: KIFKEQ_clean_linker_1, # of connection points: 2
#     Edge 87, Type (0, 0), BuildingBlock: KIFKEQ_clean_linker_1, # of connection points: 2
#     Edge 88, Type (0, 0), BuildingBlock: KIFKEQ_clean_linker_1, # of connection points: 2
#     Edge 89, Type (0, 0), BuildingBlock: KIFKEQ_clean_linker_1, # of connection points: 2
#     Edge 90, Type (0, 0), BuildingBlock: KIFKEQ_clean_linker_1, # of connection points: 2
#     Edge 91, Type (0, 0), BuildingBlock: KIFKEQ_clean_linker_1, # of connection points: 2
#     Edge 92, Type (0, 0), BuildingBlock: KIFKEQ_clean_linker_1, # of connection points: 2
#     Edge 93, Type (0, 0), BuildingBlock: KIFKEQ_clean_linker_1, # of connection points: 2
#     Edge 94, Type (0, 0), BuildingBlock: KIFKEQ_clean_linker_1, # of connection points: 2
#     Edge 95, Type (0, 0), BuildingBlock: KIFKEQ_clean_linker_1, # of connection points: 2
#     Edge 96, Type (0, 0), BuildingBlock: KIFKEQ_clean_linker_1, # of connection points: 2
#     Edge 97, Type (0, 0), BuildingBlock: KIFKEQ_clean_linker_1, # of connection points: 2
#     Edge 98, Type (0, 0), BuildingBlock: KIFKEQ_clean_linker_1, # of connection points: 2
#     Edge 99, Type (0, 0), BuildingBlock: KIFKEQ_clean_linker_1, # of connection points: 2
#     Edge 100, Type (0, 0), BuildingBlock: KIFKEQ_clean_linker_1, # of connection points: 2
#     Edge 101, Type (0, 0), BuildingBlock: KIFKEQ_clean_linker_1, # of connection points: 2
#     Edge 102, Type (0, 0), BuildingBlock: KIFKEQ_clean_linker_1, # of connection points: 2
#     Edge 103, Type (0, 0), BuildingBlock: KIFKEQ_clean_linker_1, # of connection points: 2
#     Edge 104, Type (0, 0), BuildingBlock: KIFKEQ_clean_linker_1, # of connection points: 2
#     Edge 105, Type (0, 0), BuildingBlock: KIFKEQ_clean_linker_1, # of connection points: 2
#     Edge 106, Type (0, 0), BuildingBlock: KIFKEQ_clean_linker_1, # of connection points: 2
#     Edge 107, Type (0, 0), BuildingBlock: KIFKEQ_clean_linker_1, # of connection points: 2
#     Edge 108, Type (0, 0), BuildingBlock: KIFKEQ_clean_linker_1, # of connection points: 2
#     Edge 109, Type (0, 0), BuildingBlock: KIFKEQ_clean_linker_1, # of connection points: 2
#     Edge 110, Type (0, 0), BuildingBlock: KIFKEQ_clean_linker_1, # of connection points: 2
#     Edge 111, Type (0, 0), BuildingBlock: KIFKEQ_clean_linker_1, # of connection points: 2
#     Edge 112, Type (0, 0), BuildingBlock: KIFKEQ_clean_linker_1, # of connection points: 2
#     Edge 113, Type (0, 0), BuildingBlock: KIFKEQ_clean_linker_1, # of connection points: 2
#     Edge 114, Type (0, 0), BuildingBlock: KIFKEQ_clean_linker_1, # of connection points: 2
#     Edge 115, Type (0, 0), BuildingBlock: KIFKEQ_clean_linker_1, # of connection points: 2
#     Edge 116, Type (0, 0), BuildingBlock: KIFKEQ_clean_linker_1, # of connection points: 2
#     Edge 117, Type (0, 0), BuildingBlock: KIFKEQ_clean_linker_1, # of connection points: 2
#     Edge 118, Type (0, 0), BuildingBlock: KIFKEQ_clean_linker_1, # of connection points: 2
#     Edge 119, Type (0, 0), BuildingBlock: KIFKEQ_clean_linker_1, # of connection points: 2
# Relax obj value: 0.410
# Max RMSD: 0.274
# Mean RMSD: 0.274
data_MOF--net-ech--node1-LIZSOE_clean_sbu_0--edge1-KIFKEQ_clean_linker_1
_symmetry_space_group_name_H-M    P1
_symmetry_Int_Tables_number       1
_symmetry_cell_setting            triclinic
loop_
_symmetry_equiv_pos_as_xyz
'x, y, z'
_cell_length_a     46.916392
_cell_length_b     46.875889
_cell_length_c     47.111555
_cell_angle_alpha  90.00024
_cell_angle_beta   89.849679
_cell_angle_gamma 89.908395
loop_
_atom_site_label
_atom_site_type_symbol
_atom_site_fract_x
_atom_site_fract_y
_atom_site_fract_z
_atom_type_partial_charge
Co0 Co 0.23465 0.29024 0.49674 0.0
N1 N 0.27314 0.29137 0.48726 0.0
C2 C 0.29398 0.29373 0.50679 0.0
N3 N 0.31564 0.28465 0.46617 0.0
C4 C 0.2871 0.28574 0.46254 0.0
C5 C 0.32006 0.28936 0.49397 0.0
Co6 Co 0.10101 0.33608 0.49904 0.0
N7 N 0.06173 0.33089 0.50312 0.0
N8 N 1.01425 0.33452 0.49721 0.0
C9 C 1.01972 0.33009 0.5249 0.0
C10 C 0.04859 0.32811 0.52848 0.0
C11 C 0.04011 0.33385 0.48428 0.0
Co12 Co 0.16857 0.31422 0.49788 0.0
C13 C 0.1266 0.35813 0.47155 0.0
H14 H 0.05922 0.32748 0.54879 0.0
O15 O 0.19931 0.28503 0.50516 0.0
O16 O 0.14616 0.28492 0.47507 0.0
O17 O 0.18436 0.32861 0.46117 0.0
O18 O 0.19251 0.34287 0.51959 0.0
O19 O 0.23716 0.3245 0.51787 0.0
O20 O 0.1022 0.303 0.47598 0.0
O21 O 0.13765 0.34396 0.49308 0.0
O22 O 0.10679 0.31454 0.53137 0.0
O23 O 0.22804 0.31221 0.46477 0.0
O24 O 0.22768 0.25792 0.47812 0.0
O25 O 0.15212 0.30138 0.53558 0.0
O26 O 0.09912 0.35777 0.4686 0.0
C27 C 0.20957 0.32662 0.45179 0.0
C28 C 0.04444 0.33857 0.45299 0.0
H29 H 0.06389 0.32755 0.44533 0.0
H30 H 1.02635 0.33017 0.44058 0.0
H31 H 0.04624 0.36178 0.44873 0.0
C32 C 0.11991 0.28435 0.46748 0.0
C33 C 0.21931 0.34366 0.52587 0.0
H34 H 0.29028 0.29688 0.52924 0.0
H35 H 0.28282 0.25924 0.42545 0.0
H36 H 0.27719 0.29644 0.41949 0.0
H37 H 0.2499 0.27555 0.43606 0.0
C38 C 0.27309 0.27879 0.43462 0.0
C39 C 0.20579 0.25972 0.49508 0.0
C40 C 0.12664 0.30282 0.54518 0.0
H41 H 0.34057 0.28846 0.50441 0.0
H42 H 1.00419 0.33205 0.54185 0.0
Co43 Co 0.46946 0.73076 0.99405 0.0
N44 N 0.50879 0.73365 0.9967 0.0
C45 C 0.52346 0.73064 1.02112 0.0
N46 N 0.55549 0.73019 0.98684 0.0
C47 C 0.52905 0.73384 0.97612 0.0
C48 C 0.55205 0.72857 1.01513 0.0
Co49 Co 0.33805 0.78221 0.9982 0.0
N50 N 0.29945 0.78406 0.98831 0.0
N51 N 0.25811 0.7938 0.96624 0.0
C52 C 0.25232 0.77784 0.98922 0.0
C53 C 0.27769 0.77211 1.00287 0.0
C54 C 0.28667 0.79725 0.96595 0.0
Co55 Co 0.40322 0.7557 0.99648 0.0
C56 C 0.3688 0.81142 1.00077 0.0
H57 H 0.28008 0.75997 1.02223 0.0
O58 O 0.43262 0.72514 0.9888 0.0
O59 O 0.3863 0.74536 0.95897 0.0
O60 O 0.42625 0.78639 0.97602 0.0
O61 O 0.42096 0.76438 0.03466 0.0
O62 O 0.46551 0.74826 1.02936 0.0
O63 O 0.34398 0.76514 0.96306 0.0
O64 O 0.3735 0.78463 1.00695 0.0
O65 O 0.33408 0.74484 1.0147 0.0
O66 O 0.46903 0.76622 0.9756 0.0
O67 O 0.46959 0.71333 0.961 0.0
O68 O 0.37873 0.72632 1.01584 0.0
O69 O 0.34698 0.81698 0.98466 0.0
C70 C 0.4526 0.78654 0.96881 0.0
C71 C 0.30198 0.81433 0.94355 0.0
H72 H 0.3228 0.80483 0.93789 0.0
H73 H 0.28913 0.81613 0.92391 0.0
H74 H 0.30566 0.83621 0.95173 0.0
C75 C 0.36181 0.75077 0.94903 0.0
C76 C 0.44618 0.76003 0.04412 0.0
H77 H 0.5139 0.72774 0.04183 0.0
H78 H 0.5184 0.71479 0.93604 0.0
H79 H 0.54216 0.74467 0.93348 0.0
H80 H 0.50482 0.75029 0.94046 0.0
C81 C 0.5232 0.7362 0.9448 0.0
C82 C 0.44234 0.71274 0.96564 0.0
C83 C 0.35184 0.72504 1.02148 0.0
H84 H 0.56867 0.72312 1.03011 0.0
H85 H 0.23128 0.77087 0.99563 0.0
Co86 Co 0.73197 0.28066 0.57189 0.0
N87 N 0.77 0.27866 0.58354 0.0
C88 C 0.79205 0.269 0.5678 0.0
N89 N 0.8112 0.28848 0.60601 0.0
C90 C 0.78239 0.29019 0.60699 0.0
C91 C 0.8173 0.27477 0.58163 0.0
Co92 Co 0.59692 0.24011 0.56728 0.0
N93 N 0.558 0.24494 0.56279 0.0
N94 N 0.51162 0.23696 0.57164 0.0
C95 C 0.51622 0.2342 0.54357 0.0
C96 C 0.5446 0.23906 0.53821 0.0
C97 C 0.53705 0.24468 0.58265 0.0
Co98 Co 0.66469 0.26036 0.56841 0.0
C99 C 0.62154 0.22086 0.59682 0.0
H100 H 0.55533 0.23487 0.51828 0.0
O101 O 0.69704 0.28741 0.56127 0.0
O102 O 0.64302 0.29146 0.58959 0.0
O103 O 0.67881 0.24615 0.60553 0.0
O104 O 0.68784 0.23007 0.54833 0.0
O105 O 0.73377 0.24468 0.55238 0.0
O106 O 0.59857 0.27534 0.58639 0.0
O107 O 0.63289 0.23243 0.57401 0.0
O108 O 0.60353 0.25806 0.53299 0.0
O109 O 0.72322 0.26066 0.60513 0.0
O110 O 0.72533 0.31421 0.58835 0.0
O111 O 0.64896 0.27234 0.53001 0.0
O112 O 0.59413 0.22205 0.59996 0.0
C113 C 0.70308 0.2475 0.6169 0.0
C114 C 0.54146 0.24965 0.61392 0.0
H115 H 0.55869 0.26516 0.61789 0.0
H116 H 0.52148 0.25774 0.62373 0.0
H117 H 0.54701 0.22937 0.62466 0.0
C118 C 0.61632 0.29378 0.59495 0.0
C119 C 0.71483 0.22684 0.54376 0.0
H120 H 0.78998 0.25942 0.54702 0.0
H121 H 0.76385 0.32665 0.62763 0.0
H122 H 0.77805 0.3004 0.65166 0.0
H123 H 0.74482 0.29455 0.63437 0.0
C124 C 0.76631 0.30343 0.63147 0.0
C125 C 0.70377 0.31268 0.57111 0.0
C126 C 0.62392 0.26943 0.51942 0.0
H127 H 0.83857 0.27031 0.57381 0.0
H128 H 0.5012 0.2251 0.5287 0.0
Co129 Co 0.97399 0.83276 0.0697 0.0
N130 N 1.01275 0.82674 0.06492 0.0
C131 C 1.02637 0.83221 0.0403 0.0
N132 N 0.0596 0.83148 0.07338 0.0
C133 C 1.03376 0.82531 0.08458 0.0
C134 C 0.05504 0.83506 0.04542 0.0
Co135 Co 0.83934 0.79069 0.07167 0.0
N136 N 0.80091 0.7901 0.08265 0.0
N137 N 0.75968 0.77905 0.1048 0.0
C138 C 0.75362 0.79449 0.08149 0.0
C139 C 0.77887 0.80099 0.06783 0.0
C140 C 0.78849 0.77696 0.10531 0.0
Co141 Co 0.9054 0.81406 0.07096 0.0
C142 C 0.8692 0.76051 0.06892 0.0
H143 H 0.78095 0.8124 0.04799 0.0
O144 O 0.93758 0.84173 0.07714 0.0
O145 O 0.88959 0.82722 0.1083 0.0
O146 O 0.92659 0.78291 0.09232 0.0
O147 O 0.92134 0.80239 1.03266 0.0
O148 O 0.96711 0.81461 0.03574 0.0
O149 O 0.84676 0.80834 0.10606 0.0
O150 O 0.87405 0.78706 0.06232 0.0
O151 O 0.83652 0.82802 0.05467 0.0
O152 O 0.97158 0.79769 0.08959 0.0
O153 O 0.97756 0.85091 0.10157 0.0
O154 O 0.88203 0.84431 0.05095 0.0
O155 O 0.84732 0.75549 0.08523 0.0
C156 C 0.95308 0.78 0.09825 0.0
C157 C 0.80456 0.76209 0.12873 0.0
H158 H 0.82596 0.77103 0.13227 0.0
H159 H 0.79272 0.76351 0.1491 0.0
H160 H 0.8071 0.73923 0.12318 0.0
C161 C 0.86512 0.82292 0.11901 0.0
C162 C 0.94647 0.80406 1.02217 0.0
H163 H 1.01584 0.83722 1.02052 0.0
H164 H 1.02255 0.83969 0.12674 0.0
H165 H 0.04931 0.81241 0.12575 0.0
H166 H 1.01268 0.80351 0.11944 0.0
C167 C 1.0292 0.81984 0.1158 0.0
C168 C 0.95005 0.85257 0.09972 0.0
C169 C 0.8549 0.84676 0.04647 0.0
H170 H 0.0706 0.84325 1.03049 0.0
H171 H 0.73238 0.80001 0.07442 0.0
Co172 Co 0.4981 0.23408 0.28696 0.0
N173 N 0.48798 0.27253 0.28752 0.0
C174 C 0.5041 0.29409 0.29755 0.0
N175 N 0.46657 0.31436 0.27777 0.0
C176 C 0.465 0.28561 0.27571 0.0
C177 C 0.49088 0.31977 0.29183 0.0
Co178 Co 0.49564 0.10111 0.33029 0.0
N179 N 0.502 0.06287 0.32841 0.0
N180 N 0.49601 1.01791 0.34258 0.0
C181 C 0.51938 1.01893 0.32598 0.0
C182 C 0.52286 0.04666 0.31693 0.0
C183 C 0.48587 0.04483 0.34357 0.0
Co184 Co 0.49865 0.16762 0.30915 0.0
C185 C 0.49717 0.12995 0.36199 0.0
H186 H 0.54028 0.05458 0.30417 0.0
O187 O 0.50728 0.19888 0.28206 0.0
O188 O 0.4774 0.14567 0.27838 0.0
O189 O 0.46174 0.18329 0.32214 0.0
O190 O 0.51886 0.1907 0.33952 0.0
O191 O 0.51643 0.23615 0.32307 0.0
O192 O 0.4791 0.10039 0.29381 0.0
O193 O 0.48936 0.13643 0.33618 0.0
O194 O 0.53185 0.10741 0.31532 0.0
O195 O 0.46369 0.22729 0.30623 0.0
O196 O 0.48271 0.227 0.25285 0.0
O197 O 0.53672 0.15111 0.29799 0.0
O198 O 0.50971 0.10539 0.3656 0.0
C199 C 0.45112 0.20791 0.31984 0.0
C200 C 0.46159 0.05477 0.36191 0.0
H201 H 0.45977 0.07836 0.3617 0.0
H202 H 0.44133 0.04579 0.35383 0.0
H203 H 0.46459 0.04718 0.38402 0.0
C204 C 0.47131 0.11901 0.27567 0.0
C205 C 0.52414 0.21771 0.34178 0.0
H206 H 0.52461 0.29138 0.30762 0.0
H207 H 0.44487 0.26799 0.23881 0.0
H208 H 0.42035 0.28262 0.26439 0.0
H209 H 0.43668 0.24882 0.27047 0.0
C210 C 0.44041 0.27031 0.26183 0.0
C211 C 0.49825 0.20425 0.25642 0.0
C212 C 0.54657 0.12629 0.30307 0.0
H213 H 0.49896 0.34082 0.29672 0.0
H214 H 0.53358 1.00117 0.32181 0.0
Co215 Co 0.07067 0.97245 0.83241 0.0
N216 N 0.06693 1.01162 0.82787 0.0
C217 C 0.04221 1.02584 0.8318 0.0
N218 N 0.07609 0.05841 0.83253 0.0
C219 C 0.08719 1.03224 0.82765 0.0
C220 C 0.04777 0.05448 0.83464 0.0
Co221 Co 0.07013 0.838 0.78826 0.0
N222 N 0.08 0.79937 0.78896 0.0
N223 N 0.10142 0.75728 0.78045 0.0
C224 C 0.07574 0.7521 0.79203 0.0
C225 C 0.06269 0.77798 0.79736 0.0
C226 C 0.1036 0.78594 0.77865 0.0
Co227 Co 0.07033 0.90447 0.81136 0.0
C228 C 0.07021 0.86734 0.75775 0.0
H229 H 0.04141 0.78098 0.80575 0.0
O230 O 0.07711 0.93572 0.8398 0.0
O231 O 0.10782 0.88836 0.82391 0.0
O232 O 0.09175 0.92624 0.78074 0.0
O233 O 1.03197 0.92147 0.80055 0.0
O234 O 0.03633 0.96688 0.8142 0.0
O235 O 0.10369 0.84463 0.8078 0.0
O236 O 0.06146 0.8734 0.78347 0.0
O237 O 0.05115 0.83585 0.82396 0.0
O238 O 0.09054 0.97074 0.7973 0.0
O239 O 0.10283 0.97454 0.8506 0.0
O240 O 0.04987 0.881 0.84129 0.0
O241 O 0.08645 0.84499 0.75465 0.0
C242 C 0.09846 0.95267 0.77882 0.0
C243 C 0.12808 0.80053 0.76389 0.0
H244 H 0.13225 0.82209 0.77228 0.0
H245 H 0.14794 0.78784 0.76586 0.0
H246 H 0.12308 0.80235 0.74095 0.0
C247 C 0.11734 0.86319 0.82141 0.0
C248 C 1.02207 0.94686 0.8032 0.0
H249 H 1.02176 1.01581 0.83532 0.0
H250 H 0.12819 1.02206 0.84539 0.0
H251 H 0.12941 0.04632 0.81602 0.0
H252 H 0.12315 1.00895 0.80994 0.0
C253 C 0.1187 1.02697 0.82442 0.0
C254 C 0.10006 0.94705 0.8512 0.0
C255 C 0.04387 0.85412 0.843 0.0
H256 H 1.03261 0.07061 0.84128 0.0
H257 H 0.06671 0.73114 0.79544 0.0
Co258 Co 1.00081 0.33506 0.77913 0.0
N259 N 0.98998 0.29663 0.77927 0.0
C260 C 1.0046 0.27473 0.76763 0.0
N261 N 0.96755 0.25534 0.78932 0.0
C262 C 0.96727 0.28407 0.79227 0.0
C263 C 0.99074 0.24943 0.77351 0.0
Co264 Co 0.9951 0.4683 0.73476 0.0
N265 N 1.00039 0.50692 0.73727 0.0
N266 N 0.99307 0.55318 0.72835 0.0
C267 C 1.01408 0.55097 0.74763 0.0
C268 C 1.01825 0.5225 0.75343 0.0
C269 C 0.98513 0.52614 0.72245 0.0
Co270 Co 0.99967 0.40152 0.75613 0.0
C271 C 0.99774 0.43959 0.70293 0.0
H272 H 1.03337 0.51386 0.76835 0.0
O273 O 1.01041 0.37047 0.78333 0.0
O274 O 0.98028 0.42384 0.78817 0.0
O275 O 0.96144 0.3858 0.74603 0.0
O276 O 1.01818 0.37795 0.72497 0.0
O277 O 1.01727 0.33264 0.74199 0.0
O278 O 0.97922 0.46841 0.77103 0.0
O279 O 0.98945 0.43255 0.72862 0.0
O280 O 1.03182 0.46253 0.74942 0.0
O281 O 0.96593 0.34225 0.7622 0.0
O282 O 0.98722 0.34236 0.81381 0.0
O283 O 0.03826 0.41818 0.76468 0.0
O284 O 1.00929 0.46466 0.69964 0.0
C285 C 0.95154 0.36097 0.74957 0.0
C286 C 0.96287 0.5179 0.7012 0.0
H287 H 0.96286 0.49456 0.69743 0.0
H288 H 0.94155 0.52409 0.70933 0.0
H289 H 0.96655 0.52938 0.68092 0.0
C290 C 0.97344 0.45038 0.79034 0.0
C291 C 1.0238 0.35099 0.72273 0.0
H292 H 1.02438 0.27693 0.756 0.0
H293 H 0.94978 0.30167 0.8306 0.0
H294 H 0.92342 0.28832 0.80636 0.0
H295 H 0.9403 0.32162 0.79973 0.0
C296 C 0.94396 0.29991 0.80786 0.0
C297 C 1.00288 0.36485 0.80951 0.0
C298 C 0.04735 0.44343 0.76041 0.0
H299 H 0.99755 0.22826 0.76726 0.0
H300 H 1.02576 0.56871 0.7566 0.0
Co301 Co 0.57357 0.59945 0.23925 0.0
N302 N 0.56633 0.56135 0.24042 0.0
C303 C 0.54494 0.54516 0.25077 0.0
N304 N 0.56941 0.51804 0.22111 0.0
C305 C 0.58118 0.54415 0.22314 0.0
C306 C 0.5468 0.51832 0.23878 0.0
Co307 Co 0.57153 0.73358 0.27995 0.0
N308 N 0.58263 0.77179 0.27776 0.0
N309 N 0.60539 0.81326 0.28577 0.0
C310 C 0.582 0.81875 0.27022 0.0
C311 C 0.56796 0.79331 0.26553 0.0
C312 C 0.60561 0.78468 0.28976 0.0
Co313 Co 0.57139 0.66599 0.2602 0.0
C314 C 0.57061 0.70514 0.31205 0.0
H315 H 0.54795 0.79078 0.25449 0.0
O316 O 0.58103 0.63439 0.23377 0.0
O317 O 0.60958 0.68077 0.24834 0.0
O318 O 0.59109 0.64371 0.29198 0.0
O319 O 0.53253 0.65033 0.27004 0.0
O320 O 0.53709 0.60645 0.2531 0.0
O321 O 0.60581 0.7253 0.26183 0.0
O322 O 0.56166 0.6982 0.28664 0.0
O323 O 0.55389 0.73455 0.24334 0.0
O324 O 0.58893 0.59846 0.27612 0.0
O325 O 0.56038 0.60419 0.20372 0.0
O326 O 0.55251 0.68844 0.22871 0.0
O327 O 0.5863 0.72786 0.31427 0.0
C328 C 0.59652 0.61681 0.29465 0.0
C329 C 0.62909 0.76932 0.30549 0.0
H330 H 0.63268 0.74738 0.29789 0.0
H331 H 0.6496 0.78087 0.30337 0.0
H332 H 0.6235 0.76816 0.32836 0.0
C333 C 0.6196 0.70578 0.24966 0.0
C334 C 0.5223 0.62573 0.26467 0.0
H335 H 0.52789 0.55281 0.26423 0.0
H336 H 0.60054 0.56387 0.18687 0.0
H337 H 0.6216 0.53583 0.20262 0.0
H338 H 0.61853 0.57041 0.21977 0.0
C339 C 0.6071 0.55399 0.20723 0.0
C340 C 0.57407 0.62799 0.20767 0.0
C341 C 0.54711 0.71522 0.22527 0.0
H342 H 0.53148 0.50122 0.24102 0.0
H343 H 0.57509 0.83975 0.26357 0.0
Co344 Co 0.33381 0.49542 0.09982 0.0
N345 N 0.33269 0.50181 0.06172 0.0
C346 C 0.32044 0.5222 0.04557 0.0
N347 N 0.34646 0.49571 1.01682 0.0
C348 C 0.34809 0.48588 0.04366 0.0
C349 C 0.32926 0.51869 1.01788 0.0
Co350 Co 0.2872 0.50073 0.23146 0.0
N351 N 0.28785 0.4922 0.27007 0.0
N352 N 0.27983 0.47213 0.31258 0.0
C353 C 0.29255 0.4974 0.31687 0.0
C354 C 0.2974 0.50973 0.29071 0.0
C355 C 0.27712 0.46932 0.28422 0.0
Co356 Co 0.31027 0.49868 0.16533 0.0
C357 C 0.25658 0.49913 0.20174 0.0
H358 H 0.30666 0.53051 0.287 0.0
O359 O 0.33881 0.48893 0.1352 0.0
O360 O 0.32138 0.46122 0.18163 0.0
O361 O 0.27938 0.47806 0.14253 0.0
O362 O 0.30036 0.53692 0.14867 0.0
O363 O 0.3187 0.53182 0.10564 0.0
O364 O 0.30632 0.46614 0.2256 0.0
O365 O 0.28218 0.50845 0.19578 0.0
O366 O 0.32331 0.51918 0.23315 0.0
O367 O 0.29736 0.47919 0.09836 0.0
O368 O 0.369 0.50955 0.10481 0.0
O369 O 0.34082 0.51845 0.18842 0.0
O370 O 0.25336 0.48477 0.22517 0.0
C371 C 0.27792 0.47197 0.11586 0.0
C372 C 0.26144 0.44484 0.27066 0.0
H373 H 0.26966 0.43961 0.24932 0.0
H374 H 0.26275 0.42532 0.28388 0.0
H375 H 0.23859 0.45065 0.26875 0.0
C376 C 0.31917 0.45194 0.20677 0.0
C377 C 0.30601 0.54667 0.1241 0.0
H378 H 0.307 0.53918 0.0534 0.0
H379 H 0.38895 0.46516 0.0455 0.0
H380 H 0.35895 0.44147 0.04434 0.0
H381 H 0.36684 0.46003 0.07676 0.0
C382 C 0.36686 0.46183 0.0533 0.0
C383 C 0.36477 0.49749 0.12937 0.0
C384 C 0.34267 0.52532 0.21487 0.0
H385 H 0.32435 0.53249 1.00012 0.0
H386 H 0.2976 0.50639 0.33742 0.0
Co387 Co 0.78644 0.07195 0.83412 0.0
N388 N 0.78813 0.08207 0.79574 0.0
C389 C 0.79892 0.06572 0.77467 0.0
N390 N 0.78094 0.10379 0.75381 0.0
C391 C 0.77717 0.10525 0.78218 0.0
C392 C 0.79448 0.07899 0.74889 0.0
Co393 Co 0.8293 0.07667 0.96682 0.0
N394 N 0.82774 0.07107 1.00491 0.0
N395 N 0.83794 0.08313 0.04957 0.0
C396 C 0.8292 0.05574 0.04931 0.0
C397 C 0.82292 0.04831 1.02172 0.0
C398 C 0.83629 0.09194 1.02235 0.0
Co399 Co 0.80751 0.07265 0.90092 0.0
C400 C 0.86095 0.07635 0.93835 0.0
H401 H 0.81718 1.02726 1.01435 0.0
O402 O 0.78044 0.06265 0.86954 0.0
O403 O 0.77557 0.09272 0.92311 0.0
O404 O 0.81873 0.11051 0.88539 0.0
O405 O 0.839 0.05347 0.87811 0.0
O406 O 0.82276 0.05376 0.83284 0.0
O407 O 0.79247 0.09169 0.96758 0.0
O408 O 0.83465 0.08292 0.93179 0.0
O409 O 0.81552 0.03993 0.96108 0.0
O410 O 0.80508 0.10635 0.84115 0.0
O411 O 0.75247 0.08757 0.84028 0.0
O412 O 0.79823 1.03399 0.91767 0.0
O413 O 0.86505 0.06361 0.96258 0.0
C414 C 0.81738 0.12022 0.8604 0.0
C415 C 0.84392 0.12113 1.01175 0.0
H416 H 0.82915 0.12755 0.99453 0.0
H417 H 0.8431 0.13711 1.02911 0.0
H418 H 0.8657 0.12059 1.00254 0.0
C419 C 0.77333 0.09864 0.94978 0.0
C420 C 0.84162 0.04723 0.85148 0.0
H421 H 0.80858 0.045 0.77776 0.0
H422 H 0.73771 0.12226 0.79761 0.0
H423 H 0.76141 0.14874 0.78365 0.0
H424 H 0.76807 0.13352 0.81788 0.0
C425 C 0.7604 0.12878 0.79625 0.0
C426 C 0.75487 0.07164 0.86278 0.0
C427 C 0.80387 1.02451 0.94246 0.0
H428 H 0.8 0.07075 0.72813 0.0
H429 H 0.82977 0.04143 0.06735 0.0
Co430 Co 0.78134 1.00074 0.336 0.0
N431 N 0.78304 0.99128 0.29752 0.0
C432 C 0.77143 1.00632 0.276 0.0
N433 N 0.79264 0.96931 0.2562 0.0
C434 C 0.79604 0.96876 0.28463 0.0
C435 C 0.77721 0.9928 0.25058 0.0
Co436 Co 0.73271 0.98942 0.46615 0.0
N437 N 0.73383 0.99241 0.50432 0.0
N438 N 0.72833 0.97526 0.54811 0.0
C439 C 0.73449 1.00329 0.54996 0.0
C440 C 0.73788 1.01387 0.52288 0.0
C441 C 0.72839 0.96926 0.52013 0.0
Co442 Co 0.75634 0.99736 0.40117 0.0
C443 C 0.70158 0.99252 0.437 0.0
H444 H 0.74174 1.03587 0.5172 0.0
O445 O 0.78395 1.00956 0.37135 0.0
O446 O 0.78834 0.97752 0.42322 0.0
O447 O 0.74722 0.96004 0.38401 0.0
O448 O 0.72556 1.01612 0.3777 0.0
O449 O 0.74363 1.01618 0.33293 0.0
O450 O 0.76959 0.97488 0.46671 0.0
O451 O 0.72783 0.98527 0.43048 0.0
O452 O 0.74648 1.02686 0.46281 0.0
O453 O 0.76509 0.96458 0.34124 0.0
O454 O 0.81653 0.9881 0.34428 0.0
O455 O 0.76373 1.03538 0.41968 0.0
O456 O 0.69706 1.00244 0.46243 0.0
C457 C 0.7516 0.95026 0.35944 0.0
C458 C 0.7227 0.94052 0.50729 0.0
H459 H 0.73644 0.93709 0.48842 0.0
H460 H 0.72642 0.92315 0.52286 0.0
H461 H 0.70028 0.93972 0.49988 0.0
C462 C 0.78975 0.96993 0.44943 0.0
C463 C 0.72382 1.0221 0.35096 0.0
H464 H 0.75955 1.02593 0.2786 0.0
H465 H 0.83569 0.95582 0.30296 0.0
H466 H 0.81666 0.92716 0.28669 0.0
H467 H 0.80522 0.94067 0.32038 0.0
C468 C 0.81412 0.9468 0.29954 0.0
C469 C 0.81076 1.0039 0.36631 0.0
C470 C 0.75796 0.04343 0.44493 0.0
H471 H 0.77046 0.99952 0.22967 0.0
H472 H 0.73448 1.01564 0.56939 0.0
Co473 Co 0.27916 0.57706 0.72754 0.0
N474 N 0.27828 0.58908 0.76525 0.0
C475 C 0.27299 0.5714 0.78724 0.0
N476 N 0.28658 0.61216 0.80625 0.0
C477 C 0.28662 0.61394 0.77761 0.0
C478 C 0.27824 0.58544 0.81241 0.0
Co479 Co 0.23478 0.56349 0.59492 0.0
N480 N 0.23888 0.55625 0.55621 0.0
N481 N 0.23041 0.55836 0.50925 0.0
C482 C 0.23373 0.53085 0.51679 0.0
C483 C 0.23879 0.5296 0.5454 0.0
C484 C 0.23474 0.57345 0.53345 0.0
Co485 Co 0.25659 0.57027 0.66169 0.0
C486 C 0.21331 0.59287 0.6183 0.0
H487 H 0.23915 0.51024 0.55787 0.0
O488 O 0.28443 0.56621 0.69323 0.0
O489 O 0.2853 0.59261 0.63795 0.0
O490 O 0.24039 0.60698 0.67549 0.0
O491 O 0.2284 0.54927 0.68604 0.0
O492 O 0.24293 0.55779 0.73104 0.0
O493 O 0.26765 0.58723 0.59418 0.0
O494 O 0.22781 0.57227 0.63049 0.0
O495 O 0.25717 0.53213 0.6028 0.0
O496 O 0.25958 0.61101 0.7181 0.0
O497 O 0.31359 0.59233 0.71969 0.0
O498 O 0.27127 0.53214 0.64789 0.0
O499 O 0.2122 0.59345 0.59083 0.0
C500 C 0.24383 0.6205 0.69852 0.0
C501 C 0.2322 0.60539 0.53534 0.0
H502 H 0.2427 0.61384 0.55457 0.0
H503 H 0.24264 0.61571 0.51697 0.0
H504 H 0.20935 0.61155 0.53535 0.0
C505 C 0.28591 0.59784 0.61114 0.0
C506 C 0.22545 0.54674 0.71313 0.0
H507 H 0.26701 0.54924 0.78505 0.0
H508 H 0.31945 0.64479 0.76974 0.0
H509 H 0.284 0.65831 0.76692 0.0
H510 H 0.2985 0.63714 0.73878 0.0
C511 C 0.29772 0.63967 0.762 0.0
C512 C 0.31024 0.57537 0.69804 0.0
C513 C 0.26984 0.52048 0.62341 0.0
H514 H 0.27689 0.57651 0.83356 0.0
H515 H 0.22917 0.51274 0.50327 0.0
Co516 Co 0.9787 0.75028 0.5601 0.0
N517 N 1.01646 0.7441 0.57295 0.0
C518 C 1.0352 0.76576 0.57526 0.0
N519 N 0.05826 0.72752 0.59041 0.0
C520 C 1.03136 0.72079 0.58209 0.0
C521 C 0.06065 0.75575 0.58582 0.0
Co522 Co 0.84241 0.7624 0.59233 0.0
N523 N 0.80392 0.77583 0.5935 0.0
N524 N 0.76372 0.79513 0.61278 0.0
C525 C 0.75639 0.77296 0.59616 0.0
C526 C 0.7809 0.76116 0.58457 0.0
C527 C 0.79255 0.79678 0.61038 0.0
Co528 Co 0.90869 0.75407 0.57053 0.0
C529 C 0.87158 0.75806 0.62264 0.0
H530 H 0.78195 0.74167 0.57233 0.0
O531 O 0.94357 0.75441 0.54434 0.0
O532 O 0.89553 0.79078 0.55207 0.0
O533 O 0.92994 0.77785 0.60063 0.0
O534 O 0.9204 0.7179 0.58868 0.0
O535 O 0.96678 0.72526 0.58909 0.0
O536 O 0.85334 0.79667 0.57308 0.0
O537 O 0.87583 0.75102 0.59628 0.0
O538 O 0.83893 0.74226 0.55556 0.0
O539 O 0.97497 0.78071 0.58503 0.0
O540 O 0.97867 0.7225 0.53557 0.0
O541 O 0.88481 0.73181 0.54234 0.0
O542 O 0.85123 0.77635 0.62739 0.0
C543 C 0.9552 0.78859 0.60174 0.0
C544 C 0.80967 0.81945 0.62504 0.0
H545 H 0.82994 0.82368 0.61379 0.0
H546 H 0.79723 0.83957 0.62635 0.0
H547 H 0.81446 0.81256 0.64704 0.0
C548 C 0.87295 0.80553 0.55653 0.0
C549 C 0.94493 0.71241 0.59817 0.0
H550 H 1.03055 0.78767 0.5697 0.0
H551 H 1.01417 0.68399 0.60284 0.0
H552 H 0.0374 0.67606 0.57377 0.0
H553 H 1.00165 0.68849 0.56716 0.0
C554 C 1.02034 0.69073 0.58117 0.0
C555 C 0.9546 0.73416 0.52813 0.0
C556 C 0.85739 0.72935 0.53929 0.0
H557 H 0.07952 0.76833 0.58998 0.0
H558 H 0.73502 0.7645 0.59424 0.0
Co559 Co 0.60134 0.33319 0.06857 0.0
N560 N 0.57451 0.35008 0.0941 0.0
C561 C 0.57679 0.34758 0.12251 0.0
N562 N 0.53929 0.37544 0.11549 0.0
C563 C 0.55136 0.36735 0.09038 0.0
C564 C 0.5553 0.36281 0.13557 0.0
Co565 Co 0.72295 0.30888 0.09338 0.0
N566 N 0.76188 0.29645 0.0945 0.0
N567 N 0.80264 0.27767 0.11296 0.0
C568 C 0.80934 0.30054 0.09702 0.0
C569 C 0.78451 0.31197 0.08587 0.0
C570 C 0.77385 0.27538 0.11078 0.0
Co571 Co 0.65648 0.31647 0.07079 0.0
C572 C 0.69345 0.31172 0.12387 0.0
H573 H 0.78294 0.33174 0.07415 0.0
O574 O 0.62469 0.31704 0.04083 0.0
O575 O 0.67073 0.28013 0.0524 0.0
O576 O 0.63334 0.29198 0.09877 0.0
O577 O 0.64351 0.35305 0.08916 0.0
O578 O 0.61347 0.3693 0.05768 0.0
O579 O 0.71322 0.27505 0.0728 0.0
O580 O 0.68858 0.31921 0.09773 0.0
O581 O 0.72697 0.33072 0.05708 0.0
O582 O 0.59025 0.29746 0.08089 0.0
O583 O 0.57831 0.33074 0.04015 0.0
O584 O 0.68088 0.3392 0.04454 0.0
O585 O 0.71368 0.29309 0.1276 0.0
C586 C 0.60698 0.28461 0.09762 0.0
C587 C 0.7574 0.25216 0.12537 0.0
H588 H 0.73732 0.24737 0.11406 0.0
H589 H 0.77043 0.23241 0.12658 0.0
H590 H 0.75243 0.25886 0.14743 0.0
C591 C 0.69371 0.26594 0.05636 0.0
C592 C 0.63014 0.37406 0.07815 0.0
H593 H 0.59338 0.33565 0.13314 0.0
H594 H 0.55728 0.38311 0.04797 0.0
H595 H 0.52261 0.39116 0.06281 0.0
H596 H 0.53095 0.35564 0.05163 0.0
C597 C 0.53983 0.37506 0.0617 0.0
C598 C 0.60033 0.32044 1.02724 0.0
C599 C 0.70789 0.34309 0.04126 0.0
H600 H 0.55191 0.36482 0.15822 0.0
H601 H 0.83046 0.30966 0.09529 0.0
Co602 Co 0.34016 0.81121 0.47183 0.0
N603 N 0.3018 0.79872 0.47049 0.0
C604 C 0.27921 0.81548 0.47659 0.0
N605 N 0.26173 0.7791 0.45213 0.0
C606 C 0.29029 0.77647 0.45566 0.0
C607 C 0.25478 0.80367 0.46522 0.0
Co608 Co 0.46286 0.83229 0.4969 0.0
N609 N 0.49127 0.84662 0.47167 0.0
N610 N 0.52733 0.87081 0.45039 0.0
C611 C 0.51203 0.8573 0.43036 0.0
C612 C 0.48999 0.84284 0.44332 0.0
C613 C 0.51431 0.86397 0.47539 0.0
Co614 Co 0.40594 0.8184 0.49512 0.0
C615 C 0.46163 0.821 0.53896 0.0
H616 H 0.47359 0.83079 0.43262 0.0
O617 O 0.37405 0.8217 0.46812 0.0
O618 O 0.42893 0.7939 0.46683 0.0
O619 O 0.39149 0.78199 0.51345 0.0
O620 O 0.38134 0.84142 0.52173 0.0
O621 O 0.33577 0.83145 0.50854 0.0
O622 O 0.47186 0.79505 0.48609 0.0
O623 O 0.43785 0.81896 0.52435 0.0
O624 O 0.45263 0.86956 0.50578 0.0
O625 O 0.34999 0.77711 0.49132 0.0
O626 O 0.34946 0.79664 0.43701 0.0
O627 O 0.41933 0.85452 0.47685 0.0
O628 O 0.48484 0.82941 0.52678 0.0
C629 C 0.36883 0.76773 0.50832 0.0
C630 C 0.52462 0.87322 0.50407 0.0
H631 H 0.5068 0.8828 0.51631 0.0
H632 H 0.53227 0.85425 0.51588 0.0
H633 H 0.54243 0.88861 0.50277 0.0
C634 C 0.45448 0.78404 0.46869 0.0
C635 C 0.35407 0.84421 0.52481 0.0
H636 H 0.28075 0.83634 0.48628 0.0
H637 H 0.30985 0.75865 0.41863 0.0
H638 H 0.29545 0.7328 0.44262 0.0
H639 H 0.32846 0.75038 0.45107 0.0
C640 C 0.30722 0.75329 0.44143 0.0
C641 C 0.36943 0.8153 0.44166 0.0
C642 C 0.43502 0.87466 0.48612 0.0
H643 H 0.2339 0.81351 0.4647 0.0
H644 H 0.51615 0.85833 0.40777 0.0
Co645 Co 0.2309 0.26212 0.97473 0.0
N646 N 0.26889 0.27632 0.97473 0.0
C647 C 0.29216 0.26192 0.98358 0.0
N648 N 0.30871 0.2969 0.95637 0.0
C649 C 0.27987 0.29789 0.95847 0.0
C650 C 0.31648 0.2745 0.9725 0.0
Co651 Co 0.09458 0.24764 1.00167 0.0
N652 N 0.05805 0.24021 0.98479 0.0
N653 N 1.01815 0.21824 0.96842 0.0
C654 C 1.02643 0.23795 0.94944 0.0
C655 C 0.05051 0.25109 0.95926 0.0
C656 C 0.03743 0.22028 0.98998 0.0
Co657 Co 0.16444 0.25263 0.99455 0.0
C658 C 0.11744 0.2307 0.0341 0.0
H659 H 0.06266 0.26635 0.9471 0.0
O660 O 0.19808 0.25026 0.96988 0.0
O661 O 0.14383 0.27652 0.96415 0.0
O662 O 0.17628 0.28943 1.01386 0.0
O663 O 0.18774 0.2305 1.02322 0.0
O664 O 0.23374 0.24203 1.01162 0.0
O665 O 0.09887 0.28038 0.97975 0.0
O666 O 0.12864 0.25201 1.01959 0.0
O667 O 0.10852 0.22487 0.97203 0.0
O668 O 0.21865 0.29611 0.99357 0.0
O669 O 0.22284 0.27579 0.93922 0.0
O670 O 0.15433 0.21644 0.97542 0.0
O671 O 0.09494 0.21791 1.02412 0.0
C672 C 0.19858 0.30464 1.00977 0.0
C673 C 0.03554 0.2035 1.017 0.0
H674 H 0.04229 0.21686 0.03522 0.0
H675 H 1.01345 0.19601 1.02086 0.0
H676 H 0.04984 0.18468 1.01557 0.0
C677 C 0.11898 0.28825 0.96345 0.0
C678 C 0.21507 0.22861 1.02717 0.0
H679 H 0.29144 0.24207 0.99526 0.0
H680 H 0.25882 0.31381 0.92131 0.0
H681 H 0.27398 0.34087 0.94341 0.0
H682 H 0.24144 0.32342 0.95401 0.0
C683 C 0.26236 0.32025 0.94368 0.0
C684 C 0.20294 0.25701 0.94356 0.0
C685 C 0.13057 0.21189 0.96383 0.0
H686 H 0.33801 0.26636 0.97427 0.0
H687 H 1.01669 0.2415 0.92893 0.0
Co688 Co 0.59321 0.83969 0.76707 0.0
N689 N 0.59302 0.8025 0.78296 0.0
C690 C 0.58506 0.77882 0.76878 0.0
N691 N 0.61194 0.76342 0.80433 0.0
C692 C 0.60903 0.79225 0.80491 0.0
C693 C 0.59646 0.75498 0.78183 0.0
Co694 Co 0.56145 0.97197 0.72917 0.0
N695 N 0.57169 1.00803 0.71452 0.0
N696 N 0.58922 0.04952 0.69739 0.0
C697 C 0.57766 1.0349 0.67586 0.0
C698 C 0.56669 1.01002 0.68638 0.0
C699 C 0.58489 1.03317 0.72089 0.0
Co700 Co 0.57272 0.90475 0.75065 0.0
C701 C 0.53017 0.95692 0.75563 0.0
H702 H 0.55658 0.99352 0.67393 0.0
O703 O 0.598 0.87171 0.75394 0.0
O704 O 0.60072 0.92924 0.77264 0.0
O705 O 0.55161 0.89612 0.78721 0.0
O706 O 0.54585 0.8789 0.72996 0.0
O707 O 0.55746 0.8344 0.74579 0.0
O708 O 0.5909 0.97323 0.75695 0.0
O709 O 0.54733 0.93913 0.74219 0.0
O710 O 0.58741 0.95615 0.7041 0.0
O711 O 0.57223 0.85443 0.79903 0.0
O712 O 0.62842 0.8492 0.78146 0.0
O713 O 0.5944 0.91065 0.71504 0.0
O714 O 0.53634 0.98406 0.75453 0.0
C715 C 0.55539 0.87522 0.80451 0.0
C716 C 0.59265 0.04248 0.75022 0.0
H717 H 0.58684 1.02621 0.76627 0.0
H718 H 0.61576 0.04737 0.75108 0.0
H719 H 0.58119 0.06261 0.75517 0.0
C720 C 0.60518 0.95624 0.77261 0.0
C721 C 0.5422 0.85161 0.73048 0.0
H722 H 0.57404 0.77898 0.74864 0.0
H723 H 0.64457 0.81563 0.82145 0.0
H724 H 0.62285 0.79889 0.84792 0.0
H725 H 0.6102 0.83071 0.83028 0.0
C726 C 0.62226 0.81057 0.82743 0.0
C727 C 0.62438 0.86747 0.76104 0.0
C728 C 0.59925 0.93234 0.69983 0.0
H729 H 0.59556 0.73334 0.77386 0.0
H730 H 0.57772 0.04155 0.65384 0.0
Co731 Co 1.00387 0.09572 0.24501 0.0
N732 N 0.99024 0.05776 0.24325 0.0
C733 C 0.98019 0.04264 0.26538 0.0
N734 N 0.97154 1.01603 0.22738 0.0
C735 C 0.98537 0.04075 0.22038 0.0
C736 C 0.96855 1.01761 0.25585 0.0
Co737 Co 0.97843 0.23429 0.25854 0.0
N738 N 0.9806 0.27311 0.26983 0.0
N739 N 0.96241 0.31391 0.28871 0.0
C740 C 0.97296 0.31961 0.26272 0.0
C741 C 0.98418 0.29478 0.25134 0.0
C742 C 0.96755 0.2857 0.29266 0.0
Co743 Co 0.99512 0.16628 0.25191 0.0
C744 C 0.94574 0.20767 0.25779 0.0
H745 H 0.99126 0.29206 0.22964 0.0
O746 O 1.01947 0.13007 0.24813 0.0
O747 O 1.01728 0.17923 0.28658 0.0
O748 O 0.96601 0.14806 0.27831 0.0
O749 O 0.97279 0.15415 0.21827 0.0
O750 O 0.97668 0.10647 0.218 0.0
O751 O 1.0004 0.22359 0.29077 0.0
O752 O 0.97138 0.2008 0.2497 0.0
O753 O 1.01386 0.2346 0.23541 0.0
O754 O 0.97792 0.10252 0.27461 0.0
O755 O 1.03107 0.08941 0.27044 0.0
O756 O 1.02282 0.18737 0.22699 0.0
O757 O 0.94392 0.22851 0.27596 0.0
C758 C 0.96346 0.12212 0.28617 0.0
C759 C 0.95679 0.27 0.31833 0.0
H760 H 0.96785 0.24943 0.32152 0.0
H761 H 0.9597 0.28339 0.33754 0.0
H762 H 0.93358 0.26615 0.31603 0.0
C763 C 1.01587 0.20316 0.29976 0.0
C764 C 0.9664 0.12968 0.20849 0.0
H765 H 0.98086 0.04946 0.2872 0.0
H766 H 0.97872 0.05696 0.17861 0.0
H767 H 1.00488 1.02882 0.18071 0.0
H768 H 1.01334 0.06453 0.19294 0.0
C769 C 0.99637 0.04811 0.19146 0.0
C770 C 0.03782 0.11556 0.26358 0.0
C771 C 1.02813 0.21419 0.2231 0.0
H772 H 0.9581 1.00198 0.26916 0.0
H773 H 0.97023 0.33964 0.2516 0.0
Co774 Co 0.09723 0.729 0.30723 0.0
N775 N 0.09689 0.7682 0.29685 0.0
C776 C 0.09467 0.78912 0.31638 0.0
N777 N 0.11623 0.80906 0.27935 0.0
C778 C 0.10983 0.78126 0.27423 0.0
C779 C 0.10661 0.81392 0.30587 0.0
Co780 Co 0.07621 0.60401 0.32678 0.0
N781 N 0.10193 0.57493 0.33931 0.0
N782 N 0.12367 0.53737 0.36075 0.0
C783 C 0.14313 0.55191 0.34552 0.0
C784 C 0.12994 0.57486 0.33277 0.0
C785 C 0.09874 0.55179 0.35667 0.0
Co786 Co 0.07658 0.66174 0.31351 0.0
C787 C 1.03339 0.60557 0.3174 0.0
H788 H 0.14027 0.59075 0.3197 0.0
O789 O 0.10296 0.69444 0.31573 0.0
O790 O 0.10408 0.63953 0.28763 0.0
O791 O 0.05642 0.67625 0.27827 0.0
O792 O 0.05003 0.68502 0.33793 0.0
O793 O 0.06252 0.73145 0.33103 0.0
O794 O 0.08538 0.59608 0.28915 0.0
O795 O 0.04828 0.62919 0.31522 0.0
O796 O 0.06912 0.61383 0.36432 0.0
O797 O 0.0741 0.72024 0.27531 0.0
O798 O 0.13024 0.72136 0.28837 0.0
O799 O 0.09699 0.64793 0.34838 0.0
O800 O 0.04576 0.58211 0.3249 0.0
C801 C 0.05828 0.70044 0.26572 0.0
C802 C 0.0705 0.54261 0.36852 0.0
H803 H 0.05717 0.53421 0.35101 0.0
H804 H 0.07269 0.52565 0.38471 0.0
H805 H 0.05922 0.56113 0.37796 0.0
C806 C 0.1019 0.61409 0.27753 0.0
C807 C 0.04662 0.71198 0.34258 0.0
H808 H 0.08793 0.78574 0.33809 0.0
H809 H 0.14268 0.76125 0.24967 0.0
H810 H 0.11671 0.78003 0.22912 0.0
H811 H 0.10772 0.74599 0.24441 0.0
C812 C 0.11958 0.76604 0.24789 0.0
C813 C 0.12842 0.70043 0.30648 0.0
C814 C 0.08904 0.63152 0.36853 0.0
H815 H 0.11022 0.83333 0.31777 0.0
H816 H 0.16551 0.54642 0.34394 0.0
Co817 Co 0.49713 0.4668 0.82719 0.0
N818 N 0.47049 0.49369 0.84209 0.0
C819 C 0.44222 0.49128 0.83753 0.0
N820 N 0.44719 0.53 0.86387 0.0
C821 C 0.47289 0.51748 0.85858 0.0
C822 C 0.42803 0.5135 0.85047 0.0
Co823 Co 0.46989 0.34666 0.80114 0.0
N824 N 0.46791 0.30836 0.7876 0.0
N825 N 0.45009 0.26823 0.76726 0.0
C826 C 0.4668 0.2607 0.7892 0.0
C827 C 0.47752 0.28516 0.80162 0.0
C828 C 0.45144 0.29716 0.76643 0.0
Co829 Co 0.4949 0.41169 0.81101 0.0
C830 C 0.44037 0.37624 0.80612 0.0
H831 H 0.48991 0.28595 0.82091 0.0
O832 O 0.52575 0.44308 0.81294 0.0
O833 O 0.51387 0.39768 0.77505 0.0
O834 O 0.46755 0.43566 0.78636 0.0
O835 O 0.47557 0.4242 0.84689 0.0
O836 O 0.50576 0.45512 0.86395 0.0
O837 O 0.49037 0.35708 0.76764 0.0
O838 O 0.46699 0.38029 0.81256 0.0
O839 O 0.50591 0.34093 0.82186 0.0
O840 O 0.48718 0.47799 0.79079 0.0
O841 O 0.52595 0.48964 0.82637 0.0
O842 O 0.52026 0.38578 0.83386 0.0
O843 O 0.43546 0.35732 0.7865 0.0
C844 C 0.46962 0.46181 0.77842 0.0
C845 C 0.4363 0.31455 0.74435 0.0
H846 H 0.44785 0.33464 0.73988 0.0
H847 H 0.43428 0.30224 0.72433 0.0
H848 H 0.41449 0.31968 0.75195 0.0
C849 C 0.50836 0.37583 0.75973 0.0
C850 C 0.48544 0.43797 0.86799 0.0
H851 H 0.43246 0.47432 0.82543 0.0
H852 H 0.5142 0.51152 0.87718 0.0
H853 H 0.49833 0.54584 0.88482 0.0
H854 H 0.51239 0.53844 0.85012 0.0
C855 C 0.50092 0.52905 0.86849 0.0
C856 C 0.53936 0.46744 0.81702 0.0
C857 C 0.5223 0.3583 0.83573 0.0
H858 H 0.40527 0.51731 0.85008 0.0
H859 H 0.46946 0.23912 0.79696 0.0
Co860 Co 0.76912 0.59457 0.83966 0.0
N861 N 0.78391 0.59436 0.80201 0.0
C862 C 0.77017 0.5845 0.77888 0.0
N863 N 0.80537 0.6113 0.76217 0.0
C864 C 0.8056 0.61039 0.79096 0.0
C865 C 0.78325 0.59475 0.75456 0.0
Co866 Co 0.74822 0.56539 0.97453 0.0
N867 N 0.73857 0.58153 1.01074 0.0
N868 N 0.7159 0.59629 0.05083 0.0
C869 C 0.73411 0.6167 0.04245 0.0
C870 C 0.7476 0.60788 1.01827 0.0
C871 C 0.71915 0.57491 1.03137 0.0
Co872 Co 0.75755 0.57413 0.90542 0.0
C873 C 0.734 0.53264 0.95052 0.0
H874 H 0.76167 0.62126 1.006 0.0
O875 O 0.75692 0.59931 0.87222 0.0
O876 O 0.78126 0.60386 0.92747 0.0
O877 O 0.79433 0.55437 0.89429 0.0
O878 O 0.73565 0.5462 0.88126 0.0
O879 O 0.74876 0.55794 0.83599 0.0
O880 O 0.7801 0.5882 0.97228 0.0
O881 O 0.75511 0.5484 0.9407 0.0
O882 O 0.72537 0.59475 0.96036 0.0
O883 O 0.80261 0.57525 0.85249 0.0
O884 O 0.78278 0.63025 0.84821 0.0
O885 O 0.72136 0.5938 0.91411 0.0
O886 O 0.71925 0.54189 0.9722 0.0
C887 C 0.81025 0.55865 0.87254 0.0
C888 C 0.70378 0.54696 1.03272 0.0
H889 H 0.71794 0.5295 1.02526 0.0
H890 H 0.69664 0.54225 0.05469 0.0
H891 H 0.68484 0.54786 1.01869 0.0
C892 C 0.79036 0.60445 0.95329 0.0
C893 C 0.73432 0.54262 0.85398 0.0
H894 H 0.75047 0.57258 0.77958 0.0
H895 H 0.82009 0.64847 0.81148 0.0
H896 H 0.848 0.62682 0.7969 0.0
H897 H 0.83047 0.61599 0.82926 0.0
C898 C 0.82728 0.62613 0.80831 0.0
C899 C 0.76368 0.62577 0.86779 0.0
C900 C 0.71435 0.60393 0.93784 0.0
H901 H 0.77563 0.59216 0.73304 0.0
H902 H 0.73629 0.6375 0.05222 0.0
Co903 Co 0.24379 1.0067 0.09178 0.0
N904 N 0.24163 0.99316 0.05396 0.0
C905 C 0.26417 0.98512 0.0382 0.0
N906 N 0.22613 0.97321 1.01278 0.0
C907 C 0.21867 0.98641 0.03769 0.0
C908 C 0.25493 0.97266 1.01359 0.0
Co909 Co 0.26174 0.98009 0.22894 0.0
N910 N 0.2744 0.98223 0.26715 0.0
N911 N 0.29437 0.96488 0.30751 0.0
C912 C 0.26946 0.97757 0.31411 0.0
C913 C 0.2573 0.98807 0.28948 0.0
C914 C 0.29716 0.96847 0.27905 0.0
Co915 Co 0.25213 0.99772 0.1619 0.0
C916 C 0.26046 0.94777 0.20219 0.0
H917 H 0.23597 0.99665 0.28766 0.0
O918 O 0.24725 1.02247 0.12618 0.0
O919 O 0.28695 1.02027 0.1739 0.0
O920 O 0.27865 0.96912 0.14262 0.0
O921 O 0.21852 0.97484 0.15032 0.0
O922 O 0.21788 0.97852 0.10288 0.0
O923 O 0.29347 1.00253 0.21736 0.0
O924 O 0.25142 0.97326 0.19593 0.0
O925 O 0.23824 1.01476 0.23067 0.0
O926 O 0.27436 0.98136 0.0975 0.0
O927 O 0.2684 1.03452 0.08508 0.0
O928 O 0.22697 1.02481 0.18452 0.0
O929 O 0.27966 0.94623 0.22203 0.0
C930 C 0.28626 0.96676 0.11667 0.0
C931 C 0.32242 0.95742 0.26275 0.0
H932 H 0.32574 0.96938 0.24277 0.0
H933 H 0.34194 0.95905 0.27591 0.0
H934 H 0.31925 0.93452 0.25775 0.0
C935 C 0.30136 1.01845 0.19692 0.0
C936 C 0.20889 0.96792 0.12605 0.0
H937 H 0.28611 0.98776 0.04433 0.0
H938 H 0.17792 0.97632 0.05531 0.0
H939 H 0.17704 1.00272 1.02736 0.0
H940 H 0.18973 1.01202 0.06243 0.0
C941 C 0.18908 0.99497 0.04608 0.0
C942 C 0.26245 0.04094 0.11142 0.0
C943 C 0.22428 1.02916 0.21165 0.0
H944 H 0.26881 0.96336 0.99773 0.0
H945 H 0.25944 0.97691 0.33483 0.0
Co946 Co 0.33268 0.05845 0.59249 0.0
N947 N 0.34194 0.06812 0.55463 0.0
C948 C 0.342 0.0477 0.53449 0.0
N949 N 0.36215 0.08526 0.51438 0.0
C950 C 0.35418 0.09108 0.5416 0.0
C951 C 0.35408 0.05807 0.51 0.0
Co952 Co 0.3061 0.09204 0.72678 0.0
N953 N 0.29275 0.09163 0.76489 0.0
N954 N 0.27223 0.10927 0.80493 0.0
C955 C 0.2963 0.09535 0.81203 0.0
C956 C 0.3088 0.08469 0.78759 0.0
C957 C 0.27028 0.10628 0.77634 0.0
Co958 Co 0.31761 0.07147 0.66072 0.0
C959 C 0.30829 0.12309 0.69822 0.0
H960 H 0.32964 0.07487 0.78627 0.0
O961 O 0.32309 0.04495 0.62674 0.0
O962 O 0.28153 0.05067 0.67227 0.0
O963 O 0.29368 0.09968 0.63804 0.0
O964 O 0.35273 0.09292 0.65058 0.0
O965 O 0.3616 0.08224 0.60521 0.0
O966 O 0.27428 0.06949 0.71541 0.0
O967 O 0.31689 0.09716 0.6936 0.0
O968 O 0.32903 0.05716 0.73068 0.0
O969 O 0.30562 0.08861 0.59357 0.0
O970 O 0.30457 1.03513 0.58399 0.0
O971 O 0.34073 0.04457 0.68534 0.0
O972 O 0.28909 0.12616 0.71799 0.0
C973 C 0.2914 0.10346 0.61119 0.0
C974 C 0.24601 0.11843 0.75948 0.0
H975 H 0.24264 0.10631 0.7396 0.0
H976 H 0.2261 0.11798 0.77226 0.0
H977 H 0.25056 0.14105 0.75426 0.0
C978 C 0.26668 0.05325 0.69507 0.0
C979 C 0.36755 0.09517 0.62807 0.0
H980 H 0.33509 1.02596 0.53789 0.0
H981 H 0.34139 0.12333 0.57193 0.0
H982 H 0.35636 0.13694 0.53925 0.0
H983 H 0.37908 0.12087 0.56535 0.0
C984 C 0.35777 0.11972 0.55535 0.0
C985 C 0.30685 1.02855 0.61077 0.0
C986 C 0.34287 0.04147 0.7126 0.0
H987 H 0.35816 0.04593 0.49086 0.0
H988 H 0.30552 0.09506 0.83307 0.0
Co989 Co 0.8052 0.47462 0.33981 0.0
N990 N 0.79004 0.47396 0.30235 0.0
C991 C 0.80359 0.48361 0.27895 0.0
N992 N 0.76859 0.45622 0.26295 0.0
C993 C 0.76843 0.45759 0.29175 0.0
C994 C 0.79046 0.47296 0.25492 0.0
Co995 Co 0.83431 0.51201 0.4722 0.0
N996 N 0.84388 0.50302 0.51021 0.0
N997 N 0.86483 0.48626 0.55022 0.0
C998 C 0.85664 0.51346 0.55454 0.0
C999 C 0.84411 0.5236 0.53019 0.0
C1000 C 0.85647 0.4802 0.52322 0.0
Co1001 Co 0.81847 0.49718 0.40467 0.0
C1002 C 0.80951 0.54243 0.45351 0.0
H1003 H 0.83703 0.5453 0.52674 0.0
O1004 O 0.81779 0.47062 0.37233 0.0
O1005 O 0.79532 0.46938 0.4284 0.0
O1006 O 0.78183 0.51748 0.39359 0.0
O1007 O 0.84034 0.52342 0.37897 0.0
O1008 O 0.82608 0.51062 0.33447 0.0
O1009 O 0.80679 0.48229 0.47238 0.0
O1010 O 0.82471 0.52463 0.43789 0.0
O1011 O 0.86288 0.48753 0.45957 0.0
O1012 O 0.77233 0.49502 0.35283 0.0
O1013 O 0.79085 0.43968 0.3497 0.0
O1014 O 0.85402 0.47643 0.41437 0.0
O1015 O 0.80646 0.53636 0.48036 0.0
C1016 C 0.76532 0.5125 0.37244 0.0
C1017 C 0.86002 0.45142 0.50971 0.0
H1018 H 0.84336 0.44756 0.49356 0.0
H1019 H 0.88118 0.45021 0.49928 0.0
H1020 H 0.85899 0.43437 0.52603 0.0
C1021 C 0.79273 0.46677 0.45532 0.0
C1022 C 0.84077 0.5264 0.35169 0.0
H1023 H 0.82314 0.4958 0.27927 0.0
H1024 H 0.7537 0.42046 0.3139 0.0
H1025 H 0.72592 0.44147 0.29822 0.0
H1026 H 0.74326 0.4537 0.33012 0.0
C1027 C 0.74655 0.44262 0.30964 0.0
C1028 C 0.81094 0.4441 0.36818 0.0
C1029 C 0.86893 0.47453 0.43673 0.0
H1030 H 0.79779 0.47559 0.23327 0.0
H1031 H 0.8609 0.52575 0.57352 0.0
H1032 H 0.14688 0.48871 0.34066 0.0
H1033 H 0.11507 0.5278 0.41709 0.0
H1034 H 0.157 0.44465 0.36681 0.0
H1035 H 0.12477 0.48361 0.44353 0.0
H1036 H 0.15734 0.40481 0.48908 0.0
H1037 H 0.1611 0.44962 0.46215 0.0
H1038 H 0.12875 0.40683 0.38784 0.0
H1039 H 0.12465 0.36283 0.41476 0.0
C1040 C 0.14195 0.48776 0.3631 0.0
C1041 C 0.12934 0.51138 0.37661 0.0
C1042 C 0.14777 0.46252 0.37817 0.0
C1043 C 0.14159 0.46025 0.4074 0.0
C1044 C 0.13001 0.48442 0.42115 0.0
C1045 C 0.12398 0.50963 0.40595 0.0
C1046 C 0.15255 0.40467 0.4666 0.0
C1047 C 0.14147 0.37988 0.45391 0.0
C1048 C 0.15403 0.43056 0.45127 0.0
C1049 C 0.14485 0.43216 0.42276 0.0
C1050 C 0.13621 0.40669 0.40957 0.0
C1051 C 0.13418 0.38119 0.42498 0.0
H1052 H 0.41174 0.66726 0.98609 0.0
H1053 H 0.44309 0.70559 0.90905 0.0
H1054 H 0.40778 0.62119 0.96148 0.0
H1055 H 0.43843 0.66039 0.88438 0.0
H1056 H 0.42065 0.57603 0.84227 0.0
H1057 H 0.40918 0.62091 0.86655 0.0
H1058 H 0.44615 0.58781 0.94369 0.0
H1059 H 0.45721 0.54279 0.91916 0.0
C1060 C 0.4161 0.66632 0.96352 0.0
C1061 C 0.42704 0.69039 0.94938 0.0
C1062 C 0.41446 0.63975 0.94953 0.0
C1063 C 0.42316 0.63686 0.92095 0.0
C1064 C 0.43136 0.66162 0.90625 0.0
C1065 C 0.43369 0.68778 0.92035 0.0
C1066 C 0.42626 0.57846 0.86442 0.0
C1067 C 0.44057 0.55633 0.87861 0.0
C1068 C 0.41967 0.6041 0.87838 0.0
C1069 C 0.42683 0.60819 0.90712 0.0
C1070 C 0.44011 0.58546 0.92165 0.0
C1071 C 0.44689 0.55984 0.90755 0.0
H1072 H 0.64006 0.05479 0.67192 0.0
H1073 H 0.57262 0.10283 0.71134 0.0
H1074 H 0.66017 0.09872 0.65213 0.0
H1075 H 0.59198 0.1469 0.69121 0.0
H1076 H 0.64407 0.16969 0.58235 0.0
H1077 H 0.64432 0.12831 0.61367 0.0
H1078 H 0.62795 0.18317 0.68555 0.0
H1079 H 0.62717 0.22441 0.65383 0.0
C1080 C 0.63021 0.07503 0.67719 0.0
C1081 C 0.60508 0.07556 0.69348 0.0
C1082 C 0.64145 0.10017 0.66555 0.0
C1083 C 0.62761 0.12651 0.66966 0.0
C1084 C 0.60356 0.1272 0.68777 0.0
C1085 C 0.5924 0.10198 0.69948 0.0
C1086 C 0.64221 0.17306 0.60504 0.0
C1087 C 0.6361 0.20038 0.61567 0.0
C1088 C 0.64203 0.14924 0.62311 0.0
C1089 C 0.63548 0.15218 0.65223 0.0
C1090 C 0.63247 0.17994 0.66323 0.0
C1091 C 0.63262 0.2037 0.64514 0.0
H1092 H 0.91399 0.89882 0.09298 0.0
H1093 H 0.95942 0.84941 0.15528 0.0
H1094 H 0.91226 0.93922 0.12608 0.0
H1095 H 0.95977 0.88919 0.18712 0.0
H1096 H 0.96354 0.96127 0.24425 0.0
H1097 H 0.94537 0.92181 0.21743 0.0
H1098 H 0.94073 0.97517 0.14271 0.0
H1099 H 0.95439 1.01598 0.17107 0.0
C1100 C 0.92241 0.89614 0.1142 0.0
C1101 C 0.93656 0.87079 0.12161 0.0
C1102 C 0.92223 0.91961 0.13301 0.0
C1103 C 0.93657 0.91827 0.1594 0.0
C1104 C 0.94816 0.89175 0.1675 0.0
C1105 C 0.94795 0.86851 0.14907 0.0
C1106 C 0.95819 0.96502 0.22226 0.0
C1107 C 0.96169 0.99221 0.20998 0.0
C1108 C 0.94813 0.94189 0.20647 0.0
C1109 C 0.94235 0.94445 0.17723 0.0
C1110 C 0.94493 0.97184 0.16503 0.0
C1111 C 0.95387 0.99541 0.18126 0.0
H1112 H 0.3541 0.08942 0.45805 0.0
H1113 H 0.40978 0.11687 0.52525 0.0
H1114 H 0.38658 0.10923 0.42303 0.0
H1115 H 0.4417 0.1385 0.4904 0.0
H1116 H 0.51009 0.12802 0.41843 0.0
H1117 H 0.47585 0.12408 0.45712 0.0
H1118 H 0.40793 0.14698 0.39963 0.0
H1119 H 0.44186 0.14855 0.36077 0.0
C1120 C 0.37293 0.10053 0.46536 0.0
C1121 C 0.37903 0.10182 0.4945 0.0
C1122 C 0.39158 0.11222 0.44525 0.0
C1123 C 0.41706 0.12573 0.45359 0.0
C1124 C 0.42255 0.12811 0.48293 0.0
C1125 C 0.40389 0.11616 0.50309 0.0
C1126 C 0.48798 0.13324 0.41429 0.0
C1127 C 0.47897 0.13896 0.38639 0.0
C1128 C 0.46817 0.1309 0.43657 0.0
C1129 C 0.43874 0.13448 0.43163 0.0
C1130 C 0.4302 0.14315 0.4043 0.0
C1131 C 0.44992 0.14489 0.38196 0.0
H1132 H 0.24336 0.96367 0.95838 0.0
H1133 H 0.16997 0.95404 1.01315 0.0
H1134 H 0.21734 0.94324 0.92001 0.0
H1135 H 0.14206 0.93869 0.97303 0.0
H1136 H 0.09154 0.91251 0.89787 0.0
H1137 H 0.12442 0.91126 0.9381 0.0
H1138 H 0.1881 0.95319 0.88607 0.0
H1139 H 0.15635 0.95207 0.84656 0.0
C1140 C 0.22146 0.95782 0.96244 0.0
C1141 C 0.209 0.96188 0.98942 0.0
C1142 C 0.20601 0.94649 0.93975 0.0
C1143 C 0.17675 0.94014 0.94232 0.0
C1144 C 0.16436 0.94329 0.96952 0.0
C1145 C 0.18036 0.9533 0.99276 0.0
C1146 C 0.11327 0.91965 0.89479 0.0
C1147 C 0.1214 0.93218 0.86893 0.0
C1148 C 0.13201 0.91988 0.91819 0.0
C1149 C 0.15908 0.93313 0.91634 0.0
C1150 C 0.16793 0.9426 0.88929 0.0
C1151 C 0.14955 0.94184 0.86609 0.0
H1152 H 0.91277 0.45503 0.53885 0.0
H1153 H 0.85704 0.4818 0.60663 0.0
H1154 H 0.94477 0.43292 0.57335 0.0
H1155 H 0.88941 0.4612 0.64128 0.0
H1156 H 0.94374 0.41989 0.70265 0.0
H1157 H 0.91017 0.42194 0.66346 0.0
H1158 H 0.97879 0.44704 0.60751 0.0
H1159 H 1.01236 0.44248 0.64665 0.0
C1160 C 0.9069 0.45551 0.56106 0.0
C1161 C 0.88198 0.46976 0.56992 0.0
C1162 C 0.92556 0.44324 0.581 0.0
C1163 C 0.91993 0.44507 0.61039 0.0
C1164 C 0.89447 0.45862 0.619 0.0
C1165 C 0.87588 0.47074 0.59911 0.0
C1166 C 0.9519 0.42353 0.68161 0.0
C1167 C 0.98081 0.43014 0.67789 0.0
C1168 C 0.93249 0.42586 0.65913 0.0
C1169 C 0.94138 0.43556 0.6322 0.0
C1170 C 0.97086 0.43949 0.62775 0.0
C1171 C 0.99029 0.43673 0.65027 0.0
H1172 H 0.65925 0.58259 0.05232 0.0
H1173 H 0.72668 0.62062 0.10131 0.0
H1174 H 0.62512 0.59433 0.08991 0.0
H1175 H 0.69265 0.63437 0.13774 0.0
H1176 H 0.63116 0.62537 0.21241 0.0
H1177 H 0.66526 0.61758 0.17465 0.0
H1178 H 0.59889 0.63088 0.11254 0.0
H1179 H 0.56437 0.63781 0.1511 0.0
C1180 C 0.66691 0.59296 0.07133 0.0
C1181 C 0.69591 0.59997 0.07409 0.0
C1182 C 0.64719 0.60041 0.09266 0.0
C1183 C 0.65587 0.61549 0.11711 0.0
C1184 C 0.68495 0.62236 0.1197 0.0
C1185 C 0.70458 0.61457 0.09867 0.0
C1186 C 0.62406 0.62809 0.19071 0.0
C1187 C 0.5952 0.63343 0.18485 0.0
C1188 C 0.64367 0.62321 0.16883 0.0
C1189 C 0.63509 0.62339 0.14021 0.0
C1190 C 0.60638 0.63007 0.13424 0.0
C1191 C 0.58664 0.63475 0.1563 0.0
H1192 H 0.36795 0.44032 0.13391 0.0
H1193 H 0.41866 0.51622 0.14173 0.0
H1194 H 0.41075 0.41101 0.13479 0.0
H1195 H 0.4621 0.48702 0.14185 0.0
H1196 H 0.52971 0.42948 0.09687 0.0
H1197 H 0.48811 0.45961 0.1067 0.0
H1198 H 0.4523 0.39263 0.15864 0.0
H1199 H 0.49375 0.36251 0.14807 0.0
C1200 C 0.38818 0.45062 0.13784 0.0
C1201 C 0.38963 0.48052 0.13937 0.0
C1202 C 0.41297 0.43383 0.13759 0.0
C1203 C 0.44018 0.44648 0.13818 0.0
C1204 C 0.44164 0.47641 0.14104 0.0
C1205 C 0.41671 0.49319 0.14151 0.0
C1206 C 0.51276 0.42118 0.1101 0.0
C1207 C 0.5146 0.39332 0.121 0.0
C1208 C 0.48906 0.43858 0.11616 0.0
C1209 C 0.46654 0.42867 0.13346 0.0
C1210 C 0.46886 0.40097 0.14492 0.0
C1211 C 0.49263 0.38367 0.13893 0.0
H1212 H 0.96737 0.22925 0.94414 0.0
H1213 H 1.01769 0.16092 0.97929 0.0
H1214 H 0.93074 0.19533 0.93039 0.0
H1215 H 0.98009 0.12695 0.96745 0.0
H1216 H 0.91738 0.06688 0.92577 0.0
H1217 H 0.95623 0.10142 0.93127 0.0
H1218 H 0.89425 0.16751 0.94861 0.0
H1219 H 0.85614 0.13337 0.94237 0.0
C1220 C 0.97034 0.20697 0.94946 0.0
C1221 C 0.99523 0.19804 0.96351 0.0
C1222 C 0.94921 0.18742 0.94168 0.0
C1223 C 0.95207 0.15815 0.94788 0.0
C1224 C 0.97704 0.14917 0.96198 0.0
C1225 C 0.9984 0.16879 0.96948 0.0
C1226 C 0.9122 0.08911 0.92944 0.0
C1227 C 0.88359 0.0976 0.93232 0.0
C1228 C 0.93446 0.10885 0.93326 0.0
C1229 C 0.92865 0.13749 0.94062 0.0
C1230 C 0.8999 0.146 0.94242 0.0
C1231 C 0.87783 0.12637 0.93848 0.0
H1232 H 0.69888 0.93532 0.43306 0.0
H1233 H 0.64808 1.01101 0.42256 0.0
H1234 H 0.6562 0.90604 0.43233 0.0
H1235 H 0.60474 0.98182 0.42225 0.0
H1236 H 0.57402 0.85668 0.41996 0.0
H1237 H 0.61547 0.88652 0.40919 0.0
H1238 H 0.57749 0.9557 0.45675 0.0
H1239 H 0.53576 0.92583 0.46658 0.0
C1240 C 0.67868 0.94554 0.42856 0.0
C1241 C 0.67719 0.97541 0.42625 0.0
C1242 C 0.65392 0.92876 0.42885 0.0
C1243 C 0.62667 0.94137 0.42747 0.0
C1244 C 0.62521 0.97122 0.42374 0.0
C1245 C 0.65011 0.98799 0.4233 0.0
C1246 C 0.57467 0.87826 0.42812 0.0
C1247 C 0.55205 0.88859 0.44487 0.0
C1248 C 0.59846 0.89542 0.42203 0.0
C1249 C 0.60023 0.92366 0.43223 0.0
C1250 C 0.57705 0.93423 0.4483 0.0
C1251 C 0.55328 0.91698 0.45443 0.0
H1252 H 0.05508 0.68793 0.6327 0.0
H1253 H 0.11277 0.72629 0.57262 0.0
H1254 H 0.09363 0.65726 0.65013 0.0
H1255 H 0.15116 0.69569 0.58942 0.0
H1256 H 0.22175 0.64935 0.62617 0.0
H1257 H 0.18346 0.68463 0.62582 0.0
H1258 H 0.12176 0.61715 0.63658 0.0
H1259 H 0.16035 0.5823 0.63821 0.0
C1260 C 0.07592 0.68949 0.62295 0.0
C1261 C 0.08076 0.7091 0.60084 0.0
C1262 C 0.09814 0.67207 0.63307 0.0
C1263 C 0.1258 0.67388 0.6214 0.0
C1264 C 0.13051 0.69392 0.59956 0.0
C1265 C 0.10841 0.71134 0.58961 0.0
C1266 C 0.20012 0.64234 0.63024 0.0
C1267 C 0.19415 0.61311 0.63284 0.0
C1268 C 0.17801 0.66247 0.62928 0.0
C1269 C 0.14925 0.6538 0.63013 0.0
C1270 C 0.14349 0.62484 0.63581 0.0
C1271 C 0.16571 0.60476 0.63713 0.0
H1272 H 0.93938 0.57315 0.72215 0.0
H1273 H 1.02742 0.59055 0.70263 0.0
H1274 H 0.9247 0.61436 0.6936 0.0
H1275 H 1.01317 0.63144 0.67398 0.0
H1276 H 0.9833 0.71441 0.64062 0.0
H1277 H 0.99258 0.67833 0.67654 0.0
H1278 H 0.92392 0.62698 0.64311 0.0
H1279 H 0.91434 0.66362 0.60734 0.0
C1280 C 0.95549 0.58586 0.71163 0.0
C1281 C 0.98443 0.5787 0.71404 0.0
C1282 C 0.94717 0.60936 0.6954 0.0
C1283 C 0.96776 0.62606 0.68147 0.0
C1284 C 0.99679 0.6193 0.68479 0.0
C1285 C 1.00501 0.59592 0.70106 0.0
C1286 C 0.97011 0.69544 0.64107 0.0
C1287 C 0.94853 0.69137 0.62094 0.0
C1288 C 0.97542 0.67481 0.66161 0.0
C1289 C 0.95932 0.64961 0.66234 0.0
C1290 C 0.93664 0.64624 0.64312 0.0
C1291 C 0.93124 0.66706 0.62258 0.0
H1292 H 0.57995 0.46217 0.22861 0.0
H1293 H 0.57102 0.52761 0.16505 0.0
H1294 H 0.59511 0.42828 0.19186 0.0
H1295 H 0.58782 0.49483 0.1286 0.0
H1296 H 0.59439 0.41905 0.06733 0.0
H1297 H 0.57716 0.4537 0.10178 0.0
H1298 H 0.63693 0.42121 0.16359 0.0
H1299 H 0.65281 0.38573 0.12984 0.0
C1300 C 0.58125 0.46911 0.20672 0.0
C1301 C 0.57524 0.4974 0.19952 0.0
C1302 C 0.59022 0.45002 0.18578 0.0
C1303 C 0.59334 0.45912 0.15742 0.0
C1304 C 0.58574 0.48713 0.15017 0.0
C1305 C 0.57649 0.50599 0.17102 0.0
C1306 C 0.60418 0.41963 0.08811 0.0
C1307 C 0.62494 0.39947 0.09588 0.0
C1308 C 0.59423 0.43944 0.1079 0.0
C1309 C 0.60516 0.43968 0.13565 0.0
C1310 C 0.62741 0.42097 0.14267 0.0
C1311 C 0.63706 0.40102 0.12305 0.0
H1312 H 0.44357 0.99577 0.34694 0.0
H1313 H 0.52923 0.9891 0.37902 0.0
H1314 H 0.42673 0.96379 0.3841 0.0
H1315 H 0.513 0.95541 0.41537 0.0
H1316 H 0.46979 0.921 0.49474 0.0
H1317 H 0.4848 0.9556 0.45884 0.0
H1318 H 0.42912 0.91548 0.39776 0.0
H1319 H 0.41412 0.8818 0.43313 0.0
C1320 C 0.45877 0.98698 0.36182 0.0
C1321 C 0.48747 0.99494 0.3606 0.0
C1322 C 0.44928 0.96861 0.38296 0.0
C1323 C 0.46852 0.95741 0.4029 0.0
C1324 C 0.4976 0.96428 0.40072 0.0
C1325 C 0.50699 0.98299 0.37968 0.0
C1326 C 0.46028 0.92014 0.47384 0.0
C1327 C 0.44036 0.89892 0.46697 0.0
C1328 C 0.46914 0.93964 0.4532 0.0
C1329 C 0.45821 0.93814 0.42546 0.0
C1330 C 0.43759 0.91758 0.41903 0.0
C1331 C 0.42874 0.89832 0.43952 0.0
H1332 H 0.08799 0.20963 0.92522 0.0
H1333 H 0.1667 0.16825 0.9491 0.0
H1334 H 0.0807 0.17448 0.88835 0.0
H1335 H 0.1604 0.13386 0.91064 0.0
H1336 H 0.1086 0.05535 0.87898 0.0
H1337 H 0.12799 0.09479 0.90594 0.0
H1338 H 0.09464 0.15399 0.84386 0.0
H1339 H 0.0748 0.11374 0.81696 0.0
C1340 C 0.10404 0.19325 0.92225 0.0
C1341 C 0.12788 0.19156 0.94017 0.0
C1342 C 0.10009 0.17336 0.90072 0.0
C1343 C 0.11998 0.15137 0.89647 0.0
C1344 C 0.14455 0.15044 0.91356 0.0
C1345 C 0.14833 0.17024 0.9354 0.0
C1346 C 0.10641 0.07672 0.87056 0.0
C1347 C 0.09078 0.08167 0.8457 0.0
C1348 C 0.11751 0.09938 0.88599 0.0
C1349 C 0.11297 0.12757 0.87703 0.0
C1350 C 0.09831 0.13248 0.85141 0.0
C1351 C 0.08707 0.10964 0.83597 0.0
H1352 H 0.67963 0.94522 0.54612 0.0
H1353 H 0.74925 0.96894 0.60084 0.0
H1354 H 0.65478 0.92407 0.58581 0.0
H1355 H 0.72367 0.94828 0.64146 0.0
H1356 H 0.63977 0.97193 0.6932 0.0
H1357 H 0.67867 0.97199 0.65912 0.0
H1358 H 0.65105 0.89008 0.62731 0.0
H1359 H 0.61169 0.89015 0.66181 0.0
C1360 C 0.69028 0.94459 0.56643 0.0
C1361 C 0.71651 0.95832 0.57047 0.0
C1362 C 0.67599 0.93247 0.58924 0.0
C1363 C 0.68735 0.93456 0.61662 0.0
C1364 C 0.71457 0.94643 0.62043 0.0
C1365 C 0.72905 0.95835 0.59742 0.0
C1366 C 0.64219 0.95385 0.67904 0.0
C1367 C 0.62271 0.93124 0.67956 0.0
C1368 C 0.66478 0.95356 0.66001 0.0
C1369 C 0.66803 0.93083 0.64091 0.0
C1370 C 0.64908 0.90766 0.64211 0.0
C1371 C 0.62657 0.90779 0.66152 0.0
H1372 H 0.91307 0.152 0.20468 0.0
H1373 H 0.97635 0.10344 0.15886 0.0
H1374 H 0.87961 0.14619 0.16504 0.0
H1375 H 0.94298 0.09649 0.12002 0.0
H1376 H 0.88989 0.10675 0.045 0.0
H1377 H 0.91933 0.12474 0.08318 0.0
H1378 H 0.85332 0.10357 0.14372 0.0
H1379 H 0.82291 0.08692 0.10467 0.0
C1380 C 0.9198 0.14041 0.18594 0.0
C1381 C 0.94698 0.12802 0.1845 0.0
C1382 C 0.90069 0.13682 0.16355 0.0
C1383 C 0.90879 0.12095 0.13955 0.0
C1384 C 0.9363 0.10913 0.13811 0.0
C1385 C 0.95525 0.11271 0.1604 0.0
C1386 C 0.88113 0.10711 0.06625 0.0
C1387 C 0.85389 0.09617 0.07194 0.0
C1388 C 0.89816 0.11698 0.08816 0.0
C1389 C 0.88862 0.11539 0.11633 0.0
C1390 C 0.86099 0.10532 0.12208 0.0
C1391 C 0.84375 0.09563 0.09995 0.0
H1392 H 0.24053 0.60122 0.47173 0.0
H1393 H 0.1803 0.53552 0.49408 0.0
H1394 H 0.20569 0.62232 0.43971 0.0
H1395 H 0.14674 0.55417 0.45966 0.0
H1396 H 0.07902 0.60847 0.42086 0.0
H1397 H 0.11463 0.5911 0.45435 0.0
H1398 H 0.18168 0.61912 0.39758 0.0
H1399 H 0.14634 0.63782 0.36546 0.0
C1400 C 0.21989 0.59123 0.46959 0.0
C1401 C 0.21271 0.56742 0.48607 0.0
C1402 C 0.20002 0.60295 0.45087 0.0
C1403 C 0.17296 0.59039 0.44751 0.0
C1404 C 0.16681 0.56517 0.46245 0.0
C1405 C 0.18631 0.55404 0.48172 0.0
C1406 C 0.10141 0.61152 0.41609 0.0
C1407 C 0.10987 0.62496 0.3909 0.0
C1408 C 0.12188 0.60117 0.43496 0.0
C1409 C 0.15119 0.60336 0.4286 0.0
C1410 C 0.15948 0.61746 0.40362 0.0
C1411 C 0.13909 0.62836 0.38516 0.0
H1412 H 0.35009 0.4433 0.99434 0.0
H1413 H 0.38269 0.52894 0.98786 0.0
H1414 H 0.38597 0.42679 0.9604 0.0
H1415 H 0.41803 0.51294 0.95288 0.0
H1416 H 0.49632 0.46873 0.91625 0.0
H1417 H 0.46159 0.48258 0.95255 0.0
H1418 H 0.39718 0.4324 0.91033 0.0
H1419 H 0.43127 0.41909 0.87435 0.0
C1420 C 0.36485 0.45853 0.98527 0.0
C1421 C 0.3641 0.48718 0.99361 0.0
C1422 C 0.38525 0.44922 0.96589 0.0
C1423 C 0.40501 0.46855 0.95443 0.0
C1424 C 0.40344 0.49751 0.96194 0.0
C1425 C 0.38303 0.50677 0.98142 0.0
C1426 C 0.47491 0.46017 0.91517 0.0
C1427 C 0.46672 0.44229 0.89272 0.0
C1428 C 0.45501 0.46833 0.93571 0.0
C1429 C 0.42674 0.45859 0.93411 0.0
C1430 C 0.41893 0.43987 0.91234 0.0
C1431 C 0.43866 0.43191 0.89185 0.0
H1432 H 0.70895 0.64258 0.98021 0.0
H1433 H 0.67229 0.6173 0.90008 0.0
H1434 H 0.67262 0.679 0.98561 0.0
H1435 H 0.63681 0.65521 0.90449 0.0
H1436 H 0.60979 0.74849 0.98912 0.0
H1437 H 0.65169 0.72319 0.97036 0.0
H1438 H 0.59623 0.6588 0.93494 0.0
H1439 H 0.55518 0.68415 0.9533 0.0
C1440 C 0.69336 0.64518 0.96349 0.0
C1441 C 0.69332 0.62709 0.93974 0.0
C1442 C 0.67285 0.66644 0.96632 0.0
C1443 C 0.6519 0.67013 0.9454 0.0
C1444 C 0.65262 0.65279 0.92103 0.0
C1445 C 0.67301 0.63126 0.91837 0.0
C1446 C 0.60687 0.72939 0.97655 0.0
C1447 C 0.5795 0.71847 0.97208 0.0
C1448 C 0.63065 0.71486 0.96594 0.0
C1449 C 0.62725 0.68897 0.95117 0.0
C1450 C 0.59965 0.67898 0.94558 0.0
C1451 C 0.57605 0.69351 0.95606 0.0
H1452 H 0.05304 0.87522 0.10941 0.0
H1453 H 0.11625 0.82225 0.06861 0.0
H1454 H 0.09017 0.90528 0.1288 0.0
H1455 H 0.15403 0.85348 0.08731 0.0
H1456 H 0.21249 0.91277 0.14281 0.0
H1457 H 0.17655 0.87532 0.13541 0.0
H1458 H 0.12078 0.93756 0.09675 0.0
H1459 H 0.15642 0.97465 0.10439 0.0
C1460 C 0.07501 0.86929 0.10564 0.0
C1461 C 0.08195 0.84595 0.08823 0.0
C1462 C 0.09621 0.88676 0.11638 0.0
C1463 C 0.12478 0.88163 0.10944 0.0
C1464 C 0.13205 0.85754 0.09317 0.0
C1465 C 0.11063 0.83985 0.08242 0.0
C1466 C 0.19221 0.91831 0.13332 0.0
C1467 C 0.18672 0.94633 0.12439 0.0
C1468 C 0.17195 0.89699 0.12884 0.0
C1469 C 0.14603 0.90374 0.11567 0.0
C1470 C 0.14051 0.93198 0.10729 0.0
C1471 C 0.1608 0.9531 0.11151 0.0
H1472 H 0.42031 0.08809 0.60608 0.0
H1473 H 0.3648 0.15007 0.6454 0.0
H1474 H 0.45552 0.12533 0.59715 0.0
H1475 H 0.40031 0.18743 0.63713 0.0
H1476 H 0.45447 0.24367 0.57089 0.0
H1477 H 0.41925 0.21008 0.59057 0.0
H1478 H 0.4877 0.15834 0.62392 0.0
H1479 H 0.52228 0.19099 0.60352 0.0
C1480 C 0.41613 0.10956 0.61355 0.0
C1481 C 0.3904 0.11625 0.62708 0.0
C1482 C 0.43616 0.13083 0.60849 0.0
C1483 C 0.43058 0.15916 0.61662 0.0
C1484 C 0.40504 0.16573 0.63073 0.0
C1485 C 0.38506 0.14435 0.63594 0.0
C1486 C 0.46166 0.22544 0.58304 0.0
C1487 C 0.49084 0.22019 0.58643 0.0
C1488 C 0.44171 0.20637 0.59435 0.0
C1489 C 0.45092 0.18173 0.60876 0.0
C1490 C 0.4801 0.17717 0.61292 0.0
C1491 C 0.49985 0.19605 0.60163 0.0
H1492 H 0.86542 0.41836 0.42481 0.0
H1493 H 0.92334 0.48403 0.45239 0.0
H1494 H 0.90029 0.38179 0.43746 0.0
H1495 H 0.9589 0.44786 0.46376 0.0
H1496 H 0.9957 0.38283 0.52091 0.0
H1497 H 0.9606 0.4156 0.50212 0.0
H1498 H 0.9457 0.35853 0.43154 0.0
H1499 H 0.97938 0.32427 0.45225 0.0
C1500 C 0.88616 0.42489 0.43247 0.0
C1501 C 0.89202 0.45375 0.43764 0.0
C1502 C 0.90606 0.40402 0.43982 0.0
C1503 C 0.93206 0.41191 0.45226 0.0
C1504 C 0.93866 0.44107 0.45507 0.0
C1505 C 0.91859 0.4618 0.44826 0.0
C1506 C 0.98442 0.37699 0.50175 0.0
C1507 C 0.99059 0.35137 0.48765 0.0
C1508 C 0.96477 0.39602 0.49061 0.0
C1509 C 0.95122 0.3902 0.46471 0.0
C1510 C 0.95613 0.36379 0.45133 0.0
C1511 C 0.97553 0.34434 0.46295 0.0
H1512 H 0.30707 0.42474 0.32834 0.0
H1513 H 0.23108 0.47425 0.34261 0.0
H1514 H 0.28915 0.3875 0.36015 0.0
H1515 H 0.2129 0.4373 0.37505 0.0
H1516 H 0.17904 0.35004 0.40771 0.0
H1517 H 0.19558 0.38668 0.37415 0.0
H1518 H 0.2799 0.38146 0.41048 0.0
H1519 H 0.26328 0.34612 0.44402 0.0
C1520 C 0.28674 0.42771 0.3389 0.0
C1521 C 0.27058 0.45226 0.33374 0.0
C1522 C 0.27638 0.40649 0.35693 0.0
C1523 C 0.24957 0.40945 0.37009 0.0
C1524 C 0.23346 0.43426 0.36495 0.0
C1525 C 0.24393 0.45553 0.34687 0.0
C1526 C 0.20092 0.35711 0.40857 0.0
C1527 C 0.21961 0.34555 0.42873 0.0
C1528 C 0.21047 0.37789 0.38937 0.0
C1529 C 0.23906 0.38704 0.38976 0.0
C1530 C 0.25786 0.37469 0.40935 0.0
C1531 C 0.24829 0.35427 0.42855 0.0
H1532 H 0.30664 0.74283 0.93281 0.0
H1533 H 0.39304 0.72475 0.90704 0.0
H1534 H 0.28892 0.71043 0.89687 0.0
H1535 H 0.3753 0.69105 0.87133 0.0
H1536 H 0.33127 0.60671 0.84153 0.0
H1537 H 0.35082 0.64347 0.87309 0.0
H1538 H 0.28496 0.70187 0.84583 0.0
H1539 H 0.26544 0.66482 0.81482 0.0
C1540 C 0.32197 0.73221 0.91918 0.0
C1541 C 0.35148 0.73562 0.9234 0.0
C1542 C 0.31173 0.71352 0.89855 0.0
C1543 C 0.33069 0.6977 0.8816 0.0
C1544 C 0.36016 0.70237 0.8846 0.0
C1545 C 0.37038 0.72144 0.90509 0.0
C1546 C 0.32102 0.62739 0.84261 0.0
C1547 C 0.29697 0.63314 0.82592 0.0
C1548 C 0.33234 0.64852 0.86029 0.0
C1549 C 0.31956 0.67568 0.8618 0.0
C1550 C 0.29525 0.68118 0.84523 0.0
C1551 C 0.28412 0.66011 0.82745 0.0
H1552 H 0.72913 0.25862 0.66785 0.0
H1553 H 0.69652 0.19078 0.61568 0.0
H1554 H 0.74739 0.22335 0.70169 0.0
H1555 H 0.71392 0.15555 0.64933 0.0
H1556 H 0.73059 0.09998 0.72736 0.0
H1557 H 0.70891 0.13583 0.69619 0.0
H1558 H 0.78471 0.18769 0.70359 0.0
H1559 H 0.80568 0.15184 0.7353 0.0
C1560 C 0.72526 0.23619 0.66402 0.0
C1561 C 0.71032 0.22738 0.63982 0.0
C1562 C 0.7359 0.21595 0.6832 0.0
C1563 C 0.73207 0.18653 0.67831 0.0
C1564 C 0.71672 0.17794 0.65421 0.0
C1565 C 0.70627 0.19813 0.63511 0.0
C1566 C 0.74256 0.11892 0.72181 0.0
C1567 C 0.76983 0.12319 0.73305 0.0
C1568 C 0.73024 0.13948 0.70413 0.0
C1569 C 0.74501 0.16476 0.69743 0.0
C1570 C 0.77253 0.16874 0.70863 0.0
C1571 C 0.78477 0.14815 0.72635 0.0
H1572 H 0.81018 0.83477 0.13333 0.0
H1573 H 0.89651 0.84964 0.16052 0.0
H1574 H 0.79302 0.86967 0.16711 0.0
H1575 H 0.87941 0.88578 0.1942 0.0
H1576 H 0.83869 0.97236 0.22222 0.0
H1577 H 0.85754 0.93416 0.19163 0.0
H1578 H 0.78745 0.87997 0.21702 0.0
H1579 H 0.76882 0.91844 0.24703 0.0
C1580 C 0.82563 0.84522 0.14682 0.0
C1581 C 0.85505 0.84005 0.14358 0.0
C1582 C 0.8157 0.86538 0.16623 0.0
C1583 C 0.83484 0.88092 0.18305 0.0
C1584 C 0.86415 0.8747 0.181 0.0
C1585 C 0.87406 0.85421 0.16164 0.0
C1586 C 0.8273 0.95234 0.22071 0.0
C1587 C 0.80217 0.9482 0.23629 0.0
C1588 C 0.8382 0.93038 0.20366 0.0
C1589 C 0.82402 0.90398 0.20194 0.0
C1590 C 0.79872 0.90011 0.21758 0.0
C1591 C 0.78795 0.92202 0.23462 0.0
H1592 H 0.40015 0.235 0.3095 0.0
H1593 H 0.45423 0.20322 0.37618 0.0
H1594 H 0.36669 0.25345 0.34524 0.0
H1595 H 0.4217 0.22173 0.41175 0.0
H1596 H 0.34643 0.23665 0.46996 0.0
H1597 H 0.37725 0.21612 0.4334 0.0
H1598 H 0.36184 0.28972 0.3801 0.0
H1599 H 0.33004 0.30931 0.41658 0.0
C1600 C 0.40451 0.23152 0.3318 0.0
C1601 C 0.42896 0.21656 0.34021 0.0
C1602 C 0.38563 0.24234 0.3523 0.0
C1603 C 0.39129 0.2389 0.38152 0.0
C1604 C 0.41603 0.22407 0.38961 0.0
C1605 C 0.4346 0.21315 0.36922 0.0
C1606 C 0.35007 0.24843 0.45051 0.0
C1607 C 0.33624 0.27451 0.44596 0.0
C1608 C 0.36764 0.23676 0.42951 0.0
C1609 C 0.37209 0.25121 0.40364 0.0
C1610 C 0.35853 0.27769 0.39944 0.0
C1611 C 0.34064 0.28913 0.42037 0.0
H1612 H 0.16417 0.89298 0.84062 0.0
H1613 H 0.12449 0.81011 0.84269 0.0
H1614 H 0.19917 0.87685 0.87586 0.0
H1615 H 0.15891 0.79395 0.87721 0.0
H1616 H 0.23775 0.76384 0.9225 0.0
H1617 H 0.20666 0.7812 0.88461 0.0
H1618 H 0.20298 0.86389 0.9253 0.0
H1619 H 0.23516 0.84627 0.96249 0.0
C1620 C 0.16282 0.8715 0.8488 0.0
C1621 C 0.14127 0.85315 0.83934 0.0
C1622 C 0.18288 0.86213 0.86884 0.0
C1623 C 0.18185 0.83406 0.87959 0.0
C1624 C 0.16079 0.81553 0.86923 0.0
C1625 C 0.14094 0.82487 0.84933 0.0
C1626 C 0.22994 0.78558 0.92326 0.0
C1627 C 0.23814 0.80365 0.9454 0.0
C1628 C 0.21219 0.79563 0.90167 0.0
C1629 C 0.20206 0.82397 0.9019 0.0
C1630 C 0.21056 0.84208 0.92419 0.0
C1631 C 0.22858 0.832 0.94567 0.0
H1632 H 0.8108 0.34143 0.62913 0.0
H1633 H 0.85836 0.26285 0.62661 0.0
H1634 H 0.83991 0.35851 0.66773 0.0
H1635 H 0.89057 0.28126 0.66267 0.0
H1636 H 0.93229 0.30642 0.74247 0.0
H1637 H 0.89723 0.28976 0.70901 0.0
H1638 H 0.87932 0.37721 0.68512 0.0
H1639 H 0.91117 0.39354 0.72203 0.0
C1640 C 0.82757 0.32775 0.637 0.0
C1641 C 0.83138 0.30019 0.62592 0.0
C1642 C 0.84491 0.33784 0.65882 0.0
C1643 C 0.86762 0.32122 0.66923 0.0
C1644 C 0.87268 0.2944 0.65643 0.0
C1645 C 0.85459 0.28392 0.63527 0.0
C1646 C 0.92034 0.32218 0.73061 0.0
C1647 C 0.92581 0.35151 0.73384 0.0
C1648 C 0.90055 0.31253 0.71074 0.0
C1649 C 0.88613 0.33184 0.69292 0.0
C1650 C 0.89002 0.3613 0.69784 0.0
C1651 C 0.90902 0.3709 0.7186 0.0
H1652 H 0.64572 0.75797 0.24707 0.0
H1653 H 0.65036 0.67317 0.21206 0.0
H1654 H 0.68019 0.77439 0.21253 0.0
H1655 H 0.68314 0.68993 0.17567 0.0
H1656 H 0.75798 0.72478 0.12457 0.0
H1657 H 0.72749 0.70614 0.16208 0.0
H1658 H 0.68258 0.78679 0.165 0.0
H1659 H 0.71494 0.80587 0.12904 0.0
C1660 C 0.65423 0.74262 0.23214 0.0
C1661 C 0.64479 0.71412 0.23221 0.0
C1662 C 0.67371 0.75225 0.21182 0.0
C1663 C 0.68403 0.73385 0.19053 0.0
C1664 C 0.67582 0.70494 0.19157 0.0
C1665 C 0.65674 0.69521 0.21236 0.0
C1666 C 0.74192 0.73862 0.13368 0.0
C1667 C 0.73945 0.76709 0.12465 0.0
C1668 C 0.72405 0.72781 0.15492 0.0
C1669 C 0.7027 0.745 0.1672 0.0
C1670 C 0.69931 0.77309 0.1569 0.0
C1671 C 0.71753 0.78399 0.13595 0.0
H1672 H 0.44616 0.3163 0.22432 0.0
H1673 H 0.44365 0.35958 0.30489 0.0
H1674 H 0.40736 0.34563 0.20709 0.0
H1675 H 0.40678 0.39163 0.28685 0.0
H1676 H 0.32382 0.42884 0.26009 0.0
H1677 H 0.3593 0.39503 0.27641 0.0
H1678 H 0.39167 0.38756 0.19056 0.0
H1679 H 0.35391 0.41852 0.17417 0.0
C1680 C 0.43726 0.33234 0.23827 0.0
C1681 C 0.44699 0.33499 0.26628 0.0
C1682 C 0.41528 0.34963 0.22826 0.0
C1683 C 0.40325 0.37094 0.24563 0.0
C1684 C 0.41458 0.37484 0.2731 0.0
C1685 C 0.43609 0.3569 0.28336 0.0
C1686 C 0.33799 0.41934 0.24457 0.0
C1687 C 0.33651 0.42707 0.21576 0.0
C1688 C 0.35887 0.40032 0.25406 0.0
C1689 C 0.37924 0.38904 0.23511 0.0
C1690 C 0.37658 0.39555 0.20604 0.0
C1691 C 0.3551 0.41379 0.19651 0.0
H1692 H 0.82051 0.14656 0.80841 0.0
H1693 H 0.85551 0.14957 0.89279 0.0
H1694 H 0.85661 0.17976 0.79217 0.0
H1695 H 0.89339 0.18047 0.87634 0.0
H1696 H 0.94877 0.25204 0.84348 0.0
H1697 H 0.90962 0.22328 0.86123 0.0
H1698 H 0.90395 0.18138 0.77952 0.0
H1699 H 0.94146 0.21257 0.76131 0.0
C1700 C 0.8358 0.15443 0.82366 0.0
C1701 C 0.83534 0.14493 0.85199 0.0
C1702 C 0.857 0.17312 0.81417 0.0
C1703 C 0.87871 0.18239 0.83259 0.0
C1704 C 0.87721 0.1741 0.86131 0.0
C1705 C 0.85554 0.15604 0.87088 0.0
C1706 C 0.93875 0.23697 0.82927 0.0
C1707 C 0.94739 0.23518 0.80077 0.0
C1708 C 0.91652 0.22006 0.83953 0.0
C1709 C 0.90296 0.20011 0.8218 0.0
C1710 C 0.913 0.19712 0.79367 0.0
C1711 C 0.93487 0.21458 0.78326 0.0
H1712 H 0.63186 0.85574 0.25736 0.0
H1713 H 0.62302 0.81747 0.33997 0.0
H1714 H 0.66908 0.88719 0.27567 0.0
H1715 H 0.66216 0.84571 0.35762 0.0
H1716 H 0.71506 0.91805 0.39068 0.0
H1717 H 0.67818 0.88719 0.37314 0.0
H1718 H 0.71558 0.8914 0.28906 0.0
H1719 H 0.7505 0.92537 0.30649 0.0
C1720 C 0.63811 0.85402 0.27941 0.0
C1721 C 0.62523 0.83371 0.29707 0.0
C1722 C 0.65984 0.87157 0.28987 0.0
C1723 C 0.66943 0.86883 0.31814 0.0
C1724 C 0.65559 0.84899 0.33588 0.0
C1725 C 0.63336 0.83226 0.32565 0.0
C1726 C 0.71536 0.91247 0.36848 0.0
C1727 C 0.7352 0.92496 0.35 0.0
C1728 C 0.69429 0.89427 0.35828 0.0
C1729 C 0.69322 0.88685 0.32932 0.0
C1730 C 0.71481 0.89732 0.31125 0.0
C1731 C 0.73535 0.9164 0.32138 0.0
H1732 H 0.14981 0.73797 0.80379 0.0
H1733 H 0.09686 0.73191 0.72966 0.0
H1734 H 0.18524 0.7065 0.78154 0.0
H1735 H 0.13234 0.70105 0.70668 0.0
H1736 H 0.18692 0.62026 0.69141 0.0
H1737 H 0.15211 0.65397 0.70976 0.0
H1738 H 0.22035 0.70527 0.744 0.0
H1739 H 0.25526 0.67137 0.7248 0.0
C1740 C 0.14581 0.72953 0.78278 0.0
C1741 C 0.12068 0.73671 0.76847 0.0
C1742 C 0.16616 0.71193 0.76982 0.0
C1743 C 0.16178 0.70135 0.74219 0.0
C1744 C 0.13631 0.7085 0.72807 0.0
C1745 C 0.11597 0.72602 0.74113 0.0
C1746 C 0.19452 0.63944 0.70162 0.0
C1747 C 0.22381 0.64372 0.7058 0.0
C1748 C 0.17453 0.65862 0.71257 0.0
C1749 C 0.18333 0.68237 0.72848 0.0
C1750 C 0.21278 0.687 0.73218 0.0
C1751 C 0.23281 0.66777 0.72104 0.0
H1752 H 0.80247 0.66866 0.76424 0.0
H1753 H 0.8411 0.59929 0.7184 0.0
H1754 H 0.82487 0.70289 0.73237 0.0
H1755 H 0.86517 0.6334 0.68696 0.0
H1756 H 0.87112 0.70021 0.61478 0.0
H1757 H 0.85923 0.66418 0.64959 0.0
H1758 H 0.86367 0.72762 0.71602 0.0
H1759 H 0.87442 0.76404 0.68054 0.0
C1760 C 0.81637 0.66084 0.74758 0.0
C1761 C 0.82017 0.63135 0.7439 0.0
C1762 C 0.82951 0.68049 0.72928 0.0
C1763 C 0.84727 0.67135 0.70678 0.0
C1764 C 0.85142 0.64162 0.70354 0.0
C1765 C 0.8378 0.62192 0.72165 0.0
C1766 C 0.8707 0.70639 0.63692 0.0
C1767 C 0.87408 0.73522 0.64472 0.0
C1768 C 0.86356 0.68552 0.65713 0.0
C1769 C 0.85964 0.69267 0.68596 0.0
C1770 C 0.86545 0.72112 0.69405 0.0
C1771 C 0.87224 0.74208 0.67373 0.0
H1772 H 0.68693 0.30861 0.18189 0.0
H1773 H 0.7064 0.36754 0.11438 0.0
H1774 H 0.70086 0.34463 0.21686 0.0
H1775 H 0.72133 0.40287 0.1487 0.0
H1776 H 0.73834 0.4693 0.2158 0.0
H1777 H 0.71381 0.43627 0.18384 0.0
H1778 H 0.74142 0.3655 0.23588 0.0
H1779 H 0.76475 0.39881 0.268 0.0
C1780 C 0.69339 0.32953 0.17454 0.0
C1781 C 0.69465 0.33529 0.14527 0.0
C1782 C 0.70195 0.35013 0.19458 0.0
C1783 C 0.71266 0.37697 0.18595 0.0
C1784 C 0.71288 0.38293 0.15662 0.0
C1785 C 0.70413 0.36249 0.13671 0.0
C1786 C 0.73875 0.44668 0.22045 0.0
C1787 C 0.75303 0.43675 0.24469 0.0
C1788 C 0.72486 0.42758 0.20203 0.0
C1789 C 0.72536 0.39782 0.20695 0.0
C1790 C 0.73969 0.38808 0.23142 0.0
C1791 C 0.75322 0.40722 0.24997 0.0
H1792 H 0.29957 0.90803 0.29997 0.0
H1793 H 0.32303 0.97638 0.35606 0.0
H1794 H 0.32267 0.87359 0.33117 0.0
H1795 H 0.34767 0.94235 0.38701 0.0
H1796 H 0.35646 0.87081 0.45337 0.0
H1797 H 0.34145 0.90748 0.42048 0.0
H1798 H 0.36243 0.85207 0.35008 0.0
H1799 H 0.3762 0.81464 0.38359 0.0
C1800 C 0.31033 0.91571 0.31878 0.0
C1801 C 0.30972 0.94492 0.32545 0.0
C1802 C 0.32382 0.89594 0.33674 0.0
C1803 C 0.33744 0.90476 0.36196 0.0
C1804 C 0.33716 0.93429 0.36824 0.0
C1805 C 0.32322 0.95399 0.35042 0.0
C1806 C 0.35875 0.86665 0.43086 0.0
C1807 C 0.36822 0.83976 0.42124 0.0
C1808 C 0.34998 0.88789 0.41176 0.0
C1809 C 0.35025 0.88313 0.3822 0.0
C1810 C 0.36115 0.85667 0.37255 0.0
C1811 C 0.36964 0.83523 0.39177 0.0
H1812 H 0.21205 0.20048 0.95298 0.0
H1813 H 0.19651 0.26056 0.88555 0.0
H1814 H 0.22516 0.16437 0.9187 0.0
H1815 H 0.20825 0.22376 0.85055 0.0
H1816 H 0.24178 0.09737 0.85239 0.0
H1817 H 0.21783 0.13133 0.88401 0.0
H1818 H 0.24668 0.20077 0.83074 0.0
H1819 H 0.2689 0.1664 0.79871 0.0
C1820 C 0.21015 0.20566 0.93065 0.0
C1821 C 0.20258 0.23345 0.92214 0.0
C1822 C 0.21789 0.18475 0.91073 0.0
C1823 C 0.21823 0.19073 0.8814 0.0
C1824 C 0.20902 0.21816 0.87281 0.0
C1825 C 0.20169 0.23927 0.89288 0.0
C1826 C 0.24253 0.11991 0.84742 0.0
C1827 C 0.25691 0.12921 0.82296 0.0
C1828 C 0.22902 0.13957 0.86566 0.0
C1829 C 0.23015 0.16927 0.86039 0.0
C1830 C 0.24449 0.17832 0.83558 0.0
C1831 C 0.25748 0.1586 0.81713 0.0
H1832 H 0.76981 0.79791 0.66992 0.0
H1833 H 0.715 0.82427 0.60173 0.0
H1834 H 0.73764 0.81976 0.70439 0.0
H1835 H 0.68302 0.84738 0.63586 0.0
H1836 H 0.61464 0.85503 0.70531 0.0
H1837 H 0.64863 0.84024 0.66954 0.0
H1838 H 0.71772 0.85852 0.72719 0.0
H1839 H 0.68302 0.87209 0.76373 0.0
C1840 C 0.75114 0.80906 0.66226 0.0
C1841 C 0.74519 0.80964 0.63301 0.0
C1842 C 0.73255 0.82178 0.6821 0.0
C1843 C 0.70733 0.83575 0.67339 0.0
C1844 C 0.70174 0.8366 0.64388 0.0
C1845 C 0.72019 0.8235 0.6241 0.0
C1846 C 0.63711 0.85688 0.71019 0.0
C1847 C 0.64592 0.8656 0.73743 0.0
C1848 C 0.65687 0.84812 0.68947 0.0
C1849 C 0.68641 0.84786 0.69497 0.0
C1850 C 0.69531 0.85777 0.72191 0.0
C1851 C 0.67539 0.86614 0.74288 0.0
H1852 H 0.84792 0.24356 0.10113 0.0
H1853 H 0.8002 0.27997 0.1702 0.0
H1854 H 0.88007 0.22035 0.13488 0.0
H1855 H 0.83304 0.25872 0.20424 0.0
H1856 H 0.88753 0.20987 0.26511 0.0
H1857 H 0.85164 0.22251 0.22985 0.0
H1858 H 0.91707 0.2239 0.16503 0.0
H1859 H 0.95208 0.20964 0.19989 0.0
C1860 C 0.84445 0.24665 0.12366 0.0
C1861 C 0.82142 0.2634 0.133 0.0
C1862 C 0.86308 0.23354 0.14323 0.0
C1863 C 0.85975 0.23737 0.17289 0.0
C1864 C 0.83645 0.25431 0.18196 0.0
C1865 C 0.81754 0.26684 0.16239 0.0
C1866 C 0.89398 0.21191 0.24311 0.0
C1867 C 0.92278 0.20817 0.23554 0.0
C1868 C 0.87342 0.21983 0.22275 0.0
C1869 C 0.881 0.22509 0.1941 0.0
C1870 C 0.90969 0.21996 0.18644 0.0
C1871 C 0.93008 0.21157 0.20668 0.0
H1872 H 0.12479 0.69295 0.36452 0.0
H1873 H 0.18515 0.71169 0.29778 0.0
H1874 H 0.15911 0.70827 0.3998 0.0
H1875 H 0.21945 0.72766 0.33333 0.0
H1876 H 0.25005 0.79545 0.39874 0.0
H1877 H 0.221 0.7703 0.36355 0.0
H1878 H 0.20531 0.70308 0.42431 0.0
H1879 H 0.23456 0.72868 0.45941 0.0
C1880 C 0.14579 0.69908 0.35726 0.0
C1881 C 0.15204 0.70066 0.32796 0.0
C1882 C 0.16551 0.7083 0.3777 0.0
C1883 C 0.19197 0.71984 0.36954 0.0
C1884 C 0.19908 0.71947 0.34046 0.0
C1885 C 0.1795 0.7099 0.32002 0.0
C1886 C 0.24033 0.77529 0.40442 0.0
C1887 C 0.24429 0.76406 0.43174 0.0
C1888 C 0.22393 0.76067 0.38423 0.0
C1889 C 0.21083 0.73444 0.39088 0.0
C1890 C 0.21489 0.72323 0.41839 0.0
C1891 C 0.23159 0.73781 0.43851 0.0
H1892 H 0.30294 0.29825 0.89931 0.0
H1893 H 0.35578 0.32853 0.96739 0.0
H1894 H 0.33335 0.32223 0.86475 0.0
H1895 H 0.38618 0.35356 0.93301 0.0
H1896 H 0.45302 0.36343 0.86135 0.0
H1897 H 0.42081 0.34702 0.89813 0.0
H1898 H 0.34906 0.36435 0.84344 0.0
H1899 H 0.38181 0.37995 0.80601 0.0
C1900 C 0.32082 0.31064 0.9069 0.0
C1901 C 0.3267 0.31186 0.93612 0.0
C1902 C 0.33833 0.32457 0.88705 0.0
C1903 C 0.3624 0.34031 0.89573 0.0
C1904 C 0.36817 0.34152 0.92517 0.0
C1905 C 0.35071 0.3273 0.94502 0.0
C1906 C 0.43033 0.36463 0.85733 0.0
C1907 C 0.42011 0.37371 0.83066 0.0
C1908 C 0.41167 0.35504 0.87863 0.0
C1909 C 0.38202 0.35392 0.87407 0.0
C1910 C 0.37169 0.36425 0.84783 0.0
C1911 C 0.39045 0.37373 0.8264 0.0
H1912 H 0.669 0.77127 0.80661 0.0
H1913 H 0.602 0.71529 0.83447 0.0
H1914 H 0.7046 0.73959 0.82731 0.0
H1915 H 0.63727 0.68386 0.85657 0.0
H1916 H 0.76633 0.68415 0.87534 0.0
H1917 H 0.72878 0.71905 0.865 0.0
H1918 H 0.67089 0.65006 0.84593 0.0
H1919 H 0.70765 0.61589 0.8575 0.0
C1920 C 0.66187 0.75251 0.81797 0.0
C1921 C 0.63266 0.74595 0.8192 0.0
C1922 C 0.68233 0.73421 0.82998 0.0
C1923 C 0.67424 0.70876 0.84384 0.0
C1924 C 0.64475 0.70277 0.84572 0.0
C1925 C 0.62435 0.7209 0.83327 0.0
C1926 C 0.74523 0.67658 0.86994 0.0
C1927 C 0.73993 0.64712 0.86815 0.0
C1928 C 0.72369 0.6966 0.86348 0.0
C1929 C 0.6964 0.68775 0.85432 0.0
C1930 C 0.69111 0.65819 0.85336 0.0
C1931 C 0.7124 0.63833 0.8602 0.0
H1932 H 0.2018 0.95096 0.19729 0.0
H1933 H 0.26984 0.89095 0.21276 0.0
H1934 H 0.167 0.91548 0.21209 0.0
H1935 H 0.23488 0.85558 0.22832 0.0
H1936 H 0.16997 0.82106 0.29526 0.0
H1937 H 0.20458 0.85178 0.27107 0.0
H1938 H 0.14318 0.86838 0.20497 0.0
H1939 H 0.10864 0.83729 0.22949 0.0
C1940 C 0.20944 0.92987 0.20267 0.0
C1941 C 0.23897 0.92395 0.20323 0.0
C1942 C 0.18929 0.90947 0.21158 0.0
C1943 C 0.19796 0.88264 0.22194 0.0
C1944 C 0.2273 0.87611 0.22097 0.0
C1945 C 0.24741 0.89635 0.21166 0.0
C1946 C 0.16401 0.83119 0.27548 0.0
C1947 C 0.13665 0.82679 0.26427 0.0
C1948 C 0.1839 0.84865 0.26143 0.0
C1949 C 0.17692 0.86262 0.23584 0.0
C1950 C 0.14939 0.85815 0.22462 0.0
C1951 C 0.1296 0.84029 0.23856 0.0
H1952 H 0.30115 0.18133 0.69491 0.0
H1953 H 0.36582 0.11667 0.70465 0.0
H1954 H 0.33612 0.21806 0.70676 0.0
H1955 H 0.40015 0.15258 0.71788 0.0
H1956 H 0.46353 0.22227 0.73506 0.0
H1957 H 0.4307 0.18948 0.71142 0.0
H1958 H 0.3594 0.23799 0.74441 0.0
H1959 H 0.39258 0.27135 0.76627 0.0
C1960 C 0.32299 0.175 0.6989 0.0
C1961 C 0.33057 0.14597 0.69819 0.0
C1962 C 0.34309 0.19605 0.70629 0.0
C1963 C 0.37132 0.1887 0.71393 0.0
C1964 C 0.37906 0.15968 0.7119 0.0
C1965 C 0.35913 0.13879 0.70413 0.0
C1966 C 0.4408 0.22596 0.73681 0.0
C1967 C 0.43064 0.24951 0.75224 0.0
C1968 C 0.42179 0.20701 0.72348 0.0
C1969 C 0.39191 0.21056 0.72583 0.0
C1970 C 0.38198 0.23447 0.74126 0.0
C1971 C 0.40103 0.25368 0.75405 0.0
H1972 H 0.80724 0.38576 0.36394 0.0
H1973 H 0.86881 0.45398 0.36567 0.0
H1974 H 0.84447 0.35277 0.34814 0.0
H1975 H 0.90576 0.42132 0.34997 0.0
H1976 H 0.97228 0.35214 0.3308 0.0
H1977 H 0.93681 0.38139 0.35617 0.0
H1978 H 0.87008 0.34391 0.30536 0.0
H1979 H 0.90564 0.31453 0.28084 0.0
C1980 C 0.82886 0.39358 0.36189 0.0
C1981 C 0.83478 0.42263 0.36672 0.0
C1982 C 0.85025 0.37471 0.35234 0.0
C1983 C 0.87833 0.38424 0.34719 0.0
C1984 C 0.88463 0.41286 0.35379 0.0
C1985 C 0.86325 0.43173 0.3632 0.0
C1986 C 0.94998 0.35027 0.32525 0.0
C1987 C 0.94166 0.33124 0.3038 0.0
C1988 C 0.92958 0.36705 0.33969 0.0
C1989 C 0.90026 0.3652 0.33305 0.0
C1990 C 0.89217 0.34578 0.31164 0.0
C1991 C 0.91255 0.32908 0.29729 0.0
H1992 H 0.27499 0.35855 0.53438 0.0
H1993 H 0.18911 0.38224 0.55814 0.0
H1994 H 0.29375 0.39675 0.56399 0.0
H1995 H 0.20807 0.42058 0.58779 0.0
H1996 H 0.24767 0.47627 0.653 0.0
H1997 H 0.23764 0.42958 0.63202 0.0
H1998 H 0.29245 0.45004 0.56117 0.0
H1999 H 0.30207 0.49662 0.58201 0.0
C2000 C 0.26006 0.37182 0.54598 0.0
C2001 C 0.23045 0.36735 0.5437 0.0
C2002 C 0.27089 0.39372 0.56299 0.0
C2003 C 0.25246 0.41154 0.57846 0.0
C2004 C 0.22288 0.40689 0.57652 0.0
C2005 C 0.21198 0.38515 0.55924 0.0
C2006 C 0.25888 0.47008 0.63382 0.0
C2007 C 0.27592 0.48993 0.61928 0.0
C2008 C 0.25262 0.44361 0.62146 0.0
C2009 C 0.26376 0.43638 0.59464 0.0
C2010 C 0.28353 0.4549 0.58185 0.0
C2011 C 0.28941 0.48147 0.59397 0.0
H2012 H 0.27416 0.56867 0.08148 0.0
H2013 H 0.33126 0.59215 0.149 0.0
H2014 H 0.28228 0.61471 0.0585 0.0
H2015 H 0.3394 0.63842 0.1262 0.0
H2016 H 0.38342 0.68663 0.05176 0.0
H2017 H 0.36656 0.64747 0.08121 0.0
H2018 H 0.27958 0.6683 0.05981 0.0
H2019 H 0.29643 0.70773 1.03014 0.0
C2020 C 0.28749 0.58426 0.092 0.0
C2021 C 0.30194 0.57702 0.11706 0.0
C2022 C 0.29225 0.61059 0.0788 0.0
C2023 C 0.3119 0.63002 0.09025 0.0
C2024 C 0.32445 0.62371 0.11665 0.0
C2025 C 0.31942 0.59746 0.13 0.0
C2026 C 0.36067 0.68292 0.05319 0.0
C2027 C 0.34131 0.70037 0.03841 0.0
C2028 C 0.35098 0.66065 0.07044 0.0
C2029 C 0.32169 0.65498 0.07319 0.0
C2030 C 0.30227 0.67218 0.05821 0.0
C2031 C 0.31196 0.69475 0.04119 0.0
H2032 H 0.68278 0.19253 0.50925 0.0
H2033 H 0.76874 0.2042 0.5398 0.0
H2034 H 0.69844 0.15135 0.48157 0.0
H2035 H 0.78429 0.16283 0.51212 0.0
H2036 H 0.78247 0.0632 0.49302 0.0
H2037 H 0.77488 0.10992 0.51473 0.0
H2038 H 0.73004 0.1378 0.43976 0.0
H2039 H 0.73794 0.09085 0.41795 0.0
C2040 C 0.70502 0.18635 0.51009 0.0
C2041 C 0.72444 0.20166 0.52694 0.0
C2042 C 0.71406 0.16292 0.49393 0.0
C2043 C 0.74267 0.15391 0.49446 0.0
C2044 C 0.76211 0.16922 0.51125 0.0
C2045 C 0.75317 0.19293 0.52711 0.0
C2046 C 0.77191 0.07969 0.48079 0.0
C2047 C 0.76101 0.07353 0.45373 0.0
C2048 C 0.76748 0.10643 0.49325 0.0
C2049 C 0.75155 0.12748 0.47912 0.0
C2050 C 0.74216 0.12191 0.45128 0.0
C2051 C 0.74704 0.09522 0.43861 0.0
H2052 H 0.79969 0.86517 0.03946 0.0
H2053 H 0.88618 0.88428 1.01422 0.0
H2054 H 0.78239 0.90427 1.00986 0.0
H2055 H 0.86882 0.92342 0.98479 0.0
H2056 H 0.83043 0.97929 0.91764 0.0
H2057 H 0.84084 0.93374 0.9411 0.0
H2058 H 0.78439 0.95691 1.0099 0.0
H2059 H 0.7742 1.00218 0.98642 0.0
C2060 C 0.81506 0.87768 1.02766 0.0
C2061 C 0.84441 0.87152 1.02944 0.0
C2062 C 0.8051 0.90014 1.01066 0.0
C2063 C 0.82414 0.91689 0.99467 0.0
C2064 C 0.85346 0.91068 0.99638 0.0
C2065 C 0.86347 0.88842 1.0136 0.0
C2066 C 0.81919 0.97394 0.93705 0.0
C2067 C 0.80108 0.99402 0.94995 0.0
C2068 C 0.8256 0.94814 0.95082 0.0
C2069 C 0.81381 0.9418 0.97765 0.0
C2070 C 0.79377 0.96091 0.98925 0.0
C2071 C 0.78768 0.98678 0.97566 0.0
H2072 H 0.5814 0.30019 0.49571 0.0
H2073 H 0.65122 0.24396 0.47526 0.0
H2074 H 0.5592 0.28956 0.45022 0.0
H2075 H 0.62894 0.233 0.42954 0.0
H2076 H 0.55578 0.18656 0.38003 0.0
H2077 H 0.58497 0.20451 0.41906 0.0
H2078 H 0.56069 0.29078 0.39798 0.0
H2079 H 0.53142 0.27298 0.35922 0.0
C2080 C 0.59277 0.28676 0.48076 0.0
C2081 C 0.61832 0.27337 0.48884 0.0
C2082 C 0.57986 0.28032 0.45478 0.0
C2083 C 0.59199 0.25998 0.43639 0.0
C2084 C 0.61882 0.24843 0.4434 0.0
C2085 C 0.63195 0.25522 0.4693 0.0
C2086 C 0.55659 0.20935 0.38374 0.0
C2087 C 0.5411 0.22825 0.36641 0.0
C2088 C 0.57364 0.21969 0.40592 0.0
C2089 C 0.57544 0.24916 0.41153 0.0
C2090 C 0.55982 0.26799 0.39431 0.0
C2091 C 0.54301 0.25771 0.37203 0.0
H2092 H 0.91803 0.82795 0.97797 0.0
H2093 H 0.98943 0.77378 0.99835 0.0
H2094 H 0.93926 0.83804 0.93145 0.0
H2095 H 1.01053 0.78352 0.95203 0.0
H2096 H 0.03654 0.79882 0.86022 0.0
H2097 H 1.00758 0.78103 0.89943 0.0
H2098 H 0.98314 0.86729 0.92052 0.0
H2099 H 1.01205 0.88523 0.88114 0.0
C2100 C 0.93745 0.81696 0.97189 0.0
C2101 C 0.9519 0.79976 0.9916 0.0
C2102 C 0.94993 0.82321 0.94551 0.0
C2103 C 0.97685 0.812 0.93824 0.0
C2104 C 0.98977 0.79246 0.95686 0.0
C2105 C 0.97753 0.78659 0.98331 0.0
C2106 C 1.02495 0.81407 0.87312 0.0
C2107 C 1.02681 0.84354 0.86753 0.0
C2108 C 1.00833 0.80381 0.89562 0.0
C2109 C 0.99283 0.82268 0.91297 0.0
C2110 C 0.99443 0.85212 0.90726 0.0
C2111 C 1.01132 0.86244 0.88491 0.0
H2112 H 0.08285 0.27192 0.56667 0.0
H2113 H 0.1529 0.3259 0.59102 0.0
H2114 H 0.05939 0.2813 0.612 0.0
H2115 H 0.12933 0.33563 0.63648 0.0
H2116 H 0.05545 0.38239 0.6848 0.0
H2117 H 0.08495 0.36483 0.64567 0.0
H2118 H 0.05972 0.27847 0.66494 0.0
H2119 H 1.03022 0.29591 0.70405 0.0
C2120 C 0.09395 0.28455 0.5824 0.0
C2121 C 0.11994 0.29779 0.57544 0.0
C2122 C 0.08033 0.29027 0.60827 0.0
C2123 C 0.09219 0.3097 0.62767 0.0
C2124 C 0.11942 0.32092 0.6218 0.0
C2125 C 0.13326 0.31483 0.59603 0.0
C2126 C 0.05605 0.35966 0.68065 0.0
C2127 C 0.04032 0.34062 0.69764 0.0
C2128 C 0.07329 0.34955 0.65843 0.0
C2129 C 0.07501 0.32017 0.65236 0.0
C2130 C 0.05895 0.30119 0.66905 0.0
C2131 C 0.042 0.31125 0.69148 0.0
H2132 H 0.49234 0.70173 0.21351 0.0
H2133 H 0.56392 0.74922 0.18139 0.0
H2134 H 0.46324 0.71816 0.17413 0.0
H2135 H 0.53613 0.76367 0.14022 0.0
H2136 H 0.48138 0.79723 0.07152 0.0
H2137 H 0.5032 0.78957 0.11782 0.0
H2138 H 0.45105 0.71417 0.12899 0.0
H2139 H 0.42773 0.72399 0.08432 0.0
C2140 C 0.50193 0.71533 0.19753 0.0
C2141 C 0.53035 0.72403 0.20024 0.0
C2142 C 0.48531 0.72471 0.17467 0.0
C2143 C 0.49695 0.74234 0.15326 0.0
C2144 C 0.52573 0.7508 0.1562 0.0
C2145 C 0.54201 0.74216 0.17964 0.0
C2146 C 0.4737 0.77997 0.08476 0.0
C2147 C 0.4523 0.76172 0.07476 0.0
C2148 C 0.48677 0.77493 0.11106 0.0
C2149 C 0.47974 0.75067 0.12748 0.0
C2150 C 0.45715 0.73334 0.1178 0.0
C2151 C 0.44346 0.73902 0.09202 0.0
H2152 H 0.49744 0.58433 0.29616 0.0
H2153 H 0.47914 0.65071 0.23564 0.0
H2154 H 0.45178 0.56176 0.2857 0.0
H2155 H 0.43328 0.62818 0.22495 0.0
H2156 H 0.3828 0.55339 0.18266 0.0
H2157 H 0.42265 0.58241 0.19927 0.0
H2158 H 0.39898 0.56485 0.28612 0.0
H2159 H 0.35926 0.5358 0.26965 0.0
C2160 C 0.48297 0.59481 0.28159 0.0
C2161 C 0.49158 0.61954 0.26711 0.0
C2162 C 0.45691 0.58175 0.27537 0.0
C2163 C 0.43903 0.59289 0.25413 0.0
C2164 C 0.44672 0.61884 0.24114 0.0
C2165 C 0.47269 0.63211 0.24769 0.0
C2166 C 0.38608 0.55565 0.2053 0.0
C2167 C 0.36772 0.54214 0.22476 0.0
C2168 C 0.40876 0.57258 0.21484 0.0
C2169 C 0.41387 0.57622 0.24407 0.0
C2170 C 0.39568 0.56252 0.26349 0.0
C2171 C 0.37286 0.54585 0.25399 0.0
H2172 H 0.87965 1.01614 0.88348 0.0
H2173 H 0.86079 0.04005 0.79697 0.0
H2174 H 0.91971 0.98716 0.86662 0.0
H2175 H 0.90065 1.0111 0.78027 0.0
H2176 H 0.99929 0.99063 0.77345 0.0
H2177 H 0.95342 1.01315 0.78331 0.0
H2178 H 0.93086 0.94281 0.83804 0.0
H2179 H 0.97691 0.92015 0.82779 0.0
C2180 C 0.88404 1.01532 0.86091 0.0
C2181 C 0.86694 1.03057 0.84165 0.0
C2182 C 0.9068 0.99839 0.8512 0.0
C2183 C 0.91326 0.99655 0.82203 0.0
C2184 C 0.89631 1.012 0.80285 0.0
C2185 C 0.87341 1.02863 0.81249 0.0
C2186 C 0.9839 0.97926 0.78636 0.0
C2187 C 0.99148 0.95335 0.79938 0.0
C2188 C 0.95771 0.99233 0.79233 0.0
C2189 C 0.93862 0.98005 0.81188 0.0
C2190 C 0.94526 0.95302 0.82319 0.0
C2191 C 0.97135 0.9397 0.81682 0.0
H2192 H 0.59111 0.15046 0.33033 0.0
H2193 H 0.56945 0.0844 0.27062 0.0
H2194 H 0.63661 0.12664 0.33986 0.0
H2195 H 0.61476 0.06049 0.28001 0.0
H2196 H 0.7072 1.03167 0.29593 0.0
H2197 H 0.66809 0.06165 0.27916 0.0
H2198 H 0.64475 0.08045 0.36585 0.0
H2199 H 0.6838 0.05058 0.38273 0.0
C2200 C 0.59676 0.13164 0.31817 0.0
C2201 C 0.577 0.11943 0.29946 0.0
C2202 C 0.62251 0.11766 0.32405 0.0
C2203 C 0.62906 0.09137 0.31109 0.0
C2204 C 0.61044 0.08069 0.29032 0.0
C2205 C 0.58458 0.0945 0.28473 0.0
C2206 C 0.69372 0.04214 0.31146 0.0
C2207 C 0.69873 0.03863 0.34073 0.0
C2208 C 0.67132 0.05935 0.3018 0.0
C2209 C 0.65356 0.07378 0.32113 0.0
C2210 C 0.65841 0.07011 0.35037 0.0
C2211 C 0.6806 0.05266 0.36005 0.0
H2212 H 0.18945 0.51287 0.68241 0.0
H2213 H 0.20711 0.53972 0.76835 0.0
H2214 H 0.15053 0.48334 0.69952 0.0
H2215 H 0.16799 0.50979 0.78551 0.0
H2216 H 0.06951 0.48703 0.79109 0.0
H2217 H 0.11552 0.50976 0.78259 0.0
H2218 H 0.13949 0.44022 0.72727 0.0
H2219 H 0.09302 0.41785 0.7355 0.0
C2220 C 0.18511 0.51248 0.705 0.0
C2221 C 0.20143 0.52894 0.72393 0.0
C2222 C 0.16294 0.49518 0.71487 0.0
C2223 C 0.15625 0.4939 0.74395 0.0
C2224 C 0.17254 0.51029 0.76297 0.0
C2225 C 0.19497 0.52747 0.7531 0.0
C2226 C 0.08502 0.47618 0.77787 0.0
C2227 C 0.07773 0.45075 0.76391 0.0
C2228 C 0.11142 0.48918 0.77299 0.0
C2229 C 0.13103 0.47712 0.75379 0.0
C2230 C 0.12467 0.45033 0.7418 0.0
C2231 C 0.09828 0.43722 0.74689 0.0
H2232 H 0.85799 0.57206 0.44198 0.0
H2233 H 0.76895 0.58386 0.46067 0.0
H2234 H 0.86797 0.62001 0.45832 0.0
H2235 H 0.77818 0.63288 0.4751 0.0
H2236 H 0.8069 0.69965 0.54006 0.0
H2237 H 0.79371 0.6583 0.51219 0.0
H2238 H 0.87076 0.66756 0.46239 0.0
H2239 H 0.88463 0.70786 0.49183 0.0
C2240 C 0.84017 0.58555 0.44791 0.0
C2241 C 0.81256 0.57395 0.44958 0.0
C2242 C 0.84593 0.61335 0.45776 0.0
C2243 C 0.82415 0.63089 0.46917 0.0
C2244 C 0.796 0.62019 0.46776 0.0
C2245 C 0.7904 0.59213 0.45856 0.0
C2246 C 0.82083 0.6932 0.52284 0.0
C2247 C 0.84691 0.70736 0.51843 0.0
C2248 C 0.81318 0.66923 0.50651 0.0
C2249 C 0.83104 0.65867 0.48461 0.0
C2250 C 0.85647 0.67397 0.47928 0.0
C2251 C 0.86439 0.69758 0.49606 0.0
H2252 H 0.77716 0.50106 0.97188 0.0
H2253 H 0.69495 0.49337 0.93252 0.0
H2254 H 0.77379 0.45245 0.98921 0.0
H2255 H 0.69275 0.44356 0.94629 0.0
H2256 H 0.6717 0.37542 1.00953 0.0
H2257 H 0.68116 0.41697 0.98225 0.0
H2258 H 0.77177 0.40514 0.99502 0.0
H2259 H 0.76163 0.36385 1.02521 0.0
C2260 C 0.75907 0.4883 0.96541 0.0
C2261 C 0.73658 0.50101 0.95025 0.0
C2262 C 0.75695 0.46014 0.97558 0.0
C2263 C 0.73248 0.44344 0.97032 0.0
C2264 C 0.71142 0.45551 0.9524 0.0
C2265 C 0.71301 0.48406 0.9434 0.0
C2266 C 0.69385 0.38122 1.00654 0.0
C2267 C 0.71584 0.3659 1.02013 0.0
C2268 C 0.69942 0.40544 0.99018 0.0
C2269 C 0.72743 0.41533 0.98572 0.0
C2270 C 0.74976 0.39909 0.99808 0.0
C2271 C 0.74404 0.37495 1.01525 0.0
H2272 H 0.26659 0.9922 0.59091 0.0
H2273 H 0.34563 0.99323 0.63713 0.0
H2274 H 0.27603 0.94392 0.5754 0.0
H2275 H 0.35441 0.94384 0.6235 0.0
H2276 H 0.3865 0.88139 0.55583 0.0
H2277 H 0.37136 0.92101 0.58475 0.0
H2278 H 0.2834 0.89629 0.57308 0.0
H2279 H 0.29885 0.85725 0.54231 0.0
C2280 C 0.28527 0.98146 0.59922 0.0
C2281 C 0.3054 0.99697 0.61513 0.0
C2282 C 0.29093 0.9535 0.59003 0.0
C2283 C 0.3167 0.93966 0.597 0.0
C2284 C 0.3349 0.95383 0.61636 0.0
C2285 C 0.32945 0.98211 0.6251 0.0
C2286 C 0.36385 0.88403 0.55957 0.0
C2287 C 0.34398 0.86589 0.54626 0.0
C2288 C 0.35504 0.90696 0.57665 0.0
C2289 C 0.32591 0.91261 0.58166 0.0
C2290 C 0.30601 0.89349 0.56951 0.0
C2291 C 0.31488 0.8707 0.55194 0.0
H2292 H 0.21304 0.06981 0.12134 0.0
H2293 H 0.30257 0.08286 0.10633 0.0
H2294 H 0.20307 0.11807 0.10566 0.0
H2295 H 0.29327 0.13209 0.09261 0.0
H2296 H 0.26597 0.1995 1.02757 0.0
H2297 H 0.27871 0.15781 0.05522 0.0
H2298 H 0.20012 0.16583 0.10283 0.0
H2299 H 0.18675 0.2065 0.0736 0.0
C2300 C 0.23088 0.0836 0.11635 0.0
C2301 C 0.25869 0.07233 0.11549 0.0
C2302 C 0.22515 0.11157 0.10692 0.0
C2303 C 0.24715 0.12954 0.09675 0.0
C2304 C 0.27535 0.11907 0.09899 0.0
C2305 C 0.28094 0.09088 0.10775 0.0
C2306 C 0.25162 0.19273 0.0443 0.0
C2307 C 0.22527 0.20662 0.04814 0.0
C2308 C 0.25898 0.16855 0.06048 0.0
C2309 C 0.24054 0.15754 0.08164 0.0
C2310 C 0.21484 0.17262 0.08649 0.0
C2311 C 0.20722 0.19643 0.06984 0.0
H2312 H 0.55047 0.80538 0.69607 0.0
H2313 H 0.49037 0.87257 0.71416 0.0
H2314 H 0.52531 0.79443 0.65236 0.0
H2315 H 0.46358 0.86038 0.67171 0.0
H2316 H 0.44989 0.86357 0.57546 0.0
H2317 H 0.46465 0.86712 0.62459 0.0
H2318 H 0.49077 0.77851 0.62284 0.0
H2319 H 0.47765 0.77612 0.57268 0.0
C2320 C 0.53108 0.81701 0.6913 0.0
C2321 C 0.52246 0.83983 0.70867 0.0
C2322 C 0.51647 0.81075 0.66601 0.0
C2323 C 0.49236 0.82677 0.65759 0.0
C2324 C 0.4825 0.84807 0.67645 0.0
C2325 C 0.49758 0.85481 0.70126 0.0
C2326 C 0.4579 0.84461 0.58594 0.0
C2327 C 0.46202 0.81941 0.57039 0.0
C2328 C 0.46651 0.84655 0.61437 0.0
C2329 C 0.47935 0.82318 0.62838 0.0
C2330 C 0.48171 0.79732 0.61307 0.0
C2331 C 0.4736 0.79563 0.58435 0.0
H2332 H 1.03214 0.26155 0.18832 0.0
H2333 H 0.07368 0.18159 0.20693 0.0
H2334 H 0.06204 0.26693 0.146 0.0
H2335 H 0.10406 0.18726 0.16543 0.0
H2336 H 0.11408 0.18362 0.06737 0.0
H2337 H 0.09815 0.18225 0.1164 0.0
H2338 H 0.10654 0.27386 0.12169 0.0
H2339 H 0.12212 0.27503 0.07202 0.0
C2340 C 0.04822 0.24554 0.18391 0.0
C2341 C 0.05018 0.22099 0.20101 0.0
C2342 C 0.0655 0.2486 0.15954 0.0
C2343 C 0.08538 0.2273 0.15169 0.0
C2344 C 0.08862 0.20381 0.17007 0.0
C2345 C 0.07124 0.20064 0.19415 0.0
C2346 C 0.11377 0.20335 0.07934 0.0
C2347 C 0.11964 0.22936 0.06567 0.0
C2348 C 0.10438 0.20266 0.10763 0.0
C2349 C 0.10043 0.22802 0.12329 0.0
C2350 C 0.10869 0.25389 0.11033 0.0
C2351 C 0.11829 0.25454 0.08193 0.0
H2352 H 0.99877 0.68217 0.35735 0.0
H2353 H 0.04453 0.75916 0.37784 0.0
H2354 H 0.96694 0.69005 0.39737 0.0
H2355 H 1.01334 0.76657 0.41887 0.0
H2356 H 0.95307 0.77918 0.49112 0.0
H2357 H 0.96967 0.77693 0.44187 0.0
H2358 H 0.96809 0.68487 0.44606 0.0
H2359 H 0.95094 0.68744 0.49458 0.0
C2360 C 1.00192 0.70102 0.37027 0.0
C2361 C 1.02449 0.71992 0.36429 0.0
C2362 C 0.98368 0.70545 0.39355 0.0
C2363 C 0.98756 0.72872 0.4121 0.0
C2364 C 1.00924 0.7485 0.40519 0.0
C2365 C 1.02732 0.74425 0.38157 0.0
C2366 C 0.95467 0.75852 0.48092 0.0
C2367 C 0.95028 0.73347 0.49683 0.0
C2368 C 0.96501 0.75716 0.45279 0.0
C2369 C 0.97111 0.7307 0.43975 0.0
C2370 C 0.96372 0.70575 0.45484 0.0
C2371 C 0.95347 0.70716 0.48283 0.0
H2372 H 0.52415 0.30405 0.85863 0.0
H2373 H 0.5641 0.38669 0.86511 0.0
H2374 H 0.54891 0.28872 0.90155 0.0
H2375 H 0.58836 0.37157 0.90813 0.0
H2376 H 0.63588 0.33745 0.98374 0.0
H2377 H 0.62265 0.34212 0.93348 0.0
H2378 H 0.54282 0.2998 0.95098 0.0
H2379 H 0.55614 0.29518 1.00058 0.0
C2380 C 0.53867 0.31879 0.86873 0.0
C2381 C 0.5418 0.34675 0.85824 0.0
C2382 C 0.55274 0.31006 0.89363 0.0
C2383 C 0.5705 0.32895 0.90877 0.0
C2384 C 0.57512 0.35624 0.89716 0.0
C2385 C 0.56098 0.365 0.87239 0.0
C2386 C 0.61607 0.32815 0.97651 0.0
C2387 C 0.5972 0.31567 0.99613 0.0
C2388 C 0.60821 0.33121 0.94777 0.0
C2389 C 0.58144 0.32159 0.93794 0.0
C2390 C 0.56367 0.30724 0.95735 0.0
C2391 C 0.57135 0.30453 0.98595 0.0
H2392 H 0.56729 0.51183 0.79318 0.0
H2393 H 0.58255 0.43162 0.83514 0.0
H2394 H 0.61726 0.52442 0.79814 0.0
H2395 H 0.63321 0.44417 0.84025 0.0
H2396 H 0.70462 0.50128 0.88297 0.0
H2397 H 0.66035 0.47802 0.86907 0.0
H2398 H 0.66657 0.51689 0.78625 0.0
H2399 H 0.71059 0.5406 0.80044 0.0
C2400 C 0.58162 0.4964 0.80266 0.0
C2401 C 0.57087 0.47056 0.81344 0.0
C2402 C 0.61045 0.50365 0.80555 0.0
C2403 C 0.62962 0.48549 0.81976 0.0
C2404 C 0.61917 0.45889 0.82938 0.0
C2405 C 0.59018 0.45143 0.82608 0.0
C2406 C 0.6969 0.50447 0.86161 0.0
C2407 C 0.71131 0.52319 0.84306 0.0
C2408 C 0.67142 0.49093 0.85352 0.0
C2409 C 0.65935 0.49574 0.82658 0.0
C2410 C 0.67478 0.51296 0.80736 0.0
C2411 C 0.70035 0.52638 0.81542 0.0
H2412 H 0.08118 0.11027 0.30193 0.0
H2413 H 0.06484 0.12392 0.21311 0.0
H2414 H 0.12987 0.09587 0.29094 0.0
H2415 H 0.11247 0.10749 0.20153 0.0
H2416 H 0.20033 0.07444 0.18267 0.0
H2417 H 0.16001 0.10409 0.19675 0.0
H2418 H 0.15444 0.05774 0.276 0.0
H2419 H 0.19576 1.02982 0.26256 0.0
C2420 C 0.08836 0.1112 0.28007 0.0
C2421 C 0.06908 0.11878 0.25853 0.0
C2422 C 0.11621 0.10205 0.27352 0.0
C2423 C 0.12553 0.0992 0.24507 0.0
C2424 C 0.10684 0.10919 0.22373 0.0
C2425 C 0.07925 0.11904 0.2304 0.0
C2426 C 0.19078 0.07099 0.20335 0.0
C2427 C 0.20156 0.04964 0.22143 0.0
C2428 C 0.16722 0.0879 0.21143 0.0
C2429 C 0.15307 0.08362 0.23764 0.0
C2430 C 0.16453 0.06263 0.25593 0.0
C2431 C 0.18844 0.04623 0.24811 0.0
H2432 H 0.49724 0.93961 0.71169 0.0
H2433 H 0.49216 0.96837 0.79826 0.0
H2434 H 0.44898 0.95575 0.7034 0.0
H2435 H 0.44274 0.98242 0.79115 0.0
H2436 H 0.37523 0.04588 0.76074 0.0
H2437 H 0.41662 1.01805 0.77407 0.0
H2438 H 0.40201 0.96181 0.7027 0.0
H2439 H 0.36186 0.99138 0.68842 0.0
C2440 C 0.48512 0.9477 0.72958 0.0
C2441 C 0.49872 0.95237 0.75575 0.0
C2442 C 0.45713 0.95746 0.72477 0.0
C2443 C 0.44139 0.97165 0.74622 0.0
C2444 C 0.45401 0.97298 0.77344 0.0
C2445 C 0.4823 0.96397 0.77796 0.0
C2446 C 0.3806 1.0273 0.74813 0.0
C2447 C 0.36509 1.02108 0.7234 0.0
C2448 C 0.40457 1.01096 0.75588 0.0
C2449 C 0.41362 0.98723 0.73958 0.0
C2450 C 0.39687 0.98015 0.71566 0.0
C2451 C 0.37336 0.99701 0.70751 0.0
H2452 H 0.99819 0.6166 0.36124 0.0
H2453 H 0.99806 0.5911 0.27353 0.0
H2454 H 0.94876 0.6023 0.36598 0.0
H2455 H 0.94763 0.57844 0.27721 0.0
H2456 H 0.87451 0.51856 0.30491 0.0
H2457 H 0.9184 0.54352 0.29338 0.0
H2458 H 0.90118 0.60416 0.36056 0.0
H2459 H 0.85848 0.57759 0.37324 0.0
C2460 C 0.98701 0.60918 0.34254 0.0
C2461 C 1.00182 0.60551 0.3169 0.0
C2462 C 0.95842 0.60084 0.34517 0.0
C2463 C 0.94354 0.58875 0.32207 0.0
C2464 C 0.95811 0.58691 0.29581 0.0
C2465 C 0.98697 0.59475 0.2934 0.0
C2466 C 0.87978 0.53764 0.31674 0.0
C2467 C 0.86294 0.546 0.34003 0.0
C2468 C 0.90516 0.55216 0.31013 0.0
C2469 C 0.91422 0.5759 0.32625 0.0
C2470 C 0.89591 0.58552 0.34811 0.0
C2471 C 0.87098 0.57053 0.35518 0.0
H2472 H 0.28313 0.15996 0.62637 0.0
H2473 H 0.25439 0.09562 0.56788 0.0
H2474 H 0.25552 0.19603 0.6006 0.0
H2475 H 0.22525 0.13061 0.54343 0.0
H2476 H 0.21144 0.20376 0.4809 0.0
H2477 H 0.22804 0.1658 0.51133 0.0
H2478 H 0.21514 0.21963 0.5848 0.0
H2479 H 0.19994 0.2584 0.55364 0.0
C2480 C 0.27025 0.15338 0.60849 0.0
C2481 C 0.27114 0.12492 0.5991 0.0
C2482 C 0.25421 0.17409 0.59361 0.0
C2483 C 0.23814 0.16679 0.56924 0.0
C2484 C 0.23786 0.13778 0.56123 0.0
C2485 C 0.25439 0.11741 0.57556 0.0
C2486 C 0.21114 0.20725 0.50364 0.0
C2487 C 0.20427 0.23438 0.51453 0.0
C2488 C 0.22088 0.18527 0.5214 0.0
C2489 C 0.22367 0.18927 0.55098 0.0
C2490 C 0.21422 0.21562 0.5622 0.0
C2491 C 0.20472 0.23783 0.54428 0.0
H2492 H 0.32192 0.97106 0.07152 0.0
H2493 H 0.30035 0.9139 0.13972 0.0
H2494 H 0.34762 0.93388 0.04766 0.0
H2495 H 0.32935 0.87665 0.1176 0.0
H2496 H 0.34686 0.805 0.05339 0.0
H2497 H 0.33273 0.84252 0.08556 0.0
H2498 H 0.37992 0.90335 0.03465 0.0
H2499 H 0.39114 0.86567 1.00091 0.0
C2500 C 0.32298 0.95039 0.08164 0.0
C2501 C 0.30795 0.94531 0.10698 0.0
C2502 C 0.33854 0.9288 0.06812 0.0
C2503 C 0.34069 0.9012 0.07988 0.0
C2504 C 0.3277 0.89692 0.10682 0.0
C2505 C 0.31136 0.91857 0.12003 0.0
C2506 C 0.35497 0.8263 0.04959 0.0
C2507 C 0.37041 0.83221 1.02463 0.0
C2508 C 0.34667 0.84822 0.0682 0.0
C2509 C 0.35412 0.87693 0.06293 0.0
C2510 C 0.37222 0.88216 0.03931 0.0
C2511 C 0.37956 0.8603 1.0201 0.0
H2512 H 0.69761 0.31439 0.51269 0.0
H2513 H 0.70976 0.3684 0.58568 0.0
H2514 H 0.71358 0.35299 0.48172 0.0
H2515 H 0.72725 0.4061 0.5555 0.0
H2516 H 0.78298 0.4106 0.44025 0.0
H2517 H 0.75432 0.37538 0.46596 0.0
H2518 H 0.72628 0.44147 0.5238 0.0
H2519 H 0.75659 0.47551 0.49947 0.0
C2520 C 0.7027 0.33481 0.52213 0.0
C2521 C 0.70229 0.33812 0.55188 0.0
C2522 C 0.71265 0.35691 0.50433 0.0
C2523 C 0.72266 0.38294 0.51571 0.0
C2524 C 0.71974 0.38687 0.54531 0.0
C2525 C 0.70948 0.36505 0.56292 0.0
C2526 C 0.77045 0.41748 0.45835 0.0
C2527 C 0.77233 0.44581 0.46797 0.0
C2528 C 0.75376 0.39729 0.47316 0.0
C2529 C 0.73793 0.405 0.49764 0.0
C2530 C 0.73868 0.43394 0.50592 0.0
C2531 C 0.75592 0.45377 0.49169 0.0
H2532 H 0.80886 0.65544 0.92842 0.0
H2533 H 0.8197 0.60265 1.00268 0.0
H2534 H 0.83761 0.69269 0.95095 0.0
H2535 H 0.84554 0.63967 1.0258 0.0
H2536 H 0.89069 0.70598 0.07107 0.0
H2537 H 0.88095 0.66784 0.03737 0.0
H2538 H 0.83786 0.72836 0.9828 0.0
H2539 H 0.85056 0.76639 1.01507 0.0
C2540 C 0.81755 0.65162 0.94936 0.0
C2541 C 0.81147 0.62604 0.96371 0.0
C2542 C 0.83379 0.67321 0.96264 0.0
C2543 C 0.84404 0.66995 0.99079 0.0
C2544 C 0.83897 0.6436 1.00419 0.0
C2545 C 0.82347 0.6221 0.99083 0.0
C2546 C 0.88035 0.71116 0.05119 0.0
C2547 C 0.87175 0.73924 0.04565 0.0
C2548 C 0.87394 0.68913 1.03198 0.0
C2549 C 0.85729 0.69426 1.00741 0.0
C2550 C 0.85065 0.72291 1.00107 0.0
C2551 C 0.85807 0.74502 1.01972 0.0
H2552 H 0.55603 0.20797 0.2564 0.0
H2553 H 0.48461 0.19184 0.20143 0.0
H2554 H 0.58496 0.22125 0.2158 0.0
H2555 H 0.51415 0.20265 0.16021 0.0
H2556 H 0.55077 0.27228 0.10435 0.0
H2557 H 0.52796 0.24414 0.14029 0.0
H2558 H 0.61034 0.22032 0.17395 0.0
H2559 H 0.63343 0.25053 0.13818 0.0
C2560 C 0.54696 0.20559 0.2354 0.0
C2561 C 0.51789 0.19891 0.23221 0.0
C2562 C 0.56364 0.21346 0.21188 0.0
C2563 C 0.55186 0.21425 0.18439 0.0
C2564 C 0.52384 0.20375 0.181 0.0
C2565 C 0.50694 0.19674 0.20461 0.0
C2566 C 0.56428 0.26086 0.11911 0.0
C2567 C 0.59412 0.26394 0.11821 0.0
C2568 C 0.55101 0.24419 0.13983 0.0
C2569 C 0.56699 0.22938 0.16038 0.0
C2570 C 0.59704 0.23155 0.15889 0.0
C2571 C 0.61042 0.24875 0.1382 0.0
H2572 H 0.98899 0.83482 0.5951 0.0
H2573 H 0.94249 0.78845 0.65916 0.0
H2574 H 1.01274 0.86261 0.63161 0.0
H2575 H 0.96716 0.81568 0.69623 0.0
H2576 H 1.01169 0.87203 0.75982 0.0
H2577 H 0.97886 0.85887 0.7218 0.0
H2578 H 0.04982 0.85321 0.66347 0.0
H2579 H 0.08225 0.86675 0.70122 0.0
C2580 C 0.98341 0.83096 0.6171 0.0
C2581 C 0.96378 0.80939 0.62415 0.0
C2582 C 0.99734 0.84672 0.63816 0.0
C2583 C 0.99254 0.84119 0.66714 0.0
C2584 C 0.97144 0.82083 0.67423 0.0
C2585 C 0.95716 0.80518 0.65297 0.0
C2586 C 1.02014 0.86928 0.73858 0.0
C2587 C 0.04978 0.87069 0.73365 0.0
C2588 C 1.00129 0.86109 0.71681 0.0
C2589 C 1.01148 0.85438 0.68942 0.0
C2590 C 0.04082 0.85832 0.68404 0.0
C2591 C 0.0596 0.86634 0.70575 0.0
H2592 H 0.06113 0.37016 0.80576 0.0
H2593 H 0.99202 0.36702 0.86616 0.0
H2594 H 0.09488 0.35818 0.84339 0.0
H2595 H 1.02535 0.35469 0.90355 0.0
H2596 H 0.08719 0.33592 0.97063 0.0
H2597 H 0.06347 0.36415 0.9343 0.0
H2598 H 0.10629 0.31509 0.86927 0.0
H2599 H 0.13091 0.28748 0.90606 0.0
C2600 C 0.05323 0.36821 0.82729 0.0
C2601 C 1.02372 0.36973 0.83288 0.0
C2602 C 0.07259 0.36071 0.84885 0.0
C2603 C 0.06302 0.35483 0.87663 0.0
C2604 C 1.03385 0.35914 0.88264 0.0
C2605 C 1.01456 0.36647 0.86114 0.0
C2606 C 0.09223 0.33176 0.94855 0.0
C2607 C 0.111 0.30948 0.94127 0.0
C2608 C 0.07832 0.34776 0.92763 0.0
C2609 C 0.08231 0.3417 0.89862 0.0
C2610 C 0.10268 0.32066 0.89129 0.0
C2611 C 0.11694 0.30479 0.91239 0.0
H2612 H 0.58536 0.70826 0.36766 0.0
H2613 H 0.51252 0.69575 0.31355 0.0
H2614 H 0.55427 0.72179 0.40645 0.0
H2615 H 0.48084 0.70813 0.35294 0.0
H2616 H 0.43957 0.77654 0.41262 0.0
H2617 H 0.46532 0.74913 0.3766 0.0
H2618 H 0.5213 0.71603 0.44153 0.0
H2619 H 0.49657 0.74473 0.47687 0.0
C2620 C 0.56254 0.707 0.36444 0.0
C2621 C 0.55166 0.70089 0.3373 0.0
C2622 C 0.54445 0.71498 0.38684 0.0
C2623 C 0.51466 0.71682 0.3831 0.0
C2624 C 0.50359 0.70785 0.3567 0.0
C2625 C 0.52181 0.70001 0.33413 0.0
C2626 C 0.45703 0.76294 0.41922 0.0
C2627 C 0.46605 0.76302 0.44767 0.0
C2628 C 0.47191 0.74705 0.39849 0.0
C2629 C 0.49601 0.7304 0.40569 0.0
C2630 C 0.50359 0.72909 0.43463 0.0
C2631 C 0.48913 0.74537 0.45513 0.0
H2632 H 0.15764 0.62946 0.26822 0.0
H2633 H 0.0919 0.57321 0.23773 0.0
H2634 H 0.19287 0.60389 0.23969 0.0
H2635 H 0.12652 0.54861 0.2079 0.0
H2636 H 0.20084 0.48366 0.20326 0.0
H2637 H 0.16158 0.51523 0.21457 0.0
H2638 H 0.21534 0.58821 0.19806 0.0
H2639 H 0.25513 0.5562 0.18789 0.0
C2640 C 0.15053 0.61227 0.2546 0.0
C2641 C 0.12199 0.60326 0.25544 0.0
C2642 C 0.17077 0.59752 0.23807 0.0
C2643 C 0.16292 0.57361 0.22158 0.0
C2644 C 0.13382 0.56623 0.22082 0.0
C2645 C 0.11378 0.58057 0.23774 0.0
C2646 C 0.20399 0.50643 0.20081 0.0
C2647 C 0.23133 0.51722 0.19494 0.0
C2648 C 0.18134 0.52478 0.20751 0.0
C2649 C 0.18517 0.55462 0.20814 0.0
C2650 C 0.21163 0.56544 0.19877 0.0
C2651 C 0.23441 0.54698 0.19223 0.0
H2652 H 0.63688 1.00298 0.76108 0.0
H2653 H 0.62614 0.93791 0.82479 0.0
H2654 H 0.66929 1.02877 0.79206 0.0
H2655 H 0.66044 0.96317 0.8556 0.0
H2656 H 0.7552 1.01312 0.86871 0.0
H2657 H 0.71749 0.98161 0.8512 0.0
H2658 H 0.66124 0.05388 0.84299 0.0
H2659 H 0.69858 0.08528 0.86075 0.0
C2660 C 0.64113 0.99439 0.78194 0.0
C2661 C 0.6279 0.96903 0.79082 0.0
C2662 C 0.65996 1.00904 0.79963 0.0
C2663 C 0.66691 0.99844 0.82663 0.0
C2664 C 0.65518 0.97208 0.83507 0.0
C2665 C 0.63569 0.95757 0.81737 0.0
C2666 C 0.73431 1.02212 0.86475 0.0
C2667 C 0.73009 0.05192 0.866 0.0
C2668 C 0.71275 1.00401 0.85438 0.0
C2669 C 0.68661 1.01535 0.84507 0.0
C2670 C 0.68129 0.04454 0.84961 0.0
C2671 C 0.70262 0.06251 0.86018 0.0
H2672 H 0.80343 0.05641 0.34449 0.0
H2673 H 0.86436 1.00527 0.38993 0.0
H2674 H 0.84018 0.0898 0.33159 0.0
H2675 H 0.9012 0.04035 0.38009 0.0
H2676 H 0.96907 0.0788 0.32363 0.0
H2677 H 0.93233 0.05458 0.34942 0.0
H2678 H 0.87323 0.12248 0.32815 0.0
H2679 H 0.91012 0.14468 0.299 0.0
C2680 C 0.8246 0.05318 0.35309 0.0
C2681 C 0.8309 1.02822 0.36842 0.0
C2682 C 0.84609 0.07252 0.34555 0.0
C2683 C 0.87468 0.06803 0.35372 0.0
C2684 C 0.88015 0.04443 0.37181 0.0
C2685 C 0.85877 1.02442 0.37833 0.0
C2686 C 0.94806 0.08834 0.3241 0.0
C2687 C 0.9423 0.11295 0.30809 0.0
C2688 C 0.9267 0.07464 0.33967 0.0
C2689 C 0.8987 0.0856 0.34084 0.0
C2690 C 0.89381 0.11216 0.32714 0.0
C2691 C 0.91523 0.12547 0.31073 0.0
H2692 H 0.36631 0.58737 0.68735 0.0
H2693 H 0.30922 0.51752 0.70434 0.0
H2694 H 0.40684 0.55716 0.69927 0.0
H2695 H 0.34918 0.48789 0.71858 0.0
H2696 H 0.42648 0.43685 0.74629 0.0
H2697 H 0.39021 0.46115 0.7177 0.0
H2698 H 0.42789 0.54238 0.73947 0.0
H2699 H 0.46432 0.51831 0.76599 0.0
C2700 C 0.36249 0.56524 0.69279 0.0
C2701 C 0.33446 0.55495 0.6946 0.0
C2702 C 0.38575 0.54794 0.70044 0.0
C2703 C 0.38167 0.52006 0.71122 0.0
C2704 C 0.35371 0.50903 0.71055 0.0
C2705 C 0.33054 0.52611 0.70211 0.0
C2706 C 0.42726 0.45986 0.7444 0.0
C2707 C 0.44861 0.47541 0.7585 0.0
C2708 C 0.40621 0.47397 0.72815 0.0
C2709 C 0.40567 0.5041 0.72583 0.0
C2710 C 0.42749 0.51932 0.73964 0.0
C2711 C 0.44856 0.50531 0.75535 0.0
H2712 H 0.83505 0.84789 0.56948 0.0
H2713 H 0.89745 0.82438 0.50619 0.0
H2714 H 0.82181 0.88931 0.54171 0.0
H2715 H 0.8839 0.86643 0.47791 0.0
H2716 H 0.81437 0.97321 0.50122 0.0
H2717 H 0.83975 0.93552 0.52617 0.0
H2718 H 0.84119 0.88499 0.44963 0.0
H2719 H 0.81584 0.92331 0.42438 0.0
C2720 C 0.84632 0.85171 0.54979 0.0
C2721 C 0.86754 0.83264 0.54038 0.0
C2722 C 0.83874 0.87572 0.53378 0.0
C2723 C 0.85183 0.88155 0.50749 0.0
C2724 C 0.87329 0.86268 0.498 0.0
C2725 C 0.88124 0.83868 0.51436 0.0
C2726 C 0.821 0.95452 0.48935 0.0
C2727 C 0.81311 0.95145 0.4607 0.0
C2728 C 0.83526 0.93266 0.50381 0.0
C2729 C 0.84202 0.90678 0.49021 0.0
C2730 C 0.83638 0.90458 0.46086 0.0
C2731 C 0.82204 0.92667 0.44625 0.0
H2732 H 0.66843 0.24659 1.00678 0.0
H2733 H 0.73267 0.22424 0.06834 0.0
H2734 H 0.68136 0.20422 0.97864 0.0
H2735 H 0.74517 0.18232 0.04074 0.0
H2736 H 0.74879 0.09681 1.00193 0.0
H2737 H 0.72492 0.13566 1.02669 0.0
H2738 H 0.72449 0.18521 0.94955 0.0
H2739 H 0.7486 0.14587 0.9245 0.0
C2740 C 0.68497 0.23251 1.01458 0.0
C2741 C 0.69932 0.23894 0.04008 0.0
C2742 C 0.69254 0.20832 0.99831 0.0
C2743 C 0.71422 0.1896 1.00742 0.0
C2744 C 0.72808 0.19586 1.03315 0.0
C2745 C 0.72092 0.22012 0.04904 0.0
C2746 C 0.74278 0.11557 0.98989 0.0
C2747 C 0.75068 0.11808 0.96113 0.0
C2748 C 0.72935 0.13807 1.00425 0.0
C2749 C 0.72329 0.16395 0.99039 0.0
C2750 C 0.72883 0.16563 0.96096 0.0
C2751 C 0.74244 0.14295 0.94648 0.0
H2752 H 0.31283 0.64374 0.63691 0.0
H2753 H 0.30447 0.6005 0.5565 0.0
H2754 H 0.33743 0.68338 0.6129 0.0
H2755 H 0.32909 0.63938 0.5329 0.0
H2756 H 0.32716 0.72913 0.49619 0.0
H2757 H 0.31274 0.6873 0.52227 0.0
H2758 H 0.3796 0.70195 0.58324 0.0
H2759 H 0.39443 0.74471 0.55655 0.0
C2760 C 0.31695 0.64225 0.61433 0.0
C2761 C 0.30636 0.61895 0.59867 0.0
C2762 C 0.33102 0.66502 0.60052 0.0
C2763 C 0.33481 0.66496 0.57078 0.0
C2764 C 0.32603 0.64063 0.55566 0.0
C2765 C 0.31201 0.61814 0.56931 0.0
C2766 C 0.33929 0.72348 0.51482 0.0
C2767 C 0.36229 0.74047 0.52384 0.0
C2768 C 0.33094 0.6992 0.5299 0.0
C2769 C 0.34506 0.69086 0.55486 0.0
C2770 C 0.36817 0.70769 0.56412 0.0
C2771 C 0.37683 0.73208 0.54867 0.0
H2772 H 0.2541 0.47366 0.06344 0.0
H2773 H 0.25275 0.4249 0.14103 0.0
H2774 H 0.22941 0.43534 0.03892 0.0
H2775 H 0.22816 0.38592 0.11617 0.0
H2776 H 0.23562 0.34753 0.99676 0.0
H2777 H 0.24798 0.3893 1.02411 0.0
H2778 H 0.18598 0.36618 0.08785 0.0
H2779 H 0.17332 0.3236 0.0599 0.0
C2780 C 0.24779 0.45503 0.07553 0.0
C2781 C 0.25553 0.45248 0.10427 0.0
C2782 C 0.23385 0.43282 0.06133 0.0
C2783 C 0.2273 0.40707 0.07526 0.0
C2784 C 0.23282 0.40536 0.10467 0.0
C2785 C 0.24679 0.42783 0.11902 0.0
C2786 C 0.22414 0.35133 1.01631 0.0
C2787 C 0.20323 0.332 1.02578 0.0
C2788 C 0.23123 0.37557 1.03211 0.0
C2789 C 0.21793 0.38149 0.05827 0.0
C2790 C 0.19675 0.36238 0.06785 0.0
C2791 C 0.1893 0.33808 0.05167 0.0
H2792 H 0.49873 0.86308 0.80784 0.0
H2793 H 0.57237 0.87905 0.85967 0.0
H2794 H 0.47214 0.84732 0.84962 0.0
H2795 H 0.54553 0.86564 0.90195 0.0
H2796 H 0.50842 0.80051 0.96286 0.0
H2797 H 0.53096 0.82651 0.92501 0.0
H2798 H 0.44819 0.85038 0.89235 0.0
H2799 H 0.42547 0.82204 0.92987 0.0
C2800 C 0.50885 0.86428 0.82845 0.0
C2801 C 0.53755 0.87255 0.83053 0.0
C2802 C 0.49357 0.85523 0.85261 0.0
C2803 C 0.50648 0.85452 0.87967 0.0
C2804 C 0.53477 0.86475 0.8817 0.0
C2805 C 0.55019 0.87304 0.85746 0.0
C2806 C 0.49484 0.81154 0.94785 0.0
C2807 C 0.46499 0.80873 0.94943 0.0
C2808 C 0.50793 0.82693 0.92598 0.0
C2809 C 0.49175 0.84083 0.90493 0.0
C2810 C 0.46168 0.83962 0.90757 0.0
C2811 C 0.44849 0.82373 0.92946 0.0
H2812 H 1.02856 0.16977 0.34687 0.0
H2813 H 0.0459 0.25155 0.30868 0.0
H2814 H 0.0566 0.184 0.38892 0.0
H2815 H 0.07462 0.26507 0.34969 0.0
H2816 H 0.14607 0.26763 0.41794 0.0
H2817 H 0.12357 0.24377 0.37725 0.0
H2818 H 0.04687 0.23178 0.42629 0.0
H2819 H 0.06884 0.25658 0.46647 0.0
C2820 C 0.03876 0.19048 0.34719 0.0
C2821 C 1.0349 0.20953 0.32441 0.0
C2822 C 0.05475 0.19866 0.37125 0.0
C2823 C 0.06804 0.22562 0.37255 0.0
C2824 C 0.06496 0.2441 0.3493 0.0
C2825 C 0.04836 0.23634 0.32582 0.0
C2826 C 0.12476 0.25908 0.42035 0.0
C2827 C 0.10942 0.26374 0.44564 0.0
C2828 C 0.11178 0.24561 0.39696 0.0
C2829 C 0.08344 0.23573 0.39856 0.0
C2830 C 0.06879 0.23879 0.42444 0.0
C2831 C 0.08143 0.25297 0.44749 0.0
H2832 H 0.03731 0.66443 0.22377 0.0
H2833 H 0.03772 0.7525 0.25054 0.0
H2834 H 1.00874 0.6779 0.18184 0.0
H2835 H 1.00858 0.76544 0.20968 0.0
H2836 H 0.92873 0.7677 0.14961 0.0
H2837 H 0.95204 0.74455 0.19022 0.0
H2838 H 1.02395 0.72301 0.13733 0.0
H2839 H 1.00119 0.74705 0.097 0.0
C2840 C 1.03111 0.68651 0.22094 0.0
C2841 C 0.04002 0.70735 0.24055 0.0
C2842 C 1.01478 0.69421 0.19695 0.0
C2843 C 1.00623 0.72272 0.19261 0.0
C2844 C 1.01461 0.74331 0.21253 0.0
C2845 C 1.03149 0.73583 0.2359 0.0
C2846 C 0.94899 0.75705 0.14634 0.0
C2847 C 0.96287 0.75888 0.11989 0.0
C2848 C 0.96246 0.74402 0.16968 0.0
C2849 C 0.98979 0.73182 0.16694 0.0
C2850 C 1.00278 0.73188 0.14003 0.0
C2851 C 0.98966 0.74553 0.1169 0.0
H2852 H 0.56016 0.39838 0.74238 0.0
H2853 H 0.49447 0.33948 0.71668 0.0
H2854 H 0.58867 0.38461 0.70065 0.0
H2855 H 0.52256 0.32596 0.67555 0.0
H2856 H 0.64083 0.31632 0.64328 0.0
H2857 H 0.61554 0.34117 0.68185 0.0
H2858 H 0.53973 0.34454 0.63027 0.0
H2859 H 0.56472 0.31971 0.59227 0.0
C2860 C 0.55156 0.38287 0.72768 0.0
C2861 C 0.52482 0.3702 0.73298 0.0
C2862 C 0.56803 0.3748 0.70387 0.0
C2863 C 0.55795 0.35425 0.68451 0.0
C2864 C 0.53095 0.34217 0.6896 0.0
C2865 C 0.51478 0.3499 0.71341 0.0
C2866 C 0.61911 0.32334 0.63985 0.0
C2867 C 0.60481 0.31593 0.61467 0.0
C2868 C 0.6045 0.33744 0.66204 0.0
C2869 C 0.57532 0.34436 0.65949 0.0
C2870 C 0.56193 0.33901 0.63335 0.0
C2871 C 0.5764 0.32502 0.61136 0.0
H2872 H 0.82609 0.50628 0.89507 0.0
H2873 H 0.85565 0.57316 0.83944 0.0
H2874 H 0.86808 0.47738 0.88227 0.0
H2875 H 0.89685 0.54475 0.82675 0.0
H2876 H 0.97832 0.50078 0.818 0.0
H2877 H 0.94117 0.5258 0.84425 0.0
H2878 H 0.88763 0.45116 0.83968 0.0
H2879 H 0.92548 0.42577 0.81378 0.0
C2880 C 0.84174 0.51509 0.88059 0.0
C2881 C 0.83739 0.54223 0.86841 0.0
C2882 C 0.86568 0.49839 0.87303 0.0
C2883 C 0.88612 0.50865 0.85352 0.0
C2884 C 0.88204 0.53614 0.84219 0.0
C2885 C 0.85814 0.55252 0.8494 0.0
C2886 C 0.95905 0.4893 0.82351 0.0
C2887 C 0.95497 0.46122 0.81381 0.0
C2888 C 0.93751 0.5038 0.83827 0.0
C2889 C 0.91096 0.49086 0.84355 0.0
C2890 C 0.90774 0.46188 0.83607 0.0
C2891 C 0.92954 0.4472 0.82136 0.0
H2892 H 0.34861 1.0286 0.16288 0.0
H2893 H 0.31096 0.0505 0.24358 0.0
H2894 H 0.39172 0.05595 0.1757 0.0
H2895 H 0.35306 0.07856 0.25572 0.0
H2896 H 0.4232 0.14675 0.25766 0.0
H2897 H 0.38203 0.12526 0.23378 0.0
H2898 H 0.42927 0.0472 0.2222 0.0
H2899 H 0.47005 0.06824 0.24698 0.0
C2900 C 0.34928 0.03972 0.18301 0.0
C2901 C 0.32636 0.0374 0.2022 0.0
C2902 C 0.37395 0.05529 0.1904 0.0
C2903 C 0.37572 0.06962 0.21667 0.0
C2904 C 0.3523 0.06808 0.23524 0.0
C2905 C 0.3282 0.05191 0.22829 0.0
C2906 C 0.42521 0.12538 0.24912 0.0
C2907 C 0.4501 0.10934 0.25408 0.0
C2908 C 0.4015 0.11297 0.23565 0.0
C2909 C 0.40235 0.0845 0.22609 0.0
C2910 C 0.42798 0.06923 0.22906 0.0
C2911 C 0.45139 0.08134 0.24321 0.0
H2912 H 0.26124 1.01563 0.73801 0.0
H2913 H 0.21588 0.04872 0.6657 0.0
H2914 H 0.21945 0.98778 0.75186 0.0
H2915 H 0.17329 1.02139 0.68017 0.0
H2916 H 0.10009 1.00434 0.75209 0.0
H2917 H 0.14022 1.02541 0.7263 0.0
H2918 H 0.18651 0.94623 0.73362 0.0
H2919 H 0.14594 0.92483 0.75882 0.0
C2920 C 0.24237 1.01658 0.72482 0.0
C2921 C 0.24193 1.03417 0.70064 0.0
C2922 C 0.21843 1.00056 0.73272 0.0
C2923 C 0.19299 1.0022 0.7171 0.0
C2924 C 0.19258 1.01956 0.69261 0.0
C2925 C 0.21695 1.0351 0.68423 0.0
C2926 C 0.11841 0.99107 0.74729 0.0
C2927 C 0.11962 0.96276 0.75731 0.0
C2928 C 0.14146 1.0032 0.73253 0.0
C2929 C 0.16668 0.98759 0.72796 0.0
C2930 C 0.16741 0.95886 0.7368 0.0
C2931 C 0.14404 0.94649 0.751 0.0
H2932 H 0.59462 0.56548 0.32147 0.0
H2933 H 0.64439 0.64257 0.31692 0.0
H2934 H 0.63328 0.54163 0.34638 0.0
H2935 H 0.68376 0.61836 0.34141 0.0
H2936 H 0.7198 0.49708 0.34021 0.0
H2937 H 0.67773 0.52427 0.32833 0.0
H2938 H 0.70563 0.59268 0.38288 0.0
H2939 H 0.74866 0.56497 0.39483 0.0
C2940 C 0.61357 0.57764 0.32652 0.0
C2941 C 0.61627 0.606 0.31712 0.0
C2942 C 0.63599 0.56381 0.34054 0.0
C2943 C 0.66215 0.5777 0.34537 0.0
C2944 C 0.66404 0.60687 0.33814 0.0
C2945 C 0.64135 0.62087 0.32421 0.0
C2946 C 0.71703 0.51771 0.3501 0.0
C2947 C 0.73787 0.52859 0.3686 0.0
C2948 C 0.69257 0.53339 0.34336 0.0
C2949 C 0.68787 0.56079 0.35469 0.0
C2950 C 0.70844 0.57171 0.37363 0.0
C2951 C 0.73302 0.5557 0.3807 0.0
loop_
_geom_bond_atom_site_label_1
_geom_bond_atom_site_label_2
_geom_bond_distance
_geom_bond_site_symmetry_2
_ccdc_geom_bond_type
Co0 N1 2.034 . S
Co0 O15 2.262 . S
Co0 O19 1.958 . S
Co0 O23 1.950 . S
Co0 O24 2.057 . S
N1 Co0 2.034 . S
N1 C2 1.366 . S
N1 C4 1.332 . S
C2 N1 1.366 . S
C2 C5 1.377 . S
C2 H34 0.931 . S
N3 C4 1.346 . S
N3 C5 1.337 . S
C4 N1 1.332 . S
C4 N3 1.346 . S
C4 C38 1.361 . S
C5 C2 1.377 . S
C5 N3 1.337 . S
C5 H41 0.930 . S
Co6 N7 2.034 . S
Co6 O20 1.950 . S
Co6 O21 2.262 . S
Co6 O22 1.958 . S
Co6 O26 2.057 . S
N7 Co6 2.034 . S
N7 C10 1.366 1_455 S
N7 C11 1.332 1_455 S
N8 C9 1.337 . S
N8 C11 1.346 . S
C9 N8 1.337 . S
C9 C10 1.377 . S
C9 H42 0.930 . S
C10 N7 1.366 1_655 S
C10 C9 1.377 . S
C10 H14 0.931 1_655 S
C11 N7 1.332 1_655 S
C11 N8 1.346 . S
C11 C28 1.361 1_655 S
Co12 O15 2.097 . S
Co12 O16 2.065 . S
Co12 O17 2.065 . S
Co12 O18 2.042 . S
Co12 O21 2.097 . S
Co12 O25 2.042 . S
C13 O21 1.253 . S
C13 O26 1.263 . S
H14 C10 0.931 1_455 S
O15 Co0 2.262 . S
O15 Co12 2.097 . S
O15 C39 1.253 . S
O16 Co12 2.065 . S
O16 C32 1.221 . S
O17 Co12 2.065 . S
O17 C27 1.221 . S
O18 Co12 2.042 . S
O18 C33 1.237 . S
O19 Co0 1.958 . S
O19 C33 1.278 . S
O20 Co6 1.950 . S
O20 C32 1.277 . S
O21 Co6 2.262 . S
O21 Co12 2.097 . S
O21 C13 1.253 . S
O22 Co6 1.958 . S
O22 C40 1.278 . S
O23 Co0 1.950 . S
O23 C27 1.277 . S
O24 Co0 2.057 . S
O24 C39 1.263 . S
O25 Co12 2.042 . S
O25 C40 1.237 . S
O26 Co6 2.057 . S
O26 C13 1.263 . S
C27 O17 1.221 . S
C27 O23 1.277 . S
C28 C11 1.361 1_455 S
C28 H29 0.960 . S
C28 H30 0.961 1_455 S
C28 H31 0.963 . S
H29 C28 0.960 . S
H30 C28 0.961 1_655 S
H31 C28 0.963 . S
C32 O16 1.221 . S
C32 O20 1.277 . S
C33 O18 1.237 . S
C33 O19 1.278 . S
H34 C2 0.931 . S
H35 C38 0.961 . S
H36 C38 0.961 . S
H37 C38 0.960 . S
C38 C4 1.361 . S
C38 H35 0.961 . S
C38 H36 0.961 . S
C38 H37 0.960 . S
C39 O15 1.253 . S
C39 O24 1.263 . S
C40 O22 1.278 . S
C40 O25 1.237 . S
H41 C5 0.930 . S
H42 C9 0.930 . S
Co43 N44 2.034 . S
Co43 O58 2.262 . S
Co43 O62 1.958 . S
Co43 O66 1.950 . S
Co43 O67 2.057 . S
N44 Co43 2.034 . S
N44 C45 1.366 . S
N44 C47 1.332 . S
C45 N44 1.366 . S
C45 C48 1.377 . S
C45 H77 0.931 . S
N46 C47 1.346 . S
N46 C48 1.337 . S
C47 N44 1.332 . S
C47 N46 1.346 . S
C47 C81 1.361 . S
C48 C45 1.377 . S
C48 N46 1.337 . S
C48 H84 0.930 . S
Co49 N50 2.034 . S
Co49 O63 1.950 . S
Co49 O64 2.262 . S
Co49 O65 1.958 . S
Co49 O69 2.057 . S
N50 Co49 2.034 . S
N50 C53 1.366 . S
N50 C54 1.332 . S
N51 C52 1.337 . S
N51 C54 1.346 . S
C52 N51 1.337 . S
C52 C53 1.377 . S
C52 H85 0.930 . S
C53 N50 1.366 . S
C53 C52 1.377 . S
C53 H57 0.931 . S
C54 N50 1.332 . S
C54 N51 1.346 . S
C54 C71 1.361 . S
Co55 O58 2.097 . S
Co55 O59 2.065 . S
Co55 O60 2.065 . S
Co55 O61 2.042 . S
Co55 O64 2.097 . S
Co55 O68 2.042 . S
C56 O64 1.253 . S
C56 O69 1.263 . S
H57 C53 0.931 . S
O58 Co43 2.262 . S
O58 Co55 2.097 . S
O58 C82 1.253 . S
O59 Co55 2.065 . S
O59 C75 1.221 . S
O60 Co55 2.065 . S
O60 C70 1.221 . S
O61 Co55 2.042 . S
O61 C76 1.237 . S
O62 Co43 1.958 . S
O62 C76 1.278 . S
O63 Co49 1.950 . S
O63 C75 1.277 . S
O64 Co49 2.262 . S
O64 Co55 2.097 . S
O64 C56 1.253 . S
O65 Co49 1.958 . S
O65 C83 1.278 . S
O66 Co43 1.950 . S
O66 C70 1.277 . S
O67 Co43 2.057 . S
O67 C82 1.263 . S
O68 Co55 2.042 . S
O68 C83 1.237 . S
O69 Co49 2.057 . S
O69 C56 1.263 . S
C70 O60 1.221 . S
C70 O66 1.277 . S
C71 C54 1.361 . S
C71 H72 0.960 . S
C71 H73 0.961 . S
C71 H74 0.961 . S
H72 C71 0.960 . S
H73 C71 0.961 . S
H74 C71 0.961 . S
C75 O59 1.221 . S
C75 O63 1.277 . S
C76 O61 1.237 . S
C76 O62 1.278 . S
H77 C45 0.931 . S
H78 C81 0.961 . S
H79 C81 0.961 . S
H80 C81 0.960 . S
C81 C47 1.361 . S
C81 H78 0.961 . S
C81 H79 0.961 . S
C81 H80 0.960 . S
C82 O58 1.253 . S
C82 O67 1.263 . S
C83 O65 1.278 . S
C83 O68 1.237 . S
H84 C48 0.930 . S
H85 C52 0.930 . S
Co86 N87 2.034 . S
Co86 O101 2.262 . S
Co86 O105 1.958 . S
Co86 O109 1.950 . S
Co86 O110 2.057 . S
N87 Co86 2.034 . S
N87 C88 1.366 . S
N87 C90 1.332 . S
C88 N87 1.366 . S
C88 C91 1.377 . S
C88 H120 0.931 . S
N89 C90 1.346 . S
N89 C91 1.337 . S
C90 N87 1.332 . S
C90 N89 1.346 . S
C90 C124 1.361 . S
C91 C88 1.377 . S
C91 N89 1.337 . S
C91 H127 0.930 . S
Co92 N93 2.034 . S
Co92 O106 1.950 . S
Co92 O107 2.262 . S
Co92 O108 1.958 . S
Co92 O112 2.057 . S
N93 Co92 2.034 . S
N93 C96 1.366 . S
N93 C97 1.332 . S
N94 C95 1.337 . S
N94 C97 1.346 . S
C95 N94 1.337 . S
C95 C96 1.377 . S
C95 H128 0.930 . S
C96 N93 1.366 . S
C96 C95 1.377 . S
C96 H100 0.931 . S
C97 N93 1.332 . S
C97 N94 1.346 . S
C97 C114 1.361 . S
Co98 O101 2.097 . S
Co98 O102 2.065 . S
Co98 O103 2.065 . S
Co98 O104 2.042 . S
Co98 O107 2.097 . S
Co98 O111 2.042 . S
C99 O107 1.253 . S
C99 O112 1.263 . S
H100 C96 0.931 . S
O101 Co86 2.262 . S
O101 Co98 2.097 . S
O101 C125 1.253 . S
O102 Co98 2.065 . S
O102 C118 1.221 . S
O103 Co98 2.065 . S
O103 C113 1.221 . S
O104 Co98 2.042 . S
O104 C119 1.237 . S
O105 Co86 1.958 . S
O105 C119 1.278 . S
O106 Co92 1.950 . S
O106 C118 1.277 . S
O107 Co92 2.262 . S
O107 Co98 2.097 . S
O107 C99 1.253 . S
O108 Co92 1.958 . S
O108 C126 1.278 . S
O109 Co86 1.950 . S
O109 C113 1.277 . S
O110 Co86 2.057 . S
O110 C125 1.263 . S
O111 Co98 2.042 . S
O111 C126 1.237 . S
O112 Co92 2.057 . S
O112 C99 1.263 . S
C113 O103 1.221 . S
C113 O109 1.277 . S
C114 C97 1.361 . S
C114 H115 0.960 . S
C114 H116 0.961 . S
C114 H117 0.961 . S
H115 C114 0.960 . S
H116 C114 0.961 . S
H117 C114 0.961 . S
C118 O102 1.221 . S
C118 O106 1.277 . S
C119 O104 1.237 . S
C119 O105 1.278 . S
H120 C88 0.931 . S
H121 C124 0.961 . S
H122 C124 0.961 . S
H123 C124 0.960 . S
C124 C90 1.361 . S
C124 H121 0.961 . S
C124 H122 0.961 . S
C124 H123 0.960 . S
C125 O101 1.253 . S
C125 O110 1.263 . S
C126 O108 1.278 . S
C126 O111 1.237 . S
H127 C91 0.930 . S
H128 C95 0.930 . S
Co129 N130 2.034 . S
Co129 O144 2.262 . S
Co129 O148 1.958 . S
Co129 O152 1.950 . S
Co129 O153 2.057 . S
N130 Co129 2.034 . S
N130 C131 1.366 1_655 S
N130 C133 1.332 1_655 S
C131 N130 1.366 1_455 S
C131 C134 1.377 . S
C131 H163 0.931 1_455 S
N132 C133 1.346 . S
N132 C134 1.337 . S
C133 N130 1.332 1_455 S
C133 N132 1.346 . S
C133 C167 1.361 1_455 S
C134 C131 1.377 . S
C134 N132 1.337 . S
C134 H170 0.930 . S
Co135 N136 2.034 . S
Co135 O149 1.950 . S
Co135 O150 2.262 . S
Co135 O151 1.958 . S
Co135 O155 2.057 . S
N136 Co135 2.034 . S
N136 C139 1.366 . S
N136 C140 1.332 . S
N137 C138 1.337 . S
N137 C140 1.346 . S
C138 N137 1.337 . S
C138 C139 1.377 . S
C138 H171 0.930 . S
C139 N136 1.366 . S
C139 C138 1.377 . S
C139 H143 0.931 . S
C140 N136 1.332 . S
C140 N137 1.346 . S
C140 C157 1.361 . S
Co141 O144 2.097 . S
Co141 O145 2.065 . S
Co141 O146 2.065 . S
Co141 O147 2.042 . S
Co141 O150 2.097 . S
Co141 O154 2.042 . S
C142 O150 1.253 . S
C142 O155 1.263 . S
H143 C139 0.931 . S
O144 Co129 2.262 . S
O144 Co141 2.097 . S
O144 C168 1.253 . S
O145 Co141 2.065 . S
O145 C161 1.221 . S
O146 Co141 2.065 . S
O146 C156 1.221 . S
O147 Co141 2.042 . S
O147 C162 1.237 . S
O148 Co129 1.958 . S
O148 C162 1.278 . S
O149 Co135 1.950 . S
O149 C161 1.277 . S
O150 Co135 2.262 . S
O150 Co141 2.097 . S
O150 C142 1.253 . S
O151 Co135 1.958 . S
O151 C169 1.278 . S
O152 Co129 1.950 . S
O152 C156 1.277 . S
O153 Co129 2.057 . S
O153 C168 1.263 . S
O154 Co141 2.042 . S
O154 C169 1.237 . S
O155 Co135 2.057 . S
O155 C142 1.263 . S
C156 O146 1.221 . S
C156 O152 1.277 . S
C157 C140 1.361 . S
C157 H158 0.960 . S
C157 H159 0.961 . S
C157 H160 0.961 . S
H158 C157 0.960 . S
H159 C157 0.961 . S
H160 C157 0.961 . S
C161 O145 1.221 . S
C161 O149 1.277 . S
C162 O147 1.237 . S
C162 O148 1.278 . S
H163 C131 0.931 1_655 S
H164 C167 0.963 . S
H165 C167 0.961 1_455 S
H166 C167 0.960 . S
C167 C133 1.361 1_655 S
C167 H164 0.963 . S
C167 H165 0.961 1_655 S
C167 H166 0.960 . S
C168 O144 1.253 . S
C168 O153 1.263 . S
C169 O151 1.278 . S
C169 O154 1.237 . S
H170 C134 0.930 . S
H171 C138 0.930 . S
Co172 N173 2.034 . S
Co172 O187 2.262 . S
Co172 O191 1.958 . S
Co172 O195 1.950 . S
Co172 O196 2.057 . S
N173 Co172 2.034 . S
N173 C174 1.366 . S
N173 C176 1.332 . S
C174 N173 1.366 . S
C174 C177 1.377 . S
C174 H206 0.931 . S
N175 C176 1.346 . S
N175 C177 1.337 . S
C176 N173 1.332 . S
C176 N175 1.346 . S
C176 C210 1.361 . S
C177 C174 1.377 . S
C177 N175 1.337 . S
C177 H213 0.930 . S
Co178 N179 2.034 . S
Co178 O192 1.950 . S
Co178 O193 2.262 . S
Co178 O194 1.958 . S
Co178 O198 2.057 . S
N179 Co178 2.034 . S
N179 C182 1.366 1_545 S
N179 C183 1.332 1_545 S
N180 C181 1.337 . S
N180 C183 1.346 . S
C181 N180 1.337 . S
C181 C182 1.377 . S
C181 H214 0.930 . S
C182 N179 1.366 1_565 S
C182 C181 1.377 . S
C182 H186 0.931 1_565 S
C183 N179 1.332 1_565 S
C183 N180 1.346 . S
C183 C200 1.361 1_565 S
Co184 O187 2.097 . S
Co184 O188 2.065 . S
Co184 O189 2.065 . S
Co184 O190 2.042 . S
Co184 O193 2.097 . S
Co184 O197 2.042 . S
C185 O193 1.253 . S
C185 O198 1.263 . S
H186 C182 0.931 1_545 S
O187 Co172 2.262 . S
O187 Co184 2.097 . S
O187 C211 1.253 . S
O188 Co184 2.065 . S
O188 C204 1.221 . S
O189 Co184 2.065 . S
O189 C199 1.221 . S
O190 Co184 2.042 . S
O190 C205 1.237 . S
O191 Co172 1.958 . S
O191 C205 1.278 . S
O192 Co178 1.950 . S
O192 C204 1.277 . S
O193 Co178 2.262 . S
O193 Co184 2.097 . S
O193 C185 1.253 . S
O194 Co178 1.958 . S
O194 C212 1.278 . S
O195 Co172 1.950 . S
O195 C199 1.277 . S
O196 Co172 2.057 . S
O196 C211 1.263 . S
O197 Co184 2.042 . S
O197 C212 1.237 . S
O198 Co178 2.057 . S
O198 C185 1.263 . S
C199 O189 1.221 . S
C199 O195 1.277 . S
C200 C183 1.361 1_545 S
C200 H201 0.960 . S
C200 H202 0.961 1_545 S
C200 H203 0.963 . S
H201 C200 0.960 . S
H202 C200 0.961 1_565 S
H203 C200 0.963 . S
C204 O188 1.221 . S
C204 O192 1.277 . S
C205 O190 1.237 . S
C205 O191 1.278 . S
H206 C174 0.931 . S
H207 C210 0.961 . S
H208 C210 0.961 . S
H209 C210 0.960 . S
C210 C176 1.361 . S
C210 H207 0.961 . S
C210 H208 0.961 . S
C210 H209 0.960 . S
C211 O187 1.253 . S
C211 O196 1.263 . S
C212 O194 1.278 . S
C212 O197 1.237 . S
H213 C177 0.930 . S
H214 C181 0.930 . S
Co215 N216 2.034 . S
Co215 O230 2.262 . S
Co215 O234 1.958 . S
Co215 O238 1.950 . S
Co215 O239 2.057 . S
N216 Co215 2.034 . S
N216 C217 1.366 1_565 S
N216 C219 1.332 1_565 S
C217 N216 1.366 1_545 S
C217 C220 1.377 . S
C217 H249 0.931 1_545 S
N218 C219 1.346 . S
N218 C220 1.337 . S
C219 N216 1.332 1_545 S
C219 N218 1.346 . S
C219 C253 1.361 1_545 S
C220 C217 1.377 . S
C220 N218 1.337 . S
C220 H256 0.930 . S
Co221 N222 2.034 . S
Co221 O235 1.950 . S
Co221 O236 2.262 . S
Co221 O237 1.958 . S
Co221 O241 2.057 . S
N222 Co221 2.034 . S
N222 C225 1.366 . S
N222 C226 1.332 . S
N223 C224 1.337 . S
N223 C226 1.346 . S
C224 N223 1.337 . S
C224 C225 1.377 . S
C224 H257 0.930 . S
C225 N222 1.366 . S
C225 C224 1.377 . S
C225 H229 0.931 . S
C226 N222 1.332 . S
C226 N223 1.346 . S
C226 C243 1.361 . S
Co227 O230 2.097 . S
Co227 O231 2.065 . S
Co227 O232 2.065 . S
Co227 O233 2.042 . S
Co227 O236 2.097 . S
Co227 O240 2.042 . S
C228 O236 1.253 . S
C228 O241 1.263 . S
H229 C225 0.931 . S
O230 Co215 2.262 . S
O230 Co227 2.097 . S
O230 C254 1.253 . S
O231 Co227 2.065 . S
O231 C247 1.221 . S
O232 Co227 2.065 . S
O232 C242 1.221 . S
O233 Co227 2.042 . S
O233 C248 1.237 . S
O234 Co215 1.958 . S
O234 C248 1.278 . S
O235 Co221 1.950 . S
O235 C247 1.277 . S
O236 Co221 2.262 . S
O236 Co227 2.097 . S
O236 C228 1.253 . S
O237 Co221 1.958 . S
O237 C255 1.278 . S
O238 Co215 1.950 . S
O238 C242 1.277 . S
O239 Co215 2.057 . S
O239 C254 1.263 . S
O240 Co227 2.042 . S
O240 C255 1.237 . S
O241 Co221 2.057 . S
O241 C228 1.263 . S
C242 O232 1.221 . S
C242 O238 1.277 . S
C243 C226 1.361 . S
C243 H244 0.960 . S
C243 H245 0.961 . S
C243 H246 0.961 . S
H244 C243 0.960 . S
H245 C243 0.961 . S
H246 C243 0.961 . S
C247 O231 1.221 . S
C247 O235 1.277 . S
C248 O233 1.237 . S
C248 O234 1.278 . S
H249 C217 0.931 1_565 S
H250 C253 0.963 . S
H251 C253 0.961 1_545 S
H252 C253 0.960 . S
C253 C219 1.361 1_565 S
C253 H250 0.963 . S
C253 H251 0.961 1_565 S
C253 H252 0.960 . S
C254 O230 1.253 . S
C254 O239 1.263 . S
C255 O237 1.278 . S
C255 O240 1.237 . S
H256 C220 0.930 . S
H257 C224 0.930 . S
Co258 N259 2.034 . S
Co258 O273 2.262 . S
Co258 O277 1.958 . S
Co258 O281 1.950 . S
Co258 O282 2.057 . S
N259 Co258 2.034 . S
N259 C260 1.366 . S
N259 C262 1.332 . S
C260 N259 1.366 . S
C260 C263 1.377 . S
C260 H292 0.931 . S
N261 C262 1.346 . S
N261 C263 1.337 . S
C262 N259 1.332 . S
C262 N261 1.346 . S
C262 C296 1.361 . S
C263 C260 1.377 . S
C263 N261 1.337 . S
C263 H299 0.930 . S
Co264 N265 2.034 . S
Co264 O278 1.950 . S
Co264 O279 2.262 . S
Co264 O280 1.958 . S
Co264 O284 2.057 . S
N265 Co264 2.034 . S
N265 C268 1.366 . S
N265 C269 1.332 . S
N266 C267 1.337 . S
N266 C269 1.346 . S
C267 N266 1.337 . S
C267 C268 1.377 . S
C267 H300 0.930 . S
C268 N265 1.366 . S
C268 C267 1.377 . S
C268 H272 0.931 . S
C269 N265 1.332 . S
C269 N266 1.346 . S
C269 C286 1.361 . S
Co270 O273 2.097 . S
Co270 O274 2.065 . S
Co270 O275 2.065 . S
Co270 O276 2.042 . S
Co270 O279 2.097 . S
Co270 O283 2.042 . S
C271 O279 1.253 . S
C271 O284 1.263 . S
H272 C268 0.931 . S
O273 Co258 2.262 . S
O273 Co270 2.097 . S
O273 C297 1.253 . S
O274 Co270 2.065 . S
O274 C290 1.221 . S
O275 Co270 2.065 . S
O275 C285 1.221 . S
O276 Co270 2.042 . S
O276 C291 1.237 . S
O277 Co258 1.958 . S
O277 C291 1.278 . S
O278 Co264 1.950 . S
O278 C290 1.277 . S
O279 Co264 2.262 . S
O279 Co270 2.097 . S
O279 C271 1.253 . S
O280 Co264 1.958 . S
O280 C298 1.278 . S
O281 Co258 1.950 . S
O281 C285 1.277 . S
O282 Co258 2.057 . S
O282 C297 1.263 . S
O283 Co270 2.042 . S
O283 C298 1.237 . S
O284 Co264 2.057 . S
O284 C271 1.263 . S
C285 O275 1.221 . S
C285 O281 1.277 . S
C286 C269 1.361 . S
C286 H287 0.960 . S
C286 H288 0.961 . S
C286 H289 0.961 . S
H287 C286 0.960 . S
H288 C286 0.961 . S
H289 C286 0.961 . S
C290 O274 1.221 . S
C290 O278 1.277 . S
C291 O276 1.237 . S
C291 O277 1.278 . S
H292 C260 0.931 . S
H293 C296 0.961 . S
H294 C296 0.961 . S
H295 C296 0.960 . S
C296 C262 1.361 . S
C296 H293 0.961 . S
C296 H294 0.961 . S
C296 H295 0.960 . S
C297 O273 1.253 . S
C297 O282 1.263 . S
C298 O280 1.278 . S
C298 O283 1.237 . S
H299 C263 0.930 . S
H300 C267 0.930 . S
Co301 N302 2.034 . S
Co301 O316 2.262 . S
Co301 O320 1.958 . S
Co301 O324 1.950 . S
Co301 O325 2.057 . S
N302 Co301 2.034 . S
N302 C303 1.366 . S
N302 C305 1.332 . S
C303 N302 1.366 . S
C303 C306 1.377 . S
C303 H335 0.931 . S
N304 C305 1.346 . S
N304 C306 1.337 . S
C305 N302 1.332 . S
C305 N304 1.346 . S
C305 C339 1.361 . S
C306 C303 1.377 . S
C306 N304 1.337 . S
C306 H342 0.930 . S
Co307 N308 2.034 . S
Co307 O321 1.950 . S
Co307 O322 2.262 . S
Co307 O323 1.958 . S
Co307 O327 2.057 . S
N308 Co307 2.034 . S
N308 C311 1.366 . S
N308 C312 1.332 . S
N309 C310 1.337 . S
N309 C312 1.346 . S
C310 N309 1.337 . S
C310 C311 1.377 . S
C310 H343 0.930 . S
C311 N308 1.366 . S
C311 C310 1.377 . S
C311 H315 0.931 . S
C312 N308 1.332 . S
C312 N309 1.346 . S
C312 C329 1.361 . S
Co313 O316 2.097 . S
Co313 O317 2.065 . S
Co313 O318 2.065 . S
Co313 O319 2.042 . S
Co313 O322 2.097 . S
Co313 O326 2.042 . S
C314 O322 1.253 . S
C314 O327 1.263 . S
H315 C311 0.931 . S
O316 Co301 2.262 . S
O316 Co313 2.097 . S
O316 C340 1.253 . S
O317 Co313 2.065 . S
O317 C333 1.221 . S
O318 Co313 2.065 . S
O318 C328 1.221 . S
O319 Co313 2.042 . S
O319 C334 1.237 . S
O320 Co301 1.958 . S
O320 C334 1.278 . S
O321 Co307 1.950 . S
O321 C333 1.277 . S
O322 Co307 2.262 . S
O322 Co313 2.097 . S
O322 C314 1.253 . S
O323 Co307 1.958 . S
O323 C341 1.278 . S
O324 Co301 1.950 . S
O324 C328 1.277 . S
O325 Co301 2.057 . S
O325 C340 1.263 . S
O326 Co313 2.042 . S
O326 C341 1.237 . S
O327 Co307 2.057 . S
O327 C314 1.263 . S
C328 O318 1.221 . S
C328 O324 1.277 . S
C329 C312 1.361 . S
C329 H330 0.960 . S
C329 H331 0.961 . S
C329 H332 0.961 . S
H330 C329 0.960 . S
H331 C329 0.961 . S
H332 C329 0.961 . S
C333 O317 1.221 . S
C333 O321 1.277 . S
C334 O319 1.237 . S
C334 O320 1.278 . S
H335 C303 0.931 . S
H336 C339 0.961 . S
H337 C339 0.961 . S
H338 C339 0.960 . S
C339 C305 1.361 . S
C339 H336 0.961 . S
C339 H337 0.961 . S
C339 H338 0.960 . S
C340 O316 1.253 . S
C340 O325 1.263 . S
C341 O323 1.278 . S
C341 O326 1.237 . S
H342 C306 0.930 . S
H343 C310 0.930 . S
Co344 N345 2.034 . S
Co344 O359 2.262 . S
Co344 O363 1.958 . S
Co344 O367 1.950 . S
Co344 O368 2.057 . S
N345 Co344 2.034 . S
N345 C346 1.366 1_554 S
N345 C348 1.332 1_554 S
C346 N345 1.366 1_556 S
C346 C349 1.377 . S
C346 H378 0.931 1_556 S
N347 C348 1.346 . S
N347 C349 1.337 . S
C348 N345 1.332 1_556 S
C348 N347 1.346 . S
C348 C382 1.361 1_556 S
C349 C346 1.377 . S
C349 N347 1.337 . S
C349 H385 0.930 . S
Co350 N351 2.034 . S
Co350 O364 1.950 . S
Co350 O365 2.262 . S
Co350 O366 1.958 . S
Co350 O370 2.057 . S
N351 Co350 2.034 . S
N351 C354 1.366 . S
N351 C355 1.332 . S
N352 C353 1.337 . S
N352 C355 1.346 . S
C353 N352 1.337 . S
C353 C354 1.377 . S
C353 H386 0.930 . S
C354 N351 1.366 . S
C354 C353 1.377 . S
C354 H358 0.931 . S
C355 N351 1.332 . S
C355 N352 1.346 . S
C355 C372 1.361 . S
Co356 O359 2.097 . S
Co356 O360 2.065 . S
Co356 O361 2.065 . S
Co356 O362 2.042 . S
Co356 O365 2.097 . S
Co356 O369 2.042 . S
C357 O365 1.253 . S
C357 O370 1.263 . S
H358 C354 0.931 . S
O359 Co344 2.262 . S
O359 Co356 2.097 . S
O359 C383 1.253 . S
O360 Co356 2.065 . S
O360 C376 1.221 . S
O361 Co356 2.065 . S
O361 C371 1.221 . S
O362 Co356 2.042 . S
O362 C377 1.237 . S
O363 Co344 1.958 . S
O363 C377 1.278 . S
O364 Co350 1.950 . S
O364 C376 1.277 . S
O365 Co350 2.262 . S
O365 Co356 2.097 . S
O365 C357 1.253 . S
O366 Co350 1.958 . S
O366 C384 1.278 . S
O367 Co344 1.950 . S
O367 C371 1.277 . S
O368 Co344 2.057 . S
O368 C383 1.263 . S
O369 Co356 2.042 . S
O369 C384 1.237 . S
O370 Co350 2.057 . S
O370 C357 1.263 . S
C371 O361 1.221 . S
C371 O367 1.277 . S
C372 C355 1.361 . S
C372 H373 0.960 . S
C372 H374 0.961 . S
C372 H375 0.961 . S
H373 C372 0.960 . S
H374 C372 0.961 . S
H375 C372 0.961 . S
C376 O360 1.221 . S
C376 O364 1.277 . S
C377 O362 1.237 . S
C377 O363 1.278 . S
H378 C346 0.931 1_554 S
H379 C382 0.963 . S
H380 C382 0.961 1_556 S
H381 C382 0.960 . S
C382 C348 1.361 1_554 S
C382 H379 0.963 . S
C382 H380 0.961 1_554 S
C382 H381 0.960 . S
C383 O359 1.253 . S
C383 O368 1.263 . S
C384 O366 1.278 . S
C384 O369 1.237 . S
H385 C349 0.930 . S
H386 C353 0.930 . S
Co387 N388 2.034 . S
Co387 O402 2.262 . S
Co387 O406 1.958 . S
Co387 O410 1.950 . S
Co387 O411 2.057 . S
N388 Co387 2.034 . S
N388 C389 1.366 . S
N388 C391 1.332 . S
C389 N388 1.366 . S
C389 C392 1.377 . S
C389 H421 0.931 . S
N390 C391 1.346 . S
N390 C392 1.337 . S
C391 N388 1.332 . S
C391 N390 1.346 . S
C391 C425 1.361 . S
C392 C389 1.377 . S
C392 N390 1.337 . S
C392 H428 0.930 . S
Co393 N394 2.034 . S
Co393 O407 1.950 . S
Co393 O408 2.262 . S
Co393 O409 1.958 . S
Co393 O413 2.057 . S
N394 Co393 2.034 . S
N394 C397 1.366 1_556 S
N394 C398 1.332 1_556 S
N395 C396 1.337 . S
N395 C398 1.346 . S
C396 N395 1.337 . S
C396 C397 1.377 . S
C396 H429 0.930 . S
C397 N394 1.366 1_554 S
C397 C396 1.377 . S
C397 H401 0.931 1_554 S
C398 N394 1.332 1_554 S
C398 N395 1.346 . S
C398 C415 1.361 1_554 S
Co399 O402 2.097 . S
Co399 O403 2.065 . S
Co399 O404 2.065 . S
Co399 O405 2.042 . S
Co399 O408 2.097 . S
Co399 O412 2.042 . S
C400 O408 1.253 . S
C400 O413 1.263 . S
H401 C397 0.931 1_556 S
O402 Co387 2.262 . S
O402 Co399 2.097 . S
O402 C426 1.253 . S
O403 Co399 2.065 . S
O403 C419 1.221 . S
O404 Co399 2.065 . S
O404 C414 1.221 . S
O405 Co399 2.042 . S
O405 C420 1.237 . S
O406 Co387 1.958 . S
O406 C420 1.278 . S
O407 Co393 1.950 . S
O407 C419 1.277 . S
O408 Co393 2.262 . S
O408 Co399 2.097 . S
O408 C400 1.253 . S
O409 Co393 1.958 . S
O409 C427 1.278 . S
O410 Co387 1.950 . S
O410 C414 1.277 . S
O411 Co387 2.057 . S
O411 C426 1.263 . S
O412 Co399 2.042 . S
O412 C427 1.237 . S
O413 Co393 2.057 . S
O413 C400 1.263 . S
C414 O404 1.221 . S
C414 O410 1.277 . S
C415 C398 1.361 1_556 S
C415 H416 0.960 . S
C415 H417 0.961 1_556 S
C415 H418 0.963 . S
H416 C415 0.960 . S
H417 C415 0.961 1_554 S
H418 C415 0.963 . S
C419 O403 1.221 . S
C419 O407 1.277 . S
C420 O405 1.237 . S
C420 O406 1.278 . S
H421 C389 0.931 . S
H422 C425 0.961 . S
H423 C425 0.961 . S
H424 C425 0.960 . S
C425 C391 1.361 . S
C425 H422 0.961 . S
C425 H423 0.961 . S
C425 H424 0.960 . S
C426 O402 1.253 . S
C426 O411 1.263 . S
C427 O409 1.278 . S
C427 O412 1.237 . S
H428 C392 0.930 . S
H429 C396 0.930 . S
Co430 N431 2.034 . S
Co430 O445 2.262 . S
Co430 O449 1.958 . S
Co430 O453 1.950 . S
Co430 O454 2.057 . S
N431 Co430 2.034 . S
N431 C432 1.366 . S
N431 C434 1.332 . S
C432 N431 1.366 . S
C432 C435 1.377 . S
C432 H464 0.931 . S
N433 C434 1.346 . S
N433 C435 1.337 . S
C434 N431 1.332 . S
C434 N433 1.346 . S
C434 C468 1.361 . S
C435 C432 1.377 . S
C435 N433 1.337 . S
C435 H471 0.930 . S
Co436 N437 2.034 . S
Co436 O450 1.950 . S
Co436 O451 2.262 . S
Co436 O452 1.958 . S
Co436 O456 2.057 . S
N437 Co436 2.034 . S
N437 C440 1.366 . S
N437 C441 1.332 . S
N438 C439 1.337 . S
N438 C441 1.346 . S
C439 N438 1.337 . S
C439 C440 1.377 . S
C439 H472 0.930 . S
C440 N437 1.366 . S
C440 C439 1.377 . S
C440 H444 0.931 . S
C441 N437 1.332 . S
C441 N438 1.346 . S
C441 C458 1.361 . S
Co442 O445 2.097 . S
Co442 O446 2.065 . S
Co442 O447 2.065 . S
Co442 O448 2.042 . S
Co442 O451 2.097 . S
Co442 O455 2.042 . S
C443 O451 1.253 . S
C443 O456 1.263 . S
H444 C440 0.931 . S
O445 Co430 2.262 . S
O445 Co442 2.097 . S
O445 C469 1.253 . S
O446 Co442 2.065 . S
O446 C462 1.221 . S
O447 Co442 2.065 . S
O447 C457 1.221 . S
O448 Co442 2.042 . S
O448 C463 1.237 . S
O449 Co430 1.958 . S
O449 C463 1.278 . S
O450 Co436 1.950 . S
O450 C462 1.277 . S
O451 Co436 2.262 . S
O451 Co442 2.097 . S
O451 C443 1.253 . S
O452 Co436 1.958 . S
O452 C470 1.278 . S
O453 Co430 1.950 . S
O453 C457 1.277 . S
O454 Co430 2.057 . S
O454 C469 1.263 . S
O455 Co442 2.042 . S
O455 C470 1.237 . S
O456 Co436 2.057 . S
O456 C443 1.263 . S
C457 O447 1.221 . S
C457 O453 1.277 . S
C458 C441 1.361 . S
C458 H459 0.960 . S
C458 H460 0.961 . S
C458 H461 0.961 . S
H459 C458 0.960 . S
H460 C458 0.961 . S
H461 C458 0.961 . S
C462 O446 1.221 . S
C462 O450 1.277 . S
C463 O448 1.237 . S
C463 O449 1.278 . S
H464 C432 0.931 . S
H465 C468 0.961 . S
H466 C468 0.961 . S
H467 C468 0.960 . S
C468 C434 1.361 . S
C468 H465 0.961 . S
C468 H466 0.961 . S
C468 H467 0.960 . S
C469 O445 1.253 . S
C469 O454 1.263 . S
C470 O452 1.278 . S
C470 O455 1.237 . S
H471 C435 0.930 . S
H472 C439 0.930 . S
Co473 N474 2.034 . S
Co473 O488 2.262 . S
Co473 O492 1.958 . S
Co473 O496 1.950 . S
Co473 O497 2.057 . S
N474 Co473 2.034 . S
N474 C475 1.366 . S
N474 C477 1.332 . S
C475 N474 1.366 . S
C475 C478 1.377 . S
C475 H507 0.931 . S
N476 C477 1.346 . S
N476 C478 1.337 . S
C477 N474 1.332 . S
C477 N476 1.346 . S
C477 C511 1.361 . S
C478 C475 1.377 . S
C478 N476 1.337 . S
C478 H514 0.930 . S
Co479 N480 2.034 . S
Co479 O493 1.950 . S
Co479 O494 2.262 . S
Co479 O495 1.958 . S
Co479 O499 2.057 . S
N480 Co479 2.034 . S
N480 C483 1.366 . S
N480 C484 1.332 . S
N481 C482 1.337 . S
N481 C484 1.346 . S
C482 N481 1.337 . S
C482 C483 1.377 . S
C482 H515 0.930 . S
C483 N480 1.366 . S
C483 C482 1.377 . S
C483 H487 0.931 . S
C484 N480 1.332 . S
C484 N481 1.346 . S
C484 C501 1.361 . S
Co485 O488 2.097 . S
Co485 O489 2.065 . S
Co485 O490 2.065 . S
Co485 O491 2.042 . S
Co485 O494 2.097 . S
Co485 O498 2.042 . S
C486 O494 1.253 . S
C486 O499 1.263 . S
H487 C483 0.931 . S
O488 Co473 2.262 . S
O488 Co485 2.097 . S
O488 C512 1.253 . S
O489 Co485 2.065 . S
O489 C505 1.221 . S
O490 Co485 2.065 . S
O490 C500 1.221 . S
O491 Co485 2.042 . S
O491 C506 1.237 . S
O492 Co473 1.958 . S
O492 C506 1.278 . S
O493 Co479 1.950 . S
O493 C505 1.277 . S
O494 Co479 2.262 . S
O494 Co485 2.097 . S
O494 C486 1.253 . S
O495 Co479 1.958 . S
O495 C513 1.278 . S
O496 Co473 1.950 . S
O496 C500 1.277 . S
O497 Co473 2.057 . S
O497 C512 1.263 . S
O498 Co485 2.042 . S
O498 C513 1.237 . S
O499 Co479 2.057 . S
O499 C486 1.263 . S
C500 O490 1.221 . S
C500 O496 1.277 . S
C501 C484 1.361 . S
C501 H502 0.960 . S
C501 H503 0.961 . S
C501 H504 0.961 . S
H502 C501 0.960 . S
H503 C501 0.961 . S
H504 C501 0.961 . S
C505 O489 1.221 . S
C505 O493 1.277 . S
C506 O491 1.237 . S
C506 O492 1.278 . S
H507 C475 0.931 . S
H508 C511 0.961 . S
H509 C511 0.961 . S
H510 C511 0.960 . S
C511 C477 1.361 . S
C511 H508 0.961 . S
C511 H509 0.961 . S
C511 H510 0.960 . S
C512 O488 1.253 . S
C512 O497 1.263 . S
C513 O495 1.278 . S
C513 O498 1.237 . S
H514 C478 0.930 . S
H515 C482 0.930 . S
Co516 N517 2.034 . S
Co516 O531 2.262 . S
Co516 O535 1.958 . S
Co516 O539 1.950 . S
Co516 O540 2.057 . S
N517 Co516 2.034 . S
N517 C518 1.366 . S
N517 C520 1.332 1_655 S
C518 N517 1.366 . S
C518 C521 1.377 1_655 S
C518 H550 0.931 . S
N519 C520 1.346 . S
N519 C521 1.337 . S
C520 N517 1.332 1_455 S
C520 N519 1.346 . S
C520 C554 1.361 . S
C521 C518 1.377 1_455 S
C521 N519 1.337 . S
C521 H557 0.930 . S
Co522 N523 2.034 . S
Co522 O536 1.950 . S
Co522 O537 2.262 . S
Co522 O538 1.958 . S
Co522 O542 2.057 . S
N523 Co522 2.034 . S
N523 C526 1.366 . S
N523 C527 1.332 . S
N524 C525 1.337 . S
N524 C527 1.346 . S
C525 N524 1.337 . S
C525 C526 1.377 . S
C525 H558 0.930 . S
C526 N523 1.366 . S
C526 C525 1.377 . S
C526 H530 0.931 . S
C527 N523 1.332 . S
C527 N524 1.346 . S
C527 C544 1.361 . S
Co528 O531 2.097 . S
Co528 O532 2.065 . S
Co528 O533 2.065 . S
Co528 O534 2.042 . S
Co528 O537 2.097 . S
Co528 O541 2.042 . S
C529 O537 1.253 . S
C529 O542 1.263 . S
H530 C526 0.931 . S
O531 Co516 2.262 . S
O531 Co528 2.097 . S
O531 C555 1.253 . S
O532 Co528 2.065 . S
O532 C548 1.221 . S
O533 Co528 2.065 . S
O533 C543 1.221 . S
O534 Co528 2.042 . S
O534 C549 1.237 . S
O535 Co516 1.958 . S
O535 C549 1.278 . S
O536 Co522 1.950 . S
O536 C548 1.277 . S
O537 Co522 2.262 . S
O537 Co528 2.097 . S
O537 C529 1.253 . S
O538 Co522 1.958 . S
O538 C556 1.278 . S
O539 Co516 1.950 . S
O539 C543 1.277 . S
O540 Co516 2.057 . S
O540 C555 1.263 . S
O541 Co528 2.042 . S
O541 C556 1.237 . S
O542 Co522 2.057 . S
O542 C529 1.263 . S
C543 O533 1.221 . S
C543 O539 1.277 . S
C544 C527 1.361 . S
C544 H545 0.960 . S
C544 H546 0.961 . S
C544 H547 0.961 . S
H545 C544 0.960 . S
H546 C544 0.961 . S
H547 C544 0.961 . S
C548 O532 1.221 . S
C548 O536 1.277 . S
C549 O534 1.237 . S
C549 O535 1.278 . S
H550 C518 0.931 . S
H551 C554 0.961 . S
H552 C554 0.961 . S
H553 C554 0.960 1_655 S
C554 C520 1.361 . S
C554 H551 0.961 . S
C554 H552 0.961 . S
C554 H553 0.960 1_455 S
C555 O531 1.253 . S
C555 O540 1.263 . S
C556 O538 1.278 . S
C556 O541 1.237 . S
H557 C521 0.930 . S
H558 C525 0.930 . S
Co559 N560 2.034 . S
Co559 O574 2.262 . S
Co559 O578 1.958 . S
Co559 O582 1.950 . S
Co559 O583 2.057 . S
N560 Co559 2.034 . S
N560 C561 1.366 . S
N560 C563 1.332 . S
C561 N560 1.366 . S
C561 C564 1.377 . S
C561 H593 0.931 . S
N562 C563 1.346 . S
N562 C564 1.337 . S
C563 N560 1.332 . S
C563 N562 1.346 . S
C563 C597 1.361 . S
C564 C561 1.377 . S
C564 N562 1.337 . S
C564 H600 0.930 . S
Co565 N566 2.034 . S
Co565 O579 1.950 . S
Co565 O580 2.262 . S
Co565 O581 1.958 . S
Co565 O585 2.057 . S
N566 Co565 2.034 . S
N566 C569 1.366 . S
N566 C570 1.332 . S
N567 C568 1.337 . S
N567 C570 1.346 . S
C568 N567 1.337 . S
C568 C569 1.377 . S
C568 H601 0.930 . S
C569 N566 1.366 . S
C569 C568 1.377 . S
C569 H573 0.931 . S
C570 N566 1.332 . S
C570 N567 1.346 . S
C570 C587 1.361 . S
Co571 O574 2.097 . S
Co571 O575 2.065 . S
Co571 O576 2.065 . S
Co571 O577 2.042 . S
Co571 O580 2.097 . S
Co571 O584 2.042 . S
C572 O580 1.253 . S
C572 O585 1.263 . S
H573 C569 0.931 . S
O574 Co559 2.262 . S
O574 Co571 2.097 . S
O574 C598 1.253 . S
O575 Co571 2.065 . S
O575 C591 1.221 . S
O576 Co571 2.065 . S
O576 C586 1.221 . S
O577 Co571 2.042 . S
O577 C592 1.237 . S
O578 Co559 1.958 . S
O578 C592 1.278 . S
O579 Co565 1.950 . S
O579 C591 1.277 . S
O580 Co565 2.262 . S
O580 Co571 2.097 . S
O580 C572 1.253 . S
O581 Co565 1.958 . S
O581 C599 1.278 . S
O582 Co559 1.950 . S
O582 C586 1.277 . S
O583 Co559 2.057 . S
O583 C598 1.263 . S
O584 Co571 2.042 . S
O584 C599 1.237 . S
O585 Co565 2.057 . S
O585 C572 1.263 . S
C586 O576 1.221 . S
C586 O582 1.277 . S
C587 C570 1.361 . S
C587 H588 0.960 . S
C587 H589 0.961 . S
C587 H590 0.961 . S
H588 C587 0.960 . S
H589 C587 0.961 . S
H590 C587 0.961 . S
C591 O575 1.221 . S
C591 O579 1.277 . S
C592 O577 1.237 . S
C592 O578 1.278 . S
H593 C561 0.931 . S
H594 C597 0.961 . S
H595 C597 0.961 . S
H596 C597 0.960 . S
C597 C563 1.361 . S
C597 H594 0.961 . S
C597 H595 0.961 . S
C597 H596 0.960 . S
C598 O574 1.253 . S
C598 O583 1.263 . S
C599 O581 1.278 . S
C599 O584 1.237 . S
H600 C564 0.930 . S
H601 C568 0.930 . S
Co602 N603 2.034 . S
Co602 O617 2.262 . S
Co602 O621 1.958 . S
Co602 O625 1.950 . S
Co602 O626 2.057 . S
N603 Co602 2.034 . S
N603 C604 1.366 . S
N603 C606 1.332 . S
C604 N603 1.366 . S
C604 C607 1.377 . S
C604 H636 0.931 . S
N605 C606 1.346 . S
N605 C607 1.337 . S
C606 N603 1.332 . S
C606 N605 1.346 . S
C606 C640 1.361 . S
C607 C604 1.377 . S
C607 N605 1.337 . S
C607 H643 0.930 . S
Co608 N609 2.034 . S
Co608 O622 1.950 . S
Co608 O623 2.262 . S
Co608 O624 1.958 . S
Co608 O628 2.057 . S
N609 Co608 2.034 . S
N609 C612 1.366 . S
N609 C613 1.332 . S
N610 C611 1.337 . S
N610 C613 1.346 . S
C611 N610 1.337 . S
C611 C612 1.377 . S
C611 H644 0.930 . S
C612 N609 1.366 . S
C612 C611 1.377 . S
C612 H616 0.931 . S
C613 N609 1.332 . S
C613 N610 1.346 . S
C613 C630 1.361 . S
Co614 O617 2.097 . S
Co614 O618 2.065 . S
Co614 O619 2.065 . S
Co614 O620 2.042 . S
Co614 O623 2.097 . S
Co614 O627 2.042 . S
C615 O623 1.253 . S
C615 O628 1.263 . S
H616 C612 0.931 . S
O617 Co602 2.262 . S
O617 Co614 2.097 . S
O617 C641 1.253 . S
O618 Co614 2.065 . S
O618 C634 1.221 . S
O619 Co614 2.065 . S
O619 C629 1.221 . S
O620 Co614 2.042 . S
O620 C635 1.237 . S
O621 Co602 1.958 . S
O621 C635 1.278 . S
O622 Co608 1.950 . S
O622 C634 1.277 . S
O623 Co608 2.262 . S
O623 Co614 2.097 . S
O623 C615 1.253 . S
O624 Co608 1.958 . S
O624 C642 1.278 . S
O625 Co602 1.950 . S
O625 C629 1.277 . S
O626 Co602 2.057 . S
O626 C641 1.263 . S
O627 Co614 2.042 . S
O627 C642 1.237 . S
O628 Co608 2.057 . S
O628 C615 1.263 . S
C629 O619 1.221 . S
C629 O625 1.277 . S
C630 C613 1.361 . S
C630 H631 0.960 . S
C630 H632 0.961 . S
C630 H633 0.961 . S
H631 C630 0.960 . S
H632 C630 0.961 . S
H633 C630 0.961 . S
C634 O618 1.221 . S
C634 O622 1.277 . S
C635 O620 1.237 . S
C635 O621 1.278 . S
H636 C604 0.931 . S
H637 C640 0.961 . S
H638 C640 0.961 . S
H639 C640 0.960 . S
C640 C606 1.361 . S
C640 H637 0.961 . S
C640 H638 0.961 . S
C640 H639 0.960 . S
C641 O617 1.253 . S
C641 O626 1.263 . S
C642 O624 1.278 . S
C642 O627 1.237 . S
H643 C607 0.930 . S
H644 C611 0.930 . S
Co645 N646 2.034 . S
Co645 O660 2.262 . S
Co645 O664 1.958 . S
Co645 O668 1.950 . S
Co645 O669 2.057 . S
N646 Co645 2.034 . S
N646 C647 1.366 . S
N646 C649 1.332 . S
C647 N646 1.366 . S
C647 C650 1.377 . S
C647 H679 0.931 . S
N648 C649 1.346 . S
N648 C650 1.337 . S
C649 N646 1.332 . S
C649 N648 1.346 . S
C649 C683 1.361 . S
C650 C647 1.377 . S
C650 N648 1.337 . S
C650 H686 0.930 . S
Co651 N652 2.034 . S
Co651 O665 1.950 . S
Co651 O666 2.262 . S
Co651 O667 1.958 . S
Co651 O671 2.057 . S
N652 Co651 2.034 . S
N652 C655 1.366 . S
N652 C656 1.332 1_455 S
N653 C654 1.337 . S
N653 C656 1.346 . S
C654 N653 1.337 . S
C654 C655 1.377 1_655 S
C654 H687 0.930 . S
C655 N652 1.366 . S
C655 C654 1.377 1_455 S
C655 H659 0.931 . S
C656 N652 1.332 1_655 S
C656 N653 1.346 . S
C656 C673 1.361 . S
Co657 O660 2.097 . S
Co657 O661 2.065 . S
Co657 O662 2.065 . S
Co657 O663 2.042 . S
Co657 O666 2.097 . S
Co657 O670 2.042 . S
C658 O666 1.253 . S
C658 O671 1.263 . S
H659 C655 0.931 . S
O660 Co645 2.262 . S
O660 Co657 2.097 . S
O660 C684 1.253 . S
O661 Co657 2.065 . S
O661 C677 1.221 . S
O662 Co657 2.065 . S
O662 C672 1.221 . S
O663 Co657 2.042 . S
O663 C678 1.237 . S
O664 Co645 1.958 . S
O664 C678 1.278 . S
O665 Co651 1.950 . S
O665 C677 1.277 . S
O666 Co651 2.262 . S
O666 Co657 2.097 . S
O666 C658 1.253 . S
O667 Co651 1.958 . S
O667 C685 1.278 . S
O668 Co645 1.950 . S
O668 C672 1.277 . S
O669 Co645 2.057 . S
O669 C684 1.263 . S
O670 Co657 2.042 . S
O670 C685 1.237 . S
O671 Co651 2.057 . S
O671 C658 1.263 . S
C672 O662 1.221 . S
C672 O668 1.277 . S
C673 C656 1.361 . S
C673 H674 0.960 1_655 S
C673 H675 0.961 . S
C673 H676 0.961 . S
H674 C673 0.960 1_455 S
H675 C673 0.961 . S
H676 C673 0.961 . S
C677 O661 1.221 . S
C677 O665 1.277 . S
C678 O663 1.237 . S
C678 O664 1.278 . S
H679 C647 0.931 . S
H680 C683 0.961 . S
H681 C683 0.961 . S
H682 C683 0.960 . S
C683 C649 1.361 . S
C683 H680 0.961 . S
C683 H681 0.961 . S
C683 H682 0.960 . S
C684 O660 1.253 . S
C684 O669 1.263 . S
C685 O667 1.278 . S
C685 O670 1.237 . S
H686 C650 0.930 . S
H687 C654 0.930 . S
Co688 N689 2.034 . S
Co688 O703 2.262 . S
Co688 O707 1.958 . S
Co688 O711 1.950 . S
Co688 O712 2.057 . S
N689 Co688 2.034 . S
N689 C690 1.366 . S
N689 C692 1.332 . S
C690 N689 1.366 . S
C690 C693 1.377 . S
C690 H722 0.931 . S
N691 C692 1.346 . S
N691 C693 1.337 . S
C692 N689 1.332 . S
C692 N691 1.346 . S
C692 C726 1.361 . S
C693 C690 1.377 . S
C693 N691 1.337 . S
C693 H729 0.930 . S
Co694 N695 2.034 . S
Co694 O708 1.950 . S
Co694 O709 2.262 . S
Co694 O710 1.958 . S
Co694 O714 2.057 . S
N695 Co694 2.034 . S
N695 C698 1.366 . S
N695 C699 1.332 1_565 S
N696 C697 1.337 . S
N696 C699 1.346 . S
C697 N696 1.337 . S
C697 C698 1.377 1_545 S
C697 H730 0.930 . S
C698 N695 1.366 . S
C698 C697 1.377 1_565 S
C698 H702 0.931 . S
C699 N695 1.332 1_545 S
C699 N696 1.346 . S
C699 C716 1.361 . S
Co700 O703 2.097 . S
Co700 O704 2.065 . S
Co700 O705 2.065 . S
Co700 O706 2.042 . S
Co700 O709 2.097 . S
Co700 O713 2.042 . S
C701 O709 1.253 . S
C701 O714 1.263 . S
H702 C698 0.931 . S
O703 Co688 2.262 . S
O703 Co700 2.097 . S
O703 C727 1.253 . S
O704 Co700 2.065 . S
O704 C720 1.221 . S
O705 Co700 2.065 . S
O705 C715 1.221 . S
O706 Co700 2.042 . S
O706 C721 1.237 . S
O707 Co688 1.958 . S
O707 C721 1.278 . S
O708 Co694 1.950 . S
O708 C720 1.277 . S
O709 Co694 2.262 . S
O709 Co700 2.097 . S
O709 C701 1.253 . S
O710 Co694 1.958 . S
O710 C728 1.278 . S
O711 Co688 1.950 . S
O711 C715 1.277 . S
O712 Co688 2.057 . S
O712 C727 1.263 . S
O713 Co700 2.042 . S
O713 C728 1.237 . S
O714 Co694 2.057 . S
O714 C701 1.263 . S
C715 O705 1.221 . S
C715 O711 1.277 . S
C716 C699 1.361 . S
C716 H717 0.960 1_545 S
C716 H718 0.961 . S
C716 H719 0.961 . S
H717 C716 0.960 1_565 S
H718 C716 0.961 . S
H719 C716 0.961 . S
C720 O704 1.221 . S
C720 O708 1.277 . S
C721 O706 1.237 . S
C721 O707 1.278 . S
H722 C690 0.931 . S
H723 C726 0.961 . S
H724 C726 0.961 . S
H725 C726 0.960 . S
C726 C692 1.361 . S
C726 H723 0.961 . S
C726 H724 0.961 . S
C726 H725 0.960 . S
C727 O703 1.253 . S
C727 O712 1.263 . S
C728 O710 1.278 . S
C728 O713 1.237 . S
H729 C693 0.930 . S
H730 C697 0.930 . S
Co731 N732 2.034 . S
Co731 O746 2.262 . S
Co731 O750 1.958 . S
Co731 O754 1.950 . S
Co731 O755 2.057 . S
N732 Co731 2.034 . S
N732 C733 1.366 . S
N732 C735 1.332 1_545 S
C733 N732 1.366 . S
C733 C736 1.377 1_545 S
C733 H765 0.931 . S
N734 C735 1.346 . S
N734 C736 1.337 . S
C735 N732 1.332 1_565 S
C735 N734 1.346 . S
C735 C769 1.361 . S
C736 C733 1.377 1_565 S
C736 N734 1.337 . S
C736 H772 0.930 . S
Co737 N738 2.034 . S
Co737 O751 1.950 . S
Co737 O752 2.262 . S
Co737 O753 1.958 . S
Co737 O757 2.057 . S
N738 Co737 2.034 . S
N738 C741 1.366 . S
N738 C742 1.332 . S
N739 C740 1.337 . S
N739 C742 1.346 . S
C740 N739 1.337 . S
C740 C741 1.377 . S
C740 H773 0.930 . S
C741 N738 1.366 . S
C741 C740 1.377 . S
C741 H745 0.931 . S
C742 N738 1.332 . S
C742 N739 1.346 . S
C742 C759 1.361 . S
Co743 O746 2.097 . S
Co743 O747 2.065 . S
Co743 O748 2.065 . S
Co743 O749 2.042 . S
Co743 O752 2.097 . S
Co743 O756 2.042 . S
C744 O752 1.253 . S
C744 O757 1.263 . S
H745 C741 0.931 . S
O746 Co731 2.262 . S
O746 Co743 2.097 . S
O746 C770 1.253 . S
O747 Co743 2.065 . S
O747 C763 1.221 . S
O748 Co743 2.065 . S
O748 C758 1.221 . S
O749 Co743 2.042 . S
O749 C764 1.237 . S
O750 Co731 1.958 . S
O750 C764 1.278 . S
O751 Co737 1.950 . S
O751 C763 1.277 . S
O752 Co737 2.262 . S
O752 Co743 2.097 . S
O752 C744 1.253 . S
O753 Co737 1.958 . S
O753 C771 1.278 . S
O754 Co731 1.950 . S
O754 C758 1.277 . S
O755 Co731 2.057 . S
O755 C770 1.263 . S
O756 Co743 2.042 . S
O756 C771 1.237 . S
O757 Co737 2.057 . S
O757 C744 1.263 . S
C758 O748 1.221 . S
C758 O754 1.277 . S
C759 C742 1.361 . S
C759 H760 0.960 . S
C759 H761 0.961 . S
C759 H762 0.961 . S
H760 C759 0.960 . S
H761 C759 0.961 . S
H762 C759 0.961 . S
C763 O747 1.221 . S
C763 O751 1.277 . S
C764 O749 1.237 . S
C764 O750 1.278 . S
H765 C733 0.931 . S
H766 C769 0.961 . S
H767 C769 0.961 . S
H768 C769 0.960 1_545 S
C769 C735 1.361 . S
C769 H766 0.961 . S
C769 H767 0.961 . S
C769 H768 0.960 1_565 S
C770 O746 1.253 . S
C770 O755 1.263 . S
C771 O753 1.278 . S
C771 O756 1.237 . S
H772 C736 0.930 . S
H773 C740 0.930 . S
Co774 N775 2.034 . S
Co774 O789 2.262 . S
Co774 O793 1.958 . S
Co774 O797 1.950 . S
Co774 O798 2.057 . S
N775 Co774 2.034 . S
N775 C776 1.366 . S
N775 C778 1.332 . S
C776 N775 1.366 . S
C776 C779 1.377 . S
C776 H808 0.931 . S
N777 C778 1.346 . S
N777 C779 1.337 . S
C778 N775 1.332 . S
C778 N777 1.346 . S
C778 C812 1.361 . S
C779 C776 1.377 . S
C779 N777 1.337 . S
C779 H815 0.930 . S
Co780 N781 2.034 . S
Co780 O794 1.950 . S
Co780 O795 2.262 . S
Co780 O796 1.958 . S
Co780 O800 2.057 . S
N781 Co780 2.034 . S
N781 C784 1.366 . S
N781 C785 1.332 . S
N782 C783 1.337 . S
N782 C785 1.346 . S
C783 N782 1.337 . S
C783 C784 1.377 . S
C783 H816 0.930 . S
C784 N781 1.366 . S
C784 C783 1.377 . S
C784 H788 0.931 . S
C785 N781 1.332 . S
C785 N782 1.346 . S
C785 C802 1.361 . S
Co786 O789 2.097 . S
Co786 O790 2.065 . S
Co786 O791 2.065 . S
Co786 O792 2.042 . S
Co786 O795 2.097 . S
Co786 O799 2.042 . S
C787 O795 1.253 . S
C787 O800 1.263 . S
H788 C784 0.931 . S
O789 Co774 2.262 . S
O789 Co786 2.097 . S
O789 C813 1.253 . S
O790 Co786 2.065 . S
O790 C806 1.221 . S
O791 Co786 2.065 . S
O791 C801 1.221 . S
O792 Co786 2.042 . S
O792 C807 1.237 . S
O793 Co774 1.958 . S
O793 C807 1.278 . S
O794 Co780 1.950 . S
O794 C806 1.277 . S
O795 Co780 2.262 . S
O795 Co786 2.097 . S
O795 C787 1.253 . S
O796 Co780 1.958 . S
O796 C814 1.278 . S
O797 Co774 1.950 . S
O797 C801 1.277 . S
O798 Co774 2.057 . S
O798 C813 1.263 . S
O799 Co786 2.042 . S
O799 C814 1.237 . S
O800 Co780 2.057 . S
O800 C787 1.263 . S
C801 O791 1.221 . S
C801 O797 1.277 . S
C802 C785 1.361 . S
C802 H803 0.960 . S
C802 H804 0.961 . S
C802 H805 0.961 . S
H803 C802 0.960 . S
H804 C802 0.961 . S
H805 C802 0.961 . S
C806 O790 1.221 . S
C806 O794 1.277 . S
C807 O792 1.237 . S
C807 O793 1.278 . S
H808 C776 0.931 . S
H809 C812 0.961 . S
H810 C812 0.961 . S
H811 C812 0.960 . S
C812 C778 1.361 . S
C812 H809 0.961 . S
C812 H810 0.961 . S
C812 H811 0.960 . S
C813 O789 1.253 . S
C813 O798 1.263 . S
C814 O796 1.278 . S
C814 O799 1.237 . S
H815 C779 0.930 . S
H816 C783 0.930 . S
Co817 N818 2.034 . S
Co817 O832 2.262 . S
Co817 O836 1.958 . S
Co817 O840 1.950 . S
Co817 O841 2.057 . S
N818 Co817 2.034 . S
N818 C819 1.366 . S
N818 C821 1.332 . S
C819 N818 1.366 . S
C819 C822 1.377 . S
C819 H851 0.931 . S
N820 C821 1.346 . S
N820 C822 1.337 . S
C821 N818 1.332 . S
C821 N820 1.346 . S
C821 C855 1.361 . S
C822 C819 1.377 . S
C822 N820 1.337 . S
C822 H858 0.930 . S
Co823 N824 2.034 . S
Co823 O837 1.950 . S
Co823 O838 2.262 . S
Co823 O839 1.958 . S
Co823 O843 2.057 . S
N824 Co823 2.034 . S
N824 C827 1.366 . S
N824 C828 1.332 . S
N825 C826 1.337 . S
N825 C828 1.346 . S
C826 N825 1.337 . S
C826 C827 1.377 . S
C826 H859 0.930 . S
C827 N824 1.366 . S
C827 C826 1.377 . S
C827 H831 0.931 . S
C828 N824 1.332 . S
C828 N825 1.346 . S
C828 C845 1.361 . S
Co829 O832 2.097 . S
Co829 O833 2.065 . S
Co829 O834 2.065 . S
Co829 O835 2.042 . S
Co829 O838 2.097 . S
Co829 O842 2.042 . S
C830 O838 1.253 . S
C830 O843 1.263 . S
H831 C827 0.931 . S
O832 Co817 2.262 . S
O832 Co829 2.097 . S
O832 C856 1.253 . S
O833 Co829 2.065 . S
O833 C849 1.221 . S
O834 Co829 2.065 . S
O834 C844 1.221 . S
O835 Co829 2.042 . S
O835 C850 1.237 . S
O836 Co817 1.958 . S
O836 C850 1.278 . S
O837 Co823 1.950 . S
O837 C849 1.277 . S
O838 Co823 2.262 . S
O838 Co829 2.097 . S
O838 C830 1.253 . S
O839 Co823 1.958 . S
O839 C857 1.278 . S
O840 Co817 1.950 . S
O840 C844 1.277 . S
O841 Co817 2.057 . S
O841 C856 1.263 . S
O842 Co829 2.042 . S
O842 C857 1.237 . S
O843 Co823 2.057 . S
O843 C830 1.263 . S
C844 O834 1.221 . S
C844 O840 1.277 . S
C845 C828 1.361 . S
C845 H846 0.960 . S
C845 H847 0.961 . S
C845 H848 0.961 . S
H846 C845 0.960 . S
H847 C845 0.961 . S
H848 C845 0.961 . S
C849 O833 1.221 . S
C849 O837 1.277 . S
C850 O835 1.237 . S
C850 O836 1.278 . S
H851 C819 0.931 . S
H852 C855 0.961 . S
H853 C855 0.961 . S
H854 C855 0.960 . S
C855 C821 1.361 . S
C855 H852 0.961 . S
C855 H853 0.961 . S
C855 H854 0.960 . S
C856 O832 1.253 . S
C856 O841 1.263 . S
C857 O839 1.278 . S
C857 O842 1.237 . S
H858 C822 0.930 . S
H859 C826 0.930 . S
Co860 N861 2.034 . S
Co860 O875 2.262 . S
Co860 O879 1.958 . S
Co860 O883 1.950 . S
Co860 O884 2.057 . S
N861 Co860 2.034 . S
N861 C862 1.366 . S
N861 C864 1.332 . S
C862 N861 1.366 . S
C862 C865 1.377 . S
C862 H894 0.931 . S
N863 C864 1.346 . S
N863 C865 1.337 . S
C864 N861 1.332 . S
C864 N863 1.346 . S
C864 C898 1.361 . S
C865 C862 1.377 . S
C865 N863 1.337 . S
C865 H901 0.930 . S
Co866 N867 2.034 . S
Co866 O880 1.950 . S
Co866 O881 2.262 . S
Co866 O882 1.958 . S
Co866 O886 2.057 . S
N867 Co866 2.034 . S
N867 C870 1.366 . S
N867 C871 1.332 1_556 S
N868 C869 1.337 . S
N868 C871 1.346 . S
C869 N868 1.337 . S
C869 C870 1.377 1_554 S
C869 H902 0.930 . S
C870 N867 1.366 . S
C870 C869 1.377 1_556 S
C870 H874 0.931 . S
C871 N867 1.332 1_554 S
C871 N868 1.346 . S
C871 C888 1.361 . S
Co872 O875 2.097 . S
Co872 O876 2.065 . S
Co872 O877 2.065 . S
Co872 O878 2.042 . S
Co872 O881 2.097 . S
Co872 O885 2.042 . S
C873 O881 1.253 . S
C873 O886 1.263 . S
H874 C870 0.931 . S
O875 Co860 2.262 . S
O875 Co872 2.097 . S
O875 C899 1.253 . S
O876 Co872 2.065 . S
O876 C892 1.221 . S
O877 Co872 2.065 . S
O877 C887 1.221 . S
O878 Co872 2.042 . S
O878 C893 1.237 . S
O879 Co860 1.958 . S
O879 C893 1.278 . S
O880 Co866 1.950 . S
O880 C892 1.277 . S
O881 Co866 2.262 . S
O881 Co872 2.097 . S
O881 C873 1.253 . S
O882 Co866 1.958 . S
O882 C900 1.278 . S
O883 Co860 1.950 . S
O883 C887 1.277 . S
O884 Co860 2.057 . S
O884 C899 1.263 . S
O885 Co872 2.042 . S
O885 C900 1.237 . S
O886 Co866 2.057 . S
O886 C873 1.263 . S
C887 O877 1.221 . S
C887 O883 1.277 . S
C888 C871 1.361 . S
C888 H889 0.960 1_554 S
C888 H890 0.961 . S
C888 H891 0.961 . S
H889 C888 0.960 1_556 S
H890 C888 0.961 . S
H891 C888 0.961 . S
C892 O876 1.221 . S
C892 O880 1.277 . S
C893 O878 1.237 . S
C893 O879 1.278 . S
H894 C862 0.931 . S
H895 C898 0.961 . S
H896 C898 0.961 . S
H897 C898 0.960 . S
C898 C864 1.361 . S
C898 H895 0.961 . S
C898 H896 0.961 . S
C898 H897 0.960 . S
C899 O875 1.253 . S
C899 O884 1.263 . S
C900 O882 1.278 . S
C900 O885 1.237 . S
H901 C865 0.930 . S
H902 C869 0.930 . S
Co903 N904 2.034 . S
Co903 O918 2.262 . S
Co903 O922 1.958 . S
Co903 O926 1.950 . S
Co903 O927 2.057 . S
N904 Co903 2.034 . S
N904 C905 1.366 . S
N904 C907 1.332 1_554 S
C905 N904 1.366 . S
C905 C908 1.377 1_554 S
C905 H937 0.931 . S
N906 C907 1.346 . S
N906 C908 1.337 . S
C907 N904 1.332 1_556 S
C907 N906 1.346 . S
C907 C941 1.361 . S
C908 C905 1.377 1_556 S
C908 N906 1.337 . S
C908 H944 0.930 . S
Co909 N910 2.034 . S
Co909 O923 1.950 . S
Co909 O924 2.262 . S
Co909 O925 1.958 . S
Co909 O929 2.057 . S
N910 Co909 2.034 . S
N910 C913 1.366 . S
N910 C914 1.332 . S
N911 C912 1.337 . S
N911 C914 1.346 . S
C912 N911 1.337 . S
C912 C913 1.377 . S
C912 H945 0.930 . S
C913 N910 1.366 . S
C913 C912 1.377 . S
C913 H917 0.931 . S
C914 N910 1.332 . S
C914 N911 1.346 . S
C914 C931 1.361 . S
Co915 O918 2.097 . S
Co915 O919 2.065 . S
Co915 O920 2.065 . S
Co915 O921 2.042 . S
Co915 O924 2.097 . S
Co915 O928 2.042 . S
C916 O924 1.253 . S
C916 O929 1.263 . S
H917 C913 0.931 . S
O918 Co903 2.262 . S
O918 Co915 2.097 . S
O918 C942 1.253 . S
O919 Co915 2.065 . S
O919 C935 1.221 . S
O920 Co915 2.065 . S
O920 C930 1.221 . S
O921 Co915 2.042 . S
O921 C936 1.237 . S
O922 Co903 1.958 . S
O922 C936 1.278 . S
O923 Co909 1.950 . S
O923 C935 1.277 . S
O924 Co909 2.262 . S
O924 Co915 2.097 . S
O924 C916 1.253 . S
O925 Co909 1.958 . S
O925 C943 1.278 . S
O926 Co903 1.950 . S
O926 C930 1.277 . S
O927 Co903 2.057 . S
O927 C942 1.263 . S
O928 Co915 2.042 . S
O928 C943 1.237 . S
O929 Co909 2.057 . S
O929 C916 1.263 . S
C930 O920 1.221 . S
C930 O926 1.277 . S
C931 C914 1.361 . S
C931 H932 0.960 . S
C931 H933 0.961 . S
C931 H934 0.961 . S
H932 C931 0.960 . S
H933 C931 0.961 . S
H934 C931 0.961 . S
C935 O919 1.221 . S
C935 O923 1.277 . S
C936 O921 1.237 . S
C936 O922 1.278 . S
H937 C905 0.931 . S
H938 C941 0.961 . S
H939 C941 0.961 . S
H940 C941 0.960 1_554 S
C941 C907 1.361 . S
C941 H938 0.961 . S
C941 H939 0.961 . S
C941 H940 0.960 1_556 S
C942 O918 1.253 . S
C942 O927 1.263 . S
C943 O925 1.278 . S
C943 O928 1.237 . S
H944 C908 0.930 . S
H945 C912 0.930 . S
Co946 N947 2.034 . S
Co946 O961 2.262 . S
Co946 O965 1.958 . S
Co946 O969 1.950 . S
Co946 O970 2.057 . S
N947 Co946 2.034 . S
N947 C948 1.366 . S
N947 C950 1.332 . S
C948 N947 1.366 . S
C948 C951 1.377 . S
C948 H980 0.931 . S
N949 C950 1.346 . S
N949 C951 1.337 . S
C950 N947 1.332 . S
C950 N949 1.346 . S
C950 C984 1.361 . S
C951 C948 1.377 . S
C951 N949 1.337 . S
C951 H987 0.930 . S
Co952 N953 2.034 . S
Co952 O966 1.950 . S
Co952 O967 2.262 . S
Co952 O968 1.958 . S
Co952 O972 2.057 . S
N953 Co952 2.034 . S
N953 C956 1.366 . S
N953 C957 1.332 . S
N954 C955 1.337 . S
N954 C957 1.346 . S
C955 N954 1.337 . S
C955 C956 1.377 . S
C955 H988 0.930 . S
C956 N953 1.366 . S
C956 C955 1.377 . S
C956 H960 0.931 . S
C957 N953 1.332 . S
C957 N954 1.346 . S
C957 C974 1.361 . S
Co958 O961 2.097 . S
Co958 O962 2.065 . S
Co958 O963 2.065 . S
Co958 O964 2.042 . S
Co958 O967 2.097 . S
Co958 O971 2.042 . S
C959 O967 1.253 . S
C959 O972 1.263 . S
H960 C956 0.931 . S
O961 Co946 2.262 . S
O961 Co958 2.097 . S
O961 C985 1.253 . S
O962 Co958 2.065 . S
O962 C978 1.221 . S
O963 Co958 2.065 . S
O963 C973 1.221 . S
O964 Co958 2.042 . S
O964 C979 1.237 . S
O965 Co946 1.958 . S
O965 C979 1.278 . S
O966 Co952 1.950 . S
O966 C978 1.277 . S
O967 Co952 2.262 . S
O967 Co958 2.097 . S
O967 C959 1.253 . S
O968 Co952 1.958 . S
O968 C986 1.278 . S
O969 Co946 1.950 . S
O969 C973 1.277 . S
O970 Co946 2.057 . S
O970 C985 1.263 . S
O971 Co958 2.042 . S
O971 C986 1.237 . S
O972 Co952 2.057 . S
O972 C959 1.263 . S
C973 O963 1.221 . S
C973 O969 1.277 . S
C974 C957 1.361 . S
C974 H975 0.960 . S
C974 H976 0.961 . S
C974 H977 0.961 . S
H975 C974 0.960 . S
H976 C974 0.961 . S
H977 C974 0.961 . S
C978 O962 1.221 . S
C978 O966 1.277 . S
C979 O964 1.237 . S
C979 O965 1.278 . S
H980 C948 0.931 . S
H981 C984 0.961 . S
H982 C984 0.961 . S
H983 C984 0.960 . S
C984 C950 1.361 . S
C984 H981 0.961 . S
C984 H982 0.961 . S
C984 H983 0.960 . S
C985 O961 1.253 . S
C985 O970 1.263 . S
C986 O968 1.278 . S
C986 O971 1.237 . S
H987 C951 0.930 . S
H988 C955 0.930 . S
Co989 N990 2.034 . S
Co989 O1004 2.262 . S
Co989 O1008 1.958 . S
Co989 O1012 1.950 . S
Co989 O1013 2.057 . S
N990 Co989 2.034 . S
N990 C991 1.366 . S
N990 C993 1.332 . S
C991 N990 1.366 . S
C991 C994 1.377 . S
C991 H1023 0.931 . S
N992 C993 1.346 . S
N992 C994 1.337 . S
C993 N990 1.332 . S
C993 N992 1.346 . S
C993 C1027 1.361 . S
C994 C991 1.377 . S
C994 N992 1.337 . S
C994 H1030 0.930 . S
Co995 N996 2.034 . S
Co995 O1009 1.950 . S
Co995 O1010 2.262 . S
Co995 O1011 1.958 . S
Co995 O1015 2.057 . S
N996 Co995 2.034 . S
N996 C999 1.366 . S
N996 C1000 1.332 . S
N997 C998 1.337 . S
N997 C1000 1.346 . S
C998 N997 1.337 . S
C998 C999 1.377 . S
C998 H1031 0.930 . S
C999 N996 1.366 . S
C999 C998 1.377 . S
C999 H1003 0.931 . S
C1000 N996 1.332 . S
C1000 N997 1.346 . S
C1000 C1017 1.361 . S
Co1001 O1004 2.097 . S
Co1001 O1005 2.065 . S
Co1001 O1006 2.065 . S
Co1001 O1007 2.042 . S
Co1001 O1010 2.097 . S
Co1001 O1014 2.042 . S
C1002 O1010 1.253 . S
C1002 O1015 1.263 . S
H1003 C999 0.931 . S
O1004 Co989 2.262 . S
O1004 Co1001 2.097 . S
O1004 C1028 1.253 . S
O1005 Co1001 2.065 . S
O1005 C1021 1.221 . S
O1006 Co1001 2.065 . S
O1006 C1016 1.221 . S
O1007 Co1001 2.042 . S
O1007 C1022 1.237 . S
O1008 Co989 1.958 . S
O1008 C1022 1.278 . S
O1009 Co995 1.950 . S
O1009 C1021 1.277 . S
O1010 Co995 2.262 . S
O1010 Co1001 2.097 . S
O1010 C1002 1.253 . S
O1011 Co995 1.958 . S
O1011 C1029 1.278 . S
O1012 Co989 1.950 . S
O1012 C1016 1.277 . S
O1013 Co989 2.057 . S
O1013 C1028 1.263 . S
O1014 Co1001 2.042 . S
O1014 C1029 1.237 . S
O1015 Co995 2.057 . S
O1015 C1002 1.263 . S
C1016 O1006 1.221 . S
C1016 O1012 1.277 . S
C1017 C1000 1.361 . S
C1017 H1018 0.960 . S
C1017 H1019 0.961 . S
C1017 H1020 0.961 . S
H1018 C1017 0.960 . S
H1019 C1017 0.961 . S
H1020 C1017 0.961 . S
C1021 O1005 1.221 . S
C1021 O1009 1.277 . S
C1022 O1007 1.237 . S
C1022 O1008 1.278 . S
H1023 C991 0.931 . S
H1024 C1027 0.961 . S
H1025 C1027 0.961 . S
H1026 C1027 0.960 . S
C1027 C993 1.361 . S
C1027 H1024 0.961 . S
C1027 H1025 0.961 . S
C1027 H1026 0.960 . S
C1028 O1004 1.253 . S
C1028 O1013 1.263 . S
C1029 O1011 1.278 . S
C1029 O1014 1.237 . S
H1030 C994 0.930 . S
H1031 C998 0.930 . S
H1032 C1040 0.950 . S
H1033 C1045 0.950 . S
H1034 C1042 0.950 . S
H1035 C1044 0.950 . S
H1036 C1046 0.950 . S
H1037 C1048 0.950 . S
H1038 C1050 0.950 . S
H1039 C1051 0.950 . S
C1040 H1032 0.950 . S
C1040 C1041 1.386 . S
C1040 C1042 1.391 . S
C1041 C1040 1.386 . S
C1041 C1045 1.393 . S
C1042 H1034 0.950 . S
C1042 C1040 1.391 . S
C1042 C1043 1.400 . S
C1043 C1042 1.400 . S
C1043 C1044 1.398 . S
C1043 C1049 1.491 . S
C1044 H1035 0.950 . S
C1044 C1043 1.398 . S
C1044 C1045 1.391 . S
C1045 H1033 0.950 . S
C1045 C1041 1.393 . S
C1045 C1044 1.391 . S
C1046 H1036 0.950 . S
C1046 C1047 1.386 . S
C1046 C1048 1.391 . S
C1047 C1046 1.386 . S
C1047 C1051 1.393 . S
C1048 H1037 0.950 . S
C1048 C1046 1.391 . S
C1048 C1049 1.400 . S
C1049 C1043 1.491 . S
C1049 C1048 1.400 . S
C1049 C1050 1.398 . S
C1050 H1038 0.950 . S
C1050 C1049 1.398 . S
C1050 C1051 1.391 . S
C1051 H1039 0.950 . S
C1051 C1047 1.393 . S
C1051 C1050 1.391 . S
H1052 C1060 0.950 . S
H1053 C1065 0.950 . S
H1054 C1062 0.950 . S
H1055 C1064 0.950 . S
H1056 C1066 0.950 . S
H1057 C1068 0.950 . S
H1058 C1070 0.950 . S
H1059 C1071 0.950 . S
C1060 H1052 0.950 . S
C1060 C1061 1.386 . S
C1060 C1062 1.391 . S
C1061 C1060 1.386 . S
C1061 C1065 1.393 . S
C1062 H1054 0.950 . S
C1062 C1060 1.391 . S
C1062 C1063 1.400 . S
C1063 C1062 1.400 . S
C1063 C1064 1.398 . S
C1063 C1069 1.491 . S
C1064 H1055 0.950 . S
C1064 C1063 1.398 . S
C1064 C1065 1.391 . S
C1065 H1053 0.950 . S
C1065 C1061 1.393 . S
C1065 C1064 1.391 . S
C1066 H1056 0.950 . S
C1066 C1067 1.386 . S
C1066 C1068 1.391 . S
C1067 C1066 1.386 . S
C1067 C1071 1.393 . S
C1068 H1057 0.950 . S
C1068 C1066 1.391 . S
C1068 C1069 1.400 . S
C1069 C1063 1.491 . S
C1069 C1068 1.400 . S
C1069 C1070 1.398 . S
C1070 H1058 0.950 . S
C1070 C1069 1.398 . S
C1070 C1071 1.391 . S
C1071 H1059 0.950 . S
C1071 C1067 1.393 . S
C1071 C1070 1.391 . S
H1072 C1080 0.950 . S
H1073 C1085 0.950 . S
H1074 C1082 0.950 . S
H1075 C1084 0.950 . S
H1076 C1086 0.950 . S
H1077 C1088 0.950 . S
H1078 C1090 0.950 . S
H1079 C1091 0.950 . S
C1080 H1072 0.950 . S
C1080 C1081 1.386 . S
C1080 C1082 1.391 . S
C1081 C1080 1.386 . S
C1081 C1085 1.393 . S
C1082 H1074 0.950 . S
C1082 C1080 1.391 . S
C1082 C1083 1.400 . S
C1083 C1082 1.400 . S
C1083 C1084 1.398 . S
C1083 C1089 1.491 . S
C1084 H1075 0.950 . S
C1084 C1083 1.398 . S
C1084 C1085 1.391 . S
C1085 H1073 0.950 . S
C1085 C1081 1.393 . S
C1085 C1084 1.391 . S
C1086 H1076 0.950 . S
C1086 C1087 1.386 . S
C1086 C1088 1.391 . S
C1087 C1086 1.386 . S
C1087 C1091 1.393 . S
C1088 H1077 0.950 . S
C1088 C1086 1.391 . S
C1088 C1089 1.400 . S
C1089 C1083 1.491 . S
C1089 C1088 1.400 . S
C1089 C1090 1.398 . S
C1090 H1078 0.950 . S
C1090 C1089 1.398 . S
C1090 C1091 1.391 . S
C1091 H1079 0.950 . S
C1091 C1087 1.393 . S
C1091 C1090 1.391 . S
H1092 C1100 0.950 . S
H1093 C1105 0.950 . S
H1094 C1102 0.950 . S
H1095 C1104 0.950 . S
H1096 C1106 0.950 . S
H1097 C1108 0.950 . S
H1098 C1110 0.950 . S
H1099 C1111 0.950 . S
C1100 H1092 0.950 . S
C1100 C1101 1.386 . S
C1100 C1102 1.391 . S
C1101 C1100 1.386 . S
C1101 C1105 1.393 . S
C1102 H1094 0.950 . S
C1102 C1100 1.391 . S
C1102 C1103 1.400 . S
C1103 C1102 1.400 . S
C1103 C1104 1.398 . S
C1103 C1109 1.491 . S
C1104 H1095 0.950 . S
C1104 C1103 1.398 . S
C1104 C1105 1.391 . S
C1105 H1093 0.950 . S
C1105 C1101 1.393 . S
C1105 C1104 1.391 . S
C1106 H1096 0.950 . S
C1106 C1107 1.386 . S
C1106 C1108 1.391 . S
C1107 C1106 1.386 . S
C1107 C1111 1.393 . S
C1108 H1097 0.950 . S
C1108 C1106 1.391 . S
C1108 C1109 1.400 . S
C1109 C1103 1.491 . S
C1109 C1108 1.400 . S
C1109 C1110 1.398 . S
C1110 H1098 0.950 . S
C1110 C1109 1.398 . S
C1110 C1111 1.391 . S
C1111 H1099 0.950 . S
C1111 C1107 1.393 . S
C1111 C1110 1.391 . S
H1112 C1120 0.950 . S
H1113 C1125 0.950 . S
H1114 C1122 0.950 . S
H1115 C1124 0.950 . S
H1116 C1126 0.950 . S
H1117 C1128 0.950 . S
H1118 C1130 0.950 . S
H1119 C1131 0.950 . S
C1120 H1112 0.950 . S
C1120 C1121 1.386 . S
C1120 C1122 1.391 . S
C1121 C1120 1.386 . S
C1121 C1125 1.393 . S
C1122 H1114 0.950 . S
C1122 C1120 1.391 . S
C1122 C1123 1.400 . S
C1123 C1122 1.400 . S
C1123 C1124 1.398 . S
C1123 C1129 1.491 . S
C1124 H1115 0.950 . S
C1124 C1123 1.398 . S
C1124 C1125 1.391 . S
C1125 H1113 0.950 . S
C1125 C1121 1.393 . S
C1125 C1124 1.391 . S
C1126 H1116 0.950 . S
C1126 C1127 1.386 . S
C1126 C1128 1.391 . S
C1127 C1126 1.386 . S
C1127 C1131 1.393 . S
C1128 H1117 0.950 . S
C1128 C1126 1.391 . S
C1128 C1129 1.400 . S
C1129 C1123 1.491 . S
C1129 C1128 1.400 . S
C1129 C1130 1.398 . S
C1130 H1118 0.950 . S
C1130 C1129 1.398 . S
C1130 C1131 1.391 . S
C1131 H1119 0.950 . S
C1131 C1127 1.393 . S
C1131 C1130 1.391 . S
H1132 C1140 0.950 . S
H1133 C1145 0.950 . S
H1134 C1142 0.950 . S
H1135 C1144 0.950 . S
H1136 C1146 0.950 . S
H1137 C1148 0.950 . S
H1138 C1150 0.950 . S
H1139 C1151 0.950 . S
C1140 H1132 0.950 . S
C1140 C1141 1.386 . S
C1140 C1142 1.391 . S
C1141 C1140 1.386 . S
C1141 C1145 1.393 . S
C1142 H1134 0.950 . S
C1142 C1140 1.391 . S
C1142 C1143 1.400 . S
C1143 C1142 1.400 . S
C1143 C1144 1.398 . S
C1143 C1149 1.491 . S
C1144 H1135 0.950 . S
C1144 C1143 1.398 . S
C1144 C1145 1.391 . S
C1145 H1133 0.950 . S
C1145 C1141 1.393 . S
C1145 C1144 1.391 . S
C1146 H1136 0.950 . S
C1146 C1147 1.386 . S
C1146 C1148 1.391 . S
C1147 C1146 1.386 . S
C1147 C1151 1.393 . S
C1148 H1137 0.950 . S
C1148 C1146 1.391 . S
C1148 C1149 1.400 . S
C1149 C1143 1.491 . S
C1149 C1148 1.400 . S
C1149 C1150 1.398 . S
C1150 H1138 0.950 . S
C1150 C1149 1.398 . S
C1150 C1151 1.391 . S
C1151 H1139 0.950 . S
C1151 C1147 1.393 . S
C1151 C1150 1.391 . S
H1152 C1160 0.950 . S
H1153 C1165 0.950 . S
H1154 C1162 0.950 . S
H1155 C1164 0.950 . S
H1156 C1166 0.950 . S
H1157 C1168 0.950 . S
H1158 C1170 0.950 . S
H1159 C1171 0.950 . S
C1160 H1152 0.950 . S
C1160 C1161 1.386 . S
C1160 C1162 1.391 . S
C1161 C1160 1.386 . S
C1161 C1165 1.393 . S
C1162 H1154 0.950 . S
C1162 C1160 1.391 . S
C1162 C1163 1.400 . S
C1163 C1162 1.400 . S
C1163 C1164 1.398 . S
C1163 C1169 1.491 . S
C1164 H1155 0.950 . S
C1164 C1163 1.398 . S
C1164 C1165 1.391 . S
C1165 H1153 0.950 . S
C1165 C1161 1.393 . S
C1165 C1164 1.391 . S
C1166 H1156 0.950 . S
C1166 C1167 1.386 . S
C1166 C1168 1.391 . S
C1167 C1166 1.386 . S
C1167 C1171 1.393 . S
C1168 H1157 0.950 . S
C1168 C1166 1.391 . S
C1168 C1169 1.400 . S
C1169 C1163 1.491 . S
C1169 C1168 1.400 . S
C1169 C1170 1.398 . S
C1170 H1158 0.950 . S
C1170 C1169 1.398 . S
C1170 C1171 1.391 . S
C1171 H1159 0.950 . S
C1171 C1167 1.393 . S
C1171 C1170 1.391 . S
H1172 C1180 0.950 . S
H1173 C1185 0.950 . S
H1174 C1182 0.950 . S
H1175 C1184 0.950 . S
H1176 C1186 0.950 . S
H1177 C1188 0.950 . S
H1178 C1190 0.950 . S
H1179 C1191 0.950 . S
C1180 H1172 0.950 . S
C1180 C1181 1.386 . S
C1180 C1182 1.391 . S
C1181 C1180 1.386 . S
C1181 C1185 1.393 . S
C1182 H1174 0.950 . S
C1182 C1180 1.391 . S
C1182 C1183 1.400 . S
C1183 C1182 1.400 . S
C1183 C1184 1.398 . S
C1183 C1189 1.491 . S
C1184 H1175 0.950 . S
C1184 C1183 1.398 . S
C1184 C1185 1.391 . S
C1185 H1173 0.950 . S
C1185 C1181 1.393 . S
C1185 C1184 1.391 . S
C1186 H1176 0.950 . S
C1186 C1187 1.386 . S
C1186 C1188 1.391 . S
C1187 C1186 1.386 . S
C1187 C1191 1.393 . S
C1188 H1177 0.950 . S
C1188 C1186 1.391 . S
C1188 C1189 1.400 . S
C1189 C1183 1.491 . S
C1189 C1188 1.400 . S
C1189 C1190 1.398 . S
C1190 H1178 0.950 . S
C1190 C1189 1.398 . S
C1190 C1191 1.391 . S
C1191 H1179 0.950 . S
C1191 C1187 1.393 . S
C1191 C1190 1.391 . S
H1192 C1200 0.950 . S
H1193 C1205 0.950 . S
H1194 C1202 0.950 . S
H1195 C1204 0.950 . S
H1196 C1206 0.950 . S
H1197 C1208 0.950 . S
H1198 C1210 0.950 . S
H1199 C1211 0.950 . S
C1200 H1192 0.950 . S
C1200 C1201 1.386 . S
C1200 C1202 1.391 . S
C1201 C1200 1.386 . S
C1201 C1205 1.393 . S
C1202 H1194 0.950 . S
C1202 C1200 1.391 . S
C1202 C1203 1.400 . S
C1203 C1202 1.400 . S
C1203 C1204 1.398 . S
C1203 C1209 1.491 . S
C1204 H1195 0.950 . S
C1204 C1203 1.398 . S
C1204 C1205 1.391 . S
C1205 H1193 0.950 . S
C1205 C1201 1.393 . S
C1205 C1204 1.391 . S
C1206 H1196 0.950 . S
C1206 C1207 1.386 . S
C1206 C1208 1.391 . S
C1207 C1206 1.386 . S
C1207 C1211 1.393 . S
C1208 H1197 0.950 . S
C1208 C1206 1.391 . S
C1208 C1209 1.400 . S
C1209 C1203 1.491 . S
C1209 C1208 1.400 . S
C1209 C1210 1.398 . S
C1210 H1198 0.950 . S
C1210 C1209 1.398 . S
C1210 C1211 1.391 . S
C1211 H1199 0.950 . S
C1211 C1207 1.393 . S
C1211 C1210 1.391 . S
H1212 C1220 0.950 . S
H1213 C1225 0.950 . S
H1214 C1222 0.950 . S
H1215 C1224 0.950 . S
H1216 C1226 0.950 . S
H1217 C1228 0.950 . S
H1218 C1230 0.950 . S
H1219 C1231 0.950 . S
C1220 H1212 0.950 . S
C1220 C1221 1.386 . S
C1220 C1222 1.391 . S
C1221 C1220 1.386 . S
C1221 C1225 1.393 . S
C1222 H1214 0.950 . S
C1222 C1220 1.391 . S
C1222 C1223 1.400 . S
C1223 C1222 1.400 . S
C1223 C1224 1.398 . S
C1223 C1229 1.491 . S
C1224 H1215 0.950 . S
C1224 C1223 1.398 . S
C1224 C1225 1.391 . S
C1225 H1213 0.950 . S
C1225 C1221 1.393 . S
C1225 C1224 1.391 . S
C1226 H1216 0.950 . S
C1226 C1227 1.386 . S
C1226 C1228 1.391 . S
C1227 C1226 1.386 . S
C1227 C1231 1.393 . S
C1228 H1217 0.950 . S
C1228 C1226 1.391 . S
C1228 C1229 1.400 . S
C1229 C1223 1.491 . S
C1229 C1228 1.400 . S
C1229 C1230 1.398 . S
C1230 H1218 0.950 . S
C1230 C1229 1.398 . S
C1230 C1231 1.391 . S
C1231 H1219 0.950 . S
C1231 C1227 1.393 . S
C1231 C1230 1.391 . S
H1232 C1240 0.950 . S
H1233 C1245 0.950 . S
H1234 C1242 0.950 . S
H1235 C1244 0.950 . S
H1236 C1246 0.950 . S
H1237 C1248 0.950 . S
H1238 C1250 0.950 . S
H1239 C1251 0.950 . S
C1240 H1232 0.950 . S
C1240 C1241 1.386 . S
C1240 C1242 1.391 . S
C1241 C1240 1.386 . S
C1241 C1245 1.393 . S
C1242 H1234 0.950 . S
C1242 C1240 1.391 . S
C1242 C1243 1.400 . S
C1243 C1242 1.400 . S
C1243 C1244 1.398 . S
C1243 C1249 1.491 . S
C1244 H1235 0.950 . S
C1244 C1243 1.398 . S
C1244 C1245 1.391 . S
C1245 H1233 0.950 . S
C1245 C1241 1.393 . S
C1245 C1244 1.391 . S
C1246 H1236 0.950 . S
C1246 C1247 1.386 . S
C1246 C1248 1.391 . S
C1247 C1246 1.386 . S
C1247 C1251 1.393 . S
C1248 H1237 0.950 . S
C1248 C1246 1.391 . S
C1248 C1249 1.400 . S
C1249 C1243 1.491 . S
C1249 C1248 1.400 . S
C1249 C1250 1.398 . S
C1250 H1238 0.950 . S
C1250 C1249 1.398 . S
C1250 C1251 1.391 . S
C1251 H1239 0.950 . S
C1251 C1247 1.393 . S
C1251 C1250 1.391 . S
H1252 C1260 0.950 . S
H1253 C1265 0.950 . S
H1254 C1262 0.950 . S
H1255 C1264 0.950 . S
H1256 C1266 0.950 . S
H1257 C1268 0.950 . S
H1258 C1270 0.950 . S
H1259 C1271 0.950 . S
C1260 H1252 0.950 . S
C1260 C1261 1.386 . S
C1260 C1262 1.391 . S
C1261 C1260 1.386 . S
C1261 C1265 1.393 . S
C1262 H1254 0.950 . S
C1262 C1260 1.391 . S
C1262 C1263 1.400 . S
C1263 C1262 1.400 . S
C1263 C1264 1.398 . S
C1263 C1269 1.491 . S
C1264 H1255 0.950 . S
C1264 C1263 1.398 . S
C1264 C1265 1.391 . S
C1265 H1253 0.950 . S
C1265 C1261 1.393 . S
C1265 C1264 1.391 . S
C1266 H1256 0.950 . S
C1266 C1267 1.386 . S
C1266 C1268 1.391 . S
C1267 C1266 1.386 . S
C1267 C1271 1.393 . S
C1268 H1257 0.950 . S
C1268 C1266 1.391 . S
C1268 C1269 1.400 . S
C1269 C1263 1.491 . S
C1269 C1268 1.400 . S
C1269 C1270 1.398 . S
C1270 H1258 0.950 . S
C1270 C1269 1.398 . S
C1270 C1271 1.391 . S
C1271 H1259 0.950 . S
C1271 C1267 1.393 . S
C1271 C1270 1.391 . S
H1272 C1280 0.950 . S
H1273 C1285 0.950 . S
H1274 C1282 0.950 . S
H1275 C1284 0.950 . S
H1276 C1286 0.950 . S
H1277 C1288 0.950 . S
H1278 C1290 0.950 . S
H1279 C1291 0.950 . S
C1280 H1272 0.950 . S
C1280 C1281 1.386 . S
C1280 C1282 1.391 . S
C1281 C1280 1.386 . S
C1281 C1285 1.393 . S
C1282 H1274 0.950 . S
C1282 C1280 1.391 . S
C1282 C1283 1.400 . S
C1283 C1282 1.400 . S
C1283 C1284 1.398 . S
C1283 C1289 1.491 . S
C1284 H1275 0.950 . S
C1284 C1283 1.398 . S
C1284 C1285 1.391 . S
C1285 H1273 0.950 . S
C1285 C1281 1.393 . S
C1285 C1284 1.391 . S
C1286 H1276 0.950 . S
C1286 C1287 1.386 . S
C1286 C1288 1.391 . S
C1287 C1286 1.386 . S
C1287 C1291 1.393 . S
C1288 H1277 0.950 . S
C1288 C1286 1.391 . S
C1288 C1289 1.400 . S
C1289 C1283 1.491 . S
C1289 C1288 1.400 . S
C1289 C1290 1.398 . S
C1290 H1278 0.950 . S
C1290 C1289 1.398 . S
C1290 C1291 1.391 . S
C1291 H1279 0.950 . S
C1291 C1287 1.393 . S
C1291 C1290 1.391 . S
H1292 C1300 0.950 . S
H1293 C1305 0.950 . S
H1294 C1302 0.950 . S
H1295 C1304 0.950 . S
H1296 C1306 0.950 . S
H1297 C1308 0.950 . S
H1298 C1310 0.950 . S
H1299 C1311 0.950 . S
C1300 H1292 0.950 . S
C1300 C1301 1.386 . S
C1300 C1302 1.391 . S
C1301 C1300 1.386 . S
C1301 C1305 1.393 . S
C1302 H1294 0.950 . S
C1302 C1300 1.391 . S
C1302 C1303 1.400 . S
C1303 C1302 1.400 . S
C1303 C1304 1.398 . S
C1303 C1309 1.491 . S
C1304 H1295 0.950 . S
C1304 C1303 1.398 . S
C1304 C1305 1.391 . S
C1305 H1293 0.950 . S
C1305 C1301 1.393 . S
C1305 C1304 1.391 . S
C1306 H1296 0.950 . S
C1306 C1307 1.386 . S
C1306 C1308 1.391 . S
C1307 C1306 1.386 . S
C1307 C1311 1.393 . S
C1308 H1297 0.950 . S
C1308 C1306 1.391 . S
C1308 C1309 1.400 . S
C1309 C1303 1.491 . S
C1309 C1308 1.400 . S
C1309 C1310 1.398 . S
C1310 H1298 0.950 . S
C1310 C1309 1.398 . S
C1310 C1311 1.391 . S
C1311 H1299 0.950 . S
C1311 C1307 1.393 . S
C1311 C1310 1.391 . S
H1312 C1320 0.950 . S
H1313 C1325 0.950 . S
H1314 C1322 0.950 . S
H1315 C1324 0.950 . S
H1316 C1326 0.950 . S
H1317 C1328 0.950 . S
H1318 C1330 0.950 . S
H1319 C1331 0.950 . S
C1320 H1312 0.950 . S
C1320 C1321 1.386 . S
C1320 C1322 1.391 . S
C1321 C1320 1.386 . S
C1321 C1325 1.393 . S
C1322 H1314 0.950 . S
C1322 C1320 1.391 . S
C1322 C1323 1.400 . S
C1323 C1322 1.400 . S
C1323 C1324 1.398 . S
C1323 C1329 1.491 . S
C1324 H1315 0.950 . S
C1324 C1323 1.398 . S
C1324 C1325 1.391 . S
C1325 H1313 0.950 . S
C1325 C1321 1.393 . S
C1325 C1324 1.391 . S
C1326 H1316 0.950 . S
C1326 C1327 1.386 . S
C1326 C1328 1.391 . S
C1327 C1326 1.386 . S
C1327 C1331 1.393 . S
C1328 H1317 0.950 . S
C1328 C1326 1.391 . S
C1328 C1329 1.400 . S
C1329 C1323 1.491 . S
C1329 C1328 1.400 . S
C1329 C1330 1.398 . S
C1330 H1318 0.950 . S
C1330 C1329 1.398 . S
C1330 C1331 1.391 . S
C1331 H1319 0.950 . S
C1331 C1327 1.393 . S
C1331 C1330 1.391 . S
H1332 C1340 0.950 . S
H1333 C1345 0.950 . S
H1334 C1342 0.950 . S
H1335 C1344 0.950 . S
H1336 C1346 0.950 . S
H1337 C1348 0.950 . S
H1338 C1350 0.950 . S
H1339 C1351 0.950 . S
C1340 H1332 0.950 . S
C1340 C1341 1.386 . S
C1340 C1342 1.391 . S
C1341 C1340 1.386 . S
C1341 C1345 1.393 . S
C1342 H1334 0.950 . S
C1342 C1340 1.391 . S
C1342 C1343 1.400 . S
C1343 C1342 1.400 . S
C1343 C1344 1.398 . S
C1343 C1349 1.491 . S
C1344 H1335 0.950 . S
C1344 C1343 1.398 . S
C1344 C1345 1.391 . S
C1345 H1333 0.950 . S
C1345 C1341 1.393 . S
C1345 C1344 1.391 . S
C1346 H1336 0.950 . S
C1346 C1347 1.386 . S
C1346 C1348 1.391 . S
C1347 C1346 1.386 . S
C1347 C1351 1.393 . S
C1348 H1337 0.950 . S
C1348 C1346 1.391 . S
C1348 C1349 1.400 . S
C1349 C1343 1.491 . S
C1349 C1348 1.400 . S
C1349 C1350 1.398 . S
C1350 H1338 0.950 . S
C1350 C1349 1.398 . S
C1350 C1351 1.391 . S
C1351 H1339 0.950 . S
C1351 C1347 1.393 . S
C1351 C1350 1.391 . S
H1352 C1360 0.950 . S
H1353 C1365 0.950 . S
H1354 C1362 0.950 . S
H1355 C1364 0.950 . S
H1356 C1366 0.950 . S
H1357 C1368 0.950 . S
H1358 C1370 0.950 . S
H1359 C1371 0.950 . S
C1360 H1352 0.950 . S
C1360 C1361 1.386 . S
C1360 C1362 1.391 . S
C1361 C1360 1.386 . S
C1361 C1365 1.393 . S
C1362 H1354 0.950 . S
C1362 C1360 1.391 . S
C1362 C1363 1.400 . S
C1363 C1362 1.400 . S
C1363 C1364 1.398 . S
C1363 C1369 1.491 . S
C1364 H1355 0.950 . S
C1364 C1363 1.398 . S
C1364 C1365 1.391 . S
C1365 H1353 0.950 . S
C1365 C1361 1.393 . S
C1365 C1364 1.391 . S
C1366 H1356 0.950 . S
C1366 C1367 1.386 . S
C1366 C1368 1.391 . S
C1367 C1366 1.386 . S
C1367 C1371 1.393 . S
C1368 H1357 0.950 . S
C1368 C1366 1.391 . S
C1368 C1369 1.400 . S
C1369 C1363 1.491 . S
C1369 C1368 1.400 . S
C1369 C1370 1.398 . S
C1370 H1358 0.950 . S
C1370 C1369 1.398 . S
C1370 C1371 1.391 . S
C1371 H1359 0.950 . S
C1371 C1367 1.393 . S
C1371 C1370 1.391 . S
H1372 C1380 0.950 . S
H1373 C1385 0.950 . S
H1374 C1382 0.950 . S
H1375 C1384 0.950 . S
H1376 C1386 0.950 . S
H1377 C1388 0.950 . S
H1378 C1390 0.950 . S
H1379 C1391 0.950 . S
C1380 H1372 0.950 . S
C1380 C1381 1.386 . S
C1380 C1382 1.391 . S
C1381 C1380 1.386 . S
C1381 C1385 1.393 . S
C1382 H1374 0.950 . S
C1382 C1380 1.391 . S
C1382 C1383 1.400 . S
C1383 C1382 1.400 . S
C1383 C1384 1.398 . S
C1383 C1389 1.491 . S
C1384 H1375 0.950 . S
C1384 C1383 1.398 . S
C1384 C1385 1.391 . S
C1385 H1373 0.950 . S
C1385 C1381 1.393 . S
C1385 C1384 1.391 . S
C1386 H1376 0.950 . S
C1386 C1387 1.386 . S
C1386 C1388 1.391 . S
C1387 C1386 1.386 . S
C1387 C1391 1.393 . S
C1388 H1377 0.950 . S
C1388 C1386 1.391 . S
C1388 C1389 1.400 . S
C1389 C1383 1.491 . S
C1389 C1388 1.400 . S
C1389 C1390 1.398 . S
C1390 H1378 0.950 . S
C1390 C1389 1.398 . S
C1390 C1391 1.391 . S
C1391 H1379 0.950 . S
C1391 C1387 1.393 . S
C1391 C1390 1.391 . S
H1392 C1400 0.950 . S
H1393 C1405 0.950 . S
H1394 C1402 0.950 . S
H1395 C1404 0.950 . S
H1396 C1406 0.950 . S
H1397 C1408 0.950 . S
H1398 C1410 0.950 . S
H1399 C1411 0.950 . S
C1400 H1392 0.950 . S
C1400 C1401 1.386 . S
C1400 C1402 1.391 . S
C1401 C1400 1.386 . S
C1401 C1405 1.393 . S
C1402 H1394 0.950 . S
C1402 C1400 1.391 . S
C1402 C1403 1.400 . S
C1403 C1402 1.400 . S
C1403 C1404 1.398 . S
C1403 C1409 1.491 . S
C1404 H1395 0.950 . S
C1404 C1403 1.398 . S
C1404 C1405 1.391 . S
C1405 H1393 0.950 . S
C1405 C1401 1.393 . S
C1405 C1404 1.391 . S
C1406 H1396 0.950 . S
C1406 C1407 1.386 . S
C1406 C1408 1.391 . S
C1407 C1406 1.386 . S
C1407 C1411 1.393 . S
C1408 H1397 0.950 . S
C1408 C1406 1.391 . S
C1408 C1409 1.400 . S
C1409 C1403 1.491 . S
C1409 C1408 1.400 . S
C1409 C1410 1.398 . S
C1410 H1398 0.950 . S
C1410 C1409 1.398 . S
C1410 C1411 1.391 . S
C1411 H1399 0.950 . S
C1411 C1407 1.393 . S
C1411 C1410 1.391 . S
H1412 C1420 0.950 . S
H1413 C1425 0.950 . S
H1414 C1422 0.950 . S
H1415 C1424 0.950 . S
H1416 C1426 0.950 . S
H1417 C1428 0.950 . S
H1418 C1430 0.950 . S
H1419 C1431 0.950 . S
C1420 H1412 0.950 . S
C1420 C1421 1.386 . S
C1420 C1422 1.391 . S
C1421 C1420 1.386 . S
C1421 C1425 1.393 . S
C1422 H1414 0.950 . S
C1422 C1420 1.391 . S
C1422 C1423 1.400 . S
C1423 C1422 1.400 . S
C1423 C1424 1.398 . S
C1423 C1429 1.491 . S
C1424 H1415 0.950 . S
C1424 C1423 1.398 . S
C1424 C1425 1.391 . S
C1425 H1413 0.950 . S
C1425 C1421 1.393 . S
C1425 C1424 1.391 . S
C1426 H1416 0.950 . S
C1426 C1427 1.386 . S
C1426 C1428 1.391 . S
C1427 C1426 1.386 . S
C1427 C1431 1.393 . S
C1428 H1417 0.950 . S
C1428 C1426 1.391 . S
C1428 C1429 1.400 . S
C1429 C1423 1.491 . S
C1429 C1428 1.400 . S
C1429 C1430 1.398 . S
C1430 H1418 0.950 . S
C1430 C1429 1.398 . S
C1430 C1431 1.391 . S
C1431 H1419 0.950 . S
C1431 C1427 1.393 . S
C1431 C1430 1.391 . S
H1432 C1440 0.950 . S
H1433 C1445 0.950 . S
H1434 C1442 0.950 . S
H1435 C1444 0.950 . S
H1436 C1446 0.950 . S
H1437 C1448 0.950 . S
H1438 C1450 0.950 . S
H1439 C1451 0.950 . S
C1440 H1432 0.950 . S
C1440 C1441 1.386 . S
C1440 C1442 1.391 . S
C1441 C1440 1.386 . S
C1441 C1445 1.393 . S
C1442 H1434 0.950 . S
C1442 C1440 1.391 . S
C1442 C1443 1.400 . S
C1443 C1442 1.400 . S
C1443 C1444 1.398 . S
C1443 C1449 1.491 . S
C1444 H1435 0.950 . S
C1444 C1443 1.398 . S
C1444 C1445 1.391 . S
C1445 H1433 0.950 . S
C1445 C1441 1.393 . S
C1445 C1444 1.391 . S
C1446 H1436 0.950 . S
C1446 C1447 1.386 . S
C1446 C1448 1.391 . S
C1447 C1446 1.386 . S
C1447 C1451 1.393 . S
C1448 H1437 0.950 . S
C1448 C1446 1.391 . S
C1448 C1449 1.400 . S
C1449 C1443 1.491 . S
C1449 C1448 1.400 . S
C1449 C1450 1.398 . S
C1450 H1438 0.950 . S
C1450 C1449 1.398 . S
C1450 C1451 1.391 . S
C1451 H1439 0.950 . S
C1451 C1447 1.393 . S
C1451 C1450 1.391 . S
H1452 C1460 0.950 . S
H1453 C1465 0.950 . S
H1454 C1462 0.950 . S
H1455 C1464 0.950 . S
H1456 C1466 0.950 . S
H1457 C1468 0.950 . S
H1458 C1470 0.950 . S
H1459 C1471 0.950 . S
C1460 H1452 0.950 . S
C1460 C1461 1.386 . S
C1460 C1462 1.391 . S
C1461 C1460 1.386 . S
C1461 C1465 1.393 . S
C1462 H1454 0.950 . S
C1462 C1460 1.391 . S
C1462 C1463 1.400 . S
C1463 C1462 1.400 . S
C1463 C1464 1.398 . S
C1463 C1469 1.491 . S
C1464 H1455 0.950 . S
C1464 C1463 1.398 . S
C1464 C1465 1.391 . S
C1465 H1453 0.950 . S
C1465 C1461 1.393 . S
C1465 C1464 1.391 . S
C1466 H1456 0.950 . S
C1466 C1467 1.386 . S
C1466 C1468 1.391 . S
C1467 C1466 1.386 . S
C1467 C1471 1.393 . S
C1468 H1457 0.950 . S
C1468 C1466 1.391 . S
C1468 C1469 1.400 . S
C1469 C1463 1.491 . S
C1469 C1468 1.400 . S
C1469 C1470 1.398 . S
C1470 H1458 0.950 . S
C1470 C1469 1.398 . S
C1470 C1471 1.391 . S
C1471 H1459 0.950 . S
C1471 C1467 1.393 . S
C1471 C1470 1.391 . S
H1472 C1480 0.950 . S
H1473 C1485 0.950 . S
H1474 C1482 0.950 . S
H1475 C1484 0.950 . S
H1476 C1486 0.950 . S
H1477 C1488 0.950 . S
H1478 C1490 0.950 . S
H1479 C1491 0.950 . S
C1480 H1472 0.950 . S
C1480 C1481 1.386 . S
C1480 C1482 1.391 . S
C1481 C1480 1.386 . S
C1481 C1485 1.393 . S
C1482 H1474 0.950 . S
C1482 C1480 1.391 . S
C1482 C1483 1.400 . S
C1483 C1482 1.400 . S
C1483 C1484 1.398 . S
C1483 C1489 1.491 . S
C1484 H1475 0.950 . S
C1484 C1483 1.398 . S
C1484 C1485 1.391 . S
C1485 H1473 0.950 . S
C1485 C1481 1.393 . S
C1485 C1484 1.391 . S
C1486 H1476 0.950 . S
C1486 C1487 1.386 . S
C1486 C1488 1.391 . S
C1487 C1486 1.386 . S
C1487 C1491 1.393 . S
C1488 H1477 0.950 . S
C1488 C1486 1.391 . S
C1488 C1489 1.400 . S
C1489 C1483 1.491 . S
C1489 C1488 1.400 . S
C1489 C1490 1.398 . S
C1490 H1478 0.950 . S
C1490 C1489 1.398 . S
C1490 C1491 1.391 . S
C1491 H1479 0.950 . S
C1491 C1487 1.393 . S
C1491 C1490 1.391 . S
H1492 C1500 0.950 . S
H1493 C1505 0.950 . S
H1494 C1502 0.950 . S
H1495 C1504 0.950 . S
H1496 C1506 0.950 . S
H1497 C1508 0.950 . S
H1498 C1510 0.950 . S
H1499 C1511 0.950 . S
C1500 H1492 0.950 . S
C1500 C1501 1.386 . S
C1500 C1502 1.391 . S
C1501 C1500 1.386 . S
C1501 C1505 1.393 . S
C1502 H1494 0.950 . S
C1502 C1500 1.391 . S
C1502 C1503 1.400 . S
C1503 C1502 1.400 . S
C1503 C1504 1.398 . S
C1503 C1509 1.491 . S
C1504 H1495 0.950 . S
C1504 C1503 1.398 . S
C1504 C1505 1.391 . S
C1505 H1493 0.950 . S
C1505 C1501 1.393 . S
C1505 C1504 1.391 . S
C1506 H1496 0.950 . S
C1506 C1507 1.386 . S
C1506 C1508 1.391 . S
C1507 C1506 1.386 . S
C1507 C1511 1.393 . S
C1508 H1497 0.950 . S
C1508 C1506 1.391 . S
C1508 C1509 1.400 . S
C1509 C1503 1.491 . S
C1509 C1508 1.400 . S
C1509 C1510 1.398 . S
C1510 H1498 0.950 . S
C1510 C1509 1.398 . S
C1510 C1511 1.391 . S
C1511 H1499 0.950 . S
C1511 C1507 1.393 . S
C1511 C1510 1.391 . S
H1512 C1520 0.950 . S
H1513 C1525 0.950 . S
H1514 C1522 0.950 . S
H1515 C1524 0.950 . S
H1516 C1526 0.950 . S
H1517 C1528 0.950 . S
H1518 C1530 0.950 . S
H1519 C1531 0.950 . S
C1520 H1512 0.950 . S
C1520 C1521 1.386 . S
C1520 C1522 1.391 . S
C1521 C1520 1.386 . S
C1521 C1525 1.393 . S
C1522 H1514 0.950 . S
C1522 C1520 1.391 . S
C1522 C1523 1.400 . S
C1523 C1522 1.400 . S
C1523 C1524 1.398 . S
C1523 C1529 1.491 . S
C1524 H1515 0.950 . S
C1524 C1523 1.398 . S
C1524 C1525 1.391 . S
C1525 H1513 0.950 . S
C1525 C1521 1.393 . S
C1525 C1524 1.391 . S
C1526 H1516 0.950 . S
C1526 C1527 1.386 . S
C1526 C1528 1.391 . S
C1527 C1526 1.386 . S
C1527 C1531 1.393 . S
C1528 H1517 0.950 . S
C1528 C1526 1.391 . S
C1528 C1529 1.400 . S
C1529 C1523 1.491 . S
C1529 C1528 1.400 . S
C1529 C1530 1.398 . S
C1530 H1518 0.950 . S
C1530 C1529 1.398 . S
C1530 C1531 1.391 . S
C1531 H1519 0.950 . S
C1531 C1527 1.393 . S
C1531 C1530 1.391 . S
H1532 C1540 0.950 . S
H1533 C1545 0.950 . S
H1534 C1542 0.950 . S
H1535 C1544 0.950 . S
H1536 C1546 0.950 . S
H1537 C1548 0.950 . S
H1538 C1550 0.950 . S
H1539 C1551 0.950 . S
C1540 H1532 0.950 . S
C1540 C1541 1.386 . S
C1540 C1542 1.391 . S
C1541 C1540 1.386 . S
C1541 C1545 1.393 . S
C1542 H1534 0.950 . S
C1542 C1540 1.391 . S
C1542 C1543 1.400 . S
C1543 C1542 1.400 . S
C1543 C1544 1.398 . S
C1543 C1549 1.491 . S
C1544 H1535 0.950 . S
C1544 C1543 1.398 . S
C1544 C1545 1.391 . S
C1545 H1533 0.950 . S
C1545 C1541 1.393 . S
C1545 C1544 1.391 . S
C1546 H1536 0.950 . S
C1546 C1547 1.386 . S
C1546 C1548 1.391 . S
C1547 C1546 1.386 . S
C1547 C1551 1.393 . S
C1548 H1537 0.950 . S
C1548 C1546 1.391 . S
C1548 C1549 1.400 . S
C1549 C1543 1.491 . S
C1549 C1548 1.400 . S
C1549 C1550 1.398 . S
C1550 H1538 0.950 . S
C1550 C1549 1.398 . S
C1550 C1551 1.391 . S
C1551 H1539 0.950 . S
C1551 C1547 1.393 . S
C1551 C1550 1.391 . S
H1552 C1560 0.950 . S
H1553 C1565 0.950 . S
H1554 C1562 0.950 . S
H1555 C1564 0.950 . S
H1556 C1566 0.950 . S
H1557 C1568 0.950 . S
H1558 C1570 0.950 . S
H1559 C1571 0.950 . S
C1560 H1552 0.950 . S
C1560 C1561 1.386 . S
C1560 C1562 1.391 . S
C1561 C1560 1.386 . S
C1561 C1565 1.393 . S
C1562 H1554 0.950 . S
C1562 C1560 1.391 . S
C1562 C1563 1.400 . S
C1563 C1562 1.400 . S
C1563 C1564 1.398 . S
C1563 C1569 1.491 . S
C1564 H1555 0.950 . S
C1564 C1563 1.398 . S
C1564 C1565 1.391 . S
C1565 H1553 0.950 . S
C1565 C1561 1.393 . S
C1565 C1564 1.391 . S
C1566 H1556 0.950 . S
C1566 C1567 1.386 . S
C1566 C1568 1.391 . S
C1567 C1566 1.386 . S
C1567 C1571 1.393 . S
C1568 H1557 0.950 . S
C1568 C1566 1.391 . S
C1568 C1569 1.400 . S
C1569 C1563 1.491 . S
C1569 C1568 1.400 . S
C1569 C1570 1.398 . S
C1570 H1558 0.950 . S
C1570 C1569 1.398 . S
C1570 C1571 1.391 . S
C1571 H1559 0.950 . S
C1571 C1567 1.393 . S
C1571 C1570 1.391 . S
H1572 C1580 0.950 . S
H1573 C1585 0.950 . S
H1574 C1582 0.950 . S
H1575 C1584 0.950 . S
H1576 C1586 0.950 . S
H1577 C1588 0.950 . S
H1578 C1590 0.950 . S
H1579 C1591 0.950 . S
C1580 H1572 0.950 . S
C1580 C1581 1.386 . S
C1580 C1582 1.391 . S
C1581 C1580 1.386 . S
C1581 C1585 1.393 . S
C1582 H1574 0.950 . S
C1582 C1580 1.391 . S
C1582 C1583 1.400 . S
C1583 C1582 1.400 . S
C1583 C1584 1.398 . S
C1583 C1589 1.491 . S
C1584 H1575 0.950 . S
C1584 C1583 1.398 . S
C1584 C1585 1.391 . S
C1585 H1573 0.950 . S
C1585 C1581 1.393 . S
C1585 C1584 1.391 . S
C1586 H1576 0.950 . S
C1586 C1587 1.386 . S
C1586 C1588 1.391 . S
C1587 C1586 1.386 . S
C1587 C1591 1.393 . S
C1588 H1577 0.950 . S
C1588 C1586 1.391 . S
C1588 C1589 1.400 . S
C1589 C1583 1.491 . S
C1589 C1588 1.400 . S
C1589 C1590 1.398 . S
C1590 H1578 0.950 . S
C1590 C1589 1.398 . S
C1590 C1591 1.391 . S
C1591 H1579 0.950 . S
C1591 C1587 1.393 . S
C1591 C1590 1.391 . S
H1592 C1600 0.950 . S
H1593 C1605 0.950 . S
H1594 C1602 0.950 . S
H1595 C1604 0.950 . S
H1596 C1606 0.950 . S
H1597 C1608 0.950 . S
H1598 C1610 0.950 . S
H1599 C1611 0.950 . S
C1600 H1592 0.950 . S
C1600 C1601 1.386 . S
C1600 C1602 1.391 . S
C1601 C1600 1.386 . S
C1601 C1605 1.393 . S
C1602 H1594 0.950 . S
C1602 C1600 1.391 . S
C1602 C1603 1.400 . S
C1603 C1602 1.400 . S
C1603 C1604 1.398 . S
C1603 C1609 1.491 . S
C1604 H1595 0.950 . S
C1604 C1603 1.398 . S
C1604 C1605 1.391 . S
C1605 H1593 0.950 . S
C1605 C1601 1.393 . S
C1605 C1604 1.391 . S
C1606 H1596 0.950 . S
C1606 C1607 1.386 . S
C1606 C1608 1.391 . S
C1607 C1606 1.386 . S
C1607 C1611 1.393 . S
C1608 H1597 0.950 . S
C1608 C1606 1.391 . S
C1608 C1609 1.400 . S
C1609 C1603 1.491 . S
C1609 C1608 1.400 . S
C1609 C1610 1.398 . S
C1610 H1598 0.950 . S
C1610 C1609 1.398 . S
C1610 C1611 1.391 . S
C1611 H1599 0.950 . S
C1611 C1607 1.393 . S
C1611 C1610 1.391 . S
H1612 C1620 0.950 . S
H1613 C1625 0.950 . S
H1614 C1622 0.950 . S
H1615 C1624 0.950 . S
H1616 C1626 0.950 . S
H1617 C1628 0.950 . S
H1618 C1630 0.950 . S
H1619 C1631 0.950 . S
C1620 H1612 0.950 . S
C1620 C1621 1.386 . S
C1620 C1622 1.391 . S
C1621 C1620 1.386 . S
C1621 C1625 1.393 . S
C1622 H1614 0.950 . S
C1622 C1620 1.391 . S
C1622 C1623 1.400 . S
C1623 C1622 1.400 . S
C1623 C1624 1.398 . S
C1623 C1629 1.491 . S
C1624 H1615 0.950 . S
C1624 C1623 1.398 . S
C1624 C1625 1.391 . S
C1625 H1613 0.950 . S
C1625 C1621 1.393 . S
C1625 C1624 1.391 . S
C1626 H1616 0.950 . S
C1626 C1627 1.386 . S
C1626 C1628 1.391 . S
C1627 C1626 1.386 . S
C1627 C1631 1.393 . S
C1628 H1617 0.950 . S
C1628 C1626 1.391 . S
C1628 C1629 1.400 . S
C1629 C1623 1.491 . S
C1629 C1628 1.400 . S
C1629 C1630 1.398 . S
C1630 H1618 0.950 . S
C1630 C1629 1.398 . S
C1630 C1631 1.391 . S
C1631 H1619 0.950 . S
C1631 C1627 1.393 . S
C1631 C1630 1.391 . S
H1632 C1640 0.950 . S
H1633 C1645 0.950 . S
H1634 C1642 0.950 . S
H1635 C1644 0.950 . S
H1636 C1646 0.950 . S
H1637 C1648 0.950 . S
H1638 C1650 0.950 . S
H1639 C1651 0.950 . S
C1640 H1632 0.950 . S
C1640 C1641 1.386 . S
C1640 C1642 1.391 . S
C1641 C1640 1.386 . S
C1641 C1645 1.393 . S
C1642 H1634 0.950 . S
C1642 C1640 1.391 . S
C1642 C1643 1.400 . S
C1643 C1642 1.400 . S
C1643 C1644 1.398 . S
C1643 C1649 1.491 . S
C1644 H1635 0.950 . S
C1644 C1643 1.398 . S
C1644 C1645 1.391 . S
C1645 H1633 0.950 . S
C1645 C1641 1.393 . S
C1645 C1644 1.391 . S
C1646 H1636 0.950 . S
C1646 C1647 1.386 . S
C1646 C1648 1.391 . S
C1647 C1646 1.386 . S
C1647 C1651 1.393 . S
C1648 H1637 0.950 . S
C1648 C1646 1.391 . S
C1648 C1649 1.400 . S
C1649 C1643 1.491 . S
C1649 C1648 1.400 . S
C1649 C1650 1.398 . S
C1650 H1638 0.950 . S
C1650 C1649 1.398 . S
C1650 C1651 1.391 . S
C1651 H1639 0.950 . S
C1651 C1647 1.393 . S
C1651 C1650 1.391 . S
H1652 C1660 0.950 . S
H1653 C1665 0.950 . S
H1654 C1662 0.950 . S
H1655 C1664 0.950 . S
H1656 C1666 0.950 . S
H1657 C1668 0.950 . S
H1658 C1670 0.950 . S
H1659 C1671 0.950 . S
C1660 H1652 0.950 . S
C1660 C1661 1.386 . S
C1660 C1662 1.391 . S
C1661 C1660 1.386 . S
C1661 C1665 1.393 . S
C1662 H1654 0.950 . S
C1662 C1660 1.391 . S
C1662 C1663 1.400 . S
C1663 C1662 1.400 . S
C1663 C1664 1.398 . S
C1663 C1669 1.491 . S
C1664 H1655 0.950 . S
C1664 C1663 1.398 . S
C1664 C1665 1.391 . S
C1665 H1653 0.950 . S
C1665 C1661 1.393 . S
C1665 C1664 1.391 . S
C1666 H1656 0.950 . S
C1666 C1667 1.386 . S
C1666 C1668 1.391 . S
C1667 C1666 1.386 . S
C1667 C1671 1.393 . S
C1668 H1657 0.950 . S
C1668 C1666 1.391 . S
C1668 C1669 1.400 . S
C1669 C1663 1.491 . S
C1669 C1668 1.400 . S
C1669 C1670 1.398 . S
C1670 H1658 0.950 . S
C1670 C1669 1.398 . S
C1670 C1671 1.391 . S
C1671 H1659 0.950 . S
C1671 C1667 1.393 . S
C1671 C1670 1.391 . S
H1672 C1680 0.950 . S
H1673 C1685 0.950 . S
H1674 C1682 0.950 . S
H1675 C1684 0.950 . S
H1676 C1686 0.950 . S
H1677 C1688 0.950 . S
H1678 C1690 0.950 . S
H1679 C1691 0.950 . S
C1680 H1672 0.950 . S
C1680 C1681 1.386 . S
C1680 C1682 1.391 . S
C1681 C1680 1.386 . S
C1681 C1685 1.393 . S
C1682 H1674 0.950 . S
C1682 C1680 1.391 . S
C1682 C1683 1.400 . S
C1683 C1682 1.400 . S
C1683 C1684 1.398 . S
C1683 C1689 1.491 . S
C1684 H1675 0.950 . S
C1684 C1683 1.398 . S
C1684 C1685 1.391 . S
C1685 H1673 0.950 . S
C1685 C1681 1.393 . S
C1685 C1684 1.391 . S
C1686 H1676 0.950 . S
C1686 C1687 1.386 . S
C1686 C1688 1.391 . S
C1687 C1686 1.386 . S
C1687 C1691 1.393 . S
C1688 H1677 0.950 . S
C1688 C1686 1.391 . S
C1688 C1689 1.400 . S
C1689 C1683 1.491 . S
C1689 C1688 1.400 . S
C1689 C1690 1.398 . S
C1690 H1678 0.950 . S
C1690 C1689 1.398 . S
C1690 C1691 1.391 . S
C1691 H1679 0.950 . S
C1691 C1687 1.393 . S
C1691 C1690 1.391 . S
H1692 C1700 0.950 . S
H1693 C1705 0.950 . S
H1694 C1702 0.950 . S
H1695 C1704 0.950 . S
H1696 C1706 0.950 . S
H1697 C1708 0.950 . S
H1698 C1710 0.950 . S
H1699 C1711 0.950 . S
C1700 H1692 0.950 . S
C1700 C1701 1.386 . S
C1700 C1702 1.391 . S
C1701 C1700 1.386 . S
C1701 C1705 1.393 . S
C1702 H1694 0.950 . S
C1702 C1700 1.391 . S
C1702 C1703 1.400 . S
C1703 C1702 1.400 . S
C1703 C1704 1.398 . S
C1703 C1709 1.491 . S
C1704 H1695 0.950 . S
C1704 C1703 1.398 . S
C1704 C1705 1.391 . S
C1705 H1693 0.950 . S
C1705 C1701 1.393 . S
C1705 C1704 1.391 . S
C1706 H1696 0.950 . S
C1706 C1707 1.386 . S
C1706 C1708 1.391 . S
C1707 C1706 1.386 . S
C1707 C1711 1.393 . S
C1708 H1697 0.950 . S
C1708 C1706 1.391 . S
C1708 C1709 1.400 . S
C1709 C1703 1.491 . S
C1709 C1708 1.400 . S
C1709 C1710 1.398 . S
C1710 H1698 0.950 . S
C1710 C1709 1.398 . S
C1710 C1711 1.391 . S
C1711 H1699 0.950 . S
C1711 C1707 1.393 . S
C1711 C1710 1.391 . S
H1712 C1720 0.950 . S
H1713 C1725 0.950 . S
H1714 C1722 0.950 . S
H1715 C1724 0.950 . S
H1716 C1726 0.950 . S
H1717 C1728 0.950 . S
H1718 C1730 0.950 . S
H1719 C1731 0.950 . S
C1720 H1712 0.950 . S
C1720 C1721 1.386 . S
C1720 C1722 1.391 . S
C1721 C1720 1.386 . S
C1721 C1725 1.393 . S
C1722 H1714 0.950 . S
C1722 C1720 1.391 . S
C1722 C1723 1.400 . S
C1723 C1722 1.400 . S
C1723 C1724 1.398 . S
C1723 C1729 1.491 . S
C1724 H1715 0.950 . S
C1724 C1723 1.398 . S
C1724 C1725 1.391 . S
C1725 H1713 0.950 . S
C1725 C1721 1.393 . S
C1725 C1724 1.391 . S
C1726 H1716 0.950 . S
C1726 C1727 1.386 . S
C1726 C1728 1.391 . S
C1727 C1726 1.386 . S
C1727 C1731 1.393 . S
C1728 H1717 0.950 . S
C1728 C1726 1.391 . S
C1728 C1729 1.400 . S
C1729 C1723 1.491 . S
C1729 C1728 1.400 . S
C1729 C1730 1.398 . S
C1730 H1718 0.950 . S
C1730 C1729 1.398 . S
C1730 C1731 1.391 . S
C1731 H1719 0.950 . S
C1731 C1727 1.393 . S
C1731 C1730 1.391 . S
H1732 C1740 0.950 . S
H1733 C1745 0.950 . S
H1734 C1742 0.950 . S
H1735 C1744 0.950 . S
H1736 C1746 0.950 . S
H1737 C1748 0.950 . S
H1738 C1750 0.950 . S
H1739 C1751 0.950 . S
C1740 H1732 0.950 . S
C1740 C1741 1.386 . S
C1740 C1742 1.391 . S
C1741 C1740 1.386 . S
C1741 C1745 1.393 . S
C1742 H1734 0.950 . S
C1742 C1740 1.391 . S
C1742 C1743 1.400 . S
C1743 C1742 1.400 . S
C1743 C1744 1.398 . S
C1743 C1749 1.491 . S
C1744 H1735 0.950 . S
C1744 C1743 1.398 . S
C1744 C1745 1.391 . S
C1745 H1733 0.950 . S
C1745 C1741 1.393 . S
C1745 C1744 1.391 . S
C1746 H1736 0.950 . S
C1746 C1747 1.386 . S
C1746 C1748 1.391 . S
C1747 C1746 1.386 . S
C1747 C1751 1.393 . S
C1748 H1737 0.950 . S
C1748 C1746 1.391 . S
C1748 C1749 1.400 . S
C1749 C1743 1.491 . S
C1749 C1748 1.400 . S
C1749 C1750 1.398 . S
C1750 H1738 0.950 . S
C1750 C1749 1.398 . S
C1750 C1751 1.391 . S
C1751 H1739 0.950 . S
C1751 C1747 1.393 . S
C1751 C1750 1.391 . S
H1752 C1760 0.950 . S
H1753 C1765 0.950 . S
H1754 C1762 0.950 . S
H1755 C1764 0.950 . S
H1756 C1766 0.950 . S
H1757 C1768 0.950 . S
H1758 C1770 0.950 . S
H1759 C1771 0.950 . S
C1760 H1752 0.950 . S
C1760 C1761 1.386 . S
C1760 C1762 1.391 . S
C1761 C1760 1.386 . S
C1761 C1765 1.393 . S
C1762 H1754 0.950 . S
C1762 C1760 1.391 . S
C1762 C1763 1.400 . S
C1763 C1762 1.400 . S
C1763 C1764 1.398 . S
C1763 C1769 1.491 . S
C1764 H1755 0.950 . S
C1764 C1763 1.398 . S
C1764 C1765 1.391 . S
C1765 H1753 0.950 . S
C1765 C1761 1.393 . S
C1765 C1764 1.391 . S
C1766 H1756 0.950 . S
C1766 C1767 1.386 . S
C1766 C1768 1.391 . S
C1767 C1766 1.386 . S
C1767 C1771 1.393 . S
C1768 H1757 0.950 . S
C1768 C1766 1.391 . S
C1768 C1769 1.400 . S
C1769 C1763 1.491 . S
C1769 C1768 1.400 . S
C1769 C1770 1.398 . S
C1770 H1758 0.950 . S
C1770 C1769 1.398 . S
C1770 C1771 1.391 . S
C1771 H1759 0.950 . S
C1771 C1767 1.393 . S
C1771 C1770 1.391 . S
H1772 C1780 0.950 . S
H1773 C1785 0.950 . S
H1774 C1782 0.950 . S
H1775 C1784 0.950 . S
H1776 C1786 0.950 . S
H1777 C1788 0.950 . S
H1778 C1790 0.950 . S
H1779 C1791 0.950 . S
C1780 H1772 0.950 . S
C1780 C1781 1.386 . S
C1780 C1782 1.391 . S
C1781 C1780 1.386 . S
C1781 C1785 1.393 . S
C1782 H1774 0.950 . S
C1782 C1780 1.391 . S
C1782 C1783 1.400 . S
C1783 C1782 1.400 . S
C1783 C1784 1.398 . S
C1783 C1789 1.491 . S
C1784 H1775 0.950 . S
C1784 C1783 1.398 . S
C1784 C1785 1.391 . S
C1785 H1773 0.950 . S
C1785 C1781 1.393 . S
C1785 C1784 1.391 . S
C1786 H1776 0.950 . S
C1786 C1787 1.386 . S
C1786 C1788 1.391 . S
C1787 C1786 1.386 . S
C1787 C1791 1.393 . S
C1788 H1777 0.950 . S
C1788 C1786 1.391 . S
C1788 C1789 1.400 . S
C1789 C1783 1.491 . S
C1789 C1788 1.400 . S
C1789 C1790 1.398 . S
C1790 H1778 0.950 . S
C1790 C1789 1.398 . S
C1790 C1791 1.391 . S
C1791 H1779 0.950 . S
C1791 C1787 1.393 . S
C1791 C1790 1.391 . S
H1792 C1800 0.950 . S
H1793 C1805 0.950 . S
H1794 C1802 0.950 . S
H1795 C1804 0.950 . S
H1796 C1806 0.950 . S
H1797 C1808 0.950 . S
H1798 C1810 0.950 . S
H1799 C1811 0.950 . S
C1800 H1792 0.950 . S
C1800 C1801 1.386 . S
C1800 C1802 1.391 . S
C1801 C1800 1.386 . S
C1801 C1805 1.393 . S
C1802 H1794 0.950 . S
C1802 C1800 1.391 . S
C1802 C1803 1.400 . S
C1803 C1802 1.400 . S
C1803 C1804 1.398 . S
C1803 C1809 1.491 . S
C1804 H1795 0.950 . S
C1804 C1803 1.398 . S
C1804 C1805 1.391 . S
C1805 H1793 0.950 . S
C1805 C1801 1.393 . S
C1805 C1804 1.391 . S
C1806 H1796 0.950 . S
C1806 C1807 1.386 . S
C1806 C1808 1.391 . S
C1807 C1806 1.386 . S
C1807 C1811 1.393 . S
C1808 H1797 0.950 . S
C1808 C1806 1.391 . S
C1808 C1809 1.400 . S
C1809 C1803 1.491 . S
C1809 C1808 1.400 . S
C1809 C1810 1.398 . S
C1810 H1798 0.950 . S
C1810 C1809 1.398 . S
C1810 C1811 1.391 . S
C1811 H1799 0.950 . S
C1811 C1807 1.393 . S
C1811 C1810 1.391 . S
H1812 C1820 0.950 . S
H1813 C1825 0.950 . S
H1814 C1822 0.950 . S
H1815 C1824 0.950 . S
H1816 C1826 0.950 . S
H1817 C1828 0.950 . S
H1818 C1830 0.950 . S
H1819 C1831 0.950 . S
C1820 H1812 0.950 . S
C1820 C1821 1.386 . S
C1820 C1822 1.391 . S
C1821 C1820 1.386 . S
C1821 C1825 1.393 . S
C1822 H1814 0.950 . S
C1822 C1820 1.391 . S
C1822 C1823 1.400 . S
C1823 C1822 1.400 . S
C1823 C1824 1.398 . S
C1823 C1829 1.491 . S
C1824 H1815 0.950 . S
C1824 C1823 1.398 . S
C1824 C1825 1.391 . S
C1825 H1813 0.950 . S
C1825 C1821 1.393 . S
C1825 C1824 1.391 . S
C1826 H1816 0.950 . S
C1826 C1827 1.386 . S
C1826 C1828 1.391 . S
C1827 C1826 1.386 . S
C1827 C1831 1.393 . S
C1828 H1817 0.950 . S
C1828 C1826 1.391 . S
C1828 C1829 1.400 . S
C1829 C1823 1.491 . S
C1829 C1828 1.400 . S
C1829 C1830 1.398 . S
C1830 H1818 0.950 . S
C1830 C1829 1.398 . S
C1830 C1831 1.391 . S
C1831 H1819 0.950 . S
C1831 C1827 1.393 . S
C1831 C1830 1.391 . S
H1832 C1840 0.950 . S
H1833 C1845 0.950 . S
H1834 C1842 0.950 . S
H1835 C1844 0.950 . S
H1836 C1846 0.950 . S
H1837 C1848 0.950 . S
H1838 C1850 0.950 . S
H1839 C1851 0.950 . S
C1840 H1832 0.950 . S
C1840 C1841 1.386 . S
C1840 C1842 1.391 . S
C1841 C1840 1.386 . S
C1841 C1845 1.393 . S
C1842 H1834 0.950 . S
C1842 C1840 1.391 . S
C1842 C1843 1.400 . S
C1843 C1842 1.400 . S
C1843 C1844 1.398 . S
C1843 C1849 1.491 . S
C1844 H1835 0.950 . S
C1844 C1843 1.398 . S
C1844 C1845 1.391 . S
C1845 H1833 0.950 . S
C1845 C1841 1.393 . S
C1845 C1844 1.391 . S
C1846 H1836 0.950 . S
C1846 C1847 1.386 . S
C1846 C1848 1.391 . S
C1847 C1846 1.386 . S
C1847 C1851 1.393 . S
C1848 H1837 0.950 . S
C1848 C1846 1.391 . S
C1848 C1849 1.400 . S
C1849 C1843 1.491 . S
C1849 C1848 1.400 . S
C1849 C1850 1.398 . S
C1850 H1838 0.950 . S
C1850 C1849 1.398 . S
C1850 C1851 1.391 . S
C1851 H1839 0.950 . S
C1851 C1847 1.393 . S
C1851 C1850 1.391 . S
H1852 C1860 0.950 . S
H1853 C1865 0.950 . S
H1854 C1862 0.950 . S
H1855 C1864 0.950 . S
H1856 C1866 0.950 . S
H1857 C1868 0.950 . S
H1858 C1870 0.950 . S
H1859 C1871 0.950 . S
C1860 H1852 0.950 . S
C1860 C1861 1.386 . S
C1860 C1862 1.391 . S
C1861 C1860 1.386 . S
C1861 C1865 1.393 . S
C1862 H1854 0.950 . S
C1862 C1860 1.391 . S
C1862 C1863 1.400 . S
C1863 C1862 1.400 . S
C1863 C1864 1.398 . S
C1863 C1869 1.491 . S
C1864 H1855 0.950 . S
C1864 C1863 1.398 . S
C1864 C1865 1.391 . S
C1865 H1853 0.950 . S
C1865 C1861 1.393 . S
C1865 C1864 1.391 . S
C1866 H1856 0.950 . S
C1866 C1867 1.386 . S
C1866 C1868 1.391 . S
C1867 C1866 1.386 . S
C1867 C1871 1.393 . S
C1868 H1857 0.950 . S
C1868 C1866 1.391 . S
C1868 C1869 1.400 . S
C1869 C1863 1.491 . S
C1869 C1868 1.400 . S
C1869 C1870 1.398 . S
C1870 H1858 0.950 . S
C1870 C1869 1.398 . S
C1870 C1871 1.391 . S
C1871 H1859 0.950 . S
C1871 C1867 1.393 . S
C1871 C1870 1.391 . S
H1872 C1880 0.950 . S
H1873 C1885 0.950 . S
H1874 C1882 0.950 . S
H1875 C1884 0.950 . S
H1876 C1886 0.950 . S
H1877 C1888 0.950 . S
H1878 C1890 0.950 . S
H1879 C1891 0.950 . S
C1880 H1872 0.950 . S
C1880 C1881 1.386 . S
C1880 C1882 1.391 . S
C1881 C1880 1.386 . S
C1881 C1885 1.393 . S
C1882 H1874 0.950 . S
C1882 C1880 1.391 . S
C1882 C1883 1.400 . S
C1883 C1882 1.400 . S
C1883 C1884 1.398 . S
C1883 C1889 1.491 . S
C1884 H1875 0.950 . S
C1884 C1883 1.398 . S
C1884 C1885 1.391 . S
C1885 H1873 0.950 . S
C1885 C1881 1.393 . S
C1885 C1884 1.391 . S
C1886 H1876 0.950 . S
C1886 C1887 1.386 . S
C1886 C1888 1.391 . S
C1887 C1886 1.386 . S
C1887 C1891 1.393 . S
C1888 H1877 0.950 . S
C1888 C1886 1.391 . S
C1888 C1889 1.400 . S
C1889 C1883 1.491 . S
C1889 C1888 1.400 . S
C1889 C1890 1.398 . S
C1890 H1878 0.950 . S
C1890 C1889 1.398 . S
C1890 C1891 1.391 . S
C1891 H1879 0.950 . S
C1891 C1887 1.393 . S
C1891 C1890 1.391 . S
H1892 C1900 0.950 . S
H1893 C1905 0.950 . S
H1894 C1902 0.950 . S
H1895 C1904 0.950 . S
H1896 C1906 0.950 . S
H1897 C1908 0.950 . S
H1898 C1910 0.950 . S
H1899 C1911 0.950 . S
C1900 H1892 0.950 . S
C1900 C1901 1.386 . S
C1900 C1902 1.391 . S
C1901 C1900 1.386 . S
C1901 C1905 1.393 . S
C1902 H1894 0.950 . S
C1902 C1900 1.391 . S
C1902 C1903 1.400 . S
C1903 C1902 1.400 . S
C1903 C1904 1.398 . S
C1903 C1909 1.491 . S
C1904 H1895 0.950 . S
C1904 C1903 1.398 . S
C1904 C1905 1.391 . S
C1905 H1893 0.950 . S
C1905 C1901 1.393 . S
C1905 C1904 1.391 . S
C1906 H1896 0.950 . S
C1906 C1907 1.386 . S
C1906 C1908 1.391 . S
C1907 C1906 1.386 . S
C1907 C1911 1.393 . S
C1908 H1897 0.950 . S
C1908 C1906 1.391 . S
C1908 C1909 1.400 . S
C1909 C1903 1.491 . S
C1909 C1908 1.400 . S
C1909 C1910 1.398 . S
C1910 H1898 0.950 . S
C1910 C1909 1.398 . S
C1910 C1911 1.391 . S
C1911 H1899 0.950 . S
C1911 C1907 1.393 . S
C1911 C1910 1.391 . S
H1912 C1920 0.950 . S
H1913 C1925 0.950 . S
H1914 C1922 0.950 . S
H1915 C1924 0.950 . S
H1916 C1926 0.950 . S
H1917 C1928 0.950 . S
H1918 C1930 0.950 . S
H1919 C1931 0.950 . S
C1920 H1912 0.950 . S
C1920 C1921 1.386 . S
C1920 C1922 1.391 . S
C1921 C1920 1.386 . S
C1921 C1925 1.393 . S
C1922 H1914 0.950 . S
C1922 C1920 1.391 . S
C1922 C1923 1.400 . S
C1923 C1922 1.400 . S
C1923 C1924 1.398 . S
C1923 C1929 1.491 . S
C1924 H1915 0.950 . S
C1924 C1923 1.398 . S
C1924 C1925 1.391 . S
C1925 H1913 0.950 . S
C1925 C1921 1.393 . S
C1925 C1924 1.391 . S
C1926 H1916 0.950 . S
C1926 C1927 1.386 . S
C1926 C1928 1.391 . S
C1927 C1926 1.386 . S
C1927 C1931 1.393 . S
C1928 H1917 0.950 . S
C1928 C1926 1.391 . S
C1928 C1929 1.400 . S
C1929 C1923 1.491 . S
C1929 C1928 1.400 . S
C1929 C1930 1.398 . S
C1930 H1918 0.950 . S
C1930 C1929 1.398 . S
C1930 C1931 1.391 . S
C1931 H1919 0.950 . S
C1931 C1927 1.393 . S
C1931 C1930 1.391 . S
H1932 C1940 0.950 . S
H1933 C1945 0.950 . S
H1934 C1942 0.950 . S
H1935 C1944 0.950 . S
H1936 C1946 0.950 . S
H1937 C1948 0.950 . S
H1938 C1950 0.950 . S
H1939 C1951 0.950 . S
C1940 H1932 0.950 . S
C1940 C1941 1.386 . S
C1940 C1942 1.391 . S
C1941 C1940 1.386 . S
C1941 C1945 1.393 . S
C1942 H1934 0.950 . S
C1942 C1940 1.391 . S
C1942 C1943 1.400 . S
C1943 C1942 1.400 . S
C1943 C1944 1.398 . S
C1943 C1949 1.491 . S
C1944 H1935 0.950 . S
C1944 C1943 1.398 . S
C1944 C1945 1.391 . S
C1945 H1933 0.950 . S
C1945 C1941 1.393 . S
C1945 C1944 1.391 . S
C1946 H1936 0.950 . S
C1946 C1947 1.386 . S
C1946 C1948 1.391 . S
C1947 C1946 1.386 . S
C1947 C1951 1.393 . S
C1948 H1937 0.950 . S
C1948 C1946 1.391 . S
C1948 C1949 1.400 . S
C1949 C1943 1.491 . S
C1949 C1948 1.400 . S
C1949 C1950 1.398 . S
C1950 H1938 0.950 . S
C1950 C1949 1.398 . S
C1950 C1951 1.391 . S
C1951 H1939 0.950 . S
C1951 C1947 1.393 . S
C1951 C1950 1.391 . S
H1952 C1960 0.950 . S
H1953 C1965 0.950 . S
H1954 C1962 0.950 . S
H1955 C1964 0.950 . S
H1956 C1966 0.950 . S
H1957 C1968 0.950 . S
H1958 C1970 0.950 . S
H1959 C1971 0.950 . S
C1960 H1952 0.950 . S
C1960 C1961 1.386 . S
C1960 C1962 1.391 . S
C1961 C1960 1.386 . S
C1961 C1965 1.393 . S
C1962 H1954 0.950 . S
C1962 C1960 1.391 . S
C1962 C1963 1.400 . S
C1963 C1962 1.400 . S
C1963 C1964 1.398 . S
C1963 C1969 1.491 . S
C1964 H1955 0.950 . S
C1964 C1963 1.398 . S
C1964 C1965 1.391 . S
C1965 H1953 0.950 . S
C1965 C1961 1.393 . S
C1965 C1964 1.391 . S
C1966 H1956 0.950 . S
C1966 C1967 1.386 . S
C1966 C1968 1.391 . S
C1967 C1966 1.386 . S
C1967 C1971 1.393 . S
C1968 H1957 0.950 . S
C1968 C1966 1.391 . S
C1968 C1969 1.400 . S
C1969 C1963 1.491 . S
C1969 C1968 1.400 . S
C1969 C1970 1.398 . S
C1970 H1958 0.950 . S
C1970 C1969 1.398 . S
C1970 C1971 1.391 . S
C1971 H1959 0.950 . S
C1971 C1967 1.393 . S
C1971 C1970 1.391 . S
H1972 C1980 0.950 . S
H1973 C1985 0.950 . S
H1974 C1982 0.950 . S
H1975 C1984 0.950 . S
H1976 C1986 0.950 . S
H1977 C1988 0.950 . S
H1978 C1990 0.950 . S
H1979 C1991 0.950 . S
C1980 H1972 0.950 . S
C1980 C1981 1.386 . S
C1980 C1982 1.391 . S
C1981 C1980 1.386 . S
C1981 C1985 1.393 . S
C1982 H1974 0.950 . S
C1982 C1980 1.391 . S
C1982 C1983 1.400 . S
C1983 C1982 1.400 . S
C1983 C1984 1.398 . S
C1983 C1989 1.491 . S
C1984 H1975 0.950 . S
C1984 C1983 1.398 . S
C1984 C1985 1.391 . S
C1985 H1973 0.950 . S
C1985 C1981 1.393 . S
C1985 C1984 1.391 . S
C1986 H1976 0.950 . S
C1986 C1987 1.386 . S
C1986 C1988 1.391 . S
C1987 C1986 1.386 . S
C1987 C1991 1.393 . S
C1988 H1977 0.950 . S
C1988 C1986 1.391 . S
C1988 C1989 1.400 . S
C1989 C1983 1.491 . S
C1989 C1988 1.400 . S
C1989 C1990 1.398 . S
C1990 H1978 0.950 . S
C1990 C1989 1.398 . S
C1990 C1991 1.391 . S
C1991 H1979 0.950 . S
C1991 C1987 1.393 . S
C1991 C1990 1.391 . S
H1992 C2000 0.950 . S
H1993 C2005 0.950 . S
H1994 C2002 0.950 . S
H1995 C2004 0.950 . S
H1996 C2006 0.950 . S
H1997 C2008 0.950 . S
H1998 C2010 0.950 . S
H1999 C2011 0.950 . S
C2000 H1992 0.950 . S
C2000 C2001 1.386 . S
C2000 C2002 1.391 . S
C2001 C2000 1.386 . S
C2001 C2005 1.393 . S
C2002 H1994 0.950 . S
C2002 C2000 1.391 . S
C2002 C2003 1.400 . S
C2003 C2002 1.400 . S
C2003 C2004 1.398 . S
C2003 C2009 1.491 . S
C2004 H1995 0.950 . S
C2004 C2003 1.398 . S
C2004 C2005 1.391 . S
C2005 H1993 0.950 . S
C2005 C2001 1.393 . S
C2005 C2004 1.391 . S
C2006 H1996 0.950 . S
C2006 C2007 1.386 . S
C2006 C2008 1.391 . S
C2007 C2006 1.386 . S
C2007 C2011 1.393 . S
C2008 H1997 0.950 . S
C2008 C2006 1.391 . S
C2008 C2009 1.400 . S
C2009 C2003 1.491 . S
C2009 C2008 1.400 . S
C2009 C2010 1.398 . S
C2010 H1998 0.950 . S
C2010 C2009 1.398 . S
C2010 C2011 1.391 . S
C2011 H1999 0.950 . S
C2011 C2007 1.393 . S
C2011 C2010 1.391 . S
H2012 C2020 0.950 . S
H2013 C2025 0.950 . S
H2014 C2022 0.950 . S
H2015 C2024 0.950 . S
H2016 C2026 0.950 . S
H2017 C2028 0.950 . S
H2018 C2030 0.950 . S
H2019 C2031 0.950 . S
C2020 H2012 0.950 . S
C2020 C2021 1.386 . S
C2020 C2022 1.391 . S
C2021 C2020 1.386 . S
C2021 C2025 1.393 . S
C2022 H2014 0.950 . S
C2022 C2020 1.391 . S
C2022 C2023 1.400 . S
C2023 C2022 1.400 . S
C2023 C2024 1.398 . S
C2023 C2029 1.491 . S
C2024 H2015 0.950 . S
C2024 C2023 1.398 . S
C2024 C2025 1.391 . S
C2025 H2013 0.950 . S
C2025 C2021 1.393 . S
C2025 C2024 1.391 . S
C2026 H2016 0.950 . S
C2026 C2027 1.386 . S
C2026 C2028 1.391 1_556 S
C2027 C2026 1.386 . S
C2027 C2031 1.393 1_556 S
C2028 H2017 0.950 . S
C2028 C2026 1.391 1_554 S
C2028 C2029 1.400 . S
C2029 C2023 1.491 . S
C2029 C2028 1.400 . S
C2029 C2030 1.398 . S
C2030 H2018 0.950 . S
C2030 C2029 1.398 . S
C2030 C2031 1.391 . S
C2031 H2019 0.950 . S
C2031 C2027 1.393 1_554 S
C2031 C2030 1.391 . S
H2032 C2040 0.950 . S
H2033 C2045 0.950 . S
H2034 C2042 0.950 . S
H2035 C2044 0.950 . S
H2036 C2046 0.950 . S
H2037 C2048 0.950 . S
H2038 C2050 0.950 . S
H2039 C2051 0.950 . S
C2040 H2032 0.950 . S
C2040 C2041 1.386 . S
C2040 C2042 1.391 . S
C2041 C2040 1.386 . S
C2041 C2045 1.393 . S
C2042 H2034 0.950 . S
C2042 C2040 1.391 . S
C2042 C2043 1.400 . S
C2043 C2042 1.400 . S
C2043 C2044 1.398 . S
C2043 C2049 1.491 . S
C2044 H2035 0.950 . S
C2044 C2043 1.398 . S
C2044 C2045 1.391 . S
C2045 H2033 0.950 . S
C2045 C2041 1.393 . S
C2045 C2044 1.391 . S
C2046 H2036 0.950 . S
C2046 C2047 1.386 . S
C2046 C2048 1.391 . S
C2047 C2046 1.386 . S
C2047 C2051 1.393 . S
C2048 H2037 0.950 . S
C2048 C2046 1.391 . S
C2048 C2049 1.400 . S
C2049 C2043 1.491 . S
C2049 C2048 1.400 . S
C2049 C2050 1.398 . S
C2050 H2038 0.950 . S
C2050 C2049 1.398 . S
C2050 C2051 1.391 . S
C2051 H2039 0.950 . S
C2051 C2047 1.393 . S
C2051 C2050 1.391 . S
H2052 C2060 0.950 . S
H2053 C2065 0.950 . S
H2054 C2062 0.950 . S
H2055 C2064 0.950 . S
H2056 C2066 0.950 . S
H2057 C2068 0.950 . S
H2058 C2070 0.950 . S
H2059 C2071 0.950 . S
C2060 H2052 0.950 . S
C2060 C2061 1.386 . S
C2060 C2062 1.391 1_554 S
C2061 C2060 1.386 . S
C2061 C2065 1.393 1_554 S
C2062 H2054 0.950 . S
C2062 C2060 1.391 1_556 S
C2062 C2063 1.400 . S
C2063 C2062 1.400 . S
C2063 C2064 1.398 . S
C2063 C2069 1.491 . S
C2064 H2055 0.950 . S
C2064 C2063 1.398 . S
C2064 C2065 1.391 . S
C2065 H2053 0.950 . S
C2065 C2061 1.393 1_556 S
C2065 C2064 1.391 . S
C2066 H2056 0.950 . S
C2066 C2067 1.386 . S
C2066 C2068 1.391 . S
C2067 C2066 1.386 . S
C2067 C2071 1.393 . S
C2068 H2057 0.950 . S
C2068 C2066 1.391 . S
C2068 C2069 1.400 . S
C2069 C2063 1.491 . S
C2069 C2068 1.400 . S
C2069 C2070 1.398 . S
C2070 H2058 0.950 . S
C2070 C2069 1.398 . S
C2070 C2071 1.391 . S
C2071 H2059 0.950 . S
C2071 C2067 1.393 . S
C2071 C2070 1.391 . S
H2072 C2080 0.950 . S
H2073 C2085 0.950 . S
H2074 C2082 0.950 . S
H2075 C2084 0.950 . S
H2076 C2086 0.950 . S
H2077 C2088 0.950 . S
H2078 C2090 0.950 . S
H2079 C2091 0.950 . S
C2080 H2072 0.950 . S
C2080 C2081 1.386 . S
C2080 C2082 1.391 . S
C2081 C2080 1.386 . S
C2081 C2085 1.393 . S
C2082 H2074 0.950 . S
C2082 C2080 1.391 . S
C2082 C2083 1.400 . S
C2083 C2082 1.400 . S
C2083 C2084 1.398 . S
C2083 C2089 1.491 . S
C2084 H2075 0.950 . S
C2084 C2083 1.398 . S
C2084 C2085 1.391 . S
C2085 H2073 0.950 . S
C2085 C2081 1.393 . S
C2085 C2084 1.391 . S
C2086 H2076 0.950 . S
C2086 C2087 1.386 . S
C2086 C2088 1.391 . S
C2087 C2086 1.386 . S
C2087 C2091 1.393 . S
C2088 H2077 0.950 . S
C2088 C2086 1.391 . S
C2088 C2089 1.400 . S
C2089 C2083 1.491 . S
C2089 C2088 1.400 . S
C2089 C2090 1.398 . S
C2090 H2078 0.950 . S
C2090 C2089 1.398 . S
C2090 C2091 1.391 . S
C2091 H2079 0.950 . S
C2091 C2087 1.393 . S
C2091 C2090 1.391 . S
H2092 C2100 0.950 . S
H2093 C2105 0.950 . S
H2094 C2102 0.950 . S
H2095 C2104 0.950 . S
H2096 C2106 0.950 . S
H2097 C2108 0.950 . S
H2098 C2110 0.950 . S
H2099 C2111 0.950 . S
C2100 H2092 0.950 . S
C2100 C2101 1.386 . S
C2100 C2102 1.391 . S
C2101 C2100 1.386 . S
C2101 C2105 1.393 . S
C2102 H2094 0.950 . S
C2102 C2100 1.391 . S
C2102 C2103 1.400 . S
C2103 C2102 1.400 . S
C2103 C2104 1.398 . S
C2103 C2109 1.491 . S
C2104 H2095 0.950 . S
C2104 C2103 1.398 . S
C2104 C2105 1.391 . S
C2105 H2093 0.950 . S
C2105 C2101 1.393 . S
C2105 C2104 1.391 . S
C2106 H2096 0.950 . S
C2106 C2107 1.386 . S
C2106 C2108 1.391 1_455 S
C2107 C2106 1.386 . S
C2107 C2111 1.393 1_455 S
C2108 H2097 0.950 . S
C2108 C2106 1.391 1_655 S
C2108 C2109 1.400 . S
C2109 C2103 1.491 . S
C2109 C2108 1.400 . S
C2109 C2110 1.398 . S
C2110 H2098 0.950 . S
C2110 C2109 1.398 . S
C2110 C2111 1.391 . S
C2111 H2099 0.950 . S
C2111 C2107 1.393 1_655 S
C2111 C2110 1.391 . S
H2112 C2120 0.950 . S
H2113 C2125 0.950 . S
H2114 C2122 0.950 . S
H2115 C2124 0.950 . S
H2116 C2126 0.950 . S
H2117 C2128 0.950 . S
H2118 C2130 0.952 . S
H2119 C2131 0.950 . S
C2120 H2112 0.950 . S
C2120 C2121 1.386 . S
C2120 C2122 1.391 . S
C2121 C2120 1.386 . S
C2121 C2125 1.393 . S
C2122 H2114 0.950 . S
C2122 C2120 1.391 . S
C2122 C2123 1.400 . S
C2123 C2122 1.400 . S
C2123 C2124 1.398 . S
C2123 C2129 1.491 . S
C2124 H2115 0.950 . S
C2124 C2123 1.398 . S
C2124 C2125 1.391 . S
C2125 H2113 0.950 . S
C2125 C2121 1.393 . S
C2125 C2124 1.391 . S
C2126 H2116 0.950 . S
C2126 C2127 1.386 1_455 S
C2126 C2128 1.391 . S
C2127 C2126 1.386 1_655 S
C2127 C2131 1.393 . S
C2128 H2117 0.950 . S
C2128 C2126 1.391 . S
C2128 C2129 1.400 . S
C2129 C2123 1.491 . S
C2129 C2128 1.400 . S
C2129 C2130 1.398 . S
C2130 H2118 0.952 . S
C2130 C2129 1.398 . S
C2130 C2131 1.391 1_455 S
C2131 H2119 0.950 . S
C2131 C2127 1.393 . S
C2131 C2130 1.391 1_655 S
H2132 C2140 0.950 . S
H2133 C2145 0.950 . S
H2134 C2142 0.950 . S
H2135 C2144 0.950 . S
H2136 C2146 0.950 . S
H2137 C2148 0.950 . S
H2138 C2150 0.950 . S
H2139 C2151 0.950 . S
C2140 H2132 0.950 . S
C2140 C2141 1.386 . S
C2140 C2142 1.391 . S
C2141 C2140 1.386 . S
C2141 C2145 1.393 . S
C2142 H2134 0.950 . S
C2142 C2140 1.391 . S
C2142 C2143 1.400 . S
C2143 C2142 1.400 . S
C2143 C2144 1.398 . S
C2143 C2149 1.491 . S
C2144 H2135 0.950 . S
C2144 C2143 1.398 . S
C2144 C2145 1.391 . S
C2145 H2133 0.950 . S
C2145 C2141 1.393 . S
C2145 C2144 1.391 . S
C2146 H2136 0.950 . S
C2146 C2147 1.386 . S
C2146 C2148 1.391 . S
C2147 C2146 1.386 . S
C2147 C2151 1.393 . S
C2148 H2137 0.950 . S
C2148 C2146 1.391 . S
C2148 C2149 1.400 . S
C2149 C2143 1.491 . S
C2149 C2148 1.400 . S
C2149 C2150 1.398 . S
C2150 H2138 0.950 . S
C2150 C2149 1.398 . S
C2150 C2151 1.391 . S
C2151 H2139 0.950 . S
C2151 C2147 1.393 . S
C2151 C2150 1.391 . S
H2152 C2160 0.950 . S
H2153 C2165 0.950 . S
H2154 C2162 0.950 . S
H2155 C2164 0.950 . S
H2156 C2166 0.950 . S
H2157 C2168 0.950 . S
H2158 C2170 0.950 . S
H2159 C2171 0.950 . S
C2160 H2152 0.950 . S
C2160 C2161 1.386 . S
C2160 C2162 1.391 . S
C2161 C2160 1.386 . S
C2161 C2165 1.393 . S
C2162 H2154 0.950 . S
C2162 C2160 1.391 . S
C2162 C2163 1.400 . S
C2163 C2162 1.400 . S
C2163 C2164 1.398 . S
C2163 C2169 1.491 . S
C2164 H2155 0.950 . S
C2164 C2163 1.398 . S
C2164 C2165 1.391 . S
C2165 H2153 0.950 . S
C2165 C2161 1.393 . S
C2165 C2164 1.391 . S
C2166 H2156 0.950 . S
C2166 C2167 1.386 . S
C2166 C2168 1.391 . S
C2167 C2166 1.386 . S
C2167 C2171 1.393 . S
C2168 H2157 0.950 . S
C2168 C2166 1.391 . S
C2168 C2169 1.400 . S
C2169 C2163 1.491 . S
C2169 C2168 1.400 . S
C2169 C2170 1.398 . S
C2170 H2158 0.950 . S
C2170 C2169 1.398 . S
C2170 C2171 1.391 . S
C2171 H2159 0.950 . S
C2171 C2167 1.393 . S
C2171 C2170 1.391 . S
H2172 C2180 0.950 . S
H2173 C2185 0.950 . S
H2174 C2182 0.950 . S
H2175 C2184 0.950 . S
H2176 C2186 0.950 . S
H2177 C2188 0.950 . S
H2178 C2190 0.950 . S
H2179 C2191 0.950 . S
C2180 H2172 0.950 . S
C2180 C2181 1.386 1_565 S
C2180 C2182 1.391 . S
C2181 C2180 1.386 1_545 S
C2181 C2185 1.393 . S
C2182 H2174 0.950 . S
C2182 C2180 1.391 . S
C2182 C2183 1.400 . S
C2183 C2182 1.400 . S
C2183 C2184 1.398 1_565 S
C2183 C2189 1.491 . S
C2184 H2175 0.950 . S
C2184 C2183 1.398 1_545 S
C2184 C2185 1.391 . S
C2185 H2173 0.950 . S
C2185 C2181 1.393 . S
C2185 C2184 1.391 . S
C2186 H2176 0.950 . S
C2186 C2187 1.386 . S
C2186 C2188 1.391 . S
C2187 C2186 1.386 . S
C2187 C2191 1.393 . S
C2188 H2177 0.950 . S
C2188 C2186 1.391 . S
C2188 C2189 1.400 . S
C2189 C2183 1.491 . S
C2189 C2188 1.400 . S
C2189 C2190 1.398 . S
C2190 H2178 0.950 . S
C2190 C2189 1.398 . S
C2190 C2191 1.391 . S
C2191 H2179 0.950 . S
C2191 C2187 1.393 . S
C2191 C2190 1.391 . S
H2192 C2200 0.950 . S
H2193 C2205 0.950 . S
H2194 C2202 0.950 . S
H2195 C2204 0.950 . S
H2196 C2206 0.950 . S
H2197 C2208 0.950 . S
H2198 C2210 0.950 . S
H2199 C2211 0.950 . S
C2200 H2192 0.950 . S
C2200 C2201 1.386 . S
C2200 C2202 1.391 . S
C2201 C2200 1.386 . S
C2201 C2205 1.393 . S
C2202 H2194 0.950 . S
C2202 C2200 1.391 . S
C2202 C2203 1.400 . S
C2203 C2202 1.400 . S
C2203 C2204 1.398 . S
C2203 C2209 1.491 . S
C2204 H2195 0.950 . S
C2204 C2203 1.398 . S
C2204 C2205 1.391 . S
C2205 H2193 0.950 . S
C2205 C2201 1.393 . S
C2205 C2204 1.391 . S
C2206 H2196 0.950 . S
C2206 C2207 1.386 1_545 S
C2206 C2208 1.391 . S
C2207 C2206 1.386 1_565 S
C2207 C2211 1.393 . S
C2208 H2197 0.950 . S
C2208 C2206 1.391 . S
C2208 C2209 1.400 . S
C2209 C2203 1.491 . S
C2209 C2208 1.400 . S
C2209 C2210 1.398 . S
C2210 H2198 0.950 . S
C2210 C2209 1.398 . S
C2210 C2211 1.391 1_545 S
C2211 H2199 0.950 . S
C2211 C2207 1.393 . S
C2211 C2210 1.391 1_565 S
H2212 C2220 0.950 . S
H2213 C2225 0.950 . S
H2214 C2222 0.950 . S
H2215 C2224 0.950 . S
H2216 C2226 0.950 . S
H2217 C2228 0.950 . S
H2218 C2230 0.950 . S
H2219 C2231 0.950 . S
C2220 H2212 0.950 . S
C2220 C2221 1.386 . S
C2220 C2222 1.391 . S
C2221 C2220 1.386 . S
C2221 C2225 1.393 . S
C2222 H2214 0.950 . S
C2222 C2220 1.391 . S
C2222 C2223 1.400 . S
C2223 C2222 1.400 . S
C2223 C2224 1.398 . S
C2223 C2229 1.491 . S
C2224 H2215 0.950 . S
C2224 C2223 1.398 . S
C2224 C2225 1.391 . S
C2225 H2213 0.950 . S
C2225 C2221 1.393 . S
C2225 C2224 1.391 . S
C2226 H2216 0.950 . S
C2226 C2227 1.386 . S
C2226 C2228 1.391 . S
C2227 C2226 1.386 . S
C2227 C2231 1.393 . S
C2228 H2217 0.950 . S
C2228 C2226 1.391 . S
C2228 C2229 1.400 . S
C2229 C2223 1.491 . S
C2229 C2228 1.400 . S
C2229 C2230 1.398 . S
C2230 H2218 0.950 . S
C2230 C2229 1.398 . S
C2230 C2231 1.391 . S
C2231 H2219 0.950 . S
C2231 C2227 1.393 . S
C2231 C2230 1.391 . S
H2232 C2240 0.950 . S
H2233 C2245 0.950 . S
H2234 C2242 0.950 . S
H2235 C2244 0.950 . S
H2236 C2246 0.950 . S
H2237 C2248 0.950 . S
H2238 C2250 0.950 . S
H2239 C2251 0.950 . S
C2240 H2232 0.950 . S
C2240 C2241 1.386 . S
C2240 C2242 1.391 . S
C2241 C2240 1.386 . S
C2241 C2245 1.393 . S
C2242 H2234 0.950 . S
C2242 C2240 1.391 . S
C2242 C2243 1.400 . S
C2243 C2242 1.400 . S
C2243 C2244 1.398 . S
C2243 C2249 1.491 . S
C2244 H2235 0.950 . S
C2244 C2243 1.398 . S
C2244 C2245 1.391 . S
C2245 H2233 0.950 . S
C2245 C2241 1.393 . S
C2245 C2244 1.391 . S
C2246 H2236 0.950 . S
C2246 C2247 1.386 . S
C2246 C2248 1.391 . S
C2247 C2246 1.386 . S
C2247 C2251 1.393 . S
C2248 H2237 0.950 . S
C2248 C2246 1.391 . S
C2248 C2249 1.400 . S
C2249 C2243 1.491 . S
C2249 C2248 1.400 . S
C2249 C2250 1.398 . S
C2250 H2238 0.950 . S
C2250 C2249 1.398 . S
C2250 C2251 1.391 . S
C2251 H2239 0.950 . S
C2251 C2247 1.393 . S
C2251 C2250 1.391 . S
H2252 C2260 0.950 . S
H2253 C2265 0.950 . S
H2254 C2262 0.950 . S
H2255 C2264 0.950 . S
H2256 C2266 0.950 . S
H2257 C2268 0.950 . S
H2258 C2270 0.950 . S
H2259 C2271 0.950 . S
C2260 H2252 0.950 . S
C2260 C2261 1.386 . S
C2260 C2262 1.391 . S
C2261 C2260 1.386 . S
C2261 C2265 1.393 . S
C2262 H2254 0.950 . S
C2262 C2260 1.391 . S
C2262 C2263 1.400 . S
C2263 C2262 1.400 . S
C2263 C2264 1.398 . S
C2263 C2269 1.491 . S
C2264 H2255 0.950 . S
C2264 C2263 1.398 . S
C2264 C2265 1.391 . S
C2265 H2253 0.950 . S
C2265 C2261 1.393 . S
C2265 C2264 1.391 . S
C2266 H2256 0.950 . S
C2266 C2267 1.386 1_556 S
C2266 C2268 1.391 . S
C2267 C2266 1.386 1_554 S
C2267 C2271 1.393 . S
C2268 H2257 0.950 . S
C2268 C2266 1.391 . S
C2268 C2269 1.400 . S
C2269 C2263 1.491 . S
C2269 C2268 1.400 . S
C2269 C2270 1.398 . S
C2270 H2258 0.950 . S
C2270 C2269 1.398 . S
C2270 C2271 1.391 1_556 S
C2271 H2259 0.950 . S
C2271 C2267 1.393 . S
C2271 C2270 1.391 1_554 S
H2272 C2280 0.950 . S
H2273 C2285 0.950 1_545 S
H2274 C2282 0.950 . S
H2275 C2284 0.950 . S
H2276 C2286 0.950 . S
H2277 C2288 0.950 . S
H2278 C2290 0.950 . S
H2279 C2291 0.950 . S
C2280 H2272 0.950 . S
C2280 C2281 1.386 . S
C2280 C2282 1.391 . S
C2281 C2280 1.386 . S
C2281 C2285 1.393 . S
C2282 H2274 0.950 . S
C2282 C2280 1.391 . S
C2282 C2283 1.400 . S
C2283 C2282 1.400 . S
C2283 C2284 1.398 . S
C2283 C2289 1.491 . S
C2284 H2275 0.950 . S
C2284 C2283 1.398 . S
C2284 C2285 1.391 . S
C2285 H2273 0.950 1_565 S
C2285 C2281 1.393 . S
C2285 C2284 1.391 . S
C2286 H2276 0.950 . S
C2286 C2287 1.386 . S
C2286 C2288 1.391 . S
C2287 C2286 1.386 . S
C2287 C2291 1.393 . S
C2288 H2277 0.950 . S
C2288 C2286 1.391 . S
C2288 C2289 1.400 . S
C2289 C2283 1.491 . S
C2289 C2288 1.400 . S
C2289 C2290 1.398 . S
C2290 H2278 0.950 . S
C2290 C2289 1.398 . S
C2290 C2291 1.391 . S
C2291 H2279 0.950 . S
C2291 C2287 1.393 . S
C2291 C2290 1.391 . S
H2292 C2300 0.950 . S
H2293 C2305 0.950 . S
H2294 C2302 0.950 . S
H2295 C2304 0.950 . S
H2296 C2306 0.950 . S
H2297 C2308 0.950 . S
H2298 C2310 0.950 . S
H2299 C2311 0.950 . S
C2300 H2292 0.950 . S
C2300 C2301 1.386 . S
C2300 C2302 1.391 . S
C2301 C2300 1.386 . S
C2301 C2305 1.393 . S
C2302 H2294 0.950 . S
C2302 C2300 1.391 . S
C2302 C2303 1.400 . S
C2303 C2302 1.400 . S
C2303 C2304 1.398 . S
C2303 C2309 1.491 . S
C2304 H2295 0.950 . S
C2304 C2303 1.398 . S
C2304 C2305 1.391 . S
C2305 H2293 0.950 . S
C2305 C2301 1.393 . S
C2305 C2304 1.391 . S
C2306 H2296 0.950 . S
C2306 C2307 1.386 . S
C2306 C2308 1.391 1_556 S
C2307 C2306 1.386 . S
C2307 C2311 1.393 1_556 S
C2308 H2297 0.950 . S
C2308 C2306 1.391 1_554 S
C2308 C2309 1.400 . S
C2309 C2303 1.491 . S
C2309 C2308 1.400 . S
C2309 C2310 1.398 . S
C2310 H2298 0.950 . S
C2310 C2309 1.398 . S
C2310 C2311 1.391 . S
C2311 H2299 0.950 . S
C2311 C2307 1.393 1_554 S
C2311 C2310 1.391 . S
H2312 C2320 0.950 . S
H2313 C2325 0.950 . S
H2314 C2322 0.950 . S
H2315 C2324 0.950 . S
H2316 C2326 0.950 . S
H2317 C2328 0.950 . S
H2318 C2330 0.950 . S
H2319 C2331 0.950 . S
C2320 H2312 0.950 . S
C2320 C2321 1.386 . S
C2320 C2322 1.391 . S
C2321 C2320 1.386 . S
C2321 C2325 1.393 . S
C2322 H2314 0.950 . S
C2322 C2320 1.391 . S
C2322 C2323 1.400 . S
C2323 C2322 1.400 . S
C2323 C2324 1.398 . S
C2323 C2329 1.491 . S
C2324 H2315 0.950 . S
C2324 C2323 1.398 . S
C2324 C2325 1.391 . S
C2325 H2313 0.950 . S
C2325 C2321 1.393 . S
C2325 C2324 1.391 . S
C2326 H2316 0.950 . S
C2326 C2327 1.386 . S
C2326 C2328 1.391 . S
C2327 C2326 1.386 . S
C2327 C2331 1.393 . S
C2328 H2317 0.950 . S
C2328 C2326 1.391 . S
C2328 C2329 1.400 . S
C2329 C2323 1.491 . S
C2329 C2328 1.400 . S
C2329 C2330 1.398 . S
C2330 H2318 0.950 . S
C2330 C2329 1.398 . S
C2330 C2331 1.391 . S
C2331 H2319 0.950 . S
C2331 C2327 1.393 . S
C2331 C2330 1.391 . S
H2332 C2340 0.950 . S
H2333 C2345 0.950 . S
H2334 C2342 0.950 . S
H2335 C2344 0.950 . S
H2336 C2346 0.950 . S
H2337 C2348 0.950 . S
H2338 C2350 0.950 . S
H2339 C2351 0.950 . S
C2340 H2332 0.950 . S
C2340 C2341 1.386 . S
C2340 C2342 1.391 . S
C2341 C2340 1.386 . S
C2341 C2345 1.393 1_655 S
C2342 H2334 0.950 . S
C2342 C2340 1.391 . S
C2342 C2343 1.400 1_655 S
C2343 C2342 1.400 1_455 S
C2343 C2344 1.398 . S
C2343 C2349 1.491 . S
C2344 H2335 0.950 . S
C2344 C2343 1.398 . S
C2344 C2345 1.391 . S
C2345 H2333 0.950 . S
C2345 C2341 1.393 1_455 S
C2345 C2344 1.391 . S
C2346 H2336 0.950 . S
C2346 C2347 1.386 . S
C2346 C2348 1.391 . S
C2347 C2346 1.386 . S
C2347 C2351 1.393 . S
C2348 H2337 0.950 . S
C2348 C2346 1.391 . S
C2348 C2349 1.400 . S
C2349 C2343 1.491 . S
C2349 C2348 1.400 . S
C2349 C2350 1.398 . S
C2350 H2338 0.950 . S
C2350 C2349 1.398 . S
C2350 C2351 1.391 . S
C2351 H2339 0.950 . S
C2351 C2347 1.393 . S
C2351 C2350 1.391 . S
H2352 C2360 0.950 . S
H2353 C2365 0.950 . S
H2354 C2362 0.950 . S
H2355 C2364 0.950 . S
H2356 C2366 0.950 . S
H2357 C2368 0.950 . S
H2358 C2370 0.950 . S
H2359 C2371 0.950 . S
C2360 H2352 0.950 . S
C2360 C2361 1.386 1_655 S
C2360 C2362 1.391 . S
C2361 C2360 1.386 1_455 S
C2361 C2365 1.393 . S
C2362 H2354 0.950 . S
C2362 C2360 1.391 . S
C2362 C2363 1.400 . S
C2363 C2362 1.400 . S
C2363 C2364 1.398 1_655 S
C2363 C2369 1.491 . S
C2364 H2355 0.950 . S
C2364 C2363 1.398 1_455 S
C2364 C2365 1.391 . S
C2365 H2353 0.950 . S
C2365 C2361 1.393 . S
C2365 C2364 1.391 . S
C2366 H2356 0.950 . S
C2366 C2367 1.386 . S
C2366 C2368 1.391 . S
C2367 C2366 1.386 . S
C2367 C2371 1.393 . S
C2368 H2357 0.950 . S
C2368 C2366 1.391 . S
C2368 C2369 1.400 . S
C2369 C2363 1.491 . S
C2369 C2368 1.400 . S
C2369 C2370 1.398 . S
C2370 H2358 0.950 . S
C2370 C2369 1.398 . S
C2370 C2371 1.391 . S
C2371 H2359 0.950 . S
C2371 C2367 1.393 . S
C2371 C2370 1.391 . S
H2372 C2380 0.950 . S
H2373 C2385 0.950 . S
H2374 C2382 0.950 . S
H2375 C2384 0.950 . S
H2376 C2386 0.950 . S
H2377 C2388 0.950 . S
H2378 C2390 0.950 . S
H2379 C2391 0.950 . S
C2380 H2372 0.950 . S
C2380 C2381 1.386 . S
C2380 C2382 1.391 . S
C2381 C2380 1.386 . S
C2381 C2385 1.393 . S
C2382 H2374 0.950 . S
C2382 C2380 1.391 . S
C2382 C2383 1.400 . S
C2383 C2382 1.400 . S
C2383 C2384 1.398 . S
C2383 C2389 1.491 . S
C2384 H2375 0.950 . S
C2384 C2383 1.398 . S
C2384 C2385 1.391 . S
C2385 H2373 0.950 . S
C2385 C2381 1.393 . S
C2385 C2384 1.391 . S
C2386 H2376 0.950 . S
C2386 C2387 1.386 . S
C2386 C2388 1.391 . S
C2387 C2386 1.386 . S
C2387 C2391 1.393 . S
C2388 H2377 0.950 . S
C2388 C2386 1.391 . S
C2388 C2389 1.400 . S
C2389 C2383 1.491 . S
C2389 C2388 1.400 . S
C2389 C2390 1.398 . S
C2390 H2378 0.950 . S
C2390 C2389 1.398 . S
C2390 C2391 1.391 . S
C2391 H2379 0.950 . S
C2391 C2387 1.393 . S
C2391 C2390 1.391 . S
H2392 C2400 0.950 . S
H2393 C2405 0.950 . S
H2394 C2402 0.950 . S
H2395 C2404 0.950 . S
H2396 C2406 0.950 . S
H2397 C2408 0.950 . S
H2398 C2410 0.950 . S
H2399 C2411 0.950 . S
C2400 H2392 0.950 . S
C2400 C2401 1.386 . S
C2400 C2402 1.391 . S
C2401 C2400 1.386 . S
C2401 C2405 1.393 . S
C2402 H2394 0.950 . S
C2402 C2400 1.391 . S
C2402 C2403 1.400 . S
C2403 C2402 1.400 . S
C2403 C2404 1.398 . S
C2403 C2409 1.491 . S
C2404 H2395 0.950 . S
C2404 C2403 1.398 . S
C2404 C2405 1.391 . S
C2405 H2393 0.950 . S
C2405 C2401 1.393 . S
C2405 C2404 1.391 . S
C2406 H2396 0.950 . S
C2406 C2407 1.386 . S
C2406 C2408 1.391 . S
C2407 C2406 1.386 . S
C2407 C2411 1.393 . S
C2408 H2397 0.950 . S
C2408 C2406 1.391 . S
C2408 C2409 1.400 . S
C2409 C2403 1.491 . S
C2409 C2408 1.400 . S
C2409 C2410 1.398 . S
C2410 H2398 0.950 . S
C2410 C2409 1.398 . S
C2410 C2411 1.391 . S
C2411 H2399 0.950 . S
C2411 C2407 1.393 . S
C2411 C2410 1.391 . S
H2412 C2420 0.950 . S
H2413 C2425 0.933 1_655 S
H2414 C2422 0.950 . S
H2415 C2424 0.950 . S
H2416 C2426 0.950 . S
H2417 C2428 0.946 1_565 S
H2418 C2430 0.950 . S
H2419 C2431 0.950 . S
C2420 H2412 0.950 . S
C2420 C2421 1.386 . S
C2420 C2422 1.391 . S
C2421 C2420 1.386 . S
C2421 C2425 1.393 . S
C2422 H2414 0.950 . S
C2422 C2420 1.391 . S
C2422 C2423 1.400 . S
C2423 C2422 1.400 . S
C2423 C2424 1.398 . S
C2423 C2429 1.491 . S
C2424 H2415 0.950 . S
C2424 C2423 1.398 . S
C2424 C2425 1.391 . S
C2425 H2413 0.933 1_455 S
C2425 C2421 1.393 . S
C2425 C2424 1.391 . S
C2426 H2416 0.950 . S
C2426 C2427 1.386 . S
C2426 C2428 1.386 1_565 S
C2427 C2426 1.386 . S
C2427 C2431 1.393 1_565 S
C2428 H2417 0.946 1_545 S
C2428 C2426 1.386 1_545 S
C2428 C2429 1.410 . S
C2429 C2423 1.491 . S
C2429 C2428 1.410 . S
C2429 C2430 1.398 . S
C2430 H2418 0.950 . S
C2430 C2429 1.398 . S
C2430 C2431 1.391 . S
C2431 H2419 0.950 . S
C2431 C2427 1.393 1_545 S
C2431 C2430 1.391 . S
H2432 C2440 0.950 . S
H2433 C2445 0.950 . S
H2434 C2442 0.950 . S
H2435 C2444 0.950 . S
H2436 C2446 0.950 . S
H2437 C2448 0.950 . S
H2438 C2450 0.950 . S
H2439 C2451 0.950 . S
C2440 H2432 0.950 . S
C2440 C2441 1.386 . S
C2440 C2442 1.391 . S
C2441 C2440 1.386 . S
C2441 C2445 1.393 . S
C2442 H2434 0.950 . S
C2442 C2440 1.391 . S
C2442 C2443 1.400 . S
C2443 C2442 1.400 . S
C2443 C2444 1.398 . S
C2443 C2449 1.491 . S
C2444 H2435 0.950 . S
C2444 C2443 1.398 . S
C2444 C2445 1.391 . S
C2445 H2433 0.950 . S
C2445 C2441 1.393 . S
C2445 C2444 1.391 . S
C2446 H2436 0.950 . S
C2446 C2447 1.386 1_565 S
C2446 C2448 1.391 . S
C2447 C2446 1.386 1_545 S
C2447 C2451 1.393 . S
C2448 H2437 0.950 . S
C2448 C2446 1.391 . S
C2448 C2449 1.400 . S
C2449 C2443 1.491 . S
C2449 C2448 1.400 . S
C2449 C2450 1.398 1_565 S
C2450 H2438 0.950 . S
C2450 C2449 1.398 1_545 S
C2450 C2451 1.391 . S
C2451 H2439 0.950 . S
C2451 C2447 1.393 . S
C2451 C2450 1.391 . S
H2452 C2460 0.950 . S
H2453 C2465 0.913 1_455 S
H2454 C2462 0.950 . S
H2455 C2464 0.950 . S
H2456 C2466 0.950 . S
H2457 C2468 0.950 . S
H2458 C2470 0.950 . S
H2459 C2471 0.950 . S
C2460 H2452 0.950 . S
C2460 C2461 1.386 . S
C2460 C2462 1.391 . S
C2461 C2460 1.386 . S
C2461 C2465 1.393 . S
C2462 H2454 0.950 . S
C2462 C2460 1.391 . S
C2462 C2463 1.400 . S
C2463 C2462 1.400 . S
C2463 C2464 1.398 . S
C2463 C2469 1.491 . S
C2464 H2455 0.950 . S
C2464 C2463 1.398 . S
C2464 C2465 1.391 . S
C2465 H2453 0.913 1_655 S
C2465 C2461 1.393 . S
C2465 C2464 1.391 . S
C2466 H2456 0.950 . S
C2466 C2467 1.386 . S
C2466 C2468 1.391 . S
C2467 C2466 1.386 . S
C2467 C2471 1.393 . S
C2468 H2457 0.950 . S
C2468 C2466 1.391 . S
C2468 C2469 1.400 . S
C2469 C2463 1.491 . S
C2469 C2468 1.400 . S
C2469 C2470 1.398 . S
C2470 H2458 0.950 . S
C2470 C2469 1.398 . S
C2470 C2471 1.391 . S
C2471 H2459 0.950 . S
C2471 C2467 1.393 . S
C2471 C2470 1.391 . S
H2472 C2480 0.950 . S
H2473 C2485 0.950 . S
H2474 C2482 0.950 . S
H2475 C2484 0.950 . S
H2476 C2486 0.950 . S
H2477 C2488 0.950 . S
H2478 C2490 0.950 . S
H2479 C2491 0.950 . S
C2480 H2472 0.950 . S
C2480 C2481 1.386 . S
C2480 C2482 1.391 . S
C2481 C2480 1.386 . S
C2481 C2485 1.393 . S
C2482 H2474 0.950 . S
C2482 C2480 1.391 . S
C2482 C2483 1.400 . S
C2483 C2482 1.400 . S
C2483 C2484 1.398 . S
C2483 C2489 1.491 . S
C2484 H2475 0.950 . S
C2484 C2483 1.398 . S
C2484 C2485 1.391 . S
C2485 H2473 0.950 . S
C2485 C2481 1.393 . S
C2485 C2484 1.391 . S
C2486 H2476 0.950 . S
C2486 C2487 1.386 . S
C2486 C2488 1.391 . S
C2487 C2486 1.386 . S
C2487 C2491 1.393 . S
C2488 H2477 0.950 . S
C2488 C2486 1.391 . S
C2488 C2489 1.400 . S
C2489 C2483 1.491 . S
C2489 C2488 1.400 . S
C2489 C2490 1.398 . S
C2490 H2478 0.950 . S
C2490 C2489 1.398 . S
C2490 C2491 1.391 . S
C2491 H2479 0.950 . S
C2491 C2487 1.393 . S
C2491 C2490 1.391 . S
H2492 C2500 0.950 . S
H2493 C2505 0.950 . S
H2494 C2502 0.935 1_556 S
H2495 C2504 0.950 . S
H2496 C2506 0.950 . S
H2497 C2508 0.950 . S
H2498 C2510 0.950 . S
H2499 C2511 0.950 . S
C2500 H2492 0.950 . S
C2500 C2501 1.386 . S
C2500 C2502 1.391 . S
C2501 C2500 1.386 . S
C2501 C2505 1.393 . S
C2502 H2494 0.935 1_554 S
C2502 C2500 1.391 . S
C2502 C2503 1.400 . S
C2503 C2502 1.400 . S
C2503 C2504 1.398 . S
C2503 C2509 1.491 . S
C2504 H2495 0.950 . S
C2504 C2503 1.398 . S
C2504 C2505 1.391 . S
C2505 H2493 0.950 . S
C2505 C2501 1.393 . S
C2505 C2504 1.391 . S
C2506 H2496 0.950 . S
C2506 C2507 1.386 1_554 S
C2506 C2508 1.391 . S
C2507 C2506 1.386 1_556 S
C2507 C2511 1.393 . S
C2508 H2497 0.950 . S
C2508 C2506 1.391 . S
C2508 C2509 1.400 . S
C2509 C2503 1.491 . S
C2509 C2508 1.400 . S
C2509 C2510 1.398 1_554 S
C2510 H2498 0.950 . S
C2510 C2509 1.398 1_556 S
C2510 C2511 1.391 . S
C2511 H2499 0.950 . S
C2511 C2507 1.393 . S
C2511 C2510 1.391 . S
H2512 C2520 0.950 . S
H2513 C2525 0.950 . S
H2514 C2522 0.950 . S
H2515 C2524 0.950 . S
H2516 C2526 0.950 . S
H2517 C2528 0.950 . S
H2518 C2530 0.950 . S
H2519 C2531 0.950 . S
C2520 H2512 0.950 . S
C2520 C2521 1.386 . S
C2520 C2522 1.391 . S
C2521 C2520 1.386 . S
C2521 C2525 1.393 . S
C2522 H2514 0.950 . S
C2522 C2520 1.391 . S
C2522 C2523 1.400 . S
C2523 C2522 1.400 . S
C2523 C2524 1.398 . S
C2523 C2529 1.491 . S
C2524 H2515 0.950 . S
C2524 C2523 1.398 . S
C2524 C2525 1.391 . S
C2525 H2513 0.950 . S
C2525 C2521 1.393 . S
C2525 C2524 1.391 . S
C2526 H2516 0.950 . S
C2526 C2527 1.386 . S
C2526 C2528 1.391 . S
C2527 C2526 1.386 . S
C2527 C2531 1.393 . S
C2528 H2517 0.950 . S
C2528 C2526 1.391 . S
C2528 C2529 1.400 . S
C2529 C2523 1.491 . S
C2529 C2528 1.400 . S
C2529 C2530 1.398 . S
C2530 H2518 0.950 . S
C2530 C2529 1.398 . S
C2530 C2531 1.391 . S
C2531 H2519 0.950 . S
C2531 C2527 1.393 . S
C2531 C2530 1.391 . S
H2532 C2540 0.950 . S
H2533 C2545 0.950 . S
H2534 C2542 0.950 . S
H2535 C2544 0.911 1_554 S
H2536 C2546 0.950 . S
H2537 C2548 0.950 . S
H2538 C2550 0.950 . S
H2539 C2551 0.950 . S
C2540 H2532 0.950 . S
C2540 C2541 1.386 . S
C2540 C2542 1.391 . S
C2541 C2540 1.386 . S
C2541 C2545 1.393 . S
C2542 H2534 0.950 . S
C2542 C2540 1.391 . S
C2542 C2543 1.400 . S
C2543 C2542 1.400 . S
C2543 C2544 1.398 . S
C2543 C2549 1.491 . S
C2544 H2535 0.911 1_556 S
C2544 C2543 1.398 . S
C2544 C2545 1.391 . S
C2545 H2533 0.950 . S
C2545 C2541 1.393 . S
C2545 C2544 1.391 . S
C2546 H2536 0.950 . S
C2546 C2547 1.386 . S
C2546 C2548 1.391 . S
C2547 C2546 1.386 . S
C2547 C2551 1.393 1_554 S
C2548 H2537 0.950 . S
C2548 C2546 1.391 . S
C2548 C2549 1.400 1_554 S
C2549 C2543 1.491 . S
C2549 C2548 1.400 1_556 S
C2549 C2550 1.398 . S
C2550 H2538 0.950 . S
C2550 C2549 1.398 . S
C2550 C2551 1.391 . S
C2551 H2539 0.950 . S
C2551 C2547 1.393 1_556 S
C2551 C2550 1.391 . S
H2552 C2560 0.950 . S
H2553 C2565 0.950 . S
H2554 C2562 0.950 . S
H2555 C2564 0.950 . S
H2556 C2566 0.950 . S
H2557 C2568 0.950 . S
H2558 C2570 0.950 . S
H2559 C2571 0.950 . S
C2560 H2552 0.950 . S
C2560 C2561 1.386 . S
C2560 C2562 1.391 . S
C2561 C2560 1.386 . S
C2561 C2565 1.393 . S
C2562 H2554 0.950 . S
C2562 C2560 1.391 . S
C2562 C2563 1.400 . S
C2563 C2562 1.400 . S
C2563 C2564 1.398 . S
C2563 C2569 1.491 . S
C2564 H2555 0.950 . S
C2564 C2563 1.398 . S
C2564 C2565 1.391 . S
C2565 H2553 0.950 . S
C2565 C2561 1.393 . S
C2565 C2564 1.391 . S
C2566 H2556 0.950 . S
C2566 C2567 1.386 . S
C2566 C2568 1.391 . S
C2567 C2566 1.386 . S
C2567 C2571 1.393 . S
C2568 H2557 0.950 . S
C2568 C2566 1.391 . S
C2568 C2569 1.400 . S
C2569 C2563 1.491 . S
C2569 C2568 1.400 . S
C2569 C2570 1.398 . S
C2570 H2558 0.950 . S
C2570 C2569 1.398 . S
C2570 C2571 1.391 . S
C2571 H2559 0.950 . S
C2571 C2567 1.393 . S
C2571 C2570 1.391 . S
H2572 C2580 0.950 . S
H2573 C2585 0.950 . S
H2574 C2582 0.950 . S
H2575 C2584 0.950 . S
H2576 C2586 0.950 . S
H2577 C2588 0.950 . S
H2578 C2590 0.950 . S
H2579 C2591 0.950 . S
C2580 H2572 0.950 . S
C2580 C2581 1.386 . S
C2580 C2582 1.391 . S
C2581 C2580 1.386 . S
C2581 C2585 1.393 . S
C2582 H2574 0.950 . S
C2582 C2580 1.391 . S
C2582 C2583 1.400 . S
C2583 C2582 1.400 . S
C2583 C2584 1.398 . S
C2583 C2589 1.491 . S
C2584 H2575 0.950 . S
C2584 C2583 1.398 . S
C2584 C2585 1.391 . S
C2585 H2573 0.950 . S
C2585 C2581 1.393 . S
C2585 C2584 1.391 . S
C2586 H2576 0.950 . S
C2586 C2587 1.386 . S
C2586 C2588 1.391 1_455 S
C2587 C2586 1.386 . S
C2587 C2591 1.393 . S
C2588 H2577 0.950 . S
C2588 C2586 1.391 1_655 S
C2588 C2589 1.400 . S
C2589 C2583 1.491 . S
C2589 C2588 1.400 . S
C2589 C2590 1.398 1_655 S
C2590 H2578 0.950 . S
C2590 C2589 1.398 1_455 S
C2590 C2591 1.391 . S
C2591 H2579 0.950 . S
C2591 C2587 1.393 . S
C2591 C2590 1.391 . S
H2592 C2600 0.950 . S
H2593 C2605 0.950 . S
H2594 C2602 0.950 . S
H2595 C2604 0.949 . S
H2596 C2606 0.950 . S
H2597 C2608 0.950 . S
H2598 C2610 0.950 . S
H2599 C2611 0.950 . S
C2600 H2592 0.950 . S
C2600 C2601 1.386 . S
C2600 C2602 1.391 1_655 S
C2601 C2600 1.386 . S
C2601 C2605 1.393 . S
C2602 H2594 0.950 . S
C2602 C2600 1.391 1_455 S
C2602 C2603 1.400 . S
C2603 C2602 1.400 . S
C2603 C2604 1.376 1_455 S
C2603 C2609 1.491 . S
C2604 H2595 0.949 . S
C2604 C2603 1.376 1_655 S
C2604 C2605 1.415 . S
C2605 H2593 0.950 . S
C2605 C2601 1.393 . S
C2605 C2604 1.415 . S
C2606 H2596 0.950 . S
C2606 C2607 1.386 . S
C2606 C2608 1.391 . S
C2607 C2606 1.386 . S
C2607 C2611 1.393 . S
C2608 H2597 0.950 . S
C2608 C2606 1.391 . S
C2608 C2609 1.400 . S
C2609 C2603 1.491 . S
C2609 C2608 1.400 . S
C2609 C2610 1.398 . S
C2610 H2598 0.950 . S
C2610 C2609 1.398 . S
C2610 C2611 1.391 . S
C2611 H2599 0.950 . S
C2611 C2607 1.393 . S
C2611 C2610 1.391 . S
H2612 C2620 0.950 . S
H2613 C2625 0.950 . S
H2614 C2622 0.950 . S
H2615 C2624 0.950 . S
H2616 C2626 0.950 . S
H2617 C2628 0.950 . S
H2618 C2630 0.950 . S
H2619 C2631 0.950 . S
C2620 H2612 0.950 . S
C2620 C2621 1.386 . S
C2620 C2622 1.391 . S
C2621 C2620 1.386 . S
C2621 C2625 1.393 . S
C2622 H2614 0.950 . S
C2622 C2620 1.391 . S
C2622 C2623 1.400 . S
C2623 C2622 1.400 . S
C2623 C2624 1.398 . S
C2623 C2629 1.491 . S
C2624 H2615 0.950 . S
C2624 C2623 1.398 . S
C2624 C2625 1.391 . S
C2625 H2613 0.950 . S
C2625 C2621 1.393 . S
C2625 C2624 1.391 . S
C2626 H2616 0.950 . S
C2626 C2627 1.386 . S
C2626 C2628 1.391 . S
C2627 C2626 1.386 . S
C2627 C2631 1.393 . S
C2628 H2617 0.950 . S
C2628 C2626 1.391 . S
C2628 C2629 1.400 . S
C2629 C2623 1.491 . S
C2629 C2628 1.400 . S
C2629 C2630 1.398 . S
C2630 H2618 0.950 . S
C2630 C2629 1.398 . S
C2630 C2631 1.391 . S
C2631 H2619 0.950 . S
C2631 C2627 1.393 . S
C2631 C2630 1.391 . S
H2632 C2640 0.950 . S
H2633 C2645 0.950 . S
H2634 C2642 0.950 . S
H2635 C2644 0.950 . S
H2636 C2646 0.950 . S
H2637 C2648 0.950 . S
H2638 C2650 0.950 . S
H2639 C2651 0.950 . S
C2640 H2632 0.950 . S
C2640 C2641 1.386 . S
C2640 C2642 1.391 . S
C2641 C2640 1.386 . S
C2641 C2645 1.393 . S
C2642 H2634 0.950 . S
C2642 C2640 1.391 . S
C2642 C2643 1.400 . S
C2643 C2642 1.400 . S
C2643 C2644 1.398 . S
C2643 C2649 1.491 . S
C2644 H2635 0.950 . S
C2644 C2643 1.398 . S
C2644 C2645 1.391 . S
C2645 H2633 0.950 . S
C2645 C2641 1.393 . S
C2645 C2644 1.391 . S
C2646 H2636 0.950 . S
C2646 C2647 1.386 . S
C2646 C2648 1.391 . S
C2647 C2646 1.386 . S
C2647 C2651 1.393 . S
C2648 H2637 0.950 . S
C2648 C2646 1.391 . S
C2648 C2649 1.400 . S
C2649 C2643 1.491 . S
C2649 C2648 1.400 . S
C2649 C2650 1.398 . S
C2650 H2638 0.950 . S
C2650 C2649 1.398 . S
C2650 C2651 1.391 . S
C2651 H2639 0.950 . S
C2651 C2647 1.393 . S
C2651 C2650 1.391 . S
H2652 C2660 0.950 . S
H2653 C2665 0.950 . S
H2654 C2662 0.950 1_545 S
H2655 C2664 0.950 . S
H2656 C2666 0.950 . S
H2657 C2668 0.950 . S
H2658 C2670 0.950 . S
H2659 C2671 0.950 . S
C2660 H2652 0.950 . S
C2660 C2661 1.386 . S
C2660 C2662 1.391 . S
C2661 C2660 1.386 . S
C2661 C2665 1.393 . S
C2662 H2654 0.950 1_565 S
C2662 C2660 1.391 . S
C2662 C2663 1.400 . S
C2663 C2662 1.400 . S
C2663 C2664 1.398 . S
C2663 C2669 1.491 . S
C2664 H2655 0.950 . S
C2664 C2663 1.398 . S
C2664 C2665 1.391 . S
C2665 H2653 0.950 . S
C2665 C2661 1.393 . S
C2665 C2664 1.391 . S
C2666 H2656 0.950 . S
C2666 C2667 1.386 1_565 S
C2666 C2668 1.391 . S
C2667 C2666 1.386 1_545 S
C2667 C2671 1.393 . S
C2668 H2657 0.950 . S
C2668 C2666 1.391 . S
C2668 C2669 1.400 . S
C2669 C2663 1.491 . S
C2669 C2668 1.400 . S
C2669 C2670 1.398 1_565 S
C2670 H2658 0.950 . S
C2670 C2669 1.398 1_545 S
C2670 C2671 1.391 . S
C2671 H2659 0.950 . S
C2671 C2667 1.393 . S
C2671 C2670 1.391 . S
H2672 C2680 0.950 . S
H2673 C2685 0.950 . S
H2674 C2682 0.950 . S
H2675 C2684 0.950 . S
H2676 C2686 0.950 . S
H2677 C2688 0.950 . S
H2678 C2690 0.950 . S
H2679 C2691 0.950 . S
C2680 H2672 0.950 . S
C2680 C2681 1.386 1_545 S
C2680 C2682 1.391 . S
C2681 C2680 1.386 1_565 S
C2681 C2685 1.393 . S
C2682 H2674 0.950 . S
C2682 C2680 1.391 . S
C2682 C2683 1.400 . S
C2683 C2682 1.400 . S
C2683 C2684 1.398 1_545 S
C2683 C2689 1.491 . S
C2684 H2675 0.950 . S
C2684 C2683 1.398 1_565 S
C2684 C2685 1.391 . S
C2685 H2673 0.950 . S
C2685 C2681 1.393 . S
C2685 C2684 1.391 . S
C2686 H2676 0.950 . S
C2686 C2687 1.386 . S
C2686 C2688 1.391 . S
C2687 C2686 1.386 . S
C2687 C2691 1.393 . S
C2688 H2677 0.950 . S
C2688 C2686 1.391 . S
C2688 C2689 1.400 . S
C2689 C2683 1.491 . S
C2689 C2688 1.400 . S
C2689 C2690 1.398 . S
C2690 H2678 0.950 . S
C2690 C2689 1.398 . S
C2690 C2691 1.391 . S
C2691 H2679 0.950 . S
C2691 C2687 1.393 . S
C2691 C2690 1.391 . S
H2692 C2700 0.950 . S
H2693 C2705 0.950 . S
H2694 C2702 0.950 . S
H2695 C2704 0.950 . S
H2696 C2706 0.950 . S
H2697 C2708 0.950 . S
H2698 C2710 0.950 . S
H2699 C2711 0.950 . S
C2700 H2692 0.950 . S
C2700 C2701 1.386 . S
C2700 C2702 1.391 . S
C2701 C2700 1.386 . S
C2701 C2705 1.393 . S
C2702 H2694 0.950 . S
C2702 C2700 1.391 . S
C2702 C2703 1.400 . S
C2703 C2702 1.400 . S
C2703 C2704 1.398 . S
C2703 C2709 1.491 . S
C2704 H2695 0.950 . S
C2704 C2703 1.398 . S
C2704 C2705 1.391 . S
C2705 H2693 0.950 . S
C2705 C2701 1.393 . S
C2705 C2704 1.391 . S
C2706 H2696 0.950 . S
C2706 C2707 1.386 . S
C2706 C2708 1.391 . S
C2707 C2706 1.386 . S
C2707 C2711 1.393 . S
C2708 H2697 0.950 . S
C2708 C2706 1.391 . S
C2708 C2709 1.400 . S
C2709 C2703 1.491 . S
C2709 C2708 1.400 . S
C2709 C2710 1.398 . S
C2710 H2698 0.950 . S
C2710 C2709 1.398 . S
C2710 C2711 1.391 . S
C2711 H2699 0.950 . S
C2711 C2707 1.393 . S
C2711 C2710 1.391 . S
H2712 C2720 0.950 . S
H2713 C2725 0.950 . S
H2714 C2722 0.950 . S
H2715 C2724 0.950 . S
H2716 C2726 0.950 . S
H2717 C2728 0.950 . S
H2718 C2730 0.950 . S
H2719 C2731 0.950 . S
C2720 H2712 0.950 . S
C2720 C2721 1.386 . S
C2720 C2722 1.391 . S
C2721 C2720 1.386 . S
C2721 C2725 1.393 . S
C2722 H2714 0.950 . S
C2722 C2720 1.391 . S
C2722 C2723 1.400 . S
C2723 C2722 1.400 . S
C2723 C2724 1.398 . S
C2723 C2729 1.491 . S
C2724 H2715 0.950 . S
C2724 C2723 1.398 . S
C2724 C2725 1.391 . S
C2725 H2713 0.950 . S
C2725 C2721 1.393 . S
C2725 C2724 1.391 . S
C2726 H2716 0.950 . S
C2726 C2727 1.386 . S
C2726 C2728 1.391 . S
C2727 C2726 1.386 . S
C2727 C2731 1.393 . S
C2728 H2717 0.950 . S
C2728 C2726 1.391 . S
C2728 C2729 1.400 . S
C2729 C2723 1.491 . S
C2729 C2728 1.400 . S
C2729 C2730 1.398 . S
C2730 H2718 0.950 . S
C2730 C2729 1.398 . S
C2730 C2731 1.391 . S
C2731 H2719 0.950 . S
C2731 C2727 1.393 . S
C2731 C2730 1.391 . S
H2732 C2740 0.950 . S
H2733 C2745 0.950 . S
H2734 C2742 0.950 . S
H2735 C2744 0.950 . S
H2736 C2746 0.950 . S
H2737 C2748 0.950 . S
H2738 C2750 0.950 . S
H2739 C2751 0.950 . S
C2740 H2732 0.950 . S
C2740 C2741 1.386 1_556 S
C2740 C2742 1.391 . S
C2741 C2740 1.386 1_554 S
C2741 C2745 1.393 . S
C2742 H2734 0.950 . S
C2742 C2740 1.391 . S
C2742 C2743 1.400 . S
C2743 C2742 1.400 . S
C2743 C2744 1.398 1_556 S
C2743 C2749 1.491 . S
C2744 H2735 0.950 . S
C2744 C2743 1.398 1_554 S
C2744 C2745 1.391 . S
C2745 H2733 0.950 . S
C2745 C2741 1.393 . S
C2745 C2744 1.391 . S
C2746 H2736 0.950 . S
C2746 C2747 1.386 . S
C2746 C2748 1.391 . S
C2747 C2746 1.386 . S
C2747 C2751 1.393 . S
C2748 H2737 0.950 . S
C2748 C2746 1.391 . S
C2748 C2749 1.400 . S
C2749 C2743 1.491 . S
C2749 C2748 1.400 . S
C2749 C2750 1.398 . S
C2750 H2738 0.950 . S
C2750 C2749 1.398 . S
C2750 C2751 1.391 . S
C2751 H2739 0.950 . S
C2751 C2747 1.393 . S
C2751 C2750 1.391 . S
H2752 C2760 0.950 . S
H2753 C2765 0.950 . S
H2754 C2762 0.950 . S
H2755 C2764 0.950 . S
H2756 C2766 0.950 . S
H2757 C2768 0.950 . S
H2758 C2770 0.950 . S
H2759 C2771 0.950 . S
C2760 H2752 0.950 . S
C2760 C2761 1.386 . S
C2760 C2762 1.391 . S
C2761 C2760 1.386 . S
C2761 C2765 1.393 . S
C2762 H2754 0.950 . S
C2762 C2760 1.391 . S
C2762 C2763 1.400 . S
C2763 C2762 1.400 . S
C2763 C2764 1.398 . S
C2763 C2769 1.491 . S
C2764 H2755 0.950 . S
C2764 C2763 1.398 . S
C2764 C2765 1.391 . S
C2765 H2753 0.950 . S
C2765 C2761 1.393 . S
C2765 C2764 1.391 . S
C2766 H2756 0.950 . S
C2766 C2767 1.386 . S
C2766 C2768 1.391 . S
C2767 C2766 1.386 . S
C2767 C2771 1.393 . S
C2768 H2757 0.950 . S
C2768 C2766 1.391 . S
C2768 C2769 1.400 . S
C2769 C2763 1.491 . S
C2769 C2768 1.400 . S
C2769 C2770 1.398 . S
C2770 H2758 0.950 . S
C2770 C2769 1.398 . S
C2770 C2771 1.391 . S
C2771 H2759 0.950 . S
C2771 C2767 1.393 . S
C2771 C2770 1.391 . S
H2772 C2780 0.950 . S
H2773 C2785 0.950 . S
H2774 C2782 0.950 . S
H2775 C2784 0.950 . S
H2776 C2786 0.950 . S
H2777 C2788 0.950 . S
H2778 C2790 0.950 . S
H2779 C2791 0.950 . S
C2780 H2772 0.950 . S
C2780 C2781 1.386 . S
C2780 C2782 1.391 . S
C2781 C2780 1.386 . S
C2781 C2785 1.393 . S
C2782 H2774 0.950 . S
C2782 C2780 1.391 . S
C2782 C2783 1.400 . S
C2783 C2782 1.400 . S
C2783 C2784 1.398 . S
C2783 C2789 1.491 . S
C2784 H2775 0.950 . S
C2784 C2783 1.398 . S
C2784 C2785 1.391 . S
C2785 H2773 0.950 . S
C2785 C2781 1.393 . S
C2785 C2784 1.391 . S
C2786 H2776 0.950 . S
C2786 C2787 1.386 . S
C2786 C2788 1.391 1_556 S
C2787 C2786 1.386 . S
C2787 C2791 1.393 . S
C2788 H2777 0.950 . S
C2788 C2786 1.391 1_554 S
C2788 C2789 1.400 . S
C2789 C2783 1.491 . S
C2789 C2788 1.400 . S
C2789 C2790 1.398 . S
C2790 H2778 0.950 . S
C2790 C2789 1.398 . S
C2790 C2791 1.391 1_554 S
C2791 H2779 0.950 . S
C2791 C2787 1.393 . S
C2791 C2790 1.391 1_556 S
H2792 C2800 0.950 . S
H2793 C2805 0.950 . S
H2794 C2802 0.950 . S
H2795 C2804 0.950 . S
H2796 C2806 0.950 . S
H2797 C2808 0.950 . S
H2798 C2810 0.950 . S
H2799 C2811 0.950 . S
C2800 H2792 0.950 . S
C2800 C2801 1.386 . S
C2800 C2802 1.391 . S
C2801 C2800 1.386 . S
C2801 C2805 1.393 . S
C2802 H2794 0.950 . S
C2802 C2800 1.391 . S
C2802 C2803 1.400 . S
C2803 C2802 1.400 . S
C2803 C2804 1.398 . S
C2803 C2809 1.491 . S
C2804 H2795 0.950 . S
C2804 C2803 1.398 . S
C2804 C2805 1.391 . S
C2805 H2793 0.950 . S
C2805 C2801 1.393 . S
C2805 C2804 1.391 . S
C2806 H2796 0.950 . S
C2806 C2807 1.386 . S
C2806 C2808 1.391 . S
C2807 C2806 1.386 . S
C2807 C2811 1.393 . S
C2808 H2797 0.950 . S
C2808 C2806 1.391 . S
C2808 C2809 1.400 . S
C2809 C2803 1.491 . S
C2809 C2808 1.400 . S
C2809 C2810 1.398 . S
C2810 H2798 0.950 . S
C2810 C2809 1.398 . S
C2810 C2811 1.391 . S
C2811 H2799 0.950 . S
C2811 C2807 1.393 . S
C2811 C2810 1.391 . S
H2812 C2820 0.950 . S
H2813 C2825 0.950 . S
H2814 C2822 0.950 . S
H2815 C2824 0.954 . S
H2816 C2826 0.950 . S
H2817 C2828 0.950 . S
H2818 C2830 0.950 . S
H2819 C2831 0.950 . S
C2820 H2812 0.950 . S
C2820 C2821 1.386 . S
C2820 C2822 1.391 1_655 S
C2821 C2820 1.386 . S
C2821 C2825 1.393 . S
C2822 H2814 0.950 . S
C2822 C2820 1.391 1_455 S
C2822 C2823 1.400 . S
C2823 C2822 1.400 . S
C2823 C2824 1.414 . S
C2823 C2829 1.491 . S
C2824 H2815 0.954 . S
C2824 C2823 1.414 . S
C2824 C2825 1.372 1_455 S
C2825 H2813 0.950 . S
C2825 C2821 1.393 . S
C2825 C2824 1.372 1_655 S
C2826 H2816 0.950 . S
C2826 C2827 1.386 . S
C2826 C2828 1.391 . S
C2827 C2826 1.386 . S
C2827 C2831 1.393 . S
C2828 H2817 0.950 . S
C2828 C2826 1.391 . S
C2828 C2829 1.400 . S
C2829 C2823 1.491 . S
C2829 C2828 1.400 . S
C2829 C2830 1.398 . S
C2830 H2818 0.950 . S
C2830 C2829 1.398 . S
C2830 C2831 1.391 . S
C2831 H2819 0.950 . S
C2831 C2827 1.393 . S
C2831 C2830 1.391 . S
H2832 C2840 0.950 . S
H2833 C2845 0.950 . S
H2834 C2842 0.950 . S
H2835 C2844 0.950 . S
H2836 C2846 0.950 . S
H2837 C2848 0.950 . S
H2838 C2850 0.950 . S
H2839 C2851 0.950 . S
C2840 H2832 0.950 . S
C2840 C2841 1.386 1_655 S
C2840 C2842 1.391 . S
C2841 C2840 1.386 1_455 S
C2841 C2845 1.393 . S
C2842 H2834 0.950 . S
C2842 C2840 1.391 . S
C2842 C2843 1.400 . S
C2843 C2842 1.400 . S
C2843 C2844 1.398 1_655 S
C2843 C2849 1.491 . S
C2844 H2835 0.950 . S
C2844 C2843 1.398 1_455 S
C2844 C2845 1.391 . S
C2845 H2833 0.950 . S
C2845 C2841 1.393 . S
C2845 C2844 1.391 . S
C2846 H2836 0.950 . S
C2846 C2847 1.386 . S
C2846 C2848 1.391 . S
C2847 C2846 1.386 . S
C2847 C2851 1.393 . S
C2848 H2837 0.950 . S
C2848 C2846 1.391 . S
C2848 C2849 1.400 . S
C2849 C2843 1.491 . S
C2849 C2848 1.400 . S
C2849 C2850 1.398 . S
C2850 H2838 0.950 . S
C2850 C2849 1.398 . S
C2850 C2851 1.391 . S
C2851 H2839 0.950 . S
C2851 C2847 1.393 . S
C2851 C2850 1.391 . S
H2852 C2860 0.950 . S
H2853 C2865 0.950 . S
H2854 C2862 0.950 . S
H2855 C2864 0.950 . S
H2856 C2866 0.950 . S
H2857 C2868 0.950 . S
H2858 C2870 0.950 . S
H2859 C2871 0.950 . S
C2860 H2852 0.950 . S
C2860 C2861 1.386 . S
C2860 C2862 1.391 . S
C2861 C2860 1.386 . S
C2861 C2865 1.393 . S
C2862 H2854 0.950 . S
C2862 C2860 1.391 . S
C2862 C2863 1.400 . S
C2863 C2862 1.400 . S
C2863 C2864 1.398 . S
C2863 C2869 1.491 . S
C2864 H2855 0.950 . S
C2864 C2863 1.398 . S
C2864 C2865 1.391 . S
C2865 H2853 0.950 . S
C2865 C2861 1.393 . S
C2865 C2864 1.391 . S
C2866 H2856 0.950 . S
C2866 C2867 1.386 . S
C2866 C2868 1.391 . S
C2867 C2866 1.386 . S
C2867 C2871 1.393 . S
C2868 H2857 0.950 . S
C2868 C2866 1.391 . S
C2868 C2869 1.400 . S
C2869 C2863 1.491 . S
C2869 C2868 1.400 . S
C2869 C2870 1.398 . S
C2870 H2858 0.950 . S
C2870 C2869 1.398 . S
C2870 C2871 1.391 . S
C2871 H2859 0.950 . S
C2871 C2867 1.393 . S
C2871 C2870 1.391 . S
H2872 C2880 0.950 . S
H2873 C2885 0.950 . S
H2874 C2882 0.950 . S
H2875 C2884 0.950 . S
H2876 C2886 0.950 . S
H2877 C2888 0.950 . S
H2878 C2890 0.950 . S
H2879 C2891 0.950 . S
C2880 H2872 0.950 . S
C2880 C2881 1.386 . S
C2880 C2882 1.391 . S
C2881 C2880 1.386 . S
C2881 C2885 1.393 . S
C2882 H2874 0.950 . S
C2882 C2880 1.391 . S
C2882 C2883 1.400 . S
C2883 C2882 1.400 . S
C2883 C2884 1.398 . S
C2883 C2889 1.491 . S
C2884 H2875 0.950 . S
C2884 C2883 1.398 . S
C2884 C2885 1.391 . S
C2885 H2873 0.950 . S
C2885 C2881 1.393 . S
C2885 C2884 1.391 . S
C2886 H2876 0.950 . S
C2886 C2887 1.386 . S
C2886 C2888 1.391 . S
C2887 C2886 1.386 . S
C2887 C2891 1.393 . S
C2888 H2877 0.950 . S
C2888 C2886 1.391 . S
C2888 C2889 1.400 . S
C2889 C2883 1.491 . S
C2889 C2888 1.400 . S
C2889 C2890 1.398 . S
C2890 H2878 0.950 . S
C2890 C2889 1.398 . S
C2890 C2891 1.391 . S
C2891 H2879 0.950 . S
C2891 C2887 1.393 . S
C2891 C2890 1.391 . S
H2892 C2900 0.950 . S
H2893 C2905 0.950 . S
H2894 C2902 0.950 . S
H2895 C2904 0.950 . S
H2896 C2906 0.950 . S
H2897 C2908 0.950 . S
H2898 C2910 0.950 . S
H2899 C2911 0.950 . S
C2900 H2892 0.950 . S
C2900 C2901 1.386 1_545 S
C2900 C2902 1.391 . S
C2901 C2900 1.386 1_565 S
C2901 C2905 1.393 . S
C2902 H2894 0.950 . S
C2902 C2900 1.391 . S
C2902 C2903 1.400 . S
C2903 C2902 1.400 . S
C2903 C2904 1.398 1_545 S
C2903 C2909 1.491 . S
C2904 H2895 0.950 . S
C2904 C2903 1.398 1_565 S
C2904 C2905 1.391 . S
C2905 H2893 0.950 . S
C2905 C2901 1.393 . S
C2905 C2904 1.391 . S
C2906 H2896 0.950 . S
C2906 C2907 1.386 . S
C2906 C2908 1.391 . S
C2907 C2906 1.386 . S
C2907 C2911 1.393 . S
C2908 H2897 0.950 . S
C2908 C2906 1.391 . S
C2908 C2909 1.400 . S
C2909 C2903 1.491 . S
C2909 C2908 1.400 . S
C2909 C2910 1.398 . S
C2910 H2898 0.950 . S
C2910 C2909 1.398 . S
C2910 C2911 1.391 . S
C2911 H2899 0.950 . S
C2911 C2907 1.393 . S
C2911 C2910 1.391 . S
H2912 C2920 0.950 . S
H2913 C2925 0.950 . S
H2914 C2922 0.950 . S
H2915 C2924 0.950 . S
H2916 C2926 0.950 . S
H2917 C2928 0.950 . S
H2918 C2930 0.950 . S
H2919 C2931 0.950 . S
C2920 H2912 0.950 . S
C2920 C2921 1.386 . S
C2920 C2922 1.391 1_545 S
C2921 C2920 1.386 . S
C2921 C2925 1.393 . S
C2922 H2914 0.950 . S
C2922 C2920 1.391 1_565 S
C2922 C2923 1.400 . S
C2923 C2922 1.400 . S
C2923 C2924 1.398 . S
C2923 C2929 1.491 . S
C2924 H2915 0.950 . S
C2924 C2923 1.398 . S
C2924 C2925 1.391 1_565 S
C2925 H2913 0.950 . S
C2925 C2921 1.393 . S
C2925 C2924 1.391 1_545 S
C2926 H2916 0.950 . S
C2926 C2927 1.386 . S
C2926 C2928 1.391 . S
C2927 C2926 1.386 . S
C2927 C2931 1.393 . S
C2928 H2917 0.950 . S
C2928 C2926 1.391 . S
C2928 C2929 1.400 . S
C2929 C2923 1.491 . S
C2929 C2928 1.400 . S
C2929 C2930 1.398 . S
C2930 H2918 0.950 . S
C2930 C2929 1.398 . S
C2930 C2931 1.391 . S
C2931 H2919 0.950 . S
C2931 C2927 1.393 . S
C2931 C2930 1.391 . S
H2932 C2940 0.950 . S
H2933 C2945 0.950 . S
H2934 C2942 0.950 . S
H2935 C2944 0.950 . S
H2936 C2946 0.950 . S
H2937 C2948 0.950 . S
H2938 C2950 0.950 . S
H2939 C2951 0.950 . S
C2940 H2932 0.950 . S
C2940 C2941 1.386 . S
C2940 C2942 1.391 . S
C2941 C2940 1.386 . S
C2941 C2945 1.393 . S
C2942 H2934 0.950 . S
C2942 C2940 1.391 . S
C2942 C2943 1.400 . S
C2943 C2942 1.400 . S
C2943 C2944 1.398 . S
C2943 C2949 1.491 . S
C2944 H2935 0.950 . S
C2944 C2943 1.398 . S
C2944 C2945 1.391 . S
C2945 H2933 0.950 . S
C2945 C2941 1.393 . S
C2945 C2944 1.391 . S
C2946 H2936 0.950 . S
C2946 C2947 1.386 . S
C2946 C2948 1.391 . S
C2947 C2946 1.386 . S
C2947 C2951 1.393 . S
C2948 H2937 0.950 . S
C2948 C2946 1.391 . S
C2948 C2949 1.400 . S
C2949 C2943 1.491 . S
C2949 C2948 1.400 . S
C2949 C2950 1.398 . S
C2950 H2938 0.950 . S
C2950 C2949 1.398 . S
C2950 C2951 1.391 . S
C2951 H2939 0.950 . S
C2951 C2947 1.393 . S
C2951 C2950 1.391 . S
C1041 N782 0.648 . S
C1047 C13 0.617 . S
C1061 C82 0.700 . S
C1067 N820 0.721 . S
C1081 N696 0.633 . S
C1087 C99 0.629 . S
C1101 C168 0.699 . S
C1107 N734 0.702 . S
C1121 N949 0.706 . S
C1127 C185 0.657 . S
C1141 N906 0.639 . S
C1147 C254 0.618 . S
C1161 N997 0.687 . S
C1167 C271 0.692 . S
C1181 N868 0.697 . S
C1187 C340 0.697 . S
C1201 C383 0.624 . S
C1207 N562 0.668 . S
C1221 N653 0.661 . S
C1227 C400 0.621 . S
C1241 C443 0.647 . S
C1247 N610 0.697 . S
C1261 N519 0.715 . S
C1267 C486 0.702 . S
C1281 N266 0.330 . S
C1287 C549 0.425 . S
C1301 N304 0.340 . S
C1307 C592 0.374 . S
C1321 N180 0.329 . S
C1327 C642 0.392 . S
C1341 C685 0.413 . S
C1347 N218 0.379 . S
C1361 N438 0.394 . S
C1367 C728 0.378 . S
C1381 C764 0.431 . S
C1387 N395 0.341 . S
C1401 N481 0.327 . S
C1407 C814 0.398 . S
C1421 N347 0.330 . S
C1427 C850 0.391 . S
C1441 C900 0.376 . S
C1447 N46 0.339 . S
C1461 N132 0.372 . S
C1467 C936 0.352 . S
C1481 C979 0.352 . S
C1487 N94 0.381 . S
C1501 C1029 0.431 . S
C1507 N8 0.341 . S
C1521 N352 1.987 . S
C1527 C27 1.912 . S
C1541 C75 1.924 . S
C1547 N476 1.986 . S
C1561 C113 1.913 . S
C1567 N390 1.969 . S
C1581 C161 1.921 . S
C1587 N433 1.988 . S
C1601 C199 1.908 . S
C1607 N3 1.965 . S
C1621 C247 1.892 . S
C1627 N51 1.962 . S
C1641 N89 1.974 . S
C1647 C285 1.895 . S
C1661 C333 1.920 . S
C1667 N137 1.988 . S
C1681 N175 1.978 . S
C1687 C376 1.899 . S
C1701 C414 1.920 . S
C1707 N261 1.976 . S
C1721 N309 1.981 . S
C1727 C457 1.923 . S
C1741 N223 1.981 . S
C1747 C500 1.922 . S
C1761 N863 2.046 . S
C1767 C529 1.793 . S
C1781 C572 1.793 . S
C1787 N992 2.039 . S
C1801 N911 2.043 . S
C1807 C641 1.788 . S
C1821 C684 1.809 . S
C1827 N954 2.045 . S
C1841 N524 2.038 . S
C1847 C727 1.789 . S
C1861 N567 2.045 . S
C1867 C744 1.810 . S
C1881 C813 1.821 . S
C1887 N605 2.053 . S
C1901 N648 2.038 . S
C1907 C830 1.785 . S
C1921 N691 2.039 . S
C1927 C899 1.795 . S
C1941 C916 1.820 . S
C1947 N777 2.052 . S
C1961 C959 1.787 . S
C1967 N825 2.043 . S
C1981 C1028 1.788 . S
C1987 N739 2.038 . S
C2001 C33 1.929 . S
C2007 C513 1.858 . S
C2021 C377 1.858 . S
C2027 C83 1.928 . S
C2041 C119 1.929 . S
C2047 C470 1.846 1_545 S
C2061 C169 1.929 . S
C2067 C427 1.864 1_565 S
C2081 C126 1.861 . S
C2087 C205 1.929 . S
C2101 C162 1.844 1_556 S
C2107 C255 1.931 . S
C2121 C40 1.864 . S
C2127 C291 1.929 . S
C2141 C341 1.931 . S
C2147 C76 1.847 1_554 S
C2161 C334 1.865 . S
C2167 C384 1.930 . S
C2181 C420 1.929 . S
C2187 C248 1.843 1_655 S
C2201 C212 1.848 . S
C2207 C463 1.931 . S
C2221 C506 1.932 . S
C2227 C298 1.856 1_455 S
C2241 C1002 1.701 . S
C2247 C556 1.890 . S
C2261 C873 1.685 . S
C2267 C599 1.894 . S
C2281 C985 1.701 1_565 S
C2287 C635 1.895 . S
C2301 C942 1.720 1_545 S
C2307 C678 1.889 . S
C2321 C721 1.895 . S
C2327 C615 1.685 . S
C2341 C771 1.893 . S
C2347 C658 1.686 1_554 S
C2361 C807 1.892 . S
C2367 C555 1.711 . S
C2381 C857 1.895 . S
C2387 C598 1.696 1_556 S
C2401 C856 1.692 . S
C2407 C893 1.895 . S
C2421 C770 1.698 1_455 S
C2427 C943 1.894 . S
C2441 C701 1.705 . S
C2447 C986 1.889 . S
C2461 C787 1.706 1_655 S
C2467 C1022 1.894 . S
C2481 C973 2.416 . S
C2487 C39 2.133 . S
C2501 C930 2.427 . S
C2507 C56 2.112 . S
C2521 C125 2.139 . S
C2527 C1021 2.424 . S
C2541 C892 2.418 . S
C2547 C142 2.144 . S
C2561 C211 2.144 . S
C2567 C586 2.419 . S
C2581 C543 2.432 . S
C2587 C228 2.122 . S
C2601 C297 2.137 . S
C2607 C677 2.416 . S
C2621 C314 2.127 . S
C2627 C634 2.430 . S
C2641 C806 2.416 . S
C2647 C357 2.142 . S
C2661 C720 2.429 . S
C2667 C426 2.112 . S
C2681 C469 2.139 . S
C2687 C758 2.424 . S
C2701 C512 2.133 . S
C2707 C844 2.428 . S
C2721 C548 2.235 . S
C2727 C462 2.365 . S
C2741 C591 2.230 . S
C2747 C419 2.356 . S
C2761 C505 2.362 . S
C2767 C629 2.230 . S
C2781 C371 2.352 . S
C2787 C672 2.239 . S
C2801 C715 2.248 . S
C2807 C70 2.363 . S
C2821 C763 2.236 . S
C2827 C32 2.353 . S
C2841 C801 2.232 . S
C2847 C156 2.354 . S
C2861 C849 2.249 . S
C2867 C118 2.351 . S
C2881 C887 2.233 . S
C2887 C290 2.364 . S
C2901 C935 2.232 . S
C2907 C204 2.356 . S
C2921 C978 2.245 . S
C2927 C242 2.364 . S
C2941 C328 2.350 . S
C2947 C1016 2.244 . S
