# Generated by pormake.
# Topology smc, (6)-cn, num edge types: 1
# Building blocks:
#     Node 0, Type 0, BuildingBlock: NUHQIS_clean_sbu_0, # of connection points: 6
#     Node 1, Type 0, BuildingBlock: NUHQIS_clean_sbu_0, # of connection points: 6
#     Node 2, Type 0, BuildingBlock: NUHQIS_clean_sbu_0, # of connection points: 6
#     Node 3, Type 0, BuildingBlock: NUHQIS_clean_sbu_0, # of connection points: 6
#     Node 4, Type 0, BuildingBlock: NUHQIS_clean_sbu_0, # of connection points: 6
#     Node 5, Type 0, BuildingBlock: NUHQIS_clean_sbu_0, # of connection points: 6
#     Node 6, Type 0, BuildingBlock: NUHQIS_clean_sbu_0, # of connection points: 6
#     Node 7, Type 0, BuildingBlock: NUHQIS_clean_sbu_0, # of connection points: 6
#     Node 8, Type 0, BuildingBlock: NUHQIS_clean_sbu_0, # of connection points: 6
#     Edge 9, Type (0, 0), BuildingBlock: XIVTED_clean_linker_0, # of connection points: 2
#     Edge 10, Type (0, 0), BuildingBlock: XIVTED_clean_linker_0, # of connection points: 2
#     Edge 11, Type (0, 0), BuildingBlock: XIVTED_clean_linker_0, # of connection points: 2
#     Edge 12, Type (0, 0), BuildingBlock: XIVTED_clean_linker_0, # of connection points: 2
#     Edge 13, Type (0, 0), BuildingBlock: XIVTED_clean_linker_0, # of connection points: 2
#     Edge 14, Type (0, 0), BuildingBlock: XIVTED_clean_linker_0, # of connection points: 2
#     Edge 15, Type (0, 0), BuildingBlock: XIVTED_clean_linker_0, # of connection points: 2
#     Edge 16, Type (0, 0), BuildingBlock: XIVTED_clean_linker_0, # of connection points: 2
#     Edge 17, Type (0, 0), BuildingBlock: XIVTED_clean_linker_0, # of connection points: 2
#     Edge 18, Type (0, 0), BuildingBlock: XIVTED_clean_linker_0, # of connection points: 2
#     Edge 19, Type (0, 0), BuildingBlock: XIVTED_clean_linker_0, # of connection points: 2
#     Edge 20, Type (0, 0), BuildingBlock: XIVTED_clean_linker_0, # of connection points: 2
#     Edge 21, Type (0, 0), BuildingBlock: XIVTED_clean_linker_0, # of connection points: 2
#     Edge 22, Type (0, 0), BuildingBlock: XIVTED_clean_linker_0, # of connection points: 2
#     Edge 23, Type (0, 0), BuildingBlock: XIVTED_clean_linker_0, # of connection points: 2
#     Edge 24, Type (0, 0), BuildingBlock: XIVTED_clean_linker_0, # of connection points: 2
#     Edge 25, Type (0, 0), BuildingBlock: XIVTED_clean_linker_0, # of connection points: 2
#     Edge 26, Type (0, 0), BuildingBlock: XIVTED_clean_linker_0, # of connection points: 2
#     Edge 27, Type (0, 0), BuildingBlock: XIVTED_clean_linker_0, # of connection points: 2
#     Edge 28, Type (0, 0), BuildingBlock: XIVTED_clean_linker_0, # of connection points: 2
#     Edge 29, Type (0, 0), BuildingBlock: XIVTED_clean_linker_0, # of connection points: 2
#     Edge 30, Type (0, 0), BuildingBlock: XIVTED_clean_linker_0, # of connection points: 2
#     Edge 31, Type (0, 0), BuildingBlock: XIVTED_clean_linker_0, # of connection points: 2
#     Edge 32, Type (0, 0), BuildingBlock: XIVTED_clean_linker_0, # of connection points: 2
#     Edge 33, Type (0, 0), BuildingBlock: XIVTED_clean_linker_0, # of connection points: 2
#     Edge 34, Type (0, 0), BuildingBlock: XIVTED_clean_linker_0, # of connection points: 2
#     Edge 35, Type (0, 0), BuildingBlock: XIVTED_clean_linker_0, # of connection points: 2
# Relax obj value: 0.324
# Max RMSD: 0.373
# Mean RMSD: 0.323
data_MOF--net-smc--node1-NUHQIS_clean_sbu_0--edge1-XIVTED_clean_linker_0
_symmetry_space_group_name_H-M    P1
_symmetry_Int_Tables_number       1
_symmetry_cell_setting            triclinic
loop_
_symmetry_equiv_pos_as_xyz
'x, y, z'
_cell_length_a     42.823178
_cell_length_b     31.778939
_cell_length_c     39.81729
_cell_angle_alpha  91.585616
_cell_angle_beta   90.416458
_cell_angle_gamma 119.04382
loop_
_atom_site_label
_atom_site_type_symbol
_atom_site_fract_x
_atom_site_fract_y
_atom_site_fract_z
_atom_type_partial_charge
Tb0 Tb 0.06558 0.4958 0.02675 0.0
Eu1 Eu 0.08314 0.41245 1.00327 0.0
C2 C 0.10593 0.46067 0.07603 0.0
C3 C 0.13801 0.52491 0.99425 0.0
C4 C 1.01829 0.55755 0.06189 0.0
C5 C 0.98856 0.59896 0.08615 0.0
C6 C 1.01891 0.60028 0.07242 0.0
C7 C 0.98715 0.5133 0.06539 0.0
C8 C 0.95677 0.51188 0.07921 0.0
C9 C 0.95712 0.55476 0.08968 0.0
C10 C 1.05055 0.55928 0.04831 0.0
O11 O 1.02894 0.45962 0.98255 0.0
O12 O 1.0598 0.42603 0.95697 0.0
O13 O 1.02351 0.37485 1.01127 0.0
O14 O 1.02621 0.43103 0.04989 0.0
C15 C 1.03444 0.43787 0.95617 0.0
O16 O 0.10458 0.38179 0.96658 0.0
O17 O 0.0851 0.34643 1.01353 0.0
O18 O 0.08949 0.41943 0.05931 0.0
O19 O 0.1063 0.49892 0.0634 0.0
O20 O 0.10964 0.53026 0.99305 0.0
O21 O 0.13547 0.48426 1.0043 0.0
C22 C 1.00865 0.38847 0.03485 0.0
O23 O 0.06488 0.53971 0.06667 0.0
O24 O 1.04892 0.5466 1.01672 0.0
C25 C 0.14274 0.36359 0.99674 0.0
C26 C 0.21423 0.43477 1.0043 0.0
C27 C 0.20177 0.40781 0.97388 0.0
C28 C 0.16619 0.37191 0.97021 0.0
C29 C 0.15699 0.38432 0.02879 0.0
C30 C 0.19256 0.4201 0.03248 0.0
C31 C 0.10603 0.35265 0.98825 0.0
H32 H 0.98953 0.63271 0.09332 0.0
H33 H 1.04282 0.63468 0.06993 0.0
H34 H 0.98638 0.47992 0.05748 0.0
H35 H 0.93312 0.47725 0.08181 0.0
H36 H 0.21854 0.4176 0.95207 0.0
H37 H 0.15595 0.35607 0.94539 0.0
H38 H 0.13975 0.37813 0.04998 0.0
H39 H 0.20175 0.43978 0.05638 0.0
Tb40 Tb 0.58554 0.6258 0.9904 0.0
Eu41 Eu 0.65519 0.6669 0.03286 0.0
C42 C 0.66072 0.66909 0.95423 0.0
C43 C 0.60816 0.54766 1.01207 0.0
C44 C 0.50318 0.61879 0.96043 0.0
C45 C 0.44714 0.61392 0.94393 0.0
C46 C 0.47323 0.60028 0.93892 0.0
C47 C 0.50839 0.65401 0.98524 0.0
C48 C 0.4824 0.66782 0.99022 0.0
C49 C 0.45071 0.64613 0.97066 0.0
C50 C 0.52762 0.59902 0.9589 0.0
O51 O 0.5779 0.64402 0.0438 0.0
O52 O 0.61142 0.61483 0.06352 0.0
O53 O 0.63701 0.72664 0.03692 0.0
O54 O 0.60141 0.70256 0.98997 0.0
C55 C 0.58855 0.62915 0.06992 0.0
O56 O 0.68336 0.69758 0.08082 0.0
O57 O 0.71156 0.68889 0.03835 0.0
O58 O 0.67378 0.69549 0.98171 0.0
O59 O 0.62768 0.63249 0.9544 0.0
O60 O 0.58286 0.55634 1.0009 0.0
O61 O 0.63956 0.58503 0.02234 0.0
C62 C 0.61687 0.73441 1.01478 0.0
O63 O 0.55873 0.62723 0.94649 0.0
O64 O 0.5303 0.57969 0.98652 0.0
C65 C 0.72885 0.6777 0.09148 0.0
C66 C 0.76509 0.6326 0.11916 0.0
C67 C 0.78245 0.68296 0.1163 0.0
C68 C 0.76444 0.70527 0.10248 0.0
C69 C 0.71055 0.628 0.09654 0.0
C70 C 0.72853 0.60559 0.11039 0.0
C71 C 0.71291 0.6996 0.07041 0.0
H72 H 0.42284 0.59597 0.92867 0.0
H73 H 0.46903 0.57328 0.91956 0.0
H74 H 0.53155 0.66876 1.00202 0.0
H75 H 0.48596 0.69285 1.01083 0.0
H76 H 0.81068 0.70481 0.12235 0.0
H77 H 0.77894 0.74364 0.09849 0.0
H78 H 0.68299 0.60621 0.08805 0.0
H79 H 0.71433 0.56686 0.11265 0.0
Tb80 Tb 0.5707 0.11606 0.05156 0.0
Eu81 Eu 0.49507 1.05777 1.01624 0.0
C82 C 0.5006 0.0598 0.09493 0.0
C83 C 0.54188 1.00261 0.03234 0.0
C84 C 0.67051 0.1907 0.07134 0.0
C85 C 0.73092 0.23084 0.09473 0.0
C86 C 0.69411 0.20404 0.09904 0.0
C87 C 0.684 0.2074 0.0395 0.0
C88 C 0.72089 0.23415 0.03513 0.0
C89 C 0.74479 0.24464 0.06252 0.0
C90 C 0.63359 0.15213 0.07522 0.0
O91 O 0.57363 0.13737 0.99773 0.0
O92 O 0.53267 0.06518 0.97641 0.0
O93 O 0.51115 0.14236 1.01692 0.0
O94 O 0.5656 0.17979 0.04495 0.0
C95 C 0.55762 0.10849 0.97126 0.0
O96 O 0.45778 1.02158 0.97381 0.0
O97 O 0.43739 1.0272 0.02215 0.0
O98 O 0.4876 1.03115 0.06851 0.0
O99 O 0.53155 0.09981 0.0928 0.0
O100 O 0.56211 1.04137 0.0512 0.0
O101 O 0.51468 1.00084 1.01494 0.0
C102 C 0.5397 0.18305 0.02953 0.0
O103 O 0.60997 0.16289 0.08729 0.0
O104 O 0.62057 0.11994 0.05062 0.0
C105 C 0.4027 0.95537 0.98964 0.0
C106 C 0.35035 0.85604 0.98655 0.0
C107 C 0.34102 0.89214 0.98048 0.0
C108 C 0.36685 0.94106 0.98198 0.0
C109 C 0.4123 0.91977 0.99593 0.0
C110 C 0.38645 0.87069 0.99438 0.0
C111 C 0.42943 1.00739 0.99198 0.0
H112 H 0.74852 0.23796 0.11633 0.0
H113 H 0.68421 0.19103 0.12372 0.0
H114 H 0.66618 0.19739 1.01773 0.0
H115 H 0.73074 0.24505 1.01012 0.0
H116 H 0.31354 0.88273 0.97507 0.0
H117 H 0.35871 0.96782 0.97739 0.0
H118 H 0.43979 0.92992 1.00209 0.0
H119 H 0.39489 0.84425 0.99894 0.0
Tb120 Tb 0.69315 0.83417 0.37117 0.0
Eu121 Eu 0.7534 0.79179 0.34955 0.0
C122 C 0.73896 0.81179 0.42697 0.0
C123 C 0.76978 0.89774 0.35195 0.0
C124 C 0.61776 0.87255 0.37312 0.0
C125 C 0.55595 0.85209 0.38699 0.0
C126 C 0.58594 0.84478 0.39051 0.0
C127 C 0.61811 0.90763 0.35186 0.0
C128 C 0.58823 0.91508 0.34843 0.0
C129 C 0.55652 0.88794 0.36622 0.0
C130 C 0.65198 0.87085 0.38088 0.0
O131 O 0.68326 0.80714 0.31704 0.0
O132 O 0.72053 0.77467 0.30228 0.0
O133 O 0.69739 0.72362 0.35667 0.0
O134 O 0.66324 0.75805 0.3781 0.0
C135 C 0.69395 0.78351 0.29568 0.0
O136 O 0.79062 0.76595 0.32902 0.0
O137 O 0.81079 0.83065 0.36163 0.0
O138 O 0.7451 0.78538 0.40491 0.0
O139 O 0.72266 0.83697 0.41885 0.0
O140 O 0.74702 0.89309 0.37485 0.0
O141 O 0.76154 0.86194 0.3307 0.0
C142 C 0.6669 0.72081 0.36836 0.0
O143 O 0.65119 0.83599 0.39825 0.0
O144 O 0.67706 0.88523 0.35855 0.0
C145 C 0.85823 0.8124 0.34297 0.0
C146 C 0.93519 0.84264 0.34058 0.0
C147 C 0.91117 0.81828 0.31302 0.0
C148 C 0.87373 0.80316 0.31431 0.0
C149 C 0.88224 0.83681 0.3704 0.0
C150 C 0.91936 0.85082 0.36943 0.0
C151 C 0.81908 0.8029 0.34326 0.0
H152 H 0.53266 0.83052 0.40162 0.0
H153 H 0.58448 0.81815 0.40775 0.0
H154 H 0.64205 0.93055 0.33841 0.0
H155 H 0.59021 0.94255 0.33175 0.0
H156 H 0.92129 0.81057 0.29018 0.0
H157 H 0.85706 0.78547 0.29223 0.0
H158 H 0.87233 0.84575 0.39291 0.0
H159 H 0.93597 0.8696 0.39131 0.0
Tb160 Tb 0.25769 0.89994 0.33024 0.0
Eu161 Eu 0.2949 1.00764 0.34256 0.0
C162 C 0.26808 0.94147 0.40478 0.0
C163 C 0.20793 0.94668 0.3387 0.0
C164 C 0.21163 0.79287 0.27224 0.0
C165 C 0.2267 0.73993 0.24011 0.0
C166 C 0.23388 0.77266 0.26693 0.0
C167 C 0.18507 0.78471 0.24801 0.0
C168 C 0.17806 0.75228 0.22097 0.0
C169 C 0.19673 0.72625 0.21842 0.0
C170 C 0.21416 0.82058 0.30328 0.0
O171 O 0.29326 0.93 0.286 0.0
O172 O 0.31102 1.00997 0.28951 0.0
O173 O 0.3385 0.9825 0.34699 0.0
O174 O 0.30667 0.89996 0.34234 0.0
C175 C 0.31159 0.97373 0.27409 0.0
O176 O 0.30683 0.082 0.3371 0.0
O177 O 0.33558 0.06473 0.37459 0.0
O178 O 0.26807 0.97802 0.39077 0.0
O179 O 0.2673 0.90623 0.38563 0.0
O180 O 0.2152 0.91381 0.34956 0.0
O181 O 0.23548 0.98676 0.32831 0.0
C182 C 0.33727 0.93961 0.3471 0.0
O183 O 0.23692 0.8248 0.32719 0.0
O184 O 0.21378 0.86079 0.29827 0.0
C185 C 0.3231 0.12649 0.38877 0.0
C186 C 0.3125 0.18542 0.43598 0.0
C187 C 0.34715 0.19315 0.42971 0.0
C188 C 0.35239 0.16401 0.40609 0.0
C189 C 0.28839 0.1161 0.39689 0.0
C190 C 0.28311 0.14546 0.42014 0.0
C191 C 0.329 0.09761 0.363 0.0
H192 H 0.24236 0.72156 0.23904 0.0
H193 H 0.25531 0.77956 0.28463 0.0
H194 H 0.16818 0.80113 0.25112 0.0
H195 H 0.15552 0.74375 0.20428 0.0
H196 H 0.37029 0.22303 0.44188 0.0
H197 H 0.37935 0.17153 0.40072 0.0
H198 H 0.26538 0.08636 0.38438 0.0
H199 H 0.25603 0.13853 0.42386 0.0
Tb200 Tb 0.22756 0.4784 0.37748 0.0
Eu201 Eu 0.15601 0.37919 0.34839 0.0
C202 C 0.1532 0.42606 0.42094 0.0
C203 C 0.21493 0.37898 0.39172 0.0
C204 C 0.32885 0.54985 0.39133 0.0
C205 C 0.38067 0.54137 0.40947 0.0
C206 C 0.34467 0.53054 0.41285 0.0
C207 C 0.35055 0.58033 0.36624 0.0
C208 C 0.38652 0.59111 0.3628 0.0
C209 C 0.40255 0.57218 0.38449 0.0
C210 C 0.29105 0.54113 0.39637 0.0
O211 O 0.22686 0.48374 0.32218 0.0
O212 O 0.2 0.40372 0.3111 0.0
O213 O 0.15176 0.44197 0.32997 0.0
O214 O 0.191 0.50552 0.36532 0.0
C215 C 0.21452 0.44743 0.30007 0.0
O216 O 0.13725 0.30705 0.32681 0.0
O217 O 0.10171 0.33806 0.32845 0.0
O218 O 0.13618 0.39536 0.39581 0.0
O219 O 0.18821 0.45841 0.41996 0.0
O220 O 0.23343 0.41481 0.37234 0.0
O221 O 0.18034 0.36005 0.39099 0.0
C222 C 0.16551 0.48672 0.34165 0.0
O223 O 0.26949 0.50486 0.41417 0.0
O224 O 0.2739 0.54547 0.37068 0.0
C225 C 0.07608 0.25442 0.33206 0.0
C226 C 1.01741 0.16806 0.3505 0.0
C227 C 1.02974 0.17364 0.31743 0.0
C228 C 1.0589 0.21659 0.3083 0.0
C229 C 0.06481 0.2487 0.3654 0.0
C230 C 1.03549 0.20569 0.37458 0.0
C231 C 0.10495 0.30002 0.32129 0.0
H232 H 0.39124 0.52522 0.42654 0.0
H233 H 0.32931 0.50727 0.43271 0.0
H234 H 0.33988 0.59667 0.3494 0.0
H235 H 0.40204 0.61552 0.34354 0.0
H236 H 1.01595 0.1456 0.29821 0.0
H237 H 0.06747 0.22073 0.28249 0.0
H238 H 0.07818 0.2778 0.38403 0.0
H239 H 1.02659 0.20212 0.40025 0.0
Tb240 Tb 0.39598 0.13981 0.70242 0.0
Eu241 Eu 0.41951 0.05969 0.69197 0.0
C242 C 0.43425 0.11502 0.76049 0.0
C243 C 0.47279 0.17241 0.67968 0.0
C244 C 0.34551 0.20622 0.72086 0.0
C245 C 0.31811 0.25396 0.73874 0.0
C246 C 0.34833 0.25088 0.72963 0.0
C247 C 0.31202 0.16448 0.72081 0.0
C248 C 0.28163 0.16753 0.72983 0.0
C249 C 0.28449 0.2123 0.73927 0.0
C250 C 0.37815 0.20382 0.71399 0.0
O251 O 0.36625 0.09778 0.65608 0.0
O252 O 0.40494 0.07101 0.64042 0.0
O253 O 0.35865 1.01834 0.69239 0.0
O254 O 0.35333 0.07567 0.724 0.0
C255 C 0.37772 0.07745 0.63335 0.0
O256 O 0.44435 1.02536 0.6628 0.0
O257 O 0.42479 0.99994 0.71209 0.0
O258 O 0.4169 0.07172 0.74704 0.0
O259 O 0.43531 0.15073 0.74351 0.0
O260 O 0.4435 0.17393 0.6726 0.0
O261 O 0.47064 0.13387 0.6936 0.0
C262 C 0.33937 1.0317 0.71092 0.0
O263 O 0.38802 0.18427 0.73708 0.0
O264 O 0.38101 0.18901 0.68393 0.0
C265 C 0.48393 1.01874 0.69968 0.0
C266 C 0.55281 0.09707 0.70609 0.0
C267 C 0.54313 0.06553 0.67778 0.0
C268 C 0.50887 1.02602 0.67476 0.0
C269 C 0.49614 1.04455 0.73067 0.0
C270 C 0.53041 0.084 0.73375 0.0
C271 C 0.44682 1.00272 0.68867 0.0
H272 H 0.32106 0.28904 0.74528 0.0
H273 H 0.37405 0.28338 0.72984 0.0
H274 H 0.30953 0.12961 0.71434 0.0
H275 H 0.2561 0.13483 0.73014 0.0
H276 H 0.56063 0.07433 0.65653 0.0
H277 H 0.50033 1.00618 0.65086 0.0
H278 H 0.47781 1.039 0.75077 0.0
H279 H 0.53761 0.10733 0.7561 0.0
Tb280 Tb 0.90891 0.29984 0.6561 0.0
Eu281 Eu 0.97813 0.33665 0.69953 0.0
C282 C 0.98457 0.34188 0.61988 0.0
C283 C 0.92934 0.21825 0.67668 0.0
C284 C 0.82608 0.29543 0.63129 0.0
C285 C 0.76862 0.29007 0.62093 0.0
C286 C 0.79421 0.27665 0.6125 0.0
C287 C 0.83353 0.33077 0.65668 0.0
C288 C 0.80816 0.34458 0.66495 0.0
C289 C 0.77464 0.32239 0.64838 0.0
C290 C 0.85007 0.27523 0.6269 0.0
O291 O 0.90241 0.31775 0.70995 0.0
O292 O 0.93312 0.28407 0.7287 0.0
O293 O 0.96253 0.39925 0.70344 0.0
O294 O 0.92617 0.37704 0.65693 0.0
C295 C 0.91142 0.30014 0.7356 0.0
O296 O 1.00564 0.36087 0.7486 0.0
O297 O 1.03471 0.3601 0.70437 0.0
O298 O 0.99888 0.36345 0.64869 0.0
O299 O 0.95013 0.30938 0.61812 0.0
O300 O 0.90571 0.22902 0.66375 0.0
O301 O 0.96039 0.25414 0.68904 0.0
C302 C 0.9428 0.40855 0.68168 0.0
O303 O 0.8808 0.30387 0.61399 0.0
O304 O 0.85355 0.25413 0.6532 0.0
C305 C 1.05259 0.34208 0.75463 0.0
C306 C 0.09179 0.2958 0.77228 0.0
C307 C 0.1078 0.34639 0.77417 0.0
C308 C 0.08833 0.3693 0.76532 0.0
C309 C 1.03565 0.29166 0.75522 0.0
C310 C 1.05509 0.26866 0.76408 0.0
C311 C 1.03567 0.36587 0.73698 0.0
H312 H 0.74295 0.27171 0.60785 0.0
H313 H 0.78818 0.24943 0.59278 0.0
H314 H 0.85806 0.3455 0.67153 0.0
H315 H 0.81372 0.36979 0.68596 0.0
H316 H 0.13606 0.36845 0.78 0.0
H317 H 0.10187 0.40825 0.76462 0.0
H318 H 1.00804 0.27011 0.74681 0.0
H319 H 1.04186 0.22967 0.76286 0.0
Tb320 Tb 0.8977 0.79681 0.7078 0.0
Eu321 Eu 0.81701 0.7274 0.68344 0.0
C322 C 0.83408 0.74241 0.76017 0.0
C323 C 0.87277 0.68258 0.69327 0.0
C324 C 0.99987 0.85736 0.72319 0.0
C325 C 0.06134 0.90379 0.74409 0.0
C326 C 1.02562 0.89325 0.74472 0.0
C327 C 1.01036 0.8313 0.70128 0.0
C328 C 1.0463 0.84173 0.70071 0.0
C329 C 0.07243 0.87849 0.72196 0.0
C330 C 0.96339 0.85157 0.72254 0.0
O331 O 0.88739 0.81342 0.6552 0.0
O332 O 0.84937 0.73764 0.63848 0.0
O333 O 0.82961 0.81104 0.68252 0.0
O334 O 0.87954 0.84864 0.71672 0.0
C335 C 0.86843 0.78214 0.63061 0.0
O336 O 0.77578 0.6809 0.64628 0.0
O337 O 0.76005 0.69428 0.69505 0.0
O338 O 0.81981 0.70935 0.73643 0.0
O339 O 0.86341 0.78315 0.75355 0.0
O340 O 0.89797 0.72708 0.70124 0.0
O341 O 0.83975 0.67401 0.68605 0.0
C342 C 0.85501 0.85161 0.69874 0.0
O343 O 0.94024 0.82266 0.7436 0.0
O344 O 0.94867 0.84908 0.69327 0.0
C345 C 0.72366 0.61634 0.66894 0.0
C346 C 0.67364 0.51563 0.67028 0.0
C347 C 0.66335 0.54904 0.65916 0.0
C348 C 0.68796 0.59849 0.65848 0.0
C349 C 0.73417 0.58353 0.68056 0.0
C350 C 0.70948 0.53386 0.6813 0.0
C351 C 0.74946 0.66885 0.66686 0.0
H352 H 0.08045 0.93302 0.76034 0.0
H353 H 1.01828 0.91427 0.76151 0.0
H354 H 0.99096 0.80354 0.68429 0.0
H355 H 1.05357 0.82106 0.68355 0.0
H356 H 0.63603 0.53708 0.65111 0.0
H357 H 0.67905 0.62289 0.64956 0.0
H358 H 0.76157 0.59626 0.68877 0.0
H359 H 0.71872 0.50965 0.68981 0.0
H360 H 0.42818 0.64 0.0351 0.0
H361 H 0.23311 0.50549 0.95946 0.0
H362 H 0.39903 0.65286 0.93343 0.0
H363 H 0.2683 0.4727 0.05206 0.0
H364 H 0.28878 0.58182 0.9587 0.0
H365 H 0.36608 0.60659 0.05056 0.0
C366 C 0.40902 0.63783 1.01627 0.0
C367 C 0.41848 0.64727 0.98251 0.0
C368 C 0.28418 0.5582 0.97938 0.0
C369 C 0.34732 0.6075 0.99992 0.0
C370 C 0.25274 0.51435 0.97955 0.0
C371 C 0.24701 0.48195 1.00507 0.0
C372 C 0.31022 0.56943 1.0047 0.0
C373 C 0.27225 0.49619 0.03145 0.0
C374 C 0.3734 0.61816 0.02511 0.0
C375 C 0.3925 0.64416 0.95945 0.0
N376 N 0.30318 0.53856 0.03024 0.0
N377 N 0.35776 0.62302 0.96831 0.0
H378 H 0.59122 0.99132 0.07167 0.0
H379 H 0.57355 0.75336 0.97295 0.0
H380 H 0.51611 0.91868 0.98978 0.0
H381 H 0.63728 0.8114 0.06383 0.0
H382 H 0.55476 0.81459 0.97782 0.0
H383 H 0.6096 0.92912 0.06842 0.0
C384 C 0.57823 0.9623 0.05297 0.0
C385 C 0.55153 0.96133 0.03111 0.0
C386 C 0.57295 0.81442 0.99677 0.0
C387 C 0.57363 0.88814 0.02692 0.0
C388 C 0.58404 0.77902 0.99402 0.0
C389 C 0.60763 0.77601 1.01788 0.0
C390 C 0.58536 0.84894 0.02357 0.0
C391 C 0.61945 0.81142 0.04444 0.0
C392 C 0.589 0.9264 0.05115 0.0
C393 C 0.53648 0.92187 1.00751 0.0
N394 N 0.60843 0.84588 0.04641 0.0
N395 N 0.54772 0.8877 1.00603 0.0
H396 H 0.34426 0.78148 0.02567 0.0
H397 H 0.15003 0.59551 0.95118 0.0
H398 H 0.29232 0.81016 0.94303 0.0
H399 H 0.20518 0.55314 0.02217 0.0
H400 H 0.20392 0.67277 0.94638 0.0
H401 H 0.29622 0.69738 0.02366 0.0
C402 C 0.32305 0.77023 1.00688 0.0
C403 C 0.32239 0.80369 0.98476 0.0
C404 C 0.20461 0.64661 0.96277 0.0
C405 C 0.26686 0.70705 0.98266 0.0
C406 C 0.17375 0.60225 0.96545 0.0
C407 C 0.17294 0.56773 0.98719 0.0
C408 C 0.23516 0.65746 0.98242 0.0
C409 C 0.20462 0.57861 1.005 0.0
C410 C 0.2955 0.72209 1.00588 0.0
C411 C 0.29382 0.7865 0.96123 0.0
N412 N 0.23431 0.62281 1.00261 0.0
N413 N 0.26731 0.73983 0.961 0.0
H414 H 0.50026 0.22228 0.9954 0.0
H415 H 0.64697 0.50522 0.04054 0.0
H416 H 0.59645 0.26797 0.05496 0.0
H417 H 0.54758 0.46426 0.98801 0.0
H418 H 0.62936 0.41895 0.04403 0.0
H419 H 0.5165 0.30841 0.99068 0.0
C420 C 0.52459 0.24971 1.00767 0.0
C421 C 0.54649 0.23576 0.02584 0.0
C422 C 0.61129 0.42862 0.0316 0.0
C423 C 0.56603 0.33712 0.02008 0.0
C424 C 0.62155 0.47858 0.02949 0.0
C425 C 0.59917 0.49388 1.01381 0.0
C426 C 0.57812 0.39196 1.01789 0.0
C427 C 0.56628 0.45573 1.00039 0.0
C428 C 0.53405 0.29954 1.00487 0.0
C429 C 0.57801 0.27501 0.04065 0.0
N430 N 0.55704 0.40771 1.00267 0.0
N431 N 0.58651 0.32245 0.03742 0.0
H432 H 0.77854 0.22396 1.01161 0.0
H433 H 0.9741 0.39705 0.08943 0.0
H434 H 0.80001 0.31268 0.10205 0.0
H435 H 0.95554 0.31616 0.99563 0.0
H436 H 0.90994 0.36125 0.09617 0.0
H437 H 0.84271 0.25443 1.00597 0.0
C438 C 0.79675 0.25033 0.03006 0.0
C439 C 0.78381 0.26589 0.05733 0.0
C440 C 0.91976 0.35084 0.07425 0.0
C441 C 0.85728 0.3 0.0514 0.0
C442 C 0.95647 0.37108 0.07046 0.0
C443 C 0.97022 0.35967 0.04184 0.0
C444 C 0.8964 0.3189 0.04921 0.0
C445 C 0.94607 0.32573 1.01817 0.0
C446 C 0.83337 0.26729 0.027 0.0
C447 C 0.80869 0.2993 0.08082 0.0
N448 N 0.91025 0.30681 0.02223 0.0
N449 N 0.84415 0.31516 0.07732 0.0
H450 H 0.88794 0.49839 0.06708 0.0
H451 H 0.82052 0.65933 0.16499 0.0
H452 H 0.95165 0.60941 0.14155 0.0
H453 H 0.75917 0.55128 0.08797 0.0
H454 H 0.86367 0.6298 0.16571 0.0
H455 H 0.83586 0.50533 0.08343 0.0
C456 C 0.89088 0.52364 0.08731 0.0
C457 C 0.92441 0.554 0.10254 0.0
C458 C 0.84038 0.61196 0.14913 0.0
C459 C 0.86491 0.56277 0.12097 0.0
C460 C 0.81577 0.62885 0.14868 0.0
C461 C 0.78651 0.60835 0.12597 0.0
C462 C 0.83579 0.57454 0.12653 0.0
C463 C 0.78128 0.56829 0.10592 0.0
C464 C 0.86112 0.52777 0.09653 0.0
C465 C 0.92654 0.58621 0.12848 0.0
N466 N 0.80601 0.55326 0.10626 0.0
N467 N 0.89731 0.59022 0.13657 0.0
H468 H 0.98351 0.88089 0.28754 0.0
H469 H 0.15507 0.88999 0.38218 0.0
H470 H 0.98229 0.8444 0.39099 0.0
H471 H 0.16871 0.97732 0.29706 0.0
H472 H 0.09142 0.86694 0.38253 0.0
H473 H 1.04839 0.90889 0.287 0.0
C474 C 0.99648 0.87829 0.31021 0.0
C475 C 0.97606 0.85972 0.33941 0.0
C476 C 0.10811 0.89135 0.36377 0.0
C477 C 1.05241 0.89218 0.33875 0.0
C478 C 0.14499 0.90484 0.36353 0.0
C479 C 0.16862 0.93657 0.33981 0.0
C480 C 0.09303 0.90812 0.33947 0.0
C481 C 0.15254 0.95352 0.31632 0.0
C482 C 1.03404 0.89481 0.30989 0.0
C483 C 0.99587 0.85842 0.36777 0.0
N484 N 0.11626 0.93886 0.31655 0.0
N485 N 1.03205 0.87366 0.36657 0.0
H486 H 0.28642 0.41802 0.40439 0.0
H487 H 0.25751 0.17494 0.47685 0.0
H488 H 0.18444 0.29918 0.42999 0.0
H489 H 0.35465 0.28317 0.4335 0.0
H490 H 0.23699 0.23425 0.48259 0.0
H491 H 0.31632 0.38266 0.43604 0.0
C492 C 0.27031 0.38459 0.41686 0.0
C493 C 0.23295 0.36044 0.41356 0.0
C494 C 0.26329 0.24532 0.47283 0.0
C495 C 0.26694 0.31995 0.44983 0.0
C496 C 0.27502 0.21148 0.46948 0.0
C497 C 0.30698 0.22334 0.45296 0.0
C498 C 0.2838 0.29104 0.45959 0.0
C499 C 0.32934 0.27175 0.44548 0.0
C500 C 0.28739 0.36468 0.43519 0.0
C501 C 0.21336 0.31817 0.43112 0.0
N502 N 0.31685 0.3035 0.44794 0.0
N503 N 0.23062 0.29866 0.44797 0.0
H504 H 0.99609 0.07436 0.33214 0.0
H505 H 0.79673 0.97729 0.39433 0.0
H506 H 0.96202 0.1639 0.38648 0.0
H507 H 0.82665 0.90845 0.31554 0.0
H508 H 0.85916 1.04055 0.4002 0.0
H509 H 0.93595 1.00612 0.33613 0.0
C510 C 0.97603 0.07944 0.34527 0.0
C511 C 0.98376 0.12488 0.35852 0.0
C512 C 0.85193 1.0115 0.38168 0.0
C513 C 0.91521 1.0474 0.36305 0.0
C514 C 0.81638 0.97561 0.37819 0.0
C515 C 0.80656 0.9378 0.35429 0.0
C516 C 0.87768 1.00913 0.36134 0.0
C517 C 0.83303 0.93711 0.33416 0.0
C518 C 0.94179 1.04061 0.34748 0.0
C519 C 0.95712 0.12941 0.37594 0.0
N520 N 0.86745 0.97223 0.33821 0.0
N521 N 0.92378 0.09117 0.37736 0.0
H522 H 0.12456 0.66073 0.21422 0.0
H523 H 0.21363 0.57902 0.32833 0.0
H524 H 0.22595 0.67414 0.18694 0.0
H525 H 0.10711 0.4657 0.30191 0.0
H526 H 0.21308 0.62021 0.27772 0.0
H527 H 0.10863 0.58449 0.23912 0.0
C528 C 0.14303 0.64677 0.2117 0.0
C529 C 0.17878 0.67675 0.20279 0.0
C530 C 0.18982 0.5863 0.28317 0.0
C531 C 0.16035 0.59 0.23064 0.0
C532 C 0.18966 0.56359 0.31254 0.0
C533 C 0.16036 0.51895 0.31931 0.0
C534 C 0.16026 0.56472 0.26086 0.0
C535 C 0.13024 0.50018 0.29746 0.0
C536 C 0.13381 0.60309 0.2264 0.0
C537 C 0.19948 0.65414 0.19706 0.0
N538 N 0.13084 0.5233 0.26906 0.0
N539 N 0.19136 0.61355 0.2137 0.0
H540 H 0.45178 0.58326 0.43485 0.0
H541 H 0.62178 0.67489 0.31468 0.0
H542 H 0.44438 0.59171 0.32739 0.0
H543 H 0.62884 0.67162 0.42224 0.0
H544 H 0.55629 0.63322 0.31771 0.0
H545 H 0.51494 0.60622 0.42984 0.0
C546 C 0.46305 0.58935 0.41007 0.0
C547 C 0.44182 0.58529 0.38156 0.0
C548 C 0.57202 0.64013 0.34064 0.0
C549 C 0.51572 0.61251 0.37567 0.0
C550 C 0.60965 0.66286 0.33882 0.0
C551 C 0.63145 0.67561 0.36813 0.0
C552 C 0.55549 0.63004 0.37212 0.0
C553 C 0.61354 0.66129 0.39881 0.0
C554 C 0.49953 0.60283 0.40727 0.0
C555 C 0.45914 0.59485 0.35034 0.0
N556 N 0.57705 0.64008 0.40002 0.0
N557 N 0.49467 0.60795 0.34831 0.0
H558 H 0.34101 0.85668 0.35594 0.0
H559 H 0.55591 0.97445 0.35646 0.0
H560 H 0.41029 1.0094 0.34782 0.0
H561 H 0.48343 0.82372 0.37 0.0
H562 H 0.50452 0.9886 0.35236 0.0
H563 H 0.39322 0.84543 0.36064 0.0
C564 C 0.36719 0.88819 0.3552 0.0
C565 C 0.37059 0.93429 0.35145 0.0
C566 C 0.49983 0.95242 0.35625 0.0
C567 C 0.43195 0.92109 0.35678 0.0
C568 C 0.52936 0.94404 0.35838 0.0
C569 C 0.52476 0.89751 0.36359 0.0
C570 C 0.46477 0.91413 0.35917 0.0
C571 C 0.48909 0.86036 0.36643 0.0
C572 C 0.39728 0.88154 0.35791 0.0
C573 C 0.40585 0.97317 0.35079 0.0
N574 N 0.46094 0.86943 0.36411 0.0
N575 N 0.43489 0.96569 0.35329 0.0
H576 H 0.76023 0.3192 0.71531 0.0
H577 H 0.56306 0.15874 0.6566 0.0
H578 H 0.71755 0.32492 0.61806 0.0
H579 H 0.60751 0.14936 0.75178 0.0
H580 H 0.61353 0.23907 0.65043 0.0
H581 H 0.70051 0.28291 0.73741 0.0
C582 C 0.73856 0.31482 0.69881 0.0
C583 C 0.74362 0.32281 0.66425 0.0
C584 C 0.61221 0.21979 0.67285 0.0
C585 C 0.67503 0.27942 0.68926 0.0
C586 C 0.58371 0.17369 0.67613 0.0
C587 C 0.58225 0.14677 0.70396 0.0
C588 C 0.63983 0.23875 0.69729 0.0
C589 C 0.60843 0.16857 0.72945 0.0
C590 C 0.70424 0.29346 0.71148 0.0
C591 C 0.7145 0.31708 0.64449 0.0
N592 N 0.63671 0.213 0.72513 0.0
N593 N 0.68114 0.29407 0.65698 0.0
H594 H 0.97092 0.49107 0.72706 0.0
H595 H 0.83586 0.58835 0.66454 0.0
H596 H 0.896 0.42627 0.64394 0.0
H597 H 0.93309 0.68121 0.72014 0.0
H598 H 0.8536 0.5251 0.66257 0.0
H599 H 0.95475 0.55634 0.73047 0.0
C600 C 0.95119 0.49012 0.70945 0.0
C601 C 0.93523 0.4518 0.68505 0.0
C602 C 0.87115 0.55922 0.67533 0.0
C603 C 0.91545 0.52756 0.68947 0.0
C604 C 0.86087 0.59578 0.67655 0.0
C605 C 0.8827 0.64145 0.69246 0.0
C606 C 0.90353 0.56677 0.6907 0.0
C607 C 0.91498 0.64736 0.70738 0.0
C608 C 0.94181 0.52777 0.71147 0.0
C609 C 0.90948 0.45396 0.66337 0.0
N610 N 0.92406 0.61106 0.70632 0.0
N611 N 0.90047 0.49006 0.66627 0.0
H612 H 0.61997 0.46245 0.62353 0.0
H613 H 0.53626 0.2102 0.7174 0.0
H614 H 0.66645 0.44589 0.71532 0.0
H615 H 0.4877 0.23913 0.63234 0.0
H616 H 0.58798 0.29203 0.71416 0.0
H617 H 0.57519 0.37767 0.62392 0.0
C618 C 0.62078 0.44122 0.64398 0.0
C619 C 0.64709 0.46232 0.66972 0.0
C620 C 0.56614 0.28019 0.696 0.0
C621 C 0.59531 0.36332 0.67002 0.0
C622 C 0.53676 0.23325 0.69763 0.0
C623 C 0.50746 0.21753 0.67507 0.0
C624 C 0.56633 0.31156 0.67151 0.0
C625 C 0.5095 0.24946 0.65033 0.0
C626 C 0.59515 0.39234 0.64404 0.0
C627 C 0.64693 0.43169 0.69485 0.0
N628 N 0.53809 0.29455 0.64933 0.0
N629 N 0.62142 0.38405 0.6945 0.0
H630 H 0.90044 0.93287 0.73689 0.0
H631 H 0.87293 0.13774 0.64404 0.0
H632 H 0.82641 0.89517 0.65311 0.0
H633 H 0.95968 0.17073 0.71374 0.0
H634 H 0.85331 1.05127 0.64837 0.0
H635 H 0.91829 1.01753 0.73063 0.0
C636 C 0.8873 0.94167 0.71714 0.0
C637 C 0.86118 0.90428 0.69573 0.0
C638 C 0.87672 0.07713 0.66271 0.0
C639 C 0.88279 1.00619 0.68827 0.0
C640 C 0.88825 0.12735 0.66026 0.0
C641 C 0.91866 0.16368 0.6783 0.0
C642 C 0.89498 0.06092 0.68394 0.0
C643 C 0.93644 0.14565 0.69888 0.0
C644 C 0.89799 0.99118 0.71355 0.0
C645 C 0.84616 0.92094 0.67083 0.0
N646 N 0.92438 0.09663 0.70116 0.0
N647 N 0.85701 0.96975 0.66794 0.0
H648 H 0.11202 0.87946 0.66688 0.0
H649 H 0.29892 1.03101 0.76348 0.0
H650 H 0.12213 0.90874 0.7741 0.0
H651 H 0.29082 0.96115 0.66695 0.0
H652 H 0.23393 0.98741 0.76687 0.0
H653 H 0.17659 0.90901 0.6652 0.0
C654 C 0.12754 0.89143 0.69015 0.0
C655 C 0.11125 0.89202 0.72064 0.0
C656 C 0.24625 0.98096 0.74511 0.0
C657 C 0.18562 0.92688 0.71866 0.0
C658 C 0.28344 1.00585 0.74318 0.0
C659 C 0.30042 0.9995 0.715 0.0
C660 C 0.22547 0.95004 0.71832 0.0
C661 C 0.27887 0.96665 0.68934 0.0
C662 C 0.16454 0.90854 0.6891 0.0
C663 C 0.13326 0.90864 0.74981 0.0
N664 N 0.24248 0.94364 0.69138 0.0
N665 N 0.16912 0.92576 0.74801 0.0
H666 H 0.27929 0.26544 0.79196 0.0
H667 H 0.08733 0.22125 0.73264 0.0
H668 H 0.21738 0.16783 0.71004 0.0
H669 H 0.1486 0.31772 0.81538 0.0
H670 H 0.13063 0.19253 0.72935 0.0
H671 H 0.22857 0.27741 0.80541 0.0
C672 C 0.25494 0.24639 0.77686 0.0
C673 C 0.25271 0.21611 0.74954 0.0
C674 C 0.13438 0.2195 0.74854 0.0
C675 C 0.19441 0.22942 0.76492 0.0
C676 C 0.10942 0.23564 0.75068 0.0
C677 C 0.11444 0.27232 0.77418 0.0
C678 C 0.16477 0.24036 0.76989 0.0
C679 C 0.14399 0.29004 0.79648 0.0
C680 C 0.22591 0.25302 0.78468 0.0
C681 C 0.22025 0.19148 0.73132 0.0
N682 N 0.16825 0.27429 0.79353 0.0
N683 N 0.19249 0.19909 0.73911 0.0
H684 H 0.22975 0.53168 0.26778 0.0
H685 H 0.10847 0.38598 0.1055 0.0
H686 H 0.17881 0.3777 0.25083 0.0
H687 H 0.14726 0.53846 0.12102 0.0
H688 H 0.13869 0.38578 0.15698 0.0
H689 H 0.20595 0.53818 0.21273 0.0
C690 C 0.21391 0.4993 0.25249 0.0
C691 C 0.2062 0.45399 0.26443 0.0
C692 C 0.14079 0.41949 0.14938 0.0
C693 C 0.17815 0.46126 0.20146 0.0
C694 C 0.12335 0.41973 0.11968 0.0
C695 C 0.12495 0.46235 0.10846 0.0
C696 C 0.16041 0.46218 0.16881 0.0
C697 C 0.14502 0.50464 0.1285 0.0
C698 C 0.20004 0.50308 0.22114 0.0
C699 C 0.18562 0.41349 0.24312 0.0
N700 N 0.16189 0.50349 0.15767 0.0
N701 N 0.17226 0.4181 0.21312 0.0
H702 H 0.65256 0.81134 0.25687 0.0
H703 H 0.59099 0.58592 0.12655 0.0
H704 H 0.68816 0.7057 0.25971 0.0
H705 H 0.59356 0.71579 0.09422 0.0
H706 H 0.61288 0.62369 0.18211 0.0
H707 H 0.62003 0.77304 0.20324 0.0
C708 C 0.6536 0.78026 0.24638 0.0
C709 C 0.67369 0.7623 0.26294 0.0
C710 C 0.6081 0.64385 0.16317 0.0
C711 C 0.63565 0.71749 0.20201 0.0
C712 C 0.59504 0.62197 0.13144 0.0
C713 C 0.5901 0.64734 0.10542 0.0
C714 C 0.61653 0.69196 0.1696 0.0
C715 C 0.59647 0.69444 0.11345 0.0
C716 C 0.63503 0.75845 0.21574 0.0
C717 C 0.67369 0.72162 0.24797 0.0
N718 N 0.60969 0.71541 0.14469 0.0
N719 N 0.65499 0.70073 0.21883 0.0
H720 H 0.49762 0.12056 0.14526 0.0
H721 H 0.32488 0.9106 0.23442 0.0
H722 H 0.44768 0.97112 0.11267 0.0
H723 H 0.3601 0.062 0.25034 0.0
H724 H 0.37232 0.93125 0.19317 0.0
H725 H 0.45156 0.09928 0.18823 0.0
C726 C 0.47753 0.08321 0.1475 0.0
C727 C 0.47696 1.04773 0.12515 0.0
C728 C 0.36954 0.95995 0.20559 0.0
C729 C 0.42342 1.0229 0.17434 0.0
C730 C 0.34218 0.94809 0.2291 0.0
C731 C 0.3378 0.98434 0.24599 0.0
C732 C 0.39338 1.0086 0.199 0.0
C733 C 0.36182 1.03244 0.23801 0.0
C734 C 0.45088 0.07106 0.17186 0.0
C735 C 0.44951 0.99993 0.12917 0.0
N736 N 0.38839 1.043 0.21548 0.0
N737 N 0.42414 0.98907 0.15301 0.0
H738 H 0.55392 0.19017 0.95433 0.0
H739 H 0.43812 1.04526 0.79524 0.0
H740 H 0.55286 0.06371 0.91117 0.0
H741 H 0.48117 0.19951 0.79776 0.0
H742 H 0.47638 1.0532 0.84261 0.0
H743 H 0.52732 0.19866 0.90138 0.0
C744 C 0.54967 0.16548 0.93331 0.0
C745 C 0.55592 0.12622 0.93728 0.0
C746 C 0.47772 0.08554 0.83293 0.0
C747 C 0.52406 0.13459 0.87722 0.0
C748 C 0.45555 0.0811 0.80573 0.0
C749 C 0.45628 0.12182 0.79186 0.0
C750 C 0.50077 0.13102 0.84762 0.0
C751 C 0.47956 0.16703 0.80742 0.0
C752 C 0.534 0.17 0.90321 0.0
C753 C 0.54877 0.09464 0.90934 0.0
N754 N 0.50071 0.17044 0.83464 0.0
N755 N 0.53273 0.09897 0.88102 0.0
H756 H 1.00001 0.47959 0.92084 0.0
H757 H 0.90606 0.25075 0.79127 0.0
H758 H 1.0106 0.35163 0.92349 0.0
H759 H 0.92625 0.39081 0.76137 0.0
H760 H 0.93051 0.28447 0.84718 0.0
H761 H 0.96198 0.44601 0.86913 0.0
C762 C 0.99407 0.44437 0.91087 0.0
C763 C 1.0089 0.41866 0.92651 0.0
C764 C 0.92904 0.30788 0.82872 0.0
C765 C 0.96493 0.37968 0.86786 0.0
C766 C 0.91447 0.28838 0.79681 0.0
C767 C 0.91378 0.31767 0.77135 0.0
C768 C 0.94349 0.35754 0.83578 0.0
C769 C 0.92584 0.36658 0.78014 0.0
C770 C 0.9725 0.42532 0.8813 0.0
C771 C 1.00027 0.37319 0.91227 0.0
N772 N 0.94065 0.38513 0.81143 0.0
N773 N 0.97901 0.35536 0.88416 0.0
H774 H 0.83984 0.80601 0.81379 0.0
H775 H 0.65367 0.61316 0.8962 0.0
H776 H 0.77725 0.65788 0.77899 0.0
H777 H 0.72498 0.75058 0.94434 0.0
H778 H 0.69703 0.6316 0.85102 0.0
H779 H 0.79783 0.78901 0.8604 0.0
C780 C 0.81778 0.76989 0.81604 0.0
C781 C 0.81264 0.73355 0.79202 0.0
C782 C 0.70319 0.65785 0.87143 0.0
C783 C 0.76343 0.71389 0.84522 0.0
C784 C 0.67817 0.64733 0.89725 0.0
C785 C 0.68525 0.68012 0.92451 0.0
C786 C 0.73573 0.70181 0.87233 0.0
C787 C 0.718 0.72382 0.92414 0.0
C788 C 0.7935 0.7602 0.8426 0.0
C789 C 0.78282 0.6875 0.79648 0.0
N790 N 0.74168 0.73329 0.89874 0.0
N791 N 0.75961 0.67929 0.82201 0.0
H792 H 0.73007 0.73405 0.46047 0.0
H793 H 0.86795 0.8677 0.61554 0.0
H794 H 0.78164 0.8886 0.47185 0.0
H795 H 0.83878 0.72644 0.57397 0.0
H796 H 0.83461 0.87864 0.56848 0.0
H797 H 0.76419 0.73181 0.5089 0.0
C798 C 0.74795 0.76764 0.47375 0.0
C799 C 0.75238 0.81149 0.462 0.0
C800 C 0.836 0.84558 0.56951 0.0
C801 C 0.79323 0.80938 0.51787 0.0
C802 C 0.85544 0.8395 0.59621 0.0
C803 C 0.85656 0.79605 0.59895 0.0
C804 C 0.81708 0.80769 0.54555 0.0
C805 C 0.83896 0.76059 0.57325 0.0
C806 C 0.76794 0.76639 0.5013 0.0
C807 C 0.77663 0.85382 0.48027 0.0
N808 N 0.81992 0.76699 0.54824 0.0
N809 N 0.79626 0.85178 0.50711 0.0
H810 H 0.30907 0.91405 0.44256 0.0
H811 H 0.31705 0.07623 0.60581 0.0
H812 H 0.24544 0.98504 0.45098 0.0
H813 H 0.393 1.02664 0.58592 0.0
H814 H 0.28517 1.03538 0.55279 0.0
H815 H 0.33322 0.94439 0.49969 0.0
C816 C 0.29922 0.93454 0.4568 0.0
C817 C 0.27495 0.9466 0.44191 0.0
C818 C 0.30884 1.03352 0.56017 0.0
C819 C 0.30335 0.98295 0.50715 0.0
C820 C 0.32717 1.0571 0.5904 0.0
C821 C 0.35809 1.05552 0.60056 0.0
C822 C 0.3212 1.00759 0.54006 0.0
C823 C 0.36953 1.02948 0.57942 0.0
C824 C 0.31347 0.95263 0.48928 0.0
C825 C 0.26398 0.9746 0.46145 0.0
N826 N 0.35119 1.00672 0.55051 0.0
N827 N 0.27837 0.99203 0.49276 0.0
H828 H 1.05778 0.39606 0.62066 0.0
H829 H 0.08067 0.38732 0.4208 0.0
H830 H 0.96919 0.31855 0.55079 0.0
H831 H 0.17098 0.4505 0.49007 0.0
H832 H 1.04051 0.36726 0.46773 0.0
H833 H 0.09889 0.41953 0.57402 0.0
C834 C 1.04668 0.38383 0.5955 0.0
C835 C 1.00934 0.35498 0.59016 0.0
C836 C 0.06903 0.38565 0.47292 0.0
C837 C 1.05754 0.38272 0.53561 0.0
C838 C 0.09237 0.39745 0.44592 0.0
C839 C 0.1299 0.42076 0.45092 0.0
C840 C 0.0826 0.397 0.50603 0.0
C841 C 0.14257 0.43292 0.4845 0.0
C842 C 0.07053 0.39744 0.56872 0.0
C843 C 0.99743 0.34058 0.55659 0.0
N844 N 0.11909 0.42076 0.51059 0.0
N845 N 1.02128 0.35466 0.53084 0.0
loop_
_geom_bond_atom_site_label_1
_geom_bond_atom_site_label_2
_geom_bond_distance
_geom_bond_site_symmetry_2
_ccdc_geom_bond_type
Tb0 C10 2.825 . S
Tb0 O11 2.347 1_554 S
Tb0 O14 2.366 . S
Tb0 O19 2.418 . S
Tb0 O20 2.384 1_655 S
Tb0 O23 2.479 . S
Tb0 O24 2.471 1_554 S
Eu1 O12 2.389 1_554 S
Eu1 O13 2.389 1_455 S
Eu1 O16 2.465 1_554 S
Eu1 O17 2.485 . S
Eu1 O18 2.372 . S
Eu1 O21 2.361 1_554 S
Eu1 C31 2.825 . S
C2 O18 1.259 . S
C2 O19 1.265 1_455 S
C3 O20 1.255 . S
C3 O21 1.265 1_554 S
C4 C6 1.380 . S
C4 C7 1.374 1_554 S
C4 C10 1.507 . S
C5 C6 1.384 . S
C5 C9 1.387 . S
C5 H32 0.930 . S
C6 C4 1.380 . S
C6 C5 1.384 . S
C6 H33 0.931 . S
C7 C4 1.374 1_556 S
C7 C8 1.390 . S
C7 H34 0.930 . S
C8 C7 1.390 . S
C8 C9 1.391 1_556 S
C8 H35 0.930 . S
C9 C5 1.387 . S
C9 C8 1.391 1_554 S
C10 Tb0 2.825 . S
C10 C4 1.507 . S
C10 O23 1.238 . S
C10 O24 1.247 1_554 S
O11 Tb0 2.347 1_556 S
O11 C15 1.259 . S
O12 Eu1 2.389 1_556 S
O12 C15 1.265 1_455 S
O13 Eu1 2.389 1_655 S
O13 C22 1.255 . S
O14 Tb0 2.366 . S
O14 C22 1.265 . S
C15 O11 1.259 . S
C15 O12 1.265 1_655 S
O16 Eu1 2.465 1_556 S
O16 C31 1.238 1_556 S
O17 Eu1 2.485 . S
O17 C31 1.247 . S
O18 Eu1 2.372 . S
O18 C2 1.259 . S
O19 Tb0 2.418 . S
O19 C2 1.265 1_655 S
O20 Tb0 2.384 1_455 S
O20 C3 1.255 . S
O21 Eu1 2.361 1_556 S
O21 C3 1.265 1_556 S
C22 O13 1.255 . S
C22 O14 1.265 . S
O23 Tb0 2.479 . S
O23 C10 1.238 . S
O24 Tb0 2.471 1_556 S
O24 C10 1.247 1_556 S
C25 C28 1.380 1_554 S
C25 C29 1.374 . S
C25 C31 1.507 . S
C26 C27 1.387 1_554 S
C26 C30 1.391 . S
C27 C26 1.387 1_556 S
C27 C28 1.384 . S
C27 H36 0.930 . S
C28 C25 1.380 1_556 S
C28 C27 1.384 . S
C28 H37 0.931 . S
C29 C25 1.374 . S
C29 C30 1.390 . S
C29 H38 0.930 . S
C30 C26 1.391 . S
C30 C29 1.390 . S
C30 H39 0.930 . S
C31 Eu1 2.825 . S
C31 O16 1.238 1_554 S
C31 O17 1.247 . S
C31 C25 1.507 . S
H32 C5 0.930 . S
H33 C6 0.931 . S
H34 C7 0.930 . S
H35 C8 0.930 . S
H36 C27 0.930 . S
H37 C28 0.931 . S
H38 C29 0.930 . S
H39 C30 0.930 . S
Tb40 C50 2.825 . S
Tb40 O51 2.347 1_556 S
Tb40 O54 2.366 . S
Tb40 O59 2.418 . S
Tb40 O60 2.384 . S
Tb40 O63 2.479 . S
Tb40 O64 2.471 1_556 S
Eu41 O52 2.418 . S
Eu41 O53 2.384 . S
Eu41 O56 2.479 . S
Eu41 O57 2.471 1_554 S
Eu41 O58 2.347 1_554 S
Eu41 O61 2.366 . S
Eu41 C71 2.825 . S
C42 O58 1.259 . S
C42 O59 1.265 . S
C43 O60 1.255 1_554 S
C43 O61 1.265 . S
C44 C46 1.380 . S
C44 C47 1.374 1_556 S
C44 C50 1.507 . S
C45 C46 1.384 . S
C45 C49 1.387 . S
C45 H72 0.930 . S
C46 C44 1.380 . S
C46 C45 1.384 . S
C46 H73 0.931 . S
C47 C44 1.374 1_554 S
C47 C48 1.390 . S
C47 H74 0.930 . S
C48 C47 1.390 . S
C48 C49 1.391 1_554 S
C48 H75 0.930 . S
C49 C45 1.387 . S
C49 C48 1.391 1_556 S
C50 Tb40 2.825 . S
C50 C44 1.507 . S
C50 O63 1.238 . S
C50 O64 1.247 1_556 S
O51 Tb40 2.347 1_554 S
O51 C55 1.259 . S
O52 Eu41 2.418 . S
O52 C55 1.265 . S
O53 Eu41 2.384 . S
O53 C62 1.255 1_554 S
O54 Tb40 2.366 . S
O54 C62 1.265 . S
C55 O51 1.259 . S
C55 O52 1.265 . S
O56 Eu41 2.479 . S
O56 C71 1.238 . S
O57 Eu41 2.471 1_556 S
O57 C71 1.247 1_556 S
O58 Eu41 2.347 1_556 S
O58 C42 1.259 . S
O59 Tb40 2.418 . S
O59 C42 1.265 . S
O60 Tb40 2.384 . S
O60 C43 1.255 1_556 S
O61 Eu41 2.366 . S
O61 C43 1.265 . S
C62 O53 1.255 1_556 S
C62 O54 1.265 . S
O63 Tb40 2.479 . S
O63 C50 1.238 . S
O64 Tb40 2.471 1_554 S
O64 C50 1.247 1_554 S
C65 C68 1.380 . S
C65 C69 1.374 1_554 S
C65 C71 1.507 . S
C66 C67 1.387 . S
C66 C70 1.391 1_554 S
C67 C66 1.387 . S
C67 C68 1.384 . S
C67 H76 0.930 . S
C68 C65 1.380 . S
C68 C67 1.384 . S
C68 H77 0.931 . S
C69 C65 1.374 1_556 S
C69 C70 1.390 . S
C69 H78 0.930 . S
C70 C66 1.391 1_556 S
C70 C69 1.390 . S
C70 H79 0.930 . S
C71 Eu41 2.825 . S
C71 O56 1.238 . S
C71 O57 1.247 1_554 S
C71 C65 1.507 . S
H72 C45 0.930 . S
H73 C46 0.931 . S
H74 C47 0.930 . S
H75 C48 0.930 . S
H76 C67 0.930 . S
H77 C68 0.931 . S
H78 C69 0.930 . S
H79 C70 0.930 . S
Tb80 C90 2.825 . S
Tb80 O91 2.347 1_554 S
Tb80 O94 2.366 . S
Tb80 O99 2.418 . S
Tb80 O100 2.384 1_545 S
Tb80 O103 2.479 . S
Tb80 O104 2.471 1_554 S
Eu81 O92 2.449 . S
Eu81 O93 2.382 1_566 S
Eu81 O96 2.491 . S
Eu81 O97 2.456 1_556 S
Eu81 O98 2.322 1_556 S
Eu81 O101 2.369 . S
Eu81 C111 2.825 . S
C82 O98 1.259 . S
C82 O99 1.265 1_565 S
C83 O100 1.255 . S
C83 O101 1.265 1_554 S
C84 C86 1.380 . S
C84 C87 1.374 1_554 S
C84 C90 1.507 . S
C85 C86 1.384 . S
C85 C89 1.387 . S
C85 H112 0.930 . S
C86 C84 1.380 . S
C86 C85 1.384 . S
C86 H113 0.931 . S
C87 C84 1.374 1_556 S
C87 C88 1.390 . S
C87 H114 0.930 . S
C88 C87 1.390 . S
C88 C89 1.391 1_556 S
C88 H115 0.930 . S
C89 C85 1.387 . S
C89 C88 1.391 1_554 S
C90 Tb80 2.825 . S
C90 C84 1.507 . S
C90 O103 1.238 . S
C90 O104 1.247 1_554 S
O91 Tb80 2.347 1_556 S
O91 C95 1.259 . S
O92 Eu81 2.449 . S
O92 C95 1.265 1_565 S
O93 Eu81 2.382 1_544 S
O93 C102 1.255 . S
O94 Tb80 2.366 . S
O94 C102 1.265 . S
C95 O91 1.259 . S
C95 O92 1.265 1_545 S
O96 Eu81 2.491 . S
O96 C111 1.257 . S
O97 Eu81 2.456 1_554 S
O97 C111 1.229 1_554 S
O98 Eu81 2.322 1_554 S
O98 C82 1.259 . S
O99 Tb80 2.418 . S
O99 C82 1.265 1_545 S
O100 Tb80 2.384 1_565 S
O100 C83 1.255 . S
O101 Eu81 2.369 . S
O101 C83 1.265 1_556 S
C102 O93 1.255 . S
C102 O94 1.265 . S
O103 Tb80 2.479 . S
O103 C90 1.238 . S
O104 Tb80 2.471 1_556 S
O104 C90 1.247 1_556 S
C105 C108 1.403 . S
C105 C109 1.348 1_556 S
C105 C111 1.507 . S
C106 C107 1.381 1_554 S
C106 C110 1.396 . S
C107 C106 1.381 1_556 S
C107 C108 1.384 . S
C107 H116 0.930 . S
C108 C105 1.403 . S
C108 C107 1.384 . S
C108 H117 0.931 . S
C109 C105 1.348 1_554 S
C109 C110 1.390 . S
C109 H118 0.930 . S
C110 C106 1.396 . S
C110 C109 1.390 . S
C110 H119 0.930 . S
C111 Eu81 2.825 . S
C111 O96 1.257 . S
C111 O97 1.229 1_556 S
C111 C105 1.507 . S
H112 C85 0.930 . S
H113 C86 0.931 . S
H114 C87 0.930 . S
H115 C88 0.930 . S
H116 C107 0.930 . S
H117 C108 0.931 . S
H118 C109 0.930 . S
H119 C110 0.930 . S
Tb120 C130 2.825 . S
Tb120 O131 2.347 . S
Tb120 O134 2.366 . S
Tb120 O139 2.418 . S
Tb120 O140 2.384 . S
Tb120 O143 2.479 . S
Tb120 O144 2.471 . S
Eu121 O132 2.418 . S
Eu121 O133 2.384 . S
Eu121 O136 2.479 . S
Eu121 O137 2.471 . S
Eu121 O138 2.347 . S
Eu121 O141 2.366 . S
Eu121 C151 2.825 . S
C122 O138 1.259 . S
C122 O139 1.265 . S
C123 O140 1.255 . S
C123 O141 1.265 . S
C124 C126 1.380 . S
C124 C127 1.374 . S
C124 C130 1.507 . S
C125 C126 1.384 . S
C125 C129 1.387 . S
C125 H152 0.930 . S
C126 C124 1.380 . S
C126 C125 1.384 . S
C126 H153 0.931 . S
C127 C124 1.374 . S
C127 C128 1.390 . S
C127 H154 0.930 . S
C128 C127 1.390 . S
C128 C129 1.391 . S
C128 H155 0.930 . S
C129 C125 1.387 . S
C129 C128 1.391 . S
C130 Tb120 2.825 . S
C130 C124 1.507 . S
C130 O143 1.238 . S
C130 O144 1.247 . S
O131 Tb120 2.347 . S
O131 C135 1.259 . S
O132 Eu121 2.418 . S
O132 C135 1.265 . S
O133 Eu121 2.384 . S
O133 C142 1.255 . S
O134 Tb120 2.366 . S
O134 C142 1.265 . S
C135 O131 1.259 . S
C135 O132 1.265 . S
O136 Eu121 2.479 . S
O136 C151 1.238 . S
O137 Eu121 2.471 . S
O137 C151 1.247 . S
O138 Eu121 2.347 . S
O138 C122 1.259 . S
O139 Tb120 2.418 . S
O139 C122 1.265 . S
O140 Tb120 2.384 . S
O140 C123 1.255 . S
O141 Eu121 2.366 . S
O141 C123 1.265 . S
C142 O133 1.255 . S
C142 O134 1.265 . S
O143 Tb120 2.479 . S
O143 C130 1.238 . S
O144 Tb120 2.471 . S
O144 C130 1.247 . S
C145 C148 1.380 . S
C145 C149 1.374 . S
C145 C151 1.507 . S
C146 C147 1.387 . S
C146 C150 1.391 . S
C147 C146 1.387 . S
C147 C148 1.384 . S
C147 H156 0.930 . S
C148 C145 1.380 . S
C148 C147 1.384 . S
C148 H157 0.931 . S
C149 C145 1.374 . S
C149 C150 1.390 . S
C149 H158 0.930 . S
C150 C146 1.391 . S
C150 C149 1.390 . S
C150 H159 0.930 . S
C151 Eu121 2.825 . S
C151 O136 1.238 . S
C151 O137 1.247 . S
C151 C145 1.507 . S
H152 C125 0.930 . S
H153 C126 0.931 . S
H154 C127 0.930 . S
H155 C128 0.930 . S
H156 C147 0.930 . S
H157 C148 0.931 . S
H158 C149 0.930 . S
H159 C150 0.930 . S
Tb160 C170 2.825 . S
Tb160 O171 2.347 . S
Tb160 O174 2.366 . S
Tb160 O179 2.418 . S
Tb160 O180 2.384 . S
Tb160 O183 2.479 . S
Tb160 O184 2.471 . S
Eu161 O172 2.418 . S
Eu161 O173 2.384 . S
Eu161 O176 2.479 1_565 S
Eu161 O177 2.471 1_565 S
Eu161 O178 2.347 . S
Eu161 O181 2.366 . S
Eu161 C191 2.825 1_565 S
C162 O178 1.259 . S
C162 O179 1.265 . S
C163 O180 1.255 . S
C163 O181 1.265 . S
C164 C166 1.380 . S
C164 C167 1.374 . S
C164 C170 1.507 . S
C165 C166 1.384 . S
C165 C169 1.387 . S
C165 H192 0.930 . S
C166 C164 1.380 . S
C166 C165 1.384 . S
C166 H193 0.931 . S
C167 C164 1.374 . S
C167 C168 1.390 . S
C167 H194 0.930 . S
C168 C167 1.390 . S
C168 C169 1.391 . S
C168 H195 0.930 . S
C169 C165 1.387 . S
C169 C168 1.391 . S
C170 Tb160 2.825 . S
C170 C164 1.507 . S
C170 O183 1.238 . S
C170 O184 1.247 . S
O171 Tb160 2.347 . S
O171 C175 1.259 . S
O172 Eu161 2.418 . S
O172 C175 1.265 . S
O173 Eu161 2.384 . S
O173 C182 1.255 . S
O174 Tb160 2.366 . S
O174 C182 1.265 . S
C175 O171 1.259 . S
C175 O172 1.265 . S
O176 Eu161 2.479 1_545 S
O176 C191 1.238 . S
O177 Eu161 2.471 1_545 S
O177 C191 1.247 . S
O178 Eu161 2.347 . S
O178 C162 1.259 . S
O179 Tb160 2.418 . S
O179 C162 1.265 . S
O180 Tb160 2.384 . S
O180 C163 1.255 . S
O181 Eu161 2.366 . S
O181 C163 1.265 . S
C182 O173 1.255 . S
C182 O174 1.265 . S
O183 Tb160 2.479 . S
O183 C170 1.238 . S
O184 Tb160 2.471 . S
O184 C170 1.247 . S
C185 C188 1.380 . S
C185 C189 1.374 . S
C185 C191 1.507 . S
C186 C187 1.387 . S
C186 C190 1.391 . S
C187 C186 1.387 . S
C187 C188 1.384 . S
C187 H196 0.930 . S
C188 C185 1.380 . S
C188 C187 1.384 . S
C188 H197 0.931 . S
C189 C185 1.374 . S
C189 C190 1.390 . S
C189 H198 0.930 . S
C190 C186 1.391 . S
C190 C189 1.390 . S
C190 H199 0.930 . S
C191 Eu161 2.825 1_545 S
C191 O176 1.238 . S
C191 O177 1.247 . S
C191 C185 1.507 . S
H192 C165 0.930 . S
H193 C166 0.931 . S
H194 C167 0.930 . S
H195 C168 0.930 . S
H196 C187 0.930 . S
H197 C188 0.931 . S
H198 C189 0.930 . S
H199 C190 0.930 . S
Tb200 C210 2.825 . S
Tb200 O211 2.347 . S
Tb200 O214 2.366 . S
Tb200 O219 2.418 . S
Tb200 O220 2.384 . S
Tb200 O223 2.479 . S
Tb200 O224 2.471 . S
Eu201 O212 2.418 . S
Eu201 O213 2.384 . S
Eu201 O216 2.479 . S
Eu201 O217 2.471 . S
Eu201 O218 2.347 . S
Eu201 O221 2.366 . S
Eu201 C231 2.825 . S
C202 O218 1.259 . S
C202 O219 1.265 . S
C203 O220 1.255 . S
C203 O221 1.265 . S
C204 C206 1.380 . S
C204 C207 1.374 . S
C204 C210 1.507 . S
C205 C206 1.384 . S
C205 C209 1.387 . S
C205 H232 0.930 . S
C206 C204 1.380 . S
C206 C205 1.384 . S
C206 H233 0.931 . S
C207 C204 1.374 . S
C207 C208 1.390 . S
C207 H234 0.930 . S
C208 C207 1.390 . S
C208 C209 1.391 . S
C208 H235 0.930 . S
C209 C205 1.387 . S
C209 C208 1.391 . S
C210 Tb200 2.825 . S
C210 C204 1.507 . S
C210 O223 1.238 . S
C210 O224 1.247 . S
O211 Tb200 2.347 . S
O211 C215 1.259 . S
O212 Eu201 2.418 . S
O212 C215 1.265 . S
O213 Eu201 2.384 . S
O213 C222 1.255 . S
O214 Tb200 2.366 . S
O214 C222 1.265 . S
C215 O211 1.259 . S
C215 O212 1.265 . S
O216 Eu201 2.479 . S
O216 C231 1.238 . S
O217 Eu201 2.471 . S
O217 C231 1.247 . S
O218 Eu201 2.347 . S
O218 C202 1.259 . S
O219 Tb200 2.418 . S
O219 C202 1.265 . S
O220 Tb200 2.384 . S
O220 C203 1.255 . S
O221 Eu201 2.366 . S
O221 C203 1.265 . S
C222 O213 1.255 . S
C222 O214 1.265 . S
O223 Tb200 2.479 . S
O223 C210 1.238 . S
O224 Tb200 2.471 . S
O224 C210 1.247 . S
C225 C228 1.380 . S
C225 C229 1.374 . S
C225 C231 1.507 1_655 S
C226 C227 1.387 . S
C226 C230 1.391 . S
C227 C226 1.387 . S
C227 C228 1.384 . S
C227 H236 0.930 . S
C228 C225 1.380 . S
C228 C227 1.384 . S
C228 H237 0.931 . S
C229 C225 1.374 . S
C229 C230 1.390 . S
C229 H238 0.930 . S
C230 C226 1.391 . S
C230 C229 1.390 . S
C230 H239 0.930 . S
C231 Eu201 2.825 . S
C231 O216 1.238 . S
C231 O217 1.247 . S
C231 C225 1.507 1_455 S
H232 C205 0.930 . S
H233 C206 0.931 . S
H234 C207 0.930 . S
H235 C208 0.930 . S
H236 C227 0.930 . S
H237 C228 0.931 . S
H238 C229 0.930 . S
H239 C230 0.930 . S
Tb240 C250 2.825 . S
Tb240 O251 2.347 . S
Tb240 O254 2.366 . S
Tb240 O259 2.418 . S
Tb240 O260 2.384 . S
Tb240 O263 2.479 . S
Tb240 O264 2.471 . S
Eu241 O252 2.418 . S
Eu241 O253 2.384 . S
Eu241 O256 2.479 . S
Eu241 O257 2.471 . S
Eu241 O258 2.347 . S
Eu241 O261 2.366 . S
Eu241 C271 2.825 . S
C242 O258 1.259 . S
C242 O259 1.265 . S
C243 O260 1.255 . S
C243 O261 1.265 . S
C244 C246 1.380 . S
C244 C247 1.374 . S
C244 C250 1.507 . S
C245 C246 1.384 . S
C245 C249 1.387 . S
C245 H272 0.930 . S
C246 C244 1.380 . S
C246 C245 1.384 . S
C246 H273 0.931 . S
C247 C244 1.374 . S
C247 C248 1.390 . S
C247 H274 0.930 . S
C248 C247 1.390 . S
C248 C249 1.391 . S
C248 H275 0.930 . S
C249 C245 1.387 . S
C249 C248 1.391 . S
C250 Tb240 2.825 . S
C250 C244 1.507 . S
C250 O263 1.238 . S
C250 O264 1.247 . S
O251 Tb240 2.347 . S
O251 C255 1.259 . S
O252 Eu241 2.418 . S
O252 C255 1.265 . S
O253 Eu241 2.384 . S
O253 C262 1.255 . S
O254 Tb240 2.366 . S
O254 C262 1.265 . S
C255 O251 1.259 . S
C255 O252 1.265 . S
O256 Eu241 2.479 . S
O256 C271 1.238 . S
O257 Eu241 2.471 . S
O257 C271 1.247 . S
O258 Eu241 2.347 . S
O258 C242 1.259 . S
O259 Tb240 2.418 . S
O259 C242 1.265 . S
O260 Tb240 2.384 . S
O260 C243 1.255 . S
O261 Eu241 2.366 . S
O261 C243 1.265 . S
C262 O253 1.255 . S
C262 O254 1.265 . S
O263 Tb240 2.479 . S
O263 C250 1.238 . S
O264 Tb240 2.471 . S
O264 C250 1.247 . S
C265 C268 1.380 . S
C265 C269 1.374 . S
C265 C271 1.507 . S
C266 C267 1.387 . S
C266 C270 1.391 . S
C267 C266 1.387 . S
C267 C268 1.384 . S
C267 H276 0.930 . S
C268 C265 1.380 . S
C268 C267 1.384 . S
C268 H277 0.931 . S
C269 C265 1.374 . S
C269 C270 1.390 . S
C269 H278 0.930 . S
C270 C266 1.391 . S
C270 C269 1.390 . S
C270 H279 0.930 . S
C271 Eu241 2.825 . S
C271 O256 1.238 . S
C271 O257 1.247 . S
C271 C265 1.507 . S
H272 C245 0.930 . S
H273 C246 0.931 . S
H274 C247 0.930 . S
H275 C248 0.930 . S
H276 C267 0.930 . S
H277 C268 0.931 . S
H278 C269 0.930 . S
H279 C270 0.930 . S
Tb280 C290 2.825 . S
Tb280 O291 2.347 . S
Tb280 O294 2.366 . S
Tb280 O299 2.418 . S
Tb280 O300 2.384 . S
Tb280 O303 2.479 . S
Tb280 O304 2.471 . S
Eu281 O292 2.418 . S
Eu281 O293 2.384 . S
Eu281 O296 2.479 . S
Eu281 O297 2.471 . S
Eu281 O298 2.347 . S
Eu281 O301 2.366 . S
Eu281 C311 2.822 1_655 S
C282 O298 1.259 . S
C282 O299 1.265 . S
C283 O300 1.255 . S
C283 O301 1.265 . S
C284 C286 1.380 . S
C284 C287 1.374 . S
C284 C290 1.507 . S
C285 C286 1.384 . S
C285 C289 1.387 . S
C285 H312 0.930 . S
C286 C284 1.380 . S
C286 C285 1.384 . S
C286 H313 0.931 . S
C287 C284 1.374 . S
C287 C288 1.390 . S
C287 H314 0.930 . S
C288 C287 1.390 . S
C288 C289 1.391 . S
C288 H315 0.930 . S
C289 C285 1.387 . S
C289 C288 1.391 . S
C290 Tb280 2.825 . S
C290 C284 1.507 . S
C290 O303 1.238 . S
C290 O304 1.247 . S
O291 Tb280 2.347 . S
O291 C295 1.259 . S
O292 Eu281 2.418 . S
O292 C295 1.265 . S
O293 Eu281 2.384 . S
O293 C302 1.255 . S
O294 Tb280 2.366 . S
O294 C302 1.265 . S
C295 O291 1.259 . S
C295 O292 1.265 . S
O296 Eu281 2.479 . S
O296 C311 1.236 1_655 S
O297 Eu281 2.471 . S
O297 C311 1.246 1_655 S
O298 Eu281 2.347 . S
O298 C282 1.259 . S
O299 Tb280 2.418 . S
O299 C282 1.265 . S
O300 Tb280 2.384 . S
O300 C283 1.255 . S
O301 Eu281 2.366 . S
O301 C283 1.265 . S
C302 O293 1.255 . S
C302 O294 1.265 . S
O303 Tb280 2.479 . S
O303 C290 1.238 . S
O304 Tb280 2.471 . S
O304 C290 1.247 . S
C305 C308 1.380 . S
C305 C309 1.374 . S
C305 C311 1.510 . S
C306 C307 1.387 . S
C306 C310 1.391 . S
C307 C306 1.387 . S
C307 C308 1.384 . S
C307 H316 0.930 . S
C308 C305 1.380 . S
C308 C307 1.384 . S
C308 H317 0.931 . S
C309 C305 1.374 . S
C309 C310 1.390 . S
C309 H318 0.930 . S
C310 C306 1.391 . S
C310 C309 1.390 . S
C310 H319 0.930 . S
C311 Eu281 2.822 1_455 S
C311 O296 1.236 1_455 S
C311 O297 1.246 1_455 S
C311 C305 1.510 . S
H312 C285 0.930 . S
H313 C286 0.931 . S
H314 C287 0.930 . S
H315 C288 0.930 . S
H316 C307 0.930 . S
H317 C308 0.931 . S
H318 C309 0.930 . S
H319 C310 0.930 . S
Tb320 C330 2.825 . S
Tb320 O331 2.347 . S
Tb320 O334 2.366 . S
Tb320 O339 2.418 . S
Tb320 O340 2.384 . S
Tb320 O343 2.479 . S
Tb320 O344 2.471 . S
Eu321 O332 2.418 . S
Eu321 O333 2.384 . S
Eu321 O336 2.479 . S
Eu321 O337 2.471 . S
Eu321 O338 2.347 . S
Eu321 O341 2.366 . S
Eu321 C351 2.825 . S
C322 O338 1.259 . S
C322 O339 1.265 . S
C323 O340 1.255 . S
C323 O341 1.265 . S
C324 C326 1.380 . S
C324 C327 1.374 . S
C324 C330 1.507 . S
C325 C326 1.384 . S
C325 C329 1.387 . S
C325 H352 0.930 1_655 S
C326 C324 1.380 . S
C326 C325 1.384 . S
C326 H353 0.931 . S
C327 C324 1.374 . S
C327 C328 1.390 . S
C327 H354 0.930 . S
C328 C327 1.390 . S
C328 C329 1.391 . S
C328 H355 0.930 . S
C329 C325 1.387 . S
C329 C328 1.391 . S
C330 Tb320 2.825 . S
C330 C324 1.507 . S
C330 O343 1.238 . S
C330 O344 1.247 . S
O331 Tb320 2.347 . S
O331 C335 1.259 . S
O332 Eu321 2.418 . S
O332 C335 1.265 . S
O333 Eu321 2.384 . S
O333 C342 1.255 . S
O334 Tb320 2.366 . S
O334 C342 1.265 . S
C335 O331 1.259 . S
C335 O332 1.265 . S
O336 Eu321 2.479 . S
O336 C351 1.238 . S
O337 Eu321 2.471 . S
O337 C351 1.247 . S
O338 Eu321 2.347 . S
O338 C322 1.259 . S
O339 Tb320 2.418 . S
O339 C322 1.265 . S
O340 Tb320 2.384 . S
O340 C323 1.255 . S
O341 Eu321 2.366 . S
O341 C323 1.265 . S
C342 O333 1.255 . S
C342 O334 1.265 . S
O343 Tb320 2.479 . S
O343 C330 1.238 . S
O344 Tb320 2.471 . S
O344 C330 1.247 . S
C345 C348 1.380 . S
C345 C349 1.374 . S
C345 C351 1.507 . S
C346 C347 1.387 . S
C346 C350 1.391 . S
C347 C346 1.387 . S
C347 C348 1.384 . S
C347 H356 0.930 . S
C348 C345 1.380 . S
C348 C347 1.384 . S
C348 H357 0.931 . S
C349 C345 1.374 . S
C349 C350 1.390 . S
C349 H358 0.930 . S
C350 C346 1.391 . S
C350 C349 1.390 . S
C350 H359 0.930 . S
C351 Eu321 2.825 . S
C351 O336 1.238 . S
C351 O337 1.247 . S
C351 C345 1.507 . S
H352 C325 0.930 1_455 S
H353 C326 0.931 . S
H354 C327 0.930 . S
H355 C328 0.930 . S
H356 C347 0.930 . S
H357 C348 0.931 . S
H358 C349 0.930 . S
H359 C350 0.930 . S
H360 C366 0.930 . S
H361 C370 0.930 . S
H362 C375 0.929 . S
H363 C373 0.929 . S
H364 C368 0.929 . S
H365 C374 0.929 . S
C366 H360 0.930 . S
C366 C367 1.367 1_554 S
C366 C374 1.378 . S
C367 C366 1.367 1_556 S
C367 C375 1.433 . S
C368 H364 0.929 . S
C368 C370 1.378 . S
C368 C372 1.359 . S
C369 C372 1.465 . S
C369 C374 1.350 1_556 S
C369 N377 1.427 . S
C370 H361 0.930 . S
C370 C368 1.378 . S
C370 C371 1.367 1_556 S
C371 C370 1.367 1_554 S
C371 C373 1.433 . S
C372 C368 1.359 . S
C372 C369 1.465 . S
C372 N376 1.416 1_556 S
C373 H363 0.929 . S
C373 C371 1.433 . S
C373 N376 1.384 . S
C374 H365 0.929 . S
C374 C366 1.378 . S
C374 C369 1.350 1_554 S
C375 H362 0.929 . S
C375 C367 1.433 . S
C375 N377 1.384 . S
N376 C372 1.416 1_554 S
N376 C373 1.384 . S
N377 C369 1.427 . S
N377 C375 1.384 . S
H378 C384 0.930 . S
H379 C388 0.930 . S
H380 C393 0.929 . S
H381 C391 0.929 . S
H382 C386 0.929 . S
H383 C392 0.929 . S
C384 H378 0.930 . S
C384 C385 1.367 . S
C384 C392 1.378 . S
C385 C384 1.367 . S
C385 C393 1.433 1_556 S
C386 H382 0.929 . S
C386 C388 1.378 . S
C386 C390 1.350 1_554 S
C387 C390 1.463 . S
C387 C392 1.350 . S
C387 N395 1.427 1_556 S
C388 H379 0.930 . S
C388 C386 1.378 . S
C388 C389 1.367 1_554 S
C389 C388 1.367 1_556 S
C389 C391 1.433 . S
C390 C386 1.350 1_556 S
C390 C387 1.463 . S
C390 N394 1.427 . S
C391 H381 0.929 . S
C391 C389 1.433 . S
C391 N394 1.384 . S
C392 H383 0.929 . S
C392 C384 1.378 . S
C392 C387 1.350 . S
C393 H380 0.929 . S
C393 C385 1.433 1_554 S
C393 N395 1.384 . S
N394 C390 1.427 . S
N394 C391 1.384 . S
N395 C387 1.427 1_554 S
N395 C393 1.384 . S
H396 C402 0.930 . S
H397 C406 0.930 . S
H398 C411 0.929 . S
H399 C409 0.929 . S
H400 C404 0.929 . S
H401 C410 0.929 . S
C402 H396 0.930 . S
C402 C403 1.367 . S
C402 C410 1.378 . S
C403 C402 1.367 . S
C403 C411 1.433 1_554 S
C404 H400 0.929 . S
C404 C406 1.378 . S
C404 C408 1.330 1_556 S
C405 C408 1.462 . S
C405 C410 1.350 . S
C405 N413 1.427 1_554 S
C406 H397 0.930 . S
C406 C404 1.378 . S
C406 C407 1.367 1_556 S
C407 C406 1.367 1_554 S
C407 C409 1.433 . S
C408 C404 1.330 1_554 S
C408 C405 1.462 . S
C408 N412 1.450 . S
C409 H399 0.929 . S
C409 C407 1.433 . S
C409 N412 1.384 . S
C410 H401 0.929 . S
C410 C402 1.378 . S
C410 C405 1.350 . S
C411 H398 0.929 . S
C411 C403 1.433 1_556 S
C411 N413 1.384 . S
N412 C408 1.450 . S
N412 C409 1.384 . S
N413 C405 1.427 1_556 S
N413 C411 1.384 . S
H414 C420 0.930 . S
H415 C424 0.930 . S
H416 C429 0.929 . S
H417 C427 0.929 . S
H418 C422 0.929 . S
H419 C428 0.929 . S
C420 H414 0.930 . S
C420 C421 1.367 1_556 S
C420 C428 1.378 . S
C421 C420 1.367 1_554 S
C421 C429 1.433 . S
C422 H418 0.929 . S
C422 C424 1.378 . S
C422 C426 1.350 . S
C423 C426 1.463 . S
C423 C428 1.350 1_554 S
C423 N431 1.427 . S
C424 H415 0.930 . S
C424 C422 1.378 . S
C424 C425 1.367 . S
C425 C424 1.367 . S
C425 C427 1.433 1_554 S
C426 C422 1.350 . S
C426 C423 1.463 . S
C426 N430 1.427 1_554 S
C427 H417 0.929 . S
C427 C425 1.433 1_556 S
C427 N430 1.384 . S
C428 H419 0.929 . S
C428 C420 1.378 . S
C428 C423 1.350 1_556 S
C429 H416 0.929 . S
C429 C421 1.433 . S
C429 N431 1.384 . S
N430 C426 1.427 1_556 S
N430 C427 1.384 . S
N431 C423 1.427 . S
N431 C429 1.384 . S
H432 C438 0.930 . S
H433 C442 0.930 . S
H434 C447 0.929 . S
H435 C445 0.929 . S
H436 C440 0.929 . S
H437 C446 0.929 . S
C438 H432 0.930 . S
C438 C439 1.367 1_556 S
C438 C446 1.378 . S
C439 C438 1.367 1_554 S
C439 C447 1.433 . S
C440 H436 0.929 . S
C440 C442 1.378 . S
C440 C444 1.350 . S
C441 C444 1.463 . S
C441 C446 1.350 1_554 S
C441 N449 1.427 . S
C442 H433 0.930 . S
C442 C440 1.378 . S
C442 C443 1.367 . S
C443 C442 1.367 . S
C443 C445 1.433 1_554 S
C444 C440 1.350 . S
C444 C441 1.463 . S
C444 N448 1.427 1_554 S
C445 H435 0.929 . S
C445 C443 1.433 1_556 S
C445 N448 1.384 . S
C446 H437 0.929 . S
C446 C438 1.378 . S
C446 C441 1.350 1_556 S
C447 H434 0.929 . S
C447 C439 1.433 . S
C447 N449 1.384 . S
N448 C444 1.427 1_556 S
N448 C445 1.384 . S
N449 C441 1.427 . S
N449 C447 1.384 . S
H450 C456 0.930 . S
H451 C460 0.930 . S
H452 C465 0.929 . S
H453 C463 0.929 . S
H454 C458 0.929 . S
H455 C464 0.929 . S
C456 H450 0.930 . S
C456 C457 1.367 1_556 S
C456 C464 1.378 . S
C457 C456 1.367 1_554 S
C457 C465 1.433 . S
C458 H454 0.929 . S
C458 C460 1.378 . S
C458 C462 1.350 . S
C459 C462 1.463 . S
C459 C464 1.350 1_554 S
C459 N467 1.427 . S
C460 H451 0.930 . S
C460 C458 1.378 . S
C460 C461 1.367 . S
C461 C460 1.367 . S
C461 C463 1.433 1_554 S
C462 C458 1.350 . S
C462 C459 1.463 . S
C462 N466 1.427 1_554 S
C463 H453 0.929 . S
C463 C461 1.433 1_556 S
C463 N466 1.384 . S
C464 H455 0.929 . S
C464 C456 1.378 . S
C464 C459 1.350 1_556 S
C465 H452 0.929 . S
C465 C457 1.433 . S
C465 N467 1.384 . S
N466 C462 1.427 1_556 S
N466 C463 1.384 . S
N467 C459 1.427 . S
N467 C465 1.384 . S
H468 C474 0.930 . S
H469 C478 0.930 . S
H470 C483 0.929 . S
H471 C481 0.929 . S
H472 C476 0.929 . S
H473 C482 0.929 . S
C474 H468 0.930 . S
C474 C475 1.367 . S
C474 C482 1.378 . S
C475 C474 1.367 . S
C475 C483 1.433 . S
C476 H472 0.929 . S
C476 C478 1.378 . S
C476 C480 1.350 . S
C477 C480 1.463 1_655 S
C477 C482 1.350 . S
C477 N485 1.427 . S
C478 H469 0.930 . S
C478 C476 1.378 . S
C478 C479 1.367 . S
C479 C478 1.367 . S
C479 C481 1.433 . S
C480 C476 1.350 . S
C480 C477 1.463 1_455 S
C480 N484 1.427 . S
C481 H471 0.929 . S
C481 C479 1.433 . S
C481 N484 1.384 . S
C482 H473 0.929 . S
C482 C474 1.378 . S
C482 C477 1.350 . S
C483 H470 0.929 . S
C483 C475 1.433 . S
C483 N485 1.384 . S
N484 C480 1.427 . S
N484 C481 1.384 . S
N485 C477 1.427 . S
N485 C483 1.384 . S
H486 C492 0.930 . S
H487 C496 0.930 . S
H488 C501 0.929 . S
H489 C499 0.929 . S
H490 C494 0.929 . S
H491 C500 0.929 . S
C492 H486 0.930 . S
C492 C493 1.367 . S
C492 C500 1.378 . S
C493 C492 1.367 . S
C493 C501 1.433 . S
C494 H490 0.929 . S
C494 C496 1.378 . S
C494 C498 1.350 . S
C495 C498 1.463 . S
C495 C500 1.350 . S
C495 N503 1.427 . S
C496 H487 0.930 . S
C496 C494 1.378 . S
C496 C497 1.367 . S
C497 C496 1.367 . S
C497 C499 1.433 . S
C498 C494 1.350 . S
C498 C495 1.463 . S
C498 N502 1.427 . S
C499 H489 0.929 . S
C499 C497 1.433 . S
C499 N502 1.384 . S
C500 H491 0.929 . S
C500 C492 1.378 . S
C500 C495 1.350 . S
C501 H488 0.929 . S
C501 C493 1.433 . S
C501 N503 1.384 . S
N502 C498 1.427 . S
N502 C499 1.384 . S
N503 C495 1.427 . S
N503 C501 1.384 . S
H504 C510 0.930 . S
H505 C514 0.930 . S
H506 C519 0.929 . S
H507 C517 0.929 . S
H508 C512 0.929 . S
H509 C518 0.929 1_565 S
C510 H504 0.930 . S
C510 C511 1.367 . S
C510 C518 1.378 . S
C511 C510 1.367 . S
C511 C519 1.433 . S
C512 H508 0.929 . S
C512 C514 1.378 . S
C512 C516 1.350 . S
C513 C516 1.463 . S
C513 C518 1.350 1_565 S
C513 N521 1.427 1_565 S
C514 H505 0.930 . S
C514 C512 1.378 . S
C514 C515 1.367 . S
C515 C514 1.367 . S
C515 C517 1.433 . S
C516 C512 1.350 . S
C516 C513 1.463 . S
C516 N520 1.427 . S
C517 H507 0.929 . S
C517 C515 1.433 . S
C517 N520 1.384 . S
C518 H509 0.929 1_545 S
C518 C510 1.378 . S
C518 C513 1.350 1_545 S
C519 H506 0.929 . S
C519 C511 1.433 . S
C519 N521 1.384 . S
N520 C516 1.427 . S
N520 C517 1.384 . S
N521 C513 1.427 1_545 S
N521 C519 1.384 . S
H522 C528 0.930 . S
H523 C532 0.930 . S
H524 C537 0.929 . S
H525 C535 0.929 . S
H526 C530 0.929 . S
H527 C536 0.929 . S
C528 H522 0.930 . S
C528 C529 1.367 . S
C528 C536 1.378 . S
C529 C528 1.367 . S
C529 C537 1.433 . S
C530 H526 0.929 . S
C530 C532 1.378 . S
C530 C534 1.350 . S
C531 C534 1.463 . S
C531 C536 1.350 . S
C531 N539 1.427 . S
C532 H523 0.930 . S
C532 C530 1.378 . S
C532 C533 1.367 . S
C533 C532 1.367 . S
C533 C535 1.433 . S
C534 C530 1.350 . S
C534 C531 1.463 . S
C534 N538 1.427 . S
C535 H525 0.929 . S
C535 C533 1.433 . S
C535 N538 1.384 . S
C536 H527 0.929 . S
C536 C528 1.378 . S
C536 C531 1.350 . S
C537 H524 0.929 . S
C537 C529 1.433 . S
C537 N539 1.384 . S
N538 C534 1.427 . S
N538 C535 1.384 . S
N539 C531 1.427 . S
N539 C537 1.384 . S
H540 C546 0.930 . S
H541 C550 0.930 . S
H542 C555 0.929 . S
H543 C553 0.929 . S
H544 C548 0.929 . S
H545 C554 0.929 . S
C546 H540 0.930 . S
C546 C547 1.367 . S
C546 C554 1.378 . S
C547 C546 1.367 . S
C547 C555 1.433 . S
C548 H544 0.929 . S
C548 C550 1.378 . S
C548 C552 1.350 . S
C549 C552 1.463 . S
C549 C554 1.350 . S
C549 N557 1.427 . S
C550 H541 0.930 . S
C550 C548 1.378 . S
C550 C551 1.367 . S
C551 C550 1.367 . S
C551 C553 1.433 . S
C552 C548 1.350 . S
C552 C549 1.463 . S
C552 N556 1.427 . S
C553 H543 0.929 . S
C553 C551 1.433 . S
C553 N556 1.384 . S
C554 H545 0.929 . S
C554 C546 1.378 . S
C554 C549 1.350 . S
C555 H542 0.929 . S
C555 C547 1.433 . S
C555 N557 1.384 . S
N556 C552 1.427 . S
N556 C553 1.384 . S
N557 C549 1.427 . S
N557 C555 1.384 . S
H558 C564 0.930 . S
H559 C568 0.930 . S
H560 C573 0.929 . S
H561 C571 0.929 . S
H562 C566 0.929 . S
H563 C572 0.929 . S
C564 H558 0.930 . S
C564 C565 1.367 . S
C564 C572 1.378 . S
C565 C564 1.367 . S
C565 C573 1.433 . S
C566 H562 0.929 . S
C566 C568 1.378 . S
C566 C570 1.350 . S
C567 C570 1.463 . S
C567 C572 1.350 . S
C567 N575 1.427 . S
C568 H559 0.930 . S
C568 C566 1.378 . S
C568 C569 1.367 . S
C569 C568 1.367 . S
C569 C571 1.433 . S
C570 C566 1.350 . S
C570 C567 1.463 . S
C570 N574 1.427 . S
C571 H561 0.929 . S
C571 C569 1.433 . S
C571 N574 1.384 . S
C572 H563 0.929 . S
C572 C564 1.378 . S
C572 C567 1.350 . S
C573 H560 0.929 . S
C573 C565 1.433 . S
C573 N575 1.384 . S
N574 C570 1.427 . S
N574 C571 1.384 . S
N575 C567 1.427 . S
N575 C573 1.384 . S
H576 C582 0.930 . S
H577 C586 0.930 . S
H578 C591 0.929 . S
H579 C589 0.929 . S
H580 C584 0.929 . S
H581 C590 0.929 . S
C582 H576 0.930 . S
C582 C583 1.367 . S
C582 C590 1.378 . S
C583 C582 1.367 . S
C583 C591 1.433 . S
C584 H580 0.929 . S
C584 C586 1.378 . S
C584 C588 1.350 . S
C585 C588 1.463 . S
C585 C590 1.350 . S
C585 N593 1.427 . S
C586 H577 0.930 . S
C586 C584 1.378 . S
C586 C587 1.367 . S
C587 C586 1.367 . S
C587 C589 1.433 . S
C588 C584 1.350 . S
C588 C585 1.463 . S
C588 N592 1.427 . S
C589 H579 0.929 . S
C589 C587 1.433 . S
C589 N592 1.384 . S
C590 H581 0.929 . S
C590 C582 1.378 . S
C590 C585 1.350 . S
C591 H578 0.929 . S
C591 C583 1.433 . S
C591 N593 1.384 . S
N592 C588 1.427 . S
N592 C589 1.384 . S
N593 C585 1.427 . S
N593 C591 1.384 . S
H594 C600 0.930 . S
H595 C604 0.930 . S
H596 C609 0.929 . S
H597 C607 0.929 . S
H598 C602 0.929 . S
H599 C608 0.929 . S
C600 H594 0.930 . S
C600 C601 1.367 . S
C600 C608 1.378 . S
C601 C600 1.367 . S
C601 C609 1.433 . S
C602 H598 0.929 . S
C602 C604 1.378 . S
C602 C606 1.350 . S
C603 C606 1.463 . S
C603 C608 1.350 . S
C603 N611 1.427 . S
C604 H595 0.930 . S
C604 C602 1.378 . S
C604 C605 1.367 . S
C605 C604 1.367 . S
C605 C607 1.433 . S
C606 C602 1.350 . S
C606 C603 1.463 . S
C606 N610 1.427 . S
C607 H597 0.929 . S
C607 C605 1.433 . S
C607 N610 1.384 . S
C608 H599 0.929 . S
C608 C600 1.378 . S
C608 C603 1.350 . S
C609 H596 0.929 . S
C609 C601 1.433 . S
C609 N611 1.384 . S
N610 C606 1.427 . S
N610 C607 1.384 . S
N611 C603 1.427 . S
N611 C609 1.384 . S
H612 C618 0.930 . S
H613 C622 0.930 . S
H614 C627 0.929 . S
H615 C625 0.929 . S
H616 C620 0.929 . S
H617 C626 0.929 . S
C618 H612 0.930 . S
C618 C619 1.367 . S
C618 C626 1.378 . S
C619 C618 1.367 . S
C619 C627 1.433 . S
C620 H616 0.929 . S
C620 C622 1.378 . S
C620 C624 1.350 . S
C621 C624 1.463 . S
C621 C626 1.350 . S
C621 N629 1.427 . S
C622 H613 0.930 . S
C622 C620 1.378 . S
C622 C623 1.367 . S
C623 C622 1.367 . S
C623 C625 1.433 . S
C624 C620 1.350 . S
C624 C621 1.463 . S
C624 N628 1.427 . S
C625 H615 0.929 . S
C625 C623 1.433 . S
C625 N628 1.384 . S
C626 H617 0.929 . S
C626 C618 1.378 . S
C626 C621 1.350 . S
C627 H614 0.929 . S
C627 C619 1.433 . S
C627 N629 1.384 . S
N628 C624 1.427 . S
N628 C625 1.384 . S
N629 C621 1.427 . S
N629 C627 1.384 . S
H630 C636 0.930 . S
H631 C640 0.930 . S
H632 C645 0.929 . S
H633 C643 0.929 . S
H634 C638 0.929 . S
H635 C644 0.929 . S
C636 H630 0.930 . S
C636 C637 1.367 . S
C636 C644 1.378 . S
C637 C636 1.367 . S
C637 C645 1.433 . S
C638 H634 0.929 . S
C638 C640 1.378 1_565 S
C638 C642 1.350 . S
C639 C642 1.463 . S
C639 C644 1.350 . S
C639 N647 1.427 . S
C640 H631 0.930 . S
C640 C638 1.378 1_545 S
C640 C641 1.367 . S
C641 C640 1.367 . S
C641 C643 1.433 . S
C642 C638 1.350 . S
C642 C639 1.463 . S
C642 N646 1.427 1_565 S
C643 H633 0.929 . S
C643 C641 1.433 . S
C643 N646 1.384 . S
C644 H635 0.929 . S
C644 C636 1.378 . S
C644 C639 1.350 . S
C645 H632 0.929 . S
C645 C637 1.433 . S
C645 N647 1.384 . S
N646 C642 1.427 1_545 S
N646 C643 1.384 . S
N647 C639 1.427 . S
N647 C645 1.384 . S
H648 C654 0.930 . S
H649 C658 0.930 . S
H650 C663 0.929 . S
H651 C661 0.929 . S
H652 C656 0.929 . S
H653 C662 0.929 1_545 S
C654 H648 0.930 . S
C654 C655 1.367 . S
C654 C662 1.378 . S
C655 C654 1.367 . S
C655 C663 1.433 . S
C656 H652 0.929 . S
C656 C658 1.378 . S
C656 C660 1.350 . S
C657 C660 1.463 . S
C657 C662 1.350 . S
C657 N665 1.427 . S
C658 H649 0.930 . S
C658 C656 1.378 . S
C658 C659 1.367 1_565 S
C659 C658 1.367 1_545 S
C659 C661 1.433 . S
C660 C656 1.350 . S
C660 C657 1.463 . S
C660 N664 1.427 1_565 S
C661 H651 0.929 . S
C661 C659 1.433 . S
C661 N664 1.384 . S
C662 H653 0.929 1_565 S
C662 C654 1.378 . S
C662 C657 1.350 . S
C663 H650 0.929 . S
C663 C655 1.433 . S
C663 N665 1.384 . S
N664 C660 1.427 1_545 S
N664 C661 1.384 . S
N665 C657 1.427 . S
N665 C663 1.384 . S
H666 C672 0.930 . S
H667 C676 0.930 . S
H668 C681 0.929 . S
H669 C679 0.929 . S
H670 C674 0.929 . S
H671 C680 0.929 . S
C672 H666 0.930 . S
C672 C673 1.367 . S
C672 C680 1.378 . S
C673 C672 1.367 . S
C673 C681 1.433 . S
C674 H670 0.929 . S
C674 C676 1.378 . S
C674 C678 1.350 . S
C675 C678 1.463 . S
C675 C680 1.350 . S
C675 N683 1.427 . S
C676 H667 0.930 . S
C676 C674 1.378 . S
C676 C677 1.367 . S
C677 C676 1.367 . S
C677 C679 1.433 . S
C678 C674 1.350 . S
C678 C675 1.463 . S
C678 N682 1.427 . S
C679 H669 0.929 . S
C679 C677 1.433 . S
C679 N682 1.384 . S
C680 H671 0.929 . S
C680 C672 1.378 . S
C680 C675 1.350 . S
C681 H668 0.929 . S
C681 C673 1.433 . S
C681 N683 1.384 . S
N682 C678 1.427 . S
N682 C679 1.384 . S
N683 C675 1.427 . S
N683 C681 1.384 . S
H684 C690 0.930 . S
H685 C694 0.930 . S
H686 C699 0.929 . S
H687 C697 0.929 . S
H688 C692 0.929 . S
H689 C698 0.929 . S
C690 H684 0.930 . S
C690 C691 1.367 . S
C690 C698 1.378 . S
C691 C690 1.367 . S
C691 C699 1.433 . S
C692 H688 0.929 . S
C692 C694 1.378 . S
C692 C696 1.350 . S
C693 C696 1.463 . S
C693 C698 1.350 . S
C693 N701 1.427 . S
C694 H685 0.930 . S
C694 C692 1.378 . S
C694 C695 1.367 . S
C695 C694 1.367 . S
C695 C697 1.433 . S
C696 C692 1.350 . S
C696 C693 1.463 . S
C696 N700 1.427 . S
C697 H687 0.929 . S
C697 C695 1.433 . S
C697 N700 1.384 . S
C698 H689 0.929 . S
C698 C690 1.378 . S
C698 C693 1.350 . S
C699 H686 0.929 . S
C699 C691 1.433 . S
C699 N701 1.384 . S
N700 C696 1.427 . S
N700 C697 1.384 . S
N701 C693 1.427 . S
N701 C699 1.384 . S
H702 C708 0.930 . S
H703 C712 0.930 . S
H704 C717 0.929 . S
H705 C715 0.929 . S
H706 C710 0.929 . S
H707 C716 0.929 . S
C708 H702 0.930 . S
C708 C709 1.367 . S
C708 C716 1.378 . S
C709 C708 1.367 . S
C709 C717 1.433 . S
C710 H706 0.929 . S
C710 C712 1.378 . S
C710 C714 1.350 . S
C711 C714 1.463 . S
C711 C716 1.350 . S
C711 N719 1.427 . S
C712 H703 0.930 . S
C712 C710 1.378 . S
C712 C713 1.367 . S
C713 C712 1.367 . S
C713 C715 1.433 . S
C714 C710 1.350 . S
C714 C711 1.463 . S
C714 N718 1.427 . S
C715 H705 0.929 . S
C715 C713 1.433 . S
C715 N718 1.384 . S
C716 H707 0.929 . S
C716 C708 1.378 . S
C716 C711 1.350 . S
C717 H704 0.929 . S
C717 C709 1.433 . S
C717 N719 1.384 . S
N718 C714 1.427 . S
N718 C715 1.384 . S
N719 C711 1.427 . S
N719 C717 1.384 . S
H720 C726 0.930 1_545 S
H721 C730 0.930 . S
H722 C735 0.929 . S
H723 C733 0.929 . S
H724 C728 0.929 . S
H725 C734 0.929 . S
C726 H720 0.930 1_565 S
C726 C727 1.367 . S
C726 C734 1.378 . S
C727 C726 1.367 . S
C727 C735 1.433 . S
C728 H724 0.929 . S
C728 C730 1.378 . S
C728 C732 1.350 . S
C729 C732 1.463 . S
C729 C734 1.350 . S
C729 N737 1.427 . S
C730 H721 0.930 . S
C730 C728 1.378 . S
C730 C731 1.367 . S
C731 C730 1.367 . S
C731 C733 1.433 . S
C732 C728 1.350 . S
C732 C729 1.463 . S
C732 N736 1.427 . S
C733 H723 0.929 . S
C733 C731 1.433 . S
C733 N736 1.384 . S
C734 H725 0.929 . S
C734 C726 1.378 . S
C734 C729 1.350 . S
C735 H722 0.929 . S
C735 C727 1.433 . S
C735 N737 1.384 . S
N736 C732 1.427 . S
N736 C733 1.384 . S
N737 C729 1.427 . S
N737 C735 1.384 . S
H738 C744 0.930 . S
H739 C748 0.930 . S
H740 C753 0.929 . S
H741 C751 0.929 . S
H742 C746 0.929 . S
H743 C752 0.929 . S
C744 H738 0.930 . S
C744 C745 1.367 . S
C744 C752 1.378 . S
C745 C744 1.367 . S
C745 C753 1.433 1_545 S
C746 H742 0.929 . S
C746 C748 1.378 . S
C746 C750 1.350 . S
C747 C750 1.463 . S
C747 C752 1.350 . S
C747 N755 1.427 . S
C748 H739 0.930 . S
C748 C746 1.378 . S
C748 C749 1.367 . S
C749 C748 1.367 . S
C749 C751 1.433 . S
C750 C746 1.350 . S
C750 C747 1.463 . S
C750 N754 1.427 . S
C751 H741 0.929 . S
C751 C749 1.433 . S
C751 N754 1.384 . S
C752 H743 0.929 . S
C752 C744 1.378 . S
C752 C747 1.350 . S
C753 H740 0.929 . S
C753 C745 1.433 1_565 S
C753 N755 1.384 1_565 S
N754 C750 1.427 . S
N754 C751 1.384 . S
N755 C747 1.427 . S
N755 C753 1.384 1_545 S
H756 C762 0.930 . S
H757 C766 0.930 . S
H758 C771 0.929 . S
H759 C769 0.929 . S
H760 C764 0.929 . S
H761 C770 0.929 . S
C762 H756 0.930 . S
C762 C763 1.367 . S
C762 C770 1.378 . S
C763 C762 1.367 . S
C763 C771 1.433 . S
C764 H760 0.929 . S
C764 C766 1.378 . S
C764 C768 1.350 . S
C765 C768 1.463 . S
C765 C770 1.350 . S
C765 N773 1.427 . S
C766 H757 0.930 . S
C766 C764 1.378 . S
C766 C767 1.367 . S
C767 C766 1.367 . S
C767 C769 1.433 . S
C768 C764 1.350 . S
C768 C765 1.463 . S
C768 N772 1.427 . S
C769 H759 0.929 . S
C769 C767 1.433 . S
C769 N772 1.384 . S
C770 H761 0.929 . S
C770 C762 1.378 . S
C770 C765 1.350 . S
C771 H758 0.929 . S
C771 C763 1.433 . S
C771 N773 1.384 . S
N772 C768 1.427 . S
N772 C769 1.384 . S
N773 C765 1.427 . S
N773 C771 1.384 . S
H774 C780 0.930 . S
H775 C784 0.930 . S
H776 C789 0.929 . S
H777 C787 0.929 . S
H778 C782 0.929 . S
H779 C788 0.929 . S
C780 H774 0.930 . S
C780 C781 1.367 . S
C780 C788 1.378 . S
C781 C780 1.367 . S
C781 C789 1.433 . S
C782 H778 0.929 . S
C782 C784 1.378 . S
C782 C786 1.350 . S
C783 C786 1.463 . S
C783 C788 1.350 . S
C783 N791 1.427 . S
C784 H775 0.930 . S
C784 C782 1.378 . S
C784 C785 1.367 . S
C785 C784 1.367 . S
C785 C787 1.433 . S
C786 C782 1.350 . S
C786 C783 1.463 . S
C786 N790 1.427 . S
C787 H777 0.929 . S
C787 C785 1.433 . S
C787 N790 1.384 . S
C788 H779 0.929 . S
C788 C780 1.378 . S
C788 C783 1.350 . S
C789 H776 0.929 . S
C789 C781 1.433 . S
C789 N791 1.384 . S
N790 C786 1.427 . S
N790 C787 1.384 . S
N791 C783 1.427 . S
N791 C789 1.384 . S
H792 C798 0.930 . S
H793 C802 0.930 . S
H794 C807 0.929 . S
H795 C805 0.929 . S
H796 C800 0.929 . S
H797 C806 0.929 . S
C798 H792 0.930 . S
C798 C799 1.367 . S
C798 C806 1.378 . S
C799 C798 1.367 . S
C799 C807 1.433 . S
C800 H796 0.929 . S
C800 C802 1.378 . S
C800 C804 1.350 . S
C801 C804 1.463 . S
C801 C806 1.350 . S
C801 N809 1.427 . S
C802 H793 0.930 . S
C802 C800 1.378 . S
C802 C803 1.367 . S
C803 C802 1.367 . S
C803 C805 1.433 . S
C804 C800 1.350 . S
C804 C801 1.463 . S
C804 N808 1.427 . S
C805 H795 0.929 . S
C805 C803 1.433 . S
C805 N808 1.384 . S
C806 H797 0.929 . S
C806 C798 1.378 . S
C806 C801 1.350 . S
C807 H794 0.929 . S
C807 C799 1.433 . S
C807 N809 1.384 . S
N808 C804 1.427 . S
N808 C805 1.384 . S
N809 C801 1.427 . S
N809 C807 1.384 . S
H810 C816 0.930 . S
H811 C820 0.930 . S
H812 C825 0.929 . S
H813 C823 0.929 . S
H814 C818 0.929 . S
H815 C824 0.929 . S
C816 H810 0.930 . S
C816 C817 1.367 . S
C816 C824 1.378 . S
C817 C816 1.367 . S
C817 C825 1.433 . S
C818 H814 0.929 . S
C818 C820 1.378 . S
C818 C822 1.350 . S
C819 C822 1.463 1_565 S
C819 C824 1.350 . S
C819 N827 1.427 . S
C820 H811 0.930 . S
C820 C818 1.378 . S
C820 C821 1.367 . S
C821 C820 1.367 . S
C821 C823 1.433 . S
C822 C818 1.350 . S
C822 C819 1.463 1_545 S
C822 N826 1.427 . S
C823 H813 0.929 . S
C823 C821 1.433 . S
C823 N826 1.384 . S
C824 H815 0.929 . S
C824 C816 1.378 . S
C824 C819 1.350 . S
C825 H812 0.929 . S
C825 C817 1.433 . S
C825 N827 1.384 . S
N826 C822 1.427 . S
N826 C823 1.384 . S
N827 C819 1.427 . S
N827 C825 1.384 . S
H828 C834 0.930 . S
H829 C838 0.930 . S
H830 C843 0.929 . S
H831 C841 0.929 . S
H832 C836 0.929 . S
H833 C842 0.929 1_455 S
C834 H828 0.930 . S
C834 C835 1.367 . S
C834 C842 1.378 . S
C835 C834 1.367 . S
C835 C843 1.433 . S
C836 H832 0.929 . S
C836 C838 1.378 . S
C836 C840 1.350 . S
C837 C840 1.463 1_655 S
C837 C842 1.350 . S
C837 N845 1.427 . S
C838 H829 0.930 . S
C838 C836 1.378 . S
C838 C839 1.367 . S
C839 C838 1.367 . S
C839 C841 1.433 . S
C840 C836 1.350 . S
C840 C837 1.463 1_455 S
C840 N844 1.427 . S
C841 H831 0.929 . S
C841 C839 1.433 . S
C841 N844 1.384 . S
C842 H833 0.929 1_655 S
C842 C834 1.378 . S
C842 C837 1.350 . S
C843 H830 0.929 . S
C843 C835 1.433 . S
C843 N845 1.384 . S
N844 C840 1.427 . S
N844 C841 1.384 . S
N845 C837 1.427 . S
N845 C843 1.384 . S
C367 C49 0.674 . S
C371 C26 0.643 . S
C385 C83 3.363 1_556 S
C389 C62 3.422 . S
C403 C106 1.083 . S
C407 C3 1.076 . S
C421 C102 3.124 . S
C425 C43 3.097 . S
C439 C89 2.180 . S
C443 C22 2.300 . S
C457 C9 0.631 . S
C461 C66 0.371 . S
C475 C146 2.934 . S
C479 C163 2.888 . S
C493 C203 0.834 . S
C497 C186 0.861 . S
C511 C226 0.928 . S
C515 C123 0.920 . S
C529 C169 0.619 . S
C533 C222 0.521 . S
C547 C209 2.236 . S
C551 C142 2.350 . S
C565 C182 2.465 . S
C569 C129 2.433 . S
C583 C289 0.641 . S
C587 C266 0.581 . S
C601 C302 3.445 . S
C605 C323 3.389 . S
C619 C346 1.087 . S
C623 C243 1.077 . S
C637 C342 3.052 . S
C641 C283 3.024 . S
C655 C329 2.193 1_455 S
C659 C262 2.311 . S
C673 C249 0.616 . S
C677 C306 0.359 . S
C691 C215 2.273 . S
C695 C2 2.605 . S
C709 C135 1.970 . S
C713 C55 1.921 . S
C727 C82 3.045 . S
C731 C175 2.760 . S
C745 C95 2.288 . S
C749 C242 2.608 . S
C763 C15 1.872 . S
C767 C295 1.825 . S
C781 C322 3.006 . S
C785 C42 3.011 . S
C799 C122 2.677 . S
C803 C335 2.344 . S
C817 C162 2.058 . S
C821 C255 1.865 . S
C835 C282 2.910 . S
C839 C202 2.901 . S
