# Generated by pormake.
# Topology msp, (4)-cn, num edge types: 1
# Building blocks:
#     Node 0, Type 0, BuildingBlock: CEKHIL_clean_sbu_0, # of connection points: 4
#     Node 1, Type 0, BuildingBlock: CEKHIL_clean_sbu_0, # of connection points: 4
#     Node 2, Type 0, BuildingBlock: CEKHIL_clean_sbu_0, # of connection points: 4
#     Node 3, Type 0, BuildingBlock: CEKHIL_clean_sbu_0, # of connection points: 4
#     Node 4, Type 0, BuildingBlock: CEKHIL_clean_sbu_0, # of connection points: 4
#     Node 5, Type 0, BuildingBlock: CEKHIL_clean_sbu_0, # of connection points: 4
#     Node 6, Type 0, BuildingBlock: CEKHIL_clean_sbu_0, # of connection points: 4
#     Node 7, Type 0, BuildingBlock: CEKHIL_clean_sbu_0, # of connection points: 4
#     Edge 8, Type (0, 0), BuildingBlock: TEMPAE_clean_linker_10, # of connection points: 2
#     Edge 9, Type (0, 0), BuildingBlock: TEMPAE_clean_linker_10, # of connection points: 2
#     Edge 10, Type (0, 0), BuildingBlock: TEMPAE_clean_linker_10, # of connection points: 2
#     Edge 11, Type (0, 0), BuildingBlock: TEMPAE_clean_linker_10, # of connection points: 2
#     Edge 12, Type (0, 0), BuildingBlock: TEMPAE_clean_linker_10, # of connection points: 2
#     Edge 13, Type (0, 0), BuildingBlock: TEMPAE_clean_linker_10, # of connection points: 2
#     Edge 14, Type (0, 0), BuildingBlock: TEMPAE_clean_linker_10, # of connection points: 2
#     Edge 15, Type (0, 0), BuildingBlock: TEMPAE_clean_linker_10, # of connection points: 2
#     Edge 16, Type (0, 0), BuildingBlock: TEMPAE_clean_linker_10, # of connection points: 2
#     Edge 17, Type (0, 0), BuildingBlock: TEMPAE_clean_linker_10, # of connection points: 2
#     Edge 18, Type (0, 0), BuildingBlock: TEMPAE_clean_linker_10, # of connection points: 2
#     Edge 19, Type (0, 0), BuildingBlock: TEMPAE_clean_linker_10, # of connection points: 2
#     Edge 20, Type (0, 0), BuildingBlock: TEMPAE_clean_linker_10, # of connection points: 2
#     Edge 21, Type (0, 0), BuildingBlock: TEMPAE_clean_linker_10, # of connection points: 2
#     Edge 22, Type (0, 0), BuildingBlock: TEMPAE_clean_linker_10, # of connection points: 2
#     Edge 23, Type (0, 0), BuildingBlock: TEMPAE_clean_linker_10, # of connection points: 2
# Relax obj value: 0.161
# Max RMSD: 0.205
# Mean RMSD: 0.205
data_MOF--net-msp--node1-CEKHIL_clean_sbu_0--edge1-TEMPAE_clean_linker_10
_symmetry_space_group_name_H-M    P1
_symmetry_Int_Tables_number       1
_symmetry_cell_setting            triclinic
loop_
_symmetry_equiv_pos_as_xyz
'x, y, z'
_cell_length_a     23.699296
_cell_length_b     23.163483
_cell_length_c     39.448219
_cell_angle_alpha  90.022646
_cell_angle_beta   98.845934
_cell_angle_gamma 90.123604
loop_
_atom_site_label
_atom_site_type_symbol
_atom_site_fract_x
_atom_site_fract_y
_atom_site_fract_z
_atom_type_partial_charge
Co0 Co 0.00192 0.29421 0.35056 0.0
O1 O 0.93894 0.3055 0.31468 0.0
O2 O 0.96104 0.22204 0.34105 0.0
C3 C 0.98641 0.37077 0.38252 0.0
O4 O 0.06402 0.26843 0.38908 0.0
Co5 Co 0.09689 0.38939 0.36015 0.0
O6 O 0.11944 0.34668 0.40372 0.0
C7 C 0.09674 0.30114 0.30651 0.0
C8 C 0.92695 0.25155 0.31844 0.0
C9 C 0.10421 0.29492 0.40878 0.0
O10 O 0.05394 0.27564 0.31645 0.0
O11 O 0.11708 0.3495 0.31853 0.0
O12 O 0.95801 0.3233 0.38455 0.0
O13 O 0.01673 0.37306 0.35802 0.0
Co14 Co 0.48233 0.32533 0.64808 0.0
O15 O 0.52934 0.34421 0.69073 0.0
O16 O 0.52848 0.25974 0.66389 0.0
C17 C 0.50265 0.40584 0.62046 0.0
O18 O 0.44087 0.29055 0.60358 0.0
Co19 Co 0.3801 0.40247 0.61702 0.0
O20 O 0.39032 0.36132 0.57442 0.0
C21 C 0.36478 0.3121 0.66819 0.0
C22 C 0.5509 0.2931 0.68892 0.0
C23 C 0.41125 0.31068 0.57611 0.0
O24 O 0.4181 0.29885 0.67227 0.0
O25 O 0.3422 0.35204 0.64816 0.0
O26 O 0.5373 0.36229 0.62336 0.0
O27 O 0.45961 0.40149 0.63687 0.0
Co28 Co 0.98326 0.6761 0.63267 0.0
O29 O 0.03125 0.63996 0.67017 0.0
O30 O 0.02782 0.73418 0.66013 0.0
C31 C 0.00421 0.6142 0.59236 0.0
O32 O 0.94053 0.72799 0.59546 0.0
Co33 Co 0.88208 0.60691 0.59144 0.0
O34 O 0.88955 0.66827 0.55745 0.0
C35 C 0.86711 0.6644 0.65629 0.0
C36 C 0.05121 0.6911 0.67827 0.0
C37 C 0.91045 0.71785 0.56603 0.0
O38 O 0.91862 0.68414 0.66026 0.0
O39 O 0.84615 0.63082 0.63176 0.0
O40 O 0.03857 0.6567 0.60234 0.0
O41 O 0.96223 0.60749 0.60927 0.0
Co42 Co 0.51457 0.6877 0.36266 0.0
O43 O 0.45491 0.65896 0.32914 0.0
O44 O 0.4737 0.75185 0.33862 0.0
C45 C 0.49492 0.63124 0.40525 0.0
O46 O 0.57289 0.73098 0.3969 0.0
Co47 Co 0.60929 0.60006 0.39173 0.0
O48 O 0.62353 0.66103 0.42743 0.0
C49 C 0.61344 0.6547 0.32504 0.0
C50 C 0.44122 0.71213 0.3222 0.0
C51 C 0.6086 0.71374 0.42284 0.0
O52 O 0.56987 0.68565 0.32886 0.0
O53 O 0.63328 0.61469 0.34586 0.0
O54 O 0.46697 0.67891 0.39831 0.0
O55 O 0.52859 0.6162 0.38402 0.0
Co56 Co 0.50578 0.82649 0.84454 0.0
O57 O 0.44275 0.83615 0.80838 0.0
O58 O 0.469 0.75271 0.83371 0.0
C59 C 0.48523 0.90029 0.8772 0.0
O60 O 0.56805 0.80141 0.88309 0.0
Co61 Co 0.59655 0.92506 0.85814 0.0
O62 O 0.61822 0.88123 0.90143 0.0
C63 C 0.60147 0.84228 0.80187 0.0
C64 C 0.43354 0.78138 0.81145 0.0
C65 C 0.60552 0.82815 0.90455 0.0
O66 O 0.55944 0.81357 0.81054 0.0
O67 O 0.61962 0.89015 0.81578 0.0
O68 O 0.45946 0.85103 0.87839 0.0
O69 O 0.51666 0.90555 0.85339 0.0
Co70 Co 0.98712 0.82175 0.14577 0.0
O71 O 0.03751 0.83895 0.18735 0.0
O72 O 0.03149 0.75433 0.16037 0.0
C73 C 0.00836 0.90114 0.11752 0.0
O74 O 0.94129 0.78879 0.10195 0.0
Co75 Co 0.88603 0.90305 0.11866 0.0
O76 O 0.89062 0.86192 0.07523 0.0
C77 C 0.87296 0.81521 0.17145 0.0
C78 C 0.0566 0.78692 0.18507 0.0
C79 C 0.91047 0.81091 0.07548 0.0
O80 O 0.92477 0.79825 0.17225 0.0
O81 O 0.85022 0.85655 0.15262 0.0
O82 O 0.04112 0.85615 0.11941 0.0
O83 O 0.96683 0.89879 0.13528 0.0
Co84 Co 0.47088 0.17277 0.1377 0.0
O85 O 0.52785 0.13088 0.16742 0.0
O86 O 0.51298 0.22494 0.17084 0.0
C87 C 0.48984 0.13404 0.0884 0.0
O88 O 0.41625 0.22954 0.11009 0.0
Co89 Co 0.37387 0.09738 0.09533 0.0
O90 O 0.34805 0.17505 0.07867 0.0
C91 C 0.36754 0.12595 0.1671 0.0
C92 C 0.54296 0.1798 0.18199 0.0
C93 C 0.36994 0.22378 0.08852 0.0
O94 O 0.41228 0.15823 0.16889 0.0
O95 O 0.34967 0.0934 0.14147 0.0
O96 O 0.52115 0.17626 0.10245 0.0
O97 O 0.45405 0.11288 0.10648 0.0
Co98 Co 0.01576 0.18041 0.85731 0.0
O99 O 0.9472 0.15656 0.82939 0.0
O100 O 0.97574 0.24752 0.83591 0.0
C101 C 0.00377 0.12799 0.90317 0.0
O102 O 0.08507 0.21826 0.88592 0.0
Co103 Co 0.10447 0.08192 0.87655 0.0
O104 O 0.14155 0.14406 0.90664 0.0
C105 C 0.09729 0.13735 0.80942 0.0
C106 C 0.9371 0.21042 0.82252 0.0
C107 C 0.12982 0.19787 0.90482 0.0
O108 O 0.05949 0.17216 0.81778 0.0
O109 O 0.11727 0.09477 0.82811 0.0
O110 O 0.97914 0.17784 0.89811 0.0
O111 O 0.02802 0.10847 0.87837 0.0
C112 C 0.00954 0.38686 0.44486 0.0
C113 C 0.99674 0.41005 0.41186 0.0
C114 C 0.0192 0.4228 0.47361 0.0
C115 C 0.01318 0.48318 0.46919 0.0
C116 C 0.00153 0.50695 0.43574 0.0
C117 C 0.99461 0.46985 0.40724 0.0
C118 C 0.03366 0.39599 0.50879 0.0
C119 C 0.993 0.57099 0.43017 0.0
C120 C 0.95862 0.55346 0.54389 0.0
C121 C 0.00739 0.58161 0.56066 0.0
C122 C 0.95947 0.524 0.51311 0.0
C123 C 0.01127 0.51996 0.49966 0.0
C124 C 0.06111 0.54751 0.51665 0.0
C125 C 0.0583 0.57908 0.54676 0.0
C126 C 0.90499 0.49636 0.49533 0.0
C127 C 0.11753 0.54211 0.50365 0.0
H128 H 0.01229 0.34041 0.44817 0.0
H129 H 0.98502 0.48735 0.38151 0.0
H130 H 0.07134 0.41784 0.52356 0.0
H131 H -0.00257 0.40164 0.52323 0.0
H132 H 0.04291 0.34911 0.50747 0.0
H133 H 0.98959 0.58301 0.40267 0.0
H134 H 0.95325 0.58448 0.43959 0.0
H135 H 0.02873 0.59557 0.44502 0.0
H136 H 0.91925 0.55478 0.55453 0.0
H137 H 0.09618 0.60052 0.55987 0.0
H138 H 0.90904 0.44868 0.49651 0.0
H139 H 0.89713 0.50879 0.46784 0.0
H140 H 0.86722 0.50892 0.50719 0.0
H141 H 0.13117 0.49625 0.50482 0.0
H142 H 0.15161 0.56847 0.51886 0.0
H143 H 0.11308 0.5556 0.4764 0.0
C144 C 0.50886 0.63505 0.4685 0.0
C145 C 0.49639 0.60276 0.43831 0.0
C146 C 0.51303 0.6082 0.50056 0.0
C147 C 0.50178 0.54835 0.50206 0.0
C148 C 0.4878 0.5159 0.47144 0.0
C149 C 0.48662 0.54346 0.43976 0.0
C150 C 0.53044 0.64352 0.53267 0.0
C151 C 0.47382 0.45227 0.47214 0.0
C152 C 0.55481 0.45528 0.57876 0.0
C153 C 0.5054 0.44995 0.59397 0.0
C154 C 0.55533 0.49028 0.54991 0.0
C155 C 0.50475 0.51917 0.53558 0.0
C156 C 0.45566 0.51633 0.55187 0.0
C157 C 0.45698 0.48253 0.58138 0.0
C158 C 0.60907 0.49403 0.53381 0.0
C159 C 0.40065 0.5458 0.5369 0.0
H160 H 0.517 0.681 0.46699 0.0
H161 H 0.47688 0.51902 0.41612 0.0
H162 H 0.49655 0.64181 0.54915 0.0
H163 H 0.56969 0.62513 0.54772 0.0
H164 H 0.53875 0.68943 0.52689 0.0
H165 H 0.46081 0.4342 0.44601 0.0
H166 H 0.5115 0.428 0.48485 0.0
H167 H 0.4387 0.44492 0.48731 0.0
H168 H 0.59262 0.43077 0.58882 0.0
H169 H 0.41896 0.47917 0.59336 0.0
H170 H 0.61873 0.53964 0.52823 0.0
H171 H 0.60283 0.47035 0.50906 0.0
H172 H 0.64652 0.47528 0.55055 0.0
H173 H 0.40835 0.59214 0.53221 0.0
H174 H 0.3675 0.54227 0.55388 0.0
H175 H 0.38375 0.52593 0.51177 0.0
C176 C 0.44206 0.09868 0.03212 0.0
C177 C 0.49263 0.11298 0.0537 0.0
C178 C 0.44343 0.07147 0.00064 0.0
C179 C 0.49676 0.05692 0.9911 0.0
C180 C 0.54811 0.07377 0.01212 0.0
C181 C 0.54536 0.10258 0.04313 0.0
C182 C 0.38779 0.05554 0.97846 0.0
C183 C 0.60571 0.05749 0.00321 0.0
C184 C 0.48868 0.91975 0.93905 0.0
C185 C 0.48936 0.94098 0.90594 0.0
C186 C 0.49396 0.95708 0.96719 0.0
C187 C 0.49813 0.01726 0.96181 0.0
C188 C 0.49941 0.03897 0.9284 0.0
C189 C 0.49595 0.00023 0.90077 0.0
C190 C 0.49381 0.93213 0.00257 0.0
C191 C 0.5027 0.10295 0.92175 0.0
H192 H 0.40132 0.10762 0.04018 0.0
H193 H 0.58437 0.11364 0.06008 0.0
H194 H 0.38647 0.07416 0.95244 0.0
H195 H 0.38441 0.00797 0.97553 0.0
H196 H 0.35005 0.071 0.98938 0.0
H197 H 0.64118 0.08011 0.01971 0.0
H198 H 0.61204 0.01026 0.00662 0.0
H199 H 0.60805 0.06749 0.97598 0.0
H200 H 0.48489 0.87367 0.94306 0.0
H201 H 0.49686 0.01629 0.87504 0.0
H202 H 0.45453 0.94571 0.01248 0.0
H203 H 0.53086 0.94874 0.0206 0.0
H204 H 0.49548 0.8842 0.00263 0.0
H205 H 0.46354 0.12426 0.92778 0.0
H206 H 0.50692 0.11252 0.89466 0.0
H207 H 0.53948 0.12237 0.93874 0.0
C208 C 0.96396 0.97797 0.07806 0.0
C209 C 0.01209 0.94562 0.09141 0.0
C210 C 0.96402 0.01191 0.04869 0.0
C211 C 0.01422 0.0152 0.03344 0.0
C212 C 0.06443 0.98665 0.04868 0.0
C213 C 0.06251 0.9514 0.07726 0.0
C214 C 0.90934 0.04092 0.03271 0.0
C215 C 0.11932 0.99096 0.03379 0.0
C216 C -0.0007 0.03937 0.93768 0.0
C217 C 0.00814 0.09887 0.93628 0.0
C218 C 0.0003 0.01169 0.96931 0.0
C219 C 0.01283 0.04426 -2e-05 0.0
C220 C 0.02373 0.1042 -0.00143 0.0
C221 C 0.0201 0.13109 0.96655 0.0
C222 C 0.987 0.94789 0.9699 0.0
C223 C 0.03931 0.13974 0.03077 0.0
H224 H 0.92516 0.97417 0.08923 0.0
H225 H 0.10009 0.92706 0.08797 0.0
H226 H 0.91699 0.08728 0.02806 0.0
H227 H 0.8938 0.02079 0.00745 0.0
H228 H 0.87521 0.03724 0.049 0.0
H229 H 0.15616 0.97257 0.05123 0.0
H230 H 0.1147 0.96724 0.00908 0.0
H231 H 0.12891 0.03667 0.02841 0.0
H232 H 0.9898 0.01494 0.91403 0.0
H233 H 0.02756 0.17718 0.96512 0.0
H234 H 0.95058 0.94029 0.984 0.0
H235 H 0.02421 0.92416 0.98367 0.0
H236 H 0.97611 0.92943 0.9437 0.0
H237 H 0.00334 0.1398 0.04574 0.0
H238 H 0.04981 0.18515 0.0251 0.0
H239 H 0.07659 0.12038 0.04729 0.0
C240 C 0.60982 0.23433 0.2262 0.0
C241 C 0.59572 0.18381 0.20727 0.0
C242 C 0.66304 0.23991 0.24728 0.0
C243 C 0.70329 0.19443 0.24868 0.0
C244 C 0.68833 0.14258 0.2306 0.0
C245 C 0.63451 0.13768 0.21043 0.0
C246 C 0.67708 0.29536 0.26691 0.0
C247 C 0.7304 0.09361 0.2308 0.0
C248 C 0.85764 0.24299 0.26514 0.0
C249 C 0.87387 0.22773 0.29954 0.0
C250 C 0.80289 0.2302 0.24795 0.0
C251 C 0.76285 0.20333 0.26607 0.0
C252 C 0.77958 0.18641 0.30066 0.0
C253 C 0.83545 0.19816 0.31693 0.0
C254 C 0.78737 0.24722 0.21072 0.0
C255 C 0.73767 0.15887 0.32098 0.0
H256 H 0.57983 0.26989 0.22401 0.0
H257 H 0.62398 0.09848 0.19579 0.0
H258 H 0.69516 0.28594 0.29398 0.0
H259 H 0.7099 0.31968 0.25551 0.0
H260 H 0.639 0.32339 0.26651 0.0
H261 H 0.71052 0.0544 0.21777 0.0
H262 H 0.76617 0.10746 0.21752 0.0
H263 H 0.74896 0.08211 0.25747 0.0
H264 H 0.88754 0.26619 0.25189 0.0
H265 H 0.8479 0.18754 0.3438 0.0
H266 H 0.75445 0.28157 0.2082 0.0
H267 H 0.76888 0.20976 0.19528 0.0
H268 H 0.82481 0.26341 0.1997 0.0
H269 H 0.70346 0.19023 0.32402 0.0
H270 H 0.75835 0.1449 0.34686 0.0
H271 H 0.71687 0.12093 0.30711 0.0
C272 C 0.61478 0.28461 0.74492 0.0
C273 C 0.60622 0.27966 0.7092 0.0
C274 C 0.6694 0.27698 0.76389 0.0
C275 C 0.71641 0.26701 0.74637 0.0
C276 C 0.70788 0.26396 0.71012 0.0
C277 C 0.65255 0.26918 0.692 0.0
C278 C 0.67666 0.27833 0.80257 0.0
C279 C 0.75712 0.25505 0.6905 0.0
C280 C 0.86734 0.2845 0.79473 0.0
C281 C 0.88206 0.22681 0.802 0.0
C282 C 0.81333 0.29864 0.77651 0.0
C283 C 0.77349 0.25398 0.76587 0.0
C284 C 0.7884 0.19583 0.77312 0.0
C285 C 0.84249 0.18301 0.79082 0.0
C286 C 0.79889 0.36108 0.76857 0.0
C287 C 0.74708 0.14695 0.76237 0.0
H288 H 0.57868 0.29375 0.75794 0.0
H289 H 0.64572 0.26719 0.66419 0.0
H290 H 0.69288 0.236 0.81301 0.0
H291 H 0.70874 0.31141 0.81274 0.0
H292 H 0.63599 0.2878 0.81219 0.0
H293 H 0.74389 0.25914 0.66234 0.0
H294 H 0.79141 0.287 0.69884 0.0
H295 H 0.77566 0.21151 0.696 0.0
H296 H 0.89776 0.31842 0.80335 0.0
H297 H 0.85338 0.1382 0.7963 0.0
H298 H 0.76117 0.37381 0.78033 0.0
H299 H 0.7874 0.36699 0.74044 0.0
H300 H 0.83489 0.39054 0.77815 0.0
H301 H 0.70674 0.15398 0.7728 0.0
H302 H 0.76468 0.10422 0.77129 0.0
H303 H 0.7362 0.14569 0.73401 0.0
C304 C 0.11687 0.75052 0.72026 0.0
C305 C 0.10386 0.69814 0.70314 0.0
C306 C 0.17015 0.75891 0.74082 0.0
C307 C 0.21182 0.71466 0.74303 0.0
C308 C 0.19819 0.6612 0.72645 0.0
C309 C 0.14397 0.65327 0.70718 0.0
C310 C 0.18254 0.81581 0.75915 0.0
C311 C 0.24197 0.61373 0.72718 0.0
C312 C 0.36427 0.76935 0.75828 0.0
C313 C 0.38127 0.75555 0.79283 0.0
C314 C 0.31 0.75388 0.74139 0.0
C315 C 0.27114 0.72617 0.76002 0.0
C316 C 0.28865 0.71105 0.79483 0.0
C317 C 0.34413 0.72516 0.81073 0.0
C318 C 0.2937 0.76884 0.7039 0.0
C319 C 0.24788 0.68306 0.81576 0.0
H320 H 0.08574 0.78509 0.71722 0.0
H321 H 0.1342 0.61289 0.69361 0.0
H322 H 0.20159 0.80844 0.7863 0.0
H323 H 0.21405 0.8406 0.7469 0.0
H324 H 0.1435 0.8425 0.75851 0.0
H325 H 0.2234 0.57341 0.71486 0.0
H326 H 0.277 0.62833 0.71348 0.0
H327 H 0.26129 0.60383 0.75394 0.0
H328 H 0.39317 0.79327 0.74466 0.0
H329 H 0.35716 0.71576 0.83773 0.0
H330 H 0.26004 0.80244 0.70089 0.0
H331 H 0.27591 0.73034 0.6892 0.0
H332 H 0.33063 0.78522 0.69244 0.0
H333 H 0.21241 0.71327 0.81813 0.0
H334 H 0.26908 0.67119 0.84192 0.0
H335 H 0.22863 0.64368 0.80274 0.0
C336 C 0.34906 0.67947 0.28966 0.0
C337 C 0.38744 0.72492 0.29936 0.0
C338 C 0.29521 0.68962 0.27082 0.0
C339 C 0.27968 0.74654 0.26063 0.0
C340 C 0.31878 0.79259 0.26925 0.0
C341 C 0.37225 0.7813 0.28897 0.0
C342 C 0.25436 0.63951 0.26263 0.0
C343 C 0.30389 0.85364 0.25792 0.0
C344 C 0.1563 0.75558 0.18762 0.0
C345 C 0.11139 0.77086 0.20503 0.0
C346 C 0.21193 0.74981 0.20528 0.0
C347 C 0.22201 0.75725 0.24131 0.0
C348 C 0.17625 0.77118 0.25909 0.0
C349 C 0.12148 0.77926 0.24051 0.0
C350 C 0.26 0.7368 0.18537 0.0
C351 C 0.18508 0.77718 0.29766 0.0
H352 H 0.36031 0.63571 0.29773 0.0
H353 H 0.40185 0.81644 0.29639 0.0
H354 H 0.21459 0.64767 0.27347 0.0
H355 H 0.24222 0.63498 0.23447 0.0
H356 H 0.27289 0.59795 0.27303 0.0
H357 H 0.34031 0.88384 0.26488 0.0
H358 H 0.29041 0.85499 0.22972 0.0
H359 H 0.26738 0.86909 0.26996 0.0
H360 H 0.14835 0.7509 0.15993 0.0
H361 H 0.0865 0.79203 0.25365 0.0
H362 H 0.27924 0.69437 0.19328 0.0
H363 H 0.29417 0.76979 0.1911 0.0
H364 H 0.24542 0.73594 0.15723 0.0
H365 H 0.203 0.73656 0.30972 0.0
H366 H 0.14474 0.78708 0.30755 0.0
H367 H 0.21638 0.81202 0.30585 0.0
C368 C 0.26951 0.12652 0.18193 0.0
C369 C 0.3283 0.13551 0.19222 0.0
C370 C 0.22946 0.14848 0.20111 0.0
C371 C 0.24874 0.1785 0.2319 0.0
C372 C 0.30802 0.18326 0.24404 0.0
C373 C 0.34726 0.16242 0.22374 0.0
C374 C 0.16665 0.14363 0.18692 0.0
C375 C 0.32997 0.2132 0.27748 0.0
C376 C 0.15671 0.29748 0.25999 0.0
C377 C 0.12989 0.26882 0.28435 0.0
C378 C 0.19442 0.26799 0.24203 0.0
C379 C 0.20702 0.20921 0.2497 0.0
C380 C 0.17968 0.18003 0.27416 0.0
C381 C 0.14064 0.21004 0.29082 0.0
C382 C 0.22141 0.29996 0.21523 0.0
C383 C 0.19335 0.11791 0.28368 0.0
H384 H 0.2543 0.10619 0.15747 0.0
H385 H 0.3926 0.16922 0.23187 0.0
H386 H 0.14227 0.12717 0.20674 0.0
H387 H 0.14965 0.18709 0.17924 0.0
H388 H 0.15861 0.11472 0.1642 0.0
H389 H 0.37643 0.20605 0.28557 0.0
H390 H 0.3224 0.26031 0.27466 0.0
H391 H 0.30672 0.19771 0.29811 0.0
H392 H 0.1485 0.34302 0.25523 0.0
H393 H 0.12078 0.18827 0.31029 0.0
H394 H 0.21396 0.27609 0.19054 0.0
H395 H 0.26827 0.3028 0.22333 0.0
H396 H 0.2043 0.3444 0.21085 0.0
H397 H 0.18566 0.09003 0.26057 0.0
H398 H 0.16754 0.10126 0.30283 0.0
H399 H 0.23926 0.11401 0.2945 0.0
C400 C 0.33933 0.265 0.72055 0.0
C401 C 0.32616 0.27723 0.68556 0.0
C402 C 0.29989 0.23586 0.73754 0.0
C403 C 0.24724 0.21707 0.71865 0.0
C404 C 0.23564 0.22611 0.68282 0.0
C405 C 0.2749 0.25708 0.66678 0.0
C406 C 0.31326 0.22792 0.77592 0.0
C407 C 0.181 0.20492 0.66163 0.0
C408 C 0.16349 0.11515 0.76739 0.0
C409 C 0.12647 0.15377 0.78031 0.0
C410 C 0.20091 0.13438 0.74542 0.0
C411 C 0.20213 0.19369 0.737 0.0
C412 C 0.16248 0.23207 0.74824 0.0
C413 C 0.12457 0.21143 0.76932 0.0
C414 C 0.24114 0.09185 0.73277 0.0
C415 C 0.1628 0.29582 0.74009 0.0
H416 H 0.37922 0.28054 0.73485 0.0
H417 H 0.26549 0.26571 0.63947 0.0
H418 H 0.28227 0.25275 0.78854 0.0
H419 H 0.30884 0.18186 0.78271 0.0
H420 H 0.35709 0.24263 0.7865 0.0
H421 H 0.1825 0.20768 0.63366 0.0
H422 H 0.17237 0.1595 0.66821 0.0
H423 H 0.14462 0.23131 0.66736 0.0
H424 H 0.16487 0.07043 0.77554 0.0
H425 H 0.09625 0.24172 0.77918 0.0
H426 H 0.285 0.09888 0.74662 0.0
H427 H 0.24244 0.09836 0.70503 0.0
H428 H 0.22866 0.04644 0.73693 0.0
H429 H 0.20408 0.31512 0.75193 0.0
H430 H 0.12767 0.31942 0.7497 0.0
H431 H 0.15879 0.30259 0.71201 0.0
C432 C 0.64064 0.75503 0.77726 0.0
C433 C 0.63516 0.81528 0.77775 0.0
C434 C 0.67871 0.72855 0.75827 0.0
C435 C 0.71084 0.76315 0.73865 0.0
C436 C 0.70397 0.82387 0.73806 0.0
C437 C 0.6667 0.84932 0.75805 0.0
C438 C 0.68574 0.66376 0.75998 0.0
C439 C 0.73637 0.86193 0.7166 0.0
C440 C 0.84731 0.70531 0.71206 0.0
C441 C 0.8275 0.68626 0.67866 0.0
C442 C 0.80946 0.72929 0.7323 0.0
C443 C 0.75106 0.73572 0.71829 0.0
C444 C 0.73098 0.71658 0.68458 0.0
C445 C 0.76931 0.69148 0.66533 0.0
C446 C 0.83194 0.74806 0.76853 0.0
C447 C 0.66929 0.72392 0.66849 0.0
H448 H 0.61703 0.72864 0.79296 0.0
H449 H 0.66249 0.89591 0.75846 0.0
H450 H 0.67552 0.64481 0.73393 0.0
H451 H 0.73084 0.65283 0.76986 0.0
H452 H 0.65793 0.64318 0.77677 0.0
H453 H 0.72435 0.90812 0.71791 0.0
H454 H 0.78293 0.8579 0.72546 0.0
H455 H 0.72817 0.8478 0.6894 0.0
H456 H 0.89225 0.70132 0.72236 0.0
H457 H 0.75392 0.67774 0.63926 0.0
H458 H 0.80717 0.72685 0.78675 0.0
H459 H 0.82646 0.79533 0.77107 0.0
H460 H 0.87785 0.7375 0.7761 0.0
H461 H 0.64088 0.70118 0.68399 0.0
H462 H 0.66074 0.70707 0.64182 0.0
H463 H 0.65767 0.77033 0.66812 0.0
C464 C 0.78179 0.76636 0.17685 0.0
C465 C 0.83647 0.7838 0.19203 0.0
C466 C 0.74512 0.73822 0.19612 0.0
C467 C 0.76299 0.72946 0.23163 0.0
C468 C 0.81881 0.74587 0.24689 0.0
C469 C 0.85541 0.77203 0.22665 0.0
C470 C 0.6867 0.71952 0.17872 0.0
C471 C 0.83881 0.73857 0.28487 0.0
C472 C 0.64803 0.72964 0.28827 0.0
C473 C 0.64674 0.67151 0.29796 0.0
C474 C 0.68557 0.74885 0.26656 0.0
C475 C 0.72145 0.70861 0.25338 0.0
C476 C 0.71842 0.64934 0.2617 0.0
C477 C 0.68165 0.63156 0.28442 0.0
C478 C 0.68841 0.81263 0.25886 0.0
C479 C 0.75473 0.60504 0.24714 0.0
H480 H 0.76778 0.77471 0.14981 0.0
H481 H 0.89788 0.78559 0.23818 0.0
H482 H 0.67789 0.6744 0.18582 0.0
H483 H 0.6536 0.74725 0.18742 0.0
H484 H 0.68238 0.72249 0.15033 0.0
H485 H 0.88437 0.75082 0.29236 0.0
H486 H 0.81248 0.76588 0.29945 0.0
H487 H 0.83316 0.69318 0.29263 0.0
H488 H 0.6217 0.76083 0.29906 0.0
H489 H 0.6806 0.58657 0.29186 0.0
H490 H 0.6789 0.82006 0.2308 0.0
H491 H 0.73223 0.82907 0.26771 0.0
H492 H 0.65792 0.83826 0.27146 0.0
H493 H 0.74971 0.60916 0.21881 0.0
H494 H 0.74354 0.56022 0.25367 0.0
H495 H 0.80043 0.61265 0.25727 0.0
C496 C 0.37987 0.29099 0.51477 0.0
C497 C 0.38697 0.27111 0.5486 0.0
C498 C 0.33486 0.2705 0.49058 0.0
C499 C 0.29579 0.23018 0.50099 0.0
C500 C 0.309 0.20277 0.53327 0.0
C501 C 0.35492 0.22364 0.55691 0.0
C502 C 0.32403 0.29905 0.4558 0.0
C503 C 0.27016 0.1576 0.54476 0.0
C504 C 0.15203 0.29206 0.46858 0.0
C505 C 0.139 0.26408 0.43698 0.0
C506 C 0.19979 0.27601 0.49198 0.0
C507 C 0.23588 0.2315 0.48306 0.0
C508 C 0.21862 0.19826 0.45311 0.0
C509 C 0.16998 0.21508 0.4302 0.0
C510 C 0.21517 0.31164 0.5242 0.0
C511 C 0.25429 0.149 0.44327 0.0
H512 H 0.40527 0.32728 0.50835 0.0
H513 H 0.36064 0.20795 0.58312 0.0
H514 H 0.31063 0.26671 0.43541 0.0
H515 H 0.28901 0.33095 0.45527 0.0
H516 H 0.36252 0.32202 0.44982 0.0
H517 H 0.29435 0.12803 0.56386 0.0
H518 H 0.23685 0.17907 0.55719 0.0
H519 H 0.24853 0.1319 0.52276 0.0
H520 H 0.12769 0.32982 0.47369 0.0
H521 H 0.15975 0.19349 0.40562 0.0
H522 H 0.25271 0.33925 0.52183 0.0
H523 H 0.22679 0.2833 0.54683 0.0
H524 H 0.17953 0.34009 0.52902 0.0
H525 H 0.28428 0.16548 0.42652 0.0
H526 H 0.22691 0.11569 0.42857 0.0
H527 H 0.27965 0.12851 0.46608 0.0
C528 C 0.85943 0.81124 0.55557 0.0
C529 C 0.88885 0.76546 0.54299 0.0
C530 C 0.81272 0.8367 0.53455 0.0
C531 C 0.79474 0.81365 0.50138 0.0
C532 C 0.83257 0.77733 0.48663 0.0
C533 C 0.87981 0.75403 0.50776 0.0
C534 C 0.77838 0.8821 0.54952 0.0
C535 C 0.81812 0.75471 0.45041 0.0
C536 C 0.65575 0.73696 0.48117 0.0
C537 C 0.63888 0.75543 0.44741 0.0
C538 C 0.70272 0.76189 0.50171 0.0
C539 C 0.73262 0.8076 0.4882 0.0
C540 C 0.70833 0.83372 0.45684 0.0
C541 C 0.66191 0.80657 0.4363 0.0
C542 C 0.72458 0.73335 0.53567 0.0
C543 C 0.73407 0.88683 0.44327 0.0
H544 H 0.86763 0.82187 0.58265 0.0
H545 H 0.90431 0.72012 0.49786 0.0
H546 H 0.74728 0.90347 0.52953 0.0
H547 H 0.75508 0.86237 0.56895 0.0
H548 H 0.8075 0.91529 0.56297 0.0
H549 H 0.85373 0.7295 0.44246 0.0
H550 H 0.77991 0.72634 0.44825 0.0
H551 H 0.80822 0.79104 0.43224 0.0
H552 H 0.6361 0.69868 0.49015 0.0
H553 H 0.64763 0.82222 0.41052 0.0
H554 H 0.73009 0.76577 0.55655 0.0
H555 H 0.76667 0.71308 0.53466 0.0
H556 H 0.69511 0.69936 0.54247 0.0
H557 H 0.76757 0.90688 0.46246 0.0
H558 H 0.69997 0.91912 0.43547 0.0
H559 H 0.7525 0.87572 0.4199 0.0
C560 C 0.88299 0.79511 0.01358 0.0
C561 C 0.88519 0.77399 0.04694 0.0
C562 C 0.83752 0.78035 0.98802 0.0
C563 C 0.79306 0.74479 -0.0034 0.0
C564 C 0.8008 0.71532 0.02839 0.0
C565 C 0.84726 0.73034 0.05344 0.0
C566 C 0.83249 0.81057 0.9538 0.0
C567 C 0.75589 0.67482 0.0379 0.0
C568 C 0.65704 0.82266 0.96374 0.0
C569 C 0.64093 0.79585 0.93199 0.0
C570 C 0.70323 0.80208 0.98686 0.0
C571 C 0.73454 0.75389 0.97766 0.0
C572 C 0.71434 0.72277 0.9473 0.0
C573 C 0.66738 0.74421 0.92467 0.0
C574 C 0.7219 0.8358 0.01951 0.0
C575 C 0.74502 0.6702 0.93694 0.0
H576 H 0.91282 0.82852 0.00861 0.0
H577 H 0.84919 0.71379 0.07932 0.0
H578 H 0.81592 0.78063 0.93265 0.0
H579 H 0.80197 0.84697 0.9533 0.0
H580 H 0.87422 0.82818 0.94906 0.0
H581 H 0.7748 0.64322 0.05759 0.0
H582 H 0.72322 0.7001 0.04881 0.0
H583 H 0.73411 0.65113 0.01511 0.0
H584 H 0.63585 0.86219 0.96946 0.0
H585 H 0.65474 0.72337 0.90004 0.0
H586 H 0.76258 0.85864 0.01778 0.0
H587 H 0.72951 0.80633 0.04187 0.0
H588 H 0.6897 0.86839 0.02432 0.0
H589 H 0.77653 0.68374 0.9204 0.0
H590 H 0.71456 0.63988 0.92185 0.0
H591 H 0.76819 0.6471 0.9595 0.0
C592 C 0.27892 0.27298 0.07245 0.0
C593 C 0.33819 0.27432 0.0733 0.0
C594 C 0.24244 0.29183 0.0433 0.0
C595 C 0.26663 0.31403 0.01531 0.0
C596 C 0.3248 0.33101 0.02089 0.0
C597 C 0.36103 0.30883 0.04958 0.0
C598 C 0.1796 0.27779 0.04018 0.0
C599 C 0.35022 0.36403 0.99402 0.0
C600 C 0.22338 0.21445 0.94078 0.0
C601 C 0.1699 0.23652 0.92681 0.0
C602 C 0.25795 0.24219 0.96769 0.0
C603 C 0.23989 0.29548 0.98027 0.0
C604 C 0.1898 0.32223 0.96285 0.0
C605 C 0.15466 0.29189 0.93659 0.0
C606 C 0.31065 0.21046 0.98461 0.0
C607 C 0.17127 0.38139 0.97256 0.0
H608 H 0.26139 0.24834 0.0918 0.0
H609 H 0.40694 0.31207 0.0508 0.0
H610 H 0.15387 0.31626 0.03123 0.0
H611 H 0.16839 0.24273 0.02111 0.0
H612 H 0.16745 0.26362 0.06499 0.0
H613 H 0.37263 0.334 0.97872 0.0
H614 H 0.31686 0.38743 0.97642 0.0
H615 H 0.38237 0.39546 0.00646 0.0
H616 H 0.23681 0.17291 0.93221 0.0
H617 H 0.11426 0.31038 0.92504 0.0
H618 H 0.30678 0.20049 0.01162 0.0
H619 H 0.34934 0.23715 0.98434 0.0
H620 H 0.31741 0.16916 0.97154 0.0
H621 H 0.12965 0.3782 0.98206 0.0
H622 H 0.16428 0.40916 0.94936 0.0
H623 H 0.20292 0.40277 0.99227 0.0
loop_
_geom_bond_atom_site_label_1
_geom_bond_atom_site_label_2
_geom_bond_distance
_geom_bond_site_symmetry_2
_ccdc_geom_bond_type
Co0 O1 2.216 1_455 S
Co0 O2 2.091 1_455 S
Co0 O4 2.004 . S
Co0 O10 2.021 . S
Co0 O12 2.137 1_455 S
Co0 O13 2.244 . S
O1 Co0 2.216 1_655 S
O1 C8 1.247 . S
O2 Co0 2.091 1_655 S
O2 C8 1.261 . S
C3 O12 1.247 1_455 S
C3 O13 1.272 . S
O4 Co0 2.004 . S
O4 C9 1.259 . S
Co5 O6 2.061 . S
Co5 O11 2.052 . S
Co5 O13 2.135 . S
O6 Co5 2.061 . S
O6 C9 1.235 . S
C7 O10 1.238 . S
C7 O11 1.241 . S
C8 O1 1.247 . S
C8 O2 1.261 . S
C9 O4 1.259 . S
C9 O6 1.235 . S
O10 Co0 2.021 . S
O10 C7 1.238 . S
O11 Co5 2.052 . S
O11 C7 1.241 . S
O12 Co0 2.137 1_655 S
O12 C3 1.247 1_655 S
O13 Co0 2.244 . S
O13 C3 1.272 . S
O13 Co5 2.135 . S
Co14 O15 2.216 . S
Co14 O16 2.091 . S
Co14 O18 2.004 . S
Co14 O24 2.021 . S
Co14 O26 2.137 . S
Co14 O27 2.244 . S
O15 Co14 2.216 . S
O15 C22 1.247 . S
O16 Co14 2.091 . S
O16 C22 1.261 . S
C17 O26 1.247 . S
C17 O27 1.272 . S
O18 Co14 2.004 . S
O18 C23 1.259 . S
Co19 O20 2.061 . S
Co19 O25 2.052 . S
Co19 O27 2.135 . S
O20 Co19 2.061 . S
O20 C23 1.235 . S
C21 O24 1.238 . S
C21 O25 1.241 . S
C22 O15 1.247 . S
C22 O16 1.261 . S
C23 O18 1.259 . S
C23 O20 1.235 . S
O24 Co14 2.021 . S
O24 C21 1.238 . S
O25 Co19 2.052 . S
O25 C21 1.241 . S
O26 Co14 2.137 . S
O26 C17 1.247 . S
O27 Co14 2.244 . S
O27 C17 1.272 . S
O27 Co19 2.135 . S
Co28 O29 2.216 1_655 S
Co28 O30 2.091 1_655 S
Co28 O32 2.004 . S
Co28 O38 2.021 . S
Co28 O40 2.137 1_655 S
Co28 O41 2.244 . S
O29 Co28 2.216 1_455 S
O29 C36 1.247 . S
O30 Co28 2.091 1_455 S
O30 C36 1.261 . S
C31 O40 1.247 1_655 S
C31 O41 1.272 . S
O32 Co28 2.004 . S
O32 C37 1.259 . S
Co33 O34 2.061 . S
Co33 O39 2.052 . S
Co33 O41 2.135 . S
O34 Co33 2.061 . S
O34 C37 1.235 . S
C35 O38 1.238 . S
C35 O39 1.241 . S
C36 O29 1.247 . S
C36 O30 1.261 . S
C37 O32 1.259 . S
C37 O34 1.235 . S
O38 Co28 2.021 . S
O38 C35 1.238 . S
O39 Co33 2.052 . S
O39 C35 1.241 . S
O40 Co28 2.137 1_455 S
O40 C31 1.247 1_455 S
O41 Co28 2.244 . S
O41 C31 1.272 . S
O41 Co33 2.135 . S
Co42 O43 2.216 . S
Co42 O44 2.091 . S
Co42 O46 2.004 . S
Co42 O52 2.021 . S
Co42 O54 2.137 . S
Co42 O55 2.244 . S
O43 Co42 2.216 . S
O43 C50 1.247 . S
O44 Co42 2.091 . S
O44 C50 1.261 . S
C45 O54 1.247 . S
C45 O55 1.272 . S
O46 Co42 2.004 . S
O46 C51 1.259 . S
Co47 O48 2.061 . S
Co47 O53 2.052 . S
Co47 O55 2.135 . S
O48 Co47 2.061 . S
O48 C51 1.235 . S
C49 O52 1.238 . S
C49 O53 1.241 . S
C50 O43 1.247 . S
C50 O44 1.261 . S
C51 O46 1.259 . S
C51 O48 1.235 . S
O52 Co42 2.021 . S
O52 C49 1.238 . S
O53 Co47 2.052 . S
O53 C49 1.241 . S
O54 Co42 2.137 . S
O54 C45 1.247 . S
O55 Co42 2.244 . S
O55 C45 1.272 . S
O55 Co47 2.135 . S
Co56 O57 2.216 . S
Co56 O58 2.091 . S
Co56 O60 2.004 . S
Co56 O66 2.021 . S
Co56 O68 2.137 . S
Co56 O69 2.244 . S
O57 Co56 2.216 . S
O57 C64 1.247 . S
O58 Co56 2.091 . S
O58 C64 1.261 . S
C59 O68 1.247 . S
C59 O69 1.272 . S
O60 Co56 2.004 . S
O60 C65 1.259 . S
Co61 O62 2.061 . S
Co61 O67 2.052 . S
Co61 O69 2.135 . S
O62 Co61 2.061 . S
O62 C65 1.235 . S
C63 O66 1.238 . S
C63 O67 1.241 . S
C64 O57 1.247 . S
C64 O58 1.261 . S
C65 O60 1.259 . S
C65 O62 1.235 . S
O66 Co56 2.021 . S
O66 C63 1.238 . S
O67 Co61 2.052 . S
O67 C63 1.241 . S
O68 Co56 2.137 . S
O68 C59 1.247 . S
O69 Co56 2.244 . S
O69 C59 1.272 . S
O69 Co61 2.135 . S
Co70 O71 2.216 1_655 S
Co70 O72 2.091 1_655 S
Co70 O74 2.004 . S
Co70 O80 2.021 . S
Co70 O82 2.137 1_655 S
Co70 O83 2.244 . S
O71 Co70 2.216 1_455 S
O71 C78 1.247 . S
O72 Co70 2.091 1_455 S
O72 C78 1.261 . S
C73 O82 1.247 1_655 S
C73 O83 1.272 . S
O74 Co70 2.004 . S
O74 C79 1.259 . S
Co75 O76 2.061 . S
Co75 O81 2.052 . S
Co75 O83 2.135 . S
O76 Co75 2.061 . S
O76 C79 1.235 . S
C77 O80 1.238 . S
C77 O81 1.241 . S
C78 O71 1.247 . S
C78 O72 1.261 . S
C79 O74 1.259 . S
C79 O76 1.235 . S
O80 Co70 2.021 . S
O80 C77 1.238 . S
O81 Co75 2.052 . S
O81 C77 1.241 . S
O82 Co70 2.137 1_455 S
O82 C73 1.247 1_455 S
O83 Co70 2.244 . S
O83 C73 1.272 . S
O83 Co75 2.135 . S
Co84 O85 2.216 . S
Co84 O86 2.091 . S
Co84 O88 2.004 . S
Co84 O94 2.021 . S
Co84 O96 2.137 . S
Co84 O97 2.244 . S
O85 Co84 2.216 . S
O85 C92 1.247 . S
O86 Co84 2.091 . S
O86 C92 1.261 . S
C87 O96 1.247 . S
C87 O97 1.272 . S
O88 Co84 2.004 . S
O88 C93 1.259 . S
Co89 O90 2.061 . S
Co89 O95 2.052 . S
Co89 O97 2.135 . S
O90 Co89 2.061 . S
O90 C93 1.235 . S
C91 O94 1.238 . S
C91 O95 1.241 . S
C92 O85 1.247 . S
C92 O86 1.261 . S
C93 O88 1.259 . S
C93 O90 1.235 . S
O94 Co84 2.021 . S
O94 C91 1.238 . S
O95 Co89 2.052 . S
O95 C91 1.241 . S
O96 Co84 2.137 . S
O96 C87 1.247 . S
O97 Co84 2.244 . S
O97 C87 1.272 . S
O97 Co89 2.135 . S
Co98 O99 2.216 1_455 S
Co98 O100 2.091 1_455 S
Co98 O102 2.004 . S
Co98 O108 2.021 . S
Co98 O110 2.137 1_455 S
Co98 O111 2.244 . S
O99 Co98 2.216 1_655 S
O99 C106 1.247 . S
O100 Co98 2.091 1_655 S
O100 C106 1.261 . S
C101 O110 1.247 1_455 S
C101 O111 1.272 . S
O102 Co98 2.004 . S
O102 C107 1.259 . S
Co103 O104 2.061 . S
Co103 O109 2.052 . S
Co103 O111 2.135 . S
O104 Co103 2.061 . S
O104 C107 1.235 . S
C105 O108 1.238 . S
C105 O109 1.241 . S
C106 O99 1.247 . S
C106 O100 1.261 . S
C107 O102 1.259 . S
C107 O104 1.235 . S
O108 Co98 2.021 . S
O108 C105 1.238 . S
O109 Co103 2.052 . S
O109 C105 1.241 . S
O110 Co98 2.137 1_655 S
O110 C101 1.247 1_655 S
O111 Co98 2.244 . S
O111 C101 1.272 . S
O111 Co103 2.135 . S
C112 C113 1.391 . S
C112 C114 1.394 . S
C112 H128 0.928 1_455 S
C113 C112 1.391 . S
C113 C117 1.376 . S
C114 C112 1.394 . S
C114 C115 1.369 . S
C114 C118 1.531 1_455 S
C115 C114 1.369 . S
C115 C116 1.410 . S
C115 C123 1.503 . S
C116 C115 1.410 . S
C116 C117 1.392 . S
C116 C119 1.511 . S
C117 C113 1.376 . S
C117 C116 1.392 . S
C117 H129 0.929 . S
C118 C114 1.531 1_655 S
C118 H130 0.960 1_655 S
C118 H131 0.962 . S
C118 H132 0.960 1_655 S
C119 C116 1.511 . S
C119 H133 0.961 . S
C119 H134 0.961 . S
C119 H135 0.961 . S
C120 C121 1.370 . S
C120 C122 1.363 . S
C120 H136 0.931 . S
C121 C120 1.370 . S
C121 C125 1.408 1_655 S
C122 C120 1.363 . S
C122 C123 1.370 1_655 S
C122 C126 1.524 . S
C123 C115 1.503 . S
C123 C122 1.370 1_455 S
C123 C124 1.403 . S
C124 C123 1.403 . S
C124 C125 1.404 . S
C124 C127 1.539 . S
C125 C121 1.408 1_455 S
C125 C124 1.404 . S
C125 H137 0.930 . S
C126 C122 1.524 . S
C126 H138 0.956 . S
C126 H139 0.961 . S
C126 H140 0.961 . S
C127 C124 1.539 . S
C127 H141 0.958 . S
C127 H142 0.961 . S
C127 H143 0.960 . S
H128 C112 0.928 1_655 S
H129 C117 0.929 . S
H130 C118 0.960 1_455 S
H131 C118 0.962 . S
H132 C118 0.960 1_455 S
H133 C119 0.961 . S
H134 C119 0.961 . S
H135 C119 0.961 . S
H136 C120 0.931 . S
H137 C125 0.930 . S
H138 C126 0.956 . S
H139 C126 0.961 . S
H140 C126 0.961 . S
H141 C127 0.958 . S
H142 C127 0.961 . S
H143 C127 0.960 . S
C144 C145 1.391 . S
C144 C146 1.394 . S
C144 H160 0.931 . S
C145 C144 1.391 . S
C145 C149 1.376 . S
C146 C144 1.394 . S
C146 C147 1.369 . S
C146 C150 1.531 . S
C147 C146 1.369 . S
C147 C148 1.410 . S
C147 C155 1.503 . S
C148 C147 1.410 . S
C148 C149 1.392 . S
C148 C151 1.511 . S
C149 C145 1.376 . S
C149 C148 1.392 . S
C149 H161 0.929 . S
C150 C146 1.531 . S
C150 H162 0.960 . S
C150 H163 0.962 . S
C150 H164 0.960 . S
C151 C148 1.511 . S
C151 H165 0.961 . S
C151 H166 0.961 . S
C151 H167 0.961 . S
C152 C153 1.370 . S
C152 C154 1.363 . S
C152 H168 0.931 . S
C153 C152 1.370 . S
C153 C157 1.408 . S
C154 C152 1.363 . S
C154 C155 1.370 . S
C154 C158 1.524 . S
C155 C147 1.503 . S
C155 C154 1.370 . S
C155 C156 1.403 . S
C156 C155 1.403 . S
C156 C157 1.404 . S
C156 C159 1.539 . S
C157 C153 1.408 . S
C157 C156 1.404 . S
C157 H169 0.930 . S
C158 C154 1.524 . S
C158 H170 0.956 . S
C158 H171 0.961 . S
C158 H172 0.961 . S
C159 C156 1.539 . S
C159 H173 0.958 . S
C159 H174 0.961 . S
C159 H175 0.960 . S
H160 C144 0.931 . S
H161 C149 0.929 . S
H162 C150 0.960 . S
H163 C150 0.962 . S
H164 C150 0.960 . S
H165 C151 0.961 . S
H166 C151 0.961 . S
H167 C151 0.961 . S
H168 C152 0.931 . S
H169 C157 0.930 . S
H170 C158 0.956 . S
H171 C158 0.961 . S
H172 C158 0.961 . S
H173 C159 0.958 . S
H174 C159 0.961 . S
H175 C159 0.960 . S
C176 C177 1.391 . S
C176 C178 1.394 . S
C176 H192 0.931 . S
C177 C176 1.391 . S
C177 C181 1.376 . S
C178 C176 1.394 . S
C178 C179 1.369 . S
C178 C182 1.531 1_554 S
C179 C178 1.369 . S
C179 C180 1.410 . S
C179 C187 1.503 1_544 S
C180 C179 1.410 . S
C180 C181 1.392 . S
C180 C183 1.511 1_545 S
C181 C177 1.376 . S
C181 C180 1.392 . S
C181 H193 0.929 . S
C182 C178 1.531 1_556 S
C182 H194 0.960 . S
C182 H195 0.962 . S
C182 H196 0.960 . S
C183 C180 1.511 1_565 S
C183 H197 0.961 . S
C183 H198 0.961 . S
C183 H199 0.961 1_565 S
C184 C185 1.370 . S
C184 C186 1.363 . S
C184 H200 0.931 . S
C185 C184 1.370 . S
C185 C189 1.408 . S
C186 C184 1.363 . S
C186 C187 1.370 . S
C186 C190 1.524 1_556 S
C187 C179 1.503 1_566 S
C187 C186 1.370 . S
C187 C188 1.403 . S
C188 C187 1.403 . S
C188 C189 1.404 . S
C188 C191 1.539 1_565 S
C189 C185 1.408 . S
C189 C188 1.404 . S
C189 H201 0.930 . S
C190 C186 1.524 1_554 S
C190 H202 0.956 . S
C190 H203 0.961 . S
C190 H204 0.961 . S
C191 C188 1.539 1_545 S
C191 H205 0.958 . S
C191 H206 0.961 . S
C191 H207 0.960 . S
H192 C176 0.931 . S
H193 C181 0.929 . S
H194 C182 0.960 . S
H195 C182 0.962 . S
H196 C182 0.960 . S
H197 C183 0.961 . S
H198 C183 0.961 . S
H199 C183 0.961 1_545 S
H200 C184 0.931 . S
H201 C189 0.930 . S
H202 C190 0.956 . S
H203 C190 0.961 . S
H204 C190 0.961 . S
H205 C191 0.958 . S
H206 C191 0.961 . S
H207 C191 0.960 . S
C208 C209 1.391 . S
C208 C210 1.394 . S
C208 H224 0.931 . S
C209 C208 1.391 . S
C209 C213 1.376 1_655 S
C210 C208 1.394 . S
C210 C211 1.369 1_655 S
C210 C214 1.531 1_565 S
C211 C210 1.369 1_455 S
C211 C212 1.410 . S
C211 C219 1.503 1_564 S
C212 C211 1.410 . S
C212 C213 1.392 . S
C212 C215 1.511 . S
C213 C209 1.376 1_455 S
C213 C212 1.392 . S
C213 H225 0.929 . S
C214 C210 1.531 1_545 S
C214 H226 0.960 . S
C214 H227 0.962 . S
C214 H228 0.960 . S
C215 C212 1.511 . S
C215 H229 0.961 . S
C215 H230 0.961 1_554 S
C215 H231 0.961 . S
C216 C217 1.370 1_655 S
C216 C218 1.363 . S
C216 H232 0.931 . S
C217 C216 1.370 1_455 S
C217 C221 1.408 . S
C218 C216 1.363 . S
C218 C219 1.370 1_655 S
C218 C222 1.524 1_545 S
C219 C211 1.503 1_546 S
C219 C218 1.370 1_455 S
C219 C220 1.403 . S
C220 C219 1.403 . S
C220 C221 1.404 . S
C220 C223 1.539 1_556 S
C221 C217 1.408 . S
C221 C220 1.404 . S
C221 H233 0.930 . S
C222 C218 1.524 1_565 S
C222 H234 0.956 . S
C222 H235 0.961 . S
C222 H236 0.961 . S
C223 C220 1.539 1_554 S
C223 H237 0.958 . S
C223 H238 0.961 . S
C223 H239 0.960 . S
H224 C208 0.931 . S
H225 C213 0.929 . S
H226 C214 0.960 . S
H227 C214 0.962 . S
H228 C214 0.960 . S
H229 C215 0.961 . S
H230 C215 0.961 1_556 S
H231 C215 0.961 . S
H232 C216 0.931 . S
H233 C221 0.930 . S
H234 C222 0.956 . S
H235 C222 0.961 . S
H236 C222 0.961 . S
H237 C223 0.958 . S
H238 C223 0.961 . S
H239 C223 0.960 . S
C240 C241 1.391 . S
C240 C242 1.394 . S
C240 H256 0.931 . S
C241 C240 1.391 . S
C241 C245 1.376 . S
C242 C240 1.394 . S
C242 C243 1.369 . S
C242 C246 1.531 . S
C243 C242 1.369 . S
C243 C244 1.410 . S
C243 C251 1.503 . S
C244 C243 1.410 . S
C244 C245 1.392 . S
C244 C247 1.511 . S
C245 C241 1.376 . S
C245 C244 1.392 . S
C245 H257 0.929 . S
C246 C242 1.531 . S
C246 H258 0.960 . S
C246 H259 0.962 . S
C246 H260 0.960 . S
C247 C244 1.511 . S
C247 H261 0.961 . S
C247 H262 0.961 . S
C247 H263 0.961 . S
C248 C249 1.370 . S
C248 C250 1.363 . S
C248 H264 0.931 . S
C249 C248 1.370 . S
C249 C253 1.408 . S
C250 C248 1.363 . S
C250 C251 1.370 . S
C250 C254 1.524 . S
C251 C243 1.503 . S
C251 C250 1.370 . S
C251 C252 1.403 . S
C252 C251 1.403 . S
C252 C253 1.404 . S
C252 C255 1.539 . S
C253 C249 1.408 . S
C253 C252 1.404 . S
C253 H265 0.930 . S
C254 C250 1.524 . S
C254 H266 0.956 . S
C254 H267 0.961 . S
C254 H268 0.961 . S
C255 C252 1.539 . S
C255 H269 0.958 . S
C255 H270 0.961 . S
C255 H271 0.960 . S
H256 C240 0.931 . S
H257 C245 0.929 . S
H258 C246 0.960 . S
H259 C246 0.962 . S
H260 C246 0.960 . S
H261 C247 0.961 . S
H262 C247 0.961 . S
H263 C247 0.961 . S
H264 C248 0.931 . S
H265 C253 0.930 . S
H266 C254 0.956 . S
H267 C254 0.961 . S
H268 C254 0.961 . S
H269 C255 0.958 . S
H270 C255 0.961 . S
H271 C255 0.960 . S
C272 C273 1.391 . S
C272 C274 1.394 . S
C272 H288 0.931 . S
C273 C272 1.391 . S
C273 C277 1.376 . S
C274 C272 1.394 . S
C274 C275 1.369 . S
C274 C278 1.531 . S
C275 C274 1.369 . S
C275 C276 1.410 . S
C275 C283 1.503 . S
C276 C275 1.410 . S
C276 C277 1.392 . S
C276 C279 1.511 . S
C277 C273 1.376 . S
C277 C276 1.392 . S
C277 H289 0.929 . S
C278 C274 1.531 . S
C278 H290 0.960 . S
C278 H291 0.962 . S
C278 H292 0.960 . S
C279 C276 1.511 . S
C279 H293 0.961 . S
C279 H294 0.961 . S
C279 H295 0.961 . S
C280 C281 1.370 . S
C280 C282 1.363 . S
C280 H296 0.931 . S
C281 C280 1.370 . S
C281 C285 1.408 . S
C282 C280 1.363 . S
C282 C283 1.370 . S
C282 C286 1.524 . S
C283 C275 1.503 . S
C283 C282 1.370 . S
C283 C284 1.403 . S
C284 C283 1.403 . S
C284 C285 1.404 . S
C284 C287 1.539 . S
C285 C281 1.408 . S
C285 C284 1.404 . S
C285 H297 0.930 . S
C286 C282 1.524 . S
C286 H298 0.956 . S
C286 H299 0.961 . S
C286 H300 0.961 . S
C287 C284 1.539 . S
C287 H301 0.958 . S
C287 H302 0.961 . S
C287 H303 0.960 . S
H288 C272 0.931 . S
H289 C277 0.929 . S
H290 C278 0.960 . S
H291 C278 0.962 . S
H292 C278 0.960 . S
H293 C279 0.961 . S
H294 C279 0.961 . S
H295 C279 0.961 . S
H296 C280 0.931 . S
H297 C285 0.930 . S
H298 C286 0.956 . S
H299 C286 0.961 . S
H300 C286 0.961 . S
H301 C287 0.958 . S
H302 C287 0.961 . S
H303 C287 0.960 . S
C304 C305 1.391 . S
C304 C306 1.394 . S
C304 H320 0.931 . S
C305 C304 1.391 . S
C305 C309 1.376 . S
C306 C304 1.394 . S
C306 C307 1.369 . S
C306 C310 1.531 . S
C307 C306 1.369 . S
C307 C308 1.410 . S
C307 C315 1.503 . S
C308 C307 1.410 . S
C308 C309 1.392 . S
C308 C311 1.511 . S
C309 C305 1.376 . S
C309 C308 1.392 . S
C309 H321 0.929 . S
C310 C306 1.531 . S
C310 H322 0.960 . S
C310 H323 0.962 . S
C310 H324 0.960 . S
C311 C308 1.511 . S
C311 H325 0.961 . S
C311 H326 0.961 . S
C311 H327 0.961 . S
C312 C313 1.370 . S
C312 C314 1.363 . S
C312 H328 0.931 . S
C313 C312 1.370 . S
C313 C317 1.408 . S
C314 C312 1.363 . S
C314 C315 1.370 . S
C314 C318 1.524 . S
C315 C307 1.503 . S
C315 C314 1.370 . S
C315 C316 1.403 . S
C316 C315 1.403 . S
C316 C317 1.404 . S
C316 C319 1.539 . S
C317 C313 1.408 . S
C317 C316 1.404 . S
C317 H329 0.930 . S
C318 C314 1.524 . S
C318 H330 0.956 . S
C318 H331 0.961 . S
C318 H332 0.961 . S
C319 C316 1.539 . S
C319 H333 0.958 . S
C319 H334 0.961 . S
C319 H335 0.960 . S
H320 C304 0.931 . S
H321 C309 0.929 . S
H322 C310 0.960 . S
H323 C310 0.962 . S
H324 C310 0.960 . S
H325 C311 0.961 . S
H326 C311 0.961 . S
H327 C311 0.961 . S
H328 C312 0.931 . S
H329 C317 0.930 . S
H330 C318 0.956 . S
H331 C318 0.961 . S
H332 C318 0.961 . S
H333 C319 0.958 . S
H334 C319 0.961 . S
H335 C319 0.960 . S
C336 C337 1.391 . S
C336 C338 1.394 . S
C336 H352 0.931 . S
C337 C336 1.391 . S
C337 C341 1.376 . S
C338 C336 1.394 . S
C338 C339 1.369 . S
C338 C342 1.531 . S
C339 C338 1.369 . S
C339 C340 1.410 . S
C339 C347 1.503 . S
C340 C339 1.410 . S
C340 C341 1.392 . S
C340 C343 1.511 . S
C341 C337 1.376 . S
C341 C340 1.392 . S
C341 H353 0.929 . S
C342 C338 1.531 . S
C342 H354 0.960 . S
C342 H355 0.962 . S
C342 H356 0.960 . S
C343 C340 1.511 . S
C343 H357 0.961 . S
C343 H358 0.961 . S
C343 H359 0.961 . S
C344 C345 1.370 . S
C344 C346 1.363 . S
C344 H360 0.931 . S
C345 C344 1.370 . S
C345 C349 1.408 . S
C346 C344 1.363 . S
C346 C347 1.370 . S
C346 C350 1.524 . S
C347 C339 1.503 . S
C347 C346 1.370 . S
C347 C348 1.403 . S
C348 C347 1.403 . S
C348 C349 1.404 . S
C348 C351 1.539 . S
C349 C345 1.408 . S
C349 C348 1.404 . S
C349 H361 0.930 . S
C350 C346 1.524 . S
C350 H362 0.956 . S
C350 H363 0.961 . S
C350 H364 0.961 . S
C351 C348 1.539 . S
C351 H365 0.958 . S
C351 H366 0.961 . S
C351 H367 0.960 . S
H352 C336 0.931 . S
H353 C341 0.929 . S
H354 C342 0.960 . S
H355 C342 0.962 . S
H356 C342 0.960 . S
H357 C343 0.961 . S
H358 C343 0.961 . S
H359 C343 0.961 . S
H360 C344 0.931 . S
H361 C349 0.930 . S
H362 C350 0.956 . S
H363 C350 0.961 . S
H364 C350 0.961 . S
H365 C351 0.958 . S
H366 C351 0.961 . S
H367 C351 0.960 . S
C368 C369 1.391 . S
C368 C370 1.394 . S
C368 H384 0.931 . S
C369 C368 1.391 . S
C369 C373 1.376 . S
C370 C368 1.394 . S
C370 C371 1.369 . S
C370 C374 1.531 . S
C371 C370 1.369 . S
C371 C372 1.410 . S
C371 C379 1.503 . S
C372 C371 1.410 . S
C372 C373 1.392 . S
C372 C375 1.511 . S
C373 C369 1.376 . S
C373 C372 1.392 . S
C373 H385 0.929 . S
C374 C370 1.531 . S
C374 H386 0.960 . S
C374 H387 0.962 . S
C374 H388 0.960 . S
C375 C372 1.511 . S
C375 H389 0.961 . S
C375 H390 0.961 . S
C375 H391 0.961 . S
C376 C377 1.370 . S
C376 C378 1.363 . S
C376 H392 0.931 . S
C377 C376 1.370 . S
C377 C381 1.408 . S
C378 C376 1.363 . S
C378 C379 1.370 . S
C378 C382 1.524 . S
C379 C371 1.503 . S
C379 C378 1.370 . S
C379 C380 1.403 . S
C380 C379 1.403 . S
C380 C381 1.404 . S
C380 C383 1.539 . S
C381 C377 1.408 . S
C381 C380 1.404 . S
C381 H393 0.930 . S
C382 C378 1.524 . S
C382 H394 0.956 . S
C382 H395 0.961 . S
C382 H396 0.961 . S
C383 C380 1.539 . S
C383 H397 0.958 . S
C383 H398 0.961 . S
C383 H399 0.960 . S
H384 C368 0.931 . S
H385 C373 0.929 . S
H386 C374 0.960 . S
H387 C374 0.962 . S
H388 C374 0.960 . S
H389 C375 0.961 . S
H390 C375 0.961 . S
H391 C375 0.961 . S
H392 C376 0.931 . S
H393 C381 0.930 . S
H394 C382 0.956 . S
H395 C382 0.961 . S
H396 C382 0.961 . S
H397 C383 0.958 . S
H398 C383 0.961 . S
H399 C383 0.960 . S
C400 C401 1.391 . S
C400 C402 1.394 . S
C400 H416 0.931 . S
C401 C400 1.391 . S
C401 C405 1.376 . S
C402 C400 1.394 . S
C402 C403 1.369 . S
C402 C406 1.531 . S
C403 C402 1.369 . S
C403 C404 1.410 . S
C403 C411 1.503 . S
C404 C403 1.410 . S
C404 C405 1.392 . S
C404 C407 1.511 . S
C405 C401 1.376 . S
C405 C404 1.392 . S
C405 H417 0.929 . S
C406 C402 1.531 . S
C406 H418 0.960 . S
C406 H419 0.962 . S
C406 H420 0.960 . S
C407 C404 1.511 . S
C407 H421 0.961 . S
C407 H422 0.961 . S
C407 H423 0.961 . S
C408 C409 1.370 . S
C408 C410 1.363 . S
C408 H424 0.931 . S
C409 C408 1.370 . S
C409 C413 1.408 . S
C410 C408 1.363 . S
C410 C411 1.370 . S
C410 C414 1.524 . S
C411 C403 1.503 . S
C411 C410 1.370 . S
C411 C412 1.403 . S
C412 C411 1.403 . S
C412 C413 1.404 . S
C412 C415 1.539 . S
C413 C409 1.408 . S
C413 C412 1.404 . S
C413 H425 0.930 . S
C414 C410 1.524 . S
C414 H426 0.956 . S
C414 H427 0.961 . S
C414 H428 0.961 . S
C415 C412 1.539 . S
C415 H429 0.958 . S
C415 H430 0.961 . S
C415 H431 0.960 . S
H416 C400 0.931 . S
H417 C405 0.929 . S
H418 C406 0.960 . S
H419 C406 0.962 . S
H420 C406 0.960 . S
H421 C407 0.961 . S
H422 C407 0.961 . S
H423 C407 0.961 . S
H424 C408 0.931 . S
H425 C413 0.930 . S
H426 C414 0.956 . S
H427 C414 0.961 . S
H428 C414 0.961 . S
H429 C415 0.958 . S
H430 C415 0.961 . S
H431 C415 0.960 . S
C432 C433 1.391 . S
C432 C434 1.394 . S
C432 H448 0.931 . S
C433 C432 1.391 . S
C433 C437 1.376 . S
C434 C432 1.394 . S
C434 C435 1.369 . S
C434 C438 1.531 . S
C435 C434 1.369 . S
C435 C436 1.410 . S
C435 C443 1.503 . S
C436 C435 1.410 . S
C436 C437 1.392 . S
C436 C439 1.511 . S
C437 C433 1.376 . S
C437 C436 1.392 . S
C437 H449 0.929 . S
C438 C434 1.531 . S
C438 H450 0.960 . S
C438 H451 0.962 . S
C438 H452 0.960 . S
C439 C436 1.511 . S
C439 H453 0.961 . S
C439 H454 0.961 . S
C439 H455 0.961 . S
C440 C441 1.370 . S
C440 C442 1.363 . S
C440 H456 0.931 . S
C441 C440 1.370 . S
C441 C445 1.408 . S
C442 C440 1.363 . S
C442 C443 1.370 . S
C442 C446 1.524 . S
C443 C435 1.503 . S
C443 C442 1.370 . S
C443 C444 1.403 . S
C444 C443 1.403 . S
C444 C445 1.404 . S
C444 C447 1.539 . S
C445 C441 1.408 . S
C445 C444 1.404 . S
C445 H457 0.930 . S
C446 C442 1.524 . S
C446 H458 0.956 . S
C446 H459 0.961 . S
C446 H460 0.961 . S
C447 C444 1.539 . S
C447 H461 0.958 . S
C447 H462 0.961 . S
C447 H463 0.960 . S
H448 C432 0.931 . S
H449 C437 0.929 . S
H450 C438 0.960 . S
H451 C438 0.962 . S
H452 C438 0.960 . S
H453 C439 0.961 . S
H454 C439 0.961 . S
H455 C439 0.961 . S
H456 C440 0.931 . S
H457 C445 0.930 . S
H458 C446 0.956 . S
H459 C446 0.961 . S
H460 C446 0.961 . S
H461 C447 0.958 . S
H462 C447 0.961 . S
H463 C447 0.960 . S
C464 C465 1.391 . S
C464 C466 1.394 . S
C464 H480 0.931 . S
C465 C464 1.391 . S
C465 C469 1.376 . S
C466 C464 1.394 . S
C466 C467 1.369 . S
C466 C470 1.531 . S
C467 C466 1.369 . S
C467 C468 1.410 . S
C467 C475 1.503 . S
C468 C467 1.410 . S
C468 C469 1.392 . S
C468 C471 1.511 . S
C469 C465 1.376 . S
C469 C468 1.392 . S
C469 H481 0.929 . S
C470 C466 1.531 . S
C470 H482 0.960 . S
C470 H483 0.962 . S
C470 H484 0.960 . S
C471 C468 1.511 . S
C471 H485 0.961 . S
C471 H486 0.961 . S
C471 H487 0.961 . S
C472 C473 1.370 . S
C472 C474 1.363 . S
C472 H488 0.931 . S
C473 C472 1.370 . S
C473 C477 1.408 . S
C474 C472 1.363 . S
C474 C475 1.370 . S
C474 C478 1.524 . S
C475 C467 1.503 . S
C475 C474 1.370 . S
C475 C476 1.403 . S
C476 C475 1.403 . S
C476 C477 1.404 . S
C476 C479 1.539 . S
C477 C473 1.408 . S
C477 C476 1.404 . S
C477 H489 0.930 . S
C478 C474 1.524 . S
C478 H490 0.956 . S
C478 H491 0.961 . S
C478 H492 0.961 . S
C479 C476 1.539 . S
C479 H493 0.958 . S
C479 H494 0.961 . S
C479 H495 0.960 . S
H480 C464 0.931 . S
H481 C469 0.929 . S
H482 C470 0.960 . S
H483 C470 0.962 . S
H484 C470 0.960 . S
H485 C471 0.961 . S
H486 C471 0.961 . S
H487 C471 0.961 . S
H488 C472 0.931 . S
H489 C477 0.930 . S
H490 C478 0.956 . S
H491 C478 0.961 . S
H492 C478 0.961 . S
H493 C479 0.958 . S
H494 C479 0.961 . S
H495 C479 0.960 . S
C496 C497 1.391 . S
C496 C498 1.394 . S
C496 H512 0.931 . S
C497 C496 1.391 . S
C497 C501 1.376 . S
C498 C496 1.394 . S
C498 C499 1.369 . S
C498 C502 1.531 . S
C499 C498 1.369 . S
C499 C500 1.410 . S
C499 C507 1.503 . S
C500 C499 1.410 . S
C500 C501 1.392 . S
C500 C503 1.511 . S
C501 C497 1.376 . S
C501 C500 1.392 . S
C501 H513 0.929 . S
C502 C498 1.531 . S
C502 H514 0.960 . S
C502 H515 0.962 . S
C502 H516 0.960 . S
C503 C500 1.511 . S
C503 H517 0.961 . S
C503 H518 0.961 . S
C503 H519 0.961 . S
C504 C505 1.370 . S
C504 C506 1.363 . S
C504 H520 0.931 . S
C505 C504 1.370 . S
C505 C509 1.408 . S
C506 C504 1.363 . S
C506 C507 1.370 . S
C506 C510 1.524 . S
C507 C499 1.503 . S
C507 C506 1.370 . S
C507 C508 1.403 . S
C508 C507 1.403 . S
C508 C509 1.404 . S
C508 C511 1.539 . S
C509 C505 1.408 . S
C509 C508 1.404 . S
C509 H521 0.930 . S
C510 C506 1.524 . S
C510 H522 0.956 . S
C510 H523 0.961 . S
C510 H524 0.961 . S
C511 C508 1.539 . S
C511 H525 0.958 . S
C511 H526 0.961 . S
C511 H527 0.960 . S
H512 C496 0.931 . S
H513 C501 0.929 . S
H514 C502 0.960 . S
H515 C502 0.962 . S
H516 C502 0.960 . S
H517 C503 0.961 . S
H518 C503 0.961 . S
H519 C503 0.961 . S
H520 C504 0.931 . S
H521 C509 0.930 . S
H522 C510 0.956 . S
H523 C510 0.961 . S
H524 C510 0.961 . S
H525 C511 0.958 . S
H526 C511 0.961 . S
H527 C511 0.960 . S
C528 C529 1.391 . S
C528 C530 1.394 . S
C528 H544 0.931 . S
C529 C528 1.391 . S
C529 C533 1.376 . S
C530 C528 1.394 . S
C530 C531 1.369 . S
C530 C534 1.531 . S
C531 C530 1.369 . S
C531 C532 1.410 . S
C531 C539 1.503 . S
C532 C531 1.410 . S
C532 C533 1.392 . S
C532 C535 1.511 . S
C533 C529 1.376 . S
C533 C532 1.392 . S
C533 H545 0.929 . S
C534 C530 1.531 . S
C534 H546 0.960 . S
C534 H547 0.962 . S
C534 H548 0.960 . S
C535 C532 1.511 . S
C535 H549 0.961 . S
C535 H550 0.961 . S
C535 H551 0.961 . S
C536 C537 1.370 . S
C536 C538 1.363 . S
C536 H552 0.931 . S
C537 C536 1.370 . S
C537 C541 1.408 . S
C538 C536 1.363 . S
C538 C539 1.370 . S
C538 C542 1.524 . S
C539 C531 1.503 . S
C539 C538 1.370 . S
C539 C540 1.403 . S
C540 C539 1.403 . S
C540 C541 1.404 . S
C540 C543 1.539 . S
C541 C537 1.408 . S
C541 C540 1.404 . S
C541 H553 0.930 . S
C542 C538 1.524 . S
C542 H554 0.956 . S
C542 H555 0.961 . S
C542 H556 0.961 . S
C543 C540 1.539 . S
C543 H557 0.958 . S
C543 H558 0.961 . S
C543 H559 0.960 . S
H544 C528 0.931 . S
H545 C533 0.929 . S
H546 C534 0.960 . S
H547 C534 0.962 . S
H548 C534 0.960 . S
H549 C535 0.961 . S
H550 C535 0.961 . S
H551 C535 0.961 . S
H552 C536 0.931 . S
H553 C541 0.930 . S
H554 C542 0.956 . S
H555 C542 0.961 . S
H556 C542 0.961 . S
H557 C543 0.958 . S
H558 C543 0.961 . S
H559 C543 0.960 . S
C560 C561 1.391 . S
C560 C562 1.394 . S
C560 H576 0.931 . S
C561 C560 1.391 . S
C561 C565 1.376 . S
C562 C560 1.394 . S
C562 C563 1.369 . S
C562 C566 1.531 1_554 S
C563 C562 1.369 . S
C563 C564 1.410 . S
C563 C571 1.503 1_554 S
C564 C563 1.410 . S
C564 C565 1.392 . S
C564 C567 1.511 . S
C565 C561 1.376 . S
C565 C564 1.392 . S
C565 H577 0.929 . S
C566 C562 1.531 1_556 S
C566 H578 0.960 . S
C566 H579 0.962 . S
C566 H580 0.960 . S
C567 C564 1.511 . S
C567 H581 0.961 . S
C567 H582 0.961 . S
C567 H583 0.961 . S
C568 C569 1.370 . S
C568 C570 1.363 . S
C568 H584 0.931 . S
C569 C568 1.370 . S
C569 C573 1.408 . S
C570 C568 1.363 . S
C570 C571 1.370 . S
C570 C574 1.524 . S
C571 C563 1.503 1_556 S
C571 C570 1.370 . S
C571 C572 1.403 . S
C572 C571 1.403 . S
C572 C573 1.404 . S
C572 C575 1.539 . S
C573 C569 1.408 . S
C573 C572 1.404 . S
C573 H585 0.930 . S
C574 C570 1.524 . S
C574 H586 0.956 . S
C574 H587 0.961 1_556 S
C574 H588 0.961 . S
C575 C572 1.539 . S
C575 H589 0.958 . S
C575 H590 0.961 . S
C575 H591 0.960 1_556 S
H576 C560 0.931 . S
H577 C565 0.929 . S
H578 C566 0.960 . S
H579 C566 0.962 . S
H580 C566 0.960 . S
H581 C567 0.961 . S
H582 C567 0.961 . S
H583 C567 0.961 . S
H584 C568 0.931 . S
H585 C573 0.930 . S
H586 C574 0.956 . S
H587 C574 0.961 1_554 S
H588 C574 0.961 . S
H589 C575 0.958 . S
H590 C575 0.961 . S
H591 C575 0.960 1_554 S
C592 C593 1.391 . S
C592 C594 1.394 . S
C592 H608 0.931 . S
C593 C592 1.391 . S
C593 C597 1.376 . S
C594 C592 1.394 . S
C594 C595 1.369 . S
C594 C598 1.531 . S
C595 C594 1.369 . S
C595 C596 1.410 . S
C595 C603 1.503 1_554 S
C596 C595 1.410 . S
C596 C597 1.392 . S
C596 C599 1.511 1_554 S
C597 C593 1.376 . S
C597 C596 1.392 . S
C597 H609 0.929 . S
C598 C594 1.531 . S
C598 H610 0.960 . S
C598 H611 0.962 . S
C598 H612 0.960 . S
C599 C596 1.511 1_556 S
C599 H613 0.961 . S
C599 H614 0.961 . S
C599 H615 0.961 1_556 S
C600 C601 1.370 . S
C600 C602 1.363 . S
C600 H616 0.931 . S
C601 C600 1.370 . S
C601 C605 1.408 . S
C602 C600 1.363 . S
C602 C603 1.370 . S
C602 C606 1.524 . S
C603 C595 1.503 1_556 S
C603 C602 1.370 . S
C603 C604 1.403 . S
C604 C603 1.403 . S
C604 C605 1.404 . S
C604 C607 1.539 1_556 S
C605 C601 1.408 . S
C605 C604 1.404 . S
C605 H617 0.930 . S
C606 C602 1.524 . S
C606 H618 0.956 . S
C606 H619 0.961 . S
C606 H620 0.961 . S
C607 C604 1.539 1_554 S
C607 H621 0.958 . S
C607 H622 0.961 . S
C607 H623 0.960 . S
H608 C592 0.931 . S
H609 C597 0.929 . S
H610 C598 0.960 . S
H611 C598 0.962 . S
H612 C598 0.960 . S
H613 C599 0.961 . S
H614 C599 0.961 . S
H615 C599 0.961 1_554 S
H616 C600 0.931 . S
H617 C605 0.930 . S
H618 C606 0.956 . S
H619 C606 0.961 . S
H620 C606 0.961 . S
H621 C607 0.958 . S
H622 C607 0.961 . S
H623 C607 0.960 . S
C113 C3 1.542 . S
C121 C31 1.559 . S
C145 C45 1.545 . S
C153 C17 1.558 . S
C177 C87 1.543 . S
C185 C59 1.558 . S
C209 C73 1.569 . S
C217 C101 1.549 . S
C241 C92 1.787 . S
C249 C8 1.796 . S
C273 C22 1.811 . S
C281 C106 1.785 . S
C305 C36 1.770 . S
C313 C64 1.802 . S
C337 C50 1.789 . S
C345 C78 1.793 . S
C369 C91 1.507 . S
C377 C7 1.506 . S
C401 C21 1.483 . S
C409 C105 1.519 . S
C433 C63 1.533 . S
C441 C35 1.497 . S
C465 C77 1.528 . S
C473 C49 1.498 . S
C497 C23 0.664 . S
C505 C9 0.608 . S
C529 C37 0.656 . S
C537 C51 0.563 . S
C561 C79 0.662 . S
C569 C65 0.608 . S
C593 C93 0.580 . S
C601 C107 0.603 . S
