# Generated by pormake.
# Topology ukk, (4)-cn, num edge types: 1
# Building blocks:
#     Node 0, Type 0, BuildingBlock: GALJAG_clean_sbu_0, # of connection points: 4
#     Node 1, Type 0, BuildingBlock: GALJAG_clean_sbu_0, # of connection points: 4
#     Node 2, Type 0, BuildingBlock: GALJAG_clean_sbu_0, # of connection points: 4
#     Node 3, Type 0, BuildingBlock: GALJAG_clean_sbu_0, # of connection points: 4
#     Node 4, Type 0, BuildingBlock: GALJAG_clean_sbu_0, # of connection points: 4
#     Node 5, Type 0, BuildingBlock: GALJAG_clean_sbu_0, # of connection points: 4
#     Node 6, Type 0, BuildingBlock: GALJAG_clean_sbu_0, # of connection points: 4
#     Node 7, Type 0, BuildingBlock: GALJAG_clean_sbu_0, # of connection points: 4
#     Node 8, Type 0, BuildingBlock: GALJAG_clean_sbu_0, # of connection points: 4
#     Node 9, Type 0, BuildingBlock: GALJAG_clean_sbu_0, # of connection points: 4
#     Node 10, Type 0, BuildingBlock: GALJAG_clean_sbu_0, # of connection points: 4
#     Node 11, Type 0, BuildingBlock: GALJAG_clean_sbu_0, # of connection points: 4
#     Node 12, Type 0, BuildingBlock: GALJAG_clean_sbu_0, # of connection points: 4
#     Node 13, Type 0, BuildingBlock: GALJAG_clean_sbu_0, # of connection points: 4
#     Node 14, Type 0, BuildingBlock: GALJAG_clean_sbu_0, # of connection points: 4
#     Node 15, Type 0, BuildingBlock: GALJAG_clean_sbu_0, # of connection points: 4
#     Edge 16, Type (0, 0), BuildingBlock: CIFDUS_clean_linker_0, # of connection points: 2
#     Edge 17, Type (0, 0), BuildingBlock: CIFDUS_clean_linker_0, # of connection points: 2
#     Edge 18, Type (0, 0), BuildingBlock: CIFDUS_clean_linker_0, # of connection points: 2
#     Edge 19, Type (0, 0), BuildingBlock: CIFDUS_clean_linker_0, # of connection points: 2
#     Edge 20, Type (0, 0), BuildingBlock: CIFDUS_clean_linker_0, # of connection points: 2
#     Edge 21, Type (0, 0), BuildingBlock: CIFDUS_clean_linker_0, # of connection points: 2
#     Edge 22, Type (0, 0), BuildingBlock: CIFDUS_clean_linker_0, # of connection points: 2
#     Edge 23, Type (0, 0), BuildingBlock: CIFDUS_clean_linker_0, # of connection points: 2
#     Edge 24, Type (0, 0), BuildingBlock: CIFDUS_clean_linker_0, # of connection points: 2
#     Edge 25, Type (0, 0), BuildingBlock: CIFDUS_clean_linker_0, # of connection points: 2
#     Edge 26, Type (0, 0), BuildingBlock: CIFDUS_clean_linker_0, # of connection points: 2
#     Edge 27, Type (0, 0), BuildingBlock: CIFDUS_clean_linker_0, # of connection points: 2
#     Edge 28, Type (0, 0), BuildingBlock: CIFDUS_clean_linker_0, # of connection points: 2
#     Edge 29, Type (0, 0), BuildingBlock: CIFDUS_clean_linker_0, # of connection points: 2
#     Edge 30, Type (0, 0), BuildingBlock: CIFDUS_clean_linker_0, # of connection points: 2
#     Edge 31, Type (0, 0), BuildingBlock: CIFDUS_clean_linker_0, # of connection points: 2
#     Edge 32, Type (0, 0), BuildingBlock: CIFDUS_clean_linker_0, # of connection points: 2
#     Edge 33, Type (0, 0), BuildingBlock: CIFDUS_clean_linker_0, # of connection points: 2
#     Edge 34, Type (0, 0), BuildingBlock: CIFDUS_clean_linker_0, # of connection points: 2
#     Edge 35, Type (0, 0), BuildingBlock: CIFDUS_clean_linker_0, # of connection points: 2
#     Edge 36, Type (0, 0), BuildingBlock: CIFDUS_clean_linker_0, # of connection points: 2
#     Edge 37, Type (0, 0), BuildingBlock: CIFDUS_clean_linker_0, # of connection points: 2
#     Edge 38, Type (0, 0), BuildingBlock: CIFDUS_clean_linker_0, # of connection points: 2
#     Edge 39, Type (0, 0), BuildingBlock: CIFDUS_clean_linker_0, # of connection points: 2
#     Edge 40, Type (0, 0), BuildingBlock: CIFDUS_clean_linker_0, # of connection points: 2
#     Edge 41, Type (0, 0), BuildingBlock: CIFDUS_clean_linker_0, # of connection points: 2
#     Edge 42, Type (0, 0), BuildingBlock: CIFDUS_clean_linker_0, # of connection points: 2
#     Edge 43, Type (0, 0), BuildingBlock: CIFDUS_clean_linker_0, # of connection points: 2
#     Edge 44, Type (0, 0), BuildingBlock: CIFDUS_clean_linker_0, # of connection points: 2
#     Edge 45, Type (0, 0), BuildingBlock: CIFDUS_clean_linker_0, # of connection points: 2
#     Edge 46, Type (0, 0), BuildingBlock: CIFDUS_clean_linker_0, # of connection points: 2
#     Edge 47, Type (0, 0), BuildingBlock: CIFDUS_clean_linker_0, # of connection points: 2
# Relax obj value: 0.105
# Max RMSD: 0.246
# Mean RMSD: 0.246
data_MOF--net-ukk--node1-GALJAG_clean_sbu_0--edge1-CIFDUS_clean_linker_0
_symmetry_space_group_name_H-M    P1
_symmetry_Int_Tables_number       1
_symmetry_cell_setting            triclinic
loop_
_symmetry_equiv_pos_as_xyz
'x, y, z'
_cell_length_a     46.954129
_cell_length_b     47.082479
_cell_length_c     16.229842
_cell_angle_alpha  90.014189
_cell_angle_beta   90.023427
_cell_angle_gamma 90.01951
loop_
_atom_site_label
_atom_site_type_symbol
_atom_site_fract_x
_atom_site_fract_y
_atom_site_fract_z
_atom_type_partial_charge
In0 In 0.36502 0.11336 0.08017 0.0
O1 O 0.34727 0.10062 0.95469 0.0
O2 O 0.31839 0.10679 0.0552 0.0
C3 C 0.42197 0.11627 0.07858 0.0
C4 C 0.35317 0.1686 0.09734 0.0
C5 C 0.36147 0.06534 0.167 0.0
O6 O 0.40816 0.11349 0.01194 0.0
O7 O 0.40717 0.11758 0.14319 0.0
O8 O 0.35737 0.08927 0.20098 0.0
O9 O 0.36716 0.0661 0.09094 0.0
C10 C 0.3217 0.10036 0.98017 0.0
O11 O 0.35034 0.15133 0.15672 0.0
O12 O 0.36192 0.15784 0.03078 0.0
In13 In 0.11145 0.65008 0.89329 0.0
O14 O 0.10224 0.66163 0.02666 0.0
O15 O 0.10157 0.69452 0.93542 0.0
C16 C 0.12162 0.59414 0.88049 0.0
C17 C 0.16514 0.6686 0.87618 0.0
C18 C 0.06108 0.65223 0.81593 0.0
O19 O 0.11277 0.60484 0.94741 0.0
O20 O 0.12491 0.6116 0.82232 0.0
O21 O 0.08379 0.65917 0.77876 0.0
O22 O 0.06416 0.64431 0.88963 0.0
C23 C 0.09884 0.6878 0.01048 0.0
O24 O 0.14711 0.67111 0.81828 0.0
O25 O 0.15587 0.65688 0.94078 0.0
In26 In 0.65228 0.88519 0.16209 0.0
O27 O 0.66286 0.84429 0.23146 0.0
O28 O 0.66333 0.84382 0.10006 0.0
C29 C 0.65038 0.92297 0.28675 0.0
C30 C 0.69408 0.90524 0.06412 0.0
C31 C 0.59629 0.87906 0.13149 0.0
O32 O 0.66811 0.90278 0.28633 0.0
O33 O 0.6338 0.9237 0.22584 0.0
O34 O 0.61093 0.89833 0.09711 0.0
O35 O 0.60999 0.86301 0.17951 0.0
C36 C 0.66645 0.83002 0.16606 0.0
O37 O 0.66936 0.90015 0.03671 0.0
O38 O 0.69696 0.90142 0.14045 0.0
In39 In 0.88532 0.33757 0.82433 0.0
O40 O 0.8491 0.31438 0.75776 0.0
O41 O 0.84266 0.32859 0.88137 0.0
C42 C 0.93226 0.33842 0.73109 0.0
C43 C 0.90489 0.30656 0.9506 0.0
C44 C 0.86978 0.39124 0.79313 0.0
O45 O 0.91332 0.31955 0.7209 0.0
O46 O 0.92752 0.35609 0.78788 0.0
O47 O 0.88013 0.38431 0.86261 0.0
O48 O 0.86712 0.3711 0.74223 0.0
C49 C 0.83232 0.3165 0.81873 0.0
O50 O 0.89877 0.33265 0.95899 0.0
O51 O 0.90187 0.29685 0.87859 0.0
In52 In 0.35386 0.39198 0.08649 0.0
O53 O 0.34159 0.35412 0.00591 0.0
O54 O 0.35712 0.3471 0.12876 0.0
C55 C 0.34526 0.44447 0.03283 0.0
C56 C 0.30948 0.39517 0.1871 0.0
C57 C 0.41014 0.39405 0.06759 0.0
O58 O 0.34195 0.42334 0.98484 0.0
O59 O 0.35283 0.43875 0.10584 0.0
O60 O 0.39925 0.39239 0.13915 0.0
O61 O 0.39271 0.3944 0.00826 0.0
C62 C 0.3477 0.33647 0.06259 0.0
O63 O 0.33487 0.39696 0.21425 0.0
O64 O 0.307 0.39174 0.10997 0.0
In65 In 0.38608 0.65725 0.89607 0.0
O66 O 0.3493 0.67502 0.9734 0.0
O67 O 0.34328 0.66979 0.84415 0.0
C68 C 0.43156 0.65342 0.99677 0.0
C69 C 0.40658 0.6919 0.77891 0.0
C70 C 0.37034 0.60258 0.89205 0.0
O71 O 0.41345 0.67314 0.00454 0.0
O72 O 0.42653 0.63607 0.93954 0.0
O73 O 0.38313 0.61399 0.83172 0.0
O74 O 0.36581 0.6188 0.95267 0.0
C75 C 0.33254 0.67683 0.91237 0.0
O76 O 0.40161 0.66589 0.76522 0.0
O77 O 0.40173 0.69998 0.85169 0.0
In78 In 0.64515 0.60983 0.08749 0.0
O79 O 0.66067 0.64933 0.01878 0.0
O80 O 0.65194 0.65199 0.14803 0.0
C81 C 0.64647 0.56551 0.98349 0.0
C82 C 0.68963 0.59672 0.18346 0.0
C83 C 0.58872 0.61594 0.11095 0.0
O84 O 0.6472 0.59073 0.95635 0.0
O85 O 0.6448 0.56321 0.06066 0.0
O86 O 0.60342 0.59966 0.15614 0.0
O87 O 0.60236 0.62852 0.055 0.0
C88 C 0.66005 0.66455 0.0834 0.0
O89 O 0.66439 0.59739 0.21134 0.0
O90 O 0.69202 0.60212 0.10748 0.0
In91 In 0.61627 0.35244 0.85487 0.0
O92 O 0.65012 0.32881 0.92936 0.0
O93 O 0.65751 0.33682 0.80136 0.0
C94 C 0.56969 0.36241 0.94574 0.0
C95 C 0.59424 0.31563 0.74651 0.0
C96 C 0.63744 0.4053 0.86072 0.0
O97 O 0.58901 0.3457 0.97095 0.0
O98 O 0.5742 0.37348 0.8761 0.0
O99 O 0.62305 0.39696 0.79904 0.0
O100 O 0.64088 0.38704 0.91677 0.0
C101 C 0.66678 0.32653 0.86807 0.0
O102 O 0.60307 0.33992 0.72416 0.0
O103 O 0.59594 0.3107 0.82287 0.0
In104 In 0.85262 0.60743 0.63034 0.0
O105 O 0.83484 0.59827 0.50246 0.0
O106 O 0.8065 0.5983 0.60617 0.0
C107 C 0.90828 0.6196 0.63772 0.0
C108 C 0.83651 0.66136 0.64866 0.0
C109 C 0.85422 0.55659 0.70325 0.0
O110 O 0.89722 0.61042 0.57137 0.0
O111 O 0.8914 0.62173 0.69797 0.0
O112 O 0.84618 0.57847 0.74267 0.0
O113 O 0.86153 0.56082 0.62931 0.0
C114 C 0.80952 0.59543 0.52912 0.0
O115 O 0.83476 0.64378 0.70793 0.0
O116 O 0.8459 0.65135 0.58168 0.0
In117 In 0.60801 0.12865 0.41693 0.0
O118 O 0.64755 0.14466 0.34878 0.0
O119 O 0.64795 0.14327 0.48044 0.0
C120 C 0.56788 0.11726 0.3032 0.0
C121 C 0.58513 0.17074 0.50694 0.0
C122 C 0.62058 0.07421 0.4507 0.0
O123 O 0.58862 0.13349 0.2863 0.0
O124 O 0.56756 0.10791 0.37584 0.0
O125 O 0.60193 0.08776 0.49104 0.0
O126 O 0.63331 0.08841 0.39598 0.0
C127 C 0.66123 0.14916 0.415 0.0
O128 O 0.59012 0.14643 0.5369 0.0
O129 O 0.59052 0.17321 0.43109 0.0
In130 In 0.14338 0.3883 0.6277 0.0
O131 O 0.15697 0.35217 0.71367 0.0
O132 O 0.15057 0.3439 0.5851 0.0
C133 C 0.14393 0.43948 0.6994 0.0
C134 C 0.18843 0.39629 0.53035 0.0
C135 C 0.08735 0.3797 0.60959 0.0
O136 O 0.14787 0.41721 0.74195 0.0
O137 O 0.13919 0.43541 0.62384 0.0
O138 O 0.10201 0.39093 0.55281 0.0
O139 O 0.10076 0.37357 0.67451 0.0
C140 C 0.15711 0.33421 0.65515 0.0
O141 O 0.16338 0.3941 0.50165 0.0
O142 O 0.19045 0.39477 0.60795 0.0
In143 In 0.39037 0.85168 0.34291 0.0
O144 O 0.35145 0.82865 0.29038 0.0
O145 O 0.34883 0.8477 0.41 0.0
C146 C 0.43722 0.85069 0.24949 0.0
C147 C 0.40993 0.81981 0.4664 0.0
C148 C 0.37506 0.90408 0.30009 0.0
O149 O 0.4173 0.83281 0.23861 0.0
O150 O 0.43331 0.86845 0.30678 0.0
O151 O 0.3863 0.89921 0.37002 0.0
O152 O 0.37185 0.8826 0.25414 0.0
C153 C 0.3363 0.83418 0.35332 0.0
O154 O 0.40564 0.84628 0.47565 0.0
O155 O 0.40509 0.81025 0.39497 0.0
In156 In 0.86095 0.88177 0.63565 0.0
O157 O 0.84118 0.89373 0.75952 0.0
O158 O 0.81468 0.89259 0.65216 0.0
C159 C 0.91619 0.86755 0.64693 0.0
C160 C 0.84241 0.82853 0.61738 0.0
C161 C 0.86529 0.9306 0.55209 0.0
O162 O 0.90382 0.88045 0.70551 0.0
O163 O 0.90092 0.86265 0.58457 0.0
O164 O 0.85767 0.9079 0.51613 0.0
O165 O 0.87111 0.92806 0.62767 0.0
C166 C 0.81645 0.89681 0.72893 0.0
O167 O 0.84342 0.84565 0.55689 0.0
O168 O 0.85042 0.83862 0.68579 0.0
In169 In 0.88321 0.14859 0.39345 0.0
O170 O 0.90179 0.15483 0.26453 0.0
O171 O 0.89661 0.19092 0.34326 0.0
C172 C 0.87276 0.09449 0.4327 0.0
C173 C 0.8283 0.1622 0.37464 0.0
C174 C 0.9262 0.15349 0.49999 0.0
O175 O 0.88432 0.10083 0.36428 0.0
O176 O 0.86633 0.11535 0.47806 0.0
O177 O 0.90464 0.16966 0.50484 0.0
O178 O 0.92599 0.13579 0.44153 0.0
C179 C 0.90413 0.18153 0.27365 0.0
O180 O 0.84186 0.16856 0.43982 0.0
O181 O 0.84271 0.14969 0.31988 0.0
In182 In 0.1341 0.11316 0.64039 0.0
O183 O 0.14931 0.10048 0.76962 0.0
O184 O 0.17789 0.09603 0.66889 0.0
C185 C 0.07845 0.1236 0.66402 0.0
C186 C 0.1521 0.16695 0.62545 0.0
C187 C 0.13073 0.07228 0.52446 0.0
O188 O 0.09148 0.10464 0.70455 0.0
O189 O 0.09356 0.13722 0.61335 0.0
O190 O 0.14817 0.09262 0.5185 0.0
O191 O 0.11517 0.07287 0.58763 0.0
C192 C 0.17411 0.09405 0.74549 0.0
O193 O 0.14884 0.15092 0.56343 0.0
O194 O 0.14647 0.15563 0.69402 0.0
In195 In 0.11533 0.8607 0.41445 0.0
O196 O 0.15471 0.84879 0.49239 0.0
O197 O 0.15837 0.84958 0.36193 0.0
C198 C 0.07778 0.85716 0.54129 0.0
C199 C 0.0985 0.82325 0.29962 0.0
C200 C 0.11223 0.91632 0.37493 0.0
O201 O 0.09684 0.87603 0.53862 0.0
O202 O 0.07928 0.83922 0.48401 0.0
O203 O 0.09118 0.89979 0.36767 0.0
O204 O 0.13494 0.90443 0.39777 0.0
C205 C 0.17046 0.84523 0.42993 0.0
O206 O 0.09979 0.84962 0.28455 0.0
O207 O 0.10501 0.81633 0.37231 0.0
H208 H 0.37996 0.95514 0.38089 0.0
H209 H 0.35272 0.91714 0.15162 0.0
H210 H 0.34391 0.96377 0.0936 0.0
H211 H 0.34754 0.01507 0.10277 0.0
H212 H 0.37382 0.05474 0.3296 0.0
H213 H 0.37902 0.00781 0.39436 0.0
C214 C 0.37185 0.95716 0.31861 0.0
C215 C 0.36741 0.9327 0.27033 0.0
C216 C 0.36672 0.98428 0.2851 0.0
C217 C 0.35662 0.93558 0.18995 0.0
C218 C 0.35154 0.96226 0.15651 0.0
C219 C 0.35413 0.01344 0.16672 0.0
C220 C 0.36063 0.03809 0.21126 0.0
C221 C 0.3571 0.98668 0.2028 0.0
C222 C 0.3687 0.03589 0.29431 0.0
C223 C 0.37184 0.0091 0.331 0.0
H224 H 0.0421 0.631 0.66858 0.0
H225 H 0.01594 0.67693 0.88561 0.0
H226 H 0.96624 0.67339 0.84374 0.0
H227 H 0.93019 0.65269 0.75561 0.0
H228 H 0.95422 0.60424 0.5413 0.0
H229 H 0.00479 0.61339 0.57111 0.0
C230 C 0.02545 0.64077 0.70518 0.0
C231 C 0.03243 0.65424 0.77992 0.0
C232 C 0.99663 0.63777 0.68199 0.0
C233 C 0.01086 0.66647 0.82793 0.0
C234 C 0.98249 0.66434 0.80425 0.0
C235 C 0.94645 0.64426 0.71488 0.0
C236 C 0.93859 0.62743 0.64719 0.0
C237 C 0.97511 0.64925 0.73307 0.0
C238 C 0.95984 0.61713 0.59413 0.0
C239 C 0.9887 0.6223 0.61137 0.0
H240 H 0.60608 0.94661 0.36678 0.0
H241 H 0.69683 0.95308 0.33326 0.0
H242 H 0.69651 0.00067 0.39433 0.0
H243 H 0.66872 0.04327 0.43233 0.0
H244 H 0.57829 0.03584 0.47219 0.0
H245 H 0.5801 0.9855 0.43549 0.0
C246 C 0.62586 0.95813 0.37573 0.0
C247 C 0.65139 0.94672 0.34534 0.0
C248 C 0.62546 0.98533 0.41107 0.0
C249 C 0.67699 0.96155 0.35692 0.0
C250 C 0.67675 0.98883 0.39099 0.0
C251 C 0.64965 0.03031 0.43562 0.0
C252 C 0.62337 0.04311 0.45385 0.0
C253 C 0.6509 0.00139 0.4147 0.0
C254 C 0.59875 0.0263 0.45855 0.0
C255 C 0.59973 0.99761 0.43677 0.0
H256 H 0.05995 0.33014 0.63058 0.0
H257 H 0.04641 0.41885 0.57919 0.0
H258 H 0.99516 0.41306 0.60317 0.0
H259 H 0.95597 0.38409 0.65956 0.0
H260 H 0.96891 0.29483 0.70393 0.0
H261 H 0.01873 0.29912 0.66018 0.0
C262 C 0.04553 0.34793 0.62245 0.0
C263 C 0.05658 0.37489 0.60389 0.0
C264 C 0.01623 0.34431 0.63561 0.0
C265 C 0.03808 0.39793 0.59309 0.0
C266 C 0.00891 0.39464 0.6074 0.0
C267 C 0.96958 0.36548 0.65724 0.0
C268 C 0.95918 0.33925 0.6853 0.0
C269 C 0.99797 0.36816 0.63166 0.0
C270 C 0.97665 0.31515 0.68204 0.0
C271 C 0.00512 0.31769 0.65781 0.0
H272 H 0.36118 0.46889 0.88773 0.0
H273 H 0.32228 0.48639 0.12296 0.0
H274 H 0.32365 0.53723 0.09486 0.0
H275 H 0.34085 0.57649 0.01189 0.0
H276 H 0.38311 0.56047 0.78063 0.0
H277 H 0.37531 0.50928 0.79797 0.0
C278 C 0.35242 0.48392 0.93157 0.0
C279 C 0.34164 0.47415 0.00718 0.0
C280 C 0.35427 0.5133 0.91625 0.0
C281 C 0.33072 0.49362 0.06445 0.0
C282 C 0.33159 0.52264 0.04858 0.0
C283 C 0.34811 0.56187 0.96469 0.0
C284 C 0.36283 0.57216 0.89562 0.0
C285 C 0.34415 0.5327 0.97603 0.0
C286 C 0.37185 0.55298 0.83466 0.0
C287 C 0.36746 0.52374 0.84468 0.0
H288 H 0.45769 0.60641 0.0542 0.0
H289 H 0.46593 0.69743 0.03967 0.0
H290 H 0.51573 0.69411 0.08386 0.0
H291 H 0.55847 0.66446 0.1051 0.0
H292 H 0.54971 0.5737 0.12717 0.0
H293 H 0.49831 0.57761 0.10284 0.0
C294 C 0.47026 0.62552 0.06299 0.0
C295 C 0.45849 0.6521 0.04304 0.0
C296 C 0.49871 0.6234 0.08886 0.0
C297 C 0.47466 0.6768 0.05505 0.0
C298 C 0.50315 0.67486 0.07955 0.0
C299 C 0.54508 0.64568 0.10673 0.0
C300 C 0.55762 0.61881 0.11694 0.0
C301 C 0.51565 0.64819 0.09346 0.0
C302 C 0.54032 0.59456 0.11965 0.0
C303 C 0.51104 0.5968 0.10509 0.0
H304 H 0.61819 0.45434 0.78788 0.0
H305 H 0.67991 0.42189 0.96112 0.0
H306 H 0.6912 0.46987 0.0056 0.0
H307 H 0.6783 0.51985 0.01133 0.0
H308 H 0.61649 0.55386 0.8422 0.0
H309 H 0.61068 0.5067 0.7789 0.0
C310 C 0.63459 0.45794 0.83375 0.0
C311 C 0.64785 0.43462 0.87224 0.0
C312 C 0.6407 0.4858 0.86041 0.0
C313 C 0.6691 0.43948 0.93154 0.0
C314 C 0.67557 0.46691 0.95716 0.0
C315 C 0.66408 0.51701 0.9592 0.0
C316 C 0.64765 0.53994 0.93163 0.0
C317 C 0.66068 0.49004 0.92453 0.0
C318 C 0.62941 0.53634 0.86393 0.0
C319 C 0.62594 0.50936 0.82842 0.0
H320 H 0.45303 0.36369 0.14012 0.0
H321 H 0.43549 0.42731 0.95582 0.0
H322 H 0.48459 0.4251 0.9079 0.0
H323 H 0.53049 0.40169 0.90779 0.0
H324 H 0.54879 0.33572 0.08424 0.0
H325 H 0.50157 0.34231 0.14653 0.0
C326 C 0.46031 0.37747 0.09089 0.0
C327 C 0.44088 0.39565 0.05136 0.0
C328 C 0.48849 0.37535 0.06157 0.0
C329 C 0.4502 0.41314 0.9868 0.0
C330 C 0.47819 0.41182 0.95922 0.0
C331 C 0.52432 0.38887 0.9604 0.0
C332 C 0.54291 0.36801 0.99075 0.0
C333 C 0.49721 0.39241 0.99439 0.0
C334 C 0.53473 0.35183 0.05952 0.0
C335 C 0.50773 0.35556 0.09494 0.0
H336 H 0.87043 0.43954 0.8888 0.0
H337 H 0.8541 0.40919 0.64196 0.0
H338 H 0.84673 0.45746 0.5945 0.0
H339 H 0.84752 0.50822 0.61972 0.0
H340 H 0.86187 0.54038 0.86476 0.0
H341 H 0.86714 0.49154 0.91663 0.0
C342 C 0.86503 0.44357 0.8249 0.0
C343 C 0.86311 0.42077 0.76892 0.0
C344 C 0.86057 0.47166 0.79759 0.0
C345 C 0.85587 0.42627 0.68639 0.0
C346 C 0.85167 0.45392 0.65894 0.0
C347 C 0.85168 0.50455 0.68465 0.0
C348 C 0.85468 0.5277 0.73826 0.0
C349 C 0.85441 0.47672 0.71356 0.0
C350 C 0.85953 0.52275 0.82242 0.0
C351 C 0.86265 0.49488 0.85186 0.0
H352 H 0.54622 0.1486 0.17489 0.0
H353 H 0.5376 0.06893 0.30385 0.0
H354 H 0.49337 0.05904 0.23135 0.0
H355 H 0.45333 0.07664 0.15084 0.0
H356 H 0.45927 0.1569 0.02561 0.0
H357 H 0.50841 0.16291 0.07532 0.0
C358 C 0.53497 0.1288 0.18516 0.0
C359 C 0.54483 0.10972 0.24547 0.0
C360 C 0.50894 0.12351 0.14443 0.0
C361 C 0.53012 0.08413 0.25861 0.0
C362 C 0.50483 0.07843 0.21723 0.0
C363 C 0.46586 0.09492 0.13211 0.0
C364 C 0.45312 0.11619 0.08454 0.0
C365 C 0.49347 0.09848 0.16284 0.0
C366 C 0.46906 0.14008 0.06128 0.0
C367 C 0.49696 0.14364 0.09058 0.0
H368 H 0.14846 0.57071 0.75197 0.0
H369 H 0.10739 0.54904 0.98101 0.0
H370 H 0.11329 0.49826 0.94984 0.0
H371 H 0.12669 0.46011 0.84992 0.0
H372 H 0.16556 0.48412 0.61931 0.0
H373 H 0.16426 0.53388 0.65901 0.0
C374 C 0.14091 0.55493 0.79554 0.0
C375 C 0.12722 0.56355 0.86813 0.0
C376 C 0.14399 0.52615 0.7767 0.0
C377 C 0.11792 0.54286 0.92442 0.0
C378 C 0.12123 0.51386 0.90648 0.0
C379 C 0.13526 0.47631 0.80941 0.0
C380 C 0.14604 0.46862 0.73166 0.0
C381 C 0.13376 0.50523 0.83184 0.0
C382 C 0.15692 0.48966 0.67912 0.0
C383 C 0.15618 0.5181 0.70167 0.0
H384 H 0.466 0.89567 0.19014 0.0
H385 H 0.46929 0.8045 0.21045 0.0
H386 H 0.51917 0.80482 0.16554 0.0
H387 H 0.56339 0.832 0.14087 0.0
H388 H 0.5593 0.923 0.11407 0.0
H389 H 0.50794 0.9219 0.13961 0.0
C390 C 0.47752 0.87586 0.18261 0.0
C391 C 0.46435 0.85012 0.20419 0.0
C392 C 0.50598 0.87627 0.15634 0.0
C393 C 0.47914 0.82451 0.1938 0.0
C394 C 0.50766 0.82474 0.16883 0.0
C395 C 0.55105 0.85146 0.13862 0.0
C396 C 0.56499 0.87758 0.1267 0.0
C397 C 0.52156 0.8506 0.15291 0.0
C398 C 0.54893 0.90267 0.12301 0.0
C399 C 0.51964 0.90206 0.13828 0.0
H400 H 0.85759 0.98037 0.62693 0.0
H401 H 0.8739 0.94373 0.38832 0.0
H402 H 0.87748 0.9916 0.32809 0.0
H403 H 0.8776 0.0443 0.34634 0.0
H404 H 0.85882 0.07881 0.58703 0.0
H405 H 0.85451 0.03133 0.64321 0.0
C406 C 0.86193 0.98282 0.56163 0.0
C407 C 0.86587 0.95873 0.51222 0.0
C408 C 0.86353 0.01006 0.52792 0.0
C409 C 0.87089 0.96211 0.42749 0.0
C410 C 0.873 0.98943 0.39328 0.0
C411 C 0.87244 0.04131 0.41086 0.0
C412 C 0.86873 0.0651 0.46243 0.0
C413 C 0.86962 0.01364 0.44323 0.0
C414 C 0.86181 0.06095 0.54583 0.0
C415 C 0.85939 0.03377 0.5783 0.0
H416 H 0.94956 0.1107 0.58522 0.0
H417 H 0.95843 0.19998 0.53384 0.0
H418 H 0.00656 0.1996 0.59277 0.0
H419 H 0.04849 0.17164 0.63589 0.0
H420 H 0.03887 0.08259 0.6911 0.0
H421 H 0.9883 0.08506 0.6555 0.0
C422 C 0.9618 0.1302 0.58952 0.0
C423 C 0.95089 0.15528 0.55509 0.0
C424 C 0.98928 0.12971 0.62326 0.0
C425 C 0.96657 0.18054 0.56064 0.0
C426 C 0.99411 0.18021 0.59354 0.0
C427 C 0.03506 0.15302 0.64229 0.0
C428 C 0.04728 0.12688 0.66475 0.0
C429 C 0.00608 0.15464 0.62166 0.0
C430 C 0.02982 0.1029 0.67387 0.0
C431 C 0.001 0.10426 0.65285 0.0
H432 H 0.15443 0.95526 0.35866 0.0
H433 H 0.06376 0.94718 0.39428 0.0
H434 H 0.06084 0.99712 0.43407 0.0
H435 H 0.08546 0.04019 0.48216 0.0
H436 H 0.17587 0.0489 0.44413 0.0
H437 H 0.17754 0.00171 0.38069 0.0
C438 C 0.13394 0.9647 0.37287 0.0
C439 C 0.10943 0.94753 0.37494 0.0
C440 C 0.13247 0.99337 0.39637 0.0
C441 C 0.08293 0.95997 0.39247 0.0
C442 C 0.08129 0.98846 0.41597 0.0
C443 C 0.10536 0.03198 0.45798 0.0
C444 C 0.13058 0.04761 0.46871 0.0
C445 C 0.10611 0.00493 0.42177 0.0
C446 C 0.15622 0.03711 0.43646 0.0
C447 C 0.1572 0.01008 0.4008 0.0
H448 H 0.96292 0.89727 0.69914 0.0
H449 H 0.93626 0.81738 0.59466 0.0
H450 H 0.98568 0.80448 0.56795 0.0
H451 H 0.03509 0.8191 0.55303 0.0
H452 H 0.06229 0.90069 0.6446 0.0
H453 H 0.01449 0.90948 0.69946 0.0
C454 C 0.96816 0.87676 0.67274 0.0
C455 C 0.94615 0.85829 0.6485 0.0
C456 C 0.99672 0.86993 0.65441 0.0
C457 C 0.95297 0.83193 0.61331 0.0
C458 C 0.98118 0.82457 0.59785 0.0
C459 C 0.03079 0.83852 0.58683 0.0
C460 C 0.0521 0.85933 0.59385 0.0
C461 C 0.00309 0.84389 0.61494 0.0
C462 C 0.04623 0.88431 0.63823 0.0
C463 C 0.0188 0.88946 0.66893 0.0
H464 H 0.3447 0.29821 0.18538 0.0
H465 H 0.34384 0.30541 0.92041 0.0
H466 H 0.34376 0.2535 0.90809 0.0
H467 H 0.34747 0.20646 0.97322 0.0
H468 H 0.34753 0.19959 0.23838 0.0
H469 H 0.34415 0.25128 0.2503 0.0
C470 C 0.34434 0.28841 0.12487 0.0
C471 C 0.34469 0.30548 0.05378 0.0
C472 C 0.34424 0.25876 0.11851 0.0
C473 C 0.34369 0.29262 0.97587 0.0
C474 C 0.34374 0.26301 0.96892 0.0
C475 C 0.34653 0.21629 0.03361 0.0
C476 C 0.34809 0.19936 0.10492 0.0
C477 C 0.34457 0.24592 0.03985 0.0
C478 C 0.34645 0.21224 0.18273 0.0
C479 C 0.34462 0.24175 0.18951 0.0
H480 H 0.20263 0.67613 0.0004 0.0
H481 H 0.19546 0.67928 0.73559 0.0
H482 H 0.24708 0.68572 0.72408 0.0
H483 H 0.29444 0.68477 0.78899 0.0
H484 H 0.3014 0.68098 0.05392 0.0
H485 H 0.2495 0.68098 0.06587 0.0
C486 C 0.21234 0.67858 0.94017 0.0
C487 C 0.19539 0.6768 0.86881 0.0
C488 C 0.24193 0.68206 0.93417 0.0
C489 C 0.20811 0.68045 0.7913 0.0
C490 C 0.23761 0.68401 0.78476 0.0
C491 C 0.2846 0.68445 0.84944 0.0
C492 C 0.30171 0.68251 0.9205 0.0
C493 C 0.25478 0.68402 0.8557 0.0
C494 C 0.28869 0.68238 0.99835 0.0
C495 C 0.25902 0.6822 0.00516 0.0
H496 H 0.67334 0.79622 0.0326 0.0
H497 H 0.66864 0.79423 0.29818 0.0
H498 H 0.66882 0.74232 0.29549 0.0
H499 H 0.66568 0.698 0.21731 0.0
H500 H 0.66898 0.69975 0.95163 0.0
H501 H 0.67424 0.7515 0.95466 0.0
C502 C 0.67272 0.78443 0.08999 0.0
C503 C 0.67068 0.79899 0.16552 0.0
C504 C 0.67236 0.75466 0.08783 0.0
C505 C 0.6701 0.78348 0.23932 0.0
C506 C 0.67009 0.75383 0.23777 0.0
C507 C 0.6678 0.70966 0.16 0.0
C508 C 0.66658 0.69518 0.08425 0.0
C509 C 0.67047 0.73927 0.16231 0.0
C510 C 0.66972 0.71049 0.01063 0.0
C511 C 0.67264 0.74004 0.01238 0.0
H512 H 0.70196 0.31209 0.74304 0.0
H513 H 0.69806 0.31846 0.00799 0.0
H514 H 0.74961 0.31158 0.01643 0.0
H515 H 0.79607 0.31116 0.94706 0.0
H516 H 0.80009 0.30596 0.68192 0.0
H517 H 0.74805 0.30445 0.6749 0.0
C518 C 0.71234 0.31142 0.80273 0.0
C519 C 0.69638 0.31626 0.87475 0.0
C520 C 0.74196 0.30792 0.80691 0.0
C521 C 0.70994 0.31493 0.95172 0.0
C522 C 0.73942 0.31117 0.9565 0.0
C523 C 0.78555 0.30914 0.88782 0.0
C524 C 0.80179 0.30917 0.81497 0.0
C525 C 0.75572 0.30878 0.8843 0.0
C526 C 0.788 0.30611 0.73875 0.0
C527 C 0.75826 0.30544 0.73474 0.0
H528 H 0.8308 0.69962 0.52591 0.0
H529 H 0.82989 0.69188 0.7908 0.0
H530 H 0.82862 0.74366 0.80404 0.0
H531 H 0.83334 0.79075 0.74021 0.0
H532 H 0.83516 0.7983 0.47525 0.0
H533 H 0.83019 0.74679 0.46199 0.0
C534 C 0.82993 0.70926 0.58658 0.0
C535 C 0.83083 0.69203 0.65737 0.0
C536 C 0.82959 0.73892 0.59356 0.0
C537 C 0.8293 0.70473 0.73548 0.0
C538 C 0.82873 0.73431 0.74301 0.0
C539 C 0.83227 0.78115 0.67952 0.0
C540 C 0.83501 0.79821 0.60874 0.0
C541 C 0.82974 0.75157 0.67249 0.0
C542 C 0.83324 0.78558 0.53057 0.0
C543 C 0.83051 0.75614 0.52301 0.0
H544 H 0.78975 0.17407 0.49456 0.0
H545 H 0.79728 0.15784 0.23389 0.0
H546 H 0.74554 0.15553 0.22115 0.0
H547 H 0.6985 0.15248 0.287 0.0
H548 H 0.69129 0.16641 0.54892 0.0
H549 H 0.74232 0.17551 0.55808 0.0
C550 C 0.78001 0.17061 0.43477 0.0
C551 C 0.79725 0.16588 0.36551 0.0
C552 C 0.75026 0.16856 0.42822 0.0
C553 C 0.7844 0.16132 0.28835 0.0
C554 C 0.75482 0.15991 0.28099 0.0
C555 C 0.70806 0.15796 0.34574 0.0
C556 C 0.69125 0.15844 0.41722 0.0
C557 C 0.73757 0.1626 0.35095 0.0
C558 C 0.70388 0.1656 0.49303 0.0
C559 C 0.73307 0.1708 0.49842 0.0
H560 H 0.16586 0.29562 0.53564 0.0
H561 H 0.15927 0.3041 0.79966 0.0
H562 H 0.16013 0.25227 0.81414 0.0
H563 H 0.15748 0.20496 0.75002 0.0
H564 H 0.16226 0.19716 0.48531 0.0
H565 H 0.1676 0.24857 0.47275 0.0
C566 C 0.16494 0.28616 0.59653 0.0
C567 C 0.16212 0.30356 0.66649 0.0
C568 C 0.1649 0.25657 0.60403 0.0
C569 C 0.16135 0.29108 0.74496 0.0
C570 C 0.16169 0.2615 0.75313 0.0
C571 C 0.16006 0.21449 0.68964 0.0
C572 C 0.15914 0.19737 0.61853 0.0
C573 C 0.16264 0.24407 0.68287 0.0
C574 C 0.16271 0.20993 0.54082 0.0
C575 C 0.1657 0.2393 0.53362 0.0
H576 H 0.20392 0.82717 0.30515 0.0
H577 H 0.20578 0.84824 0.56382 0.0
H578 H 0.25773 0.84342 0.56452 0.0
H579 H 0.30258 0.83833 0.48793 0.0
H580 H 0.30063 0.81785 0.2288 0.0
H581 H 0.24853 0.81687 0.23216 0.0
C582 C 0.21567 0.83039 0.36196 0.0
C583 C 0.20114 0.83845 0.43415 0.0
C584 C 0.24543 0.82779 0.36161 0.0
C585 C 0.21653 0.84215 0.50749 0.0
C586 C 0.24621 0.8395 0.50777 0.0
C587 C 0.29076 0.83324 0.43241 0.0
C588 C 0.30539 0.82851 0.35791 0.0
C589 C 0.26089 0.83309 0.43466 0.0
C590 C 0.28985 0.82162 0.28677 0.0
C591 C 0.26008 0.82124 0.2886 0.0
H592 H 0.22905 0.08447 0.70419 0.0
H593 H 0.1733 0.09341 0.91397 0.0
H594 H 0.21453 0.09388 0.00618 0.0
H595 H 0.2663 0.09678 0.02519 0.0
H596 H 0.322 0.08975 0.81465 0.0
H597 H 0.28075 0.08348 0.72436 0.0
C598 C 0.22586 0.08605 0.77023 0.0
C599 C 0.19818 0.08913 0.80225 0.0
C600 C 0.24963 0.08704 0.82243 0.0
C601 C 0.1944 0.09107 0.88787 0.0
C602 C 0.21796 0.09152 0.9405 0.0
C603 C 0.26945 0.09364 0.95961 0.0
C604 C 0.29713 0.09408 0.92638 0.0
C605 C 0.24567 0.09037 0.90816 0.0
C606 C 0.30088 0.08971 0.84153 0.0
C607 C 0.27732 0.08613 0.78995 0.0
H608 H 0.0939 0.76662 0.32241 0.0
H609 H 0.09075 0.83128 0.13421 0.0
H610 H 0.08809 0.79458 0.02768 0.0
H611 H 0.09123 0.74431 0.98819 0.0
H612 H 0.09588 0.67984 0.17679 0.0
H613 H 0.0932 0.7164 0.28344 0.0
C614 C 0.09228 0.77271 0.25812 0.0
C615 C 0.09279 0.80159 0.23602 0.0
C616 C 0.09126 0.75156 0.19747 0.0
C617 C 0.09047 0.80917 0.15265 0.0
C618 C 0.08908 0.78821 0.09179 0.0
C619 C 0.09136 0.73823 0.05266 0.0
C620 C 0.09405 0.70945 0.07471 0.0
C621 C 0.09018 0.75936 0.11347 0.0
C622 C 0.09398 0.70187 0.15834 0.0
C623 C 0.09251 0.72275 0.21928 0.0
H624 H 0.69589 0.90559 0.89648 0.0
H625 H 0.74831 0.9168 0.11248 0.0
H626 H 0.79104 0.91724 0.02712 0.0
H627 H 0.81389 0.90936 0.89269 0.0
H628 H 0.76142 0.89784 0.67688 0.0
H629 H 0.71854 0.90273 0.76027 0.0
C630 C 0.71662 0.90869 0.92462 0.0
C631 C 0.71893 0.91087 0.01066 0.0
C632 C 0.74121 0.90848 0.87527 0.0
C633 C 0.74595 0.9149 0.04631 0.0
C634 C 0.77044 0.91502 0.9976 0.0
C635 C 0.79307 0.90823 0.86389 0.0
C636 C 0.79087 0.90288 0.77901 0.0
C637 C 0.7684 0.91097 0.91229 0.0
C638 C 0.76374 0.90174 0.74232 0.0
C639 C 0.73915 0.90451 0.78994 0.0
H640 H 0.90955 0.23865 0.28251 0.0
H641 H 0.91526 0.16833 0.11264 0.0
H642 H 0.91981 0.20155 0.99747 0.0
H643 H 0.91616 0.25021 0.94443 0.0
H644 H 0.90796 0.32036 0.11402 0.0
H645 H 0.91077 0.28749 0.2304 0.0
C646 C 0.91223 0.23055 0.22041 0.0
C647 C 0.91171 0.20107 0.2059 0.0
C648 C 0.91416 0.24974 0.15458 0.0
C649 C 0.91544 0.19092 0.12529 0.0
C650 C 0.91792 0.20991 0.05946 0.0
C651 C 0.91544 0.25838 0.00689 0.0
C652 C 0.91151 0.28765 0.02067 0.0
C653 C 0.91639 0.23932 0.07323 0.0
C654 C 0.91082 0.29792 0.10185 0.0
C655 C 0.91231 0.27912 0.16834 0.0
H656 H 0.1901 0.39577 0.36352 0.0
H657 H 0.2437 0.40212 0.57877 0.0
H658 H 0.28607 0.40316 0.49161 0.0
H659 H 0.308 0.40046 0.35412 0.0
H660 H 0.25407 0.3934 0.1396 0.0
H661 H 0.21182 0.39448 0.22654 0.0
C662 C 0.21105 0.39758 0.39128 0.0
C663 C 0.21379 0.39879 0.47729 0.0
C664 C 0.2353 0.3979 0.34096 0.0
C665 C 0.24105 0.40111 0.51253 0.0
C666 C 0.2653 0.40166 0.4628 0.0
C667 C 0.28699 0.39926 0.32654 0.0
C668 C 0.28418 0.39673 0.24072 0.0
C669 C 0.2627 0.39976 0.37695 0.0
C670 C 0.25683 0.39525 0.20565 0.0
C671 C 0.23262 0.39588 0.25525 0.0
H672 H 0.42042 0.76357 0.45629 0.0
H673 H 0.41345 0.83234 0.63093 0.0
H674 H 0.41543 0.79835 0.74492 0.0
H675 H 0.41294 0.74892 0.7932 0.0
H676 H 0.41724 0.68031 0.61716 0.0
H677 H 0.42276 0.71451 0.50511 0.0
C678 C 0.41979 0.7712 0.51933 0.0
C679 C 0.41643 0.80038 0.53527 0.0
C680 C 0.42017 0.75155 0.58409 0.0
C681 C 0.41591 0.80997 0.61716 0.0
C682 C 0.41688 0.79053 0.68226 0.0
C683 C 0.41553 0.74144 0.73044 0.0
C684 C 0.41433 0.71215 0.71324 0.0
C685 C 0.41804 0.76123 0.66624 0.0
C686 C 0.41788 0.70275 0.63181 0.0
C687 C 0.42096 0.72229 0.56776 0.0
H688 H 0.69089 0.58894 0.34936 0.0
H689 H 0.74515 0.59501 0.13557 0.0
H690 H 0.78733 0.59304 0.22321 0.0
H691 H 0.80879 0.59331 0.36145 0.0
H692 H 0.75437 0.58805 0.57513 0.0
H693 H 0.71243 0.58577 0.48684 0.0
C694 C 0.71195 0.58949 0.32196 0.0
C695 C 0.71487 0.59233 0.23627 0.0
C696 C 0.73614 0.58867 0.37276 0.0
C697 C 0.7423 0.59296 0.20153 0.0
C698 C 0.76647 0.5919 0.25158 0.0
C699 C 0.78778 0.59134 0.38855 0.0
C700 C 0.7847 0.59109 0.47461 0.0
C701 C 0.76365 0.59033 0.33741 0.0
C702 C 0.75733 0.58846 0.50895 0.0
C703 C 0.73329 0.58719 0.45855 0.0
H704 H 0.58512 0.22615 0.46147 0.0
H705 H 0.57017 0.17093 0.66925 0.0
H706 H 0.56765 0.21208 0.76068 0.0
H707 H 0.57613 0.26271 0.78383 0.0
H708 H 0.59431 0.31775 0.57788 0.0
H709 H 0.58874 0.2777 0.48305 0.0
C710 C 0.58072 0.22316 0.52649 0.0
C711 C 0.5781 0.19553 0.55879 0.0
C712 C 0.58019 0.24684 0.57901 0.0
C713 C 0.57242 0.19197 0.64308 0.0
C714 C 0.57109 0.21548 0.69539 0.0
C715 C 0.57842 0.26608 0.71805 0.0
C716 C 0.58597 0.29307 0.68792 0.0
C717 C 0.57596 0.24288 0.66442 0.0
C718 C 0.58864 0.29714 0.60257 0.0
C719 C 0.58558 0.27423 0.54842 0.0
loop_
_geom_bond_atom_site_label_1
_geom_bond_atom_site_label_2
_geom_bond_distance
_geom_bond_site_symmetry_2
_ccdc_geom_bond_type
In0 O1 2.294 . S
In0 O2 2.326 . S
In0 O6 2.266 . S
In0 O7 2.326 . S
In0 O8 2.266 . S
In0 O9 2.326 . S
In0 O11 2.294 . S
In0 O12 2.326 . S
O1 In0 2.294 . S
O1 C10 1.240 . S
O2 In0 2.326 . S
O2 C10 1.252 . S
C3 O6 1.252 . S
C3 O7 1.260 . S
C4 O11 1.240 . S
C4 O12 1.252 . S
C5 O8 1.252 . S
C5 O9 1.260 . S
O6 In0 2.266 . S
O6 C3 1.252 . S
O7 In0 2.326 . S
O7 C3 1.260 . S
O8 In0 2.266 . S
O8 C5 1.252 . S
O9 In0 2.326 . S
O9 C5 1.260 . S
C10 O1 1.240 . S
C10 O2 1.252 . S
O11 In0 2.294 . S
O11 C4 1.240 . S
O12 In0 2.326 . S
O12 C4 1.252 . S
In13 O14 2.294 . S
In13 O15 2.326 . S
In13 O19 2.266 . S
In13 O20 2.326 . S
In13 O21 2.266 . S
In13 O22 2.326 . S
In13 O24 2.294 . S
In13 O25 2.326 . S
O14 In13 2.294 . S
O14 C23 1.240 . S
O15 In13 2.326 . S
O15 C23 1.252 . S
C16 O19 1.252 . S
C16 O20 1.260 . S
C17 O24 1.240 . S
C17 O25 1.252 . S
C18 O21 1.252 . S
C18 O22 1.260 . S
O19 In13 2.266 . S
O19 C16 1.252 . S
O20 In13 2.326 . S
O20 C16 1.260 . S
O21 In13 2.266 . S
O21 C18 1.252 . S
O22 In13 2.326 . S
O22 C18 1.260 . S
C23 O14 1.240 . S
C23 O15 1.252 . S
O24 In13 2.294 . S
O24 C17 1.240 . S
O25 In13 2.326 . S
O25 C17 1.252 . S
In26 O27 2.294 . S
In26 O28 2.326 . S
In26 O32 2.266 . S
In26 O33 2.326 . S
In26 O34 2.266 . S
In26 O35 2.326 . S
In26 O37 2.294 . S
In26 O38 2.326 . S
O27 In26 2.294 . S
O27 C36 1.240 . S
O28 In26 2.326 . S
O28 C36 1.252 . S
C29 O32 1.252 . S
C29 O33 1.260 . S
C30 O37 1.240 . S
C30 O38 1.252 . S
C31 O34 1.252 . S
C31 O35 1.260 . S
O32 In26 2.266 . S
O32 C29 1.252 . S
O33 In26 2.326 . S
O33 C29 1.260 . S
O34 In26 2.266 . S
O34 C31 1.252 . S
O35 In26 2.326 . S
O35 C31 1.260 . S
C36 O27 1.240 . S
C36 O28 1.252 . S
O37 In26 2.294 . S
O37 C30 1.240 . S
O38 In26 2.326 . S
O38 C30 1.252 . S
In39 O40 2.294 . S
In39 O41 2.326 . S
In39 O45 2.266 . S
In39 O46 2.326 . S
In39 O47 2.266 . S
In39 O48 2.326 . S
In39 O50 2.294 . S
In39 O51 2.326 . S
O40 In39 2.294 . S
O40 C49 1.240 . S
O41 In39 2.326 . S
O41 C49 1.252 . S
C42 O45 1.252 . S
C42 O46 1.260 . S
C43 O50 1.240 . S
C43 O51 1.252 . S
C44 O47 1.252 . S
C44 O48 1.260 . S
O45 In39 2.266 . S
O45 C42 1.252 . S
O46 In39 2.326 . S
O46 C42 1.260 . S
O47 In39 2.266 . S
O47 C44 1.252 . S
O48 In39 2.326 . S
O48 C44 1.260 . S
C49 O40 1.240 . S
C49 O41 1.252 . S
O50 In39 2.294 . S
O50 C43 1.240 . S
O51 In39 2.326 . S
O51 C43 1.252 . S
In52 O53 2.294 . S
In52 O54 2.326 . S
In52 O58 2.266 1_554 S
In52 O59 2.326 . S
In52 O60 2.266 . S
In52 O61 2.326 . S
In52 O63 2.294 . S
In52 O64 2.326 . S
O53 In52 2.294 . S
O53 C62 1.240 . S
O54 In52 2.326 . S
O54 C62 1.252 . S
C55 O58 1.252 1_554 S
C55 O59 1.260 . S
C56 O63 1.240 . S
C56 O64 1.252 . S
C57 O60 1.252 . S
C57 O61 1.260 . S
O58 In52 2.266 1_556 S
O58 C55 1.252 1_556 S
O59 In52 2.326 . S
O59 C55 1.260 . S
O60 In52 2.266 . S
O60 C57 1.252 . S
O61 In52 2.326 . S
O61 C57 1.260 . S
C62 O53 1.240 . S
C62 O54 1.252 . S
O63 In52 2.294 . S
O63 C56 1.240 . S
O64 In52 2.326 . S
O64 C56 1.252 . S
In65 O66 2.294 . S
In65 O67 2.326 . S
In65 O71 2.266 1_556 S
In65 O72 2.326 . S
In65 O73 2.266 . S
In65 O74 2.326 . S
In65 O76 2.294 . S
In65 O77 2.326 . S
O66 In65 2.294 . S
O66 C75 1.240 . S
O67 In65 2.326 . S
O67 C75 1.252 . S
C68 O71 1.252 1_556 S
C68 O72 1.260 . S
C69 O76 1.240 . S
C69 O77 1.252 . S
C70 O73 1.252 . S
C70 O74 1.260 . S
O71 In65 2.266 1_554 S
O71 C68 1.252 1_554 S
O72 In65 2.326 . S
O72 C68 1.260 . S
O73 In65 2.266 . S
O73 C70 1.252 . S
O74 In65 2.326 . S
O74 C70 1.260 . S
C75 O66 1.240 . S
C75 O67 1.252 . S
O76 In65 2.294 . S
O76 C69 1.240 . S
O77 In65 2.326 . S
O77 C69 1.252 . S
In78 O79 2.294 . S
In78 O80 2.326 . S
In78 O84 2.266 1_554 S
In78 O85 2.326 . S
In78 O86 2.266 . S
In78 O87 2.326 . S
In78 O89 2.294 . S
In78 O90 2.326 . S
O79 In78 2.294 . S
O79 C88 1.240 . S
O80 In78 2.326 . S
O80 C88 1.252 . S
C81 O84 1.252 1_554 S
C81 O85 1.260 . S
C82 O89 1.240 . S
C82 O90 1.252 . S
C83 O86 1.252 . S
C83 O87 1.260 . S
O84 In78 2.266 1_556 S
O84 C81 1.252 1_556 S
O85 In78 2.326 . S
O85 C81 1.260 . S
O86 In78 2.266 . S
O86 C83 1.252 . S
O87 In78 2.326 . S
O87 C83 1.260 . S
C88 O79 1.240 . S
C88 O80 1.252 . S
O89 In78 2.294 . S
O89 C82 1.240 . S
O90 In78 2.326 . S
O90 C82 1.252 . S
In91 O92 2.294 . S
In91 O93 2.326 . S
In91 O97 2.266 1_556 S
In91 O98 2.326 . S
In91 O99 2.266 . S
In91 O100 2.326 . S
In91 O102 2.294 . S
In91 O103 2.326 . S
O92 In91 2.294 . S
O92 C101 1.240 . S
O93 In91 2.326 . S
O93 C101 1.252 . S
C94 O97 1.252 1_556 S
C94 O98 1.260 . S
C95 O102 1.240 . S
C95 O103 1.252 . S
C96 O99 1.252 . S
C96 O100 1.260 . S
O97 In91 2.266 1_554 S
O97 C94 1.252 1_554 S
O98 In91 2.326 . S
O98 C94 1.260 . S
O99 In91 2.266 . S
O99 C96 1.252 . S
O100 In91 2.326 . S
O100 C96 1.260 . S
C101 O92 1.240 . S
C101 O93 1.252 . S
O102 In91 2.294 . S
O102 C95 1.240 . S
O103 In91 2.326 . S
O103 C95 1.252 . S
In104 O105 2.294 . S
In104 O106 2.326 . S
In104 O110 2.266 . S
In104 O111 2.326 . S
In104 O112 2.266 . S
In104 O113 2.326 . S
In104 O115 2.294 . S
In104 O116 2.326 . S
O105 In104 2.294 . S
O105 C114 1.240 . S
O106 In104 2.326 . S
O106 C114 1.252 . S
C107 O110 1.252 . S
C107 O111 1.260 . S
C108 O115 1.240 . S
C108 O116 1.252 . S
C109 O112 1.252 . S
C109 O113 1.260 . S
O110 In104 2.266 . S
O110 C107 1.252 . S
O111 In104 2.326 . S
O111 C107 1.260 . S
O112 In104 2.266 . S
O112 C109 1.252 . S
O113 In104 2.326 . S
O113 C109 1.260 . S
C114 O105 1.240 . S
C114 O106 1.252 . S
O115 In104 2.294 . S
O115 C108 1.240 . S
O116 In104 2.326 . S
O116 C108 1.252 . S
In117 O118 2.294 . S
In117 O119 2.326 . S
In117 O123 2.266 . S
In117 O124 2.326 . S
In117 O125 2.266 . S
In117 O126 2.326 . S
In117 O128 2.294 . S
In117 O129 2.326 . S
O118 In117 2.294 . S
O118 C127 1.240 . S
O119 In117 2.326 . S
O119 C127 1.252 . S
C120 O123 1.252 . S
C120 O124 1.260 . S
C121 O128 1.240 . S
C121 O129 1.252 . S
C122 O125 1.252 . S
C122 O126 1.260 . S
O123 In117 2.266 . S
O123 C120 1.252 . S
O124 In117 2.326 . S
O124 C120 1.260 . S
O125 In117 2.266 . S
O125 C122 1.252 . S
O126 In117 2.326 . S
O126 C122 1.260 . S
C127 O118 1.240 . S
C127 O119 1.252 . S
O128 In117 2.294 . S
O128 C121 1.240 . S
O129 In117 2.326 . S
O129 C121 1.252 . S
In130 O131 2.294 . S
In130 O132 2.326 . S
In130 O136 2.266 . S
In130 O137 2.326 . S
In130 O138 2.266 . S
In130 O139 2.326 . S
In130 O141 2.294 . S
In130 O142 2.326 . S
O131 In130 2.294 . S
O131 C140 1.240 . S
O132 In130 2.326 . S
O132 C140 1.252 . S
C133 O136 1.252 . S
C133 O137 1.260 . S
C134 O141 1.240 . S
C134 O142 1.252 . S
C135 O138 1.252 . S
C135 O139 1.260 . S
O136 In130 2.266 . S
O136 C133 1.252 . S
O137 In130 2.326 . S
O137 C133 1.260 . S
O138 In130 2.266 . S
O138 C135 1.252 . S
O139 In130 2.326 . S
O139 C135 1.260 . S
C140 O131 1.240 . S
C140 O132 1.252 . S
O141 In130 2.294 . S
O141 C134 1.240 . S
O142 In130 2.326 . S
O142 C134 1.252 . S
In143 O144 2.294 . S
In143 O145 2.326 . S
In143 O149 2.266 . S
In143 O150 2.326 . S
In143 O151 2.266 . S
In143 O152 2.326 . S
In143 O154 2.294 . S
In143 O155 2.326 . S
O144 In143 2.294 . S
O144 C153 1.240 . S
O145 In143 2.326 . S
O145 C153 1.252 . S
C146 O149 1.252 . S
C146 O150 1.260 . S
C147 O154 1.240 . S
C147 O155 1.252 . S
C148 O151 1.252 . S
C148 O152 1.260 . S
O149 In143 2.266 . S
O149 C146 1.252 . S
O150 In143 2.326 . S
O150 C146 1.260 . S
O151 In143 2.266 . S
O151 C148 1.252 . S
O152 In143 2.326 . S
O152 C148 1.260 . S
C153 O144 1.240 . S
C153 O145 1.252 . S
O154 In143 2.294 . S
O154 C147 1.240 . S
O155 In143 2.326 . S
O155 C147 1.252 . S
In156 O157 2.294 . S
In156 O158 2.326 . S
In156 O162 2.266 . S
In156 O163 2.326 . S
In156 O164 2.266 . S
In156 O165 2.326 . S
In156 O167 2.294 . S
In156 O168 2.326 . S
O157 In156 2.294 . S
O157 C166 1.240 . S
O158 In156 2.326 . S
O158 C166 1.252 . S
C159 O162 1.252 . S
C159 O163 1.260 . S
C160 O167 1.240 . S
C160 O168 1.252 . S
C161 O164 1.252 . S
C161 O165 1.260 . S
O162 In156 2.266 . S
O162 C159 1.252 . S
O163 In156 2.326 . S
O163 C159 1.260 . S
O164 In156 2.266 . S
O164 C161 1.252 . S
O165 In156 2.326 . S
O165 C161 1.260 . S
C166 O157 1.240 . S
C166 O158 1.252 . S
O167 In156 2.294 . S
O167 C160 1.240 . S
O168 In156 2.326 . S
O168 C160 1.252 . S
In169 O170 2.294 . S
In169 O171 2.326 . S
In169 O175 2.266 . S
In169 O176 2.326 . S
In169 O177 2.266 . S
In169 O178 2.326 . S
In169 O180 2.294 . S
In169 O181 2.326 . S
O170 In169 2.294 . S
O170 C179 1.240 . S
O171 In169 2.326 . S
O171 C179 1.252 . S
C172 O175 1.252 . S
C172 O176 1.260 . S
C173 O180 1.240 . S
C173 O181 1.252 . S
C174 O177 1.252 . S
C174 O178 1.260 . S
O175 In169 2.266 . S
O175 C172 1.252 . S
O176 In169 2.326 . S
O176 C172 1.260 . S
O177 In169 2.266 . S
O177 C174 1.252 . S
O178 In169 2.326 . S
O178 C174 1.260 . S
C179 O170 1.240 . S
C179 O171 1.252 . S
O180 In169 2.294 . S
O180 C173 1.240 . S
O181 In169 2.326 . S
O181 C173 1.252 . S
In182 O183 2.294 . S
In182 O184 2.326 . S
In182 O188 2.266 . S
In182 O189 2.326 . S
In182 O190 2.266 . S
In182 O191 2.326 . S
In182 O193 2.294 . S
In182 O194 2.326 . S
O183 In182 2.294 . S
O183 C192 1.240 . S
O184 In182 2.326 . S
O184 C192 1.252 . S
C185 O188 1.252 . S
C185 O189 1.260 . S
C186 O193 1.240 . S
C186 O194 1.252 . S
C187 O190 1.252 . S
C187 O191 1.260 . S
O188 In182 2.266 . S
O188 C185 1.252 . S
O189 In182 2.326 . S
O189 C185 1.260 . S
O190 In182 2.266 . S
O190 C187 1.252 . S
O191 In182 2.326 . S
O191 C187 1.260 . S
C192 O183 1.240 . S
C192 O184 1.252 . S
O193 In182 2.294 . S
O193 C186 1.240 . S
O194 In182 2.326 . S
O194 C186 1.252 . S
In195 O196 2.294 . S
In195 O197 2.326 . S
In195 O201 2.266 . S
In195 O202 2.326 . S
In195 O203 2.266 . S
In195 O204 2.326 . S
In195 O206 2.294 . S
In195 O207 2.326 . S
O196 In195 2.294 . S
O196 C205 1.240 . S
O197 In195 2.326 . S
O197 C205 1.252 . S
C198 O201 1.252 . S
C198 O202 1.260 . S
C199 O206 1.240 . S
C199 O207 1.252 . S
C200 O203 1.252 . S
C200 O204 1.260 . S
O201 In195 2.266 . S
O201 C198 1.252 . S
O202 In195 2.326 . S
O202 C198 1.260 . S
O203 In195 2.266 . S
O203 C200 1.252 . S
O204 In195 2.326 . S
O204 C200 1.260 . S
C205 O196 1.240 . S
C205 O197 1.252 . S
O206 In195 2.294 . S
O206 C199 1.240 . S
O207 In195 2.326 . S
O207 C199 1.252 . S
H208 C214 0.930 . S
H209 C217 0.930 . S
H210 C218 0.930 . S
H211 C219 0.930 . S
H212 C222 0.930 . S
H213 C223 0.930 . S
C214 H208 0.930 . S
C214 C215 1.355 . S
C214 C216 1.415 . S
C215 C214 1.355 . S
C215 C217 1.419 . S
C216 C214 1.415 . S
C216 C221 1.425 . S
C216 C223 1.409 1_565 S
C217 H209 0.930 . S
C217 C215 1.419 . S
C217 C218 1.362 . S
C218 H210 0.930 . S
C218 C217 1.362 . S
C218 C221 1.409 . S
C219 H211 0.930 . S
C219 C220 1.355 . S
C219 C221 1.415 1_545 S
C220 C219 1.355 . S
C220 C222 1.419 . S
C221 C216 1.425 . S
C221 C218 1.409 . S
C221 C219 1.415 1_565 S
C222 H212 0.930 . S
C222 C220 1.419 . S
C222 C223 1.362 . S
C223 H213 0.930 . S
C223 C216 1.409 1_545 S
C223 C222 1.362 . S
H224 C230 0.930 . S
H225 C233 0.930 . S
H226 C234 0.930 . S
H227 C235 0.930 . S
H228 C238 0.930 . S
H229 C239 0.923 1_455 S
C230 H224 0.930 . S
C230 C231 1.355 . S
C230 C232 1.415 . S
C231 C230 1.355 . S
C231 C233 1.419 . S
C232 C230 1.415 . S
C232 C237 1.425 1_455 S
C232 C239 1.409 1_455 S
C233 H225 0.930 . S
C233 C231 1.419 . S
C233 C234 1.362 1_455 S
C234 H226 0.930 . S
C234 C233 1.362 1_655 S
C234 C237 1.409 . S
C235 H227 0.930 . S
C235 C236 1.355 . S
C235 C237 1.415 . S
C236 C235 1.355 . S
C236 C238 1.419 . S
C237 C232 1.425 1_655 S
C237 C234 1.409 . S
C237 C235 1.415 . S
C238 H228 0.930 . S
C238 C236 1.419 . S
C238 C239 1.362 . S
C239 H229 0.923 1_655 S
C239 C232 1.409 1_655 S
C239 C238 1.362 . S
H240 C246 0.930 . S
H241 C249 0.930 . S
H242 C250 0.925 1_545 S
H243 C251 0.930 . S
H244 C254 0.930 . S
H245 C255 0.930 . S
C246 H240 0.930 . S
C246 C247 1.355 . S
C246 C248 1.396 1_565 S
C247 C246 1.355 . S
C247 C249 1.419 . S
C248 C246 1.396 1_545 S
C248 C253 1.434 . S
C248 C255 1.419 . S
C249 H241 0.930 . S
C249 C247 1.419 . S
C249 C250 1.374 . S
C250 H242 0.925 1_565 S
C250 C249 1.374 . S
C250 C253 1.403 1_565 S
C251 H243 0.930 . S
C251 C252 1.355 . S
C251 C253 1.415 . S
C252 C251 1.355 . S
C252 C254 1.419 . S
C253 C248 1.434 . S
C253 C250 1.403 1_545 S
C253 C251 1.415 . S
C254 H244 0.930 . S
C254 C252 1.419 . S
C254 C255 1.362 . S
C255 H245 0.930 . S
C255 C248 1.419 . S
C255 C254 1.362 . S
H256 C262 0.930 . S
H257 C265 0.930 . S
H258 C266 0.930 . S
H259 C267 0.930 . S
H260 C270 0.930 . S
H261 C271 0.930 . S
C262 H256 0.930 . S
C262 C263 1.355 . S
C262 C264 1.415 . S
C263 C262 1.355 . S
C263 C265 1.419 . S
C264 C262 1.415 . S
C264 C269 1.421 1_455 S
C264 C271 1.409 . S
C265 H257 0.930 . S
C265 C263 1.419 . S
C265 C266 1.362 . S
C266 H258 0.930 . S
C266 C265 1.362 . S
C266 C269 1.405 1_455 S
C267 H259 0.930 . S
C267 C268 1.355 . S
C267 C269 1.422 . S
C268 C267 1.355 . S
C268 C270 1.419 . S
C269 C264 1.421 1_655 S
C269 C266 1.405 1_655 S
C269 C267 1.422 . S
C270 H260 0.930 . S
C270 C268 1.419 . S
C270 C271 1.362 1_655 S
C271 H261 0.930 . S
C271 C264 1.409 . S
C271 C270 1.362 1_455 S
H272 C278 0.930 . S
H273 C281 0.930 . S
H274 C282 0.930 . S
H275 C283 0.930 1_554 S
H276 C286 0.930 . S
H277 C287 0.930 . S
C278 H272 0.930 . S
C278 C279 1.355 . S
C278 C280 1.415 . S
C279 C278 1.355 . S
C279 C281 1.419 1_556 S
C280 C278 1.415 . S
C280 C285 1.425 . S
C280 C287 1.409 . S
C281 H273 0.930 . S
C281 C279 1.419 1_554 S
C281 C282 1.362 . S
C282 H274 0.930 . S
C282 C281 1.362 . S
C282 C285 1.409 1_554 S
C283 H275 0.930 1_556 S
C283 C284 1.355 . S
C283 C285 1.415 . S
C284 C283 1.355 . S
C284 C286 1.419 . S
C285 C280 1.425 . S
C285 C282 1.409 1_556 S
C285 C283 1.415 . S
C286 H276 0.930 . S
C286 C284 1.419 . S
C286 C287 1.362 . S
C287 H277 0.930 . S
C287 C280 1.409 . S
C287 C286 1.362 . S
H288 C294 0.930 1_556 S
H289 C297 0.930 . S
H290 C298 0.930 . S
H291 C299 0.930 . S
H292 C302 0.930 . S
H293 C303 0.935 . S
C294 H288 0.930 1_554 S
C294 C295 1.355 . S
C294 C296 1.415 . S
C295 C294 1.355 . S
C295 C297 1.419 . S
C296 C294 1.415 . S
C296 C301 1.425 . S
C296 C303 1.407 1_554 S
C297 H289 0.930 . S
C297 C295 1.419 . S
C297 C298 1.362 . S
C298 H290 0.930 . S
C298 C297 1.362 . S
C298 C301 1.409 . S
C299 H291 0.930 . S
C299 C300 1.355 . S
C299 C301 1.415 . S
C300 C299 1.355 . S
C300 C302 1.419 . S
C301 C296 1.425 . S
C301 C298 1.409 . S
C301 C299 1.415 . S
C302 H292 0.930 . S
C302 C300 1.419 . S
C302 C303 1.360 1_554 S
C303 H293 0.935 . S
C303 C296 1.407 1_556 S
C303 C302 1.360 1_556 S
H304 C310 0.930 . S
H305 C313 0.930 . S
H306 C314 0.935 . S
H307 C315 0.930 . S
H308 C318 0.930 . S
H309 C319 0.930 . S
C310 H304 0.930 . S
C310 C311 1.355 . S
C310 C312 1.415 . S
C311 C310 1.355 . S
C311 C313 1.419 . S
C312 C310 1.415 . S
C312 C317 1.425 . S
C312 C319 1.409 . S
C313 H305 0.930 . S
C313 C311 1.419 . S
C313 C314 1.360 1_556 S
C314 H306 0.935 . S
C314 C313 1.360 1_554 S
C314 C317 1.407 1_554 S
C315 H307 0.930 . S
C315 C316 1.355 1_554 S
C315 C317 1.415 1_554 S
C316 C315 1.355 1_556 S
C316 C318 1.419 . S
C317 C312 1.425 . S
C317 C314 1.407 1_556 S
C317 C315 1.415 1_556 S
C318 H308 0.930 . S
C318 C316 1.419 . S
C318 C319 1.362 . S
C319 H309 0.930 . S
C319 C312 1.409 . S
C319 C318 1.362 . S
H320 C326 0.930 . S
H321 C329 0.930 . S
H322 C330 0.930 . S
H323 C331 0.930 . S
H324 C334 0.930 . S
H325 C335 0.930 . S
C326 H320 0.930 . S
C326 C327 1.355 . S
C326 C328 1.415 . S
C327 C326 1.355 . S
C327 C329 1.419 1_554 S
C328 C326 1.415 . S
C328 C333 1.425 . S
C328 C335 1.409 . S
C329 H321 0.930 . S
C329 C327 1.419 1_556 S
C329 C330 1.362 . S
C330 H322 0.930 . S
C330 C329 1.362 . S
C330 C333 1.409 1_556 S
C331 H323 0.930 . S
C331 C332 1.355 1_556 S
C331 C333 1.415 1_556 S
C332 C331 1.355 1_554 S
C332 C334 1.419 . S
C333 C328 1.425 . S
C333 C330 1.409 1_554 S
C333 C331 1.415 1_554 S
C334 H324 0.930 . S
C334 C332 1.419 . S
C334 C335 1.362 . S
C335 H325 0.930 . S
C335 C328 1.409 . S
C335 C334 1.362 . S
H336 C342 0.930 . S
H337 C345 0.930 . S
H338 C346 0.930 . S
H339 C347 0.930 . S
H340 C350 0.930 . S
H341 C351 0.930 . S
C342 H336 0.930 . S
C342 C343 1.355 . S
C342 C344 1.415 . S
C343 C342 1.355 . S
C343 C345 1.419 . S
C344 C342 1.415 . S
C344 C349 1.425 . S
C344 C351 1.409 . S
C345 H337 0.930 . S
C345 C343 1.419 . S
C345 C346 1.362 . S
C346 H338 0.930 . S
C346 C345 1.362 . S
C346 C349 1.409 . S
C347 H339 0.930 . S
C347 C348 1.355 . S
C347 C349 1.415 . S
C348 C347 1.355 . S
C348 C350 1.419 . S
C349 C344 1.425 . S
C349 C346 1.409 . S
C349 C347 1.415 . S
C350 H340 0.930 . S
C350 C348 1.419 . S
C350 C351 1.362 . S
C351 H341 0.930 . S
C351 C344 1.409 . S
C351 C350 1.362 . S
H352 C358 0.930 . S
H353 C361 0.930 . S
H354 C362 0.930 . S
H355 C363 0.930 . S
H356 C366 0.930 . S
H357 C367 0.930 . S
C358 H352 0.930 . S
C358 C359 1.355 . S
C358 C360 1.415 . S
C359 C358 1.355 . S
C359 C361 1.419 . S
C360 C358 1.415 . S
C360 C365 1.425 . S
C360 C367 1.409 . S
C361 H353 0.930 . S
C361 C359 1.419 . S
C361 C362 1.362 . S
C362 H354 0.930 . S
C362 C361 1.362 . S
C362 C365 1.409 . S
C363 H355 0.930 . S
C363 C364 1.355 . S
C363 C365 1.415 . S
C364 C363 1.355 . S
C364 C366 1.419 . S
C365 C360 1.425 . S
C365 C362 1.409 . S
C365 C363 1.415 . S
C366 H356 0.930 . S
C366 C364 1.419 . S
C366 C367 1.362 . S
C367 H357 0.930 . S
C367 C360 1.409 . S
C367 C366 1.362 . S
H368 C374 0.930 . S
H369 C377 0.930 . S
H370 C378 0.930 . S
H371 C379 0.930 . S
H372 C382 0.930 . S
H373 C383 0.930 . S
C374 H368 0.930 . S
C374 C375 1.355 . S
C374 C376 1.415 . S
C375 C374 1.355 . S
C375 C377 1.419 . S
C376 C374 1.415 . S
C376 C381 1.425 . S
C376 C383 1.409 . S
C377 H369 0.930 . S
C377 C375 1.419 . S
C377 C378 1.362 . S
C378 H370 0.930 . S
C378 C377 1.362 . S
C378 C381 1.409 . S
C379 H371 0.930 . S
C379 C380 1.355 . S
C379 C381 1.415 . S
C380 C379 1.355 . S
C380 C382 1.419 . S
C381 C376 1.425 . S
C381 C378 1.409 . S
C381 C379 1.415 . S
C382 H372 0.930 . S
C382 C380 1.419 . S
C382 C383 1.362 . S
C383 H373 0.930 . S
C383 C376 1.409 . S
C383 C382 1.362 . S
H384 C390 0.930 . S
H385 C393 0.930 . S
H386 C394 0.930 . S
H387 C395 0.930 . S
H388 C398 0.930 . S
H389 C399 0.930 . S
C390 H384 0.930 . S
C390 C391 1.355 . S
C390 C392 1.415 . S
C391 C390 1.355 . S
C391 C393 1.419 . S
C392 C390 1.415 . S
C392 C397 1.425 . S
C392 C399 1.409 . S
C393 H385 0.930 . S
C393 C391 1.419 . S
C393 C394 1.362 . S
C394 H386 0.930 . S
C394 C393 1.362 . S
C394 C397 1.409 . S
C395 H387 0.930 . S
C395 C396 1.355 . S
C395 C397 1.415 . S
C396 C395 1.355 . S
C396 C398 1.419 . S
C397 C392 1.425 . S
C397 C394 1.409 . S
C397 C395 1.415 . S
C398 H388 0.930 . S
C398 C396 1.419 . S
C398 C399 1.362 . S
C399 H389 0.930 . S
C399 C392 1.409 . S
C399 C398 1.362 . S
H400 C406 0.930 . S
H401 C409 0.930 . S
H402 C410 0.930 . S
H403 C411 0.930 . S
H404 C414 0.930 . S
H405 C415 0.930 . S
C406 H400 0.930 . S
C406 C407 1.355 . S
C406 C408 1.415 1_565 S
C407 C406 1.355 . S
C407 C409 1.419 . S
C408 C406 1.415 1_545 S
C408 C413 1.425 . S
C408 C415 1.409 . S
C409 H401 0.930 . S
C409 C407 1.419 . S
C409 C410 1.362 . S
C410 H402 0.930 . S
C410 C409 1.362 . S
C410 C413 1.409 1_565 S
C411 H403 0.930 . S
C411 C412 1.355 . S
C411 C413 1.415 . S
C412 C411 1.355 . S
C412 C414 1.419 . S
C413 C408 1.425 . S
C413 C410 1.409 1_545 S
C413 C411 1.415 . S
C414 H404 0.930 . S
C414 C412 1.419 . S
C414 C415 1.362 . S
C415 H405 0.930 . S
C415 C408 1.409 . S
C415 C414 1.362 . S
H416 C422 0.930 . S
H417 C425 0.930 . S
H418 C426 0.930 . S
H419 C427 0.930 . S
H420 C430 0.930 . S
H421 C431 0.918 1_655 S
C422 H416 0.930 . S
C422 C423 1.355 . S
C422 C424 1.415 . S
C423 C422 1.355 . S
C423 C425 1.419 . S
C424 C422 1.415 . S
C424 C429 1.425 1_655 S
C424 C431 1.409 1_655 S
C425 H417 0.930 . S
C425 C423 1.419 . S
C425 C426 1.362 1_655 S
C426 H418 0.930 . S
C426 C425 1.362 1_455 S
C426 C429 1.409 . S
C427 H419 0.930 . S
C427 C428 1.355 . S
C427 C429 1.415 . S
C428 C427 1.355 . S
C428 C430 1.419 . S
C429 C424 1.425 1_455 S
C429 C426 1.409 . S
C429 C427 1.415 . S
C430 H420 0.930 . S
C430 C428 1.419 . S
C430 C431 1.362 . S
C431 H421 0.918 1_455 S
C431 C424 1.409 1_455 S
C431 C430 1.362 . S
H432 C438 0.930 . S
H433 C441 0.930 . S
H434 C442 0.937 . S
H435 C443 0.930 . S
H436 C446 0.930 . S
H437 C447 0.930 . S
C438 H432 0.930 . S
C438 C439 1.355 . S
C438 C440 1.415 . S
C439 C438 1.355 . S
C439 C441 1.419 . S
C440 C438 1.415 . S
C440 C445 1.425 1_565 S
C440 C447 1.409 . S
C441 H433 0.930 . S
C441 C439 1.419 . S
C441 C442 1.362 . S
C442 H434 0.937 . S
C442 C441 1.362 . S
C442 C445 1.409 1_565 S
C443 H435 0.930 . S
C443 C444 1.355 . S
C443 C445 1.415 . S
C444 C443 1.355 . S
C444 C446 1.419 . S
C445 C440 1.425 1_545 S
C445 C442 1.409 1_545 S
C445 C443 1.415 . S
C446 H436 0.930 . S
C446 C444 1.419 . S
C446 C447 1.362 1_545 S
C447 H437 0.930 . S
C447 C440 1.409 . S
C447 C446 1.362 1_565 S
H448 C454 0.930 . S
H449 C457 0.930 . S
H450 C458 0.930 . S
H451 C459 0.930 . S
H452 C462 0.930 . S
H453 C463 0.930 . S
C454 H448 0.930 . S
C454 C455 1.355 . S
C454 C456 1.415 . S
C455 C454 1.355 . S
C455 C457 1.419 . S
C456 C454 1.415 . S
C456 C461 1.425 . S
C456 C463 1.409 1_655 S
C457 H449 0.930 . S
C457 C455 1.419 . S
C457 C458 1.362 . S
C458 H450 0.930 . S
C458 C457 1.362 . S
C458 C461 1.409 . S
C459 H451 0.930 . S
C459 C460 1.355 . S
C459 C461 1.415 1_455 S
C460 C459 1.355 . S
C460 C462 1.419 . S
C461 C456 1.425 . S
C461 C458 1.409 . S
C461 C459 1.415 1_655 S
C462 H452 0.930 . S
C462 C460 1.419 . S
C462 C463 1.362 . S
C463 H453 0.930 . S
C463 C456 1.409 1_455 S
C463 C462 1.362 . S
H464 C470 0.930 . S
H465 C473 0.930 . S
H466 C474 0.930 . S
H467 C475 0.930 . S
H468 C478 0.930 . S
H469 C479 0.930 . S
C470 H464 0.930 . S
C470 C471 1.355 . S
C470 C472 1.415 . S
C471 C470 1.355 . S
C471 C473 1.419 . S
C472 C470 1.415 . S
C472 C477 1.425 . S
C472 C479 1.409 . S
C473 H465 0.930 . S
C473 C471 1.419 . S
C473 C474 1.362 . S
C474 H466 0.930 . S
C474 C473 1.362 . S
C474 C477 1.409 . S
C475 H467 0.930 . S
C475 C476 1.355 . S
C475 C477 1.415 . S
C476 C475 1.355 . S
C476 C478 1.419 . S
C477 C472 1.425 . S
C477 C474 1.409 . S
C477 C475 1.415 . S
C478 H468 0.930 . S
C478 C476 1.419 . S
C478 C479 1.362 . S
C479 H469 0.930 . S
C479 C472 1.409 . S
C479 C478 1.362 . S
H480 C486 0.930 . S
H481 C489 0.930 . S
H482 C490 0.930 . S
H483 C491 0.930 . S
H484 C494 0.928 1_554 S
H485 C495 0.930 1_554 S
C486 H480 0.930 . S
C486 C487 1.355 . S
C486 C488 1.415 . S
C487 C486 1.355 . S
C487 C489 1.419 . S
C488 C486 1.415 . S
C488 C493 1.425 . S
C488 C495 1.409 . S
C489 H481 0.930 . S
C489 C487 1.419 . S
C489 C490 1.362 . S
C490 H482 0.930 . S
C490 C489 1.362 . S
C490 C493 1.409 . S
C491 H483 0.930 . S
C491 C492 1.355 . S
C491 C493 1.415 . S
C492 C491 1.355 . S
C492 C494 1.420 . S
C493 C488 1.425 . S
C493 C490 1.409 . S
C493 C491 1.415 . S
C494 H484 0.928 1_556 S
C494 C492 1.420 . S
C494 C495 1.363 . S
C495 H485 0.930 1_556 S
C495 C488 1.409 . S
C495 C494 1.363 . S
H496 C502 0.930 . S
H497 C505 0.930 . S
H498 C506 0.930 . S
H499 C507 0.930 . S
H500 C510 0.930 . S
H501 C511 0.930 . S
C502 H496 0.930 . S
C502 C503 1.355 . S
C502 C504 1.415 . S
C503 C502 1.355 . S
C503 C505 1.419 . S
C504 C502 1.415 . S
C504 C509 1.425 . S
C504 C511 1.409 . S
C505 H497 0.930 . S
C505 C503 1.419 . S
C505 C506 1.362 . S
C506 H498 0.930 . S
C506 C505 1.362 . S
C506 C509 1.409 . S
C507 H499 0.930 . S
C507 C508 1.355 . S
C507 C509 1.415 . S
C508 C507 1.355 . S
C508 C510 1.419 . S
C509 C504 1.425 . S
C509 C506 1.409 . S
C509 C507 1.415 . S
C510 H500 0.930 . S
C510 C508 1.419 . S
C510 C511 1.362 . S
C511 H501 0.930 . S
C511 C504 1.409 . S
C511 C510 1.362 . S
H512 C518 0.930 . S
H513 C521 0.930 1_554 S
H514 C522 0.930 . S
H515 C523 0.930 . S
H516 C526 0.930 . S
H517 C527 0.930 . S
C518 H512 0.930 . S
C518 C519 1.355 . S
C518 C520 1.415 . S
C519 C518 1.355 . S
C519 C521 1.419 . S
C520 C518 1.415 . S
C520 C525 1.425 . S
C520 C527 1.409 . S
C521 H513 0.930 1_556 S
C521 C519 1.419 . S
C521 C522 1.362 . S
C522 H514 0.930 . S
C522 C521 1.362 . S
C522 C525 1.409 . S
C523 H515 0.930 . S
C523 C524 1.355 . S
C523 C525 1.415 . S
C524 C523 1.355 . S
C524 C526 1.419 . S
C525 C520 1.425 . S
C525 C522 1.409 . S
C525 C523 1.415 . S
C526 H516 0.930 . S
C526 C524 1.419 . S
C526 C527 1.362 . S
C527 H517 0.930 . S
C527 C520 1.409 . S
C527 C526 1.362 . S
H528 C534 0.930 . S
H529 C537 0.930 . S
H530 C538 0.930 . S
H531 C539 0.930 . S
H532 C542 0.930 . S
H533 C543 0.930 . S
C534 H528 0.930 . S
C534 C535 1.355 . S
C534 C536 1.415 . S
C535 C534 1.355 . S
C535 C537 1.419 . S
C536 C534 1.415 . S
C536 C541 1.425 . S
C536 C543 1.409 . S
C537 H529 0.930 . S
C537 C535 1.419 . S
C537 C538 1.362 . S
C538 H530 0.930 . S
C538 C537 1.362 . S
C538 C541 1.409 . S
C539 H531 0.930 . S
C539 C540 1.355 . S
C539 C541 1.415 . S
C540 C539 1.355 . S
C540 C542 1.419 . S
C541 C536 1.425 . S
C541 C538 1.409 . S
C541 C539 1.415 . S
C542 H532 0.930 . S
C542 C540 1.419 . S
C542 C543 1.362 . S
C543 H533 0.930 . S
C543 C536 1.409 . S
C543 C542 1.362 . S
H544 C550 0.930 . S
H545 C553 0.930 . S
H546 C554 0.930 . S
H547 C555 0.930 . S
H548 C558 0.930 . S
H549 C559 0.930 . S
C550 H544 0.930 . S
C550 C551 1.355 . S
C550 C552 1.415 . S
C551 C550 1.355 . S
C551 C553 1.419 . S
C552 C550 1.415 . S
C552 C557 1.425 . S
C552 C559 1.409 . S
C553 H545 0.930 . S
C553 C551 1.419 . S
C553 C554 1.362 . S
C554 H546 0.930 . S
C554 C553 1.362 . S
C554 C557 1.409 . S
C555 H547 0.930 . S
C555 C556 1.355 . S
C555 C557 1.415 . S
C556 C555 1.355 . S
C556 C558 1.419 . S
C557 C552 1.425 . S
C557 C554 1.409 . S
C557 C555 1.415 . S
C558 H548 0.930 . S
C558 C556 1.419 . S
C558 C559 1.362 . S
C559 H549 0.930 . S
C559 C552 1.409 . S
C559 C558 1.362 . S
H560 C566 0.930 . S
H561 C569 0.930 . S
H562 C570 0.930 . S
H563 C571 0.930 . S
H564 C574 0.930 . S
H565 C575 0.930 . S
C566 H560 0.930 . S
C566 C567 1.355 . S
C566 C568 1.415 . S
C567 C566 1.355 . S
C567 C569 1.419 . S
C568 C566 1.415 . S
C568 C573 1.425 . S
C568 C575 1.409 . S
C569 H561 0.930 . S
C569 C567 1.419 . S
C569 C570 1.362 . S
C570 H562 0.930 . S
C570 C569 1.362 . S
C570 C573 1.409 . S
C571 H563 0.930 . S
C571 C572 1.355 . S
C571 C573 1.415 . S
C572 C571 1.355 . S
C572 C574 1.419 . S
C573 C568 1.425 . S
C573 C570 1.409 . S
C573 C571 1.415 . S
C574 H564 0.930 . S
C574 C572 1.419 . S
C574 C575 1.362 . S
C575 H565 0.930 . S
C575 C568 1.409 . S
C575 C574 1.362 . S
H576 C582 0.930 . S
H577 C585 0.930 . S
H578 C586 0.930 . S
H579 C587 0.930 . S
H580 C590 0.930 . S
H581 C591 0.930 . S
C582 H576 0.930 . S
C582 C583 1.355 . S
C582 C584 1.415 . S
C583 C582 1.355 . S
C583 C585 1.419 . S
C584 C582 1.415 . S
C584 C589 1.425 . S
C584 C591 1.409 . S
C585 H577 0.930 . S
C585 C583 1.419 . S
C585 C586 1.362 . S
C586 H578 0.930 . S
C586 C585 1.362 . S
C586 C589 1.409 . S
C587 H579 0.930 . S
C587 C588 1.355 . S
C587 C589 1.415 . S
C588 C587 1.355 . S
C588 C590 1.419 . S
C589 C584 1.425 . S
C589 C586 1.409 . S
C589 C587 1.415 . S
C590 H580 0.930 . S
C590 C588 1.419 . S
C590 C591 1.362 . S
C591 H581 0.930 . S
C591 C584 1.409 . S
C591 C590 1.362 . S
H592 C598 0.930 . S
H593 C601 0.930 . S
H594 C602 0.930 . S
H595 C603 0.930 1_554 S
H596 C606 0.930 . S
H597 C607 0.930 . S
C598 H592 0.930 . S
C598 C599 1.355 . S
C598 C600 1.415 . S
C599 C598 1.355 . S
C599 C601 1.419 . S
C600 C598 1.415 . S
C600 C605 1.425 . S
C600 C607 1.409 . S
C601 H593 0.930 . S
C601 C599 1.419 . S
C601 C602 1.362 . S
C602 H594 0.930 . S
C602 C601 1.362 . S
C602 C605 1.409 . S
C603 H595 0.930 1_556 S
C603 C604 1.355 . S
C603 C605 1.415 . S
C604 C603 1.355 . S
C604 C606 1.419 . S
C605 C600 1.425 . S
C605 C602 1.409 . S
C605 C603 1.415 . S
C606 H596 0.930 . S
C606 C604 1.419 . S
C606 C607 1.362 . S
C607 H597 0.930 . S
C607 C600 1.409 . S
C607 C606 1.362 . S
H608 C614 0.930 . S
H609 C617 0.930 . S
H610 C618 0.930 . S
H611 C619 0.930 1_556 S
H612 C622 0.930 . S
H613 C623 0.930 . S
C614 H608 0.930 . S
C614 C615 1.355 . S
C614 C616 1.415 . S
C615 C614 1.355 . S
C615 C617 1.419 . S
C616 C614 1.415 . S
C616 C621 1.425 . S
C616 C623 1.409 . S
C617 H609 0.930 . S
C617 C615 1.419 . S
C617 C618 1.362 . S
C618 H610 0.930 . S
C618 C617 1.362 . S
C618 C621 1.409 . S
C619 H611 0.930 1_554 S
C619 C620 1.355 . S
C619 C621 1.415 . S
C620 C619 1.355 . S
C620 C622 1.419 . S
C621 C616 1.425 . S
C621 C618 1.409 . S
C621 C619 1.415 . S
C622 H612 0.930 . S
C622 C620 1.419 . S
C622 C623 1.362 . S
C623 H613 0.930 . S
C623 C616 1.409 . S
C623 C622 1.362 . S
H624 C630 0.930 . S
H625 C633 0.930 . S
H626 C634 0.930 1_554 S
H627 C635 0.930 . S
H628 C638 0.930 . S
H629 C639 0.930 . S
C630 H624 0.930 . S
C630 C631 1.355 . S
C630 C632 1.415 . S
C631 C630 1.355 . S
C631 C633 1.419 1_556 S
C632 C630 1.415 . S
C632 C637 1.425 . S
C632 C639 1.409 . S
C633 H625 0.930 . S
C633 C631 1.419 1_554 S
C633 C634 1.362 1_554 S
C634 H626 0.930 1_556 S
C634 C633 1.362 1_556 S
C634 C637 1.409 . S
C635 H627 0.930 . S
C635 C636 1.355 . S
C635 C637 1.415 . S
C636 C635 1.355 . S
C636 C638 1.419 . S
C637 C632 1.425 . S
C637 C634 1.409 . S
C637 C635 1.415 . S
C638 H628 0.930 . S
C638 C636 1.419 . S
C638 C639 1.362 . S
C639 H629 0.930 . S
C639 C632 1.409 . S
C639 C638 1.362 . S
H640 C646 0.930 . S
H641 C649 0.930 . S
H642 C650 0.930 . S
H643 C651 0.930 . S
H644 C654 0.930 . S
H645 C655 0.930 . S
C646 H640 0.930 . S
C646 C647 1.355 . S
C646 C648 1.415 . S
C647 C646 1.355 . S
C647 C649 1.419 . S
C648 C646 1.415 . S
C648 C653 1.425 . S
C648 C655 1.409 . S
C649 H641 0.930 . S
C649 C647 1.419 . S
C649 C650 1.362 . S
C650 H642 0.930 . S
C650 C649 1.362 . S
C650 C653 1.409 . S
C651 H643 0.930 . S
C651 C652 1.355 . S
C651 C653 1.415 . S
C652 C651 1.355 . S
C652 C654 1.419 . S
C653 C648 1.425 . S
C653 C650 1.409 . S
C653 C651 1.415 . S
C654 H644 0.930 . S
C654 C652 1.419 . S
C654 C655 1.362 . S
C655 H645 0.930 . S
C655 C648 1.409 . S
C655 C654 1.362 . S
H656 C662 0.930 . S
H657 C665 0.930 . S
H658 C666 0.930 . S
H659 C667 0.930 . S
H660 C670 0.930 . S
H661 C671 0.930 . S
C662 H656 0.930 . S
C662 C663 1.355 . S
C662 C664 1.415 . S
C663 C662 1.355 . S
C663 C665 1.419 . S
C664 C662 1.415 . S
C664 C669 1.425 . S
C664 C671 1.409 . S
C665 H657 0.930 . S
C665 C663 1.419 . S
C665 C666 1.362 . S
C666 H658 0.930 . S
C666 C665 1.362 . S
C666 C669 1.409 . S
C667 H659 0.930 . S
C667 C668 1.355 . S
C667 C669 1.415 . S
C668 C667 1.355 . S
C668 C670 1.419 . S
C669 C664 1.425 . S
C669 C666 1.409 . S
C669 C667 1.415 . S
C670 H660 0.930 . S
C670 C668 1.419 . S
C670 C671 1.362 . S
C671 H661 0.930 . S
C671 C664 1.409 . S
C671 C670 1.362 . S
H672 C678 0.930 . S
H673 C681 0.930 . S
H674 C682 0.930 . S
H675 C683 0.930 . S
H676 C686 0.930 . S
H677 C687 0.930 . S
C678 H672 0.930 . S
C678 C679 1.355 . S
C678 C680 1.415 . S
C679 C678 1.355 . S
C679 C681 1.419 . S
C680 C678 1.415 . S
C680 C685 1.425 . S
C680 C687 1.409 . S
C681 H673 0.930 . S
C681 C679 1.419 . S
C681 C682 1.362 . S
C682 H674 0.930 . S
C682 C681 1.362 . S
C682 C685 1.409 . S
C683 H675 0.930 . S
C683 C684 1.355 . S
C683 C685 1.415 . S
C684 C683 1.355 . S
C684 C686 1.419 . S
C685 C680 1.425 . S
C685 C682 1.409 . S
C685 C683 1.415 . S
C686 H676 0.930 . S
C686 C684 1.419 . S
C686 C687 1.362 . S
C687 H677 0.930 . S
C687 C680 1.409 . S
C687 C686 1.362 . S
H688 C694 0.930 . S
H689 C697 0.930 . S
H690 C698 0.930 . S
H691 C699 0.930 . S
H692 C702 0.930 . S
H693 C703 0.930 . S
C694 H688 0.930 . S
C694 C695 1.355 . S
C694 C696 1.415 . S
C695 C694 1.355 . S
C695 C697 1.419 . S
C696 C694 1.415 . S
C696 C701 1.425 . S
C696 C703 1.409 . S
C697 H689 0.930 . S
C697 C695 1.419 . S
C697 C698 1.362 . S
C698 H690 0.930 . S
C698 C697 1.362 . S
C698 C701 1.409 . S
C699 H691 0.930 . S
C699 C700 1.355 . S
C699 C701 1.415 . S
C700 C699 1.355 . S
C700 C702 1.419 . S
C701 C696 1.425 . S
C701 C698 1.409 . S
C701 C699 1.415 . S
C702 H692 0.930 . S
C702 C700 1.419 . S
C702 C703 1.362 . S
C703 H693 0.930 . S
C703 C696 1.409 . S
C703 C702 1.362 . S
H704 C710 0.930 . S
H705 C713 0.930 . S
H706 C714 0.930 . S
H707 C715 0.930 . S
H708 C718 0.930 . S
H709 C719 0.930 . S
C710 H704 0.930 . S
C710 C711 1.355 . S
C710 C712 1.415 . S
C711 C710 1.355 . S
C711 C713 1.419 . S
C712 C710 1.415 . S
C712 C717 1.425 . S
C712 C719 1.409 . S
C713 H705 0.930 . S
C713 C711 1.419 . S
C713 C714 1.362 . S
C714 H706 0.930 . S
C714 C713 1.362 . S
C714 C717 1.409 . S
C715 H707 0.930 . S
C715 C716 1.355 . S
C715 C717 1.415 . S
C716 C715 1.355 . S
C716 C718 1.419 . S
C717 C712 1.425 . S
C717 C714 1.409 . S
C717 C715 1.415 . S
C718 H708 0.930 . S
C718 C716 1.419 . S
C718 C719 1.362 . S
C719 H709 0.930 . S
C719 C712 1.409 . S
C719 C718 1.362 . S
C215 C148 1.404 . S
C220 C5 1.393 . S
C231 C18 1.420 . S
C236 C107 1.448 . S
C247 C29 1.424 . S
C252 C122 1.447 . S
C263 C135 1.449 . S
C268 C42 1.418 . S
C279 C55 1.366 1_556 S
C284 C70 1.418 . S
C295 C68 1.435 1_554 S
C300 C83 1.436 . S
C311 C96 1.405 . S
C316 C81 1.384 1_556 S
C327 C57 1.413 . S
C332 C94 1.419 1_554 S
C343 C44 1.430 . S
C348 C109 1.434 . S
C359 C120 1.366 . S
C364 C3 1.419 . S
C375 C16 1.436 . S
C380 C133 1.377 . S
C391 C146 1.428 . S
C396 C31 1.446 . S
C407 C161 1.422 . S
C412 C172 1.415 . S
C423 C174 1.418 . S
C428 C185 1.449 . S
C439 C200 1.447 . S
C444 C187 1.425 . S
C455 C159 1.410 . S
C460 C198 1.414 . S
C471 C62 1.245 . S
C476 C4 1.206 . S
C487 C17 1.273 . S
C492 C75 1.251 . S
C503 C36 1.253 . S
C508 C88 1.214 . S
C519 C101 1.252 . S
C524 C49 1.273 . S
C535 C108 1.201 . S
C540 C160 1.240 . S
C551 C173 1.179 . S
C556 C127 1.189 . S
C567 C140 1.258 . S
C572 C186 1.274 . S
C583 C205 1.270 . S
C588 C153 1.270 . S
C599 C192 1.575 . S
C604 C10 1.578 1_556 S
C615 C199 1.571 . S
C620 C23 1.577 1_554 S
C631 C30 1.544 1_556 S
C636 C166 1.552 . S
C647 C179 1.577 . S
C652 C43 1.571 1_554 S
C663 C134 1.542 . S
C668 C56 1.544 . S
C679 C147 1.577 . S
C684 C69 1.576 . S
C695 C82 1.551 . S
C700 C114 1.544 . S
C711 C121 1.564 . S
C716 C95 1.573 . S
