# Generated by pormake.
# Topology ulh, (4)-cn, num edge types: 1
# Building blocks:
#     Node 0, Type 0, BuildingBlock: MUDLON_clean_sbu_0, # of connection points: 4
#     Node 1, Type 0, BuildingBlock: MUDLON_clean_sbu_0, # of connection points: 4
#     Node 2, Type 0, BuildingBlock: MUDLON_clean_sbu_0, # of connection points: 4
#     Node 3, Type 0, BuildingBlock: MUDLON_clean_sbu_0, # of connection points: 4
#     Node 4, Type 0, BuildingBlock: MUDLON_clean_sbu_0, # of connection points: 4
#     Node 5, Type 0, BuildingBlock: MUDLON_clean_sbu_0, # of connection points: 4
#     Node 6, Type 0, BuildingBlock: MUDLON_clean_sbu_0, # of connection points: 4
#     Node 7, Type 0, BuildingBlock: MUDLON_clean_sbu_0, # of connection points: 4
#     Node 8, Type 0, BuildingBlock: MUDLON_clean_sbu_0, # of connection points: 4
#     Node 9, Type 0, BuildingBlock: MUDLON_clean_sbu_0, # of connection points: 4
#     Node 10, Type 0, BuildingBlock: MUDLON_clean_sbu_0, # of connection points: 4
#     Node 11, Type 0, BuildingBlock: MUDLON_clean_sbu_0, # of connection points: 4
#     Node 12, Type 0, BuildingBlock: MUDLON_clean_sbu_0, # of connection points: 4
#     Node 13, Type 0, BuildingBlock: MUDLON_clean_sbu_0, # of connection points: 4
#     Node 14, Type 0, BuildingBlock: MUDLON_clean_sbu_0, # of connection points: 4
#     Node 15, Type 0, BuildingBlock: MUDLON_clean_sbu_0, # of connection points: 4
#     Node 16, Type 0, BuildingBlock: MUDLON_clean_sbu_0, # of connection points: 4
#     Node 17, Type 0, BuildingBlock: MUDLON_clean_sbu_0, # of connection points: 4
#     Node 18, Type 0, BuildingBlock: MUDLON_clean_sbu_0, # of connection points: 4
#     Node 19, Type 0, BuildingBlock: MUDLON_clean_sbu_0, # of connection points: 4
#     Node 20, Type 0, BuildingBlock: MUDLON_clean_sbu_0, # of connection points: 4
#     Node 21, Type 0, BuildingBlock: MUDLON_clean_sbu_0, # of connection points: 4
#     Node 22, Type 0, BuildingBlock: MUDLON_clean_sbu_0, # of connection points: 4
#     Node 23, Type 0, BuildingBlock: MUDLON_clean_sbu_0, # of connection points: 4
#     Node 24, Type 0, BuildingBlock: MUDLON_clean_sbu_0, # of connection points: 4
#     Node 25, Type 0, BuildingBlock: MUDLON_clean_sbu_0, # of connection points: 4
#     Node 26, Type 0, BuildingBlock: MUDLON_clean_sbu_0, # of connection points: 4
#     Node 27, Type 0, BuildingBlock: MUDLON_clean_sbu_0, # of connection points: 4
#     Node 28, Type 0, BuildingBlock: MUDLON_clean_sbu_0, # of connection points: 4
#     Node 29, Type 0, BuildingBlock: MUDLON_clean_sbu_0, # of connection points: 4
#     Node 30, Type 0, BuildingBlock: MUDLON_clean_sbu_0, # of connection points: 4
#     Node 31, Type 0, BuildingBlock: MUDLON_clean_sbu_0, # of connection points: 4
#     Node 32, Type 0, BuildingBlock: MUDLON_clean_sbu_0, # of connection points: 4
#     Node 33, Type 0, BuildingBlock: MUDLON_clean_sbu_0, # of connection points: 4
#     Node 34, Type 0, BuildingBlock: MUDLON_clean_sbu_0, # of connection points: 4
#     Node 35, Type 0, BuildingBlock: MUDLON_clean_sbu_0, # of connection points: 4
#     Node 36, Type 0, BuildingBlock: MUDLON_clean_sbu_0, # of connection points: 4
#     Node 37, Type 0, BuildingBlock: MUDLON_clean_sbu_0, # of connection points: 4
#     Node 38, Type 0, BuildingBlock: MUDLON_clean_sbu_0, # of connection points: 4
#     Node 39, Type 0, BuildingBlock: MUDLON_clean_sbu_0, # of connection points: 4
#     Node 40, Type 0, BuildingBlock: MUDLON_clean_sbu_0, # of connection points: 4
#     Node 41, Type 0, BuildingBlock: MUDLON_clean_sbu_0, # of connection points: 4
#     Node 42, Type 0, BuildingBlock: MUDLON_clean_sbu_0, # of connection points: 4
#     Node 43, Type 0, BuildingBlock: MUDLON_clean_sbu_0, # of connection points: 4
#     Node 44, Type 0, BuildingBlock: MUDLON_clean_sbu_0, # of connection points: 4
#     Node 45, Type 0, BuildingBlock: MUDLON_clean_sbu_0, # of connection points: 4
#     Node 46, Type 0, BuildingBlock: MUDLON_clean_sbu_0, # of connection points: 4
#     Node 47, Type 0, BuildingBlock: MUDLON_clean_sbu_0, # of connection points: 4
#     Node 48, Type 0, BuildingBlock: MUDLON_clean_sbu_0, # of connection points: 4
#     Node 49, Type 0, BuildingBlock: MUDLON_clean_sbu_0, # of connection points: 4
#     Node 50, Type 0, BuildingBlock: MUDLON_clean_sbu_0, # of connection points: 4
#     Node 51, Type 0, BuildingBlock: MUDLON_clean_sbu_0, # of connection points: 4
#     Node 52, Type 0, BuildingBlock: MUDLON_clean_sbu_0, # of connection points: 4
#     Node 53, Type 0, BuildingBlock: MUDLON_clean_sbu_0, # of connection points: 4
#     Node 54, Type 0, BuildingBlock: MUDLON_clean_sbu_0, # of connection points: 4
#     Node 55, Type 0, BuildingBlock: MUDLON_clean_sbu_0, # of connection points: 4
#     Node 56, Type 0, BuildingBlock: MUDLON_clean_sbu_0, # of connection points: 4
#     Node 57, Type 0, BuildingBlock: MUDLON_clean_sbu_0, # of connection points: 4
#     Node 58, Type 0, BuildingBlock: MUDLON_clean_sbu_0, # of connection points: 4
#     Node 59, Type 0, BuildingBlock: MUDLON_clean_sbu_0, # of connection points: 4
#     Node 60, Type 0, BuildingBlock: MUDLON_clean_sbu_0, # of connection points: 4
#     Node 61, Type 0, BuildingBlock: MUDLON_clean_sbu_0, # of connection points: 4
#     Node 62, Type 0, BuildingBlock: MUDLON_clean_sbu_0, # of connection points: 4
#     Node 63, Type 0, BuildingBlock: MUDLON_clean_sbu_0, # of connection points: 4
#     Node 64, Type 0, BuildingBlock: MUDLON_clean_sbu_0, # of connection points: 4
#     Node 65, Type 0, BuildingBlock: MUDLON_clean_sbu_0, # of connection points: 4
#     Node 66, Type 0, BuildingBlock: MUDLON_clean_sbu_0, # of connection points: 4
#     Node 67, Type 0, BuildingBlock: MUDLON_clean_sbu_0, # of connection points: 4
#     Node 68, Type 0, BuildingBlock: MUDLON_clean_sbu_0, # of connection points: 4
#     Node 69, Type 0, BuildingBlock: MUDLON_clean_sbu_0, # of connection points: 4
#     Node 70, Type 0, BuildingBlock: MUDLON_clean_sbu_0, # of connection points: 4
#     Node 71, Type 0, BuildingBlock: MUDLON_clean_sbu_0, # of connection points: 4
#     Node 72, Type 0, BuildingBlock: MUDLON_clean_sbu_0, # of connection points: 4
#     Node 73, Type 0, BuildingBlock: MUDLON_clean_sbu_0, # of connection points: 4
#     Node 74, Type 0, BuildingBlock: MUDLON_clean_sbu_0, # of connection points: 4
#     Node 75, Type 0, BuildingBlock: MUDLON_clean_sbu_0, # of connection points: 4
#     Node 76, Type 0, BuildingBlock: MUDLON_clean_sbu_0, # of connection points: 4
#     Node 77, Type 0, BuildingBlock: MUDLON_clean_sbu_0, # of connection points: 4
#     Node 78, Type 0, BuildingBlock: MUDLON_clean_sbu_0, # of connection points: 4
#     Node 79, Type 0, BuildingBlock: MUDLON_clean_sbu_0, # of connection points: 4
#     Node 80, Type 0, BuildingBlock: MUDLON_clean_sbu_0, # of connection points: 4
#     Node 81, Type 0, BuildingBlock: MUDLON_clean_sbu_0, # of connection points: 4
#     Node 82, Type 0, BuildingBlock: MUDLON_clean_sbu_0, # of connection points: 4
#     Node 83, Type 0, BuildingBlock: MUDLON_clean_sbu_0, # of connection points: 4
#     Node 84, Type 0, BuildingBlock: MUDLON_clean_sbu_0, # of connection points: 4
#     Node 85, Type 0, BuildingBlock: MUDLON_clean_sbu_0, # of connection points: 4
#     Node 86, Type 0, BuildingBlock: MUDLON_clean_sbu_0, # of connection points: 4
#     Node 87, Type 0, BuildingBlock: MUDLON_clean_sbu_0, # of connection points: 4
#     Node 88, Type 0, BuildingBlock: MUDLON_clean_sbu_0, # of connection points: 4
#     Node 89, Type 0, BuildingBlock: MUDLON_clean_sbu_0, # of connection points: 4
#     Node 90, Type 0, BuildingBlock: MUDLON_clean_sbu_0, # of connection points: 4
#     Node 91, Type 0, BuildingBlock: MUDLON_clean_sbu_0, # of connection points: 4
#     Node 92, Type 0, BuildingBlock: MUDLON_clean_sbu_0, # of connection points: 4
#     Node 93, Type 0, BuildingBlock: MUDLON_clean_sbu_0, # of connection points: 4
#     Node 94, Type 0, BuildingBlock: MUDLON_clean_sbu_0, # of connection points: 4
#     Node 95, Type 0, BuildingBlock: MUDLON_clean_sbu_0, # of connection points: 4
#     Edge 96, Type (0, 0), BuildingBlock: CIFDUS_clean_linker_0, # of connection points: 2
#     Edge 97, Type (0, 0), BuildingBlock: CIFDUS_clean_linker_0, # of connection points: 2
#     Edge 98, Type (0, 0), BuildingBlock: CIFDUS_clean_linker_0, # of connection points: 2
#     Edge 99, Type (0, 0), BuildingBlock: CIFDUS_clean_linker_0, # of connection points: 2
#     Edge 100, Type (0, 0), BuildingBlock: CIFDUS_clean_linker_0, # of connection points: 2
#     Edge 101, Type (0, 0), BuildingBlock: CIFDUS_clean_linker_0, # of connection points: 2
#     Edge 102, Type (0, 0), BuildingBlock: CIFDUS_clean_linker_0, # of connection points: 2
#     Edge 103, Type (0, 0), BuildingBlock: CIFDUS_clean_linker_0, # of connection points: 2
#     Edge 104, Type (0, 0), BuildingBlock: CIFDUS_clean_linker_0, # of connection points: 2
#     Edge 105, Type (0, 0), BuildingBlock: CIFDUS_clean_linker_0, # of connection points: 2
#     Edge 106, Type (0, 0), BuildingBlock: CIFDUS_clean_linker_0, # of connection points: 2
#     Edge 107, Type (0, 0), BuildingBlock: CIFDUS_clean_linker_0, # of connection points: 2
#     Edge 108, Type (0, 0), BuildingBlock: CIFDUS_clean_linker_0, # of connection points: 2
#     Edge 109, Type (0, 0), BuildingBlock: CIFDUS_clean_linker_0, # of connection points: 2
#     Edge 110, Type (0, 0), BuildingBlock: CIFDUS_clean_linker_0, # of connection points: 2
#     Edge 111, Type (0, 0), BuildingBlock: CIFDUS_clean_linker_0, # of connection points: 2
#     Edge 112, Type (0, 0), BuildingBlock: CIFDUS_clean_linker_0, # of connection points: 2
#     Edge 113, Type (0, 0), BuildingBlock: CIFDUS_clean_linker_0, # of connection points: 2
#     Edge 114, Type (0, 0), BuildingBlock: CIFDUS_clean_linker_0, # of connection points: 2
#     Edge 115, Type (0, 0), BuildingBlock: CIFDUS_clean_linker_0, # of connection points: 2
#     Edge 116, Type (0, 0), BuildingBlock: CIFDUS_clean_linker_0, # of connection points: 2
#     Edge 117, Type (0, 0), BuildingBlock: CIFDUS_clean_linker_0, # of connection points: 2
#     Edge 118, Type (0, 0), BuildingBlock: CIFDUS_clean_linker_0, # of connection points: 2
#     Edge 119, Type (0, 0), BuildingBlock: CIFDUS_clean_linker_0, # of connection points: 2
#     Edge 120, Type (0, 0), BuildingBlock: CIFDUS_clean_linker_0, # of connection points: 2
#     Edge 121, Type (0, 0), BuildingBlock: CIFDUS_clean_linker_0, # of connection points: 2
#     Edge 122, Type (0, 0), BuildingBlock: CIFDUS_clean_linker_0, # of connection points: 2
#     Edge 123, Type (0, 0), BuildingBlock: CIFDUS_clean_linker_0, # of connection points: 2
#     Edge 124, Type (0, 0), BuildingBlock: CIFDUS_clean_linker_0, # of connection points: 2
#     Edge 125, Type (0, 0), BuildingBlock: CIFDUS_clean_linker_0, # of connection points: 2
#     Edge 126, Type (0, 0), BuildingBlock: CIFDUS_clean_linker_0, # of connection points: 2
#     Edge 127, Type (0, 0), BuildingBlock: CIFDUS_clean_linker_0, # of connection points: 2
#     Edge 128, Type (0, 0), BuildingBlock: CIFDUS_clean_linker_0, # of connection points: 2
#     Edge 129, Type (0, 0), BuildingBlock: CIFDUS_clean_linker_0, # of connection points: 2
#     Edge 130, Type (0, 0), BuildingBlock: CIFDUS_clean_linker_0, # of connection points: 2
#     Edge 131, Type (0, 0), BuildingBlock: CIFDUS_clean_linker_0, # of connection points: 2
#     Edge 132, Type (0, 0), BuildingBlock: CIFDUS_clean_linker_0, # of connection points: 2
#     Edge 133, Type (0, 0), BuildingBlock: CIFDUS_clean_linker_0, # of connection points: 2
#     Edge 134, Type (0, 0), BuildingBlock: CIFDUS_clean_linker_0, # of connection points: 2
#     Edge 135, Type (0, 0), BuildingBlock: CIFDUS_clean_linker_0, # of connection points: 2
#     Edge 136, Type (0, 0), BuildingBlock: CIFDUS_clean_linker_0, # of connection points: 2
#     Edge 137, Type (0, 0), BuildingBlock: CIFDUS_clean_linker_0, # of connection points: 2
#     Edge 138, Type (0, 0), BuildingBlock: CIFDUS_clean_linker_0, # of connection points: 2
#     Edge 139, Type (0, 0), BuildingBlock: CIFDUS_clean_linker_0, # of connection points: 2
#     Edge 140, Type (0, 0), BuildingBlock: CIFDUS_clean_linker_0, # of connection points: 2
#     Edge 141, Type (0, 0), BuildingBlock: CIFDUS_clean_linker_0, # of connection points: 2
#     Edge 142, Type (0, 0), BuildingBlock: CIFDUS_clean_linker_0, # of connection points: 2
#     Edge 143, Type (0, 0), BuildingBlock: CIFDUS_clean_linker_0, # of connection points: 2
#     Edge 144, Type (0, 0), BuildingBlock: CIFDUS_clean_linker_0, # of connection points: 2
#     Edge 145, Type (0, 0), BuildingBlock: CIFDUS_clean_linker_0, # of connection points: 2
#     Edge 146, Type (0, 0), BuildingBlock: CIFDUS_clean_linker_0, # of connection points: 2
#     Edge 147, Type (0, 0), BuildingBlock: CIFDUS_clean_linker_0, # of connection points: 2
#     Edge 148, Type (0, 0), BuildingBlock: CIFDUS_clean_linker_0, # of connection points: 2
#     Edge 149, Type (0, 0), BuildingBlock: CIFDUS_clean_linker_0, # of connection points: 2
#     Edge 150, Type (0, 0), BuildingBlock: CIFDUS_clean_linker_0, # of connection points: 2
#     Edge 151, Type (0, 0), BuildingBlock: CIFDUS_clean_linker_0, # of connection points: 2
#     Edge 152, Type (0, 0), BuildingBlock: CIFDUS_clean_linker_0, # of connection points: 2
#     Edge 153, Type (0, 0), BuildingBlock: CIFDUS_clean_linker_0, # of connection points: 2
#     Edge 154, Type (0, 0), BuildingBlock: CIFDUS_clean_linker_0, # of connection points: 2
#     Edge 155, Type (0, 0), BuildingBlock: CIFDUS_clean_linker_0, # of connection points: 2
#     Edge 156, Type (0, 0), BuildingBlock: CIFDUS_clean_linker_0, # of connection points: 2
#     Edge 157, Type (0, 0), BuildingBlock: CIFDUS_clean_linker_0, # of connection points: 2
#     Edge 158, Type (0, 0), BuildingBlock: CIFDUS_clean_linker_0, # of connection points: 2
#     Edge 159, Type (0, 0), BuildingBlock: CIFDUS_clean_linker_0, # of connection points: 2
#     Edge 160, Type (0, 0), BuildingBlock: CIFDUS_clean_linker_0, # of connection points: 2
#     Edge 161, Type (0, 0), BuildingBlock: CIFDUS_clean_linker_0, # of connection points: 2
#     Edge 162, Type (0, 0), BuildingBlock: CIFDUS_clean_linker_0, # of connection points: 2
#     Edge 163, Type (0, 0), BuildingBlock: CIFDUS_clean_linker_0, # of connection points: 2
#     Edge 164, Type (0, 0), BuildingBlock: CIFDUS_clean_linker_0, # of connection points: 2
#     Edge 165, Type (0, 0), BuildingBlock: CIFDUS_clean_linker_0, # of connection points: 2
#     Edge 166, Type (0, 0), BuildingBlock: CIFDUS_clean_linker_0, # of connection points: 2
#     Edge 167, Type (0, 0), BuildingBlock: CIFDUS_clean_linker_0, # of connection points: 2
#     Edge 168, Type (0, 0), BuildingBlock: CIFDUS_clean_linker_0, # of connection points: 2
#     Edge 169, Type (0, 0), BuildingBlock: CIFDUS_clean_linker_0, # of connection points: 2
#     Edge 170, Type (0, 0), BuildingBlock: CIFDUS_clean_linker_0, # of connection points: 2
#     Edge 171, Type (0, 0), BuildingBlock: CIFDUS_clean_linker_0, # of connection points: 2
#     Edge 172, Type (0, 0), BuildingBlock: CIFDUS_clean_linker_0, # of connection points: 2
#     Edge 173, Type (0, 0), BuildingBlock: CIFDUS_clean_linker_0, # of connection points: 2
#     Edge 174, Type (0, 0), BuildingBlock: CIFDUS_clean_linker_0, # of connection points: 2
#     Edge 175, Type (0, 0), BuildingBlock: CIFDUS_clean_linker_0, # of connection points: 2
#     Edge 176, Type (0, 0), BuildingBlock: CIFDUS_clean_linker_0, # of connection points: 2
#     Edge 177, Type (0, 0), BuildingBlock: CIFDUS_clean_linker_0, # of connection points: 2
#     Edge 178, Type (0, 0), BuildingBlock: CIFDUS_clean_linker_0, # of connection points: 2
#     Edge 179, Type (0, 0), BuildingBlock: CIFDUS_clean_linker_0, # of connection points: 2
#     Edge 180, Type (0, 0), BuildingBlock: CIFDUS_clean_linker_0, # of connection points: 2
#     Edge 181, Type (0, 0), BuildingBlock: CIFDUS_clean_linker_0, # of connection points: 2
#     Edge 182, Type (0, 0), BuildingBlock: CIFDUS_clean_linker_0, # of connection points: 2
#     Edge 183, Type (0, 0), BuildingBlock: CIFDUS_clean_linker_0, # of connection points: 2
#     Edge 184, Type (0, 0), BuildingBlock: CIFDUS_clean_linker_0, # of connection points: 2
#     Edge 185, Type (0, 0), BuildingBlock: CIFDUS_clean_linker_0, # of connection points: 2
#     Edge 186, Type (0, 0), BuildingBlock: CIFDUS_clean_linker_0, # of connection points: 2
#     Edge 187, Type (0, 0), BuildingBlock: CIFDUS_clean_linker_0, # of connection points: 2
#     Edge 188, Type (0, 0), BuildingBlock: CIFDUS_clean_linker_0, # of connection points: 2
#     Edge 189, Type (0, 0), BuildingBlock: CIFDUS_clean_linker_0, # of connection points: 2
#     Edge 190, Type (0, 0), BuildingBlock: CIFDUS_clean_linker_0, # of connection points: 2
#     Edge 191, Type (0, 0), BuildingBlock: CIFDUS_clean_linker_0, # of connection points: 2
#     Edge 192, Type (0, 0), BuildingBlock: CIFDUS_clean_linker_0, # of connection points: 2
#     Edge 193, Type (0, 0), BuildingBlock: CIFDUS_clean_linker_0, # of connection points: 2
#     Edge 194, Type (0, 0), BuildingBlock: CIFDUS_clean_linker_0, # of connection points: 2
#     Edge 195, Type (0, 0), BuildingBlock: CIFDUS_clean_linker_0, # of connection points: 2
#     Edge 196, Type (0, 0), BuildingBlock: CIFDUS_clean_linker_0, # of connection points: 2
#     Edge 197, Type (0, 0), BuildingBlock: CIFDUS_clean_linker_0, # of connection points: 2
#     Edge 198, Type (0, 0), BuildingBlock: CIFDUS_clean_linker_0, # of connection points: 2
#     Edge 199, Type (0, 0), BuildingBlock: CIFDUS_clean_linker_0, # of connection points: 2
#     Edge 200, Type (0, 0), BuildingBlock: CIFDUS_clean_linker_0, # of connection points: 2
#     Edge 201, Type (0, 0), BuildingBlock: CIFDUS_clean_linker_0, # of connection points: 2
#     Edge 202, Type (0, 0), BuildingBlock: CIFDUS_clean_linker_0, # of connection points: 2
#     Edge 203, Type (0, 0), BuildingBlock: CIFDUS_clean_linker_0, # of connection points: 2
#     Edge 204, Type (0, 0), BuildingBlock: CIFDUS_clean_linker_0, # of connection points: 2
#     Edge 205, Type (0, 0), BuildingBlock: CIFDUS_clean_linker_0, # of connection points: 2
#     Edge 206, Type (0, 0), BuildingBlock: CIFDUS_clean_linker_0, # of connection points: 2
#     Edge 207, Type (0, 0), BuildingBlock: CIFDUS_clean_linker_0, # of connection points: 2
#     Edge 208, Type (0, 0), BuildingBlock: CIFDUS_clean_linker_0, # of connection points: 2
#     Edge 209, Type (0, 0), BuildingBlock: CIFDUS_clean_linker_0, # of connection points: 2
#     Edge 210, Type (0, 0), BuildingBlock: CIFDUS_clean_linker_0, # of connection points: 2
#     Edge 211, Type (0, 0), BuildingBlock: CIFDUS_clean_linker_0, # of connection points: 2
#     Edge 212, Type (0, 0), BuildingBlock: CIFDUS_clean_linker_0, # of connection points: 2
#     Edge 213, Type (0, 0), BuildingBlock: CIFDUS_clean_linker_0, # of connection points: 2
#     Edge 214, Type (0, 0), BuildingBlock: CIFDUS_clean_linker_0, # of connection points: 2
#     Edge 215, Type (0, 0), BuildingBlock: CIFDUS_clean_linker_0, # of connection points: 2
#     Edge 216, Type (0, 0), BuildingBlock: CIFDUS_clean_linker_0, # of connection points: 2
#     Edge 217, Type (0, 0), BuildingBlock: CIFDUS_clean_linker_0, # of connection points: 2
#     Edge 218, Type (0, 0), BuildingBlock: CIFDUS_clean_linker_0, # of connection points: 2
#     Edge 219, Type (0, 0), BuildingBlock: CIFDUS_clean_linker_0, # of connection points: 2
#     Edge 220, Type (0, 0), BuildingBlock: CIFDUS_clean_linker_0, # of connection points: 2
#     Edge 221, Type (0, 0), BuildingBlock: CIFDUS_clean_linker_0, # of connection points: 2
#     Edge 222, Type (0, 0), BuildingBlock: CIFDUS_clean_linker_0, # of connection points: 2
#     Edge 223, Type (0, 0), BuildingBlock: CIFDUS_clean_linker_0, # of connection points: 2
#     Edge 224, Type (0, 0), BuildingBlock: CIFDUS_clean_linker_0, # of connection points: 2
#     Edge 225, Type (0, 0), BuildingBlock: CIFDUS_clean_linker_0, # of connection points: 2
#     Edge 226, Type (0, 0), BuildingBlock: CIFDUS_clean_linker_0, # of connection points: 2
#     Edge 227, Type (0, 0), BuildingBlock: CIFDUS_clean_linker_0, # of connection points: 2
#     Edge 228, Type (0, 0), BuildingBlock: CIFDUS_clean_linker_0, # of connection points: 2
#     Edge 229, Type (0, 0), BuildingBlock: CIFDUS_clean_linker_0, # of connection points: 2
#     Edge 230, Type (0, 0), BuildingBlock: CIFDUS_clean_linker_0, # of connection points: 2
#     Edge 231, Type (0, 0), BuildingBlock: CIFDUS_clean_linker_0, # of connection points: 2
#     Edge 232, Type (0, 0), BuildingBlock: CIFDUS_clean_linker_0, # of connection points: 2
#     Edge 233, Type (0, 0), BuildingBlock: CIFDUS_clean_linker_0, # of connection points: 2
#     Edge 234, Type (0, 0), BuildingBlock: CIFDUS_clean_linker_0, # of connection points: 2
#     Edge 235, Type (0, 0), BuildingBlock: CIFDUS_clean_linker_0, # of connection points: 2
#     Edge 236, Type (0, 0), BuildingBlock: CIFDUS_clean_linker_0, # of connection points: 2
#     Edge 237, Type (0, 0), BuildingBlock: CIFDUS_clean_linker_0, # of connection points: 2
#     Edge 238, Type (0, 0), BuildingBlock: CIFDUS_clean_linker_0, # of connection points: 2
#     Edge 239, Type (0, 0), BuildingBlock: CIFDUS_clean_linker_0, # of connection points: 2
#     Edge 240, Type (0, 0), BuildingBlock: CIFDUS_clean_linker_0, # of connection points: 2
#     Edge 241, Type (0, 0), BuildingBlock: CIFDUS_clean_linker_0, # of connection points: 2
#     Edge 242, Type (0, 0), BuildingBlock: CIFDUS_clean_linker_0, # of connection points: 2
#     Edge 243, Type (0, 0), BuildingBlock: CIFDUS_clean_linker_0, # of connection points: 2
#     Edge 244, Type (0, 0), BuildingBlock: CIFDUS_clean_linker_0, # of connection points: 2
#     Edge 245, Type (0, 0), BuildingBlock: CIFDUS_clean_linker_0, # of connection points: 2
#     Edge 246, Type (0, 0), BuildingBlock: CIFDUS_clean_linker_0, # of connection points: 2
#     Edge 247, Type (0, 0), BuildingBlock: CIFDUS_clean_linker_0, # of connection points: 2
#     Edge 248, Type (0, 0), BuildingBlock: CIFDUS_clean_linker_0, # of connection points: 2
#     Edge 249, Type (0, 0), BuildingBlock: CIFDUS_clean_linker_0, # of connection points: 2
#     Edge 250, Type (0, 0), BuildingBlock: CIFDUS_clean_linker_0, # of connection points: 2
#     Edge 251, Type (0, 0), BuildingBlock: CIFDUS_clean_linker_0, # of connection points: 2
#     Edge 252, Type (0, 0), BuildingBlock: CIFDUS_clean_linker_0, # of connection points: 2
#     Edge 253, Type (0, 0), BuildingBlock: CIFDUS_clean_linker_0, # of connection points: 2
#     Edge 254, Type (0, 0), BuildingBlock: CIFDUS_clean_linker_0, # of connection points: 2
#     Edge 255, Type (0, 0), BuildingBlock: CIFDUS_clean_linker_0, # of connection points: 2
#     Edge 256, Type (0, 0), BuildingBlock: CIFDUS_clean_linker_0, # of connection points: 2
#     Edge 257, Type (0, 0), BuildingBlock: CIFDUS_clean_linker_0, # of connection points: 2
#     Edge 258, Type (0, 0), BuildingBlock: CIFDUS_clean_linker_0, # of connection points: 2
#     Edge 259, Type (0, 0), BuildingBlock: CIFDUS_clean_linker_0, # of connection points: 2
#     Edge 260, Type (0, 0), BuildingBlock: CIFDUS_clean_linker_0, # of connection points: 2
#     Edge 261, Type (0, 0), BuildingBlock: CIFDUS_clean_linker_0, # of connection points: 2
#     Edge 262, Type (0, 0), BuildingBlock: CIFDUS_clean_linker_0, # of connection points: 2
#     Edge 263, Type (0, 0), BuildingBlock: CIFDUS_clean_linker_0, # of connection points: 2
#     Edge 264, Type (0, 0), BuildingBlock: CIFDUS_clean_linker_0, # of connection points: 2
#     Edge 265, Type (0, 0), BuildingBlock: CIFDUS_clean_linker_0, # of connection points: 2
#     Edge 266, Type (0, 0), BuildingBlock: CIFDUS_clean_linker_0, # of connection points: 2
#     Edge 267, Type (0, 0), BuildingBlock: CIFDUS_clean_linker_0, # of connection points: 2
#     Edge 268, Type (0, 0), BuildingBlock: CIFDUS_clean_linker_0, # of connection points: 2
#     Edge 269, Type (0, 0), BuildingBlock: CIFDUS_clean_linker_0, # of connection points: 2
#     Edge 270, Type (0, 0), BuildingBlock: CIFDUS_clean_linker_0, # of connection points: 2
#     Edge 271, Type (0, 0), BuildingBlock: CIFDUS_clean_linker_0, # of connection points: 2
#     Edge 272, Type (0, 0), BuildingBlock: CIFDUS_clean_linker_0, # of connection points: 2
#     Edge 273, Type (0, 0), BuildingBlock: CIFDUS_clean_linker_0, # of connection points: 2
#     Edge 274, Type (0, 0), BuildingBlock: CIFDUS_clean_linker_0, # of connection points: 2
#     Edge 275, Type (0, 0), BuildingBlock: CIFDUS_clean_linker_0, # of connection points: 2
#     Edge 276, Type (0, 0), BuildingBlock: CIFDUS_clean_linker_0, # of connection points: 2
#     Edge 277, Type (0, 0), BuildingBlock: CIFDUS_clean_linker_0, # of connection points: 2
#     Edge 278, Type (0, 0), BuildingBlock: CIFDUS_clean_linker_0, # of connection points: 2
#     Edge 279, Type (0, 0), BuildingBlock: CIFDUS_clean_linker_0, # of connection points: 2
#     Edge 280, Type (0, 0), BuildingBlock: CIFDUS_clean_linker_0, # of connection points: 2
#     Edge 281, Type (0, 0), BuildingBlock: CIFDUS_clean_linker_0, # of connection points: 2
#     Edge 282, Type (0, 0), BuildingBlock: CIFDUS_clean_linker_0, # of connection points: 2
#     Edge 283, Type (0, 0), BuildingBlock: CIFDUS_clean_linker_0, # of connection points: 2
#     Edge 284, Type (0, 0), BuildingBlock: CIFDUS_clean_linker_0, # of connection points: 2
#     Edge 285, Type (0, 0), BuildingBlock: CIFDUS_clean_linker_0, # of connection points: 2
#     Edge 286, Type (0, 0), BuildingBlock: CIFDUS_clean_linker_0, # of connection points: 2
#     Edge 287, Type (0, 0), BuildingBlock: CIFDUS_clean_linker_0, # of connection points: 2
# Relax obj value: 0.241
# Max RMSD: 0.304
# Mean RMSD: 0.304
data_MOF--net-ulh--node1-MUDLON_clean_sbu_0--edge1-CIFDUS_clean_linker_0
_symmetry_space_group_name_H-M    P1
_symmetry_Int_Tables_number       1
_symmetry_cell_setting            triclinic
loop_
_symmetry_equiv_pos_as_xyz
'x, y, z'
_cell_length_a     75.929741
_cell_length_b     75.960733
_cell_length_c     75.963635
_cell_angle_alpha  89.993273
_cell_angle_beta   90.026466
_cell_angle_gamma 89.952569
loop_
_atom_site_label
_atom_site_type_symbol
_atom_site_fract_x
_atom_site_fract_y
_atom_site_fract_z
_atom_type_partial_charge
Mg0 Mg 0.04235 0.32817 0.07849 0.0
C1 C 0.01901 0.32302 0.04737 0.0
O2 O 0.02163 0.30675 0.05262 0.0
C3 C 0.05701 0.34796 0.10866 0.0
O4 O 0.06917 0.33606 0.10549 0.0
C5 C 0.03319 0.29958 0.10554 0.0
O6 O 0.04218 0.30993 0.11607 0.0
O7 O 0.03211 0.30349 0.08929 0.0
O8 O 0.02557 0.33553 0.05636 0.0
O9 O 0.06931 0.32797 0.06851 0.0
C10 C 0.07242 0.33838 0.05574 0.0
O11 O 0.05911 0.34651 0.04827 0.0
O12 O 0.04313 0.34799 0.09923 0.0
Mg13 Mg 0.92953 0.2856 0.33633 0.0
C14 C 0.94512 0.26819 0.30446 0.0
O15 O 0.9593 0.27528 0.31138 0.0
C16 C 0.90572 0.28951 0.36675 0.0
O17 O 0.91915 0.29953 0.37104 0.0
C18 C 0.95859 0.26473 0.3524 0.0
O19 O 0.95066 0.25304 0.34242 0.0
O20 O 0.9528 0.28047 0.35254 0.0
O21 O 0.93047 0.26975 0.31242 0.0
O22 O 0.92497 0.31244 0.32734 0.0
C23 C 0.9136 0.31311 0.31501 0.0
O24 O 0.90733 0.29825 0.30879 0.0
O25 O 0.90652 0.28069 0.35252 0.0
Mg26 Mg 0.96292 0.18148 0.5825 0.0
C27 C 0.98878 0.18781 0.55398 0.0
O28 O 0.98415 0.20386 0.55849 0.0
C29 C 0.94485 0.16266 0.61086 0.0
O30 O 0.93384 0.17518 0.60619 0.0
C31 C 0.97178 0.20894 0.61062 0.0
O32 O 0.9663 0.19627 0.62103 0.0
O33 O 0.97071 0.20681 0.59402 0.0
O34 O 0.98275 0.17493 0.56282 0.0
O35 O 0.93758 0.1799 0.56874 0.0
C36 C 0.93709 0.17138 0.55428 0.0
O37 O 0.952 0.16649 0.54702 0.0
O38 O 0.95977 0.16188 0.60325 0.0
Mg39 Mg 0.07777 0.2245 0.83714 0.0
C40 C 0.07055 0.25345 0.81041 0.0
O41 O 0.06145 0.25991 0.82362 0.0
C42 C 0.10492 0.21677 0.86448 0.0
O43 O 0.09483 0.20275 0.8654 0.0
C44 C 0.0529 0.23192 0.86789 0.0
O45 O 0.06595 0.22464 0.8766 0.0
O46 O 0.05381 0.23269 0.85118 0.0
O47 O 0.07922 0.23931 0.81266 0.0
O48 O 0.08057 0.19676 0.83009 0.0
C49 C 0.08416 0.19246 0.81428 0.0
O50 O 0.08301 0.20445 0.80188 0.0
O51 O 0.10084 0.22896 0.8537 0.0
Mg52 Mg 0.03467 0.67804 0.91924 0.0
C53 C 0.00942 0.68674 0.94858 0.0
O54 O 0.00726 0.70048 0.93831 0.0
C55 C 0.02342 0.64971 0.89209 0.0
O56 O 0.00785 0.6572 0.89312 0.0
C57 C 0.02772 0.71648 0.90721 0.0
O58 O 0.03805 0.72062 0.92046 0.0
O59 O 0.02476 0.70033 0.90391 0.0
O60 O 0.01935 0.6743 0.94337 0.0
O61 O 0.0614 0.68035 0.92888 0.0
C62 C 0.07413 0.676 0.91896 0.0
O63 O 0.07105 0.67328 0.90216 0.0
O64 O 0.03588 0.65527 0.90179 0.0
Mg65 Mg 0.583 0.28674 0.17506 0.0
C66 C 0.57873 0.27612 0.21147 0.0
O67 O 0.5684 0.28981 0.20912 0.0
C68 C 0.60329 0.29836 0.1442 0.0
O69 O 0.59221 0.31128 0.14725 0.0
C70 C 0.54963 0.28652 0.15103 0.0
O71 O 0.5567 0.30045 0.14365 0.0
O72 O 0.55712 0.27964 0.16437 0.0
O73 O 0.58728 0.27028 0.19827 0.0
O74 O 0.58837 0.31247 0.18648 0.0
C75 C 0.58271 0.32814 0.18508 0.0
O76 O 0.56948 0.33166 0.17449 0.0
O77 O 0.60268 0.28482 0.1541 0.0
Mg78 Mg 0.97019 0.82241 0.41781 0.0
C79 C 1.00057 0.82243 0.44446 0.0
O80 O 0.00981 0.8176 0.43066 0.0
C81 C 0.97953 0.85911 0.4046 0.0
O82 O 0.98541 0.86078 0.42078 0.0
C83 C 0.98524 0.78551 0.4142 0.0
O84 O 0.98324 0.7862 0.43137 0.0
O85 O 0.9796 0.7983 0.40495 0.0
O86 O 0.9843 0.82589 0.44255 0.0
O87 O 0.94253 0.82485 0.4249 0.0
C88 C 0.93702 0.82208 0.44048 0.0
O89 O 0.94744 0.81425 0.45186 0.0
O90 O 0.97352 0.84431 0.39966 0.0
Mg91 Mg 0.4275 0.22025 0.67497 0.0
C92 C 0.41284 0.23116 0.71042 0.0
O93 O 0.40369 0.21669 0.70798 0.0
C94 C 0.39462 0.23244 0.6539 0.0
O95 O 0.39422 0.24555 0.66516 0.0
C96 C 0.455 0.22871 0.64682 0.0
O97 O 0.44293 0.22177 0.63656 0.0
O98 O 0.45245 0.22882 0.66339 0.0
O99 O 0.42289 0.23656 0.69814 0.0
O100 O 0.42624 0.19359 0.68531 0.0
C101 C 0.42034 0.18124 0.67569 0.0
O102 O 0.41815 0.18416 0.65878 0.0
O103 O 0.40682 0.22105 0.65506 0.0
Mg104 Mg 0.0933 0.03281 0.33156 0.0
C105 C 0.05516 0.02497 0.32949 0.0
O106 O 0.05698 0.039 0.31952 0.0
C107 C 0.12564 0.04243 0.3509 0.0
O108 O 0.12646 0.05203 0.33653 0.0
C109 C 0.0946 0.01543 0.29556 0.0
O110 O 0.0776 0.01506 0.29861 0.0
O111 O 0.1046 0.02299 0.30671 0.0
O112 O 0.06875 0.01864 0.33705 0.0
O113 O 0.08556 0.06039 0.33302 0.0
C114 C 0.07816 0.06333 0.34779 0.0
O115 O 0.07632 0.0501 0.35879 0.0
O116 O 0.11301 0.03151 0.35248 0.0
Mg117 Mg 0.20802 0.33216 0.58169 0.0
C118 C 0.21982 0.29549 0.57805 0.0
O119 O 0.20545 0.29641 0.56846 0.0
C120 C 0.19719 0.36446 0.59891 0.0
O121 O 0.18994 0.36479 0.58322 0.0
C122 C 0.22687 0.34243 0.54733 0.0
O123 O 0.23448 0.32702 0.54928 0.0
O124 O 0.21477 0.34697 0.55799 0.0
O125 O 0.22526 0.30943 0.58563 0.0
O126 O 0.18161 0.32125 0.58359 0.0
C127 C 0.16732 0.32665 0.57677 0.0
O128 O 0.16765 0.33976 0.5655 0.0
O129 O 0.20747 0.35174 0.60269 0.0
Mg130 Mg 0.91519 0.47168 0.8273 0.0
C131 C 0.95251 0.48032 0.82313 0.0
O132 O 0.95028 0.4661 0.81355 0.0
C133 C 0.88424 0.46452 0.85031 0.0
O134 O 0.8839 0.45093 0.83961 0.0
C135 C 0.88862 0.48184 0.79852 0.0
O136 O 0.87721 0.47863 0.81111 0.0
O137 O 0.90488 0.47882 0.80133 0.0
O138 O 0.93921 0.48683 0.83099 0.0
O139 O 0.9244 0.44501 0.8322 0.0
C140 C 0.92101 0.43028 0.82508 0.0
O141 O 0.91014 0.42956 0.81164 0.0
O142 O 0.8959 0.47633 0.84794 0.0
Mg143 Mg 0.79408 0.17003 0.07362 0.0
C144 C 0.78011 0.20404 0.0628 0.0
O145 O 0.7883 0.19771 0.04894 0.0
C146 C 0.80518 0.14053 0.09636 0.0
O147 O 0.81671 0.14035 0.08346 0.0
C148 C 0.78266 0.14153 0.04672 0.0
O149 O 0.78874 0.13059 0.05865 0.0
O150 O 0.78409 0.15803 0.0493 0.0
O151 O 0.77949 0.19464 0.07665 0.0
O152 O 0.82159 0.17818 0.07398 0.0
C153 C 0.82464 0.18965 0.08582 0.0
O154 O 0.81131 0.19574 0.09501 0.0
O155 O 0.79274 0.15181 0.09583 0.0
Mg156 Mg 0.08895 0.96535 0.68078 0.0
C157 C 0.05317 0.97833 0.68688 0.0
O158 O 0.05566 0.96621 0.69898 0.0
C159 C 0.11869 0.951 0.66221 0.0
O160 O 0.11732 0.94222 0.67706 0.0
C161 C 0.09923 0.98703 0.71301 0.0
O162 O 0.08458 0.99527 0.7089 0.0
O163 O 0.10366 0.97346 0.7042 0.0
O164 O 0.06588 0.982 0.67657 0.0
O165 O 0.0784 0.93867 0.68018 0.0
C166 C 0.06853 0.93638 0.6668 0.0
O167 O 0.06535 0.94993 0.65651 0.0
O168 O 0.10806 0.96369 0.65948 0.0
Mg169 Mg 0.29461 0.34464 0.93214 0.0
C170 C 0.28046 0.31074 0.91506 0.0
O171 O 0.29146 0.31481 0.90234 0.0
C172 C 0.30542 0.37453 0.90962 0.0
O173 O 0.31731 0.37466 0.92221 0.0
C174 C 0.28339 0.37277 0.9591 0.0
O175 O 0.2892 0.38361 0.94696 0.0
O176 O 0.28508 0.35626 0.95675 0.0
O177 O 0.27876 0.32117 0.92805 0.0
O178 O 0.32208 0.33648 0.9307 0.0
C179 C 0.32676 0.32039 0.93022 0.0
O180 O 0.31535 0.3082 0.93468 0.0
O181 O 0.29295 0.36335 0.91047 0.0
Mg182 Mg 0.92552 0.53026 0.17329 0.0
C183 C 0.96037 0.51512 0.18373 0.0
O184 O 0.95714 0.52545 0.19722 0.0
C185 C 0.89513 0.53385 0.14779 0.0
O186 O 0.88654 0.53628 0.16261 0.0
C187 C 0.90948 0.51718 0.20929 0.0
O188 O 0.92473 0.52093 0.21653 0.0
O189 O 0.907 0.5205 0.19304 0.0
O190 O 0.94896 0.51391 0.17153 0.0
O191 O 0.93537 0.5571 0.17476 0.0
C192 C 0.92548 0.56979 0.17016 0.0
O193 O 0.90851 0.56692 0.1685 0.0
O194 O 0.91146 0.53008 0.14836 0.0
Mg195 Mg 0.71968 0.17749 0.42741 0.0
C196 C 0.72532 0.21655 0.42937 0.0
O197 O 0.70987 0.21513 0.437 0.0
C198 C 0.71985 0.14545 0.40286 0.0
O199 O 0.71616 0.13698 0.41746 0.0
C200 C 0.72731 0.15102 0.45848 0.0
O201 O 0.71252 0.14319 0.45414 0.0
O202 O 0.73207 0.16479 0.4502 0.0
O203 O 0.73298 0.20268 0.4239 0.0
O204 O 0.69179 0.1845 0.42806 0.0
C205 C 0.67995 0.17446 0.4218 0.0
O206 O 0.68401 0.15807 0.41807 0.0
O207 O 0.72288 0.16192 0.40351 0.0
Mg208 Mg 0.33436 0.0929 0.03731 0.0
C209 C 0.3285 0.06586 0.00774 0.0
O210 O 0.32095 0.07932 0.99992 0.0
C211 C 0.36063 0.12336 0.03704 0.0
O212 O 0.34667 0.13248 0.03241 0.0
C213 C 0.29846 0.10649 0.02352 0.0
O214 O 0.29279 0.0909 0.02843 0.0
O215 O 0.31449 0.11056 0.02624 0.0
O216 O 0.3356 0.0681 0.02272 0.0
O217 O 0.33121 0.08608 0.06496 0.0
C218 C 0.3389 0.07189 0.06953 0.0
O219 O 0.34558 0.06179 0.05719 0.0
O220 O 0.35947 0.1067 0.03842 0.0
Mg221 Mg 0.83511 0.92131 0.46517 0.0
C222 C 0.8281 0.94751 0.49462 0.0
O223 O 0.81602 0.93579 0.49857 0.0
C224 C 0.86048 0.88876 0.46864 0.0
O225 O 0.84851 0.88158 0.47883 0.0
C226 C 0.80763 0.8914 0.46842 0.0
O227 O 0.81682 0.8843 0.45559 0.0
O228 O 0.81196 0.90655 0.4741 0.0
O229 O 0.83874 0.94429 0.48211 0.0
O230 O 0.83421 0.93151 0.43832 0.0
C231 C 0.8388 0.94742 0.43565 0.0
O232 O 0.84038 0.95799 0.44922 0.0
O233 O 0.8583 0.90443 0.46309 0.0
Mg234 Mg 0.33142 0.08045 0.71565 0.0
C235 C 0.30351 0.08043 0.7449 0.0
O236 O 0.31361 0.06805 0.75151 0.0
C237 C 0.36201 0.09757 0.70001 0.0
O238 O 0.35963 0.08316 0.69076 0.0
C239 C 0.33529 0.04231 0.72946 0.0
O240 O 0.3187 0.04107 0.72468 0.0
O241 O 0.34356 0.05656 0.72645 0.0
O242 O 0.30863 0.08867 0.73126 0.0
O243 O 0.32183 0.07935 0.68856 0.0
C244 C 0.306 0.0837 0.6851 0.0
O245 O 0.29468 0.08496 0.6981 0.0
O246 O 0.35199 0.10035 0.71317 0.0
Mg247 Mg 0.18176 0.59603 0.95791 0.0
C248 C 0.1835 0.55982 0.97264 0.0
O249 O 0.19264 0.55832 0.95803 0.0
C250 C 0.16241 0.62481 0.9422 0.0
O251 O 0.17658 0.62276 0.93249 0.0
C252 C 0.21608 0.60534 0.97646 0.0
O253 O 0.21427 0.58924 0.98252 0.0
O254 O 0.20515 0.611 0.96509 0.0
O255 O 0.17713 0.57479 0.9767 0.0
O256 O 0.1808 0.58445 0.93172 0.0
C257 C 0.1673 0.57474 0.92961 0.0
O258 O 0.15697 0.57188 0.94319 0.0
O259 O 0.16059 0.61518 0.9558 0.0
Mg260 Mg 0.17425 0.92566 0.2172 0.0
C261 C 0.21058 0.91174 0.23024 0.0
O262 O 0.20982 0.90081 0.21686 0.0
C263 C 0.144 0.90153 0.20997 0.0
O264 O 0.14242 0.91284 0.19697 0.0
C265 C 0.14628 0.95214 0.22954 0.0
O266 O 0.13558 0.93926 0.22527 0.0
O267 O 0.16267 0.95045 0.22643 0.0
O268 O 0.19786 0.92228 0.2331 0.0
O269 O 0.181 0.92321 0.18938 0.0
C270 C 0.19657 0.92418 0.18326 0.0
O271 O 0.20924 0.9302 0.19337 0.0
O272 O 0.15611 0.9039 0.22133 0.0
Mg273 Mg 0.68193 0.921 0.03742 0.0
C274 C 0.68781 0.95979 0.0321 0.0
O275 O 0.69324 0.95799 0.04842 0.0
C276 C 0.65655 0.89157 0.03871 0.0
O277 O 0.66988 0.88545 0.04792 0.0
C278 C 0.71512 0.90814 0.01873 0.0
O279 O 0.71416 0.92391 0.01168 0.0
O280 O 0.70401 0.90387 0.03054 0.0
O281 O 0.68271 0.94621 0.02369 0.0
O282 O 0.67815 0.92677 0.06522 0.0
C283 C 0.66445 0.93611 0.06781 0.0
O284 O 0.65522 0.94121 0.05409 0.0
O285 O 0.65806 0.90656 0.03139 0.0
Mg286 Mg 0.34112 0.42747 0.78511 0.0
C287 C 0.3046 0.42916 0.77203 0.0
O288 O 0.30488 0.44073 0.78489 0.0
C289 C 0.37095 0.40701 0.79938 0.0
O290 O 0.36851 0.4194 0.8112 0.0
C291 C 0.36822 0.4552 0.77413 0.0
O292 O 0.37919 0.44293 0.77944 0.0
O293 O 0.35174 0.4527 0.77598 0.0
O294 O 0.31882 0.42117 0.76813 0.0
O295 O 0.33017 0.42596 0.81167 0.0
C296 C 0.32045 0.41241 0.81355 0.0
O297 O 0.31801 0.40204 0.79993 0.0
O298 O 0.36142 0.40714 0.78557 0.0
Mg299 Mg 0.67082 0.07527 0.28865 0.0
C300 C 0.70881 0.07095 0.27757 0.0
O301 O 0.71033 0.06756 0.29446 0.0
C302 C 0.6403 0.0997 0.29201 0.0
O303 O 0.63531 0.08651 0.30202 0.0
C304 C 0.65831 0.04016 0.2739 0.0
O305 O 0.67439 0.03994 0.26752 0.0
O306 O 0.65378 0.05269 0.28405 0.0
O307 O 0.69367 0.07448 0.27128 0.0
O308 O 0.67999 0.07918 0.3155 0.0
C309 C 0.68836 0.09358 0.31734 0.0
O310 O 0.69071 0.10356 0.3034 0.0
O311 O 0.65486 0.0985 0.28379 0.0
Mg312 Mg 0.03528 0.82584 0.58438 0.0
C313 C 0.02813 0.81972 0.54613 0.0
O314 O 0.04367 0.81235 0.54801 0.0
C315 C 0.03973 0.85078 0.61401 0.0
O316 O 0.04907 0.83714 0.61914 0.0
C317 C 0.01983 0.79019 0.59684 0.0
O318 O 0.01692 0.78749 0.58001 0.0
O319 O 0.02783 0.80411 0.60163 0.0
O320 O 0.02057 0.82616 0.55965 0.0
O321 O 0.06297 0.82816 0.57739 0.0
C322 C 0.06563 0.84192 0.56819 0.0
O323 O 0.05202 0.85181 0.56407 0.0
O324 O 0.03126 0.84975 0.59957 0.0
Mg325 Mg 0.92799 0.78502 0.82864 0.0
C326 C 0.93268 0.76777 0.79501 0.0
O327 O 0.94785 0.77516 0.79885 0.0
C328 C 0.9116 0.80199 0.85883 0.0
O329 O 0.92571 0.81136 0.85534 0.0
C330 C 0.96143 0.77669 0.85173 0.0
O331 O 0.95885 0.792 0.85932 0.0
O332 O 0.95139 0.77191 0.83919 0.0
O333 O 0.92018 0.7691 0.80608 0.0
O334 O 0.93033 0.81173 0.81829 0.0
C335 C 0.91857 0.81566 0.80697 0.0
O336 O 0.90806 0.80315 0.80133 0.0
O337 O 0.90861 0.78833 0.84958 0.0
Mg338 Mg 0.96676 0.67415 0.0845 0.0
C339 C 0.98148 0.68147 0.05008 0.0
O340 O 0.97035 0.69427 0.05352 0.0
C341 C 0.94844 0.65314 0.11074 0.0
O342 O 0.93802 0.66647 0.10709 0.0
C343 C 0.97594 0.69776 0.11563 0.0
O344 O 0.96884 0.68438 0.12393 0.0
O345 O 0.97598 0.6977 0.09884 0.0
O346 O 0.9843 0.67003 0.06202 0.0
O347 O 0.94083 0.67409 0.07169 0.0
C348 C 0.93957 0.6612 0.061 0.0
O349 O 0.95346 0.65117 0.05853 0.0
O350 O 0.9634 0.6524 0.10315 0.0
Mg351 Mg 0.08311 0.71824 0.33321 0.0
C352 C 0.0783 0.74846 0.30761 0.0
O353 O 0.0653 0.75189 0.31849 0.0
C354 C 0.10039 0.70191 0.36365 0.0
O355 O 0.0863 0.69237 0.36061 0.0
C356 C 0.05511 0.72851 0.36039 0.0
O357 O 0.06829 0.72552 0.37117 0.0
O358 O 0.05719 0.72557 0.344 0.0
O359 O 0.08904 0.73618 0.31147 0.0
O360 O 0.0859 0.69324 0.31951 0.0
C361 C 0.0792 0.67811 0.32188 0.0
O362 O 0.06673 0.67601 0.33367 0.0
O363 O 0.10283 0.71562 0.35429 0.0
Mg364 Mg 0.04641 0.17861 0.42524 0.0
C365 C 0.03712 0.19183 0.46076 0.0
O366 O 0.04947 0.20288 0.4558 0.0
C367 C 0.04897 0.15139 0.39685 0.0
O368 O 0.05391 0.16552 0.38818 0.0
C369 C 0.02809 0.21187 0.41038 0.0
O370 O 0.02624 0.21615 0.42703 0.0
O371 O 0.03657 0.19797 0.40638 0.0
O372 O 0.03234 0.17978 0.45016 0.0
O373 O 0.07404 0.17959 0.43243 0.0
C374 C 0.08686 0.18026 0.42171 0.0
O375 O 0.08372 0.18327 0.40498 0.0
O376 O 0.04403 0.15298 0.41279 0.0
Mg377 Mg 0.58036 0.79056 0.66744 0.0
C378 C 0.58908 0.77677 0.70457 0.0
O379 O 0.60297 0.78693 0.70285 0.0
C380 C 0.60556 0.79386 0.63828 0.0
O381 O 0.59223 0.80376 0.63337 0.0
C382 C 0.54538 0.77509 0.65425 0.0
O383 O 0.54364 0.77076 0.67091 0.0
O384 O 0.55869 0.78414 0.64957 0.0
O385 O 0.57823 0.7755 0.69184 0.0
O386 O 0.58409 0.81834 0.67347 0.0
C387 C 0.58348 0.825 0.68883 0.0
O388 O 0.57699 0.81565 0.70184 0.0
O389 O 0.60429 0.78527 0.65263 0.0
Mg390 Mg 0.96176 0.33113 0.91791 0.0
C391 C 0.96971 0.32182 0.9544 0.0
O392 O 0.95674 0.31134 0.9498 0.0
C393 C 0.9593 0.35324 0.88545 0.0
O394 O 0.95526 0.33763 0.8792 0.0
C395 C 0.98251 0.29775 0.90976 0.0
O396 O 0.98691 0.29999 0.92631 0.0
O397 O 0.97139 0.30827 0.90285 0.0
O398 O 0.97559 0.33268 0.94308 0.0
O399 O 0.93423 0.332 0.92605 0.0
C400 C 0.92111 0.33325 0.91574 0.0
O401 O 0.9235 0.33113 0.89875 0.0
O402 O 0.96409 0.35451 0.90147 0.0
Mg403 Mg 0.43 0.71889 0.17858 0.0
C404 C 0.43998 0.73128 0.21463 0.0
O405 O 0.45074 0.71786 0.21273 0.0
C406 C 0.40585 0.71557 0.14827 0.0
O407 O 0.41973 0.70677 0.14285 0.0
C408 C 0.46432 0.73458 0.1638 0.0
O409 O 0.46567 0.74151 0.17959 0.0
O410 O 0.45167 0.72412 0.16053 0.0
O411 O 0.42992 0.73547 0.20191 0.0
O412 O 0.42703 0.69187 0.18747 0.0
C413 C 0.41383 0.68995 0.19762 0.0
O414 O 0.40472 0.70399 0.20203 0.0
O415 O 0.40641 0.72309 0.16322 0.0
Mg416 Mg 0.08007 0.53978 0.8233 0.0
C417 C 0.0533 0.51039 0.81954 0.0
O418 O 0.06592 0.50374 0.80976 0.0
C419 C 0.11033 0.54761 0.84678 0.0
O420 O 0.11115 0.56056 0.83535 0.0
C421 C 0.10825 0.52926 0.79608 0.0
O422 O 0.11894 0.53583 0.80795 0.0
O423 O 0.09169 0.53033 0.79855 0.0
O424 O 0.05595 0.52489 0.82744 0.0
O425 O 0.07312 0.56759 0.82604 0.0
C426 C 0.05745 0.57175 0.83037 0.0
O427 O 0.04516 0.55961 0.82985 0.0
O428 O 0.0985 0.5359 0.84487 0.0
Mg429 Mg 0.22271 0.8329 0.08034 0.0
C430 C 0.25304 0.80724 0.07673 0.0
O431 O 0.25829 0.8193 0.06551 0.0
C432 C 0.2339 0.86189 0.10736 0.0
O433 O 0.24995 0.85978 0.10124 0.0
C434 C 0.23237 0.8618 0.05387 0.0
O435 O 0.22508 0.87179 0.06596 0.0
O436 O 0.23213 0.84516 0.05592 0.0
O437 O 0.23932 0.81013 0.08585 0.0
O438 O 0.19658 0.82108 0.08034 0.0
C439 C 0.18344 0.8297 0.08611 0.0
O440 O 0.18517 0.84667 0.08898 0.0
O441 O 0.22147 0.85244 0.10134 0.0
Mg442 Mg 0.92617 0.96565 0.32772 0.0
C443 C 0.95938 0.98371 0.31773 0.0
O444 O 0.95541 0.97511 0.30325 0.0
C445 C 0.89573 0.95435 0.34807 0.0
O446 O 0.89705 0.94293 0.33514 0.0
C447 C 0.91317 0.98691 0.2966 0.0
O448 O 0.92415 0.9982 0.30373 0.0
O449 O 0.91173 0.97162 0.30337 0.0
O450 O 0.94892 0.98297 0.33078 0.0
O451 O 0.93691 0.93919 0.33109 0.0
C452 C 0.94736 0.93843 0.3442 0.0
O453 O 0.95088 0.95306 0.35273 0.0
O454 O 0.90672 0.96699 0.3487 0.0
Mg455 Mg 0.78435 0.67046 0.57532 0.0
C456 C 0.7785 0.70899 0.57138 0.0
O457 O 0.79389 0.70671 0.56384 0.0
C458 C 0.78351 0.63738 0.59749 0.0
O459 O 0.78678 0.63033 0.58203 0.0
C460 C 0.76872 0.66419 0.53904 0.0
O461 O 0.76845 0.68148 0.53924 0.0
O462 O 0.77553 0.65607 0.55202 0.0
O463 O 0.77045 0.69559 0.57747 0.0
O464 O 0.81195 0.678 0.57656 0.0
C465 C 0.82381 0.66787 0.58261 0.0
O466 O 0.82007 0.65121 0.58531 0.0
O467 O 0.78077 0.6539 0.59844 0.0
Mg468 Mg 0.09073 0.45996 0.17965 0.0
C469 C 0.05537 0.471 0.19256 0.0
O470 O 0.06016 0.4598 0.20484 0.0
C471 C 0.12207 0.46173 0.15538 0.0
O472 O 0.13017 0.4586 0.17035 0.0
C473 C 0.10304 0.47842 0.21325 0.0
O474 O 0.08729 0.48546 0.21214 0.0
O475 O 0.10767 0.46694 0.20194 0.0
O476 O 0.0659 0.47429 0.17997 0.0
O477 O 0.08303 0.43256 0.17738 0.0
C478 C 0.09424 0.42058 0.17413 0.0
O479 O 0.11109 0.42432 0.1752 0.0
O480 O 0.10548 0.46417 0.15549 0.0
Mg481 Mg 0.29544 0.83722 0.42953 0.0
C482 C 0.28389 0.8012 0.43808 0.0
O483 O 0.297 0.80394 0.44904 0.0
C484 C 0.29773 0.86991 0.40722 0.0
O485 O 0.3013 0.87666 0.42274 0.0
C486 C 0.27616 0.84884 0.46278 0.0
O487 O 0.26863 0.83342 0.46066 0.0
O488 O 0.2885 0.85334 0.45237 0.0
O489 O 0.27919 0.81367 0.42791 0.0
O490 O 0.32197 0.82655 0.42808 0.0
C491 C 0.33539 0.83564 0.42397 0.0
O492 O 0.33405 0.85287 0.42338 0.0
O493 O 0.29364 0.85369 0.40619 0.0
Mg494 Mg 0.92617 0.03845 0.67418 0.0
C495 C 0.96279 0.02758 0.66383 0.0
O496 O 0.96011 0.04052 0.65266 0.0
C497 C 0.89551 0.03937 0.64865 0.0
O498 O 0.88703 0.0435 0.66315 0.0
C499 C 0.91544 0.02314 0.70973 0.0
O500 O 0.93262 0.022 0.71153 0.0
O501 O 0.90919 0.03029 0.69592 0.0
O502 O 0.95039 0.02314 0.67419 0.0
O503 O 0.93502 0.06567 0.6737 0.0
C504 C 0.92472 0.0781 0.66929 0.0
O505 O 0.90777 0.07489 0.66811 0.0
O506 O 0.91181 0.03552 0.64956 0.0
Mg507 Mg 0.71386 0.66769 0.92783 0.0
C508 C 0.73158 0.70118 0.92797 0.0
O509 O 0.71922 0.70205 0.94004 0.0
C510 C 0.69571 0.63672 0.91355 0.0
O511 O 0.68673 0.64085 0.92774 0.0
C512 C 0.72482 0.64218 0.95648 0.0
O513 O 0.72141 0.63113 0.94364 0.0
O514 O 0.72174 0.6585 0.95412 0.0
O515 O 0.73372 0.68669 0.9198 0.0
O516 O 0.69037 0.68375 0.9238 0.0
C517 C 0.67455 0.68337 0.92924 0.0
O518 O 0.66988 0.67187 0.94127 0.0
O519 O 0.70948 0.64559 0.90997 0.0
Mg520 Mg 0.33195 0.58208 0.53354 0.0
C521 C 0.32423 0.54703 0.51968 0.0
O522 O 0.30988 0.55184 0.52808 0.0
C523 C 0.35198 0.61619 0.53877 0.0
O524 O 0.33605 0.62141 0.54298 0.0
C525 C 0.29795 0.60555 0.52771 0.0
O526 O 0.30014 0.61122 0.5439 0.0
O527 O 0.30843 0.594 0.52152 0.0
O528 O 0.33696 0.55791 0.51881 0.0
O529 O 0.33075 0.57142 0.56017 0.0
C530 C 0.3353 0.57984 0.5739 0.0
O531 O 0.3376 0.59694 0.57294 0.0
O532 O 0.35418 0.60047 0.53336 0.0
Mg533 Mg 0.8224 0.42143 0.96838 0.0
C534 C 0.8244 0.44731 0.99967 0.0
O535 O 0.81896 0.43364 0.00877 0.0
C536 C 0.84363 0.39132 0.95616 0.0
O537 O 0.82975 0.39105 0.94583 0.0
C538 C 0.78625 0.41714 0.98512 0.0
O539 O 0.78652 0.43434 0.98333 0.0
O540 O 0.79911 0.40822 0.97911 0.0
O541 O 0.82743 0.44551 0.98333 0.0
O542 O 0.82114 0.42934 0.94079 0.0
C543 C 0.82994 0.44302 0.93673 0.0
O544 O 0.837 0.45238 0.94943 0.0
O545 O 0.84433 0.40287 0.9683 0.0
Mg546 Mg 0.32985 0.57857 0.22483 0.0
C547 C 0.29401 0.5884 0.2372 0.0
O548 O 0.29673 0.6 0.22466 0.0
C549 C 0.36044 0.6037 0.22419 0.0
O550 O 0.3683 0.58927 0.21879 0.0
C551 C 0.344 0.54404 0.24052 0.0
O552 O 0.32785 0.54278 0.24659 0.0
O553 O 0.34792 0.55687 0.23048 0.0
O554 O 0.3063 0.57766 0.24106 0.0
O555 O 0.3197 0.58071 0.19813 0.0
C556 C 0.32934 0.58509 0.1852 0.0
O557 O 0.3465 0.58565 0.18732 0.0
O558 O 0.34429 0.60298 0.22864 0.0
Mg559 Mg 0.18642 0.09001 0.4656 0.0
C560 C 0.18461 0.05289 0.47789 0.0
O561 O 0.19293 0.05135 0.4628 0.0
C562 C 0.16733 0.12338 0.45659 0.0
O563 O 0.18142 0.125 0.4467 0.0
C564 C 0.22269 0.09211 0.48221 0.0
O565 O 0.21989 0.07507 0.48316 0.0
O566 O 0.21146 0.10164 0.47418 0.0
O567 O 0.18011 0.06817 0.4831 0.0
O568 O 0.18346 0.07846 0.43942 0.0
C569 C 0.1876 0.08456 0.42441 0.0
O570 O 0.19664 0.09926 0.42342 0.0
O571 O 0.16607 0.11014 0.46677 0.0
Mg572 Mg 0.16995 0.42801 0.72259 0.0
C573 C 0.20671 0.41868 0.7348 0.0
O574 O 0.20661 0.41041 0.71961 0.0
C575 C 0.13744 0.40483 0.71888 0.0
O576 O 0.13069 0.41949 0.71264 0.0
C577 C 0.16478 0.46505 0.73527 0.0
O578 O 0.18205 0.46381 0.735 0.0
O579 O 0.15577 0.45215 0.72952 0.0
O580 O 0.19272 0.42635 0.73996 0.0
O581 O 0.18132 0.42598 0.69637 0.0
C582 C 0.17231 0.42227 0.68278 0.0
O583 O 0.15505 0.42276 0.68374 0.0
O584 O 0.15308 0.40497 0.72494 0.0
Mg585 Mg 0.68017 0.41329 0.54475 0.0
C586 C 0.6814 0.43479 0.51109 0.0
O587 O 0.69336 0.42298 0.50698 0.0
C588 C 0.66319 0.3835 0.56245 0.0
O589 O 0.67581 0.38838 0.57324 0.0
C590 C 0.70967 0.38758 0.53526 0.0
O591 O 0.69765 0.37599 0.53972 0.0
O592 O 0.70634 0.40389 0.53722 0.0
O593 O 0.67266 0.4329 0.52523 0.0
O594 O 0.67813 0.42678 0.57006 0.0
C595 C 0.67228 0.44249 0.57066 0.0
O596 O 0.67057 0.45133 0.5559 0.0
O597 O 0.66174 0.39145 0.54776 0.0
Mg598 Mg 0.34192 0.92724 0.28611 0.0
C599 C 0.30581 0.92268 0.27335 0.0
O600 O 0.30432 0.93187 0.28792 0.0
C601 C 0.376 0.91624 0.29931 0.0
O602 O 0.37208 0.93077 0.30787 0.0
C603 C 0.33976 0.96402 0.27024 0.0
O604 O 0.32341 0.95902 0.26767 0.0
O605 O 0.35006 0.95391 0.27878 0.0
O606 O 0.32119 0.91838 0.26817 0.0
O607 O 0.33074 0.92239 0.31214 0.0
C608 C 0.32608 0.9063 0.31297 0.0
O609 O 0.32876 0.89628 0.29912 0.0
O610 O 0.36555 0.91109 0.28726 0.0
Mg611 Mg 0.65666 0.57839 0.79273 0.0
C612 C 0.6905 0.59307 0.77915 0.0
O613 O 0.68836 0.60232 0.79361 0.0
C614 C 0.62398 0.59758 0.80261 0.0
O615 O 0.61989 0.58121 0.8064 0.0
C616 C 0.64622 0.54358 0.77467 0.0
O617 O 0.66284 0.54344 0.76986 0.0
O618 O 0.64077 0.55576 0.7848 0.0
O619 O 0.67831 0.58258 0.77443 0.0
O620 O 0.67034 0.57707 0.8179 0.0
C621 C 0.66277 0.57952 0.83261 0.0
O622 O 0.64549 0.5795 0.83326 0.0
O623 O 0.63877 0.60074 0.79537 0.0
Mg624 Mg 0.5393 0.32107 0.58437 0.0
C625 C 0.50749 0.32518 0.55991 0.0
O626 O 0.49867 0.32175 0.57439 0.0
C627 C 0.54167 0.34207 0.61836 0.0
O628 O 0.54516 0.32641 0.62485 0.0
C629 C 0.52162 0.28549 0.58858 0.0
O630 O 0.52214 0.28647 0.57132 0.0
O631 O 0.52891 0.29762 0.59754 0.0
O632 O 0.52418 0.32604 0.56057 0.0
O633 O 0.56638 0.3208 0.57491 0.0
C634 C 0.57914 0.32525 0.5848 0.0
O635 O 0.57636 0.32681 0.60179 0.0
O636 O 0.53785 0.34349 0.6021 0.0
Mg637 Mg 0.42756 0.28895 0.83907 0.0
C638 C 0.43389 0.27868 0.80217 0.0
O639 O 0.44546 0.29121 0.80505 0.0
C640 C 0.40061 0.27917 0.86799 0.0
O641 O 0.40992 0.26469 0.86974 0.0
C642 C 0.46092 0.26864 0.85147 0.0
O643 O 0.46159 0.26302 0.83513 0.0
O644 O 0.44907 0.27966 0.85586 0.0
O645 O 0.42414 0.27376 0.81489 0.0
O646 O 0.42916 0.31609 0.83022 0.0
C647 C 0.4262 0.32855 0.84096 0.0
O648 O 0.42526 0.32496 0.85786 0.0
O649 O 0.40447 0.29009 0.85592 0.0
Mg650 Mg 0.47136 0.18103 0.09303 0.0
C651 C 0.49231 0.18859 0.06022 0.0
O652 O 0.48997 0.20462 0.06624 0.0
C653 C 0.45768 0.15925 0.1218 0.0
O654 O 0.44726 0.17307 0.12161 0.0
C655 C 0.48232 0.21913 0.10636 0.0
O656 O 0.47357 0.22578 0.09299 0.0
O657 O 0.48258 0.20253 0.10867 0.0
O658 O 0.48665 0.17569 0.06926 0.0
O659 O 0.44404 0.1819 0.08445 0.0
C660 C 0.43906 0.18566 0.06891 0.0
O661 O 0.45017 0.19311 0.05797 0.0
O662 O 0.47042 0.15865 0.11091 0.0
Mg663 Mg 0.57474 0.21528 0.33791 0.0
C664 C 0.5724 0.24571 0.31203 0.0
O665 O 0.5599 0.2505 0.32298 0.0
C666 C 0.59383 0.19762 0.36641 0.0
O667 O 0.58033 0.18736 0.363 0.0
C668 C 0.54829 0.22706 0.36603 0.0
O669 O 0.56097 0.22174 0.37653 0.0
O670 O 0.55009 0.22506 0.34949 0.0
O671 O 0.58164 0.23224 0.3157 0.0
O672 O 0.57413 0.18901 0.32638 0.0
C673 C 0.58706 0.18628 0.31605 0.0
O674 O 0.59758 0.19951 0.31239 0.0
O675 O 0.59512 0.21212 0.35807 0.0
Mg676 Mg 0.54092 0.67205 0.42006 0.0
C677 C 0.52774 0.67554 0.45726 0.0
O678 O 0.54232 0.6848 0.45819 0.0
C679 C 0.55028 0.65099 0.38896 0.0
O680 O 0.55966 0.6654 0.38709 0.0
C681 C 0.52785 0.70944 0.40883 0.0
O682 O 0.52742 0.71318 0.42571 0.0
O683 O 0.53352 0.69449 0.40385 0.0
O684 O 0.52335 0.66882 0.44254 0.0
O685 O 0.56789 0.67083 0.42951 0.0
C686 C 0.57048 0.65806 0.44005 0.0
O687 O 0.55694 0.64841 0.44481 0.0
O688 O 0.54001 0.64977 0.40216 0.0
Mg689 Mg 0.06826 0.28968 0.67089 0.0
C690 C 0.06622 0.2825 0.70931 0.0
O691 O 0.05705 0.29709 0.70767 0.0
C692 C 0.08881 0.29516 0.63823 0.0
O693 O 0.07487 0.30509 0.6356 0.0
C694 C 0.03219 0.27281 0.6678 0.0
O695 O 0.0346 0.27171 0.68488 0.0
O696 O 0.04369 0.28078 0.65857 0.0
O697 O 0.07264 0.27545 0.69552 0.0
O698 O 0.07106 0.31737 0.67805 0.0
C699 C 0.08553 0.31972 0.68623 0.0
O700 O 0.09578 0.30602 0.68887 0.0
O701 O 0.08957 0.28592 0.65219 0.0
Mg702 Mg 0.46378 0.83371 0.91747 0.0
C703 C 0.47657 0.8368 0.95519 0.0
O704 O 0.45996 0.84102 0.95756 0.0
C705 C 0.46024 0.85691 0.88569 0.0
O706 O 0.45669 0.84146 0.87877 0.0
C707 C 0.47689 0.79727 0.90533 0.0
O708 O 0.47635 0.79367 0.92224 0.0
O709 O 0.47129 0.81213 0.89997 0.0
O710 O 0.48205 0.83376 0.93965 0.0
O711 O 0.43724 0.83445 0.92837 0.0
C712 C 0.42365 0.83602 0.91874 0.0
O713 O 0.42524 0.83424 0.90162 0.0
O714 O 0.46481 0.85769 0.90181 0.0
Mg715 Mg 0.93527 0.2221 0.16852 0.0
C716 C 0.94024 0.23037 0.20665 0.0
O717 O 0.95047 0.21654 0.20477 0.0
C718 C 0.91138 0.2158 0.13808 0.0
O719 O 0.92404 0.2044 0.135 0.0
C720 C 0.97208 0.23716 0.16359 0.0
O721 O 0.97145 0.23687 0.18085 0.0
O722 O 0.95915 0.23092 0.15493 0.0
O723 O 0.93201 0.23628 0.19328 0.0
O724 O 0.9332 0.19438 0.17545 0.0
C725 C 0.91982 0.19158 0.18517 0.0
O726 O 0.91004 0.20508 0.18982 0.0
O727 O 0.91279 0.22602 0.15129 0.0
Mg728 Mg 0.59115 0.04097 0.82405 0.0
C729 C 0.55303 0.03046 0.82201 0.0
O730 O 0.55216 0.04691 0.81678 0.0
C731 C 0.62328 0.0468 0.84537 0.0
O732 O 0.6273 0.05449 0.8304 0.0
C733 C 0.60238 0.02343 0.78959 0.0
O734 O 0.58669 0.01629 0.79099 0.0
O735 O 0.60705 0.03499 0.8008 0.0
O736 O 0.56801 0.02389 0.82578 0.0
O737 O 0.58185 0.06785 0.82769 0.0
C738 C 0.57412 0.06942 0.8425 0.0
O739 O 0.57254 0.05536 0.85245 0.0
O740 O 0.60873 0.03854 0.8465 0.0
Mg741 Mg 0.71778 0.33171 0.0783 0.0
C742 C 0.73981 0.30097 0.07129 0.0
O743 O 0.73327 0.30549 0.05592 0.0
C744 C 0.6995 0.36025 0.09618 0.0
O745 O 0.68949 0.35588 0.08276 0.0
C746 C 0.72774 0.36007 0.05121 0.0
O747 O 0.72198 0.37057 0.06368 0.0
O748 O 0.72657 0.34348 0.05336 0.0
O749 O 0.73647 0.31073 0.0845 0.0
O750 O 0.69187 0.31901 0.07887 0.0
C751 C 0.69029 0.30416 0.08652 0.0
O752 O 0.70458 0.29548 0.09093 0.0
O753 O 0.7142 0.35234 0.09806 0.0
Mg754 Mg 0.42129 0.46572 0.33095 0.0
C755 C 0.45666 0.47755 0.32059 0.0
O756 O 0.45361 0.46417 0.31006 0.0
C757 C 0.38981 0.46287 0.35443 0.0
O758 O 0.3839 0.45509 0.34015 0.0
C759 C 0.40785 0.48361 0.29773 0.0
O760 O 0.42282 0.49206 0.29956 0.0
O761 O 0.40436 0.47099 0.30821 0.0
O762 O 0.44451 0.48246 0.33103 0.0
O763 O 0.43304 0.43979 0.3344 0.0
C764 C 0.42538 0.42506 0.33633 0.0
O765 O 0.40829 0.42393 0.33386 0.0
O766 O 0.40523 0.46944 0.35427 0.0
Mg767 Mg 0.29014 0.17371 0.57848 0.0
C768 C 0.25779 0.19727 0.57515 0.0
O769 O 0.25303 0.18487 0.56407 0.0
C770 C 0.30326 0.14349 0.59918 0.0
O771 O 0.31624 0.14692 0.58826 0.0
C772 C 0.28187 0.14656 0.54966 0.0
O773 O 0.28727 0.1356 0.56189 0.0
O774 O 0.28283 0.16305 0.55256 0.0
O775 O 0.27201 0.19542 0.58377 0.0
O776 O 0.31669 0.18464 0.58171 0.0
C777 C 0.3181 0.19883 0.59056 0.0
O778 O 0.30369 0.20722 0.59511 0.0
O779 O 0.28928 0.15273 0.59815 0.0
Mg780 Mg 0.58267 0.96414 0.18048 0.0
C781 C 0.54802 0.97443 0.19513 0.0
O782 O 0.55308 0.96189 0.20593 0.0
C783 C 0.61141 0.96055 0.15488 0.0
O784 O 0.6163 0.95024 0.16789 0.0
C785 C 0.59668 0.98089 0.21392 0.0
O786 O 0.58139 0.98892 0.21292 0.0
O787 O 0.6004 0.9691 0.2026 0.0
O788 O 0.55836 0.97917 0.18284 0.0
O789 O 0.57418 0.9372 0.176 0.0
C790 C 0.56162 0.93652 0.16491 0.0
O791 O 0.55511 0.95137 0.15888 0.0
O792 O 0.59734 0.96951 0.15659 0.0
Mg793 Mg 0.79202 0.33921 0.43518 0.0
C794 C 0.75888 0.31607 0.43304 0.0
O795 O 0.75116 0.32981 0.44018 0.0
C796 C 0.80418 0.37025 0.41512 0.0
O797 O 0.81625 0.36863 0.42742 0.0
C798 C 0.77836 0.33947 0.47249 0.0
O799 O 0.78021 0.32245 0.47004 0.0
O800 O 0.78352 0.34992 0.46046 0.0
O801 O 0.77511 0.31695 0.42909 0.0
O802 O 0.81877 0.32892 0.43343 0.0
C803 C 0.82084 0.31812 0.42077 0.0
O804 O 0.80701 0.3137 0.41136 0.0
O805 O 0.79119 0.35967 0.41518 0.0
Mg806 Mg 0.42133 0.53722 0.67473 0.0
C807 C 0.45503 0.52412 0.65825 0.0
O808 O 0.45332 0.53907 0.64971 0.0
C809 C 0.38666 0.54775 0.65945 0.0
O810 O 0.38481 0.55248 0.67598 0.0
C811 C 0.42033 0.52054 0.71066 0.0
O812 O 0.43728 0.51994 0.70723 0.0
O813 O 0.41022 0.5283 0.69977 0.0
O814 O 0.44261 0.51909 0.66831 0.0
O815 O 0.43507 0.56239 0.67423 0.0
C816 C 0.42775 0.57743 0.67382 0.0
O817 O 0.41079 0.57866 0.67692 0.0
O818 O 0.40058 0.53957 0.6549 0.0
Mg819 Mg 0.22562 0.18115 0.92973 0.0
C820 C 0.23552 0.21813 0.93715 0.0
O821 O 0.2246 0.21445 0.95004 0.0
C822 C 0.21783 0.15124 0.90598 0.0
O823 O 0.20614 0.14915 0.91854 0.0
C824 C 0.22897 0.15525 0.9611 0.0
O825 O 0.21335 0.14988 0.95598 0.0
O826 O 0.2362 0.16807 0.95311 0.0
O827 O 0.23924 0.2061 0.92612 0.0
O828 O 0.19755 0.18717 0.92896 0.0
C829 C 0.19354 0.19845 0.9172 0.0
O830 O 0.20631 0.20593 0.90826 0.0
O831 O 0.22884 0.16381 0.90724 0.0
Mg832 Mg 0.82811 0.08664 0.53221 0.0
C833 C 0.8258 0.04861 0.52399 0.0
O834 O 0.81608 0.05034 0.53819 0.0
C835 C 0.84754 0.11846 0.54188 0.0
O836 O 0.83369 0.11842 0.55225 0.0
C837 C 0.79035 0.0911 0.51792 0.0
O838 O 0.79043 0.07382 0.5185 0.0
O839 O 0.80371 0.09948 0.52358 0.0
O840 O 0.83279 0.06235 0.51737 0.0
O841 O 0.83025 0.07845 0.55965 0.0
C842 C 0.84493 0.0707 0.56216 0.0
O843 O 0.85561 0.06883 0.54868 0.0
O844 O 0.849 0.10625 0.53048 0.0
Mg845 Mg 0.32742 0.92595 0.97203 0.0
C846 C 0.32455 0.96421 0.98011 0.0
O847 O 0.314 0.96229 0.96653 0.0
C848 C 0.34808 0.89514 0.96106 0.0
O849 O 0.33382 0.89452 0.95126 0.0
C850 C 0.29272 0.92155 0.99167 0.0
O851 O 0.29487 0.93863 0.99319 0.0
O852 O 0.30386 0.91282 0.98265 0.0
O853 O 0.33229 0.95063 0.98625 0.0
O854 O 0.3274 0.93342 0.94423 0.0
C855 C 0.34043 0.94329 0.94043 0.0
O856 O 0.35122 0.94797 0.95312 0.0
O857 O 0.34927 0.90725 0.97261 0.0
Mg858 Mg 0.83966 0.07887 0.21763 0.0
C859 C 0.80258 0.07173 0.22984 0.0
O860 O 0.80144 0.06636 0.21344 0.0
C861 C 0.86853 0.10436 0.21217 0.0
O862 O 0.87309 0.09125 0.20184 0.0
C863 C 0.85378 0.04376 0.23187 0.0
O864 O 0.83723 0.04149 0.23637 0.0
O865 O 0.85796 0.05725 0.22283 0.0
O866 O 0.81726 0.07749 0.23552 0.0
O867 O 0.82965 0.08314 0.191 0.0
C868 C 0.81901 0.09612 0.19039 0.0
O869 O 0.81493 0.10411 0.20518 0.0
O870 O 0.85479 0.10274 0.22163 0.0
Mg871 Mg 0.68036 0.57341 0.47204 0.0
C872 C 0.68295 0.53461 0.47864 0.0
O873 O 0.69296 0.53631 0.46464 0.0
C874 C 0.65563 0.60281 0.46434 0.0
O875 O 0.6668 0.60403 0.45119 0.0
C876 C 0.70817 0.60161 0.48033 0.0
O877 O 0.69816 0.61121 0.47 0.0
O878 O 0.70434 0.58545 0.48262 0.0
O879 O 0.67594 0.54831 0.48527 0.0
O880 O 0.6792 0.56789 0.44392 0.0
C881 C 0.66591 0.55847 0.43993 0.0
O882 O 0.65566 0.55285 0.45267 0.0
O883 O 0.65814 0.59103 0.476 0.0
Mg884 Mg 0.67408 0.92751 0.71254 0.0
C885 C 0.71126 0.93481 0.72131 0.0
O886 O 0.70927 0.94197 0.70569 0.0
C887 C 0.64384 0.90296 0.72508 0.0
O888 O 0.64019 0.91526 0.73668 0.0
C889 C 0.66188 0.96224 0.72871 0.0
O890 O 0.67787 0.96187 0.73531 0.0
O891 O 0.65732 0.95031 0.71786 0.0
O892 O 0.69795 0.92778 0.7287 0.0
O893 O 0.68366 0.92306 0.68583 0.0
C894 C 0.69325 0.90928 0.68562 0.0
O895 O 0.69591 0.90091 0.70054 0.0
O896 O 0.65733 0.9045 0.71529 0.0
Mg897 Mg 0.17919 0.92196 0.53727 0.0
C898 C 0.17388 0.95881 0.52377 0.0
O899 O 0.16608 0.96008 0.53915 0.0
C900 C 0.15351 0.89176 0.53993 0.0
O901 O 0.16775 0.88385 0.54579 0.0
C902 C 0.21404 0.90837 0.5227 0.0
O903 O 0.2155 0.92491 0.51784 0.0
O904 O 0.20081 0.90377 0.53189 0.0
O905 O 0.18023 0.94403 0.51908 0.0
O906 O 0.17764 0.9335 0.56344 0.0
C907 C 0.17367 0.92446 0.57693 0.0
O908 O 0.17334 0.90722 0.57566 0.0
O909 O 0.15461 0.90758 0.53454 0.0
Mg910 Mg 0.83553 0.42764 0.29403 0.0
C911 C 0.80478 0.43917 0.27238 0.0
O912 O 0.81123 0.45435 0.27758 0.0
C913 C 0.8661 0.40604 0.30384 0.0
O914 O 0.86774 0.42015 0.31371 0.0
C915 C 0.85228 0.45292 0.26944 0.0
O916 O 0.84422 0.44188 0.25883 0.0
O917 O 0.85093 0.45061 0.28599 0.0
O918 O 0.81257 0.42504 0.27688 0.0
O919 O 0.82609 0.42702 0.32115 0.0
C920 C 0.8107 0.42093 0.32384 0.0
O921 O 0.80055 0.41769 0.31022 0.0
O922 O 0.85332 0.40526 0.29302 0.0
Mg923 Mg 0.16958 0.08468 0.79124 0.0
C924 C 0.20565 0.07322 0.78342 0.0
O925 O 0.20038 0.06287 0.79624 0.0
C926 C 0.14261 0.11277 0.77859 0.0
O927 O 0.14012 0.10248 0.76491 0.0
C928 C 0.15686 0.05022 0.77387 0.0
O929 O 0.1736 0.04843 0.76989 0.0
O930 O 0.15203 0.06333 0.78314 0.0
O931 O 0.19472 0.08429 0.77714 0.0
O932 O 0.17722 0.0855 0.81883 0.0
C933 C 0.18882 0.09734 0.82139 0.0
O934 O 0.19478 0.10609 0.80771 0.0
O935 O 0.15439 0.10891 0.78984 0.0
Mg936 Mg 0.54035 0.82437 0.08416 0.0
C937 C 0.52598 0.82308 0.04727 0.0
O938 O 0.54125 0.81524 0.04503 0.0
C939 C 0.55128 0.84516 0.11482 0.0
O940 O 0.56156 0.83125 0.11549 0.0
C941 C 0.52196 0.79097 0.09708 0.0
O942 O 0.513 0.79293 0.08241 0.0
O943 O 0.5347 0.80135 0.10028 0.0
O944 O 0.52162 0.82805 0.06267 0.0
O945 O 0.56683 0.82622 0.07348 0.0
C946 C 0.56927 0.84014 0.06446 0.0
O947 O 0.55584 0.85075 0.06185 0.0
O948 O 0.53985 0.84613 0.10259 0.0
Mg949 Mg 0.44022 0.79855 0.33902 0.0
C950 C 0.45052 0.77618 0.30899 0.0
O951 O 0.4656 0.78279 0.3143 0.0
C952 C 0.42245 0.80822 0.37227 0.0
O953 O 0.43883 0.813 0.37511 0.0
C954 C 0.46586 0.77429 0.35515 0.0
O955 O 0.45444 0.76379 0.34752 0.0
O956 O 0.46375 0.79087 0.35379 0.0
O957 O 0.43656 0.77994 0.31746 0.0
O958 O 0.43993 0.82348 0.32488 0.0
C959 C 0.43731 0.83838 0.33203 0.0
O960 O 0.43801 0.83968 0.34925 0.0
O961 O 0.41868 0.80039 0.35793 0.0
Mg962 Mg 0.46585 0.67896 0.58652 0.0
C963 C 0.48111 0.66844 0.55137 0.0
O964 O 0.46516 0.66195 0.54978 0.0
C965 C 0.45568 0.66266 0.61995 0.0
O966 O 0.44883 0.67853 0.62063 0.0
C967 C 0.48373 0.71366 0.59582 0.0
O968 O 0.49199 0.71031 0.581 0.0
O969 O 0.47119 0.70358 0.60054 0.0
O970 O 0.48562 0.67537 0.56595 0.0
O971 O 0.44053 0.67562 0.57337 0.0
C972 C 0.42528 0.67971 0.5789 0.0
O973 O 0.4237 0.68901 0.59339 0.0
O974 O 0.46518 0.65861 0.60674 0.0
Mg975 Mg 0.57725 0.72704 0.83899 0.0
C976 C 0.57663 0.74091 0.80294 0.0
O977 O 0.5635 0.72967 0.80349 0.0
C978 C 0.5922 0.71996 0.87527 0.0
O979 O 0.57538 0.71749 0.87834 0.0
C980 C 0.54095 0.72875 0.85799 0.0
O981 O 0.54321 0.71176 0.86036 0.0
O982 O 0.55238 0.73742 0.84935 0.0
O983 O 0.58542 0.74359 0.81697 0.0
O984 O 0.57685 0.70122 0.8266 0.0
C985 C 0.57916 0.6868 0.83475 0.0
O986 O 0.57903 0.68673 0.85204 0.0
O987 O 0.59695 0.72507 0.86002 0.0
Mg988 Mg 0.54231 0.17792 0.92809 0.0
C989 C 0.53203 0.19226 0.96273 0.0
O990 O 0.54303 0.20412 0.9566 0.0
C991 C 0.5433 0.15304 0.89778 0.0
O992 O 0.54856 0.16773 0.89033 0.0
C993 C 0.52119 0.20886 0.91364 0.0
O994 O 0.51283 0.20656 0.9286 0.0
O995 O 0.53463 0.19938 0.91033 0.0
O996 O 0.52824 0.1791 0.95308 0.0
O997 O 0.56984 0.17623 0.93591 0.0
C998 C 0.58283 0.17656 0.92539 0.0
O999 O 0.58012 0.18054 0.90878 0.0
O1000 O 0.53849 0.15341 0.91383 0.0
Mg1001 Mg 0.07912 0.78378 0.16795 0.0
C1002 C 0.07564 0.7744 0.20561 0.0
O1003 O 0.06409 0.78709 0.2033 0.0
C1004 C 0.09784 0.79853 0.1384 0.0
O1005 O 0.08249 0.8065 0.13912 0.0
C1006 C 0.04474 0.76364 0.16036 0.0
O1007 O 0.04594 0.76 0.17722 0.0
O1008 O 0.05618 0.77375 0.15344 0.0
O1009 O 0.08422 0.76891 0.19226 0.0
O1010 O 0.07823 0.81116 0.17664 0.0
C1011 C 0.09142 0.81474 0.18637 0.0
O1012 O 0.10233 0.80197 0.19054 0.0
O1013 O 0.10081 0.78601 0.14917 0.0
Mg1014 Mg 0.46429 0.32375 0.42269 0.0
C1015 C 0.47326 0.32503 0.46055 0.0
O1016 O 0.4583 0.31638 0.46013 0.0
C1017 C 0.45852 0.33941 0.38717 0.0
O1018 O 0.45487 0.32274 0.38435 0.0
C1019 C 0.48303 0.28846 0.42107 0.0
O1020 O 0.4842 0.29171 0.43801 0.0
O1021 O 0.47432 0.29907 0.41144 0.0
O1022 O 0.47997 0.3302 0.44606 0.0
O1023 O 0.43737 0.32459 0.43293 0.0
C1024 C 0.424 0.32924 0.424 0.0
O1025 O 0.42534 0.33045 0.40682 0.0
O1026 O 0.46439 0.34392 0.40222 0.0
Mg1027 Mg 0.92873 0.70531 0.66784 0.0
C1028 C 0.93939 0.72146 0.70087 0.0
O1029 O 0.9526 0.71128 0.69622 0.0
C1030 C 0.90913 0.69067 0.63918 0.0
O1031 O 0.92352 0.68121 0.64095 0.0
C1032 C 0.95828 0.72822 0.65463 0.0
O1033 O 0.95118 0.73854 0.66655 0.0
O1034 O 0.95209 0.71278 0.65255 0.0
O1035 O 0.92611 0.72252 0.69071 0.0
O1036 O 0.92742 0.67869 0.67856 0.0
C1037 C 0.91597 0.67698 0.6907 0.0
O1038 O 0.90826 0.69121 0.69682 0.0
O1039 O 0.90711 0.70406 0.64909 0.0
Mg1040 Mg 0.58527 0.53454 0.32464 0.0
C1041 C 0.54921 0.52475 0.33781 0.0
O1042 O 0.55281 0.53782 0.34855 0.0
C1043 C 0.61458 0.54065 0.35058 0.0
O1044 O 0.61696 0.55404 0.33991 0.0
C1045 C 0.61419 0.52583 0.2977 0.0
O1046 O 0.62452 0.53152 0.31033 0.0
O1047 O 0.59757 0.52665 0.29979 0.0
O1048 O 0.56087 0.5198 0.32685 0.0
O1049 O 0.57658 0.56155 0.32806 0.0
C1050 C 0.58388 0.57597 0.32381 0.0
O1051 O 0.59829 0.57575 0.31426 0.0
O1052 O 0.60245 0.52961 0.34713 0.0
Mg1053 Mg 0.72142 0.83751 0.5695 0.0
C1054 C 0.75252 0.81104 0.56983 0.0
O1055 O 0.76218 0.82474 0.56558 0.0
C1056 C 0.71389 0.86871 0.59114 0.0
O1057 O 0.70561 0.87203 0.57631 0.0
C1058 C 0.73861 0.84599 0.53364 0.0
O1059 O 0.73956 0.82877 0.53233 0.0
O1060 O 0.7308 0.85272 0.54686 0.0
O1061 O 0.73613 0.81307 0.57243 0.0
O1062 O 0.69389 0.82948 0.57081 0.0
C1063 C 0.69141 0.8191 0.58376 0.0
O1064 O 0.70514 0.81419 0.59309 0.0
O1065 O 0.72309 0.85473 0.59224 0.0
Mg1066 Mg 0.41832 0.9788 0.82768 0.0
C1067 C 0.45661 0.98849 0.8258 0.0
O1068 O 0.45708 0.97204 0.82053 0.0
C1069 C 0.38865 0.97088 0.85207 0.0
O1070 O 0.38814 0.95739 0.84126 0.0
C1071 C 0.38995 0.98599 0.79932 0.0
O1072 O 0.37909 0.98085 0.81175 0.0
O1073 O 0.40649 0.9852 0.8021 0.0
O1074 O 0.44182 0.99529 0.82991 0.0
O1075 O 0.4276 0.95218 0.83336 0.0
C1076 C 0.43428 0.95197 0.84877 0.0
O1077 O 0.43463 0.96678 0.8577 0.0
O1078 O 0.39972 0.98314 0.84912 0.0
Mg1079 Mg 0.29216 0.66902 0.07909 0.0
C1080 C 0.28137 0.70588 0.07444 0.0
O1081 O 0.29492 0.70394 0.06387 0.0
C1082 C 0.30587 0.63951 0.09855 0.0
O1083 O 0.31508 0.64059 0.08395 0.0
C1084 C 0.27554 0.65979 0.04324 0.0
O1085 O 0.27041 0.67631 0.04354 0.0
O1086 O 0.28517 0.654 0.05567 0.0
O1087 O 0.27578 0.69244 0.08279 0.0
O1088 O 0.31894 0.67898 0.0801 0.0
C1089 C 0.32112 0.68831 0.09385 0.0
O1090 O 0.30751 0.69107 0.10417 0.0
O1091 O 0.29312 0.6502 0.10072 0.0
Mg1092 Mg 0.58225 0.46427 0.67526 0.0
C1093 C 0.54557 0.47502 0.68056 0.0
O1094 O 0.54783 0.4616 0.69125 0.0
C1095 C 0.61436 0.45493 0.65696 0.0
O1096 O 0.61358 0.44455 0.67078 0.0
C1097 C 0.59086 0.48236 0.71011 0.0
O1098 O 0.57595 0.49045 0.70668 0.0
O1099 O 0.59589 0.47 0.69997 0.0
O1100 O 0.55875 0.48051 0.67178 0.0
O1101 O 0.57242 0.43769 0.67078 0.0
C1102 C 0.5645 0.43733 0.65599 0.0
O1103 O 0.56354 0.45201 0.64689 0.0
O1104 O 0.6023 0.46641 0.65493 0.0
Mg1105 Mg 0.79072 0.83218 0.92435 0.0
C1106 C 0.77678 0.79562 0.91763 0.0
O1107 O 0.79157 0.79475 0.90869 0.0
C1108 C 0.79417 0.86243 0.89882 0.0
O1109 O 0.79918 0.87039 0.91334 0.0
C1110 C 0.77479 0.84636 0.95838 0.0
O1111 O 0.7691 0.83007 0.95949 0.0
O1112 O 0.78493 0.85056 0.94572 0.0
O1113 O 0.77261 0.81004 0.92508 0.0
O1114 O 0.81681 0.82041 0.92337 0.0
C1115 C 0.83019 0.82934 0.91884 0.0
O1116 O 0.82882 0.84655 0.91796 0.0
O1117 O 0.78887 0.84655 0.89967 0.0
Mg1118 Mg 0.42065 0.03951 0.1812 0.0
C1119 C 0.45222 0.01754 0.19001 0.0
O1120 O 0.44659 0.02158 0.20586 0.0
C1121 C 0.39095 0.04928 0.15711 0.0
O1122 O 0.39119 0.06297 0.16767 0.0
C1123 C 0.39237 0.0297 0.20816 0.0
O1124 O 0.38187 0.03454 0.1953 0.0
O1125 O 0.40892 0.03151 0.20625 0.0
O1126 O 0.4433 0.02254 0.17675 0.0
O1127 O 0.43024 0.06656 0.17884 0.0
C1128 C 0.44618 0.06902 0.17422 0.0
O1129 O 0.45685 0.05544 0.17351 0.0
O1130 O 0.40171 0.03672 0.15989 0.0
Mg1131 Mg 0.22146 0.67505 0.4327 0.0
C1132 C 0.23314 0.71061 0.42038 0.0
O1133 O 0.21992 0.70765 0.4096 0.0
C1134 C 0.21999 0.64278 0.4095 0.0
O1135 O 0.21506 0.63567 0.42448 0.0
C1136 C 0.23428 0.66658 0.47004 0.0
O1137 O 0.23263 0.68371 0.47181 0.0
O1138 O 0.22953 0.65946 0.45563 0.0
O1139 O 0.23755 0.69865 0.43126 0.0
O1140 O 0.19461 0.6853 0.43072 0.0
C1141 C 0.18213 0.67602 0.42453 0.0
O1142 O 0.18456 0.65902 0.42258 0.0
O1143 O 0.2245 0.65892 0.40926 0.0
Mg1144 Mg 0.82539 0.58716 0.03541 0.0
C1145 C 0.82399 0.54868 0.02825 0.0
O1146 O 0.81579 0.5502 0.0434 0.0
C1147 C 0.84546 0.61941 0.04359 0.0
O1148 O 0.83156 0.62059 0.05382 0.0
C1149 C 0.78822 0.58949 0.02105 0.0
O1150 O 0.79033 0.57233 0.02141 0.0
O1151 O 0.80042 0.59918 0.02721 0.0
O1152 O 0.82965 0.56259 0.02075 0.0
O1153 O 0.82847 0.57916 0.06278 0.0
C1154 C 0.8436 0.57215 0.06469 0.0
O1155 O 0.85403 0.5713 0.05091 0.0
O1156 O 0.8464 0.60657 0.03284 0.0
Mg1157 Mg 0.32147 0.41498 0.46754 0.0
C1158 C 0.31241 0.44948 0.48215 0.0
O1159 O 0.29945 0.44574 0.47131 0.0
C1160 C 0.34042 0.3861 0.45246 0.0
O1161 O 0.32531 0.38745 0.44412 0.0
C1162 C 0.28845 0.40264 0.48771 0.0
O1163 O 0.29038 0.41772 0.49592 0.0
O1164 O 0.29877 0.39882 0.47506 0.0
O1165 O 0.32461 0.43818 0.48436 0.0
O1166 O 0.32156 0.42583 0.44102 0.0
C1167 C 0.33451 0.43627 0.43896 0.0
O1168 O 0.34437 0.43993 0.4527 0.0
O1169 O 0.34337 0.39652 0.46528 0.0
Mg1170 Mg 0.81868 0.57805 0.72074 0.0
C1171 C 0.78138 0.57354 0.72958 0.0
O1172 O 0.78419 0.56241 0.71663 0.0
C1173 C 0.85098 0.59885 0.71385 0.0
O1174 O 0.85055 0.5879 0.70045 0.0
C1175 C 0.84413 0.54825 0.73097 0.0
O1176 O 0.85602 0.56011 0.72689 0.0
O1177 O 0.82792 0.55177 0.7284 0.0
O1178 O 0.7943 0.58259 0.73524 0.0
O1179 O 0.81071 0.58357 0.69368 0.0
C1180 C 0.80428 0.59908 0.69323 0.0
O1181 O 0.80363 0.60805 0.70801 0.0
O1182 O 0.83907 0.59765 0.7256 0.0
Mg1183 Mg 0.6832 0.08601 0.96715 0.0
C1184 C 0.68455 0.04765 0.97443 0.0
O1185 O 0.69062 0.04873 0.95828 0.0
C1186 C 0.66258 0.11768 0.95947 0.0
O1187 O 0.67541 0.11789 0.94786 0.0
C1188 C 0.72041 0.08817 0.98115 0.0
O1189 O 0.71796 0.07105 0.98142 0.0
O1190 O 0.70853 0.09787 0.97435 0.0
O1191 O 0.68017 0.06174 0.98242 0.0
O1192 O 0.67771 0.07779 0.94012 0.0
C1193 C 0.66238 0.07094 0.93977 0.0
O1194 O 0.65336 0.07035 0.95452 0.0
O1195 O 0.66255 0.10557 0.97107 0.0
Mg1196 Mg 0.67297 0.4288 0.21695 0.0
C1197 C 0.7103 0.42996 0.22731 0.0
O1198 O 0.70955 0.43964 0.21299 0.0
C1199 C 0.63674 0.41334 0.21406 0.0
O1200 O 0.6335 0.42996 0.21052 0.0
C1201 C 0.67112 0.46514 0.23395 0.0
O1202 O 0.6881 0.46225 0.23548 0.0
O1203 O 0.66174 0.45395 0.22574 0.0
O1204 O 0.69618 0.42286 0.23293 0.0
O1205 O 0.68308 0.42684 0.19012 0.0
C1206 C 0.67362 0.42135 0.17745 0.0
O1207 O 0.65655 0.41985 0.1798 0.0
O1208 O 0.65233 0.40889 0.21841 0.0
Mg1209 Mg 0.17863 0.42776 0.03042 0.0
C1210 C 0.17675 0.46631 0.02011 0.0
O1211 O 0.17806 0.46812 0.03725 0.0
C1212 C 0.15734 0.39507 0.03449 0.0
O1213 O 0.16905 0.39318 0.04709 0.0
C1214 C 0.21674 0.42602 0.01979 0.0
O1215 O 0.21403 0.44311 0.01937 0.0
O1216 O 0.20446 0.41611 0.02541 0.0
O1217 O 0.1763 0.45089 0.01354 0.0
O1218 O 0.17207 0.43587 0.05716 0.0
C1219 C 0.15605 0.44078 0.05811 0.0
O1220 O 0.14651 0.4405 0.04367 0.0
O1221 O 0.15851 0.40835 0.02433 0.0
Mg1222 Mg 0.83954 0.93127 0.78227 0.0
C1223 C 0.80019 0.93405 0.7777 0.0
O1224 O 0.80185 0.93921 0.79411 0.0
C1225 C 0.86811 0.90485 0.78743 0.0
O1226 O 0.87035 0.91535 0.80098 0.0
C1227 C 0.86839 0.9597 0.779 0.0
O1228 O 0.87571 0.9508 0.79189 0.0
O1229 O 0.85326 0.95506 0.77347 0.0
O1230 O 0.81396 0.93001 0.76898 0.0
O1231 O 0.83379 0.92783 0.81017 0.0
C1232 C 0.82614 0.9131 0.8126 0.0
O1233 O 0.8232 0.90303 0.79883 0.0
O1234 O 0.85597 0.90841 0.77641 0.0
Mg1235 Mg 0.16717 0.57245 0.29778 0.0
C1236 C 0.2037 0.56602 0.28661 0.0
O1237 O 0.20132 0.55483 0.29959 0.0
C1238 C 0.13372 0.59051 0.30421 0.0
O1239 O 0.13218 0.5754 0.31249 0.0
C1240 C 0.15858 0.53821 0.27857 0.0
O1241 O 0.17386 0.54139 0.27114 0.0
O1242 O 0.15328 0.54825 0.2909 0.0
O1243 O 0.19081 0.57562 0.28183 0.0
O1244 O 0.17653 0.57532 0.32471 0.0
C1245 C 0.18599 0.58908 0.32623 0.0
O1246 O 0.18882 0.59869 0.31212 0.0
O1247 O 0.14775 0.59342 0.2955 0.0
H1248 H 0.99845 0.3004 0.0292 0.0
H1249 H 0.01932 0.35317 0.02743 0.0
H1250 H 0.00621 0.35754 0.99828 0.0
H1251 H 0.98937 0.34588 0.9728 0.0
H1252 H 0.96792 0.29334 0.97571 0.0
H1253 H 0.98079 0.28937 0.00477 0.0
C1254 C 1.00008 0.3129 0.02249 0.0
C1255 C 0.0099 0.3264 0.03045 0.0
C1256 C 0.99249 0.31533 0.00583 0.0
C1257 C 0.01175 0.34257 0.02162 0.0
C1258 C 0.00434 0.34504 0.0049 0.0
C1259 C 0.98758 0.33358 0.97982 0.0
C1260 C 0.97777 0.3199 0.97204 0.0
C1261 C 0.99481 0.33144 0.99678 0.0
C1262 C 0.97537 0.3041 0.98137 0.0
C1263 C 0.98273 0.30179 0.99802 0.0
H1264 H 0.96321 0.22881 0.23379 0.0
H1265 H 0.91288 0.25046 0.21874 0.0
H1266 H 0.90936 0.26315 0.24818 0.0
H1267 H 0.92083 0.26829 0.27821 0.0
H1268 H 0.97224 0.24856 0.29215 0.0
H1269 H 0.97507 0.23475 0.2632 0.0
C1270 C 0.95146 0.23629 0.23696 0.0
C1271 C 0.93829 0.23864 0.22416 0.0
C1272 C 0.9497 0.2438 0.25375 0.0
C1273 C 0.92323 0.24854 0.22837 0.0
C1274 C 0.92118 0.25572 0.24521 0.0
C1275 C 0.93255 0.26081 0.2749 0.0
C1276 C 0.94624 0.25924 0.28728 0.0
C1277 C 0.93433 0.25342 0.25802 0.0
C1278 C 0.96154 0.24987 0.2828 0.0
C1279 C 0.96316 0.24201 0.26627 0.0
H1280 H 0.00724 0.212 0.53548 0.0
H1281 H 0.99215 0.15725 0.53506 0.0
H1282 H 0.00551 0.15364 0.50597 0.0
H1283 H 0.0205 0.16646 0.48005 0.0
H1284 H 0.03622 0.22103 0.48129 0.0
H1285 H 0.02346 0.22431 0.51056 0.0
C1286 C 0.00698 0.19923 0.5291 0.0
C1287 C 0.99865 0.18495 0.53741 0.0
C1288 C 0.01464 0.19726 0.51241 0.0
C1289 C 0.99856 0.16846 0.529 0.0
C1290 C 0.00609 0.16641 0.5123 0.0
C1291 C 0.02106 0.17906 0.48674 0.0
C1292 C 0.02915 0.19352 0.47845 0.0
C1293 C 0.01395 0.18079 0.50376 0.0
C1294 C 0.03005 0.2097 0.48736 0.0
C1295 C 0.02276 0.21159 0.50411 0.0
H1296 H 0.08336 0.2407 0.77933 0.0
H1297 H 0.05503 0.28464 0.80171 0.0
H1298 H 0.05143 0.29744 0.77249 0.0
H1299 H 0.05553 0.29584 0.74062 0.0
H1300 H 0.08353 0.25192 0.71787 0.0
H1301 H 0.08802 0.23942 0.74723 0.0
C1302 C 0.07651 0.25314 0.77784 0.0
C1303 C 0.06946 0.26168 0.79273 0.0
C1304 C 0.07432 0.26038 0.76093 0.0
C1305 C 0.06057 0.27776 0.79051 0.0
C1306 C 0.05847 0.28509 0.77379 0.0
C1307 C 0.06262 0.28352 0.74203 0.0
C1308 C 0.06911 0.2748 0.72702 0.0
C1309 C 0.06514 0.27644 0.7589 0.0
C1310 C 0.07835 0.25889 0.72917 0.0
C1311 C 0.08093 0.25175 0.74597 0.0
H1312 H 0.97441 0.70221 0.02208 0.0
H1313 H 0.00475 0.65664 0.03733 0.0
H1314 H 0.01556 0.65365 0.00703 0.0
H1315 H 0.01648 0.66433 0.97613 0.0
H1316 H 0.98561 0.70991 0.96173 0.0
H1317 H 0.9748 0.71236 0.99175 0.0
C1318 C 0.98344 0.69162 0.01888 0.0
C1319 C 0.98882 0.67973 0.03203 0.0
C1320 C 0.98941 0.6899 1.0015 0.0
C1321 C 1.00046 0.66604 0.0275 0.0
C1322 C 0.00659 0.6643 0.01016 0.0
C1323 C 0.00726 0.67468 0.97954 0.0
C1324 C 1.00188 0.68691 0.96661 0.0
C1325 C 1.00113 0.67615 0.99701 0.0
C1326 C 0.99 0.70031 0.97133 0.0
C1327 C 0.98383 0.70178 0.98855 0.0
H1328 H 0.56487 0.28881 0.24168 0.0
H1329 H 0.59653 0.24611 0.22157 0.0
H1330 H 0.59845 0.2335 0.25125 0.0
H1331 H 0.59 0.23409 0.28275 0.0
H1332 H 0.55794 0.27691 0.30209 0.0
H1333 H 0.55751 0.29007 0.27284 0.0
C1334 C 0.57222 0.27673 0.2437 0.0
C1335 C 0.58042 0.26835 0.22934 0.0
C1336 C 0.57326 0.26961 0.26071 0.0
C1337 C 0.59002 0.2528 0.23235 0.0
C1338 C 0.59113 0.2456 0.24933 0.0
C1339 C 0.58311 0.24642 0.28061 0.0
C1340 C 0.57398 0.25448 0.29464 0.0
C1341 C 0.58268 0.25384 0.2636 0.0
C1342 C 0.56503 0.27039 0.29157 0.0
C1343 C 0.56473 0.27791 0.27482 0.0
H1344 H 0.04387 0.81303 0.5148 0.0
H1345 H 0.99469 0.83034 0.53744 0.0
H1346 H 0.98199 0.83323 0.50796 0.0
H1347 H 0.98478 0.83044 0.47576 0.0
H1348 H 0.03423 0.81345 0.45338 0.0
H1349 H 0.0469 0.81099 0.48278 0.0
C1350 C 0.03034 0.81739 0.51333 0.0
C1351 C 0.02022 0.82135 0.52834 0.0
C1352 C 0.02319 0.81917 0.49637 0.0
C1353 C 1.00277 0.82715 0.52613 0.0
C1354 C 0.99551 0.82883 0.50927 0.0
C1355 C 0.99836 0.82629 0.47729 0.0
C1356 C 0.00851 0.82211 0.46232 0.0
C1357 C 0.00559 0.82484 0.49429 0.0
C1358 C 0.02609 0.81677 0.46461 0.0
C1359 C 0.03336 0.8153 0.48144 0.0
H1360 H 0.43553 0.25633 0.72208 0.0
H1361 H 0.39151 0.2245 0.73866 0.0
H1362 H 0.39406 0.23621 0.76852 0.0
H1363 H 0.40943 0.25491 0.79026 0.0
H1364 H 0.45379 0.28618 0.77338 0.0
H1365 H 0.45051 0.27518 0.74349 0.0
C1366 C 0.42636 0.25207 0.73216 0.0
C1367 C 0.41333 0.23956 0.72807 0.0
C1368 C 0.42807 0.25863 0.74938 0.0
C1369 C 0.40167 0.23412 0.7414 0.0
C1370 C 0.40315 0.24077 0.75852 0.0
C1371 C 0.4184 0.25927 0.78005 0.0
C1372 C 0.43187 0.27133 0.78416 0.0
C1373 C 0.41644 0.25289 0.76273 0.0
C1374 C 0.44331 0.27689 0.77069 0.0
C1375 C 0.44144 0.27064 0.75352 0.0
H1376 H 0.98414 0.98344 0.34365 0.0
H1377 H 0.9717 0.00608 0.29311 0.0
H1378 H 0.99998 0.02144 0.29274 0.0
H1379 H 0.02857 0.02748 0.30612 0.0
H1380 H 0.04271 1.00293 0.35532 0.0
H1381 H 0.01354 0.9891 0.35689 0.0
C1382 C 0.98761 0.99194 0.33272 0.0
C1383 C 0.97586 0.99389 0.31852 0.0
C1384 C 0.00423 1.00018 0.33228 0.0
C1385 C 0.98056 0.00453 0.30419 0.0
C1386 C 0.99672 0.01325 0.30396 0.0
C1387 C 0.02527 0.01918 0.31725 0.0
C1388 C 0.03774 0.01631 0.33064 0.0
C1389 C 0.00872 0.01102 0.31783 0.0
C1390 C 0.03334 0.0053 0.34483 0.0
C1391 C 0.01665 0.99745 0.34575 0.0
H1392 H 0.20911 0.26382 0.56572 0.0
H1393 H 0.25112 0.28849 0.59496 0.0
H1394 H 0.26612 0.26002 0.59759 0.0
H1395 H 0.26769 0.22826 0.59064 0.0
H1396 H 0.22555 0.20417 0.56102 0.0
H1397 H 0.21015 0.2323 0.55966 0.0
C1398 C 0.22155 0.26304 0.57269 0.0
C1399 C 0.22902 0.27834 0.58003 0.0
C1400 C 0.23005 0.2467 0.57414 0.0
C1401 C 0.2451 0.27696 0.58912 0.0
C1402 C 0.25367 0.26068 0.59065 0.0
C1403 C 0.25504 0.22912 0.58405 0.0
C1404 C 0.24782 0.21407 0.57591 0.0
C1405 C 0.24631 0.24546 0.58311 0.0
C1406 C 0.23146 0.21549 0.56735 0.0
C1407 C 0.22265 0.2316 0.56653 0.0
H1408 H 0.98305 0.46729 0.81019 0.0
H1409 H 0.96202 0.51092 0.83991 0.0
H1410 H 0.99154 0.52372 0.84212 0.0
H1411 H 0.0232 0.52282 0.83487 0.0
H1412 H 0.04377 0.47903 0.80497 0.0
H1413 H 0.0145 0.46595 0.8037 0.0
C1414 C 0.98486 0.47961 0.81717 0.0
C1415 C 0.9703 0.48817 0.82479 0.0
C1416 C 1.00181 0.48684 0.81839 0.0
C1417 C 0.97298 0.50407 0.83388 0.0
C1418 C 0.98986 0.51139 0.83515 0.0
C1419 C 0.02131 0.51035 0.82819 0.0
C1420 C 0.0357 0.50195 0.82 0.0
C1421 C 0.00436 0.50292 0.82738 0.0
C1422 C 0.03297 0.48582 0.81137 0.0
C1423 C 0.01622 0.47832 0.8106 0.0
H1424 H 0.77097 0.22581 0.09023 0.0
H1425 H 0.77234 0.2227 0.03349 0.0
H1426 H 0.76092 0.25253 0.03128 0.0
H1427 H 0.75033 0.27936 0.04514 0.0
H1428 H 0.74883 0.28345 0.10176 0.0
H1429 H 0.76077 0.25355 0.10433 0.0
C1430 C 0.76865 0.23166 0.07742 0.0
C1431 C 0.77243 0.22197 0.06205 0.0
C1432 C 0.76223 0.24906 0.07619 0.0
C1433 C 0.76956 0.22981 0.04553 0.0
C1434 C 0.76305 0.24691 0.04423 0.0
C1435 C 0.75268 0.2738 0.05808 0.0
C1436 C 0.74865 0.28365 0.07322 0.0
C1437 C 0.75936 0.25665 0.05944 0.0
C1438 C 0.75189 0.2762 0.08987 0.0
C1439 C 0.75861 0.25905 0.09134 0.0
H1440 H 0.04185 1.00112 0.66129 0.0
H1441 H 0.02474 0.97387 0.70814 0.0
H1442 H 0.99532 0.98615 0.70484 0.0
H1443 H 0.97429 0.00459 0.6888 0.0
H1444 H 0.99112 0.03221 0.64211 0.0
H1445 H 0.02064 0.01975 0.64516 0.0
C1446 C 0.03171 0.99794 0.67081 0.0
C1447 C 0.03557 0.98659 0.68494 0.0
C1448 C 0.01467 0.00503 0.66883 0.0
C1449 C 0.0222 0.98256 0.69712 0.0
C1450 C 0.00531 0.98956 0.69525 0.0
C1451 C 0.98437 0.00782 0.67922 0.0
C1452 C 0.98044 0.01929 0.66523 0.0
C1453 C 1.00137 1.00075 0.68114 0.0
C1454 C 0.99374 0.0234 0.65301 0.0
C1455 C 0.01066 0.01631 0.65476 0.0
H1456 H 0.25488 0.23163 0.90993 0.0
H1457 H 0.2319 0.24541 0.96007 0.0
H1458 H 0.24295 0.27535 0.95717 0.0
H1459 H 0.25953 0.29752 0.94085 0.0
H1460 H 0.28285 0.28413 0.89079 0.0
H1461 H 0.2711 0.25426 0.89315 0.0
C1462 C 0.25233 0.24118 0.92024 0.0
C1463 C 0.24263 0.23621 0.93524 0.0
C1464 C 0.25869 0.2585 0.91848 0.0
C1465 C 0.23935 0.2488 0.9484 0.0
C1466 C 0.24564 0.26598 0.94676 0.0
C1467 C 0.26196 0.28814 0.93036 0.0
C1468 C 0.27208 0.29311 0.91566 0.0
C1469 C 0.25535 0.27096 0.93189 0.0
C1470 C 0.27508 0.28071 0.90224 0.0
C1471 C 0.26842 0.26358 0.90361 0.0
H1472 H 0.03361 0.47986 0.16555 0.0
H1473 H 0.03817 0.48111 0.22211 0.0
H1474 H 0.00918 0.49495 0.22439 0.0
H1475 H 0.98254 0.50664 0.21033 0.0
H1476 H 0.97678 0.5034 0.15393 0.0
H1477 H 0.0061 0.49021 0.15153 0.0
C1478 C 0.02824 0.48328 0.17833 0.0
C1479 C 0.03801 0.47967 0.19364 0.0
C1480 C 0.01132 0.49072 0.17957 0.0
C1481 C 0.03085 0.48381 0.21016 0.0
C1482 C 0.0143 0.49171 0.21147 0.0
C1483 C 0.98769 0.50301 0.19752 0.0
C1484 C 0.97756 0.50606 0.18233 0.0
C1485 C 0.0044 0.49518 0.19627 0.0
C1486 C 0.98431 0.50111 0.16583 0.0
C1487 C 1.00111 0.49365 0.16444 0.0
H1488 H 0.71117 0.24832 0.43772 0.0
H1489 H 0.75832 0.22422 0.417 0.0
H1490 H 0.77246 0.25307 0.41533 0.0
H1491 H 0.77188 0.28489 0.42099 0.0
H1492 H 0.72478 0.30886 0.44203 0.0
H1493 H 0.71014 0.28026 0.44217 0.0
C1494 C 0.72453 0.24934 0.43279 0.0
C1495 C 0.73371 0.23408 0.42761 0.0
C1496 C 0.73259 0.26595 0.4319 0.0
C1497 C 0.75096 0.23572 0.42113 0.0
C1498 C 0.75906 0.25222 0.42017 0.0
C1499 C 0.75836 0.28392 0.42548 0.0
C1500 C 0.74948 0.29904 0.43157 0.0
C1501 C 0.75006 0.2674 0.42569 0.0
C1502 C 0.73195 0.29748 0.43729 0.0
C1503 C 0.72357 0.2811 0.43743 0.0
H1504 H 0.31379 0.99533 0.96641 0.0
H1505 H 0.34208 0.97323 0.01047 0.0
H1506 H 0.34633 1.00279 0.02266 0.0
H1507 H 0.34134 0.0349 0.02107 0.0
H1508 H 0.31314 0.05655 0.97665 0.0
H1509 H 0.30964 0.02715 0.96433 0.0
C1510 C 0.32089 0.99692 0.97871 0.0
C1511 C 0.3275 0.98203 0.98757 0.0
C1512 C 0.32334 0.0139 0.98556 0.0
C1513 C 0.33681 0.98443 0.00339 0.0
C1514 C 0.33924 1.00134 0.01036 0.0
C1515 C 0.33452 0.03321 0.00864 0.0
C1516 C 0.32748 0.04799 0.99984 0.0
C1517 C 0.33248 0.01618 1.0016 0.0
C1518 C 0.31869 0.04549 0.98374 0.0
C1519 C 0.31664 0.02865 0.97668 0.0
H1520 H 0.81327 0.01762 0.53637 0.0
H1521 H 0.84513 0.03949 0.49473 0.0
H1522 H 0.84967 0.00994 0.4826 0.0
H1523 H 0.84376 0.97794 0.48337 0.0
H1524 H 0.81124 0.95668 0.52485 0.0
H1525 H 0.808 0.98596 0.53759 0.0
C1526 C 0.82123 0.016 0.52463 0.0
C1527 C 0.82877 0.03082 0.51643 0.0
C1528 C 0.82375 0.99904 0.51774 0.0
C1529 C 0.8391 0.02835 0.50128 0.0
C1530 C 0.84174 0.01144 0.49435 0.0
C1531 C 0.83614 0.97968 0.49532 0.0
C1532 C 0.82776 0.96508 0.50315 0.0
C1533 C 0.83405 0.99669 0.50243 0.0
C1534 C 0.81781 0.96764 0.51853 0.0
C1535 C 0.8159 0.98441 0.52581 0.0
H1536 H 0.28638 0.06017 0.7688 0.0
H1537 H 0.27926 0.10547 0.73525 0.0
H1538 H 0.24828 0.10726 0.74395 0.0
H1539 H 0.22289 0.09535 0.76058 0.0
H1540 H 0.23052 0.04958 0.79346 0.0
H1541 H 0.26147 0.04855 0.78538 0.0
C1542 C 0.27814 0.07057 0.7635 0.0
C1543 C 0.28521 0.0827 0.75144 0.0
C1544 C 0.2603 0.07133 0.76829 0.0
C1545 C 0.27421 0.09598 0.74462 0.0
C1546 C 0.25646 0.09697 0.74952 0.0
C1547 C 0.23131 0.08512 0.7659 0.0
C1548 C 0.22429 0.07254 0.77758 0.0
C1549 C 0.24928 0.08458 0.76121 0.0
C1550 C 0.23547 0.05944 0.78443 0.0
C1551 C 0.25325 0.05884 0.77986 0.0
H1552 H 0.17154 0.50044 0.02962 0.0
H1553 H 0.18304 0.46752 0.98475 0.0
H1554 H 0.18592 0.49358 0.96616 0.0
H1555 H 0.18626 0.52568 0.96288 0.0
H1556 H 0.17386 0.55875 0.00735 0.0
H1557 H 0.1702 0.53264 0.0259 0.0
C1558 C 0.17461 0.49896 0.01576 0.0
C1559 C 0.17719 0.48205 0.00861 0.0
C1560 C 0.17615 0.51402 0.00511 0.0
C1561 C 0.18097 0.48036 0.99059 0.0
C1562 C 0.18268 0.49527 0.97996 0.0
C1563 C 0.18276 0.52719 0.97664 0.0
C1564 C 0.18051 0.54413 0.98379 0.0
C1565 C 0.1805 0.51215 0.98712 0.0
C1566 C 0.17569 0.54585 1.00155 0.0
C1567 C 0.17363 0.53093 0.01216 0.0
H1568 H 0.27221 0.92989 0.28239 0.0
H1569 H 0.30318 0.90476 0.24191 0.0
H1570 H 0.27622 0.89802 0.22543 0.0
H1571 H 0.24383 0.9005 0.22206 0.0
H1572 H 0.21365 0.92657 0.26258 0.0
H1573 H 0.24038 0.93157 0.27957 0.0
C1574 C 0.27315 0.92289 0.26998 0.0
C1575 C 0.28973 0.91793 0.26335 0.0
C1576 C 0.25771 0.91921 0.26059 0.0
C1577 C 0.29059 0.90879 0.24729 0.0
C1578 C 0.27518 0.90493 0.23787 0.0
C1579 C 0.24311 0.90708 0.23471 0.0
C1580 C 0.22675 0.91318 0.24103 0.0
C1581 C 0.25865 0.91022 0.24434 0.0
C1582 C 0.22605 0.92182 0.25737 0.0
C1583 C 0.24134 0.92471 0.2671 0.0
H1584 H 0.68308 0.96795 0.99752 0.0
H1585 H 0.69059 0.99152 0.04865 0.0
H1586 H 0.6891 0.02086 0.03561 0.0
H1587 H 0.6864 0.03995 0.00947 0.0
H1588 H 0.68046 0.01616 0.95825 0.0
H1589 H 0.68043 0.98691 0.97151 0.0
C1590 C 0.68435 0.9795 0.00581 0.0
C1591 C 0.68697 0.97752 0.02402 0.0
C1592 C 0.68371 0.99635 0.99821 0.0
C1593 C 0.68867 0.99265 0.03457 0.0
C1594 C 0.68776 0.00946 0.02714 0.0
C1595 C 0.68492 0.02835 1.00128 0.0
C1596 C 0.68339 0.0302 0.98294 0.0
C1597 C 0.68535 0.01149 0.00895 0.0
C1598 C 0.68172 0.01506 0.97242 0.0
C1599 C 0.68171 0.99832 0.97998 0.0
H1600 H 0.2719 0.43962 0.78177 0.0
H1601 H 0.29933 0.40898 0.74255 0.0
H1602 H 0.27131 0.40231 0.72806 0.0
H1603 H 0.23914 0.40591 0.72613 0.0
H1604 H 0.21195 0.43653 0.76558 0.0
H1605 H 0.23982 0.44231 0.78049 0.0
C1606 C 0.2718 0.4315 0.77003 0.0
C1607 C 0.28773 0.42494 0.76317 0.0
C1608 C 0.25568 0.42765 0.76186 0.0
C1609 C 0.28728 0.41427 0.74806 0.0
C1610 C 0.27126 0.41044 0.73979 0.0
C1611 C 0.23927 0.41374 0.73806 0.0
C1612 C 0.22343 0.42082 0.74468 0.0
C1613 C 0.25539 0.41713 0.74652 0.0
C1614 C 0.2239 0.43091 0.76018 0.0
C1615 C 0.23985 0.43428 0.76869 0.0
H1616 H 0.74302 0.07246 0.28786 0.0
H1617 H 0.71008 0.0693 0.24165 0.0
H1618 H 0.73622 0.06886 0.22288 0.0
H1619 H 0.76841 0.06945 0.2196 0.0
H1620 H 0.8013 0.07396 0.26572 0.0
H1621 H 0.77518 0.07379 0.28454 0.0
C1622 C 0.74155 0.07163 0.27368 0.0
C1623 C 0.72462 0.07083 0.26617 0.0
C1624 C 0.75663 0.07163 0.26296 0.0
C1625 C 0.72295 0.06995 0.24777 0.0
C1626 C 0.7379 0.06967 0.23703 0.0
C1627 C 0.76987 0.07032 0.23378 0.0
C1628 C 0.78679 0.07162 0.24126 0.0
C1629 C 0.75479 0.0705 0.24448 0.0
C1630 C 0.78844 0.07297 0.25963 0.0
C1631 C 0.77351 0.07285 0.2704 0.0
H1632 H 0.95831 0.75903 0.77208 0.0
H1633 H 0.90201 0.75661 0.77919 0.0
H1634 H 0.89883 0.74295 0.75009 0.0
H1635 H 0.91236 0.73141 0.72259 0.0
H1636 H 0.96888 0.73311 0.71686 0.0
H1637 H 0.97163 0.74754 0.74535 0.0
C1638 C 0.94531 0.75554 0.76731 0.0
C1639 C 0.93042 0.75886 0.7778 0.0
C1640 C 0.94362 0.74765 0.75073 0.0
C1641 C 0.9137 0.75413 0.77141 0.0
C1642 C 0.91188 0.74639 0.75474 0.0
C1643 C 0.92522 0.73513 0.72756 0.0
C1644 C 0.9404 0.73128 0.71762 0.0
C1645 C 0.92677 0.7431 0.74425 0.0
C1646 C 0.95702 0.7359 0.72428 0.0
C1647 C 0.95861 0.74414 0.74058 0.0
H1648 H 0.09512 0.73703 0.27777 0.0
H1649 H 0.06122 0.77822 0.29747 0.0
H1650 H 0.05777 0.78988 0.26777 0.0
H1651 H 0.06288 0.78753 0.23617 0.0
H1652 H 0.09633 0.74637 0.21578 0.0
H1653 H 0.10139 0.73552 0.24578 0.0
C1654 C 0.08721 0.74873 0.2756 0.0
C1655 C 0.07843 0.75673 0.28989 0.0
C1656 C 0.08499 0.75522 0.25834 0.0
C1657 C 0.0681 0.77177 0.28677 0.0
C1658 C 0.06606 0.77842 0.26976 0.0
C1659 C 0.07129 0.77616 0.23821 0.0
C1660 C 0.07907 0.76767 0.22367 0.0
C1661 C 0.07415 0.77006 0.25543 0.0
C1662 C 0.09008 0.7531 0.22669 0.0
C1663 C 0.093 0.74691 0.24386 0.0
H1664 H 0.60594 0.78128 0.73607 0.0
H1665 H 0.56322 0.75288 0.71155 0.0
H1666 H 0.55567 0.73957 0.73975 0.0
H1667 H 0.56081 0.73622 0.7713 0.0
H1668 H 0.60325 0.76453 0.79631 0.0
H1669 H 0.61122 0.77772 0.76798 0.0
C1670 C 0.59505 0.7721 0.73687 0.0
C1671 C 0.58519 0.76809 0.72165 0.0
C1672 C 0.59064 0.76456 0.75323 0.0
C1673 C 0.57105 0.75623 0.723 0.0
C1674 C 0.56668 0.74862 0.73915 0.0
C1675 C 0.5718 0.7453 0.77063 0.0
C1676 C 0.58139 0.74939 0.78597 0.0
C1677 C 0.57631 0.75276 0.75434 0.0
C1678 C 0.59561 0.76117 0.78475 0.0
C1679 C 0.60019 0.76869 0.76853 0.0
H1680 H 0.46365 0.7302 0.24133 0.0
H1681 H 0.41406 0.7535 0.22622 0.0
H1682 H 0.41214 0.76834 0.25474 0.0
H1683 H 0.42497 0.77522 0.28386 0.0
H1684 H 0.47551 0.7534 0.29783 0.0
H1685 H 0.47654 0.73726 0.27002 0.0
C1686 C 0.45241 0.73851 0.24427 0.0
C1687 C 0.43903 0.74074 0.23166 0.0
C1688 C 0.45151 0.74717 0.26057 0.0
C1689 C 0.4246 0.75165 0.23565 0.0
C1690 C 0.42345 0.76007 0.25199 0.0
C1691 C 0.43606 0.76673 0.28086 0.0
C1692 C 0.45007 0.76534 0.29288 0.0
C1693 C 0.43684 0.75795 0.26456 0.0
C1694 C 0.46456 0.75461 0.28875 0.0
C1695 C 0.46518 0.74543 0.27285 0.0
H1696 H 0.29448 0.73681 0.06269 0.0
H1697 H 0.25156 0.71509 0.09288 0.0
H1698 H 0.23958 0.74474 0.09733 0.0
H1699 H 0.24088 0.77679 0.0917 0.0
H1700 H 0.284 0.79793 0.06128 0.0
H1701 H 0.29643 0.76852 0.05809 0.0
C1702 C 0.28247 0.73849 0.07023 0.0
C1703 C 0.27385 0.72369 0.0773 0.0
C1704 C 0.27576 0.75551 0.07279 0.0
C1705 C 0.25842 0.72622 0.08721 0.0
C1706 C 0.25159 0.74318 0.08978 0.0
C1707 C 0.25311 0.77499 0.08456 0.0
C1708 C 0.26146 0.7896 0.0767 0.0
C1709 C 0.26011 0.75793 0.08255 0.0
C1710 C 0.27726 0.78697 0.06742 0.0
C1711 C 0.28436 0.77013 0.06553 0.0
H1712 H 0.79493 0.73979 0.56408 0.0
H1713 H 0.74529 0.71865 0.58189 0.0
H1714 H 0.73305 0.74844 0.58348 0.0
H1715 H 0.73631 0.78039 0.57913 0.0
H1716 H 0.78616 0.8013 0.56152 0.0
H1717 H 0.79848 0.77163 0.56066 0.0
C1718 C 0.78141 0.74165 0.56831 0.0
C1719 C 0.771 0.72697 0.57275 0.0
C1720 C 0.77452 0.75878 0.56926 0.0
C1721 C 0.75358 0.72969 0.57837 0.0
C1722 C 0.74658 0.74673 0.57927 0.0
C1723 C 0.7499 0.77849 0.57517 0.0
C1724 C 0.76027 0.7931 0.57033 0.0
C1725 C 0.75691 0.76136 0.57466 0.0
C1726 C 0.77787 0.79035 0.56531 0.0
C1727 C 0.78492 0.77336 0.56477 0.0
H1728 H 0.25745 0.72261 0.44385 0.0
H1729 H 0.22773 0.73824 0.39798 0.0
H1730 H 0.24043 0.76771 0.39954 0.0
H1731 H 0.25981 0.78924 0.41413 0.0
H1732 H 0.2894 0.77341 0.46004 0.0
H1733 H 0.27683 0.74398 0.4583 0.0
C1734 C 0.25382 0.73241 0.43412 0.0
C1735 C 0.24167 0.72816 0.42081 0.0
C1736 C 0.26106 0.7494 0.43517 0.0
C1737 C 0.23706 0.74111 0.40838 0.0
C1738 C 0.24429 0.75801 0.40928 0.0
C1739 C 0.26344 0.77938 0.4238 0.0
C1740 C 0.27552 0.78359 0.4372 0.0
C1741 C 0.25623 0.76235 0.42268 0.0
C1742 C 0.28014 0.77058 0.44956 0.0
C1743 C 0.27298 0.75369 0.44858 0.0
H1744 H 0.72542 0.73428 0.93942 0.0
H1745 H 0.76082 0.70409 0.90679 0.0
H1746 H 0.77765 0.73083 0.90024 0.0
H1747 H 0.78253 0.7627 0.90435 0.0
H1748 H 0.74663 0.79249 0.9369 0.0
H1749 H 0.72968 0.76591 0.94279 0.0
C1750 C 0.73684 0.73347 0.93089 0.0
C1751 C 0.74193 0.71716 0.92371 0.0
C1752 C 0.74632 0.74884 0.92712 0.0
C1753 C 0.75665 0.71646 0.91253 0.0
C1754 C 0.76626 0.73175 0.90878 0.0
C1755 C 0.77095 0.76341 0.91266 0.0
C1756 C 0.76591 0.77961 0.92021 0.0
C1757 C 0.76124 0.74801 0.91606 0.0
C1758 C 0.75083 0.78025 0.93091 0.0
C1759 C 0.74114 0.76503 0.93434 0.0
H1760 H 0.29764 0.52384 0.51531 0.0
H1761 H 0.35361 0.52957 0.5075 0.0
H1762 H 0.35529 0.49926 0.49648 0.0
H1763 H 0.34051 0.4711 0.48858 0.0
H1764 H 0.28427 0.46675 0.49509 0.0
H1765 H 0.28307 0.4964 0.50738 0.0
C1766 C 0.31024 0.5185 0.51122 0.0
C1767 C 0.32547 0.52899 0.51225 0.0
C1768 C 0.31106 0.5012 0.5048 0.0
C1769 C 0.34165 0.52183 0.50677 0.0
C1770 C 0.34263 0.50446 0.50054 0.0
C1771 C 0.32808 0.47662 0.49295 0.0
C1772 C 0.3125 0.46674 0.49112 0.0
C1773 C 0.3274 0.49399 0.49951 0.0
C1774 C 0.29641 0.47412 0.49644 0.0
C1775 C 0.29571 0.49108 0.50341 0.0
H1776 H 0.83367 0.47852 0.98425 0.0
H1777 H 0.81667 0.45605 0.03363 0.0
H1778 H 0.81554 0.48532 0.04674 0.0
H1779 H 0.81812 0.51725 0.04397 0.0
H1780 H 0.83514 0.54017 0.99487 0.0
H1781 H 0.83757 0.51072 0.98189 0.0
C1782 C 0.82984 0.48 0.99792 0.0
C1783 C 0.82518 0.46504 0.0079 0.0
C1784 C 0.82913 0.49695 0.00541 0.0
C1785 C 0.8203 0.46726 0.02561 0.0
C1786 C 0.8196 0.48403 0.03313 0.0
C1787 C 0.82239 0.51587 0.03041 0.0
C1788 C 0.8263 0.53094 0.02036 0.0
C1789 C 0.82377 0.49896 0.02309 0.0
C1790 C 0.83201 0.52881 1.00289 0.0
C1791 C 0.83337 0.51197 0.99547 0.0
H1792 H 0.28269 0.56372 0.26066 0.0
H1793 H 0.26565 0.60997 0.23233 0.0
H1794 H 0.23617 0.607 0.24473 0.0
H1795 H 0.21501 0.59109 0.26343 0.0
H1796 H 0.23222 0.5449 0.29175 0.0
H1797 H 0.26169 0.548 0.27948 0.0
C1798 C 0.27257 0.57322 0.25727 0.0
C1799 C 0.27643 0.58704 0.24558 0.0
C1800 C 0.25557 0.57139 0.26436 0.0
C1801 C 0.26309 0.59918 0.2413 0.0
C1802 C 0.24618 0.59748 0.24835 0.0
C1803 C 0.22519 0.58166 0.26684 0.0
C1804 C 0.22135 0.56777 0.27847 0.0
C1805 C 0.24222 0.58358 0.25982 0.0
C1806 C 0.23476 0.55574 0.28284 0.0
C1807 C 0.25166 0.5575 0.27585 0.0
H1808 H 0.16449 0.99254 0.53149 0.0
H1809 H 0.18876 0.96076 0.49107 0.0
H1810 H 0.19394 0.98704 0.47333 0.0
H1811 H 0.19224 0.019 0.46958 0.0
H1812 H 0.16831 0.05097 0.51003 0.0
H1813 H 0.16236 0.02459 0.52749 0.0
C1814 C 0.17084 0.99132 0.51876 0.0
C1815 C 0.17624 0.97467 0.51264 0.0
C1816 C 0.17391 0.00652 0.50867 0.0
C1817 C 0.18447 0.97339 0.49612 0.0
C1818 C 0.18747 0.98842 0.48597 0.0
C1819 C 0.1857 0.02024 0.48221 0.0
C1820 C 0.18077 0.03697 0.4885 0.0
C1821 C 0.18236 0.00505 0.49218 0.0
C1822 C 0.17227 0.03828 0.50488 0.0
C1823 C 0.16886 0.02319 0.51487 0.0
H1824 H 0.69421 0.50311 0.46598 0.0
H1825 H 0.66417 0.5263 0.50829 0.0
H1826 H 0.65953 0.49715 0.52112 0.0
H1827 H 0.66541 0.46533 0.52119 0.0
H1828 H 0.69621 0.44239 0.47928 0.0
H1829 H 0.69884 0.47119 0.46527 0.0
C1830 C 0.6866 0.50182 0.47799 0.0
C1831 C 0.67969 0.51692 0.48623 0.0
C1832 C 0.68404 0.48505 0.48532 0.0
C1833 C 0.66974 0.51494 0.50171 0.0
C1834 C 0.66705 0.49826 0.50905 0.0
C1835 C 0.67249 0.46656 0.50886 0.0
C1836 C 0.68066 0.45169 0.50134 0.0
C1837 C 0.6743 0.48325 0.50107 0.0
C1838 C 0.68983 0.45359 0.48539 0.0
C1839 C 0.69141 0.47008 0.4774 0.0
H1840 H 0.70159 0.57116 0.75299 0.0
H1841 H 0.7186 0.61464 0.78536 0.0
H1842 H 0.74817 0.6126 0.77292 0.0
H1843 H 0.76965 0.59765 0.75369 0.0
H1844 H 0.75244 0.554 0.72162 0.0
H1845 H 0.72268 0.55692 0.73315 0.0
C1846 C 0.7117 0.58033 0.75719 0.0
C1847 C 0.70783 0.59301 0.77012 0.0
C1848 C 0.72877 0.57895 0.75016 0.0
C1849 C 0.72116 0.60472 0.77544 0.0
C1850 C 0.73813 0.60353 0.76838 0.0
C1851 C 0.75939 0.58877 0.74925 0.0
C1852 C 0.76337 0.57556 0.73688 0.0
C1853 C 0.74217 0.59053 0.75591 0.0
C1854 C 0.74984 0.56426 0.73117 0.0
C1855 C 0.73275 0.56592 0.73773 0.0
H1856 H 0.52165 0.33315 0.52781 0.0
H1857 H 0.47258 0.3199 0.55332 0.0
H1858 H 0.4577 0.31957 0.52489 0.0
H1859 H 0.45883 0.32145 0.49283 0.0
H1860 H 0.50758 0.33474 0.46687 0.0
H1861 H 0.52235 0.33678 0.4955 0.0
C1862 C 0.50767 0.3303 0.52717 0.0
C1863 C 0.49829 0.32642 0.54272 0.0
C1864 C 0.49916 0.33008 0.51071 0.0
C1865 C 0.48016 0.32289 0.54162 0.0
C1866 C 0.47163 0.32265 0.52534 0.0
C1867 C 0.47269 0.32486 0.49339 0.0
C1868 C 0.48214 0.32777 0.47771 0.0
C1869 C 0.48104 0.32597 0.50981 0.0
C1870 C 0.50001 0.33241 0.47873 0.0
C1871 C 0.50847 0.33352 0.49509 0.0
H1872 H 0.51737 0.16686 0.98367 0.0
H1873 H 0.53072 0.22207 0.98236 0.0
H1874 H 0.52006 0.22562 0.01239 0.0
H1875 H 0.50704 0.21324 0.03904 0.0
H1876 H 0.49415 0.15796 0.04111 0.0
H1877 H 0.50471 0.15423 0.0109 0.0
C1878 C 0.51783 0.17967 0.98994 0.0
C1879 C 0.52477 0.19419 0.98073 0.0
C1880 C 0.51191 0.1816 0.00741 0.0
C1881 C 0.52547 0.21067 0.98912 0.0
C1882 C 0.51939 0.21273 0.00632 0.0
C1883 C 0.50658 0.20034 0.03295 0.0
C1884 C 0.49979 0.18592 0.04236 0.0
C1885 C 0.51265 0.19829 0.01561 0.0
C1886 C 0.49937 0.16929 0.03422 0.0
C1887 C 0.50534 0.16716 0.0169 0.0
H1888 H 0.53596 0.68445 0.49097 0.0
H1889 H 0.49568 0.6593 0.45973 0.0
H1890 H 0.47821 0.65407 0.48622 0.0
H1891 H 0.47403 0.6573 0.51808 0.0
H1892 H 0.51422 0.68258 0.54933 0.0
H1893 H 0.53216 0.6869 0.52299 0.0
C1894 C 0.52335 0.67784 0.48992 0.0
C1895 C 0.5171 0.67238 0.47333 0.0
C1896 C 0.5134 0.67481 0.50522 0.0
C1897 C 0.50079 0.6637 0.47229 0.0
C1898 C 0.4908 0.66068 0.48744 0.0
C1899 C 0.48677 0.66363 0.51919 0.0
C1900 C 0.49273 0.66963 0.5357 0.0
C1901 C 0.49694 0.66624 0.50396 0.0
C1902 C 0.50929 0.67781 0.53683 0.0
C1903 C 0.51954 0.68035 0.52174 0.0
H1904 H 0.46878 0.84211 0.98979 0.0
H1905 H 0.51084 0.82563 0.95526 0.0
H1906 H 0.52968 0.81987 0.98068 0.0
H1907 H 0.53405 0.81894 0.01266 0.0
H1908 H 0.49217 0.83565 0.04726 0.0
H1909 H 0.47341 0.84182 0.02183 0.0
C1910 C 0.4821 0.83733 0.98779 0.0
C1911 C 0.48835 0.83429 0.9706 0.0
C1912 C 0.49286 0.83398 1.00248 0.0
C1913 C 0.50566 0.82812 0.96831 0.0
C1914 C 0.51644 0.82477 0.98285 0.0
C1915 C 0.5208 0.82389 0.01468 0.0
C1916 C 0.51451 0.82673 0.03188 0.0
C1917 C 0.51014 0.82753 1.0 0.0
C1918 C 0.49735 0.8333 0.03419 0.0
C1919 C 0.48662 0.83685 0.01964 0.0
H1920 H 0.49016 0.97612 0.82539 0.0
H1921 H 0.46008 0.02431 0.82745 0.0
H1922 H 0.48731 0.04146 0.82657 0.0
H1923 H 0.51957 0.04276 0.82431 0.0
H1924 H 0.54974 0.9946 0.82333 0.0
H1925 H 0.52252 0.97742 0.82473 0.0
C1926 C 0.48955 0.99038 0.82568 0.0
C1927 C 0.47309 0.99893 0.82634 0.0
C1928 C 0.50526 1.00015 0.82532 0.0
C1929 C 0.47256 0.0174 0.82694 0.0
C1930 C 0.48813 0.02722 0.82638 0.0
C1931 C 0.5202 0.0285 0.8244 0.0
C1932 C 0.53666 0.01997 0.82355 0.0
C1933 C 0.50453 0.01873 0.82541 0.0
C1934 C 0.53725 1.00149 0.82395 0.0
C1935 C 0.52169 0.99166 0.82471 0.0
H1936 H 0.53594 0.50149 0.31402 0.0
H1937 H 0.52202 0.53098 0.36055 0.0
H1938 H 0.492 0.51953 0.35906 0.0
H1939 H 0.46961 0.50114 0.34447 0.0
H1940 H 0.48378 0.4718 0.2979 0.0
H1941 H 0.51366 0.48334 0.29942 0.0
C1942 C 0.52639 0.50535 0.32391 0.0
C1943 C 0.53128 0.51704 0.33741 0.0
C1944 C 0.5091 0.49885 0.32289 0.0
C1945 C 0.51865 0.52198 0.35002 0.0
C1946 C 0.50144 0.51547 0.34916 0.0
C1947 C 0.4792 0.49737 0.33459 0.0
C1948 C 0.47441 0.48563 0.32109 0.0
C1949 C 0.49649 0.50396 0.3356 0.0
C1950 C 0.48706 0.48081 0.30845 0.0
C1951 C 0.5042 0.48737 0.30932 0.0
H1952 H 0.52804 0.9898 0.16962 0.0
H1953 H 0.52807 0.97602 0.22472 0.0
H1954 H 0.49829 0.98775 0.2279 0.0
H1955 H 0.47229 1.00194 0.21511 0.0
H1956 H 0.47158 0.01474 0.15976 0.0
H1957 H 0.50145 1.00317 0.15654 0.0
C1958 C 0.52155 0.9895 0.18233 0.0
C1959 C 0.53028 0.98221 0.19695 0.0
C1960 C 0.50425 0.99592 0.18399 0.0
C1961 C 0.52162 0.9816 0.21328 0.0
C1962 C 0.50459 0.98828 0.21511 0.0
C1963 C 0.47863 1.00213 0.20231 0.0
C1964 C 0.46971 0.00922 0.18771 0.0
C1965 C 0.49577 0.99542 0.20055 0.0
C1966 C 0.4781 0.00927 0.17121 0.0
C1967 C 0.49523 1.00275 0.16937 0.0
H1968 H 0.53444 0.49898 0.65595 0.0
H1969 H 0.51636 0.46785 0.69992 0.0
H1970 H 0.48662 0.47919 0.69605 0.0
H1971 H 0.46576 0.4984 0.68077 0.0
H1972 H 0.48354 0.53006 0.63708 0.0
H1973 H 0.51319 0.51787 0.6401 0.0
C1974 C 0.52401 0.49475 0.66472 0.0
C1975 C 0.52771 0.48264 0.67826 0.0
C1976 C 0.50679 0.50128 0.66239 0.0
C1977 C 0.51396 0.47718 0.6894 0.0
C1978 C 0.49689 0.48362 0.68719 0.0
C1979 C 0.47604 0.50248 0.67174 0.0
C1980 C 0.47238 0.51511 0.65869 0.0
C1981 C 0.49314 0.49568 0.67375 0.0
C1982 C 0.48596 0.52034 0.64723 0.0
C1983 C 0.50297 0.51343 0.649 0.0
H1984 H 0.71979 0.93099 0.75606 0.0
H1985 H 0.74263 0.9373 0.70446 0.0
H1986 H 0.77213 0.93673 0.71711 0.0
H1987 H 0.79161 0.93515 0.7429 0.0
H1988 H 0.76887 0.93073 0.79473 0.0
H1989 H 0.73934 0.92979 0.782 0.0
C1990 C 0.73125 0.93216 0.74762 0.0
C1991 C 0.72901 0.93419 0.72937 0.0
C1992 C 0.74825 0.93219 0.75503 0.0
C1993 C 0.74397 0.93585 0.71858 0.0
C1994 C 0.76088 0.93547 0.72579 0.0
C1995 C 0.78019 0.93388 0.75138 0.0
C1996 C 0.78244 0.93298 0.76971 0.0
C1997 C 0.7632 0.93375 0.744 0.0
C1998 C 0.7675 0.93152 0.78056 0.0
C1999 C 0.75059 0.93096 0.77329 0.0
H2000 H 0.77823 0.41502 0.27354 0.0
H2001 H 0.79471 0.46292 0.2479 0.0
H2002 H 0.76717 0.46385 0.23133 0.0
H2003 H 0.7382 0.45171 0.22477 0.0
H2004 H 0.72018 0.40511 0.25172 0.0
H2005 H 0.74846 0.40304 0.26727 0.0
C2006 C 0.77579 0.42552 0.26418 0.0
C2007 C 0.78848 0.43882 0.2618 0.0
C2008 C 0.75963 0.42629 0.25508 0.0
C2009 C 0.78511 0.45256 0.24991 0.0
C2010 C 0.76938 0.45311 0.24046 0.0
C2011 C 0.74045 0.44102 0.23398 0.0
C2012 C 0.72715 0.42852 0.23702 0.0
C2013 C 0.75651 0.44015 0.24305 0.0
C2014 C 0.73021 0.41492 0.24919 0.0
C2015 C 0.74638 0.41371 0.25802 0.0
H2016 H 0.0335 0.28721 0.13913 0.0
H2017 H 0.00849 0.27934 0.08871 0.0
H2018 H 0.98819 0.25817 0.10191 0.0
H2019 H 0.97586 0.24386 0.12834 0.0
H2020 H 1.00094 0.25218 0.17869 0.0
H2021 H 0.02288 0.27103 0.1649 0.0
C2022 C 0.02375 0.28074 0.13096 0.0
C2023 C 0.02245 0.28503 0.11298 0.0
C2024 C 0.012 0.2687 0.13865 0.0
C2025 C 0.00979 0.27636 0.1026 0.0
C2026 C 0.99811 0.26428 0.11015 0.0
C2027 C 0.98625 0.24961 0.13626 0.0
C2028 C 0.98658 0.24671 0.15458 0.0
C2029 C 0.99883 0.26064 0.12826 0.0
C2030 C 1.00022 0.25424 0.1646 0.0
C2031 C 0.0128 0.26508 0.15673 0.0
H2032 H 0.98056 0.23722 0.34734 0.0
H2033 H 0.96921 0.27939 0.38361 0.0
H2034 H 0.99075 0.26741 0.40447 0.0
H2035 H 0.01095 0.24342 0.41333 0.0
H2036 H 0.02259 0.20182 0.37635 0.0
H2037 H 1.00296 0.21522 0.35481 0.0
C2038 C 0.98292 0.24389 0.35975 0.0
C2039 C 0.97316 0.25903 0.36403 0.0
C2040 C 0.99534 0.23698 0.37159 0.0
C2041 C 0.97655 0.2677 0.38002 0.0
C2042 C 0.98881 0.26079 0.39198 0.0
C2043 C 0.00935 0.2374 0.40048 0.0
C2044 C 0.0181 0.2215 0.39659 0.0
C2045 C 0.998 0.24522 0.38806 0.0
C2046 C 0.01601 0.21401 0.37979 0.0
C2047 C 0.00471 0.22163 0.36744 0.0
H2048 H 0.97363 0.21872 0.64496 0.0
H2049 H 0.99212 0.23321 0.59325 0.0
H2050 H 0.01149 0.2554 0.60624 0.0
H2051 H 0.02523 0.26874 0.63257 0.0
H2052 H 0.00654 0.25386 0.68414 0.0
H2053 H 0.9852 0.23396 0.6709 0.0
C2054 C 0.98173 0.22687 0.63649 0.0
C2055 C 0.98152 0.22414 0.61816 0.0
C2056 C 0.99294 0.2395 0.64405 0.0
C2057 C 0.992 0.23497 0.6074 0.0
C2058 C 1.00317 0.24763 0.61484 0.0
C2059 C 0.01632 0.26134 0.6409 0.0
C2060 C 0.01769 0.2627 0.65937 0.0
C2061 C 0.00407 0.24973 0.63319 0.0
C2062 C 0.00594 0.25303 0.66992 0.0
C2063 C 0.99371 0.24158 0.66236 0.0
H2064 H 0.00362 0.27151 0.92159 0.0
H2065 H 0.98332 0.29436 0.87371 0.0
H2066 H 1.00236 0.27499 0.8563 0.0
H2067 H 0.02671 0.25328 0.85486 0.0
H2068 H 0.04688 0.23105 0.90318 0.0
H2069 H 0.02592 0.24837 0.92013 0.0
C2070 C 1.00319 0.27217 0.90734 0.0
C2071 C 0.99215 0.28452 0.899 0.0
C2072 C 0.01428 0.26114 0.89745 0.0
C2073 C 0.99169 0.28501 0.8805 0.0
C2074 C 1.00265 0.27398 0.87053 0.0
C2075 C 0.02636 0.25204 0.86908 0.0
C2076 C 0.03853 0.24094 0.8777 0.0
C2077 C 0.01429 0.26224 0.87888 0.0
C2078 C 0.03782 0.23954 0.89615 0.0
C2079 C 0.02582 0.24947 0.9059 0.0
H2080 H 0.0074 0.71252 0.87793 0.0
H2081 H 0.02615 0.75176 0.91448 0.0
H2082 H 0.00806 0.77411 0.9 0.0
H2083 H 0.98544 0.78212 0.87808 0.0
H2084 H 0.96703 0.74269 0.84149 0.0
H2085 H 0.9865 0.72095 0.85481 0.0
C2086 C 0.00765 0.72598 0.88268 0.0
C2087 C 0.01803 0.73038 0.8974 0.0
C2088 C 0.99718 0.73878 0.87432 0.0
C2089 C 0.01827 0.74795 0.90323 0.0
C2090 C 0.00787 0.76076 0.89497 0.0
C2091 C 0.98579 0.76882 0.87291 0.0
C2092 C 0.97462 0.76409 0.85887 0.0
C2093 C 0.99705 0.75627 0.88068 0.0
C2094 C 0.97539 0.74677 0.85231 0.0
C2095 C 0.98651 0.73426 0.85995 0.0
H2096 H 0.5356 0.25457 0.15943 0.0
H2097 H 0.53001 0.29774 0.12291 0.0
H2098 H 0.50772 0.28127 0.10658 0.0
H2099 H 0.49141 0.25366 0.10133 0.0
H2100 H 0.49801 0.21024 0.13741 0.0
H2101 H 0.51816 0.22777 0.15519 0.0
C2102 C 0.52937 0.26051 0.14804 0.0
C2103 C 0.53459 0.27738 0.14241 0.0
C2104 C 0.51678 0.25083 0.13849 0.0
C2105 C 0.52633 0.28478 0.12755 0.0
C2106 C 0.51359 0.27533 0.11815 0.0
C2107 C 0.49709 0.2481 0.11319 0.0
C2108 C 0.49323 0.23058 0.11792 0.0
C2109 C 0.50895 0.2582 0.12329 0.0
C2110 C 0.5008 0.22362 0.13334 0.0
C2111 C 0.51235 0.23364 0.14355 0.0
H2112 H 0.99185 0.77925 0.3792 0.0
H2113 H 0.0044 0.76053 0.43141 0.0
H2114 H 0.02612 0.74036 0.41922 0.0
H2115 H 0.04348 0.72982 0.39413 0.0
H2116 H 0.0309 0.7478 0.34175 0.0
H2117 H 0.00721 0.76622 0.35357 0.0
C2118 C 0.99917 0.77059 0.38789 0.0
C2119 C 0.99656 0.77161 0.40625 0.0
C2120 C 0.01175 0.75891 0.38077 0.0
C2121 C 0.0061 0.76016 0.41726 0.0
C2122 C 0.01862 0.74861 0.4103 0.0
C2123 C 0.03541 0.7376 0.38526 0.0
C2124 C 0.03909 0.73755 0.3671 0.0
C2125 C 0.02184 0.74816 0.39214 0.0
C2126 C 0.02837 0.74757 0.35578 0.0
C2127 C 0.01487 0.75819 0.36256 0.0
H2128 H 0.51604 0.28045 0.62387 0.0
H2129 H 0.50208 0.25986 0.57276 0.0
H2130 H 0.48118 0.2397 0.58635 0.0
H2131 H 0.46516 0.22942 0.61244 0.0
H2132 H 0.47894 0.24983 0.66364 0.0
H2133 H 0.50164 0.26832 0.65034 0.0
C2134 C 0.50858 0.27141 0.61571 0.0
C2135 C 0.51058 0.27184 0.59727 0.0
C2136 C 0.49643 0.25983 0.62363 0.0
C2137 C 0.50082 0.25994 0.58696 0.0
C2138 C 0.48879 0.24839 0.59472 0.0
C2139 C 0.47323 0.23777 0.62074 0.0
C2140 C 0.47018 0.23831 0.63902 0.0
C2141 C 0.48622 0.24847 0.613 0.0
C2142 C 0.48092 0.24914 0.64954 0.0
C2143 C 0.49389 0.25979 0.64193 0.0
H2144 H 0.12924 0.01102 0.28588 0.0
H2145 H 0.07619 0.99664 0.27128 0.0
H2146 H 0.08747 0.97693 0.24874 0.0
H2147 H 0.11224 0.96181 0.23474 0.0
H2148 H 0.16543 0.976 0.24875 0.0
H2149 H 0.15426 0.9978 0.26966 0.0
C2150 C 0.12015 0.00374 0.27762 0.0
C2151 C 0.10187 0.00522 0.2805 0.0
C2152 C 0.12674 0.99228 0.26457 0.0
C2153 C 0.09031 0.99573 0.26954 0.0
C2154 C 0.09675 0.98438 0.25661 0.0
C2155 C 0.12142 0.9698 0.2422 0.0
C2156 C 0.13964 0.96711 0.24027 0.0
C2157 C 0.11492 0.98225 0.25426 0.0
C2158 C 0.15132 0.97775 0.24995 0.0
C2159 C 0.14494 0.99018 0.262 0.0
H2160 H 0.25001 0.33673 0.5204 0.0
H2161 H 0.22083 0.37787 0.54662 0.0
H2162 H 0.23644 0.40011 0.52954 0.0
H2163 H 0.26035 0.40805 0.50922 0.0
H2164 H 0.28906 0.36704 0.48238 0.0
H2165 H 0.27157 0.34466 0.49747 0.0
C2166 C 0.24689 0.35055 0.52221 0.0
C2167 C 0.23439 0.35558 0.53496 0.0
C2168 C 0.25593 0.36334 0.51231 0.0
C2169 C 0.2304 0.37356 0.53697 0.0
C2170 C 0.23939 0.38634 0.52725 0.0
C2171 C 0.26263 0.39422 0.50651 0.0
C2172 C 0.27614 0.38925 0.49484 0.0
C2173 C 0.25249 0.3814 0.51521 0.0
C2174 C 0.27878 0.37126 0.49131 0.0
C2175 C 0.26883 0.35843 0.50001 0.0
H2176 H 0.87722 0.53537 0.73619 0.0
H2177 H 0.82278 0.52584 0.74942 0.0
H2178 H 0.83171 0.50317 0.77041 0.0
H2179 H 0.8551 0.48836 0.78731 0.0
H2180 H 0.90953 0.49781 0.77393 0.0
H2181 H 0.90044 0.51799 0.75063 0.0
C2182 C 0.86727 0.52816 0.74347 0.0
C2183 C 0.84935 0.5325 0.74136 0.0
C2184 C 0.87251 0.51519 0.75563 0.0
C2185 C 0.83666 0.52286 0.75078 0.0
C2186 C 0.84177 0.50993 0.76288 0.0
C2187 C 0.86498 0.49463 0.77914 0.0
C2188 C 0.88299 0.49171 0.78257 0.0
C2189 C 0.85967 0.50633 0.76577 0.0
C2190 C 0.89558 0.49983 0.77169 0.0
C2191 C 0.8904 0.51146 0.75838 0.0
H2192 H 0.78019 0.10765 0.03533 0.0
H2193 H 0.76154 0.16015 0.02413 0.0
H2194 H 0.74163 0.1485 1.0017 0.0
H2195 H 0.7276 0.12307 0.98708 0.0
H2196 H 0.74657 0.07067 0.99842 0.0
H2197 H 0.76828 0.08265 0.01872 0.0
C2198 C 0.77191 0.11659 0.02786 0.0
C2199 C 0.77226 0.13473 0.03159 0.0
C2200 C 0.76043 0.1098 0.015 0.0
C2201 C 0.76155 0.14611 0.02162 0.0
C2202 C 0.75008 0.13945 0.0088 0.0
C2203 C 0.73665 0.11429 0.99378 0.0
C2204 C 0.73525 0.09595 0.99131 0.0
C2205 C 0.74913 0.12127 0.00563 0.0
C2206 C 0.74719 0.08482 1.00009 0.0
C2207 C 0.75963 0.09165 0.01179 0.0
H2208 H 0.16249 0.01956 0.756 0.0
H2209 H 0.12111 0.05447 0.77336 0.0
H2210 H 0.09945 0.03719 0.75714 0.0
H2211 H 0.09257 0.01363 0.73607 0.0
H2212 H 0.13381 0.97852 0.71883 0.0
H2213 H 0.15509 0.99427 0.73709 0.0
C2214 C 0.14871 0.02329 0.75639 0.0
C2215 C 0.14351 0.03843 0.76577 0.0
C2216 C 0.13627 0.01329 0.74697 0.0
C2217 C 0.12555 0.04294 0.76624 0.0
C2218 C 0.11312 0.03308 0.7569 0.0
C2219 C 0.10617 0.00928 0.73645 0.0
C2220 C 0.11158 0.995 0.72593 0.0
C2221 C 0.11838 0.01845 0.74693 0.0
C2222 C 0.12924 0.98947 0.72674 0.0
C2223 C 0.14147 0.99853 0.73713 0.0
H2224 H 0.22544 0.39126 0.01564 0.0
H2225 H 0.24338 0.44384 0.00366 0.0
H2226 H 0.2666 0.4319 0.98505 0.0
H2227 H 0.27993 0.40679 0.96974 0.0
H2228 H 0.26222 0.35413 0.98156 0.0
H2229 H 0.24104 0.36584 1.00275 0.0
C2230 C 0.23459 0.4001 0.00918 0.0
C2231 C 0.23246 0.41845 0.01091 0.0
C2232 C 0.24792 0.39315 0.99832 0.0
C2233 C 0.24456 0.42968 1.00251 0.0
C2234 C 0.25786 0.42287 0.99179 0.0
C2235 C 0.2716 0.39784 0.97711 0.0
C2236 C 0.27255 0.37962 0.97386 0.0
C2237 C 0.25936 0.40466 0.9892 0.0
C2238 C 0.26177 0.36822 0.98371 0.0
C2239 C 0.24957 0.37491 0.9958 0.0
H2240 H 0.9099 0.50732 0.24405 0.0
H2241 H 0.87845 0.50429 0.19673 0.0
H2242 H 0.85762 0.48502 0.21155 0.0
H2243 H 0.84935 0.46729 0.23708 0.0
H2244 H 0.87996 0.47037 0.2848 0.0
H2245 H 0.89998 0.49144 0.27075 0.0
C2246 C 0.8984 0.50259 0.23703 0.0
C2247 C 0.89593 0.50714 0.2192 0.0
C2248 C 0.88635 0.49143 0.24567 0.0
C2249 C 0.88083 0.50098 0.2104 0.0
C2250 C 0.86888 0.48989 0.21885 0.0
C2251 C 0.86034 0.47266 0.24446 0.0
C2252 C 0.86329 0.46713 0.26188 0.0
C2253 C 0.87169 0.48475 0.23634 0.0
C2254 C 0.87741 0.47441 0.27136 0.0
C2255 C 0.8889 0.4864 0.2633 0.0
H2256 H 0.78906 0.12573 0.50829 0.0
H2257 H 0.75881 0.07766 0.50694 0.0
H2258 H 0.73602 0.09228 0.48958 0.0
H2259 H 0.72557 0.11814 0.47302 0.0
H2260 H 0.75646 0.16581 0.47346 0.0
H2261 H 0.77793 0.15196 0.49295 0.0
C2262 C 0.77739 0.11848 0.50439 0.0
C2263 C 0.77574 0.10057 0.5089 0.0
C2264 C 0.76444 0.12689 0.49411 0.0
C2265 C 0.76052 0.09142 0.50363 0.0
C2266 C 0.74745 0.09977 0.49365 0.0
C2267 C 0.73688 0.12558 0.47754 0.0
C2268 C 0.73938 0.143 0.47168 0.0
C2269 C 0.7494 0.11742 0.48855 0.0
C2270 C 0.75421 0.15237 0.47765 0.0
C2271 C 0.76653 0.14445 0.48881 0.0
H2272 H 0.26157 0.16257 0.97433 0.0
H2273 H 0.21876 0.12544 0.97856 0.0
H2274 H 0.23607 0.10759 0.99895 0.0
H2275 H 0.26404 0.10154 0.01422 0.0
H2276 H 0.30686 0.13865 0.00975 0.0
H2277 H 0.28883 0.15743 0.99095 0.0
C2278 C 0.25594 0.15065 0.97981 0.0
C2279 C 0.23889 0.14534 0.97477 0.0
C2280 C 0.26602 0.14035 0.99146 0.0
C2281 C 0.23184 0.12987 0.98212 0.0
C2282 C 0.24176 0.1196 0.99377 0.0
C2283 C 0.2694 0.1138 0.00926 0.0
C2284 C 0.28686 0.11856 0.01335 0.0
C2285 C 0.25897 0.12456 0.99832 0.0
C2286 C 0.29351 0.13457 0.00682 0.0
C2287 C 0.28321 0.14534 0.99601 0.0
H2288 H 0.75703 0.83602 0.50443 0.0
H2289 H 0.74319 0.8817 0.53528 0.0
H2290 H 0.76255 0.89993 0.51728 0.0
H2291 H 0.78502 0.90258 0.49409 0.0
H2292 H 0.7988 0.85691 0.46319 0.0
H2293 H 0.77784 0.83914 0.47981 0.0
C2294 C 0.75808 0.85 0.50711 0.0
C2295 C 0.74871 0.85739 0.52132 0.0
C2296 C 0.76936 0.86044 0.49675 0.0
C2297 C 0.75023 0.87558 0.52449 0.0
C2298 C 0.76137 0.88604 0.51422 0.0
C2299 C 0.78334 0.88877 0.49087 0.0
C2300 C 0.79363 0.88111 0.47746 0.0
C2301 C 0.77126 0.87856 0.50053 0.0
C2302 C 0.79114 0.8632 0.47344 0.0
C2303 C 0.77916 0.85298 0.48298 0.0
H2304 H 0.3701 0.03774 0.73735 0.0
H2305 H 0.31857 0.016 0.74731 0.0
H2306 H 0.3311 0.99577 0.76892 0.0
H2307 H 0.35628 0.98594 0.78683 0.0
H2308 H 0.40796 0.00711 0.77638 0.0
H2309 H 0.39582 0.02564 0.75307 0.0
C2310 C 0.36164 0.02844 0.7441 0.0
C2311 C 0.34338 0.02855 0.7408 0.0
C2312 C 0.36895 0.01676 0.75652 0.0
C2313 C 0.33265 0.01625 0.74955 0.0
C2314 C 0.3398 0.00471 0.762 0.0
C2315 C 0.36494 0.99445 0.77931 0.0
C2316 C 0.38299 0.99523 0.78352 0.0
C2317 C 0.35787 0.00509 0.76587 0.0
C2318 C 0.39402 0.00621 0.77349 0.0
C2319 C 0.38707 0.01691 0.76018 0.0
H2320 H 0.24178 0.59746 1.0002 0.0
H2321 H 0.2185 0.64101 0.97202 0.0
H2322 H 0.23595 0.66172 0.98929 0.0
H2323 H 0.25564 0.66761 0.01435 0.0
H2324 H 0.27889 0.62398 0.04246 0.0
H2325 H 0.26376 0.60326 0.02318 0.0
C2326 C 0.24068 0.61147 0.99766 0.0
C2327 C 0.22866 0.61763 0.98496 0.0
C2328 C 0.25066 0.62335 0.00774 0.0
C2329 C 0.22757 0.63585 0.98175 0.0
C2330 C 0.2375 0.64774 0.99168 0.0
C2331 C 0.25757 0.65358 0.01614 0.0
C2332 C 0.26823 0.64741 0.03001 0.0
C2333 C 0.24875 0.64167 0.00503 0.0
C2334 C 0.2707 0.62915 0.03198 0.0
C2335 C 0.262 0.61725 0.02098 0.0
H2336 H 0.74123 0.91318 0.99461 0.0
H2337 H 0.71628 0.87285 0.02591 0.0
H2338 H 0.7336 0.85029 0.01094 0.0
H2339 H 0.75392 0.84176 0.98722 0.0
H2340 H 0.77884 0.88208 0.9559 0.0
H2341 H 0.76359 0.90482 0.97273 0.0
C2342 C 0.73971 0.89948 0.99831 0.0
C2343 C 0.7273 0.89476 0.01127 0.0
C2344 C 0.74965 0.88651 0.98956 0.0
C2345 C 0.72566 0.87692 0.01597 0.0
C2346 C 0.73553 0.86396 0.00735 0.0
C2347 C 0.75619 0.85552 0.98419 0.0
C2348 C 0.7674 0.86014 0.97016 0.0
C2349 C 0.74727 0.86857 0.99386 0.0
C2350 C 0.77026 0.87808 0.96656 0.0
C2351 C 0.76148 0.89113 0.97615 0.0
H2352 H 0.40228 0.46546 0.77001 0.0
H2353 H 0.34922 0.47922 0.75494 0.0
H2354 H 0.36057 0.50174 0.73495 0.0
H2355 H 0.38571 0.5157 0.71976 0.0
H2356 H 0.43866 0.50159 0.735 0.0
H2357 H 0.42718 0.48123 0.75692 0.0
C2358 C 0.39316 0.4735 0.76252 0.0
C2359 C 0.37492 0.47047 0.76388 0.0
C2360 C 0.39977 0.48635 0.75094 0.0
C2361 C 0.36333 0.48119 0.75415 0.0
C2362 C 0.36981 0.49405 0.74264 0.0
C2363 C 0.39474 0.50836 0.72804 0.0
C2364 C 0.41305 0.5101 0.72554 0.0
C2365 C 0.38803 0.49648 0.74062 0.0
C2366 C 0.42452 0.50049 0.73649 0.0
C2367 C 0.41796 0.48877 0.74904 0.0
H2368 H 0.5918 1.00266 0.24185 0.0
H2369 H 0.63213 0.9742 0.21368 0.0
H2370 H 0.65488 0.98886 0.23109 0.0
H2371 H 0.66334 0.01209 0.25206 0.0
H2372 H 0.62285 0.04057 0.28003 0.0
H2373 H 0.6002 0.02342 0.2651 0.0
C2374 C 0.60556 0.99948 0.23966 0.0
C2375 C 0.61025 0.98752 0.2263 0.0
C2376 C 0.61857 0.00806 0.24961 0.0
C2377 C 0.62813 0.98339 0.22382 0.0
C2378 C 0.64117 0.99184 0.23372 0.0
C2379 C 0.64958 0.01438 0.25509 0.0
C2380 C 0.64484 0.0278 0.26699 0.0
C2381 C 0.63655 0.00456 0.24631 0.0
C2382 C 0.62692 0.03044 0.27087 0.0
C2383 C 0.61392 0.02067 0.26227 0.0
H2384 H 0.0037 0.75831 0.59195 0.0
H2385 H 0.0174 0.79609 0.63216 0.0
H2386 H 1.00071 0.7794 0.65383 0.0
H2387 H 0.98005 0.75568 0.66086 0.0
H2388 H 0.96656 0.71737 0.62121 0.0
H2389 H 0.9855 0.7325 0.59994 0.0
C2390 C 1.00321 0.76278 0.6055 0.0
C2391 C 0.01165 0.77859 0.61031 0.0
C2392 C 0.99355 0.75306 0.618 0.0
C2393 C 0.01101 0.78405 0.628 0.0
C2394 C 1.0014 0.77453 0.64043 0.0
C2395 C 0.98142 0.75051 0.64761 0.0
C2396 C 0.97176 0.73554 0.64257 0.0
C2397 C 0.99229 0.75927 0.6355 0.0
C2398 C 0.97386 0.72887 0.62544 0.0
C2399 C 0.9846 0.73759 0.61324 0.0
H2400 H 0.01755 0.74309 0.17135 0.0
H2401 H 0.04191 0.76356 0.12431 0.0
H2402 H 0.02186 0.74611 0.10614 0.0
H2403 H 0.99881 0.72316 0.10364 0.0
H2404 H 0.97495 0.70279 0.15103 0.0
H2405 H 0.99323 0.72212 0.16886 0.0
C2406 C 0.01841 0.74389 0.15712 0.0
C2407 C 0.03137 0.75454 0.14927 0.0
C2408 C 0.00691 0.73373 0.14673 0.0
C2409 C 0.03212 0.75546 0.13077 0.0
C2410 C 0.02067 0.74542 0.12034 0.0
C2411 C 0.99743 0.72315 0.11785 0.0
C2412 C 0.98557 0.71137 0.12593 0.0
C2413 C 0.0082 0.73424 0.12817 0.0
C2414 C 0.98402 0.71156 0.14439 0.0
C2415 C 0.99451 0.72262 0.15466 0.0
H2416 H 0.50908 0.73818 0.58933 0.0
H2417 H 0.47501 0.71877 0.63044 0.0
H2418 H 0.4902 0.73719 0.65195 0.0
H2419 H 0.51503 0.75659 0.65963 0.0
H2420 H 0.54904 0.77598 0.61844 0.0
H2421 H 0.53192 0.75994 0.59651 0.0
C2422 C 0.5048 0.73815 0.60295 0.0
C2423 C 0.49102 0.72692 0.60824 0.0
C2424 C 0.51369 0.74869 0.61532 0.0
C2425 C 0.48558 0.72721 0.62595 0.0
C2426 C 0.49433 0.73769 0.63831 0.0
C2427 C 0.51858 0.75749 0.64583 0.0
C2428 C 0.53346 0.76735 0.64077 0.0
C2429 C 0.50871 0.74814 0.63323 0.0
C2430 C 0.53773 0.76847 0.62278 0.0
C2431 C 0.52796 0.75923 0.6102 0.0
H2432 H 0.49415 0.75445 0.16615 0.0
H2433 H 0.45968 0.72945 0.12851 0.0
H2434 H 0.47545 0.74354 0.10438 0.0
H2435 H 0.49717 0.76522 0.09409 0.0
H2436 H 0.5319 0.78994 0.13166 0.0
H2437 H 0.51805 0.77356 0.15555 0.0
C2438 C 0.49022 0.7519 0.15266 0.0
C2439 C 0.47559 0.74107 0.14921 0.0
C2440 C 0.49935 0.76009 0.13878 0.0
C2441 C 0.47083 0.73776 0.13161 0.0
C2442 C 0.47981 0.74588 0.11776 0.0
C2443 C 0.50187 0.76685 0.10747 0.0
C2444 C 0.51542 0.77897 0.11105 0.0
C2445 C 0.4938 0.75742 0.12121 0.0
C2446 C 0.52147 0.78076 0.12848 0.0
C2447 C 0.51349 0.77145 0.1422 0.0
H2448 H 0.1422 0.52758 0.78491 0.0
H2449 H 0.0906 0.50614 0.77467 0.0
H2450 H 0.1033 0.48515 0.75382 0.0
H2451 H 0.12951 0.47107 0.74056 0.0
H2452 H 0.18096 0.4929 0.751 0.0
H2453 H 0.16785 0.51552 0.76951 0.0
C2454 C 0.13368 0.51847 0.77797 0.0
C2455 C 0.11549 0.51836 0.78152 0.0
C2456 C 0.14107 0.50636 0.76607 0.0
C2457 C 0.10465 0.50655 0.77224 0.0
C2458 C 0.11192 0.49445 0.76036 0.0
C2459 C 0.13783 0.48091 0.74669 0.0
C2460 C 0.15625 0.48008 0.74449 0.0
C2461 C 0.13019 0.49396 0.75748 0.0
C2462 C 0.16678 0.49306 0.75249 0.0
C2463 C 0.15929 0.50603 0.76315 0.0
H2464 H 0.23435 0.89652 0.04524 0.0
H2465 H 0.25399 0.84544 0.02996 0.0
H2466 H 0.27358 0.85923 0.00847 0.0
H2467 H 0.28679 0.88605 0.99554 0.0
H2468 H 0.267 0.93698 0.0113 0.0
H2469 H 0.24587 0.92298 0.03089 0.0
C2470 C 0.24277 0.88835 0.0371 0.0
C2471 C 0.24273 0.86995 0.03936 0.0
C2472 C 0.25413 0.89637 0.02486 0.0
C2473 C 0.2537 0.85962 0.02856 0.0
C2474 C 0.26499 0.86752 0.01629 0.0
C2475 C 0.27772 0.89408 1.0031 0.0
C2476 C 0.27866 0.91259 1.00199 0.0
C2477 C 0.26557 0.88592 0.01454 0.0
C2478 C 0.26673 0.92273 0.01191 0.0
C2479 C 0.2546 0.91473 0.02317 0.0
H2480 H 0.91886 0.01317 0.27317 0.0
H2481 H 0.88031 0.97445 0.28852 0.0
H2482 H 0.85875 0.98778 0.26856 0.0
H2483 H 0.85001 0.01237 0.24911 0.0
H2484 H 0.88906 0.05052 0.23334 0.0
H2485 H 0.91126 0.03535 0.25089 0.0
C2486 C 0.90581 0.00749 0.27195 0.0
C2487 C 0.90113 0.99297 0.28246 0.0
C2488 C 0.89352 0.0152 0.26044 0.0
C2489 C 0.88426 0.98562 0.28058 0.0
C2490 C 0.87188 0.99331 0.26924 0.0
C2491 C 0.86344 0.01722 0.24929 0.0
C2492 C 0.86775 0.03273 0.24007 0.0
C2493 C 0.87623 0.00839 0.25946 0.0
C2494 C 0.88529 0.03868 0.24032 0.0
C2495 C 0.89802 0.03005 0.25044 0.0
H2496 H 0.76315 0.62868 0.53661 0.0
H2497 H 0.7527 0.67778 0.5099 0.0
H2498 H 0.73418 0.6625 0.48861 0.0
H2499 H 0.71906 0.63571 0.47891 0.0
H2500 H 0.72896 0.5866 0.50575 0.0
H2501 H 0.74966 0.60135 0.52546 0.0
C2502 C 0.757 0.63602 0.52601 0.0
C2503 C 0.75923 0.65441 0.525 0.0
C2504 C 0.74615 0.62716 0.51385 0.0
C2505 C 0.75117 0.66365 0.51111 0.0
C2506 C 0.74052 0.65493 0.49891 0.0
C2507 C 0.72586 0.62816 0.48894 0.0
C2508 C 0.72229 0.61008 0.4909 0.0
C2509 C 0.73762 0.63676 0.50037 0.0
C2510 C 0.73137 0.60054 0.50394 0.0
C2511 C 0.74319 0.60898 0.51528 0.0
H2512 H 0.09605 0.49738 0.24272 0.0
H2513 H 0.13896 0.47562 0.21252 0.0
H2514 H 0.16016 0.491 0.23122 0.0
H2515 H 0.16631 0.51299 0.25424 0.0
H2516 H 0.12329 0.53444 0.28459 0.0
H2517 H 0.1024 0.51665 0.26791 0.0
C2518 C 0.11005 0.49583 0.24036 0.0
C2519 C 0.11589 0.48555 0.2261 0.0
C2520 C 0.12216 0.50474 0.25115 0.0
C2521 C 0.13409 0.48348 0.22337 0.0
C2522 C 0.14623 0.49235 0.23402 0.0
C2523 C 0.15239 0.51359 0.25738 0.0
C2524 C 0.14639 0.52523 0.27051 0.0
C2525 C 0.14039 0.50337 0.24766 0.0
C2526 C 0.12831 0.52567 0.27453 0.0
C2527 C 0.11632 0.51555 0.26493 0.0
H2528 H 0.24375 0.91372 0.50324 0.0
H2529 H 0.21143 0.87255 0.52535 0.0
H2530 H 0.2288 0.85038 0.50989 0.0
H2531 H 0.25137 0.84285 0.48798 0.0
H2532 H 0.28365 0.88397 0.46574 0.0
H2533 H 0.26822 0.90589 0.4835 0.0
C2534 C 0.24062 0.89989 0.50486 0.0
C2535 C 0.22614 0.89487 0.51532 0.0
C2536 C 0.2506 0.88716 0.49581 0.0
C2537 C 0.22242 0.87684 0.51736 0.0
C2538 C 0.23233 0.86413 0.50846 0.0
C2539 C 0.25519 0.85658 0.48715 0.0
C2540 C 0.26854 0.86174 0.47537 0.0
C2541 C 0.24617 0.86916 0.49732 0.0
C2542 C 0.27341 0.87959 0.47464 0.0
C2543 C 0.26453 0.89217 0.48475 0.0
H2544 H 0.85769 0.98017 0.75135 0.0
H2545 H 0.90236 0.96987 0.78502 0.0
H2546 H 0.92049 0.98954 0.7673 0.0
H2547 H 0.92437 0.00782 0.74093 0.0
H2548 H 0.87981 0.01815 0.70716 0.0
H2549 H 0.86099 1.00049 0.72631 0.0
C2550 C 0.87134 0.98237 0.75495 0.0
C2551 C 0.87864 0.97337 0.76945 0.0
C2552 C 0.88179 0.99365 0.74461 0.0
C2553 C 0.89635 0.97651 0.77393 0.0
C2554 C 0.90678 0.98775 0.76375 0.0
C2555 C 0.91051 0.00637 0.73783 0.0
C2556 C 0.9036 0.0142 0.7225 0.0
C2557 C 0.89975 0.9961 0.74885 0.0
C2558 C 0.88554 0.01226 0.71881 0.0
C2559 C 0.87475 1.0021 0.72975 0.0
H2560 H 0.78045 0.62442 0.01561 0.0
H2561 H 0.76195 0.57188 0.00421 0.0
H2562 H 0.73958 0.58377 0.9846 0.0
H2563 H 0.72717 0.60866 0.96834 0.0
H2564 H 0.74516 0.66135 0.97941 0.0
H2565 H 0.76553 0.64986 1.00164 0.0
C2566 C 0.77136 0.61559 0.00903 0.0
C2567 C 0.77311 0.59723 0.01125 0.0
C2568 C 0.75845 0.62253 0.99761 0.0
C2569 C 0.76109 0.58603 1.0027 0.0
C2570 C 0.74826 0.59282 0.99142 0.0
C2571 C 0.73537 0.61768 0.97579 0.0
C2572 C 0.73477 0.63582 0.97207 0.0
C2573 C 0.74712 0.61098 0.98841 0.0
C2574 C 0.74533 0.64733 0.982 0.0
C2575 C 0.75709 0.64074 0.99464 0.0
H2576 H 0.24805 0.63347 0.4671 0.0
H2577 H 0.24197 0.67643 0.50376 0.0
H2578 H 0.26 0.6608 0.52534 0.0
H2579 H 0.27924 0.63584 0.53309 0.0
H2580 H 0.28644 0.59358 0.49581 0.0
H2581 H 0.26624 0.60795 0.47534 0.0
C2582 C 0.25046 0.63933 0.47989 0.0
C2583 C 0.24365 0.65615 0.48374 0.0
C2584 C 0.2612 0.63042 0.49214 0.0
C2585 C 0.24706 0.66355 0.50038 0.0
C2586 C 0.25742 0.65462 0.51274 0.0
C2587 C 0.27624 0.62966 0.52058 0.0
C2588 C 0.28444 0.61365 0.51602 0.0
C2589 C 0.26483 0.63819 0.50866 0.0
C2590 C 0.28043 0.60593 0.49967 0.0
C2591 C 0.26886 0.61415 0.48792 0.0
H2592 H 0.781 0.38193 0.9911 0.0
H2593 H 0.76033 0.43331 0.00396 0.0
H2594 H 0.73963 0.42008 0.02455 0.0
H2595 H 0.72887 0.39425 0.04063 0.0
H2596 H 0.74909 0.34272 0.02782 0.0
H2597 H 0.76826 0.35565 0.00543 0.0
C2598 C 0.77185 0.39022 0.99826 0.0
C2599 C 0.7724 0.40864 0.99605 0.0
C2600 C 0.7599 0.3825 0.01019 0.0
C2601 C 0.76031 0.41913 0.00538 0.0
C2602 C 0.74846 0.41157 0.01724 0.0
C2603 C 0.73733 0.3858 0.03283 0.0
C2604 C 0.73762 0.36755 0.03605 0.0
C2605 C 0.74837 0.39332 0.02001 0.0
C2606 C 0.74857 0.35681 0.02566 0.0
C2607 C 0.75962 0.36421 0.01288 0.0
H2608 H 0.34018 0.5145 0.26069 0.0
H2609 H 0.37956 0.54707 0.23582 0.0
H2610 H 0.40284 0.53018 0.25014 0.0
H2611 H 0.41198 0.50801 0.27184 0.0
H2612 H 0.37275 0.47531 0.29671 0.0
H2613 H 0.34956 0.49024 0.28011 0.0
C2614 C 0.35386 0.51778 0.25822 0.0
C2615 C 0.35805 0.5322 0.24733 0.0
C2616 C 0.36725 0.50803 0.26658 0.0
C2617 C 0.37588 0.53611 0.24418 0.0
C2618 C 0.38924 0.52649 0.25242 0.0
C2619 C 0.39838 0.50397 0.27347 0.0
C2620 C 0.39414 0.49067 0.28567 0.0
C2621 C 0.38508 0.5127 0.26397 0.0
C2622 C 0.37644 0.48551 0.28745 0.0
C2623 C 0.36313 0.49412 0.27802 0.0
H2624 H 0.22947 0.12717 0.48793 0.0
H2625 H 0.24832 0.07505 0.50063 0.0
H2626 H 0.26929 0.08744 0.52147 0.0
H2627 H 0.2804 0.11268 0.53818 0.0
H2628 H 0.26169 0.16492 0.52593 0.0
H2629 H 0.2428 0.1529 0.50279 0.0
C2630 C 0.23835 0.11854 0.49505 0.0
C2631 C 0.23712 0.10015 0.49278 0.0
C2632 C 0.25036 0.12576 0.50724 0.0
C2633 C 0.24881 0.08922 0.50213 0.0
C2634 C 0.26082 0.09629 0.51413 0.0
C2635 C 0.27236 0.1215 0.53032 0.0
C2636 C 0.27238 0.13967 0.53395 0.0
C2637 C 0.26141 0.11449 0.51712 0.0
C2638 C 0.26196 0.15087 0.52348 0.0
C2639 C 0.25107 0.14399 0.51027 0.0
H2640 H 0.7713 0.37368 0.48137 0.0
H2641 H 0.76108 0.32007 0.49725 0.0
H2642 H 0.74004 0.33036 0.51916 0.0
H2643 H 0.72241 0.35428 0.53186 0.0
H2644 H 0.7325 0.40794 0.51618 0.0
H2645 H 0.75579 0.39794 0.49639 0.0
C2646 C 0.76466 0.36425 0.48979 0.0
C2647 C 0.76767 0.34609 0.48747 0.0
C2648 C 0.75243 0.37026 0.50237 0.0
C2649 C 0.75901 0.33411 0.49863 0.0
C2650 C 0.74689 0.33998 0.51116 0.0
C2651 C 0.72985 0.36382 0.52429 0.0
C2652 C 0.72555 0.38182 0.52539 0.0
C2653 C 0.74317 0.35798 0.51284 0.0
C2654 C 0.73548 0.394 0.5156 0.0
C2655 C 0.74877 0.38828 0.50419 0.0
H2656 H 0.35795 0.02442 0.21658 0.0
H2657 H 0.41072 0.01212 0.2338 0.0
H2658 H 0.39899 0.99195 0.25592 0.0
H2659 H 0.3739 0.97544 0.2682 0.0
H2660 H 0.32122 0.9876 0.25049 0.0
H2661 H 0.33278 0.01025 0.23096 0.0
C2662 C 0.3669 0.01752 0.22532 0.0
C2663 C 0.38521 0.01966 0.22334 0.0
C2664 C 0.36008 0.00578 0.23789 0.0
C2665 C 0.39657 0.01071 0.23493 0.0
C2666 C 0.38987 0.99909 0.24756 0.0
C2667 C 0.36491 0.98323 0.26029 0.0
C2668 C 0.34671 0.97961 0.26069 0.0
C2669 C 0.37167 0.99616 0.24884 0.0
C2670 C 0.33529 0.98994 0.25038 0.0
C2671 C 0.34189 1.0029 0.23913 0.0
H2672 H 0.58316 0.50594 0.73599 0.0
H2673 H 0.62595 0.4753 0.7145 0.0
H2674 H 0.64677 0.49063 0.73361 0.0
H2675 H 0.65322 0.51474 0.75434 0.0
H2676 H 0.61029 0.54509 0.776 0.0
H2677 H 0.58923 0.52778 0.75906 0.0
C2678 C 0.59701 0.50243 0.73564 0.0
C2679 C 0.60297 0.48961 0.72366 0.0
C2680 C 0.60896 0.51136 0.74663 0.0
C2681 C 0.62095 0.48513 0.72355 0.0
C2682 C 0.63292 0.49397 0.73443 0.0
C2683 C 0.63924 0.51743 0.75553 0.0
C2684 C 0.63342 0.53138 0.76629 0.0
C2685 C 0.62713 0.50742 0.74569 0.0
C2686 C 0.61522 0.53452 0.76779 0.0
C2687 C 0.60312 0.52465 0.75804 0.0
H2688 H 0.4895 0.24713 0.84683 0.0
H2689 H 0.45807 0.27204 0.88712 0.0
H2690 H 0.47467 0.25661 0.90985 0.0
H2691 H 0.49664 0.23448 0.91832 0.0
H2692 H 0.52855 0.2098 0.87833 0.0
H2693 H 0.51338 0.22681 0.85556 0.0
C2694 C 0.48638 0.24931 0.86058 0.0
C2695 C 0.47241 0.26064 0.86519 0.0
C2696 C 0.49604 0.24038 0.87369 0.0
C2697 C 0.4687 0.2634 0.88312 0.0
C2698 C 0.47816 0.25453 0.89618 0.0
C2699 C 0.50041 0.23293 0.90464 0.0
C2700 C 0.51362 0.22075 0.90006 0.0
C2701 C 0.49164 0.24275 0.89161 0.0
C2702 C 0.51844 0.21907 0.88226 0.0
C2703 C 0.50971 0.22875 0.8692 0.0
H2704 H 0.53908 0.23075 0.40042 0.0
H2705 H 0.52362 0.24644 0.34804 0.0
H2706 H 0.50108 0.26588 0.36034 0.0
H2707 H 0.48735 0.28026 0.38613 0.0
H2708 H 0.50318 0.26435 0.43837 0.0
H2709 H 0.52379 0.24316 0.42594 0.0
C2710 C 0.53068 0.23828 0.39165 0.0
C2711 C 0.53319 0.23721 0.37332 0.0
C2712 C 0.51781 0.24952 0.39881 0.0
C2713 C 0.52203 0.24698 0.3622 0.0
C2714 C 0.50916 0.25818 0.36923 0.0
C2715 C 0.49513 0.272 0.39479 0.0
C2716 C 0.49377 0.27408 0.41319 0.0
C2717 C 0.50715 0.25983 0.38754 0.0
C2718 C 0.50397 0.26318 0.42418 0.0
C2719 C 0.51583 0.25104 0.41708 0.0
H2720 H 0.4833 0.74431 0.34835 0.0
H2721 H 0.48012 0.78668 0.38591 0.0
H2722 H 0.5002 0.77082 0.40571 0.0
H2723 H 0.5163 0.74341 0.41338 0.0
H2724 H 0.51988 0.7018 0.37476 0.0
H2725 H 0.50219 0.71893 0.35432 0.0
C2726 C 0.48722 0.75017 0.36078 0.0
C2727 C 0.48015 0.7665 0.3658 0.0
C2728 C 0.49875 0.74104 0.37196 0.0
C2729 C 0.48546 0.77411 0.38178 0.0
C2730 C 0.49683 0.76499 0.39314 0.0
C2731 C 0.51339 0.7382 0.40042 0.0
C2732 C 0.51923 0.72119 0.39578 0.0
C2733 C 0.50321 0.74821 0.38855 0.0
C2734 C 0.51552 0.71476 0.3788 0.0
C2735 C 0.50533 0.72454 0.36707 0.0
H2736 H 0.52699 0.76081 0.84996 0.0
H2737 H 0.52274 0.718 0.88703 0.0
H2738 H 0.50167 0.73496 0.90448 0.0
H2739 H 0.48621 0.76291 0.91044 0.0
H2740 H 0.48965 0.80523 0.87269 0.0
H2741 H 0.50905 0.78747 0.85426 0.0
C2742 C 0.52132 0.75513 0.86177 0.0
C2743 C 0.52658 0.73823 0.86727 0.0
C2744 C 0.50908 0.76491 0.87168 0.0
C2745 C 0.51893 0.73097 0.88248 0.0
C2746 C 0.50693 0.7407 0.89252 0.0
C2747 C 0.49103 0.76817 0.89808 0.0
C2748 C 0.48659 0.78547 0.89309 0.0
C2749 C 0.50216 0.75782 0.88744 0.0
C2750 C 0.49283 0.79199 0.87691 0.0
C2751 C 0.50402 0.78186 0.86637 0.0
H2752 H 0.66755 0.99067 0.74988 0.0
H2753 H 0.62612 0.96136 0.7243 0.0
H2754 H 0.60398 0.97876 0.7398 0.0
H2755 H 0.5964 1.00034 0.76275 0.0
H2756 H 0.63783 0.02972 0.78824 0.0
H2757 H 0.65984 0.0144 0.77053 0.0
C2758 C 0.65367 0.98823 0.74751 0.0
C2759 C 0.64855 0.97457 0.73605 0.0
C2760 C 0.64097 0.99824 0.75656 0.0
C2761 C 0.63049 0.97174 0.73304 0.0
C2762 C 0.61779 0.98165 0.74198 0.0
C2763 C 0.61022 0.00357 0.76428 0.0
C2764 C 0.61542 0.01605 0.77698 0.0
C2765 C 0.62287 0.99463 0.7541 0.0
C2766 C 0.63341 0.02016 0.77863 0.0
C2767 C 0.64605 0.01134 0.76855 0.0
H2768 H 0.63601 0.47283 0.2375 0.0
H2769 H 0.68775 0.49035 0.2533 0.0
H2770 H 0.67464 0.51172 0.27327 0.0
H2771 H 0.64868 0.52352 0.28837 0.0
H2772 H 0.59684 0.50611 0.27293 0.0
H2773 H 0.60979 0.48686 0.25063 0.0
C2774 C 0.64442 0.48149 0.24511 0.0
C2775 C 0.66287 0.47978 0.244 0.0
C2776 C 0.63678 0.49374 0.25677 0.0
C2777 C 0.67352 0.49122 0.25394 0.0
C2778 C 0.66604 0.50346 0.26543 0.0
C2779 C 0.64018 0.51569 0.27999 0.0
C2780 C 0.62182 0.51615 0.2825 0.0
C2781 C 0.6477 0.50453 0.26729 0.0
C2782 C 0.61102 0.50601 0.27137 0.0
C2783 C 0.61842 0.49492 0.25864 0.0
H2784 H 0.08277 0.35954 0.02894 0.0
H2785 H 0.10295 0.3304 0.07338 0.0
H2786 H 0.13176 0.34422 0.06952 0.0
H2787 H 0.15009 0.36703 0.05564 0.0
H2788 H 0.12936 0.39684 0.01186 0.0
H2789 H 0.10193 0.3802 0.01332 0.0
C2790 C 0.09352 0.35599 0.03765 0.0
C2791 C 0.09062 0.34409 0.05156 0.0
C2792 C 0.10992 0.36425 0.03558 0.0
C2793 C 0.10478 0.33954 0.06259 0.0
C2794 C 0.12124 0.34752 0.06045 0.0
C2795 C 0.13967 0.36975 0.04626 0.0
C2796 C 0.14174 0.38334 0.0338 0.0
C2797 C 0.1238 0.3603 0.04733 0.0
C2798 C 0.12812 0.38656 0.02167 0.0
C2799 C 0.11239 0.37707 0.02251 0.0
H2800 H 0.91751 0.34586 0.32951 0.0
H2801 H 0.89171 0.31812 0.28714 0.0
H2802 H 0.87549 0.34463 0.27926 0.0
H2803 H 0.86684 0.37506 0.28572 0.0
H2804 H 0.89235 0.40288 0.32819 0.0
H2805 H 0.91043 0.37711 0.33456 0.0
C2806 C 0.90853 0.34569 0.3184 0.0
C2807 C 0.90574 0.32996 0.30906 0.0
C2808 C 0.89902 0.36099 0.31401 0.0
C2809 C 0.89404 0.32999 0.29469 0.0
C2810 C 0.8847 0.34516 0.29015 0.0
C2811 C 0.87645 0.37554 0.29627 0.0
C2812 C 0.87808 0.39084 0.30654 0.0
C2813 C 0.88679 0.36062 0.29996 0.0
C2814 C 0.89072 0.39125 0.3201 0.0
C2815 C 0.90108 0.3765 0.32379 0.0
H2816 H 0.87721 0.12392 0.52218 0.0
H2817 H 0.84994 0.14235 0.56851 0.0
H2818 H 0.87442 0.16182 0.57549 0.0
H2819 H 0.9047 0.17175 0.56998 0.0
H2820 H 0.93203 0.15338 0.52367 0.0
H2821 H 0.90639 0.13612 0.51508 0.0
C2822 C 0.87655 0.13232 0.5337 0.0
C2823 C 0.86181 0.13147 0.54487 0.0
C2824 C 0.89073 0.14356 0.5377 0.0
C2825 C 0.86114 0.1426 0.55968 0.0
C2826 C 0.87516 0.15378 0.56373 0.0
C2827 C 0.90494 0.16425 0.55783 0.0
C2828 C 0.92037 0.16376 0.54761 0.0
C2829 C 0.89019 0.15412 0.55304 0.0
C2830 C 0.9204 0.15394 0.5319 0.0
C2831 C 0.90574 0.14397 0.52698 0.0
H2832 H 0.13287 0.12541 0.81041 0.0
H2833 H 0.12479 0.13308 0.75474 0.0
H2834 H 0.10495 0.15781 0.76088 0.0
H2835 H 0.09091 0.17796 0.78216 0.0
H2836 H 0.0981 0.16913 0.83786 0.0
H2837 H 0.11698 0.1439 0.8316 0.0
C2838 C 0.12681 0.13254 0.79961 0.0
C2839 C 0.13052 0.12765 0.78213 0.0
C2840 C 0.11512 0.14641 0.80326 0.0
C2841 C 0.12224 0.13671 0.76829 0.0
C2842 C 0.11088 0.15081 0.77181 0.0
C2843 C 0.09642 0.17038 0.79294 0.0
C2844 C 0.09314 0.17553 0.81046 0.0
C2845 C 0.10733 0.15585 0.78925 0.0
C2846 C 0.10032 0.16547 0.82426 0.0
C2847 C 0.11125 0.1511 0.82069 0.0
H2848 H 0.10466 0.66859 0.90195 0.0
H2849 H 0.08122 0.66944 0.95369 0.0
H2850 H 0.10685 0.65423 0.96578 0.0
H2851 H 0.13475 0.63813 0.96107 0.0
H2852 H 0.15822 0.63808 0.90933 0.0
H2853 H 0.13382 0.65545 0.89792 0.0
C2854 C 0.10527 0.6657 0.91593 0.0
C2855 C 0.09095 0.66998 0.92682 0.0
C2856 C 0.11999 0.65686 0.92279 0.0
C2857 C 0.09204 0.6663 0.94495 0.0
C2858 C 0.10665 0.65746 0.95188 0.0
C2859 C 0.13456 0.64205 0.94735 0.0
C2860 C 0.14819 0.63664 0.93605 0.0
C2861 C 0.1205 0.65224 0.94083 0.0
C2862 C 0.14789 0.64202 0.91833 0.0
C2863 C 0.13391 0.65195 0.91175 0.0
H2864 H 0.57742 0.36387 0.18325 0.0
H2865 H 0.61082 0.3244 0.20703 0.0
H2866 H 0.62971 0.34719 0.21909 0.0
H2867 H 0.63826 0.3782 0.22106 0.0
H2868 H 0.60498 0.41794 0.19773 0.0
H2869 H 0.58459 0.39528 0.1876 0.0
C2870 C 0.58871 0.36027 0.19124 0.0
C2871 C 0.59275 0.34239 0.19397 0.0
C2872 C 0.59967 0.37351 0.1982 0.0
C2873 C 0.6074 0.33801 0.20449 0.0
C2874 C 0.61829 0.35106 0.21143 0.0
C2875 C 0.62645 0.38193 0.21393 0.0
C2876 C 0.62329 0.39974 0.21004 0.0
C2877 C 0.61478 0.36883 0.20807 0.0
C2878 C 0.60781 0.40433 0.2009 0.0
C2879 C 0.59614 0.39136 0.19502 0.0
H2880 H 0.87221 0.85653 0.47999 0.0
H2881 H 0.88203 0.89694 0.44121 0.0
H2882 H 0.90529 0.87914 0.42823 0.0
H2883 H 0.92326 0.85244 0.42798 0.0
H2884 H 0.91546 0.81278 0.4678 0.0
H2885 H 0.89087 0.82977 0.48008 0.0
C2886 C 0.87948 0.86145 0.46874 0.0
C2887 C 0.87533 0.8781 0.46165 0.0
C2888 C 0.8931 0.85119 0.46138 0.0
C2889 C 0.88496 0.88427 0.44707 0.0
C2890 C 0.89823 0.87404 0.43953 0.0
C2891 C 0.916 0.84736 0.43918 0.0
C2892 C 0.92098 0.83124 0.4468 0.0
C2893 C 0.9024 0.8575 0.44654 0.0
C2894 C 0.91175 0.82508 0.4616 0.0
C2895 C 0.89777 0.83484 0.46867 0.0
H2896 H 0.37623 0.12525 0.71835 0.0
H2897 H 0.37646 0.09991 0.66748 0.0
H2898 H 0.39571 0.1227 0.65588 0.0
H2899 H 0.41084 0.15092 0.65943 0.0
H2900 H 0.41158 0.17616 0.71029 0.0
H2901 H 0.39397 0.15225 0.72265 0.0
C2902 C 0.38061 0.12468 0.70477 0.0
C2903 C 0.37476 0.11096 0.69379 0.0
C2904 C 0.39192 0.13781 0.69815 0.0
C2905 C 0.38072 0.1103 0.67626 0.0
C2906 C 0.39173 0.12337 0.66957 0.0
C2907 C 0.40737 0.15107 0.67328 0.0
C2908 C 0.41242 0.16538 0.68385 0.0
C2909 C 0.3972 0.13732 0.68029 0.0
C2910 C 0.40792 0.16529 0.70183 0.0
C2911 C 0.39771 0.15168 0.70889 0.0
H2912 H 0.06342 0.14338 0.36497 0.0
H2913 H 0.03955 0.11964 0.41079 0.0
H2914 H 0.04567 0.09041 0.39899 0.0
H2915 H 0.05929 0.07168 0.37675 0.0
H2916 H 0.08381 0.09496 0.3311 0.0
H2917 H 0.0758 0.12436 0.34174 0.0
C2918 C 0.05938 0.13182 0.3723 0.0
C2919 C 0.05111 0.13373 0.38882 0.0
C2920 C 0.06314 0.115 0.36554 0.0
C2921 C 0.04599 0.11859 0.39811 0.0
C2922 C 0.04951 0.10185 0.39138 0.0
C2923 C 0.06285 0.08315 0.36903 0.0
C2924 C 0.07228 0.08112 0.35321 0.0
C2925 C 0.05834 0.09992 0.37529 0.0
C2926 C 0.07659 0.09615 0.34333 0.0
C2927 C 0.07204 0.11295 0.34944 0.0
H2928 H 0.16258 0.30058 0.60084 0.0
H2929 H 0.13394 0.33815 0.56916 0.0
H2930 H 0.10669 0.33042 0.58441 0.0
H2931 H 0.09167 0.31521 0.60867 0.0
H2932 H 0.12063 0.27844 0.64099 0.0
H2933 H 0.14707 0.28361 0.62344 0.0
C2934 C 0.15035 0.30695 0.59708 0.0
C2935 C 0.15038 0.32009 0.58398 0.0
C2936 C 0.13481 0.3027 0.60614 0.0
C2937 C 0.13436 0.32806 0.57923 0.0
C2938 C 0.11877 0.3237 0.58801 0.0
C2939 C 0.1037 0.30815 0.61178 0.0
C2940 C 0.10419 0.29658 0.62627 0.0
C2941 C 0.11894 0.31138 0.60179 0.0
C2942 C 0.11988 0.28748 0.62999 0.0
C2943 C 0.13503 0.29046 0.61998 0.0
H2944 H 0.94273 0.42796 0.85342 0.0
H2945 H 0.91606 0.39601 0.8147 0.0
H2946 H 0.92684 0.36934 0.82923 0.0
H2947 H 0.94227 0.35517 0.85396 0.0
H2948 H 0.96792 0.38732 0.89319 0.0
H2949 H 0.95919 0.41388 0.87728 0.0
C2950 C 0.93933 0.41518 0.84804 0.0
C2951 C 0.92848 0.41403 0.83301 0.0
C2952 C 0.94537 0.39994 0.85658 0.0
C2953 C 0.92432 0.39732 0.82626 0.0
C2954 C 0.93047 0.38206 0.83458 0.0
C2955 C 0.94615 0.36797 0.85894 0.0
C2956 C 0.95572 0.36922 0.87481 0.0
C2957 C 0.94079 0.38321 0.84989 0.0
C2958 C 0.96054 0.38595 0.88106 0.0
C2959 C 0.95551 0.40115 0.87198 0.0
H2960 H 0.8343 0.21601 0.10769 0.0
H2961 H 0.85575 0.17395 0.07608 0.0
H2962 H 0.88501 0.17941 0.08849 0.0
H2963 H 0.90376 0.19428 0.11039 0.0
H2964 H 0.88179 0.23582 0.14242 0.0
H2965 H 0.85346 0.23243 0.12767 0.0
C2966 C 0.8454 0.20813 0.10335 0.0
C2967 C 0.8428 0.19446 0.09111 0.0
C2968 C 0.86206 0.21117 0.11072 0.0
C2969 C 0.85737 0.18454 0.08549 0.0
C2970 C 0.87409 0.1876 0.09266 0.0
C2971 C 0.89284 0.20274 0.11402 0.0
C2972 C 0.89488 0.21517 0.12765 0.0
C2973 C 0.87648 0.20059 0.10561 0.0
C2974 C 0.8806 0.22608 0.13208 0.0
C2975 C 0.86436 0.22413 0.12366 0.0
H2976 H 0.05773 0.85725 0.64436 0.0
H2977 H 0.0245 0.8823 0.60556 0.0
H2978 H 0.02927 0.91077 0.61967 0.0
H2979 H 0.04482 0.92882 0.64132 0.0
H2980 H 0.07869 0.90417 0.67975 0.0
H2981 H 0.0715 0.87519 0.6676 0.0
C2982 C 0.05136 0.8689 0.63908 0.0
C2983 C 0.0409 0.86764 0.62379 0.0
C2984 C 0.05433 0.88529 0.64715 0.0
C2985 C 0.03268 0.88287 0.61724 0.0
C2986 C 0.03543 0.89918 0.62528 0.0
C2987 C 0.05052 0.91711 0.64719 0.0
C2988 C 0.06243 0.91868 0.66132 0.0
C2989 C 0.04654 0.90058 0.63998 0.0
C2990 C 0.06951 0.90334 0.66886 0.0
C2991 C 0.06547 0.88678 0.66185 0.0
H2992 H 0.33956 0.28734 0.92396 0.0
H2993 H 0.35035 0.34233 0.91426 0.0
H2994 H 0.37396 0.3343 0.8941 0.0
H2995 H 0.39028 0.31182 0.87771 0.0
H2996 H 0.38057 0.25683 0.88792 0.0
H2997 H 0.3577 0.26472 0.90929 0.0
C2998 C 0.34724 0.29758 0.91766 0.0
C2999 C 0.34303 0.31543 0.92058 0.0
C3000 C 0.36081 0.29288 0.90594 0.0
C3001 C 0.35322 0.32849 0.9123 0.0
C3002 C 0.36668 0.32392 0.90065 0.0
C3003 C 0.38312 0.30155 0.88457 0.0
C3004 C 0.38687 0.28376 0.88103 0.0
C3005 C 0.37031 0.30618 0.89706 0.0
C3006 C 0.3778 0.27062 0.89033 0.0
C3007 C 0.36476 0.27513 0.90256 0.0
H3008 H 0.9676 0.62705 0.12704 0.0
H3009 H 0.91509 0.64843 0.12235 0.0
H3010 H 0.90377 0.62572 0.14177 0.0
H3011 H 0.90818 0.59879 0.15864 0.0
H3012 H 0.96038 0.57688 0.16377 0.0
H3013 H 0.97238 0.60093 0.14608 0.0
C3014 C 0.95371 0.62673 0.13033 0.0
C3015 C 0.94223 0.63937 0.12309 0.0
C3016 C 0.94719 0.6136 0.14171 0.0
C3017 C 0.92427 0.63889 0.12766 0.0
C3018 C 0.91773 0.62589 0.13881 0.0
C3019 C 0.92223 0.59938 0.15613 0.0
C3020 C 0.93329 0.58595 0.16243 0.0
C3021 C 0.92901 0.61306 0.14574 0.0
C3022 C 0.95151 0.58703 0.15911 0.0
C3023 C 0.95839 0.60073 0.14885 0.0
H3024 H 0.65089 0.15683 0.41082 0.0
H3025 H 0.6718 0.20928 0.41687 0.0
H3026 H 0.64674 0.22135 0.40066 0.0
H3027 H 0.62002 0.21668 0.3825 0.0
H3028 H 0.59913 0.16408 0.37737 0.0
H3029 H 0.62297 0.15252 0.39536 0.0
C3030 C 0.64985 0.17093 0.40884 0.0
C3031 C 0.6633 0.18207 0.41494 0.0
C3032 C 0.63546 0.17779 0.39942 0.0
C3033 C 0.66164 0.20035 0.41235 0.0
C3034 C 0.64736 0.20728 0.40294 0.0
C3035 C 0.62065 0.20272 0.38543 0.0
C3036 C 0.60787 0.19128 0.37843 0.0
C3037 C 0.6344 0.19608 0.39603 0.0
C3038 C 0.60877 0.17324 0.38254 0.0
C3039 C 0.62243 0.16656 0.39283 0.0
H3040 H 0.35497 0.04291 0.08279 0.0
H3041 H 0.33406 0.0935 0.09809 0.0
H3042 H 0.34714 0.09015 0.12732 0.0
H3043 H 0.36728 0.07439 0.14723 0.0
H3044 H 0.3889 0.02425 0.13134 0.0
H3045 H 0.37271 0.02591 0.10364 0.0
C3046 C 0.35302 0.05312 0.09258 0.0
C3047 C 0.34372 0.06854 0.08815 0.0
C3048 C 0.3609 0.05128 0.10919 0.0
C3049 C 0.34119 0.08152 0.1011 0.0
C3050 C 0.34878 0.07966 0.11779 0.0
C3051 C 0.36832 0.06372 0.13781 0.0
C3052 C 0.3795 0.04932 0.14129 0.0
C3053 C 0.35912 0.06485 0.12178 0.0
C3054 C 0.38052 0.03555 0.12897 0.0
C3055 C 0.37127 0.03649 0.1131 0.0
H3056 H 0.88563 0.97712 0.37409 0.0
H3057 H 0.87606 0.92498 0.35363 0.0
H3058 H 0.85598 0.91886 0.37785 0.0
H3059 H 0.84304 0.92731 0.40617 0.0
H3060 H 0.85235 0.97948 0.4267 0.0
H3061 H 0.87022 0.98663 0.40103 0.0
C3062 C 0.87905 0.96447 0.37488 0.0
C3063 C 0.88254 0.95148 0.36216 0.0
C3064 C 0.8674 0.96101 0.38886 0.0
C3065 C 0.87372 0.93523 0.36326 0.0
C3066 C 0.86221 0.93168 0.37713 0.0
C3067 C 0.8487 0.94036 0.4049 0.0
C3068 C 0.84649 0.95273 0.41849 0.0
C3069 C 0.85919 0.94435 0.39019 0.0
C3070 C 0.85389 0.96961 0.41652 0.0
C3071 C 0.86422 0.97371 0.40187 0.0
H3072 H 0.32811 0.08994 0.65753 0.0
H3073 H 0.27401 0.09591 0.67394 0.0
H3074 H 0.268 0.11423 0.64823 0.0
H3075 H 0.27887 0.13104 0.62265 0.0
H3076 H 0.33311 0.1251 0.60665 0.0
H3077 H 0.33821 0.1044 0.63057 0.0
C3078 C 0.31491 0.09494 0.65533 0.0
C3079 C 0.3016 0.09165 0.66779 0.0
C3080 C 0.31159 0.10576 0.64068 0.0
C3081 C 0.28457 0.09827 0.66465 0.0
C3082 C 0.28112 0.10886 0.64998 0.0
C3083 C 0.29175 0.1251 0.62431 0.0
C3084 C 0.30561 0.12983 0.61296 0.0
C3085 C 0.29466 0.11313 0.63818 0.0
C3086 C 0.32219 0.12185 0.61522 0.0
C3087 C 0.32516 0.10996 0.62892 0.0
H3088 H 0.13952 0.56758 0.8521 0.0
H3089 H 0.10676 0.52839 0.87699 0.0
H3090 H 0.12305 0.53203 0.90448 0.0
H3091 H 0.14434 0.54861 0.9222 0.0
H3092 H 0.17704 0.58793 0.89752 0.0
H3093 H 0.16321 0.58175 0.86907 0.0
C3094 C 0.13607 0.55968 0.86348 0.0
C3095 C 0.12176 0.54793 0.86257 0.0
C3096 C 0.14543 0.56191 0.87927 0.0
C3097 C 0.11763 0.5376 0.87735 0.0
C3098 C 0.12691 0.53972 0.8931 0.0
C3099 C 0.14863 0.55565 0.91054 0.0
C3100 C 0.16154 0.56885 0.91198 0.0
C3101 C 0.14049 0.55217 0.89433 0.0
C3102 C 0.16714 0.5777 0.89674 0.0
C3103 C 0.15914 0.57426 0.88051 0.0
H3104 H 0.22913 0.91667 0.16989 0.0
H3105 H 0.1736 0.91033 0.15931 0.0
H3106 H 0.18035 0.89095 0.13463 0.0
H3107 H 0.2018 0.87406 0.11745 0.0
H3108 H 0.25735 0.88013 0.12785 0.0
H3109 H 0.25077 0.90132 0.1512 0.0
C3110 C 0.21849 0.9113 0.16202 0.0
C3111 C 0.20086 0.91492 0.16657 0.0
C3112 C 0.22246 0.8999 0.14795 0.0
C3113 C 0.18729 0.90777 0.15619 0.0
C3114 C 0.19113 0.89659 0.1421 0.0
C3115 C 0.2125 0.88003 0.12478 0.0
C3116 C 0.23005 0.87533 0.12102 0.0
C3117 C 0.20863 0.89224 0.13813 0.0
C3118 C 0.24373 0.88342 0.13051 0.0
C3119 C 0.23997 0.89555 0.14387 0.0
H3120 H 0.64123 0.94217 0.14731 0.0
H3121 H 0.60297 0.97733 0.12414 0.0
H3122 H 0.61682 0.97362 0.09537 0.0
H3123 H 0.63838 0.95883 0.07651 0.0
H3124 H 0.67644 0.92333 0.09941 0.0
H3125 H 0.66411 0.92885 0.12866 0.0
C3126 C 0.636 0.94916 0.13601 0.0
C3127 C 0.62097 0.95991 0.13788 0.0
C3128 C 0.64392 0.94683 0.11946 0.0
C3129 C 0.61447 0.96894 0.1231 0.0
C3130 C 0.62235 0.96678 0.10662 0.0
C3131 C 0.64408 0.95235 0.0879 0.0
C3132 C 0.65821 0.94054 0.08575 0.0
C3133 C 0.63685 0.9555 0.1046 0.0
C3134 C 0.66554 0.93244 0.10068 0.0
C3135 C 0.65845 0.93556 0.1174 0.0
H3136 H 0.28773 0.37306 0.87843 0.0
H3137 H 0.32904 0.40123 0.90539 0.0
H3138 H 0.3361 0.41717 0.87842 0.0
H3139 H 0.33261 0.42085 0.84633 0.0
H3140 H 0.29216 0.39155 0.81932 0.0
H3141 H 0.2826 0.37857 0.84706 0.0
C3142 C 0.29809 0.38288 0.87849 0.0
C3143 C 0.30793 0.38579 0.89388 0.0
C3144 C 0.30234 0.39177 0.86283 0.0
C3145 C 0.32133 0.39859 0.89369 0.0
C3146 C 0.32541 0.40772 0.87825 0.0
C3147 C 0.32148 0.4119 0.84661 0.0
C3148 C 0.31319 0.40708 0.8308 0.0
C3149 C 0.31631 0.4041 0.86261 0.0
C3150 C 0.29887 0.39536 0.83131 0.0
C3151 C 0.2934 0.38789 0.84717 0.0
H3152 H 0.70553 0.1132 0.39631 0.0
H3153 H 0.7289 0.15813 0.3705 0.0
H3154 H 0.72208 0.1454 0.34182 0.0
H3155 H 0.70772 0.1227 0.32416 0.0
H3156 H 0.6835 0.07808 0.34963 0.0
H3157 H 0.69251 0.0895 0.3784 0.0
C3158 C 0.70935 0.12011 0.38442 0.0
C3159 C 0.71765 0.13666 0.38559 0.0
C3160 C 0.7051 0.11285 0.36793 0.0
C3161 C 0.72244 0.14542 0.37002 0.0
C3162 C 0.71851 0.13818 0.35359 0.0
C3163 C 0.70447 0.11538 0.33597 0.0
C3164 C 0.69481 0.09962 0.33473 0.0
C3165 C 0.70953 0.12209 0.35241 0.0
C3166 C 0.69086 0.09027 0.3502 0.0
C3167 C 0.69599 0.09681 0.36665 0.0
H3168 H 0.14579 0.8609 0.55661 0.0
H3169 H 0.12193 0.90348 0.52738 0.0
H3170 H 0.09281 0.89108 0.53273 0.0
H3171 H 0.07406 0.86939 0.54719 0.0
H3172 H 0.09744 0.82712 0.57717 0.0
H3173 H 0.12687 0.83813 0.56992 0.0
C3174 C 0.13425 0.86737 0.55123 0.0
C3175 C 0.13607 0.88317 0.54167 0.0
C3176 C 0.11747 0.8603 0.55459 0.0
C3177 C 0.12094 0.89136 0.53484 0.0
C3178 C 0.10426 0.8843 0.53792 0.0
C3179 C 0.08557 0.86248 0.55209 0.0
C3180 C 0.08353 0.84752 0.56284 0.0
C3181 C 0.10236 0.86897 0.54803 0.0
C3182 C 0.09862 0.83869 0.56892 0.0
C3183 C 0.11545 0.84501 0.5648 0.0
H3184 H 0.89683 0.82738 0.78122 0.0
H3185 H 0.93021 0.84558 0.82345 0.0
H3186 H 0.91853 0.8754 0.81994 0.0
H3187 H 0.89646 0.89537 0.80715 0.0
H3188 H 0.86261 0.87688 0.76538 0.0
H3189 H 0.87695 0.84809 0.76639 0.0
C3190 C 0.90176 0.83792 0.7895 0.0
C3191 C 0.91424 0.8342 0.80272 0.0
C3192 C 0.89476 0.85492 0.78761 0.0
C3193 C 0.92062 0.84806 0.81318 0.0
C3194 C 0.91384 0.86509 0.81126 0.0
C3195 C 0.89233 0.88511 0.79812 0.0
C3196 C 0.87829 0.88822 0.78636 0.0
C3197 C 0.90052 0.86853 0.79888 0.0
C3198 C 0.87329 0.87484 0.77462 0.0
C3199 C 0.88146 0.85834 0.77522 0.0
H3200 H 0.87708 0.61961 0.02648 0.0
H3201 H 0.84804 0.64617 0.06746 0.0
H3202 H 0.87411 0.66321 0.07522 0.0
H3203 H 0.90613 0.66827 0.07254 0.0
H3204 H 0.93509 0.64113 0.03192 0.0
H3205 H 0.90817 0.62695 0.02176 0.0
C3206 C 0.87637 0.6293 0.03694 0.0
C3207 C 0.86065 0.63139 0.04648 0.0
C3208 C 0.89149 0.63898 0.0415 0.0
C3209 C 0.85999 0.64413 0.05994 0.0
C3210 C 0.87492 0.65391 0.06444 0.0
C3211 C 0.90644 0.65959 0.06122 0.0
C3212 C 0.92261 0.65566 0.05311 0.0
C3213 C 0.89089 0.65113 0.05562 0.0
C3214 C 0.92283 0.64426 0.03851 0.0
C3215 C 0.90744 0.63609 0.0327 0.0
H3216 H 0.07514 0.64334 0.33013 0.0
H3217 H 0.10381 0.6783 0.29572 0.0
H3218 H 0.12247 0.65402 0.28618 0.0
H3219 H 0.13268 0.6235 0.28983 0.0
H3220 H 0.10415 0.58863 0.32444 0.0
H3221 H 0.08349 0.61211 0.3315 0.0
C3222 C 0.08524 0.64559 0.32029 0.0
C3223 C 0.08815 0.66269 0.31385 0.0
C3224 C 0.09617 0.63158 0.31502 0.0
C3225 C 0.10133 0.66532 0.30107 0.0
C3226 C 0.11209 0.65143 0.29562 0.0
C3227 C 0.12183 0.62098 0.29876 0.0
C3228 C 0.12016 0.60436 0.30674 0.0
C3229 C 0.10997 0.63462 0.30288 0.0
C3230 C 0.1059 0.60131 0.31818 0.0
C3231 C 0.09403 0.61476 0.32227 0.0
H3232 H 0.16232 0.14697 0.43014 0.0
H3233 H 0.13838 0.12701 0.47764 0.0
H3234 H 0.11214 0.14479 0.47206 0.0
H3235 H 0.09501 0.1637 0.45235 0.0
H3236 H 0.11805 0.18204 0.40376 0.0
H3237 H 0.14576 0.1674 0.41126 0.0
C3238 C 0.15147 0.14669 0.43941 0.0
C3239 C 0.15228 0.13559 0.45425 0.0
C3240 C 0.13624 0.15661 0.43588 0.0
C3241 C 0.13806 0.13534 0.46607 0.0
C3242 C 0.12305 0.1455 0.46288 0.0
C3243 C 0.10617 0.16478 0.44351 0.0
C3244 C 0.10441 0.17391 0.42746 0.0
C3245 C 0.12184 0.15586 0.44763 0.0
C3246 C 0.11902 0.17506 0.41616 0.0
C3247 C 0.13484 0.16663 0.42041 0.0
H3248 H 0.63773 0.88739 0.69379 0.0
H3249 H 0.62087 0.88712 0.74797 0.0
H3250 H 0.59973 0.86358 0.74139 0.0
H3251 H 0.5869 0.84236 0.72025 0.0
H3252 H 0.60317 0.84419 0.66578 0.0
H3253 H 0.62342 0.86808 0.67243 0.0
C3254 C 0.62949 0.88212 0.70419 0.0
C3255 C 0.63107 0.88872 0.72141 0.0
C3256 C 0.61713 0.869 0.70021 0.0
C3257 C 0.61999 0.88211 0.73465 0.0
C3258 C 0.60789 0.8687 0.73087 0.0
C3259 C 0.59469 0.84814 0.70978 0.0
C3260 C 0.59354 0.84134 0.69255 0.0
C3261 C 0.60641 0.86197 0.71369 0.0
C3262 C 0.60372 0.84909 0.67916 0.0
C3263 C 0.61543 0.86271 0.68296 0.0
H3264 H 0.91521 0.34984 0.94699 0.0
H3265 H 0.88919 0.33345 0.89919 0.0
H3266 H 0.86247 0.34894 0.90825 0.0
H3267 H 0.84738 0.36902 0.92848 0.0
H3268 H 0.87387 0.38689 0.97548 0.0
H3269 H 0.89952 0.36888 0.968 0.0
C3270 C 0.9036 0.34939 0.93867 0.0
C3271 C 0.90422 0.34048 0.9224 0.0
C3272 C 0.88843 0.35876 0.94373 0.0
C3273 C 0.88909 0.34021 0.91175 0.0
C3274 C 0.87382 0.34912 0.9169 0.0
C3275 C 0.85868 0.36888 0.93721 0.0
C3276 C 0.8587 0.37939 0.9525 0.0
C3277 C 0.87348 0.35875 0.93266 0.0
C3278 C 0.8735 0.37901 0.9636 0.0
C3279 C 0.88819 0.36871 0.95932 0.0
H3280 H 0.38543 0.68247 0.21785 0.0
H3281 H 0.42809 0.6577 0.1896 0.0
H3282 H 0.416 0.62868 0.19661 0.0
H3283 H 0.3922 0.61052 0.20899 0.0
H3284 H 0.34905 0.63562 0.23623 0.0
H3285 H 0.36256 0.66437 0.23145 0.0
C3286 C 0.3922 0.67074 0.21332 0.0
C3287 C 0.4076 0.67229 0.20311 0.0
C3288 C 0.38505 0.65416 0.21716 0.0
C3289 C 0.4162 0.65691 0.19743 0.0
C3290 C 0.40927 0.64031 0.20141 0.0
C3291 C 0.38584 0.62225 0.21407 0.0
C3292 C 0.36957 0.62089 0.2229 0.0
C3293 C 0.39353 0.63879 0.21101 0.0
C3294 C 0.36152 0.63626 0.22934 0.0
C3295 C 0.36923 0.65272 0.22659 0.0
H3296 H 0.02553 0.58506 0.83979 0.0
H3297 H 0.08122 0.59627 0.84192 0.0
H3298 H 0.07554 0.62145 0.8611 0.0
H3299 H 0.05498 0.63907 0.8789 0.0
H3300 H 0.99925 0.62829 0.87628 0.0
H3301 H 0.00476 0.60409 0.85576 0.0
C3302 C 0.03643 0.59314 0.84425 0.0
C3303 C 0.05379 0.58867 0.83947 0.0
C3304 C 0.03308 0.60753 0.85541 0.0
C3305 C 0.06772 0.59939 0.84532 0.0
C3306 C 0.0645 0.61373 0.85642 0.0
C3307 C 0.04403 0.63142 0.87384 0.0
C3308 C 0.02673 0.63533 0.87931 0.0
C3309 C 0.04727 0.61769 0.86185 0.0
C3310 C 0.01269 0.6255 0.87237 0.0
C3311 C 0.01583 0.61167 0.86062 0.0
H3312 H 0.1515 0.84359 0.09398 0.0
H3313 H 0.18043 0.79471 0.09436 0.0
H3314 H 0.15644 0.78041 0.11036 0.0
H3315 H 0.12797 0.78244 0.12629 0.0
H3316 H 0.09898 0.83133 0.1246 0.0
H3317 H 0.12217 0.84486 0.10722 0.0
C3318 C 0.15246 0.82974 0.09734 0.0
C3319 C 0.16779 0.8203 0.09307 0.0
C3320 C 0.13864 0.8216 0.10654 0.0
C3321 C 0.16875 0.80231 0.09742 0.0
C3322 C 0.15508 0.79413 0.10671 0.0
C3323 C 0.12672 0.79601 0.122 0.0
C3324 C 0.1118 0.80586 0.12688 0.0
C3325 C 0.1401 0.80375 0.11169 0.0
C3326 C 0.11029 0.82339 0.12105 0.0
C3327 C 0.12358 0.8312 0.11111 0.0
H3328 H 0.96121 0.86194 0.37372 0.0
H3329 H 0.99347 0.89173 0.40985 0.0
H3330 H 0.98758 0.91855 0.39321 0.0
H3331 H 0.97136 0.93394 0.37012 0.0
H3332 H 0.93811 0.90479 0.33446 0.0
H3333 H 0.9465 0.87727 0.34908 0.0
C3334 C 0.96716 0.87425 0.37782 0.0
C3335 C 0.97767 0.87482 0.39313 0.0
C3336 C 0.96345 0.88975 0.36834 0.0
C3337 C 0.98524 0.8909 0.39822 0.0
C3338 C 0.98186 0.90627 0.38872 0.0
C3339 C 0.96604 0.92157 0.36539 0.0
C3340 C 0.95398 0.92147 0.3513 0.0
C3341 C 0.97067 0.90591 0.37403 0.0
C3342 C 0.94738 0.90527 0.34529 0.0
C3343 C 0.95212 0.88953 0.3537 0.0
H3344 H 0.85306 0.65036 0.59332 0.0
H3345 H 0.83095 0.70255 0.58929 0.0
H3346 H 0.85551 0.71447 0.60628 0.0
H3347 H 0.88229 0.70967 0.62428 0.0
H3348 H 0.90456 0.65746 0.62721 0.0
H3349 H 0.88097 0.64603 0.6088 0.0
C3350 C 0.85373 0.66438 0.59595 0.0
C3351 C 0.84011 0.67548 0.59016 0.0
C3352 C 0.86785 0.67116 0.60575 0.0
C3353 C 0.84127 0.69366 0.59356 0.0
C3354 C 0.85526 0.7005 0.6034 0.0
C3355 C 0.88197 0.69583 0.6208 0.0
C3356 C 0.89507 0.68443 0.62723 0.0
C3357 C 0.86843 0.68931 0.60992 0.0
C3358 C 0.89465 0.66655 0.62244 0.0
C3359 C 0.88114 0.65996 0.61191 0.0
H3360 H 0.08581 0.35147 0.12948 0.0
H3361 H 0.03515 0.37494 0.11867 0.0
H3362 H 0.04144 0.39845 0.13975 0.0
H3363 H 0.06231 0.41358 0.15934 0.0
H3364 H 0.11351 0.39073 0.16887 0.0
H3365 H 0.10587 0.36556 0.15039 0.0
C3366 C 0.07605 0.36164 0.13181 0.0
C3367 C 0.06008 0.36151 0.12237 0.0
C3368 C 0.07985 0.37522 0.14374 0.0
C3369 C 0.04758 0.37476 0.12566 0.0
C3370 C 0.05118 0.38822 0.13772 0.0
C3371 C 0.07169 0.40294 0.15765 0.0
C3372 C 0.0885 0.40407 0.16545 0.0
C3373 C 0.0674 0.38875 0.14659 0.0
C3374 C 0.10052 0.39022 0.16299 0.0
C3375 C 0.09619 0.37586 0.15236 0.0
H3376 H 0.36854 0.84876 0.42063 0.0
H3377 H 0.33711 0.80277 0.40964 0.0
H3378 H 0.36131 0.78994 0.39282 0.0
H3379 H 0.3908 0.79275 0.37935 0.0
H3380 H 0.42278 0.83791 0.392 0.0
H3381 H 0.39909 0.85003 0.40998 0.0
C3382 C 0.36709 0.83583 0.41476 0.0
C3383 C 0.35101 0.82683 0.41629 0.0
C3384 C 0.38113 0.82842 0.40523 0.0
C3385 C 0.34937 0.80999 0.40873 0.0
C3386 C 0.36317 0.80267 0.39898 0.0
C3387 C 0.39257 0.80516 0.38617 0.0
C3388 C 0.40843 0.81448 0.38424 0.0
C3389 C 0.37899 0.81192 0.39683 0.0
C3390 C 0.41069 0.83046 0.39331 0.0
C3391 C 0.39713 0.83744 0.40356 0.0
H3392 H 0.96473 0.13692 0.62656 0.0
H3393 H 0.912 0.15816 0.62427 0.0
H3394 H 0.90151 0.13492 0.6436 0.0
H3395 H 0.90665 0.10727 0.65926 0.0
H3396 H 0.95921 0.08575 0.66191 0.0
H3397 H 0.97039 0.1105 0.64471 0.0
C3398 C 0.95098 0.13652 0.63041 0.0
C3399 C 0.93917 0.14918 0.62378 0.0
C3400 C 0.94496 0.12306 0.64165 0.0
C3401 C 0.92142 0.14857 0.62907 0.0
C3402 C 0.91536 0.13525 0.64014 0.0
C3403 C 0.9206 0.10811 0.65632 0.0
C3404 C 0.932 0.09457 0.66175 0.0
C3405 C 0.92693 0.12225 0.64625 0.0
C3406 C 0.95008 0.09597 0.6579 0.0
C3407 C 0.9565 0.11007 0.64795 0.0
H3408 H 0.6278 0.72511 0.87472 0.0
H3409 H 0.58621 0.70218 0.90589 0.0
H3410 H 0.60786 0.68997 0.92622 0.0
H3411 H 0.63876 0.68365 0.93384 0.0
H3412 H 0.68026 0.70701 0.90281 0.0
H3413 H 0.65856 0.72125 0.88403 0.0
C3414 C 0.62346 0.7176 0.88606 0.0
C3415 C 0.6054 0.71443 0.88861 0.0
C3416 C 0.636 0.71057 0.89777 0.0
C3417 C 0.60003 0.7048 0.9035 0.0
C3418 C 0.61241 0.69774 0.91516 0.0
C3419 C 0.64306 0.69205 0.92313 0.0
C3420 C 0.66116 0.694 0.91968 0.0
C3421 C 0.63046 0.70023 0.91223 0.0
C3422 C 0.66644 0.70507 0.90576 0.0
C3423 C 0.65402 0.71323 0.89493 0.0
H3424 H 0.33925 0.59179 0.60745 0.0
H3425 H 0.34721 0.54595 0.57489 0.0
H3426 H 0.36342 0.53157 0.59863 0.0
H3427 H 0.3777 0.53309 0.62785 0.0
H3428 H 0.36809 0.57819 0.66098 0.0
H3429 H 0.35022 0.5917 0.63794 0.0
C3430 C 0.34428 0.57854 0.60567 0.0
C3431 C 0.34213 0.57005 0.58937 0.0
C3432 C 0.3535 0.57026 0.61945 0.0
C3433 C 0.3486 0.5528 0.58731 0.0
C3434 C 0.35802 0.5446 0.60085 0.0
C3435 C 0.37152 0.54578 0.63005 0.0
C3436 C 0.37435 0.55469 0.64602 0.0
C3437 C 0.36093 0.55337 0.61683 0.0
C3438 C 0.3661 0.57103 0.64881 0.0
C3439 C 0.35592 0.57882 0.63561 0.0
H3440 H 0.84799 0.47124 0.92444 0.0
H3441 H 0.82423 0.42245 0.90759 0.0
H3442 H 0.83774 0.42578 0.87857 0.0
H3443 H 0.85891 0.44082 0.85925 0.0
H3444 H 0.8834 0.48907 0.87664 0.0
H3445 H 0.86689 0.48768 0.90417 0.0
C3446 C 0.84553 0.46144 0.91436 0.0
C3447 C 0.83527 0.44651 0.91828 0.0
C3448 C 0.85364 0.46324 0.89785 0.0
C3449 C 0.8321 0.43405 0.90497 0.0
C3450 C 0.83992 0.43589 0.88839 0.0
C3451 C 0.8605 0.45116 0.86896 0.0
C3452 C 0.87258 0.46491 0.86595 0.0
C3453 C 0.85114 0.45016 0.88488 0.0
C3454 C 0.87432 0.47827 0.87864 0.0
C3455 C 0.8649 0.47747 0.89442 0.0
H3456 H 0.2877 0.6286 0.12781 0.0
H3457 H 0.33748 0.62308 0.1009 0.0
H3458 H 0.34866 0.60472 0.12462 0.0
H3459 H 0.34516 0.59174 0.15388 0.0
H3460 H 0.29533 0.59624 0.18077 0.0
H3461 H 0.2833 0.61313 0.15616 0.0
C3462 C 0.30094 0.62327 0.12712 0.0
C3463 C 0.31175 0.62737 0.11266 0.0
C3464 C 0.30732 0.61248 0.14081 0.0
C3465 C 0.32883 0.62019 0.11187 0.0
C3466 C 0.33529 0.60968 0.12546 0.0
C3467 C 0.3316 0.59621 0.15427 0.0
C3468 C 0.32125 0.59283 0.1692 0.0
C3469 C 0.32476 0.60594 0.1401 0.0
C3470 C 0.30363 0.59862 0.16942 0.0
C3471 C 0.29675 0.6084 0.15539 0.0
H3472 H 0.16557 0.05625 0.42248 0.0
H3473 H 0.19174 0.09499 0.39015 0.0
H3474 H 0.17589 0.08428 0.3643 0.0
H3475 H 0.15283 0.0657 0.3514 0.0
H3476 H 0.12593 0.0276 0.38385 0.0
H3477 H 0.14396 0.03622 0.40909 0.0
C3478 C 0.168 0.06224 0.40975 0.0
C3479 C 0.17978 0.07654 0.40834 0.0
C3480 C 0.15861 0.05621 0.39497 0.0
C3481 C 0.18274 0.08404 0.39169 0.0
C3482 C 0.17362 0.07795 0.37689 0.0
C3483 C 0.151 0.05912 0.36393 0.0
C3484 C 0.13791 0.04609 0.36571 0.0
C3485 C 0.16124 0.06432 0.37845 0.0
C3486 C 0.13584 0.03769 0.38207 0.0
C3487 C 0.14613 0.04266 0.39654 0.0
H3488 H 0.21395 0.37406 0.62942 0.0
H3489 H 0.1674 0.38406 0.59833 0.0
H3490 H 0.15621 0.4039 0.62084 0.0
H3491 H 0.15853 0.41689 0.65025 0.0
H3492 H 0.20543 0.40812 0.68112 0.0
H3493 H 0.21765 0.3897 0.65779 0.0
C3494 C 0.20143 0.38069 0.62757 0.0
C3495 C 0.19148 0.37743 0.6123 0.0
C3496 C 0.1951 0.39237 0.64052 0.0
C3497 C 0.17536 0.3863 0.60996 0.0
C3498 C 0.1689 0.39765 0.62285 0.0
C3499 C 0.17153 0.41116 0.65177 0.0
C3500 C 0.18094 0.41377 0.66748 0.0
C3501 C 0.17851 0.40059 0.6383 0.0
C3502 C 0.19786 0.40636 0.66916 0.0
C3503 C 0.20483 0.3957 0.65586 0.0
H3504 H 0.67022 0.42643 0.60269 0.0
H3505 H 0.65475 0.47362 0.57502 0.0
H3506 H 0.63613 0.48227 0.5997 0.0
H3507 H 0.62193 0.47499 0.62797 0.0
H3508 H 0.6377 0.42781 0.65551 0.0
H3509 H 0.65841 0.42072 0.63214 0.0
C3510 C 0.66303 0.43876 0.60216 0.0
C3511 C 0.66376 0.44922 0.5869 0.0
C3512 C 0.65215 0.44359 0.61632 0.0
C3513 C 0.65439 0.46522 0.58654 0.0
C3514 C 0.64363 0.47016 0.60062 0.0
C3515 C 0.63002 0.46325 0.62892 0.0
C3516 C 0.62806 0.45187 0.64339 0.0
C3517 C 0.64201 0.4592 0.61538 0.0
C3518 C 0.63881 0.4368 0.6445 0.0
C3519 C 0.65069 0.43268 0.63111 0.0
H3520 H 0.29479 0.85896 0.37331 0.0
H3521 H 0.30852 0.90423 0.40475 0.0
H3522 H 0.31754 0.92011 0.37827 0.0
H3523 H 0.32365 0.9203 0.34624 0.0
H3524 H 0.31033 0.87443 0.31543 0.0
H3525 H 0.29906 0.85979 0.34151 0.0
C3526 C 0.29956 0.87237 0.37439 0.0
C3527 C 0.30108 0.8803 0.39103 0.0
C3528 C 0.30498 0.88134 0.35917 0.0
C3529 C 0.30726 0.89774 0.39212 0.0
C3530 C 0.31249 0.90684 0.37697 0.0
C3531 C 0.31812 0.90718 0.34525 0.0
C3532 C 0.31803 0.89845 0.32891 0.0
C3533 C 0.31175 0.89864 0.36044 0.0
C3534 C 0.31078 0.88144 0.32784 0.0
C3535 C 0.30428 0.87301 0.34277 0.0
H3536 H 0.65116 0.58579 0.86583 0.0
H3537 H 0.69739 0.5897 0.83302 0.0
H3538 H 0.71231 0.60682 0.85575 0.0
H3539 H 0.71099 0.62351 0.88363 0.0
H3540 H 0.66457 0.61932 0.91618 0.0
H3541 H 0.65111 0.59954 0.89493 0.0
C3542 C 0.66461 0.59011 0.86375 0.0
C3543 C 0.67301 0.58662 0.84764 0.0
C3544 C 0.67306 0.60016 0.87677 0.0
C3545 C 0.69053 0.59221 0.84527 0.0
C3546 C 0.69906 0.60214 0.85822 0.0
C3547 C 0.69802 0.61811 0.88615 0.0
C3548 C 0.68874 0.62314 0.90138 0.0
C3549 C 0.69025 0.60666 0.87381 0.0
C3550 C 0.67201 0.61584 0.90453 0.0
C3551 C 0.66424 0.6045 0.89236 0.0
H3552 H 0.63686 0.36794 0.54321 0.0
H3553 H 0.6601 0.36921 0.59509 0.0
H3554 H 0.6372 0.34978 0.60613 0.0
H3555 H 0.60916 0.33454 0.60185 0.0
H3556 H 0.5857 0.33282 0.55013 0.0
H3557 H 0.6102 0.34992 0.53825 0.0
C3558 C 0.63699 0.36382 0.55688 0.0
C3559 C 0.65009 0.37025 0.56832 0.0
C3560 C 0.62372 0.35252 0.56323 0.0
C3561 C 0.65016 0.3646 0.58597 0.0
C3562 C 0.63703 0.35347 0.59234 0.0
C3563 C 0.60952 0.33765 0.58792 0.0
C3564 C 0.59549 0.33254 0.57698 0.0
C3565 C 0.62355 0.34765 0.5812 0.0
C3566 C 0.59629 0.33658 0.55891 0.0
C3567 C 0.61026 0.34649 0.5521 0.0
H3568 H 0.4141 0.33649 0.80811 0.0
H3569 H 0.42363 0.35928 0.85929 0.0
H3570 H 0.40869 0.38628 0.8502 0.0
H3571 H 0.39044 0.40215 0.82892 0.0
H3572 H 0.37927 0.37884 0.77831 0.0
H3573 H 0.39743 0.35333 0.78597 0.0
C3574 C 0.41323 0.34749 0.81717 0.0
C3575 C 0.41995 0.34584 0.83439 0.0
C3576 C 0.40413 0.36279 0.81204 0.0
C3577 C 0.41854 0.36018 0.84599 0.0
C3578 C 0.40993 0.3756 0.84082 0.0
C3579 C 0.3921 0.3916 0.81945 0.0
C3580 C 0.38336 0.39237 0.8031 0.0
C3581 C 0.40226 0.37685 0.82407 0.0
C3582 C 0.38575 0.37856 0.79102 0.0
C3583 C 0.39613 0.36396 0.7954 0.0
H3584 H 0.42749 0.15306 0.07626 0.0
H3585 H 0.41538 0.19893 0.04514 0.0
H3586 H 0.38991 0.18367 0.03228 0.0
H3587 H 0.37126 0.15699 0.02987 0.0
H3588 H 0.38561 0.11046 0.05924 0.0
H3589 H 0.41019 0.12616 0.07259 0.0
C3590 C 0.41912 0.15979 0.06683 0.0
C3591 C 0.42299 0.17721 0.06193 0.0
C3592 C 0.40508 0.15071 0.05899 0.0
C3593 C 0.41245 0.1856 0.04927 0.0
C3594 C 0.39797 0.17684 0.04188 0.0
C3595 C 0.37986 0.15028 0.0391 0.0
C3596 C 0.37657 0.13257 0.04355 0.0
C3597 C 0.39421 0.15934 0.04658 0.0
C3598 C 0.38789 0.12402 0.05545 0.0
C3599 C 0.40189 0.13303 0.06321 0.0
H3600 H 0.61185 0.17748 0.29207 0.0
H3601 H 0.57417 0.15468 0.32794 0.0
H3602 H 0.58645 0.1254 0.32234 0.0
H3603 H 0.60988 0.10689 0.30965 0.0
H3604 H 0.64806 0.13018 0.27455 0.0
H3605 H 0.63351 0.15867 0.27743 0.0
C3606 C 0.60615 0.16609 0.29851 0.0
C3607 C 0.59223 0.1683 0.31055 0.0
C3608 C 0.61348 0.14941 0.2955 0.0
C3609 C 0.58489 0.15336 0.31862 0.0
C3610 C 0.59199 0.13663 0.31551 0.0
C3611 C 0.61491 0.11814 0.30246 0.0
C3612 C 0.63019 0.11641 0.29205 0.0
C3613 C 0.6066 0.13458 0.30435 0.0
C3614 C 0.63642 0.13112 0.28274 0.0
C3615 C 0.62812 0.14745 0.2844 0.0
H3616 H 0.57944 0.63524 0.4659 0.0
H3617 H 0.60181 0.66779 0.42509 0.0
H3618 H 0.63071 0.65445 0.43014 0.0
H3619 H 0.64875 0.63141 0.444 0.0
H3620 H 0.62619 0.59872 0.48464 0.0
H3621 H 0.59821 0.61437 0.48187 0.0
C3622 C 0.59068 0.63958 0.45825 0.0
C3623 C 0.58844 0.65233 0.44498 0.0
C3624 C 0.60717 0.63173 0.46109 0.0
C3625 C 0.60317 0.65799 0.43536 0.0
C3626 C 0.61968 0.65029 0.43817 0.0
C3627 C 0.63777 0.62781 0.45239 0.0
C3628 C 0.63949 0.61374 0.46434 0.0
C3629 C 0.6217 0.6368 0.45065 0.0
C3630 C 0.62521 0.60943 0.47527 0.0
C3631 C 0.60918 0.61834 0.47366 0.0
H3632 H 0.10677 0.39883 0.70098 0.0
H3633 H 0.14714 0.37256 0.73128 0.0
H3634 H 0.13388 0.34413 0.72461 0.0
H3635 H 0.11226 0.32662 0.7086 0.0
H3636 H 0.07198 0.35227 0.67779 0.0
H3637 H 0.08371 0.38111 0.68636 0.0
C3638 C 0.11254 0.38691 0.70632 0.0
C3639 C 0.12803 0.38787 0.71654 0.0
C3640 C 0.10495 0.3705 0.70223 0.0
C3641 C 0.1353 0.37225 0.72332 0.0
C3642 C 0.12775 0.35596 0.71948 0.0
C3643 C 0.10595 0.3385 0.70379 0.0
C3644 C 0.09137 0.33729 0.6924 0.0
C3645 C 0.11281 0.35492 0.70867 0.0
C3646 C 0.08324 0.35283 0.68652 0.0
C3647 C 0.08998 0.36931 0.69139 0.0
H3648 H 0.35039 0.8714 0.93448 0.0
H3649 H 0.37942 0.89183 0.97885 0.0
H3650 H 0.4048 0.87367 0.97074 0.0
H3651 H 0.41949 0.85383 0.94964 0.0
H3652 H 0.39079 0.83502 0.90435 0.0
H3653 H 0.36446 0.85055 0.91437 0.0
C3654 C 0.36219 0.87179 0.94253 0.0
C3655 C 0.363 0.88306 0.95723 0.0
C3656 C 0.37682 0.86159 0.93758 0.0
C3657 C 0.37844 0.88334 0.96744 0.0
C3658 C 0.39297 0.87296 0.96279 0.0
C3659 C 0.40738 0.85285 0.94213 0.0
C3660 C 0.40712 0.84324 0.92625 0.0
C3661 C 0.39241 0.86227 0.9477 0.0
C3662 C 0.39137 0.84232 0.91658 0.0
C3663 C 0.37632 0.85125 0.92228 0.0
H3664 H 0.89508 0.18277 0.20918 0.0
H3665 H 0.93188 0.15999 0.17236 0.0
H3666 H 0.92003 0.13065 0.17854 0.0
H3667 H 0.89767 0.11193 0.19269 0.0
H3668 H 0.86068 0.1351 0.22914 0.0
H3669 H 0.87429 0.16387 0.22487 0.0
C3670 C 0.90063 0.17139 0.20257 0.0
C3671 C 0.91423 0.17359 0.19017 0.0
C3672 C 0.89366 0.15466 0.20607 0.0
C3673 C 0.92139 0.15867 0.18192 0.0
C3674 C 0.91456 0.1419 0.18541 0.0
C3675 C 0.89268 0.12323 0.19985 0.0
C3676 C 0.87804 0.12136 0.21111 0.0
C3677 C 0.90047 0.1398 0.1972 0.0
C3678 C 0.87185 0.13614 0.22035 0.0
C3679 C 0.8796 0.15263 0.21788 0.0
H3680 H 0.55746 0.14761 0.86527 0.0
H3681 H 0.5341 0.12021 0.90926 0.0
H3682 H 0.54065 0.09201 0.89533 0.0
H3683 H 0.5548 0.07519 0.87185 0.0
H3684 H 0.57888 0.10226 0.82809 0.0
H3685 H 0.57013 0.13061 0.84074 0.0
C3686 C 0.55361 0.13549 0.87174 0.0
C3687 C 0.54539 0.13606 0.88838 0.0
C3688 C 0.55765 0.11928 0.86376 0.0
C3689 C 0.54049 0.12019 0.89651 0.0
C3690 C 0.54427 0.10404 0.88857 0.0
C3691 C 0.55807 0.08727 0.86497 0.0
C3692 C 0.56764 0.0866 0.84911 0.0
C3693 C 0.55316 0.10344 0.87239 0.0
C3694 C 0.57158 0.10239 0.84034 0.0
C3695 C 0.56661 0.1186 0.84759 0.0
H3696 H 0.62941 0.27529 0.13466 0.0
H3697 H 0.60784 0.3265 0.12255 0.0
H3698 H 0.63165 0.33194 0.10187 0.0
H3699 H 0.66016 0.32351 0.08933 0.0
H3700 H 0.68223 0.27261 0.10166 0.0
H3701 H 0.65659 0.26564 0.11972 0.0
C3702 C 0.62982 0.28755 0.12735 0.0
C3703 C 0.61694 0.30053 0.13039 0.0
C3704 C 0.64368 0.2907 0.11544 0.0
C3705 C 0.61763 0.3163 0.12066 0.0
C3706 C 0.63127 0.31946 0.10877 0.0
C3707 C 0.6592 0.31074 0.09563 0.0
C3708 C 0.67319 0.29869 0.09423 0.0
C3709 C 0.64458 0.30693 0.10634 0.0
C3710 C 0.67171 0.28221 0.10258 0.0
C3711 C 0.65707 0.27822 0.11301 0.0
H3712 H 0.47014 0.37319 0.38337 0.0
H3713 H 0.43257 0.33594 0.36276 0.0
H3714 H 0.41939 0.35886 0.34452 0.0
H3715 H 0.41706 0.3901 0.33605 0.0
H3716 H 0.45574 0.42696 0.35534 0.0
H3717 H 0.46997 0.40366 0.37221 0.0
C3718 C 0.45921 0.37007 0.37472 0.0
C3719 C 0.45228 0.35292 0.37455 0.0
C3720 C 0.4518 0.38329 0.36404 0.0
C3721 C 0.43821 0.34902 0.36314 0.0
C3722 C 0.43058 0.36215 0.35275 0.0
C3723 C 0.42873 0.39296 0.34378 0.0
C3724 C 0.43519 0.41028 0.34453 0.0
C3725 C 0.43704 0.37942 0.35333 0.0
C3726 C 0.45045 0.41375 0.35448 0.0
C3727 C 0.45858 0.40044 0.36423 0.0
H3728 H 0.32491 0.22869 0.60891 0.0
H3729 H 0.34956 0.18094 0.59038 0.0
H3730 H 0.376 0.18782 0.60747 0.0
H3731 H 0.39096 0.20602 0.62977 0.0
H3732 H 0.36575 0.25334 0.64874 0.0
H3733 H 0.34071 0.24797 0.62935 0.0
C3734 C 0.33614 0.21986 0.6084 0.0
C3735 C 0.33516 0.20424 0.59846 0.0
C3736 C 0.35114 0.22373 0.6185 0.0
C3737 C 0.34992 0.19306 0.59789 0.0
C3738 C 0.36501 0.19693 0.60776 0.0
C3739 C 0.38007 0.21527 0.62956 0.0
C3740 C 0.3802 0.22999 0.64088 0.0
C3741 C 0.36559 0.21201 0.61846 0.0
C3742 C 0.366 0.24185 0.64031 0.0
C3743 C 0.35164 0.23878 0.62921 0.0
H3744 H 0.53204 0.87528 0.11775 0.0
H3745 H 0.57688 0.84819 0.13987 0.0
H3746 H 0.58319 0.87346 0.15863 0.0
H3747 H 0.57736 0.90421 0.16711 0.0
H3748 H 0.53268 0.93125 0.14459 0.0
H3749 H 0.52486 0.90504 0.1279 0.0
C3750 C 0.5431 0.87484 0.12677 0.0
C3751 C 0.55405 0.85992 0.12724 0.0
C3752 C 0.54674 0.88946 0.13749 0.0
C3753 C 0.56826 0.85953 0.13914 0.0
C3754 C 0.57191 0.874 0.14989 0.0
C3755 C 0.56576 0.90426 0.15877 0.0
C3756 C 0.55574 0.91972 0.15699 0.0
C3757 C 0.56144 0.88917 0.14895 0.0
C3758 C 0.54074 0.91958 0.1461 0.0
C3759 C 0.53625 0.90459 0.13649 0.0
H3760 H 0.8284 0.29338 0.39625 0.0
H3761 H 0.85308 0.32982 0.43218 0.0
H3762 H 0.88191 0.32287 0.41956 0.0
H3763 H 0.89959 0.30855 0.3965 0.0
H3764 H 0.87454 0.27275 0.36012 0.0
H3765 H 0.84635 0.27728 0.37488 0.0
C3766 C 0.84009 0.29969 0.40148 0.0
C3767 C 0.83855 0.31226 0.41503 0.0
C3768 C 0.85654 0.29583 0.394 0.0
C3769 C 0.85388 0.32014 0.42174 0.0
C3770 C 0.87036 0.31622 0.41447 0.0
C3771 C 0.88801 0.30156 0.3919 0.0
C3772 C 0.88917 0.29046 0.37707 0.0
C3773 C 0.87177 0.30441 0.40031 0.0
C3774 C 0.87404 0.28144 0.37141 0.0
C3775 C 0.85789 0.28406 0.37982 0.0
H3776 H 0.4703 0.63028 0.62618 0.0
H3777 H 0.42872 0.66507 0.64332 0.0
H3778 H 0.41734 0.64234 0.66279 0.0
H3779 H 0.41752 0.61173 0.67303 0.0
H3780 H 0.45944 0.57699 0.65668 0.0
H3781 H 0.47245 0.60056 0.63919 0.0
C3782 C 0.45887 0.63292 0.63432 0.0
C3783 C 0.45028 0.64929 0.63309 0.0
C3784 C 0.45239 0.61978 0.64566 0.0
C3785 C 0.43559 0.65258 0.6439 0.0
C3786 C 0.42901 0.63956 0.65505 0.0
C3787 C 0.42965 0.60939 0.66587 0.0
C3788 C 0.43732 0.59255 0.66602 0.0
C3789 C 0.43707 0.62299 0.65576 0.0
C3790 C 0.45317 0.5898 0.65679 0.0
C3791 C 0.46059 0.60326 0.64667 0.0
H3792 H 0.11492 0.19491 0.89103 0.0
H3793 H 0.13207 0.24024 0.86134 0.0
H3794 H 0.16051 0.23945 0.87638 0.0
H3795 H 0.18127 0.22443 0.89605 0.0
H3796 H 0.16434 0.17897 0.92561 0.0
H3797 H 0.13491 0.18144 0.91269 0.0
C3798 C 0.12482 0.20472 0.88793 0.0
C3799 C 0.12142 0.2175 0.8749 0.0
C3800 C 0.14117 0.20414 0.89659 0.0
C3801 C 0.13433 0.23022 0.87124 0.0
C3802 C 0.15062 0.22975 0.87981 0.0
C3803 C 0.1711 0.21516 0.89984 0.0
C3804 C 0.17506 0.20142 0.91165 0.0
C3805 C 0.1543 0.21655 0.89222 0.0
C3806 C 0.16165 0.18966 0.91656 0.0
C3807 C 0.14485 0.19101 0.90909 0.0
H3808 H 0.86351 0.05425 0.64162 0.0
H3809 H 0.9084 0.02998 0.61649 0.0
H3810 H 0.89603 0.03669 0.58763 0.0
H3811 H 0.87367 0.05108 0.56961 0.0
H3812 H 0.82899 0.07613 0.59424 0.0
H3813 H 0.84006 0.06736 0.62328 0.0
C3814 C 0.87049 0.05022 0.62984 0.0
C3815 C 0.88693 0.04168 0.63126 0.0
C3816 C 0.86342 0.05438 0.61322 0.0
C3817 C 0.89579 0.03662 0.61582 0.0
C3818 C 0.88874 0.04049 0.59929 0.0
C3819 C 0.86625 0.05458 0.5813 0.0
C3820 C 0.85059 0.0644 0.57975 0.0
C3821 C 0.87276 0.04965 0.59786 0.0
C3822 C 0.8411 0.06863 0.59506 0.0
C3823 C 0.84745 0.06365 0.61165 0.0
H3824 H 0.36051 0.97065 0.9299 0.0
H3825 H 0.33019 0.92703 0.90985 0.0
H3826 H 0.34134 0.93282 0.88013 0.0
H3827 H 0.36208 0.9484 0.86061 0.0
H3828 H 0.39234 0.99198 0.88098 0.0
H3829 H 0.37867 0.98818 0.90981 0.0
C3830 C 0.35617 0.96252 0.91899 0.0
C3831 C 0.34471 0.94829 0.92209 0.0
C3832 C 0.36271 0.96586 0.90204 0.0
C3833 C 0.339 0.93806 0.9078 0.0
C3834 C 0.34546 0.9413 0.89084 0.0
C3835 C 0.36553 0.95722 0.8713 0.0
C3836 C 0.3784 0.97033 0.86867 0.0
C3837 C 0.35769 0.95488 0.8879 0.0
C3838 C 0.38254 0.98176 0.88262 0.0
C3839 C 0.37478 0.97954 0.89915 0.0
H3840 H 0.83157 0.09027 0.15715 0.0
H3841 H 0.79167 0.11875 0.18587 0.0
H3842 H 0.78282 0.13402 0.15907 0.0
H3843 H 0.788 0.14121 0.12796 0.0
H3844 H 0.82853 0.11345 0.09939 0.0
H3845 H 0.83538 0.09602 0.12546 0.0
C3846 C 0.82077 0.09961 0.15747 0.0
C3847 C 0.8124 0.10343 0.17353 0.0
C3848 C 0.81591 0.10865 0.14201 0.0
C3849 C 0.79846 0.11565 0.17372 0.0
C3850 C 0.79337 0.12443 0.15839 0.0
C3851 C 0.79817 0.1312 0.12737 0.0
C3852 C 0.8078 0.12878 0.11175 0.0
C3853 C 0.80226 0.12134 0.14253 0.0
C3854 C 0.82097 0.11572 0.11126 0.0
C3855 C 0.82493 0.10572 0.12619 0.0
H3856 H 0.64273 0.56055 0.36035 0.0
H3857 H 0.60888 0.51865 0.37847 0.0
H3858 H 0.623 0.51954 0.40733 0.0
H3859 H 0.64304 0.53392 0.4281 0.0
H3860 H 0.67686 0.57592 0.41029 0.0
H3861 H 0.6648 0.57312 0.38051 0.0
C3862 C 0.63855 0.55148 0.37055 0.0
C3863 C 0.6246 0.53969 0.3673 0.0
C3864 C 0.64667 0.55213 0.38717 0.0
C3865 C 0.61951 0.52791 0.38062 0.0
C3866 C 0.62755 0.52844 0.39715 0.0
C3867 C 0.64792 0.54236 0.41767 0.0
C3868 C 0.66068 0.55525 0.42144 0.0
C3869 C 0.64084 0.54077 0.40068 0.0
C3870 C 0.66704 0.56591 0.40773 0.0
C3871 C 0.66007 0.56437 0.39073 0.0
H3872 H 0.68571 0.91847 0.65153 0.0
H3873 H 0.71752 0.88322 0.68283 0.0
H3874 H 0.7278 0.86845 0.65636 0.0
H3875 H 0.72611 0.86393 0.62451 0.0
H3876 H 0.69404 0.89867 0.59295 0.0
H3877 H 0.68573 0.91524 0.61918 0.0
C3878 C 0.69505 0.9077 0.65252 0.0
C3879 C 0.70066 0.90187 0.66917 0.0
C3880 C 0.70083 0.89905 0.63716 0.0
C3881 C 0.7128 0.88789 0.67021 0.0
C3882 C 0.71872 0.8794 0.65506 0.0
C3883 C 0.71747 0.87525 0.62332 0.0
C3884 C 0.71062 0.87991 0.60679 0.0
C3885 C 0.71256 0.88462 0.63849 0.0
C3886 C 0.69946 0.89468 0.60552 0.0
C3887 C 0.69465 0.90417 0.62054 0.0
H3888 H 0.12974 0.9681 0.63237 0.0
H3889 H 0.13557 0.91955 0.66137 0.0
H3890 H 0.15424 0.90761 0.63828 0.0
H3891 H 0.16728 0.90999 0.60895 0.0
H3892 H 0.16239 0.95858 0.57993 0.0
H3893 H 0.14535 0.97148 0.60397 0.0
C3894 C 0.13521 0.95497 0.63366 0.0
C3895 C 0.13109 0.94471 0.64851 0.0
C3896 C 0.14616 0.94814 0.62032 0.0
C3897 C 0.13846 0.92777 0.65008 0.0
C3898 C 0.14915 0.92087 0.63686 0.0
C3899 C 0.1627 0.92348 0.60797 0.0
C3900 C 0.16599 0.93321 0.59259 0.0
C3901 C 0.15286 0.93082 0.6218 0.0
C3902 C 0.16007 0.95075 0.59162 0.0
C3903 C 0.15021 0.95813 0.60533 0.0
H3904 H 0.78139 0.37836 0.38852 0.0
H3905 H 0.83306 0.39061 0.40882 0.0
H3906 H 0.839 0.409 0.38322 0.0
H3907 H 0.83065 0.41938 0.35373 0.0
H3908 H 0.77903 0.40701 0.33337 0.0
H3909 H 0.77193 0.39122 0.36036 0.0
C3910 C 0.79388 0.3852 0.38743 0.0
C3911 C 0.80682 0.3829 0.40049 0.0
C3912 C 0.79728 0.39575 0.3726 0.0
C3913 C 0.82287 0.39202 0.39894 0.0
C3914 C 0.82632 0.40255 0.38426 0.0
C3915 C 0.81773 0.41351 0.35532 0.0
C3916 C 0.8055 0.41423 0.34142 0.0
C3917 C 0.81378 0.4042 0.37082 0.0
C3918 C 0.78879 0.40657 0.34376 0.0
C3919 C 0.78471 0.39745 0.3592 0.0
H3920 H 0.21587 0.1188 0.82987 0.0
H3921 H 0.17363 0.08869 0.85303 0.0
H3922 H 0.18002 0.10174 0.88181 0.0
H3923 H 0.1957 0.12382 0.89957 0.0
H3924 H 0.23743 0.15436 0.87596 0.0
H3925 H 0.23317 0.13889 0.84812 0.0
C3926 C 0.20815 0.11493 0.84124 0.0
C3927 C 0.19414 0.10296 0.83927 0.0
C3928 C 0.21172 0.12266 0.85761 0.0
C3929 C 0.18445 0.09791 0.85418 0.0
C3930 C 0.18804 0.10544 0.87061 0.0
C3931 C 0.204 0.12698 0.8884 0.0
C3932 C 0.21673 0.14041 0.88981 0.0
C3933 C 0.20135 0.11817 0.87236 0.0
C3934 C 0.22747 0.14419 0.87523 0.0
C3935 C 0.22501 0.13537 0.85929 0.0
H3936 H 0.5775 0.86723 0.04278 0.0
H3937 H 0.60104 0.82526 0.07305 0.0
H3938 H 0.63039 0.83668 0.06631 0.0
H3939 H 0.64908 0.86011 0.05411 0.0
H3940 H 0.6253 0.90239 0.02441 0.0
H3941 H 0.5963 0.88918 0.02852 0.0
C3942 C 0.58904 0.86045 0.04778 0.0
C3943 C 0.58706 0.84552 0.05858 0.0
C3944 C 0.60582 0.8672 0.04403 0.0
C3945 C 0.60218 0.8368 0.06476 0.0
C3946 C 0.61896 0.84337 0.06096 0.0
C3947 C 0.63759 0.86634 0.04835 0.0
C3948 C 0.63937 0.88234 0.03912 0.0
C3949 C 0.62091 0.8588 0.05096 0.0
C3950 C 0.62433 0.89013 0.03164 0.0
C3951 C 0.60772 0.88261 0.03403 0.0
H3952 H 0.38897 0.88599 0.28453 0.0
H3953 H 0.39609 0.92129 0.32851 0.0
H3954 H 0.41733 0.90118 0.34158 0.0
H3955 H 0.43141 0.87217 0.34226 0.0
H3956 H 0.4248 0.83684 0.29826 0.0
H3957 H 0.40623 0.85846 0.28341 0.0
C3958 C 0.39536 0.88939 0.29685 0.0
C3959 C 0.39069 0.90502 0.30563 0.0
C3960 C 0.40766 0.87772 0.30437 0.0
C3961 C 0.39927 0.9093 0.32149 0.0
C3962 C 0.41144 0.89778 0.32903 0.0
C3963 C 0.42618 0.86931 0.32928 0.0
C3964 C 0.42931 0.8528 0.32155 0.0
C3965 C 0.41536 0.88174 0.32085 0.0
C3966 C 0.42257 0.84941 0.30461 0.0
C3967 C 0.41182 0.86174 0.29612 0.0
H3968 H 0.35211 0.64683 0.5573 0.0
H3969 H 0.38637 0.61138 0.52899 0.0
H3970 H 0.4119 0.62901 0.53756 0.0
H3971 H 0.42465 0.65313 0.55486 0.0
H3972 H 0.39055 0.68753 0.58461 0.0
H3973 H 0.36477 0.67174 0.57355 0.0
C3974 C 0.36513 0.64304 0.55281 0.0
C3975 C 0.3673 0.62774 0.54253 0.0
C3976 C 0.37979 0.65302 0.55812 0.0
C3977 C 0.3843 0.62303 0.53694 0.0
C3978 C 0.39892 0.63311 0.54186 0.0
C3979 C 0.41158 0.65737 0.55876 0.0
C3980 C 0.40957 0.67152 0.5706 0.0
C3981 C 0.39685 0.64794 0.55271 0.0
C3982 C 0.3925 0.67669 0.57556 0.0
C3983 C 0.37775 0.66762 0.56927 0.0
H3984 H 0.57889 0.65259 0.84539 0.0
H3985 H 0.59451 0.68612 0.8023 0.0
H3986 H 0.60949 0.66143 0.7882 0.0
H3987 H 0.62015 0.63071 0.78922 0.0
H3988 H 0.60295 0.59685 0.83142 0.0
H3989 H 0.58664 0.62115 0.84466 0.0
C3990 C 0.58536 0.65442 0.8328 0.0
C3991 C 0.58569 0.6712 0.82502 0.0
C3992 C 0.59384 0.64011 0.82464 0.0
C3993 C 0.594 0.67333 0.80859 0.0
C3994 C 0.60269 0.65924 0.80055 0.0
C3995 C 0.61269 0.62867 0.80123 0.0
C3996 C 0.61287 0.61207 0.8094 0.0
C3997 C 0.60303 0.64265 0.80864 0.0
C3998 C 0.60299 0.6095 0.82484 0.0
C3999 C 0.5937 0.62341 0.83247 0.0
H4000 H 0.5902 0.15841 0.95548 0.0
H4001 H 0.61421 0.17816 0.90792 0.0
H4002 H 0.64158 0.1629 0.91525 0.0
H4003 H 0.65771 0.14194 0.93368 0.0
H4004 H 0.63329 0.1208 0.98042 0.0
H4005 H 0.60708 0.13875 0.97494 0.0
C4006 C 0.6015 0.15963 0.94684 0.0
C4007 C 0.6001 0.1694 0.93111 0.0
C4008 C 0.61706 0.15044 0.95092 0.0
C4009 C 0.61488 0.17071 0.92006 0.0
C4010 C 0.63052 0.16194 0.92422 0.0
C4011 C 0.64676 0.14137 0.94282 0.0
C4012 C 0.64746 0.12992 0.9574 0.0
C4013 C 0.63162 0.15143 0.93939 0.0
C4014 C 0.6331 0.12942 0.96907 0.0
C4015 C 0.61809 0.13967 0.96592 0.0
H4016 H 0.11604 0.89365 0.1889 0.0
H4017 H 0.14768 0.87284 0.23134 0.0
H4018 H 0.13255 0.84462 0.22897 0.0
H4019 H 0.11269 0.82502 0.21287 0.0
H4020 H 0.0812 0.84537 0.17019 0.0
H4021 H 0.09371 0.87474 0.17483 0.0
C4022 C 0.11949 0.88301 0.19777 0.0
C4023 C 0.13318 0.8853 0.21011 0.0
C4024 C 0.11081 0.86674 0.19626 0.0
C4025 C 0.13731 0.87143 0.22165 0.0
C4026 C 0.12869 0.85526 0.22027 0.0
C4027 C 0.10836 0.83594 0.20473 0.0
C4028 C 0.09619 0.83301 0.19108 0.0
C4029 C 0.11577 0.85264 0.20733 0.0
C4030 C 0.09053 0.84731 0.1808 0.0
C4031 C 0.09779 0.86406 0.18337 0.0
H4032 H 0.36987 0.37333 0.46923 0.0
H4033 H 0.34131 0.37121 0.42012 0.0
H4034 H 0.36379 0.35225 0.40751 0.0
H4035 H 0.39242 0.3377 0.4096 0.0
H4036 H 0.42103 0.33882 0.45867 0.0
H4037 H 0.39761 0.35632 0.47213 0.0
C4038 C 0.36857 0.36863 0.45582 0.0
C4039 C 0.35399 0.37384 0.44562 0.0
C4040 C 0.38153 0.35745 0.4486 0.0
C4041 C 0.35238 0.36746 0.4283 0.0
C4042 C 0.36525 0.35659 0.42103 0.0
C4043 C 0.39343 0.34155 0.42332 0.0
C4044 C 0.40853 0.33705 0.43302 0.0
C4045 C 0.37998 0.35168 0.43096 0.0
C4046 C 0.40954 0.34206 0.45085 0.0
C4047 C 0.3962 0.3522 0.45854 0.0
H4048 H 0.87932 0.6029 0.69235 0.0
H4049 H 0.85218 0.62727 0.73595 0.0
H4050 H 0.87162 0.65281 0.73393 0.0
H4051 H 0.89412 0.66943 0.71784 0.0
H4052 H 0.92081 0.64546 0.67377 0.0
H4053 H 0.90396 0.61838 0.67816 0.0
C4054 C 0.87775 0.61371 0.70155 0.0
C4055 C 0.86413 0.61327 0.71413 0.0
C4056 C 0.88888 0.62843 0.70021 0.0
C4057 C 0.86247 0.6273 0.72607 0.0
C4058 C 0.87356 0.64193 0.7249 0.0
C4059 C 0.89647 0.65819 0.70934 0.0
C4060 C 0.90858 0.65954 0.69537 0.0
C4061 C 0.8865 0.64282 0.71173 0.0
C4062 C 0.91159 0.64479 0.68462 0.0
C4063 C 0.90184 0.62934 0.68704 0.0
H4064 H 0.57279 0.64926 0.36117 0.0
H4065 H 0.53346 0.61912 0.38901 0.0
H4066 H 0.53931 0.5938 0.37006 0.0
H4067 H 0.55696 0.57964 0.34712 0.0
H4068 H 0.59712 0.60934 0.31998 0.0
H4069 H 0.58935 0.63552 0.33702 0.0
C4070 C 0.56537 0.6372 0.36303 0.0
C4071 C 0.55277 0.63607 0.37661 0.0
C4072 C 0.56896 0.62262 0.35223 0.0
C4073 C 0.54327 0.62035 0.37875 0.0
C4074 C 0.54662 0.60585 0.36791 0.0
C4075 C 0.56392 0.59188 0.34474 0.0
C4076 C 0.57771 0.59245 0.33232 0.0
C4077 C 0.55964 0.60676 0.35483 0.0
C4078 C 0.5865 0.60847 0.32945 0.0
C4079 C 0.5821 0.62344 0.33925 0.0
H4080 H 0.68322 0.79558 0.60925 0.0
H4081 H 0.65942 0.83145 0.57211 0.0
H4082 H 0.63043 0.82562 0.58494 0.0
H4083 H 0.61235 0.81224 0.60827 0.0
H4084 H 0.63655 0.77704 0.64583 0.0
H4085 H 0.66492 0.78067 0.63115 0.0
C4086 C 0.67169 0.80204 0.60381 0.0
C4087 C 0.67353 0.81408 0.58982 0.0
C4088 C 0.65516 0.79882 0.61141 0.0
C4089 C 0.6584 0.82216 0.58287 0.0
C4090 C 0.64183 0.81888 0.59027 0.0
C4091 C 0.62378 0.8052 0.61317 0.0
C4092 C 0.62232 0.79448 0.62826 0.0
C4093 C 0.64012 0.80753 0.60479 0.0
C4094 C 0.63728 0.78542 0.63432 0.0
C4095 C 0.65353 0.78752 0.62595 0.0
H4096 H 0.43495 0.91836 0.83539 0.0
H4097 H 0.44938 0.94908 0.88101 0.0
H4098 H 0.45967 0.92273 0.89591 0.0
H4099 H 0.46334 0.8908 0.89682 0.0
H4100 H 0.44885 0.8596 0.85161 0.0
H4101 H 0.44008 0.8862 0.83579 0.0
C4102 C 0.44044 0.91928 0.84854 0.0
C4103 C 0.44124 0.9357 0.85705 0.0
C4104 C 0.44636 0.90395 0.85719 0.0
C4105 C 0.44847 0.93664 0.8741 0.0
C4106 C 0.4544 0.92155 0.88269 0.0
C4107 C 0.45843 0.8898 0.88344 0.0
C4108 C 0.45669 0.8732 0.87549 0.0
C4109 C 0.45323 0.90512 0.87447 0.0
C4110 C 0.45031 0.8722 0.85812 0.0
C4111 C 0.44522 0.88742 0.84905 0.0
H4112 H 0.32833 0.71156 0.11971 0.0
H4113 H 0.3534 0.67849 0.0809 0.0
H4114 H 0.38227 0.68544 0.09348 0.0
H4115 H 0.3999 0.69856 0.1173 0.0
H4116 H 0.37435 0.73084 0.15654 0.0
H4117 H 0.3461 0.7266 0.14187 0.0
C4118 C 0.34011 0.70599 0.11387 0.0
C4119 C 0.33872 0.69435 0.09953 0.0
C4120 C 0.35655 0.7098 0.12132 0.0
C4121 C 0.35413 0.68745 0.09197 0.0
C4122 C 0.37062 0.69135 0.09921 0.0
C4123 C 0.38819 0.70484 0.12254 0.0
C4124 C 0.38922 0.71483 0.13814 0.0
C4125 C 0.37192 0.70215 0.11417 0.0
C4126 C 0.37394 0.72298 0.14465 0.0
C4127 C 0.35776 0.72054 0.13629 0.0
H4128 H 0.53423 0.37585 0.60948 0.0
H4129 H 0.55615 0.3443 0.65135 0.0
H4130 H 0.56436 0.37097 0.66739 0.0
H4131 H 0.56726 0.40344 0.66844 0.0
H4132 H 0.54525 0.43441 0.6261 0.0
H4133 H 0.53517 0.40786 0.61149 0.0
C4134 C 0.54065 0.37477 0.6222 0.0
C4135 C 0.54469 0.35809 0.6291 0.0
C4136 C 0.54547 0.39012 0.63126 0.0
C4137 C 0.5529 0.35698 0.64568 0.0
C4138 C 0.55767 0.37224 0.65485 0.0
C4139 C 0.56011 0.40436 0.65612 0.0
C4140 C 0.55723 0.42093 0.64833 0.0
C4141 C 0.55434 0.38891 0.64761 0.0
C4142 C 0.54786 0.42187 0.63236 0.0
C4143 C 0.54204 0.40666 0.62394 0.0
H4144 H 0.86153 0.84392 0.9099 0.0
H4145 H 0.83321 0.79471 0.90919 0.0
H4146 H 0.85626 0.78147 0.89108 0.0
H4147 H 0.88326 0.78473 0.87314 0.0
H4148 H 0.91145 0.83407 0.87452 0.0
H4149 H 0.88971 0.84628 0.89457 0.0
C4150 C 0.86051 0.83022 0.90602 0.0
C4151 C 0.84557 0.82042 0.91077 0.0
C4152 C 0.87372 0.82272 0.89549 0.0
C4153 C 0.84456 0.80261 0.90573 0.0
C4154 C 0.85769 0.79504 0.89525 0.0
C4155 C 0.88469 0.79809 0.87794 0.0
C4156 C 0.89888 0.80849 0.87214 0.0
C4157 C 0.87212 0.80511 0.88965 0.0
C4158 C 0.90065 0.82574 0.87867 0.0
C4159 C 0.8882 0.83279 0.89016 0.0
H4160 H 0.42676 0.09901 0.16992 0.0
H4161 H 0.47852 0.07722 0.16096 0.0
H4162 H 0.48691 0.10334 0.14438 0.0
H4163 H 0.4789 0.13153 0.13051 0.0
H4164 H 0.42732 0.1535 0.13991 0.0
H4165 H 0.41961 0.12827 0.15813 0.0
C4166 C 0.43996 0.10008 0.16457 0.0
C4167 C 0.4519 0.08606 0.16659 0.0
C4168 C 0.44472 0.11513 0.1549 0.0
C4169 C 0.46898 0.08773 0.15958 0.0
C4170 C 0.4738 0.10267 0.14999 0.0
C4171 C 0.46602 0.13082 0.13662 0.0
C4172 C 0.45368 0.14431 0.13369 0.0
C4173 C 0.46166 0.11628 0.14723 0.0
C4174 C 0.43709 0.14329 0.14188 0.0
C4175 C 0.43263 0.12884 0.15232 0.0
H4176 H 0.1517 0.66053 0.41417 0.0
H4177 H 0.17817 0.71074 0.41532 0.0
H4178 H 0.15505 0.72356 0.39689 0.0
H4179 H 0.12829 0.71982 0.37842 0.0
H4180 H 0.10197 0.66944 0.37827 0.0
H4181 H 0.12397 0.65752 0.39817 0.0
C4182 C 0.1523 0.67435 0.41061 0.0
C4183 C 0.16672 0.68459 0.41605 0.0
C4184 C 0.13904 0.68162 0.39994 0.0
C4185 C 0.1672 0.70252 0.41139 0.0
C4186 C 0.15403 0.70985 0.40071 0.0
C4187 C 0.12735 0.70628 0.38284 0.0
C4188 C 0.11353 0.69555 0.37668 0.0
C4189 C 0.14007 0.69942 0.39456 0.0
C4190 C 0.11242 0.67806 0.38272 0.0
C4191 C 0.12503 0.67116 0.39413 0.0
H4192 H 0.86296 0.54896 0.14229 0.0
H4193 H 0.90831 0.52824 0.1149 0.0
H4194 H 0.89587 0.53771 0.08687 0.0
H4195 H 0.87314 0.5532 0.07036 0.0
H4196 H 0.82786 0.57458 0.09724 0.0
H4197 H 0.83927 0.56344 0.12533 0.0
C4198 C 0.87003 0.54633 0.13017 0.0
C4199 C 0.8866 0.53794 0.13073 0.0
C4200 C 0.8629 0.55205 0.11406 0.0
C4201 C 0.89559 0.53471 0.11489 0.0
C4202 C 0.8885 0.54016 0.09884 0.0
C4203 C 0.86568 0.55543 0.08233 0.0
C4204 C 0.84973 0.56486 0.08171 0.0
C4205 C 0.87234 0.54909 0.09832 0.0
C4206 C 0.8402 0.56742 0.09735 0.0
C4207 C 0.84674 0.56107 0.1134 0.0
H4208 H 0.36022 0.45973 0.43164 0.0
H4209 H 0.32204 0.42591 0.40661 0.0
H4210 H 0.33495 0.43252 0.37782 0.0
H4211 H 0.3589 0.4456 0.36027 0.0
H4212 H 0.39766 0.47839 0.38588 0.0
H4213 H 0.38262 0.47449 0.41397 0.0
C4214 C 0.35456 0.45392 0.41989 0.0
C4215 C 0.34029 0.44219 0.4213 0.0
C4216 C 0.36226 0.45748 0.4035 0.0
C4217 C 0.33303 0.43496 0.4059 0.0
C4218 C 0.34048 0.43866 0.38945 0.0
C4219 C 0.36395 0.45207 0.37195 0.0
C4220 C 0.37951 0.46214 0.37098 0.0
C4221 C 0.35538 0.44955 0.38816 0.0
C4222 C 0.38581 0.47047 0.38625 0.0
C4223 C 0.37722 0.46824 0.40233 0.0
H4224 H 0.80457 0.58581 0.6595 0.0
H4225 H 0.78999 0.63162 0.6899 0.0
H4226 H 0.78119 0.64691 0.66328 0.0
H4227 H 0.77902 0.64817 0.63128 0.0
H4228 H 0.79356 0.60283 0.6003 0.0
H4229 H 0.8007 0.58654 0.62711 0.0
C4230 C 0.79937 0.59908 0.66028 0.0
C4231 C 0.79812 0.60754 0.67672 0.0
C4232 C 0.79429 0.60797 0.64478 0.0
C4233 C 0.79126 0.62475 0.67747 0.0
C4234 C 0.78617 0.63357 0.66222 0.0
C4235 C 0.78357 0.63466 0.63036 0.0
C4236 C 0.78583 0.62682 0.61377 0.0
C4237 C 0.78783 0.62542 0.64579 0.0
C4238 C 0.7917 0.60926 0.61289 0.0
C4239 C 0.79587 0.59992 0.62823 0.0
H4240 H 0.67378 0.07421 0.9056 0.0
H4241 H 0.63297 0.0509 0.93757 0.0
H4242 H 0.61817 0.04007 0.91138 0.0
H4243 H 0.61553 0.03877 0.87937 0.0
H4244 H 0.65558 0.06261 0.84693 0.0
H4245 H 0.67194 0.0714 0.87319 0.0
C4246 C 0.66174 0.06663 0.9068 0.0
C4247 C 0.65445 0.06355 0.92354 0.0
C4248 C 0.65307 0.06051 0.89157 0.0
C4249 C 0.63883 0.05367 0.92487 0.0
C4250 C 0.63032 0.0474 0.90988 0.0
C4251 C 0.62795 0.04567 0.87801 0.0
C4252 C 0.63424 0.05007 0.86119 0.0
C4253 C 0.63714 0.05098 0.89316 0.0
C4254 C 0.65037 0.05909 0.85972 0.0
C4255 C 0.65973 0.06418 0.87475 0.0
H4256 H 0.65748 0.40973 0.1478 0.0
H4257 H 0.70861 0.41399 0.17223 0.0
H4258 H 0.72147 0.39589 0.14893 0.0
H4259 H 0.71765 0.37673 0.12281 0.0
H4260 H 0.66627 0.37305 0.09867 0.0
H4261 H 0.65417 0.3929 0.12063 0.0
C4262 C 0.67149 0.40692 0.14792 0.0
C4263 C 0.68199 0.41311 0.16184 0.0
C4264 C 0.67877 0.39637 0.13461 0.0
C4265 C 0.70017 0.40943 0.16168 0.0
C4266 C 0.70753 0.39895 0.14841 0.0
C4267 C 0.70384 0.38037 0.12232 0.0
C4268 C 0.69289 0.37324 0.10917 0.0
C4269 C 0.69687 0.39198 0.13503 0.0
C4270 C 0.67505 0.37825 0.10863 0.0
C4271 C 0.66806 0.38963 0.12121 0.0
H4272 H 0.10856 0.46352 0.12227 0.0
H4273 H 0.15716 0.45503 0.15052 0.0
H4274 H 0.17226 0.44834 0.12293 0.0
H4275 H 0.17125 0.4432 0.09081 0.0
H4276 H 0.12228 0.45145 0.06306 0.0
H4277 H 0.10787 0.45986 0.09035 0.0
C4278 C 0.12251 0.4604 0.12241 0.0
C4279 C 0.13166 0.45972 0.13849 0.0
C4280 C 0.13107 0.45634 0.10654 0.0
C4281 C 0.14974 0.45564 0.13836 0.0
C4282 C 0.1584 0.45173 0.12257 0.0
C4283 C 0.15746 0.44692 0.09074 0.0
C4284 C 0.14788 0.44655 0.07488 0.0
C4285 C 0.14913 0.45175 0.1066 0.0
C4286 C 0.13001 0.4515 0.07504 0.0
C4287 C 0.12171 0.45635 0.09067 0.0
H4288 H 0.81061 0.89364 0.89203 0.0
H4289 H 0.78415 0.85023 0.86657 0.0
H4290 H 0.7912 0.86259 0.83781 0.0
H4291 H 0.80614 0.88465 0.81994 0.0
H4292 H 0.83312 0.92798 0.84487 0.0
H4293 H 0.82454 0.91671 0.87387 0.0
C4294 C 0.80622 0.88697 0.8802 0.0
C4295 C 0.79691 0.87097 0.88149 0.0
C4296 C 0.81052 0.89405 0.86364 0.0
C4297 C 0.79136 0.86252 0.866 0.0
C4298 C 0.79543 0.86956 0.84953 0.0
C4299 C 0.81014 0.89171 0.83169 0.0
C4300 C 0.82039 0.90707 0.83024 0.0
C4301 C 0.80523 0.88514 0.84821 0.0
C4302 C 0.82528 0.9161 0.84562 0.0
C4303 C 0.82038 0.90964 0.86219 0.0
H4304 H 0.20307 0.61152 0.40446 0.0
H4305 H 0.23122 0.65243 0.3768 0.0
H4306 H 0.22417 0.63853 0.34874 0.0
H4307 H 0.20822 0.61625 0.33201 0.0
H4308 H 0.17913 0.57572 0.35918 0.0
H4309 H 0.18849 0.58793 0.38753 0.0
C4310 C 0.20788 0.61726 0.39231 0.0
C4311 C 0.21758 0.63307 0.39275 0.0
C4312 C 0.2035 0.60936 0.37615 0.0
C4313 C 0.22366 0.64034 0.37686 0.0
C4314 C 0.2196 0.63242 0.36079 0.0
C4315 C 0.20398 0.60997 0.34411 0.0
C4316 C 0.19283 0.59518 0.34346 0.0
C4317 C 0.20922 0.61716 0.36027 0.0
C4318 C 0.18765 0.58715 0.3593 0.0
C4319 C 0.19298 0.59415 0.37551 0.0
loop_
_geom_bond_atom_site_label_1
_geom_bond_atom_site_label_2
_geom_bond_distance
_geom_bond_site_symmetry_2
_ccdc_geom_bond_type
Mg0 O7 2.141 . S
Mg0 O8 2.048 . S
Mg0 O9 2.048 . S
Mg0 O12 2.141 . S
C1 O2 1.313 . S
C1 O8 1.195 . S
O2 C1 1.313 . S
C3 O4 1.245 . S
C3 O12 1.289 . S
O4 C3 1.245 . S
C5 O6 1.245 . S
C5 O7 1.289 . S
O6 C5 1.245 . S
O7 Mg0 2.141 . S
O7 C5 1.289 . S
O8 Mg0 2.048 . S
O8 C1 1.195 . S
O9 Mg0 2.048 . S
O9 C10 1.195 . S
C10 O9 1.195 . S
C10 O11 1.313 . S
O11 C10 1.313 . S
O12 Mg0 2.141 . S
O12 C3 1.289 . S
Mg13 O20 2.141 . S
Mg13 O21 2.048 . S
Mg13 O22 2.048 . S
Mg13 O25 2.141 . S
C14 O15 1.313 . S
C14 O21 1.195 . S
O15 C14 1.313 . S
C16 O17 1.245 . S
C16 O25 1.289 . S
O17 C16 1.245 . S
C18 O19 1.245 . S
C18 O20 1.289 . S
O19 C18 1.245 . S
O20 Mg13 2.141 . S
O20 C18 1.289 . S
O21 Mg13 2.048 . S
O21 C14 1.195 . S
O22 Mg13 2.048 . S
O22 C23 1.195 . S
C23 O22 1.195 . S
C23 O24 1.313 . S
O24 C23 1.313 . S
O25 Mg13 2.141 . S
O25 C16 1.289 . S
Mg26 O33 2.141 . S
Mg26 O34 2.048 . S
Mg26 O35 2.048 . S
Mg26 O38 2.141 . S
C27 O28 1.313 . S
C27 O34 1.195 . S
O28 C27 1.313 . S
C29 O30 1.245 . S
C29 O38 1.289 . S
O30 C29 1.245 . S
C31 O32 1.245 . S
C31 O33 1.289 . S
O32 C31 1.245 . S
O33 Mg26 2.141 . S
O33 C31 1.289 . S
O34 Mg26 2.048 . S
O34 C27 1.195 . S
O35 Mg26 2.048 . S
O35 C36 1.195 . S
C36 O35 1.195 . S
C36 O37 1.313 . S
O37 C36 1.313 . S
O38 Mg26 2.141 . S
O38 C29 1.289 . S
Mg39 O46 2.141 . S
Mg39 O47 2.048 . S
Mg39 O48 2.048 . S
Mg39 O51 2.141 . S
C40 O41 1.313 . S
C40 O47 1.195 . S
O41 C40 1.313 . S
C42 O43 1.245 . S
C42 O51 1.289 . S
O43 C42 1.245 . S
C44 O45 1.245 . S
C44 O46 1.289 . S
O45 C44 1.245 . S
O46 Mg39 2.141 . S
O46 C44 1.289 . S
O47 Mg39 2.048 . S
O47 C40 1.195 . S
O48 Mg39 2.048 . S
O48 C49 1.195 . S
C49 O48 1.195 . S
C49 O50 1.313 . S
O50 C49 1.313 . S
O51 Mg39 2.141 . S
O51 C42 1.289 . S
Mg52 O59 2.141 . S
Mg52 O60 2.048 . S
Mg52 O61 2.048 . S
Mg52 O64 2.141 . S
C53 O54 1.313 . S
C53 O60 1.195 . S
O54 C53 1.313 . S
C55 O56 1.245 . S
C55 O64 1.289 . S
O56 C55 1.245 . S
C57 O58 1.245 . S
C57 O59 1.289 . S
O58 C57 1.245 . S
O59 Mg52 2.141 . S
O59 C57 1.289 . S
O60 Mg52 2.048 . S
O60 C53 1.195 . S
O61 Mg52 2.048 . S
O61 C62 1.195 . S
C62 O61 1.195 . S
C62 O63 1.313 . S
O63 C62 1.313 . S
O64 Mg52 2.141 . S
O64 C55 1.289 . S
Mg65 O72 2.141 . S
Mg65 O73 2.048 . S
Mg65 O74 2.048 . S
Mg65 O77 2.141 . S
C66 O67 1.313 . S
C66 O73 1.195 . S
O67 C66 1.313 . S
C68 O69 1.245 . S
C68 O77 1.289 . S
O69 C68 1.245 . S
C70 O71 1.245 . S
C70 O72 1.289 . S
O71 C70 1.245 . S
O72 Mg65 2.141 . S
O72 C70 1.289 . S
O73 Mg65 2.048 . S
O73 C66 1.195 . S
O74 Mg65 2.048 . S
O74 C75 1.195 . S
C75 O74 1.195 . S
C75 O76 1.313 . S
O76 C75 1.313 . S
O77 Mg65 2.141 . S
O77 C68 1.289 . S
Mg78 O85 2.141 . S
Mg78 O86 2.048 . S
Mg78 O87 2.048 . S
Mg78 O90 2.141 . S
C79 O80 1.313 . S
C79 O86 1.195 . S
O80 C79 1.313 . S
C81 O82 1.245 . S
C81 O90 1.289 . S
O82 C81 1.245 . S
C83 O84 1.245 . S
C83 O85 1.289 . S
O84 C83 1.245 . S
O85 Mg78 2.141 . S
O85 C83 1.289 . S
O86 Mg78 2.048 . S
O86 C79 1.195 . S
O87 Mg78 2.048 . S
O87 C88 1.195 . S
C88 O87 1.195 . S
C88 O89 1.313 . S
O89 C88 1.313 . S
O90 Mg78 2.141 . S
O90 C81 1.289 . S
Mg91 O98 2.141 . S
Mg91 O99 2.048 . S
Mg91 O100 2.048 . S
Mg91 O103 2.141 . S
C92 O93 1.313 . S
C92 O99 1.195 . S
O93 C92 1.313 . S
C94 O95 1.245 . S
C94 O103 1.289 . S
O95 C94 1.245 . S
C96 O97 1.245 . S
C96 O98 1.289 . S
O97 C96 1.245 . S
O98 Mg91 2.141 . S
O98 C96 1.289 . S
O99 Mg91 2.048 . S
O99 C92 1.195 . S
O100 Mg91 2.048 . S
O100 C101 1.195 . S
C101 O100 1.195 . S
C101 O102 1.313 . S
O102 C101 1.313 . S
O103 Mg91 2.141 . S
O103 C94 1.289 . S
Mg104 O111 2.141 . S
Mg104 O112 2.048 . S
Mg104 O113 2.048 . S
Mg104 O116 2.141 . S
C105 O106 1.313 . S
C105 O112 1.195 . S
O106 C105 1.313 . S
C107 O108 1.245 . S
C107 O116 1.289 . S
O108 C107 1.245 . S
C109 O110 1.245 . S
C109 O111 1.289 . S
O110 C109 1.245 . S
O111 Mg104 2.141 . S
O111 C109 1.289 . S
O112 Mg104 2.048 . S
O112 C105 1.195 . S
O113 Mg104 2.048 . S
O113 C114 1.195 . S
C114 O113 1.195 . S
C114 O115 1.313 . S
O115 C114 1.313 . S
O116 Mg104 2.141 . S
O116 C107 1.289 . S
Mg117 O124 2.141 . S
Mg117 O125 2.048 . S
Mg117 O126 2.048 . S
Mg117 O129 2.141 . S
C118 O119 1.313 . S
C118 O125 1.195 . S
O119 C118 1.313 . S
C120 O121 1.245 . S
C120 O129 1.289 . S
O121 C120 1.245 . S
C122 O123 1.245 . S
C122 O124 1.289 . S
O123 C122 1.245 . S
O124 Mg117 2.141 . S
O124 C122 1.289 . S
O125 Mg117 2.048 . S
O125 C118 1.195 . S
O126 Mg117 2.048 . S
O126 C127 1.195 . S
C127 O126 1.195 . S
C127 O128 1.313 . S
O128 C127 1.313 . S
O129 Mg117 2.141 . S
O129 C120 1.289 . S
Mg130 O137 2.141 . S
Mg130 O138 2.048 . S
Mg130 O139 2.048 . S
Mg130 O142 2.141 . S
C131 O132 1.313 . S
C131 O138 1.195 . S
O132 C131 1.313 . S
C133 O134 1.245 . S
C133 O142 1.289 . S
O134 C133 1.245 . S
C135 O136 1.245 . S
C135 O137 1.289 . S
O136 C135 1.245 . S
O137 Mg130 2.141 . S
O137 C135 1.289 . S
O138 Mg130 2.048 . S
O138 C131 1.195 . S
O139 Mg130 2.048 . S
O139 C140 1.195 . S
C140 O139 1.195 . S
C140 O141 1.313 . S
O141 C140 1.313 . S
O142 Mg130 2.141 . S
O142 C133 1.289 . S
Mg143 O150 2.141 . S
Mg143 O151 2.048 . S
Mg143 O152 2.048 . S
Mg143 O155 2.141 . S
C144 O145 1.313 . S
C144 O151 1.195 . S
O145 C144 1.313 . S
C146 O147 1.245 . S
C146 O155 1.289 . S
O147 C146 1.245 . S
C148 O149 1.245 . S
C148 O150 1.289 . S
O149 C148 1.245 . S
O150 Mg143 2.141 . S
O150 C148 1.289 . S
O151 Mg143 2.048 . S
O151 C144 1.195 . S
O152 Mg143 2.048 . S
O152 C153 1.195 . S
C153 O152 1.195 . S
C153 O154 1.313 . S
O154 C153 1.313 . S
O155 Mg143 2.141 . S
O155 C146 1.289 . S
Mg156 O163 2.141 . S
Mg156 O164 2.048 . S
Mg156 O165 2.048 . S
Mg156 O168 2.141 . S
C157 O158 1.313 . S
C157 O164 1.195 . S
O158 C157 1.313 . S
C159 O160 1.245 . S
C159 O168 1.289 . S
O160 C159 1.245 . S
C161 O162 1.245 . S
C161 O163 1.289 . S
O162 C161 1.245 . S
O163 Mg156 2.141 . S
O163 C161 1.289 . S
O164 Mg156 2.048 . S
O164 C157 1.195 . S
O165 Mg156 2.048 . S
O165 C166 1.195 . S
C166 O165 1.195 . S
C166 O167 1.313 . S
O167 C166 1.313 . S
O168 Mg156 2.141 . S
O168 C159 1.289 . S
Mg169 O176 2.141 . S
Mg169 O177 2.048 . S
Mg169 O178 2.048 . S
Mg169 O181 2.141 . S
C170 O171 1.313 . S
C170 O177 1.195 . S
O171 C170 1.313 . S
C172 O173 1.245 . S
C172 O181 1.289 . S
O173 C172 1.245 . S
C174 O175 1.245 . S
C174 O176 1.289 . S
O175 C174 1.245 . S
O176 Mg169 2.141 . S
O176 C174 1.289 . S
O177 Mg169 2.048 . S
O177 C170 1.195 . S
O178 Mg169 2.048 . S
O178 C179 1.195 . S
C179 O178 1.195 . S
C179 O180 1.313 . S
O180 C179 1.313 . S
O181 Mg169 2.141 . S
O181 C172 1.289 . S
Mg182 O189 2.141 . S
Mg182 O190 2.048 . S
Mg182 O191 2.048 . S
Mg182 O194 2.141 . S
C183 O184 1.313 . S
C183 O190 1.195 . S
O184 C183 1.313 . S
C185 O186 1.245 . S
C185 O194 1.289 . S
O186 C185 1.245 . S
C187 O188 1.245 . S
C187 O189 1.289 . S
O188 C187 1.245 . S
O189 Mg182 2.141 . S
O189 C187 1.289 . S
O190 Mg182 2.048 . S
O190 C183 1.195 . S
O191 Mg182 2.048 . S
O191 C192 1.195 . S
C192 O191 1.195 . S
C192 O193 1.313 . S
O193 C192 1.313 . S
O194 Mg182 2.141 . S
O194 C185 1.289 . S
Mg195 O202 2.141 . S
Mg195 O203 2.048 . S
Mg195 O204 2.048 . S
Mg195 O207 2.141 . S
C196 O197 1.313 . S
C196 O203 1.195 . S
O197 C196 1.313 . S
C198 O199 1.245 . S
C198 O207 1.289 . S
O199 C198 1.245 . S
C200 O201 1.245 . S
C200 O202 1.289 . S
O201 C200 1.245 . S
O202 Mg195 2.141 . S
O202 C200 1.289 . S
O203 Mg195 2.048 . S
O203 C196 1.195 . S
O204 Mg195 2.048 . S
O204 C205 1.195 . S
C205 O204 1.195 . S
C205 O206 1.313 . S
O206 C205 1.313 . S
O207 Mg195 2.141 . S
O207 C198 1.289 . S
Mg208 O215 2.141 . S
Mg208 O216 2.048 . S
Mg208 O217 2.048 . S
Mg208 O220 2.141 . S
C209 O210 1.313 . S
C209 O216 1.195 . S
O210 C209 1.313 . S
C211 O212 1.245 . S
C211 O220 1.289 . S
O212 C211 1.245 . S
C213 O214 1.245 . S
C213 O215 1.289 . S
O214 C213 1.245 . S
O215 Mg208 2.141 . S
O215 C213 1.289 . S
O216 Mg208 2.048 . S
O216 C209 1.195 . S
O217 Mg208 2.048 . S
O217 C218 1.195 . S
C218 O217 1.195 . S
C218 O219 1.313 . S
O219 C218 1.313 . S
O220 Mg208 2.141 . S
O220 C211 1.289 . S
Mg221 O228 2.141 . S
Mg221 O229 2.048 . S
Mg221 O230 2.048 . S
Mg221 O233 2.141 . S
C222 O223 1.313 . S
C222 O229 1.195 . S
O223 C222 1.313 . S
C224 O225 1.245 . S
C224 O233 1.289 . S
O225 C224 1.245 . S
C226 O227 1.245 . S
C226 O228 1.289 . S
O227 C226 1.245 . S
O228 Mg221 2.141 . S
O228 C226 1.289 . S
O229 Mg221 2.048 . S
O229 C222 1.195 . S
O230 Mg221 2.048 . S
O230 C231 1.195 . S
C231 O230 1.195 . S
C231 O232 1.313 . S
O232 C231 1.313 . S
O233 Mg221 2.141 . S
O233 C224 1.289 . S
Mg234 O241 2.141 . S
Mg234 O242 2.048 . S
Mg234 O243 2.048 . S
Mg234 O246 2.141 . S
C235 O236 1.313 . S
C235 O242 1.195 . S
O236 C235 1.313 . S
C237 O238 1.245 . S
C237 O246 1.289 . S
O238 C237 1.245 . S
C239 O240 1.245 . S
C239 O241 1.289 . S
O240 C239 1.245 . S
O241 Mg234 2.141 . S
O241 C239 1.289 . S
O242 Mg234 2.048 . S
O242 C235 1.195 . S
O243 Mg234 2.048 . S
O243 C244 1.195 . S
C244 O243 1.195 . S
C244 O245 1.313 . S
O245 C244 1.313 . S
O246 Mg234 2.141 . S
O246 C237 1.289 . S
Mg247 O254 2.141 . S
Mg247 O255 2.048 . S
Mg247 O256 2.048 . S
Mg247 O259 2.141 . S
C248 O249 1.313 . S
C248 O255 1.195 . S
O249 C248 1.313 . S
C250 O251 1.245 . S
C250 O259 1.289 . S
O251 C250 1.245 . S
C252 O253 1.245 . S
C252 O254 1.289 . S
O253 C252 1.245 . S
O254 Mg247 2.141 . S
O254 C252 1.289 . S
O255 Mg247 2.048 . S
O255 C248 1.195 . S
O256 Mg247 2.048 . S
O256 C257 1.195 . S
C257 O256 1.195 . S
C257 O258 1.313 . S
O258 C257 1.313 . S
O259 Mg247 2.141 . S
O259 C250 1.289 . S
Mg260 O267 2.141 . S
Mg260 O268 2.048 . S
Mg260 O269 2.048 . S
Mg260 O272 2.141 . S
C261 O262 1.313 . S
C261 O268 1.195 . S
O262 C261 1.313 . S
C263 O264 1.245 . S
C263 O272 1.289 . S
O264 C263 1.245 . S
C265 O266 1.245 . S
C265 O267 1.289 . S
O266 C265 1.245 . S
O267 Mg260 2.141 . S
O267 C265 1.289 . S
O268 Mg260 2.048 . S
O268 C261 1.195 . S
O269 Mg260 2.048 . S
O269 C270 1.195 . S
C270 O269 1.195 . S
C270 O271 1.313 . S
O271 C270 1.313 . S
O272 Mg260 2.141 . S
O272 C263 1.289 . S
Mg273 O280 2.141 . S
Mg273 O281 2.048 . S
Mg273 O282 2.048 . S
Mg273 O285 2.141 . S
C274 O275 1.313 . S
C274 O281 1.195 . S
O275 C274 1.313 . S
C276 O277 1.245 . S
C276 O285 1.289 . S
O277 C276 1.245 . S
C278 O279 1.245 . S
C278 O280 1.289 . S
O279 C278 1.245 . S
O280 Mg273 2.141 . S
O280 C278 1.289 . S
O281 Mg273 2.048 . S
O281 C274 1.195 . S
O282 Mg273 2.048 . S
O282 C283 1.195 . S
C283 O282 1.195 . S
C283 O284 1.313 . S
O284 C283 1.313 . S
O285 Mg273 2.141 . S
O285 C276 1.289 . S
Mg286 O293 2.141 . S
Mg286 O294 2.048 . S
Mg286 O295 2.048 . S
Mg286 O298 2.141 . S
C287 O288 1.313 . S
C287 O294 1.195 . S
O288 C287 1.313 . S
C289 O290 1.245 . S
C289 O298 1.289 . S
O290 C289 1.245 . S
C291 O292 1.245 . S
C291 O293 1.289 . S
O292 C291 1.245 . S
O293 Mg286 2.141 . S
O293 C291 1.289 . S
O294 Mg286 2.048 . S
O294 C287 1.195 . S
O295 Mg286 2.048 . S
O295 C296 1.195 . S
C296 O295 1.195 . S
C296 O297 1.313 . S
O297 C296 1.313 . S
O298 Mg286 2.141 . S
O298 C289 1.289 . S
Mg299 O306 2.141 . S
Mg299 O307 2.048 . S
Mg299 O308 2.048 . S
Mg299 O311 2.141 . S
C300 O301 1.313 . S
C300 O307 1.195 . S
O301 C300 1.313 . S
C302 O303 1.245 . S
C302 O311 1.289 . S
O303 C302 1.245 . S
C304 O305 1.245 . S
C304 O306 1.289 . S
O305 C304 1.245 . S
O306 Mg299 2.141 . S
O306 C304 1.289 . S
O307 Mg299 2.048 . S
O307 C300 1.195 . S
O308 Mg299 2.048 . S
O308 C309 1.195 . S
C309 O308 1.195 . S
C309 O310 1.313 . S
O310 C309 1.313 . S
O311 Mg299 2.141 . S
O311 C302 1.289 . S
Mg312 O319 2.141 . S
Mg312 O320 2.048 . S
Mg312 O321 2.048 . S
Mg312 O324 2.141 . S
C313 O314 1.313 . S
C313 O320 1.195 . S
O314 C313 1.313 . S
C315 O316 1.245 . S
C315 O324 1.289 . S
O316 C315 1.245 . S
C317 O318 1.245 . S
C317 O319 1.289 . S
O318 C317 1.245 . S
O319 Mg312 2.141 . S
O319 C317 1.289 . S
O320 Mg312 2.048 . S
O320 C313 1.195 . S
O321 Mg312 2.048 . S
O321 C322 1.195 . S
C322 O321 1.195 . S
C322 O323 1.313 . S
O323 C322 1.313 . S
O324 Mg312 2.141 . S
O324 C315 1.289 . S
Mg325 O332 2.141 . S
Mg325 O333 2.048 . S
Mg325 O334 2.048 . S
Mg325 O337 2.141 . S
C326 O327 1.313 . S
C326 O333 1.195 . S
O327 C326 1.313 . S
C328 O329 1.245 . S
C328 O337 1.289 . S
O329 C328 1.245 . S
C330 O331 1.245 . S
C330 O332 1.289 . S
O331 C330 1.245 . S
O332 Mg325 2.141 . S
O332 C330 1.289 . S
O333 Mg325 2.048 . S
O333 C326 1.195 . S
O334 Mg325 2.048 . S
O334 C335 1.195 . S
C335 O334 1.195 . S
C335 O336 1.313 . S
O336 C335 1.313 . S
O337 Mg325 2.141 . S
O337 C328 1.289 . S
Mg338 O345 2.141 . S
Mg338 O346 2.048 . S
Mg338 O347 2.048 . S
Mg338 O350 2.141 . S
C339 O340 1.313 . S
C339 O346 1.195 . S
O340 C339 1.313 . S
C341 O342 1.245 . S
C341 O350 1.289 . S
O342 C341 1.245 . S
C343 O344 1.245 . S
C343 O345 1.289 . S
O344 C343 1.245 . S
O345 Mg338 2.141 . S
O345 C343 1.289 . S
O346 Mg338 2.048 . S
O346 C339 1.195 . S
O347 Mg338 2.048 . S
O347 C348 1.195 . S
C348 O347 1.195 . S
C348 O349 1.313 . S
O349 C348 1.313 . S
O350 Mg338 2.141 . S
O350 C341 1.289 . S
Mg351 O358 2.141 . S
Mg351 O359 2.048 . S
Mg351 O360 2.048 . S
Mg351 O363 2.141 . S
C352 O353 1.313 . S
C352 O359 1.195 . S
O353 C352 1.313 . S
C354 O355 1.245 . S
C354 O363 1.289 . S
O355 C354 1.245 . S
C356 O357 1.245 . S
C356 O358 1.289 . S
O357 C356 1.245 . S
O358 Mg351 2.141 . S
O358 C356 1.289 . S
O359 Mg351 2.048 . S
O359 C352 1.195 . S
O360 Mg351 2.048 . S
O360 C361 1.195 . S
C361 O360 1.195 . S
C361 O362 1.313 . S
O362 C361 1.313 . S
O363 Mg351 2.141 . S
O363 C354 1.289 . S
Mg364 O371 2.141 . S
Mg364 O372 2.048 . S
Mg364 O373 2.048 . S
Mg364 O376 2.141 . S
C365 O366 1.313 . S
C365 O372 1.195 . S
O366 C365 1.313 . S
C367 O368 1.245 . S
C367 O376 1.289 . S
O368 C367 1.245 . S
C369 O370 1.245 . S
C369 O371 1.289 . S
O370 C369 1.245 . S
O371 Mg364 2.141 . S
O371 C369 1.289 . S
O372 Mg364 2.048 . S
O372 C365 1.195 . S
O373 Mg364 2.048 . S
O373 C374 1.195 . S
C374 O373 1.195 . S
C374 O375 1.313 . S
O375 C374 1.313 . S
O376 Mg364 2.141 . S
O376 C367 1.289 . S
Mg377 O384 2.141 . S
Mg377 O385 2.048 . S
Mg377 O386 2.048 . S
Mg377 O389 2.141 . S
C378 O379 1.313 . S
C378 O385 1.195 . S
O379 C378 1.313 . S
C380 O381 1.245 . S
C380 O389 1.289 . S
O381 C380 1.245 . S
C382 O383 1.245 . S
C382 O384 1.289 . S
O383 C382 1.245 . S
O384 Mg377 2.141 . S
O384 C382 1.289 . S
O385 Mg377 2.048 . S
O385 C378 1.195 . S
O386 Mg377 2.048 . S
O386 C387 1.195 . S
C387 O386 1.195 . S
C387 O388 1.313 . S
O388 C387 1.313 . S
O389 Mg377 2.141 . S
O389 C380 1.289 . S
Mg390 O397 2.141 . S
Mg390 O398 2.048 . S
Mg390 O399 2.048 . S
Mg390 O402 2.141 . S
C391 O392 1.313 . S
C391 O398 1.195 . S
O392 C391 1.313 . S
C393 O394 1.245 . S
C393 O402 1.289 . S
O394 C393 1.245 . S
C395 O396 1.245 . S
C395 O397 1.289 . S
O396 C395 1.245 . S
O397 Mg390 2.141 . S
O397 C395 1.289 . S
O398 Mg390 2.048 . S
O398 C391 1.195 . S
O399 Mg390 2.048 . S
O399 C400 1.195 . S
C400 O399 1.195 . S
C400 O401 1.313 . S
O401 C400 1.313 . S
O402 Mg390 2.141 . S
O402 C393 1.289 . S
Mg403 O410 2.141 . S
Mg403 O411 2.048 . S
Mg403 O412 2.048 . S
Mg403 O415 2.141 . S
C404 O405 1.313 . S
C404 O411 1.195 . S
O405 C404 1.313 . S
C406 O407 1.245 . S
C406 O415 1.289 . S
O407 C406 1.245 . S
C408 O409 1.245 . S
C408 O410 1.289 . S
O409 C408 1.245 . S
O410 Mg403 2.141 . S
O410 C408 1.289 . S
O411 Mg403 2.048 . S
O411 C404 1.195 . S
O412 Mg403 2.048 . S
O412 C413 1.195 . S
C413 O412 1.195 . S
C413 O414 1.313 . S
O414 C413 1.313 . S
O415 Mg403 2.141 . S
O415 C406 1.289 . S
Mg416 O423 2.141 . S
Mg416 O424 2.048 . S
Mg416 O425 2.048 . S
Mg416 O428 2.141 . S
C417 O418 1.313 . S
C417 O424 1.195 . S
O418 C417 1.313 . S
C419 O420 1.245 . S
C419 O428 1.289 . S
O420 C419 1.245 . S
C421 O422 1.245 . S
C421 O423 1.289 . S
O422 C421 1.245 . S
O423 Mg416 2.141 . S
O423 C421 1.289 . S
O424 Mg416 2.048 . S
O424 C417 1.195 . S
O425 Mg416 2.048 . S
O425 C426 1.195 . S
C426 O425 1.195 . S
C426 O427 1.313 . S
O427 C426 1.313 . S
O428 Mg416 2.141 . S
O428 C419 1.289 . S
Mg429 O436 2.141 . S
Mg429 O437 2.048 . S
Mg429 O438 2.048 . S
Mg429 O441 2.141 . S
C430 O431 1.313 . S
C430 O437 1.195 . S
O431 C430 1.313 . S
C432 O433 1.245 . S
C432 O441 1.289 . S
O433 C432 1.245 . S
C434 O435 1.245 . S
C434 O436 1.289 . S
O435 C434 1.245 . S
O436 Mg429 2.141 . S
O436 C434 1.289 . S
O437 Mg429 2.048 . S
O437 C430 1.195 . S
O438 Mg429 2.048 . S
O438 C439 1.195 . S
C439 O438 1.195 . S
C439 O440 1.313 . S
O440 C439 1.313 . S
O441 Mg429 2.141 . S
O441 C432 1.289 . S
Mg442 O449 2.141 . S
Mg442 O450 2.048 . S
Mg442 O451 2.048 . S
Mg442 O454 2.141 . S
C443 O444 1.313 . S
C443 O450 1.195 . S
O444 C443 1.313 . S
C445 O446 1.245 . S
C445 O454 1.289 . S
O446 C445 1.245 . S
C447 O448 1.245 . S
C447 O449 1.289 . S
O448 C447 1.245 . S
O449 Mg442 2.141 . S
O449 C447 1.289 . S
O450 Mg442 2.048 . S
O450 C443 1.195 . S
O451 Mg442 2.048 . S
O451 C452 1.195 . S
C452 O451 1.195 . S
C452 O453 1.313 . S
O453 C452 1.313 . S
O454 Mg442 2.141 . S
O454 C445 1.289 . S
Mg455 O462 2.141 . S
Mg455 O463 2.048 . S
Mg455 O464 2.048 . S
Mg455 O467 2.141 . S
C456 O457 1.313 . S
C456 O463 1.195 . S
O457 C456 1.313 . S
C458 O459 1.245 . S
C458 O467 1.289 . S
O459 C458 1.245 . S
C460 O461 1.245 . S
C460 O462 1.289 . S
O461 C460 1.245 . S
O462 Mg455 2.141 . S
O462 C460 1.289 . S
O463 Mg455 2.048 . S
O463 C456 1.195 . S
O464 Mg455 2.048 . S
O464 C465 1.195 . S
C465 O464 1.195 . S
C465 O466 1.313 . S
O466 C465 1.313 . S
O467 Mg455 2.141 . S
O467 C458 1.289 . S
Mg468 O475 2.141 . S
Mg468 O476 2.048 . S
Mg468 O477 2.048 . S
Mg468 O480 2.141 . S
C469 O470 1.313 . S
C469 O476 1.195 . S
O470 C469 1.313 . S
C471 O472 1.245 . S
C471 O480 1.289 . S
O472 C471 1.245 . S
C473 O474 1.245 . S
C473 O475 1.289 . S
O474 C473 1.245 . S
O475 Mg468 2.141 . S
O475 C473 1.289 . S
O476 Mg468 2.048 . S
O476 C469 1.195 . S
O477 Mg468 2.048 . S
O477 C478 1.195 . S
C478 O477 1.195 . S
C478 O479 1.313 . S
O479 C478 1.313 . S
O480 Mg468 2.141 . S
O480 C471 1.289 . S
Mg481 O488 2.141 . S
Mg481 O489 2.048 . S
Mg481 O490 2.048 . S
Mg481 O493 2.141 . S
C482 O483 1.313 . S
C482 O489 1.195 . S
O483 C482 1.313 . S
C484 O485 1.245 . S
C484 O493 1.289 . S
O485 C484 1.245 . S
C486 O487 1.245 . S
C486 O488 1.289 . S
O487 C486 1.245 . S
O488 Mg481 2.141 . S
O488 C486 1.289 . S
O489 Mg481 2.048 . S
O489 C482 1.195 . S
O490 Mg481 2.048 . S
O490 C491 1.195 . S
C491 O490 1.195 . S
C491 O492 1.313 . S
O492 C491 1.313 . S
O493 Mg481 2.141 . S
O493 C484 1.289 . S
Mg494 O501 2.141 . S
Mg494 O502 2.048 . S
Mg494 O503 2.048 . S
Mg494 O506 2.141 . S
C495 O496 1.313 . S
C495 O502 1.195 . S
O496 C495 1.313 . S
C497 O498 1.245 . S
C497 O506 1.289 . S
O498 C497 1.245 . S
C499 O500 1.245 . S
C499 O501 1.289 . S
O500 C499 1.245 . S
O501 Mg494 2.141 . S
O501 C499 1.289 . S
O502 Mg494 2.048 . S
O502 C495 1.195 . S
O503 Mg494 2.048 . S
O503 C504 1.195 . S
C504 O503 1.195 . S
C504 O505 1.313 . S
O505 C504 1.313 . S
O506 Mg494 2.141 . S
O506 C497 1.289 . S
Mg507 O514 2.141 . S
Mg507 O515 2.048 . S
Mg507 O516 2.048 . S
Mg507 O519 2.141 . S
C508 O509 1.313 . S
C508 O515 1.195 . S
O509 C508 1.313 . S
C510 O511 1.245 . S
C510 O519 1.289 . S
O511 C510 1.245 . S
C512 O513 1.245 . S
C512 O514 1.289 . S
O513 C512 1.245 . S
O514 Mg507 2.141 . S
O514 C512 1.289 . S
O515 Mg507 2.048 . S
O515 C508 1.195 . S
O516 Mg507 2.048 . S
O516 C517 1.195 . S
C517 O516 1.195 . S
C517 O518 1.313 . S
O518 C517 1.313 . S
O519 Mg507 2.141 . S
O519 C510 1.289 . S
Mg520 O527 2.141 . S
Mg520 O528 2.048 . S
Mg520 O529 2.048 . S
Mg520 O532 2.141 . S
C521 O522 1.313 . S
C521 O528 1.195 . S
O522 C521 1.313 . S
C523 O524 1.245 . S
C523 O532 1.289 . S
O524 C523 1.245 . S
C525 O526 1.245 . S
C525 O527 1.289 . S
O526 C525 1.245 . S
O527 Mg520 2.141 . S
O527 C525 1.289 . S
O528 Mg520 2.048 . S
O528 C521 1.195 . S
O529 Mg520 2.048 . S
O529 C530 1.195 . S
C530 O529 1.195 . S
C530 O531 1.313 . S
O531 C530 1.313 . S
O532 Mg520 2.141 . S
O532 C523 1.289 . S
Mg533 O540 2.141 . S
Mg533 O541 2.048 . S
Mg533 O542 2.048 . S
Mg533 O545 2.141 . S
C534 O535 1.313 . S
C534 O541 1.195 . S
O535 C534 1.313 . S
C536 O537 1.245 . S
C536 O545 1.289 . S
O537 C536 1.245 . S
C538 O539 1.245 . S
C538 O540 1.289 . S
O539 C538 1.245 . S
O540 Mg533 2.141 . S
O540 C538 1.289 . S
O541 Mg533 2.048 . S
O541 C534 1.195 . S
O542 Mg533 2.048 . S
O542 C543 1.195 . S
C543 O542 1.195 . S
C543 O544 1.313 . S
O544 C543 1.313 . S
O545 Mg533 2.141 . S
O545 C536 1.289 . S
Mg546 O553 2.141 . S
Mg546 O554 2.048 . S
Mg546 O555 2.048 . S
Mg546 O558 2.141 . S
C547 O548 1.313 . S
C547 O554 1.195 . S
O548 C547 1.313 . S
C549 O550 1.245 . S
C549 O558 1.289 . S
O550 C549 1.245 . S
C551 O552 1.245 . S
C551 O553 1.289 . S
O552 C551 1.245 . S
O553 Mg546 2.141 . S
O553 C551 1.289 . S
O554 Mg546 2.048 . S
O554 C547 1.195 . S
O555 Mg546 2.048 . S
O555 C556 1.195 . S
C556 O555 1.195 . S
C556 O557 1.313 . S
O557 C556 1.313 . S
O558 Mg546 2.141 . S
O558 C549 1.289 . S
Mg559 O566 2.141 . S
Mg559 O567 2.048 . S
Mg559 O568 2.048 . S
Mg559 O571 2.141 . S
C560 O561 1.313 . S
C560 O567 1.195 . S
O561 C560 1.313 . S
C562 O563 1.245 . S
C562 O571 1.289 . S
O563 C562 1.245 . S
C564 O565 1.245 . S
C564 O566 1.289 . S
O565 C564 1.245 . S
O566 Mg559 2.141 . S
O566 C564 1.289 . S
O567 Mg559 2.048 . S
O567 C560 1.195 . S
O568 Mg559 2.048 . S
O568 C569 1.195 . S
C569 O568 1.195 . S
C569 O570 1.313 . S
O570 C569 1.313 . S
O571 Mg559 2.141 . S
O571 C562 1.289 . S
Mg572 O579 2.141 . S
Mg572 O580 2.048 . S
Mg572 O581 2.048 . S
Mg572 O584 2.141 . S
C573 O574 1.313 . S
C573 O580 1.195 . S
O574 C573 1.313 . S
C575 O576 1.245 . S
C575 O584 1.289 . S
O576 C575 1.245 . S
C577 O578 1.245 . S
C577 O579 1.289 . S
O578 C577 1.245 . S
O579 Mg572 2.141 . S
O579 C577 1.289 . S
O580 Mg572 2.048 . S
O580 C573 1.195 . S
O581 Mg572 2.048 . S
O581 C582 1.195 . S
C582 O581 1.195 . S
C582 O583 1.313 . S
O583 C582 1.313 . S
O584 Mg572 2.141 . S
O584 C575 1.289 . S
Mg585 O592 2.141 . S
Mg585 O593 2.048 . S
Mg585 O594 2.048 . S
Mg585 O597 2.141 . S
C586 O587 1.313 . S
C586 O593 1.195 . S
O587 C586 1.313 . S
C588 O589 1.245 . S
C588 O597 1.289 . S
O589 C588 1.245 . S
C590 O591 1.245 . S
C590 O592 1.289 . S
O591 C590 1.245 . S
O592 Mg585 2.141 . S
O592 C590 1.289 . S
O593 Mg585 2.048 . S
O593 C586 1.195 . S
O594 Mg585 2.048 . S
O594 C595 1.195 . S
C595 O594 1.195 . S
C595 O596 1.313 . S
O596 C595 1.313 . S
O597 Mg585 2.141 . S
O597 C588 1.289 . S
Mg598 O605 2.141 . S
Mg598 O606 2.048 . S
Mg598 O607 2.048 . S
Mg598 O610 2.141 . S
C599 O600 1.313 . S
C599 O606 1.195 . S
O600 C599 1.313 . S
C601 O602 1.245 . S
C601 O610 1.289 . S
O602 C601 1.245 . S
C603 O604 1.245 . S
C603 O605 1.289 . S
O604 C603 1.245 . S
O605 Mg598 2.141 . S
O605 C603 1.289 . S
O606 Mg598 2.048 . S
O606 C599 1.195 . S
O607 Mg598 2.048 . S
O607 C608 1.195 . S
C608 O607 1.195 . S
C608 O609 1.313 . S
O609 C608 1.313 . S
O610 Mg598 2.141 . S
O610 C601 1.289 . S
Mg611 O618 2.141 . S
Mg611 O619 2.048 . S
Mg611 O620 2.048 . S
Mg611 O623 2.141 . S
C612 O613 1.313 . S
C612 O619 1.195 . S
O613 C612 1.313 . S
C614 O615 1.245 . S
C614 O623 1.289 . S
O615 C614 1.245 . S
C616 O617 1.245 . S
C616 O618 1.289 . S
O617 C616 1.245 . S
O618 Mg611 2.141 . S
O618 C616 1.289 . S
O619 Mg611 2.048 . S
O619 C612 1.195 . S
O620 Mg611 2.048 . S
O620 C621 1.195 . S
C621 O620 1.195 . S
C621 O622 1.313 . S
O622 C621 1.313 . S
O623 Mg611 2.141 . S
O623 C614 1.289 . S
Mg624 O631 2.141 . S
Mg624 O632 2.048 . S
Mg624 O633 2.048 . S
Mg624 O636 2.141 . S
C625 O626 1.313 . S
C625 O632 1.195 . S
O626 C625 1.313 . S
C627 O628 1.245 . S
C627 O636 1.289 . S
O628 C627 1.245 . S
C629 O630 1.245 . S
C629 O631 1.289 . S
O630 C629 1.245 . S
O631 Mg624 2.141 . S
O631 C629 1.289 . S
O632 Mg624 2.048 . S
O632 C625 1.195 . S
O633 Mg624 2.048 . S
O633 C634 1.195 . S
C634 O633 1.195 . S
C634 O635 1.313 . S
O635 C634 1.313 . S
O636 Mg624 2.141 . S
O636 C627 1.289 . S
Mg637 O644 2.141 . S
Mg637 O645 2.048 . S
Mg637 O646 2.048 . S
Mg637 O649 2.141 . S
C638 O639 1.313 . S
C638 O645 1.195 . S
O639 C638 1.313 . S
C640 O641 1.245 . S
C640 O649 1.289 . S
O641 C640 1.245 . S
C642 O643 1.245 . S
C642 O644 1.289 . S
O643 C642 1.245 . S
O644 Mg637 2.141 . S
O644 C642 1.289 . S
O645 Mg637 2.048 . S
O645 C638 1.195 . S
O646 Mg637 2.048 . S
O646 C647 1.195 . S
C647 O646 1.195 . S
C647 O648 1.313 . S
O648 C647 1.313 . S
O649 Mg637 2.141 . S
O649 C640 1.289 . S
Mg650 O657 2.141 . S
Mg650 O658 2.048 . S
Mg650 O659 2.048 . S
Mg650 O662 2.141 . S
C651 O652 1.313 . S
C651 O658 1.195 . S
O652 C651 1.313 . S
C653 O654 1.245 . S
C653 O662 1.289 . S
O654 C653 1.245 . S
C655 O656 1.245 . S
C655 O657 1.289 . S
O656 C655 1.245 . S
O657 Mg650 2.141 . S
O657 C655 1.289 . S
O658 Mg650 2.048 . S
O658 C651 1.195 . S
O659 Mg650 2.048 . S
O659 C660 1.195 . S
C660 O659 1.195 . S
C660 O661 1.313 . S
O661 C660 1.313 . S
O662 Mg650 2.141 . S
O662 C653 1.289 . S
Mg663 O670 2.141 . S
Mg663 O671 2.048 . S
Mg663 O672 2.048 . S
Mg663 O675 2.141 . S
C664 O665 1.313 . S
C664 O671 1.195 . S
O665 C664 1.313 . S
C666 O667 1.245 . S
C666 O675 1.289 . S
O667 C666 1.245 . S
C668 O669 1.245 . S
C668 O670 1.289 . S
O669 C668 1.245 . S
O670 Mg663 2.141 . S
O670 C668 1.289 . S
O671 Mg663 2.048 . S
O671 C664 1.195 . S
O672 Mg663 2.048 . S
O672 C673 1.195 . S
C673 O672 1.195 . S
C673 O674 1.313 . S
O674 C673 1.313 . S
O675 Mg663 2.141 . S
O675 C666 1.289 . S
Mg676 O683 2.141 . S
Mg676 O684 2.048 . S
Mg676 O685 2.048 . S
Mg676 O688 2.141 . S
C677 O678 1.313 . S
C677 O684 1.195 . S
O678 C677 1.313 . S
C679 O680 1.245 . S
C679 O688 1.289 . S
O680 C679 1.245 . S
C681 O682 1.245 . S
C681 O683 1.289 . S
O682 C681 1.245 . S
O683 Mg676 2.141 . S
O683 C681 1.289 . S
O684 Mg676 2.048 . S
O684 C677 1.195 . S
O685 Mg676 2.048 . S
O685 C686 1.195 . S
C686 O685 1.195 . S
C686 O687 1.313 . S
O687 C686 1.313 . S
O688 Mg676 2.141 . S
O688 C679 1.289 . S
Mg689 O696 2.141 . S
Mg689 O697 2.048 . S
Mg689 O698 2.048 . S
Mg689 O701 2.141 . S
C690 O691 1.313 . S
C690 O697 1.195 . S
O691 C690 1.313 . S
C692 O693 1.245 . S
C692 O701 1.289 . S
O693 C692 1.245 . S
C694 O695 1.245 . S
C694 O696 1.289 . S
O695 C694 1.245 . S
O696 Mg689 2.141 . S
O696 C694 1.289 . S
O697 Mg689 2.048 . S
O697 C690 1.195 . S
O698 Mg689 2.048 . S
O698 C699 1.195 . S
C699 O698 1.195 . S
C699 O700 1.313 . S
O700 C699 1.313 . S
O701 Mg689 2.141 . S
O701 C692 1.289 . S
Mg702 O709 2.141 . S
Mg702 O710 2.048 . S
Mg702 O711 2.048 . S
Mg702 O714 2.141 . S
C703 O704 1.313 . S
C703 O710 1.195 . S
O704 C703 1.313 . S
C705 O706 1.245 . S
C705 O714 1.289 . S
O706 C705 1.245 . S
C707 O708 1.245 . S
C707 O709 1.289 . S
O708 C707 1.245 . S
O709 Mg702 2.141 . S
O709 C707 1.289 . S
O710 Mg702 2.048 . S
O710 C703 1.195 . S
O711 Mg702 2.048 . S
O711 C712 1.195 . S
C712 O711 1.195 . S
C712 O713 1.313 . S
O713 C712 1.313 . S
O714 Mg702 2.141 . S
O714 C705 1.289 . S
Mg715 O722 2.141 . S
Mg715 O723 2.048 . S
Mg715 O724 2.048 . S
Mg715 O727 2.141 . S
C716 O717 1.313 . S
C716 O723 1.195 . S
O717 C716 1.313 . S
C718 O719 1.245 . S
C718 O727 1.289 . S
O719 C718 1.245 . S
C720 O721 1.245 . S
C720 O722 1.289 . S
O721 C720 1.245 . S
O722 Mg715 2.141 . S
O722 C720 1.289 . S
O723 Mg715 2.048 . S
O723 C716 1.195 . S
O724 Mg715 2.048 . S
O724 C725 1.195 . S
C725 O724 1.195 . S
C725 O726 1.313 . S
O726 C725 1.313 . S
O727 Mg715 2.141 . S
O727 C718 1.289 . S
Mg728 O735 2.141 . S
Mg728 O736 2.048 . S
Mg728 O737 2.048 . S
Mg728 O740 2.141 . S
C729 O730 1.313 . S
C729 O736 1.195 . S
O730 C729 1.313 . S
C731 O732 1.245 . S
C731 O740 1.289 . S
O732 C731 1.245 . S
C733 O734 1.245 . S
C733 O735 1.289 . S
O734 C733 1.245 . S
O735 Mg728 2.141 . S
O735 C733 1.289 . S
O736 Mg728 2.048 . S
O736 C729 1.195 . S
O737 Mg728 2.048 . S
O737 C738 1.195 . S
C738 O737 1.195 . S
C738 O739 1.313 . S
O739 C738 1.313 . S
O740 Mg728 2.141 . S
O740 C731 1.289 . S
Mg741 O748 2.141 . S
Mg741 O749 2.048 . S
Mg741 O750 2.048 . S
Mg741 O753 2.141 . S
C742 O743 1.313 . S
C742 O749 1.195 . S
O743 C742 1.313 . S
C744 O745 1.245 . S
C744 O753 1.289 . S
O745 C744 1.245 . S
C746 O747 1.245 . S
C746 O748 1.289 . S
O747 C746 1.245 . S
O748 Mg741 2.141 . S
O748 C746 1.289 . S
O749 Mg741 2.048 . S
O749 C742 1.195 . S
O750 Mg741 2.048 . S
O750 C751 1.195 . S
C751 O750 1.195 . S
C751 O752 1.313 . S
O752 C751 1.313 . S
O753 Mg741 2.141 . S
O753 C744 1.289 . S
Mg754 O761 2.141 . S
Mg754 O762 2.048 . S
Mg754 O763 2.048 . S
Mg754 O766 2.141 . S
C755 O756 1.313 . S
C755 O762 1.195 . S
O756 C755 1.313 . S
C757 O758 1.245 . S
C757 O766 1.289 . S
O758 C757 1.245 . S
C759 O760 1.245 . S
C759 O761 1.289 . S
O760 C759 1.245 . S
O761 Mg754 2.141 . S
O761 C759 1.289 . S
O762 Mg754 2.048 . S
O762 C755 1.195 . S
O763 Mg754 2.048 . S
O763 C764 1.195 . S
C764 O763 1.195 . S
C764 O765 1.313 . S
O765 C764 1.313 . S
O766 Mg754 2.141 . S
O766 C757 1.289 . S
Mg767 O774 2.141 . S
Mg767 O775 2.048 . S
Mg767 O776 2.048 . S
Mg767 O779 2.141 . S
C768 O769 1.313 . S
C768 O775 1.195 . S
O769 C768 1.313 . S
C770 O771 1.245 . S
C770 O779 1.289 . S
O771 C770 1.245 . S
C772 O773 1.245 . S
C772 O774 1.289 . S
O773 C772 1.245 . S
O774 Mg767 2.141 . S
O774 C772 1.289 . S
O775 Mg767 2.048 . S
O775 C768 1.195 . S
O776 Mg767 2.048 . S
O776 C777 1.195 . S
C777 O776 1.195 . S
C777 O778 1.313 . S
O778 C777 1.313 . S
O779 Mg767 2.141 . S
O779 C770 1.289 . S
Mg780 O787 2.141 . S
Mg780 O788 2.048 . S
Mg780 O789 2.048 . S
Mg780 O792 2.141 . S
C781 O782 1.313 . S
C781 O788 1.195 . S
O782 C781 1.313 . S
C783 O784 1.245 . S
C783 O792 1.289 . S
O784 C783 1.245 . S
C785 O786 1.245 . S
C785 O787 1.289 . S
O786 C785 1.245 . S
O787 Mg780 2.141 . S
O787 C785 1.289 . S
O788 Mg780 2.048 . S
O788 C781 1.195 . S
O789 Mg780 2.048 . S
O789 C790 1.195 . S
C790 O789 1.195 . S
C790 O791 1.313 . S
O791 C790 1.313 . S
O792 Mg780 2.141 . S
O792 C783 1.289 . S
Mg793 O800 2.141 . S
Mg793 O801 2.048 . S
Mg793 O802 2.048 . S
Mg793 O805 2.141 . S
C794 O795 1.313 . S
C794 O801 1.195 . S
O795 C794 1.313 . S
C796 O797 1.245 . S
C796 O805 1.289 . S
O797 C796 1.245 . S
C798 O799 1.245 . S
C798 O800 1.289 . S
O799 C798 1.245 . S
O800 Mg793 2.141 . S
O800 C798 1.289 . S
O801 Mg793 2.048 . S
O801 C794 1.195 . S
O802 Mg793 2.048 . S
O802 C803 1.195 . S
C803 O802 1.195 . S
C803 O804 1.313 . S
O804 C803 1.313 . S
O805 Mg793 2.141 . S
O805 C796 1.289 . S
Mg806 O813 2.141 . S
Mg806 O814 2.048 . S
Mg806 O815 2.048 . S
Mg806 O818 2.141 . S
C807 O808 1.313 . S
C807 O814 1.195 . S
O808 C807 1.313 . S
C809 O810 1.245 . S
C809 O818 1.289 . S
O810 C809 1.245 . S
C811 O812 1.245 . S
C811 O813 1.289 . S
O812 C811 1.245 . S
O813 Mg806 2.141 . S
O813 C811 1.289 . S
O814 Mg806 2.048 . S
O814 C807 1.195 . S
O815 Mg806 2.048 . S
O815 C816 1.195 . S
C816 O815 1.195 . S
C816 O817 1.313 . S
O817 C816 1.313 . S
O818 Mg806 2.141 . S
O818 C809 1.289 . S
Mg819 O826 2.141 . S
Mg819 O827 2.048 . S
Mg819 O828 2.048 . S
Mg819 O831 2.141 . S
C820 O821 1.313 . S
C820 O827 1.195 . S
O821 C820 1.313 . S
C822 O823 1.245 . S
C822 O831 1.289 . S
O823 C822 1.245 . S
C824 O825 1.245 . S
C824 O826 1.289 . S
O825 C824 1.245 . S
O826 Mg819 2.141 . S
O826 C824 1.289 . S
O827 Mg819 2.048 . S
O827 C820 1.195 . S
O828 Mg819 2.048 . S
O828 C829 1.195 . S
C829 O828 1.195 . S
C829 O830 1.313 . S
O830 C829 1.313 . S
O831 Mg819 2.141 . S
O831 C822 1.289 . S
Mg832 O839 2.141 . S
Mg832 O840 2.048 . S
Mg832 O841 2.048 . S
Mg832 O844 2.141 . S
C833 O834 1.313 . S
C833 O840 1.195 . S
O834 C833 1.313 . S
C835 O836 1.245 . S
C835 O844 1.289 . S
O836 C835 1.245 . S
C837 O838 1.245 . S
C837 O839 1.289 . S
O838 C837 1.245 . S
O839 Mg832 2.141 . S
O839 C837 1.289 . S
O840 Mg832 2.048 . S
O840 C833 1.195 . S
O841 Mg832 2.048 . S
O841 C842 1.195 . S
C842 O841 1.195 . S
C842 O843 1.313 . S
O843 C842 1.313 . S
O844 Mg832 2.141 . S
O844 C835 1.289 . S
Mg845 O852 2.141 . S
Mg845 O853 2.048 . S
Mg845 O854 2.048 . S
Mg845 O857 2.141 . S
C846 O847 1.313 . S
C846 O853 1.195 . S
O847 C846 1.313 . S
C848 O849 1.245 . S
C848 O857 1.289 . S
O849 C848 1.245 . S
C850 O851 1.245 . S
C850 O852 1.289 . S
O851 C850 1.245 . S
O852 Mg845 2.141 . S
O852 C850 1.289 . S
O853 Mg845 2.048 . S
O853 C846 1.195 . S
O854 Mg845 2.048 . S
O854 C855 1.195 . S
C855 O854 1.195 . S
C855 O856 1.313 . S
O856 C855 1.313 . S
O857 Mg845 2.141 . S
O857 C848 1.289 . S
Mg858 O865 2.141 . S
Mg858 O866 2.048 . S
Mg858 O867 2.048 . S
Mg858 O870 2.141 . S
C859 O860 1.313 . S
C859 O866 1.195 . S
O860 C859 1.313 . S
C861 O862 1.245 . S
C861 O870 1.289 . S
O862 C861 1.245 . S
C863 O864 1.245 . S
C863 O865 1.289 . S
O864 C863 1.245 . S
O865 Mg858 2.141 . S
O865 C863 1.289 . S
O866 Mg858 2.048 . S
O866 C859 1.195 . S
O867 Mg858 2.048 . S
O867 C868 1.195 . S
C868 O867 1.195 . S
C868 O869 1.313 . S
O869 C868 1.313 . S
O870 Mg858 2.141 . S
O870 C861 1.289 . S
Mg871 O878 2.141 . S
Mg871 O879 2.048 . S
Mg871 O880 2.048 . S
Mg871 O883 2.141 . S
C872 O873 1.313 . S
C872 O879 1.195 . S
O873 C872 1.313 . S
C874 O875 1.245 . S
C874 O883 1.289 . S
O875 C874 1.245 . S
C876 O877 1.245 . S
C876 O878 1.289 . S
O877 C876 1.245 . S
O878 Mg871 2.141 . S
O878 C876 1.289 . S
O879 Mg871 2.048 . S
O879 C872 1.195 . S
O880 Mg871 2.048 . S
O880 C881 1.195 . S
C881 O880 1.195 . S
C881 O882 1.313 . S
O882 C881 1.313 . S
O883 Mg871 2.141 . S
O883 C874 1.289 . S
Mg884 O891 2.141 . S
Mg884 O892 2.048 . S
Mg884 O893 2.048 . S
Mg884 O896 2.141 . S
C885 O886 1.313 . S
C885 O892 1.195 . S
O886 C885 1.313 . S
C887 O888 1.245 . S
C887 O896 1.289 . S
O888 C887 1.245 . S
C889 O890 1.245 . S
C889 O891 1.289 . S
O890 C889 1.245 . S
O891 Mg884 2.141 . S
O891 C889 1.289 . S
O892 Mg884 2.048 . S
O892 C885 1.195 . S
O893 Mg884 2.048 . S
O893 C894 1.195 . S
C894 O893 1.195 . S
C894 O895 1.313 . S
O895 C894 1.313 . S
O896 Mg884 2.141 . S
O896 C887 1.289 . S
Mg897 O904 2.141 . S
Mg897 O905 2.048 . S
Mg897 O906 2.048 . S
Mg897 O909 2.141 . S
C898 O899 1.313 . S
C898 O905 1.195 . S
O899 C898 1.313 . S
C900 O901 1.245 . S
C900 O909 1.289 . S
O901 C900 1.245 . S
C902 O903 1.245 . S
C902 O904 1.289 . S
O903 C902 1.245 . S
O904 Mg897 2.141 . S
O904 C902 1.289 . S
O905 Mg897 2.048 . S
O905 C898 1.195 . S
O906 Mg897 2.048 . S
O906 C907 1.195 . S
C907 O906 1.195 . S
C907 O908 1.313 . S
O908 C907 1.313 . S
O909 Mg897 2.141 . S
O909 C900 1.289 . S
Mg910 O917 2.141 . S
Mg910 O918 2.048 . S
Mg910 O919 2.048 . S
Mg910 O922 2.141 . S
C911 O912 1.313 . S
C911 O918 1.195 . S
O912 C911 1.313 . S
C913 O914 1.245 . S
C913 O922 1.289 . S
O914 C913 1.245 . S
C915 O916 1.245 . S
C915 O917 1.289 . S
O916 C915 1.245 . S
O917 Mg910 2.141 . S
O917 C915 1.289 . S
O918 Mg910 2.048 . S
O918 C911 1.195 . S
O919 Mg910 2.048 . S
O919 C920 1.195 . S
C920 O919 1.195 . S
C920 O921 1.313 . S
O921 C920 1.313 . S
O922 Mg910 2.141 . S
O922 C913 1.289 . S
Mg923 O930 2.141 . S
Mg923 O931 2.048 . S
Mg923 O932 2.048 . S
Mg923 O935 2.141 . S
C924 O925 1.313 . S
C924 O931 1.195 . S
O925 C924 1.313 . S
C926 O927 1.245 . S
C926 O935 1.289 . S
O927 C926 1.245 . S
C928 O929 1.245 . S
C928 O930 1.289 . S
O929 C928 1.245 . S
O930 Mg923 2.141 . S
O930 C928 1.289 . S
O931 Mg923 2.048 . S
O931 C924 1.195 . S
O932 Mg923 2.048 . S
O932 C933 1.195 . S
C933 O932 1.195 . S
C933 O934 1.313 . S
O934 C933 1.313 . S
O935 Mg923 2.141 . S
O935 C926 1.289 . S
Mg936 O943 2.141 . S
Mg936 O944 2.048 . S
Mg936 O945 2.048 . S
Mg936 O948 2.141 . S
C937 O938 1.313 . S
C937 O944 1.195 . S
O938 C937 1.313 . S
C939 O940 1.245 . S
C939 O948 1.289 . S
O940 C939 1.245 . S
C941 O942 1.245 . S
C941 O943 1.289 . S
O942 C941 1.245 . S
O943 Mg936 2.141 . S
O943 C941 1.289 . S
O944 Mg936 2.048 . S
O944 C937 1.195 . S
O945 Mg936 2.048 . S
O945 C946 1.195 . S
C946 O945 1.195 . S
C946 O947 1.313 . S
O947 C946 1.313 . S
O948 Mg936 2.141 . S
O948 C939 1.289 . S
Mg949 O956 2.141 . S
Mg949 O957 2.048 . S
Mg949 O958 2.048 . S
Mg949 O961 2.141 . S
C950 O951 1.313 . S
C950 O957 1.195 . S
O951 C950 1.313 . S
C952 O953 1.245 . S
C952 O961 1.289 . S
O953 C952 1.245 . S
C954 O955 1.245 . S
C954 O956 1.289 . S
O955 C954 1.245 . S
O956 Mg949 2.141 . S
O956 C954 1.289 . S
O957 Mg949 2.048 . S
O957 C950 1.195 . S
O958 Mg949 2.048 . S
O958 C959 1.195 . S
C959 O958 1.195 . S
C959 O960 1.313 . S
O960 C959 1.313 . S
O961 Mg949 2.141 . S
O961 C952 1.289 . S
Mg962 O969 2.141 . S
Mg962 O970 2.048 . S
Mg962 O971 2.048 . S
Mg962 O974 2.141 . S
C963 O964 1.313 . S
C963 O970 1.195 . S
O964 C963 1.313 . S
C965 O966 1.245 . S
C965 O974 1.289 . S
O966 C965 1.245 . S
C967 O968 1.245 . S
C967 O969 1.289 . S
O968 C967 1.245 . S
O969 Mg962 2.141 . S
O969 C967 1.289 . S
O970 Mg962 2.048 . S
O970 C963 1.195 . S
O971 Mg962 2.048 . S
O971 C972 1.195 . S
C972 O971 1.195 . S
C972 O973 1.313 . S
O973 C972 1.313 . S
O974 Mg962 2.141 . S
O974 C965 1.289 . S
Mg975 O982 2.141 . S
Mg975 O983 2.048 . S
Mg975 O984 2.048 . S
Mg975 O987 2.141 . S
C976 O977 1.313 . S
C976 O983 1.195 . S
O977 C976 1.313 . S
C978 O979 1.245 . S
C978 O987 1.289 . S
O979 C978 1.245 . S
C980 O981 1.245 . S
C980 O982 1.289 . S
O981 C980 1.245 . S
O982 Mg975 2.141 . S
O982 C980 1.289 . S
O983 Mg975 2.048 . S
O983 C976 1.195 . S
O984 Mg975 2.048 . S
O984 C985 1.195 . S
C985 O984 1.195 . S
C985 O986 1.313 . S
O986 C985 1.313 . S
O987 Mg975 2.141 . S
O987 C978 1.289 . S
Mg988 O995 2.141 . S
Mg988 O996 2.048 . S
Mg988 O997 2.048 . S
Mg988 O1000 2.141 . S
C989 O990 1.313 . S
C989 O996 1.195 . S
O990 C989 1.313 . S
C991 O992 1.245 . S
C991 O1000 1.289 . S
O992 C991 1.245 . S
C993 O994 1.245 . S
C993 O995 1.289 . S
O994 C993 1.245 . S
O995 Mg988 2.141 . S
O995 C993 1.289 . S
O996 Mg988 2.048 . S
O996 C989 1.195 . S
O997 Mg988 2.048 . S
O997 C998 1.195 . S
C998 O997 1.195 . S
C998 O999 1.313 . S
O999 C998 1.313 . S
O1000 Mg988 2.141 . S
O1000 C991 1.289 . S
Mg1001 O1008 2.141 . S
Mg1001 O1009 2.048 . S
Mg1001 O1010 2.048 . S
Mg1001 O1013 2.141 . S
C1002 O1003 1.313 . S
C1002 O1009 1.195 . S
O1003 C1002 1.313 . S
C1004 O1005 1.245 . S
C1004 O1013 1.289 . S
O1005 C1004 1.245 . S
C1006 O1007 1.245 . S
C1006 O1008 1.289 . S
O1007 C1006 1.245 . S
O1008 Mg1001 2.141 . S
O1008 C1006 1.289 . S
O1009 Mg1001 2.048 . S
O1009 C1002 1.195 . S
O1010 Mg1001 2.048 . S
O1010 C1011 1.195 . S
C1011 O1010 1.195 . S
C1011 O1012 1.313 . S
O1012 C1011 1.313 . S
O1013 Mg1001 2.141 . S
O1013 C1004 1.289 . S
Mg1014 O1021 2.141 . S
Mg1014 O1022 2.048 . S
Mg1014 O1023 2.048 . S
Mg1014 O1026 2.141 . S
C1015 O1016 1.313 . S
C1015 O1022 1.195 . S
O1016 C1015 1.313 . S
C1017 O1018 1.245 . S
C1017 O1026 1.289 . S
O1018 C1017 1.245 . S
C1019 O1020 1.245 . S
C1019 O1021 1.289 . S
O1020 C1019 1.245 . S
O1021 Mg1014 2.141 . S
O1021 C1019 1.289 . S
O1022 Mg1014 2.048 . S
O1022 C1015 1.195 . S
O1023 Mg1014 2.048 . S
O1023 C1024 1.195 . S
C1024 O1023 1.195 . S
C1024 O1025 1.313 . S
O1025 C1024 1.313 . S
O1026 Mg1014 2.141 . S
O1026 C1017 1.289 . S
Mg1027 O1034 2.141 . S
Mg1027 O1035 2.048 . S
Mg1027 O1036 2.048 . S
Mg1027 O1039 2.141 . S
C1028 O1029 1.313 . S
C1028 O1035 1.195 . S
O1029 C1028 1.313 . S
C1030 O1031 1.245 . S
C1030 O1039 1.289 . S
O1031 C1030 1.245 . S
C1032 O1033 1.245 . S
C1032 O1034 1.289 . S
O1033 C1032 1.245 . S
O1034 Mg1027 2.141 . S
O1034 C1032 1.289 . S
O1035 Mg1027 2.048 . S
O1035 C1028 1.195 . S
O1036 Mg1027 2.048 . S
O1036 C1037 1.195 . S
C1037 O1036 1.195 . S
C1037 O1038 1.313 . S
O1038 C1037 1.313 . S
O1039 Mg1027 2.141 . S
O1039 C1030 1.289 . S
Mg1040 O1047 2.141 . S
Mg1040 O1048 2.048 . S
Mg1040 O1049 2.048 . S
Mg1040 O1052 2.141 . S
C1041 O1042 1.313 . S
C1041 O1048 1.195 . S
O1042 C1041 1.313 . S
C1043 O1044 1.245 . S
C1043 O1052 1.289 . S
O1044 C1043 1.245 . S
C1045 O1046 1.245 . S
C1045 O1047 1.289 . S
O1046 C1045 1.245 . S
O1047 Mg1040 2.141 . S
O1047 C1045 1.289 . S
O1048 Mg1040 2.048 . S
O1048 C1041 1.195 . S
O1049 Mg1040 2.048 . S
O1049 C1050 1.195 . S
C1050 O1049 1.195 . S
C1050 O1051 1.313 . S
O1051 C1050 1.313 . S
O1052 Mg1040 2.141 . S
O1052 C1043 1.289 . S
Mg1053 O1060 2.141 . S
Mg1053 O1061 2.048 . S
Mg1053 O1062 2.048 . S
Mg1053 O1065 2.141 . S
C1054 O1055 1.313 . S
C1054 O1061 1.195 . S
O1055 C1054 1.313 . S
C1056 O1057 1.245 . S
C1056 O1065 1.289 . S
O1057 C1056 1.245 . S
C1058 O1059 1.245 . S
C1058 O1060 1.289 . S
O1059 C1058 1.245 . S
O1060 Mg1053 2.141 . S
O1060 C1058 1.289 . S
O1061 Mg1053 2.048 . S
O1061 C1054 1.195 . S
O1062 Mg1053 2.048 . S
O1062 C1063 1.195 . S
C1063 O1062 1.195 . S
C1063 O1064 1.313 . S
O1064 C1063 1.313 . S
O1065 Mg1053 2.141 . S
O1065 C1056 1.289 . S
Mg1066 O1073 2.141 . S
Mg1066 O1074 2.048 . S
Mg1066 O1075 2.048 . S
Mg1066 O1078 2.141 . S
C1067 O1068 1.313 . S
C1067 O1074 1.195 . S
O1068 C1067 1.313 . S
C1069 O1070 1.245 . S
C1069 O1078 1.289 . S
O1070 C1069 1.245 . S
C1071 O1072 1.245 . S
C1071 O1073 1.289 . S
O1072 C1071 1.245 . S
O1073 Mg1066 2.141 . S
O1073 C1071 1.289 . S
O1074 Mg1066 2.048 . S
O1074 C1067 1.195 . S
O1075 Mg1066 2.048 . S
O1075 C1076 1.195 . S
C1076 O1075 1.195 . S
C1076 O1077 1.313 . S
O1077 C1076 1.313 . S
O1078 Mg1066 2.141 . S
O1078 C1069 1.289 . S
Mg1079 O1086 2.141 . S
Mg1079 O1087 2.048 . S
Mg1079 O1088 2.048 . S
Mg1079 O1091 2.141 . S
C1080 O1081 1.313 . S
C1080 O1087 1.195 . S
O1081 C1080 1.313 . S
C1082 O1083 1.245 . S
C1082 O1091 1.289 . S
O1083 C1082 1.245 . S
C1084 O1085 1.245 . S
C1084 O1086 1.289 . S
O1085 C1084 1.245 . S
O1086 Mg1079 2.141 . S
O1086 C1084 1.289 . S
O1087 Mg1079 2.048 . S
O1087 C1080 1.195 . S
O1088 Mg1079 2.048 . S
O1088 C1089 1.195 . S
C1089 O1088 1.195 . S
C1089 O1090 1.313 . S
O1090 C1089 1.313 . S
O1091 Mg1079 2.141 . S
O1091 C1082 1.289 . S
Mg1092 O1099 2.141 . S
Mg1092 O1100 2.048 . S
Mg1092 O1101 2.048 . S
Mg1092 O1104 2.141 . S
C1093 O1094 1.313 . S
C1093 O1100 1.195 . S
O1094 C1093 1.313 . S
C1095 O1096 1.245 . S
C1095 O1104 1.289 . S
O1096 C1095 1.245 . S
C1097 O1098 1.245 . S
C1097 O1099 1.289 . S
O1098 C1097 1.245 . S
O1099 Mg1092 2.141 . S
O1099 C1097 1.289 . S
O1100 Mg1092 2.048 . S
O1100 C1093 1.195 . S
O1101 Mg1092 2.048 . S
O1101 C1102 1.195 . S
C1102 O1101 1.195 . S
C1102 O1103 1.313 . S
O1103 C1102 1.313 . S
O1104 Mg1092 2.141 . S
O1104 C1095 1.289 . S
Mg1105 O1112 2.141 . S
Mg1105 O1113 2.048 . S
Mg1105 O1114 2.048 . S
Mg1105 O1117 2.141 . S
C1106 O1107 1.313 . S
C1106 O1113 1.195 . S
O1107 C1106 1.313 . S
C1108 O1109 1.245 . S
C1108 O1117 1.289 . S
O1109 C1108 1.245 . S
C1110 O1111 1.245 . S
C1110 O1112 1.289 . S
O1111 C1110 1.245 . S
O1112 Mg1105 2.141 . S
O1112 C1110 1.289 . S
O1113 Mg1105 2.048 . S
O1113 C1106 1.195 . S
O1114 Mg1105 2.048 . S
O1114 C1115 1.195 . S
C1115 O1114 1.195 . S
C1115 O1116 1.313 . S
O1116 C1115 1.313 . S
O1117 Mg1105 2.141 . S
O1117 C1108 1.289 . S
Mg1118 O1125 2.141 . S
Mg1118 O1126 2.048 . S
Mg1118 O1127 2.048 . S
Mg1118 O1130 2.141 . S
C1119 O1120 1.313 . S
C1119 O1126 1.195 . S
O1120 C1119 1.313 . S
C1121 O1122 1.245 . S
C1121 O1130 1.289 . S
O1122 C1121 1.245 . S
C1123 O1124 1.245 . S
C1123 O1125 1.289 . S
O1124 C1123 1.245 . S
O1125 Mg1118 2.141 . S
O1125 C1123 1.289 . S
O1126 Mg1118 2.048 . S
O1126 C1119 1.195 . S
O1127 Mg1118 2.048 . S
O1127 C1128 1.195 . S
C1128 O1127 1.195 . S
C1128 O1129 1.313 . S
O1129 C1128 1.313 . S
O1130 Mg1118 2.141 . S
O1130 C1121 1.289 . S
Mg1131 O1138 2.141 . S
Mg1131 O1139 2.048 . S
Mg1131 O1140 2.048 . S
Mg1131 O1143 2.141 . S
C1132 O1133 1.313 . S
C1132 O1139 1.195 . S
O1133 C1132 1.313 . S
C1134 O1135 1.245 . S
C1134 O1143 1.289 . S
O1135 C1134 1.245 . S
C1136 O1137 1.245 . S
C1136 O1138 1.289 . S
O1137 C1136 1.245 . S
O1138 Mg1131 2.141 . S
O1138 C1136 1.289 . S
O1139 Mg1131 2.048 . S
O1139 C1132 1.195 . S
O1140 Mg1131 2.048 . S
O1140 C1141 1.195 . S
C1141 O1140 1.195 . S
C1141 O1142 1.313 . S
O1142 C1141 1.313 . S
O1143 Mg1131 2.141 . S
O1143 C1134 1.289 . S
Mg1144 O1151 2.141 . S
Mg1144 O1152 2.048 . S
Mg1144 O1153 2.048 . S
Mg1144 O1156 2.141 . S
C1145 O1146 1.313 . S
C1145 O1152 1.195 . S
O1146 C1145 1.313 . S
C1147 O1148 1.245 . S
C1147 O1156 1.289 . S
O1148 C1147 1.245 . S
C1149 O1150 1.245 . S
C1149 O1151 1.289 . S
O1150 C1149 1.245 . S
O1151 Mg1144 2.141 . S
O1151 C1149 1.289 . S
O1152 Mg1144 2.048 . S
O1152 C1145 1.195 . S
O1153 Mg1144 2.048 . S
O1153 C1154 1.195 . S
C1154 O1153 1.195 . S
C1154 O1155 1.313 . S
O1155 C1154 1.313 . S
O1156 Mg1144 2.141 . S
O1156 C1147 1.289 . S
Mg1157 O1164 2.141 . S
Mg1157 O1165 2.048 . S
Mg1157 O1166 2.048 . S
Mg1157 O1169 2.141 . S
C1158 O1159 1.313 . S
C1158 O1165 1.195 . S
O1159 C1158 1.313 . S
C1160 O1161 1.245 . S
C1160 O1169 1.289 . S
O1161 C1160 1.245 . S
C1162 O1163 1.245 . S
C1162 O1164 1.289 . S
O1163 C1162 1.245 . S
O1164 Mg1157 2.141 . S
O1164 C1162 1.289 . S
O1165 Mg1157 2.048 . S
O1165 C1158 1.195 . S
O1166 Mg1157 2.048 . S
O1166 C1167 1.195 . S
C1167 O1166 1.195 . S
C1167 O1168 1.313 . S
O1168 C1167 1.313 . S
O1169 Mg1157 2.141 . S
O1169 C1160 1.289 . S
Mg1170 O1177 2.141 . S
Mg1170 O1178 2.048 . S
Mg1170 O1179 2.048 . S
Mg1170 O1182 2.141 . S
C1171 O1172 1.313 . S
C1171 O1178 1.195 . S
O1172 C1171 1.313 . S
C1173 O1174 1.245 . S
C1173 O1182 1.289 . S
O1174 C1173 1.245 . S
C1175 O1176 1.245 . S
C1175 O1177 1.289 . S
O1176 C1175 1.245 . S
O1177 Mg1170 2.141 . S
O1177 C1175 1.289 . S
O1178 Mg1170 2.048 . S
O1178 C1171 1.195 . S
O1179 Mg1170 2.048 . S
O1179 C1180 1.195 . S
C1180 O1179 1.195 . S
C1180 O1181 1.313 . S
O1181 C1180 1.313 . S
O1182 Mg1170 2.141 . S
O1182 C1173 1.289 . S
Mg1183 O1190 2.141 . S
Mg1183 O1191 2.048 . S
Mg1183 O1192 2.048 . S
Mg1183 O1195 2.141 . S
C1184 O1185 1.313 . S
C1184 O1191 1.195 . S
O1185 C1184 1.313 . S
C1186 O1187 1.245 . S
C1186 O1195 1.289 . S
O1187 C1186 1.245 . S
C1188 O1189 1.245 . S
C1188 O1190 1.289 . S
O1189 C1188 1.245 . S
O1190 Mg1183 2.141 . S
O1190 C1188 1.289 . S
O1191 Mg1183 2.048 . S
O1191 C1184 1.195 . S
O1192 Mg1183 2.048 . S
O1192 C1193 1.195 . S
C1193 O1192 1.195 . S
C1193 O1194 1.313 . S
O1194 C1193 1.313 . S
O1195 Mg1183 2.141 . S
O1195 C1186 1.289 . S
Mg1196 O1203 2.141 . S
Mg1196 O1204 2.048 . S
Mg1196 O1205 2.048 . S
Mg1196 O1208 2.141 . S
C1197 O1198 1.313 . S
C1197 O1204 1.195 . S
O1198 C1197 1.313 . S
C1199 O1200 1.245 . S
C1199 O1208 1.289 . S
O1200 C1199 1.245 . S
C1201 O1202 1.245 . S
C1201 O1203 1.289 . S
O1202 C1201 1.245 . S
O1203 Mg1196 2.141 . S
O1203 C1201 1.289 . S
O1204 Mg1196 2.048 . S
O1204 C1197 1.195 . S
O1205 Mg1196 2.048 . S
O1205 C1206 1.195 . S
C1206 O1205 1.195 . S
C1206 O1207 1.313 . S
O1207 C1206 1.313 . S
O1208 Mg1196 2.141 . S
O1208 C1199 1.289 . S
Mg1209 O1216 2.141 . S
Mg1209 O1217 2.048 . S
Mg1209 O1218 2.048 . S
Mg1209 O1221 2.141 . S
C1210 O1211 1.313 . S
C1210 O1217 1.195 . S
O1211 C1210 1.313 . S
C1212 O1213 1.245 . S
C1212 O1221 1.289 . S
O1213 C1212 1.245 . S
C1214 O1215 1.245 . S
C1214 O1216 1.289 . S
O1215 C1214 1.245 . S
O1216 Mg1209 2.141 . S
O1216 C1214 1.289 . S
O1217 Mg1209 2.048 . S
O1217 C1210 1.195 . S
O1218 Mg1209 2.048 . S
O1218 C1219 1.195 . S
C1219 O1218 1.195 . S
C1219 O1220 1.313 . S
O1220 C1219 1.313 . S
O1221 Mg1209 2.141 . S
O1221 C1212 1.289 . S
Mg1222 O1229 2.141 . S
Mg1222 O1230 2.048 . S
Mg1222 O1231 2.048 . S
Mg1222 O1234 2.141 . S
C1223 O1224 1.313 . S
C1223 O1230 1.195 . S
O1224 C1223 1.313 . S
C1225 O1226 1.245 . S
C1225 O1234 1.289 . S
O1226 C1225 1.245 . S
C1227 O1228 1.245 . S
C1227 O1229 1.289 . S
O1228 C1227 1.245 . S
O1229 Mg1222 2.141 . S
O1229 C1227 1.289 . S
O1230 Mg1222 2.048 . S
O1230 C1223 1.195 . S
O1231 Mg1222 2.048 . S
O1231 C1232 1.195 . S
C1232 O1231 1.195 . S
C1232 O1233 1.313 . S
O1233 C1232 1.313 . S
O1234 Mg1222 2.141 . S
O1234 C1225 1.289 . S
Mg1235 O1242 2.141 . S
Mg1235 O1243 2.048 . S
Mg1235 O1244 2.048 . S
Mg1235 O1247 2.141 . S
C1236 O1237 1.313 . S
C1236 O1243 1.195 . S
O1237 C1236 1.313 . S
C1238 O1239 1.245 . S
C1238 O1247 1.289 . S
O1239 C1238 1.245 . S
C1240 O1241 1.245 . S
C1240 O1242 1.289 . S
O1241 C1240 1.245 . S
O1242 Mg1235 2.141 . S
O1242 C1240 1.289 . S
O1243 Mg1235 2.048 . S
O1243 C1236 1.195 . S
O1244 Mg1235 2.048 . S
O1244 C1245 1.195 . S
C1245 O1244 1.195 . S
C1245 O1246 1.313 . S
O1246 C1245 1.313 . S
O1247 Mg1235 2.141 . S
O1247 C1238 1.289 . S
H1248 C1254 0.930 . S
H1249 C1257 0.930 . S
H1250 C1258 0.930 . S
H1251 C1259 0.930 . S
H1252 C1262 0.930 . S
H1253 C1263 0.930 . S
C1254 H1248 0.930 . S
C1254 C1255 1.355 . S
C1254 C1256 1.415 1_455 S
C1255 C1254 1.355 . S
C1255 C1257 1.419 . S
C1256 C1254 1.415 1_655 S
C1256 C1261 1.425 1_654 S
C1256 C1263 1.409 . S
C1257 H1249 0.930 . S
C1257 C1255 1.419 . S
C1257 C1258 1.362 1_554 S
C1258 H1250 0.930 . S
C1258 C1257 1.362 1_556 S
C1258 C1261 1.409 . S
C1259 H1251 0.930 . S
C1259 C1260 1.355 . S
C1259 C1261 1.415 1_655 S
C1260 C1259 1.355 . S
C1260 C1262 1.419 . S
C1261 C1256 1.425 1_456 S
C1261 C1258 1.409 . S
C1261 C1259 1.415 1_455 S
C1262 H1252 0.930 . S
C1262 C1260 1.419 . S
C1262 C1263 1.362 1_556 S
C1263 H1253 0.930 . S
C1263 C1256 1.409 . S
C1263 C1262 1.362 1_554 S
H1264 C1270 0.930 . S
H1265 C1273 0.930 . S
H1266 C1274 0.930 . S
H1267 C1275 0.930 . S
H1268 C1278 0.930 . S
H1269 C1279 0.930 . S
C1270 H1264 0.930 . S
C1270 C1271 1.355 . S
C1270 C1272 1.415 . S
C1271 C1270 1.355 . S
C1271 C1273 1.419 . S
C1272 C1270 1.415 . S
C1272 C1277 1.425 . S
C1272 C1279 1.409 . S
C1273 H1265 0.930 . S
C1273 C1271 1.419 . S
C1273 C1274 1.362 . S
C1274 H1266 0.930 . S
C1274 C1273 1.362 . S
C1274 C1277 1.409 . S
C1275 H1267 0.930 . S
C1275 C1276 1.355 . S
C1275 C1277 1.415 . S
C1276 C1275 1.355 . S
C1276 C1278 1.419 . S
C1277 C1272 1.425 . S
C1277 C1274 1.409 . S
C1277 C1275 1.415 . S
C1278 H1268 0.930 . S
C1278 C1276 1.419 . S
C1278 C1279 1.362 . S
C1279 H1269 0.930 . S
C1279 C1272 1.409 . S
C1279 C1278 1.362 . S
H1280 C1286 0.930 . S
H1281 C1289 0.930 . S
H1282 C1290 0.930 . S
H1283 C1291 0.930 . S
H1284 C1294 0.930 . S
H1285 C1295 0.930 . S
C1286 H1280 0.930 . S
C1286 C1287 1.355 . S
C1286 C1288 1.415 . S
C1287 C1286 1.355 . S
C1287 C1289 1.419 . S
C1288 C1286 1.415 . S
C1288 C1293 1.425 1_655 S
C1288 C1295 1.409 . S
C1289 H1281 0.930 . S
C1289 C1287 1.419 . S
C1289 C1290 1.362 1_655 S
C1290 H1282 0.930 . S
C1290 C1289 1.362 1_455 S
C1290 C1293 1.409 . S
C1291 H1283 0.930 . S
C1291 C1292 1.355 . S
C1291 C1293 1.415 . S
C1292 C1291 1.355 . S
C1292 C1294 1.419 . S
C1293 C1288 1.425 1_455 S
C1293 C1290 1.409 . S
C1293 C1291 1.415 . S
C1294 H1284 0.930 . S
C1294 C1292 1.419 . S
C1294 C1295 1.362 1_455 S
C1295 H1285 0.930 . S
C1295 C1288 1.409 . S
C1295 C1294 1.362 1_655 S
H1296 C1302 0.930 . S
H1297 C1305 0.930 . S
H1298 C1306 0.930 . S
H1299 C1307 0.930 . S
H1300 C1310 0.930 . S
H1301 C1311 0.930 . S
C1302 H1296 0.930 . S
C1302 C1303 1.355 . S
C1302 C1304 1.415 . S
C1303 C1302 1.355 . S
C1303 C1305 1.419 . S
C1304 C1302 1.415 . S
C1304 C1309 1.425 . S
C1304 C1311 1.409 . S
C1305 H1297 0.930 . S
C1305 C1303 1.419 . S
C1305 C1306 1.362 . S
C1306 H1298 0.930 . S
C1306 C1305 1.362 . S
C1306 C1309 1.409 . S
C1307 H1299 0.930 . S
C1307 C1308 1.355 . S
C1307 C1309 1.415 . S
C1308 C1307 1.355 . S
C1308 C1310 1.419 . S
C1309 C1304 1.425 . S
C1309 C1306 1.409 . S
C1309 C1307 1.415 . S
C1310 H1300 0.930 . S
C1310 C1308 1.419 . S
C1310 C1311 1.362 . S
C1311 H1301 0.930 . S
C1311 C1304 1.409 . S
C1311 C1310 1.362 . S
H1312 C1318 0.930 . S
H1313 C1321 0.930 . S
H1314 C1322 0.930 . S
H1315 C1323 0.930 . S
H1316 C1326 0.930 . S
H1317 C1327 0.930 . S
C1318 H1312 0.930 . S
C1318 C1319 1.355 . S
C1318 C1320 1.415 1_655 S
C1319 C1318 1.355 . S
C1319 C1321 1.419 . S
C1320 C1318 1.415 1_455 S
C1320 C1325 1.425 1_454 S
C1320 C1327 1.409 . S
C1321 H1313 0.930 . S
C1321 C1319 1.419 . S
C1321 C1322 1.362 1_554 S
C1322 H1314 0.930 . S
C1322 C1321 1.362 1_556 S
C1322 C1325 1.409 . S
C1323 H1315 0.930 . S
C1323 C1324 1.355 . S
C1323 C1325 1.415 1_455 S
C1324 C1323 1.355 . S
C1324 C1326 1.419 . S
C1325 C1320 1.425 1_656 S
C1325 C1322 1.409 . S
C1325 C1323 1.415 1_655 S
C1326 H1316 0.930 . S
C1326 C1324 1.419 . S
C1326 C1327 1.362 1_556 S
C1327 H1317 0.930 . S
C1327 C1320 1.409 . S
C1327 C1326 1.362 1_554 S
H1328 C1334 0.930 . S
H1329 C1337 0.930 . S
H1330 C1338 0.930 . S
H1331 C1339 0.930 . S
H1332 C1342 0.930 . S
H1333 C1343 0.930 . S
C1334 H1328 0.930 . S
C1334 C1335 1.355 . S
C1334 C1336 1.415 . S
C1335 C1334 1.355 . S
C1335 C1337 1.419 . S
C1336 C1334 1.415 . S
C1336 C1341 1.425 . S
C1336 C1343 1.409 . S
C1337 H1329 0.930 . S
C1337 C1335 1.419 . S
C1337 C1338 1.362 . S
C1338 H1330 0.930 . S
C1338 C1337 1.362 . S
C1338 C1341 1.409 . S
C1339 H1331 0.930 . S
C1339 C1340 1.355 . S
C1339 C1341 1.415 . S
C1340 C1339 1.355 . S
C1340 C1342 1.419 . S
C1341 C1336 1.425 . S
C1341 C1338 1.409 . S
C1341 C1339 1.415 . S
C1342 H1332 0.930 . S
C1342 C1340 1.419 . S
C1342 C1343 1.362 . S
C1343 H1333 0.930 . S
C1343 C1336 1.409 . S
C1343 C1342 1.362 . S
H1344 C1350 0.930 . S
H1345 C1353 0.930 . S
H1346 C1354 0.930 . S
H1347 C1355 0.930 . S
H1348 C1358 0.930 . S
H1349 C1359 0.930 . S
C1350 H1344 0.930 . S
C1350 C1351 1.355 . S
C1350 C1352 1.394 1_455 S
C1351 C1350 1.355 . S
C1351 C1353 1.419 . S
C1352 C1350 1.394 1_655 S
C1352 C1357 1.423 1_655 S
C1352 C1359 1.432 . S
C1353 H1345 0.930 . S
C1353 C1351 1.419 . S
C1353 C1354 1.362 . S
C1354 H1346 0.930 . S
C1354 C1353 1.362 . S
C1354 C1357 1.432 . S
C1355 H1347 0.930 . S
C1355 C1356 1.355 . S
C1355 C1357 1.394 1_655 S
C1356 C1355 1.355 . S
C1356 C1358 1.419 . S
C1357 C1352 1.423 1_455 S
C1357 C1354 1.432 . S
C1357 C1355 1.394 1_455 S
C1358 H1348 0.930 . S
C1358 C1356 1.419 . S
C1358 C1359 1.362 . S
C1359 H1349 0.930 . S
C1359 C1352 1.432 . S
C1359 C1358 1.362 . S
H1360 C1366 0.930 . S
H1361 C1369 0.930 . S
H1362 C1370 0.930 . S
H1363 C1371 0.930 . S
H1364 C1374 0.930 . S
H1365 C1375 0.930 . S
C1366 H1360 0.930 . S
C1366 C1367 1.355 . S
C1366 C1368 1.415 . S
C1367 C1366 1.355 . S
C1367 C1369 1.419 . S
C1368 C1366 1.415 . S
C1368 C1373 1.425 . S
C1368 C1375 1.409 . S
C1369 H1361 0.930 . S
C1369 C1367 1.419 . S
C1369 C1370 1.362 . S
C1370 H1362 0.930 . S
C1370 C1369 1.362 . S
C1370 C1373 1.409 . S
C1371 H1363 0.930 . S
C1371 C1372 1.355 . S
C1371 C1373 1.415 . S
C1372 C1371 1.355 . S
C1372 C1374 1.419 . S
C1373 C1368 1.425 . S
C1373 C1370 1.409 . S
C1373 C1371 1.415 . S
C1374 H1364 0.930 . S
C1374 C1372 1.419 . S
C1374 C1375 1.362 . S
C1375 H1365 0.930 . S
C1375 C1368 1.409 . S
C1375 C1374 1.362 . S
H1376 C1382 0.930 . S
H1377 C1385 0.930 . S
H1378 C1386 0.930 . S
H1379 C1387 0.930 . S
H1380 C1390 0.930 . S
H1381 C1391 0.930 . S
C1382 H1376 0.930 . S
C1382 C1383 1.355 . S
C1382 C1384 1.415 1_655 S
C1383 C1382 1.355 . S
C1383 C1385 1.419 . S
C1384 C1382 1.415 1_455 S
C1384 C1389 1.425 1_465 S
C1384 C1391 1.409 . S
C1385 H1377 0.930 . S
C1385 C1383 1.419 . S
C1385 C1386 1.362 1_565 S
C1386 H1378 0.930 . S
C1386 C1385 1.362 1_545 S
C1386 C1389 1.409 . S
C1387 H1379 0.930 . S
C1387 C1388 1.355 . S
C1387 C1389 1.415 1_455 S
C1388 C1387 1.355 . S
C1388 C1390 1.419 . S
C1389 C1384 1.425 1_645 S
C1389 C1386 1.409 . S
C1389 C1387 1.415 1_655 S
C1390 H1380 0.930 . S
C1390 C1388 1.419 . S
C1390 C1391 1.362 1_545 S
C1391 H1381 0.930 . S
C1391 C1384 1.409 . S
C1391 C1390 1.362 1_565 S
H1392 C1398 0.930 . S
H1393 C1401 0.930 . S
H1394 C1402 0.930 . S
H1395 C1403 0.930 . S
H1396 C1406 0.930 . S
H1397 C1407 0.930 . S
C1398 H1392 0.930 . S
C1398 C1399 1.355 . S
C1398 C1400 1.415 . S
C1399 C1398 1.355 . S
C1399 C1401 1.419 . S
C1400 C1398 1.415 . S
C1400 C1405 1.425 . S
C1400 C1407 1.409 . S
C1401 H1393 0.930 . S
C1401 C1399 1.419 . S
C1401 C1402 1.362 . S
C1402 H1394 0.930 . S
C1402 C1401 1.362 . S
C1402 C1405 1.409 . S
C1403 H1395 0.930 . S
C1403 C1404 1.355 . S
C1403 C1405 1.415 . S
C1404 C1403 1.355 . S
C1404 C1406 1.419 . S
C1405 C1400 1.425 . S
C1405 C1402 1.409 . S
C1405 C1403 1.415 . S
C1406 H1396 0.930 . S
C1406 C1404 1.419 . S
C1406 C1407 1.362 . S
C1407 H1397 0.930 . S
C1407 C1400 1.409 . S
C1407 C1406 1.362 . S
H1408 C1414 0.930 . S
H1409 C1417 0.930 . S
H1410 C1418 0.930 . S
H1411 C1419 0.930 . S
H1412 C1422 0.930 . S
H1413 C1423 0.930 . S
C1414 H1408 0.930 . S
C1414 C1415 1.355 . S
C1414 C1416 1.415 1_655 S
C1415 C1414 1.355 . S
C1415 C1417 1.419 . S
C1416 C1414 1.415 1_455 S
C1416 C1421 1.425 1_455 S
C1416 C1423 1.408 . S
C1417 H1409 0.930 . S
C1417 C1415 1.419 . S
C1417 C1418 1.362 . S
C1418 H1410 0.930 . S
C1418 C1417 1.362 . S
C1418 C1421 1.408 . S
C1419 H1411 0.930 . S
C1419 C1420 1.355 . S
C1419 C1421 1.415 1_455 S
C1420 C1419 1.355 . S
C1420 C1422 1.419 . S
C1421 C1416 1.425 1_655 S
C1421 C1418 1.408 . S
C1421 C1419 1.415 1_655 S
C1422 H1412 0.930 . S
C1422 C1420 1.419 . S
C1422 C1423 1.362 . S
C1423 H1413 0.930 . S
C1423 C1416 1.408 . S
C1423 C1422 1.362 . S
H1424 C1430 0.930 . S
H1425 C1433 0.930 . S
H1426 C1434 0.930 . S
H1427 C1435 0.930 . S
H1428 C1438 0.930 . S
H1429 C1439 0.930 . S
C1430 H1424 0.930 . S
C1430 C1431 1.355 . S
C1430 C1432 1.415 . S
C1431 C1430 1.355 . S
C1431 C1433 1.419 . S
C1432 C1430 1.415 . S
C1432 C1437 1.425 . S
C1432 C1439 1.409 . S
C1433 H1425 0.930 . S
C1433 C1431 1.419 . S
C1433 C1434 1.362 . S
C1434 H1426 0.930 . S
C1434 C1433 1.362 . S
C1434 C1437 1.409 . S
C1435 H1427 0.930 . S
C1435 C1436 1.355 . S
C1435 C1437 1.415 . S
C1436 C1435 1.355 . S
C1436 C1438 1.419 . S
C1437 C1432 1.425 . S
C1437 C1434 1.409 . S
C1437 C1435 1.415 . S
C1438 H1428 0.930 . S
C1438 C1436 1.419 . S
C1438 C1439 1.362 . S
C1439 H1429 0.930 . S
C1439 C1432 1.409 . S
C1439 C1438 1.362 . S
H1440 C1446 0.930 1_545 S
H1441 C1449 0.930 . S
H1442 C1450 0.930 . S
H1443 C1451 0.930 1_565 S
H1444 C1454 0.930 . S
H1445 C1455 0.930 . S
C1446 H1440 0.930 1_565 S
C1446 C1447 1.355 . S
C1446 C1448 1.415 1_565 S
C1447 C1446 1.355 . S
C1447 C1449 1.419 . S
C1448 C1446 1.415 1_545 S
C1448 C1453 1.425 1_445 S
C1448 C1455 1.409 . S
C1449 H1441 0.930 . S
C1449 C1447 1.419 . S
C1449 C1450 1.362 1_455 S
C1450 H1442 0.930 . S
C1450 C1449 1.362 1_655 S
C1450 C1453 1.409 . S
C1451 H1443 0.930 1_545 S
C1451 C1452 1.355 . S
C1451 C1453 1.415 1_545 S
C1452 C1451 1.355 . S
C1452 C1454 1.419 . S
C1453 C1448 1.425 1_665 S
C1453 C1450 1.409 . S
C1453 C1451 1.415 1_565 S
C1454 H1444 0.930 . S
C1454 C1452 1.419 . S
C1454 C1455 1.362 1_655 S
C1455 H1445 0.930 . S
C1455 C1448 1.409 . S
C1455 C1454 1.362 1_455 S
H1456 C1462 0.930 . S
H1457 C1465 0.930 . S
H1458 C1466 0.930 . S
H1459 C1467 0.930 . S
H1460 C1470 0.930 . S
H1461 C1471 0.930 . S
C1462 H1456 0.930 . S
C1462 C1463 1.355 . S
C1462 C1464 1.415 . S
C1463 C1462 1.355 . S
C1463 C1465 1.419 . S
C1464 C1462 1.415 . S
C1464 C1469 1.425 . S
C1464 C1471 1.409 . S
C1465 H1457 0.930 . S
C1465 C1463 1.419 . S
C1465 C1466 1.362 . S
C1466 H1458 0.930 . S
C1466 C1465 1.362 . S
C1466 C1469 1.409 . S
C1467 H1459 0.930 . S
C1467 C1468 1.355 . S
C1467 C1469 1.415 . S
C1468 C1467 1.355 . S
C1468 C1470 1.419 . S
C1469 C1464 1.425 . S
C1469 C1466 1.409 . S
C1469 C1467 1.415 . S
C1470 H1460 0.930 . S
C1470 C1468 1.419 . S
C1470 C1471 1.362 . S
C1471 H1461 0.930 . S
C1471 C1464 1.409 . S
C1471 C1470 1.362 . S
H1472 C1478 0.930 . S
H1473 C1481 0.930 . S
H1474 C1482 0.932 1_655 S
H1475 C1483 0.930 . S
H1476 C1486 0.930 . S
H1477 C1487 0.932 1_455 S
C1478 H1472 0.930 . S
C1478 C1479 1.355 . S
C1478 C1480 1.415 . S
C1479 C1478 1.355 . S
C1479 C1481 1.419 . S
C1480 C1478 1.415 . S
C1480 C1485 1.425 1_455 S
C1480 C1487 1.410 1_455 S
C1481 H1473 0.930 . S
C1481 C1479 1.419 . S
C1481 C1482 1.360 . S
C1482 H1474 0.932 1_455 S
C1482 C1481 1.360 . S
C1482 C1485 1.410 1_455 S
C1483 H1475 0.930 . S
C1483 C1484 1.355 . S
C1483 C1485 1.415 . S
C1484 C1483 1.355 . S
C1484 C1486 1.419 . S
C1485 C1480 1.425 1_655 S
C1485 C1482 1.410 1_655 S
C1485 C1483 1.415 . S
C1486 H1476 0.930 . S
C1486 C1484 1.419 . S
C1486 C1487 1.360 . S
C1487 H1477 0.932 1_655 S
C1487 C1480 1.410 1_655 S
C1487 C1486 1.360 . S
H1488 C1494 0.930 . S
H1489 C1497 0.930 . S
H1490 C1498 0.930 . S
H1491 C1499 0.930 . S
H1492 C1502 0.930 . S
H1493 C1503 0.930 . S
C1494 H1488 0.930 . S
C1494 C1495 1.355 . S
C1494 C1496 1.415 . S
C1495 C1494 1.355 . S
C1495 C1497 1.419 . S
C1496 C1494 1.415 . S
C1496 C1501 1.425 . S
C1496 C1503 1.409 . S
C1497 H1489 0.930 . S
C1497 C1495 1.419 . S
C1497 C1498 1.362 . S
C1498 H1490 0.930 . S
C1498 C1497 1.362 . S
C1498 C1501 1.409 . S
C1499 H1491 0.930 . S
C1499 C1500 1.355 . S
C1499 C1501 1.415 . S
C1500 C1499 1.355 . S
C1500 C1502 1.419 . S
C1501 C1496 1.425 . S
C1501 C1498 1.409 . S
C1501 C1499 1.415 . S
C1502 H1492 0.930 . S
C1502 C1500 1.419 . S
C1502 C1503 1.362 . S
C1503 H1493 0.930 . S
C1503 C1496 1.409 . S
C1503 C1502 1.362 . S
H1504 C1510 0.930 . S
H1505 C1513 0.930 . S
H1506 C1514 0.930 . S
H1507 C1515 0.930 . S
H1508 C1518 0.930 . S
H1509 C1519 0.930 . S
C1510 H1504 0.930 . S
C1510 C1511 1.355 . S
C1510 C1512 1.415 1_556 S
C1511 C1510 1.355 . S
C1511 C1513 1.419 . S
C1512 C1510 1.415 1_554 S
C1512 C1517 1.425 1_564 S
C1512 C1519 1.409 . S
C1513 H1505 0.930 . S
C1513 C1511 1.419 . S
C1513 C1514 1.362 1_565 S
C1514 H1506 0.930 . S
C1514 C1513 1.362 1_545 S
C1514 C1517 1.409 . S
C1515 H1507 0.930 . S
C1515 C1516 1.355 . S
C1515 C1517 1.415 1_554 S
C1516 C1515 1.355 . S
C1516 C1518 1.419 . S
C1517 C1512 1.425 1_546 S
C1517 C1514 1.409 . S
C1517 C1515 1.415 1_556 S
C1518 H1508 0.930 . S
C1518 C1516 1.419 . S
C1518 C1519 1.362 1_545 S
C1519 H1509 0.930 . S
C1519 C1512 1.409 . S
C1519 C1518 1.362 1_565 S
H1520 C1526 0.930 . S
H1521 C1529 0.930 . S
H1522 C1530 0.930 . S
H1523 C1531 0.930 . S
H1524 C1534 0.930 . S
H1525 C1535 0.930 . S
C1526 H1520 0.930 . S
C1526 C1527 1.355 . S
C1526 C1528 1.412 1_545 S
C1527 C1526 1.355 . S
C1527 C1529 1.419 . S
C1528 C1526 1.412 1_565 S
C1528 C1533 1.425 1_565 S
C1528 C1535 1.411 . S
C1529 H1521 0.930 . S
C1529 C1527 1.419 . S
C1529 C1530 1.362 . S
C1530 H1522 0.930 . S
C1530 C1529 1.362 . S
C1530 C1533 1.411 . S
C1531 H1523 0.930 . S
C1531 C1532 1.355 . S
C1531 C1533 1.412 1_565 S
C1532 C1531 1.355 . S
C1532 C1534 1.419 . S
C1533 C1528 1.425 1_545 S
C1533 C1530 1.411 . S
C1533 C1531 1.412 1_545 S
C1534 H1524 0.930 . S
C1534 C1532 1.419 . S
C1534 C1535 1.362 . S
C1535 H1525 0.930 . S
C1535 C1528 1.411 . S
C1535 C1534 1.362 . S
H1536 C1542 0.930 . S
H1537 C1545 0.930 . S
H1538 C1546 0.930 . S
H1539 C1547 0.930 . S
H1540 C1550 0.930 . S
H1541 C1551 0.930 . S
C1542 H1536 0.930 . S
C1542 C1543 1.355 . S
C1542 C1544 1.415 . S
C1543 C1542 1.355 . S
C1543 C1545 1.419 . S
C1544 C1542 1.415 . S
C1544 C1549 1.425 . S
C1544 C1551 1.409 . S
C1545 H1537 0.930 . S
C1545 C1543 1.419 . S
C1545 C1546 1.362 . S
C1546 H1538 0.930 . S
C1546 C1545 1.362 . S
C1546 C1549 1.409 . S
C1547 H1539 0.930 . S
C1547 C1548 1.355 . S
C1547 C1549 1.415 . S
C1548 C1547 1.355 . S
C1548 C1550 1.419 . S
C1549 C1544 1.425 . S
C1549 C1546 1.409 . S
C1549 C1547 1.415 . S
C1550 H1540 0.930 . S
C1550 C1548 1.419 . S
C1550 C1551 1.362 . S
C1551 H1541 0.930 . S
C1551 C1544 1.409 . S
C1551 C1550 1.362 . S
H1552 C1558 0.930 . S
H1553 C1561 0.939 . S
H1554 C1562 0.930 . S
H1555 C1563 0.930 . S
H1556 C1566 0.939 . S
H1557 C1567 0.930 . S
C1558 H1552 0.930 . S
C1558 C1559 1.355 . S
C1558 C1560 1.415 . S
C1559 C1558 1.355 . S
C1559 C1561 1.419 . S
C1560 C1558 1.415 . S
C1560 C1565 1.425 1_554 S
C1560 C1567 1.409 . S
C1561 H1553 0.939 . S
C1561 C1559 1.419 . S
C1561 C1562 1.362 1_554 S
C1562 H1554 0.930 . S
C1562 C1561 1.362 1_556 S
C1562 C1565 1.409 . S
C1563 H1555 0.930 . S
C1563 C1564 1.355 . S
C1563 C1565 1.415 . S
C1564 C1563 1.355 . S
C1564 C1566 1.419 . S
C1565 C1560 1.425 1_556 S
C1565 C1562 1.409 . S
C1565 C1563 1.415 . S
C1566 H1556 0.939 . S
C1566 C1564 1.419 . S
C1566 C1567 1.362 1_556 S
C1567 H1557 0.930 . S
C1567 C1560 1.409 . S
C1567 C1566 1.362 1_554 S
H1568 C1574 0.930 . S
H1569 C1577 0.930 . S
H1570 C1578 0.930 . S
H1571 C1579 0.930 . S
H1572 C1582 0.930 . S
H1573 C1583 0.930 . S
C1574 H1568 0.930 . S
C1574 C1575 1.355 . S
C1574 C1576 1.415 . S
C1575 C1574 1.355 . S
C1575 C1577 1.419 . S
C1576 C1574 1.415 . S
C1576 C1581 1.425 . S
C1576 C1583 1.409 . S
C1577 H1569 0.930 . S
C1577 C1575 1.419 . S
C1577 C1578 1.362 . S
C1578 H1570 0.930 . S
C1578 C1577 1.362 . S
C1578 C1581 1.409 . S
C1579 H1571 0.930 . S
C1579 C1580 1.355 . S
C1579 C1581 1.415 . S
C1580 C1579 1.355 . S
C1580 C1582 1.419 . S
C1581 C1576 1.425 . S
C1581 C1578 1.409 . S
C1581 C1579 1.415 . S
C1582 H1572 0.930 . S
C1582 C1580 1.419 . S
C1582 C1583 1.362 . S
C1583 H1573 0.930 . S
C1583 C1576 1.409 . S
C1583 C1582 1.362 . S
H1584 C1590 0.930 1_556 S
H1585 C1593 0.930 . S
H1586 C1594 0.930 . S
H1587 C1595 0.930 1_554 S
H1588 C1598 0.930 . S
H1589 C1599 0.930 . S
C1590 H1584 0.930 1_554 S
C1590 C1591 1.355 . S
C1590 C1592 1.415 1_554 S
C1591 C1590 1.355 . S
C1591 C1593 1.419 . S
C1592 C1590 1.415 1_556 S
C1592 C1597 1.425 1_566 S
C1592 C1599 1.409 . S
C1593 H1585 0.930 . S
C1593 C1591 1.419 . S
C1593 C1594 1.362 1_565 S
C1594 H1586 0.930 . S
C1594 C1593 1.362 1_545 S
C1594 C1597 1.409 . S
C1595 H1587 0.930 1_556 S
C1595 C1596 1.355 . S
C1595 C1597 1.415 1_556 S
C1596 C1595 1.355 . S
C1596 C1598 1.419 . S
C1597 C1592 1.425 1_544 S
C1597 C1594 1.409 . S
C1597 C1595 1.415 1_554 S
C1598 H1588 0.930 . S
C1598 C1596 1.419 . S
C1598 C1599 1.362 1_545 S
C1599 H1589 0.930 . S
C1599 C1592 1.409 . S
C1599 C1598 1.362 1_565 S
H1600 C1606 0.930 . S
H1601 C1609 0.930 . S
H1602 C1610 0.930 . S
H1603 C1611 0.930 . S
H1604 C1614 0.930 . S
H1605 C1615 0.930 . S
C1606 H1600 0.930 . S
C1606 C1607 1.355 . S
C1606 C1608 1.415 . S
C1607 C1606 1.355 . S
C1607 C1609 1.419 . S
C1608 C1606 1.415 . S
C1608 C1613 1.425 . S
C1608 C1615 1.409 . S
C1609 H1601 0.930 . S
C1609 C1607 1.419 . S
C1609 C1610 1.362 . S
C1610 H1602 0.930 . S
C1610 C1609 1.362 . S
C1610 C1613 1.409 . S
C1611 H1603 0.930 . S
C1611 C1612 1.355 . S
C1611 C1613 1.415 . S
C1612 C1611 1.355 . S
C1612 C1614 1.419 . S
C1613 C1608 1.425 . S
C1613 C1610 1.409 . S
C1613 C1611 1.415 . S
C1614 H1604 0.930 . S
C1614 C1612 1.419 . S
C1614 C1615 1.362 . S
C1615 H1605 0.930 . S
C1615 C1608 1.409 . S
C1615 C1614 1.362 . S
H1616 C1622 0.930 . S
H1617 C1625 0.930 . S
H1618 C1626 0.930 . S
H1619 C1627 0.930 . S
H1620 C1630 0.930 . S
H1621 C1631 0.930 . S
C1622 H1616 0.930 . S
C1622 C1623 1.355 . S
C1622 C1624 1.415 . S
C1623 C1622 1.355 . S
C1623 C1625 1.419 . S
C1624 C1622 1.415 . S
C1624 C1629 1.425 . S
C1624 C1631 1.409 . S
C1625 H1617 0.930 . S
C1625 C1623 1.419 . S
C1625 C1626 1.362 . S
C1626 H1618 0.930 . S
C1626 C1625 1.362 . S
C1626 C1629 1.409 . S
C1627 H1619 0.930 . S
C1627 C1628 1.355 . S
C1627 C1629 1.415 . S
C1628 C1627 1.355 . S
C1628 C1630 1.419 . S
C1629 C1624 1.425 . S
C1629 C1626 1.409 . S
C1629 C1627 1.415 . S
C1630 H1620 0.930 . S
C1630 C1628 1.419 . S
C1630 C1631 1.362 . S
C1631 H1621 0.930 . S
C1631 C1624 1.409 . S
C1631 C1630 1.362 . S
H1632 C1638 0.930 . S
H1633 C1641 0.930 . S
H1634 C1642 0.930 . S
H1635 C1643 0.930 . S
H1636 C1646 0.930 . S
H1637 C1647 0.930 . S
C1638 H1632 0.930 . S
C1638 C1639 1.355 . S
C1638 C1640 1.415 . S
C1639 C1638 1.355 . S
C1639 C1641 1.419 . S
C1640 C1638 1.415 . S
C1640 C1645 1.425 . S
C1640 C1647 1.409 . S
C1641 H1633 0.930 . S
C1641 C1639 1.419 . S
C1641 C1642 1.362 . S
C1642 H1634 0.930 . S
C1642 C1641 1.362 . S
C1642 C1645 1.409 . S
C1643 H1635 0.930 . S
C1643 C1644 1.355 . S
C1643 C1645 1.415 . S
C1644 C1643 1.355 . S
C1644 C1646 1.419 . S
C1645 C1640 1.425 . S
C1645 C1642 1.409 . S
C1645 C1643 1.415 . S
C1646 H1636 0.930 . S
C1646 C1644 1.419 . S
C1646 C1647 1.362 . S
C1647 H1637 0.930 . S
C1647 C1640 1.409 . S
C1647 C1646 1.362 . S
H1648 C1654 0.930 . S
H1649 C1657 0.930 . S
H1650 C1658 0.930 . S
H1651 C1659 0.930 . S
H1652 C1662 0.930 . S
H1653 C1663 0.930 . S
C1654 H1648 0.930 . S
C1654 C1655 1.355 . S
C1654 C1656 1.415 . S
C1655 C1654 1.355 . S
C1655 C1657 1.419 . S
C1656 C1654 1.415 . S
C1656 C1661 1.425 . S
C1656 C1663 1.409 . S
C1657 H1649 0.930 . S
C1657 C1655 1.419 . S
C1657 C1658 1.362 . S
C1658 H1650 0.930 . S
C1658 C1657 1.362 . S
C1658 C1661 1.409 . S
C1659 H1651 0.930 . S
C1659 C1660 1.355 . S
C1659 C1661 1.415 . S
C1660 C1659 1.355 . S
C1660 C1662 1.419 . S
C1661 C1656 1.425 . S
C1661 C1658 1.409 . S
C1661 C1659 1.415 . S
C1662 H1652 0.930 . S
C1662 C1660 1.419 . S
C1662 C1663 1.362 . S
C1663 H1653 0.930 . S
C1663 C1656 1.409 . S
C1663 C1662 1.362 . S
H1664 C1670 0.930 . S
H1665 C1673 0.930 . S
H1666 C1674 0.930 . S
H1667 C1675 0.930 . S
H1668 C1678 0.930 . S
H1669 C1679 0.930 . S
C1670 H1664 0.930 . S
C1670 C1671 1.355 . S
C1670 C1672 1.415 . S
C1671 C1670 1.355 . S
C1671 C1673 1.419 . S
C1672 C1670 1.415 . S
C1672 C1677 1.425 . S
C1672 C1679 1.409 . S
C1673 H1665 0.930 . S
C1673 C1671 1.419 . S
C1673 C1674 1.362 . S
C1674 H1666 0.930 . S
C1674 C1673 1.362 . S
C1674 C1677 1.409 . S
C1675 H1667 0.930 . S
C1675 C1676 1.355 . S
C1675 C1677 1.415 . S
C1676 C1675 1.355 . S
C1676 C1678 1.419 . S
C1677 C1672 1.425 . S
C1677 C1674 1.409 . S
C1677 C1675 1.415 . S
C1678 H1668 0.930 . S
C1678 C1676 1.419 . S
C1678 C1679 1.362 . S
C1679 H1669 0.930 . S
C1679 C1672 1.409 . S
C1679 C1678 1.362 . S
H1680 C1686 0.930 . S
H1681 C1689 0.930 . S
H1682 C1690 0.930 . S
H1683 C1691 0.930 . S
H1684 C1694 0.930 . S
H1685 C1695 0.930 . S
C1686 H1680 0.930 . S
C1686 C1687 1.355 . S
C1686 C1688 1.415 . S
C1687 C1686 1.355 . S
C1687 C1689 1.419 . S
C1688 C1686 1.415 . S
C1688 C1693 1.425 . S
C1688 C1695 1.409 . S
C1689 H1681 0.930 . S
C1689 C1687 1.419 . S
C1689 C1690 1.362 . S
C1690 H1682 0.930 . S
C1690 C1689 1.362 . S
C1690 C1693 1.409 . S
C1691 H1683 0.930 . S
C1691 C1692 1.355 . S
C1691 C1693 1.415 . S
C1692 C1691 1.355 . S
C1692 C1694 1.419 . S
C1693 C1688 1.425 . S
C1693 C1690 1.409 . S
C1693 C1691 1.415 . S
C1694 H1684 0.930 . S
C1694 C1692 1.419 . S
C1694 C1695 1.362 . S
C1695 H1685 0.930 . S
C1695 C1688 1.409 . S
C1695 C1694 1.362 . S
H1696 C1702 0.930 . S
H1697 C1705 0.930 . S
H1698 C1706 0.930 . S
H1699 C1707 0.930 . S
H1700 C1710 0.930 . S
H1701 C1711 0.930 . S
C1702 H1696 0.930 . S
C1702 C1703 1.355 . S
C1702 C1704 1.415 . S
C1703 C1702 1.355 . S
C1703 C1705 1.419 . S
C1704 C1702 1.415 . S
C1704 C1709 1.425 . S
C1704 C1711 1.409 . S
C1705 H1697 0.930 . S
C1705 C1703 1.419 . S
C1705 C1706 1.362 . S
C1706 H1698 0.930 . S
C1706 C1705 1.362 . S
C1706 C1709 1.409 . S
C1707 H1699 0.930 . S
C1707 C1708 1.355 . S
C1707 C1709 1.415 . S
C1708 C1707 1.355 . S
C1708 C1710 1.419 . S
C1709 C1704 1.425 . S
C1709 C1706 1.409 . S
C1709 C1707 1.415 . S
C1710 H1700 0.930 . S
C1710 C1708 1.419 . S
C1710 C1711 1.362 . S
C1711 H1701 0.930 . S
C1711 C1704 1.409 . S
C1711 C1710 1.362 . S
H1712 C1718 0.930 . S
H1713 C1721 0.930 . S
H1714 C1722 0.930 . S
H1715 C1723 0.930 . S
H1716 C1726 0.930 . S
H1717 C1727 0.930 . S
C1718 H1712 0.930 . S
C1718 C1719 1.355 . S
C1718 C1720 1.415 . S
C1719 C1718 1.355 . S
C1719 C1721 1.419 . S
C1720 C1718 1.415 . S
C1720 C1725 1.425 . S
C1720 C1727 1.409 . S
C1721 H1713 0.930 . S
C1721 C1719 1.419 . S
C1721 C1722 1.362 . S
C1722 H1714 0.930 . S
C1722 C1721 1.362 . S
C1722 C1725 1.409 . S
C1723 H1715 0.930 . S
C1723 C1724 1.355 . S
C1723 C1725 1.415 . S
C1724 C1723 1.355 . S
C1724 C1726 1.419 . S
C1725 C1720 1.425 . S
C1725 C1722 1.409 . S
C1725 C1723 1.415 . S
C1726 H1716 0.930 . S
C1726 C1724 1.419 . S
C1726 C1727 1.362 . S
C1727 H1717 0.930 . S
C1727 C1720 1.409 . S
C1727 C1726 1.362 . S
H1728 C1734 0.930 . S
H1729 C1737 0.930 . S
H1730 C1738 0.930 . S
H1731 C1739 0.930 . S
H1732 C1742 0.930 . S
H1733 C1743 0.930 . S
C1734 H1728 0.930 . S
C1734 C1735 1.355 . S
C1734 C1736 1.415 . S
C1735 C1734 1.355 . S
C1735 C1737 1.419 . S
C1736 C1734 1.415 . S
C1736 C1741 1.425 . S
C1736 C1743 1.409 . S
C1737 H1729 0.930 . S
C1737 C1735 1.419 . S
C1737 C1738 1.362 . S
C1738 H1730 0.930 . S
C1738 C1737 1.362 . S
C1738 C1741 1.409 . S
C1739 H1731 0.930 . S
C1739 C1740 1.355 . S
C1739 C1741 1.415 . S
C1740 C1739 1.355 . S
C1740 C1742 1.419 . S
C1741 C1736 1.425 . S
C1741 C1738 1.409 . S
C1741 C1739 1.415 . S
C1742 H1732 0.930 . S
C1742 C1740 1.419 . S
C1742 C1743 1.362 . S
C1743 H1733 0.930 . S
C1743 C1736 1.409 . S
C1743 C1742 1.362 . S
H1744 C1750 0.930 . S
H1745 C1753 0.930 . S
H1746 C1754 0.930 . S
H1747 C1755 0.930 . S
H1748 C1758 0.930 . S
H1749 C1759 0.930 . S
C1750 H1744 0.930 . S
C1750 C1751 1.355 . S
C1750 C1752 1.415 . S
C1751 C1750 1.355 . S
C1751 C1753 1.419 . S
C1752 C1750 1.415 . S
C1752 C1757 1.425 . S
C1752 C1759 1.409 . S
C1753 H1745 0.930 . S
C1753 C1751 1.419 . S
C1753 C1754 1.362 . S
C1754 H1746 0.930 . S
C1754 C1753 1.362 . S
C1754 C1757 1.409 . S
C1755 H1747 0.930 . S
C1755 C1756 1.355 . S
C1755 C1757 1.415 . S
C1756 C1755 1.355 . S
C1756 C1758 1.419 . S
C1757 C1752 1.425 . S
C1757 C1754 1.409 . S
C1757 C1755 1.415 . S
C1758 H1748 0.930 . S
C1758 C1756 1.419 . S
C1758 C1759 1.362 . S
C1759 H1749 0.930 . S
C1759 C1752 1.409 . S
C1759 C1758 1.362 . S
H1760 C1766 0.930 . S
H1761 C1769 0.930 . S
H1762 C1770 0.930 . S
H1763 C1771 0.930 . S
H1764 C1774 0.930 . S
H1765 C1775 0.930 . S
C1766 H1760 0.930 . S
C1766 C1767 1.355 . S
C1766 C1768 1.415 . S
C1767 C1766 1.355 . S
C1767 C1769 1.419 . S
C1768 C1766 1.415 . S
C1768 C1773 1.425 . S
C1768 C1775 1.409 . S
C1769 H1761 0.930 . S
C1769 C1767 1.419 . S
C1769 C1770 1.362 . S
C1770 H1762 0.930 . S
C1770 C1769 1.362 . S
C1770 C1773 1.409 . S
C1771 H1763 0.930 . S
C1771 C1772 1.355 . S
C1771 C1773 1.415 . S
C1772 C1771 1.355 . S
C1772 C1774 1.419 . S
C1773 C1768 1.425 . S
C1773 C1770 1.409 . S
C1773 C1771 1.415 . S
C1774 H1764 0.930 . S
C1774 C1772 1.419 . S
C1774 C1775 1.362 . S
C1775 H1765 0.930 . S
C1775 C1768 1.409 . S
C1775 C1774 1.362 . S
H1776 C1782 0.937 . S
H1777 C1785 0.930 . S
H1778 C1786 0.930 . S
H1779 C1787 0.937 . S
H1780 C1790 0.930 . S
H1781 C1791 0.930 . S
C1782 H1776 0.937 . S
C1782 C1783 1.355 . S
C1782 C1784 1.415 1_556 S
C1783 C1782 1.355 . S
C1783 C1785 1.419 . S
C1784 C1782 1.415 1_554 S
C1784 C1789 1.425 1_554 S
C1784 C1791 1.409 . S
C1785 H1777 0.930 . S
C1785 C1783 1.419 . S
C1785 C1786 1.362 . S
C1786 H1778 0.930 . S
C1786 C1785 1.362 . S
C1786 C1789 1.409 . S
C1787 H1779 0.937 . S
C1787 C1788 1.355 . S
C1787 C1789 1.415 1_554 S
C1788 C1787 1.355 . S
C1788 C1790 1.419 . S
C1789 C1784 1.425 1_556 S
C1789 C1786 1.409 . S
C1789 C1787 1.415 1_556 S
C1790 H1780 0.930 . S
C1790 C1788 1.419 . S
C1790 C1791 1.362 . S
C1791 H1781 0.930 . S
C1791 C1784 1.409 . S
C1791 C1790 1.362 . S
H1792 C1798 0.930 . S
H1793 C1801 0.930 . S
H1794 C1802 0.930 . S
H1795 C1803 0.930 . S
H1796 C1806 0.930 . S
H1797 C1807 0.930 . S
C1798 H1792 0.930 . S
C1798 C1799 1.355 . S
C1798 C1800 1.415 . S
C1799 C1798 1.355 . S
C1799 C1801 1.419 . S
C1800 C1798 1.415 . S
C1800 C1805 1.425 . S
C1800 C1807 1.409 . S
C1801 H1793 0.930 . S
C1801 C1799 1.419 . S
C1801 C1802 1.362 . S
C1802 H1794 0.930 . S
C1802 C1801 1.362 . S
C1802 C1805 1.409 . S
C1803 H1795 0.930 . S
C1803 C1804 1.355 . S
C1803 C1805 1.415 . S
C1804 C1803 1.355 . S
C1804 C1806 1.419 . S
C1805 C1800 1.425 . S
C1805 C1802 1.409 . S
C1805 C1803 1.415 . S
C1806 H1796 0.930 . S
C1806 C1804 1.419 . S
C1806 C1807 1.362 . S
C1807 H1797 0.930 . S
C1807 C1800 1.409 . S
C1807 C1806 1.362 . S
H1808 C1814 0.930 . S
H1809 C1817 0.930 . S
H1810 C1818 0.930 . S
H1811 C1819 0.930 . S
H1812 C1822 0.930 . S
H1813 C1823 0.930 . S
C1814 H1808 0.930 . S
C1814 C1815 1.355 . S
C1814 C1816 1.415 1_565 S
C1815 C1814 1.355 . S
C1815 C1817 1.419 . S
C1816 C1814 1.415 1_545 S
C1816 C1821 1.425 1_545 S
C1816 C1823 1.409 . S
C1817 H1809 0.930 . S
C1817 C1815 1.419 . S
C1817 C1818 1.362 . S
C1818 H1810 0.930 . S
C1818 C1817 1.362 . S
C1818 C1821 1.409 . S
C1819 H1811 0.930 . S
C1819 C1820 1.355 . S
C1819 C1821 1.415 1_545 S
C1820 C1819 1.355 . S
C1820 C1822 1.419 . S
C1821 C1816 1.425 1_565 S
C1821 C1818 1.409 . S
C1821 C1819 1.415 1_565 S
C1822 H1812 0.930 . S
C1822 C1820 1.419 . S
C1822 C1823 1.362 . S
C1823 H1813 0.930 . S
C1823 C1816 1.409 . S
C1823 C1822 1.362 . S
H1824 C1830 0.930 . S
H1825 C1833 0.930 . S
H1826 C1834 0.930 . S
H1827 C1835 0.930 . S
H1828 C1838 0.930 . S
H1829 C1839 0.930 . S
C1830 H1824 0.930 . S
C1830 C1831 1.355 . S
C1830 C1832 1.415 . S
C1831 C1830 1.355 . S
C1831 C1833 1.419 . S
C1832 C1830 1.415 . S
C1832 C1837 1.425 . S
C1832 C1839 1.409 . S
C1833 H1825 0.930 . S
C1833 C1831 1.419 . S
C1833 C1834 1.362 . S
C1834 H1826 0.930 . S
C1834 C1833 1.362 . S
C1834 C1837 1.409 . S
C1835 H1827 0.930 . S
C1835 C1836 1.355 . S
C1835 C1837 1.415 . S
C1836 C1835 1.355 . S
C1836 C1838 1.419 . S
C1837 C1832 1.425 . S
C1837 C1834 1.409 . S
C1837 C1835 1.415 . S
C1838 H1828 0.930 . S
C1838 C1836 1.419 . S
C1838 C1839 1.362 . S
C1839 H1829 0.930 . S
C1839 C1832 1.409 . S
C1839 C1838 1.362 . S
H1840 C1846 0.930 . S
H1841 C1849 0.930 . S
H1842 C1850 0.930 . S
H1843 C1851 0.930 . S
H1844 C1854 0.930 . S
H1845 C1855 0.930 . S
C1846 H1840 0.930 . S
C1846 C1847 1.355 . S
C1846 C1848 1.415 . S
C1847 C1846 1.355 . S
C1847 C1849 1.419 . S
C1848 C1846 1.415 . S
C1848 C1853 1.425 . S
C1848 C1855 1.409 . S
C1849 H1841 0.930 . S
C1849 C1847 1.419 . S
C1849 C1850 1.362 . S
C1850 H1842 0.930 . S
C1850 C1849 1.362 . S
C1850 C1853 1.409 . S
C1851 H1843 0.930 . S
C1851 C1852 1.355 . S
C1851 C1853 1.415 . S
C1852 C1851 1.355 . S
C1852 C1854 1.419 . S
C1853 C1848 1.425 . S
C1853 C1850 1.409 . S
C1853 C1851 1.415 . S
C1854 H1844 0.930 . S
C1854 C1852 1.419 . S
C1854 C1855 1.362 . S
C1855 H1845 0.930 . S
C1855 C1848 1.409 . S
C1855 C1854 1.362 . S
H1856 C1862 0.930 . S
H1857 C1865 0.930 . S
H1858 C1866 0.930 . S
H1859 C1867 0.930 . S
H1860 C1870 0.930 . S
H1861 C1871 0.930 . S
C1862 H1856 0.930 . S
C1862 C1863 1.355 . S
C1862 C1864 1.415 . S
C1863 C1862 1.355 . S
C1863 C1865 1.419 . S
C1864 C1862 1.415 . S
C1864 C1869 1.425 . S
C1864 C1871 1.409 . S
C1865 H1857 0.930 . S
C1865 C1863 1.419 . S
C1865 C1866 1.362 . S
C1866 H1858 0.930 . S
C1866 C1865 1.362 . S
C1866 C1869 1.409 . S
C1867 H1859 0.930 . S
C1867 C1868 1.355 . S
C1867 C1869 1.415 . S
C1868 C1867 1.355 . S
C1868 C1870 1.419 . S
C1869 C1864 1.425 . S
C1869 C1866 1.409 . S
C1869 C1867 1.415 . S
C1870 H1860 0.930 . S
C1870 C1868 1.419 . S
C1870 C1871 1.362 . S
C1871 H1861 0.930 . S
C1871 C1864 1.409 . S
C1871 C1870 1.362 . S
H1872 C1878 0.930 . S
H1873 C1881 0.930 . S
H1874 C1882 0.930 . S
H1875 C1883 0.930 . S
H1876 C1886 0.930 . S
H1877 C1887 0.930 . S
C1878 H1872 0.930 . S
C1878 C1879 1.355 . S
C1878 C1880 1.415 . S
C1879 C1878 1.355 . S
C1879 C1881 1.419 . S
C1880 C1878 1.415 . S
C1880 C1885 1.425 1_556 S
C1880 C1887 1.409 . S
C1881 H1873 0.930 . S
C1881 C1879 1.419 . S
C1881 C1882 1.362 1_556 S
C1882 H1874 0.930 . S
C1882 C1881 1.362 1_554 S
C1882 C1885 1.409 . S
C1883 H1875 0.930 . S
C1883 C1884 1.355 . S
C1883 C1885 1.415 . S
C1884 C1883 1.355 . S
C1884 C1886 1.419 . S
C1885 C1880 1.425 1_554 S
C1885 C1882 1.409 . S
C1885 C1883 1.415 . S
C1886 H1876 0.930 . S
C1886 C1884 1.419 . S
C1886 C1887 1.362 1_554 S
C1887 H1877 0.930 . S
C1887 C1880 1.409 . S
C1887 C1886 1.362 1_556 S
H1888 C1894 0.930 . S
H1889 C1897 0.930 . S
H1890 C1898 0.930 . S
H1891 C1899 0.930 . S
H1892 C1902 0.930 . S
H1893 C1903 0.930 . S
C1894 H1888 0.930 . S
C1894 C1895 1.355 . S
C1894 C1896 1.415 . S
C1895 C1894 1.355 . S
C1895 C1897 1.419 . S
C1896 C1894 1.415 . S
C1896 C1901 1.425 . S
C1896 C1903 1.409 . S
C1897 H1889 0.930 . S
C1897 C1895 1.419 . S
C1897 C1898 1.362 . S
C1898 H1890 0.930 . S
C1898 C1897 1.362 . S
C1898 C1901 1.409 . S
C1899 H1891 0.930 . S
C1899 C1900 1.355 . S
C1899 C1901 1.415 . S
C1900 C1899 1.355 . S
C1900 C1902 1.419 . S
C1901 C1896 1.425 . S
C1901 C1898 1.409 . S
C1901 C1899 1.415 . S
C1902 H1892 0.930 . S
C1902 C1900 1.419 . S
C1902 C1903 1.362 . S
C1903 H1893 0.930 . S
C1903 C1896 1.409 . S
C1903 C1902 1.362 . S
H1904 C1910 0.930 . S
H1905 C1913 0.930 . S
H1906 C1914 0.930 . S
H1907 C1915 0.930 . S
H1908 C1918 0.930 . S
H1909 C1919 0.930 . S
C1910 H1904 0.930 . S
C1910 C1911 1.355 . S
C1910 C1912 1.415 1_556 S
C1911 C1910 1.355 . S
C1911 C1913 1.419 . S
C1912 C1910 1.415 1_554 S
C1912 C1917 1.425 1_554 S
C1912 C1919 1.409 . S
C1913 H1905 0.930 . S
C1913 C1911 1.419 . S
C1913 C1914 1.362 . S
C1914 H1906 0.930 . S
C1914 C1913 1.362 . S
C1914 C1917 1.409 . S
C1915 H1907 0.930 . S
C1915 C1916 1.355 . S
C1915 C1917 1.415 1_554 S
C1916 C1915 1.355 . S
C1916 C1918 1.419 . S
C1917 C1912 1.425 1_556 S
C1917 C1914 1.409 . S
C1917 C1915 1.415 1_556 S
C1918 H1908 0.930 . S
C1918 C1916 1.419 . S
C1918 C1919 1.362 . S
C1919 H1909 0.930 . S
C1919 C1912 1.409 . S
C1919 C1918 1.362 . S
H1920 C1926 0.930 . S
H1921 C1929 0.940 . S
H1922 C1930 0.930 . S
H1923 C1931 0.930 . S
H1924 C1934 0.940 . S
H1925 C1935 0.930 . S
C1926 H1920 0.930 . S
C1926 C1927 1.355 . S
C1926 C1928 1.415 . S
C1927 C1926 1.355 . S
C1927 C1929 1.419 . S
C1928 C1926 1.415 . S
C1928 C1933 1.425 1_565 S
C1928 C1935 1.409 . S
C1929 H1921 0.940 . S
C1929 C1927 1.419 . S
C1929 C1930 1.362 1_565 S
C1930 H1922 0.930 . S
C1930 C1929 1.362 1_545 S
C1930 C1933 1.409 . S
C1931 H1923 0.930 . S
C1931 C1932 1.355 . S
C1931 C1933 1.415 . S
C1932 C1931 1.355 . S
C1932 C1934 1.419 . S
C1933 C1928 1.425 1_545 S
C1933 C1930 1.409 . S
C1933 C1931 1.415 . S
C1934 H1924 0.940 . S
C1934 C1932 1.419 . S
C1934 C1935 1.362 1_545 S
C1935 H1925 0.930 . S
C1935 C1928 1.409 . S
C1935 C1934 1.362 1_565 S
H1936 C1942 0.930 . S
H1937 C1945 0.930 . S
H1938 C1946 0.930 . S
H1939 C1947 0.930 . S
H1940 C1950 0.930 . S
H1941 C1951 0.930 . S
C1942 H1936 0.930 . S
C1942 C1943 1.355 . S
C1942 C1944 1.415 . S
C1943 C1942 1.355 . S
C1943 C1945 1.419 . S
C1944 C1942 1.415 . S
C1944 C1949 1.425 . S
C1944 C1951 1.409 . S
C1945 H1937 0.930 . S
C1945 C1943 1.419 . S
C1945 C1946 1.362 . S
C1946 H1938 0.930 . S
C1946 C1945 1.362 . S
C1946 C1949 1.409 . S
C1947 H1939 0.930 . S
C1947 C1948 1.355 . S
C1947 C1949 1.415 . S
C1948 C1947 1.355 . S
C1948 C1950 1.419 . S
C1949 C1944 1.425 . S
C1949 C1946 1.409 . S
C1949 C1947 1.415 . S
C1950 H1940 0.930 . S
C1950 C1948 1.419 . S
C1950 C1951 1.362 . S
C1951 H1941 0.930 . S
C1951 C1944 1.409 . S
C1951 C1950 1.362 . S
H1952 C1958 0.913 1_545 S
H1953 C1961 0.930 . S
H1954 C1962 0.930 . S
H1955 C1963 0.913 1_565 S
H1956 C1966 0.930 . S
H1957 C1967 0.930 . S
C1958 H1952 0.913 1_565 S
C1958 C1959 1.355 . S
C1958 C1960 1.415 1_565 S
C1959 C1958 1.355 . S
C1959 C1961 1.419 . S
C1960 C1958 1.415 1_545 S
C1960 C1965 1.425 1_545 S
C1960 C1967 1.409 . S
C1961 H1953 0.930 . S
C1961 C1959 1.419 . S
C1961 C1962 1.362 . S
C1962 H1954 0.930 . S
C1962 C1961 1.362 . S
C1962 C1965 1.409 . S
C1963 H1955 0.913 1_545 S
C1963 C1964 1.355 . S
C1963 C1965 1.415 1_545 S
C1964 C1963 1.355 . S
C1964 C1966 1.419 . S
C1965 C1960 1.425 1_565 S
C1965 C1962 1.409 . S
C1965 C1963 1.415 1_565 S
C1966 H1956 0.930 . S
C1966 C1964 1.419 . S
C1966 C1967 1.362 . S
C1967 H1957 0.930 . S
C1967 C1960 1.409 . S
C1967 C1966 1.362 . S
H1968 C1974 0.930 . S
H1969 C1977 0.930 . S
H1970 C1978 0.930 . S
H1971 C1979 0.930 . S
H1972 C1982 0.930 . S
H1973 C1983 0.930 . S
C1974 H1968 0.930 . S
C1974 C1975 1.355 . S
C1974 C1976 1.415 . S
C1975 C1974 1.355 . S
C1975 C1977 1.419 . S
C1976 C1974 1.415 . S
C1976 C1981 1.425 . S
C1976 C1983 1.409 . S
C1977 H1969 0.930 . S
C1977 C1975 1.419 . S
C1977 C1978 1.362 . S
C1978 H1970 0.930 . S
C1978 C1977 1.362 . S
C1978 C1981 1.409 . S
C1979 H1971 0.930 . S
C1979 C1980 1.355 . S
C1979 C1981 1.415 . S
C1980 C1979 1.355 . S
C1980 C1982 1.419 . S
C1981 C1976 1.425 . S
C1981 C1978 1.409 . S
C1981 C1979 1.415 . S
C1982 H1972 0.930 . S
C1982 C1980 1.419 . S
C1982 C1983 1.362 . S
C1983 H1973 0.930 . S
C1983 C1976 1.409 . S
C1983 C1982 1.362 . S
H1984 C1990 0.930 . S
H1985 C1993 0.930 . S
H1986 C1994 0.930 . S
H1987 C1995 0.930 . S
H1988 C1998 0.930 . S
H1989 C1999 0.930 . S
C1990 H1984 0.930 . S
C1990 C1991 1.355 . S
C1990 C1992 1.415 . S
C1991 C1990 1.355 . S
C1991 C1993 1.419 . S
C1992 C1990 1.415 . S
C1992 C1997 1.425 . S
C1992 C1999 1.409 . S
C1993 H1985 0.930 . S
C1993 C1991 1.419 . S
C1993 C1994 1.362 . S
C1994 H1986 0.930 . S
C1994 C1993 1.362 . S
C1994 C1997 1.409 . S
C1995 H1987 0.930 . S
C1995 C1996 1.355 . S
C1995 C1997 1.415 . S
C1996 C1995 1.355 . S
C1996 C1998 1.419 . S
C1997 C1992 1.425 . S
C1997 C1994 1.409 . S
C1997 C1995 1.415 . S
C1998 H1988 0.930 . S
C1998 C1996 1.419 . S
C1998 C1999 1.362 . S
C1999 H1989 0.930 . S
C1999 C1992 1.409 . S
C1999 C1998 1.362 . S
H2000 C2006 0.930 . S
H2001 C2009 0.930 . S
H2002 C2010 0.930 . S
H2003 C2011 0.930 . S
H2004 C2014 0.930 . S
H2005 C2015 0.930 . S
C2006 H2000 0.930 . S
C2006 C2007 1.355 . S
C2006 C2008 1.415 . S
C2007 C2006 1.355 . S
C2007 C2009 1.419 . S
C2008 C2006 1.415 . S
C2008 C2013 1.425 . S
C2008 C2015 1.409 . S
C2009 H2001 0.930 . S
C2009 C2007 1.419 . S
C2009 C2010 1.362 . S
C2010 H2002 0.930 . S
C2010 C2009 1.362 . S
C2010 C2013 1.409 . S
C2011 H2003 0.930 . S
C2011 C2012 1.355 . S
C2011 C2013 1.415 . S
C2012 C2011 1.355 . S
C2012 C2014 1.419 . S
C2013 C2008 1.425 . S
C2013 C2010 1.409 . S
C2013 C2011 1.415 . S
C2014 H2004 0.930 . S
C2014 C2012 1.419 . S
C2014 C2015 1.362 . S
C2015 H2005 0.930 . S
C2015 C2008 1.409 . S
C2015 C2014 1.362 . S
H2016 C2022 0.930 . S
H2017 C2025 0.930 . S
H2018 C2026 0.930 . S
H2019 C2027 0.930 . S
H2020 C2030 0.930 . S
H2021 C2031 0.930 1_455 S
C2022 H2016 0.930 . S
C2022 C2023 1.355 . S
C2022 C2024 1.415 1_455 S
C2023 C2022 1.355 . S
C2023 C2025 1.419 1_455 S
C2024 C2022 1.415 1_655 S
C2024 C2029 1.425 . S
C2024 C2031 1.409 . S
C2025 H2017 0.930 . S
C2025 C2023 1.419 1_655 S
C2025 C2026 1.362 . S
C2026 H2018 0.930 . S
C2026 C2025 1.362 . S
C2026 C2029 1.409 . S
C2027 H2019 0.930 . S
C2027 C2028 1.355 . S
C2027 C2029 1.415 . S
C2028 C2027 1.355 . S
C2028 C2030 1.419 . S
C2029 C2024 1.425 . S
C2029 C2026 1.409 . S
C2029 C2027 1.415 . S
C2030 H2020 0.930 . S
C2030 C2028 1.419 . S
C2030 C2031 1.362 . S
C2031 H2021 0.930 1_655 S
C2031 C2024 1.409 . S
C2031 C2030 1.362 . S
H2032 C2038 0.930 . S
H2033 C2041 0.930 . S
H2034 C2042 0.930 . S
H2035 C2043 0.930 . S
H2036 C2046 0.930 . S
H2037 C2047 0.930 . S
C2038 H2032 0.930 . S
C2038 C2039 1.355 . S
C2038 C2040 1.415 . S
C2039 C2038 1.355 . S
C2039 C2041 1.419 . S
C2040 C2038 1.415 . S
C2040 C2045 1.425 . S
C2040 C2047 1.409 1_655 S
C2041 H2033 0.930 . S
C2041 C2039 1.419 . S
C2041 C2042 1.362 . S
C2042 H2034 0.930 . S
C2042 C2041 1.362 . S
C2042 C2045 1.409 . S
C2043 H2035 0.930 . S
C2043 C2044 1.355 1_655 S
C2043 C2045 1.415 . S
C2044 C2043 1.355 1_455 S
C2044 C2046 1.419 . S
C2045 C2040 1.425 . S
C2045 C2042 1.409 . S
C2045 C2043 1.415 . S
C2046 H2036 0.930 . S
C2046 C2044 1.419 . S
C2046 C2047 1.362 . S
C2047 H2037 0.930 . S
C2047 C2040 1.409 1_455 S
C2047 C2046 1.362 . S
H2048 C2054 0.930 . S
H2049 C2057 0.930 . S
H2050 C2058 0.930 . S
H2051 C2059 0.930 . S
H2052 C2062 0.930 . S
H2053 C2063 0.930 1_655 S
C2054 H2048 0.930 . S
C2054 C2055 1.355 . S
C2054 C2056 1.415 1_655 S
C2055 C2054 1.355 . S
C2055 C2057 1.419 1_655 S
C2056 C2054 1.415 1_455 S
C2056 C2061 1.425 . S
C2056 C2063 1.409 . S
C2057 H2049 0.930 . S
C2057 C2055 1.419 1_455 S
C2057 C2058 1.362 . S
C2058 H2050 0.930 . S
C2058 C2057 1.362 . S
C2058 C2061 1.409 . S
C2059 H2051 0.930 . S
C2059 C2060 1.355 . S
C2059 C2061 1.415 . S
C2060 C2059 1.355 . S
C2060 C2062 1.419 . S
C2061 C2056 1.425 . S
C2061 C2058 1.409 . S
C2061 C2059 1.415 . S
C2062 H2052 0.930 . S
C2062 C2060 1.419 . S
C2062 C2063 1.362 . S
C2063 H2053 0.930 1_455 S
C2063 C2056 1.409 . S
C2063 C2062 1.362 . S
H2064 C2070 0.930 . S
H2065 C2073 0.930 . S
H2066 C2074 0.930 . S
H2067 C2075 0.930 . S
H2068 C2078 0.930 . S
H2069 C2079 0.930 1_655 S
C2070 H2064 0.930 . S
C2070 C2071 1.355 . S
C2070 C2072 1.415 1_655 S
C2071 C2070 1.355 . S
C2071 C2073 1.419 1_655 S
C2072 C2070 1.415 1_455 S
C2072 C2077 1.425 . S
C2072 C2079 1.409 . S
C2073 H2065 0.930 . S
C2073 C2071 1.419 1_455 S
C2073 C2074 1.362 . S
C2074 H2066 0.930 . S
C2074 C2073 1.362 . S
C2074 C2077 1.409 . S
C2075 H2067 0.930 . S
C2075 C2076 1.355 . S
C2075 C2077 1.415 . S
C2076 C2075 1.355 . S
C2076 C2078 1.419 . S
C2077 C2072 1.425 . S
C2077 C2074 1.409 . S
C2077 C2075 1.415 . S
C2078 H2068 0.930 . S
C2078 C2076 1.419 . S
C2078 C2079 1.362 . S
C2079 H2069 0.930 1_455 S
C2079 C2072 1.409 . S
C2079 C2078 1.362 . S
H2080 C2086 0.930 . S
H2081 C2089 0.930 . S
H2082 C2090 0.930 . S
H2083 C2091 0.930 . S
H2084 C2094 0.930 . S
H2085 C2095 0.930 . S
C2086 H2080 0.930 . S
C2086 C2087 1.355 1_655 S
C2086 C2088 1.415 . S
C2087 C2086 1.355 1_455 S
C2087 C2089 1.419 . S
C2088 C2086 1.415 . S
C2088 C2093 1.425 . S
C2088 C2095 1.409 . S
C2089 H2081 0.930 . S
C2089 C2087 1.419 . S
C2089 C2090 1.362 . S
C2090 H2082 0.930 . S
C2090 C2089 1.362 . S
C2090 C2093 1.409 1_455 S
C2091 H2083 0.930 . S
C2091 C2092 1.355 . S
C2091 C2093 1.415 . S
C2092 C2091 1.355 . S
C2092 C2094 1.419 . S
C2093 C2088 1.425 . S
C2093 C2090 1.409 1_655 S
C2093 C2091 1.415 . S
C2094 H2084 0.930 . S
C2094 C2092 1.419 . S
C2094 C2095 1.362 . S
C2095 H2085 0.930 . S
C2095 C2088 1.409 . S
C2095 C2094 1.362 . S
H2096 C2102 0.930 . S
H2097 C2105 0.930 . S
H2098 C2106 0.930 . S
H2099 C2107 0.930 . S
H2100 C2110 0.930 . S
H2101 C2111 0.930 . S
C2102 H2096 0.930 . S
C2102 C2103 1.355 . S
C2102 C2104 1.415 . S
C2103 C2102 1.355 . S
C2103 C2105 1.419 . S
C2104 C2102 1.415 . S
C2104 C2109 1.425 . S
C2104 C2111 1.409 . S
C2105 H2097 0.930 . S
C2105 C2103 1.419 . S
C2105 C2106 1.362 . S
C2106 H2098 0.930 . S
C2106 C2105 1.362 . S
C2106 C2109 1.409 . S
C2107 H2099 0.930 . S
C2107 C2108 1.355 . S
C2107 C2109 1.415 . S
C2108 C2107 1.355 . S
C2108 C2110 1.419 . S
C2109 C2104 1.425 . S
C2109 C2106 1.409 . S
C2109 C2107 1.415 . S
C2110 H2100 0.930 . S
C2110 C2108 1.419 . S
C2110 C2111 1.362 . S
C2111 H2101 0.930 . S
C2111 C2104 1.409 . S
C2111 C2110 1.362 . S
H2112 C2118 0.930 . S
H2113 C2121 0.930 . S
H2114 C2122 0.930 . S
H2115 C2123 0.930 . S
H2116 C2126 0.930 . S
H2117 C2127 0.930 . S
C2118 H2112 0.930 . S
C2118 C2119 1.355 . S
C2118 C2120 1.415 1_655 S
C2119 C2118 1.355 . S
C2119 C2121 1.419 1_655 S
C2120 C2118 1.415 1_455 S
C2120 C2125 1.425 . S
C2120 C2127 1.409 . S
C2121 H2113 0.930 . S
C2121 C2119 1.419 1_455 S
C2121 C2122 1.362 . S
C2122 H2114 0.930 . S
C2122 C2121 1.362 . S
C2122 C2125 1.409 . S
C2123 H2115 0.930 . S
C2123 C2124 1.355 . S
C2123 C2125 1.415 . S
C2124 C2123 1.355 . S
C2124 C2126 1.419 . S
C2125 C2120 1.425 . S
C2125 C2122 1.409 . S
C2125 C2123 1.415 . S
C2126 H2116 0.930 . S
C2126 C2124 1.419 . S
C2126 C2127 1.362 . S
C2127 H2117 0.930 . S
C2127 C2120 1.409 . S
C2127 C2126 1.362 . S
H2128 C2134 0.930 . S
H2129 C2137 0.930 . S
H2130 C2138 0.930 . S
H2131 C2139 0.930 . S
H2132 C2142 0.930 . S
H2133 C2143 0.930 . S
C2134 H2128 0.930 . S
C2134 C2135 1.355 . S
C2134 C2136 1.415 . S
C2135 C2134 1.355 . S
C2135 C2137 1.419 . S
C2136 C2134 1.415 . S
C2136 C2141 1.425 . S
C2136 C2143 1.409 . S
C2137 H2129 0.930 . S
C2137 C2135 1.419 . S
C2137 C2138 1.362 . S
C2138 H2130 0.930 . S
C2138 C2137 1.362 . S
C2138 C2141 1.409 . S
C2139 H2131 0.930 . S
C2139 C2140 1.355 . S
C2139 C2141 1.415 . S
C2140 C2139 1.355 . S
C2140 C2142 1.419 . S
C2141 C2136 1.425 . S
C2141 C2138 1.409 . S
C2141 C2139 1.415 . S
C2142 H2132 0.930 . S
C2142 C2140 1.419 . S
C2142 C2143 1.362 . S
C2143 H2133 0.930 . S
C2143 C2136 1.409 . S
C2143 C2142 1.362 . S
H2144 C2150 0.930 . S
H2145 C2153 0.930 . S
H2146 C2154 0.930 . S
H2147 C2155 0.930 . S
H2148 C2158 0.930 . S
H2149 C2159 0.930 . S
C2150 H2144 0.930 . S
C2150 C2151 1.355 1_565 S
C2150 C2152 1.415 . S
C2151 C2150 1.355 1_545 S
C2151 C2153 1.419 . S
C2152 C2150 1.415 . S
C2152 C2157 1.425 . S
C2152 C2159 1.409 . S
C2153 H2145 0.930 . S
C2153 C2151 1.419 . S
C2153 C2154 1.362 1_545 S
C2154 H2146 0.930 . S
C2154 C2153 1.362 1_565 S
C2154 C2157 1.409 . S
C2155 H2147 0.930 . S
C2155 C2156 1.355 . S
C2155 C2157 1.415 . S
C2156 C2155 1.355 . S
C2156 C2158 1.419 . S
C2157 C2152 1.425 . S
C2157 C2154 1.409 . S
C2157 C2155 1.415 . S
C2158 H2148 0.930 . S
C2158 C2156 1.419 . S
C2158 C2159 1.362 . S
C2159 H2149 0.930 . S
C2159 C2152 1.409 . S
C2159 C2158 1.362 . S
H2160 C2166 0.930 . S
H2161 C2169 0.930 . S
H2162 C2170 0.930 . S
H2163 C2171 0.930 . S
H2164 C2174 0.930 . S
H2165 C2175 0.930 . S
C2166 H2160 0.930 . S
C2166 C2167 1.355 . S
C2166 C2168 1.415 . S
C2167 C2166 1.355 . S
C2167 C2169 1.419 . S
C2168 C2166 1.415 . S
C2168 C2173 1.425 . S
C2168 C2175 1.409 . S
C2169 H2161 0.930 . S
C2169 C2167 1.419 . S
C2169 C2170 1.362 . S
C2170 H2162 0.930 . S
C2170 C2169 1.362 . S
C2170 C2173 1.409 . S
C2171 H2163 0.930 . S
C2171 C2172 1.355 . S
C2171 C2173 1.415 . S
C2172 C2171 1.355 . S
C2172 C2174 1.419 . S
C2173 C2168 1.425 . S
C2173 C2170 1.409 . S
C2173 C2171 1.415 . S
C2174 H2164 0.930 . S
C2174 C2172 1.419 . S
C2174 C2175 1.362 . S
C2175 H2165 0.930 . S
C2175 C2168 1.409 . S
C2175 C2174 1.362 . S
H2176 C2182 0.930 . S
H2177 C2185 0.930 . S
H2178 C2186 0.930 . S
H2179 C2187 0.930 . S
H2180 C2190 0.930 . S
H2181 C2191 0.930 . S
C2182 H2176 0.930 . S
C2182 C2183 1.355 . S
C2182 C2184 1.415 . S
C2183 C2182 1.355 . S
C2183 C2185 1.419 . S
C2184 C2182 1.415 . S
C2184 C2189 1.425 . S
C2184 C2191 1.409 . S
C2185 H2177 0.930 . S
C2185 C2183 1.419 . S
C2185 C2186 1.362 . S
C2186 H2178 0.930 . S
C2186 C2185 1.362 . S
C2186 C2189 1.409 . S
C2187 H2179 0.930 . S
C2187 C2188 1.355 . S
C2187 C2189 1.415 . S
C2188 C2187 1.355 . S
C2188 C2190 1.419 . S
C2189 C2184 1.425 . S
C2189 C2186 1.409 . S
C2189 C2187 1.415 . S
C2190 H2180 0.930 . S
C2190 C2188 1.419 . S
C2190 C2191 1.362 . S
C2191 H2181 0.930 . S
C2191 C2184 1.409 . S
C2191 C2190 1.362 . S
H2192 C2198 0.930 . S
H2193 C2201 0.930 . S
H2194 C2202 0.930 . S
H2195 C2203 0.930 . S
H2196 C2206 0.930 . S
H2197 C2207 0.935 . S
C2198 H2192 0.930 . S
C2198 C2199 1.355 . S
C2198 C2200 1.415 . S
C2199 C2198 1.355 . S
C2199 C2201 1.419 . S
C2200 C2198 1.415 . S
C2200 C2205 1.425 . S
C2200 C2207 1.409 . S
C2201 H2193 0.930 . S
C2201 C2199 1.419 . S
C2201 C2202 1.362 . S
C2202 H2194 0.930 . S
C2202 C2201 1.362 . S
C2202 C2205 1.409 . S
C2203 H2195 0.930 . S
C2203 C2204 1.355 1_554 S
C2203 C2205 1.415 . S
C2204 C2203 1.355 1_556 S
C2204 C2206 1.419 . S
C2205 C2200 1.425 . S
C2205 C2202 1.409 . S
C2205 C2203 1.415 . S
C2206 H2196 0.930 . S
C2206 C2204 1.419 . S
C2206 C2207 1.362 1_556 S
C2207 H2197 0.935 . S
C2207 C2200 1.409 . S
C2207 C2206 1.362 1_554 S
H2208 C2214 0.930 . S
H2209 C2217 0.930 . S
H2210 C2218 0.930 . S
H2211 C2219 0.930 . S
H2212 C2222 0.930 . S
H2213 C2223 0.930 . S
C2214 H2208 0.930 . S
C2214 C2215 1.355 . S
C2214 C2216 1.415 . S
C2215 C2214 1.355 . S
C2215 C2217 1.419 . S
C2216 C2214 1.415 . S
C2216 C2221 1.425 . S
C2216 C2223 1.409 1_545 S
C2217 H2209 0.930 . S
C2217 C2215 1.419 . S
C2217 C2218 1.362 . S
C2218 H2210 0.930 . S
C2218 C2217 1.362 . S
C2218 C2221 1.409 . S
C2219 H2211 0.930 . S
C2219 C2220 1.355 1_545 S
C2219 C2221 1.415 . S
C2220 C2219 1.355 1_565 S
C2220 C2222 1.419 . S
C2221 C2216 1.425 . S
C2221 C2218 1.409 . S
C2221 C2219 1.415 . S
C2222 H2212 0.930 . S
C2222 C2220 1.419 . S
C2222 C2223 1.362 . S
C2223 H2213 0.930 . S
C2223 C2216 1.409 1_565 S
C2223 C2222 1.362 . S
H2224 C2230 0.930 . S
H2225 C2233 0.930 . S
H2226 C2234 0.930 . S
H2227 C2235 0.930 . S
H2228 C2238 0.930 . S
H2229 C2239 0.930 . S
C2230 H2224 0.930 . S
C2230 C2231 1.355 1_556 S
C2230 C2232 1.415 . S
C2231 C2230 1.355 1_554 S
C2231 C2233 1.419 . S
C2232 C2230 1.415 . S
C2232 C2237 1.425 . S
C2232 C2239 1.409 . S
C2233 H2225 0.930 . S
C2233 C2231 1.419 . S
C2233 C2234 1.362 . S
C2234 H2226 0.930 . S
C2234 C2233 1.362 . S
C2234 C2237 1.409 1_554 S
C2235 H2227 0.930 . S
C2235 C2236 1.355 . S
C2235 C2237 1.415 . S
C2236 C2235 1.355 . S
C2236 C2238 1.419 . S
C2237 C2232 1.425 . S
C2237 C2234 1.409 1_556 S
C2237 C2235 1.415 . S
C2238 H2228 0.930 . S
C2238 C2236 1.419 . S
C2238 C2239 1.362 . S
C2239 H2229 0.930 . S
C2239 C2232 1.409 . S
C2239 C2238 1.362 . S
H2240 C2246 0.930 . S
H2241 C2249 0.930 . S
H2242 C2250 0.930 . S
H2243 C2251 0.930 . S
H2244 C2254 0.930 . S
H2245 C2255 0.930 . S
C2246 H2240 0.930 . S
C2246 C2247 1.355 . S
C2246 C2248 1.415 . S
C2247 C2246 1.355 . S
C2247 C2249 1.419 . S
C2248 C2246 1.415 . S
C2248 C2253 1.425 . S
C2248 C2255 1.409 . S
C2249 H2241 0.930 . S
C2249 C2247 1.419 . S
C2249 C2250 1.362 . S
C2250 H2242 0.930 . S
C2250 C2249 1.362 . S
C2250 C2253 1.409 . S
C2251 H2243 0.930 . S
C2251 C2252 1.355 . S
C2251 C2253 1.415 . S
C2252 C2251 1.355 . S
C2252 C2254 1.419 . S
C2253 C2248 1.425 . S
C2253 C2250 1.409 . S
C2253 C2251 1.415 . S
C2254 H2244 0.930 . S
C2254 C2252 1.419 . S
C2254 C2255 1.362 . S
C2255 H2245 0.930 . S
C2255 C2248 1.409 . S
C2255 C2254 1.362 . S
H2256 C2262 0.930 . S
H2257 C2265 0.930 . S
H2258 C2266 0.930 . S
H2259 C2267 0.930 . S
H2260 C2270 0.930 . S
H2261 C2271 0.930 . S
C2262 H2256 0.930 . S
C2262 C2263 1.355 . S
C2262 C2264 1.415 . S
C2263 C2262 1.355 . S
C2263 C2265 1.419 . S
C2264 C2262 1.415 . S
C2264 C2269 1.425 . S
C2264 C2271 1.409 . S
C2265 H2257 0.930 . S
C2265 C2263 1.419 . S
C2265 C2266 1.362 . S
C2266 H2258 0.930 . S
C2266 C2265 1.362 . S
C2266 C2269 1.409 . S
C2267 H2259 0.930 . S
C2267 C2268 1.355 . S
C2267 C2269 1.415 . S
C2268 C2267 1.355 . S
C2268 C2270 1.419 . S
C2269 C2264 1.425 . S
C2269 C2266 1.409 . S
C2269 C2267 1.415 . S
C2270 H2260 0.930 . S
C2270 C2268 1.419 . S
C2270 C2271 1.362 . S
C2271 H2261 0.930 . S
C2271 C2264 1.409 . S
C2271 C2270 1.362 . S
H2272 C2278 0.930 . S
H2273 C2281 0.930 . S
H2274 C2282 0.930 1_554 S
H2275 C2283 0.930 . S
H2276 C2286 0.930 . S
H2277 C2287 0.930 . S
C2278 H2272 0.930 . S
C2278 C2279 1.355 . S
C2278 C2280 1.415 . S
C2279 C2278 1.355 . S
C2279 C2281 1.419 . S
C2280 C2278 1.415 . S
C2280 C2285 1.425 . S
C2280 C2287 1.409 . S
C2281 H2273 0.930 . S
C2281 C2279 1.419 . S
C2281 C2282 1.362 . S
C2282 H2274 0.930 1_556 S
C2282 C2281 1.362 . S
C2282 C2285 1.409 . S
C2283 H2275 0.930 . S
C2283 C2284 1.355 . S
C2283 C2285 1.415 1_554 S
C2284 C2283 1.355 . S
C2284 C2286 1.419 1_554 S
C2285 C2280 1.425 . S
C2285 C2282 1.409 . S
C2285 C2283 1.415 1_556 S
C2286 H2276 0.930 . S
C2286 C2284 1.419 1_556 S
C2286 C2287 1.362 . S
C2287 H2277 0.930 . S
C2287 C2280 1.409 . S
C2287 C2286 1.362 . S
H2288 C2294 0.930 . S
H2289 C2297 0.930 . S
H2290 C2298 0.930 . S
H2291 C2299 0.930 . S
H2292 C2302 0.930 . S
H2293 C2303 0.930 . S
C2294 H2288 0.930 . S
C2294 C2295 1.355 . S
C2294 C2296 1.415 . S
C2295 C2294 1.355 . S
C2295 C2297 1.419 . S
C2296 C2294 1.415 . S
C2296 C2301 1.425 . S
C2296 C2303 1.409 . S
C2297 H2289 0.930 . S
C2297 C2295 1.419 . S
C2297 C2298 1.362 . S
C2298 H2290 0.930 . S
C2298 C2297 1.362 . S
C2298 C2301 1.409 . S
C2299 H2291 0.930 . S
C2299 C2300 1.355 . S
C2299 C2301 1.415 . S
C2300 C2299 1.355 . S
C2300 C2302 1.419 . S
C2301 C2296 1.425 . S
C2301 C2298 1.409 . S
C2301 C2299 1.415 . S
C2302 H2292 0.930 . S
C2302 C2300 1.419 . S
C2302 C2303 1.362 . S
C2303 H2293 0.930 . S
C2303 C2296 1.409 . S
C2303 C2302 1.362 . S
H2304 C2310 0.930 . S
H2305 C2313 0.930 . S
H2306 C2314 0.930 1_565 S
H2307 C2315 0.930 . S
H2308 C2318 0.930 . S
H2309 C2319 0.930 . S
C2310 H2304 0.930 . S
C2310 C2311 1.355 . S
C2310 C2312 1.415 . S
C2311 C2310 1.355 . S
C2311 C2313 1.419 . S
C2312 C2310 1.415 . S
C2312 C2317 1.425 . S
C2312 C2319 1.409 . S
C2313 H2305 0.930 . S
C2313 C2311 1.419 . S
C2313 C2314 1.362 . S
C2314 H2306 0.930 1_545 S
C2314 C2313 1.362 . S
C2314 C2317 1.409 . S
C2315 H2307 0.930 . S
C2315 C2316 1.355 . S
C2315 C2317 1.415 1_565 S
C2316 C2315 1.355 . S
C2316 C2318 1.419 1_565 S
C2317 C2312 1.425 . S
C2317 C2314 1.409 . S
C2317 C2315 1.415 1_545 S
C2318 H2308 0.930 . S
C2318 C2316 1.419 1_545 S
C2318 C2319 1.362 . S
C2319 H2309 0.930 . S
C2319 C2312 1.409 . S
C2319 C2318 1.362 . S
H2320 C2326 0.930 . S
H2321 C2329 0.917 1_556 S
H2322 C2330 0.930 . S
H2323 C2331 0.930 . S
H2324 C2334 0.930 . S
H2325 C2335 0.930 . S
C2326 H2320 0.930 . S
C2326 C2327 1.355 . S
C2326 C2328 1.414 1_556 S
C2327 C2326 1.355 . S
C2327 C2329 1.404 1_556 S
C2328 C2326 1.414 1_554 S
C2328 C2333 1.425 . S
C2328 C2335 1.409 . S
C2329 H2321 0.917 1_554 S
C2329 C2327 1.404 1_554 S
C2329 C2330 1.393 . S
C2330 H2322 0.930 . S
C2330 C2329 1.393 . S
C2330 C2333 1.409 . S
C2331 H2323 0.930 . S
C2331 C2332 1.355 . S
C2331 C2333 1.415 . S
C2332 C2331 1.355 . S
C2332 C2334 1.419 . S
C2333 C2328 1.425 . S
C2333 C2330 1.409 . S
C2333 C2331 1.415 . S
C2334 H2324 0.930 . S
C2334 C2332 1.419 . S
C2334 C2335 1.362 . S
C2335 H2325 0.930 . S
C2335 C2328 1.409 . S
C2335 C2334 1.362 . S
H2336 C2342 0.933 . S
H2337 C2345 0.930 . S
H2338 C2346 0.930 . S
H2339 C2347 0.930 . S
H2340 C2350 0.930 . S
H2341 C2351 0.930 . S
C2342 H2336 0.933 . S
C2342 C2343 1.355 1_556 S
C2342 C2344 1.415 . S
C2343 C2342 1.355 1_554 S
C2343 C2345 1.419 . S
C2344 C2342 1.415 . S
C2344 C2349 1.425 . S
C2344 C2351 1.409 . S
C2345 H2337 0.930 . S
C2345 C2343 1.419 . S
C2345 C2346 1.362 1_554 S
C2346 H2338 0.930 . S
C2346 C2345 1.362 1_556 S
C2346 C2349 1.409 . S
C2347 H2339 0.930 . S
C2347 C2348 1.355 . S
C2347 C2349 1.415 . S
C2348 C2347 1.355 . S
C2348 C2350 1.419 . S
C2349 C2344 1.425 . S
C2349 C2346 1.409 . S
C2349 C2347 1.415 . S
C2350 H2340 0.930 . S
C2350 C2348 1.419 . S
C2350 C2351 1.362 . S
C2351 H2341 0.930 . S
C2351 C2344 1.409 . S
C2351 C2350 1.362 . S
H2352 C2358 0.930 . S
H2353 C2361 0.930 . S
H2354 C2362 0.930 . S
H2355 C2363 0.930 . S
H2356 C2366 0.930 . S
H2357 C2367 0.930 . S
C2358 H2352 0.930 . S
C2358 C2359 1.355 . S
C2358 C2360 1.415 . S
C2359 C2358 1.355 . S
C2359 C2361 1.419 . S
C2360 C2358 1.415 . S
C2360 C2365 1.425 . S
C2360 C2367 1.409 . S
C2361 H2353 0.930 . S
C2361 C2359 1.419 . S
C2361 C2362 1.362 . S
C2362 H2354 0.930 . S
C2362 C2361 1.362 . S
C2362 C2365 1.409 . S
C2363 H2355 0.930 . S
C2363 C2364 1.355 . S
C2363 C2365 1.415 . S
C2364 C2363 1.355 . S
C2364 C2366 1.419 . S
C2365 C2360 1.425 . S
C2365 C2362 1.409 . S
C2365 C2363 1.415 . S
C2366 H2356 0.930 . S
C2366 C2364 1.419 . S
C2366 C2367 1.362 . S
C2367 H2357 0.930 . S
C2367 C2360 1.409 . S
C2367 C2366 1.362 . S
H2368 C2374 0.918 1_565 S
H2369 C2377 0.954 . S
H2370 C2378 0.930 . S
H2371 C2379 0.930 . S
H2372 C2382 0.930 . S
H2373 C2383 0.930 . S
C2374 H2368 0.918 1_545 S
C2374 C2375 1.334 1_545 S
C2374 C2376 1.451 . S
C2375 C2374 1.334 1_565 S
C2375 C2377 1.435 . S
C2376 C2374 1.451 . S
C2376 C2381 1.425 . S
C2376 C2383 1.409 . S
C2377 H2369 0.954 . S
C2377 C2375 1.435 . S
C2377 C2378 1.326 1_565 S
C2378 H2370 0.930 . S
C2378 C2377 1.326 1_545 S
C2378 C2381 1.409 . S
C2379 H2371 0.930 . S
C2379 C2380 1.355 . S
C2379 C2381 1.415 . S
C2380 C2379 1.355 . S
C2380 C2382 1.419 . S
C2381 C2376 1.425 . S
C2381 C2378 1.409 . S
C2381 C2379 1.415 . S
C2382 H2372 0.930 . S
C2382 C2380 1.419 . S
C2382 C2383 1.362 . S
C2383 H2373 0.930 . S
C2383 C2376 1.409 . S
C2383 C2382 1.362 . S
H2384 C2390 0.930 . S
H2385 C2393 0.930 . S
H2386 C2394 0.930 . S
H2387 C2395 0.930 . S
H2388 C2398 0.930 . S
H2389 C2399 0.930 . S
C2390 H2384 0.930 . S
C2390 C2391 1.355 1_655 S
C2390 C2392 1.415 . S
C2391 C2390 1.355 1_455 S
C2391 C2393 1.419 . S
C2392 C2390 1.415 . S
C2392 C2397 1.425 . S
C2392 C2399 1.409 . S
C2393 H2385 0.930 . S
C2393 C2391 1.419 . S
C2393 C2394 1.362 . S
C2394 H2386 0.930 . S
C2394 C2393 1.362 . S
C2394 C2397 1.409 1_455 S
C2395 H2387 0.930 . S
C2395 C2396 1.355 . S
C2395 C2397 1.415 . S
C2396 C2395 1.355 . S
C2396 C2398 1.419 . S
C2397 C2392 1.425 . S
C2397 C2394 1.409 1_655 S
C2397 C2395 1.415 . S
C2398 H2388 0.930 . S
C2398 C2396 1.419 . S
C2398 C2399 1.362 . S
C2399 H2389 0.930 . S
C2399 C2392 1.409 . S
C2399 C2398 1.362 . S
H2400 C2406 0.930 . S
H2401 C2409 0.930 . S
H2402 C2410 0.930 . S
H2403 C2411 0.930 . S
H2404 C2414 0.930 . S
H2405 C2415 0.930 . S
C2406 H2400 0.930 . S
C2406 C2407 1.355 . S
C2406 C2408 1.415 . S
C2407 C2406 1.355 . S
C2407 C2409 1.419 . S
C2408 C2406 1.415 . S
C2408 C2413 1.425 . S
C2408 C2415 1.409 1_455 S
C2409 H2401 0.930 . S
C2409 C2407 1.419 . S
C2409 C2410 1.362 . S
C2410 H2402 0.930 . S
C2410 C2409 1.362 . S
C2410 C2413 1.409 . S
C2411 H2403 0.930 . S
C2411 C2412 1.355 1_455 S
C2411 C2413 1.415 . S
C2412 C2411 1.355 1_655 S
C2412 C2414 1.419 . S
C2413 C2408 1.425 . S
C2413 C2410 1.409 . S
C2413 C2411 1.415 . S
C2414 H2404 0.930 . S
C2414 C2412 1.419 . S
C2414 C2415 1.362 . S
C2415 H2405 0.930 . S
C2415 C2408 1.409 1_655 S
C2415 C2414 1.362 . S
H2416 C2422 0.930 . S
H2417 C2425 0.930 . S
H2418 C2426 0.930 . S
H2419 C2427 0.930 . S
H2420 C2430 0.930 . S
H2421 C2431 0.930 . S
C2422 H2416 0.930 . S
C2422 C2423 1.355 . S
C2422 C2424 1.415 . S
C2423 C2422 1.355 . S
C2423 C2425 1.419 . S
C2424 C2422 1.415 . S
C2424 C2429 1.425 . S
C2424 C2431 1.409 . S
C2425 H2417 0.930 . S
C2425 C2423 1.419 . S
C2425 C2426 1.362 . S
C2426 H2418 0.930 . S
C2426 C2425 1.362 . S
C2426 C2429 1.409 . S
C2427 H2419 0.930 . S
C2427 C2428 1.355 . S
C2427 C2429 1.415 . S
C2428 C2427 1.355 . S
C2428 C2430 1.419 . S
C2429 C2424 1.425 . S
C2429 C2426 1.409 . S
C2429 C2427 1.415 . S
C2430 H2420 0.930 . S
C2430 C2428 1.419 . S
C2430 C2431 1.362 . S
C2431 H2421 0.930 . S
C2431 C2424 1.409 . S
C2431 C2430 1.362 . S
H2432 C2438 0.930 . S
H2433 C2441 0.930 . S
H2434 C2442 0.930 . S
H2435 C2443 0.930 . S
H2436 C2446 0.930 . S
H2437 C2447 0.930 . S
C2438 H2432 0.930 . S
C2438 C2439 1.355 . S
C2438 C2440 1.415 . S
C2439 C2438 1.355 . S
C2439 C2441 1.419 . S
C2440 C2438 1.415 . S
C2440 C2445 1.425 . S
C2440 C2447 1.409 . S
C2441 H2433 0.930 . S
C2441 C2439 1.419 . S
C2441 C2442 1.362 . S
C2442 H2434 0.930 . S
C2442 C2441 1.362 . S
C2442 C2445 1.409 . S
C2443 H2435 0.930 . S
C2443 C2444 1.355 . S
C2443 C2445 1.415 . S
C2444 C2443 1.355 . S
C2444 C2446 1.419 . S
C2445 C2440 1.425 . S
C2445 C2442 1.409 . S
C2445 C2443 1.415 . S
C2446 H2436 0.930 . S
C2446 C2444 1.419 . S
C2446 C2447 1.362 . S
C2447 H2437 0.930 . S
C2447 C2440 1.409 . S
C2447 C2446 1.362 . S
H2448 C2454 0.930 . S
H2449 C2457 0.930 . S
H2450 C2458 0.930 . S
H2451 C2459 0.930 . S
H2452 C2462 0.930 . S
H2453 C2463 0.930 . S
C2454 H2448 0.930 . S
C2454 C2455 1.355 . S
C2454 C2456 1.415 . S
C2455 C2454 1.355 . S
C2455 C2457 1.419 . S
C2456 C2454 1.415 . S
C2456 C2461 1.425 . S
C2456 C2463 1.409 . S
C2457 H2449 0.930 . S
C2457 C2455 1.419 . S
C2457 C2458 1.362 . S
C2458 H2450 0.930 . S
C2458 C2457 1.362 . S
C2458 C2461 1.409 . S
C2459 H2451 0.930 . S
C2459 C2460 1.355 . S
C2459 C2461 1.415 . S
C2460 C2459 1.355 . S
C2460 C2462 1.419 . S
C2461 C2456 1.425 . S
C2461 C2458 1.409 . S
C2461 C2459 1.415 . S
C2462 H2452 0.930 . S
C2462 C2460 1.419 . S
C2462 C2463 1.362 . S
C2463 H2453 0.930 . S
C2463 C2456 1.409 . S
C2463 C2462 1.362 . S
H2464 C2470 0.930 . S
H2465 C2473 0.930 . S
H2466 C2474 0.930 . S
H2467 C2475 0.930 . S
H2468 C2478 0.930 . S
H2469 C2479 0.927 1_556 S
C2470 H2464 0.930 . S
C2470 C2471 1.355 . S
C2470 C2472 1.415 . S
C2471 C2470 1.355 . S
C2471 C2473 1.419 . S
C2472 C2470 1.415 . S
C2472 C2477 1.425 . S
C2472 C2479 1.425 . S
C2473 H2465 0.930 . S
C2473 C2471 1.419 . S
C2473 C2474 1.362 . S
C2474 H2466 0.930 . S
C2474 C2473 1.362 . S
C2474 C2477 1.409 . S
C2475 H2467 0.930 . S
C2475 C2476 1.355 1_554 S
C2475 C2477 1.415 . S
C2476 C2475 1.355 1_556 S
C2476 C2478 1.419 . S
C2477 C2472 1.425 . S
C2477 C2474 1.409 . S
C2477 C2475 1.415 . S
C2478 H2468 0.930 . S
C2478 C2476 1.419 . S
C2478 C2479 1.350 1_556 S
C2479 H2469 0.927 1_554 S
C2479 C2472 1.425 . S
C2479 C2478 1.350 1_554 S
H2480 C2486 0.930 . S
H2481 C2489 0.930 . S
H2482 C2490 0.930 . S
H2483 C2491 0.930 . S
H2484 C2494 0.930 . S
H2485 C2495 0.930 . S
C2486 H2480 0.930 . S
C2486 C2487 1.355 1_545 S
C2486 C2488 1.415 . S
C2487 C2486 1.355 1_565 S
C2487 C2489 1.419 . S
C2488 C2486 1.415 . S
C2488 C2493 1.425 . S
C2488 C2495 1.409 . S
C2489 H2481 0.930 . S
C2489 C2487 1.419 . S
C2489 C2490 1.362 . S
C2490 H2482 0.930 . S
C2490 C2489 1.362 . S
C2490 C2493 1.409 1_565 S
C2491 H2483 0.930 . S
C2491 C2492 1.355 . S
C2491 C2493 1.415 . S
C2492 C2491 1.355 . S
C2492 C2494 1.419 . S
C2493 C2488 1.425 . S
C2493 C2490 1.409 1_545 S
C2493 C2491 1.415 . S
C2494 H2484 0.930 . S
C2494 C2492 1.419 . S
C2494 C2495 1.362 . S
C2495 H2485 0.930 . S
C2495 C2488 1.409 . S
C2495 C2494 1.362 . S
H2496 C2502 0.930 . S
H2497 C2505 0.930 . S
H2498 C2506 0.930 . S
H2499 C2507 0.930 . S
H2500 C2510 0.930 . S
H2501 C2511 0.930 . S
C2502 H2496 0.930 . S
C2502 C2503 1.355 . S
C2502 C2504 1.415 . S
C2503 C2502 1.355 . S
C2503 C2505 1.419 . S
C2504 C2502 1.415 . S
C2504 C2509 1.425 . S
C2504 C2511 1.409 . S
C2505 H2497 0.930 . S
C2505 C2503 1.419 . S
C2505 C2506 1.362 . S
C2506 H2498 0.930 . S
C2506 C2505 1.362 . S
C2506 C2509 1.409 . S
C2507 H2499 0.930 . S
C2507 C2508 1.355 . S
C2507 C2509 1.415 . S
C2508 C2507 1.355 . S
C2508 C2510 1.419 . S
C2509 C2504 1.425 . S
C2509 C2506 1.409 . S
C2509 C2507 1.415 . S
C2510 H2500 0.930 . S
C2510 C2508 1.419 . S
C2510 C2511 1.362 . S
C2511 H2501 0.930 . S
C2511 C2504 1.409 . S
C2511 C2510 1.362 . S
H2512 C2518 0.930 . S
H2513 C2521 0.930 . S
H2514 C2522 0.930 . S
H2515 C2523 0.930 . S
H2516 C2526 0.930 . S
H2517 C2527 0.930 . S
C2518 H2512 0.930 . S
C2518 C2519 1.355 . S
C2518 C2520 1.415 . S
C2519 C2518 1.355 . S
C2519 C2521 1.419 . S
C2520 C2518 1.415 . S
C2520 C2525 1.425 . S
C2520 C2527 1.409 . S
C2521 H2513 0.930 . S
C2521 C2519 1.419 . S
C2521 C2522 1.362 . S
C2522 H2514 0.930 . S
C2522 C2521 1.362 . S
C2522 C2525 1.409 . S
C2523 H2515 0.930 . S
C2523 C2524 1.355 . S
C2523 C2525 1.415 . S
C2524 C2523 1.355 . S
C2524 C2526 1.419 . S
C2525 C2520 1.425 . S
C2525 C2522 1.409 . S
C2525 C2523 1.415 . S
C2526 H2516 0.930 . S
C2526 C2524 1.419 . S
C2526 C2527 1.362 . S
C2527 H2517 0.930 . S
C2527 C2520 1.409 . S
C2527 C2526 1.362 . S
H2528 C2534 0.930 . S
H2529 C2537 0.930 . S
H2530 C2538 0.930 . S
H2531 C2539 0.930 . S
H2532 C2542 0.930 . S
H2533 C2543 0.930 . S
C2534 H2528 0.930 . S
C2534 C2535 1.355 . S
C2534 C2536 1.415 . S
C2535 C2534 1.355 . S
C2535 C2537 1.419 . S
C2536 C2534 1.415 . S
C2536 C2541 1.425 . S
C2536 C2543 1.409 . S
C2537 H2529 0.930 . S
C2537 C2535 1.419 . S
C2537 C2538 1.362 . S
C2538 H2530 0.930 . S
C2538 C2537 1.362 . S
C2538 C2541 1.409 . S
C2539 H2531 0.930 . S
C2539 C2540 1.355 . S
C2539 C2541 1.415 . S
C2540 C2539 1.355 . S
C2540 C2542 1.419 . S
C2541 C2536 1.425 . S
C2541 C2538 1.409 . S
C2541 C2539 1.415 . S
C2542 H2532 0.930 . S
C2542 C2540 1.419 . S
C2542 C2543 1.362 . S
C2543 H2533 0.930 . S
C2543 C2536 1.409 . S
C2543 C2542 1.362 . S
H2544 C2550 0.930 . S
H2545 C2553 0.930 . S
H2546 C2554 0.930 1_545 S
H2547 C2555 0.930 . S
H2548 C2558 0.930 . S
H2549 C2559 0.930 . S
C2550 H2544 0.930 . S
C2550 C2551 1.355 . S
C2550 C2552 1.415 . S
C2551 C2550 1.355 . S
C2551 C2553 1.419 . S
C2552 C2550 1.415 . S
C2552 C2557 1.425 . S
C2552 C2559 1.409 . S
C2553 H2545 0.930 . S
C2553 C2551 1.419 . S
C2553 C2554 1.362 . S
C2554 H2546 0.930 1_565 S
C2554 C2553 1.362 . S
C2554 C2557 1.409 . S
C2555 H2547 0.930 . S
C2555 C2556 1.355 . S
C2555 C2557 1.415 1_545 S
C2556 C2555 1.355 . S
C2556 C2558 1.419 1_545 S
C2557 C2552 1.425 . S
C2557 C2554 1.409 . S
C2557 C2555 1.415 1_565 S
C2558 H2548 0.930 . S
C2558 C2556 1.419 1_565 S
C2558 C2559 1.362 . S
C2559 H2549 0.930 . S
C2559 C2552 1.409 . S
C2559 C2558 1.362 . S
H2560 C2566 0.929 1_554 S
H2561 C2569 0.930 . S
H2562 C2570 0.930 . S
H2563 C2571 0.930 . S
H2564 C2574 0.930 . S
H2565 C2575 0.930 . S
C2566 H2560 0.929 1_556 S
C2566 C2567 1.355 1_556 S
C2566 C2568 1.415 . S
C2567 C2566 1.355 1_554 S
C2567 C2569 1.419 . S
C2568 C2566 1.415 . S
C2568 C2573 1.425 . S
C2568 C2575 1.409 . S
C2569 H2561 0.930 . S
C2569 C2567 1.419 . S
C2569 C2570 1.362 1_554 S
C2570 H2562 0.930 . S
C2570 C2569 1.362 1_556 S
C2570 C2573 1.409 . S
C2571 H2563 0.930 . S
C2571 C2572 1.355 . S
C2571 C2573 1.415 . S
C2572 C2571 1.355 . S
C2572 C2574 1.419 . S
C2573 C2568 1.425 . S
C2573 C2570 1.409 . S
C2573 C2571 1.415 . S
C2574 H2564 0.930 . S
C2574 C2572 1.419 . S
C2574 C2575 1.362 . S
C2575 H2565 0.930 . S
C2575 C2568 1.409 . S
C2575 C2574 1.362 . S
H2576 C2582 0.930 . S
H2577 C2585 0.930 . S
H2578 C2586 0.930 . S
H2579 C2587 0.930 . S
H2580 C2590 0.930 . S
H2581 C2591 0.930 . S
C2582 H2576 0.930 . S
C2582 C2583 1.355 . S
C2582 C2584 1.415 . S
C2583 C2582 1.355 . S
C2583 C2585 1.419 . S
C2584 C2582 1.415 . S
C2584 C2589 1.425 . S
C2584 C2591 1.409 . S
C2585 H2577 0.930 . S
C2585 C2583 1.419 . S
C2585 C2586 1.362 . S
C2586 H2578 0.930 . S
C2586 C2585 1.362 . S
C2586 C2589 1.409 . S
C2587 H2579 0.930 . S
C2587 C2588 1.355 . S
C2587 C2589 1.415 . S
C2588 C2587 1.355 . S
C2588 C2590 1.419 . S
C2589 C2584 1.425 . S
C2589 C2586 1.409 . S
C2589 C2587 1.415 . S
C2590 H2580 0.930 . S
C2590 C2588 1.419 . S
C2590 C2591 1.362 . S
C2591 H2581 0.930 . S
C2591 C2584 1.409 . S
C2591 C2590 1.362 . S
H2592 C2598 0.930 . S
H2593 C2601 0.930 . S
H2594 C2602 0.930 . S
H2595 C2603 0.930 . S
H2596 C2606 0.930 . S
H2597 C2607 0.930 . S
C2598 H2592 0.930 . S
C2598 C2599 1.355 1_554 S
C2598 C2600 1.415 . S
C2599 C2598 1.355 1_556 S
C2599 C2601 1.419 . S
C2600 C2598 1.415 . S
C2600 C2605 1.425 . S
C2600 C2607 1.409 . S
C2601 H2593 0.930 . S
C2601 C2599 1.419 . S
C2601 C2602 1.362 . S
C2602 H2594 0.930 . S
C2602 C2601 1.362 . S
C2602 C2605 1.409 1_556 S
C2603 H2595 0.930 . S
C2603 C2604 1.355 . S
C2603 C2605 1.415 . S
C2604 C2603 1.355 . S
C2604 C2606 1.419 . S
C2605 C2600 1.425 . S
C2605 C2602 1.409 1_554 S
C2605 C2603 1.415 . S
C2606 H2596 0.930 . S
C2606 C2604 1.419 . S
C2606 C2607 1.362 . S
C2607 H2597 0.930 . S
C2607 C2600 1.409 . S
C2607 C2606 1.362 . S
H2608 C2614 0.930 . S
H2609 C2617 0.930 . S
H2610 C2618 0.930 . S
H2611 C2619 0.930 . S
H2612 C2622 0.930 . S
H2613 C2623 0.930 . S
C2614 H2608 0.930 . S
C2614 C2615 1.355 . S
C2614 C2616 1.415 . S
C2615 C2614 1.355 . S
C2615 C2617 1.419 . S
C2616 C2614 1.415 . S
C2616 C2621 1.425 . S
C2616 C2623 1.409 . S
C2617 H2609 0.930 . S
C2617 C2615 1.419 . S
C2617 C2618 1.362 . S
C2618 H2610 0.930 . S
C2618 C2617 1.362 . S
C2618 C2621 1.409 . S
C2619 H2611 0.930 . S
C2619 C2620 1.355 . S
C2619 C2621 1.415 . S
C2620 C2619 1.355 . S
C2620 C2622 1.419 . S
C2621 C2616 1.425 . S
C2621 C2618 1.409 . S
C2621 C2619 1.415 . S
C2622 H2612 0.930 . S
C2622 C2620 1.419 . S
C2622 C2623 1.362 . S
C2623 H2613 0.930 . S
C2623 C2616 1.409 . S
C2623 C2622 1.362 . S
H2624 C2630 0.930 . S
H2625 C2633 0.930 . S
H2626 C2634 0.930 . S
H2627 C2635 0.930 . S
H2628 C2638 0.930 . S
H2629 C2639 0.930 . S
C2630 H2624 0.930 . S
C2630 C2631 1.355 . S
C2630 C2632 1.415 . S
C2631 C2630 1.355 . S
C2631 C2633 1.419 . S
C2632 C2630 1.415 . S
C2632 C2637 1.425 . S
C2632 C2639 1.409 . S
C2633 H2625 0.930 . S
C2633 C2631 1.419 . S
C2633 C2634 1.362 . S
C2634 H2626 0.930 . S
C2634 C2633 1.362 . S
C2634 C2637 1.409 . S
C2635 H2627 0.930 . S
C2635 C2636 1.355 . S
C2635 C2637 1.415 . S
C2636 C2635 1.355 . S
C2636 C2638 1.419 . S
C2637 C2632 1.425 . S
C2637 C2634 1.409 . S
C2637 C2635 1.415 . S
C2638 H2628 0.930 . S
C2638 C2636 1.419 . S
C2638 C2639 1.362 . S
C2639 H2629 0.930 . S
C2639 C2632 1.409 . S
C2639 C2638 1.362 . S
H2640 C2646 0.930 . S
H2641 C2649 0.930 . S
H2642 C2650 0.930 . S
H2643 C2651 0.930 . S
H2644 C2654 0.930 . S
H2645 C2655 0.930 . S
C2646 H2640 0.930 . S
C2646 C2647 1.355 . S
C2646 C2648 1.415 . S
C2647 C2646 1.355 . S
C2647 C2649 1.419 . S
C2648 C2646 1.415 . S
C2648 C2653 1.425 . S
C2648 C2655 1.409 . S
C2649 H2641 0.930 . S
C2649 C2647 1.419 . S
C2649 C2650 1.362 . S
C2650 H2642 0.930 . S
C2650 C2649 1.362 . S
C2650 C2653 1.409 . S
C2651 H2643 0.930 . S
C2651 C2652 1.355 . S
C2651 C2653 1.415 . S
C2652 C2651 1.355 . S
C2652 C2654 1.419 . S
C2653 C2648 1.425 . S
C2653 C2650 1.409 . S
C2653 C2651 1.415 . S
C2654 H2644 0.930 . S
C2654 C2652 1.419 . S
C2654 C2655 1.362 . S
C2655 H2645 0.930 . S
C2655 C2648 1.409 . S
C2655 C2654 1.362 . S
H2656 C2662 0.930 . S
H2657 C2665 0.930 . S
H2658 C2666 0.930 . S
H2659 C2667 0.930 . S
H2660 C2670 0.930 . S
H2661 C2671 0.942 . S
C2662 H2656 0.930 . S
C2662 C2663 1.355 . S
C2662 C2664 1.415 1_545 S
C2663 C2662 1.355 . S
C2663 C2665 1.419 1_545 S
C2664 C2662 1.415 1_565 S
C2664 C2669 1.425 . S
C2664 C2671 1.409 . S
C2665 H2657 0.930 . S
C2665 C2663 1.419 1_565 S
C2665 C2666 1.362 . S
C2666 H2658 0.930 . S
C2666 C2665 1.362 . S
C2666 C2669 1.409 . S
C2667 H2659 0.930 . S
C2667 C2668 1.355 . S
C2667 C2669 1.415 . S
C2668 C2667 1.355 . S
C2668 C2670 1.419 . S
C2669 C2664 1.425 . S
C2669 C2666 1.409 . S
C2669 C2667 1.415 . S
C2670 H2660 0.930 . S
C2670 C2668 1.419 . S
C2670 C2671 1.362 . S
C2671 H2661 0.942 . S
C2671 C2664 1.409 . S
C2671 C2670 1.362 . S
H2672 C2678 0.930 . S
H2673 C2681 0.930 . S
H2674 C2682 0.930 . S
H2675 C2683 0.930 . S
H2676 C2686 0.930 . S
H2677 C2687 0.930 . S
C2678 H2672 0.930 . S
C2678 C2679 1.355 . S
C2678 C2680 1.415 . S
C2679 C2678 1.355 . S
C2679 C2681 1.419 . S
C2680 C2678 1.415 . S
C2680 C2685 1.425 . S
C2680 C2687 1.409 . S
C2681 H2673 0.930 . S
C2681 C2679 1.419 . S
C2681 C2682 1.362 . S
C2682 H2674 0.930 . S
C2682 C2681 1.362 . S
C2682 C2685 1.409 . S
C2683 H2675 0.930 . S
C2683 C2684 1.355 . S
C2683 C2685 1.415 . S
C2684 C2683 1.355 . S
C2684 C2686 1.419 . S
C2685 C2680 1.425 . S
C2685 C2682 1.409 . S
C2685 C2683 1.415 . S
C2686 H2676 0.930 . S
C2686 C2684 1.419 . S
C2686 C2687 1.362 . S
C2687 H2677 0.930 . S
C2687 C2680 1.409 . S
C2687 C2686 1.362 . S
H2688 C2694 0.930 . S
H2689 C2697 0.930 . S
H2690 C2698 0.930 . S
H2691 C2699 0.930 . S
H2692 C2702 0.930 . S
H2693 C2703 0.930 . S
C2694 H2688 0.930 . S
C2694 C2695 1.355 . S
C2694 C2696 1.415 . S
C2695 C2694 1.355 . S
C2695 C2697 1.419 . S
C2696 C2694 1.415 . S
C2696 C2701 1.425 . S
C2696 C2703 1.409 . S
C2697 H2689 0.930 . S
C2697 C2695 1.419 . S
C2697 C2698 1.362 . S
C2698 H2690 0.930 . S
C2698 C2697 1.362 . S
C2698 C2701 1.409 . S
C2699 H2691 0.930 . S
C2699 C2700 1.355 . S
C2699 C2701 1.415 . S
C2700 C2699 1.355 . S
C2700 C2702 1.419 . S
C2701 C2696 1.425 . S
C2701 C2698 1.409 . S
C2701 C2699 1.415 . S
C2702 H2692 0.930 . S
C2702 C2700 1.419 . S
C2702 C2703 1.362 . S
C2703 H2693 0.930 . S
C2703 C2696 1.409 . S
C2703 C2702 1.362 . S
H2704 C2710 0.930 . S
H2705 C2713 0.930 . S
H2706 C2714 0.930 . S
H2707 C2715 0.930 . S
H2708 C2718 0.930 . S
H2709 C2719 0.930 . S
C2710 H2704 0.930 . S
C2710 C2711 1.355 . S
C2710 C2712 1.415 . S
C2711 C2710 1.355 . S
C2711 C2713 1.419 . S
C2712 C2710 1.415 . S
C2712 C2717 1.425 . S
C2712 C2719 1.409 . S
C2713 H2705 0.930 . S
C2713 C2711 1.419 . S
C2713 C2714 1.362 . S
C2714 H2706 0.930 . S
C2714 C2713 1.362 . S
C2714 C2717 1.409 . S
C2715 H2707 0.930 . S
C2715 C2716 1.355 . S
C2715 C2717 1.415 . S
C2716 C2715 1.355 . S
C2716 C2718 1.419 . S
C2717 C2712 1.425 . S
C2717 C2714 1.409 . S
C2717 C2715 1.415 . S
C2718 H2708 0.930 . S
C2718 C2716 1.419 . S
C2718 C2719 1.362 . S
C2719 H2709 0.930 . S
C2719 C2712 1.409 . S
C2719 C2718 1.362 . S
H2720 C2726 0.930 . S
H2721 C2729 0.930 . S
H2722 C2730 0.930 . S
H2723 C2731 0.930 . S
H2724 C2734 0.930 . S
H2725 C2735 0.930 . S
C2726 H2720 0.930 . S
C2726 C2727 1.355 . S
C2726 C2728 1.415 . S
C2727 C2726 1.355 . S
C2727 C2729 1.419 . S
C2728 C2726 1.415 . S
C2728 C2733 1.425 . S
C2728 C2735 1.409 . S
C2729 H2721 0.930 . S
C2729 C2727 1.419 . S
C2729 C2730 1.362 . S
C2730 H2722 0.930 . S
C2730 C2729 1.362 . S
C2730 C2733 1.409 . S
C2731 H2723 0.930 . S
C2731 C2732 1.355 . S
C2731 C2733 1.415 . S
C2732 C2731 1.355 . S
C2732 C2734 1.419 . S
C2733 C2728 1.425 . S
C2733 C2730 1.409 . S
C2733 C2731 1.415 . S
C2734 H2724 0.930 . S
C2734 C2732 1.419 . S
C2734 C2735 1.362 . S
C2735 H2725 0.930 . S
C2735 C2728 1.409 . S
C2735 C2734 1.362 . S
H2736 C2742 0.930 . S
H2737 C2745 0.930 . S
H2738 C2746 0.930 . S
H2739 C2747 0.930 . S
H2740 C2750 0.930 . S
H2741 C2751 0.930 . S
C2742 H2736 0.930 . S
C2742 C2743 1.355 . S
C2742 C2744 1.415 . S
C2743 C2742 1.355 . S
C2743 C2745 1.419 . S
C2744 C2742 1.415 . S
C2744 C2749 1.425 . S
C2744 C2751 1.409 . S
C2745 H2737 0.930 . S
C2745 C2743 1.419 . S
C2745 C2746 1.362 . S
C2746 H2738 0.930 . S
C2746 C2745 1.362 . S
C2746 C2749 1.409 . S
C2747 H2739 0.930 . S
C2747 C2748 1.355 . S
C2747 C2749 1.415 . S
C2748 C2747 1.355 . S
C2748 C2750 1.419 . S
C2749 C2744 1.425 . S
C2749 C2746 1.409 . S
C2749 C2747 1.415 . S
C2750 H2740 0.930 . S
C2750 C2748 1.419 . S
C2750 C2751 1.362 . S
C2751 H2741 0.930 . S
C2751 C2744 1.409 . S
C2751 C2750 1.362 . S
H2752 C2758 0.930 . S
H2753 C2761 0.930 . S
H2754 C2762 0.930 . S
H2755 C2763 0.930 1_545 S
H2756 C2766 0.930 . S
H2757 C2767 0.930 . S
C2758 H2752 0.930 . S
C2758 C2759 1.355 . S
C2758 C2760 1.415 . S
C2759 C2758 1.355 . S
C2759 C2761 1.419 . S
C2760 C2758 1.415 . S
C2760 C2765 1.425 . S
C2760 C2767 1.409 . S
C2761 H2753 0.930 . S
C2761 C2759 1.419 . S
C2761 C2762 1.362 . S
C2762 H2754 0.930 . S
C2762 C2761 1.362 . S
C2762 C2765 1.409 . S
C2763 H2755 0.930 1_565 S
C2763 C2764 1.355 1_565 S
C2763 C2765 1.415 . S
C2764 C2763 1.355 1_545 S
C2764 C2766 1.419 . S
C2765 C2760 1.425 . S
C2765 C2762 1.409 . S
C2765 C2763 1.415 . S
C2766 H2756 0.930 . S
C2766 C2764 1.419 . S
C2766 C2767 1.362 1_545 S
C2767 H2757 0.930 . S
C2767 C2760 1.409 . S
C2767 C2766 1.362 1_565 S
H2768 C2774 0.930 . S
H2769 C2777 0.930 . S
H2770 C2778 0.930 . S
H2771 C2779 0.930 . S
H2772 C2782 0.930 . S
H2773 C2783 0.930 . S
C2774 H2768 0.930 . S
C2774 C2775 1.355 . S
C2774 C2776 1.415 . S
C2775 C2774 1.355 . S
C2775 C2777 1.419 . S
C2776 C2774 1.415 . S
C2776 C2781 1.425 . S
C2776 C2783 1.409 . S
C2777 H2769 0.930 . S
C2777 C2775 1.419 . S
C2777 C2778 1.362 . S
C2778 H2770 0.930 . S
C2778 C2777 1.362 . S
C2778 C2781 1.409 . S
C2779 H2771 0.930 . S
C2779 C2780 1.355 . S
C2779 C2781 1.415 . S
C2780 C2779 1.355 . S
C2780 C2782 1.419 . S
C2781 C2776 1.425 . S
C2781 C2778 1.409 . S
C2781 C2779 1.415 . S
C2782 H2772 0.930 . S
C2782 C2780 1.419 . S
C2782 C2783 1.362 . S
C2783 H2773 0.930 . S
C2783 C2776 1.409 . S
C2783 C2782 1.362 . S
H2784 C2790 0.930 . S
H2785 C2793 0.930 . S
H2786 C2794 0.930 . S
H2787 C2795 0.930 . S
H2788 C2798 0.930 . S
H2789 C2799 0.930 . S
C2790 H2784 0.930 . S
C2790 C2791 1.355 . S
C2790 C2792 1.415 . S
C2791 C2790 1.355 . S
C2791 C2793 1.419 . S
C2792 C2790 1.415 . S
C2792 C2797 1.425 . S
C2792 C2799 1.409 . S
C2793 H2785 0.930 . S
C2793 C2791 1.419 . S
C2793 C2794 1.362 . S
C2794 H2786 0.930 . S
C2794 C2793 1.362 . S
C2794 C2797 1.409 . S
C2795 H2787 0.930 . S
C2795 C2796 1.355 . S
C2795 C2797 1.415 . S
C2796 C2795 1.355 . S
C2796 C2798 1.419 . S
C2797 C2792 1.425 . S
C2797 C2794 1.409 . S
C2797 C2795 1.415 . S
C2798 H2788 0.930 . S
C2798 C2796 1.419 . S
C2798 C2799 1.362 . S
C2799 H2789 0.930 . S
C2799 C2792 1.409 . S
C2799 C2798 1.362 . S
H2800 C2806 0.930 . S
H2801 C2809 0.930 . S
H2802 C2810 0.930 . S
H2803 C2811 0.930 . S
H2804 C2814 0.930 . S
H2805 C2815 0.930 . S
C2806 H2800 0.930 . S
C2806 C2807 1.355 . S
C2806 C2808 1.415 . S
C2807 C2806 1.355 . S
C2807 C2809 1.419 . S
C2808 C2806 1.415 . S
C2808 C2813 1.425 . S
C2808 C2815 1.409 . S
C2809 H2801 0.930 . S
C2809 C2807 1.419 . S
C2809 C2810 1.362 . S
C2810 H2802 0.930 . S
C2810 C2809 1.362 . S
C2810 C2813 1.409 . S
C2811 H2803 0.930 . S
C2811 C2812 1.355 . S
C2811 C2813 1.415 . S
C2812 C2811 1.355 . S
C2812 C2814 1.419 . S
C2813 C2808 1.425 . S
C2813 C2810 1.409 . S
C2813 C2811 1.415 . S
C2814 H2804 0.930 . S
C2814 C2812 1.419 . S
C2814 C2815 1.362 . S
C2815 H2805 0.930 . S
C2815 C2808 1.409 . S
C2815 C2814 1.362 . S
H2816 C2822 0.930 . S
H2817 C2825 0.930 . S
H2818 C2826 0.930 . S
H2819 C2827 0.930 . S
H2820 C2830 0.930 . S
H2821 C2831 0.930 . S
C2822 H2816 0.930 . S
C2822 C2823 1.355 . S
C2822 C2824 1.415 . S
C2823 C2822 1.355 . S
C2823 C2825 1.419 . S
C2824 C2822 1.415 . S
C2824 C2829 1.425 . S
C2824 C2831 1.409 . S
C2825 H2817 0.930 . S
C2825 C2823 1.419 . S
C2825 C2826 1.362 . S
C2826 H2818 0.930 . S
C2826 C2825 1.362 . S
C2826 C2829 1.409 . S
C2827 H2819 0.930 . S
C2827 C2828 1.355 . S
C2827 C2829 1.415 . S
C2828 C2827 1.355 . S
C2828 C2830 1.419 . S
C2829 C2824 1.425 . S
C2829 C2826 1.409 . S
C2829 C2827 1.415 . S
C2830 H2820 0.930 . S
C2830 C2828 1.419 . S
C2830 C2831 1.362 . S
C2831 H2821 0.930 . S
C2831 C2824 1.409 . S
C2831 C2830 1.362 . S
H2832 C2838 0.930 . S
H2833 C2841 0.930 . S
H2834 C2842 0.930 . S
H2835 C2843 0.930 . S
H2836 C2846 0.930 . S
H2837 C2847 0.930 . S
C2838 H2832 0.930 . S
C2838 C2839 1.355 . S
C2838 C2840 1.415 . S
C2839 C2838 1.355 . S
C2839 C2841 1.419 . S
C2840 C2838 1.415 . S
C2840 C2845 1.425 . S
C2840 C2847 1.409 . S
C2841 H2833 0.930 . S
C2841 C2839 1.419 . S
C2841 C2842 1.362 . S
C2842 H2834 0.930 . S
C2842 C2841 1.362 . S
C2842 C2845 1.409 . S
C2843 H2835 0.930 . S
C2843 C2844 1.355 . S
C2843 C2845 1.415 . S
C2844 C2843 1.355 . S
C2844 C2846 1.419 . S
C2845 C2840 1.425 . S
C2845 C2842 1.409 . S
C2845 C2843 1.415 . S
C2846 H2836 0.930 . S
C2846 C2844 1.419 . S
C2846 C2847 1.362 . S
C2847 H2837 0.930 . S
C2847 C2840 1.409 . S
C2847 C2846 1.362 . S
H2848 C2854 0.930 . S
H2849 C2857 0.930 . S
H2850 C2858 0.930 . S
H2851 C2859 0.930 . S
H2852 C2862 0.930 . S
H2853 C2863 0.930 . S
C2854 H2848 0.930 . S
C2854 C2855 1.355 . S
C2854 C2856 1.415 . S
C2855 C2854 1.355 . S
C2855 C2857 1.419 . S
C2856 C2854 1.415 . S
C2856 C2861 1.425 . S
C2856 C2863 1.409 . S
C2857 H2849 0.930 . S
C2857 C2855 1.419 . S
C2857 C2858 1.362 . S
C2858 H2850 0.930 . S
C2858 C2857 1.362 . S
C2858 C2861 1.409 . S
C2859 H2851 0.930 . S
C2859 C2860 1.355 . S
C2859 C2861 1.415 . S
C2860 C2859 1.355 . S
C2860 C2862 1.419 . S
C2861 C2856 1.425 . S
C2861 C2858 1.409 . S
C2861 C2859 1.415 . S
C2862 H2852 0.930 . S
C2862 C2860 1.419 . S
C2862 C2863 1.362 . S
C2863 H2853 0.930 . S
C2863 C2856 1.409 . S
C2863 C2862 1.362 . S
H2864 C2870 0.930 . S
H2865 C2873 0.930 . S
H2866 C2874 0.930 . S
H2867 C2875 0.930 . S
H2868 C2878 0.930 . S
H2869 C2879 0.930 . S
C2870 H2864 0.930 . S
C2870 C2871 1.355 . S
C2870 C2872 1.415 . S
C2871 C2870 1.355 . S
C2871 C2873 1.419 . S
C2872 C2870 1.415 . S
C2872 C2877 1.425 . S
C2872 C2879 1.409 . S
C2873 H2865 0.930 . S
C2873 C2871 1.419 . S
C2873 C2874 1.362 . S
C2874 H2866 0.930 . S
C2874 C2873 1.362 . S
C2874 C2877 1.409 . S
C2875 H2867 0.930 . S
C2875 C2876 1.355 . S
C2875 C2877 1.415 . S
C2876 C2875 1.355 . S
C2876 C2878 1.419 . S
C2877 C2872 1.425 . S
C2877 C2874 1.409 . S
C2877 C2875 1.415 . S
C2878 H2868 0.930 . S
C2878 C2876 1.419 . S
C2878 C2879 1.362 . S
C2879 H2869 0.930 . S
C2879 C2872 1.409 . S
C2879 C2878 1.362 . S
H2880 C2886 0.930 . S
H2881 C2889 0.930 . S
H2882 C2890 0.930 . S
H2883 C2891 0.930 . S
H2884 C2894 0.930 . S
H2885 C2895 0.930 . S
C2886 H2880 0.930 . S
C2886 C2887 1.355 . S
C2886 C2888 1.415 . S
C2887 C2886 1.355 . S
C2887 C2889 1.419 . S
C2888 C2886 1.415 . S
C2888 C2893 1.425 . S
C2888 C2895 1.409 . S
C2889 H2881 0.930 . S
C2889 C2887 1.419 . S
C2889 C2890 1.362 . S
C2890 H2882 0.930 . S
C2890 C2889 1.362 . S
C2890 C2893 1.409 . S
C2891 H2883 0.930 . S
C2891 C2892 1.355 . S
C2891 C2893 1.415 . S
C2892 C2891 1.355 . S
C2892 C2894 1.419 . S
C2893 C2888 1.425 . S
C2893 C2890 1.409 . S
C2893 C2891 1.415 . S
C2894 H2884 0.930 . S
C2894 C2892 1.419 . S
C2894 C2895 1.362 . S
C2895 H2885 0.930 . S
C2895 C2888 1.409 . S
C2895 C2894 1.362 . S
H2896 C2902 0.930 . S
H2897 C2905 0.930 . S
H2898 C2906 0.930 . S
H2899 C2907 0.930 . S
H2900 C2910 0.930 . S
H2901 C2911 0.930 . S
C2902 H2896 0.930 . S
C2902 C2903 1.355 . S
C2902 C2904 1.415 . S
C2903 C2902 1.355 . S
C2903 C2905 1.419 . S
C2904 C2902 1.415 . S
C2904 C2909 1.425 . S
C2904 C2911 1.409 . S
C2905 H2897 0.930 . S
C2905 C2903 1.419 . S
C2905 C2906 1.362 . S
C2906 H2898 0.930 . S
C2906 C2905 1.362 . S
C2906 C2909 1.409 . S
C2907 H2899 0.930 . S
C2907 C2908 1.355 . S
C2907 C2909 1.415 . S
C2908 C2907 1.355 . S
C2908 C2910 1.419 . S
C2909 C2904 1.425 . S
C2909 C2906 1.409 . S
C2909 C2907 1.415 . S
C2910 H2900 0.930 . S
C2910 C2908 1.419 . S
C2910 C2911 1.362 . S
C2911 H2901 0.930 . S
C2911 C2904 1.409 . S
C2911 C2910 1.362 . S
H2912 C2918 0.930 . S
H2913 C2921 0.930 . S
H2914 C2922 0.930 . S
H2915 C2923 0.930 . S
H2916 C2926 0.930 . S
H2917 C2927 0.930 . S
C2918 H2912 0.930 . S
C2918 C2919 1.355 . S
C2918 C2920 1.415 . S
C2919 C2918 1.355 . S
C2919 C2921 1.419 . S
C2920 C2918 1.415 . S
C2920 C2925 1.425 . S
C2920 C2927 1.409 . S
C2921 H2913 0.930 . S
C2921 C2919 1.419 . S
C2921 C2922 1.362 . S
C2922 H2914 0.930 . S
C2922 C2921 1.362 . S
C2922 C2925 1.409 . S
C2923 H2915 0.930 . S
C2923 C2924 1.355 . S
C2923 C2925 1.415 . S
C2924 C2923 1.355 . S
C2924 C2926 1.419 . S
C2925 C2920 1.425 . S
C2925 C2922 1.409 . S
C2925 C2923 1.415 . S
C2926 H2916 0.930 . S
C2926 C2924 1.419 . S
C2926 C2927 1.362 . S
C2927 H2917 0.930 . S
C2927 C2920 1.409 . S
C2927 C2926 1.362 . S
H2928 C2934 0.930 . S
H2929 C2937 0.930 . S
H2930 C2938 0.930 . S
H2931 C2939 0.930 . S
H2932 C2942 0.930 . S
H2933 C2943 0.930 . S
C2934 H2928 0.930 . S
C2934 C2935 1.355 . S
C2934 C2936 1.415 . S
C2935 C2934 1.355 . S
C2935 C2937 1.419 . S
C2936 C2934 1.415 . S
C2936 C2941 1.425 . S
C2936 C2943 1.409 . S
C2937 H2929 0.930 . S
C2937 C2935 1.419 . S
C2937 C2938 1.362 . S
C2938 H2930 0.930 . S
C2938 C2937 1.362 . S
C2938 C2941 1.409 . S
C2939 H2931 0.930 . S
C2939 C2940 1.355 . S
C2939 C2941 1.415 . S
C2940 C2939 1.355 . S
C2940 C2942 1.419 . S
C2941 C2936 1.425 . S
C2941 C2938 1.409 . S
C2941 C2939 1.415 . S
C2942 H2932 0.930 . S
C2942 C2940 1.419 . S
C2942 C2943 1.362 . S
C2943 H2933 0.930 . S
C2943 C2936 1.409 . S
C2943 C2942 1.362 . S
H2944 C2950 0.930 . S
H2945 C2953 0.930 . S
H2946 C2954 0.930 . S
H2947 C2955 0.930 . S
H2948 C2958 0.930 . S
H2949 C2959 0.930 . S
C2950 H2944 0.930 . S
C2950 C2951 1.355 . S
C2950 C2952 1.415 . S
C2951 C2950 1.355 . S
C2951 C2953 1.419 . S
C2952 C2950 1.415 . S
C2952 C2957 1.425 . S
C2952 C2959 1.409 . S
C2953 H2945 0.930 . S
C2953 C2951 1.419 . S
C2953 C2954 1.362 . S
C2954 H2946 0.930 . S
C2954 C2953 1.362 . S
C2954 C2957 1.409 . S
C2955 H2947 0.930 . S
C2955 C2956 1.355 . S
C2955 C2957 1.415 . S
C2956 C2955 1.355 . S
C2956 C2958 1.419 . S
C2957 C2952 1.425 . S
C2957 C2954 1.409 . S
C2957 C2955 1.415 . S
C2958 H2948 0.930 . S
C2958 C2956 1.419 . S
C2958 C2959 1.362 . S
C2959 H2949 0.930 . S
C2959 C2952 1.409 . S
C2959 C2958 1.362 . S
H2960 C2966 0.930 . S
H2961 C2969 0.930 . S
H2962 C2970 0.930 . S
H2963 C2971 0.930 . S
H2964 C2974 0.930 . S
H2965 C2975 0.930 . S
C2966 H2960 0.930 . S
C2966 C2967 1.355 . S
C2966 C2968 1.415 . S
C2967 C2966 1.355 . S
C2967 C2969 1.419 . S
C2968 C2966 1.415 . S
C2968 C2973 1.425 . S
C2968 C2975 1.409 . S
C2969 H2961 0.930 . S
C2969 C2967 1.419 . S
C2969 C2970 1.362 . S
C2970 H2962 0.930 . S
C2970 C2969 1.362 . S
C2970 C2973 1.409 . S
C2971 H2963 0.930 . S
C2971 C2972 1.355 . S
C2971 C2973 1.415 . S
C2972 C2971 1.355 . S
C2972 C2974 1.419 . S
C2973 C2968 1.425 . S
C2973 C2970 1.409 . S
C2973 C2971 1.415 . S
C2974 H2964 0.930 . S
C2974 C2972 1.419 . S
C2974 C2975 1.362 . S
C2975 H2965 0.930 . S
C2975 C2968 1.409 . S
C2975 C2974 1.362 . S
H2976 C2982 0.930 . S
H2977 C2985 0.930 . S
H2978 C2986 0.930 . S
H2979 C2987 0.930 . S
H2980 C2990 0.930 . S
H2981 C2991 0.930 . S
C2982 H2976 0.930 . S
C2982 C2983 1.355 . S
C2982 C2984 1.415 . S
C2983 C2982 1.355 . S
C2983 C2985 1.419 . S
C2984 C2982 1.415 . S
C2984 C2989 1.425 . S
C2984 C2991 1.409 . S
C2985 H2977 0.930 . S
C2985 C2983 1.419 . S
C2985 C2986 1.362 . S
C2986 H2978 0.930 . S
C2986 C2985 1.362 . S
C2986 C2989 1.409 . S
C2987 H2979 0.930 . S
C2987 C2988 1.355 . S
C2987 C2989 1.415 . S
C2988 C2987 1.355 . S
C2988 C2990 1.419 . S
C2989 C2984 1.425 . S
C2989 C2986 1.409 . S
C2989 C2987 1.415 . S
C2990 H2980 0.930 . S
C2990 C2988 1.419 . S
C2990 C2991 1.362 . S
C2991 H2981 0.930 . S
C2991 C2984 1.409 . S
C2991 C2990 1.362 . S
H2992 C2998 0.930 . S
H2993 C3001 0.930 . S
H2994 C3002 0.930 . S
H2995 C3003 0.930 . S
H2996 C3006 0.930 . S
H2997 C3007 0.930 . S
C2998 H2992 0.930 . S
C2998 C2999 1.355 . S
C2998 C3000 1.415 . S
C2999 C2998 1.355 . S
C2999 C3001 1.419 . S
C3000 C2998 1.415 . S
C3000 C3005 1.425 . S
C3000 C3007 1.409 . S
C3001 H2993 0.930 . S
C3001 C2999 1.419 . S
C3001 C3002 1.362 . S
C3002 H2994 0.930 . S
C3002 C3001 1.362 . S
C3002 C3005 1.409 . S
C3003 H2995 0.930 . S
C3003 C3004 1.355 . S
C3003 C3005 1.415 . S
C3004 C3003 1.355 . S
C3004 C3006 1.419 . S
C3005 C3000 1.425 . S
C3005 C3002 1.409 . S
C3005 C3003 1.415 . S
C3006 H2996 0.930 . S
C3006 C3004 1.419 . S
C3006 C3007 1.362 . S
C3007 H2997 0.930 . S
C3007 C3000 1.409 . S
C3007 C3006 1.362 . S
H3008 C3014 0.930 . S
H3009 C3017 0.930 . S
H3010 C3018 0.930 . S
H3011 C3019 0.930 . S
H3012 C3022 0.930 . S
H3013 C3023 0.930 . S
C3014 H3008 0.930 . S
C3014 C3015 1.355 . S
C3014 C3016 1.415 . S
C3015 C3014 1.355 . S
C3015 C3017 1.419 . S
C3016 C3014 1.415 . S
C3016 C3021 1.425 . S
C3016 C3023 1.409 . S
C3017 H3009 0.930 . S
C3017 C3015 1.419 . S
C3017 C3018 1.362 . S
C3018 H3010 0.930 . S
C3018 C3017 1.362 . S
C3018 C3021 1.409 . S
C3019 H3011 0.930 . S
C3019 C3020 1.355 . S
C3019 C3021 1.415 . S
C3020 C3019 1.355 . S
C3020 C3022 1.419 . S
C3021 C3016 1.425 . S
C3021 C3018 1.409 . S
C3021 C3019 1.415 . S
C3022 H3012 0.930 . S
C3022 C3020 1.419 . S
C3022 C3023 1.362 . S
C3023 H3013 0.930 . S
C3023 C3016 1.409 . S
C3023 C3022 1.362 . S
H3024 C3030 0.930 . S
H3025 C3033 0.930 . S
H3026 C3034 0.930 . S
H3027 C3035 0.930 . S
H3028 C3038 0.930 . S
H3029 C3039 0.930 . S
C3030 H3024 0.930 . S
C3030 C3031 1.355 . S
C3030 C3032 1.415 . S
C3031 C3030 1.355 . S
C3031 C3033 1.419 . S
C3032 C3030 1.415 . S
C3032 C3037 1.425 . S
C3032 C3039 1.409 . S
C3033 H3025 0.930 . S
C3033 C3031 1.419 . S
C3033 C3034 1.362 . S
C3034 H3026 0.930 . S
C3034 C3033 1.362 . S
C3034 C3037 1.409 . S
C3035 H3027 0.930 . S
C3035 C3036 1.355 . S
C3035 C3037 1.415 . S
C3036 C3035 1.355 . S
C3036 C3038 1.419 . S
C3037 C3032 1.425 . S
C3037 C3034 1.409 . S
C3037 C3035 1.415 . S
C3038 H3028 0.930 . S
C3038 C3036 1.419 . S
C3038 C3039 1.362 . S
C3039 H3029 0.930 . S
C3039 C3032 1.409 . S
C3039 C3038 1.362 . S
H3040 C3046 0.930 . S
H3041 C3049 0.930 . S
H3042 C3050 0.930 . S
H3043 C3051 0.930 . S
H3044 C3054 0.930 . S
H3045 C3055 0.930 . S
C3046 H3040 0.930 . S
C3046 C3047 1.355 . S
C3046 C3048 1.415 . S
C3047 C3046 1.355 . S
C3047 C3049 1.419 . S
C3048 C3046 1.415 . S
C3048 C3053 1.425 . S
C3048 C3055 1.409 . S
C3049 H3041 0.930 . S
C3049 C3047 1.419 . S
C3049 C3050 1.362 . S
C3050 H3042 0.930 . S
C3050 C3049 1.362 . S
C3050 C3053 1.409 . S
C3051 H3043 0.930 . S
C3051 C3052 1.355 . S
C3051 C3053 1.415 . S
C3052 C3051 1.355 . S
C3052 C3054 1.419 . S
C3053 C3048 1.425 . S
C3053 C3050 1.409 . S
C3053 C3051 1.415 . S
C3054 H3044 0.930 . S
C3054 C3052 1.419 . S
C3054 C3055 1.362 . S
C3055 H3045 0.930 . S
C3055 C3048 1.409 . S
C3055 C3054 1.362 . S
H3056 C3062 0.930 . S
H3057 C3065 0.930 . S
H3058 C3066 0.930 . S
H3059 C3067 0.930 . S
H3060 C3070 0.930 . S
H3061 C3071 0.930 . S
C3062 H3056 0.930 . S
C3062 C3063 1.355 . S
C3062 C3064 1.415 . S
C3063 C3062 1.355 . S
C3063 C3065 1.419 . S
C3064 C3062 1.415 . S
C3064 C3069 1.425 . S
C3064 C3071 1.409 . S
C3065 H3057 0.930 . S
C3065 C3063 1.419 . S
C3065 C3066 1.362 . S
C3066 H3058 0.930 . S
C3066 C3065 1.362 . S
C3066 C3069 1.409 . S
C3067 H3059 0.930 . S
C3067 C3068 1.355 . S
C3067 C3069 1.415 . S
C3068 C3067 1.355 . S
C3068 C3070 1.419 . S
C3069 C3064 1.425 . S
C3069 C3066 1.409 . S
C3069 C3067 1.415 . S
C3070 H3060 0.930 . S
C3070 C3068 1.419 . S
C3070 C3071 1.362 . S
C3071 H3061 0.930 . S
C3071 C3064 1.409 . S
C3071 C3070 1.362 . S
H3072 C3078 0.930 . S
H3073 C3081 0.930 . S
H3074 C3082 0.930 . S
H3075 C3083 0.930 . S
H3076 C3086 0.930 . S
H3077 C3087 0.930 . S
C3078 H3072 0.930 . S
C3078 C3079 1.355 . S
C3078 C3080 1.415 . S
C3079 C3078 1.355 . S
C3079 C3081 1.419 . S
C3080 C3078 1.415 . S
C3080 C3085 1.425 . S
C3080 C3087 1.409 . S
C3081 H3073 0.930 . S
C3081 C3079 1.419 . S
C3081 C3082 1.362 . S
C3082 H3074 0.930 . S
C3082 C3081 1.362 . S
C3082 C3085 1.409 . S
C3083 H3075 0.930 . S
C3083 C3084 1.355 . S
C3083 C3085 1.415 . S
C3084 C3083 1.355 . S
C3084 C3086 1.419 . S
C3085 C3080 1.425 . S
C3085 C3082 1.409 . S
C3085 C3083 1.415 . S
C3086 H3076 0.930 . S
C3086 C3084 1.419 . S
C3086 C3087 1.362 . S
C3087 H3077 0.930 . S
C3087 C3080 1.409 . S
C3087 C3086 1.362 . S
H3088 C3094 0.930 . S
H3089 C3097 0.930 . S
H3090 C3098 0.930 . S
H3091 C3099 0.930 . S
H3092 C3102 0.930 . S
H3093 C3103 0.930 . S
C3094 H3088 0.930 . S
C3094 C3095 1.355 . S
C3094 C3096 1.415 . S
C3095 C3094 1.355 . S
C3095 C3097 1.419 . S
C3096 C3094 1.415 . S
C3096 C3101 1.425 . S
C3096 C3103 1.409 . S
C3097 H3089 0.930 . S
C3097 C3095 1.419 . S
C3097 C3098 1.362 . S
C3098 H3090 0.930 . S
C3098 C3097 1.362 . S
C3098 C3101 1.409 . S
C3099 H3091 0.930 . S
C3099 C3100 1.355 . S
C3099 C3101 1.415 . S
C3100 C3099 1.355 . S
C3100 C3102 1.419 . S
C3101 C3096 1.425 . S
C3101 C3098 1.409 . S
C3101 C3099 1.415 . S
C3102 H3092 0.930 . S
C3102 C3100 1.419 . S
C3102 C3103 1.362 . S
C3103 H3093 0.930 . S
C3103 C3096 1.409 . S
C3103 C3102 1.362 . S
H3104 C3110 0.930 . S
H3105 C3113 0.930 . S
H3106 C3114 0.930 . S
H3107 C3115 0.930 . S
H3108 C3118 0.930 . S
H3109 C3119 0.930 . S
C3110 H3104 0.930 . S
C3110 C3111 1.355 . S
C3110 C3112 1.415 . S
C3111 C3110 1.355 . S
C3111 C3113 1.419 . S
C3112 C3110 1.415 . S
C3112 C3117 1.425 . S
C3112 C3119 1.409 . S
C3113 H3105 0.930 . S
C3113 C3111 1.419 . S
C3113 C3114 1.362 . S
C3114 H3106 0.930 . S
C3114 C3113 1.362 . S
C3114 C3117 1.409 . S
C3115 H3107 0.930 . S
C3115 C3116 1.355 . S
C3115 C3117 1.415 . S
C3116 C3115 1.355 . S
C3116 C3118 1.419 . S
C3117 C3112 1.425 . S
C3117 C3114 1.409 . S
C3117 C3115 1.415 . S
C3118 H3108 0.930 . S
C3118 C3116 1.419 . S
C3118 C3119 1.362 . S
C3119 H3109 0.930 . S
C3119 C3112 1.409 . S
C3119 C3118 1.362 . S
H3120 C3126 0.930 . S
H3121 C3129 0.930 . S
H3122 C3130 0.930 . S
H3123 C3131 0.930 . S
H3124 C3134 0.930 . S
H3125 C3135 0.930 . S
C3126 H3120 0.930 . S
C3126 C3127 1.355 . S
C3126 C3128 1.415 . S
C3127 C3126 1.355 . S
C3127 C3129 1.419 . S
C3128 C3126 1.415 . S
C3128 C3133 1.425 . S
C3128 C3135 1.409 . S
C3129 H3121 0.930 . S
C3129 C3127 1.419 . S
C3129 C3130 1.362 . S
C3130 H3122 0.930 . S
C3130 C3129 1.362 . S
C3130 C3133 1.409 . S
C3131 H3123 0.930 . S
C3131 C3132 1.355 . S
C3131 C3133 1.415 . S
C3132 C3131 1.355 . S
C3132 C3134 1.419 . S
C3133 C3128 1.425 . S
C3133 C3130 1.409 . S
C3133 C3131 1.415 . S
C3134 H3124 0.930 . S
C3134 C3132 1.419 . S
C3134 C3135 1.362 . S
C3135 H3125 0.930 . S
C3135 C3128 1.409 . S
C3135 C3134 1.362 . S
H3136 C3142 0.930 . S
H3137 C3145 0.930 . S
H3138 C3146 0.930 . S
H3139 C3147 0.930 . S
H3140 C3150 0.930 . S
H3141 C3151 0.930 . S
C3142 H3136 0.930 . S
C3142 C3143 1.355 . S
C3142 C3144 1.415 . S
C3143 C3142 1.355 . S
C3143 C3145 1.419 . S
C3144 C3142 1.415 . S
C3144 C3149 1.425 . S
C3144 C3151 1.409 . S
C3145 H3137 0.930 . S
C3145 C3143 1.419 . S
C3145 C3146 1.362 . S
C3146 H3138 0.930 . S
C3146 C3145 1.362 . S
C3146 C3149 1.409 . S
C3147 H3139 0.930 . S
C3147 C3148 1.355 . S
C3147 C3149 1.415 . S
C3148 C3147 1.355 . S
C3148 C3150 1.419 . S
C3149 C3144 1.425 . S
C3149 C3146 1.409 . S
C3149 C3147 1.415 . S
C3150 H3140 0.930 . S
C3150 C3148 1.419 . S
C3150 C3151 1.362 . S
C3151 H3141 0.930 . S
C3151 C3144 1.409 . S
C3151 C3150 1.362 . S
H3152 C3158 0.930 . S
H3153 C3161 0.930 . S
H3154 C3162 0.930 . S
H3155 C3163 0.930 . S
H3156 C3166 0.930 . S
H3157 C3167 0.930 . S
C3158 H3152 0.930 . S
C3158 C3159 1.355 . S
C3158 C3160 1.415 . S
C3159 C3158 1.355 . S
C3159 C3161 1.419 . S
C3160 C3158 1.415 . S
C3160 C3165 1.425 . S
C3160 C3167 1.409 . S
C3161 H3153 0.930 . S
C3161 C3159 1.419 . S
C3161 C3162 1.362 . S
C3162 H3154 0.930 . S
C3162 C3161 1.362 . S
C3162 C3165 1.409 . S
C3163 H3155 0.930 . S
C3163 C3164 1.355 . S
C3163 C3165 1.415 . S
C3164 C3163 1.355 . S
C3164 C3166 1.419 . S
C3165 C3160 1.425 . S
C3165 C3162 1.409 . S
C3165 C3163 1.415 . S
C3166 H3156 0.930 . S
C3166 C3164 1.419 . S
C3166 C3167 1.362 . S
C3167 H3157 0.930 . S
C3167 C3160 1.409 . S
C3167 C3166 1.362 . S
H3168 C3174 0.930 . S
H3169 C3177 0.930 . S
H3170 C3178 0.930 . S
H3171 C3179 0.930 . S
H3172 C3182 0.930 . S
H3173 C3183 0.930 . S
C3174 H3168 0.930 . S
C3174 C3175 1.355 . S
C3174 C3176 1.415 . S
C3175 C3174 1.355 . S
C3175 C3177 1.419 . S
C3176 C3174 1.415 . S
C3176 C3181 1.425 . S
C3176 C3183 1.409 . S
C3177 H3169 0.930 . S
C3177 C3175 1.419 . S
C3177 C3178 1.362 . S
C3178 H3170 0.930 . S
C3178 C3177 1.362 . S
C3178 C3181 1.409 . S
C3179 H3171 0.930 . S
C3179 C3180 1.355 . S
C3179 C3181 1.415 . S
C3180 C3179 1.355 . S
C3180 C3182 1.419 . S
C3181 C3176 1.425 . S
C3181 C3178 1.409 . S
C3181 C3179 1.415 . S
C3182 H3172 0.930 . S
C3182 C3180 1.419 . S
C3182 C3183 1.362 . S
C3183 H3173 0.930 . S
C3183 C3176 1.409 . S
C3183 C3182 1.362 . S
H3184 C3190 0.930 . S
H3185 C3193 0.930 . S
H3186 C3194 0.930 . S
H3187 C3195 0.930 . S
H3188 C3198 0.930 . S
H3189 C3199 0.930 . S
C3190 H3184 0.930 . S
C3190 C3191 1.355 . S
C3190 C3192 1.415 . S
C3191 C3190 1.355 . S
C3191 C3193 1.419 . S
C3192 C3190 1.415 . S
C3192 C3197 1.425 . S
C3192 C3199 1.409 . S
C3193 H3185 0.930 . S
C3193 C3191 1.419 . S
C3193 C3194 1.362 . S
C3194 H3186 0.930 . S
C3194 C3193 1.362 . S
C3194 C3197 1.409 . S
C3195 H3187 0.930 . S
C3195 C3196 1.355 . S
C3195 C3197 1.415 . S
C3196 C3195 1.355 . S
C3196 C3198 1.419 . S
C3197 C3192 1.425 . S
C3197 C3194 1.409 . S
C3197 C3195 1.415 . S
C3198 H3188 0.930 . S
C3198 C3196 1.419 . S
C3198 C3199 1.362 . S
C3199 H3189 0.930 . S
C3199 C3192 1.409 . S
C3199 C3198 1.362 . S
H3200 C3206 0.930 . S
H3201 C3209 0.930 . S
H3202 C3210 0.930 . S
H3203 C3211 0.930 . S
H3204 C3214 0.930 . S
H3205 C3215 0.930 . S
C3206 H3200 0.930 . S
C3206 C3207 1.355 . S
C3206 C3208 1.415 . S
C3207 C3206 1.355 . S
C3207 C3209 1.419 . S
C3208 C3206 1.415 . S
C3208 C3213 1.425 . S
C3208 C3215 1.409 . S
C3209 H3201 0.930 . S
C3209 C3207 1.419 . S
C3209 C3210 1.362 . S
C3210 H3202 0.930 . S
C3210 C3209 1.362 . S
C3210 C3213 1.409 . S
C3211 H3203 0.930 . S
C3211 C3212 1.355 . S
C3211 C3213 1.415 . S
C3212 C3211 1.355 . S
C3212 C3214 1.419 . S
C3213 C3208 1.425 . S
C3213 C3210 1.409 . S
C3213 C3211 1.415 . S
C3214 H3204 0.930 . S
C3214 C3212 1.419 . S
C3214 C3215 1.362 . S
C3215 H3205 0.930 . S
C3215 C3208 1.409 . S
C3215 C3214 1.362 . S
H3216 C3222 0.930 . S
H3217 C3225 0.930 . S
H3218 C3226 0.930 . S
H3219 C3227 0.930 . S
H3220 C3230 0.930 . S
H3221 C3231 0.930 . S
C3222 H3216 0.930 . S
C3222 C3223 1.355 . S
C3222 C3224 1.415 . S
C3223 C3222 1.355 . S
C3223 C3225 1.419 . S
C3224 C3222 1.415 . S
C3224 C3229 1.425 . S
C3224 C3231 1.409 . S
C3225 H3217 0.930 . S
C3225 C3223 1.419 . S
C3225 C3226 1.362 . S
C3226 H3218 0.930 . S
C3226 C3225 1.362 . S
C3226 C3229 1.409 . S
C3227 H3219 0.930 . S
C3227 C3228 1.355 . S
C3227 C3229 1.415 . S
C3228 C3227 1.355 . S
C3228 C3230 1.419 . S
C3229 C3224 1.425 . S
C3229 C3226 1.409 . S
C3229 C3227 1.415 . S
C3230 H3220 0.930 . S
C3230 C3228 1.419 . S
C3230 C3231 1.362 . S
C3231 H3221 0.930 . S
C3231 C3224 1.409 . S
C3231 C3230 1.362 . S
H3232 C3238 0.930 . S
H3233 C3241 0.930 . S
H3234 C3242 0.930 . S
H3235 C3243 0.930 . S
H3236 C3246 0.930 . S
H3237 C3247 0.930 . S
C3238 H3232 0.930 . S
C3238 C3239 1.355 . S
C3238 C3240 1.415 . S
C3239 C3238 1.355 . S
C3239 C3241 1.419 . S
C3240 C3238 1.415 . S
C3240 C3245 1.425 . S
C3240 C3247 1.409 . S
C3241 H3233 0.930 . S
C3241 C3239 1.419 . S
C3241 C3242 1.362 . S
C3242 H3234 0.930 . S
C3242 C3241 1.362 . S
C3242 C3245 1.409 . S
C3243 H3235 0.930 . S
C3243 C3244 1.355 . S
C3243 C3245 1.415 . S
C3244 C3243 1.355 . S
C3244 C3246 1.419 . S
C3245 C3240 1.425 . S
C3245 C3242 1.409 . S
C3245 C3243 1.415 . S
C3246 H3236 0.930 . S
C3246 C3244 1.419 . S
C3246 C3247 1.362 . S
C3247 H3237 0.930 . S
C3247 C3240 1.409 . S
C3247 C3246 1.362 . S
H3248 C3254 0.930 . S
H3249 C3257 0.930 . S
H3250 C3258 0.930 . S
H3251 C3259 0.930 . S
H3252 C3262 0.930 . S
H3253 C3263 0.930 . S
C3254 H3248 0.930 . S
C3254 C3255 1.355 . S
C3254 C3256 1.415 . S
C3255 C3254 1.355 . S
C3255 C3257 1.419 . S
C3256 C3254 1.415 . S
C3256 C3261 1.425 . S
C3256 C3263 1.409 . S
C3257 H3249 0.930 . S
C3257 C3255 1.419 . S
C3257 C3258 1.362 . S
C3258 H3250 0.930 . S
C3258 C3257 1.362 . S
C3258 C3261 1.409 . S
C3259 H3251 0.930 . S
C3259 C3260 1.355 . S
C3259 C3261 1.415 . S
C3260 C3259 1.355 . S
C3260 C3262 1.419 . S
C3261 C3256 1.425 . S
C3261 C3258 1.409 . S
C3261 C3259 1.415 . S
C3262 H3252 0.930 . S
C3262 C3260 1.419 . S
C3262 C3263 1.362 . S
C3263 H3253 0.930 . S
C3263 C3256 1.409 . S
C3263 C3262 1.362 . S
H3264 C3270 0.930 . S
H3265 C3273 0.930 . S
H3266 C3274 0.930 . S
H3267 C3275 0.930 . S
H3268 C3278 0.930 . S
H3269 C3279 0.930 . S
C3270 H3264 0.930 . S
C3270 C3271 1.355 . S
C3270 C3272 1.415 . S
C3271 C3270 1.355 . S
C3271 C3273 1.419 . S
C3272 C3270 1.415 . S
C3272 C3277 1.425 . S
C3272 C3279 1.409 . S
C3273 H3265 0.930 . S
C3273 C3271 1.419 . S
C3273 C3274 1.362 . S
C3274 H3266 0.930 . S
C3274 C3273 1.362 . S
C3274 C3277 1.409 . S
C3275 H3267 0.930 . S
C3275 C3276 1.355 . S
C3275 C3277 1.415 . S
C3276 C3275 1.355 . S
C3276 C3278 1.419 . S
C3277 C3272 1.425 . S
C3277 C3274 1.409 . S
C3277 C3275 1.415 . S
C3278 H3268 0.930 . S
C3278 C3276 1.419 . S
C3278 C3279 1.362 . S
C3279 H3269 0.930 . S
C3279 C3272 1.409 . S
C3279 C3278 1.362 . S
H3280 C3286 0.930 . S
H3281 C3289 0.930 . S
H3282 C3290 0.930 . S
H3283 C3291 0.930 . S
H3284 C3294 0.930 . S
H3285 C3295 0.930 . S
C3286 H3280 0.930 . S
C3286 C3287 1.355 . S
C3286 C3288 1.415 . S
C3287 C3286 1.355 . S
C3287 C3289 1.419 . S
C3288 C3286 1.415 . S
C3288 C3293 1.425 . S
C3288 C3295 1.409 . S
C3289 H3281 0.930 . S
C3289 C3287 1.419 . S
C3289 C3290 1.362 . S
C3290 H3282 0.930 . S
C3290 C3289 1.362 . S
C3290 C3293 1.409 . S
C3291 H3283 0.930 . S
C3291 C3292 1.355 . S
C3291 C3293 1.415 . S
C3292 C3291 1.355 . S
C3292 C3294 1.419 . S
C3293 C3288 1.425 . S
C3293 C3290 1.409 . S
C3293 C3291 1.415 . S
C3294 H3284 0.930 . S
C3294 C3292 1.419 . S
C3294 C3295 1.362 . S
C3295 H3285 0.930 . S
C3295 C3288 1.409 . S
C3295 C3294 1.362 . S
H3296 C3302 0.930 . S
H3297 C3305 0.930 . S
H3298 C3306 0.930 . S
H3299 C3307 0.930 . S
H3300 C3310 0.930 . S
H3301 C3311 0.930 . S
C3302 H3296 0.930 . S
C3302 C3303 1.355 . S
C3302 C3304 1.415 . S
C3303 C3302 1.355 . S
C3303 C3305 1.419 . S
C3304 C3302 1.415 . S
C3304 C3309 1.425 . S
C3304 C3311 1.409 . S
C3305 H3297 0.930 . S
C3305 C3303 1.419 . S
C3305 C3306 1.362 . S
C3306 H3298 0.930 . S
C3306 C3305 1.362 . S
C3306 C3309 1.409 . S
C3307 H3299 0.930 . S
C3307 C3308 1.355 . S
C3307 C3309 1.415 . S
C3308 C3307 1.355 . S
C3308 C3310 1.419 . S
C3309 C3304 1.425 . S
C3309 C3306 1.409 . S
C3309 C3307 1.415 . S
C3310 H3300 0.930 . S
C3310 C3308 1.419 . S
C3310 C3311 1.362 . S
C3311 H3301 0.930 . S
C3311 C3304 1.409 . S
C3311 C3310 1.362 . S
H3312 C3318 0.930 . S
H3313 C3321 0.930 . S
H3314 C3322 0.930 . S
H3315 C3323 0.930 . S
H3316 C3326 0.930 . S
H3317 C3327 0.930 . S
C3318 H3312 0.930 . S
C3318 C3319 1.355 . S
C3318 C3320 1.415 . S
C3319 C3318 1.355 . S
C3319 C3321 1.419 . S
C3320 C3318 1.415 . S
C3320 C3325 1.425 . S
C3320 C3327 1.409 . S
C3321 H3313 0.930 . S
C3321 C3319 1.419 . S
C3321 C3322 1.362 . S
C3322 H3314 0.930 . S
C3322 C3321 1.362 . S
C3322 C3325 1.409 . S
C3323 H3315 0.930 . S
C3323 C3324 1.355 . S
C3323 C3325 1.415 . S
C3324 C3323 1.355 . S
C3324 C3326 1.419 . S
C3325 C3320 1.425 . S
C3325 C3322 1.409 . S
C3325 C3323 1.415 . S
C3326 H3316 0.930 . S
C3326 C3324 1.419 . S
C3326 C3327 1.362 . S
C3327 H3317 0.930 . S
C3327 C3320 1.409 . S
C3327 C3326 1.362 . S
H3328 C3334 0.930 . S
H3329 C3337 0.930 . S
H3330 C3338 0.930 . S
H3331 C3339 0.930 . S
H3332 C3342 0.930 . S
H3333 C3343 0.930 . S
C3334 H3328 0.930 . S
C3334 C3335 1.355 . S
C3334 C3336 1.415 . S
C3335 C3334 1.355 . S
C3335 C3337 1.419 . S
C3336 C3334 1.415 . S
C3336 C3341 1.425 . S
C3336 C3343 1.409 . S
C3337 H3329 0.930 . S
C3337 C3335 1.419 . S
C3337 C3338 1.362 . S
C3338 H3330 0.930 . S
C3338 C3337 1.362 . S
C3338 C3341 1.409 . S
C3339 H3331 0.930 . S
C3339 C3340 1.355 . S
C3339 C3341 1.415 . S
C3340 C3339 1.355 . S
C3340 C3342 1.419 . S
C3341 C3336 1.425 . S
C3341 C3338 1.409 . S
C3341 C3339 1.415 . S
C3342 H3332 0.930 . S
C3342 C3340 1.419 . S
C3342 C3343 1.362 . S
C3343 H3333 0.930 . S
C3343 C3336 1.409 . S
C3343 C3342 1.362 . S
H3344 C3350 0.930 . S
H3345 C3353 0.930 . S
H3346 C3354 0.930 . S
H3347 C3355 0.930 . S
H3348 C3358 0.930 . S
H3349 C3359 0.930 . S
C3350 H3344 0.930 . S
C3350 C3351 1.355 . S
C3350 C3352 1.415 . S
C3351 C3350 1.355 . S
C3351 C3353 1.419 . S
C3352 C3350 1.415 . S
C3352 C3357 1.425 . S
C3352 C3359 1.409 . S
C3353 H3345 0.930 . S
C3353 C3351 1.419 . S
C3353 C3354 1.362 . S
C3354 H3346 0.930 . S
C3354 C3353 1.362 . S
C3354 C3357 1.409 . S
C3355 H3347 0.930 . S
C3355 C3356 1.355 . S
C3355 C3357 1.415 . S
C3356 C3355 1.355 . S
C3356 C3358 1.419 . S
C3357 C3352 1.425 . S
C3357 C3354 1.409 . S
C3357 C3355 1.415 . S
C3358 H3348 0.930 . S
C3358 C3356 1.419 . S
C3358 C3359 1.362 . S
C3359 H3349 0.930 . S
C3359 C3352 1.409 . S
C3359 C3358 1.362 . S
H3360 C3366 0.930 . S
H3361 C3369 0.930 . S
H3362 C3370 0.930 . S
H3363 C3371 0.930 . S
H3364 C3374 0.930 . S
H3365 C3375 0.930 . S
C3366 H3360 0.930 . S
C3366 C3367 1.355 . S
C3366 C3368 1.415 . S
C3367 C3366 1.355 . S
C3367 C3369 1.419 . S
C3368 C3366 1.415 . S
C3368 C3373 1.425 . S
C3368 C3375 1.409 . S
C3369 H3361 0.930 . S
C3369 C3367 1.419 . S
C3369 C3370 1.362 . S
C3370 H3362 0.930 . S
C3370 C3369 1.362 . S
C3370 C3373 1.409 . S
C3371 H3363 0.930 . S
C3371 C3372 1.355 . S
C3371 C3373 1.415 . S
C3372 C3371 1.355 . S
C3372 C3374 1.419 . S
C3373 C3368 1.425 . S
C3373 C3370 1.409 . S
C3373 C3371 1.415 . S
C3374 H3364 0.930 . S
C3374 C3372 1.419 . S
C3374 C3375 1.362 . S
C3375 H3365 0.930 . S
C3375 C3368 1.409 . S
C3375 C3374 1.362 . S
H3376 C3382 0.930 . S
H3377 C3385 0.930 . S
H3378 C3386 0.930 . S
H3379 C3387 0.930 . S
H3380 C3390 0.930 . S
H3381 C3391 0.930 . S
C3382 H3376 0.930 . S
C3382 C3383 1.355 . S
C3382 C3384 1.415 . S
C3383 C3382 1.355 . S
C3383 C3385 1.419 . S
C3384 C3382 1.415 . S
C3384 C3389 1.425 . S
C3384 C3391 1.409 . S
C3385 H3377 0.930 . S
C3385 C3383 1.419 . S
C3385 C3386 1.362 . S
C3386 H3378 0.930 . S
C3386 C3385 1.362 . S
C3386 C3389 1.409 . S
C3387 H3379 0.930 . S
C3387 C3388 1.355 . S
C3387 C3389 1.415 . S
C3388 C3387 1.355 . S
C3388 C3390 1.419 . S
C3389 C3384 1.425 . S
C3389 C3386 1.409 . S
C3389 C3387 1.415 . S
C3390 H3380 0.930 . S
C3390 C3388 1.419 . S
C3390 C3391 1.362 . S
C3391 H3381 0.930 . S
C3391 C3384 1.409 . S
C3391 C3390 1.362 . S
H3392 C3398 0.930 . S
H3393 C3401 0.930 . S
H3394 C3402 0.930 . S
H3395 C3403 0.930 . S
H3396 C3406 0.930 . S
H3397 C3407 0.930 . S
C3398 H3392 0.930 . S
C3398 C3399 1.355 . S
C3398 C3400 1.415 . S
C3399 C3398 1.355 . S
C3399 C3401 1.419 . S
C3400 C3398 1.415 . S
C3400 C3405 1.425 . S
C3400 C3407 1.409 . S
C3401 H3393 0.930 . S
C3401 C3399 1.419 . S
C3401 C3402 1.362 . S
C3402 H3394 0.930 . S
C3402 C3401 1.362 . S
C3402 C3405 1.409 . S
C3403 H3395 0.930 . S
C3403 C3404 1.355 . S
C3403 C3405 1.415 . S
C3404 C3403 1.355 . S
C3404 C3406 1.419 . S
C3405 C3400 1.425 . S
C3405 C3402 1.409 . S
C3405 C3403 1.415 . S
C3406 H3396 0.930 . S
C3406 C3404 1.419 . S
C3406 C3407 1.362 . S
C3407 H3397 0.930 . S
C3407 C3400 1.409 . S
C3407 C3406 1.362 . S
H3408 C3414 0.930 . S
H3409 C3417 0.930 . S
H3410 C3418 0.930 . S
H3411 C3419 0.930 . S
H3412 C3422 0.930 . S
H3413 C3423 0.930 . S
C3414 H3408 0.930 . S
C3414 C3415 1.355 . S
C3414 C3416 1.415 . S
C3415 C3414 1.355 . S
C3415 C3417 1.419 . S
C3416 C3414 1.415 . S
C3416 C3421 1.425 . S
C3416 C3423 1.409 . S
C3417 H3409 0.930 . S
C3417 C3415 1.419 . S
C3417 C3418 1.362 . S
C3418 H3410 0.930 . S
C3418 C3417 1.362 . S
C3418 C3421 1.409 . S
C3419 H3411 0.930 . S
C3419 C3420 1.355 . S
C3419 C3421 1.415 . S
C3420 C3419 1.355 . S
C3420 C3422 1.419 . S
C3421 C3416 1.425 . S
C3421 C3418 1.409 . S
C3421 C3419 1.415 . S
C3422 H3412 0.930 . S
C3422 C3420 1.419 . S
C3422 C3423 1.362 . S
C3423 H3413 0.930 . S
C3423 C3416 1.409 . S
C3423 C3422 1.362 . S
H3424 C3430 0.930 . S
H3425 C3433 0.930 . S
H3426 C3434 0.930 . S
H3427 C3435 0.930 . S
H3428 C3438 0.930 . S
H3429 C3439 0.930 . S
C3430 H3424 0.930 . S
C3430 C3431 1.355 . S
C3430 C3432 1.415 . S
C3431 C3430 1.355 . S
C3431 C3433 1.419 . S
C3432 C3430 1.415 . S
C3432 C3437 1.425 . S
C3432 C3439 1.409 . S
C3433 H3425 0.930 . S
C3433 C3431 1.419 . S
C3433 C3434 1.362 . S
C3434 H3426 0.930 . S
C3434 C3433 1.362 . S
C3434 C3437 1.409 . S
C3435 H3427 0.930 . S
C3435 C3436 1.355 . S
C3435 C3437 1.415 . S
C3436 C3435 1.355 . S
C3436 C3438 1.419 . S
C3437 C3432 1.425 . S
C3437 C3434 1.409 . S
C3437 C3435 1.415 . S
C3438 H3428 0.930 . S
C3438 C3436 1.419 . S
C3438 C3439 1.362 . S
C3439 H3429 0.930 . S
C3439 C3432 1.409 . S
C3439 C3438 1.362 . S
H3440 C3446 0.930 . S
H3441 C3449 0.930 . S
H3442 C3450 0.930 . S
H3443 C3451 0.930 . S
H3444 C3454 0.930 . S
H3445 C3455 0.930 . S
C3446 H3440 0.930 . S
C3446 C3447 1.355 . S
C3446 C3448 1.415 . S
C3447 C3446 1.355 . S
C3447 C3449 1.419 . S
C3448 C3446 1.415 . S
C3448 C3453 1.425 . S
C3448 C3455 1.409 . S
C3449 H3441 0.930 . S
C3449 C3447 1.419 . S
C3449 C3450 1.362 . S
C3450 H3442 0.930 . S
C3450 C3449 1.362 . S
C3450 C3453 1.409 . S
C3451 H3443 0.930 . S
C3451 C3452 1.355 . S
C3451 C3453 1.415 . S
C3452 C3451 1.355 . S
C3452 C3454 1.419 . S
C3453 C3448 1.425 . S
C3453 C3450 1.409 . S
C3453 C3451 1.415 . S
C3454 H3444 0.930 . S
C3454 C3452 1.419 . S
C3454 C3455 1.362 . S
C3455 H3445 0.930 . S
C3455 C3448 1.409 . S
C3455 C3454 1.362 . S
H3456 C3462 0.930 . S
H3457 C3465 0.930 . S
H3458 C3466 0.930 . S
H3459 C3467 0.930 . S
H3460 C3470 0.930 . S
H3461 C3471 0.930 . S
C3462 H3456 0.930 . S
C3462 C3463 1.355 . S
C3462 C3464 1.415 . S
C3463 C3462 1.355 . S
C3463 C3465 1.419 . S
C3464 C3462 1.415 . S
C3464 C3469 1.425 . S
C3464 C3471 1.409 . S
C3465 H3457 0.930 . S
C3465 C3463 1.419 . S
C3465 C3466 1.362 . S
C3466 H3458 0.930 . S
C3466 C3465 1.362 . S
C3466 C3469 1.409 . S
C3467 H3459 0.930 . S
C3467 C3468 1.355 . S
C3467 C3469 1.415 . S
C3468 C3467 1.355 . S
C3468 C3470 1.419 . S
C3469 C3464 1.425 . S
C3469 C3466 1.409 . S
C3469 C3467 1.415 . S
C3470 H3460 0.930 . S
C3470 C3468 1.419 . S
C3470 C3471 1.362 . S
C3471 H3461 0.930 . S
C3471 C3464 1.409 . S
C3471 C3470 1.362 . S
H3472 C3478 0.930 . S
H3473 C3481 0.930 . S
H3474 C3482 0.930 . S
H3475 C3483 0.930 . S
H3476 C3486 0.930 . S
H3477 C3487 0.930 . S
C3478 H3472 0.930 . S
C3478 C3479 1.355 . S
C3478 C3480 1.415 . S
C3479 C3478 1.355 . S
C3479 C3481 1.419 . S
C3480 C3478 1.415 . S
C3480 C3485 1.425 . S
C3480 C3487 1.409 . S
C3481 H3473 0.930 . S
C3481 C3479 1.419 . S
C3481 C3482 1.362 . S
C3482 H3474 0.930 . S
C3482 C3481 1.362 . S
C3482 C3485 1.409 . S
C3483 H3475 0.930 . S
C3483 C3484 1.355 . S
C3483 C3485 1.415 . S
C3484 C3483 1.355 . S
C3484 C3486 1.419 . S
C3485 C3480 1.425 . S
C3485 C3482 1.409 . S
C3485 C3483 1.415 . S
C3486 H3476 0.930 . S
C3486 C3484 1.419 . S
C3486 C3487 1.362 . S
C3487 H3477 0.930 . S
C3487 C3480 1.409 . S
C3487 C3486 1.362 . S
H3488 C3494 0.930 . S
H3489 C3497 0.930 . S
H3490 C3498 0.930 . S
H3491 C3499 0.930 . S
H3492 C3502 0.930 . S
H3493 C3503 0.930 . S
C3494 H3488 0.930 . S
C3494 C3495 1.355 . S
C3494 C3496 1.415 . S
C3495 C3494 1.355 . S
C3495 C3497 1.419 . S
C3496 C3494 1.415 . S
C3496 C3501 1.425 . S
C3496 C3503 1.409 . S
C3497 H3489 0.930 . S
C3497 C3495 1.419 . S
C3497 C3498 1.362 . S
C3498 H3490 0.930 . S
C3498 C3497 1.362 . S
C3498 C3501 1.409 . S
C3499 H3491 0.930 . S
C3499 C3500 1.355 . S
C3499 C3501 1.415 . S
C3500 C3499 1.355 . S
C3500 C3502 1.419 . S
C3501 C3496 1.425 . S
C3501 C3498 1.409 . S
C3501 C3499 1.415 . S
C3502 H3492 0.930 . S
C3502 C3500 1.419 . S
C3502 C3503 1.362 . S
C3503 H3493 0.930 . S
C3503 C3496 1.409 . S
C3503 C3502 1.362 . S
H3504 C3510 0.930 . S
H3505 C3513 0.930 . S
H3506 C3514 0.930 . S
H3507 C3515 0.930 . S
H3508 C3518 0.930 . S
H3509 C3519 0.930 . S
C3510 H3504 0.930 . S
C3510 C3511 1.355 . S
C3510 C3512 1.415 . S
C3511 C3510 1.355 . S
C3511 C3513 1.419 . S
C3512 C3510 1.415 . S
C3512 C3517 1.425 . S
C3512 C3519 1.409 . S
C3513 H3505 0.930 . S
C3513 C3511 1.419 . S
C3513 C3514 1.362 . S
C3514 H3506 0.930 . S
C3514 C3513 1.362 . S
C3514 C3517 1.409 . S
C3515 H3507 0.930 . S
C3515 C3516 1.355 . S
C3515 C3517 1.415 . S
C3516 C3515 1.355 . S
C3516 C3518 1.419 . S
C3517 C3512 1.425 . S
C3517 C3514 1.409 . S
C3517 C3515 1.415 . S
C3518 H3508 0.930 . S
C3518 C3516 1.419 . S
C3518 C3519 1.362 . S
C3519 H3509 0.930 . S
C3519 C3512 1.409 . S
C3519 C3518 1.362 . S
H3520 C3526 0.930 . S
H3521 C3529 0.930 . S
H3522 C3530 0.930 . S
H3523 C3531 0.930 . S
H3524 C3534 0.930 . S
H3525 C3535 0.930 . S
C3526 H3520 0.930 . S
C3526 C3527 1.355 . S
C3526 C3528 1.415 . S
C3527 C3526 1.355 . S
C3527 C3529 1.419 . S
C3528 C3526 1.415 . S
C3528 C3533 1.425 . S
C3528 C3535 1.409 . S
C3529 H3521 0.930 . S
C3529 C3527 1.419 . S
C3529 C3530 1.362 . S
C3530 H3522 0.930 . S
C3530 C3529 1.362 . S
C3530 C3533 1.409 . S
C3531 H3523 0.930 . S
C3531 C3532 1.355 . S
C3531 C3533 1.415 . S
C3532 C3531 1.355 . S
C3532 C3534 1.419 . S
C3533 C3528 1.425 . S
C3533 C3530 1.409 . S
C3533 C3531 1.415 . S
C3534 H3524 0.930 . S
C3534 C3532 1.419 . S
C3534 C3535 1.362 . S
C3535 H3525 0.930 . S
C3535 C3528 1.409 . S
C3535 C3534 1.362 . S
H3536 C3542 0.930 . S
H3537 C3545 0.930 . S
H3538 C3546 0.930 . S
H3539 C3547 0.930 . S
H3540 C3550 0.930 . S
H3541 C3551 0.930 . S
C3542 H3536 0.930 . S
C3542 C3543 1.355 . S
C3542 C3544 1.415 . S
C3543 C3542 1.355 . S
C3543 C3545 1.419 . S
C3544 C3542 1.415 . S
C3544 C3549 1.425 . S
C3544 C3551 1.409 . S
C3545 H3537 0.930 . S
C3545 C3543 1.419 . S
C3545 C3546 1.362 . S
C3546 H3538 0.930 . S
C3546 C3545 1.362 . S
C3546 C3549 1.409 . S
C3547 H3539 0.930 . S
C3547 C3548 1.355 . S
C3547 C3549 1.415 . S
C3548 C3547 1.355 . S
C3548 C3550 1.419 . S
C3549 C3544 1.425 . S
C3549 C3546 1.409 . S
C3549 C3547 1.415 . S
C3550 H3540 0.930 . S
C3550 C3548 1.419 . S
C3550 C3551 1.362 . S
C3551 H3541 0.930 . S
C3551 C3544 1.409 . S
C3551 C3550 1.362 . S
H3552 C3558 0.930 . S
H3553 C3561 0.930 . S
H3554 C3562 0.930 . S
H3555 C3563 0.930 . S
H3556 C3566 0.930 . S
H3557 C3567 0.930 . S
C3558 H3552 0.930 . S
C3558 C3559 1.355 . S
C3558 C3560 1.415 . S
C3559 C3558 1.355 . S
C3559 C3561 1.419 . S
C3560 C3558 1.415 . S
C3560 C3565 1.425 . S
C3560 C3567 1.409 . S
C3561 H3553 0.930 . S
C3561 C3559 1.419 . S
C3561 C3562 1.362 . S
C3562 H3554 0.930 . S
C3562 C3561 1.362 . S
C3562 C3565 1.409 . S
C3563 H3555 0.930 . S
C3563 C3564 1.355 . S
C3563 C3565 1.415 . S
C3564 C3563 1.355 . S
C3564 C3566 1.419 . S
C3565 C3560 1.425 . S
C3565 C3562 1.409 . S
C3565 C3563 1.415 . S
C3566 H3556 0.930 . S
C3566 C3564 1.419 . S
C3566 C3567 1.362 . S
C3567 H3557 0.930 . S
C3567 C3560 1.409 . S
C3567 C3566 1.362 . S
H3568 C3574 0.930 . S
H3569 C3577 0.930 . S
H3570 C3578 0.930 . S
H3571 C3579 0.930 . S
H3572 C3582 0.930 . S
H3573 C3583 0.930 . S
C3574 H3568 0.930 . S
C3574 C3575 1.355 . S
C3574 C3576 1.415 . S
C3575 C3574 1.355 . S
C3575 C3577 1.419 . S
C3576 C3574 1.415 . S
C3576 C3581 1.425 . S
C3576 C3583 1.409 . S
C3577 H3569 0.930 . S
C3577 C3575 1.419 . S
C3577 C3578 1.362 . S
C3578 H3570 0.930 . S
C3578 C3577 1.362 . S
C3578 C3581 1.409 . S
C3579 H3571 0.930 . S
C3579 C3580 1.355 . S
C3579 C3581 1.415 . S
C3580 C3579 1.355 . S
C3580 C3582 1.419 . S
C3581 C3576 1.425 . S
C3581 C3578 1.409 . S
C3581 C3579 1.415 . S
C3582 H3572 0.930 . S
C3582 C3580 1.419 . S
C3582 C3583 1.362 . S
C3583 H3573 0.930 . S
C3583 C3576 1.409 . S
C3583 C3582 1.362 . S
H3584 C3590 0.930 . S
H3585 C3593 0.930 . S
H3586 C3594 0.930 . S
H3587 C3595 0.930 . S
H3588 C3598 0.930 . S
H3589 C3599 0.930 . S
C3590 H3584 0.930 . S
C3590 C3591 1.355 . S
C3590 C3592 1.415 . S
C3591 C3590 1.355 . S
C3591 C3593 1.419 . S
C3592 C3590 1.415 . S
C3592 C3597 1.425 . S
C3592 C3599 1.409 . S
C3593 H3585 0.930 . S
C3593 C3591 1.419 . S
C3593 C3594 1.362 . S
C3594 H3586 0.930 . S
C3594 C3593 1.362 . S
C3594 C3597 1.409 . S
C3595 H3587 0.930 . S
C3595 C3596 1.355 . S
C3595 C3597 1.415 . S
C3596 C3595 1.355 . S
C3596 C3598 1.419 . S
C3597 C3592 1.425 . S
C3597 C3594 1.409 . S
C3597 C3595 1.415 . S
C3598 H3588 0.930 . S
C3598 C3596 1.419 . S
C3598 C3599 1.362 . S
C3599 H3589 0.930 . S
C3599 C3592 1.409 . S
C3599 C3598 1.362 . S
H3600 C3606 0.930 . S
H3601 C3609 0.930 . S
H3602 C3610 0.930 . S
H3603 C3611 0.930 . S
H3604 C3614 0.930 . S
H3605 C3615 0.930 . S
C3606 H3600 0.930 . S
C3606 C3607 1.355 . S
C3606 C3608 1.415 . S
C3607 C3606 1.355 . S
C3607 C3609 1.419 . S
C3608 C3606 1.415 . S
C3608 C3613 1.425 . S
C3608 C3615 1.409 . S
C3609 H3601 0.930 . S
C3609 C3607 1.419 . S
C3609 C3610 1.362 . S
C3610 H3602 0.930 . S
C3610 C3609 1.362 . S
C3610 C3613 1.409 . S
C3611 H3603 0.930 . S
C3611 C3612 1.355 . S
C3611 C3613 1.415 . S
C3612 C3611 1.355 . S
C3612 C3614 1.419 . S
C3613 C3608 1.425 . S
C3613 C3610 1.409 . S
C3613 C3611 1.415 . S
C3614 H3604 0.930 . S
C3614 C3612 1.419 . S
C3614 C3615 1.362 . S
C3615 H3605 0.930 . S
C3615 C3608 1.409 . S
C3615 C3614 1.362 . S
H3616 C3622 0.930 . S
H3617 C3625 0.930 . S
H3618 C3626 0.930 . S
H3619 C3627 0.930 . S
H3620 C3630 0.930 . S
H3621 C3631 0.930 . S
C3622 H3616 0.930 . S
C3622 C3623 1.355 . S
C3622 C3624 1.415 . S
C3623 C3622 1.355 . S
C3623 C3625 1.419 . S
C3624 C3622 1.415 . S
C3624 C3629 1.425 . S
C3624 C3631 1.409 . S
C3625 H3617 0.930 . S
C3625 C3623 1.419 . S
C3625 C3626 1.362 . S
C3626 H3618 0.930 . S
C3626 C3625 1.362 . S
C3626 C3629 1.409 . S
C3627 H3619 0.930 . S
C3627 C3628 1.355 . S
C3627 C3629 1.415 . S
C3628 C3627 1.355 . S
C3628 C3630 1.419 . S
C3629 C3624 1.425 . S
C3629 C3626 1.409 . S
C3629 C3627 1.415 . S
C3630 H3620 0.930 . S
C3630 C3628 1.419 . S
C3630 C3631 1.362 . S
C3631 H3621 0.930 . S
C3631 C3624 1.409 . S
C3631 C3630 1.362 . S
H3632 C3638 0.930 . S
H3633 C3641 0.930 . S
H3634 C3642 0.930 . S
H3635 C3643 0.930 . S
H3636 C3646 0.930 . S
H3637 C3647 0.930 . S
C3638 H3632 0.930 . S
C3638 C3639 1.355 . S
C3638 C3640 1.415 . S
C3639 C3638 1.355 . S
C3639 C3641 1.419 . S
C3640 C3638 1.415 . S
C3640 C3645 1.425 . S
C3640 C3647 1.409 . S
C3641 H3633 0.930 . S
C3641 C3639 1.419 . S
C3641 C3642 1.362 . S
C3642 H3634 0.930 . S
C3642 C3641 1.362 . S
C3642 C3645 1.409 . S
C3643 H3635 0.930 . S
C3643 C3644 1.355 . S
C3643 C3645 1.415 . S
C3644 C3643 1.355 . S
C3644 C3646 1.419 . S
C3645 C3640 1.425 . S
C3645 C3642 1.409 . S
C3645 C3643 1.415 . S
C3646 H3636 0.930 . S
C3646 C3644 1.419 . S
C3646 C3647 1.362 . S
C3647 H3637 0.930 . S
C3647 C3640 1.409 . S
C3647 C3646 1.362 . S
H3648 C3654 0.930 . S
H3649 C3657 0.930 . S
H3650 C3658 0.930 . S
H3651 C3659 0.930 . S
H3652 C3662 0.930 . S
H3653 C3663 0.930 . S
C3654 H3648 0.930 . S
C3654 C3655 1.355 . S
C3654 C3656 1.415 . S
C3655 C3654 1.355 . S
C3655 C3657 1.419 . S
C3656 C3654 1.415 . S
C3656 C3661 1.425 . S
C3656 C3663 1.409 . S
C3657 H3649 0.930 . S
C3657 C3655 1.419 . S
C3657 C3658 1.362 . S
C3658 H3650 0.930 . S
C3658 C3657 1.362 . S
C3658 C3661 1.409 . S
C3659 H3651 0.930 . S
C3659 C3660 1.355 . S
C3659 C3661 1.415 . S
C3660 C3659 1.355 . S
C3660 C3662 1.419 . S
C3661 C3656 1.425 . S
C3661 C3658 1.409 . S
C3661 C3659 1.415 . S
C3662 H3652 0.930 . S
C3662 C3660 1.419 . S
C3662 C3663 1.362 . S
C3663 H3653 0.930 . S
C3663 C3656 1.409 . S
C3663 C3662 1.362 . S
H3664 C3670 0.930 . S
H3665 C3673 0.930 . S
H3666 C3674 0.930 . S
H3667 C3675 0.930 . S
H3668 C3678 0.930 . S
H3669 C3679 0.930 . S
C3670 H3664 0.930 . S
C3670 C3671 1.355 . S
C3670 C3672 1.415 . S
C3671 C3670 1.355 . S
C3671 C3673 1.419 . S
C3672 C3670 1.415 . S
C3672 C3677 1.425 . S
C3672 C3679 1.409 . S
C3673 H3665 0.930 . S
C3673 C3671 1.419 . S
C3673 C3674 1.362 . S
C3674 H3666 0.930 . S
C3674 C3673 1.362 . S
C3674 C3677 1.409 . S
C3675 H3667 0.930 . S
C3675 C3676 1.355 . S
C3675 C3677 1.415 . S
C3676 C3675 1.355 . S
C3676 C3678 1.419 . S
C3677 C3672 1.425 . S
C3677 C3674 1.409 . S
C3677 C3675 1.415 . S
C3678 H3668 0.930 . S
C3678 C3676 1.419 . S
C3678 C3679 1.362 . S
C3679 H3669 0.930 . S
C3679 C3672 1.409 . S
C3679 C3678 1.362 . S
H3680 C3686 0.930 . S
H3681 C3689 0.930 . S
H3682 C3690 0.930 . S
H3683 C3691 0.930 . S
H3684 C3694 0.930 . S
H3685 C3695 0.930 . S
C3686 H3680 0.930 . S
C3686 C3687 1.355 . S
C3686 C3688 1.415 . S
C3687 C3686 1.355 . S
C3687 C3689 1.419 . S
C3688 C3686 1.415 . S
C3688 C3693 1.425 . S
C3688 C3695 1.409 . S
C3689 H3681 0.930 . S
C3689 C3687 1.419 . S
C3689 C3690 1.362 . S
C3690 H3682 0.930 . S
C3690 C3689 1.362 . S
C3690 C3693 1.409 . S
C3691 H3683 0.930 . S
C3691 C3692 1.355 . S
C3691 C3693 1.415 . S
C3692 C3691 1.355 . S
C3692 C3694 1.419 . S
C3693 C3688 1.425 . S
C3693 C3690 1.409 . S
C3693 C3691 1.415 . S
C3694 H3684 0.930 . S
C3694 C3692 1.419 . S
C3694 C3695 1.362 . S
C3695 H3685 0.930 . S
C3695 C3688 1.409 . S
C3695 C3694 1.362 . S
H3696 C3702 0.930 . S
H3697 C3705 0.930 . S
H3698 C3706 0.930 . S
H3699 C3707 0.930 . S
H3700 C3710 0.930 . S
H3701 C3711 0.930 . S
C3702 H3696 0.930 . S
C3702 C3703 1.355 . S
C3702 C3704 1.415 . S
C3703 C3702 1.355 . S
C3703 C3705 1.419 . S
C3704 C3702 1.415 . S
C3704 C3709 1.425 . S
C3704 C3711 1.409 . S
C3705 H3697 0.930 . S
C3705 C3703 1.419 . S
C3705 C3706 1.362 . S
C3706 H3698 0.930 . S
C3706 C3705 1.362 . S
C3706 C3709 1.409 . S
C3707 H3699 0.930 . S
C3707 C3708 1.355 . S
C3707 C3709 1.415 . S
C3708 C3707 1.355 . S
C3708 C3710 1.419 . S
C3709 C3704 1.425 . S
C3709 C3706 1.409 . S
C3709 C3707 1.415 . S
C3710 H3700 0.930 . S
C3710 C3708 1.419 . S
C3710 C3711 1.362 . S
C3711 H3701 0.930 . S
C3711 C3704 1.409 . S
C3711 C3710 1.362 . S
H3712 C3718 0.930 . S
H3713 C3721 0.930 . S
H3714 C3722 0.930 . S
H3715 C3723 0.930 . S
H3716 C3726 0.930 . S
H3717 C3727 0.930 . S
C3718 H3712 0.930 . S
C3718 C3719 1.355 . S
C3718 C3720 1.415 . S
C3719 C3718 1.355 . S
C3719 C3721 1.419 . S
C3720 C3718 1.415 . S
C3720 C3725 1.425 . S
C3720 C3727 1.409 . S
C3721 H3713 0.930 . S
C3721 C3719 1.419 . S
C3721 C3722 1.362 . S
C3722 H3714 0.930 . S
C3722 C3721 1.362 . S
C3722 C3725 1.409 . S
C3723 H3715 0.930 . S
C3723 C3724 1.355 . S
C3723 C3725 1.415 . S
C3724 C3723 1.355 . S
C3724 C3726 1.419 . S
C3725 C3720 1.425 . S
C3725 C3722 1.409 . S
C3725 C3723 1.415 . S
C3726 H3716 0.930 . S
C3726 C3724 1.419 . S
C3726 C3727 1.362 . S
C3727 H3717 0.930 . S
C3727 C3720 1.409 . S
C3727 C3726 1.362 . S
H3728 C3734 0.930 . S
H3729 C3737 0.930 . S
H3730 C3738 0.930 . S
H3731 C3739 0.930 . S
H3732 C3742 0.930 . S
H3733 C3743 0.930 . S
C3734 H3728 0.930 . S
C3734 C3735 1.355 . S
C3734 C3736 1.415 . S
C3735 C3734 1.355 . S
C3735 C3737 1.419 . S
C3736 C3734 1.415 . S
C3736 C3741 1.425 . S
C3736 C3743 1.409 . S
C3737 H3729 0.930 . S
C3737 C3735 1.419 . S
C3737 C3738 1.362 . S
C3738 H3730 0.930 . S
C3738 C3737 1.362 . S
C3738 C3741 1.409 . S
C3739 H3731 0.930 . S
C3739 C3740 1.355 . S
C3739 C3741 1.415 . S
C3740 C3739 1.355 . S
C3740 C3742 1.419 . S
C3741 C3736 1.425 . S
C3741 C3738 1.409 . S
C3741 C3739 1.415 . S
C3742 H3732 0.930 . S
C3742 C3740 1.419 . S
C3742 C3743 1.362 . S
C3743 H3733 0.930 . S
C3743 C3736 1.409 . S
C3743 C3742 1.362 . S
H3744 C3750 0.930 . S
H3745 C3753 0.930 . S
H3746 C3754 0.930 . S
H3747 C3755 0.930 . S
H3748 C3758 0.930 . S
H3749 C3759 0.930 . S
C3750 H3744 0.930 . S
C3750 C3751 1.355 . S
C3750 C3752 1.415 . S
C3751 C3750 1.355 . S
C3751 C3753 1.419 . S
C3752 C3750 1.415 . S
C3752 C3757 1.425 . S
C3752 C3759 1.409 . S
C3753 H3745 0.930 . S
C3753 C3751 1.419 . S
C3753 C3754 1.362 . S
C3754 H3746 0.930 . S
C3754 C3753 1.362 . S
C3754 C3757 1.409 . S
C3755 H3747 0.930 . S
C3755 C3756 1.355 . S
C3755 C3757 1.415 . S
C3756 C3755 1.355 . S
C3756 C3758 1.419 . S
C3757 C3752 1.425 . S
C3757 C3754 1.409 . S
C3757 C3755 1.415 . S
C3758 H3748 0.930 . S
C3758 C3756 1.419 . S
C3758 C3759 1.362 . S
C3759 H3749 0.930 . S
C3759 C3752 1.409 . S
C3759 C3758 1.362 . S
H3760 C3766 0.930 . S
H3761 C3769 0.930 . S
H3762 C3770 0.930 . S
H3763 C3771 0.930 . S
H3764 C3774 0.930 . S
H3765 C3775 0.930 . S
C3766 H3760 0.930 . S
C3766 C3767 1.355 . S
C3766 C3768 1.415 . S
C3767 C3766 1.355 . S
C3767 C3769 1.419 . S
C3768 C3766 1.415 . S
C3768 C3773 1.425 . S
C3768 C3775 1.409 . S
C3769 H3761 0.930 . S
C3769 C3767 1.419 . S
C3769 C3770 1.362 . S
C3770 H3762 0.930 . S
C3770 C3769 1.362 . S
C3770 C3773 1.409 . S
C3771 H3763 0.930 . S
C3771 C3772 1.355 . S
C3771 C3773 1.415 . S
C3772 C3771 1.355 . S
C3772 C3774 1.419 . S
C3773 C3768 1.425 . S
C3773 C3770 1.409 . S
C3773 C3771 1.415 . S
C3774 H3764 0.930 . S
C3774 C3772 1.419 . S
C3774 C3775 1.362 . S
C3775 H3765 0.930 . S
C3775 C3768 1.409 . S
C3775 C3774 1.362 . S
H3776 C3782 0.930 . S
H3777 C3785 0.930 . S
H3778 C3786 0.930 . S
H3779 C3787 0.930 . S
H3780 C3790 0.930 . S
H3781 C3791 0.930 . S
C3782 H3776 0.930 . S
C3782 C3783 1.355 . S
C3782 C3784 1.415 . S
C3783 C3782 1.355 . S
C3783 C3785 1.419 . S
C3784 C3782 1.415 . S
C3784 C3789 1.425 . S
C3784 C3791 1.409 . S
C3785 H3777 0.930 . S
C3785 C3783 1.419 . S
C3785 C3786 1.362 . S
C3786 H3778 0.930 . S
C3786 C3785 1.362 . S
C3786 C3789 1.409 . S
C3787 H3779 0.930 . S
C3787 C3788 1.355 . S
C3787 C3789 1.415 . S
C3788 C3787 1.355 . S
C3788 C3790 1.419 . S
C3789 C3784 1.425 . S
C3789 C3786 1.409 . S
C3789 C3787 1.415 . S
C3790 H3780 0.930 . S
C3790 C3788 1.419 . S
C3790 C3791 1.362 . S
C3791 H3781 0.930 . S
C3791 C3784 1.409 . S
C3791 C3790 1.362 . S
H3792 C3798 0.930 . S
H3793 C3801 0.930 . S
H3794 C3802 0.930 . S
H3795 C3803 0.930 . S
H3796 C3806 0.930 . S
H3797 C3807 0.930 . S
C3798 H3792 0.930 . S
C3798 C3799 1.355 . S
C3798 C3800 1.415 . S
C3799 C3798 1.355 . S
C3799 C3801 1.419 . S
C3800 C3798 1.415 . S
C3800 C3805 1.425 . S
C3800 C3807 1.409 . S
C3801 H3793 0.930 . S
C3801 C3799 1.419 . S
C3801 C3802 1.362 . S
C3802 H3794 0.930 . S
C3802 C3801 1.362 . S
C3802 C3805 1.409 . S
C3803 H3795 0.930 . S
C3803 C3804 1.355 . S
C3803 C3805 1.415 . S
C3804 C3803 1.355 . S
C3804 C3806 1.419 . S
C3805 C3800 1.425 . S
C3805 C3802 1.409 . S
C3805 C3803 1.415 . S
C3806 H3796 0.930 . S
C3806 C3804 1.419 . S
C3806 C3807 1.362 . S
C3807 H3797 0.930 . S
C3807 C3800 1.409 . S
C3807 C3806 1.362 . S
H3808 C3814 0.930 . S
H3809 C3817 0.930 . S
H3810 C3818 0.930 . S
H3811 C3819 0.930 . S
H3812 C3822 0.930 . S
H3813 C3823 0.930 . S
C3814 H3808 0.930 . S
C3814 C3815 1.355 . S
C3814 C3816 1.415 . S
C3815 C3814 1.355 . S
C3815 C3817 1.419 . S
C3816 C3814 1.415 . S
C3816 C3821 1.425 . S
C3816 C3823 1.409 . S
C3817 H3809 0.930 . S
C3817 C3815 1.419 . S
C3817 C3818 1.362 . S
C3818 H3810 0.930 . S
C3818 C3817 1.362 . S
C3818 C3821 1.409 . S
C3819 H3811 0.930 . S
C3819 C3820 1.355 . S
C3819 C3821 1.415 . S
C3820 C3819 1.355 . S
C3820 C3822 1.419 . S
C3821 C3816 1.425 . S
C3821 C3818 1.409 . S
C3821 C3819 1.415 . S
C3822 H3812 0.930 . S
C3822 C3820 1.419 . S
C3822 C3823 1.362 . S
C3823 H3813 0.930 . S
C3823 C3816 1.409 . S
C3823 C3822 1.362 . S
H3824 C3830 0.930 . S
H3825 C3833 0.930 . S
H3826 C3834 0.930 . S
H3827 C3835 0.930 . S
H3828 C3838 0.930 . S
H3829 C3839 0.930 . S
C3830 H3824 0.930 . S
C3830 C3831 1.355 . S
C3830 C3832 1.415 . S
C3831 C3830 1.355 . S
C3831 C3833 1.419 . S
C3832 C3830 1.415 . S
C3832 C3837 1.425 . S
C3832 C3839 1.409 . S
C3833 H3825 0.930 . S
C3833 C3831 1.419 . S
C3833 C3834 1.362 . S
C3834 H3826 0.930 . S
C3834 C3833 1.362 . S
C3834 C3837 1.409 . S
C3835 H3827 0.930 . S
C3835 C3836 1.355 . S
C3835 C3837 1.415 . S
C3836 C3835 1.355 . S
C3836 C3838 1.419 . S
C3837 C3832 1.425 . S
C3837 C3834 1.409 . S
C3837 C3835 1.415 . S
C3838 H3828 0.930 . S
C3838 C3836 1.419 . S
C3838 C3839 1.362 . S
C3839 H3829 0.930 . S
C3839 C3832 1.409 . S
C3839 C3838 1.362 . S
H3840 C3846 0.930 . S
H3841 C3849 0.930 . S
H3842 C3850 0.930 . S
H3843 C3851 0.930 . S
H3844 C3854 0.930 . S
H3845 C3855 0.930 . S
C3846 H3840 0.930 . S
C3846 C3847 1.355 . S
C3846 C3848 1.415 . S
C3847 C3846 1.355 . S
C3847 C3849 1.419 . S
C3848 C3846 1.415 . S
C3848 C3853 1.425 . S
C3848 C3855 1.409 . S
C3849 H3841 0.930 . S
C3849 C3847 1.419 . S
C3849 C3850 1.362 . S
C3850 H3842 0.930 . S
C3850 C3849 1.362 . S
C3850 C3853 1.409 . S
C3851 H3843 0.930 . S
C3851 C3852 1.355 . S
C3851 C3853 1.415 . S
C3852 C3851 1.355 . S
C3852 C3854 1.419 . S
C3853 C3848 1.425 . S
C3853 C3850 1.409 . S
C3853 C3851 1.415 . S
C3854 H3844 0.930 . S
C3854 C3852 1.419 . S
C3854 C3855 1.362 . S
C3855 H3845 0.930 . S
C3855 C3848 1.409 . S
C3855 C3854 1.362 . S
H3856 C3862 0.930 . S
H3857 C3865 0.930 . S
H3858 C3866 0.930 . S
H3859 C3867 0.930 . S
H3860 C3870 0.930 . S
H3861 C3871 0.930 . S
C3862 H3856 0.930 . S
C3862 C3863 1.355 . S
C3862 C3864 1.415 . S
C3863 C3862 1.355 . S
C3863 C3865 1.419 . S
C3864 C3862 1.415 . S
C3864 C3869 1.425 . S
C3864 C3871 1.409 . S
C3865 H3857 0.930 . S
C3865 C3863 1.419 . S
C3865 C3866 1.362 . S
C3866 H3858 0.930 . S
C3866 C3865 1.362 . S
C3866 C3869 1.409 . S
C3867 H3859 0.930 . S
C3867 C3868 1.355 . S
C3867 C3869 1.415 . S
C3868 C3867 1.355 . S
C3868 C3870 1.419 . S
C3869 C3864 1.425 . S
C3869 C3866 1.409 . S
C3869 C3867 1.415 . S
C3870 H3860 0.930 . S
C3870 C3868 1.419 . S
C3870 C3871 1.362 . S
C3871 H3861 0.930 . S
C3871 C3864 1.409 . S
C3871 C3870 1.362 . S
H3872 C3878 0.930 . S
H3873 C3881 0.930 . S
H3874 C3882 0.930 . S
H3875 C3883 0.930 . S
H3876 C3886 0.930 . S
H3877 C3887 0.930 . S
C3878 H3872 0.930 . S
C3878 C3879 1.355 . S
C3878 C3880 1.415 . S
C3879 C3878 1.355 . S
C3879 C3881 1.419 . S
C3880 C3878 1.415 . S
C3880 C3885 1.425 . S
C3880 C3887 1.409 . S
C3881 H3873 0.930 . S
C3881 C3879 1.419 . S
C3881 C3882 1.362 . S
C3882 H3874 0.930 . S
C3882 C3881 1.362 . S
C3882 C3885 1.409 . S
C3883 H3875 0.930 . S
C3883 C3884 1.355 . S
C3883 C3885 1.415 . S
C3884 C3883 1.355 . S
C3884 C3886 1.419 . S
C3885 C3880 1.425 . S
C3885 C3882 1.409 . S
C3885 C3883 1.415 . S
C3886 H3876 0.930 . S
C3886 C3884 1.419 . S
C3886 C3887 1.362 . S
C3887 H3877 0.930 . S
C3887 C3880 1.409 . S
C3887 C3886 1.362 . S
H3888 C3894 0.930 . S
H3889 C3897 0.930 . S
H3890 C3898 0.930 . S
H3891 C3899 0.930 . S
H3892 C3902 0.930 . S
H3893 C3903 0.930 . S
C3894 H3888 0.930 . S
C3894 C3895 1.355 . S
C3894 C3896 1.415 . S
C3895 C3894 1.355 . S
C3895 C3897 1.419 . S
C3896 C3894 1.415 . S
C3896 C3901 1.425 . S
C3896 C3903 1.409 . S
C3897 H3889 0.930 . S
C3897 C3895 1.419 . S
C3897 C3898 1.362 . S
C3898 H3890 0.930 . S
C3898 C3897 1.362 . S
C3898 C3901 1.409 . S
C3899 H3891 0.930 . S
C3899 C3900 1.355 . S
C3899 C3901 1.415 . S
C3900 C3899 1.355 . S
C3900 C3902 1.419 . S
C3901 C3896 1.425 . S
C3901 C3898 1.409 . S
C3901 C3899 1.415 . S
C3902 H3892 0.930 . S
C3902 C3900 1.419 . S
C3902 C3903 1.362 . S
C3903 H3893 0.930 . S
C3903 C3896 1.409 . S
C3903 C3902 1.362 . S
H3904 C3910 0.930 . S
H3905 C3913 0.930 . S
H3906 C3914 0.930 . S
H3907 C3915 0.930 . S
H3908 C3918 0.930 . S
H3909 C3919 0.930 . S
C3910 H3904 0.930 . S
C3910 C3911 1.355 . S
C3910 C3912 1.415 . S
C3911 C3910 1.355 . S
C3911 C3913 1.419 . S
C3912 C3910 1.415 . S
C3912 C3917 1.425 . S
C3912 C3919 1.409 . S
C3913 H3905 0.930 . S
C3913 C3911 1.419 . S
C3913 C3914 1.362 . S
C3914 H3906 0.930 . S
C3914 C3913 1.362 . S
C3914 C3917 1.409 . S
C3915 H3907 0.930 . S
C3915 C3916 1.355 . S
C3915 C3917 1.415 . S
C3916 C3915 1.355 . S
C3916 C3918 1.419 . S
C3917 C3912 1.425 . S
C3917 C3914 1.409 . S
C3917 C3915 1.415 . S
C3918 H3908 0.930 . S
C3918 C3916 1.419 . S
C3918 C3919 1.362 . S
C3919 H3909 0.930 . S
C3919 C3912 1.409 . S
C3919 C3918 1.362 . S
H3920 C3926 0.930 . S
H3921 C3929 0.930 . S
H3922 C3930 0.930 . S
H3923 C3931 0.930 . S
H3924 C3934 0.930 . S
H3925 C3935 0.930 . S
C3926 H3920 0.930 . S
C3926 C3927 1.355 . S
C3926 C3928 1.415 . S
C3927 C3926 1.355 . S
C3927 C3929 1.419 . S
C3928 C3926 1.415 . S
C3928 C3933 1.425 . S
C3928 C3935 1.409 . S
C3929 H3921 0.930 . S
C3929 C3927 1.419 . S
C3929 C3930 1.362 . S
C3930 H3922 0.930 . S
C3930 C3929 1.362 . S
C3930 C3933 1.409 . S
C3931 H3923 0.930 . S
C3931 C3932 1.355 . S
C3931 C3933 1.415 . S
C3932 C3931 1.355 . S
C3932 C3934 1.419 . S
C3933 C3928 1.425 . S
C3933 C3930 1.409 . S
C3933 C3931 1.415 . S
C3934 H3924 0.930 . S
C3934 C3932 1.419 . S
C3934 C3935 1.362 . S
C3935 H3925 0.930 . S
C3935 C3928 1.409 . S
C3935 C3934 1.362 . S
H3936 C3942 0.930 . S
H3937 C3945 0.930 . S
H3938 C3946 0.930 . S
H3939 C3947 0.930 . S
H3940 C3950 0.930 . S
H3941 C3951 0.930 . S
C3942 H3936 0.930 . S
C3942 C3943 1.355 . S
C3942 C3944 1.415 . S
C3943 C3942 1.355 . S
C3943 C3945 1.419 . S
C3944 C3942 1.415 . S
C3944 C3949 1.425 . S
C3944 C3951 1.409 . S
C3945 H3937 0.930 . S
C3945 C3943 1.419 . S
C3945 C3946 1.362 . S
C3946 H3938 0.930 . S
C3946 C3945 1.362 . S
C3946 C3949 1.409 . S
C3947 H3939 0.930 . S
C3947 C3948 1.355 . S
C3947 C3949 1.415 . S
C3948 C3947 1.355 . S
C3948 C3950 1.419 . S
C3949 C3944 1.425 . S
C3949 C3946 1.409 . S
C3949 C3947 1.415 . S
C3950 H3940 0.930 . S
C3950 C3948 1.419 . S
C3950 C3951 1.362 . S
C3951 H3941 0.930 . S
C3951 C3944 1.409 . S
C3951 C3950 1.362 . S
H3952 C3958 0.930 . S
H3953 C3961 0.930 . S
H3954 C3962 0.930 . S
H3955 C3963 0.930 . S
H3956 C3966 0.930 . S
H3957 C3967 0.930 . S
C3958 H3952 0.930 . S
C3958 C3959 1.355 . S
C3958 C3960 1.415 . S
C3959 C3958 1.355 . S
C3959 C3961 1.419 . S
C3960 C3958 1.415 . S
C3960 C3965 1.425 . S
C3960 C3967 1.409 . S
C3961 H3953 0.930 . S
C3961 C3959 1.419 . S
C3961 C3962 1.362 . S
C3962 H3954 0.930 . S
C3962 C3961 1.362 . S
C3962 C3965 1.409 . S
C3963 H3955 0.930 . S
C3963 C3964 1.355 . S
C3963 C3965 1.415 . S
C3964 C3963 1.355 . S
C3964 C3966 1.419 . S
C3965 C3960 1.425 . S
C3965 C3962 1.409 . S
C3965 C3963 1.415 . S
C3966 H3956 0.930 . S
C3966 C3964 1.419 . S
C3966 C3967 1.362 . S
C3967 H3957 0.930 . S
C3967 C3960 1.409 . S
C3967 C3966 1.362 . S
H3968 C3974 0.930 . S
H3969 C3977 0.930 . S
H3970 C3978 0.930 . S
H3971 C3979 0.930 . S
H3972 C3982 0.930 . S
H3973 C3983 0.930 . S
C3974 H3968 0.930 . S
C3974 C3975 1.355 . S
C3974 C3976 1.415 . S
C3975 C3974 1.355 . S
C3975 C3977 1.419 . S
C3976 C3974 1.415 . S
C3976 C3981 1.425 . S
C3976 C3983 1.409 . S
C3977 H3969 0.930 . S
C3977 C3975 1.419 . S
C3977 C3978 1.362 . S
C3978 H3970 0.930 . S
C3978 C3977 1.362 . S
C3978 C3981 1.409 . S
C3979 H3971 0.930 . S
C3979 C3980 1.355 . S
C3979 C3981 1.415 . S
C3980 C3979 1.355 . S
C3980 C3982 1.419 . S
C3981 C3976 1.425 . S
C3981 C3978 1.409 . S
C3981 C3979 1.415 . S
C3982 H3972 0.930 . S
C3982 C3980 1.419 . S
C3982 C3983 1.362 . S
C3983 H3973 0.930 . S
C3983 C3976 1.409 . S
C3983 C3982 1.362 . S
H3984 C3990 0.930 . S
H3985 C3993 0.930 . S
H3986 C3994 0.930 . S
H3987 C3995 0.930 . S
H3988 C3998 0.930 . S
H3989 C3999 0.930 . S
C3990 H3984 0.930 . S
C3990 C3991 1.355 . S
C3990 C3992 1.415 . S
C3991 C3990 1.355 . S
C3991 C3993 1.419 . S
C3992 C3990 1.415 . S
C3992 C3997 1.425 . S
C3992 C3999 1.409 . S
C3993 H3985 0.930 . S
C3993 C3991 1.419 . S
C3993 C3994 1.362 . S
C3994 H3986 0.930 . S
C3994 C3993 1.362 . S
C3994 C3997 1.409 . S
C3995 H3987 0.930 . S
C3995 C3996 1.355 . S
C3995 C3997 1.415 . S
C3996 C3995 1.355 . S
C3996 C3998 1.419 . S
C3997 C3992 1.425 . S
C3997 C3994 1.409 . S
C3997 C3995 1.415 . S
C3998 H3988 0.930 . S
C3998 C3996 1.419 . S
C3998 C3999 1.362 . S
C3999 H3989 0.930 . S
C3999 C3992 1.409 . S
C3999 C3998 1.362 . S
H4000 C4006 0.930 . S
H4001 C4009 0.930 . S
H4002 C4010 0.930 . S
H4003 C4011 0.930 . S
H4004 C4014 0.930 . S
H4005 C4015 0.930 . S
C4006 H4000 0.930 . S
C4006 C4007 1.355 . S
C4006 C4008 1.415 . S
C4007 C4006 1.355 . S
C4007 C4009 1.419 . S
C4008 C4006 1.415 . S
C4008 C4013 1.425 . S
C4008 C4015 1.409 . S
C4009 H4001 0.930 . S
C4009 C4007 1.419 . S
C4009 C4010 1.362 . S
C4010 H4002 0.930 . S
C4010 C4009 1.362 . S
C4010 C4013 1.409 . S
C4011 H4003 0.930 . S
C4011 C4012 1.355 . S
C4011 C4013 1.415 . S
C4012 C4011 1.355 . S
C4012 C4014 1.419 . S
C4013 C4008 1.425 . S
C4013 C4010 1.409 . S
C4013 C4011 1.415 . S
C4014 H4004 0.930 . S
C4014 C4012 1.419 . S
C4014 C4015 1.362 . S
C4015 H4005 0.930 . S
C4015 C4008 1.409 . S
C4015 C4014 1.362 . S
H4016 C4022 0.930 . S
H4017 C4025 0.930 . S
H4018 C4026 0.930 . S
H4019 C4027 0.930 . S
H4020 C4030 0.930 . S
H4021 C4031 0.930 . S
C4022 H4016 0.930 . S
C4022 C4023 1.355 . S
C4022 C4024 1.415 . S
C4023 C4022 1.355 . S
C4023 C4025 1.419 . S
C4024 C4022 1.415 . S
C4024 C4029 1.425 . S
C4024 C4031 1.409 . S
C4025 H4017 0.930 . S
C4025 C4023 1.419 . S
C4025 C4026 1.362 . S
C4026 H4018 0.930 . S
C4026 C4025 1.362 . S
C4026 C4029 1.409 . S
C4027 H4019 0.930 . S
C4027 C4028 1.355 . S
C4027 C4029 1.415 . S
C4028 C4027 1.355 . S
C4028 C4030 1.419 . S
C4029 C4024 1.425 . S
C4029 C4026 1.409 . S
C4029 C4027 1.415 . S
C4030 H4020 0.930 . S
C4030 C4028 1.419 . S
C4030 C4031 1.362 . S
C4031 H4021 0.930 . S
C4031 C4024 1.409 . S
C4031 C4030 1.362 . S
H4032 C4038 0.930 . S
H4033 C4041 0.930 . S
H4034 C4042 0.930 . S
H4035 C4043 0.930 . S
H4036 C4046 0.930 . S
H4037 C4047 0.930 . S
C4038 H4032 0.930 . S
C4038 C4039 1.355 . S
C4038 C4040 1.415 . S
C4039 C4038 1.355 . S
C4039 C4041 1.419 . S
C4040 C4038 1.415 . S
C4040 C4045 1.425 . S
C4040 C4047 1.409 . S
C4041 H4033 0.930 . S
C4041 C4039 1.419 . S
C4041 C4042 1.362 . S
C4042 H4034 0.930 . S
C4042 C4041 1.362 . S
C4042 C4045 1.409 . S
C4043 H4035 0.930 . S
C4043 C4044 1.355 . S
C4043 C4045 1.415 . S
C4044 C4043 1.355 . S
C4044 C4046 1.419 . S
C4045 C4040 1.425 . S
C4045 C4042 1.409 . S
C4045 C4043 1.415 . S
C4046 H4036 0.930 . S
C4046 C4044 1.419 . S
C4046 C4047 1.362 . S
C4047 H4037 0.930 . S
C4047 C4040 1.409 . S
C4047 C4046 1.362 . S
H4048 C4054 0.930 . S
H4049 C4057 0.930 . S
H4050 C4058 0.930 . S
H4051 C4059 0.930 . S
H4052 C4062 0.930 . S
H4053 C4063 0.930 . S
C4054 H4048 0.930 . S
C4054 C4055 1.355 . S
C4054 C4056 1.415 . S
C4055 C4054 1.355 . S
C4055 C4057 1.419 . S
C4056 C4054 1.415 . S
C4056 C4061 1.425 . S
C4056 C4063 1.409 . S
C4057 H4049 0.930 . S
C4057 C4055 1.419 . S
C4057 C4058 1.362 . S
C4058 H4050 0.930 . S
C4058 C4057 1.362 . S
C4058 C4061 1.409 . S
C4059 H4051 0.930 . S
C4059 C4060 1.355 . S
C4059 C4061 1.415 . S
C4060 C4059 1.355 . S
C4060 C4062 1.419 . S
C4061 C4056 1.425 . S
C4061 C4058 1.409 . S
C4061 C4059 1.415 . S
C4062 H4052 0.930 . S
C4062 C4060 1.419 . S
C4062 C4063 1.362 . S
C4063 H4053 0.930 . S
C4063 C4056 1.409 . S
C4063 C4062 1.362 . S
H4064 C4070 0.930 . S
H4065 C4073 0.930 . S
H4066 C4074 0.930 . S
H4067 C4075 0.930 . S
H4068 C4078 0.930 . S
H4069 C4079 0.930 . S
C4070 H4064 0.930 . S
C4070 C4071 1.355 . S
C4070 C4072 1.415 . S
C4071 C4070 1.355 . S
C4071 C4073 1.419 . S
C4072 C4070 1.415 . S
C4072 C4077 1.425 . S
C4072 C4079 1.409 . S
C4073 H4065 0.930 . S
C4073 C4071 1.419 . S
C4073 C4074 1.362 . S
C4074 H4066 0.930 . S
C4074 C4073 1.362 . S
C4074 C4077 1.409 . S
C4075 H4067 0.930 . S
C4075 C4076 1.355 . S
C4075 C4077 1.415 . S
C4076 C4075 1.355 . S
C4076 C4078 1.419 . S
C4077 C4072 1.425 . S
C4077 C4074 1.409 . S
C4077 C4075 1.415 . S
C4078 H4068 0.930 . S
C4078 C4076 1.419 . S
C4078 C4079 1.362 . S
C4079 H4069 0.930 . S
C4079 C4072 1.409 . S
C4079 C4078 1.362 . S
H4080 C4086 0.930 . S
H4081 C4089 0.930 . S
H4082 C4090 0.930 . S
H4083 C4091 0.930 . S
H4084 C4094 0.930 . S
H4085 C4095 0.930 . S
C4086 H4080 0.930 . S
C4086 C4087 1.355 . S
C4086 C4088 1.415 . S
C4087 C4086 1.355 . S
C4087 C4089 1.419 . S
C4088 C4086 1.415 . S
C4088 C4093 1.425 . S
C4088 C4095 1.409 . S
C4089 H4081 0.930 . S
C4089 C4087 1.419 . S
C4089 C4090 1.362 . S
C4090 H4082 0.930 . S
C4090 C4089 1.362 . S
C4090 C4093 1.409 . S
C4091 H4083 0.930 . S
C4091 C4092 1.355 . S
C4091 C4093 1.415 . S
C4092 C4091 1.355 . S
C4092 C4094 1.419 . S
C4093 C4088 1.425 . S
C4093 C4090 1.409 . S
C4093 C4091 1.415 . S
C4094 H4084 0.930 . S
C4094 C4092 1.419 . S
C4094 C4095 1.362 . S
C4095 H4085 0.930 . S
C4095 C4088 1.409 . S
C4095 C4094 1.362 . S
H4096 C4102 0.930 . S
H4097 C4105 0.930 . S
H4098 C4106 0.930 . S
H4099 C4107 0.930 . S
H4100 C4110 0.930 . S
H4101 C4111 0.930 . S
C4102 H4096 0.930 . S
C4102 C4103 1.355 . S
C4102 C4104 1.415 . S
C4103 C4102 1.355 . S
C4103 C4105 1.419 . S
C4104 C4102 1.415 . S
C4104 C4109 1.425 . S
C4104 C4111 1.409 . S
C4105 H4097 0.930 . S
C4105 C4103 1.419 . S
C4105 C4106 1.362 . S
C4106 H4098 0.930 . S
C4106 C4105 1.362 . S
C4106 C4109 1.409 . S
C4107 H4099 0.930 . S
C4107 C4108 1.355 . S
C4107 C4109 1.415 . S
C4108 C4107 1.355 . S
C4108 C4110 1.419 . S
C4109 C4104 1.425 . S
C4109 C4106 1.409 . S
C4109 C4107 1.415 . S
C4110 H4100 0.930 . S
C4110 C4108 1.419 . S
C4110 C4111 1.362 . S
C4111 H4101 0.930 . S
C4111 C4104 1.409 . S
C4111 C4110 1.362 . S
H4112 C4118 0.930 . S
H4113 C4121 0.930 . S
H4114 C4122 0.930 . S
H4115 C4123 0.930 . S
H4116 C4126 0.930 . S
H4117 C4127 0.930 . S
C4118 H4112 0.930 . S
C4118 C4119 1.355 . S
C4118 C4120 1.415 . S
C4119 C4118 1.355 . S
C4119 C4121 1.419 . S
C4120 C4118 1.415 . S
C4120 C4125 1.425 . S
C4120 C4127 1.409 . S
C4121 H4113 0.930 . S
C4121 C4119 1.419 . S
C4121 C4122 1.362 . S
C4122 H4114 0.930 . S
C4122 C4121 1.362 . S
C4122 C4125 1.409 . S
C4123 H4115 0.930 . S
C4123 C4124 1.355 . S
C4123 C4125 1.415 . S
C4124 C4123 1.355 . S
C4124 C4126 1.419 . S
C4125 C4120 1.425 . S
C4125 C4122 1.409 . S
C4125 C4123 1.415 . S
C4126 H4116 0.930 . S
C4126 C4124 1.419 . S
C4126 C4127 1.362 . S
C4127 H4117 0.930 . S
C4127 C4120 1.409 . S
C4127 C4126 1.362 . S
H4128 C4134 0.930 . S
H4129 C4137 0.930 . S
H4130 C4138 0.930 . S
H4131 C4139 0.930 . S
H4132 C4142 0.930 . S
H4133 C4143 0.930 . S
C4134 H4128 0.930 . S
C4134 C4135 1.355 . S
C4134 C4136 1.415 . S
C4135 C4134 1.355 . S
C4135 C4137 1.419 . S
C4136 C4134 1.415 . S
C4136 C4141 1.425 . S
C4136 C4143 1.409 . S
C4137 H4129 0.930 . S
C4137 C4135 1.419 . S
C4137 C4138 1.362 . S
C4138 H4130 0.930 . S
C4138 C4137 1.362 . S
C4138 C4141 1.409 . S
C4139 H4131 0.930 . S
C4139 C4140 1.355 . S
C4139 C4141 1.415 . S
C4140 C4139 1.355 . S
C4140 C4142 1.419 . S
C4141 C4136 1.425 . S
C4141 C4138 1.409 . S
C4141 C4139 1.415 . S
C4142 H4132 0.930 . S
C4142 C4140 1.419 . S
C4142 C4143 1.362 . S
C4143 H4133 0.930 . S
C4143 C4136 1.409 . S
C4143 C4142 1.362 . S
H4144 C4150 0.930 . S
H4145 C4153 0.930 . S
H4146 C4154 0.930 . S
H4147 C4155 0.930 . S
H4148 C4158 0.930 . S
H4149 C4159 0.930 . S
C4150 H4144 0.930 . S
C4150 C4151 1.355 . S
C4150 C4152 1.415 . S
C4151 C4150 1.355 . S
C4151 C4153 1.419 . S
C4152 C4150 1.415 . S
C4152 C4157 1.425 . S
C4152 C4159 1.409 . S
C4153 H4145 0.930 . S
C4153 C4151 1.419 . S
C4153 C4154 1.362 . S
C4154 H4146 0.930 . S
C4154 C4153 1.362 . S
C4154 C4157 1.409 . S
C4155 H4147 0.930 . S
C4155 C4156 1.355 . S
C4155 C4157 1.415 . S
C4156 C4155 1.355 . S
C4156 C4158 1.419 . S
C4157 C4152 1.425 . S
C4157 C4154 1.409 . S
C4157 C4155 1.415 . S
C4158 H4148 0.930 . S
C4158 C4156 1.419 . S
C4158 C4159 1.362 . S
C4159 H4149 0.930 . S
C4159 C4152 1.409 . S
C4159 C4158 1.362 . S
H4160 C4166 0.930 . S
H4161 C4169 0.930 . S
H4162 C4170 0.930 . S
H4163 C4171 0.930 . S
H4164 C4174 0.930 . S
H4165 C4175 0.930 . S
C4166 H4160 0.930 . S
C4166 C4167 1.355 . S
C4166 C4168 1.415 . S
C4167 C4166 1.355 . S
C4167 C4169 1.419 . S
C4168 C4166 1.415 . S
C4168 C4173 1.425 . S
C4168 C4175 1.409 . S
C4169 H4161 0.930 . S
C4169 C4167 1.419 . S
C4169 C4170 1.362 . S
C4170 H4162 0.930 . S
C4170 C4169 1.362 . S
C4170 C4173 1.409 . S
C4171 H4163 0.930 . S
C4171 C4172 1.355 . S
C4171 C4173 1.415 . S
C4172 C4171 1.355 . S
C4172 C4174 1.419 . S
C4173 C4168 1.425 . S
C4173 C4170 1.409 . S
C4173 C4171 1.415 . S
C4174 H4164 0.930 . S
C4174 C4172 1.419 . S
C4174 C4175 1.362 . S
C4175 H4165 0.930 . S
C4175 C4168 1.409 . S
C4175 C4174 1.362 . S
H4176 C4182 0.930 . S
H4177 C4185 0.930 . S
H4178 C4186 0.930 . S
H4179 C4187 0.930 . S
H4180 C4190 0.930 . S
H4181 C4191 0.930 . S
C4182 H4176 0.930 . S
C4182 C4183 1.355 . S
C4182 C4184 1.415 . S
C4183 C4182 1.355 . S
C4183 C4185 1.419 . S
C4184 C4182 1.415 . S
C4184 C4189 1.425 . S
C4184 C4191 1.409 . S
C4185 H4177 0.930 . S
C4185 C4183 1.419 . S
C4185 C4186 1.362 . S
C4186 H4178 0.930 . S
C4186 C4185 1.362 . S
C4186 C4189 1.409 . S
C4187 H4179 0.930 . S
C4187 C4188 1.355 . S
C4187 C4189 1.415 . S
C4188 C4187 1.355 . S
C4188 C4190 1.419 . S
C4189 C4184 1.425 . S
C4189 C4186 1.409 . S
C4189 C4187 1.415 . S
C4190 H4180 0.930 . S
C4190 C4188 1.419 . S
C4190 C4191 1.362 . S
C4191 H4181 0.930 . S
C4191 C4184 1.409 . S
C4191 C4190 1.362 . S
H4192 C4198 0.930 . S
H4193 C4201 0.930 . S
H4194 C4202 0.930 . S
H4195 C4203 0.930 . S
H4196 C4206 0.930 . S
H4197 C4207 0.930 . S
C4198 H4192 0.930 . S
C4198 C4199 1.355 . S
C4198 C4200 1.415 . S
C4199 C4198 1.355 . S
C4199 C4201 1.419 . S
C4200 C4198 1.415 . S
C4200 C4205 1.425 . S
C4200 C4207 1.409 . S
C4201 H4193 0.930 . S
C4201 C4199 1.419 . S
C4201 C4202 1.362 . S
C4202 H4194 0.930 . S
C4202 C4201 1.362 . S
C4202 C4205 1.409 . S
C4203 H4195 0.930 . S
C4203 C4204 1.355 . S
C4203 C4205 1.415 . S
C4204 C4203 1.355 . S
C4204 C4206 1.419 . S
C4205 C4200 1.425 . S
C4205 C4202 1.409 . S
C4205 C4203 1.415 . S
C4206 H4196 0.930 . S
C4206 C4204 1.419 . S
C4206 C4207 1.362 . S
C4207 H4197 0.930 . S
C4207 C4200 1.409 . S
C4207 C4206 1.362 . S
H4208 C4214 0.930 . S
H4209 C4217 0.930 . S
H4210 C4218 0.930 . S
H4211 C4219 0.930 . S
H4212 C4222 0.930 . S
H4213 C4223 0.930 . S
C4214 H4208 0.930 . S
C4214 C4215 1.355 . S
C4214 C4216 1.415 . S
C4215 C4214 1.355 . S
C4215 C4217 1.419 . S
C4216 C4214 1.415 . S
C4216 C4221 1.425 . S
C4216 C4223 1.409 . S
C4217 H4209 0.930 . S
C4217 C4215 1.419 . S
C4217 C4218 1.362 . S
C4218 H4210 0.930 . S
C4218 C4217 1.362 . S
C4218 C4221 1.409 . S
C4219 H4211 0.930 . S
C4219 C4220 1.355 . S
C4219 C4221 1.415 . S
C4220 C4219 1.355 . S
C4220 C4222 1.419 . S
C4221 C4216 1.425 . S
C4221 C4218 1.409 . S
C4221 C4219 1.415 . S
C4222 H4212 0.930 . S
C4222 C4220 1.419 . S
C4222 C4223 1.362 . S
C4223 H4213 0.930 . S
C4223 C4216 1.409 . S
C4223 C4222 1.362 . S
H4224 C4230 0.930 . S
H4225 C4233 0.930 . S
H4226 C4234 0.930 . S
H4227 C4235 0.930 . S
H4228 C4238 0.930 . S
H4229 C4239 0.930 . S
C4230 H4224 0.930 . S
C4230 C4231 1.355 . S
C4230 C4232 1.415 . S
C4231 C4230 1.355 . S
C4231 C4233 1.419 . S
C4232 C4230 1.415 . S
C4232 C4237 1.425 . S
C4232 C4239 1.409 . S
C4233 H4225 0.930 . S
C4233 C4231 1.419 . S
C4233 C4234 1.362 . S
C4234 H4226 0.930 . S
C4234 C4233 1.362 . S
C4234 C4237 1.409 . S
C4235 H4227 0.930 . S
C4235 C4236 1.355 . S
C4235 C4237 1.415 . S
C4236 C4235 1.355 . S
C4236 C4238 1.419 . S
C4237 C4232 1.425 . S
C4237 C4234 1.409 . S
C4237 C4235 1.415 . S
C4238 H4228 0.930 . S
C4238 C4236 1.419 . S
C4238 C4239 1.362 . S
C4239 H4229 0.930 . S
C4239 C4232 1.409 . S
C4239 C4238 1.362 . S
H4240 C4246 0.930 . S
H4241 C4249 0.930 . S
H4242 C4250 0.930 . S
H4243 C4251 0.930 . S
H4244 C4254 0.930 . S
H4245 C4255 0.930 . S
C4246 H4240 0.930 . S
C4246 C4247 1.355 . S
C4246 C4248 1.415 . S
C4247 C4246 1.355 . S
C4247 C4249 1.419 . S
C4248 C4246 1.415 . S
C4248 C4253 1.425 . S
C4248 C4255 1.409 . S
C4249 H4241 0.930 . S
C4249 C4247 1.419 . S
C4249 C4250 1.362 . S
C4250 H4242 0.930 . S
C4250 C4249 1.362 . S
C4250 C4253 1.409 . S
C4251 H4243 0.930 . S
C4251 C4252 1.355 . S
C4251 C4253 1.415 . S
C4252 C4251 1.355 . S
C4252 C4254 1.419 . S
C4253 C4248 1.425 . S
C4253 C4250 1.409 . S
C4253 C4251 1.415 . S
C4254 H4244 0.930 . S
C4254 C4252 1.419 . S
C4254 C4255 1.362 . S
C4255 H4245 0.930 . S
C4255 C4248 1.409 . S
C4255 C4254 1.362 . S
H4256 C4262 0.930 . S
H4257 C4265 0.930 . S
H4258 C4266 0.930 . S
H4259 C4267 0.930 . S
H4260 C4270 0.930 . S
H4261 C4271 0.930 . S
C4262 H4256 0.930 . S
C4262 C4263 1.355 . S
C4262 C4264 1.415 . S
C4263 C4262 1.355 . S
C4263 C4265 1.419 . S
C4264 C4262 1.415 . S
C4264 C4269 1.425 . S
C4264 C4271 1.409 . S
C4265 H4257 0.930 . S
C4265 C4263 1.419 . S
C4265 C4266 1.362 . S
C4266 H4258 0.930 . S
C4266 C4265 1.362 . S
C4266 C4269 1.409 . S
C4267 H4259 0.930 . S
C4267 C4268 1.355 . S
C4267 C4269 1.415 . S
C4268 C4267 1.355 . S
C4268 C4270 1.419 . S
C4269 C4264 1.425 . S
C4269 C4266 1.409 . S
C4269 C4267 1.415 . S
C4270 H4260 0.930 . S
C4270 C4268 1.419 . S
C4270 C4271 1.362 . S
C4271 H4261 0.930 . S
C4271 C4264 1.409 . S
C4271 C4270 1.362 . S
H4272 C4278 0.930 . S
H4273 C4281 0.930 . S
H4274 C4282 0.930 . S
H4275 C4283 0.930 . S
H4276 C4286 0.930 . S
H4277 C4287 0.930 . S
C4278 H4272 0.930 . S
C4278 C4279 1.355 . S
C4278 C4280 1.415 . S
C4279 C4278 1.355 . S
C4279 C4281 1.419 . S
C4280 C4278 1.415 . S
C4280 C4285 1.425 . S
C4280 C4287 1.409 . S
C4281 H4273 0.930 . S
C4281 C4279 1.419 . S
C4281 C4282 1.362 . S
C4282 H4274 0.930 . S
C4282 C4281 1.362 . S
C4282 C4285 1.409 . S
C4283 H4275 0.930 . S
C4283 C4284 1.355 . S
C4283 C4285 1.415 . S
C4284 C4283 1.355 . S
C4284 C4286 1.419 . S
C4285 C4280 1.425 . S
C4285 C4282 1.409 . S
C4285 C4283 1.415 . S
C4286 H4276 0.930 . S
C4286 C4284 1.419 . S
C4286 C4287 1.362 . S
C4287 H4277 0.930 . S
C4287 C4280 1.409 . S
C4287 C4286 1.362 . S
H4288 C4294 0.930 . S
H4289 C4297 0.930 . S
H4290 C4298 0.930 . S
H4291 C4299 0.930 . S
H4292 C4302 0.930 . S
H4293 C4303 0.930 . S
C4294 H4288 0.930 . S
C4294 C4295 1.355 . S
C4294 C4296 1.415 . S
C4295 C4294 1.355 . S
C4295 C4297 1.419 . S
C4296 C4294 1.415 . S
C4296 C4301 1.425 . S
C4296 C4303 1.409 . S
C4297 H4289 0.930 . S
C4297 C4295 1.419 . S
C4297 C4298 1.362 . S
C4298 H4290 0.930 . S
C4298 C4297 1.362 . S
C4298 C4301 1.409 . S
C4299 H4291 0.930 . S
C4299 C4300 1.355 . S
C4299 C4301 1.415 . S
C4300 C4299 1.355 . S
C4300 C4302 1.419 . S
C4301 C4296 1.425 . S
C4301 C4298 1.409 . S
C4301 C4299 1.415 . S
C4302 H4292 0.930 . S
C4302 C4300 1.419 . S
C4302 C4303 1.362 . S
C4303 H4293 0.930 . S
C4303 C4296 1.409 . S
C4303 C4302 1.362 . S
H4304 C4310 0.930 . S
H4305 C4313 0.930 . S
H4306 C4314 0.930 . S
H4307 C4315 0.930 . S
H4308 C4318 0.930 . S
H4309 C4319 0.930 . S
C4310 H4304 0.930 . S
C4310 C4311 1.355 . S
C4310 C4312 1.415 . S
C4311 C4310 1.355 . S
C4311 C4313 1.419 . S
C4312 C4310 1.415 . S
C4312 C4317 1.425 . S
C4312 C4319 1.409 . S
C4313 H4305 0.930 . S
C4313 C4311 1.419 . S
C4313 C4314 1.362 . S
C4314 H4306 0.930 . S
C4314 C4313 1.362 . S
C4314 C4317 1.409 . S
C4315 H4307 0.930 . S
C4315 C4316 1.355 . S
C4315 C4317 1.415 . S
C4316 C4315 1.355 . S
C4316 C4318 1.419 . S
C4317 C4312 1.425 . S
C4317 C4314 1.409 . S
C4317 C4315 1.415 . S
C4318 H4308 0.930 . S
C4318 C4316 1.419 . S
C4318 C4319 1.362 . S
C4319 H4309 0.930 . S
C4319 C4312 1.409 . S
C4319 C4318 1.362 . S
C1255 C1 2.058 . S
C1260 C391 2.063 . S
C1271 C716 2.035 . S
C1276 C14 2.063 . S
C1287 C27 2.033 . S
C1292 C365 2.055 . S
C1303 C40 2.053 . S
C1308 C690 2.033 . S
C1319 C339 2.053 . S
C1324 C53 2.066 . S
C1335 C66 2.044 . S
C1340 C664 2.068 . S
C1351 C313 2.047 . S
C1356 C79 2.068 . S
C1367 C92 2.058 . S
C1372 C638 2.063 . S
C1383 C443 2.048 . S
C1388 C105 2.035 . S
C1399 C118 2.059 . S
C1404 C768 2.062 . S
C1415 C131 2.035 . S
C1420 C417 2.063 . S
C1431 C144 2.044 . S
C1436 C742 2.037 . S
C1447 C157 2.064 . S
C1452 C495 2.057 . S
C1463 C820 2.066 . S
C1468 C170 2.054 . S
C1479 C469 2.066 . S
C1484 C183 2.038 . S
C1495 C196 2.033 . S
C1500 C794 2.055 . S
C1511 C846 2.053 . S
C1516 C209 2.066 . S
C1527 C833 2.035 . S
C1532 C222 2.063 . S
C1543 C235 2.044 . S
C1548 C924 2.068 . S
C1559 C1210 2.035 . S
C1564 C248 2.046 . S
C1575 C599 2.034 . S
C1580 C261 2.048 . S
C1591 C274 2.066 . S
C1596 C1184 2.052 . S
C1607 C287 2.037 . S
C1612 C573 2.043 . S
C1623 C300 2.040 . S
C1628 C859 2.040 . S
C1639 C326 2.035 . S
C1644 C1028 2.063 . S
C1655 C352 2.059 . S
C1660 C1002 2.033 . S
C1671 C378 2.046 . S
C1676 C976 2.036 . S
C1687 C404 2.053 . S
C1692 C950 2.066 . S
C1703 C1080 2.044 . S
C1708 C430 2.068 . S
C1719 C456 2.039 . S
C1724 C1054 2.066 . S
C1735 C1132 2.064 . S
C1740 C482 2.057 . S
C1751 C508 2.038 . S
C1756 C1106 2.042 . S
C1767 C521 2.034 . S
C1772 C1158 2.061 . S
C1783 C534 2.068 . S
C1788 C1145 2.047 . S
C1799 C547 2.063 . S
C1804 C1236 2.057 . S
C1815 C898 2.038 . S
C1820 C560 2.042 . S
C1831 C872 2.040 . S
C1836 C586 2.066 . S
C1847 C612 2.062 . S
C1852 C1171 2.059 . S
C1863 C625 2.053 . S
C1868 C1015 2.033 . S
C1879 C989 2.067 . S
C1884 C651 2.048 . S
C1895 C677 2.034 . S
C1900 C963 2.050 . S
C1911 C703 2.034 . S
C1916 C937 2.049 . S
C1927 C1067 2.035 . S
C1932 C729 2.047 . S
C1943 C1041 2.065 . S
C1948 C755 2.054 . S
C1959 C781 2.067 . S
C1964 C1119 2.050 . S
C1975 C1093 2.067 . S
C1980 C807 2.050 . S
C1991 C885 2.065 . S
C1996 C1223 2.054 . S
C2007 C911 2.068 . S
C2012 C1197 2.043 . S
C2023 C5 1.497 . S
C2028 C720 1.489 . S
C2039 C18 1.485 . S
C2044 C369 1.459 . S
C2055 C31 1.495 . S
C2060 C694 1.491 . S
C2071 C395 1.506 . S
C2076 C44 1.463 . S
C2087 C57 1.459 . S
C2092 C330 1.503 . S
C2103 C70 1.457 . S
C2108 C655 1.494 . S
C2119 C83 1.483 . S
C2124 C356 1.501 . S
C2135 C629 1.459 . S
C2140 C96 1.503 . S
C2151 C109 1.468 . S
C2156 C265 1.506 . S
C2167 C122 1.466 . S
C2172 C1162 1.475 . S
C2183 C1175 1.485 . S
C2188 C135 1.500 . S
C2199 C148 1.503 . S
C2204 C1188 1.480 . S
C2215 C928 1.500 . S
C2220 C161 1.457 . S
C2231 C1214 1.459 . S
C2236 C174 1.503 . S
C2247 C187 1.472 . S
C2252 C915 1.468 . S
C2263 C837 1.465 . S
C2268 C200 1.506 . S
C2279 C824 1.457 . S
C2284 C213 1.498 . S
C2295 C1058 1.504 . S
C2300 C226 1.460 . S
C2311 C239 1.480 . S
C2316 C1071 1.503 . S
C2327 C252 1.494 . S
C2332 C1084 1.457 . S
C2343 C278 1.489 . S
C2348 C1110 1.458 . S
C2359 C291 1.506 . S
C2364 C811 1.472 . S
C2375 C785 1.492 . S
C2380 C304 1.457 . S
C2391 C317 1.469 . S
C2396 C1032 1.472 . S
C2407 C1006 1.506 . S
C2412 C343 1.462 . S
C2423 C967 1.459 . S
C2428 C382 1.485 . S
C2439 C408 1.469 . S
C2444 C941 1.471 . S
C2455 C421 1.504 . S
C2460 C577 1.477 . S
C2471 C434 1.504 . S
C2476 C850 1.478 . S
C2487 C447 1.471 . S
C2492 C863 1.469 . S
C2503 C460 1.457 . S
C2508 C876 1.501 . S
C2519 C473 1.464 . S
C2524 C1240 1.477 . S
C2535 C902 1.456 . S
C2540 C486 1.495 . S
C2551 C1227 1.457 . S
C2556 C499 1.493 . S
C2567 C1149 1.470 . S
C2572 C512 1.506 . S
C2583 C1136 1.469 . S
C2588 C525 1.506 . S
C2599 C538 1.460 . S
C2604 C746 1.504 . S
C2615 C551 1.469 . S
C2620 C759 1.471 . S
C2631 C564 1.469 . S
C2636 C772 1.506 . S
C2647 C798 1.458 . S
C2652 C590 1.502 . S
C2663 C1123 1.489 . S
C2668 C603 1.497 . S
C2679 C1097 1.487 . S
C2684 C616 1.458 . S
C2695 C642 1.504 . S
C2700 C993 1.460 . S
C2711 C668 1.502 . S
C2716 C1019 1.480 . S
C2727 C954 1.484 . S
C2732 C681 1.460 . S
C2743 C980 1.456 . S
C2748 C707 1.497 . S
C2759 C889 1.468 . S
C2764 C733 1.472 . S
C2775 C1201 1.475 . S
C2780 C1045 1.505 . S
C2791 C10 1.704 . S
C2796 C1212 1.740 . S
C2807 C23 1.754 . S
C2812 C913 1.761 . S
C2823 C835 1.729 . S
C2828 C36 1.723 . S
C2839 C926 1.774 . S
C2844 C49 1.753 . S
C2855 C62 1.742 . S
C2860 C250 1.770 . S
C2871 C75 1.752 . S
C2876 C1199 1.774 . S
C2887 C224 1.714 . S
C2892 C88 1.703 . S
C2903 C237 1.762 . S
C2908 C101 1.755 . S
C2919 C367 1.712 . S
C2924 C114 1.686 . S
C2935 C127 1.723 . S
C2940 C692 1.729 . S
C2951 C140 1.729 . S
C2956 C393 1.734 . S
C2967 C153 1.692 . S
C2972 C718 1.726 . S
C2983 C315 1.759 . S
C2988 C166 1.726 . S
C2999 C179 1.721 . S
C3004 C640 1.755 . S
C3015 C341 1.766 . S
C3020 C192 1.757 . S
C3031 C205 1.748 . S
C3036 C666 1.773 . S
C3047 C218 1.704 . S
C3052 C1121 1.715 . S
C3063 C445 1.732 . S
C3068 C231 1.728 . S
C3079 C244 1.736 . S
C3084 C770 1.740 . S
C3095 C419 1.720 . S
C3100 C257 1.688 . S
C3111 C270 1.758 . S
C3116 C432 1.772 . S
C3127 C783 1.724 . S
C3132 C283 1.690 . S
C3143 C172 1.749 . S
C3148 C296 1.745 . S
C3159 C198 1.717 . S
C3164 C309 1.687 . S
C3175 C900 1.769 . S
C3180 C322 1.740 . S
C3191 C335 1.716 . S
C3196 C1225 1.723 . S
C3207 C1147 1.742 . S
C3212 C348 1.739 . S
C3223 C361 1.742 . S
C3228 C1238 1.770 . S
C3239 C562 1.712 . S
C3244 C374 1.698 . S
C3255 C887 1.774 . S
C3260 C387 1.754 . S
C3271 C400 1.712 . S
C3276 C536 1.720 . S
C3287 C413 1.688 . S
C3292 C549 1.721 . S
C3303 C426 1.726 . S
C3308 C55 1.760 . S
C3319 C439 1.753 . S
C3324 C1004 1.774 . S
C3335 C81 1.769 . S
C3340 C452 1.741 . S
C3351 C465 1.733 . S
C3356 C1030 1.764 . S
C3367 C3 1.711 . S
C3372 C478 1.695 . S
C3383 C491 1.758 . S
C3388 C952 1.772 . S
C3399 C29 1.771 . S
C3404 C504 1.758 . S
C3415 C978 1.774 . S
C3420 C517 1.753 . S
C3431 C530 1.758 . S
C3436 C809 1.772 . S
C3447 C543 1.704 . S
C3452 C133 1.740 . S
C3463 C1082 1.774 . S
C3468 C556 1.757 . S
C3479 C569 1.712 . S
C3484 C107 1.720 . S
C3495 C120 1.774 . S
C3500 C582 1.755 . S
C3511 C595 1.736 . S
C3516 C1095 1.740 . S
C3527 C484 1.725 . S
C3532 C608 1.719 . S
C3543 C621 1.744 . S
C3548 C510 1.771 . S
C3559 C588 1.771 . S
C3564 C634 1.758 . S
C3575 C647 1.723 . S
C3580 C289 1.729 . S
C3591 C660 1.731 . S
C3596 C211 1.735 . S
C3607 C673 1.688 . S
C3612 C302 1.710 . S
C3623 C686 1.701 . S
C3628 C874 1.713 . S
C3639 C575 1.731 . S
C3644 C699 1.696 . S
C3655 C848 1.710 . S
C3660 C712 1.688 . S
C3671 C725 1.696 . S
C3676 C861 1.711 . S
C3687 C991 1.723 . S
C3692 C738 1.690 . S
C3703 C68 1.716 . S
C3708 C751 1.707 . S
C3719 C1017 1.770 . S
C3724 C764 1.758 . S
C3735 C777 1.730 . S
C3740 C94 1.762 . S
C3751 C939 1.730 . S
C3756 C790 1.725 . S
C3767 C803 1.692 . S
C3772 C16 1.710 . S
C3783 C965 1.773 . S
C3788 C816 1.757 . S
C3799 C42 1.752 . S
C3804 C829 1.717 . S
C3815 C497 1.757 . S
C3820 C842 1.723 . S
C3831 C855 1.702 . S
C3836 C1069 1.737 . S
C3847 C868 1.751 . S
C3852 C146 1.757 . S
C3863 C1043 1.761 . S
C3868 C881 1.728 . S
C3879 C894 1.752 . S
C3884 C1056 1.758 . S
C3895 C159 1.773 . S
C3900 C907 1.757 . S
C3911 C796 1.730 . S
C3916 C920 1.725 . S
C3927 C933 1.687 . S
C3932 C822 1.717 . S
C3943 C946 1.686 . S
C3948 C276 1.711 . S
C3959 C601 1.774 . S
C3964 C959 1.755 . S
C3975 C523 1.710 . S
C3980 C972 1.692 . S
C3991 C985 1.758 . S
C3996 C614 1.772 . S
C4007 C998 1.726 . S
C4012 C1186 1.731 . S
C4023 C263 1.759 . S
C4028 C1011 1.726 . S
C4039 C1160 1.767 . S
C4044 C1024 1.757 . S
C4055 C1173 1.710 . S
C4060 C1037 1.687 . S
C4071 C679 1.717 . S
C4076 C1050 1.707 . S
C4087 C1063 1.715 . S
C4092 C380 1.722 . S
C4103 C1076 1.747 . S
C4108 C705 1.751 . S
C4119 C1089 1.704 . S
C4124 C406 1.715 . S
C4135 C627 1.734 . S
C4140 C1102 1.730 . S
C4151 C1115 1.738 . S
C4156 C328 1.767 . S
C4167 C1128 1.737 . S
C4172 C653 1.741 . S
C4183 C1141 1.733 . S
C4188 C354 1.764 . S
C4199 C185 1.710 . S
C4204 C1154 1.687 . S
C4215 C1167 1.705 . S
C4220 C757 1.715 . S
C4231 C1180 1.757 . S
C4236 C458 1.767 . S
C4247 C1193 1.750 . S
C4252 C731 1.755 . S
C4263 C1206 1.757 . S
C4268 C744 1.773 . S
C4279 C471 1.726 . S
C4284 C1219 1.720 . S
C4295 C1108 1.711 . S
C4300 C1232 1.686 . S
C4311 C1134 1.712 . S
C4316 C1245 1.686 . S
