# Generated by pormake.
# Topology qtz-e, (6)-cn, num edge types: 1
# Building blocks:
#     Node 0, Type 0, BuildingBlock: PAMTOO_clean_sbu_0, # of connection points: 6
#     Node 1, Type 0, BuildingBlock: PAMTOO_clean_sbu_0, # of connection points: 6
#     Node 2, Type 0, BuildingBlock: PAMTOO_clean_sbu_0, # of connection points: 6
#     Node 3, Type 0, BuildingBlock: PAMTOO_clean_sbu_0, # of connection points: 6
#     Node 4, Type 0, BuildingBlock: PAMTOO_clean_sbu_0, # of connection points: 6
#     Node 5, Type 0, BuildingBlock: PAMTOO_clean_sbu_0, # of connection points: 6
#     Edge 6, Type (0, 0), BuildingBlock: UVAHIK_clean_linker_0, # of connection points: 2
#     Edge 7, Type (0, 0), BuildingBlock: UVAHIK_clean_linker_0, # of connection points: 2
#     Edge 8, Type (0, 0), BuildingBlock: UVAHIK_clean_linker_0, # of connection points: 2
#     Edge 9, Type (0, 0), BuildingBlock: UVAHIK_clean_linker_0, # of connection points: 2
#     Edge 10, Type (0, 0), BuildingBlock: UVAHIK_clean_linker_0, # of connection points: 2
#     Edge 11, Type (0, 0), BuildingBlock: UVAHIK_clean_linker_0, # of connection points: 2
#     Edge 12, Type (0, 0), BuildingBlock: UVAHIK_clean_linker_0, # of connection points: 2
#     Edge 13, Type (0, 0), BuildingBlock: UVAHIK_clean_linker_0, # of connection points: 2
#     Edge 14, Type (0, 0), BuildingBlock: UVAHIK_clean_linker_0, # of connection points: 2
#     Edge 15, Type (0, 0), BuildingBlock: UVAHIK_clean_linker_0, # of connection points: 2
#     Edge 16, Type (0, 0), BuildingBlock: UVAHIK_clean_linker_0, # of connection points: 2
#     Edge 17, Type (0, 0), BuildingBlock: UVAHIK_clean_linker_0, # of connection points: 2
#     Edge 18, Type (0, 0), BuildingBlock: UVAHIK_clean_linker_0, # of connection points: 2
#     Edge 19, Type (0, 0), BuildingBlock: UVAHIK_clean_linker_0, # of connection points: 2
#     Edge 20, Type (0, 0), BuildingBlock: UVAHIK_clean_linker_0, # of connection points: 2
#     Edge 21, Type (0, 0), BuildingBlock: UVAHIK_clean_linker_0, # of connection points: 2
#     Edge 22, Type (0, 0), BuildingBlock: UVAHIK_clean_linker_0, # of connection points: 2
#     Edge 23, Type (0, 0), BuildingBlock: UVAHIK_clean_linker_0, # of connection points: 2
# Relax obj value: 0.169
# Max RMSD: 0.200
# Mean RMSD: 0.200
data_MOF--net-qtz-e--node1-PAMTOO_clean_sbu_0--edge1-UVAHIK_clean_linker_0
_symmetry_space_group_name_H-M    P1
_symmetry_Int_Tables_number       1
_symmetry_cell_setting            triclinic
loop_
_symmetry_equiv_pos_as_xyz
'x, y, z'
_cell_length_a     34.294531
_cell_length_b     34.278549
_cell_length_c     61.852019
_cell_angle_alpha  90.154949
_cell_angle_beta   89.940987
_cell_angle_gamma 119.98075
loop_
_atom_site_label
_atom_site_type_symbol
_atom_site_fract_x
_atom_site_fract_y
_atom_site_fract_z
_atom_type_partial_charge
Dy0 Dy 0.13592 0.35046 0.11697 0.0
Dy1 Dy 0.2126 0.4385 0.14565 0.0
C2 C 0.22754 0.36001 0.13225 0.0
O3 O 0.11927 0.33328 0.15204 0.0
O4 O 0.15036 0.40547 0.16521 0.0
O5 O 0.10564 0.27961 0.10926 0.0
O6 O 0.08388 0.32102 0.09269 0.0
O7 O 0.16957 0.46166 0.1299 0.0
O8 O 0.10545 0.39398 0.12235 0.0
O9 O 0.24467 0.44621 0.11338 0.0
O10 O 0.18025 0.40371 0.09329 0.0
O11 O 0.25537 0.5096 0.15239 0.0
O12 O 0.25593 0.45988 0.17363 0.0
C13 C 0.12414 0.36192 0.16746 0.0
O14 O 0.20078 0.35067 0.11564 0.0
O15 O 0.22087 0.37848 0.14929 0.0
C16 C 0.09053 0.2672 0.07202 0.0
C17 C 0.10548 0.23938 0.03138 0.0
C18 C 0.13812 0.28037 0.04062 0.0
C19 C 0.13076 0.29406 0.06076 0.0
C20 C 0.05794 0.22617 0.06302 0.0
C21 C 0.06539 0.21226 0.04287 0.0
C22 C 0.0829 0.28249 0.09302 0.0
C23 C 0.12707 0.43817 0.12416 0.0
C24 C 0.22343 0.43383 0.09473 0.0
C25 C 0.26283 0.52512 0.18972 0.0
C26 C 0.2521 0.56704 0.22669 0.0
C27 C 0.21558 0.52737 0.21843 0.0
C28 C 0.22082 0.50685 0.19998 0.0
C29 C 0.29924 0.56494 0.19774 0.0
C30 C 0.29387 0.58593 0.21603 0.0
C31 C 0.2687 0.5023 0.1709 0.0
H32 H 0.16964 0.3017 0.03239 0.0
H33 H 0.15649 0.32573 0.06754 0.0
H34 H 0.0267 0.20503 0.07152 0.0
H35 H 0.03949 0.18066 0.03612 0.0
H36 H 0.18288 0.51244 0.22616 0.0
H37 H 0.19213 0.4766 0.19377 0.0
H38 H 0.33186 0.57957 0.18996 0.0
H39 H 0.32259 0.6164 0.22212 0.0
Dy40 Dy 0.85895 0.23139 0.41632 0.0
Dy41 Dy 0.80032 0.2701 0.39033 0.0
C42 C 0.7735 0.16967 0.38824 0.0
O43 O 0.8828 0.24124 0.38212 0.0
O44 O 0.86383 0.29397 0.37168 0.0
O45 O 0.87655 0.17952 0.42082 0.0
O46 O 0.90743 0.23957 0.4407 0.0
O47 O 0.83729 0.31776 0.41688 0.0
O48 O 0.89769 0.30662 0.41818 0.0
O49 O 0.75921 0.23658 0.41972 0.0
O50 O 0.81248 0.23293 0.4411 0.0
O51 O 0.79389 0.32565 0.37865 0.0
O52 O 0.74082 0.25713 0.37233 0.0
C53 C 0.88565 0.272 0.36854 0.0
O54 O 0.7915 0.17395 0.40741 0.0
O55 O 0.78684 0.2051 0.37599 0.0
C56 C 0.8903 0.17171 0.4574 0.0
C57 C 0.87104 0.12394 0.49664 0.0
C58 C 0.8388 0.13213 0.48687 0.0
C59 C 0.84834 0.15576 0.46742 0.0
C60 C 0.92236 0.16315 0.46685 0.0
C61 C 0.91278 0.1393 0.4863 0.0
C62 C 0.90132 0.19923 0.43778 0.0
C63 C 0.8792 0.33151 0.42201 0.0
C64 C 0.77318 0.23036 0.43854 0.0
C65 C 0.75449 0.31224 0.34589 0.0
C66 C 0.75317 0.34347 0.30396 0.0
C67 C 0.79079 0.34112 0.31123 0.0
C68 C 0.79136 0.32545 0.332 0.0
C69 C 0.71642 0.31329 0.3385 0.0
C70 C 0.71567 0.32864 0.31767 0.0
C71 C 0.75634 0.29979 0.36842 0.0
H72 H 0.80612 0.12021 0.49424 0.0
H73 H 0.82317 0.16206 0.46029 0.0
H74 H 0.95503 0.17551 0.45938 0.0
H75 H 0.93845 0.13388 0.49352 0.0
H76 H 0.81993 0.35177 0.30093 0.0
H77 H 0.82094 0.32457 0.33739 0.0
H78 H 0.6877 0.30324 0.34903 0.0
H79 H 0.68637 0.33038 0.31257 0.0
Dy80 Dy 0.63723 0.76582 0.77802 0.0
Dy81 Dy 0.54115 0.72379 0.80557 0.0
C82 C 0.60785 0.82636 0.80402 0.0
O83 O 0.6543 0.76036 0.81229 0.0
O84 O 0.58503 0.70478 0.8239 0.0
O85 O 0.70605 0.81895 0.77337 0.0
O86 O 0.67732 0.76006 0.75267 0.0
O87 O 0.53158 0.6768 0.77891 0.0
O88 O 0.60389 0.69053 0.77657 0.0
O89 O 0.52792 0.75216 0.7758 0.0
O90 O 0.58693 0.76186 0.75393 0.0
O91 O 0.48181 0.66605 0.81795 0.0
O92 O 0.49317 0.73315 0.82442 0.0
C93 C 0.6288 0.72946 0.8264 0.0
O94 O 0.62295 0.8212 0.78537 0.0
O95 O 0.58875 0.79265 0.81753 0.0
C96 C 0.72673 0.82934 0.73665 0.0
C97 C 0.75429 0.88043 0.69832 0.0
C98 C 0.71282 0.86913 0.708 0.0
C99 C 0.69922 0.84386 0.72701 0.0
C100 C 0.76837 0.841 0.7273 0.0
C101 C 0.78215 0.86648 0.70831 0.0
C102 C 0.71111 0.80054 0.75589 0.0
C103 C 0.56046 0.66417 0.77345 0.0
C104 C 0.54816 0.76035 0.75688 0.0
C105 C 0.4553 0.67721 0.85096 0.0
C106 C 0.42626 0.64292 0.89286 0.0
C107 C 0.47081 0.65756 0.88635 0.0
C108 C 0.48521 0.67461 0.86554 0.0
C109 C 0.41145 0.66418 0.85759 0.0
C110 C 0.39705 0.64729 0.87838 0.0
C111 C 0.46824 0.69019 0.82838 0.0
H112 H 0.69089 0.87988 0.70089 0.0
H113 H 0.66699 0.83525 0.73409 0.0
H114 H 0.7899 0.82986 0.73452 0.0
H115 H 0.81408 0.87431 0.70115 0.0
H116 H 0.49405 0.65436 0.89703 0.0
H117 H 0.51924 0.68454 0.86062 0.0
H118 H 0.38801 0.66609 0.84651 0.0
H119 H 0.36282 0.63714 0.88302 0.0
Dy120 Dy 0.79073 0.65704 0.08012 0.0
Dy121 Dy 0.74412 0.56009 0.05356 0.0
C122 C 0.84797 0.61001 0.06617 0.0
O123 O 0.77322 0.67035 0.04716 0.0
O124 O 0.77818 0.6146 0.02921 0.0
O125 O 0.84342 0.72615 0.08474 0.0
O126 O 0.78416 0.69748 0.1051 0.0
O127 O 0.69651 0.58602 0.05367 0.0
O128 O 0.71677 0.61846 0.08673 0.0
O129 O 0.73464 0.54262 0.08881 0.0
O130 O 0.79214 0.60815 0.10332 0.0
O131 O 0.68517 0.49548 0.04723 0.0
O132 O 0.74739 0.51534 0.02999 0.0
C133 C 0.77711 0.65229 0.0291 0.0
O134 O 0.84832 0.64817 0.06936 0.0
O135 O 0.81065 0.5714 0.06374 0.0
C136 C 0.85233 0.74946 0.12145 0.0
C137 C 0.89995 0.77846 0.16078 0.0
C138 C 0.9106 0.75458 0.14561 0.0
C139 C 0.88675 0.73989 0.12615 0.0
C140 C 0.84234 0.77409 0.13635 0.0
C141 C 0.86582 0.78836 0.15588 0.0
C142 C 0.8244 0.73148 0.10191 0.0
C143 C 0.6859 0.59762 0.07189 0.0
C144 C 0.76205 0.56512 0.10485 0.0
C145 C 0.67959 0.47105 0.01066 0.0
C146 C 0.63326 0.44127 0.97092 0.0
C147 C 0.61166 0.44623 0.98919 0.0
C148 C 0.63461 0.46105 0.00886 0.0
C149 C 0.70092 0.46565 0.99244 0.0
C150 C 0.67812 0.45116 0.97278 0.0
C151 C 0.70443 0.48628 0.03135 0.0
H152 H 0.93642 0.74609 0.14908 0.0
H153 H 0.89461 0.72034 0.11501 0.0
H154 H 0.81573 0.78156 0.13305 0.0
H155 H 0.85718 0.80702 0.16719 0.0
H156 H 0.57715 0.43902 0.98821 0.0
H157 H 0.61706 0.46462 0.02262 0.0
H158 H 0.73533 0.47251 0.99339 0.0
H159 H 0.69541 0.44689 0.9591 0.0
Dy160 Dy 0.23035 0.86923 0.44601 0.0
Dy161 Dy 0.26575 0.80652 0.47017 0.0
C162 C 0.1664 0.78211 0.47186 0.0
O163 O 0.24191 0.891 0.48072 0.0
O164 O 0.29425 0.87032 0.48906 0.0
O165 O 0.18065 0.89009 0.44289 0.0
O166 O 0.23976 0.91948 0.42238 0.0
O167 O 0.31481 0.84438 0.44432 0.0
O168 O 0.30545 0.90604 0.44378 0.0
O169 O 0.23156 0.76772 0.44021 0.0
O170 O 0.2324 0.82476 0.42009 0.0
O171 O 0.31859 0.79359 0.47961 0.0
O172 O 0.24995 0.74794 0.48965 0.0
C173 C 0.27356 0.89289 0.49343 0.0
O174 O 0.17149 0.80152 0.45305 0.0
O175 O 0.20144 0.79521 0.48436 0.0
C176 C 0.17226 0.90678 0.4066 0.0
C177 C 0.12449 0.89056 0.36744 0.0
C178 C 0.11255 0.8556 0.38242 0.0
C179 C 0.13643 0.86355 0.40177 0.0
C180 C 0.18362 0.94192 0.3919 0.0
C181 C 0.16004 0.93388 0.37245 0.0
C182 C 0.20027 0.91496 0.42597 0.0
C183 C 0.32925 0.88656 0.43946 0.0
C184 C 0.22812 0.78449 0.42163 0.0
C185 C 0.30805 0.76217 0.5144 0.0
C186 C 0.34065 0.76588 0.55656 0.0
C187 C 0.35237 0.80572 0.54526 0.0
C188 C 0.33596 0.80391 0.52442 0.0
C189 C 0.29563 0.72234 0.52579 0.0
C190 C 0.31163 0.72416 0.54678 0.0
C191 C 0.29228 0.75996 0.49206 0.0
H192 H 0.08566 0.82178 0.37886 0.0
H193 H 0.12751 0.8357 0.41271 0.0
H194 H 0.21136 0.9754 0.39528 0.0
H195 H 0.16975 0.9615 0.36127 0.0
H196 H 0.37422 0.8383 0.55256 0.0
H197 H 0.34552 0.83517 0.51608 0.0
H198 H 0.27396 0.68986 0.51836 0.0
H199 H 0.30227 0.69297 0.55514 0.0
Dy200 Dy 0.34746 0.12672 0.75031 0.0
Dy201 Dy 0.44672 0.18611 0.72668 0.0
C202 C 0.37355 0.21173 0.72159 0.0
O203 O 0.33795 0.10199 0.71607 0.0
O204 O 0.411 0.12046 0.70925 0.0
O205 O 0.2774 0.10825 0.75314 0.0
O206 O 0.30551 0.07868 0.77446 0.0
O207 O 0.45533 0.15192 0.75499 0.0
O208 O 0.3854 0.08949 0.75415 0.0
O209 O 0.4498 0.22902 0.75462 0.0
O210 O 0.39273 0.17485 0.77553 0.0
O211 O 0.51159 0.19511 0.71826 0.0
O212 O 0.49253 0.2432 0.70711 0.0
C213 C 0.36804 0.09851 0.70427 0.0
O214 O 0.35747 0.19385 0.74054 0.0
O215 O 0.39513 0.19638 0.71025 0.0
C216 C 0.25392 0.09675 0.78954 0.0
C217 C 0.22421 0.11833 0.82793 0.0
C218 C 0.26476 0.1501 0.81807 0.0
C219 C 0.27944 0.1394 0.79906 0.0
C220 C 0.21308 0.06519 0.79902 0.0
C221 C 0.19822 0.07593 0.81804 0.0
C222 C 0.27141 0.0845 0.77057 0.0
C223 C 0.42835 0.1093 0.75924 0.0
C224 C 0.42823 0.21519 0.77315 0.0
C225 C 0.53593 0.22577 0.6833 0.0
C226 C 0.5656 0.22119 0.64131 0.0
C227 C 0.54812 0.18358 0.65501 0.0
C228 C 0.53324 0.18574 0.67575 0.0
C229 C 0.5531 0.26328 0.66957 0.0
C230 C 0.5676 0.26096 0.6487 0.0
C231 C 0.52121 0.22883 0.70539 0.0
H232 H 0.28525 0.18326 0.82508 0.0
H233 H 0.31109 0.16422 0.79195 0.0
H234 H 0.19313 0.032 0.79195 0.0
H235 H 0.16706 0.0506 0.82532 0.0
H236 H 0.54568 0.15234 0.64962 0.0
H237 H 0.51976 0.15602 0.68584 0.0
H238 H 0.5555 0.29447 0.67503 0.0
H239 H 0.58121 0.29054 0.63851 0.0
C240 C 0.23071 0.78057 0.3813 0.0
C241 C 0.22306 0.75898 0.40144 0.0
C242 C 0.23066 0.75843 0.36231 0.0
C243 C 0.19208 0.64811 0.33745 0.0
H244 H 0.29659 0.71271 0.30054 0.0
C245 C 0.22609 0.5623 0.26496 0.0
C246 C 0.24667 0.58831 0.2465 0.0
C247 C 0.2216 0.5824 0.28378 0.0
C248 C 0.26675 0.69437 0.3104 0.0
H249 H 0.20734 0.69638 0.41727 0.0
H250 H 0.20654 0.65741 0.3839 0.0
H251 H 0.2898 0.74847 0.33324 0.0
H252 H 0.27759 0.65543 0.23299 0.0
H253 H 0.26852 0.69044 0.26551 0.0
H254 H 0.16839 0.59435 0.31443 0.0
C255 C 0.21289 0.69165 0.38295 0.0
C256 C 0.26301 0.71487 0.32921 0.0
C257 C 0.21351 0.71403 0.40204 0.0
C258 C 0.26213 0.63471 0.2471 0.0
C259 C 0.25707 0.65474 0.26581 0.0
C260 C 0.19547 0.62776 0.31843 0.0
C261 C 0.22239 0.714 0.36297 0.0
C262 C 0.22571 0.69196 0.34294 0.0
C263 C 0.23705 0.62894 0.28449 0.0
C264 C 0.23294 0.6506 0.30465 0.0
H265 H 0.23816 0.81516 0.38018 0.0
H266 H 0.23756 0.77625 0.34709 0.0
H267 H 0.1628 0.62985 0.34768 0.0
H268 H 0.21427 0.52649 0.26498 0.0
H269 H 0.20677 0.5615 0.29789 0.0
C270 C 0.57062 0.23528 0.60134 0.0
C271 C 0.58246 0.21901 0.61953 0.0
C272 C 0.58651 0.23294 0.58082 0.0
C273 C 0.63834 0.17644 0.55042 0.0
H274 H 0.67627 0.27707 0.51117 0.0
C275 C 0.75481 0.20801 0.47732 0.0
C276 C 0.74475 0.22231 0.45789 0.0
C277 C 0.73024 0.20359 0.49606 0.0
C278 C 0.66523 0.24844 0.52184 0.0
H279 H 0.62084 0.18838 0.63063 0.0
H280 H 0.64947 0.18524 0.59502 0.0
H281 H 0.64315 0.27795 0.54592 0.0
H282 H 0.70023 0.24219 0.44281 0.0
H283 H 0.65753 0.23478 0.4757 0.0
H284 H 0.66192 0.14775 0.52652 0.0
C285 C 0.62687 0.19861 0.59639 0.0
C286 C 0.64617 0.24888 0.54176 0.0
C287 C 0.61065 0.20058 0.61684 0.0
C288 C 0.70884 0.23107 0.4575 0.0
C289 C 0.68455 0.2271 0.47634 0.0
C290 C 0.65776 0.17623 0.53059 0.0
C291 C 0.61495 0.21467 0.5781 0.0
C292 C 0.63293 0.2131 0.55641 0.0
C293 C 0.69533 0.21377 0.49585 0.0
C294 C 0.67179 0.21242 0.51619 0.0
H295 H 0.54853 0.24922 0.60294 0.0
H296 H 0.57611 0.24503 0.56708 0.0
H297 H 0.62767 0.14788 0.56108 0.0
H298 H 0.78217 0.20086 0.47819 0.0
H299 H 0.73956 0.1936 0.51091 0.0
C300 C 0.29447 0.48756 0.07518 0.0
C301 C 0.24883 0.45385 0.07455 0.0
C302 C 0.31787 0.50712 0.05606 0.0
C303 C 0.31442 0.48901 0.99701 0.0
H304 H 0.3857 0.61927 0.99406 0.0
C305 C 0.3665 0.58309 0.91609 0.0
C306 C 0.40957 0.62126 0.91426 0.0
C307 C 0.35055 0.56226 0.93604 0.0
C308 C 0.36654 0.58284 0.9947 0.0
H309 H 0.19237 0.41354 0.05323 0.0
H310 H 0.23305 0.44776 0.02005 0.0
H311 H 0.35167 0.58303 0.02833 0.0
H312 H 0.46973 0.66744 0.93204 0.0
H313 H 0.44208 0.63052 0.96695 0.0
H314 H 0.3288 0.48871 0.96338 0.0
C315 C 0.25084 0.45891 0.03529 0.0
C316 C 0.34704 0.56209 0.01433 0.0
C317 C 0.22743 0.43952 0.05436 0.0
C318 C 0.43648 0.63795 0.93289 0.0
C319 C 0.42049 0.61704 0.95291 0.0
C320 C 0.334 0.50972 0.97742 0.0
C321 C 0.29621 0.49315 0.03592 0.0
C322 C 0.32013 0.51498 0.0156 0.0
C323 C 0.37732 0.57893 0.9547 0.0
C324 C 0.35962 0.55691 0.97593 0.0
H325 H 0.3121 0.49916 0.09043 0.0
H326 H 0.35295 0.53309 0.05702 0.0
H327 H 0.29453 0.4526 0.99757 0.0
H328 H 0.34514 0.56892 0.90202 0.0
H329 H 0.31692 0.53335 0.93688 0.0
C330 C 0.71621 0.34314 0.26884 0.0
C331 C 0.75388 0.36334 0.28257 0.0
C332 C 0.71654 0.36296 0.24905 0.0
C333 C 0.7939 0.44789 0.20935 0.0
H334 H 0.68573 0.44727 0.19056 0.0
C335 C 0.7942 0.56129 0.1406 0.0
C336 C 0.7598 0.54103 0.12507 0.0
C337 C 0.79281 0.53826 0.15944 0.0
C338 C 0.71605 0.44733 0.19551 0.0
H339 H 0.82118 0.42039 0.28646 0.0
H340 H 0.82158 0.45535 0.25221 0.0
H341 H 0.68475 0.4093 0.22404 0.0
H342 H 0.69658 0.48088 0.11734 0.0
H343 H 0.69405 0.44084 0.1504 0.0
H344 H 0.82538 0.48682 0.18102 0.0
C345 C 0.79214 0.42362 0.25638 0.0
C346 C 0.7155 0.42545 0.21466 0.0
C347 C 0.79193 0.40363 0.27606 0.0
C348 C 0.72368 0.49741 0.12894 0.0
C349 C 0.72208 0.47455 0.14792 0.0
C350 C 0.79453 0.47007 0.19032 0.0
C351 C 0.75443 0.40363 0.24263 0.0
C352 C 0.7545 0.42563 0.22188 0.0
C353 C 0.7568 0.49463 0.16329 0.0
C354 C 0.75569 0.4702 0.18325 0.0
H355 H 0.68657 0.31184 0.27335 0.0
H356 H 0.68718 0.34622 0.23873 0.0
H357 H 0.82431 0.448 0.21415 0.0
H358 H 0.82254 0.59483 0.13814 0.0
H359 H 0.81978 0.55478 0.17112 0.0
C360 C 0.55028 0.78649 0.71895 0.0
C361 C 0.52568 0.7664 0.73786 0.0
C362 C 0.52865 0.78975 0.7005 0.0
C363 C 0.4208 0.73343 0.67305 0.0
H364 H 0.46819 0.8433 0.63958 0.0
C365 C 0.33223 0.74249 0.59544 0.0
C366 C 0.35988 0.76797 0.57824 0.0
C367 C 0.35073 0.74441 0.61582 0.0
C368 C 0.45478 0.81216 0.64857 0.0
H369 H 0.45919 0.73457 0.75236 0.0
H370 H 0.42129 0.73961 0.71991 0.0
H371 H 0.50424 0.84339 0.67357 0.0
H372 H 0.42847 0.81479 0.56864 0.0
H373 H 0.46106 0.8171 0.60388 0.0
H374 H 0.37253 0.70152 0.6478 0.0
C375 C 0.45735 0.75297 0.71948 0.0
C376 C 0.47533 0.81236 0.66809 0.0
C377 C 0.4791 0.75034 0.73806 0.0
C378 C 0.40633 0.79528 0.58173 0.0
C379 C 0.42492 0.79674 0.60199 0.0
C380 C 0.40061 0.73302 0.65338 0.0
C381 C 0.48189 0.77241 0.7005 0.0
C382 C 0.45869 0.77294 0.68044 0.0
C383 C 0.39739 0.77136 0.61933 0.0
C384 C 0.41754 0.77231 0.64078 0.0
H385 H 0.58623 0.79934 0.71829 0.0
H386 H 0.54829 0.80462 0.68602 0.0
H387 H 0.40765 0.70243 0.68216 0.0
H388 H 0.29623 0.72151 0.59319 0.0
H389 H 0.32836 0.72499 0.62885 0.0
C390 C 0.56501 0.38784 0.94947 0.0
C391 C 0.60903 0.42483 0.95007 0.0
C392 C 0.54359 0.37024 0.92969 0.0
C393 C 0.57047 0.36427 0.87256 0.0
H394 H 0.4424 0.31574 0.86398 0.0
C395 C 0.48579 0.28671 0.79113 0.0
C396 C 0.44569 0.24501 0.79233 0.0
C397 C 0.50406 0.31307 0.80966 0.0
C398 C 0.47818 0.32899 0.86618 0.0
H399 H 0.66418 0.47387 0.93049 0.0
H400 H 0.62672 0.44345 0.89599 0.0
H401 H 0.4774 0.35403 0.89786 0.0
H402 H 0.39232 0.19926 0.81386 0.0
H403 H 0.42444 0.24498 0.84612 0.0
H404 H 0.57124 0.33868 0.84111 0.0
C405 C 0.60911 0.42736 0.91077 0.0
C406 C 0.49821 0.35087 0.88558 0.0
C407 C 0.63055 0.44482 0.93052 0.0
C408 C 0.4234 0.23109 0.81233 0.0
C409 C 0.44164 0.25747 0.83084 0.0
C410 C 0.55049 0.34249 0.85319 0.0
C411 C 0.56569 0.38937 0.9101 0.0
C412 C 0.54454 0.36841 0.88907 0.0
C413 C 0.48259 0.29838 0.8298 0.0
C414 C 0.50405 0.32422 0.84984 0.0
H415 H 0.54773 0.37146 0.96427 0.0
H416 H 0.51036 0.34063 0.92977 0.0
H417 H 0.60607 0.37663 0.87484 0.0
H418 H 0.50368 0.29865 0.77597 0.0
H419 H 0.53531 0.34477 0.80828 0.0
C420 C 0.30688 0.38923 0.14412 0.0
C421 C 0.27302 0.3668 0.12852 0.0
C422 C 0.35213 0.40863 0.13837 0.0
C423 C 0.41975 0.45931 0.09036 0.0
H424 H 0.51906 0.47417 0.12612 0.0
C425 C 0.60463 0.55191 0.06211 0.0
C426 C 0.63787 0.57795 0.07743 0.0
C427 C 0.55964 0.52638 0.06828 0.0
C428 C 0.49162 0.47072 0.11611 0.0
H429 H 0.25983 0.34189 0.09548 0.0
H430 H 0.3388 0.37522 0.0856 0.0
H431 H 0.4418 0.422 0.13734 0.0
H432 H 0.64966 0.60003 0.11091 0.0
H433 H 0.57084 0.55583 0.1216 0.0
H434 H 0.46938 0.50831 0.06925 0.0
C435 C 0.33034 0.37895 0.10207 0.0
C436 C 0.44749 0.44065 0.12245 0.0
C437 C 0.28511 0.35953 0.10781 0.0
C438 C 0.62487 0.58014 0.09875 0.0
C439 C 0.57983 0.5545 0.10492 0.0
C440 C 0.46381 0.48934 0.08403 0.0
C441 C 0.36419 0.40567 0.11698 0.0
C442 C 0.41114 0.43469 0.10964 0.0
C443 C 0.547 0.52642 0.08988 0.0
C444 C 0.50018 0.49546 0.09687 0.0
H445 H 0.29868 0.39508 0.16028 0.0
H446 H 0.37751 0.42889 0.15024 0.0
H447 H 0.39237 0.45629 0.08043 0.0
H448 H 0.61352 0.54955 0.04554 0.0
H449 H 0.5351 0.50496 0.05634 0.0
C450 C 0.12689 0.70986 0.49222 0.0
C451 C 0.12584 0.73827 0.47613 0.0
C452 C 0.09394 0.66445 0.49276 0.0
C453 C 0.98392 0.5774 0.47316 0.0
H454 H 0.0438 0.50947 0.46014 0.0
C455 C 0.89331 0.40899 0.42849 0.0
C456 C 0.90542 0.37607 0.43221 0.0
C457 C 0.91707 0.45114 0.43826 0.0
C458 C 0.02625 0.52735 0.4643 0.0
H459 H 0.08683 0.74274 0.44966 0.0
H460 H 0.02863 0.66335 0.45097 0.0
H461 H 0.08799 0.58764 0.47144 0.0
H462 H 0.95113 0.36079 0.44939 0.0
H463 H 0.99195 0.43417 0.46723 0.0
H464 H 0.92211 0.51731 0.4661 0.0
C465 C 0.05533 0.67623 0.46291 0.0
C466 C 0.05168 0.57225 0.47073 0.0
C467 C 0.08869 0.72157 0.46212 0.0
C468 C 0.94151 0.38586 0.44608 0.0
C469 C 0.96485 0.4279 0.45625 0.0
C470 C 0.9583 0.53216 0.46717 0.0
C471 C 0.05896 0.64699 0.47756 0.0
C472 C 0.03085 0.59792 0.47459 0.0
C473 C 0.95302 0.46117 0.45237 0.0
C474 C 0.97931 0.507 0.46193 0.0
H475 H 0.15486 0.72175 0.50339 0.0
H476 H 0.09713 0.64244 0.50428 0.0
H477 H 0.96723 0.59665 0.47618 0.0
H478 H 0.86583 0.40245 0.41769 0.0
H479 H 0.90771 0.47612 0.43433 0.0
C480 C 0.49523 0.10186 0.76755 0.0
C481 C 0.44826 0.08341 0.76829 0.0
C482 C 0.51485 0.07723 0.77473 0.0
C483 C 0.50621 0.99069 0.80992 0.0
H484 H 0.5718 0.96715 0.76553 0.0
C485 C 0.56446 0.86026 0.81952 0.0
C486 C 0.60074 0.86502 0.80695 0.0
C487 C 0.55012 0.89174 0.81801 0.0
C488 C 0.55468 0.97425 0.77834 0.0
H489 H 0.38515 0.02526 0.7779 0.0
H490 H 0.42011 0.98215 0.79099 0.0
H491 H 0.53622 0.01112 0.75683 0.0
H492 H 0.65359 0.90879 0.78488 0.0
H493 H 0.63042 0.9653 0.78325 0.0
H494 H 0.52561 0.95495 0.83167 0.0
C495 C 0.44128 0.01573 0.78463 0.0
C496 C 0.53381 -0.00104 0.77321 0.0
C497 C 0.42139 0.04021 0.77706 0.0
C498 C 0.62516 0.90404 0.79453 0.0
C499 C 0.61147 0.93609 0.79341 0.0
C500 C 0.52789 0.9666 0.81521 0.0
C501 C 0.48808 0.03392 0.78314 0.0
C502 C 0.50924 0.00711 0.7889 0.0
C503 C 0.57235 0.92914 0.80424 0.0
C504 C 0.55222 0.95784 0.79942 0.0
H505 H 0.51698 0.135 0.76085 0.0
H506 H 0.55102 0.09183 0.77349 0.0
H507 H 0.48769 0.9971 0.82229 0.0
H508 H 0.54487 0.83046 0.82924 0.0
H509 H 0.5198 0.88496 0.82654 0.0
C510 C 0.56852 0.6096 0.74925 0.0
C511 C 0.54251 0.61948 0.76335 0.0
C512 C 0.5492 0.56786 0.73864 0.0
C513 C 0.43687 0.46834 0.72562 0.0
H514 H 0.50367 0.4049 0.72178 0.0
C515 C 0.36238 0.27682 0.72991 0.0
C516 C 0.38124 0.25717 0.71669 0.0
C517 C 0.37861 0.32313 0.72901 0.0
C518 C 0.48487 0.42258 0.72233 0.0
H519 H 0.47667 0.59314 0.7781 0.0
H520 H 0.44383 0.52048 0.7605 0.0
H521 H 0.54186 0.4831 0.73378 0.0
H522 H 0.42863 0.26985 0.6906 0.0
H523 H 0.45754 0.35079 0.68952 0.0
H524 H 0.37913 0.40644 0.71566 0.0
C525 C 0.4784 0.54514 0.75677 0.0
C526 C 0.50675 0.46741 0.72918 0.0
C527 C 0.49743 0.58673 0.76708 0.0
C528 C 0.41363 0.28397 0.70118 0.0
C529 C 0.43035 0.33033 0.70054 0.0
C530 C 0.41487 0.42331 0.71912 0.0
C531 C 0.50372 0.5353 0.74218 0.0
C532 C 0.48264 0.49036 0.73159 0.0
C533 C 0.4142 0.35045 0.71504 0.0
C534 C 0.43846 0.39978 0.71797 0.0
H535 H 0.6033 0.63444 0.746 0.0
H536 H 0.56963 0.56139 0.72746 0.0
H537 H 0.41757 0.48543 0.72669 0.0
H538 H 0.33722 0.25702 0.74193 0.0
H539 H 0.36572 0.33798 0.74041 0.0
C540 C 0.12126 0.50794 0.12523 0.0
C541 C 0.10384 0.46308 0.11839 0.0
C542 C 0.10167 0.53295 0.11829 0.0
C543 C 0.03559 0.54044 0.07411 0.0
H544 H -0.00355 0.59931 0.1153 0.0
C545 C 0.89184 0.57269 0.05717 0.0
C546 C 0.89019 0.60872 0.06705 0.0
C547 C 0.92788 0.56579 0.06091 0.0
C548 C 0.00826 0.58419 0.1035 0.0
H549 H 0.05197 0.40906 0.09919 0.0
H550 H 0.01794 0.45297 0.08695 0.0
H551 H 0.03896 0.56408 0.12789 0.0
H552 H 0.92631 0.66774 0.0874 0.0
H553 H 0.9901 0.65578 0.09393 0.0
H554 H 0.00445 0.55977 0.04975 0.0
C555 C 0.04684 0.46869 0.09762 0.0
C556 C 0.03227 0.56373 0.11076 0.0
C557 C 0.066 0.44346 0.1048 0.0
C558 C 0.92682 0.63968 0.07959 0.0
C559 C 0.96307 0.63262 0.08345 0.0
C560 C 0.01211 0.56133 0.06682 0.0
C561 C 0.06478 0.51374 0.10415 0.0
C562 C 0.04468 0.54034 0.09621 0.0
C563 C 0.96323 0.59478 0.07464 0.0
C564 C -0.00335 0.5819 0.08154 0.0
H565 H 0.15035 0.52392 0.13577 0.0
H566 H 0.11599 0.5676 0.12356 0.0
H567 H 0.04568 0.52337 0.06254 0.0
H568 H 0.8642 0.5485 0.04726 0.0
H569 H 0.92651 0.53601 0.05406 0.0
C570 C 0.40584 0.89942 0.4319 0.0
C571 C 0.37302 0.91179 0.42857 0.0
C572 C 0.44701 0.92195 0.42123 0.0
C573 C 0.52136 0.0289 0.39322 0.0
H574 H 0.58952 0.96862 0.38158 0.0
C575 C 0.70326 0.12953 0.36635 0.0
C576 C 0.73084 0.12855 0.38291 0.0
C577 C 0.65821 0.09591 0.36499 0.0
C578 C 0.57053 0.98562 0.38447 0.0
H579 H 0.35667 0.95644 0.41114 0.0
H580 H 0.42823 0.99504 0.39176 0.0
H581 H 0.51065 0.9244 0.39245 0.0
H582 H 0.7346 0.08884 0.40922 0.0
H583 H 0.65588 0.02968 0.40659 0.0
H584 H 0.58143 0.09007 0.38533 0.0
C585 C 0.42277 0.9688 0.40311 0.0
C586 C 0.5256 0.96053 0.39092 0.0
C587 C 0.38179 0.94678 0.41418 0.0
C588 C 0.71401 0.09072 0.39645 0.0
C589 C 0.66906 0.05674 0.39487 0.0
C590 C 0.5659 0.05376 0.38634 0.0
C591 C 0.45603 0.9568 0.4066 0.0
C592 C 0.501 0.98211 0.39621 0.0
C593 C 0.64034 0.06042 0.37989 0.0
C594 C 0.59123 0.03252 0.38261 0.0
H595 H 0.39996 0.87268 0.44304 0.0
H596 H 0.47208 0.91254 0.42487 0.0
H597 H 0.50392 0.0469 0.39738 0.0
H598 H 0.71531 0.15801 0.3555 0.0
H599 H 0.63661 0.09915 0.35323 0.0
C600 C 0.16466 0.11683 0.85238 0.0
C601 C 0.20986 0.12916 0.84874 0.0
C602 C 0.15159 0.12767 0.8719 0.0
C603 C 0.19818 0.20546 0.91867 0.0
H604 H 0.08519 0.12159 0.94609 0.0
C605 C 0.13288 0.25677 0.99306 0.0
C606 C 0.11357 0.22525 0.00986 0.0
C607 C 0.14241 0.24423 0.9731 0.0
C608 C 0.117 0.14528 0.93872 0.0
H609 H 0.27647 0.16124 0.86309 0.0
H610 H 0.25374 0.17986 0.89709 0.0
H611 H 0.10674 0.10074 0.91223 0.0
H612 H 0.08867 0.15562 0.01876 0.0
H613 H 0.10566 0.13373 0.98395 0.0
H614 H 0.20912 0.24951 0.94536 0.0
C615 C 0.22848 0.16274 0.88469 0.0
C616 C 0.12911 0.13354 0.91916 0.0
C617 C 0.24154 0.15204 0.86519 0.0
C618 C 0.10316 0.1806 0.00608 0.0
C619 C 0.11286 0.16806 0.9861 0.0
C620 C 0.18612 0.21715 0.9382 0.0
C621 C 0.18341 0.15098 0.88827 0.0
C622 C 0.16995 0.16345 0.90893 0.0
C623 C 0.13304 0.19985 0.96943 0.0
C624 C 0.14539 0.18725 0.9485 0.0
H625 H 0.13951 0.09955 0.83996 0.0
H626 H 0.11669 0.11856 0.874 0.0
H627 H 0.22959 0.2296 0.91114 0.0
H628 H 0.14054 0.29124 0.99531 0.0
H629 H 0.15704 0.26938 0.9605 0.0
C630 C 0.91392 0.31175 0.33323 0.0
C631 C 0.91192 0.28033 0.34838 0.0
C632 C 0.93637 0.31787 0.31363 0.0
C633 C 0.00835 0.34374 0.27977 0.0
H634 H -0.00129 0.24187 0.24766 0.0
C635 C 0.12072 0.37118 0.207 0.0
C636 C 0.10058 0.34587 0.18827 0.0
C637 C 0.09774 0.3598 0.22658 0.0
C638 C 0.00143 0.27056 0.25639 0.0
H639 H 0.93248 0.23099 0.35486 0.0
H640 H 0.97252 0.24242 0.32075 0.0
H641 H 0.95789 0.22924 0.28178 0.0
H642 H 0.04154 0.28734 0.17546 0.0
H643 H 0.00048 0.26753 0.20995 0.0
H644 H 0.05091 0.38504 0.25434 0.0
C645 C 0.95597 0.26173 0.32393 0.0
C646 C 0.97851 0.26341 0.27602 0.0
C647 C 0.93338 0.25551 0.34356 0.0
C648 C 0.05769 0.30744 0.18969 0.0
C649 C 0.03433 0.29614 0.2094 0.0
C650 C 0.03112 0.35085 0.26023 0.0
C651 C 0.95759 0.2929 0.30873 0.0
C652 C 0.98181 0.29999 0.28792 0.0
C653 C 0.05381 0.32297 0.22791 0.0
C654 C 0.02823 0.31444 0.24837 0.0
H655 H 0.8977 0.33138 0.33634 0.0
H656 H 0.9365 0.34176 0.30216 0.0
H657 H 0.012 0.37269 0.28862 0.0
H658 H 0.15431 0.40019 0.20652 0.0
H659 H 0.11425 0.38034 0.24065 0.0
C660 C 0.73626 0.89508 0.66097 0.0
C661 C 0.76786 0.90584 0.67765 0.0
C662 C 0.74866 0.919 0.64156 0.0
C663 C 0.8475 0.99368 0.60792 0.0
H664 H 0.76339 0.02303 0.58095 0.0
C665 C 0.87336 0.06709 0.52144 0.0
C666 C 0.8613 0.10012 0.51771 0.0
C667 C 0.86332 0.0442 0.54117 0.0
C668 C 0.78748 0.0155 0.58834 0.0
H669 H 0.83729 0.95028 0.68703 0.0
H670 H 0.85893 0.99238 0.65316 0.0
H671 H 0.74374 0.98244 0.61505 0.0
H672 H 0.83061 0.13609 0.53206 0.0
H673 H 0.81337 0.09647 0.56645 0.0
H674 H 0.89164 0.02769 0.58138 0.0
C675 C 0.82468 0.96495 0.65498 0.0
C676 C 0.77595 0.99167 0.60778 0.0
C677 C 0.81228 0.94088 0.6744 0.0
C678 C 0.83958 0.11021 0.53426 0.0
C679 C 0.82968 0.08747 0.55398 0.0
C680 C 0.85907 0.01761 0.58846 0.0
C681 C 0.79295 0.9544 0.63835 0.0
C682 C 0.80572 0.98032 0.61778 0.0
C683 C 0.84111 0.05394 0.55764 0.0
C684 C 0.82917 0.02877 0.57842 0.0
H685 H 0.70198 0.86771 0.66281 0.0
H686 H 0.72358 0.90935 0.62896 0.0
H687 H 0.87106 0.98515 0.61508 0.0
H688 H 0.88972 0.05824 0.50894 0.0
H689 H 0.87208 0.01818 0.54333 0.0
C690 C 0.62243 0.69336 0.86236 0.0
C691 C 0.64947 0.72402 0.84634 0.0
C692 C 0.64124 0.69044 0.88186 0.0
C693 C 0.74761 0.71496 0.90775 0.0
H694 H 0.68236 0.70555 0.96055 0.0
C695 C 0.76316 0.70527 0.00692 0.0
C696 C 0.7744 0.67111 0.00802 0.0
C697 C 0.75416 0.71824 0.98697 0.0
C698 C 0.70136 0.7088 0.946 0.0
H699 H 0.71784 0.77485 0.83809 0.0
H700 H 0.75066 0.76953 0.87217 0.0
H701 H 0.6534 0.71425 0.92605 0.0
H702 H 0.78764 0.62574 0.98891 0.0
H703 H 0.7718 0.64823 0.95428 0.0
H704 H 0.79544 0.70919 0.92777 0.0
C705 C 0.71488 0.74777 0.86957 0.0
C706 C 0.68443 0.71316 0.92621 0.0
C707 C 0.69601 0.75086 0.85007 0.0
C708 C 0.7789 0.65204 0.98868 0.0
C709 C 0.77007 0.66513 0.96877 0.0
C710 C 0.76447 0.71038 0.92758 0.0
C711 C 0.68757 0.71795 0.88578 0.0
C712 C 0.70702 0.71566 0.90684 0.0
C713 C 0.75646 0.69751 0.96774 0.0
C714 C 0.74122 0.70672 0.94689 0.0
H715 H 0.58653 0.67193 0.86002 0.0
H716 H 0.61946 0.66654 0.89389 0.0
H717 H 0.76568 0.71666 0.89309 0.0
H718 H 0.75955 0.72076 0.02149 0.0
H719 H 0.74434 0.74376 0.98665 0.0
C720 C 0.12578 0.89739 0.32709 0.0
C721 C 0.10101 0.88143 0.34632 0.0
C722 C 0.1039 0.88739 0.30709 0.0
C723 C 0.99513 0.80754 0.28097 0.0
H724 H 0.04122 0.89472 0.2344 0.0
C725 C 0.89833 0.78356 0.20114 0.0
C726 C 0.92326 0.79171 0.18198 0.0
C727 C 0.91999 0.79517 0.22119 0.0
C728 C 0.02819 0.86995 0.24723 0.0
H729 H 0.0339 0.84351 0.35978 0.0
H730 H 0.99549 0.82695 0.32495 0.0
H731 H 0.07843 0.91448 0.26957 0.0
H732 H 0.99037 0.81894 0.16872 0.0
H733 H 0.02839 0.83965 0.20385 0.0
H734 H 0.9444 0.76339 0.25863 0.0
C735 C 0.03191 0.84619 0.3252 0.0
C736 C 0.04955 0.88117 0.26737 0.0
C737 C 0.05386 0.85581 0.34518 0.0
C738 C 0.97034 0.81207 0.18325 0.0
C739 C 0.99207 0.8242 0.20331 0.0
C740 C 0.97352 0.79654 0.2609 0.0
C741 C 0.05666 0.86154 0.30586 0.0
C742 C 0.03341 0.85004 0.2845 0.0
C743 C 0.96707 0.81563 0.22248 0.0
C744 C 0.98992 0.82756 0.24381 0.0
H745 H 0.16221 0.91669 0.32746 0.0
H746 H 0.12417 0.89913 0.29258 0.0
H747 H 0.98221 0.78235 0.2936 0.0
H748 H 0.86197 0.76754 0.20066 0.0
H749 H 0.89991 0.78845 0.2357 0.0
C750 C 0.31312 0.06078 0.67391 0.0
C751 C 0.35449 0.07265 0.68378 0.0
C752 C 0.30305 0.04133 0.65326 0.0
C753 C 0.36012 0.03071 0.6044 0.0
H754 H 0.23962 0.93927 0.58758 0.0
C755 C 0.32186 0.92572 0.52625 0.0
C756 C 0.28423 0.91837 0.51401 0.0
C757 C 0.3302 0.94656 0.54648 0.0
C758 C 0.27334 0.96517 0.592 0.0
H759 H 0.41676 0.07128 0.68018 0.0
H760 H 0.39867 0.03619 0.64467 0.0
H761 H 0.25355 0.96914 0.6244 0.0
H762 H 0.22621 0.9278 0.51334 0.0
H763 H 0.24079 0.96407 0.54883 0.0
H764 H 0.38001 0.02593 0.57212 0.0
C765 C 0.37451 0.04316 0.65248 0.0
C766 C 0.28135 0.98232 0.61309 0.0
C767 C 0.38472 0.06293 0.67297 0.0
C768 C 0.25557 0.93308 0.52232 0.0
C769 C 0.26368 0.95353 0.5427 0.0
C770 C 0.35217 0.01328 0.58342 0.0
C771 C 0.33401 0.03302 0.64213 0.0
C772 C 0.32494 0.01509 0.61961 0.0
C773 C 0.30091 0.96017 0.55504 0.0
C774 C 0.30878 0.98015 0.57702 0.0
H775 H 0.28923 0.06809 0.68175 0.0
H776 H 0.27169 0.0343 0.64575 0.0
H777 H 0.3939 0.05671 0.60864 0.0
H778 H 0.34463 0.91481 0.52036 0.0
H779 H 0.35895 0.95088 0.5557 0.0
loop_
_geom_bond_atom_site_label_1
_geom_bond_atom_site_label_2
_geom_bond_distance
_geom_bond_site_symmetry_2
_ccdc_geom_bond_type
Dy0 O3 2.307 . S
Dy0 O5 2.395 . S
Dy0 O6 2.379 . S
Dy0 O8 2.339 . S
Dy0 O10 2.298 . S
Dy0 O14 2.275 . S
Dy0 C22 2.738 . S
Dy1 O4 2.298 . S
Dy1 O7 2.275 . S
Dy1 O9 2.307 . S
Dy1 O11 2.395 . S
Dy1 O12 2.379 . S
Dy1 O15 2.339 . S
Dy1 C31 2.738 . S
C2 O14 1.254 . S
C2 O15 1.257 . S
O3 Dy0 2.307 . S
O3 C13 1.266 . S
O4 Dy1 2.298 . S
O4 C13 1.236 . S
O5 Dy0 2.395 . S
O5 C22 1.255 . S
O6 Dy0 2.379 . S
O6 C22 1.249 . S
O7 Dy1 2.275 . S
O7 C23 1.254 . S
O8 Dy0 2.339 . S
O8 C23 1.257 . S
O9 Dy1 2.307 . S
O9 C24 1.266 . S
O10 Dy0 2.298 . S
O10 C24 1.236 . S
O11 Dy1 2.395 . S
O11 C31 1.255 . S
O12 Dy1 2.379 . S
O12 C31 1.249 . S
C13 O3 1.266 . S
C13 O4 1.236 . S
O14 Dy0 2.275 . S
O14 C2 1.254 . S
O15 Dy1 2.339 . S
O15 C2 1.257 . S
C16 C19 1.344 . S
C16 C20 1.328 . S
C16 C22 1.516 . S
C17 C18 1.304 . S
C17 C21 1.323 . S
C18 C17 1.304 . S
C18 C19 1.371 . S
C18 H32 0.930 . S
C19 C16 1.344 . S
C19 C18 1.371 . S
C19 H33 0.931 . S
C20 C16 1.328 . S
C20 C21 1.433 . S
C20 H34 0.931 . S
C21 C17 1.323 . S
C21 C20 1.433 . S
C21 H35 0.933 . S
C22 Dy0 2.738 . S
C22 O5 1.255 . S
C22 O6 1.249 . S
C22 C16 1.516 . S
C23 O7 1.254 . S
C23 O8 1.257 . S
C24 O9 1.266 . S
C24 O10 1.236 . S
C25 C28 1.344 . S
C25 C29 1.328 . S
C25 C31 1.516 . S
C26 C27 1.304 . S
C26 C30 1.323 . S
C27 C26 1.304 . S
C27 C28 1.371 . S
C27 H36 0.930 . S
C28 C25 1.344 . S
C28 C27 1.371 . S
C28 H37 0.931 . S
C29 C25 1.328 . S
C29 C30 1.433 . S
C29 H38 0.931 . S
C30 C26 1.323 . S
C30 C29 1.433 . S
C30 H39 0.933 . S
C31 Dy1 2.738 . S
C31 O11 1.255 . S
C31 O12 1.249 . S
C31 C25 1.516 . S
H32 C18 0.930 . S
H33 C19 0.931 . S
H34 C20 0.931 . S
H35 C21 0.933 . S
H36 C27 0.930 . S
H37 C28 0.931 . S
H38 C29 0.931 . S
H39 C30 0.933 . S
Dy40 O43 2.307 . S
Dy40 O45 2.395 . S
Dy40 O46 2.379 . S
Dy40 O48 2.339 . S
Dy40 O50 2.298 . S
Dy40 O54 2.275 . S
Dy40 C62 2.738 . S
Dy41 O44 2.298 . S
Dy41 O47 2.275 . S
Dy41 O49 2.307 . S
Dy41 O51 2.395 . S
Dy41 O52 2.379 . S
Dy41 O55 2.339 . S
Dy41 C71 2.738 . S
C42 O54 1.254 . S
C42 O55 1.257 . S
O43 Dy40 2.307 . S
O43 C53 1.266 . S
O44 Dy41 2.298 . S
O44 C53 1.236 . S
O45 Dy40 2.395 . S
O45 C62 1.255 . S
O46 Dy40 2.379 . S
O46 C62 1.249 . S
O47 Dy41 2.275 . S
O47 C63 1.254 . S
O48 Dy40 2.339 . S
O48 C63 1.257 . S
O49 Dy41 2.307 . S
O49 C64 1.266 . S
O50 Dy40 2.298 . S
O50 C64 1.236 . S
O51 Dy41 2.395 . S
O51 C71 1.255 . S
O52 Dy41 2.379 . S
O52 C71 1.249 . S
C53 O43 1.266 . S
C53 O44 1.236 . S
O54 Dy40 2.275 . S
O54 C42 1.254 . S
O55 Dy41 2.339 . S
O55 C42 1.257 . S
C56 C59 1.344 . S
C56 C60 1.328 . S
C56 C62 1.516 . S
C57 C58 1.304 . S
C57 C61 1.323 . S
C58 C57 1.304 . S
C58 C59 1.371 . S
C58 H72 0.930 . S
C59 C56 1.344 . S
C59 C58 1.371 . S
C59 H73 0.931 . S
C60 C56 1.328 . S
C60 C61 1.433 . S
C60 H74 0.931 . S
C61 C57 1.323 . S
C61 C60 1.433 . S
C61 H75 0.933 . S
C62 Dy40 2.738 . S
C62 O45 1.255 . S
C62 O46 1.249 . S
C62 C56 1.516 . S
C63 O47 1.254 . S
C63 O48 1.257 . S
C64 O49 1.266 . S
C64 O50 1.236 . S
C65 C68 1.344 . S
C65 C69 1.328 . S
C65 C71 1.516 . S
C66 C67 1.304 . S
C66 C70 1.323 . S
C67 C66 1.304 . S
C67 C68 1.371 . S
C67 H76 0.930 . S
C68 C65 1.344 . S
C68 C67 1.371 . S
C68 H77 0.931 . S
C69 C65 1.328 . S
C69 C70 1.433 . S
C69 H78 0.931 . S
C70 C66 1.323 . S
C70 C69 1.433 . S
C70 H79 0.933 . S
C71 Dy41 2.738 . S
C71 O51 1.255 . S
C71 O52 1.249 . S
C71 C65 1.516 . S
H72 C58 0.930 . S
H73 C59 0.931 . S
H74 C60 0.931 . S
H75 C61 0.933 . S
H76 C67 0.930 . S
H77 C68 0.931 . S
H78 C69 0.931 . S
H79 C70 0.933 . S
Dy80 O83 2.307 . S
Dy80 O85 2.395 . S
Dy80 O86 2.379 . S
Dy80 O88 2.339 . S
Dy80 O90 2.298 . S
Dy80 O94 2.275 . S
Dy80 C102 2.738 . S
Dy81 O84 2.298 . S
Dy81 O87 2.275 . S
Dy81 O89 2.307 . S
Dy81 O91 2.395 . S
Dy81 O92 2.379 . S
Dy81 O95 2.339 . S
Dy81 C111 2.738 . S
C82 O94 1.254 . S
C82 O95 1.257 . S
O83 Dy80 2.307 . S
O83 C93 1.266 . S
O84 Dy81 2.298 . S
O84 C93 1.236 . S
O85 Dy80 2.395 . S
O85 C102 1.255 . S
O86 Dy80 2.379 . S
O86 C102 1.249 . S
O87 Dy81 2.275 . S
O87 C103 1.254 . S
O88 Dy80 2.339 . S
O88 C103 1.257 . S
O89 Dy81 2.307 . S
O89 C104 1.266 . S
O90 Dy80 2.298 . S
O90 C104 1.236 . S
O91 Dy81 2.395 . S
O91 C111 1.255 . S
O92 Dy81 2.379 . S
O92 C111 1.249 . S
C93 O83 1.266 . S
C93 O84 1.236 . S
O94 Dy80 2.275 . S
O94 C82 1.254 . S
O95 Dy81 2.339 . S
O95 C82 1.257 . S
C96 C99 1.344 . S
C96 C100 1.328 . S
C96 C102 1.516 . S
C97 C98 1.304 . S
C97 C101 1.323 . S
C98 C97 1.304 . S
C98 C99 1.371 . S
C98 H112 0.930 . S
C99 C96 1.344 . S
C99 C98 1.371 . S
C99 H113 0.931 . S
C100 C96 1.328 . S
C100 C101 1.433 . S
C100 H114 0.931 . S
C101 C97 1.323 . S
C101 C100 1.433 . S
C101 H115 0.933 . S
C102 Dy80 2.738 . S
C102 O85 1.255 . S
C102 O86 1.249 . S
C102 C96 1.516 . S
C103 O87 1.254 . S
C103 O88 1.257 . S
C104 O89 1.266 . S
C104 O90 1.236 . S
C105 C108 1.344 . S
C105 C109 1.328 . S
C105 C111 1.516 . S
C106 C107 1.304 . S
C106 C110 1.323 . S
C107 C106 1.304 . S
C107 C108 1.371 . S
C107 H116 0.930 . S
C108 C105 1.344 . S
C108 C107 1.371 . S
C108 H117 0.931 . S
C109 C105 1.328 . S
C109 C110 1.433 . S
C109 H118 0.931 . S
C110 C106 1.323 . S
C110 C109 1.433 . S
C110 H119 0.933 . S
C111 Dy81 2.738 . S
C111 O91 1.255 . S
C111 O92 1.249 . S
C111 C105 1.516 . S
H112 C98 0.930 . S
H113 C99 0.931 . S
H114 C100 0.931 . S
H115 C101 0.933 . S
H116 C107 0.930 . S
H117 C108 0.931 . S
H118 C109 0.931 . S
H119 C110 0.933 . S
Dy120 O123 2.307 . S
Dy120 O125 2.395 . S
Dy120 O126 2.379 . S
Dy120 O128 2.339 . S
Dy120 O130 2.298 . S
Dy120 O134 2.275 . S
Dy120 C142 2.738 . S
Dy121 O124 2.298 . S
Dy121 O127 2.275 . S
Dy121 O129 2.307 . S
Dy121 O131 2.395 . S
Dy121 O132 2.379 . S
Dy121 O135 2.339 . S
Dy121 C151 2.738 . S
C122 O134 1.254 . S
C122 O135 1.257 . S
O123 Dy120 2.307 . S
O123 C133 1.266 . S
O124 Dy121 2.298 . S
O124 C133 1.236 . S
O125 Dy120 2.395 . S
O125 C142 1.255 . S
O126 Dy120 2.379 . S
O126 C142 1.249 . S
O127 Dy121 2.275 . S
O127 C143 1.254 . S
O128 Dy120 2.339 . S
O128 C143 1.257 . S
O129 Dy121 2.307 . S
O129 C144 1.266 . S
O130 Dy120 2.298 . S
O130 C144 1.236 . S
O131 Dy121 2.395 . S
O131 C151 1.255 . S
O132 Dy121 2.379 . S
O132 C151 1.249 . S
C133 O123 1.266 . S
C133 O124 1.236 . S
O134 Dy120 2.275 . S
O134 C122 1.254 . S
O135 Dy121 2.339 . S
O135 C122 1.257 . S
C136 C139 1.344 . S
C136 C140 1.328 . S
C136 C142 1.516 . S
C137 C138 1.304 . S
C137 C141 1.323 . S
C138 C137 1.304 . S
C138 C139 1.371 . S
C138 H152 0.930 . S
C139 C136 1.344 . S
C139 C138 1.371 . S
C139 H153 0.931 . S
C140 C136 1.328 . S
C140 C141 1.433 . S
C140 H154 0.931 . S
C141 C137 1.323 . S
C141 C140 1.433 . S
C141 H155 0.933 . S
C142 Dy120 2.738 . S
C142 O125 1.255 . S
C142 O126 1.249 . S
C142 C136 1.516 . S
C143 O127 1.254 . S
C143 O128 1.257 . S
C144 O129 1.266 . S
C144 O130 1.236 . S
C145 C148 1.344 . S
C145 C149 1.328 . S
C145 C151 1.516 1_556 S
C146 C147 1.304 . S
C146 C150 1.323 . S
C147 C146 1.304 . S
C147 C148 1.371 . S
C147 H156 0.930 . S
C148 C145 1.344 . S
C148 C147 1.371 . S
C148 H157 0.931 . S
C149 C145 1.328 . S
C149 C150 1.433 . S
C149 H158 0.931 . S
C150 C146 1.323 . S
C150 C149 1.433 . S
C150 H159 0.933 . S
C151 Dy121 2.738 . S
C151 O131 1.255 . S
C151 O132 1.249 . S
C151 C145 1.516 1_554 S
H152 C138 0.930 . S
H153 C139 0.931 . S
H154 C140 0.931 . S
H155 C141 0.933 . S
H156 C147 0.930 . S
H157 C148 0.931 . S
H158 C149 0.931 . S
H159 C150 0.933 . S
Dy160 O163 2.307 . S
Dy160 O165 2.395 . S
Dy160 O166 2.379 . S
Dy160 O168 2.339 . S
Dy160 O170 2.298 . S
Dy160 O174 2.275 . S
Dy160 C182 2.738 . S
Dy161 O164 2.298 . S
Dy161 O167 2.275 . S
Dy161 O169 2.307 . S
Dy161 O171 2.395 . S
Dy161 O172 2.379 . S
Dy161 O175 2.339 . S
Dy161 C191 2.738 . S
C162 O174 1.254 . S
C162 O175 1.257 . S
O163 Dy160 2.307 . S
O163 C173 1.266 . S
O164 Dy161 2.298 . S
O164 C173 1.236 . S
O165 Dy160 2.395 . S
O165 C182 1.255 . S
O166 Dy160 2.379 . S
O166 C182 1.249 . S
O167 Dy161 2.275 . S
O167 C183 1.254 . S
O168 Dy160 2.339 . S
O168 C183 1.257 . S
O169 Dy161 2.307 . S
O169 C184 1.266 . S
O170 Dy160 2.298 . S
O170 C184 1.236 . S
O171 Dy161 2.395 . S
O171 C191 1.255 . S
O172 Dy161 2.379 . S
O172 C191 1.249 . S
C173 O163 1.266 . S
C173 O164 1.236 . S
O174 Dy160 2.275 . S
O174 C162 1.254 . S
O175 Dy161 2.339 . S
O175 C162 1.257 . S
C176 C179 1.344 . S
C176 C180 1.328 . S
C176 C182 1.516 . S
C177 C178 1.304 . S
C177 C181 1.323 . S
C178 C177 1.304 . S
C178 C179 1.371 . S
C178 H192 0.930 . S
C179 C176 1.344 . S
C179 C178 1.371 . S
C179 H193 0.931 . S
C180 C176 1.328 . S
C180 C181 1.433 . S
C180 H194 0.931 . S
C181 C177 1.323 . S
C181 C180 1.433 . S
C181 H195 0.933 . S
C182 Dy160 2.738 . S
C182 O165 1.255 . S
C182 O166 1.249 . S
C182 C176 1.516 . S
C183 O167 1.254 . S
C183 O168 1.257 . S
C184 O169 1.266 . S
C184 O170 1.236 . S
C185 C188 1.344 . S
C185 C189 1.328 . S
C185 C191 1.516 . S
C186 C187 1.304 . S
C186 C190 1.323 . S
C187 C186 1.304 . S
C187 C188 1.371 . S
C187 H196 0.930 . S
C188 C185 1.344 . S
C188 C187 1.371 . S
C188 H197 0.931 . S
C189 C185 1.328 . S
C189 C190 1.433 . S
C189 H198 0.931 . S
C190 C186 1.323 . S
C190 C189 1.433 . S
C190 H199 0.933 . S
C191 Dy161 2.738 . S
C191 O171 1.255 . S
C191 O172 1.249 . S
C191 C185 1.516 . S
H192 C178 0.930 . S
H193 C179 0.931 . S
H194 C180 0.931 . S
H195 C181 0.933 . S
H196 C187 0.930 . S
H197 C188 0.931 . S
H198 C189 0.931 . S
H199 C190 0.933 . S
Dy200 O203 2.307 . S
Dy200 O205 2.395 . S
Dy200 O206 2.379 . S
Dy200 O208 2.339 . S
Dy200 O210 2.298 . S
Dy200 O214 2.275 . S
Dy200 C222 2.738 . S
Dy201 O204 2.298 . S
Dy201 O207 2.275 . S
Dy201 O209 2.307 . S
Dy201 O211 2.395 . S
Dy201 O212 2.379 . S
Dy201 O215 2.339 . S
Dy201 C231 2.738 . S
C202 O214 1.254 . S
C202 O215 1.257 . S
O203 Dy200 2.307 . S
O203 C213 1.266 . S
O204 Dy201 2.298 . S
O204 C213 1.236 . S
O205 Dy200 2.395 . S
O205 C222 1.255 . S
O206 Dy200 2.379 . S
O206 C222 1.249 . S
O207 Dy201 2.275 . S
O207 C223 1.254 . S
O208 Dy200 2.339 . S
O208 C223 1.257 . S
O209 Dy201 2.307 . S
O209 C224 1.266 . S
O210 Dy200 2.298 . S
O210 C224 1.236 . S
O211 Dy201 2.395 . S
O211 C231 1.255 . S
O212 Dy201 2.379 . S
O212 C231 1.249 . S
C213 O203 1.266 . S
C213 O204 1.236 . S
O214 Dy200 2.275 . S
O214 C202 1.254 . S
O215 Dy201 2.339 . S
O215 C202 1.257 . S
C216 C219 1.344 . S
C216 C220 1.328 . S
C216 C222 1.516 . S
C217 C218 1.304 . S
C217 C221 1.323 . S
C218 C217 1.304 . S
C218 C219 1.371 . S
C218 H232 0.930 . S
C219 C216 1.344 . S
C219 C218 1.371 . S
C219 H233 0.931 . S
C220 C216 1.328 . S
C220 C221 1.433 . S
C220 H234 0.931 . S
C221 C217 1.323 . S
C221 C220 1.433 . S
C221 H235 0.933 . S
C222 Dy200 2.738 . S
C222 O205 1.255 . S
C222 O206 1.249 . S
C222 C216 1.516 . S
C223 O207 1.254 . S
C223 O208 1.257 . S
C224 O209 1.266 . S
C224 O210 1.236 . S
C225 C228 1.344 . S
C225 C229 1.328 . S
C225 C231 1.516 . S
C226 C227 1.304 . S
C226 C230 1.323 . S
C227 C226 1.304 . S
C227 C228 1.371 . S
C227 H236 0.930 . S
C228 C225 1.344 . S
C228 C227 1.371 . S
C228 H237 0.931 . S
C229 C225 1.328 . S
C229 C230 1.433 . S
C229 H238 0.931 . S
C230 C226 1.323 . S
C230 C229 1.433 . S
C230 H239 0.933 . S
C231 Dy201 2.738 . S
C231 O211 1.255 . S
C231 O212 1.249 . S
C231 C225 1.516 . S
H232 C218 0.930 . S
H233 C219 0.931 . S
H234 C220 0.931 . S
H235 C221 0.933 . S
H236 C227 0.930 . S
H237 C228 0.931 . S
H238 C229 0.931 . S
H239 C230 0.933 . S
C240 C241 1.349 . S
C240 C242 1.327 . S
C240 H265 0.950 . S
C241 C240 1.349 . S
C241 C257 1.349 . S
C242 C240 1.327 . S
C242 C261 1.429 . S
C242 H266 0.950 . S
C243 C260 1.574 . S
C243 C262 1.368 . S
C243 H267 0.949 . S
H244 C248 0.949 . S
C245 C246 1.349 . S
C245 C247 1.327 . S
C245 H268 0.950 . S
C246 C245 1.349 . S
C246 C258 1.349 . S
C247 C245 1.327 . S
C247 C263 1.429 . S
C247 H269 0.950 . S
C248 H244 0.949 . S
C248 C256 1.574 . S
C248 C264 1.368 . S
H249 C257 0.950 . S
H250 C255 0.950 . S
H251 C256 0.949 . S
H252 C258 0.950 . S
H253 C259 0.950 . S
H254 C260 0.949 . S
C255 H250 0.950 . S
C255 C257 1.327 . S
C255 C261 1.429 . S
C256 C248 1.574 . S
C256 H251 0.949 . S
C256 C262 1.368 . S
C257 C241 1.349 . S
C257 H249 0.950 . S
C257 C255 1.327 . S
C258 C246 1.349 . S
C258 H252 0.950 . S
C258 C259 1.327 . S
C259 H253 0.950 . S
C259 C258 1.327 . S
C259 C263 1.429 . S
C260 C243 1.574 . S
C260 H254 0.949 . S
C260 C264 1.368 . S
C261 C242 1.429 . S
C261 C255 1.429 . S
C261 C262 1.523 . S
C262 C243 1.368 . S
C262 C256 1.368 . S
C262 C261 1.523 . S
C263 C247 1.429 . S
C263 C259 1.429 . S
C263 C264 1.523 . S
C264 C248 1.368 . S
C264 C260 1.368 . S
C264 C263 1.523 . S
H265 C240 0.950 . S
H266 C242 0.950 . S
H267 C243 0.949 . S
H268 C245 0.950 . S
H269 C247 0.950 . S
C270 C271 1.349 . S
C270 C272 1.327 . S
C270 H295 0.950 . S
C271 C270 1.349 . S
C271 C287 1.349 . S
C272 C270 1.327 . S
C272 C291 1.429 . S
C272 H296 0.950 . S
C273 C290 1.574 . S
C273 C292 1.368 . S
C273 H297 0.949 . S
H274 C278 0.949 . S
C275 C276 1.349 . S
C275 C277 1.327 . S
C275 H298 0.950 . S
C276 C275 1.349 . S
C276 C288 1.349 . S
C277 C275 1.327 . S
C277 C293 1.429 . S
C277 H299 0.950 . S
C278 H274 0.949 . S
C278 C286 1.574 . S
C278 C294 1.368 . S
H279 C287 0.950 . S
H280 C285 0.950 . S
H281 C286 0.949 . S
H282 C288 0.950 . S
H283 C289 0.950 . S
H284 C290 0.949 . S
C285 H280 0.950 . S
C285 C287 1.327 . S
C285 C291 1.429 . S
C286 C278 1.574 . S
C286 H281 0.949 . S
C286 C292 1.368 . S
C287 C271 1.349 . S
C287 H279 0.950 . S
C287 C285 1.327 . S
C288 C276 1.349 . S
C288 H282 0.950 . S
C288 C289 1.327 . S
C289 H283 0.950 . S
C289 C288 1.327 . S
C289 C293 1.429 . S
C290 C273 1.574 . S
C290 H284 0.949 . S
C290 C294 1.368 . S
C291 C272 1.429 . S
C291 C285 1.429 . S
C291 C292 1.523 . S
C292 C273 1.368 . S
C292 C286 1.368 . S
C292 C291 1.523 . S
C293 C277 1.429 . S
C293 C289 1.429 . S
C293 C294 1.523 . S
C294 C278 1.368 . S
C294 C290 1.368 . S
C294 C293 1.523 . S
H295 C270 0.950 . S
H296 C272 0.950 . S
H297 C273 0.949 . S
H298 C275 0.950 . S
H299 C277 0.950 . S
C300 C301 1.349 . S
C300 C302 1.327 . S
C300 H325 0.950 . S
C301 C300 1.349 . S
C301 C317 1.349 . S
C302 C300 1.327 . S
C302 C321 1.429 . S
C302 H326 0.950 . S
C303 C320 1.574 . S
C303 C322 1.368 1_556 S
C303 H327 0.949 . S
H304 C308 0.949 . S
C305 C306 1.349 . S
C305 C307 1.327 . S
C305 H328 0.950 . S
C306 C305 1.349 . S
C306 C318 1.349 . S
C307 C305 1.327 . S
C307 C323 1.429 . S
C307 H329 0.950 . S
C308 H304 0.949 . S
C308 C316 1.574 1_556 S
C308 C324 1.368 . S
H309 C317 0.950 . S
H310 C315 0.950 . S
H311 C316 0.949 . S
H312 C318 0.950 . S
H313 C319 0.950 . S
H314 C320 0.949 . S
C315 H310 0.950 . S
C315 C317 1.327 . S
C315 C321 1.429 . S
C316 C308 1.574 1_554 S
C316 H311 0.949 . S
C316 C322 1.368 . S
C317 C301 1.349 . S
C317 H309 0.950 . S
C317 C315 1.327 . S
C318 C306 1.349 . S
C318 H312 0.950 . S
C318 C319 1.327 . S
C319 H313 0.950 . S
C319 C318 1.327 . S
C319 C323 1.429 . S
C320 C303 1.574 . S
C320 H314 0.949 . S
C320 C324 1.368 . S
C321 C302 1.429 . S
C321 C315 1.429 . S
C321 C322 1.523 . S
C322 C303 1.368 1_554 S
C322 C316 1.368 . S
C322 C321 1.523 . S
C323 C307 1.429 . S
C323 C319 1.429 . S
C323 C324 1.523 . S
C324 C308 1.368 . S
C324 C320 1.368 . S
C324 C323 1.523 . S
H325 C300 0.950 . S
H326 C302 0.950 . S
H327 C303 0.949 . S
H328 C305 0.950 . S
H329 C307 0.950 . S
C330 C331 1.349 . S
C330 C332 1.327 . S
C330 H355 0.950 . S
C331 C330 1.349 . S
C331 C347 1.349 . S
C332 C330 1.327 . S
C332 C351 1.429 . S
C332 H356 0.950 . S
C333 C350 1.574 . S
C333 C352 1.368 . S
C333 H357 0.949 . S
H334 C338 0.949 . S
C335 C336 1.349 . S
C335 C337 1.327 . S
C335 H358 0.950 . S
C336 C335 1.349 . S
C336 C348 1.349 . S
C337 C335 1.327 . S
C337 C353 1.429 . S
C337 H359 0.950 . S
C338 H334 0.949 . S
C338 C346 1.574 . S
C338 C354 1.368 . S
H339 C347 0.950 . S
H340 C345 0.950 . S
H341 C346 0.949 . S
H342 C348 0.950 . S
H343 C349 0.950 . S
H344 C350 0.949 . S
C345 H340 0.950 . S
C345 C347 1.327 . S
C345 C351 1.429 . S
C346 C338 1.574 . S
C346 H341 0.949 . S
C346 C352 1.368 . S
C347 C331 1.349 . S
C347 H339 0.950 . S
C347 C345 1.327 . S
C348 C336 1.349 . S
C348 H342 0.950 . S
C348 C349 1.327 . S
C349 H343 0.950 . S
C349 C348 1.327 . S
C349 C353 1.429 . S
C350 C333 1.574 . S
C350 H344 0.949 . S
C350 C354 1.368 . S
C351 C332 1.429 . S
C351 C345 1.429 . S
C351 C352 1.523 . S
C352 C333 1.368 . S
C352 C346 1.368 . S
C352 C351 1.523 . S
C353 C337 1.429 . S
C353 C349 1.429 . S
C353 C354 1.523 . S
C354 C338 1.368 . S
C354 C350 1.368 . S
C354 C353 1.523 . S
H355 C330 0.950 . S
H356 C332 0.950 . S
H357 C333 0.949 . S
H358 C335 0.950 . S
H359 C337 0.950 . S
C360 C361 1.349 . S
C360 C362 1.327 . S
C360 H385 0.950 . S
C361 C360 1.349 . S
C361 C377 1.349 . S
C362 C360 1.327 . S
C362 C381 1.429 . S
C362 H386 0.950 . S
C363 C380 1.574 . S
C363 C382 1.368 . S
C363 H387 0.949 . S
H364 C368 0.949 . S
C365 C366 1.349 . S
C365 C367 1.327 . S
C365 H388 0.950 . S
C366 C365 1.349 . S
C366 C378 1.349 . S
C367 C365 1.327 . S
C367 C383 1.429 . S
C367 H389 0.950 . S
C368 H364 0.949 . S
C368 C376 1.574 . S
C368 C384 1.368 . S
H369 C377 0.950 . S
H370 C375 0.950 . S
H371 C376 0.949 . S
H372 C378 0.950 . S
H373 C379 0.950 . S
H374 C380 0.949 . S
C375 H370 0.950 . S
C375 C377 1.327 . S
C375 C381 1.429 . S
C376 C368 1.574 . S
C376 H371 0.949 . S
C376 C382 1.368 . S
C377 C361 1.349 . S
C377 H369 0.950 . S
C377 C375 1.327 . S
C378 C366 1.349 . S
C378 H372 0.950 . S
C378 C379 1.327 . S
C379 H373 0.950 . S
C379 C378 1.327 . S
C379 C383 1.429 . S
C380 C363 1.574 . S
C380 H374 0.949 . S
C380 C384 1.368 . S
C381 C362 1.429 . S
C381 C375 1.429 . S
C381 C382 1.523 . S
C382 C363 1.368 . S
C382 C376 1.368 . S
C382 C381 1.523 . S
C383 C367 1.429 . S
C383 C379 1.429 . S
C383 C384 1.523 . S
C384 C368 1.368 . S
C384 C380 1.368 . S
C384 C383 1.523 . S
H385 C360 0.950 . S
H386 C362 0.950 . S
H387 C363 0.949 . S
H388 C365 0.950 . S
H389 C367 0.950 . S
C390 C391 1.349 . S
C390 C392 1.327 . S
C390 H415 0.950 . S
C391 C390 1.349 . S
C391 C407 1.349 . S
C392 C390 1.327 . S
C392 C411 1.429 . S
C392 H416 0.950 . S
C393 C410 1.574 . S
C393 C412 1.368 . S
C393 H417 0.949 . S
H394 C398 0.949 . S
C395 C396 1.349 . S
C395 C397 1.327 . S
C395 H418 0.950 . S
C396 C395 1.349 . S
C396 C408 1.349 . S
C397 C395 1.327 . S
C397 C413 1.429 . S
C397 H419 0.950 . S
C398 H394 0.949 . S
C398 C406 1.574 . S
C398 C414 1.368 . S
H399 C407 0.950 . S
H400 C405 0.950 . S
H401 C406 0.949 . S
H402 C408 0.950 . S
H403 C409 0.950 . S
H404 C410 0.949 . S
C405 H400 0.950 . S
C405 C407 1.327 . S
C405 C411 1.429 . S
C406 C398 1.574 . S
C406 H401 0.949 . S
C406 C412 1.368 . S
C407 C391 1.349 . S
C407 H399 0.950 . S
C407 C405 1.327 . S
C408 C396 1.349 . S
C408 H402 0.950 . S
C408 C409 1.327 . S
C409 H403 0.950 . S
C409 C408 1.327 . S
C409 C413 1.429 . S
C410 C393 1.574 . S
C410 H404 0.949 . S
C410 C414 1.368 . S
C411 C392 1.429 . S
C411 C405 1.429 . S
C411 C412 1.523 . S
C412 C393 1.368 . S
C412 C406 1.368 . S
C412 C411 1.523 . S
C413 C397 1.429 . S
C413 C409 1.429 . S
C413 C414 1.523 . S
C414 C398 1.368 . S
C414 C410 1.368 . S
C414 C413 1.523 . S
H415 C390 0.950 . S
H416 C392 0.950 . S
H417 C393 0.949 . S
H418 C395 0.950 . S
H419 C397 0.950 . S
C420 C421 1.349 . S
C420 C422 1.327 . S
C420 H445 0.950 . S
C421 C420 1.349 . S
C421 C437 1.349 . S
C422 C420 1.327 . S
C422 C441 1.429 . S
C422 H446 0.950 . S
C423 C440 1.574 . S
C423 C442 1.368 . S
C423 H447 0.949 . S
H424 C428 0.949 . S
C425 C426 1.349 . S
C425 C427 1.327 . S
C425 H448 0.950 . S
C426 C425 1.349 . S
C426 C438 1.349 . S
C427 C425 1.327 . S
C427 C443 1.429 . S
C427 H449 0.950 . S
C428 H424 0.949 . S
C428 C436 1.574 . S
C428 C444 1.368 . S
H429 C437 0.950 . S
H430 C435 0.950 . S
H431 C436 0.949 . S
H432 C438 0.950 . S
H433 C439 0.950 . S
H434 C440 0.949 . S
C435 H430 0.950 . S
C435 C437 1.327 . S
C435 C441 1.429 . S
C436 C428 1.574 . S
C436 H431 0.949 . S
C436 C442 1.368 . S
C437 C421 1.349 . S
C437 H429 0.950 . S
C437 C435 1.327 . S
C438 C426 1.349 . S
C438 H432 0.950 . S
C438 C439 1.327 . S
C439 H433 0.950 . S
C439 C438 1.327 . S
C439 C443 1.429 . S
C440 C423 1.574 . S
C440 H434 0.949 . S
C440 C444 1.368 . S
C441 C422 1.429 . S
C441 C435 1.429 . S
C441 C442 1.523 . S
C442 C423 1.368 . S
C442 C436 1.368 . S
C442 C441 1.523 . S
C443 C427 1.429 . S
C443 C439 1.429 . S
C443 C444 1.523 . S
C444 C428 1.368 . S
C444 C440 1.368 . S
C444 C443 1.523 . S
H445 C420 0.950 . S
H446 C422 0.950 . S
H447 C423 0.949 . S
H448 C425 0.950 . S
H449 C427 0.950 . S
C450 C451 1.349 . S
C450 C452 1.327 . S
C450 H475 0.950 . S
C451 C450 1.349 . S
C451 C467 1.349 . S
C452 C450 1.327 . S
C452 C471 1.429 . S
C452 H476 0.950 . S
C453 C470 1.574 . S
C453 C472 1.368 . S
C453 H477 0.949 . S
H454 C458 0.949 . S
C455 C456 1.349 . S
C455 C457 1.327 . S
C455 H478 0.950 . S
C456 C455 1.349 . S
C456 C468 1.349 . S
C457 C455 1.327 . S
C457 C473 1.429 1_655 S
C457 H479 0.950 . S
C458 H454 0.949 . S
C458 C466 1.574 . S
C458 C474 1.368 . S
H459 C467 0.950 . S
H460 C465 0.950 . S
H461 C466 0.949 . S
H462 C468 0.950 . S
H463 C469 0.950 . S
H464 C470 0.949 . S
C465 H460 0.950 . S
C465 C467 1.327 . S
C465 C471 1.429 . S
C466 C458 1.574 . S
C466 H461 0.949 . S
C466 C472 1.368 . S
C467 C451 1.349 . S
C467 H459 0.950 . S
C467 C465 1.327 . S
C468 C456 1.349 . S
C468 H462 0.950 . S
C468 C469 1.327 1_655 S
C469 H463 0.950 . S
C469 C468 1.327 1_455 S
C469 C473 1.429 . S
C470 C453 1.574 . S
C470 H464 0.949 . S
C470 C474 1.368 . S
C471 C452 1.429 . S
C471 C465 1.429 . S
C471 C472 1.523 . S
C472 C453 1.368 . S
C472 C466 1.368 . S
C472 C471 1.523 . S
C473 C457 1.429 1_455 S
C473 C469 1.429 . S
C473 C474 1.523 . S
C474 C458 1.368 . S
C474 C470 1.368 . S
C474 C473 1.523 . S
H475 C450 0.950 . S
H476 C452 0.950 . S
H477 C453 0.949 . S
H478 C455 0.950 . S
H479 C457 0.950 . S
C480 C481 1.349 . S
C480 C482 1.327 . S
C480 H505 0.950 . S
C481 C480 1.349 . S
C481 C497 1.366 . S
C482 C480 1.327 . S
C482 C501 1.429 1_545 S
C482 H506 0.950 . S
C483 C500 1.574 . S
C483 C502 1.368 . S
C483 H507 0.949 . S
H484 C488 0.949 . S
C485 C486 1.349 . S
C485 C487 1.327 . S
C485 H508 0.950 . S
C486 C485 1.349 . S
C486 C498 1.349 . S
C487 C485 1.327 . S
C487 C503 1.429 . S
C487 H509 0.950 . S
C488 H484 0.949 . S
C488 C496 1.574 . S
C488 C504 1.368 . S
H489 C497 0.950 1_565 S
H490 C495 0.950 . S
H491 C496 0.949 1_545 S
H492 C498 0.950 . S
H493 C499 0.950 . S
H494 C500 0.949 . S
C495 H490 0.950 . S
C495 C497 1.309 1_565 S
C495 C501 1.429 . S
C496 C488 1.574 . S
C496 H491 0.949 1_565 S
C496 C502 1.368 . S
C497 C481 1.366 . S
C497 H489 0.950 1_545 S
C497 C495 1.309 1_545 S
C498 C486 1.349 . S
C498 H492 0.950 . S
C498 C499 1.327 . S
C499 H493 0.950 . S
C499 C498 1.327 . S
C499 C503 1.429 . S
C500 C483 1.574 . S
C500 H494 0.949 . S
C500 C504 1.368 . S
C501 C482 1.429 1_565 S
C501 C495 1.429 . S
C501 C502 1.523 . S
C502 C483 1.368 . S
C502 C496 1.368 . S
C502 C501 1.523 . S
C503 C487 1.429 . S
C503 C499 1.429 . S
C503 C504 1.523 . S
C504 C488 1.368 . S
C504 C500 1.368 . S
C504 C503 1.523 . S
H505 C480 0.950 . S
H506 C482 0.950 . S
H507 C483 0.949 . S
H508 C485 0.950 . S
H509 C487 0.950 . S
C510 C511 1.349 . S
C510 C512 1.327 . S
C510 H535 0.950 . S
C511 C510 1.349 . S
C511 C527 1.349 . S
C512 C510 1.327 . S
C512 C531 1.429 . S
C512 H536 0.950 . S
C513 C530 1.574 . S
C513 C532 1.368 . S
C513 H537 0.949 . S
H514 C518 0.949 . S
C515 C516 1.349 . S
C515 C517 1.327 . S
C515 H538 0.950 . S
C516 C515 1.349 . S
C516 C528 1.349 . S
C517 C515 1.327 . S
C517 C533 1.429 . S
C517 H539 0.950 . S
C518 H514 0.949 . S
C518 C526 1.574 . S
C518 C534 1.368 . S
H519 C527 0.950 . S
H520 C525 0.950 . S
H521 C526 0.949 . S
H522 C528 0.950 . S
H523 C529 0.950 . S
H524 C530 0.949 . S
C525 H520 0.950 . S
C525 C527 1.327 . S
C525 C531 1.429 . S
C526 C518 1.574 . S
C526 H521 0.949 . S
C526 C532 1.368 . S
C527 C511 1.349 . S
C527 H519 0.950 . S
C527 C525 1.327 . S
C528 C516 1.349 . S
C528 H522 0.950 . S
C528 C529 1.327 . S
C529 H523 0.950 . S
C529 C528 1.327 . S
C529 C533 1.429 . S
C530 C513 1.574 . S
C530 H524 0.949 . S
C530 C534 1.368 . S
C531 C512 1.429 . S
C531 C525 1.429 . S
C531 C532 1.523 . S
C532 C513 1.368 . S
C532 C526 1.368 . S
C532 C531 1.523 . S
C533 C517 1.429 . S
C533 C529 1.429 . S
C533 C534 1.523 . S
C534 C518 1.368 . S
C534 C530 1.368 . S
C534 C533 1.523 . S
H535 C510 0.950 . S
H536 C512 0.950 . S
H537 C513 0.949 . S
H538 C515 0.950 . S
H539 C517 0.950 . S
C540 C541 1.349 . S
C540 C542 1.327 . S
C540 H565 0.950 . S
C541 C540 1.349 . S
C541 C557 1.349 . S
C542 C540 1.327 . S
C542 C561 1.429 1_455 S
C542 H566 0.950 . S
C543 C560 1.574 . S
C543 C562 1.368 . S
C543 H567 0.949 . S
H544 C548 0.949 . S
C545 C546 1.349 . S
C545 C547 1.327 . S
C545 H568 0.950 . S
C546 C545 1.349 . S
C546 C558 1.349 . S
C547 C545 1.327 . S
C547 C563 1.429 . S
C547 H569 0.950 . S
C548 H544 0.949 . S
C548 C556 1.574 . S
C548 C564 1.368 . S
H549 C557 0.950 1_655 S
H550 C555 0.950 . S
H551 C556 0.949 1_455 S
H552 C558 0.950 . S
H553 C559 0.950 . S
H554 C560 0.949 . S
C555 H550 0.950 . S
C555 C557 1.327 1_655 S
C555 C561 1.429 . S
C556 C548 1.574 . S
C556 H551 0.949 1_655 S
C556 C562 1.368 . S
C557 C541 1.349 . S
C557 H549 0.950 1_455 S
C557 C555 1.327 1_455 S
C558 C546 1.349 . S
C558 H552 0.950 . S
C558 C559 1.327 . S
C559 H553 0.950 . S
C559 C558 1.327 . S
C559 C563 1.429 . S
C560 C543 1.574 . S
C560 H554 0.949 . S
C560 C564 1.368 . S
C561 C542 1.429 1_655 S
C561 C555 1.429 . S
C561 C562 1.523 . S
C562 C543 1.368 . S
C562 C556 1.368 . S
C562 C561 1.523 . S
C563 C547 1.429 . S
C563 C559 1.429 . S
C563 C564 1.523 . S
C564 C548 1.368 . S
C564 C560 1.368 . S
C564 C563 1.523 . S
H565 C540 0.950 . S
H566 C542 0.950 . S
H567 C543 0.949 . S
H568 C545 0.950 . S
H569 C547 0.950 . S
C570 C571 1.349 . S
C570 C572 1.327 . S
C570 H595 0.950 . S
C571 C570 1.349 . S
C571 C587 1.349 . S
C572 C570 1.327 . S
C572 C591 1.429 1_565 S
C572 H596 0.950 . S
C573 C590 1.574 . S
C573 C592 1.368 . S
C573 H597 0.949 . S
H574 C578 0.949 . S
C575 C576 1.349 . S
C575 C577 1.327 . S
C575 H598 0.950 . S
C576 C575 1.349 . S
C576 C588 1.349 . S
C577 C575 1.327 . S
C577 C593 1.429 . S
C577 H599 0.950 . S
C578 H574 0.949 . S
C578 C586 1.574 . S
C578 C594 1.368 . S
H579 C587 0.950 . S
H580 C585 0.950 . S
H581 C586 0.949 . S
H582 C588 0.950 . S
H583 C589 0.950 . S
H584 C590 0.949 . S
C585 H580 0.950 . S
C585 C587 1.327 1_545 S
C585 C591 1.429 . S
C586 C578 1.574 . S
C586 H581 0.949 . S
C586 C592 1.368 . S
C587 C571 1.349 . S
C587 H579 0.950 . S
C587 C585 1.327 1_565 S
C588 C576 1.349 . S
C588 H582 0.950 . S
C588 C589 1.327 . S
C589 H583 0.950 . S
C589 C588 1.327 . S
C589 C593 1.429 . S
C590 C573 1.574 . S
C590 H584 0.949 . S
C590 C594 1.368 . S
C591 C572 1.429 1_545 S
C591 C585 1.429 . S
C591 C592 1.523 . S
C592 C573 1.368 . S
C592 C586 1.368 . S
C592 C591 1.523 . S
C593 C577 1.429 . S
C593 C589 1.429 . S
C593 C594 1.523 . S
C594 C578 1.368 . S
C594 C590 1.368 . S
C594 C593 1.523 . S
H595 C570 0.950 . S
H596 C572 0.950 . S
H597 C573 0.949 . S
H598 C575 0.950 . S
H599 C577 0.950 . S
C600 C601 1.349 . S
C600 C602 1.327 . S
C600 H625 0.950 . S
C601 C600 1.349 . S
C601 C617 1.349 . S
C602 C600 1.327 . S
C602 C621 1.429 . S
C602 H626 0.950 . S
C603 C620 1.574 . S
C603 C622 1.368 . S
C603 H627 0.949 . S
H604 C608 0.949 . S
C605 C606 1.349 1_556 S
C605 C607 1.327 . S
C605 H628 0.950 . S
C606 C605 1.349 1_554 S
C606 C618 1.350 . S
C607 C605 1.327 . S
C607 C623 1.429 . S
C607 H629 0.950 . S
C608 H604 0.949 . S
C608 C616 1.574 . S
C608 C624 1.368 . S
H609 C617 0.950 . S
H610 C615 0.950 . S
H611 C616 0.949 . S
H612 C618 0.952 . S
H613 C619 0.950 . S
H614 C620 0.949 . S
C615 H610 0.950 . S
C615 C617 1.327 . S
C615 C621 1.429 . S
C616 C608 1.574 . S
C616 H611 0.949 . S
C616 C622 1.368 . S
C617 C601 1.349 . S
C617 H609 0.950 . S
C617 C615 1.327 . S
C618 C606 1.350 . S
C618 H612 0.952 . S
C618 C619 1.324 1_554 S
C619 H613 0.950 . S
C619 C618 1.324 1_556 S
C619 C623 1.429 . S
C620 C603 1.574 . S
C620 H614 0.949 . S
C620 C624 1.368 . S
C621 C602 1.429 . S
C621 C615 1.429 . S
C621 C622 1.523 . S
C622 C603 1.368 . S
C622 C616 1.368 . S
C622 C621 1.523 . S
C623 C607 1.429 . S
C623 C619 1.429 . S
C623 C624 1.523 . S
C624 C608 1.368 . S
C624 C620 1.368 . S
C624 C623 1.523 . S
H625 C600 0.950 . S
H626 C602 0.950 . S
H627 C603 0.949 . S
H628 C605 0.950 . S
H629 C607 0.950 . S
C630 C631 1.349 . S
C630 C632 1.327 . S
C630 H655 0.950 . S
C631 C630 1.349 . S
C631 C647 1.349 . S
C632 C630 1.327 . S
C632 C651 1.429 . S
C632 H656 0.950 . S
C633 C650 1.574 . S
C633 C652 1.368 1_455 S
C633 H657 0.949 . S
H634 C638 0.949 . S
C635 C636 1.349 . S
C635 C637 1.327 . S
C635 H658 0.950 . S
C636 C635 1.349 . S
C636 C648 1.349 . S
C637 C635 1.327 . S
C637 C653 1.429 . S
C637 H659 0.950 . S
C638 H634 0.949 . S
C638 C646 1.574 . S
C638 C654 1.368 1_655 S
H639 C647 0.950 . S
H640 C645 0.950 1_455 S
H641 C646 0.949 . S
H642 C648 0.950 . S
H643 C649 0.950 1_655 S
H644 C650 0.949 . S
C645 H640 0.950 1_655 S
C645 C647 1.327 . S
C645 C651 1.429 . S
C646 C638 1.574 . S
C646 H641 0.949 . S
C646 C652 1.368 . S
C647 C631 1.349 . S
C647 H639 0.950 . S
C647 C645 1.327 . S
C648 C636 1.349 . S
C648 H642 0.950 . S
C648 C649 1.327 . S
C649 H643 0.950 1_455 S
C649 C648 1.327 . S
C649 C653 1.429 . S
C650 C633 1.574 . S
C650 H644 0.949 . S
C650 C654 1.368 . S
C651 C632 1.429 . S
C651 C645 1.429 . S
C651 C652 1.523 . S
C652 C633 1.368 1_655 S
C652 C646 1.368 . S
C652 C651 1.523 . S
C653 C637 1.429 . S
C653 C649 1.429 . S
C653 C654 1.523 . S
C654 C638 1.368 1_455 S
C654 C650 1.368 . S
C654 C653 1.523 . S
H655 C630 0.950 . S
H656 C632 0.950 . S
H657 C633 0.949 . S
H658 C635 0.950 . S
H659 C637 0.950 . S
C660 C661 1.349 . S
C660 C662 1.327 . S
C660 H685 0.950 . S
C661 C660 1.349 . S
C661 C677 1.349 . S
C662 C660 1.327 . S
C662 C681 1.429 . S
C662 H686 0.950 . S
C663 C680 1.574 . S
C663 C682 1.368 1_545 S
C663 H687 0.949 . S
H664 C668 0.949 . S
C665 C666 1.349 . S
C665 C667 1.327 . S
C665 H688 0.950 . S
C666 C665 1.349 . S
C666 C678 1.349 . S
C667 C665 1.327 . S
C667 C683 1.429 . S
C667 H689 0.950 . S
C668 H664 0.949 . S
C668 C676 1.574 1_545 S
C668 C684 1.368 . S
H669 C677 0.950 . S
H670 C675 0.950 . S
H671 C676 0.949 . S
H672 C678 0.950 . S
H673 C679 0.950 . S
H674 C680 0.949 . S
C675 H670 0.950 . S
C675 C677 1.327 . S
C675 C681 1.429 . S
C676 C668 1.574 1_565 S
C676 H671 0.949 . S
C676 C682 1.368 . S
C677 C661 1.349 . S
C677 H669 0.950 . S
C677 C675 1.327 . S
C678 C666 1.349 . S
C678 H672 0.950 . S
C678 C679 1.327 . S
C679 H673 0.950 . S
C679 C678 1.327 . S
C679 C683 1.429 . S
C680 C663 1.574 . S
C680 H674 0.949 . S
C680 C684 1.368 . S
C681 C662 1.429 . S
C681 C675 1.429 . S
C681 C682 1.523 . S
C682 C663 1.368 1_565 S
C682 C676 1.368 . S
C682 C681 1.523 . S
C683 C667 1.429 . S
C683 C679 1.429 . S
C683 C684 1.523 . S
C684 C668 1.368 . S
C684 C680 1.368 . S
C684 C683 1.523 . S
H685 C660 0.950 . S
H686 C662 0.950 . S
H687 C663 0.949 . S
H688 C665 0.950 . S
H689 C667 0.950 . S
C690 C691 1.349 . S
C690 C692 1.327 . S
C690 H715 0.950 . S
C691 C690 1.349 . S
C691 C707 1.349 . S
C692 C690 1.327 . S
C692 C711 1.429 . S
C692 H716 0.950 . S
C693 C710 1.574 . S
C693 C712 1.368 . S
C693 H717 0.949 . S
H694 C698 0.949 . S
C695 C696 1.349 . S
C695 C697 1.327 1_554 S
C695 H718 0.950 . S
C696 C695 1.349 . S
C696 C708 1.349 1_554 S
C697 C695 1.327 1_556 S
C697 C713 1.429 . S
C697 H719 0.950 . S
C698 H694 0.949 . S
C698 C706 1.574 . S
C698 C714 1.368 . S
H699 C707 0.950 . S
H700 C705 0.950 . S
H701 C706 0.949 . S
H702 C708 0.950 . S
H703 C709 0.950 . S
H704 C710 0.949 . S
C705 H700 0.950 . S
C705 C707 1.327 . S
C705 C711 1.429 . S
C706 C698 1.574 . S
C706 H701 0.949 . S
C706 C712 1.368 . S
C707 C691 1.349 . S
C707 H699 0.950 . S
C707 C705 1.327 . S
C708 C696 1.349 1_556 S
C708 H702 0.950 . S
C708 C709 1.327 . S
C709 H703 0.950 . S
C709 C708 1.327 . S
C709 C713 1.429 . S
C710 C693 1.574 . S
C710 H704 0.949 . S
C710 C714 1.368 . S
C711 C692 1.429 . S
C711 C705 1.429 . S
C711 C712 1.523 . S
C712 C693 1.368 . S
C712 C706 1.368 . S
C712 C711 1.523 . S
C713 C697 1.429 . S
C713 C709 1.429 . S
C713 C714 1.523 . S
C714 C698 1.368 . S
C714 C710 1.368 . S
C714 C713 1.523 . S
H715 C690 0.950 . S
H716 C692 0.950 . S
H717 C693 0.949 . S
H718 C695 0.950 . S
H719 C697 0.950 . S
C720 C721 1.349 . S
C720 C722 1.327 . S
C720 H745 0.950 . S
C721 C720 1.349 . S
C721 C737 1.349 . S
C722 C720 1.327 . S
C722 C741 1.429 . S
C722 H746 0.950 . S
C723 C740 1.574 . S
C723 C742 1.368 1_655 S
C723 H747 0.949 . S
H724 C728 0.949 . S
C725 C726 1.349 . S
C725 C727 1.327 . S
C725 H748 0.950 . S
C726 C725 1.349 . S
C726 C738 1.349 . S
C727 C725 1.327 . S
C727 C743 1.429 . S
C727 H749 0.950 . S
C728 H724 0.949 . S
C728 C736 1.574 . S
C728 C744 1.368 1_455 S
H729 C737 0.950 . S
H730 C735 0.950 . S
H731 C736 0.949 . S
H732 C738 0.950 . S
H733 C739 0.950 . S
H734 C740 0.949 . S
C735 H730 0.950 . S
C735 C737 1.327 . S
C735 C741 1.429 . S
C736 C728 1.574 . S
C736 H731 0.949 . S
C736 C742 1.368 . S
C737 C721 1.349 . S
C737 H729 0.950 . S
C737 C735 1.327 . S
C738 C726 1.349 . S
C738 H732 0.950 . S
C738 C739 1.327 . S
C739 H733 0.950 . S
C739 C738 1.327 . S
C739 C743 1.429 . S
C740 C723 1.574 . S
C740 H734 0.949 . S
C740 C744 1.368 . S
C741 C722 1.429 . S
C741 C735 1.429 . S
C741 C742 1.523 . S
C742 C723 1.368 1_455 S
C742 C736 1.368 . S
C742 C741 1.523 . S
C743 C727 1.429 . S
C743 C739 1.429 . S
C743 C744 1.523 . S
C744 C728 1.368 1_655 S
C744 C740 1.368 . S
C744 C743 1.523 . S
H745 C720 0.950 . S
H746 C722 0.950 . S
H747 C723 0.949 . S
H748 C725 0.950 . S
H749 C727 0.950 . S
C750 C751 1.349 . S
C750 C752 1.327 . S
C750 H775 0.950 . S
C751 C750 1.349 . S
C751 C767 1.349 . S
C752 C750 1.327 . S
C752 C771 1.429 . S
C752 H776 0.950 . S
C753 C770 1.574 . S
C753 C772 1.368 1_565 S
C753 H777 0.949 . S
H754 C758 0.949 . S
C755 C756 1.349 . S
C755 C757 1.327 . S
C755 H778 0.950 . S
C756 C755 1.349 . S
C756 C768 1.349 . S
C757 C755 1.327 . S
C757 C773 1.429 . S
C757 H779 0.950 . S
C758 H754 0.949 . S
C758 C766 1.574 . S
C758 C774 1.368 1_545 S
H759 C767 0.950 . S
H760 C765 0.950 . S
H761 C766 0.949 . S
H762 C768 0.950 . S
H763 C769 0.950 . S
H764 C770 0.949 . S
C765 H760 0.950 . S
C765 C767 1.327 . S
C765 C771 1.429 . S
C766 C758 1.574 . S
C766 H761 0.949 . S
C766 C772 1.368 . S
C767 C751 1.349 . S
C767 H759 0.950 . S
C767 C765 1.327 . S
C768 C756 1.349 . S
C768 H762 0.950 . S
C768 C769 1.327 . S
C769 H763 0.950 . S
C769 C768 1.327 . S
C769 C773 1.429 . S
C770 C753 1.574 . S
C770 H764 0.949 . S
C770 C774 1.368 . S
C771 C752 1.429 . S
C771 C765 1.429 . S
C771 C772 1.523 . S
C772 C753 1.368 1_545 S
C772 C766 1.368 . S
C772 C771 1.523 . S
C773 C757 1.429 . S
C773 C769 1.429 . S
C773 C774 1.523 . S
C774 C758 1.368 1_565 S
C774 C770 1.368 . S
C774 C773 1.523 . S
H775 C750 0.950 . S
H776 C752 0.950 . S
H777 C753 0.949 . S
H778 C755 0.950 . S
H779 C757 0.950 . S
C241 C184 1.187 . S
C246 C26 1.189 . S
C271 C226 1.189 . S
C276 C64 1.187 . S
C301 C24 1.187 . S
C306 C106 1.188 . S
C331 C66 1.189 . S
C336 C144 1.187 . S
C361 C104 1.187 . S
C366 C186 1.188 . S
C391 C146 1.189 . S
C396 C224 1.187 . S
C421 C2 1.225 . S
C426 C143 1.285 . S
C451 C162 1.225 . S
C456 C63 1.285 . S
C481 C223 1.285 . S
C486 C82 1.225 . S
C511 C103 1.285 . S
C516 C202 1.225 . S
C541 C23 1.285 . S
C546 C122 1.225 . S
C571 C183 1.285 . S
C576 C42 1.225 . S
C601 C217 0.661 . S
C606 C17 0.661 . S
C631 C53 1.482 . S
C636 C13 1.482 . S
C661 C97 0.661 . S
C666 C57 0.661 . S
C691 C93 1.482 . S
C696 C133 1.482 . S
C721 C177 0.661 . S
C726 C137 0.661 . S
C751 C213 1.482 . S
C756 C173 1.482 . S
