# Generated by pormake.
# Topology wio, (6)-cn, num edge types: 1
# Building blocks:
#     Node 0, Type 0, BuildingBlock: BETDAH_clean_sbu_0, # of connection points: 6
#     Node 1, Type 0, BuildingBlock: BETDAH_clean_sbu_0, # of connection points: 6
#     Node 2, Type 0, BuildingBlock: BETDAH_clean_sbu_0, # of connection points: 6
#     Node 3, Type 0, BuildingBlock: BETDAH_clean_sbu_0, # of connection points: 6
#     Node 4, Type 0, BuildingBlock: BETDAH_clean_sbu_0, # of connection points: 6
#     Node 5, Type 0, BuildingBlock: BETDAH_clean_sbu_0, # of connection points: 6
#     Node 6, Type 0, BuildingBlock: BETDAH_clean_sbu_0, # of connection points: 6
#     Node 7, Type 0, BuildingBlock: BETDAH_clean_sbu_0, # of connection points: 6
#     Node 8, Type 0, BuildingBlock: BETDAH_clean_sbu_0, # of connection points: 6
#     Node 9, Type 0, BuildingBlock: BETDAH_clean_sbu_0, # of connection points: 6
#     Node 10, Type 0, BuildingBlock: BETDAH_clean_sbu_0, # of connection points: 6
#     Node 11, Type 0, BuildingBlock: BETDAH_clean_sbu_0, # of connection points: 6
#     Node 12, Type 0, BuildingBlock: BETDAH_clean_sbu_0, # of connection points: 6
#     Node 13, Type 0, BuildingBlock: BETDAH_clean_sbu_0, # of connection points: 6
#     Node 14, Type 0, BuildingBlock: BETDAH_clean_sbu_0, # of connection points: 6
#     Node 15, Type 0, BuildingBlock: BETDAH_clean_sbu_0, # of connection points: 6
#     Node 16, Type 0, BuildingBlock: BETDAH_clean_sbu_0, # of connection points: 6
#     Node 17, Type 0, BuildingBlock: BETDAH_clean_sbu_0, # of connection points: 6
#     Node 18, Type 0, BuildingBlock: BETDAH_clean_sbu_0, # of connection points: 6
#     Node 19, Type 0, BuildingBlock: BETDAH_clean_sbu_0, # of connection points: 6
#     Node 20, Type 0, BuildingBlock: BETDAH_clean_sbu_0, # of connection points: 6
#     Node 21, Type 0, BuildingBlock: BETDAH_clean_sbu_0, # of connection points: 6
#     Node 22, Type 0, BuildingBlock: BETDAH_clean_sbu_0, # of connection points: 6
#     Node 23, Type 0, BuildingBlock: BETDAH_clean_sbu_0, # of connection points: 6
#     Node 24, Type 0, BuildingBlock: BETDAH_clean_sbu_0, # of connection points: 6
#     Node 25, Type 0, BuildingBlock: BETDAH_clean_sbu_0, # of connection points: 6
#     Node 26, Type 0, BuildingBlock: BETDAH_clean_sbu_0, # of connection points: 6
#     Node 27, Type 0, BuildingBlock: BETDAH_clean_sbu_0, # of connection points: 6
#     Node 28, Type 0, BuildingBlock: BETDAH_clean_sbu_0, # of connection points: 6
#     Node 29, Type 0, BuildingBlock: BETDAH_clean_sbu_0, # of connection points: 6
#     Node 30, Type 0, BuildingBlock: BETDAH_clean_sbu_0, # of connection points: 6
#     Node 31, Type 0, BuildingBlock: BETDAH_clean_sbu_0, # of connection points: 6
#     Edge 32, Type (0, 0), BuildingBlock: AJUNOK_clean_linker_0, # of connection points: 2
#     Edge 33, Type (0, 0), BuildingBlock: AJUNOK_clean_linker_0, # of connection points: 2
#     Edge 34, Type (0, 0), BuildingBlock: AJUNOK_clean_linker_0, # of connection points: 2
#     Edge 35, Type (0, 0), BuildingBlock: AJUNOK_clean_linker_0, # of connection points: 2
#     Edge 36, Type (0, 0), BuildingBlock: AJUNOK_clean_linker_0, # of connection points: 2
#     Edge 37, Type (0, 0), BuildingBlock: AJUNOK_clean_linker_0, # of connection points: 2
#     Edge 38, Type (0, 0), BuildingBlock: AJUNOK_clean_linker_0, # of connection points: 2
#     Edge 39, Type (0, 0), BuildingBlock: AJUNOK_clean_linker_0, # of connection points: 2
#     Edge 40, Type (0, 0), BuildingBlock: AJUNOK_clean_linker_0, # of connection points: 2
#     Edge 41, Type (0, 0), BuildingBlock: AJUNOK_clean_linker_0, # of connection points: 2
#     Edge 42, Type (0, 0), BuildingBlock: AJUNOK_clean_linker_0, # of connection points: 2
#     Edge 43, Type (0, 0), BuildingBlock: AJUNOK_clean_linker_0, # of connection points: 2
#     Edge 44, Type (0, 0), BuildingBlock: AJUNOK_clean_linker_0, # of connection points: 2
#     Edge 45, Type (0, 0), BuildingBlock: AJUNOK_clean_linker_0, # of connection points: 2
#     Edge 46, Type (0, 0), BuildingBlock: AJUNOK_clean_linker_0, # of connection points: 2
#     Edge 47, Type (0, 0), BuildingBlock: AJUNOK_clean_linker_0, # of connection points: 2
#     Edge 48, Type (0, 0), BuildingBlock: AJUNOK_clean_linker_0, # of connection points: 2
#     Edge 49, Type (0, 0), BuildingBlock: AJUNOK_clean_linker_0, # of connection points: 2
#     Edge 50, Type (0, 0), BuildingBlock: AJUNOK_clean_linker_0, # of connection points: 2
#     Edge 51, Type (0, 0), BuildingBlock: AJUNOK_clean_linker_0, # of connection points: 2
#     Edge 52, Type (0, 0), BuildingBlock: AJUNOK_clean_linker_0, # of connection points: 2
#     Edge 53, Type (0, 0), BuildingBlock: AJUNOK_clean_linker_0, # of connection points: 2
#     Edge 54, Type (0, 0), BuildingBlock: AJUNOK_clean_linker_0, # of connection points: 2
#     Edge 55, Type (0, 0), BuildingBlock: AJUNOK_clean_linker_0, # of connection points: 2
#     Edge 56, Type (0, 0), BuildingBlock: AJUNOK_clean_linker_0, # of connection points: 2
#     Edge 57, Type (0, 0), BuildingBlock: AJUNOK_clean_linker_0, # of connection points: 2
#     Edge 58, Type (0, 0), BuildingBlock: AJUNOK_clean_linker_0, # of connection points: 2
#     Edge 59, Type (0, 0), BuildingBlock: AJUNOK_clean_linker_0, # of connection points: 2
#     Edge 60, Type (0, 0), BuildingBlock: AJUNOK_clean_linker_0, # of connection points: 2
#     Edge 61, Type (0, 0), BuildingBlock: AJUNOK_clean_linker_0, # of connection points: 2
#     Edge 62, Type (0, 0), BuildingBlock: AJUNOK_clean_linker_0, # of connection points: 2
#     Edge 63, Type (0, 0), BuildingBlock: AJUNOK_clean_linker_0, # of connection points: 2
#     Edge 64, Type (0, 0), BuildingBlock: AJUNOK_clean_linker_0, # of connection points: 2
#     Edge 65, Type (0, 0), BuildingBlock: AJUNOK_clean_linker_0, # of connection points: 2
#     Edge 66, Type (0, 0), BuildingBlock: AJUNOK_clean_linker_0, # of connection points: 2
#     Edge 67, Type (0, 0), BuildingBlock: AJUNOK_clean_linker_0, # of connection points: 2
#     Edge 68, Type (0, 0), BuildingBlock: AJUNOK_clean_linker_0, # of connection points: 2
#     Edge 69, Type (0, 0), BuildingBlock: AJUNOK_clean_linker_0, # of connection points: 2
#     Edge 70, Type (0, 0), BuildingBlock: AJUNOK_clean_linker_0, # of connection points: 2
#     Edge 71, Type (0, 0), BuildingBlock: AJUNOK_clean_linker_0, # of connection points: 2
#     Edge 72, Type (0, 0), BuildingBlock: AJUNOK_clean_linker_0, # of connection points: 2
#     Edge 73, Type (0, 0), BuildingBlock: AJUNOK_clean_linker_0, # of connection points: 2
#     Edge 74, Type (0, 0), BuildingBlock: AJUNOK_clean_linker_0, # of connection points: 2
#     Edge 75, Type (0, 0), BuildingBlock: AJUNOK_clean_linker_0, # of connection points: 2
#     Edge 76, Type (0, 0), BuildingBlock: AJUNOK_clean_linker_0, # of connection points: 2
#     Edge 77, Type (0, 0), BuildingBlock: AJUNOK_clean_linker_0, # of connection points: 2
#     Edge 78, Type (0, 0), BuildingBlock: AJUNOK_clean_linker_0, # of connection points: 2
#     Edge 79, Type (0, 0), BuildingBlock: AJUNOK_clean_linker_0, # of connection points: 2
#     Edge 80, Type (0, 0), BuildingBlock: AJUNOK_clean_linker_0, # of connection points: 2
#     Edge 81, Type (0, 0), BuildingBlock: AJUNOK_clean_linker_0, # of connection points: 2
#     Edge 82, Type (0, 0), BuildingBlock: AJUNOK_clean_linker_0, # of connection points: 2
#     Edge 83, Type (0, 0), BuildingBlock: AJUNOK_clean_linker_0, # of connection points: 2
#     Edge 84, Type (0, 0), BuildingBlock: AJUNOK_clean_linker_0, # of connection points: 2
#     Edge 85, Type (0, 0), BuildingBlock: AJUNOK_clean_linker_0, # of connection points: 2
#     Edge 86, Type (0, 0), BuildingBlock: AJUNOK_clean_linker_0, # of connection points: 2
#     Edge 87, Type (0, 0), BuildingBlock: AJUNOK_clean_linker_0, # of connection points: 2
#     Edge 88, Type (0, 0), BuildingBlock: AJUNOK_clean_linker_0, # of connection points: 2
#     Edge 89, Type (0, 0), BuildingBlock: AJUNOK_clean_linker_0, # of connection points: 2
#     Edge 90, Type (0, 0), BuildingBlock: AJUNOK_clean_linker_0, # of connection points: 2
#     Edge 91, Type (0, 0), BuildingBlock: AJUNOK_clean_linker_0, # of connection points: 2
#     Edge 92, Type (0, 0), BuildingBlock: AJUNOK_clean_linker_0, # of connection points: 2
#     Edge 93, Type (0, 0), BuildingBlock: AJUNOK_clean_linker_0, # of connection points: 2
#     Edge 94, Type (0, 0), BuildingBlock: AJUNOK_clean_linker_0, # of connection points: 2
#     Edge 95, Type (0, 0), BuildingBlock: AJUNOK_clean_linker_0, # of connection points: 2
#     Edge 96, Type (0, 0), BuildingBlock: AJUNOK_clean_linker_0, # of connection points: 2
#     Edge 97, Type (0, 0), BuildingBlock: AJUNOK_clean_linker_0, # of connection points: 2
#     Edge 98, Type (0, 0), BuildingBlock: AJUNOK_clean_linker_0, # of connection points: 2
#     Edge 99, Type (0, 0), BuildingBlock: AJUNOK_clean_linker_0, # of connection points: 2
#     Edge 100, Type (0, 0), BuildingBlock: AJUNOK_clean_linker_0, # of connection points: 2
#     Edge 101, Type (0, 0), BuildingBlock: AJUNOK_clean_linker_0, # of connection points: 2
#     Edge 102, Type (0, 0), BuildingBlock: AJUNOK_clean_linker_0, # of connection points: 2
#     Edge 103, Type (0, 0), BuildingBlock: AJUNOK_clean_linker_0, # of connection points: 2
#     Edge 104, Type (0, 0), BuildingBlock: AJUNOK_clean_linker_0, # of connection points: 2
#     Edge 105, Type (0, 0), BuildingBlock: AJUNOK_clean_linker_0, # of connection points: 2
#     Edge 106, Type (0, 0), BuildingBlock: AJUNOK_clean_linker_0, # of connection points: 2
#     Edge 107, Type (0, 0), BuildingBlock: AJUNOK_clean_linker_0, # of connection points: 2
#     Edge 108, Type (0, 0), BuildingBlock: AJUNOK_clean_linker_0, # of connection points: 2
#     Edge 109, Type (0, 0), BuildingBlock: AJUNOK_clean_linker_0, # of connection points: 2
#     Edge 110, Type (0, 0), BuildingBlock: AJUNOK_clean_linker_0, # of connection points: 2
#     Edge 111, Type (0, 0), BuildingBlock: AJUNOK_clean_linker_0, # of connection points: 2
#     Edge 112, Type (0, 0), BuildingBlock: AJUNOK_clean_linker_0, # of connection points: 2
#     Edge 113, Type (0, 0), BuildingBlock: AJUNOK_clean_linker_0, # of connection points: 2
#     Edge 114, Type (0, 0), BuildingBlock: AJUNOK_clean_linker_0, # of connection points: 2
#     Edge 115, Type (0, 0), BuildingBlock: AJUNOK_clean_linker_0, # of connection points: 2
#     Edge 116, Type (0, 0), BuildingBlock: AJUNOK_clean_linker_0, # of connection points: 2
#     Edge 117, Type (0, 0), BuildingBlock: AJUNOK_clean_linker_0, # of connection points: 2
#     Edge 118, Type (0, 0), BuildingBlock: AJUNOK_clean_linker_0, # of connection points: 2
#     Edge 119, Type (0, 0), BuildingBlock: AJUNOK_clean_linker_0, # of connection points: 2
#     Edge 120, Type (0, 0), BuildingBlock: AJUNOK_clean_linker_0, # of connection points: 2
#     Edge 121, Type (0, 0), BuildingBlock: AJUNOK_clean_linker_0, # of connection points: 2
#     Edge 122, Type (0, 0), BuildingBlock: AJUNOK_clean_linker_0, # of connection points: 2
#     Edge 123, Type (0, 0), BuildingBlock: AJUNOK_clean_linker_0, # of connection points: 2
#     Edge 124, Type (0, 0), BuildingBlock: AJUNOK_clean_linker_0, # of connection points: 2
#     Edge 125, Type (0, 0), BuildingBlock: AJUNOK_clean_linker_0, # of connection points: 2
#     Edge 126, Type (0, 0), BuildingBlock: AJUNOK_clean_linker_0, # of connection points: 2
#     Edge 127, Type (0, 0), BuildingBlock: AJUNOK_clean_linker_0, # of connection points: 2
# Relax obj value: 0.216
# Max RMSD: 0.245
# Mean RMSD: 0.245
data_MOF--net-wio--node1-BETDAH_clean_sbu_0--edge1-AJUNOK_clean_linker_0
_symmetry_space_group_name_H-M    P1
_symmetry_Int_Tables_number       1
_symmetry_cell_setting            triclinic
loop_
_symmetry_equiv_pos_as_xyz
'x, y, z'
_cell_length_a     48.022523
_cell_length_b     47.923047
_cell_length_c     42.035093
_cell_angle_alpha  90.130714
_cell_angle_beta   90.098087
_cell_angle_gamma 90.024415
loop_
_atom_site_label
_atom_site_type_symbol
_atom_site_fract_x
_atom_site_fract_y
_atom_site_fract_z
_atom_type_partial_charge
Ho0 Ho 0.16126 0.11802 0.29484 0.0
Ho1 Ho 0.10008 0.13195 0.31036 0.0
C2 C 0.12169 0.14187 0.23815 0.0
C3 C 0.20879 0.10046 0.27436 0.0
C4 C 0.23224 0.11245 0.25647 0.0
C5 C 0.22817 0.12613 0.2273 0.0
C6 C 0.25095 0.13657 0.21046 0.0
C7 C 0.27812 0.13365 0.22254 0.0
C8 C 0.28196 0.12109 0.25238 0.0
C9 C 0.25922 0.11044 0.26909 0.0
C10 C 0.15378 0.16838 0.3228 0.0
C11 C 0.13979 0.10348 0.36413 0.0
C12 C 0.05593 0.1533 0.33675 0.0
C13 C 0.0393 0.15157 0.36654 0.0
C14 C 0.03167 0.1763 0.38233 0.0
C15 C 1.01444 0.17561 0.40925 0.0
C16 C 1.00439 0.15012 0.42119 0.0
C17 C 1.01238 0.1253 0.40555 0.0
C18 C 0.02971 0.126 0.37867 0.0
C19 C 0.10881 0.07796 0.29038 0.0
O20 O 0.14456 0.12834 0.24627 0.0
O21 O 0.10206 0.14834 0.2593 0.0
O22 O 0.20507 0.11077 0.3028 0.0
O23 O 0.18535 0.0964 0.259 0.0
O24 O 0.17655 0.15413 0.32373 0.0
O25 O 0.13758 0.15709 0.30271 0.0
O26 O 0.11785 0.11956 0.35859 0.0
O27 O 0.15644 0.09547 0.34082 0.0
O28 O 0.05531 0.13203 0.31719 0.0
O29 O 0.08074 0.16431 0.33902 0.0
O30 O 0.08596 0.09199 0.28592 0.0
O31 O 0.12461 0.09288 0.30717 0.0
H32 H 0.20751 0.12833 0.21723 0.0
H33 H 0.24741 0.14597 0.18739 0.0
H34 H 0.30263 0.11896 0.26245 0.0
H35 H 0.26275 0.10031 0.29176 0.0
H36 H 0.03872 0.19632 0.37348 0.0
H37 H 1.00883 0.19511 0.42064 0.0
H38 H 1.00455 0.1053 0.41345 0.0
H39 H 0.03513 0.10656 0.36705 0.0
Ho40 Ho 0.16599 0.9181 0.54929 0.0
Ho41 Ho 0.15056 0.85642 0.56185 0.0
C42 C 0.14254 0.88026 0.49035 0.0
C43 C 0.18623 0.96527 0.53068 0.0
C44 C 0.17666 0.98856 0.51104 0.0
C45 C 0.15401 0.98539 0.49023 0.0
C46 C 0.14568 1.0076 0.47097 0.0
C47 C 0.15976 0.0333 0.47248 0.0
C48 C 0.18187 0.03657 0.49413 0.0
C49 C 0.19023 1.01434 0.51329 0.0
C50 C 0.11493 0.91059 0.57499 0.0
C51 C 0.17837 0.89423 0.61833 0.0
C52 C 0.12784 0.81217 0.5865 0.0
C53 C 0.13067 0.79444 0.61524 0.0
C54 C 0.10699 0.78144 0.62812 0.0
C55 C 0.10934 0.76314 0.65406 0.0
C56 C 0.13549 0.75747 0.66767 0.0
C57 C 0.15904 0.77135 0.65541 0.0
C58 C 0.15666 0.78965 0.62955 0.0
C59 C 0.20504 0.86515 0.54438 0.0
O60 O 0.15655 0.90249 0.49997 0.0
O61 O 0.13472 0.86035 0.51057 0.0
O62 O 0.17294 0.96203 0.55748 0.0
O63 O 0.19074 0.94164 0.51585 0.0
O64 O 0.12928 0.93333 0.57696 0.0
O65 O 0.12655 0.89474 0.5548 0.0
O66 O 0.1628 0.87222 0.61111 0.0
O67 O 0.18651 0.91211 0.59635 0.0
O68 O 0.14803 0.81137 0.56561 0.0
O69 O 0.1185 0.83746 0.59103 0.0
O70 O 0.19103 0.84246 0.5385 0.0
O71 O 0.18985 0.88056 0.56122 0.0
H72 H 0.14321 0.96559 0.4884 0.0
H73 H 0.12901 1.0043 0.45399 0.0
H74 H 0.1931 0.05615 0.49565 0.0
H75 H 0.20759 1.01714 0.5295 0.0
H76 H 0.08669 0.78489 0.61755 0.0
H77 H 0.09088 0.75254 0.66254 0.0
H78 H 0.17948 0.76755 0.66543 0.0
H79 H 0.17523 0.79957 0.6203 0.0
Ho80 Ho 0.36745 0.92006 0.80006 0.0
Ho81 Ho 0.42971 0.90971 0.80892 0.0
C82 C 0.40306 0.89552 0.73959 0.0
C83 C 0.31798 0.93642 0.78477 0.0
C84 C 0.29495 0.92713 0.76453 0.0
C85 C 0.26841 0.93841 0.76943 0.0
C86 C 0.24617 0.93021 0.75018 0.0
C87 C 0.25018 0.91052 0.72582 0.0
C88 C 0.27672 0.8987 0.7215 0.0
C89 C 0.29897 0.90691 0.74085 0.0
C90 C 0.37984 0.87174 0.82966 0.0
C91 C 0.39342 0.93834 0.86612 0.0
C92 C 0.47665 0.89162 0.83208 0.0
C93 C 0.49311 0.89386 0.86203 0.0
C94 C 0.50616 0.87003 0.87461 0.0
C95 C 0.5234 0.87193 0.90159 0.0
C96 C 0.528 0.89778 0.91666 0.0
C97 C 0.51421 0.92147 0.90452 0.0
C98 C 0.49697 0.91955 0.87761 0.0
C99 C 0.41633 0.96223 0.78771 0.0
O100 O 0.37926 0.9055 0.7507 0.0
O101 O 0.42569 0.89354 0.75788 0.0
O102 O 0.3233 0.92043 0.80914 0.0
O103 O 0.34054 0.94507 0.77029 0.0
O104 O 0.35785 0.88649 0.83512 0.0
O105 O 0.3932 0.88213 0.8065 0.0
O106 O 0.41559 0.92313 0.85866 0.0
O107 O 0.37451 0.94446 0.84442 0.0
O108 O 0.47439 0.91399 0.81449 0.0
O109 O 0.45334 0.8776 0.8335 0.0
O110 O 0.43897 0.94881 0.78034 0.0
O111 O 0.40345 0.94743 0.80743 0.0
H112 H 0.26499 0.95386 0.78788 0.0
H113 H 0.22594 0.93966 0.75387 0.0
H114 H 0.28052 0.88397 0.70242 0.0
H115 H 0.31935 0.89789 0.73699 0.0
H116 H 0.50357 0.84997 0.86304 0.0
H117 H 0.53402 0.85337 0.90983 0.0
H118 H 0.51716 0.9417 0.91557 0.0
H119 H 0.48711 0.93828 0.86866 0.0
Ho120 Ho 0.36949 0.12125 0.05708 0.0
Ho121 Ho 0.37501 0.18359 0.05788 0.0
C122 C 0.38816 0.15289 0.99128 0.0
C123 C 0.35674 0.06962 0.04614 0.0
C124 C 0.36516 0.04762 1.02385 0.0
C125 C 0.34937 0.02313 1.02194 0.0
C126 C 0.35628 1.00244 0.99991 0.0
C127 C 0.37909 1.00596 0.97937 0.0
C128 C 0.39543 0.03021 0.98204 0.0
C129 C 0.38854 0.05089 1.00422 0.0
C130 C 0.41645 0.13843 0.08582 0.0
C131 C 0.3537 0.15086 0.12091 0.0
C132 C 0.38588 0.23529 0.07247 0.0
C133 C 0.39065 0.25227 0.10159 0.0
C134 C 0.40863 0.27533 0.10029 0.0
C135 C 0.41134 0.29338 0.12642 0.0
C136 C 0.39613 0.28876 0.1545 0.0
C137 C 0.37917 0.26487 0.15638 0.0
C138 C 0.37634 0.24687 0.13014 0.0
C139 C 0.32353 0.16477 1.03985 0.0
O140 O 0.38089 0.12978 1.00616 0.0
O141 O 0.38936 0.1771 1.00671 0.0
O142 O 0.37569 0.07747 0.06659 0.0
O143 O 0.34308 0.09067 1.03393 0.0
O144 O 0.40314 0.11585 0.09271 0.0
O145 O 0.40621 0.14969 0.06097 0.0
O146 O 0.36714 0.17302 0.11004 0.0
O147 O 0.3473 0.1298 0.10211 0.0
O148 O 0.36082 0.2254 0.06838 0.0
O149 O 0.40505 0.21724 0.06451 0.0
O150 O 0.33652 0.18553 1.02667 0.0
O151 O 0.33896 0.15515 0.06138 0.0
H152 H 0.33138 0.02023 1.03711 0.0
H153 H 0.34337 0.98394 0.99838 0.0
H154 H 0.41274 0.03377 0.96607 0.0
H155 H 0.40101 0.06971 1.00552 0.0
H156 H 0.41997 0.27989 0.07865 0.0
H157 H 0.42468 0.31151 0.12433 0.0
H158 H 0.36708 0.26086 0.17761 0.0
H159 H 0.36242 0.22916 0.13191 0.0
Ho160 Ho 0.15958 0.91304 0.28745 0.0
Ho161 Ho 0.09745 0.90307 0.28424 0.0
C162 C 0.12752 0.89135 0.35164 0.0
C163 C 0.21076 0.92561 0.30037 0.0
C164 C 0.23156 0.91943 0.3252 0.0
C165 C 0.22675 0.92618 0.35726 0.0
C166 C 0.24734 0.92136 0.38004 0.0
C167 C 0.27301 0.90965 0.37122 0.0
C168 C 0.27754 0.90205 0.33944 0.0
C169 C 0.257 0.90708 0.31654 0.0
C170 C 0.14483 0.86524 0.25799 0.0
C171 C 0.13032 0.93194 0.224 0.0
C172 C 0.04985 0.88357 0.26436 0.0
C173 C 0.03096 0.88495 0.23639 0.0
C174 C 0.04062 0.89101 0.20556 0.0
C175 C 0.02204 0.8916 0.17959 0.0
C176 C 0.99347 0.88607 0.18398 0.0
C177 C 0.98413 0.87961 0.21484 0.0
C178 C 1.00262 0.87906 0.24063 0.0
C179 C 0.11103 0.95597 0.30365 0.0
O180 O 0.14985 0.90229 0.33822 0.0
O181 O 0.1043 0.88719 0.33495 0.0
O182 O 0.20357 0.90468 0.28219 0.0
O183 O 0.18957 0.94129 0.30834 0.0
O184 O 0.16526 0.88101 0.24941 0.0
O185 O 0.13361 0.87488 0.28311 0.0
O186 O 0.10764 0.91893 0.23433 0.0
O187 O 0.15208 0.936 0.24259 0.0
O188 O 0.05223 0.90593 0.28206 0.0
O189 O 0.07366 0.87091 0.26029 0.0
O190 O 0.08935 0.94204 0.31335 0.0
O191 O 0.12347 0.94116 0.28331 0.0
H192 H 0.20727 0.9355 0.36472 0.0
H193 H 0.24337 0.92709 0.40457 0.0
H194 H 0.29722 0.89303 0.3322 0.0
H195 H 0.26113 0.90169 0.29195 0.0
H196 H 0.06243 0.8955 0.20157 0.0
H197 H 0.02989 0.89715 0.15631 0.0
H198 H 0.96234 0.87517 0.21911 0.0
H199 H 0.99469 0.87404 0.26406 0.0
Ho200 Ho 0.36748 0.91999 0.5438 0.0
Ho201 Ho 0.3796 0.85902 0.53043 0.0
C202 C 0.3927 0.88253 0.60159 0.0
C203 C 0.35111 0.96858 0.56273 0.0
C204 C 0.36238 0.99191 0.58149 0.0
C205 C 0.37647 0.98751 0.61034 0.0
C206 C 0.38582 1.01024 0.62827 0.0
C207 C 0.38135 0.03766 0.61755 0.0
C208 C 0.36849 0.04189 0.58793 0.0
C209 C 0.35896 0.01918 0.57013 0.0
C210 C 0.41553 0.91134 0.51158 0.0
C211 C 0.34843 0.89689 0.4769 0.0
C212 C 0.39897 0.81306 0.50583 0.0
C213 C 0.39782 0.79543 0.47671 0.0
C214 C 0.40341 0.80603 0.44612 0.0
C215 C 0.40474 0.78802 0.41964 0.0
C216 C 0.40084 0.75909 0.42334 0.0
C217 C 0.39435 0.74883 0.45378 0.0
C218 C 0.39299 0.76672 0.48007 0.0
C219 C 0.32705 0.8684 0.55377 0.0
O220 O 0.38145 0.90631 0.59246 0.0
O221 O 0.39622 0.8613 0.58147 0.0
O222 O 0.36325 0.9642 0.53543 0.0
O223 O 0.3453 0.94544 0.5779 0.0
O224 O 0.40013 0.9333 0.50936 0.0
O225 O 0.40638 0.89614 0.53404 0.0
O226 O 0.36471 0.87497 0.48205 0.0
O227 O 0.34166 0.91384 0.50041 0.0
O228 O 0.37676 0.81409 0.52368 0.0
O229 O 0.41154 0.83717 0.50398 0.0
O230 O 0.34183 0.8462 0.55923 0.0
O231 O 0.34069 0.88353 0.53493 0.0
H232 H 0.37972 0.9666 0.61936 0.0
H233 H 0.39554 1.00643 0.65113 0.0
H234 H 0.36519 0.06279 0.57892 0.0
H235 H 0.3485 0.02294 0.54769 0.0
H236 H 0.40724 0.8281 0.44272 0.0
H237 H 0.40953 0.79658 0.39647 0.0
H238 H 0.39048 0.72678 0.45734 0.0
H239 H 0.38865 0.75797 0.50329 0.0
Ho240 Ho 0.36812 0.12766 0.78705 0.0
Ho241 Ho 0.43045 0.13687 0.78337 0.0
C242 C 0.40217 0.14479 0.85187 0.0
C243 C 0.31723 0.11434 0.79983 0.0
C244 C 0.2965 0.12128 0.82432 0.0
C245 C 0.3027 0.11897 0.85686 0.0
C246 C 0.28236 0.12493 0.87952 0.0
C247 C 0.25567 0.13363 0.87005 0.0
C248 C 0.24971 0.13679 0.83762 0.0
C249 C 0.26999 0.13054 0.81489 0.0
C250 C 0.38304 0.17774 0.76359 0.0
C251 C 0.39597 0.11298 0.72135 0.0
C252 C 0.47825 0.15505 0.7634 0.0
C253 C 0.49415 0.15331 0.73319 0.0
C254 C 0.50914 0.17662 0.72228 0.0
C255 C 0.52548 0.1749 0.69466 0.0
C256 C 0.52722 0.14976 0.67749 0.0
C257 C 0.51135 0.12678 0.68781 0.0
C258 C 0.49488 0.12857 0.71522 0.0
C259 C 0.41559 0.08388 0.79986 0.0
O260 O 0.37937 0.13457 0.83853 0.0
O261 O 0.42474 0.1506 0.83486 0.0
O262 O 0.32405 0.13478 0.78092 0.0
O263 O 0.33867 0.09922 0.80848 0.0
O264 O 0.36158 0.16375 0.75424 0.0
O265 O 0.39484 0.16528 0.7865 0.0
O266 O 0.41906 0.12483 0.7323 0.0
O267 O 0.37463 0.10779 0.74007 0.0
O268 O 0.47519 0.13198 0.77964 0.0
O269 O 0.45546 0.16987 0.76262 0.0
O270 O 0.43716 0.09707 0.81119 0.0
O271 O 0.40375 0.0994 0.77979 0.0
H272 H 0.32308 0.11222 0.86481 0.0
H273 H 0.28731 0.12238 0.90451 0.0
H274 H 0.22915 0.14318 0.82989 0.0
H275 H 0.26487 0.13258 0.78989 0.0
H276 H 0.50872 0.196 0.73559 0.0
H277 H 0.53772 0.19281 0.68754 0.0
H278 H 0.51225 0.10714 0.67504 0.0
H279 H 0.4832 0.1104 0.72271 0.0
Ho280 Ho 0.15982 0.11784 1.04072 0.0
Ho281 Ho 0.15076 0.18055 1.03227 0.0
C282 C 0.13528 0.15376 0.10091 0.0
C283 C 0.17428 0.06787 0.05633 0.0
C284 C 0.16304 0.0455 0.07617 0.0
C285 C 0.14516 0.05137 0.10165 0.0
C286 C 0.13546 0.0298 0.12095 0.0
C287 C 0.14335 1.00206 0.11481 0.0
C288 C 0.16033 0.99621 0.08843 0.0
C289 C 0.17009 1.0178 0.06925 0.0
C290 C 0.11292 0.13117 1.00906 0.0
C291 C 0.18005 0.14409 0.97585 0.0
C292 C 0.13402 0.22846 1.01036 0.0
C293 C 0.13444 0.2449 0.98047 0.0
C294 C 0.13347 0.23222 0.95026 0.0
C295 C 0.13334 0.2486 0.92251 0.0
C296 C 0.13408 0.27797 0.92443 0.0
C297 C 0.13489 0.29044 0.95477 0.0
C298 C 0.13513 0.27412 0.98237 0.0
C299 C 0.20249 0.16605 0.05495 0.0
O300 O 0.14474 0.12979 0.08958 0.0
O301 O 0.13406 0.17663 0.08296 0.0
O302 O 0.15964 0.07365 1.03099 0.0
O303 O 0.18333 0.09022 0.07116 0.0
O304 O 0.12706 0.10858 1.00463 0.0
O305 O 0.12268 0.14436 1.0328 0.0
O306 O 0.16447 0.16619 0.98273 0.0
O307 O 0.18565 0.12522 0.99777 0.0
O308 O 0.15778 0.22489 1.02498 0.0
O309 O 0.11859 0.20598 1.01075 0.0
O310 O 0.1892 0.18879 0.06244 0.0
O311 O 0.18777 0.15351 1.03477 0.0
H312 H 0.1393 0.07266 0.10707 0.0
H313 H 0.12293 0.03497 0.14154 0.0
H314 H 0.16674 0.97501 0.08329 0.0
H315 H 0.18361 1.01294 0.04937 0.0
H316 H 0.1327 0.20971 0.94809 0.0
H317 H 0.13239 0.23828 0.89959 0.0
H318 H 0.13579 0.31293 0.9572 0.0
H319 H 0.13581 0.28439 1.00535 0.0
Ho320 Ho 0.9354 0.90748 0.78185 0.0
Ho321 Ho 0.8731 0.9135 0.788 0.0
C322 C 0.89896 0.93273 0.72265 0.0
C323 C 0.98435 0.8927 0.76144 0.0
C324 C 0.99952 0.89188 0.73059 0.0
C325 C 1.01453 0.86784 0.72185 0.0
C326 C 0.03125 0.86764 0.69443 0.0
C327 C 0.03332 0.89152 0.6753 0.0
C328 C 0.01747 0.91517 0.6833 0.0
C329 C 1.00061 0.91532 0.71051 0.0
C330 C 0.91944 0.95914 0.80227 0.0
C331 C 0.90861 0.89428 0.85074 0.0
C332 C 0.82204 0.92578 0.80174 0.0
C333 C 0.80036 0.91983 0.82567 0.0
C334 C 0.80236 0.93011 0.85691 0.0
C335 C 0.78051 0.92611 0.8783 0.0
C336 C 0.75627 0.91183 0.86886 0.0
C337 C 0.75458 0.90082 0.838 0.0
C338 C 0.77637 0.90498 0.81651 0.0
C339 C 0.88924 0.86691 0.7569 0.0
O340 O 0.92256 0.92085 0.73184 0.0
O341 O 0.87811 0.93637 0.74255 0.0
O342 O 0.97877 0.91724 0.77341 0.0
O343 O 0.96374 0.8752 0.76507 0.0
O344 O 0.94134 0.9458 0.81232 0.0
O345 O 0.90719 0.94397 0.78199 0.0
O346 O 0.88442 0.90183 0.83846 0.0
O347 O 0.9317 0.89332 0.83335 0.0
O348 O 0.82912 0.90506 0.78322 0.0
O349 O 0.84335 0.94113 0.81038 0.0
O350 O 0.86666 0.88053 0.75089 0.0
O351 O 0.9011 0.87701 0.78144 0.0
H352 H 1.01402 0.84948 0.73683 0.0
H353 H 0.04356 0.8493 0.68901 0.0
H354 H 0.01897 0.93394 0.66908 0.0
H355 H 0.98915 0.9341 0.71634 0.0
H356 H 0.82056 0.9416 0.86474 0.0
H357 H 0.78243 0.93438 0.90222 0.0
H358 H 0.73611 0.88973 0.83026 0.0
H359 H 0.77424 0.89702 0.79248 0.0
Ho360 Ho 0.87606 0.18602 0.53384 0.0
Ho361 Ho 0.868 0.1241 0.54284 0.0
C362 C 0.8517 0.14817 0.47583 0.0
C363 C 0.8917 0.23422 0.51192 0.0
C364 C 0.89363 0.2485 0.48056 0.0
C365 C 0.91943 0.25872 0.46992 0.0
C366 C 0.92131 0.27426 0.44172 0.0
C367 C 0.89742 0.27997 0.42342 0.0
C368 C 0.87169 0.26923 0.43383 0.0
C369 C 0.86983 0.2536 0.4619 0.0
C370 C 0.82404 0.17184 0.5545 0.0
C371 C 0.88827 0.16135 0.60394 0.0
C372 C 0.85361 0.07412 0.55884 0.0
C373 C 0.86411 0.0516 0.57915 0.0
C374 C 0.87844 0.05723 0.60758 0.0
C375 C 0.88734 0.03528 0.62693 0.0
C376 C 0.8821 1.00746 0.61804 0.0
C377 C 0.86887 1.00195 0.58887 0.0
C378 C 0.85987 0.02388 0.56965 0.0
C379 C 0.91671 0.13748 0.51494 0.0
O380 O 0.86595 0.17086 0.48363 0.0
O381 O 0.84502 0.12947 0.49742 0.0
O382 O 0.86683 0.22918 0.5231 0.0
O383 O 0.9089 0.2136 0.51715 0.0
O384 O 0.83776 0.19384 0.56366 0.0
O385 O 0.83873 0.15879 0.53453 0.0
O386 O 0.87985 0.13694 0.59281 0.0
O387 O 0.89014 0.18376 0.58548 0.0
O388 O 0.86878 0.07974 0.53394 0.0
O389 O 0.84419 0.09656 0.57307 0.0
O390 O 0.90342 0.11448 0.50999 0.0
O391 O 0.90534 0.15095 0.53743 0.0
H392 H 0.93812 0.25519 0.48381 0.0
H393 H 0.94145 0.28218 0.43448 0.0
H394 H 0.85269 0.27381 0.42096 0.0
H395 H 0.84957 0.24615 0.46935 0.0
H396 H 0.88228 0.07853 0.6151 0.0
H397 H 0.89739 0.04005 0.64939 0.0
H398 H 0.86497 0.98068 0.58129 0.0
H399 H 0.84922 0.01919 0.54752 0.0
Ho400 Ho 0.59864 0.12895 0.2875 0.0
Ho401 Ho 0.66375 0.12343 0.29488 0.0
C402 C 0.63667 0.10774 0.22772 0.0
C403 C 0.5481 0.13905 0.26867 0.0
C404 C 0.53295 0.14385 0.23849 0.0
C405 C 0.54394 0.13527 0.2091 0.0
C406 C 0.5284 0.13822 0.18103 0.0
C407 C 0.50138 0.1496 0.18177 0.0
C408 C 0.49054 0.15823 0.21135 0.0
C409 C 0.50623 0.15555 0.2393 0.0
C410 C 0.61711 0.07796 0.30755 0.0
C411 C 0.62687 0.14496 0.35574 0.0
C412 C 0.71274 0.10511 0.30858 0.0
C413 C 0.73618 0.11524 0.32791 0.0
C414 C 0.7317 0.13343 0.35361 0.0
C415 C 0.75391 0.14147 0.3731 0.0
C416 C 0.78093 0.13151 0.36711 0.0
C417 C 0.78554 0.11449 0.34034 0.0
C418 C 0.76328 0.10634 0.32096 0.0
C419 C 0.65079 0.17499 0.27088 0.0
O420 O 0.6129 0.11933 0.23704 0.0
O421 O 0.65797 0.10415 0.24719 0.0
O422 O 0.55828 0.11402 0.27259 0.0
O423 O 0.56519 0.15857 0.27849 0.0
O424 O 0.59492 0.09047 0.31807 0.0
O425 O 0.62859 0.09405 0.28783 0.0
O426 O 0.6509 0.1357 0.3445 0.0
O427 O 0.60386 0.14598 0.33797 0.0
O428 O 0.70732 0.1195 0.28286 0.0
O429 O 0.69026 0.09794 0.32431 0.0
O430 O 0.67578 0.16673 0.27782 0.0
O431 O 0.63457 0.15579 0.27983 0.0
H432 H 0.56452 0.12624 0.20785 0.0
H433 H 0.53742 0.1313 0.15877 0.0
H434 H 0.46948 0.16611 0.21319 0.0
H435 H 0.49713 0.16191 0.26175 0.0
H436 H 0.71094 0.14077 0.35912 0.0
H437 H 0.74974 0.15448 0.39366 0.0
H438 H 0.80623 0.10689 0.33492 0.0
H439 H 0.76713 0.0926 0.30094 0.0
Ho440 Ho 0.64866 0.85961 1.02475 0.0
Ho441 Ho 0.66472 0.92005 1.04126 0.0
C442 C 0.678 0.89955 0.97106 0.0
C443 C 0.62543 0.8167 0.99728 0.0
C444 C 0.62914 0.7973 0.9699 0.0
C445 C 0.60589 0.78975 0.95132 0.0
C446 C 0.60825 0.76984 0.92684 0.0
C447 C 0.63392 0.75688 0.92056 0.0
C448 C 0.6574 0.76536 0.93833 0.0
C449 C 0.65506 0.78529 0.96271 0.0
C450 C 0.70342 0.86617 1.04227 0.0
C451 C 0.64101 0.88064 0.09791 0.0
C452 C 0.68442 0.96661 0.06284 0.0
C453 C 0.67462 0.98905 0.08389 0.0
C454 C 0.6819 1.0167 0.07701 0.0
C455 C 0.67262 0.03849 0.0964 0.0
C456 C 0.65585 0.03297 0.12302 0.0
C457 C 0.64833 1.0052 0.12965 0.0
C458 C 0.65748 0.98342 0.11012 0.0
C459 C 0.61339 0.91429 1.01505 0.0
O460 O 0.66216 0.87734 0.97659 0.0
O461 O 0.68598 0.91614 0.99449 0.0
O462 O 0.6428 0.81479 1.02124 0.0
O463 O 0.61933 0.84256 0.9905 0.0
O464 O 0.689 0.84351 0.04648 0.0
O465 O 0.68836 0.88289 1.027 0.0
O466 O 0.65578 0.9027 0.08975 0.0
O467 O 0.63255 0.862 0.07628 0.0
O468 O 0.67111 0.96438 1.03586 0.0
O469 O 0.68962 0.94237 0.07593 0.0
O470 O 0.62865 0.9364 1.01323 0.0
O471 O 0.62463 0.89759 1.0346 0.0
H472 H 0.58568 0.79879 0.95627 0.0
H473 H 0.5898 0.76382 0.91365 0.0
H474 H 0.67759 0.75615 0.93371 0.0
H475 H 0.67342 0.7909 0.9763 0.0
H476 H 0.6949 0.02143 0.05667 0.0
H477 H 0.67878 0.05966 0.09077 0.0
H478 H 0.63606 1.00019 0.15047 0.0
H479 H 0.65143 0.96221 0.11571 0.0
Ho480 Ho 0.92662 0.13403 0.81002 0.0
Ho481 Ho 0.8653 0.11883 0.80116 0.0
C482 C 0.89421 0.10011 0.86565 0.0
C483 C 0.97199 0.15594 0.83289 0.0
C484 C 0.99034 0.15344 0.86126 0.0
C485 C 0.9954 0.177 0.88051 0.0
C486 C 1.01443 0.17576 0.90588 0.0
C487 C 0.029 0.15099 0.91225 0.0
C488 C 0.02313 0.12716 0.89375 0.0
C489 C 1.00404 0.12834 0.86857 0.0
C490 C 0.91776 0.08081 0.78733 0.0
C491 C 0.89848 0.14746 0.74156 0.0
C492 C 0.8171 0.09947 0.78519 0.0
C493 C 0.79399 0.10884 0.76521 0.0
C494 C 0.798 0.12957 0.7422 0.0
C495 C 0.77584 0.13801 0.72297 0.0
C496 C 0.74935 0.12599 0.72676 0.0
C497 C 0.74531 0.10578 0.75048 0.0
C498 C 0.76751 0.09729 0.7696 0.0
C499 C 0.87408 0.16693 0.83327 0.0
O500 O 0.91447 0.11801 0.85922 0.0
O501 O 0.87559 0.09318 0.84384 0.0
O502 O 0.97169 0.1353 0.81245 0.0
O503 O 0.94722 0.16634 0.83759 0.0
O504 O 0.93963 0.09593 0.78136 0.0
O505 O 0.90335 0.09434 0.80687 0.0
O506 O 0.87563 0.13529 0.75231 0.0
O507 O 0.92085 0.15107 0.75985 0.0
O508 O 0.82141 0.11447 0.8107 0.0
O509 O 0.84018 0.09281 0.77041 0.0
O510 O 0.85318 0.15039 0.83766 0.0
O511 O 0.88794 0.15857 0.80935 0.0
H512 H 0.98509 0.19661 0.87544 0.0
H513 H 0.01853 0.1944 0.91974 0.0
H514 H 0.03375 0.10766 0.89845 0.0
H515 H 1.00048 0.10973 0.85448 0.0
H516 H 0.81833 0.13882 0.73874 0.0
H517 H 0.7797 0.1531 0.70436 0.0
H518 H 0.7251 0.09616 0.75375 0.0
H519 H 0.76409 0.08146 0.78755 0.0
Ho520 Ho 0.64902 0.18235 0.56448 0.0
Ho521 Ho 0.66145 0.12106 0.55157 0.0
C522 C 0.67738 0.14409 0.61972 0.0
C523 C 0.62928 0.22784 0.58991 0.0
C524 C 0.63325 0.24544 0.61866 0.0
C525 C 0.61023 0.25926 0.63201 0.0
C526 C 0.61353 0.27716 0.65824 0.0
C527 C 0.64 0.28169 0.67162 0.0
C528 C 0.66284 0.26684 0.65903 0.0
C529 C 0.65953 0.24898 0.63278 0.0
C530 C 0.70238 0.17213 0.54403 0.0
C531 C 0.63733 0.15882 0.49334 0.0
C532 C 0.67735 0.07245 0.53252 0.0
C533 C 0.66473 0.05188 0.51121 0.0
C534 C 0.67483 0.02449 0.51055 0.0
C535 C 0.66343 1.00511 0.48934 0.0
C536 C 0.64191 1.01307 0.46866 0.0
C537 C 0.63088 0.04012 0.47053 0.0
C538 C 0.64215 0.05941 0.49183 0.0
C539 C 0.61189 0.13003 0.58008 0.0
O540 O 0.66211 0.16639 0.61325 0.0
O541 O 0.68438 0.12615 0.59725 0.0
O542 O 0.64922 0.22752 0.56874 0.0
O543 O 0.61878 0.2031 0.59457 0.0
O544 O 0.68848 0.1949 0.53864 0.0
O545 O 0.68778 0.1573 0.56212 0.0
O546 O 0.64956 0.13551 0.50246 0.0
O547 O 0.63242 0.17968 0.51357 0.0
O548 O 0.66366 0.07662 0.55887 0.0
O549 O 0.68568 0.09572 0.51923 0.0
O550 O 0.62685 0.10785 0.58321 0.0
O551 O 0.62243 0.14531 0.55856 0.0
H552 H 0.58969 0.25665 0.62169 0.0
H553 H 0.59557 0.28827 0.6673 0.0
H554 H 0.68344 0.26945 0.66915 0.0
H555 H 0.67757 0.23833 0.62323 0.0
H556 H 0.692 0.01834 0.52574 0.0
H557 H 0.67248 0.98444 0.48778 0.0
H558 H 0.6145 0.04667 0.45443 0.0
H559 H 0.63379 0.08039 0.49253 0.0
Ho560 Ho 0.59811 0.90574 0.30453 0.0
Ho561 Ho 0.66094 0.91397 0.30012 0.0
C562 C 0.63157 0.93856 0.36172 0.0
C563 C 0.55064 0.88762 0.32626 0.0
C564 C 0.53227 0.89009 0.35471 0.0
C565 C 0.5429 0.89296 0.38582 0.0
C566 C 0.52482 0.89405 0.41221 0.0
C567 C 0.49572 0.89226 0.40809 0.0
C568 C 0.48534 0.88919 0.37689 0.0
C569 C 0.50333 0.8881 0.35067 0.0
C570 C 0.61347 0.95762 0.28286 0.0
C571 C 0.62745 0.89139 0.2368 0.0
C572 C 0.71221 0.92605 0.28772 0.0
C573 C 0.73348 0.91485 0.26644 0.0
C574 C 0.75885 0.92893 0.26298 0.0
C575 C 0.77835 0.91959 0.24079 0.0
C576 C 0.77255 0.89616 0.2218 0.0
C577 C 0.74775 0.88121 0.22662 0.0
C578 C 0.72828 0.89055 0.24877 0.0
C579 C 0.64494 0.8671 0.3303 0.0
O580 O 0.60926 0.92362 0.35379 0.0
O581 O 0.65278 0.94099 0.34201 0.0
O582 O 0.55292 0.90931 0.30758 0.0
O583 O 0.57434 0.87466 0.33007 0.0
O584 O 0.59053 0.94468 0.27511 0.0
O585 O 0.62553 0.9425 0.30298 0.0
O586 O 0.65071 0.90085 0.24994 0.0
O587 O 0.60399 0.88928 0.25365 0.0
O588 O 0.70464 0.90943 0.3107 0.0
O589 O 0.69105 0.93823 0.27381 0.0
O590 O 0.66621 0.88204 0.33828 0.0
O591 O 0.63379 0.8769 0.30534 0.0
H592 H 0.56515 0.89444 0.38975 0.0
H593 H 0.5336 0.89695 0.43573 0.0
H594 H 0.46313 0.88763 0.37271 0.0
H595 H 0.49455 0.88557 0.32707 0.0
H596 H 0.76315 0.94764 0.27667 0.0
H597 H 0.79723 0.93156 0.2372 0.0
H598 H 0.74295 0.86303 0.21225 0.0
H599 H 0.70882 0.87934 0.25145 0.0
Ho600 Ho 0.87636 0.85549 0.05608 0.0
Ho601 Ho 0.86462 0.91726 0.04916 0.0
C602 C 0.84272 0.88795 0.11117 0.0
C603 C 0.89448 0.80767 0.0768 0.0
C604 C 0.89827 0.79237 0.10716 0.0
C605 C 0.91988 0.7728 0.10971 0.0
C606 C 0.92211 0.75564 0.13655 0.0
C607 C 0.90282 0.7577 0.16162 0.0
C608 C 0.88187 0.77821 0.15965 0.0
C609 C 0.87962 0.79539 0.13271 0.0
C610 C 0.82503 0.86705 1.03035 0.0
C611 C 0.89201 0.88404 0.98855 0.0
C612 C 0.84909 0.96726 1.03467 0.0
C613 C 0.86167 0.9903 1.01711 0.0
C614 C 0.84624 1.01454 1.01132 0.0
C615 C 0.85686 0.03515 0.99129 0.0
C616 C 0.88292 0.03153 0.9768 0.0
C617 C 0.89911 1.00808 0.98437 0.0
C618 C 0.88852 0.98752 1.00443 0.0
C619 C 0.91033 0.90597 0.08428 0.0
O620 O 0.86166 0.86849 0.10556 0.0
O621 O 0.83606 0.90621 0.08895 0.0
O622 O 0.86893 0.81212 0.06743 0.0
O623 O 0.91064 0.82914 0.07167 0.0
O624 O 0.83998 0.84523 1.0234 0.0
O625 O 0.83783 0.8804 0.05157 0.0
O626 O 0.88229 0.90762 1.00061 0.0
O627 O 0.89286 0.86066 1.00556 0.0
O628 O 0.86135 0.96089 0.06141 0.0
O629 O 0.84277 0.94526 1.01761 0.0
O630 O 0.89416 0.92716 0.08841 0.0
O631 O 0.9031 0.89293 0.05921 0.0
H632 H 0.93454 0.77011 0.09038 0.0
H633 H 0.93851 0.74013 0.1373 0.0
H634 H 0.86635 0.78005 0.17819 0.0
H635 H 0.86275 0.81034 0.1314 0.0
H636 H 0.82551 1.01693 1.02111 0.0
H637 H 0.84394 0.05293 0.98536 0.0
H638 H 0.91921 1.00494 0.97327 0.0
H639 H 0.90072 0.96893 1.00893 0.0
Ho640 Ho 0.66278 0.61853 0.79813 0.0
Ho641 Ho 0.60115 0.63147 0.80569 0.0
C642 C 0.62879 0.64374 0.73678 0.0
C643 C 0.71164 0.60062 0.78263 0.0
C644 C 0.73411 0.61161 0.76283 0.0
C645 C 0.757 0.59476 0.7553 0.0
C646 C 0.77774 0.60475 0.735 0.0
C647 C 0.77568 0.63165 0.72203 0.0
C648 C 0.7534 0.64894 0.73092 0.0
C649 C 0.73267 0.63894 0.75111 0.0
C650 C 0.65258 0.66732 0.82807 0.0
C651 C 0.63565 0.60324 0.86395 0.0
C652 C 0.5545 0.65145 0.82722 0.0
C653 C 0.53915 0.65265 0.85782 0.0
C654 C 0.52447 0.67697 0.8659 0.0
C655 C 0.50823 0.67808 0.89357 0.0
C656 C 0.50631 0.65487 0.91391 0.0
C657 C 0.52165 0.63072 0.90616 0.0
C658 C 0.53797 0.62965 0.8785 0.0
C659 C 0.61197 0.5781 0.7854 0.0
O660 O 0.65215 0.63339 0.74865 0.0
O661 O 0.60591 0.64633 0.75439 0.0
O662 O 0.7066 0.61504 0.80837 0.0
O663 O 0.68888 0.59326 0.76756 0.0
O664 O 0.67442 0.65209 0.83246 0.0
O665 O 0.63874 0.65768 0.80469 0.0
O666 O 0.61413 0.61899 0.85585 0.0
O667 O 0.65453 0.59557 0.84297 0.0
O668 O 0.5568 0.62709 0.81345 0.0
O669 O 0.57746 0.66601 0.82546 0.0
O670 O 0.59046 0.59287 0.77696 0.0
O671 O 0.62572 0.59236 0.8051 0.0
H672 H 0.75843 0.57368 0.7644 0.0
H673 H 0.7946 0.59098 0.72816 0.0
H674 H 0.7515 0.66979 0.72125 0.0
H675 H 0.7152 0.65228 0.757 0.0
H676 H 0.52512 0.69501 0.85042 0.0
H677 H 0.49677 0.697 0.89879 0.0
H678 H 0.5202 0.61221 0.92078 0.0
H679 H 0.5491 0.61062 0.87291 0.0
Ho680 Ho 0.66847 0.41754 0.04901 0.0
Ho681 Ho 0.65552 0.35562 0.05976 0.0
C682 C 0.64153 0.38142 0.9901 0.0
C683 C 0.68672 0.46494 1.02908 0.0
C684 C 0.67645 0.48721 1.00812 0.0
C685 C 0.69342 0.49645 0.98325 0.0
C686 C 0.68428 0.51757 0.96304 0.0
C687 C 0.65806 0.53004 0.96749 0.0
C688 C 0.64104 0.52083 0.99247 0.0
C689 C 0.65011 0.49947 1.01257 0.0
C690 C 0.61935 0.40848 0.07785 0.0
C691 C 0.68366 0.39319 0.11652 0.0
C692 C 0.63651 0.30969 0.08467 0.0
C693 C 0.63899 0.29317 0.11467 0.0
C694 C 0.61681 0.29274 0.13655 0.0
C695 C 0.6178 0.27571 0.16367 0.0
C696 C 0.6409 0.2584 0.16959 0.0
C697 C 0.66335 0.25929 0.14808 0.0
C698 C 0.66238 0.27634 0.12095 0.0
C699 C 0.70881 0.3665 1.03973 0.0
O700 O 0.6535 0.40457 1.00051 0.0
O701 O 0.63819 0.35935 1.00902 0.0
O702 O 0.67366 0.46173 0.0561 0.0
O703 O 0.69291 0.4412 1.01527 0.0
O704 O 0.63414 0.43086 0.0811 0.0
O705 O 0.62959 0.39337 0.05591 0.0
O706 O 0.66864 0.37083 0.10914 0.0
O707 O 0.69082 0.41165 0.09479 0.0
O708 O 0.65795 0.31063 0.06552 0.0
O709 O 0.62378 0.33372 0.08655 0.0
O710 O 0.69485 0.34404 1.03266 0.0
O711 O 0.69405 0.38069 0.05833 0.0
H712 H 0.71374 0.48724 0.97937 0.0
H713 H 0.69769 0.52398 0.94369 0.0
H714 H 0.6209 0.53029 0.99665 0.0
H715 H 0.63654 0.49266 1.03158 0.0
H716 H 0.59842 0.30533 0.13244 0.0
H717 H 0.60037 0.27604 0.17998 0.0
H718 H 0.68143 0.24618 0.15177 0.0
H719 H 0.6798 0.27591 0.10462 0.0
Ho720 Ho 0.87044 0.41481 0.30349 0.0
Ho721 Ho 0.93289 0.40577 0.30856 0.0
C722 C 0.90521 0.3963 0.23963 0.0
C723 C 0.82019 0.43013 0.28989 0.0
C724 C 0.79812 0.42225 0.26751 0.0
C725 C 0.80398 0.40651 0.24015 0.0
C726 C 0.78258 0.39958 0.21897 0.0
C727 C 0.75513 0.40832 0.22492 0.0
C728 C 0.74928 0.42331 0.25286 0.0
C729 C 0.77066 0.43025 0.27398 0.0
C730 C 0.88484 0.36493 0.32778 0.0
C731 C 0.89758 0.42937 0.36967 0.0
C732 C 0.98122 0.38876 0.3285 0.0
C733 C 0.99746 0.38897 0.35869 0.0
C734 C 1.00887 0.36395 0.3702 0.0
C735 C 0.02557 0.36375 0.39763 0.0
C736 C 0.03128 0.38861 0.41432 0.0
C737 C 0.01943 0.41361 0.40303 0.0
C738 C 1.00262 0.41379 0.37567 0.0
C739 C 0.91767 0.45834 0.29077 0.0
O740 O 0.88199 0.40591 0.25256 0.0
O741 O 0.92789 0.39158 0.25702 0.0
O742 O 0.82618 0.4115 0.31144 0.0
O743 O 0.84236 0.44194 0.27781 0.0
O744 O 0.86258 0.37841 0.33546 0.0
O745 O 0.89726 0.37725 0.30524 0.0
O746 O 0.92052 0.41672 0.35963 0.0
O747 O 0.87706 0.43541 0.35007 0.0
O748 O 0.97724 0.41261 0.31411 0.0
O749 O 0.95908 0.3729 0.32774 0.0
O750 O 0.93937 0.44518 0.27989 0.0
O751 O 0.90593 0.44308 0.31109 0.0
H752 H 0.82508 0.39994 0.23498 0.0
H753 H 0.78761 0.38816 0.19746 0.0
H754 H 0.72823 0.43 0.25811 0.0
H755 H 0.7658 0.4421 0.29524 0.0
H756 H 1.00522 0.34452 0.35764 0.0
H757 H 0.03427 0.34413 0.40561 0.0
H758 H 0.02388 0.43328 0.4147 0.0
H759 H 0.99415 0.43345 0.36749 0.0
Ho760 Ho 0.86488 0.61792 0.54936 0.0
Ho761 Ho 0.87954 0.67875 0.55692 0.0
C762 C 0.8901 0.65127 0.48777 0.0
C763 C 0.84817 0.56859 0.53323 0.0
C764 C 0.85922 0.54575 0.51356 0.0
C765 C 0.87415 0.55116 0.48556 0.0
C766 C 0.88389 0.52911 0.46685 0.0
C767 C 0.87902 0.50132 0.47594 0.0
C768 C 0.86517 0.49602 0.50473 0.0
C769 C 0.85525 0.51809 0.52331 0.0
C770 C 0.91339 0.62661 0.58051 0.0
C771 C 0.84652 0.64628 0.61347 0.0
C772 C 0.89947 0.72562 0.57883 0.0
C773 C 0.89814 0.74392 0.60745 0.0
C774 C 0.90014 0.73337 0.63863 0.0
C775 C 0.9008 0.75159 0.66496 0.0
C776 C 0.89975 0.78072 0.66065 0.0
C777 C 0.89696 0.79103 0.62946 0.0
C778 C 0.89629 0.7729 0.60328 0.0
C779 C 0.82654 0.66947 0.53437 0.0
O780 O 0.87762 0.62903 0.49961 0.0
O781 O 0.89611 0.67313 0.50618 0.0
O782 O 0.86206 0.57377 0.55927 0.0
O783 O 0.84046 0.59133 0.5184 0.0
O784 O 0.89637 0.60631 0.58567 0.0
O785 O 0.9052 0.64049 0.55644 0.0
O786 O 0.86458 0.66633 0.60666 0.0
O787 O 0.83891 0.62795 0.59165 0.0
O788 O 0.87727 0.72402 0.56095 0.0
O789 O 0.91189 0.70154 0.58178 0.0
O790 O 0.84206 0.69065 0.52677 0.0
O791 O 0.83966 0.65561 0.55478 0.0
H792 H 0.87789 0.57238 0.47785 0.0
H793 H 0.89435 0.53379 0.44468 0.0
H794 H 0.86154 0.47481 0.51255 0.0
H795 H 0.8442 0.51354 0.54515 0.0
H796 H 0.90154 0.71109 0.64266 0.0
H797 H 0.90271 0.74294 0.68864 0.0
H798 H 0.89524 0.81325 0.62524 0.0
H799 H 0.89465 0.78161 0.57958 0.0
Ho800 Ho 0.66332 0.41839 0.79587 0.0
Ho801 Ho 0.60314 0.40119 0.78039 0.0
C802 C 0.62504 0.39345 0.85281 0.0
C803 C 0.70906 0.43963 0.81716 0.0
C804 C 0.73224 0.42879 0.83615 0.0
C805 C 0.74817 0.44717 0.85455 0.0
C806 C 0.77041 0.43716 0.87256 0.0
C807 C 0.7773 0.40861 0.87213 0.0
C808 C 0.76109 0.39016 0.85387 0.0
C809 C 0.73867 0.40018 0.83602 0.0
C810 C 0.65871 0.36682 0.77006 0.0
C811 C 0.64241 0.42909 0.72568 0.0
C812 C 0.55973 0.3782 0.75388 0.0
C813 C 0.54137 0.38123 0.72544 0.0
C814 C 0.53744 0.35838 0.70476 0.0
C815 C 0.51849 0.35988 0.67928 0.0
C816 C 0.50279 0.3842 0.67408 0.0
C817 C 0.50751 0.40738 0.6941 0.0
C818 C 0.52649 0.40592 0.71946 0.0
C819 C 0.60968 0.45612 0.7983 0.0
O820 O 0.64644 0.40908 0.8445 0.0
O821 O 0.60645 0.38457 0.83146 0.0
O822 O 0.70647 0.42875 0.7888 0.0
O823 O 0.68522 0.44229 0.8319 0.0
O824 O 0.68091 0.38201 0.76939 0.0
O825 O 0.64164 0.37787 0.78934 0.0
O826 O 0.62043 0.41324 0.73178 0.0
O827 O 0.65874 0.43844 0.7486 0.0
O828 O 0.55826 0.3972 0.77626 0.0
O829 O 0.58529 0.37003 0.74879 0.0
O830 O 0.5876 0.44119 0.80381 0.0
O831 O 0.62586 0.44142 0.7819 0.0
H832 H 0.74327 0.46924 0.85515 0.0
H833 H 0.7819 0.45172 0.88733 0.0
H834 H 0.76576 0.36805 0.8534 0.0
H835 H 0.72637 0.38562 0.82211 0.0
H836 H 0.54862 0.33906 0.70876 0.0
H837 H 0.51542 0.34171 0.66431 0.0
H838 H 0.4962 0.42665 0.69035 0.0
H839 H 0.52911 0.42401 0.73467 0.0
Ho840 Ho 0.87347 0.4163 1.03407 0.0
Ho841 Ho 0.88237 0.35361 1.03306 0.0
C842 C 0.89368 0.38519 0.09976 0.0
C843 C 0.86135 0.46815 0.04483 0.0
C844 C 0.87048 0.49081 0.06589 0.0
C845 C 0.85758 0.5169 0.06348 0.0
C846 C 0.86494 0.53847 0.08421 0.0
C847 C 0.88531 0.53427 0.10779 0.0
C848 C 0.89891 0.50831 0.10944 0.0
C849 C 0.89162 0.48675 0.08849 0.0
C850 C 0.92124 0.39993 1.00605 0.0
C851 C 0.85289 0.38532 0.97232 0.0
C852 C 0.90113 0.30531 1.01432 0.0
C853 C 0.89939 0.28642 0.9863 0.0
C854 C 0.89299 0.29625 0.95561 0.0
C855 C 0.89174 0.27775 0.92958 0.0
C856 C 0.89682 0.24902 0.93373 0.0
C857 C 0.9036 0.23946 0.96445 0.0
C858 C 0.90489 0.25791 0.99032 0.0
C859 C 0.83029 0.36854 0.05282 0.0
O860 O 0.88468 0.40772 0.08493 0.0
O861 O 0.89722 0.36124 0.08412 0.0
O862 O 0.87941 0.46 1.02362 0.0
O863 O 0.84846 0.44726 0.05834 0.0
O864 O 0.9063 0.42077 0.99687 0.0
O865 O 0.91097 0.38942 1.03115 0.0
O866 O 0.86549 0.36259 0.98318 0.0
O867 O 0.84929 0.40761 0.99023 0.0
O868 O 0.87869 0.30835 1.03156 0.0
O869 O 0.91441 0.32884 1.01038 0.0
O870 O 0.84387 0.34666 0.06269 0.0
O871 O 0.84486 0.38034 1.03181 0.0
H872 H 0.84139 0.52043 0.04595 0.0
H873 H 0.85415 0.55826 0.08241 0.0
H874 H 0.91425 0.50428 0.12778 0.0
H875 H 0.90195 0.46674 0.09043 0.0
H876 H 0.88868 0.31815 0.95181 0.0
H877 H 0.88597 0.28578 0.90644 0.0
H878 H 0.9077 0.21754 0.96854 0.0
H879 H 0.91009 0.24983 1.01364 0.0
Ho880 Ho 0.86843 0.62324 0.28323 0.0
Ho881 Ho 0.9307 0.63254 0.27888 0.0
C882 C 0.90244 0.6423 0.34753 0.0
C883 C 0.81706 0.61092 0.29519 0.0
C884 C 0.79598 0.6168 0.31961 0.0
C885 C 0.80225 0.61488 0.35214 0.0
C886 C 0.78159 0.61981 0.37475 0.0
C887 C 0.75446 0.62701 0.36522 0.0
C888 C 0.74837 0.62965 0.33275 0.0
C889 C 0.769 0.62447 0.31009 0.0
C890 C 0.88355 0.67165 0.25556 0.0
C891 C 0.89628 0.60511 0.21857 0.0
C892 C 0.97858 0.65009 0.25798 0.0
C893 C 0.99581 0.64756 0.22864 0.0
C894 C 1.00756 0.67159 0.21491 0.0
C895 C 0.02544 0.66959 0.18854 0.0
C896 C 0.03207 0.64344 0.1753 0.0
C897 C 0.0196 0.61949 0.18852 0.0
C898 C 1.00166 0.6215 0.21476 0.0
C899 C 0.91582 0.58015 0.29851 0.0
O900 O 0.87971 0.63162 0.33441 0.0
O901 O 0.92495 0.64779 0.33012 0.0
O902 O 0.8246 0.63224 0.27798 0.0
O903 O 0.83806 0.59494 0.30319 0.0
O904 O 0.86287 0.65634 0.24654 0.0
O905 O 0.89495 0.66105 0.27996 0.0
O906 O 0.91885 0.61881 0.22826 0.0
O907 O 0.87545 0.60025 0.23817 0.0
O908 O 0.97552 0.62785 0.27563 0.0
O909 O 0.95554 0.66443 0.2556 0.0
O910 O 0.93798 0.59347 0.30795 0.0
O911 O 0.90407 0.59495 0.27776 0.0
H912 H 0.82297 0.6093 0.36009 0.0
H913 H 0.78671 0.61777 0.39976 0.0
H914 H 0.72752 0.63493 0.32494 0.0
H915 H 0.76383 0.62615 0.28506 0.0
H916 H 1.00342 0.69196 0.2251 0.0
H917 H 0.03495 0.68841 0.17935 0.0
H918 H 0.02412 0.59902 0.17884 0.0
H919 H 0.99281 0.60257 0.22451 0.0
Ho920 Ho 0.66688 0.61674 0.54193 0.0
Ho921 Ho 0.65054 0.67724 0.52674 0.0
C922 C 0.64089 0.65483 0.59889 0.0
C923 C 0.68797 0.57057 0.56221 0.0
C924 C 0.67971 0.54729 0.58303 0.0
C925 C 0.69465 0.54253 0.61115 0.0
C926 C 0.68785 0.52011 0.63071 0.0
C927 C 0.66623 0.50171 0.62228 0.0
C928 C 0.651 0.50661 0.59435 0.0
C929 C 0.65772 0.52918 0.57481 0.0
C930 C 0.61659 0.62239 0.5133 0.0
C931 C 0.68095 0.63893 0.4726 0.0
C932 C 0.62768 0.72062 0.50044 0.0
C933 C 0.63055 0.73898 0.47204 0.0
C934 C 0.61271 0.73568 0.4456 0.0
C935 C 0.61295 0.75502 0.42051 0.0
C936 C 0.63077 0.77826 0.42154 0.0
C937 C 0.6494 0.78084 0.44727 0.0
C938 C 0.64922 0.76158 0.47224 0.0
C939 C 0.70487 0.67073 0.54598 0.0
O940 O 0.65478 0.63217 0.59064 0.0
O941 O 0.63425 0.6745 0.57783 0.0
O942 O 0.67457 0.5729 0.53526 0.0
O943 O 0.69266 0.59471 0.57594 0.0
O944 O 0.63182 0.60018 0.51221 0.0
O945 O 0.62693 0.63877 0.53391 0.0
O946 O 0.66432 0.6605 0.47829 0.0
O947 O 0.689 0.62231 0.4959 0.0
O948 O 0.64678 0.72217 0.52263 0.0
O949 O 0.61925 0.69503 0.4956 0.0
O950 O 0.68991 0.69289 0.55107 0.0
O951 O 0.69041 0.65439 0.52939 0.0
H952 H 0.71165 0.55618 0.61801 0.0
H953 H 0.69939 0.51732 0.65264 0.0
H954 H 0.63413 0.49283 0.58749 0.0
H955 H 0.64577 0.53229 0.55323 0.0
H956 H 0.59791 0.71862 0.44476 0.0
H957 H 0.59843 0.75244 0.40098 0.0
H958 H 0.66379 0.79824 0.44842 0.0
H959 H 0.66322 0.7649 0.49211 0.0
Ho960 Ho 0.43134 0.40508 0.27687 0.0
Ho961 Ho 0.36961 0.41816 0.28856 0.0
C962 C 0.39664 0.4413 0.22464 0.0
C963 C 0.47617 0.38323 0.25269 0.0
C964 C 0.49571 0.38548 0.2255 0.0
C965 C 0.48656 0.38931 0.19395 0.0
C966 C 0.50585 0.39034 0.16881 0.0
C967 C 0.53459 0.38757 0.17476 0.0
C968 C 0.54348 0.38342 0.20632 0.0
C969 C 0.5243 0.38234 0.23129 0.0
C970 C 0.42223 0.45736 0.30194 0.0
C971 C 0.40543 0.38962 0.34601 0.0
C972 C 0.32087 0.43437 0.30657 0.0
C973 C 0.29764 0.42257 0.32471 0.0
C974 C 0.27041 0.43079 0.31734 0.0
C975 C 0.24803 0.42073 0.3351 0.0
C976 C 0.2526 0.40229 0.36053 0.0
C977 C 0.27987 0.39327 0.36707 0.0
C978 C 0.30223 0.40324 0.34918 0.0
C979 C 0.37923 0.371 0.255 0.0
O980 O 0.41764 0.42372 0.22922 0.0
O981 O 0.37818 0.44611 0.24731 0.0
O982 O 0.47652 0.40322 0.27394 0.0
O983 O 0.45099 0.37422 0.24673 0.0
O984 O 0.44491 0.44287 0.30572 0.0
O985 O 0.40704 0.44384 0.28304 0.0
O986 O 0.38192 0.40127 0.33647 0.0
O987 O 0.42733 0.38703 0.32685 0.0
O988 O 0.32563 0.42253 0.27911 0.0
O989 O 0.34372 0.43992 0.32246 0.0
O990 O 0.35765 0.38678 0.25157 0.0
O991 O 0.39339 0.37957 0.27857 0.0
H992 H 0.46459 0.39167 0.18875 0.0
H993 H 0.49837 0.39405 0.14487 0.0
H994 H 0.56543 0.38116 0.21173 0.0
H995 H 0.53186 0.37903 0.25529 0.0
H996 H 0.26651 0.44546 0.29826 0.0
H997 H 0.22723 0.42805 0.32963 0.0
H998 H 0.2841 0.37961 0.387 0.0
H999 H 0.32313 0.39648 0.35502 0.0
Ho1000 Ho 0.38101 0.68512 1.02953 0.0
Ho1001 Ho 0.37152 0.62257 1.03272 0.0
C1002 C 0.35668 0.65107 0.9674 0.0
C1003 C 0.39935 0.73319 1.01003 0.0
C1004 C 0.39745 0.75133 0.98123 0.0
C1005 C 0.41731 0.74937 0.95663 0.0
C1006 C 0.41681 0.76792 0.93077 0.0
C1007 C 0.39646 0.78897 0.92883 0.0
C1008 C 0.37641 0.79061 0.95321 0.0
C1009 C 0.37696 0.77217 0.97904 0.0
C1010 C 0.3278 0.67038 0.04544 0.0
C1011 C 0.39124 0.65566 0.09753 0.0
C1012 C 0.35745 0.57186 0.04574 0.0
C1013 C 0.36723 0.55167 0.06926 0.0
C1014 C 0.35508 0.52514 0.07092 0.0
C1015 C 0.36382 0.50625 0.09417 0.0
C1016 C 0.38466 0.51386 0.11599 0.0
C1017 C 0.39752 0.54006 0.11341 0.0
C1018 C 0.38886 0.55886 0.09018 0.0
C1019 C 0.42151 0.63738 1.009 0.0
O1020 O 0.36882 0.67407 0.97836 0.0
O1021 O 0.35128 0.62973 0.98609 0.0
O1022 O 0.37705 0.73025 1.0276 0.0
O1023 O 0.41324 0.70986 1.00723 0.0
O1024 O 0.34085 0.69213 0.05664 0.0
O1025 O 0.34357 0.65838 1.02581 0.0
O1026 O 0.3804 0.63313 0.08409 0.0
O1027 O 0.39615 0.6786 0.0806 0.0
O1028 O 0.37571 0.57842 1.02405 0.0
O1029 O 0.34441 0.59367 0.05718 0.0
O1030 O 0.40757 0.61575 0.99993 0.0
O1031 O 0.40915 0.64914 1.03203 0.0
H1032 H 0.43368 0.73384 0.95766 0.0
H1033 H 0.43289 0.76629 0.91284 0.0
H1034 H 0.36027 0.80638 0.95244 0.0
H1035 H 0.36149 0.77456 0.99757 0.0
H1036 H 0.33851 0.51928 0.05471 0.0
H1037 H 0.3535 0.48621 0.096 0.0
H1038 H 0.41371 0.54626 0.12998 0.0
H1039 H 0.39869 0.57917 0.08887 0.0
Ho1040 Ho 0.10494 0.62848 0.77863 0.0
Ho1041 Ho 0.16679 0.61853 0.78779 0.0
C1042 C 0.14168 0.60212 0.72065 0.0
C1043 C 0.05783 0.64624 0.75541 0.0
C1044 C 0.04104 0.64416 0.72565 0.0
C1045 C 0.02919 0.66841 0.71251 0.0
C1046 C 1.01126 0.66683 0.68609 0.0
C1047 C 1.00468 0.64091 0.67223 0.0
C1048 C 0.01744 0.61677 0.6847 0.0
C1049 C 0.03545 0.61837 0.71098 0.0
C1050 C 0.11818 0.57539 0.79774 0.0
C1051 C 0.13061 0.64185 0.84837 0.0
C1052 C 0.21599 0.60282 0.80488 0.0
C1053 C 0.2384 0.61358 0.82534 0.0
C1054 C 0.23282 0.62577 0.85505 0.0
C1055 C 0.25468 0.63563 0.87397 0.0
C1056 C 0.28238 0.63354 0.86341 0.0
C1057 C 0.28773 0.62232 0.83315 0.0
C1058 C 0.26592 0.61232 0.81435 0.0
C1059 C 0.15526 0.66724 0.75887 0.0
O1060 O 0.11883 0.61582 0.72886 0.0
O1061 O 0.1613 0.59636 0.74161 0.0
O1062 O 0.06022 0.62393 0.77307 0.0
O1063 O 0.08111 0.6602 0.75374 0.0
O1064 O 0.09594 0.58886 0.80647 0.0
O1065 O 0.13137 0.59066 0.77874 0.0
O1066 O 0.15451 0.63226 0.83722 0.0
O1067 O 0.10813 0.64394 0.82995 0.0
O1068 O 0.21106 0.61757 0.77942 0.0
O1069 O 0.19319 0.59403 0.81877 0.0
O1070 O 0.17771 0.65286 0.75479 0.0
O1071 O 0.14116 0.65681 0.78156 0.0
H1072 H 0.03317 0.68857 0.72331 0.0
H1073 H 1.00154 0.68575 0.67746 0.0
H1074 H 1.01292 0.59648 0.67452 0.0
H1075 H 0.04444 0.59932 0.72027 0.0
H1076 H 0.21168 0.62733 0.86381 0.0
H1077 H 0.25001 0.64404 0.89731 0.0
H1078 H 0.30885 0.62086 0.82427 0.0
H1079 H 0.27055 0.60339 0.79124 0.0
Ho1080 Ho 0.15571 0.35146 0.52792 0.0
Ho1081 Ho 0.16792 0.41387 0.53451 0.0
C1082 C 0.18137 0.3867 0.4678 0.0
C1083 C 0.1353 0.3048 0.50638 0.0
C1084 C 0.13681 0.28757 0.47691 0.0
C1085 C 0.11211 0.2781 0.46238 0.0
C1086 C 0.11298 0.26007 0.43597 0.0
C1087 C 0.13862 0.25095 0.42373 0.0
C1088 C 0.16332 0.26137 0.43746 0.0
C1089 C 0.16245 0.2795 0.46368 0.0
C1090 C 0.2096 0.36335 0.5444 0.0
C1091 C 0.14497 0.37995 0.59691 0.0
C1092 C 0.18578 0.46238 0.55174 0.0
C1093 C 0.1769 0.48442 0.57401 0.0
C1094 C 0.1951 0.49278 0.59832 0.0
C1095 C 0.18733 0.51368 0.61965 0.0
C1096 C 0.16126 0.52682 0.61694 0.0
C1097 C 0.14304 0.51852 0.59253 0.0
C1098 C 0.15073 0.4974 0.57131 0.0
C1099 C 0.11737 0.40232 0.50995 0.0
O1100 O 0.16774 0.36413 0.47738 0.0
O1101 O 0.18805 0.40692 0.48773 0.0
O1102 O 0.15756 0.30634 0.52431 0.0
O1103 O 0.12251 0.32875 0.50409 0.0
O1104 O 0.19602 0.34123 0.55342 0.0
O1105 O 0.19407 0.37698 0.52596 0.0
O1106 O 0.15623 0.40266 0.58464 0.0
O1107 O 0.14097 0.35709 0.57934 0.0
O1108 O 0.17011 0.45825 0.52668 0.0
O1109 O 0.19454 0.43911 0.5646 0.0
O1110 O 0.13146 0.42457 0.50346 0.0
O1111 O 0.12944 0.38878 0.53189 0.0
H1112 H 0.09206 0.28412 0.47197 0.0
H1113 H 0.09365 0.25238 0.42595 0.0
H1114 H 0.18339 0.25498 0.42826 0.0
H1115 H 0.18187 0.28669 0.47397 0.0
H1116 H 0.21535 0.48306 0.60086 0.0
H1117 H 0.20167 0.51941 0.63848 0.0
H1118 H 0.123 0.52856 0.5896 0.0
H1119 H 0.13622 0.49138 0.55277 0.0
Ho1120 Ho 0.4381 0.63178 0.30403 0.0
Ho1121 Ho 0.37564 0.62357 0.3019 0.0
C1122 C 0.40486 0.60629 0.36601 0.0
C1123 C 0.48679 0.6481 0.32396 0.0
C1124 C 0.50327 0.64552 0.35398 0.0
C1125 C 0.51306 0.6696 0.36971 0.0
C1126 C 0.53007 0.66752 0.39689 0.0
C1127 C 0.53792 0.64127 0.40875 0.0
C1128 C 0.52726 0.61723 0.39372 0.0
C1129 C 0.51016 0.6193 0.36675 0.0
C1130 C 0.42258 0.57898 0.28688 0.0
C1131 C 0.40795 0.64244 0.23659 0.0
C1132 C 0.32456 0.61043 0.28918 0.0
C1133 C 0.30371 0.61673 0.26435 0.0
C1134 C 0.29582 0.59573 0.24285 0.0
C1135 C 0.2767 0.60137 0.21871 0.0
C1136 C 0.26499 0.62808 0.21571 0.0
C1137 C 0.27202 0.64888 0.2378 0.0
C1138 C 0.29132 0.64329 0.26192 0.0
C1139 C 0.39172 0.67188 0.32925 0.0
O1140 O 0.42781 0.61804 0.35471 0.0
O1141 O 0.38277 0.60233 0.34793 0.0
O1142 O 0.48276 0.6255 0.30707 0.0
O1143 O 0.46457 0.66375 0.32504 0.0
O1144 O 0.44418 0.59211 0.27566 0.0
O1145 O 0.41093 0.59462 0.30701 0.0
O1146 O 0.38534 0.63258 0.25053 0.0
O1147 O 0.43132 0.64677 0.25298 0.0
O1148 O 0.33166 0.63087 0.30815 0.0
O1149 O 0.34588 0.59523 0.28048 0.0
O1150 O 0.37005 0.65776 0.33757 0.0
O1151 O 0.40276 0.66105 0.30465 0.0
H1152 H 0.50797 0.6901 0.36057 0.0
H1153 H 0.53796 0.6864 0.40791 0.0
H1154 H 0.53264 0.59669 0.40253 0.0
H1155 H 0.50277 0.60029 0.35559 0.0
H1156 H 0.30469 0.57499 0.24448 0.0
H1157 H 0.27127 0.58492 0.20209 0.0
H1158 H 0.2632 0.66961 0.23584 0.0
H1159 H 0.29673 0.65988 0.27834 0.0
Ho1160 Ho 0.15526 0.67706 0.05686 0.0
Ho1161 Ho 0.16569 0.61594 0.04489 0.0
C1162 C 0.19028 0.64126 0.10878 0.0
C1163 C 0.13748 0.72363 0.08158 0.0
C1164 C 0.13857 0.74046 0.11147 0.0
C1165 C 0.12122 0.7345 0.13769 0.0
C1166 C 0.11991 0.75279 0.1639 0.0
C1167 C 0.1356 0.77756 0.16422 0.0
C1168 C 0.1537 0.78285 0.13864 0.0
C1169 C 0.15508 0.76464 0.11262 0.0
C1170 C 0.20656 0.66628 1.03054 0.0
C1171 C 0.14032 0.65302 0.98667 0.0
C1172 C 0.18039 0.56632 1.02758 0.0
C1173 C 0.16915 0.54275 1.00939 0.0
C1174 C 0.1491 0.54658 0.98547 0.0
C1175 C 0.14023 0.52385 0.96714 0.0
C1176 C 0.15127 0.49711 0.97265 0.0
C1177 C 0.17028 0.49325 0.99766 0.0
C1178 C 0.17912 0.51592 1.01592 0.0
C1179 C 0.11936 0.6264 0.07951 0.0
O1180 O 0.17267 0.66228 0.10476 0.0
O1181 O 0.19476 0.6233 0.08548 0.0
O1182 O 0.16023 0.7216 0.06473 0.0
O1183 O 0.12337 0.70035 0.08184 0.0
O1184 O 0.19174 0.68852 1.02533 0.0
O1185 O 0.19343 0.65194 0.05052 0.0
O1186 O 0.15038 0.62883 0.99634 0.0
O1187 O 0.13825 0.67485 1.00616 0.0
O1188 O 0.1678 0.57174 0.05435 0.0
O1189 O 0.18682 0.58885 1.01159 0.0
O1190 O 0.13523 0.6049 0.08277 0.0
O1191 O 0.12738 0.64048 0.05563 0.0
H1192 H 0.108 0.71618 0.13756 0.0
H1193 H 0.10581 0.74818 0.18326 0.0
H1194 H 0.16636 0.80157 0.13841 0.0
H1195 H 0.16849 0.77002 0.09286 0.0
H1196 H 0.14101 0.56718 0.98035 0.0
H1197 H 0.12595 0.52743 0.94759 0.0
H1198 H 0.17913 0.47285 1.00224 0.0
H1199 H 0.19438 0.51262 1.03455 0.0
Ho1200 Ho 0.10361 0.40132 0.80425 0.0
Ho1201 Ho 0.16576 0.40849 0.79842 0.0
C1202 C 0.13944 0.42492 0.86445 0.0
C1203 C 0.05475 0.38687 0.82485 0.0
C1204 C 0.03945 0.38728 0.8557 0.0
C1205 C 0.04316 0.36619 0.87871 0.0
C1206 C 0.02684 0.36569 0.90642 0.0
C1207 C 1.00633 0.38605 0.91146 0.0
C1208 C 1.00308 0.40744 0.88898 0.0
C1209 C 0.01944 0.40808 0.86148 0.0
C1210 C 0.11969 0.45354 0.78522 0.0
C1211 C 0.13026 0.3896 0.73536 0.0
C1212 C 0.21672 0.42108 0.78501 0.0
C1213 C 0.23711 0.41347 0.76059 0.0
C1214 C 0.22875 0.40811 0.72918 0.0
C1215 C 0.24858 0.40179 0.70609 0.0
C1216 C 0.27696 0.40048 0.71412 0.0
C1217 C 0.28521 0.4048 0.74576 0.0
C1218 C 0.26535 0.41132 0.76887 0.0
C1219 C 0.15037 0.36005 0.8257 0.0
O1220 O 0.11682 0.41136 0.85508 0.0
O1221 O 0.15968 0.4306 0.84433 0.0
O1222 O 0.05998 0.41094 0.81159 0.0
O1223 O 0.07555 0.36948 0.82196 0.0
O1224 O 0.0976 0.44051 0.77517 0.0
O1225 O 0.1314 0.43822 0.80557 0.0
O1226 O 0.1538 0.39933 0.7474 0.0
O1227 O 0.10767 0.38618 0.75315 0.0
O1228 O 0.20981 0.40105 0.80442 0.0
O1229 O 0.19533 0.43597 0.77575 0.0
O1230 O 0.17264 0.37373 0.83297 0.0
O1231 O 0.13824 0.37145 0.80224 0.0
H1232 H 0.05805 0.34958 0.87492 0.0
H1233 H 0.02943 0.34877 0.92322 0.0
H1234 H 0.98719 0.42324 0.89224 0.0
H1235 H 1.01582 0.42446 0.84425 0.0
H1236 H 0.20702 0.40929 0.72237 0.0
H1237 H 0.24183 0.39851 0.68175 0.0
H1238 H 0.30703 0.40422 0.75231 0.0
H1239 H 0.27206 0.41517 0.79311 0.0
Ho1240 Ho 0.38263 0.35219 0.55342 0.0
Ho1241 Ho 0.37308 0.41379 0.54133 0.0
C1242 C 0.35145 0.39007 0.60667 0.0
C1243 C 0.40039 0.306 0.57849 0.0
C1244 C 0.40065 0.29214 0.61004 0.0
C1245 C 0.42554 0.2805 0.6215 0.0
C1246 C 0.42593 0.26531 0.64996 0.0
C1247 C 0.4014 0.26143 0.66768 0.0
C1248 C 0.37662 0.27376 0.65656 0.0
C1249 C 0.37626 0.28905 0.62816 0.0
C1250 C 0.33094 0.36367 0.52907 0.0
C1251 C 0.39658 0.37554 0.483 0.0
C1252 C 0.35907 0.46343 0.52382 0.0
C1253 C 0.37144 0.48656 0.50598 0.0
C1254 C 0.38874 0.48178 0.47966 0.0
C1255 C 0.39897 0.50428 0.46212 0.0
C1256 C 0.39225 0.53181 0.47088 0.0
C1257 C 0.37599 0.53644 0.49813 0.0
C1258 C 0.36566 0.51396 0.51552 0.0
C1259 C 0.42014 0.40229 0.57433 0.0
O1260 O 0.36825 0.36852 0.60182 0.0
O1261 O 0.3456 0.40729 0.58313 0.0
O1262 O 0.37637 0.3085 0.56411 0.0
O1263 O 0.41589 0.32824 0.5754 0.0
O1264 O 0.34503 0.341 0.52345 0.0
O1265 O 0.34484 0.37824 0.54836 0.0
O1266 O 0.38732 0.40004 0.49277 0.0
O1267 O 0.39832 0.35366 0.50233 0.0
O1268 O 0.37089 0.45796 0.55107 0.0
O1269 O 0.35248 0.44092 0.50772 0.0
O1270 O 0.40545 0.42464 0.57763 0.0
O1271 O 0.41066 0.38832 0.55105 0.0
H1272 H 0.44463 0.2826 0.60802 0.0
H1273 H 0.44536 0.25613 0.65782 0.0
H1274 H 0.35719 0.27068 0.6691 0.0
H1275 H 0.35673 0.29782 0.62002 0.0
H1276 H 0.39369 0.46072 0.47214 0.0
H1277 H 0.41093 0.50008 0.44082 0.0
H1278 H 0.37048 0.55745 0.50531 0.0
H1279 H 0.35258 0.51797 0.53601 0.0
C1280 C 0.30289 0.16659 0.18586 0.0
C1281 C 0.30228 0.14099 0.20229 0.0
C1282 C 0.32228 0.17137 0.1615 0.0
C1283 C 0.34135 0.15054 0.15277 0.0
H1284 H 0.28727 0.18236 0.19062 0.0
H1285 H 0.32066 0.19033 0.14763 0.0
S1286 S 0.35049 0.08139 0.19043 0.0
N1287 N 0.32425 0.09572 0.20981 0.0
N1288 N 0.36052 0.10483 0.16411 0.0
C1289 C 0.34244 0.12591 0.17064 0.0
C1290 C 0.32291 0.12107 0.19544 0.0
C1291 C 0.17124 0.0829 0.40429 0.0
C1292 C 0.14405 0.09043 0.39541 0.0
C1293 C 0.17611 0.06572 0.43047 0.0
C1294 C 0.15394 0.05524 0.44865 0.0
H1295 H 0.18889 0.08939 0.39007 0.0
H1296 H 0.19733 0.05934 0.43538 0.0
S1297 S 0.07902 0.07153 0.43763 0.0
N1298 N 0.09477 0.08833 0.40847 0.0
N1299 N 0.10395 0.0558 0.45796 0.0
C1300 C 0.12672 0.06398 0.44125 0.0
C1301 C 0.12177 0.08177 0.41462 0.0
C1302 C 0.21494 0.92784 0.68735 0.0
C1303 C 0.22774 0.90507 0.70246 0.0
C1304 C 0.19717 0.92383 0.66142 0.0
C1305 C 0.19131 0.89694 0.64989 0.0
H1306 H 0.21999 0.94902 0.69434 0.0
H1307 H 0.18901 0.94204 0.64934 0.0
S1308 S 0.21664 0.83024 0.68369 0.0
N1309 N 0.23124 0.85455 0.70614 0.0
N1310 N 0.19755 0.84702 0.65719 0.0
C1311 C 0.20228 0.87386 0.66617 0.0
C1312 C 0.22068 0.87794 0.69247 0.0
C1313 C 0.36427 0.96211 0.9065 0.0
C1314 C 0.39067 0.95213 0.89749 0.0
C1315 C 0.36079 0.97867 0.93354 0.0
C1316 C 0.38356 0.98601 0.95282 0.0
H1317 H 0.34607 0.95775 0.89205 0.0
H1318 H 0.34018 0.98666 0.93868 0.0
S1319 S 0.4567 0.96321 0.94163 0.0
N1320 N 0.43978 0.94917 0.9113 0.0
N1321 N 0.43318 0.98047 0.9625 0.0
C1322 C 0.40995 0.97528 0.94497 0.0
C1323 C 0.4135 0.95816 0.91734 0.0
C1324 C 0.32545 0.87738 0.428 0.0
C1325 C 0.33352 0.90054 0.44647 0.0
C1326 C 0.30662 0.88049 0.4026 0.0
C1327 C 0.29538 0.9068 0.39514 0.0
H1328 H 0.33249 0.85662 0.43423 0.0
H1329 H 0.29982 0.86211 0.3897 0.0
S1330 S 0.31357 0.97438 0.43271 0.0
N1331 N 0.33161 0.951 0.45285 0.0
N1332 N 0.29617 0.95662 0.40547 0.0
C1333 C 0.30477 0.93022 0.41203 0.0
C1334 C 0.3239 0.92714 0.43761 0.0
C1335 C 0.41305 0.06332 0.65503 0.0
C1336 C 0.38733 0.0615 0.63898 0.0
C1337 C 0.41703 0.08251 0.67991 0.0
C1338 C 0.39524 0.10009 0.68966 0.0
H1339 H 0.42968 0.04889 0.64937 0.0
H1340 H 0.43638 0.08194 0.6932 0.0
S1341 S 0.32511 0.1056 0.65344 0.0
N1342 N 0.34069 0.08064 0.63302 0.0
N1343 N 0.34827 0.11656 0.67969 0.0
C1344 C 0.37026 0.09989 0.67233 0.0
C1345 C 0.36625 0.0806 0.64698 0.0
C1346 C 0.20828 0.11615 0.93827 0.0
C1347 C 0.19542 0.14179 0.94551 0.0
C1348 C 0.22711 0.11372 0.91324 0.0
C1349 C 0.23358 0.1367 0.89412 0.0
H1350 H 0.20459 0.09785 0.95276 0.0
H1351 H 0.23717 0.09378 0.90922 0.0
S1352 S 0.20377 0.20779 0.90057 0.0
N1353 N 0.18903 0.19025 0.92986 0.0
N1354 N 0.22441 0.18541 0.88214 0.0
C1355 C 0.21972 0.16207 0.8996 0.0
C1356 C 0.20055 0.16467 0.92543 0.0
C1357 C 0.15691 0.94759 0.1772 0.0
C1358 C 0.13105 0.94507 0.19247 0.0
C1359 C 0.16014 0.9647 0.15068 0.0
C1360 C 0.13763 0.9801 0.13857 0.0
H1361 H 0.17517 0.93724 0.18671 0.0
H1362 H 0.18084 0.96721 0.14088 0.0
S1363 S 0.06469 0.97772 0.16729 0.0
N1364 N 0.08184 0.95692 0.19174 0.0
N1365 N 0.08791 0.98941 0.14157 0.0
C1366 C 0.11118 0.97628 0.15223 0.0
C1367 C 0.10784 0.95856 0.17921 0.0
C1368 C 0.72203 0.88262 0.89917 0.0
C1369 C 0.73265 0.90908 0.89121 0.0
C1370 C 0.70224 0.87959 0.92352 0.0
C1371 C 0.69252 0.90299 0.94045 0.0
H1372 H 0.73018 0.86407 0.88773 0.0
H1373 H 0.69598 0.85877 0.93049 0.0
S1374 S 0.71011 0.97703 0.92456 0.0
N1375 N 0.72928 0.95918 0.89909 0.0
N1376 N 0.6922 0.95359 0.94471 0.0
C1377 C 0.70139 0.92963 0.93088 0.0
C1378 C 0.72147 0.93267 0.90631 0.0
C1379 C 0.91416 0.98248 0.65562 0.0
C1380 C 0.88796 0.98456 0.64068 0.0
C1381 C 0.9186 0.96356 0.68058 0.0
C1382 C 0.89682 0.94658 0.6916 0.0
H1383 H 0.93096 0.99629 0.64875 0.0
H1384 H 0.93853 0.96365 0.69271 0.0
S1385 S 0.82522 0.94238 0.65892 0.0
N1386 N 0.84064 0.96664 0.6374 0.0
N1387 N 0.84904 0.93126 0.68424 0.0
C1388 C 0.87113 0.94732 0.67566 0.0
C1389 C 0.86666 0.9663 0.6502 0.0
C1390 C 0.80821 0.16345 0.40301 0.0
C1391 C 0.80334 0.13647 0.39079 0.0
C1392 C 0.82604 0.1677 0.42913 0.0
C1393 C 0.83913 0.14499 0.44405 0.0
H1394 H 0.79731 0.18122 0.39311 0.0
H1395 H 0.82806 0.18852 0.43896 0.0
S1396 S 0.83522 0.0707 0.41969 0.0
N1397 N 0.81466 0.08711 0.3944 0.0
N1398 N 0.84804 0.09512 0.44327 0.0
C1399 C 0.83574 0.11825 0.4309 0.0
C1400 C 0.81786 0.11395 0.4043 0.0
C1401 C 0.66975 0.07358 0.15668 0.0
C1402 C 0.64862 0.05571 0.14559 0.0
C1403 C 0.66491 0.0922 0.18172 0.0
C1404 C 0.63871 0.09383 0.19649 0.0
H1405 H 0.69069 0.07201 0.14729 0.0
H1406 H 0.68225 0.10437 0.19073 0.0
S1407 S 0.57548 0.05402 0.17382 0.0
N1408 N 0.5997 0.04287 0.149 0.0
N1409 N 0.59078 0.07756 0.19668 0.0
C1410 C 0.61686 0.07751 0.18425 0.0
C1411 C 0.62181 0.05844 0.15871 0.0
C1412 C 0.71422 0.10937 0.68771 0.0
C1413 C 0.72707 0.13187 0.70342 0.0
C1414 C 0.69659 0.11381 0.6618 0.0
C1415 C 0.69093 0.14089 0.65085 0.0
H1416 H 0.7191 0.08807 0.69426 0.0
H1417 H 0.68826 0.0958 0.64936 0.0
S1418 S 0.71679 0.207 0.686 0.0
N1419 N 0.73103 0.18232 0.70807 0.0
N1420 N 0.69766 0.19066 0.65909 0.0
C1421 C 0.70209 0.1637 0.66758 0.0
C1422 C 0.72033 0.15917 0.69389 0.0
C1423 C 0.62279 0.96906 0.44451 0.0
C1424 C 0.63536 0.99539 0.44103 0.0
C1425 C 0.61991 0.95103 0.41826 0.0
C1426 C 0.63062 0.95852 0.38839 0.0
H1427 H 0.61567 0.96225 0.46766 0.0
H1428 H 0.6104 0.9308 0.42165 0.0
S1429 S 0.6636 0.02619 0.36712 0.0
N1430 N 0.65667 0.02889 0.40542 0.0
N1431 N 0.6524 0.99497 0.35652 0.0
C1432 C 0.64226 0.98531 0.38463 0.0
C1433 C 0.64444 1.00374 0.41093 0.0
C1434 C 0.83614 0.88384 0.17 0.0
C1435 C 0.82476 0.88628 0.13934 0.0
C1436 C 0.81904 0.88614 0.19699 0.0
C1437 C 0.79012 0.89019 0.19385 0.0
H1438 H 0.85841 0.88149 0.17313 0.0
H1439 H 0.82849 0.88537 0.22039 0.0
S1440 S 0.75021 0.89577 0.11861 0.0
N1441 N 0.78283 0.89139 0.10734 0.0
N1442 N 0.75087 0.89543 0.15784 0.0
C1443 C 0.7785 0.89135 0.16326 0.0
C1444 C 0.79581 0.88944 0.13602 0.0
C1445 C 0.89645 0.09471 0.92477 0.0
C1446 C 0.89564 0.08271 0.89427 0.0
C1447 C 0.89339 0.07797 0.95198 0.0
C1448 C 0.89028 0.04886 0.94919 0.0
H1449 H 0.89796 0.11714 0.92751 0.0
H1450 H 0.89269 0.08782 0.97518 0.0
S1451 S 0.88852 1.00752 0.87465 0.0
N1452 N 0.89258 0.04011 0.86291 0.0
N1453 N 0.88752 1.00881 0.91385 0.0
C1454 C 0.8908 0.03667 0.91887 0.0
C1455 C 0.89334 0.0536 0.89139 0.0
C1456 C 0.82336 0.63897 0.69887 0.0
C1457 C 0.79417 0.63986 0.69563 0.0
C1458 C 0.84078 0.64322 0.67244 0.0
C1459 C 0.82933 0.64798 0.64219 0.0
H1460 H 0.83268 0.63414 0.72169 0.0
H1461 H 0.86312 0.64122 0.67532 0.0
S1462 S 0.75445 0.65277 0.6215 0.0
N1463 N 0.75486 0.64647 0.66005 0.0
N1464 N 0.78743 0.65443 0.61067 0.0
C1465 C 0.80031 0.64988 0.639 0.0
C1466 C 0.78273 0.6458 0.6657 0.0
C1467 C 0.66223 0.59174 0.91219 0.0
C1468 C 0.63713 0.59004 0.89522 0.0
C1469 C 0.66786 0.57354 0.93725 0.0
C1470 C 0.6489 0.55242 0.94558 0.0
H1471 H 0.67833 0.60618 0.90483 0.0
H1472 H 0.68789 0.57502 0.94904 0.0
S1473 S 0.57971 0.53997 0.90866 0.0
N1474 N 0.59249 0.56694 0.88911 0.0
N1475 N 0.60335 0.53173 0.93566 0.0
C1476 C 0.623 0.55148 0.92984 0.0
C1477 C 0.61707 0.57051 0.90465 0.0
C1478 C 0.71045 0.3731 0.16191 0.0
C1479 C 0.69681 0.39595 0.14796 0.0
C1480 C 0.72861 0.37701 0.18776 0.0
C1481 C 0.73322 0.40377 0.20066 0.0
H1482 H 0.70849 0.35247 0.15156 0.0
H1483 H 0.7398 0.35917 0.19708 0.0
S1484 S 0.70035 0.46976 0.17411 0.0
N1485 N 0.68749 0.44571 0.15004 0.0
N1486 N 0.72139 0.45306 0.19864 0.0
C1487 C 0.71837 0.42642 0.188 0.0
C1488 C 0.7002 0.42249 0.16161 0.0
C1489 C 0.9121 0.47727 0.43865 0.0
C1490 C 0.88589 0.47827 0.45368 0.0
C1491 C 0.91706 0.45894 0.41314 0.0
C1492 C 0.89583 0.44139 0.40178 0.0
H1493 H 0.92839 0.49169 0.44563 0.0
H1494 H 0.93678 0.46014 0.40073 0.0
S1495 S 0.82471 0.43391 0.43468 0.0
N1496 N 0.83935 0.45838 0.45678 0.0
N1497 N 0.84879 0.42408 0.40902 0.0
C1498 C 0.87033 0.44077 0.41801 0.0
C1499 C 0.86531 0.4592 0.44396 0.0
C1500 C 0.79532 0.37569 0.91345 0.0
C1501 C 0.80016 0.39812 0.89254 0.0
C1502 C 0.81439 0.3693 0.93767 0.0
C1503 C 0.83867 0.38522 0.94159 0.0
H1504 H 0.77579 0.36439 0.91263 0.0
H1505 H 0.80894 0.35352 0.95501 0.0
S1506 S 0.8634 0.44248 0.88991 0.0
N1507 N 0.83314 0.43319 0.87442 0.0
N1508 N 0.86825 0.42193 0.9209 0.0
C1509 C 0.84483 0.40605 0.91938 0.0
C1510 C 0.82573 0.4123 0.89453 0.0
C1511 C 0.86863 0.5837 0.17514 0.0
C1512 C 0.89496 0.59132 0.18708 0.0
C1513 C 0.86592 0.56622 0.14874 0.0
C1514 C 0.88943 0.55555 0.13307 0.0
H1515 H 0.84979 0.59045 0.18703 0.0
H1516 H 0.84516 0.55999 0.14148 0.0
S1517 S 0.96311 0.57205 0.15198 0.0
N1518 N 0.94509 0.5891 0.17924 0.0
N1519 N 0.93996 0.55595 0.1293 0.0
C1520 C 0.91594 0.5642 0.14351 0.0
C1521 C 0.91871 0.5823 0.17046 0.0
C1522 C 0.72764 0.60757 0.41028 0.0
C1523 C 0.73238 0.62983 0.38941 0.0
C1524 C 0.70931 0.61031 0.43577 0.0
C1525 C 0.69522 0.63556 0.4417 0.0
H1526 H 0.73879 0.58808 0.40734 0.0
H1527 H 0.70707 0.59272 0.45172 0.0
S1528 S 0.69848 0.69928 0.39188 0.0
N1529 N 0.71998 0.67716 0.37436 0.0
N1530 N 0.68552 0.68257 0.42285 0.0
C1531 C 0.69844 0.65749 0.41982 0.0
C1532 C 0.7171 0.65458 0.39355 0.0
C1533 C 0.62546 0.45603 0.67903 0.0
C1534 C 0.64682 0.44098 0.69402 0.0
C1535 C 0.63156 0.47449 0.65411 0.0
C1536 C 0.65914 0.47817 0.64352 0.0
H1537 H 0.60443 0.45532 0.68829 0.0
H1538 H 0.61495 0.48732 0.64463 0.0
S1539 S 0.72124 0.43915 0.67117 0.0
N1540 N 0.69567 0.42806 0.6941 0.0
N1541 N 0.70701 0.46184 0.64651 0.0
C1542 C 0.68008 0.46111 0.65637 0.0
C1543 C 0.67393 0.4427 0.68186 0.0
C1544 C 0.1969 0.41454 0.42189 0.0
C1545 C 0.1937 0.38815 0.43587 0.0
C1546 C 0.21453 0.41843 0.39592 0.0
C1547 C 0.22982 0.39607 0.38313 0.0
H1548 H 0.18692 0.43269 0.43225 0.0
H1549 H 0.21765 0.43948 0.38728 0.0
S1550 S 0.22569 0.32206 0.40834 0.0
N1551 N 0.20476 0.33872 0.43308 0.0
N1552 N 0.23815 0.346 0.38395 0.0
C1553 C 0.2252 0.36915 0.39536 0.0
C1554 C 0.20696 0.36516 0.42176 0.0
C1555 C 0.40256 0.45061 0.16639 0.0
C1556 C 0.39656 0.46031 0.19718 0.0
C1557 C 0.3991 0.46813 0.1399 0.0
C1558 C 0.39045 0.496 0.14374 0.0
H1559 H 0.40895 0.42919 0.16267 0.0
H1560 H 0.40292 0.45982 0.11632 0.0
S1561 S 0.37489 0.53212 0.2197 0.0
N1562 N 0.38341 0.50005 0.23013 0.0
N1563 N 0.37739 0.53283 0.18057 0.0
C1564 C 0.38573 0.50621 0.17452 0.0
C1565 C 0.38874 0.4884 0.20124 0.0
C1566 C 0.30539 0.666 0.90231 0.0
C1567 C 0.30557 0.64065 0.88526 0.0
C1568 C 0.3244 0.67086 0.92712 0.0
C1569 C 0.34385 0.65034 0.93574 0.0
H1570 H 0.28961 0.68157 0.89743 0.0
H1571 H 0.32236 0.6897 0.94122 0.0
S1572 S 0.35458 0.58172 0.89702 0.0
N1573 N 0.32833 0.59581 0.87739 0.0
N1574 N 0.36386 0.60503 0.92401 0.0
C1575 C 0.34547 0.62584 0.91756 0.0
C1576 C 0.32635 0.62094 0.89228 0.0
C1577 C 0.16807 0.58852 0.67273 0.0
C1578 C 0.14315 0.58755 0.69004 0.0
C1579 C 0.17303 0.56978 0.64784 0.0
C1580 C 0.15346 0.54902 0.63988 0.0
H1581 H 0.18434 0.60309 0.67941 0.0
H1582 H 0.19282 0.57085 0.63556 0.0
S1583 S 0.08481 0.53805 0.6783 0.0
N1584 N 0.09831 0.56509 0.69726 0.0
N1585 N 0.10787 0.52911 0.651 0.0
C1586 C 0.12792 0.54861 0.65626 0.0
C1587 C 0.12272 0.56806 0.68129 0.0
C1588 C 0.20111 0.64737 0.16687 0.0
C1589 C 0.20987 0.64091 0.13584 0.0
C1590 C 0.2193 0.64404 0.19287 0.0
C1591 C 0.24669 0.63433 0.18836 0.0
H1592 H 0.17986 0.65395 0.17119 0.0
H1593 H 0.21165 0.64814 0.21665 0.0
S1594 S 0.2811 0.61951 0.11135 0.0
N1595 N 0.24877 0.62769 0.10182 0.0
N1596 N 0.28268 0.62181 0.15048 0.0
C1597 C 0.2561 0.62956 0.1573 0.0
C1598 C 0.23774 0.63277 0.13105 0.0
C1599 C 0.16731 0.44475 0.90847 0.0
C1600 C 0.14092 0.43809 0.89611 0.0
C1601 C 0.1702 0.46255 0.93455 0.0
C1602 C 0.1468 0.47454 0.94917 0.0
H1603 H 0.18604 0.43721 0.89696 0.0
H1604 H 0.19103 0.46826 0.94211 0.0
S1605 S 0.0729 0.46036 0.92922 0.0
N1606 N 0.09074 0.44209 0.90283 0.0
N1607 N 0.09627 0.47612 0.95193 0.0
C1608 C 0.12018 0.4666 0.93853 0.0
C1609 C 0.1172 0.44808 0.91206 0.0
C1610 C 0.31549 0.41483 0.63814 0.0
C1611 C 0.33502 0.39295 0.63623 0.0
C1612 C 0.29723 0.4171 0.66368 0.0
C1613 C 0.29785 0.3978 0.68863 0.0
H1614 H 0.31365 0.43018 0.61938 0.0
H1615 H 0.28227 0.43403 0.66377 0.0
S1616 S 0.34611 0.33793 0.69693 0.0
N1617 N 0.35485 0.35238 0.66271 0.0
N1618 N 0.3203 0.35696 0.71126 0.0
C1619 C 0.31792 0.37648 0.68803 0.0
C1620 C 0.33656 0.37397 0.66169 0.0
C1621 C 0.37612 0.57213 0.43892 0.0
C1622 C 0.39827 0.55512 0.44892 0.0
C1623 C 0.37928 0.59054 0.41352 0.0
C1624 C 0.40474 0.59278 0.39735 0.0
H1625 H 0.3556 0.56985 0.44929 0.0
H1626 H 0.36116 0.60194 0.40531 0.0
S1627 S 0.47036 0.55611 0.41743 0.0
N1628 N 0.44745 0.54404 0.44328 0.0
N1629 N 0.45339 0.5789 0.39524 0.0
C1630 C 0.42775 0.57772 0.40876 0.0
C1631 C 0.42447 0.5587 0.43457 0.0
C1632 C 0.12695 0.23214 0.36865 0.0
C1633 C 0.13994 0.22886 0.39859 0.0
C1634 C 0.13016 0.21196 0.34427 0.0
C1635 C 0.14636 0.18786 0.34917 0.0
H1636 H 0.11506 0.25084 0.36372 0.0
H1637 H 0.12086 0.21576 0.32119 0.0
S1638 S 0.18053 0.16732 0.42504 0.0
N1639 N 0.16663 0.19809 0.43272 0.0
N1640 N 0.17273 0.16056 0.38757 0.0
C1641 C 0.158 0.18376 0.37963 0.0
C1642 C 0.15477 0.20413 0.40416 0.0
C1643 C 0.07174 0.88582 0.59554 0.0
C1644 C 0.09554 0.90237 0.60105 0.0
C1645 C 0.05176 0.88154 0.6198 0.0
C1646 C 0.05509 0.89362 0.65021 0.0
H1647 H 0.06804 0.87705 0.57215 0.0
H1648 H 0.03328 0.86941 0.61451 0.0
S1649 S 0.11524 0.93549 0.67799 0.0
N1650 N 0.12221 0.92863 0.64035 0.0
N1651 N 0.08495 0.92053 0.68517 0.0
C1652 C 0.07934 0.90898 0.65629 0.0
C1653 C 0.09948 0.91336 0.63191 0.0
C1654 C 0.38861 0.85844 0.88578 0.0
C1655 C 0.39006 0.85124 0.85337 0.0
C1656 C 0.39197 0.83841 0.90975 0.0
C1657 C 0.39641 0.81006 0.90246 0.0
H1658 H 0.38381 0.87968 0.89275 0.0
H1659 H 0.39025 0.84514 0.93429 0.0
S1660 S 0.40247 0.78044 0.82099 0.0
N1661 N 0.39727 0.81411 0.81501 0.0
N1662 N 0.40293 0.77607 0.85998 0.0
C1663 C 0.39902 0.80273 0.87003 0.0
C1664 C 0.39594 0.82338 0.84552 0.0
C1665 C 0.46182 0.12415 0.10869 0.0
C1666 C 0.44252 0.14567 0.10293 0.0
C1667 C 0.48199 0.12634 0.13281 0.0
C1668 C 0.48355 0.1501 0.1525 0.0
H1669 H 0.46013 0.10461 0.0958 0.0
H1670 H 0.49515 0.10845 0.13741 0.0
S1671 S 0.4397 0.21347 0.14539 0.0
N1672 N 0.42734 0.19212 0.11787 0.0
N1673 N 0.46598 0.1969 0.16218 0.0
C1674 C 0.46565 0.17258 0.14552 0.0
C1675 C 0.44498 0.17022 0.12101 0.0
C1676 C 0.13878 0.81418 0.24533 0.0
C1677 C 0.13466 0.84235 0.23703 0.0
C1678 C 0.13747 0.79279 0.22209 0.0
C1679 C 0.13223 0.79899 0.18983 0.0
H1680 H 0.14496 0.80887 0.26935 0.0
H1681 H 0.14225 0.77158 0.22905 0.0
S1682 S 0.11635 0.86885 0.15676 0.0
N1683 N 0.12278 0.87462 0.19477 0.0
N1684 N 0.11957 0.83484 0.15179 0.0
C1685 C 0.12613 0.82677 0.18189 0.0
C1686 C 0.12762 0.84833 0.20529 0.0
C1687 C 0.45318 0.91408 0.43218 0.0
C1688 C 0.47581 0.89569 0.43545 0.0
C1689 C 0.43403 0.9183 0.45686 0.0
C1690 C 0.43624 0.90426 0.48622 0.0
H1691 H 0.45039 0.92578 0.41039 0.0
H1692 H 0.41721 0.93292 0.45272 0.0
S1693 S 0.49127 0.85329 0.50729 0.0
N1694 N 0.49907 0.86273 0.47055 0.0
N1695 N 0.46299 0.87096 0.51714 0.0
C1696 C 0.45857 0.88556 0.48997 0.0
C1697 C 0.47837 0.8813 0.46465 0.0
C1698 C 0.41346 0.21573 0.69343 0.0
C1699 C 0.40107 0.2423 0.69577 0.0
C1700 C 0.40977 0.19555 0.71722 0.0
C1701 C 0.39404 0.20124 0.74465 0.0
H1702 H 0.42461 0.20978 0.67208 0.0
H1703 H 0.41785 0.17484 0.71303 0.0
S1704 S 0.35967 0.26828 0.76421 0.0
N1705 N 0.37439 0.2739 0.72931 0.0
N1706 N 0.3673 0.23573 0.77375 0.0
C1707 C 0.38284 0.22811 0.74819 0.0
C1708 C 0.38646 0.2487 0.72391 0.0
C1709 C 0.06718 0.15293 0.9924 0.0
C1710 C 0.09329 0.14158 0.98447 0.0
C1711 C 0.04658 0.1571 0.9688 0.0
C1712 C 0.05156 0.15005 0.93667 0.0
H1713 H 0.06211 0.15709 1.01705 0.0
H1714 H 0.02626 0.16465 0.97592 0.0
S1715 S 0.11826 0.12461 0.90312 0.0
N1716 N 0.12398 0.12665 0.94177 0.0
N1717 N 0.0858 0.13496 0.89789 0.0
C1718 C 0.07827 0.14068 0.92838 0.0
C1719 C 0.09898 0.13633 0.95217 0.0
C1720 C 0.88139 0.81787 0.73858 0.0
C1721 C 0.89769 0.8423 0.73754 0.0
C1722 C 0.88327 0.79722 0.71468 0.0
C1723 C 0.90108 0.80052 0.68832 0.0
H1724 H 0.86597 0.81538 0.75714 0.0
H1725 H 0.86948 0.77937 0.7159 0.0
S1726 S 0.9491 0.86004 0.67493 0.0
N1727 N 0.9328 0.86799 0.70828 0.0
N1728 N 0.93681 0.82931 0.66399 0.0
C1729 C 0.91836 0.82427 0.68779 0.0
C1730 C 0.91649 0.84515 0.71215 0.0
C1731 C 0.96151 0.16801 0.44956 0.0
C1732 C 0.98441 0.14953 0.44865 0.0
C1733 C 0.94063 0.16568 0.47295 0.0
C1734 C 0.94197 0.14501 0.49659 0.0
H1735 H 0.95883 0.18344 0.43102 0.0
H1736 H 0.92246 0.17892 0.47113 0.0
S1737 S 0.99872 0.09347 0.50728 0.0
N1738 N 1.00819 0.11153 0.47567 0.0
N1739 N 0.9687 0.10685 0.51887 0.0
C1740 C 0.96528 0.12731 0.49688 0.0
C1741 C 0.98656 0.12968 0.47322 0.0
C1742 C 0.66544 0.23681 0.21668 0.0
C1743 C 0.64148 0.23887 0.1975 0.0
C1744 C 0.6673 0.21712 0.24138 0.0
C1745 C 0.64543 0.19835 0.24803 0.0
H1746 H 0.68312 0.25031 0.2123 0.0
H1747 H 0.68654 0.21609 0.25482 0.0
S1748 S 0.57804 0.19529 0.20496 0.0
N1749 N 0.59512 0.22074 0.18728 0.0
N1750 N 0.59886 0.18354 0.23324 0.0
C1751 C 0.62109 0.20064 0.22955 0.0
C1752 C 0.61908 0.2209 0.20448 0.0
C1753 C 0.56874 0.92252 0.94105 0.0
C1754 C 0.54906 0.90086 0.94286 0.0
C1755 C 0.58907 0.92627 0.96458 0.0
C1756 C 0.59094 0.90858 0.99127 0.0
H1757 H 0.56873 0.93659 0.92092 0.0
H1758 H 0.60371 0.94325 0.9615 0.0
S1759 S 0.54368 0.84937 1.00854 0.0
N1760 N 0.53227 0.86167 0.9742 0.0
N1761 N 0.57049 0.86911 1.01879 0.0
C1762 C 0.57131 0.88692 0.99374 0.0
C1763 C 0.55049 0.88293 0.96946 0.0
C1764 C 0.87625 0.20466 0.91267 0.0
C1765 C 0.89265 0.22847 0.90717 0.0
C1766 C 0.87106 0.18507 0.88862 0.0
C1767 C 0.88214 0.18804 0.85777 0.0
H1768 H 0.8668 0.20134 0.93574 0.0
H1769 H 0.85803 0.16733 0.8944 0.0
S1770 S 0.92734 0.24604 0.83087 0.0
N1771 N 0.92073 0.25358 0.86851 0.0
N1772 N 0.91076 0.21655 0.82311 0.0
C1773 C 0.89897 0.21147 0.85184 0.0
C1774 C 0.90417 0.23173 0.8765 0.0
C1775 C 0.56748 0.12433 0.65413 0.0
C1776 C 0.54808 0.14607 0.65153 0.0
C1777 C 0.5877 0.11986 0.63082 0.0
C1778 C 0.58956 0.13677 0.60347 0.0
H1779 H 0.56727 0.11074 0.67471 0.0
H1780 H 0.60219 0.10285 0.63456 0.0
S1781 S 0.54262 0.19578 0.58422 0.0
N1782 N 0.53145 0.18463 0.61915 0.0
N1783 N 0.56912 0.17549 0.57444 0.0
C1784 C 0.57006 0.15847 0.60018 0.0
C1785 C 0.54949 0.16333 0.62443 0.0
C1786 C 0.63477 0.81658 0.34177 0.0
C1787 C 0.63421 0.84475 0.35131 0.0
C1788 C 0.63225 0.79487 0.36431 0.0
C1789 C 0.62924 0.80075 0.39704 0.0
H1790 H 0.63902 0.81129 0.31718 0.0
H1791 H 0.63422 0.77346 0.35632 0.0
S1792 S 0.62245 0.871 0.43323 0.0
N1793 N 0.62782 0.87714 0.3951 0.0
N1794 N 0.62223 0.83674 0.43693 0.0
C1795 C 0.62664 0.82881 0.40628 0.0
C1796 C 0.6294 0.8507 0.38356 0.0
C1797 C 0.92883 0.90987 0.13926 0.0
C1798 C 0.93167 0.8983 0.10857 0.0
C1799 C 0.94874 0.90552 0.16308 0.0
C1800 C 0.97273 0.88947 0.15754 0.0
H1801 H 0.91098 0.92271 0.14507 0.0
H1802 H 0.94548 0.91536 0.18601 0.0
S1803 S 0.99006 0.85361 0.08166 0.0
N1804 N 0.96023 0.86948 0.07404 0.0
N1805 N 0.99789 0.8611 0.11904 0.0
C1806 C 0.97586 0.87739 0.12705 0.0
C1807 C 0.95526 0.88173 0.10261 0.0
C1808 C 0.63029 0.71373 0.8432 0.0
C1809 C 0.64403 0.68891 0.85182 0.0
C1810 C 0.62636 0.73555 0.86557 0.0
C1811 C 0.63606 0.73323 0.89725 0.0
H1812 H 0.62361 0.71678 0.81883 0.0
H1813 H 0.61653 0.75469 0.85778 0.0
S1814 S 0.66884 0.67062 0.93297 0.0
N1815 N 0.66432 0.66226 0.89522 0.0
N1816 N 0.65666 0.70264 0.9367 0.0
C1817 C 0.64824 0.70785 0.90638 0.0
C1818 C 0.65228 0.6859 0.88384 0.0
C1819 C 0.59804 0.415 0.13105 0.0
C1820 C 0.59755 0.40105 0.10151 0.0
C1821 C 0.57774 0.41028 0.15424 0.0
C1822 C 0.55573 0.39148 0.14906 0.0
H1823 H 0.61436 0.42989 0.13651 0.0
H1824 H 0.57911 0.42185 0.17636 0.0
S1825 S 0.54481 0.34912 0.076 0.0
N1826 N 0.57323 0.36737 0.06834 0.0
N1827 N 0.53487 0.35826 0.1122 0.0
C1828 C 0.5549 0.37718 0.11968 0.0
C1829 C 0.57588 0.38192 0.09592 0.0
C1830 C 0.91103 0.34505 0.37365 0.0
C1831 C 0.89458 0.34065 0.34639 0.0
C1832 C 0.91326 0.32461 0.3975 0.0
C1833 C 0.89877 0.29907 0.39525 0.0
H1834 H 0.92075 0.3651 0.37771 0.0
H1835 H 0.92492 0.32968 0.41882 0.0
S1836 S 0.85544 0.27627 0.32669 0.0
N1837 N 0.8653 0.30824 0.3173 0.0
N1838 N 0.86986 0.26952 0.36154 0.0
C1839 C 0.88369 0.2938 0.36706 0.0
C1840 C 0.88145 0.31467 0.34285 0.0
C1841 C 0.93888 0.61602 0.63055 0.0
C1842 C 0.93747 0.63188 0.60234 0.0
C1843 C 0.96066 0.6191 0.65244 0.0
C1844 C 0.98225 0.63837 0.64753 0.0
H1845 H 0.92283 0.60091 0.63608 0.0
H1846 H 0.96032 0.60645 0.67377 0.0
S1847 S 0.98946 0.68459 0.57719 0.0
N1848 N 0.96041 0.66709 0.57019 0.0
N1849 N 1.00122 0.6735 0.61193 0.0
C1850 C 0.98128 0.65459 0.61952 0.0
C1851 C 0.95901 0.65117 0.5968 0.0
C1852 C 0.63207 0.32494 0.74832 0.0
C1853 C 0.65296 0.34536 0.74502 0.0
C1854 C 0.62772 0.30441 0.72457 0.0
C1855 C 0.64426 0.30345 0.69681 0.0
H1856 H 0.61926 0.32462 0.7695 0.0
H1857 H 0.6116 0.28893 0.72816 0.0
S1858 S 0.69965 0.35384 0.67506 0.0
N1859 N 0.68905 0.36418 0.71047 0.0
N1860 N 0.68069 0.32613 0.66645 0.0
C1861 C 0.66464 0.32417 0.69299 0.0
C1862 C 0.66905 0.34491 0.71691 0.0
C1863 C 0.9718 0.39321 0.99288 0.0
C1864 C 0.94357 0.3884 0.98549 0.0
C1865 C 0.99268 0.39076 0.96934 0.0
C1866 C 0.98583 0.38355 0.93777 0.0
H1867 H 0.97753 0.40083 1.01627 0.0
H1868 H 1.01395 0.39613 0.97539 0.0
S1869 S 0.91566 0.36631 0.90694 0.0
N1870 N 0.91059 0.37435 0.94468 0.0
N1871 N 0.9495 0.36932 0.90114 0.0
C1872 C 0.95806 0.37705 0.93073 0.0
C1873 C 0.93701 0.37963 0.95442 0.0
C1874 C 0.90351 0.70781 0.17942 0.0
C1875 C 0.90257 0.73631 0.18756 0.0
C1876 C 0.89948 0.68695 0.20231 0.0
C1877 C 0.89497 0.69358 0.23451 0.0
H1878 H 0.90577 0.70151 0.15479 0.0
H1879 H 0.89857 0.66543 0.19443 0.0
S1880 S 0.89312 0.76468 0.2691 0.0
N1881 N 0.89858 0.76994 0.23076 0.0
N1882 N 0.89133 0.73049 0.27383 0.0
C1883 C 0.89554 0.72181 0.24344 0.0
C1884 C 0.89921 0.74322 0.21997 0.0
C1885 C 0.57398 0.64681 0.49037 0.0
C1886 C 0.59769 0.62986 0.48631 0.0
C1887 C 0.5549 0.65113 0.4651 0.0
C1888 C 0.55887 0.63856 0.43502 0.0
H1889 H 0.56972 0.65606 0.51338 0.0
H1890 H 0.53654 0.66369 0.46939 0.0
S1891 S 0.6198 0.59612 0.41068 0.0
N1892 N 0.62537 0.60304 0.44862 0.0
N1893 N 0.58991 0.61123 0.40186 0.0
C1894 C 0.58318 0.62282 0.43039 0.0
C1895 C 0.60244 0.61844 0.45582 0.0
C1896 C 0.40095 0.30406 0.21216 0.0
C1897 C 0.39523 0.3105 0.18004 0.0
C1898 C 0.39773 0.32423 0.23652 0.0
C1899 C 0.38803 0.35125 0.22957 0.0
H1900 H 0.40749 0.28317 0.21853 0.0
H1901 H 0.40148 0.31823 0.26098 0.0
S1902 S 0.37056 0.37867 0.1494 0.0
N1903 N 0.3802 0.34612 0.14285 0.0
N1904 N 0.37359 0.38348 0.18814 0.0
C1905 C 0.38292 0.35799 0.19749 0.0
C1906 C 0.38664 0.33778 0.17287 0.0
C1907 C 0.45878 0.66425 0.93648 0.0
C1908 C 0.4863 0.65494 0.94123 0.0
C1909 C 0.4383 0.66087 0.95998 0.0
C1910 C 0.44454 0.64864 0.98951 0.0
H1911 H 0.4525 0.67264 0.91366 0.0
H1912 H 0.41709 0.66638 0.95414 0.0
S1913 S 0.51378 0.62332 1.01548 0.0
N1914 N 0.5191 0.63496 0.97902 0.0
N1915 N 0.48042 0.62858 1.023 0.0
C1916 C 0.4722 0.64066 0.99533 0.0
C1917 C 0.49311 0.64386 0.9713 0.0
C1918 C 0.15935 0.71441 0.68683 0.0
C1919 C 0.13899 0.73492 0.69197 0.0
C1920 C 0.1637 0.69281 0.70858 0.0
C1921 C 0.14803 0.69052 0.73682 0.0
H1922 H 0.17199 0.71484 0.6655 0.0
H1923 H 0.1797 0.67766 0.70298 0.0
S1924 S 0.09237 0.73922 0.76225 0.0
N1925 N 0.10278 0.75174 0.72762 0.0
N1926 N 0.1115 0.71117 0.76906 0.0
C1927 C 0.12745 0.71079 0.74244 0.0
C1928 C 0.12279 0.73291 0.71991 0.0
C1929 C 0.07688 0.37465 0.43936 0.0
C1930 C 0.05121 0.38876 0.44184 0.0
C1931 C 0.09752 0.37723 0.46296 0.0
C1932 C 0.0932 0.39351 0.49038 0.0
H1933 H 0.08176 0.36277 0.41813 0.0
H1934 H 0.11753 0.36767 0.45868 0.0
S1935 S 0.02907 0.4328 0.51006 0.0
N1936 N 0.02206 0.41809 0.47537 0.0
N1937 N 0.06106 0.42306 0.51936 0.0
C1938 C 0.06732 0.40675 0.49387 0.0
C1939 C 0.04627 0.40428 0.46981 0.0
C1940 C 0.38782 0.74307 0.36787 0.0
C1941 C 0.40347 0.73927 0.39592 0.0
C1942 C 0.3864 0.72204 0.34434 0.0
C1943 C 0.40099 0.69671 0.34766 0.0
H1944 H 0.37515 0.7616 0.36503 0.0
H1945 H 0.37237 0.7249 0.3244 0.0
S1946 S 0.44709 0.6777 0.4152 0.0
N1947 N 0.43588 0.7093 0.42416 0.0
N1948 N 0.43254 0.66986 0.38074 0.0
C1949 C 0.41789 0.69346 0.37475 0.0
C1950 C 0.41938 0.71475 0.39859 0.0
C1951 C 0.09616 0.61722 0.13131 0.0
C1952 C 0.09669 0.63269 0.10281 0.0
C1953 C 0.07533 0.62099 0.15419 0.0
C1954 C 0.05387 0.64055 0.14997 0.0
H1955 H 0.11212 0.60184 0.1362 0.0
H1956 H 0.07623 0.60853 0.17565 0.0
S1957 S 0.04482 0.68616 0.07936 0.0
N1958 N 0.07324 0.66804 0.07129 0.0
N1959 N 0.03421 0.67566 0.11477 0.0
C1960 C 0.0541 0.65649 0.12174 0.0
C1961 C 0.07539 0.65242 0.09807 0.0
C1962 C 0.12105 0.33955 0.86872 0.0
C1963 C 0.14103 0.33577 0.8447 0.0
C1964 C 0.11784 0.31998 0.89338 0.0
C1965 C 0.13474 0.29595 0.89528 0.0
H1966 H 0.10918 0.35867 0.86986 0.0
H1967 H 0.1028 0.32435 0.91191 0.0
S1968 S 0.19008 0.27638 0.83787 0.0
N1969 N 0.1776 0.30606 0.82393 0.0
N1970 N 0.17178 0.26936 0.87011 0.0
C1971 C 0.15404 0.29142 0.87061 0.0
C1972 C 0.15725 0.31138 0.84553 0.0
C1973 C 0.48624 0.37793 0.61695 0.0
C1974 C 0.48066 0.3853 0.64889 0.0
C1975 C 0.46605 0.38163 0.59273 0.0
C1976 C 0.43966 0.39285 0.59971 0.0
H1977 H 0.5067 0.37035 0.61043 0.0
H1978 H 0.47161 0.37706 0.56831 0.0
S1979 S 0.41299 0.41059 0.68015 0.0
N1980 N 0.44541 0.40056 0.68643 0.0
N1981 N 0.40811 0.40813 0.64138 0.0
C1982 C 0.4334 0.39859 0.63179 0.0
C1983 C 0.4537 0.39466 0.65624 0.0
C1984 C 0.08538 0.03165 0.30057 0.0
C1985 C 0.10948 0.04684 0.29246 0.0
C1986 C 0.08623 1.00251 0.30537 0.0
C1987 C 0.11111 0.9872 0.30159 0.0
H1988 H 0.06577 0.04241 0.3039 0.0
H1989 H 0.06708 0.99187 0.31147 0.0
S1990 S 0.17985 1.01704 0.27997 0.0
N1991 N 0.15892 0.04436 0.28132 0.0
N1992 N 0.16028 0.98975 0.2886 0.0
C1993 C 0.13521 1.00218 0.29313 0.0
C1994 C 0.13447 0.03189 0.28905 0.0
C1995 C 0.25216 0.84168 0.54628 0.0
C1996 C 0.23618 0.86635 0.54599 0.0
C1997 C 0.28137 0.8424 0.55011 0.0
C1998 C 0.29592 0.86785 0.55312 0.0
H1999 H 0.24202 0.82158 0.54404 0.0
H2000 H 0.29266 0.82284 0.54995 0.0
S2001 S 0.26409 0.93832 0.55371 0.0
N2002 N 0.23734 0.91691 0.54973 0.0
N2003 N 0.29201 0.91826 0.5553 0.0
C2004 C 0.28023 0.89259 0.5526 0.0
C2005 C 0.25049 0.89185 0.54949 0.0
C2006 C 0.40517 1.01013 0.76678 0.0
C2007 C 0.41623 0.99313 0.79087 0.0
C2008 C 0.40421 0.0394 0.77028 0.0
C2009 C 0.41454 0.05278 0.79789 0.0
H2010 H 0.39716 1.00076 0.74515 0.0
H2011 H 0.39585 0.05164 0.75086 0.0
S2012 S 0.44431 1.0173 0.86848 0.0
N2013 N 0.43667 0.99158 0.84373 0.0
N2014 N 0.43525 0.04636 0.85008 0.0
C2015 C 0.42531 0.03586 0.82224 0.0
C2016 C 0.42604 1.00612 0.8188 0.0
C2017 C 0.25055 0.15337 0.07386 0.0
C2018 C 0.23323 0.16616 0.05127 0.0
C2019 C 0.27963 0.15219 0.06945 0.0
C2020 C 0.2925 0.16384 1.0423 0.0
H2021 H 0.24159 0.14417 0.09501 0.0
H2022 H 0.29212 0.14251 0.08783 0.0
S2023 S 0.25583 0.19824 0.9753 0.0
N2024 N 0.23069 0.18964 1.00021 0.0
N2025 N 0.28511 0.18759 0.99201 0.0
C2026 C 0.2752 0.17624 1.01933 0.0
C2027 C 0.24565 0.17734 1.02378 0.0
C2028 C 0.89742 0.03303 0.77827 0.0
C2029 C 0.91927 0.04983 0.78976 0.0
C2030 C 0.89736 1.00386 0.78295 0.0
C2031 C 0.9188 0.99037 0.80006 0.0
H2032 H 0.88024 0.0425 0.76552 0.0
H2033 H 0.88036 0.99179 0.77302 0.0
S2034 S 0.97913 0.0257 0.83829 0.0
N2035 N 0.96189 0.05123 0.82079 0.0
N2036 N 0.96159 0.99687 0.83028 0.0
C2037 C 0.94031 1.00722 0.81253 0.0
C2038 C 0.94058 0.03678 0.80724 0.0
C2039 C 0.7495 0.15274 0.53021 0.0
C2040 C 0.73325 0.17222 0.54693 0.0
C2041 C 0.77874 0.15218 0.53352 0.0
C2042 C 0.79286 0.17087 0.55401 0.0
H2043 H 0.73958 0.13803 0.5142 0.0
H2044 H 0.79037 0.13724 0.51949 0.0
S2045 S 0.75913 0.22361 0.60608 0.0
N2046 N 0.73296 0.2091 0.58657 0.0
N2047 N 0.7876 0.20796 0.59313 0.0
C2048 C 0.77655 0.18969 0.5718 0.0
C2049 C 0.74687 0.19039 0.56818 0.0
C2050 C 0.63385 0.0346 0.27889 0.0
C2051 C 0.61739 0.04692 0.30299 0.0
C2052 C 0.63207 1.00584 0.27173 0.0
C2053 C 0.61347 0.98835 0.28806 0.0
H2054 H 0.64801 0.04731 0.26509 0.0
H2055 H 0.64535 0.99725 0.25336 0.0
S2056 S 0.5679 1.0091 0.35522 0.0
N2057 N 0.58338 0.03842 0.34463 0.0
N2058 N 0.57982 0.98483 0.33085 0.0
C2059 C 0.5974 1.00017 0.31258 0.0
C2060 C 0.5994 0.02928 0.32011 0.0
C2061 C 0.74995 0.84153 1.03875 0.0
C2062 C 0.73447 0.86654 1.03938 0.0
C2063 C 0.77905 0.84163 1.03397 0.0
C2064 C 0.79393 0.86675 1.03005 0.0
H2065 H 0.73951 0.82168 1.04175 0.0
H2066 H 0.79007 0.82191 1.03439 0.0
S2067 S 0.76349 0.93786 1.03013 0.0
N2068 N 0.73649 0.91705 1.03537 0.0
N2069 N 0.79087 0.91718 1.02734 0.0
C2070 C 0.77869 0.89178 1.03056 0.0
C2071 C 0.74911 0.89169 1.03495 0.0
C2072 C 0.63481 0.53084 0.78364 0.0
C2073 C 0.61071 0.54706 0.78811 0.0
C2074 C 0.63436 0.5016 0.78757 0.0
C2075 C 0.60996 0.48738 0.79694 0.0
H2076 H 0.65413 0.54082 0.77677 0.0
H2077 H 0.65334 0.49003 0.78314 0.0
S2078 S 0.54201 0.5207 0.8151 0.0
N2079 N 0.56221 0.54695 0.80441 0.0
N2080 N 0.56148 0.4924 0.81248 0.0
C2081 C 0.58599 0.50356 0.8026 0.0
C2082 C 0.58633 0.53324 0.79801 0.0
C2083 C 0.78485 0.34328 0.04465 0.0
C2084 C 0.79931 0.36841 0.05044 0.0
C2085 C 0.75579 0.34289 1.03983 0.0
C2086 C 0.73989 0.36757 1.04118 0.0
H2087 H 0.79614 0.32375 1.04329 0.0
H2088 H 0.74566 0.323 1.03575 0.0
S2089 S 0.76773 0.43879 0.0556 0.0
N2090 N 0.79555 0.41855 0.05653 0.0
N2091 N 0.74105 0.41782 0.04887 0.0
C2092 C 0.75415 0.39278 0.04701 0.0
C2093 C 0.78378 0.3932 0.05123 0.0
C2094 C 0.90372 0.53271 0.3199 0.0
C2095 C 0.9157 0.54924 0.29601 0.0
C2096 C 0.90357 0.50334 0.31752 0.0
C2097 C 0.91572 0.48943 0.29132 0.0
H2098 H 0.89448 0.54252 0.34059 0.0
H2099 H 0.89447 0.49148 0.33679 0.0
S2100 S 0.94868 0.52351 0.22181 0.0
N2101 N 0.93903 0.54977 0.24483 0.0
N2102 N 0.93917 0.49481 0.24058 0.0
C2103 C 0.92738 0.50588 0.26712 0.0
C2104 C 0.92726 0.5357 0.2694 0.0
C2105 C 0.7505 0.64647 0.53566 0.0
C2106 C 0.73599 0.67104 0.54392 0.0
C2107 C 0.77967 0.6463 0.53184 0.0
C2108 C 0.79552 0.67084 0.53521 0.0
H2109 H 0.73925 0.62708 0.53241 0.0
H2110 H 0.78993 0.62676 0.52632 0.0
S2111 S 0.76813 0.74052 0.55779 0.0
N2112 N 0.7402 0.72044 0.55637 0.0
N2113 N 0.79465 0.72021 0.54837 0.0
C2114 C 0.78135 0.69555 0.5434 0.0
C2115 C 0.75174 0.69562 0.54795 0.0
C2116 C 0.44548 0.53164 0.28285 0.0
C2117 C 0.42179 0.54786 0.29 0.0
C2118 C 0.44595 0.50261 0.28824 0.0
C2119 C 0.42263 0.48845 0.30056 0.0
H2120 H 0.46401 0.54147 0.2734 0.0
H2121 H 0.46452 0.49106 0.28189 0.0
S2122 S 0.35526 0.52078 0.32256 0.0
N2123 N 0.37443 0.54724 0.31024 0.0
N2124 N 0.37508 0.49279 0.31911 0.0
C2125 C 0.39879 0.5043 0.30748 0.0
C2126 C 0.39845 0.53391 0.30258 0.0
C2127 C 0.28406 0.65193 1.01932 0.0
C2128 C 0.29673 0.66883 1.04288 0.0
C2129 C 0.25494 0.65161 1.0148 0.0
C2130 C 0.23735 0.66835 1.03344 0.0
H2131 H 0.29673 0.63897 1.00398 0.0
H2132 H 0.24615 0.63812 0.99666 0.0
S2133 S 0.2592 0.71407 0.10029 0.0
N2134 N 0.28873 0.70128 0.0864 0.0
N2135 N 0.23429 0.70069 0.07781 0.0
C2136 C 0.24956 0.68482 0.05747 0.0
C2137 C 0.27913 0.68507 0.0622 0.0
C2138 C 0.13358 0.5016 0.76713 0.0
C2139 C 0.11958 0.48443 0.7889 0.0
C2140 C 0.13367 0.53088 0.7707 0.0
C2141 C 0.11949 0.54419 0.79601 0.0
H2142 H 0.14448 0.49236 0.74717 0.0
H2143 H 0.14449 0.54314 0.75302 0.0
S2144 S 0.08045 0.50824 0.85994 0.0
N2145 N 0.09193 0.4826 0.83714 0.0
N2146 N 0.09165 0.53744 0.84351 0.0
C2147 C 0.10563 0.52709 0.81802 0.0
C2148 C 0.1058 0.4973 0.81456 0.0
C2149 C 0.25614 0.33895 0.54182 0.0
C2150 C 0.24061 0.36391 0.54111 0.0
C2151 C 0.2851 0.33882 0.53632 0.0
C2152 C 0.29988 0.36371 0.53049 0.0
H2153 H 0.2458 0.31924 0.54621 0.0
H2154 H 0.29609 0.31911 0.53754 0.0
S2155 S 0.26928 0.4346 0.52619 0.0
N2156 N 0.24238 0.41406 0.53329 0.0
N2157 N 0.29676 0.41393 0.5246 0.0
C2158 C 0.28467 0.38875 0.52991 0.0
C2159 C 0.25511 0.38881 0.53474 0.0
C2160 C 0.11718 0.1286 0.14924 0.0
C2161 C 0.12647 0.15379 0.13538 0.0
C2162 C 0.11342 0.12578 0.18233 0.0
C2163 C 0.11843 0.14805 0.20342 0.0
H2164 H 0.11376 0.11038 0.13447 0.0
H2165 H 0.10785 0.10547 0.19166 0.0
S2166 S 0.14214 0.2188 0.18015 0.0
N2167 N 0.13963 0.20189 0.14594 0.0
N2168 N 0.13261 0.19648 0.20803 0.0
C2169 C 0.12655 0.17373 0.19 0.0
C2170 C 0.1304 0.17667 0.1561 0.0
C2171 C 0.15974 0.88587 0.43481 0.0
C2172 C 0.13776 0.87815 0.45503 0.0
C2173 C 0.15608 0.88884 0.40185 0.0
C2174 C 0.13001 0.88475 0.38683 0.0
H2175 H 0.18012 0.89035 0.4447 0.0
H2176 H 0.1741 0.89521 0.38823 0.0
S2177 S 0.06546 0.86306 0.42878 0.0
N2178 N 0.08892 0.86523 0.45753 0.0
N2179 N 0.08176 0.8712 0.39543 0.0
C2180 C 0.10784 0.87606 0.40662 0.0
C2181 C 0.11176 0.87268 0.44059 0.0
C2182 C 0.42442 0.89657 0.68406 0.0
C2183 C 0.40351 0.88703 0.70496 0.0
C2184 C 0.42189 0.89341 0.65055 0.0
C2185 C 0.39881 0.87978 0.63654 0.0
H2186 H 0.44198 0.90815 0.69346 0.0
H2187 H 0.43754 0.90278 0.63543 0.0
S2188 S 0.33917 0.8495 0.68048 0.0
N2189 N 0.35944 0.86235 0.70873 0.0
N2190 N 0.35521 0.85597 0.64655 0.0
C2191 C 0.37853 0.86905 0.65726 0.0
C2192 C 0.38077 0.87271 0.69115 0.0
C2193 C 0.40904 0.1711 0.90452 0.0
C2194 C 0.40209 0.14659 0.88756 0.0
C2195 C 0.40488 0.17316 0.93796 0.0
C2196 C 0.39391 0.1507 0.95586 0.0
H2197 H 0.41675 0.1891 0.89175 0.0
H2198 H 0.40996 0.19261 0.94976 0.0
S2199 S 0.37394 0.08132 0.92226 0.0
N2200 N 0.38492 0.0992 0.89128 0.0
N2201 N 0.37715 0.10262 0.9529 0.0
C2202 C 0.38773 0.12586 0.93886 0.0
C2203 C 0.39179 0.12395 0.90516 0.0
C2204 C 0.89729 0.86531 0.89958 0.0
C2205 C 0.90948 0.88931 0.886 0.0
C2206 C 0.89348 0.86275 0.93294 0.0
C2207 C 0.90086 0.88448 0.95408 0.0
H2208 H 0.88982 0.84875 0.88422 0.0
H2209 H 0.88321 0.84428 0.942 0.0
S2210 S 0.93392 0.9515 0.93057 0.0
N2211 N 0.9296 0.93475 0.89653 0.0
N2212 N 0.92185 0.93052 0.95847 0.0
C2213 C 0.9136 0.9083 0.94067 0.0
C2214 C 0.91799 0.91058 0.90693 0.0
C2215 C 0.91975 0.14742 0.68629 0.0
C2216 C 0.89846 0.15611 0.70717 0.0
C2217 C 0.91715 0.15053 0.65288 0.0
C2218 C 0.89356 0.16325 0.63903 0.0
H2219 H 0.93776 0.13657 0.69565 0.0
H2220 H 0.93325 0.14199 0.6377 0.0
S2221 S 0.83274 0.19109 0.683 0.0
N2222 N 0.85343 0.17892 0.71119 0.0
N2223 N 0.84906 0.18536 0.64903 0.0
C2224 C 0.87282 0.17314 0.65971 0.0
C2225 C 0.87515 0.16946 0.69354 0.0
C2226 C 0.60794 0.14809 0.44464 0.0
C2227 C 0.63127 0.1614 0.45847 0.0
C2228 C 0.60542 0.14462 0.4112 0.0
C2229 C 0.62655 0.15359 0.39027 0.0
H2230 H 0.59212 0.13916 0.45987 0.0
H2231 H 0.58767 0.13327 0.4019 0.0
S2232 S 0.69144 0.19036 0.41437 0.0
N2233 N 0.67528 0.18438 0.44834 0.0
N2234 N 0.67098 0.17762 0.38623 0.0
C2235 C 0.64949 0.16769 0.4039 0.0
C2236 C 0.65178 0.17158 0.43771 0.0
C2237 C 0.65891 0.88039 0.15378 0.0
C2238 C 0.63601 0.87728 0.13312 0.0
C2239 C 0.65563 0.88339 0.18688 0.0
C2240 C 0.62914 0.88401 0.20161 0.0
H2241 H 0.67978 0.88148 0.14408 0.0
H2242 H 0.67437 0.88624 0.20089 0.0
S2243 S 0.56201 0.87575 0.1584 0.0
N2244 N 0.58566 0.87394 0.12991 0.0
N2245 N 0.57931 0.87991 0.19213 0.0
C2246 C 0.60593 0.87983 0.18134 0.0
C2247 C 0.60939 0.87647 0.14727 0.0
C2248 C 0.60747 0.64443 0.68102 0.0
C2249 C 0.62922 0.65187 0.70208 0.0
C2250 C 0.61037 0.64723 0.64752 0.0
C2251 C 0.63484 0.65821 0.63374 0.0
H2252 H 0.5888 0.63476 0.6903 0.0
H2253 H 0.59388 0.6395 0.63226 0.0
S2254 S 0.69667 0.68347 0.67816 0.0
N2255 N 0.67529 0.67257 0.70624 0.0
N2256 N 0.68037 0.67802 0.64409 0.0
C2257 C 0.65599 0.66702 0.65461 0.0
C2258 C 0.65325 0.66389 0.68847 0.0
C2259 C 0.62263 0.41117 0.90853 0.0
C2260 C 0.62225 0.38805 0.88788 0.0
C2261 C 0.62707 0.40826 0.94144 0.0
C2262 C 0.63182 0.38202 0.9558 0.0
H2263 H 0.62072 0.43205 0.8989 0.0
H2264 H 0.62788 0.42716 0.9556 0.0
S2265 S 0.63174 0.31435 0.91257 0.0
N2266 N 0.62584 0.33761 0.88435 0.0
N2267 N 0.63432 0.33204 0.94628 0.0
C2268 C 0.63012 0.35842 0.93568 0.0
C2269 C 0.62542 0.36146 0.90181 0.0
C2270 C 0.91218 0.36739 0.15377 0.0
C2271 C 0.89841 0.38795 0.1354 0.0
C2272 C 0.91569 0.37031 0.18731 0.0
C2273 C 0.90523 0.39375 0.2039 0.0
H2274 H 0.92014 0.34881 0.14225 0.0
H2275 H 0.92582 0.35373 0.2004 0.0
S2276 S 0.86854 0.45412 0.16782 0.0
N2277 N 0.87486 0.43311 0.13761 0.0
N2278 N 0.88173 0.43829 0.19915 0.0
C2279 C 0.89203 0.41455 0.18578 0.0
C2280 C 0.88854 0.41174 0.15208 0.0
C2281 C 0.88329 0.6287 0.40069 0.0
C2282 C 0.90175 0.64576 0.38337 0.0
C2283 C 0.88018 0.63104 0.43376 0.0
C2284 C 0.89516 0.65069 0.45212 0.0
H2285 H 0.87095 0.61305 0.38862 0.0
H2286 H 0.86529 0.61713 0.44493 0.0
S2287 S 0.94662 0.70076 0.41908 0.0
N2288 N 0.93574 0.68322 0.38748 0.0
N2289 N 0.92964 0.68781 0.44992 0.0
C2290 C 0.91387 0.66807 0.43534 0.0
C2291 C 0.9173 0.66546 0.40113 0.0
C2292 C 0.42752 0.39003 0.40085 0.0
C2293 C 0.40656 0.38028 0.38007 0.0
C2294 C 0.42526 0.38678 0.43425 0.0
C2295 C 0.40242 0.37285 0.44816 0.0
H2296 H 0.4448 0.40196 0.39145 0.0
H2297 H 0.44086 0.39634 0.4494 0.0
S2298 S 0.34274 0.34213 0.40437 0.0
N2299 N 0.36268 0.35528 0.37613 0.0
N2300 N 0.35901 0.34852 0.43827 0.0
C2301 C 0.38215 0.36181 0.42754 0.0
C2302 C 0.38409 0.36564 0.39373 0.0
C2303 C 0.387 0.63007 0.18365 0.0
C2304 C 0.40595 0.64673 0.20099 0.0
C2305 C 0.38272 0.63346 0.15081 0.0
C2306 C 0.39682 0.654 0.13298 0.0
H2307 H 0.37519 0.61391 0.19557 0.0
H2308 H 0.36779 0.61975 0.13937 0.0
S2309 S 0.44893 0.70346 0.16635 0.0
N2310 N 0.43935 0.68469 0.19743 0.0
N2311 N 0.43098 0.69141 0.13564 0.0
C2312 C 0.41591 0.67099 0.14985 0.0
C2313 C 0.42062 0.66721 0.18365 0.0
C2314 C 0.10918 0.63943 0.90375 0.0
C2315 C 0.12997 0.6497 0.88315 0.0
C2316 C 0.11163 0.64198 0.93732 0.0
C2317 C 0.13448 0.65572 0.95168 0.0
H2318 H 0.09179 0.6278 0.89402 0.0
H2319 H 0.09606 0.63218 0.95219 0.0
S2320 S 0.19391 0.68738 0.90864 0.0
N2321 N 0.17385 0.67479 0.88004 0.0
N2322 N 0.17782 0.68023 0.94236 0.0
C2323 C 0.15466 0.6671 0.93128 0.0
C2324 C 0.15254 0.66398 0.89732 0.0
C2325 C 0.13257 0.35993 0.68493 0.0
C2326 C 0.12907 0.3861 0.69992 0.0
C2327 C 0.1363 0.35763 0.65147 0.0
C2328 C 0.13703 0.38146 0.63172 0.0
H2329 H 0.13352 0.34121 0.69928 0.0
H2330 H 0.13989 0.33718 0.64126 0.0
S2331 S 0.12683 0.45471 0.65948 0.0
N2332 N 0.12524 0.43598 0.69234 0.0
N2333 N 0.13177 0.43209 0.63036 0.0
C2334 C 0.13241 0.4076 0.64665 0.0
C2335 C 0.12865 0.40981 0.68041 0.0
loop_
_geom_bond_atom_site_label_1
_geom_bond_atom_site_label_2
_geom_bond_distance
_geom_bond_site_symmetry_2
_ccdc_geom_bond_type
Ho0 C3 2.811 . S
Ho0 O20 2.322 . S
Ho0 O22 2.378 . S
Ho0 O23 2.524 . S
Ho0 O24 2.381 . S
Ho0 O25 2.669 . S
Ho0 O27 2.346 . S
Ho0 O31 2.305 . S
Ho1 C12 2.811 . S
Ho1 O21 2.346 . S
Ho1 O25 2.305 . S
Ho1 O26 2.322 . S
Ho1 O28 2.378 . S
Ho1 O29 2.524 . S
Ho1 O30 2.381 . S
Ho1 O31 2.669 . S
C2 O20 1.259 . S
C2 O21 1.268 . S
C3 Ho0 2.811 . S
C3 C4 1.488 . S
C3 O22 1.215 . S
C3 O23 1.289 . S
C4 C3 1.488 . S
C4 C5 1.348 . S
C4 C9 1.413 . S
C5 C4 1.348 . S
C5 C6 1.442 . S
C5 H32 0.930 . S
C6 C5 1.442 . S
C6 C7 1.381 . S
C6 H33 0.931 . S
C7 C6 1.381 . S
C7 C8 1.321 . S
C8 C7 1.321 . S
C8 C9 1.403 . S
C8 H34 0.934 . S
C9 C4 1.413 . S
C9 C8 1.403 . S
C9 H35 0.930 . S
C10 O24 1.275 . S
C10 O25 1.256 . S
C11 O26 1.259 . S
C11 O27 1.268 . S
C12 Ho1 2.811 . S
C12 C13 1.488 . S
C12 O28 1.215 . S
C12 O29 1.289 . S
C13 C12 1.488 . S
C13 C14 1.348 . S
C13 C18 1.413 . S
C14 C13 1.348 . S
C14 C15 1.442 . S
C14 H36 0.930 . S
C15 C14 1.442 . S
C15 C16 1.381 1_455 S
C15 H37 0.931 . S
C16 C15 1.381 1_655 S
C16 C17 1.321 . S
C17 C16 1.321 . S
C17 C18 1.403 1_655 S
C17 H38 0.934 . S
C18 C13 1.413 . S
C18 C17 1.403 1_455 S
C18 H39 0.930 . S
C19 O30 1.275 . S
C19 O31 1.256 . S
O20 Ho0 2.322 . S
O20 C2 1.259 . S
O21 Ho1 2.346 . S
O21 C2 1.268 . S
O22 Ho0 2.378 . S
O22 C3 1.215 . S
O23 Ho0 2.524 . S
O23 C3 1.289 . S
O24 Ho0 2.381 . S
O24 C10 1.275 . S
O25 Ho0 2.669 . S
O25 Ho1 2.305 . S
O25 C10 1.256 . S
O26 Ho1 2.322 . S
O26 C11 1.259 . S
O27 Ho0 2.346 . S
O27 C11 1.268 . S
O28 Ho1 2.378 . S
O28 C12 1.215 . S
O29 Ho1 2.524 . S
O29 C12 1.289 . S
O30 Ho1 2.381 . S
O30 C19 1.275 . S
O31 Ho0 2.305 . S
O31 Ho1 2.669 . S
O31 C19 1.256 . S
H32 C5 0.930 . S
H33 C6 0.931 . S
H34 C8 0.934 . S
H35 C9 0.930 . S
H36 C14 0.930 . S
H37 C15 0.931 . S
H38 C17 0.934 . S
H39 C18 0.930 . S
Ho40 C43 2.811 . S
Ho40 O60 2.322 . S
Ho40 O62 2.378 . S
Ho40 O63 2.524 . S
Ho40 O64 2.381 . S
Ho40 O65 2.669 . S
Ho40 O67 2.346 . S
Ho40 O71 2.305 . S
Ho41 C52 2.811 . S
Ho41 O61 2.346 . S
Ho41 O65 2.305 . S
Ho41 O66 2.322 . S
Ho41 O68 2.378 . S
Ho41 O69 2.524 . S
Ho41 O70 2.381 . S
Ho41 O71 2.669 . S
C42 O60 1.259 . S
C42 O61 1.268 . S
C43 Ho40 2.811 . S
C43 C44 1.488 . S
C43 O62 1.215 . S
C43 O63 1.289 . S
C44 C43 1.488 . S
C44 C45 1.348 . S
C44 C49 1.413 . S
C45 C44 1.348 . S
C45 C46 1.442 . S
C45 H72 0.930 . S
C46 C45 1.442 . S
C46 C47 1.381 1_565 S
C46 H73 0.931 . S
C47 C46 1.381 1_545 S
C47 C48 1.321 . S
C48 C47 1.321 . S
C48 C49 1.403 1_545 S
C48 H74 0.934 . S
C49 C44 1.413 . S
C49 C48 1.403 1_565 S
C49 H75 0.930 . S
C50 O64 1.275 . S
C50 O65 1.256 . S
C51 O66 1.259 . S
C51 O67 1.268 . S
C52 Ho41 2.811 . S
C52 C53 1.488 . S
C52 O68 1.215 . S
C52 O69 1.289 . S
C53 C52 1.488 . S
C53 C54 1.348 . S
C53 C58 1.413 . S
C54 C53 1.348 . S
C54 C55 1.442 . S
C54 H76 0.930 . S
C55 C54 1.442 . S
C55 C56 1.381 . S
C55 H77 0.931 . S
C56 C55 1.381 . S
C56 C57 1.321 . S
C57 C56 1.321 . S
C57 C58 1.403 . S
C57 H78 0.934 . S
C58 C53 1.413 . S
C58 C57 1.403 . S
C58 H79 0.930 . S
C59 O70 1.275 . S
C59 O71 1.256 . S
O60 Ho40 2.322 . S
O60 C42 1.259 . S
O61 Ho41 2.346 . S
O61 C42 1.268 . S
O62 Ho40 2.378 . S
O62 C43 1.215 . S
O63 Ho40 2.524 . S
O63 C43 1.289 . S
O64 Ho40 2.381 . S
O64 C50 1.275 . S
O65 Ho40 2.669 . S
O65 Ho41 2.305 . S
O65 C50 1.256 . S
O66 Ho41 2.322 . S
O66 C51 1.259 . S
O67 Ho40 2.346 . S
O67 C51 1.268 . S
O68 Ho41 2.378 . S
O68 C52 1.215 . S
O69 Ho41 2.524 . S
O69 C52 1.289 . S
O70 Ho41 2.381 . S
O70 C59 1.275 . S
O71 Ho40 2.305 . S
O71 Ho41 2.669 . S
O71 C59 1.256 . S
H72 C45 0.930 . S
H73 C46 0.931 . S
H74 C48 0.934 . S
H75 C49 0.930 . S
H76 C54 0.930 . S
H77 C55 0.931 . S
H78 C57 0.934 . S
H79 C58 0.930 . S
Ho80 C83 2.811 . S
Ho80 O100 2.322 . S
Ho80 O102 2.378 . S
Ho80 O103 2.524 . S
Ho80 O104 2.381 . S
Ho80 O105 2.669 . S
Ho80 O107 2.346 . S
Ho80 O111 2.305 . S
Ho81 C92 2.811 . S
Ho81 O101 2.346 . S
Ho81 O105 2.305 . S
Ho81 O106 2.322 . S
Ho81 O108 2.378 . S
Ho81 O109 2.524 . S
Ho81 O110 2.381 . S
Ho81 O111 2.669 . S
C82 O100 1.259 . S
C82 O101 1.268 . S
C83 Ho80 2.811 . S
C83 C84 1.488 . S
C83 O102 1.215 . S
C83 O103 1.289 . S
C84 C83 1.488 . S
C84 C85 1.348 . S
C84 C89 1.413 . S
C85 C84 1.348 . S
C85 C86 1.442 . S
C85 H112 0.930 . S
C86 C85 1.442 . S
C86 C87 1.381 . S
C86 H113 0.931 . S
C87 C86 1.381 . S
C87 C88 1.321 . S
C88 C87 1.321 . S
C88 C89 1.403 . S
C88 H114 0.934 . S
C89 C84 1.413 . S
C89 C88 1.403 . S
C89 H115 0.930 . S
C90 O104 1.275 . S
C90 O105 1.256 . S
C91 O106 1.259 . S
C91 O107 1.268 . S
C92 Ho81 2.811 . S
C92 C93 1.488 . S
C92 O108 1.215 . S
C92 O109 1.289 . S
C93 C92 1.488 . S
C93 C94 1.348 . S
C93 C98 1.413 . S
C94 C93 1.348 . S
C94 C95 1.442 . S
C94 H116 0.930 . S
C95 C94 1.442 . S
C95 C96 1.381 . S
C95 H117 0.931 . S
C96 C95 1.381 . S
C96 C97 1.321 . S
C97 C96 1.321 . S
C97 C98 1.403 . S
C97 H118 0.934 . S
C98 C93 1.413 . S
C98 C97 1.403 . S
C98 H119 0.930 . S
C99 O110 1.275 . S
C99 O111 1.256 . S
O100 Ho80 2.322 . S
O100 C82 1.259 . S
O101 Ho81 2.346 . S
O101 C82 1.268 . S
O102 Ho80 2.378 . S
O102 C83 1.215 . S
O103 Ho80 2.524 . S
O103 C83 1.289 . S
O104 Ho80 2.381 . S
O104 C90 1.275 . S
O105 Ho80 2.669 . S
O105 Ho81 2.305 . S
O105 C90 1.256 . S
O106 Ho81 2.322 . S
O106 C91 1.259 . S
O107 Ho80 2.346 . S
O107 C91 1.268 . S
O108 Ho81 2.378 . S
O108 C92 1.215 . S
O109 Ho81 2.524 . S
O109 C92 1.289 . S
O110 Ho81 2.381 . S
O110 C99 1.275 . S
O111 Ho80 2.305 . S
O111 Ho81 2.669 . S
O111 C99 1.256 . S
H112 C85 0.930 . S
H113 C86 0.931 . S
H114 C88 0.934 . S
H115 C89 0.930 . S
H116 C94 0.930 . S
H117 C95 0.931 . S
H118 C97 0.934 . S
H119 C98 0.930 . S
Ho120 C123 2.811 1_554 S
Ho120 O140 2.322 1_554 S
Ho120 O142 2.378 1_554 S
Ho120 O143 2.524 1_554 S
Ho120 O144 2.381 . S
Ho120 O145 2.669 . S
Ho120 O147 2.346 . S
Ho120 O151 2.305 . S
Ho121 C132 2.811 . S
Ho121 O141 2.346 1_554 S
Ho121 O145 2.305 . S
Ho121 O146 2.322 . S
Ho121 O148 2.378 . S
Ho121 O149 2.524 . S
Ho121 O150 2.381 . S
Ho121 O151 2.669 . S
C122 O140 1.259 . S
C122 O141 1.268 . S
C123 Ho120 2.811 1_556 S
C123 C124 1.488 . S
C123 O142 1.215 . S
C123 O143 1.289 . S
C124 C123 1.488 . S
C124 C125 1.348 . S
C124 C129 1.413 . S
C125 C124 1.348 . S
C125 C126 1.442 . S
C125 H152 0.930 . S
C126 C125 1.442 . S
C126 C127 1.381 1_545 S
C126 H153 0.931 . S
C127 C126 1.381 1_565 S
C127 C128 1.321 . S
C128 C127 1.321 . S
C128 C129 1.403 1_565 S
C128 H154 0.934 . S
C129 C124 1.413 . S
C129 C128 1.403 1_545 S
C129 H155 0.930 . S
C130 O144 1.275 . S
C130 O145 1.256 . S
C131 O146 1.259 . S
C131 O147 1.268 . S
C132 Ho121 2.811 . S
C132 C133 1.488 . S
C132 O148 1.215 . S
C132 O149 1.289 . S
C133 C132 1.488 . S
C133 C134 1.348 . S
C133 C138 1.413 . S
C134 C133 1.348 . S
C134 C135 1.442 . S
C134 H156 0.930 . S
C135 C134 1.442 . S
C135 C136 1.381 . S
C135 H157 0.931 . S
C136 C135 1.381 . S
C136 C137 1.321 . S
C137 C136 1.321 . S
C137 C138 1.403 . S
C137 H158 0.934 . S
C138 C133 1.413 . S
C138 C137 1.403 . S
C138 H159 0.930 . S
C139 O150 1.275 1_556 S
C139 O151 1.256 1_556 S
O140 Ho120 2.322 1_556 S
O140 C122 1.259 . S
O141 Ho121 2.346 1_556 S
O141 C122 1.268 . S
O142 Ho120 2.378 1_556 S
O142 C123 1.215 . S
O143 Ho120 2.524 1_556 S
O143 C123 1.289 . S
O144 Ho120 2.381 . S
O144 C130 1.275 . S
O145 Ho120 2.669 . S
O145 Ho121 2.305 . S
O145 C130 1.256 . S
O146 Ho121 2.322 . S
O146 C131 1.259 . S
O147 Ho120 2.346 . S
O147 C131 1.268 . S
O148 Ho121 2.378 . S
O148 C132 1.215 . S
O149 Ho121 2.524 . S
O149 C132 1.289 . S
O150 Ho121 2.381 . S
O150 C139 1.275 1_554 S
O151 Ho120 2.305 . S
O151 Ho121 2.669 . S
O151 C139 1.256 1_554 S
H152 C125 0.930 . S
H153 C126 0.931 . S
H154 C128 0.934 . S
H155 C129 0.930 . S
H156 C134 0.930 . S
H157 C135 0.931 . S
H158 C137 0.934 . S
H159 C138 0.930 . S
Ho160 C163 2.811 . S
Ho160 O180 2.322 . S
Ho160 O182 2.378 . S
Ho160 O183 2.524 . S
Ho160 O184 2.381 . S
Ho160 O185 2.669 . S
Ho160 O187 2.346 . S
Ho160 O191 2.305 . S
Ho161 C172 2.811 . S
Ho161 O181 2.346 . S
Ho161 O185 2.305 . S
Ho161 O186 2.322 . S
Ho161 O188 2.378 . S
Ho161 O189 2.524 . S
Ho161 O190 2.381 . S
Ho161 O191 2.669 . S
C162 O180 1.259 . S
C162 O181 1.268 . S
C163 Ho160 2.811 . S
C163 C164 1.488 . S
C163 O182 1.215 . S
C163 O183 1.289 . S
C164 C163 1.488 . S
C164 C165 1.348 . S
C164 C169 1.413 . S
C165 C164 1.348 . S
C165 C166 1.442 . S
C165 H192 0.930 . S
C166 C165 1.442 . S
C166 C167 1.381 . S
C166 H193 0.931 . S
C167 C166 1.381 . S
C167 C168 1.321 . S
C168 C167 1.321 . S
C168 C169 1.403 . S
C168 H194 0.934 . S
C169 C164 1.413 . S
C169 C168 1.403 . S
C169 H195 0.930 . S
C170 O184 1.275 . S
C170 O185 1.256 . S
C171 O186 1.259 . S
C171 O187 1.268 . S
C172 Ho161 2.811 . S
C172 C173 1.488 . S
C172 O188 1.215 . S
C172 O189 1.289 . S
C173 C172 1.488 . S
C173 C174 1.348 . S
C173 C178 1.413 . S
C174 C173 1.348 . S
C174 C175 1.442 . S
C174 H196 0.930 . S
C175 C174 1.442 . S
C175 C176 1.381 1_455 S
C175 H197 0.931 . S
C176 C175 1.381 1_655 S
C176 C177 1.321 . S
C177 C176 1.321 . S
C177 C178 1.403 1_655 S
C177 H198 0.934 . S
C178 C173 1.413 . S
C178 C177 1.403 1_455 S
C178 H199 0.930 . S
C179 O190 1.275 . S
C179 O191 1.256 . S
O180 Ho160 2.322 . S
O180 C162 1.259 . S
O181 Ho161 2.346 . S
O181 C162 1.268 . S
O182 Ho160 2.378 . S
O182 C163 1.215 . S
O183 Ho160 2.524 . S
O183 C163 1.289 . S
O184 Ho160 2.381 . S
O184 C170 1.275 . S
O185 Ho160 2.669 . S
O185 Ho161 2.305 . S
O185 C170 1.256 . S
O186 Ho161 2.322 . S
O186 C171 1.259 . S
O187 Ho160 2.346 . S
O187 C171 1.268 . S
O188 Ho161 2.378 . S
O188 C172 1.215 . S
O189 Ho161 2.524 . S
O189 C172 1.289 . S
O190 Ho161 2.381 . S
O190 C179 1.275 . S
O191 Ho160 2.305 . S
O191 Ho161 2.669 . S
O191 C179 1.256 . S
H192 C165 0.930 . S
H193 C166 0.931 . S
H194 C168 0.934 . S
H195 C169 0.930 . S
H196 C174 0.930 . S
H197 C175 0.931 . S
H198 C177 0.934 . S
H199 C178 0.930 . S
Ho200 C203 2.811 . S
Ho200 O220 2.322 . S
Ho200 O222 2.378 . S
Ho200 O223 2.524 . S
Ho200 O224 2.381 . S
Ho200 O225 2.669 . S
Ho200 O227 2.346 . S
Ho200 O231 2.305 . S
Ho201 C212 2.811 . S
Ho201 O221 2.346 . S
Ho201 O225 2.305 . S
Ho201 O226 2.322 . S
Ho201 O228 2.378 . S
Ho201 O229 2.524 . S
Ho201 O230 2.381 . S
Ho201 O231 2.669 . S
C202 O220 1.259 . S
C202 O221 1.268 . S
C203 Ho200 2.811 . S
C203 C204 1.488 . S
C203 O222 1.215 . S
C203 O223 1.289 . S
C204 C203 1.488 . S
C204 C205 1.348 . S
C204 C209 1.413 . S
C205 C204 1.348 . S
C205 C206 1.442 . S
C205 H232 0.930 . S
C206 C205 1.442 . S
C206 C207 1.381 1_565 S
C206 H233 0.931 . S
C207 C206 1.381 1_545 S
C207 C208 1.321 . S
C208 C207 1.321 . S
C208 C209 1.403 1_545 S
C208 H234 0.934 . S
C209 C204 1.413 . S
C209 C208 1.403 1_565 S
C209 H235 0.930 . S
C210 O224 1.275 . S
C210 O225 1.256 . S
C211 O226 1.259 . S
C211 O227 1.268 . S
C212 Ho201 2.811 . S
C212 C213 1.488 . S
C212 O228 1.215 . S
C212 O229 1.289 . S
C213 C212 1.488 . S
C213 C214 1.348 . S
C213 C218 1.413 . S
C214 C213 1.348 . S
C214 C215 1.442 . S
C214 H236 0.930 . S
C215 C214 1.442 . S
C215 C216 1.381 . S
C215 H237 0.931 . S
C216 C215 1.381 . S
C216 C217 1.321 . S
C217 C216 1.321 . S
C217 C218 1.403 . S
C217 H238 0.934 . S
C218 C213 1.413 . S
C218 C217 1.403 . S
C218 H239 0.930 . S
C219 O230 1.275 . S
C219 O231 1.256 . S
O220 Ho200 2.322 . S
O220 C202 1.259 . S
O221 Ho201 2.346 . S
O221 C202 1.268 . S
O222 Ho200 2.378 . S
O222 C203 1.215 . S
O223 Ho200 2.524 . S
O223 C203 1.289 . S
O224 Ho200 2.381 . S
O224 C210 1.275 . S
O225 Ho200 2.669 . S
O225 Ho201 2.305 . S
O225 C210 1.256 . S
O226 Ho201 2.322 . S
O226 C211 1.259 . S
O227 Ho200 2.346 . S
O227 C211 1.268 . S
O228 Ho201 2.378 . S
O228 C212 1.215 . S
O229 Ho201 2.524 . S
O229 C212 1.289 . S
O230 Ho201 2.381 . S
O230 C219 1.275 . S
O231 Ho200 2.305 . S
O231 Ho201 2.669 . S
O231 C219 1.256 . S
H232 C205 0.930 . S
H233 C206 0.931 . S
H234 C208 0.934 . S
H235 C209 0.930 . S
H236 C214 0.930 . S
H237 C215 0.931 . S
H238 C217 0.934 . S
H239 C218 0.930 . S
Ho240 C243 2.811 . S
Ho240 O260 2.322 . S
Ho240 O262 2.378 . S
Ho240 O263 2.524 . S
Ho240 O264 2.381 . S
Ho240 O265 2.669 . S
Ho240 O267 2.346 . S
Ho240 O271 2.305 . S
Ho241 C252 2.811 . S
Ho241 O261 2.346 . S
Ho241 O265 2.305 . S
Ho241 O266 2.322 . S
Ho241 O268 2.378 . S
Ho241 O269 2.524 . S
Ho241 O270 2.381 . S
Ho241 O271 2.669 . S
C242 O260 1.259 . S
C242 O261 1.268 . S
C243 Ho240 2.811 . S
C243 C244 1.488 . S
C243 O262 1.215 . S
C243 O263 1.289 . S
C244 C243 1.488 . S
C244 C245 1.348 . S
C244 C249 1.413 . S
C245 C244 1.348 . S
C245 C246 1.442 . S
C245 H272 0.930 . S
C246 C245 1.442 . S
C246 C247 1.381 . S
C246 H273 0.931 . S
C247 C246 1.381 . S
C247 C248 1.321 . S
C248 C247 1.321 . S
C248 C249 1.403 . S
C248 H274 0.934 . S
C249 C244 1.413 . S
C249 C248 1.403 . S
C249 H275 0.930 . S
C250 O264 1.275 . S
C250 O265 1.256 . S
C251 O266 1.259 . S
C251 O267 1.268 . S
C252 Ho241 2.811 . S
C252 C253 1.488 . S
C252 O268 1.215 . S
C252 O269 1.289 . S
C253 C252 1.488 . S
C253 C254 1.348 . S
C253 C258 1.413 . S
C254 C253 1.348 . S
C254 C255 1.442 . S
C254 H276 0.930 . S
C255 C254 1.442 . S
C255 C256 1.381 . S
C255 H277 0.931 . S
C256 C255 1.381 . S
C256 C257 1.321 . S
C257 C256 1.321 . S
C257 C258 1.403 . S
C257 H278 0.934 . S
C258 C253 1.413 . S
C258 C257 1.403 . S
C258 H279 0.930 . S
C259 O270 1.275 . S
C259 O271 1.256 . S
O260 Ho240 2.322 . S
O260 C242 1.259 . S
O261 Ho241 2.346 . S
O261 C242 1.268 . S
O262 Ho240 2.378 . S
O262 C243 1.215 . S
O263 Ho240 2.524 . S
O263 C243 1.289 . S
O264 Ho240 2.381 . S
O264 C250 1.275 . S
O265 Ho240 2.669 . S
O265 Ho241 2.305 . S
O265 C250 1.256 . S
O266 Ho241 2.322 . S
O266 C251 1.259 . S
O267 Ho240 2.346 . S
O267 C251 1.268 . S
O268 Ho241 2.378 . S
O268 C252 1.215 . S
O269 Ho241 2.524 . S
O269 C252 1.289 . S
O270 Ho241 2.381 . S
O270 C259 1.275 . S
O271 Ho240 2.305 . S
O271 Ho241 2.669 . S
O271 C259 1.256 . S
H272 C245 0.930 . S
H273 C246 0.931 . S
H274 C248 0.934 . S
H275 C249 0.930 . S
H276 C254 0.930 . S
H277 C255 0.931 . S
H278 C257 0.934 . S
H279 C258 0.930 . S
Ho280 C283 2.811 1_556 S
Ho280 O300 2.322 1_556 S
Ho280 O302 2.378 1_556 S
Ho280 O303 2.524 1_556 S
Ho280 O304 2.381 . S
Ho280 O305 2.669 . S
Ho280 O307 2.346 . S
Ho280 O311 2.305 . S
Ho281 C292 2.811 . S
Ho281 O301 2.346 1_556 S
Ho281 O305 2.305 . S
Ho281 O306 2.322 . S
Ho281 O308 2.378 . S
Ho281 O309 2.524 . S
Ho281 O310 2.381 . S
Ho281 O311 2.669 . S
C282 O300 1.259 . S
C282 O301 1.268 . S
C283 Ho280 2.811 1_554 S
C283 C284 1.488 . S
C283 O302 1.215 . S
C283 O303 1.289 . S
C284 C283 1.488 . S
C284 C285 1.348 . S
C284 C289 1.413 . S
C285 C284 1.348 . S
C285 C286 1.442 . S
C285 H312 0.930 . S
C286 C285 1.442 . S
C286 C287 1.381 1_545 S
C286 H313 0.931 . S
C287 C286 1.381 1_565 S
C287 C288 1.321 . S
C288 C287 1.321 . S
C288 C289 1.403 1_565 S
C288 H314 0.934 . S
C289 C284 1.413 . S
C289 C288 1.403 1_545 S
C289 H315 0.930 . S
C290 O304 1.275 . S
C290 O305 1.256 . S
C291 O306 1.259 . S
C291 O307 1.268 . S
C292 Ho281 2.811 . S
C292 C293 1.488 . S
C292 O308 1.215 . S
C292 O309 1.289 . S
C293 C292 1.488 . S
C293 C294 1.348 . S
C293 C298 1.413 . S
C294 C293 1.348 . S
C294 C295 1.442 . S
C294 H316 0.930 . S
C295 C294 1.442 . S
C295 C296 1.381 . S
C295 H317 0.931 . S
C296 C295 1.381 . S
C296 C297 1.321 . S
C297 C296 1.321 . S
C297 C298 1.403 . S
C297 H318 0.934 . S
C298 C293 1.413 . S
C298 C297 1.403 . S
C298 H319 0.930 . S
C299 O310 1.275 1_554 S
C299 O311 1.256 1_554 S
O300 Ho280 2.322 1_554 S
O300 C282 1.259 . S
O301 Ho281 2.346 1_554 S
O301 C282 1.268 . S
O302 Ho280 2.378 1_554 S
O302 C283 1.215 . S
O303 Ho280 2.524 1_554 S
O303 C283 1.289 . S
O304 Ho280 2.381 . S
O304 C290 1.275 . S
O305 Ho280 2.669 . S
O305 Ho281 2.305 . S
O305 C290 1.256 . S
O306 Ho281 2.322 . S
O306 C291 1.259 . S
O307 Ho280 2.346 . S
O307 C291 1.268 . S
O308 Ho281 2.378 . S
O308 C292 1.215 . S
O309 Ho281 2.524 . S
O309 C292 1.289 . S
O310 Ho281 2.381 . S
O310 C299 1.275 1_556 S
O311 Ho280 2.305 . S
O311 Ho281 2.669 . S
O311 C299 1.256 1_556 S
H312 C285 0.930 . S
H313 C286 0.931 . S
H314 C288 0.934 . S
H315 C289 0.930 . S
H316 C294 0.930 . S
H317 C295 0.931 . S
H318 C297 0.934 . S
H319 C298 0.930 . S
Ho320 C323 2.811 . S
Ho320 O340 2.322 . S
Ho320 O342 2.378 . S
Ho320 O343 2.524 . S
Ho320 O344 2.381 . S
Ho320 O345 2.669 . S
Ho320 O347 2.346 . S
Ho320 O351 2.305 . S
Ho321 C332 2.811 . S
Ho321 O341 2.346 . S
Ho321 O345 2.305 . S
Ho321 O346 2.322 . S
Ho321 O348 2.378 . S
Ho321 O349 2.524 . S
Ho321 O350 2.381 . S
Ho321 O351 2.669 . S
C322 O340 1.259 . S
C322 O341 1.268 . S
C323 Ho320 2.811 . S
C323 C324 1.488 . S
C323 O342 1.215 . S
C323 O343 1.289 . S
C324 C323 1.488 . S
C324 C325 1.348 . S
C324 C329 1.413 . S
C325 C324 1.348 . S
C325 C326 1.442 . S
C325 H352 0.930 . S
C326 C325 1.442 . S
C326 C327 1.381 1_655 S
C326 H353 0.931 . S
C327 C326 1.381 1_455 S
C327 C328 1.321 . S
C328 C327 1.321 . S
C328 C329 1.403 1_455 S
C328 H354 0.934 . S
C329 C324 1.413 . S
C329 C328 1.403 1_655 S
C329 H355 0.930 . S
C330 O344 1.275 . S
C330 O345 1.256 . S
C331 O346 1.259 . S
C331 O347 1.268 . S
C332 Ho321 2.811 . S
C332 C333 1.488 . S
C332 O348 1.215 . S
C332 O349 1.289 . S
C333 C332 1.488 . S
C333 C334 1.348 . S
C333 C338 1.413 . S
C334 C333 1.348 . S
C334 C335 1.442 . S
C334 H356 0.930 . S
C335 C334 1.442 . S
C335 C336 1.381 . S
C335 H357 0.931 . S
C336 C335 1.381 . S
C336 C337 1.321 . S
C337 C336 1.321 . S
C337 C338 1.403 . S
C337 H358 0.934 . S
C338 C333 1.413 . S
C338 C337 1.403 . S
C338 H359 0.930 . S
C339 O350 1.275 . S
C339 O351 1.256 . S
O340 Ho320 2.322 . S
O340 C322 1.259 . S
O341 Ho321 2.346 . S
O341 C322 1.268 . S
O342 Ho320 2.378 . S
O342 C323 1.215 . S
O343 Ho320 2.524 . S
O343 C323 1.289 . S
O344 Ho320 2.381 . S
O344 C330 1.275 . S
O345 Ho320 2.669 . S
O345 Ho321 2.305 . S
O345 C330 1.256 . S
O346 Ho321 2.322 . S
O346 C331 1.259 . S
O347 Ho320 2.346 . S
O347 C331 1.268 . S
O348 Ho321 2.378 . S
O348 C332 1.215 . S
O349 Ho321 2.524 . S
O349 C332 1.289 . S
O350 Ho321 2.381 . S
O350 C339 1.275 . S
O351 Ho320 2.305 . S
O351 Ho321 2.669 . S
O351 C339 1.256 . S
H352 C325 0.930 . S
H353 C326 0.931 . S
H354 C328 0.934 . S
H355 C329 0.930 . S
H356 C334 0.930 . S
H357 C335 0.931 . S
H358 C337 0.934 . S
H359 C338 0.930 . S
Ho360 C363 2.811 . S
Ho360 O380 2.322 . S
Ho360 O382 2.378 . S
Ho360 O383 2.524 . S
Ho360 O384 2.381 . S
Ho360 O385 2.669 . S
Ho360 O387 2.346 . S
Ho360 O391 2.305 . S
Ho361 C372 2.811 . S
Ho361 O381 2.346 . S
Ho361 O385 2.305 . S
Ho361 O386 2.322 . S
Ho361 O388 2.378 . S
Ho361 O389 2.524 . S
Ho361 O390 2.381 . S
Ho361 O391 2.669 . S
C362 O380 1.259 . S
C362 O381 1.268 . S
C363 Ho360 2.811 . S
C363 C364 1.488 . S
C363 O382 1.215 . S
C363 O383 1.289 . S
C364 C363 1.488 . S
C364 C365 1.348 . S
C364 C369 1.413 . S
C365 C364 1.348 . S
C365 C366 1.442 . S
C365 H392 0.930 . S
C366 C365 1.442 . S
C366 C367 1.381 . S
C366 H393 0.931 . S
C367 C366 1.381 . S
C367 C368 1.321 . S
C368 C367 1.321 . S
C368 C369 1.403 . S
C368 H394 0.934 . S
C369 C364 1.413 . S
C369 C368 1.403 . S
C369 H395 0.930 . S
C370 O384 1.275 . S
C370 O385 1.256 . S
C371 O386 1.259 . S
C371 O387 1.268 . S
C372 Ho361 2.811 . S
C372 C373 1.488 . S
C372 O388 1.215 . S
C372 O389 1.289 . S
C373 C372 1.488 . S
C373 C374 1.348 . S
C373 C378 1.413 . S
C374 C373 1.348 . S
C374 C375 1.442 . S
C374 H396 0.930 . S
C375 C374 1.442 . S
C375 C376 1.381 1_545 S
C375 H397 0.931 . S
C376 C375 1.381 1_565 S
C376 C377 1.321 . S
C377 C376 1.321 . S
C377 C378 1.403 1_565 S
C377 H398 0.934 . S
C378 C373 1.413 . S
C378 C377 1.403 1_545 S
C378 H399 0.930 . S
C379 O390 1.275 . S
C379 O391 1.256 . S
O380 Ho360 2.322 . S
O380 C362 1.259 . S
O381 Ho361 2.346 . S
O381 C362 1.268 . S
O382 Ho360 2.378 . S
O382 C363 1.215 . S
O383 Ho360 2.524 . S
O383 C363 1.289 . S
O384 Ho360 2.381 . S
O384 C370 1.275 . S
O385 Ho360 2.669 . S
O385 Ho361 2.305 . S
O385 C370 1.256 . S
O386 Ho361 2.322 . S
O386 C371 1.259 . S
O387 Ho360 2.346 . S
O387 C371 1.268 . S
O388 Ho361 2.378 . S
O388 C372 1.215 . S
O389 Ho361 2.524 . S
O389 C372 1.289 . S
O390 Ho361 2.381 . S
O390 C379 1.275 . S
O391 Ho360 2.305 . S
O391 Ho361 2.669 . S
O391 C379 1.256 . S
H392 C365 0.930 . S
H393 C366 0.931 . S
H394 C368 0.934 . S
H395 C369 0.930 . S
H396 C374 0.930 . S
H397 C375 0.931 . S
H398 C377 0.934 . S
H399 C378 0.930 . S
Ho400 C403 2.811 . S
Ho400 O420 2.322 . S
Ho400 O422 2.378 . S
Ho400 O423 2.524 . S
Ho400 O424 2.381 . S
Ho400 O425 2.669 . S
Ho400 O427 2.346 . S
Ho400 O431 2.305 . S
Ho401 C412 2.811 . S
Ho401 O421 2.346 . S
Ho401 O425 2.305 . S
Ho401 O426 2.322 . S
Ho401 O428 2.378 . S
Ho401 O429 2.524 . S
Ho401 O430 2.381 . S
Ho401 O431 2.669 . S
C402 O420 1.259 . S
C402 O421 1.268 . S
C403 Ho400 2.811 . S
C403 C404 1.488 . S
C403 O422 1.215 . S
C403 O423 1.289 . S
C404 C403 1.488 . S
C404 C405 1.348 . S
C404 C409 1.413 . S
C405 C404 1.348 . S
C405 C406 1.442 . S
C405 H432 0.930 . S
C406 C405 1.442 . S
C406 C407 1.381 . S
C406 H433 0.931 . S
C407 C406 1.381 . S
C407 C408 1.321 . S
C408 C407 1.321 . S
C408 C409 1.403 . S
C408 H434 0.934 . S
C409 C404 1.413 . S
C409 C408 1.403 . S
C409 H435 0.930 . S
C410 O424 1.275 . S
C410 O425 1.256 . S
C411 O426 1.259 . S
C411 O427 1.268 . S
C412 Ho401 2.811 . S
C412 C413 1.488 . S
C412 O428 1.215 . S
C412 O429 1.289 . S
C413 C412 1.488 . S
C413 C414 1.348 . S
C413 C418 1.413 . S
C414 C413 1.348 . S
C414 C415 1.442 . S
C414 H436 0.930 . S
C415 C414 1.442 . S
C415 C416 1.381 . S
C415 H437 0.931 . S
C416 C415 1.381 . S
C416 C417 1.321 . S
C417 C416 1.321 . S
C417 C418 1.403 . S
C417 H438 0.934 . S
C418 C413 1.413 . S
C418 C417 1.403 . S
C418 H439 0.930 . S
C419 O430 1.275 . S
C419 O431 1.256 . S
O420 Ho400 2.322 . S
O420 C402 1.259 . S
O421 Ho401 2.346 . S
O421 C402 1.268 . S
O422 Ho400 2.378 . S
O422 C403 1.215 . S
O423 Ho400 2.524 . S
O423 C403 1.289 . S
O424 Ho400 2.381 . S
O424 C410 1.275 . S
O425 Ho400 2.669 . S
O425 Ho401 2.305 . S
O425 C410 1.256 . S
O426 Ho401 2.322 . S
O426 C411 1.259 . S
O427 Ho400 2.346 . S
O427 C411 1.268 . S
O428 Ho401 2.378 . S
O428 C412 1.215 . S
O429 Ho401 2.524 . S
O429 C412 1.289 . S
O430 Ho401 2.381 . S
O430 C419 1.275 . S
O431 Ho400 2.305 . S
O431 Ho401 2.669 . S
O431 C419 1.256 . S
H432 C405 0.930 . S
H433 C406 0.931 . S
H434 C408 0.934 . S
H435 C409 0.930 . S
H436 C414 0.930 . S
H437 C415 0.931 . S
H438 C417 0.934 . S
H439 C418 0.930 . S
Ho440 C443 2.811 . S
Ho440 O460 2.322 . S
Ho440 O462 2.378 . S
Ho440 O463 2.524 . S
Ho440 O464 2.381 . S
Ho440 O465 2.669 . S
Ho440 O467 2.346 1_556 S
Ho440 O471 2.305 . S
Ho441 C452 2.811 1_556 S
Ho441 O461 2.346 . S
Ho441 O465 2.305 . S
Ho441 O466 2.322 1_556 S
Ho441 O468 2.378 1_556 S
Ho441 O469 2.524 1_556 S
Ho441 O470 2.381 . S
Ho441 O471 2.669 . S
C442 O460 1.259 . S
C442 O461 1.268 . S
C443 Ho440 2.811 . S
C443 C444 1.488 . S
C443 O462 1.215 . S
C443 O463 1.289 . S
C444 C443 1.488 . S
C444 C445 1.348 . S
C444 C449 1.413 . S
C445 C444 1.348 . S
C445 C446 1.442 . S
C445 H472 0.930 . S
C446 C445 1.442 . S
C446 C447 1.381 . S
C446 H473 0.931 . S
C447 C446 1.381 . S
C447 C448 1.321 . S
C448 C447 1.321 . S
C448 C449 1.403 . S
C448 H474 0.934 . S
C449 C444 1.413 . S
C449 C448 1.403 . S
C449 H475 0.930 . S
C450 O464 1.275 1_554 S
C450 O465 1.256 1_554 S
C451 O466 1.259 . S
C451 O467 1.268 . S
C452 Ho441 2.811 1_554 S
C452 C453 1.488 . S
C452 O468 1.215 . S
C452 O469 1.289 . S
C453 C452 1.488 . S
C453 C454 1.348 . S
C453 C458 1.413 . S
C454 C453 1.348 . S
C454 C455 1.442 . S
C454 H476 0.930 . S
C455 C454 1.442 . S
C455 C456 1.381 1_565 S
C455 H477 0.931 . S
C456 C455 1.381 1_545 S
C456 C457 1.321 . S
C457 C456 1.321 . S
C457 C458 1.403 1_545 S
C457 H478 0.934 . S
C458 C453 1.413 . S
C458 C457 1.403 1_565 S
C458 H479 0.930 . S
C459 O470 1.275 . S
C459 O471 1.256 . S
O460 Ho440 2.322 . S
O460 C442 1.259 . S
O461 Ho441 2.346 . S
O461 C442 1.268 . S
O462 Ho440 2.378 . S
O462 C443 1.215 . S
O463 Ho440 2.524 . S
O463 C443 1.289 . S
O464 Ho440 2.381 . S
O464 C450 1.275 1_556 S
O465 Ho440 2.669 . S
O465 Ho441 2.305 . S
O465 C450 1.256 1_556 S
O466 Ho441 2.322 1_554 S
O466 C451 1.259 . S
O467 Ho440 2.346 1_554 S
O467 C451 1.268 . S
O468 Ho441 2.378 1_554 S
O468 C452 1.215 . S
O469 Ho441 2.524 1_554 S
O469 C452 1.289 . S
O470 Ho441 2.381 . S
O470 C459 1.275 . S
O471 Ho440 2.305 . S
O471 Ho441 2.669 . S
O471 C459 1.256 . S
H472 C445 0.930 . S
H473 C446 0.931 . S
H474 C448 0.934 . S
H475 C449 0.930 . S
H476 C454 0.930 . S
H477 C455 0.931 . S
H478 C457 0.934 . S
H479 C458 0.930 . S
Ho480 C483 2.811 . S
Ho480 O500 2.322 . S
Ho480 O502 2.378 . S
Ho480 O503 2.524 . S
Ho480 O504 2.381 . S
Ho480 O505 2.669 . S
Ho480 O507 2.346 . S
Ho480 O511 2.305 . S
Ho481 C492 2.811 . S
Ho481 O501 2.346 . S
Ho481 O505 2.305 . S
Ho481 O506 2.322 . S
Ho481 O508 2.378 . S
Ho481 O509 2.524 . S
Ho481 O510 2.381 . S
Ho481 O511 2.669 . S
C482 O500 1.259 . S
C482 O501 1.268 . S
C483 Ho480 2.811 . S
C483 C484 1.488 . S
C483 O502 1.215 . S
C483 O503 1.289 . S
C484 C483 1.488 . S
C484 C485 1.348 . S
C484 C489 1.413 . S
C485 C484 1.348 . S
C485 C486 1.442 . S
C485 H512 0.930 . S
C486 C485 1.442 . S
C486 C487 1.381 1_655 S
C486 H513 0.931 . S
C487 C486 1.381 1_455 S
C487 C488 1.321 . S
C488 C487 1.321 . S
C488 C489 1.403 1_455 S
C488 H514 0.934 . S
C489 C484 1.413 . S
C489 C488 1.403 1_655 S
C489 H515 0.930 . S
C490 O504 1.275 . S
C490 O505 1.256 . S
C491 O506 1.259 . S
C491 O507 1.268 . S
C492 Ho481 2.811 . S
C492 C493 1.488 . S
C492 O508 1.215 . S
C492 O509 1.289 . S
C493 C492 1.488 . S
C493 C494 1.348 . S
C493 C498 1.413 . S
C494 C493 1.348 . S
C494 C495 1.442 . S
C494 H516 0.930 . S
C495 C494 1.442 . S
C495 C496 1.381 . S
C495 H517 0.931 . S
C496 C495 1.381 . S
C496 C497 1.321 . S
C497 C496 1.321 . S
C497 C498 1.403 . S
C497 H518 0.934 . S
C498 C493 1.413 . S
C498 C497 1.403 . S
C498 H519 0.930 . S
C499 O510 1.275 . S
C499 O511 1.256 . S
O500 Ho480 2.322 . S
O500 C482 1.259 . S
O501 Ho481 2.346 . S
O501 C482 1.268 . S
O502 Ho480 2.378 . S
O502 C483 1.215 . S
O503 Ho480 2.524 . S
O503 C483 1.289 . S
O504 Ho480 2.381 . S
O504 C490 1.275 . S
O505 Ho480 2.669 . S
O505 Ho481 2.305 . S
O505 C490 1.256 . S
O506 Ho481 2.322 . S
O506 C491 1.259 . S
O507 Ho480 2.346 . S
O507 C491 1.268 . S
O508 Ho481 2.378 . S
O508 C492 1.215 . S
O509 Ho481 2.524 . S
O509 C492 1.289 . S
O510 Ho481 2.381 . S
O510 C499 1.275 . S
O511 Ho480 2.305 . S
O511 Ho481 2.669 . S
O511 C499 1.256 . S
H512 C485 0.930 . S
H513 C486 0.931 . S
H514 C488 0.934 . S
H515 C489 0.930 . S
H516 C494 0.930 . S
H517 C495 0.931 . S
H518 C497 0.934 . S
H519 C498 0.930 . S
Ho520 C523 2.811 . S
Ho520 O540 2.322 . S
Ho520 O542 2.378 . S
Ho520 O543 2.524 . S
Ho520 O544 2.381 . S
Ho520 O545 2.669 . S
Ho520 O547 2.346 . S
Ho520 O551 2.305 . S
Ho521 C532 2.811 . S
Ho521 O541 2.346 . S
Ho521 O545 2.305 . S
Ho521 O546 2.322 . S
Ho521 O548 2.378 . S
Ho521 O549 2.524 . S
Ho521 O550 2.381 . S
Ho521 O551 2.669 . S
C522 O540 1.259 . S
C522 O541 1.268 . S
C523 Ho520 2.811 . S
C523 C524 1.488 . S
C523 O542 1.215 . S
C523 O543 1.289 . S
C524 C523 1.488 . S
C524 C525 1.348 . S
C524 C529 1.413 . S
C525 C524 1.348 . S
C525 C526 1.442 . S
C525 H552 0.930 . S
C526 C525 1.442 . S
C526 C527 1.381 . S
C526 H553 0.931 . S
C527 C526 1.381 . S
C527 C528 1.321 . S
C528 C527 1.321 . S
C528 C529 1.403 . S
C528 H554 0.934 . S
C529 C524 1.413 . S
C529 C528 1.403 . S
C529 H555 0.930 . S
C530 O544 1.275 . S
C530 O545 1.256 . S
C531 O546 1.259 . S
C531 O547 1.268 . S
C532 Ho521 2.811 . S
C532 C533 1.488 . S
C532 O548 1.215 . S
C532 O549 1.289 . S
C533 C532 1.488 . S
C533 C534 1.348 . S
C533 C538 1.413 . S
C534 C533 1.348 . S
C534 C535 1.442 . S
C534 H556 0.930 . S
C535 C534 1.442 . S
C535 C536 1.381 1_545 S
C535 H557 0.931 . S
C536 C535 1.381 1_565 S
C536 C537 1.321 . S
C537 C536 1.321 . S
C537 C538 1.403 1_565 S
C537 H558 0.934 . S
C538 C533 1.413 . S
C538 C537 1.403 1_545 S
C538 H559 0.930 . S
C539 O550 1.275 . S
C539 O551 1.256 . S
O540 Ho520 2.322 . S
O540 C522 1.259 . S
O541 Ho521 2.346 . S
O541 C522 1.268 . S
O542 Ho520 2.378 . S
O542 C523 1.215 . S
O543 Ho520 2.524 . S
O543 C523 1.289 . S
O544 Ho520 2.381 . S
O544 C530 1.275 . S
O545 Ho520 2.669 . S
O545 Ho521 2.305 . S
O545 C530 1.256 . S
O546 Ho521 2.322 . S
O546 C531 1.259 . S
O547 Ho520 2.346 . S
O547 C531 1.268 . S
O548 Ho521 2.378 . S
O548 C532 1.215 . S
O549 Ho521 2.524 . S
O549 C532 1.289 . S
O550 Ho521 2.381 . S
O550 C539 1.275 . S
O551 Ho520 2.305 . S
O551 Ho521 2.669 . S
O551 C539 1.256 . S
H552 C525 0.930 . S
H553 C526 0.931 . S
H554 C528 0.934 . S
H555 C529 0.930 . S
H556 C534 0.930 . S
H557 C535 0.931 . S
H558 C537 0.934 . S
H559 C538 0.930 . S
Ho560 C563 2.811 . S
Ho560 O580 2.322 . S
Ho560 O582 2.378 . S
Ho560 O583 2.524 . S
Ho560 O584 2.381 . S
Ho560 O585 2.669 . S
Ho560 O587 2.346 . S
Ho560 O591 2.305 . S
Ho561 C572 2.811 . S
Ho561 O581 2.346 . S
Ho561 O585 2.305 . S
Ho561 O586 2.322 . S
Ho561 O588 2.378 . S
Ho561 O589 2.524 . S
Ho561 O590 2.381 . S
Ho561 O591 2.669 . S
C562 O580 1.259 . S
C562 O581 1.268 . S
C563 Ho560 2.811 . S
C563 C564 1.488 . S
C563 O582 1.215 . S
C563 O583 1.289 . S
C564 C563 1.488 . S
C564 C565 1.348 . S
C564 C569 1.413 . S
C565 C564 1.348 . S
C565 C566 1.442 . S
C565 H592 0.930 . S
C566 C565 1.442 . S
C566 C567 1.381 . S
C566 H593 0.931 . S
C567 C566 1.381 . S
C567 C568 1.321 . S
C568 C567 1.321 . S
C568 C569 1.403 . S
C568 H594 0.934 . S
C569 C564 1.413 . S
C569 C568 1.403 . S
C569 H595 0.930 . S
C570 O584 1.275 . S
C570 O585 1.256 . S
C571 O586 1.259 . S
C571 O587 1.268 . S
C572 Ho561 2.811 . S
C572 C573 1.488 . S
C572 O588 1.215 . S
C572 O589 1.289 . S
C573 C572 1.488 . S
C573 C574 1.348 . S
C573 C578 1.413 . S
C574 C573 1.348 . S
C574 C575 1.442 . S
C574 H596 0.930 . S
C575 C574 1.442 . S
C575 C576 1.381 . S
C575 H597 0.931 . S
C576 C575 1.381 . S
C576 C577 1.321 . S
C577 C576 1.321 . S
C577 C578 1.403 . S
C577 H598 0.934 . S
C578 C573 1.413 . S
C578 C577 1.403 . S
C578 H599 0.930 . S
C579 O590 1.275 . S
C579 O591 1.256 . S
O580 Ho560 2.322 . S
O580 C562 1.259 . S
O581 Ho561 2.346 . S
O581 C562 1.268 . S
O582 Ho560 2.378 . S
O582 C563 1.215 . S
O583 Ho560 2.524 . S
O583 C563 1.289 . S
O584 Ho560 2.381 . S
O584 C570 1.275 . S
O585 Ho560 2.669 . S
O585 Ho561 2.305 . S
O585 C570 1.256 . S
O586 Ho561 2.322 . S
O586 C571 1.259 . S
O587 Ho560 2.346 . S
O587 C571 1.268 . S
O588 Ho561 2.378 . S
O588 C572 1.215 . S
O589 Ho561 2.524 . S
O589 C572 1.289 . S
O590 Ho561 2.381 . S
O590 C579 1.275 . S
O591 Ho560 2.305 . S
O591 Ho561 2.669 . S
O591 C579 1.256 . S
H592 C565 0.930 . S
H593 C566 0.931 . S
H594 C568 0.934 . S
H595 C569 0.930 . S
H596 C574 0.930 . S
H597 C575 0.931 . S
H598 C577 0.934 . S
H599 C578 0.930 . S
Ho600 C603 2.811 . S
Ho600 O620 2.322 . S
Ho600 O622 2.378 . S
Ho600 O623 2.524 . S
Ho600 O624 2.381 . S
Ho600 O625 2.669 . S
Ho600 O627 2.346 1_554 S
Ho600 O631 2.305 . S
Ho601 C612 2.811 1_554 S
Ho601 O621 2.346 . S
Ho601 O625 2.305 . S
Ho601 O626 2.322 1_554 S
Ho601 O628 2.378 1_554 S
Ho601 O629 2.524 1_554 S
Ho601 O630 2.381 . S
Ho601 O631 2.669 . S
C602 O620 1.259 . S
C602 O621 1.268 . S
C603 Ho600 2.811 . S
C603 C604 1.488 . S
C603 O622 1.215 . S
C603 O623 1.289 . S
C604 C603 1.488 . S
C604 C605 1.348 . S
C604 C609 1.413 . S
C605 C604 1.348 . S
C605 C606 1.442 . S
C605 H632 0.930 . S
C606 C605 1.442 . S
C606 C607 1.381 . S
C606 H633 0.931 . S
C607 C606 1.381 . S
C607 C608 1.321 . S
C608 C607 1.321 . S
C608 C609 1.403 . S
C608 H634 0.934 . S
C609 C604 1.413 . S
C609 C608 1.403 . S
C609 H635 0.930 . S
C610 O624 1.275 1_556 S
C610 O625 1.256 1_556 S
C611 O626 1.259 . S
C611 O627 1.268 . S
C612 Ho601 2.811 1_556 S
C612 C613 1.488 . S
C612 O628 1.215 . S
C612 O629 1.289 . S
C613 C612 1.488 . S
C613 C614 1.348 . S
C613 C618 1.413 . S
C614 C613 1.348 . S
C614 C615 1.442 . S
C614 H636 0.930 . S
C615 C614 1.442 . S
C615 C616 1.381 1_565 S
C615 H637 0.931 . S
C616 C615 1.381 1_545 S
C616 C617 1.321 . S
C617 C616 1.321 . S
C617 C618 1.403 1_545 S
C617 H638 0.934 . S
C618 C613 1.413 . S
C618 C617 1.403 1_565 S
C618 H639 0.930 . S
C619 O630 1.275 . S
C619 O631 1.256 . S
O620 Ho600 2.322 . S
O620 C602 1.259 . S
O621 Ho601 2.346 . S
O621 C602 1.268 . S
O622 Ho600 2.378 . S
O622 C603 1.215 . S
O623 Ho600 2.524 . S
O623 C603 1.289 . S
O624 Ho600 2.381 . S
O624 C610 1.275 1_554 S
O625 Ho600 2.669 . S
O625 Ho601 2.305 . S
O625 C610 1.256 1_554 S
O626 Ho601 2.322 1_556 S
O626 C611 1.259 . S
O627 Ho600 2.346 1_556 S
O627 C611 1.268 . S
O628 Ho601 2.378 1_556 S
O628 C612 1.215 . S
O629 Ho601 2.524 1_556 S
O629 C612 1.289 . S
O630 Ho601 2.381 . S
O630 C619 1.275 . S
O631 Ho600 2.305 . S
O631 Ho601 2.669 . S
O631 C619 1.256 . S
H632 C605 0.930 . S
H633 C606 0.931 . S
H634 C608 0.934 . S
H635 C609 0.930 . S
H636 C614 0.930 . S
H637 C615 0.931 . S
H638 C617 0.934 . S
H639 C618 0.930 . S
Ho640 C643 2.811 . S
Ho640 O660 2.322 . S
Ho640 O662 2.378 . S
Ho640 O663 2.524 . S
Ho640 O664 2.381 . S
Ho640 O665 2.669 . S
Ho640 O667 2.346 . S
Ho640 O671 2.305 . S
Ho641 C652 2.811 . S
Ho641 O661 2.346 . S
Ho641 O665 2.305 . S
Ho641 O666 2.322 . S
Ho641 O668 2.378 . S
Ho641 O669 2.524 . S
Ho641 O670 2.381 . S
Ho641 O671 2.669 . S
C642 O660 1.259 . S
C642 O661 1.268 . S
C643 Ho640 2.811 . S
C643 C644 1.488 . S
C643 O662 1.215 . S
C643 O663 1.289 . S
C644 C643 1.488 . S
C644 C645 1.348 . S
C644 C649 1.413 . S
C645 C644 1.348 . S
C645 C646 1.442 . S
C645 H672 0.930 . S
C646 C645 1.442 . S
C646 C647 1.381 . S
C646 H673 0.931 . S
C647 C646 1.381 . S
C647 C648 1.321 . S
C648 C647 1.321 . S
C648 C649 1.403 . S
C648 H674 0.934 . S
C649 C644 1.413 . S
C649 C648 1.403 . S
C649 H675 0.930 . S
C650 O664 1.275 . S
C650 O665 1.256 . S
C651 O666 1.259 . S
C651 O667 1.268 . S
C652 Ho641 2.811 . S
C652 C653 1.488 . S
C652 O668 1.215 . S
C652 O669 1.289 . S
C653 C652 1.488 . S
C653 C654 1.348 . S
C653 C658 1.413 . S
C654 C653 1.348 . S
C654 C655 1.442 . S
C654 H676 0.930 . S
C655 C654 1.442 . S
C655 C656 1.381 . S
C655 H677 0.931 . S
C656 C655 1.381 . S
C656 C657 1.321 . S
C657 C656 1.321 . S
C657 C658 1.403 . S
C657 H678 0.934 . S
C658 C653 1.413 . S
C658 C657 1.403 . S
C658 H679 0.930 . S
C659 O670 1.275 . S
C659 O671 1.256 . S
O660 Ho640 2.322 . S
O660 C642 1.259 . S
O661 Ho641 2.346 . S
O661 C642 1.268 . S
O662 Ho640 2.378 . S
O662 C643 1.215 . S
O663 Ho640 2.524 . S
O663 C643 1.289 . S
O664 Ho640 2.381 . S
O664 C650 1.275 . S
O665 Ho640 2.669 . S
O665 Ho641 2.305 . S
O665 C650 1.256 . S
O666 Ho641 2.322 . S
O666 C651 1.259 . S
O667 Ho640 2.346 . S
O667 C651 1.268 . S
O668 Ho641 2.378 . S
O668 C652 1.215 . S
O669 Ho641 2.524 . S
O669 C652 1.289 . S
O670 Ho641 2.381 . S
O670 C659 1.275 . S
O671 Ho640 2.305 . S
O671 Ho641 2.669 . S
O671 C659 1.256 . S
H672 C645 0.930 . S
H673 C646 0.931 . S
H674 C648 0.934 . S
H675 C649 0.930 . S
H676 C654 0.930 . S
H677 C655 0.931 . S
H678 C657 0.934 . S
H679 C658 0.930 . S
Ho680 C683 2.811 1_554 S
Ho680 O700 2.322 1_554 S
Ho680 O702 2.378 1_554 S
Ho680 O703 2.524 1_554 S
Ho680 O704 2.381 . S
Ho680 O705 2.669 . S
Ho680 O707 2.346 . S
Ho680 O711 2.305 . S
Ho681 C692 2.811 . S
Ho681 O701 2.346 1_554 S
Ho681 O705 2.305 . S
Ho681 O706 2.322 . S
Ho681 O708 2.378 . S
Ho681 O709 2.524 . S
Ho681 O710 2.381 . S
Ho681 O711 2.669 . S
C682 O700 1.259 . S
C682 O701 1.268 . S
C683 Ho680 2.811 1_556 S
C683 C684 1.488 . S
C683 O702 1.215 . S
C683 O703 1.289 . S
C684 C683 1.488 . S
C684 C685 1.348 . S
C684 C689 1.413 . S
C685 C684 1.348 . S
C685 C686 1.442 . S
C685 H712 0.930 . S
C686 C685 1.442 . S
C686 C687 1.381 . S
C686 H713 0.931 . S
C687 C686 1.381 . S
C687 C688 1.321 . S
C688 C687 1.321 . S
C688 C689 1.403 . S
C688 H714 0.934 . S
C689 C684 1.413 . S
C689 C688 1.403 . S
C689 H715 0.930 . S
C690 O704 1.275 . S
C690 O705 1.256 . S
C691 O706 1.259 . S
C691 O707 1.268 . S
C692 Ho681 2.811 . S
C692 C693 1.488 . S
C692 O708 1.215 . S
C692 O709 1.289 . S
C693 C692 1.488 . S
C693 C694 1.348 . S
C693 C698 1.413 . S
C694 C693 1.348 . S
C694 C695 1.442 . S
C694 H716 0.930 . S
C695 C694 1.442 . S
C695 C696 1.381 . S
C695 H717 0.931 . S
C696 C695 1.381 . S
C696 C697 1.321 . S
C697 C696 1.321 . S
C697 C698 1.403 . S
C697 H718 0.934 . S
C698 C693 1.413 . S
C698 C697 1.403 . S
C698 H719 0.930 . S
C699 O710 1.275 1_556 S
C699 O711 1.256 1_556 S
O700 Ho680 2.322 1_556 S
O700 C682 1.259 . S
O701 Ho681 2.346 1_556 S
O701 C682 1.268 . S
O702 Ho680 2.378 1_556 S
O702 C683 1.215 . S
O703 Ho680 2.524 1_556 S
O703 C683 1.289 . S
O704 Ho680 2.381 . S
O704 C690 1.275 . S
O705 Ho680 2.669 . S
O705 Ho681 2.305 . S
O705 C690 1.256 . S
O706 Ho681 2.322 . S
O706 C691 1.259 . S
O707 Ho680 2.346 . S
O707 C691 1.268 . S
O708 Ho681 2.378 . S
O708 C692 1.215 . S
O709 Ho681 2.524 . S
O709 C692 1.289 . S
O710 Ho681 2.381 . S
O710 C699 1.275 1_554 S
O711 Ho680 2.305 . S
O711 Ho681 2.669 . S
O711 C699 1.256 1_554 S
H712 C685 0.930 . S
H713 C686 0.931 . S
H714 C688 0.934 . S
H715 C689 0.930 . S
H716 C694 0.930 . S
H717 C695 0.931 . S
H718 C697 0.934 . S
H719 C698 0.930 . S
Ho720 C723 2.811 . S
Ho720 O740 2.322 . S
Ho720 O742 2.378 . S
Ho720 O743 2.524 . S
Ho720 O744 2.381 . S
Ho720 O745 2.669 . S
Ho720 O747 2.346 . S
Ho720 O751 2.305 . S
Ho721 C732 2.811 . S
Ho721 O741 2.346 . S
Ho721 O745 2.305 . S
Ho721 O746 2.322 . S
Ho721 O748 2.378 . S
Ho721 O749 2.524 . S
Ho721 O750 2.381 . S
Ho721 O751 2.669 . S
C722 O740 1.259 . S
C722 O741 1.268 . S
C723 Ho720 2.811 . S
C723 C724 1.488 . S
C723 O742 1.215 . S
C723 O743 1.289 . S
C724 C723 1.488 . S
C724 C725 1.348 . S
C724 C729 1.413 . S
C725 C724 1.348 . S
C725 C726 1.442 . S
C725 H752 0.930 . S
C726 C725 1.442 . S
C726 C727 1.381 . S
C726 H753 0.931 . S
C727 C726 1.381 . S
C727 C728 1.321 . S
C728 C727 1.321 . S
C728 C729 1.403 . S
C728 H754 0.934 . S
C729 C724 1.413 . S
C729 C728 1.403 . S
C729 H755 0.930 . S
C730 O744 1.275 . S
C730 O745 1.256 . S
C731 O746 1.259 . S
C731 O747 1.268 . S
C732 Ho721 2.811 . S
C732 C733 1.488 . S
C732 O748 1.215 . S
C732 O749 1.289 . S
C733 C732 1.488 . S
C733 C734 1.348 . S
C733 C738 1.413 . S
C734 C733 1.348 . S
C734 C735 1.442 . S
C734 H756 0.930 . S
C735 C734 1.442 . S
C735 C736 1.381 1_655 S
C735 H757 0.931 . S
C736 C735 1.381 1_455 S
C736 C737 1.321 . S
C737 C736 1.321 . S
C737 C738 1.403 1_455 S
C737 H758 0.934 . S
C738 C733 1.413 . S
C738 C737 1.403 1_655 S
C738 H759 0.930 . S
C739 O750 1.275 . S
C739 O751 1.256 . S
O740 Ho720 2.322 . S
O740 C722 1.259 . S
O741 Ho721 2.346 . S
O741 C722 1.268 . S
O742 Ho720 2.378 . S
O742 C723 1.215 . S
O743 Ho720 2.524 . S
O743 C723 1.289 . S
O744 Ho720 2.381 . S
O744 C730 1.275 . S
O745 Ho720 2.669 . S
O745 Ho721 2.305 . S
O745 C730 1.256 . S
O746 Ho721 2.322 . S
O746 C731 1.259 . S
O747 Ho720 2.346 . S
O747 C731 1.268 . S
O748 Ho721 2.378 . S
O748 C732 1.215 . S
O749 Ho721 2.524 . S
O749 C732 1.289 . S
O750 Ho721 2.381 . S
O750 C739 1.275 . S
O751 Ho720 2.305 . S
O751 Ho721 2.669 . S
O751 C739 1.256 . S
H752 C725 0.930 . S
H753 C726 0.931 . S
H754 C728 0.934 . S
H755 C729 0.930 . S
H756 C734 0.930 . S
H757 C735 0.931 . S
H758 C737 0.934 . S
H759 C738 0.930 . S
Ho760 C763 2.811 . S
Ho760 O780 2.322 . S
Ho760 O782 2.378 . S
Ho760 O783 2.524 . S
Ho760 O784 2.381 . S
Ho760 O785 2.669 . S
Ho760 O787 2.346 . S
Ho760 O791 2.305 . S
Ho761 C772 2.811 . S
Ho761 O781 2.346 . S
Ho761 O785 2.305 . S
Ho761 O786 2.322 . S
Ho761 O788 2.378 . S
Ho761 O789 2.524 . S
Ho761 O790 2.381 . S
Ho761 O791 2.669 . S
C762 O780 1.259 . S
C762 O781 1.268 . S
C763 Ho760 2.811 . S
C763 C764 1.488 . S
C763 O782 1.215 . S
C763 O783 1.289 . S
C764 C763 1.488 . S
C764 C765 1.348 . S
C764 C769 1.413 . S
C765 C764 1.348 . S
C765 C766 1.442 . S
C765 H792 0.930 . S
C766 C765 1.442 . S
C766 C767 1.381 . S
C766 H793 0.931 . S
C767 C766 1.381 . S
C767 C768 1.321 . S
C768 C767 1.321 . S
C768 C769 1.403 . S
C768 H794 0.934 . S
C769 C764 1.413 . S
C769 C768 1.403 . S
C769 H795 0.930 . S
C770 O784 1.275 . S
C770 O785 1.256 . S
C771 O786 1.259 . S
C771 O787 1.268 . S
C772 Ho761 2.811 . S
C772 C773 1.488 . S
C772 O788 1.215 . S
C772 O789 1.289 . S
C773 C772 1.488 . S
C773 C774 1.348 . S
C773 C778 1.413 . S
C774 C773 1.348 . S
C774 C775 1.442 . S
C774 H796 0.930 . S
C775 C774 1.442 . S
C775 C776 1.381 . S
C775 H797 0.931 . S
C776 C775 1.381 . S
C776 C777 1.321 . S
C777 C776 1.321 . S
C777 C778 1.403 . S
C777 H798 0.934 . S
C778 C773 1.413 . S
C778 C777 1.403 . S
C778 H799 0.930 . S
C779 O790 1.275 . S
C779 O791 1.256 . S
O780 Ho760 2.322 . S
O780 C762 1.259 . S
O781 Ho761 2.346 . S
O781 C762 1.268 . S
O782 Ho760 2.378 . S
O782 C763 1.215 . S
O783 Ho760 2.524 . S
O783 C763 1.289 . S
O784 Ho760 2.381 . S
O784 C770 1.275 . S
O785 Ho760 2.669 . S
O785 Ho761 2.305 . S
O785 C770 1.256 . S
O786 Ho761 2.322 . S
O786 C771 1.259 . S
O787 Ho760 2.346 . S
O787 C771 1.268 . S
O788 Ho761 2.378 . S
O788 C772 1.215 . S
O789 Ho761 2.524 . S
O789 C772 1.289 . S
O790 Ho761 2.381 . S
O790 C779 1.275 . S
O791 Ho760 2.305 . S
O791 Ho761 2.669 . S
O791 C779 1.256 . S
H792 C765 0.930 . S
H793 C766 0.931 . S
H794 C768 0.934 . S
H795 C769 0.930 . S
H796 C774 0.930 . S
H797 C775 0.931 . S
H798 C777 0.934 . S
H799 C778 0.930 . S
Ho800 C803 2.811 . S
Ho800 O820 2.322 . S
Ho800 O822 2.378 . S
Ho800 O823 2.524 . S
Ho800 O824 2.381 . S
Ho800 O825 2.669 . S
Ho800 O827 2.346 . S
Ho800 O831 2.305 . S
Ho801 C812 2.811 . S
Ho801 O821 2.346 . S
Ho801 O825 2.305 . S
Ho801 O826 2.322 . S
Ho801 O828 2.378 . S
Ho801 O829 2.524 . S
Ho801 O830 2.381 . S
Ho801 O831 2.669 . S
C802 O820 1.259 . S
C802 O821 1.268 . S
C803 Ho800 2.811 . S
C803 C804 1.488 . S
C803 O822 1.215 . S
C803 O823 1.289 . S
C804 C803 1.488 . S
C804 C805 1.348 . S
C804 C809 1.413 . S
C805 C804 1.348 . S
C805 C806 1.442 . S
C805 H832 0.930 . S
C806 C805 1.442 . S
C806 C807 1.381 . S
C806 H833 0.931 . S
C807 C806 1.381 . S
C807 C808 1.321 . S
C808 C807 1.321 . S
C808 C809 1.403 . S
C808 H834 0.934 . S
C809 C804 1.413 . S
C809 C808 1.403 . S
C809 H835 0.930 . S
C810 O824 1.275 . S
C810 O825 1.256 . S
C811 O826 1.259 . S
C811 O827 1.268 . S
C812 Ho801 2.811 . S
C812 C813 1.488 . S
C812 O828 1.215 . S
C812 O829 1.289 . S
C813 C812 1.488 . S
C813 C814 1.348 . S
C813 C818 1.413 . S
C814 C813 1.348 . S
C814 C815 1.442 . S
C814 H836 0.930 . S
C815 C814 1.442 . S
C815 C816 1.381 . S
C815 H837 0.931 . S
C816 C815 1.381 . S
C816 C817 1.321 . S
C817 C816 1.321 . S
C817 C818 1.403 . S
C817 H838 0.934 . S
C818 C813 1.413 . S
C818 C817 1.403 . S
C818 H839 0.930 . S
C819 O830 1.275 . S
C819 O831 1.256 . S
O820 Ho800 2.322 . S
O820 C802 1.259 . S
O821 Ho801 2.346 . S
O821 C802 1.268 . S
O822 Ho800 2.378 . S
O822 C803 1.215 . S
O823 Ho800 2.524 . S
O823 C803 1.289 . S
O824 Ho800 2.381 . S
O824 C810 1.275 . S
O825 Ho800 2.669 . S
O825 Ho801 2.305 . S
O825 C810 1.256 . S
O826 Ho801 2.322 . S
O826 C811 1.259 . S
O827 Ho800 2.346 . S
O827 C811 1.268 . S
O828 Ho801 2.378 . S
O828 C812 1.215 . S
O829 Ho801 2.524 . S
O829 C812 1.289 . S
O830 Ho801 2.381 . S
O830 C819 1.275 . S
O831 Ho800 2.305 . S
O831 Ho801 2.669 . S
O831 C819 1.256 . S
H832 C805 0.930 . S
H833 C806 0.931 . S
H834 C808 0.934 . S
H835 C809 0.930 . S
H836 C814 0.930 . S
H837 C815 0.931 . S
H838 C817 0.934 . S
H839 C818 0.930 . S
Ho840 C843 2.811 1_556 S
Ho840 O860 2.322 1_556 S
Ho840 O862 2.378 1_556 S
Ho840 O863 2.524 1_556 S
Ho840 O864 2.381 . S
Ho840 O865 2.669 . S
Ho840 O867 2.346 . S
Ho840 O871 2.305 . S
Ho841 C852 2.811 . S
Ho841 O861 2.346 1_556 S
Ho841 O865 2.305 . S
Ho841 O866 2.322 . S
Ho841 O868 2.378 . S
Ho841 O869 2.524 . S
Ho841 O870 2.381 . S
Ho841 O871 2.669 . S
C842 O860 1.259 . S
C842 O861 1.268 . S
C843 Ho840 2.811 1_554 S
C843 C844 1.488 . S
C843 O862 1.215 . S
C843 O863 1.289 . S
C844 C843 1.488 . S
C844 C845 1.348 . S
C844 C849 1.413 . S
C845 C844 1.348 . S
C845 C846 1.442 . S
C845 H872 0.930 . S
C846 C845 1.442 . S
C846 C847 1.381 . S
C846 H873 0.931 . S
C847 C846 1.381 . S
C847 C848 1.321 . S
C848 C847 1.321 . S
C848 C849 1.403 . S
C848 H874 0.934 . S
C849 C844 1.413 . S
C849 C848 1.403 . S
C849 H875 0.930 . S
C850 O864 1.275 . S
C850 O865 1.256 . S
C851 O866 1.259 . S
C851 O867 1.268 . S
C852 Ho841 2.811 . S
C852 C853 1.488 . S
C852 O868 1.215 . S
C852 O869 1.289 . S
C853 C852 1.488 . S
C853 C854 1.348 . S
C853 C858 1.413 . S
C854 C853 1.348 . S
C854 C855 1.442 . S
C854 H876 0.930 . S
C855 C854 1.442 . S
C855 C856 1.381 . S
C855 H877 0.931 . S
C856 C855 1.381 . S
C856 C857 1.321 . S
C857 C856 1.321 . S
C857 C858 1.403 . S
C857 H878 0.934 . S
C858 C853 1.413 . S
C858 C857 1.403 . S
C858 H879 0.930 . S
C859 O870 1.275 1_554 S
C859 O871 1.256 1_554 S
O860 Ho840 2.322 1_554 S
O860 C842 1.259 . S
O861 Ho841 2.346 1_554 S
O861 C842 1.268 . S
O862 Ho840 2.378 1_554 S
O862 C843 1.215 . S
O863 Ho840 2.524 1_554 S
O863 C843 1.289 . S
O864 Ho840 2.381 . S
O864 C850 1.275 . S
O865 Ho840 2.669 . S
O865 Ho841 2.305 . S
O865 C850 1.256 . S
O866 Ho841 2.322 . S
O866 C851 1.259 . S
O867 Ho840 2.346 . S
O867 C851 1.268 . S
O868 Ho841 2.378 . S
O868 C852 1.215 . S
O869 Ho841 2.524 . S
O869 C852 1.289 . S
O870 Ho841 2.381 . S
O870 C859 1.275 1_556 S
O871 Ho840 2.305 . S
O871 Ho841 2.669 . S
O871 C859 1.256 1_556 S
H872 C845 0.930 . S
H873 C846 0.931 . S
H874 C848 0.934 . S
H875 C849 0.930 . S
H876 C854 0.930 . S
H877 C855 0.931 . S
H878 C857 0.934 . S
H879 C858 0.930 . S
Ho880 C883 2.811 . S
Ho880 O900 2.322 . S
Ho880 O902 2.378 . S
Ho880 O903 2.524 . S
Ho880 O904 2.381 . S
Ho880 O905 2.669 . S
Ho880 O907 2.346 . S
Ho880 O911 2.305 . S
Ho881 C892 2.811 . S
Ho881 O901 2.346 . S
Ho881 O905 2.305 . S
Ho881 O906 2.322 . S
Ho881 O908 2.378 . S
Ho881 O909 2.524 . S
Ho881 O910 2.381 . S
Ho881 O911 2.669 . S
C882 O900 1.259 . S
C882 O901 1.268 . S
C883 Ho880 2.811 . S
C883 C884 1.488 . S
C883 O902 1.215 . S
C883 O903 1.289 . S
C884 C883 1.488 . S
C884 C885 1.348 . S
C884 C889 1.413 . S
C885 C884 1.348 . S
C885 C886 1.442 . S
C885 H912 0.930 . S
C886 C885 1.442 . S
C886 C887 1.381 . S
C886 H913 0.931 . S
C887 C886 1.381 . S
C887 C888 1.321 . S
C888 C887 1.321 . S
C888 C889 1.403 . S
C888 H914 0.934 . S
C889 C884 1.413 . S
C889 C888 1.403 . S
C889 H915 0.930 . S
C890 O904 1.275 . S
C890 O905 1.256 . S
C891 O906 1.259 . S
C891 O907 1.268 . S
C892 Ho881 2.811 . S
C892 C893 1.488 . S
C892 O908 1.215 . S
C892 O909 1.289 . S
C893 C892 1.488 . S
C893 C894 1.348 . S
C893 C898 1.413 . S
C894 C893 1.348 . S
C894 C895 1.442 . S
C894 H916 0.930 . S
C895 C894 1.442 . S
C895 C896 1.381 1_655 S
C895 H917 0.931 . S
C896 C895 1.381 1_455 S
C896 C897 1.321 . S
C897 C896 1.321 . S
C897 C898 1.403 1_455 S
C897 H918 0.934 . S
C898 C893 1.413 . S
C898 C897 1.403 1_655 S
C898 H919 0.930 . S
C899 O910 1.275 . S
C899 O911 1.256 . S
O900 Ho880 2.322 . S
O900 C882 1.259 . S
O901 Ho881 2.346 . S
O901 C882 1.268 . S
O902 Ho880 2.378 . S
O902 C883 1.215 . S
O903 Ho880 2.524 . S
O903 C883 1.289 . S
O904 Ho880 2.381 . S
O904 C890 1.275 . S
O905 Ho880 2.669 . S
O905 Ho881 2.305 . S
O905 C890 1.256 . S
O906 Ho881 2.322 . S
O906 C891 1.259 . S
O907 Ho880 2.346 . S
O907 C891 1.268 . S
O908 Ho881 2.378 . S
O908 C892 1.215 . S
O909 Ho881 2.524 . S
O909 C892 1.289 . S
O910 Ho881 2.381 . S
O910 C899 1.275 . S
O911 Ho880 2.305 . S
O911 Ho881 2.669 . S
O911 C899 1.256 . S
H912 C885 0.930 . S
H913 C886 0.931 . S
H914 C888 0.934 . S
H915 C889 0.930 . S
H916 C894 0.930 . S
H917 C895 0.931 . S
H918 C897 0.934 . S
H919 C898 0.930 . S
Ho920 C923 2.811 . S
Ho920 O940 2.322 . S
Ho920 O942 2.378 . S
Ho920 O943 2.524 . S
Ho920 O944 2.381 . S
Ho920 O945 2.669 . S
Ho920 O947 2.346 . S
Ho920 O951 2.305 . S
Ho921 C932 2.811 . S
Ho921 O941 2.346 . S
Ho921 O945 2.305 . S
Ho921 O946 2.322 . S
Ho921 O948 2.378 . S
Ho921 O949 2.524 . S
Ho921 O950 2.381 . S
Ho921 O951 2.669 . S
C922 O940 1.259 . S
C922 O941 1.268 . S
C923 Ho920 2.811 . S
C923 C924 1.488 . S
C923 O942 1.215 . S
C923 O943 1.289 . S
C924 C923 1.488 . S
C924 C925 1.348 . S
C924 C929 1.413 . S
C925 C924 1.348 . S
C925 C926 1.442 . S
C925 H952 0.930 . S
C926 C925 1.442 . S
C926 C927 1.381 . S
C926 H953 0.931 . S
C927 C926 1.381 . S
C927 C928 1.321 . S
C928 C927 1.321 . S
C928 C929 1.403 . S
C928 H954 0.934 . S
C929 C924 1.413 . S
C929 C928 1.403 . S
C929 H955 0.930 . S
C930 O944 1.275 . S
C930 O945 1.256 . S
C931 O946 1.259 . S
C931 O947 1.268 . S
C932 Ho921 2.811 . S
C932 C933 1.488 . S
C932 O948 1.215 . S
C932 O949 1.289 . S
C933 C932 1.488 . S
C933 C934 1.348 . S
C933 C938 1.413 . S
C934 C933 1.348 . S
C934 C935 1.442 . S
C934 H956 0.930 . S
C935 C934 1.442 . S
C935 C936 1.381 . S
C935 H957 0.931 . S
C936 C935 1.381 . S
C936 C937 1.321 . S
C937 C936 1.321 . S
C937 C938 1.403 . S
C937 H958 0.934 . S
C938 C933 1.413 . S
C938 C937 1.403 . S
C938 H959 0.930 . S
C939 O950 1.275 . S
C939 O951 1.256 . S
O940 Ho920 2.322 . S
O940 C922 1.259 . S
O941 Ho921 2.346 . S
O941 C922 1.268 . S
O942 Ho920 2.378 . S
O942 C923 1.215 . S
O943 Ho920 2.524 . S
O943 C923 1.289 . S
O944 Ho920 2.381 . S
O944 C930 1.275 . S
O945 Ho920 2.669 . S
O945 Ho921 2.305 . S
O945 C930 1.256 . S
O946 Ho921 2.322 . S
O946 C931 1.259 . S
O947 Ho920 2.346 . S
O947 C931 1.268 . S
O948 Ho921 2.378 . S
O948 C932 1.215 . S
O949 Ho921 2.524 . S
O949 C932 1.289 . S
O950 Ho921 2.381 . S
O950 C939 1.275 . S
O951 Ho920 2.305 . S
O951 Ho921 2.669 . S
O951 C939 1.256 . S
H952 C925 0.930 . S
H953 C926 0.931 . S
H954 C928 0.934 . S
H955 C929 0.930 . S
H956 C934 0.930 . S
H957 C935 0.931 . S
H958 C937 0.934 . S
H959 C938 0.930 . S
Ho960 C963 2.811 . S
Ho960 O980 2.322 . S
Ho960 O982 2.378 . S
Ho960 O983 2.524 . S
Ho960 O984 2.381 . S
Ho960 O985 2.669 . S
Ho960 O987 2.346 . S
Ho960 O991 2.305 . S
Ho961 C972 2.811 . S
Ho961 O981 2.346 . S
Ho961 O985 2.305 . S
Ho961 O986 2.322 . S
Ho961 O988 2.378 . S
Ho961 O989 2.524 . S
Ho961 O990 2.381 . S
Ho961 O991 2.669 . S
C962 O980 1.259 . S
C962 O981 1.268 . S
C963 Ho960 2.811 . S
C963 C964 1.488 . S
C963 O982 1.215 . S
C963 O983 1.289 . S
C964 C963 1.488 . S
C964 C965 1.348 . S
C964 C969 1.413 . S
C965 C964 1.348 . S
C965 C966 1.442 . S
C965 H992 0.930 . S
C966 C965 1.442 . S
C966 C967 1.381 . S
C966 H993 0.931 . S
C967 C966 1.381 . S
C967 C968 1.321 . S
C968 C967 1.321 . S
C968 C969 1.403 . S
C968 H994 0.934 . S
C969 C964 1.413 . S
C969 C968 1.403 . S
C969 H995 0.930 . S
C970 O984 1.275 . S
C970 O985 1.256 . S
C971 O986 1.259 . S
C971 O987 1.268 . S
C972 Ho961 2.811 . S
C972 C973 1.488 . S
C972 O988 1.215 . S
C972 O989 1.289 . S
C973 C972 1.488 . S
C973 C974 1.348 . S
C973 C978 1.413 . S
C974 C973 1.348 . S
C974 C975 1.442 . S
C974 H996 0.930 . S
C975 C974 1.442 . S
C975 C976 1.381 . S
C975 H997 0.931 . S
C976 C975 1.381 . S
C976 C977 1.321 . S
C977 C976 1.321 . S
C977 C978 1.403 . S
C977 H998 0.934 . S
C978 C973 1.413 . S
C978 C977 1.403 . S
C978 H999 0.930 . S
C979 O990 1.275 . S
C979 O991 1.256 . S
O980 Ho960 2.322 . S
O980 C962 1.259 . S
O981 Ho961 2.346 . S
O981 C962 1.268 . S
O982 Ho960 2.378 . S
O982 C963 1.215 . S
O983 Ho960 2.524 . S
O983 C963 1.289 . S
O984 Ho960 2.381 . S
O984 C970 1.275 . S
O985 Ho960 2.669 . S
O985 Ho961 2.305 . S
O985 C970 1.256 . S
O986 Ho961 2.322 . S
O986 C971 1.259 . S
O987 Ho960 2.346 . S
O987 C971 1.268 . S
O988 Ho961 2.378 . S
O988 C972 1.215 . S
O989 Ho961 2.524 . S
O989 C972 1.289 . S
O990 Ho961 2.381 . S
O990 C979 1.275 . S
O991 Ho960 2.305 . S
O991 Ho961 2.669 . S
O991 C979 1.256 . S
H992 C965 0.930 . S
H993 C966 0.931 . S
H994 C968 0.934 . S
H995 C969 0.930 . S
H996 C974 0.930 . S
H997 C975 0.931 . S
H998 C977 0.934 . S
H999 C978 0.930 . S
Ho1000 C1003 2.811 . S
Ho1000 O1020 2.322 . S
Ho1000 O1022 2.378 . S
Ho1000 O1023 2.524 . S
Ho1000 O1024 2.381 . S
Ho1000 O1025 2.669 . S
Ho1000 O1027 2.346 1_556 S
Ho1000 O1031 2.305 . S
Ho1001 C1012 2.811 1_556 S
Ho1001 O1021 2.346 . S
Ho1001 O1025 2.305 . S
Ho1001 O1026 2.322 1_556 S
Ho1001 O1028 2.378 1_556 S
Ho1001 O1029 2.524 1_556 S
Ho1001 O1030 2.381 . S
Ho1001 O1031 2.669 . S
C1002 O1020 1.259 . S
C1002 O1021 1.268 . S
C1003 Ho1000 2.811 . S
C1003 C1004 1.488 . S
C1003 O1022 1.215 . S
C1003 O1023 1.289 . S
C1004 C1003 1.488 . S
C1004 C1005 1.348 . S
C1004 C1009 1.413 . S
C1005 C1004 1.348 . S
C1005 C1006 1.442 . S
C1005 H1032 0.930 . S
C1006 C1005 1.442 . S
C1006 C1007 1.381 . S
C1006 H1033 0.931 . S
C1007 C1006 1.381 . S
C1007 C1008 1.321 . S
C1008 C1007 1.321 . S
C1008 C1009 1.403 . S
C1008 H1034 0.934 . S
C1009 C1004 1.413 . S
C1009 C1008 1.403 . S
C1009 H1035 0.930 . S
C1010 O1024 1.275 1_554 S
C1010 O1025 1.256 1_554 S
C1011 O1026 1.259 . S
C1011 O1027 1.268 . S
C1012 Ho1001 2.811 1_554 S
C1012 C1013 1.488 . S
C1012 O1028 1.215 . S
C1012 O1029 1.289 . S
C1013 C1012 1.488 . S
C1013 C1014 1.348 . S
C1013 C1018 1.413 . S
C1014 C1013 1.348 . S
C1014 C1015 1.442 . S
C1014 H1036 0.930 . S
C1015 C1014 1.442 . S
C1015 C1016 1.381 . S
C1015 H1037 0.931 . S
C1016 C1015 1.381 . S
C1016 C1017 1.321 . S
C1017 C1016 1.321 . S
C1017 C1018 1.403 . S
C1017 H1038 0.934 . S
C1018 C1013 1.413 . S
C1018 C1017 1.403 . S
C1018 H1039 0.930 . S
C1019 O1030 1.275 . S
C1019 O1031 1.256 . S
O1020 Ho1000 2.322 . S
O1020 C1002 1.259 . S
O1021 Ho1001 2.346 . S
O1021 C1002 1.268 . S
O1022 Ho1000 2.378 . S
O1022 C1003 1.215 . S
O1023 Ho1000 2.524 . S
O1023 C1003 1.289 . S
O1024 Ho1000 2.381 . S
O1024 C1010 1.275 1_556 S
O1025 Ho1000 2.669 . S
O1025 Ho1001 2.305 . S
O1025 C1010 1.256 1_556 S
O1026 Ho1001 2.322 1_554 S
O1026 C1011 1.259 . S
O1027 Ho1000 2.346 1_554 S
O1027 C1011 1.268 . S
O1028 Ho1001 2.378 1_554 S
O1028 C1012 1.215 . S
O1029 Ho1001 2.524 1_554 S
O1029 C1012 1.289 . S
O1030 Ho1001 2.381 . S
O1030 C1019 1.275 . S
O1031 Ho1000 2.305 . S
O1031 Ho1001 2.669 . S
O1031 C1019 1.256 . S
H1032 C1005 0.930 . S
H1033 C1006 0.931 . S
H1034 C1008 0.934 . S
H1035 C1009 0.930 . S
H1036 C1014 0.930 . S
H1037 C1015 0.931 . S
H1038 C1017 0.934 . S
H1039 C1018 0.930 . S
Ho1040 C1043 2.811 . S
Ho1040 O1060 2.322 . S
Ho1040 O1062 2.378 . S
Ho1040 O1063 2.524 . S
Ho1040 O1064 2.381 . S
Ho1040 O1065 2.669 . S
Ho1040 O1067 2.346 . S
Ho1040 O1071 2.305 . S
Ho1041 C1052 2.811 . S
Ho1041 O1061 2.346 . S
Ho1041 O1065 2.305 . S
Ho1041 O1066 2.322 . S
Ho1041 O1068 2.378 . S
Ho1041 O1069 2.524 . S
Ho1041 O1070 2.381 . S
Ho1041 O1071 2.669 . S
C1042 O1060 1.259 . S
C1042 O1061 1.268 . S
C1043 Ho1040 2.811 . S
C1043 C1044 1.488 . S
C1043 O1062 1.215 . S
C1043 O1063 1.289 . S
C1044 C1043 1.488 . S
C1044 C1045 1.348 . S
C1044 C1049 1.413 . S
C1045 C1044 1.348 . S
C1045 C1046 1.442 . S
C1045 H1072 0.930 . S
C1046 C1045 1.442 . S
C1046 C1047 1.381 1_455 S
C1046 H1073 0.931 . S
C1047 C1046 1.381 1_655 S
C1047 C1048 1.321 . S
C1048 C1047 1.321 . S
C1048 C1049 1.403 1_655 S
C1048 H1074 0.934 . S
C1049 C1044 1.413 . S
C1049 C1048 1.403 1_455 S
C1049 H1075 0.930 . S
C1050 O1064 1.275 . S
C1050 O1065 1.256 . S
C1051 O1066 1.259 . S
C1051 O1067 1.268 . S
C1052 Ho1041 2.811 . S
C1052 C1053 1.488 . S
C1052 O1068 1.215 . S
C1052 O1069 1.289 . S
C1053 C1052 1.488 . S
C1053 C1054 1.348 . S
C1053 C1058 1.413 . S
C1054 C1053 1.348 . S
C1054 C1055 1.442 . S
C1054 H1076 0.930 . S
C1055 C1054 1.442 . S
C1055 C1056 1.381 . S
C1055 H1077 0.931 . S
C1056 C1055 1.381 . S
C1056 C1057 1.321 . S
C1057 C1056 1.321 . S
C1057 C1058 1.403 . S
C1057 H1078 0.934 . S
C1058 C1053 1.413 . S
C1058 C1057 1.403 . S
C1058 H1079 0.930 . S
C1059 O1070 1.275 . S
C1059 O1071 1.256 . S
O1060 Ho1040 2.322 . S
O1060 C1042 1.259 . S
O1061 Ho1041 2.346 . S
O1061 C1042 1.268 . S
O1062 Ho1040 2.378 . S
O1062 C1043 1.215 . S
O1063 Ho1040 2.524 . S
O1063 C1043 1.289 . S
O1064 Ho1040 2.381 . S
O1064 C1050 1.275 . S
O1065 Ho1040 2.669 . S
O1065 Ho1041 2.305 . S
O1065 C1050 1.256 . S
O1066 Ho1041 2.322 . S
O1066 C1051 1.259 . S
O1067 Ho1040 2.346 . S
O1067 C1051 1.268 . S
O1068 Ho1041 2.378 . S
O1068 C1052 1.215 . S
O1069 Ho1041 2.524 . S
O1069 C1052 1.289 . S
O1070 Ho1041 2.381 . S
O1070 C1059 1.275 . S
O1071 Ho1040 2.305 . S
O1071 Ho1041 2.669 . S
O1071 C1059 1.256 . S
H1072 C1045 0.930 . S
H1073 C1046 0.931 . S
H1074 C1048 0.934 . S
H1075 C1049 0.930 . S
H1076 C1054 0.930 . S
H1077 C1055 0.931 . S
H1078 C1057 0.934 . S
H1079 C1058 0.930 . S
Ho1080 C1083 2.811 . S
Ho1080 O1100 2.322 . S
Ho1080 O1102 2.378 . S
Ho1080 O1103 2.524 . S
Ho1080 O1104 2.381 . S
Ho1080 O1105 2.669 . S
Ho1080 O1107 2.346 . S
Ho1080 O1111 2.305 . S
Ho1081 C1092 2.811 . S
Ho1081 O1101 2.346 . S
Ho1081 O1105 2.305 . S
Ho1081 O1106 2.322 . S
Ho1081 O1108 2.378 . S
Ho1081 O1109 2.524 . S
Ho1081 O1110 2.381 . S
Ho1081 O1111 2.669 . S
C1082 O1100 1.259 . S
C1082 O1101 1.268 . S
C1083 Ho1080 2.811 . S
C1083 C1084 1.488 . S
C1083 O1102 1.215 . S
C1083 O1103 1.289 . S
C1084 C1083 1.488 . S
C1084 C1085 1.348 . S
C1084 C1089 1.413 . S
C1085 C1084 1.348 . S
C1085 C1086 1.442 . S
C1085 H1112 0.930 . S
C1086 C1085 1.442 . S
C1086 C1087 1.381 . S
C1086 H1113 0.931 . S
C1087 C1086 1.381 . S
C1087 C1088 1.321 . S
C1088 C1087 1.321 . S
C1088 C1089 1.403 . S
C1088 H1114 0.934 . S
C1089 C1084 1.413 . S
C1089 C1088 1.403 . S
C1089 H1115 0.930 . S
C1090 O1104 1.275 . S
C1090 O1105 1.256 . S
C1091 O1106 1.259 . S
C1091 O1107 1.268 . S
C1092 Ho1081 2.811 . S
C1092 C1093 1.488 . S
C1092 O1108 1.215 . S
C1092 O1109 1.289 . S
C1093 C1092 1.488 . S
C1093 C1094 1.348 . S
C1093 C1098 1.413 . S
C1094 C1093 1.348 . S
C1094 C1095 1.442 . S
C1094 H1116 0.930 . S
C1095 C1094 1.442 . S
C1095 C1096 1.381 . S
C1095 H1117 0.931 . S
C1096 C1095 1.381 . S
C1096 C1097 1.321 . S
C1097 C1096 1.321 . S
C1097 C1098 1.403 . S
C1097 H1118 0.934 . S
C1098 C1093 1.413 . S
C1098 C1097 1.403 . S
C1098 H1119 0.930 . S
C1099 O1110 1.275 . S
C1099 O1111 1.256 . S
O1100 Ho1080 2.322 . S
O1100 C1082 1.259 . S
O1101 Ho1081 2.346 . S
O1101 C1082 1.268 . S
O1102 Ho1080 2.378 . S
O1102 C1083 1.215 . S
O1103 Ho1080 2.524 . S
O1103 C1083 1.289 . S
O1104 Ho1080 2.381 . S
O1104 C1090 1.275 . S
O1105 Ho1080 2.669 . S
O1105 Ho1081 2.305 . S
O1105 C1090 1.256 . S
O1106 Ho1081 2.322 . S
O1106 C1091 1.259 . S
O1107 Ho1080 2.346 . S
O1107 C1091 1.268 . S
O1108 Ho1081 2.378 . S
O1108 C1092 1.215 . S
O1109 Ho1081 2.524 . S
O1109 C1092 1.289 . S
O1110 Ho1081 2.381 . S
O1110 C1099 1.275 . S
O1111 Ho1080 2.305 . S
O1111 Ho1081 2.669 . S
O1111 C1099 1.256 . S
H1112 C1085 0.930 . S
H1113 C1086 0.931 . S
H1114 C1088 0.934 . S
H1115 C1089 0.930 . S
H1116 C1094 0.930 . S
H1117 C1095 0.931 . S
H1118 C1097 0.934 . S
H1119 C1098 0.930 . S
Ho1120 C1123 2.811 . S
Ho1120 O1140 2.322 . S
Ho1120 O1142 2.378 . S
Ho1120 O1143 2.524 . S
Ho1120 O1144 2.381 . S
Ho1120 O1145 2.669 . S
Ho1120 O1147 2.346 . S
Ho1120 O1151 2.305 . S
Ho1121 C1132 2.811 . S
Ho1121 O1141 2.346 . S
Ho1121 O1145 2.305 . S
Ho1121 O1146 2.322 . S
Ho1121 O1148 2.378 . S
Ho1121 O1149 2.524 . S
Ho1121 O1150 2.381 . S
Ho1121 O1151 2.669 . S
C1122 O1140 1.259 . S
C1122 O1141 1.268 . S
C1123 Ho1120 2.811 . S
C1123 C1124 1.488 . S
C1123 O1142 1.215 . S
C1123 O1143 1.289 . S
C1124 C1123 1.488 . S
C1124 C1125 1.348 . S
C1124 C1129 1.413 . S
C1125 C1124 1.348 . S
C1125 C1126 1.442 . S
C1125 H1152 0.930 . S
C1126 C1125 1.442 . S
C1126 C1127 1.381 . S
C1126 H1153 0.931 . S
C1127 C1126 1.381 . S
C1127 C1128 1.321 . S
C1128 C1127 1.321 . S
C1128 C1129 1.403 . S
C1128 H1154 0.934 . S
C1129 C1124 1.413 . S
C1129 C1128 1.403 . S
C1129 H1155 0.930 . S
C1130 O1144 1.275 . S
C1130 O1145 1.256 . S
C1131 O1146 1.259 . S
C1131 O1147 1.268 . S
C1132 Ho1121 2.811 . S
C1132 C1133 1.488 . S
C1132 O1148 1.215 . S
C1132 O1149 1.289 . S
C1133 C1132 1.488 . S
C1133 C1134 1.348 . S
C1133 C1138 1.413 . S
C1134 C1133 1.348 . S
C1134 C1135 1.442 . S
C1134 H1156 0.930 . S
C1135 C1134 1.442 . S
C1135 C1136 1.381 . S
C1135 H1157 0.931 . S
C1136 C1135 1.381 . S
C1136 C1137 1.321 . S
C1137 C1136 1.321 . S
C1137 C1138 1.403 . S
C1137 H1158 0.934 . S
C1138 C1133 1.413 . S
C1138 C1137 1.403 . S
C1138 H1159 0.930 . S
C1139 O1150 1.275 . S
C1139 O1151 1.256 . S
O1140 Ho1120 2.322 . S
O1140 C1122 1.259 . S
O1141 Ho1121 2.346 . S
O1141 C1122 1.268 . S
O1142 Ho1120 2.378 . S
O1142 C1123 1.215 . S
O1143 Ho1120 2.524 . S
O1143 C1123 1.289 . S
O1144 Ho1120 2.381 . S
O1144 C1130 1.275 . S
O1145 Ho1120 2.669 . S
O1145 Ho1121 2.305 . S
O1145 C1130 1.256 . S
O1146 Ho1121 2.322 . S
O1146 C1131 1.259 . S
O1147 Ho1120 2.346 . S
O1147 C1131 1.268 . S
O1148 Ho1121 2.378 . S
O1148 C1132 1.215 . S
O1149 Ho1121 2.524 . S
O1149 C1132 1.289 . S
O1150 Ho1121 2.381 . S
O1150 C1139 1.275 . S
O1151 Ho1120 2.305 . S
O1151 Ho1121 2.669 . S
O1151 C1139 1.256 . S
H1152 C1125 0.930 . S
H1153 C1126 0.931 . S
H1154 C1128 0.934 . S
H1155 C1129 0.930 . S
H1156 C1134 0.930 . S
H1157 C1135 0.931 . S
H1158 C1137 0.934 . S
H1159 C1138 0.930 . S
Ho1160 C1163 2.811 . S
Ho1160 O1180 2.322 . S
Ho1160 O1182 2.378 . S
Ho1160 O1183 2.524 . S
Ho1160 O1184 2.381 . S
Ho1160 O1185 2.669 . S
Ho1160 O1187 2.346 1_554 S
Ho1160 O1191 2.305 . S
Ho1161 C1172 2.811 1_554 S
Ho1161 O1181 2.346 . S
Ho1161 O1185 2.305 . S
Ho1161 O1186 2.322 1_554 S
Ho1161 O1188 2.378 1_554 S
Ho1161 O1189 2.524 1_554 S
Ho1161 O1190 2.381 . S
Ho1161 O1191 2.669 . S
C1162 O1180 1.259 . S
C1162 O1181 1.268 . S
C1163 Ho1160 2.811 . S
C1163 C1164 1.488 . S
C1163 O1182 1.215 . S
C1163 O1183 1.289 . S
C1164 C1163 1.488 . S
C1164 C1165 1.348 . S
C1164 C1169 1.413 . S
C1165 C1164 1.348 . S
C1165 C1166 1.442 . S
C1165 H1192 0.930 . S
C1166 C1165 1.442 . S
C1166 C1167 1.381 . S
C1166 H1193 0.931 . S
C1167 C1166 1.381 . S
C1167 C1168 1.321 . S
C1168 C1167 1.321 . S
C1168 C1169 1.403 . S
C1168 H1194 0.934 . S
C1169 C1164 1.413 . S
C1169 C1168 1.403 . S
C1169 H1195 0.930 . S
C1170 O1184 1.275 1_556 S
C1170 O1185 1.256 1_556 S
C1171 O1186 1.259 . S
C1171 O1187 1.268 . S
C1172 Ho1161 2.811 1_556 S
C1172 C1173 1.488 . S
C1172 O1188 1.215 . S
C1172 O1189 1.289 . S
C1173 C1172 1.488 . S
C1173 C1174 1.348 . S
C1173 C1178 1.413 . S
C1174 C1173 1.348 . S
C1174 C1175 1.442 . S
C1174 H1196 0.930 . S
C1175 C1174 1.442 . S
C1175 C1176 1.381 . S
C1175 H1197 0.931 . S
C1176 C1175 1.381 . S
C1176 C1177 1.321 . S
C1177 C1176 1.321 . S
C1177 C1178 1.403 . S
C1177 H1198 0.934 . S
C1178 C1173 1.413 . S
C1178 C1177 1.403 . S
C1178 H1199 0.930 . S
C1179 O1190 1.275 . S
C1179 O1191 1.256 . S
O1180 Ho1160 2.322 . S
O1180 C1162 1.259 . S
O1181 Ho1161 2.346 . S
O1181 C1162 1.268 . S
O1182 Ho1160 2.378 . S
O1182 C1163 1.215 . S
O1183 Ho1160 2.524 . S
O1183 C1163 1.289 . S
O1184 Ho1160 2.381 . S
O1184 C1170 1.275 1_554 S
O1185 Ho1160 2.669 . S
O1185 Ho1161 2.305 . S
O1185 C1170 1.256 1_554 S
O1186 Ho1161 2.322 1_556 S
O1186 C1171 1.259 . S
O1187 Ho1160 2.346 1_556 S
O1187 C1171 1.268 . S
O1188 Ho1161 2.378 1_556 S
O1188 C1172 1.215 . S
O1189 Ho1161 2.524 1_556 S
O1189 C1172 1.289 . S
O1190 Ho1161 2.381 . S
O1190 C1179 1.275 . S
O1191 Ho1160 2.305 . S
O1191 Ho1161 2.669 . S
O1191 C1179 1.256 . S
H1192 C1165 0.930 . S
H1193 C1166 0.931 . S
H1194 C1168 0.934 . S
H1195 C1169 0.930 . S
H1196 C1174 0.930 . S
H1197 C1175 0.931 . S
H1198 C1177 0.934 . S
H1199 C1178 0.930 . S
Ho1200 C1203 2.811 . S
Ho1200 O1220 2.322 . S
Ho1200 O1222 2.378 . S
Ho1200 O1223 2.524 . S
Ho1200 O1224 2.381 . S
Ho1200 O1225 2.669 . S
Ho1200 O1227 2.346 . S
Ho1200 O1231 2.305 . S
Ho1201 C1212 2.811 . S
Ho1201 O1221 2.346 . S
Ho1201 O1225 2.305 . S
Ho1201 O1226 2.322 . S
Ho1201 O1228 2.378 . S
Ho1201 O1229 2.524 . S
Ho1201 O1230 2.381 . S
Ho1201 O1231 2.669 . S
C1202 O1220 1.259 . S
C1202 O1221 1.268 . S
C1203 Ho1200 2.811 . S
C1203 C1204 1.488 . S
C1203 O1222 1.215 . S
C1203 O1223 1.289 . S
C1204 C1203 1.488 . S
C1204 C1205 1.348 . S
C1204 C1209 1.413 . S
C1205 C1204 1.348 . S
C1205 C1206 1.442 . S
C1205 H1232 0.930 . S
C1206 C1205 1.442 . S
C1206 C1207 1.381 1_455 S
C1206 H1233 0.931 . S
C1207 C1206 1.381 1_655 S
C1207 C1208 1.321 . S
C1208 C1207 1.321 . S
C1208 C1209 1.403 1_655 S
C1208 H1234 0.934 . S
C1209 C1204 1.413 . S
C1209 C1208 1.403 1_455 S
C1209 H1235 0.930 . S
C1210 O1224 1.275 . S
C1210 O1225 1.256 . S
C1211 O1226 1.259 . S
C1211 O1227 1.268 . S
C1212 Ho1201 2.811 . S
C1212 C1213 1.488 . S
C1212 O1228 1.215 . S
C1212 O1229 1.289 . S
C1213 C1212 1.488 . S
C1213 C1214 1.348 . S
C1213 C1218 1.413 . S
C1214 C1213 1.348 . S
C1214 C1215 1.442 . S
C1214 H1236 0.930 . S
C1215 C1214 1.442 . S
C1215 C1216 1.381 . S
C1215 H1237 0.931 . S
C1216 C1215 1.381 . S
C1216 C1217 1.321 . S
C1217 C1216 1.321 . S
C1217 C1218 1.403 . S
C1217 H1238 0.934 . S
C1218 C1213 1.413 . S
C1218 C1217 1.403 . S
C1218 H1239 0.930 . S
C1219 O1230 1.275 . S
C1219 O1231 1.256 . S
O1220 Ho1200 2.322 . S
O1220 C1202 1.259 . S
O1221 Ho1201 2.346 . S
O1221 C1202 1.268 . S
O1222 Ho1200 2.378 . S
O1222 C1203 1.215 . S
O1223 Ho1200 2.524 . S
O1223 C1203 1.289 . S
O1224 Ho1200 2.381 . S
O1224 C1210 1.275 . S
O1225 Ho1200 2.669 . S
O1225 Ho1201 2.305 . S
O1225 C1210 1.256 . S
O1226 Ho1201 2.322 . S
O1226 C1211 1.259 . S
O1227 Ho1200 2.346 . S
O1227 C1211 1.268 . S
O1228 Ho1201 2.378 . S
O1228 C1212 1.215 . S
O1229 Ho1201 2.524 . S
O1229 C1212 1.289 . S
O1230 Ho1201 2.381 . S
O1230 C1219 1.275 . S
O1231 Ho1200 2.305 . S
O1231 Ho1201 2.669 . S
O1231 C1219 1.256 . S
H1232 C1205 0.930 . S
H1233 C1206 0.931 . S
H1234 C1208 0.934 . S
H1235 C1209 0.930 . S
H1236 C1214 0.930 . S
H1237 C1215 0.931 . S
H1238 C1217 0.934 . S
H1239 C1218 0.930 . S
Ho1240 C1243 2.811 . S
Ho1240 O1260 2.322 . S
Ho1240 O1262 2.378 . S
Ho1240 O1263 2.524 . S
Ho1240 O1264 2.381 . S
Ho1240 O1265 2.669 . S
Ho1240 O1267 2.346 . S
Ho1240 O1271 2.305 . S
Ho1241 C1252 2.811 . S
Ho1241 O1261 2.346 . S
Ho1241 O1265 2.305 . S
Ho1241 O1266 2.322 . S
Ho1241 O1268 2.378 . S
Ho1241 O1269 2.524 . S
Ho1241 O1270 2.381 . S
Ho1241 O1271 2.669 . S
C1242 O1260 1.259 . S
C1242 O1261 1.268 . S
C1243 Ho1240 2.811 . S
C1243 C1244 1.488 . S
C1243 O1262 1.215 . S
C1243 O1263 1.289 . S
C1244 C1243 1.488 . S
C1244 C1245 1.348 . S
C1244 C1249 1.413 . S
C1245 C1244 1.348 . S
C1245 C1246 1.442 . S
C1245 H1272 0.930 . S
C1246 C1245 1.442 . S
C1246 C1247 1.381 . S
C1246 H1273 0.931 . S
C1247 C1246 1.381 . S
C1247 C1248 1.321 . S
C1248 C1247 1.321 . S
C1248 C1249 1.403 . S
C1248 H1274 0.934 . S
C1249 C1244 1.413 . S
C1249 C1248 1.403 . S
C1249 H1275 0.930 . S
C1250 O1264 1.275 . S
C1250 O1265 1.256 . S
C1251 O1266 1.259 . S
C1251 O1267 1.268 . S
C1252 Ho1241 2.811 . S
C1252 C1253 1.488 . S
C1252 O1268 1.215 . S
C1252 O1269 1.289 . S
C1253 C1252 1.488 . S
C1253 C1254 1.348 . S
C1253 C1258 1.413 . S
C1254 C1253 1.348 . S
C1254 C1255 1.442 . S
C1254 H1276 0.930 . S
C1255 C1254 1.442 . S
C1255 C1256 1.381 . S
C1255 H1277 0.931 . S
C1256 C1255 1.381 . S
C1256 C1257 1.321 . S
C1257 C1256 1.321 . S
C1257 C1258 1.403 . S
C1257 H1278 0.934 . S
C1258 C1253 1.413 . S
C1258 C1257 1.403 . S
C1258 H1279 0.930 . S
C1259 O1270 1.275 . S
C1259 O1271 1.256 . S
O1260 Ho1240 2.322 . S
O1260 C1242 1.259 . S
O1261 Ho1241 2.346 . S
O1261 C1242 1.268 . S
O1262 Ho1240 2.378 . S
O1262 C1243 1.215 . S
O1263 Ho1240 2.524 . S
O1263 C1243 1.289 . S
O1264 Ho1240 2.381 . S
O1264 C1250 1.275 . S
O1265 Ho1240 2.669 . S
O1265 Ho1241 2.305 . S
O1265 C1250 1.256 . S
O1266 Ho1241 2.322 . S
O1266 C1251 1.259 . S
O1267 Ho1240 2.346 . S
O1267 C1251 1.268 . S
O1268 Ho1241 2.378 . S
O1268 C1252 1.215 . S
O1269 Ho1241 2.524 . S
O1269 C1252 1.289 . S
O1270 Ho1241 2.381 . S
O1270 C1259 1.275 . S
O1271 Ho1240 2.305 . S
O1271 Ho1241 2.669 . S
O1271 C1259 1.256 . S
H1272 C1245 0.930 . S
H1273 C1246 0.931 . S
H1274 C1248 0.934 . S
H1275 C1249 0.930 . S
H1276 C1254 0.930 . S
H1277 C1255 0.931 . S
H1278 C1257 0.934 . S
H1279 C1258 0.930 . S
C1280 C1281 1.369 . S
C1280 C1282 1.419 . S
C1280 H1284 0.930 . S
C1281 C1280 1.369 . S
C1281 C1290 1.429 . S
C1282 C1280 1.419 . S
C1282 C1283 1.363 . S
C1282 H1285 0.929 . S
C1283 C1282 1.363 . S
C1283 C1289 1.428 . S
H1284 C1280 0.930 . S
H1285 C1282 0.929 . S
S1286 N1287 1.613 . S
S1286 N1288 1.610 . S
N1287 S1286 1.613 . S
N1287 C1290 1.350 . S
N1288 S1286 1.610 . S
N1288 C1289 1.351 . S
C1289 C1283 1.428 . S
C1289 N1288 1.351 . S
C1289 C1290 1.434 . S
C1290 C1281 1.429 . S
C1290 N1287 1.350 . S
C1290 C1289 1.434 . S
C1291 C1292 1.369 . S
C1291 C1293 1.419 . S
C1291 H1295 0.930 . S
C1292 C1291 1.369 . S
C1292 C1301 1.429 . S
C1293 C1291 1.419 . S
C1293 C1294 1.363 . S
C1293 H1296 0.929 . S
C1294 C1293 1.363 . S
C1294 C1300 1.428 . S
H1295 C1291 0.930 . S
H1296 C1293 0.929 . S
S1297 N1298 1.613 . S
S1297 N1299 1.610 . S
N1298 S1297 1.613 . S
N1298 C1301 1.350 . S
N1299 S1297 1.610 . S
N1299 C1300 1.351 . S
C1300 C1294 1.428 . S
C1300 N1299 1.351 . S
C1300 C1301 1.434 . S
C1301 C1292 1.429 . S
C1301 N1298 1.350 . S
C1301 C1300 1.434 . S
C1302 C1303 1.369 . S
C1302 C1304 1.419 . S
C1302 H1306 0.930 . S
C1303 C1302 1.369 . S
C1303 C1312 1.429 . S
C1304 C1302 1.419 . S
C1304 C1305 1.363 . S
C1304 H1307 0.929 . S
C1305 C1304 1.363 . S
C1305 C1311 1.428 . S
H1306 C1302 0.930 . S
H1307 C1304 0.929 . S
S1308 N1309 1.613 . S
S1308 N1310 1.610 . S
N1309 S1308 1.613 . S
N1309 C1312 1.350 . S
N1310 S1308 1.610 . S
N1310 C1311 1.351 . S
C1311 C1305 1.428 . S
C1311 N1310 1.351 . S
C1311 C1312 1.434 . S
C1312 C1303 1.429 . S
C1312 N1309 1.350 . S
C1312 C1311 1.434 . S
C1313 C1314 1.369 . S
C1313 C1315 1.419 . S
C1313 H1317 0.930 . S
C1314 C1313 1.369 . S
C1314 C1323 1.429 . S
C1315 C1313 1.419 . S
C1315 C1316 1.363 . S
C1315 H1318 0.929 . S
C1316 C1315 1.363 . S
C1316 C1322 1.428 . S
H1317 C1313 0.930 . S
H1318 C1315 0.929 . S
S1319 N1320 1.613 . S
S1319 N1321 1.610 . S
N1320 S1319 1.613 . S
N1320 C1323 1.350 . S
N1321 S1319 1.610 . S
N1321 C1322 1.351 . S
C1322 C1316 1.428 . S
C1322 N1321 1.351 . S
C1322 C1323 1.434 . S
C1323 C1314 1.429 . S
C1323 N1320 1.350 . S
C1323 C1322 1.434 . S
C1324 C1325 1.369 . S
C1324 C1326 1.419 . S
C1324 H1328 0.930 . S
C1325 C1324 1.369 . S
C1325 C1334 1.429 . S
C1326 C1324 1.419 . S
C1326 C1327 1.363 . S
C1326 H1329 0.929 . S
C1327 C1326 1.363 . S
C1327 C1333 1.428 . S
H1328 C1324 0.930 . S
H1329 C1326 0.929 . S
S1330 N1331 1.613 . S
S1330 N1332 1.610 . S
N1331 S1330 1.613 . S
N1331 C1334 1.350 . S
N1332 S1330 1.610 . S
N1332 C1333 1.351 . S
C1333 C1327 1.428 . S
C1333 N1332 1.351 . S
C1333 C1334 1.434 . S
C1334 C1325 1.429 . S
C1334 N1331 1.350 . S
C1334 C1333 1.434 . S
C1335 C1336 1.369 . S
C1335 C1337 1.419 . S
C1335 H1339 0.930 . S
C1336 C1335 1.369 . S
C1336 C1345 1.429 . S
C1337 C1335 1.419 . S
C1337 C1338 1.363 . S
C1337 H1340 0.929 . S
C1338 C1337 1.363 . S
C1338 C1344 1.428 . S
H1339 C1335 0.930 . S
H1340 C1337 0.929 . S
S1341 N1342 1.613 . S
S1341 N1343 1.610 . S
N1342 S1341 1.613 . S
N1342 C1345 1.350 . S
N1343 S1341 1.610 . S
N1343 C1344 1.351 . S
C1344 C1338 1.428 . S
C1344 N1343 1.351 . S
C1344 C1345 1.434 . S
C1345 C1336 1.429 . S
C1345 N1342 1.350 . S
C1345 C1344 1.434 . S
C1346 C1347 1.369 . S
C1346 C1348 1.419 . S
C1346 H1350 0.930 . S
C1347 C1346 1.369 . S
C1347 C1356 1.429 . S
C1348 C1346 1.419 . S
C1348 C1349 1.363 . S
C1348 H1351 0.929 . S
C1349 C1348 1.363 . S
C1349 C1355 1.428 . S
H1350 C1346 0.930 . S
H1351 C1348 0.929 . S
S1352 N1353 1.613 . S
S1352 N1354 1.610 . S
N1353 S1352 1.613 . S
N1353 C1356 1.350 . S
N1354 S1352 1.610 . S
N1354 C1355 1.351 . S
C1355 C1349 1.428 . S
C1355 N1354 1.351 . S
C1355 C1356 1.434 . S
C1356 C1347 1.429 . S
C1356 N1353 1.350 . S
C1356 C1355 1.434 . S
C1357 C1358 1.369 . S
C1357 C1359 1.419 . S
C1357 H1361 0.930 . S
C1358 C1357 1.369 . S
C1358 C1367 1.429 . S
C1359 C1357 1.419 . S
C1359 C1360 1.363 . S
C1359 H1362 0.929 . S
C1360 C1359 1.363 . S
C1360 C1366 1.428 . S
H1361 C1357 0.930 . S
H1362 C1359 0.929 . S
S1363 N1364 1.637 . S
S1363 N1365 1.608 1_565 S
N1364 S1363 1.637 . S
N1364 C1367 1.350 . S
N1365 S1363 1.608 1_545 S
N1365 C1366 1.351 1_545 S
C1366 C1360 1.428 . S
C1366 N1365 1.351 1_565 S
C1366 C1367 1.434 . S
C1367 C1358 1.429 . S
C1367 N1364 1.350 . S
C1367 C1366 1.434 . S
C1368 C1369 1.369 . S
C1368 C1370 1.419 . S
C1368 H1372 0.930 . S
C1369 C1368 1.369 . S
C1369 C1378 1.429 . S
C1370 C1368 1.419 . S
C1370 C1371 1.363 . S
C1370 H1373 0.929 . S
C1371 C1370 1.363 . S
C1371 C1377 1.428 . S
H1372 C1368 0.930 . S
H1373 C1370 0.929 . S
S1374 N1375 1.613 . S
S1374 N1376 1.610 . S
N1375 S1374 1.613 . S
N1375 C1378 1.350 . S
N1376 S1374 1.610 . S
N1376 C1377 1.351 . S
C1377 C1371 1.428 . S
C1377 N1376 1.351 . S
C1377 C1378 1.434 . S
C1378 C1369 1.429 . S
C1378 N1375 1.350 . S
C1378 C1377 1.434 . S
C1379 C1380 1.369 . S
C1379 C1381 1.419 . S
C1379 H1383 0.930 . S
C1380 C1379 1.369 . S
C1380 C1389 1.429 . S
C1381 C1379 1.419 . S
C1381 C1382 1.363 . S
C1381 H1384 0.929 . S
C1382 C1381 1.363 . S
C1382 C1388 1.428 . S
H1383 C1379 0.930 . S
H1384 C1381 0.929 . S
S1385 N1386 1.613 . S
S1385 N1387 1.610 . S
N1386 S1385 1.613 . S
N1386 C1389 1.350 . S
N1387 S1385 1.610 . S
N1387 C1388 1.351 . S
C1388 C1382 1.428 . S
C1388 N1387 1.351 . S
C1388 C1389 1.434 . S
C1389 C1380 1.429 . S
C1389 N1386 1.350 . S
C1389 C1388 1.434 . S
C1390 C1391 1.369 . S
C1390 C1392 1.419 . S
C1390 H1394 0.930 . S
C1391 C1390 1.369 . S
C1391 C1400 1.429 . S
C1392 C1390 1.419 . S
C1392 C1393 1.363 . S
C1392 H1395 0.929 . S
C1393 C1392 1.363 . S
C1393 C1399 1.428 . S
H1394 C1390 0.930 . S
H1395 C1392 0.929 . S
S1396 N1397 1.613 . S
S1396 N1398 1.610 . S
N1397 S1396 1.613 . S
N1397 C1400 1.350 . S
N1398 S1396 1.610 . S
N1398 C1399 1.351 . S
C1399 C1393 1.428 . S
C1399 N1398 1.351 . S
C1399 C1400 1.434 . S
C1400 C1391 1.429 . S
C1400 N1397 1.350 . S
C1400 C1399 1.434 . S
C1401 C1402 1.369 . S
C1401 C1403 1.419 . S
C1401 H1405 0.930 . S
C1402 C1401 1.369 . S
C1402 C1411 1.429 . S
C1403 C1401 1.419 . S
C1403 C1404 1.363 . S
C1403 H1406 0.929 . S
C1404 C1403 1.363 . S
C1404 C1410 1.428 . S
H1405 C1401 0.930 . S
H1406 C1403 0.929 . S
S1407 N1408 1.613 . S
S1407 N1409 1.610 . S
N1408 S1407 1.613 . S
N1408 C1411 1.350 . S
N1409 S1407 1.610 . S
N1409 C1410 1.351 . S
C1410 C1404 1.428 . S
C1410 N1409 1.351 . S
C1410 C1411 1.434 . S
C1411 C1402 1.429 . S
C1411 N1408 1.350 . S
C1411 C1410 1.434 . S
C1412 C1413 1.369 . S
C1412 C1414 1.419 . S
C1412 H1416 0.930 . S
C1413 C1412 1.369 . S
C1413 C1422 1.429 . S
C1414 C1412 1.419 . S
C1414 C1415 1.363 . S
C1414 H1417 0.929 . S
C1415 C1414 1.363 . S
C1415 C1421 1.428 . S
H1416 C1412 0.930 . S
H1417 C1414 0.929 . S
S1418 N1419 1.613 . S
S1418 N1420 1.610 . S
N1419 S1418 1.613 . S
N1419 C1422 1.350 . S
N1420 S1418 1.610 . S
N1420 C1421 1.351 . S
C1421 C1415 1.428 . S
C1421 N1420 1.351 . S
C1421 C1422 1.434 . S
C1422 C1413 1.429 . S
C1422 N1419 1.350 . S
C1422 C1421 1.434 . S
C1423 C1424 1.369 . S
C1423 C1425 1.419 . S
C1423 H1427 0.930 . S
C1424 C1423 1.369 . S
C1424 C1433 1.429 . S
C1425 C1423 1.419 . S
C1425 C1426 1.363 . S
C1425 H1428 0.929 . S
C1426 C1425 1.363 . S
C1426 C1432 1.428 . S
H1427 C1423 0.930 . S
H1428 C1425 0.929 . S
S1429 N1430 1.613 . S
S1429 N1431 1.610 . S
N1430 S1429 1.613 . S
N1430 C1433 1.350 . S
N1431 S1429 1.610 . S
N1431 C1432 1.351 . S
C1432 C1426 1.428 . S
C1432 N1431 1.351 . S
C1432 C1433 1.434 . S
C1433 C1424 1.429 . S
C1433 N1430 1.350 . S
C1433 C1432 1.434 . S
C1434 C1435 1.369 . S
C1434 C1436 1.419 . S
C1434 H1438 0.930 . S
C1435 C1434 1.369 . S
C1435 C1444 1.429 . S
C1436 C1434 1.419 . S
C1436 C1437 1.363 . S
C1436 H1439 0.929 . S
C1437 C1436 1.363 . S
C1437 C1443 1.428 . S
H1438 C1434 0.930 . S
H1439 C1436 0.929 . S
S1440 N1441 1.613 . S
S1440 N1442 1.610 . S
N1441 S1440 1.613 . S
N1441 C1444 1.350 . S
N1442 S1440 1.610 . S
N1442 C1443 1.351 . S
C1443 C1437 1.428 . S
C1443 N1442 1.351 . S
C1443 C1444 1.434 . S
C1444 C1435 1.429 . S
C1444 N1441 1.350 . S
C1444 C1443 1.434 . S
C1445 C1446 1.369 . S
C1445 C1447 1.419 . S
C1445 H1449 0.930 . S
C1446 C1445 1.369 . S
C1446 C1455 1.429 . S
C1447 C1445 1.419 . S
C1447 C1448 1.363 . S
C1447 H1450 0.929 . S
C1448 C1447 1.363 . S
C1448 C1454 1.428 . S
H1449 C1445 0.930 . S
H1450 C1447 0.929 . S
S1451 N1452 1.613 . S
S1451 N1453 1.610 . S
N1452 S1451 1.613 . S
N1452 C1455 1.350 . S
N1453 S1451 1.610 . S
N1453 C1454 1.351 . S
C1454 C1448 1.428 . S
C1454 N1453 1.351 . S
C1454 C1455 1.434 . S
C1455 C1446 1.429 . S
C1455 N1452 1.350 . S
C1455 C1454 1.434 . S
C1456 C1457 1.369 . S
C1456 C1458 1.419 . S
C1456 H1460 0.930 . S
C1457 C1456 1.369 . S
C1457 C1466 1.429 . S
C1458 C1456 1.419 . S
C1458 C1459 1.363 . S
C1458 H1461 0.929 . S
C1459 C1458 1.363 . S
C1459 C1465 1.428 . S
H1460 C1456 0.930 . S
H1461 C1458 0.929 . S
S1462 N1463 1.613 . S
S1462 N1464 1.610 . S
N1463 S1462 1.613 . S
N1463 C1466 1.350 . S
N1464 S1462 1.610 . S
N1464 C1465 1.351 . S
C1465 C1459 1.428 . S
C1465 N1464 1.351 . S
C1465 C1466 1.434 . S
C1466 C1457 1.429 . S
C1466 N1463 1.350 . S
C1466 C1465 1.434 . S
C1467 C1468 1.369 . S
C1467 C1469 1.419 . S
C1467 H1471 0.930 . S
C1468 C1467 1.369 . S
C1468 C1477 1.429 . S
C1469 C1467 1.419 . S
C1469 C1470 1.363 . S
C1469 H1472 0.929 . S
C1470 C1469 1.363 . S
C1470 C1476 1.428 . S
H1471 C1467 0.930 . S
H1472 C1469 0.929 . S
S1473 N1474 1.613 . S
S1473 N1475 1.610 . S
N1474 S1473 1.613 . S
N1474 C1477 1.350 . S
N1475 S1473 1.610 . S
N1475 C1476 1.351 . S
C1476 C1470 1.428 . S
C1476 N1475 1.351 . S
C1476 C1477 1.434 . S
C1477 C1468 1.429 . S
C1477 N1474 1.350 . S
C1477 C1476 1.434 . S
C1478 C1479 1.369 . S
C1478 C1480 1.419 . S
C1478 H1482 0.930 . S
C1479 C1478 1.369 . S
C1479 C1488 1.429 . S
C1480 C1478 1.419 . S
C1480 C1481 1.363 . S
C1480 H1483 0.929 . S
C1481 C1480 1.363 . S
C1481 C1487 1.428 . S
H1482 C1478 0.930 . S
H1483 C1480 0.929 . S
S1484 N1485 1.613 . S
S1484 N1486 1.610 . S
N1485 S1484 1.613 . S
N1485 C1488 1.350 . S
N1486 S1484 1.610 . S
N1486 C1487 1.351 . S
C1487 C1481 1.428 . S
C1487 N1486 1.351 . S
C1487 C1488 1.434 . S
C1488 C1479 1.429 . S
C1488 N1485 1.350 . S
C1488 C1487 1.434 . S
C1489 C1490 1.369 . S
C1489 C1491 1.419 . S
C1489 H1493 0.930 . S
C1490 C1489 1.369 . S
C1490 C1499 1.429 . S
C1491 C1489 1.419 . S
C1491 C1492 1.363 . S
C1491 H1494 0.929 . S
C1492 C1491 1.363 . S
C1492 C1498 1.428 . S
H1493 C1489 0.930 . S
H1494 C1491 0.929 . S
S1495 N1496 1.613 . S
S1495 N1497 1.610 . S
N1496 S1495 1.613 . S
N1496 C1499 1.350 . S
N1497 S1495 1.610 . S
N1497 C1498 1.351 . S
C1498 C1492 1.428 . S
C1498 N1497 1.351 . S
C1498 C1499 1.434 . S
C1499 C1490 1.429 . S
C1499 N1496 1.350 . S
C1499 C1498 1.434 . S
C1500 C1501 1.369 . S
C1500 C1502 1.419 . S
C1500 H1504 0.930 . S
C1501 C1500 1.369 . S
C1501 C1510 1.429 . S
C1502 C1500 1.419 . S
C1502 C1503 1.363 . S
C1502 H1505 0.929 . S
C1503 C1502 1.363 . S
C1503 C1509 1.428 . S
H1504 C1500 0.930 . S
H1505 C1502 0.929 . S
S1506 N1507 1.613 . S
S1506 N1508 1.610 . S
N1507 S1506 1.613 . S
N1507 C1510 1.350 . S
N1508 S1506 1.610 . S
N1508 C1509 1.351 . S
C1509 C1503 1.428 . S
C1509 N1508 1.351 . S
C1509 C1510 1.434 . S
C1510 C1501 1.429 . S
C1510 N1507 1.350 . S
C1510 C1509 1.434 . S
C1511 C1512 1.369 . S
C1511 C1513 1.419 . S
C1511 H1515 0.930 . S
C1512 C1511 1.369 . S
C1512 C1521 1.429 . S
C1513 C1511 1.419 . S
C1513 C1514 1.363 . S
C1513 H1516 0.929 . S
C1514 C1513 1.363 . S
C1514 C1520 1.428 . S
H1515 C1511 0.930 . S
H1516 C1513 0.929 . S
S1517 N1518 1.613 . S
S1517 N1519 1.610 . S
N1518 S1517 1.613 . S
N1518 C1521 1.350 . S
N1519 S1517 1.610 . S
N1519 C1520 1.351 . S
C1520 C1514 1.428 . S
C1520 N1519 1.351 . S
C1520 C1521 1.434 . S
C1521 C1512 1.429 . S
C1521 N1518 1.350 . S
C1521 C1520 1.434 . S
C1522 C1523 1.369 . S
C1522 C1524 1.419 . S
C1522 H1526 0.930 . S
C1523 C1522 1.369 . S
C1523 C1532 1.429 . S
C1524 C1522 1.419 . S
C1524 C1525 1.363 . S
C1524 H1527 0.929 . S
C1525 C1524 1.363 . S
C1525 C1531 1.428 . S
H1526 C1522 0.930 . S
H1527 C1524 0.929 . S
S1528 N1529 1.613 . S
S1528 N1530 1.610 . S
N1529 S1528 1.613 . S
N1529 C1532 1.350 . S
N1530 S1528 1.610 . S
N1530 C1531 1.351 . S
C1531 C1525 1.428 . S
C1531 N1530 1.351 . S
C1531 C1532 1.434 . S
C1532 C1523 1.429 . S
C1532 N1529 1.350 . S
C1532 C1531 1.434 . S
C1533 C1534 1.369 . S
C1533 C1535 1.419 . S
C1533 H1537 0.930 . S
C1534 C1533 1.369 . S
C1534 C1543 1.429 . S
C1535 C1533 1.419 . S
C1535 C1536 1.363 . S
C1535 H1538 0.929 . S
C1536 C1535 1.363 . S
C1536 C1542 1.428 . S
H1537 C1533 0.930 . S
H1538 C1535 0.929 . S
S1539 N1540 1.613 . S
S1539 N1541 1.610 . S
N1540 S1539 1.613 . S
N1540 C1543 1.350 . S
N1541 S1539 1.610 . S
N1541 C1542 1.351 . S
C1542 C1536 1.428 . S
C1542 N1541 1.351 . S
C1542 C1543 1.434 . S
C1543 C1534 1.429 . S
C1543 N1540 1.350 . S
C1543 C1542 1.434 . S
C1544 C1545 1.369 . S
C1544 C1546 1.419 . S
C1544 H1548 0.930 . S
C1545 C1544 1.369 . S
C1545 C1554 1.429 . S
C1546 C1544 1.419 . S
C1546 C1547 1.363 . S
C1546 H1549 0.929 . S
C1547 C1546 1.363 . S
C1547 C1553 1.428 . S
H1548 C1544 0.930 . S
H1549 C1546 0.929 . S
S1550 N1551 1.613 . S
S1550 N1552 1.610 . S
N1551 S1550 1.613 . S
N1551 C1554 1.350 . S
N1552 S1550 1.610 . S
N1552 C1553 1.351 . S
C1553 C1547 1.428 . S
C1553 N1552 1.351 . S
C1553 C1554 1.434 . S
C1554 C1545 1.429 . S
C1554 N1551 1.350 . S
C1554 C1553 1.434 . S
C1555 C1556 1.369 . S
C1555 C1557 1.419 . S
C1555 H1559 0.930 . S
C1556 C1555 1.369 . S
C1556 C1565 1.429 . S
C1557 C1555 1.419 . S
C1557 C1558 1.363 . S
C1557 H1560 0.929 . S
C1558 C1557 1.363 . S
C1558 C1564 1.428 . S
H1559 C1555 0.930 . S
H1560 C1557 0.929 . S
S1561 N1562 1.613 . S
S1561 N1563 1.610 . S
N1562 S1561 1.613 . S
N1562 C1565 1.350 . S
N1563 S1561 1.610 . S
N1563 C1564 1.351 . S
C1564 C1558 1.428 . S
C1564 N1563 1.351 . S
C1564 C1565 1.434 . S
C1565 C1556 1.429 . S
C1565 N1562 1.350 . S
C1565 C1564 1.434 . S
C1566 C1567 1.369 . S
C1566 C1568 1.419 . S
C1566 H1570 0.930 . S
C1567 C1566 1.369 . S
C1567 C1576 1.429 . S
C1568 C1566 1.419 . S
C1568 C1569 1.363 . S
C1568 H1571 0.929 . S
C1569 C1568 1.363 . S
C1569 C1575 1.428 . S
H1570 C1566 0.930 . S
H1571 C1568 0.929 . S
S1572 N1573 1.613 . S
S1572 N1574 1.610 . S
N1573 S1572 1.613 . S
N1573 C1576 1.350 . S
N1574 S1572 1.610 . S
N1574 C1575 1.351 . S
C1575 C1569 1.428 . S
C1575 N1574 1.351 . S
C1575 C1576 1.434 . S
C1576 C1567 1.429 . S
C1576 N1573 1.350 . S
C1576 C1575 1.434 . S
C1577 C1578 1.369 . S
C1577 C1579 1.419 . S
C1577 H1581 0.930 . S
C1578 C1577 1.369 . S
C1578 C1587 1.429 . S
C1579 C1577 1.419 . S
C1579 C1580 1.363 . S
C1579 H1582 0.929 . S
C1580 C1579 1.363 . S
C1580 C1586 1.428 . S
H1581 C1577 0.930 . S
H1582 C1579 0.929 . S
S1583 N1584 1.613 . S
S1583 N1585 1.610 . S
N1584 S1583 1.613 . S
N1584 C1587 1.350 . S
N1585 S1583 1.610 . S
N1585 C1586 1.351 . S
C1586 C1580 1.428 . S
C1586 N1585 1.351 . S
C1586 C1587 1.434 . S
C1587 C1578 1.429 . S
C1587 N1584 1.350 . S
C1587 C1586 1.434 . S
C1588 C1589 1.369 . S
C1588 C1590 1.419 . S
C1588 H1592 0.930 . S
C1589 C1588 1.369 . S
C1589 C1598 1.429 . S
C1590 C1588 1.419 . S
C1590 C1591 1.363 . S
C1590 H1593 0.929 . S
C1591 C1590 1.363 . S
C1591 C1597 1.428 . S
H1592 C1588 0.930 . S
H1593 C1590 0.929 . S
S1594 N1595 1.613 . S
S1594 N1596 1.610 . S
N1595 S1594 1.613 . S
N1595 C1598 1.350 . S
N1596 S1594 1.610 . S
N1596 C1597 1.351 . S
C1597 C1591 1.428 . S
C1597 N1596 1.351 . S
C1597 C1598 1.434 . S
C1598 C1589 1.429 . S
C1598 N1595 1.350 . S
C1598 C1597 1.434 . S
C1599 C1600 1.369 . S
C1599 C1601 1.419 . S
C1599 H1603 0.930 . S
C1600 C1599 1.369 . S
C1600 C1609 1.429 . S
C1601 C1599 1.419 . S
C1601 C1602 1.363 . S
C1601 H1604 0.929 . S
C1602 C1601 1.363 . S
C1602 C1608 1.428 . S
H1603 C1599 0.930 . S
H1604 C1601 0.929 . S
S1605 N1606 1.613 . S
S1605 N1607 1.610 . S
N1606 S1605 1.613 . S
N1606 C1609 1.350 . S
N1607 S1605 1.610 . S
N1607 C1608 1.351 . S
C1608 C1602 1.428 . S
C1608 N1607 1.351 . S
C1608 C1609 1.434 . S
C1609 C1600 1.429 . S
C1609 N1606 1.350 . S
C1609 C1608 1.434 . S
C1610 C1611 1.369 . S
C1610 C1612 1.419 . S
C1610 H1614 0.930 . S
C1611 C1610 1.369 . S
C1611 C1620 1.429 . S
C1612 C1610 1.419 . S
C1612 C1613 1.363 . S
C1612 H1615 0.929 . S
C1613 C1612 1.363 . S
C1613 C1619 1.428 . S
H1614 C1610 0.930 . S
H1615 C1612 0.929 . S
S1616 N1617 1.613 . S
S1616 N1618 1.610 . S
N1617 S1616 1.613 . S
N1617 C1620 1.350 . S
N1618 S1616 1.610 . S
N1618 C1619 1.351 . S
C1619 C1613 1.428 . S
C1619 N1618 1.351 . S
C1619 C1620 1.434 . S
C1620 C1611 1.429 . S
C1620 N1617 1.350 . S
C1620 C1619 1.434 . S
C1621 C1622 1.369 . S
C1621 C1623 1.419 . S
C1621 H1625 0.930 . S
C1622 C1621 1.369 . S
C1622 C1631 1.429 . S
C1623 C1621 1.419 . S
C1623 C1624 1.363 . S
C1623 H1626 0.929 . S
C1624 C1623 1.363 . S
C1624 C1630 1.428 . S
H1625 C1621 0.930 . S
H1626 C1623 0.929 . S
S1627 N1628 1.613 . S
S1627 N1629 1.610 . S
N1628 S1627 1.613 . S
N1628 C1631 1.350 . S
N1629 S1627 1.610 . S
N1629 C1630 1.351 . S
C1630 C1624 1.428 . S
C1630 N1629 1.351 . S
C1630 C1631 1.434 . S
C1631 C1622 1.429 . S
C1631 N1628 1.350 . S
C1631 C1630 1.434 . S
C1632 C1633 1.369 . S
C1632 C1634 1.419 . S
C1632 H1636 0.930 . S
C1633 C1632 1.369 . S
C1633 C1642 1.429 . S
C1634 C1632 1.419 . S
C1634 C1635 1.363 . S
C1634 H1637 0.929 . S
C1635 C1634 1.363 . S
C1635 C1641 1.428 . S
H1636 C1632 0.930 . S
H1637 C1634 0.929 . S
S1638 N1639 1.613 . S
S1638 N1640 1.610 . S
N1639 S1638 1.613 . S
N1639 C1642 1.350 . S
N1640 S1638 1.610 . S
N1640 C1641 1.351 . S
C1641 C1635 1.428 . S
C1641 N1640 1.351 . S
C1641 C1642 1.434 . S
C1642 C1633 1.429 . S
C1642 N1639 1.350 . S
C1642 C1641 1.434 . S
C1643 C1644 1.369 . S
C1643 C1645 1.419 . S
C1643 H1647 0.930 . S
C1644 C1643 1.369 . S
C1644 C1653 1.429 . S
C1645 C1643 1.419 . S
C1645 C1646 1.363 . S
C1645 H1648 0.929 . S
C1646 C1645 1.363 . S
C1646 C1652 1.428 . S
H1647 C1643 0.930 . S
H1648 C1645 0.929 . S
S1649 N1650 1.613 . S
S1649 N1651 1.610 . S
N1650 S1649 1.613 . S
N1650 C1653 1.350 . S
N1651 S1649 1.610 . S
N1651 C1652 1.351 . S
C1652 C1646 1.428 . S
C1652 N1651 1.351 . S
C1652 C1653 1.434 . S
C1653 C1644 1.429 . S
C1653 N1650 1.350 . S
C1653 C1652 1.434 . S
C1654 C1655 1.369 . S
C1654 C1656 1.419 . S
C1654 H1658 0.930 . S
C1655 C1654 1.369 . S
C1655 C1664 1.429 . S
C1656 C1654 1.419 . S
C1656 C1657 1.363 . S
C1656 H1659 0.929 . S
C1657 C1656 1.363 . S
C1657 C1663 1.428 . S
H1658 C1654 0.930 . S
H1659 C1656 0.929 . S
S1660 N1661 1.613 . S
S1660 N1662 1.610 . S
N1661 S1660 1.613 . S
N1661 C1664 1.350 . S
N1662 S1660 1.610 . S
N1662 C1663 1.351 . S
C1663 C1657 1.428 . S
C1663 N1662 1.351 . S
C1663 C1664 1.434 . S
C1664 C1655 1.429 . S
C1664 N1661 1.350 . S
C1664 C1663 1.434 . S
C1665 C1666 1.369 . S
C1665 C1667 1.419 . S
C1665 H1669 0.930 . S
C1666 C1665 1.369 . S
C1666 C1675 1.429 . S
C1667 C1665 1.419 . S
C1667 C1668 1.363 . S
C1667 H1670 0.929 . S
C1668 C1667 1.363 . S
C1668 C1674 1.428 . S
H1669 C1665 0.930 . S
H1670 C1667 0.929 . S
S1671 N1672 1.613 . S
S1671 N1673 1.610 . S
N1672 S1671 1.613 . S
N1672 C1675 1.350 . S
N1673 S1671 1.610 . S
N1673 C1674 1.351 . S
C1674 C1668 1.428 . S
C1674 N1673 1.351 . S
C1674 C1675 1.434 . S
C1675 C1666 1.429 . S
C1675 N1672 1.350 . S
C1675 C1674 1.434 . S
C1676 C1677 1.369 . S
C1676 C1678 1.419 . S
C1676 H1680 0.930 . S
C1677 C1676 1.369 . S
C1677 C1686 1.429 . S
C1678 C1676 1.419 . S
C1678 C1679 1.363 . S
C1678 H1681 0.929 . S
C1679 C1678 1.363 . S
C1679 C1685 1.428 . S
H1680 C1676 0.930 . S
H1681 C1678 0.929 . S
S1682 N1683 1.613 . S
S1682 N1684 1.610 . S
N1683 S1682 1.613 . S
N1683 C1686 1.350 . S
N1684 S1682 1.610 . S
N1684 C1685 1.351 . S
C1685 C1679 1.428 . S
C1685 N1684 1.351 . S
C1685 C1686 1.434 . S
C1686 C1677 1.429 . S
C1686 N1683 1.350 . S
C1686 C1685 1.434 . S
C1687 C1688 1.369 . S
C1687 C1689 1.419 . S
C1687 H1691 0.930 . S
C1688 C1687 1.369 . S
C1688 C1697 1.429 . S
C1689 C1687 1.419 . S
C1689 C1690 1.363 . S
C1689 H1692 0.929 . S
C1690 C1689 1.363 . S
C1690 C1696 1.428 . S
H1691 C1687 0.930 . S
H1692 C1689 0.929 . S
S1693 N1694 1.613 . S
S1693 N1695 1.610 . S
N1694 S1693 1.613 . S
N1694 C1697 1.350 . S
N1695 S1693 1.610 . S
N1695 C1696 1.351 . S
C1696 C1690 1.428 . S
C1696 N1695 1.351 . S
C1696 C1697 1.434 . S
C1697 C1688 1.429 . S
C1697 N1694 1.350 . S
C1697 C1696 1.434 . S
C1698 C1699 1.369 . S
C1698 C1700 1.419 . S
C1698 H1702 0.930 . S
C1699 C1698 1.369 . S
C1699 C1708 1.429 . S
C1700 C1698 1.419 . S
C1700 C1701 1.363 . S
C1700 H1703 0.929 . S
C1701 C1700 1.363 . S
C1701 C1707 1.428 . S
H1702 C1698 0.930 . S
H1703 C1700 0.929 . S
S1704 N1705 1.613 . S
S1704 N1706 1.610 . S
N1705 S1704 1.613 . S
N1705 C1708 1.350 . S
N1706 S1704 1.610 . S
N1706 C1707 1.351 . S
C1707 C1701 1.428 . S
C1707 N1706 1.351 . S
C1707 C1708 1.434 . S
C1708 C1699 1.429 . S
C1708 N1705 1.350 . S
C1708 C1707 1.434 . S
C1709 C1710 1.369 . S
C1709 C1711 1.419 . S
C1709 H1713 0.930 . S
C1710 C1709 1.369 . S
C1710 C1719 1.429 . S
C1711 C1709 1.419 . S
C1711 C1712 1.363 . S
C1711 H1714 0.929 . S
C1712 C1711 1.363 . S
C1712 C1718 1.428 . S
H1713 C1709 0.930 . S
H1714 C1711 0.929 . S
S1715 N1716 1.613 . S
S1715 N1717 1.610 . S
N1716 S1715 1.613 . S
N1716 C1719 1.350 . S
N1717 S1715 1.610 . S
N1717 C1718 1.351 . S
C1718 C1712 1.428 . S
C1718 N1717 1.351 . S
C1718 C1719 1.434 . S
C1719 C1710 1.429 . S
C1719 N1716 1.350 . S
C1719 C1718 1.434 . S
C1720 C1721 1.369 . S
C1720 C1722 1.419 . S
C1720 H1724 0.930 . S
C1721 C1720 1.369 . S
C1721 C1730 1.429 . S
C1722 C1720 1.419 . S
C1722 C1723 1.363 . S
C1722 H1725 0.929 . S
C1723 C1722 1.363 . S
C1723 C1729 1.428 . S
H1724 C1720 0.930 . S
H1725 C1722 0.929 . S
S1726 N1727 1.613 . S
S1726 N1728 1.610 . S
N1727 S1726 1.613 . S
N1727 C1730 1.350 . S
N1728 S1726 1.610 . S
N1728 C1729 1.351 . S
C1729 C1723 1.428 . S
C1729 N1728 1.351 . S
C1729 C1730 1.434 . S
C1730 C1721 1.429 . S
C1730 N1727 1.350 . S
C1730 C1729 1.434 . S
C1731 C1732 1.369 . S
C1731 C1733 1.419 . S
C1731 H1735 0.930 . S
C1732 C1731 1.369 . S
C1732 C1741 1.429 . S
C1733 C1731 1.419 . S
C1733 C1734 1.363 . S
C1733 H1736 0.929 . S
C1734 C1733 1.363 . S
C1734 C1740 1.428 . S
H1735 C1731 0.930 . S
H1736 C1733 0.929 . S
S1737 N1738 1.613 . S
S1737 N1739 1.610 . S
N1738 S1737 1.613 . S
N1738 C1741 1.350 . S
N1739 S1737 1.610 . S
N1739 C1740 1.351 . S
C1740 C1734 1.428 . S
C1740 N1739 1.351 . S
C1740 C1741 1.434 . S
C1741 C1732 1.429 . S
C1741 N1738 1.350 . S
C1741 C1740 1.434 . S
C1742 C1743 1.369 . S
C1742 C1744 1.419 . S
C1742 H1746 0.930 . S
C1743 C1742 1.369 . S
C1743 C1752 1.429 . S
C1744 C1742 1.419 . S
C1744 C1745 1.363 . S
C1744 H1747 0.929 . S
C1745 C1744 1.363 . S
C1745 C1751 1.428 . S
H1746 C1742 0.930 . S
H1747 C1744 0.929 . S
S1748 N1749 1.613 . S
S1748 N1750 1.610 . S
N1749 S1748 1.613 . S
N1749 C1752 1.350 . S
N1750 S1748 1.610 . S
N1750 C1751 1.351 . S
C1751 C1745 1.428 . S
C1751 N1750 1.351 . S
C1751 C1752 1.434 . S
C1752 C1743 1.429 . S
C1752 N1749 1.350 . S
C1752 C1751 1.434 . S
C1753 C1754 1.369 . S
C1753 C1755 1.419 . S
C1753 H1757 0.930 . S
C1754 C1753 1.369 . S
C1754 C1763 1.429 . S
C1755 C1753 1.419 . S
C1755 C1756 1.363 . S
C1755 H1758 0.929 . S
C1756 C1755 1.363 . S
C1756 C1762 1.428 . S
H1757 C1753 0.930 . S
H1758 C1755 0.929 . S
S1759 N1760 1.613 . S
S1759 N1761 1.610 . S
N1760 S1759 1.613 . S
N1760 C1763 1.350 . S
N1761 S1759 1.610 . S
N1761 C1762 1.351 . S
C1762 C1756 1.428 . S
C1762 N1761 1.351 . S
C1762 C1763 1.434 . S
C1763 C1754 1.429 . S
C1763 N1760 1.350 . S
C1763 C1762 1.434 . S
C1764 C1765 1.369 . S
C1764 C1766 1.419 . S
C1764 H1768 0.930 . S
C1765 C1764 1.369 . S
C1765 C1774 1.429 . S
C1766 C1764 1.419 . S
C1766 C1767 1.363 . S
C1766 H1769 0.929 . S
C1767 C1766 1.363 . S
C1767 C1773 1.428 . S
H1768 C1764 0.930 . S
H1769 C1766 0.929 . S
S1770 N1771 1.613 . S
S1770 N1772 1.610 . S
N1771 S1770 1.613 . S
N1771 C1774 1.350 . S
N1772 S1770 1.610 . S
N1772 C1773 1.351 . S
C1773 C1767 1.428 . S
C1773 N1772 1.351 . S
C1773 C1774 1.434 . S
C1774 C1765 1.429 . S
C1774 N1771 1.350 . S
C1774 C1773 1.434 . S
C1775 C1776 1.369 . S
C1775 C1777 1.419 . S
C1775 H1779 0.930 . S
C1776 C1775 1.369 . S
C1776 C1785 1.429 . S
C1777 C1775 1.419 . S
C1777 C1778 1.363 . S
C1777 H1780 0.929 . S
C1778 C1777 1.363 . S
C1778 C1784 1.428 . S
H1779 C1775 0.930 . S
H1780 C1777 0.929 . S
S1781 N1782 1.613 . S
S1781 N1783 1.610 . S
N1782 S1781 1.613 . S
N1782 C1785 1.350 . S
N1783 S1781 1.610 . S
N1783 C1784 1.351 . S
C1784 C1778 1.428 . S
C1784 N1783 1.351 . S
C1784 C1785 1.434 . S
C1785 C1776 1.429 . S
C1785 N1782 1.350 . S
C1785 C1784 1.434 . S
C1786 C1787 1.369 . S
C1786 C1788 1.419 . S
C1786 H1790 0.930 . S
C1787 C1786 1.369 . S
C1787 C1796 1.429 . S
C1788 C1786 1.419 . S
C1788 C1789 1.363 . S
C1788 H1791 0.929 . S
C1789 C1788 1.363 . S
C1789 C1795 1.428 . S
H1790 C1786 0.930 . S
H1791 C1788 0.929 . S
S1792 N1793 1.613 . S
S1792 N1794 1.610 . S
N1793 S1792 1.613 . S
N1793 C1796 1.350 . S
N1794 S1792 1.610 . S
N1794 C1795 1.351 . S
C1795 C1789 1.428 . S
C1795 N1794 1.351 . S
C1795 C1796 1.434 . S
C1796 C1787 1.429 . S
C1796 N1793 1.350 . S
C1796 C1795 1.434 . S
C1797 C1798 1.369 . S
C1797 C1799 1.419 . S
C1797 H1801 0.930 . S
C1798 C1797 1.369 . S
C1798 C1807 1.429 . S
C1799 C1797 1.419 . S
C1799 C1800 1.363 . S
C1799 H1802 0.929 . S
C1800 C1799 1.363 . S
C1800 C1806 1.428 . S
H1801 C1797 0.930 . S
H1802 C1799 0.929 . S
S1803 N1804 1.613 . S
S1803 N1805 1.610 . S
N1804 S1803 1.613 . S
N1804 C1807 1.350 . S
N1805 S1803 1.610 . S
N1805 C1806 1.351 . S
C1806 C1800 1.428 . S
C1806 N1805 1.351 . S
C1806 C1807 1.434 . S
C1807 C1798 1.429 . S
C1807 N1804 1.350 . S
C1807 C1806 1.434 . S
C1808 C1809 1.369 . S
C1808 C1810 1.419 . S
C1808 H1812 0.930 . S
C1809 C1808 1.369 . S
C1809 C1818 1.429 . S
C1810 C1808 1.419 . S
C1810 C1811 1.363 . S
C1810 H1813 0.929 . S
C1811 C1810 1.363 . S
C1811 C1817 1.428 . S
H1812 C1808 0.930 . S
H1813 C1810 0.929 . S
S1814 N1815 1.613 . S
S1814 N1816 1.610 . S
N1815 S1814 1.613 . S
N1815 C1818 1.350 . S
N1816 S1814 1.610 . S
N1816 C1817 1.351 . S
C1817 C1811 1.428 . S
C1817 N1816 1.351 . S
C1817 C1818 1.434 . S
C1818 C1809 1.429 . S
C1818 N1815 1.350 . S
C1818 C1817 1.434 . S
C1819 C1820 1.369 . S
C1819 C1821 1.419 . S
C1819 H1823 0.930 . S
C1820 C1819 1.369 . S
C1820 C1829 1.429 . S
C1821 C1819 1.419 . S
C1821 C1822 1.363 . S
C1821 H1824 0.929 . S
C1822 C1821 1.363 . S
C1822 C1828 1.428 . S
H1823 C1819 0.930 . S
H1824 C1821 0.929 . S
S1825 N1826 1.613 . S
S1825 N1827 1.610 . S
N1826 S1825 1.613 . S
N1826 C1829 1.350 . S
N1827 S1825 1.610 . S
N1827 C1828 1.351 . S
C1828 C1822 1.428 . S
C1828 N1827 1.351 . S
C1828 C1829 1.434 . S
C1829 C1820 1.429 . S
C1829 N1826 1.350 . S
C1829 C1828 1.434 . S
C1830 C1831 1.369 . S
C1830 C1832 1.419 . S
C1830 H1834 0.930 . S
C1831 C1830 1.369 . S
C1831 C1840 1.429 . S
C1832 C1830 1.419 . S
C1832 C1833 1.363 . S
C1832 H1835 0.929 . S
C1833 C1832 1.363 . S
C1833 C1839 1.428 . S
H1834 C1830 0.930 . S
H1835 C1832 0.929 . S
S1836 N1837 1.613 . S
S1836 N1838 1.610 . S
N1837 S1836 1.613 . S
N1837 C1840 1.350 . S
N1838 S1836 1.610 . S
N1838 C1839 1.351 . S
C1839 C1833 1.428 . S
C1839 N1838 1.351 . S
C1839 C1840 1.434 . S
C1840 C1831 1.429 . S
C1840 N1837 1.350 . S
C1840 C1839 1.434 . S
C1841 C1842 1.369 . S
C1841 C1843 1.419 . S
C1841 H1845 0.930 . S
C1842 C1841 1.369 . S
C1842 C1851 1.429 . S
C1843 C1841 1.419 . S
C1843 C1844 1.363 . S
C1843 H1846 0.929 . S
C1844 C1843 1.363 . S
C1844 C1850 1.428 . S
H1845 C1841 0.930 . S
H1846 C1843 0.929 . S
S1847 N1848 1.613 . S
S1847 N1849 1.610 . S
N1848 S1847 1.613 . S
N1848 C1851 1.350 . S
N1849 S1847 1.610 . S
N1849 C1850 1.351 . S
C1850 C1844 1.428 . S
C1850 N1849 1.351 . S
C1850 C1851 1.434 . S
C1851 C1842 1.429 . S
C1851 N1848 1.350 . S
C1851 C1850 1.434 . S
C1852 C1853 1.369 . S
C1852 C1854 1.419 . S
C1852 H1856 0.930 . S
C1853 C1852 1.369 . S
C1853 C1862 1.429 . S
C1854 C1852 1.419 . S
C1854 C1855 1.363 . S
C1854 H1857 0.929 . S
C1855 C1854 1.363 . S
C1855 C1861 1.428 . S
H1856 C1852 0.930 . S
H1857 C1854 0.929 . S
S1858 N1859 1.613 . S
S1858 N1860 1.610 . S
N1859 S1858 1.613 . S
N1859 C1862 1.350 . S
N1860 S1858 1.610 . S
N1860 C1861 1.351 . S
C1861 C1855 1.428 . S
C1861 N1860 1.351 . S
C1861 C1862 1.434 . S
C1862 C1853 1.429 . S
C1862 N1859 1.350 . S
C1862 C1861 1.434 . S
C1863 C1864 1.369 . S
C1863 C1865 1.419 . S
C1863 H1867 0.930 . S
C1864 C1863 1.369 . S
C1864 C1873 1.429 . S
C1865 C1863 1.419 . S
C1865 C1866 1.363 . S
C1865 H1868 0.929 . S
C1866 C1865 1.363 . S
C1866 C1872 1.428 . S
H1867 C1863 0.930 . S
H1868 C1865 0.929 . S
S1869 N1870 1.613 . S
S1869 N1871 1.610 . S
N1870 S1869 1.613 . S
N1870 C1873 1.350 . S
N1871 S1869 1.610 . S
N1871 C1872 1.351 . S
C1872 C1866 1.428 . S
C1872 N1871 1.351 . S
C1872 C1873 1.434 . S
C1873 C1864 1.429 . S
C1873 N1870 1.350 . S
C1873 C1872 1.434 . S
C1874 C1875 1.369 . S
C1874 C1876 1.419 . S
C1874 H1878 0.930 . S
C1875 C1874 1.369 . S
C1875 C1884 1.429 . S
C1876 C1874 1.419 . S
C1876 C1877 1.363 . S
C1876 H1879 0.929 . S
C1877 C1876 1.363 . S
C1877 C1883 1.428 . S
H1878 C1874 0.930 . S
H1879 C1876 0.929 . S
S1880 N1881 1.613 . S
S1880 N1882 1.610 . S
N1881 S1880 1.613 . S
N1881 C1884 1.350 . S
N1882 S1880 1.610 . S
N1882 C1883 1.351 . S
C1883 C1877 1.428 . S
C1883 N1882 1.351 . S
C1883 C1884 1.434 . S
C1884 C1875 1.429 . S
C1884 N1881 1.350 . S
C1884 C1883 1.434 . S
C1885 C1886 1.369 . S
C1885 C1887 1.419 . S
C1885 H1889 0.930 . S
C1886 C1885 1.369 . S
C1886 C1895 1.429 . S
C1887 C1885 1.419 . S
C1887 C1888 1.363 . S
C1887 H1890 0.929 . S
C1888 C1887 1.363 . S
C1888 C1894 1.428 . S
H1889 C1885 0.930 . S
H1890 C1887 0.929 . S
S1891 N1892 1.613 . S
S1891 N1893 1.610 . S
N1892 S1891 1.613 . S
N1892 C1895 1.350 . S
N1893 S1891 1.610 . S
N1893 C1894 1.351 . S
C1894 C1888 1.428 . S
C1894 N1893 1.351 . S
C1894 C1895 1.434 . S
C1895 C1886 1.429 . S
C1895 N1892 1.350 . S
C1895 C1894 1.434 . S
C1896 C1897 1.369 . S
C1896 C1898 1.419 . S
C1896 H1900 0.930 . S
C1897 C1896 1.369 . S
C1897 C1906 1.429 . S
C1898 C1896 1.419 . S
C1898 C1899 1.363 . S
C1898 H1901 0.929 . S
C1899 C1898 1.363 . S
C1899 C1905 1.428 . S
H1900 C1896 0.930 . S
H1901 C1898 0.929 . S
S1902 N1903 1.613 . S
S1902 N1904 1.610 . S
N1903 S1902 1.613 . S
N1903 C1906 1.350 . S
N1904 S1902 1.610 . S
N1904 C1905 1.351 . S
C1905 C1899 1.428 . S
C1905 N1904 1.351 . S
C1905 C1906 1.434 . S
C1906 C1897 1.429 . S
C1906 N1903 1.350 . S
C1906 C1905 1.434 . S
C1907 C1908 1.369 . S
C1907 C1909 1.419 . S
C1907 H1911 0.930 . S
C1908 C1907 1.369 . S
C1908 C1917 1.429 . S
C1909 C1907 1.419 . S
C1909 C1910 1.363 . S
C1909 H1912 0.929 . S
C1910 C1909 1.363 . S
C1910 C1916 1.428 . S
H1911 C1907 0.930 . S
H1912 C1909 0.929 . S
S1913 N1914 1.613 . S
S1913 N1915 1.610 . S
N1914 S1913 1.613 . S
N1914 C1917 1.350 . S
N1915 S1913 1.610 . S
N1915 C1916 1.351 . S
C1916 C1910 1.428 . S
C1916 N1915 1.351 . S
C1916 C1917 1.434 . S
C1917 C1908 1.429 . S
C1917 N1914 1.350 . S
C1917 C1916 1.434 . S
C1918 C1919 1.369 . S
C1918 C1920 1.419 . S
C1918 H1922 0.930 . S
C1919 C1918 1.369 . S
C1919 C1928 1.429 . S
C1920 C1918 1.419 . S
C1920 C1921 1.363 . S
C1920 H1923 0.929 . S
C1921 C1920 1.363 . S
C1921 C1927 1.428 . S
H1922 C1918 0.930 . S
H1923 C1920 0.929 . S
S1924 N1925 1.613 . S
S1924 N1926 1.610 . S
N1925 S1924 1.613 . S
N1925 C1928 1.350 . S
N1926 S1924 1.610 . S
N1926 C1927 1.351 . S
C1927 C1921 1.428 . S
C1927 N1926 1.351 . S
C1927 C1928 1.434 . S
C1928 C1919 1.429 . S
C1928 N1925 1.350 . S
C1928 C1927 1.434 . S
C1929 C1930 1.369 . S
C1929 C1931 1.419 . S
C1929 H1933 0.930 . S
C1930 C1929 1.369 . S
C1930 C1939 1.429 . S
C1931 C1929 1.419 . S
C1931 C1932 1.363 . S
C1931 H1934 0.929 . S
C1932 C1931 1.363 . S
C1932 C1938 1.428 . S
H1933 C1929 0.930 . S
H1934 C1931 0.929 . S
S1935 N1936 1.613 . S
S1935 N1937 1.610 . S
N1936 S1935 1.613 . S
N1936 C1939 1.350 . S
N1937 S1935 1.610 . S
N1937 C1938 1.351 . S
C1938 C1932 1.428 . S
C1938 N1937 1.351 . S
C1938 C1939 1.434 . S
C1939 C1930 1.429 . S
C1939 N1936 1.350 . S
C1939 C1938 1.434 . S
C1940 C1941 1.369 . S
C1940 C1942 1.419 . S
C1940 H1944 0.930 . S
C1941 C1940 1.369 . S
C1941 C1950 1.429 . S
C1942 C1940 1.419 . S
C1942 C1943 1.363 . S
C1942 H1945 0.929 . S
C1943 C1942 1.363 . S
C1943 C1949 1.428 . S
H1944 C1940 0.930 . S
H1945 C1942 0.929 . S
S1946 N1947 1.613 . S
S1946 N1948 1.610 . S
N1947 S1946 1.613 . S
N1947 C1950 1.350 . S
N1948 S1946 1.610 . S
N1948 C1949 1.351 . S
C1949 C1943 1.428 . S
C1949 N1948 1.351 . S
C1949 C1950 1.434 . S
C1950 C1941 1.429 . S
C1950 N1947 1.350 . S
C1950 C1949 1.434 . S
C1951 C1952 1.369 . S
C1951 C1953 1.419 . S
C1951 H1955 0.930 . S
C1952 C1951 1.369 . S
C1952 C1961 1.429 . S
C1953 C1951 1.419 . S
C1953 C1954 1.363 . S
C1953 H1956 0.929 . S
C1954 C1953 1.363 . S
C1954 C1960 1.428 . S
H1955 C1951 0.930 . S
H1956 C1953 0.929 . S
S1957 N1958 1.613 . S
S1957 N1959 1.610 . S
N1958 S1957 1.613 . S
N1958 C1961 1.350 . S
N1959 S1957 1.610 . S
N1959 C1960 1.351 . S
C1960 C1954 1.428 . S
C1960 N1959 1.351 . S
C1960 C1961 1.434 . S
C1961 C1952 1.429 . S
C1961 N1958 1.350 . S
C1961 C1960 1.434 . S
C1962 C1963 1.369 . S
C1962 C1964 1.419 . S
C1962 H1966 0.930 . S
C1963 C1962 1.369 . S
C1963 C1972 1.429 . S
C1964 C1962 1.419 . S
C1964 C1965 1.363 . S
C1964 H1967 0.929 . S
C1965 C1964 1.363 . S
C1965 C1971 1.428 . S
H1966 C1962 0.930 . S
H1967 C1964 0.929 . S
S1968 N1969 1.613 . S
S1968 N1970 1.610 . S
N1969 S1968 1.613 . S
N1969 C1972 1.350 . S
N1970 S1968 1.610 . S
N1970 C1971 1.351 . S
C1971 C1965 1.428 . S
C1971 N1970 1.351 . S
C1971 C1972 1.434 . S
C1972 C1963 1.429 . S
C1972 N1969 1.350 . S
C1972 C1971 1.434 . S
C1973 C1974 1.369 . S
C1973 C1975 1.419 . S
C1973 H1977 0.930 . S
C1974 C1973 1.369 . S
C1974 C1983 1.429 . S
C1975 C1973 1.419 . S
C1975 C1976 1.363 . S
C1975 H1978 0.929 . S
C1976 C1975 1.363 . S
C1976 C1982 1.428 . S
H1977 C1973 0.930 . S
H1978 C1975 0.929 . S
S1979 N1980 1.613 . S
S1979 N1981 1.610 . S
N1980 S1979 1.613 . S
N1980 C1983 1.350 . S
N1981 S1979 1.610 . S
N1981 C1982 1.351 . S
C1982 C1976 1.428 . S
C1982 N1981 1.351 . S
C1982 C1983 1.434 . S
C1983 C1974 1.429 . S
C1983 N1980 1.350 . S
C1983 C1982 1.434 . S
C1984 C1985 1.369 . S
C1984 C1986 1.419 1_545 S
C1984 H1988 0.930 . S
C1985 C1984 1.369 . S
C1985 C1994 1.429 . S
C1986 C1984 1.419 1_565 S
C1986 C1987 1.363 . S
C1986 H1989 0.929 . S
C1987 C1986 1.363 . S
C1987 C1993 1.428 . S
H1988 C1984 0.930 . S
H1989 C1986 0.929 . S
S1990 N1991 1.613 1_565 S
S1990 N1992 1.610 . S
N1991 S1990 1.613 1_545 S
N1991 C1994 1.350 . S
N1992 S1990 1.610 . S
N1992 C1993 1.351 . S
C1993 C1987 1.428 . S
C1993 N1992 1.351 . S
C1993 C1994 1.434 1_565 S
C1994 C1985 1.429 . S
C1994 N1991 1.350 . S
C1994 C1993 1.434 1_545 S
C1995 C1996 1.369 . S
C1995 C1997 1.419 . S
C1995 H1999 0.930 . S
C1996 C1995 1.369 . S
C1996 C2005 1.429 . S
C1997 C1995 1.419 . S
C1997 C1998 1.363 . S
C1997 H2000 0.929 . S
C1998 C1997 1.363 . S
C1998 C2004 1.428 . S
H1999 C1995 0.930 . S
H2000 C1997 0.929 . S
S2001 N2002 1.613 . S
S2001 N2003 1.610 . S
N2002 S2001 1.613 . S
N2002 C2005 1.350 . S
N2003 S2001 1.610 . S
N2003 C2004 1.351 . S
C2004 C1998 1.428 . S
C2004 N2003 1.351 . S
C2004 C2005 1.434 . S
C2005 C1996 1.429 . S
C2005 N2002 1.350 . S
C2005 C2004 1.434 . S
C2006 C2007 1.369 . S
C2006 C2008 1.419 1_565 S
C2006 H2010 0.930 . S
C2007 C2006 1.369 . S
C2007 C2016 1.429 . S
C2008 C2006 1.419 1_545 S
C2008 C2009 1.363 . S
C2008 H2011 0.929 . S
C2009 C2008 1.363 . S
C2009 C2015 1.428 . S
H2010 C2006 0.930 . S
H2011 C2008 0.929 . S
S2012 N2013 1.613 . S
S2012 N2014 1.610 1_565 S
N2013 S2012 1.613 . S
N2013 C2016 1.350 . S
N2014 S2012 1.610 1_545 S
N2014 C2015 1.351 . S
C2015 C2009 1.428 . S
C2015 N2014 1.351 . S
C2015 C2016 1.434 1_545 S
C2016 C2007 1.429 . S
C2016 N2013 1.350 . S
C2016 C2015 1.434 1_565 S
C2017 C2018 1.369 . S
C2017 C2019 1.419 . S
C2017 H2021 0.930 . S
C2018 C2017 1.369 . S
C2018 C2027 1.429 1_554 S
C2019 C2017 1.419 . S
C2019 C2020 1.363 1_554 S
C2019 H2022 0.929 . S
C2020 C2019 1.363 1_556 S
C2020 C2026 1.428 . S
H2021 C2017 0.930 . S
H2022 C2019 0.929 . S
S2023 N2024 1.613 . S
S2023 N2025 1.610 . S
N2024 S2023 1.613 . S
N2024 C2027 1.350 . S
N2025 S2023 1.610 . S
N2025 C2026 1.351 . S
C2026 C2020 1.428 . S
C2026 N2025 1.351 . S
C2026 C2027 1.434 . S
C2027 C2018 1.429 1_556 S
C2027 N2024 1.350 . S
C2027 C2026 1.434 . S
C2028 C2029 1.369 . S
C2028 C2030 1.419 1_545 S
C2028 H2032 0.930 . S
C2029 C2028 1.369 . S
C2029 C2038 1.429 . S
C2030 C2028 1.419 1_565 S
C2030 C2031 1.363 . S
C2030 H2033 0.929 . S
C2031 C2030 1.363 . S
C2031 C2037 1.428 . S
H2032 C2028 0.930 . S
H2033 C2030 0.929 . S
S2034 N2035 1.613 1_565 S
S2034 N2036 1.610 . S
N2035 S2034 1.613 1_545 S
N2035 C2038 1.350 . S
N2036 S2034 1.610 . S
N2036 C2037 1.351 . S
C2037 C2031 1.428 . S
C2037 N2036 1.351 . S
C2037 C2038 1.434 1_565 S
C2038 C2029 1.429 . S
C2038 N2035 1.350 . S
C2038 C2037 1.434 1_545 S
C2039 C2040 1.369 . S
C2039 C2041 1.419 . S
C2039 H2043 0.930 . S
C2040 C2039 1.369 . S
C2040 C2049 1.429 . S
C2041 C2039 1.419 . S
C2041 C2042 1.363 . S
C2041 H2044 0.929 . S
C2042 C2041 1.363 . S
C2042 C2048 1.428 . S
H2043 C2039 0.930 . S
H2044 C2041 0.929 . S
S2045 N2046 1.613 . S
S2045 N2047 1.610 . S
N2046 S2045 1.613 . S
N2046 C2049 1.350 . S
N2047 S2045 1.610 . S
N2047 C2048 1.351 . S
C2048 C2042 1.428 . S
C2048 N2047 1.351 . S
C2048 C2049 1.434 . S
C2049 C2040 1.429 . S
C2049 N2046 1.350 . S
C2049 C2048 1.434 . S
C2050 C2051 1.369 . S
C2050 C2052 1.419 1_545 S
C2050 H2054 0.930 . S
C2051 C2050 1.369 . S
C2051 C2060 1.429 . S
C2052 C2050 1.419 1_565 S
C2052 C2053 1.363 . S
C2052 H2055 0.929 . S
C2053 C2052 1.363 . S
C2053 C2059 1.428 . S
H2054 C2050 0.930 . S
H2055 C2052 0.929 . S
S2056 N2057 1.613 1_565 S
S2056 N2058 1.610 . S
N2057 S2056 1.613 1_545 S
N2057 C2060 1.350 . S
N2058 S2056 1.610 . S
N2058 C2059 1.351 . S
C2059 C2053 1.428 . S
C2059 N2058 1.351 . S
C2059 C2060 1.434 1_565 S
C2060 C2051 1.429 . S
C2060 N2057 1.350 . S
C2060 C2059 1.434 1_545 S
C2061 C2062 1.369 . S
C2061 C2063 1.419 . S
C2061 H2065 0.930 . S
C2062 C2061 1.369 . S
C2062 C2071 1.429 1_554 S
C2063 C2061 1.419 . S
C2063 C2064 1.363 1_554 S
C2063 H2066 0.929 . S
C2064 C2063 1.363 1_556 S
C2064 C2070 1.428 . S
H2065 C2061 0.930 . S
H2066 C2063 0.929 . S
S2067 N2068 1.613 . S
S2067 N2069 1.610 . S
N2068 S2067 1.613 . S
N2068 C2071 1.350 . S
N2069 S2067 1.610 . S
N2069 C2070 1.351 . S
C2070 C2064 1.428 . S
C2070 N2069 1.351 . S
C2070 C2071 1.434 . S
C2071 C2062 1.429 1_556 S
C2071 N2068 1.350 . S
C2071 C2070 1.434 . S
C2072 C2073 1.369 . S
C2072 C2074 1.419 . S
C2072 H2076 0.930 . S
C2073 C2072 1.369 . S
C2073 C2082 1.429 . S
C2074 C2072 1.419 . S
C2074 C2075 1.363 . S
C2074 H2077 0.929 . S
C2075 C2074 1.363 . S
C2075 C2081 1.428 . S
H2076 C2072 0.930 . S
H2077 C2074 0.929 . S
S2078 N2079 1.613 . S
S2078 N2080 1.610 . S
N2079 S2078 1.613 . S
N2079 C2082 1.350 . S
N2080 S2078 1.610 . S
N2080 C2081 1.351 . S
C2081 C2075 1.428 . S
C2081 N2080 1.351 . S
C2081 C2082 1.434 . S
C2082 C2073 1.429 . S
C2082 N2079 1.350 . S
C2082 C2081 1.434 . S
C2083 C2084 1.369 1_556 S
C2083 C2085 1.419 . S
C2083 H2087 0.930 . S
C2084 C2083 1.369 1_554 S
C2084 C2093 1.429 . S
C2085 C2083 1.419 . S
C2085 C2086 1.363 . S
C2085 H2088 0.929 . S
C2086 C2085 1.363 . S
C2086 C2092 1.428 1_556 S
H2087 C2083 0.930 . S
H2088 C2085 0.929 . S
S2089 N2090 1.613 . S
S2089 N2091 1.610 . S
N2090 S2089 1.613 . S
N2090 C2093 1.350 . S
N2091 S2089 1.610 . S
N2091 C2092 1.351 . S
C2092 C2086 1.428 1_554 S
C2092 N2091 1.351 . S
C2092 C2093 1.434 . S
C2093 C2084 1.429 . S
C2093 N2090 1.350 . S
C2093 C2092 1.434 . S
C2094 C2095 1.369 . S
C2094 C2096 1.419 . S
C2094 H2098 0.930 . S
C2095 C2094 1.369 . S
C2095 C2104 1.429 . S
C2096 C2094 1.419 . S
C2096 C2097 1.363 . S
C2096 H2099 0.929 . S
C2097 C2096 1.363 . S
C2097 C2103 1.428 . S
H2098 C2094 0.930 . S
H2099 C2096 0.929 . S
S2100 N2101 1.613 . S
S2100 N2102 1.610 . S
N2101 S2100 1.613 . S
N2101 C2104 1.350 . S
N2102 S2100 1.610 . S
N2102 C2103 1.351 . S
C2103 C2097 1.428 . S
C2103 N2102 1.351 . S
C2103 C2104 1.434 . S
C2104 C2095 1.429 . S
C2104 N2101 1.350 . S
C2104 C2103 1.434 . S
C2105 C2106 1.369 . S
C2105 C2107 1.419 . S
C2105 H2109 0.930 . S
C2106 C2105 1.369 . S
C2106 C2115 1.429 . S
C2107 C2105 1.419 . S
C2107 C2108 1.363 . S
C2107 H2110 0.929 . S
C2108 C2107 1.363 . S
C2108 C2114 1.428 . S
H2109 C2105 0.930 . S
H2110 C2107 0.929 . S
S2111 N2112 1.613 . S
S2111 N2113 1.610 . S
N2112 S2111 1.613 . S
N2112 C2115 1.350 . S
N2113 S2111 1.610 . S
N2113 C2114 1.351 . S
C2114 C2108 1.428 . S
C2114 N2113 1.351 . S
C2114 C2115 1.434 . S
C2115 C2106 1.429 . S
C2115 N2112 1.350 . S
C2115 C2114 1.434 . S
C2116 C2117 1.369 . S
C2116 C2118 1.419 . S
C2116 H2120 0.930 . S
C2117 C2116 1.369 . S
C2117 C2126 1.429 . S
C2118 C2116 1.419 . S
C2118 C2119 1.363 . S
C2118 H2121 0.929 . S
C2119 C2118 1.363 . S
C2119 C2125 1.428 . S
H2120 C2116 0.930 . S
H2121 C2118 0.929 . S
S2122 N2123 1.613 . S
S2122 N2124 1.610 . S
N2123 S2122 1.613 . S
N2123 C2126 1.350 . S
N2124 S2122 1.610 . S
N2124 C2125 1.351 . S
C2125 C2119 1.428 . S
C2125 N2124 1.351 . S
C2125 C2126 1.434 . S
C2126 C2117 1.429 . S
C2126 N2123 1.350 . S
C2126 C2125 1.434 . S
C2127 C2128 1.369 1_556 S
C2127 C2129 1.419 . S
C2127 H2131 0.930 . S
C2128 C2127 1.369 1_554 S
C2128 C2137 1.429 . S
C2129 C2127 1.419 . S
C2129 C2130 1.363 . S
C2129 H2132 0.929 . S
C2130 C2129 1.363 . S
C2130 C2136 1.428 1_556 S
H2131 C2127 0.930 . S
H2132 C2129 0.929 . S
S2133 N2134 1.613 . S
S2133 N2135 1.610 . S
N2134 S2133 1.613 . S
N2134 C2137 1.350 . S
N2135 S2133 1.610 . S
N2135 C2136 1.351 . S
C2136 C2130 1.428 1_554 S
C2136 N2135 1.351 . S
C2136 C2137 1.434 . S
C2137 C2128 1.429 . S
C2137 N2134 1.350 . S
C2137 C2136 1.434 . S
C2138 C2139 1.369 . S
C2138 C2140 1.419 . S
C2138 H2142 0.930 . S
C2139 C2138 1.369 . S
C2139 C2148 1.429 . S
C2140 C2138 1.419 . S
C2140 C2141 1.363 . S
C2140 H2143 0.929 . S
C2141 C2140 1.363 . S
C2141 C2147 1.428 . S
H2142 C2138 0.930 . S
H2143 C2140 0.929 . S
S2144 N2145 1.613 . S
S2144 N2146 1.610 . S
N2145 S2144 1.613 . S
N2145 C2148 1.350 . S
N2146 S2144 1.610 . S
N2146 C2147 1.351 . S
C2147 C2141 1.428 . S
C2147 N2146 1.351 . S
C2147 C2148 1.434 . S
C2148 C2139 1.429 . S
C2148 N2145 1.350 . S
C2148 C2147 1.434 . S
C2149 C2150 1.369 . S
C2149 C2151 1.419 . S
C2149 H2153 0.930 . S
C2150 C2149 1.369 . S
C2150 C2159 1.429 . S
C2151 C2149 1.419 . S
C2151 C2152 1.363 . S
C2151 H2154 0.929 . S
C2152 C2151 1.363 . S
C2152 C2158 1.428 . S
H2153 C2149 0.930 . S
H2154 C2151 0.929 . S
S2155 N2156 1.613 . S
S2155 N2157 1.610 . S
N2156 S2155 1.613 . S
N2156 C2159 1.350 . S
N2157 S2155 1.610 . S
N2157 C2158 1.351 . S
C2158 C2152 1.428 . S
C2158 N2157 1.351 . S
C2158 C2159 1.434 . S
C2159 C2150 1.429 . S
C2159 N2156 1.350 . S
C2159 C2158 1.434 . S
C2160 C2161 1.369 . S
C2160 C2162 1.419 . S
C2160 H2164 0.930 . S
C2161 C2160 1.369 . S
C2161 C2170 1.429 . S
C2162 C2160 1.419 . S
C2162 C2163 1.363 . S
C2162 H2165 0.929 . S
C2163 C2162 1.363 . S
C2163 C2169 1.428 . S
H2164 C2160 0.930 . S
H2165 C2162 0.929 . S
S2166 N2167 1.613 . S
S2166 N2168 1.610 . S
N2167 S2166 1.613 . S
N2167 C2170 1.350 . S
N2168 S2166 1.610 . S
N2168 C2169 1.351 . S
C2169 C2163 1.428 . S
C2169 N2168 1.351 . S
C2169 C2170 1.434 . S
C2170 C2161 1.429 . S
C2170 N2167 1.350 . S
C2170 C2169 1.434 . S
C2171 C2172 1.369 . S
C2171 C2173 1.419 . S
C2171 H2175 0.930 . S
C2172 C2171 1.369 . S
C2172 C2181 1.429 . S
C2173 C2171 1.419 . S
C2173 C2174 1.363 . S
C2173 H2176 0.929 . S
C2174 C2173 1.363 . S
C2174 C2180 1.428 . S
H2175 C2171 0.930 . S
H2176 C2173 0.929 . S
S2177 N2178 1.613 . S
S2177 N2179 1.610 . S
N2178 S2177 1.613 . S
N2178 C2181 1.350 . S
N2179 S2177 1.610 . S
N2179 C2180 1.351 . S
C2180 C2174 1.428 . S
C2180 N2179 1.351 . S
C2180 C2181 1.434 . S
C2181 C2172 1.429 . S
C2181 N2178 1.350 . S
C2181 C2180 1.434 . S
C2182 C2183 1.369 . S
C2182 C2184 1.419 . S
C2182 H2186 0.930 . S
C2183 C2182 1.369 . S
C2183 C2192 1.429 . S
C2184 C2182 1.419 . S
C2184 C2185 1.363 . S
C2184 H2187 0.929 . S
C2185 C2184 1.363 . S
C2185 C2191 1.428 . S
H2186 C2182 0.930 . S
H2187 C2184 0.929 . S
S2188 N2189 1.613 . S
S2188 N2190 1.610 . S
N2189 S2188 1.613 . S
N2189 C2192 1.350 . S
N2190 S2188 1.610 . S
N2190 C2191 1.351 . S
C2191 C2185 1.428 . S
C2191 N2190 1.351 . S
C2191 C2192 1.434 . S
C2192 C2183 1.429 . S
C2192 N2189 1.350 . S
C2192 C2191 1.434 . S
C2193 C2194 1.369 . S
C2193 C2195 1.419 . S
C2193 H2197 0.930 . S
C2194 C2193 1.369 . S
C2194 C2203 1.429 . S
C2195 C2193 1.419 . S
C2195 C2196 1.363 . S
C2195 H2198 0.929 . S
C2196 C2195 1.363 . S
C2196 C2202 1.428 . S
H2197 C2193 0.930 . S
H2198 C2195 0.929 . S
S2199 N2200 1.613 . S
S2199 N2201 1.610 . S
N2200 S2199 1.613 . S
N2200 C2203 1.350 . S
N2201 S2199 1.610 . S
N2201 C2202 1.351 . S
C2202 C2196 1.428 . S
C2202 N2201 1.351 . S
C2202 C2203 1.434 . S
C2203 C2194 1.429 . S
C2203 N2200 1.350 . S
C2203 C2202 1.434 . S
C2204 C2205 1.369 . S
C2204 C2206 1.419 . S
C2204 H2208 0.930 . S
C2205 C2204 1.369 . S
C2205 C2214 1.429 . S
C2206 C2204 1.419 . S
C2206 C2207 1.363 . S
C2206 H2209 0.929 . S
C2207 C2206 1.363 . S
C2207 C2213 1.428 . S
H2208 C2204 0.930 . S
H2209 C2206 0.929 . S
S2210 N2211 1.613 . S
S2210 N2212 1.610 . S
N2211 S2210 1.613 . S
N2211 C2214 1.350 . S
N2212 S2210 1.610 . S
N2212 C2213 1.351 . S
C2213 C2207 1.428 . S
C2213 N2212 1.351 . S
C2213 C2214 1.434 . S
C2214 C2205 1.429 . S
C2214 N2211 1.350 . S
C2214 C2213 1.434 . S
C2215 C2216 1.369 . S
C2215 C2217 1.419 . S
C2215 H2219 0.930 . S
C2216 C2215 1.369 . S
C2216 C2225 1.429 . S
C2217 C2215 1.419 . S
C2217 C2218 1.363 . S
C2217 H2220 0.929 . S
C2218 C2217 1.363 . S
C2218 C2224 1.428 . S
H2219 C2215 0.930 . S
H2220 C2217 0.929 . S
S2221 N2222 1.613 . S
S2221 N2223 1.610 . S
N2222 S2221 1.613 . S
N2222 C2225 1.350 . S
N2223 S2221 1.610 . S
N2223 C2224 1.351 . S
C2224 C2218 1.428 . S
C2224 N2223 1.351 . S
C2224 C2225 1.434 . S
C2225 C2216 1.429 . S
C2225 N2222 1.350 . S
C2225 C2224 1.434 . S
C2226 C2227 1.369 . S
C2226 C2228 1.419 . S
C2226 H2230 0.930 . S
C2227 C2226 1.369 . S
C2227 C2236 1.429 . S
C2228 C2226 1.419 . S
C2228 C2229 1.363 . S
C2228 H2231 0.929 . S
C2229 C2228 1.363 . S
C2229 C2235 1.428 . S
H2230 C2226 0.930 . S
H2231 C2228 0.929 . S
S2232 N2233 1.613 . S
S2232 N2234 1.610 . S
N2233 S2232 1.613 . S
N2233 C2236 1.350 . S
N2234 S2232 1.610 . S
N2234 C2235 1.351 . S
C2235 C2229 1.428 . S
C2235 N2234 1.351 . S
C2235 C2236 1.434 . S
C2236 C2227 1.429 . S
C2236 N2233 1.350 . S
C2236 C2235 1.434 . S
C2237 C2238 1.369 . S
C2237 C2239 1.419 . S
C2237 H2241 0.930 . S
C2238 C2237 1.369 . S
C2238 C2247 1.429 . S
C2239 C2237 1.419 . S
C2239 C2240 1.363 . S
C2239 H2242 0.929 . S
C2240 C2239 1.363 . S
C2240 C2246 1.428 . S
H2241 C2237 0.930 . S
H2242 C2239 0.929 . S
S2243 N2244 1.613 . S
S2243 N2245 1.610 . S
N2244 S2243 1.613 . S
N2244 C2247 1.350 . S
N2245 S2243 1.610 . S
N2245 C2246 1.351 . S
C2246 C2240 1.428 . S
C2246 N2245 1.351 . S
C2246 C2247 1.434 . S
C2247 C2238 1.429 . S
C2247 N2244 1.350 . S
C2247 C2246 1.434 . S
C2248 C2249 1.369 . S
C2248 C2250 1.419 . S
C2248 H2252 0.930 . S
C2249 C2248 1.369 . S
C2249 C2258 1.429 . S
C2250 C2248 1.419 . S
C2250 C2251 1.363 . S
C2250 H2253 0.929 . S
C2251 C2250 1.363 . S
C2251 C2257 1.428 . S
H2252 C2248 0.930 . S
H2253 C2250 0.929 . S
S2254 N2255 1.613 . S
S2254 N2256 1.610 . S
N2255 S2254 1.613 . S
N2255 C2258 1.350 . S
N2256 S2254 1.610 . S
N2256 C2257 1.351 . S
C2257 C2251 1.428 . S
C2257 N2256 1.351 . S
C2257 C2258 1.434 . S
C2258 C2249 1.429 . S
C2258 N2255 1.350 . S
C2258 C2257 1.434 . S
C2259 C2260 1.369 . S
C2259 C2261 1.419 . S
C2259 H2263 0.930 . S
C2260 C2259 1.369 . S
C2260 C2269 1.429 . S
C2261 C2259 1.419 . S
C2261 C2262 1.363 . S
C2261 H2264 0.929 . S
C2262 C2261 1.363 . S
C2262 C2268 1.428 . S
H2263 C2259 0.930 . S
H2264 C2261 0.929 . S
S2265 N2266 1.613 . S
S2265 N2267 1.610 . S
N2266 S2265 1.613 . S
N2266 C2269 1.350 . S
N2267 S2265 1.610 . S
N2267 C2268 1.351 . S
C2268 C2262 1.428 . S
C2268 N2267 1.351 . S
C2268 C2269 1.434 . S
C2269 C2260 1.429 . S
C2269 N2266 1.350 . S
C2269 C2268 1.434 . S
C2270 C2271 1.369 . S
C2270 C2272 1.419 . S
C2270 H2274 0.930 . S
C2271 C2270 1.369 . S
C2271 C2280 1.429 . S
C2272 C2270 1.419 . S
C2272 C2273 1.363 . S
C2272 H2275 0.929 . S
C2273 C2272 1.363 . S
C2273 C2279 1.428 . S
H2274 C2270 0.930 . S
H2275 C2272 0.929 . S
S2276 N2277 1.613 . S
S2276 N2278 1.610 . S
N2277 S2276 1.613 . S
N2277 C2280 1.350 . S
N2278 S2276 1.610 . S
N2278 C2279 1.351 . S
C2279 C2273 1.428 . S
C2279 N2278 1.351 . S
C2279 C2280 1.434 . S
C2280 C2271 1.429 . S
C2280 N2277 1.350 . S
C2280 C2279 1.434 . S
C2281 C2282 1.369 . S
C2281 C2283 1.419 . S
C2281 H2285 0.930 . S
C2282 C2281 1.369 . S
C2282 C2291 1.429 . S
C2283 C2281 1.419 . S
C2283 C2284 1.363 . S
C2283 H2286 0.929 . S
C2284 C2283 1.363 . S
C2284 C2290 1.428 . S
H2285 C2281 0.930 . S
H2286 C2283 0.929 . S
S2287 N2288 1.613 . S
S2287 N2289 1.610 . S
N2288 S2287 1.613 . S
N2288 C2291 1.350 . S
N2289 S2287 1.610 . S
N2289 C2290 1.351 . S
C2290 C2284 1.428 . S
C2290 N2289 1.351 . S
C2290 C2291 1.434 . S
C2291 C2282 1.429 . S
C2291 N2288 1.350 . S
C2291 C2290 1.434 . S
C2292 C2293 1.369 . S
C2292 C2294 1.419 . S
C2292 H2296 0.930 . S
C2293 C2292 1.369 . S
C2293 C2302 1.429 . S
C2294 C2292 1.419 . S
C2294 C2295 1.363 . S
C2294 H2297 0.929 . S
C2295 C2294 1.363 . S
C2295 C2301 1.428 . S
H2296 C2292 0.930 . S
H2297 C2294 0.929 . S
S2298 N2299 1.613 . S
S2298 N2300 1.610 . S
N2299 S2298 1.613 . S
N2299 C2302 1.350 . S
N2300 S2298 1.610 . S
N2300 C2301 1.351 . S
C2301 C2295 1.428 . S
C2301 N2300 1.351 . S
C2301 C2302 1.434 . S
C2302 C2293 1.429 . S
C2302 N2299 1.350 . S
C2302 C2301 1.434 . S
C2303 C2304 1.369 . S
C2303 C2305 1.419 . S
C2303 H2307 0.930 . S
C2304 C2303 1.369 . S
C2304 C2313 1.429 . S
C2305 C2303 1.419 . S
C2305 C2306 1.363 . S
C2305 H2308 0.929 . S
C2306 C2305 1.363 . S
C2306 C2312 1.428 . S
H2307 C2303 0.930 . S
H2308 C2305 0.929 . S
S2309 N2310 1.613 . S
S2309 N2311 1.610 . S
N2310 S2309 1.613 . S
N2310 C2313 1.350 . S
N2311 S2309 1.610 . S
N2311 C2312 1.351 . S
C2312 C2306 1.428 . S
C2312 N2311 1.351 . S
C2312 C2313 1.434 . S
C2313 C2304 1.429 . S
C2313 N2310 1.350 . S
C2313 C2312 1.434 . S
C2314 C2315 1.369 . S
C2314 C2316 1.419 . S
C2314 H2318 0.930 . S
C2315 C2314 1.369 . S
C2315 C2324 1.429 . S
C2316 C2314 1.419 . S
C2316 C2317 1.363 . S
C2316 H2319 0.929 . S
C2317 C2316 1.363 . S
C2317 C2323 1.428 . S
H2318 C2314 0.930 . S
H2319 C2316 0.929 . S
S2320 N2321 1.613 . S
S2320 N2322 1.610 . S
N2321 S2320 1.613 . S
N2321 C2324 1.350 . S
N2322 S2320 1.610 . S
N2322 C2323 1.351 . S
C2323 C2317 1.428 . S
C2323 N2322 1.351 . S
C2323 C2324 1.434 . S
C2324 C2315 1.429 . S
C2324 N2321 1.350 . S
C2324 C2323 1.434 . S
C2325 C2326 1.369 . S
C2325 C2327 1.419 . S
C2325 H2329 0.930 . S
C2326 C2325 1.369 . S
C2326 C2335 1.429 . S
C2327 C2325 1.419 . S
C2327 C2328 1.363 . S
C2327 H2330 0.929 . S
C2328 C2327 1.363 . S
C2328 C2334 1.428 . S
H2329 C2325 0.930 . S
H2330 C2327 0.929 . S
S2331 N2332 1.613 . S
S2331 N2333 1.610 . S
N2332 S2331 1.613 . S
N2332 C2335 1.350 . S
N2333 S2331 1.610 . S
N2333 C2334 1.351 . S
C2334 C2328 1.428 . S
C2334 N2333 1.351 . S
C2334 C2335 1.434 . S
C2335 C2326 1.429 . S
C2335 N2332 1.350 . S
C2335 C2334 1.434 . S
C1281 C7 1.046 . S
C1283 C131 1.001 . S
C1292 C11 1.012 . S
C1294 C47 1.046 . S
C1303 C87 1.046 . S
C1305 C51 1.010 . S
C1314 C91 1.010 . S
C1316 C127 1.047 . S
C1325 C211 1.003 . S
C1327 C167 1.047 . S
C1336 C207 1.047 . S
C1338 C251 1.011 . S
C1347 C291 1.012 . S
C1349 C247 1.046 . S
C1358 C171 1.001 . S
C1360 C287 1.045 . S
C1369 C336 1.047 . S
C1371 C442 1.005 . S
C1380 C376 1.045 . S
C1382 C322 0.999 . S
C1391 C416 1.046 . S
C1393 C362 0.999 . S
C1402 C456 1.047 . S
C1404 C402 1.010 . S
C1413 C496 1.047 . S
C1415 C522 1.011 . S
C1424 C536 1.045 . S
C1426 C562 0.999 . S
C1435 C602 0.997 . S
C1437 C576 1.046 . S
C1446 C482 0.999 . S
C1448 C616 1.046 . S
C1457 C647 1.046 . S
C1459 C771 1.000 . S
C1468 C651 1.006 . S
C1470 C687 1.046 . S
C1479 C691 1.010 . S
C1481 C727 1.047 . S
C1490 C767 1.047 . S
C1492 C731 1.011 . S
C1501 C807 1.047 . S
C1503 C851 1.009 . S
C1512 C891 1.010 . S
C1514 C847 1.047 . S
C1523 C887 1.046 . S
C1525 C931 1.007 . S
C1534 C811 0.997 . S
C1536 C927 1.045 . S
C1545 C1082 1.010 . S
C1547 C976 1.046 . S
C1556 C962 0.997 . S
C1558 C1016 1.045 . S
C1567 C1056 1.047 . S
C1569 C1002 1.010 . S
C1578 C1042 0.999 . S
C1580 C1096 1.045 . S
C1589 C1162 0.997 . S
C1591 C1136 1.045 . S
C1600 C1202 1.003 . S
C1602 C1176 1.045 . S
C1611 C1242 0.999 . S
C1613 C1216 1.045 . S
C1622 C1256 1.046 . S
C1624 C1122 1.010 . S
C1633 C1087 1.627 . S
C1635 C10 1.559 . S
C1644 C50 1.566 . S
C1646 C327 1.623 . S
C1655 C90 1.560 . S
C1657 C1007 1.627 . S
C1666 C130 1.566 . S
C1668 C407 1.623 . S
C1677 C170 1.564 . S
C1679 C1167 1.623 . S
C1688 C567 1.622 . S
C1690 C210 1.567 . S
C1699 C1247 1.628 . S
C1701 C250 1.561 . S
C1710 C290 1.562 . S
C1712 C487 1.625 . S
C1721 C339 1.563 . S
C1723 C776 1.624 . S
C1732 C16 1.629 . S
C1734 C379 1.559 . S
C1743 C696 1.622 . S
C1745 C419 1.567 . S
C1754 C96 1.627 . S
C1756 C459 1.564 . S
C1765 C856 1.624 . S
C1767 C499 1.566 . S
C1776 C256 1.625 . S
C1778 C539 1.565 . S
C1787 C579 1.562 . S
C1789 C936 1.624 . S
C1798 C619 1.567 . S
C1800 C176 1.623 . S
C1809 C650 1.561 . S
C1811 C447 1.625 . S
C1820 C690 1.567 . S
C1822 C967 1.624 . S
C1831 C730 1.557 . S
C1833 C367 1.627 . S
C1842 C770 1.564 . S
C1844 C1047 1.626 . S
C1853 C810 1.562 . S
C1855 C527 1.625 . S
C1864 C850 1.566 . S
C1866 C1207 1.623 . S
C1875 C607 1.628 . S
C1877 C890 1.561 . S
C1886 C930 1.564 . S
C1888 C1127 1.624 . S
C1897 C136 1.622 . S
C1899 C979 1.565 . S
C1908 C656 1.628 . S
C1910 C1019 1.559 . S
C1919 C56 1.626 . S
C1921 C1059 1.564 . S
C1930 C736 1.626 . S
C1932 C1099 1.560 . S
C1941 C216 1.622 . S
C1943 C1139 1.565 . S
C1952 C1179 1.567 . S
C1954 C896 1.625 . S
C1963 C1219 1.563 . S
C1965 C296 1.626 . S
C1974 C816 1.624 . S
C1976 C1259 1.563 . S
C1985 C19 1.263 . S
C1987 C179 1.252 . S
C1996 C59 1.260 . S
C1998 C219 1.259 . S
C2007 C99 1.249 . S
C2009 C259 1.260 . S
C2018 C299 1.253 . S
C2020 C139 1.262 . S
C2029 C490 1.257 . S
C2031 C330 1.251 . S
C2040 C530 1.249 . S
C2042 C370 1.259 . S
C2051 C410 1.258 . S
C2053 C570 1.251 . S
C2062 C450 1.250 . S
C2064 C610 1.262 . S
C2073 C659 1.249 . S
C2075 C819 1.257 . S
C2084 C859 1.263 . S
C2086 C699 1.252 . S
C2095 C899 1.249 . S
C2097 C739 1.257 . S
C2106 C939 1.251 . S
C2108 C779 1.255 . S
C2117 C1130 1.250 . S
C2119 C970 1.261 . S
C2128 C1010 1.261 . S
C2130 C1170 1.251 . S
C2139 C1210 1.250 . S
C2141 C1050 1.256 . S
C2150 C1090 1.251 . S
C2152 C1250 1.262 . S
C2161 C282 2.710 . S
C2163 C2 2.712 . S
C2172 C42 2.712 . S
C2174 C162 2.711 . S
C2183 C82 2.711 . S
C2185 C202 2.711 . S
C2194 C242 2.710 . S
C2196 C122 2.711 . S
C2205 C331 2.710 . S
C2207 C611 2.711 . S
C2216 C491 2.712 . S
C2218 C371 2.711 . S
C2227 C531 2.711 . S
C2229 C411 2.712 . S
C2238 C451 2.711 . S
C2240 C571 2.711 . S
C2249 C642 2.712 . S
C2251 C922 2.711 . S
C2260 C802 2.711 . S
C2262 C682 2.711 . S
C2271 C842 2.711 . S
C2273 C722 2.711 . S
C2282 C882 2.711 . S
C2284 C762 2.711 . S
C2293 C971 2.710 . S
C2295 C1251 2.711 . S
C2304 C1131 2.712 . S
C2306 C1011 2.711 . S
C2315 C1051 2.711 . S
C2317 C1171 2.710 . S
C2326 C1211 2.710 . S
C2328 C1091 2.711 . S
