# Generated by pormake.
# Topology sxb, (6)-cn, num edge types: 1
# Building blocks:
#     Node 0, Type 0, BuildingBlock: NUHQIS_clean_sbu_0, # of connection points: 6
#     Node 1, Type 0, BuildingBlock: NUHQIS_clean_sbu_0, # of connection points: 6
#     Node 2, Type 0, BuildingBlock: NUHQIS_clean_sbu_0, # of connection points: 6
#     Node 3, Type 0, BuildingBlock: NUHQIS_clean_sbu_0, # of connection points: 6
#     Edge 4, Type (0, 0), BuildingBlock: KIFKEQ_clean_linker_1, # of connection points: 2
#     Edge 5, Type (0, 0), BuildingBlock: KIFKEQ_clean_linker_1, # of connection points: 2
#     Edge 6, Type (0, 0), BuildingBlock: KIFKEQ_clean_linker_1, # of connection points: 2
#     Edge 7, Type (0, 0), BuildingBlock: KIFKEQ_clean_linker_1, # of connection points: 2
#     Edge 8, Type (0, 0), BuildingBlock: KIFKEQ_clean_linker_1, # of connection points: 2
#     Edge 9, Type (0, 0), BuildingBlock: KIFKEQ_clean_linker_1, # of connection points: 2
#     Edge 10, Type (0, 0), BuildingBlock: KIFKEQ_clean_linker_1, # of connection points: 2
#     Edge 11, Type (0, 0), BuildingBlock: KIFKEQ_clean_linker_1, # of connection points: 2
#     Edge 12, Type (0, 0), BuildingBlock: KIFKEQ_clean_linker_1, # of connection points: 2
#     Edge 13, Type (0, 0), BuildingBlock: KIFKEQ_clean_linker_1, # of connection points: 2
#     Edge 14, Type (0, 0), BuildingBlock: KIFKEQ_clean_linker_1, # of connection points: 2
#     Edge 15, Type (0, 0), BuildingBlock: KIFKEQ_clean_linker_1, # of connection points: 2
# Relax obj value: 0.070
# Max RMSD: 0.160
# Mean RMSD: 0.160
data_MOF--net-sxb--node1-NUHQIS_clean_sbu_0--edge1-KIFKEQ_clean_linker_1
_symmetry_space_group_name_H-M    P1
_symmetry_Int_Tables_number       1
_symmetry_cell_setting            triclinic
loop_
_symmetry_equiv_pos_as_xyz
'x, y, z'
_cell_length_a     24.372074
_cell_length_b     17.675732
_cell_length_c     30.747243
_cell_angle_alpha  90.313046
_cell_angle_beta   95.340159
_cell_angle_gamma 89.923781
loop_
_atom_site_label
_atom_site_type_symbol
_atom_site_fract_x
_atom_site_fract_y
_atom_site_fract_z
_atom_type_partial_charge
Tb0 Tb 1.00792 0.94975 0.02038 0.0
Eu1 Eu 0.10324 0.08478 0.02557 0.0
C2 C 0.04959 0.01873 0.93602 0.0
C3 C 0.13225 0.90697 0.01752 0.0
C4 C 0.86514 0.88532 0.01782 0.0
C5 C 0.76848 0.86651 0.99197 0.0
C6 C 0.82386 0.84368 0.99345 0.0
C7 C 0.85002 0.94969 0.04094 0.0
C8 C 0.795 0.97279 0.03921 0.0
C9 C 0.75355 0.93196 0.01444 0.0
C10 C 0.92404 0.8649 0.01708 0.0
O11 O 0.05255 0.94635 0.08516 0.0
O12 O 0.0711 0.07282 0.09138 0.0
O13 O 1.02168 0.14442 0.01032 0.0
O14 O 0.9724 0.05355 0.0426 0.0
C15 C 0.06274 0.00716 0.10935 0.0
O16 O 0.17037 0.14114 0.06511 0.0
O17 O 0.15233 0.17225 -0.00271 0.0
O18 O 0.0966 0.03662 0.95771 0.0
O19 O 1.00601 0.00345 0.95652 0.0
O20 O 0.08096 0.88817 0.0047 0.0
O21 O 0.14571 0.97303 0.03502 0.0
C22 C 0.97642 0.1214 0.02632 0.0
O23 O 0.94714 0.88654 0.98275 0.0
O24 O 0.95571 0.87891 0.05268 0.0
C25 C 0.24658 0.15996 0.02494 0.0
C26 C 0.3578 0.11578 0.01873 0.0
C27 C 0.3434 0.16324 0.05296 0.0
C28 C 0.28857 0.18531 0.05583 0.0
C29 C 0.26063 0.11361 0.99039 0.0
C30 C 0.3155 0.09265 0.98701 0.0
C31 C 0.18817 0.1752 0.03165 0.0
H32 H 0.73752 0.83401 0.97244 0.0
H33 H 0.83455 0.7942 0.97507 0.0
H34 H 0.88085 -0.01743 0.06024 0.0
H35 H 0.78478 0.02243 0.0576 0.0
H36 H 0.37403 0.18165 0.07853 0.0
H37 H 0.2787 0.22032 0.08307 0.0
H38 H 0.22908 0.0926 0.9662 0.0
H39 H 0.32446 0.05793 0.95946 0.0
Tb40 Tb 0.08081 0.92806 0.52544 0.0
Eu41 Eu 0.98481 0.06197 0.51426 0.0
C42 C 1.03222 -0.00324 0.60687 0.0
C43 C 0.95534 0.88784 0.51664 0.0
C44 C 0.22112 0.86026 0.52191 0.0
C45 C 0.31916 0.83092 0.52735 0.0
C46 C 0.26468 0.80992 0.53289 0.0
C47 C 0.23258 0.93096 0.50425 0.0
C48 C 0.28678 0.95207 0.49885 0.0
C49 C 0.33102 0.90294 0.511 0.0
C50 C 0.16417 0.84217 0.53113 0.0
O51 O 0.0823 0.97669 0.46082 0.0
O52 O 0.9908 0.00375 0.4497 0.0
O53 O 0.06376 0.12026 0.50157 0.0
O54 O 0.11671 0.03683 0.54395 0.0
C55 C 0.03792 -0.01142 0.4343 0.0
O56 O 0.92136 0.12045 0.4719 0.0
O57 O 0.92886 0.14283 0.54132 0.0
O58 O 1.02072 0.05903 0.58454 0.0
O59 O 0.04349 0.9329 0.5872 0.0
O60 O 1.00427 0.8679 0.50561 0.0
O61 O 0.94647 0.9545 0.53319 0.0
C62 C 0.11135 0.09989 0.52173 0.0
O63 O 0.14685 0.87858 0.56416 0.0
O64 O 0.12726 0.84296 0.4976 0.0
C65 C 0.83842 0.12815 0.50559 0.0
C66 C 0.72719 0.07951 0.50315 0.0
C67 C 0.74484 0.12526 0.46977 0.0
C68 C 0.79992 0.14878 0.47084 0.0
C69 C 0.82077 0.083 0.53914 0.0
C70 C 0.76593 0.05907 0.53794 0.0
C71 C 0.89745 0.14809 0.50467 0.0
H72 H 0.35208 0.79167 0.53722 0.0
H73 H 0.25673 0.75513 0.54661 0.0
H74 H 0.19955 0.97055 0.49529 0.0
H75 H 0.29401 0.00721 0.4853 0.0
H76 H 0.71638 0.1416 0.44226 0.0
H77 H 0.81257 0.18269 0.44428 0.0
H78 H 0.84954 0.06495 0.56607 0.0
H79 H 0.75385 0.02461 0.56445 0.0
Tb80 Tb 0.47674 0.38325 0.9646 0.0
Eu81 Eu 0.57499 0.512 0.97046 0.0
C82 C 0.51654 0.45553 0.88152 0.0
C83 C 0.6001 0.33702 0.96647 0.0
C84 C 0.33735 0.30757 0.9661 0.0
C85 C 0.24001 0.29025 0.94311 0.0
C86 C 0.29529 0.27201 0.93932 0.0
C87 C 0.32335 0.36127 -0.00294 0.0
C88 C 0.26816 0.37948 0.00092 0.0
C89 C 0.22572 0.3448 0.97369 0.0
C90 C 0.39546 0.29428 0.95858 0.0
O91 O 0.4821 0.43076 0.03014 0.0
O92 O 0.57435 0.45446 0.03553 0.0
O93 O 0.49957 0.57661 0.9854 0.0
O94 O 0.43533 0.49145 0.9546 0.0
C95 C 0.52893 0.44153 0.05401 0.0
O96 O 0.63504 0.58336 0.0087 0.0
O97 O 0.63638 0.57612 0.93868 0.0
O98 O 0.52825 0.51751 0.90408 0.0
O99 O 0.50962 0.39104 0.90132 0.0
O100 O 0.55334 0.32202 0.98269 0.0
O101 O 0.60869 0.40206 0.94839 0.0
C102 C 0.44864 0.55824 0.97142 0.0
O103 O 0.41221 0.33059 0.92556 0.0
O104 O 0.43138 0.29841 0.99268 0.0
C105 C 0.72156 0.57349 0.98081 0.0
C106 C 0.83233 0.52515 0.98429 0.0
C107 C 0.81908 0.60265 0.9811 0.0
C108 C 0.76398 0.62659 0.9791 0.0
C109 C 0.7349 0.49649 0.98549 0.0
C110 C 0.78964 0.47251 0.987 0.0
C111 C 0.66322 0.59664 0.9755 0.0
H112 H 0.20847 0.26147 0.92209 0.0
H113 H 0.30524 0.23085 0.91502 0.0
H114 H 0.35516 0.39072 0.01751 0.0
H115 H 0.25893 0.4227 0.02425 0.0
H116 H 0.85114 0.64442 0.97879 0.0
H117 H 0.75443 0.68619 0.97542 0.0
H118 H 0.70284 0.45463 0.9873 0.0
H119 H 0.79857 0.41262 0.99013 0.0
Tb120 Tb 0.5842 0.4047 0.47338 0.0
Eu121 Eu 0.48756 0.53972 0.46495 0.0
C122 C 0.535 0.4687 0.55538 0.0
C123 C 0.45965 0.36115 0.47006 0.0
C124 C 0.72726 0.33993 0.4751 0.0
C125 C 0.82389 0.33758 0.50374 0.0
C126 C 0.76919 0.31464 0.50599 0.0
C127 C 0.74102 0.38869 0.44182 0.0
C128 C 0.79557 0.41229 0.43982 0.0
C129 C 0.83766 0.38747 0.47093 0.0
C130 C 0.66903 0.32194 0.48073 0.0
O131 O 0.57957 0.44968 0.40741 0.0
O132 O 0.48828 0.48079 0.40015 0.0
O133 O 0.56614 0.59739 0.45054 0.0
O134 O 0.61974 0.51319 0.49162 0.0
C135 C 0.53353 0.46206 0.38279 0.0
O136 O 0.42435 0.60611 0.42686 0.0
O137 O 0.43562 0.61971 0.49688 0.0
O138 O 0.52548 0.5327 0.53452 0.0
O139 O 0.54612 0.40628 0.53455 0.0
O140 O 0.50862 0.33997 0.45973 0.0
O141 O 0.44736 0.4309 0.48038 0.0
C142 C 0.61422 0.57591 0.46925 0.0
O143 O 0.64926 0.35608 0.51348 0.0
O144 O 0.63407 0.32321 0.44586 0.0
C145 C 0.34318 0.61912 0.46382 0.0
C146 C 0.23071 0.57932 0.46701 0.0
C147 C 0.25158 0.59627 0.427 0.0
C148 C 0.30702 0.61608 0.42545 0.0
C149 C 0.32182 0.6053 0.50403 0.0
C150 C 0.26639 0.58556 0.50558 0.0
C151 C 0.40322 0.63208 0.46144 0.0
H152 H 0.85514 0.31799 0.52848 0.0
H153 H 0.75948 0.27797 0.53234 0.0
H154 H 0.7094 0.41039 0.41803 0.0
H155 H 0.80473 0.45043 0.41402 0.0
H156 H 0.22557 0.59175 0.39657 0.0
H157 H 0.32196 0.62695 0.39398 0.0
H158 H 0.34813 0.60814 0.53438 0.0
H159 H 0.25159 0.57471 0.53708 0.0
H160 H 0.45021 0.68468 0.02306 0.0
H161 H 0.34472 0.55324 0.9305 0.0
H162 H 0.37282 0.76696 0.03519 0.0
H163 H 0.26804 0.63695 0.94129 0.0
H164 H 0.12809 0.75307 0.00448 0.0
H165 H 0.20546 0.66906 0.99337 0.0
H166 H 0.31566 0.86134 0.00137 0.0
H167 H 0.23956 0.94375 0.01423 0.0
C168 C 0.41075 0.67418 0.00475 0.0
C169 C 0.40358 0.61262 0.97583 0.0
C170 C 0.36636 0.72133 0.01165 0.0
C171 C 0.31407 0.70838 0.98932 0.0
C172 C 0.30737 0.64766 0.9597 0.0
C173 C 0.35154 0.60009 0.95318 0.0
C174 C 0.16897 0.77697 0.00403 0.0
C175 C 0.17784 0.8547 0.01068 0.0
C176 C 0.21322 0.72909 -0.00259 0.0
C177 C 0.26688 0.75845 -0.00333 0.0
C178 C 0.27527 0.83643 0.00277 0.0
C179 C 0.23142 0.88384 0.00997 0.0
H180 H 0.64384 0.29445 0.04626 0.0
H181 H 0.66806 0.28229 0.90937 0.0
H182 H 0.73864 0.2546 0.06487 0.0
H183 H 0.76172 0.23642 0.92722 0.0
H184 H 0.94191 0.22872 0.96578 0.0
H185 H 0.84834 0.27882 0.95294 0.0
H186 H 0.80344 0.16209 0.06778 0.0
H187 H 0.89689 0.11696 0.08171 0.0
C188 C 0.6689 0.27946 0.02017 0.0
C189 C 0.64883 0.28986 0.97647 0.0
C190 C 0.72349 0.25722 0.0307 0.0
C191 C 0.75862 0.24336 -0.00241 0.0
C192 C 0.73678 0.24895 0.9537 0.0
C193 C 0.68271 0.27321 0.94331 0.0
C194 C 0.91235 0.21637 0.98898 0.0
C195 C 0.92628 0.1682 0.02431 0.0
C196 C 0.85839 0.24367 0.98125 0.0
C197 C 0.81755 0.22287 0.00861 0.0
C198 C 0.83321 0.17953 0.04584 0.0
C199 C 0.88697 0.15317 0.05376 0.0
H200 H 0.20867 0.08554 0.57097 0.0
H201 H 0.12962 0.2076 0.46072 0.0
H202 H 0.29708 0.13603 0.55614 0.0
H203 H 0.21904 0.26114 0.44685 0.0
H204 H 0.3944 0.28374 0.40866 0.0
H205 H 0.30854 0.21816 0.42154 0.0
H206 H 0.34384 0.25583 0.56043 0.0
H207 H 0.4291 0.31937 0.54728 0.0
C208 C 0.20999 0.12445 0.54398 0.0
C209 C 0.16212 0.14269 0.51695 0.0
C210 C 0.26082 0.15327 0.5355 0.0
C211 C 0.26502 0.20181 0.5001 0.0
C212 C 0.21699 0.22247 0.47386 0.0
C213 C 0.16578 0.1931 0.48225 0.0
C214 C 0.3844 0.27498 0.44186 0.0
C215 C 0.41815 0.30469 0.47716 0.0
C216 C 0.33508 0.239 0.44922 0.0
C217 C 0.31932 0.23278 0.49194 0.0
C218 C 0.35506 0.2591 0.52722 0.0
C219 C 0.40397 0.29497 0.51983 0.0
H220 H 0.85225 0.91227 0.54024 0.0
H221 H 0.94837 0.7537 0.47085 0.0
H222 H 0.76984 0.8397 0.51983 0.0
H223 H 0.86463 0.68046 0.45028 0.0
H224 H 0.71918 0.52912 0.4864 0.0
H225 H 0.80212 0.60429 0.49201 0.0
H226 H 0.70639 0.8033 0.4545 0.0
H227 H 0.62177 0.72719 0.44934 0.0
C228 C 0.85591 0.86181 0.52059 0.0
C229 C 0.90704 0.83853 0.50725 0.0
C230 C 0.80836 0.82087 0.50843 0.0
C231 C 0.81076 0.75537 0.48291 0.0
C232 C 0.86183 0.73113 0.46992 0.0
C233 C 0.9097 0.77256 0.48195 0.0
C234 C 0.71556 0.58872 0.47876 0.0
C235 C 0.66386 0.62261 0.46795 0.0
C236 C 0.76337 0.63152 0.48147 0.0
C237 C 0.76069 0.7093 0.47351 0.0
C238 C 0.70931 0.74316 0.46095 0.0
C239 C 0.66108 0.69987 0.45793 0.0
H240 H 0.4551 0.18844 0.04776 0.0
H241 H 0.39417 0.98049 0.98622 0.0
H242 H 0.54874 0.14385 0.04556 0.0
H243 H 0.48803 0.93812 0.98164 0.0
H244 H 0.6609 0.84741 0.02242 0.0
H245 H 0.56611 0.89151 0.0229 0.0
H246 H 0.61937 0.12015 0.00057 0.0
H247 H 0.71424 0.07604 0.00172 0.0
C248 C 0.46125 0.13352 0.03335 0.0
C249 C 0.4161 0.089 0.01665 0.0
C250 C 0.51549 0.10813 0.03165 0.0
C251 C 0.52654 0.03729 0.01318 0.0
C252 C 0.48153 -0.00734 -0.00348 0.0
C253 C 0.42728 0.01784 -0.00154 0.0
C254 C 0.6522 0.90698 0.01732 0.0
C255 C 0.69517 0.95818 0.01229 0.0
C256 C 0.59771 0.93244 0.01744 0.0
C257 C 0.5846 0.00974 0.01196 0.0
C258 C 0.62768 0.06059 0.00593 0.0
C259 C 0.68219 0.03524 0.00635 0.0
H260 H 0.41844 0.82022 0.48536 0.0
H261 H 0.37566 0.04298 0.52991 0.0
H262 H 0.5132 0.86196 0.48108 0.0
H263 H 0.47005 0.08448 0.52592 0.0
H264 H 0.63221 0.1582 0.47821 0.0
H265 H 0.53721 0.11483 0.47727 0.0
H266 H 0.59494 0.89687 0.52545 0.0
H267 H 0.68983 0.93935 0.52462 0.0
C268 C 0.42924 0.87793 0.49453 0.0
C269 C 0.38912 0.92811 0.5079 0.0
C270 C 0.48371 0.90196 0.49209 0.0
C271 C 0.49964 0.97679 0.5031 0.0
C272 C 0.45939 0.02689 0.51638 0.0
C273 C 0.40502 0.00295 0.51872 0.0
C274 C 0.62469 0.10075 0.48811 0.0
C275 C 0.6689 0.05256 0.50173 0.0
C276 C 0.57005 0.07603 0.48806 0.0
C277 C 0.55802 0.00231 0.50157 0.0
C278 C 0.60233 0.95375 0.51448 0.0
C279 C 0.65692 0.9785 0.51456 0.0
H280 H 0.86931 0.41021 0.93545 0.0
H281 H 0.92573 0.58036 0.03034 0.0
H282 H 0.96337 0.36336 0.93436 0.0
H283 H 1.02046 0.53471 0.02853 0.0
H284 H 0.17297 0.3787 0.04664 0.0
H285 H 0.07825 0.42221 0.04977 0.0
H286 H 0.05087 0.40568 0.90928 0.0
H287 H 0.14552 0.36351 0.90598 0.0
C288 C 0.90188 0.43723 0.95631 0.0
C289 C 0.89008 0.49844 0.98329 0.0
C290 C 0.95585 0.41094 0.95535 0.0
C291 C 0.99946 0.44514 0.98143 0.0
C292 C 0.98771 0.50653 0.00843 0.0
C293 C 0.93361 0.53317 0.00917 0.0
C294 C 0.1469 0.38487 0.01637 0.0
C295 C 0.16711 0.3677 0.97604 0.0
C296 C 0.09258 0.40977 0.0182 0.0
C297 C 0.05702 0.41762 0.97978 0.0
C298 C 0.07694 0.39936 0.93955 0.0
C299 C 0.13126 0.37491 0.93769 0.0
H300 H 0.1374 0.62907 0.41825 0.0
H301 H 0.19213 0.46858 0.51852 0.0
H302 H 0.04367 0.58165 0.41817 0.0
H303 H 0.09798 0.42404 0.52029 0.0
H304 H 0.93397 0.30638 0.48251 0.0
H305 H 1.02806 0.3526 0.48136 0.0
H306 H 0.96568 0.57925 0.45766 0.0
H307 H 0.87188 0.53211 0.45727 0.0
C308 C 0.12948 0.58381 0.44041 0.0
C309 C 0.17262 0.55278 0.46835 0.0
C310 C 0.07541 0.55713 0.44079 0.0
C311 C 0.06276 0.49879 0.46926 0.0
C312 C 0.10591 0.46821 0.49744 0.0
C313 C 0.16001 0.49467 0.49692 0.0
C314 C 0.94045 0.36608 0.47717 0.0
C315 C 0.8953 0.41549 0.47 0.0
C316 C 0.99451 0.39282 0.47668 0.0
C317 C 1.00497 0.46997 0.46949 0.0
C318 C 0.95962 0.51931 0.46248 0.0
C319 C 0.90561 0.49235 0.46245 0.0
H320 H 0.11866 0.9261 0.38953 0.0
H321 H 0.96552 0.05052 0.37135 0.0
H322 H 0.12544 0.92825 0.31057 0.0
H323 H 0.97294 0.05346 0.29268 0.0
H324 H 0.0491 0.12333 0.16588 0.0
H325 H 0.04306 0.11633 0.24454 0.0
H326 H 0.06758 0.87467 0.24002 0.0
H327 H 0.07288 0.88119 0.16091 0.0
C328 C 0.0865 0.95384 0.3687 0.0
C329 C 0.04158 -0.01178 0.3866 0.0
C330 C 0.09029 0.95472 0.3236 0.0
C331 C 0.04979 -0.0088 0.29572 0.0
C332 C 1.00488 0.02541 0.31358 0.0
C333 C 1.00055 0.02338 0.35853 0.0
C334 C 0.05349 0.06869 0.18162 0.0
C335 C 0.06149 0.00277 0.15723 0.0
C336 C 0.04968 0.06472 0.22657 0.0
C337 C 0.0547 -0.00503 0.24817 0.0
C338 C 0.06379 0.92916 0.22405 0.0
C339 C 0.06662 0.9329 0.17886 0.0
H340 H 0.1188 0.08429 0.88234 0.0
H341 H 0.97181 0.9474 0.88046 0.0
H342 H 0.11346 0.0785 0.80264 0.0
H343 H 0.96708 0.94091 0.80062 0.0
H344 H 1.02571 0.87824 0.66323 0.0
H345 H 1.02845 0.88381 0.74304 0.0
H346 H 0.04509 0.12665 0.73914 0.0
H347 H 0.04165 0.12152 0.65957 0.0
C348 C 0.08538 0.05295 0.86494 0.0
C349 C 0.04564 0.01643 0.88769 0.0
C350 C 0.08225 0.0499 0.81933 0.0
C351 C 0.0399 0.00919 0.79555 0.0
C352 C 1.00034 0.97227 0.81823 0.0
C353 C 1.00288 0.97644 0.86385 0.0
C354 C 1.02987 0.93278 0.67942 0.0
C355 C 1.03344 -0.00058 0.65509 0.0
C356 C 1.03114 0.93595 0.72502 0.0
C357 C 1.03705 0.00565 0.74718 0.0
C358 C 0.04085 0.07216 0.72288 0.0
C359 C 0.0386 0.06916 0.67732 0.0
H360 H 0.61609 0.41237 0.33524 0.0
H361 H 0.44981 0.5002 0.32141 0.0
H362 H 0.61502 0.40378 0.25605 0.0
H363 H 0.44934 0.49369 0.24231 0.0
H364 H 0.44566 0.40358 0.10351 0.0
H365 H 0.44723 0.40537 0.18283 0.0
H366 H 0.61618 0.48248 0.19288 0.0
H367 H 0.61512 0.47856 0.11365 0.0
C368 C 0.57939 0.43022 0.31532 0.0
C369 C 0.53303 0.45697 0.33468 0.0
C370 C 0.57889 0.42565 0.26987 0.0
C371 C 0.5321 0.44807 0.24272 0.0
C372 C 0.48576 0.47479 0.26218 0.0
C373 C 0.48615 0.47899 0.3076 0.0
C374 C 0.48321 0.42072 0.12265 0.0
C375 C 0.53023 0.4411 0.10223 0.0
C376 C 0.48401 0.42216 0.16816 0.0
C377 C 0.53176 0.44439 0.19432 0.0
C378 C 0.57893 0.46411 0.17383 0.0
C379 C 0.57823 0.46228 0.12833 0.0
H380 H 0.55298 0.58461 0.6136 0.0
H381 H 0.50963 0.34802 0.60426 0.0
H382 H 0.54864 0.581 0.69228 0.0
H383 H 0.50118 0.34512 0.68238 0.0
H384 H 0.54399 0.34079 0.82856 0.0
H385 H 0.54951 0.34434 0.75011 0.0
H386 H 0.49168 0.57614 0.74789 0.0
H387 H 0.49006 0.57347 0.82696 0.0
C388 C 0.54183 0.53204 0.62843 0.0
C389 C 0.53181 0.46657 0.60296 0.0
C390 C 0.53882 0.52998 0.67355 0.0
C391 C 0.52435 0.46278 0.69408 0.0
C392 C 0.51364 0.39754 0.66818 0.0
C393 C 0.51806 0.39921 0.62325 0.0
C394 C 0.53234 0.39233 0.81115 0.0
C395 C 0.51667 0.45688 0.83368 0.0
C396 C 0.53513 0.39438 0.76604 0.0
C397 C 0.52098 0.46054 0.74223 0.0
C398 C 0.50415 0.52466 0.76498 0.0
C399 C 0.50271 0.52309 0.81028 0.0
loop_
_geom_bond_atom_site_label_1
_geom_bond_atom_site_label_2
_geom_bond_distance
_geom_bond_site_symmetry_2
_ccdc_geom_bond_type
Tb0 C10 2.825 . S
Tb0 O11 2.347 1_556 S
Tb0 O14 2.366 1_565 S
Tb0 O19 2.418 . S
Tb0 O20 2.384 1_655 S
Tb0 O23 2.479 . S
Tb0 O24 2.471 1_556 S
Eu1 O12 2.418 . S
Eu1 O13 2.384 1_455 S
Eu1 O16 2.479 . S
Eu1 O17 2.471 1_554 S
Eu1 O18 2.347 1_554 S
Eu1 O21 2.366 1_545 S
Eu1 C31 2.825 . S
C2 O18 1.259 1_665 S
C2 O19 1.265 . S
C3 O20 1.255 1_554 S
C3 O21 1.265 . S
C4 C6 1.368 1_554 S
C4 C7 1.389 . S
C4 C10 1.504 1_554 S
C5 C6 1.384 . S
C5 C9 1.387 1_556 S
C5 H32 0.930 . S
C6 C4 1.368 1_556 S
C6 C5 1.384 . S
C6 H33 0.931 . S
C7 C4 1.389 . S
C7 C8 1.390 . S
C7 H34 0.930 . S
C8 C7 1.390 . S
C8 C9 1.391 . S
C8 H35 0.930 . S
C9 C5 1.387 1_554 S
C9 C8 1.391 . S
C10 Tb0 2.825 . S
C10 C4 1.504 1_556 S
C10 O23 1.238 . S
C10 O24 1.247 1_556 S
O11 Tb0 2.347 1_554 S
O11 C15 1.259 1_665 S
O12 Eu1 2.418 . S
O12 C15 1.265 . S
O13 Eu1 2.384 1_655 S
O13 C22 1.255 1_554 S
O14 Tb0 2.366 1_545 S
O14 C22 1.265 . S
C15 O11 1.259 1_445 S
C15 O12 1.265 . S
O16 Eu1 2.479 . S
O16 C31 1.238 . S
O17 Eu1 2.471 1_556 S
O17 C31 1.247 1_556 S
O18 Eu1 2.347 1_556 S
O18 C2 1.259 1_445 S
O19 Tb0 2.418 . S
O19 C2 1.265 . S
O20 Tb0 2.384 1_455 S
O20 C3 1.255 1_556 S
O21 Eu1 2.366 1_565 S
O21 C3 1.265 . S
C22 O13 1.255 1_556 S
C22 O14 1.265 . S
O23 Tb0 2.479 . S
O23 C10 1.238 . S
O24 Tb0 2.471 1_554 S
O24 C10 1.247 1_554 S
C25 C28 1.372 1_556 S
C25 C29 1.384 . S
C25 C31 1.505 1_556 S
C26 C27 1.387 1_556 S
C26 C30 1.391 . S
C27 C26 1.387 1_554 S
C27 C28 1.384 . S
C27 H36 0.930 . S
C28 C25 1.372 1_554 S
C28 C27 1.384 . S
C28 H37 0.931 . S
C29 C25 1.384 . S
C29 C30 1.390 . S
C29 H38 0.930 . S
C30 C26 1.391 . S
C30 C29 1.390 . S
C30 H39 0.930 . S
C31 Eu1 2.825 . S
C31 O16 1.238 . S
C31 O17 1.247 1_554 S
C31 C25 1.505 1_554 S
H32 C5 0.930 . S
H33 C6 0.931 . S
H34 C7 0.930 . S
H35 C8 0.930 . S
H36 C27 0.930 . S
H37 C28 0.931 . S
H38 C29 0.930 . S
H39 C30 0.930 . S
Tb40 C50 2.825 . S
Tb40 O51 2.347 . S
Tb40 O54 2.366 1_565 S
Tb40 O59 2.418 . S
Tb40 O60 2.384 1_455 S
Tb40 O63 2.479 . S
Tb40 O64 2.471 . S
Eu41 O52 2.418 . S
Eu41 O53 2.384 1_655 S
Eu41 O56 2.479 . S
Eu41 O57 2.471 . S
Eu41 O58 2.347 . S
Eu41 O61 2.366 1_545 S
Eu41 C71 2.825 . S
C42 O58 1.259 1_465 S
C42 O59 1.265 . S
C43 O60 1.255 . S
C43 O61 1.265 . S
C44 C46 1.380 . S
C44 C47 1.374 . S
C44 C50 1.507 . S
C45 C46 1.384 . S
C45 C49 1.387 . S
C45 H72 0.930 . S
C46 C44 1.380 . S
C46 C45 1.384 . S
C46 H73 0.931 . S
C47 C44 1.374 . S
C47 C48 1.390 . S
C47 H74 0.930 . S
C48 C47 1.390 . S
C48 C49 1.391 . S
C48 H75 0.930 . S
C49 C45 1.387 . S
C49 C48 1.391 . S
C50 Tb40 2.825 . S
C50 C44 1.507 . S
C50 O63 1.238 . S
C50 O64 1.247 . S
O51 Tb40 2.347 . S
O51 C55 1.259 1_465 S
O52 Eu41 2.418 . S
O52 C55 1.265 . S
O53 Eu41 2.384 1_455 S
O53 C62 1.255 . S
O54 Tb40 2.366 1_545 S
O54 C62 1.265 . S
C55 O51 1.259 1_645 S
C55 O52 1.265 . S
O56 Eu41 2.479 . S
O56 C71 1.238 . S
O57 Eu41 2.471 . S
O57 C71 1.247 . S
O58 Eu41 2.347 . S
O58 C42 1.259 1_645 S
O59 Tb40 2.418 . S
O59 C42 1.265 . S
O60 Tb40 2.384 1_655 S
O60 C43 1.255 . S
O61 Eu41 2.366 1_565 S
O61 C43 1.265 . S
C62 O53 1.255 . S
C62 O54 1.265 . S
O63 Tb40 2.479 . S
O63 C50 1.238 . S
O64 Tb40 2.471 . S
O64 C50 1.247 . S
C65 C68 1.380 . S
C65 C69 1.374 . S
C65 C71 1.507 . S
C66 C67 1.387 . S
C66 C70 1.391 . S
C67 C66 1.387 . S
C67 C68 1.384 . S
C67 H76 0.930 . S
C68 C65 1.380 . S
C68 C67 1.384 . S
C68 H77 0.931 . S
C69 C65 1.374 . S
C69 C70 1.390 . S
C69 H78 0.930 . S
C70 C66 1.391 . S
C70 C69 1.390 . S
C70 H79 0.930 . S
C71 Eu41 2.825 . S
C71 O56 1.238 . S
C71 O57 1.247 . S
C71 C65 1.507 . S
H72 C45 0.930 . S
H73 C46 0.931 . S
H74 C47 0.930 . S
H75 C48 0.930 . S
H76 C67 0.930 . S
H77 C68 0.931 . S
H78 C69 0.930 . S
H79 C70 0.930 . S
Tb80 C90 2.825 . S
Tb80 O91 2.347 1_556 S
Tb80 O94 2.366 . S
Tb80 O99 2.418 . S
Tb80 O100 2.384 . S
Tb80 O103 2.479 . S
Tb80 O104 2.471 1_556 S
Eu81 O92 2.418 . S
Eu81 O93 2.384 . S
Eu81 O96 2.479 . S
Eu81 O97 2.471 1_554 S
Eu81 O98 2.347 1_554 S
Eu81 O101 2.366 . S
Eu81 C111 2.825 . S
C82 O98 1.259 . S
C82 O99 1.265 . S
C83 O100 1.255 1_554 S
C83 O101 1.265 . S
C84 C86 1.368 1_554 S
C84 C87 1.389 . S
C84 C90 1.504 1_554 S
C85 C86 1.384 . S
C85 C89 1.387 1_556 S
C85 H112 0.930 . S
C86 C84 1.368 1_556 S
C86 C85 1.384 . S
C86 H113 0.931 . S
C87 C84 1.389 . S
C87 C88 1.390 . S
C87 H114 0.930 . S
C88 C87 1.390 . S
C88 C89 1.391 . S
C88 H115 0.930 . S
C89 C85 1.387 1_554 S
C89 C88 1.391 . S
C90 Tb80 2.825 . S
C90 C84 1.504 1_556 S
C90 O103 1.238 . S
C90 O104 1.247 1_556 S
O91 Tb80 2.347 1_554 S
O91 C95 1.259 . S
O92 Eu81 2.418 . S
O92 C95 1.265 . S
O93 Eu81 2.384 . S
O93 C102 1.255 1_554 S
O94 Tb80 2.366 . S
O94 C102 1.265 . S
C95 O91 1.259 . S
C95 O92 1.265 . S
O96 Eu81 2.479 . S
O96 C111 1.238 . S
O97 Eu81 2.471 1_556 S
O97 C111 1.247 1_556 S
O98 Eu81 2.347 1_556 S
O98 C82 1.259 . S
O99 Tb80 2.418 . S
O99 C82 1.265 . S
O100 Tb80 2.384 . S
O100 C83 1.255 1_556 S
O101 Eu81 2.366 . S
O101 C83 1.265 . S
C102 O93 1.255 1_556 S
C102 O94 1.265 . S
O103 Tb80 2.479 . S
O103 C90 1.238 . S
O104 Tb80 2.471 1_554 S
O104 C90 1.247 1_554 S
C105 C108 1.372 1_556 S
C105 C109 1.384 . S
C105 C111 1.505 1_556 S
C106 C107 1.387 1_556 S
C106 C110 1.391 . S
C107 C106 1.387 1_554 S
C107 C108 1.384 . S
C107 H116 0.930 . S
C108 C105 1.372 1_554 S
C108 C107 1.384 . S
C108 H117 0.931 . S
C109 C105 1.384 . S
C109 C110 1.390 . S
C109 H118 0.930 . S
C110 C106 1.391 . S
C110 C109 1.390 . S
C110 H119 0.930 . S
C111 Eu81 2.825 . S
C111 O96 1.238 . S
C111 O97 1.247 1_554 S
C111 C105 1.505 1_554 S
H112 C85 0.930 . S
H113 C86 0.931 . S
H114 C87 0.930 . S
H115 C88 0.930 . S
H116 C107 0.930 . S
H117 C108 0.931 . S
H118 C109 0.930 . S
H119 C110 0.930 . S
Tb120 C130 2.825 . S
Tb120 O131 2.347 . S
Tb120 O134 2.366 . S
Tb120 O139 2.418 . S
Tb120 O140 2.384 . S
Tb120 O143 2.479 . S
Tb120 O144 2.471 . S
Eu121 O132 2.418 . S
Eu121 O133 2.384 . S
Eu121 O136 2.479 . S
Eu121 O137 2.471 . S
Eu121 O138 2.347 . S
Eu121 O141 2.366 . S
Eu121 C151 2.825 . S
C122 O138 1.259 . S
C122 O139 1.265 . S
C123 O140 1.255 . S
C123 O141 1.265 . S
C124 C126 1.380 . S
C124 C127 1.374 . S
C124 C130 1.507 . S
C125 C126 1.384 . S
C125 C129 1.387 . S
C125 H152 0.930 . S
C126 C124 1.380 . S
C126 C125 1.384 . S
C126 H153 0.931 . S
C127 C124 1.374 . S
C127 C128 1.390 . S
C127 H154 0.930 . S
C128 C127 1.390 . S
C128 C129 1.391 . S
C128 H155 0.930 . S
C129 C125 1.387 . S
C129 C128 1.391 . S
C130 Tb120 2.825 . S
C130 C124 1.507 . S
C130 O143 1.238 . S
C130 O144 1.247 . S
O131 Tb120 2.347 . S
O131 C135 1.259 . S
O132 Eu121 2.418 . S
O132 C135 1.265 . S
O133 Eu121 2.384 . S
O133 C142 1.255 . S
O134 Tb120 2.366 . S
O134 C142 1.265 . S
C135 O131 1.259 . S
C135 O132 1.265 . S
O136 Eu121 2.479 . S
O136 C151 1.238 . S
O137 Eu121 2.471 . S
O137 C151 1.247 . S
O138 Eu121 2.347 . S
O138 C122 1.259 . S
O139 Tb120 2.418 . S
O139 C122 1.265 . S
O140 Tb120 2.384 . S
O140 C123 1.255 . S
O141 Eu121 2.366 . S
O141 C123 1.265 . S
C142 O133 1.255 . S
C142 O134 1.265 . S
O143 Tb120 2.479 . S
O143 C130 1.238 . S
O144 Tb120 2.471 . S
O144 C130 1.247 . S
C145 C148 1.380 . S
C145 C149 1.374 . S
C145 C151 1.507 . S
C146 C147 1.387 . S
C146 C150 1.391 . S
C147 C146 1.387 . S
C147 C148 1.384 . S
C147 H156 0.930 . S
C148 C145 1.380 . S
C148 C147 1.384 . S
C148 H157 0.931 . S
C149 C145 1.374 . S
C149 C150 1.390 . S
C149 H158 0.930 . S
C150 C146 1.391 . S
C150 C149 1.390 . S
C150 H159 0.930 . S
C151 Eu121 2.825 . S
C151 O136 1.238 . S
C151 O137 1.247 . S
C151 C145 1.507 . S
H152 C125 0.930 . S
H153 C126 0.931 . S
H154 C127 0.930 . S
H155 C128 0.930 . S
H156 C147 0.930 . S
H157 C148 0.931 . S
H158 C149 0.930 . S
H159 C150 0.930 . S
H160 C168 0.950 . S
H161 C173 0.950 . S
H162 C170 0.950 . S
H163 C172 0.950 . S
H164 C174 0.950 . S
H165 C176 0.950 . S
H166 C178 0.950 . S
H167 C179 0.950 . S
C168 H160 0.950 . S
C168 C169 1.386 . S
C168 C170 1.391 . S
C169 C168 1.386 . S
C169 C173 1.393 . S
C170 H162 0.950 . S
C170 C168 1.391 . S
C170 C171 1.400 . S
C171 C170 1.400 . S
C171 C172 1.398 . S
C171 C177 1.491 1_556 S
C172 H163 0.950 . S
C172 C171 1.398 . S
C172 C173 1.391 . S
C173 H161 0.950 . S
C173 C169 1.393 . S
C173 C172 1.391 . S
C174 H164 0.950 . S
C174 C175 1.386 . S
C174 C176 1.391 . S
C175 C174 1.386 . S
C175 C179 1.393 . S
C176 H165 0.950 . S
C176 C174 1.391 . S
C176 C177 1.400 . S
C177 C171 1.491 1_554 S
C177 C176 1.400 . S
C177 C178 1.398 . S
C178 H166 0.950 . S
C178 C177 1.398 . S
C178 C179 1.391 . S
C179 H167 0.950 . S
C179 C175 1.393 . S
C179 C178 1.391 . S
H180 C188 0.950 . S
H181 C193 0.950 . S
H182 C190 0.950 . S
H183 C192 0.950 . S
H184 C194 0.950 . S
H185 C196 0.950 . S
H186 C198 0.950 . S
H187 C199 0.950 . S
C188 H180 0.950 . S
C188 C189 1.386 . S
C188 C190 1.391 . S
C189 C188 1.386 . S
C189 C193 1.393 1_554 S
C190 H182 0.950 . S
C190 C188 1.391 . S
C190 C191 1.411 . S
C191 C190 1.411 . S
C191 C192 1.390 1_554 S
C191 C197 1.487 1_554 S
C192 H183 0.950 . S
C192 C191 1.390 1_556 S
C192 C193 1.391 . S
C193 H181 0.950 . S
C193 C189 1.393 1_556 S
C193 C192 1.391 . S
C194 H184 0.950 . S
C194 C195 1.386 . S
C194 C196 1.391 . S
C195 C194 1.386 . S
C195 C199 1.393 1_556 S
C196 H185 0.950 . S
C196 C194 1.391 . S
C196 C197 1.407 . S
C197 C191 1.487 1_556 S
C197 C196 1.407 . S
C197 C198 1.393 1_556 S
C198 H186 0.950 . S
C198 C197 1.393 1_554 S
C198 C199 1.391 . S
C199 H187 0.950 . S
C199 C195 1.393 1_554 S
C199 C198 1.391 . S
H200 C208 0.950 . S
H201 C213 0.950 . S
H202 C210 0.950 . S
H203 C212 0.950 . S
H204 C214 0.950 . S
H205 C216 0.950 . S
H206 C218 0.950 . S
H207 C219 0.950 . S
C208 H200 0.950 . S
C208 C209 1.386 . S
C208 C210 1.391 . S
C209 C208 1.386 . S
C209 C213 1.393 . S
C210 H202 0.950 . S
C210 C208 1.391 . S
C210 C211 1.400 . S
C211 C210 1.400 . S
C211 C212 1.398 . S
C211 C217 1.491 . S
C212 H203 0.950 . S
C212 C211 1.398 . S
C212 C213 1.391 . S
C213 H201 0.950 . S
C213 C209 1.393 . S
C213 C212 1.391 . S
C214 H204 0.950 . S
C214 C215 1.386 . S
C214 C216 1.391 . S
C215 C214 1.386 . S
C215 C219 1.393 . S
C216 H205 0.950 . S
C216 C214 1.391 . S
C216 C217 1.400 . S
C217 C211 1.491 . S
C217 C216 1.400 . S
C217 C218 1.398 . S
C218 H206 0.950 . S
C218 C217 1.398 . S
C218 C219 1.391 . S
C219 H207 0.950 . S
C219 C215 1.393 . S
C219 C218 1.391 . S
H220 C228 0.950 . S
H221 C233 0.950 . S
H222 C230 0.950 . S
H223 C232 0.950 . S
H224 C234 0.950 . S
H225 C236 0.950 . S
H226 C238 0.950 . S
H227 C239 0.950 . S
C228 H220 0.950 . S
C228 C229 1.386 . S
C228 C230 1.391 . S
C229 C228 1.386 . S
C229 C233 1.393 . S
C230 H222 0.950 . S
C230 C228 1.391 . S
C230 C231 1.400 . S
C231 C230 1.400 . S
C231 C232 1.398 . S
C231 C237 1.491 . S
C232 H223 0.950 . S
C232 C231 1.398 . S
C232 C233 1.391 . S
C233 H221 0.950 . S
C233 C229 1.393 . S
C233 C232 1.391 . S
C234 H224 0.950 . S
C234 C235 1.386 . S
C234 C236 1.391 . S
C235 C234 1.386 . S
C235 C239 1.393 . S
C236 H225 0.950 . S
C236 C234 1.391 . S
C236 C237 1.400 . S
C237 C231 1.491 . S
C237 C236 1.400 . S
C237 C238 1.398 . S
C238 H226 0.950 . S
C238 C237 1.398 . S
C238 C239 1.391 . S
C239 H227 0.950 . S
C239 C235 1.393 . S
C239 C238 1.391 . S
H240 C248 0.950 . S
H241 C253 0.950 1_565 S
H242 C250 0.950 . S
H243 C252 0.950 . S
H244 C254 0.950 . S
H245 C256 0.950 . S
H246 C258 0.950 . S
H247 C259 0.950 1_545 S
C248 H240 0.950 . S
C248 C249 1.386 1_554 S
C248 C250 1.391 . S
C249 C248 1.386 1_556 S
C249 C253 1.393 . S
C250 H242 0.950 . S
C250 C248 1.391 . S
C250 C251 1.400 1_554 S
C251 C250 1.400 1_556 S
C251 C252 1.398 1_545 S
C251 C257 1.491 1_546 S
C252 H243 0.950 . S
C252 C251 1.398 1_565 S
C252 C253 1.391 1_565 S
C253 H241 0.950 1_545 S
C253 C249 1.393 . S
C253 C252 1.391 1_545 S
C254 H244 0.950 . S
C254 C255 1.386 1_556 S
C254 C256 1.391 . S
C255 C254 1.386 1_554 S
C255 C259 1.393 . S
C256 H245 0.950 . S
C256 C254 1.391 . S
C256 C257 1.400 1_556 S
C257 C251 1.491 1_564 S
C257 C256 1.400 1_554 S
C257 C258 1.398 1_565 S
C258 H246 0.950 . S
C258 C257 1.398 1_545 S
C258 C259 1.391 1_545 S
C259 H247 0.950 1_565 S
C259 C255 1.393 . S
C259 C258 1.391 1_565 S
H260 C268 0.950 . S
H261 C273 0.950 1_545 S
H262 C270 0.950 . S
H263 C272 0.950 . S
H264 C274 0.950 . S
H265 C276 0.950 . S
H266 C278 0.950 . S
H267 C279 0.950 1_565 S
C268 H260 0.950 . S
C268 C269 1.386 . S
C268 C270 1.391 . S
C269 C268 1.386 . S
C269 C273 1.393 . S
C270 H262 0.950 . S
C270 C268 1.391 . S
C270 C271 1.400 . S
C271 C270 1.400 . S
C271 C272 1.398 1_565 S
C271 C277 1.491 1_565 S
C272 H263 0.950 . S
C272 C271 1.398 1_545 S
C272 C273 1.391 1_545 S
C273 H261 0.950 1_565 S
C273 C269 1.393 . S
C273 C272 1.391 1_565 S
C274 H264 0.950 . S
C274 C275 1.386 . S
C274 C276 1.391 . S
C275 C274 1.386 . S
C275 C279 1.393 . S
C276 H265 0.950 . S
C276 C274 1.391 . S
C276 C277 1.400 . S
C277 C271 1.491 1_545 S
C277 C276 1.400 . S
C277 C278 1.398 1_545 S
C278 H266 0.950 . S
C278 C277 1.398 1_565 S
C278 C279 1.391 1_565 S
C279 H267 0.950 1_545 S
C279 C275 1.393 . S
C279 C278 1.391 1_545 S
H280 C288 0.950 . S
H281 C293 0.950 . S
H282 C290 0.950 . S
H283 C292 0.950 . S
H284 C294 0.950 . S
H285 C296 0.950 . S
H286 C298 0.950 . S
H287 C299 0.950 . S
C288 H280 0.950 . S
C288 C289 1.386 . S
C288 C290 1.391 . S
C289 C288 1.386 . S
C289 C293 1.393 1_556 S
C290 H282 0.950 . S
C290 C288 1.391 . S
C290 C291 1.400 . S
C291 C290 1.400 . S
C291 C292 1.398 1_556 S
C291 C297 1.491 1_656 S
C292 H283 0.950 . S
C292 C291 1.398 1_554 S
C292 C293 1.391 . S
C293 H281 0.950 . S
C293 C289 1.393 1_554 S
C293 C292 1.391 . S
C294 H284 0.950 . S
C294 C295 1.386 . S
C294 C296 1.391 . S
C295 C294 1.386 . S
C295 C299 1.393 1_554 S
C296 H285 0.950 . S
C296 C294 1.391 . S
C296 C297 1.400 . S
C297 C291 1.491 1_454 S
C297 C296 1.400 . S
C297 C298 1.398 1_554 S
C298 H286 0.950 . S
C298 C297 1.398 1_556 S
C298 C299 1.391 . S
C299 H287 0.950 . S
C299 C295 1.393 1_556 S
C299 C298 1.391 . S
H300 C308 0.950 . S
H301 C313 0.950 . S
H302 C310 0.950 . S
H303 C312 0.950 . S
H304 C314 0.950 . S
H305 C316 0.950 . S
H306 C318 0.950 . S
H307 C319 0.950 . S
C308 H300 0.950 . S
C308 C309 1.386 . S
C308 C310 1.391 . S
C309 C308 1.386 . S
C309 C313 1.393 . S
C310 H302 0.950 . S
C310 C308 1.391 . S
C310 C311 1.400 . S
C311 C310 1.400 . S
C311 C312 1.398 . S
C311 C317 1.491 1_455 S
C312 H303 0.950 . S
C312 C311 1.398 . S
C312 C313 1.391 . S
C313 H301 0.950 . S
C313 C309 1.393 . S
C313 C312 1.391 . S
C314 H304 0.950 . S
C314 C315 1.386 . S
C314 C316 1.391 . S
C315 C314 1.386 . S
C315 C319 1.393 . S
C316 H305 0.950 . S
C316 C314 1.391 . S
C316 C317 1.400 . S
C317 C311 1.491 1_655 S
C317 C316 1.400 . S
C317 C318 1.398 . S
C318 H306 0.950 . S
C318 C317 1.398 . S
C318 C319 1.391 . S
C319 H307 0.950 . S
C319 C315 1.393 . S
C319 C318 1.391 . S
H320 C328 0.950 . S
H321 C333 0.950 . S
H322 C330 0.950 . S
H323 C332 0.950 . S
H324 C334 0.950 . S
H325 C336 0.950 . S
H326 C338 0.950 . S
H327 C339 0.950 . S
C328 H320 0.950 . S
C328 C329 1.386 1_455 S
C328 C330 1.391 . S
C329 C328 1.386 1_655 S
C329 C333 1.393 1_565 S
C330 H322 0.950 . S
C330 C328 1.391 . S
C330 C331 1.400 1_455 S
C331 C330 1.400 1_655 S
C331 C332 1.398 1_565 S
C331 C337 1.491 1_655 S
C332 H323 0.950 . S
C332 C331 1.398 1_545 S
C332 C333 1.391 . S
C333 H321 0.950 . S
C333 C329 1.393 1_545 S
C333 C332 1.391 . S
C334 H324 0.950 . S
C334 C335 1.386 1_645 S
C334 C336 1.391 . S
C335 C334 1.386 1_465 S
C335 C339 1.393 . S
C336 H325 0.950 . S
C336 C334 1.391 . S
C336 C337 1.400 1_645 S
C337 C331 1.491 1_455 S
C337 C336 1.400 1_465 S
C337 C338 1.398 . S
C338 H326 0.950 . S
C338 C337 1.398 . S
C338 C339 1.391 . S
C339 H327 0.950 . S
C339 C335 1.393 . S
C339 C338 1.391 . S
H340 C348 0.952 . S
H341 C353 0.950 . S
H342 C350 0.950 . S
H343 C352 0.950 . S
H344 C354 0.950 . S
H345 C356 0.950 . S
H346 C358 0.950 . S
H347 C359 0.950 . S
C348 H340 0.952 . S
C348 C349 1.387 1_655 S
C348 C350 1.389 . S
C349 C348 1.387 1_455 S
C349 C353 1.394 1_545 S
C350 H342 0.950 . S
C350 C348 1.389 . S
C350 C351 1.399 1_655 S
C351 C350 1.399 1_455 S
C351 C352 1.398 1_545 S
C351 C357 1.493 1_455 S
C352 H343 0.950 . S
C352 C351 1.398 1_565 S
C352 C353 1.391 . S
C353 H341 0.950 . S
C353 C349 1.394 1_565 S
C353 C352 1.391 . S
C354 H344 0.950 . S
C354 C355 1.386 1_465 S
C354 C356 1.391 . S
C355 C354 1.386 1_645 S
C355 C359 1.393 . S
C356 H345 0.950 . S
C356 C354 1.391 . S
C356 C357 1.399 1_465 S
C357 C351 1.493 1_655 S
C357 C356 1.399 1_645 S
C357 C358 1.398 . S
C358 H346 0.950 . S
C358 C357 1.398 . S
C358 C359 1.391 . S
C359 H347 0.950 . S
C359 C355 1.393 . S
C359 C358 1.391 . S
H360 C368 0.950 . S
H361 C373 0.950 . S
H362 C370 0.950 . S
H363 C372 0.950 . S
H364 C374 0.950 . S
H365 C376 0.950 . S
H366 C378 0.950 . S
H367 C379 0.950 . S
C368 H360 0.950 . S
C368 C369 1.386 . S
C368 C370 1.391 . S
C369 C368 1.386 . S
C369 C373 1.393 . S
C370 H362 0.950 . S
C370 C368 1.391 . S
C370 C371 1.400 . S
C371 C370 1.400 . S
C371 C372 1.398 . S
C371 C377 1.491 . S
C372 H363 0.950 . S
C372 C371 1.398 . S
C372 C373 1.391 . S
C373 H361 0.950 . S
C373 C369 1.393 . S
C373 C372 1.391 . S
C374 H364 0.950 . S
C374 C375 1.386 . S
C374 C376 1.391 . S
C375 C374 1.386 . S
C375 C379 1.393 . S
C376 H365 0.950 . S
C376 C374 1.391 . S
C376 C377 1.400 . S
C377 C371 1.491 . S
C377 C376 1.400 . S
C377 C378 1.398 . S
C378 H366 0.950 . S
C378 C377 1.398 . S
C378 C379 1.391 . S
C379 H367 0.950 . S
C379 C375 1.393 . S
C379 C378 1.391 . S
H380 C388 0.950 . S
H381 C393 0.950 . S
H382 C390 0.950 . S
H383 C392 0.950 . S
H384 C394 0.950 . S
H385 C396 0.950 . S
H386 C398 0.950 . S
H387 C399 0.950 . S
C388 H380 0.950 . S
C388 C389 1.386 . S
C388 C390 1.391 . S
C389 C388 1.386 . S
C389 C393 1.393 . S
C390 H382 0.950 . S
C390 C388 1.391 . S
C390 C391 1.400 . S
C391 C390 1.400 . S
C391 C392 1.398 . S
C391 C397 1.491 . S
C392 H383 0.950 . S
C392 C391 1.398 . S
C392 C393 1.391 . S
C393 H381 0.950 . S
C393 C389 1.393 . S
C393 C392 1.391 . S
C394 H384 0.950 . S
C394 C395 1.386 . S
C394 C396 1.391 . S
C395 C394 1.386 . S
C395 C399 1.393 . S
C396 H385 0.950 . S
C396 C394 1.391 . S
C396 C397 1.400 . S
C397 C391 1.491 . S
C397 C396 1.400 . S
C397 C398 1.398 . S
C398 H386 0.950 . S
C398 C397 1.398 . S
C398 C399 1.391 . S
C399 H387 0.950 . S
C399 C395 1.393 . S
C399 C398 1.391 . S
C169 C102 1.605 . S
C175 C3 1.605 . S
C189 C83 1.604 . S
C195 C22 1.604 . S
C209 C62 1.596 . S
C215 C123 1.595 . S
C229 C43 1.599 . S
C235 C142 1.600 . S
C249 C26 1.402 . S
C255 C9 1.402 . S
C269 C49 1.409 . S
C275 C66 1.409 . S
C289 C106 1.422 . S
C295 C89 1.422 . S
C309 C146 1.400 . S
C315 C129 1.400 . S
C329 C55 1.468 1_565 S
C335 C15 1.460 1_565 S
C349 C2 1.474 1_445 S
C355 C42 1.479 1_645 S
C369 C135 1.479 . S
C375 C95 1.463 . S
C389 C122 1.478 . S
C395 C82 1.477 . S
