# Generated by pormake.
# Topology whz, (6)-cn, num edge types: 1
# Building blocks:
#     Node 0, Type 0, BuildingBlock: BETDEL_clean_sbu_0, # of connection points: 6
#     Node 1, Type 0, BuildingBlock: BETDEL_clean_sbu_0, # of connection points: 6
#     Node 2, Type 0, BuildingBlock: BETDEL_clean_sbu_0, # of connection points: 6
#     Node 3, Type 0, BuildingBlock: BETDEL_clean_sbu_0, # of connection points: 6
#     Node 4, Type 0, BuildingBlock: BETDEL_clean_sbu_0, # of connection points: 6
#     Node 5, Type 0, BuildingBlock: BETDEL_clean_sbu_0, # of connection points: 6
#     Node 6, Type 0, BuildingBlock: BETDEL_clean_sbu_0, # of connection points: 6
#     Node 7, Type 0, BuildingBlock: BETDEL_clean_sbu_0, # of connection points: 6
#     Node 8, Type 0, BuildingBlock: BETDEL_clean_sbu_0, # of connection points: 6
#     Node 9, Type 0, BuildingBlock: BETDEL_clean_sbu_0, # of connection points: 6
#     Node 10, Type 0, BuildingBlock: BETDEL_clean_sbu_0, # of connection points: 6
#     Node 11, Type 0, BuildingBlock: BETDEL_clean_sbu_0, # of connection points: 6
#     Node 12, Type 0, BuildingBlock: BETDEL_clean_sbu_0, # of connection points: 6
#     Node 13, Type 0, BuildingBlock: BETDEL_clean_sbu_0, # of connection points: 6
#     Node 14, Type 0, BuildingBlock: BETDEL_clean_sbu_0, # of connection points: 6
#     Node 15, Type 0, BuildingBlock: BETDEL_clean_sbu_0, # of connection points: 6
#     Edge 16, Type (0, 0), BuildingBlock: XIVTED_clean_linker_0, # of connection points: 2
#     Edge 17, Type (0, 0), BuildingBlock: XIVTED_clean_linker_0, # of connection points: 2
#     Edge 18, Type (0, 0), BuildingBlock: XIVTED_clean_linker_0, # of connection points: 2
#     Edge 19, Type (0, 0), BuildingBlock: XIVTED_clean_linker_0, # of connection points: 2
#     Edge 20, Type (0, 0), BuildingBlock: XIVTED_clean_linker_0, # of connection points: 2
#     Edge 21, Type (0, 0), BuildingBlock: XIVTED_clean_linker_0, # of connection points: 2
#     Edge 22, Type (0, 0), BuildingBlock: XIVTED_clean_linker_0, # of connection points: 2
#     Edge 23, Type (0, 0), BuildingBlock: XIVTED_clean_linker_0, # of connection points: 2
#     Edge 24, Type (0, 0), BuildingBlock: XIVTED_clean_linker_0, # of connection points: 2
#     Edge 25, Type (0, 0), BuildingBlock: XIVTED_clean_linker_0, # of connection points: 2
#     Edge 26, Type (0, 0), BuildingBlock: XIVTED_clean_linker_0, # of connection points: 2
#     Edge 27, Type (0, 0), BuildingBlock: XIVTED_clean_linker_0, # of connection points: 2
#     Edge 28, Type (0, 0), BuildingBlock: XIVTED_clean_linker_0, # of connection points: 2
#     Edge 29, Type (0, 0), BuildingBlock: XIVTED_clean_linker_0, # of connection points: 2
#     Edge 30, Type (0, 0), BuildingBlock: XIVTED_clean_linker_0, # of connection points: 2
#     Edge 31, Type (0, 0), BuildingBlock: XIVTED_clean_linker_0, # of connection points: 2
#     Edge 32, Type (0, 0), BuildingBlock: XIVTED_clean_linker_0, # of connection points: 2
#     Edge 33, Type (0, 0), BuildingBlock: XIVTED_clean_linker_0, # of connection points: 2
#     Edge 34, Type (0, 0), BuildingBlock: XIVTED_clean_linker_0, # of connection points: 2
#     Edge 35, Type (0, 0), BuildingBlock: XIVTED_clean_linker_0, # of connection points: 2
#     Edge 36, Type (0, 0), BuildingBlock: XIVTED_clean_linker_0, # of connection points: 2
#     Edge 37, Type (0, 0), BuildingBlock: XIVTED_clean_linker_0, # of connection points: 2
#     Edge 38, Type (0, 0), BuildingBlock: XIVTED_clean_linker_0, # of connection points: 2
#     Edge 39, Type (0, 0), BuildingBlock: XIVTED_clean_linker_0, # of connection points: 2
#     Edge 40, Type (0, 0), BuildingBlock: XIVTED_clean_linker_0, # of connection points: 2
#     Edge 41, Type (0, 0), BuildingBlock: XIVTED_clean_linker_0, # of connection points: 2
#     Edge 42, Type (0, 0), BuildingBlock: XIVTED_clean_linker_0, # of connection points: 2
#     Edge 43, Type (0, 0), BuildingBlock: XIVTED_clean_linker_0, # of connection points: 2
#     Edge 44, Type (0, 0), BuildingBlock: XIVTED_clean_linker_0, # of connection points: 2
#     Edge 45, Type (0, 0), BuildingBlock: XIVTED_clean_linker_0, # of connection points: 2
#     Edge 46, Type (0, 0), BuildingBlock: XIVTED_clean_linker_0, # of connection points: 2
#     Edge 47, Type (0, 0), BuildingBlock: XIVTED_clean_linker_0, # of connection points: 2
#     Edge 48, Type (0, 0), BuildingBlock: XIVTED_clean_linker_0, # of connection points: 2
#     Edge 49, Type (0, 0), BuildingBlock: XIVTED_clean_linker_0, # of connection points: 2
#     Edge 50, Type (0, 0), BuildingBlock: XIVTED_clean_linker_0, # of connection points: 2
#     Edge 51, Type (0, 0), BuildingBlock: XIVTED_clean_linker_0, # of connection points: 2
#     Edge 52, Type (0, 0), BuildingBlock: XIVTED_clean_linker_0, # of connection points: 2
#     Edge 53, Type (0, 0), BuildingBlock: XIVTED_clean_linker_0, # of connection points: 2
#     Edge 54, Type (0, 0), BuildingBlock: XIVTED_clean_linker_0, # of connection points: 2
#     Edge 55, Type (0, 0), BuildingBlock: XIVTED_clean_linker_0, # of connection points: 2
#     Edge 56, Type (0, 0), BuildingBlock: XIVTED_clean_linker_0, # of connection points: 2
#     Edge 57, Type (0, 0), BuildingBlock: XIVTED_clean_linker_0, # of connection points: 2
#     Edge 58, Type (0, 0), BuildingBlock: XIVTED_clean_linker_0, # of connection points: 2
#     Edge 59, Type (0, 0), BuildingBlock: XIVTED_clean_linker_0, # of connection points: 2
#     Edge 60, Type (0, 0), BuildingBlock: XIVTED_clean_linker_0, # of connection points: 2
#     Edge 61, Type (0, 0), BuildingBlock: XIVTED_clean_linker_0, # of connection points: 2
#     Edge 62, Type (0, 0), BuildingBlock: XIVTED_clean_linker_0, # of connection points: 2
#     Edge 63, Type (0, 0), BuildingBlock: XIVTED_clean_linker_0, # of connection points: 2
# Relax obj value: 0.473
# Max RMSD: 0.273
# Mean RMSD: 0.273
data_MOF--net-whz--node1-BETDEL_clean_sbu_0--edge1-XIVTED_clean_linker_0
_symmetry_space_group_name_H-M    P1
_symmetry_Int_Tables_number       1
_symmetry_cell_setting            triclinic
loop_
_symmetry_equiv_pos_as_xyz
'x, y, z'
_cell_length_a     34.101075
_cell_length_b     34.233925
_cell_length_c     55.899944
_cell_angle_alpha  89.966399
_cell_angle_beta   90.061385
_cell_angle_gamma 89.857727
loop_
_atom_site_label
_atom_site_type_symbol
_atom_site_fract_x
_atom_site_fract_y
_atom_site_fract_z
_atom_type_partial_charge
Dy0 Dy 0.32437 0.17353 0.14676 0.0
C1 C 0.29477 0.13598 0.04943 0.0
C2 C 0.3295 0.19022 0.19407 0.0
Dy3 Dy 0.31139 0.14235 0.0982 0.0
O4 O 0.33824 0.21394 0.17685 0.0
O5 O 0.31884 0.15677 0.18541 0.0
O6 O 0.32285 0.23318 0.13157 0.0
O7 O 0.28398 0.19189 0.11794 0.0
C8 C 0.29407 0.22756 0.11695 0.0
C9 C 0.33804 0.0905 0.13198 0.0
O10 O 0.37013 0.17589 0.09467 0.0
O11 O 0.3862 0.1748 0.13471 0.0
O12 O 0.30963 0.10848 0.06287 0.0
O13 O 0.28997 0.16685 0.06263 0.0
O14 O 0.31289 0.0813 0.11536 0.0
O15 O 0.34896 0.12486 0.12816 0.0
O16 O 0.26747 0.14127 0.15258 0.0
O17 O 0.25204 0.12767 0.11312 0.0
C18 C 0.39586 0.18243 0.11232 0.0
C19 C 0.2433 0.12692 0.13623 0.0
Dy20 Dy 0.58948 0.5467 0.39259 0.0
C21 C 0.63902 0.53209 0.29691 0.0
C22 C 0.55674 0.55259 0.43636 0.0
Dy23 Dy 0.62673 0.55227 0.34465 0.0
O24 O 0.53745 0.54837 0.41659 0.0
O25 O 0.59412 0.55412 0.43224 0.0
O26 O 0.55709 0.49598 0.37899 0.0
O27 O 0.56445 0.5442 0.35637 0.0
C28 C 0.54747 0.51117 0.35865 0.0
C29 C 0.67067 0.57894 0.38244 0.0
O30 O 0.59135 0.6086 0.34363 0.0
O31 O 0.58255 0.61065 0.38453 0.0
O32 O 0.65967 0.55746 0.30901 0.0
O33 O 0.61229 0.51811 0.31102 0.0
O34 O 0.67297 0.5945 0.3611 0.0
O35 O 0.64858 0.55016 0.38092 0.0
O36 O 0.62485 0.49279 0.3966 0.0
O37 O 0.6459 0.49071 0.35714 0.0
C38 C 0.57962 0.62732 0.36322 0.0
C39 C 0.64279 0.4745 0.37889 0.0
Dy40 Dy 0.21726 0.84463 0.64728 0.0
C41 C 0.23286 0.89081 0.55082 0.0
C42 C 0.21279 0.81545 0.69217 0.0
Dy43 Dy 0.21328 0.87948 0.5987 0.0
O44 O 0.2132 0.79483 0.67276 0.0
O45 O 0.21344 0.85244 0.68701 0.0
O46 O 0.26828 0.81058 0.6351 0.0
O47 O 0.22126 0.81821 0.61151 0.0
C48 C 0.25423 0.8012 0.61443 0.0
C49 C 0.18482 0.92455 0.63523 0.0
O50 O 0.15683 0.8447 0.59753 0.0
O51 O 0.15315 0.8369 0.63851 0.0
O52 O 0.21027 0.91368 0.56349 0.0
O53 O 0.24443 0.86225 0.5644 0.0
O54 O 0.16924 0.92488 0.61386 0.0
O55 O 0.21437 0.9032 0.63463 0.0
O56 O 0.27151 0.87965 0.65093 0.0
O57 O 0.27508 0.89813 0.61107 0.0
C58 C 0.13733 0.8334 0.61692 0.0
C59 C 0.29062 0.89613 0.63304 0.0
Dy60 Dy 0.94931 0.48195 0.88944 0.0
C61 C 0.88517 0.48951 0.79747 0.0
C62 C 0.99096 0.49912 0.92891 0.0
Dy63 Dy 0.9029 0.47746 0.84542 0.0
O64 O 0.99021 0.52 0.90966 0.0
O65 O 0.96811 0.46888 0.92702 0.0
O66 O 1.00004 0.46741 0.86608 0.0
O67 O 0.95905 0.50735 0.85403 0.0
C68 C 0.99332 0.49414 0.85033 0.0
C69 C 0.86637 0.44779 0.88505 0.0
O70 O 0.93721 0.41989 0.84507 0.0
O71 O 0.94715 0.41718 0.88573 0.0
O72 O 0.85977 0.48946 0.81495 0.0
O73 O 0.91957 0.48174 0.80626 0.0
O74 O 0.86157 0.43314 0.86363 0.0
O75 O 0.88741 0.4775 0.88325 0.0
O76 O 0.91505 0.53727 0.89417 0.0
O77 O 0.88342 0.53808 0.85743 0.0
C78 C 0.94814 0.40015 0.86453 0.0
C79 C 0.8918 0.55467 0.8784 0.0
Dy80 Dy 0.72547 0.88468 0.9339 0.0
C81 C 0.71768 0.82175 0.84123 0.0
C82 C 0.74667 0.89663 0.98157 0.0
Dy83 Dy 0.72846 0.85072 0.88557 0.0
O84 O 0.72313 0.91896 0.96912 0.0
O85 O 0.75832 0.86832 0.96786 0.0
O86 O 0.67887 0.92821 0.91905 0.0
O87 O 0.72462 0.90916 0.89801 0.0
C88 C 0.69423 0.92926 0.89764 0.0
C89 C 0.76851 0.80763 0.91711 0.0
O90 O 0.78154 0.88701 0.88084 0.0
O91 O 0.78619 0.90496 0.92073 0.0
O92 O 0.72207 0.80096 0.86039 0.0
O93 O 0.71909 0.85875 0.84623 0.0
O94 O 0.78114 0.81812 0.89629 0.0
O95 O 0.73508 0.82343 0.92098 0.0
O96 O 0.67005 0.8487 0.93637 0.0
O97 O 0.66502 0.84215 0.89548 0.0
C98 C 0.80091 0.90375 0.89855 0.0
C99 C 0.65001 0.83772 0.91717 0.0
Dy100 Dy 0.38626 0.46596 0.68122 0.0
C101 C 0.44723 0.45774 0.58801 0.0
C102 C 0.37238 0.48871 0.72845 0.0
Dy103 Dy 0.41993 0.46852 0.63279 0.0
O104 O 0.3551 0.45975 0.7175 0.0
O105 O 0.39674 0.50461 0.71352 0.0
O106 O 0.34111 0.42104 0.66661 0.0
O107 O 0.36132 0.46588 0.64546 0.0
C108 C 0.3405 0.43619 0.64517 0.0
C109 C 0.46446 0.50721 0.66414 0.0
O110 O 0.38469 0.52243 0.62824 0.0
O111 O 0.36639 0.52672 0.66806 0.0
O112 O 0.46886 0.46218 0.60686 0.0
O113 O 0.41032 0.45896 0.5936 0.0
O114 O 0.45376 0.52013 0.6434 0.0
O115 O 0.44791 0.47433 0.66816 0.0
O116 O 0.42416 0.41157 0.68361 0.0
O117 O 0.42878 0.40535 0.64272 0.0
C118 C 0.36805 0.54176 0.646 0.0
C119 C 0.43453 0.39105 0.66446 0.0
Dy120 Dy 0.80238 0.14053 0.43257 0.0
C121 C 0.8059 0.20368 0.33969 0.0
C122 C 0.78286 0.129 0.48055 0.0
Dy123 Dy 0.79823 0.17378 0.3841 0.0
O124 O 0.80474 0.10579 0.46765 0.0
O125 O 0.77203 0.15806 0.46715 0.0
O126 O 0.84885 0.09706 0.4179 0.0
O127 O 0.80244 0.11543 0.39692 0.0
C128 C 0.83295 0.09545 0.39664 0.0
C129 C 0.75968 0.21756 0.41608 0.0
O130 O 0.74496 0.13776 0.3799 0.0
O131 O 0.74092 0.12071 0.41996 0.0
O132 O 0.80418 0.22399 0.35917 0.0
O133 O 0.80395 0.16659 0.34443 0.0
O134 O 0.74601 0.20662 0.39559 0.0
O135 O 0.79308 0.20156 0.41941 0.0
O136 O 0.85815 0.17646 0.43383 0.0
O137 O 0.86218 0.18187 0.39282 0.0
C138 C 0.72574 0.12164 0.39785 0.0
C139 C 0.87775 0.18692 0.41432 0.0
Dy140 Dy 0.13733 0.55857 0.18079 0.0
C141 C 0.10202 0.55287 0.08313 0.0
C142 C 0.14651 0.54239 0.22939 0.0
Dy143 Dy 0.11232 0.55229 0.1308 0.0
O144 O 0.17373 0.55568 0.21518 0.0
O145 O 0.11443 0.53901 0.21707 0.0
O146 O 0.18007 0.60616 0.16682 0.0
O147 O 0.16864 0.55693 0.14686 0.0
C148 C 0.18721 0.58812 0.14671 0.0
C149 C 0.062 0.51664 0.16061 0.0
O150 O 0.15622 0.50453 0.13105 0.0
O151 O 0.15195 0.49449 0.1715 0.0
O152 O 0.08689 0.52777 0.09771 0.0
O153 O 0.12162 0.57944 0.09454 0.0
O154 O 0.0739 0.50293 0.14035 0.0
O155 O 0.07848 0.54939 0.16434 0.0
O156 O 0.10167 0.61432 0.17988 0.0
O157 O 0.09218 0.61404 0.13883 0.0
C158 C 0.16168 0.48179 0.14977 0.0
C159 C 0.08858 0.63138 0.16002 0.0
Dy160 Dy 0.7953 0.67773 0.64397 0.0
C161 C 0.7803 0.63049 0.54816 0.0
C162 C 0.80211 0.70701 0.6885 0.0
Dy163 Dy 0.80078 0.64376 0.59571 0.0
O164 O 0.79997 0.72769 0.66915 0.0
O165 O 0.80102 0.66998 0.68357 0.0
O166 O 0.74386 0.71089 0.6316 0.0
O167 O 0.79154 0.70508 0.60829 0.0
C168 C 0.75829 0.72156 0.61127 0.0
C169 C 0.8289 0.59804 0.6322 0.0
O170 O 0.8547 0.68281 0.59507 0.0
O171 O 0.85939 0.68515 0.63605 0.0
O172 O 0.81428 0.62223 0.55771 0.0
O173 O 0.75795 0.6451 0.56467 0.0
O174 O 0.84429 0.59731 0.61082 0.0
O175 O 0.79949 0.61939 0.63129 0.0
O176 O 0.74141 0.64258 0.64782 0.0
O177 O 0.73929 0.62326 0.6081 0.0
C178 C 0.87472 0.69184 0.61472 0.0
C179 C 0.72306 0.62538 0.6299 0.0
Dy180 Dy 0.10273 0.05904 0.89601 0.0
C181 C 0.14539 0.04315 0.79936 0.0
C182 C 0.07681 0.06887 0.94115 0.0
Dy183 Dy 0.13511 0.06284 0.84727 0.0
O184 O 0.05472 0.0674 0.92233 0.0
O185 O 0.11348 0.06521 0.93532 0.0
O186 O 0.06631 1.00934 0.88512 0.0
O187 O 0.07396 0.05548 0.86085 0.0
C188 C 0.0566 0.02297 0.86437 0.0
C189 C 0.18224 0.09001 0.88345 0.0
O190 O 0.1002 0.11911 0.84618 0.0
O191 O 0.09545 0.1229 0.88721 0.0
O192 O 0.1697 0.06392 0.81215 0.0
O193 O 0.11592 0.03365 0.81279 0.0
O194 O 0.18053 0.1069 0.86249 0.0
O195 O 0.16104 0.06053 0.88273 0.0
O196 O 0.13515 1.00312 0.89891 0.0
O197 O 0.15192 1.00043 0.85874 0.0
C198 C 0.09025 0.13862 0.86578 0.0
C199 C 0.15014 0.98419 0.88046 0.0
Dy200 Dy 0.72799 0.35067 0.14493 0.0
C201 C 0.74632 0.39622 0.04842 0.0
C202 C 0.71589 0.32338 0.18959 0.0
Dy203 Dy 0.72626 0.38192 0.09599 0.0
O204 O 0.7194 0.30199 0.17064 0.0
O205 O 0.71882 0.36017 0.18421 0.0
O206 O 0.78283 0.3199 0.13746 0.0
O207 O 0.73998 0.32203 0.11029 0.0
C208 C 0.77385 0.30873 0.11608 0.0
C209 C 0.69133 0.42656 0.13081 0.0
O210 O 0.67126 0.34555 0.0931 0.0
O211 O 0.66563 0.33817 0.13392 0.0
O212 O 0.73285 0.42203 0.06348 0.0
O213 O 0.74808 0.36281 0.05934 0.0
O214 O 0.67655 0.42319 0.10934 0.0
O215 O 0.72272 0.40819 0.13126 0.0
O216 O 0.77935 0.38955 0.14959 0.0
O217 O 0.78714 0.40108 0.10902 0.0
C218 C 0.65142 0.33329 0.11206 0.0
C219 C 0.80011 0.40346 0.13154 0.0
Dy220 Dy 0.42306 0.96636 0.39653 0.0
C221 C 0.37398 0.98599 0.30125 0.0
C222 C 0.45324 0.95764 0.44091 0.0
Dy223 Dy 0.38813 0.9635 0.34842 0.0
O224 O 0.47358 0.95992 0.42143 0.0
O225 O 0.416 0.95948 0.43614 0.0
O226 O 0.45632 0.01803 0.38517 0.0
O227 O 0.45003 0.97185 0.3609 0.0
C228 C 0.46669 1.00474 0.36449 0.0
C229 C 0.34316 0.93383 0.38476 0.0
O230 O 0.42574 0.90898 0.34609 0.0
O231 O 0.43088 0.9029 0.38699 0.0
O232 O 0.35681 0.957 0.31223 0.0
O233 O 0.3983 1.00211 0.31612 0.0
O234 O 0.34304 0.91886 0.36328 0.0
O235 O 0.36408 0.96347 0.38431 0.0
O236 O 0.3876 0.02013 0.40123 0.0
O237 O 0.36824 0.02421 0.36156 0.0
C238 C 0.43619 0.88845 0.36525 0.0
C239 C 0.3704 0.03933 0.38358 0.0
Dy240 Dy 0.21477 0.37667 0.43017 0.0
C241 C 0.21345 0.30867 0.33778 0.0
C242 C 0.23498 0.38836 0.47804 0.0
Dy243 Dy 0.21919 0.34065 0.38189 0.0
O244 O 0.21071 0.41007 0.46569 0.0
O245 O 0.2479 0.36087 0.46412 0.0
O246 O 0.17108 0.42224 0.41469 0.0
O247 O 0.21565 0.39948 0.39398 0.0
C248 C 0.18626 0.42108 0.39323 0.0
C249 C 0.25615 0.29835 0.41543 0.0
O250 O 0.27286 0.37628 0.37773 0.0
O251 O 0.27618 0.39599 0.41739 0.0
O252 O 0.21419 0.28927 0.35766 0.0
O253 O 0.21504 0.34595 0.34199 0.0
O254 O 0.27053 0.30768 0.39483 0.0
O255 O 0.22297 0.31511 0.4179 0.0
O256 O 0.15857 0.34134 0.43133 0.0
O257 O 0.15502 0.3341 0.39035 0.0
C258 C 0.29171 0.39366 0.39543 0.0
C259 C 0.13911 0.3303 0.41185 0.0
Dy260 Dy 0.90488 0.97088 0.1832 0.0
C261 C 0.96443 0.96684 0.0897 0.0
C262 C 0.89213 0.98874 0.23129 0.0
Dy263 Dy 0.93664 0.97528 0.13457 0.0
O264 O 0.86774 0.97022 0.21735 0.0
O265 O 0.92322 0.99692 0.21892 0.0
O266 O 0.86092 0.92493 0.1686 0.0
O267 O 0.87834 0.97158 0.14786 0.0
C268 C 0.85828 0.94133 0.14756 0.0
C269 C 0.98179 0.01343 0.16624 0.0
O270 O 0.89785 0.02696 0.13067 0.0
O271 O 0.88808 0.03348 0.17143 0.0
O272 O 0.98579 0.96885 0.10879 0.0
O273 O 0.92751 0.96926 0.09508 0.0
O274 O 0.97089 0.02684 0.14564 0.0
O275 O 0.96576 0.98022 0.16965 0.0
O276 O 0.94013 0.91464 0.18382 0.0
O277 O 0.94424 0.91128 0.14275 0.0
C278 C 0.88501 0.04733 0.14911 0.0
C279 C 0.94962 0.89523 0.16407 0.0
Dy280 Dy 0.30856 0.64867 0.9309 0.0
C281 C 0.33249 0.70304 0.83615 0.0
C282 C 0.2909 0.63981 0.97938 0.0
Dy283 Dy 0.31626 0.67861 0.88107 0.0
O284 O 0.31817 0.62084 0.96775 0.0
O285 O 0.27387 0.6636 0.96448 0.0
O286 O 0.31107 0.58709 0.91417 0.0
O287 O 0.34398 0.63167 0.89989 0.0
C288 C 0.33498 0.59656 0.89697 0.0
C289 C 0.26539 0.72094 0.9076 0.0
O290 O 0.26961 0.63392 0.87559 0.0
O291 O 0.24868 0.63612 0.91474 0.0
O292 O 0.33188 0.7252 0.85496 0.0
O293 O 0.32506 0.6671 0.84205 0.0
O294 O 0.25967 0.70963 0.88585 0.0
O295 O 0.2981 0.70729 0.91469 0.0
O296 O 0.36733 0.68105 0.93473 0.0
O297 O 0.37447 0.6973 0.89463 0.0
C298 C 0.24279 0.62652 0.89197 0.0
C299 C 0.38793 0.69697 0.91683 0.0
Dy300 Dy 0.62669 0.05538 0.68302 0.0
C301 C 0.5647 0.06221 0.58966 0.0
C302 C 0.63926 0.03512 0.73093 0.0
Dy303 Dy 0.59294 0.0528 0.63444 0.0
O304 O 0.66152 0.05811 0.71818 0.0
O305 O 0.61056 0.02358 0.7174 0.0
O306 O 0.6718 0.10004 0.66816 0.0
O307 O 0.65159 0.05474 0.64728 0.0
C308 C 0.67271 0.08425 0.64689 0.0
C309 C 0.54834 0.01487 0.66621 0.0
O310 O 0.62755 0.99864 0.63021 0.0
O311 O 0.64508 0.99381 0.67021 0.0
O312 O 0.54354 0.06057 0.60885 0.0
O313 O 0.60166 0.05919 0.59494 0.0
O314 O 0.5584 1.00175 0.64543 0.0
O315 O 0.56512 0.04766 0.66984 0.0
O316 O 0.59104 0.11145 0.68454 0.0
O317 O 0.58635 0.11642 0.64355 0.0
C318 C 0.64342 0.97891 0.64808 0.0
C319 C 0.58116 0.13159 0.6651 0.0
H320 H 0.29455 0.14886 0.22982 0.0
H321 H 0.23422 0.34538 0.29662 0.0
H322 H 0.34008 0.26277 0.21201 0.0
H323 H 0.2148 0.23135 0.32734 0.0
H324 H 0.26559 0.31447 0.26223 0.0
H325 H 0.26182 0.17734 0.26468 0.0
C326 C 0.29844 0.17964 0.23364 0.0
C327 C 0.31958 0.20372 0.21806 0.0
C328 C 0.25416 0.2962 0.27641 0.0
C329 C 0.28154 0.23641 0.25704 0.0
C330 C 0.23576 0.31379 0.2958 0.0
C331 C 0.2224 0.29075 0.31476 0.0
C332 C 0.25893 0.25544 0.27612 0.0
C333 C 0.22507 0.25001 0.31301 0.0
C334 C 0.27944 0.19592 0.2533 0.0
C335 C 0.32375 0.24335 0.22359 0.0
N336 N 0.24346 0.23353 0.29406 0.0
N337 N 0.30435 0.25864 0.2425 0.0
H338 H 0.40545 0.46827 0.54702 0.0
H339 H 0.59527 0.54489 0.47859 0.0
H340 H 0.52333 0.45977 0.57482 0.0
H341 H 0.48003 0.54139 0.4466 0.0
H342 H 0.5682 0.51696 0.51514 0.0
H343 H 0.43179 0.49387 0.50953 0.0
C344 C 0.43693 0.47091 0.54495 0.0
C345 C 0.46239 0.46253 0.5639 0.0
C346 C 0.54876 0.52255 0.50018 0.0
C347 C 0.4924 0.49254 0.5218 0.0
C348 C 0.5641 0.53896 0.47951 0.0
C349 C 0.53974 0.54501 0.45972 0.0
C350 C 0.50892 0.5123 0.50086 0.0
C351 C 0.49966 0.53687 0.46159 0.0
C352 C 0.4519 0.48591 0.52374 0.0
C353 C 0.50283 0.46636 0.56056 0.0
N354 N 0.48545 0.52052 0.48183 0.0
N355 N 0.51664 0.48165 0.53994 0.0
H356 H 0.23591 0.85539 0.73179 0.0
H357 H 0.31507 0.66231 0.79577 0.0
H358 H 0.21882 0.73902 0.70404 0.0
H359 H 0.33547 0.77887 0.82235 0.0
H360 H 0.28443 0.69015 0.76015 0.0
H361 H 0.27234 0.82778 0.76545 0.0
C362 C 0.23902 0.82396 0.73315 0.0
C363 C 0.22464 0.79933 0.71522 0.0
C364 C 0.29614 0.70966 0.7736 0.0
C365 C 0.26709 0.76779 0.75296 0.0
C366 C 0.31411 0.69378 0.79374 0.0
C367 C 0.32702 0.71846 0.81205 0.0
C368 C 0.29112 0.75032 0.77204 0.0
C369 C 0.32533 0.75894 0.80865 0.0
C370 C 0.26034 0.80826 0.7521 0.0
C371 C 0.22962 0.7589 0.71758 0.0
N372 N 0.30692 0.77371 0.78916 0.0
N373 N 0.25081 0.74434 0.73604 0.0
H374 H 0.03139 0.56594 0.9371 0.0
H375 H 0.10907 0.4842 0.06111 0.0
H376 H 1.00921 0.45097 0.96573 0.0
H377 H 0.09526 0.60746 0.04744 0.0
H378 H 0.09494 0.47061 0.01931 0.0
H379 H 0.07358 0.57993 0.97159 0.0
C380 C 0.03561 0.54366 0.95064 0.0
C381 C 0.01645 0.50756 0.94908 0.0
C382 C 0.09555 0.5007 0.02531 0.0
C383 C 0.0649 0.52289 0.98767 0.0
C384 C 0.10354 0.50843 0.04906 0.0
C385 C 0.10195 0.54682 0.05748 0.0
C386 C 0.08495 0.53156 1.01018 0.0
C387 C 0.09591 0.57743 0.04137 0.0
C388 C 0.05976 0.55158 0.97009 0.0
C389 C 0.02302 0.47938 0.96665 0.0
N390 N 0.0865 0.56907 0.01832 0.0
N391 N 0.04668 0.48774 0.98536 0.0
H392 H 0.72694 0.86137 0.79947 0.0
H393 H 0.78934 0.66749 0.72991 0.0
H394 H 0.71827 0.74534 0.82926 0.0
H395 H 0.79827 0.78352 0.70014 0.0
H396 H 0.7638 0.6956 0.76689 0.0
H397 H 0.74938 0.83305 0.76179 0.0
C398 C 0.72895 0.8299 0.79783 0.0
C399 C 0.72137 0.80551 0.81734 0.0
C400 C 0.77163 0.71493 0.75233 0.0
C401 C 0.74776 0.77318 0.77496 0.0
C402 C 0.78664 0.69893 0.73141 0.0
C403 C 0.79555 0.72337 0.71214 0.0
C404 C 0.76561 0.75547 0.75373 0.0
C405 C 0.79149 0.76382 0.71472 0.0
C406 C 0.74216 0.81377 0.7765 0.0
C407 C 0.7243 0.76501 0.81454 0.0
N408 N 0.77642 0.77869 0.73515 0.0
N409 N 0.73778 0.75003 0.79374 0.0
H410 H 0.73161 0.36289 0.23071 0.0
H411 H 0.78938 0.16553 0.29828 0.0
H412 H 0.71095 0.24752 0.20234 0.0
H413 H 0.80526 0.28046 0.32846 0.0
H414 H 0.76241 0.19542 0.26216 0.0
H415 H 0.756 0.3334 0.26768 0.0
C416 C 0.73131 0.33139 0.23257 0.0
C417 C 0.71988 0.30741 0.21358 0.0
C418 C 0.77209 0.21412 0.27661 0.0
C419 C 0.74853 0.27369 0.25508 0.0
C420 C 0.78795 0.19709 0.29702 0.0
C421 C 0.79913 0.22072 0.31622 0.0
C422 C 0.76754 0.25489 0.27563 0.0
C423 C 0.79667 0.26137 0.31394 0.0
C424 C 0.74567 0.31456 0.25347 0.0
C425 C 0.71999 0.26685 0.21663 0.0
N426 N 0.78072 0.27727 0.29402 0.0
N427 N 0.73468 0.25115 0.23695 0.0
H428 H 0.92391 0.98381 0.04913 0.0
H429 H 0.1181 0.05061 0.98124 0.0
H430 H 0.04083 0.96673 0.07699 0.0
H431 H 1.00087 0.07108 0.95474 0.0
H432 H 0.09037 0.02168 0.01736 0.0
H433 H 0.95192 0.01287 1.01314 0.0
C434 C 0.95551 0.98534 0.04734 0.0
C435 C 0.98025 0.97351 0.06594 0.0
C436 C 0.07072 0.03292 1.00376 0.0
C437 C 1.01225 1.00749 0.02559 0.0
C438 C 0.08653 0.0499 0.98337 0.0
C439 C 0.06157 0.0626 0.96509 0.0
C440 C 0.02986 0.02877 1.00558 0.0
C441 C 0.02096 0.06115 0.96848 0.0
C442 C 0.97146 1.0024 0.02703 0.0
C443 C 0.0209 0.97598 0.06298 0.0
N444 N 1.00626 0.04391 0.98828 0.0
N445 N 0.03573 0.99323 0.04322 0.0
H446 H 0.53028 0.95894 0.45245 0.0
H447 H 0.48815 0.06385 0.57699 0.0
H448 H 0.41448 0.97527 0.48196 0.0
H449 H 0.60441 0.04364 0.54909 0.0
H450 H 0.46044 0.03501 0.54094 0.0
H451 H 0.55833 0.98882 0.48811 0.0
C452 C 0.51087 0.96802 0.46675 0.0
C453 C 0.47013 0.96509 0.46437 0.0
C454 C 0.492 0.03724 0.54256 0.0
C455 C 0.50167 1.0001 0.50464 0.0
C456 C 0.50777 0.05413 0.56296 0.0
C457 C 0.54849 0.05557 0.56593 0.0
C458 C 0.51728 0.02171 0.52521 0.0
C459 C 0.57279 0.04279 0.54737 0.0
C460 C 0.52682 0.98548 0.48692 0.0
C461 C 0.4461 0.97718 0.48323 0.0
N462 N 0.55675 0.02582 0.52781 0.0
N463 N 0.46228 0.99469 0.50256 0.0
H464 H 0.21256 0.16236 0.89825 0.0
H465 H 0.26868 0.19372 0.01899 0.0
H466 H 0.20208 0.04217 0.92014 0.0
H467 H 0.29145 0.06999 0.02098 0.0
H468 H 0.24496 0.18719 0.97777 0.0
H469 H 0.24283 0.17734 0.93733 0.0
C470 C 0.21689 0.1391 0.91112 0.0
C471 C 0.20453 0.10095 0.90573 0.0
C472 C 0.25571 0.16146 0.98691 0.0
C473 C 0.23865 0.11783 0.95099 0.0
C474 C 0.26912 0.16516 1.01067 0.0
C475 C 0.28237 0.1324 0.02364 0.0
C476 C 0.25509 0.1245 0.97582 0.0
C477 C 0.28181 0.09616 1.0118 0.0
C478 C 0.23378 0.14769 0.93367 0.0
C479 C 0.21083 0.07208 0.92336 0.0
N480 N 0.26816 0.0932 0.98882 0.0
N481 N 0.22731 0.08104 0.9449 0.0
H482 H 0.59105 0.48602 0.26941 0.0
H483 H 0.73682 0.47437 0.15727 0.0
H484 H 0.69896 0.5508 0.26542 0.0
H485 H 0.61866 0.43084 0.15374 0.0
H486 H 0.72286 0.50279 0.19644 0.0
H487 H 0.60009 0.46528 0.22771 0.0
C488 C 0.61667 0.49601 0.25978 0.0
C489 C 0.64431 0.52026 0.27116 0.0
C490 C 0.6996 0.48771 0.18705 0.0
C491 C 0.65501 0.4962 0.22298 0.0
C492 C 0.70745 0.47168 0.16447 0.0
C493 C 0.67863 0.45089 0.15174 0.0
C494 C 0.6627 0.48233 0.19769 0.0
C495 C 0.64149 0.44748 0.16248 0.0
C496 C 0.62173 0.48419 0.23585 0.0
C497 C 0.67683 0.53217 0.25755 0.0
N498 N 0.63475 0.46261 0.18487 0.0
N499 N 0.68136 0.51986 0.2344 0.0
H500 H 0.22253 0.95514 0.5216 0.0
H501 H 0.32482 0.861 0.40443 0.0
H502 H 0.27029 0.83853 0.52123 0.0
H503 H 0.30893 0.98455 0.4154 0.0
H504 H 0.29519 0.84906 0.44421 0.0
H505 H 0.24464 0.96354 0.48006 0.0
C506 C 0.23743 0.93119 0.51277 0.0
C507 C 0.24462 0.89614 0.52511 0.0
C508 C 0.29774 0.87874 0.43771 0.0
C509 C 0.26987 0.90537 0.47711 0.0
C510 C 0.31422 0.88549 0.41485 0.0
C511 C 0.31906 0.92382 0.40635 0.0
C512 C 0.2855 0.91051 0.45203 0.0
C513 C 0.30565 0.95447 0.42106 0.0
C514 C 0.25015 0.93599 0.48899 0.0
C515 C 0.2642 0.86616 0.51255 0.0
N516 N 0.2896 0.9472 0.44294 0.0
N517 N 0.27601 0.87139 0.48937 0.0
H518 H 0.77878 0.57876 0.6675 0.0
H519 H 0.93784 0.49448 0.76034 0.0
H520 H 0.90052 0.56612 0.6483 0.0
H521 H 0.81529 0.51073 0.7762 0.0
H522 H 0.92571 0.51667 0.71911 0.0
H523 H 0.79239 0.55 0.70626 0.0
C524 C 0.80855 0.56959 0.67132 0.0
C525 C 0.83851 0.5751 0.65435 0.0
C526 C 0.90142 0.51518 0.73153 0.0
C527 C 0.85462 0.54181 0.69972 0.0
C528 C 0.90828 0.50242 0.75513 0.0
C529 C 0.87751 0.50061 0.77191 0.0
C530 C 0.86343 0.52634 0.72447 0.0
C531 C 0.83993 0.51149 0.76402 0.0
C532 C 0.8163 0.55309 0.69368 0.0
C533 C 0.87638 0.56225 0.66062 0.0
N534 N 0.83406 0.52388 0.74105 0.0
N535 N 0.88342 0.54649 0.68285 0.0
H536 H 0.84534 0.86815 0.12671 0.0
H537 H 0.7344 0.95992 1.01138 0.0
H538 H 0.81905 0.99042 0.11814 0.0
H539 H 0.78747 0.84563 1.01047 0.0
H540 H 0.75711 0.9684 0.05283 0.0
H541 H 0.81577 0.85576 0.08693 0.0
C542 C 0.83248 0.89219 0.11681 0.0
C543 C 0.83436 0.93036 0.12601 0.0
C544 C 0.7637 0.94135 0.04364 0.0
C545 C 0.80091 0.91659 0.08024 0.0
C546 C 0.75063 0.9365 0.0199 0.0
C547 C 0.75906 0.90208 1.00722 0.0
C548 C 0.7851 0.91139 0.05514 0.0
C549 C 0.78034 0.87277 0.0194 0.0
C550 C 0.81603 0.88523 0.09394 0.0
C551 C 0.81813 0.9605 0.11192 0.0
N552 N 0.79249 0.87803 0.04254 0.0
N553 N 0.80223 0.95303 0.09 0.0
H554 H 0.29514 0.53257 0.87753 0.0
H555 H 0.40945 0.54848 0.75132 0.0
H556 H 0.38786 0.61401 0.86222 0.0
H557 H 0.32154 0.46064 0.7637 0.0
H558 H 0.4007 0.57188 0.79219 0.0
H559 H 0.30335 0.50461 0.83701 0.0
C560 C 0.31756 0.54423 0.86585 0.0
C561 C 0.34098 0.57568 0.87351 0.0
C562 C 0.38322 0.54743 0.78616 0.0
C563 C 0.35025 0.54408 0.82682 0.0
C564 C 0.38822 0.53398 0.76265 0.0
C565 C 0.36628 0.5024 0.75381 0.0
C566 C 0.3559 0.52944 0.80145 0.0
C567 C 0.33919 0.48504 0.76961 0.0
C568 C 0.32208 0.52841 0.84261 0.0
C569 C 0.36913 0.58981 0.85729 0.0
N570 N 0.33474 0.49875 0.79256 0.0
N571 N 0.37281 0.57414 0.83497 0.0
H572 H 0.79176 0.06391 0.50934 0.0
H573 H 0.69134 0.1574 0.62745 0.0
H574 H 0.74644 0.18144 0.51061 0.0
H575 H 0.70583 0.0339 0.6156 0.0
H576 H 0.72071 0.16972 0.58761 0.0
H577 H 0.76944 0.0551 0.55081 0.0
C578 C 0.77736 0.08798 0.51835 0.0
C579 C 0.77094 0.12342 0.50627 0.0
C580 C 0.71788 0.13996 0.59392 0.0
C581 C 0.74539 0.11369 0.55423 0.0
C582 C 0.70153 0.13298 0.61681 0.0
C583 C 0.69639 0.09455 0.62512 0.0
C584 C 0.7297 0.10832 0.57933 0.0
C585 C 0.70932 0.06405 0.61012 0.0
C586 C 0.7645 0.08294 0.5421 0.0
C587 C 0.75195 0.15352 0.51908 0.0
N588 N 0.72526 0.07153 0.58823 0.0
N589 N 0.73998 0.14804 0.54222 0.0
H590 H 0.1147 0.45046 0.37592 0.0
H591 H 0.21455 0.53703 0.25579 0.0
H592 H 0.23837 0.44659 0.36035 0.0
H593 H 0.09009 0.51786 0.26133 0.0
H594 H 0.22262 0.51197 0.29664 0.0
H595 H 0.10373 0.4831 0.33685 0.0
C596 C 0.13955 0.45705 0.36459 0.0
C597 C 0.17753 0.44572 0.3716 0.0
C598 C 0.19344 0.51339 0.28904 0.0
C599 C 0.16529 0.48291 0.3268 0.0
C600 C 0.18883 0.52788 0.26565 0.0
C601 C 0.15161 0.5296 0.25494 0.0
C602 C 0.16057 0.50061 0.30218 0.0
C603 C 0.1194 0.51707 0.26877 0.0
C604 C 0.13328 0.47538 0.34217 0.0
C605 C 0.20852 0.45455 0.35584 0.0
N606 N 0.12458 0.50316 0.29154 0.0
N607 N 0.20176 0.47243 0.33445 0.0
H608 H 0.8258 0.62703 0.50688 0.0
H609 H 0.66677 0.53894 0.42403 0.0
H610 H 0.70604 0.62125 0.53104 0.0
H611 H 0.72331 0.64018 0.39399 0.0
H612 H 0.69442 0.55438 0.46288 0.0
H613 H 0.80243 0.61878 0.46515 0.0
C614 C 0.7947 0.62391 0.50347 0.0
C615 C 0.76787 0.62464 0.52262 0.0
C616 C 0.7009 0.57325 0.44783 0.0
C617 C 0.74114 0.61493 0.47501 0.0
C618 C 0.6848 0.56473 0.42549 0.0
C619 C 0.69143 0.58888 0.40548 0.0
C620 C 0.72548 0.60554 0.45056 0.0
C621 C 0.71679 0.62093 0.40881 0.0
C622 C 0.78142 0.61964 0.47965 0.0
C623 C 0.72786 0.62082 0.51699 0.0
N624 N 0.73307 0.62828 0.43092 0.0
N625 N 0.71588 0.61547 0.49392 0.0
H626 H 0.21103 0.04806 0.77062 0.0
H627 H 0.11259 0.94831 0.65403 0.0
H628 H 0.09104 1.00904 0.76972 0.0
H629 H 0.23711 0.95548 0.66625 0.0
H630 H 0.10165 0.98026 0.69323 0.0
H631 H 0.21884 0.02383 0.72949 0.0
C632 C 0.18622 0.03469 0.76174 0.0
C633 C 0.15038 0.03054 0.77381 0.0
C634 C 0.13136 0.97521 0.68713 0.0
C635 C 0.15896 1.0028 0.72633 0.0
C636 C 0.13756 0.95734 0.66463 0.0
C637 C 0.17583 0.94934 0.65667 0.0
C638 C 0.16365 0.9857 0.70162 0.0
C639 C 0.20707 0.96104 0.67153 0.0
C640 C 0.19069 0.02073 0.73822 0.0
C641 C 0.11929 0.01279 0.76123 0.0
N642 N 0.20034 0.9785 0.69305 0.0
N643 N 0.12424 0.99969 0.7383 0.0
H644 H 0.75873 0.46676 0.02601 0.0
H645 H 0.82827 0.37895 0.89882 0.0
H646 H 0.76621 0.3428 1.01356 0.0
H647 H 0.85579 0.49491 0.92356 0.0
H648 H 0.79681 0.36557 0.93791 0.0
H649 H 0.78516 0.47828 0.98577 0.0
C650 C 0.76562 0.44193 0.01476 0.0
C651 C 0.76024 0.40375 0.02334 0.0
C652 C 0.80963 0.39397 0.93466 0.0
C653 C 0.79054 0.41672 0.97682 0.0
C654 C 0.82743 0.40165 0.91229 0.0
C655 C 0.84481 0.43813 0.90774 0.0
C656 C 0.80854 0.4232 0.95247 0.0
C657 C 0.84298 0.46631 0.92609 0.0
C658 C 0.78089 0.4485 0.99175 0.0
C659 C 0.76992 0.37276 1.00779 0.0
N660 N 0.8252 0.45836 0.94737 0.0
N661 N 0.78444 0.37987 0.98538 0.0
H662 H 0.29695 0.02818 0.15211 0.0
H663 H 0.41125 0.0454 0.27823 0.0
H664 H 0.39141 0.10812 0.16657 0.0
H665 H 0.32318 0.95758 0.26612 0.0
H666 H 0.40278 0.06821 0.23721 0.0
H667 H 0.30479 1.00109 0.19288 0.0
C668 C 0.31961 0.03974 0.16369 0.0
C669 C 0.34365 0.0705 0.15571 0.0
C670 C 0.38521 0.04389 0.24334 0.0
C671 C 0.35249 0.0399 0.20265 0.0
C672 C 0.39004 0.0308 0.26693 0.0
C673 C 0.36797 0.99939 0.27586 0.0
C674 C 0.35792 0.02572 0.22809 0.0
C675 C 0.34091 0.98185 0.26011 0.0
C676 C 0.32394 0.02439 0.18704 0.0
C677 C 0.37218 0.08448 0.17174 0.0
N678 N 0.33661 0.99523 0.23708 0.0
N679 N 0.37564 0.0693 0.19422 0.0
H680 H 0.30176 0.48614 0.61604 0.0
H681 H 0.27637 0.33759 0.50664 0.0
H682 H 0.32765 0.3636 0.62353 0.0
H683 H 0.22085 0.45067 0.50854 0.0
H684 H 0.29708 0.34633 0.54844 0.0
H685 H 0.27339 0.47362 0.57664 0.0
C686 C 0.30068 0.4563 0.60961 0.0
C687 C 0.31652 0.4258 0.62353 0.0
C688 C 0.2802 0.36917 0.53981 0.0
C689 C 0.285 0.41128 0.57737 0.0
C690 C 0.26841 0.36429 0.51583 0.0
C691 C 0.24675 0.39345 0.50384 0.0
C692 C 0.27089 0.40383 0.55208 0.0
C693 C 0.2374 0.42734 0.51689 0.0
C694 C 0.28461 0.44922 0.58693 0.0
C695 C 0.315 0.38791 0.61381 0.0
N696 N 0.24974 0.43167 0.54007 0.0
N697 N 0.30001 0.38182 0.59129 0.0
H698 H 0.94439 0.022 0.26279 0.0
H699 H 0.78404 0.06241 0.36458 0.0
H700 H 0.8247 0.98276 0.25839 0.0
H701 H 0.9074 0.07809 0.37797 0.0
H702 H 0.79923 0.03387 0.32574 0.0
H703 H 0.93256 0.04345 0.30418 0.0
C704 C 0.91562 0.01771 0.27053 0.0
C705 C 0.88549 1.00046 0.25691 0.0
C706 C 0.8232 0.043 0.33715 0.0
C707 C 0.8716 0.02543 0.30457 0.0
C708 C 0.81455 0.05927 0.3595 0.0
C709 C 0.84445 0.07238 0.37489 0.0
C710 C 0.86227 0.0402 0.32943 0.0
C711 C 0.88337 0.06782 0.36699 0.0
C712 C 0.90893 0.02994 0.29425 0.0
C713 C 0.84887 0.99579 0.26806 0.0
N714 N 0.89113 0.05255 0.34475 0.0
N715 N 0.84296 1.00838 0.291 0.0
H716 H 0.19059 0.6616 0.12474 0.0
H717 H 0.31348 0.58176 1.01089 0.0
H718 H 0.23152 0.54313 0.11754 0.0
H719 H 0.24193 0.68542 1.00709 0.0
H720 H 0.2921 0.57215 0.05248 0.0
H721 H 0.21769 0.67616 0.0846 0.0
C722 C 0.20618 0.63899 0.11509 0.0
C723 C 0.20926 0.6012 0.12484 0.0
C724 C 0.28116 0.59715 0.04263 0.0
C725 C 0.23998 0.61745 0.07863 0.0
C726 C 0.2935 0.6027 0.01882 0.0
C727 C 0.27953 0.63441 1.00525 0.0
C728 C 0.25493 0.62377 0.0534 0.0
C729 C 0.25347 0.66046 0.01671 0.0
C730 C 0.22122 0.64713 0.092 0.0
C731 C 0.22876 0.57278 0.11098 0.0
N732 N 0.24217 0.65467 0.03998 0.0
N733 N 0.24331 0.58143 0.08887 0.0
H734 H 0.58858 0.99541 0.7605 0.0
H735 H 0.74326 0.96586 0.86706 0.0
H736 H 0.70372 0.04678 0.76028 0.0
H737 H 0.62029 0.94291 0.87705 0.0
H738 H 0.72904 0.99394 0.82783 0.0
H739 H 0.59911 0.97418 0.80209 0.0
C740 C 0.6161 1.00236 0.76918 0.0
C741 C 0.6453 0.02303 0.75664 0.0
C742 C 0.70492 0.98337 0.8386 0.0
C743 C 0.65775 0.99825 0.80465 0.0
C744 C 0.713 0.9674 0.86119 0.0
C745 C 0.68291 0.95247 0.8758 0.0
C746 C 0.66633 0.98387 0.82979 0.0
C747 C 0.64439 0.95476 0.86679 0.0
C748 C 0.62202 0.99026 0.79304 0.0
C749 C 0.68028 0.03105 0.76905 0.0
N750 N 0.63729 0.96968 0.84434 0.0
N751 N 0.68557 0.01846 0.79211 0.0
H752 H 0.45852 0.17876 0.14222 0.0
H753 H 0.60507 0.321 0.07139 0.0
H754 H 0.42446 0.22745 0.0741 0.0
H755 H 0.61017 0.29547 0.14692 0.0
H756 H 0.5438 0.28263 0.06877 0.0
H757 H 0.51952 0.21477 0.14038 0.0
C758 C 0.46392 0.1968 0.12665 0.0
C759 C 0.4357 0.20004 0.10837 0.0
C760 C 0.55841 0.28564 0.08587 0.0
C761 C 0.50681 0.24243 0.10625 0.0
C762 C 0.59343 0.30757 0.08741 0.0
C763 C 0.61317 0.31181 0.10945 0.0
C764 C 0.5433 0.26722 0.10643 0.0
C765 C 0.5964 0.29347 0.12951 0.0
C766 C 0.49899 0.21766 0.12568 0.0
C767 C 0.44521 0.22382 0.0886 0.0
N768 N 0.56297 0.27208 0.12746 0.0
N769 N 0.47983 0.2443 0.08812 0.0
H770 H 0.55944 0.67459 0.40061 0.0
H771 H 0.45897 0.84765 0.32428 0.0
H772 H 0.55583 0.67133 0.32349 0.0
H773 H 0.45984 0.83958 0.4013 0.0
H774 H 0.49483 0.78495 0.32241 0.0
H775 H 0.52485 0.73654 0.39995 0.0
C776 C 0.55158 0.68689 0.3834 0.0
C777 C 0.56081 0.66713 0.36206 0.0
C778 C 0.48702 0.79695 0.33968 0.0
C779 C 0.52016 0.73946 0.36121 0.0
C780 C 0.4664 0.83276 0.34078 0.0
C781 C 0.45609 0.84931 0.363 0.0
C782 C 0.49762 0.77746 0.36095 0.0
C783 C 0.46689 0.82843 0.3837 0.0
C784 C 0.53155 0.72257 0.38307 0.0
C785 C 0.54957 0.68528 0.34043 0.0
N786 N 0.4869 0.79405 0.38213 0.0
N787 N 0.5298 0.72027 0.34056 0.0
H788 H 0.9227 0.7107 0.65219 0.0
H789 H 0.09407 0.81433 0.57618 0.0
H790 H 0.91734 0.7188 0.57524 0.0
H791 H 0.0896 0.80803 0.6532 0.0
H792 H 0.03076 0.77968 0.57438 0.0
H793 H 0.98472 0.7453 0.65173 0.0
C794 C 0.93452 0.71958 0.63506 0.0
C795 C 0.9142 0.71151 0.61369 0.0
C796 C 0.04365 0.78604 0.59164 0.0
C797 C 0.98663 0.75212 0.6131 0.0
C798 C 0.07984 0.80598 0.59271 0.0
C799 C 0.09763 0.8144 0.6149 0.0
C800 C 0.02494 0.77421 0.61291 0.0
C801 C 0.0775 0.80246 0.63563 0.0
C802 C 0.97025 0.7396 0.63485 0.0
C803 C 0.93172 0.72412 0.59219 0.0
N804 N 0.04269 0.78312 0.63409 0.0
N805 N 0.96678 0.74377 0.59243 0.0
H806 H 0.9692 0.35696 0.82423 0.0
H807 H 0.06916 0.18637 0.90286 0.0
H808 H 0.96908 0.3516 0.90133 0.0
H809 H 0.06577 0.18114 0.82578 0.0
H810 H 0.03371 0.24795 0.90154 0.0
H811 H 1.00412 0.29373 0.82333 0.0
C812 C 0.97607 0.34246 0.84095 0.0
C813 C 0.96598 0.36001 0.8629 0.0
C814 C 0.04067 0.23358 0.88482 0.0
C815 C 1.00655 0.28763 0.86198 0.0
C816 C 0.0612 0.19817 0.88554 0.0
C817 C 0.07078 0.17806 0.86439 0.0
C818 C 0.0292 0.24976 0.86277 0.0
C819 C 0.05929 0.19543 0.84258 0.0
C820 C 0.99623 0.30639 0.84041 0.0
C821 C 0.97611 0.33967 0.88392 0.0
N822 N 0.03913 0.23015 0.84233 0.0
N823 N 0.99574 0.30502 0.8829 0.0
H824 H 0.60159 0.81557 0.88079 0.0
H825 H 0.42597 0.72347 0.95866 0.0
H826 H 0.60767 0.81528 0.95789 0.0
H827 H 0.4416 0.71246 0.88235 0.0
H828 H 0.48962 0.75842 0.96069 0.0
H829 H 0.53986 0.78113 0.88276 0.0
C830 C 0.58998 0.80843 0.89827 0.0
C831 C 0.61046 0.81854 0.91919 0.0
C832 C 0.47893 0.74812 0.94359 0.0
C833 C 0.53824 0.778 0.92163 0.0
C834 C 0.44266 0.72799 0.94243 0.0
C835 C 0.42776 0.71509 0.92027 0.0
C836 C 0.50033 0.7554 0.92244 0.0
C837 C 0.45099 0.72205 0.89988 0.0
C838 C 0.5544 0.78844 0.89939 0.0
C839 C 0.59311 0.80822 0.94124 0.0
N840 N 0.48546 0.74162 0.9015 0.0
N841 N 0.55809 0.7885 0.94191 0.0
H842 H 0.45722 0.34958 0.70535 0.0
H843 H 0.56315 0.18097 0.62825 0.0
H844 H 0.45942 0.34326 0.62828 0.0
H845 H 0.55429 0.17301 0.70508 0.0
H846 H 0.52784 0.24251 0.62933 0.0
H847 H 0.49384 0.28724 0.70697 0.0
C848 C 0.4651 0.33517 0.68879 0.0
C849 C 0.45492 0.3521 0.66663 0.0
C850 C 0.53353 0.22758 0.64606 0.0
C851 C 0.49735 0.28071 0.6684 0.0
C852 C 0.55399 0.19215 0.64549 0.0
C853 C 0.56195 0.17119 0.66662 0.0
C854 C 0.52046 0.24304 0.66795 0.0
C855 C 0.54905 0.18793 0.6883 0.0
C856 C 0.48614 0.29955 0.68975 0.0
C857 C 0.46631 0.33182 0.64585 0.0
N858 N 0.52892 0.22272 0.68841 0.0
N859 N 0.48676 0.29768 0.64728 0.0
H860 H 0.09083 0.30873 0.37504 0.0
H861 H 0.92054 0.21017 0.4545 0.0
H862 H 0.09648 0.30717 0.45213 0.0
H863 H 0.92535 0.20942 0.37739 0.0
H864 H 0.98342 0.24581 0.45516 0.0
H865 H 0.02894 0.27391 0.37671 0.0
C866 C 0.07907 0.30129 0.39244 0.0
C867 C 0.09944 0.31119 0.41348 0.0
C868 C 0.97067 0.23769 0.43813 0.0
C869 C 0.02728 0.27031 0.41552 0.0
C870 C 0.93476 0.21717 0.43773 0.0
C871 C 0.9172 0.20649 0.41585 0.0
C872 C 0.98929 0.24781 0.4165 0.0
C873 C 0.93726 0.21677 0.39476 0.0
C874 C 0.04346 0.28113 0.39336 0.0
C875 C 0.08204 0.30041 0.4354 0.0
N876 N 0.97177 0.2367 0.39565 0.0
N877 N 0.04713 0.28055 0.43585 0.0
H878 H 0.05894 0.67535 0.12299 0.0
H879 H 0.9751 0.85225 0.20359 0.0
H880 H 0.07084 0.67696 0.19981 0.0
H881 H 0.9671 0.84646 0.12666 0.0
H882 H 1.00864 0.78831 0.20345 0.0
H883 H 0.02459 0.73781 0.12481 0.0
C884 C 0.05446 0.68875 0.14032 0.0
C885 C 0.06811 0.67039 0.16127 0.0
C886 C 0.9994 0.80105 0.18663 0.0
C887 C 0.02806 0.74303 0.1635 0.0
C888 C 0.98007 0.83759 0.1867 0.0
C889 C 0.96803 0.8552 0.16511 0.0
C890 C 1.00684 0.78174 0.16482 0.0
C891 C 0.97568 0.83451 0.14382 0.0
C892 C 0.03466 0.72467 0.14134 0.0
C893 C 0.06106 0.68977 0.18313 0.0
N894 N 0.99444 0.7993 0.14425 0.0
N895 N 0.0416 0.72484 0.18367 0.0
H896 H 0.2234 0.23426 0.1396 0.0
H897 H 0.21128 0.46404 0.11368 0.0
H898 H 0.30338 0.29634 0.09383 0.0
H899 H 0.15492 0.41183 0.17486 0.0
H900 H 0.23779 0.40066 0.10269 0.0
H901 H 0.18916 0.29613 0.14811 0.0
C902 C 0.23265 0.26065 0.13052 0.0
C903 C 0.26569 0.26013 0.1155 0.0
C904 C 0.21979 0.40286 0.11859 0.0
C905 C 0.22769 0.33101 0.12584 0.0
C906 C 0.20464 0.43918 0.12497 0.0
C907 C 0.1809 0.44342 0.14534 0.0
C908 C 0.21104 0.3699 0.13247 0.0
C909 C 0.17344 0.40999 0.15918 0.0
C910 C 0.21364 0.29603 0.13579 0.0
C911 C 0.27752 0.29536 0.10504 0.0
N912 N 0.18829 0.3745 0.15241 0.0
N913 N 0.25867 0.32928 0.11045 0.0
H914 H 0.32715 0.45788 0.41653 0.0
H915 H 0.51718 0.4497 0.33445 0.0
H916 H 0.34098 0.37501 0.35904 0.0
H917 H 0.48444 0.55352 0.37301 0.0
H918 H 0.45208 0.42254 0.34218 0.0
H919 H 0.38582 0.49257 0.40204 0.0
C920 C 0.34269 0.44675 0.40108 0.0
C921 C 0.32915 0.41338 0.38908 0.0
C922 C 0.45859 0.45178 0.34837 0.0
C923 C 0.39585 0.45308 0.37221 0.0
C924 C 0.49552 0.46763 0.34346 0.0
C925 C 0.50596 0.50428 0.35259 0.0
C926 C 0.43225 0.47224 0.36316 0.0
C927 C 0.47723 0.52556 0.36512 0.0
C928 C 0.37584 0.46682 0.39261 0.0
C929 C 0.35022 0.40062 0.36889 0.0
N930 N 0.44206 0.50889 0.37055 0.0
N931 N 0.38244 0.42026 0.36122 0.0
H932 H 0.31709 0.77179 0.59081 0.0
H933 H 0.30597 0.57874 0.66847 0.0
H934 H 0.21132 0.73813 0.62727 0.0
H935 H 0.38573 0.59025 0.60905 0.0
H936 H 0.27248 0.63887 0.65525 0.0
H937 H 0.34317 0.70572 0.59682 0.0
C938 C 0.29859 0.74986 0.59901 0.0
C939 C 0.26163 0.76012 0.60798 0.0
C940 C 0.29724 0.62804 0.6451 0.0
C941 C 0.29232 0.68534 0.61657 0.0
C942 C 0.31662 0.59403 0.65281 0.0
C943 C 0.34877 0.57948 0.63991 0.0
C944 C 0.31057 0.64795 0.62461 0.0
C945 C 0.36103 0.6003 0.61955 0.0
C946 C 0.31375 0.71236 0.60288 0.0
C947 C 0.23953 0.73104 0.61948 0.0
N948 N 0.34218 0.63349 0.61266 0.0
N949 N 0.25554 0.69526 0.62395 0.0
H950 H 0.06427 0.47778 0.8303 0.0
H951 H 0.17025 0.6315 0.91333 0.0
H952 H 1.0002 0.56937 0.86597 0.0
H953 H 0.22938 0.58174 0.85232 0.0
H954 H 0.10808 0.60457 0.89842 0.0
H955 H 0.12559 0.51277 0.83856 0.0
C956 C 0.06298 0.50604 0.83899 0.0
C957 C 0.02697 0.52095 0.84705 0.0
C958 C 0.13468 0.59973 0.88827 0.0
C959 C 0.09716 0.55993 0.85792 0.0
C960 C 0.17021 0.61473 0.8969 0.0
C961 C 0.20511 0.60884 0.88409 0.0
C962 C 0.13411 0.57799 0.86691 0.0
C963 C 0.20319 0.58712 0.86276 0.0
C964 C 0.09802 0.52571 0.84403 0.0
C965 C 0.02717 0.55712 0.85899 0.0
N966 N 0.16845 0.57221 0.85497 0.0
N967 N 0.06172 0.57489 0.86453 0.0
H968 H 0.72577 0.74292 0.90677 0.0
H969 H 0.91638 0.6057 0.91269 0.0
H970 H 0.83588 0.78002 0.93668 0.0
H971 H 0.82203 0.58725 0.86253 0.0
H972 H 0.88235 0.66337 0.92795 0.0
H973 H 0.75457 0.6785 0.8985 0.0
C974 C 0.75535 0.7368 0.91284 0.0
C975 C 0.77821 0.76665 0.92296 0.0
C976 C 0.86904 0.64678 0.9136 0.0
C977 C 0.81191 0.69355 0.91258 0.0
C978 C 0.88852 0.61384 0.90477 0.0
C979 C 0.87226 0.59161 0.88609 0.0
C980 C 0.83253 0.65759 0.90403 0.0
C981 C 0.83595 0.60371 0.8767 0.0
C982 C 0.77208 0.70033 0.90754 0.0
C983 C 0.81697 0.7576 0.9294 0.0
N984 N 0.81724 0.63575 0.88583 0.0
N985 N 0.83267 0.72207 0.92394 0.0
H986 H 0.67103 0.64854 0.66365 0.0
H987 H 0.52819 0.46411 0.65154 0.0
H988 H 0.68845 0.55899 0.61047 0.0
H989 H 0.49432 0.57227 0.68493 0.0
H990 H 0.59332 0.49168 0.6434 0.0
H991 H 0.61172 0.61554 0.677 0.0
C992 C 0.66225 0.62195 0.65463 0.0
C993 C 0.68478 0.60671 0.63575 0.0
C994 C 0.57203 0.50897 0.65312 0.0
C995 C 0.61671 0.56804 0.65148 0.0
C996 C 0.53518 0.4929 0.65835 0.0
C997 C 0.50605 0.51559 0.66953 0.0
C998 C 0.57996 0.54794 0.65931 0.0
C999 C 0.51616 0.55342 0.67687 0.0
C1000 C 0.62834 0.60304 0.66238 0.0
C1001 C 0.67178 0.57208 0.62487 0.0
N1002 N 0.55206 0.56846 0.67152 0.0
N1003 N 0.63871 0.55377 0.63298 0.0
H1004 H 0.69526 0.24708 0.43794 0.0
H1005 H 0.70849 0.43979 0.35873 0.0
H1006 H 0.80185 0.28086 0.40244 0.0
H1007 H 0.62144 0.42371 0.41376 0.0
H1008 H 0.74225 0.38038 0.37303 0.0
H1009 H 0.66801 0.31203 0.42997 0.0
C1010 C 0.71365 0.26889 0.42953 0.0
C1011 C 0.75122 0.2589 0.42143 0.0
C1012 C 0.71577 0.39001 0.38195 0.0
C1013 C 0.71926 0.33247 0.41059 0.0
C1014 C 0.69625 0.42359 0.37358 0.0
C1015 C 0.66201 0.43671 0.38498 0.0
C1016 C 0.70058 0.36918 0.40162 0.0
C1017 C 0.64778 0.4148 0.40441 0.0
C1018 C 0.69782 0.30575 0.42451 0.0
C1019 C 0.77316 0.28778 0.4096 0.0
N1020 N 0.66692 0.3822 0.41199 0.0
N1021 N 0.75658 0.32294 0.40406 0.0
H1022 H 0.83936 0.46064 0.10632 0.0
H1023 H 0.03195 0.4547 0.1847 0.0
H1024 H 0.84648 0.39079 0.17044 0.0
H1025 H 0.99885 0.55769 0.14528 0.0
H1026 H 0.96534 0.42909 0.17942 0.0
H1027 H 0.90027 0.49387 0.11827 0.0
C1028 C 0.85381 0.45215 0.12279 0.0
C1029 C 0.83784 0.42286 0.13737 0.0
C1030 C 0.97228 0.45781 0.17251 0.0
C1031 C 0.90731 0.46062 0.15113 0.0
C1032 C 1.01008 0.47267 0.17589 0.0
C1033 C 0.0205 0.50879 0.166 0.0
C1034 C 0.94522 0.4786 0.15836 0.0
C1035 C 0.99157 0.53019 0.15375 0.0
C1036 C 0.88829 0.47137 0.12974 0.0
C1037 C 0.85765 0.41328 0.15867 0.0
N1038 N 0.95548 0.51444 0.14983 0.0
N1039 N 0.89144 0.43179 0.16478 0.0
H1040 H 0.80284 0.78388 0.62379 0.0
H1041 H 0.61906 0.92885 0.61376 0.0
H1042 H 0.6936 0.75253 0.59036 0.0
H1043 H 0.70942 0.94273 0.66708 0.0
H1044 H 0.65162 0.86993 0.5994 0.0
H1045 H 0.77602 0.84903 0.63242 0.0
C1046 C 0.77398 0.79146 0.61707 0.0
C1047 C 0.75066 0.76303 0.60585 0.0
C1048 C 0.66437 0.88568 0.61428 0.0
C1049 C 0.71924 0.83683 0.61657 0.0
C1050 C 0.64571 0.9193 0.62261 0.0
C1051 C 0.66136 0.94067 0.64182 0.0
C1052 C 0.69948 0.87327 0.62494 0.0
C1053 C 0.69604 0.92687 0.65247 0.0
C1054 C 0.75834 0.82829 0.62256 0.0
C1055 C 0.71284 0.77384 0.59852 0.0
N1056 N 0.71411 0.89411 0.64379 0.0
N1057 N 0.69821 0.80969 0.60417 0.0
H1058 H 0.83671 0.96665 0.92064 0.0
H1059 H 0.02764 0.96095 0.84006 0.0
H1060 H 0.84926 0.88709 0.86131 0.0
H1061 H 0.99293 0.06456 0.8782 0.0
H1062 H 0.96232 0.93347 0.84682 0.0
H1063 H 0.89545 1.00171 0.9067 0.0
C1064 C 0.85197 0.95635 0.90487 0.0
C1065 C 0.8381 0.9238 0.89221 0.0
C1066 C 0.96849 0.96274 0.85309 0.0
C1067 C 0.90493 0.96384 0.87604 0.0
C1068 C 1.00555 0.97874 0.84877 0.0
C1069 C 0.01538 0.01545 0.85804 0.0
C1070 C 0.94151 0.98311 0.86749 0.0
C1071 C 0.98614 0.03657 0.87019 0.0
C1072 C 0.88516 0.97663 0.89674 0.0
C1073 C 0.8588 0.91206 0.87166 0.0
N1074 N 0.95086 0.01976 0.87508 0.0
N1075 N 0.89117 0.93181 0.86435 0.0
H1076 H 0.89336 0.11814 0.17174 0.0
H1077 H 0.73431 0.24107 0.10373 0.0
H1078 H 0.83256 0.0621 0.11354 0.0
H1079 H 0.84952 0.28756 0.11727 0.0
H1080 H 0.76044 0.17471 0.11089 0.0
H1081 H 0.86649 0.18144 0.15832 0.0
C1082 C 0.87377 0.11907 0.15648 0.0
C1083 C 0.86506 0.08492 0.14379 0.0
C1084 C 0.78006 0.1995 0.11166 0.0
C1085 C 0.8342 0.15678 0.12845 0.0
C1086 C 0.76537 0.23724 0.10709 0.0
C1087 C 0.7899 0.26989 0.10966 0.0
C1088 C 0.81904 0.19485 0.11949 0.0
C1089 C 0.8297 0.26318 0.1149 0.0
C1090 C 0.85883 0.15511 0.14867 0.0
C1091 C 0.83994 0.08783 0.12384 0.0
N1092 N 0.84276 0.22669 0.12028 0.0
N1093 N 0.8251 0.12304 0.11688 0.0
H1094 H 0.53014 0.96136 0.37717 0.0
H1095 H 0.67526 0.14333 0.36279 0.0
H1096 H 0.49672 0.06919 0.34308 0.0
H1097 H 0.68974 0.05696 0.4183 0.0
H1098 H 0.61574 0.11042 0.34956 0.0
H1099 H 0.59555 0.98857 0.38493 0.0
C1100 C 0.53728 0.98998 0.37013 0.0
C1101 C 0.50821 0.01273 0.35889 0.0
C1102 C 0.63179 0.09861 0.36466 0.0
C1103 C 0.58243 0.04463 0.36863 0.0
C1104 C 0.6658 0.11745 0.37232 0.0
C1105 C 0.68752 0.10308 0.39184 0.0
C1106 C 0.61932 0.06454 0.37627 0.0
C1107 C 0.6737 0.06936 0.40339 0.0
C1108 C 0.57429 1.00585 0.37513 0.0
C1109 C 0.51851 0.05032 0.35121 0.0
N1110 N 0.64058 0.05107 0.39534 0.0
N1111 N 0.55459 0.06516 0.35633 0.0
H1112 H 0.31913 0.26897 0.43906 0.0
H1113 H 0.30782 0.0761 0.36136 0.0
H1114 H 0.21318 0.23522 0.40271 0.0
H1115 H 0.38824 0.08779 0.42053 0.0
H1116 H 0.27423 0.13605 0.37469 0.0
H1117 H 0.34528 0.20297 0.43302 0.0
C1118 C 0.3006 0.24703 0.43088 0.0
C1119 C 0.26358 0.25728 0.42193 0.0
C1120 C 0.29916 0.12529 0.38477 0.0
C1121 C 0.29435 0.18254 0.41331 0.0
C1122 C 0.3186 0.09138 0.37699 0.0
C1123 C 0.35097 0.07693 0.38977 0.0
C1124 C 0.31265 0.14521 0.40522 0.0
C1125 C 0.36337 0.09775 0.41011 0.0
C1126 C 0.31581 0.20956 0.42699 0.0
C1127 C 0.24145 0.22816 0.41047 0.0
N1128 N 0.34445 0.13085 0.41706 0.0
N1129 N 0.2575 0.19241 0.40597 0.0
H1130 H 0.04644 0.9699 0.15641 0.0
H1131 H 0.19921 0.14415 0.176 0.0
H1132 H 1.01024 0.07981 0.18665 0.0
H1133 H 0.20271 0.06718 0.11502 0.0
H1134 H 0.13791 0.11273 0.18896 0.0
H1135 H 0.11297 0.99602 0.15139 0.0
C1136 C 0.05301 0.99883 0.16315 0.0
C1137 C 0.02297 0.02242 0.1725 0.0
C1138 C 0.15227 0.10269 0.17281 0.0
C1139 C 0.09872 0.0529 0.16614 0.0
C1140 C 0.18718 0.12059 0.16538 0.0
C1141 C 0.20593 0.10859 0.14422 0.0
C1142 C 0.13658 0.07173 0.15942 0.0
C1143 C 0.18903 0.07777 0.13124 0.0
C1144 C 0.09075 0.014 0.15982 0.0
C1145 C 0.03276 0.06037 0.17992 0.0
N1146 N 0.15555 0.06027 0.13911 0.0
N1147 N 0.06971 0.07452 0.17651 0.0
H1148 H 0.12261 0.93012 0.91169 0.0
H1149 H 0.30742 0.78765 0.90269 0.0
H1150 H 0.21576 0.94919 0.86096 0.0
H1151 H 0.19228 0.74507 0.92024 0.0
H1152 H 0.27959 0.85319 0.89646 0.0
H1153 H 0.15238 0.86744 0.92266 0.0
C1154 C 0.14929 0.92099 0.90276 0.0
C1155 C 0.16659 0.94477 0.88523 0.0
C1156 C 0.26063 0.82969 0.90226 0.0
C1157 C 0.20144 0.87353 0.8983 0.0
C1158 C 0.27659 0.79255 0.90633 0.0
C1159 C 0.25221 0.76118 0.91262 0.0
C1160 C 0.22008 0.83559 0.90477 0.0
C1161 C 0.21216 0.7687 0.91602 0.0
C1162 C 0.16626 0.88527 0.90909 0.0
C1163 C 0.20121 0.93153 0.87433 0.0
N1164 N 0.19731 0.80512 0.91206 0.0
N1165 N 0.21775 0.89693 0.88121 0.0
H1166 H 0.3416 0.87404 0.66779 0.0
H1167 H 0.48444 0.05795 0.65409 0.0
H1168 H 0.32579 0.96147 0.61303 0.0
H1169 H 0.51921 0.95025 0.68782 0.0
H1170 H 0.41923 0.03019 0.64651 0.0
H1171 H 0.40078 0.90743 0.6812 0.0
C1172 C 0.35072 0.90023 0.65845 0.0
C1173 C 0.32875 0.91478 0.63909 0.0
C1174 C 0.44075 0.01305 0.6562 0.0
C1175 C 0.39645 0.95386 0.65488 0.0
C1176 C 0.47763 0.02924 0.6611 0.0
C1177 C 0.50702 1.00668 0.67215 0.0
C1178 C 0.43308 0.97413 0.6626 0.0
C1179 C 0.49715 0.96896 0.67982 0.0
C1180 C 0.38451 0.91935 0.66622 0.0
C1181 C 0.34207 0.94892 0.6278 0.0
N1182 N 0.4612 0.95378 0.67476 0.0
N1183 N 0.37495 0.96746 0.63595 0.0
loop_
_geom_bond_atom_site_label_1
_geom_bond_atom_site_label_2
_geom_bond_distance
_geom_bond_site_symmetry_2
_ccdc_geom_bond_type
Dy0 O4 2.398 . S
Dy0 O5 2.491 . S
Dy0 O6 2.403 . S
Dy0 O7 2.664 . S
Dy0 O11 2.326 . S
Dy0 O15 2.310 . S
Dy0 O16 2.351 . S
C1 O12 1.185 . S
C1 O13 1.355 . S
C2 O4 1.185 . S
C2 O5 1.355 . S
Dy3 O7 2.310 . S
Dy3 O10 2.351 . S
Dy3 O12 2.398 . S
Dy3 O13 2.491 . S
Dy3 O14 2.403 . S
Dy3 O15 2.664 . S
Dy3 O17 2.326 . S
O4 Dy0 2.398 . S
O4 C2 1.185 . S
O5 Dy0 2.491 . S
O5 C2 1.355 . S
O6 Dy0 2.403 . S
O6 C8 1.254 . S
O7 Dy0 2.664 . S
O7 Dy3 2.310 . S
O7 C8 1.268 . S
C8 O6 1.254 . S
C8 O7 1.268 . S
C9 O14 1.254 . S
C9 O15 1.268 . S
O10 Dy3 2.351 . S
O10 C18 1.249 . S
O11 Dy0 2.326 . S
O11 C18 1.267 . S
O12 C1 1.185 . S
O12 Dy3 2.398 . S
O13 C1 1.355 . S
O13 Dy3 2.491 . S
O14 Dy3 2.403 . S
O14 C9 1.254 . S
O15 Dy0 2.310 . S
O15 Dy3 2.664 . S
O15 C9 1.268 . S
O16 Dy0 2.351 . S
O16 C19 1.249 . S
O17 Dy3 2.326 . S
O17 C19 1.267 . S
C18 O10 1.249 . S
C18 O11 1.267 . S
C19 O16 1.249 . S
C19 O17 1.267 . S
Dy20 O24 2.398 . S
Dy20 O25 2.491 . S
Dy20 O26 2.403 . S
Dy20 O27 2.664 . S
Dy20 O31 2.326 . S
Dy20 O35 2.310 . S
Dy20 O36 2.351 . S
C21 O32 1.185 . S
C21 O33 1.355 . S
C22 O24 1.185 . S
C22 O25 1.355 . S
Dy23 O27 2.310 . S
Dy23 O30 2.351 . S
Dy23 O32 2.398 . S
Dy23 O33 2.491 . S
Dy23 O34 2.403 . S
Dy23 O35 2.664 . S
Dy23 O37 2.326 . S
O24 Dy20 2.398 . S
O24 C22 1.185 . S
O25 Dy20 2.491 . S
O25 C22 1.355 . S
O26 Dy20 2.403 . S
O26 C28 1.254 . S
O27 Dy20 2.664 . S
O27 Dy23 2.310 . S
O27 C28 1.268 . S
C28 O26 1.254 . S
C28 O27 1.268 . S
C29 O34 1.254 . S
C29 O35 1.268 . S
O30 Dy23 2.351 . S
O30 C38 1.249 . S
O31 Dy20 2.326 . S
O31 C38 1.267 . S
O32 C21 1.185 . S
O32 Dy23 2.398 . S
O33 C21 1.355 . S
O33 Dy23 2.491 . S
O34 Dy23 2.403 . S
O34 C29 1.254 . S
O35 Dy20 2.310 . S
O35 Dy23 2.664 . S
O35 C29 1.268 . S
O36 Dy20 2.351 . S
O36 C39 1.249 . S
O37 Dy23 2.326 . S
O37 C39 1.267 . S
C38 O30 1.249 . S
C38 O31 1.267 . S
C39 O36 1.249 . S
C39 O37 1.267 . S
Dy40 O44 2.398 . S
Dy40 O45 2.491 . S
Dy40 O46 2.403 . S
Dy40 O47 2.664 . S
Dy40 O51 2.326 . S
Dy40 O55 2.310 . S
Dy40 O56 2.351 . S
C41 O52 1.185 . S
C41 O53 1.355 . S
C42 O44 1.185 . S
C42 O45 1.355 . S
Dy43 O47 2.310 . S
Dy43 O50 2.351 . S
Dy43 O52 2.398 . S
Dy43 O53 2.491 . S
Dy43 O54 2.403 . S
Dy43 O55 2.664 . S
Dy43 O57 2.326 . S
O44 Dy40 2.398 . S
O44 C42 1.185 . S
O45 Dy40 2.491 . S
O45 C42 1.355 . S
O46 Dy40 2.403 . S
O46 C48 1.254 . S
O47 Dy40 2.664 . S
O47 Dy43 2.310 . S
O47 C48 1.268 . S
C48 O46 1.254 . S
C48 O47 1.268 . S
C49 O54 1.254 . S
C49 O55 1.268 . S
O50 Dy43 2.351 . S
O50 C58 1.249 . S
O51 Dy40 2.326 . S
O51 C58 1.267 . S
O52 C41 1.185 . S
O52 Dy43 2.398 . S
O53 C41 1.355 . S
O53 Dy43 2.491 . S
O54 Dy43 2.403 . S
O54 C49 1.254 . S
O55 Dy40 2.310 . S
O55 Dy43 2.664 . S
O55 C49 1.268 . S
O56 Dy40 2.351 . S
O56 C59 1.249 . S
O57 Dy43 2.326 . S
O57 C59 1.267 . S
C58 O50 1.249 . S
C58 O51 1.267 . S
C59 O56 1.249 . S
C59 O57 1.267 . S
Dy60 O64 2.398 . S
Dy60 O65 2.491 . S
Dy60 O66 2.403 . S
Dy60 O67 2.664 . S
Dy60 O71 2.326 . S
Dy60 O75 2.310 . S
Dy60 O76 2.351 . S
C61 O72 1.185 . S
C61 O73 1.355 . S
C62 O64 1.185 . S
C62 O65 1.355 . S
Dy63 O67 2.310 . S
Dy63 O70 2.351 . S
Dy63 O72 2.398 . S
Dy63 O73 2.491 . S
Dy63 O74 2.403 . S
Dy63 O75 2.664 . S
Dy63 O77 2.326 . S
O64 Dy60 2.398 . S
O64 C62 1.185 . S
O65 Dy60 2.491 . S
O65 C62 1.355 . S
O66 Dy60 2.403 . S
O66 C68 1.254 . S
O67 Dy60 2.664 . S
O67 Dy63 2.310 . S
O67 C68 1.268 . S
C68 O66 1.254 . S
C68 O67 1.268 . S
C69 O74 1.254 . S
C69 O75 1.268 . S
O70 Dy63 2.351 . S
O70 C78 1.249 . S
O71 Dy60 2.326 . S
O71 C78 1.267 . S
O72 C61 1.185 . S
O72 Dy63 2.398 . S
O73 C61 1.355 . S
O73 Dy63 2.491 . S
O74 Dy63 2.403 . S
O74 C69 1.254 . S
O75 Dy60 2.310 . S
O75 Dy63 2.664 . S
O75 C69 1.268 . S
O76 Dy60 2.351 . S
O76 C79 1.249 . S
O77 Dy63 2.326 . S
O77 C79 1.267 . S
C78 O70 1.249 . S
C78 O71 1.267 . S
C79 O76 1.249 . S
C79 O77 1.267 . S
Dy80 O84 2.398 . S
Dy80 O85 2.491 . S
Dy80 O86 2.403 . S
Dy80 O87 2.664 . S
Dy80 O91 2.326 . S
Dy80 O95 2.310 . S
Dy80 O96 2.351 . S
C81 O92 1.185 . S
C81 O93 1.355 . S
C82 O84 1.185 . S
C82 O85 1.355 . S
Dy83 O87 2.310 . S
Dy83 O90 2.351 . S
Dy83 O92 2.398 . S
Dy83 O93 2.491 . S
Dy83 O94 2.403 . S
Dy83 O95 2.664 . S
Dy83 O97 2.326 . S
O84 Dy80 2.398 . S
O84 C82 1.185 . S
O85 Dy80 2.491 . S
O85 C82 1.355 . S
O86 Dy80 2.403 . S
O86 C88 1.254 . S
O87 Dy80 2.664 . S
O87 Dy83 2.310 . S
O87 C88 1.268 . S
C88 O86 1.254 . S
C88 O87 1.268 . S
C89 O94 1.254 . S
C89 O95 1.268 . S
O90 Dy83 2.351 . S
O90 C98 1.249 . S
O91 Dy80 2.326 . S
O91 C98 1.267 . S
O92 C81 1.185 . S
O92 Dy83 2.398 . S
O93 C81 1.355 . S
O93 Dy83 2.491 . S
O94 Dy83 2.403 . S
O94 C89 1.254 . S
O95 Dy80 2.310 . S
O95 Dy83 2.664 . S
O95 C89 1.268 . S
O96 Dy80 2.351 . S
O96 C99 1.249 . S
O97 Dy83 2.326 . S
O97 C99 1.267 . S
C98 O90 1.249 . S
C98 O91 1.267 . S
C99 O96 1.249 . S
C99 O97 1.267 . S
Dy100 O104 2.398 . S
Dy100 O105 2.491 . S
Dy100 O106 2.403 . S
Dy100 O107 2.664 . S
Dy100 O111 2.326 . S
Dy100 O115 2.310 . S
Dy100 O116 2.351 . S
C101 O112 1.185 . S
C101 O113 1.355 . S
C102 O104 1.185 . S
C102 O105 1.355 . S
Dy103 O107 2.310 . S
Dy103 O110 2.351 . S
Dy103 O112 2.398 . S
Dy103 O113 2.491 . S
Dy103 O114 2.403 . S
Dy103 O115 2.664 . S
Dy103 O117 2.326 . S
O104 Dy100 2.398 . S
O104 C102 1.185 . S
O105 Dy100 2.491 . S
O105 C102 1.355 . S
O106 Dy100 2.403 . S
O106 C108 1.254 . S
O107 Dy100 2.664 . S
O107 Dy103 2.310 . S
O107 C108 1.268 . S
C108 O106 1.254 . S
C108 O107 1.268 . S
C109 O114 1.254 . S
C109 O115 1.268 . S
O110 Dy103 2.351 . S
O110 C118 1.249 . S
O111 Dy100 2.326 . S
O111 C118 1.267 . S
O112 C101 1.185 . S
O112 Dy103 2.398 . S
O113 C101 1.355 . S
O113 Dy103 2.491 . S
O114 Dy103 2.403 . S
O114 C109 1.254 . S
O115 Dy100 2.310 . S
O115 Dy103 2.664 . S
O115 C109 1.268 . S
O116 Dy100 2.351 . S
O116 C119 1.249 . S
O117 Dy103 2.326 . S
O117 C119 1.267 . S
C118 O110 1.249 . S
C118 O111 1.267 . S
C119 O116 1.249 . S
C119 O117 1.267 . S
Dy120 O124 2.398 . S
Dy120 O125 2.491 . S
Dy120 O126 2.403 . S
Dy120 O127 2.664 . S
Dy120 O131 2.326 . S
Dy120 O135 2.310 . S
Dy120 O136 2.351 . S
C121 O132 1.185 . S
C121 O133 1.355 . S
C122 O124 1.185 . S
C122 O125 1.355 . S
Dy123 O127 2.310 . S
Dy123 O130 2.351 . S
Dy123 O132 2.398 . S
Dy123 O133 2.491 . S
Dy123 O134 2.403 . S
Dy123 O135 2.664 . S
Dy123 O137 2.326 . S
O124 Dy120 2.398 . S
O124 C122 1.185 . S
O125 Dy120 2.491 . S
O125 C122 1.355 . S
O126 Dy120 2.403 . S
O126 C128 1.254 . S
O127 Dy120 2.664 . S
O127 Dy123 2.310 . S
O127 C128 1.268 . S
C128 O126 1.254 . S
C128 O127 1.268 . S
C129 O134 1.254 . S
C129 O135 1.268 . S
O130 Dy123 2.351 . S
O130 C138 1.249 . S
O131 Dy120 2.326 . S
O131 C138 1.267 . S
O132 C121 1.185 . S
O132 Dy123 2.398 . S
O133 C121 1.355 . S
O133 Dy123 2.491 . S
O134 Dy123 2.403 . S
O134 C129 1.254 . S
O135 Dy120 2.310 . S
O135 Dy123 2.664 . S
O135 C129 1.268 . S
O136 Dy120 2.351 . S
O136 C139 1.249 . S
O137 Dy123 2.326 . S
O137 C139 1.267 . S
C138 O130 1.249 . S
C138 O131 1.267 . S
C139 O136 1.249 . S
C139 O137 1.267 . S
Dy140 O144 2.398 . S
Dy140 O145 2.491 . S
Dy140 O146 2.403 . S
Dy140 O147 2.664 . S
Dy140 O151 2.326 . S
Dy140 O155 2.310 . S
Dy140 O156 2.351 . S
C141 O152 1.185 . S
C141 O153 1.355 . S
C142 O144 1.185 . S
C142 O145 1.355 . S
Dy143 O147 2.310 . S
Dy143 O150 2.351 . S
Dy143 O152 2.398 . S
Dy143 O153 2.491 . S
Dy143 O154 2.403 . S
Dy143 O155 2.664 . S
Dy143 O157 2.326 . S
O144 Dy140 2.398 . S
O144 C142 1.185 . S
O145 Dy140 2.491 . S
O145 C142 1.355 . S
O146 Dy140 2.403 . S
O146 C148 1.254 . S
O147 Dy140 2.664 . S
O147 Dy143 2.310 . S
O147 C148 1.268 . S
C148 O146 1.254 . S
C148 O147 1.268 . S
C149 O154 1.254 . S
C149 O155 1.268 . S
O150 Dy143 2.351 . S
O150 C158 1.249 . S
O151 Dy140 2.326 . S
O151 C158 1.267 . S
O152 C141 1.185 . S
O152 Dy143 2.398 . S
O153 C141 1.355 . S
O153 Dy143 2.491 . S
O154 Dy143 2.403 . S
O154 C149 1.254 . S
O155 Dy140 2.310 . S
O155 Dy143 2.664 . S
O155 C149 1.268 . S
O156 Dy140 2.351 . S
O156 C159 1.249 . S
O157 Dy143 2.326 . S
O157 C159 1.267 . S
C158 O150 1.249 . S
C158 O151 1.267 . S
C159 O156 1.249 . S
C159 O157 1.267 . S
Dy160 O164 2.398 . S
Dy160 O165 2.491 . S
Dy160 O166 2.403 . S
Dy160 O167 2.664 . S
Dy160 O171 2.326 . S
Dy160 O175 2.310 . S
Dy160 O176 2.351 . S
C161 O172 1.185 . S
C161 O173 1.355 . S
C162 O164 1.185 . S
C162 O165 1.355 . S
Dy163 O167 2.310 . S
Dy163 O170 2.351 . S
Dy163 O172 2.398 . S
Dy163 O173 2.491 . S
Dy163 O174 2.403 . S
Dy163 O175 2.664 . S
Dy163 O177 2.326 . S
O164 Dy160 2.398 . S
O164 C162 1.185 . S
O165 Dy160 2.491 . S
O165 C162 1.355 . S
O166 Dy160 2.403 . S
O166 C168 1.254 . S
O167 Dy160 2.664 . S
O167 Dy163 2.310 . S
O167 C168 1.268 . S
C168 O166 1.254 . S
C168 O167 1.268 . S
C169 O174 1.254 . S
C169 O175 1.268 . S
O170 Dy163 2.351 . S
O170 C178 1.249 . S
O171 Dy160 2.326 . S
O171 C178 1.267 . S
O172 C161 1.185 . S
O172 Dy163 2.398 . S
O173 C161 1.355 . S
O173 Dy163 2.491 . S
O174 Dy163 2.403 . S
O174 C169 1.254 . S
O175 Dy160 2.310 . S
O175 Dy163 2.664 . S
O175 C169 1.268 . S
O176 Dy160 2.351 . S
O176 C179 1.249 . S
O177 Dy163 2.326 . S
O177 C179 1.267 . S
C178 O170 1.249 . S
C178 O171 1.267 . S
C179 O176 1.249 . S
C179 O177 1.267 . S
Dy180 O184 2.398 . S
Dy180 O185 2.491 . S
Dy180 O186 2.403 1_545 S
Dy180 O187 2.664 . S
Dy180 O191 2.326 . S
Dy180 O195 2.310 . S
Dy180 O196 2.351 1_545 S
C181 O192 1.185 . S
C181 O193 1.355 . S
C182 O184 1.185 . S
C182 O185 1.355 . S
Dy183 O187 2.310 . S
Dy183 O190 2.351 . S
Dy183 O192 2.398 . S
Dy183 O193 2.491 . S
Dy183 O194 2.403 . S
Dy183 O195 2.664 . S
Dy183 O197 2.326 1_545 S
O184 Dy180 2.398 . S
O184 C182 1.185 . S
O185 Dy180 2.491 . S
O185 C182 1.355 . S
O186 Dy180 2.403 1_565 S
O186 C188 1.254 . S
O187 Dy180 2.664 . S
O187 Dy183 2.310 . S
O187 C188 1.268 1_545 S
C188 O186 1.254 . S
C188 O187 1.268 1_565 S
C189 O194 1.254 . S
C189 O195 1.268 . S
O190 Dy183 2.351 . S
O190 C198 1.249 . S
O191 Dy180 2.326 . S
O191 C198 1.267 . S
O192 C181 1.185 . S
O192 Dy183 2.398 . S
O193 C181 1.355 . S
O193 Dy183 2.491 . S
O194 Dy183 2.403 . S
O194 C189 1.254 . S
O195 Dy180 2.310 . S
O195 Dy183 2.664 . S
O195 C189 1.268 . S
O196 Dy180 2.351 1_565 S
O196 C199 1.249 . S
O197 Dy183 2.326 1_565 S
O197 C199 1.267 . S
C198 O190 1.249 . S
C198 O191 1.267 . S
C199 O196 1.249 . S
C199 O197 1.267 . S
Dy200 O204 2.398 . S
Dy200 O205 2.491 . S
Dy200 O206 2.403 . S
Dy200 O207 2.664 . S
Dy200 O211 2.326 . S
Dy200 O215 2.310 . S
Dy200 O216 2.351 . S
C201 O212 1.185 . S
C201 O213 1.355 . S
C202 O204 1.185 . S
C202 O205 1.355 . S
Dy203 O207 2.310 . S
Dy203 O210 2.351 . S
Dy203 O212 2.398 . S
Dy203 O213 2.491 . S
Dy203 O214 2.403 . S
Dy203 O215 2.664 . S
Dy203 O217 2.326 . S
O204 Dy200 2.398 . S
O204 C202 1.185 . S
O205 Dy200 2.491 . S
O205 C202 1.355 . S
O206 Dy200 2.403 . S
O206 C208 1.254 . S
O207 Dy200 2.664 . S
O207 Dy203 2.310 . S
O207 C208 1.268 . S
C208 O206 1.254 . S
C208 O207 1.268 . S
C209 O214 1.254 . S
C209 O215 1.268 . S
O210 Dy203 2.351 . S
O210 C218 1.249 . S
O211 Dy200 2.326 . S
O211 C218 1.267 . S
O212 C201 1.185 . S
O212 Dy203 2.398 . S
O213 C201 1.355 . S
O213 Dy203 2.491 . S
O214 Dy203 2.403 . S
O214 C209 1.254 . S
O215 Dy200 2.310 . S
O215 Dy203 2.664 . S
O215 C209 1.268 . S
O216 Dy200 2.351 . S
O216 C219 1.249 . S
O217 Dy203 2.326 . S
O217 C219 1.267 . S
C218 O210 1.249 . S
C218 O211 1.267 . S
C219 O216 1.249 . S
C219 O217 1.267 . S
Dy220 O224 2.398 . S
Dy220 O225 2.491 . S
Dy220 O226 2.403 1_565 S
Dy220 O227 2.664 . S
Dy220 O231 2.326 . S
Dy220 O235 2.310 . S
Dy220 O236 2.351 1_565 S
C221 O232 1.185 . S
C221 O233 1.355 . S
C222 O224 1.185 . S
C222 O225 1.355 . S
Dy223 O227 2.310 . S
Dy223 O230 2.351 . S
Dy223 O232 2.398 . S
Dy223 O233 2.491 . S
Dy223 O234 2.403 . S
Dy223 O235 2.664 . S
Dy223 O237 2.326 1_565 S
O224 Dy220 2.398 . S
O224 C222 1.185 . S
O225 Dy220 2.491 . S
O225 C222 1.355 . S
O226 Dy220 2.403 1_545 S
O226 C228 1.254 . S
O227 Dy220 2.664 . S
O227 Dy223 2.310 . S
O227 C228 1.268 1_565 S
C228 O226 1.254 . S
C228 O227 1.268 1_545 S
C229 O234 1.254 . S
C229 O235 1.268 . S
O230 Dy223 2.351 . S
O230 C238 1.249 . S
O231 Dy220 2.326 . S
O231 C238 1.267 . S
O232 C221 1.185 . S
O232 Dy223 2.398 . S
O233 C221 1.355 . S
O233 Dy223 2.491 . S
O234 Dy223 2.403 . S
O234 C229 1.254 . S
O235 Dy220 2.310 . S
O235 Dy223 2.664 . S
O235 C229 1.268 . S
O236 Dy220 2.351 1_545 S
O236 C239 1.249 . S
O237 Dy223 2.326 1_545 S
O237 C239 1.267 . S
C238 O230 1.249 . S
C238 O231 1.267 . S
C239 O236 1.249 . S
C239 O237 1.267 . S
Dy240 O244 2.398 . S
Dy240 O245 2.491 . S
Dy240 O246 2.403 . S
Dy240 O247 2.664 . S
Dy240 O251 2.326 . S
Dy240 O255 2.310 . S
Dy240 O256 2.351 . S
C241 O252 1.185 . S
C241 O253 1.355 . S
C242 O244 1.185 . S
C242 O245 1.355 . S
Dy243 O247 2.310 . S
Dy243 O250 2.351 . S
Dy243 O252 2.398 . S
Dy243 O253 2.491 . S
Dy243 O254 2.403 . S
Dy243 O255 2.664 . S
Dy243 O257 2.326 . S
O244 Dy240 2.398 . S
O244 C242 1.185 . S
O245 Dy240 2.491 . S
O245 C242 1.355 . S
O246 Dy240 2.403 . S
O246 C248 1.254 . S
O247 Dy240 2.664 . S
O247 Dy243 2.310 . S
O247 C248 1.268 . S
C248 O246 1.254 . S
C248 O247 1.268 . S
C249 O254 1.254 . S
C249 O255 1.268 . S
O250 Dy243 2.351 . S
O250 C258 1.249 . S
O251 Dy240 2.326 . S
O251 C258 1.267 . S
O252 C241 1.185 . S
O252 Dy243 2.398 . S
O253 C241 1.355 . S
O253 Dy243 2.491 . S
O254 Dy243 2.403 . S
O254 C249 1.254 . S
O255 Dy240 2.310 . S
O255 Dy243 2.664 . S
O255 C249 1.268 . S
O256 Dy240 2.351 . S
O256 C259 1.249 . S
O257 Dy243 2.326 . S
O257 C259 1.267 . S
C258 O250 1.249 . S
C258 O251 1.267 . S
C259 O256 1.249 . S
C259 O257 1.267 . S
Dy260 O264 2.398 . S
Dy260 O265 2.491 . S
Dy260 O266 2.403 . S
Dy260 O267 2.664 . S
Dy260 O271 2.326 1_565 S
Dy260 O275 2.310 . S
Dy260 O276 2.351 . S
C261 O272 1.185 . S
C261 O273 1.355 . S
C262 O264 1.185 . S
C262 O265 1.355 . S
Dy263 O267 2.310 . S
Dy263 O270 2.351 1_565 S
Dy263 O272 2.398 . S
Dy263 O273 2.491 . S
Dy263 O274 2.403 1_565 S
Dy263 O275 2.664 . S
Dy263 O277 2.326 . S
O264 Dy260 2.398 . S
O264 C262 1.185 . S
O265 Dy260 2.491 . S
O265 C262 1.355 . S
O266 Dy260 2.403 . S
O266 C268 1.254 . S
O267 Dy260 2.664 . S
O267 Dy263 2.310 . S
O267 C268 1.268 . S
C268 O266 1.254 . S
C268 O267 1.268 . S
C269 O274 1.254 . S
C269 O275 1.268 1_545 S
O270 Dy263 2.351 1_545 S
O270 C278 1.249 . S
O271 Dy260 2.326 1_545 S
O271 C278 1.267 . S
O272 C261 1.185 . S
O272 Dy263 2.398 . S
O273 C261 1.355 . S
O273 Dy263 2.491 . S
O274 Dy263 2.403 1_545 S
O274 C269 1.254 . S
O275 Dy260 2.310 . S
O275 Dy263 2.664 . S
O275 C269 1.268 1_565 S
O276 Dy260 2.351 . S
O276 C279 1.249 . S
O277 Dy263 2.326 . S
O277 C279 1.267 . S
C278 O270 1.249 . S
C278 O271 1.267 . S
C279 O276 1.249 . S
C279 O277 1.267 . S
Dy280 O284 2.398 . S
Dy280 O285 2.491 . S
Dy280 O286 2.403 . S
Dy280 O287 2.664 . S
Dy280 O291 2.326 . S
Dy280 O295 2.310 . S
Dy280 O296 2.351 . S
C281 O292 1.185 . S
C281 O293 1.355 . S
C282 O284 1.185 . S
C282 O285 1.355 . S
Dy283 O287 2.310 . S
Dy283 O290 2.351 . S
Dy283 O292 2.398 . S
Dy283 O293 2.491 . S
Dy283 O294 2.403 . S
Dy283 O295 2.664 . S
Dy283 O297 2.326 . S
O284 Dy280 2.398 . S
O284 C282 1.185 . S
O285 Dy280 2.491 . S
O285 C282 1.355 . S
O286 Dy280 2.403 . S
O286 C288 1.254 . S
O287 Dy280 2.664 . S
O287 Dy283 2.310 . S
O287 C288 1.268 . S
C288 O286 1.254 . S
C288 O287 1.268 . S
C289 O294 1.254 . S
C289 O295 1.268 . S
O290 Dy283 2.351 . S
O290 C298 1.249 . S
O291 Dy280 2.326 . S
O291 C298 1.267 . S
O292 C281 1.185 . S
O292 Dy283 2.398 . S
O293 C281 1.355 . S
O293 Dy283 2.491 . S
O294 Dy283 2.403 . S
O294 C289 1.254 . S
O295 Dy280 2.310 . S
O295 Dy283 2.664 . S
O295 C289 1.268 . S
O296 Dy280 2.351 . S
O296 C299 1.249 . S
O297 Dy283 2.326 . S
O297 C299 1.267 . S
C298 O290 1.249 . S
C298 O291 1.267 . S
C299 O296 1.249 . S
C299 O297 1.267 . S
Dy300 O304 2.398 . S
Dy300 O305 2.491 . S
Dy300 O306 2.403 . S
Dy300 O307 2.664 . S
Dy300 O311 2.326 1_545 S
Dy300 O315 2.310 . S
Dy300 O316 2.351 . S
C301 O312 1.185 . S
C301 O313 1.355 . S
C302 O304 1.185 . S
C302 O305 1.355 . S
Dy303 O307 2.310 . S
Dy303 O310 2.351 1_545 S
Dy303 O312 2.398 . S
Dy303 O313 2.491 . S
Dy303 O314 2.403 1_545 S
Dy303 O315 2.664 . S
Dy303 O317 2.326 . S
O304 Dy300 2.398 . S
O304 C302 1.185 . S
O305 Dy300 2.491 . S
O305 C302 1.355 . S
O306 Dy300 2.403 . S
O306 C308 1.254 . S
O307 Dy300 2.664 . S
O307 Dy303 2.310 . S
O307 C308 1.268 . S
C308 O306 1.254 . S
C308 O307 1.268 . S
C309 O314 1.254 . S
C309 O315 1.268 1_565 S
O310 Dy303 2.351 1_565 S
O310 C318 1.249 . S
O311 Dy300 2.326 1_565 S
O311 C318 1.267 . S
O312 C301 1.185 . S
O312 Dy303 2.398 . S
O313 C301 1.355 . S
O313 Dy303 2.491 . S
O314 Dy303 2.403 1_565 S
O314 C309 1.254 . S
O315 Dy300 2.310 . S
O315 Dy303 2.664 . S
O315 C309 1.268 1_545 S
O316 Dy300 2.351 . S
O316 C319 1.249 . S
O317 Dy303 2.326 . S
O317 C319 1.267 . S
C318 O310 1.249 . S
C318 O311 1.267 . S
C319 O316 1.249 . S
C319 O317 1.267 . S
H320 C326 0.930 . S
H321 C330 0.930 . S
H322 C335 0.929 . S
H323 C333 0.929 . S
H324 C328 0.929 . S
H325 C334 0.929 . S
C326 H320 0.930 . S
C326 C327 1.367 . S
C326 C334 1.378 . S
C327 C326 1.367 . S
C327 C335 1.433 . S
C328 H324 0.929 . S
C328 C330 1.378 . S
C328 C332 1.350 . S
C329 C332 1.463 . S
C329 C334 1.350 . S
C329 N337 1.427 . S
C330 H321 0.930 . S
C330 C328 1.378 . S
C330 C331 1.367 . S
C331 C330 1.367 . S
C331 C333 1.433 . S
C332 C328 1.350 . S
C332 C329 1.463 . S
C332 N336 1.427 . S
C333 H323 0.929 . S
C333 C331 1.433 . S
C333 N336 1.384 . S
C334 H325 0.929 . S
C334 C326 1.378 . S
C334 C329 1.350 . S
C335 H322 0.929 . S
C335 C327 1.433 . S
C335 N337 1.384 . S
N336 C332 1.427 . S
N336 C333 1.384 . S
N337 C329 1.427 . S
N337 C335 1.384 . S
H338 C344 0.930 . S
H339 C348 0.930 . S
H340 C353 0.929 . S
H341 C351 0.929 . S
H342 C346 0.929 . S
H343 C352 0.929 . S
C344 H338 0.930 . S
C344 C345 1.367 . S
C344 C352 1.378 . S
C345 C344 1.367 . S
C345 C353 1.433 . S
C346 H342 0.929 . S
C346 C348 1.378 . S
C346 C350 1.350 . S
C347 C350 1.463 . S
C347 C352 1.350 . S
C347 N355 1.427 . S
C348 H339 0.930 . S
C348 C346 1.378 . S
C348 C349 1.367 . S
C349 C348 1.367 . S
C349 C351 1.433 . S
C350 C346 1.350 . S
C350 C347 1.463 . S
C350 N354 1.427 . S
C351 H341 0.929 . S
C351 C349 1.433 . S
C351 N354 1.384 . S
C352 H343 0.929 . S
C352 C344 1.378 . S
C352 C347 1.350 . S
C353 H340 0.929 . S
C353 C345 1.433 . S
C353 N355 1.384 . S
N354 C350 1.427 . S
N354 C351 1.384 . S
N355 C347 1.427 . S
N355 C353 1.384 . S
H356 C362 0.930 . S
H357 C366 0.930 . S
H358 C371 0.929 . S
H359 C369 0.929 . S
H360 C364 0.929 . S
H361 C370 0.929 . S
C362 H356 0.930 . S
C362 C363 1.367 . S
C362 C370 1.378 . S
C363 C362 1.367 . S
C363 C371 1.433 . S
C364 H360 0.929 . S
C364 C366 1.378 . S
C364 C368 1.350 . S
C365 C368 1.463 . S
C365 C370 1.350 . S
C365 N373 1.427 . S
C366 H357 0.930 . S
C366 C364 1.378 . S
C366 C367 1.367 . S
C367 C366 1.367 . S
C367 C369 1.433 . S
C368 C364 1.350 . S
C368 C365 1.463 . S
C368 N372 1.427 . S
C369 H359 0.929 . S
C369 C367 1.433 . S
C369 N372 1.384 . S
C370 H361 0.929 . S
C370 C362 1.378 . S
C370 C365 1.350 . S
C371 H358 0.929 . S
C371 C363 1.433 . S
C371 N373 1.384 . S
N372 C368 1.427 . S
N372 C369 1.384 . S
N373 C365 1.427 . S
N373 C371 1.384 . S
H374 C380 0.930 . S
H375 C384 0.930 . S
H376 C389 0.929 . S
H377 C387 0.929 . S
H378 C382 0.929 . S
H379 C388 0.929 . S
C380 H374 0.930 . S
C380 C381 1.367 . S
C380 C388 1.378 . S
C381 C380 1.367 . S
C381 C389 1.433 1_655 S
C382 H378 0.929 . S
C382 C384 1.378 . S
C382 C386 1.350 . S
C383 C386 1.463 1_656 S
C383 C388 1.350 . S
C383 N391 1.427 1_655 S
C384 H375 0.930 . S
C384 C382 1.378 . S
C384 C385 1.367 . S
C385 C384 1.367 . S
C385 C387 1.433 1_455 S
C386 C382 1.350 . S
C386 C383 1.463 1_454 S
C386 N390 1.427 1_455 S
C387 H377 0.929 . S
C387 C385 1.433 1_655 S
C387 N390 1.384 . S
C388 H379 0.929 . S
C388 C380 1.378 . S
C388 C383 1.350 . S
C389 H376 0.929 . S
C389 C381 1.433 1_455 S
C389 N391 1.384 . S
N390 C386 1.427 1_655 S
N390 C387 1.384 . S
N391 C383 1.427 1_455 S
N391 C389 1.384 . S
H392 C398 0.930 . S
H393 C402 0.930 . S
H394 C407 0.929 . S
H395 C405 0.929 . S
H396 C400 0.929 . S
H397 C406 0.929 . S
C398 H392 0.930 . S
C398 C399 1.367 . S
C398 C406 1.378 . S
C399 C398 1.367 . S
C399 C407 1.433 . S
C400 H396 0.929 . S
C400 C402 1.378 . S
C400 C404 1.350 . S
C401 C404 1.463 . S
C401 C406 1.350 . S
C401 N409 1.427 . S
C402 H393 0.930 . S
C402 C400 1.378 . S
C402 C403 1.367 . S
C403 C402 1.367 . S
C403 C405 1.433 . S
C404 C400 1.350 . S
C404 C401 1.463 . S
C404 N408 1.427 . S
C405 H395 0.929 . S
C405 C403 1.433 . S
C405 N408 1.384 . S
C406 H397 0.929 . S
C406 C398 1.378 . S
C406 C401 1.350 . S
C407 H394 0.929 . S
C407 C399 1.433 . S
C407 N409 1.384 . S
N408 C404 1.427 . S
N408 C405 1.384 . S
N409 C401 1.427 . S
N409 C407 1.384 . S
H410 C416 0.930 . S
H411 C420 0.930 . S
H412 C425 0.929 . S
H413 C423 0.929 . S
H414 C418 0.929 . S
H415 C424 0.929 . S
C416 H410 0.930 . S
C416 C417 1.367 . S
C416 C424 1.378 . S
C417 C416 1.367 . S
C417 C425 1.433 . S
C418 H414 0.929 . S
C418 C420 1.378 . S
C418 C422 1.350 . S
C419 C422 1.463 . S
C419 C424 1.350 . S
C419 N427 1.427 . S
C420 H411 0.930 . S
C420 C418 1.378 . S
C420 C421 1.367 . S
C421 C420 1.367 . S
C421 C423 1.433 . S
C422 C418 1.350 . S
C422 C419 1.463 . S
C422 N426 1.427 . S
C423 H413 0.929 . S
C423 C421 1.433 . S
C423 N426 1.384 . S
C424 H415 0.929 . S
C424 C416 1.378 . S
C424 C419 1.350 . S
C425 H412 0.929 . S
C425 C417 1.433 . S
C425 N427 1.384 . S
N426 C422 1.427 . S
N426 C423 1.384 . S
N427 C419 1.427 . S
N427 C425 1.384 . S
H428 C434 0.930 . S
H429 C438 0.930 . S
H430 C443 0.929 . S
H431 C441 0.929 . S
H432 C436 0.944 . S
H433 C442 0.944 . S
C434 H428 0.930 . S
C434 C435 1.367 . S
C434 C442 1.368 1_565 S
C435 C434 1.367 . S
C435 C443 1.433 . S
C436 H432 0.944 . S
C436 C438 1.368 1_565 S
C436 C440 1.345 1_565 S
C437 C440 1.463 1_664 S
C437 C442 1.345 1_565 S
C437 N445 1.427 . S
C438 H429 0.930 . S
C438 C436 1.368 1_545 S
C438 C439 1.367 . S
C439 C438 1.367 . S
C439 C441 1.433 . S
C440 C436 1.345 1_545 S
C440 C437 1.463 1_446 S
C440 N444 1.427 . S
C441 H431 0.929 . S
C441 C439 1.433 . S
C441 N444 1.384 . S
C442 H433 0.944 . S
C442 C434 1.368 1_545 S
C442 C437 1.345 1_545 S
C443 H430 0.929 . S
C443 C435 1.433 . S
C443 N445 1.384 . S
N444 C440 1.427 . S
N444 C441 1.384 . S
N445 C437 1.427 . S
N445 C443 1.384 . S
H446 C452 0.930 . S
H447 C456 0.930 . S
H448 C461 0.929 . S
H449 C459 0.929 . S
H450 C454 0.929 . S
H451 C460 0.929 . S
C452 H446 0.930 . S
C452 C453 1.367 . S
C452 C460 1.378 . S
C453 C452 1.367 . S
C453 C461 1.433 . S
C454 H450 0.929 . S
C454 C456 1.378 . S
C454 C458 1.350 . S
C455 C458 1.463 1_565 S
C455 C460 1.350 . S
C455 N463 1.423 1_565 S
C456 H447 0.930 . S
C456 C454 1.378 . S
C456 C457 1.367 . S
C457 C456 1.367 . S
C457 C459 1.433 . S
C458 C454 1.350 . S
C458 C455 1.463 1_545 S
C458 N462 1.423 1_545 S
C459 H449 0.929 . S
C459 C457 1.433 . S
C459 N462 1.376 1_545 S
C460 H451 0.929 . S
C460 C452 1.378 . S
C460 C455 1.350 . S
C461 H448 0.929 . S
C461 C453 1.433 . S
C461 N463 1.376 1_565 S
N462 C458 1.423 1_565 S
N462 C459 1.376 1_565 S
N463 C455 1.423 1_545 S
N463 C461 1.376 1_545 S
H464 C470 0.930 . S
H465 C474 0.930 . S
H466 C479 0.929 . S
H467 C477 0.929 . S
H468 C472 0.929 . S
H469 C478 0.929 . S
C470 H464 0.930 . S
C470 C471 1.367 . S
C470 C478 1.378 . S
C471 C470 1.367 . S
C471 C479 1.433 . S
C472 H468 0.929 . S
C472 C474 1.378 . S
C472 C476 1.350 . S
C473 C476 1.463 1_556 S
C473 C478 1.350 . S
C473 N481 1.427 . S
C474 H465 0.930 . S
C474 C472 1.378 . S
C474 C475 1.367 . S
C475 C474 1.367 . S
C475 C477 1.433 . S
C476 C472 1.350 . S
C476 C473 1.463 1_554 S
C476 N480 1.427 . S
C477 H467 0.929 . S
C477 C475 1.433 . S
C477 N480 1.384 . S
C478 H469 0.929 . S
C478 C470 1.378 . S
C478 C473 1.350 . S
C479 H466 0.929 . S
C479 C471 1.433 . S
C479 N481 1.384 . S
N480 C476 1.427 . S
N480 C477 1.384 . S
N481 C473 1.427 . S
N481 C479 1.384 . S
H482 C488 0.930 . S
H483 C492 0.930 . S
H484 C497 0.929 . S
H485 C495 0.929 . S
H486 C490 0.929 . S
H487 C496 0.929 . S
C488 H482 0.930 . S
C488 C489 1.367 . S
C488 C496 1.378 . S
C489 C488 1.367 . S
C489 C497 1.433 . S
C490 H486 0.929 . S
C490 C492 1.378 . S
C490 C494 1.350 . S
C491 C494 1.463 . S
C491 C496 1.350 . S
C491 N499 1.427 . S
C492 H483 0.930 . S
C492 C490 1.378 . S
C492 C493 1.367 . S
C493 C492 1.367 . S
C493 C495 1.433 . S
C494 C490 1.350 . S
C494 C491 1.463 . S
C494 N498 1.427 . S
C495 H485 0.929 . S
C495 C493 1.433 . S
C495 N498 1.384 . S
C496 H487 0.929 . S
C496 C488 1.378 . S
C496 C491 1.350 . S
C497 H484 0.929 . S
C497 C489 1.433 . S
C497 N499 1.384 . S
N498 C494 1.427 . S
N498 C495 1.384 . S
N499 C491 1.427 . S
N499 C497 1.384 . S
H500 C506 0.930 . S
H501 C510 0.930 . S
H502 C515 0.929 . S
H503 C513 0.929 . S
H504 C508 0.929 . S
H505 C514 0.929 . S
C506 H500 0.930 . S
C506 C507 1.367 . S
C506 C514 1.378 . S
C507 C506 1.367 . S
C507 C515 1.433 . S
C508 H504 0.929 . S
C508 C510 1.378 . S
C508 C512 1.350 . S
C509 C512 1.463 . S
C509 C514 1.350 . S
C509 N517 1.427 . S
C510 H501 0.930 . S
C510 C508 1.378 . S
C510 C511 1.367 . S
C511 C510 1.367 . S
C511 C513 1.433 . S
C512 C508 1.350 . S
C512 C509 1.463 . S
C512 N516 1.427 . S
C513 H503 0.929 . S
C513 C511 1.433 . S
C513 N516 1.384 . S
C514 H505 0.929 . S
C514 C506 1.378 . S
C514 C509 1.350 . S
C515 H502 0.929 . S
C515 C507 1.433 . S
C515 N517 1.384 . S
N516 C512 1.427 . S
N516 C513 1.384 . S
N517 C509 1.427 . S
N517 C515 1.384 . S
H518 C524 0.930 . S
H519 C528 0.930 . S
H520 C533 0.929 . S
H521 C531 0.929 . S
H522 C526 0.929 . S
H523 C532 0.929 . S
C524 H518 0.930 . S
C524 C525 1.367 . S
C524 C532 1.378 . S
C525 C524 1.367 . S
C525 C533 1.433 . S
C526 H522 0.929 . S
C526 C528 1.378 . S
C526 C530 1.350 . S
C527 C530 1.463 . S
C527 C532 1.350 . S
C527 N535 1.427 . S
C528 H519 0.930 . S
C528 C526 1.378 . S
C528 C529 1.367 . S
C529 C528 1.367 . S
C529 C531 1.433 . S
C530 C526 1.350 . S
C530 C527 1.463 . S
C530 N534 1.427 . S
C531 H521 0.929 . S
C531 C529 1.433 . S
C531 N534 1.384 . S
C532 H523 0.929 . S
C532 C524 1.378 . S
C532 C527 1.350 . S
C533 H520 0.929 . S
C533 C525 1.433 . S
C533 N535 1.384 . S
N534 C530 1.427 . S
N534 C531 1.384 . S
N535 C527 1.427 . S
N535 C533 1.384 . S
H536 C542 0.930 . S
H537 C546 0.930 . S
H538 C551 0.929 . S
H539 C549 0.929 . S
H540 C544 0.953 . S
H541 C550 0.929 . S
C542 H536 0.930 . S
C542 C543 1.367 . S
C542 C550 1.378 . S
C543 C542 1.367 . S
C543 C551 1.433 . S
C544 H540 0.953 . S
C544 C546 1.378 . S
C544 C548 1.350 . S
C545 C548 1.463 1_554 S
C545 C550 1.350 . S
C545 N553 1.427 . S
C546 H537 0.930 . S
C546 C544 1.378 . S
C546 C547 1.367 . S
C547 C546 1.367 . S
C547 C549 1.433 . S
C548 C544 1.350 . S
C548 C545 1.463 1_556 S
C548 N552 1.427 . S
C549 H539 0.929 . S
C549 C547 1.433 . S
C549 N552 1.384 . S
C550 H541 0.929 . S
C550 C542 1.378 . S
C550 C545 1.350 . S
C551 H538 0.929 . S
C551 C543 1.433 . S
C551 N553 1.384 . S
N552 C548 1.427 . S
N552 C549 1.384 . S
N553 C545 1.427 . S
N553 C551 1.384 . S
H554 C560 0.930 . S
H555 C564 0.930 . S
H556 C569 0.929 . S
H557 C567 0.929 . S
H558 C562 0.929 . S
H559 C568 0.929 . S
C560 H554 0.930 . S
C560 C561 1.367 . S
C560 C568 1.378 . S
C561 C560 1.367 . S
C561 C569 1.433 . S
C562 H558 0.929 . S
C562 C564 1.378 . S
C562 C566 1.350 . S
C563 C566 1.463 . S
C563 C568 1.350 . S
C563 N571 1.427 . S
C564 H555 0.930 . S
C564 C562 1.378 . S
C564 C565 1.367 . S
C565 C564 1.367 . S
C565 C567 1.433 . S
C566 C562 1.350 . S
C566 C563 1.463 . S
C566 N570 1.427 . S
C567 H557 0.929 . S
C567 C565 1.433 . S
C567 N570 1.384 . S
C568 H559 0.929 . S
C568 C560 1.378 . S
C568 C563 1.350 . S
C569 H556 0.929 . S
C569 C561 1.433 . S
C569 N571 1.384 . S
N570 C566 1.427 . S
N570 C567 1.384 . S
N571 C563 1.427 . S
N571 C569 1.384 . S
H572 C578 0.930 . S
H573 C582 0.930 . S
H574 C587 0.929 . S
H575 C585 0.929 . S
H576 C580 0.929 . S
H577 C586 0.929 . S
C578 H572 0.930 . S
C578 C579 1.367 . S
C578 C586 1.378 . S
C579 C578 1.367 . S
C579 C587 1.433 . S
C580 H576 0.929 . S
C580 C582 1.378 . S
C580 C584 1.350 . S
C581 C584 1.463 . S
C581 C586 1.350 . S
C581 N589 1.427 . S
C582 H573 0.930 . S
C582 C580 1.378 . S
C582 C583 1.367 . S
C583 C582 1.367 . S
C583 C585 1.433 . S
C584 C580 1.350 . S
C584 C581 1.463 . S
C584 N588 1.427 . S
C585 H575 0.929 . S
C585 C583 1.433 . S
C585 N588 1.384 . S
C586 H577 0.929 . S
C586 C578 1.378 . S
C586 C581 1.350 . S
C587 H574 0.929 . S
C587 C579 1.433 . S
C587 N589 1.384 . S
N588 C584 1.427 . S
N588 C585 1.384 . S
N589 C581 1.427 . S
N589 C587 1.384 . S
H590 C596 0.930 . S
H591 C600 0.930 . S
H592 C605 0.929 . S
H593 C603 0.929 . S
H594 C598 0.929 . S
H595 C604 0.929 . S
C596 H590 0.930 . S
C596 C597 1.367 . S
C596 C604 1.378 . S
C597 C596 1.367 . S
C597 C605 1.433 . S
C598 H594 0.929 . S
C598 C600 1.378 . S
C598 C602 1.350 . S
C599 C602 1.463 . S
C599 C604 1.350 . S
C599 N607 1.427 . S
C600 H591 0.930 . S
C600 C598 1.378 . S
C600 C601 1.367 . S
C601 C600 1.367 . S
C601 C603 1.433 . S
C602 C598 1.350 . S
C602 C599 1.463 . S
C602 N606 1.427 . S
C603 H593 0.929 . S
C603 C601 1.433 . S
C603 N606 1.384 . S
C604 H595 0.929 . S
C604 C596 1.378 . S
C604 C599 1.350 . S
C605 H592 0.929 . S
C605 C597 1.433 . S
C605 N607 1.384 . S
N606 C602 1.427 . S
N606 C603 1.384 . S
N607 C599 1.427 . S
N607 C605 1.384 . S
H608 C614 0.930 . S
H609 C618 0.930 . S
H610 C623 0.929 . S
H611 C621 0.929 . S
H612 C616 0.929 . S
H613 C622 0.929 . S
C614 H608 0.930 . S
C614 C615 1.367 . S
C614 C622 1.378 . S
C615 C614 1.367 . S
C615 C623 1.433 . S
C616 H612 0.929 . S
C616 C618 1.378 . S
C616 C620 1.350 . S
C617 C620 1.463 . S
C617 C622 1.350 . S
C617 N625 1.427 . S
C618 H609 0.930 . S
C618 C616 1.378 . S
C618 C619 1.367 . S
C619 C618 1.367 . S
C619 C621 1.433 . S
C620 C616 1.350 . S
C620 C617 1.463 . S
C620 N624 1.427 . S
C621 H611 0.929 . S
C621 C619 1.433 . S
C621 N624 1.384 . S
C622 H613 0.929 . S
C622 C614 1.378 . S
C622 C617 1.350 . S
C623 H610 0.929 . S
C623 C615 1.433 . S
C623 N625 1.384 . S
N624 C620 1.427 . S
N624 C621 1.384 . S
N625 C617 1.427 . S
N625 C623 1.384 . S
H626 C632 0.930 . S
H627 C636 0.930 . S
H628 C641 0.929 . S
H629 C639 0.929 . S
H630 C634 0.929 . S
H631 C640 0.929 . S
C632 H626 0.930 . S
C632 C633 1.367 1_545 S
C632 C640 1.378 . S
C633 C632 1.367 1_565 S
C633 C641 1.433 . S
C634 H630 0.929 . S
C634 C636 1.378 . S
C634 C638 1.350 . S
C635 C638 1.463 . S
C635 C640 1.350 1_565 S
C635 N643 1.427 . S
C636 H627 0.930 . S
C636 C634 1.378 . S
C636 C637 1.367 . S
C637 C636 1.367 . S
C637 C639 1.433 . S
C638 C634 1.350 . S
C638 C635 1.463 . S
C638 N642 1.427 . S
C639 H629 0.929 . S
C639 C637 1.433 . S
C639 N642 1.384 . S
C640 H631 0.929 . S
C640 C632 1.378 . S
C640 C635 1.350 1_545 S
C641 H628 0.929 . S
C641 C633 1.433 . S
C641 N643 1.384 . S
N642 C638 1.427 . S
N642 C639 1.384 . S
N643 C635 1.427 . S
N643 C641 1.384 . S
H644 C650 0.930 . S
H645 C654 0.930 . S
H646 C659 0.929 . S
H647 C657 0.929 . S
H648 C652 0.929 . S
H649 C658 0.929 . S
C650 H644 0.930 . S
C650 C651 1.367 . S
C650 C658 1.378 . S
C651 C650 1.367 . S
C651 C659 1.433 . S
C652 H648 0.929 . S
C652 C654 1.378 . S
C652 C656 1.350 . S
C653 C656 1.463 1_554 S
C653 C658 1.350 . S
C653 N661 1.427 . S
C654 H645 0.930 . S
C654 C652 1.378 . S
C654 C655 1.367 . S
C655 C654 1.367 . S
C655 C657 1.433 . S
C656 C652 1.350 . S
C656 C653 1.463 1_556 S
C656 N660 1.427 . S
C657 H647 0.929 . S
C657 C655 1.433 . S
C657 N660 1.384 . S
C658 H649 0.929 . S
C658 C650 1.378 . S
C658 C653 1.350 . S
C659 H646 0.929 . S
C659 C651 1.433 . S
C659 N661 1.384 . S
N660 C656 1.427 . S
N660 C657 1.384 . S
N661 C653 1.427 . S
N661 C659 1.384 . S
H662 C668 0.930 . S
H663 C672 0.930 . S
H664 C677 0.929 . S
H665 C675 0.929 . S
H666 C670 0.929 . S
H667 C676 0.929 1_565 S
C668 H662 0.930 . S
C668 C669 1.367 . S
C668 C676 1.378 . S
C669 C668 1.367 . S
C669 C677 1.433 . S
C670 H666 0.929 . S
C670 C672 1.378 . S
C670 C674 1.350 . S
C671 C674 1.463 . S
C671 C676 1.350 . S
C671 N679 1.427 . S
C672 H663 0.930 . S
C672 C670 1.378 . S
C672 C673 1.367 . S
C673 C672 1.367 . S
C673 C675 1.433 1_545 S
C674 C670 1.350 . S
C674 C671 1.463 . S
C674 N678 1.427 1_545 S
C675 H665 0.929 . S
C675 C673 1.433 1_565 S
C675 N678 1.384 . S
C676 H667 0.929 1_545 S
C676 C668 1.378 . S
C676 C671 1.350 . S
C677 H664 0.929 . S
C677 C669 1.433 . S
C677 N679 1.384 . S
N678 C674 1.427 1_565 S
N678 C675 1.384 . S
N679 C671 1.427 . S
N679 C677 1.384 . S
H680 C686 0.930 . S
H681 C690 0.930 . S
H682 C695 0.929 . S
H683 C693 0.929 . S
H684 C688 0.929 . S
H685 C694 0.929 . S
C686 H680 0.930 . S
C686 C687 1.367 . S
C686 C694 1.378 . S
C687 C686 1.367 . S
C687 C695 1.433 . S
C688 H684 0.929 . S
C688 C690 1.378 . S
C688 C692 1.350 . S
C689 C692 1.463 . S
C689 C694 1.350 . S
C689 N697 1.427 . S
C690 H681 0.930 . S
C690 C688 1.378 . S
C690 C691 1.367 . S
C691 C690 1.367 . S
C691 C693 1.433 . S
C692 C688 1.350 . S
C692 C689 1.463 . S
C692 N696 1.427 . S
C693 H683 0.929 . S
C693 C691 1.433 . S
C693 N696 1.384 . S
C694 H685 0.929 . S
C694 C686 1.378 . S
C694 C689 1.350 . S
C695 H682 0.929 . S
C695 C687 1.433 . S
C695 N697 1.384 . S
N696 C692 1.427 . S
N696 C693 1.384 . S
N697 C689 1.427 . S
N697 C695 1.384 . S
H698 C704 0.930 . S
H699 C708 0.930 . S
H700 C713 0.929 . S
H701 C711 0.929 . S
H702 C706 0.929 . S
H703 C712 0.929 1_565 S
C704 H698 0.930 . S
C704 C705 1.367 1_565 S
C704 C712 1.378 1_565 S
C705 C704 1.367 1_545 S
C705 C713 1.433 . S
C706 H702 0.929 . S
C706 C708 1.378 . S
C706 C710 1.350 . S
C707 C710 1.463 . S
C707 C712 1.350 . S
C707 N715 1.427 . S
C708 H699 0.930 . S
C708 C706 1.378 . S
C708 C709 1.367 . S
C709 C708 1.367 . S
C709 C711 1.433 . S
C710 C706 1.350 . S
C710 C707 1.463 . S
C710 N714 1.427 . S
C711 H701 0.929 . S
C711 C709 1.433 . S
C711 N714 1.384 . S
C712 H703 0.929 1_545 S
C712 C704 1.378 1_545 S
C712 C707 1.350 . S
C713 H700 0.929 . S
C713 C705 1.433 . S
C713 N715 1.384 . S
N714 C710 1.427 . S
N714 C711 1.384 . S
N715 C707 1.427 . S
N715 C713 1.384 . S
H716 C722 0.930 . S
H717 C726 0.930 . S
H718 C731 0.929 . S
H719 C729 0.929 . S
H720 C724 0.929 . S
H721 C730 0.929 . S
C722 H716 0.930 . S
C722 C723 1.367 . S
C722 C730 1.378 . S
C723 C722 1.367 . S
C723 C731 1.433 . S
C724 H720 0.929 . S
C724 C726 1.378 . S
C724 C728 1.350 . S
C725 C728 1.463 1_554 S
C725 C730 1.350 . S
C725 N733 1.427 . S
C726 H717 0.930 . S
C726 C724 1.378 . S
C726 C727 1.367 . S
C727 C726 1.367 . S
C727 C729 1.433 . S
C728 C724 1.350 . S
C728 C725 1.463 1_556 S
C728 N732 1.427 . S
C729 H719 0.929 . S
C729 C727 1.433 . S
C729 N732 1.384 . S
C730 H721 0.929 . S
C730 C722 1.378 . S
C730 C725 1.350 . S
C731 H718 0.929 . S
C731 C723 1.433 . S
C731 N733 1.384 . S
N732 C728 1.427 . S
N732 C729 1.384 . S
N733 C725 1.427 . S
N733 C731 1.384 . S
H734 C740 0.930 . S
H735 C744 0.930 . S
H736 C749 0.929 . S
H737 C747 0.929 . S
H738 C742 0.929 1_545 S
H739 C748 0.929 . S
C740 H734 0.930 . S
C740 C741 1.367 . S
C740 C748 1.378 . S
C741 C740 1.367 . S
C741 C749 1.433 1_565 S
C742 H738 0.929 1_565 S
C742 C744 1.378 . S
C742 C746 1.350 . S
C743 C746 1.463 . S
C743 C748 1.350 . S
C743 N751 1.427 1_565 S
C744 H735 0.930 . S
C744 C742 1.378 . S
C744 C745 1.367 . S
C745 C744 1.367 . S
C745 C747 1.433 . S
C746 C742 1.350 . S
C746 C743 1.463 . S
C746 N750 1.427 . S
C747 H737 0.929 . S
C747 C745 1.433 . S
C747 N750 1.384 . S
C748 H739 0.929 . S
C748 C740 1.378 . S
C748 C743 1.350 . S
C749 H736 0.929 . S
C749 C741 1.433 1_545 S
C749 N751 1.384 . S
N750 C746 1.427 . S
N750 C747 1.384 . S
N751 C743 1.427 1_545 S
N751 C749 1.384 . S
H752 C758 0.930 . S
H753 C762 0.930 . S
H754 C767 0.929 . S
H755 C765 0.929 . S
H756 C760 0.929 . S
H757 C766 0.929 . S
C758 H752 0.930 . S
C758 C759 1.367 . S
C758 C766 1.378 . S
C759 C758 1.367 . S
C759 C767 1.433 . S
C760 H756 0.929 . S
C760 C762 1.378 . S
C760 C764 1.350 . S
C761 C764 1.463 . S
C761 C766 1.350 . S
C761 N769 1.427 . S
C762 H753 0.930 . S
C762 C760 1.378 . S
C762 C763 1.367 . S
C763 C762 1.367 . S
C763 C765 1.433 . S
C764 C760 1.350 . S
C764 C761 1.463 . S
C764 N768 1.427 . S
C765 H755 0.929 . S
C765 C763 1.433 . S
C765 N768 1.384 . S
C766 H757 0.929 . S
C766 C758 1.378 . S
C766 C761 1.350 . S
C767 H754 0.929 . S
C767 C759 1.433 . S
C767 N769 1.384 . S
N768 C764 1.427 . S
N768 C765 1.384 . S
N769 C761 1.427 . S
N769 C767 1.384 . S
H770 C776 0.930 . S
H771 C780 0.930 . S
H772 C785 0.929 . S
H773 C783 0.929 . S
H774 C778 0.929 . S
H775 C784 0.929 . S
C776 H770 0.930 . S
C776 C777 1.367 . S
C776 C784 1.378 . S
C777 C776 1.367 . S
C777 C785 1.433 . S
C778 H774 0.929 . S
C778 C780 1.378 . S
C778 C782 1.350 . S
C779 C782 1.463 . S
C779 C784 1.350 . S
C779 N787 1.427 . S
C780 H771 0.930 . S
C780 C778 1.378 . S
C780 C781 1.367 . S
C781 C780 1.367 . S
C781 C783 1.433 . S
C782 C778 1.350 . S
C782 C779 1.463 . S
C782 N786 1.427 . S
C783 H773 0.929 . S
C783 C781 1.433 . S
C783 N786 1.384 . S
C784 H775 0.929 . S
C784 C776 1.378 . S
C784 C779 1.350 . S
C785 H772 0.929 . S
C785 C777 1.433 . S
C785 N787 1.384 . S
N786 C782 1.427 . S
N786 C783 1.384 . S
N787 C779 1.427 . S
N787 C785 1.384 . S
H788 C794 0.930 . S
H789 C798 0.930 . S
H790 C803 0.929 . S
H791 C801 0.929 . S
H792 C796 0.929 . S
H793 C802 0.929 . S
C794 H788 0.930 . S
C794 C795 1.367 . S
C794 C802 1.378 . S
C795 C794 1.367 . S
C795 C803 1.433 . S
C796 H792 0.929 . S
C796 C798 1.378 . S
C796 C800 1.350 . S
C797 C800 1.463 1_655 S
C797 C802 1.350 . S
C797 N805 1.427 . S
C798 H789 0.930 . S
C798 C796 1.378 . S
C798 C799 1.367 . S
C799 C798 1.367 . S
C799 C801 1.433 . S
C800 C796 1.350 . S
C800 C797 1.463 1_455 S
C800 N804 1.427 . S
C801 H791 0.929 . S
C801 C799 1.433 . S
C801 N804 1.384 . S
C802 H793 0.929 . S
C802 C794 1.378 . S
C802 C797 1.350 . S
C803 H790 0.929 . S
C803 C795 1.433 . S
C803 N805 1.384 . S
N804 C800 1.427 . S
N804 C801 1.384 . S
N805 C797 1.427 . S
N805 C803 1.384 . S
H806 C812 0.930 . S
H807 C816 0.930 . S
H808 C821 0.929 . S
H809 C819 0.929 . S
H810 C814 0.929 . S
H811 C820 0.929 . S
C812 H806 0.930 . S
C812 C813 1.367 . S
C812 C820 1.378 1_655 S
C813 C812 1.367 . S
C813 C821 1.433 . S
C814 H810 0.929 . S
C814 C816 1.378 1_655 S
C814 C818 1.350 1_655 S
C815 C818 1.463 1_655 S
C815 C820 1.350 1_655 S
C815 N823 1.427 . S
C816 H807 0.930 . S
C816 C814 1.378 1_455 S
C816 C817 1.367 . S
C817 C816 1.367 . S
C817 C819 1.433 . S
C818 C814 1.350 1_455 S
C818 C815 1.463 1_455 S
C818 N822 1.427 . S
C819 H809 0.929 . S
C819 C817 1.433 . S
C819 N822 1.384 . S
C820 H811 0.929 . S
C820 C812 1.378 1_455 S
C820 C815 1.350 1_455 S
C821 H808 0.929 . S
C821 C813 1.433 . S
C821 N823 1.384 . S
N822 C818 1.427 . S
N822 C819 1.384 . S
N823 C815 1.427 . S
N823 C821 1.384 . S
H824 C830 0.930 . S
H825 C834 0.930 . S
H826 C839 0.929 . S
H827 C837 0.929 . S
H828 C832 0.929 . S
H829 C838 0.929 . S
C830 H824 0.930 . S
C830 C831 1.367 . S
C830 C838 1.378 . S
C831 C830 1.367 . S
C831 C839 1.433 . S
C832 H828 0.929 . S
C832 C834 1.378 . S
C832 C836 1.350 . S
C833 C836 1.463 . S
C833 C838 1.350 . S
C833 N841 1.427 . S
C834 H825 0.930 . S
C834 C832 1.378 . S
C834 C835 1.367 . S
C835 C834 1.367 . S
C835 C837 1.433 . S
C836 C832 1.350 . S
C836 C833 1.463 . S
C836 N840 1.427 . S
C837 H827 0.929 . S
C837 C835 1.433 . S
C837 N840 1.384 . S
C838 H829 0.929 . S
C838 C830 1.378 . S
C838 C833 1.350 . S
C839 H826 0.929 . S
C839 C831 1.433 . S
C839 N841 1.384 . S
N840 C836 1.427 . S
N840 C837 1.384 . S
N841 C833 1.427 . S
N841 C839 1.384 . S
H842 C848 0.930 . S
H843 C852 0.930 . S
H844 C857 0.929 . S
H845 C855 0.929 . S
H846 C850 0.929 . S
H847 C856 0.929 . S
C848 H842 0.930 . S
C848 C849 1.367 . S
C848 C856 1.378 . S
C849 C848 1.367 . S
C849 C857 1.433 . S
C850 H846 0.929 . S
C850 C852 1.378 . S
C850 C854 1.350 . S
C851 C854 1.463 . S
C851 C856 1.350 . S
C851 N859 1.427 . S
C852 H843 0.930 . S
C852 C850 1.378 . S
C852 C853 1.367 . S
C853 C852 1.367 . S
C853 C855 1.433 . S
C854 C850 1.350 . S
C854 C851 1.463 . S
C854 N858 1.427 . S
C855 H845 0.929 . S
C855 C853 1.433 . S
C855 N858 1.384 . S
C856 H847 0.929 . S
C856 C848 1.378 . S
C856 C851 1.350 . S
C857 H844 0.929 . S
C857 C849 1.433 . S
C857 N859 1.384 . S
N858 C854 1.427 . S
N858 C855 1.384 . S
N859 C851 1.427 . S
N859 C857 1.384 . S
H860 C866 0.930 . S
H861 C870 0.930 . S
H862 C875 0.929 . S
H863 C873 0.929 . S
H864 C868 0.929 . S
H865 C874 0.929 . S
C866 H860 0.930 . S
C866 C867 1.367 . S
C866 C874 1.378 . S
C867 C866 1.367 . S
C867 C875 1.433 . S
C868 H864 0.929 . S
C868 C870 1.378 . S
C868 C872 1.350 . S
C869 C872 1.463 1_455 S
C869 C874 1.350 . S
C869 N877 1.427 . S
C870 H861 0.930 . S
C870 C868 1.378 . S
C870 C871 1.367 . S
C871 C870 1.367 . S
C871 C873 1.433 . S
C872 C868 1.350 . S
C872 C869 1.463 1_655 S
C872 N876 1.427 . S
C873 H863 0.929 . S
C873 C871 1.433 . S
C873 N876 1.384 . S
C874 H865 0.929 . S
C874 C866 1.378 . S
C874 C869 1.350 . S
C875 H862 0.929 . S
C875 C867 1.433 . S
C875 N877 1.384 . S
N876 C872 1.427 . S
N876 C873 1.384 . S
N877 C869 1.427 . S
N877 C875 1.384 . S
H878 C884 0.930 . S
H879 C888 0.930 . S
H880 C893 0.929 . S
H881 C891 0.929 . S
H882 C886 0.922 1_455 S
H883 C892 0.922 1_655 S
C884 H878 0.930 . S
C884 C885 1.367 . S
C884 C892 1.383 . S
C885 C884 1.367 . S
C885 C893 1.433 . S
C886 H882 0.922 1_655 S
C886 C888 1.383 . S
C886 C890 1.352 . S
C887 C890 1.463 1_455 S
C887 C892 1.352 . S
C887 N895 1.427 . S
C888 H879 0.930 . S
C888 C886 1.383 . S
C888 C889 1.367 . S
C889 C888 1.367 . S
C889 C891 1.433 . S
C890 C886 1.352 . S
C890 C887 1.463 1_655 S
C890 N894 1.427 . S
C891 H881 0.929 . S
C891 C889 1.433 . S
C891 N894 1.384 . S
C892 H883 0.922 1_455 S
C892 C884 1.383 . S
C892 C887 1.352 . S
C893 H880 0.929 . S
C893 C885 1.433 . S
C893 N895 1.384 . S
N894 C890 1.427 . S
N894 C891 1.384 . S
N895 C887 1.427 . S
N895 C893 1.384 . S
H896 C902 0.930 . S
H897 C906 0.930 . S
H898 C911 0.929 . S
H899 C909 0.929 . S
H900 C904 0.929 . S
H901 C910 0.929 . S
C902 H896 0.930 . S
C902 C903 1.367 . S
C902 C910 1.378 . S
C903 C902 1.367 . S
C903 C911 1.433 . S
C904 H900 0.929 . S
C904 C906 1.378 . S
C904 C908 1.350 . S
C905 C908 1.463 . S
C905 C910 1.350 . S
C905 N913 1.427 . S
C906 H897 0.930 . S
C906 C904 1.378 . S
C906 C907 1.367 . S
C907 C906 1.367 . S
C907 C909 1.433 . S
C908 C904 1.350 . S
C908 C905 1.463 . S
C908 N912 1.427 . S
C909 H899 0.929 . S
C909 C907 1.433 . S
C909 N912 1.384 . S
C910 H901 0.929 . S
C910 C902 1.378 . S
C910 C905 1.350 . S
C911 H898 0.929 . S
C911 C903 1.433 . S
C911 N913 1.384 . S
N912 C908 1.427 . S
N912 C909 1.384 . S
N913 C905 1.427 . S
N913 C911 1.384 . S
H914 C920 0.930 . S
H915 C924 0.930 . S
H916 C929 0.929 . S
H917 C927 0.929 . S
H918 C922 0.929 . S
H919 C928 0.929 . S
C920 H914 0.930 . S
C920 C921 1.367 . S
C920 C928 1.378 . S
C921 C920 1.367 . S
C921 C929 1.433 . S
C922 H918 0.929 . S
C922 C924 1.378 . S
C922 C926 1.350 . S
C923 C926 1.463 . S
C923 C928 1.350 . S
C923 N931 1.427 . S
C924 H915 0.930 . S
C924 C922 1.378 . S
C924 C925 1.367 . S
C925 C924 1.367 . S
C925 C927 1.433 . S
C926 C922 1.350 . S
C926 C923 1.463 . S
C926 N930 1.427 . S
C927 H917 0.929 . S
C927 C925 1.433 . S
C927 N930 1.384 . S
C928 H919 0.929 . S
C928 C920 1.378 . S
C928 C923 1.350 . S
C929 H916 0.929 . S
C929 C921 1.433 . S
C929 N931 1.384 . S
N930 C926 1.427 . S
N930 C927 1.384 . S
N931 C923 1.427 . S
N931 C929 1.384 . S
H932 C938 0.930 . S
H933 C942 0.930 . S
H934 C947 0.929 . S
H935 C945 0.929 . S
H936 C940 0.929 . S
H937 C946 0.929 . S
C938 H932 0.930 . S
C938 C939 1.367 . S
C938 C946 1.378 . S
C939 C938 1.367 . S
C939 C947 1.433 . S
C940 H936 0.929 . S
C940 C942 1.378 . S
C940 C944 1.350 . S
C941 C944 1.463 . S
C941 C946 1.350 . S
C941 N949 1.427 . S
C942 H933 0.930 . S
C942 C940 1.378 . S
C942 C943 1.367 . S
C943 C942 1.367 . S
C943 C945 1.433 . S
C944 C940 1.350 . S
C944 C941 1.463 . S
C944 N948 1.427 . S
C945 H935 0.929 . S
C945 C943 1.433 . S
C945 N948 1.384 . S
C946 H937 0.929 . S
C946 C938 1.378 . S
C946 C941 1.350 . S
C947 H934 0.929 . S
C947 C939 1.433 . S
C947 N949 1.384 . S
N948 C944 1.427 . S
N948 C945 1.384 . S
N949 C941 1.427 . S
N949 C947 1.384 . S
H950 C956 0.930 . S
H951 C960 0.930 . S
H952 C965 0.929 1_655 S
H953 C963 0.929 . S
H954 C958 0.929 . S
H955 C964 0.929 . S
C956 H950 0.930 . S
C956 C957 1.367 1_455 S
C956 C964 1.378 . S
C957 C956 1.367 1_655 S
C957 C965 1.433 1_655 S
C958 H954 0.929 . S
C958 C960 1.378 . S
C958 C962 1.350 . S
C959 C962 1.463 . S
C959 C964 1.350 . S
C959 N967 1.427 . S
C960 H951 0.930 . S
C960 C958 1.378 . S
C960 C961 1.367 . S
C961 C960 1.367 . S
C961 C963 1.433 . S
C962 C958 1.350 . S
C962 C959 1.463 . S
C962 N966 1.427 . S
C963 H953 0.929 . S
C963 C961 1.433 . S
C963 N966 1.384 . S
C964 H955 0.929 . S
C964 C956 1.378 . S
C964 C959 1.350 . S
C965 H952 0.929 1_455 S
C965 C957 1.433 1_455 S
C965 N967 1.384 . S
N966 C962 1.427 . S
N966 C963 1.384 . S
N967 C959 1.427 . S
N967 C965 1.384 . S
H968 C974 0.930 . S
H969 C978 0.930 . S
H970 C983 0.929 . S
H971 C981 0.929 . S
H972 C976 0.929 . S
H973 C982 0.929 . S
C974 H968 0.930 . S
C974 C975 1.367 . S
C974 C982 1.378 . S
C975 C974 1.367 . S
C975 C983 1.433 . S
C976 H972 0.929 . S
C976 C978 1.378 . S
C976 C980 1.350 . S
C977 C980 1.463 . S
C977 C982 1.350 . S
C977 N985 1.427 . S
C978 H969 0.930 . S
C978 C976 1.378 . S
C978 C979 1.367 . S
C979 C978 1.367 . S
C979 C981 1.433 . S
C980 C976 1.350 . S
C980 C977 1.463 . S
C980 N984 1.427 . S
C981 H971 0.929 . S
C981 C979 1.433 . S
C981 N984 1.384 . S
C982 H973 0.929 . S
C982 C974 1.378 . S
C982 C977 1.350 . S
C983 H970 0.929 . S
C983 C975 1.433 . S
C983 N985 1.384 . S
N984 C980 1.427 . S
N984 C981 1.384 . S
N985 C977 1.427 . S
N985 C983 1.384 . S
H986 C992 0.930 . S
H987 C996 0.930 . S
H988 C1001 0.929 . S
H989 C999 0.929 . S
H990 C994 0.929 . S
H991 C1000 0.929 . S
C992 H986 0.930 . S
C992 C993 1.367 . S
C992 C1000 1.378 . S
C993 C992 1.367 . S
C993 C1001 1.433 . S
C994 H990 0.929 . S
C994 C996 1.378 . S
C994 C998 1.350 . S
C995 C998 1.463 . S
C995 C1000 1.350 . S
C995 N1003 1.427 . S
C996 H987 0.930 . S
C996 C994 1.378 . S
C996 C997 1.367 . S
C997 C996 1.367 . S
C997 C999 1.433 . S
C998 C994 1.350 . S
C998 C995 1.463 . S
C998 N1002 1.427 . S
C999 H989 0.929 . S
C999 C997 1.433 . S
C999 N1002 1.384 . S
C1000 H991 0.929 . S
C1000 C992 1.378 . S
C1000 C995 1.350 . S
C1001 H988 0.929 . S
C1001 C993 1.433 . S
C1001 N1003 1.384 . S
N1002 C998 1.427 . S
N1002 C999 1.384 . S
N1003 C995 1.427 . S
N1003 C1001 1.384 . S
H1004 C1010 0.930 . S
H1005 C1014 0.930 . S
H1006 C1019 0.929 . S
H1007 C1017 0.929 . S
H1008 C1012 0.929 . S
H1009 C1018 0.929 . S
C1010 H1004 0.930 . S
C1010 C1011 1.367 . S
C1010 C1018 1.378 . S
C1011 C1010 1.367 . S
C1011 C1019 1.433 . S
C1012 H1008 0.929 . S
C1012 C1014 1.378 . S
C1012 C1016 1.350 . S
C1013 C1016 1.463 . S
C1013 C1018 1.350 . S
C1013 N1021 1.427 . S
C1014 H1005 0.930 . S
C1014 C1012 1.378 . S
C1014 C1015 1.367 . S
C1015 C1014 1.367 . S
C1015 C1017 1.433 . S
C1016 C1012 1.350 . S
C1016 C1013 1.463 . S
C1016 N1020 1.427 . S
C1017 H1007 0.929 . S
C1017 C1015 1.433 . S
C1017 N1020 1.384 . S
C1018 H1009 0.929 . S
C1018 C1010 1.378 . S
C1018 C1013 1.350 . S
C1019 H1006 0.929 . S
C1019 C1011 1.433 . S
C1019 N1021 1.384 . S
N1020 C1016 1.427 . S
N1020 C1017 1.384 . S
N1021 C1013 1.427 . S
N1021 C1019 1.384 . S
H1022 C1028 0.930 . S
H1023 C1032 0.930 . S
H1024 C1037 0.929 . S
H1025 C1035 0.929 . S
H1026 C1030 0.929 . S
H1027 C1036 0.929 . S
C1028 H1022 0.930 . S
C1028 C1029 1.367 . S
C1028 C1036 1.378 . S
C1029 C1028 1.367 . S
C1029 C1037 1.433 . S
C1030 H1026 0.929 . S
C1030 C1032 1.378 1_655 S
C1030 C1034 1.350 . S
C1031 C1034 1.463 . S
C1031 C1036 1.350 . S
C1031 N1039 1.427 . S
C1032 H1023 0.930 . S
C1032 C1030 1.378 1_455 S
C1032 C1033 1.367 . S
C1033 C1032 1.367 . S
C1033 C1035 1.433 1_455 S
C1034 C1030 1.350 . S
C1034 C1031 1.463 . S
C1034 N1038 1.427 . S
C1035 H1025 0.929 . S
C1035 C1033 1.433 1_655 S
C1035 N1038 1.384 . S
C1036 H1027 0.929 . S
C1036 C1028 1.378 . S
C1036 C1031 1.350 . S
C1037 H1024 0.929 . S
C1037 C1029 1.433 . S
C1037 N1039 1.384 . S
N1038 C1034 1.427 . S
N1038 C1035 1.384 . S
N1039 C1031 1.427 . S
N1039 C1037 1.384 . S
H1040 C1046 0.930 . S
H1041 C1050 0.930 . S
H1042 C1055 0.929 . S
H1043 C1053 0.929 . S
H1044 C1048 0.929 . S
H1045 C1054 0.929 . S
C1046 H1040 0.930 . S
C1046 C1047 1.367 . S
C1046 C1054 1.378 . S
C1047 C1046 1.367 . S
C1047 C1055 1.433 . S
C1048 H1044 0.929 . S
C1048 C1050 1.378 . S
C1048 C1052 1.350 . S
C1049 C1052 1.463 . S
C1049 C1054 1.350 . S
C1049 N1057 1.427 . S
C1050 H1041 0.930 . S
C1050 C1048 1.378 . S
C1050 C1051 1.367 . S
C1051 C1050 1.367 . S
C1051 C1053 1.433 . S
C1052 C1048 1.350 . S
C1052 C1049 1.463 . S
C1052 N1056 1.427 . S
C1053 H1043 0.929 . S
C1053 C1051 1.433 . S
C1053 N1056 1.384 . S
C1054 H1045 0.929 . S
C1054 C1046 1.378 . S
C1054 C1049 1.350 . S
C1055 H1042 0.929 . S
C1055 C1047 1.433 . S
C1055 N1057 1.384 . S
N1056 C1052 1.427 . S
N1056 C1053 1.384 . S
N1057 C1049 1.427 . S
N1057 C1055 1.384 . S
H1058 C1064 0.930 . S
H1059 C1068 0.930 1_455 S
H1060 C1073 0.929 . S
H1061 C1071 0.929 1_545 S
H1062 C1066 0.929 . S
H1063 C1072 0.929 . S
C1064 H1058 0.930 . S
C1064 C1065 1.367 . S
C1064 C1072 1.378 . S
C1065 C1064 1.367 . S
C1065 C1073 1.433 . S
C1066 H1062 0.929 . S
C1066 C1068 1.378 . S
C1066 C1070 1.350 . S
C1067 C1070 1.463 . S
C1067 C1072 1.350 . S
C1067 N1075 1.427 . S
C1068 H1059 0.930 1_655 S
C1068 C1066 1.378 . S
C1068 C1069 1.367 1_655 S
C1069 C1068 1.367 1_455 S
C1069 C1071 1.433 1_455 S
C1070 C1066 1.350 . S
C1070 C1067 1.463 . S
C1070 N1074 1.427 . S
C1071 H1061 0.929 1_565 S
C1071 C1069 1.433 1_655 S
C1071 N1074 1.384 . S
C1072 H1063 0.929 . S
C1072 C1064 1.378 . S
C1072 C1067 1.350 . S
C1073 H1060 0.929 . S
C1073 C1065 1.433 . S
C1073 N1075 1.384 . S
N1074 C1070 1.427 . S
N1074 C1071 1.384 . S
N1075 C1067 1.427 . S
N1075 C1073 1.384 . S
H1076 C1082 0.930 . S
H1077 C1086 0.930 . S
H1078 C1091 0.929 . S
H1079 C1089 0.929 . S
H1080 C1084 0.929 . S
H1081 C1090 0.929 . S
C1082 H1076 0.930 . S
C1082 C1083 1.367 . S
C1082 C1090 1.378 . S
C1083 C1082 1.367 . S
C1083 C1091 1.433 . S
C1084 H1080 0.929 . S
C1084 C1086 1.378 . S
C1084 C1088 1.350 . S
C1085 C1088 1.463 . S
C1085 C1090 1.350 . S
C1085 N1093 1.427 . S
C1086 H1077 0.930 . S
C1086 C1084 1.378 . S
C1086 C1087 1.367 . S
C1087 C1086 1.367 . S
C1087 C1089 1.433 . S
C1088 C1084 1.350 . S
C1088 C1085 1.463 . S
C1088 N1092 1.427 . S
C1089 H1079 0.929 . S
C1089 C1087 1.433 . S
C1089 N1092 1.384 . S
C1090 H1081 0.929 . S
C1090 C1082 1.378 . S
C1090 C1085 1.350 . S
C1091 H1078 0.929 . S
C1091 C1083 1.433 . S
C1091 N1093 1.384 . S
N1092 C1088 1.427 . S
N1092 C1089 1.384 . S
N1093 C1085 1.427 . S
N1093 C1091 1.384 . S
H1094 C1100 0.930 . S
H1095 C1104 0.930 . S
H1096 C1109 0.929 . S
H1097 C1107 0.929 . S
H1098 C1102 0.929 . S
H1099 C1108 0.929 . S
C1100 H1094 0.930 . S
C1100 C1101 1.367 . S
C1100 C1108 1.378 . S
C1101 C1100 1.367 . S
C1101 C1109 1.433 . S
C1102 H1098 0.929 . S
C1102 C1104 1.378 . S
C1102 C1106 1.350 . S
C1103 C1106 1.463 . S
C1103 C1108 1.350 . S
C1103 N1111 1.427 . S
C1104 H1095 0.930 . S
C1104 C1102 1.378 . S
C1104 C1105 1.367 . S
C1105 C1104 1.367 . S
C1105 C1107 1.433 . S
C1106 C1102 1.350 . S
C1106 C1103 1.463 . S
C1106 N1110 1.427 . S
C1107 H1097 0.929 . S
C1107 C1105 1.433 . S
C1107 N1110 1.384 . S
C1108 H1099 0.929 . S
C1108 C1100 1.378 . S
C1108 C1103 1.350 . S
C1109 H1096 0.929 . S
C1109 C1101 1.433 . S
C1109 N1111 1.384 . S
N1110 C1106 1.427 . S
N1110 C1107 1.384 . S
N1111 C1103 1.427 . S
N1111 C1109 1.384 . S
H1112 C1118 0.930 . S
H1113 C1122 0.930 . S
H1114 C1127 0.929 . S
H1115 C1125 0.929 . S
H1116 C1120 0.929 . S
H1117 C1126 0.929 . S
C1118 H1112 0.930 . S
C1118 C1119 1.367 . S
C1118 C1126 1.378 . S
C1119 C1118 1.367 . S
C1119 C1127 1.433 . S
C1120 H1116 0.929 . S
C1120 C1122 1.378 . S
C1120 C1124 1.350 . S
C1121 C1124 1.463 . S
C1121 C1126 1.350 . S
C1121 N1129 1.427 . S
C1122 H1113 0.930 . S
C1122 C1120 1.378 . S
C1122 C1123 1.367 . S
C1123 C1122 1.367 . S
C1123 C1125 1.433 . S
C1124 C1120 1.350 . S
C1124 C1121 1.463 . S
C1124 N1128 1.427 . S
C1125 H1115 0.929 . S
C1125 C1123 1.433 . S
C1125 N1128 1.384 . S
C1126 H1117 0.929 . S
C1126 C1118 1.378 . S
C1126 C1121 1.350 . S
C1127 H1114 0.929 . S
C1127 C1119 1.433 . S
C1127 N1129 1.384 . S
N1128 C1124 1.427 . S
N1128 C1125 1.384 . S
N1129 C1121 1.427 . S
N1129 C1127 1.384 . S
H1130 C1136 0.930 . S
H1131 C1140 0.930 . S
H1132 C1145 0.929 . S
H1133 C1143 0.929 . S
H1134 C1138 0.929 . S
H1135 C1144 0.929 1_565 S
C1136 H1130 0.930 . S
C1136 C1137 1.367 1_465 S
C1136 C1144 1.378 1_565 S
C1137 C1136 1.367 1_645 S
C1137 C1145 1.433 . S
C1138 H1134 0.929 . S
C1138 C1140 1.378 . S
C1138 C1142 1.350 . S
C1139 C1142 1.463 . S
C1139 C1144 1.350 . S
C1139 N1147 1.427 . S
C1140 H1131 0.930 . S
C1140 C1138 1.378 . S
C1140 C1141 1.367 . S
C1141 C1140 1.367 . S
C1141 C1143 1.433 . S
C1142 C1138 1.350 . S
C1142 C1139 1.463 . S
C1142 N1146 1.427 . S
C1143 H1133 0.929 . S
C1143 C1141 1.433 . S
C1143 N1146 1.384 . S
C1144 H1135 0.929 1_545 S
C1144 C1136 1.378 1_545 S
C1144 C1139 1.350 . S
C1145 H1132 0.929 . S
C1145 C1137 1.433 . S
C1145 N1147 1.384 1_655 S
N1146 C1142 1.427 . S
N1146 C1143 1.384 . S
N1147 C1139 1.427 . S
N1147 C1145 1.384 1_455 S
H1148 C1154 0.930 . S
H1149 C1158 0.930 . S
H1150 C1163 0.929 . S
H1151 C1161 0.929 . S
H1152 C1156 0.929 . S
H1153 C1162 0.929 . S
C1154 H1148 0.930 . S
C1154 C1155 1.367 . S
C1154 C1162 1.378 . S
C1155 C1154 1.367 . S
C1155 C1163 1.433 . S
C1156 H1152 0.929 . S
C1156 C1158 1.378 . S
C1156 C1160 1.350 . S
C1157 C1160 1.463 . S
C1157 C1162 1.350 . S
C1157 N1165 1.427 . S
C1158 H1149 0.930 . S
C1158 C1156 1.378 . S
C1158 C1159 1.367 . S
C1159 C1158 1.367 . S
C1159 C1161 1.433 . S
C1160 C1156 1.350 . S
C1160 C1157 1.463 . S
C1160 N1164 1.427 . S
C1161 H1151 0.929 . S
C1161 C1159 1.433 . S
C1161 N1164 1.384 . S
C1162 H1153 0.929 . S
C1162 C1154 1.378 . S
C1162 C1157 1.350 . S
C1163 H1150 0.929 . S
C1163 C1155 1.433 . S
C1163 N1165 1.384 . S
N1164 C1160 1.427 . S
N1164 C1161 1.384 . S
N1165 C1157 1.427 . S
N1165 C1163 1.384 . S
H1166 C1172 0.930 . S
H1167 C1176 0.930 . S
H1168 C1181 0.929 . S
H1169 C1179 0.929 . S
H1170 C1174 0.929 1_545 S
H1171 C1180 0.929 . S
C1172 H1166 0.930 . S
C1172 C1173 1.367 . S
C1172 C1180 1.378 . S
C1173 C1172 1.367 . S
C1173 C1181 1.433 . S
C1174 H1170 0.929 1_565 S
C1174 C1176 1.378 1_565 S
C1174 C1178 1.350 . S
C1175 C1178 1.463 . S
C1175 C1180 1.350 . S
C1175 N1183 1.427 . S
C1176 H1167 0.930 . S
C1176 C1174 1.378 1_545 S
C1176 C1177 1.367 1_545 S
C1177 C1176 1.367 1_565 S
C1177 C1179 1.433 . S
C1178 C1174 1.350 . S
C1178 C1175 1.463 . S
C1178 N1182 1.427 . S
C1179 H1169 0.929 . S
C1179 C1177 1.433 . S
C1179 N1182 1.384 . S
C1180 H1171 0.929 . S
C1180 C1172 1.378 . S
C1180 C1175 1.350 . S
C1181 H1168 0.929 . S
C1181 C1173 1.433 . S
C1181 N1183 1.384 . S
N1182 C1178 1.427 . S
N1182 C1179 1.384 . S
N1183 C1175 1.427 . S
N1183 C1181 1.384 . S
C327 C2 0.788 . S
C331 C241 0.788 . S
C345 C101 0.761 . S
C349 C22 0.761 . S
C363 C42 0.760 . S
C367 C281 0.760 . S
C381 C62 0.765 . S
C385 C141 0.765 . S
C399 C81 0.806 . S
C403 C162 0.806 . S
C417 C202 0.779 . S
C421 C121 0.779 . S
C435 C261 0.760 . S
C439 C182 0.760 . S
C453 C222 0.810 . S
C457 C301 0.810 . S
C471 C189 1.740 . S
C475 C1 1.706 . S
C489 C21 1.697 . S
C493 C209 1.733 . S
C507 C41 1.708 . S
C511 C229 1.739 . S
C525 C169 1.739 . S
C529 C61 1.704 . S
C543 C268 1.736 . S
C547 C82 1.706 . S
C561 C288 1.739 . S
C565 C102 1.703 . S
C579 C122 1.707 . S
C583 C308 1.736 . S
C597 C248 1.734 . S
C601 C142 1.703 . S
C615 C161 1.698 . S
C619 C29 1.733 . S
C633 C181 1.703 1_565 S
C637 C49 1.734 . S
C651 C201 1.708 . S
C655 C69 1.739 . S
C669 C9 1.739 . S
C673 C221 1.704 1_545 S
C687 C108 1.735 . S
C691 C242 1.697 . S
C705 C262 1.697 1_545 S
C709 C128 1.733 . S
C723 C148 1.739 . S
C727 C282 1.708 . S
C741 C302 1.703 1_565 S
C745 C88 1.739 . S
C759 C18 2.489 . S
C763 C218 2.485 . S
C777 C38 2.489 . S
C781 C238 2.485 . S
C795 C178 2.488 . S
C799 C58 2.485 . S
C813 C78 2.485 . S
C817 C198 2.489 . S
C831 C99 2.490 . S
C835 C299 2.485 . S
C849 C119 2.487 . S
C853 C319 2.488 . S
C867 C259 2.489 . S
C871 C139 2.485 . S
C885 C159 2.489 . S
C889 C279 2.484 . S
C903 C8 1.355 . S
C907 C158 1.525 . S
C921 C258 1.527 . S
C925 C28 1.360 . S
C939 C48 1.374 . S
C943 C118 1.533 . S
C957 C68 1.376 . S
C961 C298 1.534 . S
C975 C89 1.357 . S
C979 C79 1.528 . S
C993 C179 1.529 . S
C997 C109 1.360 . S
C1011 C129 1.358 . S
C1015 C39 1.526 . S
C1029 C219 1.528 . S
C1033 C149 1.362 . S
C1047 C168 1.354 . S
C1051 C318 1.526 . S
C1065 C98 1.532 . S
C1069 C188 1.373 . S
C1083 C278 1.532 . S
C1087 C208 1.369 . S
C1101 C228 1.351 . S
C1105 C138 1.525 . S
C1119 C249 1.360 . S
C1123 C239 1.527 . S
C1137 C269 1.363 . S
C1141 C19 1.530 . S
C1155 C199 1.525 . S
C1159 C289 1.351 . S
C1173 C59 1.532 . S
C1177 C309 1.368 . S
