# Generated by pormake.
# Topology uoh, (4)-cn, num edge types: 1
# Building blocks:
#     Node 0, Type 0, BuildingBlock: CEKHIL_clean_sbu_0, # of connection points: 4
#     Node 1, Type 0, BuildingBlock: CEKHIL_clean_sbu_0, # of connection points: 4
#     Node 2, Type 0, BuildingBlock: CEKHIL_clean_sbu_0, # of connection points: 4
#     Node 3, Type 0, BuildingBlock: CEKHIL_clean_sbu_0, # of connection points: 4
#     Node 4, Type 0, BuildingBlock: CEKHIL_clean_sbu_0, # of connection points: 4
#     Node 5, Type 0, BuildingBlock: CEKHIL_clean_sbu_0, # of connection points: 4
#     Node 6, Type 0, BuildingBlock: CEKHIL_clean_sbu_0, # of connection points: 4
#     Node 7, Type 0, BuildingBlock: CEKHIL_clean_sbu_0, # of connection points: 4
#     Node 8, Type 0, BuildingBlock: CEKHIL_clean_sbu_0, # of connection points: 4
#     Node 9, Type 0, BuildingBlock: CEKHIL_clean_sbu_0, # of connection points: 4
#     Node 10, Type 0, BuildingBlock: CEKHIL_clean_sbu_0, # of connection points: 4
#     Node 11, Type 0, BuildingBlock: CEKHIL_clean_sbu_0, # of connection points: 4
#     Node 12, Type 0, BuildingBlock: CEKHIL_clean_sbu_0, # of connection points: 4
#     Node 13, Type 0, BuildingBlock: CEKHIL_clean_sbu_0, # of connection points: 4
#     Node 14, Type 0, BuildingBlock: CEKHIL_clean_sbu_0, # of connection points: 4
#     Node 15, Type 0, BuildingBlock: CEKHIL_clean_sbu_0, # of connection points: 4
#     Node 16, Type 0, BuildingBlock: CEKHIL_clean_sbu_0, # of connection points: 4
#     Node 17, Type 0, BuildingBlock: CEKHIL_clean_sbu_0, # of connection points: 4
#     Node 18, Type 0, BuildingBlock: CEKHIL_clean_sbu_0, # of connection points: 4
#     Node 19, Type 0, BuildingBlock: CEKHIL_clean_sbu_0, # of connection points: 4
#     Node 20, Type 0, BuildingBlock: CEKHIL_clean_sbu_0, # of connection points: 4
#     Node 21, Type 0, BuildingBlock: CEKHIL_clean_sbu_0, # of connection points: 4
#     Node 22, Type 0, BuildingBlock: CEKHIL_clean_sbu_0, # of connection points: 4
#     Node 23, Type 0, BuildingBlock: CEKHIL_clean_sbu_0, # of connection points: 4
#     Node 24, Type 0, BuildingBlock: CEKHIL_clean_sbu_0, # of connection points: 4
#     Node 25, Type 0, BuildingBlock: CEKHIL_clean_sbu_0, # of connection points: 4
#     Node 26, Type 0, BuildingBlock: CEKHIL_clean_sbu_0, # of connection points: 4
#     Node 27, Type 0, BuildingBlock: CEKHIL_clean_sbu_0, # of connection points: 4
#     Node 28, Type 0, BuildingBlock: CEKHIL_clean_sbu_0, # of connection points: 4
#     Node 29, Type 0, BuildingBlock: CEKHIL_clean_sbu_0, # of connection points: 4
#     Node 30, Type 0, BuildingBlock: CEKHIL_clean_sbu_0, # of connection points: 4
#     Node 31, Type 0, BuildingBlock: CEKHIL_clean_sbu_0, # of connection points: 4
#     Node 32, Type 0, BuildingBlock: CEKHIL_clean_sbu_0, # of connection points: 4
#     Node 33, Type 0, BuildingBlock: CEKHIL_clean_sbu_0, # of connection points: 4
#     Node 34, Type 0, BuildingBlock: CEKHIL_clean_sbu_0, # of connection points: 4
#     Node 35, Type 0, BuildingBlock: CEKHIL_clean_sbu_0, # of connection points: 4
#     Edge 36, Type (0, 0), BuildingBlock: TEMPAE_clean_linker_10, # of connection points: 2
#     Edge 37, Type (0, 0), BuildingBlock: TEMPAE_clean_linker_10, # of connection points: 2
#     Edge 38, Type (0, 0), BuildingBlock: TEMPAE_clean_linker_10, # of connection points: 2
#     Edge 39, Type (0, 0), BuildingBlock: TEMPAE_clean_linker_10, # of connection points: 2
#     Edge 40, Type (0, 0), BuildingBlock: TEMPAE_clean_linker_10, # of connection points: 2
#     Edge 41, Type (0, 0), BuildingBlock: TEMPAE_clean_linker_10, # of connection points: 2
#     Edge 42, Type (0, 0), BuildingBlock: TEMPAE_clean_linker_10, # of connection points: 2
#     Edge 43, Type (0, 0), BuildingBlock: TEMPAE_clean_linker_10, # of connection points: 2
#     Edge 44, Type (0, 0), BuildingBlock: TEMPAE_clean_linker_10, # of connection points: 2
#     Edge 45, Type (0, 0), BuildingBlock: TEMPAE_clean_linker_10, # of connection points: 2
#     Edge 46, Type (0, 0), BuildingBlock: TEMPAE_clean_linker_10, # of connection points: 2
#     Edge 47, Type (0, 0), BuildingBlock: TEMPAE_clean_linker_10, # of connection points: 2
#     Edge 48, Type (0, 0), BuildingBlock: TEMPAE_clean_linker_10, # of connection points: 2
#     Edge 49, Type (0, 0), BuildingBlock: TEMPAE_clean_linker_10, # of connection points: 2
#     Edge 50, Type (0, 0), BuildingBlock: TEMPAE_clean_linker_10, # of connection points: 2
#     Edge 51, Type (0, 0), BuildingBlock: TEMPAE_clean_linker_10, # of connection points: 2
#     Edge 52, Type (0, 0), BuildingBlock: TEMPAE_clean_linker_10, # of connection points: 2
#     Edge 53, Type (0, 0), BuildingBlock: TEMPAE_clean_linker_10, # of connection points: 2
#     Edge 54, Type (0, 0), BuildingBlock: TEMPAE_clean_linker_10, # of connection points: 2
#     Edge 55, Type (0, 0), BuildingBlock: TEMPAE_clean_linker_10, # of connection points: 2
#     Edge 56, Type (0, 0), BuildingBlock: TEMPAE_clean_linker_10, # of connection points: 2
#     Edge 57, Type (0, 0), BuildingBlock: TEMPAE_clean_linker_10, # of connection points: 2
#     Edge 58, Type (0, 0), BuildingBlock: TEMPAE_clean_linker_10, # of connection points: 2
#     Edge 59, Type (0, 0), BuildingBlock: TEMPAE_clean_linker_10, # of connection points: 2
#     Edge 60, Type (0, 0), BuildingBlock: TEMPAE_clean_linker_10, # of connection points: 2
#     Edge 61, Type (0, 0), BuildingBlock: TEMPAE_clean_linker_10, # of connection points: 2
#     Edge 62, Type (0, 0), BuildingBlock: TEMPAE_clean_linker_10, # of connection points: 2
#     Edge 63, Type (0, 0), BuildingBlock: TEMPAE_clean_linker_10, # of connection points: 2
#     Edge 64, Type (0, 0), BuildingBlock: TEMPAE_clean_linker_10, # of connection points: 2
#     Edge 65, Type (0, 0), BuildingBlock: TEMPAE_clean_linker_10, # of connection points: 2
#     Edge 66, Type (0, 0), BuildingBlock: TEMPAE_clean_linker_10, # of connection points: 2
#     Edge 67, Type (0, 0), BuildingBlock: TEMPAE_clean_linker_10, # of connection points: 2
#     Edge 68, Type (0, 0), BuildingBlock: TEMPAE_clean_linker_10, # of connection points: 2
#     Edge 69, Type (0, 0), BuildingBlock: TEMPAE_clean_linker_10, # of connection points: 2
#     Edge 70, Type (0, 0), BuildingBlock: TEMPAE_clean_linker_10, # of connection points: 2
#     Edge 71, Type (0, 0), BuildingBlock: TEMPAE_clean_linker_10, # of connection points: 2
#     Edge 72, Type (0, 0), BuildingBlock: TEMPAE_clean_linker_10, # of connection points: 2
#     Edge 73, Type (0, 0), BuildingBlock: TEMPAE_clean_linker_10, # of connection points: 2
#     Edge 74, Type (0, 0), BuildingBlock: TEMPAE_clean_linker_10, # of connection points: 2
#     Edge 75, Type (0, 0), BuildingBlock: TEMPAE_clean_linker_10, # of connection points: 2
#     Edge 76, Type (0, 0), BuildingBlock: TEMPAE_clean_linker_10, # of connection points: 2
#     Edge 77, Type (0, 0), BuildingBlock: TEMPAE_clean_linker_10, # of connection points: 2
#     Edge 78, Type (0, 0), BuildingBlock: TEMPAE_clean_linker_10, # of connection points: 2
#     Edge 79, Type (0, 0), BuildingBlock: TEMPAE_clean_linker_10, # of connection points: 2
#     Edge 80, Type (0, 0), BuildingBlock: TEMPAE_clean_linker_10, # of connection points: 2
#     Edge 81, Type (0, 0), BuildingBlock: TEMPAE_clean_linker_10, # of connection points: 2
#     Edge 82, Type (0, 0), BuildingBlock: TEMPAE_clean_linker_10, # of connection points: 2
#     Edge 83, Type (0, 0), BuildingBlock: TEMPAE_clean_linker_10, # of connection points: 2
#     Edge 84, Type (0, 0), BuildingBlock: TEMPAE_clean_linker_10, # of connection points: 2
#     Edge 85, Type (0, 0), BuildingBlock: TEMPAE_clean_linker_10, # of connection points: 2
#     Edge 86, Type (0, 0), BuildingBlock: TEMPAE_clean_linker_10, # of connection points: 2
#     Edge 87, Type (0, 0), BuildingBlock: TEMPAE_clean_linker_10, # of connection points: 2
#     Edge 88, Type (0, 0), BuildingBlock: TEMPAE_clean_linker_10, # of connection points: 2
#     Edge 89, Type (0, 0), BuildingBlock: TEMPAE_clean_linker_10, # of connection points: 2
#     Edge 90, Type (0, 0), BuildingBlock: TEMPAE_clean_linker_10, # of connection points: 2
#     Edge 91, Type (0, 0), BuildingBlock: TEMPAE_clean_linker_10, # of connection points: 2
#     Edge 92, Type (0, 0), BuildingBlock: TEMPAE_clean_linker_10, # of connection points: 2
#     Edge 93, Type (0, 0), BuildingBlock: TEMPAE_clean_linker_10, # of connection points: 2
#     Edge 94, Type (0, 0), BuildingBlock: TEMPAE_clean_linker_10, # of connection points: 2
#     Edge 95, Type (0, 0), BuildingBlock: TEMPAE_clean_linker_10, # of connection points: 2
#     Edge 96, Type (0, 0), BuildingBlock: TEMPAE_clean_linker_10, # of connection points: 2
#     Edge 97, Type (0, 0), BuildingBlock: TEMPAE_clean_linker_10, # of connection points: 2
#     Edge 98, Type (0, 0), BuildingBlock: TEMPAE_clean_linker_10, # of connection points: 2
#     Edge 99, Type (0, 0), BuildingBlock: TEMPAE_clean_linker_10, # of connection points: 2
#     Edge 100, Type (0, 0), BuildingBlock: TEMPAE_clean_linker_10, # of connection points: 2
#     Edge 101, Type (0, 0), BuildingBlock: TEMPAE_clean_linker_10, # of connection points: 2
#     Edge 102, Type (0, 0), BuildingBlock: TEMPAE_clean_linker_10, # of connection points: 2
#     Edge 103, Type (0, 0), BuildingBlock: TEMPAE_clean_linker_10, # of connection points: 2
#     Edge 104, Type (0, 0), BuildingBlock: TEMPAE_clean_linker_10, # of connection points: 2
#     Edge 105, Type (0, 0), BuildingBlock: TEMPAE_clean_linker_10, # of connection points: 2
#     Edge 106, Type (0, 0), BuildingBlock: TEMPAE_clean_linker_10, # of connection points: 2
#     Edge 107, Type (0, 0), BuildingBlock: TEMPAE_clean_linker_10, # of connection points: 2
# Relax obj value: 0.090
# Max RMSD: 0.139
# Mean RMSD: 0.139
data_MOF--net-uoh--node1-CEKHIL_clean_sbu_0--edge1-TEMPAE_clean_linker_10
_symmetry_space_group_name_H-M    P1
_symmetry_Int_Tables_number       1
_symmetry_cell_setting            triclinic
loop_
_symmetry_equiv_pos_as_xyz
'x, y, z'
_cell_length_a     89.164163
_cell_length_b     89.192276
_cell_length_c     27.706591
_cell_angle_alpha  89.982439
_cell_angle_beta   90.017836
_cell_angle_gamma 120.02026
loop_
_atom_site_label
_atom_site_type_symbol
_atom_site_fract_x
_atom_site_fract_y
_atom_site_fract_z
_atom_type_partial_charge
Co0 Co 0.23905 0.15206 0.15863 0.0
O1 O 0.21995 0.15615 0.16488 0.0
O2 O 0.24693 0.17464 0.18698 0.0
C3 C 0.2331 0.14179 0.08277 0.0
O4 O 0.26216 0.1527 0.15572 0.0
Co5 Co 0.23251 0.11473 0.14343 0.0
O6 O 0.25811 0.12632 0.13751 0.0
C7 C 0.22789 0.1256 0.23985 0.0
C8 C 0.23095 0.17111 0.18299 0.0
C9 C 0.26795 0.14238 0.14638 0.0
O10 O 0.2344 0.14128 0.22481 0.0
O11 O 0.22447 0.11284 0.21192 0.0
O12 O 0.24146 0.15839 0.09057 0.0
O13 O 0.22728 0.13212 0.12062 0.0
Co14 Co 0.84884 0.08889 0.16559 0.0
O15 O 0.84444 0.06554 0.1698 0.0
O16 O 0.8265 0.0743 0.19543 0.0
C17 C 0.85837 0.09318 0.08888 0.0
O18 O 0.84847 0.1115 0.16532 0.0
Co19 Co 0.88573 0.11994 0.14694 0.0
O20 O 0.87324 0.13275 0.13355 0.0
C21 C 0.87604 0.10467 0.24464 0.0
C22 C 0.82971 0.06172 0.18917 0.0
C23 C 0.85786 0.12698 0.14907 0.0
O24 O 0.86033 0.0947 0.23073 0.0
O25 O 0.8883 0.11461 0.21598 0.0
O26 O 0.84185 0.08526 0.09792 0.0
O27 O 0.86839 0.09704 0.12597 0.0
Co28 Co 0.91189 0.76165 0.15291 0.0
O29 O 0.93537 0.78048 0.15361 0.0
O30 O 0.92695 0.75401 0.18018 0.0
C31 C 0.9058 0.76597 0.07714 0.0
O32 O 0.88905 0.73885 0.15616 0.0
Co33 Co 0.8814 0.7689 0.14136 0.0
O34 O 0.86668 0.74329 0.14209 0.0
C35 C 0.89939 0.77549 0.23455 0.0
C36 C 0.9395 0.76975 0.17271 0.0
C37 C 0.87275 0.73332 0.15089 0.0
O38 O 0.90774 0.76816 0.21907 0.0
O39 O 0.88963 0.77864 0.20759 0.0
O40 O 0.91391 0.75747 0.08478 0.0
O41 O 0.90314 0.77285 0.11474 0.0
Co42 Co 0.1539 0.24234 0.33534 0.0
O43 O 0.15739 0.22282 0.3301 0.0
O44 O 0.17592 0.24934 0.30455 0.0
C45 C 0.14474 0.23735 0.41245 0.0
O46 O 0.15519 0.26574 0.336 0.0
Co47 Co 0.11764 0.23784 0.35569 0.0
O48 O 0.13082 0.26323 0.36766 0.0
C49 C 0.12633 0.23151 0.25762 0.0
C50 C 0.17214 0.23333 0.31003 0.0
C51 C 0.14623 0.27237 0.35187 0.0
O52 O 0.14207 0.23699 0.27071 0.0
O53 O 0.11435 0.22953 0.28692 0.0
O54 O 0.16122 0.24547 0.40276 0.0
O55 O 0.1345 0.23148 0.37574 0.0
Co56 Co 0.76154 0.91134 0.32409 0.0
O57 O 0.78114 0.93421 0.31769 0.0
O58 O 0.7545 0.92651 0.2943 0.0
C59 C 0.7668 0.90718 0.40091 0.0
O60 O 0.73807 0.88924 0.32645 0.0
Co61 Co 0.76703 0.88004 0.34229 0.0
O62 O 0.74136 0.86644 0.34485 0.0
C63 C 0.77253 0.89511 0.24505 0.0
C64 C 0.77062 0.93863 0.29869 0.0
C65 C 0.73189 0.87302 0.3351 0.0
O66 O 0.76633 0.9047 0.25882 0.0
O67 O 0.77549 0.8857 0.27399 0.0
O68 O 0.75885 0.91571 0.39154 0.0
O69 O 0.77265 0.90289 0.36396 0.0
Co70 Co 0.08807 0.84775 0.32494 0.0
O71 O 0.06514 0.84436 0.31787 0.0
O72 O 0.07338 0.82609 0.29193 0.0
C73 C 0.0913 0.85593 0.40286 0.0
O74 O 0.11018 0.84644 0.32727 0.0
Co75 Co 0.11948 0.88379 0.34918 0.0
O76 O 0.1315 0.87048 0.36197 0.0
C77 C 0.10609 0.87603 0.24934 0.0
C78 C 0.0611 0.82982 0.29683 0.0
C79 C 0.12552 0.85526 0.34502 0.0
O80 O 0.09539 0.86027 0.26136 0.0
O81 O 0.11581 0.88772 0.2797 0.0
O82 O 0.08304 0.8396 0.3915 0.0
O83 O 0.09608 0.86666 0.36717 0.0
Co84 Co 0.76199 0.84935 0.82352 0.0
O85 O 0.78129 0.84557 0.81714 0.0
O86 O 0.75459 0.82732 0.79232 0.0
C87 C 0.76723 0.85835 0.90066 0.0
O88 O 0.73876 0.84844 0.82559 0.0
Co89 Co 0.76732 0.88591 0.84452 0.0
O90 O 0.74206 0.87294 0.85864 0.0
C91 C 0.77281 0.87699 0.74591 0.0
C92 C 0.77055 0.83089 0.79712 0.0
C93 C 0.73254 0.85758 0.8429 0.0
O94 O 0.7672 0.86124 0.75905 0.0
O95 O 0.77514 0.88907 0.7753 0.0
O96 O 0.75902 0.8419 0.89073 0.0
O97 O 0.77319 0.86865 0.86407 0.0
Co98 Co 0.14956 0.91058 0.82495 0.0
O99 O 0.15194 0.93311 0.81821 0.0
O100 O 0.17103 0.92596 0.79208 0.0
C101 C 0.14134 0.90698 0.90289 0.0
O102 O 0.15201 0.88911 0.82701 0.0
Co103 Co 0.11429 0.87812 0.84926 0.0
O104 O 0.12858 0.86715 0.8621 0.0
C105 C 0.12149 0.89161 0.74937 0.0
C106 C 0.16667 0.93777 0.79735 0.0
C107 C 0.14384 0.87375 0.84491 0.0
O108 O 0.13708 0.90289 0.76135 0.0
O109 O 0.11007 0.88147 0.77977 0.0
O110 O 0.15765 0.91582 0.89153 0.0
O111 O 0.13059 0.90179 0.86719 0.0
Co112 Co 0.08958 0.23896 0.8354 0.0
O113 O 0.06671 0.21924 0.82966 0.0
O114 O 0.07433 0.24571 0.80467 0.0
C115 C 0.09396 0.23422 0.91256 0.0
O116 O 0.11158 0.26253 0.83707 0.0
Co117 Co 0.12115 0.23391 0.85437 0.0
O118 O 0.1345 0.2596 0.85681 0.0
C119 C 0.10634 0.22831 0.75672 0.0
C120 C 0.06225 0.22961 0.80984 0.0
C121 C 0.1278 0.2689 0.84626 0.0
O122 O 0.09631 0.23399 0.77044 0.0
O123 O 0.11599 0.22572 0.78576 0.0
O124 O 0.08524 0.24194 0.90268 0.0
O125 O 0.09825 0.22822 0.87597 0.0
Co126 Co 0.85071 0.76247 0.65113 0.0
O127 O 0.84635 0.78143 0.65487 0.0
O128 O 0.82788 0.75454 0.67775 0.0
C129 C 0.86159 0.76808 0.57589 0.0
O130 O 0.85039 0.7395 0.65068 0.0
Co131 Co 0.88833 0.76936 0.63948 0.0
O132 O 0.87705 0.74375 0.63524 0.0
C133 C 0.87652 0.77433 0.73413 0.0
C134 C 0.83129 0.77044 0.67247 0.0
C135 C 0.86094 0.73382 0.64335 0.0
O136 O 0.86096 0.76762 0.71795 0.0
O137 O 0.88954 0.77773 0.70735 0.0
O138 O 0.84493 0.75961 0.58269 0.0
O139 O 0.87095 0.77418 0.61421 0.0
Co140 Co 0.23761 0.08869 0.66031 0.0
O141 O 0.21775 0.06581 0.663 0.0
O142 O 0.24396 0.07285 0.68905 0.0
C143 C 0.23357 0.09442 0.58384 0.0
O144 O 0.26127 0.11058 0.6616 0.0
Co145 Co 0.23303 0.12072 0.64535 0.0
O146 O 0.25873 0.13393 0.64475 0.0
C147 C 0.2258 0.10381 0.74037 0.0
C148 C 0.22788 0.06095 0.68237 0.0
C149 C 0.26784 0.12695 0.65447 0.0
O150 O 0.232 0.0943 0.72595 0.0
O151 O 0.22348 0.11387 0.71231 0.0
O152 O 0.24114 0.08547 0.59249 0.0
O153 O 0.22735 0.09815 0.621 0.0
Co154 Co 0.91232 0.15033 0.66594 0.0
O155 O 0.93532 0.15373 0.67026 0.0
O156 O 0.92767 0.17251 0.69564 0.0
C157 C 0.90738 0.14082 0.58919 0.0
O158 O 0.89019 0.15167 0.66553 0.0
Co159 Co 0.88081 0.1135 0.64923 0.0
O160 O 0.86723 0.12561 0.64768 0.0
C161 C 0.89667 0.12317 0.74553 0.0
C162 C 0.9398 0.16861 0.68981 0.0
C163 C 0.87391 0.14166 0.6575 0.0
O164 O 0.90625 0.13891 0.73134 0.0
O165 O 0.88694 0.11077 0.71705 0.0
O166 O 0.91604 0.15732 0.59832 0.0
O167 O 0.90347 0.13074 0.62616 0.0
Co168 Co 0.90601 0.4844 0.48377 0.0
O169 O 0.88561 0.48632 0.49103 0.0
O170 O 0.91184 0.50596 0.51569 0.0
C171 C 0.90119 0.47578 0.40616 0.0
O172 O 0.9301 0.48729 0.48102 0.0
Co173 Co 0.90355 0.44919 0.4608 0.0
O174 O 0.92878 0.46369 0.44751 0.0
C175 C 0.89764 0.45684 0.56043 0.0
C176 C 0.89555 0.50124 0.51105 0.0
C177 C 0.93736 0.47911 0.46368 0.0
O178 O 0.90185 0.47235 0.54791 0.0
O179 O 0.89615 0.44524 0.53045 0.0
O180 O 0.90838 0.49211 0.41694 0.0
O181 O 0.89591 0.46521 0.44228 0.0
Co182 Co 0.51252 0.42101 0.50484 0.0
O183 O 0.50781 0.39753 0.5047 0.0
O184 O 0.48982 0.40598 0.53208 0.0
C185 C 0.52296 0.42725 0.42909 0.0
O186 O 0.51248 0.44375 0.50836 0.0
Co187 Co 0.55017 0.4516 0.49388 0.0
O188 O 0.53917 0.46623 0.4939 0.0
C189 C 0.5389 0.43319 0.5864 0.0
C190 C 0.49296 0.39346 0.5237 0.0
C191 C 0.5231 0.46003 0.50263 0.0
O192 O 0.52317 0.425 0.57111 0.0
O193 O 0.5518 0.44299 0.55946 0.0
O194 O 0.50634 0.41916 0.43671 0.0
O195 O 0.53251 0.42986 0.4667 0.0
Co196 Co 0.58007 0.09622 0.48747 0.0
O197 O 0.60291 0.11603 0.49305 0.0
O198 O 0.5954 0.0896 0.51812 0.0
C199 C 0.57569 0.10107 0.41042 0.0
O200 O 0.55818 0.07257 0.48652 0.0
Co201 Co 0.54788 0.10007 0.46731 0.0
O202 O 0.53604 0.0747 0.45529 0.0
C203 C 0.56291 0.10647 0.56539 0.0
C204 C 0.60742 0.10571 0.51304 0.0
C205 C 0.54254 0.06574 0.47079 0.0
O206 O 0.57339 0.10128 0.55213 0.0
O207 O 0.55277 0.10825 0.53619 0.0
O208 O 0.58439 0.0933 0.42004 0.0
O209 O 0.57118 0.10678 0.44719 0.0
Co210 Co 0.81845 0.57407 0.65913 0.0
O211 O 0.82056 0.55376 0.65281 0.0
O212 O 0.83942 0.57967 0.62415 0.0
C213 C 0.81136 0.57034 0.7379 0.0
O214 O 0.821 0.59803 0.66029 0.0
Co215 Co 0.78343 0.57141 0.68653 0.0
O216 O 0.79796 0.59679 0.69729 0.0
C217 C 0.78949 0.56454 0.58635 0.0
C218 C 0.83501 0.56352 0.63034 0.0
C219 C 0.813 0.60532 0.67863 0.0
O220 O 0.80517 0.56883 0.59682 0.0
O221 O 0.77842 0.56366 0.61729 0.0
O222 O 0.82748 0.57755 0.72475 0.0
O223 O 0.80009 0.56439 0.70346 0.0
Co224 Co 0.42721 0.24308 0.65636 0.0
O225 O 0.44695 0.26566 0.64608 0.0
O226 O 0.42005 0.25787 0.62503 0.0
C227 C 0.43354 0.24041 0.73334 0.0
O228 O 0.40357 0.22139 0.6622 0.0
Co229 Co 0.43116 0.21124 0.68005 0.0
O230 O 0.40607 0.19981 0.69586 0.0
C231 C 0.43546 0.22394 0.57955 0.0
C232 C 0.43626 0.26992 0.62722 0.0
C233 C 0.39692 0.20611 0.68036 0.0
O234 O 0.43086 0.23494 0.59211 0.0
O235 O 0.43767 0.21432 0.6097 0.0
O236 O 0.42564 0.24893 0.72318 0.0
O237 O 0.43853 0.235 0.69684 0.0
Co238 Co 0.75642 0.18337 0.66444 0.0
O239 O 0.73359 0.1803 0.65812 0.0
O240 O 0.74121 0.16137 0.63375 0.0
C241 C 0.76049 0.19269 0.74139 0.0
O242 O 0.77831 0.18164 0.66662 0.0
Co243 Co 0.78847 0.21947 0.68471 0.0
O244 O 0.80016 0.20592 0.69876 0.0
C245 C 0.77388 0.21065 0.58621 0.0
C246 C 0.72917 0.16544 0.63848 0.0
C247 C 0.7938 0.19045 0.68344 0.0
O248 O 0.76335 0.19501 0.5996 0.0
O249 O 0.7839 0.22265 0.61542 0.0
O250 O 0.75184 0.17621 0.73193 0.0
O251 O 0.76513 0.20287 0.70447 0.0
Co252 Co 0.42623 0.18114 0.15413 0.0
O253 O 0.44555 0.17734 0.15016 0.0
O254 O 0.41932 0.15946 0.12142 0.0
C255 C 0.43017 0.18916 0.23215 0.0
O256 O 0.40304 0.18033 0.15335 0.0
Co257 Co 0.43139 0.21749 0.17679 0.0
O258 O 0.40593 0.20447 0.18784 0.0
C259 C 0.43827 0.20963 0.07845 0.0
C260 C 0.43515 0.16289 0.12859 0.0
C261 C 0.39662 0.18933 0.17042 0.0
O262 O 0.43259 0.19377 0.09068 0.0
O263 O 0.4401 0.22139 0.10834 0.0
O264 O 0.42201 0.17285 0.22056 0.0
O265 O 0.43681 0.19994 0.19674 0.0
Co266 Co 0.8192 0.24664 0.16413 0.0
O267 O 0.82257 0.2696 0.15884 0.0
O268 O 0.84127 0.26181 0.13373 0.0
C269 C 0.80993 0.24209 0.24115 0.0
O270 O 0.82056 0.22455 0.16545 0.0
Co271 Co 0.78241 0.21524 0.18211 0.0
O272 O 0.79457 0.20172 0.1845 0.0
C273 C 0.79181 0.23054 0.08515 0.0
C274 C 0.83739 0.27397 0.13904 0.0
C275 C 0.81059 0.20834 0.17432 0.0
O276 O 0.80759 0.2402 0.09898 0.0
O277 O 0.77947 0.22097 0.114 0.0
O278 O 0.82641 0.25074 0.23155 0.0
O279 O 0.79972 0.238 0.2044 0.0
Co280 Co 0.75649 0.5728 0.16142 0.0
O281 O 0.73511 0.55179 0.14853 0.0
O282 O 0.74055 0.57809 0.12854 0.0
C283 C 0.75894 0.56658 0.23881 0.0
O284 O 0.7766 0.59741 0.16964 0.0
Co285 Co 0.79006 0.57225 0.18822 0.0
O286 O 0.7992 0.59702 0.20447 0.0
C287 C 0.77838 0.56745 0.08671 0.0
C288 C 0.72968 0.56151 0.12941 0.0
C289 C 0.79181 0.60513 0.18873 0.0
O290 O 0.7664 0.57083 0.0981 0.0
O291 O 0.78819 0.56596 0.11783 0.0
O292 O 0.74906 0.5729 0.22754 0.0
O293 O 0.76577 0.56289 0.20293 0.0
Co294 Co 0.51705 0.09529 0.98667 0.0
O295 O 0.51333 0.11464 0.99196 0.0
O296 O 0.49473 0.08796 0.01604 0.0
C297 C 0.52663 0.10043 0.91005 0.0
O298 O 0.51603 0.07201 0.98517 0.0
Co299 Co 0.55402 0.10111 0.9696 0.0
O300 O 0.54217 0.07544 0.96696 0.0
C301 C 0.54415 0.10671 0.06633 0.0
C302 C 0.49841 0.10394 0.01084 0.0
C303 C 0.52613 0.06591 0.97664 0.0
O304 O 0.52838 0.10042 0.05219 0.0
O305 O 0.55661 0.10966 0.03774 0.0
O306 O 0.51012 0.0923 0.9191 0.0
O307 O 0.5367 0.10651 0.94711 0.0
Co308 Co 0.90852 0.42271 0.98443 0.0
O309 O 0.88856 0.40002 0.99099 0.0
O310 O 0.91488 0.40749 0.01701 0.0
C311 C 0.90386 0.42644 0.90654 0.0
O312 O 0.93228 0.44443 0.98272 0.0
Co313 Co 0.90498 0.45483 0.96113 0.0
O314 O 0.93037 0.46641 0.94942 0.0
C315 C 0.89856 0.44083 0.06034 0.0
C316 C 0.89874 0.39553 0.01196 0.0
C317 C 0.93924 0.45993 0.96594 0.0
O318 O 0.90353 0.43008 0.04821 0.0
O319 O 0.89687 0.45077 0.03016 0.0
O320 O 0.91148 0.41772 0.91764 0.0
O321 O 0.89815 0.43136 0.94247 0.0
Co322 Co 0.57802 0.48039 0.0028 0.0
O323 O 0.60108 0.48405 0.00873 0.0
O324 O 0.59312 0.50304 0.0302 0.0
C325 C 0.5732 0.46968 0.92733 0.0
O326 O 0.55583 0.48157 -0.00048 0.0
Co327 Co 0.54661 0.44325 0.9894 0.0
O328 O 0.53314 0.45532 0.98174 0.0
C329 C 0.56214 0.45461 0.08567 0.0
C330 C 0.60532 0.49917 0.02598 0.0
C331 C 0.53968 0.47147 0.98994 0.0
O332 O 0.57184 0.47007 0.06953 0.0
O333 O 0.55241 0.44174 0.05854 0.0
O334 O 0.5819 0.48631 0.93453 0.0
O335 O 0.56928 0.46018 0.96559 0.0
Co336 Co 0.57435 0.81948 0.83309 0.0
O337 O 0.55488 0.82302 0.83749 0.0
O338 O 0.58128 0.84147 0.86402 0.0
C339 C 0.57005 0.81062 0.75582 0.0
O340 O 0.59768 0.82056 0.83263 0.0
Co341 Co 0.56857 0.78262 0.81462 0.0
O342 O 0.59426 0.79456 0.81252 0.0
C343 C 0.562 0.79169 0.91112 0.0
C344 C 0.5653 0.83774 0.8578 0.0
C345 C 0.60378 0.8105 0.82331 0.0
O346 O 0.5686 0.80757 0.89781 0.0
O347 O 0.55922 0.77942 0.88202 0.0
O348 O 0.57799 0.82704 0.76605 0.0
O349 O 0.56358 0.80022 0.79209 0.0
Co350 Co 0.18461 0.75623 0.82455 0.0
O351 O 0.18081 0.7331 0.82956 0.0
O352 O 0.16218 0.74119 0.85322 0.0
C353 C 0.1947 0.7611 0.74835 0.0
O354 O 0.18365 0.77854 0.82323 0.0
Co355 Co 0.22174 0.78746 0.8094 0.0
O356 O 0.2099 0.80127 0.80587 0.0
C357 C 0.21129 0.77144 0.90536 0.0
C358 C 0.16587 0.72889 0.84834 0.0
C359 C 0.19381 0.79477 0.81498 0.0
O360 O 0.19559 0.76215 0.89053 0.0
O361 O 0.22393 0.78104 0.87737 0.0
O362 O 0.17812 0.75259 0.75653 0.0
O363 O 0.20448 0.76487 0.78595 0.0
Co364 Co 0.24481 0.42806 0.82676 0.0
O365 O 0.26774 0.44776 0.83135 0.0
O366 O 0.26016 0.42138 0.85703 0.0
C367 C 0.24034 0.43283 0.74973 0.0
O368 O 0.22284 0.40448 0.82665 0.0
Co369 Co 0.21265 0.43193 0.80673 0.0
O370 O 0.20075 0.40656 0.79478 0.0
C371 C 0.22799 0.4387 0.9046 0.0
C372 C 0.27226 0.43741 0.85102 0.0
C373 C 0.20722 0.39762 0.81075 0.0
O374 O 0.23843 0.43344 0.89146 0.0
O375 O 0.21776 0.44034 0.87538 0.0
O376 O 0.24887 0.42488 0.75931 0.0
O377 O 0.23593 0.43863 0.78649 0.0
Co378 Co 0.48481 0.9072 -0.00254 0.0
O379 O 0.48831 0.88767 0.99362 0.0
O380 O 0.50698 0.91412 0.96791 0.0
C381 C 0.47528 0.90255 0.0742 0.0
O382 O 0.48613 0.93061 -0.00308 0.0
Co383 Co 0.44845 0.90283 0.01565 0.0
O384 O 0.46165 0.92825 0.02723 0.0
C385 C 0.45768 0.89633 0.91843 0.0
C386 C 0.50321 0.89816 0.97416 0.0
C387 C 0.47714 0.93731 0.01194 0.0
O388 O 0.47332 0.9017 0.93234 0.0
O389 O 0.44557 0.89449 0.947 0.0
O390 O 0.4918 0.91055 0.0651 0.0
O391 O 0.4652 0.89653 0.03719 0.0
Co392 Co 0.09653 0.58 -0.00478 0.0
O393 O 0.11566 0.60328 0.99151 0.0
O394 O 0.08893 0.595 0.96738 0.0
C395 C 0.10168 0.57473 0.07104 0.0
O396 O 0.07344 0.55744 -0.00474 0.0
Co397 Co 0.10312 0.54913 0.00845 0.0
O398 O 0.07747 0.5349 0.01079 0.0
C399 C 0.10852 0.56571 0.91335 0.0
C400 C 0.10486 0.60741 0.97291 0.0
C401 C 0.06766 0.54118 0.00224 0.0
O402 O 0.10191 0.57471 0.92892 0.0
O403 O 0.11172 0.55606 0.94066 0.0
O404 O 0.0934 0.58306 0.06342 0.0
O405 O 0.10792 0.57139 0.03321 0.0
Co406 Co 0.42317 0.5147 0.98689 0.0
O407 O 0.40034 0.5117 0.98325 0.0
O408 O 0.4077 0.49305 0.95486 0.0
C409 C 0.4277 0.52296 0.0648 0.0
O410 O 0.44511 0.51303 0.98606 0.0
Co411 Co 0.45514 0.55066 0.0084 0.0
O412 O 0.46681 0.53696 0.02017 0.0
C413 C 0.43982 0.543 0.91076 0.0
C414 C 0.3957 0.49704 0.96211 0.0
C415 C 0.46056 0.5217 0.00326 0.0
O416 O 0.4296 0.52715 0.92305 0.0
O417 O 0.44996 0.55471 0.94048 0.0
O418 O 0.41906 0.50663 0.05359 0.0
O419 O 0.43204 0.53365 0.02912 0.0
Co420 Co 0.09455 0.51694 0.49489 0.0
O421 O 0.1135 0.51251 0.49274 0.0
O422 O 0.08687 0.49428 0.46738 0.0
C423 C 0.09937 0.52736 0.57069 0.0
O424 O 0.07161 0.51668 0.49337 0.0
Co425 Co 0.10137 0.55448 0.50739 0.0
O426 O 0.07572 0.54329 0.5085 0.0
C427 C 0.10759 0.54334 0.4133 0.0
C428 C 0.10269 0.4976 0.47402 0.0
C429 C 0.06588 0.52722 0.49976 0.0
O430 O 0.10052 0.52764 0.42862 0.0
O431 O 0.11074 0.55617 0.44057 0.0
O432 O 0.09091 0.51074 0.56309 0.0
O433 O 0.10589 0.53693 0.53293 0.0
Co434 Co 0.4834 0.57873 0.48958 0.0
O435 O 0.48624 0.60116 0.47612 0.0
O436 O 0.50553 0.59312 0.45883 0.0
C437 C 0.47409 0.57667 0.5661 0.0
O438 O 0.48537 0.55719 0.49884 0.0
Co439 Co 0.44743 0.5471 0.5135 0.0
O440 O 0.46107 0.53594 0.5326 0.0
C441 C 0.45638 0.55875 0.41235 0.0
C442 C 0.50125 0.60506 0.45852 0.0
C443 C 0.47663 0.54212 0.5182 0.0
O444 O 0.47193 0.56983 0.4252 0.0
O445 O 0.44435 0.54946 0.44244 0.0
O446 O 0.49054 0.58532 0.55624 0.0
O447 O 0.46382 0.57098 0.52932 0.0
Co448 Co 0.42275 0.90826 0.49791 0.0
O449 O 0.39957 0.88904 0.49289 0.0
O450 O 0.40786 0.91573 0.46851 0.0
C451 C 0.42731 0.90307 0.57445 0.0
O452 O 0.44521 0.93144 0.49905 0.0
Co453 Co 0.45366 0.90197 0.5143 0.0
O454 O 0.46777 0.92762 0.51636 0.0
C455 C 0.43797 0.89651 0.41789 0.0
C456 C 0.39547 0.89977 0.47365 0.0
C457 C 0.46143 0.93733 0.50698 0.0
O458 O 0.42871 0.903 0.4323 0.0
O459 O 0.44743 0.89339 0.44625 0.0
O460 O 0.41902 0.91132 0.56568 0.0
O461 O 0.4311 0.89693 0.53721 0.0
Co462 Co 0.18332 0.42957 0.32636 0.0
O463 O 0.17929 0.44872 0.33212 0.0
O464 O 0.16109 0.42199 0.3567 0.0
C465 C 0.1926 0.43469 0.24946 0.0
O466 O 0.18268 0.40647 0.32465 0.0
Co467 Co 0.22048 0.43602 0.30817 0.0
O468 O 0.20896 0.41037 0.30563 0.0
C469 C 0.21067 0.44112 0.4055 0.0
C470 C 0.16455 0.43792 0.35176 0.0
C471 C 0.19298 0.40062 0.31576 0.0
O472 O 0.19489 0.43484 0.3915 0.0
O473 O 0.22312 0.44422 0.37671 0.0
O474 O 0.17611 0.42642 0.25898 0.0
O475 O 0.20278 0.44096 0.28622 0.0
Co476 Co 0.57225 0.75623 0.33149 0.0
O477 O 0.55213 0.73397 0.34279 0.0
O478 O 0.57908 0.74096 0.36131 0.0
C479 C 0.5657 0.75933 0.25508 0.0
O480 O 0.59614 0.77754 0.32486 0.0
Co481 Co 0.56902 0.78866 0.30957 0.0
O482 O 0.59408 0.79973 0.29365 0.0
C483 C 0.56459 0.77537 0.4094 0.0
C484 C 0.5627 0.72938 0.36055 0.0
C485 C 0.60301 0.793 0.30779 0.0
O486 O 0.5693 0.76452 0.39627 0.0
O487 O 0.56227 0.78506 0.37972 0.0
O488 O 0.57315 0.7503 0.26431 0.0
O489 O 0.56114 0.76485 0.2922 0.0
Co490 Co 0.24687 0.81949 0.32467 0.0
O491 O 0.27018 0.82377 0.32904 0.0
O492 O 0.26166 0.84201 0.35329 0.0
C493 C 0.242 0.80943 0.24844 0.0
O494 O 0.22426 0.81991 0.32398 0.0
Co495 Co 0.21615 0.78206 0.30979 0.0
O496 O 0.20188 0.79341 0.3068 0.0
C497 C 0.23236 0.79276 0.40546 0.0
C498 C 0.27417 0.83863 0.34792 0.0
C499 C 0.20806 0.80945 0.31598 0.0
O500 O 0.24131 0.8085 0.39065 0.0
O501 O 0.22291 0.78005 0.37752 0.0
O502 O 0.25022 0.82601 0.25666 0.0
O503 O 0.23852 0.79968 0.28599 0.0
C504 C 0.21329 0.11213 0.80897 0.0
C505 C 0.22318 0.10489 0.79268 0.0
C506 C 0.21325 0.11621 0.8578 0.0
C507 C 0.22354 0.11319 0.89092 0.0
C508 C 0.23268 0.1049 0.87529 0.0
C509 C 0.23228 0.10071 0.82632 0.0
C510 C 0.20302 0.12469 0.87334 0.0
C511 C 0.24386 0.10155 0.90954 0.0
C512 C 0.24139 0.14448 -0.00394 0.0
C513 C 0.23079 0.13438 0.034 0.0
C514 C 0.23934 0.13759 0.94948 0.0
C515 C 0.22611 0.12031 0.94058 0.0
C516 C 0.21531 0.11008 0.97877 0.0
C517 C 0.21791 0.1172 0.02525 0.0
C518 C 0.25131 0.14881 0.90978 0.0
C519 C 0.20089 0.09173 0.97039 0.0
H520 H 0.20606 0.1152 0.78324 0.0
H521 H 0.23998 0.09515 0.81403 0.0
H522 H 0.19545 0.11841 0.90641 0.0
H523 H 0.21205 0.13849 0.8821 0.0
H524 H 0.194 0.12408 0.84473 0.0
H525 H 0.24855 0.09329 0.89304 0.0
H526 H 0.25526 0.11406 0.92019 0.0
H527 H 0.23662 0.09519 0.94296 0.0
H528 H 0.25143 0.15773 0.00288 0.0
H529 H 0.20964 0.1094 0.0546 0.0
H530 H 0.24372 0.15064 0.88101 0.0
H531 H 0.2579 0.14234 0.89311 0.0
H532 H 0.26132 0.16175 0.92311 0.0
H533 H 0.19162 0.09165 0.94351 0.0
H534 H 0.1937 0.08547 0.00405 0.0
H535 H 0.20619 0.08383 0.95525 0.0
C536 C 0.89848 0.13265 0.83115 0.0
C537 C 0.89507 0.11946 0.79789 0.0
C538 C 0.89392 0.12881 0.8799 0.0
C539 C 0.88607 0.11141 0.89578 0.0
C540 C 0.88373 0.09823 0.86308 0.0
C541 C 0.88813 0.10239 0.8144 0.0
C542 C 0.89652 0.1432 0.91367 0.0
C543 C 0.87577 0.07959 0.87896 0.0
C544 C 0.88271 0.10265 0.03051 0.0
C545 C 0.86542 0.09791 0.0396 0.0
C546 C 0.88961 0.10696 0.98377 0.0
C547 C 0.87903 0.10681 0.94553 0.0
C548 C 0.86161 0.1022 0.95464 0.0
C549 C 0.85496 0.09764 0.00158 0.0
C550 C 0.90815 0.11151 0.97524 0.0
C551 C 0.85 0.10214 0.91482 0.0
H552 H 0.90377 0.14586 0.81865 0.0
H553 H 0.88562 0.09217 0.78894 0.0
H554 H 0.88372 0.14135 0.9245 0.0
H555 H 0.90321 0.14288 0.94707 0.0
H556 H 0.90416 0.15618 0.89679 0.0
H557 H 0.87671 0.07129 0.85061 0.0
H558 H 0.88221 0.07864 0.91217 0.0
H559 H 0.8619 0.0744 0.88768 0.0
H560 H 0.89081 0.10277 0.05986 0.0
H561 H 0.84161 0.09406 0.00859 0.0
H562 H 0.91568 0.12478 0.96025 0.0
H563 H 0.90858 0.10255 0.94823 0.0
H564 H 0.91458 0.11081 0.00883 0.0
H565 H 0.85591 0.11511 0.8977 0.0
H566 H 0.8369 0.09863 0.92814 0.0
H567 H 0.8486 0.09277 0.88638 0.0
C568 C 0.90065 0.75797 0.99009 0.0
C569 C 0.90008 0.7678 0.02867 0.0
C570 C 0.89575 0.75997 0.94354 0.0
C571 C 0.89038 0.77226 0.93537 0.0
C572 C 0.88961 0.7821 0.97431 0.0
C573 C 0.89437 0.77967 0.02066 0.0
C574 C 0.89652 0.74907 0.90295 0.0
C575 C 0.88412 0.79544 0.96682 0.0
C576 C 0.89603 0.787 0.80537 0.0
C577 C 0.87935 0.7763 0.78686 0.0
C578 C 0.89956 0.78664 0.8545 0.0
C579 C 0.88614 0.77509 0.88562 0.0
C580 C 0.86906 0.76504 0.86777 0.0
C581 C 0.86583 0.76587 0.81857 0.0
C582 C 0.91788 0.79785 0.87247 0.0
C583 C 0.85443 0.75251 0.89982 0.0
H584 H 0.90496 0.74872 -0.00375 0.0
H585 H 0.89395 0.78732 0.05046 0.0
H586 H 0.88374 0.74192 0.8848 0.0
H587 H 0.90607 0.75754 0.87549 0.0
H588 H 0.90025 0.73958 0.91575 0.0
H589 H 0.88362 0.80158 0.00121 0.0
H590 H 0.89334 0.80571 0.94207 0.0
H591 H 0.87117 0.7894 0.94955 0.0
H592 H 0.90649 0.79524 0.78111 0.0
H593 H 0.8529 0.75753 0.80451 0.0
H594 H 0.92356 0.78959 0.88122 0.0
H595 H 0.918 0.80468 0.90605 0.0
H596 H 0.92627 0.80761 0.84526 0.0
H597 H 0.85642 0.74155 0.90932 0.0
H598 H 0.84161 0.74723 0.88196 0.0
H599 H 0.85423 0.75887 0.93403 0.0
C600 C 0.1208 0.22243 0.47192 0.0
C601 C 0.13798 0.23512 0.46206 0.0
C602 C 0.11415 0.21988 0.51894 0.0
C603 C 0.12484 0.23054 0.55671 0.0
C604 C 0.14214 0.24352 0.54682 0.0
C605 C 0.14857 0.24553 0.49961 0.0
C606 C 0.09576 0.2057 0.52829 0.0
C607 C 0.15384 0.25533 0.58607 0.0
C608 C 0.10498 0.23636 0.67116 0.0
C609 C 0.1085 0.22664 0.7044 0.0
C610 C 0.10979 0.23735 0.62254 0.0
C611 C 0.11801 0.22816 0.60671 0.0
C612 C 0.1206 0.21748 0.63943 0.0
C613 C 0.11595 0.21697 0.68801 0.0
C614 C 0.10694 0.249 0.58879 0.0
C615 C 0.12896 0.20717 0.6236 0.0
H616 H 0.11261 0.21429 0.44293 0.0
H617 H 0.16182 0.25541 0.49197 0.0
H618 H 0.09565 0.19651 0.55549 0.0
H619 H 0.08811 0.21129 0.5434 0.0
H620 H 0.08924 0.19837 0.49504 0.0
H621 H 0.16681 0.26505 0.57216 0.0
H622 H 0.14781 0.26226 0.60328 0.0
H623 H 0.15556 0.24759 0.61459 0.0
H624 H 0.09932 0.24396 0.68358 0.0
H625 H 0.11858 0.20933 0.71345 0.0
H626 H 0.1001 0.24185 0.55571 0.0
H627 H 0.11965 0.25997 0.57738 0.0
H628 H 0.09932 0.25432 0.60587 0.0
H629 H 0.12248 0.19954 0.59075 0.0
H630 H 0.12845 0.19818 0.65217 0.0
H631 H 0.14273 0.21611 0.61425 0.0
C632 C 0.78137 0.89783 0.46082 0.0
C633 C 0.76889 0.90255 0.4505 0.0
C634 C 0.78373 0.89374 0.50809 0.0
C635 C 0.77308 0.89402 0.54551 0.0
C636 C 0.76033 0.89861 0.53511 0.0
C637 C 0.75852 0.903 0.48775 0.0
C638 C 0.79767 0.88925 0.51806 0.0
C639 C 0.74852 0.89876 0.57395 0.0
C640 C 0.76555 0.86795 0.65994 0.0
C641 C 0.77501 0.88104 0.69376 0.0
C642 C 0.76529 0.87192 0.61109 0.0
C643 C 0.77501 0.88935 0.59563 0.0
C644 C 0.78548 0.90246 0.62904 0.0
C645 C 0.7852 0.89818 0.67787 0.0
C646 C 0.7538 0.8576 0.57665 0.0
C647 C 0.79636 0.92113 0.61361 0.0
H648 H 0.78949 0.8976 0.43204 0.0
H649 H 0.74881 0.90657 0.47976 0.0
H650 H 0.80677 0.89816 0.54573 0.0
H651 H 0.79181 0.87594 0.53284 0.0
H652 H 0.80515 0.89007 0.48514 0.0
H653 H 0.73905 0.90229 0.55965 0.0
H654 H 0.74128 0.8858 0.59109 0.0
H655 H 0.75629 0.90814 0.6026 0.0
H656 H 0.75757 0.85468 0.67199 0.0
H657 H 0.79268 0.90832 0.7038 0.0
H658 H 0.76119 0.85787 0.54417 0.0
H659 H 0.74308 0.8596 0.56432 0.0
H660 H 0.74811 0.84459 0.59355 0.0
H661 H 0.80409 0.92213 0.58114 0.0
H662 H 0.80531 0.92936 0.6426 0.0
H663 H 0.7878 0.92636 0.60383 0.0
C664 C 0.09955 0.88019 0.68283 0.0
C665 C 0.11695 0.889 0.69746 0.0
C666 C 0.09506 0.87576 0.63425 0.0
C667 C 0.10827 0.87995 0.5997 0.0
C668 C 0.12586 0.88935 0.61395 0.0
C669 C 0.13 0.89391 0.66259 0.0
C670 C 0.07616 0.86611 0.6202 0.0
C671 C 0.14031 0.89386 0.57825 0.0
C672 C 0.09646 0.8513 0.48863 0.0
C673 C 0.09548 0.86196 0.45317 0.0
C674 C 0.10077 0.85708 0.53643 0.0
C675 C 0.10369 0.87372 0.54916 0.0
C676 C 0.10241 0.8844 0.51356 0.0
C677 C 0.09855 0.87848 0.46578 0.0
C678 C 0.10239 0.84546 0.57319 0.0
C679 C 0.10501 0.90204 0.526 0.0
H680 H 0.08941 0.87647 0.70952 0.0
H681 H 0.14347 0.90062 0.67362 0.0
H682 H 0.07388 0.87256 0.58911 0.0
H683 H 0.07242 0.85278 0.60869 0.0
H684 H 0.06759 0.86527 0.65042 0.0
H685 H 0.15332 0.90193 0.59464 0.0
H686 H 0.13941 0.88179 0.56411 0.0
H687 H 0.13907 0.90093 0.547 0.0
H688 H 0.0942 0.83857 0.47879 0.0
H689 H 0.09767 0.88668 0.43837 0.0
H690 H 0.09301 0.84255 0.60295 0.0
H691 H 0.11555 0.85218 0.58931 0.0
H692 H 0.10004 0.83305 0.55721 0.0
H693 H 0.09591 0.90083 0.55505 0.0
H694 H 0.10297 0.90849 0.49442 0.0
H695 H 0.11832 0.91048 0.53993 0.0
C696 C 0.76436 0.89605 0.15938 0.0
C697 C 0.77455 0.89328 0.19279 0.0
C698 C 0.76392 0.89157 0.11066 0.0
C699 C 0.77416 0.88447 0.09495 0.0
C700 C 0.78528 0.88265 0.12791 0.0
C701 C 0.78522 0.88694 0.17657 0.0
C702 C 0.75177 0.89353 0.07664 0.0
C703 C 0.79668 0.87549 0.11223 0.0
C704 C 0.75879 0.85401 0.98756 0.0
C705 C 0.76897 0.86498 0.95028 0.0
C706 C 0.76024 0.86027 0.03476 0.0
C707 C 0.77237 0.87783 0.04491 0.0
C708 C 0.78277 0.88893 0.00742 0.0
C709 C 0.78083 0.8824 0.9604 0.0
C710 C 0.74874 0.8481 0.07373 0.0
C711 C 0.79602 0.90765 0.01707 0.0
H712 H 0.75599 0.90084 0.17173 0.0
H713 H 0.79323 0.88491 0.20218 0.0
H714 H 0.75878 0.9007 0.04375 0.0
H715 H 0.74139 0.88054 0.06493 0.0
H716 H 0.74565 0.90042 0.09364 0.0
H717 H 0.80583 0.87656 0.14104 0.0
H718 H 0.7885 0.86164 0.10244 0.0
H719 H 0.80422 0.88241 0.07969 0.0
H720 H 0.74954 0.84057 0.97975 0.0
H721 H 0.78878 0.8909 0.93161 0.0
H722 H 0.74104 0.85335 0.09069 0.0
H723 H 0.75678 0.84699 0.10249 0.0
H724 H 0.73969 0.83494 0.05962 0.0
H725 H 0.78958 0.91453 0.03201 0.0
H726 H 0.80322 0.91451 0.98398 0.0
H727 H 0.80545 0.90842 0.04451 0.0
C728 C 0.10513 0.86762 0.16302 0.0
C729 C 0.10857 0.88049 0.19742 0.0
C730 C 0.10968 0.8719 0.11445 0.0
C731 C 0.11752 0.88942 0.09976 0.0
C732 C 0.1202 0.90236 0.13382 0.0
C733 C 0.11588 0.89777 0.1824 0.0
C734 C 0.10686 0.85777 0.07934 0.0
C735 C 0.12811 0.92112 0.11924 0.0
C736 C 0.14663 0.90328 0.98936 0.0
C737 C 0.13536 0.9027 0.95326 0.0
C738 C 0.14095 0.89893 0.03722 0.0
C739 C 0.12372 0.89428 0.0493 0.0
C740 C 0.11239 0.89398 0.01307 0.0
C741 C 0.11829 0.89799 0.9653 0.0
C742 C 0.15332 0.89906 0.07471 0.0
C743 C 0.09406 0.88947 0.02478 0.0
H744 H 0.09962 0.85426 0.17443 0.0
H745 H 0.11846 0.90775 0.2088 0.0
H746 H 0.09931 0.85791 0.04772 0.0
H747 H 0.11956 0.8601 0.06567 0.0
H748 H 0.09994 0.8447 0.09606 0.0
H749 H 0.12781 0.92931 0.14902 0.0
H750 H 0.14178 0.92623 0.10825 0.0
H751 H 0.12114 0.92236 0.08768 0.0
H752 H 0.15981 0.90684 0.98002 0.0
H753 H 0.10959 0.89766 0.93743 0.0
H754 H 0.14784 0.88604 0.09132 0.0
H755 H 0.15509 0.90828 0.10402 0.0
H756 H 0.16621 0.90277 0.05929 0.0
H757 H 0.08669 0.87606 0.0389 0.0
H758 H 0.08713 0.89053 0.99279 0.0
H759 H 0.09413 0.89819 0.05347 0.0
C760 C 0.10432 0.22076 0.97317 0.0
C761 C 0.099 0.23273 0.96224 0.0
C762 C 0.10888 0.21901 0.02047 0.0
C763 C 0.10844 0.22977 0.05731 0.0
C764 C 0.10326 0.24202 0.04627 0.0
C765 C 0.09843 0.24323 -0.0011 0.0
C766 C 0.11402 0.20558 0.03112 0.0
C767 C 0.10291 0.25393 0.08445 0.0
C768 C 0.10502 0.21842 0.19016 0.0
C769 C 0.12215 0.22902 0.20558 0.0
C770 C 0.10052 0.2178 0.14139 0.0
C771 C 0.11341 0.22834 0.10753 0.0
C772 C 0.13086 0.23852 0.12255 0.0
C773 C 0.13505 0.23859 0.17138 0.0
C774 C 0.08186 0.20644 0.12648 0.0
C775 C 0.14493 0.25011 0.08764 0.0
H776 H 0.10468 0.21255 0.94487 0.0
H777 H 0.09441 0.25257 0.99045 0.0
H778 H 0.1274 0.21192 0.04565 0.0
H779 H 0.10537 0.1965 0.05919 0.0
H780 H 0.11338 0.19802 -0.00144 0.0
H781 H 0.09899 0.26304 0.06965 0.0
H782 H 0.09375 0.24621 0.11357 0.0
H783 H 0.11592 0.26158 0.10112 0.0
H784 H 0.09503 0.21088 0.21643 0.0
H785 H 0.14831 0.2469 0.18312 0.0
H786 H 0.08098 0.19857 0.09447 0.0
H787 H 0.07627 0.21465 0.11614 0.0
H788 H 0.07384 0.1976 0.15593 0.0
H789 H 0.14481 0.24268 0.05543 0.0
H790 H 0.15801 0.25622 0.10427 0.0
H791 H 0.1425 0.26051 0.07492 0.0
C792 C 0.90253 0.76842 0.31978 0.0
C793 C 0.89911 0.77833 0.28702 0.0
C794 C 0.89867 0.7681 0.36895 0.0
C795 C 0.89148 0.77814 0.38566 0.0
C796 C 0.88946 0.78934 0.35351 0.0
C797 C 0.89319 0.78921 0.30444 0.0
C798 C 0.90097 0.75597 0.40213 0.0
C799 C 0.88221 0.80056 0.37024 0.0
C800 C 0.85926 0.76061 0.48861 0.0
C801 C 0.86939 0.77041 0.52763 0.0
C802 C 0.86644 0.76284 0.44239 0.0
C803 C 0.88408 0.77536 0.43498 0.0
C804 C 0.89439 0.78527 0.4743 0.0
C805 C 0.88693 0.78258 0.52036 0.0
C806 C 0.85509 0.75184 0.40139 0.0
C807 C 0.91317 0.79889 0.46755 0.0
H808 H 0.90713 0.75998 0.30662 0.0
H809 H 0.89075 0.79709 0.27938 0.0
H810 H 0.90726 0.76255 0.43636 0.0
H811 H 0.88807 0.74484 0.41141 0.0
H812 H 0.90883 0.75089 0.38525 0.0
H813 H 0.88382 0.81029 0.34263 0.0
H814 H 0.86819 0.79229 0.37803 0.0
H815 H 0.88862 0.80742 0.40409 0.0
H816 H 0.84573 0.75112 0.49424 0.0
H817 H 0.89478 0.79022 0.55052 0.0
H818 H 0.86094 0.74475 0.38407 0.0
H819 H 0.85413 0.76022 0.37343 0.0
H820 H 0.8418 0.74227 0.41357 0.0
H821 H 0.92043 0.79303 0.45148 0.0
H822 H 0.9195 0.80526 0.50207 0.0
H823 H 0.91418 0.80895 0.44205 0.0
C824 C 0.22078 0.10624 0.52559 0.0
C825 C 0.23219 0.10006 0.53483 0.0
C826 C 0.21888 0.1111 0.47883 0.0
C827 C 0.22885 0.11 0.44075 0.0
C828 C 0.24065 0.1041 0.45013 0.0
C829 C 0.24208 0.09905 0.49706 0.0
C830 C 0.206 0.1171 0.47002 0.0
C831 C 0.2517 0.103 0.41052 0.0
C832 C 0.21506 0.10551 0.30988 0.0
C833 C 0.22603 0.12228 0.29238 0.0
C834 C 0.21516 0.10155 0.35879 0.0
C835 C 0.22674 0.11462 0.39072 0.0
C836 C 0.23723 0.13177 0.37378 0.0
C837 C 0.23664 0.13544 0.3248 0.0
C838 C 0.20349 0.08319 0.37579 0.0
C839 C 0.24986 0.14601 0.40667 0.0
H840 H 0.21308 0.10698 0.55476 0.0
H841 H 0.25098 0.09438 0.50419 0.0
H842 H 0.21258 0.13021 0.45368 0.0
H843 H 0.196 0.10829 0.44398 0.0
H844 H 0.19945 0.11748 0.50372 0.0
H845 H 0.26073 0.0988 0.42421 0.0
H846 H 0.2433 0.09368 0.3825 0.0
H847 H 0.25938 0.11579 0.39276 0.0
H848 H 0.20671 0.09533 0.28504 0.0
H849 H 0.24522 0.14841 0.31146 0.0
H850 H 0.19637 0.08306 0.40878 0.0
H851 H 0.21142 0.07722 0.38527 0.0
H852 H 0.19394 0.07507 0.3478 0.0
H853 H 0.24329 0.14647 0.44016 0.0
H854 H 0.25591 0.15893 0.38905 0.0
H855 H 0.26027 0.14332 0.41746 0.0
C856 C 0.89696 0.11666 0.52973 0.0
C857 C 0.90212 0.13398 0.53988 0.0
C858 C 0.89237 0.11008 0.48271 0.0
C859 C 0.89263 0.12102 0.44534 0.0
C860 C 0.89755 0.13844 0.45564 0.0
C861 C 0.90241 0.14476 0.50275 0.0
C862 C 0.88748 0.09153 0.47289 0.0
C863 C 0.89768 0.15042 0.41686 0.0
C864 C 0.89691 0.11293 0.31323 0.0
C865 C 0.87984 0.1062 0.29693 0.0
C866 C 0.9011 0.11691 0.3621 0.0
C867 C 0.88796 0.11442 0.39519 0.0
C868 C 0.87057 0.10687 0.37938 0.0
C869 C 0.8667 0.10269 0.33045 0.0
C870 C 0.91973 0.12455 0.37786 0.0
C871 C 0.85623 0.10419 0.4135 0.0
H872 H 0.89681 0.10831 0.55841 0.0
H873 H 0.90629 0.15812 0.51062 0.0
H874 H 0.87424 0.08433 0.45748 0.0
H875 H 0.89644 0.09115 0.44575 0.0
H876 H 0.88793 0.08473 0.50599 0.0
H877 H 0.90126 0.16342 0.43119 0.0
H878 H 0.90704 0.15201 0.38816 0.0
H879 H 0.88471 0.14472 0.39977 0.0
H880 H 0.9071 0.11551 0.28753 0.0
H881 H 0.85349 0.09757 0.31807 0.0
H882 H 0.92058 0.11771 0.41029 0.0
H883 H 0.92504 0.13834 0.38784 0.0
H884 H 0.92799 0.12382 0.349 0.0
H885 H 0.85644 0.09719 0.44633 0.0
H886 H 0.84324 0.09683 0.39651 0.0
H887 H 0.85825 0.11697 0.42529 0.0
C888 C 0.88588 0.44986 0.12706 0.0
C889 C 0.89632 0.44308 0.11221 0.0
C890 C 0.8853 0.45396 0.17567 0.0
C891 C 0.89575 0.45165 0.20991 0.0
C892 C 0.90592 0.44432 0.19537 0.0
C893 C 0.90592 0.43993 0.14676 0.0
C894 C 0.87393 0.46131 0.19008 0.0
C895 C 0.91747 0.44193 0.23064 0.0
C896 C 0.9102 0.48099 0.31978 0.0
C897 C 0.8997 0.46966 0.35601 0.0
C898 C 0.9091 0.47525 0.27209 0.0
C899 C 0.89691 0.45786 0.26028 0.0
C900 C 0.88607 0.44643 0.29665 0.0
C901 C 0.88775 0.45242 0.34428 0.0
C902 C 0.92112 0.48773 0.23447 0.0
C903 C 0.87266 0.42792 0.28521 0.0
H904 H 0.87835 0.4522 0.10051 0.0
H905 H 0.91414 0.43484 0.13542 0.0
H906 H 0.86585 0.4542 0.22169 0.0
H907 H 0.88213 0.47505 0.20091 0.0
H908 H 0.86529 0.46064 0.16024 0.0
H909 H 0.92391 0.43527 0.21409 0.0
H910 H 0.92762 0.45475 0.24418 0.0
H911 H 0.90989 0.43431 0.26232 0.0
H912 H 0.91952 0.4943 0.32887 0.0
H913 H 0.87952 0.44367 0.37226 0.0
H914 H 0.9135 0.4892 0.20511 0.0
H915 H 0.92894 0.48255 0.21798 0.0
H916 H 0.93006 0.50073 0.24975 0.0
H917 H 0.86383 0.42762 0.25652 0.0
H918 H 0.86482 0.42089 0.3173 0.0
H919 H 0.87908 0.4209 0.2712 0.0
C920 C 0.56383 0.46558 0.16961 0.0
C921 C 0.56048 0.45184 0.13849 0.0
C922 C 0.55931 0.46259 0.21862 0.0
C923 C 0.55156 0.4455 0.23695 0.0
C924 C 0.54925 0.43178 0.20644 0.0
C925 C 0.55361 0.43509 0.15746 0.0
C926 C 0.56185 0.47752 0.24997 0.0
C927 C 0.54137 0.41345 0.22495 0.0
C928 C 0.54794 0.43788 0.37231 0.0
C929 C 0.5305 0.43273 0.38049 0.0
C930 C 0.55507 0.44225 0.32581 0.0
C931 C 0.54455 0.4417 0.28685 0.0
C932 C 0.52705 0.43695 0.29519 0.0
C933 C 0.52019 0.43239 0.34191 0.0
C934 C 0.57372 0.44705 0.31818 0.0
C935 C 0.51549 0.43646 0.25462 0.0
H936 H 0.56905 0.47855 0.15518 0.0
H937 H 0.55115 0.42445 0.13368 0.0
H938 H 0.54903 0.47589 0.25957 0.0
H939 H 0.56841 0.47774 0.28418 0.0
H940 H 0.56958 0.49021 0.23159 0.0
H941 H 0.54218 0.40465 0.19804 0.0
H942 H 0.54796 0.41311 0.25855 0.0
H943 H 0.52753 0.40842 0.23388 0.0
H944 H 0.55594 0.43811 0.4021 0.0
H945 H 0.50673 0.42852 0.34819 0.0
H946 H 0.58098 0.45991 0.30056 0.0
H947 H 0.57432 0.43752 0.29368 0.0
H948 H 0.58031 0.44741 0.35255 0.0
H949 H 0.52151 0.44916 0.23593 0.0
H950 H 0.50244 0.4333 0.26756 0.0
H951 H 0.51394 0.42661 0.22757 0.0
C952 C 0.57173 0.09291 0.32326 0.0
C953 C 0.57067 0.10281 0.36092 0.0
C954 C 0.56686 0.09442 0.27615 0.0
C955 C 0.56111 0.10634 0.26648 0.0
C956 C 0.56015 0.11645 0.30436 0.0
C957 C 0.5648 0.11444 0.35128 0.0
C958 C 0.56781 0.08323 0.23675 0.0
C959 C 0.55437 0.12949 0.29525 0.0
C960 C 0.56482 0.11962 0.13519 0.0
C961 C 0.54788 0.10875 0.11867 0.0
C962 C 0.56913 0.11962 0.18387 0.0
C963 C 0.55624 0.10823 0.21653 0.0
C964 C 0.53895 0.09781 0.20055 0.0
C965 C 0.53493 0.09832 0.15183 0.0
C966 C 0.58763 0.13123 0.19985 0.0
C967 C 0.52489 0.08539 0.23423 0.0
H968 H 0.57618 0.08385 0.3307 0.0
H969 H 0.56405 0.12217 0.38034 0.0
H970 H 0.55492 0.07545 0.21955 0.0
H971 H 0.57696 0.09151 0.20827 0.0
H972 H 0.57212 0.0743 0.25052 0.0
H973 H 0.55449 0.13645 0.32862 0.0
H974 H 0.56297 0.13913 0.26817 0.0
H975 H 0.54107 0.12292 0.2801 0.0
H976 H 0.57485 0.12781 0.10976 0.0
H977 H 0.52183 0.0898 0.13924 0.0
H978 H 0.59355 0.12324 0.20917 0.0
H979 H 0.58806 0.13853 0.23273 0.0
H980 H 0.59562 0.14061 0.17136 0.0
H981 H 0.52767 0.07508 0.24546 0.0
H982 H 0.51187 0.07918 0.21713 0.0
H983 H 0.52458 0.09218 0.26742 0.0
C984 C 0.78946 0.557 0.80344 0.0
C985 C 0.80618 0.56943 0.78881 0.0
C986 C 0.78437 0.55578 0.85185 0.0
C987 C 0.79615 0.56759 0.88604 0.0
C988 C 0.81301 0.5803 0.87127 0.0
C989 C 0.8179 0.58092 0.82285 0.0
C990 C 0.76643 0.54182 0.86645 0.0
C991 C 0.8258 0.59336 0.90649 0.0
C992 C 0.77791 0.57553 0.00071 0.0
C993 C 0.78182 0.56641 0.03497 0.0
C994 C 0.78248 0.576 0.95207 0.0
C995 C 0.79079 0.56679 0.93719 0.0
C996 C 0.79427 0.55711 0.97132 0.0
C997 C 0.78993 0.55721 0.01996 0.0
C998 C 0.77888 0.58676 0.91689 0.0
C999 C 0.80276 0.5468 0.95656 0.0
H1000 H 0.78042 0.54803 0.77714 0.0
H1001 H 0.8308 0.59061 0.81145 0.0
H1002 H 0.7673 0.53374 0.89557 0.0
H1003 H 0.75903 0.54776 0.88106 0.0
H1004 H 0.75906 0.53327 0.83577 0.0
H1005 H 0.83829 0.60259 0.88901 0.0
H1006 H 0.82024 0.60082 0.92312 0.0
H1007 H 0.82843 0.58662 0.9361 0.0
H1008 H 0.77181 0.58283 0.0122 0.0
H1009 H 0.7929 0.55007 0.0463 0.0
H1010 H 0.77069 0.57854 0.8868 0.0
H1011 H 0.79122 0.59694 0.90092 0.0
H1012 H 0.77224 0.59309 0.93423 0.0
H1013 H 0.79533 0.53779 0.92682 0.0
H1014 H 0.80369 0.53919 0.98699 0.0
H1015 H 0.816 0.55565 0.94278 0.0
C1016 C 0.42556 0.23691 0.82041 0.0
C1017 C 0.43596 0.23641 0.78336 0.0
C1018 C 0.42739 0.23267 0.86794 0.0
C1019 C 0.44021 0.22822 0.87873 0.0
C1020 C 0.45103 0.22809 0.84158 0.0
C1021 C 0.44862 0.23197 0.79412 0.0
C1022 C 0.41538 0.23263 0.90644 0.0
C1023 C 0.4651 0.22382 0.85195 0.0
C1024 C 0.45126 0.2314 0.01184 0.0
C1025 C 0.44103 0.21412 0.02658 0.0
C1026 C 0.45194 0.23607 0.96317 0.0
C1027 C 0.44182 0.2232 0.92876 0.0
C1028 C 0.43209 0.20564 0.94308 0.0
C1029 C 0.43196 0.20129 0.99176 0.0
C1030 C 0.46286 0.25486 0.94898 0.0
C1031 C 0.42095 0.19158 0.90757 0.0
H1032 H 0.41572 0.24026 0.81206 0.0
H1033 H 0.45677 0.23172 0.76548 0.0
H1034 H 0.408 0.21956 0.92288 0.0
H1035 H 0.42299 0.24181 0.93566 0.0
H1036 H 0.40602 0.23629 0.89199 0.0
H1037 H 0.47303 0.22524 0.81951 0.0
H1038 H 0.47376 0.2324 0.88083 0.0
H1039 H 0.45927 0.21032 0.86526 0.0
H1040 H 0.45842 0.24135 0.03854 0.0
H1041 H 0.42395 0.18792 0.00289 0.0
H1042 H 0.45433 0.26014 0.93935 0.0
H1043 H 0.47079 0.25616 0.9167 0.0
H1044 H 0.47162 0.26286 0.97859 0.0
H1045 H 0.41034 0.19364 0.8946 0.0
H1046 H 0.41512 0.17844 0.92376 0.0
H1047 H 0.42866 0.19209 0.87558 0.0
C1048 C 0.76417 0.18862 0.82884 0.0
C1049 C 0.7653 0.1995 0.79091 0.0
C1050 C 0.7689 0.19505 0.87594 0.0
C1051 C 0.77458 0.21272 0.88532 0.0
C1052 C 0.77557 0.22372 0.84719 0.0
C1053 C 0.77107 0.21701 0.8003 0.0
C1054 C 0.76793 0.18298 0.91561 0.0
C1055 C 0.78127 0.24254 0.85599 0.0
C1056 C 0.771 0.22253 0.01651 0.0
C1057 C 0.78798 0.22871 0.03287 0.0
C1058 C 0.76663 0.21812 0.9679 0.0
C1059 C 0.77949 0.21959 0.93518 0.0
C1060 C 0.79681 0.22654 0.95101 0.0
C1061 C 0.80089 0.2312 -0.00037 0.0
C1062 C 0.74811 0.21117 0.95205 0.0
C1063 C 0.81084 0.22813 0.9173 0.0
H1064 H 0.7598 0.1751 0.82161 0.0
H1065 H 0.77186 0.22545 0.77102 0.0
H1066 H 0.78082 0.1881 0.93281 0.0
H1067 H 0.7588 0.18218 0.94403 0.0
H1068 H 0.7636 0.1697 0.90211 0.0
H1069 H 0.78102 0.24928 0.82253 0.0
H1070 H 0.7727 0.24358 0.88318 0.0
H1071 H 0.7946 0.24936 0.87087 0.0
H1072 H 0.761 0.22071 0.042 0.0
H1073 H 0.81401 0.23585 0.01211 0.0
H1074 H 0.74218 0.19722 0.9431 0.0
H1075 H 0.74763 0.21793 0.91898 0.0
H1076 H 0.74015 0.21264 0.98049 0.0
H1077 H 0.80803 0.21501 0.90621 0.0
H1078 H 0.82387 0.23495 0.93431 0.0
H1079 H 0.81113 0.23518 0.88404 0.0
C1080 C 0.44613 0.21326 0.51167 0.0
C1081 C 0.43682 0.22118 0.52747 0.0
C1082 C 0.44603 0.20896 0.46292 0.0
C1083 C 0.4361 0.21236 0.42944 0.0
C1084 C 0.42704 0.22075 0.44492 0.0
C1085 C 0.42765 0.22522 0.49369 0.0
C1086 C 0.45617 0.20037 0.4475 0.0
C1087 C 0.41611 0.22436 0.41037 0.0
C1088 C 0.44428 0.21195 0.29517 0.0
C1089 C 0.43157 0.1951 0.28243 0.0
C1090 C 0.44605 0.21771 0.34304 0.0
C1091 C 0.43457 0.20644 0.37865 0.0
C1092 C 0.42154 0.18948 0.36579 0.0
C1093 C 0.42032 0.18394 0.31784 0.0
C1094 C 0.4603 0.23576 0.3556 0.0
C1095 C 0.40884 0.17722 0.40263 0.0
H1096 H 0.45334 0.21022 0.53756 0.0
H1097 H 0.42031 0.23122 0.50569 0.0
H1098 H 0.44713 0.18695 0.43538 0.0
H1099 H 0.46466 0.20741 0.41646 0.0
H1100 H 0.4643 0.19988 0.47715 0.0
H1101 H 0.41042 0.2316 0.42774 0.0
H1102 H 0.42398 0.23193 0.379 0.0
H1103 H 0.40542 0.21195 0.39621 0.0
H1104 H 0.45306 0.22056 0.26782 0.0
H1105 H 0.41041 0.17094 0.30794 0.0
H1106 H 0.46882 0.23513 0.38375 0.0
H1107 H 0.45466 0.24336 0.37077 0.0
H1108 H 0.46835 0.24278 0.3238 0.0
H1109 H 0.41588 0.17475 0.43172 0.0
H1110 H 0.39922 0.16462 0.38649 0.0
H1111 H 0.4018 0.18316 0.41968 0.0
C1112 C 0.78269 0.23174 0.51802 0.0
C1113 C 0.77582 0.21463 0.53403 0.0
C1114 C 0.78673 0.23601 0.4692 0.0
C1115 C 0.7842 0.22292 0.43589 0.0
C1116 C 0.77665 0.20552 0.4515 0.0
C1117 C 0.77237 0.20155 0.50035 0.0
C1118 C 0.79435 0.25465 0.45364 0.0
C1119 C 0.77398 0.19123 0.41719 0.0
C1120 C 0.78599 0.23182 0.30134 0.0
C1121 C 0.80328 0.23698 0.29069 0.0
C1122 C 0.77958 0.2273 0.34856 0.0
C1123 C 0.79066 0.22762 0.38561 0.0
C1124 C 0.80806 0.23256 0.37482 0.0
C1125 C 0.81421 0.23736 0.32753 0.0
C1126 C 0.76106 0.22241 0.35891 0.0
C1127 C 0.82018 0.23275 0.41324 0.0
H1128 H 0.78523 0.24187 0.54386 0.0
H1129 H 0.76717 0.18831 0.51256 0.0
H1130 H 0.80811 0.25995 0.44328 0.0
H1131 H 0.78742 0.25554 0.42149 0.0
H1132 H 0.79374 0.26289 0.48274 0.0
H1133 H 0.76679 0.17823 0.4342 0.0
H1134 H 0.76679 0.19136 0.38469 0.0
H1135 H 0.78676 0.19338 0.40487 0.0
H1136 H 0.77753 0.2316 0.27289 0.0
H1137 H 0.82755 0.24123 0.31928 0.0
H1138 H 0.76074 0.2313 0.38638 0.0
H1139 H 0.75389 0.20913 0.37409 0.0
H1140 H 0.75417 0.22292 0.32608 0.0
H1141 H 0.82183 0.24209 0.44205 0.0
H1142 H 0.83316 0.23638 0.39856 0.0
H1143 H 0.81458 0.21979 0.43028 0.0
C1144 C 0.79051 0.5787 0.50921 0.0
C1145 C 0.78487 0.56337 0.53523 0.0
C1146 C 0.78585 0.57829 0.46077 0.0
C1147 C 0.77551 0.56212 0.4378 0.0
C1148 C 0.76996 0.54655 0.46397 0.0
C1149 C 0.77461 0.54737 0.5128 0.0
C1150 C 0.79184 0.59517 0.43436 0.0
C1151 C 0.75907 0.5291 0.44047 0.0
C1152 C 0.75173 0.56394 0.32644 0.0
C1153 C 0.76268 0.56445 0.28942 0.0
C1154 C 0.75534 0.56238 0.37488 0.0
C1155 C 0.77045 0.56169 0.3865 0.0
C1156 C 0.78139 0.56192 0.34914 0.0
C1157 C 0.77728 0.56313 0.30094 0.0
C1158 C 0.74322 0.56191 0.41367 0.0
C1159 C 0.79775 0.56148 0.36017 0.0
H1160 H 0.79835 0.59103 0.52715 0.0
H1161 H 0.7703 0.53557 0.53339 0.0
H1162 H 0.79946 0.59578 0.40202 0.0
H1163 H 0.78047 0.59598 0.42162 0.0
H1164 H 0.79993 0.60662 0.45743 0.0
H1165 H 0.75612 0.51824 0.46554 0.0
H1166 H 0.7467 0.52781 0.42755 0.0
H1167 H 0.76589 0.52794 0.40846 0.0
H1168 H 0.74032 0.56476 0.31755 0.0
H1169 H 0.78577 0.56353 0.27239 0.0
H1170 H 0.74994 0.57373 0.43626 0.0
H1171 H 0.73936 0.55062 0.43777 0.0
H1172 H 0.73133 0.56114 0.39842 0.0
H1173 H 0.80689 0.57332 0.38034 0.0
H1174 H 0.80431 0.56071 0.32696 0.0
H1175 H 0.79479 0.55022 0.38353 0.0
C1176 C 0.56576 0.10017 0.65164 0.0
C1177 C 0.56117 0.1088 0.61753 0.0
C1178 C 0.56162 0.0999 0.70056 0.0
C1179 C 0.55298 0.10875 0.71576 0.0
C1180 C 0.54935 0.11844 0.68204 0.0
C1181 C 0.55335 0.11822 0.6332 0.0
C1182 C 0.56554 0.08928 0.73538 0.0
C1183 C 0.54051 0.12837 0.69714 0.0
C1184 C 0.52304 0.09141 0.82388 0.0
C1185 C 0.53348 0.10245 0.86067 0.0
C1186 C 0.52936 0.0932 0.77667 0.0
C1187 C 0.54637 0.10662 0.76592 0.0
C1188 C 0.55693 0.1179 0.80292 0.0
C1189 C 0.55041 0.11554 0.8501 0.0
C1190 C 0.51783 0.08069 0.73833 0.0
C1191 C 0.57499 0.13257 0.79254 0.0
H1192 H 0.57176 0.09281 0.63979 0.0
H1193 H 0.54994 0.12507 0.60707 0.0
H1194 H 0.57233 0.09702 0.76774 0.0
H1195 H 0.55322 0.078 0.74786 0.0
H1196 H 0.57363 0.08442 0.71873 0.0
H1197 H 0.54049 0.13686 0.66784 0.0
H1198 H 0.52689 0.11915 0.70731 0.0
H1199 H 0.547 0.13646 0.7293 0.0
H1200 H 0.50998 0.08121 0.83214 0.0
H1201 H 0.55846 0.12416 0.87855 0.0
H1202 H 0.52433 0.07415 0.72156 0.0
H1203 H 0.51546 0.08783 0.70931 0.0
H1204 H 0.50513 0.07065 0.75299 0.0
H1205 H 0.58305 0.12741 0.7776 0.0
H1206 H 0.58146 0.1403 0.82529 0.0
H1207 H 0.57448 0.14129 0.76485 0.0
C1208 C 0.90688 0.46552 0.64558 0.0
C1209 C 0.89625 0.45269 0.61242 0.0
C1210 C 0.90763 0.46138 0.69404 0.0
C1211 C 0.89714 0.44408 0.70993 0.0
C1212 C 0.88575 0.43125 0.67712 0.0
C1213 C 0.88564 0.43565 0.62853 0.0
C1214 C 0.92021 0.47536 0.72767 0.0
C1215 C 0.87401 0.41277 0.69307 0.0
C1216 C 0.91188 0.42915 0.8193 0.0
C1217 C 0.90212 0.43084 0.85627 0.0
C1218 C 0.91042 0.43347 0.77149 0.0
C1219 C 0.89867 0.43931 0.76038 0.0
C1220 C 0.88862 0.44082 0.79752 0.0
C1221 C 0.89059 0.43673 0.84514 0.0
C1222 C 0.92158 0.43198 0.73297 0.0
C1223 C 0.87575 0.4467 0.78693 0.0
H1224 H 0.91527 0.47866 0.63312 0.0
H1225 H 0.87737 0.42573 0.60297 0.0
H1226 H 0.91334 0.4762 0.75999 0.0
H1227 H 0.93001 0.47206 0.7404 0.0
H1228 H 0.92704 0.48827 0.71003 0.0
H1229 H 0.86486 0.40474 0.6642 0.0
H1230 H 0.88191 0.40686 0.70355 0.0
H1231 H 0.86645 0.41243 0.72528 0.0
H1232 H 0.92085 0.42466 0.82784 0.0
H1233 H 0.88294 0.43796 0.87362 0.0
H1234 H 0.92967 0.44474 0.71536 0.0
H1235 H 0.91329 0.42279 0.70458 0.0
H1236 H 0.93022 0.42746 0.74769 0.0
H1237 H 0.88254 0.46001 0.77191 0.0
H1238 H 0.86849 0.44661 0.81964 0.0
H1239 H 0.86633 0.43816 0.75928 0.0
C1240 C 0.5297 0.43193 0.67193 0.0
C1241 C 0.54216 0.43326 0.63866 0.0
C1242 C 0.53389 0.43572 0.72089 0.0
C1243 C 0.5508 0.44058 0.73691 0.0
C1244 C 0.56292 0.44045 0.7042 0.0
C1245 C 0.55852 0.43699 0.65528 0.0
C1246 C 0.52066 0.43589 0.75457 0.0
C1247 C 0.58093 0.4451 0.72019 0.0
C1248 C 0.56954 0.47287 0.83951 0.0
C1249 C 0.56746 0.46214 0.87883 0.0
C1250 C 0.56405 0.46594 0.79324 0.0
C1251 C 0.55647 0.44786 0.78607 0.0
C1252 C 0.55443 0.43696 0.82561 0.0
C1253 C 0.55986 0.44423 0.87168 0.0
C1254 C 0.56631 0.478 0.75201 0.0
C1255 C 0.54661 0.41766 0.81915 0.0
H1256 H 0.51706 0.42912 0.65922 0.0
H1257 H 0.56812 0.43784 0.6297 0.0
H1258 H 0.51987 0.429 0.78863 0.0
H1259 H 0.52468 0.44947 0.76411 0.0
H1260 H 0.50756 0.42983 0.73803 0.0
H1261 H 0.58781 0.44185 0.69233 0.0
H1262 H 0.5886 0.45921 0.72752 0.0
H1263 H 0.58042 0.43826 0.75414 0.0
H1264 H 0.57535 0.48671 0.84492 0.0
H1265 H 0.55828 0.43589 0.90205 0.0
H1266 H 0.55359 0.47398 0.73493 0.0
H1267 H 0.57479 0.47726 0.72393 0.0
H1268 H 0.5721 0.49168 0.76388 0.0
H1269 H 0.53326 0.41197 0.80472 0.0
H1270 H 0.54615 0.41101 0.8535 0.0
H1271 H 0.55425 0.415 0.79242 0.0
C1272 C 0.55615 0.78718 0.69436 0.0
C1273 C 0.56859 0.80426 0.70602 0.0
C1274 C 0.55427 0.78112 0.64677 0.0
C1275 C 0.56535 0.79233 0.61041 0.0
C1276 C 0.57813 0.8095 0.62224 0.0
C1277 C 0.57948 0.81532 0.66988 0.0
C1278 C 0.5403 0.76284 0.63528 0.0
C1279 C 0.5904 0.82173 0.58457 0.0
C1280 C 0.57258 0.77404 0.49497 0.0
C1281 C 0.56313 0.77784 0.46156 0.0
C1282 C 0.57308 0.7783 0.54388 0.0
C1283 C 0.56362 0.78622 0.55981 0.0
C1284 C 0.55334 0.78927 0.52672 0.0
C1285 C 0.55337 0.78521 0.47784 0.0
C1286 C 0.58439 0.77508 0.578 0.0
C1287 C 0.54277 0.79734 0.54264 0.0
H1288 H 0.54766 0.77864 0.72228 0.0
H1289 H 0.58917 0.8285 0.67894 0.0
H1290 H 0.53135 0.76303 0.60776 0.0
H1291 H 0.54615 0.75549 0.61969 0.0
H1292 H 0.53266 0.75583 0.66766 0.0
H1293 H 0.59995 0.8345 0.60002 0.0
H1294 H 0.59754 0.81596 0.56719 0.0
H1295 H 0.58299 0.82386 0.55585 0.0
H1296 H 0.58025 0.76845 0.48256 0.0
H1297 H 0.54592 0.78803 0.45221 0.0
H1298 H 0.57682 0.76763 0.60991 0.0
H1299 H 0.59507 0.78765 0.59137 0.0
H1300 H 0.59012 0.7679 0.5605 0.0
H1301 H 0.53465 0.79028 0.57424 0.0
H1302 H 0.53423 0.79733 0.51344 0.0
H1303 H 0.55155 0.81091 0.55405 0.0
C1304 C 0.23386 0.80236 0.49085 0.0
C1305 C 0.23118 0.78931 0.45792 0.0
C1306 C 0.22961 0.79852 0.53977 0.0
C1307 C 0.22282 0.78129 0.55615 0.0
C1308 C 0.22131 0.76833 0.52376 0.0
C1309 C 0.22537 0.77247 0.47492 0.0
C1310 C 0.23129 0.81266 0.57316 0.0
C1311 C 0.2145 0.74989 0.54013 0.0
C1312 C 0.21957 0.77245 0.69093 0.0
C1313 C 0.20197 0.76651 0.69946 0.0
C1314 C 0.22659 0.77731 0.64442 0.0
C1315 C 0.21579 0.77645 0.60585 0.0
C1316 C 0.19807 0.77071 0.61446 0.0
C1317 C 0.19133 0.76567 0.66115 0.0
C1318 C 0.24548 0.78312 0.63642 0.0
C1319 C 0.18619 0.76985 0.57432 0.0
H1320 H 0.23829 0.8154 0.47794 0.0
H1321 H 0.22345 0.76236 0.44971 0.0
H1322 H 0.21819 0.81011 0.58344 0.0
H1323 H 0.23808 0.81282 0.60687 0.0
H1324 H 0.23843 0.82567 0.55612 0.0
H1325 H 0.21612 0.74192 0.51205 0.0
H1326 H 0.22124 0.74957 0.57345 0.0
H1327 H 0.20052 0.74387 0.54879 0.0
H1328 H 0.22781 0.77305 0.7205 0.0
H1329 H 0.17775 0.76118 0.6677 0.0
H1330 H 0.25226 0.79635 0.62084 0.0
H1331 H 0.24669 0.77442 0.61004 0.0
H1332 H 0.25214 0.78315 0.67033 0.0
H1333 H 0.19147 0.78274 0.55704 0.0
H1334 H 0.17288 0.76562 0.58735 0.0
H1335 H 0.18542 0.76067 0.54608 0.0
C1336 C 0.23137 0.45324 0.47464 0.0
C1337 C 0.21436 0.44288 0.45786 0.0
C1338 C 0.23551 0.45288 0.52329 0.0
C1339 C 0.22239 0.44165 0.55564 0.0
C1340 C 0.20506 0.43176 0.53943 0.0
C1341 C 0.20122 0.43262 0.49077 0.0
C1342 C 0.25407 0.46394 0.53957 0.0
C1343 C 0.19075 0.41951 0.57279 0.0
C1344 C 0.23655 0.42503 0.66233 0.0
C1345 C 0.23569 0.43496 0.70017 0.0
C1346 C 0.23209 0.42698 0.61513 0.0
C1347 C 0.22697 0.4394 0.60559 0.0
C1348 C 0.22624 0.44957 0.64365 0.0
C1349 C 0.23044 0.4471 0.69064 0.0
C1350 C 0.23277 0.41571 0.5755 0.0
C1351 C 0.22115 0.46313 0.63468 0.0
H1352 H 0.24155 0.4613 0.44944 0.0
H1353 H 0.18807 0.42449 0.47803 0.0
H1354 H 0.25471 0.47125 0.57265 0.0
H1355 H 0.25955 0.45554 0.54868 0.0
H1356 H 0.26231 0.47329 0.51133 0.0
H1357 H 0.17779 0.41368 0.55546 0.0
H1358 H 0.19313 0.40893 0.58394 0.0
H1359 H 0.19059 0.42635 0.60604 0.0
H1360 H 0.24052 0.41559 0.6697 0.0
H1361 H 0.22987 0.45488 0.71985 0.0
H1362 H 0.24213 0.42391 0.54732 0.0
H1363 H 0.21989 0.40831 0.55797 0.0
H1364 H 0.23664 0.40643 0.58914 0.0
H1365 H 0.23002 0.47267 0.6078 0.0
H1366 H 0.22149 0.47015 0.66814 0.0
H1367 H 0.20789 0.45701 0.61933 0.0
C1368 C 0.47913 0.91086 0.16119 0.0
C1369 C 0.46834 0.90083 0.12343 0.0
C1370 C 0.47263 0.90927 0.20814 0.0
C1371 C 0.45499 0.89715 0.21755 0.0
C1372 C 0.44405 0.88696 0.17953 0.0
C1373 C 0.45084 0.88904 0.13277 0.0
C1374 C 0.48463 0.92056 0.2477 0.0
C1375 C 0.42527 0.87373 0.18837 0.0
C1376 C 0.44568 0.8837 0.3487 0.0
C1377 C 0.43949 0.89444 0.3655 0.0
C1378 C 0.4499 0.88377 0.29994 0.0
C1379 C 0.44817 0.89506 0.26746 0.0
C1380 C 0.44111 0.90528 0.28367 0.0
C1381 C 0.4367 0.90472 0.33249 0.0
C1382 C 0.457 0.87238 0.28371 0.0
C1383 C 0.4392 0.91758 0.25015 0.0
H1384 H 0.49264 0.92006 0.15398 0.0
H1385 H 0.44247 0.88121 0.10361 0.0
H1386 H 0.47928 0.92811 0.26497 0.0
H1387 H 0.48567 0.91235 0.27609 0.0
H1388 H 0.49783 0.92972 0.23408 0.0
H1389 H 0.41848 0.86687 0.15481 0.0
H1390 H 0.42434 0.86401 0.21504 0.0
H1391 H 0.4184 0.88009 0.20394 0.0
H1392 H 0.4477 0.87561 0.37398 0.0
H1393 H 0.432 0.91312 0.34525 0.0
H1394 H 0.47091 0.88054 0.27446 0.0
H1395 H 0.45019 0.86509 0.25073 0.0
H1396 H 0.45574 0.86299 0.31204 0.0
H1397 H 0.45223 0.92813 0.23929 0.0
H1398 H 0.4321 0.92346 0.26729 0.0
H1399 H 0.43227 0.9108 0.21676 0.0
C1400 C 0.11544 0.5634 0.12766 0.0
C1401 C 0.1036 0.56915 0.11961 0.0
C1402 C 0.11773 0.55848 0.17395 0.0
C1403 C 0.10775 0.55908 0.21275 0.0
C1404 C 0.09556 0.5646 0.20459 0.0
C1405 C 0.09373 0.56969 0.15813 0.0
C1406 C 0.131 0.5529 0.18149 0.0
C1407 C 0.08451 0.5652 0.24501 0.0
C1408 C 0.10009 0.5334 0.32795 0.0
C1409 C 0.11024 0.54659 0.36083 0.0
C1410 C 0.09982 0.5371 0.27885 0.0
C1411 C 0.11015 0.55433 0.26232 0.0
C1412 C 0.12147 0.56739 0.29464 0.0
C1413 C 0.12128 0.5634 0.34364 0.0
C1414 C 0.08752 0.52283 0.2455 0.0
C1415 C 0.13299 0.58584 0.27812 0.0
H1416 H 0.12313 0.56302 0.0979 0.0
H1417 H 0.0845 0.57403 0.15193 0.0
H1418 H 0.141 0.56175 0.20745 0.0
H1419 H 0.12477 0.53972 0.19737 0.0
H1420 H 0.1375 0.55286 0.14733 0.0
H1421 H 0.07522 0.56921 0.23227 0.0
H1422 H 0.0771 0.55227 0.26225 0.0
H1423 H 0.09288 0.57443 0.2732 0.0
H1424 H 0.0915 0.52038 0.34099 0.0
H1425 H 0.12932 0.5736 0.3688 0.0
H1426 H 0.09416 0.52291 0.21156 0.0
H1427 H 0.0767 0.525 0.23566 0.0
H1428 H 0.08201 0.50983 0.26244 0.0
H1429 H 0.13998 0.5862 0.24462 0.0
H1430 H 0.14264 0.59386 0.30604 0.0
H1431 H 0.12493 0.59178 0.26975 0.0
C1432 C 0.43192 0.5177 0.15089 0.0
C1433 C 0.43238 0.52898 0.11502 0.0
C1434 C 0.4362 0.52327 0.19885 0.0
C1435 C 0.44068 0.54042 0.21127 0.0
C1436 C 0.44108 0.55185 0.17515 0.0
C1437 C 0.43711 0.54603 0.1273 0.0
C1438 C 0.43597 0.51083 0.23621 0.0
C1439 C 0.44549 0.57012 0.18717 0.0
C1440 C 0.4354 0.54794 0.34348 0.0
C1441 C 0.45252 0.55557 0.3602 0.0
C1442 C 0.43144 0.54347 0.29471 0.0
C1443 C 0.44486 0.54635 0.26215 0.0
C1444 C 0.4622 0.55435 0.2786 0.0
C1445 C 0.46584 0.55903 0.32735 0.0
C1446 C 0.41284 0.53532 0.27823 0.0
C1447 C 0.47682 0.55737 0.24513 0.0
H1448 H 0.42837 0.50454 0.14138 0.0
H1449 H 0.43738 0.55476 0.09962 0.0
H1450 H 0.44881 0.51645 0.25404 0.0
H1451 H 0.42633 0.50863 0.26465 0.0
H1452 H 0.43273 0.49812 0.22036 0.0
H1453 H 0.44504 0.5773 0.15496 0.0
H1454 H 0.43627 0.56987 0.21451 0.0
H1455 H 0.45864 0.57733 0.20318 0.0
H1456 H 0.42507 0.54534 0.36864 0.0
H1457 H 0.47908 0.56479 0.34009 0.0
H1458 H 0.40817 0.52183 0.26625 0.0
H1459 H 0.41185 0.54251 0.24685 0.0
H1460 H 0.40413 0.53509 0.30725 0.0
H1461 H 0.47472 0.54478 0.23141 0.0
H1462 H 0.48965 0.56424 0.26324 0.0
H1463 H 0.47709 0.56508 0.21339 0.0
C1464 C 0.12093 0.55823 0.84276 0.0
C1465 C 0.11052 0.56463 0.86072 0.0
C1466 C 0.12052 0.55413 0.79377 0.0
C1467 C 0.10922 0.55625 0.76224 0.0
C1468 C 0.09948 0.5637 0.77952 0.0
C1469 C 0.10036 0.56794 0.82857 0.0
C1470 C 0.13141 0.54659 0.7764 0.0
C1471 C 0.08722 0.56606 0.74702 0.0
C1472 C 0.11371 0.55238 0.62727 0.0
C1473 C 0.1015 0.53489 0.61927 0.0
C1474 C 0.11636 0.55959 0.67363 0.0
C1475 C 0.10636 0.5491 0.71258 0.0
C1476 C 0.09375 0.53153 0.70446 0.0
C1477 C 0.09157 0.5246 0.65789 0.0
C1478 C 0.13006 0.5783 0.68111 0.0
C1479 C 0.08266 0.52001 0.74504 0.0
H1480 H 0.12897 0.55583 0.86734 0.0
H1481 H 0.09224 0.57285 0.84219 0.0
H1482 H 0.12289 0.53267 0.76793 0.0
H1483 H 0.13837 0.55312 0.74277 0.0
H1484 H 0.14104 0.5478 0.80384 0.0
H1485 H 0.08211 0.57379 0.76454 0.0
H1486 H 0.09375 0.57254 0.7129 0.0
H1487 H 0.07613 0.55319 0.73741 0.0
H1488 H 0.12145 0.56036 0.59744 0.0
H1489 H 0.08206 0.51111 0.65172 0.0
H1490 H 0.14008 0.57909 0.7064 0.0
H1491 H 0.12425 0.58552 0.69776 0.0
H1492 H 0.13646 0.5848 0.64681 0.0
H1493 H 0.09097 0.51877 0.77272 0.0
H1494 H 0.07299 0.50684 0.73231 0.0
H1495 H 0.07569 0.52588 0.76292 0.0
C1496 C 0.43806 0.53508 0.82375 0.0
C1497 C 0.44125 0.5476 0.85902 0.0
C1498 C 0.44196 0.53972 0.77506 0.0
C1499 C 0.44883 0.55723 0.76123 0.0
C1500 C 0.45096 0.56972 0.7962 0.0
C1501 C 0.44736 0.5648 0.84483 0.0
C1502 C 0.43977 0.52607 0.73898 0.0
C1503 C 0.45779 0.58842 0.78262 0.0
C1504 C 0.47884 0.57311 0.65292 0.0
C1505 C 0.46766 0.57218 0.61606 0.0
C1506 C 0.47283 0.56826 0.70028 0.0
C1507 C 0.4553 0.56272 0.71122 0.0
C1508 C 0.44403 0.56213 0.6743 0.0
C1509 C 0.45031 0.56667 0.62693 0.0
C1510 C 0.48518 0.56877 0.73846 0.0
C1511 C 0.42538 0.55668 0.68484 0.0
H1512 H 0.43343 0.52178 0.83452 0.0
H1513 H 0.44968 0.57449 0.87193 0.0
H1514 H 0.4323 0.52625 0.7072 0.0
H1515 H 0.45268 0.5289 0.7258 0.0
H1516 H 0.43306 0.51284 0.75478 0.0
H1517 H 0.45654 0.59597 0.81267 0.0
H1518 H 0.47167 0.59449 0.77269 0.0
H1519 H 0.45077 0.58933 0.7507 0.0
H1520 H 0.49224 0.57726 0.64453 0.0
H1521 H 0.44167 0.56604 0.59846 0.0
H1522 H 0.48013 0.55569 0.75434 0.0
H1523 H 0.48624 0.57759 0.76813 0.0
H1524 H 0.49835 0.5732 0.72387 0.0
H1525 H 0.41838 0.54307 0.69765 0.0
H1526 H 0.41856 0.55776 0.65262 0.0
H1527 H 0.42471 0.5648 0.71415 0.0
C1528 C 0.43672 0.88397 0.84994 0.0
C1529 C 0.45384 0.894 0.86617 0.0
C1530 C 0.43257 0.88386 0.80108 0.0
C1531 C 0.4458 0.89431 0.76795 0.0
C1532 C 0.46322 0.90376 0.78367 0.0
C1533 C 0.46706 0.90336 0.83258 0.0
C1534 C 0.41389 0.87324 0.78539 0.0
C1535 C 0.47767 0.9152 0.74952 0.0
C1536 C 0.43686 0.88835 0.63326 0.0
C1537 C 0.43224 0.90096 0.62369 0.0
C1538 C 0.44118 0.88591 0.68017 0.0
C1539 C 0.44123 0.89658 0.718 0.0
C1540 C 0.43681 0.90949 0.70831 0.0
C1541 C 0.4322 0.91141 0.6613 0.0
C1542 C 0.4455 0.8718 0.68935 0.0
C1543 C 0.437 0.92132 0.74761 0.0
H1544 H 0.42648 0.87657 0.87569 0.0
H1545 H 0.48031 0.91121 0.84491 0.0
H1546 H 0.40883 0.88198 0.77607 0.0
H1547 H 0.41283 0.86563 0.75259 0.0
H1548 H 0.40556 0.86421 0.81409 0.0
H1549 H 0.49065 0.92043 0.76636 0.0
H1550 H 0.47718 0.90795 0.71649 0.0
H1551 H 0.47606 0.92624 0.73811 0.0
H1552 H 0.4368 0.88019 0.60421 0.0
H1553 H 0.42872 0.92122 0.65388 0.0
H1554 H 0.43644 0.86255 0.71646 0.0
H1555 H 0.45875 0.87745 0.70452 0.0
H1556 H 0.44475 0.86454 0.65601 0.0
H1557 H 0.42756 0.91358 0.77619 0.0
H1558 H 0.43374 0.93103 0.73377 0.0
H1559 H 0.44999 0.92826 0.7647 0.0
C1560 C 0.21612 0.44963 0.18869 0.0
C1561 C 0.1993 0.43645 0.19997 0.0
C1562 C 0.22254 0.45168 0.14145 0.0
C1563 C 0.212 0.44 0.10513 0.0
C1564 C 0.1951 0.42649 0.11662 0.0
C1565 C 0.18887 0.42501 0.16385 0.0
C1566 C 0.24047 0.46645 0.13027 0.0
C1567 C 0.18359 0.41357 0.07904 0.0
C1568 C 0.21842 0.45066 0.9718 0.0
C1569 C 0.22641 0.44135 0.95664 0.0
C1570 C 0.21452 0.45114 0.0206 0.0
C1571 C 0.21846 0.44185 0.05487 0.0
C1572 C 0.2273 0.43313 0.04018 0.0
C1573 C 0.2313 0.43311 0.99123 0.0
C1574 C 0.20545 0.46091 0.0351 0.0
C1575 C 0.23157 0.42295 0.07563 0.0
H1576 H 0.22416 0.45855 0.21663 0.0
H1577 H 0.17591 0.41474 0.17266 0.0
H1578 H 0.24863 0.46136 0.1157 0.0
H1579 H 0.23971 0.47488 0.10204 0.0
H1580 H 0.24696 0.47447 0.16257 0.0
H1581 H 0.17102 0.4035 0.09426 0.0
H1582 H 0.18097 0.42034 0.04949 0.0
H1583 H 0.19024 0.40708 0.06281 0.0
H1584 H 0.21477 0.45722 0.94532 0.0
H1585 H 0.23743 0.42584 0.97981 0.0
H1586 H 0.21196 0.4693 0.06675 0.0
H1587 H 0.19192 0.4516 0.04583 0.0
H1588 H 0.20514 0.46909 0.00529 0.0
H1589 H 0.23837 0.43099 0.10757 0.0
H1590 H 0.2398 0.4182 0.0593 0.0
H1591 H 0.2194 0.41163 0.08868 0.0
C1592 C 0.54803 0.77064 0.97875 0.0
C1593 C 0.55933 0.78762 0.96321 0.0
C1594 C 0.54737 0.76604 0.02744 0.0
C1595 C 0.55855 0.77863 0.06107 0.0
C1596 C 0.56938 0.79597 0.046 0.0
C1597 C 0.5695 0.8003 -0.00272 0.0
C1598 C 0.53531 0.74752 0.04242 0.0
C1599 C 0.58166 0.80972 0.08068 0.0
C1600 C 0.55208 0.76997 0.19582 0.0
C1601 C 0.56362 0.76398 0.20547 0.0
C1602 C 0.55003 0.77451 0.14878 0.0
C1603 C 0.56005 0.77338 0.11089 0.0
C1604 C 0.57179 0.76741 0.12057 0.0
C1605 C 0.5733 0.76261 0.16771 0.0
C1606 C 0.53714 0.78047 0.1396 0.0
C1607 C 0.58292 0.7663 0.08122 0.0
H1608 H 0.54002 0.76083 0.9526 0.0
H1609 H 0.57833 0.81342 0.98547 0.0
H1610 H 0.54298 0.74121 0.05144 0.0
H1611 H 0.52797 0.74706 0.07524 0.0
H1612 H 0.52597 0.73989 0.01344 0.0
H1613 H 0.5882 0.82283 0.06419 0.0
H1614 H 0.57465 0.80996 0.11346 0.0
H1615 H 0.59172 0.80664 0.09243 0.0
H1616 H 0.54451 0.77094 0.225 0.0
H1617 H 0.5823 0.75808 0.17517 0.0
H1618 H 0.52771 0.77221 0.11159 0.0
H1619 H 0.54391 0.79392 0.12563 0.0
H1620 H 0.5299 0.78002 0.17272 0.0
H1621 H 0.57461 0.75739 0.05238 0.0
H1622 H 0.59158 0.76164 0.09491 0.0
H1623 H 0.59101 0.77923 0.0645 0.0
C1624 C 0.23717 0.81263 0.16133 0.0
C1625 C 0.2367 0.80214 0.19955 0.0
C1626 C 0.23228 0.80588 0.11461 0.0
C1627 C 0.22711 0.7883 0.10587 0.0
C1628 C 0.22662 0.77764 0.14435 0.0
C1629 C 0.2313 0.78467 0.1909 0.0
C1630 C 0.23273 0.81759 0.07456 0.0
C1631 C 0.22142 0.75892 0.13621 0.0
C1632 C 0.2015 0.76966 0.99068 0.0
C1633 C 0.21473 0.77278 0.95785 0.0
C1634 C 0.20521 0.77396 0.03961 0.0
C1635 C 0.2225 0.78128 0.0561 0.0
C1636 C 0.23567 0.78328 0.02382 0.0
C1637 C 0.23166 0.77913 0.97496 0.0
C1638 C 0.19084 0.77175 0.0729 0.0
C1639 C 0.25419 0.79066 0.04031 0.0
H1640 H 0.24124 0.82612 0.16799 0.0
H1641 H 0.231 0.77654 0.22041 0.0
H1642 H 0.24208 0.81875 0.04636 0.0
H1643 H 0.21981 0.81193 0.05718 0.0
H1644 H 0.23649 0.83078 0.08771 0.0
H1645 H 0.22158 0.75234 0.1701 0.0
H1646 H 0.20823 0.75179 0.12043 0.0
H1647 H 0.23038 0.75809 0.10994 0.0
H1648 H 0.1884 0.7648 0.97769 0.0
H1649 H 0.2419 0.7814 0.94983 0.0
H1650 H 0.19293 0.78468 0.08326 0.0
H1651 H 0.1909 0.76506 0.10659 0.0
H1652 H 0.17788 0.76428 0.05576 0.0
H1653 H 0.25976 0.80458 0.04911 0.0
H1654 H 0.26241 0.78944 0.01225 0.0
H1655 H 0.25475 0.78403 0.07358 0.0
C1656 C 0.1962 0.2358 0.25771 0.0
C1657 C 0.18383 0.22708 0.29383 0.0
C1658 C 0.20615 0.22888 0.2392 0.0
C1659 C 0.20381 0.21306 0.25794 0.0
C1660 C 0.19201 0.20477 0.29629 0.0
C1661 C 0.18205 0.21179 0.3134 0.0
C1662 C 0.21847 0.23799 0.198 0.0
C1663 C 0.18934 0.18806 0.31791 0.0
C1664 C 0.20955 0.18121 0.1813 0.0
C1665 C 0.2252 0.18324 0.19881 0.0
C1666 C 0.20299 0.19158 0.19835 0.0
C1667 C 0.21214 0.20408 0.23451 0.0
C1668 C 0.2283 0.20665 0.2511 0.0
C1669 C 0.23472 0.19625 0.23272 0.0
C1670 C 0.18586 0.18861 0.17906 0.0
C1671 C 0.23835 0.21974 0.28993 0.0
H1672 H 0.19761 0.24764 0.24255 0.0
H1673 H 0.17266 0.20515 0.34182 0.0
H1674 H 0.23129 0.23929 0.20538 0.0
H1675 H 0.21335 0.23017 0.16462 0.0
H1676 H 0.22025 0.25107 0.19123 0.0
H1677 H 0.18104 0.18424 0.35066 0.0
H1678 H 0.18311 0.1775 0.29093 0.0
H1679 H 0.20198 0.18929 0.32763 0.0
H1680 H 0.20226 0.17132 0.15459 0.0
H1681 H 0.24684 0.19785 0.24631 0.0
H1682 H 0.18698 0.20107 0.16781 0.0
H1683 H 0.17592 0.18307 0.20792 0.0
H1684 H 0.18124 0.17961 0.14778 0.0
H1685 H 0.23961 0.23245 0.28109 0.0
H1686 H 0.2515 0.22152 0.29503 0.0
H1687 H 0.23124 0.21538 0.32463 0.0
C1688 C 0.79449 0.9691 0.28938 0.0
C1689 C 0.77696 0.95671 0.28318 0.0
C1690 C 0.80106 0.98626 0.27444 0.0
C1691 C 0.78985 0.99122 0.25255 0.0
C1692 C 0.77205 0.97887 0.24686 0.0
C1693 C 0.76579 0.96171 0.2623 0.0
C1694 C 0.82013 0.99901 0.2812 0.0
C1695 C 0.75975 0.98369 0.22355 0.0
C1696 C 0.80869 0.03994 0.24727 0.0
C1697 C 0.81729 0.04375 0.20285 0.0
C1698 C 0.79884 0.0227 0.2632 0.0
C1699 C 0.79725 0.0091 0.23321 0.0
C1700 C 0.80486 0.01293 0.18673 0.0
C1701 C 0.81506 0.03025 0.17249 0.0
C1702 C 0.79121 0.01917 0.31332 0.0
C1703 C 0.80308 0.99882 0.15308 0.0
H1704 H 0.8032 0.96538 0.30563 0.0
H1705 H 0.75221 0.9522 0.25759 0.0
H1706 H 0.82646 0.00345 0.24548 0.0
H1707 H 0.82191 0.0106 0.30101 0.0
H1708 H 0.82688 0.99333 0.30131 0.0
H1709 H 0.74614 0.97285 0.22417 0.0
H1710 H 0.76039 0.995 0.24222 0.0
H1711 H 0.76363 0.98754 0.18548 0.0
H1712 H 0.81051 0.05045 0.27071 0.0
H1713 H 0.82158 0.03327 0.13782 0.0
H1714 H 0.79855 0.01502 0.33686 0.0
H1715 H 0.77756 0.00847 0.31274 0.0
H1716 H 0.79172 0.0308 0.32962 0.0
H1717 H 0.81082 0.99316 0.16709 0.0
H1718 H 0.80763 0.00375 0.11601 0.0
H1719 H 0.78938 0.98824 0.15114 0.0
C1720 C 0.96158 0.76641 0.22036 0.0
C1721 C 0.95762 0.77563 0.18663 0.0
C1722 C 0.9786 0.77311 0.23756 0.0
C1723 C 0.99191 0.78926 0.22007 0.0
C1724 C 0.9881 0.79807 0.18391 0.0
C1725 C 0.97099 0.79122 0.16792 0.0
C1726 C 0.98213 0.76337 0.27628 0.0
C1727 C 0.00193 0.81521 0.16377 0.0
C1728 C 0.02961 0.81985 0.29877 0.0
C1729 C 0.04326 0.81822 0.27956 0.0
C1730 C 0.01268 0.80979 0.28134 0.0
C1731 C 0.00934 0.79803 0.24303 0.0
C1732 C 0.02297 0.79594 0.22437 0.0
C1733 C 0.0398 0.80598 0.2432 0.0
C1734 C 0.99847 0.81223 0.30286 0.0
C1735 C 0.01995 0.78367 0.18318 0.0
H1736 H 0.95127 0.75434 0.23487 0.0
H1737 H 0.96804 0.79829 0.14135 0.0
H1738 H 0.99375 0.76244 0.2671 0.0
H1739 H 0.98486 0.77054 0.31089 0.0
H1740 H 0.97098 0.75011 0.28174 0.0
H1741 H 0.99725 0.81946 0.13234 0.0
H1742 H 0.00625 0.8253 0.19217 0.0
H1743 H 0.01341 0.81434 0.15247 0.0
H1744 H 0.03219 0.82914 0.32735 0.0
H1745 H 0.05034 0.8047 0.22828 0.0
H1746 H 0.98727 0.79953 0.31323 0.0
H1747 H 0.99382 0.81808 0.27559 0.0
H1748 H 0.0029 0.82074 0.33518 0.0
H1749 H 0.00868 0.7707 0.19093 0.0
H1750 H 0.03144 0.78227 0.17597 0.0
H1751 H 0.01687 0.78855 0.14994 0.0
C1752 C 0.82084 0.79151 0.66741 0.0
C1753 C 0.819 0.77616 0.68675 0.0
C1754 C 0.81055 0.79827 0.68364 0.0
C1755 C 0.79833 0.78963 0.72083 0.0
C1756 C 0.79583 0.77368 0.73898 0.0
C1757 C 0.80614 0.76704 0.72139 0.0
C1758 C 0.81342 0.81514 0.66267 0.0
C1759 C 0.78301 0.76417 0.77886 0.0
C1760 C 0.79199 0.82083 0.79874 0.0
C1761 C 0.77652 0.81902 0.78045 0.0
C1762 C 0.79867 0.8106 0.78142 0.0
C1763 C 0.78983 0.79847 0.74419 0.0
C1764 C 0.77387 0.79614 0.72666 0.0
C1765 C 0.76731 0.80638 0.74533 0.0
C1766 C 0.81558 0.81331 0.80169 0.0
C1767 C 0.76416 0.78344 0.68668 0.0
H1768 H 0.83061 0.79846 0.64009 0.0
H1769 H 0.80468 0.75515 0.73636 0.0
H1770 H 0.80087 0.81402 0.65233 0.0
H1771 H 0.81946 0.8255 0.69026 0.0
H1772 H 0.82197 0.81917 0.63044 0.0
H1773 H 0.78102 0.75097 0.78463 0.0
H1774 H 0.78782 0.77157 0.81301 0.0
H1775 H 0.77033 0.76311 0.77073 0.0
H1776 H 0.79903 0.83042 0.82638 0.0
H1777 H 0.75533 0.80495 0.73114 0.0
H1778 H 0.82578 0.81902 0.77355 0.0
H1779 H 0.81428 0.80073 0.81244 0.0
H1780 H 0.81997 0.82206 0.83351 0.0
H1781 H 0.77162 0.78812 0.65257 0.0
H1782 H 0.75109 0.78178 0.68083 0.0
H1783 H 0.76277 0.77063 0.6948 0.0
C1784 C 0.23017 0.03806 0.729 0.0
C1785 C 0.22113 0.04269 0.69645 0.0
C1786 C 0.22303 0.02086 0.74509 0.0
C1787 C 0.20662 0.00804 0.72761 0.0
C1788 C 0.19785 0.01256 0.6931 0.0
C1789 C 0.20514 0.02983 0.67826 0.0
C1790 C 0.23268 0.01657 0.7823 0.0
C1791 C 0.18045 0.99925 0.67303 0.0
C1792 C 0.18995 0.95986 0.74401 0.0
C1793 C 0.1779 0.95583 0.78127 0.0
C1794 C 0.19982 0.97693 0.72681 0.0
C1795 C 0.1978 0.99025 0.74823 0.0
C1796 C 0.18619 0.9863 0.78731 0.0
C1797 C 0.17624 0.96911 0.80294 0.0
C1798 C 0.21185 0.9806 0.68456 0.0
C1799 C 0.18389 1.00015 0.81179 0.0
H1800 H 0.24254 0.04796 0.74312 0.0
H1801 H 0.19819 0.0333 0.65266 0.0
H1802 H 0.22538 0.013 0.81678 0.0
H1803 H 0.23374 0.00525 0.77054 0.0
H1804 H 0.2459 0.02762 0.78911 0.0
H1805 H 0.17609 0.00453 0.64332 0.0
H1806 H 0.18101 0.98786 0.65929 0.0
H1807 H 0.17059 0.99461 0.70213 0.0
H1808 H 0.19124 0.94958 0.7272 0.0
H1809 H 0.1671 0.96607 0.83223 0.0
H1810 H 0.22496 0.99148 0.69309 0.0
H1811 H 0.20701 0.98458 0.65295 0.0
H1812 H 0.21291 0.96913 0.67431 0.0
H1813 H 0.19666 0.01114 0.82268 0.0
H1814 H 0.17551 0.99521 0.84429 0.0
H1815 H 0.17797 0.00527 0.78621 0.0
C1816 C 0.96195 0.19292 0.74051 0.0
C1817 C 0.9579 0.1803 0.70491 0.0
C1818 C 0.979 0.20292 0.7578 0.0
C1819 C 0.99228 0.20042 0.7383 0.0
C1820 C 0.98835 0.1883 0.70059 0.0
C1821 C 0.9712 0.17828 0.68473 0.0
C1822 C 0.98265 0.21556 0.79845 0.0
C1823 C 0.00216 0.18542 0.6782 0.0
C1824 C 0.04018 0.2321 0.75956 0.0
C1825 C 0.0442 0.22314 0.79402 0.0
C1826 C 0.02317 0.22518 0.74202 0.0
C1827 C 0.00991 0.20909 0.76006 0.0
C1828 C 0.01382 0.20043 0.79646 0.0
C1829 C 0.03092 0.20748 0.81263 0.0
C1830 C 0.01955 0.23468 0.70279 0.0
C1831 C 1.00003 0.18339 0.81724 0.0
H1832 H 0.95168 0.19449 0.75619 0.0
H1833 H 0.96816 0.16868 0.65674 0.0
H1834 H 0.98599 0.21086 0.83156 0.0
H1835 H 0.99393 0.22839 0.78956 0.0
H1836 H 0.97135 0.21721 0.80645 0.0
H1837 H 0.99731 0.1768 0.64616 0.0
H1838 H 0.01344 0.19796 0.66715 0.0
H1839 H 0.00682 0.17949 0.70517 0.0
H1840 H 0.05043 0.24422 0.7451 0.0
H1841 H 0.03393 0.2006 0.83973 0.0
H1842 H 0.0083 0.23615 0.71267 0.0
H1843 H 0.01615 0.22703 0.66891 0.0
H1844 H 0.03086 0.24771 0.69566 0.0
H1845 H 0.98873 0.18445 0.82937 0.0
H1846 H 0.00487 0.17912 0.84826 0.0
H1847 H 0.99537 0.17323 0.78899 0.0
C1848 C 0.84425 0.5415 0.63565 0.0
C1849 C 0.84591 0.5564 0.61363 0.0
C1850 C 0.85392 0.53401 0.61964 0.0
C1851 C 0.86525 0.54137 0.57985 0.0
C1852 C 0.86723 0.55662 0.55796 0.0
C1853 C 0.85765 0.56409 0.57552 0.0
C1854 C 0.85167 0.51795 0.6446 0.0
C1855 C 0.87895 0.56466 0.51493 0.0
C1856 C 0.89763 0.52604 0.55915 0.0
C1857 C 0.88847 0.51229 0.52693 0.0
C1858 C 0.89046 0.53599 0.57586 0.0
C1859 C 0.87391 0.53224 0.55925 0.0
C1860 C 0.86493 0.51878 0.52535 0.0
C1861 C 0.87225 0.50889 0.50996 0.0
C1862 C 0.90031 0.55009 0.6125 0.0
C1863 C 0.84737 0.51453 0.50619 0.0
H1864 H 0.83534 0.53564 0.66555 0.0
H1865 H 0.85893 0.57561 0.55842 0.0
H1866 H 0.84555 0.50678 0.61949 0.0
H1867 H 0.86447 0.51971 0.65502 0.0
H1868 H 0.84348 0.51471 0.67744 0.0
H1869 H 0.8799 0.5771 0.50399 0.0
H1870 H 0.89213 0.567 0.52297 0.0
H1871 H 0.87392 0.55558 0.48392 0.0
H1872 H 0.91018 0.52872 0.57232 0.0
H1873 H 0.8652 0.49841 0.48458 0.0
H1874 H 0.89306 0.54665 0.64707 0.0
H1875 H 0.90152 0.56247 0.60008 0.0
H1876 H 0.91348 0.55213 0.61938 0.0
H1877 H 0.83775 0.50956 0.53591 0.0
H1878 H 0.84276 0.50463 0.47711 0.0
H1879 H 0.84784 0.52637 0.49187 0.0
C1880 C 0.46009 0.3001 0.61273 0.0
C1881 C 0.4424 0.2878 0.61035 0.0
C1882 C 0.46631 0.31724 0.59803 0.0
C1883 C 0.45456 0.32225 0.58034 0.0
C1884 C 0.43666 0.30992 0.5778 0.0
C1885 C 0.43077 0.2928 0.5929 0.0
C1886 C 0.48551 0.32997 0.60122 0.0
C1887 C 0.4238 0.31479 0.55888 0.0
C1888 C 0.47293 0.3709 0.58148 0.0
C1889 C 0.48054 0.37534 0.53572 0.0
C1890 C 0.46354 0.35346 0.59593 0.0
C1891 C 0.46137 0.34031 0.56317 0.0
C1892 C 0.46788 0.3448 0.51558 0.0
C1893 C 0.4777 0.3623 0.50274 0.0
C1894 C 0.4571 0.34924 0.64726 0.0
C1895 C 0.46541 0.33117 0.4791 0.0
H1896 H 0.46916 0.29636 0.62617 0.0
H1897 H 0.41707 0.28335 0.59112 0.0
H1898 H 0.49079 0.3348 0.56465 0.0
H1899 H 0.48785 0.34133 0.62325 0.0
H1900 H 0.49282 0.32414 0.61739 0.0
H1901 H 0.4103 0.30371 0.55952 0.0
H1902 H 0.42438 0.32548 0.58077 0.0
H1903 H 0.42715 0.31958 0.52125 0.0
H1904 H 0.47528 0.38107 0.60697 0.0
H1905 H 0.48351 0.36584 0.46716 0.0
H1906 H 0.46499 0.34484 0.66731 0.0
H1907 H 0.44347 0.33851 0.64818 0.0
H1908 H 0.45799 0.36061 0.66634 0.0
H1909 H 0.47368 0.32561 0.48895 0.0
H1910 H 0.46891 0.33656 0.442 0.0
H1911 H 0.45178 0.32043 0.47902 0.0
C1912 C 0.62953 0.10252 0.56105 0.0
C1913 C 0.62542 0.11224 0.5295 0.0
C1914 C 0.64645 0.10927 0.57906 0.0
C1915 C 0.65954 0.12601 0.56462 0.0
C1916 C 0.65556 0.13555 0.53129 0.0
C1917 C 0.63854 0.1286 0.51443 0.0
C1918 C 0.65017 0.0988 0.61491 0.0
C1919 C 0.66917 0.15335 0.51449 0.0
C1920 C 0.69765 0.155 0.64439 0.0
C1921 C 0.7112 0.15392 0.62226 0.0
C1922 C 0.68059 0.14515 0.62767 0.0
C1923 C 0.67706 0.1343 0.58697 0.0
C1924 C 0.69062 0.13274 0.56534 0.0
C1925 C 0.70755 0.14245 0.58367 0.0
C1926 C 0.66645 0.14689 0.65249 0.0
C1927 C 0.68742 0.12152 0.52144 0.0
H1928 H 0.61942 0.08986 0.57277 0.0
H1929 H 0.63549 0.13611 0.48965 0.0
H1930 H 0.6616 0.09791 0.60335 0.0
H1931 H 0.65331 0.10537 0.65052 0.0
H1932 H 0.63898 0.08549 0.61943 0.0
H1933 H 0.66431 0.15845 0.48555 0.0
H1934 H 0.67347 0.16251 0.54532 0.0
H1935 H 0.68071 0.15304 0.50081 0.0
H1936 H 0.70042 0.1637 0.67469 0.0
H1937 H 0.71805 0.14164 0.5665 0.0
H1938 H 0.65529 0.13391 0.66087 0.0
H1939 H 0.6617 0.15348 0.62808 0.0
H1940 H 0.671 0.15444 0.68653 0.0
H1941 H 0.67627 0.10834 0.52765 0.0
H1942 H 0.69892 0.12044 0.51168 0.0
H1943 H 0.68406 0.12711 0.4903 0.0
C1944 C 0.45565 0.15185 0.13653 0.0
C1945 C 0.44134 0.15108 0.11325 0.0
C1946 C 0.46277 0.14185 0.12059 0.0
C1947 C 0.45562 0.13108 0.07966 0.0
C1948 C 0.44072 0.12971 0.0571 0.0
C1949 C 0.43362 0.13964 0.07452 0.0
C1950 C 0.47845 0.14345 0.14628 0.0
C1951 C 0.43285 0.1185 0.01309 0.0
C1952 C 0.48933 0.12615 0.00984 0.0
C1953 C 0.48636 0.10995 0.02555 0.0
C1954 C 0.47879 0.13272 0.02526 0.0
C1955 C 0.46504 0.12295 0.05775 0.0
C1956 C 0.46157 0.1063 0.07248 0.0
C1957 C 0.47225 0.09993 0.05596 0.0
C1958 C 0.48282 0.15044 0.00821 0.0
C1959 C 0.44709 0.09556 0.10729 0.0
H1960 H 0.46148 0.1605 0.16698 0.0
H1961 H 0.42253 0.13903 0.05652 0.0
H1962 H 0.47653 0.13044 0.15464 0.0
H1963 H 0.48996 0.15008 0.12244 0.0
H1964 H 0.48127 0.15091 0.18042 0.0
H1965 H 0.42017 0.11722 0.00333 0.0
H1966 H 0.44179 0.12427 0.98201 0.0
H1967 H 0.43102 0.10539 0.0191 0.0
H1968 H 0.50008 0.13386 0.98582 0.0
H1969 H 0.46988 0.08737 0.06805 0.0
H1970 H 0.48743 0.1596 0.03907 0.0
H1971 H 0.47095 0.14995 0.9939 0.0
H1972 H 0.49292 0.15567 0.97968 0.0
H1973 H 0.45029 0.10182 0.14333 0.0
H1974 H 0.44489 0.08221 0.11109 0.0
H1975 H 0.43486 0.0948 0.09529 0.0
C1976 C 0.87627 0.36429 0.0112 0.0
C1977 C 0.89204 0.37761 0.02917 0.0
C1978 C 0.86911 0.34731 0.02847 0.0
C1979 C 0.87776 0.34358 0.06531 0.0
C1980 C 0.89392 0.35688 0.08283 0.0
C1981 C 0.90096 0.37375 0.0642 0.0
C1982 C 0.852 0.33345 0.00824 0.0
C1983 C 0.90341 0.35345 0.12253 0.0
C1984 C 0.84703 0.30538 0.14236 0.0
C1985 C 0.84902 0.29196 0.12302 0.0
C1986 C 0.85702 0.32242 0.12562 0.0
C1987 C 0.86907 0.32609 0.08788 0.0
C1988 C 0.87154 0.31269 0.06919 0.0
C1989 C 0.86157 0.29576 0.08735 0.0
C1990 C 0.8542 0.33637 0.14718 0.0
C1991 C 0.8841 0.31606 0.02855 0.0
H1992 H 0.86943 0.36717 0.98369 0.0
H1993 H 0.91315 0.38403 0.07818 0.0
H1994 H 0.85297 0.32206 -0.00329 0.0
H1995 H 0.84189 0.32901 0.03664 0.0
H1996 H 0.84769 0.33814 0.97694 0.0
H1997 H 0.91644 0.36479 0.12945 0.0
H1998 H 0.89575 0.35021 0.15636 0.0
H1999 H 0.90488 0.34216 0.11328 0.0
H2000 H 0.83749 0.30253 0.1704 0.0
H2001 H 0.86312 0.2854 0.07232 0.0
H2002 H 0.84826 0.34089 0.11983 0.0
H2003 H 0.86677 0.3477 0.15783 0.0
H2004 H 0.8456 0.33174 0.17931 0.0
H2005 H 0.8794 0.31928 -0.00477 0.0
H2006 H 0.88567 0.30468 0.02107 0.0
H2007 H 0.89698 0.32734 0.0371 0.0
C2008 C 0.701 0.53592 0.10944 0.0
C2009 C 0.7117 0.55395 0.11143 0.0
C2010 C 0.68367 0.52838 0.09476 0.0
C2011 C 0.67683 0.53912 0.08179 0.0
C2012 C 0.6876 0.55735 0.08324 0.0
C2013 C 0.70495 0.56457 0.098 0.0
C2014 C 0.67266 0.50887 0.09344 0.0
C2015 C 0.68076 0.5692 0.06946 0.0
C2016 C 0.63643 0.51595 0.00479 0.0
C2017 C 0.62337 0.51137 0.03918 0.0
C2018 C 0.65394 0.52606 0.01756 0.0
C2019 C 0.65842 0.53107 0.06631 0.0
C2020 C 0.64517 0.52683 0.10094 0.0
C2021 C 0.62772 0.51721 0.08672 0.0
C2022 C 0.66763 0.53072 0.97929 0.0
C2023 C 0.64941 0.53157 0.15345 0.0
H2024 H 0.70614 0.52763 0.11963 0.0
H2025 H 0.71315 0.57852 0.09963 0.0
H2026 H 0.66121 0.50454 0.11724 0.0
H2027 H 0.66777 0.50451 0.05629 0.0
H2028 H 0.67991 0.50237 0.10513 0.0
H2029 H 0.69089 0.58309 0.07163 0.0
H2030 H 0.67555 0.56631 0.03215 0.0
H2031 H 0.66991 0.56692 0.09367 0.0
H2032 H 0.63292 0.51142 0.96796 0.0
H2033 H 0.61751 0.51344 0.11324 0.0
H2034 H 0.67449 0.52341 0.98561 0.0
H2035 H 0.67741 0.54471 0.98119 0.0
H2036 H 0.66202 0.52772 0.94236 0.0
H2037 H 0.65545 0.52435 0.16881 0.0
H2038 H 0.63773 0.5285 0.17507 0.0
H2039 H 0.65894 0.54557 0.15718 0.0
C2040 C 0.52815 0.90093 0.92548 0.0
C2041 C 0.51513 0.89197 0.95984 0.0
C2042 C 0.53853 0.89422 0.90903 0.0
C2043 C 0.53595 0.87836 0.92807 0.0
C2044 C 0.52344 0.86979 0.96466 0.0
C2045 C 0.51308 0.87661 0.97974 0.0
C2046 C 0.55162 0.90363 0.86963 0.0
C2047 C 0.52048 0.853 0.9865 0.0
C2048 C 0.54357 0.84734 0.85325 0.0
C2049 C 0.55896 0.84945 0.87305 0.0
C2050 C 0.53648 0.85737 0.86916 0.0
C2051 C 0.54483 0.86962 0.90646 0.0
C2052 C 0.56072 0.87224 0.92554 0.0
C2053 C 0.56769 0.86218 0.90829 0.0
C2054 C 0.51966 0.85435 0.84728 0.0
C2055 C 0.56991 0.88508 0.96563 0.0
H2056 H 0.52978 0.91284 0.9101 0.0
H2057 H 0.50319 0.86977 0.00685 0.0
H2058 H 0.56433 0.90505 0.8793 0.0
H2059 H 0.54725 0.89596 0.83582 0.0
H2060 H 0.55339 0.91668 0.86246 0.0
H2061 H 0.51155 0.84893 0.01792 0.0
H2062 H 0.51484 0.84259 0.95894 0.0
H2063 H 0.53295 0.85426 -0.00167 0.0
H2064 H 0.53689 0.83767 0.82551 0.0
H2065 H 0.57961 0.86383 0.92364 0.0
H2066 H 0.52088 0.86682 0.83567 0.0
H2067 H 0.50922 0.84861 0.87474 0.0
H2068 H 0.51567 0.84551 0.81569 0.0
H2069 H 0.5713 0.89783 0.95653 0.0
H2070 H 0.58295 0.88686 0.97306 0.0
H2071 H 0.56208 0.88047 -0.00086 0.0
C2072 C 0.1261 0.63894 0.97732 0.0
C2073 C 0.11082 0.62541 0.95773 0.0
C2074 C 0.133 0.65596 0.96059 0.0
C2075 C 0.1246 0.65949 0.9226 0.0
C2076 C 0.10877 0.646 0.90393 0.0
C2077 C 0.10197 0.62908 0.92206 0.0
C2078 C 0.14973 0.67002 0.98214 0.0
C2079 C 0.09953 0.64922 0.86312 0.0
C2080 C 0.141 0.70722 0.89839 0.0
C2081 C 0.15395 0.71092 0.8641 0.0
C2082 C 0.13078 0.69034 0.91663 0.0
C2083 C 0.13345 0.67689 0.8995 0.0
C2084 C 0.14591 0.68045 0.86303 0.0
C2085 C 0.15611 0.69744 0.84613 0.0
C2086 C 0.11774 0.68709 0.95583 0.0
C2087 C 0.14899 0.66644 0.84317 0.0
H2088 H 0.13286 0.63618 0.00536 0.0
H2089 H 0.09014 0.61863 0.90683 0.0
H2090 H 0.16025 0.67445 0.95499 0.0
H2091 H 0.14847 0.68137 0.99221 0.0
H2092 H 0.15365 0.66551 0.01464 0.0
H2093 H 0.08646 0.6379 0.85643 0.0
H2094 H 0.09819 0.6607 0.87088 0.0
H2095 H 0.10728 0.65202 0.82958 0.0
H2096 H 0.13931 0.71763 0.91236 0.0
H2097 H 0.16597 0.7002 0.81915 0.0
H2098 H 0.1222 0.68424 0.99023 0.0
H2099 H 0.10504 0.67562 0.94695 0.0
H2100 H 0.11591 0.6984 0.96154 0.0
H2101 H 0.15464 0.66203 0.8717 0.0
H2102 H 0.15793 0.67097 0.81176 0.0
H2103 H 0.13655 0.65506 0.83191 0.0
C2104 C 0.30357 0.45952 0.84683 0.0
C2105 C 0.29043 0.44377 0.86538 0.0
C2106 C 0.32083 0.46634 0.86134 0.0
C2107 C 0.32503 0.45734 0.89593 0.0
C2108 C 0.31189 0.44117 0.91383 0.0
C2109 C 0.29471 0.43449 0.89803 0.0
C2110 C 0.33448 0.4835 0.84082 0.0
C2111 C 0.31584 0.43129 0.95113 0.0
C2112 C 0.37312 0.47327 0.91089 0.0
C2113 C 0.3775 0.48558 0.9476 0.0
C2114 C 0.35591 0.46342 0.89465 0.0
C2115 C 0.34284 0.46579 0.91634 0.0
C2116 C 0.34713 0.47757 0.95508 0.0
C2117 C 0.36442 0.48744 0.96988 0.0
C2118 C 0.35186 0.45111 0.85291 0.0
C2119 C 0.33356 0.48027 0.97979 0.0
H2120 H 0.30036 0.46664 0.82108 0.0
H2121 H 0.28458 0.42229 0.91238 0.0
H2122 H 0.33948 0.49344 0.86973 0.0
H2123 H 0.34559 0.48246 0.82689 0.0
H2124 H 0.32937 0.48806 0.81115 0.0
H2125 H 0.30456 0.41822 0.95807 0.0
H2126 H 0.32696 0.42987 0.9394 0.0
H2127 H 0.3196 0.43863 0.98555 0.0
H2128 H 0.38322 0.4718 0.89365 0.0
H2129 H 0.36772 0.49677 -0.00122 0.0
H2130 H 0.34824 0.4561 0.82089 0.0
H2131 H 0.34062 0.43823 0.86164 0.0
H2132 H 0.36305 0.44949 0.84318 0.0
H2133 H 0.32863 0.48641 0.95428 0.0
H2134 H 0.33872 0.48865 0.01223 0.0
H2135 H 0.32238 0.46765 0.9908 0.0
C2136 C 0.12341 0.48677 0.48127 0.0
C2137 C 0.10852 0.48538 0.45993 0.0
C2138 C 0.13036 0.47662 0.4653 0.0
C2139 C 0.12242 0.46502 0.42633 0.0
C2140 C 0.1069 0.46296 0.4061 0.0
C2141 C 0.10003 0.4731 0.42348 0.0
C2142 C 0.14674 0.47898 0.48853 0.0
C2143 C 0.09814 0.45085 0.36426 0.0
C2144 C 0.15483 0.45963 0.3512 0.0
C2145 C 0.15255 0.4438 0.36797 0.0
C2146 C 0.14446 0.46619 0.36818 0.0
C2147 C 0.13163 0.45683 0.40342 0.0
C2148 C 0.12885 0.44053 0.41939 0.0
C2149 C 0.13931 0.43414 0.40118 0.0
C2150 C 0.1477 0.48351 0.34967 0.0
C2151 C 0.1154 0.43025 0.45719 0.0
H2152 H 0.12987 0.49609 0.50996 0.0
H2153 H 0.0885 0.472 0.40695 0.0
H2154 H 0.14534 0.46624 0.49774 0.0
H2155 H 0.15767 0.48545 0.46273 0.0
H2156 H 0.15013 0.48695 0.52185 0.0
H2157 H 0.0851 0.44905 0.35678 0.0
H2158 H 0.10621 0.45618 0.33138 0.0
H2159 H 0.09685 0.43801 0.37135 0.0
H2160 H 0.16491 0.46705 0.32506 0.0
H2161 H 0.1375 0.42188 0.4142 0.0
H2162 H 0.15287 0.49317 0.37927 0.0
H2163 H 0.1354 0.48251 0.33732 0.0
H2164 H 0.1571 0.4884 0.31932 0.0
H2165 H 0.11942 0.43715 0.49227 0.0
H2166 H 0.11358 0.41707 0.46199 0.0
H2167 H 0.10277 0.42904 0.44746 0.0
C2168 C 0.5097 0.62838 0.39799 0.0
C2169 C 0.51312 0.62263 0.44127 0.0
C2170 C 0.5197 0.64578 0.38395 0.0
C2171 C 0.533 0.6577 0.41489 0.0
C2172 C 0.53678 0.65174 0.45808 0.0
C2173 C 0.52685 0.63417 0.47055 0.0
C2174 C 0.51554 0.65152 0.33703 0.0
C2175 C 0.55056 0.66407 0.49254 0.0
C2176 C 0.56465 0.7025 0.36593 0.0
C2177 C 0.55619 0.71163 0.37812 0.0
C2178 C 0.55737 0.6849 0.37801 0.0
C2179 C 0.54164 0.67656 0.40432 0.0
C2180 C 0.53358 0.68608 0.41873 0.0
C2181 C 0.54078 0.70341 0.40456 0.0
C2182 C 0.56605 0.67507 0.36076 0.0
C2183 C 0.51713 0.67785 0.44825 0.0
H2184 H 0.49898 0.61934 0.37563 0.0
H2185 H 0.52927 0.62959 0.50433 0.0
H2186 H 0.50964 0.65967 0.34465 0.0
H2187 H 0.52756 0.65953 0.31603 0.0
H2188 H 0.50637 0.64038 0.31447 0.0
H2189 H 0.55299 0.65717 0.52222 0.0
H2190 H 0.5629 0.6723 0.47316 0.0
H2191 H 0.54644 0.67284 0.50861 0.0
H2192 H 0.5765 0.70889 0.345 0.0
H2193 H 0.53435 0.71058 0.41417 0.0
H2194 H 0.5575 0.66501 0.33449 0.0
H2195 H 0.56815 0.66829 0.39134 0.0
H2196 H 0.57871 0.68365 0.34313 0.0
H2197 H 0.50634 0.66778 0.42654 0.0
H2198 H 0.51345 0.68745 0.46033 0.0
H2199 H 0.51869 0.67138 0.48054 0.0
C2200 C 0.37387 0.90289 0.42295 0.0
C2201 C 0.37752 0.89375 0.45776 0.0
C2202 C 0.35699 0.89617 0.40453 0.0
C2203 C 0.34351 0.8801 0.42198 0.0
C2204 C 0.34702 0.87135 0.45902 0.0
C2205 C 0.36399 0.8782 0.47611 0.0
C2206 C 0.35379 0.9058 0.36478 0.0
C2207 C 0.33298 0.85433 0.47921 0.0
C2208 C 0.29568 0.86341 0.39851 0.0
C2209 C 0.29212 0.85077 0.36334 0.0
C2210 C 0.31257 0.8737 0.41669 0.0
C2211 C 0.32615 0.87141 0.3986 0.0
C2212 C 0.32274 0.85934 0.36111 0.0
C2213 C 0.30575 0.84906 0.34428 0.0
C2214 C 0.31567 0.88632 0.45695 0.0
C2215 C 0.33689 0.85669 0.3402 0.0
H2216 H 0.38431 0.91493 0.4087 0.0
H2217 H 0.36671 0.8712 0.5035 0.0
H2218 H 0.35109 0.89842 0.33057 0.0
H2219 H 0.34225 0.90697 0.37308 0.0
H2220 H 0.36508 0.91896 0.35905 0.0
H2221 H 0.33747 0.85005 0.51103 0.0
H2222 H 0.32157 0.8554 0.48996 0.0
H2223 H 0.32864 0.84416 0.45104 0.0
H2224 H 0.28516 0.86476 0.4133 0.0
H2225 H 0.30309 0.83946 0.3166 0.0
H2226 H 0.32714 0.89913 0.44897 0.0
H2227 H 0.31843 0.88153 0.49087 0.0
H2228 H 0.30431 0.88804 0.46306 0.0
H2229 H 0.34822 0.8693 0.3299 0.0
H2230 H 0.33247 0.84814 0.30797 0.0
H2231 H 0.34133 0.85076 0.36782 0.0
C2232 C 0.29842 0.16629 0.13407 0.0
C2233 C 0.28682 0.14925 0.14828 0.0
C2234 C 0.31639 0.17296 0.1365 0.0
C2235 C 0.32285 0.16248 0.15507 0.0
C2236 C 0.31116 0.14532 0.16997 0.0
C2237 C 0.29328 0.13882 0.16568 0.0
C2238 C 0.32846 0.19115 0.11894 0.0
C2239 C 0.31753 0.13391 0.19119 0.0
C2240 C 0.36867 0.17277 0.12629 0.0
C2241 C 0.37775 0.18225 0.16708 0.0
C2242 C 0.35086 0.16658 0.12143 0.0
C2243 C 0.34184 0.16945 0.15905 0.0
C2244 C 0.35093 0.17876 0.20075 0.0
C2245 C 0.36886 0.18532 0.20388 0.0
C2246 C 0.34174 0.15717 0.07581 0.0
C2247 C 0.34167 0.18163 0.24224 0.0
H2248 H 0.29342 0.17433 0.12037 0.0
H2249 H 0.28432 0.12569 0.17723 0.0
H2250 H 0.33671 0.19926 0.14909 0.0
H2251 H 0.33722 0.19099 0.09077 0.0
H2252 H 0.32135 0.19734 0.10373 0.0
H2253 H 0.30673 0.12105 0.20235 0.0
H2254 H 0.32563 0.13192 0.16447 0.0
H2255 H 0.32581 0.14033 0.22312 0.0
H2256 H 0.37561 0.17059 0.09754 0.0
H2257 H 0.3759 0.19259 0.23553 0.0
H2258 H 0.33522 0.16367 0.05886 0.0
H2259 H 0.33155 0.14373 0.08446 0.0
H2260 H 0.35077 0.15666 0.04913 0.0
H2261 H 0.33555 0.18913 0.22984 0.0
H2262 H 0.35054 0.18869 0.27267 0.0
H2263 H 0.33116 0.16899 0.25573 0.0
C2264 C 0.83477 0.20211 0.18536 0.0
C2265 C 0.8178 0.19667 0.17043 0.0
C2266 C 0.84162 0.19098 0.18199 0.0
C2267 C 0.83142 0.17428 0.16168 0.0
C2268 C 0.81441 0.16891 0.14552 0.0
C2269 C 0.8077 0.18007 0.15085 0.0
C2270 C 0.85963 0.19697 0.20091 0.0
C2271 C 0.80332 0.15141 0.12234 0.0
C2272 C 0.85468 0.15121 0.1152 0.0
C2273 C 0.85095 0.13892 0.15158 0.0
C2274 C 0.84822 0.16268 0.11767 0.0
C2275 C 0.83836 0.16222 0.15831 0.0
C2276 C 0.83485 0.15001 0.19553 0.0
C2277 C 0.84094 0.13831 0.19129 0.0
C2278 C 0.85177 0.17514 0.07656 0.0
C2279 C 0.8248 0.14943 0.24007 0.0
H2280 H 0.84254 0.21494 0.20067 0.0
H2281 H 0.79464 0.17594 0.13868 0.0
H2282 H 0.85911 0.18794 0.2293 0.0
H2283 H 0.86799 0.19683 0.17151 0.0
H2284 H 0.86576 0.21024 0.21631 0.0
H2285 H 0.79074 0.1496 0.10928 0.0
H2286 H 0.8103 0.14982 0.09139 0.0
H2287 H 0.8007 0.14099 0.14861 0.0
H2288 H 0.86236 0.1516 0.08439 0.0
H2289 H 0.83826 0.12894 0.21974 0.0
H2290 H 0.85909 0.18867 0.08983 0.0
H2291 H 0.83935 0.17314 0.06156 0.0
H2292 H 0.85928 0.17355 0.04701 0.0
H2293 H 0.83108 0.16234 0.25766 0.0
H2294 H 0.82391 0.13971 0.26673 0.0
H2295 H 0.8115 0.14624 0.22992 0.0
C2296 C 0.8143 0.63348 0.22311 0.0
C2297 C 0.802 0.62423 0.18727 0.0
C2298 C 0.82527 0.65147 0.21935 0.0
C2299 C 0.8243 0.66028 0.17796 0.0
C2300 C 0.81171 0.65101 0.14204 0.0
C2301 C 0.80053 0.63313 0.14751 0.0
C2302 C 0.83813 0.661 0.25919 0.0
C2303 C 0.81053 0.65983 0.09683 0.0
C2304 C 0.84415 0.70919 0.17833 0.0
C2305 C 0.86039 0.71465 0.15734 0.0
C2306 C 0.83241 0.69155 0.18621 0.0
C2307 C 0.83682 0.67906 0.17135 0.0
C2308 C 0.85313 0.68451 0.14956 0.0
C2309 C 0.86485 0.70227 0.14352 0.0
C2310 C 0.81538 0.6863 0.21086 0.0
C2311 C 0.85813 0.67157 0.13211 0.0
H2312 H 0.8154 0.6266 0.25396 0.0
H2313 H 0.79118 0.62596 0.11943 0.0
H2314 H 0.8515 0.66609 0.24549 0.0
H2315 H 0.83703 0.67226 0.27134 0.0
H2316 H 0.8362 0.65255 0.29079 0.0
H2317 H 0.79984 0.65083 0.07271 0.0
H2318 H 0.8085 0.67076 0.1063 0.0
H2319 H 0.82291 0.66532 0.07658 0.0
H2320 H 0.84077 0.71876 0.18965 0.0
H2321 H 0.87737 0.70648 0.12713 0.0
H2322 H 0.814 0.67844 0.24339 0.0
H2323 H 0.80447 0.67809 0.18639 0.0
H2324 H 0.81421 0.69765 0.22188 0.0
H2325 H 0.85825 0.66365 0.1628 0.0
H2326 H 0.87108 0.6779 0.11467 0.0
H2327 H 0.84839 0.66257 0.10579 0.0
C2328 C 0.1967 0.3758 0.34006 0.0
C2329 C 0.18626 0.38184 0.32011 0.0
C2330 C 0.19032 0.35803 0.34677 0.0
C2331 C 0.17327 0.34601 0.33167 0.0
C2332 C 0.16278 0.35204 0.31064 0.0
C2333 C 0.16931 0.36993 0.30589 0.0
C2334 C 0.20173 0.35214 0.37063 0.0
C2335 C 0.14473 0.3396 0.29275 0.0
C2336 C 0.16353 0.3001 0.30747 0.0
C2337 C 0.1536 0.29126 0.34794 0.0
C2338 C 0.16978 0.31787 0.30137 0.0
C2339 C 0.16651 0.32711 0.33744 0.0
C2340 C 0.15684 0.31831 0.379 0.0
C2341 C 0.15023 0.30039 0.38334 0.0
C2342 C 0.17959 0.32668 0.25591 0.0
C2343 C 0.15357 0.32783 0.41895 0.0
H2344 H 0.20975 0.38503 0.35168 0.0
H2345 H 0.16126 0.37462 0.2903 0.0
H2346 H 0.19511 0.34416 0.40285 0.0
H2347 H 0.20411 0.34389 0.34549 0.0
H2348 H 0.21442 0.36319 0.38199 0.0
H2349 H 0.13847 0.34638 0.27578 0.0
H2350 H 0.14519 0.3306 0.26592 0.0
H2351 H 0.1365 0.33163 0.32312 0.0
H2352 H 0.16594 0.29298 0.27977 0.0
H2353 H 0.1426 0.29355 0.41472 0.0
H2354 H 0.19287 0.33711 0.26507 0.0
H2355 H 0.17307 0.33283 0.23703 0.0
H2356 H 0.18055 0.31751 0.23068 0.0
H2357 H 0.16606 0.33864 0.43231 0.0
H2358 H 0.14647 0.31923 0.4498 0.0
H2359 H 0.14593 0.3336 0.40497 0.0
C2360 C 0.63129 0.80287 0.34851 0.0
C2361 C 0.62203 0.80403 0.3092 0.0
C2362 C 0.64917 0.81424 0.353 0.0
C2363 C 0.65808 0.82667 0.31645 0.0
C2364 C 0.64885 0.82754 0.2759 0.0
C2365 C 0.63085 0.8164 0.2732 0.0
C2366 C 0.65844 0.81321 0.39743 0.0
C2367 C 0.65799 0.84024 0.23544 0.0
C2368 C 0.70137 0.86648 0.3461 0.0
C2369 C 0.71303 0.86125 0.33093 0.0
C2370 C 0.68341 0.85528 0.34207 0.0
C2371 C 0.67705 0.83874 0.32079 0.0
C2372 C 0.68883 0.83358 0.30448 0.0
C2373 C 0.70667 0.84479 0.3105 0.0
C2374 C 0.67124 0.86104 0.3612 0.0
C2375 C 0.6826 0.81628 0.2803 0.0
H2376 H 0.62443 0.79347 0.37674 0.0
H2377 H 0.62367 0.81725 0.24276 0.0
H2378 H 0.66877 0.81037 0.38701 0.0
H2379 H 0.6648 0.82589 0.41631 0.0
H2380 H 0.64954 0.80308 0.42309 0.0
H2381 H 0.64909 0.83865 0.2053 0.0
H2382 H 0.66387 0.85368 0.24924 0.0
H2383 H 0.66868 0.83854 0.22113 0.0
H2384 H 0.7063 0.8792 0.36203 0.0
H2385 H 0.71571 0.84083 0.29813 0.0
H2386 H 0.6625 0.85169 0.38868 0.0
H2387 H 0.66296 0.86123 0.33161 0.0
H2388 H 0.67826 0.87412 0.37778 0.0
H2389 H 0.67461 0.80564 0.30579 0.0
H2390 H 0.69347 0.81459 0.26753 0.0
H2391 H 0.67425 0.81494 0.24899 0.0
C2392 C 0.20089 0.83299 0.30513 0.0
C2393 C 0.19591 0.81609 0.31979 0.0
C2394 C 0.18938 0.83938 0.3089 0.0
C2395 C 0.17276 0.8288 0.3293 0.0
C2396 C 0.16781 0.81183 0.3449 0.0
C2397 C 0.17935 0.80559 0.33924 0.0
C2398 C 0.19494 0.85736 0.29057 0.0
C2399 C 0.1504 0.80034 0.3681 0.0
C2400 C 0.14947 0.85148 0.37838 0.0
C2401 C 0.13716 0.84798 0.34222 0.0
C2402 C 0.16095 0.84504 0.3751 0.0
C2403 C 0.16045 0.8354 0.3339 0.0
C2404 C 0.14812 0.83198 0.29709 0.0
C2405 C 0.13643 0.83808 0.30209 0.0
C2406 C 0.17355 0.8485 0.41577 0.0
C2407 C 0.14749 0.82216 0.25202 0.0
H2408 H 0.21367 0.84108 0.28989 0.0
H2409 H 0.17557 0.79259 0.35116 0.0
H2410 H 0.18562 0.85675 0.26297 0.0
H2411 H 0.19486 0.86556 0.32052 0.0
H2412 H 0.2081 0.86372 0.27438 0.0
H2413 H 0.14882 0.78774 0.38001 0.0
H2414 H 0.14876 0.80697 0.39985 0.0
H2415 H 0.13987 0.79779 0.3423 0.0
H2416 H 0.14997 0.85908 0.40951 0.0
H2417 H 0.12706 0.83556 0.2738 0.0
H2418 H 0.18703 0.85624 0.40237 0.0
H2419 H 0.17191 0.83609 0.4296 0.0
H2420 H 0.17178 0.85559 0.44618 0.0
H2421 H 0.16027 0.82878 0.2337 0.0
H2422 H 0.13745 0.82103 0.22616 0.0
H2423 H 0.14474 0.80895 0.26159 0.0
C2424 C 0.704 0.84025 0.80225 0.0
C2425 C 0.71363 0.85041 0.8415 0.0
C2426 C 0.68614 0.83406 0.79889 0.0
C2427 C 0.67765 0.83764 0.83652 0.0
C2428 C 0.68728 0.84759 0.87679 0.0
C2429 C 0.70524 0.85412 0.87839 0.0
C2430 C 0.67643 0.82391 0.75474 0.0
C2431 C 0.67859 0.85122 0.91831 0.0
C2432 C 0.63422 0.83445 0.81139 0.0
C2433 C 0.62265 0.81755 0.82677 0.0
C2434 C 0.6522 0.84112 0.8139 0.0
C2435 C 0.65867 0.83083 0.83382 0.0
C2436 C 0.64698 0.81389 0.85041 0.0
C2437 C 0.6291 0.80735 0.84592 0.0
C2438 C 0.66425 0.85904 0.7945 0.0
C2439 C 0.65336 0.80272 0.87318 0.0
H2440 H 0.71053 0.83756 0.77341 0.0
H2441 H 0.7127 0.86191 0.90886 0.0
H2442 H 0.66624 0.81069 0.76531 0.0
H2443 H 0.66984 0.83025 0.73721 0.0
H2444 H 0.68508 0.82281 0.72789 0.0
H2445 H 0.68783 0.85864 0.94771 0.0
H2446 H 0.67249 0.85868 0.90542 0.0
H2447 H 0.66813 0.83885 0.93338 0.0
H2448 H 0.62921 0.84229 0.79633 0.0
H2449 H 0.62012 0.79435 0.85835 0.0
H2450 H 0.67259 0.85837 0.76586 0.0
H2451 H 0.67293 0.86744 0.82359 0.0
H2452 H 0.65713 0.86522 0.77927 0.0
H2453 H 0.66098 0.8 0.84658 0.0
H2454 H 0.64257 0.79019 0.88649 0.0
H2455 H 0.66209 0.80968 0.90388 0.0
C2456 C 0.19693 0.82324 0.83751 0.0
C2457 C 0.18673 0.80656 0.81847 0.0
C2458 C 0.19021 0.83439 0.84324 0.0
C2459 C 0.17306 0.8289 0.82812 0.0
C2460 C 0.16281 0.81218 0.808 0.0
C2461 C 0.16968 0.80108 0.80416 0.0
C2462 C 0.20137 0.85192 0.86612 0.0
C2463 C 0.14465 0.80606 0.79018 0.0
C2464 C 0.14905 0.85071 0.87816 0.0
C2465 C 0.1519 0.86281 0.84194 0.0
C2466 C 0.15619 0.83983 0.87466 0.0
C2467 C 0.16588 0.84072 0.83316 0.0
C2468 C 0.16869 0.85286 0.79635 0.0
C2469 C 0.16189 0.86396 0.80157 0.0
C2470 C 0.15338 0.82743 0.91534 0.0
C2471 C 0.17853 0.85387 0.75097 0.0
H2472 H 0.21005 0.82742 0.84917 0.0
H2473 H 0.16182 0.78821 0.78923 0.0
H2474 H 0.20339 0.8623 0.84042 0.0
H2475 H 0.19473 0.85329 0.89828 0.0
H2476 H 0.21423 0.85399 0.87735 0.0
H2477 H 0.13862 0.79293 0.77386 0.0
H2478 H 0.13638 0.80577 0.82046 0.0
H2479 H 0.14481 0.81524 0.76284 0.0
H2480 H 0.14139 0.84988 0.90949 0.0
H2481 H 0.16392 0.87318 0.77324 0.0
H2482 H 0.16603 0.82951 0.92856 0.0
H2483 H 0.14592 0.81389 0.90215 0.0
H2484 H 0.14627 0.82895 0.94613 0.0
H2485 H 0.19191 0.85703 0.76015 0.0
H2486 H 0.17925 0.86379 0.72532 0.0
H2487 H 0.1722 0.84111 0.73257 0.0
C2488 C 0.197 0.36998 0.85546 0.0
C2489 C 0.1959 0.37869 0.81473 0.0
C2490 C 0.18567 0.35216 0.86148 0.0
C2491 C 0.17337 0.34274 0.82506 0.0
C2492 C 0.17248 0.35144 0.78329 0.0
C2493 C 0.18357 0.3694 0.77904 0.0
C2494 C 0.18669 0.34346 0.90716 0.0
C2495 C 0.15993 0.34175 0.74297 0.0
C2496 C 0.15605 0.29425 0.82236 0.0
C2497 C 0.13942 0.28777 0.84176 0.0
C2498 C 0.16709 0.3121 0.81581 0.0
C2499 C 0.16157 0.32376 0.83053 0.0
C2500 C 0.14487 0.31729 0.85092 0.0
C2501 C 0.13386 0.29932 0.85552 0.0
C2502 C 0.18457 0.31845 0.79261 0.0
C2503 C 0.13873 0.32934 0.86838 0.0
H2504 H 0.20639 0.37722 0.88339 0.0
H2505 H 0.18278 0.37616 0.74746 0.0
H2506 H 0.1739 0.33698 0.92545 0.0
H2507 H 0.18995 0.3333 0.89834 0.0
H2508 H 0.19655 0.35276 0.93276 0.0
H2509 H 0.16133 0.35032 0.71212 0.0
H2510 H 0.162 0.33119 0.72971 0.0
H2511 H 0.14644 0.33565 0.75652 0.0
H2512 H 0.16027 0.28531 0.8111 0.0
H2513 H 0.12102 0.29429 0.87069 0.0
H2514 H 0.19502 0.32681 0.81816 0.0
H2515 H 0.1859 0.32644 0.76045 0.0
H2516 H 0.1866 0.30764 0.7813 0.0
H2517 H 0.14791 0.33841 0.89562 0.0
H2518 H 0.1256 0.32225 0.88471 0.0
H2519 H 0.13844 0.33726 0.83793 0.0
C2520 C 0.8372 0.70312 0.63359 0.0
C2521 C 0.85428 0.715 0.64691 0.0
C2522 C 0.83069 0.68522 0.63791 0.0
C2523 C 0.84135 0.67913 0.65742 0.0
C2524 C 0.85857 0.69111 0.67128 0.0
C2525 C 0.8649 0.7089 0.66519 0.0
C2526 C 0.81242 0.67283 0.62149 0.0
C2527 C 0.87019 0.68515 0.69339 0.0
C2528 C 0.81841 0.63378 0.71066 0.0
C2529 C 0.82096 0.62429 0.67454 0.0
C2530 C 0.82532 0.65172 0.70605 0.0
C2531 C 0.83448 0.66023 0.66358 0.0
C2532 C 0.83701 0.65066 0.62691 0.0
C2533 C 0.83044 0.63284 0.63318 0.0
C2534 C 0.8228 0.66157 0.74656 0.0
C2535 C 0.8463 0.65917 0.58058 0.0
H2536 H 0.829 0.70782 0.61921 0.0
H2537 H 0.87805 0.71808 0.67607 0.0
H2538 H 0.81248 0.66365 0.59456 0.0
H2539 H 0.80449 0.66505 0.65253 0.0
H2540 H 0.80609 0.67963 0.60515 0.0
H2541 H 0.88313 0.69615 0.7031 0.0
H2542 H 0.86405 0.67745 0.7264 0.0
H2543 H 0.87197 0.6766 0.66786 0.0
H2544 H 0.81113 0.62717 0.74274 0.0
H2545 H 0.83221 0.62546 0.60493 0.0
H2546 H 0.81504 0.66736 0.73366 0.0
H2547 H 0.83553 0.67238 0.7585 0.0
H2548 H 0.81612 0.65319 0.77814 0.0
H2549 H 0.83958 0.66523 0.56228 0.0
H2550 H 0.84693 0.64983 0.5553 0.0
H2551 H 0.85969 0.66964 0.58849 0.0
C2552 C 0.29339 0.15488 0.67974 0.0
C2553 C 0.28674 0.13833 0.65964 0.0
C2554 C 0.31128 0.16583 0.68578 0.0
C2555 C 0.32281 0.1603 0.66989 0.0
C2556 C 0.31617 0.14361 0.6493 0.0
C2557 C 0.29816 0.1327 0.64515 0.0
C2558 C 0.31782 0.1833 0.70919 0.0
C2559 C 0.32808 0.13745 0.63071 0.0
C2560 C 0.36853 0.19568 0.6397 0.0
C2561 C 0.37793 0.19485 0.67914 0.0
C2562 C 0.35063 0.18432 0.63593 0.0
C2563 C 0.34184 0.17222 0.67331 0.0
C2564 C 0.35122 0.17162 0.71385 0.0
C2565 C 0.36924 0.18276 0.71587 0.0
C2566 C 0.34119 0.18505 0.59151 0.0
C2567 C 0.34221 0.15928 0.75513 0.0
H2568 H 0.28454 0.15915 0.69158 0.0
H2569 H 0.29302 0.11992 0.62947 0.0
H2570 H 0.32638 0.18479 0.74011 0.0
H2571 H 0.32567 0.19373 0.68301 0.0
H2572 H 0.30711 0.18519 0.72233 0.0
H2573 H 0.32084 0.12416 0.61548 0.0
H2574 H 0.33664 0.14639 0.60225 0.0
H2575 H 0.33654 0.13757 0.66022 0.0
H2576 H 0.37529 0.20487 0.61094 0.0
H2577 H 0.37652 0.18217 0.74645 0.0
H2578 H 0.3311 0.18825 0.60181 0.0
H2579 H 0.33452 0.17218 0.57369 0.0
H2580 H 0.35004 0.19482 0.56498 0.0
H2581 H 0.33179 0.16133 0.76974 0.0
H2582 H 0.35127 0.16093 0.78489 0.0
H2583 H 0.33601 0.14572 0.7421 0.0
C2584 C 0.84591 0.13897 0.68317 0.0
C2585 C 0.86225 0.14886 0.66186 0.0
C2586 C 0.83475 0.14568 0.68882 0.0
C2587 C 0.83984 0.16246 0.67121 0.0
C2588 C 0.85628 0.17243 0.64914 0.0
C2589 C 0.86743 0.16561 0.6455 0.0
C2590 C 0.81758 0.13486 0.71392 0.0
C2591 C 0.86195 0.19017 0.62867 0.0
C2592 C 0.8038 0.17207 0.64296 0.0
C2593 C 0.80512 0.18278 0.68163 0.0
C2594 C 0.81518 0.16556 0.63881 0.0
C2595 C 0.8278 0.16942 0.67505 0.0
C2596 C 0.82889 0.17988 0.71487 0.0
C2597 C 0.8177 0.18669 0.71726 0.0
C2598 C 0.81391 0.15484 0.59518 0.0
C2599 C 0.8418 0.18381 0.75499 0.0
H2600 H 0.842 0.12608 0.69641 0.0
H2601 H 0.88005 0.17322 0.62886 0.0
H2602 H 0.81639 0.14219 0.7446 0.0
H2603 H 0.80681 0.13191 0.68863 0.0
H2604 H 0.81598 0.12245 0.72779 0.0
H2605 H 0.87499 0.1961 0.61179 0.0
H2606 H 0.8525 0.18928 0.60112 0.0
H2607 H 0.86223 0.19891 0.65757 0.0
H2608 H 0.79421 0.16921 0.61507 0.0
H2609 H 0.81866 0.19491 0.7473 0.0
H2610 H 0.81101 0.14174 0.60659 0.0
H2611 H 0.82651 0.16091 0.57591 0.0
H2612 H 0.8037 0.15344 0.56955 0.0
H2613 H 0.84008 0.17157 0.77044 0.0
H2614 H 0.84046 0.19151 0.78445 0.0
H2615 H 0.85517 0.19113 0.74054 0.0
C2616 C 0.04119 0.53101 0.47387 0.0
C2617 C 0.04711 0.52058 0.49465 0.0
C2618 C 0.02344 0.52471 0.46685 0.0
C2619 C 0.01131 0.50776 0.48241 0.0
C2620 C 0.01722 0.49728 0.50418 0.0
C2621 C 0.03508 0.50372 0.50931 0.0
C2622 C 0.01768 0.53609 0.44223 0.0
C2623 C 0.00466 0.47932 0.52247 0.0
C2624 C 0.96524 0.49764 0.50644 0.0
C2625 C 0.95639 0.48732 0.46657 0.0
C2626 C 0.98311 0.50432 0.51215 0.0
C2627 C 0.99242 0.50105 0.47631 0.0
C2628 C 0.98363 0.49112 0.4351 0.0
C2629 C 0.96564 0.48411 0.43114 0.0
C2630 C 0.99192 0.51446 0.5572 0.0
C2631 C 0.99321 0.48781 0.3954 0.0
H2632 H 0.0505 0.54398 0.46193 0.0
H2633 H 0.03966 0.49568 0.52557 0.0
H2634 H 0.00977 0.52939 0.40997 0.0
H2635 H 0.00938 0.53859 0.46688 0.0
H2636 H 0.02879 0.54872 0.43077 0.0
H2637 H 0.01134 0.47307 0.53997 0.0
H2638 H 0.99565 0.47994 0.54894 0.0
H2639 H 0.99671 0.47102 0.49219 0.0
H2640 H 0.95805 0.49995 0.53418 0.0
H2641 H 0.9588 0.47619 0.40017 0.0
H2642 H 0.0025 0.52759 0.54748 0.0
H2643 H 0.99788 0.50794 0.57705 0.0
H2644 H 0.98279 0.51576 0.58175 0.0
H2645 H 0.00414 0.50025 0.38226 0.0
H2646 H 0.98467 0.48079 0.36435 0.0
H2647 H 0.99881 0.48003 0.40957 0.0
C2648 C 0.48031 0.51881 0.55679 0.0
C2649 C 0.4844 0.5309 0.51963 0.0
C2650 C 0.48699 0.5075 0.55679 0.0
C2651 C 0.49751 0.50796 0.51786 0.0
C2652 C 0.50169 0.52019 0.48032 0.0
C2653 C 0.4953 0.5317 0.48207 0.0
C2654 C 0.48271 0.495 0.59821 0.0
C2655 C 0.51248 0.52079 0.43755 0.0
C2656 C 0.52671 0.48846 0.52827 0.0
C2657 C 0.51644 0.47214 0.50722 0.0
C2658 C 0.5205 0.50005 0.5334 0.0
C2659 C 0.50384 0.4954 0.51558 0.0
C2660 C 0.49346 0.47895 0.49403 0.0
C2661 C 0.49978 0.46739 0.49083 0.0
C2662 C 0.53174 0.51726 0.55786 0.0
C2663 C 0.47583 0.47371 0.47338 0.0
H2664 H 0.47195 0.51826 0.58597 0.0
H2665 H 0.49831 0.54092 0.45299 0.0
H2666 H 0.47487 0.48151 0.58499 0.0
H2667 H 0.49479 0.49635 0.61382 0.0
H2668 H 0.47537 0.49711 0.62725 0.0
H2669 H 0.51446 0.53102 0.41122 0.0
H2670 H 0.52534 0.52321 0.44984 0.0
H2671 H 0.50607 0.5081 0.41877 0.0
H2672 H 0.53952 0.49205 0.5415 0.0
H2673 H 0.49187 0.45479 0.47433 0.0
H2674 H 0.52452 0.51898 0.58793 0.0
H2675 H 0.53516 0.52796 0.5319 0.0
H2676 H 0.5439 0.51844 0.5724 0.0
H2677 H 0.4673 0.47406 0.50192 0.0
H2678 H 0.46945 0.46051 0.45744 0.0
H2679 H 0.47707 0.48305 0.44499 0.0
C2680 C 0.53285 0.03784 0.51383 0.0
C2681 C 0.53121 0.04678 0.47444 0.0
C2682 C 0.52142 0.02004 0.51993 0.0
C2683 C 0.5084 0.01088 0.48496 0.0
C2684 C 0.50699 0.01978 0.44441 0.0
C2685 C 0.51824 0.03771 0.44007 0.0
C2686 C 0.52305 0.01112 0.56432 0.0
C2687 C 0.49363 0.01036 0.4056 0.0
C2688 C 0.48965 0.96216 0.48054 0.0
C2689 C 0.47346 0.95612 0.5024 0.0
C2690 C 0.50101 0.97994 0.4738 0.0
C2691 C 0.49629 0.99197 0.49084 0.0
C2692 C 0.48005 0.98593 0.51378 0.0
C2693 C 0.46868 0.96803 0.51849 0.0
C2694 C 0.51795 0.98583 0.44785 0.0
C2695 C 0.47478 0.99836 0.53374 0.0
H2696 H 0.54274 0.04489 0.54078 0.0
H2697 H 0.51702 0.04462 0.40951 0.0
H2698 H 0.51067 0.005 0.58469 0.0
H2699 H 0.52565 0.00065 0.55371 0.0
H2700 H 0.5336 0.0202 0.5887 0.0
H2701 H 0.49477 0.01902 0.37528 0.0
H2702 H 0.49504 0.99953 0.39109 0.0
H2703 H 0.48042 0.00464 0.42106 0.0
H2704 H 0.49324 0.95293 0.4675 0.0
H2705 H 0.45617 0.96333 0.53556 0.0
H2706 H 0.52896 0.99401 0.47209 0.0
H2707 H 0.5189 0.9939 0.41622 0.0
H2708 H 0.51938 0.97479 0.4352 0.0
H2709 H 0.48464 0.00728 0.55993 0.0
H2710 H 0.46199 0.99158 0.55206 0.0
H2711 H 0.47415 0.00643 0.50422 0.0
C2712 C 0.50216 0.03546 0.96527 0.0
C2713 C 0.51903 0.04707 0.98075 0.0
C2714 C 0.49525 0.01751 0.96977 0.0
C2715 C 0.50527 0.01111 0.99185 0.0
C2716 C 0.52224 0.02284 0.00821 0.0
C2717 C 0.52902 0.04068 0.0017 0.0
C2718 C 0.47732 0.00539 0.95051 0.0
C2719 C 0.53313 0.01655 0.03319 0.0
C2720 C 0.48108 0.9654 0.04262 0.0
C2721 C 0.48464 0.95621 0.00783 0.0
C2722 C 0.48797 0.98336 0.03832 0.0
C2723 C 0.49811 0.99215 -0.00259 0.0
C2724 C 0.50151 0.98284 0.96187 0.0
C2725 C 0.49497 0.96502 0.96794 0.0
C2726 C 0.48451 0.99294 0.0777 0.0
C2727 C 0.51183 0.99165 0.91707 0.0
H2728 H 0.49447 0.04044 0.94889 0.0
H2729 H 0.54201 0.04968 0.01427 0.0
H2730 H 0.47785 0.99637 0.9239 0.0
H2731 H 0.4687 0.99742 0.98028 0.0
H2732 H 0.47146 0.01244 0.93287 0.0
H2733 H 0.5458 0.02739 0.04549 0.0
H2734 H 0.52608 0.00852 0.06495 0.0
H2735 H 0.53557 0.00823 0.00844 0.0
H2736 H 0.47314 0.95857 0.07356 0.0
H2737 H 0.49753 0.95786 0.9407 0.0
H2738 H 0.47727 0.99902 0.06283 0.0
H2739 H 0.49695 0.00352 0.09208 0.0
H2740 H 0.47693 0.98431 0.10801 0.0
H2741 H 0.50574 0.9981 0.89759 0.0
H2742 H 0.51278 0.98242 0.89206 0.0
H2743 H 0.52512 0.00184 0.92713 0.0
C2744 C 0.96736 0.48395 0.93475 0.0
C2745 C 0.95821 0.47119 0.96957 0.0
C2746 C 0.9853 0.49518 0.93912 0.0
C2747 C 0.99413 0.49396 0.98012 0.0
C2748 C 0.9849 0.48113 0.0155 0.0
C2749 C 0.96709 0.46972 0.00939 0.0
C2750 C 0.99479 0.50833 0.89989 0.0
C2751 C 0.99375 0.47971 0.06033 0.0
C2752 C 0.04288 0.51279 0.97648 0.0
C2753 C 0.04887 0.52908 -0.00233 0.0
C2754 C 0.02511 0.50135 0.96979 0.0
C2755 C 0.01303 0.50611 0.98611 0.0
C2756 C 0.01901 0.52244 0.00836 0.0
C2757 C 0.0369 0.53387 0.01312 0.0
C2758 C 0.01929 0.48429 0.94463 0.0
C2759 C 0.00651 0.52777 0.02751 0.0
H2760 H 0.9605 0.48504 0.90384 0.0
H2761 H 0.95998 0.45999 0.03669 0.0
H2762 H 1.00047 0.52161 0.91478 0.0
H2763 H 0.00566 0.50686 0.88601 0.0
H2764 H 0.98619 0.50702 0.86923 0.0
H2765 H 0.98464 0.46925 0.08486 0.0
H2766 H 0.00428 0.47712 0.05029 0.0
H2767 H 0.99979 0.49216 0.08032 0.0
H2768 H 0.05215 0.50917 0.96394 0.0
H2769 H 0.04153 0.54644 0.02969 0.0
H2770 H 0.0113 0.48319 0.91265 0.0
H2771 H 0.01105 0.47341 0.96914 0.0
H2772 H 0.03037 0.48281 0.93263 0.0
H2773 H 0.99848 0.52825 -0.00238 0.0
H2774 H 0.01324 0.54064 0.04539 0.0
H2775 H 0.99755 0.51803 0.05387 0.0
C2776 C 0.53376 0.49561 0.97402 0.0
C2777 C 0.52799 0.47872 0.99034 0.0
C2778 C 0.52272 0.5026 0.97462 0.0
C2779 C 0.50575 0.49266 0.99352 0.0
C2780 C 0.49996 0.47566 0.01052 0.0
C2781 C 0.51107 0.4688 0.00799 0.0
C2782 C 0.52917 0.52058 0.95483 0.0
C2783 C 0.48214 0.46483 0.03219 0.0
C2784 C 0.48378 0.51717 0.03828 0.0
C2785 C 0.47183 0.51399 0.0013 0.0
C2786 C 0.49473 0.5101 0.03655 0.0
C2787 C 0.49409 0.50009 -0.00393 0.0
C2788 C 0.48219 0.49704 0.9583 0.0
C2789 C 0.47099 0.5038 0.96177 0.0
C2790 C 0.50687 0.51319 0.07821 0.0
C2791 C 0.48145 0.48686 0.91394 0.0
H2792 H 0.54681 0.50324 0.96005 0.0
H2793 H 0.50666 0.45579 0.0211 0.0
H2794 H 0.52024 0.52023 0.92636 0.0
H2795 H 0.52938 0.52924 0.98386 0.0
H2796 H 0.5424 0.52628 0.93933 0.0
H2797 H 0.47978 0.452 0.04478 0.0
H2798 H 0.48055 0.47177 0.06325 0.0
H2799 H 0.47208 0.46276 0.00525 0.0
H2800 H 0.48436 0.52498 0.06899 0.0
H2801 H 0.46188 0.5015 0.93288 0.0
H2802 H 0.52049 0.5203 0.06552 0.0
H2803 H 0.50448 0.50062 0.09305 0.0
H2804 H 0.50534 0.52075 0.10773 0.0
H2805 H 0.4944 0.49288 0.8966 0.0
H2806 H 0.47189 0.48618 0.88704 0.0
H2807 H 0.47796 0.47348 0.92422 0.0
loop_
_geom_bond_atom_site_label_1
_geom_bond_atom_site_label_2
_geom_bond_distance
_geom_bond_site_symmetry_2
_ccdc_geom_bond_type
Co0 O1 2.216 . S
Co0 O2 2.091 . S
Co0 O4 2.004 . S
Co0 O10 2.021 . S
Co0 O12 2.137 . S
Co0 O13 2.244 . S
O1 Co0 2.216 . S
O1 C8 1.247 . S
O2 Co0 2.091 . S
O2 C8 1.261 . S
C3 O12 1.247 . S
C3 O13 1.272 . S
O4 Co0 2.004 . S
O4 C9 1.259 . S
Co5 O6 2.061 . S
Co5 O11 2.052 . S
Co5 O13 2.135 . S
O6 Co5 2.061 . S
O6 C9 1.235 . S
C7 O10 1.238 . S
C7 O11 1.241 . S
C8 O1 1.247 . S
C8 O2 1.261 . S
C9 O4 1.259 . S
C9 O6 1.235 . S
O10 Co0 2.021 . S
O10 C7 1.238 . S
O11 Co5 2.052 . S
O11 C7 1.241 . S
O12 Co0 2.137 . S
O12 C3 1.247 . S
O13 Co0 2.244 . S
O13 C3 1.272 . S
O13 Co5 2.135 . S
Co14 O15 2.216 . S
Co14 O16 2.091 . S
Co14 O18 2.004 . S
Co14 O24 2.021 . S
Co14 O26 2.137 . S
Co14 O27 2.244 . S
O15 Co14 2.216 . S
O15 C22 1.247 . S
O16 Co14 2.091 . S
O16 C22 1.261 . S
C17 O26 1.247 . S
C17 O27 1.272 . S
O18 Co14 2.004 . S
O18 C23 1.259 . S
Co19 O20 2.061 . S
Co19 O25 2.052 . S
Co19 O27 2.135 . S
O20 Co19 2.061 . S
O20 C23 1.235 . S
C21 O24 1.238 . S
C21 O25 1.241 . S
C22 O15 1.247 . S
C22 O16 1.261 . S
C23 O18 1.259 . S
C23 O20 1.235 . S
O24 Co14 2.021 . S
O24 C21 1.238 . S
O25 Co19 2.052 . S
O25 C21 1.241 . S
O26 Co14 2.137 . S
O26 C17 1.247 . S
O27 Co14 2.244 . S
O27 C17 1.272 . S
O27 Co19 2.135 . S
Co28 O29 2.216 . S
Co28 O30 2.091 . S
Co28 O32 2.004 . S
Co28 O38 2.021 . S
Co28 O40 2.137 . S
Co28 O41 2.244 . S
O29 Co28 2.216 . S
O29 C36 1.247 . S
O30 Co28 2.091 . S
O30 C36 1.261 . S
C31 O40 1.247 . S
C31 O41 1.272 . S
O32 Co28 2.004 . S
O32 C37 1.259 . S
Co33 O34 2.061 . S
Co33 O39 2.052 . S
Co33 O41 2.135 . S
O34 Co33 2.061 . S
O34 C37 1.235 . S
C35 O38 1.238 . S
C35 O39 1.241 . S
C36 O29 1.247 . S
C36 O30 1.261 . S
C37 O32 1.259 . S
C37 O34 1.235 . S
O38 Co28 2.021 . S
O38 C35 1.238 . S
O39 Co33 2.052 . S
O39 C35 1.241 . S
O40 Co28 2.137 . S
O40 C31 1.247 . S
O41 Co28 2.244 . S
O41 C31 1.272 . S
O41 Co33 2.135 . S
Co42 O43 2.216 . S
Co42 O44 2.091 . S
Co42 O46 2.004 . S
Co42 O52 2.021 . S
Co42 O54 2.137 . S
Co42 O55 2.244 . S
O43 Co42 2.216 . S
O43 C50 1.247 . S
O44 Co42 2.091 . S
O44 C50 1.261 . S
C45 O54 1.247 . S
C45 O55 1.272 . S
O46 Co42 2.004 . S
O46 C51 1.259 . S
Co47 O48 2.061 . S
Co47 O53 2.052 . S
Co47 O55 2.135 . S
O48 Co47 2.061 . S
O48 C51 1.235 . S
C49 O52 1.238 . S
C49 O53 1.241 . S
C50 O43 1.247 . S
C50 O44 1.261 . S
C51 O46 1.259 . S
C51 O48 1.235 . S
O52 Co42 2.021 . S
O52 C49 1.238 . S
O53 Co47 2.052 . S
O53 C49 1.241 . S
O54 Co42 2.137 . S
O54 C45 1.247 . S
O55 Co42 2.244 . S
O55 C45 1.272 . S
O55 Co47 2.135 . S
Co56 O57 2.216 . S
Co56 O58 2.091 . S
Co56 O60 2.004 . S
Co56 O66 2.021 . S
Co56 O68 2.137 . S
Co56 O69 2.244 . S
O57 Co56 2.216 . S
O57 C64 1.247 . S
O58 Co56 2.091 . S
O58 C64 1.261 . S
C59 O68 1.247 . S
C59 O69 1.272 . S
O60 Co56 2.004 . S
O60 C65 1.259 . S
Co61 O62 2.061 . S
Co61 O67 2.052 . S
Co61 O69 2.135 . S
O62 Co61 2.061 . S
O62 C65 1.235 . S
C63 O66 1.238 . S
C63 O67 1.241 . S
C64 O57 1.247 . S
C64 O58 1.261 . S
C65 O60 1.259 . S
C65 O62 1.235 . S
O66 Co56 2.021 . S
O66 C63 1.238 . S
O67 Co61 2.052 . S
O67 C63 1.241 . S
O68 Co56 2.137 . S
O68 C59 1.247 . S
O69 Co56 2.244 . S
O69 C59 1.272 . S
O69 Co61 2.135 . S
Co70 O71 2.216 . S
Co70 O72 2.091 . S
Co70 O74 2.004 . S
Co70 O80 2.021 . S
Co70 O82 2.137 . S
Co70 O83 2.244 . S
O71 Co70 2.216 . S
O71 C78 1.247 . S
O72 Co70 2.091 . S
O72 C78 1.261 . S
C73 O82 1.247 . S
C73 O83 1.272 . S
O74 Co70 2.004 . S
O74 C79 1.259 . S
Co75 O76 2.061 . S
Co75 O81 2.052 . S
Co75 O83 2.135 . S
O76 Co75 2.061 . S
O76 C79 1.235 . S
C77 O80 1.238 . S
C77 O81 1.241 . S
C78 O71 1.247 . S
C78 O72 1.261 . S
C79 O74 1.259 . S
C79 O76 1.235 . S
O80 Co70 2.021 . S
O80 C77 1.238 . S
O81 Co75 2.052 . S
O81 C77 1.241 . S
O82 Co70 2.137 . S
O82 C73 1.247 . S
O83 Co70 2.244 . S
O83 C73 1.272 . S
O83 Co75 2.135 . S
Co84 O85 2.216 . S
Co84 O86 2.091 . S
Co84 O88 2.004 . S
Co84 O94 2.021 . S
Co84 O96 2.137 . S
Co84 O97 2.244 . S
O85 Co84 2.216 . S
O85 C92 1.247 . S
O86 Co84 2.091 . S
O86 C92 1.261 . S
C87 O96 1.247 . S
C87 O97 1.272 . S
O88 Co84 2.004 . S
O88 C93 1.259 . S
Co89 O90 2.061 . S
Co89 O95 2.052 . S
Co89 O97 2.135 . S
O90 Co89 2.061 . S
O90 C93 1.235 . S
C91 O94 1.238 . S
C91 O95 1.241 . S
C92 O85 1.247 . S
C92 O86 1.261 . S
C93 O88 1.259 . S
C93 O90 1.235 . S
O94 Co84 2.021 . S
O94 C91 1.238 . S
O95 Co89 2.052 . S
O95 C91 1.241 . S
O96 Co84 2.137 . S
O96 C87 1.247 . S
O97 Co84 2.244 . S
O97 C87 1.272 . S
O97 Co89 2.135 . S
Co98 O99 2.216 . S
Co98 O100 2.091 . S
Co98 O102 2.004 . S
Co98 O108 2.021 . S
Co98 O110 2.137 . S
Co98 O111 2.244 . S
O99 Co98 2.216 . S
O99 C106 1.247 . S
O100 Co98 2.091 . S
O100 C106 1.261 . S
C101 O110 1.247 . S
C101 O111 1.272 . S
O102 Co98 2.004 . S
O102 C107 1.259 . S
Co103 O104 2.061 . S
Co103 O109 2.052 . S
Co103 O111 2.135 . S
O104 Co103 2.061 . S
O104 C107 1.235 . S
C105 O108 1.238 . S
C105 O109 1.241 . S
C106 O99 1.247 . S
C106 O100 1.261 . S
C107 O102 1.259 . S
C107 O104 1.235 . S
O108 Co98 2.021 . S
O108 C105 1.238 . S
O109 Co103 2.052 . S
O109 C105 1.241 . S
O110 Co98 2.137 . S
O110 C101 1.247 . S
O111 Co98 2.244 . S
O111 C101 1.272 . S
O111 Co103 2.135 . S
Co112 O113 2.216 . S
Co112 O114 2.091 . S
Co112 O116 2.004 . S
Co112 O122 2.021 . S
Co112 O124 2.137 . S
Co112 O125 2.244 . S
O113 Co112 2.216 . S
O113 C120 1.247 . S
O114 Co112 2.091 . S
O114 C120 1.261 . S
C115 O124 1.247 . S
C115 O125 1.272 . S
O116 Co112 2.004 . S
O116 C121 1.259 . S
Co117 O118 2.061 . S
Co117 O123 2.052 . S
Co117 O125 2.135 . S
O118 Co117 2.061 . S
O118 C121 1.235 . S
C119 O122 1.238 . S
C119 O123 1.241 . S
C120 O113 1.247 . S
C120 O114 1.261 . S
C121 O116 1.259 . S
C121 O118 1.235 . S
O122 Co112 2.021 . S
O122 C119 1.238 . S
O123 Co117 2.052 . S
O123 C119 1.241 . S
O124 Co112 2.137 . S
O124 C115 1.247 . S
O125 Co112 2.244 . S
O125 C115 1.272 . S
O125 Co117 2.135 . S
Co126 O127 2.216 . S
Co126 O128 2.091 . S
Co126 O130 2.004 . S
Co126 O136 2.021 . S
Co126 O138 2.137 . S
Co126 O139 2.244 . S
O127 Co126 2.216 . S
O127 C134 1.247 . S
O128 Co126 2.091 . S
O128 C134 1.261 . S
C129 O138 1.247 . S
C129 O139 1.272 . S
O130 Co126 2.004 . S
O130 C135 1.259 . S
Co131 O132 2.061 . S
Co131 O137 2.052 . S
Co131 O139 2.135 . S
O132 Co131 2.061 . S
O132 C135 1.235 . S
C133 O136 1.238 . S
C133 O137 1.241 . S
C134 O127 1.247 . S
C134 O128 1.261 . S
C135 O130 1.259 . S
C135 O132 1.235 . S
O136 Co126 2.021 . S
O136 C133 1.238 . S
O137 Co131 2.052 . S
O137 C133 1.241 . S
O138 Co126 2.137 . S
O138 C129 1.247 . S
O139 Co126 2.244 . S
O139 C129 1.272 . S
O139 Co131 2.135 . S
Co140 O141 2.216 . S
Co140 O142 2.091 . S
Co140 O144 2.004 . S
Co140 O150 2.021 . S
Co140 O152 2.137 . S
Co140 O153 2.244 . S
O141 Co140 2.216 . S
O141 C148 1.247 . S
O142 Co140 2.091 . S
O142 C148 1.261 . S
C143 O152 1.247 . S
C143 O153 1.272 . S
O144 Co140 2.004 . S
O144 C149 1.259 . S
Co145 O146 2.061 . S
Co145 O151 2.052 . S
Co145 O153 2.135 . S
O146 Co145 2.061 . S
O146 C149 1.235 . S
C147 O150 1.238 . S
C147 O151 1.241 . S
C148 O141 1.247 . S
C148 O142 1.261 . S
C149 O144 1.259 . S
C149 O146 1.235 . S
O150 Co140 2.021 . S
O150 C147 1.238 . S
O151 Co145 2.052 . S
O151 C147 1.241 . S
O152 Co140 2.137 . S
O152 C143 1.247 . S
O153 Co140 2.244 . S
O153 C143 1.272 . S
O153 Co145 2.135 . S
Co154 O155 2.216 . S
Co154 O156 2.091 . S
Co154 O158 2.004 . S
Co154 O164 2.021 . S
Co154 O166 2.137 . S
Co154 O167 2.244 . S
O155 Co154 2.216 . S
O155 C162 1.247 . S
O156 Co154 2.091 . S
O156 C162 1.261 . S
C157 O166 1.247 . S
C157 O167 1.272 . S
O158 Co154 2.004 . S
O158 C163 1.259 . S
Co159 O160 2.061 . S
Co159 O165 2.052 . S
Co159 O167 2.135 . S
O160 Co159 2.061 . S
O160 C163 1.235 . S
C161 O164 1.238 . S
C161 O165 1.241 . S
C162 O155 1.247 . S
C162 O156 1.261 . S
C163 O158 1.259 . S
C163 O160 1.235 . S
O164 Co154 2.021 . S
O164 C161 1.238 . S
O165 Co159 2.052 . S
O165 C161 1.241 . S
O166 Co154 2.137 . S
O166 C157 1.247 . S
O167 Co154 2.244 . S
O167 C157 1.272 . S
O167 Co159 2.135 . S
Co168 O169 2.216 . S
Co168 O170 2.091 . S
Co168 O172 2.004 . S
Co168 O178 2.021 . S
Co168 O180 2.137 . S
Co168 O181 2.244 . S
O169 Co168 2.216 . S
O169 C176 1.247 . S
O170 Co168 2.091 . S
O170 C176 1.261 . S
C171 O180 1.247 . S
C171 O181 1.272 . S
O172 Co168 2.004 . S
O172 C177 1.259 . S
Co173 O174 2.061 . S
Co173 O179 2.052 . S
Co173 O181 2.135 . S
O174 Co173 2.061 . S
O174 C177 1.235 . S
C175 O178 1.238 . S
C175 O179 1.241 . S
C176 O169 1.247 . S
C176 O170 1.261 . S
C177 O172 1.259 . S
C177 O174 1.235 . S
O178 Co168 2.021 . S
O178 C175 1.238 . S
O179 Co173 2.052 . S
O179 C175 1.241 . S
O180 Co168 2.137 . S
O180 C171 1.247 . S
O181 Co168 2.244 . S
O181 C171 1.272 . S
O181 Co173 2.135 . S
Co182 O183 2.216 . S
Co182 O184 2.091 . S
Co182 O186 2.004 . S
Co182 O192 2.021 . S
Co182 O194 2.137 . S
Co182 O195 2.244 . S
O183 Co182 2.216 . S
O183 C190 1.247 . S
O184 Co182 2.091 . S
O184 C190 1.261 . S
C185 O194 1.247 . S
C185 O195 1.272 . S
O186 Co182 2.004 . S
O186 C191 1.259 . S
Co187 O188 2.061 . S
Co187 O193 2.052 . S
Co187 O195 2.135 . S
O188 Co187 2.061 . S
O188 C191 1.235 . S
C189 O192 1.238 . S
C189 O193 1.241 . S
C190 O183 1.247 . S
C190 O184 1.261 . S
C191 O186 1.259 . S
C191 O188 1.235 . S
O192 Co182 2.021 . S
O192 C189 1.238 . S
O193 Co187 2.052 . S
O193 C189 1.241 . S
O194 Co182 2.137 . S
O194 C185 1.247 . S
O195 Co182 2.244 . S
O195 C185 1.272 . S
O195 Co187 2.135 . S
Co196 O197 2.216 . S
Co196 O198 2.091 . S
Co196 O200 2.004 . S
Co196 O206 2.021 . S
Co196 O208 2.137 . S
Co196 O209 2.244 . S
O197 Co196 2.216 . S
O197 C204 1.247 . S
O198 Co196 2.091 . S
O198 C204 1.261 . S
C199 O208 1.247 . S
C199 O209 1.272 . S
O200 Co196 2.004 . S
O200 C205 1.259 . S
Co201 O202 2.061 . S
Co201 O207 2.052 . S
Co201 O209 2.135 . S
O202 Co201 2.061 . S
O202 C205 1.235 . S
C203 O206 1.238 . S
C203 O207 1.241 . S
C204 O197 1.247 . S
C204 O198 1.261 . S
C205 O200 1.259 . S
C205 O202 1.235 . S
O206 Co196 2.021 . S
O206 C203 1.238 . S
O207 Co201 2.052 . S
O207 C203 1.241 . S
O208 Co196 2.137 . S
O208 C199 1.247 . S
O209 Co196 2.244 . S
O209 C199 1.272 . S
O209 Co201 2.135 . S
Co210 O211 2.216 . S
Co210 O212 2.091 . S
Co210 O214 2.004 . S
Co210 O220 2.021 . S
Co210 O222 2.137 . S
Co210 O223 2.244 . S
O211 Co210 2.216 . S
O211 C218 1.247 . S
O212 Co210 2.091 . S
O212 C218 1.261 . S
C213 O222 1.247 . S
C213 O223 1.272 . S
O214 Co210 2.004 . S
O214 C219 1.259 . S
Co215 O216 2.061 . S
Co215 O221 2.052 . S
Co215 O223 2.135 . S
O216 Co215 2.061 . S
O216 C219 1.235 . S
C217 O220 1.238 . S
C217 O221 1.241 . S
C218 O211 1.247 . S
C218 O212 1.261 . S
C219 O214 1.259 . S
C219 O216 1.235 . S
O220 Co210 2.021 . S
O220 C217 1.238 . S
O221 Co215 2.052 . S
O221 C217 1.241 . S
O222 Co210 2.137 . S
O222 C213 1.247 . S
O223 Co210 2.244 . S
O223 C213 1.272 . S
O223 Co215 2.135 . S
Co224 O225 2.216 . S
Co224 O226 2.091 . S
Co224 O228 2.004 . S
Co224 O234 2.021 . S
Co224 O236 2.137 . S
Co224 O237 2.244 . S
O225 Co224 2.216 . S
O225 C232 1.247 . S
O226 Co224 2.091 . S
O226 C232 1.261 . S
C227 O236 1.247 . S
C227 O237 1.272 . S
O228 Co224 2.004 . S
O228 C233 1.259 . S
Co229 O230 2.061 . S
Co229 O235 2.052 . S
Co229 O237 2.135 . S
O230 Co229 2.061 . S
O230 C233 1.235 . S
C231 O234 1.238 . S
C231 O235 1.241 . S
C232 O225 1.247 . S
C232 O226 1.261 . S
C233 O228 1.259 . S
C233 O230 1.235 . S
O234 Co224 2.021 . S
O234 C231 1.238 . S
O235 Co229 2.052 . S
O235 C231 1.241 . S
O236 Co224 2.137 . S
O236 C227 1.247 . S
O237 Co224 2.244 . S
O237 C227 1.272 . S
O237 Co229 2.135 . S
Co238 O239 2.216 . S
Co238 O240 2.091 . S
Co238 O242 2.004 . S
Co238 O248 2.021 . S
Co238 O250 2.137 . S
Co238 O251 2.244 . S
O239 Co238 2.216 . S
O239 C246 1.247 . S
O240 Co238 2.091 . S
O240 C246 1.261 . S
C241 O250 1.247 . S
C241 O251 1.272 . S
O242 Co238 2.004 . S
O242 C247 1.259 . S
Co243 O244 2.061 . S
Co243 O249 2.052 . S
Co243 O251 2.135 . S
O244 Co243 2.061 . S
O244 C247 1.235 . S
C245 O248 1.238 . S
C245 O249 1.241 . S
C246 O239 1.247 . S
C246 O240 1.261 . S
C247 O242 1.259 . S
C247 O244 1.235 . S
O248 Co238 2.021 . S
O248 C245 1.238 . S
O249 Co243 2.052 . S
O249 C245 1.241 . S
O250 Co238 2.137 . S
O250 C241 1.247 . S
O251 Co238 2.244 . S
O251 C241 1.272 . S
O251 Co243 2.135 . S
Co252 O253 2.216 . S
Co252 O254 2.091 . S
Co252 O256 2.004 . S
Co252 O262 2.021 . S
Co252 O264 2.137 . S
Co252 O265 2.244 . S
O253 Co252 2.216 . S
O253 C260 1.247 . S
O254 Co252 2.091 . S
O254 C260 1.261 . S
C255 O264 1.247 . S
C255 O265 1.272 . S
O256 Co252 2.004 . S
O256 C261 1.259 . S
Co257 O258 2.061 . S
Co257 O263 2.052 . S
Co257 O265 2.135 . S
O258 Co257 2.061 . S
O258 C261 1.235 . S
C259 O262 1.238 . S
C259 O263 1.241 . S
C260 O253 1.247 . S
C260 O254 1.261 . S
C261 O256 1.259 . S
C261 O258 1.235 . S
O262 Co252 2.021 . S
O262 C259 1.238 . S
O263 Co257 2.052 . S
O263 C259 1.241 . S
O264 Co252 2.137 . S
O264 C255 1.247 . S
O265 Co252 2.244 . S
O265 C255 1.272 . S
O265 Co257 2.135 . S
Co266 O267 2.216 . S
Co266 O268 2.091 . S
Co266 O270 2.004 . S
Co266 O276 2.021 . S
Co266 O278 2.137 . S
Co266 O279 2.244 . S
O267 Co266 2.216 . S
O267 C274 1.247 . S
O268 Co266 2.091 . S
O268 C274 1.261 . S
C269 O278 1.247 . S
C269 O279 1.272 . S
O270 Co266 2.004 . S
O270 C275 1.259 . S
Co271 O272 2.061 . S
Co271 O277 2.052 . S
Co271 O279 2.135 . S
O272 Co271 2.061 . S
O272 C275 1.235 . S
C273 O276 1.238 . S
C273 O277 1.241 . S
C274 O267 1.247 . S
C274 O268 1.261 . S
C275 O270 1.259 . S
C275 O272 1.235 . S
O276 Co266 2.021 . S
O276 C273 1.238 . S
O277 Co271 2.052 . S
O277 C273 1.241 . S
O278 Co266 2.137 . S
O278 C269 1.247 . S
O279 Co266 2.244 . S
O279 C269 1.272 . S
O279 Co271 2.135 . S
Co280 O281 2.216 . S
Co280 O282 2.091 . S
Co280 O284 2.004 . S
Co280 O290 2.021 . S
Co280 O292 2.137 . S
Co280 O293 2.244 . S
O281 Co280 2.216 . S
O281 C288 1.247 . S
O282 Co280 2.091 . S
O282 C288 1.261 . S
C283 O292 1.247 . S
C283 O293 1.272 . S
O284 Co280 2.004 . S
O284 C289 1.259 . S
Co285 O286 2.061 . S
Co285 O291 2.052 . S
Co285 O293 2.135 . S
O286 Co285 2.061 . S
O286 C289 1.235 . S
C287 O290 1.238 . S
C287 O291 1.241 . S
C288 O281 1.247 . S
C288 O282 1.261 . S
C289 O284 1.259 . S
C289 O286 1.235 . S
O290 Co280 2.021 . S
O290 C287 1.238 . S
O291 Co285 2.052 . S
O291 C287 1.241 . S
O292 Co280 2.137 . S
O292 C283 1.247 . S
O293 Co280 2.244 . S
O293 C283 1.272 . S
O293 Co285 2.135 . S
Co294 O295 2.216 . S
Co294 O296 2.091 . S
Co294 O298 2.004 . S
Co294 O304 2.021 . S
Co294 O306 2.137 1_554 S
Co294 O307 2.244 1_554 S
O295 Co294 2.216 . S
O295 C302 1.247 . S
O296 Co294 2.091 . S
O296 C302 1.261 . S
C297 O306 1.247 . S
C297 O307 1.272 . S
O298 Co294 2.004 . S
O298 C303 1.259 . S
Co299 O300 2.061 . S
Co299 O305 2.052 . S
Co299 O307 2.135 1_554 S
O300 Co299 2.061 . S
O300 C303 1.235 . S
C301 O304 1.238 . S
C301 O305 1.241 . S
C302 O295 1.247 . S
C302 O296 1.261 . S
C303 O298 1.259 . S
C303 O300 1.235 . S
O304 Co294 2.021 . S
O304 C301 1.238 . S
O305 Co299 2.052 . S
O305 C301 1.241 . S
O306 Co294 2.137 1_556 S
O306 C297 1.247 . S
O307 Co294 2.244 1_556 S
O307 C297 1.272 . S
O307 Co299 2.135 1_556 S
Co308 O309 2.216 . S
Co308 O310 2.091 . S
Co308 O312 2.004 . S
Co308 O318 2.021 . S
Co308 O320 2.137 1_554 S
Co308 O321 2.244 1_554 S
O309 Co308 2.216 . S
O309 C316 1.247 . S
O310 Co308 2.091 . S
O310 C316 1.261 . S
C311 O320 1.247 . S
C311 O321 1.272 . S
O312 Co308 2.004 . S
O312 C317 1.259 . S
Co313 O314 2.061 . S
Co313 O319 2.052 . S
Co313 O321 2.135 1_554 S
O314 Co313 2.061 . S
O314 C317 1.235 . S
C315 O318 1.238 . S
C315 O319 1.241 . S
C316 O309 1.247 . S
C316 O310 1.261 . S
C317 O312 1.259 . S
C317 O314 1.235 . S
O318 Co308 2.021 . S
O318 C315 1.238 . S
O319 Co313 2.052 . S
O319 C315 1.241 . S
O320 Co308 2.137 1_556 S
O320 C311 1.247 . S
O321 Co308 2.244 1_556 S
O321 C311 1.272 . S
O321 Co313 2.135 1_556 S
Co322 O323 2.216 . S
Co322 O324 2.091 . S
Co322 O326 2.004 . S
Co322 O332 2.021 . S
Co322 O334 2.137 1_554 S
Co322 O335 2.244 1_554 S
O323 Co322 2.216 . S
O323 C330 1.247 . S
O324 Co322 2.091 . S
O324 C330 1.261 . S
C325 O334 1.247 . S
C325 O335 1.272 . S
O326 Co322 2.004 . S
O326 C331 1.259 . S
Co327 O328 2.061 . S
Co327 O333 2.052 . S
Co327 O335 2.135 1_554 S
O328 Co327 2.061 . S
O328 C331 1.235 . S
C329 O332 1.238 . S
C329 O333 1.241 . S
C330 O323 1.247 . S
C330 O324 1.261 . S
C331 O326 1.259 . S
C331 O328 1.235 . S
O332 Co322 2.021 . S
O332 C329 1.238 . S
O333 Co327 2.052 . S
O333 C329 1.241 . S
O334 Co322 2.137 1_556 S
O334 C325 1.247 . S
O335 Co322 2.244 1_556 S
O335 C325 1.272 . S
O335 Co327 2.135 1_556 S
Co336 O337 2.216 . S
Co336 O338 2.091 . S
Co336 O340 2.004 . S
Co336 O346 2.021 . S
Co336 O348 2.137 . S
Co336 O349 2.244 . S
O337 Co336 2.216 . S
O337 C344 1.247 . S
O338 Co336 2.091 . S
O338 C344 1.261 . S
C339 O348 1.247 . S
C339 O349 1.272 . S
O340 Co336 2.004 . S
O340 C345 1.259 . S
Co341 O342 2.061 . S
Co341 O347 2.052 . S
Co341 O349 2.135 . S
O342 Co341 2.061 . S
O342 C345 1.235 . S
C343 O346 1.238 . S
C343 O347 1.241 . S
C344 O337 1.247 . S
C344 O338 1.261 . S
C345 O340 1.259 . S
C345 O342 1.235 . S
O346 Co336 2.021 . S
O346 C343 1.238 . S
O347 Co341 2.052 . S
O347 C343 1.241 . S
O348 Co336 2.137 . S
O348 C339 1.247 . S
O349 Co336 2.244 . S
O349 C339 1.272 . S
O349 Co341 2.135 . S
Co350 O351 2.216 . S
Co350 O352 2.091 . S
Co350 O354 2.004 . S
Co350 O360 2.021 . S
Co350 O362 2.137 . S
Co350 O363 2.244 . S
O351 Co350 2.216 . S
O351 C358 1.247 . S
O352 Co350 2.091 . S
O352 C358 1.261 . S
C353 O362 1.247 . S
C353 O363 1.272 . S
O354 Co350 2.004 . S
O354 C359 1.259 . S
Co355 O356 2.061 . S
Co355 O361 2.052 . S
Co355 O363 2.135 . S
O356 Co355 2.061 . S
O356 C359 1.235 . S
C357 O360 1.238 . S
C357 O361 1.241 . S
C358 O351 1.247 . S
C358 O352 1.261 . S
C359 O354 1.259 . S
C359 O356 1.235 . S
O360 Co350 2.021 . S
O360 C357 1.238 . S
O361 Co355 2.052 . S
O361 C357 1.241 . S
O362 Co350 2.137 . S
O362 C353 1.247 . S
O363 Co350 2.244 . S
O363 C353 1.272 . S
O363 Co355 2.135 . S
Co364 O365 2.216 . S
Co364 O366 2.091 . S
Co364 O368 2.004 . S
Co364 O374 2.021 . S
Co364 O376 2.137 . S
Co364 O377 2.244 . S
O365 Co364 2.216 . S
O365 C372 1.247 . S
O366 Co364 2.091 . S
O366 C372 1.261 . S
C367 O376 1.247 . S
C367 O377 1.272 . S
O368 Co364 2.004 . S
O368 C373 1.259 . S
Co369 O370 2.061 . S
Co369 O375 2.052 . S
Co369 O377 2.135 . S
O370 Co369 2.061 . S
O370 C373 1.235 . S
C371 O374 1.238 . S
C371 O375 1.241 . S
C372 O365 1.247 . S
C372 O366 1.261 . S
C373 O368 1.259 . S
C373 O370 1.235 . S
O374 Co364 2.021 . S
O374 C371 1.238 . S
O375 Co369 2.052 . S
O375 C371 1.241 . S
O376 Co364 2.137 . S
O376 C367 1.247 . S
O377 Co364 2.244 . S
O377 C367 1.272 . S
O377 Co369 2.135 . S
Co378 O379 2.216 . S
Co378 O380 2.091 . S
Co378 O382 2.004 . S
Co378 O388 2.021 . S
Co378 O390 2.137 1_556 S
Co378 O391 2.244 1_556 S
O379 Co378 2.216 . S
O379 C386 1.247 . S
O380 Co378 2.091 . S
O380 C386 1.261 . S
C381 O390 1.247 . S
C381 O391 1.272 . S
O382 Co378 2.004 . S
O382 C387 1.259 . S
Co383 O384 2.061 . S
Co383 O389 2.052 . S
Co383 O391 2.135 1_556 S
O384 Co383 2.061 . S
O384 C387 1.235 . S
C385 O388 1.238 . S
C385 O389 1.241 . S
C386 O379 1.247 . S
C386 O380 1.261 . S
C387 O382 1.259 . S
C387 O384 1.235 . S
O388 Co378 2.021 . S
O388 C385 1.238 . S
O389 Co383 2.052 . S
O389 C385 1.241 . S
O390 Co378 2.137 1_554 S
O390 C381 1.247 . S
O391 Co378 2.244 1_554 S
O391 C381 1.272 . S
O391 Co383 2.135 1_554 S
Co392 O393 2.216 . S
Co392 O394 2.091 . S
Co392 O396 2.004 . S
Co392 O402 2.021 . S
Co392 O404 2.137 1_556 S
Co392 O405 2.244 1_556 S
O393 Co392 2.216 . S
O393 C400 1.247 . S
O394 Co392 2.091 . S
O394 C400 1.261 . S
C395 O404 1.247 . S
C395 O405 1.272 . S
O396 Co392 2.004 . S
O396 C401 1.259 . S
Co397 O398 2.061 . S
Co397 O403 2.052 . S
Co397 O405 2.135 1_556 S
O398 Co397 2.061 . S
O398 C401 1.235 . S
C399 O402 1.238 . S
C399 O403 1.241 . S
C400 O393 1.247 . S
C400 O394 1.261 . S
C401 O396 1.259 . S
C401 O398 1.235 . S
O402 Co392 2.021 . S
O402 C399 1.238 . S
O403 Co397 2.052 . S
O403 C399 1.241 . S
O404 Co392 2.137 1_554 S
O404 C395 1.247 . S
O405 Co392 2.244 1_554 S
O405 C395 1.272 . S
O405 Co397 2.135 1_554 S
Co406 O407 2.216 . S
Co406 O408 2.091 . S
Co406 O410 2.004 . S
Co406 O416 2.021 . S
Co406 O418 2.137 1_556 S
Co406 O419 2.244 1_556 S
O407 Co406 2.216 . S
O407 C414 1.247 . S
O408 Co406 2.091 . S
O408 C414 1.261 . S
C409 O418 1.247 . S
C409 O419 1.272 . S
O410 Co406 2.004 . S
O410 C415 1.259 . S
Co411 O412 2.061 . S
Co411 O417 2.052 . S
Co411 O419 2.135 1_556 S
O412 Co411 2.061 . S
O412 C415 1.235 . S
C413 O416 1.238 . S
C413 O417 1.241 . S
C414 O407 1.247 . S
C414 O408 1.261 . S
C415 O410 1.259 . S
C415 O412 1.235 . S
O416 Co406 2.021 . S
O416 C413 1.238 . S
O417 Co411 2.052 . S
O417 C413 1.241 . S
O418 Co406 2.137 1_554 S
O418 C409 1.247 . S
O419 Co406 2.244 1_554 S
O419 C409 1.272 . S
O419 Co411 2.135 1_554 S
Co420 O421 2.216 . S
Co420 O422 2.091 . S
Co420 O424 2.004 . S
Co420 O430 2.021 . S
Co420 O432 2.137 . S
Co420 O433 2.244 . S
O421 Co420 2.216 . S
O421 C428 1.247 . S
O422 Co420 2.091 . S
O422 C428 1.261 . S
C423 O432 1.247 . S
C423 O433 1.272 . S
O424 Co420 2.004 . S
O424 C429 1.259 . S
Co425 O426 2.061 . S
Co425 O431 2.052 . S
Co425 O433 2.135 . S
O426 Co425 2.061 . S
O426 C429 1.235 . S
C427 O430 1.238 . S
C427 O431 1.241 . S
C428 O421 1.247 . S
C428 O422 1.261 . S
C429 O424 1.259 . S
C429 O426 1.235 . S
O430 Co420 2.021 . S
O430 C427 1.238 . S
O431 Co425 2.052 . S
O431 C427 1.241 . S
O432 Co420 2.137 . S
O432 C423 1.247 . S
O433 Co420 2.244 . S
O433 C423 1.272 . S
O433 Co425 2.135 . S
Co434 O435 2.216 . S
Co434 O436 2.091 . S
Co434 O438 2.004 . S
Co434 O444 2.021 . S
Co434 O446 2.137 . S
Co434 O447 2.244 . S
O435 Co434 2.216 . S
O435 C442 1.247 . S
O436 Co434 2.091 . S
O436 C442 1.261 . S
C437 O446 1.247 . S
C437 O447 1.272 . S
O438 Co434 2.004 . S
O438 C443 1.259 . S
Co439 O440 2.061 . S
Co439 O445 2.052 . S
Co439 O447 2.135 . S
O440 Co439 2.061 . S
O440 C443 1.235 . S
C441 O444 1.238 . S
C441 O445 1.241 . S
C442 O435 1.247 . S
C442 O436 1.261 . S
C443 O438 1.259 . S
C443 O440 1.235 . S
O444 Co434 2.021 . S
O444 C441 1.238 . S
O445 Co439 2.052 . S
O445 C441 1.241 . S
O446 Co434 2.137 . S
O446 C437 1.247 . S
O447 Co434 2.244 . S
O447 C437 1.272 . S
O447 Co439 2.135 . S
Co448 O449 2.216 . S
Co448 O450 2.091 . S
Co448 O452 2.004 . S
Co448 O458 2.021 . S
Co448 O460 2.137 . S
Co448 O461 2.244 . S
O449 Co448 2.216 . S
O449 C456 1.247 . S
O450 Co448 2.091 . S
O450 C456 1.261 . S
C451 O460 1.247 . S
C451 O461 1.272 . S
O452 Co448 2.004 . S
O452 C457 1.259 . S
Co453 O454 2.061 . S
Co453 O459 2.052 . S
Co453 O461 2.135 . S
O454 Co453 2.061 . S
O454 C457 1.235 . S
C455 O458 1.238 . S
C455 O459 1.241 . S
C456 O449 1.247 . S
C456 O450 1.261 . S
C457 O452 1.259 . S
C457 O454 1.235 . S
O458 Co448 2.021 . S
O458 C455 1.238 . S
O459 Co453 2.052 . S
O459 C455 1.241 . S
O460 Co448 2.137 . S
O460 C451 1.247 . S
O461 Co448 2.244 . S
O461 C451 1.272 . S
O461 Co453 2.135 . S
Co462 O463 2.216 . S
Co462 O464 2.091 . S
Co462 O466 2.004 . S
Co462 O472 2.021 . S
Co462 O474 2.137 . S
Co462 O475 2.244 . S
O463 Co462 2.216 . S
O463 C470 1.247 . S
O464 Co462 2.091 . S
O464 C470 1.261 . S
C465 O474 1.247 . S
C465 O475 1.272 . S
O466 Co462 2.004 . S
O466 C471 1.259 . S
Co467 O468 2.061 . S
Co467 O473 2.052 . S
Co467 O475 2.135 . S
O468 Co467 2.061 . S
O468 C471 1.235 . S
C469 O472 1.238 . S
C469 O473 1.241 . S
C470 O463 1.247 . S
C470 O464 1.261 . S
C471 O466 1.259 . S
C471 O468 1.235 . S
O472 Co462 2.021 . S
O472 C469 1.238 . S
O473 Co467 2.052 . S
O473 C469 1.241 . S
O474 Co462 2.137 . S
O474 C465 1.247 . S
O475 Co462 2.244 . S
O475 C465 1.272 . S
O475 Co467 2.135 . S
Co476 O477 2.216 . S
Co476 O478 2.091 . S
Co476 O480 2.004 . S
Co476 O486 2.021 . S
Co476 O488 2.137 . S
Co476 O489 2.244 . S
O477 Co476 2.216 . S
O477 C484 1.247 . S
O478 Co476 2.091 . S
O478 C484 1.261 . S
C479 O488 1.247 . S
C479 O489 1.272 . S
O480 Co476 2.004 . S
O480 C485 1.259 . S
Co481 O482 2.061 . S
Co481 O487 2.052 . S
Co481 O489 2.135 . S
O482 Co481 2.061 . S
O482 C485 1.235 . S
C483 O486 1.238 . S
C483 O487 1.241 . S
C484 O477 1.247 . S
C484 O478 1.261 . S
C485 O480 1.259 . S
C485 O482 1.235 . S
O486 Co476 2.021 . S
O486 C483 1.238 . S
O487 Co481 2.052 . S
O487 C483 1.241 . S
O488 Co476 2.137 . S
O488 C479 1.247 . S
O489 Co476 2.244 . S
O489 C479 1.272 . S
O489 Co481 2.135 . S
Co490 O491 2.216 . S
Co490 O492 2.091 . S
Co490 O494 2.004 . S
Co490 O500 2.021 . S
Co490 O502 2.137 . S
Co490 O503 2.244 . S
O491 Co490 2.216 . S
O491 C498 1.247 . S
O492 Co490 2.091 . S
O492 C498 1.261 . S
C493 O502 1.247 . S
C493 O503 1.272 . S
O494 Co490 2.004 . S
O494 C499 1.259 . S
Co495 O496 2.061 . S
Co495 O501 2.052 . S
Co495 O503 2.135 . S
O496 Co495 2.061 . S
O496 C499 1.235 . S
C497 O500 1.238 . S
C497 O501 1.241 . S
C498 O491 1.247 . S
C498 O492 1.261 . S
C499 O494 1.259 . S
C499 O496 1.235 . S
O500 Co490 2.021 . S
O500 C497 1.238 . S
O501 Co495 2.052 . S
O501 C497 1.241 . S
O502 Co490 2.137 . S
O502 C493 1.247 . S
O503 Co490 2.244 . S
O503 C493 1.272 . S
O503 Co495 2.135 . S
C504 C505 1.391 . S
C504 C506 1.394 . S
C504 H520 0.931 . S
C505 C504 1.391 . S
C505 C509 1.376 . S
C506 C504 1.394 . S
C506 C507 1.369 . S
C506 C510 1.531 . S
C507 C506 1.369 . S
C507 C508 1.410 . S
C507 C515 1.503 . S
C508 C507 1.410 . S
C508 C509 1.392 . S
C508 C511 1.511 . S
C509 C505 1.376 . S
C509 C508 1.392 . S
C509 H521 0.929 . S
C510 C506 1.531 . S
C510 H522 0.960 . S
C510 H523 0.962 . S
C510 H524 0.960 . S
C511 C508 1.511 . S
C511 H525 0.961 . S
C511 H526 0.961 . S
C511 H527 0.961 . S
C512 C513 1.370 . S
C512 C514 1.363 . S
C512 H528 0.931 . S
C513 C512 1.370 . S
C513 C517 1.408 . S
C514 C512 1.363 . S
C514 C515 1.370 1_554 S
C514 C518 1.524 1_554 S
C515 C507 1.503 . S
C515 C514 1.370 1_556 S
C515 C516 1.403 1_556 S
C516 C515 1.403 1_554 S
C516 C517 1.404 . S
C516 C519 1.539 1_554 S
C517 C513 1.408 . S
C517 C516 1.404 . S
C517 H529 0.930 . S
C518 C514 1.524 1_556 S
C518 H530 0.956 . S
C518 H531 0.961 . S
C518 H532 0.961 1_556 S
C519 C516 1.539 1_556 S
C519 H533 0.958 . S
C519 H534 0.961 . S
C519 H535 0.960 . S
H520 C504 0.931 . S
H521 C509 0.929 . S
H522 C510 0.960 . S
H523 C510 0.962 . S
H524 C510 0.960 . S
H525 C511 0.961 . S
H526 C511 0.961 . S
H527 C511 0.961 . S
H528 C512 0.931 . S
H529 C517 0.930 . S
H530 C518 0.956 . S
H531 C518 0.961 . S
H532 C518 0.961 1_554 S
H533 C519 0.958 . S
H534 C519 0.961 . S
H535 C519 0.960 . S
C536 C537 1.391 . S
C536 C538 1.394 . S
C536 H552 0.931 . S
C537 C536 1.391 . S
C537 C541 1.376 . S
C538 C536 1.394 . S
C538 C539 1.369 . S
C538 C542 1.531 . S
C539 C538 1.369 . S
C539 C540 1.410 . S
C539 C547 1.503 . S
C540 C539 1.410 . S
C540 C541 1.392 . S
C540 C543 1.511 . S
C541 C537 1.376 . S
C541 C540 1.392 . S
C541 H553 0.929 . S
C542 C538 1.531 . S
C542 H554 0.960 . S
C542 H555 0.962 . S
C542 H556 0.960 . S
C543 C540 1.511 . S
C543 H557 0.961 . S
C543 H558 0.961 . S
C543 H559 0.961 . S
C544 C545 1.370 . S
C544 C546 1.363 . S
C544 H560 0.931 . S
C545 C544 1.370 . S
C545 C549 1.408 . S
C546 C544 1.363 . S
C546 C547 1.370 1_554 S
C546 C550 1.524 1_554 S
C547 C539 1.503 . S
C547 C546 1.370 1_556 S
C547 C548 1.403 1_556 S
C548 C547 1.403 1_554 S
C548 C549 1.404 . S
C548 C551 1.539 1_554 S
C549 C545 1.408 . S
C549 C548 1.404 . S
C549 H561 0.930 . S
C550 C546 1.524 1_556 S
C550 H562 0.956 . S
C550 H563 0.961 . S
C550 H564 0.961 . S
C551 C548 1.539 1_556 S
C551 H565 0.958 . S
C551 H566 0.961 1_556 S
C551 H567 0.960 . S
H552 C536 0.931 . S
H553 C541 0.929 . S
H554 C542 0.960 . S
H555 C542 0.962 . S
H556 C542 0.960 . S
H557 C543 0.961 . S
H558 C543 0.961 . S
H559 C543 0.961 . S
H560 C544 0.931 . S
H561 C549 0.930 . S
H562 C550 0.956 . S
H563 C550 0.961 . S
H564 C550 0.961 . S
H565 C551 0.958 . S
H566 C551 0.961 1_554 S
H567 C551 0.960 . S
C568 C569 1.391 . S
C568 C570 1.394 . S
C568 H584 0.931 . S
C569 C568 1.391 . S
C569 C573 1.376 . S
C570 C568 1.394 . S
C570 C571 1.369 1_554 S
C570 C574 1.531 1_554 S
C571 C570 1.369 1_556 S
C571 C572 1.410 1_556 S
C571 C579 1.503 . S
C572 C571 1.410 1_554 S
C572 C573 1.392 . S
C572 C575 1.511 1_554 S
C573 C569 1.376 . S
C573 C572 1.392 . S
C573 H585 0.929 . S
C574 C570 1.531 1_556 S
C574 H586 0.960 . S
C574 H587 0.962 . S
C574 H588 0.960 . S
C575 C572 1.511 1_556 S
C575 H589 0.961 1_556 S
C575 H590 0.961 . S
C575 H591 0.961 . S
C576 C577 1.370 . S
C576 C578 1.363 . S
C576 H592 0.931 . S
C577 C576 1.370 . S
C577 C581 1.408 . S
C578 C576 1.363 . S
C578 C579 1.370 . S
C578 C582 1.524 . S
C579 C571 1.503 . S
C579 C578 1.370 . S
C579 C580 1.403 . S
C580 C579 1.403 . S
C580 C581 1.404 . S
C580 C583 1.539 . S
C581 C577 1.408 . S
C581 C580 1.404 . S
C581 H593 0.930 . S
C582 C578 1.524 . S
C582 H594 0.956 . S
C582 H595 0.961 . S
C582 H596 0.961 . S
C583 C580 1.539 . S
C583 H597 0.958 . S
C583 H598 0.961 . S
C583 H599 0.960 . S
H584 C568 0.931 . S
H585 C573 0.929 . S
H586 C574 0.960 . S
H587 C574 0.962 . S
H588 C574 0.960 . S
H589 C575 0.961 1_554 S
H590 C575 0.961 . S
H591 C575 0.961 . S
H592 C576 0.931 . S
H593 C581 0.930 . S
H594 C582 0.956 . S
H595 C582 0.961 . S
H596 C582 0.961 . S
H597 C583 0.958 . S
H598 C583 0.961 . S
H599 C583 0.960 . S
C600 C601 1.391 . S
C600 C602 1.394 . S
C600 H616 0.931 . S
C601 C600 1.391 . S
C601 C605 1.376 . S
C602 C600 1.394 . S
C602 C603 1.369 . S
C602 C606 1.531 . S
C603 C602 1.369 . S
C603 C604 1.410 . S
C603 C611 1.503 . S
C604 C603 1.410 . S
C604 C605 1.392 . S
C604 C607 1.511 . S
C605 C601 1.376 . S
C605 C604 1.392 . S
C605 H617 0.929 . S
C606 C602 1.531 . S
C606 H618 0.960 . S
C606 H619 0.962 . S
C606 H620 0.960 . S
C607 C604 1.511 . S
C607 H621 0.961 . S
C607 H622 0.961 . S
C607 H623 0.961 . S
C608 C609 1.370 . S
C608 C610 1.363 . S
C608 H624 0.931 . S
C609 C608 1.370 . S
C609 C613 1.408 . S
C610 C608 1.363 . S
C610 C611 1.370 . S
C610 C614 1.524 . S
C611 C603 1.503 . S
C611 C610 1.370 . S
C611 C612 1.403 . S
C612 C611 1.403 . S
C612 C613 1.404 . S
C612 C615 1.539 . S
C613 C609 1.408 . S
C613 C612 1.404 . S
C613 H625 0.930 . S
C614 C610 1.524 . S
C614 H626 0.956 . S
C614 H627 0.961 . S
C614 H628 0.961 . S
C615 C612 1.539 . S
C615 H629 0.958 . S
C615 H630 0.961 . S
C615 H631 0.960 . S
H616 C600 0.931 . S
H617 C605 0.929 . S
H618 C606 0.960 . S
H619 C606 0.962 . S
H620 C606 0.960 . S
H621 C607 0.961 . S
H622 C607 0.961 . S
H623 C607 0.961 . S
H624 C608 0.931 . S
H625 C613 0.930 . S
H626 C614 0.956 . S
H627 C614 0.961 . S
H628 C614 0.961 . S
H629 C615 0.958 . S
H630 C615 0.961 . S
H631 C615 0.960 . S
C632 C633 1.391 . S
C632 C634 1.394 . S
C632 H648 0.931 . S
C633 C632 1.391 . S
C633 C637 1.376 . S
C634 C632 1.394 . S
C634 C635 1.369 . S
C634 C638 1.531 . S
C635 C634 1.369 . S
C635 C636 1.410 . S
C635 C643 1.503 . S
C636 C635 1.410 . S
C636 C637 1.392 . S
C636 C639 1.511 . S
C637 C633 1.376 . S
C637 C636 1.392 . S
C637 H649 0.929 . S
C638 C634 1.531 . S
C638 H650 0.960 . S
C638 H651 0.962 . S
C638 H652 0.960 . S
C639 C636 1.511 . S
C639 H653 0.961 . S
C639 H654 0.961 . S
C639 H655 0.961 . S
C640 C641 1.370 . S
C640 C642 1.363 . S
C640 H656 0.931 . S
C641 C640 1.370 . S
C641 C645 1.408 . S
C642 C640 1.363 . S
C642 C643 1.370 . S
C642 C646 1.524 . S
C643 C635 1.503 . S
C643 C642 1.370 . S
C643 C644 1.403 . S
C644 C643 1.403 . S
C644 C645 1.404 . S
C644 C647 1.539 . S
C645 C641 1.408 . S
C645 C644 1.404 . S
C645 H657 0.930 . S
C646 C642 1.524 . S
C646 H658 0.956 . S
C646 H659 0.961 . S
C646 H660 0.961 . S
C647 C644 1.539 . S
C647 H661 0.958 . S
C647 H662 0.961 . S
C647 H663 0.960 . S
H648 C632 0.931 . S
H649 C637 0.929 . S
H650 C638 0.960 . S
H651 C638 0.962 . S
H652 C638 0.960 . S
H653 C639 0.961 . S
H654 C639 0.961 . S
H655 C639 0.961 . S
H656 C640 0.931 . S
H657 C645 0.930 . S
H658 C646 0.956 . S
H659 C646 0.961 . S
H660 C646 0.961 . S
H661 C647 0.958 . S
H662 C647 0.961 . S
H663 C647 0.960 . S
C664 C665 1.391 . S
C664 C666 1.394 . S
C664 H680 0.931 . S
C665 C664 1.391 . S
C665 C669 1.376 . S
C666 C664 1.394 . S
C666 C667 1.369 . S
C666 C670 1.531 . S
C667 C666 1.369 . S
C667 C668 1.410 . S
C667 C675 1.503 . S
C668 C667 1.410 . S
C668 C669 1.392 . S
C668 C671 1.511 . S
C669 C665 1.376 . S
C669 C668 1.392 . S
C669 H681 0.929 . S
C670 C666 1.531 . S
C670 H682 0.960 . S
C670 H683 0.962 . S
C670 H684 0.960 . S
C671 C668 1.511 . S
C671 H685 0.961 . S
C671 H686 0.961 . S
C671 H687 0.961 . S
C672 C673 1.370 . S
C672 C674 1.363 . S
C672 H688 0.931 . S
C673 C672 1.370 . S
C673 C677 1.408 . S
C674 C672 1.363 . S
C674 C675 1.370 . S
C674 C678 1.524 . S
C675 C667 1.503 . S
C675 C674 1.370 . S
C675 C676 1.403 . S
C676 C675 1.403 . S
C676 C677 1.404 . S
C676 C679 1.539 . S
C677 C673 1.408 . S
C677 C676 1.404 . S
C677 H689 0.930 . S
C678 C674 1.524 . S
C678 H690 0.956 . S
C678 H691 0.961 . S
C678 H692 0.961 . S
C679 C676 1.539 . S
C679 H693 0.958 . S
C679 H694 0.961 . S
C679 H695 0.960 . S
H680 C664 0.931 . S
H681 C669 0.929 . S
H682 C670 0.960 . S
H683 C670 0.962 . S
H684 C670 0.960 . S
H685 C671 0.961 . S
H686 C671 0.961 . S
H687 C671 0.961 . S
H688 C672 0.931 . S
H689 C677 0.930 . S
H690 C678 0.956 . S
H691 C678 0.961 . S
H692 C678 0.961 . S
H693 C679 0.958 . S
H694 C679 0.961 . S
H695 C679 0.960 . S
C696 C697 1.391 . S
C696 C698 1.394 . S
C696 H712 0.931 . S
C697 C696 1.391 . S
C697 C701 1.376 . S
C698 C696 1.394 . S
C698 C699 1.369 . S
C698 C702 1.531 . S
C699 C698 1.369 . S
C699 C700 1.410 . S
C699 C707 1.503 . S
C700 C699 1.410 . S
C700 C701 1.392 . S
C700 C703 1.511 . S
C701 C697 1.376 . S
C701 C700 1.392 . S
C701 H713 0.929 . S
C702 C698 1.531 . S
C702 H714 0.960 . S
C702 H715 0.962 . S
C702 H716 0.960 . S
C703 C700 1.511 . S
C703 H717 0.961 . S
C703 H718 0.961 . S
C703 H719 0.961 . S
C704 C705 1.370 . S
C704 C706 1.363 . S
C704 H720 0.931 . S
C705 C704 1.370 . S
C705 C709 1.408 . S
C706 C704 1.363 . S
C706 C707 1.370 1_556 S
C706 C710 1.524 1_556 S
C707 C699 1.503 . S
C707 C706 1.370 1_554 S
C707 C708 1.403 1_554 S
C708 C707 1.403 1_556 S
C708 C709 1.404 . S
C708 C711 1.538 1_556 S
C709 C705 1.408 . S
C709 C708 1.404 . S
C709 H721 0.930 . S
C710 C706 1.524 1_554 S
C710 H722 0.956 . S
C710 H723 0.961 . S
C710 H724 0.961 . S
C711 C708 1.538 1_554 S
C711 H725 0.958 . S
C711 H726 0.959 1_554 S
C711 H727 0.963 . S
H712 C696 0.931 . S
H713 C701 0.929 . S
H714 C702 0.960 . S
H715 C702 0.962 . S
H716 C702 0.960 . S
H717 C703 0.961 . S
H718 C703 0.961 . S
H719 C703 0.961 . S
H720 C704 0.931 . S
H721 C709 0.930 . S
H722 C710 0.956 . S
H723 C710 0.961 . S
H724 C710 0.961 . S
H725 C711 0.958 . S
H726 C711 0.959 1_556 S
H727 C711 0.963 . S
C728 C729 1.391 . S
C728 C730 1.394 . S
C728 H744 0.931 . S
C729 C728 1.391 . S
C729 C733 1.376 . S
C730 C728 1.394 . S
C730 C731 1.369 . S
C730 C734 1.531 . S
C731 C730 1.369 . S
C731 C732 1.410 . S
C731 C739 1.503 . S
C732 C731 1.410 . S
C732 C733 1.392 . S
C732 C735 1.511 . S
C733 C729 1.376 . S
C733 C732 1.392 . S
C733 H745 0.929 . S
C734 C730 1.531 . S
C734 H746 0.960 . S
C734 H747 0.962 . S
C734 H748 0.960 . S
C735 C732 1.511 . S
C735 H749 0.961 . S
C735 H750 0.961 . S
C735 H751 0.961 . S
C736 C737 1.370 . S
C736 C738 1.363 . S
C736 H752 0.931 . S
C737 C736 1.370 . S
C737 C741 1.408 . S
C738 C736 1.363 . S
C738 C739 1.370 1_556 S
C738 C742 1.524 1_556 S
C739 C731 1.503 . S
C739 C738 1.370 1_554 S
C739 C740 1.403 1_554 S
C740 C739 1.403 1_556 S
C740 C741 1.404 . S
C740 C743 1.539 1_556 S
C741 C737 1.408 . S
C741 C740 1.404 . S
C741 H753 0.930 . S
C742 C738 1.524 1_554 S
C742 H754 0.956 . S
C742 H755 0.961 . S
C742 H756 0.961 . S
C743 C740 1.539 1_554 S
C743 H757 0.958 . S
C743 H758 0.961 1_554 S
C743 H759 0.960 . S
H744 C728 0.931 . S
H745 C733 0.929 . S
H746 C734 0.960 . S
H747 C734 0.962 . S
H748 C734 0.960 . S
H749 C735 0.961 . S
H750 C735 0.961 . S
H751 C735 0.961 . S
H752 C736 0.931 . S
H753 C741 0.930 . S
H754 C742 0.956 . S
H755 C742 0.961 . S
H756 C742 0.961 . S
H757 C743 0.958 . S
H758 C743 0.961 1_556 S
H759 C743 0.960 . S
C760 C761 1.391 . S
C760 C762 1.394 . S
C760 H776 0.931 . S
C761 C760 1.391 . S
C761 C765 1.376 . S
C762 C760 1.394 . S
C762 C763 1.369 1_556 S
C762 C766 1.531 1_556 S
C763 C762 1.369 1_554 S
C763 C764 1.410 1_554 S
C763 C771 1.503 . S
C764 C763 1.410 1_556 S
C764 C765 1.392 . S
C764 C767 1.511 1_556 S
C765 C761 1.376 . S
C765 C764 1.392 . S
C765 H777 0.929 . S
C766 C762 1.531 1_554 S
C766 H778 0.960 . S
C766 H779 0.962 . S
C766 H780 0.960 1_554 S
C767 C764 1.511 1_554 S
C767 H781 0.961 . S
C767 H782 0.961 . S
C767 H783 0.961 . S
C768 C769 1.370 . S
C768 C770 1.363 . S
C768 H784 0.931 . S
C769 C768 1.370 . S
C769 C773 1.408 . S
C770 C768 1.363 . S
C770 C771 1.370 . S
C770 C774 1.524 . S
C771 C763 1.503 . S
C771 C770 1.370 . S
C771 C772 1.403 . S
C772 C771 1.403 . S
C772 C773 1.404 . S
C772 C775 1.539 . S
C773 C769 1.408 . S
C773 C772 1.404 . S
C773 H785 0.930 . S
C774 C770 1.524 . S
C774 H786 0.956 . S
C774 H787 0.961 . S
C774 H788 0.961 . S
C775 C772 1.539 . S
C775 H789 0.958 . S
C775 H790 0.961 . S
C775 H791 0.960 . S
H776 C760 0.931 . S
H777 C765 0.929 . S
H778 C766 0.960 . S
H779 C766 0.962 . S
H780 C766 0.960 1_556 S
H781 C767 0.961 . S
H782 C767 0.961 . S
H783 C767 0.961 . S
H784 C768 0.931 . S
H785 C773 0.930 . S
H786 C774 0.956 . S
H787 C774 0.961 . S
H788 C774 0.961 . S
H789 C775 0.958 . S
H790 C775 0.961 . S
H791 C775 0.960 . S
C792 C793 1.391 . S
C792 C794 1.394 . S
C792 H808 0.931 . S
C793 C792 1.391 . S
C793 C797 1.376 . S
C794 C792 1.394 . S
C794 C795 1.369 . S
C794 C798 1.531 . S
C795 C794 1.369 . S
C795 C796 1.410 . S
C795 C803 1.503 . S
C796 C795 1.410 . S
C796 C797 1.392 . S
C796 C799 1.511 . S
C797 C793 1.376 . S
C797 C796 1.392 . S
C797 H809 0.929 . S
C798 C794 1.531 . S
C798 H810 0.960 . S
C798 H811 0.962 . S
C798 H812 0.960 . S
C799 C796 1.511 . S
C799 H813 0.961 . S
C799 H814 0.961 . S
C799 H815 0.961 . S
C800 C801 1.370 . S
C800 C802 1.363 . S
C800 H816 0.931 . S
C801 C800 1.370 . S
C801 C805 1.408 . S
C802 C800 1.363 . S
C802 C803 1.370 . S
C802 C806 1.524 . S
C803 C795 1.503 . S
C803 C802 1.370 . S
C803 C804 1.403 . S
C804 C803 1.403 . S
C804 C805 1.404 . S
C804 C807 1.539 . S
C805 C801 1.408 . S
C805 C804 1.404 . S
C805 H817 0.930 . S
C806 C802 1.524 . S
C806 H818 0.956 . S
C806 H819 0.961 . S
C806 H820 0.961 . S
C807 C804 1.539 . S
C807 H821 0.958 . S
C807 H822 0.961 . S
C807 H823 0.960 . S
H808 C792 0.931 . S
H809 C797 0.929 . S
H810 C798 0.960 . S
H811 C798 0.962 . S
H812 C798 0.960 . S
H813 C799 0.961 . S
H814 C799 0.961 . S
H815 C799 0.961 . S
H816 C800 0.931 . S
H817 C805 0.930 . S
H818 C806 0.956 . S
H819 C806 0.961 . S
H820 C806 0.961 . S
H821 C807 0.958 . S
H822 C807 0.961 . S
H823 C807 0.960 . S
C824 C825 1.391 . S
C824 C826 1.394 . S
C824 H840 0.931 . S
C825 C824 1.391 . S
C825 C829 1.376 . S
C826 C824 1.394 . S
C826 C827 1.369 . S
C826 C830 1.531 . S
C827 C826 1.369 . S
C827 C828 1.410 . S
C827 C835 1.503 . S
C828 C827 1.410 . S
C828 C829 1.392 . S
C828 C831 1.511 . S
C829 C825 1.376 . S
C829 C828 1.392 . S
C829 H841 0.929 . S
C830 C826 1.531 . S
C830 H842 0.960 . S
C830 H843 0.962 . S
C830 H844 0.960 . S
C831 C828 1.511 . S
C831 H845 0.961 . S
C831 H846 0.961 . S
C831 H847 0.961 . S
C832 C833 1.370 . S
C832 C834 1.363 . S
C832 H848 0.931 . S
C833 C832 1.370 . S
C833 C837 1.408 . S
C834 C832 1.363 . S
C834 C835 1.370 . S
C834 C838 1.524 . S
C835 C827 1.503 . S
C835 C834 1.370 . S
C835 C836 1.403 . S
C836 C835 1.403 . S
C836 C837 1.404 . S
C836 C839 1.539 . S
C837 C833 1.408 . S
C837 C836 1.404 . S
C837 H849 0.930 . S
C838 C834 1.524 . S
C838 H850 0.956 . S
C838 H851 0.961 . S
C838 H852 0.961 . S
C839 C836 1.539 . S
C839 H853 0.958 . S
C839 H854 0.961 . S
C839 H855 0.960 . S
H840 C824 0.931 . S
H841 C829 0.929 . S
H842 C830 0.960 . S
H843 C830 0.962 . S
H844 C830 0.960 . S
H845 C831 0.961 . S
H846 C831 0.961 . S
H847 C831 0.961 . S
H848 C832 0.931 . S
H849 C837 0.930 . S
H850 C838 0.956 . S
H851 C838 0.961 . S
H852 C838 0.961 . S
H853 C839 0.958 . S
H854 C839 0.961 . S
H855 C839 0.960 . S
C856 C857 1.391 . S
C856 C858 1.394 . S
C856 H872 0.931 . S
C857 C856 1.391 . S
C857 C861 1.376 . S
C858 C856 1.394 . S
C858 C859 1.369 . S
C858 C862 1.531 . S
C859 C858 1.369 . S
C859 C860 1.410 . S
C859 C867 1.503 . S
C860 C859 1.410 . S
C860 C861 1.392 . S
C860 C863 1.511 . S
C861 C857 1.376 . S
C861 C860 1.392 . S
C861 H873 0.929 . S
C862 C858 1.531 . S
C862 H874 0.960 . S
C862 H875 0.962 . S
C862 H876 0.960 . S
C863 C860 1.511 . S
C863 H877 0.961 . S
C863 H878 0.961 . S
C863 H879 0.961 . S
C864 C865 1.370 . S
C864 C866 1.363 . S
C864 H880 0.931 . S
C865 C864 1.370 . S
C865 C869 1.408 . S
C866 C864 1.363 . S
C866 C867 1.370 . S
C866 C870 1.524 . S
C867 C859 1.503 . S
C867 C866 1.370 . S
C867 C868 1.403 . S
C868 C867 1.403 . S
C868 C869 1.404 . S
C868 C871 1.539 . S
C869 C865 1.408 . S
C869 C868 1.404 . S
C869 H881 0.930 . S
C870 C866 1.524 . S
C870 H882 0.956 . S
C870 H883 0.961 . S
C870 H884 0.961 . S
C871 C868 1.539 . S
C871 H885 0.958 . S
C871 H886 0.961 . S
C871 H887 0.960 . S
H872 C856 0.931 . S
H873 C861 0.929 . S
H874 C862 0.960 . S
H875 C862 0.962 . S
H876 C862 0.960 . S
H877 C863 0.961 . S
H878 C863 0.961 . S
H879 C863 0.961 . S
H880 C864 0.931 . S
H881 C869 0.930 . S
H882 C870 0.956 . S
H883 C870 0.961 . S
H884 C870 0.961 . S
H885 C871 0.958 . S
H886 C871 0.961 . S
H887 C871 0.960 . S
C888 C889 1.391 . S
C888 C890 1.394 . S
C888 H904 0.931 . S
C889 C888 1.391 . S
C889 C893 1.376 . S
C890 C888 1.394 . S
C890 C891 1.369 . S
C890 C894 1.531 . S
C891 C890 1.369 . S
C891 C892 1.410 . S
C891 C899 1.503 . S
C892 C891 1.410 . S
C892 C893 1.392 . S
C892 C895 1.511 . S
C893 C889 1.376 . S
C893 C892 1.392 . S
C893 H905 0.929 . S
C894 C890 1.531 . S
C894 H906 0.960 . S
C894 H907 0.962 . S
C894 H908 0.960 . S
C895 C892 1.511 . S
C895 H909 0.961 . S
C895 H910 0.961 . S
C895 H911 0.961 . S
C896 C897 1.370 . S
C896 C898 1.363 . S
C896 H912 0.931 . S
C897 C896 1.370 . S
C897 C901 1.408 . S
C898 C896 1.363 . S
C898 C899 1.370 . S
C898 C902 1.524 . S
C899 C891 1.503 . S
C899 C898 1.370 . S
C899 C900 1.403 . S
C900 C899 1.403 . S
C900 C901 1.404 . S
C900 C903 1.539 . S
C901 C897 1.408 . S
C901 C900 1.404 . S
C901 H913 0.930 . S
C902 C898 1.524 . S
C902 H914 0.956 . S
C902 H915 0.961 . S
C902 H916 0.961 . S
C903 C900 1.539 . S
C903 H917 0.958 . S
C903 H918 0.961 . S
C903 H919 0.960 . S
H904 C888 0.931 . S
H905 C893 0.929 . S
H906 C894 0.960 . S
H907 C894 0.962 . S
H908 C894 0.960 . S
H909 C895 0.961 . S
H910 C895 0.961 . S
H911 C895 0.961 . S
H912 C896 0.931 . S
H913 C901 0.930 . S
H914 C902 0.956 . S
H915 C902 0.961 . S
H916 C902 0.961 . S
H917 C903 0.958 . S
H918 C903 0.961 . S
H919 C903 0.960 . S
C920 C921 1.391 . S
C920 C922 1.394 . S
C920 H936 0.931 . S
C921 C920 1.391 . S
C921 C925 1.376 . S
C922 C920 1.394 . S
C922 C923 1.369 . S
C922 C926 1.531 . S
C923 C922 1.369 . S
C923 C924 1.410 . S
C923 C931 1.503 . S
C924 C923 1.410 . S
C924 C925 1.392 . S
C924 C927 1.511 . S
C925 C921 1.376 . S
C925 C924 1.392 . S
C925 H937 0.929 . S
C926 C922 1.531 . S
C926 H938 0.960 . S
C926 H939 0.962 . S
C926 H940 0.960 . S
C927 C924 1.511 . S
C927 H941 0.961 . S
C927 H942 0.961 . S
C927 H943 0.961 . S
C928 C929 1.370 . S
C928 C930 1.363 . S
C928 H944 0.931 . S
C929 C928 1.370 . S
C929 C933 1.408 . S
C930 C928 1.363 . S
C930 C931 1.370 . S
C930 C934 1.524 . S
C931 C923 1.503 . S
C931 C930 1.370 . S
C931 C932 1.403 . S
C932 C931 1.403 . S
C932 C933 1.404 . S
C932 C935 1.539 . S
C933 C929 1.408 . S
C933 C932 1.404 . S
C933 H945 0.930 . S
C934 C930 1.524 . S
C934 H946 0.956 . S
C934 H947 0.961 . S
C934 H948 0.961 . S
C935 C932 1.539 . S
C935 H949 0.958 . S
C935 H950 0.961 . S
C935 H951 0.960 . S
H936 C920 0.931 . S
H937 C925 0.929 . S
H938 C926 0.960 . S
H939 C926 0.962 . S
H940 C926 0.960 . S
H941 C927 0.961 . S
H942 C927 0.961 . S
H943 C927 0.961 . S
H944 C928 0.931 . S
H945 C933 0.930 . S
H946 C934 0.956 . S
H947 C934 0.961 . S
H948 C934 0.961 . S
H949 C935 0.958 . S
H950 C935 0.961 . S
H951 C935 0.960 . S
C952 C953 1.391 . S
C952 C954 1.394 . S
C952 H968 0.931 . S
C953 C952 1.391 . S
C953 C957 1.376 . S
C954 C952 1.394 . S
C954 C955 1.369 . S
C954 C958 1.531 . S
C955 C954 1.369 . S
C955 C956 1.410 . S
C955 C963 1.503 . S
C956 C955 1.410 . S
C956 C957 1.392 . S
C956 C959 1.511 . S
C957 C953 1.376 . S
C957 C956 1.392 . S
C957 H969 0.929 . S
C958 C954 1.531 . S
C958 H970 0.960 . S
C958 H971 0.962 . S
C958 H972 0.960 . S
C959 C956 1.511 . S
C959 H973 0.961 . S
C959 H974 0.961 . S
C959 H975 0.961 . S
C960 C961 1.370 . S
C960 C962 1.363 . S
C960 H976 0.931 . S
C961 C960 1.370 . S
C961 C965 1.408 . S
C962 C960 1.363 . S
C962 C963 1.370 . S
C962 C966 1.524 . S
C963 C955 1.503 . S
C963 C962 1.370 . S
C963 C964 1.403 . S
C964 C963 1.403 . S
C964 C965 1.404 . S
C964 C967 1.539 . S
C965 C961 1.408 . S
C965 C964 1.404 . S
C965 H977 0.930 . S
C966 C962 1.524 . S
C966 H978 0.956 . S
C966 H979 0.961 . S
C966 H980 0.961 . S
C967 C964 1.539 . S
C967 H981 0.958 . S
C967 H982 0.961 . S
C967 H983 0.960 . S
H968 C952 0.931 . S
H969 C957 0.929 . S
H970 C958 0.960 . S
H971 C958 0.962 . S
H972 C958 0.960 . S
H973 C959 0.961 . S
H974 C959 0.961 . S
H975 C959 0.961 . S
H976 C960 0.931 . S
H977 C965 0.930 . S
H978 C966 0.956 . S
H979 C966 0.961 . S
H980 C966 0.961 . S
H981 C967 0.958 . S
H982 C967 0.961 . S
H983 C967 0.960 . S
C984 C985 1.391 . S
C984 C986 1.394 . S
C984 H1000 0.931 . S
C985 C984 1.391 . S
C985 C989 1.376 . S
C986 C984 1.394 . S
C986 C987 1.369 . S
C986 C990 1.531 . S
C987 C986 1.369 . S
C987 C988 1.410 . S
C987 C995 1.503 . S
C988 C987 1.410 . S
C988 C989 1.392 . S
C988 C991 1.511 . S
C989 C985 1.376 . S
C989 C988 1.392 . S
C989 H1001 0.929 . S
C990 C986 1.531 . S
C990 H1002 0.960 . S
C990 H1003 0.962 . S
C990 H1004 0.960 . S
C991 C988 1.511 . S
C991 H1005 0.961 . S
C991 H1006 0.961 . S
C991 H1007 0.961 . S
C992 C993 1.370 1_556 S
C992 C994 1.363 . S
C992 H1008 0.931 . S
C993 C992 1.370 1_554 S
C993 C997 1.408 1_554 S
C994 C992 1.363 . S
C994 C995 1.370 . S
C994 C998 1.524 . S
C995 C987 1.503 . S
C995 C994 1.370 . S
C995 C996 1.403 . S
C996 C995 1.403 . S
C996 C997 1.404 . S
C996 C999 1.539 . S
C997 C993 1.408 1_556 S
C997 C996 1.404 . S
C997 H1009 0.930 1_556 S
C998 C994 1.524 . S
C998 H1010 0.956 . S
C998 H1011 0.961 . S
C998 H1012 0.961 . S
C999 C996 1.539 . S
C999 H1013 0.958 . S
C999 H1014 0.961 . S
C999 H1015 0.960 . S
H1000 C984 0.931 . S
H1001 C989 0.929 . S
H1002 C990 0.960 . S
H1003 C990 0.962 . S
H1004 C990 0.960 . S
H1005 C991 0.961 . S
H1006 C991 0.961 . S
H1007 C991 0.961 . S
H1008 C992 0.931 . S
H1009 C997 0.930 1_554 S
H1010 C998 0.956 . S
H1011 C998 0.961 . S
H1012 C998 0.961 . S
H1013 C999 0.958 . S
H1014 C999 0.961 . S
H1015 C999 0.960 . S
C1016 C1017 1.391 . S
C1016 C1018 1.394 . S
C1016 H1032 0.931 . S
C1017 C1016 1.391 . S
C1017 C1021 1.376 . S
C1018 C1016 1.394 . S
C1018 C1019 1.369 . S
C1018 C1022 1.531 . S
C1019 C1018 1.369 . S
C1019 C1020 1.410 . S
C1019 C1027 1.503 . S
C1020 C1019 1.410 . S
C1020 C1021 1.392 . S
C1020 C1023 1.511 . S
C1021 C1017 1.376 . S
C1021 C1020 1.392 . S
C1021 H1033 0.929 . S
C1022 C1018 1.531 . S
C1022 H1034 0.960 . S
C1022 H1035 0.962 . S
C1022 H1036 0.960 . S
C1023 C1020 1.511 . S
C1023 H1037 0.961 . S
C1023 H1038 0.961 . S
C1023 H1039 0.961 . S
C1024 C1025 1.370 1_556 S
C1024 C1026 1.363 . S
C1024 H1040 0.931 . S
C1025 C1024 1.370 1_554 S
C1025 C1029 1.408 1_554 S
C1026 C1024 1.363 . S
C1026 C1027 1.370 . S
C1026 C1030 1.524 . S
C1027 C1019 1.503 . S
C1027 C1026 1.370 . S
C1027 C1028 1.403 . S
C1028 C1027 1.403 . S
C1028 C1029 1.404 . S
C1028 C1031 1.539 . S
C1029 C1025 1.408 1_556 S
C1029 C1028 1.404 . S
C1029 H1041 0.930 . S
C1030 C1026 1.524 . S
C1030 H1042 0.956 . S
C1030 H1043 0.961 . S
C1030 H1044 0.961 . S
C1031 C1028 1.539 . S
C1031 H1045 0.958 . S
C1031 H1046 0.961 . S
C1031 H1047 0.960 . S
H1032 C1016 0.931 . S
H1033 C1021 0.929 . S
H1034 C1022 0.960 . S
H1035 C1022 0.962 . S
H1036 C1022 0.960 . S
H1037 C1023 0.961 . S
H1038 C1023 0.961 . S
H1039 C1023 0.961 . S
H1040 C1024 0.931 . S
H1041 C1029 0.930 . S
H1042 C1030 0.956 . S
H1043 C1030 0.961 . S
H1044 C1030 0.961 . S
H1045 C1031 0.958 . S
H1046 C1031 0.961 . S
H1047 C1031 0.960 . S
C1048 C1049 1.391 . S
C1048 C1050 1.394 . S
C1048 H1064 0.931 . S
C1049 C1048 1.391 . S
C1049 C1053 1.376 . S
C1050 C1048 1.394 . S
C1050 C1051 1.369 . S
C1050 C1054 1.531 . S
C1051 C1050 1.369 . S
C1051 C1052 1.410 . S
C1051 C1059 1.503 . S
C1052 C1051 1.410 . S
C1052 C1053 1.392 . S
C1052 C1055 1.511 . S
C1053 C1049 1.376 . S
C1053 C1052 1.392 . S
C1053 H1065 0.929 . S
C1054 C1050 1.531 . S
C1054 H1066 0.960 . S
C1054 H1067 0.962 . S
C1054 H1068 0.960 . S
C1055 C1052 1.511 . S
C1055 H1069 0.961 . S
C1055 H1070 0.961 . S
C1055 H1071 0.961 . S
C1056 C1057 1.370 1_556 S
C1056 C1058 1.363 . S
C1056 H1072 0.931 . S
C1057 C1056 1.370 1_554 S
C1057 C1061 1.408 1_554 S
C1058 C1056 1.363 . S
C1058 C1059 1.370 . S
C1058 C1062 1.524 . S
C1059 C1051 1.503 . S
C1059 C1058 1.370 . S
C1059 C1060 1.403 . S
C1060 C1059 1.403 . S
C1060 C1061 1.404 . S
C1060 C1063 1.539 . S
C1061 C1057 1.408 1_556 S
C1061 C1060 1.404 . S
C1061 H1073 0.930 1_556 S
C1062 C1058 1.524 . S
C1062 H1074 0.956 . S
C1062 H1075 0.961 . S
C1062 H1076 0.961 . S
C1063 C1060 1.539 . S
C1063 H1077 0.958 . S
C1063 H1078 0.961 . S
C1063 H1079 0.960 . S
H1064 C1048 0.931 . S
H1065 C1053 0.929 . S
H1066 C1054 0.960 . S
H1067 C1054 0.962 . S
H1068 C1054 0.960 . S
H1069 C1055 0.961 . S
H1070 C1055 0.961 . S
H1071 C1055 0.961 . S
H1072 C1056 0.931 . S
H1073 C1061 0.930 1_554 S
H1074 C1062 0.956 . S
H1075 C1062 0.961 . S
H1076 C1062 0.961 . S
H1077 C1063 0.958 . S
H1078 C1063 0.961 . S
H1079 C1063 0.960 . S
C1080 C1081 1.391 . S
C1080 C1082 1.394 . S
C1080 H1096 0.931 . S
C1081 C1080 1.391 . S
C1081 C1085 1.376 . S
C1082 C1080 1.394 . S
C1082 C1083 1.369 . S
C1082 C1086 1.531 . S
C1083 C1082 1.369 . S
C1083 C1084 1.410 . S
C1083 C1091 1.503 . S
C1084 C1083 1.410 . S
C1084 C1085 1.392 . S
C1084 C1087 1.511 . S
C1085 C1081 1.376 . S
C1085 C1084 1.392 . S
C1085 H1097 0.929 . S
C1086 C1082 1.531 . S
C1086 H1098 0.960 . S
C1086 H1099 0.962 . S
C1086 H1100 0.960 . S
C1087 C1084 1.511 . S
C1087 H1101 0.961 . S
C1087 H1102 0.961 . S
C1087 H1103 0.961 . S
C1088 C1089 1.370 . S
C1088 C1090 1.363 . S
C1088 H1104 0.931 . S
C1089 C1088 1.370 . S
C1089 C1093 1.408 . S
C1090 C1088 1.363 . S
C1090 C1091 1.370 . S
C1090 C1094 1.524 . S
C1091 C1083 1.503 . S
C1091 C1090 1.370 . S
C1091 C1092 1.403 . S
C1092 C1091 1.403 . S
C1092 C1093 1.404 . S
C1092 C1095 1.539 . S
C1093 C1089 1.408 . S
C1093 C1092 1.404 . S
C1093 H1105 0.930 . S
C1094 C1090 1.524 . S
C1094 H1106 0.956 . S
C1094 H1107 0.961 . S
C1094 H1108 0.961 . S
C1095 C1092 1.539 . S
C1095 H1109 0.958 . S
C1095 H1110 0.961 . S
C1095 H1111 0.960 . S
H1096 C1080 0.931 . S
H1097 C1085 0.929 . S
H1098 C1086 0.960 . S
H1099 C1086 0.962 . S
H1100 C1086 0.960 . S
H1101 C1087 0.961 . S
H1102 C1087 0.961 . S
H1103 C1087 0.961 . S
H1104 C1088 0.931 . S
H1105 C1093 0.930 . S
H1106 C1094 0.956 . S
H1107 C1094 0.961 . S
H1108 C1094 0.961 . S
H1109 C1095 0.958 . S
H1110 C1095 0.961 . S
H1111 C1095 0.960 . S
C1112 C1113 1.391 . S
C1112 C1114 1.394 . S
C1112 H1128 0.931 . S
C1113 C1112 1.391 . S
C1113 C1117 1.376 . S
C1114 C1112 1.394 . S
C1114 C1115 1.369 . S
C1114 C1118 1.531 . S
C1115 C1114 1.369 . S
C1115 C1116 1.410 . S
C1115 C1123 1.503 . S
C1116 C1115 1.410 . S
C1116 C1117 1.392 . S
C1116 C1119 1.511 . S
C1117 C1113 1.376 . S
C1117 C1116 1.392 . S
C1117 H1129 0.929 . S
C1118 C1114 1.531 . S
C1118 H1130 0.960 . S
C1118 H1131 0.962 . S
C1118 H1132 0.960 . S
C1119 C1116 1.511 . S
C1119 H1133 0.961 . S
C1119 H1134 0.961 . S
C1119 H1135 0.961 . S
C1120 C1121 1.370 . S
C1120 C1122 1.363 . S
C1120 H1136 0.931 . S
C1121 C1120 1.370 . S
C1121 C1125 1.408 . S
C1122 C1120 1.363 . S
C1122 C1123 1.370 . S
C1122 C1126 1.524 . S
C1123 C1115 1.503 . S
C1123 C1122 1.370 . S
C1123 C1124 1.403 . S
C1124 C1123 1.403 . S
C1124 C1125 1.404 . S
C1124 C1127 1.539 . S
C1125 C1121 1.408 . S
C1125 C1124 1.404 . S
C1125 H1137 0.930 . S
C1126 C1122 1.524 . S
C1126 H1138 0.956 . S
C1126 H1139 0.961 . S
C1126 H1140 0.961 . S
C1127 C1124 1.539 . S
C1127 H1141 0.958 . S
C1127 H1142 0.961 . S
C1127 H1143 0.960 . S
H1128 C1112 0.931 . S
H1129 C1117 0.929 . S
H1130 C1118 0.960 . S
H1131 C1118 0.962 . S
H1132 C1118 0.960 . S
H1133 C1119 0.961 . S
H1134 C1119 0.961 . S
H1135 C1119 0.961 . S
H1136 C1120 0.931 . S
H1137 C1125 0.930 . S
H1138 C1126 0.956 . S
H1139 C1126 0.961 . S
H1140 C1126 0.961 . S
H1141 C1127 0.958 . S
H1142 C1127 0.961 . S
H1143 C1127 0.960 . S
C1144 C1145 1.391 . S
C1144 C1146 1.394 . S
C1144 H1160 0.931 . S
C1145 C1144 1.391 . S
C1145 C1149 1.376 . S
C1146 C1144 1.394 . S
C1146 C1147 1.369 . S
C1146 C1150 1.531 . S
C1147 C1146 1.369 . S
C1147 C1148 1.410 . S
C1147 C1155 1.503 . S
C1148 C1147 1.410 . S
C1148 C1149 1.392 . S
C1148 C1151 1.511 . S
C1149 C1145 1.376 . S
C1149 C1148 1.392 . S
C1149 H1161 0.929 . S
C1150 C1146 1.531 . S
C1150 H1162 0.960 . S
C1150 H1163 0.962 . S
C1150 H1164 0.960 . S
C1151 C1148 1.511 . S
C1151 H1165 0.961 . S
C1151 H1166 0.961 . S
C1151 H1167 0.961 . S
C1152 C1153 1.370 . S
C1152 C1154 1.363 . S
C1152 H1168 0.931 . S
C1153 C1152 1.370 . S
C1153 C1157 1.408 . S
C1154 C1152 1.363 . S
C1154 C1155 1.370 . S
C1154 C1158 1.524 . S
C1155 C1147 1.503 . S
C1155 C1154 1.370 . S
C1155 C1156 1.403 . S
C1156 C1155 1.403 . S
C1156 C1157 1.404 . S
C1156 C1159 1.539 . S
C1157 C1153 1.408 . S
C1157 C1156 1.404 . S
C1157 H1169 0.930 . S
C1158 C1154 1.524 . S
C1158 H1170 0.956 . S
C1158 H1171 0.961 . S
C1158 H1172 0.961 . S
C1159 C1156 1.539 . S
C1159 H1173 0.958 . S
C1159 H1174 0.961 . S
C1159 H1175 0.960 . S
H1160 C1144 0.931 . S
H1161 C1149 0.929 . S
H1162 C1150 0.960 . S
H1163 C1150 0.962 . S
H1164 C1150 0.960 . S
H1165 C1151 0.961 . S
H1166 C1151 0.961 . S
H1167 C1151 0.961 . S
H1168 C1152 0.931 . S
H1169 C1157 0.930 . S
H1170 C1158 0.956 . S
H1171 C1158 0.961 . S
H1172 C1158 0.961 . S
H1173 C1159 0.958 . S
H1174 C1159 0.961 . S
H1175 C1159 0.960 . S
C1176 C1177 1.391 . S
C1176 C1178 1.394 . S
C1176 H1192 0.931 . S
C1177 C1176 1.391 . S
C1177 C1181 1.376 . S
C1178 C1176 1.394 . S
C1178 C1179 1.369 . S
C1178 C1182 1.531 . S
C1179 C1178 1.369 . S
C1179 C1180 1.410 . S
C1179 C1187 1.503 . S
C1180 C1179 1.410 . S
C1180 C1181 1.392 . S
C1180 C1183 1.511 . S
C1181 C1177 1.376 . S
C1181 C1180 1.392 . S
C1181 H1193 0.929 . S
C1182 C1178 1.531 . S
C1182 H1194 0.960 . S
C1182 H1195 0.962 . S
C1182 H1196 0.960 . S
C1183 C1180 1.511 . S
C1183 H1197 0.961 . S
C1183 H1198 0.961 . S
C1183 H1199 0.961 . S
C1184 C1185 1.370 . S
C1184 C1186 1.363 . S
C1184 H1200 0.931 . S
C1185 C1184 1.370 . S
C1185 C1189 1.408 . S
C1186 C1184 1.363 . S
C1186 C1187 1.370 . S
C1186 C1190 1.524 . S
C1187 C1179 1.503 . S
C1187 C1186 1.370 . S
C1187 C1188 1.403 . S
C1188 C1187 1.403 . S
C1188 C1189 1.404 . S
C1188 C1191 1.539 . S
C1189 C1185 1.408 . S
C1189 C1188 1.404 . S
C1189 H1201 0.930 . S
C1190 C1186 1.524 . S
C1190 H1202 0.956 . S
C1190 H1203 0.961 . S
C1190 H1204 0.961 . S
C1191 C1188 1.539 . S
C1191 H1205 0.958 . S
C1191 H1206 0.961 . S
C1191 H1207 0.960 . S
H1192 C1176 0.931 . S
H1193 C1181 0.929 . S
H1194 C1182 0.960 . S
H1195 C1182 0.962 . S
H1196 C1182 0.960 . S
H1197 C1183 0.961 . S
H1198 C1183 0.961 . S
H1199 C1183 0.961 . S
H1200 C1184 0.931 . S
H1201 C1189 0.930 . S
H1202 C1190 0.956 . S
H1203 C1190 0.961 . S
H1204 C1190 0.961 . S
H1205 C1191 0.958 . S
H1206 C1191 0.961 . S
H1207 C1191 0.960 . S
C1208 C1209 1.391 . S
C1208 C1210 1.394 . S
C1208 H1224 0.931 . S
C1209 C1208 1.391 . S
C1209 C1213 1.376 . S
C1210 C1208 1.394 . S
C1210 C1211 1.369 . S
C1210 C1214 1.531 . S
C1211 C1210 1.369 . S
C1211 C1212 1.410 . S
C1211 C1219 1.503 . S
C1212 C1211 1.410 . S
C1212 C1213 1.392 . S
C1212 C1215 1.511 . S
C1213 C1209 1.376 . S
C1213 C1212 1.392 . S
C1213 H1225 0.929 . S
C1214 C1210 1.531 . S
C1214 H1226 0.960 . S
C1214 H1227 0.962 . S
C1214 H1228 0.960 . S
C1215 C1212 1.511 . S
C1215 H1229 0.961 . S
C1215 H1230 0.961 . S
C1215 H1231 0.961 . S
C1216 C1217 1.370 . S
C1216 C1218 1.363 . S
C1216 H1232 0.931 . S
C1217 C1216 1.370 . S
C1217 C1221 1.408 . S
C1218 C1216 1.363 . S
C1218 C1219 1.370 . S
C1218 C1222 1.524 . S
C1219 C1211 1.503 . S
C1219 C1218 1.370 . S
C1219 C1220 1.403 . S
C1220 C1219 1.403 . S
C1220 C1221 1.404 . S
C1220 C1223 1.539 . S
C1221 C1217 1.408 . S
C1221 C1220 1.404 . S
C1221 H1233 0.930 . S
C1222 C1218 1.524 . S
C1222 H1234 0.956 . S
C1222 H1235 0.961 . S
C1222 H1236 0.961 . S
C1223 C1220 1.539 . S
C1223 H1237 0.958 . S
C1223 H1238 0.961 . S
C1223 H1239 0.960 . S
H1224 C1208 0.931 . S
H1225 C1213 0.929 . S
H1226 C1214 0.960 . S
H1227 C1214 0.962 . S
H1228 C1214 0.960 . S
H1229 C1215 0.961 . S
H1230 C1215 0.961 . S
H1231 C1215 0.961 . S
H1232 C1216 0.931 . S
H1233 C1221 0.930 . S
H1234 C1222 0.956 . S
H1235 C1222 0.961 . S
H1236 C1222 0.961 . S
H1237 C1223 0.958 . S
H1238 C1223 0.961 . S
H1239 C1223 0.960 . S
C1240 C1241 1.391 . S
C1240 C1242 1.394 . S
C1240 H1256 0.931 . S
C1241 C1240 1.391 . S
C1241 C1245 1.376 . S
C1242 C1240 1.394 . S
C1242 C1243 1.369 . S
C1242 C1246 1.531 . S
C1243 C1242 1.369 . S
C1243 C1244 1.410 . S
C1243 C1251 1.503 . S
C1244 C1243 1.410 . S
C1244 C1245 1.392 . S
C1244 C1247 1.511 . S
C1245 C1241 1.376 . S
C1245 C1244 1.392 . S
C1245 H1257 0.929 . S
C1246 C1242 1.531 . S
C1246 H1258 0.960 . S
C1246 H1259 0.962 . S
C1246 H1260 0.960 . S
C1247 C1244 1.511 . S
C1247 H1261 0.961 . S
C1247 H1262 0.961 . S
C1247 H1263 0.961 . S
C1248 C1249 1.370 . S
C1248 C1250 1.363 . S
C1248 H1264 0.931 . S
C1249 C1248 1.370 . S
C1249 C1253 1.408 . S
C1250 C1248 1.363 . S
C1250 C1251 1.370 . S
C1250 C1254 1.524 . S
C1251 C1243 1.503 . S
C1251 C1250 1.370 . S
C1251 C1252 1.403 . S
C1252 C1251 1.403 . S
C1252 C1253 1.404 . S
C1252 C1255 1.539 . S
C1253 C1249 1.408 . S
C1253 C1252 1.404 . S
C1253 H1265 0.930 . S
C1254 C1250 1.524 . S
C1254 H1266 0.956 . S
C1254 H1267 0.961 . S
C1254 H1268 0.961 . S
C1255 C1252 1.539 . S
C1255 H1269 0.958 . S
C1255 H1270 0.961 . S
C1255 H1271 0.960 . S
H1256 C1240 0.931 . S
H1257 C1245 0.929 . S
H1258 C1246 0.960 . S
H1259 C1246 0.962 . S
H1260 C1246 0.960 . S
H1261 C1247 0.961 . S
H1262 C1247 0.961 . S
H1263 C1247 0.961 . S
H1264 C1248 0.931 . S
H1265 C1253 0.930 . S
H1266 C1254 0.956 . S
H1267 C1254 0.961 . S
H1268 C1254 0.961 . S
H1269 C1255 0.958 . S
H1270 C1255 0.961 . S
H1271 C1255 0.960 . S
C1272 C1273 1.391 . S
C1272 C1274 1.394 . S
C1272 H1288 0.931 . S
C1273 C1272 1.391 . S
C1273 C1277 1.376 . S
C1274 C1272 1.394 . S
C1274 C1275 1.369 . S
C1274 C1278 1.531 . S
C1275 C1274 1.369 . S
C1275 C1276 1.410 . S
C1275 C1283 1.503 . S
C1276 C1275 1.410 . S
C1276 C1277 1.392 . S
C1276 C1279 1.511 . S
C1277 C1273 1.376 . S
C1277 C1276 1.392 . S
C1277 H1289 0.929 . S
C1278 C1274 1.531 . S
C1278 H1290 0.960 . S
C1278 H1291 0.962 . S
C1278 H1292 0.960 . S
C1279 C1276 1.511 . S
C1279 H1293 0.961 . S
C1279 H1294 0.961 . S
C1279 H1295 0.961 . S
C1280 C1281 1.370 . S
C1280 C1282 1.363 . S
C1280 H1296 0.931 . S
C1281 C1280 1.370 . S
C1281 C1285 1.408 . S
C1282 C1280 1.363 . S
C1282 C1283 1.370 . S
C1282 C1286 1.524 . S
C1283 C1275 1.503 . S
C1283 C1282 1.370 . S
C1283 C1284 1.403 . S
C1284 C1283 1.403 . S
C1284 C1285 1.404 . S
C1284 C1287 1.539 . S
C1285 C1281 1.408 . S
C1285 C1284 1.404 . S
C1285 H1297 0.930 . S
C1286 C1282 1.524 . S
C1286 H1298 0.956 . S
C1286 H1299 0.961 . S
C1286 H1300 0.961 . S
C1287 C1284 1.539 . S
C1287 H1301 0.958 . S
C1287 H1302 0.961 . S
C1287 H1303 0.960 . S
H1288 C1272 0.931 . S
H1289 C1277 0.929 . S
H1290 C1278 0.960 . S
H1291 C1278 0.962 . S
H1292 C1278 0.960 . S
H1293 C1279 0.961 . S
H1294 C1279 0.961 . S
H1295 C1279 0.961 . S
H1296 C1280 0.931 . S
H1297 C1285 0.930 . S
H1298 C1286 0.956 . S
H1299 C1286 0.961 . S
H1300 C1286 0.961 . S
H1301 C1287 0.958 . S
H1302 C1287 0.961 . S
H1303 C1287 0.960 . S
C1304 C1305 1.391 . S
C1304 C1306 1.394 . S
C1304 H1320 0.931 . S
C1305 C1304 1.391 . S
C1305 C1309 1.376 . S
C1306 C1304 1.394 . S
C1306 C1307 1.369 . S
C1306 C1310 1.531 . S
C1307 C1306 1.369 . S
C1307 C1308 1.410 . S
C1307 C1315 1.503 . S
C1308 C1307 1.410 . S
C1308 C1309 1.392 . S
C1308 C1311 1.511 . S
C1309 C1305 1.376 . S
C1309 C1308 1.392 . S
C1309 H1321 0.929 . S
C1310 C1306 1.531 . S
C1310 H1322 0.960 . S
C1310 H1323 0.962 . S
C1310 H1324 0.960 . S
C1311 C1308 1.511 . S
C1311 H1325 0.961 . S
C1311 H1326 0.961 . S
C1311 H1327 0.961 . S
C1312 C1313 1.370 . S
C1312 C1314 1.363 . S
C1312 H1328 0.931 . S
C1313 C1312 1.370 . S
C1313 C1317 1.408 . S
C1314 C1312 1.363 . S
C1314 C1315 1.370 . S
C1314 C1318 1.524 . S
C1315 C1307 1.503 . S
C1315 C1314 1.370 . S
C1315 C1316 1.403 . S
C1316 C1315 1.403 . S
C1316 C1317 1.404 . S
C1316 C1319 1.539 . S
C1317 C1313 1.408 . S
C1317 C1316 1.404 . S
C1317 H1329 0.930 . S
C1318 C1314 1.524 . S
C1318 H1330 0.956 . S
C1318 H1331 0.961 . S
C1318 H1332 0.961 . S
C1319 C1316 1.539 . S
C1319 H1333 0.958 . S
C1319 H1334 0.961 . S
C1319 H1335 0.960 . S
H1320 C1304 0.931 . S
H1321 C1309 0.929 . S
H1322 C1310 0.960 . S
H1323 C1310 0.962 . S
H1324 C1310 0.960 . S
H1325 C1311 0.961 . S
H1326 C1311 0.961 . S
H1327 C1311 0.961 . S
H1328 C1312 0.931 . S
H1329 C1317 0.930 . S
H1330 C1318 0.956 . S
H1331 C1318 0.961 . S
H1332 C1318 0.961 . S
H1333 C1319 0.958 . S
H1334 C1319 0.961 . S
H1335 C1319 0.960 . S
C1336 C1337 1.391 . S
C1336 C1338 1.394 . S
C1336 H1352 0.931 . S
C1337 C1336 1.391 . S
C1337 C1341 1.376 . S
C1338 C1336 1.394 . S
C1338 C1339 1.369 . S
C1338 C1342 1.531 . S
C1339 C1338 1.369 . S
C1339 C1340 1.410 . S
C1339 C1347 1.503 . S
C1340 C1339 1.410 . S
C1340 C1341 1.392 . S
C1340 C1343 1.511 . S
C1341 C1337 1.376 . S
C1341 C1340 1.392 . S
C1341 H1353 0.929 . S
C1342 C1338 1.531 . S
C1342 H1354 0.960 . S
C1342 H1355 0.962 . S
C1342 H1356 0.960 . S
C1343 C1340 1.511 . S
C1343 H1357 0.961 . S
C1343 H1358 0.961 . S
C1343 H1359 0.961 . S
C1344 C1345 1.370 . S
C1344 C1346 1.363 . S
C1344 H1360 0.931 . S
C1345 C1344 1.370 . S
C1345 C1349 1.408 . S
C1346 C1344 1.363 . S
C1346 C1347 1.370 . S
C1346 C1350 1.524 . S
C1347 C1339 1.503 . S
C1347 C1346 1.370 . S
C1347 C1348 1.403 . S
C1348 C1347 1.403 . S
C1348 C1349 1.404 . S
C1348 C1351 1.539 . S
C1349 C1345 1.408 . S
C1349 C1348 1.404 . S
C1349 H1361 0.930 . S
C1350 C1346 1.524 . S
C1350 H1362 0.956 . S
C1350 H1363 0.961 . S
C1350 H1364 0.961 . S
C1351 C1348 1.539 . S
C1351 H1365 0.958 . S
C1351 H1366 0.961 . S
C1351 H1367 0.960 . S
H1352 C1336 0.931 . S
H1353 C1341 0.929 . S
H1354 C1342 0.960 . S
H1355 C1342 0.962 . S
H1356 C1342 0.960 . S
H1357 C1343 0.961 . S
H1358 C1343 0.961 . S
H1359 C1343 0.961 . S
H1360 C1344 0.931 . S
H1361 C1349 0.930 . S
H1362 C1350 0.956 . S
H1363 C1350 0.961 . S
H1364 C1350 0.961 . S
H1365 C1351 0.958 . S
H1366 C1351 0.961 . S
H1367 C1351 0.960 . S
C1368 C1369 1.391 . S
C1368 C1370 1.394 . S
C1368 H1384 0.931 . S
C1369 C1368 1.391 . S
C1369 C1373 1.376 . S
C1370 C1368 1.394 . S
C1370 C1371 1.369 . S
C1370 C1374 1.531 . S
C1371 C1370 1.369 . S
C1371 C1372 1.410 . S
C1371 C1379 1.503 . S
C1372 C1371 1.410 . S
C1372 C1373 1.392 . S
C1372 C1375 1.511 . S
C1373 C1369 1.376 . S
C1373 C1372 1.392 . S
C1373 H1385 0.929 . S
C1374 C1370 1.531 . S
C1374 H1386 0.960 . S
C1374 H1387 0.962 . S
C1374 H1388 0.960 . S
C1375 C1372 1.511 . S
C1375 H1389 0.961 . S
C1375 H1390 0.961 . S
C1375 H1391 0.961 . S
C1376 C1377 1.370 . S
C1376 C1378 1.363 . S
C1376 H1392 0.931 . S
C1377 C1376 1.370 . S
C1377 C1381 1.408 . S
C1378 C1376 1.363 . S
C1378 C1379 1.370 . S
C1378 C1382 1.524 . S
C1379 C1371 1.503 . S
C1379 C1378 1.370 . S
C1379 C1380 1.403 . S
C1380 C1379 1.403 . S
C1380 C1381 1.404 . S
C1380 C1383 1.539 . S
C1381 C1377 1.408 . S
C1381 C1380 1.404 . S
C1381 H1393 0.930 . S
C1382 C1378 1.524 . S
C1382 H1394 0.956 . S
C1382 H1395 0.961 . S
C1382 H1396 0.961 . S
C1383 C1380 1.539 . S
C1383 H1397 0.958 . S
C1383 H1398 0.961 . S
C1383 H1399 0.960 . S
H1384 C1368 0.931 . S
H1385 C1373 0.929 . S
H1386 C1374 0.960 . S
H1387 C1374 0.962 . S
H1388 C1374 0.960 . S
H1389 C1375 0.961 . S
H1390 C1375 0.961 . S
H1391 C1375 0.961 . S
H1392 C1376 0.931 . S
H1393 C1381 0.930 . S
H1394 C1382 0.956 . S
H1395 C1382 0.961 . S
H1396 C1382 0.961 . S
H1397 C1383 0.958 . S
H1398 C1383 0.961 . S
H1399 C1383 0.960 . S
C1400 C1401 1.391 . S
C1400 C1402 1.394 . S
C1400 H1416 0.931 . S
C1401 C1400 1.391 . S
C1401 C1405 1.376 . S
C1402 C1400 1.394 . S
C1402 C1403 1.369 . S
C1402 C1406 1.531 . S
C1403 C1402 1.369 . S
C1403 C1404 1.410 . S
C1403 C1411 1.503 . S
C1404 C1403 1.410 . S
C1404 C1405 1.392 . S
C1404 C1407 1.511 . S
C1405 C1401 1.376 . S
C1405 C1404 1.392 . S
C1405 H1417 0.929 . S
C1406 C1402 1.531 . S
C1406 H1418 0.960 . S
C1406 H1419 0.962 . S
C1406 H1420 0.960 . S
C1407 C1404 1.511 . S
C1407 H1421 0.961 . S
C1407 H1422 0.961 . S
C1407 H1423 0.961 . S
C1408 C1409 1.370 . S
C1408 C1410 1.363 . S
C1408 H1424 0.931 . S
C1409 C1408 1.370 . S
C1409 C1413 1.408 . S
C1410 C1408 1.363 . S
C1410 C1411 1.370 . S
C1410 C1414 1.524 . S
C1411 C1403 1.503 . S
C1411 C1410 1.370 . S
C1411 C1412 1.403 . S
C1412 C1411 1.403 . S
C1412 C1413 1.404 . S
C1412 C1415 1.539 . S
C1413 C1409 1.408 . S
C1413 C1412 1.404 . S
C1413 H1425 0.930 . S
C1414 C1410 1.524 . S
C1414 H1426 0.956 . S
C1414 H1427 0.961 . S
C1414 H1428 0.961 . S
C1415 C1412 1.539 . S
C1415 H1429 0.958 . S
C1415 H1430 0.961 . S
C1415 H1431 0.960 . S
H1416 C1400 0.931 . S
H1417 C1405 0.929 . S
H1418 C1406 0.960 . S
H1419 C1406 0.962 . S
H1420 C1406 0.960 . S
H1421 C1407 0.961 . S
H1422 C1407 0.961 . S
H1423 C1407 0.961 . S
H1424 C1408 0.931 . S
H1425 C1413 0.930 . S
H1426 C1414 0.956 . S
H1427 C1414 0.961 . S
H1428 C1414 0.961 . S
H1429 C1415 0.958 . S
H1430 C1415 0.961 . S
H1431 C1415 0.960 . S
C1432 C1433 1.391 . S
C1432 C1434 1.394 . S
C1432 H1448 0.931 . S
C1433 C1432 1.391 . S
C1433 C1437 1.376 . S
C1434 C1432 1.394 . S
C1434 C1435 1.369 . S
C1434 C1438 1.531 . S
C1435 C1434 1.369 . S
C1435 C1436 1.410 . S
C1435 C1443 1.503 . S
C1436 C1435 1.410 . S
C1436 C1437 1.392 . S
C1436 C1439 1.511 . S
C1437 C1433 1.376 . S
C1437 C1436 1.392 . S
C1437 H1449 0.929 . S
C1438 C1434 1.531 . S
C1438 H1450 0.960 . S
C1438 H1451 0.962 . S
C1438 H1452 0.960 . S
C1439 C1436 1.511 . S
C1439 H1453 0.961 . S
C1439 H1454 0.961 . S
C1439 H1455 0.961 . S
C1440 C1441 1.370 . S
C1440 C1442 1.363 . S
C1440 H1456 0.931 . S
C1441 C1440 1.370 . S
C1441 C1445 1.408 . S
C1442 C1440 1.363 . S
C1442 C1443 1.370 . S
C1442 C1446 1.524 . S
C1443 C1435 1.503 . S
C1443 C1442 1.370 . S
C1443 C1444 1.403 . S
C1444 C1443 1.403 . S
C1444 C1445 1.404 . S
C1444 C1447 1.539 . S
C1445 C1441 1.408 . S
C1445 C1444 1.404 . S
C1445 H1457 0.930 . S
C1446 C1442 1.524 . S
C1446 H1458 0.956 . S
C1446 H1459 0.961 . S
C1446 H1460 0.961 . S
C1447 C1444 1.539 . S
C1447 H1461 0.958 . S
C1447 H1462 0.961 . S
C1447 H1463 0.960 . S
H1448 C1432 0.931 . S
H1449 C1437 0.929 . S
H1450 C1438 0.960 . S
H1451 C1438 0.962 . S
H1452 C1438 0.960 . S
H1453 C1439 0.961 . S
H1454 C1439 0.961 . S
H1455 C1439 0.961 . S
H1456 C1440 0.931 . S
H1457 C1445 0.930 . S
H1458 C1446 0.956 . S
H1459 C1446 0.961 . S
H1460 C1446 0.961 . S
H1461 C1447 0.958 . S
H1462 C1447 0.961 . S
H1463 C1447 0.960 . S
C1464 C1465 1.391 . S
C1464 C1466 1.394 . S
C1464 H1480 0.931 . S
C1465 C1464 1.391 . S
C1465 C1469 1.376 . S
C1466 C1464 1.394 . S
C1466 C1467 1.369 . S
C1466 C1470 1.531 . S
C1467 C1466 1.369 . S
C1467 C1468 1.410 . S
C1467 C1475 1.503 . S
C1468 C1467 1.410 . S
C1468 C1469 1.392 . S
C1468 C1471 1.511 . S
C1469 C1465 1.376 . S
C1469 C1468 1.392 . S
C1469 H1481 0.929 . S
C1470 C1466 1.531 . S
C1470 H1482 0.960 . S
C1470 H1483 0.962 . S
C1470 H1484 0.960 . S
C1471 C1468 1.511 . S
C1471 H1485 0.961 . S
C1471 H1486 0.961 . S
C1471 H1487 0.961 . S
C1472 C1473 1.370 . S
C1472 C1474 1.363 . S
C1472 H1488 0.931 . S
C1473 C1472 1.370 . S
C1473 C1477 1.408 . S
C1474 C1472 1.363 . S
C1474 C1475 1.370 . S
C1474 C1478 1.524 . S
C1475 C1467 1.503 . S
C1475 C1474 1.370 . S
C1475 C1476 1.403 . S
C1476 C1475 1.403 . S
C1476 C1477 1.404 . S
C1476 C1479 1.539 . S
C1477 C1473 1.408 . S
C1477 C1476 1.404 . S
C1477 H1489 0.930 . S
C1478 C1474 1.524 . S
C1478 H1490 0.956 . S
C1478 H1491 0.961 . S
C1478 H1492 0.961 . S
C1479 C1476 1.539 . S
C1479 H1493 0.958 . S
C1479 H1494 0.961 . S
C1479 H1495 0.960 . S
H1480 C1464 0.931 . S
H1481 C1469 0.929 . S
H1482 C1470 0.960 . S
H1483 C1470 0.962 . S
H1484 C1470 0.960 . S
H1485 C1471 0.961 . S
H1486 C1471 0.961 . S
H1487 C1471 0.961 . S
H1488 C1472 0.931 . S
H1489 C1477 0.930 . S
H1490 C1478 0.956 . S
H1491 C1478 0.961 . S
H1492 C1478 0.961 . S
H1493 C1479 0.958 . S
H1494 C1479 0.961 . S
H1495 C1479 0.960 . S
C1496 C1497 1.391 . S
C1496 C1498 1.394 . S
C1496 H1512 0.931 . S
C1497 C1496 1.391 . S
C1497 C1501 1.376 . S
C1498 C1496 1.394 . S
C1498 C1499 1.369 . S
C1498 C1502 1.531 . S
C1499 C1498 1.369 . S
C1499 C1500 1.410 . S
C1499 C1507 1.503 . S
C1500 C1499 1.410 . S
C1500 C1501 1.392 . S
C1500 C1503 1.511 . S
C1501 C1497 1.376 . S
C1501 C1500 1.392 . S
C1501 H1513 0.929 . S
C1502 C1498 1.531 . S
C1502 H1514 0.960 . S
C1502 H1515 0.962 . S
C1502 H1516 0.960 . S
C1503 C1500 1.511 . S
C1503 H1517 0.961 . S
C1503 H1518 0.961 . S
C1503 H1519 0.961 . S
C1504 C1505 1.370 . S
C1504 C1506 1.363 . S
C1504 H1520 0.931 . S
C1505 C1504 1.370 . S
C1505 C1509 1.408 . S
C1506 C1504 1.363 . S
C1506 C1507 1.370 . S
C1506 C1510 1.524 . S
C1507 C1499 1.503 . S
C1507 C1506 1.370 . S
C1507 C1508 1.403 . S
C1508 C1507 1.403 . S
C1508 C1509 1.404 . S
C1508 C1511 1.539 . S
C1509 C1505 1.408 . S
C1509 C1508 1.404 . S
C1509 H1521 0.930 . S
C1510 C1506 1.524 . S
C1510 H1522 0.956 . S
C1510 H1523 0.961 . S
C1510 H1524 0.961 . S
C1511 C1508 1.539 . S
C1511 H1525 0.958 . S
C1511 H1526 0.961 . S
C1511 H1527 0.960 . S
H1512 C1496 0.931 . S
H1513 C1501 0.929 . S
H1514 C1502 0.960 . S
H1515 C1502 0.962 . S
H1516 C1502 0.960 . S
H1517 C1503 0.961 . S
H1518 C1503 0.961 . S
H1519 C1503 0.961 . S
H1520 C1504 0.931 . S
H1521 C1509 0.930 . S
H1522 C1510 0.956 . S
H1523 C1510 0.961 . S
H1524 C1510 0.961 . S
H1525 C1511 0.958 . S
H1526 C1511 0.961 . S
H1527 C1511 0.960 . S
C1528 C1529 1.391 . S
C1528 C1530 1.394 . S
C1528 H1544 0.931 . S
C1529 C1528 1.391 . S
C1529 C1533 1.376 . S
C1530 C1528 1.394 . S
C1530 C1531 1.369 . S
C1530 C1534 1.531 . S
C1531 C1530 1.369 . S
C1531 C1532 1.410 . S
C1531 C1539 1.503 . S
C1532 C1531 1.410 . S
C1532 C1533 1.392 . S
C1532 C1535 1.511 . S
C1533 C1529 1.376 . S
C1533 C1532 1.392 . S
C1533 H1545 0.929 . S
C1534 C1530 1.531 . S
C1534 H1546 0.960 . S
C1534 H1547 0.962 . S
C1534 H1548 0.960 . S
C1535 C1532 1.511 . S
C1535 H1549 0.961 . S
C1535 H1550 0.961 . S
C1535 H1551 0.961 . S
C1536 C1537 1.370 . S
C1536 C1538 1.363 . S
C1536 H1552 0.931 . S
C1537 C1536 1.370 . S
C1537 C1541 1.408 . S
C1538 C1536 1.363 . S
C1538 C1539 1.370 . S
C1538 C1542 1.524 . S
C1539 C1531 1.503 . S
C1539 C1538 1.370 . S
C1539 C1540 1.403 . S
C1540 C1539 1.403 . S
C1540 C1541 1.404 . S
C1540 C1543 1.539 . S
C1541 C1537 1.408 . S
C1541 C1540 1.404 . S
C1541 H1553 0.930 . S
C1542 C1538 1.524 . S
C1542 H1554 0.956 . S
C1542 H1555 0.961 . S
C1542 H1556 0.961 . S
C1543 C1540 1.539 . S
C1543 H1557 0.958 . S
C1543 H1558 0.961 . S
C1543 H1559 0.960 . S
H1544 C1528 0.931 . S
H1545 C1533 0.929 . S
H1546 C1534 0.960 . S
H1547 C1534 0.962 . S
H1548 C1534 0.960 . S
H1549 C1535 0.961 . S
H1550 C1535 0.961 . S
H1551 C1535 0.961 . S
H1552 C1536 0.931 . S
H1553 C1541 0.930 . S
H1554 C1542 0.956 . S
H1555 C1542 0.961 . S
H1556 C1542 0.961 . S
H1557 C1543 0.958 . S
H1558 C1543 0.961 . S
H1559 C1543 0.960 . S
C1560 C1561 1.391 . S
C1560 C1562 1.394 . S
C1560 H1576 0.931 . S
C1561 C1560 1.391 . S
C1561 C1565 1.376 . S
C1562 C1560 1.394 . S
C1562 C1563 1.369 . S
C1562 C1566 1.531 . S
C1563 C1562 1.369 . S
C1563 C1564 1.410 . S
C1563 C1571 1.503 . S
C1564 C1563 1.410 . S
C1564 C1565 1.392 . S
C1564 C1567 1.511 . S
C1565 C1561 1.376 . S
C1565 C1564 1.392 . S
C1565 H1577 0.929 . S
C1566 C1562 1.531 . S
C1566 H1578 0.960 . S
C1566 H1579 0.962 . S
C1566 H1580 0.960 . S
C1567 C1564 1.511 . S
C1567 H1581 0.961 . S
C1567 H1582 0.961 . S
C1567 H1583 0.961 . S
C1568 C1569 1.370 1_554 S
C1568 C1570 1.363 . S
C1568 H1584 0.931 . S
C1569 C1568 1.370 1_556 S
C1569 C1573 1.408 1_556 S
C1570 C1568 1.363 . S
C1570 C1571 1.370 . S
C1570 C1574 1.524 . S
C1571 C1563 1.503 . S
C1571 C1570 1.370 . S
C1571 C1572 1.403 . S
C1572 C1571 1.403 . S
C1572 C1573 1.404 . S
C1572 C1575 1.539 . S
C1573 C1569 1.408 1_554 S
C1573 C1572 1.404 . S
C1573 H1585 0.930 . S
C1574 C1570 1.524 . S
C1574 H1586 0.956 . S
C1574 H1587 0.961 . S
C1574 H1588 0.961 . S
C1575 C1572 1.539 . S
C1575 H1589 0.958 . S
C1575 H1590 0.961 . S
C1575 H1591 0.960 . S
H1576 C1560 0.931 . S
H1577 C1565 0.929 . S
H1578 C1566 0.960 . S
H1579 C1566 0.962 . S
H1580 C1566 0.960 . S
H1581 C1567 0.961 . S
H1582 C1567 0.961 . S
H1583 C1567 0.961 . S
H1584 C1568 0.931 . S
H1585 C1573 0.930 . S
H1586 C1574 0.956 . S
H1587 C1574 0.961 . S
H1588 C1574 0.961 . S
H1589 C1575 0.958 . S
H1590 C1575 0.961 . S
H1591 C1575 0.960 . S
C1592 C1593 1.391 1_554 S
C1592 C1594 1.394 . S
C1592 H1608 0.931 . S
C1593 C1592 1.391 1_556 S
C1593 C1597 1.376 1_556 S
C1594 C1592 1.394 . S
C1594 C1595 1.369 . S
C1594 C1598 1.531 . S
C1595 C1594 1.369 . S
C1595 C1596 1.410 . S
C1595 C1603 1.503 . S
C1596 C1595 1.410 . S
C1596 C1597 1.392 . S
C1596 C1599 1.511 . S
C1597 C1593 1.376 1_554 S
C1597 C1596 1.392 . S
C1597 H1609 0.929 . S
C1598 C1594 1.531 . S
C1598 H1610 0.960 . S
C1598 H1611 0.962 . S
C1598 H1612 0.960 . S
C1599 C1596 1.511 . S
C1599 H1613 0.961 . S
C1599 H1614 0.961 . S
C1599 H1615 0.961 . S
C1600 C1601 1.370 . S
C1600 C1602 1.363 . S
C1600 H1616 0.931 . S
C1601 C1600 1.370 . S
C1601 C1605 1.408 . S
C1602 C1600 1.363 . S
C1602 C1603 1.370 . S
C1602 C1606 1.524 . S
C1603 C1595 1.503 . S
C1603 C1602 1.370 . S
C1603 C1604 1.403 . S
C1604 C1603 1.403 . S
C1604 C1605 1.404 . S
C1604 C1607 1.539 . S
C1605 C1601 1.408 . S
C1605 C1604 1.404 . S
C1605 H1617 0.930 . S
C1606 C1602 1.524 . S
C1606 H1618 0.956 . S
C1606 H1619 0.961 . S
C1606 H1620 0.961 . S
C1607 C1604 1.539 . S
C1607 H1621 0.958 . S
C1607 H1622 0.961 . S
C1607 H1623 0.960 . S
H1608 C1592 0.931 . S
H1609 C1597 0.929 . S
H1610 C1598 0.960 . S
H1611 C1598 0.962 . S
H1612 C1598 0.960 . S
H1613 C1599 0.961 . S
H1614 C1599 0.961 . S
H1615 C1599 0.961 . S
H1616 C1600 0.931 . S
H1617 C1605 0.930 . S
H1618 C1606 0.956 . S
H1619 C1606 0.961 . S
H1620 C1606 0.961 . S
H1621 C1607 0.958 . S
H1622 C1607 0.961 . S
H1623 C1607 0.960 . S
C1624 C1625 1.391 . S
C1624 C1626 1.394 . S
C1624 H1640 0.931 . S
C1625 C1624 1.391 . S
C1625 C1629 1.376 . S
C1626 C1624 1.394 . S
C1626 C1627 1.369 . S
C1626 C1630 1.531 . S
C1627 C1626 1.369 . S
C1627 C1628 1.410 . S
C1627 C1635 1.503 . S
C1628 C1627 1.410 . S
C1628 C1629 1.392 . S
C1628 C1631 1.511 . S
C1629 C1625 1.376 . S
C1629 C1628 1.392 . S
C1629 H1641 0.929 . S
C1630 C1626 1.531 . S
C1630 H1642 0.960 . S
C1630 H1643 0.962 . S
C1630 H1644 0.960 . S
C1631 C1628 1.511 . S
C1631 H1645 0.961 . S
C1631 H1646 0.961 . S
C1631 H1647 0.961 . S
C1632 C1633 1.370 1_554 S
C1632 C1634 1.363 . S
C1632 H1648 0.931 . S
C1633 C1632 1.370 1_556 S
C1633 C1637 1.408 1_556 S
C1634 C1632 1.363 . S
C1634 C1635 1.370 . S
C1634 C1638 1.524 . S
C1635 C1627 1.503 . S
C1635 C1634 1.370 . S
C1635 C1636 1.403 . S
C1636 C1635 1.403 . S
C1636 C1637 1.404 . S
C1636 C1639 1.539 . S
C1637 C1633 1.408 1_554 S
C1637 C1636 1.404 . S
C1637 H1649 0.930 1_554 S
C1638 C1634 1.524 . S
C1638 H1650 0.956 . S
C1638 H1651 0.961 . S
C1638 H1652 0.961 . S
C1639 C1636 1.539 . S
C1639 H1653 0.958 . S
C1639 H1654 0.961 . S
C1639 H1655 0.960 . S
H1640 C1624 0.931 . S
H1641 C1629 0.929 . S
H1642 C1630 0.960 . S
H1643 C1630 0.962 . S
H1644 C1630 0.960 . S
H1645 C1631 0.961 . S
H1646 C1631 0.961 . S
H1647 C1631 0.961 . S
H1648 C1632 0.931 . S
H1649 C1637 0.930 1_556 S
H1650 C1638 0.956 . S
H1651 C1638 0.961 . S
H1652 C1638 0.961 . S
H1653 C1639 0.958 . S
H1654 C1639 0.961 . S
H1655 C1639 0.960 . S
C1656 C1657 1.391 . S
C1656 C1658 1.394 . S
C1656 H1672 0.931 . S
C1657 C1656 1.391 . S
C1657 C1661 1.376 . S
C1658 C1656 1.394 . S
C1658 C1659 1.369 . S
C1658 C1662 1.531 . S
C1659 C1658 1.369 . S
C1659 C1660 1.410 . S
C1659 C1667 1.503 . S
C1660 C1659 1.410 . S
C1660 C1661 1.392 . S
C1660 C1663 1.511 . S
C1661 C1657 1.376 . S
C1661 C1660 1.392 . S
C1661 H1673 0.929 . S
C1662 C1658 1.531 . S
C1662 H1674 0.960 . S
C1662 H1675 0.962 . S
C1662 H1676 0.960 . S
C1663 C1660 1.511 . S
C1663 H1677 0.961 . S
C1663 H1678 0.961 . S
C1663 H1679 0.961 . S
C1664 C1665 1.370 . S
C1664 C1666 1.363 . S
C1664 H1680 0.931 . S
C1665 C1664 1.370 . S
C1665 C1669 1.408 . S
C1666 C1664 1.363 . S
C1666 C1667 1.370 . S
C1666 C1670 1.524 . S
C1667 C1659 1.503 . S
C1667 C1666 1.370 . S
C1667 C1668 1.403 . S
C1668 C1667 1.403 . S
C1668 C1669 1.404 . S
C1668 C1671 1.539 . S
C1669 C1665 1.408 . S
C1669 C1668 1.404 . S
C1669 H1681 0.930 . S
C1670 C1666 1.524 . S
C1670 H1682 0.956 . S
C1670 H1683 0.961 . S
C1670 H1684 0.961 . S
C1671 C1668 1.539 . S
C1671 H1685 0.958 . S
C1671 H1686 0.961 . S
C1671 H1687 0.960 . S
H1672 C1656 0.931 . S
H1673 C1661 0.929 . S
H1674 C1662 0.960 . S
H1675 C1662 0.962 . S
H1676 C1662 0.960 . S
H1677 C1663 0.961 . S
H1678 C1663 0.961 . S
H1679 C1663 0.961 . S
H1680 C1664 0.931 . S
H1681 C1669 0.930 . S
H1682 C1670 0.956 . S
H1683 C1670 0.961 . S
H1684 C1670 0.961 . S
H1685 C1671 0.958 . S
H1686 C1671 0.961 . S
H1687 C1671 0.960 . S
C1688 C1689 1.391 . S
C1688 C1690 1.394 . S
C1688 H1704 0.931 . S
C1689 C1688 1.391 . S
C1689 C1693 1.376 . S
C1690 C1688 1.394 . S
C1690 C1691 1.369 . S
C1690 C1694 1.531 . S
C1691 C1690 1.369 . S
C1691 C1692 1.410 . S
C1691 C1699 1.503 1_565 S
C1692 C1691 1.410 . S
C1692 C1693 1.392 . S
C1692 C1695 1.511 . S
C1693 C1689 1.376 . S
C1693 C1692 1.392 . S
C1693 H1705 0.929 . S
C1694 C1690 1.531 . S
C1694 H1706 0.960 . S
C1694 H1707 0.962 . S
C1694 H1708 0.960 . S
C1695 C1692 1.511 . S
C1695 H1709 0.961 . S
C1695 H1710 0.961 1_565 S
C1695 H1711 0.961 . S
C1696 C1697 1.370 . S
C1696 C1698 1.363 . S
C1696 H1712 0.931 . S
C1697 C1696 1.370 . S
C1697 C1701 1.408 . S
C1698 C1696 1.363 . S
C1698 C1699 1.370 . S
C1698 C1702 1.524 . S
C1699 C1691 1.503 1_545 S
C1699 C1698 1.370 . S
C1699 C1700 1.403 . S
C1700 C1699 1.403 . S
C1700 C1701 1.404 . S
C1700 C1703 1.539 . S
C1701 C1697 1.408 . S
C1701 C1700 1.404 . S
C1701 H1713 0.930 . S
C1702 C1698 1.524 . S
C1702 H1714 0.956 . S
C1702 H1715 0.961 . S
C1702 H1716 0.961 . S
C1703 C1700 1.539 . S
C1703 H1717 0.958 . S
C1703 H1718 0.961 . S
C1703 H1719 0.960 1_545 S
H1704 C1688 0.931 . S
H1705 C1693 0.929 . S
H1706 C1694 0.960 . S
H1707 C1694 0.962 . S
H1708 C1694 0.960 . S
H1709 C1695 0.961 . S
H1710 C1695 0.961 1_545 S
H1711 C1695 0.961 . S
H1712 C1696 0.931 . S
H1713 C1701 0.930 . S
H1714 C1702 0.956 . S
H1715 C1702 0.961 . S
H1716 C1702 0.961 . S
H1717 C1703 0.958 . S
H1718 C1703 0.961 . S
H1719 C1703 0.960 1_565 S
C1720 C1721 1.391 . S
C1720 C1722 1.394 . S
C1720 H1736 0.931 . S
C1721 C1720 1.391 . S
C1721 C1725 1.376 . S
C1722 C1720 1.394 . S
C1722 C1723 1.369 . S
C1722 C1726 1.531 . S
C1723 C1722 1.369 . S
C1723 C1724 1.410 . S
C1723 C1731 1.503 1_655 S
C1724 C1723 1.410 . S
C1724 C1725 1.392 . S
C1724 C1727 1.511 . S
C1725 C1721 1.376 . S
C1725 C1724 1.392 . S
C1725 H1737 0.929 . S
C1726 C1722 1.531 . S
C1726 H1738 0.960 1_655 S
C1726 H1739 0.962 . S
C1726 H1740 0.960 . S
C1727 C1724 1.511 . S
C1727 H1741 0.961 . S
C1727 H1742 0.960 . S
C1727 H1743 0.961 . S
C1728 C1729 1.370 . S
C1728 C1730 1.363 . S
C1728 H1744 0.931 . S
C1729 C1728 1.370 . S
C1729 C1733 1.408 . S
C1730 C1728 1.363 . S
C1730 C1731 1.370 . S
C1730 C1734 1.524 . S
C1731 C1723 1.503 1_455 S
C1731 C1730 1.370 . S
C1731 C1732 1.403 . S
C1732 C1731 1.403 . S
C1732 C1733 1.404 . S
C1732 C1735 1.539 . S
C1733 C1729 1.408 . S
C1733 C1732 1.404 . S
C1733 H1745 0.930 . S
C1734 C1730 1.524 . S
C1734 H1746 0.956 1_455 S
C1734 H1747 0.961 1_455 S
C1734 H1748 0.961 . S
C1735 C1732 1.539 . S
C1735 H1749 0.958 . S
C1735 H1750 0.961 . S
C1735 H1751 0.960 . S
H1736 C1720 0.931 . S
H1737 C1725 0.929 . S
H1738 C1726 0.960 1_455 S
H1739 C1726 0.962 . S
H1740 C1726 0.960 . S
H1741 C1727 0.961 . S
H1742 C1727 0.960 . S
H1743 C1727 0.961 . S
H1744 C1728 0.931 . S
H1745 C1733 0.930 . S
H1746 C1734 0.956 1_655 S
H1747 C1734 0.961 1_655 S
H1748 C1734 0.961 . S
H1749 C1735 0.958 . S
H1750 C1735 0.961 . S
H1751 C1735 0.960 . S
C1752 C1753 1.391 . S
C1752 C1754 1.394 . S
C1752 H1768 0.931 . S
C1753 C1752 1.391 . S
C1753 C1757 1.376 . S
C1754 C1752 1.394 . S
C1754 C1755 1.369 . S
C1754 C1758 1.531 . S
C1755 C1754 1.369 . S
C1755 C1756 1.410 . S
C1755 C1763 1.503 . S
C1756 C1755 1.410 . S
C1756 C1757 1.392 . S
C1756 C1759 1.511 . S
C1757 C1753 1.376 . S
C1757 C1756 1.392 . S
C1757 H1769 0.929 . S
C1758 C1754 1.531 . S
C1758 H1770 0.960 . S
C1758 H1771 0.962 . S
C1758 H1772 0.960 . S
C1759 C1756 1.511 . S
C1759 H1773 0.961 . S
C1759 H1774 0.961 . S
C1759 H1775 0.961 . S
C1760 C1761 1.370 . S
C1760 C1762 1.363 . S
C1760 H1776 0.931 . S
C1761 C1760 1.370 . S
C1761 C1765 1.408 . S
C1762 C1760 1.363 . S
C1762 C1763 1.370 . S
C1762 C1766 1.524 . S
C1763 C1755 1.503 . S
C1763 C1762 1.370 . S
C1763 C1764 1.403 . S
C1764 C1763 1.403 . S
C1764 C1765 1.404 . S
C1764 C1767 1.539 . S
C1765 C1761 1.408 . S
C1765 C1764 1.404 . S
C1765 H1777 0.930 . S
C1766 C1762 1.524 . S
C1766 H1778 0.956 . S
C1766 H1779 0.961 . S
C1766 H1780 0.961 . S
C1767 C1764 1.539 . S
C1767 H1781 0.958 . S
C1767 H1782 0.961 . S
C1767 H1783 0.960 . S
H1768 C1752 0.931 . S
H1769 C1757 0.929 . S
H1770 C1758 0.960 . S
H1771 C1758 0.962 . S
H1772 C1758 0.960 . S
H1773 C1759 0.961 . S
H1774 C1759 0.961 . S
H1775 C1759 0.961 . S
H1776 C1760 0.931 . S
H1777 C1765 0.930 . S
H1778 C1766 0.956 . S
H1779 C1766 0.961 . S
H1780 C1766 0.961 . S
H1781 C1767 0.958 . S
H1782 C1767 0.961 . S
H1783 C1767 0.960 . S
C1784 C1785 1.391 . S
C1784 C1786 1.394 . S
C1784 H1800 0.931 . S
C1785 C1784 1.391 . S
C1785 C1789 1.376 . S
C1786 C1784 1.394 . S
C1786 C1787 1.369 . S
C1786 C1790 1.531 . S
C1787 C1786 1.369 . S
C1787 C1788 1.410 . S
C1787 C1795 1.503 1_545 S
C1788 C1787 1.410 . S
C1788 C1789 1.392 . S
C1788 C1791 1.511 . S
C1789 C1785 1.376 . S
C1789 C1788 1.392 . S
C1789 H1801 0.929 . S
C1790 C1786 1.531 . S
C1790 H1802 0.960 1_545 S
C1790 H1803 0.962 . S
C1790 H1804 0.960 . S
C1791 C1788 1.511 . S
C1791 H1805 0.961 . S
C1791 H1806 1.006 . S
C1791 H1807 0.961 . S
C1792 C1793 1.370 . S
C1792 C1794 1.363 . S
C1792 H1808 0.931 . S
C1793 C1792 1.370 . S
C1793 C1797 1.408 . S
C1794 C1792 1.363 . S
C1794 C1795 1.370 . S
C1794 C1798 1.524 . S
C1795 C1787 1.503 1_565 S
C1795 C1794 1.370 . S
C1795 C1796 1.403 . S
C1796 C1795 1.403 . S
C1796 C1797 1.404 . S
C1796 C1799 1.539 . S
C1797 C1793 1.408 . S
C1797 C1796 1.404 . S
C1797 H1809 0.930 . S
C1798 C1794 1.524 . S
C1798 H1810 0.956 . S
C1798 H1811 0.961 . S
C1798 H1812 0.961 . S
C1799 C1796 1.539 . S
C1799 H1813 0.958 . S
C1799 H1814 0.961 . S
C1799 H1815 0.960 1_565 S
H1800 C1784 0.931 . S
H1801 C1789 0.929 . S
H1802 C1790 0.960 1_565 S
H1803 C1790 0.962 . S
H1804 C1790 0.960 . S
H1805 C1791 0.961 . S
H1806 C1791 1.006 . S
H1807 C1791 0.961 . S
H1808 C1792 0.931 . S
H1809 C1797 0.930 . S
H1810 C1798 0.956 . S
H1811 C1798 0.961 . S
H1812 C1798 0.961 . S
H1813 C1799 0.958 . S
H1814 C1799 0.961 . S
H1815 C1799 0.960 1_545 S
C1816 C1817 1.391 . S
C1816 C1818 1.394 . S
C1816 H1832 0.931 . S
C1817 C1816 1.391 . S
C1817 C1821 1.376 . S
C1818 C1816 1.394 . S
C1818 C1819 1.369 . S
C1818 C1822 1.531 . S
C1819 C1818 1.369 . S
C1819 C1820 1.410 . S
C1819 C1827 1.503 1_655 S
C1820 C1819 1.410 . S
C1820 C1821 1.392 . S
C1820 C1823 1.511 . S
C1821 C1817 1.376 . S
C1821 C1820 1.392 . S
C1821 H1833 0.929 . S
C1822 C1818 1.531 . S
C1822 H1834 0.960 . S
C1822 H1835 0.962 . S
C1822 H1836 0.960 . S
C1823 C1820 1.511 . S
C1823 H1837 0.961 . S
C1823 H1838 0.961 1_655 S
C1823 H1839 0.961 . S
C1824 C1825 1.370 . S
C1824 C1826 1.363 . S
C1824 H1840 0.931 . S
C1825 C1824 1.370 . S
C1825 C1829 1.408 . S
C1826 C1824 1.363 . S
C1826 C1827 1.370 . S
C1826 C1830 1.524 . S
C1827 C1819 1.503 1_455 S
C1827 C1826 1.370 . S
C1827 C1828 1.403 . S
C1828 C1827 1.403 . S
C1828 C1829 1.404 . S
C1828 C1831 1.539 . S
C1829 C1825 1.408 . S
C1829 C1828 1.404 . S
C1829 H1841 0.930 . S
C1830 C1826 1.524 . S
C1830 H1842 0.956 . S
C1830 H1843 0.961 . S
C1830 H1844 0.961 . S
C1831 C1828 1.539 . S
C1831 H1845 0.958 . S
C1831 H1846 0.961 . S
C1831 H1847 0.960 1_455 S
H1832 C1816 0.931 . S
H1833 C1821 0.929 . S
H1834 C1822 0.960 . S
H1835 C1822 0.962 . S
H1836 C1822 0.960 . S
H1837 C1823 0.961 . S
H1838 C1823 0.961 1_455 S
H1839 C1823 0.961 . S
H1840 C1824 0.931 . S
H1841 C1829 0.930 . S
H1842 C1830 0.956 . S
H1843 C1830 0.961 . S
H1844 C1830 0.961 . S
H1845 C1831 0.958 . S
H1846 C1831 0.961 . S
H1847 C1831 0.960 1_655 S
C1848 C1849 1.391 . S
C1848 C1850 1.394 . S
C1848 H1864 0.931 . S
C1849 C1848 1.391 . S
C1849 C1853 1.376 . S
C1850 C1848 1.394 . S
C1850 C1851 1.369 . S
C1850 C1854 1.531 . S
C1851 C1850 1.369 . S
C1851 C1852 1.410 . S
C1851 C1859 1.503 . S
C1852 C1851 1.410 . S
C1852 C1853 1.392 . S
C1852 C1855 1.511 . S
C1853 C1849 1.376 . S
C1853 C1852 1.392 . S
C1853 H1865 0.929 . S
C1854 C1850 1.531 . S
C1854 H1866 0.960 . S
C1854 H1867 0.962 . S
C1854 H1868 0.960 . S
C1855 C1852 1.511 . S
C1855 H1869 0.961 . S
C1855 H1870 0.961 . S
C1855 H1871 0.961 . S
C1856 C1857 1.370 . S
C1856 C1858 1.363 . S
C1856 H1872 0.931 . S
C1857 C1856 1.370 . S
C1857 C1861 1.408 . S
C1858 C1856 1.363 . S
C1858 C1859 1.370 . S
C1858 C1862 1.524 . S
C1859 C1851 1.503 . S
C1859 C1858 1.370 . S
C1859 C1860 1.403 . S
C1860 C1859 1.403 . S
C1860 C1861 1.404 . S
C1860 C1863 1.539 . S
C1861 C1857 1.408 . S
C1861 C1860 1.404 . S
C1861 H1873 0.930 . S
C1862 C1858 1.524 . S
C1862 H1874 0.956 . S
C1862 H1875 0.961 . S
C1862 H1876 0.961 . S
C1863 C1860 1.539 . S
C1863 H1877 0.958 . S
C1863 H1878 0.961 . S
C1863 H1879 0.960 . S
H1864 C1848 0.931 . S
H1865 C1853 0.929 . S
H1866 C1854 0.960 . S
H1867 C1854 0.962 . S
H1868 C1854 0.960 . S
H1869 C1855 0.961 . S
H1870 C1855 0.961 . S
H1871 C1855 0.961 . S
H1872 C1856 0.931 . S
H1873 C1861 0.930 . S
H1874 C1862 0.956 . S
H1875 C1862 0.961 . S
H1876 C1862 0.961 . S
H1877 C1863 0.958 . S
H1878 C1863 0.961 . S
H1879 C1863 0.960 . S
C1880 C1881 1.391 . S
C1880 C1882 1.394 . S
C1880 H1896 0.931 . S
C1881 C1880 1.391 . S
C1881 C1885 1.376 . S
C1882 C1880 1.394 . S
C1882 C1883 1.369 . S
C1882 C1886 1.531 . S
C1883 C1882 1.369 . S
C1883 C1884 1.410 . S
C1883 C1891 1.503 . S
C1884 C1883 1.410 . S
C1884 C1885 1.392 . S
C1884 C1887 1.511 . S
C1885 C1881 1.376 . S
C1885 C1884 1.392 . S
C1885 H1897 0.929 . S
C1886 C1882 1.531 . S
C1886 H1898 0.960 . S
C1886 H1899 0.962 . S
C1886 H1900 0.960 . S
C1887 C1884 1.511 . S
C1887 H1901 0.961 . S
C1887 H1902 0.961 . S
C1887 H1903 0.961 . S
C1888 C1889 1.370 . S
C1888 C1890 1.363 . S
C1888 H1904 0.931 . S
C1889 C1888 1.370 . S
C1889 C1893 1.408 . S
C1890 C1888 1.363 . S
C1890 C1891 1.370 . S
C1890 C1894 1.524 . S
C1891 C1883 1.503 . S
C1891 C1890 1.370 . S
C1891 C1892 1.403 . S
C1892 C1891 1.403 . S
C1892 C1893 1.404 . S
C1892 C1895 1.539 . S
C1893 C1889 1.408 . S
C1893 C1892 1.404 . S
C1893 H1905 0.930 . S
C1894 C1890 1.524 . S
C1894 H1906 0.956 . S
C1894 H1907 0.961 . S
C1894 H1908 0.961 . S
C1895 C1892 1.539 . S
C1895 H1909 0.958 . S
C1895 H1910 0.961 . S
C1895 H1911 0.960 . S
H1896 C1880 0.931 . S
H1897 C1885 0.929 . S
H1898 C1886 0.960 . S
H1899 C1886 0.962 . S
H1900 C1886 0.960 . S
H1901 C1887 0.961 . S
H1902 C1887 0.961 . S
H1903 C1887 0.961 . S
H1904 C1888 0.931 . S
H1905 C1893 0.930 . S
H1906 C1894 0.956 . S
H1907 C1894 0.961 . S
H1908 C1894 0.961 . S
H1909 C1895 0.958 . S
H1910 C1895 0.961 . S
H1911 C1895 0.960 . S
C1912 C1913 1.391 . S
C1912 C1914 1.394 . S
C1912 H1928 0.931 . S
C1913 C1912 1.391 . S
C1913 C1917 1.376 . S
C1914 C1912 1.394 . S
C1914 C1915 1.369 . S
C1914 C1918 1.531 . S
C1915 C1914 1.369 . S
C1915 C1916 1.410 . S
C1915 C1923 1.503 . S
C1916 C1915 1.410 . S
C1916 C1917 1.392 . S
C1916 C1919 1.511 . S
C1917 C1913 1.376 . S
C1917 C1916 1.392 . S
C1917 H1929 0.929 . S
C1918 C1914 1.531 . S
C1918 H1930 0.960 . S
C1918 H1931 0.962 . S
C1918 H1932 0.960 . S
C1919 C1916 1.511 . S
C1919 H1933 0.961 . S
C1919 H1934 0.961 . S
C1919 H1935 0.961 . S
C1920 C1921 1.370 . S
C1920 C1922 1.363 . S
C1920 H1936 0.931 . S
C1921 C1920 1.370 . S
C1921 C1925 1.408 . S
C1922 C1920 1.363 . S
C1922 C1923 1.370 . S
C1922 C1926 1.524 . S
C1923 C1915 1.503 . S
C1923 C1922 1.370 . S
C1923 C1924 1.403 . S
C1924 C1923 1.403 . S
C1924 C1925 1.404 . S
C1924 C1927 1.539 . S
C1925 C1921 1.408 . S
C1925 C1924 1.404 . S
C1925 H1937 0.930 . S
C1926 C1922 1.524 . S
C1926 H1938 0.956 . S
C1926 H1939 0.961 . S
C1926 H1940 0.961 . S
C1927 C1924 1.539 . S
C1927 H1941 0.958 . S
C1927 H1942 0.961 . S
C1927 H1943 0.960 . S
H1928 C1912 0.931 . S
H1929 C1917 0.929 . S
H1930 C1918 0.960 . S
H1931 C1918 0.962 . S
H1932 C1918 0.960 . S
H1933 C1919 0.961 . S
H1934 C1919 0.961 . S
H1935 C1919 0.961 . S
H1936 C1920 0.931 . S
H1937 C1925 0.930 . S
H1938 C1926 0.956 . S
H1939 C1926 0.961 . S
H1940 C1926 0.961 . S
H1941 C1927 0.958 . S
H1942 C1927 0.961 . S
H1943 C1927 0.960 . S
C1944 C1945 1.391 . S
C1944 C1946 1.394 . S
C1944 H1960 0.931 . S
C1945 C1944 1.391 . S
C1945 C1949 1.376 . S
C1946 C1944 1.394 . S
C1946 C1947 1.369 . S
C1946 C1950 1.531 . S
C1947 C1946 1.369 . S
C1947 C1948 1.410 . S
C1947 C1955 1.503 . S
C1948 C1947 1.410 . S
C1948 C1949 1.392 . S
C1948 C1951 1.511 1_554 S
C1949 C1945 1.376 . S
C1949 C1948 1.392 . S
C1949 H1961 0.929 . S
C1950 C1946 1.531 . S
C1950 H1962 0.960 . S
C1950 H1963 0.962 . S
C1950 H1964 0.960 . S
C1951 C1948 1.511 1_556 S
C1951 H1965 0.961 . S
C1951 H1966 0.961 . S
C1951 H1967 0.961 . S
C1952 C1953 1.370 . S
C1952 C1954 1.363 . S
C1952 H1968 0.931 . S
C1953 C1952 1.370 . S
C1953 C1957 1.408 . S
C1954 C1952 1.363 . S
C1954 C1955 1.370 . S
C1954 C1958 1.524 . S
C1955 C1947 1.503 . S
C1955 C1954 1.370 . S
C1955 C1956 1.403 . S
C1956 C1955 1.403 . S
C1956 C1957 1.404 . S
C1956 C1959 1.539 . S
C1957 C1953 1.408 . S
C1957 C1956 1.404 . S
C1957 H1969 0.930 . S
C1958 C1954 1.524 . S
C1958 H1970 0.956 . S
C1958 H1971 0.961 . S
C1958 H1972 0.961 . S
C1959 C1956 1.539 . S
C1959 H1973 0.958 . S
C1959 H1974 0.961 . S
C1959 H1975 0.960 . S
H1960 C1944 0.931 . S
H1961 C1949 0.929 . S
H1962 C1950 0.960 . S
H1963 C1950 0.962 . S
H1964 C1950 0.960 . S
H1965 C1951 0.961 . S
H1966 C1951 0.961 . S
H1967 C1951 0.961 . S
H1968 C1952 0.931 . S
H1969 C1957 0.930 . S
H1970 C1958 0.956 . S
H1971 C1958 0.961 . S
H1972 C1958 0.961 . S
H1973 C1959 0.958 . S
H1974 C1959 0.961 . S
H1975 C1959 0.960 . S
C1976 C1977 1.391 . S
C1976 C1978 1.394 . S
C1976 H1992 0.931 . S
C1977 C1976 1.391 . S
C1977 C1981 1.376 . S
C1978 C1976 1.394 . S
C1978 C1979 1.369 . S
C1978 C1982 1.531 . S
C1979 C1978 1.369 . S
C1979 C1980 1.410 . S
C1979 C1987 1.503 . S
C1980 C1979 1.410 . S
C1980 C1981 1.392 . S
C1980 C1983 1.511 . S
C1981 C1977 1.376 . S
C1981 C1980 1.392 . S
C1981 H1993 0.929 . S
C1982 C1978 1.531 . S
C1982 H1994 0.960 . S
C1982 H1995 0.962 . S
C1982 H1996 0.960 . S
C1983 C1980 1.511 . S
C1983 H1997 0.961 . S
C1983 H1998 0.961 . S
C1983 H1999 0.961 . S
C1984 C1985 1.370 . S
C1984 C1986 1.363 . S
C1984 H2000 0.931 . S
C1985 C1984 1.370 . S
C1985 C1989 1.408 . S
C1986 C1984 1.363 . S
C1986 C1987 1.370 . S
C1986 C1990 1.524 . S
C1987 C1979 1.503 . S
C1987 C1986 1.370 . S
C1987 C1988 1.403 . S
C1988 C1987 1.403 . S
C1988 C1989 1.404 . S
C1988 C1991 1.539 1_554 S
C1989 C1985 1.408 . S
C1989 C1988 1.404 . S
C1989 H2001 0.930 . S
C1990 C1986 1.524 . S
C1990 H2002 0.956 . S
C1990 H2003 0.961 . S
C1990 H2004 0.961 . S
C1991 C1988 1.539 1_556 S
C1991 H2005 0.958 . S
C1991 H2006 0.961 . S
C1991 H2007 0.960 . S
H1992 C1976 0.931 . S
H1993 C1981 0.929 . S
H1994 C1982 0.960 . S
H1995 C1982 0.962 . S
H1996 C1982 0.960 . S
H1997 C1983 0.961 . S
H1998 C1983 0.961 . S
H1999 C1983 0.961 . S
H2000 C1984 0.931 . S
H2001 C1989 0.930 . S
H2002 C1990 0.956 . S
H2003 C1990 0.961 . S
H2004 C1990 0.961 . S
H2005 C1991 0.958 . S
H2006 C1991 0.961 . S
H2007 C1991 0.960 . S
C2008 C2009 1.391 . S
C2008 C2010 1.394 . S
C2008 H2024 0.931 . S
C2009 C2008 1.391 . S
C2009 C2013 1.376 . S
C2010 C2008 1.394 . S
C2010 C2011 1.369 . S
C2010 C2014 1.531 . S
C2011 C2010 1.369 . S
C2011 C2012 1.410 . S
C2011 C2019 1.503 . S
C2012 C2011 1.410 . S
C2012 C2013 1.392 . S
C2012 C2015 1.511 . S
C2013 C2009 1.376 . S
C2013 C2012 1.392 . S
C2013 H2025 0.929 . S
C2014 C2010 1.531 . S
C2014 H2026 0.960 . S
C2014 H2027 0.962 . S
C2014 H2028 0.960 . S
C2015 C2012 1.511 . S
C2015 H2029 0.961 . S
C2015 H2030 0.961 . S
C2015 H2031 0.961 . S
C2016 C2017 1.370 . S
C2016 C2018 1.363 . S
C2016 H2032 0.916 1_554 S
C2017 C2016 1.370 . S
C2017 C2021 1.408 . S
C2018 C2016 1.363 . S
C2018 C2019 1.370 . S
C2018 C2022 1.524 . S
C2019 C2011 1.503 . S
C2019 C2018 1.370 . S
C2019 C2020 1.403 . S
C2020 C2019 1.403 . S
C2020 C2021 1.404 . S
C2020 C2023 1.539 . S
C2021 C2017 1.408 . S
C2021 C2020 1.404 . S
C2021 H2033 0.930 . S
C2022 C2018 1.524 . S
C2022 H2034 0.956 1_554 S
C2022 H2035 0.961 . S
C2022 H2036 0.961 1_554 S
C2023 C2020 1.539 . S
C2023 H2037 0.958 . S
C2023 H2038 0.961 . S
C2023 H2039 0.960 . S
H2024 C2008 0.931 . S
H2025 C2013 0.929 . S
H2026 C2014 0.960 . S
H2027 C2014 0.962 . S
H2028 C2014 0.960 . S
H2029 C2015 0.961 . S
H2030 C2015 0.961 . S
H2031 C2015 0.961 . S
H2032 C2016 0.916 1_556 S
H2033 C2021 0.930 . S
H2034 C2022 0.956 1_556 S
H2035 C2022 0.961 . S
H2036 C2022 0.961 1_556 S
H2037 C2023 0.958 . S
H2038 C2023 0.961 . S
H2039 C2023 0.960 . S
C2040 C2041 1.391 . S
C2040 C2042 1.394 . S
C2040 H2056 0.931 . S
C2041 C2040 1.391 . S
C2041 C2045 1.376 . S
C2042 C2040 1.394 . S
C2042 C2043 1.369 . S
C2042 C2046 1.531 . S
C2043 C2042 1.369 . S
C2043 C2044 1.410 . S
C2043 C2051 1.503 . S
C2044 C2043 1.410 . S
C2044 C2045 1.392 . S
C2044 C2047 1.511 1_556 S
C2045 C2041 1.376 . S
C2045 C2044 1.392 . S
C2045 H2057 0.929 1_556 S
C2046 C2042 1.531 . S
C2046 H2058 0.960 . S
C2046 H2059 0.962 . S
C2046 H2060 0.960 . S
C2047 C2044 1.511 1_554 S
C2047 H2061 0.961 . S
C2047 H2062 0.961 1_554 S
C2047 H2063 0.961 . S
C2048 C2049 1.370 . S
C2048 C2050 1.363 . S
C2048 H2064 0.931 . S
C2049 C2048 1.370 . S
C2049 C2053 1.408 . S
C2050 C2048 1.363 . S
C2050 C2051 1.370 . S
C2050 C2054 1.524 . S
C2051 C2043 1.503 . S
C2051 C2050 1.370 . S
C2051 C2052 1.403 . S
C2052 C2051 1.403 . S
C2052 C2053 1.404 . S
C2052 C2055 1.539 . S
C2053 C2049 1.408 . S
C2053 C2052 1.404 . S
C2053 H2065 0.930 . S
C2054 C2050 1.524 . S
C2054 H2066 0.956 . S
C2054 H2067 0.961 . S
C2054 H2068 0.961 . S
C2055 C2052 1.539 . S
C2055 H2069 0.958 . S
C2055 H2070 0.961 . S
C2055 H2071 0.960 . S
H2056 C2040 0.931 . S
H2057 C2045 0.929 1_554 S
H2058 C2046 0.960 . S
H2059 C2046 0.962 . S
H2060 C2046 0.960 . S
H2061 C2047 0.961 . S
H2062 C2047 0.961 1_556 S
H2063 C2047 0.961 . S
H2064 C2048 0.931 . S
H2065 C2053 0.930 . S
H2066 C2054 0.956 . S
H2067 C2054 0.961 . S
H2068 C2054 0.961 . S
H2069 C2055 0.958 . S
H2070 C2055 0.961 . S
H2071 C2055 0.960 . S
C2072 C2073 1.391 . S
C2072 C2074 1.394 . S
C2072 H2088 0.931 1_556 S
C2073 C2072 1.391 . S
C2073 C2077 1.376 . S
C2074 C2072 1.394 . S
C2074 C2075 1.369 . S
C2074 C2078 1.531 1_556 S
C2075 C2074 1.369 . S
C2075 C2076 1.410 . S
C2075 C2083 1.503 . S
C2076 C2075 1.410 . S
C2076 C2077 1.392 . S
C2076 C2079 1.511 . S
C2077 C2073 1.376 . S
C2077 C2076 1.392 . S
C2077 H2089 0.929 . S
C2078 C2074 1.531 1_554 S
C2078 H2090 0.960 1_554 S
C2078 H2091 0.962 . S
C2078 H2092 0.960 . S
C2079 C2076 1.511 . S
C2079 H2093 0.961 . S
C2079 H2094 0.961 . S
C2079 H2095 0.961 . S
C2080 C2081 1.370 . S
C2080 C2082 1.363 . S
C2080 H2096 0.931 . S
C2081 C2080 1.370 . S
C2081 C2085 1.408 . S
C2082 C2080 1.363 . S
C2082 C2083 1.370 . S
C2082 C2086 1.524 . S
C2083 C2075 1.503 . S
C2083 C2082 1.370 . S
C2083 C2084 1.403 . S
C2084 C2083 1.403 . S
C2084 C2085 1.404 . S
C2084 C2087 1.539 . S
C2085 C2081 1.408 . S
C2085 C2084 1.404 . S
C2085 H2097 0.930 . S
C2086 C2082 1.524 . S
C2086 H2098 0.956 . S
C2086 H2099 0.961 . S
C2086 H2100 0.961 . S
C2087 C2084 1.539 . S
C2087 H2101 0.958 . S
C2087 H2102 0.961 . S
C2087 H2103 0.960 . S
H2088 C2072 0.931 1_554 S
H2089 C2077 0.929 . S
H2090 C2078 0.960 1_556 S
H2091 C2078 0.962 . S
H2092 C2078 0.960 . S
H2093 C2079 0.961 . S
H2094 C2079 0.961 . S
H2095 C2079 0.961 . S
H2096 C2080 0.931 . S
H2097 C2085 0.930 . S
H2098 C2086 0.956 . S
H2099 C2086 0.961 . S
H2100 C2086 0.961 . S
H2101 C2087 0.958 . S
H2102 C2087 0.961 . S
H2103 C2087 0.960 . S
C2104 C2105 1.391 . S
C2104 C2106 1.394 . S
C2104 H2120 0.931 . S
C2105 C2104 1.391 . S
C2105 C2109 1.376 . S
C2106 C2104 1.394 . S
C2106 C2107 1.369 . S
C2106 C2110 1.531 . S
C2107 C2106 1.369 . S
C2107 C2108 1.410 . S
C2107 C2115 1.503 . S
C2108 C2107 1.410 . S
C2108 C2109 1.392 . S
C2108 C2111 1.511 . S
C2109 C2105 1.376 . S
C2109 C2108 1.392 . S
C2109 H2121 0.929 . S
C2110 C2106 1.531 . S
C2110 H2122 0.960 . S
C2110 H2123 0.962 . S
C2110 H2124 0.960 . S
C2111 C2108 1.511 . S
C2111 H2125 0.961 . S
C2111 H2126 0.961 . S
C2111 H2127 0.961 . S
C2112 C2113 1.370 . S
C2112 C2114 1.363 . S
C2112 H2128 0.931 . S
C2113 C2112 1.370 . S
C2113 C2117 1.408 . S
C2114 C2112 1.363 . S
C2114 C2115 1.370 . S
C2114 C2118 1.524 . S
C2115 C2107 1.503 . S
C2115 C2114 1.370 . S
C2115 C2116 1.403 . S
C2116 C2115 1.403 . S
C2116 C2117 1.404 . S
C2116 C2119 1.539 1_556 S
C2117 C2113 1.408 . S
C2117 C2116 1.404 . S
C2117 H2129 0.930 1_556 S
C2118 C2114 1.524 . S
C2118 H2130 0.956 . S
C2118 H2131 0.961 . S
C2118 H2132 0.961 . S
C2119 C2116 1.539 1_554 S
C2119 H2133 0.958 . S
C2119 H2134 0.961 . S
C2119 H2135 0.960 . S
H2120 C2104 0.931 . S
H2121 C2109 0.929 . S
H2122 C2110 0.960 . S
H2123 C2110 0.962 . S
H2124 C2110 0.960 . S
H2125 C2111 0.961 . S
H2126 C2111 0.961 . S
H2127 C2111 0.961 . S
H2128 C2112 0.931 . S
H2129 C2117 0.930 1_554 S
H2130 C2118 0.956 . S
H2131 C2118 0.961 . S
H2132 C2118 0.961 . S
H2133 C2119 0.958 . S
H2134 C2119 0.961 . S
H2135 C2119 0.960 . S
C2136 C2137 1.391 . S
C2136 C2138 1.394 . S
C2136 H2152 0.931 . S
C2137 C2136 1.391 . S
C2137 C2141 1.376 . S
C2138 C2136 1.394 . S
C2138 C2139 1.369 . S
C2138 C2142 1.531 . S
C2139 C2138 1.369 . S
C2139 C2140 1.410 . S
C2139 C2147 1.503 . S
C2140 C2139 1.410 . S
C2140 C2141 1.392 . S
C2140 C2143 1.511 . S
C2141 C2137 1.376 . S
C2141 C2140 1.392 . S
C2141 H2153 0.929 . S
C2142 C2138 1.531 . S
C2142 H2154 0.960 . S
C2142 H2155 0.962 . S
C2142 H2156 0.960 . S
C2143 C2140 1.511 . S
C2143 H2157 0.961 . S
C2143 H2158 0.961 . S
C2143 H2159 0.961 . S
C2144 C2145 1.370 . S
C2144 C2146 1.363 . S
C2144 H2160 0.931 . S
C2145 C2144 1.370 . S
C2145 C2149 1.408 . S
C2146 C2144 1.363 . S
C2146 C2147 1.370 . S
C2146 C2150 1.524 . S
C2147 C2139 1.503 . S
C2147 C2146 1.370 . S
C2147 C2148 1.403 . S
C2148 C2147 1.403 . S
C2148 C2149 1.404 . S
C2148 C2151 1.539 . S
C2149 C2145 1.408 . S
C2149 C2148 1.404 . S
C2149 H2161 0.930 . S
C2150 C2146 1.524 . S
C2150 H2162 0.956 . S
C2150 H2163 0.961 . S
C2150 H2164 0.961 . S
C2151 C2148 1.539 . S
C2151 H2165 0.958 . S
C2151 H2166 0.961 . S
C2151 H2167 0.960 . S
H2152 C2136 0.931 . S
H2153 C2141 0.929 . S
H2154 C2142 0.960 . S
H2155 C2142 0.962 . S
H2156 C2142 0.960 . S
H2157 C2143 0.961 . S
H2158 C2143 0.961 . S
H2159 C2143 0.961 . S
H2160 C2144 0.931 . S
H2161 C2149 0.930 . S
H2162 C2150 0.956 . S
H2163 C2150 0.961 . S
H2164 C2150 0.961 . S
H2165 C2151 0.958 . S
H2166 C2151 0.961 . S
H2167 C2151 0.960 . S
C2168 C2169 1.391 . S
C2168 C2170 1.394 . S
C2168 H2184 0.931 . S
C2169 C2168 1.391 . S
C2169 C2173 1.376 . S
C2170 C2168 1.394 . S
C2170 C2171 1.369 . S
C2170 C2174 1.531 . S
C2171 C2170 1.369 . S
C2171 C2172 1.410 . S
C2171 C2179 1.503 . S
C2172 C2171 1.410 . S
C2172 C2173 1.392 . S
C2172 C2175 1.511 . S
C2173 C2169 1.376 . S
C2173 C2172 1.392 . S
C2173 H2185 0.929 . S
C2174 C2170 1.531 . S
C2174 H2186 0.960 . S
C2174 H2187 0.962 . S
C2174 H2188 0.960 . S
C2175 C2172 1.511 . S
C2175 H2189 0.961 . S
C2175 H2190 0.961 . S
C2175 H2191 0.961 . S
C2176 C2177 1.370 . S
C2176 C2178 1.363 . S
C2176 H2192 0.931 . S
C2177 C2176 1.370 . S
C2177 C2181 1.408 . S
C2178 C2176 1.363 . S
C2178 C2179 1.370 . S
C2178 C2182 1.524 . S
C2179 C2171 1.503 . S
C2179 C2178 1.370 . S
C2179 C2180 1.403 . S
C2180 C2179 1.403 . S
C2180 C2181 1.404 . S
C2180 C2183 1.539 . S
C2181 C2177 1.408 . S
C2181 C2180 1.404 . S
C2181 H2193 0.930 . S
C2182 C2178 1.524 . S
C2182 H2194 0.956 . S
C2182 H2195 0.961 . S
C2182 H2196 0.961 . S
C2183 C2180 1.539 . S
C2183 H2197 0.958 . S
C2183 H2198 0.961 . S
C2183 H2199 0.960 . S
H2184 C2168 0.931 . S
H2185 C2173 0.929 . S
H2186 C2174 0.960 . S
H2187 C2174 0.962 . S
H2188 C2174 0.960 . S
H2189 C2175 0.961 . S
H2190 C2175 0.961 . S
H2191 C2175 0.961 . S
H2192 C2176 0.931 . S
H2193 C2181 0.930 . S
H2194 C2182 0.956 . S
H2195 C2182 0.961 . S
H2196 C2182 0.961 . S
H2197 C2183 0.958 . S
H2198 C2183 0.961 . S
H2199 C2183 0.960 . S
C2200 C2201 1.391 . S
C2200 C2202 1.394 . S
C2200 H2216 0.931 . S
C2201 C2200 1.391 . S
C2201 C2205 1.376 . S
C2202 C2200 1.394 . S
C2202 C2203 1.369 . S
C2202 C2206 1.531 . S
C2203 C2202 1.369 . S
C2203 C2204 1.410 . S
C2203 C2211 1.503 . S
C2204 C2203 1.410 . S
C2204 C2205 1.392 . S
C2204 C2207 1.511 . S
C2205 C2201 1.376 . S
C2205 C2204 1.392 . S
C2205 H2217 0.929 . S
C2206 C2202 1.531 . S
C2206 H2218 0.960 . S
C2206 H2219 0.962 . S
C2206 H2220 0.960 . S
C2207 C2204 1.511 . S
C2207 H2221 0.961 . S
C2207 H2222 0.961 . S
C2207 H2223 0.961 . S
C2208 C2209 1.370 . S
C2208 C2210 1.363 . S
C2208 H2224 0.931 . S
C2209 C2208 1.370 . S
C2209 C2213 1.408 . S
C2210 C2208 1.363 . S
C2210 C2211 1.370 . S
C2210 C2214 1.524 . S
C2211 C2203 1.503 . S
C2211 C2210 1.370 . S
C2211 C2212 1.403 . S
C2212 C2211 1.403 . S
C2212 C2213 1.404 . S
C2212 C2215 1.539 . S
C2213 C2209 1.408 . S
C2213 C2212 1.404 . S
C2213 H2225 0.930 . S
C2214 C2210 1.524 . S
C2214 H2226 0.956 . S
C2214 H2227 0.961 . S
C2214 H2228 0.961 . S
C2215 C2212 1.539 . S
C2215 H2229 0.958 . S
C2215 H2230 0.961 . S
C2215 H2231 0.960 . S
H2216 C2200 0.931 . S
H2217 C2205 0.929 . S
H2218 C2206 0.960 . S
H2219 C2206 0.962 . S
H2220 C2206 0.960 . S
H2221 C2207 0.961 . S
H2222 C2207 0.961 . S
H2223 C2207 0.961 . S
H2224 C2208 0.931 . S
H2225 C2213 0.930 . S
H2226 C2214 0.956 . S
H2227 C2214 0.961 . S
H2228 C2214 0.961 . S
H2229 C2215 0.958 . S
H2230 C2215 0.961 . S
H2231 C2215 0.960 . S
C2232 C2233 1.391 . S
C2232 C2234 1.394 . S
C2232 H2248 0.931 . S
C2233 C2232 1.391 . S
C2233 C2237 1.376 . S
C2234 C2232 1.394 . S
C2234 C2235 1.369 . S
C2234 C2238 1.531 . S
C2235 C2234 1.369 . S
C2235 C2236 1.410 . S
C2235 C2243 1.503 . S
C2236 C2235 1.410 . S
C2236 C2237 1.392 . S
C2236 C2239 1.511 . S
C2237 C2233 1.376 . S
C2237 C2236 1.392 . S
C2237 H2249 0.929 . S
C2238 C2234 1.531 . S
C2238 H2250 0.960 . S
C2238 H2251 0.962 . S
C2238 H2252 0.960 . S
C2239 C2236 1.511 . S
C2239 H2253 0.961 . S
C2239 H2254 0.961 . S
C2239 H2255 0.961 . S
C2240 C2241 1.370 . S
C2240 C2242 1.363 . S
C2240 H2256 0.931 . S
C2241 C2240 1.370 . S
C2241 C2245 1.408 . S
C2242 C2240 1.363 . S
C2242 C2243 1.370 . S
C2242 C2246 1.524 . S
C2243 C2235 1.503 . S
C2243 C2242 1.370 . S
C2243 C2244 1.403 . S
C2244 C2243 1.403 . S
C2244 C2245 1.404 . S
C2244 C2247 1.539 . S
C2245 C2241 1.408 . S
C2245 C2244 1.404 . S
C2245 H2257 0.930 . S
C2246 C2242 1.524 . S
C2246 H2258 0.956 . S
C2246 H2259 0.961 . S
C2246 H2260 0.961 . S
C2247 C2244 1.539 . S
C2247 H2261 0.958 . S
C2247 H2262 0.961 . S
C2247 H2263 0.960 . S
H2248 C2232 0.931 . S
H2249 C2237 0.929 . S
H2250 C2238 0.960 . S
H2251 C2238 0.962 . S
H2252 C2238 0.960 . S
H2253 C2239 0.961 . S
H2254 C2239 0.961 . S
H2255 C2239 0.961 . S
H2256 C2240 0.931 . S
H2257 C2245 0.930 . S
H2258 C2246 0.956 . S
H2259 C2246 0.961 . S
H2260 C2246 0.961 . S
H2261 C2247 0.958 . S
H2262 C2247 0.961 . S
H2263 C2247 0.960 . S
C2264 C2265 1.391 . S
C2264 C2266 1.394 . S
C2264 H2280 0.931 . S
C2265 C2264 1.391 . S
C2265 C2269 1.376 . S
C2266 C2264 1.394 . S
C2266 C2267 1.369 . S
C2266 C2270 1.531 . S
C2267 C2266 1.369 . S
C2267 C2268 1.410 . S
C2267 C2275 1.503 . S
C2268 C2267 1.410 . S
C2268 C2269 1.392 . S
C2268 C2271 1.511 . S
C2269 C2265 1.376 . S
C2269 C2268 1.392 . S
C2269 H2281 0.929 . S
C2270 C2266 1.531 . S
C2270 H2282 0.960 . S
C2270 H2283 0.962 . S
C2270 H2284 0.960 . S
C2271 C2268 1.511 . S
C2271 H2285 0.961 . S
C2271 H2286 0.961 . S
C2271 H2287 0.961 . S
C2272 C2273 1.370 . S
C2272 C2274 1.363 . S
C2272 H2288 0.931 . S
C2273 C2272 1.370 . S
C2273 C2277 1.408 . S
C2274 C2272 1.363 . S
C2274 C2275 1.370 . S
C2274 C2278 1.524 . S
C2275 C2267 1.503 . S
C2275 C2274 1.370 . S
C2275 C2276 1.403 . S
C2276 C2275 1.403 . S
C2276 C2277 1.404 . S
C2276 C2279 1.539 . S
C2277 C2273 1.408 . S
C2277 C2276 1.404 . S
C2277 H2289 0.930 . S
C2278 C2274 1.524 . S
C2278 H2290 0.956 . S
C2278 H2291 0.961 . S
C2278 H2292 0.961 . S
C2279 C2276 1.539 . S
C2279 H2293 0.958 . S
C2279 H2294 0.961 . S
C2279 H2295 0.960 . S
H2280 C2264 0.931 . S
H2281 C2269 0.929 . S
H2282 C2270 0.960 . S
H2283 C2270 0.962 . S
H2284 C2270 0.960 . S
H2285 C2271 0.961 . S
H2286 C2271 0.961 . S
H2287 C2271 0.961 . S
H2288 C2272 0.931 . S
H2289 C2277 0.930 . S
H2290 C2278 0.956 . S
H2291 C2278 0.961 . S
H2292 C2278 0.961 . S
H2293 C2279 0.958 . S
H2294 C2279 0.961 . S
H2295 C2279 0.960 . S
C2296 C2297 1.391 . S
C2296 C2298 1.394 . S
C2296 H2312 0.931 . S
C2297 C2296 1.391 . S
C2297 C2301 1.376 . S
C2298 C2296 1.394 . S
C2298 C2299 1.369 . S
C2298 C2302 1.531 . S
C2299 C2298 1.369 . S
C2299 C2300 1.410 . S
C2299 C2307 1.503 . S
C2300 C2299 1.410 . S
C2300 C2301 1.392 . S
C2300 C2303 1.511 . S
C2301 C2297 1.376 . S
C2301 C2300 1.392 . S
C2301 H2313 0.929 . S
C2302 C2298 1.531 . S
C2302 H2314 0.960 . S
C2302 H2315 0.962 . S
C2302 H2316 0.960 . S
C2303 C2300 1.511 . S
C2303 H2317 0.961 . S
C2303 H2318 0.961 . S
C2303 H2319 0.961 . S
C2304 C2305 1.370 . S
C2304 C2306 1.363 . S
C2304 H2320 0.931 . S
C2305 C2304 1.370 . S
C2305 C2309 1.408 . S
C2306 C2304 1.363 . S
C2306 C2307 1.370 . S
C2306 C2310 1.524 . S
C2307 C2299 1.503 . S
C2307 C2306 1.370 . S
C2307 C2308 1.403 . S
C2308 C2307 1.403 . S
C2308 C2309 1.404 . S
C2308 C2311 1.539 . S
C2309 C2305 1.408 . S
C2309 C2308 1.404 . S
C2309 H2321 0.930 . S
C2310 C2306 1.524 . S
C2310 H2322 0.956 . S
C2310 H2323 0.961 . S
C2310 H2324 0.961 . S
C2311 C2308 1.539 . S
C2311 H2325 0.958 . S
C2311 H2326 0.961 . S
C2311 H2327 0.960 . S
H2312 C2296 0.931 . S
H2313 C2301 0.929 . S
H2314 C2302 0.960 . S
H2315 C2302 0.962 . S
H2316 C2302 0.960 . S
H2317 C2303 0.961 . S
H2318 C2303 0.961 . S
H2319 C2303 0.961 . S
H2320 C2304 0.931 . S
H2321 C2309 0.930 . S
H2322 C2310 0.956 . S
H2323 C2310 0.961 . S
H2324 C2310 0.961 . S
H2325 C2311 0.958 . S
H2326 C2311 0.961 . S
H2327 C2311 0.960 . S
C2328 C2329 1.391 . S
C2328 C2330 1.394 . S
C2328 H2344 0.931 . S
C2329 C2328 1.391 . S
C2329 C2333 1.376 . S
C2330 C2328 1.394 . S
C2330 C2331 1.369 . S
C2330 C2334 1.531 . S
C2331 C2330 1.369 . S
C2331 C2332 1.410 . S
C2331 C2339 1.503 . S
C2332 C2331 1.410 . S
C2332 C2333 1.392 . S
C2332 C2335 1.511 . S
C2333 C2329 1.376 . S
C2333 C2332 1.392 . S
C2333 H2345 0.929 . S
C2334 C2330 1.531 . S
C2334 H2346 0.960 . S
C2334 H2347 0.962 . S
C2334 H2348 0.960 . S
C2335 C2332 1.511 . S
C2335 H2349 0.961 . S
C2335 H2350 0.961 . S
C2335 H2351 0.961 . S
C2336 C2337 1.370 . S
C2336 C2338 1.363 . S
C2336 H2352 0.931 . S
C2337 C2336 1.370 . S
C2337 C2341 1.408 . S
C2338 C2336 1.363 . S
C2338 C2339 1.370 . S
C2338 C2342 1.524 . S
C2339 C2331 1.503 . S
C2339 C2338 1.370 . S
C2339 C2340 1.403 . S
C2340 C2339 1.403 . S
C2340 C2341 1.404 . S
C2340 C2343 1.539 . S
C2341 C2337 1.408 . S
C2341 C2340 1.404 . S
C2341 H2353 0.930 . S
C2342 C2338 1.524 . S
C2342 H2354 0.956 . S
C2342 H2355 0.961 . S
C2342 H2356 0.961 . S
C2343 C2340 1.539 . S
C2343 H2357 0.958 . S
C2343 H2358 0.961 . S
C2343 H2359 0.960 . S
H2344 C2328 0.931 . S
H2345 C2333 0.929 . S
H2346 C2334 0.960 . S
H2347 C2334 0.962 . S
H2348 C2334 0.960 . S
H2349 C2335 0.961 . S
H2350 C2335 0.961 . S
H2351 C2335 0.961 . S
H2352 C2336 0.931 . S
H2353 C2341 0.930 . S
H2354 C2342 0.956 . S
H2355 C2342 0.961 . S
H2356 C2342 0.961 . S
H2357 C2343 0.958 . S
H2358 C2343 0.961 . S
H2359 C2343 0.960 . S
C2360 C2361 1.391 . S
C2360 C2362 1.394 . S
C2360 H2376 0.931 . S
C2361 C2360 1.391 . S
C2361 C2365 1.376 . S
C2362 C2360 1.394 . S
C2362 C2363 1.369 . S
C2362 C2366 1.531 . S
C2363 C2362 1.369 . S
C2363 C2364 1.410 . S
C2363 C2371 1.503 . S
C2364 C2363 1.410 . S
C2364 C2365 1.392 . S
C2364 C2367 1.511 . S
C2365 C2361 1.376 . S
C2365 C2364 1.392 . S
C2365 H2377 0.929 . S
C2366 C2362 1.531 . S
C2366 H2378 0.960 . S
C2366 H2379 0.962 . S
C2366 H2380 0.960 . S
C2367 C2364 1.511 . S
C2367 H2381 0.961 . S
C2367 H2382 0.961 . S
C2367 H2383 0.961 . S
C2368 C2369 1.370 . S
C2368 C2370 1.363 . S
C2368 H2384 0.931 . S
C2369 C2368 1.370 . S
C2369 C2373 1.408 . S
C2370 C2368 1.363 . S
C2370 C2371 1.370 . S
C2370 C2374 1.524 . S
C2371 C2363 1.503 . S
C2371 C2370 1.370 . S
C2371 C2372 1.403 . S
C2372 C2371 1.403 . S
C2372 C2373 1.404 . S
C2372 C2375 1.539 . S
C2373 C2369 1.408 . S
C2373 C2372 1.404 . S
C2373 H2385 0.930 . S
C2374 C2370 1.524 . S
C2374 H2386 0.956 . S
C2374 H2387 0.961 . S
C2374 H2388 0.961 . S
C2375 C2372 1.539 . S
C2375 H2389 0.958 . S
C2375 H2390 0.961 . S
C2375 H2391 0.960 . S
H2376 C2360 0.931 . S
H2377 C2365 0.929 . S
H2378 C2366 0.960 . S
H2379 C2366 0.962 . S
H2380 C2366 0.960 . S
H2381 C2367 0.961 . S
H2382 C2367 0.961 . S
H2383 C2367 0.961 . S
H2384 C2368 0.931 . S
H2385 C2373 0.930 . S
H2386 C2374 0.956 . S
H2387 C2374 0.961 . S
H2388 C2374 0.961 . S
H2389 C2375 0.958 . S
H2390 C2375 0.961 . S
H2391 C2375 0.960 . S
C2392 C2393 1.391 . S
C2392 C2394 1.394 . S
C2392 H2408 0.931 . S
C2393 C2392 1.391 . S
C2393 C2397 1.376 . S
C2394 C2392 1.394 . S
C2394 C2395 1.369 . S
C2394 C2398 1.531 . S
C2395 C2394 1.369 . S
C2395 C2396 1.410 . S
C2395 C2403 1.503 . S
C2396 C2395 1.410 . S
C2396 C2397 1.392 . S
C2396 C2399 1.511 . S
C2397 C2393 1.376 . S
C2397 C2396 1.392 . S
C2397 H2409 0.929 . S
C2398 C2394 1.531 . S
C2398 H2410 0.960 . S
C2398 H2411 0.962 . S
C2398 H2412 0.960 . S
C2399 C2396 1.511 . S
C2399 H2413 0.961 . S
C2399 H2414 0.961 . S
C2399 H2415 0.961 . S
C2400 C2401 1.370 . S
C2400 C2402 1.363 . S
C2400 H2416 0.931 . S
C2401 C2400 1.370 . S
C2401 C2405 1.408 . S
C2402 C2400 1.363 . S
C2402 C2403 1.370 . S
C2402 C2406 1.524 . S
C2403 C2395 1.503 . S
C2403 C2402 1.370 . S
C2403 C2404 1.403 . S
C2404 C2403 1.403 . S
C2404 C2405 1.404 . S
C2404 C2407 1.539 . S
C2405 C2401 1.408 . S
C2405 C2404 1.404 . S
C2405 H2417 0.930 . S
C2406 C2402 1.524 . S
C2406 H2418 0.956 . S
C2406 H2419 0.961 . S
C2406 H2420 0.961 . S
C2407 C2404 1.539 . S
C2407 H2421 0.958 . S
C2407 H2422 0.961 . S
C2407 H2423 0.960 . S
H2408 C2392 0.931 . S
H2409 C2397 0.929 . S
H2410 C2398 0.960 . S
H2411 C2398 0.962 . S
H2412 C2398 0.960 . S
H2413 C2399 0.961 . S
H2414 C2399 0.961 . S
H2415 C2399 0.961 . S
H2416 C2400 0.931 . S
H2417 C2405 0.930 . S
H2418 C2406 0.956 . S
H2419 C2406 0.961 . S
H2420 C2406 0.961 . S
H2421 C2407 0.958 . S
H2422 C2407 0.961 . S
H2423 C2407 0.960 . S
C2424 C2425 1.391 . S
C2424 C2426 1.394 . S
C2424 H2440 0.931 . S
C2425 C2424 1.391 . S
C2425 C2429 1.376 . S
C2426 C2424 1.394 . S
C2426 C2427 1.369 . S
C2426 C2430 1.531 . S
C2427 C2426 1.369 . S
C2427 C2428 1.410 . S
C2427 C2435 1.503 . S
C2428 C2427 1.410 . S
C2428 C2429 1.392 . S
C2428 C2431 1.511 . S
C2429 C2425 1.376 . S
C2429 C2428 1.392 . S
C2429 H2441 0.929 . S
C2430 C2426 1.531 . S
C2430 H2442 0.960 . S
C2430 H2443 0.962 . S
C2430 H2444 0.960 . S
C2431 C2428 1.511 . S
C2431 H2445 0.961 . S
C2431 H2446 0.961 . S
C2431 H2447 0.961 . S
C2432 C2433 1.370 . S
C2432 C2434 1.363 . S
C2432 H2448 0.931 . S
C2433 C2432 1.370 . S
C2433 C2437 1.408 . S
C2434 C2432 1.363 . S
C2434 C2435 1.370 . S
C2434 C2438 1.524 . S
C2435 C2427 1.503 . S
C2435 C2434 1.370 . S
C2435 C2436 1.403 . S
C2436 C2435 1.403 . S
C2436 C2437 1.404 . S
C2436 C2439 1.539 . S
C2437 C2433 1.408 . S
C2437 C2436 1.404 . S
C2437 H2449 0.930 . S
C2438 C2434 1.524 . S
C2438 H2450 0.956 . S
C2438 H2451 0.961 . S
C2438 H2452 0.961 . S
C2439 C2436 1.539 . S
C2439 H2453 0.958 . S
C2439 H2454 0.961 . S
C2439 H2455 0.960 . S
H2440 C2424 0.931 . S
H2441 C2429 0.929 . S
H2442 C2430 0.960 . S
H2443 C2430 0.962 . S
H2444 C2430 0.960 . S
H2445 C2431 0.961 . S
H2446 C2431 0.961 . S
H2447 C2431 0.961 . S
H2448 C2432 0.931 . S
H2449 C2437 0.930 . S
H2450 C2438 0.956 . S
H2451 C2438 0.961 . S
H2452 C2438 0.961 . S
H2453 C2439 0.958 . S
H2454 C2439 0.961 . S
H2455 C2439 0.960 . S
C2456 C2457 1.391 . S
C2456 C2458 1.394 . S
C2456 H2472 0.931 . S
C2457 C2456 1.391 . S
C2457 C2461 1.376 . S
C2458 C2456 1.394 . S
C2458 C2459 1.369 . S
C2458 C2462 1.531 . S
C2459 C2458 1.369 . S
C2459 C2460 1.410 . S
C2459 C2467 1.503 . S
C2460 C2459 1.410 . S
C2460 C2461 1.392 . S
C2460 C2463 1.511 . S
C2461 C2457 1.376 . S
C2461 C2460 1.392 . S
C2461 H2473 0.929 . S
C2462 C2458 1.531 . S
C2462 H2474 0.960 . S
C2462 H2475 0.962 . S
C2462 H2476 0.960 . S
C2463 C2460 1.511 . S
C2463 H2477 0.961 . S
C2463 H2478 0.961 . S
C2463 H2479 0.961 . S
C2464 C2465 1.370 . S
C2464 C2466 1.363 . S
C2464 H2480 0.931 . S
C2465 C2464 1.370 . S
C2465 C2469 1.408 . S
C2466 C2464 1.363 . S
C2466 C2467 1.370 . S
C2466 C2470 1.524 . S
C2467 C2459 1.503 . S
C2467 C2466 1.370 . S
C2467 C2468 1.403 . S
C2468 C2467 1.403 . S
C2468 C2469 1.404 . S
C2468 C2471 1.539 . S
C2469 C2465 1.408 . S
C2469 C2468 1.404 . S
C2469 H2481 0.930 . S
C2470 C2466 1.524 . S
C2470 H2482 0.956 . S
C2470 H2483 0.961 . S
C2470 H2484 0.961 . S
C2471 C2468 1.539 . S
C2471 H2485 0.958 . S
C2471 H2486 0.961 . S
C2471 H2487 0.960 . S
H2472 C2456 0.931 . S
H2473 C2461 0.929 . S
H2474 C2462 0.960 . S
H2475 C2462 0.962 . S
H2476 C2462 0.960 . S
H2477 C2463 0.961 . S
H2478 C2463 0.961 . S
H2479 C2463 0.961 . S
H2480 C2464 0.931 . S
H2481 C2469 0.930 . S
H2482 C2470 0.956 . S
H2483 C2470 0.961 . S
H2484 C2470 0.961 . S
H2485 C2471 0.958 . S
H2486 C2471 0.961 . S
H2487 C2471 0.960 . S
C2488 C2489 1.391 . S
C2488 C2490 1.394 . S
C2488 H2504 0.931 . S
C2489 C2488 1.391 . S
C2489 C2493 1.376 . S
C2490 C2488 1.394 . S
C2490 C2491 1.369 . S
C2490 C2494 1.531 . S
C2491 C2490 1.369 . S
C2491 C2492 1.410 . S
C2491 C2499 1.503 . S
C2492 C2491 1.410 . S
C2492 C2493 1.392 . S
C2492 C2495 1.511 . S
C2493 C2489 1.376 . S
C2493 C2492 1.392 . S
C2493 H2505 0.929 . S
C2494 C2490 1.531 . S
C2494 H2506 0.960 . S
C2494 H2507 0.962 . S
C2494 H2508 0.960 . S
C2495 C2492 1.511 . S
C2495 H2509 0.961 . S
C2495 H2510 0.961 . S
C2495 H2511 0.961 . S
C2496 C2497 1.370 . S
C2496 C2498 1.363 . S
C2496 H2512 0.931 . S
C2497 C2496 1.370 . S
C2497 C2501 1.408 . S
C2498 C2496 1.363 . S
C2498 C2499 1.370 . S
C2498 C2502 1.524 . S
C2499 C2491 1.503 . S
C2499 C2498 1.370 . S
C2499 C2500 1.403 . S
C2500 C2499 1.403 . S
C2500 C2501 1.404 . S
C2500 C2503 1.539 . S
C2501 C2497 1.408 . S
C2501 C2500 1.404 . S
C2501 H2513 0.930 . S
C2502 C2498 1.524 . S
C2502 H2514 0.956 . S
C2502 H2515 0.961 . S
C2502 H2516 0.961 . S
C2503 C2500 1.539 . S
C2503 H2517 0.958 . S
C2503 H2518 0.961 . S
C2503 H2519 0.960 . S
H2504 C2488 0.931 . S
H2505 C2493 0.929 . S
H2506 C2494 0.960 . S
H2507 C2494 0.962 . S
H2508 C2494 0.960 . S
H2509 C2495 0.961 . S
H2510 C2495 0.961 . S
H2511 C2495 0.961 . S
H2512 C2496 0.931 . S
H2513 C2501 0.930 . S
H2514 C2502 0.956 . S
H2515 C2502 0.961 . S
H2516 C2502 0.961 . S
H2517 C2503 0.958 . S
H2518 C2503 0.961 . S
H2519 C2503 0.960 . S
C2520 C2521 1.391 . S
C2520 C2522 1.394 . S
C2520 H2536 0.931 . S
C2521 C2520 1.391 . S
C2521 C2525 1.376 . S
C2522 C2520 1.394 . S
C2522 C2523 1.369 . S
C2522 C2526 1.531 . S
C2523 C2522 1.369 . S
C2523 C2524 1.410 . S
C2523 C2531 1.503 . S
C2524 C2523 1.410 . S
C2524 C2525 1.392 . S
C2524 C2527 1.511 . S
C2525 C2521 1.376 . S
C2525 C2524 1.392 . S
C2525 H2537 0.929 . S
C2526 C2522 1.531 . S
C2526 H2538 0.960 . S
C2526 H2539 0.962 . S
C2526 H2540 0.960 . S
C2527 C2524 1.511 . S
C2527 H2541 0.961 . S
C2527 H2542 0.961 . S
C2527 H2543 0.961 . S
C2528 C2529 1.370 . S
C2528 C2530 1.363 . S
C2528 H2544 0.931 . S
C2529 C2528 1.370 . S
C2529 C2533 1.408 . S
C2530 C2528 1.363 . S
C2530 C2531 1.370 . S
C2530 C2534 1.524 . S
C2531 C2523 1.503 . S
C2531 C2530 1.370 . S
C2531 C2532 1.403 . S
C2532 C2531 1.403 . S
C2532 C2533 1.404 . S
C2532 C2535 1.539 . S
C2533 C2529 1.408 . S
C2533 C2532 1.404 . S
C2533 H2545 0.930 . S
C2534 C2530 1.524 . S
C2534 H2546 0.956 . S
C2534 H2547 0.961 . S
C2534 H2548 0.961 . S
C2535 C2532 1.539 . S
C2535 H2549 0.958 . S
C2535 H2550 0.961 . S
C2535 H2551 0.960 . S
H2536 C2520 0.931 . S
H2537 C2525 0.929 . S
H2538 C2526 0.960 . S
H2539 C2526 0.962 . S
H2540 C2526 0.960 . S
H2541 C2527 0.961 . S
H2542 C2527 0.961 . S
H2543 C2527 0.961 . S
H2544 C2528 0.931 . S
H2545 C2533 0.930 . S
H2546 C2534 0.956 . S
H2547 C2534 0.961 . S
H2548 C2534 0.961 . S
H2549 C2535 0.958 . S
H2550 C2535 0.961 . S
H2551 C2535 0.960 . S
C2552 C2553 1.391 . S
C2552 C2554 1.394 . S
C2552 H2568 0.931 . S
C2553 C2552 1.391 . S
C2553 C2557 1.376 . S
C2554 C2552 1.394 . S
C2554 C2555 1.369 . S
C2554 C2558 1.531 . S
C2555 C2554 1.369 . S
C2555 C2556 1.410 . S
C2555 C2563 1.503 . S
C2556 C2555 1.410 . S
C2556 C2557 1.392 . S
C2556 C2559 1.511 . S
C2557 C2553 1.376 . S
C2557 C2556 1.392 . S
C2557 H2569 0.929 . S
C2558 C2554 1.531 . S
C2558 H2570 0.960 . S
C2558 H2571 0.962 . S
C2558 H2572 0.960 . S
C2559 C2556 1.511 . S
C2559 H2573 0.961 . S
C2559 H2574 0.961 . S
C2559 H2575 0.961 . S
C2560 C2561 1.370 . S
C2560 C2562 1.363 . S
C2560 H2576 0.931 . S
C2561 C2560 1.370 . S
C2561 C2565 1.408 . S
C2562 C2560 1.363 . S
C2562 C2563 1.370 . S
C2562 C2566 1.524 . S
C2563 C2555 1.503 . S
C2563 C2562 1.370 . S
C2563 C2564 1.403 . S
C2564 C2563 1.403 . S
C2564 C2565 1.404 . S
C2564 C2567 1.539 . S
C2565 C2561 1.408 . S
C2565 C2564 1.404 . S
C2565 H2577 0.930 . S
C2566 C2562 1.524 . S
C2566 H2578 0.956 . S
C2566 H2579 0.961 . S
C2566 H2580 0.961 . S
C2567 C2564 1.539 . S
C2567 H2581 0.958 . S
C2567 H2582 0.961 . S
C2567 H2583 0.960 . S
H2568 C2552 0.931 . S
H2569 C2557 0.929 . S
H2570 C2558 0.960 . S
H2571 C2558 0.962 . S
H2572 C2558 0.960 . S
H2573 C2559 0.961 . S
H2574 C2559 0.961 . S
H2575 C2559 0.961 . S
H2576 C2560 0.931 . S
H2577 C2565 0.930 . S
H2578 C2566 0.956 . S
H2579 C2566 0.961 . S
H2580 C2566 0.961 . S
H2581 C2567 0.958 . S
H2582 C2567 0.961 . S
H2583 C2567 0.960 . S
C2584 C2585 1.391 . S
C2584 C2586 1.394 . S
C2584 H2600 0.931 . S
C2585 C2584 1.391 . S
C2585 C2589 1.376 . S
C2586 C2584 1.394 . S
C2586 C2587 1.369 . S
C2586 C2590 1.531 . S
C2587 C2586 1.369 . S
C2587 C2588 1.410 . S
C2587 C2595 1.503 . S
C2588 C2587 1.410 . S
C2588 C2589 1.392 . S
C2588 C2591 1.511 . S
C2589 C2585 1.376 . S
C2589 C2588 1.392 . S
C2589 H2601 0.929 . S
C2590 C2586 1.531 . S
C2590 H2602 0.960 . S
C2590 H2603 0.962 . S
C2590 H2604 0.960 . S
C2591 C2588 1.511 . S
C2591 H2605 0.961 . S
C2591 H2606 0.961 . S
C2591 H2607 0.961 . S
C2592 C2593 1.370 . S
C2592 C2594 1.363 . S
C2592 H2608 0.931 . S
C2593 C2592 1.370 . S
C2593 C2597 1.408 . S
C2594 C2592 1.363 . S
C2594 C2595 1.370 . S
C2594 C2598 1.524 . S
C2595 C2587 1.503 . S
C2595 C2594 1.370 . S
C2595 C2596 1.403 . S
C2596 C2595 1.403 . S
C2596 C2597 1.404 . S
C2596 C2599 1.539 . S
C2597 C2593 1.408 . S
C2597 C2596 1.404 . S
C2597 H2609 0.930 . S
C2598 C2594 1.524 . S
C2598 H2610 0.956 . S
C2598 H2611 0.961 . S
C2598 H2612 0.961 . S
C2599 C2596 1.539 . S
C2599 H2613 0.958 . S
C2599 H2614 0.961 . S
C2599 H2615 0.960 . S
H2600 C2584 0.931 . S
H2601 C2589 0.929 . S
H2602 C2590 0.960 . S
H2603 C2590 0.962 . S
H2604 C2590 0.960 . S
H2605 C2591 0.961 . S
H2606 C2591 0.961 . S
H2607 C2591 0.961 . S
H2608 C2592 0.931 . S
H2609 C2597 0.930 . S
H2610 C2598 0.956 . S
H2611 C2598 0.961 . S
H2612 C2598 0.961 . S
H2613 C2599 0.958 . S
H2614 C2599 0.961 . S
H2615 C2599 0.960 . S
C2616 C2617 1.391 . S
C2616 C2618 1.394 . S
C2616 H2632 0.931 . S
C2617 C2616 1.391 . S
C2617 C2621 1.376 . S
C2618 C2616 1.394 . S
C2618 C2619 1.369 . S
C2618 C2622 1.531 . S
C2619 C2618 1.369 . S
C2619 C2620 1.410 . S
C2619 C2627 1.503 1_455 S
C2620 C2619 1.410 . S
C2620 C2621 1.392 . S
C2620 C2623 1.511 . S
C2621 C2617 1.376 . S
C2621 C2620 1.392 . S
C2621 H2633 0.929 . S
C2622 C2618 1.531 . S
C2622 H2634 0.960 . S
C2622 H2635 0.962 . S
C2622 H2636 0.960 . S
C2623 C2620 1.511 . S
C2623 H2637 0.961 . S
C2623 H2638 0.961 1_455 S
C2623 H2639 0.961 1_455 S
C2624 C2625 1.370 . S
C2624 C2626 1.363 . S
C2624 H2640 0.931 . S
C2625 C2624 1.370 . S
C2625 C2629 1.408 . S
C2626 C2624 1.363 . S
C2626 C2627 1.370 . S
C2626 C2630 1.529 . S
C2627 C2619 1.503 1_655 S
C2627 C2626 1.370 . S
C2627 C2628 1.403 . S
C2628 C2627 1.403 . S
C2628 C2629 1.404 . S
C2628 C2631 1.539 . S
C2629 C2625 1.408 . S
C2629 C2628 1.404 . S
C2629 H2641 0.930 . S
C2630 C2626 1.529 . S
C2630 H2642 0.954 1_655 S
C2630 H2643 0.954 1_655 S
C2630 H2644 0.964 . S
C2631 C2628 1.539 . S
C2631 H2645 0.958 . S
C2631 H2646 0.961 . S
C2631 H2647 0.960 . S
H2632 C2616 0.931 . S
H2633 C2621 0.929 . S
H2634 C2622 0.960 . S
H2635 C2622 0.962 . S
H2636 C2622 0.960 . S
H2637 C2623 0.961 . S
H2638 C2623 0.961 1_655 S
H2639 C2623 0.961 1_655 S
H2640 C2624 0.931 . S
H2641 C2629 0.930 . S
H2642 C2630 0.954 1_455 S
H2643 C2630 0.954 1_455 S
H2644 C2630 0.964 . S
H2645 C2631 0.958 . S
H2646 C2631 0.961 . S
H2647 C2631 0.960 . S
C2648 C2649 1.391 . S
C2648 C2650 1.394 . S
C2648 H2664 0.931 . S
C2649 C2648 1.391 . S
C2649 C2653 1.376 . S
C2650 C2648 1.394 . S
C2650 C2651 1.369 . S
C2650 C2654 1.531 . S
C2651 C2650 1.369 . S
C2651 C2652 1.410 . S
C2651 C2659 1.503 . S
C2652 C2651 1.410 . S
C2652 C2653 1.392 . S
C2652 C2655 1.511 . S
C2653 C2649 1.376 . S
C2653 C2652 1.392 . S
C2653 H2665 0.929 . S
C2654 C2650 1.531 . S
C2654 H2666 0.960 . S
C2654 H2667 0.962 . S
C2654 H2668 0.960 . S
C2655 C2652 1.511 . S
C2655 H2669 0.961 . S
C2655 H2670 0.961 . S
C2655 H2671 0.961 . S
C2656 C2657 1.370 . S
C2656 C2658 1.363 . S
C2656 H2672 0.931 . S
C2657 C2656 1.370 . S
C2657 C2661 1.408 . S
C2658 C2656 1.363 . S
C2658 C2659 1.370 . S
C2658 C2662 1.524 . S
C2659 C2651 1.503 . S
C2659 C2658 1.370 . S
C2659 C2660 1.403 . S
C2660 C2659 1.403 . S
C2660 C2661 1.404 . S
C2660 C2663 1.539 . S
C2661 C2657 1.408 . S
C2661 C2660 1.404 . S
C2661 H2673 0.930 . S
C2662 C2658 1.524 . S
C2662 H2674 0.956 . S
C2662 H2675 0.961 . S
C2662 H2676 0.961 . S
C2663 C2660 1.539 . S
C2663 H2677 0.958 . S
C2663 H2678 0.961 . S
C2663 H2679 0.960 . S
H2664 C2648 0.931 . S
H2665 C2653 0.929 . S
H2666 C2654 0.960 . S
H2667 C2654 0.962 . S
H2668 C2654 0.960 . S
H2669 C2655 0.961 . S
H2670 C2655 0.961 . S
H2671 C2655 0.961 . S
H2672 C2656 0.931 . S
H2673 C2661 0.930 . S
H2674 C2662 0.956 . S
H2675 C2662 0.961 . S
H2676 C2662 0.961 . S
H2677 C2663 0.958 . S
H2678 C2663 0.961 . S
H2679 C2663 0.960 . S
C2680 C2681 1.391 . S
C2680 C2682 1.394 . S
C2680 H2696 0.931 . S
C2681 C2680 1.391 . S
C2681 C2685 1.376 . S
C2682 C2680 1.394 . S
C2682 C2683 1.369 . S
C2682 C2686 1.531 1_545 S
C2683 C2682 1.369 . S
C2683 C2684 1.410 . S
C2683 C2691 1.503 1_545 S
C2684 C2683 1.410 . S
C2684 C2685 1.392 . S
C2684 C2687 1.511 . S
C2685 C2681 1.376 . S
C2685 C2684 1.392 . S
C2685 H2697 0.929 . S
C2686 C2682 1.531 1_565 S
C2686 H2698 0.960 . S
C2686 H2699 0.962 . S
C2686 H2700 0.960 1_565 S
C2687 C2684 1.511 . S
C2687 H2701 0.961 . S
C2687 H2702 0.961 . S
C2687 H2703 0.961 . S
C2688 C2689 1.370 . S
C2688 C2690 1.363 . S
C2688 H2704 0.931 . S
C2689 C2688 1.370 . S
C2689 C2693 1.408 . S
C2690 C2688 1.363 . S
C2690 C2691 1.370 . S
C2690 C2694 1.524 . S
C2691 C2683 1.503 1_565 S
C2691 C2690 1.370 . S
C2691 C2692 1.403 . S
C2692 C2691 1.403 . S
C2692 C2693 1.404 . S
C2692 C2695 1.539 . S
C2693 C2689 1.408 . S
C2693 C2692 1.404 . S
C2693 H2705 0.930 . S
C2694 C2690 1.524 . S
C2694 H2706 0.944 . S
C2694 H2707 0.961 1_565 S
C2694 H2708 0.961 . S
C2695 C2692 1.539 . S
C2695 H2709 0.958 . S
C2695 H2710 0.961 . S
C2695 H2711 0.960 . S
H2696 C2680 0.931 . S
H2697 C2685 0.929 . S
H2698 C2686 0.960 . S
H2699 C2686 0.962 . S
H2700 C2686 0.960 1_545 S
H2701 C2687 0.961 . S
H2702 C2687 0.961 . S
H2703 C2687 0.961 . S
H2704 C2688 0.931 . S
H2705 C2693 0.930 . S
H2706 C2694 0.944 . S
H2707 C2694 0.961 1_545 S
H2708 C2694 0.961 . S
H2709 C2695 0.958 . S
H2710 C2695 0.961 . S
H2711 C2695 0.960 . S
C2712 C2713 1.391 1_556 S
C2712 C2714 1.394 . S
C2712 H2728 0.931 . S
C2713 C2712 1.391 1_554 S
C2713 C2717 1.376 . S
C2714 C2712 1.394 . S
C2714 C2715 1.369 . S
C2714 C2718 1.531 . S
C2715 C2714 1.369 . S
C2715 C2716 1.410 1_556 S
C2715 C2723 1.503 1_545 S
C2716 C2715 1.410 1_554 S
C2716 C2717 1.392 . S
C2716 C2719 1.511 . S
C2717 C2713 1.376 . S
C2717 C2716 1.392 . S
C2717 H2729 0.929 . S
C2718 C2714 1.531 . S
C2718 H2730 0.929 1_545 S
C2718 H2731 0.962 . S
C2718 H2732 0.960 . S
C2719 C2716 1.511 . S
C2719 H2733 0.961 . S
C2719 H2734 0.975 . S
C2719 H2735 0.961 . S
C2720 C2721 1.370 1_554 S
C2720 C2722 1.363 . S
C2720 H2736 0.931 . S
C2721 C2720 1.370 1_556 S
C2721 C2725 1.408 . S
C2722 C2720 1.363 . S
C2722 C2723 1.370 1_554 S
C2722 C2726 1.524 . S
C2723 C2715 1.503 1_565 S
C2723 C2722 1.370 1_556 S
C2723 C2724 1.403 . S
C2724 C2723 1.403 . S
C2724 C2725 1.404 . S
C2724 C2727 1.541 . S
C2725 C2721 1.408 . S
C2725 C2724 1.404 . S
C2725 H2737 0.930 . S
C2726 C2722 1.524 . S
C2726 H2738 0.956 . S
C2726 H2739 0.961 . S
C2726 H2740 0.961 . S
C2727 C2724 1.541 . S
C2727 H2741 0.956 1_565 S
C2727 H2742 0.964 . S
C2727 H2743 0.957 1_565 S
H2728 C2712 0.931 . S
H2729 C2717 0.929 . S
H2730 C2718 0.929 1_565 S
H2731 C2718 0.962 . S
H2732 C2718 0.960 . S
H2733 C2719 0.961 . S
H2734 C2719 0.975 . S
H2735 C2719 0.961 . S
H2736 C2720 0.931 . S
H2737 C2725 0.930 . S
H2738 C2726 0.956 . S
H2739 C2726 0.961 . S
H2740 C2726 0.961 . S
H2741 C2727 0.956 1_545 S
H2742 C2727 0.964 . S
H2743 C2727 0.957 1_545 S
C2744 C2745 1.391 1_556 S
C2744 C2746 1.394 . S
C2744 H2760 0.931 . S
C2745 C2744 1.391 1_554 S
C2745 C2749 1.376 . S
C2746 C2744 1.394 . S
C2746 C2747 1.369 1_556 S
C2746 C2750 1.531 . S
C2747 C2746 1.369 1_554 S
C2747 C2748 1.410 . S
C2747 C2755 1.506 1_655 S
C2748 C2747 1.410 . S
C2748 C2749 1.392 . S
C2748 C2751 1.454 1_655 S
C2749 C2745 1.376 . S
C2749 C2748 1.392 . S
C2749 H2761 0.929 . S
C2750 C2746 1.531 . S
C2750 H2762 0.960 . S
C2750 H2763 0.962 . S
C2750 H2764 0.960 . S
C2751 C2748 1.454 1_455 S
C2751 H2765 0.977 1_455 S
C2751 H2766 1.014 . S
C2751 H2767 0.956 . S
C2752 C2753 1.370 . S
C2752 C2754 1.363 . S
C2752 H2768 0.931 . S
C2753 C2752 1.370 . S
C2753 C2757 1.408 1_556 S
C2754 C2752 1.363 . S
C2754 C2755 1.363 1_556 S
C2754 C2758 1.524 . S
C2755 C2747 1.506 1_455 S
C2755 C2754 1.363 1_554 S
C2755 C2756 1.408 . S
C2756 C2755 1.408 . S
C2756 C2757 1.404 . S
C2756 C2759 1.539 . S
C2757 C2753 1.408 1_554 S
C2757 C2756 1.404 . S
C2757 H2769 0.930 . S
C2758 C2754 1.524 . S
C2758 H2770 0.956 1_455 S
C2758 H2771 0.961 . S
C2758 H2772 0.961 . S
C2759 C2756 1.539 . S
C2759 H2773 0.958 . S
C2759 H2774 0.961 . S
C2759 H2775 0.960 . S
H2760 C2744 0.931 . S
H2761 C2749 0.929 . S
H2762 C2750 0.960 . S
H2763 C2750 0.962 . S
H2764 C2750 0.960 . S
H2765 C2751 0.977 1_655 S
H2766 C2751 1.014 . S
H2767 C2751 0.956 . S
H2768 C2752 0.931 . S
H2769 C2757 0.930 . S
H2770 C2758 0.956 1_655 S
H2771 C2758 0.961 . S
H2772 C2758 0.961 . S
H2773 C2759 0.958 . S
H2774 C2759 0.961 . S
H2775 C2759 0.960 . S
C2776 C2777 1.391 . S
C2776 C2778 1.394 1_554 S
C2776 H2792 0.931 1_554 S
C2777 C2776 1.391 . S
C2777 C2781 1.376 . S
C2778 C2776 1.394 1_556 S
C2778 C2779 1.369 . S
C2778 C2782 1.531 . S
C2779 C2778 1.369 . S
C2779 C2780 1.410 1_556 S
C2779 C2787 1.503 . S
C2780 C2779 1.410 1_554 S
C2780 C2781 1.392 . S
C2780 C2783 1.511 . S
C2781 C2777 1.376 . S
C2781 C2780 1.392 . S
C2781 H2793 0.929 . S
C2782 C2778 1.531 . S
C2782 H2794 0.960 . S
C2782 H2795 0.962 . S
C2782 H2796 0.960 . S
C2783 C2780 1.511 . S
C2783 H2797 0.961 . S
C2783 H2798 0.961 . S
C2783 H2799 0.961 1_554 S
C2784 C2785 1.370 1_554 S
C2784 C2786 1.363 . S
C2784 H2800 0.931 . S
C2785 C2784 1.370 1_556 S
C2785 C2789 1.408 . S
C2786 C2784 1.363 . S
C2786 C2787 1.370 1_554 S
C2786 C2790 1.524 . S
C2787 C2779 1.503 . S
C2787 C2786 1.370 1_556 S
C2787 C2788 1.403 . S
C2788 C2787 1.403 . S
C2788 C2789 1.404 . S
C2788 C2791 1.539 . S
C2789 C2785 1.408 . S
C2789 C2788 1.404 . S
C2789 H2801 0.930 . S
C2790 C2786 1.524 . S
C2790 H2802 0.956 . S
C2790 H2803 0.961 . S
C2790 H2804 0.961 . S
C2791 C2788 1.539 . S
C2791 H2805 0.958 . S
C2791 H2806 0.961 . S
C2791 H2807 0.960 . S
H2792 C2776 0.931 1_556 S
H2793 C2781 0.929 . S
H2794 C2782 0.960 . S
H2795 C2782 0.962 . S
H2796 C2782 0.960 . S
H2797 C2783 0.961 . S
H2798 C2783 0.961 . S
H2799 C2783 0.961 1_556 S
H2800 C2784 0.931 . S
H2801 C2789 0.930 . S
H2802 C2790 0.956 . S
H2803 C2790 0.961 . S
H2804 C2790 0.961 . S
H2805 C2791 0.958 . S
H2806 C2791 0.961 . S
H2807 C2791 0.960 . S
C505 C147 1.200 . S
C513 C3 1.169 . S
C537 C161 1.175 . S
C545 C17 1.159 . S
C569 C31 1.130 . S
C577 C133 1.186 . S
C601 C45 1.128 . S
C609 C119 1.187 . S
C633 C59 1.168 . S
C641 C91 1.197 . S
C665 C105 1.200 . S
C673 C73 1.169 . S
C697 C63 1.196 . S
C705 C87 1.180 . S
C729 C77 1.205 . S
C737 C101 1.182 . S
C761 C115 1.132 . S
C769 C49 1.186 . S
C793 C35 1.209 . S
C801 C129 1.176 . S
C825 C143 1.149 . S
C833 C7 1.186 . S
C857 C157 1.191 . S
C865 C21 1.194 . S
C889 C315 1.195 . S
C897 C171 1.176 . S
C921 C329 1.172 . S
C929 C185 1.153 . S
C953 C199 1.145 . S
C961 C301 1.187 . S
C985 C213 1.130 . S
C993 C287 1.188 . S
C1017 C227 1.192 . S
C1025 C259 1.197 . S
C1049 C241 1.128 . S
C1057 C273 1.186 . S
C1081 C231 1.172 . S
C1089 C255 1.157 . S
C1113 C245 1.188 . S
C1121 C269 1.155 . S
C1145 C217 1.182 . S
C1153 C283 1.170 . S
C1177 C203 1.203 . S
C1185 C297 1.167 . S
C1209 C175 1.188 . S
C1217 C311 1.175 . S
C1241 C189 1.182 . S
C1249 C325 1.170 . S
C1273 C339 1.150 . S
C1281 C483 1.194 . S
C1305 C497 1.180 . S
C1313 C353 1.154 . S
C1337 C469 1.208 . S
C1345 C367 1.182 . S
C1369 C381 1.167 . S
C1377 C455 1.191 . S
C1401 C395 1.144 . S
C1409 C427 1.192 . S
C1433 C409 1.156 . S
C1441 C441 1.189 . S
C1465 C399 1.177 . S
C1473 C423 1.151 . S
C1497 C413 1.194 . S
C1505 C437 1.179 . S
C1529 C385 1.172 . S
C1537 C451 1.158 . S
C1561 C465 1.201 . S
C1569 C371 1.200 . S
C1593 C343 1.190 . S
C1601 C479 1.156 . S
C1625 C493 1.139 . S
C1633 C357 1.193 . S
C1657 C50 1.512 . S
C1665 C8 1.518 . S
C1689 C64 1.511 . S
C1697 C22 1.520 . S
C1721 C36 1.521 . S
C1729 C78 1.521 . S
C1753 C134 1.516 . S
C1761 C92 1.518 . S
C1785 C148 1.512 . S
C1793 C106 1.521 . S
C1817 C162 1.520 . S
C1825 C120 1.523 . S
C1849 C218 1.523 . S
C1857 C176 1.523 . S
C1881 C232 1.511 . S
C1889 C190 1.520 . S
C1913 C204 1.521 . S
C1921 C246 1.521 . S
C1945 C260 1.510 . S
C1953 C302 1.519 . S
C1977 C316 1.517 . S
C1985 C274 1.518 . S
C2009 C288 1.522 . S
C2017 C330 1.520 . S
C2041 C386 1.513 . S
C2049 C344 1.518 . S
C2073 C400 1.521 . S
C2081 C358 1.523 . S
C2105 C372 1.517 . S
C2113 C414 1.522 . S
C2137 C428 1.510 . S
C2145 C470 1.519 . S
C2169 C442 1.523 . S
C2177 C484 1.521 . S
C2201 C456 1.515 . S
C2209 C498 1.523 . S
C2233 C9 1.496 . S
C2241 C261 1.491 . S
C2265 C275 1.475 . S
C2273 C23 1.499 . S
C2297 C289 1.468 . S
C2305 C37 1.501 . S
C2329 C471 1.499 . S
C2337 C51 1.487 . S
C2361 C485 1.507 . S
C2369 C65 1.486 . S
C2393 C499 1.470 . S
C2401 C79 1.501 . S
C2425 C93 1.494 . S
C2433 C345 1.492 . S
C2457 C359 1.470 . S
C2465 C107 1.500 . S
C2489 C373 1.474 . S
C2497 C121 1.500 . S
C2521 C135 1.468 . S
C2529 C219 1.501 . S
C2553 C149 1.498 . S
C2561 C233 1.487 . S
C2585 C163 1.510 . S
C2593 C247 1.483 . S
C2617 C429 1.501 . S
C2625 C177 1.486 . S
C2649 C443 1.472 . S
C2657 C191 1.498 . S
C2681 C205 1.491 . S
C2689 C457 1.493 . S
C2713 C303 1.469 . S
C2721 C387 1.501 . S
C2745 C317 1.482 . S
C2753 C401 1.494 . S
C2777 C331 1.475 . S
C2785 C415 1.499 . S
