# Generated by pormake.
# Topology smc, (6)-cn, num edge types: 1
# Building blocks:
#     Node 0, Type 0, BuildingBlock: MIFKUJ_clean_sbu_0, # of connection points: 6
#     Node 1, Type 0, BuildingBlock: MIFKUJ_clean_sbu_0, # of connection points: 6
#     Node 2, Type 0, BuildingBlock: MIFKUJ_clean_sbu_0, # of connection points: 6
#     Node 3, Type 0, BuildingBlock: MIFKUJ_clean_sbu_0, # of connection points: 6
#     Node 4, Type 0, BuildingBlock: MIFKUJ_clean_sbu_0, # of connection points: 6
#     Node 5, Type 0, BuildingBlock: MIFKUJ_clean_sbu_0, # of connection points: 6
#     Node 6, Type 0, BuildingBlock: MIFKUJ_clean_sbu_0, # of connection points: 6
#     Node 7, Type 0, BuildingBlock: MIFKUJ_clean_sbu_0, # of connection points: 6
#     Node 8, Type 0, BuildingBlock: MIFKUJ_clean_sbu_0, # of connection points: 6
#     Edge 9, Type (0, 0), BuildingBlock: UVAHIK_clean_linker_0, # of connection points: 2
#     Edge 10, Type (0, 0), BuildingBlock: UVAHIK_clean_linker_0, # of connection points: 2
#     Edge 11, Type (0, 0), BuildingBlock: UVAHIK_clean_linker_0, # of connection points: 2
#     Edge 12, Type (0, 0), BuildingBlock: UVAHIK_clean_linker_0, # of connection points: 2
#     Edge 13, Type (0, 0), BuildingBlock: UVAHIK_clean_linker_0, # of connection points: 2
#     Edge 14, Type (0, 0), BuildingBlock: UVAHIK_clean_linker_0, # of connection points: 2
#     Edge 15, Type (0, 0), BuildingBlock: UVAHIK_clean_linker_0, # of connection points: 2
#     Edge 16, Type (0, 0), BuildingBlock: UVAHIK_clean_linker_0, # of connection points: 2
#     Edge 17, Type (0, 0), BuildingBlock: UVAHIK_clean_linker_0, # of connection points: 2
#     Edge 18, Type (0, 0), BuildingBlock: UVAHIK_clean_linker_0, # of connection points: 2
#     Edge 19, Type (0, 0), BuildingBlock: UVAHIK_clean_linker_0, # of connection points: 2
#     Edge 20, Type (0, 0), BuildingBlock: UVAHIK_clean_linker_0, # of connection points: 2
#     Edge 21, Type (0, 0), BuildingBlock: UVAHIK_clean_linker_0, # of connection points: 2
#     Edge 22, Type (0, 0), BuildingBlock: UVAHIK_clean_linker_0, # of connection points: 2
#     Edge 23, Type (0, 0), BuildingBlock: UVAHIK_clean_linker_0, # of connection points: 2
#     Edge 24, Type (0, 0), BuildingBlock: UVAHIK_clean_linker_0, # of connection points: 2
#     Edge 25, Type (0, 0), BuildingBlock: UVAHIK_clean_linker_0, # of connection points: 2
#     Edge 26, Type (0, 0), BuildingBlock: UVAHIK_clean_linker_0, # of connection points: 2
#     Edge 27, Type (0, 0), BuildingBlock: UVAHIK_clean_linker_0, # of connection points: 2
#     Edge 28, Type (0, 0), BuildingBlock: UVAHIK_clean_linker_0, # of connection points: 2
#     Edge 29, Type (0, 0), BuildingBlock: UVAHIK_clean_linker_0, # of connection points: 2
#     Edge 30, Type (0, 0), BuildingBlock: UVAHIK_clean_linker_0, # of connection points: 2
#     Edge 31, Type (0, 0), BuildingBlock: UVAHIK_clean_linker_0, # of connection points: 2
#     Edge 32, Type (0, 0), BuildingBlock: UVAHIK_clean_linker_0, # of connection points: 2
#     Edge 33, Type (0, 0), BuildingBlock: UVAHIK_clean_linker_0, # of connection points: 2
#     Edge 34, Type (0, 0), BuildingBlock: UVAHIK_clean_linker_0, # of connection points: 2
#     Edge 35, Type (0, 0), BuildingBlock: UVAHIK_clean_linker_0, # of connection points: 2
# Relax obj value: 0.172
# Max RMSD: 0.285
# Mean RMSD: 0.279
data_MOF--net-smc--node1-MIFKUJ_clean_sbu_0--edge1-UVAHIK_clean_linker_0
_symmetry_space_group_name_H-M    P1
_symmetry_Int_Tables_number       1
_symmetry_cell_setting            triclinic
loop_
_symmetry_equiv_pos_as_xyz
'x, y, z'
_cell_length_a     43.340536
_cell_length_b     41.917983
_cell_length_c     51.934178
_cell_angle_alpha  91.118192
_cell_angle_beta   91.204478
_cell_angle_gamma 120.45335
loop_
_atom_site_label
_atom_site_type_symbol
_atom_site_fract_x
_atom_site_fract_y
_atom_site_fract_z
_atom_type_partial_charge
Zn0 Zn 0.032 0.42655 -0.00097 0.0
Zn1 Zn 0.97176 0.43925 0.00902 0.0
C2 C 0.07354 0.50054 0.98302 0.0
O3 O 0.07644 0.48215 0.96334 0.0
C4 C 0.91368 0.37115 0.02843 0.0
O5 O 0.92089 0.39108 0.04992 0.0
O6 O 0.0745 0.42046 0.99621 0.0
O7 O 0.008 0.40206 0.03103 0.0
O8 O 0.00601 0.45203 0.04022 0.0
C9 C 0.09677 0.435 0.01515 0.0
O10 O 0.08861 0.44929 0.03476 0.0
O11 O 0.05389 0.48243 0.00139 0.0
C12 C 0.91896 0.45517 -0.00195 0.0
O13 O 0.91373 0.4301 0.98025 0.0
O14 O 0.94466 0.46556 0.01447 0.0
O15 O 0.98595 0.44792 0.97148 0.0
O16 O 0.00202 0.40599 0.9674 0.0
O17 O 0.93351 0.38525 0.00934 0.0
C18 C 0.00941 0.42528 0.04763 0.0
C19 C 0.98938 0.42459 0.95767 0.0
Zn20 Zn 0.60833 0.5849 0.00351 0.0
Zn21 Zn 0.53685 0.57092 0.99397 0.0
C22 C 0.57607 0.51212 0.02203 0.0
O23 O 0.59776 0.5317 0.04153 0.0
C24 C 0.54594 0.6383 0.97343 0.0
O25 O 0.53157 0.61718 0.95252 0.0
O26 O 0.6561 0.5893 0.00757 0.0
O27 O 0.60858 0.60817 0.97079 0.0
O28 O 0.55645 0.55905 0.96151 0.0
C29 C 0.662 0.57286 0.98921 0.0
O30 O 0.63842 0.55809 0.96988 0.0
O31 O 0.57397 0.52903 0.0026 0.0
C32 C 0.46933 0.55684 0.00516 0.0
O33 O 0.48972 0.58194 0.02296 0.0
O34 O 0.48375 0.54566 0.98906 0.0
O35 O 0.54517 0.56374 0.03205 0.0
O36 O 0.60054 0.61003 0.03273 0.0
O37 O 0.55236 0.62488 0.99314 0.0
C38 C 0.58561 0.58615 0.95412 0.0
C39 C 0.57128 0.59145 0.04387 0.0
Zn40 Zn 0.41373 0.94711 0.99404 0.0
Zn41 Zn 0.47104 0.06301 0.00868 0.0
C42 C 0.45655 0.91809 0.97621 0.0
O43 O 0.44113 0.91816 0.95417 0.0
C44 C 0.47454 0.12929 0.02569 0.0
O45 O 0.48243 0.11865 0.04725 0.0
O46 O 0.36549 0.8994 0.99176 0.0
O47 O 0.41859 0.97806 0.02601 0.0
O48 O 0.44558 0.03668 0.04019 0.0
C49 C 0.34226 0.88635 0.00906 0.0
O50 O 0.34811 0.90529 0.03084 0.0
O51 O 0.45015 0.93105 0.99639 0.0
C52 C 0.5432 0.09792 0.99325 0.0
O53 O 0.52744 0.09982 0.97192 0.0
O54 O 0.52397 0.08121 0.01214 0.0
O55 O 0.4482 0.02954 0.97778 0.0
O56 O 0.41831 0.97316 0.96092 0.0
O57 O 0.46719 0.10883 0.00545 0.0
C58 C 0.42525 0.00227 0.04379 0.0
C59 C 0.43356 0.0079 0.95828 0.0
Zn60 Zn 0.71605 0.77435 0.33157 0.0
Zn61 Zn 0.6374 0.77058 0.3433 0.0
C62 C 0.74138 0.8461 0.31439 0.0
O63 O 0.74295 0.82931 0.29325 0.0
C64 C 0.58039 0.70162 0.36282 0.0
O65 O 0.59193 0.71847 0.38554 0.0
O66 O 0.76348 0.77727 0.32586 0.0
O67 O 0.69913 0.75005 0.36453 0.0
O68 O 0.66973 0.77839 0.37536 0.0
C69 C 0.78745 0.7939 0.34365 0.0
O70 O 0.77968 0.80707 0.3641 0.0
O71 O 0.72808 0.82717 0.33419 0.0
C72 C 0.59545 0.80518 0.33125 0.0
O73 O 0.59787 0.79506 0.30765 0.0
O74 O 0.6117 0.79935 0.34964 0.0
O75 O 0.65246 0.77694 0.30572 0.0
O76 O 0.68302 0.74795 0.30194 0.0
O77 O 0.59691 0.71798 0.34291 0.0
C78 C 0.68779 0.76318 0.3816 0.0
C79 C 0.66191 0.75761 0.29247 0.0
Zn80 Zn 0.22929 0.94738 0.32461 0.0
Zn81 Zn 0.24246 0.87286 0.33336 0.0
C82 C 0.15506 0.8982 0.3136 0.0
O83 O 0.16618 0.90844 0.29022 0.0
C84 C 0.30181 0.86895 0.35844 0.0
O85 O 0.27937 0.85297 0.37698 0.0
O86 O 0.22994 0.9953 0.32362 0.0
O87 O 0.26505 0.95413 0.35217 0.0
O88 O 0.23194 0.89679 0.3639 0.0
C89 C 0.22446 0.0083 0.34418 0.0
O90 O 0.21951 0.99038 0.3656 0.0
O91 O 0.17806 0.90951 0.33225 0.0
C92 C 0.21286 0.79768 0.31826 0.0
O93 O 0.23459 0.81313 0.29926 0.0
O94 O 0.21011 0.8182 0.33523 0.0
O95 O 0.24412 0.88765 0.29606 0.0
O96 O 0.24203 0.93864 0.29028 0.0
O97 O 0.29212 0.88058 0.33925 0.0
C98 C 0.25225 0.9309 0.36971 0.0
C99 C 0.24534 0.91222 0.28143 0.0
Zn100 Zn 0.06481 0.29745 0.32812 0.0
Zn101 Zn 0.13881 0.36924 0.34062 0.0
C102 C 0.10829 0.26705 0.31588 0.0
O103 O 0.09163 0.26208 0.29343 0.0
C104 C 0.1273 0.42779 0.35994 0.0
O105 O 0.13532 0.42031 0.38272 0.0
O106 O 0.0186 0.24962 0.32304 0.0
O107 O 0.06008 0.32354 0.35822 0.0
O108 O 0.11385 0.33755 0.37177 0.0
C109 C 0.00657 0.22872 0.34211 0.0
O110 O 0.02436 0.23964 0.36438 0.0
O111 O 0.10214 0.28333 0.33421 0.0
C112 C 0.21043 0.421 0.33161 0.0
O113 O 0.19359 0.42484 0.31166 0.0
O114 O 0.19222 0.39715 0.34811 0.0
O115 O 0.13222 0.35324 0.30223 0.0
O116 O 0.0734 0.32483 0.29679 0.0
O117 O 0.12604 0.40864 0.3403 0.0
C118 C 0.08179 0.32852 0.37662 0.0
C119 C 0.10435 0.34284 0.28785 0.0
Zn120 Zn 0.36899 0.09315 0.66576 0.0
Zn121 Zn 0.31135 0.10847 0.6727 0.0
C122 C 0.41156 0.16726 0.65019 0.0
O123 O 0.41586 0.149 0.63109 0.0
C124 C 0.25171 0.04245 0.69215 0.0
O125 O 0.25989 0.06301 0.71342 0.0
O126 O 0.41142 0.08702 0.66438 0.0
O127 O 0.34274 0.06773 0.69661 0.0
O128 O 0.34271 0.11869 0.70563 0.0
C129 C 0.43318 0.10103 0.68362 0.0
O130 O 0.42462 0.11492 0.70323 0.0
O131 O 0.39085 0.14906 0.66806 0.0
C132 C 0.26202 0.12849 0.65945 0.0
O133 O 0.25701 0.10396 0.64123 0.0
O134 O 0.28624 0.13689 0.6768 0.0
O135 O 0.32704 0.11603 0.63512 0.0
O136 O 0.3416 0.07285 0.63343 0.0
O137 O 0.27128 0.05547 0.67282 0.0
C138 C 0.34436 0.09096 0.71326 0.0
C139 C 0.3312 0.09242 0.62225 0.0
Zn140 Zn 0.94334 0.24701 0.67645 0.0
Zn141 Zn 0.87474 0.24911 0.66027 0.0
C142 C 0.9049 0.17309 0.69062 0.0
O143 O 0.9238 0.19061 0.71167 0.0
C144 C 0.88513 0.3154 0.63908 0.0
O145 O 0.87242 0.29285 0.61869 0.0
O146 O 0.98929 0.24775 0.6814 0.0
O147 O 0.95043 0.27658 0.64559 0.0
O148 O 0.89688 0.23647 0.63022 0.0
C149 C 0.99532 0.23255 0.66232 0.0
O150 O 0.9721 0.2194 0.64271 0.0
O151 O 0.90637 0.19214 0.6714 0.0
C152 C 0.8075 0.23634 0.66845 0.0
O153 O 0.82756 0.26105 0.68652 0.0
O154 O 0.82215 0.22507 0.65261 0.0
O155 O 0.87688 0.23754 0.69802 0.0
O156 O 0.93487 0.26845 0.70739 0.0
O157 O 0.89148 0.30366 0.65973 0.0
C158 C 0.92976 0.25894 0.62651 0.0
C159 C 0.90295 0.25551 0.71408 0.0
Zn160 Zn 0.74277 0.6186 0.66253 0.0
Zn161 Zn 0.80901 0.72602 0.6747 0.0
C162 C 0.78132 0.58862 0.63842 0.0
O163 O 0.75695 0.58127 0.62015 0.0
C164 C 0.8103 0.79173 0.68857 0.0
O165 O 0.81963 0.78275 0.71028 0.0
O166 O 0.6971 0.56874 0.65911 0.0
O167 O 0.74626 0.63949 0.698 0.0
O168 O 0.78243 0.69988 0.70693 0.0
C169 C 0.67372 0.55487 0.67625 0.0
O170 O 0.67818 0.57394 0.69776 0.0
O171 O 0.78272 0.60771 0.65819 0.0
C172 C 0.88132 0.76593 0.66202 0.0
O173 O 0.86518 0.76529 0.64014 0.0
O174 O 0.86228 0.7491 0.68096 0.0
O175 O 0.79522 0.69313 0.64262 0.0
O176 O 0.7391 0.65044 0.63594 0.0
O177 O 0.80222 0.76993 0.66896 0.0
C178 C 0.75968 0.66727 0.7137 0.0
C179 C 0.76521 0.68203 0.63117 0.0
C180 C 0.40876 0.51916 0.98328 0.0
C181 C 0.43052 0.54271 0.00382 0.0
C182 C 0.37206 0.50643 0.98213 0.0
C183 C 0.30528 0.52725 0.0082 0.0
H184 H 0.23723 0.42379 0.99129 0.0
C185 C 0.15872 0.46106 0.03349 0.0
C186 C 0.13327 0.44113 0.01355 0.0
C187 C 0.19447 0.47155 0.03068 0.0
C188 C 0.256 0.4528 0.99579 0.0
H189 H 0.43097 0.57121 0.03931 0.0
H190 H 0.36716 0.54851 0.03756 0.0
H191 H 0.30146 0.44712 0.98853 0.0
H192 H 0.12486 0.41473 0.97562 0.0
H193 H 0.18768 0.43293 0.97088 0.0
H194 H 0.25997 0.53276 0.01608 0.0
C195 C 0.3784 0.54043 0.02206 0.0
C196 C 0.29267 0.46619 0.99413 0.0
C197 C 0.41496 0.55322 0.02316 0.0
C198 C 0.14393 0.43017 0.99129 0.0
C199 C 0.17979 0.44052 0.98856 0.0
C200 C 0.26876 0.51384 0.01003 0.0
C201 C 0.35656 0.51702 0.00151 0.0
C202 C 0.31767 0.50341 0.00081 0.0
C203 C 0.20544 0.46213 0.00797 0.0
C204 C 0.24386 0.47638 0.00432 0.0
H205 H 0.42009 0.51077 0.96802 0.0
H206 H 0.35591 0.48866 0.96595 0.0
H207 H 0.32385 0.55627 0.01286 0.0
H208 H 0.15132 0.46969 0.05096 0.0
H209 H 0.21371 0.48764 0.04613 0.0
C210 C 0.48717 0.89155 0.00211 0.0
C211 C 0.47727 0.89896 0.97799 0.0
C212 C 0.50299 0.86969 0.00375 0.0
C213 C 0.54717 0.82941 0.96532 0.0
H214 H 0.50455 0.75018 0.01362 0.0
C215 C 0.54578 0.69186 0.95322 0.0
C216 C 0.54949 0.67522 0.97535 0.0
C217 C 0.54458 0.72447 0.95536 0.0
C218 C 0.51726 0.77254 0.00036 0.0
H219 H 0.47776 0.89071 0.93667 0.0
H220 H 0.50512 0.85253 0.93952 0.0
H221 H 0.4887 0.79821 0.01428 0.0
H222 H 0.55633 0.68051 0.01705 0.0
H223 H 0.5541 0.73739 0.02074 0.0
H224 H 0.57471 0.8028 0.9508 0.0
C225 C 0.50091 0.86375 0.95718 0.0
C226 C 0.50819 0.8001 0.00075 0.0
C227 C 0.48498 0.88545 0.95555 0.0
C228 C 0.5535 0.69269 -0.0004 0.0
C229 C 0.55198 0.72512 0.00176 0.0
C230 C 0.55615 0.80176 0.96488 0.0
C231 C 0.50943 0.85498 0.9813 0.0
C232 C 0.52248 0.82843 0.98288 0.0
C233 C 0.54678 0.74093 0.9797 0.0
C234 C 0.54074 0.77264 0.98206 0.0
H235 H 0.48164 0.9016 0.01978 0.0
H236 H 0.50962 0.86376 0.0226 0.0
H237 H 0.55907 0.85121 0.95158 0.0
H238 H 0.54274 0.6791 0.93428 0.0
H239 H 0.54025 0.73584 0.93802 0.0
C240 C 0.2875 0.8313 0.02577 0.0
C241 C 0.31025 0.84881 0.00532 0.0
C242 C 0.25897 0.79476 0.02271 0.0
C243 C 0.23061 0.70996 0.98276 0.0
H244 H 0.13856 0.67491 0.01348 0.0
C245 C 0.11535 0.56089 0.96345 0.0
C246 C 0.09555 0.54151 0.98463 0.0
C247 C 0.13885 0.59911 0.96542 0.0
C248 C 0.16423 0.68422 0.00496 0.0
H249 H 0.31981 0.84212 0.96528 0.0
H250 H 0.26989 0.77883 0.95985 0.0
H251 H 0.18446 0.74052 0.01783 0.0
H252 H 0.08403 0.54735 0.02431 0.0
H253 H 0.12549 0.6142 0.02787 0.0
H254 H 0.2108 0.65389 0.97013 0.0
C255 C 0.27452 0.79298 0.97844 0.0
C256 C 0.19053 0.72183 0.00745 0.0
C257 C 0.30306 0.82939 0.98152 0.0
C258 C 0.09886 0.56148 0.00761 0.0
C259 C 0.12254 0.59982 0.00962 0.0
C260 C 0.20442 0.67251 0.98028 0.0
C261 C 0.2525 0.77494 -0.00088 0.0
C262 C 0.22405 0.73515 0.99632 0.0
C263 C 0.14334 0.61898 0.98868 0.0
C264 C 0.17085 0.65912 0.99129 0.0
H265 H 0.29228 0.84544 0.04438 0.0
H266 H 0.24274 0.78166 0.0391 0.0
H267 H 0.25635 0.71902 0.97443 0.0
H268 H 0.11321 0.54645 0.94537 0.0
H269 H 0.15383 0.61306 0.94874 0.0
C270 C 0.47369 0.18022 0.00134 0.0
C271 C 0.47734 0.16599 0.02479 0.0
C272 C 0.47971 0.21634 0.00049 0.0
C273 C 0.52985 0.30554 0.0364 0.0
H274 H 0.4729 0.33475 0.99553 0.0
C275 C 0.55642 0.45346 0.04497 0.0
C276 C 0.55735 0.47115 0.02207 0.0
C277 C 0.5427 0.41531 0.04487 0.0
C278 C 0.48922 0.32704 0.00686 0.0
H279 H 0.48837 0.17792 0.0659 0.0
H280 H 0.49856 0.24045 0.06442 0.0
H281 H 0.45601 0.26939 0.996 0.0
H282 H 0.54308 0.46237 0.98123 0.0
H283 H 0.51949 0.39549 0.98096 0.0
H284 H 0.56334 0.36277 0.04704 0.0
C285 C 0.49172 0.22404 0.0466 0.0
C286 C 0.47954 0.28963 0.00713 0.0
C287 C 0.4857 0.18808 0.04746 0.0
C288 C 0.54272 0.44952 -0.0008 0.0
C289 C 0.52912 0.41119 -0.00094 0.0
C290 C 0.53953 0.34272 0.03607 0.0
C291 C 0.48958 0.23892 0.02306 0.0
C292 C 0.4996 0.27847 0.02213 0.0
C293 C 0.52981 0.39381 0.02181 0.0
C294 C 0.51919 0.35398 0.02153 0.0
H295 H 0.46721 0.16387 0.98353 0.0
H296 H 0.47797 0.22704 0.98204 0.0
H297 H 0.54642 0.29805 0.04764 0.0
H298 H 0.56703 0.46921 0.06299 0.0
H299 H 0.5428 0.40273 0.06287 0.0
C300 C 0.60008 0.12445 0.02041 0.0
C301 C 0.58282 0.11872 0.9961 0.0
C302 C 0.63726 0.14755 0.0234 0.0
C303 C 0.71318 0.22472 0.99114 0.0
H304 H 0.77113 0.20867 0.04125 0.0
C305 C 0.86573 0.32099 -0.00015 0.0
C306 C 0.87933 0.33573 0.02482 0.0
C307 C 0.83097 0.2909 0.99603 0.0
C308 C 0.7552 0.21348 0.02722 0.0
H309 H 0.59135 0.13123 0.95565 0.0
H310 H 0.65604 0.17051 0.96069 0.0
H311 H 0.70756 0.16233 0.03473 0.0
H312 H 0.86788 0.32899 0.06544 0.0
H313 H 0.80722 0.2759 0.05873 0.0
H314 H 0.76079 0.27572 0.98358 0.0
C315 C 0.64087 0.15811 0.97764 0.0
C316 C 0.71877 0.18704 0.02353 0.0
C317 C 0.60373 0.1353 0.9747 0.0
C318 C 0.85813 0.31835 0.04597 0.0
C319 C 0.82346 0.28789 0.04215 0.0
C320 C 0.74956 0.25085 0.99463 0.0
C321 C 0.65809 0.16525 0.00211 0.0
C322 C 0.69722 0.19242 0.00551 0.0
C323 C 0.80919 0.27455 0.01709 0.0
C324 C 0.77094 0.24563 0.01278 0.0
H325 H 0.58475 0.11217 0.03732 0.0
H326 H 0.64945 0.1526 0.04258 0.0
H327 H 0.69739 0.23038 0.97756 0.0
H328 H 0.88131 0.33372 0.98311 0.0
H329 H 0.82079 0.28092 0.97652 0.0
C330 C 0.89582 0.49225 0.01998 0.0
C331 C 0.89455 0.46989 -0.00099 0.0
C332 C 0.87148 0.50478 0.02096 0.0
C333 C 0.78346 0.48318 0.99387 0.0
H334 H 0.81435 0.58512 0.01334 0.0
C335 C 0.697 0.54627 0.97088 0.0
C336 C 0.69214 0.56608 0.99093 0.0
C337 C 0.72285 0.53609 0.97342 0.0
C338 C 0.80535 0.55649 0.00814 0.0
H339 H 0.86754 0.44384 0.96236 0.0
H340 H 0.82575 0.46613 0.96386 0.0
H341 H 0.85736 0.56368 0.01546 0.0
H342 H 0.71143 0.59206 0.02897 0.0
H343 H 0.75695 0.57426 0.03333 0.0
H344 H 0.73172 0.47609 0.98608 0.0
C345 C 0.84488 0.47334 0.97983 0.0
C346 C 0.82987 0.54421 0.00941 0.0
C347 C 0.869 0.46076 0.97891 0.0
C348 C 0.71461 0.57681 0.01318 0.0
C349 C 0.74065 0.56669 0.01569 0.0
C350 C 0.75909 0.49546 0.9925 0.0
C351 C 0.8456 0.49514 0.00096 0.0
C352 C 0.81926 0.50761 0.00182 0.0
C353 C 0.74443 0.54559 0.99603 0.0
C354 C 0.76997 0.53237 -0.00083 0.0
H355 H 0.91522 0.49961 0.03578 0.0
H356 H 0.87248 0.52139 0.03754 0.0
H357 H 0.77432 0.45457 0.98849 0.0
H358 H 0.68027 0.5378 0.95341 0.0
H359 H 0.72572 0.5204 0.95778 0.0
C360 C 0.83496 0.79157 0.31802 0.0
C361 C 0.82394 0.79962 0.3413 0.0
C362 C 0.87006 0.79873 0.31578 0.0
C363 C 0.96094 0.85509 0.34657 0.0
H364 H 0.98205 0.79055 0.30569 0.0
C365 C 0.10393 0.87888 0.34319 0.0
C366 C 0.11621 0.87897 0.31834 0.0
C367 C 0.06756 0.86555 0.34692 0.0
C368 C 0.97654 0.80888 0.31711 0.0
H369 H 0.84088 0.82048 0.3807 0.0
H370 H 0.90148 0.8321 0.377 0.0
H371 H 0.91989 0.77466 0.31021 0.0
H372 H 0.09969 0.8633 0.27816 0.0
H373 H 0.03628 0.83972 0.28474 0.0
H374 H 0.01754 0.88924 0.3535 0.0
C375 C 0.88344 0.82114 0.36023 0.0
C376 C 0.94094 0.79988 0.31962 0.0
C377 C 0.84853 0.81424 0.36241 0.0
C378 C 0.09111 0.86371 0.29754 0.0
C379 C 0.05473 0.85005 0.30132 0.0
C380 C -0.00356 0.8639 0.34423 0.0
C381 C 0.89486 0.8139 0.33681 0.0
C382 C 0.93267 0.82296 0.33432 0.0
C383 C 0.04266 0.85165 0.32594 0.0
C384 C 0.00468 0.841 0.3294 0.0
H385 H 0.8167 0.78041 0.30137 0.0
H386 H 0.87796 0.79317 0.29736 0.0
H387 H 0.95576 0.87398 0.3576 0.0
H388 H 0.12258 0.8905 0.35961 0.0
H389 H 0.05898 0.86673 0.36618 0.0
C390 C 0.13976 0.24594 0.34583 0.0
C391 C 0.13041 0.25004 0.32054 0.0
C392 C 0.15672 0.22568 0.35036 0.0
C393 C 0.20714 0.18676 0.32014 0.0
H394 H 0.15893 0.10801 0.36819 0.0
C395 C 0.22235 0.05822 0.32008 0.0
C396 C 0.22119 0.04167 0.34357 0.0
C397 C 0.21663 0.08808 0.31916 0.0
C398 C 0.17325 0.13028 0.35512 0.0
H399 H 0.13331 0.23804 0.28014 0.0
H400 H 0.16321 0.20293 0.28809 0.0
H401 H 0.14046 0.15361 0.3633 0.0
H402 H 0.21455 0.04436 0.3847 0.0
H403 H 0.2052 0.09695 0.38316 0.0
H404 H 0.23973 0.16325 0.31174 0.0
C405 C 0.15733 0.21528 0.30437 0.0
C406 C 0.16259 0.15636 0.35229 0.0
C407 C 0.14002 0.23518 0.29984 0.0
C408 C 0.21536 0.05636 0.36626 0.0
C409 C 0.20981 0.08637 0.36536 0.0
C410 C 0.21804 0.16084 0.32312 0.0
C411 C 0.16503 0.20957 0.32969 0.0
C412 C 0.17903 0.18447 0.33447 0.0
C413 C 0.20983 0.10221 0.34173 0.0
C414 C 0.20078 0.1319 0.34031 0.0
H415 H 0.13276 0.25713 0.36218 0.0
H416 H 0.16268 0.22194 0.37006 0.0
H417 H 0.22045 0.2084 0.30644 0.0
H418 H 0.22674 0.04754 0.30224 0.0
H419 H 0.21632 0.09922 0.30058 0.0
C420 C 0.96001 0.17659 0.31412 0.0
C421 C 0.97436 0.1916 0.33887 0.0
C422 C 0.93109 0.1405 0.31093 0.0
C423 C 0.85637 0.06523 0.34405 0.0
H424 H 0.8672 0.00184 0.29419 0.0
C425 C 0.76778 0.90558 0.34041 0.0
C426 C 0.76023 0.88694 0.31627 0.0
C427 C 0.79035 0.94398 0.34252 0.0
C428 C 0.86335 0.01927 0.30784 0.0
H429 H 0.96893 0.18112 0.37975 0.0
H430 H 0.91816 0.11803 0.37413 0.0
H431 H 0.91336 0.06681 0.29912 0.0
H432 H 0.76835 0.8941 0.27524 0.0
H433 H 0.8069 0.9611 0.27883 0.0
H434 H 0.80632 0.0176 0.35282 0.0
C435 C 0.92934 0.13424 0.35724 0.0
C436 C 0.88989 0.05648 0.31071 0.0
C437 C 0.95851 0.17024 0.36042 0.0
C438 C 0.77396 0.90763 0.29415 0.0
C439 C 0.79628 0.94601 0.29623 0.0
C440 C 0.82961 0.02799 0.34104 0.0
C441 C 0.91574 0.11886 0.33244 0.0
C442 C 0.88675 0.07977 0.32891 0.0
C443 C 0.80559 0.96451 0.32051 0.0
C444 C 0.83289 0.00454 0.32297 0.0
H445 H 0.97162 0.19239 0.29713 0.0
H446 H 0.92086 0.1294 0.29161 0.0
H447 H 0.85321 0.08273 0.3581 0.0
H448 H 0.75766 0.89039 0.35784 0.0
H449 H 0.79715 0.95728 0.36153 0.0
C450 C 0.18215 0.74225 0.34555 0.0
C451 C 0.19558 0.75743 0.32161 0.0
C452 C 0.16961 0.70485 0.34958 0.0
C453 C 0.17878 0.62771 0.3232 0.0
H454 H 0.10066 0.56804 0.36781 0.0
C455 C 0.12408 0.47293 0.33115 0.0
C456 C 0.12542 0.46159 0.35625 0.0
C457 C 0.12777 0.50743 0.3272 0.0
C458 C 0.12255 0.58455 0.35538 0.0
H459 H 0.20465 0.74508 0.28274 0.0
H460 H 0.18162 0.67964 0.28942 0.0
H461 H 0.11593 0.63164 0.35946 0.0
H462 H 0.1291 0.47642 0.39692 0.0
H463 H 0.13509 0.53693 0.38987 0.0
H464 H 0.18499 0.58048 0.31882 0.0
C465 C 0.18181 0.69676 0.30537 0.0
C466 C 0.13141 0.62092 0.35065 0.0
C467 C 0.19475 0.73421 0.30146 0.0
C468 C 0.12817 0.4845 0.37737 0.0
C469 C 0.13148 0.519 0.37337 0.0
C470 C 0.16961 0.59135 0.32764 0.0
C471 C 0.16991 0.68181 0.32966 0.0
C472 C 0.15964 0.6429 0.33446 0.0
C473 C 0.13243 0.53111 0.34823 0.0
C474 C 0.14143 0.56946 0.34371 0.0
H475 H 0.18263 0.75954 0.36151 0.0
H476 H 0.16101 0.69441 0.36859 0.0
H477 H 0.20131 0.64407 0.31125 0.0
H478 H 0.12175 0.45588 0.31443 0.0
H479 H 0.12804 0.51609 0.30764 0.0
C480 C 0.26954 0.46671 0.31447 0.0
C481 C 0.24969 0.44528 0.33496 0.0
C482 C 0.30627 0.49134 0.31764 0.0
C483 C 0.38606 0.5169 0.36026 0.0
H484 H 0.42316 0.61078 0.32688 0.0
C485 C 0.52679 0.64766 0.38145 0.0
C486 C 0.54547 0.66677 0.3598 0.0
C487 C 0.49182 0.61748 0.37857 0.0
C488 C 0.41325 0.58454 0.33611 0.0
H489 H 0.25294 0.43234 0.37477 0.0
H490 H 0.31718 0.4762 0.38059 0.0
H491 H 0.3598 0.56485 0.32205 0.0
H492 H 0.54269 0.66804 0.31804 0.0
H493 H 0.48171 0.61581 0.31317 0.0
H494 H 0.43984 0.53761 0.37491 0.0
C495 C 0.3044 0.47346 0.36188 0.0
C496 C 0.37693 0.5581 0.33329 0.0
C497 C 0.26756 0.44844 0.3586 0.0
C498 C 0.52907 0.65406 0.33516 0.0
C499 C 0.49406 0.62426 0.33234 0.0
C500 C 0.42247 0.54365 0.36332 0.0
C501 C 0.32412 0.49557 0.3415 0.0
C502 C 0.36285 0.52378 0.34511 0.0
C503 C 0.47483 0.60622 0.35403 0.0
C504 C 0.4364 0.57757 0.35107 0.0
H505 H 0.25667 0.46465 0.2959 0.0
H506 H 0.32066 0.50717 0.30131 0.0
H507 H 0.37623 0.49066 0.36943 0.0
H508 H 0.53875 0.65669 0.40067 0.0
H509 H 0.47751 0.60405 0.39561 0.0
C510 C 0.35685 0.87944 0.33614 0.0
C511 C 0.33645 0.86974 0.35838 0.0
C512 C 0.38779 0.87693 0.33515 0.0
C513 C 0.43116 0.83004 0.36667 0.0
H514 H 0.51176 0.89641 0.32624 0.0
C515 C 0.55912 0.81961 0.36142 0.0
C516 C 0.57092 0.8194 0.33643 0.0
C517 C 0.53309 0.82938 0.36568 0.0
C518 C 0.4894 0.8776 0.33755 0.0
H519 H 0.33352 0.85131 0.39743 0.0
H520 H 0.38799 0.84794 0.39601 0.0
H521 H 0.46203 0.90743 0.33127 0.0
H522 H 0.56554 0.83065 0.2965 0.0
H523 H 0.52059 0.84811 0.30402 0.0
H524 H 0.45871 0.80034 0.37296 0.0
C525 C 0.37959 0.85652 0.37902 0.0
C526 C 0.46077 0.8838 0.34037 0.0
C527 C 0.34845 0.85873 0.37992 0.0
C528 C 0.55705 0.83047 0.31599 0.0
C529 C 0.53138 0.84066 0.3203 0.0
C530 C 0.45993 0.82408 0.36404 0.0
C531 C 0.39938 0.86496 0.35646 0.0
C532 C 0.43102 0.85985 0.35473 0.0
C533 C 0.51863 0.83962 0.34512 0.0
C534 C 0.48921 0.84753 0.34923 0.0
H535 H 0.34835 0.88789 0.31912 0.0
H536 H 0.4019 0.8832 0.31731 0.0
H537 H 0.40853 0.81054 0.37745 0.0
H538 H 0.56915 0.81113 0.37758 0.0
H539 H 0.52404 0.82863 0.38506 0.0
C540 C 0.74696 0.19897 0.64648 0.0
C541 C 0.76862 0.22158 0.66738 0.0
C542 C 0.71002 0.18497 0.64603 0.0
C543 C 0.64151 0.19986 0.67607 0.0
H544 H 0.57645 0.09663 0.65643 0.0
C545 C 0.49492 0.12675 0.70231 0.0
C546 C 0.46985 0.10773 0.682 0.0
C547 C 0.53093 0.13842 0.69934 0.0
C548 C 0.59438 0.12556 0.66176 0.0
H549 H 0.76878 0.24712 0.7042 0.0
H550 H 0.70468 0.22214 0.70369 0.0
H551 H 0.64094 0.12311 0.65218 0.0
H552 H 0.46236 0.084 0.64322 0.0
H553 H 0.52552 0.10438 0.63816 0.0
H554 H 0.59512 0.20212 0.6862 0.0
C555 C 0.71608 0.21587 0.68736 0.0
C556 C 0.63119 0.14076 0.65921 0.0
C557 C 0.75283 0.22999 0.68772 0.0
C558 C 0.48111 0.09867 0.65921 0.0
C559 C 0.51719 0.11027 0.65629 0.0
C560 C 0.60487 0.18462 0.67879 0.0
C561 C 0.69426 0.19327 0.66652 0.0
C562 C 0.65513 0.1779 0.66678 0.0
C563 C 0.54248 0.13115 0.67607 0.0
C564 C 0.58107 0.14722 0.67207 0.0
H565 H 0.75851 0.19222 0.63049 0.0
H566 H 0.69385 0.16788 0.62962 0.0
H567 H 0.65923 0.22879 0.68149 0.0
H568 H 0.48702 0.13387 0.72018 0.0
H569 H 0.54992 0.15392 0.71505 0.0
C570 C 0.87729 0.36285 0.61633 0.0
C571 C 0.88542 0.35089 0.63921 0.0
C572 C 0.87167 0.3928 0.61678 0.0
C573 C 0.88365 0.47397 0.65454 0.0
H574 H 0.79696 0.45291 0.6166 0.0
C575 C 0.81898 0.56668 0.66063 0.0
C576 C 0.80193 0.56921 0.63804 0.0
C577 C 0.83336 0.54334 0.66116 0.0
C578 C 0.82158 0.45961 0.62695 0.0
H579 H 0.89613 0.36248 0.68038 0.0
H580 H 0.88632 0.4151 0.6811 0.0
H581 H 0.81509 0.40684 0.61694 0.0
H582 H 0.78886 0.55122 0.59787 0.0
H583 H 0.81468 0.5115 0.59856 0.0
H584 H 0.89001 0.52697 0.66451 0.0
C585 C 0.88433 0.40116 0.66282 0.0
C586 C 0.83192 0.43309 0.6272 0.0
C587 C 0.88991 0.37101 0.66239 0.0
C588 C 0.80146 0.54963 0.61565 0.0
C589 C 0.81601 0.52659 0.61612 0.0
C590 C 0.87336 0.50077 0.65418 0.0
C591 C 0.87405 0.4116 0.64011 0.0
C592 C 0.86326 0.44006 0.64071 0.0
C593 C 0.83112 0.52221 0.63907 0.0
C594 C 0.84238 0.49402 0.64009 0.0
H595 H 0.87395 0.34823 0.59811 0.0
H596 H 0.8645 0.40069 0.59888 0.0
H597 H 0.90792 0.48007 0.66516 0.0
H598 H 0.81973 0.58134 0.67826 0.0
H599 H 0.84469 0.54058 0.67918 0.0
C600 C 0.63715 0.49697 0.64904 0.0
C601 C 0.64285 0.5167 0.67253 0.0
C602 C 0.60934 0.46023 0.64596 0.0
C603 C 0.52463 0.3887 0.67368 0.0
H604 H 0.54789 0.32125 0.63895 0.0
C605 C 0.43486 0.22822 0.67431 0.0
C606 C 0.43292 0.20824 0.65167 0.0
C607 C 0.45796 0.26666 0.6763 0.0
C608 C 0.5407 0.33974 0.64837 0.0
H609 H 0.62321 0.51351 0.71104 0.0
H610 H 0.57496 0.44915 0.70575 0.0
H611 H 0.59268 0.38664 0.64337 0.0
H612 H 0.45225 0.21318 0.61291 0.0
H613 H 0.49189 0.27996 0.61624 0.0
H614 H 0.47262 0.3414 0.67887 0.0
C615 C 0.59174 0.46226 0.68961 0.0
C616 C 0.56645 0.3773 0.6509 0.0
C617 C 0.61954 0.49911 0.69267 0.0
C618 C 0.45339 0.22765 0.63074 0.0
C619 C 0.4763 0.26596 0.63269 0.0
C620 C 0.49879 0.35098 0.67113 0.0
C621 C 0.58663 0.44222 0.66632 0.0
C622 C 0.55876 0.4023 0.66352 0.0
C623 C 0.4795 0.28585 0.65567 0.0
C624 C 0.50652 0.32607 0.65837 0.0
H625 H 0.65441 0.50975 0.63305 0.0
H626 H 0.60575 0.44583 0.6276 0.0
H627 H 0.51774 0.40728 0.68331 0.0
H628 H 0.41943 0.21406 0.69078 0.0
H629 H 0.45992 0.28111 0.69432 0.0
C630 C 0.82106 0.85099 0.70918 0.0
C631 C 0.81278 0.82827 0.68684 0.0
C632 C 0.82716 0.88692 0.70775 0.0
C633 C 0.81498 0.95182 0.66761 0.0
H634 H 0.8972 0.02513 0.70879 0.0
C635 C 0.87484 0.11262 0.66471 0.0
C636 C 0.88674 0.13208 0.68863 0.0
C637 C 0.86252 0.07451 0.66289 0.0
C638 C 0.87392 0.00501 0.69738 0.0
H639 H 0.80286 0.82509 0.6455 0.0
H640 H 0.81369 0.88835 0.643 0.0
H641 H 0.88189 0.96081 0.70833 0.0
H642 H 0.89281 0.12626 0.72955 0.0
H643 H 0.87115 0.06033 0.72642 0.0
H644 H 0.80727 0.9966 0.6567 0.0
C645 C 0.81537 0.8781 0.66164 0.0
C646 C 0.86513 0.96807 0.69711 0.0
C647 C 0.80925 0.84191 0.66307 0.0
C648 C 0.88428 0.1123 0.71077 0.0
C649 C 0.87204 0.07446 0.70896 0.0
C650 C 0.82384 0.98905 0.66787 0.0
C651 C 0.82523 0.90129 0.68393 0.0
C652 C 0.83521 0.94086 0.68262 0.0
C653 C 0.86198 0.05526 0.68495 0.0
C654 C 0.85307 0.01594 0.68316 0.0
H655 H 0.82363 0.84134 0.72785 0.0
H656 H 0.83389 0.9037 0.72537 0.0
H657 H 0.79176 0.93151 0.65625 0.0
H658 H 0.87642 0.12707 0.64728 0.0
H659 H 0.85493 0.0605 0.64411 0.0
C660 C 0.93831 0.79567 0.68921 0.0
C661 C 0.92084 0.7884 0.66487 0.0
C662 C 0.97541 0.81952 0.69192 0.0
C663 C 0.05033 0.89563 0.65834 0.0
H664 H 0.10967 0.88132 0.70828 0.0
C665 C 0.20288 0.99165 0.66459 0.0
C666 C 0.2171 0.00729 0.68926 0.0
C667 C 0.16803 0.96155 0.66144 0.0
C668 C 0.09333 0.88563 0.69431 0.0
H669 H 0.92882 0.79922 0.62414 0.0
H670 H 0.99332 0.83988 0.62876 0.0
H671 H 0.046 0.8348 0.70283 0.0
H672 H 0.20678 0.00224 0.73009 0.0
H673 H 0.14593 0.94917 0.72456 0.0
H674 H 0.09763 0.9463 0.64975 0.0
C675 C 0.9784 0.82803 0.64589 0.0
C676 C 0.05687 0.85912 0.69124 0.0
C677 C 0.94138 0.80446 0.64322 0.0
C678 C 0.19648 0.99089 0.71083 0.0
C679 C 0.16174 0.96044 0.70769 0.0
C680 C 0.08674 0.92185 0.66123 0.0
C681 C -0.00416 0.83643 0.67033 0.0
C682 C 0.03488 0.86388 0.67327 0.0
C683 C 0.14686 0.94616 0.68291 0.0
C684 C 0.10859 0.91721 0.67929 0.0
H685 H 0.92323 0.78381 0.70629 0.0
H686 H 0.98785 0.82561 0.71107 0.0
H687 H 0.03415 0.90074 0.64476 0.0
H688 H 0.21805 0.00361 0.64756 0.0
H689 H 0.15734 0.9508 0.64214 0.0
C690 C 0.21343 0.13614 0.63997 0.0
C691 C 0.23822 0.14393 0.66039 0.0
C692 C 0.18908 0.1484 0.64131 0.0
C693 C 0.17047 0.21499 0.67394 0.0
H694 H 0.07288 0.14431 0.65085 0.0
C695 C 0.04952 0.23761 0.6845 0.0
C696 C 0.02637 0.22727 0.66265 0.0
C697 C 0.07726 0.22981 0.68523 0.0
C698 C 0.10008 0.1644 0.65718 0.0
H699 H 0.2577 0.17147 0.69797 0.0
H700 H 0.21462 0.19267 0.70041 0.0
H701 H 0.11792 0.12605 0.65057 0.0
H702 H 0.01497 0.20224 0.62404 0.0
H703 H 0.06328 0.18877 0.62536 0.0
H704 H 0.15224 0.2533 0.68057 0.0
C705 C 0.21433 0.17732 0.6833 0.0
C706 C 0.12585 0.15399 0.657 0.0
C707 C 0.23887 0.1651 0.68193 0.0
C708 C 0.03213 0.2102 0.64126 0.0
C709 C 0.05968 0.20234 0.64203 0.0
C710 C 0.14454 0.2254 0.67421 0.0
C711 C 0.18888 0.16855 0.66315 0.0
C712 C 0.16142 0.17935 0.66494 0.0
C713 C 0.08205 0.21145 0.66417 0.0
C714 C 0.1093 0.20033 0.66541 0.0
H715 H 0.21249 0.12018 0.623 0.0
H716 H 0.17024 0.14191 0.62525 0.0
H717 H 0.19775 0.2351 0.68007 0.0
H718 H 0.04573 0.2509 0.70124 0.0
H719 H 0.09417 0.237 0.70254 0.0
C720 C 0.12904 0.39106 0.25468 0.0
C721 C 0.10701 0.35388 0.26099 0.0
C722 C 0.12326 0.40355 0.23123 0.0
C723 C 0.04675 0.37876 0.18784 0.0
H724 H 0.11433 0.44561 0.13938 0.0
C725 C 0.00705 0.38799 0.08462 0.0
C726 C 0.01927 0.42296 0.07445 0.0
C727 C 0.01919 0.38479 0.10888 0.0
C728 C 0.09532 0.42747 0.15308 0.0
H729 H 0.06465 0.29986 0.24713 0.0
H730 H 0.05543 0.32121 0.20599 0.0
H731 H 0.13641 0.4288 0.1778 0.0
H732 H 0.05351 0.48212 0.08144 0.0
H733 H 0.07558 0.4764 0.12419 0.0
H734 H 0.00567 0.37643 0.163 0.0
C735 C 0.07629 0.34101 0.21929 0.0
C736 C 0.1079 0.41775 0.1749 0.0
C737 C 0.08177 0.32871 0.24267 0.0
C738 C 0.04342 0.45488 0.08913 0.0
C739 C 0.05625 0.45163 0.11334 0.0
C740 C 0.03428 0.38834 0.16617 0.0
C741 C 0.09553 0.37885 0.21398 0.0
C742 C 0.08355 0.39234 0.192 0.0
C743 C 0.04429 0.41648 0.12329 0.0
C744 C 0.05832 0.41191 0.14823 0.0
H745 H 0.1484 0.411 0.2687 0.0
H746 H 0.13857 0.43283 0.22751 0.0
H747 H 0.02743 0.36004 0.20115 0.0
H748 H 0.98849 0.36303 0.07358 0.0
H749 H 0.0098 0.35737 0.11606 0.0
C750 C 0.66889 0.73969 0.24798 0.0
C751 C 0.64831 0.74593 0.26566 0.0
C752 C 0.65508 0.72532 0.22327 0.0
C753 C 0.5721 0.66596 0.18715 0.0
H754 H 0.63152 0.7073 0.12819 0.0
C755 C 0.5566 0.58564 0.09056 0.0
C756 C 0.56647 0.60637 0.06824 0.0
C757 C 0.55927 0.60311 0.1145 0.0
C758 C 0.61424 0.69562 0.14432 0.0
H759 H 0.59729 0.74241 0.27139 0.0
H760 H 0.57276 0.71654 0.22794 0.0
H761 H 0.6516 0.73945 0.16996 0.0
H762 H 0.58344 0.66004 0.05261 0.0
H763 H 0.58677 0.69013 0.09398 0.0
H764 H 0.53511 0.6215 0.16141 0.0
C765 C 0.59969 0.72309 0.23332 0.0
C766 C 0.62595 0.71394 0.16829 0.0
C767 C 0.61381 0.73817 0.25801 0.0
C768 C 0.57611 0.64372 0.06972 0.0
C769 C 0.57819 0.66093 0.09339 0.0
C770 C 0.56042 0.64737 0.16307 0.0
C771 C 0.62018 0.71635 0.21581 0.0
C772 C 0.60535 0.69901 0.19001 0.0
C773 C 0.57147 0.64133 0.11619 0.0
C774 C 0.58161 0.66185 0.14146 0.0
H775 H 0.69558 0.74549 0.25338 0.0
H776 H 0.67135 0.72014 0.21021 0.0
H777 H 0.55586 0.65377 0.2037 0.0
H778 H 0.54919 0.55676 0.08971 0.0
H779 H 0.55401 0.5873 0.13175 0.0
C780 C 0.40146 0.0144 0.08369 0.0
C781 C 0.40804 0.9904 0.06873 0.0
C782 C 0.38335 0.00271 0.10658 0.0
C783 C 0.3223 0.91837 0.14101 0.0
H784 H 0.34817 0.9892 0.1982 0.0
C785 C 0.26508 0.88771 0.24468 0.0
C786 C 0.25582 0.91321 0.25442 0.0
C787 C 0.28114 0.89301 0.22083 0.0
C788 C 0.34058 0.9692 0.1823 0.0
H789 H 0.40253 0.93606 0.0665 0.0
H790 H 0.37122 0.91567 0.10685 0.0
H791 H 0.38415 0.00721 0.16009 0.0
H792 H 0.25336 0.96241 0.24574 0.0
H793 H 0.28161 0.97165 0.20447 0.0
H794 H 0.27893 0.88022 0.16384 0.0
C795 C 0.37917 0.94317 0.10051 0.0
C796 C 0.36109 0.97951 0.16045 0.0
C797 C 0.3971 0.95483 0.07745 0.0
C798 C 0.26057 0.94249 0.23903 0.0
C799 C 0.27685 0.94792 0.21542 0.0
C800 C 0.30197 0.9079 0.16312 0.0
C801 C 0.37184 0.96691 0.11523 0.0
C802 C 0.35177 0.95453 0.1393 0.0
C803 C 0.28836 0.92399 0.20656 0.0
C804 C 0.31057 0.93355 0.18367 0.0
H805 H 0.40943 0.04192 0.07735 0.0
H806 H 0.37763 0.02152 0.11717 0.0
H807 H 0.31424 0.89854 0.12497 0.0
H808 H 0.26156 0.86472 0.25598 0.0
H809 H 0.28973 0.87415 0.21426 0.0
C810 C 0.41683 0.9985 0.91132 0.0
C811 C 0.43216 0.02267 0.93295 0.0
C812 C 0.41301 0.01168 0.88775 0.0
C813 C 0.4033 0.08571 0.86 0.0
H814 H 0.41572 0.04485 0.79609 0.0
C815 C 0.3717 0.11899 0.75703 0.0
C816 C 0.35351 0.08779 0.74022 0.0
C817 C 0.38476 0.11591 0.78123 0.0
C818 C 0.41206 0.05646 0.81379 0.0
H819 H 0.45645 0.07992 0.94663 0.0
H820 H 0.44979 0.10299 0.90521 0.0
H821 H 0.43481 0.0313 0.83678 0.0
H822 H 0.3326 0.02867 0.73608 0.0
H823 H 0.35465 0.02324 0.77813 0.0
H824 H 0.37969 0.11015 0.83681 0.0
C825 C 0.44049 0.07377 0.90667 0.0
C826 C 0.42302 0.04872 0.83706 0.0
C827 C 0.44446 0.06057 0.93032 0.0
C828 C 0.34698 0.0533 0.74848 0.0
C829 C 0.35984 0.05023 0.77249 0.0
C830 C 0.39231 0.09351 0.8366 0.0
C831 C 0.42441 0.04936 0.88522 0.0
C832 C 0.41776 0.0623 0.86048 0.0
C833 C 0.37972 0.0816 0.78883 0.0
C834 C 0.39555 0.07793 0.81336 0.0
H835 H 0.40708 0.96916 0.91266 0.0
H836 H 0.40004 0.99206 0.87168 0.0
H837 H 0.39879 0.09646 0.87777 0.0
H838 H 0.37722 0.14595 0.75106 0.0
H839 H 0.39991 0.14051 0.79354 0.0
C840 C -0.00294 0.41885 0.91099 0.0
C841 C 0.97483 0.4156 0.93118 0.0
C842 C 0.9822 0.4042 0.88647 0.0
C843 C 0.90425 0.32638 0.85749 0.0
H844 H 0.94014 0.37483 0.793 0.0
C845 C 0.90693 0.25602 0.76178 0.0
C846 C 0.89666 0.26667 0.7393 0.0
C847 C 0.90739 0.27241 0.78554 0.0
C848 C 0.92948 0.36112 0.81087 0.0
H849 H 0.92009 0.3946 0.94207 0.0
H850 H 0.89394 0.36843 0.89919 0.0
H851 H 0.96037 0.4113 0.83363 0.0
H852 H 0.87838 0.30189 0.72351 0.0
H853 H 0.88004 0.33136 0.76513 0.0
H854 H 0.87508 0.27581 0.83481 0.0
C855 C 0.92279 0.38308 0.90216 0.0
C856 C 0.94118 0.3819 0.83401 0.0
C857 C 0.93773 0.39838 0.92653 0.0
C858 C 0.8856 0.29279 0.74082 0.0
C859 C 0.88681 0.30978 0.76448 0.0
C860 C 0.89307 0.30548 0.83437 0.0
C861 C 0.94488 0.38527 0.88209 0.0
C862 C 0.9291 0.36456 0.85749 0.0
C863 C 0.89854 0.30033 0.7869 0.0
C864 C 0.90606 0.32264 0.81095 0.0
H865 H 0.02571 0.43156 0.91442 0.0
H866 H -0.00031 0.40578 0.87132 0.0
H867 H 0.89488 0.3124 0.87544 0.0
H868 H 0.91595 0.2362 0.76079 0.0
H869 H 0.91688 0.26503 0.8026 0.0
C870 C 0.74704 0.68936 0.75536 0.0
C871 C 0.74632 0.66088 0.74017 0.0
C872 C 0.72962 0.68141 0.77881 0.0
C873 C 0.68927 0.60928 0.82796 0.0
H874 H 0.63095 0.65344 0.84097 0.0
C875 C 0.59008 0.56233 0.91064 0.0
C876 C 0.59484 0.59172 0.92689 0.0
C877 C 0.60585 0.56956 0.88656 0.0
C878 C 0.64716 0.64094 0.83758 0.0
H879 H 0.72909 0.60238 0.73848 0.0
H880 H 0.69857 0.58857 0.77888 0.0
H881 H 0.66789 0.67068 0.80316 0.0
H882 H 0.6175 0.65109 0.93045 0.0
H883 H 0.64418 0.66363 0.88834 0.0
H884 H 0.66834 0.57942 0.86237 0.0
C885 C 0.71241 0.61697 0.77288 0.0
C886 C 0.66857 0.65106 0.81607 0.0
C887 C 0.72967 0.62486 0.74955 0.0
C888 C 0.6135 0.628 0.91816 0.0
C889 C 0.62867 0.63515 0.89405 0.0
C890 C 0.66771 0.59902 0.84939 0.0
C891 C 0.71144 0.64493 0.78752 0.0
C892 C 0.68995 0.63541 0.81104 0.0
C893 C 0.62598 0.60617 0.87833 0.0
C894 C 0.64652 0.61483 0.85446 0.0
H895 H 0.75973 0.71739 0.74866 0.0
H896 H 0.72987 0.7037 0.78989 0.0
H897 H 0.70574 0.59703 0.82483 0.0
H898 H 0.5761 0.53418 0.91716 0.0
H899 H 0.60316 0.54669 0.87469 0.0
C900 C 0.7253 0.75511 0.41502 0.0
C901 C 0.69748 0.76203 0.40892 0.0
C902 C 0.73464 0.75348 0.4406 0.0
C903 C 0.69719 0.729 0.50335 0.0
H904 H 0.79603 0.77936 0.52882 0.0
C905 C 0.73091 0.70374 0.60544 0.0
C906 C 0.7619 0.70155 0.60901 0.0
C907 C 0.72517 0.7179 0.5829 0.0
C908 C 0.76831 0.76473 0.522 0.0
H909 H 0.65781 0.77292 0.42497 0.0
H910 H 0.67363 0.76899 0.46999 0.0
H911 H 0.7817 0.79089 0.48556 0.0
H912 H 0.81175 0.71313 0.59239 0.0
H913 H 0.80099 0.73583 0.55228 0.0
H914 H 0.68362 0.70096 0.53874 0.0
C915 C 0.68832 0.76525 0.45476 0.0
C916 C 0.76014 0.77161 0.49727 0.0
C917 C 0.67933 0.76753 0.42906 0.0
C918 C 0.78775 0.71488 0.59009 0.0
C919 C 0.78155 0.72805 0.56715 0.0
C920 C 0.70537 0.72155 0.52784 0.0
C921 C 0.71605 0.75816 0.46071 0.0
C922 C 0.72453 0.75357 0.48767 0.0
C923 C 0.74976 0.72901 0.56299 0.0
C924 C 0.74109 0.73907 0.5375 0.0
H925 H 0.73995 0.75086 0.4 0.0
H926 H 0.75582 0.74754 0.44465 0.0
H927 H 0.66957 0.71431 0.49623 0.0
H928 H 0.7108 0.69393 0.61997 0.0
H929 H 0.70099 0.71931 0.58093 0.0
C930 C 0.2913 0.96997 0.40635 0.0
C931 C 0.25684 0.94473 0.39643 0.0
C932 C 0.29606 0.98543 0.43113 0.0
C933 C 0.25903 0.01775 0.47783 0.0
H934 H 0.31925 0.00434 0.52745 0.0
C935 C 0.28996 0.07722 0.58393 0.0
C936 C 0.32377 0.08669 0.59439 0.0
C937 C 0.27978 0.06189 0.55884 0.0
C938 C 0.30281 0.00886 0.51372 0.0
H939 H 0.20018 0.91609 0.40391 0.0
H940 H 0.20854 0.94444 0.44743 0.0
H941 H 0.30361 0.97085 0.48602 0.0
H942 H 0.37466 0.09126 0.5866 0.0
H943 H 0.35786 0.06662 0.5425 0.0
H944 H 0.2594 0.05698 0.50519 0.0
C945 C 0.23174 0.95151 0.43612 0.0
C946 C 0.29357 0.98932 0.49017 0.0
C947 C 0.22703 0.93517 0.4115 0.0
C948 C 0.34836 0.08388 0.57887 0.0
C949 C 0.33852 0.06932 0.55378 0.0
C950 C 0.2687 0.03782 0.5014 0.0
C951 C 0.26633 0.97667 0.44604 0.0
C952 C 0.27212 0.99404 0.47193 0.0
C953 C 0.30351 0.05629 0.54395 0.0
C954 C 0.29138 0.03414 0.51935 0.0
H955 H 0.31454 0.97774 0.3949 0.0
H956 H 0.32294 0.00485 0.43849 0.0
H957 H 0.24257 0.02184 0.46384 0.0
H958 H 0.2705 0.07887 0.59576 0.0
H959 H 0.25267 0.05224 0.5518 0.0
C960 C 0.9234 0.24892 0.57832 0.0
C961 C 0.94518 0.2629 0.60086 0.0
C962 C 0.9389 0.25392 0.55424 0.0
C963 C 0.02442 0.3136 0.52247 0.0
H964 H 0.98241 0.23791 0.46779 0.0
C965 C 0.09119 0.32766 0.42451 0.0
C966 C 0.0681 0.31983 0.40291 0.0
C967 C 0.07737 0.31896 0.44918 0.0
C968 C 0.99438 0.25929 0.48292 0.0
H969 H 0.00021 0.29189 0.61592 0.0
H970 H 0.02688 0.29968 0.57434 0.0
H971 H 0.95508 0.22565 0.50982 0.0
H972 H 0.01241 0.29644 0.39024 0.0
H973 H 0.98866 0.28128 0.43296 0.0
H974 H 0.0637 0.34718 0.49554 0.0
C975 C -0.00202 0.28585 0.57501 0.0
C976 C 0.97863 0.25236 0.50691 0.0
C977 C 0.9826 0.2812 0.59891 0.0
C978 C 0.03104 0.30293 0.40644 0.0
C979 C 0.0173 0.29391 0.43091 0.0
C980 C 0.04029 0.32039 0.49857 0.0
C981 C 0.97642 0.27274 0.55234 0.0
C982 C 0.99331 0.27956 0.52691 0.0
C983 C 0.04025 0.30189 0.45254 0.0
C984 C 0.02521 0.29347 0.47849 0.0
H985 H 0.89451 0.23472 0.57925 0.0
H986 H 0.92153 0.24375 0.5371 0.0
H987 H 0.03611 0.33542 0.5373 0.0
H988 H 0.11984 0.34065 0.42239 0.0
H989 H 0.09563 0.32532 0.4656 0.0
loop_
_geom_bond_atom_site_label_1
_geom_bond_atom_site_label_2
_geom_bond_distance
_geom_bond_site_symmetry_2
_ccdc_geom_bond_type
Zn0 O6 1.963 1_554 S
Zn0 O7 1.986 . S
Zn0 O11 2.030 . S
Zn0 O16 1.944 1_554 S
Zn1 O8 1.969 . S
Zn1 O14 1.969 . S
Zn1 O15 1.965 1_554 S
Zn1 O17 2.027 . S
C2 O3 1.229 . S
C2 O11 1.058 1_556 S
O3 C2 1.229 . S
C4 O5 1.229 . S
C4 O17 1.069 . S
O5 C4 1.229 . S
O6 Zn0 1.963 1_556 S
O6 C9 1.267 1_556 S
O7 Zn0 1.986 . S
O7 C18 1.260 . S
O8 Zn1 1.969 . S
O8 C18 1.258 1_655 S
C9 O6 1.267 1_554 S
C9 O10 1.228 . S
O10 C9 1.228 . S
O11 Zn0 2.030 . S
O11 C2 1.058 1_554 S
C12 O13 1.228 1_554 S
C12 O14 1.267 . S
O13 C12 1.228 1_556 S
O14 Zn1 1.969 . S
O14 C12 1.267 . S
O15 Zn1 1.965 1_556 S
O15 C19 1.260 1_655 S
O16 Zn0 1.944 1_556 S
O16 C19 1.258 . S
O17 Zn1 2.027 . S
O17 C4 1.069 . S
C18 O7 1.260 . S
C18 O8 1.258 1_455 S
C19 O15 1.260 1_455 S
C19 O16 1.258 . S
Zn20 O26 1.969 . S
Zn20 O27 1.965 1_554 S
Zn20 O31 2.024 1_554 S
Zn20 O36 1.969 . S
Zn21 O28 1.969 . S
Zn21 O34 1.969 . S
Zn21 O35 1.965 1_556 S
Zn21 O37 2.024 1_556 S
C22 O23 1.229 . S
C22 O31 1.058 1_554 S
O23 C22 1.229 . S
C24 O25 1.229 . S
C24 O37 1.058 1_556 S
O25 C24 1.229 . S
O26 Zn20 1.969 . S
O26 C29 1.282 . S
O27 Zn20 1.965 1_556 S
O27 C38 1.260 . S
O28 Zn21 1.969 . S
O28 C38 1.258 . S
C29 O26 1.282 . S
C29 O30 1.211 1_554 S
O30 C29 1.211 1_556 S
O31 Zn20 2.024 1_556 S
O31 C22 1.058 1_556 S
C32 O33 1.228 . S
C32 O34 1.267 1_554 S
O33 C32 1.228 . S
O34 Zn21 1.969 . S
O34 C32 1.267 1_556 S
O35 Zn21 1.965 1_554 S
O35 C39 1.260 . S
O36 Zn20 1.969 . S
O36 C39 1.258 . S
O37 Zn21 2.024 1_554 S
O37 C24 1.058 1_554 S
C38 O27 1.260 . S
C38 O28 1.258 . S
C39 O35 1.260 . S
C39 O36 1.258 . S
Zn40 O46 1.969 . S
Zn40 O47 1.965 1_556 S
Zn40 O51 2.024 1_556 S
Zn40 O56 1.969 . S
Zn41 O48 1.969 . S
Zn41 O54 1.969 . S
Zn41 O55 1.965 1_554 S
Zn41 O57 2.024 . S
C42 O43 1.229 . S
C42 O51 1.058 1_556 S
O43 C42 1.229 . S
C44 O45 1.229 . S
C44 O57 1.058 . S
O45 C44 1.229 . S
O46 Zn40 1.969 . S
O46 C49 1.267 1_556 S
O47 Zn40 1.965 1_554 S
O47 C58 1.254 1_565 S
O48 Zn41 1.969 . S
O48 C58 1.272 . S
C49 O46 1.267 1_554 S
C49 O50 1.228 . S
O50 C49 1.228 . S
O51 Zn40 2.024 1_554 S
O51 C42 1.058 1_554 S
C52 O53 1.228 1_554 S
C52 O54 1.267 . S
O53 C52 1.228 1_556 S
O54 Zn41 1.969 . S
O54 C52 1.267 . S
O55 Zn41 1.965 1_556 S
O55 C59 1.260 . S
O56 Zn40 1.969 . S
O56 C59 1.258 1_565 S
O57 Zn41 2.024 . S
O57 C44 1.058 . S
C58 O47 1.254 1_545 S
C58 O48 1.272 . S
C59 O55 1.260 . S
C59 O56 1.258 1_545 S
Zn60 O66 1.969 . S
Zn60 O67 1.965 . S
Zn60 O71 2.024 . S
Zn60 O76 1.969 . S
Zn61 O68 1.969 . S
Zn61 O74 1.969 . S
Zn61 O75 1.965 . S
Zn61 O77 2.024 . S
C62 O63 1.229 . S
C62 O71 1.058 . S
O63 C62 1.229 . S
C64 O65 1.229 . S
C64 O77 1.058 . S
O65 C64 1.229 . S
O66 Zn60 1.969 . S
O66 C69 1.267 . S
O67 Zn60 1.965 . S
O67 C78 1.260 . S
O68 Zn61 1.969 . S
O68 C78 1.258 . S
C69 O66 1.267 . S
C69 O70 1.228 . S
O70 C69 1.228 . S
O71 Zn60 2.024 . S
O71 C62 1.058 . S
C72 O73 1.228 . S
C72 O74 1.267 . S
O73 C72 1.228 . S
O74 Zn61 1.969 . S
O74 C72 1.267 . S
O75 Zn61 1.965 . S
O75 C79 1.260 . S
O76 Zn60 1.969 . S
O76 C79 1.258 . S
O77 Zn61 2.024 . S
O77 C64 1.058 . S
C78 O67 1.260 . S
C78 O68 1.258 . S
C79 O75 1.260 . S
C79 O76 1.258 . S
Zn80 O86 1.969 . S
Zn80 O87 1.965 . S
Zn80 O91 2.024 . S
Zn80 O96 1.969 . S
Zn81 O88 1.969 . S
Zn81 O94 1.969 . S
Zn81 O95 1.965 . S
Zn81 O97 2.024 . S
C82 O83 1.229 . S
C82 O91 1.058 . S
O83 C82 1.229 . S
C84 O85 1.229 . S
C84 O97 1.058 . S
O85 C84 1.229 . S
O86 Zn80 1.969 . S
O86 C89 1.267 . S
O87 Zn80 1.965 . S
O87 C98 1.260 . S
O88 Zn81 1.969 . S
O88 C98 1.258 . S
C89 O86 1.267 . S
C89 O90 1.228 . S
O90 C89 1.228 . S
O91 Zn80 2.024 . S
O91 C82 1.058 . S
C92 O93 1.228 . S
C92 O94 1.267 . S
O93 C92 1.228 . S
O94 Zn81 1.969 . S
O94 C92 1.267 . S
O95 Zn81 1.965 . S
O95 C99 1.260 . S
O96 Zn80 1.969 . S
O96 C99 1.258 . S
O97 Zn81 2.024 . S
O97 C84 1.058 . S
C98 O87 1.260 . S
C98 O88 1.258 . S
C99 O95 1.260 . S
C99 O96 1.258 . S
Zn100 O106 1.969 . S
Zn100 O107 1.965 . S
Zn100 O111 2.024 . S
Zn100 O116 1.969 . S
Zn101 O108 1.969 . S
Zn101 O114 1.969 . S
Zn101 O115 1.965 . S
Zn101 O117 2.024 . S
C102 O103 1.229 . S
C102 O111 1.058 . S
O103 C102 1.229 . S
C104 O105 1.229 . S
C104 O117 1.058 . S
O105 C104 1.229 . S
O106 Zn100 1.969 . S
O106 C109 1.267 . S
O107 Zn100 1.965 . S
O107 C118 1.260 . S
O108 Zn101 1.969 . S
O108 C118 1.258 . S
C109 O106 1.267 . S
C109 O110 1.228 . S
O110 C109 1.228 . S
O111 Zn100 2.024 . S
O111 C102 1.058 . S
C112 O113 1.228 . S
C112 O114 1.267 . S
O113 C112 1.228 . S
O114 Zn101 1.969 . S
O114 C112 1.267 . S
O115 Zn101 1.965 . S
O115 C119 1.260 . S
O116 Zn100 1.969 . S
O116 C119 1.258 . S
O117 Zn101 2.024 . S
O117 C104 1.058 . S
C118 O107 1.260 . S
C118 O108 1.258 . S
C119 O115 1.260 . S
C119 O116 1.258 . S
Zn120 O126 1.969 . S
Zn120 O127 1.965 . S
Zn120 O131 2.024 . S
Zn120 O136 1.969 . S
Zn121 O128 1.969 . S
Zn121 O134 1.969 . S
Zn121 O135 1.965 . S
Zn121 O137 2.024 . S
C122 O123 1.229 . S
C122 O131 1.058 . S
O123 C122 1.229 . S
C124 O125 1.229 . S
C124 O137 1.058 . S
O125 C124 1.229 . S
O126 Zn120 1.969 . S
O126 C129 1.267 . S
O127 Zn120 1.965 . S
O127 C138 1.260 . S
O128 Zn121 1.969 . S
O128 C138 1.258 . S
C129 O126 1.267 . S
C129 O130 1.228 . S
O130 C129 1.228 . S
O131 Zn120 2.024 . S
O131 C122 1.058 . S
C132 O133 1.228 . S
C132 O134 1.267 . S
O133 C132 1.228 . S
O134 Zn121 1.969 . S
O134 C132 1.267 . S
O135 Zn121 1.965 . S
O135 C139 1.260 . S
O136 Zn120 1.969 . S
O136 C139 1.258 . S
O137 Zn121 2.024 . S
O137 C124 1.058 . S
C138 O127 1.260 . S
C138 O128 1.258 . S
C139 O135 1.260 . S
C139 O136 1.258 . S
Zn140 O146 1.969 . S
Zn140 O147 1.965 . S
Zn140 O151 2.024 . S
Zn140 O156 1.969 . S
Zn141 O148 1.969 . S
Zn141 O154 1.969 . S
Zn141 O155 1.965 . S
Zn141 O157 2.024 . S
C142 O143 1.229 . S
C142 O151 1.058 . S
O143 C142 1.229 . S
C144 O145 1.229 . S
C144 O157 1.058 . S
O145 C144 1.229 . S
O146 Zn140 1.969 . S
O146 C149 1.267 . S
O147 Zn140 1.965 . S
O147 C158 1.260 . S
O148 Zn141 1.969 . S
O148 C158 1.258 . S
C149 O146 1.267 . S
C149 O150 1.228 . S
O150 C149 1.228 . S
O151 Zn140 2.024 . S
O151 C142 1.058 . S
C152 O153 1.228 . S
C152 O154 1.267 . S
O153 C152 1.228 . S
O154 Zn141 1.969 . S
O154 C152 1.267 . S
O155 Zn141 1.965 . S
O155 C159 1.260 . S
O156 Zn140 1.969 . S
O156 C159 1.258 . S
O157 Zn141 2.024 . S
O157 C144 1.058 . S
C158 O147 1.260 . S
C158 O148 1.258 . S
C159 O155 1.260 . S
C159 O156 1.258 . S
Zn160 O166 1.969 . S
Zn160 O167 1.965 . S
Zn160 O171 2.024 . S
Zn160 O176 1.969 . S
Zn161 O168 1.969 . S
Zn161 O174 1.969 . S
Zn161 O175 1.965 . S
Zn161 O177 2.024 . S
C162 O163 1.229 . S
C162 O171 1.058 . S
O163 C162 1.229 . S
C164 O165 1.229 . S
C164 O177 1.058 . S
O165 C164 1.229 . S
O166 Zn160 1.969 . S
O166 C169 1.267 . S
O167 Zn160 1.965 . S
O167 C178 1.260 . S
O168 Zn161 1.969 . S
O168 C178 1.258 . S
C169 O166 1.267 . S
C169 O170 1.228 . S
O170 C169 1.228 . S
O171 Zn160 2.024 . S
O171 C162 1.058 . S
C172 O173 1.228 . S
C172 O174 1.267 . S
O173 C172 1.228 . S
O174 Zn161 1.969 . S
O174 C172 1.267 . S
O175 Zn161 1.965 . S
O175 C179 1.260 . S
O176 Zn160 1.969 . S
O176 C179 1.258 . S
O177 Zn161 2.024 . S
O177 C164 1.058 . S
C178 O167 1.260 . S
C178 O168 1.258 . S
C179 O175 1.260 . S
C179 O176 1.258 . S
C180 C181 1.349 1_556 S
C180 C182 1.327 . S
C180 H205 0.950 . S
C181 C180 1.349 1_554 S
C181 C197 1.349 . S
C182 C180 1.327 . S
C182 C201 1.429 1_556 S
C182 H206 0.950 . S
C183 C200 1.574 . S
C183 C202 1.368 . S
C183 H207 0.949 . S
H184 C188 0.949 . S
C185 C186 1.349 . S
C185 C187 1.327 . S
C185 H208 0.950 . S
C186 C185 1.349 . S
C186 C198 1.349 1_554 S
C187 C185 1.327 . S
C187 C203 1.429 . S
C187 H209 0.950 . S
C188 H184 0.949 . S
C188 C196 1.574 . S
C188 C204 1.368 1_556 S
H189 C197 0.950 . S
H190 C195 0.950 . S
H191 C196 0.949 . S
H192 C198 0.950 . S
H193 C199 0.950 . S
H194 C200 0.949 . S
C195 H190 0.950 . S
C195 C197 1.327 . S
C195 C201 1.429 . S
C196 C188 1.574 . S
C196 H191 0.949 . S
C196 C202 1.368 1_556 S
C197 C181 1.349 . S
C197 H189 0.950 . S
C197 C195 1.327 . S
C198 C186 1.349 1_556 S
C198 H192 0.950 . S
C198 C199 1.327 . S
C199 H193 0.950 . S
C199 C198 1.327 . S
C199 C203 1.429 1_556 S
C200 C183 1.574 . S
C200 H194 0.949 . S
C200 C204 1.368 . S
C201 C182 1.429 1_554 S
C201 C195 1.429 . S
C201 C202 1.523 . S
C202 C183 1.368 . S
C202 C196 1.368 1_554 S
C202 C201 1.523 . S
C203 C187 1.429 . S
C203 C199 1.429 1_554 S
C203 C204 1.523 . S
C204 C188 1.368 1_554 S
C204 C200 1.368 . S
C204 C203 1.523 . S
H205 C180 0.950 . S
H206 C182 0.950 . S
H207 C183 0.949 . S
H208 C185 0.950 . S
H209 C187 0.950 . S
C210 C211 1.349 1_554 S
C210 C212 1.327 . S
C210 H235 0.950 . S
C211 C210 1.349 1_556 S
C211 C227 1.349 . S
C212 C210 1.327 . S
C212 C231 1.429 1_554 S
C212 H236 0.950 . S
C213 C230 1.574 . S
C213 C232 1.368 . S
C213 H237 0.949 . S
H214 C218 0.949 . S
C215 C216 1.349 . S
C215 C217 1.327 . S
C215 H238 0.950 . S
C216 C215 1.349 . S
C216 C228 1.349 1_556 S
C217 C215 1.327 . S
C217 C233 1.429 . S
C217 H239 0.950 . S
C218 H214 0.949 . S
C218 C226 1.574 . S
C218 C234 1.368 1_554 S
H219 C227 0.950 . S
H220 C225 0.950 . S
H221 C226 0.949 . S
H222 C228 0.950 . S
H223 C229 0.950 . S
H224 C230 0.949 . S
C225 H220 0.950 . S
C225 C227 1.327 . S
C225 C231 1.429 . S
C226 C218 1.574 . S
C226 H221 0.949 . S
C226 C232 1.368 1_554 S
C227 C211 1.349 . S
C227 H219 0.950 . S
C227 C225 1.327 . S
C228 C216 1.349 1_554 S
C228 H222 0.950 . S
C228 C229 1.327 . S
C229 H223 0.950 . S
C229 C228 1.327 . S
C229 C233 1.429 1_554 S
C230 C213 1.574 . S
C230 H224 0.949 . S
C230 C234 1.368 . S
C231 C212 1.429 1_556 S
C231 C225 1.429 . S
C231 C232 1.523 . S
C232 C213 1.368 . S
C232 C226 1.368 1_556 S
C232 C231 1.523 . S
C233 C217 1.429 . S
C233 C229 1.429 1_556 S
C233 C234 1.523 . S
C234 C218 1.368 1_556 S
C234 C230 1.368 . S
C234 C233 1.523 . S
H235 C210 0.950 . S
H236 C212 0.950 . S
H237 C213 0.949 . S
H238 C215 0.950 . S
H239 C217 0.950 . S
C240 C241 1.349 . S
C240 C242 1.327 . S
C240 H265 0.950 . S
C241 C240 1.349 . S
C241 C257 1.349 1_554 S
C242 C240 1.327 . S
C242 C261 1.429 . S
C242 H266 0.950 . S
C243 C260 1.574 . S
C243 C262 1.368 1_556 S
C243 H267 0.949 . S
H244 C248 0.949 . S
C245 C246 1.349 . S
C245 C247 1.327 . S
C245 H268 0.950 . S
C246 C245 1.349 . S
C246 C258 1.349 1_556 S
C247 C245 1.327 . S
C247 C263 1.449 . S
C247 H269 0.950 . S
C248 H244 0.949 . S
C248 C256 1.574 . S
C248 C264 1.368 . S
H249 C257 0.950 . S
H250 C255 0.950 . S
H251 C256 0.949 . S
H252 C258 0.950 . S
H253 C259 0.950 . S
H254 C260 0.949 . S
C255 H250 0.950 . S
C255 C257 1.327 . S
C255 C261 1.429 1_556 S
C256 C248 1.574 . S
C256 H251 0.949 . S
C256 C262 1.368 . S
C257 C241 1.349 1_556 S
C257 H249 0.950 . S
C257 C255 1.327 . S
C258 C246 1.349 1_554 S
C258 H252 0.950 . S
C258 C259 1.327 . S
C259 H253 0.950 . S
C259 C258 1.327 . S
C259 C263 1.408 1_554 S
C260 C243 1.574 . S
C260 H254 0.949 . S
C260 C264 1.369 1_556 S
C261 C242 1.429 . S
C261 C255 1.429 1_554 S
C261 C262 1.523 . S
C262 C243 1.368 1_554 S
C262 C256 1.368 . S
C262 C261 1.523 . S
C263 C247 1.449 . S
C263 C259 1.408 1_556 S
C263 C264 1.524 1_556 S
C264 C248 1.368 . S
C264 C260 1.369 1_554 S
C264 C263 1.524 1_554 S
H265 C240 0.950 . S
H266 C242 0.950 . S
H267 C243 0.949 . S
H268 C245 0.950 . S
H269 C247 0.950 . S
C270 C271 1.349 1_556 S
C270 C272 1.327 . S
C270 H295 0.950 . S
C271 C270 1.349 1_554 S
C271 C287 1.349 . S
C272 C270 1.327 . S
C272 C291 1.429 1_556 S
C272 H296 0.950 . S
C273 C290 1.574 . S
C273 C292 1.368 . S
C273 H297 0.949 . S
H274 C278 0.949 . S
C275 C276 1.349 . S
C275 C277 1.327 . S
C275 H298 0.950 . S
C276 C275 1.349 . S
C276 C288 1.349 1_554 S
C277 C275 1.327 . S
C277 C293 1.429 . S
C277 H299 0.950 . S
C278 H274 0.949 . S
C278 C286 1.574 . S
C278 C294 1.368 1_556 S
H279 C287 0.950 . S
H280 C285 0.950 . S
H281 C286 0.949 . S
H282 C288 0.950 . S
H283 C289 0.950 . S
H284 C290 0.949 . S
C285 H280 0.950 . S
C285 C287 1.327 . S
C285 C291 1.429 . S
C286 C278 1.574 . S
C286 H281 0.949 . S
C286 C292 1.368 1_556 S
C287 C271 1.349 . S
C287 H279 0.950 . S
C287 C285 1.327 . S
C288 C276 1.349 1_556 S
C288 H282 0.950 . S
C288 C289 1.327 . S
C289 H283 0.950 . S
C289 C288 1.327 . S
C289 C293 1.429 1_556 S
C290 C273 1.574 . S
C290 H284 0.949 . S
C290 C294 1.368 . S
C291 C272 1.429 1_554 S
C291 C285 1.429 . S
C291 C292 1.523 . S
C292 C273 1.368 . S
C292 C286 1.368 1_554 S
C292 C291 1.523 . S
C293 C277 1.429 . S
C293 C289 1.429 1_554 S
C293 C294 1.523 . S
C294 C278 1.368 1_554 S
C294 C290 1.368 . S
C294 C293 1.523 . S
H295 C270 0.950 . S
H296 C272 0.950 . S
H297 C273 0.949 . S
H298 C275 0.950 . S
H299 C277 0.950 . S
C300 C301 1.349 . S
C300 C302 1.327 . S
C300 H325 0.950 . S
C301 C300 1.349 . S
C301 C317 1.349 1_554 S
C302 C300 1.327 . S
C302 C321 1.429 . S
C302 H326 0.950 . S
C303 C320 1.574 . S
C303 C322 1.368 1_556 S
C303 H327 0.949 . S
H304 C308 0.949 . S
C305 C306 1.349 1_556 S
C305 C307 1.327 . S
C305 H328 0.950 . S
C306 C305 1.349 1_554 S
C306 C318 1.349 . S
C307 C305 1.327 . S
C307 C323 1.429 1_556 S
C307 H329 0.950 . S
C308 H304 0.949 . S
C308 C316 1.574 . S
C308 C324 1.368 . S
H309 C317 0.950 . S
H310 C315 0.950 . S
H311 C316 0.949 . S
H312 C318 0.950 . S
H313 C319 0.950 . S
H314 C320 0.949 . S
C315 H310 0.950 . S
C315 C317 1.327 . S
C315 C321 1.429 1_556 S
C316 C308 1.574 . S
C316 H311 0.949 . S
C316 C322 1.368 . S
C317 C301 1.349 1_556 S
C317 H309 0.950 . S
C317 C315 1.327 . S
C318 C306 1.349 . S
C318 H312 0.950 . S
C318 C319 1.327 . S
C319 H313 0.950 . S
C319 C318 1.327 . S
C319 C323 1.429 . S
C320 C303 1.574 . S
C320 H314 0.949 . S
C320 C324 1.368 1_556 S
C321 C302 1.429 . S
C321 C315 1.429 1_554 S
C321 C322 1.523 . S
C322 C303 1.368 1_554 S
C322 C316 1.368 . S
C322 C321 1.523 . S
C323 C307 1.429 1_554 S
C323 C319 1.429 . S
C323 C324 1.523 . S
C324 C308 1.368 . S
C324 C320 1.368 1_554 S
C324 C323 1.523 . S
H325 C300 0.950 . S
H326 C302 0.950 . S
H327 C303 0.949 . S
H328 C305 0.950 . S
H329 C307 0.950 . S
C330 C331 1.349 . S
C330 C332 1.327 . S
C330 H355 0.950 . S
C331 C330 1.349 . S
C331 C347 1.349 1_554 S
C332 C330 1.327 . S
C332 C351 1.429 . S
C332 H356 0.950 . S
C333 C350 1.574 . S
C333 C352 1.368 1_556 S
C333 H357 0.949 . S
H334 C338 0.949 . S
C335 C336 1.349 1_556 S
C335 C337 1.327 . S
C335 H358 0.950 . S
C336 C335 1.349 1_554 S
C336 C348 1.349 . S
C337 C335 1.327 . S
C337 C353 1.429 1_556 S
C337 H359 0.950 . S
C338 H334 0.949 . S
C338 C346 1.574 . S
C338 C354 1.368 . S
H339 C347 0.950 . S
H340 C345 0.950 . S
H341 C346 0.949 . S
H342 C348 0.950 . S
H343 C349 0.950 . S
H344 C350 0.949 . S
C345 H340 0.950 . S
C345 C347 1.327 . S
C345 C351 1.429 1_556 S
C346 C338 1.574 . S
C346 H341 0.949 . S
C346 C352 1.368 . S
C347 C331 1.349 1_556 S
C347 H339 0.950 . S
C347 C345 1.327 . S
C348 C336 1.349 . S
C348 H342 0.950 . S
C348 C349 1.327 . S
C349 H343 0.950 . S
C349 C348 1.327 . S
C349 C353 1.429 . S
C350 C333 1.574 . S
C350 H344 0.949 . S
C350 C354 1.368 1_556 S
C351 C332 1.429 . S
C351 C345 1.429 1_554 S
C351 C352 1.523 . S
C352 C333 1.368 1_554 S
C352 C346 1.368 . S
C352 C351 1.523 . S
C353 C337 1.429 1_554 S
C353 C349 1.429 . S
C353 C354 1.523 . S
C354 C338 1.368 . S
C354 C350 1.368 1_554 S
C354 C353 1.523 . S
H355 C330 0.950 . S
H356 C332 0.950 . S
H357 C333 0.949 . S
H358 C335 0.950 . S
H359 C337 0.950 . S
C360 C361 1.349 . S
C360 C362 1.327 . S
C360 H385 0.950 . S
C361 C360 1.349 . S
C361 C377 1.349 . S
C362 C360 1.327 . S
C362 C381 1.429 . S
C362 H386 0.950 . S
C363 C380 1.574 . S
C363 C382 1.368 . S
C363 H387 0.949 . S
H364 C368 0.949 . S
C365 C366 1.349 . S
C365 C367 1.327 . S
C365 H388 0.950 . S
C366 C365 1.349 . S
C366 C378 1.349 . S
C367 C365 1.327 . S
C367 C383 1.429 . S
C367 H389 0.950 . S
C368 H364 0.949 . S
C368 C376 1.574 . S
C368 C384 1.368 . S
H369 C377 0.950 . S
H370 C375 0.950 . S
H371 C376 0.949 . S
H372 C378 0.950 . S
H373 C379 0.950 . S
H374 C380 0.953 . S
C375 H370 0.950 . S
C375 C377 1.327 . S
C375 C381 1.429 . S
C376 C368 1.574 . S
C376 H371 0.949 . S
C376 C382 1.368 . S
C377 C361 1.349 . S
C377 H369 0.950 . S
C377 C375 1.327 . S
C378 C366 1.349 . S
C378 H372 0.950 . S
C378 C379 1.327 . S
C379 H373 0.950 . S
C379 C378 1.327 . S
C379 C383 1.429 . S
C380 C363 1.574 . S
C380 H374 0.953 . S
C380 C384 1.368 . S
C381 C362 1.429 . S
C381 C375 1.429 . S
C381 C382 1.523 . S
C382 C363 1.368 . S
C382 C376 1.368 . S
C382 C381 1.523 . S
C383 C367 1.429 . S
C383 C379 1.429 . S
C383 C384 1.523 1_455 S
C384 C368 1.368 . S
C384 C380 1.368 . S
C384 C383 1.523 1_655 S
H385 C360 0.950 . S
H386 C362 0.950 . S
H387 C363 0.949 . S
H388 C365 0.950 . S
H389 C367 0.950 . S
C390 C391 1.349 . S
C390 C392 1.327 . S
C390 H415 0.950 . S
C391 C390 1.349 . S
C391 C407 1.349 . S
C392 C390 1.327 . S
C392 C411 1.429 . S
C392 H416 0.950 . S
C393 C410 1.574 . S
C393 C412 1.368 . S
C393 H417 0.949 . S
H394 C398 0.949 . S
C395 C396 1.349 . S
C395 C397 1.327 . S
C395 H418 0.950 . S
C396 C395 1.349 . S
C396 C408 1.349 . S
C397 C395 1.327 . S
C397 C413 1.429 . S
C397 H419 0.950 . S
C398 H394 0.949 . S
C398 C406 1.574 . S
C398 C414 1.368 . S
H399 C407 0.950 . S
H400 C405 0.950 . S
H401 C406 0.949 . S
H402 C408 0.950 . S
H403 C409 0.950 . S
H404 C410 0.949 . S
C405 H400 0.950 . S
C405 C407 1.327 . S
C405 C411 1.429 . S
C406 C398 1.574 . S
C406 H401 0.949 . S
C406 C412 1.368 . S
C407 C391 1.349 . S
C407 H399 0.950 . S
C407 C405 1.327 . S
C408 C396 1.349 . S
C408 H402 0.950 . S
C408 C409 1.327 . S
C409 H403 0.950 . S
C409 C408 1.327 . S
C409 C413 1.429 . S
C410 C393 1.574 . S
C410 H404 0.949 . S
C410 C414 1.368 . S
C411 C392 1.429 . S
C411 C405 1.429 . S
C411 C412 1.523 . S
C412 C393 1.368 . S
C412 C406 1.368 . S
C412 C411 1.523 . S
C413 C397 1.429 . S
C413 C409 1.429 . S
C413 C414 1.523 . S
C414 C398 1.368 . S
C414 C410 1.368 . S
C414 C413 1.523 . S
H415 C390 0.950 . S
H416 C392 0.950 . S
H417 C393 0.949 . S
H418 C395 0.950 . S
H419 C397 0.950 . S
C420 C421 1.349 . S
C420 C422 1.327 . S
C420 H445 0.950 1_655 S
C421 C420 1.349 . S
C421 C437 1.349 . S
C422 C420 1.327 . S
C422 C441 1.429 . S
C422 H446 0.950 . S
C423 C440 1.574 . S
C423 C442 1.368 . S
C423 H447 0.949 . S
H424 C428 0.949 . S
C425 C426 1.349 . S
C425 C427 1.327 . S
C425 H448 0.950 . S
C426 C425 1.349 . S
C426 C438 1.349 . S
C427 C425 1.327 . S
C427 C443 1.429 . S
C427 H449 0.950 . S
C428 H424 0.949 . S
C428 C436 1.574 . S
C428 C444 1.368 . S
H429 C437 0.950 . S
H430 C435 0.950 . S
H431 C436 0.949 . S
H432 C438 0.950 . S
H433 C439 0.950 . S
H434 C440 0.949 . S
C435 H430 0.950 . S
C435 C437 1.327 . S
C435 C441 1.429 . S
C436 C428 1.574 . S
C436 H431 0.949 . S
C436 C442 1.368 . S
C437 C421 1.349 . S
C437 H429 0.950 . S
C437 C435 1.327 . S
C438 C426 1.349 . S
C438 H432 0.950 . S
C438 C439 1.327 . S
C439 H433 0.950 . S
C439 C438 1.327 . S
C439 C443 1.429 . S
C440 C423 1.574 . S
C440 H434 0.949 . S
C440 C444 1.368 . S
C441 C422 1.429 . S
C441 C435 1.429 . S
C441 C442 1.523 . S
C442 C423 1.368 . S
C442 C436 1.368 . S
C442 C441 1.523 . S
C443 C427 1.429 . S
C443 C439 1.429 . S
C443 C444 1.523 1_565 S
C444 C428 1.368 . S
C444 C440 1.368 . S
C444 C443 1.523 1_545 S
H445 C420 0.950 1_455 S
H446 C422 0.950 . S
H447 C423 0.949 . S
H448 C425 0.950 . S
H449 C427 0.950 . S
C450 C451 1.349 . S
C450 C452 1.327 . S
C450 H475 0.950 . S
C451 C450 1.349 . S
C451 C467 1.349 . S
C452 C450 1.327 . S
C452 C471 1.429 . S
C452 H476 0.950 . S
C453 C470 1.574 . S
C453 C472 1.368 . S
C453 H477 0.949 . S
H454 C458 0.949 . S
C455 C456 1.349 . S
C455 C457 1.327 . S
C455 H478 0.950 . S
C456 C455 1.349 . S
C456 C468 1.349 . S
C457 C455 1.327 . S
C457 C473 1.429 . S
C457 H479 0.950 . S
C458 H454 0.949 . S
C458 C466 1.574 . S
C458 C474 1.368 . S
H459 C467 0.950 . S
H460 C465 0.950 . S
H461 C466 0.949 . S
H462 C468 0.950 . S
H463 C469 0.950 . S
H464 C470 0.949 . S
C465 H460 0.950 . S
C465 C467 1.327 . S
C465 C471 1.429 . S
C466 C458 1.574 . S
C466 H461 0.949 . S
C466 C472 1.368 . S
C467 C451 1.349 . S
C467 H459 0.950 . S
C467 C465 1.327 . S
C468 C456 1.349 . S
C468 H462 0.950 . S
C468 C469 1.327 . S
C469 H463 0.950 . S
C469 C468 1.327 . S
C469 C473 1.429 . S
C470 C453 1.574 . S
C470 H464 0.949 . S
C470 C474 1.368 . S
C471 C452 1.429 . S
C471 C465 1.429 . S
C471 C472 1.523 . S
C472 C453 1.368 . S
C472 C466 1.368 . S
C472 C471 1.523 . S
C473 C457 1.429 . S
C473 C469 1.429 . S
C473 C474 1.523 . S
C474 C458 1.368 . S
C474 C470 1.368 . S
C474 C473 1.523 . S
H475 C450 0.950 . S
H476 C452 0.950 . S
H477 C453 0.949 . S
H478 C455 0.950 . S
H479 C457 0.950 . S
C480 C481 1.349 . S
C480 C482 1.327 . S
C480 H505 0.950 . S
C481 C480 1.349 . S
C481 C497 1.349 . S
C482 C480 1.327 . S
C482 C501 1.429 . S
C482 H506 0.950 . S
C483 C500 1.574 . S
C483 C502 1.368 . S
C483 H507 0.949 . S
H484 C488 0.949 . S
C485 C486 1.349 . S
C485 C487 1.327 . S
C485 H508 0.950 . S
C486 C485 1.349 . S
C486 C498 1.349 . S
C487 C485 1.327 . S
C487 C503 1.429 . S
C487 H509 0.950 . S
C488 H484 0.949 . S
C488 C496 1.574 . S
C488 C504 1.368 . S
H489 C497 0.950 . S
H490 C495 0.950 . S
H491 C496 0.949 . S
H492 C498 0.950 . S
H493 C499 0.950 . S
H494 C500 0.949 . S
C495 H490 0.950 . S
C495 C497 1.327 . S
C495 C501 1.429 . S
C496 C488 1.574 . S
C496 H491 0.949 . S
C496 C502 1.368 . S
C497 C481 1.349 . S
C497 H489 0.950 . S
C497 C495 1.327 . S
C498 C486 1.349 . S
C498 H492 0.950 . S
C498 C499 1.327 . S
C499 H493 0.950 . S
C499 C498 1.327 . S
C499 C503 1.429 . S
C500 C483 1.574 . S
C500 H494 0.949 . S
C500 C504 1.368 . S
C501 C482 1.429 . S
C501 C495 1.429 . S
C501 C502 1.523 . S
C502 C483 1.368 . S
C502 C496 1.368 . S
C502 C501 1.523 . S
C503 C487 1.429 . S
C503 C499 1.429 . S
C503 C504 1.523 . S
C504 C488 1.368 . S
C504 C500 1.368 . S
C504 C503 1.523 . S
H505 C480 0.950 . S
H506 C482 0.950 . S
H507 C483 0.949 . S
H508 C485 0.950 . S
H509 C487 0.950 . S
C510 C511 1.349 . S
C510 C512 1.327 . S
C510 H535 0.950 . S
C511 C510 1.349 . S
C511 C527 1.349 . S
C512 C510 1.327 . S
C512 C531 1.429 . S
C512 H536 0.950 . S
C513 C530 1.574 . S
C513 C532 1.368 . S
C513 H537 0.949 . S
H514 C518 0.949 . S
C515 C516 1.349 . S
C515 C517 1.327 . S
C515 H538 0.950 . S
C516 C515 1.349 . S
C516 C528 1.349 . S
C517 C515 1.327 . S
C517 C533 1.429 . S
C517 H539 0.950 . S
C518 H514 0.949 . S
C518 C526 1.574 . S
C518 C534 1.368 . S
H519 C527 0.950 . S
H520 C525 0.950 . S
H521 C526 0.949 . S
H522 C528 0.950 . S
H523 C529 0.950 . S
H524 C530 0.949 . S
C525 H520 0.950 . S
C525 C527 1.327 . S
C525 C531 1.429 . S
C526 C518 1.574 . S
C526 H521 0.949 . S
C526 C532 1.368 . S
C527 C511 1.349 . S
C527 H519 0.950 . S
C527 C525 1.327 . S
C528 C516 1.349 . S
C528 H522 0.950 . S
C528 C529 1.327 . S
C529 H523 0.950 . S
C529 C528 1.327 . S
C529 C533 1.429 . S
C530 C513 1.574 . S
C530 H524 0.949 . S
C530 C534 1.368 . S
C531 C512 1.429 . S
C531 C525 1.429 . S
C531 C532 1.523 . S
C532 C513 1.368 . S
C532 C526 1.368 . S
C532 C531 1.523 . S
C533 C517 1.429 . S
C533 C529 1.429 . S
C533 C534 1.523 . S
C534 C518 1.368 . S
C534 C530 1.368 . S
C534 C533 1.523 . S
H535 C510 0.950 . S
H536 C512 0.950 . S
H537 C513 0.949 . S
H538 C515 0.950 . S
H539 C517 0.950 . S
C540 C541 1.349 . S
C540 C542 1.327 . S
C540 H565 0.950 . S
C541 C540 1.349 . S
C541 C557 1.349 . S
C542 C540 1.327 . S
C542 C561 1.429 . S
C542 H566 0.950 . S
C543 C560 1.574 . S
C543 C562 1.368 . S
C543 H567 0.949 . S
H544 C548 0.949 . S
C545 C546 1.349 . S
C545 C547 1.327 . S
C545 H568 0.950 . S
C546 C545 1.349 . S
C546 C558 1.349 . S
C547 C545 1.327 . S
C547 C563 1.429 . S
C547 H569 0.950 . S
C548 H544 0.949 . S
C548 C556 1.574 . S
C548 C564 1.368 . S
H549 C557 0.950 . S
H550 C555 0.950 . S
H551 C556 0.949 . S
H552 C558 0.950 . S
H553 C559 0.950 . S
H554 C560 0.949 . S
C555 H550 0.950 . S
C555 C557 1.327 . S
C555 C561 1.429 . S
C556 C548 1.574 . S
C556 H551 0.949 . S
C556 C562 1.368 . S
C557 C541 1.349 . S
C557 H549 0.950 . S
C557 C555 1.327 . S
C558 C546 1.349 . S
C558 H552 0.950 . S
C558 C559 1.327 . S
C559 H553 0.950 . S
C559 C558 1.327 . S
C559 C563 1.429 . S
C560 C543 1.574 . S
C560 H554 0.949 . S
C560 C564 1.368 . S
C561 C542 1.429 . S
C561 C555 1.429 . S
C561 C562 1.523 . S
C562 C543 1.368 . S
C562 C556 1.368 . S
C562 C561 1.523 . S
C563 C547 1.429 . S
C563 C559 1.429 . S
C563 C564 1.523 . S
C564 C548 1.368 . S
C564 C560 1.368 . S
C564 C563 1.523 . S
H565 C540 0.950 . S
H566 C542 0.950 . S
H567 C543 0.949 . S
H568 C545 0.950 . S
H569 C547 0.950 . S
C570 C571 1.349 . S
C570 C572 1.327 . S
C570 H595 0.950 . S
C571 C570 1.349 . S
C571 C587 1.349 . S
C572 C570 1.327 . S
C572 C591 1.429 . S
C572 H596 0.950 . S
C573 C590 1.574 . S
C573 C592 1.368 . S
C573 H597 0.949 . S
H574 C578 0.949 . S
C575 C576 1.349 . S
C575 C577 1.327 . S
C575 H598 0.950 . S
C576 C575 1.349 . S
C576 C588 1.349 . S
C577 C575 1.327 . S
C577 C593 1.429 . S
C577 H599 0.950 . S
C578 H574 0.949 . S
C578 C586 1.574 . S
C578 C594 1.368 . S
H579 C587 0.950 . S
H580 C585 0.950 . S
H581 C586 0.949 . S
H582 C588 0.950 . S
H583 C589 0.950 . S
H584 C590 0.949 . S
C585 H580 0.950 . S
C585 C587 1.327 . S
C585 C591 1.429 . S
C586 C578 1.574 . S
C586 H581 0.949 . S
C586 C592 1.368 . S
C587 C571 1.349 . S
C587 H579 0.950 . S
C587 C585 1.327 . S
C588 C576 1.349 . S
C588 H582 0.950 . S
C588 C589 1.327 . S
C589 H583 0.950 . S
C589 C588 1.327 . S
C589 C593 1.429 . S
C590 C573 1.574 . S
C590 H584 0.949 . S
C590 C594 1.368 . S
C591 C572 1.429 . S
C591 C585 1.429 . S
C591 C592 1.523 . S
C592 C573 1.368 . S
C592 C586 1.368 . S
C592 C591 1.523 . S
C593 C577 1.429 . S
C593 C589 1.429 . S
C593 C594 1.523 . S
C594 C578 1.368 . S
C594 C590 1.368 . S
C594 C593 1.523 . S
H595 C570 0.950 . S
H596 C572 0.950 . S
H597 C573 0.949 . S
H598 C575 0.950 . S
H599 C577 0.950 . S
C600 C601 1.349 . S
C600 C602 1.327 . S
C600 H625 0.950 . S
C601 C600 1.349 . S
C601 C617 1.349 . S
C602 C600 1.327 . S
C602 C621 1.429 . S
C602 H626 0.950 . S
C603 C620 1.574 . S
C603 C622 1.368 . S
C603 H627 0.949 . S
H604 C608 0.949 . S
C605 C606 1.349 . S
C605 C607 1.327 . S
C605 H628 0.950 . S
C606 C605 1.349 . S
C606 C618 1.349 . S
C607 C605 1.327 . S
C607 C623 1.429 . S
C607 H629 0.950 . S
C608 H604 0.949 . S
C608 C616 1.574 . S
C608 C624 1.368 . S
H609 C617 0.950 . S
H610 C615 0.950 . S
H611 C616 0.949 . S
H612 C618 0.950 . S
H613 C619 0.950 . S
H614 C620 0.949 . S
C615 H610 0.950 . S
C615 C617 1.327 . S
C615 C621 1.429 . S
C616 C608 1.574 . S
C616 H611 0.949 . S
C616 C622 1.368 . S
C617 C601 1.349 . S
C617 H609 0.950 . S
C617 C615 1.327 . S
C618 C606 1.349 . S
C618 H612 0.950 . S
C618 C619 1.327 . S
C619 H613 0.950 . S
C619 C618 1.327 . S
C619 C623 1.429 . S
C620 C603 1.574 . S
C620 H614 0.949 . S
C620 C624 1.368 . S
C621 C602 1.429 . S
C621 C615 1.429 . S
C621 C622 1.523 . S
C622 C603 1.368 . S
C622 C616 1.368 . S
C622 C621 1.523 . S
C623 C607 1.429 . S
C623 C619 1.429 . S
C623 C624 1.523 . S
C624 C608 1.368 . S
C624 C620 1.368 . S
C624 C623 1.523 . S
H625 C600 0.950 . S
H626 C602 0.950 . S
H627 C603 0.949 . S
H628 C605 0.950 . S
H629 C607 0.950 . S
C630 C631 1.349 . S
C630 C632 1.327 . S
C630 H655 0.950 . S
C631 C630 1.349 . S
C631 C647 1.349 . S
C632 C630 1.327 . S
C632 C651 1.429 . S
C632 H656 0.950 . S
C633 C650 1.574 . S
C633 C652 1.368 . S
C633 H657 0.949 . S
H634 C638 0.949 . S
C635 C636 1.349 . S
C635 C637 1.327 . S
C635 H658 0.950 . S
C636 C635 1.349 . S
C636 C648 1.349 . S
C637 C635 1.327 . S
C637 C653 1.429 . S
C637 H659 0.950 . S
C638 H634 0.949 . S
C638 C646 1.574 . S
C638 C654 1.368 . S
H639 C647 0.950 . S
H640 C645 0.950 . S
H641 C646 0.949 . S
H642 C648 0.950 . S
H643 C649 0.950 . S
H644 C650 0.949 . S
C645 H640 0.950 . S
C645 C647 1.327 . S
C645 C651 1.429 . S
C646 C638 1.574 . S
C646 H641 0.949 . S
C646 C652 1.368 . S
C647 C631 1.349 . S
C647 H639 0.950 . S
C647 C645 1.327 . S
C648 C636 1.349 . S
C648 H642 0.950 . S
C648 C649 1.327 . S
C649 H643 0.950 . S
C649 C648 1.327 . S
C649 C653 1.429 . S
C650 C633 1.574 . S
C650 H644 0.949 . S
C650 C654 1.368 . S
C651 C632 1.429 . S
C651 C645 1.429 . S
C651 C652 1.523 . S
C652 C633 1.368 . S
C652 C646 1.368 . S
C652 C651 1.523 . S
C653 C637 1.429 . S
C653 C649 1.429 . S
C653 C654 1.523 1_545 S
C654 C638 1.368 . S
C654 C650 1.368 . S
C654 C653 1.523 1_565 S
H655 C630 0.950 . S
H656 C632 0.950 . S
H657 C633 0.949 . S
H658 C635 0.950 . S
H659 C637 0.950 . S
C660 C661 1.349 . S
C660 C662 1.327 . S
C660 H685 0.950 . S
C661 C660 1.349 . S
C661 C677 1.349 . S
C662 C660 1.327 . S
C662 C681 1.429 1_655 S
C662 H686 0.950 1_655 S
C663 C680 1.574 . S
C663 C682 1.368 . S
C663 H687 0.949 . S
H664 C668 0.949 . S
C665 C666 1.349 . S
C665 C667 1.327 1_545 S
C665 H688 0.950 . S
C666 C665 1.349 . S
C666 C678 1.349 1_545 S
C667 C665 1.327 1_565 S
C667 C683 1.429 . S
C667 H689 0.950 . S
C668 H664 0.949 . S
C668 C676 1.574 . S
C668 C684 1.368 . S
H669 C677 0.950 . S
H670 C675 0.950 . S
H671 C676 0.949 . S
H672 C678 0.950 . S
H673 C679 0.950 . S
H674 C680 0.949 . S
C675 H670 0.950 . S
C675 C677 1.327 . S
C675 C681 1.429 1_655 S
C676 C668 1.574 . S
C676 H671 0.949 . S
C676 C682 1.368 . S
C677 C661 1.349 . S
C677 H669 0.950 . S
C677 C675 1.327 . S
C678 C666 1.349 1_565 S
C678 H672 0.950 . S
C678 C679 1.327 . S
C679 H673 0.950 . S
C679 C678 1.327 . S
C679 C683 1.429 . S
C680 C663 1.574 . S
C680 H674 0.949 . S
C680 C684 1.368 . S
C681 C662 1.429 1_455 S
C681 C675 1.429 1_455 S
C681 C682 1.523 . S
C682 C663 1.368 . S
C682 C676 1.368 . S
C682 C681 1.523 . S
C683 C667 1.429 . S
C683 C679 1.429 . S
C683 C684 1.523 . S
C684 C668 1.368 . S
C684 C680 1.368 . S
C684 C683 1.523 . S
H685 C660 0.950 . S
H686 C662 0.950 1_455 S
H687 C663 0.949 . S
H688 C665 0.950 . S
H689 C667 0.950 . S
C690 C691 1.349 . S
C690 C692 1.327 . S
C690 H715 0.950 . S
C691 C690 1.349 . S
C691 C707 1.349 . S
C692 C690 1.327 . S
C692 C711 1.429 . S
C692 H716 0.950 . S
C693 C710 1.574 . S
C693 C712 1.368 . S
C693 H717 0.949 . S
H694 C698 0.949 . S
C695 C696 1.349 . S
C695 C697 1.327 . S
C695 H718 0.950 . S
C696 C695 1.349 . S
C696 C708 1.349 . S
C697 C695 1.327 . S
C697 C713 1.429 . S
C697 H719 0.950 . S
C698 H694 0.949 . S
C698 C706 1.574 . S
C698 C714 1.368 . S
H699 C707 0.950 . S
H700 C705 0.950 . S
H701 C706 0.949 . S
H702 C708 0.950 . S
H703 C709 0.950 . S
H704 C710 0.949 . S
C705 H700 0.950 . S
C705 C707 1.327 . S
C705 C711 1.429 . S
C706 C698 1.574 . S
C706 H701 0.949 . S
C706 C712 1.368 . S
C707 C691 1.349 . S
C707 H699 0.950 . S
C707 C705 1.327 . S
C708 C696 1.349 . S
C708 H702 0.950 . S
C708 C709 1.327 . S
C709 H703 0.950 . S
C709 C708 1.327 . S
C709 C713 1.429 . S
C710 C693 1.574 . S
C710 H704 0.949 . S
C710 C714 1.368 . S
C711 C692 1.429 . S
C711 C705 1.429 . S
C711 C712 1.523 . S
C712 C693 1.368 . S
C712 C706 1.368 . S
C712 C711 1.523 . S
C713 C697 1.429 . S
C713 C709 1.429 . S
C713 C714 1.523 . S
C714 C698 1.368 . S
C714 C710 1.368 . S
C714 C713 1.523 . S
H715 C690 0.950 . S
H716 C692 0.950 . S
H717 C693 0.949 . S
H718 C695 0.950 . S
H719 C697 0.950 . S
C720 C721 1.349 . S
C720 C722 1.327 . S
C720 H745 0.950 . S
C721 C720 1.349 . S
C721 C737 1.349 . S
C722 C720 1.327 . S
C722 C741 1.429 . S
C722 H746 0.950 . S
C723 C740 1.574 . S
C723 C742 1.368 . S
C723 H747 0.949 . S
H724 C728 0.949 . S
C725 C726 1.349 . S
C725 C727 1.327 . S
C725 H748 0.950 1_455 S
C726 C725 1.349 . S
C726 C738 1.349 . S
C727 C725 1.327 . S
C727 C743 1.429 . S
C727 H749 0.950 . S
C728 H724 0.949 . S
C728 C736 1.574 . S
C728 C744 1.368 . S
H729 C737 0.950 . S
H730 C735 0.950 . S
H731 C736 0.949 . S
H732 C738 0.950 . S
H733 C739 0.950 . S
H734 C740 0.949 . S
C735 H730 0.950 . S
C735 C737 1.327 . S
C735 C741 1.429 . S
C736 C728 1.574 . S
C736 H731 0.949 . S
C736 C742 1.368 . S
C737 C721 1.349 . S
C737 H729 0.950 . S
C737 C735 1.327 . S
C738 C726 1.349 . S
C738 H732 0.950 . S
C738 C739 1.327 . S
C739 H733 0.950 . S
C739 C738 1.327 . S
C739 C743 1.429 . S
C740 C723 1.574 . S
C740 H734 0.949 . S
C740 C744 1.368 . S
C741 C722 1.429 . S
C741 C735 1.429 . S
C741 C742 1.523 . S
C742 C723 1.368 . S
C742 C736 1.368 . S
C742 C741 1.523 . S
C743 C727 1.429 . S
C743 C739 1.429 . S
C743 C744 1.523 . S
C744 C728 1.368 . S
C744 C740 1.368 . S
C744 C743 1.523 . S
H745 C720 0.950 . S
H746 C722 0.950 . S
H747 C723 0.949 . S
H748 C725 0.950 1_655 S
H749 C727 0.950 . S
C750 C751 1.349 . S
C750 C752 1.327 . S
C750 H775 0.950 . S
C751 C750 1.349 . S
C751 C767 1.349 . S
C752 C750 1.327 . S
C752 C771 1.429 . S
C752 H776 0.950 . S
C753 C770 1.574 . S
C753 C772 1.368 . S
C753 H777 0.949 . S
H754 C758 0.949 . S
C755 C756 1.349 . S
C755 C757 1.327 . S
C755 H778 0.950 . S
C756 C755 1.349 . S
C756 C768 1.349 . S
C757 C755 1.327 . S
C757 C773 1.429 . S
C757 H779 0.950 . S
C758 H754 0.949 . S
C758 C766 1.574 . S
C758 C774 1.368 . S
H759 C767 0.950 . S
H760 C765 0.950 . S
H761 C766 0.949 . S
H762 C768 0.950 . S
H763 C769 0.950 . S
H764 C770 0.949 . S
C765 H760 0.950 . S
C765 C767 1.327 . S
C765 C771 1.429 . S
C766 C758 1.574 . S
C766 H761 0.949 . S
C766 C772 1.368 . S
C767 C751 1.349 . S
C767 H759 0.950 . S
C767 C765 1.327 . S
C768 C756 1.349 . S
C768 H762 0.950 . S
C768 C769 1.327 . S
C769 H763 0.950 . S
C769 C768 1.327 . S
C769 C773 1.429 . S
C770 C753 1.574 . S
C770 H764 0.949 . S
C770 C774 1.368 . S
C771 C752 1.429 . S
C771 C765 1.429 . S
C771 C772 1.523 . S
C772 C753 1.368 . S
C772 C766 1.368 . S
C772 C771 1.523 . S
C773 C757 1.429 . S
C773 C769 1.429 . S
C773 C774 1.523 . S
C774 C758 1.368 . S
C774 C770 1.368 . S
C774 C773 1.523 . S
H775 C750 0.950 . S
H776 C752 0.950 . S
H777 C753 0.949 . S
H778 C755 0.950 . S
H779 C757 0.950 . S
C780 C781 1.349 1_545 S
C780 C782 1.327 1_545 S
C780 H805 0.950 . S
C781 C780 1.349 1_565 S
C781 C797 1.349 . S
C782 C780 1.327 1_565 S
C782 C801 1.429 . S
C782 H806 0.950 1_565 S
C783 C800 1.574 . S
C783 C802 1.368 . S
C783 H807 0.949 . S
H784 C788 0.949 . S
C785 C786 1.349 . S
C785 C787 1.327 . S
C785 H808 0.950 . S
C786 C785 1.349 . S
C786 C798 1.349 . S
C787 C785 1.327 . S
C787 C803 1.429 . S
C787 H809 0.950 . S
C788 H784 0.949 . S
C788 C796 1.574 . S
C788 C804 1.368 . S
H789 C797 0.950 . S
H790 C795 0.950 . S
H791 C796 0.949 . S
H792 C798 0.950 . S
H793 C799 0.950 . S
H794 C800 0.949 . S
C795 H790 0.950 . S
C795 C797 1.327 . S
C795 C801 1.429 . S
C796 C788 1.574 . S
C796 H791 0.949 . S
C796 C802 1.368 . S
C797 C781 1.349 . S
C797 H789 0.950 . S
C797 C795 1.327 . S
C798 C786 1.349 . S
C798 H792 0.950 . S
C798 C799 1.327 . S
C799 H793 0.950 . S
C799 C798 1.327 . S
C799 C803 1.429 . S
C800 C783 1.574 . S
C800 H794 0.949 . S
C800 C804 1.368 . S
C801 C782 1.429 . S
C801 C795 1.429 . S
C801 C802 1.523 . S
C802 C783 1.368 . S
C802 C796 1.368 . S
C802 C801 1.523 . S
C803 C787 1.429 . S
C803 C799 1.429 . S
C803 C804 1.523 . S
C804 C788 1.368 . S
C804 C800 1.368 . S
C804 C803 1.523 . S
H805 C780 0.950 . S
H806 C782 0.950 1_545 S
H807 C783 0.949 . S
H808 C785 0.950 . S
H809 C787 0.950 . S
C810 C811 1.349 . S
C810 C812 1.327 . S
C810 H835 0.950 1_545 S
C811 C810 1.349 . S
C811 C827 1.349 . S
C812 C810 1.327 . S
C812 C831 1.429 . S
C812 H836 0.950 1_545 S
C813 C830 1.574 . S
C813 C832 1.368 . S
C813 H837 0.949 . S
H814 C818 0.949 . S
C815 C816 1.349 . S
C815 C817 1.327 . S
C815 H838 0.950 . S
C816 C815 1.349 . S
C816 C828 1.349 . S
C817 C815 1.327 . S
C817 C833 1.429 . S
C817 H839 0.950 . S
C818 H814 0.949 . S
C818 C826 1.574 . S
C818 C834 1.368 . S
H819 C827 0.950 . S
H820 C825 0.950 . S
H821 C826 0.949 . S
H822 C828 0.950 . S
H823 C829 0.950 . S
H824 C830 0.949 . S
C825 H820 0.950 . S
C825 C827 1.327 . S
C825 C831 1.429 . S
C826 C818 1.574 . S
C826 H821 0.949 . S
C826 C832 1.368 . S
C827 C811 1.349 . S
C827 H819 0.950 . S
C827 C825 1.327 . S
C828 C816 1.349 . S
C828 H822 0.950 . S
C828 C829 1.327 . S
C829 H823 0.950 . S
C829 C828 1.327 . S
C829 C833 1.429 . S
C830 C813 1.574 . S
C830 H824 0.949 . S
C830 C834 1.368 . S
C831 C812 1.429 . S
C831 C825 1.429 . S
C831 C832 1.523 . S
C832 C813 1.368 . S
C832 C826 1.368 . S
C832 C831 1.523 . S
C833 C817 1.429 . S
C833 C829 1.429 . S
C833 C834 1.523 . S
C834 C818 1.368 . S
C834 C830 1.368 . S
C834 C833 1.523 . S
H835 C810 0.950 1_565 S
H836 C812 0.950 1_565 S
H837 C813 0.949 . S
H838 C815 0.950 . S
H839 C817 0.950 . S
C840 C841 1.349 . S
C840 C842 1.327 . S
C840 H865 0.950 1_655 S
C841 C840 1.349 . S
C841 C857 1.349 . S
C842 C840 1.327 . S
C842 C861 1.429 . S
C842 H866 0.950 . S
C843 C860 1.574 . S
C843 C862 1.368 . S
C843 H867 0.949 . S
H844 C848 0.949 . S
C845 C846 1.349 . S
C845 C847 1.327 . S
C845 H868 0.950 . S
C846 C845 1.349 . S
C846 C858 1.349 . S
C847 C845 1.327 . S
C847 C863 1.429 . S
C847 H869 0.950 . S
C848 H844 0.949 . S
C848 C856 1.574 . S
C848 C864 1.368 . S
H849 C857 0.950 . S
H850 C855 0.950 . S
H851 C856 0.949 . S
H852 C858 0.950 . S
H853 C859 0.950 . S
H854 C860 0.949 . S
C855 H850 0.950 . S
C855 C857 1.327 . S
C855 C861 1.429 . S
C856 C848 1.574 . S
C856 H851 0.949 . S
C856 C862 1.368 . S
C857 C841 1.349 . S
C857 H849 0.950 . S
C857 C855 1.327 . S
C858 C846 1.349 . S
C858 H852 0.950 . S
C858 C859 1.327 . S
C859 H853 0.950 . S
C859 C858 1.327 . S
C859 C863 1.429 . S
C860 C843 1.574 . S
C860 H854 0.949 . S
C860 C864 1.368 . S
C861 C842 1.429 . S
C861 C855 1.429 . S
C861 C862 1.523 . S
C862 C843 1.368 . S
C862 C856 1.368 . S
C862 C861 1.523 . S
C863 C847 1.429 . S
C863 C859 1.429 . S
C863 C864 1.523 . S
C864 C848 1.368 . S
C864 C860 1.368 . S
C864 C863 1.523 . S
H865 C840 0.950 1_455 S
H866 C842 0.950 . S
H867 C843 0.949 . S
H868 C845 0.950 . S
H869 C847 0.950 . S
C870 C871 1.349 . S
C870 C872 1.327 . S
C870 H895 0.950 . S
C871 C870 1.349 . S
C871 C887 1.349 . S
C872 C870 1.327 . S
C872 C891 1.429 . S
C872 H896 0.950 . S
C873 C890 1.574 . S
C873 C892 1.368 . S
C873 H897 0.949 . S
H874 C878 0.949 . S
C875 C876 1.349 . S
C875 C877 1.327 . S
C875 H898 0.950 . S
C876 C875 1.349 . S
C876 C888 1.349 . S
C877 C875 1.327 . S
C877 C893 1.429 . S
C877 H899 0.950 . S
C878 H874 0.949 . S
C878 C886 1.574 . S
C878 C894 1.368 . S
H879 C887 0.950 . S
H880 C885 0.950 . S
H881 C886 0.949 . S
H882 C888 0.950 . S
H883 C889 0.950 . S
H884 C890 0.949 . S
C885 H880 0.950 . S
C885 C887 1.327 . S
C885 C891 1.429 . S
C886 C878 1.574 . S
C886 H881 0.949 . S
C886 C892 1.368 . S
C887 C871 1.349 . S
C887 H879 0.950 . S
C887 C885 1.327 . S
C888 C876 1.349 . S
C888 H882 0.950 . S
C888 C889 1.327 . S
C889 H883 0.950 . S
C889 C888 1.327 . S
C889 C893 1.429 . S
C890 C873 1.574 . S
C890 H884 0.949 . S
C890 C894 1.368 . S
C891 C872 1.429 . S
C891 C885 1.429 . S
C891 C892 1.523 . S
C892 C873 1.368 . S
C892 C886 1.368 . S
C892 C891 1.523 . S
C893 C877 1.429 . S
C893 C889 1.429 . S
C893 C894 1.523 . S
C894 C878 1.368 . S
C894 C890 1.368 . S
C894 C893 1.523 . S
H895 C870 0.950 . S
H896 C872 0.950 . S
H897 C873 0.949 . S
H898 C875 0.950 . S
H899 C877 0.950 . S
C900 C901 1.349 . S
C900 C902 1.327 . S
C900 H925 0.950 . S
C901 C900 1.349 . S
C901 C917 1.349 . S
C902 C900 1.327 . S
C902 C921 1.429 . S
C902 H926 0.950 . S
C903 C920 1.574 . S
C903 C922 1.368 . S
C903 H927 0.949 . S
H904 C908 0.949 . S
C905 C906 1.349 . S
C905 C907 1.327 . S
C905 H928 0.950 . S
C906 C905 1.349 . S
C906 C918 1.349 . S
C907 C905 1.327 . S
C907 C923 1.429 . S
C907 H929 0.950 . S
C908 H904 0.949 . S
C908 C916 1.574 . S
C908 C924 1.368 . S
H909 C917 0.950 . S
H910 C915 0.950 . S
H911 C916 0.949 . S
H912 C918 0.950 . S
H913 C919 0.950 . S
H914 C920 0.949 . S
C915 H910 0.950 . S
C915 C917 1.327 . S
C915 C921 1.429 . S
C916 C908 1.574 . S
C916 H911 0.949 . S
C916 C922 1.368 . S
C917 C901 1.349 . S
C917 H909 0.950 . S
C917 C915 1.327 . S
C918 C906 1.349 . S
C918 H912 0.950 . S
C918 C919 1.327 . S
C919 H913 0.950 . S
C919 C918 1.327 . S
C919 C923 1.429 . S
C920 C903 1.574 . S
C920 H914 0.949 . S
C920 C924 1.368 . S
C921 C902 1.429 . S
C921 C915 1.429 . S
C921 C922 1.523 . S
C922 C903 1.368 . S
C922 C916 1.368 . S
C922 C921 1.523 . S
C923 C907 1.429 . S
C923 C919 1.429 . S
C923 C924 1.523 . S
C924 C908 1.368 . S
C924 C920 1.368 . S
C924 C923 1.523 . S
H925 C900 0.950 . S
H926 C902 0.950 . S
H927 C903 0.949 . S
H928 C905 0.950 . S
H929 C907 0.950 . S
C930 C931 1.349 . S
C930 C932 1.327 . S
C930 H955 0.950 . S
C931 C930 1.349 . S
C931 C947 1.349 . S
C932 C930 1.327 . S
C932 C951 1.429 . S
C932 H956 0.950 . S
C933 C950 1.574 . S
C933 C952 1.368 1_545 S
C933 H957 0.949 . S
H934 C938 0.949 . S
C935 C936 1.349 . S
C935 C937 1.327 . S
C935 H958 0.950 . S
C936 C935 1.349 . S
C936 C948 1.349 . S
C937 C935 1.327 . S
C937 C953 1.429 . S
C937 H959 0.950 . S
C938 H934 0.949 . S
C938 C946 1.574 1_545 S
C938 C954 1.368 . S
H939 C947 0.950 . S
H940 C945 0.950 . S
H941 C946 0.949 . S
H942 C948 0.950 . S
H943 C949 0.950 . S
H944 C950 0.949 . S
C945 H940 0.950 . S
C945 C947 1.327 . S
C945 C951 1.429 . S
C946 C938 1.574 1_565 S
C946 H941 0.949 . S
C946 C952 1.368 . S
C947 C931 1.349 . S
C947 H939 0.950 . S
C947 C945 1.327 . S
C948 C936 1.349 . S
C948 H942 0.950 . S
C948 C949 1.327 . S
C949 H943 0.950 . S
C949 C948 1.327 . S
C949 C953 1.429 . S
C950 C933 1.574 . S
C950 H944 0.949 . S
C950 C954 1.368 . S
C951 C932 1.429 . S
C951 C945 1.429 . S
C951 C952 1.523 . S
C952 C933 1.368 1_565 S
C952 C946 1.368 . S
C952 C951 1.523 . S
C953 C937 1.429 . S
C953 C949 1.429 . S
C953 C954 1.523 . S
C954 C938 1.368 . S
C954 C950 1.368 . S
C954 C953 1.523 . S
H955 C930 0.950 . S
H956 C932 0.950 . S
H957 C933 0.949 . S
H958 C935 0.950 . S
H959 C937 0.950 . S
C960 C961 1.349 . S
C960 C962 1.327 . S
C960 H985 0.950 . S
C961 C960 1.349 . S
C961 C977 1.349 . S
C962 C960 1.327 . S
C962 C981 1.429 . S
C962 H986 0.950 . S
C963 C980 1.574 . S
C963 C982 1.368 1_455 S
C963 H987 0.949 . S
H964 C968 0.949 . S
C965 C966 1.349 . S
C965 C967 1.327 . S
C965 H988 0.950 . S
C966 C965 1.349 . S
C966 C978 1.349 . S
C967 C965 1.327 . S
C967 C983 1.429 . S
C967 H989 0.950 . S
C968 H964 0.949 . S
C968 C976 1.574 . S
C968 C984 1.368 1_655 S
H969 C977 0.950 . S
H970 C975 0.950 1_455 S
H971 C976 0.949 . S
H972 C978 0.950 . S
H973 C979 0.950 . S
H974 C980 0.949 . S
C975 H970 0.950 1_655 S
C975 C977 1.327 . S
C975 C981 1.429 . S
C976 C968 1.574 . S
C976 H971 0.949 . S
C976 C982 1.368 . S
C977 C961 1.349 . S
C977 H969 0.950 . S
C977 C975 1.327 . S
C978 C966 1.349 . S
C978 H972 0.950 . S
C978 C979 1.327 . S
C979 H973 0.950 . S
C979 C978 1.327 . S
C979 C983 1.429 . S
C980 C963 1.574 . S
C980 H974 0.949 . S
C980 C984 1.368 . S
C981 C962 1.429 . S
C981 C975 1.429 . S
C981 C982 1.523 . S
C982 C963 1.368 1_655 S
C982 C976 1.368 . S
C982 C981 1.523 . S
C983 C967 1.429 . S
C983 C979 1.429 . S
C983 C984 1.523 . S
C984 C968 1.368 1_455 S
C984 C980 1.368 . S
C984 C983 1.523 . S
H985 C960 0.950 . S
H986 C962 0.950 . S
H987 C963 0.949 . S
H988 C965 0.950 . S
H989 C967 0.950 . S
C181 C32 1.044 . S
C186 C9 0.976 . S
C211 C42 1.234 . S
C216 C24 1.102 . S
C241 C49 1.048 . S
C246 C2 1.103 . S
C271 C44 1.210 . S
C276 C22 1.346 . S
C301 C52 1.237 . S
C306 C4 1.085 . S
C331 C12 1.090 . S
C336 C29 1.019 . S
C361 C69 1.203 . S
C366 C82 1.283 . S
C391 C102 0.986 . S
C396 C89 0.940 1_545 S
C421 C109 1.078 1_655 S
C426 C62 1.134 . S
C451 C92 1.081 . S
C456 C104 0.972 . S
C481 C112 1.198 . S
C486 C64 1.053 . S
C511 C84 1.195 . S
C516 C72 1.358 . S
C541 C152 0.986 . S
C546 C129 0.929 . S
C571 C144 1.111 . S
C576 C162 1.238 . S
C601 C169 1.043 . S
C606 C122 1.095 . S
C631 C164 1.167 . S
C636 C142 1.292 . S
C661 C172 1.230 . S
C666 C124 1.080 . S
C691 C132 1.096 . S
C696 C149 1.025 1_455 S
C721 C119 2.238 . S
C726 C18 2.177 . S
C751 C79 2.190 . S
C756 C39 2.188 . S
C781 C58 2.292 1_565 S
C786 C99 2.360 . S
C811 C59 2.247 . S
C816 C138 2.174 . S
C841 C19 2.118 1_655 S
C846 C159 2.119 . S
C871 C178 2.291 . S
C876 C38 2.290 . S
C901 C78 2.188 . S
C906 C179 2.250 . S
C931 C98 2.062 . S
C936 C139 2.122 . S
C961 C158 2.226 . S
C966 C118 2.223 . S
