# Generated by pormake.
# Topology wje, (4)-cn, num edge types: 1
# Building blocks:
#     Node 0, Type 0, BuildingBlock: KUFVIS_clean_sbu_0, # of connection points: 4
#     Node 1, Type 0, BuildingBlock: KUFVIS_clean_sbu_0, # of connection points: 4
#     Node 2, Type 0, BuildingBlock: KUFVIS_clean_sbu_0, # of connection points: 4
#     Node 3, Type 0, BuildingBlock: KUFVIS_clean_sbu_0, # of connection points: 4
#     Node 4, Type 0, BuildingBlock: KUFVIS_clean_sbu_0, # of connection points: 4
#     Node 5, Type 0, BuildingBlock: KUFVIS_clean_sbu_0, # of connection points: 4
#     Node 6, Type 0, BuildingBlock: KUFVIS_clean_sbu_0, # of connection points: 4
#     Node 7, Type 0, BuildingBlock: KUFVIS_clean_sbu_0, # of connection points: 4
#     Node 8, Type 0, BuildingBlock: KUFVIS_clean_sbu_0, # of connection points: 4
#     Node 9, Type 0, BuildingBlock: KUFVIS_clean_sbu_0, # of connection points: 4
#     Node 10, Type 0, BuildingBlock: KUFVIS_clean_sbu_0, # of connection points: 4
#     Node 11, Type 0, BuildingBlock: KUFVIS_clean_sbu_0, # of connection points: 4
#     Edge 12, Type (0, 0), BuildingBlock: KIFKEQ_clean_linker_1, # of connection points: 2
#     Edge 13, Type (0, 0), BuildingBlock: KIFKEQ_clean_linker_1, # of connection points: 2
#     Edge 14, Type (0, 0), BuildingBlock: KIFKEQ_clean_linker_1, # of connection points: 2
#     Edge 15, Type (0, 0), BuildingBlock: KIFKEQ_clean_linker_1, # of connection points: 2
#     Edge 16, Type (0, 0), BuildingBlock: KIFKEQ_clean_linker_1, # of connection points: 2
#     Edge 17, Type (0, 0), BuildingBlock: KIFKEQ_clean_linker_1, # of connection points: 2
#     Edge 18, Type (0, 0), BuildingBlock: KIFKEQ_clean_linker_1, # of connection points: 2
#     Edge 19, Type (0, 0), BuildingBlock: KIFKEQ_clean_linker_1, # of connection points: 2
#     Edge 20, Type (0, 0), BuildingBlock: KIFKEQ_clean_linker_1, # of connection points: 2
#     Edge 21, Type (0, 0), BuildingBlock: KIFKEQ_clean_linker_1, # of connection points: 2
#     Edge 22, Type (0, 0), BuildingBlock: KIFKEQ_clean_linker_1, # of connection points: 2
#     Edge 23, Type (0, 0), BuildingBlock: KIFKEQ_clean_linker_1, # of connection points: 2
#     Edge 24, Type (0, 0), BuildingBlock: KIFKEQ_clean_linker_1, # of connection points: 2
#     Edge 25, Type (0, 0), BuildingBlock: KIFKEQ_clean_linker_1, # of connection points: 2
#     Edge 26, Type (0, 0), BuildingBlock: KIFKEQ_clean_linker_1, # of connection points: 2
#     Edge 27, Type (0, 0), BuildingBlock: KIFKEQ_clean_linker_1, # of connection points: 2
#     Edge 28, Type (0, 0), BuildingBlock: KIFKEQ_clean_linker_1, # of connection points: 2
#     Edge 29, Type (0, 0), BuildingBlock: KIFKEQ_clean_linker_1, # of connection points: 2
#     Edge 30, Type (0, 0), BuildingBlock: KIFKEQ_clean_linker_1, # of connection points: 2
#     Edge 31, Type (0, 0), BuildingBlock: KIFKEQ_clean_linker_1, # of connection points: 2
#     Edge 32, Type (0, 0), BuildingBlock: KIFKEQ_clean_linker_1, # of connection points: 2
#     Edge 33, Type (0, 0), BuildingBlock: KIFKEQ_clean_linker_1, # of connection points: 2
#     Edge 34, Type (0, 0), BuildingBlock: KIFKEQ_clean_linker_1, # of connection points: 2
#     Edge 35, Type (0, 0), BuildingBlock: KIFKEQ_clean_linker_1, # of connection points: 2
# Relax obj value: 0.160
# Max RMSD: 0.106
# Mean RMSD: 0.106
data_MOF--net-wje--node1-KUFVIS_clean_sbu_0--edge1-KIFKEQ_clean_linker_1
_symmetry_space_group_name_H-M    P1
_symmetry_Int_Tables_number       1
_symmetry_cell_setting            triclinic
loop_
_symmetry_equiv_pos_as_xyz
'x, y, z'
_cell_length_a     39.91431
_cell_length_b     39.932978
_cell_length_c     38.491371
_cell_angle_alpha  90.066819
_cell_angle_beta   89.984754
_cell_angle_gamma 119.9885
loop_
_atom_site_label
_atom_site_type_symbol
_atom_site_fract_x
_atom_site_fract_y
_atom_site_fract_z
_atom_type_partial_charge
Mn0 Mn 0.3273 0.02582 0.32679 0.0
Mn1 Mn 0.30229 0.97868 0.25054 0.0
C2 C 0.2629 0.98618 0.31323 0.0
C3 C 0.34179 0.02265 0.38534 0.0
C4 C 0.33185 0.06501 0.25726 0.0
O5 O 0.37674 0.02794 0.31082 0.0
O6 O 0.35617 0.99148 0.26207 0.0
C7 C 0.30097 0.90693 0.27221 0.0
N8 N 0.28224 0.92481 0.25916 0.0
C9 C 0.2218 0.86473 0.25744 0.0
C10 C 0.24052 0.84566 0.2706 0.0
C11 C 0.28028 0.86685 0.27799 0.0
C12 C 0.24401 0.90465 0.25181 0.0
H13 H 0.3314 0.92317 0.27846 0.0
C14 C 0.38196 0.01084 0.28511 0.0
O15 O 0.35241 0.05585 0.37062 0.0
O16 O 0.32394 0.99239 0.36597 0.0
N17 N 0.25043 0.96424 0.23766 0.0
C18 C 0.23617 0.98735 0.22741 0.0
C19 C 0.19661 0.97073 0.21982 0.0
C20 C 0.1721 0.9306 0.223 0.0
C21 C 0.18742 0.90741 0.23361 0.0
C22 C 0.22719 0.92551 0.24029 0.0
H23 H 0.25478 0.01825 0.22528 0.0
O24 O 0.27292 0.01329 0.33625 0.0
O25 O 0.29129 0.98464 0.29848 0.0
O26 O 0.33431 0.06706 0.29053 0.0
O27 O 0.32157 0.03384 0.24012 0.0
C28 C 0.16461 0.86718 0.23866 0.0
C29 C 0.18178 0.84587 0.2506 0.0
H30 H 0.22457 0.81483 0.2755 0.0
H31 H 0.29488 0.85239 0.28841 0.0
H32 H 0.18496 0.98884 0.2118 0.0
H33 H 0.1415 0.91796 0.21757 0.0
H34 H 0.13373 0.85244 0.23392 0.0
H35 H 0.16383 0.81506 0.25491 0.0
Mn36 Mn 0.30505 0.32702 0.65921 0.0
Mn37 Mn 0.32424 0.29699 0.58443 0.0
C38 C 0.27782 0.26157 0.64815 0.0
C39 C 0.32424 0.3427 0.71739 0.0
C40 C 0.27046 0.33057 0.58965 0.0
O41 O 0.35251 0.37508 0.6409 0.0
O42 O 0.36777 0.34992 0.59505 0.0
C43 C 0.39171 0.2908 0.60744 0.0
N44 N 0.35526 0.27392 0.59407 0.0
C45 C 0.35054 0.21141 0.59362 0.0
C46 C 0.38819 0.22824 0.60699 0.0
C47 C 0.40884 0.2681 0.61395 0.0
C48 C 0.33511 0.23556 0.5873 0.0
H49 H 0.40744 0.32127 0.61349 0.0
C50 C 0.37499 0.37772 0.61609 0.0
O51 O 0.30276 0.35464 0.70255 0.0
O52 O 0.3355 0.32384 0.6981 0.0
N53 N 0.28434 0.24575 0.57258 0.0
C54 C 0.24733 0.23349 0.56223 0.0
C55 C 0.22242 0.19411 0.55515 0.0
C56 C 0.23574 0.16774 0.5589 0.0
C57 C 0.27393 0.18101 0.56958 0.0
C58 C 0.29762 0.22068 0.57576 0.0
H59 H 0.2368 0.25354 0.55956 0.0
O60 O 0.26226 0.27356 0.67093 0.0
O61 O 0.30766 0.28868 0.63232 0.0
O62 O 0.27071 0.33358 0.62286 0.0
O63 O 0.2909 0.31926 0.57304 0.0
C64 C 0.28908 0.15628 0.5752 0.0
C65 C 0.32733 0.17146 0.58727 0.0
H66 H 0.40132 0.21075 0.61246 0.0
H67 H 0.43777 0.28124 0.62463 0.0
H68 H 0.19294 0.18407 0.54705 0.0
H69 H 0.21628 0.13731 0.55385 0.0
H70 H 0.27136 0.12545 0.57085 0.0
H71 H 0.33843 0.15207 0.59207 0.0
Mn72 Mn 0.9793 0.30164 0.99291 0.0
Mn73 Mn 0.02947 0.32401 0.91835 0.0
C74 C 0.0191 0.27655 0.9811 0.0
C75 C 0.98105 0.31928 0.05139 0.0
C76 C 0.94283 0.2669 0.9223 0.0
O77 O 0.97816 0.34921 0.97656 0.0
O78 O 0.0157 0.36473 0.92858 0.0
C79 C 0.09983 0.39479 0.94204 0.0
N80 N 0.08287 0.35829 0.92876 0.0
C81 C 0.14344 0.35881 0.92952 0.0
C82 C 0.16157 0.39651 0.94292 0.0
C83 C 0.13966 0.41456 0.94919 0.0
C84 C 0.10372 0.34068 0.92253 0.0
H85 H 0.08304 0.40861 0.94742 0.0
C86 C 0.99588 0.37135 0.95098 0.0
O87 O 0.94815 0.29686 0.03604 0.0
O88 O 0.01173 0.33138 0.03272 0.0
N89 N 0.04506 0.28714 0.90667 0.0
C90 C 0.02279 0.24985 0.89586 0.0
C91 C 0.04019 0.22742 0.88917 0.0
C92 C 0.08023 0.24348 0.89381 0.0
C93 C 0.10257 0.28193 0.90494 0.0
C94 C 0.08373 0.30308 0.91068 0.0
H95 H 0.99194 0.2372 0.89259 0.0
O96 O 0.99105 0.25941 1.00322 0.0
O97 O 0.02145 0.3067 0.96614 0.0
O98 O 0.93918 0.268 0.95539 0.0
O99 O 0.97492 0.28752 0.90635 0.0
C100 C 0.14262 0.29977 0.91136 0.0
C101 C 0.16303 0.33817 0.92367 0.0
H102 H 0.19221 0.4117 0.94885 0.0
H103 H 0.15339 0.44355 0.95979 0.0
H104 H 0.02273 0.19772 0.88073 0.0
H105 H 0.09346 0.22592 0.88907 0.0
H106 H 0.15792 0.28405 0.90738 0.0
H107 H 0.19371 0.35138 0.929 0.0
Mn108 Mn 0.68096 0.97987 0.32634 0.0
Mn109 Mn 0.70753 0.02977 0.25163 0.0
C110 C 0.74563 0.02015 0.31407 0.0
C111 C 0.66565 0.98161 0.38502 0.0
C112 C 0.67908 0.94338 0.25563 0.0
O113 O 0.63177 0.9781 0.31039 0.0
O114 O 0.65292 0.01529 0.26221 0.0
C115 C 0.70618 0.09963 0.2754 0.0
N116 N 0.72604 0.08306 0.26197 0.0
C117 C 0.78558 0.14406 0.26235 0.0
C118 C 0.76569 0.16179 0.2759 0.0
C119 C 0.72582 0.13947 0.28243 0.0
C120 C 0.7644 0.1043 0.25548 0.0
H121 H 0.67565 0.08253 0.28097 0.0
C122 C 0.6268 0.99543 0.28481 0.0
O123 O 0.6553 0.94876 0.36964 0.0
O124 O 0.6837 0.01224 0.36625 0.0
N125 N 0.76005 0.04599 0.2396 0.0
C126 C 0.77546 0.02409 0.22865 0.0
C127 C 0.81526 0.04193 0.2217 0.0
C128 C 0.83883 0.08204 0.22621 0.0
C129 C 0.82233 0.10399 0.23748 0.0
C130 C 0.78238 0.08471 0.24348 0.0
H131 H 0.75757 0.9932 0.22548 0.0
O132 O 0.73524 0.99223 0.3362 0.0
O133 O 0.71748 0.02214 0.29936 0.0
O134 O 0.67456 0.93978 0.28875 0.0
O135 O 0.69011 0.97536 0.23967 0.0
C136 C 0.84412 0.14407 0.24379 0.0
C137 C 0.82577 0.16409 0.25625 0.0
H138 H 0.78081 0.19244 0.28174 0.0
H139 H 0.71031 0.1529 0.29314 0.0
H140 H 0.8278 0.02477 0.21315 0.0
H141 H 0.8696 0.09561 0.22127 0.0
H142 H 0.8751 0.1597 0.2396 0.0
H143 H 0.84292 0.1948 0.26148 0.0
Mn144 Mn 0.7013 0.67521 0.66141 0.0
Mn145 Mn 0.68193 0.70513 0.58671 0.0
C146 C 0.72692 0.74057 0.65118 0.0
C147 C 0.68096 0.65757 0.71911 0.0
C148 C 0.73767 0.67391 0.59218 0.0
O149 O 0.65515 0.62653 0.64203 0.0
O150 O 0.63928 0.65163 0.59662 0.0
C151 C 0.61284 0.70885 0.60896 0.0
N152 N 0.64952 0.72673 0.59605 0.0
C153 C 0.65213 0.78827 0.59538 0.0
C154 C 0.61423 0.7704 0.60826 0.0
C155 C 0.59452 0.73052 0.6151 0.0
C156 C 0.66878 0.76512 0.58942 0.0
H157 H 0.59782 0.67836 0.61487 0.0
C158 C 0.63262 0.62367 0.61718 0.0
O159 O 0.7042 0.64769 0.70445 0.0
O160 O 0.6691 0.67602 0.7 0.0
N161 N 0.72098 0.75691 0.57548 0.0
C162 C 0.75833 0.77026 0.56561 0.0
C163 C 0.78239 0.80982 0.55875 0.0
C164 C 0.76788 0.83525 0.5622 0.0
C165 C 0.72935 0.82086 0.57238 0.0
C166 C 0.70656 0.78107 0.57838 0.0
H167 H 0.76976 0.75093 0.56314 0.0
O168 O 0.74257 0.72901 0.6742 0.0
O169 O 0.69769 0.71322 0.63486 0.0
O170 O 0.7373 0.67082 0.62539 0.0
O171 O 0.7166 0.68436 0.57552 0.0
C172 C 0.71298 0.8446 0.57764 0.0
C173 C 0.67442 0.82833 0.58918 0.0
H174 H 0.60016 0.7871 0.61344 0.0
H175 H 0.5654 0.71659 0.62539 0.0
H176 H 0.81215 0.82072 0.55103 0.0
H177 H 0.78668 0.86582 0.55731 0.0
H178 H 0.72998 0.87551 0.57341 0.0
H179 H 0.66237 0.84697 0.59369 0.0
Mn180 Mn 0.0266 0.70126 0.99342 0.0
Mn181 Mn 0.97978 0.67889 0.91701 0.0
C182 C 0.98658 0.7255 0.97973 0.0
C183 C 0.02336 0.68357 0.05195 0.0
C184 C 0.06592 0.73634 0.92405 0.0
O185 O 0.02937 0.6543 0.97741 0.0
O186 O 0.99309 0.63821 0.92856 0.0
C187 C 0.90831 0.608 0.93844 0.0
N188 N 0.92593 0.64461 0.92543 0.0
C189 C 0.86545 0.64421 0.92344 0.0
C190 C 0.84665 0.6064 0.93654 0.0
C191 C 0.86818 0.58823 0.94405 0.0
C192 C 0.90545 0.66231 0.91798 0.0
H193 H 0.9248 0.59411 0.94477 0.0
C194 C 0.01253 0.63198 0.95163 0.0
O195 O 0.05656 0.70641 0.03732 0.0
O196 O 0.99314 0.67091 0.0325 0.0
N197 N 0.96486 0.71592 0.90409 0.0
C198 C 0.98771 0.75333 0.89392 0.0
C199 C 0.97074 0.77592 0.88623 0.0
C200 C 0.93052 0.75989 0.88924 0.0
C201 C 0.90759 0.72132 0.89976 0.0
C202 C 0.92605 0.70002 0.90654 0.0
H203 H 0.01868 0.76594 0.89192 0.0
O204 O 0.01349 0.74269 1.00288 0.0
O205 O 0.98537 0.69573 0.96498 0.0
O206 O 0.06785 0.73587 0.95731 0.0
O207 O 0.03491 0.71524 0.90679 0.0
C208 C 0.86728 0.7035 0.90463 0.0
C209 C 0.84624 0.66499 0.9165 0.0
H210 H 0.81577 0.59122 0.94131 0.0
H211 H 0.85392 0.55916 0.95443 0.0
H212 H 0.98865 0.80572 0.87828 0.0
H213 H 0.9176 0.77757 0.88374 0.0
H214 H 0.85226 0.71934 0.89982 0.0
H215 H 0.81536 0.65181 0.92067 0.0
Mn216 Mn 0.97881 0.67692 0.36698 0.0
Mn217 Mn 0.03157 0.70916 0.43971 0.0
C218 C 0.01895 0.74261 0.37542 0.0
C219 C 0.97856 0.65764 0.30938 0.0
C220 C 0.9443 0.67728 0.43746 0.0
O221 O 0.97748 0.62894 0.38656 0.0
O222 O 0.02063 0.65547 0.43035 0.0
C223 C 0.1035 0.71276 0.41483 0.0
N224 N 0.08512 0.73082 0.42831 0.0
C225 C 0.14368 0.79264 0.42626 0.0
C226 C 0.1633 0.7746 0.41276 0.0
C227 C 0.14311 0.73449 0.407 0.0
C228 C 0.10427 0.76942 0.43391 0.0
H229 H 0.08798 0.68207 0.40974 0.0
C230 C 0.99846 0.6269 0.41064 0.0
O231 O 0.94622 0.64816 0.32532 0.0
O232 O 0.00987 0.67664 0.3272 0.0
N233 N 0.04445 0.76116 0.45025 0.0
C234 C 0.02075 0.77455 0.461 0.0
C235 C 0.03628 0.81428 0.46707 0.0
C236 C 0.07594 0.83984 0.46191 0.0
C237 C 0.09978 0.82541 0.45084 0.0
C238 C 0.08278 0.78546 0.44571 0.0
H239 H 0.99019 0.75512 0.46478 0.0
O240 O 0.99052 0.73027 0.35357 0.0
O241 O 0.02165 0.71578 0.39182 0.0
O242 O 0.94015 0.67335 0.40439 0.0
O243 O 0.97659 0.68836 0.453 0.0
C244 C 0.13952 0.84923 0.44386 0.0
C245 C 0.16144 0.83287 0.43152 0.0
H246 H 0.19374 0.79133 0.40629 0.0
H247 H 0.15796 0.72042 0.39624 0.0
H248 H 0.01766 0.82521 0.47548 0.0
H249 H 0.08771 0.87052 0.46619 0.0
H250 H 0.15339 0.88025 0.44737 0.0
H251 H 0.19182 0.85155 0.42568 0.0
Mn252 Mn 0.30445 0.97819 0.70051 0.0
Mn253 Mn 0.32518 0.03068 0.77348 0.0
C254 C 0.27877 0.01814 0.70938 0.0
C255 C 0.32325 0.97806 0.64282 0.0
C256 C 0.26972 0.94352 0.77096 0.0
O257 O 0.35114 0.97673 0.71988 0.0
O258 O 0.36775 0.01949 0.76401 0.0
C259 C 0.39369 0.10249 0.74882 0.0
N260 N 0.35726 0.08422 0.76229 0.0
C261 C 0.35443 0.14303 0.76087 0.0
C262 C 0.39208 0.16253 0.74736 0.0
C263 C 0.41176 0.14216 0.74129 0.0
C264 C 0.33802 0.10355 0.76819 0.0
H265 H 0.40869 0.08684 0.74352 0.0
C266 C 0.37408 0.99739 0.74413 0.0
O267 O 0.30048 0.9457 0.65872 0.0
O268 O 0.3356 0.00932 0.66073 0.0
N269 N 0.28626 0.0438 0.78423 0.0
C270 C 0.24915 0.02021 0.79494 0.0
C271 C 0.22514 0.03592 0.80125 0.0
C272 C 0.23945 0.07565 0.79639 0.0
C273 C 0.27774 0.09937 0.78538 0.0
C274 C 0.3005 0.08218 0.77997 0.0
H275 H 0.23787 0.98961 0.79849 0.0
O276 O 0.26269 0.98986 0.68737 0.0
O277 O 0.30847 0.02093 0.72559 0.0
O278 O 0.26953 0.93943 0.73788 0.0
O279 O 0.29087 0.97577 0.78658 0.0
C280 C 0.29388 0.13918 0.77874 0.0
C281 C 0.33219 0.16099 0.76645 0.0
H282 H 0.40595 0.19303 0.74114 0.0
H283 H 0.44068 0.15692 0.73054 0.0
H284 H 0.19557 0.01741 0.80962 0.0
H285 H 0.22068 0.08757 0.80087 0.0
H286 H 0.2769 0.15321 0.78248 0.0
H287 H 0.34406 0.19144 0.76091 0.0
Mn288 Mn 0.32873 0.30498 0.03493 0.0
Mn289 Mn 0.29751 0.32429 0.10894 0.0
C290 C 0.26311 0.27775 0.04504 0.0
C291 C 0.34497 0.32402 0.97678 0.0
C292 C 0.33103 0.27041 0.10489 0.0
O293 O 0.37655 0.3524 0.05363 0.0
O294 O 0.35084 0.36753 0.09913 0.0
C295 C 0.29241 0.39209 0.08516 0.0
N296 N 0.275 0.35563 0.09848 0.0
C297 C 0.21267 0.35136 0.09739 0.0
C298 C 0.23004 0.38902 0.08405 0.0
C299 C 0.27008 0.40945 0.0779 0.0
C300 C 0.23647 0.3357 0.10449 0.0
H301 H 0.32304 0.40765 0.07976 0.0
C302 C 0.37895 0.37471 0.07851 0.0
O303 O 0.3568 0.30259 0.9919 0.0
O304 O 0.32602 0.33536 0.99582 0.0
N305 N 0.2459 0.28469 0.12006 0.0
C306 C 0.23318 0.24768 0.13056 0.0
C307 C 0.19361 0.22301 0.13698 0.0
C308 C 0.16751 0.23656 0.1324 0.0
C309 C 0.18125 0.27475 0.12157 0.0
C310 C 0.22109 0.2982 0.11609 0.0
H311 H 0.25303 0.23698 0.13384 0.0
O312 O 0.27547 0.26215 0.02267 0.0
O313 O 0.28996 0.30765 0.06107 0.0
O314 O 0.33482 0.27079 0.07174 0.0
O315 O 0.3192 0.29066 0.12106 0.0
C316 C 0.15686 0.29013 0.11514 0.0
C317 C 0.17254 0.32838 0.103 0.0
H318 H 0.21283 0.40233 0.07801 0.0
H319 H 0.28363 0.43838 0.06727 0.0
H320 H 0.1832 0.19352 0.14519 0.0
H321 H 0.13694 0.21727 0.13694 0.0
H322 H 0.1259 0.27259 0.11893 0.0
H323 H 0.15341 0.33966 0.09759 0.0
Mn324 Mn 0.0288 0.33011 0.36644 0.0
Mn325 Mn 0.97781 0.29919 0.44019 0.0
C326 C 0.98904 0.26461 0.37594 0.0
C327 C 0.0275 0.34802 0.30864 0.0
C328 C 0.06498 0.33095 0.43636 0.0
O329 O 0.0305 0.37845 0.38568 0.0
O330 O 0.98872 0.35278 0.43051 0.0
C331 C 0.90544 0.29548 0.41656 0.0
N332 N 0.92403 0.27753 0.42976 0.0
C333 C 0.86531 0.2158 0.42884 0.0
C334 C 0.84548 0.23373 0.41564 0.0
C335 C 0.86565 0.27374 0.40946 0.0
C336 C 0.90489 0.23902 0.43578 0.0
H337 H 0.92093 0.32609 0.41114 0.0
C338 C 0.01027 0.38095 0.41023 0.0
O339 O 0.06026 0.35799 0.32401 0.0
O340 O 0.99669 0.32942 0.32715 0.0
N341 N 0.965 0.24732 0.4511 0.0
C342 C 0.98886 0.23398 0.46146 0.0
C343 C 0.97336 0.19433 0.46783 0.0
C344 C 0.93357 0.16879 0.46338 0.0
C345 C 0.90957 0.18317 0.45271 0.0
C346 C 0.92655 0.22305 0.44725 0.0
H347 H 0.01951 0.2534 0.46467 0.0
O348 O 0.01695 0.27656 0.35358 0.0
O349 O 0.98661 0.29171 0.39218 0.0
O350 O 0.06842 0.33449 0.40323 0.0
O351 O 0.03304 0.32002 0.45247 0.0
C352 C 0.86967 0.15935 0.44643 0.0
C353 C 0.84757 0.17564 0.43445 0.0
H354 H 0.81489 0.21698 0.40972 0.0
H355 H 0.85063 0.28773 0.39893 0.0
H356 H 0.99209 0.18344 0.47593 0.0
H357 H 0.92182 0.13816 0.46789 0.0
H358 H 0.8558 0.12837 0.45021 0.0
H359 H 0.81705 0.15694 0.42916 0.0
Mn360 Mn 0.69967 0.02441 0.70098 0.0
Mn361 Mn 0.67829 0.97111 0.77345 0.0
C362 C 0.72524 0.98434 0.70977 0.0
C363 C 0.68159 0.02471 0.64299 0.0
C364 C 0.73461 0.0582 0.77195 0.0
O365 O 0.65276 0.02568 0.71983 0.0
O366 O 0.63658 0.98373 0.76447 0.0
C367 C 0.60881 0.90061 0.74796 0.0
N368 N 0.64516 0.9179 0.7616 0.0
C369 C 0.64613 0.85814 0.75951 0.0
C370 C 0.60854 0.83963 0.74585 0.0
C371 C 0.58983 0.86099 0.74001 0.0
C372 C 0.66348 0.89763 0.76722 0.0
H373 H 0.59454 0.91701 0.74285 0.0
C374 C 0.63012 0.00558 0.74441 0.0
O375 O 0.7041 0.05704 0.65913 0.0
O376 O 0.66907 0.99345 0.66082 0.0
N377 N 0.71621 0.95651 0.78385 0.0
C378 C 0.75339 0.97918 0.79481 0.0
C379 C 0.77649 0.96242 0.80096 0.0
C380 C 0.7612 0.92259 0.79568 0.0
C381 C 0.72285 0.89983 0.78441 0.0
C382 C 0.70102 0.91804 0.77919 0.0
H383 H 0.76544 0.00986 0.79867 0.0
O384 O 0.74167 0.01293 0.68818 0.0
O385 O 0.69529 0.98132 0.72571 0.0
O386 O 0.73398 0.06294 0.73901 0.0
O387 O 0.71379 0.02557 0.78704 0.0
C388 C 0.70575 0.85997 0.77738 0.0
C389 C 0.66743 0.83915 0.76492 0.0
H390 H 0.59396 0.80917 0.73933 0.0
H391 H 0.56096 0.847 0.72914 0.0
H392 H 0.80611 0.98021 0.80952 0.0
H393 H 0.77926 0.90986 0.80003 0.0
H394 H 0.722 0.84516 0.78098 0.0
H395 H 0.6548 0.80865 0.7591 0.0
Mn396 Mn 0.67623 0.69911 0.03368 0.0
Mn397 Mn 0.70978 0.67871 0.10565 0.0
C398 C 0.74206 0.72449 0.04118 0.0
C399 C 0.65627 0.67968 0.97615 0.0
C400 C 0.67925 0.73529 0.10445 0.0
O401 O 0.62843 0.65282 0.05362 0.0
O402 O 0.65516 0.63703 0.09776 0.0
C403 C 0.70988 0.6087 0.08037 0.0
N404 N 0.7294 0.64524 0.09354 0.0
C405 C 0.79 0.64599 0.09013 0.0
C406 C 0.77045 0.6082 0.07694 0.0
C407 C 0.73023 0.5895 0.07201 0.0
C408 C 0.76813 0.66355 0.09831 0.0
H409 H 0.67908 0.59444 0.07594 0.0
C410 C 0.62639 0.63049 0.07828 0.0
O411 O 0.64706 0.70274 0.99212 0.0
O412 O 0.67543 0.66754 0.99387 0.0
N413 N 0.76258 0.71661 0.11501 0.0
C414 C 0.77747 0.75393 0.12567 0.0
C415 C 0.8175 0.777 0.131 0.0
C416 C 0.84182 0.76153 0.12519 0.0
C417 C 0.82585 0.72304 0.11424 0.0
C418 C 0.78567 0.70125 0.10987 0.0
H419 H 0.75899 0.7661 0.12992 0.0
O420 O 0.72945 0.74062 0.0197 0.0
O421 O 0.71546 0.69497 0.05777 0.0
O422 O 0.67315 0.73424 0.07159 0.0
O423 O 0.69129 0.71457 0.11941 0.0
C424 C 0.84834 0.70575 0.10671 0.0
C425 C 0.83043 0.66727 0.09462 0.0
H426 H 0.7861 0.59345 0.0701 0.0
H427 H 0.71498 0.56048 0.06151 0.0
H428 H 0.82962 0.80673 0.13932 0.0
H429 H 0.87273 0.77957 0.1289 0.0
H430 H 0.87949 0.72197 0.10964 0.0
H431 H 0.84809 0.6545 0.08839 0.0
H432 H 0.35978 0.08309 0.1913 0.0
H433 H 0.31968 0.12433 0.27635 0.0
H434 H 0.36542 0.13527 0.15477 0.0
H435 H 0.32317 0.17551 0.23932 0.0
H436 H 0.35339 0.2791 0.17279 0.0
H437 H 0.35943 0.2332 0.20996 0.0
H438 H 0.32843 0.15412 0.12326 0.0
H439 H 0.32453 0.20119 0.08579 0.0
C440 C 0.35222 0.10347 0.20222 0.0
C441 C 0.33925 0.09954 0.23676 0.0
C442 C 0.35506 0.13327 0.1811 0.0
C443 C 0.34427 0.15966 0.19363 0.0
C444 C 0.33232 0.1563 0.22863 0.0
C445 C 0.33018 0.12683 0.24999 0.0
C446 C 0.34838 0.25208 0.16157 0.0
C447 C 0.33849 0.24383 0.12627 0.0
C448 C 0.35146 0.22548 0.18304 0.0
C449 C 0.34404 0.18944 0.17002 0.0
C450 C 0.33504 0.18166 0.13438 0.0
C451 C 0.33264 0.20864 0.11275 0.0
H452 H 0.19993 0.3209 0.60861 0.0
H453 H 0.27995 0.35617 0.52278 0.0
H454 H 0.15245 0.32441 0.57134 0.0
H455 H 0.23364 0.36194 0.48589 0.0
H456 H 0.1264 0.32205 0.41763 0.0
H457 H 0.17726 0.32559 0.45511 0.0
H458 H 0.13152 0.3603 0.54107 0.0
H459 H 0.07961 0.35449 0.50394 0.0
C460 C 0.20774 0.33038 0.58199 0.0
C461 C 0.24366 0.3381 0.56867 0.0
C462 C 0.18051 0.33254 0.56047 0.0
C463 C 0.18875 0.34319 0.52518 0.0
C464 C 0.22553 0.35261 0.51248 0.0
C465 C 0.25237 0.34971 0.5338 0.0
C466 C 0.12754 0.33084 0.44444 0.0
C467 C 0.09884 0.33782 0.45778 0.0
C468 C 0.15687 0.33306 0.46607 0.0
C469 C 0.15874 0.34304 0.50152 0.0
C470 C 0.13077 0.35154 0.51433 0.0
C471 C 0.10108 0.34859 0.49289 0.0
H472 H 0.78241 0.13456 0.75357 0.0
H473 H 0.74886 0.05702 0.84137 0.0
H474 H 0.82904 0.18725 0.79025 0.0
H475 H 0.796 0.10901 0.87743 0.0
H476 H 0.86775 0.21565 0.9428 0.0
H477 H 0.8147 0.1682 0.90676 0.0
H478 H 0.88953 0.20729 0.81691 0.0
H479 H 0.94162 0.25502 0.85225 0.0
C480 C 0.78485 0.12868 0.78063 0.0
C481 C 0.76182 0.09132 0.79427 0.0
C482 C 0.81179 0.1589 0.8017 0.0
C483 C 0.8166 0.15254 0.83694 0.0
C484 C 0.79289 0.11538 0.85068 0.0
C485 C 0.7659 0.08532 0.82974 0.0
C486 C 0.87272 0.21438 0.9153 0.0
C487 C 0.90919 0.23928 0.90067 0.0
C488 C 0.84234 0.18696 0.89459 0.0
C489 C 0.84767 0.18367 0.85876 0.0
C490 C 0.88389 0.20919 0.84415 0.0
C491 C 0.91405 0.23655 0.86469 0.0
H492 H 0.69601 0.75018 0.17365 0.0
H493 H 0.6503 0.78294 0.08655 0.0
H494 H 0.69141 0.79733 0.20993 0.0
H495 H 0.64452 0.8296 0.12346 0.0
H496 H 0.68908 0.94212 0.18548 0.0
H497 H 0.68491 0.89022 0.14997 0.0
H498 H 0.65093 0.81566 0.23987 0.0
H499 H 0.65634 0.86854 0.27608 0.0
C500 C 0.68445 0.76707 0.16222 0.0
C501 C 0.67376 0.76272 0.12688 0.0
C502 C 0.68152 0.79406 0.1833 0.0
C503 C 0.66763 0.81753 0.16984 0.0
C504 C 0.65595 0.81253 0.13471 0.0
C505 C 0.65907 0.78558 0.1135 0.0
C506 C 0.68042 0.91465 0.1979 0.0
C507 C 0.67324 0.90982 0.23394 0.0
C508 C 0.67772 0.8846 0.17726 0.0
C509 C 0.66756 0.8485 0.19182 0.0
C510 C 0.65939 0.8432 0.22773 0.0
C511 C 0.66225 0.87348 0.24853 0.0
H512 H 0.93176 0.65585 0.50566 0.0
H513 H 0.88158 0.68423 0.41934 0.0
H514 H 0.87998 0.64951 0.5433 0.0
H515 H 0.83083 0.68012 0.45729 0.0
H516 H 0.72829 0.64728 0.5257 0.0
H517 H 0.77526 0.64281 0.4887 0.0
H518 H 0.85759 0.68443 0.57337 0.0
H519 H 0.80946 0.68664 0.61083 0.0
C520 C 0.9096 0.66079 0.49471 0.0
C521 C 0.91082 0.67052 0.45943 0.0
C522 C 0.87998 0.65751 0.51645 0.0
C523 C 0.85102 0.66461 0.50375 0.0
C524 C 0.85198 0.6737 0.46818 0.0
C525 C 0.88126 0.67625 0.44628 0.0
C526 C 0.75628 0.65494 0.53653 0.0
C527 C 0.76512 0.6673 0.57124 0.0
C528 C 0.7835 0.65279 0.51514 0.0
C529 C 0.82078 0.66375 0.52758 0.0
C530 C 0.82919 0.67516 0.56271 0.0
C531 C 0.80159 0.67656 0.58433 0.0
H532 H 0.20068 0.88023 0.75242 0.0
H533 H 0.27818 0.93145 0.83939 0.0
H534 H 0.15409 0.82931 0.79018 0.0
H535 H 0.23275 0.87957 0.87688 0.0
H536 H 0.12396 0.80848 0.94314 0.0
H537 H 0.17468 0.85681 0.90612 0.0
H538 H 0.13678 0.77398 0.8219 0.0
H539 H 0.08503 0.72678 0.8584 0.0
C540 C 0.20812 0.88013 0.77947 0.0
C541 C 0.24309 0.91001 0.79285 0.0
C542 C 0.18143 0.85076 0.80126 0.0
C543 C 0.18929 0.85007 0.83694 0.0
C544 C 0.22501 0.87936 0.8499 0.0
C545 C 0.25132 0.90904 0.82826 0.0
C546 C 0.1269 0.80055 0.91686 0.0
C547 C 0.10038 0.76389 0.90368 0.0
C548 C 0.15609 0.82825 0.8955 0.0
C549 C 0.15991 0.81974 0.86059 0.0
C550 C 0.13435 0.78226 0.84815 0.0
C551 C 0.10482 0.75493 0.86926 0.0
H552 H 0.42942 0.02347 0.22945 0.0
H553 H 0.41515 0.99449 0.33831 0.0
H554 H 0.48925 0.02082 0.22858 0.0
H555 H 0.47231 0.98803 0.33722 0.0
H556 H 0.59404 0.01235 0.33794 0.0
H557 H 0.53689 0.01882 0.33702 0.0
H558 H 0.51916 0.98503 0.22857 0.0
H559 H 0.57902 0.98239 0.22923 0.0
C560 C 0.43911 0.01625 0.2531 0.0
C561 C 0.41829 0.00984 0.28407 0.0
C562 C 0.47316 0.01423 0.25263 0.0
C563 C 0.48629 0.0044 0.2829 0.0
C564 C 0.46441 0.99704 0.3136 0.0
C565 C 0.43131 1.00043 0.31428 0.0
C566 C 0.57771 0.0062 0.31398 0.0
C567 C 0.59051 0.9965 0.28376 0.0
C568 C 0.54461 0.00958 0.31341 0.0
C569 C 0.52251 1.00193 0.28283 0.0
C570 C 0.53542 0.99183 0.25254 0.0
C571 C 0.56948 0.98982 0.25288 0.0
H572 H 0.56634 0.61253 0.58598 0.0
H573 H 0.61498 0.55165 0.63973 0.0
H574 H 0.50372 0.553 0.58354 0.0
H575 H 0.55235 0.49188 0.63636 0.0
H576 H 0.44164 0.38785 0.58635 0.0
H577 H 0.50466 0.44711 0.58444 0.0
H578 H 0.45596 0.50929 0.63544 0.0
H579 H 0.39305 0.4499 0.63829 0.0
C580 C 0.56385 0.5864 0.59689 0.0
C581 C 0.59564 0.58687 0.6132 0.0
C582 C 0.52797 0.55243 0.59559 0.0
C583 C 0.52337 0.51806 0.60982 0.0
C584 C 0.55532 0.51808 0.6251 0.0
C585 C 0.59104 0.55227 0.6271 0.0
C586 C 0.44426 0.41417 0.59699 0.0
C587 C 0.41236 0.41416 0.61259 0.0
C588 C 0.48035 0.44796 0.59601 0.0
C589 C 0.48499 0.48256 0.60982 0.0
C590 C 0.45296 0.48292 0.62449 0.0
C591 C 0.41707 0.44895 0.62621 0.0
H592 H 0.0238 0.59663 0.89557 0.0
H593 H 0.99831 0.58331 1.00517 0.0
H594 H 0.02125 0.53422 0.89453 0.0
H595 H 0.99198 0.51979 1.00399 0.0
H596 H 0.01548 0.42199 1.00359 0.0
H597 H 0.02268 0.4859 1.00267 0.0
H598 H 0.9851 0.46853 0.89525 0.0
H599 H 0.98172 0.40569 0.89581 0.0
C600 C 0.01742 0.58007 0.91936 0.0
C601 C 0.01191 0.59484 0.95055 0.0
C602 C 0.01545 0.54404 0.9188 0.0
C603 C 0.00658 0.52148 0.94923 0.0
C604 C 1.00023 0.53639 0.9802 0.0
C605 C 0.00356 0.57283 0.98094 0.0
C606 C 0.0087 0.43198 0.97986 0.0
C607 C 0.99766 0.40899 0.94989 0.0
C608 C 0.01249 0.46861 0.97929 0.0
C609 C 0.00393 0.48274 0.94902 0.0
C610 C 0.99261 0.45929 0.91897 0.0
C611 C 0.99016 0.42304 0.91926 0.0
H612 H 0.94342 0.5543 0.38993 0.0
H613 H 0.05521 0.61681 0.43986 0.0
H614 H 0.94678 0.49484 0.39301 0.0
H615 H 0.05872 0.55749 0.44208 0.0
H616 H 0.06455 0.45315 0.38799 0.0
H617 H 0.06137 0.51271 0.39132 0.0
H618 H 0.95125 0.45104 0.44354 0.0
H619 H 0.95462 0.39165 0.44106 0.0
C620 C 0.96859 0.55534 0.40167 0.0
C621 C 0.99906 0.59031 0.41459 0.0
C622 C 0.97042 0.52132 0.40352 0.0
C623 C 1.00307 0.52177 0.41766 0.0
C624 C 0.03335 0.55653 0.43089 0.0
C625 C 0.03118 0.59038 0.42974 0.0
C626 C 0.03983 0.45235 0.40047 0.0
C627 C 0.00982 0.41763 0.4142 0.0
C628 C 0.03811 0.48643 0.40246 0.0
C629 C 0.006 0.48627 0.41757 0.0
C630 C 0.9762 0.45177 0.43161 0.0
C631 C 0.97828 0.41788 0.43029 0.0
H632 H 0.56347 0.95029 0.77506 0.0
H633 H 0.61321 0.06077 0.72295 0.0
H634 H 0.50108 0.9478 0.77758 0.0
H635 H 0.55088 0.05846 0.7263 0.0
H636 H 0.44099 0.05347 0.77383 0.0
H637 H 0.50342 0.05606 0.7766 0.0
H638 H 0.45338 0.94434 0.727 0.0
H639 H 0.39099 0.94191 0.72341 0.0
C640 C 0.56127 0.97426 0.76454 0.0
C641 C 0.5933 0.00568 0.74865 0.0
C642 C 0.52551 0.97268 0.76587 0.0
C643 C 0.5213 0.00288 0.75208 0.0
C644 C 0.55352 0.0349 0.73726 0.0
C645 C 0.58909 0.03612 0.73525 0.0
C646 C 0.44315 0.0293 0.76372 0.0
C647 C 0.41103 0.99752 0.74827 0.0
C648 C 0.47893 0.03093 0.7652 0.0
C649 C 0.48308 1.00044 0.75198 0.0
C650 C 0.45079 0.96812 0.73753 0.0
C651 C 0.41519 0.96683 0.73537 0.0
H652 H 0.45123 0.39222 0.05715 0.0
H653 H 0.38949 0.44112 0.10911 0.0
H654 H 0.51103 0.45462 0.06109 0.0
H655 H 0.44921 0.50365 0.11224 0.0
H656 H 0.55395 0.61388 0.05816 0.0
H657 H 0.49393 0.55167 0.06198 0.0
H658 H 0.55543 0.50174 0.112 0.0
H659 H 0.61535 0.56403 0.10901 0.0
C660 C 0.45044 0.4162 0.06951 0.0
C661 C 0.41561 0.41174 0.08274 0.0
C662 C 0.48466 0.45179 0.07189 0.0
C663 C 0.48455 0.4838 0.08691 0.0
C664 C 0.44991 0.47936 0.10044 0.0
C665 C 0.41584 0.44356 0.09874 0.0
C666 C 0.55461 0.58977 0.07032 0.0
C667 C 0.58945 0.59388 0.08317 0.0
C668 C 0.52026 0.55427 0.07261 0.0
C669 C 0.52025 0.52204 0.08715 0.0
C670 C 0.55483 0.5262 0.10052 0.0
C671 C 0.58903 0.56189 0.09891 0.0
H672 H 0.03111 0.81626 0.38252 0.0
H673 H 0.08385 0.75052 0.34826 0.0
H674 H 0.0898 0.87641 0.36593 0.0
H675 H 0.14066 0.80921 0.32928 0.0
H676 H 0.25361 0.91894 0.33557 0.0
H677 H 0.19424 0.86158 0.3521 0.0
H678 H 0.12881 0.91585 0.3196 0.0
H679 H 0.18966 0.97491 0.30524 0.0
C680 C 0.05536 0.8149 0.37147 0.0
C681 C 0.0539 0.77931 0.3677 0.0
C682 C 0.08867 0.8491 0.36151 0.0
C683 C 0.12029 0.84782 0.34658 0.0
C684 C 0.11765 0.81167 0.34172 0.0
C685 C 0.08505 0.77795 0.35249 0.0
C686 C 0.22643 0.91832 0.33147 0.0
C687 C 0.22582 0.95065 0.31822 0.0
C688 C 0.19229 0.88539 0.34088 0.0
C689 C 0.15645 0.88367 0.33676 0.0
C690 C 0.15587 0.91624 0.32341 0.0
C691 C 0.19047 0.9498 0.31473 0.0
H692 H 0.21564 0.18826 0.64048 0.0
H693 H 0.3348 0.2524 0.67319 0.0
H694 H 0.21385 0.12745 0.65526 0.0
H695 H 0.33274 0.19311 0.69007 0.0
H696 H 0.21651 0.02907 0.71686 0.0
H697 H 0.21421 0.08764 0.7014 0.0
H698 H 0.33265 0.14062 0.66545 0.0
H699 H 0.33528 0.08385 0.68315 0.0
C700 C 0.24133 0.18914 0.65074 0.0
C701 C 0.27572 0.22449 0.65464 0.0
C702 C 0.24029 0.15457 0.65961 0.0
C703 C 0.27332 0.15525 0.67349 0.0
C704 C 0.30712 0.19113 0.67842 0.0
C705 C 0.30836 0.22521 0.66883 0.0
C706 C 0.242 0.05374 0.7062 0.0
C707 C 0.27646 0.05289 0.70228 0.0
C708 C 0.24065 0.08699 0.69692 0.0
C709 C 0.27342 0.11916 0.68257 0.0
C710 C 0.30725 0.11712 0.67749 0.0
C711 C 0.30882 0.08457 0.68753 0.0
H712 H 0.25423 0.33443 0.01886 0.0
H713 H 0.18975 0.21559 0.05209 0.0
H714 H 0.19514 0.33195 1.00037 0.0
H715 H 0.12911 0.21347 0.03586 0.0
H716 H 0.08519 0.33397 1.006 0.0
H717 H 0.14231 0.33205 0.02373 0.0
H718 H 0.08973 0.21316 0.98912 0.0
H719 H 0.03079 0.21477 0.97358 0.0
C720 C 0.22699 0.30799 0.02301 0.0
C721 C 0.2261 0.27554 0.03779 0.0
C722 C 0.19302 0.30651 1.0125 0.0
C723 C 0.1571 0.27271 0.01715 0.0
C724 C 0.15627 0.23989 0.03167 0.0
C725 C 0.19072 0.24114 0.0414 0.0
C726 C 0.08609 0.30758 1.00181 0.0
C727 C 0.05434 0.27486 0.98752 0.0
C728 C 0.11887 0.30642 1.01189 0.0
C729 C 0.12106 0.27263 1.00735 0.0
C730 C 0.08895 0.23959 0.99321 0.0
C731 C 0.05549 0.24054 0.98387 0.0
H732 H 0.92307 0.25576 0.35055 0.0
H733 H 0.97779 0.19132 0.383 0.0
H734 H 0.86615 0.19661 0.33255 0.0
H735 H 0.91908 0.1307 0.36728 0.0
H736 H 0.81911 0.0321 0.30594 0.0
H737 H 0.87968 0.09123 0.32093 0.0
H738 H 0.81339 0.14374 0.35589 0.0
H739 H 0.75427 0.08637 0.33871 0.0
C740 C 0.92229 0.22852 0.35464 0.0
C741 C 0.95404 0.22765 0.36905 0.0
C742 C 0.88963 0.19453 0.34441 0.0
C743 C 0.88758 0.15862 0.34895 0.0
C744 C 0.91975 0.15783 0.36314 0.0
C745 C 0.95308 0.19229 0.37259 0.0
C746 C 0.81804 0.05682 0.31619 0.0
C747 C 0.78253 0.05555 0.32011 0.0
C748 C 0.85248 0.0904 0.32522 0.0
C749 C 0.85157 0.12254 0.33933 0.0
C750 C 0.81556 0.12027 0.34408 0.0
C751 C 0.78157 0.08735 0.33431 0.0
H752 H 0.78919 0.81371 0.64375 0.0
H753 H 0.6694 0.74995 0.67452 0.0
H754 H 0.7908 0.87467 0.65745 0.0
H755 H 0.6712 0.80945 0.69031 0.0
H756 H 0.66913 0.91879 0.68276 0.0
H757 H 0.6719 0.86194 0.66543 0.0
H758 H 0.78985 0.91484 0.70275 0.0
H759 H 0.78747 0.97348 0.71776 0.0
C760 C 0.76331 0.81296 0.65335 0.0
C761 C 0.72883 0.77767 0.65702 0.0
C762 C 0.76424 0.84762 0.6616 0.0
C763 C 0.73098 0.84712 0.67465 0.0
C764 C 0.69703 0.8113 0.67932 0.0
C765 C 0.69594 0.7771 0.67035 0.0
C766 C 0.69554 0.91805 0.68746 0.0
C767 C 0.72772 0.9497 0.7025 0.0
C768 C 0.69717 0.88545 0.67764 0.0
C769 C 0.73087 0.88334 0.68327 0.0
C770 C 0.76351 0.91553 0.69783 0.0
C771 C 0.76211 0.94883 0.70686 0.0
H772 H 0.75025 0.66778 0.01372 0.0
H773 H 0.81556 0.78631 0.04785 0.0
H774 H 0.80912 0.67 0.99461 0.0
H775 H 0.87587 0.7881 0.03122 0.0
H776 H 0.97508 0.78724 0.97148 0.0
H777 H 0.91569 0.7887 0.98528 0.0
H778 H 0.86147 0.66897 0.0175 0.0
H779 H 0.9192 0.66732 1.00156 0.0
C780 C 0.77762 0.69409 0.01787 0.0
C781 C 0.77883 0.72651 0.03313 0.0
C782 C 0.81145 0.69541 1.00703 0.0
C783 C 0.84753 0.72901 1.0119 0.0
C784 C 0.84862 0.76183 0.02679 0.0
C785 C 0.81433 0.76077 0.03678 0.0
C786 C 0.94992 0.76124 0.98079 0.0
C787 C 0.95089 0.72685 0.9844 0.0
C788 C 0.91617 0.7621 0.98914 0.0
C789 C 0.88351 0.72885 1.00227 0.0
C790 C 0.88535 0.69482 1.00647 0.0
C791 C 0.91849 0.6938 0.9974 0.0
H792 H 0.33378 0.95842 0.41698 0.0
H793 H 0.36024 0.07531 0.43845 0.0
H794 H 0.3338 0.94622 0.47878 0.0
H795 H 0.35944 0.06282 0.50078 0.0
H796 H 0.3821 0.0388 0.60971 0.0
H797 H 0.39151 0.05005 0.54752 0.0
H798 H 0.29327 0.93662 0.52836 0.0
H799 H 0.28441 0.92507 0.59101 0.0
C800 C 0.33988 0.98169 0.43495 0.0
C801 C 0.34687 0.01787 0.4228 0.0
C802 C 0.33958 0.97452 0.47046 0.0
C803 C 0.34616 0.00329 0.49489 0.0
C804 C 0.35459 0.04003 0.48271 0.0
C805 C 0.35504 0.04728 0.447 0.0
C806 C 0.36286 0.01594 0.59223 0.0
C807 C 0.33238 0.98103 0.60527 0.0
C808 C 0.36807 0.0226 0.55653 0.0
C809 C 0.34284 0.99459 0.53283 0.0
C810 C 0.31346 0.95881 0.54584 0.0
C811 C 0.30835 0.95206 0.58174 0.0
H812 H 0.30484 0.34983 0.93992 0.0
H813 H 0.39222 0.31704 0.92813 0.0
H814 H 0.30434 0.35883 0.87812 0.0
H815 H 0.39376 0.32862 0.86554 0.0
H816 H 0.34885 0.3015 0.7542 0.0
H817 H 0.3586 0.30146 0.816 0.0
H818 H 0.33155 0.39311 0.82837 0.0
H819 H 0.3192 0.39112 0.76591 0.0
C820 C 0.32472 0.34533 0.92411 0.0
C821 C 0.34851 0.33249 0.93903 0.0
C822 C 0.32468 0.35093 0.88839 0.0
C823 C 0.34898 0.34458 0.8663 0.0
C824 C 0.37396 0.33308 0.88143 0.0
C825 C 0.3734 0.32668 0.91738 0.0
C826 C 0.34519 0.32193 0.77 0.0
C827 C 0.333 0.34623 0.75509 0.0
C828 C 0.35122 0.32215 0.80569 0.0
C829 C 0.34596 0.34723 0.8277 0.0
C830 C 0.33513 0.3727 0.81255 0.0
C831 C 0.32827 0.37187 0.77667 0.0
H832 H 0.96498 0.34304 0.27606 0.0
H833 H 0.08013 0.36331 0.25622 0.0
H834 H 0.9527 0.34025 0.21399 0.0
H835 H 0.0676 0.35979 0.1937 0.0
H836 H 0.0438 0.37752 0.0829 0.0
H837 H 0.056 0.39003 0.14467 0.0
H838 H 0.94111 0.2958 0.16684 0.0
H839 H 0.9286 0.28374 0.10445 0.0
C840 C 0.98792 0.34738 0.25837 0.0
C841 C 0.02356 0.35331 0.27107 0.0
C842 C 0.98068 0.34539 0.22273 0.0
C843 C 0.00886 0.34921 0.19875 0.0
C844 C 0.04526 0.35698 0.21141 0.0
C845 C 0.05257 0.3591 0.24724 0.0
C846 C 0.02087 0.35969 0.1009 0.0
C847 C 0.98522 0.32945 0.08878 0.0
C848 C 0.02806 0.36674 0.1364 0.0
C849 C 0.99984 0.34366 0.16085 0.0
C850 C 0.96347 0.31437 0.14872 0.0
C851 C 0.9562 0.30739 0.11299 0.0
H852 H 0.67199 0.04488 0.4172 0.0
H853 H 0.64774 0.92857 0.43771 0.0
H854 H 0.67159 0.05656 0.47907 0.0
H855 H 0.64806 0.94053 0.50019 0.0
H856 H 0.62373 0.96358 0.6093 0.0
H857 H 0.61509 0.9524 0.54704 0.0
H858 H 0.71236 0.06657 0.5287 0.0
H859 H 0.72054 0.07802 0.59145 0.0
C860 C 0.66628 0.02161 0.43498 0.0
C861 C 0.66005 0.98577 0.42252 0.0
C862 C 0.66636 0.0285 0.47054 0.0
C863 C 0.6603 0.99976 0.49475 0.0
C864 C 0.65255 0.9633 0.48228 0.0
C865 C 0.65234 0.95634 0.44649 0.0
C866 C 0.64294 0.98662 0.59199 0.0
C867 C 0.67294 0.02171 0.60531 0.0
C868 C 0.63817 0.97999 0.55624 0.0
C869 C 0.66333 0.00826 0.53276 0.0
C870 C 0.69225 0.04418 0.54602 0.0
C871 C 0.69695 0.05087 0.58198 0.0
H872 H 0.64202 0.71793 0.92379 0.0
H873 H 0.65676 0.61971 0.94383 0.0
H874 H 0.6439 0.70765 0.86122 0.0
H875 H 0.65798 0.60904 0.88179 0.0
H876 H 0.71476 0.63896 0.77244 0.0
H877 H 0.7031 0.64047 0.83473 0.0
H878 H 0.61198 0.6657 0.81214 0.0
H879 H 0.62402 0.66482 0.75037 0.0
C880 C 0.6446 0.69359 0.91486 0.0
C881 C 0.64943 0.66981 0.93873 0.0
C882 C 0.64581 0.68768 0.87901 0.0
C883 C 0.6517 0.65779 0.86641 0.0
C884 C 0.65433 0.63283 0.89047 0.0
C885 C 0.65325 0.63878 0.92609 0.0
C886 C 0.69181 0.64408 0.78084 0.0
C887 C 0.67051 0.65192 0.75646 0.0
C888 C 0.68506 0.645 0.81653 0.0
C889 C 0.65681 0.65366 0.82852 0.0
C890 C 0.63445 0.65975 0.80395 0.0
C891 C 0.64121 0.6589 0.76846 0.0
H892 H 0.92553 0.64341 0.25761 0.0
H893 H 0.03925 0.65932 0.27627 0.0
H894 H 0.93711 0.64602 0.19495 0.0
H895 H 0.05053 0.66112 0.21407 0.0
H896 H 0.95908 0.62728 0.08354 0.0
H897 H 0.94678 0.61503 0.14533 0.0
H898 H 0.06334 0.7061 0.16742 0.0
H899 H 0.07592 0.71784 0.1051 0.0
C900 C 0.95252 0.64641 0.24833 0.0
C901 C 0.98149 0.65135 0.27185 0.0
C902 C 0.95928 0.64801 0.21243 0.0
C903 C 0.99507 0.65437 0.19941 0.0
C904 C 0.02307 0.65712 0.22309 0.0
C905 C 0.01639 0.6557 0.25879 0.0
C906 C 0.98232 0.64447 0.10153 0.0
C907 C 0.01851 0.67371 0.0894 0.0
C908 C 0.97509 0.63758 0.13703 0.0
C909 C 0.00383 0.65979 0.16147 0.0
C910 C 0.04058 0.68815 0.14932 0.0
C911 C 0.04788 0.69498 0.11362 0.0
loop_
_geom_bond_atom_site_label_1
_geom_bond_atom_site_label_2
_geom_bond_distance
_geom_bond_site_symmetry_2
_ccdc_geom_bond_type
Mn0 O5 2.095 . S
Mn0 O15 2.162 . S
Mn0 O16 2.297 1_545 S
Mn0 O24 2.385 1_545 S
Mn0 O25 2.209 1_545 S
Mn0 O26 2.094 . S
Mn1 O6 2.121 . S
Mn1 N8 2.257 . S
Mn1 N17 2.282 . S
Mn1 O25 2.215 . S
Mn1 O27 2.117 1_565 S
C2 O24 1.234 . S
C2 O25 1.283 . S
C3 O15 1.281 . S
C3 O16 1.236 1_545 S
C4 O26 1.240 . S
C4 O27 1.264 . S
O5 Mn0 2.095 . S
O5 C14 1.250 . S
O6 Mn1 2.121 . S
O6 C14 1.258 1_565 S
C7 N8 1.326 . S
C7 C11 1.460 . S
C7 H13 0.929 . S
N8 Mn1 2.257 . S
N8 C7 1.326 . S
N8 C12 1.362 . S
C9 C10 1.258 . S
C9 C12 1.431 . S
C9 C29 1.449 . S
C10 C9 1.258 . S
C10 C11 1.477 . S
C10 H30 0.931 . S
C11 C7 1.460 . S
C11 C10 1.477 . S
C11 H31 0.930 . S
C12 N8 1.362 . S
C12 C9 1.431 . S
C12 C22 1.476 . S
H13 C7 0.929 . S
C14 O5 1.250 . S
C14 O6 1.258 1_545 S
O15 Mn0 2.162 . S
O15 C3 1.281 . S
O16 Mn0 2.297 1_565 S
O16 C3 1.236 1_565 S
N17 Mn1 2.282 . S
N17 C18 1.328 . S
N17 C22 1.318 . S
C18 N17 1.328 . S
C18 C19 1.457 . S
C18 H23 0.929 . S
C19 C18 1.457 . S
C19 C20 1.291 . S
C19 H32 0.931 . S
C20 C19 1.291 . S
C20 C21 1.373 . S
C20 H33 0.929 . S
C21 C20 1.373 . S
C21 C22 1.396 . S
C21 C28 1.403 . S
C22 C12 1.476 . S
C22 N17 1.318 . S
C22 C21 1.396 . S
H23 C18 0.929 . S
O24 Mn0 2.385 1_565 S
O24 C2 1.234 . S
O25 Mn0 2.209 1_565 S
O25 Mn1 2.215 . S
O25 C2 1.283 . S
O26 Mn0 2.094 . S
O26 C4 1.240 . S
O27 Mn1 2.117 1_545 S
O27 C4 1.264 . S
C28 C21 1.403 . S
C28 C29 1.399 . S
C28 H34 0.929 . S
C29 C9 1.449 . S
C29 C28 1.399 . S
C29 H35 0.930 . S
H30 C10 0.931 . S
H31 C11 0.930 . S
H32 C19 0.931 . S
H33 C20 0.929 . S
H34 C28 0.929 . S
H35 C29 0.930 . S
Mn36 O41 2.095 . S
Mn36 O51 2.162 . S
Mn36 O52 2.297 . S
Mn36 O60 2.385 . S
Mn36 O61 2.209 . S
Mn36 O62 2.094 . S
Mn37 O42 2.121 . S
Mn37 N44 2.257 . S
Mn37 N53 2.282 . S
Mn37 O61 2.215 . S
Mn37 O63 2.117 . S
C38 O60 1.234 . S
C38 O61 1.283 . S
C39 O51 1.281 . S
C39 O52 1.236 . S
C40 O62 1.240 . S
C40 O63 1.264 . S
O41 Mn36 2.095 . S
O41 C50 1.250 . S
O42 Mn37 2.121 . S
O42 C50 1.258 . S
C43 N44 1.326 . S
C43 C47 1.460 . S
C43 H49 0.929 . S
N44 Mn37 2.257 . S
N44 C43 1.326 . S
N44 C48 1.362 . S
C45 C46 1.258 . S
C45 C48 1.431 . S
C45 C65 1.449 . S
C46 C45 1.258 . S
C46 C47 1.477 . S
C46 H66 0.931 . S
C47 C43 1.460 . S
C47 C46 1.477 . S
C47 H67 0.930 . S
C48 N44 1.362 . S
C48 C45 1.431 . S
C48 C58 1.476 . S
H49 C43 0.929 . S
C50 O41 1.250 . S
C50 O42 1.258 . S
O51 Mn36 2.162 . S
O51 C39 1.281 . S
O52 Mn36 2.297 . S
O52 C39 1.236 . S
N53 Mn37 2.282 . S
N53 C54 1.328 . S
N53 C58 1.318 . S
C54 N53 1.328 . S
C54 C55 1.457 . S
C54 H59 0.929 . S
C55 C54 1.457 . S
C55 C56 1.291 . S
C55 H68 0.931 . S
C56 C55 1.291 . S
C56 C57 1.373 . S
C56 H69 0.929 . S
C57 C56 1.373 . S
C57 C58 1.396 . S
C57 C64 1.403 . S
C58 C48 1.476 . S
C58 N53 1.318 . S
C58 C57 1.396 . S
H59 C54 0.929 . S
O60 Mn36 2.385 . S
O60 C38 1.234 . S
O61 Mn36 2.209 . S
O61 Mn37 2.215 . S
O61 C38 1.283 . S
O62 Mn36 2.094 . S
O62 C40 1.240 . S
O63 Mn37 2.117 . S
O63 C40 1.264 . S
C64 C57 1.403 . S
C64 C65 1.399 . S
C64 H70 0.929 . S
C65 C45 1.449 . S
C65 C64 1.399 . S
C65 H71 0.930 . S
H66 C46 0.931 . S
H67 C47 0.930 . S
H68 C55 0.931 . S
H69 C56 0.929 . S
H70 C64 0.929 . S
H71 C65 0.930 . S
Mn72 O77 2.095 . S
Mn72 O87 2.162 1_556 S
Mn72 O88 2.297 1_656 S
Mn72 O96 2.385 1_655 S
Mn72 O97 2.209 1_655 S
Mn72 O98 2.094 . S
Mn73 O78 2.121 . S
Mn73 N80 2.257 . S
Mn73 N89 2.282 . S
Mn73 O97 2.215 . S
Mn73 O99 2.117 1_455 S
C74 O96 1.234 . S
C74 O97 1.283 . S
C75 O87 1.281 . S
C75 O88 1.236 1_655 S
C76 O98 1.240 . S
C76 O99 1.264 . S
O77 Mn72 2.095 . S
O77 C86 1.250 . S
O78 Mn73 2.121 . S
O78 C86 1.258 1_455 S
C79 N80 1.326 . S
C79 C83 1.460 . S
C79 H85 0.929 . S
N80 Mn73 2.257 . S
N80 C79 1.326 . S
N80 C84 1.362 . S
C81 C82 1.258 . S
C81 C84 1.431 . S
C81 C101 1.449 . S
C82 C81 1.258 . S
C82 C83 1.477 . S
C82 H102 0.931 . S
C83 C79 1.460 . S
C83 C82 1.477 . S
C83 H103 0.930 . S
C84 N80 1.362 . S
C84 C81 1.431 . S
C84 C94 1.476 . S
H85 C79 0.929 . S
C86 O77 1.250 . S
C86 O78 1.258 1_655 S
O87 Mn72 2.162 1_554 S
O87 C75 1.281 . S
O88 Mn72 2.297 1_454 S
O88 C75 1.236 1_455 S
N89 Mn73 2.282 . S
N89 C90 1.328 . S
N89 C94 1.318 . S
C90 N89 1.328 . S
C90 C91 1.457 . S
C90 H95 0.929 . S
C91 C90 1.457 . S
C91 C92 1.291 . S
C91 H104 0.931 . S
C92 C91 1.291 . S
C92 C93 1.373 . S
C92 H105 0.929 . S
C93 C92 1.373 . S
C93 C94 1.396 . S
C93 C100 1.403 . S
C94 C84 1.476 . S
C94 N89 1.318 . S
C94 C93 1.396 . S
H95 C90 0.929 . S
O96 Mn72 2.385 1_455 S
O96 C74 1.234 . S
O97 Mn72 2.209 1_455 S
O97 Mn73 2.215 . S
O97 C74 1.283 . S
O98 Mn72 2.094 . S
O98 C76 1.240 . S
O99 Mn73 2.117 1_655 S
O99 C76 1.264 . S
C100 C93 1.403 . S
C100 C101 1.399 . S
C100 H106 0.929 . S
C101 C81 1.449 . S
C101 C100 1.399 . S
C101 H107 0.930 . S
H102 C82 0.931 . S
H103 C83 0.930 . S
H104 C91 0.931 . S
H105 C92 0.929 . S
H106 C100 0.929 . S
H107 C101 0.930 . S
Mn108 O113 2.095 . S
Mn108 O123 2.162 . S
Mn108 O124 2.297 1_565 S
Mn108 O132 2.385 1_565 S
Mn108 O133 2.209 1_565 S
Mn108 O134 2.094 . S
Mn109 O114 2.121 . S
Mn109 N116 2.257 . S
Mn109 N125 2.282 . S
Mn109 O133 2.215 . S
Mn109 O135 2.117 1_545 S
C110 O132 1.234 . S
C110 O133 1.283 . S
C111 O123 1.281 . S
C111 O124 1.236 1_565 S
C112 O134 1.240 . S
C112 O135 1.264 . S
O113 Mn108 2.095 . S
O113 C122 1.250 . S
O114 Mn109 2.121 . S
O114 C122 1.258 1_545 S
C115 N116 1.326 . S
C115 C119 1.460 . S
C115 H121 0.929 . S
N116 Mn109 2.257 . S
N116 C115 1.326 . S
N116 C120 1.362 . S
C117 C118 1.258 . S
C117 C120 1.431 . S
C117 C137 1.449 . S
C118 C117 1.258 . S
C118 C119 1.477 . S
C118 H138 0.931 . S
C119 C115 1.460 . S
C119 C118 1.477 . S
C119 H139 0.930 . S
C120 N116 1.362 . S
C120 C117 1.431 . S
C120 C130 1.476 . S
H121 C115 0.929 . S
C122 O113 1.250 . S
C122 O114 1.258 1_565 S
O123 Mn108 2.162 . S
O123 C111 1.281 . S
O124 Mn108 2.297 1_545 S
O124 C111 1.236 1_545 S
N125 Mn109 2.282 . S
N125 C126 1.328 . S
N125 C130 1.318 . S
C126 N125 1.328 . S
C126 C127 1.457 . S
C126 H131 0.929 . S
C127 C126 1.457 . S
C127 C128 1.291 . S
C127 H140 0.931 . S
C128 C127 1.291 . S
C128 C129 1.373 . S
C128 H141 0.929 . S
C129 C128 1.373 . S
C129 C130 1.396 . S
C129 C136 1.403 . S
C130 C120 1.476 . S
C130 N125 1.318 . S
C130 C129 1.396 . S
H131 C126 0.929 . S
O132 Mn108 2.385 1_545 S
O132 C110 1.234 . S
O133 Mn108 2.209 1_545 S
O133 Mn109 2.215 . S
O133 C110 1.283 . S
O134 Mn108 2.094 . S
O134 C112 1.240 . S
O135 Mn109 2.117 1_565 S
O135 C112 1.264 . S
C136 C129 1.403 . S
C136 C137 1.399 . S
C136 H142 0.929 . S
C137 C117 1.449 . S
C137 C136 1.399 . S
C137 H143 0.930 . S
H138 C118 0.931 . S
H139 C119 0.930 . S
H140 C127 0.931 . S
H141 C128 0.929 . S
H142 C136 0.929 . S
H143 C137 0.930 . S
Mn144 O149 2.095 . S
Mn144 O159 2.162 . S
Mn144 O160 2.297 . S
Mn144 O168 2.385 . S
Mn144 O169 2.209 . S
Mn144 O170 2.094 . S
Mn145 O150 2.121 . S
Mn145 N152 2.257 . S
Mn145 N161 2.282 . S
Mn145 O169 2.215 . S
Mn145 O171 2.117 . S
C146 O168 1.234 . S
C146 O169 1.283 . S
C147 O159 1.281 . S
C147 O160 1.236 . S
C148 O170 1.240 . S
C148 O171 1.264 . S
O149 Mn144 2.095 . S
O149 C158 1.250 . S
O150 Mn145 2.121 . S
O150 C158 1.258 . S
C151 N152 1.326 . S
C151 C155 1.460 . S
C151 H157 0.929 . S
N152 Mn145 2.257 . S
N152 C151 1.326 . S
N152 C156 1.362 . S
C153 C154 1.258 . S
C153 C156 1.431 . S
C153 C173 1.449 . S
C154 C153 1.258 . S
C154 C155 1.477 . S
C154 H174 0.931 . S
C155 C151 1.460 . S
C155 C154 1.477 . S
C155 H175 0.930 . S
C156 N152 1.362 . S
C156 C153 1.431 . S
C156 C166 1.476 . S
H157 C151 0.929 . S
C158 O149 1.250 . S
C158 O150 1.258 . S
O159 Mn144 2.162 . S
O159 C147 1.281 . S
O160 Mn144 2.297 . S
O160 C147 1.236 . S
N161 Mn145 2.282 . S
N161 C162 1.328 . S
N161 C166 1.318 . S
C162 N161 1.328 . S
C162 C163 1.457 . S
C162 H167 0.929 . S
C163 C162 1.457 . S
C163 C164 1.291 . S
C163 H176 0.931 . S
C164 C163 1.291 . S
C164 C165 1.373 . S
C164 H177 0.929 . S
C165 C164 1.373 . S
C165 C166 1.396 . S
C165 C172 1.403 . S
C166 C156 1.476 . S
C166 N161 1.318 . S
C166 C165 1.396 . S
H167 C162 0.929 . S
O168 Mn144 2.385 . S
O168 C146 1.234 . S
O169 Mn144 2.209 . S
O169 Mn145 2.215 . S
O169 C146 1.283 . S
O170 Mn144 2.094 . S
O170 C148 1.240 . S
O171 Mn145 2.117 . S
O171 C148 1.264 . S
C172 C165 1.403 . S
C172 C173 1.399 . S
C172 H178 0.929 . S
C173 C153 1.449 . S
C173 C172 1.399 . S
C173 H179 0.930 . S
H174 C154 0.931 . S
H175 C155 0.930 . S
H176 C163 0.931 . S
H177 C164 0.929 . S
H178 C172 0.929 . S
H179 C173 0.930 . S
Mn180 O185 2.095 . S
Mn180 O195 2.162 1_556 S
Mn180 O196 2.297 1_456 S
Mn180 O204 2.385 1_455 S
Mn180 O205 2.209 1_455 S
Mn180 O206 2.094 . S
Mn181 O186 2.121 . S
Mn181 N188 2.257 . S
Mn181 N197 2.282 . S
Mn181 O205 2.215 . S
Mn181 O207 2.117 1_655 S
C182 O204 1.234 . S
C182 O205 1.283 . S
C183 O195 1.281 . S
C183 O196 1.236 1_455 S
C184 O206 1.240 . S
C184 O207 1.264 . S
O185 Mn180 2.095 . S
O185 C194 1.250 . S
O186 Mn181 2.121 . S
O186 C194 1.258 1_655 S
C187 N188 1.326 . S
C187 C191 1.460 . S
C187 H193 0.929 . S
N188 Mn181 2.257 . S
N188 C187 1.326 . S
N188 C192 1.362 . S
C189 C190 1.258 . S
C189 C192 1.431 . S
C189 C209 1.449 . S
C190 C189 1.258 . S
C190 C191 1.477 . S
C190 H210 0.931 . S
C191 C187 1.460 . S
C191 C190 1.477 . S
C191 H211 0.930 . S
C192 N188 1.362 . S
C192 C189 1.431 . S
C192 C202 1.476 . S
H193 C187 0.929 . S
C194 O185 1.250 . S
C194 O186 1.258 1_455 S
O195 Mn180 2.162 1_554 S
O195 C183 1.281 . S
O196 Mn180 2.297 1_654 S
O196 C183 1.236 1_655 S
N197 Mn181 2.282 . S
N197 C198 1.328 . S
N197 C202 1.318 . S
C198 N197 1.328 . S
C198 C199 1.457 . S
C198 H203 0.929 . S
C199 C198 1.457 . S
C199 C200 1.291 . S
C199 H212 0.931 . S
C200 C199 1.291 . S
C200 C201 1.373 . S
C200 H213 0.929 . S
C201 C200 1.373 . S
C201 C202 1.396 . S
C201 C208 1.403 . S
C202 C192 1.476 . S
C202 N197 1.318 . S
C202 C201 1.396 . S
H203 C198 0.929 . S
O204 Mn180 2.385 1_655 S
O204 C182 1.234 . S
O205 Mn180 2.209 1_655 S
O205 Mn181 2.215 . S
O205 C182 1.283 . S
O206 Mn180 2.094 . S
O206 C184 1.240 . S
O207 Mn181 2.117 1_455 S
O207 C184 1.264 . S
C208 C201 1.403 . S
C208 C209 1.399 . S
C208 H214 0.929 . S
C209 C189 1.449 . S
C209 C208 1.399 . S
C209 H215 0.930 . S
H210 C190 0.931 . S
H211 C191 0.930 . S
H212 C199 0.931 . S
H213 C200 0.929 . S
H214 C208 0.929 . S
H215 C209 0.930 . S
Mn216 O221 2.095 . S
Mn216 O231 2.162 . S
Mn216 O232 2.297 1_655 S
Mn216 O240 2.385 1_655 S
Mn216 O241 2.209 1_655 S
Mn216 O242 2.094 . S
Mn217 O222 2.121 . S
Mn217 N224 2.257 . S
Mn217 N233 2.282 . S
Mn217 O241 2.215 . S
Mn217 O243 2.117 1_455 S
C218 O240 1.234 . S
C218 O241 1.283 . S
C219 O231 1.281 . S
C219 O232 1.236 1_655 S
C220 O242 1.240 . S
C220 O243 1.264 . S
O221 Mn216 2.095 . S
O221 C230 1.250 . S
O222 Mn217 2.121 . S
O222 C230 1.258 1_455 S
C223 N224 1.326 . S
C223 C227 1.460 . S
C223 H229 0.929 . S
N224 Mn217 2.257 . S
N224 C223 1.326 . S
N224 C228 1.362 . S
C225 C226 1.258 . S
C225 C228 1.431 . S
C225 C245 1.449 . S
C226 C225 1.258 . S
C226 C227 1.477 . S
C226 H246 0.931 . S
C227 C223 1.460 . S
C227 C226 1.477 . S
C227 H247 0.930 . S
C228 N224 1.362 . S
C228 C225 1.431 . S
C228 C238 1.476 . S
H229 C223 0.929 . S
C230 O221 1.250 . S
C230 O222 1.258 1_655 S
O231 Mn216 2.162 . S
O231 C219 1.281 . S
O232 Mn216 2.297 1_455 S
O232 C219 1.236 1_455 S
N233 Mn217 2.282 . S
N233 C234 1.328 . S
N233 C238 1.318 . S
C234 N233 1.328 . S
C234 C235 1.457 . S
C234 H239 0.929 . S
C235 C234 1.457 . S
C235 C236 1.291 . S
C235 H248 0.931 . S
C236 C235 1.291 . S
C236 C237 1.373 . S
C236 H249 0.929 . S
C237 C236 1.373 . S
C237 C238 1.396 . S
C237 C244 1.403 . S
C238 C228 1.476 . S
C238 N233 1.318 . S
C238 C237 1.396 . S
H239 C234 0.929 . S
O240 Mn216 2.385 1_455 S
O240 C218 1.234 . S
O241 Mn216 2.209 1_455 S
O241 Mn217 2.215 . S
O241 C218 1.283 . S
O242 Mn216 2.094 . S
O242 C220 1.240 . S
O243 Mn217 2.117 1_655 S
O243 C220 1.264 . S
C244 C237 1.403 . S
C244 C245 1.399 . S
C244 H250 0.929 . S
C245 C225 1.449 . S
C245 C244 1.399 . S
C245 H251 0.930 . S
H246 C226 0.931 . S
H247 C227 0.930 . S
H248 C235 0.931 . S
H249 C236 0.929 . S
H250 C244 0.929 . S
H251 C245 0.930 . S
Mn252 O257 2.095 . S
Mn252 O267 2.162 . S
Mn252 O268 2.297 1_565 S
Mn252 O276 2.385 1_565 S
Mn252 O277 2.209 1_565 S
Mn252 O278 2.094 . S
Mn253 O258 2.121 . S
Mn253 N260 2.257 . S
Mn253 N269 2.282 . S
Mn253 O277 2.215 . S
Mn253 O279 2.117 1_545 S
C254 O276 1.234 . S
C254 O277 1.283 . S
C255 O267 1.281 . S
C255 O268 1.236 1_565 S
C256 O278 1.240 . S
C256 O279 1.264 . S
O257 Mn252 2.095 . S
O257 C266 1.250 . S
O258 Mn253 2.121 . S
O258 C266 1.258 1_545 S
C259 N260 1.326 . S
C259 C263 1.460 . S
C259 H265 0.929 . S
N260 Mn253 2.257 . S
N260 C259 1.326 . S
N260 C264 1.362 . S
C261 C262 1.258 . S
C261 C264 1.431 . S
C261 C281 1.449 . S
C262 C261 1.258 . S
C262 C263 1.477 . S
C262 H282 0.931 . S
C263 C259 1.460 . S
C263 C262 1.477 . S
C263 H283 0.930 . S
C264 N260 1.362 . S
C264 C261 1.431 . S
C264 C274 1.476 . S
H265 C259 0.929 . S
C266 O257 1.250 . S
C266 O258 1.258 1_565 S
O267 Mn252 2.162 . S
O267 C255 1.281 . S
O268 Mn252 2.297 1_545 S
O268 C255 1.236 1_545 S
N269 Mn253 2.282 . S
N269 C270 1.328 . S
N269 C274 1.318 . S
C270 N269 1.328 . S
C270 C271 1.457 . S
C270 H275 0.929 . S
C271 C270 1.457 . S
C271 C272 1.291 . S
C271 H284 0.931 . S
C272 C271 1.291 . S
C272 C273 1.373 . S
C272 H285 0.929 . S
C273 C272 1.373 . S
C273 C274 1.396 . S
C273 C280 1.403 . S
C274 C264 1.476 . S
C274 N269 1.318 . S
C274 C273 1.396 . S
H275 C270 0.929 . S
O276 Mn252 2.385 1_545 S
O276 C254 1.234 . S
O277 Mn252 2.209 1_545 S
O277 Mn253 2.215 . S
O277 C254 1.283 . S
O278 Mn252 2.094 . S
O278 C256 1.240 . S
O279 Mn253 2.117 1_565 S
O279 C256 1.264 . S
C280 C273 1.403 . S
C280 C281 1.399 . S
C280 H286 0.929 . S
C281 C261 1.449 . S
C281 C280 1.399 . S
C281 H287 0.930 . S
H282 C262 0.931 . S
H283 C263 0.930 . S
H284 C271 0.931 . S
H285 C272 0.929 . S
H286 C280 0.929 . S
H287 C281 0.930 . S
Mn288 O293 2.095 . S
Mn288 O303 2.162 1_554 S
Mn288 O304 2.297 1_554 S
Mn288 O312 2.385 . S
Mn288 O313 2.209 . S
Mn288 O314 2.094 . S
Mn289 O294 2.121 . S
Mn289 N296 2.257 . S
Mn289 N305 2.282 . S
Mn289 O313 2.215 . S
Mn289 O315 2.117 . S
C290 O312 1.234 . S
C290 O313 1.283 . S
C291 O303 1.281 . S
C291 O304 1.236 . S
C292 O314 1.240 . S
C292 O315 1.264 . S
O293 Mn288 2.095 . S
O293 C302 1.250 . S
O294 Mn289 2.121 . S
O294 C302 1.258 . S
C295 N296 1.326 . S
C295 C299 1.460 . S
C295 H301 0.929 . S
N296 Mn289 2.257 . S
N296 C295 1.326 . S
N296 C300 1.362 . S
C297 C298 1.258 . S
C297 C300 1.431 . S
C297 C317 1.449 . S
C298 C297 1.258 . S
C298 C299 1.477 . S
C298 H318 0.931 . S
C299 C295 1.460 . S
C299 C298 1.477 . S
C299 H319 0.930 . S
C300 N296 1.362 . S
C300 C297 1.431 . S
C300 C310 1.476 . S
H301 C295 0.929 . S
C302 O293 1.250 . S
C302 O294 1.258 . S
O303 Mn288 2.162 1_556 S
O303 C291 1.281 . S
O304 Mn288 2.297 1_556 S
O304 C291 1.236 . S
N305 Mn289 2.282 . S
N305 C306 1.328 . S
N305 C310 1.318 . S
C306 N305 1.328 . S
C306 C307 1.457 . S
C306 H311 0.929 . S
C307 C306 1.457 . S
C307 C308 1.291 . S
C307 H320 0.931 . S
C308 C307 1.291 . S
C308 C309 1.373 . S
C308 H321 0.929 . S
C309 C308 1.373 . S
C309 C310 1.396 . S
C309 C316 1.403 . S
C310 C300 1.476 . S
C310 N305 1.318 . S
C310 C309 1.396 . S
H311 C306 0.929 . S
O312 Mn288 2.385 . S
O312 C290 1.234 . S
O313 Mn288 2.209 . S
O313 Mn289 2.215 . S
O313 C290 1.283 . S
O314 Mn288 2.094 . S
O314 C292 1.240 . S
O315 Mn289 2.117 . S
O315 C292 1.264 . S
C316 C309 1.403 . S
C316 C317 1.399 . S
C316 H322 0.929 . S
C317 C297 1.449 . S
C317 C316 1.399 . S
C317 H323 0.930 . S
H318 C298 0.931 . S
H319 C299 0.930 . S
H320 C307 0.931 . S
H321 C308 0.929 . S
H322 C316 0.929 . S
H323 C317 0.930 . S
Mn324 O329 2.095 . S
Mn324 O339 2.162 . S
Mn324 O340 2.297 1_455 S
Mn324 O348 2.385 1_455 S
Mn324 O349 2.209 1_455 S
Mn324 O350 2.094 . S
Mn325 O330 2.121 . S
Mn325 N332 2.257 . S
Mn325 N341 2.282 . S
Mn325 O349 2.215 . S
Mn325 O351 2.117 1_655 S
C326 O348 1.234 . S
C326 O349 1.283 . S
C327 O339 1.281 . S
C327 O340 1.236 1_455 S
C328 O350 1.240 . S
C328 O351 1.264 . S
O329 Mn324 2.095 . S
O329 C338 1.250 . S
O330 Mn325 2.121 . S
O330 C338 1.258 1_655 S
C331 N332 1.326 . S
C331 C335 1.460 . S
C331 H337 0.929 . S
N332 Mn325 2.257 . S
N332 C331 1.326 . S
N332 C336 1.362 . S
C333 C334 1.258 . S
C333 C336 1.431 . S
C333 C353 1.449 . S
C334 C333 1.258 . S
C334 C335 1.477 . S
C334 H354 0.931 . S
C335 C331 1.460 . S
C335 C334 1.477 . S
C335 H355 0.930 . S
C336 N332 1.362 . S
C336 C333 1.431 . S
C336 C346 1.476 . S
H337 C331 0.929 . S
C338 O329 1.250 . S
C338 O330 1.258 1_455 S
O339 Mn324 2.162 . S
O339 C327 1.281 . S
O340 Mn324 2.297 1_655 S
O340 C327 1.236 1_655 S
N341 Mn325 2.282 . S
N341 C342 1.328 . S
N341 C346 1.318 . S
C342 N341 1.328 . S
C342 C343 1.457 . S
C342 H347 0.929 . S
C343 C342 1.457 . S
C343 C344 1.291 . S
C343 H356 0.931 . S
C344 C343 1.291 . S
C344 C345 1.373 . S
C344 H357 0.929 . S
C345 C344 1.373 . S
C345 C346 1.396 . S
C345 C352 1.403 . S
C346 C336 1.476 . S
C346 N341 1.318 . S
C346 C345 1.396 . S
H347 C342 0.929 . S
O348 Mn324 2.385 1_655 S
O348 C326 1.234 . S
O349 Mn324 2.209 1_655 S
O349 Mn325 2.215 . S
O349 C326 1.283 . S
O350 Mn324 2.094 . S
O350 C328 1.240 . S
O351 Mn325 2.117 1_455 S
O351 C328 1.264 . S
C352 C345 1.403 . S
C352 C353 1.399 . S
C352 H358 0.929 . S
C353 C333 1.449 . S
C353 C352 1.399 . S
C353 H359 0.930 . S
H354 C334 0.931 . S
H355 C335 0.930 . S
H356 C343 0.931 . S
H357 C344 0.929 . S
H358 C352 0.929 . S
H359 C353 0.930 . S
Mn360 O365 2.095 . S
Mn360 O375 2.162 . S
Mn360 O376 2.297 1_545 S
Mn360 O384 2.385 1_545 S
Mn360 O385 2.209 1_545 S
Mn360 O386 2.094 . S
Mn361 O366 2.121 . S
Mn361 N368 2.257 . S
Mn361 N377 2.282 . S
Mn361 O385 2.215 . S
Mn361 O387 2.117 1_565 S
C362 O384 1.234 . S
C362 O385 1.283 . S
C363 O375 1.281 . S
C363 O376 1.236 1_545 S
C364 O386 1.240 . S
C364 O387 1.264 . S
O365 Mn360 2.095 . S
O365 C374 1.250 . S
O366 Mn361 2.121 . S
O366 C374 1.258 1_565 S
C367 N368 1.326 . S
C367 C371 1.460 . S
C367 H373 0.929 . S
N368 Mn361 2.257 . S
N368 C367 1.326 . S
N368 C372 1.362 . S
C369 C370 1.258 . S
C369 C372 1.431 . S
C369 C389 1.449 . S
C370 C369 1.258 . S
C370 C371 1.477 . S
C370 H390 0.931 . S
C371 C367 1.460 . S
C371 C370 1.477 . S
C371 H391 0.930 . S
C372 N368 1.362 . S
C372 C369 1.431 . S
C372 C382 1.476 . S
H373 C367 0.929 . S
C374 O365 1.250 . S
C374 O366 1.258 1_545 S
O375 Mn360 2.162 . S
O375 C363 1.281 . S
O376 Mn360 2.297 1_565 S
O376 C363 1.236 1_565 S
N377 Mn361 2.282 . S
N377 C378 1.328 . S
N377 C382 1.318 . S
C378 N377 1.328 . S
C378 C379 1.457 . S
C378 H383 0.929 . S
C379 C378 1.457 . S
C379 C380 1.291 . S
C379 H392 0.931 . S
C380 C379 1.291 . S
C380 C381 1.373 . S
C380 H393 0.929 . S
C381 C380 1.373 . S
C381 C382 1.396 . S
C381 C388 1.403 . S
C382 C372 1.476 . S
C382 N377 1.318 . S
C382 C381 1.396 . S
H383 C378 0.929 . S
O384 Mn360 2.385 1_565 S
O384 C362 1.234 . S
O385 Mn360 2.209 1_565 S
O385 Mn361 2.215 . S
O385 C362 1.283 . S
O386 Mn360 2.094 . S
O386 C364 1.240 . S
O387 Mn361 2.117 1_545 S
O387 C364 1.264 . S
C388 C381 1.403 . S
C388 C389 1.399 . S
C388 H394 0.929 . S
C389 C369 1.449 . S
C389 C388 1.399 . S
C389 H395 0.930 . S
H390 C370 0.931 . S
H391 C371 0.930 . S
H392 C379 0.931 . S
H393 C380 0.929 . S
H394 C388 0.929 . S
H395 C389 0.930 . S
Mn396 O401 2.095 . S
Mn396 O411 2.162 1_554 S
Mn396 O412 2.297 1_554 S
Mn396 O420 2.385 . S
Mn396 O421 2.209 . S
Mn396 O422 2.094 . S
Mn397 O402 2.121 . S
Mn397 N404 2.257 . S
Mn397 N413 2.282 . S
Mn397 O421 2.215 . S
Mn397 O423 2.117 . S
C398 O420 1.234 . S
C398 O421 1.283 . S
C399 O411 1.281 . S
C399 O412 1.236 . S
C400 O422 1.240 . S
C400 O423 1.264 . S
O401 Mn396 2.095 . S
O401 C410 1.250 . S
O402 Mn397 2.121 . S
O402 C410 1.258 . S
C403 N404 1.326 . S
C403 C407 1.460 . S
C403 H409 0.929 . S
N404 Mn397 2.257 . S
N404 C403 1.326 . S
N404 C408 1.362 . S
C405 C406 1.258 . S
C405 C408 1.431 . S
C405 C425 1.449 . S
C406 C405 1.258 . S
C406 C407 1.477 . S
C406 H426 0.931 . S
C407 C403 1.460 . S
C407 C406 1.477 . S
C407 H427 0.930 . S
C408 N404 1.362 . S
C408 C405 1.431 . S
C408 C418 1.476 . S
H409 C403 0.929 . S
C410 O401 1.250 . S
C410 O402 1.258 . S
O411 Mn396 2.162 1_556 S
O411 C399 1.281 . S
O412 Mn396 2.297 1_556 S
O412 C399 1.236 . S
N413 Mn397 2.282 . S
N413 C414 1.328 . S
N413 C418 1.318 . S
C414 N413 1.328 . S
C414 C415 1.457 . S
C414 H419 0.929 . S
C415 C414 1.457 . S
C415 C416 1.291 . S
C415 H428 0.931 . S
C416 C415 1.291 . S
C416 C417 1.373 . S
C416 H429 0.929 . S
C417 C416 1.373 . S
C417 C418 1.396 . S
C417 C424 1.403 . S
C418 C408 1.476 . S
C418 N413 1.318 . S
C418 C417 1.396 . S
H419 C414 0.929 . S
O420 Mn396 2.385 . S
O420 C398 1.234 . S
O421 Mn396 2.209 . S
O421 Mn397 2.215 . S
O421 C398 1.283 . S
O422 Mn396 2.094 . S
O422 C400 1.240 . S
O423 Mn397 2.117 . S
O423 C400 1.264 . S
C424 C417 1.403 . S
C424 C425 1.399 . S
C424 H430 0.929 . S
C425 C405 1.449 . S
C425 C424 1.399 . S
C425 H431 0.930 . S
H426 C406 0.931 . S
H427 C407 0.930 . S
H428 C415 0.931 . S
H429 C416 0.929 . S
H430 C424 0.929 . S
H431 C425 0.930 . S
H432 C440 0.950 . S
H433 C445 0.950 . S
H434 C442 0.950 . S
H435 C444 0.950 . S
H436 C446 0.950 . S
H437 C448 0.950 . S
H438 C450 0.950 . S
H439 C451 0.950 . S
C440 H432 0.950 . S
C440 C441 1.386 . S
C440 C442 1.391 . S
C441 C440 1.386 . S
C441 C445 1.393 . S
C442 H434 0.950 . S
C442 C440 1.391 . S
C442 C443 1.400 . S
C443 C442 1.400 . S
C443 C444 1.398 . S
C443 C449 1.491 . S
C444 H435 0.950 . S
C444 C443 1.398 . S
C444 C445 1.391 . S
C445 H433 0.950 . S
C445 C441 1.393 . S
C445 C444 1.391 . S
C446 H436 0.950 . S
C446 C447 1.386 . S
C446 C448 1.391 . S
C447 C446 1.386 . S
C447 C451 1.393 . S
C448 H437 0.950 . S
C448 C446 1.391 . S
C448 C449 1.400 . S
C449 C443 1.491 . S
C449 C448 1.400 . S
C449 C450 1.398 . S
C450 H438 0.950 . S
C450 C449 1.398 . S
C450 C451 1.391 . S
C451 H439 0.950 . S
C451 C447 1.393 . S
C451 C450 1.391 . S
H452 C460 0.950 . S
H453 C465 0.950 . S
H454 C462 0.950 . S
H455 C464 0.950 . S
H456 C466 0.950 . S
H457 C468 0.950 . S
H458 C470 0.950 . S
H459 C471 0.950 . S
C460 H452 0.950 . S
C460 C461 1.386 . S
C460 C462 1.391 . S
C461 C460 1.386 . S
C461 C465 1.393 . S
C462 H454 0.950 . S
C462 C460 1.391 . S
C462 C463 1.400 . S
C463 C462 1.400 . S
C463 C464 1.398 . S
C463 C469 1.491 . S
C464 H455 0.950 . S
C464 C463 1.398 . S
C464 C465 1.391 . S
C465 H453 0.950 . S
C465 C461 1.393 . S
C465 C464 1.391 . S
C466 H456 0.950 . S
C466 C467 1.386 . S
C466 C468 1.391 . S
C467 C466 1.386 . S
C467 C471 1.393 . S
C468 H457 0.950 . S
C468 C466 1.391 . S
C468 C469 1.400 . S
C469 C463 1.491 . S
C469 C468 1.400 . S
C469 C470 1.398 . S
C470 H458 0.950 . S
C470 C469 1.398 . S
C470 C471 1.391 . S
C471 H459 0.950 . S
C471 C467 1.393 . S
C471 C470 1.391 . S
H472 C480 0.950 . S
H473 C485 0.950 . S
H474 C482 0.950 . S
H475 C484 0.950 . S
H476 C486 0.950 . S
H477 C488 0.950 . S
H478 C490 0.950 . S
H479 C491 0.950 . S
C480 H472 0.950 . S
C480 C481 1.386 . S
C480 C482 1.391 . S
C481 C480 1.386 . S
C481 C485 1.393 . S
C482 H474 0.950 . S
C482 C480 1.391 . S
C482 C483 1.400 . S
C483 C482 1.400 . S
C483 C484 1.398 . S
C483 C489 1.491 . S
C484 H475 0.950 . S
C484 C483 1.398 . S
C484 C485 1.391 . S
C485 H473 0.950 . S
C485 C481 1.393 . S
C485 C484 1.391 . S
C486 H476 0.950 . S
C486 C487 1.386 . S
C486 C488 1.391 . S
C487 C486 1.386 . S
C487 C491 1.393 . S
C488 H477 0.950 . S
C488 C486 1.391 . S
C488 C489 1.400 . S
C489 C483 1.491 . S
C489 C488 1.400 . S
C489 C490 1.398 . S
C490 H478 0.950 . S
C490 C489 1.398 . S
C490 C491 1.391 . S
C491 H479 0.950 . S
C491 C487 1.393 . S
C491 C490 1.391 . S
H492 C500 0.950 . S
H493 C505 0.950 . S
H494 C502 0.950 . S
H495 C504 0.950 . S
H496 C506 0.950 . S
H497 C508 0.950 . S
H498 C510 0.950 . S
H499 C511 0.950 . S
C500 H492 0.950 . S
C500 C501 1.386 . S
C500 C502 1.391 . S
C501 C500 1.386 . S
C501 C505 1.393 . S
C502 H494 0.950 . S
C502 C500 1.391 . S
C502 C503 1.400 . S
C503 C502 1.400 . S
C503 C504 1.398 . S
C503 C509 1.491 . S
C504 H495 0.950 . S
C504 C503 1.398 . S
C504 C505 1.391 . S
C505 H493 0.950 . S
C505 C501 1.393 . S
C505 C504 1.391 . S
C506 H496 0.950 . S
C506 C507 1.386 . S
C506 C508 1.391 . S
C507 C506 1.386 . S
C507 C511 1.393 . S
C508 H497 0.950 . S
C508 C506 1.391 . S
C508 C509 1.400 . S
C509 C503 1.491 . S
C509 C508 1.400 . S
C509 C510 1.398 . S
C510 H498 0.950 . S
C510 C509 1.398 . S
C510 C511 1.391 . S
C511 H499 0.950 . S
C511 C507 1.393 . S
C511 C510 1.391 . S
H512 C520 0.950 . S
H513 C525 0.950 . S
H514 C522 0.950 . S
H515 C524 0.950 . S
H516 C526 0.950 . S
H517 C528 0.950 . S
H518 C530 0.950 . S
H519 C531 0.950 . S
C520 H512 0.950 . S
C520 C521 1.386 . S
C520 C522 1.391 . S
C521 C520 1.386 . S
C521 C525 1.393 . S
C522 H514 0.950 . S
C522 C520 1.391 . S
C522 C523 1.400 . S
C523 C522 1.400 . S
C523 C524 1.398 . S
C523 C529 1.491 . S
C524 H515 0.950 . S
C524 C523 1.398 . S
C524 C525 1.391 . S
C525 H513 0.950 . S
C525 C521 1.393 . S
C525 C524 1.391 . S
C526 H516 0.950 . S
C526 C527 1.386 . S
C526 C528 1.391 . S
C527 C526 1.386 . S
C527 C531 1.393 . S
C528 H517 0.950 . S
C528 C526 1.391 . S
C528 C529 1.400 . S
C529 C523 1.491 . S
C529 C528 1.400 . S
C529 C530 1.398 . S
C530 H518 0.950 . S
C530 C529 1.398 . S
C530 C531 1.391 . S
C531 H519 0.950 . S
C531 C527 1.393 . S
C531 C530 1.391 . S
H532 C540 0.950 . S
H533 C545 0.950 . S
H534 C542 0.950 . S
H535 C544 0.950 . S
H536 C546 0.950 . S
H537 C548 0.950 . S
H538 C550 0.950 . S
H539 C551 0.950 . S
C540 H532 0.950 . S
C540 C541 1.386 . S
C540 C542 1.391 . S
C541 C540 1.386 . S
C541 C545 1.393 . S
C542 H534 0.950 . S
C542 C540 1.391 . S
C542 C543 1.400 . S
C543 C542 1.400 . S
C543 C544 1.398 . S
C543 C549 1.491 . S
C544 H535 0.950 . S
C544 C543 1.398 . S
C544 C545 1.391 . S
C545 H533 0.950 . S
C545 C541 1.393 . S
C545 C544 1.391 . S
C546 H536 0.950 . S
C546 C547 1.386 . S
C546 C548 1.391 . S
C547 C546 1.386 . S
C547 C551 1.393 . S
C548 H537 0.950 . S
C548 C546 1.391 . S
C548 C549 1.400 . S
C549 C543 1.491 . S
C549 C548 1.400 . S
C549 C550 1.398 . S
C550 H538 0.950 . S
C550 C549 1.398 . S
C550 C551 1.391 . S
C551 H539 0.950 . S
C551 C547 1.393 . S
C551 C550 1.391 . S
H552 C560 0.950 . S
H553 C565 0.950 . S
H554 C562 0.950 . S
H555 C564 0.950 . S
H556 C566 0.950 . S
H557 C568 0.950 . S
H558 C570 0.950 . S
H559 C571 0.950 . S
C560 H552 0.950 . S
C560 C561 1.386 1_565 S
C560 C562 1.391 . S
C561 C560 1.386 1_545 S
C561 C565 1.393 . S
C562 H554 0.950 . S
C562 C560 1.391 . S
C562 C563 1.400 1_565 S
C563 C562 1.400 1_545 S
C563 C564 1.398 . S
C563 C569 1.491 1_545 S
C564 H555 0.950 . S
C564 C563 1.398 . S
C564 C565 1.391 . S
C565 H553 0.950 . S
C565 C561 1.393 . S
C565 C564 1.391 . S
C566 H556 0.950 . S
C566 C567 1.386 1_545 S
C566 C568 1.391 . S
C567 C566 1.386 1_565 S
C567 C571 1.393 . S
C568 H557 0.950 . S
C568 C566 1.391 . S
C568 C569 1.400 1_545 S
C569 C563 1.491 1_565 S
C569 C568 1.400 1_565 S
C569 C570 1.398 . S
C570 H558 0.950 . S
C570 C569 1.398 . S
C570 C571 1.391 . S
C571 H559 0.950 . S
C571 C567 1.393 . S
C571 C570 1.391 . S
H572 C580 0.950 . S
H573 C585 0.950 . S
H574 C582 0.950 . S
H575 C584 0.950 . S
H576 C586 0.950 . S
H577 C588 0.950 . S
H578 C590 0.950 . S
H579 C591 0.950 . S
C580 H572 0.950 . S
C580 C581 1.386 . S
C580 C582 1.391 . S
C581 C580 1.386 . S
C581 C585 1.393 . S
C582 H574 0.950 . S
C582 C580 1.391 . S
C582 C583 1.400 . S
C583 C582 1.400 . S
C583 C584 1.398 . S
C583 C589 1.491 . S
C584 H575 0.950 . S
C584 C583 1.398 . S
C584 C585 1.391 . S
C585 H573 0.950 . S
C585 C581 1.393 . S
C585 C584 1.391 . S
C586 H576 0.950 . S
C586 C587 1.386 . S
C586 C588 1.391 . S
C587 C586 1.386 . S
C587 C591 1.393 . S
C588 H577 0.950 . S
C588 C586 1.391 . S
C588 C589 1.400 . S
C589 C583 1.491 . S
C589 C588 1.400 . S
C589 C590 1.398 . S
C590 H578 0.950 . S
C590 C589 1.398 . S
C590 C591 1.391 . S
C591 H579 0.950 . S
C591 C587 1.393 . S
C591 C590 1.391 . S
H592 C600 0.950 . S
H593 C605 0.959 . S
H594 C602 0.950 . S
H595 C604 0.950 . S
H596 C606 0.950 1_554 S
H597 C608 0.950 1_554 S
H598 C610 0.950 . S
H599 C611 0.950 . S
C600 H592 0.950 . S
C600 C601 1.386 1_655 S
C600 C602 1.391 . S
C601 C600 1.386 1_455 S
C601 C605 1.393 . S
C602 H594 0.950 . S
C602 C600 1.391 . S
C602 C603 1.400 1_655 S
C603 C602 1.400 1_455 S
C603 C604 1.398 . S
C603 C609 1.491 1_455 S
C604 H595 0.950 . S
C604 C603 1.398 . S
C604 C605 1.391 . S
C605 H593 0.959 . S
C605 C601 1.393 . S
C605 C604 1.391 . S
C606 H596 0.950 1_556 S
C606 C607 1.386 1_455 S
C606 C608 1.391 . S
C607 C606 1.386 1_655 S
C607 C611 1.393 . S
C608 H597 0.950 1_556 S
C608 C606 1.391 . S
C608 C609 1.400 1_455 S
C609 C603 1.491 1_655 S
C609 C608 1.400 1_655 S
C609 C610 1.398 . S
C610 H598 0.950 . S
C610 C609 1.398 . S
C610 C611 1.391 . S
C611 H599 0.950 . S
C611 C607 1.393 . S
C611 C610 1.391 . S
H612 C620 0.950 . S
H613 C625 0.950 . S
H614 C622 0.950 . S
H615 C624 0.950 . S
H616 C626 0.950 . S
H617 C628 0.950 . S
H618 C630 0.950 . S
H619 C631 0.950 . S
C620 H612 0.950 . S
C620 C621 1.386 . S
C620 C622 1.391 . S
C621 C620 1.386 . S
C621 C625 1.393 1_655 S
C622 H614 0.950 . S
C622 C620 1.391 . S
C622 C623 1.400 . S
C623 C622 1.400 . S
C623 C624 1.398 1_655 S
C623 C629 1.491 1_655 S
C624 H615 0.950 . S
C624 C623 1.398 1_455 S
C624 C625 1.391 . S
C625 H613 0.950 . S
C625 C621 1.393 1_455 S
C625 C624 1.391 . S
C626 H616 0.950 . S
C626 C627 1.386 . S
C626 C628 1.391 . S
C627 C626 1.386 . S
C627 C631 1.393 1_455 S
C628 H617 0.950 . S
C628 C626 1.391 . S
C628 C629 1.400 . S
C629 C623 1.491 1_455 S
C629 C628 1.400 . S
C629 C630 1.398 1_455 S
C630 H618 0.950 . S
C630 C629 1.398 1_655 S
C630 C631 1.391 . S
C631 H619 0.950 . S
C631 C627 1.393 1_655 S
C631 C630 1.391 . S
H632 C640 0.950 . S
H633 C645 0.950 . S
H634 C642 0.950 . S
H635 C644 0.950 . S
H636 C646 0.950 . S
H637 C648 0.950 . S
H638 C650 0.950 . S
H639 C651 0.950 . S
C640 H632 0.950 . S
C640 C641 1.386 1_565 S
C640 C642 1.391 . S
C641 C640 1.386 1_545 S
C641 C645 1.393 . S
C642 H634 0.950 . S
C642 C640 1.391 . S
C642 C643 1.400 1_565 S
C643 C642 1.400 1_545 S
C643 C644 1.398 . S
C643 C649 1.491 1_545 S
C644 H635 0.950 . S
C644 C643 1.398 . S
C644 C645 1.391 . S
C645 H633 0.950 . S
C645 C641 1.393 . S
C645 C644 1.391 . S
C646 H636 0.950 . S
C646 C647 1.386 1_545 S
C646 C648 1.391 . S
C647 C646 1.386 1_565 S
C647 C651 1.393 . S
C648 H637 0.950 . S
C648 C646 1.391 . S
C648 C649 1.400 1_545 S
C649 C643 1.491 1_565 S
C649 C648 1.400 1_565 S
C649 C650 1.398 . S
C650 H638 0.950 . S
C650 C649 1.398 . S
C650 C651 1.391 . S
C651 H639 0.950 . S
C651 C647 1.393 . S
C651 C650 1.391 . S
H652 C660 0.950 . S
H653 C665 0.950 . S
H654 C662 0.950 . S
H655 C664 0.950 . S
H656 C666 0.950 . S
H657 C668 0.950 . S
H658 C670 0.950 . S
H659 C671 0.950 . S
C660 H652 0.950 . S
C660 C661 1.386 . S
C660 C662 1.391 . S
C661 C660 1.386 . S
C661 C665 1.393 . S
C662 H654 0.950 . S
C662 C660 1.391 . S
C662 C663 1.400 . S
C663 C662 1.400 . S
C663 C664 1.398 . S
C663 C669 1.491 . S
C664 H655 0.950 . S
C664 C663 1.398 . S
C664 C665 1.391 . S
C665 H653 0.950 . S
C665 C661 1.393 . S
C665 C664 1.391 . S
C666 H656 0.950 . S
C666 C667 1.386 . S
C666 C668 1.391 . S
C667 C666 1.386 . S
C667 C671 1.393 . S
C668 H657 0.950 . S
C668 C666 1.391 . S
C668 C669 1.400 . S
C669 C663 1.491 . S
C669 C668 1.400 . S
C669 C670 1.398 . S
C670 H658 0.950 . S
C670 C669 1.398 . S
C670 C671 1.391 . S
C671 H659 0.950 . S
C671 C667 1.393 . S
C671 C670 1.391 . S
H672 C680 0.950 . S
H673 C685 0.950 . S
H674 C682 0.950 . S
H675 C684 0.950 . S
H676 C686 0.950 . S
H677 C688 0.950 . S
H678 C690 0.950 . S
H679 C691 0.950 . S
C680 H672 0.950 . S
C680 C681 1.386 . S
C680 C682 1.391 . S
C681 C680 1.386 . S
C681 C685 1.393 . S
C682 H674 0.950 . S
C682 C680 1.391 . S
C682 C683 1.400 . S
C683 C682 1.400 . S
C683 C684 1.398 . S
C683 C689 1.491 . S
C684 H675 0.950 . S
C684 C683 1.398 . S
C684 C685 1.391 . S
C685 H673 0.950 . S
C685 C681 1.393 . S
C685 C684 1.391 . S
C686 H676 0.950 . S
C686 C687 1.386 . S
C686 C688 1.391 . S
C687 C686 1.386 . S
C687 C691 1.393 . S
C688 H677 0.950 . S
C688 C686 1.391 . S
C688 C689 1.400 . S
C689 C683 1.491 . S
C689 C688 1.400 . S
C689 C690 1.398 . S
C690 H678 0.950 . S
C690 C689 1.398 . S
C690 C691 1.391 . S
C691 H679 0.950 . S
C691 C687 1.393 . S
C691 C690 1.391 . S
H692 C700 0.950 . S
H693 C705 0.950 . S
H694 C702 0.950 . S
H695 C704 0.950 . S
H696 C706 0.950 . S
H697 C708 0.950 . S
H698 C710 0.950 . S
H699 C711 0.950 . S
C700 H692 0.950 . S
C700 C701 1.386 . S
C700 C702 1.391 . S
C701 C700 1.386 . S
C701 C705 1.393 . S
C702 H694 0.950 . S
C702 C700 1.391 . S
C702 C703 1.400 . S
C703 C702 1.400 . S
C703 C704 1.398 . S
C703 C709 1.491 . S
C704 H695 0.950 . S
C704 C703 1.398 . S
C704 C705 1.391 . S
C705 H693 0.950 . S
C705 C701 1.393 . S
C705 C704 1.391 . S
C706 H696 0.950 . S
C706 C707 1.386 . S
C706 C708 1.391 . S
C707 C706 1.386 . S
C707 C711 1.393 . S
C708 H697 0.950 . S
C708 C706 1.391 . S
C708 C709 1.400 . S
C709 C703 1.491 . S
C709 C708 1.400 . S
C709 C710 1.398 . S
C710 H698 0.950 . S
C710 C709 1.398 . S
C710 C711 1.391 . S
C711 H699 0.950 . S
C711 C707 1.393 . S
C711 C710 1.391 . S
H712 C720 0.950 . S
H713 C725 0.950 . S
H714 C722 0.950 . S
H715 C724 0.950 . S
H716 C726 0.950 . S
H717 C728 0.950 . S
H718 C730 0.950 . S
H719 C731 0.950 . S
C720 H712 0.950 . S
C720 C721 1.386 1_556 S
C720 C722 1.391 . S
C721 C720 1.386 1_554 S
C721 C725 1.393 . S
C722 H714 0.950 . S
C722 C720 1.391 . S
C722 C723 1.400 1_556 S
C723 C722 1.400 1_554 S
C723 C724 1.398 . S
C723 C729 1.491 1_554 S
C724 H715 0.950 . S
C724 C723 1.398 . S
C724 C725 1.391 . S
C725 H713 0.950 . S
C725 C721 1.393 . S
C725 C724 1.391 . S
C726 H716 0.950 . S
C726 C727 1.386 1_554 S
C726 C728 1.391 . S
C727 C726 1.386 1_556 S
C727 C731 1.393 . S
C728 H717 0.950 . S
C728 C726 1.391 . S
C728 C729 1.400 1_554 S
C729 C723 1.491 1_556 S
C729 C728 1.400 1_556 S
C729 C730 1.398 . S
C730 H718 0.950 . S
C730 C729 1.398 . S
C730 C731 1.391 . S
C731 H719 0.950 . S
C731 C727 1.393 . S
C731 C730 1.391 . S
H732 C740 0.950 . S
H733 C745 0.950 . S
H734 C742 0.950 . S
H735 C744 0.950 . S
H736 C746 0.950 . S
H737 C748 0.950 . S
H738 C750 0.950 . S
H739 C751 0.950 . S
C740 H732 0.950 . S
C740 C741 1.386 . S
C740 C742 1.391 . S
C741 C740 1.386 . S
C741 C745 1.393 . S
C742 H734 0.950 . S
C742 C740 1.391 . S
C742 C743 1.400 . S
C743 C742 1.400 . S
C743 C744 1.398 . S
C743 C749 1.491 . S
C744 H735 0.950 . S
C744 C743 1.398 . S
C744 C745 1.391 . S
C745 H733 0.950 . S
C745 C741 1.393 . S
C745 C744 1.391 . S
C746 H736 0.950 . S
C746 C747 1.386 . S
C746 C748 1.391 . S
C747 C746 1.386 . S
C747 C751 1.393 . S
C748 H737 0.950 . S
C748 C746 1.391 . S
C748 C749 1.400 . S
C749 C743 1.491 . S
C749 C748 1.400 . S
C749 C750 1.398 . S
C750 H738 0.950 . S
C750 C749 1.398 . S
C750 C751 1.391 . S
C751 H739 0.950 . S
C751 C747 1.393 . S
C751 C750 1.391 . S
H752 C760 0.950 . S
H753 C765 0.950 . S
H754 C762 0.950 . S
H755 C764 0.950 . S
H756 C766 0.950 . S
H757 C768 0.950 . S
H758 C770 0.950 . S
H759 C771 0.950 . S
C760 H752 0.950 . S
C760 C761 1.386 . S
C760 C762 1.391 . S
C761 C760 1.386 . S
C761 C765 1.393 . S
C762 H754 0.950 . S
C762 C760 1.391 . S
C762 C763 1.400 . S
C763 C762 1.400 . S
C763 C764 1.398 . S
C763 C769 1.491 . S
C764 H755 0.950 . S
C764 C763 1.398 . S
C764 C765 1.391 . S
C765 H753 0.950 . S
C765 C761 1.393 . S
C765 C764 1.391 . S
C766 H756 0.950 . S
C766 C767 1.386 . S
C766 C768 1.391 . S
C767 C766 1.386 . S
C767 C771 1.393 . S
C768 H757 0.950 . S
C768 C766 1.391 . S
C768 C769 1.400 . S
C769 C763 1.491 . S
C769 C768 1.400 . S
C769 C770 1.398 . S
C770 H758 0.950 . S
C770 C769 1.398 . S
C770 C771 1.391 . S
C771 H759 0.950 . S
C771 C767 1.393 . S
C771 C770 1.391 . S
H772 C780 0.950 1_556 S
H773 C785 0.950 . S
H774 C782 0.950 . S
H775 C784 0.950 . S
H776 C786 0.950 1_554 S
H777 C788 0.950 . S
H778 C790 0.950 . S
H779 C791 0.950 . S
C780 H772 0.950 1_554 S
C780 C781 1.386 . S
C780 C782 1.391 1_554 S
C781 C780 1.386 . S
C781 C785 1.393 . S
C782 H774 0.950 . S
C782 C780 1.391 1_556 S
C782 C783 1.400 1_556 S
C783 C782 1.400 1_554 S
C783 C784 1.398 . S
C783 C789 1.491 1_554 S
C784 H775 0.950 . S
C784 C783 1.398 . S
C784 C785 1.391 . S
C785 H773 0.950 . S
C785 C781 1.393 . S
C785 C784 1.391 . S
C786 H776 0.950 1_556 S
C786 C787 1.386 . S
C786 C788 1.391 1_556 S
C787 C786 1.386 . S
C787 C791 1.393 . S
C788 H777 0.950 . S
C788 C786 1.391 1_554 S
C788 C789 1.400 1_554 S
C789 C783 1.491 1_556 S
C789 C788 1.400 1_556 S
C789 C790 1.398 . S
C790 H778 0.950 . S
C790 C789 1.398 . S
C790 C791 1.391 . S
C791 H779 0.950 . S
C791 C787 1.393 . S
C791 C790 1.391 . S
H792 C800 0.950 . S
H793 C805 0.950 . S
H794 C802 0.950 . S
H795 C804 0.950 . S
H796 C806 0.950 . S
H797 C808 0.950 . S
H798 C810 0.950 . S
H799 C811 0.950 . S
C800 H792 0.950 . S
C800 C801 1.386 1_565 S
C800 C802 1.391 . S
C801 C800 1.386 1_545 S
C801 C805 1.393 . S
C802 H794 0.950 . S
C802 C800 1.391 . S
C802 C803 1.400 1_565 S
C803 C802 1.400 1_545 S
C803 C804 1.398 . S
C803 C809 1.491 1_545 S
C804 H795 0.950 . S
C804 C803 1.398 . S
C804 C805 1.391 . S
C805 H793 0.950 . S
C805 C801 1.393 . S
C805 C804 1.391 . S
C806 H796 0.950 . S
C806 C807 1.386 1_545 S
C806 C808 1.391 . S
C807 C806 1.386 1_565 S
C807 C811 1.393 . S
C808 H797 0.950 . S
C808 C806 1.391 . S
C808 C809 1.400 1_545 S
C809 C803 1.491 1_565 S
C809 C808 1.400 1_565 S
C809 C810 1.398 . S
C810 H798 0.950 . S
C810 C809 1.398 . S
C810 C811 1.391 . S
C811 H799 0.950 . S
C811 C807 1.393 . S
C811 C810 1.391 . S
H812 C820 0.950 . S
H813 C825 0.950 . S
H814 C822 0.950 . S
H815 C824 0.950 . S
H816 C826 0.950 . S
H817 C828 0.950 . S
H818 C830 0.950 . S
H819 C831 0.950 . S
C820 H812 0.950 . S
C820 C821 1.386 . S
C820 C822 1.391 . S
C821 C820 1.386 . S
C821 C825 1.393 . S
C822 H814 0.950 . S
C822 C820 1.391 . S
C822 C823 1.400 . S
C823 C822 1.400 . S
C823 C824 1.398 . S
C823 C829 1.491 . S
C824 H815 0.950 . S
C824 C823 1.398 . S
C824 C825 1.391 . S
C825 H813 0.950 . S
C825 C821 1.393 . S
C825 C824 1.391 . S
C826 H816 0.950 . S
C826 C827 1.386 . S
C826 C828 1.391 . S
C827 C826 1.386 . S
C827 C831 1.393 . S
C828 H817 0.950 . S
C828 C826 1.391 . S
C828 C829 1.400 . S
C829 C823 1.491 . S
C829 C828 1.400 . S
C829 C830 1.398 . S
C830 H818 0.950 . S
C830 C829 1.398 . S
C830 C831 1.391 . S
C831 H819 0.950 . S
C831 C827 1.393 . S
C831 C830 1.391 . S
H832 C840 0.950 . S
H833 C845 0.950 . S
H834 C842 0.950 . S
H835 C844 0.950 . S
H836 C846 0.950 . S
H837 C848 0.950 . S
H838 C850 0.950 . S
H839 C851 0.950 . S
C840 H832 0.950 . S
C840 C841 1.386 . S
C840 C842 1.391 1_455 S
C841 C840 1.386 . S
C841 C845 1.393 . S
C842 H834 0.950 . S
C842 C840 1.391 1_655 S
C842 C843 1.400 1_655 S
C843 C842 1.400 1_455 S
C843 C844 1.398 . S
C843 C849 1.491 1_455 S
C844 H835 0.950 . S
C844 C843 1.398 . S
C844 C845 1.391 . S
C845 H833 0.950 . S
C845 C841 1.393 . S
C845 C844 1.391 . S
C846 H836 0.950 . S
C846 C847 1.386 . S
C846 C848 1.391 1_655 S
C847 C846 1.386 . S
C847 C851 1.393 . S
C848 H837 0.950 . S
C848 C846 1.391 1_455 S
C848 C849 1.400 1_455 S
C849 C843 1.491 1_655 S
C849 C848 1.400 1_655 S
C849 C850 1.398 . S
C850 H838 0.950 . S
C850 C849 1.398 . S
C850 C851 1.391 . S
C851 H839 0.950 . S
C851 C847 1.393 . S
C851 C850 1.391 . S
H852 C860 0.950 . S
H853 C865 0.950 . S
H854 C862 0.950 . S
H855 C864 0.950 . S
H856 C866 0.950 . S
H857 C868 0.950 . S
H858 C870 0.950 . S
H859 C871 0.950 . S
C860 H852 0.950 . S
C860 C861 1.386 1_545 S
C860 C862 1.391 . S
C861 C860 1.386 1_565 S
C861 C865 1.393 . S
C862 H854 0.950 . S
C862 C860 1.391 . S
C862 C863 1.400 1_545 S
C863 C862 1.400 1_565 S
C863 C864 1.398 . S
C863 C869 1.491 1_565 S
C864 H855 0.950 . S
C864 C863 1.398 . S
C864 C865 1.391 . S
C865 H853 0.950 . S
C865 C861 1.393 . S
C865 C864 1.391 . S
C866 H856 0.950 . S
C866 C867 1.386 1_565 S
C866 C868 1.391 . S
C867 C866 1.386 1_545 S
C867 C871 1.393 . S
C868 H857 0.950 . S
C868 C866 1.391 . S
C868 C869 1.400 1_565 S
C869 C863 1.491 1_545 S
C869 C868 1.400 1_545 S
C869 C870 1.398 . S
C870 H858 0.950 . S
C870 C869 1.398 . S
C870 C871 1.391 . S
C871 H859 0.950 . S
C871 C867 1.393 . S
C871 C870 1.391 . S
H872 C880 0.950 . S
H873 C885 0.950 . S
H874 C882 0.950 . S
H875 C884 0.950 . S
H876 C886 0.950 . S
H877 C888 0.950 . S
H878 C890 0.950 . S
H879 C891 0.950 . S
C880 H872 0.950 . S
C880 C881 1.386 . S
C880 C882 1.391 . S
C881 C880 1.386 . S
C881 C885 1.393 . S
C882 H874 0.950 . S
C882 C880 1.391 . S
C882 C883 1.400 . S
C883 C882 1.400 . S
C883 C884 1.398 . S
C883 C889 1.491 . S
C884 H875 0.950 . S
C884 C883 1.398 . S
C884 C885 1.391 . S
C885 H873 0.950 . S
C885 C881 1.393 . S
C885 C884 1.391 . S
C886 H876 0.950 . S
C886 C887 1.386 . S
C886 C888 1.391 . S
C887 C886 1.386 . S
C887 C891 1.393 . S
C888 H877 0.950 . S
C888 C886 1.391 . S
C888 C889 1.400 . S
C889 C883 1.491 . S
C889 C888 1.400 . S
C889 C890 1.398 . S
C890 H878 0.950 . S
C890 C889 1.398 . S
C890 C891 1.391 . S
C891 H879 0.950 . S
C891 C887 1.393 . S
C891 C890 1.391 . S
H892 C900 0.950 . S
H893 C905 0.950 . S
H894 C902 0.950 . S
H895 C904 0.956 . S
H896 C906 0.950 . S
H897 C908 0.950 . S
H898 C910 0.956 . S
H899 C911 0.950 . S
C900 H892 0.950 . S
C900 C901 1.386 . S
C900 C902 1.391 . S
C901 C900 1.386 . S
C901 C905 1.393 . S
C902 H894 0.950 . S
C902 C900 1.391 . S
C902 C903 1.400 . S
C903 C902 1.400 . S
C903 C904 1.398 . S
C903 C909 1.491 1_655 S
C904 H895 0.956 . S
C904 C903 1.398 . S
C904 C905 1.391 . S
C905 H893 0.950 . S
C905 C901 1.393 . S
C905 C904 1.391 . S
C906 H896 0.950 . S
C906 C907 1.386 . S
C906 C908 1.391 . S
C907 C906 1.386 . S
C907 C911 1.393 . S
C908 H897 0.950 . S
C908 C906 1.391 . S
C908 C909 1.400 . S
C909 C903 1.491 1_455 S
C909 C908 1.400 . S
C909 C910 1.398 . S
C910 H898 0.956 . S
C910 C909 1.398 . S
C910 C911 1.391 . S
C911 H899 0.950 . S
C911 C907 1.393 . S
C911 C910 1.391 . S
C441 C4 1.755 . S
C447 C292 1.757 . S
C461 C40 1.761 . S
C467 C328 1.760 . S
C481 C364 1.758 . S
C487 C76 1.756 . S
C501 C400 1.761 . S
C507 C112 1.761 . S
C521 C220 1.758 . S
C527 C148 1.761 . S
C541 C256 1.761 . S
C547 C184 1.759 . S
C561 C14 1.512 . S
C567 C122 1.521 . S
C581 C158 1.510 . S
C587 C50 1.522 . S
C601 C194 1.512 . S
C607 C86 1.521 . S
C621 C230 1.522 . S
C627 C338 1.507 . S
C641 C374 1.510 . S
C647 C266 1.522 . S
C661 C302 1.521 . S
C667 C410 1.507 . S
C681 C218 0.866 . S
C687 C2 0.860 . S
C701 C38 0.841 . S
C707 C254 0.830 . S
C721 C290 0.843 . S
C727 C74 0.855 . S
C741 C326 0.829 . S
C747 C110 0.825 . S
C761 C146 0.867 . S
C767 C362 0.861 . S
C781 C398 0.828 . S
C787 C182 0.836 . S
C801 C3 1.003 . S
C807 C255 1.006 . S
C821 C291 1.002 . S
C827 C39 1.006 . S
C841 C327 1.020 . S
C847 C75 1.021 . S
C861 C111 1.017 . S
C867 C363 1.021 . S
C881 C399 1.006 . S
C887 C147 1.003 . S
C901 C219 1.002 . S
C907 C183 1.003 . S
