# Generated by pormake.
# Topology lcv-e, (6)-cn, num edge types: 1
# Building blocks:
#     Node 0, Type 0, BuildingBlock: MAKGUD_clean_sbu_1, # of connection points: 6
#     Node 1, Type 0, BuildingBlock: MAKGUD_clean_sbu_1, # of connection points: 6
#     Node 2, Type 0, BuildingBlock: MAKGUD_clean_sbu_1, # of connection points: 6
#     Node 3, Type 0, BuildingBlock: MAKGUD_clean_sbu_1, # of connection points: 6
#     Node 4, Type 0, BuildingBlock: MAKGUD_clean_sbu_1, # of connection points: 6
#     Node 5, Type 0, BuildingBlock: MAKGUD_clean_sbu_1, # of connection points: 6
#     Node 6, Type 0, BuildingBlock: MAKGUD_clean_sbu_1, # of connection points: 6
#     Node 7, Type 0, BuildingBlock: MAKGUD_clean_sbu_1, # of connection points: 6
#     Node 8, Type 0, BuildingBlock: MAKGUD_clean_sbu_1, # of connection points: 6
#     Node 9, Type 0, BuildingBlock: MAKGUD_clean_sbu_1, # of connection points: 6
#     Node 10, Type 0, BuildingBlock: MAKGUD_clean_sbu_1, # of connection points: 6
#     Node 11, Type 0, BuildingBlock: MAKGUD_clean_sbu_1, # of connection points: 6
#     Node 12, Type 0, BuildingBlock: MAKGUD_clean_sbu_1, # of connection points: 6
#     Node 13, Type 0, BuildingBlock: MAKGUD_clean_sbu_1, # of connection points: 6
#     Node 14, Type 0, BuildingBlock: MAKGUD_clean_sbu_1, # of connection points: 6
#     Node 15, Type 0, BuildingBlock: MAKGUD_clean_sbu_1, # of connection points: 6
#     Node 16, Type 0, BuildingBlock: MAKGUD_clean_sbu_1, # of connection points: 6
#     Node 17, Type 0, BuildingBlock: MAKGUD_clean_sbu_1, # of connection points: 6
#     Node 18, Type 0, BuildingBlock: MAKGUD_clean_sbu_1, # of connection points: 6
#     Node 19, Type 0, BuildingBlock: MAKGUD_clean_sbu_1, # of connection points: 6
#     Node 20, Type 0, BuildingBlock: MAKGUD_clean_sbu_1, # of connection points: 6
#     Node 21, Type 0, BuildingBlock: MAKGUD_clean_sbu_1, # of connection points: 6
#     Node 22, Type 0, BuildingBlock: MAKGUD_clean_sbu_1, # of connection points: 6
#     Node 23, Type 0, BuildingBlock: MAKGUD_clean_sbu_1, # of connection points: 6
#     Edge 24, Type (0, 0), None
#     Edge 25, Type (0, 0), None
#     Edge 26, Type (0, 0), None
#     Edge 27, Type (0, 0), None
#     Edge 28, Type (0, 0), None
#     Edge 29, Type (0, 0), None
#     Edge 30, Type (0, 0), None
#     Edge 31, Type (0, 0), None
#     Edge 32, Type (0, 0), None
#     Edge 33, Type (0, 0), None
#     Edge 34, Type (0, 0), None
#     Edge 35, Type (0, 0), None
#     Edge 36, Type (0, 0), None
#     Edge 37, Type (0, 0), None
#     Edge 38, Type (0, 0), None
#     Edge 39, Type (0, 0), None
#     Edge 40, Type (0, 0), None
#     Edge 41, Type (0, 0), None
#     Edge 42, Type (0, 0), None
#     Edge 43, Type (0, 0), None
#     Edge 44, Type (0, 0), None
#     Edge 45, Type (0, 0), None
#     Edge 46, Type (0, 0), None
#     Edge 47, Type (0, 0), None
#     Edge 48, Type (0, 0), None
#     Edge 49, Type (0, 0), None
#     Edge 50, Type (0, 0), None
#     Edge 51, Type (0, 0), None
#     Edge 52, Type (0, 0), None
#     Edge 53, Type (0, 0), None
#     Edge 54, Type (0, 0), None
#     Edge 55, Type (0, 0), None
#     Edge 56, Type (0, 0), None
#     Edge 57, Type (0, 0), None
#     Edge 58, Type (0, 0), None
#     Edge 59, Type (0, 0), None
#     Edge 60, Type (0, 0), None
#     Edge 61, Type (0, 0), None
#     Edge 62, Type (0, 0), None
#     Edge 63, Type (0, 0), None
#     Edge 64, Type (0, 0), None
#     Edge 65, Type (0, 0), None
#     Edge 66, Type (0, 0), None
#     Edge 67, Type (0, 0), None
#     Edge 68, Type (0, 0), None
#     Edge 69, Type (0, 0), None
#     Edge 70, Type (0, 0), None
#     Edge 71, Type (0, 0), None
#     Edge 72, Type (0, 0), None
#     Edge 73, Type (0, 0), None
#     Edge 74, Type (0, 0), None
#     Edge 75, Type (0, 0), None
#     Edge 76, Type (0, 0), None
#     Edge 77, Type (0, 0), None
#     Edge 78, Type (0, 0), None
#     Edge 79, Type (0, 0), None
#     Edge 80, Type (0, 0), None
#     Edge 81, Type (0, 0), None
#     Edge 82, Type (0, 0), None
#     Edge 83, Type (0, 0), None
#     Edge 84, Type (0, 0), None
#     Edge 85, Type (0, 0), None
#     Edge 86, Type (0, 0), None
#     Edge 87, Type (0, 0), None
#     Edge 88, Type (0, 0), None
#     Edge 89, Type (0, 0), None
#     Edge 90, Type (0, 0), None
#     Edge 91, Type (0, 0), None
#     Edge 92, Type (0, 0), None
#     Edge 93, Type (0, 0), None
#     Edge 94, Type (0, 0), None
#     Edge 95, Type (0, 0), None
# Relax obj value: 0.314
# Max RMSD: 0.223
# Mean RMSD: 0.194
data_MOF--net-lcv-e--node1-MAKGUD_clean_sbu_1--edge1-none
_symmetry_space_group_name_H-M    P1
_symmetry_Int_Tables_number       1
_symmetry_cell_setting            triclinic
loop_
_symmetry_equiv_pos_as_xyz
'x, y, z'
_cell_length_a     29.475418
_cell_length_b     30.061141
_cell_length_c     29.323685
_cell_angle_alpha  89.379722
_cell_angle_beta   91.972882
_cell_angle_gamma 87.298839
loop_
_atom_site_label
_atom_site_type_symbol
_atom_site_fract_x
_atom_site_fract_y
_atom_site_fract_z
_atom_type_partial_charge
O0 O 0.1606 0.2453 0.47381 0.0
Tb1 Tb 0.15283 0.2635 0.40155 0.0
C2 C 0.19109 0.22226 0.31559 0.0
O3 O 1.06349 0.31523 0.36389 0.0
Tb4 Tb 0.09747 0.27182 0.31494 0.0
C5 C 0.13415 0.33865 0.2759 0.0
O6 O 0.1291 0.33604 0.39457 0.0
O7 O 1.05087 0.24319 0.2657 0.0
C8 C 1.00829 0.25751 0.26256 0.0
O9 O 0.99164 0.28045 0.29651 0.0
O10 O 0.20236 0.24822 0.34941 0.0
O11 O 0.14784 0.2173 0.30555 0.0
O12 O 0.11702 0.20029 0.38451 0.0
C13 C 0.08752 0.34834 0.37943 0.0
C14 C 0.20474 0.24741 0.47641 0.0
O15 O 0.15425 0.31495 0.30833 0.0
O16 O 0.0954 0.32299 0.26352 0.0
C17 C 0.12016 0.1615 0.40801 0.0
O18 O 0.13742 0.16072 0.44985 0.0
O19 O 0.21856 0.26136 0.43751 0.0
O20 O 0.17681 0.74411 0.55443 0.0
Tb21 Tb 0.20811 0.80377 0.58085 0.0
C22 C 0.18072 0.90041 0.57214 0.0
O23 O 0.29018 0.82034 0.6599 0.0
Tb24 Tb 0.24365 0.87889 0.65561 0.0
C25 C 0.2979 0.92652 0.60954 0.0
O26 O 0.2842 0.80158 0.58535 0.0
O27 O 0.22141 0.91275 0.71687 0.0
C28 C 0.2506 0.92695 0.74762 0.0
O29 O 0.28827 0.9028 0.75633 0.0
O30 O 0.20115 0.86834 0.55017 0.0
O31 O 0.18169 0.90072 0.61703 0.0
O32 O 0.14665 0.82566 0.62028 0.0
C33 C 0.31039 0.80887 0.62181 0.0
C34 C 0.17594 0.75731 0.5118 0.0
O35 O 0.27375 0.89589 0.59255 0.0
O36 O 0.29159 0.93099 0.65292 0.0
C37 C 0.10376 0.81576 0.60914 0.0
O38 O 0.09684 0.78142 0.58305 0.0
O39 O 0.19597 0.79455 0.50866 0.0
O40 O 0.50707 1.03894 0.97031 0.0
Tb41 Tb 0.52118 1.01791 0.90052 0.0
C42 C 0.47061 1.02873 0.80891 0.0
O43 O 0.55504 0.91601 0.84154 0.0
Tb44 Tb 0.551 0.96694 0.78593 0.0
C45 C 0.51262 0.9217 0.7179 0.0
O46 O 0.56094 0.95222 0.91175 0.0
O47 O 0.61842 0.9798 0.76079 0.0
C48 C 0.65289 0.95021 0.76352 0.0
O49 O 0.65478 0.92018 0.79626 0.0
O50 O 0.46949 1.00737 0.8478 0.0
O51 O 0.50876 1.0287 0.78711 0.0
O52 O 0.52604 1.09232 0.88303 0.0
C53 C 0.55978 0.91492 0.88683 0.0
C54 C 0.46727 1.02185 0.97226 0.0
O55 O 0.49879 0.92441 0.75931 0.0
O56 O 0.54831 0.94483 0.71418 0.0
C57 C 0.5581 0.12282 0.8875 0.0
O58 O 0.59983 1.10963 0.89989 0.0
O59 O 0.45877 1.00207 0.93408 0.0
O60 O 0.49679 0.46536 1.07776 0.0
Tb61 Tb 0.47263 0.39802 1.06877 0.0
C62 C 0.47604 0.31559 1.01349 0.0
O63 O 0.38527 0.35922 0.12736 0.0
Tb64 Tb 0.43473 0.306 0.11065 0.0
C65 C 0.36785 0.25608 1.09115 0.0
O66 O 0.39738 0.40667 1.06922 0.0
O67 O 0.45835 0.27578 0.17581 0.0
C68 C 0.43049 0.27537 0.21009 0.0
O69 O 0.40803 0.31272 0.21952 0.0
O70 O 0.46159 0.35709 1.01077 0.0
O71 O 0.48038 0.29467 1.05338 0.0
O72 O 0.53367 0.35237 1.08895 0.0
C73 C 0.36871 0.38726 1.0956 0.0
C74 C 0.49714 0.47426 1.03404 0.0
O75 O 0.37069 0.296 1.07548 0.0
O76 O 0.40469 0.24221 0.11308 0.0
C77 C 0.57634 0.3621 1.10118 0.0
O78 O 0.58466 0.40273 0.11381 0.0
O79 O 0.48611 0.43978 1.01078 0.0
O80 O 0.13528 1.02906 0.31442 0.0
Tb81 Tb 0.13371 1.00993 0.38634 0.0
C82 C 0.18103 1.03665 0.4727 0.0
O83 O 1.0735 0.92863 0.44762 0.0
Tb84 Tb 0.09966 0.9826 0.49124 0.0
C85 C 0.15384 0.93261 0.54501 0.0
O86 O 0.11495 0.93885 0.3834 0.0
O87 O 1.03958 0.99867 0.52903 0.0
C88 C 1.00112 0.9846 0.51284 0.0
O89 O 0.99464 0.98412 0.46832 0.0
O90 O 0.18712 1.01012 0.43828 0.0
O91 O 0.14001 1.04197 0.48861 0.0
O92 O 0.11037 1.07913 0.40834 0.0
C93 C 0.09117 0.91297 0.40971 0.0
C94 C 0.17879 1.02054 0.3107 0.0
O95 O 0.15719 0.93616 0.50114 0.0
O96 O 0.11999 0.95726 0.55916 0.0
C97 C 0.11417 0.11725 0.38456 0.0
O98 O 0.1218 0.11526 0.34082 0.0
O99 O 0.19616 1.00576 0.34945 0.0
O100 O 0.48145 0.73951 0.70154 0.0
Tb101 Tb 0.46215 0.80147 0.66372 0.0
C102 C 0.49368 0.89122 0.68448 0.0
O103 O 0.37382 0.85092 0.59078 0.0
Tb104 Tb 0.43165 0.89588 0.60251 0.0
C105 C 0.39629 0.94991 0.66198 0.0
O106 O 0.38998 0.7943 0.64457 0.0
O107 O 0.44012 0.94141 0.5446 0.0
C108 C 0.40589 0.96204 0.52159 0.0
O109 O 0.3694 0.94054 0.51162 0.0
O110 O 0.46615 0.86263 0.69946 0.0
O111 O 0.49713 0.89518 0.6401 0.0
O112 O 0.5262 0.81187 0.62595 0.0
C113 C 0.36088 0.8174 0.61722 0.0
C114 C 0.46978 0.75586 0.74095 0.0
O115 O 0.39317 0.90717 0.66329 0.0
O116 O 0.41671 0.96261 0.62621 0.0
C117 C 0.56753 0.80374 0.64535 0.0
O118 O 0.57058 0.7828 0.68491 0.0
O119 O 0.45569 0.797 0.73628 0.0
O120 O 0.65333 0.27718 0.92651 0.0
Tb121 Tb 0.57979 0.27208 0.92118 0.0
C122 C 0.4967 0.29663 0.97317 0.0
O123 O 0.50072 0.18317 0.88866 0.0
Tb124 Tb 0.46038 0.24522 0.89706 0.0
C125 C 0.40142 0.21078 0.95087 0.0
O126 O 0.57592 0.20444 0.8875 0.0
O127 O 0.42703 0.25645 0.83095 0.0
C128 C 0.44361 0.23536 0.79611 0.0
O129 O 0.48775 0.22718 0.79569 0.0
O130 O 0.53391 0.27162 0.97716 0.0
O131 O 0.47853 0.30468 0.93242 0.0
O132 O 0.57244 0.34953 0.91642 0.0
C133 C 0.54459 0.17308 0.88694 0.0
C134 C 0.65876 0.25654 0.96581 0.0
O135 O 0.44511 0.20771 0.95728 0.0
O136 O 0.39015 0.23439 0.91453 0.0
C137 C 0.60046 0.37929 0.8985 0.0
O138 O 0.63346 0.36372 0.87336 0.0
O139 O 0.61959 0.2452 0.97946 0.0
O140 O 0.22562 0.31624 0.99813 0.0
Tb141 Tb 0.22015 0.33973 1.06868 0.0
C142 C 0.2397 0.30809 0.16268 0.0
O143 O 0.13284 0.36421 0.13877 0.0
Tb144 Tb 0.19024 0.39585 0.1733 0.0
C145 C 0.15498 0.37118 0.24922 0.0
O146 O 0.14969 0.36829 1.06348 0.0
O147 O 0.20271 0.46667 0.18192 0.0
C148 C 0.17693 0.49268 0.20777 0.0
O149 O 0.19014 0.53242 0.21854 0.0
O150 O 0.21216 0.29999 0.12868 0.0
O151 O 0.2485 0.34937 0.17186 0.0
O152 O 0.29175 0.35608 1.09213 0.0
C153 C 0.12081 0.35948 1.09567 0.0
C154 C 0.21804 0.27477 1.00812 0.0
O155 O 0.1328 0.38759 0.214 0.0
O156 O 0.19843 0.3712 0.24336 0.0
C157 C 0.31817 0.38945 1.08185 0.0
O158 O 0.30233 0.42064 1.0531 0.0
O159 O 0.21187 0.27058 1.05137 0.0
O160 O 0.25041 1.04121 0.28137 0.0
Tb161 Tb 0.25964 1.10937 0.2586 0.0
C162 C 0.22576 0.19869 0.2883 0.0
O163 O 0.32494 0.15687 0.17357 0.0
Tb164 Tb 0.30902 0.20475 0.22894 0.0
C165 C 0.26481 0.2712 0.1851 0.0
O166 O 0.27331 1.10242 0.18471 0.0
O167 O 0.37291 0.23547 0.24704 0.0
C168 C 0.40834 0.23332 0.22081 0.0
O169 O 0.41409 0.19896 0.19403 0.0
O170 O 0.21327 0.16671 0.26168 0.0
O171 O 0.26915 0.20742 0.29116 0.0
O172 O 0.29519 0.12797 0.32481 0.0
C173 C 0.30086 0.12349 0.15797 0.0
C174 C 0.20611 1.04438 0.27943 0.0
O175 O 0.25194 0.23046 0.18578 0.0
O176 O 0.30291 0.27436 0.20772 0.0
C177 C 0.2911 1.10752 0.36538 0.0
O178 O 0.27373 1.06819 0.36659 0.0
O179 O 0.19258 1.08362 0.2644 0.0
O180 O 0.27546 0.2061 0.49463 0.0
Tb181 Tb 0.2761 0.13692 0.51835 0.0
C182 C 0.22113 1.05607 0.49442 0.0
O183 O 0.28547 1.0688 0.60012 0.0
Tb184 Tb 0.31397 1.03707 0.53973 0.0
C185 C 0.31204 0.96127 0.58139 0.0
O186 O 0.31162 0.13593 0.58755 0.0
O187 O 0.38012 1.04097 0.50804 0.0
C188 C 0.41105 1.00767 0.50342 0.0
O189 O 0.45027 1.01693 0.48661 0.0
O190 O 0.21866 1.09291 0.51812 0.0
O191 O 0.26085 1.0368 0.48734 0.0
O192 O 0.2973 1.10976 0.45027 0.0
C193 C 0.30167 1.10479 0.61737 0.0
C194 C 0.23332 0.21608 0.50413 0.0
O195 O 0.3339 0.99454 0.59663 0.0
O196 O 0.29284 0.96977 0.54155 0.0
C197 C 0.29671 0.13177 0.41009 0.0
O198 O 0.29225 0.17539 0.40941 0.0
O199 O 0.21636 0.18177 0.52319 0.0
O200 O 0.37174 0.19847 0.7826 0.0
Tb201 Tb 0.36983 0.12954 0.75883 0.0
C202 C 0.42796 1.04859 0.7883 0.0
O203 O 0.29525 1.07421 0.69506 0.0
Tb204 Tb 0.33347 1.03343 0.74811 0.0
C205 C 0.37595 0.97957 0.69363 0.0
O206 O 0.34402 0.13039 0.68655 0.0
O207 O 0.28503 0.99082 0.77908 0.0
C208 C 0.25146 0.97562 0.75398 0.0
O209 O 0.2333 1.0013 0.72103 0.0
O210 O 0.4282 1.0824 0.76 0.0
O211 O 0.3887 1.03394 0.79981 0.0
O212 O 0.34147 1.10051 0.82263 0.0
C213 C 0.31285 1.10484 0.66883 0.0
C214 C 0.41473 0.20271 0.7748 0.0
O215 O 0.3814 1.02208 0.69458 0.0
O216 O 0.3469 0.96745 0.72265 0.0
C217 C 0.33355 0.11996 0.86261 0.0
O218 O 0.33109 0.16357 0.86472 0.0
O219 O 0.43151 0.16616 0.75793 0.0
O220 O 0.38852 1.02866 0.9959 0.0
Tb221 Tb 0.35845 1.09375 1.01488 0.0
C222 C 0.37141 0.18518 0.97742 0.0
O223 O 0.26823 0.12983 1.07963 0.0
Tb224 Tb 0.28326 0.17869 1.0268 0.0
C225 C 0.33293 0.22804 1.07776 0.0
O226 O 0.34021 1.09803 1.08872 0.0
O227 O 0.22259 0.19774 0.98469 0.0
C228 C 0.20833 0.23939 0.97598 0.0
O229 O 0.17799 0.24771 0.94282 0.0
O230 O 0.39028 0.15562 1.00581 0.0
O231 O 0.32727 0.18707 0.96962 0.0
O232 O 0.32328 1.10715 0.94619 0.0
C233 C 0.30159 1.11273 1.10696 0.0
C234 C 0.43083 1.03968 1.00058 0.0
O235 O 0.34208 0.18659 1.07044 0.0
O236 O 0.29475 0.24208 1.05801 0.0
C237 C 0.34003 1.09313 0.90659 0.0
O238 O 0.37098 1.0603 0.90749 0.0
O239 O 0.43162 1.07989 1.01596 0.0
O240 O 0.69436 0.25292 1.04111 0.0
Tb241 Tb 0.72178 0.31322 1.06939 0.0
C242 C 0.69359 0.4091 1.06557 0.0
O243 O 0.80912 0.32949 0.14573 0.0
Tb244 Tb 0.7625 0.38841 0.14337 0.0
C245 C 0.81052 0.43867 1.09326 0.0
O246 O 0.7977 0.30926 1.07202 0.0
O247 O 0.74326 0.42334 0.20538 0.0
C248 C 0.77289 0.44425 0.23089 0.0
O249 O 0.81103 0.42254 0.24361 0.0
O250 O 0.71338 0.3785 1.04121 0.0
O251 O 0.69694 0.40739 0.11038 0.0
O252 O 0.65837 0.33349 1.10736 0.0
C253 C 0.82628 0.31549 1.10687 0.0
C254 C 0.69434 0.26664 0.99865 0.0
O255 O 0.78714 0.40679 1.07774 0.0
O256 O 0.80783 0.44195 0.13708 0.0
C257 C 0.61593 0.33034 1.08962 0.0
O258 O 0.60995 0.30452 1.05442 0.0
O259 O 0.71168 0.30532 0.99674 0.0
O260 O 1.02607 0.51072 0.4452 0.0
Tb261 Tb 1.05139 0.50419 0.3764 0.0
C262 C 0.98648 0.52519 0.29362 0.0
O263 O 1.0511 0.39727 0.32258 0.0
Tb264 Tb 1.04936 0.44924 0.27018 0.0
C265 C 1.02629 0.4181 0.18915 0.0
O266 O 0.08817 0.4346 0.38062 0.0
O267 O 0.11496 0.47929 0.25943 0.0
C268 C 0.1306 0.48069 0.21748 0.0
O269 O 0.10515 0.46849 0.18281 0.0
O270 O 1.02103 0.54105 0.31637 0.0
O271 O 0.98621 0.4826 0.28759 0.0
O272 O 1.07287 0.57153 0.40062 0.0
C273 C 1.07448 0.39622 0.36169 0.0
C274 C 0.986 0.49591 0.4366 0.0
O275 O 1.04297 0.39443 0.22357 0.0
O276 O 1.02007 0.45922 0.20123 0.0
C277 C 1.07298 0.61019 0.37689 0.0
O278 O 0.07739 0.60929 0.33254 0.0
O279 O 0.98287 0.48538 0.39357 0.0
O280 O 0.98389 0.94348 0.58315 0.0
Tb281 Tb 0.96041 0.87515 0.5818 0.0
C282 C 0.97598 0.78491 0.53746 0.0
O283 O 0.8785 0.83929 0.64539 0.0
Tb284 Tb 0.92096 0.78095 0.62872 0.0
C285 C 0.85203 0.74247 0.59253 0.0
O286 O 0.88497 0.87711 0.58026 0.0
O287 O 0.94272 0.73708 0.68548 0.0
C288 C 0.918 0.73834 0.72187 0.0
O289 O 0.90335 0.77765 0.73582 0.0
O290 O 0.9635 0.82661 0.52936 0.0
O291 O 0.9735 0.76603 0.5784 0.0
O292 O 1.02124 0.83531 0.61139 0.0
C293 C 0.8581 0.86097 0.61068 0.0
C294 C 0.98188 0.94878 0.53877 0.0
O295 O 0.87889 0.7668 0.57006 0.0
O296 O 0.86498 0.73748 0.63479 0.0
C297 C 1.06393 0.84856 0.61529 0.0
O298 O 1.07102 0.89127 0.61311 0.0
O299 O 0.96943 0.91254 0.51955 0.0
O300 O 0.13843 0.76637 0.43789 0.0
Tb301 Tb 1.06625 0.75931 0.42513 0.0
C302 C 0.99366 0.75954 0.49909 0.0
O303 O 1.01548 0.64723 0.41867 0.0
Tb304 Tb 0.95966 0.69537 0.42808 0.0
C305 C 0.87884 0.66398 0.44592 0.0
O306 O 1.06798 0.69359 0.38643 0.0
O307 O 0.9401 0.72648 0.36105 0.0
C308 C 0.96294 0.72308 0.32319 0.0
O309 O 1.00718 0.71743 0.32583 0.0
O310 O 1.00709 0.78099 0.46328 0.0
O311 O 0.98068 0.71923 0.49433 0.0
O312 O 1.061 0.83505 0.41445 0.0
C313 C 1.05364 0.65278 0.39761 0.0
C314 C 0.14041 0.74764 0.47823 0.0
O315 O 0.91668 0.64005 0.44351 0.0
O316 O 0.88731 0.7056 0.44026 0.0
C317 C 0.09199 0.8627 0.39966 0.0
O318 O 0.12773 0.84532 0.37968 0.0
O319 O 0.10003 0.736 0.48907 0.0
O320 O 0.62017 0.54929 0.81405 0.0
Tb321 Tb 0.63205 0.53265 0.88714 0.0
C322 C 0.69555 0.55004 0.9666 0.0
O323 O 0.5823 0.44501 0.9477 0.0
Tb324 Tb 0.61323 0.49648 0.99102 0.0
C325 C 0.66622 0.44262 1.0411 0.0
O326 O 0.62275 0.45794 0.88385 0.0
O327 O 0.5564 0.52198 1.02876 0.0
C328 C 0.51611 0.51291 1.01291 0.0
O329 O 0.50776 0.51824 0.96886 0.0
O330 O 0.69523 0.53111 0.92665 0.0
O331 O 0.6585 0.55188 0.9902 0.0
O332 O 0.60162 0.58879 0.92825 0.0
C333 C 0.59967 0.4301 0.90949 0.0
C334 C 0.66052 0.56371 0.80672 0.0
O335 O 0.67018 0.44953 0.99773 0.0
O336 O 0.63206 0.46576 1.05695 0.0
C337 C 0.5858 0.62899 0.91334 0.0
O338 O 0.57131 0.63365 0.87069 0.0
O339 O 0.68453 0.55962 0.84451 0.0
O340 O 0.65653 0.75102 0.99566 0.0
Tb341 Tb 0.61803 0.77353 0.93357 0.0
C342 C 0.61874 0.72183 0.84675 0.0
O343 O 0.52774 0.84184 0.89851 0.0
Tb344 Tb 0.53893 0.78955 0.84863 0.0
C345 C 0.58699 0.83273 0.79173 0.0
O346 O 0.60135 0.84761 0.92227 0.0
O347 O 0.47671 0.76437 0.81996 0.0
C348 C 0.4793 0.73613 0.78588 0.0
O349 O 0.50804 0.70149 0.78896 0.0
O350 O 0.64234 0.74989 0.87004 0.0
O351 O 0.57428 0.72485 0.84536 0.0
O352 O 0.5783 0.71094 0.93038 0.0
C353 C 0.56167 0.86776 0.90876 0.0
C354 C 0.69682 0.75302 0.97846 0.0
O355 O 0.60171 0.81711 0.83076 0.0
O356 O 0.54443 0.82477 0.78389 0.0
C357 C 0.59719 0.67018 0.94026 0.0
O358 O 0.63439 0.66725 0.96613 0.0
O359 O 0.69204 0.77017 0.93772 0.0
O360 O 1.00562 0.25154 0.17879 0.0
Tb361 Tb 0.97953 0.30813 0.13568 0.0
C362 C 1.00024 0.39867 0.15308 0.0
O363 O 0.88262 0.36364 1.07598 0.0
Tb364 Tb 0.94096 0.40775 1.07261 0.0
C365 C 0.91447 0.46549 0.13298 0.0
O366 O 0.90909 0.29623 0.11121 0.0
O367 O 0.93835 0.4481 1.00992 0.0
C368 C 0.9001 0.45884 0.98711 0.0
O369 O 0.8666 0.43174 0.98817 0.0
O370 O 0.97027 0.37142 0.16493 0.0
O371 O 1.00551 0.4056 0.10958 0.0
O372 O 1.05229 0.32286 0.11958 0.0
C373 C 0.87553 0.32503 1.09702 0.0
C374 C 0.98895 0.26689 0.21662 0.0
O375 O 0.90336 0.42449 0.1322 0.0
O376 O 0.93718 0.47556 1.0977 0.0
C377 C 1.07357 0.3429 1.08579 0.0
O378 O 1.05223 0.35196 1.04651 0.0
O379 O 0.96599 0.30384 0.20778 0.0
O380 O 0.69023 0.80409 0.52424 0.0
Tb381 Tb 0.71226 0.80743 0.59656 0.0
C382 C 0.73211 0.76013 0.68713 0.0
O383 O 0.62475 0.85894 0.63824 0.0
Tb384 Tb 0.67533 0.85883 0.69455 0.0
C385 C 0.61778 0.8463 0.75862 0.0
O386 O 0.64375 0.79068 0.61842 0.0
O387 O 0.70599 0.92321 0.70543 0.0
C388 C 0.69192 0.9548 0.73384 0.0
O389 O 0.71148 0.99312 0.73307 0.0
O390 O 0.72949 0.75516 0.64316 0.0
O391 O 0.71937 0.79737 0.70844 0.0
O392 O 0.77581 0.8417 0.62005 0.0
C393 C 0.61085 0.82005 0.62603 0.0
C394 C 0.70806 0.7639 0.51843 0.0
O395 O 0.60668 0.86419 0.71949 0.0
O396 O 0.66112 0.83769 0.76281 0.0
C397 C 0.81041 0.84987 0.59333 0.0
O398 O 0.80412 0.8445 0.54921 0.0
O399 O 0.73133 0.75202 0.55478 0.0
O400 O 0.89207 0.66168 0.71128 0.0
Tb401 Tb 0.82213 0.64286 0.72405 0.0
C402 C 0.74918 0.72124 0.71419 0.0
O403 O 0.77722 0.66495 0.83404 0.0
Tb404 Tb 0.71988 0.65897 0.7879 0.0
C405 C 0.64367 0.68706 0.82392 0.0
O406 O 0.82331 0.6142 0.79706 0.0
O407 O 0.71031 0.59738 0.75086 0.0
C408 C 0.68074 0.56722 0.76138 0.0
O409 O 0.67236 0.53609 0.73164 0.0
O410 O 0.76556 0.68511 0.69435 0.0
O411 O 0.73895 0.7199 0.75676 0.0
O412 O 0.81672 0.60428 0.65699 0.0
C413 C 0.81213 0.63674 0.83518 0.0
C414 C 0.88756 0.70151 0.72848 0.0
O415 O 0.67659 0.66428 0.84562 0.0
O416 O 0.65336 0.69229 0.78143 0.0
C417 C 0.8396 0.61193 0.61866 0.0
O418 O 0.87343 0.6387 0.62119 0.0
O419 O 0.84651 0.70783 0.7425 0.0
O420 O 0.77578 0.72276 0.97469 0.0
Tb421 Tb 0.7958 0.65191 0.98635 0.0
C422 C 0.73556 0.57363 0.9821 0.0
O423 O 0.86415 0.58784 1.07073 0.0
Tb424 Tb 0.8296 0.54791 1.02063 0.0
C425 C 0.82357 0.47384 1.06487 0.0
O426 O 0.81623 0.64962 1.06278 0.0
O427 O 0.87264 0.53447 0.96222 0.0
C428 C 0.89768 0.4973 0.95519 0.0
O429 O 0.92387 0.49585 0.91989 0.0
O430 O 0.7532 0.6026 0.95583 0.0
O431 O 0.75666 0.56321 1.02062 0.0
O432 O 0.82655 0.65413 0.91648 0.0
C433 C 0.84461 0.62306 1.08883 0.0
C434 C 0.73468 0.7207 0.98966 0.0
O435 O 0.84531 0.50725 1.07971 0.0
O436 O 0.80541 0.48165 1.02461 0.0
C437 C 0.82634 0.62286 0.88364 0.0
O438 O 0.82176 0.58112 0.8952 0.0
O439 O 0.72819 0.67979 1.00143 0.0
O440 O 0.89588 0.69978 0.27932 0.0
Tb441 Tb 0.90142 0.6396 0.23733 0.0
C442 C 0.94922 0.55355 0.27232 0.0
O443 O 0.82514 0.59796 0.1658 0.0
Tb444 Tb 0.85669 0.55202 0.21887 0.0
C445 C 0.89687 0.49641 0.16491 0.0
O446 O 0.88367 0.64457 0.16219 0.0
O447 O 0.80457 0.51388 0.25053 0.0
C448 C 0.77399 0.49332 0.2258 0.0
O449 O 0.75943 0.51145 0.18672 0.0
O450 O 0.95681 0.58981 0.24928 0.0
O451 O 0.90764 0.54018 0.27404 0.0
O452 O 0.85773 0.61104 0.28927 0.0
C453 C 0.84871 0.62572 0.14141 0.0
C454 C 0.93923 0.70694 0.2817 0.0
O455 O 0.90906 0.53699 0.17015 0.0
O456 O 0.86257 0.48776 0.18901 0.0
C457 C 0.87549 0.60804 0.33156 0.0
O458 O 0.91591 0.62362 0.33913 0.0
O459 O 0.95974 0.67911 0.25472 0.0
O460 O 0.90625 0.49202 0.45765 0.0
Tb461 Tb 0.87057 0.55282 0.47762 0.0
C462 C 0.83298 0.64861 0.45476 0.0
O463 O 0.79312 0.59808 0.54667 0.0
Tb464 Tb 0.76681 0.66571 0.52591 0.0
C465 C 0.81743 0.71875 0.57073 0.0
O466 O 0.8661 0.56858 0.55252 0.0
O467 O 0.69997 0.68731 0.49645 0.0
C468 C 0.68733 0.72991 0.49012 0.0
O469 O 0.64968 0.7404 0.46642 0.0
O470 O 0.82331 0.60753 0.4644 0.0
O471 O 0.80196 0.67862 0.46427 0.0
O472 O 0.88189 0.57623 0.40696 0.0
C473 C 0.83079 0.58927 0.57261 0.0
C474 C 0.94653 0.50937 0.46314 0.0
O475 O 0.78851 0.69391 0.59059 0.0
O476 O 0.81505 0.71618 0.52694 0.0
C477 C 0.85533 0.58386 0.36995 0.0
O478 O 0.81249 0.5737 0.36886 0.0
O479 O 0.94342 0.54967 0.48053 0.0
loop_
_geom_bond_atom_site_label_1
_geom_bond_atom_site_label_2
_geom_bond_distance
_geom_bond_site_symmetry_2
_ccdc_geom_bond_type
O0 Tb1 2.506 . S
O0 C14 1.265 . S
Tb1 O0 2.506 . S
Tb1 O6 2.312 . S
Tb1 O10 2.271 . S
Tb1 O12 2.338 . S
Tb1 O19 2.441 . S
C2 O10 1.252 . S
C2 O11 1.253 . S
O3 Tb4 2.271 . S
O3 C13 1.252 . S
Tb4 O3 2.271 . S
Tb4 O7 2.338 1_455 S
Tb4 O11 2.312 . S
Tb4 O15 2.441 . S
Tb4 O16 2.506 . S
C5 O15 1.244 . S
C5 O16 1.265 . S
O6 Tb1 2.312 . S
O6 C13 1.253 . S
O7 Tb4 2.338 1_655 S
O7 C8 1.258 . S
C8 O7 1.258 . S
C8 O9 1.251 . S
O9 C8 1.251 . S
O10 Tb1 2.271 . S
O10 C2 1.252 . S
O11 C2 1.253 . S
O11 Tb4 2.312 . S
O12 Tb1 2.338 . S
O12 C17 1.258 . S
C13 O3 1.252 . S
C13 O6 1.253 . S
C14 O0 1.265 . S
C14 O19 1.244 . S
O15 Tb4 2.441 . S
O15 C5 1.244 . S
O16 Tb4 2.506 . S
O16 C5 1.265 . S
C17 O12 1.258 . S
C17 O18 1.251 . S
O18 C17 1.251 . S
O19 Tb1 2.441 . S
O19 C14 1.244 . S
O20 Tb21 2.506 . S
O20 C34 1.265 . S
Tb21 O20 2.506 . S
Tb21 O26 2.312 . S
Tb21 O30 2.271 . S
Tb21 O32 2.338 . S
Tb21 O39 2.441 . S
C22 O30 1.252 . S
C22 O31 1.253 . S
O23 Tb24 2.271 . S
O23 C33 1.252 . S
Tb24 O23 2.271 . S
Tb24 O27 2.338 . S
Tb24 O31 2.312 . S
Tb24 O35 2.441 . S
Tb24 O36 2.506 . S
C25 O35 1.244 . S
C25 O36 1.265 . S
O26 Tb21 2.312 . S
O26 C33 1.253 . S
O27 Tb24 2.338 . S
O27 C28 1.258 . S
C28 O27 1.258 . S
C28 O29 1.251 . S
O29 C28 1.251 . S
O30 Tb21 2.271 . S
O30 C22 1.252 . S
O31 C22 1.253 . S
O31 Tb24 2.312 . S
O32 Tb21 2.338 . S
O32 C37 1.258 . S
C33 O23 1.252 . S
C33 O26 1.253 . S
C34 O20 1.265 . S
C34 O39 1.244 . S
O35 Tb24 2.441 . S
O35 C25 1.244 . S
O36 Tb24 2.506 . S
O36 C25 1.265 . S
C37 O32 1.258 . S
C37 O38 1.251 . S
O38 C37 1.251 . S
O39 Tb21 2.441 . S
O39 C34 1.244 . S
O40 Tb41 2.506 . S
O40 C54 1.265 . S
Tb41 O40 2.506 . S
Tb41 O46 2.312 . S
Tb41 O50 2.271 . S
Tb41 O52 2.338 . S
Tb41 O59 2.441 . S
C42 O50 1.252 . S
C42 O51 1.253 . S
O43 Tb44 2.271 . S
O43 C53 1.252 . S
Tb44 O43 2.271 . S
Tb44 O47 2.338 . S
Tb44 O51 2.312 . S
Tb44 O55 2.441 . S
Tb44 O56 2.506 . S
C45 O55 1.244 . S
C45 O56 1.265 . S
O46 Tb41 2.312 . S
O46 C53 1.253 . S
O47 Tb44 2.338 . S
O47 C48 1.258 . S
C48 O47 1.258 . S
C48 O49 1.251 . S
O49 C48 1.251 . S
O50 Tb41 2.271 . S
O50 C42 1.252 . S
O51 C42 1.253 . S
O51 Tb44 2.312 . S
O52 Tb41 2.338 . S
O52 C57 1.258 . S
C53 O43 1.252 . S
C53 O46 1.253 . S
C54 O40 1.265 . S
C54 O59 1.244 . S
O55 Tb44 2.441 . S
O55 C45 1.244 . S
O56 Tb44 2.506 . S
O56 C45 1.265 . S
C57 O52 1.258 . S
C57 O58 1.251 . S
O58 C57 1.251 . S
O59 Tb41 2.441 . S
O59 C54 1.244 . S
O60 Tb61 2.506 . S
O60 C74 1.265 . S
Tb61 O60 2.506 . S
Tb61 O66 2.312 1_556 S
Tb61 O70 2.271 . S
Tb61 O72 2.338 1_556 S
Tb61 O79 2.441 . S
C62 O70 1.252 . S
C62 O71 1.253 . S
O63 Tb64 2.271 1_554 S
O63 C73 1.252 . S
Tb64 O63 2.271 1_556 S
Tb64 O67 2.338 1_556 S
Tb64 O71 2.312 . S
Tb64 O75 2.441 . S
Tb64 O76 2.506 . S
C65 O75 1.244 . S
C65 O76 1.265 . S
O66 Tb61 2.312 1_554 S
O66 C73 1.253 . S
O67 Tb64 2.338 1_554 S
O67 C68 1.258 . S
C68 O67 1.258 . S
C68 O69 1.251 . S
O69 C68 1.251 . S
O70 Tb61 2.271 . S
O70 C62 1.252 . S
O71 C62 1.253 . S
O71 Tb64 2.312 . S
O72 Tb61 2.338 1_554 S
O72 C77 1.258 . S
C73 O63 1.252 . S
C73 O66 1.253 . S
C74 O60 1.265 . S
C74 O79 1.244 . S
O75 Tb64 2.441 . S
O75 C65 1.244 . S
O76 Tb64 2.506 . S
O76 C65 1.265 . S
C77 O72 1.258 . S
C77 O78 1.251 . S
O78 C77 1.251 . S
O79 Tb61 2.441 . S
O79 C74 1.244 . S
O80 Tb81 2.506 . S
O80 C94 1.265 . S
Tb81 O80 2.506 . S
Tb81 O86 2.312 . S
Tb81 O90 2.271 . S
Tb81 O92 2.338 . S
Tb81 O99 2.441 . S
C82 O90 1.252 . S
C82 O91 1.253 . S
O83 Tb84 2.271 . S
O83 C93 1.252 . S
Tb84 O83 2.271 . S
Tb84 O87 2.338 . S
Tb84 O91 2.312 . S
Tb84 O95 2.441 . S
Tb84 O96 2.506 . S
C85 O95 1.244 . S
C85 O96 1.265 . S
O86 Tb81 2.312 . S
O86 C93 1.253 . S
O87 Tb84 2.338 . S
O87 C88 1.258 1_455 S
C88 O87 1.258 1_655 S
C88 O89 1.251 . S
O89 C88 1.251 . S
O90 Tb81 2.271 . S
O90 C82 1.252 . S
O91 C82 1.253 . S
O91 Tb84 2.312 . S
O92 Tb81 2.338 . S
O92 C97 1.258 . S
C93 O83 1.252 . S
C93 O86 1.253 . S
C94 O80 1.265 . S
C94 O99 1.244 . S
O95 Tb84 2.441 . S
O95 C85 1.244 . S
O96 Tb84 2.506 . S
O96 C85 1.265 . S
C97 O92 1.258 . S
C97 O98 1.251 . S
O98 C97 1.251 . S
O99 Tb81 2.441 . S
O99 C94 1.244 . S
O100 Tb101 2.506 . S
O100 C114 1.265 . S
Tb101 O100 2.506 . S
Tb101 O106 2.312 . S
Tb101 O110 2.271 . S
Tb101 O112 2.338 . S
Tb101 O119 2.441 . S
C102 O110 1.252 . S
C102 O111 1.253 . S
O103 Tb104 2.271 . S
O103 C113 1.252 . S
Tb104 O103 2.271 . S
Tb104 O107 2.338 . S
Tb104 O111 2.312 . S
Tb104 O115 2.441 . S
Tb104 O116 2.506 . S
C105 O115 1.244 . S
C105 O116 1.265 . S
O106 Tb101 2.312 . S
O106 C113 1.253 . S
O107 Tb104 2.338 . S
O107 C108 1.258 . S
C108 O107 1.258 . S
C108 O109 1.251 . S
O109 C108 1.251 . S
O110 Tb101 2.271 . S
O110 C102 1.252 . S
O111 C102 1.253 . S
O111 Tb104 2.312 . S
O112 Tb101 2.338 . S
O112 C117 1.258 . S
C113 O103 1.252 . S
C113 O106 1.253 . S
C114 O100 1.265 . S
C114 O119 1.244 . S
O115 Tb104 2.441 . S
O115 C105 1.244 . S
O116 Tb104 2.506 . S
O116 C105 1.265 . S
C117 O112 1.258 . S
C117 O118 1.251 . S
O118 C117 1.251 . S
O119 Tb101 2.441 . S
O119 C114 1.244 . S
O120 Tb121 2.506 . S
O120 C134 1.265 . S
Tb121 O120 2.506 . S
Tb121 O126 2.312 . S
Tb121 O130 2.271 . S
Tb121 O132 2.338 . S
Tb121 O139 2.441 . S
C122 O130 1.252 . S
C122 O131 1.253 . S
O123 Tb124 2.271 . S
O123 C133 1.252 . S
Tb124 O123 2.271 . S
Tb124 O127 2.338 . S
Tb124 O131 2.312 . S
Tb124 O135 2.441 . S
Tb124 O136 2.506 . S
C125 O135 1.244 . S
C125 O136 1.265 . S
O126 Tb121 2.312 . S
O126 C133 1.253 . S
O127 Tb124 2.338 . S
O127 C128 1.258 . S
C128 O127 1.258 . S
C128 O129 1.251 . S
O129 C128 1.251 . S
O130 Tb121 2.271 . S
O130 C122 1.252 . S
O131 C122 1.253 . S
O131 Tb124 2.312 . S
O132 Tb121 2.338 . S
O132 C137 1.258 . S
C133 O123 1.252 . S
C133 O126 1.253 . S
C134 O120 1.265 . S
C134 O139 1.244 . S
O135 Tb124 2.441 . S
O135 C125 1.244 . S
O136 Tb124 2.506 . S
O136 C125 1.265 . S
C137 O132 1.258 . S
C137 O138 1.251 . S
O138 C137 1.251 . S
O139 Tb121 2.441 . S
O139 C134 1.244 . S
O140 Tb141 2.506 . S
O140 C154 1.265 . S
Tb141 O140 2.506 . S
Tb141 O146 2.312 . S
Tb141 O150 2.271 . S
Tb141 O152 2.338 . S
Tb141 O159 2.441 . S
C142 O150 1.252 1_554 S
C142 O151 1.253 . S
O143 Tb144 2.271 . S
O143 C153 1.252 1_554 S
Tb144 O143 2.271 . S
Tb144 O147 2.338 . S
Tb144 O151 2.312 . S
Tb144 O155 2.441 . S
Tb144 O156 2.506 . S
C145 O155 1.244 . S
C145 O156 1.265 . S
O146 Tb141 2.312 . S
O146 C153 1.253 . S
O147 Tb144 2.338 . S
O147 C148 1.258 . S
C148 O147 1.258 . S
C148 O149 1.251 . S
O149 C148 1.251 . S
O150 Tb141 2.271 . S
O150 C142 1.252 1_556 S
O151 C142 1.253 . S
O151 Tb144 2.312 . S
O152 Tb141 2.338 . S
O152 C157 1.258 . S
C153 O143 1.252 1_556 S
C153 O146 1.253 . S
C154 O140 1.265 . S
C154 O159 1.244 . S
O155 Tb144 2.441 . S
O155 C145 1.244 . S
O156 Tb144 2.506 . S
O156 C145 1.265 . S
C157 O152 1.258 . S
C157 O158 1.251 . S
O158 C157 1.251 . S
O159 Tb141 2.441 . S
O159 C154 1.244 . S
O160 Tb161 2.506 . S
O160 C174 1.265 . S
Tb161 O160 2.506 . S
Tb161 O166 2.312 1_565 S
Tb161 O170 2.271 1_565 S
Tb161 O172 2.338 . S
Tb161 O179 2.441 . S
C162 O170 1.252 . S
C162 O171 1.253 . S
O163 Tb164 2.271 . S
O163 C173 1.252 . S
Tb164 O163 2.271 . S
Tb164 O167 2.338 . S
Tb164 O171 2.312 . S
Tb164 O175 2.441 . S
Tb164 O176 2.506 . S
C165 O175 1.244 . S
C165 O176 1.265 . S
O166 Tb161 2.312 1_545 S
O166 C173 1.253 . S
O167 Tb164 2.338 . S
O167 C168 1.258 . S
C168 O167 1.258 . S
C168 O169 1.251 . S
O169 C168 1.251 . S
O170 Tb161 2.271 1_545 S
O170 C162 1.252 . S
O171 C162 1.253 . S
O171 Tb164 2.312 . S
O172 Tb161 2.338 . S
O172 C177 1.258 1_565 S
C173 O163 1.252 . S
C173 O166 1.253 . S
C174 O160 1.265 . S
C174 O179 1.244 . S
O175 Tb164 2.441 . S
O175 C165 1.244 . S
O176 Tb164 2.506 . S
O176 C165 1.265 . S
C177 O172 1.258 1_545 S
C177 O178 1.251 . S
O178 C177 1.251 . S
O179 Tb161 2.441 . S
O179 C174 1.244 . S
O180 Tb181 2.506 . S
O180 C194 1.265 . S
Tb181 O180 2.506 . S
Tb181 O186 2.312 . S
Tb181 O190 2.271 1_545 S
Tb181 O192 2.338 . S
Tb181 O199 2.441 . S
C182 O190 1.252 . S
C182 O191 1.253 . S
O183 Tb184 2.271 . S
O183 C193 1.264 . S
Tb184 O183 2.271 . S
Tb184 O187 2.338 . S
Tb184 O191 2.312 . S
Tb184 O195 2.441 . S
Tb184 O196 2.506 . S
C185 O195 1.244 . S
C185 O196 1.265 . S
O186 Tb181 2.312 . S
O186 C193 1.243 1_545 S
O187 Tb184 2.338 . S
O187 C188 1.258 . S
C188 O187 1.258 . S
C188 O189 1.251 . S
O189 C188 1.251 . S
O190 Tb181 2.271 1_565 S
O190 C182 1.252 . S
O191 C182 1.253 . S
O191 Tb184 2.312 . S
O192 Tb181 2.338 . S
O192 C197 1.258 . S
C193 O183 1.264 . S
C193 O186 1.243 1_565 S
C194 O180 1.265 . S
C194 O199 1.244 . S
O195 Tb184 2.441 . S
O195 C185 1.244 . S
O196 Tb184 2.506 . S
O196 C185 1.265 . S
C197 O192 1.258 . S
C197 O198 1.251 . S
O198 C197 1.251 . S
O199 Tb181 2.441 . S
O199 C194 1.244 . S
O200 Tb201 2.506 . S
O200 C214 1.265 . S
Tb201 O200 2.506 . S
Tb201 O206 2.312 . S
Tb201 O210 2.271 1_545 S
Tb201 O212 2.338 . S
Tb201 O219 2.441 . S
C202 O210 1.252 . S
C202 O211 1.253 . S
O203 Tb204 2.271 . S
O203 C213 1.252 . S
Tb204 O203 2.271 . S
Tb204 O207 2.338 . S
Tb204 O211 2.312 . S
Tb204 O215 2.441 . S
Tb204 O216 2.506 . S
C205 O215 1.244 . S
C205 O216 1.265 . S
O206 Tb201 2.312 . S
O206 C213 1.253 1_545 S
O207 Tb204 2.338 . S
O207 C208 1.258 . S
C208 O207 1.258 . S
C208 O209 1.251 . S
O209 C208 1.251 . S
O210 Tb201 2.271 1_565 S
O210 C202 1.252 . S
O211 C202 1.253 . S
O211 Tb204 2.312 . S
O212 Tb201 2.338 . S
O212 C217 1.258 . S
C213 O203 1.252 . S
C213 O206 1.253 1_565 S
C214 O200 1.265 . S
C214 O219 1.244 . S
O215 Tb204 2.441 . S
O215 C205 1.244 . S
O216 Tb204 2.506 . S
O216 C205 1.265 . S
C217 O212 1.258 . S
C217 O218 1.251 1_545 S
O218 C217 1.251 1_565 S
O219 Tb201 2.441 . S
O219 C214 1.244 . S
O220 Tb221 2.506 . S
O220 C234 1.265 . S
Tb221 O220 2.506 . S
Tb221 O226 2.312 . S
Tb221 O230 2.271 1_565 S
Tb221 O232 2.338 . S
Tb221 O239 2.441 . S
C222 O230 1.252 . S
C222 O231 1.253 . S
O223 Tb224 2.271 . S
O223 C233 1.252 . S
Tb224 O223 2.271 . S
Tb224 O227 2.338 . S
Tb224 O231 2.312 . S
Tb224 O235 2.441 1_556 S
Tb224 O236 2.506 . S
C225 O235 1.244 . S
C225 O236 1.265 1_554 S
O226 Tb221 2.312 . S
O226 C233 1.253 1_565 S
O227 Tb224 2.338 . S
O227 C228 1.258 . S
C228 O227 1.258 . S
C228 O229 1.251 . S
O229 C228 1.251 . S
O230 Tb221 2.271 1_545 S
O230 C222 1.252 . S
O231 C222 1.253 . S
O231 Tb224 2.312 . S
O232 Tb221 2.338 . S
O232 C237 1.258 . S
C233 O223 1.252 . S
C233 O226 1.253 1_545 S
C234 O220 1.265 . S
C234 O239 1.244 . S
O235 Tb224 2.441 1_554 S
O235 C225 1.244 . S
O236 Tb224 2.506 . S
O236 C225 1.265 1_556 S
C237 O232 1.258 . S
C237 O238 1.251 1_565 S
O238 C237 1.251 1_545 S
O239 Tb221 2.441 . S
O239 C234 1.244 . S
O240 Tb241 2.506 . S
O240 C254 1.265 . S
Tb241 O240 2.506 . S
Tb241 O246 2.312 1_556 S
Tb241 O250 2.271 . S
Tb241 O252 2.338 1_556 S
Tb241 O259 2.441 . S
C242 O250 1.252 . S
C242 O251 1.253 . S
O243 Tb244 2.271 1_554 S
O243 C253 1.252 . S
Tb244 O243 2.271 1_556 S
Tb244 O247 2.338 1_556 S
Tb244 O251 2.312 . S
Tb244 O255 2.441 . S
Tb244 O256 2.506 . S
C245 O255 1.244 . S
C245 O256 1.265 . S
O246 Tb241 2.312 1_554 S
O246 C253 1.253 . S
O247 Tb244 2.338 1_554 S
O247 C248 1.258 . S
C248 O247 1.258 . S
C248 O249 1.251 . S
O249 C248 1.251 . S
O250 Tb241 2.271 . S
O250 C242 1.252 . S
O251 C242 1.253 . S
O251 Tb244 2.312 . S
O252 Tb241 2.338 1_554 S
O252 C257 1.258 . S
C253 O243 1.252 . S
C253 O246 1.253 . S
C254 O240 1.265 . S
C254 O259 1.244 . S
O255 Tb244 2.441 . S
O255 C245 1.244 . S
O256 Tb244 2.506 . S
O256 C245 1.265 . S
C257 O252 1.258 . S
C257 O258 1.251 . S
O258 C257 1.251 . S
O259 Tb241 2.441 . S
O259 C254 1.244 . S
O260 Tb261 2.506 . S
O260 C274 1.265 . S
Tb261 O260 2.506 . S
Tb261 O266 2.312 . S
Tb261 O270 2.271 . S
Tb261 O272 2.338 . S
Tb261 O279 2.441 . S
C262 O270 1.252 . S
C262 O271 1.253 . S
O263 Tb264 2.271 . S
O263 C273 1.252 . S
Tb264 O263 2.271 . S
Tb264 O267 2.338 1_655 S
Tb264 O271 2.312 . S
Tb264 O275 2.441 . S
Tb264 O276 2.506 . S
C265 O275 1.244 . S
C265 O276 1.265 . S
O266 Tb261 2.312 . S
O266 C273 1.253 . S
O267 Tb264 2.338 1_455 S
O267 C268 1.258 . S
C268 O267 1.258 . S
C268 O269 1.251 . S
O269 C268 1.251 . S
O270 Tb261 2.271 . S
O270 C262 1.252 . S
O271 C262 1.253 . S
O271 Tb264 2.312 . S
O272 Tb261 2.338 . S
O272 C277 1.258 . S
C273 O263 1.252 . S
C273 O266 1.253 . S
C274 O260 1.265 . S
C274 O279 1.244 . S
O275 Tb264 2.441 . S
O275 C265 1.244 . S
O276 Tb264 2.506 . S
O276 C265 1.265 . S
C277 O272 1.258 . S
C277 O278 1.251 . S
O278 C277 1.251 . S
O279 Tb261 2.441 . S
O279 C274 1.244 . S
O280 Tb281 2.506 . S
O280 C294 1.265 . S
Tb281 O280 2.506 . S
Tb281 O286 2.312 . S
Tb281 O290 2.271 . S
Tb281 O292 2.338 . S
Tb281 O299 2.441 . S
C282 O290 1.252 . S
C282 O291 1.253 . S
O283 Tb284 2.271 . S
O283 C293 1.252 . S
Tb284 O283 2.271 . S
Tb284 O287 2.338 . S
Tb284 O291 2.312 . S
Tb284 O295 2.441 . S
Tb284 O296 2.506 . S
C285 O295 1.244 . S
C285 O296 1.265 . S
O286 Tb281 2.312 . S
O286 C293 1.253 . S
O287 Tb284 2.338 . S
O287 C288 1.258 . S
C288 O287 1.258 . S
C288 O289 1.251 . S
O289 C288 1.251 . S
O290 Tb281 2.271 . S
O290 C282 1.252 . S
O291 C282 1.253 . S
O291 Tb284 2.312 . S
O292 Tb281 2.338 . S
O292 C297 1.258 1_655 S
C293 O283 1.252 . S
C293 O286 1.253 . S
C294 O280 1.265 . S
C294 O299 1.244 . S
O295 Tb284 2.441 . S
O295 C285 1.244 . S
O296 Tb284 2.506 . S
O296 C285 1.265 . S
C297 O292 1.258 1_455 S
C297 O298 1.251 1_455 S
O298 C297 1.251 1_655 S
O299 Tb281 2.441 . S
O299 C294 1.244 . S
O300 Tb301 2.506 . S
O300 C314 1.265 . S
Tb301 O300 2.506 . S
Tb301 O306 2.312 . S
Tb301 O310 2.271 1_455 S
Tb301 O312 2.338 . S
Tb301 O319 2.441 . S
C302 O310 1.252 . S
C302 O311 1.253 . S
O303 Tb304 2.271 . S
O303 C313 1.252 . S
Tb304 O303 2.271 . S
Tb304 O307 2.338 . S
Tb304 O311 2.312 . S
Tb304 O315 2.441 . S
Tb304 O316 2.506 . S
C305 O315 1.244 . S
C305 O316 1.265 . S
O306 Tb301 2.312 . S
O306 C313 1.253 1_455 S
O307 Tb304 2.338 . S
O307 C308 1.258 . S
C308 O307 1.258 . S
C308 O309 1.251 . S
O309 C308 1.251 . S
O310 Tb301 2.271 1_655 S
O310 C302 1.252 . S
O311 C302 1.253 . S
O311 Tb304 2.312 . S
O312 Tb301 2.338 . S
O312 C317 1.258 . S
C313 O303 1.252 . S
C313 O306 1.253 1_655 S
C314 O300 1.265 . S
C314 O319 1.244 . S
O315 Tb304 2.441 . S
O315 C305 1.244 . S
O316 Tb304 2.506 . S
O316 C305 1.265 . S
C317 O312 1.258 . S
C317 O318 1.251 1_455 S
O318 C317 1.251 1_655 S
O319 Tb301 2.441 . S
O319 C314 1.244 . S
O320 Tb321 2.506 . S
O320 C334 1.265 . S
Tb321 O320 2.506 . S
Tb321 O326 2.312 . S
Tb321 O330 2.271 . S
Tb321 O332 2.338 . S
Tb321 O339 2.441 . S
C322 O330 1.252 . S
C322 O331 1.253 . S
O323 Tb324 2.271 . S
O323 C333 1.252 . S
Tb324 O323 2.271 . S
Tb324 O327 2.338 . S
Tb324 O331 2.312 . S
Tb324 O335 2.441 . S
Tb324 O336 2.506 . S
C325 O335 1.244 . S
C325 O336 1.265 . S
O326 Tb321 2.312 . S
O326 C333 1.253 . S
O327 Tb324 2.338 . S
O327 C328 1.258 . S
C328 O327 1.258 . S
C328 O329 1.251 . S
O329 C328 1.251 . S
O330 Tb321 2.271 . S
O330 C322 1.252 . S
O331 C322 1.253 . S
O331 Tb324 2.312 . S
O332 Tb321 2.338 . S
O332 C337 1.258 . S
C333 O323 1.252 . S
C333 O326 1.253 . S
C334 O320 1.265 . S
C334 O339 1.244 . S
O335 Tb324 2.441 . S
O335 C325 1.244 . S
O336 Tb324 2.506 . S
O336 C325 1.265 . S
C337 O332 1.258 . S
C337 O338 1.251 . S
O338 C337 1.251 . S
O339 Tb321 2.441 . S
O339 C334 1.244 . S
O340 Tb341 2.506 . S
O340 C354 1.265 . S
Tb341 O340 2.506 . S
Tb341 O346 2.312 . S
Tb341 O350 2.271 . S
Tb341 O352 2.338 . S
Tb341 O359 2.441 . S
C342 O350 1.252 . S
C342 O351 1.253 . S
O343 Tb344 2.271 . S
O343 C353 1.252 . S
Tb344 O343 2.271 . S
Tb344 O347 2.338 . S
Tb344 O351 2.312 . S
Tb344 O355 2.441 . S
Tb344 O356 2.506 . S
C345 O355 1.244 . S
C345 O356 1.265 . S
O346 Tb341 2.312 . S
O346 C353 1.253 . S
O347 Tb344 2.338 . S
O347 C348 1.258 . S
C348 O347 1.258 . S
C348 O349 1.251 . S
O349 C348 1.251 . S
O350 Tb341 2.271 . S
O350 C342 1.252 . S
O351 C342 1.253 . S
O351 Tb344 2.312 . S
O352 Tb341 2.338 . S
O352 C357 1.258 . S
C353 O343 1.252 . S
C353 O346 1.253 . S
C354 O340 1.265 . S
C354 O359 1.244 . S
O355 Tb344 2.441 . S
O355 C345 1.244 . S
O356 Tb344 2.506 . S
O356 C345 1.265 . S
C357 O352 1.258 . S
C357 O358 1.251 . S
O358 C357 1.251 . S
O359 Tb341 2.441 . S
O359 C354 1.244 . S
O360 Tb361 2.506 . S
O360 C374 1.265 . S
Tb361 O360 2.506 . S
Tb361 O366 2.312 1_554 S
Tb361 O370 2.271 . S
Tb361 O372 2.338 1_554 S
Tb361 O379 2.441 . S
C362 O370 1.252 . S
C362 O371 1.253 . S
O363 Tb364 2.271 1_556 S
O363 C373 1.252 . S
Tb364 O363 2.271 1_554 S
Tb364 O367 2.338 1_554 S
Tb364 O371 2.312 . S
Tb364 O375 2.441 . S
Tb364 O376 2.506 . S
C365 O375 1.244 . S
C365 O376 1.265 . S
O366 Tb361 2.312 1_556 S
O366 C373 1.253 . S
O367 Tb364 2.338 1_556 S
O367 C368 1.258 . S
C368 O367 1.258 . S
C368 O369 1.251 . S
O369 C368 1.251 . S
O370 Tb361 2.271 . S
O370 C362 1.252 . S
O371 C362 1.253 . S
O371 Tb364 2.312 . S
O372 Tb361 2.338 1_556 S
O372 C377 1.258 1_655 S
C373 O363 1.252 . S
C373 O366 1.253 . S
C374 O360 1.265 . S
C374 O379 1.244 . S
O375 Tb364 2.441 . S
O375 C365 1.244 . S
O376 Tb364 2.506 . S
O376 C365 1.265 . S
C377 O372 1.258 1_455 S
C377 O378 1.251 1_455 S
O378 C377 1.251 1_655 S
O379 Tb361 2.441 . S
O379 C374 1.244 . S
O380 Tb381 2.506 . S
O380 C394 1.265 . S
Tb381 O380 2.506 . S
Tb381 O386 2.312 . S
Tb381 O390 2.271 . S
Tb381 O392 2.338 . S
Tb381 O399 2.441 . S
C382 O390 1.252 . S
C382 O391 1.253 . S
O383 Tb384 2.271 . S
O383 C393 1.252 . S
Tb384 O383 2.271 . S
Tb384 O387 2.338 . S
Tb384 O391 2.312 . S
Tb384 O395 2.441 . S
Tb384 O396 2.506 . S
C385 O395 1.244 . S
C385 O396 1.265 . S
O386 Tb381 2.312 . S
O386 C393 1.253 . S
O387 Tb384 2.338 . S
O387 C388 1.258 . S
C388 O387 1.258 . S
C388 O389 1.251 . S
O389 C388 1.251 . S
O390 Tb381 2.271 . S
O390 C382 1.252 . S
O391 C382 1.253 . S
O391 Tb384 2.312 . S
O392 Tb381 2.338 . S
O392 C397 1.258 . S
C393 O383 1.252 . S
C393 O386 1.253 . S
C394 O380 1.265 . S
C394 O399 1.244 . S
O395 Tb384 2.441 . S
O395 C385 1.244 . S
O396 Tb384 2.506 . S
O396 C385 1.265 . S
C397 O392 1.258 . S
C397 O398 1.251 . S
O398 C397 1.251 . S
O399 Tb381 2.441 . S
O399 C394 1.244 . S
O400 Tb401 2.506 . S
O400 C414 1.265 . S
Tb401 O400 2.506 . S
Tb401 O406 2.312 . S
Tb401 O410 2.271 . S
Tb401 O412 2.338 . S
Tb401 O419 2.441 . S
C402 O410 1.252 . S
C402 O411 1.253 . S
O403 Tb404 2.271 . S
O403 C413 1.252 . S
Tb404 O403 2.271 . S
Tb404 O407 2.338 . S
Tb404 O411 2.312 . S
Tb404 O415 2.441 . S
Tb404 O416 2.506 . S
C405 O415 1.244 . S
C405 O416 1.265 . S
O406 Tb401 2.312 . S
O406 C413 1.253 . S
O407 Tb404 2.338 . S
O407 C408 1.258 . S
C408 O407 1.258 . S
C408 O409 1.251 . S
O409 C408 1.251 . S
O410 Tb401 2.271 . S
O410 C402 1.252 . S
O411 C402 1.253 . S
O411 Tb404 2.312 . S
O412 Tb401 2.338 . S
O412 C417 1.258 . S
C413 O403 1.252 . S
C413 O406 1.253 . S
C414 O400 1.265 . S
C414 O419 1.244 . S
O415 Tb404 2.441 . S
O415 C405 1.244 . S
O416 Tb404 2.506 . S
O416 C405 1.265 . S
C417 O412 1.258 . S
C417 O418 1.251 . S
O418 C417 1.251 . S
O419 Tb401 2.441 . S
O419 C414 1.244 . S
O420 Tb421 2.506 . S
O420 C434 1.265 . S
Tb421 O420 2.506 . S
Tb421 O426 2.312 . S
Tb421 O430 2.271 . S
Tb421 O432 2.338 . S
Tb421 O439 2.441 . S
C422 O430 1.252 . S
C422 O431 1.253 . S
O423 Tb424 2.271 . S
O423 C433 1.252 . S
Tb424 O423 2.271 . S
Tb424 O427 2.338 . S
Tb424 O431 2.312 . S
Tb424 O435 2.441 . S
Tb424 O436 2.506 . S
C425 O435 1.244 . S
C425 O436 1.265 . S
O426 Tb421 2.312 . S
O426 C433 1.253 . S
O427 Tb424 2.338 . S
O427 C428 1.258 . S
C428 O427 1.258 . S
C428 O429 1.251 . S
O429 C428 1.251 . S
O430 Tb421 2.271 . S
O430 C422 1.252 . S
O431 C422 1.253 . S
O431 Tb424 2.312 . S
O432 Tb421 2.338 . S
O432 C437 1.258 . S
C433 O423 1.252 . S
C433 O426 1.253 . S
C434 O420 1.265 . S
C434 O439 1.244 . S
O435 Tb424 2.441 . S
O435 C425 1.244 . S
O436 Tb424 2.506 . S
O436 C425 1.265 . S
C437 O432 1.258 . S
C437 O438 1.251 . S
O438 C437 1.251 . S
O439 Tb421 2.441 . S
O439 C434 1.244 . S
O440 Tb441 2.506 . S
O440 C454 1.265 . S
Tb441 O440 2.506 . S
Tb441 O446 2.312 . S
Tb441 O450 2.271 . S
Tb441 O452 2.338 . S
Tb441 O459 2.441 . S
C442 O450 1.252 . S
C442 O451 1.253 . S
O443 Tb444 2.271 . S
O443 C453 1.252 . S
Tb444 O443 2.271 . S
Tb444 O447 2.338 . S
Tb444 O451 2.312 . S
Tb444 O455 2.441 . S
Tb444 O456 2.506 . S
C445 O455 1.244 . S
C445 O456 1.265 . S
O446 Tb441 2.312 . S
O446 C453 1.253 . S
O447 Tb444 2.338 . S
O447 C448 1.258 . S
C448 O447 1.258 . S
C448 O449 1.251 . S
O449 C448 1.251 . S
O450 Tb441 2.271 . S
O450 C442 1.252 . S
O451 C442 1.253 . S
O451 Tb444 2.312 . S
O452 Tb441 2.338 . S
O452 C457 1.258 . S
C453 O443 1.252 . S
C453 O446 1.253 . S
C454 O440 1.265 . S
C454 O459 1.244 . S
O455 Tb444 2.441 . S
O455 C445 1.244 . S
O456 Tb444 2.506 . S
O456 C445 1.265 . S
C457 O452 1.258 . S
C457 O458 1.251 . S
O458 C457 1.251 . S
O459 Tb441 2.441 . S
O459 C454 1.244 . S
O460 Tb461 2.506 . S
O460 C474 1.265 . S
Tb461 O460 2.506 . S
Tb461 O466 2.312 . S
Tb461 O470 2.271 . S
Tb461 O472 2.338 . S
Tb461 O479 2.441 . S
C462 O470 1.252 . S
C462 O471 1.253 . S
O463 Tb464 2.271 . S
O463 C473 1.252 . S
Tb464 O463 2.271 . S
Tb464 O467 2.338 . S
Tb464 O471 2.312 . S
Tb464 O475 2.441 . S
Tb464 O476 2.506 . S
C465 O475 1.244 . S
C465 O476 1.265 . S
O466 Tb461 2.312 . S
O466 C473 1.253 . S
O467 Tb464 2.338 . S
O467 C468 1.258 . S
C468 O467 1.258 . S
C468 O469 1.251 . S
O469 C468 1.251 . S
O470 Tb461 2.271 . S
O470 C462 1.252 . S
O471 C462 1.253 . S
O471 Tb464 2.312 . S
O472 Tb461 2.338 . S
O472 C477 1.258 . S
C473 O463 1.252 . S
C473 O466 1.253 . S
C474 O460 1.265 . S
C474 O479 1.244 . S
O475 Tb464 2.441 . S
O475 C465 1.244 . S
O476 Tb464 2.506 . S
O476 C465 1.265 . S
C477 O472 1.258 . S
C477 O478 1.251 . S
O478 C477 1.251 . S
O479 Tb461 2.441 . S
O479 C474 1.244 . S
C5 C145 0.478 . S
C22 C85 1.680 . S
C45 C102 2.134 . S
C62 C122 3.710 . S
C2 C162 3.827 . S
C185 C25 1.642 . S
C202 C42 3.878 . S
C65 C225 0.959 1_556 S
C82 C182 3.680 . S
C205 C105 1.101 . S
C125 C222 2.004 . S
C142 C165 2.130 . S
C245 C425 1.484 . S
C262 C442 3.884 . S
C285 C465 0.689 . S
C462 C305 1.952 . S
C422 C322 3.843 . S
C345 C385 0.638 . S
C242 C325 1.633 . S
C362 C265 2.111 . S
C302 C282 3.887 . S
C405 C342 1.908 . S
C365 C445 1.201 . S
C382 C402 4.061 . S
C97 C17 2.565 1_565 S
C113 C33 3.340 . S
C57 C133 3.796 1_565 S
C73 C157 3.419 1_554 S
C233 C173 4.090 1_556 S
C177 C197 3.011 . S
C193 C213 3.469 . S
C237 C217 2.914 1_565 S
C377 C153 3.295 . S
C77 C257 3.133 . S
C13 C273 4.113 1_455 S
C37 C297 2.772 . S
C393 C117 3.184 . S
C93 C317 3.556 . S
C137 C333 3.775 . S
C337 C357 2.641 . S
C373 C253 3.469 1_556 S
C277 C313 3.724 . S
C397 C293 3.269 . S
C417 C473 3.166 . S
C413 C437 3.900 . S
C453 C433 3.640 1_554 S
C477 C457 2.768 . S
C353 C53 4.020 . S
C14 C194 2.922 . S
C28 C208 3.329 . S
C54 C234 3.763 . S
C168 C68 1.672 . S
C94 C174 2.060 . S
C188 C108 3.074 . S
C214 C128 2.382 . S
C154 C228 4.128 . S
C148 C268 2.367 . S
C134 C254 3.047 . S
C88 C294 2.097 . S
C374 C8 4.243 . S
C348 C114 4.530 . S
C34 C314 3.428 . S
C74 C328 1.726 . S
C434 C354 3.879 . S
C448 C248 3.267 . S
C474 C274 3.834 . S
C414 C288 1.975 . S
C408 C334 1.650 . S
C368 C428 2.979 . S
C454 C308 2.433 . S
C394 C468 2.983 . S
C48 C388 2.018 . S
