# Generated by pormake.
# Topology afw, (4)-cn, num edge types: 1
# Building blocks:
#     Node 0, Type 0, BuildingBlock: ESEHIV_clean_sbu_0, # of connection points: 4
#     Node 1, Type 0, BuildingBlock: ESEHIV_clean_sbu_0, # of connection points: 4
#     Node 2, Type 0, BuildingBlock: ESEHIV_clean_sbu_0, # of connection points: 4
#     Node 3, Type 0, BuildingBlock: ESEHIV_clean_sbu_0, # of connection points: 4
#     Node 4, Type 0, BuildingBlock: ESEHIV_clean_sbu_0, # of connection points: 4
#     Node 5, Type 0, BuildingBlock: ESEHIV_clean_sbu_0, # of connection points: 4
#     Node 6, Type 0, BuildingBlock: ESEHIV_clean_sbu_0, # of connection points: 4
#     Node 7, Type 0, BuildingBlock: ESEHIV_clean_sbu_0, # of connection points: 4
#     Node 8, Type 0, BuildingBlock: ESEHIV_clean_sbu_0, # of connection points: 4
#     Edge 9, Type (0, 0), BuildingBlock: TEMPAE_clean_linker_10, # of connection points: 2
#     Edge 10, Type (0, 0), BuildingBlock: TEMPAE_clean_linker_10, # of connection points: 2
#     Edge 11, Type (0, 0), BuildingBlock: TEMPAE_clean_linker_10, # of connection points: 2
#     Edge 12, Type (0, 0), BuildingBlock: TEMPAE_clean_linker_10, # of connection points: 2
#     Edge 13, Type (0, 0), BuildingBlock: TEMPAE_clean_linker_10, # of connection points: 2
#     Edge 14, Type (0, 0), BuildingBlock: TEMPAE_clean_linker_10, # of connection points: 2
#     Edge 15, Type (0, 0), BuildingBlock: TEMPAE_clean_linker_10, # of connection points: 2
#     Edge 16, Type (0, 0), BuildingBlock: TEMPAE_clean_linker_10, # of connection points: 2
#     Edge 17, Type (0, 0), BuildingBlock: TEMPAE_clean_linker_10, # of connection points: 2
#     Edge 18, Type (0, 0), BuildingBlock: TEMPAE_clean_linker_10, # of connection points: 2
#     Edge 19, Type (0, 0), BuildingBlock: TEMPAE_clean_linker_10, # of connection points: 2
#     Edge 20, Type (0, 0), BuildingBlock: TEMPAE_clean_linker_10, # of connection points: 2
#     Edge 21, Type (0, 0), BuildingBlock: TEMPAE_clean_linker_10, # of connection points: 2
#     Edge 22, Type (0, 0), BuildingBlock: TEMPAE_clean_linker_10, # of connection points: 2
#     Edge 23, Type (0, 0), BuildingBlock: TEMPAE_clean_linker_10, # of connection points: 2
#     Edge 24, Type (0, 0), BuildingBlock: TEMPAE_clean_linker_10, # of connection points: 2
#     Edge 25, Type (0, 0), BuildingBlock: TEMPAE_clean_linker_10, # of connection points: 2
#     Edge 26, Type (0, 0), BuildingBlock: TEMPAE_clean_linker_10, # of connection points: 2
# Relax obj value: 0.053
# Max RMSD: 0.171
# Mean RMSD: 0.158
data_MOF--net-afw--node1-ESEHIV_clean_sbu_0--edge1-TEMPAE_clean_linker_10
_symmetry_space_group_name_H-M    P1
_symmetry_Int_Tables_number       1
_symmetry_cell_setting            triclinic
loop_
_symmetry_equiv_pos_as_xyz
'x, y, z'
_cell_length_a     49.296455
_cell_length_b     54.583747
_cell_length_c     20.86182
_cell_angle_alpha  97.171492
_cell_angle_beta   91.581469
_cell_angle_gamma 118.91238
loop_
_atom_site_label
_atom_site_type_symbol
_atom_site_fract_x
_atom_site_fract_y
_atom_site_fract_z
_atom_type_partial_charge
Cu0 Cu 0.07017 0.22537 0.10383 0.0
N1 N 0.06538 0.20435 0.17106 0.0
N2 N 0.04619 0.1651 0.21696 0.0
C3 C 0.04388 0.1768 0.16527 0.0
C4 C 0.07036 0.18629 0.25705 0.0
C5 C 0.08218 0.21056 0.22853 0.0
O6 O 0.07947 0.20467 0.0326 0.0
C7 C 1.02214 0.23397 0.14416 0.0
O8 O 1.03469 0.23332 0.19979 0.0
H9 H 1.02767 0.16532 0.12229 0.0
H10 H 0.10202 0.23098 0.24747 0.0
N11 N 0.10353 0.26237 0.12013 0.0
N12 N 0.13734 0.30428 0.09375 0.0
C13 C 0.12017 0.27613 0.07352 0.0
C14 C 0.11048 0.28249 0.17192 0.0
C15 C 0.13136 0.30845 0.1557 0.0
C16 C 0.10475 0.20464 0.04763 0.0
O17 O 0.12109 0.21979 0.10287 0.0
H18 H 0.11755 0.26602 0.02393 0.0
H19 H 0.09939 0.27884 0.21644 0.0
O20 O 1.03309 0.22952 0.09191 0.0
H21 H 0.07907 0.18438 0.30327 0.0
H22 H 0.14017 0.32891 0.18586 0.0
Cu23 Cu 0.88717 0.87532 0.12779 0.0
N24 N 0.89314 0.90963 0.17295 0.0
N25 N 0.91483 0.9561 0.20953 0.0
C26 C 0.91902 0.93515 0.17827 0.0
C27 C 0.88522 0.94309 0.22526 0.0
C28 C 0.87192 0.91446 0.20259 0.0
O29 O 0.9249 0.8831 0.08663 0.0
C30 C 0.84114 0.83718 0.02397 0.0
O31 O 0.86097 0.82807 0.01105 0.0
H32 H 0.94039 0.93835 0.15884 0.0
H33 H 0.84816 0.89839 0.20562 0.0
N34 N 0.88213 0.85072 0.18652 0.0
N35 N 0.86644 0.81073 0.2281 0.0
C36 C 0.86251 0.82256 0.17804 0.0
C37 C 0.89893 0.85699 0.24397 0.0
C38 C 0.88936 0.83234 0.26973 0.0
C39 C 0.9364 0.90126 0.04837 0.0
O40 O 0.92015 0.91262 0.02836 0.0
H41 H 0.8465 0.81081 0.13494 0.0
H42 H 0.91732 0.87793 0.26487 0.0
O43 O 0.84895 0.85802 0.06917 0.0
H44 H 0.87352 0.95363 0.24887 0.0
H45 H 0.89872 0.83044 0.31523 0.0
Cu46 Cu 0.21588 0.02416 0.91717 0.0
N47 N 0.22147 1.00229 0.84822 0.0
N48 N 0.23662 0.97445 0.79076 0.0
C49 C 0.2404 0.99093 0.84805 0.0
C50 C 0.21454 0.97562 0.75364 0.0
C51 C 0.20525 0.99278 0.78922 0.0
O52 O 0.25389 0.04361 0.97734 0.0
C53 C 0.16745 1.00517 0.00333 0.0
O54 O 0.1847 0.02972 0.04069 0.0
H55 H 0.25582 0.99391 0.88981 0.0
H56 H 0.18749 0.9976 0.77366 0.0
N57 N 0.20845 0.05097 0.88414 0.0
N58 N 0.18829 0.07916 0.86965 0.0
C59 C 0.18967 0.06094 0.90629 0.0
C60 C 0.21941 0.06326 0.83162 0.0
C61 C 0.2071 0.08068 0.8226 0.0
C62 C 0.26031 0.03311 0.02279 0.0
O63 O 0.23957 1.00788 0.03387 0.0
H64 H 0.17753 0.05517 0.94892 0.0
H65 H 0.23502 0.05957 0.80159 0.0
O66 O 0.17805 0.99874 0.95288 0.0
H67 H 0.20564 0.96478 0.70437 0.0
H68 H 0.21145 0.0932 0.78389 0.0
Cu69 Cu 0.74292 0.53792 0.35146 0.0
N70 N 0.70996 0.50388 0.30899 0.0
N71 N 0.67242 0.45854 0.29779 0.0
C72 C 0.68857 0.48341 0.33853 0.0
C73 C 0.6838 0.46398 0.23989 0.0
C74 C 0.70701 0.4919 0.24705 0.0
O75 O 0.77479 0.529 0.37798 0.0
C76 C 0.7425 0.57777 0.45333 0.0
O77 O 0.77133 0.59432 0.44176 0.0
H78 H 0.68625 0.48644 0.38988 0.0
H79 H 0.7222 0.50212 0.211 0.0
N80 N 0.75922 0.564 0.29396 0.0
N81 N 0.77679 0.60431 0.25245 0.0
C82 C 0.75806 0.58818 0.2941 0.0
C83 C 0.7788 0.5645 0.24998 0.0
C84 C 0.78965 0.58924 0.22429 0.0
C85 C 0.7692 0.50992 0.413 0.0
O86 O 0.74314 0.49942 0.44072 0.0
H87 H 0.74461 0.59421 0.32587 0.0
H88 H 0.78596 0.54865 0.23995 0.0
O89 O 0.72749 0.55257 0.42262 0.0
H90 H 0.67756 0.44845 0.19657 0.0
H91 H 0.80717 0.59628 0.1905 0.0
Cu92 Cu 0.51637 0.18073 0.38626 0.0
N93 N 0.52126 0.21709 0.40585 0.0
N94 N 0.53959 0.26355 0.40699 0.0
C95 C 0.54388 0.24111 0.38882 0.0
C96 C 0.51317 0.25309 0.43691 0.0
C97 C 0.5019 0.22447 0.43585 0.0
O98 O 0.55688 0.18497 0.3678 0.0
C99 C 0.47279 0.1359 0.28372 0.0
O100 O 0.48956 0.12331 0.28816 0.0
H101 H 0.56258 0.2419 0.36187 0.0
H102 H 0.4808 0.20994 0.4548 0.0
N103 N 0.50611 0.16303 0.45995 0.0
N104 N 0.49564 0.13091 0.52614 0.0
C105 C 0.49924 0.13625 0.46439 0.0
C106 C 0.50704 0.17511 0.52084 0.0
C107 C 0.50048 0.15538 0.56165 0.0
C108 C 0.57257 0.19598 0.32169 0.0
O109 O 0.55935 0.20157 0.27432 0.0
H110 H 0.49735 0.12118 0.42318 0.0
H111 H 0.51309 0.19702 0.53503 0.0
O112 O 0.48159 0.15987 0.31838 0.0
H113 H 0.50254 0.2651 0.45795 0.0
H114 H 0.50049 0.15917 0.61382 0.0
Cu115 Cu 0.89483 0.35621 0.41586 0.0
N116 N 0.92039 0.36831 0.49427 0.0
N117 N 0.96273 0.39225 0.56631 0.0
C118 C 0.95181 0.38333 0.50275 0.0
C119 C 0.93719 0.38235 0.59892 0.0
C120 C 0.91116 0.36759 0.55442 0.0
O121 O 0.91672 0.34769 0.34763 0.0
C122 C 0.86938 0.3868 0.35745 0.0
O123 O 0.85797 0.36573 0.30865 0.0
H124 H 0.96628 0.38886 0.46306 0.0
H125 H 0.88712 0.35795 0.56501 0.0
N126 N 0.85719 0.32316 0.42089 0.0
N127 N 0.80653 0.29043 0.40724 0.0
C128 C 0.82778 0.31789 0.40655 0.0
C129 C 0.85439 0.2983 0.43175 0.0
C130 C 0.82327 0.27812 0.42336 0.0
C131 C 0.90273 0.32926 0.29704 0.0
O132 O 0.87231 0.31745 0.28629 0.0
H133 H 0.82211 0.33352 0.39316 0.0
H134 H 0.87377 0.29491 0.4428 0.0
O135 O 0.8864 0.38675 0.4043 0.0
H136 H 0.9373 0.38597 0.65117 0.0
H137 H 0.81374 0.25599 0.428 0.0
Cu138 Cu 0.40584 0.86735 0.66826 0.0
N139 N 0.40474 0.84335 0.72559 0.0
N140 N 0.39446 0.8002 0.7432 0.0
C141 C 0.385 0.81529 0.71159 0.0
C142 C 0.42109 0.81965 0.77953 0.0
C143 C 0.42761 0.84624 0.76788 0.0
O144 O 0.41735 0.85211 0.59145 0.0
C145 C 0.35287 0.86752 0.70792 0.0
O146 O 0.36394 0.8649 0.7631 0.0
H147 H 0.36558 0.80609 0.67427 0.0
H148 H 0.44915 0.86571 0.78344 0.0
N149 N 0.43408 0.9058 0.6944 0.0
N150 N 0.45513 0.95215 0.69048 0.0
C151 C 0.4363 0.92559 0.65917 0.0
C152 C 0.45207 0.92026 0.75045 0.0
C153 C 0.46536 0.94893 0.74789 0.0
C154 C 0.44619 0.86019 0.589 0.0
O155 O 0.46662 0.88457 0.62335 0.0
H156 H 0.42361 0.92044 0.61186 0.0
H157 H 0.45431 0.91084 0.79142 0.0
O158 O 0.36601 0.86614 0.65695 0.0
H159 H 0.43628 0.81488 0.80751 0.0
H160 H 0.48015 0.96602 0.78645 0.0
Cu161 Cu 0.24785 0.52479 0.77217 0.0
N162 N 0.26789 0.54599 0.70786 0.0
N163 N 0.29636 0.58821 0.67611 0.0
C164 C 0.2737 0.57291 0.71239 0.0
C165 C 0.30508 0.5699 0.64702 0.0
C166 C 0.28759 0.54388 0.66711 0.0
O167 O 0.27668 0.54922 0.848 0.0
C168 C 0.19021 0.51612 0.71763 0.0
O169 O 0.20559 0.52332 0.6666 0.0
H170 H 0.26378 0.58178 0.74751 0.0
H171 H 0.291 0.52568 0.65738 0.0
N172 N 0.24376 0.48866 0.76323 0.0
N173 N 0.22946 0.44639 0.79241 0.0
C174 C 0.23925 0.47401 0.81295 0.0
C175 C 0.23626 0.46955 0.70905 0.0
C176 C 0.22736 0.44334 0.72698 0.0
C177 C 0.30103 0.54716 0.85934 0.0
O178 O 0.3013 0.52415 0.83314 0.0
H179 H 0.24075 0.48302 0.86308 0.0
H180 H 0.23515 0.47393 0.66018 0.0
O181 O 0.20483 0.51772 0.7709 0.0
H182 H 0.32393 0.57524 0.61652 0.0
H183 H 0.21867 0.42343 0.69459 0.0
Cu184 Cu 0.56804 0.69438 0.72466 0.0
N185 N 0.57536 0.66765 0.67508 0.0
N186 N 0.59876 0.64526 0.6259 0.0
C187 C 0.60218 0.66681 0.67121 0.0
C188 C 0.56872 0.63211 0.60062 0.0
C189 C 0.55438 0.64594 0.63109 0.0
O190 O 0.60548 0.72077 0.78224 0.0
C191 C 0.52055 0.68416 0.81293 0.0
O192 O 0.53793 0.71067 0.84053 0.0
H193 H 0.62394 0.68218 0.69937 0.0
H194 H 0.53044 0.6409 0.62111 0.0
N195 N 0.56014 0.71422 0.66705 0.0
N196 N 0.53912 0.73608 0.61767 0.0
C197 C 0.53933 0.72354 0.66956 0.0
C198 C 0.57355 0.72104 0.61196 0.0
C199 C 0.56069 0.73453 0.58143 0.0
C200 C 0.61797 0.71315 0.82405 0.0
O201 O 0.60362 0.68663 0.83371 0.0
H202 H 0.52435 0.72079 0.70813 0.0
H203 H 0.59139 0.7164 0.59516 0.0
O204 O 0.53036 0.67395 0.76683 0.0
H205 H 0.5579 0.6138 0.56272 0.0
H206 H 0.56716 0.743 0.53661 0.0
C207 C 0.14608 0.08502 0.91828 0.0
C208 C 0.17143 0.09463 0.88073 0.0
C209 C 0.13181 0.10144 0.93586 0.0
C210 C 0.1429 0.12806 0.9149 0.0
C211 C 0.16692 0.13694 0.87311 0.0
C212 C 0.18099 0.12023 0.85683 0.0
C213 C 0.1063 0.09111 0.9806 0.0
C214 C 0.17925 0.16504 0.84911 0.0
C215 C 0.09796 0.16817 0.95151 0.0
C216 C 0.11476 0.18607 0.00945 0.0
C217 C 0.10709 0.14947 0.91895 0.0
C218 C 0.13329 0.14848 0.94557 0.0
C219 C 0.15045 0.16681 0.00345 0.0
C220 C 0.14115 0.18541 0.03416 0.0
C221 C 0.08855 0.13053 0.85673 0.0
C222 C 0.17836 0.16639 0.03406 0.0
H223 H 0.13779 0.06494 0.9355 0.0
H224 H 0.20047 0.12799 0.82781 0.0
H225 H 0.11539 0.10411 0.0295 0.0
H226 H 0.08649 0.09358 0.96274 0.0
H227 H 0.09753 0.06854 0.98553 0.0
H228 H 0.19403 0.16672 0.80883 0.0
H229 H 0.15981 0.16822 0.83221 0.0
H230 H 0.19348 0.18247 0.88957 0.0
H231 H 0.07757 0.16854 0.93206 0.0
H232 H 0.15442 0.1991 0.07882 0.0
H233 H 0.07738 0.10803 0.8639 0.0
H234 H 0.1042 0.13308 0.81786 0.0
H235 H 0.07013 0.13515 0.84007 0.0
H236 H 0.1713 0.145 0.04604 0.0
H237 H 0.18921 0.18209 0.0792 0.0
H238 H 0.19624 0.17101 -0.00064 0.0
C239 C 0.95843 0.99773 0.17392 0.0
C240 C 0.93619 0.98625 0.21793 0.0
C241 C 0.97781 0.02714 0.17859 0.0
C242 C 0.97497 0.04564 0.22854 0.0
C243 C 0.95337 0.03419 0.27447 0.0
C244 C 0.93421 1.00466 0.26853 0.0
C245 C 1.00044 0.03844 0.1284 0.0
C246 C 0.94984 0.05316 0.3288 0.0
C247 C 0.0401 0.12262 0.26039 0.0
C248 C 1.02775 0.13565 0.22427 0.0
C249 C 1.02299 0.09344 0.26345 0.0
C250 C 0.99287 0.0769 0.2295 0.0
C251 C 0.98001 0.09009 0.19442 0.0
C252 C 0.9975 0.11923 0.19251 0.0
C253 C 0.03744 0.08017 0.30163 0.0
C254 C 0.94796 0.07329 0.15763 0.0
H255 H 0.95995 0.98381 0.13419 0.0
H256 H 0.91747 0.99598 0.30331 0.0
H257 H 0.99333 0.05016 0.09831 0.0
H258 H 1.02415 0.05359 0.15242 0.0
H259 H 1.00155 0.02128 0.09581 0.0
H260 H 0.93378 0.04095 0.36342 0.0
H261 H 0.97284 0.06832 0.35591 0.0
H262 H 0.94066 0.06582 0.30827 0.0
H263 H 0.06349 0.13504 0.28468 0.0
H264 H 0.98748 0.12916 0.16565 0.0
H265 H 0.04107 0.06477 0.26822 0.0
H266 H 1.02152 0.06825 0.3367 0.0
H267 H 0.06019 0.09619 0.32866 0.0
H268 H 0.94734 0.05679 0.11973 0.0
H269 H 0.94105 0.08684 0.13387 0.0
H270 H 0.9304 0.06224 0.19099 0.0
C271 C 0.98865 0.90438 0.06686 0.0
C272 C 0.96978 0.91325 0.03669 0.0
C273 C 1.02095 0.91778 0.06241 0.0
C274 C 1.03482 0.94054 0.02665 0.0
C275 C 1.01581 0.94906 0.99454 0.0
C276 C 0.98358 0.93536 1e-05 0.0
C277 C 0.04037 0.9081 0.09751 0.0
C278 C 1.02961 0.97312 0.9556 0.0
C279 C 0.12089 0.99546 0.06433 0.0
C280 C 0.13417 0.98706 0.0135 0.0
C281 C 0.08873 0.98015 0.07005 0.0
C282 C 0.06929 0.95586 0.02377 0.0
C283 C 0.08267 0.9468 0.9735 0.0
C284 C 0.11489 0.96244 0.96907 0.0
C285 C 0.07542 0.99044 0.12464 0.0
C286 C 0.06281 0.92109 0.92311 0.0
H287 H 0.97832 0.88741 0.09554 0.0
H288 H 0.96931 0.94246 0.97663 0.0
H289 H 0.05405 0.90256 0.06311 0.0
H290 H 0.05725 0.9256 0.13519 0.0
H291 H 1.02594 0.88942 0.12123 0.0
H292 H 1.01153 0.97635 0.93119 0.0
H293 H 0.04606 0.99307 0.98792 0.0
H294 H 0.04306 0.96896 0.91816 0.0
H295 H 0.13549 1.01444 0.09888 0.0
H296 H 0.12482 0.95571 0.92953 0.0
H297 H 0.06175 0.97305 0.15242 0.0
H298 H 0.05926 0.99693 0.10438 0.0
H299 H 0.09381 1.00872 0.15865 0.0
H300 H 0.04894 0.90237 0.94699 0.0
H301 H 0.07694 0.91604 0.88889 0.0
H302 H 0.04611 0.92479 0.89481 0.0
C303 C 0.83533 0.40551 0.31896 0.0
C304 C 0.85918 0.40846 0.36283 0.0
C305 C 0.82306 0.42405 0.3279 0.0
C306 C 0.83503 0.44619 0.38183 0.0
C307 C 0.85994 0.44997 0.4248 0.0
C308 C 0.87167 0.43105 0.41488 0.0
C309 C 0.79648 0.4193 0.28094 0.0
C310 C 0.87351 0.47342 0.48256 0.0
C311 C 0.81462 0.50491 0.37635 0.0
C312 C 0.78864 0.49594 0.41209 0.0
C313 C 0.83056 0.48942 0.36764 0.0
C314 C 0.82024 0.46431 0.39514 0.0
C315 C 0.79483 0.45577 0.43337 0.0
C316 C 0.77942 0.4717 0.44151 0.0
C317 C 0.8577 0.49935 0.32701 0.0
C318 C 0.78313 0.42916 0.46369 0.0
H319 H 0.82549 0.38814 0.27866 0.0
H320 H 0.8902 0.43362 0.44895 0.0
H321 H 0.77531 0.41355 0.30665 0.0
H322 H 0.80219 0.43908 0.26154 0.0
H323 H 0.79098 0.40217 0.23953 0.0
H324 H 0.89434 0.47485 0.50848 0.0
H325 H 0.88012 0.49411 0.46693 0.0
H326 H 0.85573 0.46968 0.5172 0.0
H327 H 0.82197 0.5236 0.35341 0.0
H328 H 0.7594 0.46455 0.46918 0.0
H329 H 0.85161 0.48378 0.28205 0.0
H330 H 0.87825 0.50069 0.35382 0.0
H331 H 0.86432 0.52039 0.31315 0.0
H332 H 0.77431 0.41042 0.425 0.0
H333 H 0.7641 0.42618 0.4946 0.0
H334 H 0.80245 0.42982 0.49378 0.0
C335 C 0.58913 0.3018 0.37836 0.0
C336 C 0.55838 0.29216 0.39372 0.0
C337 C 0.60722 0.32907 0.36274 0.0
C338 C 0.59452 0.34745 0.36342 0.0
C339 C 0.56378 0.33816 0.37999 0.0
C340 C 0.54604 0.31062 0.39452 0.0
C341 C 0.6399 0.33814 0.3451 0.0
C342 C 0.54956 0.35729 0.38207 0.0
C343 C 0.6521 0.42619 0.37933 0.0
C344 C 0.65151 0.43107 0.31484 0.0
C345 C 0.63322 0.39926 0.39597 0.0
C346 C 0.61349 0.37643 0.34692 0.0
C347 C 0.61243 0.38116 0.28194 0.0
C348 C 0.63126 0.40842 0.26678 0.0
C349 C 0.63484 0.39513 0.46596 0.0
C350 C 0.59181 0.35729 0.22817 0.0
H351 H 0.59927 0.28812 0.37871 0.0
H352 H 0.5223 0.30349 0.40548 0.0
H353 H 0.64225 0.34412 0.29581 0.0
H354 H 0.65691 0.35712 0.37938 0.0
H355 H 0.64619 0.32118 0.34599 0.0
H356 H 0.52565 0.34715 0.3975 0.0
H357 H 0.56432 0.37721 0.41616 0.0
H358 H 0.54858 0.36318 0.3334 0.0
H359 H 0.66789 0.44317 0.41697 0.0
H360 H 0.63023 0.41192 0.21705 0.0
H361 H 0.64388 0.38028 0.47047 0.0
H362 H 0.61119 0.38552 0.48259 0.0
H363 H 0.65011 0.41535 0.49882 0.0
H364 H 0.59854 0.34051 0.22462 0.0
H365 H 0.59335 0.36452 0.18027 0.0
H366 H 0.5672 0.3475 0.23923 0.0
C367 C 0.62525 0.22062 0.27989 0.0
C368 C 0.6069 0.20714 0.32831 0.0
C369 C 0.658 0.23385 0.28899 0.0
C370 C 0.67287 0.23392 0.34822 0.0
C371 C 0.65446 0.21985 0.39666 0.0
C372 C 0.62182 0.20653 0.386 0.0
C373 C 0.67673 0.24825 0.23572 0.0
C374 C 0.66927 0.21952 0.46067 0.0
C375 C 0.75668 0.24811 0.36114 0.0
C376 C 0.77322 0.27665 0.39044 0.0
C377 C 0.72422 0.23419 0.34558 0.0
C378 C 0.70766 0.24901 0.36028 0.0
C379 C 0.72425 0.27795 0.3891 0.0
C380 C 0.75681 0.29144 0.40344 0.0
C381 C 0.70759 0.2035 0.31393 0.0
C382 C 0.70751 0.29449 0.40622 0.0
H383 H 0.61405 0.22128 0.2352 0.0
H384 H 0.60801 0.19632 0.42398 0.0
H385 H 0.6911 0.27135 0.25295 0.0
H386 H 0.69294 0.24013 0.22294 0.0
H387 H 0.66171 0.24495 0.19121 0.0
H388 H 0.65172 0.20734 0.49302 0.0
H389 H 0.68462 0.21008 0.45221 0.0
H390 H 0.68409 0.24155 0.48615 0.0
H391 H 0.76922 0.23667 0.34976 0.0
H392 H 0.76936 0.31341 0.4264 0.0
H393 H 0.6937 0.20086 0.26827 0.0
H394 H 0.69111 0.19024 0.3465 0.0
H395 H 0.72398 0.1954 0.30262 0.0
H396 H 0.6936 0.29374 0.36256 0.0
H397 H 0.72383 0.31703 0.42656 0.0
H398 H 0.69102 0.28471 0.44243 0.0
C399 C 0.43508 0.80982 0.56278 0.0
C400 C 0.45629 0.839 0.56969 0.0
C401 C 0.44561 0.78998 0.56166 0.0
C402 C 0.47801 0.79961 0.56818 0.0
C403 C 0.49935 0.82877 0.56999 0.0
C404 C 0.48821 0.84804 0.57025 0.0
C405 C 0.4221 0.759 0.558 0.0
C406 C 0.53411 0.83996 0.57673 0.0
C407 C 0.51097 0.76141 0.65585 0.0
C408 C 0.52087 0.74945 0.60466 0.0
C409 C 0.49563 0.77665 0.64423 0.0
C410 C 0.48999 0.78001 0.5798 0.0
C411 C 0.49842 0.76675 0.52763 0.0
C412 C 0.51385 0.75172 0.54069 0.0
C413 C 0.48671 0.79025 0.70125 0.0
C414 C 0.49208 0.76922 0.4582 0.0
H415 H 0.41034 0.80255 0.56243 0.0
H416 H 0.50475 0.87049 0.57507 0.0
H417 H 0.42889 0.7455 0.52593 0.0
H418 H 0.42109 0.75299 0.60712 0.0
H419 H 0.39844 0.75431 0.53976 0.0
H420 H 0.54745 0.86278 0.57213 0.0
H421 H 0.54137 0.83723 0.62497 0.0
H422 H 0.54048 0.82783 0.53937 0.0
H423 H 0.51633 0.75986 0.70536 0.0
H424 H 0.5207 0.74195 0.50072 0.0
H425 H 0.46162 0.78381 0.69416 0.0
H426 H 0.50007 0.81366 0.70478 0.0
H427 H 0.4913 0.78446 0.74795 0.0
H428 H 0.46748 0.76395 0.44809 0.0
H429 H 0.49684 0.75509 0.42292 0.0
H430 H 0.50696 0.79139 0.45014 0.0
C431 C 0.3672 0.75417 0.66993 0.0
C432 C 0.38198 0.76986 0.73123 0.0
C433 C 0.35479 0.72465 0.65756 0.0
C434 C 0.35692 0.7103 0.70782 0.0
C435 C 0.37216 0.72606 0.76962 0.0
C436 C 0.38476 0.75566 0.78034 0.0
C437 C 0.33929 0.70879 0.59066 0.0
C438 C 0.37511 0.71174 0.82462 0.0
C439 C 0.29499 0.63311 0.69813 0.0
C440 C 0.3112 0.61864 0.67871 0.0
C441 C 0.30967 0.66279 0.70796 0.0
C442 C 0.34131 0.67869 0.69684 0.0
C443 C 0.35764 0.66436 0.67502 0.0
C444 C 0.34243 0.63451 0.66639 0.0
C445 C 0.29139 0.67718 0.73152 0.0
C446 C 0.39138 0.68055 0.6624 0.0
H447 H 0.36571 0.76501 0.63106 0.0
H448 H 0.39622 0.76767 0.82767 0.0
H449 H 0.3514 0.69747 0.56985 0.0
H450 H 0.31478 0.69259 0.5937 0.0
H451 H 0.33944 0.72306 0.55691 0.0
H452 H 0.38367 0.72633 0.87171 0.0
H453 H 0.35238 0.69314 0.82977 0.0
H454 H 0.39183 0.70405 0.81382 0.0
H455 H 0.27072 0.62118 0.70639 0.0
H456 H 0.35539 0.62376 0.65214 0.0
H457 H 0.29092 0.69064 0.69627 0.0
H458 H 0.30292 0.6913 0.77843 0.0
H459 H 0.26701 0.66178 0.73839 0.0
H460 H 0.39461 0.69597 0.62932 0.0
H461 H 0.40006 0.66633 0.64075 0.0
H462 H 0.40592 0.69282 0.70868 0.0
C463 C 0.33857 0.59829 0.85794 0.0
C464 C 0.33171 0.57279 0.87963 0.0
C465 C 0.36965 0.6195 0.8567 0.0
C466 C 0.39433 0.61527 0.87868 0.0
C467 C 0.38734 0.59086 0.90695 0.0
C468 C 0.35615 0.56983 0.90656 0.0
C469 C 0.37604 0.64523 0.82654 0.0
C470 C 0.4128 0.58563 0.93201 0.0
C471 C 0.46686 0.64242 0.78855 0.0
C472 C 0.48849 0.66671 0.83106 0.0
C473 C 0.43614 0.626 0.80314 0.0
C474 C 0.42674 0.63364 0.86244 0.0
C475 C 0.44843 0.65809 0.90579 0.0
C476 C 0.47898 0.6745 0.88931 0.0
C477 C 0.41368 0.60043 0.75478 0.0
C478 C 0.43946 0.66674 0.96976 0.0
H479 H 0.31985 0.60063 0.83643 0.0
H480 H 0.35094 0.55012 0.9233 0.0
H481 H 0.393 0.66477 0.85929 0.0
H482 H 0.38668 0.64471 0.78056 0.0
H483 H 0.35452 0.64639 0.81598 0.0
H484 H 0.40391 0.56839 0.96207 0.0
H485 H 0.42295 0.57949 0.89032 0.0
H486 H 0.43183 0.60516 0.9614 0.0
H487 H 0.4738 0.63639 0.74304 0.0
H488 H 0.49551 0.69326 0.9224 0.0
H489 H 0.39301 0.60236 0.74057 0.0
H490 H 0.40531 0.58096 0.77724 0.0
H491 H 0.42442 0.59779 0.71017 0.0
H492 H 0.41952 0.67045 0.96131 0.0
H493 H 0.45901 0.68627 -0.00182 0.0
H494 H 0.43177 0.64939 -0.00074 0.0
C495 C 0.17124 0.32097 0.00617 0.0
C496 C 0.15359 0.32537 0.05311 0.0
C497 C 0.18548 0.34036 0.96307 0.0
C498 C 0.18127 0.36435 0.96592 0.0
C499 C 0.16356 0.36895 0.01354 0.0
C500 C 0.15024 0.34957 0.05703 0.0
C501 C 0.2048 0.33504 0.91415 0.0
C502 C 0.15795 0.39393 0.0174 0.0
C503 C 0.2357 0.42908 0.89212 0.0
C504 C 0.21876 0.42455 0.83268 0.0
C505 C 0.22435 0.40915 0.93488 0.0
C506 C 0.1949 0.38446 0.91855 0.0
C507 C 0.1779 0.3796 0.858 0.0
C508 C 0.19024 0.39957 0.81544 0.0
C509 C 0.24357 0.41481 -0.00191 0.0
C510 C 0.14614 0.35387 0.83929 0.0
H511 H 0.17387 0.30228 0.00338 0.0
H512 H 0.13617 0.35274 0.09258 0.0
H513 H 0.19399 0.3317 0.86422 0.0
H514 H 0.22841 0.35383 0.91851 0.0
H515 H 0.20714 0.31622 0.92051 0.0
H516 H 0.14356 0.39442 0.05707 0.0
H517 H 0.18047 0.41402 0.02547 0.0
H518 H 0.14597 0.3931 0.97069 0.0
H519 H 0.25782 0.44839 0.90516 0.0
H520 H 0.17696 0.3963 0.76988 0.0
H521 H 0.2465 0.39625 0.00377 0.0
H522 H 0.23136 0.41805 0.03941 0.0
H523 H 0.26698 0.43383 0.0012 0.0
H524 H 0.14744 0.33424 0.84106 0.0
H525 H 0.13628 0.35284 0.78986 0.0
H526 H 0.12987 0.35426 0.87462 0.0
C527 C 0.78535 0.82627 0.01674 0.0
C528 C 0.80867 0.82121 0.9918 0.0
C529 C 0.75406 0.80974 0.99036 0.0
C530 C 0.74582 0.78778 0.93716 0.0
C531 C 0.76937 0.78306 0.91064 0.0
C532 C 0.80042 0.79968 0.93848 0.0
C533 C 0.72969 0.81533 0.02051 0.0
C534 C 0.76167 0.76011 0.85342 0.0
C535 C 0.66269 0.72588 0.90648 0.0
C536 C 0.64994 0.73314 0.85599 0.0
C537 C 0.69362 0.7437 0.9341 0.0
C538 C 0.71249 0.76929 0.91018 0.0
C539 C 0.69965 0.77691 0.85978 0.0
C540 C 0.66854 0.75887 0.83361 0.0
C541 C 0.70623 0.73493 0.98834 0.0
C542 C 0.71902 0.80384 0.83243 0.0
H543 H 0.79137 0.84272 0.05815 0.0
H544 H 0.81823 0.79562 0.91874 0.0
H545 H 0.71667 0.81954 0.9832 0.0
H546 H 0.71258 0.79629 0.03988 0.0
H547 H 0.73996 0.83364 0.06064 0.0
H548 H 0.78279 0.75997 0.83661 0.0
H549 H 0.74584 0.73908 0.8668 0.0
H550 H 0.74927 0.76302 0.81238 0.0
H551 H 0.64854 0.7061 0.92423 0.0
H552 H 0.65903 0.76463 0.79435 0.0
H553 H 0.71556 0.75193 0.03124 0.0
H554 H 0.72581 0.73179 0.97269 0.0
H555 H 0.68822 0.71501 0.00329 0.0
H556 H 0.72854 0.8224 0.87171 0.0
H557 H 0.70544 0.80704 0.79418 0.0
H558 H 0.73915 0.80323 0.81134 0.0
C559 C 0.33135 0.89625 0.66566 0.0
C560 C 0.33053 0.87835 0.70924 0.0
C561 C 0.31474 0.91111 0.67448 0.0
C562 C 0.29649 0.9076 0.72747 0.0
C563 C 0.2942 0.88829 0.76931 0.0
C564 C 0.31145 0.8741 0.76 0.0
C565 C 0.31808 0.93173 0.62924 0.0
C566 C 0.27465 0.88359 0.82576 0.0
C567 C 0.28234 0.9674 0.80022 0.0
C568 C 0.25187 0.95801 0.7737 0.0
C569 C 0.29733 0.95146 0.78454 0.0
C570 C 0.28134 0.92532 0.74177 0.0
C571 C 0.25062 0.91579 0.71458 0.0
C572 C 0.23631 0.9323 0.73066 0.0
C573 C 0.33023 0.96252 0.8141 0.0
C574 C 0.23267 0.88792 0.66943 0.0
H575 H 0.3464 0.89993 0.62686 0.0
H576 H 0.31075 0.86028 0.79378 0.0
H577 H 0.29483 0.92767 0.61002 0.0
H578 H 0.33052 0.95366 0.65639 0.0
H579 H 0.33124 0.93049 0.58772 0.0
H580 H 0.27315 0.86607 0.85017 0.0
H581 H 0.28487 0.90325 0.86201 0.0
H582 H 0.25073 0.87865 0.80911 0.0
H583 H 0.2946 0.9874 0.8328 0.0
H584 H 0.21262 0.92473 0.71065 0.0
H585 H 0.34566 0.96408 0.77524 0.0
H586 H 0.33086 0.94752 0.84466 0.0
H587 H 0.33981 0.98368 0.84457 0.0
H588 H 0.24586 0.88758 0.62741 0.0
H589 H 0.20929 0.88389 0.65097 0.0
H590 H 0.2297 0.8703 0.69517 0.0
C591 C 0.4342 0.09742 0.19612 0.0
C592 C 0.44237 0.12144 0.24256 0.0
C593 C 0.405 0.08312 0.15883 0.0
C594 C 0.38313 0.09272 0.16888 0.0
C595 C 0.39129 0.11698 0.21561 0.0
C596 C 0.4208 0.13113 0.25137 0.0
C597 C 0.39747 0.05764 0.1088 0.0
C598 C 0.36863 0.12775 0.22868 0.0
C599 C 0.31649 0.07139 0.03825 0.0
C600 C 0.29158 0.04863 0.06072 0.0
C601 C 0.34642 0.08563 0.07238 0.0
C602 C 0.3516 0.0773 0.13113 0.0
C603 C 0.32648 0.05452 0.15438 0.0
C604 C 0.29691 0.04034 0.11869 0.0
C605 C 0.37258 0.10951 0.04531 0.0
C606 C 0.33079 0.04522 0.21728 0.0
H607 H 0.45068 0.08979 0.18878 0.0
H608 H 0.4267 0.14953 0.28739 0.0
H609 H 0.37712 0.03858 0.12132 0.0
H610 H 0.39102 0.06087 0.06043 0.0
H611 H 0.41734 0.05344 0.10518 0.0
H612 H 0.37847 0.14684 0.2667 0.0
H613 H 0.36182 0.13308 0.18351 0.0
H614 H 0.34708 0.11093 0.24446 0.0
H615 H 0.31274 0.07784 0.99327 0.0
H616 H 0.27784 0.02285 0.13659 0.0
H617 H 0.39197 0.10489 0.0381 0.0
H618 H 0.38194 0.12947 0.08034 0.0
H619 H 0.36497 0.11297 -0.00174 0.0
H620 H 0.34878 0.03858 0.2144 0.0
H621 H 0.30889 0.02735 0.22911 0.0
H622 H 0.33917 0.06325 0.25775 0.0
C623 C 0.99898 0.26236 0.10557 0.0
C624 C 0.99875 0.2436 0.14604 0.0
C625 C 0.98191 0.27673 0.11837 0.0
C626 C 0.96421 0.272 0.17253 0.0
C627 C 0.96221 0.25148 0.21033 0.0
C628 C 0.97957 0.23768 0.19677 0.0
C629 C 0.98451 0.29827 0.07661 0.0
C630 C 0.94332 0.24537 0.26791 0.0
C631 C 0.95171 0.3281 0.2724 0.0
C632 C 0.9198 0.31785 0.25676 0.0
C633 C 0.967 0.31452 0.24177 0.0
C634 C 0.95004 0.29004 0.19427 0.0
C635 C 0.9184 0.28081 0.17496 0.0
C636 C 0.90365 0.2948 0.20642 0.0
C637 C 1.00085 0.32527 0.26353 0.0
C638 C 0.89952 0.25501 0.12416 0.0
H639 H 1.01403 0.26722 0.0667 0.0
H640 H 0.97924 0.22309 0.22798 0.0
H641 H 0.96137 0.29625 0.06472 0.0
H642 H 0.99975 0.31991 0.10374 0.0
H643 H 0.99459 0.29607 0.0307 0.0
H644 H 0.94211 0.22717 0.28891 0.0
H645 H 0.95392 0.26432 0.30629 0.0
H646 H 0.91925 0.2407 0.25365 0.0
H647 H 0.96451 0.34603 0.31074 0.0
H648 H 0.87906 0.2868 0.19344 0.0
H649 H 1.0143 0.32705 0.22092 0.0
H650 H 1.00285 0.30996 0.29098 0.0
H651 H 1.01163 0.34626 0.29519 0.0
H652 H 0.9128 0.25548 0.08183 0.0
H653 H 0.87706 0.25334 0.107 0.0
H654 H 0.89441 0.23566 0.14497 0.0
C655 C 0.78125 0.65064 0.29639 0.0
C656 C 0.78513 0.63317 0.24629 0.0
C657 C 0.79196 0.67943 0.29352 0.0
C658 C 0.80728 0.69122 0.23967 0.0
C659 C 0.81034 0.67357 0.18798 0.0
C660 C 0.79904 0.64479 0.1917 0.0
C661 C 0.78786 0.69744 0.34928 0.0
C662 C 0.8266 0.68531 0.12973 0.0
C663 C 0.8202 0.76293 0.20643 0.0
C664 C 0.85109 0.78099 0.2333 0.0
C665 C 0.80533 0.73374 0.20935 0.0
C666 C 0.82192 0.72231 0.23911 0.0
C667 C 0.85303 0.7405 0.26677 0.0
C668 C 0.86715 0.76961 0.26385 0.0
C669 C 0.77199 0.71513 0.1802 0.0
C670 C 0.87168 0.72911 0.29818 0.0
H671 H 0.77084 0.6422 0.33914 0.0
H672 H 0.80159 0.63148 0.15208 0.0
H673 H 0.81093 0.71305 0.3755 0.0
H674 H 0.77747 0.70959 0.33086 0.0
H675 H 0.77282 0.68457 0.38441 0.0
H676 H 0.82584 0.66856 0.09231 0.0
H677 H 0.81576 0.69628 0.10723 0.0
H678 H 0.85134 0.70124 0.14535 0.0
H679 H 0.80759 0.77169 0.18345 0.0
H680 H 0.89113 0.78338 0.2839 0.0
H681 H 0.7574 0.70347 0.21726 0.0
H682 H 0.77062 0.69908 0.14004 0.0
H683 H 0.762 0.72746 0.16097 0.0
H684 H 0.85948 0.71778 0.338 0.0
H685 H 0.89543 0.74613 0.31832 0.0
H686 H 0.87383 0.71358 0.262 0.0
C687 C 0.13784 0.47811 0.73939 0.0
C688 C 0.15567 0.50139 0.70825 0.0
C689 C 0.10568 0.46048 0.72073 0.0
C690 C 0.09092 0.46667 0.67078 0.0
C691 C 0.10856 0.49118 0.64213 0.0
C692 C 0.14072 0.50798 0.66057 0.0
C693 C 0.08792 0.43435 0.75187 0.0
C694 C 0.09372 0.49905 0.58997 0.0
C695 C 1.01882 0.40766 0.56551 0.0
C696 C 0.99471 0.41041 0.59347 0.0
C697 C 0.05008 0.4253 0.59129 0.0
C698 C 0.05758 0.44672 0.64554 0.0
C699 C 1.03329 0.44963 0.67386 0.0
C700 C 1.00218 0.43127 0.64792 0.0
C701 C 0.07513 0.42109 0.56022 0.0
C702 C 0.04022 0.47255 0.73061 0.0
H703 H 0.14934 0.47264 0.77554 0.0
H704 H 0.15442 0.52594 0.63632 0.0
H705 H 0.06659 0.43353 0.76993 0.0
H706 H 0.08038 0.41516 0.71508 0.0
H707 H 0.10216 0.43354 0.79292 0.0
H708 H 0.10985 0.52021 0.57737 0.0
H709 H 0.08649 0.48305 0.54545 0.0
H710 H 0.07247 0.49912 0.60594 0.0
H711 H 1.01312 0.39141 0.52387 0.0
H712 H 0.98367 0.43373 0.6692 0.0
H713 H 0.08932 0.41803 0.59731 0.0
H714 H 0.09104 0.44027 0.53973 0.0
H715 H 0.06536 0.40255 0.52071 0.0
H716 H 0.05357 0.47064 0.77153 0.0
H717 H 1.0187 0.47166 0.74793 0.0
H718 H 0.05494 0.49366 0.7164 0.0
C719 C 0.69766 0.57162 0.51594 0.0
C720 C 0.72557 0.58966 0.4919 0.0
C721 C 0.67906 0.58206 0.54454 0.0
C722 C 0.68826 0.61116 0.54801 0.0
C723 C 0.71706 0.62969 0.52622 0.0
C724 C 0.73551 0.61875 0.49894 0.0
C725 C 0.6488 0.56166 0.56819 0.0
C726 C 0.72752 0.66076 0.52806 0.0
C727 C 0.62174 0.62758 0.5414 0.0
C728 C 0.62223 0.63812 0.60647 0.0
C729 C 0.6436 0.61946 0.52167 0.0
C730 C 0.66631 0.6215 0.56835 0.0
C731 C 0.66723 0.6325 0.6341 0.0
C732 C 0.64531 0.64091 0.65229 0.0
C733 C 0.64212 0.60836 0.45087 0.0
C734 C 0.69082 0.63469 0.6854 0.0
H735 H 0.68994 0.54914 0.5109 0.0
H736 H 0.75692 0.6328 0.47993 0.0
H737 H 0.64678 0.57019 0.61787 0.0
H738 H 0.62894 0.55899 0.53604 0.0
H739 H 0.64668 0.54048 0.56873 0.0
H740 H 0.75173 0.67279 0.51501 0.0
H741 H 0.71178 0.66311 0.49335 0.0
H742 H 0.72612 0.67038 0.57705 0.0
H743 H 0.60426 0.62584 0.50572 0.0
H744 H 0.64559 0.64887 0.70269 0.0
H745 H 0.63688 0.58597 0.44528 0.0
H746 H 0.66501 0.6207 0.43231 0.0
H747 H 0.62404 0.60944 0.42027 0.0
H748 H 0.68711 0.61321 0.68929 0.0
H749 H 0.68927 0.64474 0.73383 0.0
H750 H 0.71474 0.64719 0.67151 0.0
C751 C 0.4384 0.97871 0.62717 0.0
C752 C 0.46097 0.97819 0.66865 0.0
C753 C 0.44384 1.00365 0.60433 0.0
C754 C 0.47259 0.02881 0.62338 0.0
C755 C 0.49537 0.02857 0.66585 0.0
C756 C 0.48925 1.00327 0.68809 0.0
C757 C 0.41882 1.00303 0.55959 0.0
C758 C 0.52629 0.05497 0.68735 0.0
C759 C 0.49784 0.08621 0.51628 0.0
C760 C 0.48963 0.10517 0.55009 0.0
C761 C 0.49256 0.06138 0.5397 0.0
C762 C 0.4788 0.05532 0.59851 0.0
C763 C 0.47046 0.07432 0.63293 0.0
C764 C 0.4759 0.09893 0.60827 0.0
C765 C 0.50173 0.04161 0.5015 0.0
C766 C 0.45565 0.06859 0.69573 0.0
H767 H 0.41622 0.95961 0.61303 0.0
H768 H 0.50683 1.00297 0.71977 0.0
H769 H 0.41223 0.01883 0.58093 0.0
H770 H 0.42783 1.00892 0.51249 0.0
H771 H 0.39756 0.98184 0.55019 0.0
H772 H 0.54133 0.05137 0.7212 0.0
H773 H 0.53886 0.06251 0.64443 0.0
H774 H 0.5225 0.07217 0.71178 0.0
H775 H 0.50887 0.09094 0.4719 0.0
H776 H 0.46905 0.11316 0.63435 0.0
H777 H 0.48097 0.02034 0.48745 0.0
H778 H 0.51865 0.039 0.53206 0.0
H779 H 0.51231 0.04942 0.4568 0.0
H780 H 0.43332 0.04831 0.68721 0.0
H781 H 0.45104 0.08572 0.71721 0.0
H782 H 0.47104 0.06634 0.73157 0.0
loop_
_geom_bond_atom_site_label_1
_geom_bond_atom_site_label_2
_geom_bond_distance
_geom_bond_site_symmetry_2
_ccdc_geom_bond_type
Cu0 N1 1.999 1_455 S
Cu0 O6 1.974 . S
Cu0 N11 1.985 . S
Cu0 O20 1.959 1_455 S
N1 Cu0 1.999 1_655 S
N1 C3 1.263 . S
N1 C5 1.389 . S
N2 C3 1.358 . S
N2 C4 1.400 . S
C3 N1 1.263 . S
C3 N2 1.358 . S
C3 H9 0.930 1_655 S
C4 N2 1.400 . S
C4 C5 1.351 . S
C4 H21 0.930 . S
C5 N1 1.389 . S
C5 C4 1.351 . S
C5 H10 0.930 . S
O6 Cu0 1.974 . S
O6 C16 1.282 . S
C7 O8 1.261 1_655 S
C7 O20 1.251 . S
O8 C7 1.261 1_455 S
H9 C3 0.930 1_455 S
H10 C5 0.930 . S
N11 Cu0 1.985 . S
N11 C13 1.335 . S
N11 C14 1.390 . S
N12 C13 1.345 . S
N12 C15 1.336 . S
C13 N11 1.335 . S
C13 N12 1.345 . S
C13 H18 0.932 . S
C14 N11 1.390 . S
C14 C15 1.346 . S
C14 H19 0.930 . S
C15 N12 1.336 . S
C15 C14 1.346 . S
C15 H22 0.929 . S
C16 O6 1.282 . S
C16 O17 1.216 . S
O17 C16 1.216 . S
H18 C13 0.932 . S
H19 C14 0.930 . S
O20 Cu0 1.959 1_655 S
O20 C7 1.251 . S
H21 C4 0.930 . S
H22 C15 0.929 . S
Cu23 N24 1.999 . S
Cu23 O29 1.974 . S
Cu23 N34 1.985 . S
Cu23 O43 1.959 . S
N24 Cu23 1.999 . S
N24 C26 1.263 . S
N24 C28 1.389 . S
N25 C26 1.358 . S
N25 C27 1.400 . S
C26 N24 1.263 . S
C26 N25 1.358 . S
C26 H32 0.930 . S
C27 N25 1.400 . S
C27 C28 1.351 . S
C27 H44 0.930 . S
C28 N24 1.389 . S
C28 C27 1.351 . S
C28 H33 0.930 . S
O29 Cu23 1.974 . S
O29 C39 1.282 . S
C30 O31 1.261 1_554 S
C30 O43 1.251 . S
O31 C30 1.261 1_556 S
H32 C26 0.930 . S
H33 C28 0.930 . S
N34 Cu23 1.985 . S
N34 C36 1.335 . S
N34 C37 1.390 . S
N35 C36 1.345 . S
N35 C38 1.336 . S
C36 N34 1.335 . S
C36 N35 1.345 . S
C36 H41 0.930 . S
C37 N34 1.390 . S
C37 C38 1.346 . S
C37 H42 0.930 . S
C38 N35 1.336 . S
C38 C37 1.346 . S
C38 H45 0.929 . S
C39 O29 1.282 . S
C39 O40 1.216 . S
O40 C39 1.216 . S
H41 C36 0.930 . S
H42 C37 0.930 . S
O43 Cu23 1.959 . S
O43 C30 1.251 . S
H44 C27 0.930 . S
H45 C38 0.929 . S
Cu46 N47 1.999 1_545 S
Cu46 O52 1.974 . S
Cu46 N57 1.985 . S
Cu46 O66 1.959 1_545 S
N47 Cu46 1.999 1_565 S
N47 C49 1.263 . S
N47 C51 1.389 1_554 S
N48 C49 1.358 1_556 S
N48 C50 1.400 . S
C49 N47 1.263 . S
C49 N48 1.358 1_554 S
C49 H55 0.930 . S
C50 N48 1.400 . S
C50 C51 1.351 . S
C50 H67 0.930 . S
C51 N47 1.389 1_556 S
C51 C50 1.351 . S
C51 H56 0.930 . S
O52 Cu46 1.974 . S
O52 C62 1.282 . S
C53 O54 1.261 . S
C53 O66 1.251 . S
O54 C53 1.261 . S
H55 C49 0.930 . S
H56 C51 0.930 . S
N57 Cu46 1.985 . S
N57 C59 1.335 . S
N57 C60 1.390 . S
N58 C59 1.345 . S
N58 C61 1.336 . S
C59 N57 1.335 . S
C59 N58 1.345 . S
C59 H64 0.930 . S
C60 N57 1.390 . S
C60 C61 1.346 . S
C60 H65 0.930 . S
C61 N58 1.336 . S
C61 C60 1.346 . S
C61 H68 0.929 . S
C62 O52 1.282 . S
C62 O63 1.216 . S
O63 C62 1.216 . S
H64 C59 0.930 . S
H65 C60 0.930 . S
O66 Cu46 1.959 1_565 S
O66 C53 1.251 . S
H67 C50 0.930 . S
H68 C61 0.929 . S
Cu69 N70 1.999 . S
Cu69 O75 1.974 . S
Cu69 N80 1.985 . S
Cu69 O89 1.959 . S
N70 Cu69 1.999 . S
N70 C72 1.263 . S
N70 C74 1.389 . S
N71 C72 1.358 . S
N71 C73 1.400 . S
C72 N70 1.263 . S
C72 N71 1.358 . S
C72 H78 0.930 . S
C73 N71 1.400 . S
C73 C74 1.351 . S
C73 H90 0.930 . S
C74 N70 1.389 . S
C74 C73 1.351 . S
C74 H79 0.930 . S
O75 Cu69 1.974 . S
O75 C85 1.282 . S
C76 O77 1.261 . S
C76 O89 1.251 . S
O77 C76 1.261 . S
H78 C72 0.930 . S
H79 C74 0.930 . S
N80 Cu69 1.985 . S
N80 C82 1.335 . S
N80 C83 1.390 . S
N81 C82 1.345 . S
N81 C84 1.336 . S
C82 N80 1.335 . S
C82 N81 1.345 . S
C82 H87 0.930 . S
C83 N80 1.390 . S
C83 C84 1.346 . S
C83 H88 0.930 . S
C84 N81 1.336 . S
C84 C83 1.346 . S
C84 H91 0.929 . S
C85 O75 1.282 . S
C85 O86 1.216 . S
O86 C85 1.216 . S
H87 C82 0.930 . S
H88 C83 0.930 . S
O89 Cu69 1.959 . S
O89 C76 1.251 . S
H90 C73 0.930 . S
H91 C84 0.929 . S
Cu92 N93 1.999 . S
Cu92 O98 1.974 . S
Cu92 N103 1.985 . S
Cu92 O112 1.959 . S
N93 Cu92 1.999 . S
N93 C95 1.263 . S
N93 C97 1.389 . S
N94 C95 1.358 . S
N94 C96 1.400 . S
C95 N93 1.263 . S
C95 N94 1.358 . S
C95 H101 0.930 . S
C96 N94 1.400 . S
C96 C97 1.351 . S
C96 H113 0.930 . S
C97 N93 1.389 . S
C97 C96 1.351 . S
C97 H102 0.930 . S
O98 Cu92 1.974 . S
O98 C108 1.282 . S
C99 O100 1.261 . S
C99 O112 1.251 . S
O100 C99 1.261 . S
H101 C95 0.930 . S
H102 C97 0.930 . S
N103 Cu92 1.985 . S
N103 C105 1.335 . S
N103 C106 1.390 . S
N104 C105 1.345 . S
N104 C107 1.336 . S
C105 N103 1.335 . S
C105 N104 1.345 . S
C105 H110 0.930 . S
C106 N103 1.390 . S
C106 C107 1.346 . S
C106 H111 0.930 . S
C107 N104 1.336 . S
C107 C106 1.346 . S
C107 H114 0.929 . S
C108 O98 1.282 . S
C108 O109 1.216 . S
O109 C108 1.216 . S
H110 C105 0.930 . S
H111 C106 0.930 . S
O112 Cu92 1.959 . S
O112 C99 1.251 . S
H113 C96 0.930 . S
H114 C107 0.929 . S
Cu115 N116 1.999 . S
Cu115 O121 1.974 . S
Cu115 N126 1.985 . S
Cu115 O135 1.959 . S
N116 Cu115 1.999 . S
N116 C118 1.263 . S
N116 C120 1.389 . S
N117 C118 1.358 . S
N117 C119 1.400 . S
C118 N116 1.263 . S
C118 N117 1.358 . S
C118 H124 0.930 . S
C119 N117 1.400 . S
C119 C120 1.351 . S
C119 H136 0.930 . S
C120 N116 1.389 . S
C120 C119 1.351 . S
C120 H125 0.930 . S
O121 Cu115 1.974 . S
O121 C131 1.282 . S
C122 O123 1.261 . S
C122 O135 1.251 . S
O123 C122 1.261 . S
H124 C118 0.930 . S
H125 C120 0.930 . S
N126 Cu115 1.985 . S
N126 C128 1.335 . S
N126 C129 1.390 . S
N127 C128 1.345 . S
N127 C130 1.336 . S
C128 N126 1.335 . S
C128 N127 1.345 . S
C128 H133 0.930 . S
C129 N126 1.390 . S
C129 C130 1.346 . S
C129 H134 0.930 . S
C130 N127 1.336 . S
C130 C129 1.346 . S
C130 H137 0.929 . S
C131 O121 1.282 . S
C131 O132 1.216 . S
O132 C131 1.216 . S
H133 C128 0.930 . S
H134 C129 0.930 . S
O135 Cu115 1.959 . S
O135 C122 1.251 . S
H136 C119 0.930 . S
H137 C130 0.929 . S
Cu138 N139 1.999 . S
Cu138 O144 1.974 . S
Cu138 N149 1.985 . S
Cu138 O158 1.959 . S
N139 Cu138 1.999 . S
N139 C141 1.263 . S
N139 C143 1.389 . S
N140 C141 1.358 . S
N140 C142 1.400 . S
C141 N139 1.263 . S
C141 N140 1.358 . S
C141 H147 0.930 . S
C142 N140 1.400 . S
C142 C143 1.351 . S
C142 H159 0.930 . S
C143 N139 1.389 . S
C143 C142 1.351 . S
C143 H148 0.930 . S
O144 Cu138 1.974 . S
O144 C154 1.282 . S
C145 O146 1.261 . S
C145 O158 1.251 . S
O146 C145 1.261 . S
H147 C141 0.930 . S
H148 C143 0.930 . S
N149 Cu138 1.985 . S
N149 C151 1.335 . S
N149 C152 1.390 . S
N150 C151 1.345 . S
N150 C153 1.336 . S
C151 N149 1.335 . S
C151 N150 1.345 . S
C151 H156 0.930 . S
C152 N149 1.390 . S
C152 C153 1.346 . S
C152 H157 0.930 . S
C153 N150 1.336 . S
C153 C152 1.346 . S
C153 H160 0.929 . S
C154 O144 1.282 . S
C154 O155 1.216 . S
O155 C154 1.216 . S
H156 C151 0.930 . S
H157 C152 0.930 . S
O158 Cu138 1.959 . S
O158 C145 1.251 . S
H159 C142 0.930 . S
H160 C153 0.929 . S
Cu161 N162 1.999 . S
Cu161 O167 1.974 . S
Cu161 N172 1.985 . S
Cu161 O181 1.959 . S
N162 Cu161 1.999 . S
N162 C164 1.263 . S
N162 C166 1.389 . S
N163 C164 1.358 . S
N163 C165 1.400 . S
C164 N162 1.263 . S
C164 N163 1.358 . S
C164 H170 0.930 . S
C165 N163 1.400 . S
C165 C166 1.351 . S
C165 H182 0.930 . S
C166 N162 1.389 . S
C166 C165 1.351 . S
C166 H171 0.930 . S
O167 Cu161 1.974 . S
O167 C177 1.282 . S
C168 O169 1.261 . S
C168 O181 1.251 . S
O169 C168 1.261 . S
H170 C164 0.930 . S
H171 C166 0.930 . S
N172 Cu161 1.985 . S
N172 C174 1.335 . S
N172 C175 1.390 . S
N173 C174 1.345 . S
N173 C176 1.336 . S
C174 N172 1.335 . S
C174 N173 1.345 . S
C174 H179 0.930 . S
C175 N172 1.390 . S
C175 C176 1.346 . S
C175 H180 0.930 . S
C176 N173 1.336 . S
C176 C175 1.346 . S
C176 H183 0.929 . S
C177 O167 1.282 . S
C177 O178 1.216 . S
O178 C177 1.216 . S
H179 C174 0.930 . S
H180 C175 0.930 . S
O181 Cu161 1.959 . S
O181 C168 1.251 . S
H182 C165 0.930 . S
H183 C176 0.929 . S
Cu184 N185 1.999 . S
Cu184 O190 1.974 . S
Cu184 N195 1.985 . S
Cu184 O204 1.959 . S
N185 Cu184 1.999 . S
N185 C187 1.263 . S
N185 C189 1.389 . S
N186 C187 1.358 . S
N186 C188 1.400 . S
C187 N185 1.263 . S
C187 N186 1.358 . S
C187 H193 0.930 . S
C188 N186 1.400 . S
C188 C189 1.351 . S
C188 H205 0.930 . S
C189 N185 1.389 . S
C189 C188 1.351 . S
C189 H194 0.930 . S
O190 Cu184 1.974 . S
O190 C200 1.282 . S
C191 O192 1.261 . S
C191 O204 1.251 . S
O192 C191 1.261 . S
H193 C187 0.930 . S
H194 C189 0.930 . S
N195 Cu184 1.985 . S
N195 C197 1.335 . S
N195 C198 1.390 . S
N196 C197 1.345 . S
N196 C199 1.336 . S
C197 N195 1.335 . S
C197 N196 1.345 . S
C197 H202 0.930 . S
C198 N195 1.390 . S
C198 C199 1.346 . S
C198 H203 0.930 . S
C199 N196 1.336 . S
C199 C198 1.346 . S
C199 H206 0.929 . S
C200 O190 1.282 . S
C200 O201 1.216 . S
O201 C200 1.216 . S
H202 C197 0.930 . S
H203 C198 0.930 . S
O204 Cu184 1.959 . S
O204 C191 1.251 . S
H205 C188 0.930 . S
H206 C199 0.929 . S
C207 C208 1.391 . S
C207 C209 1.394 . S
C207 H223 0.931 . S
C208 C207 1.391 . S
C208 C212 1.376 . S
C209 C207 1.394 . S
C209 C210 1.369 . S
C209 C213 1.531 . S
C210 C209 1.369 . S
C210 C211 1.410 . S
C210 C218 1.503 . S
C211 C210 1.410 . S
C211 C212 1.392 . S
C211 C214 1.511 . S
C212 C208 1.376 . S
C212 C211 1.392 . S
C212 H224 0.929 . S
C213 C209 1.531 . S
C213 H225 0.960 . S
C213 H226 0.962 . S
C213 H227 0.960 . S
C214 C211 1.511 . S
C214 H228 0.961 . S
C214 H229 0.961 . S
C214 H230 0.961 . S
C215 C216 1.370 . S
C215 C217 1.363 . S
C215 H231 0.931 1_554 S
C216 C215 1.370 . S
C216 C220 1.408 . S
C217 C215 1.363 . S
C217 C218 1.370 . S
C217 C221 1.524 1_554 S
C218 C210 1.503 . S
C218 C217 1.370 . S
C218 C219 1.403 . S
C219 C218 1.403 . S
C219 C220 1.404 . S
C219 C222 1.539 . S
C220 C216 1.408 . S
C220 C219 1.404 . S
C220 H232 0.930 . S
C221 C217 1.524 1_556 S
C221 H233 0.956 . S
C221 H234 0.961 . S
C221 H235 0.961 . S
C222 C219 1.539 . S
C222 H236 0.958 . S
C222 H237 0.961 . S
C222 H238 0.960 . S
H223 C207 0.931 . S
H224 C212 0.929 . S
H225 C213 0.960 . S
H226 C213 0.962 . S
H227 C213 0.960 . S
H228 C214 0.961 . S
H229 C214 0.961 . S
H230 C214 0.961 . S
H231 C215 0.931 1_556 S
H232 C220 0.930 . S
H233 C221 0.956 . S
H234 C221 0.961 . S
H235 C221 0.961 . S
H236 C222 0.958 . S
H237 C222 0.961 . S
H238 C222 0.960 . S
C239 C240 1.391 . S
C239 C241 1.394 . S
C239 H255 0.931 1_554 S
C240 C239 1.391 . S
C240 C244 1.376 . S
C241 C239 1.394 . S
C241 C242 1.350 1_565 S
C241 C245 1.531 1_564 S
C242 C241 1.350 1_545 S
C242 C243 1.404 1_545 S
C242 C250 1.528 . S
C243 C242 1.404 1_565 S
C243 C244 1.392 . S
C243 C246 1.511 . S
C244 C240 1.376 . S
C244 C243 1.392 . S
C244 H256 0.929 . S
C245 C241 1.531 1_546 S
C245 H257 0.960 . S
C245 H258 0.962 1_556 S
C245 H259 0.960 1_545 S
C246 C243 1.511 . S
C246 H260 0.961 . S
C246 H261 0.961 1_565 S
C246 H262 0.961 . S
C247 C248 1.370 . S
C247 C249 1.363 . S
C247 H263 0.931 . S
C248 C247 1.370 . S
C248 C252 1.408 . S
C249 C247 1.363 . S
C249 C250 1.370 . S
C249 C253 1.524 . S
C250 C242 1.528 . S
C250 C249 1.370 . S
C250 C251 1.403 . S
C251 C250 1.403 . S
C251 C252 1.404 . S
C251 C254 1.539 1_554 S
C252 C248 1.408 . S
C252 C251 1.404 . S
C252 H264 0.930 1_554 S
C253 C249 1.524 . S
C253 H265 0.956 . S
C253 H266 0.961 . S
C253 H267 0.961 . S
C254 C251 1.539 1_556 S
C254 H268 0.958 . S
C254 H269 0.961 . S
C254 H270 0.960 . S
H255 C239 0.931 1_556 S
H256 C244 0.929 . S
H257 C245 0.960 . S
H258 C245 0.962 1_554 S
H259 C245 0.960 1_565 S
H260 C246 0.961 . S
H261 C246 0.961 1_545 S
H262 C246 0.961 . S
H263 C247 0.931 . S
H264 C252 0.930 1_556 S
H265 C253 0.956 . S
H266 C253 0.961 . S
H267 C253 0.961 . S
H268 C254 0.958 . S
H269 C254 0.961 . S
H270 C254 0.960 . S
C271 C272 1.391 . S
C271 C273 1.403 . S
C271 H287 0.931 . S
C272 C271 1.391 . S
C272 C276 1.376 . S
C273 C271 1.403 . S
C273 C274 1.368 1_655 S
C273 C277 1.521 1_655 S
C274 C273 1.368 1_455 S
C274 C275 1.410 1_455 S
C274 C282 1.503 . S
C275 C274 1.410 1_655 S
C275 C276 1.392 . S
C275 C278 1.511 1_554 S
C276 C272 1.376 . S
C276 C275 1.392 . S
C276 H288 0.929 . S
C277 C273 1.521 1_455 S
C277 H289 0.960 . S
C277 H290 0.962 . S
C277 H291 0.960 . S
C278 C275 1.511 1_556 S
C278 H292 0.961 . S
C278 H293 0.961 1_655 S
C278 H294 0.976 . S
C279 C280 1.370 . S
C279 C281 1.363 . S
C279 H295 0.931 . S
C280 C279 1.370 . S
C280 C284 1.408 . S
C281 C279 1.363 . S
C281 C282 1.370 . S
C281 C285 1.524 . S
C282 C274 1.503 . S
C282 C281 1.370 . S
C282 C283 1.403 . S
C283 C282 1.403 . S
C283 C284 1.404 . S
C283 C286 1.539 1_554 S
C284 C280 1.408 . S
C284 C283 1.404 . S
C284 H296 0.930 1_554 S
C285 C281 1.524 . S
C285 H297 0.956 . S
C285 H298 0.961 . S
C285 H299 0.961 . S
C286 C283 1.539 1_556 S
C286 H300 0.958 . S
C286 H301 0.961 . S
C286 H302 0.960 . S
H287 C271 0.931 . S
H288 C276 0.929 . S
H289 C277 0.960 . S
H290 C277 0.962 . S
H291 C277 0.960 . S
H292 C278 0.961 . S
H293 C278 0.961 1_455 S
H294 C278 0.976 . S
H295 C279 0.931 . S
H296 C284 0.930 1_556 S
H297 C285 0.956 . S
H298 C285 0.961 . S
H299 C285 0.961 . S
H300 C286 0.958 . S
H301 C286 0.961 . S
H302 C286 0.960 . S
C303 C304 1.391 . S
C303 C305 1.394 . S
C303 H319 0.931 . S
C304 C303 1.391 . S
C304 C308 1.376 . S
C305 C303 1.394 . S
C305 C306 1.369 . S
C305 C309 1.531 . S
C306 C305 1.369 . S
C306 C307 1.410 . S
C306 C314 1.503 . S
C307 C306 1.410 . S
C307 C308 1.392 . S
C307 C310 1.511 . S
C308 C304 1.376 . S
C308 C307 1.392 . S
C308 H320 0.929 . S
C309 C305 1.531 . S
C309 H321 0.960 . S
C309 H322 0.962 . S
C309 H323 0.960 . S
C310 C307 1.511 . S
C310 H324 0.961 . S
C310 H325 0.961 . S
C310 H326 0.961 . S
C311 C312 1.370 . S
C311 C313 1.363 . S
C311 H327 0.931 . S
C312 C311 1.370 . S
C312 C316 1.408 . S
C313 C311 1.363 . S
C313 C314 1.370 . S
C313 C317 1.524 . S
C314 C306 1.503 . S
C314 C313 1.370 . S
C314 C315 1.403 . S
C315 C314 1.403 . S
C315 C316 1.404 . S
C315 C318 1.539 . S
C316 C312 1.408 . S
C316 C315 1.404 . S
C316 H328 0.930 . S
C317 C313 1.524 . S
C317 H329 0.956 . S
C317 H330 0.961 . S
C317 H331 0.961 . S
C318 C315 1.539 . S
C318 H332 0.958 . S
C318 H333 0.961 . S
C318 H334 0.960 . S
H319 C303 0.931 . S
H320 C308 0.929 . S
H321 C309 0.960 . S
H322 C309 0.962 . S
H323 C309 0.960 . S
H324 C310 0.961 . S
H325 C310 0.961 . S
H326 C310 0.961 . S
H327 C311 0.931 . S
H328 C316 0.930 . S
H329 C317 0.956 . S
H330 C317 0.961 . S
H331 C317 0.961 . S
H332 C318 0.958 . S
H333 C318 0.961 . S
H334 C318 0.960 . S
C335 C336 1.391 . S
C335 C337 1.394 . S
C335 H351 0.931 . S
C336 C335 1.391 . S
C336 C340 1.376 . S
C337 C335 1.394 . S
C337 C338 1.369 . S
C337 C341 1.531 . S
C338 C337 1.369 . S
C338 C339 1.410 . S
C338 C346 1.503 . S
C339 C338 1.410 . S
C339 C340 1.392 . S
C339 C342 1.511 . S
C340 C336 1.376 . S
C340 C339 1.392 . S
C340 H352 0.929 . S
C341 C337 1.531 . S
C341 H353 0.960 . S
C341 H354 0.962 . S
C341 H355 0.960 . S
C342 C339 1.511 . S
C342 H356 0.961 . S
C342 H357 0.961 . S
C342 H358 0.961 . S
C343 C344 1.370 . S
C343 C345 1.363 . S
C343 H359 0.931 . S
C344 C343 1.370 . S
C344 C348 1.408 . S
C345 C343 1.363 . S
C345 C346 1.370 . S
C345 C349 1.524 . S
C346 C338 1.503 . S
C346 C345 1.370 . S
C346 C347 1.403 . S
C347 C346 1.403 . S
C347 C348 1.404 . S
C347 C350 1.539 . S
C348 C344 1.408 . S
C348 C347 1.404 . S
C348 H360 0.930 . S
C349 C345 1.524 . S
C349 H361 0.956 . S
C349 H362 0.961 . S
C349 H363 0.961 . S
C350 C347 1.539 . S
C350 H364 0.958 . S
C350 H365 0.961 . S
C350 H366 0.960 . S
H351 C335 0.931 . S
H352 C340 0.929 . S
H353 C341 0.960 . S
H354 C341 0.962 . S
H355 C341 0.960 . S
H356 C342 0.961 . S
H357 C342 0.961 . S
H358 C342 0.961 . S
H359 C343 0.931 . S
H360 C348 0.930 . S
H361 C349 0.956 . S
H362 C349 0.961 . S
H363 C349 0.961 . S
H364 C350 0.958 . S
H365 C350 0.961 . S
H366 C350 0.960 . S
C367 C368 1.391 . S
C367 C369 1.394 . S
C367 H383 0.931 . S
C368 C367 1.391 . S
C368 C372 1.376 . S
C369 C367 1.394 . S
C369 C370 1.369 . S
C369 C373 1.531 . S
C370 C369 1.369 . S
C370 C371 1.410 . S
C370 C378 1.503 . S
C371 C370 1.410 . S
C371 C372 1.392 . S
C371 C374 1.511 . S
C372 C368 1.376 . S
C372 C371 1.392 . S
C372 H384 0.929 . S
C373 C369 1.531 . S
C373 H385 0.960 . S
C373 H386 0.962 . S
C373 H387 0.960 . S
C374 C371 1.511 . S
C374 H388 0.961 . S
C374 H389 0.961 . S
C374 H390 0.961 . S
C375 C376 1.370 . S
C375 C377 1.363 . S
C375 H391 0.931 . S
C376 C375 1.370 . S
C376 C380 1.408 . S
C377 C375 1.363 . S
C377 C378 1.370 . S
C377 C381 1.524 . S
C378 C370 1.503 . S
C378 C377 1.370 . S
C378 C379 1.403 . S
C379 C378 1.403 . S
C379 C380 1.404 . S
C379 C382 1.539 . S
C380 C376 1.408 . S
C380 C379 1.404 . S
C380 H392 0.930 . S
C381 C377 1.524 . S
C381 H393 0.956 . S
C381 H394 0.961 . S
C381 H395 0.961 . S
C382 C379 1.539 . S
C382 H396 0.958 . S
C382 H397 0.961 . S
C382 H398 0.960 . S
H383 C367 0.931 . S
H384 C372 0.929 . S
H385 C373 0.960 . S
H386 C373 0.962 . S
H387 C373 0.960 . S
H388 C374 0.961 . S
H389 C374 0.961 . S
H390 C374 0.961 . S
H391 C375 0.931 . S
H392 C380 0.930 . S
H393 C381 0.956 . S
H394 C381 0.961 . S
H395 C381 0.961 . S
H396 C382 0.958 . S
H397 C382 0.961 . S
H398 C382 0.960 . S
C399 C400 1.391 . S
C399 C401 1.394 . S
C399 H415 0.931 . S
C400 C399 1.391 . S
C400 C404 1.376 . S
C401 C399 1.394 . S
C401 C402 1.369 . S
C401 C405 1.531 . S
C402 C401 1.369 . S
C402 C403 1.410 . S
C402 C410 1.503 . S
C403 C402 1.410 . S
C403 C404 1.392 . S
C403 C406 1.511 . S
C404 C400 1.376 . S
C404 C403 1.392 . S
C404 H416 0.929 . S
C405 C401 1.531 . S
C405 H417 0.960 . S
C405 H418 0.962 . S
C405 H419 0.960 . S
C406 C403 1.511 . S
C406 H420 0.961 . S
C406 H421 0.961 . S
C406 H422 0.961 . S
C407 C408 1.370 . S
C407 C409 1.363 . S
C407 H423 0.931 . S
C408 C407 1.370 . S
C408 C412 1.408 . S
C409 C407 1.363 . S
C409 C410 1.370 . S
C409 C413 1.524 . S
C410 C402 1.503 . S
C410 C409 1.370 . S
C410 C411 1.403 . S
C411 C410 1.403 . S
C411 C412 1.404 . S
C411 C414 1.539 . S
C412 C408 1.408 . S
C412 C411 1.404 . S
C412 H424 0.930 . S
C413 C409 1.524 . S
C413 H425 0.956 . S
C413 H426 0.961 . S
C413 H427 0.961 . S
C414 C411 1.539 . S
C414 H428 0.958 . S
C414 H429 0.961 . S
C414 H430 0.960 . S
H415 C399 0.931 . S
H416 C404 0.929 . S
H417 C405 0.960 . S
H418 C405 0.962 . S
H419 C405 0.960 . S
H420 C406 0.961 . S
H421 C406 0.961 . S
H422 C406 0.961 . S
H423 C407 0.931 . S
H424 C412 0.930 . S
H425 C413 0.956 . S
H426 C413 0.961 . S
H427 C413 0.961 . S
H428 C414 0.958 . S
H429 C414 0.961 . S
H430 C414 0.960 . S
C431 C432 1.391 . S
C431 C433 1.394 . S
C431 H447 0.931 . S
C432 C431 1.391 . S
C432 C436 1.376 . S
C433 C431 1.394 . S
C433 C434 1.369 . S
C433 C437 1.531 . S
C434 C433 1.369 . S
C434 C435 1.410 . S
C434 C442 1.503 . S
C435 C434 1.410 . S
C435 C436 1.392 . S
C435 C438 1.511 . S
C436 C432 1.376 . S
C436 C435 1.392 . S
C436 H448 0.929 . S
C437 C433 1.531 . S
C437 H449 0.960 . S
C437 H450 0.962 . S
C437 H451 0.960 . S
C438 C435 1.511 . S
C438 H452 0.961 . S
C438 H453 0.961 . S
C438 H454 0.961 . S
C439 C440 1.370 . S
C439 C441 1.363 . S
C439 H455 0.931 . S
C440 C439 1.370 . S
C440 C444 1.408 . S
C441 C439 1.363 . S
C441 C442 1.370 . S
C441 C445 1.524 . S
C442 C434 1.503 . S
C442 C441 1.370 . S
C442 C443 1.403 . S
C443 C442 1.403 . S
C443 C444 1.404 . S
C443 C446 1.539 . S
C444 C440 1.408 . S
C444 C443 1.404 . S
C444 H456 0.930 . S
C445 C441 1.524 . S
C445 H457 0.956 . S
C445 H458 0.961 . S
C445 H459 0.961 . S
C446 C443 1.539 . S
C446 H460 0.958 . S
C446 H461 0.961 . S
C446 H462 0.960 . S
H447 C431 0.931 . S
H448 C436 0.929 . S
H449 C437 0.960 . S
H450 C437 0.962 . S
H451 C437 0.960 . S
H452 C438 0.961 . S
H453 C438 0.961 . S
H454 C438 0.961 . S
H455 C439 0.931 . S
H456 C444 0.930 . S
H457 C445 0.956 . S
H458 C445 0.961 . S
H459 C445 0.961 . S
H460 C446 0.958 . S
H461 C446 0.961 . S
H462 C446 0.960 . S
C463 C464 1.391 . S
C463 C465 1.394 . S
C463 H479 0.931 . S
C464 C463 1.391 . S
C464 C468 1.376 . S
C465 C463 1.394 . S
C465 C466 1.369 . S
C465 C469 1.531 . S
C466 C465 1.369 . S
C466 C467 1.410 . S
C466 C474 1.503 . S
C467 C466 1.410 . S
C467 C468 1.392 . S
C467 C470 1.511 . S
C468 C464 1.376 . S
C468 C467 1.392 . S
C468 H480 0.929 . S
C469 C465 1.531 . S
C469 H481 0.960 . S
C469 H482 0.962 . S
C469 H483 0.960 . S
C470 C467 1.511 . S
C470 H484 0.961 . S
C470 H485 0.961 . S
C470 H486 0.961 . S
C471 C472 1.370 . S
C471 C473 1.363 . S
C471 H487 0.931 . S
C472 C471 1.370 . S
C472 C476 1.408 . S
C473 C471 1.363 . S
C473 C474 1.370 . S
C473 C477 1.524 . S
C474 C466 1.503 . S
C474 C473 1.370 . S
C474 C475 1.403 . S
C475 C474 1.403 . S
C475 C476 1.404 . S
C475 C478 1.539 . S
C476 C472 1.408 . S
C476 C475 1.404 . S
C476 H488 0.930 . S
C477 C473 1.524 . S
C477 H489 0.956 . S
C477 H490 0.961 . S
C477 H491 0.961 . S
C478 C475 1.539 . S
C478 H492 0.958 . S
C478 H493 0.961 . S
C478 H494 0.960 . S
H479 C463 0.931 . S
H480 C468 0.929 . S
H481 C469 0.960 . S
H482 C469 0.962 . S
H483 C469 0.960 . S
H484 C470 0.961 . S
H485 C470 0.961 . S
H486 C470 0.961 . S
H487 C471 0.931 . S
H488 C476 0.930 . S
H489 C477 0.956 . S
H490 C477 0.961 . S
H491 C477 0.961 . S
H492 C478 0.958 . S
H493 C478 0.961 . S
H494 C478 0.960 . S
C495 C496 1.391 . S
C495 C497 1.394 . S
C495 H511 0.931 . S
C496 C495 1.391 . S
C496 C500 1.376 . S
C497 C495 1.394 . S
C497 C498 1.369 . S
C497 C501 1.531 . S
C498 C497 1.369 . S
C498 C499 1.410 . S
C498 C506 1.503 . S
C499 C498 1.410 . S
C499 C500 1.392 . S
C499 C502 1.511 . S
C500 C496 1.376 . S
C500 C499 1.392 . S
C500 H512 0.929 1_556 S
C501 C497 1.531 . S
C501 H513 0.960 . S
C501 H514 0.962 . S
C501 H515 0.960 . S
C502 C499 1.511 . S
C502 H516 0.961 . S
C502 H517 0.961 . S
C502 H518 0.961 . S
C503 C504 1.370 . S
C503 C505 1.363 . S
C503 H519 0.931 . S
C504 C503 1.370 . S
C504 C508 1.408 . S
C505 C503 1.363 . S
C505 C506 1.370 . S
C505 C509 1.524 . S
C506 C498 1.503 . S
C506 C505 1.370 . S
C506 C507 1.403 . S
C507 C506 1.403 . S
C507 C508 1.404 . S
C507 C510 1.539 . S
C508 C504 1.408 . S
C508 C507 1.404 . S
C508 H520 0.930 . S
C509 C505 1.524 . S
C509 H521 0.956 . S
C509 H522 0.961 1_556 S
C509 H523 0.961 1_556 S
C510 C507 1.539 . S
C510 H524 0.958 . S
C510 H525 0.961 . S
C510 H526 0.960 . S
H511 C495 0.931 . S
H512 C500 0.929 1_554 S
H513 C501 0.960 . S
H514 C501 0.962 . S
H515 C501 0.960 . S
H516 C502 0.961 . S
H517 C502 0.961 . S
H518 C502 0.961 . S
H519 C503 0.931 . S
H520 C508 0.930 . S
H521 C509 0.956 . S
H522 C509 0.961 1_554 S
H523 C509 0.961 1_554 S
H524 C510 0.958 . S
H525 C510 0.961 . S
H526 C510 0.960 . S
C527 C528 1.391 1_554 S
C527 C529 1.394 1_554 S
C527 H543 0.931 . S
C528 C527 1.391 1_556 S
C528 C532 1.376 . S
C529 C527 1.394 1_556 S
C529 C530 1.369 . S
C529 C533 1.531 1_556 S
C530 C529 1.369 . S
C530 C531 1.410 . S
C530 C538 1.503 . S
C531 C530 1.410 . S
C531 C532 1.392 . S
C531 C534 1.511 . S
C532 C528 1.376 . S
C532 C531 1.392 . S
C532 H544 0.929 . S
C533 C529 1.531 1_554 S
C533 H545 0.960 1_554 S
C533 H546 0.962 . S
C533 H547 0.960 . S
C534 C531 1.511 . S
C534 H548 0.961 . S
C534 H549 0.961 . S
C534 H550 0.961 . S
C535 C536 1.370 . S
C535 C537 1.363 . S
C535 H551 0.931 . S
C536 C535 1.370 . S
C536 C540 1.408 . S
C537 C535 1.363 . S
C537 C538 1.370 . S
C537 C541 1.524 . S
C538 C530 1.503 . S
C538 C537 1.370 . S
C538 C539 1.403 . S
C539 C538 1.403 . S
C539 C540 1.404 . S
C539 C542 1.539 . S
C540 C536 1.408 . S
C540 C539 1.404 . S
C540 H552 0.930 . S
C541 C537 1.524 . S
C541 H553 0.956 . S
C541 H554 0.961 . S
C541 H555 0.961 . S
C542 C539 1.539 . S
C542 H556 0.958 . S
C542 H557 0.961 . S
C542 H558 0.960 . S
H543 C527 0.931 . S
H544 C532 0.929 . S
H545 C533 0.960 1_556 S
H546 C533 0.962 . S
H547 C533 0.960 . S
H548 C534 0.961 . S
H549 C534 0.961 . S
H550 C534 0.961 . S
H551 C535 0.931 . S
H552 C540 0.930 . S
H553 C541 0.956 . S
H554 C541 0.961 . S
H555 C541 0.961 . S
H556 C542 0.958 . S
H557 C542 0.961 . S
H558 C542 0.960 . S
C559 C560 1.391 . S
C559 C561 1.394 . S
C559 H575 0.931 . S
C560 C559 1.391 . S
C560 C564 1.376 . S
C561 C559 1.394 . S
C561 C562 1.369 . S
C561 C565 1.531 . S
C562 C561 1.369 . S
C562 C563 1.410 . S
C562 C570 1.503 . S
C563 C562 1.410 . S
C563 C564 1.392 . S
C563 C566 1.511 . S
C564 C560 1.376 . S
C564 C563 1.392 . S
C564 H576 0.929 . S
C565 C561 1.531 . S
C565 H577 0.960 . S
C565 H578 0.962 . S
C565 H579 0.960 . S
C566 C563 1.511 . S
C566 H580 0.961 . S
C566 H581 0.961 . S
C566 H582 0.961 . S
C567 C568 1.370 . S
C567 C569 1.363 . S
C567 H583 0.931 1_556 S
C568 C567 1.370 . S
C568 C572 1.408 . S
C569 C567 1.363 . S
C569 C570 1.370 . S
C569 C573 1.524 . S
C570 C562 1.503 . S
C570 C569 1.370 . S
C570 C571 1.403 . S
C571 C570 1.403 . S
C571 C572 1.404 . S
C571 C574 1.539 . S
C572 C568 1.408 . S
C572 C571 1.404 . S
C572 H584 0.930 . S
C573 C569 1.524 . S
C573 H585 0.956 . S
C573 H586 0.961 . S
C573 H587 0.961 . S
C574 C571 1.539 . S
C574 H588 0.958 . S
C574 H589 0.961 . S
C574 H590 0.960 . S
H575 C559 0.931 . S
H576 C564 0.929 . S
H577 C565 0.960 . S
H578 C565 0.962 . S
H579 C565 0.960 . S
H580 C566 0.961 . S
H581 C566 0.961 . S
H582 C566 0.961 . S
H583 C567 0.931 1_554 S
H584 C572 0.930 . S
H585 C573 0.956 . S
H586 C573 0.961 . S
H587 C573 0.961 . S
H588 C574 0.958 . S
H589 C574 0.961 . S
H590 C574 0.960 . S
C591 C592 1.391 . S
C591 C593 1.394 . S
C591 H607 0.931 . S
C592 C591 1.391 . S
C592 C596 1.376 . S
C593 C591 1.394 . S
C593 C594 1.369 . S
C593 C597 1.531 . S
C594 C593 1.369 . S
C594 C595 1.410 . S
C594 C602 1.503 . S
C595 C594 1.410 . S
C595 C596 1.392 . S
C595 C598 1.511 . S
C596 C592 1.376 . S
C596 C595 1.392 . S
C596 H608 0.929 . S
C597 C593 1.531 . S
C597 H609 0.960 . S
C597 H610 0.962 . S
C597 H611 0.960 . S
C598 C595 1.511 . S
C598 H612 0.961 . S
C598 H613 0.961 . S
C598 H614 0.961 . S
C599 C600 1.370 . S
C599 C601 1.363 . S
C599 H615 0.931 . S
C600 C599 1.370 . S
C600 C604 1.408 . S
C601 C599 1.363 . S
C601 C602 1.370 . S
C601 C605 1.524 . S
C602 C594 1.503 . S
C602 C601 1.370 . S
C602 C603 1.403 . S
C603 C602 1.403 . S
C603 C604 1.404 . S
C603 C606 1.539 . S
C604 C600 1.408 . S
C604 C603 1.404 . S
C604 H616 0.930 . S
C605 C601 1.524 . S
C605 H617 0.956 . S
C605 H618 0.961 . S
C605 H619 0.961 . S
C606 C603 1.539 . S
C606 H620 0.958 . S
C606 H621 0.961 . S
C606 H622 0.960 . S
H607 C591 0.931 . S
H608 C596 0.929 . S
H609 C597 0.960 . S
H610 C597 0.962 . S
H611 C597 0.960 . S
H612 C598 0.961 . S
H613 C598 0.961 . S
H614 C598 0.961 . S
H615 C599 0.931 . S
H616 C604 0.930 . S
H617 C605 0.956 . S
H618 C605 0.961 . S
H619 C605 0.961 . S
H620 C606 0.958 . S
H621 C606 0.961 . S
H622 C606 0.960 . S
C623 C624 1.391 . S
C623 C625 1.394 . S
C623 H639 0.931 1_655 S
C624 C623 1.391 . S
C624 C628 1.376 . S
C625 C623 1.394 . S
C625 C626 1.369 . S
C625 C629 1.531 . S
C626 C625 1.369 . S
C626 C627 1.410 . S
C626 C634 1.503 . S
C627 C626 1.410 . S
C627 C628 1.392 . S
C627 C630 1.511 . S
C628 C624 1.376 . S
C628 C627 1.392 . S
C628 H640 0.929 . S
C629 C625 1.531 . S
C629 H641 0.960 . S
C629 H642 0.962 . S
C629 H643 0.960 . S
C630 C627 1.511 . S
C630 H644 0.961 . S
C630 H645 0.961 . S
C630 H646 0.961 . S
C631 C632 1.370 . S
C631 C633 1.363 . S
C631 H647 0.931 . S
C632 C631 1.370 . S
C632 C636 1.408 . S
C633 C631 1.363 . S
C633 C634 1.370 . S
C633 C637 1.524 . S
C634 C626 1.503 . S
C634 C633 1.370 . S
C634 C635 1.403 . S
C635 C634 1.403 . S
C635 C636 1.404 . S
C635 C638 1.539 . S
C636 C632 1.408 . S
C636 C635 1.404 . S
C636 H648 0.930 . S
C637 C633 1.524 . S
C637 H649 0.956 . S
C637 H650 0.961 . S
C637 H651 0.961 . S
C638 C635 1.539 . S
C638 H652 0.958 . S
C638 H653 0.961 . S
C638 H654 0.960 . S
H639 C623 0.931 1_455 S
H640 C628 0.929 . S
H641 C629 0.960 . S
H642 C629 0.962 . S
H643 C629 0.960 . S
H644 C630 0.961 . S
H645 C630 0.961 . S
H646 C630 0.961 . S
H647 C631 0.931 . S
H648 C636 0.930 . S
H649 C637 0.956 . S
H650 C637 0.961 . S
H651 C637 0.961 . S
H652 C638 0.958 . S
H653 C638 0.961 . S
H654 C638 0.960 . S
C655 C656 1.391 . S
C655 C657 1.394 . S
C655 H671 0.931 . S
C656 C655 1.391 . S
C656 C660 1.376 . S
C657 C655 1.394 . S
C657 C658 1.369 . S
C657 C661 1.531 . S
C658 C657 1.369 . S
C658 C659 1.410 . S
C658 C666 1.503 . S
C659 C658 1.410 . S
C659 C660 1.392 . S
C659 C662 1.511 . S
C660 C656 1.376 . S
C660 C659 1.392 . S
C660 H672 0.929 . S
C661 C657 1.531 . S
C661 H673 0.960 . S
C661 H674 0.962 . S
C661 H675 0.960 . S
C662 C659 1.511 . S
C662 H676 0.961 . S
C662 H677 0.961 . S
C662 H678 0.961 . S
C663 C664 1.370 . S
C663 C665 1.363 . S
C663 H679 0.931 . S
C664 C663 1.370 . S
C664 C668 1.408 . S
C665 C663 1.363 . S
C665 C666 1.370 . S
C665 C669 1.524 . S
C666 C658 1.503 . S
C666 C665 1.370 . S
C666 C667 1.403 . S
C667 C666 1.403 . S
C667 C668 1.404 . S
C667 C670 1.539 . S
C668 C664 1.408 . S
C668 C667 1.404 . S
C668 H680 0.930 . S
C669 C665 1.524 . S
C669 H681 0.956 . S
C669 H682 0.961 . S
C669 H683 0.961 . S
C670 C667 1.539 . S
C670 H684 0.958 . S
C670 H685 0.961 . S
C670 H686 0.960 . S
H671 C655 0.931 . S
H672 C660 0.929 . S
H673 C661 0.960 . S
H674 C661 0.962 . S
H675 C661 0.960 . S
H676 C662 0.961 . S
H677 C662 0.961 . S
H678 C662 0.961 . S
H679 C663 0.931 . S
H680 C668 0.930 . S
H681 C669 0.956 . S
H682 C669 0.961 . S
H683 C669 0.961 . S
H684 C670 0.958 . S
H685 C670 0.961 . S
H686 C670 0.960 . S
C687 C688 1.391 . S
C687 C689 1.394 . S
C687 H703 0.931 . S
C688 C687 1.391 . S
C688 C692 1.376 . S
C689 C687 1.394 . S
C689 C690 1.369 . S
C689 C693 1.531 . S
C690 C689 1.369 . S
C690 C691 1.410 . S
C690 C698 1.503 . S
C691 C690 1.410 . S
C691 C692 1.392 . S
C691 C694 1.511 . S
C692 C688 1.376 . S
C692 C691 1.392 . S
C692 H704 0.929 . S
C693 C689 1.531 . S
C693 H705 0.960 . S
C693 H706 0.962 . S
C693 H707 0.960 . S
C694 C691 1.511 . S
C694 H708 0.961 . S
C694 H709 0.961 . S
C694 H710 0.961 . S
C695 C696 1.370 . S
C695 C697 1.363 1_655 S
C695 H711 0.931 . S
C696 C695 1.370 . S
C696 C700 1.408 . S
C697 C695 1.363 1_455 S
C697 C698 1.370 . S
C697 C701 1.524 . S
C698 C690 1.503 . S
C698 C697 1.370 . S
C698 C699 1.403 . S
C699 C698 1.403 . S
C699 C700 1.404 1_455 S
C699 C702 1.539 . S
C700 C696 1.408 . S
C700 C699 1.404 1_655 S
C700 H712 0.930 . S
C701 C697 1.524 . S
C701 H713 0.956 . S
C701 H714 0.961 . S
C701 H715 0.961 . S
C702 C699 1.539 . S
C702 H716 0.958 . S
C702 H717 0.961 . S
C702 H718 0.960 . S
H703 C687 0.931 . S
H704 C692 0.929 . S
H705 C693 0.960 . S
H706 C693 0.962 . S
H707 C693 0.960 . S
H708 C694 0.961 . S
H709 C694 0.961 . S
H710 C694 0.961 . S
H711 C695 0.931 . S
H712 C700 0.930 . S
H713 C701 0.956 . S
H714 C701 0.961 . S
H715 C701 0.961 . S
H716 C702 0.958 . S
H717 C702 0.961 . S
H718 C702 0.960 . S
C719 C720 1.391 . S
C719 C721 1.394 . S
C719 H735 0.931 . S
C720 C719 1.391 . S
C720 C724 1.376 . S
C721 C719 1.394 . S
C721 C722 1.369 . S
C721 C725 1.531 . S
C722 C721 1.369 . S
C722 C723 1.410 . S
C722 C730 1.503 . S
C723 C722 1.410 . S
C723 C724 1.392 . S
C723 C726 1.511 . S
C724 C720 1.376 . S
C724 C723 1.392 . S
C724 H736 0.929 . S
C725 C721 1.531 . S
C725 H737 0.960 . S
C725 H738 0.962 . S
C725 H739 0.960 . S
C726 C723 1.511 . S
C726 H740 0.961 . S
C726 H741 0.961 . S
C726 H742 0.961 . S
C727 C728 1.370 . S
C727 C729 1.363 . S
C727 H743 0.931 . S
C728 C727 1.370 . S
C728 C732 1.408 . S
C729 C727 1.363 . S
C729 C730 1.370 . S
C729 C733 1.524 . S
C730 C722 1.503 . S
C730 C729 1.370 . S
C730 C731 1.403 . S
C731 C730 1.403 . S
C731 C732 1.404 . S
C731 C734 1.539 . S
C732 C728 1.408 . S
C732 C731 1.404 . S
C732 H744 0.930 . S
C733 C729 1.524 . S
C733 H745 0.956 . S
C733 H746 0.961 . S
C733 H747 0.961 . S
C734 C731 1.539 . S
C734 H748 0.958 . S
C734 H749 0.961 . S
C734 H750 0.960 . S
H735 C719 0.931 . S
H736 C724 0.929 . S
H737 C725 0.960 . S
H738 C725 0.962 . S
H739 C725 0.960 . S
H740 C726 0.961 . S
H741 C726 0.961 . S
H742 C726 0.961 . S
H743 C727 0.931 . S
H744 C732 0.930 . S
H745 C733 0.956 . S
H746 C733 0.961 . S
H747 C733 0.961 . S
H748 C734 0.958 . S
H749 C734 0.961 . S
H750 C734 0.960 . S
C751 C752 1.391 . S
C751 C753 1.394 . S
C751 H767 0.931 . S
C752 C751 1.391 . S
C752 C756 1.376 . S
C753 C751 1.394 . S
C753 C754 1.369 1_565 S
C753 C757 1.531 1_565 S
C754 C753 1.369 1_545 S
C754 C755 1.410 1_545 S
C754 C762 1.503 . S
C755 C754 1.410 1_565 S
C755 C756 1.392 . S
C755 C758 1.511 1_565 S
C756 C752 1.376 . S
C756 C755 1.392 . S
C756 H768 0.929 . S
C757 C753 1.531 1_545 S
C757 H769 0.960 . S
C757 H770 0.962 1_545 S
C757 H771 0.960 . S
C758 C755 1.511 1_545 S
C758 H772 0.961 1_545 S
C758 H773 0.961 . S
C758 H774 0.961 . S
C759 C760 1.370 . S
C759 C761 1.363 . S
C759 H775 0.931 . S
C760 C759 1.370 . S
C760 C764 1.408 . S
C761 C759 1.363 . S
C761 C762 1.370 . S
C761 C765 1.524 1_545 S
C762 C754 1.503 . S
C762 C761 1.370 . S
C762 C763 1.403 . S
C763 C762 1.403 . S
C763 C764 1.404 . S
C763 C766 1.539 . S
C764 C760 1.408 . S
C764 C763 1.404 . S
C764 H776 0.930 . S
C765 C761 1.524 1_565 S
C765 H777 0.956 . S
C765 H778 0.961 . S
C765 H779 0.961 . S
C766 C763 1.539 . S
C766 H780 0.958 . S
C766 H781 0.961 . S
C766 H782 0.960 . S
H767 C751 0.931 . S
H768 C756 0.929 . S
H769 C757 0.960 . S
H770 C757 0.962 1_565 S
H771 C757 0.960 . S
H772 C758 0.961 1_565 S
H773 C758 0.961 . S
H774 C758 0.961 . S
H775 C759 0.931 . S
H776 C764 0.930 . S
H777 C765 0.956 . S
H778 C765 0.961 . S
H779 C765 0.961 . S
H780 C766 0.958 . S
H781 C766 0.961 . S
H782 C766 0.960 . S
C208 N58 1.339 . S
C216 C16 1.300 . S
C240 N25 1.258 . S
C248 N2 1.236 . S
C272 C39 1.482 . S
C280 C53 1.535 . S
C304 C122 1.589 . S
C312 C85 1.545 . S
C336 N94 1.207 . S
C344 N71 1.141 . S
C368 C108 1.338 . S
C376 N127 1.382 . S
C400 C154 1.397 . S
C408 N196 1.392 . S
C432 N140 1.086 . S
C440 N163 1.094 . S
C464 C177 1.592 . S
C472 C191 1.594 . S
C496 N12 1.517 1_556 S
C504 N173 1.554 . S
C528 C30 1.566 1_556 S
C536 C200 1.547 . S
C560 C145 1.527 . S
C568 N48 1.439 . S
C592 C99 1.502 . S
C600 C62 1.457 . S
C624 C7 1.552 . S
C632 C131 1.507 . S
C656 N81 1.547 . S
C664 N35 1.553 . S
C688 C168 1.560 . S
C696 N117 1.487 . S
C720 C76 1.571 . S
C728 N186 1.515 . S
C752 N150 1.500 . S
C760 N104 1.472 . S
