# Generated by pormake.
# Topology uof, (4)-cn, num edge types: 1
# Building blocks:
#     Node 0, Type 0, BuildingBlock: AZAVOO_clean_sbu_0, # of connection points: 4
#     Node 1, Type 0, BuildingBlock: AZAVOO_clean_sbu_0, # of connection points: 4
#     Node 2, Type 0, BuildingBlock: AZAVOO_clean_sbu_0, # of connection points: 4
#     Node 3, Type 0, BuildingBlock: AZAVOO_clean_sbu_0, # of connection points: 4
#     Node 4, Type 0, BuildingBlock: AZAVOO_clean_sbu_0, # of connection points: 4
#     Node 5, Type 0, BuildingBlock: AZAVOO_clean_sbu_0, # of connection points: 4
#     Node 6, Type 0, BuildingBlock: AZAVOO_clean_sbu_0, # of connection points: 4
#     Node 7, Type 0, BuildingBlock: AZAVOO_clean_sbu_0, # of connection points: 4
#     Node 8, Type 0, BuildingBlock: AZAVOO_clean_sbu_0, # of connection points: 4
#     Node 9, Type 0, BuildingBlock: AZAVOO_clean_sbu_0, # of connection points: 4
#     Node 10, Type 0, BuildingBlock: AZAVOO_clean_sbu_0, # of connection points: 4
#     Node 11, Type 0, BuildingBlock: AZAVOO_clean_sbu_0, # of connection points: 4
#     Edge 12, Type (0, 0), BuildingBlock: XIVTED_clean_linker_0, # of connection points: 2
#     Edge 13, Type (0, 0), BuildingBlock: XIVTED_clean_linker_0, # of connection points: 2
#     Edge 14, Type (0, 0), BuildingBlock: XIVTED_clean_linker_0, # of connection points: 2
#     Edge 15, Type (0, 0), BuildingBlock: XIVTED_clean_linker_0, # of connection points: 2
#     Edge 16, Type (0, 0), BuildingBlock: XIVTED_clean_linker_0, # of connection points: 2
#     Edge 17, Type (0, 0), BuildingBlock: XIVTED_clean_linker_0, # of connection points: 2
#     Edge 18, Type (0, 0), BuildingBlock: XIVTED_clean_linker_0, # of connection points: 2
#     Edge 19, Type (0, 0), BuildingBlock: XIVTED_clean_linker_0, # of connection points: 2
#     Edge 20, Type (0, 0), BuildingBlock: XIVTED_clean_linker_0, # of connection points: 2
#     Edge 21, Type (0, 0), BuildingBlock: XIVTED_clean_linker_0, # of connection points: 2
#     Edge 22, Type (0, 0), BuildingBlock: XIVTED_clean_linker_0, # of connection points: 2
#     Edge 23, Type (0, 0), BuildingBlock: XIVTED_clean_linker_0, # of connection points: 2
#     Edge 24, Type (0, 0), BuildingBlock: XIVTED_clean_linker_0, # of connection points: 2
#     Edge 25, Type (0, 0), BuildingBlock: XIVTED_clean_linker_0, # of connection points: 2
#     Edge 26, Type (0, 0), BuildingBlock: XIVTED_clean_linker_0, # of connection points: 2
#     Edge 27, Type (0, 0), BuildingBlock: XIVTED_clean_linker_0, # of connection points: 2
#     Edge 28, Type (0, 0), BuildingBlock: XIVTED_clean_linker_0, # of connection points: 2
#     Edge 29, Type (0, 0), BuildingBlock: XIVTED_clean_linker_0, # of connection points: 2
#     Edge 30, Type (0, 0), BuildingBlock: XIVTED_clean_linker_0, # of connection points: 2
#     Edge 31, Type (0, 0), BuildingBlock: XIVTED_clean_linker_0, # of connection points: 2
#     Edge 32, Type (0, 0), BuildingBlock: XIVTED_clean_linker_0, # of connection points: 2
#     Edge 33, Type (0, 0), BuildingBlock: XIVTED_clean_linker_0, # of connection points: 2
#     Edge 34, Type (0, 0), BuildingBlock: XIVTED_clean_linker_0, # of connection points: 2
#     Edge 35, Type (0, 0), BuildingBlock: XIVTED_clean_linker_0, # of connection points: 2
# Relax obj value: 0.245
# Max RMSD: 0.197
# Mean RMSD: 0.197
data_MOF--net-uof--node1-AZAVOO_clean_sbu_0--edge1-XIVTED_clean_linker_0
_symmetry_space_group_name_H-M    P1
_symmetry_Int_Tables_number       1
_symmetry_cell_setting            triclinic
loop_
_symmetry_equiv_pos_as_xyz
'x, y, z'
_cell_length_a     31.933167
_cell_length_b     31.91518
_cell_length_c     62.311407
_cell_angle_alpha  89.970165
_cell_angle_beta   89.916347
_cell_angle_gamma 119.89903
loop_
_atom_site_label
_atom_site_type_symbol
_atom_site_fract_x
_atom_site_fract_y
_atom_site_fract_z
_atom_type_partial_charge
Mg0 Mg 0.24211 0.33056 0.2143 0.0
O1 O 0.26998 0.28241 0.20065 0.0
O2 O 0.34861 0.31511 0.20795 0.0
Mg3 Mg 0.36935 0.38112 0.22886 0.0
C4 C 0.30979 0.28225 0.19937 0.0
C5 C 0.15585 0.26068 0.18653 0.0
O6 O 0.19112 0.27871 0.17239 0.0
O7 O 0.23828 0.29881 0.24776 0.0
O8 O 0.31725 0.33023 0.25449 0.0
O9 O 0.2688 0.37651 0.18456 0.0
O10 O 0.31116 0.38897 0.21438 0.0
C11 C 0.2729 0.30357 0.25972 0.0
C12 C 0.30915 0.40039 0.19479 0.0
O13 O 0.16533 0.2734 0.20605 0.0
Mg14 Mg 0.88272 0.26615 0.54858 0.0
O15 O 0.95947 0.29247 0.5363 0.0
O16 O 0.00446 0.37265 0.5396 0.0
Mg17 Mg 0.95804 0.39601 0.55817 0.0
C18 C -0.00094 0.33202 0.5336 0.0
C19 C 0.87485 0.17702 0.52593 0.0
O20 O 0.89372 0.2101 0.51083 0.0
O21 O 0.91027 0.26938 0.58271 0.0
O22 O 0.95902 0.34931 0.58594 0.0
O23 O 0.86577 0.28567 0.51661 0.0
O24 O 0.89255 0.3351 0.54451 0.0
C25 C 0.94139 0.30628 0.59314 0.0
C26 C 0.88215 0.32858 0.52441 0.0
O27 O 0.86617 0.18868 0.54422 0.0
Mg28 Mg 0.63855 0.90489 0.87092 0.0
O29 O 0.69154 0.98289 0.8606 0.0
O30 O 0.65775 0.02863 0.86655 0.0
Mg31 Mg 0.58699 0.98171 0.88419 0.0
C32 C 0.69246 0.02334 0.85962 0.0
C33 C 0.7149 0.88913 0.84686 0.0
O34 O 0.70154 0.90815 0.83149 0.0
O35 O 0.66216 0.92676 0.90577 0.0
O36 O 0.63235 0.97622 0.91133 0.0
O37 O 0.60263 0.89387 0.83892 0.0
O38 O 0.58127 0.91799 0.86817 0.0
C39 C 0.65662 0.9565 0.91749 0.0
C40 C 0.57705 0.91025 0.84784 0.0
O41 O 0.69659 0.88428 0.86546 0.0
Mg42 Mg 0.73412 0.65198 0.21913 0.0
O43 O 0.71757 0.70966 0.20619 0.0
O44 O 0.64892 0.69778 0.2215 0.0
Mg45 Mg 0.62156 0.63326 0.24384 0.0
C46 C 0.68479 0.72095 0.20892 0.0
C47 C 0.82097 0.71259 0.18713 0.0
O48 O 0.78679 0.71184 0.17514 0.0
O49 O 0.7591 0.69265 0.25124 0.0
O50 O 0.68786 0.67878 0.26426 0.0
O51 O 0.68807 0.60202 0.19279 0.0
O52 O 0.66155 0.60663 0.22498 0.0
C53 C 0.7336 0.69792 0.26567 0.0
C54 C 0.65213 0.58927 0.20587 0.0
O55 O 0.81032 0.69247 0.20548 0.0
Mg56 Mg 0.09296 0.72619 0.5438 0.0
O57 O 0.01524 0.70407 0.53422 0.0
O58 O 0.96748 0.62516 0.54086 0.0
Mg59 Mg 0.01297 0.59928 0.55822 0.0
C60 C 0.974 0.66551 0.53376 0.0
C61 C 0.15614 0.8253 0.52604 0.0
O62 O 0.17775 0.80037 0.52176 0.0
O63 O 0.07319 0.73096 0.57879 0.0
O64 O 0.0217 0.65241 0.58487 0.0
O65 O 0.10119 0.69932 0.51185 0.0
O66 O 0.07683 0.65467 0.54134 0.0
C67 C 0.0429 0.69658 0.59077 0.0
C68 C 0.08363 0.65745 0.52091 0.0
O69 O 0.11708 0.80504 0.53679 0.0
Mg70 Mg 0.3653 0.09796 0.8716 0.0
O71 O 0.3152 0.02011 0.86046 0.0
O72 O 0.35102 0.97615 0.86608 0.0
Mg73 Mg 0.42051 0.02416 0.88428 0.0
C74 C 0.31574 0.98045 0.85916 0.0
C75 C 0.28733 0.11022 0.84736 0.0
O76 O 0.30286 0.09321 0.83198 0.0
O77 O 0.34021 0.07314 0.90608 0.0
O78 O 0.37233 0.02555 0.91125 0.0
O79 O 0.40324 0.11269 0.83988 0.0
O80 O 0.4245 0.08783 0.86889 0.0
C81 C 0.34638 0.04337 0.91749 0.0
C82 C 0.42967 0.09724 0.84868 0.0
O83 O 0.30508 0.11532 0.86606 0.0
Mg84 Mg 0.6429 0.7438 0.45741 0.0
O85 O 0.68986 0.71413 0.47066 0.0
O86 O 0.65536 0.63526 0.46326 0.0
Mg87 Mg 0.59059 0.61691 0.44202 0.0
C88 C 0.6889 0.67371 0.47182 0.0
C89 C 0.71554 0.83042 0.48488 0.0
O90 O 0.69678 0.79637 0.49957 0.0
O91 O 0.67596 0.7482 0.42442 0.0
O92 O 0.64503 0.66949 0.41738 0.0
O93 O 0.59826 0.71776 0.48723 0.0
O94 O 0.58332 0.67472 0.45745 0.0
C95 C 0.67257 0.71399 0.41259 0.0
C96 C 0.57387 0.67695 0.47736 0.0
O97 O 0.70167 0.81995 0.46554 0.0
Mg98 Mg 0.90616 0.63478 0.78868 0.0
O99 O 0.98356 0.68719 0.79971 0.0
O100 O 0.02969 0.65385 0.79375 0.0
Mg101 Mg 0.98351 0.58355 0.77577 0.0
C102 C 0.02401 0.68824 0.8008 0.0
C103 C 0.88804 0.7084 0.81345 0.0
O104 O 0.90408 0.69194 0.82883 0.0
O105 O 0.93007 0.6601 0.75407 0.0
O106 O 0.97938 0.63001 0.74873 0.0
O107 O 0.89294 0.59698 0.8204 0.0
O108 O 0.91905 0.57722 0.79133 0.0
C109 C 0.96022 0.65478 0.74252 0.0
C110 C 0.90977 0.57176 0.81155 0.0
O111 O 0.88571 0.69293 0.79443 0.0
Mg112 Mg 0.25649 0.89004 0.11293 0.0
O113 O 0.28063 0.96673 0.12503 0.0
O114 O 0.36019 0.01328 0.11975 0.0
Mg115 Mg 0.38473 0.96882 0.10052 0.0
C116 C 0.31995 0.00702 0.12684 0.0
C117 C 0.15642 0.83178 0.13153 0.0
O118 O 0.17996 0.81018 0.13812 0.0
O119 O 0.25489 0.91536 0.07866 0.0
O120 O 0.33411 0.96585 0.07382 0.0
O121 O 0.28095 0.87619 0.14441 0.0
O122 O 0.32692 0.90312 0.11537 0.0
C123 C 0.29037 0.94661 0.06748 0.0
C124 C 0.32301 0.89353 0.13556 0.0
O125 O 0.17799 0.86832 0.11927 0.0
Mg126 Mg 0.34203 0.26589 0.46012 0.0
O127 O 0.28689 0.28924 0.46953 0.0
O128 O 0.31728 0.36658 0.45977 0.0
Mg129 Mg 0.38723 0.39003 0.44163 0.0
C130 C 0.28435 0.32795 0.46855 0.0
C131 C 0.3031 0.15829 0.46317 0.0
O132 O 0.34367 0.17491 0.45234 0.0
O133 O 0.31502 0.25594 0.42546 0.0
O134 O 0.34169 0.33312 0.41642 0.0
O135 O 0.38039 0.29707 0.49104 0.0
O136 O 0.39678 0.33741 0.46037 0.0
C137 C 0.31846 0.28799 0.41216 0.0
C138 C 0.40344 0.33753 0.48072 0.0
O139 O 0.289 0.18763 0.46857 0.0
Mg140 Mg 0.10123 0.36615 0.78805 0.0
O141 O 0.02327 0.3156 0.79903 0.0
O142 O 0.97969 0.35218 0.79451 0.0
Mg143 Mg 0.02784 0.42244 0.7767 0.0
C144 C 0.9838 0.31635 0.80083 0.0
C145 C 0.11192 0.28612 0.81124 0.0
O146 O 0.09388 0.3004 0.82668 0.0
O147 O 0.07689 0.34332 0.75336 0.0
O148 O 0.02922 0.37568 0.74916 0.0
O149 O 0.11516 0.40191 0.82022 0.0
O150 O 0.09142 0.42542 0.79155 0.0
C151 C 0.04708 0.35018 0.74236 0.0
C152 C 0.09994 0.42895 0.81181 0.0
O153 O 0.11821 0.30538 0.79278 0.0
Mg154 Mg 0.72426 0.09789 0.11424 0.0
O155 O 0.70422 0.02314 0.12706 0.0
O156 O 0.62731 0.96949 0.11938 0.0
Mg157 Mg 0.59841 0.01107 0.10065 0.0
C158 C 0.66796 0.98047 0.12772 0.0
C159 C 0.81246 0.11542 0.14047 0.0
O160 O 0.77721 0.09572 0.15457 0.0
O161 O 0.72953 0.07316 0.08027 0.0
O162 O 0.6517 0.01942 0.07417 0.0
O163 O 0.69652 0.11106 0.14496 0.0
O164 O 0.65208 0.07935 0.11583 0.0
C165 C 0.69603 0.04139 0.06848 0.0
C166 C 0.65462 0.09036 0.13584 0.0
O167 O 0.80293 0.12213 0.12139 0.0
H168 H 0.84465 0.1108 0.18049 0.0
H169 H 0.1223 0.23743 0.1454 0.0
H170 H 0.89413 0.15445 0.11544 0.0
H171 H 0.07411 0.21688 0.21132 0.0
H172 H 0.03814 0.19628 0.13373 0.0
H173 H 0.92779 0.13929 0.19153 0.0
C174 C 0.87297 0.12621 0.16849 0.0
C175 C 0.86247 0.13066 0.14703 0.0
C176 C 0.046 0.20049 0.15075 0.0
C177 C 0.95778 0.16324 0.15959 0.0
C178 C 0.09404 0.22382 0.15744 0.0
C179 C 0.10527 0.23105 0.17938 0.0
C180 C 0.00892 0.18411 0.1661 0.0
C181 C 0.06713 0.21247 0.19424 0.0
C182 C 0.92046 0.14248 0.17483 0.0
C183 C 0.90064 0.15066 0.13219 0.0
N184 N 0.02065 0.1901 0.18732 0.0
N185 N 0.94667 0.16639 0.13877 0.0
H186 H 0.83576 0.09922 0.55326 0.0
H187 H 0.7657 0.90852 0.45851 0.0
H188 H 0.88018 0.13909 0.48741 0.0
H189 H 0.73952 0.86804 0.52539 0.0
H190 H 0.81235 0.99324 0.46908 0.0
H191 H 0.80475 0.01449 0.54381 0.0
C192 C 0.83936 0.09021 0.53685 0.0
C193 C 0.86009 0.12623 0.52104 0.0
C194 C 0.79683 0.96582 0.48147 0.0
C195 C 0.82447 0.02939 0.51011 0.0
C196 C 0.77012 0.91742 0.47543 0.0
C197 C 0.74823 0.88119 0.49108 0.0
C198 C 0.80128 0.97816 0.50331 0.0
C199 C 0.75551 0.89481 0.51277 0.0
C200 C 0.8217 0.04183 0.53148 0.0
C201 C 0.86411 0.11251 0.50009 0.0
N202 N 0.78097 0.94228 0.51824 0.0
N203 N 0.84601 0.06514 0.49519 0.0
H204 H 0.75251 0.88496 0.80793 0.0
H205 H 0.87654 0.73815 0.85308 0.0
H206 H 0.75056 0.84807 0.87475 0.0
H207 H 0.8563 0.75323 0.78561 0.0
H208 H 0.83989 0.78749 0.86149 0.0
H209 H 0.80005 0.84617 0.79979 0.0
C210 C 0.76238 0.86906 0.82093 0.0
C211 C 0.74718 0.86946 0.84205 0.0
C212 C 0.84371 0.78024 0.84484 0.0
C213 C 0.80157 0.82489 0.83278 0.0
C214 C 0.86476 0.75215 0.84001 0.0
C215 C 0.86923 0.74125 0.8186 0.0
C216 C 0.82717 0.79781 0.82816 0.0
C217 C 0.85332 0.76047 0.80235 0.0
C218 C 0.78944 0.84679 0.81624 0.0
C219 C 0.76122 0.84838 0.85822 0.0
N220 N 0.83284 0.78767 0.80747 0.0
N221 N 0.78744 0.82678 0.85324 0.0
H222 H 0.85966 0.76548 0.15027 0.0
H223 H 0.10799 0.76524 0.16276 0.0
H224 H 0.89605 0.7074 0.20518 0.0
H225 H 0.09192 0.85997 0.11823 0.0
H226 H 0.02706 0.73842 0.17631 0.0
H227 H 0.94182 0.79623 0.13637 0.0
C228 C 0.88491 0.75934 0.15943 0.0
C229 C 0.8709 0.73368 0.17889 0.0
C230 C 0.04116 0.76514 0.1636 0.0
C231 C 0.96446 0.76829 0.16301 0.0
C232 C 0.08737 0.78034 0.15576 0.0
C233 C 0.10679 0.81493 0.13932 0.0
C234 C 0.01375 0.78424 0.15485 0.0
C235 C 0.07833 0.83328 0.13095 0.0
C236 C 0.93174 0.77696 0.15151 0.0
C237 C 0.90514 0.72692 0.19012 0.0
N238 N 0.03304 0.81755 0.13876 0.0
N239 N 0.95014 0.74382 0.18195 0.0
H240 H 0.3253 0.08793 0.45448 0.0
H241 H 0.12118 0.88823 0.53079 0.0
H242 H 0.22323 0.11334 0.48944 0.0
H243 H 0.23575 0.8745 0.50082 0.0
H244 H 0.15405 0.96868 0.51452 0.0
H245 H 0.28792 0.0068 0.46946 0.0
C246 C 0.29478 0.07635 0.46522 0.0
C247 C 0.27758 0.10764 0.4708 0.0
C248 C 0.17191 0.94797 0.51156 0.0
C249 C 0.23461 0.01448 0.48822 0.0
C250 C 0.15325 0.90214 0.52087 0.0
C251 C 0.17579 0.87461 0.51719 0.0
C252 C 0.21318 0.96612 0.49844 0.0
C253 C 0.21715 0.89434 0.50415 0.0
C254 C 0.27349 0.02997 0.47385 0.0
C255 C 0.23774 0.09044 0.48474 0.0
N256 N 0.23438 0.93873 0.49525 0.0
N257 N 0.21769 0.04502 0.49307 0.0
H258 H 0.24382 0.14283 0.87545 0.0
H259 H 0.14767 0.24578 0.78298 0.0
H260 H 0.25363 0.11779 0.80802 0.0
H261 H 0.11621 0.24883 0.85018 0.0
H262 H 0.18348 0.19576 0.79169 0.0
H263 H 0.19394 0.17866 0.86654 0.0
C264 C 0.23518 0.14451 0.85878 0.0
C265 C 0.25332 0.12769 0.84244 0.0
C266 C 0.16834 0.20699 0.80451 0.0
C267 C 0.19652 0.16899 0.83211 0.0
C268 C 0.14792 0.23561 0.79954 0.0
C269 C 0.12932 0.25192 0.8159 0.0
C270 C 0.1706 0.19497 0.82601 0.0
C271 C 0.13036 0.23734 0.83706 0.0
C272 C 0.20663 0.16492 0.8537 0.0
C273 C 0.24067 0.13052 0.82114 0.0
N274 N 0.15112 0.21013 0.84153 0.0
N275 N 0.21347 0.15126 0.81657 0.0
H276 H 0.57319 0.54921 0.23144 0.0
H277 H 0.36329 0.38232 0.16657 0.0
H278 H 0.61504 0.56337 0.1647 0.0
H279 H 0.35836 0.49608 0.20158 0.0
H280 H 0.45149 0.43411 0.163 0.0
H281 H 0.48919 0.51124 0.22071 0.0
C282 C 0.56483 0.54465 0.21448 0.0
C283 C 0.60134 0.56084 0.19892 0.0
C284 C 0.43061 0.44849 0.17042 0.0
C285 C 0.50484 0.51606 0.18665 0.0
C286 C 0.38047 0.41922 0.17236 0.0
C287 C 0.35405 0.43543 0.1843 0.0
C288 C 0.45358 0.49328 0.1809 0.0
C289 C 0.37775 0.48267 0.19218 0.0
C290 C 0.51686 0.52294 0.20842 0.0
C291 C 0.58788 0.55184 0.17717 0.0
N292 N 0.42649 0.50958 0.19085 0.0
N293 N 0.54025 0.52969 0.17157 0.0
H294 H 0.00452 0.62684 0.49595 0.0
H295 H 0.95521 0.35676 0.49587 0.0
H296 H 0.10638 0.58618 0.51904 0.0
H297 H 0.8572 0.39828 0.52311 0.0
H298 H 0.00794 0.44064 0.48411 0.0
H299 H 0.94952 0.54231 0.48577 0.0
C300 C 0.0162 0.60049 0.49788 0.0
C301 C 0.05973 0.61294 0.5083 0.0
C302 C 0.97373 0.43071 0.49175 0.0
C303 C -0.00202 0.51747 0.4965 0.0
C304 C 0.94359 0.38302 0.49833 0.0
C305 C 0.90209 0.3711 0.51044 0.0
C306 C 0.96132 0.4659 0.49691 0.0
C307 C 0.88893 0.40637 0.51372 0.0
C308 C 0.98485 0.55249 0.49217 0.0
C309 C 0.07308 0.57766 0.51094 0.0
N310 N 0.91881 0.45252 0.50718 0.0
N311 N 0.04202 0.53119 0.50525 0.0
H312 H 0.52611 0.13111 0.84747 0.0
H313 H 0.62004 0.98666 0.82069 0.0
H314 H 0.39029 0.01885 0.82283 0.0
H315 H 0.48239 0.88441 0.84806 0.0
H316 H 0.58647 0.03836 0.81037 0.0
H317 H 0.5643 0.08457 0.8361 0.0
C318 C 0.50494 0.09761 0.83878 0.0
C319 C 0.45535 0.07881 0.8358 0.0
C320 C 0.56326 0.00376 0.81793 0.0
C321 C 0.4979 0.02467 0.82361 0.0
C322 C 0.58214 0.97412 0.8236 0.0
C323 C 0.55366 0.93142 0.83515 0.0
C324 C 0.5156 0.98998 0.82372 0.0
C325 C 0.5052 0.91708 0.83907 0.0
C326 C 0.52663 0.07107 0.83229 0.0
C327 C 0.42885 0.0346 0.8251 0.0
N328 N 0.48769 0.94657 0.83351 0.0
N329 N 0.45013 0.00812 0.82003 0.0
H330 H 0.60738 0.63452 0.50459 0.0
H331 H 0.36142 0.38258 0.50046 0.0
H332 H 0.47712 0.61601 0.47532 0.0
H333 H 0.49995 0.39816 0.48491 0.0
H334 H 0.40135 0.46929 0.50881 0.0
H335 H 0.56421 0.54863 0.51483 0.0
C336 C 0.56914 0.61276 0.50117 0.0
C337 C 0.5454 0.63182 0.4892 0.0
C338 C 0.42303 0.45323 0.50433 0.0
C339 C 0.49631 0.53481 0.5009 0.0
C340 C 0.40043 0.404 0.49964 0.0
C341 C 0.42772 0.38381 0.492 0.0
C342 C 0.47316 0.4818 0.50166 0.0
C343 C 0.47798 0.41275 0.49089 0.0
C344 C 0.54477 0.56397 0.50689 0.0
C345 C 0.49628 0.60234 0.48469 0.0
N346 N 0.49923 0.46064 0.4955 0.0
N347 N 0.47327 0.55499 0.49043 0.0
H348 H 0.87795 0.47566 0.81331 0.0
H349 H 0.02596 0.38656 0.84022 0.0
H350 H 0.98905 0.61347 0.83679 0.0
H351 H 0.12544 0.52357 0.81145 0.0
H352 H 0.97392 0.41955 0.85079 0.0
H353 H 0.92609 0.43933 0.82483 0.0
C354 C 0.91157 0.49769 0.82177 0.0
C355 C 0.92955 0.54728 0.82439 0.0
C356 C 0.00807 0.44282 0.8429 0.0
C357 C 0.98545 0.50682 0.83678 0.0
C358 C 0.03795 0.42429 0.8371 0.0
C359 C 0.07983 0.45264 0.82501 0.0
C360 C 0.02084 0.49003 0.83672 0.0
C361 C 0.09341 0.50085 0.82084 0.0
C362 C 0.93901 0.47705 0.82836 0.0
C363 C 0.97393 0.57489 0.83479 0.0
N364 N 0.06369 0.518 0.82652 0.0
N365 N 0.00126 0.55461 0.83997 0.0
H366 H 0.3526 0.96571 0.16471 0.0
H367 H 0.58871 0.12017 0.1383 0.0
H368 H 0.39443 0.87132 0.1339 0.0
H369 H 0.6186 0.00976 0.1602 0.0
H370 H 0.50449 0.06987 0.14977 0.0
H371 H 0.43703 0.01886 0.17555 0.0
C372 C 0.37922 0.95507 0.16115 0.0
C373 C 0.36709 0.91437 0.14844 0.0
C374 C 0.52993 0.05753 0.15295 0.0
C375 C 0.46262 0.97446 0.16051 0.0
C376 C 0.57782 0.08617 0.14637 0.0
C377 C 0.61014 0.06891 0.14851 0.0
C378 C 0.51432 0.01077 0.16086 0.0
C379 C 0.59442 0.02415 0.15847 0.0
C380 C 0.42723 0.98553 0.16713 0.0
C381 C 0.40271 0.90244 0.14375 0.0
N382 N 0.54705 0.99575 0.16365 0.0
N383 N 0.44915 0.93267 0.14965 0.0
H384 H 0.39686 0.09408 0.13865 0.0
H385 H 0.23338 0.20069 0.18245 0.0
H386 H 0.24084 0.01336 0.13924 0.0
H387 H 0.38829 0.27213 0.19027 0.0
H388 H 0.23564 0.13378 0.16459 0.0
H389 H 0.3945 0.16156 0.15577 0.0
C390 C 0.36207 0.09051 0.14235 0.0
C391 C 0.31895 0.04793 0.13746 0.0
C392 C 0.26911 0.16411 0.17022 0.0
C393 C 0.31607 0.12523 0.15707 0.0
C394 C 0.2679 0.20243 0.18038 0.0
C395 C 0.31072 0.2421 0.18795 0.0
C396 C 0.31345 0.16553 0.16751 0.0
C397 C 0.35434 0.24226 0.18478 0.0
C398 C 0.36078 0.12907 0.15217 0.0
C399 C 0.27498 0.04541 0.14274 0.0
N400 N 0.35457 0.20457 0.1748 0.0
N401 N 0.27468 0.08358 0.15222 0.0
H402 H 0.00541 0.25219 0.52263 0.0
H403 H 0.27202 0.40601 0.47439 0.0
H404 H 0.0863 0.4083 0.52128 0.0
H405 H 0.20047 0.25152 0.48419 0.0
H406 H 0.20223 0.40678 0.48969 0.0
H407 H 0.07439 0.25063 0.50658 0.0
C408 C 0.0376 0.28617 0.51893 0.0
C409 C 0.0401 0.33049 0.5234 0.0
C410 C 0.20177 0.3727 0.48851 0.0
C411 C 0.11915 0.32883 0.50501 0.0
C412 C 0.24161 0.37217 0.47972 0.0
C413 C 0.24215 0.32858 0.47796 0.0
C414 C 0.16194 0.32932 0.49554 0.0
C415 C 0.2017 0.28597 0.48526 0.0
C416 C 0.07702 0.2852 0.50981 0.0
C417 C 0.08278 0.37329 0.51823 0.0
N418 N 0.16316 0.2874 0.4937 0.0
N419 N 0.1206 0.37137 0.5093 0.0
H420 H 0.89587 0.30683 0.81072 0.0
H421 H 0.77784 0.03012 0.84671 0.0
H422 H 0.9742 0.22883 0.81198 0.0
H423 H 0.70538 0.11348 0.85183 0.0
H424 H 0.84919 0.10154 0.83268 0.0
H425 H 0.82495 0.23541 0.82482 0.0
C426 C 0.89823 0.27473 0.81398 0.0
C427 C 0.94109 0.27385 0.81008 0.0
C428 C 0.81766 0.10416 0.83689 0.0
C429 C 0.85982 0.19181 0.82621 0.0
C430 C 0.77683 0.06335 0.84485 0.0
C431 C 0.73553 0.06578 0.85053 0.0
C432 C 0.81714 0.14765 0.8345 0.0
C433 C 0.73641 0.10988 0.84776 0.0
C434 C 0.85767 0.23394 0.82205 0.0
C435 C 0.94197 0.23122 0.81472 0.0
N436 N 0.77654 0.14903 0.83994 0.0
N437 N 0.90188 0.19185 0.82248 0.0
H438 H 0.63111 0.88618 0.11614 0.0
H439 H 0.67167 0.79271 0.22467 0.0
H440 H 0.71663 0.98986 0.16477 0.0
H441 H 0.70364 0.74141 0.16634 0.0
H442 H 0.67161 0.85855 0.20426 0.0
H443 H 0.64041 0.8241 0.13555 0.0
C444 C 0.65169 0.8957 0.13091 0.0
C445 C 0.67318 0.94291 0.13896 0.0
C446 C 0.67894 0.83298 0.19603 0.0
C447 C 0.68301 0.87265 0.16114 0.0
C448 C 0.67885 0.79557 0.20758 0.0
C449 C 0.68783 0.76205 0.19706 0.0
C450 C 0.68638 0.83564 0.1738 0.0
C451 C 0.69693 0.76697 0.17493 0.0
C452 C 0.65723 0.86058 0.14181 0.0
C453 C 0.69976 0.9538 0.15806 0.0
N454 N 0.69517 0.80279 0.16387 0.0
N455 N 0.70334 0.91863 0.16874 0.0
H456 H 0.69587 0.59369 0.48146 0.0
H457 H 0.96891 0.74572 0.52203 0.0
H458 H 0.77383 0.74941 0.48656 0.0
H459 H 0.88351 0.59 0.52547 0.0
H460 H 0.89861 0.74793 0.50807 0.0
H461 H 0.76486 0.59175 0.49705 0.0
C462 C 0.7274 0.62748 0.48593 0.0
C463 C 0.72911 0.6718 0.48258 0.0
C464 C 0.89527 0.71331 0.51193 0.0
C465 C 0.80838 0.66981 0.50035 0.0
C466 C 0.93545 0.71199 0.51983 0.0
C467 C 0.93214 0.6676 0.52495 0.0
C468 C 0.85157 0.66994 0.50901 0.0
C469 C 0.88777 0.62508 0.52181 0.0
C470 C 0.7668 0.62633 0.49485 0.0
C471 C 0.77088 0.7144 0.48881 0.0
N472 N 0.84928 0.62732 0.514 0.0
N473 N 0.80898 0.71235 0.49728 0.0
H474 H 0.30611 0.89207 0.85023 0.0
H475 H 0.03024 0.77342 0.81361 0.0
H476 H 0.22884 0.971 0.84715 0.0
H477 H 0.11396 0.70126 0.80895 0.0
H478 H 0.10136 0.84498 0.82756 0.0
H479 H 0.2349 0.82082 0.83636 0.0
C480 C 0.27423 0.8945 0.8466 0.0
C481 C 0.27348 0.93763 0.84992 0.0
C482 C 0.10411 0.81346 0.82348 0.0
C483 C 0.19166 0.85597 0.8341 0.0
C484 C 0.06348 0.7725 0.81558 0.0
C485 C 0.06612 0.73124 0.81003 0.0
C486 C 0.14763 0.8131 0.82595 0.0
C487 C 0.11021 0.73225 0.81292 0.0
C488 C 0.23355 0.85376 0.83867 0.0
C489 C 0.23112 0.93857 0.84484 0.0
N490 N 0.14919 0.7725 0.82068 0.0
N491 N 0.19184 0.89828 0.83726 0.0
H492 H 0.26771 0.32341 0.39196 0.0
H493 H 0.31882 0.2616 0.27908 0.0
H494 H 0.31748 0.22115 0.38421 0.0
H495 H 0.20583 0.29612 0.28914 0.0
H496 H 0.31537 0.24151 0.31715 0.0
H497 H 0.2409 0.31029 0.35463 0.0
C498 C 0.27222 0.29754 0.38242 0.0
C499 C 0.29518 0.27362 0.39099 0.0
C500 C 0.29043 0.25224 0.31096 0.0
C501 C 0.26559 0.2592 0.34822 0.0
C502 C 0.29247 0.26381 0.28927 0.0
C503 C 0.26284 0.2809 0.2811 0.0
C504 C 0.2596 0.25929 0.32467 0.0
C505 C 0.22925 0.28307 0.29488 0.0
C506 C 0.25669 0.28986 0.36117 0.0
C507 C 0.29996 0.24028 0.3781 0.0
N508 N 0.22938 0.27359 0.31617 0.0
N509 N 0.28634 0.23488 0.35712 0.0
H510 H 0.03249 0.35713 0.60869 0.0
H511 H 0.95555 0.30087 0.72756 0.0
H512 H 0.88995 0.24188 0.6252 0.0
H513 H 0.10299 0.35058 0.70887 0.0
H514 H 0.93003 0.27688 0.69045 0.0
H515 H 0.05965 0.35447 0.64505 0.0
C516 C 0.00706 0.33089 0.61997 0.0
C517 C 0.95878 0.30008 0.61412 0.0
C518 C 0.96782 0.29201 0.69452 0.0
C519 C 0.98942 0.29732 0.65573 0.0
C520 C 0.98239 0.30585 0.71562 0.0
C521 C 0.0314 0.32794 0.72109 0.0
C522 C 0.00275 0.3018 0.67867 0.0
C523 C 0.06486 0.33359 0.70519 0.0
C524 C 0.02267 0.32915 0.64063 0.0
C525 C 0.92741 0.26635 0.62918 0.0
N526 N 0.05005 0.32164 0.6845 0.0
N527 N 0.94301 0.26658 0.64952 0.0
H528 H 0.75894 0.10292 0.03817 0.0
H529 H 0.66279 0.89743 0.94781 0.0
H530 H 0.65789 0.95254 0.05056 0.0
H531 H 0.69979 0.04508 0.9359 0.0
H532 H 0.68735 0.91868 0.9855 0.0
H533 H 0.76385 0.0826 0.00049 0.0
C534 C 0.73889 0.06554 0.03307 0.0
C535 C 0.70745 0.02939 0.04726 0.0
C536 C 0.69096 0.94651 0.97445 0.0
C537 C 0.71315 0.006 0.00464 0.0
C538 C 0.67715 0.93447 0.95303 0.0
C539 C 0.67863 0.96945 0.93896 0.0
C540 C 0.70718 0.99397 0.98155 0.0
C541 C 0.6974 0.01694 0.94642 0.0
C542 C 0.7415 0.05402 0.01164 0.0
C543 C 0.682 0.98149 0.03994 0.0
N544 N 0.7107 0.02779 0.96725 0.0
N545 N 0.68511 0.97118 0.01907 0.0
H546 H 0.73 0.77419 0.28232 0.0
H547 H 0.70784 0.66082 0.39416 0.0
H548 H 0.78143 0.67508 0.29529 0.0
H549 H 0.70353 0.79284 0.38604 0.0
H550 H 0.74677 0.67365 0.35925 0.0
H551 H 0.73478 0.79279 0.32055 0.0
C552 C 0.74438 0.758 0.29321 0.0
C553 C 0.75523 0.72302 0.28582 0.0
C554 C 0.73818 0.70038 0.36518 0.0
C555 C 0.75847 0.7421 0.32958 0.0
C556 C 0.71551 0.69281 0.38505 0.0
C557 C 0.70149 0.72528 0.39274 0.0
C558 C 0.74583 0.74009 0.35261 0.0
C559 C 0.71326 0.76665 0.38053 0.0
C560 C 0.74674 0.76828 0.31505 0.0
C561 C 0.77298 0.70242 0.30045 0.0
N562 N 0.73378 0.77234 0.3608 0.0
N563 N 0.77276 0.71124 0.32179 0.0
H564 H 0.95381 0.65835 0.6083 0.0
H565 H 0.04962 0.69818 0.72483 0.0
H566 H 0.104 0.75664 0.62191 0.0
H567 H 0.90294 0.66229 0.7117 0.0
H568 H 0.07113 0.72385 0.68757 0.0
H569 H 0.93396 0.66294 0.64579 0.0
C570 C 0.98249 0.68161 0.61919 0.0
C571 C 0.03064 0.70681 0.61218 0.0
C572 C 0.03447 0.71133 0.69289 0.0
C573 C 0.00839 0.71139 0.65512 0.0
C574 C 0.02211 0.69643 0.71411 0.0
C575 C 0.97433 0.67759 0.72118 0.0
C576 C -0.00154 0.70604 0.67849 0.0
C577 C 0.94013 0.67648 0.70679 0.0
C578 C 0.97113 0.68437 0.64053 0.0
C579 C 0.06647 0.73664 0.62678 0.0
N580 N 0.95261 0.68945 0.68592 0.0
N581 N 0.05476 0.73725 0.64776 0.0
H582 H 0.3314 0.0376 0.05171 0.0
H583 H 0.3036 0.95291 0.93398 0.0
H584 H 0.23214 0.88932 0.03507 0.0
H585 H 0.33552 0.09784 0.94874 0.0
H586 H 0.27446 0.92826 0.97065 0.0
H587 H 0.33073 0.06121 0.01443 0.0
C588 C 0.3087 0.01018 0.04021 0.0
C589 C 0.28208 0.96145 0.04629 0.0
C590 C 0.2869 0.96523 0.96579 0.0
C591 C 0.28206 0.98794 0.00365 0.0
C592 C 0.30383 0.97938 0.94494 0.0
C593 C 0.32246 0.02757 0.93852 0.0
C594 C 0.28996 -0.00014 0.98051 0.0
C595 C 0.32156 0.06039 0.95318 0.0
C596 C 0.30819 0.02368 0.01899 0.0
C597 C 0.25312 0.92726 0.03092 0.0
N598 N 0.30662 0.04618 0.97372 0.0
N599 N 0.25477 0.941 0.01011 0.0
loop_
_geom_bond_atom_site_label_1
_geom_bond_atom_site_label_2
_geom_bond_distance
_geom_bond_site_symmetry_2
_ccdc_geom_bond_type
Mg0 O1 2.028 . S
Mg0 O7 1.986 . S
Mg0 O9 2.114 . S
Mg0 O10 2.251 . S
Mg0 O13 2.010 . S
O1 Mg0 2.028 . S
O1 C4 1.250 . S
O2 Mg3 2.028 . S
O2 C4 1.248 . S
Mg3 O2 2.028 . S
Mg3 O8 2.032 . S
Mg3 O10 2.079 . S
C4 O1 1.250 . S
C4 O2 1.248 . S
C5 O6 1.264 . S
C5 O13 1.249 . S
O6 C5 1.264 . S
O7 Mg0 1.986 . S
O7 C11 1.246 . S
O8 Mg3 2.032 . S
O8 C11 1.259 . S
O9 Mg0 2.114 . S
O9 C12 1.252 . S
O10 Mg0 2.251 . S
O10 Mg3 2.079 . S
O10 C12 1.273 . S
C11 O7 1.246 . S
C11 O8 1.259 . S
C12 O9 1.252 . S
C12 O10 1.273 . S
O13 Mg0 2.010 . S
O13 C5 1.249 . S
Mg14 O15 2.028 . S
Mg14 O21 1.986 . S
Mg14 O23 2.114 . S
Mg14 O24 2.251 . S
Mg14 O27 2.010 . S
O15 Mg14 2.028 . S
O15 C18 1.250 1_655 S
O16 Mg17 2.028 . S
O16 C18 1.248 . S
Mg17 O16 2.028 . S
Mg17 O22 2.032 . S
Mg17 O24 2.079 1_455 S
C18 O15 1.250 1_455 S
C18 O16 1.248 . S
C19 O20 1.264 . S
C19 O27 1.249 . S
O20 C19 1.264 . S
O21 Mg14 1.986 . S
O21 C25 1.246 . S
O22 Mg17 2.032 . S
O22 C25 1.259 1_455 S
O23 Mg14 2.114 . S
O23 C26 1.252 . S
O24 Mg14 2.251 . S
O24 Mg17 2.079 1_655 S
O24 C26 1.273 . S
C25 O21 1.246 . S
C25 O22 1.259 1_655 S
C26 O23 1.252 . S
C26 O24 1.273 . S
O27 Mg14 2.010 . S
O27 C19 1.249 . S
Mg28 O29 2.028 . S
Mg28 O35 1.986 . S
Mg28 O37 2.114 . S
Mg28 O38 2.251 . S
Mg28 O41 2.010 . S
O29 Mg28 2.028 . S
O29 C32 1.250 1_565 S
O30 Mg31 2.028 . S
O30 C32 1.248 . S
Mg31 O30 2.028 . S
Mg31 O36 2.032 . S
Mg31 O38 2.079 1_545 S
C32 O29 1.250 1_545 S
C32 O30 1.248 . S
C33 O34 1.264 . S
C33 O41 1.249 . S
O34 C33 1.264 . S
O35 Mg28 1.986 . S
O35 C39 1.246 . S
O36 Mg31 2.032 . S
O36 C39 1.259 1_545 S
O37 Mg28 2.114 . S
O37 C40 1.252 . S
O38 Mg28 2.251 . S
O38 Mg31 2.079 1_565 S
O38 C40 1.273 . S
C39 O35 1.246 . S
C39 O36 1.259 1_565 S
C40 O37 1.252 . S
C40 O38 1.273 . S
O41 Mg28 2.010 . S
O41 C33 1.249 . S
Mg42 O43 2.028 . S
Mg42 O49 1.986 . S
Mg42 O51 2.114 . S
Mg42 O52 2.251 . S
Mg42 O55 2.010 . S
O43 Mg42 2.028 . S
O43 C46 1.250 . S
O44 Mg45 2.028 . S
O44 C46 1.248 . S
Mg45 O44 2.028 . S
Mg45 O50 2.032 . S
Mg45 O52 2.079 . S
C46 O43 1.250 . S
C46 O44 1.248 . S
C47 O48 1.264 . S
C47 O55 1.249 . S
O48 C47 1.264 . S
O49 Mg42 1.986 . S
O49 C53 1.246 . S
O50 Mg45 2.032 . S
O50 C53 1.259 . S
O51 Mg42 2.114 . S
O51 C54 1.252 . S
O52 Mg42 2.251 . S
O52 Mg45 2.079 . S
O52 C54 1.273 . S
C53 O49 1.246 . S
C53 O50 1.259 . S
C54 O51 1.252 . S
C54 O52 1.273 . S
O55 Mg42 2.010 . S
O55 C47 1.249 . S
Mg56 O57 2.028 . S
Mg56 O63 1.986 . S
Mg56 O65 2.114 . S
Mg56 O66 2.251 . S
Mg56 O69 2.010 . S
O57 Mg56 2.028 . S
O57 C60 1.250 1_455 S
O58 Mg59 2.028 . S
O58 C60 1.248 . S
Mg59 O58 2.028 . S
Mg59 O64 2.032 . S
Mg59 O66 2.079 1_655 S
C60 O57 1.250 1_655 S
C60 O58 1.248 . S
C61 O62 1.264 . S
C61 O69 1.249 . S
O62 C61 1.264 . S
O63 Mg56 1.986 . S
O63 C67 1.246 . S
O64 Mg59 2.032 . S
O64 C67 1.259 1_655 S
O65 Mg56 2.114 . S
O65 C68 1.252 . S
O66 Mg56 2.251 . S
O66 Mg59 2.079 1_455 S
O66 C68 1.273 . S
C67 O63 1.246 . S
C67 O64 1.259 1_455 S
C68 O65 1.252 . S
C68 O66 1.273 . S
O69 Mg56 2.010 . S
O69 C61 1.249 . S
Mg70 O71 2.028 . S
Mg70 O77 1.986 . S
Mg70 O79 2.114 . S
Mg70 O80 2.251 . S
Mg70 O83 2.010 . S
O71 Mg70 2.028 . S
O71 C74 1.250 1_545 S
O72 Mg73 2.028 . S
O72 C74 1.248 . S
Mg73 O72 2.028 . S
Mg73 O78 2.032 . S
Mg73 O80 2.079 1_565 S
C74 O71 1.250 1_565 S
C74 O72 1.248 . S
C75 O76 1.264 . S
C75 O83 1.249 . S
O76 C75 1.264 . S
O77 Mg70 1.986 . S
O77 C81 1.246 . S
O78 Mg73 2.032 . S
O78 C81 1.259 1_565 S
O79 Mg70 2.114 . S
O79 C82 1.252 . S
O80 Mg70 2.251 . S
O80 Mg73 2.079 1_545 S
O80 C82 1.273 . S
C81 O77 1.246 . S
C81 O78 1.259 1_545 S
C82 O79 1.252 . S
C82 O80 1.273 . S
O83 Mg70 2.010 . S
O83 C75 1.249 . S
Mg84 O85 2.028 . S
Mg84 O91 1.986 . S
Mg84 O93 2.114 . S
Mg84 O94 2.251 . S
Mg84 O97 2.010 . S
O85 Mg84 2.028 . S
O85 C88 1.250 . S
O86 Mg87 2.028 . S
O86 C88 1.248 . S
Mg87 O86 2.028 . S
Mg87 O92 2.032 . S
Mg87 O94 2.079 . S
C88 O85 1.250 . S
C88 O86 1.248 . S
C89 O90 1.264 . S
C89 O97 1.249 . S
O90 C89 1.264 . S
O91 Mg84 1.986 . S
O91 C95 1.246 . S
O92 Mg87 2.032 . S
O92 C95 1.259 . S
O93 Mg84 2.114 . S
O93 C96 1.252 . S
O94 Mg84 2.251 . S
O94 Mg87 2.079 . S
O94 C96 1.273 . S
C95 O91 1.246 . S
C95 O92 1.259 . S
C96 O93 1.252 . S
C96 O94 1.273 . S
O97 Mg84 2.010 . S
O97 C89 1.249 . S
Mg98 O99 2.028 . S
Mg98 O105 1.986 . S
Mg98 O107 2.114 . S
Mg98 O108 2.251 . S
Mg98 O111 2.010 . S
O99 Mg98 2.028 . S
O99 C102 1.250 1_655 S
O100 Mg101 2.028 . S
O100 C102 1.248 . S
Mg101 O100 2.028 . S
Mg101 O106 2.032 . S
Mg101 O108 2.079 1_455 S
C102 O99 1.250 1_455 S
C102 O100 1.248 . S
C103 O104 1.264 . S
C103 O111 1.249 . S
O104 C103 1.264 . S
O105 Mg98 1.986 . S
O105 C109 1.246 . S
O106 Mg101 2.032 . S
O106 C109 1.259 1_455 S
O107 Mg98 2.114 . S
O107 C110 1.252 . S
O108 Mg98 2.251 . S
O108 Mg101 2.079 1_655 S
O108 C110 1.273 . S
C109 O105 1.246 . S
C109 O106 1.259 1_655 S
C110 O107 1.252 . S
C110 O108 1.273 . S
O111 Mg98 2.010 . S
O111 C103 1.249 . S
Mg112 O113 2.028 . S
Mg112 O119 1.986 . S
Mg112 O121 2.114 . S
Mg112 O122 2.251 . S
Mg112 O125 2.010 . S
O113 Mg112 2.028 . S
O113 C116 1.250 1_565 S
O114 Mg115 2.028 . S
O114 C116 1.248 . S
Mg115 O114 2.028 . S
Mg115 O120 2.032 . S
Mg115 O122 2.079 1_545 S
C116 O113 1.250 1_545 S
C116 O114 1.248 . S
C117 O118 1.264 . S
C117 O125 1.249 . S
O118 C117 1.264 . S
O119 Mg112 1.986 . S
O119 C123 1.246 . S
O120 Mg115 2.032 . S
O120 C123 1.259 1_545 S
O121 Mg112 2.114 . S
O121 C124 1.252 . S
O122 Mg112 2.251 . S
O122 Mg115 2.079 1_565 S
O122 C124 1.273 . S
C123 O119 1.246 . S
C123 O120 1.259 1_565 S
C124 O121 1.252 . S
C124 O122 1.273 . S
O125 Mg112 2.010 . S
O125 C117 1.249 . S
Mg126 O127 2.028 . S
Mg126 O133 1.986 . S
Mg126 O135 2.114 . S
Mg126 O136 2.251 . S
Mg126 O139 2.010 . S
O127 Mg126 2.028 . S
O127 C130 1.250 . S
O128 Mg129 2.028 . S
O128 C130 1.248 . S
Mg129 O128 2.028 . S
Mg129 O134 2.032 . S
Mg129 O136 2.079 . S
C130 O127 1.250 . S
C130 O128 1.248 . S
C131 O132 1.264 . S
C131 O139 1.249 . S
O132 C131 1.264 . S
O133 Mg126 1.986 . S
O133 C137 1.246 . S
O134 Mg129 2.032 . S
O134 C137 1.259 . S
O135 Mg126 2.114 . S
O135 C138 1.252 . S
O136 Mg126 2.251 . S
O136 Mg129 2.079 . S
O136 C138 1.273 . S
C137 O133 1.246 . S
C137 O134 1.259 . S
C138 O135 1.252 . S
C138 O136 1.273 . S
O139 Mg126 2.010 . S
O139 C131 1.249 . S
Mg140 O141 2.028 . S
Mg140 O147 1.986 . S
Mg140 O149 2.114 . S
Mg140 O150 2.251 . S
Mg140 O153 2.010 . S
O141 Mg140 2.028 . S
O141 C144 1.250 1_455 S
O142 Mg143 2.028 . S
O142 C144 1.248 . S
Mg143 O142 2.028 . S
Mg143 O148 2.032 . S
Mg143 O150 2.079 1_655 S
C144 O141 1.250 1_655 S
C144 O142 1.248 . S
C145 O146 1.264 . S
C145 O153 1.249 . S
O146 C145 1.264 . S
O147 Mg140 1.986 . S
O147 C151 1.246 . S
O148 Mg143 2.032 . S
O148 C151 1.259 1_655 S
O149 Mg140 2.114 . S
O149 C152 1.252 . S
O150 Mg140 2.251 . S
O150 Mg143 2.079 1_455 S
O150 C152 1.273 . S
C151 O147 1.246 . S
C151 O148 1.259 1_455 S
C152 O149 1.252 . S
C152 O150 1.273 . S
O153 Mg140 2.010 . S
O153 C145 1.249 . S
Mg154 O155 2.028 . S
Mg154 O161 1.986 . S
Mg154 O163 2.114 . S
Mg154 O164 2.251 . S
Mg154 O167 2.010 . S
O155 Mg154 2.028 . S
O155 C158 1.250 1_545 S
O156 Mg157 2.028 . S
O156 C158 1.248 . S
Mg157 O156 2.028 . S
Mg157 O162 2.032 . S
Mg157 O164 2.079 1_565 S
C158 O155 1.250 1_565 S
C158 O156 1.248 . S
C159 O160 1.264 . S
C159 O167 1.249 . S
O160 C159 1.264 . S
O161 Mg154 1.986 . S
O161 C165 1.246 . S
O162 Mg157 2.032 . S
O162 C165 1.259 1_565 S
O163 Mg154 2.114 . S
O163 C166 1.252 . S
O164 Mg154 2.251 . S
O164 Mg157 2.079 1_545 S
O164 C166 1.273 . S
C165 O161 1.246 . S
C165 O162 1.259 1_545 S
C166 O163 1.252 . S
C166 O164 1.273 . S
O167 Mg154 2.010 . S
O167 C159 1.249 . S
H168 C174 0.930 . S
H169 C178 0.930 . S
H170 C183 0.929 . S
H171 C181 0.929 . S
H172 C176 0.929 . S
H173 C182 0.929 . S
C174 H168 0.930 . S
C174 C175 1.367 . S
C174 C182 1.378 . S
C175 C174 1.367 . S
C175 C183 1.433 . S
C176 H172 0.929 . S
C176 C178 1.378 . S
C176 C180 1.350 . S
C177 C180 1.463 1_655 S
C177 C182 1.350 . S
C177 N185 1.427 . S
C178 H169 0.930 . S
C178 C176 1.378 . S
C178 C179 1.367 . S
C179 C178 1.367 . S
C179 C181 1.433 . S
C180 C176 1.350 . S
C180 C177 1.463 1_455 S
C180 N184 1.427 . S
C181 H171 0.929 . S
C181 C179 1.433 . S
C181 N184 1.384 . S
C182 H173 0.929 . S
C182 C174 1.378 . S
C182 C177 1.350 . S
C183 H170 0.929 . S
C183 C175 1.433 . S
C183 N185 1.384 . S
N184 C180 1.427 . S
N184 C181 1.384 . S
N185 C177 1.427 . S
N185 C183 1.384 . S
H186 C192 0.930 . S
H187 C196 0.930 . S
H188 C201 0.929 . S
H189 C199 0.929 . S
H190 C194 0.929 . S
H191 C200 0.929 . S
C192 H186 0.930 . S
C192 C193 1.367 . S
C192 C200 1.378 . S
C193 C192 1.367 . S
C193 C201 1.433 . S
C194 H190 0.929 . S
C194 C196 1.378 . S
C194 C198 1.350 . S
C195 C198 1.463 1_545 S
C195 C200 1.350 . S
C195 N203 1.427 . S
C196 H187 0.930 . S
C196 C194 1.378 . S
C196 C197 1.367 . S
C197 C196 1.367 . S
C197 C199 1.433 . S
C198 C194 1.350 . S
C198 C195 1.463 1_565 S
C198 N202 1.427 . S
C199 H189 0.929 . S
C199 C197 1.433 . S
C199 N202 1.384 . S
C200 H191 0.929 . S
C200 C192 1.378 . S
C200 C195 1.350 . S
C201 H188 0.929 . S
C201 C193 1.433 . S
C201 N203 1.384 . S
N202 C198 1.427 . S
N202 C199 1.384 . S
N203 C195 1.427 . S
N203 C201 1.384 . S
H204 C210 0.930 . S
H205 C214 0.930 . S
H206 C219 0.929 . S
H207 C217 0.929 . S
H208 C212 0.929 . S
H209 C218 0.929 . S
C210 H204 0.930 . S
C210 C211 1.367 . S
C210 C218 1.378 . S
C211 C210 1.367 . S
C211 C219 1.433 . S
C212 H208 0.929 . S
C212 C214 1.378 . S
C212 C216 1.350 . S
C213 C216 1.463 . S
C213 C218 1.350 . S
C213 N221 1.427 . S
C214 H205 0.930 . S
C214 C212 1.378 . S
C214 C215 1.367 . S
C215 C214 1.367 . S
C215 C217 1.433 . S
C216 C212 1.350 . S
C216 C213 1.463 . S
C216 N220 1.427 . S
C217 H207 0.929 . S
C217 C215 1.433 . S
C217 N220 1.384 . S
C218 H209 0.929 . S
C218 C210 1.378 . S
C218 C213 1.350 . S
C219 H206 0.929 . S
C219 C211 1.433 . S
C219 N221 1.384 . S
N220 C216 1.427 . S
N220 C217 1.384 . S
N221 C213 1.427 . S
N221 C219 1.384 . S
H222 C228 0.930 . S
H223 C232 0.930 . S
H224 C237 0.929 . S
H225 C235 0.929 . S
H226 C230 0.929 . S
H227 C236 0.929 . S
C228 H222 0.930 . S
C228 C229 1.367 . S
C228 C236 1.378 . S
C229 C228 1.367 . S
C229 C237 1.433 . S
C230 H226 0.929 . S
C230 C232 1.378 . S
C230 C234 1.350 . S
C231 C234 1.463 1_655 S
C231 C236 1.350 . S
C231 N239 1.427 . S
C232 H223 0.930 . S
C232 C230 1.378 . S
C232 C233 1.367 . S
C233 C232 1.367 . S
C233 C235 1.433 . S
C234 C230 1.350 . S
C234 C231 1.463 1_455 S
C234 N238 1.427 . S
C235 H225 0.929 . S
C235 C233 1.433 . S
C235 N238 1.384 . S
C236 H227 0.929 . S
C236 C228 1.378 . S
C236 C231 1.350 . S
C237 H224 0.929 . S
C237 C229 1.433 . S
C237 N239 1.384 . S
N238 C234 1.427 . S
N238 C235 1.384 . S
N239 C231 1.427 . S
N239 C237 1.384 . S
H240 C246 0.930 . S
H241 C250 0.930 . S
H242 C255 0.929 . S
H243 C253 0.929 . S
H244 C248 0.929 . S
H245 C254 0.929 . S
C246 H240 0.930 . S
C246 C247 1.367 . S
C246 C254 1.378 . S
C247 C246 1.367 . S
C247 C255 1.433 . S
C248 H244 0.929 . S
C248 C250 1.378 . S
C248 C252 1.350 . S
C249 C252 1.463 1_545 S
C249 C254 1.350 . S
C249 N257 1.427 . S
C250 H241 0.930 . S
C250 C248 1.378 . S
C250 C251 1.367 . S
C251 C250 1.367 . S
C251 C253 1.433 . S
C252 C248 1.350 . S
C252 C249 1.463 1_565 S
C252 N256 1.427 . S
C253 H243 0.929 . S
C253 C251 1.433 . S
C253 N256 1.384 . S
C254 H245 0.929 . S
C254 C246 1.378 . S
C254 C249 1.350 . S
C255 H242 0.929 . S
C255 C247 1.433 . S
C255 N257 1.384 . S
N256 C252 1.427 . S
N256 C253 1.384 . S
N257 C249 1.427 . S
N257 C255 1.384 . S
H258 C264 0.930 . S
H259 C268 0.930 . S
H260 C273 0.929 . S
H261 C271 0.929 . S
H262 C266 0.929 . S
H263 C272 0.929 . S
C264 H258 0.930 . S
C264 C265 1.367 . S
C264 C272 1.378 . S
C265 C264 1.367 . S
C265 C273 1.433 . S
C266 H262 0.929 . S
C266 C268 1.378 . S
C266 C270 1.350 . S
C267 C270 1.463 . S
C267 C272 1.350 . S
C267 N275 1.427 . S
C268 H259 0.930 . S
C268 C266 1.378 . S
C268 C269 1.367 . S
C269 C268 1.367 . S
C269 C271 1.433 . S
C270 C266 1.350 . S
C270 C267 1.463 . S
C270 N274 1.427 . S
C271 H261 0.929 . S
C271 C269 1.433 . S
C271 N274 1.384 . S
C272 H263 0.929 . S
C272 C264 1.378 . S
C272 C267 1.350 . S
C273 H260 0.929 . S
C273 C265 1.433 . S
C273 N275 1.384 . S
N274 C270 1.427 . S
N274 C271 1.384 . S
N275 C267 1.427 . S
N275 C273 1.384 . S
H276 C282 0.930 . S
H277 C286 0.930 . S
H278 C291 0.929 . S
H279 C289 0.929 . S
H280 C284 0.929 . S
H281 C290 0.929 . S
C282 H276 0.930 . S
C282 C283 1.367 . S
C282 C290 1.378 . S
C283 C282 1.367 . S
C283 C291 1.433 . S
C284 H280 0.929 . S
C284 C286 1.378 . S
C284 C288 1.350 . S
C285 C288 1.463 . S
C285 C290 1.350 . S
C285 N293 1.427 . S
C286 H277 0.930 . S
C286 C284 1.378 . S
C286 C287 1.367 . S
C287 C286 1.367 . S
C287 C289 1.433 . S
C288 C284 1.350 . S
C288 C285 1.463 . S
C288 N292 1.427 . S
C289 H279 0.929 . S
C289 C287 1.433 . S
C289 N292 1.384 . S
C290 H281 0.929 . S
C290 C282 1.378 . S
C290 C285 1.350 . S
C291 H278 0.929 . S
C291 C283 1.433 . S
C291 N293 1.384 . S
N292 C288 1.427 . S
N292 C289 1.384 . S
N293 C285 1.427 . S
N293 C291 1.384 . S
H294 C300 0.930 1_655 S
H295 C304 0.930 1_455 S
H296 C309 0.929 . S
H297 C307 0.929 . S
H298 C302 0.929 . S
H299 C308 0.929 . S
C300 H294 0.930 1_455 S
C300 C301 1.367 . S
C300 C308 1.378 1_455 S
C301 C300 1.367 . S
C301 C309 1.433 . S
C302 H298 0.929 . S
C302 C304 1.378 1_455 S
C302 C306 1.350 1_455 S
C303 C306 1.463 1_455 S
C303 C308 1.350 1_455 S
C303 N311 1.427 . S
C304 H295 0.930 1_655 S
C304 C302 1.378 1_655 S
C304 C305 1.367 . S
C305 C304 1.367 . S
C305 C307 1.433 . S
C306 C302 1.350 1_655 S
C306 C303 1.463 1_655 S
C306 N310 1.427 . S
C307 H297 0.929 . S
C307 C305 1.433 . S
C307 N310 1.384 . S
C308 H299 0.929 . S
C308 C300 1.378 1_655 S
C308 C303 1.350 1_655 S
C309 H296 0.929 . S
C309 C301 1.433 . S
C309 N311 1.384 . S
N310 C306 1.427 . S
N310 C307 1.384 . S
N311 C303 1.427 . S
N311 C309 1.384 . S
H312 C318 0.930 . S
H313 C322 0.930 . S
H314 C327 0.929 . S
H315 C325 0.929 . S
H316 C320 0.929 . S
H317 C326 0.929 . S
C318 H312 0.930 . S
C318 C319 1.367 . S
C318 C326 1.378 . S
C319 C318 1.367 . S
C319 C327 1.433 . S
C320 H316 0.929 . S
C320 C322 1.378 . S
C320 C324 1.350 . S
C321 C324 1.463 1_545 S
C321 C326 1.350 . S
C321 N329 1.430 1_545 S
C322 H313 0.930 . S
C322 C320 1.378 . S
C322 C323 1.367 . S
C323 C322 1.367 . S
C323 C325 1.433 . S
C324 C320 1.350 . S
C324 C321 1.463 1_565 S
C324 N328 1.430 1_565 S
C325 H315 0.929 . S
C325 C323 1.433 . S
C325 N328 1.367 1_565 S
C326 H317 0.929 . S
C326 C318 1.378 . S
C326 C321 1.350 . S
C327 H314 0.929 . S
C327 C319 1.433 . S
C327 N329 1.367 1_545 S
N328 C324 1.430 1_545 S
N328 C325 1.367 1_545 S
N329 C321 1.430 1_565 S
N329 C327 1.367 1_565 S
H330 C336 0.930 . S
H331 C340 0.930 . S
H332 C345 0.929 . S
H333 C343 0.929 . S
H334 C338 0.929 . S
H335 C344 0.929 . S
C336 H330 0.930 . S
C336 C337 1.367 . S
C336 C344 1.378 . S
C337 C336 1.367 . S
C337 C345 1.433 . S
C338 H334 0.929 . S
C338 C340 1.378 . S
C338 C342 1.350 . S
C339 C342 1.463 . S
C339 C344 1.350 . S
C339 N347 1.427 . S
C340 H331 0.930 . S
C340 C338 1.378 . S
C340 C341 1.367 . S
C341 C340 1.367 . S
C341 C343 1.433 . S
C342 C338 1.350 . S
C342 C339 1.463 . S
C342 N346 1.427 . S
C343 H333 0.929 . S
C343 C341 1.433 . S
C343 N346 1.384 . S
C344 H335 0.929 . S
C344 C336 1.378 . S
C344 C339 1.350 . S
C345 H332 0.929 . S
C345 C337 1.433 . S
C345 N347 1.384 . S
N346 C342 1.427 . S
N346 C343 1.384 . S
N347 C339 1.427 . S
N347 C345 1.384 . S
H348 C354 0.930 . S
H349 C358 0.930 . S
H350 C363 0.929 . S
H351 C361 0.929 . S
H352 C356 0.929 . S
H353 C362 0.929 . S
C354 H348 0.930 . S
C354 C355 1.367 . S
C354 C362 1.378 . S
C355 C354 1.367 . S
C355 C363 1.433 . S
C356 H352 0.929 . S
C356 C358 1.378 . S
C356 C360 1.350 . S
C357 C360 1.463 1_655 S
C357 C362 1.350 . S
C357 N365 1.427 . S
C358 H349 0.930 . S
C358 C356 1.378 . S
C358 C359 1.367 . S
C359 C358 1.367 . S
C359 C361 1.433 . S
C360 C356 1.350 . S
C360 C357 1.463 1_455 S
C360 N364 1.427 . S
C361 H351 0.929 . S
C361 C359 1.433 . S
C361 N364 1.384 . S
C362 H353 0.929 . S
C362 C354 1.378 . S
C362 C357 1.350 . S
C363 H350 0.929 . S
C363 C355 1.433 . S
C363 N365 1.384 . S
N364 C360 1.427 . S
N364 C361 1.384 . S
N365 C357 1.427 . S
N365 C363 1.384 . S
H366 C372 0.930 . S
H367 C376 0.930 . S
H368 C381 0.929 . S
H369 C379 0.929 . S
H370 C374 0.929 1_565 S
H371 C380 0.929 1_545 S
C372 H366 0.930 . S
C372 C373 1.367 . S
C372 C380 1.378 . S
C373 C372 1.367 . S
C373 C381 1.433 . S
C374 H370 0.929 1_545 S
C374 C376 1.378 . S
C374 C378 1.350 . S
C375 C378 1.463 1_565 S
C375 C380 1.350 . S
C375 N383 1.427 . S
C376 H367 0.930 . S
C376 C374 1.378 . S
C376 C377 1.367 . S
C377 C376 1.367 . S
C377 C379 1.433 . S
C378 C374 1.350 . S
C378 C375 1.463 1_545 S
C378 N382 1.427 . S
C379 H369 0.929 . S
C379 C377 1.433 . S
C379 N382 1.384 . S
C380 H371 0.929 1_565 S
C380 C372 1.378 . S
C380 C375 1.350 . S
C381 H368 0.929 . S
C381 C373 1.433 . S
C381 N383 1.384 . S
N382 C378 1.427 . S
N382 C379 1.384 . S
N383 C375 1.427 . S
N383 C381 1.384 . S
H384 C390 0.930 . S
H385 C394 0.930 . S
H386 C399 0.929 . S
H387 C397 0.929 . S
H388 C392 0.929 . S
H389 C398 0.929 . S
C390 H384 0.930 . S
C390 C391 1.367 . S
C390 C398 1.378 . S
C391 C390 1.367 . S
C391 C399 1.433 . S
C392 H388 0.929 . S
C392 C394 1.378 . S
C392 C396 1.350 . S
C393 C396 1.463 . S
C393 C398 1.350 . S
C393 N401 1.427 . S
C394 H385 0.930 . S
C394 C392 1.378 . S
C394 C395 1.367 . S
C395 C394 1.367 . S
C395 C397 1.433 . S
C396 C392 1.350 . S
C396 C393 1.463 . S
C396 N400 1.427 . S
C397 H387 0.929 . S
C397 C395 1.433 . S
C397 N400 1.384 . S
C398 H389 0.929 . S
C398 C390 1.378 . S
C398 C393 1.350 . S
C399 H386 0.929 . S
C399 C391 1.433 . S
C399 N401 1.384 . S
N400 C396 1.427 . S
N400 C397 1.384 . S
N401 C393 1.427 . S
N401 C399 1.384 . S
H402 C408 0.930 . S
H403 C412 0.930 . S
H404 C417 0.929 . S
H405 C415 0.929 . S
H406 C410 0.929 . S
H407 C416 0.929 . S
C408 H402 0.930 . S
C408 C409 1.367 . S
C408 C416 1.378 . S
C409 C408 1.367 . S
C409 C417 1.433 . S
C410 H406 0.929 . S
C410 C412 1.378 . S
C410 C414 1.350 . S
C411 C414 1.463 . S
C411 C416 1.350 . S
C411 N419 1.427 . S
C412 H403 0.930 . S
C412 C410 1.378 . S
C412 C413 1.367 . S
C413 C412 1.367 . S
C413 C415 1.433 . S
C414 C410 1.350 . S
C414 C411 1.463 . S
C414 N418 1.427 . S
C415 H405 0.929 . S
C415 C413 1.433 . S
C415 N418 1.384 . S
C416 H407 0.929 . S
C416 C408 1.378 . S
C416 C411 1.350 . S
C417 H404 0.929 . S
C417 C409 1.433 . S
C417 N419 1.384 . S
N418 C414 1.427 . S
N418 C415 1.384 . S
N419 C411 1.427 . S
N419 C417 1.384 . S
H420 C426 0.930 . S
H421 C430 0.929 . S
H422 C435 0.929 . S
H423 C433 0.929 . S
H424 C428 0.929 . S
H425 C434 0.929 . S
C426 H420 0.930 . S
C426 C427 1.367 . S
C426 C434 1.378 . S
C427 C426 1.367 . S
C427 C435 1.433 . S
C428 H424 0.929 . S
C428 C430 1.378 . S
C428 C432 1.350 . S
C429 C432 1.463 . S
C429 C434 1.350 . S
C429 N437 1.427 . S
C430 H421 0.929 . S
C430 C428 1.378 . S
C430 C431 1.367 . S
C431 C430 1.367 . S
C431 C433 1.433 . S
C432 C428 1.350 . S
C432 C429 1.463 . S
C432 N436 1.427 . S
C433 H423 0.929 . S
C433 C431 1.433 . S
C433 N436 1.384 . S
C434 H425 0.929 . S
C434 C426 1.378 . S
C434 C429 1.350 . S
C435 H422 0.929 . S
C435 C427 1.433 . S
C435 N437 1.384 . S
N436 C432 1.427 . S
N436 C433 1.384 . S
N437 C429 1.427 . S
N437 C435 1.384 . S
H438 C444 0.930 . S
H439 C448 0.930 . S
H440 C453 0.929 . S
H441 C451 0.929 . S
H442 C446 0.929 . S
H443 C452 0.929 . S
C444 H438 0.930 . S
C444 C445 1.367 . S
C444 C452 1.378 . S
C445 C444 1.367 . S
C445 C453 1.433 . S
C446 H442 0.929 . S
C446 C448 1.378 . S
C446 C450 1.350 . S
C447 C450 1.463 . S
C447 C452 1.350 . S
C447 N455 1.427 . S
C448 H439 0.930 . S
C448 C446 1.378 . S
C448 C449 1.367 . S
C449 C448 1.367 . S
C449 C451 1.433 . S
C450 C446 1.350 . S
C450 C447 1.463 . S
C450 N454 1.427 . S
C451 H441 0.929 . S
C451 C449 1.433 . S
C451 N454 1.384 . S
C452 H443 0.929 . S
C452 C444 1.378 . S
C452 C447 1.350 . S
C453 H440 0.929 . S
C453 C445 1.433 . S
C453 N455 1.384 . S
N454 C450 1.427 . S
N454 C451 1.384 . S
N455 C447 1.427 . S
N455 C453 1.384 . S
H456 C462 0.930 . S
H457 C466 0.938 . S
H458 C471 0.929 . S
H459 C469 0.929 . S
H460 C464 0.929 . S
H461 C470 0.929 . S
C462 H456 0.930 . S
C462 C463 1.367 . S
C462 C470 1.378 . S
C463 C462 1.367 . S
C463 C471 1.433 . S
C464 H460 0.929 . S
C464 C466 1.378 . S
C464 C468 1.350 . S
C465 C468 1.463 . S
C465 C470 1.350 . S
C465 N473 1.427 . S
C466 H457 0.938 . S
C466 C464 1.378 . S
C466 C467 1.367 . S
C467 C466 1.367 . S
C467 C469 1.433 . S
C468 C464 1.350 . S
C468 C465 1.463 . S
C468 N472 1.427 . S
C469 H459 0.929 . S
C469 C467 1.433 . S
C469 N472 1.384 . S
C470 H461 0.929 . S
C470 C462 1.378 . S
C470 C465 1.350 . S
C471 H458 0.929 . S
C471 C463 1.433 . S
C471 N473 1.384 . S
N472 C468 1.427 . S
N472 C469 1.384 . S
N473 C465 1.427 . S
N473 C471 1.384 . S
H474 C480 0.930 . S
H475 C484 0.930 . S
H476 C489 0.921 1_545 S
H477 C487 0.929 . S
H478 C482 0.929 . S
H479 C488 0.929 . S
C480 H474 0.930 . S
C480 C481 1.367 . S
C480 C488 1.378 . S
C481 C480 1.367 . S
C481 C489 1.433 . S
C482 H478 0.929 . S
C482 C484 1.378 . S
C482 C486 1.350 . S
C483 C486 1.463 . S
C483 C488 1.350 . S
C483 N491 1.427 . S
C484 H475 0.930 . S
C484 C482 1.378 . S
C484 C485 1.367 . S
C485 C484 1.367 . S
C485 C487 1.433 . S
C486 C482 1.350 . S
C486 C483 1.463 . S
C486 N490 1.427 . S
C487 H477 0.929 . S
C487 C485 1.433 . S
C487 N490 1.384 . S
C488 H479 0.929 . S
C488 C480 1.378 . S
C488 C483 1.350 . S
C489 H476 0.921 1_565 S
C489 C481 1.433 . S
C489 N491 1.384 . S
N490 C486 1.427 . S
N490 C487 1.384 . S
N491 C483 1.427 . S
N491 C489 1.384 . S
H492 C498 0.930 . S
H493 C502 0.930 . S
H494 C507 0.929 . S
H495 C505 0.929 . S
H496 C500 0.929 . S
H497 C506 0.929 . S
C498 H492 0.930 . S
C498 C499 1.367 . S
C498 C506 1.378 . S
C499 C498 1.367 . S
C499 C507 1.433 . S
C500 H496 0.929 . S
C500 C502 1.378 . S
C500 C504 1.350 . S
C501 C504 1.463 . S
C501 C506 1.350 . S
C501 N509 1.427 . S
C502 H493 0.930 . S
C502 C500 1.378 . S
C502 C503 1.367 . S
C503 C502 1.367 . S
C503 C505 1.433 . S
C504 C500 1.350 . S
C504 C501 1.463 . S
C504 N508 1.427 . S
C505 H495 0.929 . S
C505 C503 1.433 . S
C505 N508 1.384 . S
C506 H497 0.929 . S
C506 C498 1.378 . S
C506 C501 1.350 . S
C507 H494 0.929 . S
C507 C499 1.433 . S
C507 N509 1.384 . S
N508 C504 1.427 . S
N508 C505 1.384 . S
N509 C501 1.427 . S
N509 C507 1.384 . S
H510 C516 0.930 . S
H511 C520 0.930 . S
H512 C525 0.929 . S
H513 C523 0.929 . S
H514 C518 0.929 . S
H515 C524 0.929 . S
C516 H510 0.930 . S
C516 C517 1.367 . S
C516 C524 1.378 . S
C517 C516 1.367 . S
C517 C525 1.433 . S
C518 H514 0.929 . S
C518 C520 1.378 . S
C518 C522 1.350 . S
C519 C522 1.463 1_655 S
C519 C524 1.350 . S
C519 N527 1.427 . S
C520 H511 0.930 . S
C520 C518 1.378 . S
C520 C521 1.367 . S
C521 C520 1.367 . S
C521 C523 1.433 . S
C522 C518 1.350 . S
C522 C519 1.463 1_455 S
C522 N526 1.427 . S
C523 H513 0.929 . S
C523 C521 1.433 . S
C523 N526 1.384 . S
C524 H515 0.929 . S
C524 C516 1.378 . S
C524 C519 1.350 . S
C525 H512 0.929 . S
C525 C517 1.433 . S
C525 N527 1.384 . S
N526 C522 1.427 . S
N526 C523 1.384 . S
N527 C519 1.427 . S
N527 C525 1.384 . S
H528 C534 0.930 . S
H529 C538 0.930 . S
H530 C543 0.944 . S
H531 C541 0.944 . S
H532 C536 0.929 . S
H533 C542 0.929 . S
C534 H528 0.930 . S
C534 C535 1.367 . S
C534 C542 1.378 . S
C535 C534 1.367 . S
C535 C543 1.433 . S
C536 H532 0.929 . S
C536 C538 1.378 . S
C536 C540 1.350 . S
C537 C540 1.463 1_544 S
C537 C542 1.350 . S
C537 N545 1.427 1_545 S
C538 H529 0.930 . S
C538 C536 1.378 . S
C538 C539 1.367 . S
C539 C538 1.367 . S
C539 C541 1.433 . S
C540 C536 1.350 . S
C540 C537 1.463 1_566 S
C540 N544 1.427 1_565 S
C541 H531 0.944 . S
C541 C539 1.433 . S
C541 N544 1.384 1_565 S
C542 H533 0.929 . S
C542 C534 1.378 . S
C542 C537 1.350 . S
C543 H530 0.944 . S
C543 C535 1.433 . S
C543 N545 1.384 1_545 S
N544 C540 1.427 1_545 S
N544 C541 1.384 1_545 S
N545 C537 1.427 1_565 S
N545 C543 1.384 1_565 S
H546 C552 0.930 . S
H547 C556 0.930 . S
H548 C561 0.929 . S
H549 C559 0.929 . S
H550 C554 0.929 . S
H551 C560 0.929 . S
C552 H546 0.930 . S
C552 C553 1.367 . S
C552 C560 1.378 . S
C553 C552 1.367 . S
C553 C561 1.433 . S
C554 H550 0.929 . S
C554 C556 1.378 . S
C554 C558 1.350 . S
C555 C558 1.463 . S
C555 C560 1.350 . S
C555 N563 1.427 . S
C556 H547 0.930 . S
C556 C554 1.378 . S
C556 C557 1.367 . S
C557 C556 1.367 . S
C557 C559 1.433 . S
C558 C554 1.350 . S
C558 C555 1.463 . S
C558 N562 1.427 . S
C559 H549 0.929 . S
C559 C557 1.433 . S
C559 N562 1.384 . S
C560 H551 0.929 . S
C560 C552 1.378 . S
C560 C555 1.350 . S
C561 H548 0.929 . S
C561 C553 1.433 . S
C561 N563 1.384 . S
N562 C558 1.427 . S
N562 C559 1.384 . S
N563 C555 1.427 . S
N563 C561 1.384 . S
H564 C570 0.930 1_655 S
H565 C574 0.930 1_455 S
H566 C579 0.929 . S
H567 C577 0.929 . S
H568 C572 0.929 . S
H569 C578 0.929 . S
C570 H564 0.930 1_455 S
C570 C571 1.367 . S
C570 C578 1.378 1_455 S
C571 C570 1.367 . S
C571 C579 1.433 . S
C572 H568 0.929 . S
C572 C574 1.378 1_455 S
C572 C576 1.350 1_455 S
C573 C576 1.463 1_455 S
C573 C578 1.350 1_455 S
C573 N581 1.427 . S
C574 H565 0.930 1_655 S
C574 C572 1.378 1_655 S
C574 C575 1.367 . S
C575 C574 1.367 . S
C575 C577 1.433 . S
C576 C572 1.350 1_655 S
C576 C573 1.463 1_655 S
C576 N580 1.427 . S
C577 H567 0.929 . S
C577 C575 1.433 . S
C577 N580 1.384 . S
C578 H569 0.929 . S
C578 C570 1.378 1_655 S
C578 C573 1.350 1_655 S
C579 H566 0.929 . S
C579 C571 1.433 . S
C579 N581 1.384 . S
N580 C576 1.427 . S
N580 C577 1.384 . S
N581 C573 1.427 . S
N581 C579 1.384 . S
H582 C588 0.930 . S
H583 C592 0.930 . S
H584 C597 0.929 . S
H585 C595 0.929 . S
H586 C590 0.929 . S
H587 C596 0.929 . S
C588 H582 0.930 . S
C588 C589 1.367 1_545 S
C588 C596 1.378 . S
C589 C588 1.367 1_565 S
C589 C597 1.433 . S
C590 H586 0.929 . S
C590 C592 1.378 . S
C590 C594 1.350 1_565 S
C591 C594 1.463 1_564 S
C591 C596 1.350 1_565 S
C591 N599 1.427 . S
C592 H583 0.930 . S
C592 C590 1.378 . S
C592 C593 1.367 1_565 S
C593 C592 1.367 1_545 S
C593 C595 1.433 . S
C594 C590 1.350 1_545 S
C594 C591 1.463 1_546 S
C594 N598 1.427 . S
C595 H585 0.929 . S
C595 C593 1.433 . S
C595 N598 1.384 . S
C596 H587 0.929 . S
C596 C588 1.378 . S
C596 C591 1.350 1_545 S
C597 H584 0.929 . S
C597 C589 1.433 . S
C597 N599 1.384 . S
N598 C594 1.427 . S
N598 C595 1.384 . S
N599 C591 1.427 . S
N599 C597 1.384 . S
C175 C159 1.282 . S
C179 C5 1.294 . S
C193 C19 1.272 . S
C197 C89 1.277 . S
C211 C33 1.294 . S
C215 C103 1.280 . S
C229 C47 1.293 . S
C233 C117 1.284 . S
C247 C131 1.269 . S
C251 C61 1.286 . S
C265 C75 1.277 . S
C269 C145 1.272 . S
C283 C54 1.105 . S
C287 C12 1.112 . S
C301 C68 1.107 . S
C305 C26 1.105 . S
C319 C82 1.114 . S
C323 C40 1.122 . S
C337 C96 1.105 . S
C341 C138 1.108 . S
C355 C110 1.113 . S
C359 C152 1.121 . S
C373 C124 1.116 . S
C377 C166 1.107 . S
C391 C116 0.767 . S
C395 C4 0.768 . S
C409 C18 0.766 . S
C413 C130 0.751 . S
C427 C144 0.761 . S
C431 C32 0.771 . S
C445 C158 0.755 . S
C449 C46 0.752 . S
C463 C88 0.755 . S
C467 C60 0.770 . S
C481 C74 0.750 . S
C485 C102 0.759 . S
C499 C137 1.522 . S
C503 C11 1.515 . S
C517 C25 1.516 . S
C521 C151 1.524 . S
C535 C165 1.519 . S
C539 C39 1.526 . S
C553 C53 1.518 . S
C557 C95 1.514 . S
C571 C67 1.522 . S
C575 C109 1.515 . S
C589 C123 1.514 . S
C593 C81 1.518 . S
