# Generated by pormake.
# Topology umh, (4)-cn, num edge types: 1
# Building blocks:
#     Node 0, Type 0, BuildingBlock: QUQFOY_clean_sbu_1, # of connection points: 4
#     Node 1, Type 0, BuildingBlock: QUQFOY_clean_sbu_1, # of connection points: 4
#     Node 2, Type 0, BuildingBlock: QUQFOY_clean_sbu_1, # of connection points: 4
#     Node 3, Type 0, BuildingBlock: QUQFOY_clean_sbu_1, # of connection points: 4
#     Node 4, Type 0, BuildingBlock: QUQFOY_clean_sbu_1, # of connection points: 4
#     Node 5, Type 0, BuildingBlock: QUQFOY_clean_sbu_1, # of connection points: 4
#     Node 6, Type 0, BuildingBlock: QUQFOY_clean_sbu_1, # of connection points: 4
#     Node 7, Type 0, BuildingBlock: QUQFOY_clean_sbu_1, # of connection points: 4
#     Node 8, Type 0, BuildingBlock: QUQFOY_clean_sbu_1, # of connection points: 4
#     Node 9, Type 0, BuildingBlock: QUQFOY_clean_sbu_1, # of connection points: 4
#     Node 10, Type 0, BuildingBlock: QUQFOY_clean_sbu_1, # of connection points: 4
#     Node 11, Type 0, BuildingBlock: QUQFOY_clean_sbu_1, # of connection points: 4
#     Node 12, Type 0, BuildingBlock: QUQFOY_clean_sbu_1, # of connection points: 4
#     Node 13, Type 0, BuildingBlock: QUQFOY_clean_sbu_1, # of connection points: 4
#     Node 14, Type 0, BuildingBlock: QUQFOY_clean_sbu_1, # of connection points: 4
#     Node 15, Type 0, BuildingBlock: QUQFOY_clean_sbu_1, # of connection points: 4
#     Edge 16, Type (0, 0), BuildingBlock: ZUJKAS_clean_linker_0, # of connection points: 2
#     Edge 17, Type (0, 0), BuildingBlock: ZUJKAS_clean_linker_0, # of connection points: 2
#     Edge 18, Type (0, 0), BuildingBlock: ZUJKAS_clean_linker_0, # of connection points: 2
#     Edge 19, Type (0, 0), BuildingBlock: ZUJKAS_clean_linker_0, # of connection points: 2
#     Edge 20, Type (0, 0), BuildingBlock: ZUJKAS_clean_linker_0, # of connection points: 2
#     Edge 21, Type (0, 0), BuildingBlock: ZUJKAS_clean_linker_0, # of connection points: 2
#     Edge 22, Type (0, 0), BuildingBlock: ZUJKAS_clean_linker_0, # of connection points: 2
#     Edge 23, Type (0, 0), BuildingBlock: ZUJKAS_clean_linker_0, # of connection points: 2
#     Edge 24, Type (0, 0), BuildingBlock: ZUJKAS_clean_linker_0, # of connection points: 2
#     Edge 25, Type (0, 0), BuildingBlock: ZUJKAS_clean_linker_0, # of connection points: 2
#     Edge 26, Type (0, 0), BuildingBlock: ZUJKAS_clean_linker_0, # of connection points: 2
#     Edge 27, Type (0, 0), BuildingBlock: ZUJKAS_clean_linker_0, # of connection points: 2
#     Edge 28, Type (0, 0), BuildingBlock: ZUJKAS_clean_linker_0, # of connection points: 2
#     Edge 29, Type (0, 0), BuildingBlock: ZUJKAS_clean_linker_0, # of connection points: 2
#     Edge 30, Type (0, 0), BuildingBlock: ZUJKAS_clean_linker_0, # of connection points: 2
#     Edge 31, Type (0, 0), BuildingBlock: ZUJKAS_clean_linker_0, # of connection points: 2
#     Edge 32, Type (0, 0), BuildingBlock: ZUJKAS_clean_linker_0, # of connection points: 2
#     Edge 33, Type (0, 0), BuildingBlock: ZUJKAS_clean_linker_0, # of connection points: 2
#     Edge 34, Type (0, 0), BuildingBlock: ZUJKAS_clean_linker_0, # of connection points: 2
#     Edge 35, Type (0, 0), BuildingBlock: ZUJKAS_clean_linker_0, # of connection points: 2
#     Edge 36, Type (0, 0), BuildingBlock: ZUJKAS_clean_linker_0, # of connection points: 2
#     Edge 37, Type (0, 0), BuildingBlock: ZUJKAS_clean_linker_0, # of connection points: 2
#     Edge 38, Type (0, 0), BuildingBlock: ZUJKAS_clean_linker_0, # of connection points: 2
#     Edge 39, Type (0, 0), BuildingBlock: ZUJKAS_clean_linker_0, # of connection points: 2
#     Edge 40, Type (0, 0), BuildingBlock: ZUJKAS_clean_linker_0, # of connection points: 2
#     Edge 41, Type (0, 0), BuildingBlock: ZUJKAS_clean_linker_0, # of connection points: 2
#     Edge 42, Type (0, 0), BuildingBlock: ZUJKAS_clean_linker_0, # of connection points: 2
#     Edge 43, Type (0, 0), BuildingBlock: ZUJKAS_clean_linker_0, # of connection points: 2
#     Edge 44, Type (0, 0), BuildingBlock: ZUJKAS_clean_linker_0, # of connection points: 2
#     Edge 45, Type (0, 0), BuildingBlock: ZUJKAS_clean_linker_0, # of connection points: 2
#     Edge 46, Type (0, 0), BuildingBlock: ZUJKAS_clean_linker_0, # of connection points: 2
#     Edge 47, Type (0, 0), BuildingBlock: ZUJKAS_clean_linker_0, # of connection points: 2
# Relax obj value: 0.066
# Max RMSD: 0.294
# Mean RMSD: 0.294
data_MOF--net-umh--node1-QUQFOY_clean_sbu_1--edge1-ZUJKAS_clean_linker_0
_symmetry_space_group_name_H-M    P1
_symmetry_Int_Tables_number       1
_symmetry_cell_setting            triclinic
loop_
_symmetry_equiv_pos_as_xyz
'x, y, z'
_cell_length_a     53.377813
_cell_length_b     53.449336
_cell_length_c     68.99038
_cell_angle_alpha  90.021188
_cell_angle_beta   89.947487
_cell_angle_gamma 90.089115
loop_
_atom_site_label
_atom_site_type_symbol
_atom_site_fract_x
_atom_site_fract_y
_atom_site_fract_z
_atom_type_partial_charge
O0 O 0.36889 0.10517 0.13586 0.0
Cd1 Cd 0.36874 0.10832 0.16566 0.0
Cd2 Cd 0.32366 0.0856 0.16083 0.0
O3 O 0.33533 0.0813 0.13201 0.0
O4 O 0.40472 0.10957 0.1741 0.0
O5 O 0.37938 0.07775 0.1802 0.0
C6 C 0.40158 0.0873 0.18098 0.0
C7 C 0.30853 0.05663 0.18343 0.0
C8 C 0.35429 0.0927 0.12493 0.0
C9 C 0.32379 0.13841 0.17596 0.0
O10 O 0.31163 0.1206 0.16822 0.0
O11 O 0.3475 0.1371 0.17778 0.0
O12 O 0.29505 0.06333 0.16878 0.0
O13 O 0.33155 0.06406 0.18385 0.0
O14 O 0.38761 0.37138 0.63837 0.0
Cd15 Cd 0.38583 0.3715 0.66823 0.0
Cd16 Cd 0.40698 0.32546 0.66275 0.0
O17 O 0.40986 0.33694 0.63377 0.0
O18 O 0.38685 0.40744 0.67677 0.0
O19 O 0.4176 0.38056 0.68185 0.0
C20 C 0.40927 0.40316 0.68299 0.0
C21 C 0.43679 0.30979 0.68439 0.0
C22 C 0.39887 0.35631 0.62706 0.0
C23 C 0.35501 0.3276 0.67989 0.0
O24 O 0.3721 0.31484 0.67178 0.0
O25 O 0.35692 0.3513 0.68127 0.0
O26 O 0.42863 0.29621 0.67022 0.0
O27 O 0.43037 0.33306 0.68469 0.0
O28 O 0.12669 0.38773 0.13658 0.0
Cd29 Cd 0.12752 0.38614 0.16642 0.0
Cd30 Cd 0.1718 0.4095 0.15948 0.0
O31 O 0.15733 0.4148 0.1315 0.0
O32 O 0.09167 0.38511 0.17569 0.0
O33 O 0.11714 0.41719 0.18031 0.0
C34 C 0.09504 0.40766 0.18193 0.0
C35 C 0.18646 0.43772 0.18288 0.0
C36 C 0.13927 0.40146 0.12505 0.0
C37 C 0.17335 0.35684 0.17473 0.0
O38 O 0.18442 0.37415 0.16543 0.0
O39 O 0.1501 0.35866 0.17871 0.0
O40 O 0.2 0.43228 0.16791 0.0
O41 O 0.16378 0.42936 0.18326 0.0
O42 O 0.11136 0.12678 0.63779 0.0
Cd43 Cd 0.11143 0.12792 0.66767 0.0
Cd44 Cd 0.08797 0.17125 0.66 0.0
O45 O 0.08314 0.15607 0.63219 0.0
O46 O 0.11278 0.09227 0.67715 0.0
O47 O 0.07979 0.11682 0.68056 0.0
C48 C 0.08979 0.09504 0.68263 0.0
C49 C 0.05961 0.18613 0.68318 0.0
C50 C 0.09736 0.13858 0.626 0.0
C51 C 0.1399 0.17417 0.67614 0.0
O52 O 0.12311 0.18457 0.6659 0.0
O53 O 0.13788 0.15115 0.68073 0.0
O54 O 0.06485 0.19928 0.66797 0.0
O55 O 0.06818 0.1636 0.68391 0.0
O56 O 0.3645 0.39424 0.41387 0.0
Cd57 Cd 0.36469 0.39113 0.38405 0.0
Cd58 Cd 0.31811 0.41056 0.38911 0.0
O59 O 0.32939 0.41559 0.41791 0.0
O60 O 0.40081 0.39185 0.37582 0.0
O61 O 0.37378 0.42196 0.3692 0.0
C62 C 0.39647 0.4137 0.36858 0.0
C63 C 0.30217 0.43852 0.36615 0.0
C64 C 0.34908 0.4055 0.4249 0.0
C65 C 0.32172 0.35803 0.37384 0.0
O66 O 0.30839 0.3748 0.38179 0.0
O67 O 0.34526 0.36117 0.37184 0.0
O68 O 0.28864 0.43131 0.38067 0.0
O69 O 0.3255 0.43217 0.36606 0.0
O70 O 0.1113 0.36866 0.90955 0.0
Cd71 Cd 0.11187 0.36752 0.8797 0.0
Cd72 Cd 0.08815 0.32414 0.88701 0.0
O73 O 0.08284 0.33938 0.91476 0.0
O74 O 0.11233 0.4031 0.87006 0.0
O75 O 0.08013 0.37742 0.86661 0.0
C76 C 0.0895 0.3995 0.8645 0.0
C77 C 0.06008 0.30808 0.86403 0.0
C78 C 0.097 0.35684 0.92115 0.0
C79 C 0.14048 0.32152 0.87141 0.0
O80 O 0.12344 0.31101 0.88139 0.0
O81 O 0.13861 0.34456 0.86689 0.0
O82 O 0.06533 0.29558 0.87955 0.0
O83 O 0.06846 0.33068 0.86283 0.0
O84 O 0.12939 0.10687 0.41085 0.0
Cd85 Cd 0.13021 0.1085 0.38104 0.0
Cd86 Cd 0.17393 0.0839 0.3877 0.0
O87 O 0.15968 0.07949 0.41591 0.0
O88 O 0.09445 0.10933 0.37175 0.0
O89 O 0.12009 0.07743 0.36711 0.0
C90 C 0.09795 0.08681 0.36549 0.0
C91 C 0.18918 0.05499 0.36508 0.0
C92 C 0.14184 0.09309 0.42238 0.0
C93 C 0.17645 0.1366 0.37205 0.0
O94 O 0.18723 0.11882 0.38095 0.0
O95 O 0.15299 0.13578 0.36874 0.0
O96 O 0.20239 0.06112 0.38005 0.0
O97 O 0.16638 0.06291 0.36436 0.0
O98 O 0.38993 0.12539 0.91109 0.0
Cd99 Cd 0.38715 0.12532 0.88128 0.0
Cd100 Cd 0.40892 0.17126 0.88628 0.0
O101 O 0.41255 0.15974 0.91518 0.0
O102 O 0.38849 0.08947 0.87256 0.0
O103 O 0.41847 0.11712 0.86683 0.0
C104 C 0.41053 0.09435 0.86577 0.0
C105 C 0.43813 0.18786 0.86446 0.0
C106 C 0.40166 0.14044 0.92214 0.0
C107 C 0.35638 0.16928 0.87013 0.0
O108 O 0.37383 0.18195 0.8779 0.0
O109 O 0.35802 0.14556 0.86878 0.0
O110 O 0.43029 0.20087 0.87904 0.0
O111 O 0.43178 0.16456 0.86377 0.0
O112 O 0.63245 0.8909 0.91078 0.0
Cd113 Cd 0.6332 0.88909 0.88099 0.0
Cd114 Cd 0.67707 0.91349 0.88724 0.0
O115 O 0.66298 0.91819 0.91546 0.0
O116 O 0.59749 0.88862 0.87161 0.0
O117 O 0.62358 0.92026 0.86703 0.0
C118 C 0.60133 0.91109 0.86534 0.0
C119 C 0.69276 0.94254 0.86483 0.0
C120 C 0.6451 0.90478 0.92213 0.0
C121 C 0.67913 0.86065 0.87184 0.0
O122 O 0.69019 0.87848 0.88052 0.0
O123 O 0.65563 0.86156 0.86874 0.0
O124 O 0.70567 0.93633 0.87992 0.0
O125 O 0.67 0.93451 0.8638 0.0
O126 O 0.61101 0.6262 0.41001 0.0
Cd127 Cd 0.61221 0.62778 0.38001 0.0
Cd128 Cd 0.5934 0.67322 0.38797 0.0
O129 O 0.58713 0.6592 0.41572 0.0
O130 O 0.61066 0.5922 0.3704 0.0
O131 O 0.58006 0.61958 0.36663 0.0
C132 C 0.58814 0.597 0.36466 0.0
C133 C 0.56679 0.69067 0.36467 0.0
C134 C 0.59873 0.63986 0.42178 0.0
C135 C 0.6453 0.67126 0.37231 0.0
O136 O 0.62968 0.68299 0.38278 0.0
O137 O 0.6408 0.64883 0.36704 0.0
O138 O 0.57296 0.7032 0.37999 0.0
O139 O 0.5735 0.66752 0.3638 0.0
O140 O 0.87145 0.60777 0.91325 0.0
Cd141 Cd 0.87134 0.6097 0.88343 0.0
Cd142 Cd 0.82648 0.58756 0.88924 0.0
O143 O 0.83986 0.58158 0.91744 0.0
O144 O 0.9073 0.6095 0.87462 0.0
O145 O 0.88069 0.57851 0.86929 0.0
C146 C 0.90317 0.58724 0.86803 0.0
C147 C 0.81044 0.55958 0.86621 0.0
C148 C 0.85808 0.59426 0.92439 0.0
C149 C 0.82691 0.64049 0.87436 0.0
O150 O 0.81497 0.6233 0.88313 0.0
O151 O 0.85027 0.63815 0.87103 0.0
O152 O 0.79736 0.56584 0.88122 0.0
O153 O 0.83343 0.56702 0.86553 0.0
O154 O 0.88397 0.87208 0.40844 0.0
Cd155 Cd 0.88518 0.86987 0.37853 0.0
Cd156 Cd 0.90756 0.82704 0.38787 0.0
O157 O 0.91302 0.84394 0.4149 0.0
O158 O 0.88527 0.9051 0.36801 0.0
O159 O 0.91781 0.87963 0.36665 0.0
C160 C 0.90851 0.90149 0.36353 0.0
C161 C 0.93521 0.81013 0.36501 0.0
C162 C 0.89828 0.86127 0.42058 0.0
C163 C 0.85648 0.82366 0.3712 0.0
O164 O 0.87205 0.81417 0.38299 0.0
O165 O 0.85975 0.84586 0.36492 0.0
O166 O 0.93024 0.79822 0.38088 0.0
O167 O 0.92672 0.8326 0.36333 0.0
O168 O 0.63464 0.60117 0.63426 0.0
Cd169 Cd 0.63464 0.60546 0.66402 0.0
Cd170 Cd 0.68117 0.58603 0.65905 0.0
O171 O 0.66989 0.57999 0.63041 0.0
O172 O 0.59845 0.60639 0.67201 0.0
O173 O 0.62415 0.57552 0.67954 0.0
C174 C 0.6018 0.58466 0.67976 0.0
C175 C 0.69582 0.55853 0.68279 0.0
C176 C 0.65004 0.58966 0.62337 0.0
C177 C 0.67779 0.63905 0.67317 0.0
O178 O 0.69108 0.62201 0.66552 0.0
O179 O 0.6543 0.63586 0.67545 0.0
O180 O 0.71003 0.56519 0.6685 0.0
O181 O 0.6726 0.56526 0.68227 0.0
O182 O 0.88332 0.62409 0.14068 0.0
Cd183 Cd 0.8833 0.62522 0.17063 0.0
Cd184 Cd 0.90638 0.6685 0.16253 0.0
O185 O 0.91224 0.65279 0.13513 0.0
O186 O 0.8829 0.58951 0.18015 0.0
O187 O 0.9153 0.615 0.18323 0.0
C188 C 0.90589 0.59295 0.18538 0.0
C189 C 0.93408 0.68435 0.18584 0.0
C190 C 0.89778 0.63548 0.12894 0.0
C191 C 0.85435 0.67106 0.1783 0.0
O192 O 0.87077 0.68111 0.16746 0.0
O193 O 0.85704 0.64852 0.18397 0.0
O194 O 0.92895 0.69711 0.17043 0.0
O195 O 0.92562 0.66178 0.18683 0.0
O196 O 0.86765 0.89272 0.63538 0.0
Cd197 Cd 0.86732 0.89087 0.6652 0.0
Cd198 Cd 0.82384 0.91558 0.65926 0.0
O199 O 0.8377 0.92064 0.63104 0.0
O200 O 0.9032 0.88873 0.67405 0.0
O201 O 0.87894 0.92159 0.67903 0.0
C202 C 0.90074 0.91136 0.68036 0.0
C203 C 0.80993 0.94416 0.68262 0.0
C204 C 0.85519 0.90693 0.62418 0.0
C205 C 0.82094 0.8628 0.67428 0.0
O206 O 0.81014 0.88065 0.66548 0.0
O207 O 0.8444 0.86369 0.67759 0.0
O208 O 0.79618 0.9388 0.66775 0.0
O209 O 0.8325 0.93556 0.68289 0.0
O210 O 0.61529 0.87335 0.138 0.0
Cd211 Cd 0.61453 0.87204 0.16797 0.0
Cd212 Cd 0.59286 0.82855 0.15942 0.0
O213 O 0.58671 0.84443 0.13215 0.0
O214 O 0.615 0.90764 0.17774 0.0
O215 O 0.5822 0.88257 0.1801 0.0
C216 C 0.59184 0.90445 0.18262 0.0
C217 C 0.56591 0.81281 0.18328 0.0
C218 C 0.60111 0.86187 0.1261 0.0
C219 C 0.64432 0.82665 0.17546 0.0
O220 O 0.62868 0.81656 0.164 0.0
O221 O 0.64067 0.84884 0.18162 0.0
O222 O 0.57062 0.79991 0.16783 0.0
O223 O 0.5743 0.83543 0.184 0.0
H224 H 0.40407 0.09555 0.94052 0.0
H225 H 0.3973 0.08688 0.9749 0.0
H226 H 0.38815 0.16586 0.98579 0.0
H227 H 0.39666 0.17465 0.95149 0.0
H228 H 0.41073 0.1472 1.01467 0.0
H229 H 0.33144 0.08359 1.00014 0.0
H230 H 0.35939 0.07197 0.98899 0.0
H231 H 0.34629 0.1014 0.98117 0.0
C232 C 0.40097 0.11108 0.95033 0.0
C233 C 0.40084 0.13577 0.94332 0.0
C234 C 0.39671 0.10608 0.96997 0.0
C235 C 0.39117 0.12557 0.98297 0.0
C236 C 0.39207 0.15039 0.97611 0.0
H237 H 0.31994 0.0963 0.09558 0.0
H238 H 0.32854 0.10473 0.06124 0.0
C239 C 0.39705 0.15545 0.9565 0.0
C240 C 0.38451 0.12005 1.00364 0.0
H241 H 0.34795 0.08263 0.03236 0.0
C242 C 0.39684 0.1332 1.01848 0.0
C243 C 0.3659 0.10226 1.00884 0.0
C244 C 0.34981 0.08924 0.99393 0.0
C245 C 0.39157 0.12875 0.03818 0.0
C246 C 0.37431 0.10964 0.04338 0.0
C247 C 0.36155 0.0969 0.02854 0.0
C248 C 0.36895 0.10289 0.06405 0.0
C249 C 0.40407 0.14524 0.05309 0.0
C250 C 0.38859 0.09801 0.07707 0.0
C251 C 0.38368 0.09379 0.09673 0.0
C252 C 0.35896 0.09331 0.10374 0.0
C253 C 0.33917 0.09639 0.09055 0.0
C254 C 0.34412 0.10132 0.07092 0.0
H255 H 0.40919 0.16372 0.04686 0.0
H256 H 0.39175 0.14843 0.06583 0.0
H257 H 0.42163 0.13621 0.05806 0.0
H258 H 0.40784 0.09793 0.07213 0.0
H259 H 0.3993 0.09125 0.10655 0.0
H260 H 0.39396 0.40835 0.44337 0.0
H261 H 0.40258 0.40127 0.4777 0.0
H262 H 0.32351 0.39159 0.48847 0.0
H263 H 0.31475 0.40029 0.45421 0.0
H264 H 0.34244 0.41395 0.51766 0.0
H265 H 0.40554 0.33479 0.50204 0.0
H266 H 0.41721 0.36286 0.49111 0.0
H267 H 0.38762 0.34995 0.48333 0.0
C268 C 0.37838 0.40509 0.45314 0.0
C269 C 0.35368 0.40481 0.4461 0.0
C270 C 0.38336 0.40066 0.47275 0.0
C271 C 0.36384 0.39485 0.48569 0.0
C272 C 0.339 0.3957 0.47883 0.0
H273 H 0.39387 0.32222 0.59758 0.0
H274 H 0.38468 0.33113 0.56341 0.0
C275 C 0.33396 0.40081 0.45925 0.0
C276 C 0.36938 0.38784 0.50627 0.0
H277 H 0.40676 0.35072 0.53443 0.0
C278 C 0.35639 0.39998 0.52128 0.0
C279 C 0.38708 0.36909 0.5112 0.0
C280 C 0.39992 0.35324 0.49605 0.0
C281 C 0.36098 0.39441 0.5409 0.0
C282 C 0.38001 0.37702 0.54584 0.0
C283 C 0.39255 0.36442 0.53082 0.0
C284 C 0.38701 0.37144 0.56642 0.0
C285 C 0.34473 0.4068 0.55603 0.0
C286 C 0.39237 0.39093 0.57947 0.0
C287 C 0.39706 0.38585 0.59902 0.0
C288 C 0.39749 0.3611 0.6059 0.0
C289 C 0.39383 0.34146 0.59266 0.0
C290 C 0.38845 0.34659 0.57313 0.0
H291 H 0.32619 0.41207 0.54998 0.0
H292 H 0.3416 0.39438 0.5687 0.0
H293 H 0.35396 0.42424 0.56107 0.0
H294 H 0.39253 0.41019 0.57463 0.0
H295 H 0.40006 0.40137 0.60886 0.0
H296 H 0.12631 0.39219 0.93852 0.0
H297 H 0.13143 0.40067 0.97292 0.0
H298 H 0.07581 0.34472 0.98636 0.0
H299 H 0.07097 0.33554 0.95168 0.0
H300 H 0.10016 0.41717 1.0006 0.0
H301 H 0.13358 0.32209 1.01976 0.0
H302 H 0.13034 0.33232 0.99498 0.0
H303 H 0.10327 0.32242 1.00853 0.0
C304 C 0.11505 0.38161 0.94871 0.0
C305 C 0.09833 0.36296 0.94222 0.0
C306 C 0.11802 0.38657 0.96846 0.0
C307 C 0.10439 0.37307 0.98235 0.0
C308 C 0.08703 0.35499 0.97598 0.0
H309 H 0.1014 0.37542 0.10778 0.0
H310 H 0.09298 0.3702 0.07336 0.0
C311 C 0.08411 0.34989 0.95612 0.0
C312 C 0.10875 0.37797 1.0034 0.0
H313 H 0.12707 0.35027 0.04576 0.0
C314 C 0.10609 0.40253 1.01046 0.0
C315 C 0.11671 0.35895 1.0163 0.0
C316 C 0.1214 0.33252 1.00952 0.0
C317 C 0.11074 0.40847 0.03002 0.0
C318 C 0.11849 0.38941 0.04289 0.0
C319 C 0.12113 0.36488 0.03587 0.0
C320 C 0.12317 0.39422 0.06386 0.0
C321 C 0.10688 0.43498 0.03687 0.0
C322 C 0.14295 0.40969 0.07009 0.0
C323 C 0.14795 0.41274 0.08997 0.0
C324 C 0.13327 0.40033 0.10395 0.0
C325 C 0.11319 0.38529 0.09754 0.0
C326 C 0.10831 0.38221 0.07779 0.0
H327 H 0.09611 0.44625 0.02623 0.0
H328 H 0.09684 0.43524 0.05098 0.0
H329 H 0.12539 0.44405 0.039 0.0
H330 H 0.1549 0.4189 0.05959 0.0
H331 H 0.16361 0.42434 0.09434 0.0
H332 H 0.12684 0.1031 0.60902 0.0
H333 H 0.13262 0.09447 0.5747 0.0
H334 H 0.07761 0.15054 0.56053 0.0
H335 H 0.07211 0.15986 0.59514 0.0
H336 H 0.10176 0.07796 0.54673 0.0
H337 H 0.1362 0.17281 0.52767 0.0
H338 H 0.13243 0.16269 0.55244 0.0
H339 H 0.10569 0.17268 0.53861 0.0
C340 C 0.11585 0.11367 0.59869 0.0
C341 C 0.09911 0.13239 0.60496 0.0
C342 C 0.1192 0.10863 0.57898 0.0
C343 C 0.10594 0.12212 0.56491 0.0
C344 C 0.08856 0.14027 0.57106 0.0
H345 H 0.10424 0.11949 0.43961 0.0
H346 H 0.09575 0.12486 0.474 0.0
C347 C 0.08526 0.14545 0.59088 0.0
C348 C 0.11067 0.11712 0.54392 0.0
H349 H 0.1298 0.14461 0.50165 0.0
C350 C 0.10794 0.09254 0.53689 0.0
C351 C 0.11898 0.13605 0.53106 0.0
C352 C 0.12375 0.16249 0.53782 0.0
C353 C 0.11283 0.08653 0.51737 0.0
C354 C 0.12088 0.10551 0.50452 0.0
C355 C 0.12363 0.13005 0.51152 0.0
C356 C 0.12567 0.10066 0.48357 0.0
C357 C 0.10885 0.06002 0.51053 0.0
C358 C 0.14532 0.08505 0.47737 0.0
C359 C 0.15037 0.08191 0.4575 0.0
C360 C 0.13585 0.09437 0.44349 0.0
C361 C 0.11591 0.10957 0.44987 0.0
C362 C 0.11098 0.11274 0.46961 0.0
H363 H 0.09792 0.04879 0.52115 0.0
H364 H 0.09892 0.05976 0.4964 0.0
H365 H 0.12731 0.05088 0.50847 0.0
H366 H 0.15714 0.07578 0.4879 0.0
H367 H 0.16592 0.07018 0.45316 0.0
H368 H 0.57559 0.84095 0.09525 0.0
H369 H 0.58132 0.85008 0.06066 0.0
H370 H 0.63701 0.90565 0.07482 0.0
H371 H 0.63103 0.89717 0.10918 0.0
H372 H 0.60633 0.92219 0.04656 0.0
H373 H 0.63998 0.82692 0.02824 0.0
H374 H 0.60945 0.8273 0.03915 0.0
H375 H 0.63623 0.83739 0.05292 0.0
C376 C 0.58893 0.85522 0.091 0.0
C377 C 0.60293 0.86817 0.10509 0.0
C378 C 0.59235 0.86029 0.07119 0.0
C379 C 0.61001 0.87821 0.06505 0.0
C380 C 0.62339 0.89165 0.07911 0.0
H381 H 0.66962 0.92814 0.95252 0.0
H382 H 0.66116 0.9232 0.98736 0.0
C383 C 0.61993 0.8867 0.09884 0.0
C384 C 0.61488 0.88295 0.04405 0.0
H385 H 0.63352 0.8547 1.00196 0.0
C386 C 0.61235 0.90743 0.03683 0.0
C387 C 0.62298 0.86378 0.03132 0.0
C388 C 0.62758 0.83742 0.03829 0.0
C389 C 0.61714 0.91312 1.01723 0.0
C390 C 0.62491 0.89388 1.00451 0.0
C391 C 0.62754 0.86945 1.01172 0.0
C392 C 0.6295 0.89835 0.98348 0.0
C393 C 0.61331 0.93954 1.01017 0.0
C394 C 0.61461 0.88605 0.96973 0.0
C395 C 0.61936 0.88883 0.94994 0.0
C396 C 0.63932 0.90386 0.94328 0.0
C397 C 0.65405 0.91654 0.95708 0.0
C398 C 0.64918 0.91378 0.97701 0.0
H399 H 0.60258 0.95099 1.02074 0.0
H400 H 0.63184 0.94853 1.00793 0.0
H401 H 0.60326 0.93961 0.99609 0.0
H402 H 0.59934 0.87405 0.97435 0.0
H403 H 0.60753 0.87875 0.93984 0.0
H404 H 0.68375 0.59652 0.59392 0.0
H405 H 0.67422 0.60442 0.55968 0.0
H406 H 0.596 0.58975 0.57082 0.0
H407 H 0.6053 0.58362 0.60518 0.0
H408 H 0.65669 0.58119 0.53054 0.0
H409 H 0.58844 0.65584 0.54669 0.0
H410 H 0.60738 0.64175 0.5653 0.0
H411 H 0.57874 0.62692 0.55743 0.0
C412 C 0.66458 0.59473 0.58896 0.0
C413 C 0.64524 0.58964 0.60221 0.0
C414 C 0.65909 0.59936 0.56939 0.0
C415 C 0.6342 0.5986 0.56264 0.0
C416 C 0.61518 0.59162 0.57568 0.0
H417 H 0.60026 0.59378 0.43855 0.0
H418 H 0.60753 0.58375 0.47265 0.0
C419 C 0.62055 0.58771 0.5953 0.0
C420 C 0.6281 0.60535 0.54211 0.0
H421 H 0.5886 0.64054 0.5142 0.0
C422 C 0.6419 0.59431 0.52701 0.0
C423 C 0.60923 0.62299 0.53731 0.0
C424 C 0.59533 0.63775 0.55256 0.0
C425 C 0.63715 0.6 0.50743 0.0
C426 C 0.61713 0.61632 0.50261 0.0
C427 C 0.60363 0.62768 0.51772 0.0
C428 C 0.61027 0.62233 0.48208 0.0
C429 C 0.65432 0.58904 0.49226 0.0
C430 C 0.60735 0.64734 0.47606 0.0
C431 C 0.60208 0.65308 0.45664 0.0
C432 C 0.60003 0.63394 0.44276 0.0
C433 C 0.60198 0.60894 0.4489 0.0
C434 C 0.60654 0.6032 0.46838 0.0
H435 H 0.67303 0.5846 0.4984 0.0
H436 H 0.64616 0.57129 0.48678 0.0
H437 H 0.65697 0.60203 0.47987 0.0
H438 H 0.60988 0.66254 0.48627 0.0
H439 H 0.60085 0.67252 0.45231 0.0
H440 H 0.83291 0.57024 0.95413 0.0
H441 H 0.84065 0.57423 0.98908 0.0
H442 H 0.90233 0.62424 0.97757 0.0
H443 H 0.89524 0.61992 0.94291 0.0
H444 H 0.9142 0.59147 1.0057 0.0
H445 H 0.82171 0.63412 1.02174 0.0
H446 H 0.81987 0.6039 1.01048 0.0
H447 H 0.83301 0.62984 0.99732 0.0
C448 C 0.84822 0.58194 0.95905 0.0
C449 C 0.8633 0.59487 0.94562 0.0
C450 C 0.8525 0.58438 0.97906 0.0
C451 C 0.87178 0.59997 0.98604 0.0
C452 C 0.88727 0.61222 0.97263 0.0
H453 H 0.92377 0.65636 0.09825 0.0
H454 H 0.91859 0.64706 0.0636 0.0
C455 C 0.88311 0.60972 0.95273 0.0
C456 C 0.8759 0.60395 1.00722 0.0
H457 H 0.84795 0.62569 0.04855 0.0
C458 C 0.8997 0.59896 1.01506 0.0
C459 C 0.85706 0.61391 1.01947 0.0
C460 C 0.83155 0.621 1.01184 0.0
C461 C 0.90506 0.60337 0.03474 0.0
C462 C 0.88622 0.61328 0.04694 0.0
C463 C 0.86239 0.61811 0.03918 0.0
C464 C 0.89056 0.61828 0.06792 0.0
C465 C 0.93072 0.59703 0.04243 0.0
C466 C 0.87651 0.60532 0.08185 0.0
C467 C 0.87944 0.61055 0.10157 0.0
C468 C 0.89637 0.62909 0.10792 0.0
C469 C 0.91068 0.64191 0.09394 0.0
C470 C 0.90778 0.63655 0.07412 0.0
H471 H 0.94123 0.58467 0.03235 0.0
H472 H 0.94164 0.61453 0.04436 0.0
H473 H 0.9293 0.58766 0.05675 0.0
H474 H 0.86309 0.59119 0.07745 0.0
H475 H 0.86804 0.60025 0.11183 0.0
H476 H 0.86829 0.89708 0.43665 0.0
H477 H 0.86265 0.90726 0.4708 0.0
H478 H 0.91754 0.85174 0.48635 0.0
H479 H 0.92346 0.84136 0.45196 0.0
H480 H 0.84652 0.87447 0.5001 0.0
H481 H 0.94017 0.91434 0.51682 0.0
H482 H 0.92895 0.91042 0.49231 0.0
H483 H 0.94053 0.88398 0.50561 0.0
C484 C 0.87941 0.8871 0.44724 0.0
C485 C 0.8964 0.86836 0.44145 0.0
C486 C 0.87609 0.89297 0.46682 0.0
C487 C 0.88978 0.88045 0.48117 0.0
C488 C 0.90703 0.86195 0.47552 0.0
H489 H 0.89177 0.8801 0.60603 0.0
H490 H 0.89932 0.87542 0.57146 0.0
C491 C 0.91034 0.85597 0.45584 0.0
C492 C 0.88504 0.88612 0.50201 0.0
H493 H 0.91265 0.90805 0.54336 0.0
C494 C 0.86094 0.88193 0.50955 0.0
C495 C 0.90383 0.8959 0.51433 0.0
C496 C 0.92979 0.90166 0.50689 0.0
C497 C 0.85528 0.88659 0.52915 0.0
C498 C 0.8741 0.89631 0.54152 0.0
C499 C 0.89817 0.90072 0.53391 0.0
C500 C 0.86971 0.90051 0.56265 0.0
C501 C 0.82945 0.8802 0.53656 0.0
C502 C 0.8508 0.91666 0.56942 0.0
C503 C 0.84626 0.91934 0.58939 0.0
C504 C 0.8607 0.90605 0.60298 0.0
C505 C 0.88013 0.89059 0.59609 0.0
C506 C 0.88456 0.88788 0.57624 0.0
H507 H 0.81938 0.86731 0.52659 0.0
H508 H 0.83042 0.87136 0.5511 0.0
H509 H 0.81826 0.8976 0.53782 0.0
H510 H 0.83944 0.92709 0.55926 0.0
H511 H 0.83125 0.9315 0.59414 0.0
H512 H 0.22399 0.35126 0.1734 0.0
H513 H 0.2483 0.31356 0.17943 0.0
H514 H 0.18081 0.27386 0.19488 0.0
H515 H 0.15603 0.31172 0.18868 0.0
H516 H 0.25318 0.28151 0.21266 0.0
H517 H 0.21087 0.23413 0.14866 0.0
H518 H 0.20802 0.26736 0.15268 0.0
H519 H 0.18933 0.24586 0.16652 0.0
C520 C 0.21421 0.3346 0.1782 0.0
C521 C 0.18797 0.33441 0.1803 0.0
C522 C 0.22822 0.31309 0.18175 0.0
C523 C 0.21633 0.29088 0.18737 0.0
C524 C 0.19027 0.2908 0.19031 0.0
H525 H 0.27505 0.14014 0.18678 0.0
H526 H 0.2495 0.17704 0.19286 0.0
C527 C 0.17617 0.31243 0.18682 0.0
C528 C 0.23124 0.26761 0.18878 0.0
H529 H 0.2414 0.21197 0.16593 0.0
C530 C 0.25052 0.26616 0.20258 0.0
C531 C 0.22782 0.24778 0.17549 0.0
C532 C 0.20805 0.24878 0.15987 0.0
C533 C 0.26646 0.24526 0.20347 0.0
C534 C 0.26329 0.22562 0.18995 0.0
C535 C 0.24379 0.22701 0.17633 0.0
C536 C 0.27994 0.20341 0.1893 0.0
C537 C 0.28634 0.24432 0.21897 0.0
C538 C 0.3058 0.20588 0.18577 0.0
C539 C 0.32062 0.18464 0.18247 0.0
C540 C 0.30965 0.16074 0.18229 0.0
C541 C 0.28401 0.15834 0.18662 0.0
C542 C 0.26936 0.17942 0.19013 0.0
H543 H 0.28169 0.2568 0.23135 0.0
H544 H 0.28885 0.22498 0.2245 0.0
H545 H 0.30443 0.25071 0.21276 0.0
H546 H 0.3143 0.22423 0.18466 0.0
H547 H 0.34029 0.18703 0.17906 0.0
H548 H 0.30602 0.34321 0.68054 0.0
H549 H 0.26911 0.31691 0.68678 0.0
H550 H 0.31736 0.25528 0.70201 0.0
H551 H 0.35402 0.28109 0.69518 0.0
H552 H 0.28565 0.24251 0.67427 0.0
H553 H 0.23252 0.28877 0.73317 0.0
H554 H 0.23963 0.3095 0.71346 0.0
H555 H 0.26469 0.29659 0.72772 0.0
C556 C 0.30865 0.32426 0.68572 0.0
C557 C 0.3328 0.31408 0.68722 0.0
C558 C 0.28758 0.30927 0.68937 0.0
C559 C 0.29045 0.28411 0.69497 0.0
C560 C 0.31466 0.27458 0.69768 0.0
H561 H 0.18325 0.15843 0.69406 0.0
H562 H 0.22027 0.18395 0.70173 0.0
C563 C 0.33558 0.28935 0.69375 0.0
C564 C 0.2687 0.26676 0.6955 0.0
H565 H 0.21025 0.25797 0.71452 0.0
C566 C 0.26934 0.24569 0.68332 0.0
C567 C 0.24739 0.27095 0.70725 0.0
C568 C 0.24606 0.29255 0.72128 0.0
C569 C 0.24896 0.22921 0.68203 0.0
C570 C 0.22741 0.23373 0.6934 0.0
C571 C 0.22689 0.25449 0.7059 0.0
C572 C 0.2044 0.21851 0.691 0.0
C573 C 0.25022 0.20773 0.66784 0.0
C574 C 0.18305 0.22966 0.68302 0.0
C575 C 0.16203 0.21524 0.67866 0.0
C576 C 0.16182 0.1893 0.68223 0.0
C577 C 0.18288 0.17829 0.691 0.0
C578 C 0.20403 0.19282 0.69534 0.0
H579 H 0.26633 0.20951 0.65772 0.0
H580 H 0.25233 0.18993 0.67594 0.0
H581 H 0.23271 0.20655 0.65921 0.0
H582 H 0.18295 0.24943 0.67957 0.0
H583 H 0.14607 0.22444 0.67211 0.0
H584 H 0.34292 0.31208 0.36652 0.0
H585 H 0.32065 0.27275 0.35971 0.0
H586 H 0.25025 0.31221 0.36029 0.0
H587 H 0.27212 0.35124 0.36697 0.0
H588 H 0.28425 0.25345 0.38551 0.0
H589 H 0.24358 0.26709 0.31242 0.0
H590 H 0.26963 0.28542 0.32132 0.0
H591 H 0.23814 0.29288 0.32855 0.0
C592 C 0.32276 0.3124 0.36479 0.0
C593 C 0.30927 0.3347 0.36743 0.0
C594 C 0.31007 0.28996 0.36091 0.0
C595 C 0.28383 0.28966 0.35925 0.0
C596 C 0.27051 0.31209 0.36111 0.0
H597 H 0.16113 0.1849 0.36522 0.0
H598 H 0.18821 0.22155 0.36003 0.0
C599 C 0.28307 0.33436 0.36514 0.0
C600 C 0.26989 0.26574 0.35799 0.0
H601 H 0.22497 0.2349 0.33199 0.0
C602 C 0.27161 0.24914 0.37365 0.0
C603 C 0.25315 0.26043 0.34264 0.0
C604 C 0.25113 0.27729 0.32518 0.0
C605 C 0.25637 0.22782 0.37477 0.0
C606 C 0.23937 0.22262 0.35953 0.0
C607 C 0.23798 0.23896 0.34365 0.0
C608 C 0.22277 0.20039 0.36012 0.0
C609 C 0.25789 0.21161 0.39266 0.0
C610 C 0.23317 0.17638 0.3611 0.0
C611 C 0.21787 0.15563 0.36427 0.0
C612 C 0.19178 0.15839 0.36619 0.0
C613 C 0.18116 0.18224 0.36386 0.0
C614 C 0.1966 0.20314 0.36091 0.0
H615 H 0.26686 0.22161 0.40496 0.0
H616 H 0.23898 0.20529 0.39729 0.0
H617 H 0.26933 0.19481 0.3894 0.0
H618 H 0.25325 0.17378 0.36004 0.0
H619 H 0.22659 0.13742 0.36564 0.0
H620 H 0.30743 0.15336 0.86884 0.0
H621 H 0.27052 0.17946 0.86242 0.0
H622 H 0.31874 0.24194 0.8489 0.0
H623 H 0.35538 0.21633 0.85584 0.0
H624 H 0.28579 0.25355 0.87637 0.0
H625 H 0.23571 0.20831 0.81537 0.0
H626 H 0.24235 0.1872 0.83493 0.0
H627 H 0.26776 0.20088 0.82142 0.0
C628 C 0.31007 0.17248 0.86404 0.0
C629 C 0.33419 0.18292 0.86303 0.0
C630 C 0.289 0.18735 0.86028 0.0
C631 C 0.29187 0.21265 0.85508 0.0
C632 C 0.31606 0.22252 0.85292 0.0
H633 H 0.18455 0.33765 0.85471 0.0
H634 H 0.22185 0.31233 0.84769 0.0
C635 C 0.33697 0.20786 0.85693 0.0
C636 C 0.27002 0.22975 0.85429 0.0
H637 H 0.21256 0.23865 0.83371 0.0
C638 C 0.26994 0.25049 0.86681 0.0
C639 C 0.24934 0.22571 0.84187 0.0
C640 C 0.24883 0.20445 0.8275 0.0
C641 C 0.24945 0.2668 0.86776 0.0
C642 C 0.22854 0.26245 0.85566 0.0
C643 C 0.22873 0.242 0.84287 0.0
C644 C 0.20543 0.27754 0.85756 0.0
C645 C 0.2499 0.28792 0.8823 0.0
C646 C 0.18371 0.26619 0.86481 0.0
C647 C 0.16252 0.2805 0.86881 0.0
C648 C 0.16255 0.30651 0.86558 0.0
C649 C 0.18399 0.31771 0.85749 0.0
C650 C 0.2053 0.3033 0.85351 0.0
H651 H 0.26545 0.28596 0.89288 0.0
H652 H 0.2524 0.30594 0.87454 0.0
H653 H 0.23193 0.2888 0.8904 0.0
H654 H 0.18342 0.24634 0.86801 0.0
H655 H 0.14626 0.27115 0.87482 0.0
H656 H 0.72918 0.85936 0.86507 0.0
H657 H 0.75532 0.8228 0.85922 0.0
H658 H 0.68973 0.77554 0.8603 0.0
H659 H 0.66323 0.81238 0.86562 0.0
H660 H 0.76052 0.78568 0.88441 0.0
H661 H 0.72719 0.74661 0.81465 0.0
H662 H 0.71922 0.77778 0.82263 0.0
H663 H 0.70241 0.75112 0.83188 0.0
C664 C 0.72022 0.84123 0.86374 0.0
C665 C 0.69415 0.8387 0.86594 0.0
C666 C 0.73522 0.82036 0.86035 0.0
C667 C 0.72453 0.79642 0.85919 0.0
C668 C 0.69837 0.79387 0.86071 0.0
H669 H 0.7764 0.64715 0.87348 0.0
H670 H 0.75343 0.68567 0.86727 0.0
C671 C 0.68325 0.8149 0.86386 0.0
C672 C 0.74109 0.77415 0.85853 0.0
H673 H 0.75279 0.71973 0.83418 0.0
C674 C 0.75906 0.77146 0.87325 0.0
C675 C 0.73916 0.75557 0.84399 0.0
C676 C 0.72112 0.75799 0.82728 0.0
C677 C 0.77458 0.75036 0.8742 0.0
C678 C 0.77224 0.73153 0.85994 0.0
C679 C 0.75459 0.73432 0.84502 0.0
C680 C 0.78646 0.70786 0.86139 0.0
C681 C 0.79267 0.7479 0.8909 0.0
C682 C 0.81268 0.70746 0.85967 0.0
C683 C 0.826 0.68536 0.86324 0.0
C684 C 0.81323 0.66342 0.86866 0.0
C685 C 0.78688 0.66377 0.86955 0.0
C686 C 0.77366 0.68573 0.8659 0.0
H687 H 0.78924 0.7621 0.90236 0.0
H688 H 0.79129 0.72899 0.89749 0.0
H689 H 0.81209 0.75038 0.88548 0.0
H690 H 0.82286 0.72437 0.85602 0.0
H691 H 0.84626 0.68568 0.86235 0.0
H692 H 0.66626 0.71116 0.39009 0.0
H693 H 0.70197 0.73585 0.37973 0.0
H694 H 0.71238 0.68726 0.33045 0.0
H695 H 0.67643 0.6617 0.34114 0.0
H696 H 0.75646 0.69881 0.34737 0.0
H697 H 0.70437 0.7863 0.33669 0.0
H698 H 0.69741 0.77432 0.36032 0.0
H699 H 0.68876 0.75646 0.33915 0.0
C700 C 0.67603 0.70564 0.377 0.0
C701 C 0.66833 0.68461 0.3663 0.0
C702 C 0.69634 0.71998 0.37098 0.0
C703 C 0.70928 0.714 0.35392 0.0
C704 C 0.70232 0.69248 0.34348 0.0
H705 H 0.82471 0.83106 0.34018 0.0
H706 H 0.79026 0.80357 0.32969 0.0
C707 C 0.68193 0.67783 0.34964 0.0
C708 C 0.7308 0.72988 0.34801 0.0
H709 H 0.74826 0.79129 0.34691 0.0
C710 C 0.75463 0.719 0.34672 0.0
C711 C 0.72848 0.7562 0.3464 0.0
C712 C 0.70329 0.76891 0.34547 0.0
C713 C 0.7763 0.73391 0.34607 0.0
C714 C 0.77402 0.76027 0.34741 0.0
C715 C 0.75013 0.77109 0.34644 0.0
C716 C 0.79562 0.77647 0.35264 0.0
C717 C 0.80143 0.72116 0.3447 0.0
C718 C 0.80959 0.77077 0.36926 0.0
C719 C 0.82913 0.78624 0.37518 0.0
C720 C 0.83497 0.80816 0.36485 0.0
C721 C 0.82064 0.8143 0.34843 0.0
C722 C 0.80109 0.79855 0.34237 0.0
H723 H 0.80008 0.70385 0.33583 0.0
H724 H 0.81585 0.73361 0.33821 0.0
H725 H 0.80763 0.71558 0.35942 0.0
H726 H 0.80512 0.75448 0.37794 0.0
H727 H 0.83952 0.78107 0.38804 0.0
H728 H 0.77045 0.86103 0.67895 0.0
H729 H 0.7443 0.82442 0.68482 0.0
H730 H 0.81029 0.77808 0.68774 0.0
H731 H 0.83678 0.81498 0.68232 0.0
H732 H 0.74111 0.78553 0.66073 0.0
H733 H 0.77019 0.75169 0.73317 0.0
H734 H 0.77819 0.78248 0.72432 0.0
H735 H 0.79602 0.75564 0.71678 0.0
C736 C 0.77948 0.84312 0.68113 0.0
C737 C 0.8057 0.84086 0.68004 0.0
C738 C 0.76447 0.8222 0.68453 0.0
C739 C 0.77528 0.79851 0.68687 0.0
C740 C 0.80153 0.79625 0.68641 0.0
H741 H 0.7278 0.64746 0.67686 0.0
H742 H 0.74906 0.68709 0.68264 0.0
C743 C 0.81665 0.81732 0.6832 0.0
C744 C 0.75891 0.77606 0.68775 0.0
H745 H 0.74629 0.72311 0.71373 0.0
C746 C 0.74199 0.77207 0.67247 0.0
C747 C 0.76007 0.75852 0.70308 0.0
C748 C 0.77692 0.76238 0.72036 0.0
C749 C 0.72686 0.75062 0.67172 0.0
C750 C 0.72849 0.73277 0.68677 0.0
C751 C 0.74501 0.73693 0.70227 0.0
C752 C 0.715 0.70859 0.68558 0.0
C753 C 0.71006 0.74668 0.65439 0.0
C754 C 0.68869 0.70742 0.68583 0.0
C755 C 0.67634 0.68465 0.68249 0.0
C756 C 0.69018 0.6628 0.67878 0.0
C757 C 0.71652 0.66397 0.67943 0.0
C758 C 0.72876 0.68659 0.68284 0.0
H759 H 0.71412 0.76017 0.64254 0.0
H760 H 0.71217 0.72739 0.64863 0.0
H761 H 0.69024 0.74915 0.65885 0.0
H762 H 0.67775 0.72421 0.68813 0.0
H763 H 0.65606 0.68433 0.68217 0.0
H764 H 0.83844 0.71405 0.16159 0.0
H765 H 0.80328 0.74013 0.17074 0.0
H766 H 0.78519 0.68951 0.2174 0.0
H767 H 0.82042 0.66251 0.20784 0.0
H768 H 0.74425 0.70257 0.19884 0.0
H769 H 0.79608 0.78925 0.21373 0.0
H770 H 0.80488 0.7783 0.19018 0.0
H771 H 0.81172 0.75949 0.21124 0.0
C772 C 0.82717 0.70842 0.17391 0.0
C773 C 0.83238 0.68624 0.18408 0.0
C774 C 0.80717 0.72359 0.17928 0.0
C775 C 0.79207 0.71733 0.1952 0.0
C776 C 0.79686 0.69495 0.20527 0.0
H777 H 0.67505 0.83352 0.20721 0.0
H778 H 0.70979 0.80637 0.21756 0.0
C779 C 0.81689 0.67949 0.19974 0.0
C780 C 0.77025 0.73344 0.19998 0.0
H781 H 0.75319 0.79495 0.20128 0.0
C782 C 0.74624 0.72273 0.1999 0.0
C783 C 0.77266 0.75971 0.20208 0.0
C784 C 0.79779 0.77225 0.20456 0.0
C785 C 0.7247 0.73774 0.1998 0.0
C786 C 0.72728 0.76412 0.19907 0.0
C787 C 0.75115 0.77475 0.20126 0.0
C788 C 0.70606 0.78057 0.19351 0.0
C789 C 0.6994 0.72511 0.19981 0.0
C790 C 0.69304 0.7756 0.17629 0.0
C791 C 0.67332 0.79084 0.17048 0.0
C792 C 0.66638 0.81183 0.18152 0.0
C793 C 0.67997 0.81746 0.19843 0.0
C794 C 0.69969 0.80191 0.20439 0.0
H795 H 0.70001 0.70735 0.20817 0.0
H796 H 0.68469 0.73733 0.20611 0.0
H797 H 0.69411 0.72033 0.1847 0.0
H798 H 0.69824 0.75992 0.16719 0.0
H799 H 0.66354 0.78615 0.15721 0.0
H800 H 0.23907 0.04659 0.35811 0.0
H801 H 0.2585 0.03759 0.32671 0.0
H802 H 0.18543 0.02856 0.30109 0.0
H803 H 0.16584 0.03797 0.33231 0.0
H804 H 0.25651 -0.00089 0.29806 0.0
H805 H 0.21529 0.08814 0.27158 0.0
H806 H 0.21553 0.07971 0.29688 0.0
H807 H 0.19289 0.06602 0.28076 0.0
C808 C 0.22711 0.04204 0.34593 0.0
C809 C 0.20086 0.0433 0.34771 0.0
C810 C 0.23828 0.03696 0.32794 0.0
C811 C 0.22343 0.03301 0.31142 0.0
C812 C 0.19727 0.03211 0.31354 0.0
H813 H 0.25962 0.04224 0.18835 0.0
H814 H 0.2388 0.03184 0.2189 0.0
C815 C 0.18609 0.03732 0.33146 0.0
C816 C 0.23514 0.03225 0.29179 0.0
H817 H 0.2381 0.06435 0.24901 0.0
C818 C 0.25243 0.0133 0.28729 0.0
C819 C 0.22995 0.05086 0.27775 0.0
C820 C 0.21259 0.07248 0.28196 0.0
C821 C 0.26444 0.01236 0.26909 0.0
C822 C 0.25933 0.03108 0.25512 0.0
C823 C 0.24188 0.04985 0.2596 0.0
C824 C 0.27265 0.03263 0.23612 0.0
C825 C 0.28228 0.99118 0.26493 0.0
C826 C 0.29877 0.03581 0.23542 0.0
C827 C 0.31078 0.04162 0.2179 0.0
C828 C 0.29689 0.04465 0.20072 0.0
C829 C 0.27094 0.03999 0.20125 0.0
C830 C 0.25897 0.03413 0.21876 0.0
H831 H 0.27831 0.97468 0.27424 0.0
H832 H 0.28128 0.98535 0.2495 0.0
H833 H 0.3017 0.99745 0.268 0.0
H834 H 0.30975 0.03527 0.2486 0.0
H835 H 0.33075 0.04525 0.2181 0.0
H836 H 0.45326 0.33307 0.71735 0.0
H837 H 0.46374 0.31331 0.74822 0.0
H838 H 0.45717 0.24055 0.72174 0.0
H839 H 0.44687 0.26015 0.69074 0.0
H840 H 0.42951 0.28256 0.76646 0.0
H841 H 0.51892 0.2317 0.75613 0.0
H842 H 0.50883 0.25641 0.74008 0.0
H843 H 0.49597 0.22545 0.73773 0.0
C844 C 0.45481 0.31288 0.71789 0.0
C845 C 0.44913 0.29822 0.70151 0.0
C846 C 0.46074 0.3016 0.73562 0.0
C847 C 0.46135 0.27542 0.73736 0.0
C848 C 0.45727 0.26077 0.72074 0.0
H849 H 0.44888 0.16713 0.82913 0.0
H850 H 0.45801 0.18944 0.79902 0.0
C851 C 0.45131 0.27204 0.70298 0.0
C852 C 0.46281 0.26357 0.75689 0.0
H853 H 0.49472 0.22063 0.78407 0.0
C854 C 0.44399 0.2693 0.77041 0.0
C855 C 0.48151 0.24602 0.76197 0.0
C856 C 0.5026 0.23965 0.74829 0.0
C857 C 0.44286 0.25747 0.78857 0.0
C858 C 0.46151 0.23981 0.79369 0.0
C859 C 0.48054 0.23427 0.78025 0.0
C860 C 0.46047 0.22595 0.81244 0.0
C861 C 0.42099 0.26321 0.80174 0.0
C862 C 0.46016 0.23879 0.83023 0.0
C863 C 0.45477 0.22608 0.84751 0.0
C864 C 0.44991 0.2002 0.84739 0.0
C865 C 0.45246 0.18707 0.8298 0.0
C866 C 0.45765 0.19982 0.81251 0.0
H867 H 0.40531 0.27217 0.79378 0.0
H868 H 0.41383 0.24594 0.80879 0.0
H869 H 0.42717 0.27632 0.81326 0.0
H870 H 0.46295 0.25885 0.83064 0.0
H871 H 0.45312 0.23678 0.86079 0.0
H872 H 0.16228 0.45193 0.21604 0.0
H873 H 0.18123 0.4618 0.24734 0.0
H874 H 0.2547 0.45829 0.22149 0.0
H875 H 0.23586 0.44868 0.19003 0.0
H876 H 0.21212 0.4283 0.26539 0.0
H877 H 0.26164 0.51889 0.2571 0.0
H878 H 0.23767 0.50856 0.24043 0.0
H879 H 0.26899 0.49648 0.23856 0.0
C880 C 0.18244 0.454 0.21684 0.0
C881 C 0.19753 0.44943 0.20047 0.0
C882 C 0.19327 0.45958 0.2348 0.0
C883 C 0.21942 0.46089 0.23684 0.0
C884 C 0.23448 0.45785 0.22028 0.0
H885 H 0.32443 0.44904 0.33131 0.0
H886 H 0.30345 0.45778 0.30057 0.0
C887 C 0.22365 0.45229 0.20226 0.0
C888 C 0.23083 0.46212 0.25655 0.0
H889 H 0.27221 0.49449 0.28498 0.0
C890 C 0.225 0.44298 0.26975 0.0
C891 C 0.24787 0.48109 0.26219 0.0
C892 C 0.25428 0.50256 0.24891 0.0
C893 C 0.23617 0.44186 0.28816 0.0
C894 C 0.25327 0.46079 0.29385 0.0
C895 C 0.25899 0.48009 0.28072 0.0
C896 C 0.26627 0.45988 0.31297 0.0
C897 C 0.23027 0.41977 0.30104 0.0
C898 C 0.25258 0.45944 0.33038 0.0
C899 C 0.26452 0.4543 0.34802 0.0
C900 C 0.29047 0.44978 0.34864 0.0
C901 C 0.30442 0.45236 0.33141 0.0
C902 C 0.29243 0.45733 0.31376 0.0
H903 H 0.22187 0.40402 0.29277 0.0
H904 H 0.24741 0.41289 0.30842 0.0
H905 H 0.21661 0.42557 0.31231 0.0
H906 H 0.23245 0.46196 0.33021 0.0
H907 H 0.25321 0.45262 0.36099 0.0
H908 H 0.04557 0.16285 0.71677 0.0
H909 H 0.03583 0.18261 0.74781 0.0
H910 H 0.03928 0.25526 0.72079 0.0
H911 H 0.04867 0.2356 0.68961 0.0
H912 H 0.069 0.21361 0.76556 0.0
H913 H 0.97898 0.26353 0.75618 0.0
H914 H 0.98931 0.23932 0.73974 0.0
H915 H 0.00154 0.27059 0.73765 0.0
C916 C 0.0435 0.183 0.71727 0.0
C917 C 0.04796 0.19762 0.70065 0.0
C918 C 0.03801 0.19429 0.73508 0.0
C919 C 0.0367 0.22046 0.73671 0.0
C920 C 0.03968 0.23504 0.71991 0.0
H921 H 0.05059 0.32869 0.82849 0.0
H922 H 0.04151 0.30643 0.79836 0.0
C923 C 0.04512 0.22373 0.70204 0.0
C924 C 0.03549 0.23243 0.75624 0.0
H925 H 0.00368 0.27521 0.78373 0.0
C926 C 0.05449 0.2268 0.76962 0.0
C927 C 0.01673 0.24986 0.76151 0.0
C928 C 0.99534 0.25604 0.74809 0.0
C929 C 0.05572 0.23859 0.7878 0.0
C930 C 0.03707 0.25617 0.79306 0.0
C931 C 0.01787 0.26164 0.77979 0.0
C932 C 0.03825 0.27003 0.81181 0.0
C933 C 0.07763 0.23285 0.80089 0.0
C934 C 0.03819 0.25723 0.82961 0.0
C935 C 0.04347 0.26992 0.84693 0.0
C936 C 0.04871 0.29573 0.84681 0.0
C937 C 0.04673 0.30881 0.82916 0.0
C938 C 0.04155 0.29609 0.81186 0.0
H939 H 0.0932 0.22365 0.79291 0.0
H940 H 0.08496 0.25017 0.80775 0.0
H941 H 0.07143 0.21997 0.81256 0.0
H942 H 0.03513 0.2372 0.83001 0.0
H943 H 0.04473 0.25925 0.86024 0.0
H944 H 0.74203 0.956 0.86027 0.0
H945 H 0.76321 0.96663 0.82989 0.0
H946 H 0.69233 0.96535 0.8 0.0
H947 H 0.671 0.95516 0.83029 0.0
H948 H 0.76325 0.93471 0.79933 0.0
H949 H 0.72515 0.02574 0.77519 0.0
H950 H 0.72191 0.01466 0.7998 0.0
H951 H 0.70115 0.00349 0.78115 0.0
C952 C 0.73082 0.95879 0.84737 0.0
C953 C 0.70478 0.95465 0.84777 0.0
C954 C 0.743 0.96477 0.82996 0.0
C955 C 0.72941 0.96694 0.8126 0.0
C956 C 0.70324 0.9643 0.8132 0.0
H957 H 0.76051 0.95395 0.69041 0.0
H958 H 0.74212 0.9631 0.72216 0.0
C959 C 0.69105 0.95834 0.83059 0.0
C960 C 0.74278 0.96857 0.79363 0.0
H961 H 0.74585 0.001 0.75091 0.0
C962 C 0.75973 0.94945 0.78889 0.0
C963 C 0.73799 0.98761 0.77985 0.0
C964 C 0.72073 0.00917 0.7843 0.0
C965 C 0.77138 0.94836 0.77064 0.0
C966 C 0.76644 0.96725 0.75676 0.0
C967 C 0.74973 0.98659 0.76154 0.0
C968 C 0.77768 0.96633 0.73698 0.0
C969 C 0.7881 0.92634 0.76612 0.0
C970 C 0.8038 0.96642 0.73449 0.0
C971 C 0.81437 0.9611 0.71637 0.0
C972 C 0.79904 0.95584 0.70029 0.0
C973 C 0.77289 0.95792 0.70245 0.0
C974 C 0.76233 0.96309 0.72064 0.0
H975 H 0.78518 0.91065 0.77645 0.0
H976 H 0.78472 0.91932 0.75119 0.0
H977 H 0.80798 0.93228 0.76715 0.0
H978 H 0.81604 0.96944 0.74679 0.0
H979 H 0.83457 0.95983 0.71522 0.0
H980 H 0.55626 0.66998 0.32931 0.0
H981 H 0.54779 0.69212 0.29905 0.0
H982 H 0.54478 0.76203 0.33013 0.0
H983 H 0.55384 0.74009 0.36047 0.0
H984 H 0.51113 0.7241 0.28449 0.0
H985 H 0.6023 0.77331 0.29227 0.0
H986 H 0.59344 0.74738 0.30753 0.0
H987 H 0.58107 0.7781 0.31212 0.0
C988 C 0.55331 0.69002 0.32983 0.0
C989 C 0.55605 0.70328 0.34735 0.0
C990 C 0.54847 0.70267 0.31245 0.0
C991 C 0.54626 0.72883 0.3122 0.0
C992 C 0.54702 0.7419 0.32988 0.0
H993 H 0.55283 0.83575 0.2172 0.0
H994 H 0.54382 0.81576 0.24827 0.0
C995 C 0.55198 0.72928 0.34727 0.0
C996 C 0.5452 0.74244 0.29335 0.0
H997 H 0.57766 0.78406 0.26529 0.0
C998 C 0.52561 0.7373 0.28031 0.0
C999 C 0.56423 0.75949 0.28777 0.0
C1000 C 0.58659 0.76478 0.30054 0.0
C1001 C 0.52442 0.74895 0.26201 0.0
C1002 C 0.54348 0.76595 0.25648 0.0
C1003 C 0.56292 0.7712 0.26957 0.0
C1004 C 0.54441 0.778 0.23699 0.0
C1005 C 0.50265 0.74315 0.24883 0.0
C1006 C 0.54703 0.76352 0.2201 0.0
C1007 C 0.5521 0.77495 0.2022 0.0
C1008 C 0.55487 0.80109 0.20089 0.0
C1009 C 0.55081 0.81559 0.21764 0.0
C1010 C 0.54572 0.80417 0.23547 0.0
H1011 H 0.4864 0.73559 0.25704 0.0
H1012 H 0.49659 0.76008 0.24079 0.0
H1013 H 0.50848 0.72882 0.2381 0.0
H1014 H 0.54658 0.74329 0.22091 0.0
H1015 H 0.55534 0.76318 0.18967 0.0
H1016 H 0.76113 0.54656 0.86122 0.0
H1017 H 0.74028 0.53626 0.83066 0.0
H1018 H 0.81152 0.53765 0.80118 0.0
H1019 H 0.83251 0.54746 0.83165 0.0
H1020 H 0.74025 0.568 0.80026 0.0
H1021 H 0.77934 0.47746 0.77595 0.0
H1022 H 0.7824 0.48849 0.80059 0.0
H1023 H 0.8032 0.4998 0.78199 0.0
C1024 C 0.77247 0.54389 0.84836 0.0
C1025 C 0.79852 0.5479 0.84893 0.0
C1026 C 0.76049 0.53809 0.83085 0.0
C1027 C 0.77428 0.536 0.81355 0.0
C1028 C 0.80045 0.53861 0.81431 0.0
H1029 H 0.74526 0.55012 0.69133 0.0
H1030 H 0.76306 0.54108 0.72325 0.0
C1031 C 0.81245 0.54436 0.83181 0.0
C1032 C 0.76115 0.5344 0.7945 0.0
H1033 H 0.75904 0.50235 0.75156 0.0
C1034 C 0.74407 0.55339 0.78975 0.0
C1035 C 0.76629 0.51551 0.78065 0.0
C1036 C 0.78363 0.49403 0.7851 0.0
C1037 C 0.73267 0.55453 0.77143 0.0
C1038 C 0.73805 0.53585 0.75747 0.0
C1039 C 0.75485 0.51661 0.76226 0.0
C1040 C 0.72723 0.53691 0.73757 0.0
C1041 C 0.71574 0.57638 0.76692 0.0
C1042 C 0.70118 0.53633 0.73476 0.0
C1043 C 0.69092 0.54156 0.71652 0.0
C1044 C 0.70653 0.54727 0.70067 0.0
C1045 C 0.73266 0.54582 0.70319 0.0
C1046 C 0.7429 0.5407 0.72147 0.0
H1047 H 0.71814 0.59192 0.77746 0.0
H1048 H 0.71941 0.5837 0.75212 0.0
H1049 H 0.69593 0.57012 0.76758 0.0
H1050 H 0.68871 0.53294 0.74687 0.0
H1051 H 0.67073 0.54236 0.71511 0.0
H1052 H 0.94487 0.82975 0.32917 0.0
H1053 H 0.95372 0.80668 0.29938 0.0
H1054 H 0.95954 0.73823 0.33207 0.0
H1055 H 0.95013 0.7611 0.36197 0.0
H1056 H 0.99116 0.77502 0.28511 0.0
H1057 H 0.90131 0.72403 0.29537 0.0
H1058 H 0.90981 0.75083 0.30983 0.0
H1059 H 0.92317 0.72069 0.31495 0.0
C1060 C 0.94855 0.80986 0.33014 0.0
C1061 C 0.94646 0.79724 0.34799 0.0
C1062 C 0.9536 0.79668 0.31303 0.0
C1063 C 0.95668 0.77061 0.31338 0.0
C1064 C 0.95665 0.75826 0.33137 0.0
H1065 H 0.94826 0.66171 0.2196 0.0
H1066 H 0.95829 0.68201 0.25036 0.0
C1067 C 0.95149 0.77142 0.3485 0.0
C1068 C 0.95768 0.75631 0.29484 0.0
H1069 H 0.92521 0.71343 0.26798 0.0
C1070 C 0.97683 0.76144 0.2814 0.0
C1071 C 0.93886 0.73873 0.28988 0.0
C1072 C 0.91698 0.73334 0.30315 0.0
C1073 C 0.97773 0.74935 0.26324 0.0
C1074 C 0.95878 0.73193 0.25828 0.0
C1075 C 0.93985 0.72662 0.27182 0.0
C1076 C 0.95732 0.71966 0.23889 0.0
C1077 C 0.99904 0.7552 0.24962 0.0
C1078 C 0.95417 0.73396 0.22197 0.0
C1079 C 0.94854 0.72235 0.20426 0.0
C1080 C 0.9457 0.69621 0.20315 0.0
C1081 C 0.95031 0.68187 0.21988 0.0
C1082 C 0.95598 0.69347 0.23754 0.0
H1083 H 0.01551 0.76285 0.2575 0.0
H1084 H 0.00493 0.73829 0.24146 0.0
H1085 H 0.99283 0.76951 0.23902 0.0
H1086 H 0.95461 0.7542 0.22266 0.0
H1087 H 0.94489 0.73399 0.19173 0.0
H1088 H 0.45092 0.10133 0.18327 0.0
H1089 H 0.48702 0.07427 0.18943 0.0
H1090 H 0.4374 0.01178 0.19916 0.0
H1091 H 0.40123 0.03874 0.19341 0.0
H1092 H 0.47837 0.01263 0.22467 0.0
H1093 H 0.50867 0.02404 0.148 0.0
H1094 H 0.50583 0.05258 0.16157 0.0
H1095 H 0.47838 0.03421 0.15648 0.0
C1096 C 0.44766 0.08193 0.18705 0.0
C1097 C 0.42318 0.07215 0.18764 0.0
C1098 C 0.46833 0.06645 0.19044 0.0
C1099 C 0.46492 0.04088 0.19432 0.0
C1100 C 0.44048 0.03142 0.19607 0.0
H1101 H 0.54358 0.90239 0.19559 0.0
H1102 H 0.51521 0.93735 0.20132 0.0
C1103 C 0.41981 0.04688 0.19276 0.0
C1104 C 0.48663 0.02354 0.19531 0.0
H1105 H 0.53317 0.99798 0.16769 0.0
C1106 C 0.4905 0.00956 0.21227 0.0
C1107 C 0.50244 0.01953 0.17911 0.0
C1108 C 0.4986 0.03319 0.16019 0.0
C1109 C 0.50956 0.99148 0.21339 0.0
C1110 C 0.52489 0.987 0.19701 0.0
C1111 C 0.5215 0.00152 0.18027 0.0
C1112 C 0.54311 0.96602 0.1962 0.0
C1113 C 0.51303 0.97726 0.23207 0.0
C1114 C 0.56833 0.97043 0.19142 0.0
C1115 C 0.58466 0.95039 0.18804 0.0
C1116 C 0.57595 0.92558 0.18915 0.0
C1117 C 0.55094 0.92126 0.19466 0.0
C1118 C 0.53469 0.94126 0.19808 0.0
H1119 H 0.50583 0.98803 0.24467 0.0
H1120 H 0.50239 0.95944 0.23129 0.0
H1121 H 0.53307 0.97278 0.2346 0.0
H1122 H 0.57519 0.9894 0.18975 0.0
H1123 H 0.60377 0.95438 0.18374 0.0
H1124 H 0.55215 0.59751 0.68019 0.0
H1125 H 0.51643 0.57016 0.68705 0.0
H1126 H 0.56697 0.51001 0.70117 0.0
H1127 H 0.60273 0.53729 0.69467 0.0
H1128 H 0.50682 0.52786 0.66648 0.0
H1129 H 0.51555 0.50363 0.74417 0.0
H1130 H 0.532 0.52974 0.73342 0.0
H1131 H 0.54399 0.49845 0.73088 0.0
C1132 C 0.55568 0.57865 0.68522 0.0
C1133 C 0.58031 0.56958 0.68684 0.0
C1134 C 0.53522 0.56302 0.6891 0.0
C1135 C 0.53897 0.53808 0.69481 0.0
C1136 C 0.56356 0.52931 0.69721 0.0
H1137 H 0.45795 0.40001 0.695 0.0
H1138 H 0.48739 0.43448 0.69998 0.0
C1139 C 0.58402 0.54493 0.69336 0.0
C1140 C 0.51743 0.52048 0.69602 0.0
H1141 H 0.48941 0.47667 0.72494 0.0
C1142 C 0.50274 0.51697 0.67937 0.0
C1143 C 0.51223 0.50615 0.7128 0.0
C1144 C 0.52663 0.50983 0.73139 0.0
C1145 C 0.48368 0.49887 0.67876 0.0
C1146 C 0.47881 0.48415 0.6954 0.0
C1147 C 0.49312 0.48801 0.71222 0.0
C1148 C 0.46004 0.46361 0.69507 0.0
C1149 C 0.46969 0.49489 0.65999 0.0
C1150 C 0.43465 0.46855 0.6914 0.0
C1151 C 0.41774 0.44886 0.68847 0.0
C1152 C 0.42592 0.42387 0.68927 0.0
C1153 C 0.45103 0.41902 0.69418 0.0
C1154 C 0.46791 0.43871 0.69707 0.0
H1155 H 0.47932 0.50387 0.64751 0.0
H1156 H 0.46751 0.47462 0.65685 0.0
H1157 H 0.45071 0.50318 0.66123 0.0
H1158 H 0.42809 0.48764 0.69016 0.0
H1159 H 0.39851 0.45325 0.68483 0.0
H1160 H 0.0974 0.45429 0.19786 0.0
H1161 H 0.06268 0.48291 0.20395 0.0
H1162 H 0.01007 0.42566 0.18702 0.0
H1163 H 0.04479 0.39671 0.18105 0.0
H1164 H 0.03073 0.49674 0.17382 0.0
H1165 H 0.97666 0.45671 0.23534 0.0
H1166 H 0.00875 0.44809 0.23036 0.0
H1167 H 0.98379 0.43534 0.21598 0.0
C1168 C 0.07843 0.44754 0.19585 0.0
C1169 C 0.07388 0.42323 0.18886 0.0
C1170 C 0.0586 0.46395 0.19935 0.0
C1171 C 0.03377 0.45641 0.19603 0.0
C1172 C 0.02904 0.43176 0.19 0.0
H1173 H 0.89625 0.5426 0.18292 0.0
H1174 H 0.9264 0.50847 0.18736 0.0
C1175 C 0.04893 0.41525 0.18652 0.0
C1176 C 0.01339 0.47529 0.19658 0.0
H1177 H 0.95836 0.49116 0.2188 0.0
C1178 C 0.01499 0.49557 0.18374 0.0
C1179 C 0.9927 0.47354 0.20935 0.0
C1180 C 0.99034 0.45237 0.22367 0.0
C1181 C 0.9965 0.51415 0.18326 0.0
C1182 C 0.97604 0.51275 0.19627 0.0
C1183 C 0.97417 0.49227 0.20896 0.0
C1184 C 0.95663 0.5326 0.19672 0.0
C1185 C 0.99884 0.53493 0.16854 0.0
C1186 C 0.96332 0.55728 0.20135 0.0
C1187 C 0.94625 0.57677 0.19873 0.0
C1188 C 0.92204 0.57192 0.19163 0.0
C1189 C 0.91476 0.54695 0.1884 0.0
C1190 C 0.93196 0.52743 0.19091 0.0
H1191 H 0.01183 0.52989 0.15657 0.0
H1192 H 0.98031 0.53963 0.16221 0.0
H1193 H 0.00633 0.55192 0.17575 0.0
H1194 H 0.98214 0.56161 0.20619 0.0
H1195 H 0.95239 0.59575 0.20154 0.0
H1196 H 0.90112 0.95964 0.69329 0.0
H1197 H 0.93761 0.98613 0.69928 0.0
H1198 H 0.98643 0.92339 0.6887 0.0
H1199 H 0.94995 0.89676 0.68231 0.0
H1200 H 0.9786 0.98436 0.72475 0.0
H1201 H 0.00848 0.97434 0.64783 0.0
H1202 H 0.97811 0.96424 0.65623 0.0
H1203 H 0.00537 0.94564 0.66116 0.0
C1204 C 0.91959 0.95133 0.69249 0.0
C1205 C 0.92262 0.92613 0.68708 0.0
C1206 C 0.94045 0.96652 0.69595 0.0
C1207 C 0.96476 0.95688 0.69406 0.0
C1208 C 0.96785 0.93135 0.68985 0.0
H1209 H 0.10263 0.04538 0.68321 0.0
H1210 H 0.07479 0.0097 0.68925 0.0
C1211 C 0.94696 0.91611 0.68633 0.0
C1212 C 0.98662 0.97406 0.69521 0.0
H1213 H 0.03269 0.00057 0.6676 0.0
C1214 C 0.9906 0.98774 0.71232 0.0
C1215 C 0.00227 0.97847 0.67898 0.0
C1216 C 0.99833 0.96509 0.65994 0.0
C1217 C 0.00953 0.006 0.71353 0.0
C1218 C 0.02461 0.01098 0.69709 0.0
C1219 C 0.0212 0.99667 0.68022 0.0
C1220 C 0.04247 0.03232 0.69633 0.0
C1221 C 0.0131 0.01991 0.73235 0.0
C1222 C 0.03367 0.05688 0.69858 0.0
C1223 C 0.0495 0.07726 0.69515 0.0
C1224 C 0.07445 0.07352 0.68925 0.0
C1225 C 0.08355 0.04891 0.6878 0.0
C1226 C 0.06765 0.0285 0.6912 0.0
H1227 H 0.00629 0.00874 0.74488 0.0
H1228 H 0.0331 0.02475 0.73473 0.0
H1229 H 0.00213 0.03752 0.73191 0.0
H1230 H 0.0142 0.06035 0.7021 0.0
H1231 H 0.04184 0.09596 0.69634 0.0
H1232 H 0.59591 0.54632 0.36544 0.0
H1233 H 0.56463 0.51348 0.36017 0.0
H1234 H 0.51028 0.56929 0.344 0.0
H1235 H 0.54125 0.6022 0.34951 0.0
H1236 H 0.49445 0.53907 0.37367 0.0
H1237 H 0.53098 0.48097 0.31331 0.0
H1238 H 0.55307 0.48634 0.3325 0.0
H1239 H 0.54231 0.51223 0.31813 0.0
C1240 C 0.57749 0.55155 0.36027 0.0
C1241 C 0.57103 0.57689 0.358 0.0
C1242 C 0.55965 0.53273 0.35718 0.0
C1243 C 0.53513 0.5389 0.35156 0.0
C1244 C 0.52908 0.56409 0.34829 0.0
H1245 H 0.3928 0.45946 0.35116 0.0
H1246 H 0.42672 0.48909 0.34469 0.0
C1247 C 0.54684 0.58289 0.35144 0.0
C1248 C 0.51502 0.51965 0.35145 0.0
H1249 H 0.49685 0.46396 0.33145 0.0
C1250 C 0.49486 0.52279 0.36428 0.0
C1251 C 0.51574 0.49826 0.33937 0.0
C1252 C 0.53657 0.49427 0.32492 0.0
C1253 C 0.4756 0.50501 0.36561 0.0
C1254 C 0.4762 0.48367 0.35348 0.0
C1255 C 0.49637 0.48042 0.34064 0.0
C1256 C 0.4562 0.46438 0.35443 0.0
C1257 C 0.45511 0.50891 0.38042 0.0
C1258 C 0.46165 0.44019 0.36108 0.0
C1259 C 0.4423 0.42309 0.36466 0.0
C1260 C 0.41715 0.42994 0.36164 0.0
C1261 C 0.41193 0.45365 0.35381 0.0
C1262 C 0.43129 0.47066 0.35016 0.0
H1263 H 0.46057 0.52282 0.39163 0.0
H1264 H 0.43808 0.51597 0.37302 0.0
H1265 H 0.45024 0.49106 0.38775 0.0
H1266 H 0.48078 0.43494 0.36438 0.0
H1267 H 0.44697 0.40496 0.37065 0.0
H1268 H 0.04258 0.39653 0.8491 0.0
H1269 H 0.01323 0.43081 0.84372 0.0
H1270 H 0.07008 0.48403 0.86035 0.0
H1271 H 0.09976 0.44978 0.86552 0.0
H1272 H 0.99922 0.46142 0.87404 0.0
H1273 H 0.03751 0.51832 0.81352 0.0
H1274 H 0.04723 0.48646 0.81797 0.0
H1275 H 0.05942 0.51152 0.83256 0.0
C1276 C 0.04907 0.41556 0.85116 0.0
C1277 C 0.07348 0.42042 0.85785 0.0
C1278 C 0.03225 0.43514 0.84808 0.0
C1279 C 0.03946 0.46 0.85154 0.0
C1280 C 0.06422 0.46505 0.85724 0.0
H1281 H 0.95371 0.59601 0.87027 0.0
H1282 H 0.98742 0.56588 0.86424 0.0
C1283 C 0.08114 0.44542 0.86027 0.0
C1284 C 0.02021 0.48003 0.85161 0.0
H1285 H 0.0036 0.53597 0.83134 0.0
C1286 C 9e-05 0.47761 0.86458 0.0
C1287 C 0.02157 0.50131 0.83946 0.0
C1288 C 0.04247 0.50456 0.82496 0.0
C1289 C 0.98137 0.49589 0.86586 0.0
C1290 C 0.98248 0.51702 0.85353 0.0
C1291 C 0.00272 0.51965 0.84066 0.0
C1292 C 0.96274 0.53651 0.85416 0.0
C1293 C 0.96083 0.49267 0.88072 0.0
C1294 C 0.93784 0.53032 0.8497 0.0
C1295 C 0.91857 0.54739 0.85322 0.0
C1296 C 0.92386 0.57109 0.8611 0.0
C1297 C 0.94901 0.5779 0.86423 0.0
C1298 C 0.9683 0.56071 0.86079 0.0
H1299 H 0.96604 0.47892 0.8921 0.0
H1300 H 0.95633 0.51076 0.88783 0.0
H1301 H 0.94365 0.48574 0.87343 0.0
H1302 H 0.93321 0.51188 0.84425 0.0
H1303 H 0.89944 0.54163 0.85047 0.0
H1304 H 0.89838 0.95182 0.36325 0.0
H1305 H 0.9284 0.9859 0.35804 0.0
H1306 H 0.98575 0.93209 0.34405 0.0
H1307 H 0.95608 0.89802 0.34947 0.0
H1308 H 0.99861 0.96395 0.37394 0.0
H1309 H 0.96303 0.0182 0.31108 0.0
H1310 H 0.94042 0.01214 0.32983 0.0
H1311 H 0.95306 0.98653 0.3161 0.0
C1312 C 0.91721 0.94728 0.35857 0.0
C1313 C 0.92489 0.9222 0.3569 0.0
C1314 C 0.93433 0.9668 0.35553 0.0
C1315 C 0.95931 0.96155 0.35055 0.0
C1316 C 0.96658 0.93658 0.34785 0.0
H1317 H 0.10052 0.04068 0.3487 0.0
H1318 H 0.06598 0.01158 0.34296 0.0
C1319 C 0.94956 0.91711 0.35096 0.0
C1320 C 0.97864 0.98157 0.35055 0.0
H1321 H 0.99677 0.0362 0.32884 0.0
C1322 C 0.99826 0.97965 0.36398 0.0
C1323 C 0.97798 0.00222 0.33773 0.0
C1324 C 0.95762 0.00491 0.32274 0.0
C1325 C 0.01722 0.99777 0.36501 0.0
C1326 C 0.01686 0.0182 0.35199 0.0
C1327 C 0.99707 0.02041 0.3387 0.0
C1328 C 0.03707 0.03727 0.3522 0.0
C1329 C 0.03729 0.99508 0.38027 0.0
C1330 C 0.03212 0.06182 0.35832 0.0
C1331 C 0.05187 0.07863 0.36151 0.0
C1332 C 0.07685 0.07108 0.35864 0.0
C1333 C 0.08153 0.04702 0.35123 0.0
C1334 C 0.06181 0.03032 0.34798 0.0
H1335 H 0.03157 0.98196 0.39197 0.0
H1336 H 0.05458 0.98763 0.37346 0.0
H1337 H 0.04185 0.01347 0.3869 0.0
H1338 H 0.01313 0.06756 0.36159 0.0
H1339 H 0.04764 0.09703 0.3672 0.0
H1340 H 0.55097 0.90093 0.86622 0.0
H1341 H 0.51674 0.93038 0.86028 0.0
H1342 H 0.57023 0.98675 0.84316 0.0
H1343 H 0.6045 0.95762 0.8493 0.0
H1344 H 0.53902 0.00173 0.87275 0.0
H1345 H 0.48313 0.96123 0.8126 0.0
H1346 H 0.48955 0.93993 0.8321 0.0
H1347 H 0.51494 0.9517 0.8176 0.0
C1348 C 0.55541 0.91938 0.86071 0.0
C1349 C 0.58047 0.92698 0.85835 0.0
C1350 C 0.53579 0.93618 0.85723 0.0
C1351 C 0.5409 0.96074 0.85115 0.0
C1352 C 0.56584 0.96788 0.8478 0.0
H1353 H 0.45624 0.09934 0.84837 0.0
H1354 H 0.48705 0.06643 0.84239 0.0
C1355 C 0.58542 0.95118 0.85132 0.0
C1356 C 0.52077 0.97988 0.85066 0.0
H1357 H 0.46465 0.99513 0.82997 0.0
C1358 C 0.52289 0.0004 0.86325 0.0
C1359 C 0.49958 0.97794 0.83844 0.0
C1360 C 0.49667 0.95663 0.82428 0.0
C1361 C 0.50431 0.01886 0.86417 0.0
C1362 C 0.48319 0.01709 0.85186 0.0
C1363 C 0.48094 0.99652 0.83929 0.0
C1364 C 0.46316 0.0363 0.85231 0.0
C1365 C 0.50714 0.03977 0.87874 0.0
C1366 C 0.43903 0.0301 0.85884 0.0
C1367 C 0.42125 0.04887 0.86212 0.0
C1368 C 0.42737 0.07416 0.85893 0.0
C1369 C 0.451 0.08008 0.85115 0.0
C1370 C 0.46868 0.06131 0.84779 0.0
H1371 H 0.52101 0.0351 0.89018 0.0
H1372 H 0.51376 0.05688 0.87119 0.0
H1373 H 0.48895 0.04409 0.88579 0.0
H1374 H 0.43436 0.01088 0.86233 0.0
H1375 H 0.4032 0.04368 0.86808 0.0
loop_
_geom_bond_atom_site_label_1
_geom_bond_atom_site_label_2
_geom_bond_distance
_geom_bond_site_symmetry_2
_ccdc_geom_bond_type
O0 Cd1 2.223 . S
O0 C8 1.315 . S
Cd1 O0 2.223 . S
Cd1 O4 2.297 . S
Cd1 O5 2.439 . S
Cd1 O11 2.240 . S
Cd2 O3 2.240 . S
Cd2 O10 2.223 . S
Cd2 O12 2.297 . S
Cd2 O13 2.439 . S
O3 Cd2 2.240 . S
O3 C8 1.279 . S
O4 Cd1 2.297 . S
O4 C6 1.247 . S
O5 Cd1 2.439 . S
O5 C6 1.208 . S
C6 O4 1.247 . S
C6 O5 1.208 . S
C7 O12 1.247 . S
C7 O13 1.208 . S
C8 O0 1.315 . S
C8 O3 1.279 . S
C9 O10 1.315 . S
C9 O11 1.279 . S
O10 Cd2 2.223 . S
O10 C9 1.315 . S
O11 Cd1 2.240 . S
O11 C9 1.279 . S
O12 Cd2 2.297 . S
O12 C7 1.247 . S
O13 Cd2 2.439 . S
O13 C7 1.208 . S
O14 Cd15 2.223 . S
O14 C22 1.315 . S
Cd15 O14 2.223 . S
Cd15 O18 2.297 . S
Cd15 O19 2.439 . S
Cd15 O25 2.240 . S
Cd16 O17 2.240 . S
Cd16 O24 2.223 . S
Cd16 O26 2.297 . S
Cd16 O27 2.439 . S
O17 Cd16 2.240 . S
O17 C22 1.279 . S
O18 Cd15 2.297 . S
O18 C20 1.247 . S
O19 Cd15 2.439 . S
O19 C20 1.208 . S
C20 O18 1.247 . S
C20 O19 1.208 . S
C21 O26 1.247 . S
C21 O27 1.208 . S
C22 O14 1.315 . S
C22 O17 1.279 . S
C23 O24 1.315 . S
C23 O25 1.279 . S
O24 Cd16 2.223 . S
O24 C23 1.315 . S
O25 Cd15 2.240 . S
O25 C23 1.279 . S
O26 Cd16 2.297 . S
O26 C21 1.247 . S
O27 Cd16 2.439 . S
O27 C21 1.208 . S
O28 Cd29 2.223 . S
O28 C36 1.315 . S
Cd29 O28 2.223 . S
Cd29 O32 2.297 . S
Cd29 O33 2.439 . S
Cd29 O39 2.240 . S
Cd30 O31 2.240 . S
Cd30 O38 2.223 . S
Cd30 O40 2.297 . S
Cd30 O41 2.439 . S
O31 Cd30 2.240 . S
O31 C36 1.279 . S
O32 Cd29 2.297 . S
O32 C34 1.247 . S
O33 Cd29 2.439 . S
O33 C34 1.208 . S
C34 O32 1.247 . S
C34 O33 1.208 . S
C35 O40 1.247 . S
C35 O41 1.208 . S
C36 O28 1.315 . S
C36 O31 1.279 . S
C37 O38 1.315 . S
C37 O39 1.279 . S
O38 Cd30 2.223 . S
O38 C37 1.315 . S
O39 Cd29 2.240 . S
O39 C37 1.279 . S
O40 Cd30 2.297 . S
O40 C35 1.247 . S
O41 Cd30 2.439 . S
O41 C35 1.208 . S
O42 Cd43 2.223 . S
O42 C50 1.315 . S
Cd43 O42 2.223 . S
Cd43 O46 2.297 . S
Cd43 O47 2.439 . S
Cd43 O53 2.240 . S
Cd44 O45 2.240 . S
Cd44 O52 2.223 . S
Cd44 O54 2.297 . S
Cd44 O55 2.439 . S
O45 Cd44 2.240 . S
O45 C50 1.279 . S
O46 Cd43 2.297 . S
O46 C48 1.247 . S
O47 Cd43 2.439 . S
O47 C48 1.208 . S
C48 O46 1.247 . S
C48 O47 1.208 . S
C49 O54 1.247 . S
C49 O55 1.208 . S
C50 O42 1.315 . S
C50 O45 1.279 . S
C51 O52 1.315 . S
C51 O53 1.279 . S
O52 Cd44 2.223 . S
O52 C51 1.315 . S
O53 Cd43 2.240 . S
O53 C51 1.279 . S
O54 Cd44 2.297 . S
O54 C49 1.247 . S
O55 Cd44 2.439 . S
O55 C49 1.208 . S
O56 Cd57 2.223 . S
O56 C64 1.315 . S
Cd57 O56 2.223 . S
Cd57 O60 2.297 . S
Cd57 O61 2.439 . S
Cd57 O67 2.240 . S
Cd58 O59 2.240 . S
Cd58 O66 2.223 . S
Cd58 O68 2.297 . S
Cd58 O69 2.439 . S
O59 Cd58 2.240 . S
O59 C64 1.279 . S
O60 Cd57 2.297 . S
O60 C62 1.247 . S
O61 Cd57 2.439 . S
O61 C62 1.208 . S
C62 O60 1.247 . S
C62 O61 1.208 . S
C63 O68 1.247 . S
C63 O69 1.208 . S
C64 O56 1.315 . S
C64 O59 1.279 . S
C65 O66 1.315 . S
C65 O67 1.279 . S
O66 Cd58 2.223 . S
O66 C65 1.315 . S
O67 Cd57 2.240 . S
O67 C65 1.279 . S
O68 Cd58 2.297 . S
O68 C63 1.247 . S
O69 Cd58 2.439 . S
O69 C63 1.208 . S
O70 Cd71 2.223 . S
O70 C78 1.315 . S
Cd71 O70 2.223 . S
Cd71 O74 2.297 . S
Cd71 O75 2.439 . S
Cd71 O81 2.240 . S
Cd72 O73 2.240 . S
Cd72 O80 2.223 . S
Cd72 O82 2.297 . S
Cd72 O83 2.439 . S
O73 Cd72 2.240 . S
O73 C78 1.279 . S
O74 Cd71 2.297 . S
O74 C76 1.247 . S
O75 Cd71 2.439 . S
O75 C76 1.208 . S
C76 O74 1.247 . S
C76 O75 1.208 . S
C77 O82 1.247 . S
C77 O83 1.208 . S
C78 O70 1.315 . S
C78 O73 1.279 . S
C79 O80 1.315 . S
C79 O81 1.279 . S
O80 Cd72 2.223 . S
O80 C79 1.315 . S
O81 Cd71 2.240 . S
O81 C79 1.279 . S
O82 Cd72 2.297 . S
O82 C77 1.247 . S
O83 Cd72 2.439 . S
O83 C77 1.208 . S
O84 Cd85 2.223 . S
O84 C92 1.315 . S
Cd85 O84 2.223 . S
Cd85 O88 2.297 . S
Cd85 O89 2.439 . S
Cd85 O95 2.240 . S
Cd86 O87 2.240 . S
Cd86 O94 2.223 . S
Cd86 O96 2.297 . S
Cd86 O97 2.439 . S
O87 Cd86 2.240 . S
O87 C92 1.279 . S
O88 Cd85 2.297 . S
O88 C90 1.247 . S
O89 Cd85 2.439 . S
O89 C90 1.208 . S
C90 O88 1.247 . S
C90 O89 1.208 . S
C91 O96 1.247 . S
C91 O97 1.208 . S
C92 O84 1.315 . S
C92 O87 1.279 . S
C93 O94 1.315 . S
C93 O95 1.279 . S
O94 Cd86 2.223 . S
O94 C93 1.315 . S
O95 Cd85 2.240 . S
O95 C93 1.279 . S
O96 Cd86 2.297 . S
O96 C91 1.247 . S
O97 Cd86 2.439 . S
O97 C91 1.208 . S
O98 Cd99 2.223 . S
O98 C106 1.315 . S
Cd99 O98 2.223 . S
Cd99 O102 2.297 . S
Cd99 O103 2.439 . S
Cd99 O109 2.240 . S
Cd100 O101 2.240 . S
Cd100 O108 2.223 . S
Cd100 O110 2.297 . S
Cd100 O111 2.439 . S
O101 Cd100 2.240 . S
O101 C106 1.279 . S
O102 Cd99 2.297 . S
O102 C104 1.247 . S
O103 Cd99 2.439 . S
O103 C104 1.208 . S
C104 O102 1.247 . S
C104 O103 1.208 . S
C105 O110 1.247 . S
C105 O111 1.208 . S
C106 O98 1.315 . S
C106 O101 1.279 . S
C107 O108 1.315 . S
C107 O109 1.279 . S
O108 Cd100 2.223 . S
O108 C107 1.315 . S
O109 Cd99 2.240 . S
O109 C107 1.279 . S
O110 Cd100 2.297 . S
O110 C105 1.247 . S
O111 Cd100 2.439 . S
O111 C105 1.208 . S
O112 Cd113 2.223 . S
O112 C120 1.315 . S
Cd113 O112 2.223 . S
Cd113 O116 2.297 . S
Cd113 O117 2.439 . S
Cd113 O123 2.240 . S
Cd114 O115 2.240 . S
Cd114 O122 2.223 . S
Cd114 O124 2.297 . S
Cd114 O125 2.439 . S
O115 Cd114 2.240 . S
O115 C120 1.279 . S
O116 Cd113 2.297 . S
O116 C118 1.247 . S
O117 Cd113 2.439 . S
O117 C118 1.208 . S
C118 O116 1.247 . S
C118 O117 1.208 . S
C119 O124 1.247 . S
C119 O125 1.208 . S
C120 O112 1.315 . S
C120 O115 1.279 . S
C121 O122 1.315 . S
C121 O123 1.279 . S
O122 Cd114 2.223 . S
O122 C121 1.315 . S
O123 Cd113 2.240 . S
O123 C121 1.279 . S
O124 Cd114 2.297 . S
O124 C119 1.247 . S
O125 Cd114 2.439 . S
O125 C119 1.208 . S
O126 Cd127 2.223 . S
O126 C134 1.315 . S
Cd127 O126 2.223 . S
Cd127 O130 2.297 . S
Cd127 O131 2.439 . S
Cd127 O137 2.240 . S
Cd128 O129 2.240 . S
Cd128 O136 2.223 . S
Cd128 O138 2.297 . S
Cd128 O139 2.439 . S
O129 Cd128 2.240 . S
O129 C134 1.279 . S
O130 Cd127 2.297 . S
O130 C132 1.247 . S
O131 Cd127 2.439 . S
O131 C132 1.208 . S
C132 O130 1.247 . S
C132 O131 1.208 . S
C133 O138 1.247 . S
C133 O139 1.208 . S
C134 O126 1.315 . S
C134 O129 1.279 . S
C135 O136 1.315 . S
C135 O137 1.279 . S
O136 Cd128 2.223 . S
O136 C135 1.315 . S
O137 Cd127 2.240 . S
O137 C135 1.279 . S
O138 Cd128 2.297 . S
O138 C133 1.247 . S
O139 Cd128 2.439 . S
O139 C133 1.208 . S
O140 Cd141 2.223 . S
O140 C148 1.315 . S
Cd141 O140 2.223 . S
Cd141 O144 2.297 . S
Cd141 O145 2.439 . S
Cd141 O151 2.240 . S
Cd142 O143 2.240 . S
Cd142 O150 2.223 . S
Cd142 O152 2.297 . S
Cd142 O153 2.439 . S
O143 Cd142 2.240 . S
O143 C148 1.279 . S
O144 Cd141 2.297 . S
O144 C146 1.247 . S
O145 Cd141 2.439 . S
O145 C146 1.208 . S
C146 O144 1.247 . S
C146 O145 1.208 . S
C147 O152 1.247 . S
C147 O153 1.208 . S
C148 O140 1.315 . S
C148 O143 1.279 . S
C149 O150 1.315 . S
C149 O151 1.279 . S
O150 Cd142 2.223 . S
O150 C149 1.315 . S
O151 Cd141 2.240 . S
O151 C149 1.279 . S
O152 Cd142 2.297 . S
O152 C147 1.247 . S
O153 Cd142 2.439 . S
O153 C147 1.208 . S
O154 Cd155 2.223 . S
O154 C162 1.315 . S
Cd155 O154 2.223 . S
Cd155 O158 2.297 . S
Cd155 O159 2.439 . S
Cd155 O165 2.240 . S
Cd156 O157 2.240 . S
Cd156 O164 2.223 . S
Cd156 O166 2.297 . S
Cd156 O167 2.439 . S
O157 Cd156 2.240 . S
O157 C162 1.279 . S
O158 Cd155 2.297 . S
O158 C160 1.247 . S
O159 Cd155 2.439 . S
O159 C160 1.208 . S
C160 O158 1.247 . S
C160 O159 1.208 . S
C161 O166 1.247 . S
C161 O167 1.208 . S
C162 O154 1.315 . S
C162 O157 1.279 . S
C163 O164 1.315 . S
C163 O165 1.279 . S
O164 Cd156 2.223 . S
O164 C163 1.315 . S
O165 Cd155 2.240 . S
O165 C163 1.279 . S
O166 Cd156 2.297 . S
O166 C161 1.247 . S
O167 Cd156 2.439 . S
O167 C161 1.208 . S
O168 Cd169 2.223 . S
O168 C176 1.315 . S
Cd169 O168 2.223 . S
Cd169 O172 2.297 . S
Cd169 O173 2.439 . S
Cd169 O179 2.240 . S
Cd170 O171 2.240 . S
Cd170 O178 2.223 . S
Cd170 O180 2.297 . S
Cd170 O181 2.439 . S
O171 Cd170 2.240 . S
O171 C176 1.279 . S
O172 Cd169 2.297 . S
O172 C174 1.247 . S
O173 Cd169 2.439 . S
O173 C174 1.208 . S
C174 O172 1.247 . S
C174 O173 1.208 . S
C175 O180 1.247 . S
C175 O181 1.208 . S
C176 O168 1.315 . S
C176 O171 1.279 . S
C177 O178 1.315 . S
C177 O179 1.279 . S
O178 Cd170 2.223 . S
O178 C177 1.315 . S
O179 Cd169 2.240 . S
O179 C177 1.279 . S
O180 Cd170 2.297 . S
O180 C175 1.247 . S
O181 Cd170 2.439 . S
O181 C175 1.208 . S
O182 Cd183 2.223 . S
O182 C190 1.315 . S
Cd183 O182 2.223 . S
Cd183 O186 2.297 . S
Cd183 O187 2.439 . S
Cd183 O193 2.240 . S
Cd184 O185 2.240 . S
Cd184 O192 2.223 . S
Cd184 O194 2.297 . S
Cd184 O195 2.439 . S
O185 Cd184 2.240 . S
O185 C190 1.279 . S
O186 Cd183 2.297 . S
O186 C188 1.247 . S
O187 Cd183 2.439 . S
O187 C188 1.208 . S
C188 O186 1.247 . S
C188 O187 1.208 . S
C189 O194 1.247 . S
C189 O195 1.208 . S
C190 O182 1.315 . S
C190 O185 1.279 . S
C191 O192 1.315 . S
C191 O193 1.279 . S
O192 Cd184 2.223 . S
O192 C191 1.315 . S
O193 Cd183 2.240 . S
O193 C191 1.279 . S
O194 Cd184 2.297 . S
O194 C189 1.247 . S
O195 Cd184 2.439 . S
O195 C189 1.208 . S
O196 Cd197 2.223 . S
O196 C204 1.315 . S
Cd197 O196 2.223 . S
Cd197 O200 2.297 . S
Cd197 O201 2.439 . S
Cd197 O207 2.240 . S
Cd198 O199 2.240 . S
Cd198 O206 2.223 . S
Cd198 O208 2.297 . S
Cd198 O209 2.439 . S
O199 Cd198 2.240 . S
O199 C204 1.279 . S
O200 Cd197 2.297 . S
O200 C202 1.247 . S
O201 Cd197 2.439 . S
O201 C202 1.208 . S
C202 O200 1.247 . S
C202 O201 1.208 . S
C203 O208 1.247 . S
C203 O209 1.208 . S
C204 O196 1.315 . S
C204 O199 1.279 . S
C205 O206 1.315 . S
C205 O207 1.279 . S
O206 Cd198 2.223 . S
O206 C205 1.315 . S
O207 Cd197 2.240 . S
O207 C205 1.279 . S
O208 Cd198 2.297 . S
O208 C203 1.247 . S
O209 Cd198 2.439 . S
O209 C203 1.208 . S
O210 Cd211 2.223 . S
O210 C218 1.315 . S
Cd211 O210 2.223 . S
Cd211 O214 2.297 . S
Cd211 O215 2.439 . S
Cd211 O221 2.240 . S
Cd212 O213 2.240 . S
Cd212 O220 2.223 . S
Cd212 O222 2.297 . S
Cd212 O223 2.439 . S
O213 Cd212 2.240 . S
O213 C218 1.279 . S
O214 Cd211 2.297 . S
O214 C216 1.247 . S
O215 Cd211 2.439 . S
O215 C216 1.208 . S
C216 O214 1.247 . S
C216 O215 1.208 . S
C217 O222 1.247 . S
C217 O223 1.208 . S
C218 O210 1.315 . S
C218 O213 1.279 . S
C219 O220 1.315 . S
C219 O221 1.279 . S
O220 Cd212 2.223 . S
O220 C219 1.315 . S
O221 Cd211 2.240 . S
O221 C219 1.279 . S
O222 Cd212 2.297 . S
O222 C217 1.247 . S
O223 Cd212 2.439 . S
O223 C217 1.208 . S
H224 C232 0.929 . S
H225 C234 0.930 . S
H226 C236 0.930 . S
H227 C239 0.929 . S
H228 C242 0.928 . S
H229 C244 0.960 . S
H230 C244 0.960 . S
H231 C244 0.960 . S
C232 H224 0.929 . S
C232 C233 1.377 . S
C232 C234 1.384 . S
C233 C232 1.377 . S
C233 C239 1.390 . S
C234 H225 0.930 . S
C234 C232 1.384 . S
C234 C235 1.372 . S
C235 C234 1.372 . S
C235 C236 1.400 . S
C235 C240 1.490 . S
C236 H226 0.930 . S
C236 C235 1.400 . S
C236 C239 1.386 . S
H237 C253 0.930 . S
H238 C254 0.931 . S
C239 H227 0.929 . S
C239 C233 1.390 . S
C239 C236 1.386 . S
C240 C235 1.490 . S
C240 C242 1.395 . S
C240 C243 1.403 . S
H241 C247 0.930 . S
C242 H228 0.928 . S
C242 C240 1.395 . S
C242 C245 1.403 1_556 S
C243 C240 1.403 . S
C243 C244 1.524 . S
C243 C247 1.400 1_556 S
C244 H229 0.960 . S
C244 H230 0.960 . S
C244 H231 0.960 . S
C244 C243 1.524 . S
C245 C242 1.403 1_554 S
C245 C246 1.392 . S
C245 C249 1.495 . S
C246 C245 1.392 . S
C246 C247 1.385 . S
C246 C248 1.478 . S
C247 H241 0.930 . S
C247 C243 1.400 1_554 S
C247 C246 1.385 . S
C248 C246 1.478 . S
C248 C250 1.381 . S
C248 C254 1.383 . S
C249 C245 1.495 . S
C249 H255 0.959 . S
C249 H256 0.961 . S
C249 H257 0.960 . S
C250 C248 1.381 . S
C250 C251 1.394 . S
C250 H258 0.930 . S
C251 C250 1.394 . S
C251 C252 1.383 . S
C251 H259 0.929 . S
C252 C251 1.383 . S
C252 C253 1.377 . S
C253 H237 0.930 . S
C253 C252 1.377 . S
C253 C254 1.379 . S
C254 H238 0.931 . S
C254 C248 1.383 . S
C254 C253 1.379 . S
H255 C249 0.959 . S
H256 C249 0.961 . S
H257 C249 0.960 . S
H258 C250 0.930 . S
H259 C251 0.929 . S
H260 C268 0.929 . S
H261 C270 0.930 . S
H262 C272 0.930 . S
H263 C275 0.929 . S
H264 C278 0.930 . S
H265 C280 0.960 . S
H266 C280 0.960 . S
H267 C280 0.960 . S
C268 H260 0.929 . S
C268 C269 1.377 . S
C268 C270 1.384 . S
C269 C268 1.377 . S
C269 C275 1.390 . S
C270 H261 0.930 . S
C270 C268 1.384 . S
C270 C271 1.372 . S
C271 C270 1.372 . S
C271 C272 1.400 . S
C271 C276 1.490 . S
C272 H262 0.930 . S
C272 C271 1.400 . S
C272 C275 1.386 . S
H273 C289 0.930 . S
H274 C290 0.931 . S
C275 H263 0.929 . S
C275 C269 1.390 . S
C275 C272 1.386 . S
C276 C271 1.490 . S
C276 C278 1.395 . S
C276 C279 1.403 . S
H277 C283 0.930 . S
C278 H264 0.930 . S
C278 C276 1.395 . S
C278 C281 1.403 . S
C279 C276 1.403 . S
C279 C280 1.524 . S
C279 C283 1.400 . S
C280 H265 0.960 . S
C280 H266 0.960 . S
C280 H267 0.960 . S
C280 C279 1.524 . S
C281 C278 1.403 . S
C281 C282 1.392 . S
C281 C285 1.495 . S
C282 C281 1.392 . S
C282 C283 1.385 . S
C282 C284 1.478 . S
C283 H277 0.930 . S
C283 C279 1.400 . S
C283 C282 1.385 . S
C284 C282 1.478 . S
C284 C286 1.381 . S
C284 C290 1.383 . S
C285 C281 1.495 . S
C285 H291 0.959 . S
C285 H292 0.961 . S
C285 H293 0.960 . S
C286 C284 1.381 . S
C286 C287 1.394 . S
C286 H294 0.930 . S
C287 C286 1.394 . S
C287 C288 1.383 . S
C287 H295 0.929 . S
C288 C287 1.383 . S
C288 C289 1.377 . S
C289 H273 0.930 . S
C289 C288 1.377 . S
C289 C290 1.379 . S
C290 H274 0.931 . S
C290 C284 1.383 . S
C290 C289 1.379 . S
H291 C285 0.959 . S
H292 C285 0.961 . S
H293 C285 0.960 . S
H294 C286 0.930 . S
H295 C287 0.929 . S
H296 C304 0.929 . S
H297 C306 0.930 . S
H298 C308 0.930 . S
H299 C311 0.929 . S
H300 C314 0.930 . S
H301 C316 0.960 . S
H302 C316 0.960 . S
H303 C316 0.960 . S
C304 H296 0.929 . S
C304 C305 1.377 . S
C304 C306 1.384 . S
C305 C304 1.377 . S
C305 C311 1.390 . S
C306 H297 0.930 . S
C306 C304 1.384 . S
C306 C307 1.372 . S
C307 C306 1.372 . S
C307 C308 1.400 . S
C307 C312 1.490 . S
C308 H298 0.930 . S
C308 C307 1.400 . S
C308 C311 1.386 . S
H309 C325 0.930 . S
H310 C326 0.931 . S
C311 H299 0.929 . S
C311 C305 1.390 . S
C311 C308 1.386 . S
C312 C307 1.490 . S
C312 C314 1.395 . S
C312 C315 1.403 . S
H313 C319 0.930 . S
C314 H300 0.930 . S
C314 C312 1.395 . S
C314 C317 1.403 1_556 S
C315 C312 1.403 . S
C315 C316 1.524 . S
C315 C319 1.400 1_556 S
C316 H301 0.960 . S
C316 H302 0.960 . S
C316 H303 0.960 . S
C316 C315 1.524 . S
C317 C314 1.403 1_554 S
C317 C318 1.392 . S
C317 C321 1.495 . S
C318 C317 1.392 . S
C318 C319 1.385 . S
C318 C320 1.478 . S
C319 H313 0.930 . S
C319 C315 1.400 1_554 S
C319 C318 1.385 . S
C320 C318 1.478 . S
C320 C322 1.381 . S
C320 C326 1.383 . S
C321 C317 1.495 . S
C321 H327 0.959 . S
C321 H328 0.961 . S
C321 H329 0.960 . S
C322 C320 1.381 . S
C322 C323 1.394 . S
C322 H330 0.930 . S
C323 C322 1.394 . S
C323 C324 1.383 . S
C323 H331 0.929 . S
C324 C323 1.383 . S
C324 C325 1.377 . S
C325 H309 0.930 . S
C325 C324 1.377 . S
C325 C326 1.379 . S
C326 H310 0.931 . S
C326 C320 1.383 . S
C326 C325 1.379 . S
H327 C321 0.959 . S
H328 C321 0.961 . S
H329 C321 0.960 . S
H330 C322 0.930 . S
H331 C323 0.929 . S
H332 C340 0.929 . S
H333 C342 0.930 . S
H334 C344 0.930 . S
H335 C347 0.929 . S
H336 C350 0.930 . S
H337 C352 0.960 . S
H338 C352 0.960 . S
H339 C352 0.960 . S
C340 H332 0.929 . S
C340 C341 1.377 . S
C340 C342 1.384 . S
C341 C340 1.377 . S
C341 C347 1.390 . S
C342 H333 0.930 . S
C342 C340 1.384 . S
C342 C343 1.372 . S
C343 C342 1.372 . S
C343 C344 1.400 . S
C343 C348 1.490 . S
C344 H334 0.930 . S
C344 C343 1.400 . S
C344 C347 1.386 . S
H345 C361 0.930 . S
H346 C362 0.931 . S
C347 H335 0.929 . S
C347 C341 1.390 . S
C347 C344 1.386 . S
C348 C343 1.490 . S
C348 C350 1.395 . S
C348 C351 1.403 . S
H349 C355 0.930 . S
C350 H336 0.930 . S
C350 C348 1.395 . S
C350 C353 1.403 . S
C351 C348 1.403 . S
C351 C352 1.524 . S
C351 C355 1.400 . S
C352 H337 0.960 . S
C352 H338 0.960 . S
C352 H339 0.960 . S
C352 C351 1.524 . S
C353 C350 1.403 . S
C353 C354 1.392 . S
C353 C357 1.495 . S
C354 C353 1.392 . S
C354 C355 1.385 . S
C354 C356 1.478 . S
C355 H349 0.930 . S
C355 C351 1.400 . S
C355 C354 1.385 . S
C356 C354 1.478 . S
C356 C358 1.381 . S
C356 C362 1.383 . S
C357 C353 1.495 . S
C357 H363 0.959 . S
C357 H364 0.961 . S
C357 H365 0.960 . S
C358 C356 1.381 . S
C358 C359 1.394 . S
C358 H366 0.930 . S
C359 C358 1.394 . S
C359 C360 1.383 . S
C359 H367 0.929 . S
C360 C359 1.383 . S
C360 C361 1.377 . S
C361 H345 0.930 . S
C361 C360 1.377 . S
C361 C362 1.379 . S
C362 H346 0.931 . S
C362 C356 1.383 . S
C362 C361 1.379 . S
H363 C357 0.959 . S
H364 C357 0.961 . S
H365 C357 0.960 . S
H366 C358 0.930 . S
H367 C359 0.929 . S
H368 C376 0.929 . S
H369 C378 0.930 . S
H370 C380 0.930 . S
H371 C383 0.929 . S
H372 C386 0.927 1_554 S
H373 C388 0.960 . S
H374 C388 0.960 . S
H375 C388 0.960 . S
C376 H368 0.929 . S
C376 C377 1.377 . S
C376 C378 1.384 . S
C377 C376 1.377 . S
C377 C383 1.390 . S
C378 H369 0.930 . S
C378 C376 1.384 . S
C378 C379 1.372 . S
C379 C378 1.372 . S
C379 C380 1.400 . S
C379 C384 1.490 . S
C380 H370 0.930 . S
C380 C379 1.400 . S
C380 C383 1.386 . S
H381 C397 0.930 . S
H382 C398 0.931 . S
C383 H371 0.929 . S
C383 C377 1.390 . S
C383 C380 1.386 . S
C384 C379 1.490 . S
C384 C386 1.394 1_554 S
C384 C387 1.403 . S
H385 C391 0.930 . S
C386 H372 0.927 1_556 S
C386 C384 1.394 1_556 S
C386 C389 1.404 . S
C387 C384 1.403 . S
C387 C388 1.524 . S
C387 C391 1.400 1_554 S
C388 H373 0.960 . S
C388 H374 0.960 . S
C388 H375 0.960 . S
C388 C387 1.524 . S
C389 C386 1.404 . S
C389 C390 1.392 . S
C389 C393 1.495 . S
C390 C389 1.392 . S
C390 C391 1.385 . S
C390 C392 1.478 . S
C391 H385 0.930 . S
C391 C387 1.400 1_556 S
C391 C390 1.385 . S
C392 C390 1.478 . S
C392 C394 1.381 . S
C392 C398 1.383 . S
C393 C389 1.495 . S
C393 H399 0.959 . S
C393 H400 0.961 . S
C393 H401 0.960 . S
C394 C392 1.381 . S
C394 C395 1.394 . S
C394 H402 0.930 . S
C395 C394 1.394 . S
C395 C396 1.383 . S
C395 H403 0.929 . S
C396 C395 1.383 . S
C396 C397 1.377 . S
C397 H381 0.930 . S
C397 C396 1.377 . S
C397 C398 1.379 . S
C398 H382 0.931 . S
C398 C392 1.383 . S
C398 C397 1.379 . S
H399 C393 0.959 . S
H400 C393 0.961 . S
H401 C393 0.960 . S
H402 C394 0.930 . S
H403 C395 0.929 . S
H404 C412 0.929 . S
H405 C414 0.930 . S
H406 C416 0.930 . S
H407 C419 0.929 . S
H408 C422 0.930 . S
H409 C424 0.960 . S
H410 C424 0.960 . S
H411 C424 0.960 . S
C412 H404 0.929 . S
C412 C413 1.377 . S
C412 C414 1.384 . S
C413 C412 1.377 . S
C413 C419 1.390 . S
C414 H405 0.930 . S
C414 C412 1.384 . S
C414 C415 1.372 . S
C415 C414 1.372 . S
C415 C416 1.400 . S
C415 C420 1.490 . S
C416 H406 0.930 . S
C416 C415 1.400 . S
C416 C419 1.386 . S
H417 C433 0.930 . S
H418 C434 0.931 . S
C419 H407 0.929 . S
C419 C413 1.390 . S
C419 C416 1.386 . S
C420 C415 1.490 . S
C420 C422 1.395 . S
C420 C423 1.403 . S
H421 C427 0.930 . S
C422 H408 0.930 . S
C422 C420 1.395 . S
C422 C425 1.403 . S
C423 C420 1.403 . S
C423 C424 1.524 . S
C423 C427 1.400 . S
C424 H409 0.960 . S
C424 H410 0.960 . S
C424 H411 0.960 . S
C424 C423 1.524 . S
C425 C422 1.403 . S
C425 C426 1.392 . S
C425 C429 1.495 . S
C426 C425 1.392 . S
C426 C427 1.385 . S
C426 C428 1.478 . S
C427 H421 0.930 . S
C427 C423 1.400 . S
C427 C426 1.385 . S
C428 C426 1.478 . S
C428 C430 1.381 . S
C428 C434 1.383 . S
C429 C425 1.495 . S
C429 H435 0.959 . S
C429 H436 0.961 . S
C429 H437 0.960 . S
C430 C428 1.381 . S
C430 C431 1.394 . S
C430 H438 0.930 . S
C431 C430 1.394 . S
C431 C432 1.383 . S
C431 H439 0.929 . S
C432 C431 1.383 . S
C432 C433 1.377 . S
C433 H417 0.930 . S
C433 C432 1.377 . S
C433 C434 1.379 . S
C434 H418 0.931 . S
C434 C428 1.383 . S
C434 C433 1.379 . S
H435 C429 0.959 . S
H436 C429 0.961 . S
H437 C429 0.960 . S
H438 C430 0.930 . S
H439 C431 0.929 . S
H440 C448 0.929 . S
H441 C450 0.930 . S
H442 C452 0.930 . S
H443 C455 0.929 . S
H444 C458 0.930 . S
H445 C460 0.960 . S
H446 C460 0.960 . S
H447 C460 0.960 . S
C448 H440 0.929 . S
C448 C449 1.377 . S
C448 C450 1.384 . S
C449 C448 1.377 . S
C449 C455 1.390 . S
C450 H441 0.930 . S
C450 C448 1.384 . S
C450 C451 1.372 . S
C451 C450 1.372 . S
C451 C452 1.400 . S
C451 C456 1.490 . S
C452 H442 0.930 . S
C452 C451 1.400 . S
C452 C455 1.386 . S
H453 C469 0.930 . S
H454 C470 0.931 . S
C455 H443 0.929 . S
C455 C449 1.390 . S
C455 C452 1.386 . S
C456 C451 1.490 . S
C456 C458 1.396 . S
C456 C459 1.403 . S
H457 C463 0.930 . S
C458 H444 0.930 . S
C458 C456 1.396 . S
C458 C461 1.402 1_556 S
C459 C456 1.403 . S
C459 C460 1.524 . S
C459 C463 1.400 1_556 S
C460 H445 0.960 . S
C460 H446 0.960 . S
C460 H447 0.960 . S
C460 C459 1.524 . S
C461 C458 1.402 1_554 S
C461 C462 1.392 . S
C461 C465 1.495 . S
C462 C461 1.392 . S
C462 C463 1.385 . S
C462 C464 1.478 . S
C463 H457 0.930 . S
C463 C459 1.400 1_554 S
C463 C462 1.385 . S
C464 C462 1.478 . S
C464 C466 1.381 . S
C464 C470 1.383 . S
C465 C461 1.495 . S
C465 H471 0.959 . S
C465 H472 0.961 . S
C465 H473 0.960 . S
C466 C464 1.381 . S
C466 C467 1.394 . S
C466 H474 0.930 . S
C467 C466 1.394 . S
C467 C468 1.383 . S
C467 H475 0.929 . S
C468 C467 1.383 . S
C468 C469 1.377 . S
C469 H453 0.930 . S
C469 C468 1.377 . S
C469 C470 1.379 . S
C470 H454 0.931 . S
C470 C464 1.383 . S
C470 C469 1.379 . S
H471 C465 0.959 . S
H472 C465 0.961 . S
H473 C465 0.960 . S
H474 C466 0.930 . S
H475 C467 0.929 . S
H476 C484 0.929 . S
H477 C486 0.930 . S
H478 C488 0.930 . S
H479 C491 0.929 . S
H480 C494 0.930 . S
H481 C496 0.960 . S
H482 C496 0.960 . S
H483 C496 0.960 . S
C484 H476 0.929 . S
C484 C485 1.377 . S
C484 C486 1.384 . S
C485 C484 1.377 . S
C485 C491 1.390 . S
C486 H477 0.930 . S
C486 C484 1.384 . S
C486 C487 1.372 . S
C487 C486 1.372 . S
C487 C488 1.400 . S
C487 C492 1.490 . S
C488 H478 0.930 . S
C488 C487 1.400 . S
C488 C491 1.386 . S
H489 C505 0.930 . S
H490 C506 0.931 . S
C491 H479 0.929 . S
C491 C485 1.390 . S
C491 C488 1.386 . S
C492 C487 1.490 . S
C492 C494 1.395 . S
C492 C495 1.403 . S
H493 C499 0.930 . S
C494 H480 0.930 . S
C494 C492 1.395 . S
C494 C497 1.403 . S
C495 C492 1.403 . S
C495 C496 1.524 . S
C495 C499 1.400 . S
C496 H481 0.960 . S
C496 H482 0.960 . S
C496 H483 0.960 . S
C496 C495 1.524 . S
C497 C494 1.403 . S
C497 C498 1.392 . S
C497 C501 1.495 . S
C498 C497 1.392 . S
C498 C499 1.385 . S
C498 C500 1.478 . S
C499 H493 0.930 . S
C499 C495 1.400 . S
C499 C498 1.385 . S
C500 C498 1.478 . S
C500 C502 1.381 . S
C500 C506 1.383 . S
C501 C497 1.495 . S
C501 H507 0.959 . S
C501 H508 0.961 . S
C501 H509 0.960 . S
C502 C500 1.381 . S
C502 C503 1.394 . S
C502 H510 0.930 . S
C503 C502 1.394 . S
C503 C504 1.383 . S
C503 H511 0.929 . S
C504 C503 1.383 . S
C504 C505 1.377 . S
C505 H489 0.930 . S
C505 C504 1.377 . S
C505 C506 1.379 . S
C506 H490 0.931 . S
C506 C500 1.383 . S
C506 C505 1.379 . S
H507 C501 0.959 . S
H508 C501 0.961 . S
H509 C501 0.960 . S
H510 C502 0.930 . S
H511 C503 0.929 . S
H512 C520 0.929 . S
H513 C522 0.930 . S
H514 C524 0.930 . S
H515 C527 0.929 . S
H516 C530 0.930 . S
H517 C532 0.960 . S
H518 C532 0.960 . S
H519 C532 0.960 . S
C520 H512 0.929 . S
C520 C521 1.377 . S
C520 C522 1.384 . S
C521 C520 1.377 . S
C521 C527 1.390 . S
C522 H513 0.930 . S
C522 C520 1.384 . S
C522 C523 1.372 . S
C523 C522 1.372 . S
C523 C524 1.400 . S
C523 C528 1.490 . S
C524 H514 0.930 . S
C524 C523 1.400 . S
C524 C527 1.386 . S
H525 C541 0.930 . S
H526 C542 0.931 . S
C527 H515 0.929 . S
C527 C521 1.390 . S
C527 C524 1.386 . S
C528 C523 1.490 . S
C528 C530 1.395 . S
C528 C531 1.403 . S
H529 C535 0.930 . S
C530 H516 0.930 . S
C530 C528 1.395 . S
C530 C533 1.403 . S
C531 C528 1.403 . S
C531 C532 1.524 . S
C531 C535 1.400 . S
C532 H517 0.960 . S
C532 H518 0.960 . S
C532 H519 0.960 . S
C532 C531 1.524 . S
C533 C530 1.403 . S
C533 C534 1.392 . S
C533 C537 1.495 . S
C534 C533 1.392 . S
C534 C535 1.385 . S
C534 C536 1.478 . S
C535 H529 0.930 . S
C535 C531 1.400 . S
C535 C534 1.385 . S
C536 C534 1.478 . S
C536 C538 1.381 . S
C536 C542 1.383 . S
C537 C533 1.495 . S
C537 H543 0.959 . S
C537 H544 0.961 . S
C537 H545 0.960 . S
C538 C536 1.381 . S
C538 C539 1.394 . S
C538 H546 0.930 . S
C539 C538 1.394 . S
C539 C540 1.383 . S
C539 H547 0.929 . S
C540 C539 1.383 . S
C540 C541 1.377 . S
C541 H525 0.930 . S
C541 C540 1.377 . S
C541 C542 1.379 . S
C542 H526 0.931 . S
C542 C536 1.383 . S
C542 C541 1.379 . S
H543 C537 0.959 . S
H544 C537 0.961 . S
H545 C537 0.960 . S
H546 C538 0.930 . S
H547 C539 0.929 . S
H548 C556 0.929 . S
H549 C558 0.930 . S
H550 C560 0.930 . S
H551 C563 0.929 . S
H552 C566 0.930 . S
H553 C568 0.960 . S
H554 C568 0.960 . S
H555 C568 0.960 . S
C556 H548 0.929 . S
C556 C557 1.377 . S
C556 C558 1.384 . S
C557 C556 1.377 . S
C557 C563 1.390 . S
C558 H549 0.930 . S
C558 C556 1.384 . S
C558 C559 1.372 . S
C559 C558 1.372 . S
C559 C560 1.400 . S
C559 C564 1.490 . S
C560 H550 0.930 . S
C560 C559 1.400 . S
C560 C563 1.386 . S
H561 C577 0.930 . S
H562 C578 0.931 . S
C563 H551 0.929 . S
C563 C557 1.390 . S
C563 C560 1.386 . S
C564 C559 1.490 . S
C564 C566 1.395 . S
C564 C567 1.403 . S
H565 C571 0.930 . S
C566 H552 0.930 . S
C566 C564 1.395 . S
C566 C569 1.403 . S
C567 C564 1.403 . S
C567 C568 1.524 . S
C567 C571 1.400 . S
C568 H553 0.960 . S
C568 H554 0.960 . S
C568 H555 0.960 . S
C568 C567 1.524 . S
C569 C566 1.403 . S
C569 C570 1.392 . S
C569 C573 1.495 . S
C570 C569 1.392 . S
C570 C571 1.385 . S
C570 C572 1.478 . S
C571 H565 0.930 . S
C571 C567 1.400 . S
C571 C570 1.385 . S
C572 C570 1.478 . S
C572 C574 1.381 . S
C572 C578 1.383 . S
C573 C569 1.495 . S
C573 H579 0.959 . S
C573 H580 0.961 . S
C573 H581 0.960 . S
C574 C572 1.381 . S
C574 C575 1.394 . S
C574 H582 0.930 . S
C575 C574 1.394 . S
C575 C576 1.383 . S
C575 H583 0.929 . S
C576 C575 1.383 . S
C576 C577 1.377 . S
C577 H561 0.930 . S
C577 C576 1.377 . S
C577 C578 1.379 . S
C578 H562 0.931 . S
C578 C572 1.383 . S
C578 C577 1.379 . S
H579 C573 0.959 . S
H580 C573 0.961 . S
H581 C573 0.960 . S
H582 C574 0.930 . S
H583 C575 0.929 . S
H584 C592 0.929 . S
H585 C594 0.930 . S
H586 C596 0.930 . S
H587 C599 0.929 . S
H588 C602 0.930 . S
H589 C604 0.960 . S
H590 C604 0.960 . S
H591 C604 0.960 . S
C592 H584 0.929 . S
C592 C593 1.377 . S
C592 C594 1.384 . S
C593 C592 1.377 . S
C593 C599 1.390 . S
C594 H585 0.930 . S
C594 C592 1.384 . S
C594 C595 1.372 . S
C595 C594 1.372 . S
C595 C596 1.400 . S
C595 C600 1.490 . S
C596 H586 0.930 . S
C596 C595 1.400 . S
C596 C599 1.386 . S
H597 C613 0.930 . S
H598 C614 0.931 . S
C599 H587 0.929 . S
C599 C593 1.390 . S
C599 C596 1.386 . S
C600 C595 1.490 . S
C600 C602 1.395 . S
C600 C603 1.403 . S
H601 C607 0.930 . S
C602 H588 0.930 . S
C602 C600 1.395 . S
C602 C605 1.403 . S
C603 C600 1.403 . S
C603 C604 1.524 . S
C603 C607 1.400 . S
C604 H589 0.960 . S
C604 H590 0.960 . S
C604 H591 0.960 . S
C604 C603 1.524 . S
C605 C602 1.403 . S
C605 C606 1.392 . S
C605 C609 1.495 . S
C606 C605 1.392 . S
C606 C607 1.385 . S
C606 C608 1.478 . S
C607 H601 0.930 . S
C607 C603 1.400 . S
C607 C606 1.385 . S
C608 C606 1.478 . S
C608 C610 1.381 . S
C608 C614 1.383 . S
C609 C605 1.495 . S
C609 H615 0.959 . S
C609 H616 0.961 . S
C609 H617 0.960 . S
C610 C608 1.381 . S
C610 C611 1.394 . S
C610 H618 0.930 . S
C611 C610 1.394 . S
C611 C612 1.383 . S
C611 H619 0.929 . S
C612 C611 1.383 . S
C612 C613 1.377 . S
C613 H597 0.930 . S
C613 C612 1.377 . S
C613 C614 1.379 . S
C614 H598 0.931 . S
C614 C608 1.383 . S
C614 C613 1.379 . S
H615 C609 0.959 . S
H616 C609 0.961 . S
H617 C609 0.960 . S
H618 C610 0.930 . S
H619 C611 0.929 . S
H620 C628 0.929 . S
H621 C630 0.930 . S
H622 C632 0.930 . S
H623 C635 0.929 . S
H624 C638 0.930 . S
H625 C640 0.960 . S
H626 C640 0.960 . S
H627 C640 0.960 . S
C628 H620 0.929 . S
C628 C629 1.377 . S
C628 C630 1.384 . S
C629 C628 1.377 . S
C629 C635 1.390 . S
C630 H621 0.930 . S
C630 C628 1.384 . S
C630 C631 1.372 . S
C631 C630 1.372 . S
C631 C632 1.400 . S
C631 C636 1.490 . S
C632 H622 0.930 . S
C632 C631 1.400 . S
C632 C635 1.386 . S
H633 C649 0.930 . S
H634 C650 0.931 . S
C635 H623 0.929 . S
C635 C629 1.390 . S
C635 C632 1.386 . S
C636 C631 1.490 . S
C636 C638 1.395 . S
C636 C639 1.403 . S
H637 C643 0.930 . S
C638 H624 0.930 . S
C638 C636 1.395 . S
C638 C641 1.403 . S
C639 C636 1.403 . S
C639 C640 1.524 . S
C639 C643 1.400 . S
C640 H625 0.960 . S
C640 H626 0.960 . S
C640 H627 0.960 . S
C640 C639 1.524 . S
C641 C638 1.403 . S
C641 C642 1.392 . S
C641 C645 1.495 . S
C642 C641 1.392 . S
C642 C643 1.385 . S
C642 C644 1.478 . S
C643 H637 0.930 . S
C643 C639 1.400 . S
C643 C642 1.385 . S
C644 C642 1.478 . S
C644 C646 1.381 . S
C644 C650 1.383 . S
C645 C641 1.495 . S
C645 H651 0.959 . S
C645 H652 0.961 . S
C645 H653 0.960 . S
C646 C644 1.381 . S
C646 C647 1.394 . S
C646 H654 0.930 . S
C647 C646 1.394 . S
C647 C648 1.383 . S
C647 H655 0.929 . S
C648 C647 1.383 . S
C648 C649 1.377 . S
C649 H633 0.930 . S
C649 C648 1.377 . S
C649 C650 1.379 . S
C650 H634 0.931 . S
C650 C644 1.383 . S
C650 C649 1.379 . S
H651 C645 0.959 . S
H652 C645 0.961 . S
H653 C645 0.960 . S
H654 C646 0.930 . S
H655 C647 0.929 . S
H656 C664 0.929 . S
H657 C666 0.930 . S
H658 C668 0.930 . S
H659 C671 0.929 . S
H660 C674 0.930 . S
H661 C676 0.960 . S
H662 C676 0.960 . S
H663 C676 0.960 . S
C664 H656 0.929 . S
C664 C665 1.377 . S
C664 C666 1.384 . S
C665 C664 1.377 . S
C665 C671 1.390 . S
C666 H657 0.930 . S
C666 C664 1.384 . S
C666 C667 1.372 . S
C667 C666 1.372 . S
C667 C668 1.400 . S
C667 C672 1.490 . S
C668 H658 0.930 . S
C668 C667 1.400 . S
C668 C671 1.386 . S
H669 C685 0.930 . S
H670 C686 0.931 . S
C671 H659 0.929 . S
C671 C665 1.390 . S
C671 C668 1.386 . S
C672 C667 1.490 . S
C672 C674 1.395 . S
C672 C675 1.403 . S
H673 C679 0.930 . S
C674 H660 0.930 . S
C674 C672 1.395 . S
C674 C677 1.403 . S
C675 C672 1.403 . S
C675 C676 1.524 . S
C675 C679 1.400 . S
C676 H661 0.960 . S
C676 H662 0.960 . S
C676 H663 0.960 . S
C676 C675 1.524 . S
C677 C674 1.403 . S
C677 C678 1.392 . S
C677 C681 1.495 . S
C678 C677 1.392 . S
C678 C679 1.385 . S
C678 C680 1.478 . S
C679 H673 0.930 . S
C679 C675 1.400 . S
C679 C678 1.385 . S
C680 C678 1.478 . S
C680 C682 1.381 . S
C680 C686 1.383 . S
C681 C677 1.495 . S
C681 H687 0.959 . S
C681 H688 0.961 . S
C681 H689 0.960 . S
C682 C680 1.381 . S
C682 C683 1.394 . S
C682 H690 0.930 . S
C683 C682 1.394 . S
C683 C684 1.383 . S
C683 H691 0.929 . S
C684 C683 1.383 . S
C684 C685 1.377 . S
C685 H669 0.930 . S
C685 C684 1.377 . S
C685 C686 1.379 . S
C686 H670 0.931 . S
C686 C680 1.383 . S
C686 C685 1.379 . S
H687 C681 0.959 . S
H688 C681 0.961 . S
H689 C681 0.960 . S
H690 C682 0.930 . S
H691 C683 0.929 . S
H692 C700 0.929 . S
H693 C702 0.930 . S
H694 C704 0.930 . S
H695 C707 0.929 . S
H696 C710 0.930 . S
H697 C712 0.960 . S
H698 C712 0.960 . S
H699 C712 0.960 . S
C700 H692 0.929 . S
C700 C701 1.377 . S
C700 C702 1.384 . S
C701 C700 1.377 . S
C701 C707 1.390 . S
C702 H693 0.930 . S
C702 C700 1.384 . S
C702 C703 1.372 . S
C703 C702 1.372 . S
C703 C704 1.400 . S
C703 C708 1.490 . S
C704 H694 0.930 . S
C704 C703 1.400 . S
C704 C707 1.386 . S
H705 C721 0.930 . S
H706 C722 0.931 . S
C707 H695 0.929 . S
C707 C701 1.390 . S
C707 C704 1.386 . S
C708 C703 1.490 . S
C708 C710 1.395 . S
C708 C711 1.403 . S
H709 C715 0.930 . S
C710 H696 0.930 . S
C710 C708 1.395 . S
C710 C713 1.403 . S
C711 C708 1.403 . S
C711 C712 1.524 . S
C711 C715 1.400 . S
C712 H697 0.960 . S
C712 H698 0.960 . S
C712 H699 0.960 . S
C712 C711 1.524 . S
C713 C710 1.403 . S
C713 C714 1.392 . S
C713 C717 1.495 . S
C714 C713 1.392 . S
C714 C715 1.385 . S
C714 C716 1.478 . S
C715 H709 0.930 . S
C715 C711 1.400 . S
C715 C714 1.385 . S
C716 C714 1.478 . S
C716 C718 1.381 . S
C716 C722 1.383 . S
C717 C713 1.495 . S
C717 H723 0.959 . S
C717 H724 0.961 . S
C717 H725 0.960 . S
C718 C716 1.381 . S
C718 C719 1.394 . S
C718 H726 0.930 . S
C719 C718 1.394 . S
C719 C720 1.383 . S
C719 H727 0.929 . S
C720 C719 1.383 . S
C720 C721 1.377 . S
C721 H705 0.930 . S
C721 C720 1.377 . S
C721 C722 1.379 . S
C722 H706 0.931 . S
C722 C716 1.383 . S
C722 C721 1.379 . S
H723 C717 0.959 . S
H724 C717 0.961 . S
H725 C717 0.960 . S
H726 C718 0.930 . S
H727 C719 0.929 . S
H728 C736 0.929 . S
H729 C738 0.930 . S
H730 C740 0.930 . S
H731 C743 0.929 . S
H732 C746 0.930 . S
H733 C748 0.960 . S
H734 C748 0.960 . S
H735 C748 0.960 . S
C736 H728 0.929 . S
C736 C737 1.377 . S
C736 C738 1.384 . S
C737 C736 1.377 . S
C737 C743 1.390 . S
C738 H729 0.930 . S
C738 C736 1.384 . S
C738 C739 1.372 . S
C739 C738 1.372 . S
C739 C740 1.400 . S
C739 C744 1.490 . S
C740 H730 0.930 . S
C740 C739 1.400 . S
C740 C743 1.386 . S
H741 C757 0.930 . S
H742 C758 0.931 . S
C743 H731 0.929 . S
C743 C737 1.390 . S
C743 C740 1.386 . S
C744 C739 1.490 . S
C744 C746 1.395 . S
C744 C747 1.403 . S
H745 C751 0.930 . S
C746 H732 0.930 . S
C746 C744 1.395 . S
C746 C749 1.403 . S
C747 C744 1.403 . S
C747 C748 1.524 . S
C747 C751 1.400 . S
C748 H733 0.960 . S
C748 H734 0.960 . S
C748 H735 0.960 . S
C748 C747 1.524 . S
C749 C746 1.403 . S
C749 C750 1.392 . S
C749 C753 1.495 . S
C750 C749 1.392 . S
C750 C751 1.385 . S
C750 C752 1.478 . S
C751 H745 0.930 . S
C751 C747 1.400 . S
C751 C750 1.385 . S
C752 C750 1.478 . S
C752 C754 1.381 . S
C752 C758 1.383 . S
C753 C749 1.495 . S
C753 H759 0.959 . S
C753 H760 0.961 . S
C753 H761 0.960 . S
C754 C752 1.381 . S
C754 C755 1.394 . S
C754 H762 0.930 . S
C755 C754 1.394 . S
C755 C756 1.383 . S
C755 H763 0.929 . S
C756 C755 1.383 . S
C756 C757 1.377 . S
C757 H741 0.930 . S
C757 C756 1.377 . S
C757 C758 1.379 . S
C758 H742 0.931 . S
C758 C752 1.383 . S
C758 C757 1.379 . S
H759 C753 0.959 . S
H760 C753 0.961 . S
H761 C753 0.960 . S
H762 C754 0.930 . S
H763 C755 0.929 . S
H764 C772 0.929 . S
H765 C774 0.930 . S
H766 C776 0.930 . S
H767 C779 0.929 . S
H768 C782 0.930 . S
H769 C784 0.960 . S
H770 C784 0.960 . S
H771 C784 0.960 . S
C772 H764 0.929 . S
C772 C773 1.377 . S
C772 C774 1.384 . S
C773 C772 1.377 . S
C773 C779 1.390 . S
C774 H765 0.930 . S
C774 C772 1.384 . S
C774 C775 1.372 . S
C775 C774 1.372 . S
C775 C776 1.400 . S
C775 C780 1.490 . S
C776 H766 0.930 . S
C776 C775 1.400 . S
C776 C779 1.386 . S
H777 C793 0.930 . S
H778 C794 0.931 . S
C779 H767 0.929 . S
C779 C773 1.390 . S
C779 C776 1.386 . S
C780 C775 1.490 . S
C780 C782 1.395 . S
C780 C783 1.403 . S
H781 C787 0.930 . S
C782 H768 0.930 . S
C782 C780 1.395 . S
C782 C785 1.403 . S
C783 C780 1.403 . S
C783 C784 1.524 . S
C783 C787 1.400 . S
C784 H769 0.960 . S
C784 H770 0.960 . S
C784 H771 0.960 . S
C784 C783 1.524 . S
C785 C782 1.403 . S
C785 C786 1.392 . S
C785 C789 1.495 . S
C786 C785 1.392 . S
C786 C787 1.385 . S
C786 C788 1.478 . S
C787 H781 0.930 . S
C787 C783 1.400 . S
C787 C786 1.385 . S
C788 C786 1.478 . S
C788 C790 1.381 . S
C788 C794 1.383 . S
C789 C785 1.495 . S
C789 H795 0.959 . S
C789 H796 0.961 . S
C789 H797 0.960 . S
C790 C788 1.381 . S
C790 C791 1.394 . S
C790 H798 0.930 . S
C791 C790 1.394 . S
C791 C792 1.383 . S
C791 H799 0.929 . S
C792 C791 1.383 . S
C792 C793 1.377 . S
C793 H777 0.930 . S
C793 C792 1.377 . S
C793 C794 1.379 . S
C794 H778 0.931 . S
C794 C788 1.383 . S
C794 C793 1.379 . S
H795 C789 0.959 . S
H796 C789 0.961 . S
H797 C789 0.960 . S
H798 C790 0.930 . S
H799 C791 0.929 . S
H800 C808 0.929 . S
H801 C810 0.930 . S
H802 C812 0.930 . S
H803 C815 0.929 . S
H804 C818 0.930 . S
H805 C820 0.960 . S
H806 C820 0.960 . S
H807 C820 0.960 . S
C808 H800 0.929 . S
C808 C809 1.377 . S
C808 C810 1.384 . S
C809 C808 1.377 . S
C809 C815 1.390 . S
C810 H801 0.930 . S
C810 C808 1.384 . S
C810 C811 1.372 . S
C811 C810 1.372 . S
C811 C812 1.400 . S
C811 C816 1.490 . S
C812 H802 0.930 . S
C812 C811 1.400 . S
C812 C815 1.386 . S
H813 C829 0.930 . S
H814 C830 0.931 . S
C815 H803 0.929 . S
C815 C809 1.390 . S
C815 C812 1.386 . S
C816 C811 1.490 . S
C816 C818 1.395 . S
C816 C819 1.403 . S
H817 C823 0.930 . S
C818 H804 0.930 . S
C818 C816 1.395 . S
C818 C821 1.403 . S
C819 C816 1.403 . S
C819 C820 1.524 . S
C819 C823 1.400 . S
C820 H805 0.960 . S
C820 H806 0.960 . S
C820 H807 0.960 . S
C820 C819 1.524 . S
C821 C818 1.403 . S
C821 C822 1.392 . S
C821 C825 1.495 . S
C822 C821 1.392 . S
C822 C823 1.385 . S
C822 C824 1.478 . S
C823 H817 0.930 . S
C823 C819 1.400 . S
C823 C822 1.385 . S
C824 C822 1.478 . S
C824 C826 1.381 . S
C824 C830 1.383 . S
C825 C821 1.495 . S
C825 H831 0.959 . S
C825 H832 0.961 . S
C825 H833 0.960 . S
C826 C824 1.381 . S
C826 C827 1.394 . S
C826 H834 0.930 . S
C827 C826 1.394 . S
C827 C828 1.383 . S
C827 H835 0.929 . S
C828 C827 1.383 . S
C828 C829 1.377 . S
C829 H813 0.930 . S
C829 C828 1.377 . S
C829 C830 1.379 . S
C830 H814 0.931 . S
C830 C824 1.383 . S
C830 C829 1.379 . S
H831 C825 0.959 . S
H832 C825 0.961 . S
H833 C825 0.960 . S
H834 C826 0.930 . S
H835 C827 0.929 . S
H836 C844 0.929 . S
H837 C846 0.930 . S
H838 C848 0.930 . S
H839 C851 0.929 . S
H840 C854 0.930 . S
H841 C856 0.960 . S
H842 C856 0.960 . S
H843 C856 0.960 . S
C844 H836 0.929 . S
C844 C845 1.377 . S
C844 C846 1.384 . S
C845 C844 1.377 . S
C845 C851 1.390 . S
C846 H837 0.930 . S
C846 C844 1.384 . S
C846 C847 1.372 . S
C847 C846 1.372 . S
C847 C848 1.400 . S
C847 C852 1.490 . S
C848 H838 0.930 . S
C848 C847 1.400 . S
C848 C851 1.386 . S
H849 C865 0.930 . S
H850 C866 0.931 . S
C851 H839 0.929 . S
C851 C845 1.390 . S
C851 C848 1.386 . S
C852 C847 1.490 . S
C852 C854 1.395 . S
C852 C855 1.403 . S
H853 C859 0.930 . S
C854 H840 0.930 . S
C854 C852 1.395 . S
C854 C857 1.403 . S
C855 C852 1.403 . S
C855 C856 1.524 . S
C855 C859 1.400 . S
C856 H841 0.960 . S
C856 H842 0.960 . S
C856 H843 0.960 . S
C856 C855 1.524 . S
C857 C854 1.403 . S
C857 C858 1.392 . S
C857 C861 1.495 . S
C858 C857 1.392 . S
C858 C859 1.385 . S
C858 C860 1.478 . S
C859 H853 0.930 . S
C859 C855 1.400 . S
C859 C858 1.385 . S
C860 C858 1.478 . S
C860 C862 1.381 . S
C860 C866 1.383 . S
C861 C857 1.495 . S
C861 H867 0.959 . S
C861 H868 0.961 . S
C861 H869 0.960 . S
C862 C860 1.381 . S
C862 C863 1.394 . S
C862 H870 0.930 . S
C863 C862 1.394 . S
C863 C864 1.383 . S
C863 H871 0.929 . S
C864 C863 1.383 . S
C864 C865 1.377 . S
C865 H849 0.930 . S
C865 C864 1.377 . S
C865 C866 1.379 . S
C866 H850 0.931 . S
C866 C860 1.383 . S
C866 C865 1.379 . S
H867 C861 0.959 . S
H868 C861 0.961 . S
H869 C861 0.960 . S
H870 C862 0.930 . S
H871 C863 0.929 . S
H872 C880 0.929 . S
H873 C882 0.930 . S
H874 C884 0.930 . S
H875 C887 0.929 . S
H876 C890 0.930 . S
H877 C892 0.960 . S
H878 C892 0.960 . S
H879 C892 0.960 . S
C880 H872 0.929 . S
C880 C881 1.377 . S
C880 C882 1.384 . S
C881 C880 1.377 . S
C881 C887 1.390 . S
C882 H873 0.930 . S
C882 C880 1.384 . S
C882 C883 1.372 . S
C883 C882 1.372 . S
C883 C884 1.400 . S
C883 C888 1.490 . S
C884 H874 0.930 . S
C884 C883 1.400 . S
C884 C887 1.386 . S
H885 C901 0.930 . S
H886 C902 0.931 . S
C887 H875 0.929 . S
C887 C881 1.390 . S
C887 C884 1.386 . S
C888 C883 1.490 . S
C888 C890 1.395 . S
C888 C891 1.403 . S
H889 C895 0.930 . S
C890 H876 0.930 . S
C890 C888 1.395 . S
C890 C893 1.403 . S
C891 C888 1.403 . S
C891 C892 1.524 . S
C891 C895 1.400 . S
C892 H877 0.960 . S
C892 H878 0.960 . S
C892 H879 0.960 . S
C892 C891 1.524 . S
C893 C890 1.403 . S
C893 C894 1.392 . S
C893 C897 1.495 . S
C894 C893 1.392 . S
C894 C895 1.385 . S
C894 C896 1.478 . S
C895 H889 0.930 . S
C895 C891 1.400 . S
C895 C894 1.385 . S
C896 C894 1.478 . S
C896 C898 1.381 . S
C896 C902 1.383 . S
C897 C893 1.495 . S
C897 H903 0.959 . S
C897 H904 0.961 . S
C897 H905 0.960 . S
C898 C896 1.381 . S
C898 C899 1.394 . S
C898 H906 0.930 . S
C899 C898 1.394 . S
C899 C900 1.383 . S
C899 H907 0.929 . S
C900 C899 1.383 . S
C900 C901 1.377 . S
C901 H885 0.930 . S
C901 C900 1.377 . S
C901 C902 1.379 . S
C902 H886 0.931 . S
C902 C896 1.383 . S
C902 C901 1.379 . S
H903 C897 0.959 . S
H904 C897 0.961 . S
H905 C897 0.960 . S
H906 C898 0.930 . S
H907 C899 0.929 . S
H908 C916 0.929 . S
H909 C918 0.930 . S
H910 C920 0.930 . S
H911 C923 0.929 . S
H912 C926 0.930 . S
H913 C928 0.960 . S
H914 C928 0.960 . S
H915 C928 0.960 . S
C916 H908 0.929 . S
C916 C917 1.377 . S
C916 C918 1.384 . S
C917 C916 1.377 . S
C917 C923 1.390 . S
C918 H909 0.930 . S
C918 C916 1.384 . S
C918 C919 1.372 . S
C919 C918 1.372 . S
C919 C920 1.400 . S
C919 C924 1.490 . S
C920 H910 0.930 . S
C920 C919 1.400 . S
C920 C923 1.386 . S
H921 C937 0.930 . S
H922 C938 0.931 . S
C923 H911 0.929 . S
C923 C917 1.390 . S
C923 C920 1.386 . S
C924 C919 1.490 . S
C924 C926 1.395 . S
C924 C927 1.403 . S
H925 C931 0.930 . S
C926 H912 0.930 . S
C926 C924 1.395 . S
C926 C929 1.403 . S
C927 C924 1.403 . S
C927 C928 1.524 . S
C927 C931 1.400 . S
C928 H913 0.960 . S
C928 H914 0.960 . S
C928 H915 0.960 . S
C928 C927 1.524 . S
C929 C926 1.403 . S
C929 C930 1.392 . S
C929 C933 1.495 . S
C930 C929 1.392 . S
C930 C931 1.385 . S
C930 C932 1.478 . S
C931 H925 0.930 . S
C931 C927 1.400 . S
C931 C930 1.385 . S
C932 C930 1.478 . S
C932 C934 1.381 . S
C932 C938 1.383 . S
C933 C929 1.495 . S
C933 H939 0.959 . S
C933 H940 0.961 . S
C933 H941 0.960 . S
C934 C932 1.381 . S
C934 C935 1.394 . S
C934 H942 0.930 . S
C935 C934 1.394 . S
C935 C936 1.383 . S
C935 H943 0.929 . S
C936 C935 1.383 . S
C936 C937 1.377 . S
C937 H921 0.930 . S
C937 C936 1.377 . S
C937 C938 1.379 . S
C938 H922 0.931 . S
C938 C932 1.383 . S
C938 C937 1.379 . S
H939 C933 0.959 . S
H940 C933 0.961 . S
H941 C933 0.960 . S
H942 C934 0.930 . S
H943 C935 0.929 . S
H944 C952 0.929 . S
H945 C954 0.930 . S
H946 C956 0.930 . S
H947 C959 0.929 . S
H948 C962 0.930 . S
H949 C964 0.960 . S
H950 C964 0.960 . S
H951 C964 0.960 . S
C952 H944 0.929 . S
C952 C953 1.377 . S
C952 C954 1.384 . S
C953 C952 1.377 . S
C953 C959 1.390 . S
C954 H945 0.930 . S
C954 C952 1.384 . S
C954 C955 1.372 . S
C955 C954 1.372 . S
C955 C956 1.400 . S
C955 C960 1.490 . S
C956 H946 0.930 . S
C956 C955 1.400 . S
C956 C959 1.386 . S
H957 C973 0.930 . S
H958 C974 0.931 . S
C959 H947 0.929 . S
C959 C953 1.390 . S
C959 C956 1.386 . S
C960 C955 1.490 . S
C960 C962 1.395 . S
C960 C963 1.403 . S
H961 C967 0.930 . S
C962 H948 0.930 . S
C962 C960 1.395 . S
C962 C965 1.403 . S
C963 C960 1.403 . S
C963 C964 1.524 . S
C963 C967 1.400 . S
C964 H949 0.960 . S
C964 H950 0.960 . S
C964 H951 0.960 . S
C964 C963 1.524 . S
C965 C962 1.403 . S
C965 C966 1.392 . S
C965 C969 1.495 . S
C966 C965 1.392 . S
C966 C967 1.385 . S
C966 C968 1.478 . S
C967 H961 0.930 . S
C967 C963 1.400 . S
C967 C966 1.385 . S
C968 C966 1.478 . S
C968 C970 1.381 . S
C968 C974 1.383 . S
C969 C965 1.495 . S
C969 H975 0.959 . S
C969 H976 0.961 . S
C969 H977 0.960 . S
C970 C968 1.381 . S
C970 C971 1.394 . S
C970 H978 0.930 . S
C971 C970 1.394 . S
C971 C972 1.383 . S
C971 H979 0.929 . S
C972 C971 1.383 . S
C972 C973 1.377 . S
C973 H957 0.930 . S
C973 C972 1.377 . S
C973 C974 1.379 . S
C974 H958 0.931 . S
C974 C968 1.383 . S
C974 C973 1.379 . S
H975 C969 0.959 . S
H976 C969 0.961 . S
H977 C969 0.960 . S
H978 C970 0.930 . S
H979 C971 0.929 . S
H980 C988 0.929 . S
H981 C990 0.930 . S
H982 C992 0.930 . S
H983 C995 0.929 . S
H984 C998 0.930 . S
H985 C1000 0.960 . S
H986 C1000 0.960 . S
H987 C1000 0.960 . S
C988 H980 0.929 . S
C988 C989 1.377 . S
C988 C990 1.384 . S
C989 C988 1.377 . S
C989 C995 1.390 . S
C990 H981 0.930 . S
C990 C988 1.384 . S
C990 C991 1.372 . S
C991 C990 1.372 . S
C991 C992 1.400 . S
C991 C996 1.490 . S
C992 H982 0.930 . S
C992 C991 1.400 . S
C992 C995 1.386 . S
H993 C1009 0.930 . S
H994 C1010 0.931 . S
C995 H983 0.929 . S
C995 C989 1.390 . S
C995 C992 1.386 . S
C996 C991 1.490 . S
C996 C998 1.395 . S
C996 C999 1.403 . S
H997 C1003 0.930 . S
C998 H984 0.930 . S
C998 C996 1.395 . S
C998 C1001 1.403 . S
C999 C996 1.403 . S
C999 C1000 1.524 . S
C999 C1003 1.400 . S
C1000 H985 0.960 . S
C1000 H986 0.960 . S
C1000 H987 0.960 . S
C1000 C999 1.524 . S
C1001 C998 1.403 . S
C1001 C1002 1.392 . S
C1001 C1005 1.495 . S
C1002 C1001 1.392 . S
C1002 C1003 1.385 . S
C1002 C1004 1.478 . S
C1003 H997 0.930 . S
C1003 C999 1.400 . S
C1003 C1002 1.385 . S
C1004 C1002 1.478 . S
C1004 C1006 1.381 . S
C1004 C1010 1.383 . S
C1005 C1001 1.495 . S
C1005 H1011 0.959 . S
C1005 H1012 0.961 . S
C1005 H1013 0.960 . S
C1006 C1004 1.381 . S
C1006 C1007 1.394 . S
C1006 H1014 0.930 . S
C1007 C1006 1.394 . S
C1007 C1008 1.383 . S
C1007 H1015 0.929 . S
C1008 C1007 1.383 . S
C1008 C1009 1.377 . S
C1009 H993 0.930 . S
C1009 C1008 1.377 . S
C1009 C1010 1.379 . S
C1010 H994 0.931 . S
C1010 C1004 1.383 . S
C1010 C1009 1.379 . S
H1011 C1005 0.959 . S
H1012 C1005 0.961 . S
H1013 C1005 0.960 . S
H1014 C1006 0.930 . S
H1015 C1007 0.929 . S
H1016 C1024 0.929 . S
H1017 C1026 0.930 . S
H1018 C1028 0.930 . S
H1019 C1031 0.929 . S
H1020 C1034 0.930 . S
H1021 C1036 0.960 . S
H1022 C1036 0.960 . S
H1023 C1036 0.960 . S
C1024 H1016 0.929 . S
C1024 C1025 1.377 . S
C1024 C1026 1.384 . S
C1025 C1024 1.377 . S
C1025 C1031 1.390 . S
C1026 H1017 0.930 . S
C1026 C1024 1.384 . S
C1026 C1027 1.372 . S
C1027 C1026 1.372 . S
C1027 C1028 1.400 . S
C1027 C1032 1.490 . S
C1028 H1018 0.930 . S
C1028 C1027 1.400 . S
C1028 C1031 1.386 . S
H1029 C1045 0.930 . S
H1030 C1046 0.931 . S
C1031 H1019 0.929 . S
C1031 C1025 1.390 . S
C1031 C1028 1.386 . S
C1032 C1027 1.490 . S
C1032 C1034 1.395 . S
C1032 C1035 1.403 . S
H1033 C1039 0.930 . S
C1034 H1020 0.930 . S
C1034 C1032 1.395 . S
C1034 C1037 1.403 . S
C1035 C1032 1.403 . S
C1035 C1036 1.524 . S
C1035 C1039 1.400 . S
C1036 H1021 0.960 . S
C1036 H1022 0.960 . S
C1036 H1023 0.960 . S
C1036 C1035 1.524 . S
C1037 C1034 1.403 . S
C1037 C1038 1.392 . S
C1037 C1041 1.495 . S
C1038 C1037 1.392 . S
C1038 C1039 1.385 . S
C1038 C1040 1.478 . S
C1039 H1033 0.930 . S
C1039 C1035 1.400 . S
C1039 C1038 1.385 . S
C1040 C1038 1.478 . S
C1040 C1042 1.381 . S
C1040 C1046 1.383 . S
C1041 C1037 1.495 . S
C1041 H1047 0.959 . S
C1041 H1048 0.961 . S
C1041 H1049 0.960 . S
C1042 C1040 1.381 . S
C1042 C1043 1.394 . S
C1042 H1050 0.930 . S
C1043 C1042 1.394 . S
C1043 C1044 1.383 . S
C1043 H1051 0.929 . S
C1044 C1043 1.383 . S
C1044 C1045 1.377 . S
C1045 H1029 0.930 . S
C1045 C1044 1.377 . S
C1045 C1046 1.379 . S
C1046 H1030 0.931 . S
C1046 C1040 1.383 . S
C1046 C1045 1.379 . S
H1047 C1041 0.959 . S
H1048 C1041 0.961 . S
H1049 C1041 0.960 . S
H1050 C1042 0.930 . S
H1051 C1043 0.929 . S
H1052 C1060 0.929 . S
H1053 C1062 0.930 . S
H1054 C1064 0.930 . S
H1055 C1067 0.929 . S
H1056 C1070 0.930 . S
H1057 C1072 0.960 . S
H1058 C1072 0.960 . S
H1059 C1072 0.960 . S
C1060 H1052 0.929 . S
C1060 C1061 1.377 . S
C1060 C1062 1.384 . S
C1061 C1060 1.377 . S
C1061 C1067 1.390 . S
C1062 H1053 0.930 . S
C1062 C1060 1.384 . S
C1062 C1063 1.372 . S
C1063 C1062 1.372 . S
C1063 C1064 1.400 . S
C1063 C1068 1.490 . S
C1064 H1054 0.930 . S
C1064 C1063 1.400 . S
C1064 C1067 1.386 . S
H1065 C1081 0.930 . S
H1066 C1082 0.931 . S
C1067 H1055 0.929 . S
C1067 C1061 1.390 . S
C1067 C1064 1.386 . S
C1068 C1063 1.490 . S
C1068 C1070 1.395 . S
C1068 C1071 1.403 . S
H1069 C1075 0.930 . S
C1070 H1056 0.930 . S
C1070 C1068 1.395 . S
C1070 C1073 1.403 . S
C1071 C1068 1.403 . S
C1071 C1072 1.524 . S
C1071 C1075 1.400 . S
C1072 H1057 0.960 . S
C1072 H1058 0.960 . S
C1072 H1059 0.960 . S
C1072 C1071 1.524 . S
C1073 C1070 1.403 . S
C1073 C1074 1.392 . S
C1073 C1077 1.495 . S
C1074 C1073 1.392 . S
C1074 C1075 1.385 . S
C1074 C1076 1.478 . S
C1075 H1069 0.930 . S
C1075 C1071 1.400 . S
C1075 C1074 1.385 . S
C1076 C1074 1.478 . S
C1076 C1078 1.381 . S
C1076 C1082 1.383 . S
C1077 C1073 1.495 . S
C1077 H1083 0.959 . S
C1077 H1084 0.961 . S
C1077 H1085 0.960 . S
C1078 C1076 1.381 . S
C1078 C1079 1.394 . S
C1078 H1086 0.930 . S
C1079 C1078 1.394 . S
C1079 C1080 1.383 . S
C1079 H1087 0.929 . S
C1080 C1079 1.383 . S
C1080 C1081 1.377 . S
C1081 H1065 0.930 . S
C1081 C1080 1.377 . S
C1081 C1082 1.379 . S
C1082 H1066 0.931 . S
C1082 C1076 1.383 . S
C1082 C1081 1.379 . S
H1083 C1077 0.959 . S
H1084 C1077 0.961 . S
H1085 C1077 0.960 . S
H1086 C1078 0.930 . S
H1087 C1079 0.929 . S
H1088 C1096 0.929 . S
H1089 C1098 0.930 . S
H1090 C1100 0.918 1_565 S
H1091 C1103 0.929 . S
H1092 C1106 0.930 . S
H1093 C1108 0.960 . S
H1094 C1108 0.960 1_545 S
H1095 C1108 0.959 1_545 S
C1096 H1088 0.929 . S
C1096 C1097 1.377 . S
C1096 C1098 1.384 . S
C1097 C1096 1.377 . S
C1097 C1103 1.390 . S
C1098 H1089 0.930 . S
C1098 C1096 1.384 . S
C1098 C1099 1.372 1_545 S
C1099 C1098 1.372 1_565 S
C1099 C1100 1.395 1_565 S
C1099 C1104 1.490 . S
C1100 H1090 0.918 1_545 S
C1100 C1099 1.395 1_545 S
C1100 C1103 1.402 . S
H1101 C1117 0.930 . S
H1102 C1118 0.931 . S
C1103 H1091 0.929 . S
C1103 C1097 1.390 . S
C1103 C1100 1.402 . S
C1104 C1099 1.490 . S
C1104 C1106 1.395 . S
C1104 C1107 1.403 . S
H1105 C1111 0.930 . S
C1106 H1092 0.930 . S
C1106 C1104 1.395 . S
C1106 C1109 1.403 . S
C1107 C1104 1.403 . S
C1107 C1108 1.524 . S
C1107 C1111 1.400 . S
C1108 H1093 0.960 . S
C1108 H1094 0.960 1_565 S
C1108 H1095 0.959 1_565 S
C1108 C1107 1.524 . S
C1109 C1106 1.403 . S
C1109 C1110 1.392 . S
C1109 C1113 1.495 . S
C1110 C1109 1.392 . S
C1110 C1111 1.385 . S
C1110 C1112 1.478 . S
C1111 H1105 0.930 . S
C1111 C1107 1.400 . S
C1111 C1110 1.385 . S
C1112 C1110 1.478 . S
C1112 C1114 1.381 . S
C1112 C1118 1.383 . S
C1113 C1109 1.495 . S
C1113 H1119 0.959 . S
C1113 H1120 0.961 . S
C1113 H1121 0.960 . S
C1114 C1112 1.381 . S
C1114 C1115 1.394 . S
C1114 H1122 0.930 . S
C1115 C1114 1.394 . S
C1115 C1116 1.383 . S
C1115 H1123 0.929 . S
C1116 C1115 1.383 . S
C1116 C1117 1.377 . S
C1117 H1101 0.930 . S
C1117 C1116 1.377 . S
C1117 C1118 1.379 . S
C1118 H1102 0.931 . S
C1118 C1112 1.383 . S
C1118 C1117 1.379 . S
H1119 C1113 0.959 . S
H1120 C1113 0.961 . S
H1121 C1113 0.960 . S
H1122 C1114 0.930 . S
H1123 C1115 0.929 . S
H1124 C1132 0.929 . S
H1125 C1134 0.930 . S
H1126 C1136 0.930 . S
H1127 C1139 0.929 . S
H1128 C1142 0.930 . S
H1129 C1144 0.960 . S
H1130 C1144 0.960 . S
H1131 C1144 0.960 . S
C1132 H1124 0.929 . S
C1132 C1133 1.377 . S
C1132 C1134 1.384 . S
C1133 C1132 1.377 . S
C1133 C1139 1.390 . S
C1134 H1125 0.930 . S
C1134 C1132 1.384 . S
C1134 C1135 1.372 . S
C1135 C1134 1.372 . S
C1135 C1136 1.400 . S
C1135 C1140 1.490 . S
C1136 H1126 0.930 . S
C1136 C1135 1.400 . S
C1136 C1139 1.386 . S
H1137 C1153 0.930 . S
H1138 C1154 0.931 . S
C1139 H1127 0.929 . S
C1139 C1133 1.390 . S
C1139 C1136 1.386 . S
C1140 C1135 1.490 . S
C1140 C1142 1.395 . S
C1140 C1143 1.403 . S
H1141 C1147 0.930 . S
C1142 H1128 0.930 . S
C1142 C1140 1.395 . S
C1142 C1145 1.403 . S
C1143 C1140 1.403 . S
C1143 C1144 1.524 . S
C1143 C1147 1.400 . S
C1144 H1129 0.960 . S
C1144 H1130 0.960 . S
C1144 H1131 0.960 . S
C1144 C1143 1.524 . S
C1145 C1142 1.403 . S
C1145 C1146 1.392 . S
C1145 C1149 1.495 . S
C1146 C1145 1.392 . S
C1146 C1147 1.385 . S
C1146 C1148 1.478 . S
C1147 H1141 0.930 . S
C1147 C1143 1.400 . S
C1147 C1146 1.385 . S
C1148 C1146 1.478 . S
C1148 C1150 1.381 . S
C1148 C1154 1.383 . S
C1149 C1145 1.495 . S
C1149 H1155 0.959 . S
C1149 H1156 0.961 . S
C1149 H1157 0.960 . S
C1150 C1148 1.381 . S
C1150 C1151 1.394 . S
C1150 H1158 0.930 . S
C1151 C1150 1.394 . S
C1151 C1152 1.383 . S
C1151 H1159 0.929 . S
C1152 C1151 1.383 . S
C1152 C1153 1.377 . S
C1153 H1137 0.930 . S
C1153 C1152 1.377 . S
C1153 C1154 1.379 . S
C1154 H1138 0.931 . S
C1154 C1148 1.383 . S
C1154 C1153 1.379 . S
H1155 C1149 0.959 . S
H1156 C1149 0.961 . S
H1157 C1149 0.960 . S
H1158 C1150 0.930 . S
H1159 C1151 0.929 . S
H1160 C1168 0.929 . S
H1161 C1170 0.930 . S
H1162 C1172 0.930 . S
H1163 C1175 0.929 . S
H1164 C1178 0.930 . S
H1165 C1180 0.960 . S
H1166 C1180 0.960 . S
H1167 C1180 0.960 . S
C1168 H1160 0.929 . S
C1168 C1169 1.377 . S
C1168 C1170 1.384 . S
C1169 C1168 1.377 . S
C1169 C1175 1.390 . S
C1170 H1161 0.930 . S
C1170 C1168 1.384 . S
C1170 C1171 1.372 . S
C1171 C1170 1.372 . S
C1171 C1172 1.400 . S
C1171 C1176 1.490 . S
C1172 H1162 0.930 . S
C1172 C1171 1.400 . S
C1172 C1175 1.386 . S
H1173 C1189 0.930 . S
H1174 C1190 0.931 . S
C1175 H1163 0.929 . S
C1175 C1169 1.390 . S
C1175 C1172 1.386 . S
C1176 C1171 1.490 . S
C1176 C1178 1.395 . S
C1176 C1179 1.403 . S
H1177 C1183 0.930 . S
C1178 H1164 0.930 . S
C1178 C1176 1.395 . S
C1178 C1181 1.403 . S
C1179 C1176 1.403 . S
C1179 C1180 1.524 . S
C1179 C1183 1.400 . S
C1180 H1165 0.960 . S
C1180 H1166 0.960 . S
C1180 H1167 0.960 . S
C1180 C1179 1.524 . S
C1181 C1178 1.403 . S
C1181 C1182 1.392 . S
C1181 C1185 1.495 . S
C1182 C1181 1.392 . S
C1182 C1183 1.385 . S
C1182 C1184 1.478 . S
C1183 H1177 0.930 . S
C1183 C1179 1.400 . S
C1183 C1182 1.385 . S
C1184 C1182 1.478 . S
C1184 C1186 1.381 . S
C1184 C1190 1.383 1_455 S
C1185 C1181 1.495 . S
C1185 H1191 0.959 . S
C1185 H1192 0.961 . S
C1185 H1193 0.960 . S
C1186 C1184 1.381 . S
C1186 C1187 1.394 1_455 S
C1186 H1194 0.930 . S
C1187 C1186 1.394 1_655 S
C1187 C1188 1.383 . S
C1187 H1195 0.929 . S
C1188 C1187 1.383 . S
C1188 C1189 1.377 . S
C1189 H1173 0.930 . S
C1189 C1188 1.377 . S
C1189 C1190 1.379 . S
C1190 H1174 0.931 . S
C1190 C1184 1.383 1_655 S
C1190 C1189 1.379 . S
H1191 C1185 0.959 . S
H1192 C1185 0.961 . S
H1193 C1185 0.960 . S
H1194 C1186 0.930 . S
H1195 C1187 0.929 . S
H1196 C1204 0.929 . S
H1197 C1206 0.930 . S
H1198 C1208 0.930 . S
H1199 C1211 0.929 . S
H1200 C1214 0.930 . S
H1201 C1216 0.960 . S
H1202 C1216 0.960 . S
H1203 C1216 0.960 . S
C1204 H1196 0.929 . S
C1204 C1205 1.377 . S
C1204 C1206 1.384 1_565 S
C1205 C1204 1.377 . S
C1205 C1211 1.390 . S
C1206 H1197 0.930 . S
C1206 C1204 1.384 1_545 S
C1206 C1207 1.372 . S
C1207 C1206 1.372 . S
C1207 C1208 1.400 1_545 S
C1207 C1212 1.490 . S
C1208 H1198 0.930 . S
C1208 C1207 1.400 1_565 S
C1208 C1211 1.386 . S
H1209 C1225 0.930 . S
H1210 C1226 0.931 . S
C1211 H1199 0.929 . S
C1211 C1205 1.390 . S
C1211 C1208 1.386 . S
C1212 C1207 1.490 . S
C1212 C1214 1.395 . S
C1212 C1215 1.403 . S
H1213 C1219 0.930 . S
C1214 H1200 0.930 . S
C1214 C1212 1.395 . S
C1214 C1217 1.403 . S
C1215 C1212 1.403 . S
C1215 C1216 1.524 1_545 S
C1215 C1219 1.400 . S
C1216 H1201 0.960 . S
C1216 H1202 0.960 . S
C1216 H1203 0.960 . S
C1216 C1215 1.524 1_565 S
C1217 C1214 1.403 . S
C1217 C1218 1.392 . S
C1217 C1221 1.495 . S
C1218 C1217 1.392 . S
C1218 C1219 1.385 . S
C1218 C1220 1.478 . S
C1219 H1213 0.930 . S
C1219 C1215 1.400 . S
C1219 C1218 1.385 . S
C1220 C1218 1.478 . S
C1220 C1222 1.381 . S
C1220 C1226 1.383 1_655 S
C1221 C1217 1.495 . S
C1221 H1227 0.959 . S
C1221 H1228 0.961 . S
C1221 H1229 0.960 . S
C1222 C1220 1.381 . S
C1222 C1223 1.394 1_655 S
C1222 H1230 0.930 . S
C1223 C1222 1.394 1_455 S
C1223 C1224 1.383 . S
C1223 H1231 0.929 . S
C1224 C1223 1.383 . S
C1224 C1225 1.377 . S
C1225 H1209 0.930 . S
C1225 C1224 1.377 . S
C1225 C1226 1.379 . S
C1226 H1210 0.931 . S
C1226 C1220 1.383 1_455 S
C1226 C1225 1.379 . S
H1227 C1221 0.959 . S
H1228 C1221 0.961 . S
H1229 C1221 0.960 . S
H1230 C1222 0.930 . S
H1231 C1223 0.929 . S
H1232 C1240 0.929 . S
H1233 C1242 0.930 . S
H1234 C1244 0.930 . S
H1235 C1247 0.929 . S
H1236 C1250 0.930 . S
H1237 C1252 0.960 . S
H1238 C1252 0.960 . S
H1239 C1252 0.960 . S
C1240 H1232 0.929 . S
C1240 C1241 1.377 . S
C1240 C1242 1.384 . S
C1241 C1240 1.377 . S
C1241 C1247 1.390 . S
C1242 H1233 0.930 . S
C1242 C1240 1.384 . S
C1242 C1243 1.372 . S
C1243 C1242 1.372 . S
C1243 C1244 1.400 . S
C1243 C1248 1.490 . S
C1244 H1234 0.930 . S
C1244 C1243 1.400 . S
C1244 C1247 1.386 . S
H1245 C1261 0.930 . S
H1246 C1262 0.931 . S
C1247 H1235 0.929 . S
C1247 C1241 1.390 . S
C1247 C1244 1.386 . S
C1248 C1243 1.490 . S
C1248 C1250 1.395 . S
C1248 C1251 1.403 . S
H1249 C1255 0.930 . S
C1250 H1236 0.930 . S
C1250 C1248 1.395 . S
C1250 C1253 1.403 . S
C1251 C1248 1.403 . S
C1251 C1252 1.524 . S
C1251 C1255 1.400 . S
C1252 H1237 0.960 . S
C1252 H1238 0.960 . S
C1252 H1239 0.960 . S
C1252 C1251 1.524 . S
C1253 C1250 1.403 . S
C1253 C1254 1.392 . S
C1253 C1257 1.495 . S
C1254 C1253 1.392 . S
C1254 C1255 1.385 . S
C1254 C1256 1.478 . S
C1255 H1249 0.930 . S
C1255 C1251 1.400 . S
C1255 C1254 1.385 . S
C1256 C1254 1.478 . S
C1256 C1258 1.381 . S
C1256 C1262 1.383 . S
C1257 C1253 1.495 . S
C1257 H1263 0.959 . S
C1257 H1264 0.961 . S
C1257 H1265 0.960 . S
C1258 C1256 1.381 . S
C1258 C1259 1.394 . S
C1258 H1266 0.930 . S
C1259 C1258 1.394 . S
C1259 C1260 1.383 . S
C1259 H1267 0.929 . S
C1260 C1259 1.383 . S
C1260 C1261 1.377 . S
C1261 H1245 0.930 . S
C1261 C1260 1.377 . S
C1261 C1262 1.379 . S
C1262 H1246 0.931 . S
C1262 C1256 1.383 . S
C1262 C1261 1.379 . S
H1263 C1257 0.959 . S
H1264 C1257 0.961 . S
H1265 C1257 0.960 . S
H1266 C1258 0.930 . S
H1267 C1259 0.929 . S
H1268 C1276 0.929 . S
H1269 C1278 0.930 . S
H1270 C1280 0.930 . S
H1271 C1283 0.929 . S
H1272 C1286 0.930 . S
H1273 C1288 0.960 . S
H1274 C1288 0.960 . S
H1275 C1288 0.960 . S
C1276 H1268 0.929 . S
C1276 C1277 1.377 . S
C1276 C1278 1.384 1_455 S
C1277 C1276 1.377 . S
C1277 C1283 1.390 . S
C1278 H1269 0.930 . S
C1278 C1276 1.384 1_655 S
C1278 C1279 1.372 . S
C1279 C1278 1.372 . S
C1279 C1280 1.400 1_655 S
C1279 C1284 1.490 . S
C1280 H1270 0.930 . S
C1280 C1279 1.400 1_455 S
C1280 C1283 1.386 . S
H1281 C1297 0.930 . S
H1282 C1298 0.931 . S
C1283 H1271 0.929 . S
C1283 C1277 1.390 . S
C1283 C1280 1.386 . S
C1284 C1279 1.490 . S
C1284 C1286 1.395 . S
C1284 C1287 1.403 . S
H1285 C1291 0.930 . S
C1286 H1272 0.930 . S
C1286 C1284 1.395 . S
C1286 C1289 1.403 . S
C1287 C1284 1.403 . S
C1287 C1288 1.524 1_655 S
C1287 C1291 1.400 . S
C1288 H1273 0.960 . S
C1288 H1274 0.960 . S
C1288 H1275 0.960 . S
C1288 C1287 1.524 1_455 S
C1289 C1286 1.403 . S
C1289 C1290 1.392 . S
C1289 C1293 1.495 . S
C1290 C1289 1.392 . S
C1290 C1291 1.385 . S
C1290 C1292 1.478 . S
C1291 H1285 0.930 . S
C1291 C1287 1.400 . S
C1291 C1290 1.385 . S
C1292 C1290 1.478 . S
C1292 C1294 1.381 . S
C1292 C1298 1.383 . S
C1293 C1289 1.495 . S
C1293 H1299 0.959 . S
C1293 H1300 0.961 . S
C1293 H1301 0.960 . S
C1294 C1292 1.381 . S
C1294 C1295 1.394 . S
C1294 H1302 0.930 . S
C1295 C1294 1.394 . S
C1295 C1296 1.383 . S
C1295 H1303 0.929 . S
C1296 C1295 1.383 . S
C1296 C1297 1.377 . S
C1297 H1281 0.930 . S
C1297 C1296 1.377 . S
C1297 C1298 1.379 . S
C1298 H1282 0.931 . S
C1298 C1292 1.383 . S
C1298 C1297 1.379 . S
H1299 C1293 0.959 . S
H1300 C1293 0.961 . S
H1301 C1293 0.960 . S
H1302 C1294 0.930 . S
H1303 C1295 0.929 . S
H1304 C1312 0.929 . S
H1305 C1314 0.941 . S
H1306 C1316 0.930 1_455 S
H1307 C1319 0.929 . S
H1308 C1322 0.930 . S
H1309 C1324 0.955 1_455 S
H1310 C1324 0.960 . S
H1311 C1324 0.960 . S
C1312 H1304 0.929 . S
C1312 C1313 1.377 . S
C1312 C1314 1.384 . S
C1313 C1312 1.377 . S
C1313 C1319 1.390 . S
C1314 H1305 0.941 . S
C1314 C1312 1.384 . S
C1314 C1315 1.372 1_655 S
C1315 C1314 1.372 1_455 S
C1315 C1316 1.400 1_455 S
C1315 C1320 1.490 . S
C1316 H1306 0.930 1_655 S
C1316 C1315 1.400 1_655 S
C1316 C1319 1.386 . S
H1317 C1333 0.930 . S
H1318 C1334 0.931 . S
C1319 H1307 0.929 . S
C1319 C1313 1.390 . S
C1319 C1316 1.386 . S
C1320 C1315 1.490 . S
C1320 C1322 1.395 . S
C1320 C1323 1.403 . S
H1321 C1327 0.930 . S
C1322 H1308 0.930 . S
C1322 C1320 1.395 . S
C1322 C1325 1.403 . S
C1323 C1320 1.403 . S
C1323 C1324 1.524 1_455 S
C1323 C1327 1.400 . S
C1324 H1309 0.955 1_655 S
C1324 H1310 0.960 . S
C1324 H1311 0.960 . S
C1324 C1323 1.524 1_655 S
C1325 C1322 1.403 . S
C1325 C1326 1.392 . S
C1325 C1329 1.495 . S
C1326 C1325 1.392 . S
C1326 C1327 1.385 . S
C1326 C1328 1.478 . S
C1327 H1321 0.930 . S
C1327 C1323 1.400 . S
C1327 C1326 1.385 . S
C1328 C1326 1.478 . S
C1328 C1330 1.381 1_565 S
C1328 C1334 1.383 . S
C1329 C1325 1.495 . S
C1329 H1335 0.959 . S
C1329 H1336 0.961 . S
C1329 H1337 0.960 . S
C1330 C1328 1.381 1_545 S
C1330 C1331 1.394 . S
C1330 H1338 0.941 . S
C1331 C1330 1.394 . S
C1331 C1332 1.383 . S
C1331 H1339 0.929 . S
C1332 C1331 1.383 . S
C1332 C1333 1.377 . S
C1333 H1317 0.930 . S
C1333 C1332 1.377 . S
C1333 C1334 1.379 1_545 S
C1334 H1318 0.931 . S
C1334 C1328 1.383 . S
C1334 C1333 1.379 1_565 S
H1335 C1329 0.959 . S
H1336 C1329 0.961 . S
H1337 C1329 0.960 . S
H1338 C1330 0.941 . S
H1339 C1331 0.929 . S
H1340 C1348 0.929 . S
H1341 C1350 0.930 1_545 S
H1342 C1352 0.924 1_545 S
H1343 C1355 0.929 . S
H1344 C1358 0.930 . S
H1345 C1360 0.960 . S
H1346 C1360 0.960 . S
H1347 C1360 0.960 . S
C1348 H1340 0.929 . S
C1348 C1349 1.377 . S
C1348 C1350 1.384 . S
C1349 C1348 1.377 . S
C1349 C1355 1.390 . S
C1350 H1341 0.930 1_565 S
C1350 C1348 1.384 . S
C1350 C1351 1.372 1_565 S
C1351 C1350 1.372 1_545 S
C1351 C1352 1.400 1_545 S
C1351 C1356 1.490 . S
C1352 H1342 0.924 1_565 S
C1352 C1351 1.400 1_565 S
C1352 C1355 1.386 . S
H1353 C1369 0.930 . S
H1354 C1370 0.931 . S
C1355 H1343 0.929 . S
C1355 C1349 1.390 . S
C1355 C1352 1.386 . S
C1356 C1351 1.490 . S
C1356 C1358 1.395 . S
C1356 C1359 1.403 . S
H1357 C1363 0.930 . S
C1358 H1344 0.930 . S
C1358 C1356 1.395 . S
C1358 C1361 1.403 . S
C1359 C1356 1.403 . S
C1359 C1360 1.524 1_545 S
C1359 C1363 1.400 . S
C1360 H1345 0.960 . S
C1360 H1346 0.960 . S
C1360 H1347 0.960 . S
C1360 C1359 1.524 1_565 S
C1361 C1358 1.403 . S
C1361 C1362 1.392 . S
C1361 C1365 1.495 . S
C1362 C1361 1.392 . S
C1362 C1363 1.385 . S
C1362 C1364 1.478 . S
C1363 H1357 0.930 . S
C1363 C1359 1.400 . S
C1363 C1362 1.385 . S
C1364 C1362 1.478 . S
C1364 C1366 1.381 . S
C1364 C1370 1.383 . S
C1365 C1361 1.495 . S
C1365 H1371 0.959 . S
C1365 H1372 0.961 . S
C1365 H1373 0.960 . S
C1366 C1364 1.381 . S
C1366 C1367 1.394 . S
C1366 H1374 0.930 . S
C1367 C1366 1.394 . S
C1367 C1368 1.383 . S
C1367 H1375 0.929 . S
C1368 C1367 1.383 . S
C1368 C1369 1.377 . S
C1369 H1353 0.930 . S
C1369 C1368 1.377 . S
C1369 C1370 1.379 . S
C1370 H1354 0.931 . S
C1370 C1364 1.383 . S
C1370 C1369 1.379 . S
H1371 C1365 0.959 . S
H1372 C1365 0.961 . S
H1373 C1365 0.960 . S
H1374 C1366 0.930 . S
H1375 C1367 0.929 . S
C233 C106 1.302 . S
C252 C8 1.262 . S
C269 C64 1.306 . S
C288 C22 1.270 . S
C305 C78 1.303 . S
C324 C36 1.275 . S
C341 C50 1.306 . S
C360 C92 1.300 . S
C377 C218 1.319 . S
C396 C120 1.267 . S
C413 C176 1.306 . S
C432 C134 1.278 . S
C449 C148 1.319 . S
C468 C190 1.268 . S
C485 C162 1.311 . S
C504 C204 1.357 . S
C521 C37 1.140 . S
C540 C9 1.167 . S
C557 C23 1.150 . S
C576 C51 1.170 . S
C593 C65 1.139 . S
C612 C93 1.101 . S
C629 C107 1.149 . S
C648 C79 1.173 . S
C665 C121 1.137 . S
C684 C149 1.159 . S
C701 C135 1.137 . S
C720 C163 1.101 . S
C737 C205 1.135 . S
C756 C177 1.151 . S
C773 C191 1.140 . S
C792 C219 1.101 . S
C809 C91 1.674 . S
C828 C7 1.673 . S
C845 C21 1.679 . S
C864 C105 1.673 . S
C881 C35 1.675 . S
C900 C63 1.660 . S
C917 C49 1.679 . S
C936 C77 1.683 . S
C953 C119 1.679 . S
C972 C203 1.660 . S
C989 C133 1.675 . S
C1008 C217 1.684 . S
C1025 C147 1.679 . S
C1044 C175 1.659 . S
C1061 C161 1.674 . S
C1080 C189 1.687 . S
C1097 C6 1.379 . S
C1116 C216 1.391 . S
C1133 C174 1.383 . S
C1152 C20 1.365 . S
C1169 C34 1.382 . S
C1188 C188 1.383 . S
C1205 C202 1.379 . S
C1224 C48 1.391 . S
C1241 C132 1.378 . S
C1260 C62 1.388 . S
C1277 C76 1.381 . S
C1296 C146 1.389 . S
C1313 C160 1.378 . S
C1332 C90 1.385 . S
C1349 C118 1.378 . S
C1368 C104 1.387 . S
