# Generated by pormake.
# Topology sra, (4)-cn, num edge types: 1
# Building blocks:
#     Node 0, Type 0, BuildingBlock: QUQFOY_clean_sbu_1, # of connection points: 4
#     Node 1, Type 0, BuildingBlock: QUQFOY_clean_sbu_1, # of connection points: 4
#     Node 2, Type 0, BuildingBlock: QUQFOY_clean_sbu_1, # of connection points: 4
#     Node 3, Type 0, BuildingBlock: QUQFOY_clean_sbu_1, # of connection points: 4
#     Node 4, Type 0, BuildingBlock: QUQFOY_clean_sbu_1, # of connection points: 4
#     Node 5, Type 0, BuildingBlock: QUQFOY_clean_sbu_1, # of connection points: 4
#     Node 6, Type 0, BuildingBlock: QUQFOY_clean_sbu_1, # of connection points: 4
#     Node 7, Type 0, BuildingBlock: QUQFOY_clean_sbu_1, # of connection points: 4
#     Edge 8, Type (0, 0), BuildingBlock: XUDNAN_clean_linker_2, # of connection points: 2
#     Edge 9, Type (0, 0), BuildingBlock: XUDNAN_clean_linker_2, # of connection points: 2
#     Edge 10, Type (0, 0), BuildingBlock: XUDNAN_clean_linker_2, # of connection points: 2
#     Edge 11, Type (0, 0), BuildingBlock: XUDNAN_clean_linker_2, # of connection points: 2
#     Edge 12, Type (0, 0), BuildingBlock: XUDNAN_clean_linker_2, # of connection points: 2
#     Edge 13, Type (0, 0), BuildingBlock: XUDNAN_clean_linker_2, # of connection points: 2
#     Edge 14, Type (0, 0), BuildingBlock: XUDNAN_clean_linker_2, # of connection points: 2
#     Edge 15, Type (0, 0), BuildingBlock: XUDNAN_clean_linker_2, # of connection points: 2
#     Edge 16, Type (0, 0), BuildingBlock: XUDNAN_clean_linker_2, # of connection points: 2
#     Edge 17, Type (0, 0), BuildingBlock: XUDNAN_clean_linker_2, # of connection points: 2
#     Edge 18, Type (0, 0), BuildingBlock: XUDNAN_clean_linker_2, # of connection points: 2
#     Edge 19, Type (0, 0), BuildingBlock: XUDNAN_clean_linker_2, # of connection points: 2
#     Edge 20, Type (0, 0), BuildingBlock: XUDNAN_clean_linker_2, # of connection points: 2
#     Edge 21, Type (0, 0), BuildingBlock: XUDNAN_clean_linker_2, # of connection points: 2
#     Edge 22, Type (0, 0), BuildingBlock: XUDNAN_clean_linker_2, # of connection points: 2
#     Edge 23, Type (0, 0), BuildingBlock: XUDNAN_clean_linker_2, # of connection points: 2
# Relax obj value: 0.042
# Max RMSD: 0.079
# Mean RMSD: 0.079
data_MOF--net-sra--node1-QUQFOY_clean_sbu_1--edge1-XUDNAN_clean_linker_2
_symmetry_space_group_name_H-M    P1
_symmetry_Int_Tables_number       1
_symmetry_cell_setting            triclinic
loop_
_symmetry_equiv_pos_as_xyz
'x, y, z'
_cell_length_a     28.14723
_cell_length_b     52.95639
_cell_length_c     33.799947
_cell_angle_alpha  89.948779
_cell_angle_beta   89.968082
_cell_angle_gamma 89.832038
loop_
_atom_site_label
_atom_site_type_symbol
_atom_site_fract_x
_atom_site_fract_y
_atom_site_fract_z
_atom_type_partial_charge
O0 O 0.97494 0.10792 0.17129 0.0
Cd1 Cd 0.02762 0.11579 0.1305 0.0
Cd2 Cd 0.07744 0.12486 0.19727 0.0
O3 O 1.01873 0.10946 0.22531 0.0
O4 O 1.00984 0.09658 0.08161 0.0
O5 O 0.07533 0.08914 0.116 0.0
C6 C 0.04794 0.08338 0.08681 0.0
C7 C 0.15479 0.10952 0.20683 0.0
C8 C 0.97897 0.10543 0.20856 0.0
C9 C 0.056 0.16931 0.14379 0.0
O10 O 0.07045 0.16167 0.17744 0.0
O11 O 0.04028 0.15364 0.11842 0.0
O12 O 0.13401 0.12307 0.23349 0.0
O13 O 0.13105 0.10409 0.17534 0.0
O14 O 0.12435 0.41749 0.17434 0.0
Cd15 Cd 0.07075 0.40915 0.13473 0.0
Cd16 Cd 0.02468 0.39851 0.20258 0.0
O17 O 0.08269 0.41526 0.22946 0.0
O18 O 0.08828 0.42844 0.08593 0.0
O19 O 0.02281 0.43586 0.12039 0.0
C20 C 0.05036 0.44175 0.09133 0.0
C21 C 0.94679 0.41255 0.21293 0.0
C22 C 0.12147 0.42006 0.21165 0.0
C23 C 0.04634 0.35503 0.14747 0.0
O24 O 0.03358 0.362 0.18194 0.0
O25 O 0.05941 0.37131 0.12194 0.0
O26 O 0.96853 0.39915 0.23927 0.0
O27 O 0.9699 0.41854 0.1813 0.0
O28 O 0.96702 0.91226 0.83981 0.0
Cd29 Cd 0.02517 0.90249 0.87361 0.0
Cd30 Cd 0.07124 0.90896 0.80553 0.0
O31 O 1.00806 0.92612 0.78878 0.0
O32 O 1.01516 0.91679 0.9276 0.0
O33 O 0.07178 0.92964 0.88652 0.0
C34 C 0.04958 0.93212 0.91976 0.0
C35 C 0.14467 0.92516 0.78485 0.0
C36 C 0.96844 0.92303 0.80623 0.0
C37 C 0.06158 0.85567 0.83923 0.0
O38 O 0.07064 0.8701 0.81007 0.0
O39 O 0.04596 0.86492 0.87147 0.0
O40 O 0.11498 0.91568 0.76004 0.0
O41 O 0.13212 0.92645 0.8215 0.0
O42 O 0.15603 0.60958 0.85879 0.0
Cd43 Cd 0.09169 0.62158 0.88127 0.0
Cd44 Cd 0.0673 0.61662 0.8057 0.0
O45 O 0.13194 0.59825 0.79938 0.0
O46 O 0.09249 0.61002 0.93754 0.0
O47 O 0.0423 0.59538 0.89257 0.0
C48 C 0.05942 0.59432 0.92796 0.0
C49 C 0.99492 0.6012 0.78213 0.0
C50 C 0.16459 0.59967 0.82529 0.0
C51 C 0.07225 0.66945 0.84006 0.0
O52 O 0.07102 0.65532 0.80964 0.0
O53 O 0.07585 0.65976 0.87445 0.0
O54 O 0.02737 0.60901 0.75812 0.0
O55 O 1.00451 0.60093 0.81946 0.0
O56 O 0.4806 0.60401 0.67811 0.0
Cd57 Cd 0.53368 0.61305 0.63839 0.0
Cd58 Cd 0.58054 0.62294 0.70611 0.0
O59 O 0.52225 0.60652 0.73316 0.0
O60 O 0.5157 0.59454 0.58905 0.0
O61 O 0.58173 0.58676 0.62251 0.0
C62 C 0.55385 0.58129 0.5935 0.0
C63 C 0.65793 0.6081 0.7161 0.0
C64 C 0.48353 0.60154 0.71543 0.0
C65 C 0.55857 0.66707 0.65226 0.0
O66 O 0.57266 0.65969 0.68615 0.0
O67 O 0.54417 0.65111 0.62679 0.0
O68 O 0.6367 0.62158 0.74261 0.0
O69 O 0.63459 0.60251 0.68444 0.0
O70 O 0.64215 0.91601 0.65561 0.0
Cd71 Cd 0.57913 0.90677 0.62775 0.0
Cd72 Cd 0.55328 0.89798 0.70407 0.0
O73 O 0.61815 0.914 0.71781 0.0
O74 O 0.58464 0.91946 0.57196 0.0
O75 O 0.5354 0.93604 0.61589 0.0
C76 C 0.55332 0.93632 0.58082 0.0
C77 C 0.47961 0.91623 0.71762 0.0
C78 C 0.65028 0.91881 0.69239 0.0
C79 C 0.55585 0.853 0.65113 0.0
O80 O 0.55408 0.86071 0.68672 0.0
O81 O 0.5617 0.86865 0.6229 0.0
O82 O 0.50235 0.90392 0.74475 0.0
O83 O 0.49983 0.91886 0.68358 0.0
O84 O 0.44817 0.41466 0.35703 0.0
Cd85 Cd 0.51212 0.40268 0.38042 0.0
Cd86 Cd 0.53618 0.40489 0.30482 0.0
O87 O 0.47261 0.42399 0.29685 0.0
O88 O 0.5102 0.4151 0.43612 0.0
O89 O 0.56209 0.42867 0.39159 0.0
C90 C 0.54403 0.43036 0.42662 0.0
C91 C 0.60943 0.41874 0.28059 0.0
C92 C 0.43989 0.42362 0.32282 0.0
C93 C 0.52812 0.35335 0.343 0.0
O94 O 0.52966 0.36644 0.31145 0.0
O95 O 0.52612 0.36415 0.37662 0.0
O96 O 0.57679 0.4107 0.25701 0.0
O97 O 0.59974 0.42 0.31787 0.0
O98 O 0.6512 0.11415 0.35894 0.0
Cd99 Cd 0.58467 0.12103 0.38196 0.0
Cd100 Cd 0.55901 0.11701 0.30438 0.0
O101 O 0.62798 0.10299 0.29895 0.0
O102 O 0.57799 0.10441 0.43526 0.0
O103 O 0.54265 0.09101 0.38071 0.0
C104 C 0.55215 0.08767 0.41768 0.0
C105 C 0.49035 0.09964 0.27623 0.0
C106 C 0.66076 0.10557 0.32467 0.0
C107 C 0.54983 0.16807 0.34449 0.0
O108 O 0.55197 0.15521 0.31278 0.0
O109 O 0.55831 0.15773 0.37779 0.0
O110 O 0.52265 0.1098 0.25434 0.0
O111 O 0.49873 0.09757 0.31357 0.0
H112 H 0.049 0.31546 0.1994 0.0
H113 H 0.04705 0.3328 0.07392 0.0
H114 H 0.04936 0.28705 0.05867 0.0
H115 H 0.1313 0.26376 0.19253 0.0
H116 H 0.10281 0.24569 0.23099 0.0
H117 H 0.09958 0.27966 0.23165 0.0
H118 H 1.00762 0.27747 0.2337 0.0
H119 H 1.01056 0.2435 0.23313 0.0
H120 H 0.9765 0.26 0.19604 0.0
H121 H 0.04933 0.23878 0.05774 0.0
H122 H 0.05161 0.19277 0.07116 0.0
H123 H 0.05829 0.20802 0.19714 0.0
C124 C 0.04876 0.30969 0.16867 0.0
C125 C 0.04742 0.32771 0.13783 0.0
C126 C 0.04796 0.31932 0.09803 0.0
C127 C 0.04921 0.29338 0.0891 0.0
C128 C 0.05055 0.27611 0.1203 0.0
C129 C 0.05076 0.28399 0.15928 0.0
C130 C 0.05369 0.26182 0.18745 0.0
C131 C 0.09958 0.2628 0.2121 0.0
C132 C 1.00945 0.26063 0.21414 0.0
C133 C 0.05474 0.24015 0.15833 0.0
C134 C 0.05253 0.24868 0.11972 0.0
C135 C 0.05147 0.23193 0.08787 0.0
C136 C 0.0527 0.20584 0.09576 0.0
C137 C 0.0556 0.19678 0.13515 0.0
C138 C 0.05679 0.2143 0.16666 0.0
H139 H 0.05017 0.81717 0.89459 0.0
H140 H 0.08598 0.83137 0.7714 0.0
H141 H 0.09239 0.78586 0.75968 0.0
H142 H 0.1306 0.7633 0.90682 0.0
H143 H 0.0904 0.74596 0.93816 0.0
H144 H 0.08895 0.77998 0.93787 0.0
H145 H 0.99933 0.77901 0.9207 0.0
H146 H 1.00055 0.745 0.92076 0.0
H147 H 0.9797 0.76182 0.87772 0.0
H148 H 0.09156 0.73975 0.75924 0.0
H149 H 0.08879 0.69414 0.77115 0.0
H150 H 0.05657 0.70765 0.89517 0.0
C151 C 0.05963 0.81067 0.86526 0.0
C152 C 0.06746 0.828 0.83394 0.0
C153 C 0.0798 0.81866 0.79597 0.0
C154 C 0.08349 0.79276 0.7889 0.0
C155 C 0.07513 0.77626 0.82009 0.0
C156 C 0.06391 0.78466 0.85762 0.0
C157 C 0.05701 0.76246 0.88563 0.0
C158 C 0.09395 0.76296 0.9191 0.0
C159 C 1.00611 0.76206 0.90217 0.0
C160 C 0.06572 0.74042 0.8577 0.0
C161 C 0.07584 0.74904 0.82005 0.0
C162 C 0.08399 0.7327 0.78863 0.0
C163 C 0.08211 0.70676 0.79575 0.0
C164 C 0.07249 0.6972 0.83413 0.0
C165 C 0.06425 0.71435 0.86558 0.0
H166 H 0.5683 0.70634 0.70434 0.0
H167 H 0.54531 0.68999 0.58 0.0
H168 H 0.54152 0.73581 0.56584 0.0
H169 H 0.48815 0.75889 0.70971 0.0
H170 H 0.52471 0.77645 0.74366 0.0
H171 H 0.52683 0.74246 0.74363 0.0
H172 H 0.61791 0.74374 0.73252 0.0
H173 H 0.61611 0.77773 0.73268 0.0
H174 H 0.64152 0.76117 0.69114 0.0
H175 H 0.54142 0.78386 0.5655 0.0
H176 H 0.5432 0.82974 0.5792 0.0
H177 H 0.56326 0.81398 0.70415 0.0
C178 C 0.56277 0.71232 0.67404 0.0
C179 C 0.55738 0.69451 0.64322 0.0
C180 C 0.54962 0.70325 0.6041 0.0
C181 C 0.54742 0.72924 0.59577 0.0
C182 C 0.55266 0.74626 0.62693 0.0
C183 C 0.56 0.73811 0.6653 0.0
C184 C 0.56365 0.76014 0.69366 0.0
C185 C 0.52343 0.75943 0.72447 0.0
C186 C 0.61272 0.76072 0.71366 0.0
C187 C 0.55745 0.78202 0.66528 0.0
C188 C 0.55135 0.77369 0.62689 0.0
C189 C 0.54595 0.79057 0.5955 0.0
C190 C 0.54702 0.8166 0.60357 0.0
C191 C 0.55307 0.82552 0.64277 0.0
C192 C 0.55808 0.80785 0.6739 0.0
H193 H 0.55491 0.31624 0.39692 0.0
H194 H 0.49344 0.3277 0.28039 0.0
H195 H 0.48718 0.28187 0.27151 0.0
H196 H 0.62625 0.26309 0.36918 0.0
H197 H 0.61869 0.24622 0.41508 0.0
H198 H 0.61522 0.28018 0.41439 0.0
H199 H 0.53182 0.2782 0.44661 0.0
H200 H 0.53498 0.2442 0.44728 0.0
H201 H 0.48576 0.25984 0.42341 0.0
H202 H 0.48971 0.23588 0.27295 0.0
H203 H 0.50504 0.19074 0.28309 0.0
H204 H 0.56695 0.20683 0.39807 0.0
C205 C 0.53973 0.30901 0.36979 0.0
C206 C 0.52462 0.32558 0.33935 0.0
C207 C 0.50554 0.31543 0.30401 0.0
C208 C 0.5015 0.28939 0.29874 0.0
C209 C 0.51697 0.27358 0.32896 0.0
C210 C 0.53601 0.2828 0.36371 0.0
C211 C 0.55258 0.26122 0.39011 0.0
C212 C 0.60638 0.26277 0.39762 0.0
C213 C 0.5246 0.26085 0.42917 0.0
C214 C 0.54021 0.23861 0.36442 0.0
C215 C 0.51926 0.24639 0.32952 0.0
C216 C 0.50593 0.22946 0.3002 0.0
C217 C 0.51497 0.20383 0.30625 0.0
C218 C 0.53731 0.19519 0.34133 0.0
C219 C 0.54941 0.21283 0.37113 0.0
H220 H 0.40569 0.10201 0.31491 0.0
H221 H 0.46797 0.0858 0.20038 0.0
H222 H 0.3874 0.0817 0.17165 0.0
H223 H 0.29771 0.06225 0.3059 0.0
H224 H 0.26103 0.08556 0.33005 0.0
H225 H 0.323 0.08277 0.3428 0.0
H226 H 0.33494 0.13019 0.32682 0.0
H227 H 0.27324 0.1331 0.31377 0.0
H228 H 0.31845 0.14203 0.2787 0.0
H229 H 0.30007 0.08267 0.15455 0.0
H230 H 0.2141 0.09155 0.14915 0.0
H231 H 0.20965 0.11044 0.274 0.0
C232 C 0.40234 0.09674 0.28408 0.0
C233 C 0.44296 0.09364 0.25998 0.0
C234 C 0.43723 0.08786 0.21941 0.0
C235 C 0.39164 0.08547 0.20291 0.0
C236 C 0.35223 0.08926 0.2273 0.0
C237 C 0.35718 0.09491 0.26701 0.0
C238 C 0.30964 0.10111 0.28577 0.0
C239 C 0.29711 0.08176 0.31804 0.0
C240 C 0.30906 0.12821 0.30221 0.0
C241 C 0.27719 0.09855 0.25029 0.0
C242 C 0.30226 0.09119 0.21704 0.0
C243 C 0.28007 0.08827 0.18047 0.0
C244 C 0.23119 0.09335 0.17771 0.0
C245 C 0.20515 0.10171 0.21114 0.0
C246 C 0.22854 0.10403 0.24794 0.0
H247 H 0.69386 0.41329 0.31963 0.0
H248 H 0.63341 0.43554 0.20687 0.0
H249 H 0.71427 0.44067 0.17932 0.0
H250 H 0.80144 0.45345 0.31626 0.0
H251 H 0.83832 0.4292 0.33783 0.0
H252 H 0.77614 0.43098 0.35033 0.0
H253 H 0.76533 0.38447 0.32848 0.0
H254 H 0.8273 0.38257 0.31577 0.0
H255 H 0.78282 0.37519 0.27926 0.0
H256 H 0.80131 0.44061 0.16282 0.0
H257 H 0.8875 0.43268 0.15704 0.0
H258 H 0.89113 0.40779 0.2794 0.0
C259 C 0.69774 0.41994 0.28949 0.0
C260 C 0.65751 0.42447 0.26551 0.0
C261 C 0.66386 0.43224 0.22579 0.0
C262 C 0.70961 0.43526 0.20996 0.0
C263 C 0.74862 0.43015 0.23412 0.0
C264 C 0.74316 0.42252 0.273 0.0
C265 C 0.79062 0.41567 0.29137 0.0
C266 C 0.80231 0.43339 0.326 0.0
C267 C 0.79155 0.38782 0.30447 0.0
C268 C 0.8235 0.42019 0.25658 0.0
C269 C 0.79867 0.42899 0.22408 0.0
C270 C 0.82116 0.43388 0.18815 0.0
C271 C 0.87017 0.42933 0.18517 0.0
C272 C 0.89611 0.4196 0.21774 0.0
C273 C 0.87236 0.41529 0.254 0.0
H274 H 0.228 0.91922 0.82526 0.0
H275 H 0.16971 0.94534 0.71382 0.0
H276 H 0.25095 0.95157 0.68786 0.0
H277 H 0.33797 0.95911 0.82579 0.0
H278 H 0.37356 0.93374 0.84563 0.0
H279 H 0.31143 0.93605 0.85817 0.0
H280 H 0.29844 0.89038 0.83307 0.0
H281 H 0.36029 0.88798 0.82027 0.0
H282 H 0.31554 0.8823 0.78323 0.0
H283 H 0.33729 0.95058 0.67151 0.0
H284 H 0.42221 0.94019 0.66424 0.0
H285 H 0.42505 0.91224 0.78502 0.0
C286 C 0.23251 0.92712 0.79594 0.0
C287 C 0.19278 0.93233 0.77173 0.0
C288 C 0.19981 0.94158 0.73291 0.0
C289 C 0.24579 0.94524 0.71801 0.0
C290 C 0.28435 0.93928 0.74218 0.0
C291 C 0.27826 0.93034 0.7803 0.0
C292 C 0.32534 0.92227 0.79821 0.0
C293 C 0.3378 0.93878 0.83408 0.0
C294 C 0.32485 0.89406 0.80933 0.0
C295 C 0.35858 0.92735 0.76382 0.0
C296 C 0.33431 0.93767 0.73213 0.0
C297 C 0.35678 0.94278 0.69629 0.0
C298 C 0.4051 0.93677 0.69244 0.0
C299 C 0.43041 0.92543 0.72407 0.0
C300 C 0.40686 0.92112 0.76043 0.0
H301 H 0.71376 0.61229 0.7824 0.0
H302 H 0.71642 0.58739 0.6601 0.0
H303 H 0.80242 0.57881 0.66568 0.0
H304 H 0.82144 0.64428 0.78149 0.0
H305 H 0.83932 0.63518 0.83069 0.0
H306 H 0.77726 0.63692 0.81835 0.0
H307 H 0.76619 0.59047 0.84064 0.0
H308 H 0.82836 0.5886 0.85313 0.0
H309 H 0.80295 0.56611 0.81927 0.0
H310 H 0.88959 0.57838 0.68185 0.0
H311 H 0.97063 0.58374 0.70883 0.0
H312 H 0.91085 0.60631 0.82168 0.0
C313 C 0.73224 0.60459 0.757 0.0
C314 C 0.70833 0.60051 0.7208 0.0
C315 C 0.7339 0.59056 0.6882 0.0
C316 C 0.78279 0.58562 0.69107 0.0
C317 C 0.80548 0.59032 0.72695 0.0
C318 C 0.78094 0.59926 0.75951 0.0
C319 C 0.8141 0.60381 0.79407 0.0
C320 C 0.81296 0.6317 0.80687 0.0
C321 C 0.80218 0.58619 0.82883 0.0
C322 C 0.86133 0.59686 0.77546 0.0
C323 C 0.8556 0.58906 0.73673 0.0
C324 C 0.89445 0.58388 0.7124 0.0
C325 C 0.94031 0.58702 0.72791 0.0
C326 C 0.94691 0.59498 0.76748 0.0
C327 C 0.90683 0.5995 0.79167 0.0
H328 H 0.69105 0.91211 0.76548 0.0
H329 H 0.71888 0.94188 0.64809 0.0
H330 H 0.80169 0.95081 0.66731 0.0
H331 H 0.7706 0.95554 0.82073 0.0
H332 H 0.78942 0.93097 0.85422 0.0
H333 H 0.73065 0.93018 0.8331 0.0
H334 H 0.74704 0.88522 0.80603 0.0
H335 H 0.80574 0.88589 0.82695 0.0
H336 H 0.79809 0.87989 0.77486 0.0
H337 H 0.88321 0.95265 0.6969 0.0
H338 H 0.95773 0.94612 0.73403 0.0
H339 H 0.87729 0.91458 0.83188 0.0
C340 C 0.71423 0.92111 0.74415 0.0
C341 C 0.69838 0.92648 0.70537 0.0
C342 C 0.73018 0.93765 0.678 0.0
C343 C 0.77726 0.9429 0.68869 0.0
C344 C 0.79207 0.93687 0.72688 0.0
C345 C 0.76151 0.92625 0.75423 0.0
C346 C 0.78744 0.91946 0.79207 0.0
C347 C 0.76839 0.93497 0.8271 0.0
C348 C 0.7844 0.89093 0.80044 0.0
C349 C 0.83755 0.92727 0.78129 0.0
C350 C 0.83935 0.93761 0.74379 0.0
C351 C 0.88217 0.94488 0.72651 0.0
C352 C 0.92435 0.94107 0.74784 0.0
C353 C 0.92349 0.92992 0.78596 0.0
C354 C 0.87925 0.92341 0.80302 0.0
H355 H 0.39241 0.59687 0.68788 0.0
H356 H 0.47687 0.59152 0.79502 0.0
H357 H 0.40373 0.58456 0.8339 0.0
H358 H 0.30148 0.63229 0.72815 0.0
H359 H 0.25423 0.61757 0.70066 0.0
H360 H 0.31337 0.61821 0.6806 0.0
H361 H 0.3125 0.56948 0.67377 0.0
H362 H 0.25317 0.56868 0.69384 0.0
H363 H 0.29973 0.55024 0.71648 0.0
H364 H 0.32137 0.58353 0.86193 0.0
H365 H 0.23626 0.58909 0.87718 0.0
H366 H 0.20517 0.5949 0.75178 0.0
C367 C 0.39576 0.5936 0.71939 0.0
C368 C 0.44053 0.5946 0.73835 0.0
C369 C 0.44308 0.59073 0.77977 0.0
C370 C 0.40171 0.58668 0.80209 0.0
C371 C 0.35808 0.58639 0.78255 0.0
C372 C 0.35486 0.58963 0.74208 0.0
C373 C 0.30351 0.59085 0.7287 0.0
C374 C 0.29253 0.61624 0.70835 0.0
C375 C 0.29153 0.56848 0.70159 0.0
C376 C 0.27827 0.58865 0.76813 0.0
C377 C 0.3104 0.58575 0.79876 0.0
C378 C 0.29586 0.58536 0.83815 0.0
C379 C 0.24742 0.58858 0.84652 0.0
C380 C 0.214 0.59221 0.81566 0.0
C381 C 0.22967 0.5916 0.77595 0.0
H382 H 0.70055 0.10154 0.25055 0.0
H383 H 0.73483 0.09801 0.37561 0.0
H384 H 0.81975 0.09318 0.35912 0.0
H385 H 0.79362 0.05694 0.21587 0.0
H386 H 0.80532 0.07522 0.17194 0.0
H387 H 0.74666 0.07517 0.19337 0.0
H388 H 0.74854 0.12401 0.19776 0.0
H389 H 0.80713 0.1242 0.1765 0.0
H390 H 0.79666 0.13916 0.2236 0.0
H391 H 0.90153 0.0928 0.32948 0.0
H392 H 0.97388 0.09749 0.2888 0.0
H393 H 0.88665 0.10162 0.18305 0.0
C394 C 0.72578 0.09911 0.27443 0.0
C395 C 0.71094 0.09998 0.31438 0.0
C396 C 0.74529 0.09736 0.34478 0.0
C397 C 0.79364 0.09451 0.33572 0.0
C398 C 0.80723 0.0943 0.29609 0.0
C399 C 0.77431 0.09646 0.2659 0.0
C400 C 0.79862 0.09776 0.22593 0.0
C401 C 0.78526 0.07491 0.20027 0.0
C402 C 0.78705 0.12277 0.20472 0.0
C403 C 0.85029 0.09659 0.23844 0.0
C404 C 0.8545 0.09431 0.27899 0.0
C405 C 0.89869 0.09426 0.29763 0.0
C406 C 0.93963 0.09697 0.27426 0.0
C407 C 0.93614 0.09981 0.23267 0.0
C408 C 0.89074 0.09919 0.21468 0.0
H409 H 0.21296 0.42355 0.18434 0.0
H410 H 0.12778 0.43148 0.29075 0.0
H411 H 0.20071 0.43906 0.32953 0.0
H412 H 0.30355 0.38881 0.22724 0.0
H413 H 0.35102 0.40281 0.19901 0.0
H414 H 0.292 0.40173 0.17881 0.0
H415 H 0.29314 0.45026 0.16893 0.0
H416 H 0.35233 0.45149 0.18917 0.0
H417 H 0.30567 0.47051 0.21045 0.0
H418 H 0.28292 0.44083 0.35779 0.0
H419 H 0.36792 0.43567 0.3737 0.0
H420 H 0.39984 0.4267 0.24888 0.0
C421 C 0.20942 0.42749 0.21564 0.0
C422 C 0.16449 0.42708 0.23444 0.0
C423 C 0.1617 0.4318 0.27563 0.0
C424 C 0.20295 0.43623 0.29788 0.0
C425 C 0.24672 0.43599 0.27852 0.0
C426 C 0.25021 0.43182 0.23828 0.0
C427 C 0.30166 0.43023 0.22519 0.0
C428 C 0.31268 0.40436 0.20648 0.0
C429 C 0.31391 0.45192 0.19675 0.0
C430 C 0.32664 0.43336 0.26455 0.0
C431 C 0.2943 0.437 0.29486 0.0
C432 C 0.30859 0.43841 0.33424 0.0
C433 C 0.35698 0.43541 0.34298 0.0
C434 C 0.39061 0.431 0.31251 0.0
C435 C 0.37519 0.43061 0.27273 0.0
H436 H 0.98474 0.05041 0.05463 0.0
H437 H 0.13528 0.06649 0.06311 0.0
H438 H 0.15301 0.02897 0.02173 0.0
H439 H 0.99799 0.98295 0.0639 0.0
H440 H 0.94976 0.97599 0.03063 0.0
H441 H 0.94904 1.00476 0.059 0.0
H442 H 0.94014 0.0309 0.99454 0.0
H443 H 0.94051 1.00221 0.96601 0.0
H444 H 0.98278 0.02678 0.95523 0.0
H445 H 0.15318 0.99086 0.97589 0.0
H446 H 0.1364 0.95323 0.93459 0.0
H447 H 0.98672 0.95968 0.96311 0.0
C448 C 1.02138 0.04614 0.04739 0.0
C449 C 0.05869 0.06147 0.06136 0.0
C450 C 0.10628 0.055 0.05231 0.0
C451 C 0.11662 0.03377 0.02889 0.0
C452 C 0.07897 0.01892 0.01568 0.0
C453 C 0.03236 0.02464 0.02511 0.0
C454 C 0.99855 1.00502 0.00894 0.0
C455 C 0.9723 0.99137 0.04263 0.0
C456 C 0.96344 0.01694 0.97942 0.0
C457 C 0.03327 0.98755 0.98835 0.0
C458 C 0.07946 0.99602 0.99212 0.0
C459 C 0.11726 0.98382 0.97334 0.0
C460 C 0.10747 0.96251 0.95 0.0
C461 C 0.0605 0.95334 0.94647 0.0
C462 C 0.02314 0.96591 0.96623 0.0
H463 H 0.11878 0.56667 0.97378 0.0
H464 H 0.97094 0.57422 0.94015 0.0
H465 H 0.95114 0.53656 0.98072 0.0
H466 H 0.1215 0.50031 0.96407 0.0
H467 H 0.16244 0.49527 0.00433 0.0
H468 H 0.16367 0.52448 0.97707 0.0
H469 H 0.15207 0.5497 0.04207 0.0
H470 H 0.15129 0.52057 0.06961 0.0
H471 H 0.10244 0.54249 0.07384 0.0
H472 H 0.94843 0.49786 0.02599 0.0
H473 H 0.96393 0.45949 0.0663 0.0
H474 H 0.11496 0.47494 0.06227 0.0
C475 C 0.08205 0.56075 0.97583 0.0
C476 C 0.04606 0.57361 0.95487 0.0
C477 C 0.99874 0.56476 0.95669 0.0
C478 C 0.98728 0.54343 0.97957 0.0
C479 C 0.02383 0.53089 0.99951 0.0
C480 C 0.07037 0.53909 0.99736 0.0
C481 C 0.10382 0.52109 0.01829 0.0
C482 C 0.13997 0.50961 0.98919 0.0
C483 C 0.12887 0.53425 0.05302 0.0
C484 C 0.06894 0.50147 0.03273 0.0
C485 C 0.02284 0.50764 0.02231 0.0
C486 C 0.98444 0.49274 0.03392 0.0
C487 C 0.9935 0.47103 0.05672 0.0
C488 C 0.04063 0.46414 0.06663 0.0
C489 C 0.07867 0.47953 0.05431 0.0
H490 H 0.48473 0.45815 0.47227 0.0
H491 H 0.63261 0.45048 0.43864 0.0
H492 H 0.65256 0.4879 0.47961 0.0
H493 H 0.48252 0.52483 0.46387 0.0
H494 H 0.44153 0.52944 0.50423 0.0
H495 H 0.44015 0.50059 0.47614 0.0
H496 H 0.45137 0.47454 0.54045 0.0
H497 H 0.45235 0.50331 0.5688 0.0
H498 H 0.501 0.48122 0.57242 0.0
H499 H 0.65547 0.52612 0.5259 0.0
H500 H 0.64021 0.56385 0.56764 0.0
H501 H 0.48907 0.54877 0.56309 0.0
C502 C 0.52148 0.46403 0.47428 0.0
C503 C 0.55743 0.45118 0.45325 0.0
C504 C 0.6048 0.45994 0.45516 0.0
C505 C 0.61636 0.48113 0.47829 0.0
C506 C 0.57985 0.49362 0.49837 0.0
C507 C 0.53326 0.48553 0.49608 0.0
C508 C 0.49991 0.50332 0.51749 0.0
C509 C 0.46392 0.51525 0.4887 0.0
C510 C 0.47469 0.48979 0.55183 0.0
C511 C 0.53492 0.52268 0.53248 0.0
C512 C 0.58098 0.51658 0.52182 0.0
C513 C 0.61949 0.5312 0.53398 0.0
C514 C 0.61056 0.55255 0.5576 0.0
C515 C 0.56347 0.55936 0.56783 0.0
C516 C 0.52533 0.54426 0.55491 0.0
H517 H 0.5544 0.98704 0.59318 0.0
H518 H 0.52723 0.93026 0.50395 0.0
H519 H 0.51275 0.96392 0.45438 0.0
H520 H 0.47214 0.03682 0.55639 0.0
H521 H 0.5137 0.06177 0.56685 0.0
H522 H 0.51347 0.03359 0.59682 0.0
H523 H 0.6029 0.02674 0.58195 0.0
H524 H 0.6034 0.05483 0.55203 0.0
H525 H 0.62268 0.02518 0.53126 0.0
H526 H 0.50602 1.00336 0.41401 0.0
H527 H 0.51748 0.04505 0.38317 0.0
H528 H 0.55688 0.07628 0.49721 0.0
C529 C 0.54402 0.98184 0.56343 0.0
C530 C 0.54067 0.95623 0.55232 0.0
C531 C 0.52914 0.94987 0.5129 0.0
C532 C 0.5207 0.96883 0.48473 0.0
C533 C 0.52489 0.994 0.49639 0.0
C534 C 0.5369 1.00054 0.53468 0.0
C535 C 0.54543 0.02872 0.53823 0.0
C536 C 0.509 0.04095 0.56624 0.0
C537 C 0.59664 0.03418 0.55164 0.0
C538 C 0.53729 0.03693 0.4958 0.0
C539 C 0.52422 0.01669 0.47244 0.0
C540 C 0.51601 0.01936 0.43204 0.0
C541 C 0.52253 0.04318 0.41481 0.0
C542 C 0.53812 0.06396 0.43776 0.0
C543 C 0.54472 0.06081 0.47893 0.0
loop_
_geom_bond_atom_site_label_1
_geom_bond_atom_site_label_2
_geom_bond_distance
_geom_bond_site_symmetry_2
_ccdc_geom_bond_type
O0 Cd1 2.223 . S
O0 C8 1.315 . S
Cd1 O0 2.223 . S
Cd1 O4 2.297 . S
Cd1 O5 2.439 1_655 S
Cd1 O11 2.240 1_655 S
Cd2 O3 2.240 1_455 S
Cd2 O10 2.223 . S
Cd2 O12 2.297 . S
Cd2 O13 2.439 . S
O3 Cd2 2.240 1_655 S
O3 C8 1.279 . S
O4 Cd1 2.297 . S
O4 C6 1.242 1_655 S
O5 Cd1 2.439 1_455 S
O5 C6 1.213 . S
C6 O4 1.242 1_455 S
C6 O5 1.213 . S
C7 O12 1.247 . S
C7 O13 1.208 . S
C8 O0 1.315 . S
C8 O3 1.279 . S
C9 O10 1.315 . S
C9 O11 1.279 . S
O10 Cd2 2.223 . S
O10 C9 1.315 . S
O11 Cd1 2.240 1_455 S
O11 C9 1.279 . S
O12 Cd2 2.297 . S
O12 C7 1.247 . S
O13 Cd2 2.439 . S
O13 C7 1.208 . S
O14 Cd15 2.223 . S
O14 C22 1.315 . S
Cd15 O14 2.223 . S
Cd15 O18 2.297 . S
Cd15 O19 2.439 . S
Cd15 O25 2.240 . S
Cd16 O17 2.240 . S
Cd16 O24 2.223 . S
Cd16 O26 2.297 1_455 S
Cd16 O27 2.439 1_455 S
O17 Cd16 2.240 . S
O17 C22 1.279 . S
O18 Cd15 2.297 . S
O18 C20 1.247 . S
O19 Cd15 2.439 . S
O19 C20 1.208 . S
C20 O18 1.247 . S
C20 O19 1.208 . S
C21 O26 1.247 . S
C21 O27 1.208 . S
C22 O14 1.315 . S
C22 O17 1.279 . S
C23 O24 1.315 . S
C23 O25 1.279 . S
O24 Cd16 2.223 . S
O24 C23 1.315 . S
O25 Cd15 2.240 . S
O25 C23 1.279 . S
O26 Cd16 2.297 1_655 S
O26 C21 1.247 . S
O27 Cd16 2.439 1_655 S
O27 C21 1.208 . S
O28 Cd29 2.223 . S
O28 C36 1.315 . S
Cd29 O28 2.223 . S
Cd29 O32 2.297 . S
Cd29 O33 2.439 1_655 S
Cd29 O39 2.240 1_655 S
Cd30 O31 2.240 1_455 S
Cd30 O38 2.223 . S
Cd30 O40 2.297 . S
Cd30 O41 2.439 . S
O31 Cd30 2.240 1_655 S
O31 C36 1.279 . S
O32 Cd29 2.297 . S
O32 C34 1.242 1_655 S
O33 Cd29 2.439 1_455 S
O33 C34 1.213 . S
C34 O32 1.242 1_455 S
C34 O33 1.213 . S
C35 O40 1.247 . S
C35 O41 1.208 . S
C36 O28 1.315 . S
C36 O31 1.279 . S
C37 O38 1.315 . S
C37 O39 1.279 . S
O38 Cd30 2.223 . S
O38 C37 1.315 . S
O39 Cd29 2.240 1_455 S
O39 C37 1.279 . S
O40 Cd30 2.297 . S
O40 C35 1.247 . S
O41 Cd30 2.439 . S
O41 C35 1.208 . S
O42 Cd43 2.223 . S
O42 C50 1.315 . S
Cd43 O42 2.223 . S
Cd43 O46 2.297 . S
Cd43 O47 2.439 . S
Cd43 O53 2.240 . S
Cd44 O45 2.240 . S
Cd44 O52 2.223 . S
Cd44 O54 2.297 1_455 S
Cd44 O55 2.439 1_455 S
O45 Cd44 2.240 . S
O45 C50 1.279 . S
O46 Cd43 2.297 . S
O46 C48 1.247 . S
O47 Cd43 2.439 . S
O47 C48 1.208 . S
C48 O46 1.247 . S
C48 O47 1.208 . S
C49 O54 1.247 . S
C49 O55 1.208 . S
C50 O42 1.315 . S
C50 O45 1.279 . S
C51 O52 1.315 . S
C51 O53 1.279 . S
O52 Cd44 2.223 . S
O52 C51 1.315 . S
O53 Cd43 2.240 . S
O53 C51 1.279 . S
O54 Cd44 2.297 1_655 S
O54 C49 1.247 . S
O55 Cd44 2.439 1_655 S
O55 C49 1.208 . S
O56 Cd57 2.223 . S
O56 C64 1.315 . S
Cd57 O56 2.223 . S
Cd57 O60 2.297 . S
Cd57 O61 2.439 . S
Cd57 O67 2.240 . S
Cd58 O59 2.240 . S
Cd58 O66 2.223 . S
Cd58 O68 2.297 . S
Cd58 O69 2.439 . S
O59 Cd58 2.240 . S
O59 C64 1.279 . S
O60 Cd57 2.297 . S
O60 C62 1.247 . S
O61 Cd57 2.439 . S
O61 C62 1.208 . S
C62 O60 1.247 . S
C62 O61 1.208 . S
C63 O68 1.247 . S
C63 O69 1.208 . S
C64 O56 1.315 . S
C64 O59 1.279 . S
C65 O66 1.315 . S
C65 O67 1.279 . S
O66 Cd58 2.223 . S
O66 C65 1.315 . S
O67 Cd57 2.240 . S
O67 C65 1.279 . S
O68 Cd58 2.297 . S
O68 C63 1.247 . S
O69 Cd58 2.439 . S
O69 C63 1.208 . S
O70 Cd71 2.223 . S
O70 C78 1.315 . S
Cd71 O70 2.223 . S
Cd71 O74 2.297 . S
Cd71 O75 2.439 . S
Cd71 O81 2.240 . S
Cd72 O73 2.240 . S
Cd72 O80 2.223 . S
Cd72 O82 2.297 . S
Cd72 O83 2.439 . S
O73 Cd72 2.240 . S
O73 C78 1.279 . S
O74 Cd71 2.297 . S
O74 C76 1.247 . S
O75 Cd71 2.439 . S
O75 C76 1.208 . S
C76 O74 1.247 . S
C76 O75 1.208 . S
C77 O82 1.247 . S
C77 O83 1.208 . S
C78 O70 1.315 . S
C78 O73 1.279 . S
C79 O80 1.315 . S
C79 O81 1.279 . S
O80 Cd72 2.223 . S
O80 C79 1.315 . S
O81 Cd71 2.240 . S
O81 C79 1.279 . S
O82 Cd72 2.297 . S
O82 C77 1.247 . S
O83 Cd72 2.439 . S
O83 C77 1.208 . S
O84 Cd85 2.223 . S
O84 C92 1.315 . S
Cd85 O84 2.223 . S
Cd85 O88 2.297 . S
Cd85 O89 2.439 . S
Cd85 O95 2.240 . S
Cd86 O87 2.240 . S
Cd86 O94 2.223 . S
Cd86 O96 2.297 . S
Cd86 O97 2.439 . S
O87 Cd86 2.240 . S
O87 C92 1.279 . S
O88 Cd85 2.297 . S
O88 C90 1.247 . S
O89 Cd85 2.439 . S
O89 C90 1.208 . S
C90 O88 1.247 . S
C90 O89 1.208 . S
C91 O96 1.247 . S
C91 O97 1.208 . S
C92 O84 1.315 . S
C92 O87 1.279 . S
C93 O94 1.315 . S
C93 O95 1.279 . S
O94 Cd86 2.223 . S
O94 C93 1.315 . S
O95 Cd85 2.240 . S
O95 C93 1.279 . S
O96 Cd86 2.297 . S
O96 C91 1.247 . S
O97 Cd86 2.439 . S
O97 C91 1.208 . S
O98 Cd99 2.223 . S
O98 C106 1.315 . S
Cd99 O98 2.223 . S
Cd99 O102 2.297 . S
Cd99 O103 2.439 . S
Cd99 O109 2.240 . S
Cd100 O101 2.240 . S
Cd100 O108 2.223 . S
Cd100 O110 2.297 . S
Cd100 O111 2.439 . S
O101 Cd100 2.240 . S
O101 C106 1.279 . S
O102 Cd99 2.297 . S
O102 C104 1.247 . S
O103 Cd99 2.439 . S
O103 C104 1.208 . S
C104 O102 1.247 . S
C104 O103 1.208 . S
C105 O110 1.247 . S
C105 O111 1.208 . S
C106 O98 1.315 . S
C106 O101 1.279 . S
C107 O108 1.315 . S
C107 O109 1.279 . S
O108 Cd100 2.223 . S
O108 C107 1.315 . S
O109 Cd99 2.240 . S
O109 C107 1.279 . S
O110 Cd100 2.297 . S
O110 C105 1.247 . S
O111 Cd100 2.439 . S
O111 C105 1.208 . S
H112 C124 0.930 . S
H113 C126 0.930 . S
H114 C127 0.930 . S
H115 C131 0.959 . S
H116 C131 0.959 . S
H117 C131 0.961 . S
H118 C132 0.960 . S
H119 C132 0.961 . S
H120 C132 0.959 1_655 S
H121 C135 0.929 1_655 S
H122 C136 0.925 1_655 S
H123 C138 0.930 . S
C124 H112 0.930 . S
C124 C125 1.399 . S
C124 C129 1.399 . S
C125 C124 1.399 . S
C125 C126 1.376 . S
C126 H113 0.930 . S
C126 C125 1.376 . S
C126 C127 1.388 . S
C127 H114 0.930 . S
C127 C126 1.388 . S
C127 C128 1.390 . S
C128 C127 1.390 . S
C128 C129 1.394 . S
C128 C134 1.465 . S
C129 C124 1.399 . S
C129 C128 1.394 . S
C129 C130 1.516 . S
C130 C129 1.516 . S
C130 C131 1.502 . S
C130 C132 1.561 . S
C130 C133 1.526 . S
C131 H115 0.959 . S
C131 H116 0.959 . S
C131 H117 0.961 . S
C131 C130 1.502 . S
C132 H118 0.960 . S
C132 H119 0.961 . S
C132 H120 0.959 1_455 S
C132 C130 1.561 . S
C133 C130 1.526 . S
C133 C134 1.396 . S
C133 C138 1.390 . S
C134 C128 1.465 . S
C134 C133 1.396 . S
C134 C135 1.399 . S
C135 H121 0.929 1_455 S
C135 C134 1.399 . S
C135 C136 1.385 . S
C136 H122 0.925 1_455 S
C136 C135 1.385 . S
C136 C137 1.395 . S
C137 C136 1.395 . S
C137 C138 1.387 . S
C138 H123 0.930 . S
C138 C133 1.390 . S
C138 C137 1.387 . S
H139 C151 0.930 . S
H140 C153 0.930 . S
H141 C154 0.930 . S
H142 C158 0.959 . S
H143 C158 0.959 . S
H144 C158 0.961 . S
H145 C159 0.960 . S
H146 C159 0.961 . S
H147 C159 0.959 . S
H148 C162 0.929 . S
H149 C163 0.931 . S
H150 C165 0.930 . S
C151 H139 0.930 . S
C151 C152 1.399 . S
C151 C156 1.399 . S
C152 C151 1.399 . S
C152 C153 1.376 . S
C153 H140 0.930 . S
C153 C152 1.376 . S
C153 C154 1.388 . S
C154 H141 0.930 . S
C154 C153 1.388 . S
C154 C155 1.390 . S
C155 C154 1.390 . S
C155 C156 1.394 . S
C155 C161 1.465 . S
C156 C151 1.399 . S
C156 C155 1.394 . S
C156 C157 1.516 . S
C157 C156 1.516 . S
C157 C158 1.502 . S
C157 C159 1.561 1_455 S
C157 C160 1.526 . S
C158 H142 0.959 . S
C158 H143 0.959 . S
C158 H144 0.961 . S
C158 C157 1.502 . S
C159 H145 0.960 . S
C159 H146 0.961 . S
C159 H147 0.959 . S
C159 C157 1.561 1_655 S
C160 C157 1.526 . S
C160 C161 1.396 . S
C160 C165 1.390 . S
C161 C155 1.465 . S
C161 C160 1.396 . S
C161 C162 1.399 . S
C162 H148 0.929 . S
C162 C161 1.399 . S
C162 C163 1.385 . S
C163 H149 0.931 . S
C163 C162 1.385 . S
C163 C164 1.389 . S
C164 C163 1.389 . S
C164 C165 1.387 . S
C165 H150 0.930 . S
C165 C160 1.390 . S
C165 C164 1.387 . S
H166 C178 0.930 . S
H167 C180 0.930 . S
H168 C181 0.930 . S
H169 C185 0.959 . S
H170 C185 0.959 . S
H171 C185 0.961 . S
H172 C186 0.960 . S
H173 C186 0.961 . S
H174 C186 0.959 . S
H175 C189 0.929 . S
H176 C190 0.931 . S
H177 C192 0.930 . S
C178 H166 0.930 . S
C178 C179 1.399 . S
C178 C183 1.399 . S
C179 C178 1.399 . S
C179 C180 1.376 . S
C180 H167 0.930 . S
C180 C179 1.376 . S
C180 C181 1.388 . S
C181 H168 0.930 . S
C181 C180 1.388 . S
C181 C182 1.390 . S
C182 C181 1.390 . S
C182 C183 1.394 . S
C182 C188 1.465 . S
C183 C178 1.399 . S
C183 C182 1.394 . S
C183 C184 1.516 . S
C184 C183 1.516 . S
C184 C185 1.502 . S
C184 C186 1.561 . S
C184 C187 1.526 . S
C185 H169 0.959 . S
C185 H170 0.959 . S
C185 H171 0.961 . S
C185 C184 1.502 . S
C186 H172 0.960 . S
C186 H173 0.961 . S
C186 H174 0.959 . S
C186 C184 1.561 . S
C187 C184 1.526 . S
C187 C188 1.396 . S
C187 C192 1.390 . S
C188 C182 1.465 . S
C188 C187 1.396 . S
C188 C189 1.399 . S
C189 H175 0.929 . S
C189 C188 1.399 . S
C189 C190 1.385 . S
C190 H176 0.931 . S
C190 C189 1.385 . S
C190 C191 1.389 . S
C191 C190 1.389 . S
C191 C192 1.387 . S
C192 H177 0.930 . S
C192 C187 1.390 . S
C192 C191 1.387 . S
H193 C205 0.930 . S
H194 C207 0.930 . S
H195 C208 0.930 . S
H196 C212 0.959 . S
H197 C212 0.959 . S
H198 C212 0.961 . S
H199 C213 0.960 . S
H200 C213 0.961 . S
H201 C213 0.959 . S
H202 C216 0.929 . S
H203 C217 0.931 . S
H204 C219 0.930 . S
C205 H193 0.930 . S
C205 C206 1.399 . S
C205 C210 1.399 . S
C206 C205 1.399 . S
C206 C207 1.376 . S
C207 H194 0.930 . S
C207 C206 1.376 . S
C207 C208 1.388 . S
C208 H195 0.930 . S
C208 C207 1.388 . S
C208 C209 1.390 . S
C209 C208 1.390 . S
C209 C210 1.394 . S
C209 C215 1.465 . S
C210 C205 1.399 . S
C210 C209 1.394 . S
C210 C211 1.516 . S
C211 C210 1.516 . S
C211 C212 1.502 . S
C211 C213 1.561 . S
C211 C214 1.526 . S
C212 H196 0.959 . S
C212 H197 0.959 . S
C212 H198 0.961 . S
C212 C211 1.502 . S
C213 H199 0.960 . S
C213 H200 0.961 . S
C213 H201 0.959 . S
C213 C211 1.561 . S
C214 C211 1.526 . S
C214 C215 1.396 . S
C214 C219 1.390 . S
C215 C209 1.465 . S
C215 C214 1.396 . S
C215 C216 1.399 . S
C216 H202 0.929 . S
C216 C215 1.399 . S
C216 C217 1.385 . S
C217 H203 0.931 . S
C217 C216 1.385 . S
C217 C218 1.389 . S
C218 C217 1.389 . S
C218 C219 1.387 . S
C219 H204 0.930 . S
C219 C214 1.390 . S
C219 C218 1.387 . S
H220 C232 0.930 . S
H221 C234 0.930 . S
H222 C235 0.930 . S
H223 C239 0.959 . S
H224 C239 0.959 . S
H225 C239 0.961 . S
H226 C240 0.960 . S
H227 C240 0.961 . S
H228 C240 0.959 . S
H229 C243 0.929 . S
H230 C244 0.931 . S
H231 C246 0.930 . S
C232 H220 0.930 . S
C232 C233 1.399 . S
C232 C237 1.399 . S
C233 C232 1.399 . S
C233 C234 1.376 . S
C234 H221 0.930 . S
C234 C233 1.376 . S
C234 C235 1.388 . S
C235 H222 0.930 . S
C235 C234 1.388 . S
C235 C236 1.390 . S
C236 C235 1.390 . S
C236 C237 1.394 . S
C236 C242 1.465 . S
C237 C232 1.399 . S
C237 C236 1.394 . S
C237 C238 1.516 . S
C238 C237 1.516 . S
C238 C239 1.502 . S
C238 C240 1.561 . S
C238 C241 1.526 . S
C239 H223 0.959 . S
C239 H224 0.959 . S
C239 H225 0.961 . S
C239 C238 1.502 . S
C240 H226 0.960 . S
C240 H227 0.961 . S
C240 H228 0.959 . S
C240 C238 1.561 . S
C241 C238 1.526 . S
C241 C242 1.396 . S
C241 C246 1.390 . S
C242 C236 1.465 . S
C242 C241 1.396 . S
C242 C243 1.399 . S
C243 H229 0.929 . S
C243 C242 1.399 . S
C243 C244 1.385 . S
C244 H230 0.931 . S
C244 C243 1.385 . S
C244 C245 1.389 . S
C245 C244 1.389 . S
C245 C246 1.387 . S
C246 H231 0.930 . S
C246 C241 1.390 . S
C246 C245 1.387 . S
H247 C259 0.930 . S
H248 C261 0.930 . S
H249 C262 0.930 . S
H250 C266 0.959 . S
H251 C266 0.959 . S
H252 C266 0.961 . S
H253 C267 0.960 . S
H254 C267 0.961 . S
H255 C267 0.959 . S
H256 C270 0.929 . S
H257 C271 0.931 . S
H258 C273 0.930 . S
C259 H247 0.930 . S
C259 C260 1.399 . S
C259 C264 1.399 . S
C260 C259 1.399 . S
C260 C261 1.376 . S
C261 H248 0.930 . S
C261 C260 1.376 . S
C261 C262 1.388 . S
C262 H249 0.930 . S
C262 C261 1.388 . S
C262 C263 1.390 . S
C263 C262 1.390 . S
C263 C264 1.394 . S
C263 C269 1.465 . S
C264 C259 1.399 . S
C264 C263 1.394 . S
C264 C265 1.516 . S
C265 C264 1.516 . S
C265 C266 1.502 . S
C265 C267 1.561 . S
C265 C268 1.526 . S
C266 H250 0.959 . S
C266 H251 0.959 . S
C266 H252 0.961 . S
C266 C265 1.502 . S
C267 H253 0.960 . S
C267 H254 0.961 . S
C267 H255 0.959 . S
C267 C265 1.561 . S
C268 C265 1.526 . S
C268 C269 1.396 . S
C268 C273 1.390 . S
C269 C263 1.465 . S
C269 C268 1.396 . S
C269 C270 1.399 . S
C270 H256 0.929 . S
C270 C269 1.399 . S
C270 C271 1.385 . S
C271 H257 0.931 . S
C271 C270 1.385 . S
C271 C272 1.389 . S
C272 C271 1.389 . S
C272 C273 1.387 . S
C273 H258 0.930 . S
C273 C268 1.390 . S
C273 C272 1.387 . S
H274 C286 0.930 . S
H275 C288 0.930 . S
H276 C289 0.930 . S
H277 C293 0.959 . S
H278 C293 0.959 . S
H279 C293 0.961 . S
H280 C294 0.960 . S
H281 C294 0.961 . S
H282 C294 0.959 . S
H283 C297 0.929 . S
H284 C298 0.931 . S
H285 C300 0.930 . S
C286 H274 0.930 . S
C286 C287 1.399 . S
C286 C291 1.399 . S
C287 C286 1.399 . S
C287 C288 1.376 . S
C288 H275 0.930 . S
C288 C287 1.376 . S
C288 C289 1.388 . S
C289 H276 0.930 . S
C289 C288 1.388 . S
C289 C290 1.390 . S
C290 C289 1.390 . S
C290 C291 1.394 . S
C290 C296 1.465 . S
C291 C286 1.399 . S
C291 C290 1.394 . S
C291 C292 1.516 . S
C292 C291 1.516 . S
C292 C293 1.502 . S
C292 C294 1.561 . S
C292 C295 1.526 . S
C293 H277 0.959 . S
C293 H278 0.959 . S
C293 H279 0.961 . S
C293 C292 1.502 . S
C294 H280 0.960 . S
C294 H281 0.961 . S
C294 H282 0.959 . S
C294 C292 1.561 . S
C295 C292 1.526 . S
C295 C296 1.396 . S
C295 C300 1.390 . S
C296 C290 1.465 . S
C296 C295 1.396 . S
C296 C297 1.399 . S
C297 H283 0.929 . S
C297 C296 1.399 . S
C297 C298 1.385 . S
C298 H284 0.931 . S
C298 C297 1.385 . S
C298 C299 1.389 . S
C299 C298 1.389 . S
C299 C300 1.387 . S
C300 H285 0.930 . S
C300 C295 1.390 . S
C300 C299 1.387 . S
H301 C313 0.930 . S
H302 C315 0.930 . S
H303 C316 0.930 . S
H304 C320 0.959 . S
H305 C320 0.959 . S
H306 C320 0.961 . S
H307 C321 0.960 . S
H308 C321 0.961 . S
H309 C321 0.959 . S
H310 C324 0.929 . S
H311 C325 0.931 . S
H312 C327 0.930 . S
C313 H301 0.930 . S
C313 C314 1.399 . S
C313 C318 1.399 . S
C314 C313 1.399 . S
C314 C315 1.376 . S
C315 H302 0.930 . S
C315 C314 1.376 . S
C315 C316 1.388 . S
C316 H303 0.930 . S
C316 C315 1.388 . S
C316 C317 1.390 . S
C317 C316 1.390 . S
C317 C318 1.394 . S
C317 C323 1.465 . S
C318 C313 1.399 . S
C318 C317 1.394 . S
C318 C319 1.516 . S
C319 C318 1.516 . S
C319 C320 1.502 . S
C319 C321 1.561 . S
C319 C322 1.526 . S
C320 H304 0.959 . S
C320 H305 0.959 . S
C320 H306 0.961 . S
C320 C319 1.502 . S
C321 H307 0.960 . S
C321 H308 0.961 . S
C321 H309 0.959 . S
C321 C319 1.561 . S
C322 C319 1.526 . S
C322 C323 1.396 . S
C322 C327 1.390 . S
C323 C317 1.465 . S
C323 C322 1.396 . S
C323 C324 1.399 . S
C324 H310 0.929 . S
C324 C323 1.399 . S
C324 C325 1.385 . S
C325 H311 0.931 . S
C325 C324 1.385 . S
C325 C326 1.389 . S
C326 C325 1.389 . S
C326 C327 1.387 . S
C327 H312 0.930 . S
C327 C322 1.390 . S
C327 C326 1.387 . S
H328 C340 0.930 . S
H329 C342 0.930 . S
H330 C343 0.930 . S
H331 C347 0.959 . S
H332 C347 0.959 . S
H333 C347 0.961 . S
H334 C348 0.960 . S
H335 C348 0.961 . S
H336 C348 0.959 . S
H337 C351 0.929 . S
H338 C352 0.931 . S
H339 C354 0.930 . S
C340 H328 0.930 . S
C340 C341 1.399 . S
C340 C345 1.399 . S
C341 C340 1.399 . S
C341 C342 1.376 . S
C342 H329 0.930 . S
C342 C341 1.376 . S
C342 C343 1.388 . S
C343 H330 0.930 . S
C343 C342 1.388 . S
C343 C344 1.390 . S
C344 C343 1.390 . S
C344 C345 1.394 . S
C344 C350 1.465 . S
C345 C340 1.399 . S
C345 C344 1.394 . S
C345 C346 1.516 . S
C346 C345 1.516 . S
C346 C347 1.502 . S
C346 C348 1.561 . S
C346 C349 1.526 . S
C347 H331 0.959 . S
C347 H332 0.959 . S
C347 H333 0.961 . S
C347 C346 1.502 . S
C348 H334 0.960 . S
C348 H335 0.961 . S
C348 H336 0.959 . S
C348 C346 1.561 . S
C349 C346 1.526 . S
C349 C350 1.396 . S
C349 C354 1.390 . S
C350 C344 1.465 . S
C350 C349 1.396 . S
C350 C351 1.399 . S
C351 H337 0.929 . S
C351 C350 1.399 . S
C351 C352 1.385 . S
C352 H338 0.931 . S
C352 C351 1.385 . S
C352 C353 1.389 . S
C353 C352 1.389 . S
C353 C354 1.387 . S
C354 H339 0.930 . S
C354 C349 1.390 . S
C354 C353 1.387 . S
H355 C367 0.930 . S
H356 C369 0.930 . S
H357 C370 0.930 . S
H358 C374 0.959 . S
H359 C374 0.959 . S
H360 C374 0.961 . S
H361 C375 0.960 . S
H362 C375 0.961 . S
H363 C375 0.959 . S
H364 C378 0.929 . S
H365 C379 0.931 . S
H366 C381 0.930 . S
C367 H355 0.930 . S
C367 C368 1.399 . S
C367 C372 1.399 . S
C368 C367 1.399 . S
C368 C369 1.376 . S
C369 H356 0.930 . S
C369 C368 1.376 . S
C369 C370 1.388 . S
C370 H357 0.930 . S
C370 C369 1.388 . S
C370 C371 1.390 . S
C371 C370 1.390 . S
C371 C372 1.394 . S
C371 C377 1.465 . S
C372 C367 1.399 . S
C372 C371 1.394 . S
C372 C373 1.516 . S
C373 C372 1.516 . S
C373 C374 1.502 . S
C373 C375 1.561 . S
C373 C376 1.526 . S
C374 H358 0.959 . S
C374 H359 0.959 . S
C374 H360 0.961 . S
C374 C373 1.502 . S
C375 H361 0.960 . S
C375 H362 0.961 . S
C375 H363 0.959 . S
C375 C373 1.561 . S
C376 C373 1.526 . S
C376 C377 1.396 . S
C376 C381 1.390 . S
C377 C371 1.465 . S
C377 C376 1.396 . S
C377 C378 1.399 . S
C378 H364 0.929 . S
C378 C377 1.399 . S
C378 C379 1.385 . S
C379 H365 0.931 . S
C379 C378 1.385 . S
C379 C380 1.389 . S
C380 C379 1.389 . S
C380 C381 1.387 . S
C381 H366 0.930 . S
C381 C376 1.390 . S
C381 C380 1.387 . S
H382 C394 0.930 . S
H383 C396 0.930 . S
H384 C397 0.930 . S
H385 C401 0.959 . S
H386 C401 0.959 . S
H387 C401 0.961 . S
H388 C402 0.960 . S
H389 C402 0.961 . S
H390 C402 0.959 . S
H391 C405 0.929 . S
H392 C406 0.931 . S
H393 C408 0.930 . S
C394 H382 0.930 . S
C394 C395 1.399 . S
C394 C399 1.399 . S
C395 C394 1.399 . S
C395 C396 1.376 . S
C396 H383 0.930 . S
C396 C395 1.376 . S
C396 C397 1.388 . S
C397 H384 0.930 . S
C397 C396 1.388 . S
C397 C398 1.390 . S
C398 C397 1.390 . S
C398 C399 1.394 . S
C398 C404 1.465 . S
C399 C394 1.399 . S
C399 C398 1.394 . S
C399 C400 1.516 . S
C400 C399 1.516 . S
C400 C401 1.502 . S
C400 C402 1.561 . S
C400 C403 1.526 . S
C401 H385 0.959 . S
C401 H386 0.959 . S
C401 H387 0.961 . S
C401 C400 1.502 . S
C402 H388 0.960 . S
C402 H389 0.961 . S
C402 H390 0.959 . S
C402 C400 1.561 . S
C403 C400 1.526 . S
C403 C404 1.396 . S
C403 C408 1.390 . S
C404 C398 1.465 . S
C404 C403 1.396 . S
C404 C405 1.399 . S
C405 H391 0.929 . S
C405 C404 1.399 . S
C405 C406 1.385 . S
C406 H392 0.931 . S
C406 C405 1.385 . S
C406 C407 1.389 . S
C407 C406 1.389 . S
C407 C408 1.387 . S
C408 H393 0.930 . S
C408 C403 1.390 . S
C408 C407 1.387 . S
H409 C421 0.930 . S
H410 C423 0.930 . S
H411 C424 0.930 . S
H412 C428 0.959 . S
H413 C428 0.959 . S
H414 C428 0.961 . S
H415 C429 0.960 . S
H416 C429 0.961 . S
H417 C429 0.959 . S
H418 C432 0.929 . S
H419 C433 0.931 . S
H420 C435 0.930 . S
C421 H409 0.930 . S
C421 C422 1.399 . S
C421 C426 1.399 . S
C422 C421 1.399 . S
C422 C423 1.376 . S
C423 H410 0.930 . S
C423 C422 1.376 . S
C423 C424 1.388 . S
C424 H411 0.930 . S
C424 C423 1.388 . S
C424 C425 1.390 . S
C425 C424 1.390 . S
C425 C426 1.394 . S
C425 C431 1.465 . S
C426 C421 1.399 . S
C426 C425 1.394 . S
C426 C427 1.516 . S
C427 C426 1.516 . S
C427 C428 1.502 . S
C427 C429 1.561 . S
C427 C430 1.526 . S
C428 H412 0.959 . S
C428 H413 0.959 . S
C428 H414 0.961 . S
C428 C427 1.502 . S
C429 H415 0.960 . S
C429 H416 0.961 . S
C429 H417 0.959 . S
C429 C427 1.561 . S
C430 C427 1.526 . S
C430 C431 1.396 . S
C430 C435 1.390 . S
C431 C425 1.465 . S
C431 C430 1.396 . S
C431 C432 1.399 . S
C432 H418 0.929 . S
C432 C431 1.399 . S
C432 C433 1.385 . S
C433 H419 0.931 . S
C433 C432 1.385 . S
C433 C434 1.389 . S
C434 C433 1.389 . S
C434 C435 1.387 . S
C435 H420 0.930 . S
C435 C430 1.390 . S
C435 C434 1.387 . S
H436 C448 0.930 . S
H437 C450 0.930 . S
H438 C451 0.930 1_556 S
H439 C455 0.959 . S
H440 C455 0.959 . S
H441 C455 0.961 . S
H442 C456 0.957 1_455 S
H443 C456 0.956 1_455 S
H444 C456 0.976 . S
H445 C459 0.929 1_545 S
H446 C460 0.931 . S
H447 C462 0.930 . S
C448 H436 0.930 . S
C448 C449 1.399 1_455 S
C448 C453 1.399 . S
C449 C448 1.399 1_655 S
C449 C450 1.376 . S
C450 H437 0.930 . S
C450 C449 1.376 . S
C450 C451 1.388 . S
C451 H438 0.930 1_554 S
C451 C450 1.388 . S
C451 C452 1.390 . S
C452 C451 1.390 . S
C452 C453 1.394 1_655 S
C452 C458 1.465 1_544 S
C453 C448 1.399 . S
C453 C452 1.394 1_455 S
C453 C454 1.516 1_545 S
C454 C453 1.516 1_565 S
C454 C455 1.502 . S
C454 C456 1.553 1_455 S
C454 C457 1.526 1_554 S
C455 H439 0.959 . S
C455 H440 0.959 . S
C455 H441 0.961 . S
C455 C454 1.502 . S
C456 H442 0.957 1_655 S
C456 H443 0.956 1_655 S
C456 H444 0.976 . S
C456 C454 1.553 1_655 S
C457 C454 1.526 1_556 S
C457 C458 1.396 1_455 S
C457 C462 1.390 . S
C458 C452 1.465 1_566 S
C458 C457 1.396 1_655 S
C458 C459 1.399 . S
C459 H445 0.929 1_565 S
C459 C458 1.399 . S
C459 C460 1.385 . S
C460 H446 0.931 . S
C460 C459 1.385 . S
C460 C461 1.402 . S
C461 C460 1.402 . S
C461 C462 1.378 1_655 S
C462 H447 0.930 . S
C462 C457 1.390 . S
C462 C461 1.378 1_455 S
H463 C475 0.930 . S
H464 C477 0.930 . S
H465 C478 0.930 . S
H466 C482 0.959 . S
H467 C482 0.959 . S
H468 C482 0.961 . S
H469 C483 0.960 . S
H470 C483 0.961 . S
H471 C483 0.959 . S
H472 C486 0.929 1_556 S
H473 C487 0.931 . S
H474 C489 0.930 . S
C475 H463 0.930 . S
C475 C476 1.399 . S
C475 C480 1.399 . S
C476 C475 1.399 . S
C476 C477 1.376 . S
C477 H464 0.930 . S
C477 C476 1.376 . S
C477 C478 1.388 . S
C478 H465 0.930 . S
C478 C477 1.388 . S
C478 C479 1.390 . S
C479 C478 1.390 . S
C479 C480 1.394 . S
C479 C485 1.465 1_556 S
C480 C475 1.399 . S
C480 C479 1.394 . S
C480 C481 1.516 1_556 S
C481 C480 1.516 1_554 S
C481 C482 1.502 . S
C481 C483 1.561 . S
C481 C484 1.526 . S
C482 H466 0.959 . S
C482 H467 0.959 . S
C482 H468 0.961 . S
C482 C481 1.502 . S
C483 H469 0.960 . S
C483 H470 0.961 . S
C483 H471 0.959 . S
C483 C481 1.561 . S
C484 C481 1.526 . S
C484 C485 1.396 . S
C484 C489 1.390 . S
C485 C479 1.465 1_554 S
C485 C484 1.396 . S
C485 C486 1.399 . S
C486 H472 0.929 1_554 S
C486 C485 1.399 . S
C486 C487 1.385 . S
C487 H473 0.931 . S
C487 C486 1.385 . S
C487 C488 1.389 . S
C488 C487 1.389 . S
C488 C489 1.387 . S
C489 H474 0.930 . S
C489 C484 1.390 . S
C489 C488 1.387 . S
H490 C502 0.930 . S
H491 C504 0.930 . S
H492 C505 0.930 . S
H493 C509 0.959 . S
H494 C509 0.959 . S
H495 C509 0.961 . S
H496 C510 0.960 . S
H497 C510 0.961 . S
H498 C510 0.959 . S
H499 C513 0.929 . S
H500 C514 0.931 . S
H501 C516 0.930 . S
C502 H490 0.930 . S
C502 C503 1.399 . S
C502 C507 1.399 . S
C503 C502 1.399 . S
C503 C504 1.376 . S
C504 H491 0.930 . S
C504 C503 1.376 . S
C504 C505 1.388 . S
C505 H492 0.930 . S
C505 C504 1.388 . S
C505 C506 1.390 . S
C506 C505 1.390 . S
C506 C507 1.394 . S
C506 C512 1.465 . S
C507 C502 1.399 . S
C507 C506 1.394 . S
C507 C508 1.516 . S
C508 C507 1.516 . S
C508 C509 1.502 . S
C508 C510 1.561 . S
C508 C511 1.526 . S
C509 H493 0.959 . S
C509 H494 0.959 . S
C509 H495 0.961 . S
C509 C508 1.502 . S
C510 H496 0.960 . S
C510 H497 0.961 . S
C510 H498 0.959 . S
C510 C508 1.561 . S
C511 C508 1.526 . S
C511 C512 1.396 . S
C511 C516 1.390 . S
C512 C506 1.465 . S
C512 C511 1.396 . S
C512 C513 1.399 . S
C513 H499 0.929 . S
C513 C512 1.399 . S
C513 C514 1.385 . S
C514 H500 0.931 . S
C514 C513 1.385 . S
C514 C515 1.389 . S
C515 C514 1.389 . S
C515 C516 1.387 . S
C516 H501 0.930 . S
C516 C511 1.390 . S
C516 C515 1.387 . S
H517 C529 0.930 . S
H518 C531 0.930 . S
H519 C532 0.930 . S
H520 C536 0.959 . S
H521 C536 0.959 . S
H522 C536 0.961 . S
H523 C537 0.960 . S
H524 C537 0.961 . S
H525 C537 0.959 . S
H526 C540 0.929 1_565 S
H527 C541 0.931 . S
H528 C543 0.930 . S
C529 H517 0.930 . S
C529 C530 1.399 . S
C529 C534 1.399 . S
C530 C529 1.399 . S
C530 C531 1.376 . S
C531 H518 0.930 . S
C531 C530 1.376 . S
C531 C532 1.388 . S
C532 H519 0.930 . S
C532 C531 1.388 . S
C532 C533 1.390 . S
C533 C532 1.390 . S
C533 C534 1.394 . S
C533 C539 1.465 1_565 S
C534 C529 1.399 . S
C534 C533 1.394 . S
C534 C535 1.516 1_565 S
C535 C534 1.516 1_545 S
C535 C536 1.502 . S
C535 C537 1.561 . S
C535 C538 1.526 . S
C536 H520 0.959 . S
C536 H521 0.959 . S
C536 H522 0.961 . S
C536 C535 1.502 . S
C537 H523 0.960 . S
C537 H524 0.961 . S
C537 H525 0.959 . S
C537 C535 1.561 . S
C538 C535 1.526 . S
C538 C539 1.396 . S
C538 C543 1.390 . S
C539 C533 1.465 1_545 S
C539 C538 1.396 . S
C539 C540 1.399 . S
C540 H526 0.929 1_545 S
C540 C539 1.399 . S
C540 C541 1.385 . S
C541 H527 0.931 . S
C541 C540 1.385 . S
C541 C542 1.389 . S
C542 C541 1.389 . S
C542 C543 1.387 . S
C543 H528 0.930 . S
C543 C538 1.390 . S
C543 C542 1.387 . S
C125 C23 1.481 . S
C137 C9 1.513 . S
C152 C37 1.470 . S
C164 C51 1.454 . S
C179 C65 1.486 . S
C191 C79 1.448 . S
C206 C93 1.480 . S
C218 C107 1.449 . S
C233 C105 1.279 . S
C245 C7 1.306 . S
C260 C91 1.288 . S
C272 C21 1.275 . S
C287 C35 1.272 . S
C299 C77 1.310 . S
C314 C63 1.290 . S
C326 C49 1.273 . S
C341 C78 1.666 . S
C353 C36 1.701 . S
C368 C64 1.696 . S
C380 C50 1.679 . S
C395 C106 1.672 . S
C407 C8 1.692 . S
C422 C22 1.701 . S
C434 C92 1.673 . S
C449 C6 1.483 1_655 S
C461 C34 1.516 1_655 S
C476 C48 1.517 . S
C488 C20 1.487 . S
C503 C90 1.522 . S
C515 C62 1.483 . S
C530 C76 1.480 . S
C542 C104 1.519 . S
