# Generated by pormake.
# Topology umm, (4)-cn, num edge types: 1
# Building blocks:
#     Node 0, Type 0, BuildingBlock: NAWXER_clean_sbu_0, # of connection points: 4
#     Node 1, Type 0, BuildingBlock: NAWXER_clean_sbu_0, # of connection points: 4
#     Node 2, Type 0, BuildingBlock: NAWXER_clean_sbu_0, # of connection points: 4
#     Node 3, Type 0, BuildingBlock: NAWXER_clean_sbu_0, # of connection points: 4
#     Node 4, Type 0, BuildingBlock: NAWXER_clean_sbu_0, # of connection points: 4
#     Node 5, Type 0, BuildingBlock: NAWXER_clean_sbu_0, # of connection points: 4
#     Node 6, Type 0, BuildingBlock: NAWXER_clean_sbu_0, # of connection points: 4
#     Node 7, Type 0, BuildingBlock: NAWXER_clean_sbu_0, # of connection points: 4
#     Node 8, Type 0, BuildingBlock: NAWXER_clean_sbu_0, # of connection points: 4
#     Node 9, Type 0, BuildingBlock: NAWXER_clean_sbu_0, # of connection points: 4
#     Node 10, Type 0, BuildingBlock: NAWXER_clean_sbu_0, # of connection points: 4
#     Node 11, Type 0, BuildingBlock: NAWXER_clean_sbu_0, # of connection points: 4
#     Edge 12, Type (0, 0), BuildingBlock: XIVTED_clean_linker_0, # of connection points: 2
#     Edge 13, Type (0, 0), BuildingBlock: XIVTED_clean_linker_0, # of connection points: 2
#     Edge 14, Type (0, 0), BuildingBlock: XIVTED_clean_linker_0, # of connection points: 2
#     Edge 15, Type (0, 0), BuildingBlock: XIVTED_clean_linker_0, # of connection points: 2
#     Edge 16, Type (0, 0), BuildingBlock: XIVTED_clean_linker_0, # of connection points: 2
#     Edge 17, Type (0, 0), BuildingBlock: XIVTED_clean_linker_0, # of connection points: 2
#     Edge 18, Type (0, 0), BuildingBlock: XIVTED_clean_linker_0, # of connection points: 2
#     Edge 19, Type (0, 0), BuildingBlock: XIVTED_clean_linker_0, # of connection points: 2
#     Edge 20, Type (0, 0), BuildingBlock: XIVTED_clean_linker_0, # of connection points: 2
#     Edge 21, Type (0, 0), BuildingBlock: XIVTED_clean_linker_0, # of connection points: 2
#     Edge 22, Type (0, 0), BuildingBlock: XIVTED_clean_linker_0, # of connection points: 2
#     Edge 23, Type (0, 0), BuildingBlock: XIVTED_clean_linker_0, # of connection points: 2
#     Edge 24, Type (0, 0), BuildingBlock: XIVTED_clean_linker_0, # of connection points: 2
#     Edge 25, Type (0, 0), BuildingBlock: XIVTED_clean_linker_0, # of connection points: 2
#     Edge 26, Type (0, 0), BuildingBlock: XIVTED_clean_linker_0, # of connection points: 2
#     Edge 27, Type (0, 0), BuildingBlock: XIVTED_clean_linker_0, # of connection points: 2
#     Edge 28, Type (0, 0), BuildingBlock: XIVTED_clean_linker_0, # of connection points: 2
#     Edge 29, Type (0, 0), BuildingBlock: XIVTED_clean_linker_0, # of connection points: 2
#     Edge 30, Type (0, 0), BuildingBlock: XIVTED_clean_linker_0, # of connection points: 2
#     Edge 31, Type (0, 0), BuildingBlock: XIVTED_clean_linker_0, # of connection points: 2
#     Edge 32, Type (0, 0), BuildingBlock: XIVTED_clean_linker_0, # of connection points: 2
#     Edge 33, Type (0, 0), BuildingBlock: XIVTED_clean_linker_0, # of connection points: 2
#     Edge 34, Type (0, 0), BuildingBlock: XIVTED_clean_linker_0, # of connection points: 2
#     Edge 35, Type (0, 0), BuildingBlock: XIVTED_clean_linker_0, # of connection points: 2
# Relax obj value: 0.044
# Max RMSD: 0.161
# Mean RMSD: 0.161
data_MOF--net-umm--node1-NAWXER_clean_sbu_0--edge1-XIVTED_clean_linker_0
_symmetry_space_group_name_H-M    P1
_symmetry_Int_Tables_number       1
_symmetry_cell_setting            triclinic
loop_
_symmetry_equiv_pos_as_xyz
'x, y, z'
_cell_length_a     57.008323
_cell_length_b     57.019053
_cell_length_c     29.469104
_cell_angle_alpha  89.99823
_cell_angle_beta   90.001636
_cell_angle_gamma 120.00662
loop_
_atom_site_label
_atom_site_type_symbol
_atom_site_fract_x
_atom_site_fract_y
_atom_site_fract_z
_atom_type_partial_charge
C0 C 0.34525 0.52918 0.06908 0.0
C1 C 0.42471 0.52057 0.09953 0.0
O2 O 0.36724 0.55215 0.07088 0.0
Zn3 Zn 0.40961 0.56719 0.0838 0.0
O4 O 0.34581 0.50767 0.0781 0.0
Zn5 Zn 0.38443 0.52465 0.08762 0.0
O6 O 0.39089 0.54548 0.15134 0.0
O7 O 0.41745 0.58901 0.13755 0.0
O8 O 0.40009 0.50184 0.09761 0.0
O9 O 0.43059 0.54529 0.09511 0.0
O10 O 0.42538 0.5852 0.02734 0.0
O11 O 0.39925 0.54087 0.0208 0.0
C12 C 0.40405 0.57002 0.16558 0.0
C13 C 0.41447 0.56411 0.0026 0.0
C14 C 0.84735 0.41763 0.33608 0.0
C15 C 0.83264 0.40536 0.4991 0.0
O16 O 0.8567 0.40321 0.35296 0.0
Zn17 Zn 0.85819 0.38718 0.41874 0.0
O18 O 0.83584 0.42682 0.3616 0.0
Zn19 Zn 0.84006 0.41161 0.41714 0.0
O20 O 0.88343 0.43329 0.42663 0.0
O21 O 0.89649 0.40282 0.42802 0.0
O22 O 0.82649 0.41877 0.47208 0.0
O23 O 0.84421 0.39266 0.48357 0.0
O24 O 0.83703 0.34863 0.40786 0.0
O25 O 0.8132 0.36935 0.40369 0.0
C26 C 0.90235 0.42742 0.43015 0.0
C27 C 0.81462 0.34766 0.40038 0.0
C28 C 0.42802 0.8333 0.83174 0.0
C29 C 0.4326 0.84879 0.66866 0.0
O30 O 0.45241 0.8444 0.81686 0.0
Zn31 Zn 0.4727 0.85828 0.75268 0.0
O32 O 0.40879 0.82772 0.80422 0.0
Zn33 Zn 0.43017 0.84121 0.74989 0.0
O34 O 0.44476 0.81352 0.73677 0.0
O35 O 0.48931 0.83636 0.74292 0.0
O36 O 0.41172 0.83886 0.69389 0.0
O37 O 0.45596 0.85669 0.68629 0.0
O38 O 0.49589 0.89676 0.762 0.0
O39 O 0.4525 0.88417 0.76048 0.0
C40 C 0.46763 0.81431 0.7345 0.0
C41 C 0.47733 0.90287 0.76427 0.0
C42 C 0.58405 0.4324 0.00408 0.0
C43 C 0.59473 0.42714 0.16699 0.0
O44 O 0.59938 0.45573 0.02192 0.0
Zn45 Zn 0.6144 0.47224 0.08856 0.0
O46 O 0.57325 0.41143 0.02911 0.0
Zn47 Zn 0.5892 0.4297 0.08523 0.0
O48 O 0.56828 0.4517 0.09624 0.0
O49 O 0.59882 0.49515 0.09822 0.0
O50 O 0.58134 0.40805 0.13912 0.0
O51 O 0.60791 0.45164 0.15254 0.0
O52 O 0.65302 0.48915 0.07902 0.0
O53 O 0.63155 0.44465 0.07225 0.0
C54 C 0.5742 0.47644 0.10035 0.0
C55 C 0.65356 0.4676 0.07029 0.0
C56 C 0.16486 0.59513 0.49804 0.0
C57 C 0.15 0.5855 0.33462 0.0
O58 O 0.15431 0.60899 0.48339 0.0
Zn59 Zn 0.14111 0.6163 0.41909 0.0
O60 O 0.17018 0.58144 0.47023 0.0
Zn61 Zn 0.15731 0.59015 0.41601 0.0
O62 O 0.18581 0.63232 0.4036 0.0
O63 O 0.16374 0.65478 0.41003 0.0
O64 O 0.15943 0.57406 0.35984 0.0
O65 O 0.14253 0.60127 0.35237 0.0
O66 O 0.10273 0.6019 0.42799 0.0
O67 O 0.11431 0.57036 0.42622 0.0
C68 C 0.18557 0.65469 0.40168 0.0
C69 C 0.09602 0.57705 0.42999 0.0
C70 C 0.57325 0.16691 0.83016 0.0
C71 C 0.56801 0.15112 0.66731 0.0
O72 O 0.54878 0.1558 0.81562 0.0
Zn73 Zn 0.52818 0.14175 0.75165 0.0
O74 O 0.59232 0.17231 0.80241 0.0
Zn75 Zn 0.5707 0.15872 0.7485 0.0
O76 O 0.55618 0.18649 0.73587 0.0
O77 O 0.51163 0.16376 0.74206 0.0
O78 O 0.58895 0.16103 0.69239 0.0
O79 O 0.5447 0.14325 0.68511 0.0
O80 O 0.50498 0.10328 0.76124 0.0
O81 O 0.54835 0.11581 0.75937 0.0
C82 C 0.53336 0.1858 0.7338 0.0
C83 C 0.52352 0.09714 0.7634 0.0
C84 C 0.43274 0.58344 0.66458 0.0
C85 C 0.42621 0.59297 0.50148 0.0
O86 O 0.45584 0.59908 0.64625 0.0
Zn87 Zn 0.47175 0.61393 0.5793 0.0
O88 O 0.41162 0.57203 0.63993 0.0
Zn89 Zn 0.42936 0.58792 0.58334 0.0
O90 O 0.45224 0.56788 0.57235 0.0
O91 O 0.4954 0.59924 0.56951 0.0
O92 O 0.40737 0.57929 0.52961 0.0
O93 O 0.45073 0.60672 0.51564 0.0
O94 O 0.48787 0.65246 0.58841 0.0
O95 O 0.44338 0.63016 0.59579 0.0
C96 C 0.47715 0.57442 0.5679 0.0
C97 C 0.46607 0.65248 0.59734 0.0
C98 C 0.83196 0.4262 0.83562 0.0
C99 C 0.84727 0.42927 0.99857 0.0
O100 O 0.84357 0.4505 0.85102 0.0
Zn101 Zn 0.85772 0.47022 0.91563 0.0
O102 O 0.82577 0.40666 0.86274 0.0
Zn103 Zn 0.83944 0.42753 0.91755 0.0
O104 O 0.81268 0.443 0.9306 0.0
O105 O 0.83644 0.48755 0.92665 0.0
O106 O 0.83544 0.4084 0.97346 0.0
O107 O 0.85657 0.45294 0.98134 0.0
O108 O 0.89609 0.4927 0.90592 0.0
O109 O 0.88268 0.44909 0.90749 0.0
C110 C 0.81401 0.46606 0.93387 0.0
C111 C 0.90173 0.4738 0.90371 0.0
C112 C 0.42533 0.90445 0.23455 0.0
C113 C 0.34654 0.81598 0.26478 0.0
O114 O 0.43154 0.88582 0.23841 0.0
Zn115 Zn 0.4109 0.84283 0.24914 0.0
O116 O 0.40064 0.89825 0.23686 0.0
Zn117 Zn 0.38544 0.85985 0.24638 0.0
O118 O 0.40063 0.85827 0.31282 0.0
O119 O 0.42704 0.84047 0.30501 0.0
O120 O 0.34695 0.83803 0.25624 0.0
O121 O 0.36859 0.81514 0.26249 0.0
O122 O 0.41868 0.82921 0.1949 0.0
O123 O 0.39168 0.84579 0.18221 0.0
C124 C 0.4161 0.85035 0.33036 0.0
C125 C 0.40494 0.83466 0.16738 0.0
C126 C 0.53196 0.34677 0.59935 0.0
C127 C 0.52168 0.42521 0.56936 0.0
O128 O 0.55478 0.36894 0.59754 0.0
Zn129 Zn 0.56914 0.41124 0.58461 0.0
O130 O 0.51027 0.34703 0.59052 0.0
Zn131 Zn 0.52676 0.38555 0.58115 0.0
O132 O 0.5475 0.39227 0.51723 0.0
O133 O 0.59095 0.41944 0.53087 0.0
O134 O 0.50332 0.40045 0.57137 0.0
O135 O 0.54657 0.43162 0.57359 0.0
O136 O 0.5873 0.4273 0.64068 0.0
O137 O 0.54309 0.40058 0.64795 0.0
C138 C 0.57201 0.40577 0.50291 0.0
C139 C 0.56637 0.41616 0.66576 0.0
C140 C 0.1649 0.56891 0.83356 0.0
C141 C 0.15005 0.56416 0.99698 0.0
O142 O 0.154 0.5445 0.84834 0.0
Zn143 Zn 0.14055 0.52415 0.91273 0.0
O144 O 0.17055 0.58806 0.86128 0.0
Zn145 Zn 0.15739 0.56664 0.91559 0.0
O146 O 0.18534 0.55233 0.92815 0.0
O147 O 0.16275 0.50778 0.92211 0.0
O148 O 0.15982 0.58503 0.97172 0.0
O149 O 0.14222 0.54083 0.9793 0.0
O150 O 0.10204 0.50071 0.90387 0.0
O151 O 0.11441 0.54404 0.90537 0.0
C152 C 0.18475 0.52956 0.93031 0.0
C153 C 0.09579 0.51917 0.90171 0.0
C154 C 0.58445 0.15153 0.32895 0.0
C155 C 0.59469 0.16736 0.1661 0.0
O156 O 0.60009 0.14392 0.31108 0.0
Zn157 Zn 0.61515 0.14264 0.24444 0.0
O158 O 0.5732 0.16124 0.30393 0.0
Zn159 Zn 0.58925 0.15917 0.24778 0.0
O160 O 0.56907 0.11626 0.23699 0.0
O161 O 0.60028 0.10424 0.23486 0.0
O162 O 0.58092 0.17257 0.19393 0.0
O163 O 0.6083 0.1565 0.18054 0.0
O164 O 0.65368 0.16496 0.2539 0.0
O165 O 0.63147 0.18727 0.26048 0.0
C166 C 0.5755 0.0978 0.2329 0.0
C167 C 0.65374 0.18684 0.26243 0.0
H168 H 0.43823 0.61711 0.21036 0.0
H169 H 0.37963 0.55739 0.45674 0.0
H170 H 0.37178 0.53605 0.2328 0.0
H171 H 0.45948 0.62591 0.43422 0.0
H172 H 0.37201 0.55356 0.37465 0.0
H173 H 0.44168 0.62475 0.29242 0.0
C174 C 0.42418 0.60101 0.23247 0.0
C175 C 0.40482 0.57582 0.21469 0.0
C176 C 0.39112 0.56953 0.38776 0.0
C177 C 0.40864 0.58448 0.30854 0.0
C178 C 0.39545 0.57181 0.4346 0.0
C179 C 0.42032 0.59188 0.45237 0.0
C180 C 0.41168 0.58762 0.3585 0.0
C181 C 0.44008 0.60999 0.42201 0.0
C182 C 0.42624 0.60537 0.2793 0.0
C183 C 0.38716 0.55571 0.24502 0.0
N184 N 0.43536 0.60739 0.37658 0.0
N185 N 0.38953 0.56045 0.29046 0.0
H186 H 0.83444 0.37207 0.56422 0.0
H187 H 0.8334 0.4611 0.77051 0.0
H188 H 0.82062 0.43935 0.54657 0.0
H189 H 0.82053 0.38034 0.78813 0.0
H190 H 0.82975 0.4541 0.68838 0.0
H191 H 0.83041 0.37517 0.64633 0.0
C192 C 0.83037 0.38738 0.57758 0.0
C193 C 0.82799 0.40557 0.54848 0.0
C194 C 0.82746 0.43782 0.71024 0.0
C195 C 0.82364 0.40939 0.64246 0.0
C196 C 0.82961 0.44182 0.75713 0.0
C197 C 0.82739 0.42132 0.78624 0.0
C198 C 0.8235 0.4133 0.69222 0.0
C199 C 0.82236 0.3967 0.76698 0.0
C200 C 0.828 0.38908 0.62446 0.0
C201 C 0.8226 0.42491 0.56772 0.0
N202 N 0.8209 0.39349 0.72114 0.0
N203 N 0.82091 0.42651 0.61353 0.0
H204 H 0.4622 0.83416 0.89772 0.0
H205 H 0.37168 0.83561 0.10136 0.0
H206 H 0.38191 0.82224 0.87808 0.0
H207 H 0.43948 0.82282 0.12121 0.0
H208 H 0.37524 0.83126 0.01949 0.0
H209 H 0.45458 0.83052 0.97967 0.0
C210 C 0.44288 0.83058 0.91062 0.0
C211 C 0.42271 0.82865 0.881 0.0
C212 C 0.38916 0.82914 0.04178 0.0
C213 C 0.41398 0.82474 0.97482 0.0
C214 C 0.3872 0.83169 0.08853 0.0
C215 C 0.40541 0.82973 0.11818 0.0
C216 C 0.40974 0.82498 0.02445 0.0
C217 C 0.42502 0.8245 0.09962 0.0
C218 C 0.43853 0.82843 0.95741 0.0
C219 C 0.39803 0.82386 0.89964 0.0
N220 N 0.42686 0.82261 0.05391 0.0
N221 N 0.39447 0.82238 0.94539 0.0
H222 H 0.56015 0.38035 0.21209 0.0
H223 H 0.61881 0.44061 0.45808 0.0
H224 H 0.62711 0.46119 0.23401 0.0
H225 H 0.5384 0.37294 0.43584 0.0
H226 H 0.62651 0.44398 0.37605 0.0
H227 H 0.55645 0.37304 0.29424 0.0
C228 C 0.57427 0.39646 0.23412 0.0
C229 C 0.59385 0.4215 0.21617 0.0
C230 C 0.60726 0.42829 0.38921 0.0
C231 C 0.58973 0.41321 0.31009 0.0
C232 C 0.60287 0.42628 0.43602 0.0
C233 C 0.57784 0.40658 0.45383 0.0
C234 C 0.58658 0.41031 0.36003 0.0
C235 C 0.55793 0.38857 0.42357 0.0
C236 C 0.57206 0.39229 0.28098 0.0
C237 C 0.61158 0.44164 0.24637 0.0
N238 N 0.56271 0.3909 0.37815 0.0
N239 N 0.60906 0.43708 0.29185 0.0
H240 H 0.16401 0.62795 0.56507 0.0
H241 H 0.16308 0.53474 0.76659 0.0
H242 H 0.1753 0.55936 0.54341 0.0
H243 H 0.17634 0.61537 0.78807 0.0
H244 H 0.16666 0.54286 0.68474 0.0
H245 H 0.16763 0.62333 0.64687 0.0
C246 C 0.16744 0.61203 0.57748 0.0
C247 C 0.16924 0.59394 0.54732 0.0
C248 C 0.16903 0.55887 0.70739 0.0
C249 C 0.17312 0.58838 0.641 0.0
C250 C 0.16693 0.55423 0.75413 0.0
C251 C 0.16929 0.57437 0.78425 0.0
C252 C 0.17313 0.58368 0.69054 0.0
C253 C 0.17438 0.59926 0.76613 0.0
C254 C 0.16956 0.60945 0.6242 0.0
C255 C 0.17379 0.57376 0.56538 0.0
N256 N 0.17585 0.60311 0.72044 0.0
N257 N 0.17529 0.57135 0.61106 0.0
H258 H 0.55958 0.17877 0.12084 0.0
H259 H 0.62008 0.17947 0.87546 0.0
H260 H 0.62782 0.16686 0.09941 0.0
H261 H 0.53915 0.1655 0.89684 0.0
H262 H 0.62743 0.18368 0.95757 0.0
H263 H 0.55619 0.18273 0.0387 0.0
C264 C 0.57403 0.17728 0.09893 0.0
C265 C 0.59389 0.17226 0.11699 0.0
C266 C 0.60814 0.17987 0.9442 0.0
C267 C 0.59014 0.17683 0.02311 0.0
C268 C 0.60395 0.17757 0.89735 0.0
C269 C 0.57887 0.1719 0.87928 0.0
C270 C 0.58721 0.17676 0.97315 0.0
C271 C 0.55872 0.16964 0.90931 0.0
C272 C 0.57201 0.17943 0.05207 0.0
C273 C 0.61206 0.17049 0.08694 0.0
N274 N 0.5633 0.17201 0.95478 0.0
N275 N 0.60971 0.17271 0.04147 0.0
H276 H 0.29596 0.48416 0.04978 0.0
H277 H 0.23502 0.57256 0.94694 0.0
H278 H 0.33771 0.57158 0.04844 0.0
H279 H 0.18955 0.48519 0.95241 0.0
H280 H 0.2733 0.57188 0.9819 0.0
H281 H 0.25675 0.48344 0.01404 0.0
C282 C 0.2968 0.50318 0.04245 0.0
C283 C 0.32021 0.52797 0.05211 0.0
C284 C 0.25502 0.5528 0.97536 0.0
C285 C 0.27563 0.52727 0.01072 0.0
C286 C 0.23313 0.55316 0.95514 0.0
C287 C 0.20895 0.52889 0.94677 0.0
C288 C 0.25285 0.52798 0.98754 0.0
C289 C 0.20781 0.5044 0.95816 0.0
C290 C 0.27447 0.50274 0.02181 0.0
C291 C 0.32018 0.55197 0.0416 0.0
N292 N 0.22942 0.50457 0.97818 0.0
N293 N 0.29834 0.551 0.02138 0.0
H294 H 0.81097 0.29889 0.37906 0.0
H295 H 0.66051 0.23676 0.28055 0.0
H296 H 0.76417 0.33947 0.38201 0.0
H297 H 0.70329 0.1921 0.28303 0.0
H298 H 0.69948 0.27511 0.31532 0.0
H299 H 0.77243 0.2596 0.34358 0.0
C300 C 0.79254 0.29945 0.37272 0.0
C301 C 0.79084 0.32256 0.38351 0.0
C302 C 0.70047 0.25699 0.30817 0.0
C303 C 0.74691 0.27789 0.34243 0.0
C304 C 0.67821 0.23506 0.28806 0.0
C305 C 0.67855 0.21109 0.27891 0.0
C306 C 0.72339 0.25508 0.31943 0.0
C307 C 0.70214 0.2102 0.28942 0.0
C308 C 0.77062 0.27708 0.35224 0.0
C309 C 0.7665 0.32218 0.37428 0.0
N310 N 0.7236 0.23185 0.30933 0.0
N311 N 0.74561 0.3003 0.35416 0.0
H312 H 0.51234 0.80966 0.71467 0.0
H313 H 0.42299 0.65927 0.61638 0.0
H314 H 0.42489 0.7643 0.71503 0.0
H315 H 0.51045 0.70205 0.6172 0.0
H316 H 0.42386 0.69839 0.6511 0.0
H317 H 0.51262 0.77083 0.67955 0.0
C318 C 0.49322 0.79148 0.70783 0.0
C319 C 0.46855 0.79028 0.71779 0.0
C320 C 0.44291 0.69934 0.64357 0.0
C321 C 0.46875 0.74598 0.67712 0.0
C322 C 0.44243 0.677 0.6235 0.0
C323 C 0.4667 0.67731 0.61387 0.0
C324 C 0.46783 0.7223 0.65432 0.0
C325 C 0.49125 0.70092 0.62394 0.0
C326 C 0.4934 0.76939 0.68754 0.0
C327 C 0.44441 0.76623 0.70793 0.0
N328 N 0.49119 0.72245 0.64381 0.0
N329 N 0.44514 0.74514 0.68805 0.0
H330 H 0.70316 0.51254 0.05208 0.0
H331 H 0.7631 0.42365 0.9478 0.0
H332 H 0.66088 0.42512 0.04936 0.0
H333 H 0.81027 0.51078 0.95819 0.0
H334 H 0.72491 0.4247 0.98218 0.0
H335 H 0.7425 0.51314 0.01705 0.0
C336 C 0.70222 0.49349 0.04458 0.0
C337 C 0.67862 0.46873 0.05364 0.0
C338 C 0.74354 0.44366 0.97688 0.0
C339 C 0.72335 0.46931 0.01308 0.0
C340 C 0.76539 0.44309 0.95699 0.0
C341 C 0.79002 0.46718 0.95017 0.0
C342 C 0.74616 0.46849 0.99025 0.0
C343 C 0.79166 0.49173 0.96275 0.0
C344 C 0.72463 0.49386 0.02437 0.0
C345 C 0.67854 0.4447 0.04298 0.0
N346 N 0.77004 0.49176 0.9824 0.0
N347 N 0.70046 0.44562 0.02315 0.0
H348 H 0.23546 0.66127 0.38355 0.0
H349 H 0.29719 0.81145 0.28401 0.0
H350 H 0.19108 0.70432 0.38141 0.0
H351 H 0.33922 0.76605 0.28519 0.0
H352 H 0.25797 0.77278 0.31922 0.0
H353 H 0.27398 0.70029 0.34904 0.0
C354 C 0.23387 0.67903 0.37619 0.0
C355 C 0.20993 0.67946 0.38536 0.0
C356 C 0.27575 0.77129 0.31156 0.0
C357 C 0.25406 0.72431 0.34517 0.0
C358 C 0.29809 0.79329 0.29122 0.0
C359 C 0.32157 0.79203 0.28163 0.0
C360 C 0.27693 0.7479 0.32241 0.0
C361 C 0.32161 0.76802 0.29196 0.0
C362 C 0.25589 0.70132 0.35624 0.0
C363 C 0.20914 0.70311 0.37501 0.0
N364 N 0.29973 0.74701 0.31188 0.0
N365 N 0.23086 0.72457 0.35526 0.0
H366 H 0.57626 0.23622 0.71778 0.0
H367 H 0.48727 0.29698 0.61685 0.0
H368 H 0.48889 0.19049 0.71197 0.0
H369 H 0.5747 0.33986 0.62072 0.0
H370 H 0.48685 0.25765 0.65137 0.0
H371 H 0.57543 0.27469 0.6839 0.0
C372 C 0.55683 0.23431 0.70971 0.0
C373 C 0.5326 0.21001 0.71769 0.0
C374 C 0.5061 0.27565 0.64444 0.0
C375 C 0.53153 0.25413 0.67822 0.0
C376 C 0.50636 0.29806 0.62452 0.0
C377 C 0.53106 0.3218 0.61588 0.0
C378 C 0.5307 0.27705 0.65585 0.0
C379 C 0.55516 0.32206 0.62675 0.0
C380 C 0.55639 0.25631 0.69013 0.0
C381 C 0.50807 0.20883 0.7065 0.0
N382 N 0.55435 0.30011 0.64626 0.0
N383 N 0.50816 0.23056 0.68713 0.0
H384 H 0.47908 0.55621 0.10602 0.0
H385 H 0.51986 0.44087 0.10755 0.0
H386 H 0.42078 0.47061 0.10535 0.0
H387 H 0.57817 0.52646 0.10504 0.0
H388 H 0.48342 0.45143 0.1118 0.0
H389 H 0.51553 0.5457 0.11069 0.0
C390 C 0.4739 0.53517 0.10708 0.0
C391 C 0.44677 0.51424 0.10504 0.0
C392 C 0.50418 0.46792 0.11053 0.0
C393 C 0.48858 0.50208 0.11028 0.0
C394 C 0.52505 0.46192 0.10811 0.0
C395 C 0.55217 0.48283 0.10568 0.0
C396 C 0.51038 0.49504 0.11043 0.0
C397 C 0.55758 0.50969 0.10672 0.0
C398 C 0.49478 0.5292 0.10973 0.0
C399 C 0.44137 0.48739 0.1067 0.0
N400 N 0.53686 0.51502 0.1088 0.0
N401 N 0.4621 0.48209 0.10901 0.0
H402 H 0.9477 0.42264 0.43811 0.0
H403 H 0.05089 0.58272 0.43372 0.0
H404 H 0.92205 0.48217 0.43299 0.0
H405 H 0.07567 0.5225 0.43735 0.0
H406 H 0.00355 0.54643 0.4378 0.0
H407 H 0.99472 0.45922 0.4422 0.0
C408 C 0.95193 0.4434 0.43805 0.0
C409 C 0.93087 0.44931 0.43499 0.0
C410 C 0.01937 0.54119 0.4379 0.0
C411 C 0.98476 0.49138 0.43952 0.0
C412 C 0.04641 0.56191 0.43563 0.0
C413 C 0.0673 0.55567 0.43496 0.0
C414 C 0.0132 0.51405 0.4395 0.0
C415 C 0.06027 0.52831 0.43755 0.0
C416 C 0.97881 0.4643 0.44037 0.0
C417 C 0.93762 0.47663 0.43517 0.0
N418 N 0.03386 0.50856 0.43953 0.0
N419 N 0.96397 0.49664 0.43718 0.0
H420 H 0.55869 0.07785 0.77014 0.0
H421 H 0.44215 0.92215 0.7711 0.0
H422 H 0.47327 0.0514 0.76861 0.0
H423 H 0.52757 0.94863 0.7689 0.0
H424 H 0.45318 0.96929 0.77519 0.0
H425 H 0.54765 0.03073 0.77466 0.0
C426 C 0.53757 0.06214 0.77097 0.0
C427 C 0.51685 0.06863 0.76875 0.0
C428 C 0.46953 0.96482 0.77401 0.0
C429 C 0.50409 0.01448 0.77382 0.0
C430 C 0.46326 0.93787 0.7717 0.0
C431 C 0.48398 0.93138 0.76941 0.0
C432 C 0.49674 0.98555 0.77397 0.0
C433 C 0.51094 0.95266 0.77047 0.0
C434 C 0.5313 0.0352 0.77354 0.0
C435 C 0.48989 0.04737 0.77012 0.0
N436 N 0.51653 0.97879 0.77247 0.0
N437 N 0.4843 0.02124 0.77236 0.0
H438 H 0.52777 0.57992 0.56188 0.0
H439 H 0.47116 0.41984 0.56265 0.0
H440 H 0.4427 0.51977 0.56249 0.0
H441 H 0.55626 0.47987 0.56393 0.0
H442 H 0.46035 0.45621 0.55786 0.0
H443 H 0.53868 0.54357 0.55787 0.0
C444 C 0.51139 0.5591 0.56091 0.0
C445 C 0.48429 0.55291 0.56277 0.0
C446 C 0.48139 0.46142 0.55898 0.0
C447 C 0.49661 0.51119 0.55833 0.0
C448 C 0.48757 0.44064 0.56168 0.0
C449 C 0.51465 0.44679 0.56393 0.0
C450 C 0.50243 0.48856 0.55859 0.0
C451 C 0.53508 0.47415 0.56246 0.0
C452 C 0.51762 0.53834 0.55867 0.0
C453 C 0.4639 0.52554 0.56134 0.0
N454 N 0.52855 0.49399 0.56008 0.0
N455 N 0.47048 0.50573 0.5594 0.0
H456 H 0.07645 0.55419 0.89339 0.0
H457 H 0.92056 0.43812 0.89906 0.0
H458 H 0.04998 0.46883 0.89903 0.0
H459 H 0.94765 0.52366 0.89667 0.0
H460 H 0.96762 0.44876 0.89433 0.0
H461 H 0.02933 0.54313 0.88972 0.0
C462 C 0.06073 0.53307 0.89365 0.0
C463 C 0.06723 0.51239 0.89678 0.0
C464 C 0.96328 0.46521 0.89464 0.0
C465 C 0.01303 0.4996 0.89272 0.0
C466 C 0.93638 0.45916 0.89732 0.0
C467 C 0.93011 0.48005 0.89848 0.0
C468 C 0.98413 0.49235 0.89315 0.0
C469 C 0.9515 0.5069 0.89602 0.0
C470 C 0.03378 0.52679 0.89157 0.0
C471 C 0.04594 0.48543 0.89678 0.0
N472 N 0.97754 0.51227 0.89365 0.0
N473 N 0.01978 0.47981 0.89501 0.0
H474 H 0.42038 0.94983 0.22786 0.0
H475 H 0.58067 0.05246 0.22762 0.0
H476 H 0.47995 0.92416 0.22919 0.0
H477 H 0.52093 0.0779 0.22686 0.0
H478 H 0.5441 0.00528 0.22373 0.0
H479 H 0.45701 0.9969 0.22306 0.0
C480 C 0.44113 0.95406 0.22691 0.0
C481 C 0.44707 0.93299 0.22916 0.0
C482 C 0.53901 0.02121 0.2242 0.0
C483 C 0.48913 0.98685 0.22382 0.0
C484 C 0.5599 0.04815 0.22637 0.0
C485 C 0.55388 0.06919 0.22781 0.0
C486 C 0.51191 0.01524 0.22351 0.0
C487 C 0.52656 0.06237 0.22604 0.0
C488 C 0.46206 0.98095 0.2242 0.0
C489 C 0.47438 0.93972 0.22771 0.0
N490 N 0.50663 0.03603 0.22418 0.0
N491 N 0.49437 0.96604 0.22533 0.0
H492 H 0.47115 0.61361 0.72769 0.0
H493 H 0.38534 0.52534 0.93935 0.0
H494 H 0.39016 0.54531 0.71488 0.0
H495 H 0.45155 0.60746 0.9524 0.0
H496 H 0.39018 0.52933 0.85694 0.0
H497 H 0.4675 0.60854 0.81009 0.0
C498 C 0.45264 0.59743 0.74218 0.0
C499 C 0.43089 0.57984 0.71435 0.0
C500 C 0.40365 0.54645 0.87786 0.0
C501 C 0.42669 0.57395 0.80865 0.0
C502 C 0.40102 0.54417 0.92492 0.0
C503 C 0.41807 0.56614 0.95282 0.0
C504 C 0.42369 0.57074 0.85851 0.0
C505 C 0.43792 0.59007 0.93217 0.0
C506 C 0.45055 0.59466 0.78923 0.0
C507 C 0.40737 0.55936 0.73506 0.0
N508 N 0.44024 0.59171 0.8862 0.0
N509 N 0.40592 0.55692 0.78102 0.0
H510 H 0.80828 0.41673 0.28169 0.0
H511 H 0.88977 0.46058 0.05398 0.0
H512 H 0.88843 0.42676 0.27853 0.0
H513 H 0.80818 0.39277 0.05496 0.0
H514 H 0.89068 0.45847 0.13733 0.0
H515 H 0.80863 0.41866 0.19825 0.0
C516 C 0.82608 0.41979 0.2634 0.0
C517 C 0.8484 0.42166 0.28668 0.0
C518 C 0.87271 0.44401 0.11908 0.0
C519 C 0.84898 0.42414 0.19225 0.0
C520 C 0.87216 0.44517 0.07183 0.0
C521 C 0.84895 0.42665 0.04791 0.0
C522 C 0.84954 0.42487 0.14233 0.0
C523 C 0.82655 0.40715 0.07234 0.0
C524 C 0.82615 0.42061 0.21606 0.0
C525 C 0.87086 0.42523 0.26159 0.0
N526 N 0.82722 0.40701 0.11846 0.0
N527 N 0.87073 0.42662 0.21556 0.0
H528 H 0.38926 0.84353 0.61971 0.0
H529 H 0.45369 0.84424 0.37918 0.0
H530 H 0.4705 0.85724 0.60444 0.0
H531 H 0.38683 0.85897 0.39475 0.0
H532 H 0.45814 0.84482 0.46191 0.0
H533 H 0.3858 0.84496 0.53699 0.0
C534 C 0.40636 0.84688 0.599 0.0
C535 C 0.43021 0.85032 0.61897 0.0
C536 C 0.4426 0.84805 0.44711 0.0
C537 C 0.4263 0.85171 0.52458 0.0
C538 C 0.44002 0.84767 0.39996 0.0
C539 C 0.4199 0.85161 0.38006 0.0
C540 C 0.42468 0.852 0.47449 0.0
C541 C 0.40272 0.85597 0.40863 0.0
C542 C 0.40441 0.84777 0.55186 0.0
C543 C 0.45177 0.85463 0.5905 0.0
N544 N 0.40538 0.85587 0.4544 0.0
N545 N 0.44924 0.85503 0.54475 0.0
H546 H 0.60966 0.45415 0.71479 0.0
H547 H 0.54628 0.38896 0.95499 0.0
H548 H 0.52849 0.38648 0.72996 0.0
H549 H 0.61307 0.47063 0.94003 0.0
H550 H 0.54137 0.38561 0.87228 0.0
H551 H 0.61334 0.4586 0.79751 0.0
C552 C 0.59261 0.44029 0.73549 0.0
C553 C 0.56873 0.41994 0.71548 0.0
C554 C 0.557 0.40429 0.88721 0.0
C555 C 0.5729 0.42474 0.80991 0.0
C556 C 0.55985 0.40618 0.93434 0.0
C557 C 0.58008 0.43011 0.95441 0.0
C558 C 0.57475 0.42633 0.86001 0.0
C559 C 0.59711 0.45183 0.92603 0.0
C560 C 0.59469 0.44288 0.78264 0.0
C561 C 0.54723 0.40255 0.74394 0.0
N562 N 0.59418 0.44936 0.88026 0.0
N563 N 0.5499 0.40522 0.78972 0.0
H564 H 0.14107 0.52608 0.06124 0.0
H565 H 0.14201 0.61531 0.27037 0.0
H566 H 0.15588 0.6077 0.04607 0.0
H567 H 0.15486 0.54724 0.2855 0.0
H568 H 0.14106 0.60983 0.18806 0.0
H569 H 0.14007 0.53062 0.14351 0.0
C570 C 0.14397 0.54492 0.07518 0.0
C571 C 0.14859 0.56658 0.04671 0.0
C572 C 0.14406 0.59609 0.20941 0.0
C573 C 0.14739 0.57182 0.14089 0.0
C574 C 0.14449 0.5991 0.25641 0.0
C575 C 0.14854 0.58169 0.28488 0.0
C576 C 0.14739 0.57533 0.19068 0.0
C577 C 0.15177 0.56116 0.26483 0.0
C578 C 0.14352 0.54752 0.12217 0.0
C579 C 0.15234 0.59054 0.06675 0.0
N580 N 0.15103 0.55848 0.21892 0.0
N581 N 0.15157 0.59249 0.11265 0.0
H582 H 0.61156 0.15726 0.61799 0.0
H583 H 0.54629 0.15639 0.37829 0.0
H584 H 0.52973 0.14203 0.60342 0.0
H585 H 0.61439 0.14351 0.39279 0.0
H586 H 0.54179 0.1552 0.46104 0.0
H587 H 0.61501 0.15629 0.53524 0.0
C588 C 0.59432 0.15364 0.59742 0.0
C589 C 0.57032 0.14968 0.6176 0.0
C590 C 0.55762 0.1525 0.44601 0.0
C591 C 0.57421 0.14881 0.52317 0.0
C592 C 0.56023 0.15325 0.39885 0.0
C593 C 0.5807 0.15 0.37865 0.0
C594 C 0.57585 0.14888 0.47308 0.0
C595 C 0.59822 0.14597 0.40691 0.0
C596 C 0.59627 0.15303 0.55026 0.0
C597 C 0.54859 0.14506 0.58932 0.0
N598 N 0.59551 0.14571 0.4527 0.0
N599 N 0.55111 0.14493 0.54353 0.0
loop_
_geom_bond_atom_site_label_1
_geom_bond_atom_site_label_2
_geom_bond_distance
_geom_bond_site_symmetry_2
_ccdc_geom_bond_type
C0 O2 1.247 . S
C0 O4 1.258 . S
C1 O8 1.247 . S
C1 O9 1.258 . S
O2 C0 1.247 . S
O2 Zn3 2.028 . S
Zn3 O2 2.028 . S
Zn3 O7 2.035 . S
Zn3 O9 2.035 . S
Zn3 O10 2.028 . S
O4 C0 1.258 . S
O4 Zn5 2.035 . S
Zn5 O4 2.035 . S
Zn5 O6 2.028 . S
Zn5 O8 2.028 . S
Zn5 O11 2.035 . S
O6 Zn5 2.028 . S
O6 C12 1.247 . S
O7 Zn3 2.035 . S
O7 C12 1.258 . S
O8 C1 1.247 . S
O8 Zn5 2.028 . S
O9 C1 1.258 . S
O9 Zn3 2.035 . S
O10 Zn3 2.028 . S
O10 C13 1.247 1_554 S
O11 Zn5 2.035 . S
O11 C13 1.258 1_554 S
C12 O6 1.247 . S
C12 O7 1.258 . S
C13 O10 1.247 1_556 S
C13 O11 1.258 1_556 S
C14 O16 1.247 . S
C14 O18 1.258 . S
C15 O22 1.247 . S
C15 O23 1.258 . S
O16 C14 1.247 . S
O16 Zn17 2.028 . S
Zn17 O16 2.028 . S
Zn17 O21 2.035 . S
Zn17 O23 2.035 . S
Zn17 O24 2.028 . S
O18 C14 1.258 . S
O18 Zn19 2.035 . S
Zn19 O18 2.035 . S
Zn19 O20 2.028 . S
Zn19 O22 2.028 . S
Zn19 O25 2.035 . S
O20 Zn19 2.028 . S
O20 C26 1.247 . S
O21 Zn17 2.035 . S
O21 C26 1.258 . S
O22 C15 1.247 . S
O22 Zn19 2.028 . S
O23 C15 1.258 . S
O23 Zn17 2.035 . S
O24 Zn17 2.028 . S
O24 C27 1.247 . S
O25 Zn19 2.035 . S
O25 C27 1.258 . S
C26 O20 1.247 . S
C26 O21 1.258 . S
C27 O24 1.247 . S
C27 O25 1.258 . S
C28 O30 1.247 . S
C28 O32 1.258 . S
C29 O36 1.247 . S
C29 O37 1.258 . S
O30 C28 1.247 . S
O30 Zn31 2.028 . S
Zn31 O30 2.028 . S
Zn31 O35 2.035 . S
Zn31 O37 2.035 . S
Zn31 O38 2.028 . S
O32 C28 1.258 . S
O32 Zn33 2.035 . S
Zn33 O32 2.035 . S
Zn33 O34 2.028 . S
Zn33 O36 2.028 . S
Zn33 O39 2.035 . S
O34 Zn33 2.028 . S
O34 C40 1.247 . S
O35 Zn31 2.035 . S
O35 C40 1.258 . S
O36 C29 1.247 . S
O36 Zn33 2.028 . S
O37 C29 1.258 . S
O37 Zn31 2.035 . S
O38 Zn31 2.028 . S
O38 C41 1.247 . S
O39 Zn33 2.035 . S
O39 C41 1.258 . S
C40 O34 1.247 . S
C40 O35 1.258 . S
C41 O38 1.247 . S
C41 O39 1.258 . S
C42 O44 1.247 1_556 S
C42 O46 1.258 1_556 S
C43 O50 1.247 . S
C43 O51 1.258 . S
O44 C42 1.247 1_554 S
O44 Zn45 2.028 . S
Zn45 O44 2.028 . S
Zn45 O49 2.035 . S
Zn45 O51 2.035 . S
Zn45 O52 2.028 . S
O46 C42 1.258 1_554 S
O46 Zn47 2.035 . S
Zn47 O46 2.035 . S
Zn47 O48 2.028 . S
Zn47 O50 2.028 . S
Zn47 O53 2.035 . S
O48 Zn47 2.028 . S
O48 C54 1.247 . S
O49 Zn45 2.035 . S
O49 C54 1.258 . S
O50 C43 1.247 . S
O50 Zn47 2.028 . S
O51 C43 1.258 . S
O51 Zn45 2.035 . S
O52 Zn45 2.028 . S
O52 C55 1.247 . S
O53 Zn47 2.035 . S
O53 C55 1.258 . S
C54 O48 1.247 . S
C54 O49 1.258 . S
C55 O52 1.247 . S
C55 O53 1.258 . S
C56 O58 1.247 . S
C56 O60 1.258 . S
C57 O64 1.247 . S
C57 O65 1.258 . S
O58 C56 1.247 . S
O58 Zn59 2.028 . S
Zn59 O58 2.028 . S
Zn59 O63 2.035 . S
Zn59 O65 2.035 . S
Zn59 O66 2.028 . S
O60 C56 1.258 . S
O60 Zn61 2.035 . S
Zn61 O60 2.035 . S
Zn61 O62 2.028 . S
Zn61 O64 2.028 . S
Zn61 O67 2.035 . S
O62 Zn61 2.028 . S
O62 C68 1.247 . S
O63 Zn59 2.035 . S
O63 C68 1.258 . S
O64 C57 1.247 . S
O64 Zn61 2.028 . S
O65 C57 1.258 . S
O65 Zn59 2.035 . S
O66 Zn59 2.028 . S
O66 C69 1.247 . S
O67 Zn61 2.035 . S
O67 C69 1.258 . S
C68 O62 1.247 . S
C68 O63 1.258 . S
C69 O66 1.247 . S
C69 O67 1.258 . S
C70 O72 1.247 . S
C70 O74 1.258 . S
C71 O78 1.247 . S
C71 O79 1.258 . S
O72 C70 1.247 . S
O72 Zn73 2.028 . S
Zn73 O72 2.028 . S
Zn73 O77 2.035 . S
Zn73 O79 2.035 . S
Zn73 O80 2.028 . S
O74 C70 1.258 . S
O74 Zn75 2.035 . S
Zn75 O74 2.035 . S
Zn75 O76 2.028 . S
Zn75 O78 2.028 . S
Zn75 O81 2.035 . S
O76 Zn75 2.028 . S
O76 C82 1.247 . S
O77 Zn73 2.035 . S
O77 C82 1.258 . S
O78 C71 1.247 . S
O78 Zn75 2.028 . S
O79 C71 1.258 . S
O79 Zn73 2.035 . S
O80 Zn73 2.028 . S
O80 C83 1.247 . S
O81 Zn75 2.035 . S
O81 C83 1.258 . S
C82 O76 1.247 . S
C82 O77 1.258 . S
C83 O80 1.247 . S
C83 O81 1.258 . S
C84 O86 1.247 . S
C84 O88 1.258 . S
C85 O92 1.247 . S
C85 O93 1.258 . S
O86 C84 1.247 . S
O86 Zn87 2.028 . S
Zn87 O86 2.028 . S
Zn87 O91 2.035 . S
Zn87 O93 2.035 . S
Zn87 O94 2.028 . S
O88 C84 1.258 . S
O88 Zn89 2.035 . S
Zn89 O88 2.035 . S
Zn89 O90 2.028 . S
Zn89 O92 2.028 . S
Zn89 O95 2.035 . S
O90 Zn89 2.028 . S
O90 C96 1.247 . S
O91 Zn87 2.035 . S
O91 C96 1.258 . S
O92 C85 1.247 . S
O92 Zn89 2.028 . S
O93 C85 1.258 . S
O93 Zn87 2.035 . S
O94 Zn87 2.028 . S
O94 C97 1.247 . S
O95 Zn89 2.035 . S
O95 C97 1.258 . S
C96 O90 1.247 . S
C96 O91 1.258 . S
C97 O94 1.247 . S
C97 O95 1.258 . S
C98 O100 1.247 . S
C98 O102 1.258 . S
C99 O106 1.247 1_554 S
C99 O107 1.258 1_554 S
O100 C98 1.247 . S
O100 Zn101 2.028 . S
Zn101 O100 2.028 . S
Zn101 O105 2.035 . S
Zn101 O107 2.035 . S
Zn101 O108 2.028 . S
O102 C98 1.258 . S
O102 Zn103 2.035 . S
Zn103 O102 2.035 . S
Zn103 O104 2.028 . S
Zn103 O106 2.028 . S
Zn103 O109 2.035 . S
O104 Zn103 2.028 . S
O104 C110 1.247 . S
O105 Zn101 2.035 . S
O105 C110 1.258 . S
O106 C99 1.247 1_556 S
O106 Zn103 2.028 . S
O107 C99 1.258 1_556 S
O107 Zn101 2.035 . S
O108 Zn101 2.028 . S
O108 C111 1.247 . S
O109 Zn103 2.035 . S
O109 C111 1.258 . S
C110 O104 1.247 . S
C110 O105 1.258 . S
C111 O108 1.247 . S
C111 O109 1.258 . S
C112 O114 1.247 . S
C112 O116 1.258 . S
C113 O120 1.247 . S
C113 O121 1.258 . S
O114 C112 1.247 . S
O114 Zn115 2.028 . S
Zn115 O114 2.028 . S
Zn115 O119 2.035 . S
Zn115 O121 2.035 . S
Zn115 O122 2.028 . S
O116 C112 1.258 . S
O116 Zn117 2.035 . S
Zn117 O116 2.035 . S
Zn117 O118 2.028 . S
Zn117 O120 2.028 . S
Zn117 O123 2.035 . S
O118 Zn117 2.028 . S
O118 C124 1.247 . S
O119 Zn115 2.035 . S
O119 C124 1.258 . S
O120 C113 1.247 . S
O120 Zn117 2.028 . S
O121 C113 1.258 . S
O121 Zn115 2.035 . S
O122 Zn115 2.028 . S
O122 C125 1.247 . S
O123 Zn117 2.035 . S
O123 C125 1.258 . S
C124 O118 1.247 . S
C124 O119 1.258 . S
C125 O122 1.247 . S
C125 O123 1.258 . S
C126 O128 1.247 . S
C126 O130 1.258 . S
C127 O134 1.247 . S
C127 O135 1.258 . S
O128 C126 1.247 . S
O128 Zn129 2.028 . S
Zn129 O128 2.028 . S
Zn129 O133 2.035 . S
Zn129 O135 2.035 . S
Zn129 O136 2.028 . S
O130 C126 1.258 . S
O130 Zn131 2.035 . S
Zn131 O130 2.035 . S
Zn131 O132 2.028 . S
Zn131 O134 2.028 . S
Zn131 O137 2.035 . S
O132 Zn131 2.028 . S
O132 C138 1.247 . S
O133 Zn129 2.035 . S
O133 C138 1.258 . S
O134 C127 1.247 . S
O134 Zn131 2.028 . S
O135 C127 1.258 . S
O135 Zn129 2.035 . S
O136 Zn129 2.028 . S
O136 C139 1.247 . S
O137 Zn131 2.035 . S
O137 C139 1.258 . S
C138 O132 1.247 . S
C138 O133 1.258 . S
C139 O136 1.247 . S
C139 O137 1.258 . S
C140 O142 1.247 . S
C140 O144 1.258 . S
C141 O148 1.247 1_554 S
C141 O149 1.258 1_554 S
O142 C140 1.247 . S
O142 Zn143 2.028 . S
Zn143 O142 2.028 . S
Zn143 O147 2.035 . S
Zn143 O149 2.035 . S
Zn143 O150 2.028 . S
O144 C140 1.258 . S
O144 Zn145 2.035 . S
Zn145 O144 2.035 . S
Zn145 O146 2.028 . S
Zn145 O148 2.028 . S
Zn145 O151 2.035 . S
O146 Zn145 2.028 . S
O146 C152 1.247 . S
O147 Zn143 2.035 . S
O147 C152 1.258 . S
O148 C141 1.247 1_556 S
O148 Zn145 2.028 . S
O149 C141 1.258 1_556 S
O149 Zn143 2.035 . S
O150 Zn143 2.028 . S
O150 C153 1.247 . S
O151 Zn145 2.035 . S
O151 C153 1.258 . S
C152 O146 1.247 . S
C152 O147 1.258 . S
C153 O150 1.247 . S
C153 O151 1.258 . S
C154 O156 1.247 . S
C154 O158 1.258 . S
C155 O162 1.247 . S
C155 O163 1.258 . S
O156 C154 1.247 . S
O156 Zn157 2.028 . S
Zn157 O156 2.028 . S
Zn157 O161 2.035 . S
Zn157 O163 2.035 . S
Zn157 O164 2.028 . S
O158 C154 1.258 . S
O158 Zn159 2.035 . S
Zn159 O158 2.035 . S
Zn159 O160 2.028 . S
Zn159 O162 2.028 . S
Zn159 O165 2.035 . S
O160 Zn159 2.028 . S
O160 C166 1.247 . S
O161 Zn157 2.035 . S
O161 C166 1.258 . S
O162 C155 1.247 . S
O162 Zn159 2.028 . S
O163 C155 1.258 . S
O163 Zn157 2.035 . S
O164 Zn157 2.028 . S
O164 C167 1.247 . S
O165 Zn159 2.035 . S
O165 C167 1.258 . S
C166 O160 1.247 . S
C166 O161 1.258 . S
C167 O164 1.247 . S
C167 O165 1.258 . S
H168 C174 0.930 . S
H169 C178 0.930 . S
H170 C183 0.929 . S
H171 C181 0.929 . S
H172 C176 0.929 . S
H173 C182 0.929 . S
C174 H168 0.930 . S
C174 C175 1.367 . S
C174 C182 1.378 . S
C175 C174 1.367 . S
C175 C183 1.433 . S
C176 H172 0.929 . S
C176 C178 1.378 . S
C176 C180 1.350 . S
C177 C180 1.463 . S
C177 C182 1.350 . S
C177 N185 1.427 . S
C178 H169 0.930 . S
C178 C176 1.378 . S
C178 C179 1.367 . S
C179 C178 1.367 . S
C179 C181 1.433 . S
C180 C176 1.350 . S
C180 C177 1.463 . S
C180 N184 1.427 . S
C181 H171 0.929 . S
C181 C179 1.433 . S
C181 N184 1.384 . S
C182 H173 0.929 . S
C182 C174 1.378 . S
C182 C177 1.350 . S
C183 H170 0.929 . S
C183 C175 1.433 . S
C183 N185 1.384 . S
N184 C180 1.427 . S
N184 C181 1.384 . S
N185 C177 1.427 . S
N185 C183 1.384 . S
H186 C192 0.930 . S
H187 C196 0.930 . S
H188 C201 0.929 . S
H189 C199 0.929 . S
H190 C194 0.929 . S
H191 C200 0.929 . S
C192 H186 0.930 . S
C192 C193 1.367 . S
C192 C200 1.378 . S
C193 C192 1.367 . S
C193 C201 1.433 . S
C194 H190 0.929 . S
C194 C196 1.378 . S
C194 C198 1.350 . S
C195 C198 1.463 . S
C195 C200 1.350 . S
C195 N203 1.427 . S
C196 H187 0.930 . S
C196 C194 1.378 . S
C196 C197 1.367 . S
C197 C196 1.367 . S
C197 C199 1.433 . S
C198 C194 1.350 . S
C198 C195 1.463 . S
C198 N202 1.427 . S
C199 H189 0.929 . S
C199 C197 1.433 . S
C199 N202 1.384 . S
C200 H191 0.929 . S
C200 C192 1.378 . S
C200 C195 1.350 . S
C201 H188 0.929 . S
C201 C193 1.433 . S
C201 N203 1.384 . S
N202 C198 1.427 . S
N202 C199 1.384 . S
N203 C195 1.427 . S
N203 C201 1.384 . S
H204 C210 0.930 . S
H205 C214 0.930 . S
H206 C219 0.929 . S
H207 C217 0.929 . S
H208 C212 0.929 . S
H209 C218 0.929 . S
C210 H204 0.930 . S
C210 C211 1.367 . S
C210 C218 1.378 . S
C211 C210 1.367 . S
C211 C219 1.433 . S
C212 H208 0.929 . S
C212 C214 1.378 . S
C212 C216 1.350 . S
C213 C216 1.463 1_556 S
C213 C218 1.350 . S
C213 N221 1.427 . S
C214 H205 0.930 . S
C214 C212 1.378 . S
C214 C215 1.367 . S
C215 C214 1.367 . S
C215 C217 1.433 . S
C216 C212 1.350 . S
C216 C213 1.463 1_554 S
C216 N220 1.427 . S
C217 H207 0.929 . S
C217 C215 1.433 . S
C217 N220 1.384 . S
C218 H209 0.929 . S
C218 C210 1.378 . S
C218 C213 1.350 . S
C219 H206 0.929 . S
C219 C211 1.433 . S
C219 N221 1.384 . S
N220 C216 1.427 . S
N220 C217 1.384 . S
N221 C213 1.427 . S
N221 C219 1.384 . S
H222 C228 0.930 . S
H223 C232 0.930 . S
H224 C237 0.929 . S
H225 C235 0.929 . S
H226 C230 0.929 . S
H227 C236 0.929 . S
C228 H222 0.930 . S
C228 C229 1.367 . S
C228 C236 1.378 . S
C229 C228 1.367 . S
C229 C237 1.433 . S
C230 H226 0.929 . S
C230 C232 1.378 . S
C230 C234 1.350 . S
C231 C234 1.463 . S
C231 C236 1.350 . S
C231 N239 1.427 . S
C232 H223 0.930 . S
C232 C230 1.378 . S
C232 C233 1.367 . S
C233 C232 1.367 . S
C233 C235 1.433 . S
C234 C230 1.350 . S
C234 C231 1.463 . S
C234 N238 1.427 . S
C235 H225 0.929 . S
C235 C233 1.433 . S
C235 N238 1.384 . S
C236 H227 0.929 . S
C236 C228 1.378 . S
C236 C231 1.350 . S
C237 H224 0.929 . S
C237 C229 1.433 . S
C237 N239 1.384 . S
N238 C234 1.427 . S
N238 C235 1.384 . S
N239 C231 1.427 . S
N239 C237 1.384 . S
H240 C246 0.930 . S
H241 C250 0.930 . S
H242 C255 0.929 . S
H243 C253 0.929 . S
H244 C248 0.929 . S
H245 C254 0.929 . S
C246 H240 0.930 . S
C246 C247 1.367 . S
C246 C254 1.378 . S
C247 C246 1.367 . S
C247 C255 1.433 . S
C248 H244 0.929 . S
C248 C250 1.378 . S
C248 C252 1.350 . S
C249 C252 1.463 . S
C249 C254 1.350 . S
C249 N257 1.427 . S
C250 H241 0.930 . S
C250 C248 1.378 . S
C250 C251 1.367 . S
C251 C250 1.367 . S
C251 C253 1.433 . S
C252 C248 1.350 . S
C252 C249 1.463 . S
C252 N256 1.427 . S
C253 H243 0.929 . S
C253 C251 1.433 . S
C253 N256 1.384 . S
C254 H245 0.929 . S
C254 C246 1.378 . S
C254 C249 1.350 . S
C255 H242 0.929 . S
C255 C247 1.433 . S
C255 N257 1.384 . S
N256 C252 1.427 . S
N256 C253 1.384 . S
N257 C249 1.427 . S
N257 C255 1.384 . S
H258 C264 0.930 . S
H259 C268 0.930 . S
H260 C273 0.929 . S
H261 C271 0.929 . S
H262 C266 0.929 . S
H263 C272 0.929 . S
C264 H258 0.930 . S
C264 C265 1.367 . S
C264 C272 1.378 . S
C265 C264 1.367 . S
C265 C273 1.433 . S
C266 H262 0.929 . S
C266 C268 1.378 . S
C266 C270 1.350 . S
C267 C270 1.463 1_554 S
C267 C272 1.350 . S
C267 N275 1.427 . S
C268 H259 0.930 . S
C268 C266 1.378 . S
C268 C269 1.367 . S
C269 C268 1.367 . S
C269 C271 1.433 . S
C270 C266 1.350 . S
C270 C267 1.463 1_556 S
C270 N274 1.427 . S
C271 H261 0.929 . S
C271 C269 1.433 . S
C271 N274 1.384 . S
C272 H263 0.929 . S
C272 C264 1.378 . S
C272 C267 1.350 . S
C273 H260 0.929 . S
C273 C265 1.433 . S
C273 N275 1.384 . S
N274 C270 1.427 . S
N274 C271 1.384 . S
N275 C267 1.427 . S
N275 C273 1.384 . S
H276 C282 0.930 . S
H277 C286 0.930 . S
H278 C291 0.923 1_556 S
H279 C289 0.924 1_554 S
H280 C284 0.929 . S
H281 C290 0.929 . S
C282 H276 0.930 . S
C282 C283 1.367 . S
C282 C290 1.378 . S
C283 C282 1.367 . S
C283 C291 1.444 . S
C284 H280 0.929 . S
C284 C286 1.378 . S
C284 C288 1.350 . S
C285 C288 1.463 1_554 S
C285 C290 1.350 . S
C285 N293 1.427 1_554 S
C286 H277 0.930 . S
C286 C284 1.378 . S
C286 C287 1.367 . S
C287 C286 1.367 . S
C287 C289 1.443 . S
C288 C284 1.350 . S
C288 C285 1.463 1_556 S
C288 N292 1.427 1_556 S
C289 H279 0.924 1_556 S
C289 C287 1.443 . S
C289 N292 1.380 1_556 S
C290 H281 0.929 . S
C290 C282 1.378 . S
C290 C285 1.350 . S
C291 H278 0.923 1_554 S
C291 C283 1.444 . S
C291 N293 1.379 1_554 S
N292 C288 1.427 1_554 S
N292 C289 1.380 1_554 S
N293 C285 1.427 1_556 S
N293 C291 1.379 1_556 S
H294 C300 0.930 . S
H295 C304 0.930 . S
H296 C309 0.929 . S
H297 C307 0.929 . S
H298 C302 0.929 . S
H299 C308 0.929 . S
C300 H294 0.930 . S
C300 C301 1.367 . S
C300 C308 1.378 . S
C301 C300 1.367 . S
C301 C309 1.433 . S
C302 H298 0.929 . S
C302 C304 1.378 . S
C302 C306 1.350 . S
C303 C306 1.463 . S
C303 C308 1.350 . S
C303 N311 1.427 . S
C304 H295 0.930 . S
C304 C302 1.378 . S
C304 C305 1.367 . S
C305 C304 1.367 . S
C305 C307 1.433 . S
C306 C302 1.350 . S
C306 C303 1.463 . S
C306 N310 1.427 . S
C307 H297 0.929 . S
C307 C305 1.433 . S
C307 N310 1.384 . S
C308 H299 0.929 . S
C308 C300 1.378 . S
C308 C303 1.350 . S
C309 H296 0.929 . S
C309 C301 1.433 . S
C309 N311 1.384 . S
N310 C306 1.427 . S
N310 C307 1.384 . S
N311 C303 1.427 . S
N311 C309 1.384 . S
H312 C318 0.930 . S
H313 C322 0.930 . S
H314 C327 0.929 . S
H315 C325 0.929 . S
H316 C320 0.929 . S
H317 C326 0.929 . S
C318 H312 0.930 . S
C318 C319 1.367 . S
C318 C326 1.378 . S
C319 C318 1.367 . S
C319 C327 1.433 . S
C320 H316 0.929 . S
C320 C322 1.378 . S
C320 C324 1.350 . S
C321 C324 1.463 . S
C321 C326 1.350 . S
C321 N329 1.427 . S
C322 H313 0.930 . S
C322 C320 1.378 . S
C322 C323 1.367 . S
C323 C322 1.367 . S
C323 C325 1.433 . S
C324 C320 1.350 . S
C324 C321 1.463 . S
C324 N328 1.427 . S
C325 H315 0.929 . S
C325 C323 1.433 . S
C325 N328 1.384 . S
C326 H317 0.929 . S
C326 C318 1.378 . S
C326 C321 1.350 . S
C327 H314 0.929 . S
C327 C319 1.433 . S
C327 N329 1.384 . S
N328 C324 1.427 . S
N328 C325 1.384 . S
N329 C321 1.427 . S
N329 C327 1.384 . S
H330 C336 0.930 . S
H331 C340 0.930 . S
H332 C345 0.929 1_556 S
H333 C343 0.929 1_554 S
H334 C338 0.929 . S
H335 C344 0.929 . S
C336 H330 0.930 . S
C336 C337 1.367 . S
C336 C344 1.378 . S
C337 C336 1.367 . S
C337 C345 1.433 . S
C338 H334 0.929 . S
C338 C340 1.378 . S
C338 C342 1.350 . S
C339 C342 1.463 1_554 S
C339 C344 1.350 . S
C339 N347 1.427 1_554 S
C340 H331 0.930 . S
C340 C338 1.378 . S
C340 C341 1.367 . S
C341 C340 1.367 . S
C341 C343 1.433 . S
C342 C338 1.350 . S
C342 C339 1.463 1_556 S
C342 N346 1.427 1_556 S
C343 H333 0.929 1_556 S
C343 C341 1.433 . S
C343 N346 1.384 1_556 S
C344 H335 0.929 . S
C344 C336 1.378 . S
C344 C339 1.350 . S
C345 H332 0.929 1_554 S
C345 C337 1.433 . S
C345 N347 1.384 1_554 S
N346 C342 1.427 1_554 S
N346 C343 1.384 1_554 S
N347 C339 1.427 1_556 S
N347 C345 1.384 1_556 S
H348 C354 0.930 . S
H349 C358 0.930 . S
H350 C363 0.929 . S
H351 C361 0.929 . S
H352 C356 0.929 . S
H353 C362 0.929 . S
C354 H348 0.930 . S
C354 C355 1.367 . S
C354 C362 1.378 . S
C355 C354 1.367 . S
C355 C363 1.433 . S
C356 H352 0.929 . S
C356 C358 1.378 . S
C356 C360 1.350 . S
C357 C360 1.463 . S
C357 C362 1.350 . S
C357 N365 1.427 . S
C358 H349 0.930 . S
C358 C356 1.378 . S
C358 C359 1.367 . S
C359 C358 1.367 . S
C359 C361 1.433 . S
C360 C356 1.350 . S
C360 C357 1.463 . S
C360 N364 1.427 . S
C361 H351 0.929 . S
C361 C359 1.433 . S
C361 N364 1.384 . S
C362 H353 0.929 . S
C362 C354 1.378 . S
C362 C357 1.350 . S
C363 H350 0.929 . S
C363 C355 1.433 . S
C363 N365 1.384 . S
N364 C360 1.427 . S
N364 C361 1.384 . S
N365 C357 1.427 . S
N365 C363 1.384 . S
H366 C372 0.930 . S
H367 C376 0.930 . S
H368 C381 0.929 . S
H369 C379 0.929 . S
H370 C374 0.929 . S
H371 C380 0.929 . S
C372 H366 0.930 . S
C372 C373 1.367 . S
C372 C380 1.378 . S
C373 C372 1.367 . S
C373 C381 1.433 . S
C374 H370 0.929 . S
C374 C376 1.378 . S
C374 C378 1.350 . S
C375 C378 1.463 . S
C375 C380 1.350 . S
C375 N383 1.427 . S
C376 H367 0.930 . S
C376 C374 1.378 . S
C376 C377 1.367 . S
C377 C376 1.367 . S
C377 C379 1.433 . S
C378 C374 1.350 . S
C378 C375 1.463 . S
C378 N382 1.427 . S
C379 H369 0.929 . S
C379 C377 1.433 . S
C379 N382 1.384 . S
C380 H371 0.929 . S
C380 C372 1.378 . S
C380 C375 1.350 . S
C381 H368 0.929 . S
C381 C373 1.433 . S
C381 N383 1.384 . S
N382 C378 1.427 . S
N382 C379 1.384 . S
N383 C375 1.427 . S
N383 C381 1.384 . S
H384 C390 0.930 . S
H385 C394 0.930 . S
H386 C399 0.929 . S
H387 C397 0.929 . S
H388 C392 0.929 . S
H389 C398 0.929 . S
C390 H384 0.930 . S
C390 C391 1.367 . S
C390 C398 1.378 . S
C391 C390 1.367 . S
C391 C399 1.433 . S
C392 H388 0.929 . S
C392 C394 1.378 . S
C392 C396 1.350 . S
C393 C396 1.463 . S
C393 C398 1.350 . S
C393 N401 1.427 . S
C394 H385 0.930 . S
C394 C392 1.378 . S
C394 C395 1.367 . S
C395 C394 1.367 . S
C395 C397 1.433 . S
C396 C392 1.350 . S
C396 C393 1.463 . S
C396 N400 1.427 . S
C397 H387 0.929 . S
C397 C395 1.433 . S
C397 N400 1.384 . S
C398 H389 0.929 . S
C398 C390 1.378 . S
C398 C393 1.350 . S
C399 H386 0.929 . S
C399 C391 1.433 . S
C399 N401 1.384 . S
N400 C396 1.427 . S
N400 C397 1.384 . S
N401 C393 1.427 . S
N401 C399 1.384 . S
H402 C408 0.930 . S
H403 C412 0.930 . S
H404 C417 0.929 . S
H405 C415 0.929 . S
H406 C410 0.929 . S
H407 C416 0.929 . S
C408 H402 0.930 . S
C408 C409 1.367 . S
C408 C416 1.378 . S
C409 C408 1.367 . S
C409 C417 1.433 . S
C410 H406 0.929 . S
C410 C412 1.378 . S
C410 C414 1.350 . S
C411 C414 1.463 1_655 S
C411 C416 1.350 . S
C411 N419 1.427 . S
C412 H403 0.930 . S
C412 C410 1.378 . S
C412 C413 1.367 . S
C413 C412 1.367 . S
C413 C415 1.433 . S
C414 C410 1.350 . S
C414 C411 1.463 1_455 S
C414 N418 1.427 . S
C415 H405 0.929 . S
C415 C413 1.433 . S
C415 N418 1.384 . S
C416 H407 0.929 . S
C416 C408 1.378 . S
C416 C411 1.350 . S
C417 H404 0.929 . S
C417 C409 1.433 . S
C417 N419 1.384 . S
N418 C414 1.427 . S
N418 C415 1.384 . S
N419 C411 1.427 . S
N419 C417 1.384 . S
H420 C426 0.930 . S
H421 C430 0.930 . S
H422 C435 0.929 . S
H423 C433 0.929 . S
H424 C428 0.929 . S
H425 C434 0.929 . S
C426 H420 0.930 . S
C426 C427 1.367 . S
C426 C434 1.378 . S
C427 C426 1.367 . S
C427 C435 1.433 . S
C428 H424 0.929 . S
C428 C430 1.378 . S
C428 C432 1.350 . S
C429 C432 1.463 1_545 S
C429 C434 1.350 . S
C429 N437 1.427 . S
C430 H421 0.930 . S
C430 C428 1.378 . S
C430 C431 1.367 . S
C431 C430 1.367 . S
C431 C433 1.433 . S
C432 C428 1.350 . S
C432 C429 1.463 1_565 S
C432 N436 1.427 . S
C433 H423 0.929 . S
C433 C431 1.433 . S
C433 N436 1.384 . S
C434 H425 0.929 . S
C434 C426 1.378 . S
C434 C429 1.350 . S
C435 H422 0.929 . S
C435 C427 1.433 . S
C435 N437 1.384 . S
N436 C432 1.427 . S
N436 C433 1.384 . S
N437 C429 1.427 . S
N437 C435 1.384 . S
H438 C444 0.930 . S
H439 C448 0.930 . S
H440 C453 0.929 . S
H441 C451 0.929 . S
H442 C446 0.929 . S
H443 C452 0.929 . S
C444 H438 0.930 . S
C444 C445 1.367 . S
C444 C452 1.378 . S
C445 C444 1.367 . S
C445 C453 1.433 . S
C446 H442 0.929 . S
C446 C448 1.378 . S
C446 C450 1.350 . S
C447 C450 1.463 . S
C447 C452 1.350 . S
C447 N455 1.427 . S
C448 H439 0.930 . S
C448 C446 1.378 . S
C448 C449 1.367 . S
C449 C448 1.367 . S
C449 C451 1.433 . S
C450 C446 1.350 . S
C450 C447 1.463 . S
C450 N454 1.427 . S
C451 H441 0.929 . S
C451 C449 1.433 . S
C451 N454 1.384 . S
C452 H443 0.929 . S
C452 C444 1.378 . S
C452 C447 1.350 . S
C453 H440 0.929 . S
C453 C445 1.433 . S
C453 N455 1.384 . S
N454 C450 1.427 . S
N454 C451 1.384 . S
N455 C447 1.427 . S
N455 C453 1.384 . S
H456 C462 0.930 . S
H457 C466 0.930 . S
H458 C471 0.929 . S
H459 C469 0.929 . S
H460 C464 0.929 . S
H461 C470 0.929 . S
C462 H456 0.930 . S
C462 C463 1.367 . S
C462 C470 1.378 . S
C463 C462 1.367 . S
C463 C471 1.433 . S
C464 H460 0.929 . S
C464 C466 1.378 . S
C464 C468 1.350 . S
C465 C468 1.463 1_455 S
C465 C470 1.350 . S
C465 N473 1.427 . S
C466 H457 0.930 . S
C466 C464 1.378 . S
C466 C467 1.367 . S
C467 C466 1.367 . S
C467 C469 1.433 . S
C468 C464 1.350 . S
C468 C465 1.463 1_655 S
C468 N472 1.427 . S
C469 H459 0.929 . S
C469 C467 1.433 . S
C469 N472 1.384 . S
C470 H461 0.929 . S
C470 C462 1.378 . S
C470 C465 1.350 . S
C471 H458 0.929 . S
C471 C463 1.433 . S
C471 N473 1.384 . S
N472 C468 1.427 . S
N472 C469 1.384 . S
N473 C465 1.427 . S
N473 C471 1.384 . S
H474 C480 0.930 . S
H475 C484 0.930 . S
H476 C489 0.929 . S
H477 C487 0.929 . S
H478 C482 0.929 . S
H479 C488 0.929 . S
C480 H474 0.930 . S
C480 C481 1.367 . S
C480 C488 1.378 . S
C481 C480 1.367 . S
C481 C489 1.433 . S
C482 H478 0.929 . S
C482 C484 1.378 . S
C482 C486 1.350 . S
C483 C486 1.463 1_565 S
C483 C488 1.350 . S
C483 N491 1.427 . S
C484 H475 0.930 . S
C484 C482 1.378 . S
C484 C485 1.367 . S
C485 C484 1.367 . S
C485 C487 1.433 . S
C486 C482 1.350 . S
C486 C483 1.463 1_545 S
C486 N490 1.427 . S
C487 H477 0.929 . S
C487 C485 1.433 . S
C487 N490 1.384 . S
C488 H479 0.929 . S
C488 C480 1.378 . S
C488 C483 1.350 . S
C489 H476 0.929 . S
C489 C481 1.433 . S
C489 N491 1.384 . S
N490 C486 1.427 . S
N490 C487 1.384 . S
N491 C483 1.427 . S
N491 C489 1.384 . S
H492 C498 0.930 . S
H493 C502 0.930 . S
H494 C507 0.929 . S
H495 C505 0.929 . S
H496 C500 0.929 . S
H497 C506 0.929 . S
C498 H492 0.930 . S
C498 C499 1.367 . S
C498 C506 1.378 . S
C499 C498 1.367 . S
C499 C507 1.433 . S
C500 H496 0.929 . S
C500 C502 1.378 . S
C500 C504 1.350 . S
C501 C504 1.463 . S
C501 C506 1.350 . S
C501 N509 1.427 . S
C502 H493 0.930 . S
C502 C500 1.378 . S
C502 C503 1.367 . S
C503 C502 1.367 . S
C503 C505 1.433 . S
C504 C500 1.350 . S
C504 C501 1.463 . S
C504 N508 1.427 . S
C505 H495 0.929 . S
C505 C503 1.433 . S
C505 N508 1.384 . S
C506 H497 0.929 . S
C506 C498 1.378 . S
C506 C501 1.350 . S
C507 H494 0.929 . S
C507 C499 1.433 . S
C507 N509 1.384 . S
N508 C504 1.427 . S
N508 C505 1.384 . S
N509 C501 1.427 . S
N509 C507 1.384 . S
H510 C516 0.930 . S
H511 C520 0.930 . S
H512 C525 0.929 . S
H513 C523 0.929 . S
H514 C518 0.929 . S
H515 C524 0.929 . S
C516 H510 0.930 . S
C516 C517 1.367 . S
C516 C524 1.378 . S
C517 C516 1.367 . S
C517 C525 1.433 . S
C518 H514 0.929 . S
C518 C520 1.378 . S
C518 C522 1.350 . S
C519 C522 1.463 . S
C519 C524 1.350 . S
C519 N527 1.427 . S
C520 H511 0.930 . S
C520 C518 1.378 . S
C520 C521 1.367 . S
C521 C520 1.367 . S
C521 C523 1.433 . S
C522 C518 1.350 . S
C522 C519 1.463 . S
C522 N526 1.427 . S
C523 H513 0.929 . S
C523 C521 1.433 . S
C523 N526 1.384 . S
C524 H515 0.929 . S
C524 C516 1.378 . S
C524 C519 1.350 . S
C525 H512 0.929 . S
C525 C517 1.433 . S
C525 N527 1.384 . S
N526 C522 1.427 . S
N526 C523 1.384 . S
N527 C519 1.427 . S
N527 C525 1.384 . S
H528 C534 0.930 . S
H529 C538 0.930 . S
H530 C543 0.929 . S
H531 C541 0.929 . S
H532 C536 0.929 . S
H533 C542 0.929 . S
C534 H528 0.930 . S
C534 C535 1.367 . S
C534 C542 1.378 . S
C535 C534 1.367 . S
C535 C543 1.433 . S
C536 H532 0.929 . S
C536 C538 1.378 . S
C536 C540 1.350 . S
C537 C540 1.463 . S
C537 C542 1.350 . S
C537 N545 1.427 . S
C538 H529 0.930 . S
C538 C536 1.378 . S
C538 C539 1.367 . S
C539 C538 1.367 . S
C539 C541 1.433 . S
C540 C536 1.350 . S
C540 C537 1.463 . S
C540 N544 1.427 . S
C541 H531 0.929 . S
C541 C539 1.433 . S
C541 N544 1.384 . S
C542 H533 0.929 . S
C542 C534 1.378 . S
C542 C537 1.350 . S
C543 H530 0.929 . S
C543 C535 1.433 . S
C543 N545 1.384 . S
N544 C540 1.427 . S
N544 C541 1.384 . S
N545 C537 1.427 . S
N545 C543 1.384 . S
H546 C552 0.930 . S
H547 C556 0.930 . S
H548 C561 0.929 . S
H549 C559 0.929 . S
H550 C554 0.929 . S
H551 C560 0.929 . S
C552 H546 0.930 . S
C552 C553 1.367 . S
C552 C560 1.378 . S
C553 C552 1.367 . S
C553 C561 1.433 . S
C554 H550 0.929 . S
C554 C556 1.378 . S
C554 C558 1.350 . S
C555 C558 1.463 . S
C555 C560 1.350 . S
C555 N563 1.427 . S
C556 H547 0.930 . S
C556 C554 1.378 . S
C556 C557 1.367 . S
C557 C556 1.367 . S
C557 C559 1.433 . S
C558 C554 1.350 . S
C558 C555 1.463 . S
C558 N562 1.427 . S
C559 H549 0.929 . S
C559 C557 1.433 . S
C559 N562 1.384 . S
C560 H551 0.929 . S
C560 C552 1.378 . S
C560 C555 1.350 . S
C561 H548 0.929 . S
C561 C553 1.433 . S
C561 N563 1.384 . S
N562 C558 1.427 . S
N562 C559 1.384 . S
N563 C555 1.427 . S
N563 C561 1.384 . S
H564 C570 0.930 . S
H565 C574 0.930 . S
H566 C579 0.929 . S
H567 C577 0.929 . S
H568 C572 0.929 . S
H569 C578 0.929 . S
C570 H564 0.930 . S
C570 C571 1.367 . S
C570 C578 1.378 . S
C571 C570 1.367 . S
C571 C579 1.433 . S
C572 H568 0.929 . S
C572 C574 1.378 . S
C572 C576 1.350 . S
C573 C576 1.463 . S
C573 C578 1.350 . S
C573 N581 1.427 . S
C574 H565 0.930 . S
C574 C572 1.378 . S
C574 C575 1.367 . S
C575 C574 1.367 . S
C575 C577 1.433 . S
C576 C572 1.350 . S
C576 C573 1.463 . S
C576 N580 1.427 . S
C577 H567 0.929 . S
C577 C575 1.433 . S
C577 N580 1.384 . S
C578 H569 0.929 . S
C578 C570 1.378 . S
C578 C573 1.350 . S
C579 H566 0.929 . S
C579 C571 1.433 . S
C579 N581 1.384 . S
N580 C576 1.427 . S
N580 C577 1.384 . S
N581 C573 1.427 . S
N581 C579 1.384 . S
H582 C588 0.930 . S
H583 C592 0.930 . S
H584 C597 0.929 . S
H585 C595 0.929 . S
H586 C590 0.929 . S
H587 C596 0.929 . S
C588 H582 0.930 . S
C588 C589 1.367 . S
C588 C596 1.378 . S
C589 C588 1.367 . S
C589 C597 1.433 . S
C590 H586 0.929 . S
C590 C592 1.378 . S
C590 C594 1.350 . S
C591 C594 1.463 . S
C591 C596 1.350 . S
C591 N599 1.427 . S
C592 H583 0.930 . S
C592 C590 1.378 . S
C592 C593 1.367 . S
C593 C592 1.367 . S
C593 C595 1.433 . S
C594 C590 1.350 . S
C594 C591 1.463 . S
C594 N598 1.427 . S
C595 H585 0.929 . S
C595 C593 1.433 . S
C595 N598 1.384 . S
C596 H587 0.929 . S
C596 C588 1.378 . S
C596 C591 1.350 . S
C597 H584 0.929 . S
C597 C589 1.433 . S
C597 N599 1.384 . S
N598 C594 1.427 . S
N598 C595 1.384 . S
N599 C591 1.427 . S
N599 C597 1.384 . S
C175 C12 1.682 . S
C179 C85 1.683 . S
C193 C15 1.685 . S
C197 C98 1.685 . S
C211 C28 1.684 . S
C215 C125 1.685 . S
C229 C43 1.682 . S
C233 C138 1.684 . S
C247 C56 1.686 . S
C251 C140 1.685 . S
C265 C155 1.684 . S
C269 C70 1.682 . S
C283 C0 1.797 . S
C287 C152 1.799 . S
C301 C27 1.793 . S
C305 C167 1.798 . S
C319 C40 1.795 . S
C323 C97 1.795 . S
C337 C55 1.795 . S
C341 C110 1.800 . S
C355 C68 1.797 . S
C359 C113 1.792 . S
C373 C82 1.799 . S
C377 C126 1.798 . S
C391 C1 1.782 . S
C395 C54 1.788 . S
C409 C26 1.783 . S
C413 C69 1.776 . S
C427 C83 1.782 . S
C431 C41 1.786 . S
C445 C96 1.783 . S
C449 C127 1.777 . S
C463 C153 1.784 . S
C467 C111 1.779 . S
C481 C112 1.780 . S
C485 C166 1.779 . S
C499 C84 1.099 . S
C503 C13 1.097 . S
C517 C14 1.098 . S
C521 C99 1.094 . S
C535 C29 1.093 . S
C539 C124 1.096 . S
C553 C139 1.094 . S
C557 C42 1.093 . S
C571 C141 1.098 . S
C575 C57 1.098 . S
C589 C71 1.096 . S
C593 C154 1.093 . S
