# Generated by pormake.
# Topology snp, (6)-cn, num edge types: 1
# Building blocks:
#     Node 0, Type 0, BuildingBlock: FUNLAD_clean_sbu_0, # of connection points: 6
#     Node 1, Type 0, BuildingBlock: FUNLAD_clean_sbu_0, # of connection points: 6
#     Node 2, Type 0, BuildingBlock: FUNLAD_clean_sbu_0, # of connection points: 6
#     Node 3, Type 0, BuildingBlock: FUNLAD_clean_sbu_0, # of connection points: 6
#     Edge 4, Type (0, 0), BuildingBlock: TEMPAE_clean_linker_10, # of connection points: 2
#     Edge 5, Type (0, 0), BuildingBlock: TEMPAE_clean_linker_10, # of connection points: 2
#     Edge 6, Type (0, 0), BuildingBlock: TEMPAE_clean_linker_10, # of connection points: 2
#     Edge 7, Type (0, 0), BuildingBlock: TEMPAE_clean_linker_10, # of connection points: 2
#     Edge 8, Type (0, 0), BuildingBlock: TEMPAE_clean_linker_10, # of connection points: 2
#     Edge 9, Type (0, 0), BuildingBlock: TEMPAE_clean_linker_10, # of connection points: 2
#     Edge 10, Type (0, 0), BuildingBlock: TEMPAE_clean_linker_10, # of connection points: 2
#     Edge 11, Type (0, 0), BuildingBlock: TEMPAE_clean_linker_10, # of connection points: 2
#     Edge 12, Type (0, 0), BuildingBlock: TEMPAE_clean_linker_10, # of connection points: 2
#     Edge 13, Type (0, 0), BuildingBlock: TEMPAE_clean_linker_10, # of connection points: 2
#     Edge 14, Type (0, 0), BuildingBlock: TEMPAE_clean_linker_10, # of connection points: 2
#     Edge 15, Type (0, 0), BuildingBlock: TEMPAE_clean_linker_10, # of connection points: 2
# Relax obj value: 1.239
# Max RMSD: 0.253
# Mean RMSD: 0.253
data_MOF--net-snp--node1-FUNLAD_clean_sbu_0--edge1-TEMPAE_clean_linker_10
_symmetry_space_group_name_H-M    P1
_symmetry_Int_Tables_number       1
_symmetry_cell_setting            triclinic
loop_
_symmetry_equiv_pos_as_xyz
'x, y, z'
_cell_length_a     35.206774
_cell_length_b     34.871625
_cell_length_c     21.690789
_cell_angle_alpha  91.024435
_cell_angle_beta   89.9617
_cell_angle_gamma 90.041864
loop_
_atom_site_label
_atom_site_type_symbol
_atom_site_fract_x
_atom_site_fract_y
_atom_site_fract_z
_atom_type_partial_charge
C0 C 0.25787 0.05417 0.90164 0.0
N1 N 0.34732 0.08967 0.02418 0.0
C2 C 0.36202 0.05365 0.01833 0.0
C3 C 0.40144 0.04784 0.022 0.0
C4 C 0.42583 0.07944 0.03115 0.0
C5 C 0.40959 0.11589 0.0395 0.0
C6 C 0.3703 0.12036 0.03576 0.0
Zn7 Zn 0.2913 0.10271 1.00534 0.0
C8 C 0.2859 0.16222 0.90962 0.0
N9 N 0.18042 0.14024 0.95268 0.0
C10 C 0.15318 0.12045 0.921 0.0
C11 C 0.17723 0.17931 0.95773 0.0
C12 C 0.14246 0.19712 0.94648 0.0
C13 C 0.11058 0.1731 0.942 0.0
C14 C 0.11736 0.1371 0.91323 0.0
Zn15 Zn 0.23139 0.11715 0.98275 0.0
O16 O 0.28932 0.05995 0.92976 0.0
C17 C 0.23354 0.05586 0.07869 0.0
O18 O 0.22926 0.07444 0.91619 0.0
H19 H 0.20086 0.19672 0.97321 0.0
H20 H 0.34338 0.02964 1.00849 0.0
H21 H 0.15807 0.09117 0.90596 0.0
O22 O 0.26906 0.05938 0.06729 0.0
O23 O 0.20983 0.07762 0.05133 0.0
H24 H 0.3583 0.14882 0.03965 0.0
O25 O 0.23344 0.15947 0.05042 0.0
O26 O 0.29003 0.14489 0.08328 0.0
O27 O 0.25202 0.15317 0.91954 0.0
O28 O 0.31207 0.14637 0.94037 0.0
C29 C 0.25995 0.16505 0.0887 0.0
H30 H 0.41278 0.01922 1.01509 0.0
H31 H 0.42719 0.14097 0.04761 0.0
H32 H 0.13929 0.22709 0.95952 0.0
H33 H 0.09412 0.11899 0.89777 0.0
C34 C 0.10287 0.25013 0.44223 0.0
N35 N 0.06046 0.34452 0.54791 0.0
C36 C 0.09563 0.36007 0.54053 0.0
C37 C 0.10053 0.39995 0.54131 0.0
C38 C 0.06901 0.4242 0.55015 0.0
C39 C 0.03323 0.40727 0.55913 0.0
C40 C 0.02956 0.36729 0.5576 0.0
Zn41 Zn 0.05263 0.28596 0.53866 0.0
C42 C 0.98967 0.26406 0.45752 0.0
N43 N 0.03361 0.16593 0.52296 0.0
C44 C 0.02566 0.16148 0.46208 0.0
C45 C 0.01668 0.14296 0.56534 0.0
C46 C 0.98967 0.11538 0.54622 0.0
C47 C 0.97813 0.11381 0.48398 0.0
C48 C 0.99584 0.13861 0.44307 0.0
Zn49 Zn 0.0481 0.22223 0.53892 0.0
O50 O 0.09318 0.28339 0.46201 0.0
C51 C 0.11095 0.24135 0.61755 0.0
O52 O 0.0874 0.22099 0.46579 0.0
H53 H 0.0222 0.14751 0.61398 0.0
H54 H 0.11988 0.34155 0.53293 0.0
H55 H 0.03801 0.18023 0.42852 0.0
O56 O 0.09992 0.27453 0.60072 0.0
O57 O 0.09301 0.21151 0.59913 0.0
H58 H 1.0018 0.35444 0.56279 0.0
O59 O 1.01144 0.22281 0.61036 0.0
O60 O 0.01231 0.28553 0.61898 0.0
O61 O 1.00252 0.23378 0.48021 0.0
O62 O 1.00556 0.29564 0.47248 0.0
C63 C 1.00028 0.25301 0.63739 0.0
H64 H 0.12872 0.41169 0.53489 0.0
H65 H 1.00806 0.42475 0.56541 0.0
H66 H 0.9771 0.09656 0.57976 0.0
H67 H 0.98726 0.14044 0.3959 0.0
C68 C 0.90076 0.08963 0.96662 0.0
N69 N 0.79225 0.0524 0.03337 0.0
C70 C 0.77631 0.08785 0.03924 0.0
C71 C 0.73678 0.0923 0.03573 0.0
C72 C 0.71345 0.06002 0.02559 0.0
C73 C 0.73084 0.02402 0.01819 0.0
C74 C 0.77029 0.02083 0.0226 0.0
Zn75 Zn 0.84944 0.04315 0.04821 0.0
C76 C 0.88098 0.97875 0.96613 0.0
N77 N 0.96397 1.0161 0.08221 0.0
C78 C 0.97395 0.02066 0.1422 0.0
C79 C 0.98709 0.99725 0.04157 0.0
C80 C 0.0232 0.98551 0.05987 0.0
C81 C 0.03647 0.99521 0.11968 0.0
C82 C 1.00985 1.01067 0.1617 0.0
Zn83 Zn 0.91 0.0309 0.0628 0.0
O84 O 0.86604 0.0859 0.98267 0.0
C85 C 0.88416 0.09889 0.14031 0.0
O86 O 0.92582 0.06798 0.99025 0.0
H87 H 0.97814 0.99217 0.99447 0.0
H88 H 0.79415 0.11261 0.04804 0.0
H89 H 0.9544 0.03322 0.17496 0.0
O90 O 0.85133 0.08889 0.12051 0.0
O91 O 0.91266 0.07902 0.12349 0.0
H92 H 0.7833 0.99279 0.0192 0.0
O93 O 0.89519 0.99485 0.13385 0.0
O94 O 0.83427 0.99966 0.11726 0.0
O95 O 0.90827 0.98488 1.00253 0.0
O96 O 0.85107 0.99921 0.97202 0.0
C97 C 0.86175 0.98489 0.14667 0.0
H98 H 0.72458 0.12066 0.04122 0.0
H99 H 0.71402 0.99829 1.01118 0.0
H100 H 0.04141 0.97226 0.02547 0.0
H101 H 0.01734 0.01913 0.20779 0.0
C102 C 0.13133 0.88546 0.40634 0.0
N103 N 0.09326 0.97545 0.51133 0.0
C104 C 0.12599 0.98799 0.48438 0.0
C105 C 0.12616 0.02267 0.45349 0.0
C106 C 0.09203 0.04297 0.4507 0.0
C107 C 0.06539 0.03668 0.49778 0.0
C108 C 0.065 1.00065 0.5251 0.0
Zn109 Zn 0.08758 0.91692 0.51532 0.0
C110 C 0.02184 0.88228 0.4439 0.0
N111 N 0.08816 0.79418 0.51761 0.0
C112 C 0.121 0.77375 0.51278 0.0
C113 C 0.05426 0.77614 0.52574 0.0
C114 C 0.05245 0.73615 0.52905 0.0
C115 C 0.08586 0.71427 0.5244 0.0
C116 C 0.12051 0.73365 0.51628 0.0
Zn117 Zn 0.0889 0.85338 0.51375 0.0
O118 O 0.11629 0.91433 0.4319 0.0
C119 C 0.15323 0.88817 0.5859 0.0
O120 O 0.1271 0.85264 0.43096 0.0
H121 H 0.02846 0.79281 0.52992 0.0
H122 H 0.15003 0.969 0.47869 0.0
H123 H 0.14766 0.78857 0.50626 0.0
O124 O 0.13845 0.91778 0.56334 0.0
O125 O 0.13771 0.85566 0.57592 0.0
H126 H 0.04018 0.99135 0.55018 0.0
O127 O 0.0499 0.85812 0.5939 0.0
O128 O 0.05759 0.92066 0.59792 0.0
O129 O 0.04025 0.85166 0.45375 0.0
O130 O 0.0346 0.91413 0.46528 0.0
C131 C 0.04269 0.89064 0.61967 0.0
H132 H 0.14886 0.02829 0.42116 0.0
H133 H 0.04036 0.0544 0.50133 0.0
H134 H 0.02516 0.72255 0.53613 0.0
H135 H 0.14694 0.71797 0.51189 0.0
C136 C 0.08758 0.02555 0.1805 0.0
C137 C 0.07824 0.99994 0.13225 0.0
C138 C 0.09421 0.064 0.16542 0.0
C139 C 0.09991 0.07269 0.10263 0.0
C140 C 0.1087 0.04166 0.06159 0.0
C141 C 0.10089 1.00417 0.07998 0.0
C142 C 0.09311 0.09429 0.21529 0.0
C143 C 0.12392 0.04786 0.99828 0.0
C144 C 0.05592 0.14559 0.99789 0.0
C145 C 0.08568 0.17221 0.99802 0.0
C146 C 0.05765 0.11465 0.03843 0.0
C147 C 0.08983 0.11102 0.07776 0.0
C148 C 0.11273 0.14384 0.08809 0.0
C149 C 0.10518 0.17679 0.05431 0.0
C150 C 0.02708 0.08469 0.03499 0.0
C151 C 0.14745 0.14405 0.12815 0.0
H152 H 0.08023 0.01846 0.22723 0.0
H153 H 0.10383 0.98055 0.04722 0.0
H154 H 0.07553 0.11915 0.20177 0.0
H155 H 0.08274 0.08257 0.25894 0.0
H156 H 0.12232 0.10418 0.22463 0.0
H157 H 0.13416 0.02087 0.97593 0.0
H158 H 0.10175 0.06054 0.96872 0.0
H159 H 0.14782 0.06803 1.00252 0.0
H160 H 0.03625 0.14455 0.95943 0.0
H161 H 0.12344 0.20151 0.06158 0.0
H162 H 1.00038 0.09635 1.01553 0.0
H163 H 0.02123 0.07395 0.08173 0.0
H164 H 0.03653 0.06052 1.00489 0.0
H165 H 0.14072 0.15941 0.17193 0.0
H166 H 0.17044 0.16017 0.1057 0.0
H167 H 0.15825 0.11496 0.13725 0.0
C168 C 0.06652 1.01085 0.35803 0.0
C169 C 0.07451 0.0456 0.38933 0.0
C170 C 0.03184 1.00634 0.32717 0.0
C171 C 1.00568 0.03695 0.32825 0.0
C172 C 0.02232 0.07384 0.33453 0.0
C173 C 0.05443 0.07819 0.37245 0.0
C174 C 0.02169 0.96782 0.30103 0.0
C175 C 1.0107 0.10585 0.29322 0.0
C176 C 0.93582 0.08716 0.40042 0.0
C177 C 0.95487 0.08205 0.457 0.0
C178 C 0.94064 0.05987 0.35242 0.0
C179 C 0.96814 0.03121 0.36079 0.0
C180 C 0.97057 0.0181 0.4223 0.0
C181 C 0.96541 0.04461 0.47091 0.0
C182 C 0.92149 0.06436 0.2911 0.0
C183 C 0.98351 0.97863 0.43675 0.0
H184 H 0.08388 0.98571 0.36568 0.0
H185 H 0.06418 0.10628 0.38741 0.0
H186 H 0.99107 0.96626 0.28929 0.0
H187 H 0.03875 0.96204 0.25892 0.0
H188 H 0.02982 0.94562 0.33426 0.0
H189 H 0.98206 0.11653 0.30436 0.0
H190 H 0.03083 0.13034 0.29671 0.0
H191 H 1.0097 0.09514 0.24471 0.0
H192 H 0.92296 0.11429 0.39037 0.0
H193 H 0.97492 0.03755 0.51683 0.0
H194 H 0.91437 0.03576 0.2713 0.0
H195 H 0.94077 0.0778 0.2577 0.0
H196 H 0.89541 0.0821 0.29546 0.0
H197 H 0.01469 0.97873 0.44013 0.0
H198 H 0.97493 0.9584 0.39965 0.0
H199 H 0.9717 0.96902 0.48142 0.0
C200 C 0.65225 0.08563 0.06973 0.0
C201 C 0.6712 0.06335 0.02485 0.0
C202 C 0.61234 0.08753 0.07136 0.0
C203 C 0.59073 0.06693 0.02668 0.0
C204 C 0.60971 0.0447 0.98087 0.0
C205 C 0.64963 0.04305 0.98067 0.0
C206 C 0.59326 0.11138 0.1212 0.0
C207 C 0.58784 0.02274 0.93188 0.0
C208 C 0.48637 0.04567 0.06042 0.0
C209 C 0.46799 0.07521 0.02909 0.0
C210 C 0.52628 0.04257 0.06005 0.0
C211 C 0.54832 0.06938 0.02702 0.0
C212 C 0.52983 0.09881 0.99445 0.0
C213 C 0.49003 0.1014 0.99601 0.0
C214 C 0.54489 1.0109 0.09566 0.0
C215 C 0.5521 0.1277 0.958 0.0
H216 H 0.66865 0.10096 0.10454 0.0
H217 H 0.66405 0.02606 0.94549 0.0
H218 H 0.57567 0.13404 0.10013 0.0
H219 H 0.57392 0.09312 0.14846 0.0
H220 H 0.61405 0.12524 0.15303 0.0
H221 H 0.60681 1.00676 0.89955 0.0
H222 H 0.56828 1.00205 0.95371 0.0
H223 H 0.57016 0.04278 0.90501 0.0
H224 H 0.46958 0.02547 0.08633 0.0
H225 H 0.47604 0.12391 0.97075 0.0
H226 H 0.56402 0.02343 0.13134 0.0
H227 H 0.56266 0.99293 0.06433 0.0
H228 H 0.52381 0.99218 0.11857 0.0
H229 H 0.57156 0.14394 0.98907 0.0
H230 H 0.53342 0.14841 0.93426 0.0
H231 H 0.56992 0.11271 0.92293 0.0
C232 C 0.05378 0.49059 0.59056 0.0
C233 C 0.07313 0.4668 0.54815 0.0
C234 C 0.05647 0.53079 0.58791 0.0
C235 C 0.07884 0.5478 0.54142 0.0
C236 C 0.09865 0.52395 0.49873 0.0
C237 C 0.09567 0.48383 0.50274 0.0
C238 C 0.03516 0.5551 0.63467 0.0
C239 C 0.12253 0.54084 0.44813 0.0
C240 C 0.05595 0.65061 0.4973 0.0
C241 C 0.08445 0.67155 0.52818 0.0
C242 C 0.05393 0.61043 0.50095 0.0
C243 C 0.08092 0.59051 0.53671 0.0
C244 C 0.10979 0.61146 0.56798 0.0
C245 C 0.11129 0.65164 0.56315 0.0
C246 C 0.02291 0.58925 0.4664 0.0
C247 C 0.13892 0.59144 0.607 0.0
H248 H 0.03665 0.47772 0.62622 0.0
H249 H 0.11032 0.46575 0.46926 0.0
H250 H 0.05516 0.57446 0.65961 0.0
H251 H 0.01426 0.57346 0.6109 0.0
H252 H 0.01983 0.53751 0.6689 0.0
H253 H 0.13669 0.51843 0.41925 0.0
H254 H 0.10447 0.55858 0.41796 0.0
H255 H 0.14461 0.55998 0.46828 0.0
H256 H 0.03538 0.66566 0.46954 0.0
H257 H 0.13314 0.66758 0.58776 0.0
H258 H 1.00506 0.57309 0.49915 0.0
H259 H 0.0356 0.56804 0.4337 0.0
H260 H 1.00433 0.60887 0.44018 0.0
H261 H 0.1245 0.57549 0.64415 0.0
H262 H 0.15954 0.61179 0.62837 0.0
H263 H 0.15479 0.57015 0.57846 0.0
C264 C 0.13824 0.20673 0.36972 0.0
C265 C 0.13275 0.24387 0.39422 0.0
C266 C 0.16642 0.19871 0.32563 0.0
C267 C 0.19022 0.22861 0.30473 0.0
C268 C 0.18647 0.26578 0.33193 0.0
C269 C 0.1574 0.27316 0.37564 0.0
C270 C 0.17074 0.15764 0.30342 0.0
C271 C 0.21381 0.29744 0.31602 0.0
C272 C 0.26708 0.18464 0.20116 0.0
C273 C 0.25139 0.1907 0.14273 0.0
C274 C 0.24993 0.20063 0.25475 0.0
C275 C 0.21544 0.22158 0.24981 0.0
C276 C 0.20152 0.23024 0.19041 0.0
C277 C 0.2206 0.21612 0.13799 0.0
C278 C 0.26716 0.19222 0.31661 0.0
C279 C 0.16388 0.25031 0.18176 0.0
H280 H 0.12027 0.18345 0.38489 0.0
H281 H 0.1544 0.30164 0.39589 0.0
H282 H 0.14331 0.14207 0.30612 0.0
H283 H 0.18189 0.15515 0.25578 0.0
H284 H 0.19089 0.14284 0.33423 0.0
H285 H 0.21079 0.32276 0.34746 0.0
H286 H 0.24347 0.28676 0.31851 0.0
H287 H 0.20896 0.30683 0.26814 0.0
H288 H 0.29106 0.16541 0.20558 0.0
H289 H 0.2087 0.22168 0.09291 0.0
H290 H 0.25629 0.1643 0.33281 0.0
H291 H 0.25994 0.21469 0.35158 0.0
H292 H 0.29855 0.18991 0.31304 0.0
H293 H 0.14075 0.23262 0.20136 0.0
H294 H 0.15737 0.25526 0.13243 0.0
H295 H 0.1636 0.27833 0.20653 0.0
C296 C 0.98662 0.25573 0.75057 0.0
C297 C 0.97452 0.24725 0.69031 0.0
C298 C 0.97154 0.23567 0.80112 0.0
C299 C 0.94458 0.20591 0.79066 0.0
C300 C 0.93006 0.1998 0.73042 0.0
C301 C 0.94479 0.2209 0.68142 0.0
C302 C 0.98685 0.24417 0.86483 0.0
C303 C 0.90206 0.16799 0.71623 0.0
C304 C 0.94658 0.11679 0.89014 0.0
C305 C 0.91231 0.11994 0.92286 0.0
C306 C 0.95785 0.14503 0.84832 0.0
C307 C 0.93485 0.17797 0.84007 0.0
C308 C 0.90102 0.18208 0.87499 0.0
C309 C 0.88985 0.15278 0.91516 0.0
C310 C 0.99388 0.13898 0.81158 0.0
C311 C 0.87647 0.21731 0.86957 0.0
H312 H 1.01015 0.27539 0.75768 0.0
H313 H 0.93587 0.21379 0.63471 0.0
H314 H 0.96398 0.2425 0.89993 0.0
H315 H 1.00874 0.2226 0.8764 0.0
H316 H 1.00018 0.27304 0.86778 0.0
H317 H 0.8911 0.16918 0.66828 0.0
H318 H 0.91617 0.13985 0.72235 0.0
H319 H 0.87764 0.16934 0.74846 0.0
H320 H 0.96426 0.09168 0.89616 0.0
H321 H 0.86372 0.15586 0.94122 0.0
H322 H 0.01381 0.16311 0.82025 0.0
H323 H 0.98727 0.13841 0.76153 0.0
H324 H 1.00848 0.11182 0.82323 0.0
H325 H 0.89406 0.24358 0.87507 0.0
H326 H 0.85339 0.21814 0.90451 0.0
H327 H 0.86345 0.21801 0.82306 0.0
C328 C 0.99063 0.88225 0.34074 0.0
C329 C 0.98717 0.88136 0.4048 0.0
C330 C 0.95943 0.8916 0.3032 0.0
C331 C 0.92267 0.89683 0.33007 0.0
C332 C 0.91831 0.88871 0.39383 0.0
C333 C 0.95076 0.88285 0.43084 0.0
C334 C 0.96709 0.89787 0.23543 0.0
C335 C 0.87991 0.88663 0.42431 0.0
C336 C 0.86145 0.97397 0.25817 0.0
C337 C 0.85719 0.95857 0.19876 0.0
C338 C 0.87859 0.95273 0.30519 0.0
C339 C 0.89098 0.91442 0.29258 0.0
C340 C 0.87844 0.89654 0.23673 0.0
C341 C 0.86325 0.9192 0.18944 0.0
C342 C 0.88384 0.97243 0.36703 0.0
C343 C 0.88226 0.85397 0.22495 0.0
H344 H 0.01862 0.879 0.32037 0.0
H345 H 0.94763 0.88013 0.48031 0.0
H346 H 0.95163 0.92327 0.2183 0.0
H347 H 0.99781 0.90196 0.22583 0.0
H348 H 0.95801 0.87224 0.20844 0.0
H349 H 0.87723 0.85888 0.4483 0.0
H350 H 0.87761 0.90951 0.46035 0.0
H351 H 0.85602 0.88904 0.3913 0.0
H352 H 0.85495 1.00405 0.26609 0.0
H353 H 0.85889 0.90663 0.1439 0.0
H354 H 0.91093 0.96471 0.38881 0.0
H355 H 0.86041 0.96371 0.39793 0.0
H356 H 0.88237 1.0041 0.36385 0.0
H357 H 0.89729 0.84841 0.18067 0.0
H358 H 0.85343 0.8414 0.21973 0.0
H359 H 0.89695 0.83892 0.26272 0.0
C360 C 0.21399 0.91953 0.613 0.0
C361 C 0.18501 0.89405 0.62925 0.0
C362 C 0.23554 0.93878 0.65828 0.0
C363 C 0.22726 0.93297 0.72131 0.0
C364 C 0.20149 0.9035 0.7376 0.0
C365 C 0.18065 0.88419 0.69112 0.0
C366 C 0.26326 0.96921 0.63848 0.0
C367 C 0.19202 0.89601 0.80412 0.0
C368 C 0.27825 0.99312 0.84577 0.0
C369 C 0.25281 0.02382 0.85336 0.0
C370 C 0.27067 0.96308 0.80291 0.0
C371 C 0.23691 0.96389 0.76724 0.0
C372 C 0.21165 0.99525 0.77421 0.0
C373 C 0.21997 0.02465 0.81675 0.0
C374 C 0.29829 0.9302 0.79674 0.0
C375 C 0.17541 0.9978 0.73702 0.0
H376 H 0.21731 0.92719 0.56503 0.0
H377 H 0.15799 0.86478 0.70381 0.0
H378 H 0.24927 0.9977 0.64154 0.0
H379 H 0.2885 0.97008 0.66904 0.0
H380 H 0.2728 0.96434 0.59013 0.0
H381 H 0.17851 0.86748 0.80962 0.0
H382 H 0.21783 0.89763 0.83333 0.0
H383 H 0.17188 0.91826 0.82121 0.0
H384 H 0.30354 0.99214 0.87416 0.0
H385 H 0.20021 0.04834 0.82171 0.0
H386 H 0.30498 0.92424 0.74751 0.0
H387 H 0.28519 0.90388 0.81538 0.0
H388 H 0.32518 0.93596 0.82203 0.0
H389 H 0.18215 0.99804 0.68706 0.0
H390 H 0.15868 0.02396 0.7486 0.0
H391 H 0.1573 0.97236 0.74535 0.0
C392 C 0.88128 0.96451 0.85224 0.0
C393 C 0.8889 0.95283 0.91249 0.0
C394 C 0.90143 0.94854 0.80156 0.0
C395 C 0.92993 0.92047 0.81154 0.0
C396 C 0.93468 0.90591 0.87155 0.0
C397 C 0.91406 0.92211 0.921 0.0
C398 C 0.89478 0.96443 0.73828 0.0
C399 C 0.9646 0.87623 0.88504 0.0
C400 C 0.98354 0.87123 0.67756 0.0
C401 C 0.01541 0.89514 0.67188 0.0
C402 C 0.95512 0.87918 0.72212 0.0
C403 C 0.95901 0.91138 0.76266 0.0
C404 C 0.99175 0.93485 0.758 0.0
C405 C 0.01917 0.92668 0.71255 0.0
C406 C 0.92049 0.85378 0.7248 0.0
C407 C 0.99778 0.96898 0.80084 0.0
H408 H 0.86234 0.98854 0.84523 0.0
H409 H 0.92023 0.91303 0.96751 0.0
H410 H 0.91799 0.98468 0.72703 0.0
H411 H 0.89501 0.94113 0.70276 0.0
H412 H 0.86735 0.98005 0.73568 0.0
H413 H 0.96434 0.85288 0.84968 0.0
H414 H 0.99306 0.88991 0.8838 0.0
H415 H 0.96062 0.86349 0.93118 0.0
H416 H 0.98007 0.84722 0.64561 0.0
H417 H 0.04366 0.94534 0.70847 0.0
H418 H 0.89474 0.87086 0.71459 0.0
H419 H 0.91695 0.84239 0.77187 0.0
H420 H 0.92211 0.8293 0.69141 0.0
H421 H 0.97434 0.98988 0.79531 0.0
H422 H 0.02513 0.98385 0.79208 0.0
H423 H 0.99742 0.95966 0.84949 0.0
C424 C 0.23064 0.98736 0.11391 0.0
C425 C 0.22015 0.02595 0.12257 0.0
C426 C 0.21868 0.95871 0.1551 0.0
C427 C 0.19647 0.96876 0.20756 0.0
C428 C 0.18641 1.00789 0.21704 0.0
C429 C 0.19789 0.03578 0.17421 0.0
C430 C 0.22975 0.91756 0.14248 0.0
C431 C 0.16443 0.02048 0.27364 0.0
C432 C 0.13371 0.897 0.29363 0.0
C433 C 0.15337 0.89297 0.34933 0.0
C434 C 0.14844 0.91925 0.24531 0.0
C435 C 0.1837 0.93875 0.25283 0.0
C436 C 0.20501 0.93216 0.30722 0.0
C437 C 0.18943 0.90988 0.35486 0.0
C438 C 0.12443 0.923 0.18827 0.0
C439 C 0.24334 0.95064 0.31706 0.0
H440 H 0.24788 0.97948 0.07425 0.0
H441 H 0.19052 0.06555 0.18239 0.0
H442 H 0.24533 0.90609 0.18261 0.0
H443 H 0.20378 0.89987 0.13608 0.0
H444 H 0.24784 0.91431 0.10072 0.0
H445 H 0.15539 0.05089 0.27168 0.0
H446 H 0.13907 1.00206 0.27988 0.0
H447 H 0.18245 0.0172 0.31508 0.0
H448 H 0.10528 0.88518 0.28949 0.0
H449 H 0.2043 0.9081 0.39848 0.0
H450 H 0.11883 0.89402 0.16822 0.0
H451 H 0.13755 0.94081 0.15224 0.0
H452 H 0.09644 0.93529 0.20134 0.0
H453 H 0.26082 0.94828 0.27458 0.0
H454 H 0.2591 0.93744 0.35562 0.0
H455 H 0.23957 0.98158 0.32804 0.0
C456 C 0.17666 0.26162 0.64922 0.0
C457 C 0.14528 0.23721 0.65639 0.0
C458 C 0.21026 0.25627 0.68335 0.0
C459 C 0.21199 0.22667 0.72716 0.0
C460 C 0.18002 0.20237 0.73502 0.0
C461 C 0.14743 0.20753 0.69883 0.0
C462 C 0.24415 0.28159 0.67144 0.0
C463 C 0.1801 0.17078 0.7818 0.0
C464 C 0.29436 0.17572 0.80049 0.0
C465 C 0.29147 0.19036 0.86087 0.0
C466 C 0.27216 0.19104 0.75286 0.0
C467 C 0.24633 0.22118 0.76668 0.0
C468 C 0.24853 0.2401 0.82491 0.0
C469 C 0.27231 0.22521 0.87062 0.0
C470 C 0.27258 0.17145 0.69034 0.0
C471 C 0.22128 0.27177 0.84291 0.0
H472 H 0.17532 0.28418 0.61554 0.0
H473 H 0.12328 0.18858 0.70438 0.0
H474 H 0.25381 0.29574 0.71486 0.0
H475 H 0.2681 0.26377 0.65404 0.0
H476 H 0.23791 0.30402 0.63717 0.0
H477 H 0.15163 0.15753 0.78728 0.0
H478 H 0.20037 0.14802 0.7673 0.0
H479 H 0.1896 0.18212 0.82729 0.0
H480 H 0.30926 0.14888 0.7924 0.0
H481 H 0.27001 0.23661 0.91736 0.0
H482 H 0.26764 0.19232 0.65317 0.0
H483 H 0.24957 0.14972 0.68803 0.0
H484 H 0.30001 0.15654 0.68175 0.0
H485 H 0.21641 0.2916 0.80436 0.0
H486 H 0.23168 0.28856 0.88352 0.0
H487 H 0.19349 0.25886 0.85514 0.0
C488 C 0.86121 0.1567 0.20417 0.0
C489 C 0.89084 0.13411 0.17984 0.0
C490 C 0.86874 0.18899 0.24298 0.0
C491 C 0.90683 0.19845 0.25961 0.0
C492 C 0.93671 0.17755 0.23058 0.0
C493 C 0.92835 0.14599 0.19163 0.0
C494 C 0.83545 0.21227 0.26612 0.0
C495 C 0.97795 0.18795 0.24084 0.0
C496 C 0.95938 0.2756 0.35346 0.0
C497 C 0.95826 0.25924 0.41199 0.0
C498 C 0.93787 0.25963 0.30406 0.0
C499 C 0.91624 0.22554 0.31286 0.0
C500 C 0.91059 0.21319 0.37423 0.0
C501 C 0.93164 0.23011 0.42254 0.0
C502 C 0.93942 0.27912 0.24262 0.0
C503 C 0.88309 0.1816 0.39002 0.0
H504 H 0.83206 0.14904 0.19356 0.0
H505 H 0.95171 0.13005 0.17107 0.0
H506 H 0.81812 0.19464 0.29765 0.0
H507 H 0.84409 0.23917 0.29035 0.0
H508 H 0.81685 0.21971 0.22676 0.0
H509 H 0.99761 0.16745 0.21762 0.0
H510 H 0.98391 0.21636 0.22117 0.0
H511 H 0.98455 0.18945 0.29088 0.0
H512 H 0.97892 0.29895 0.34497 0.0
H513 H 0.92937 0.21844 0.46844 0.0
H514 H 0.92386 0.26325 0.20573 0.0
H515 H 0.96942 0.28333 0.22838 0.0
H516 H 0.9267 0.30812 0.24769 0.0
H517 H 0.89013 0.16835 0.43479 0.0
H518 H 0.88184 0.15877 0.35396 0.0
H519 H 0.85428 0.19416 0.39471 0.0
loop_
_geom_bond_atom_site_label_1
_geom_bond_atom_site_label_2
_geom_bond_distance
_geom_bond_site_symmetry_2
_ccdc_geom_bond_type
C0 O16 1.251 . S
C0 O18 1.254 . S
N1 C2 1.333 1_554 S
N1 C6 1.307 . S
N1 Zn7 2.020 . S
C2 N1 1.333 1_556 S
C2 C3 1.379 . S
C2 H20 0.952 . S
C3 C2 1.379 . S
C3 C4 1.390 1_556 S
C3 H30 0.949 . S
C4 C3 1.390 1_554 S
C4 C5 1.357 . S
C5 C4 1.357 . S
C5 C6 1.370 . S
C5 H31 0.950 . S
C6 N1 1.307 . S
C6 C5 1.370 . S
C6 H24 0.948 . S
Zn7 N1 2.020 . S
Zn7 O16 2.039 1_554 S
Zn7 O22 2.034 . S
Zn7 O26 2.025 . S
Zn7 O28 2.024 1_554 S
C8 O27 1.246 . S
C8 O28 1.249 . S
N9 C10 1.307 . S
N9 C11 1.333 1_556 S
N9 Zn15 2.020 1_556 S
C10 N9 1.307 . S
C10 C14 1.370 . S
C10 H21 0.948 . S
C11 N9 1.333 1_554 S
C11 C12 1.379 . S
C11 H19 0.952 . S
C12 C11 1.379 . S
C12 C13 1.390 . S
C12 H32 0.949 . S
C13 C12 1.390 . S
C13 C14 1.357 1_554 S
C14 C10 1.370 . S
C14 C13 1.357 1_556 S
C14 H33 0.950 . S
Zn15 N9 2.020 1_554 S
Zn15 O18 2.025 1_554 S
Zn15 O23 2.024 . S
Zn15 O25 2.039 . S
Zn15 O27 2.034 1_554 S
O16 C0 1.251 . S
O16 Zn7 2.039 1_556 S
C17 O22 1.246 . S
C17 O23 1.249 . S
O18 C0 1.254 . S
O18 Zn15 2.025 1_556 S
H19 C11 0.952 . S
H20 C2 0.952 . S
H21 C10 0.948 . S
O22 Zn7 2.034 . S
O22 C17 1.246 . S
O23 Zn15 2.024 . S
O23 C17 1.249 . S
H24 C6 0.948 . S
O25 Zn15 2.039 . S
O25 C29 1.251 . S
O26 Zn7 2.025 . S
O26 C29 1.254 . S
O27 C8 1.246 . S
O27 Zn15 2.034 1_556 S
O28 Zn7 2.024 1_556 S
O28 C8 1.249 . S
C29 O25 1.251 . S
C29 O26 1.254 . S
H30 C3 0.949 . S
H31 C5 0.950 . S
H32 C12 0.949 . S
H33 C14 0.950 . S
C34 O50 1.251 . S
C34 O52 1.254 . S
N35 C36 1.333 . S
N35 C40 1.307 . S
N35 Zn41 2.020 . S
C36 N35 1.333 . S
C36 C37 1.379 . S
C36 H54 0.952 . S
C37 C36 1.379 . S
C37 C38 1.390 . S
C37 H64 0.949 . S
C38 C37 1.390 . S
C38 C39 1.357 . S
C39 C38 1.357 . S
C39 C40 1.370 . S
C39 H65 0.950 1_455 S
C40 N35 1.307 . S
C40 C39 1.370 . S
C40 H58 0.948 1_455 S
Zn41 N35 2.020 . S
Zn41 O50 2.039 . S
Zn41 O56 2.034 . S
Zn41 O60 2.025 1_455 S
Zn41 O62 2.024 1_455 S
C42 O61 1.246 . S
C42 O62 1.249 . S
N43 C44 1.307 . S
N43 C45 1.333 . S
N43 Zn49 2.020 . S
C44 N43 1.307 . S
C44 C48 1.370 . S
C44 H55 0.948 . S
C45 N43 1.333 . S
C45 C46 1.379 . S
C45 H53 0.952 1_455 S
C46 C45 1.379 . S
C46 C47 1.390 . S
C46 H66 0.949 1_455 S
C47 C46 1.390 . S
C47 C48 1.357 . S
C48 C44 1.370 . S
C48 C47 1.357 . S
C48 H67 0.950 . S
Zn49 N43 2.020 . S
Zn49 O52 2.025 . S
Zn49 O57 2.024 . S
Zn49 O59 2.039 . S
Zn49 O61 2.033 1_455 S
O50 C34 1.251 . S
O50 Zn41 2.039 . S
C51 O56 1.246 . S
C51 O57 1.249 . S
O52 C34 1.254 . S
O52 Zn49 2.025 . S
H53 C45 0.952 1_655 S
H54 C36 0.952 . S
H55 C44 0.948 . S
O56 Zn41 2.034 . S
O56 C51 1.246 . S
O57 Zn49 2.024 . S
O57 C51 1.249 . S
H58 C40 0.948 1_655 S
O59 Zn49 2.039 . S
O59 C63 1.251 1_455 S
O60 Zn41 2.025 1_655 S
O60 C63 1.254 . S
O61 C42 1.246 . S
O61 Zn49 2.033 1_655 S
O62 Zn41 2.024 1_655 S
O62 C42 1.249 . S
C63 O59 1.251 1_655 S
C63 O60 1.254 . S
H64 C37 0.949 . S
H65 C39 0.950 1_655 S
H66 C46 0.949 1_655 S
H67 C48 0.950 . S
C68 O84 1.251 . S
C68 O86 1.254 . S
N69 C70 1.333 1_554 S
N69 C74 1.307 . S
N69 Zn75 2.020 . S
C70 N69 1.333 1_556 S
C70 C71 1.379 . S
C70 H88 0.952 . S
C71 C70 1.379 . S
C71 C72 1.391 . S
C71 H98 0.949 . S
C72 C71 1.391 . S
C72 C73 1.356 1_556 S
C73 C72 1.356 1_554 S
C73 C74 1.370 . S
C73 H99 0.950 1_545 S
C74 N69 1.307 . S
C74 C73 1.370 . S
C74 H92 0.948 1_545 S
Zn75 N69 2.020 . S
Zn75 O84 2.039 1_554 S
Zn75 O90 2.034 . S
Zn75 O94 2.025 1_545 S
Zn75 O96 2.024 1_544 S
C76 O95 1.255 . S
C76 O96 1.249 . S
N77 C78 1.310 . S
N77 C79 1.328 1_556 S
N77 Zn83 2.019 1_556 S
C78 N77 1.310 . S
C78 C82 1.370 1_655 S
C78 H89 0.948 . S
C79 N77 1.328 1_554 S
C79 C80 1.379 1_655 S
C79 H87 0.952 1_545 S
C80 C79 1.379 1_455 S
C80 C81 1.390 . S
C80 H100 0.949 1_545 S
C81 C80 1.390 . S
C81 C82 1.357 1_554 S
C82 C78 1.370 1_455 S
C82 C81 1.357 1_556 S
C82 H101 0.950 . S
Zn83 N77 2.019 1_554 S
Zn83 O86 2.025 1_554 S
Zn83 O91 2.024 . S
Zn83 O93 2.039 . S
Zn83 O95 2.015 1_544 S
O84 C68 1.251 . S
O84 Zn75 2.039 1_556 S
C85 O90 1.246 . S
C85 O91 1.249 . S
O86 C68 1.254 . S
O86 Zn83 2.025 1_556 S
H87 C79 0.952 1_565 S
H88 C70 0.952 . S
H89 C78 0.948 . S
O90 Zn75 2.034 . S
O90 C85 1.246 . S
O91 Zn83 2.024 . S
O91 C85 1.249 . S
H92 C74 0.948 1_565 S
O93 Zn83 2.039 . S
O93 C97 1.251 1_545 S
O94 Zn75 2.025 1_565 S
O94 C97 1.254 . S
O95 C76 1.255 . S
O95 Zn83 2.015 1_566 S
O96 Zn75 2.024 1_566 S
O96 C76 1.249 . S
C97 O93 1.251 1_565 S
C97 O94 1.254 . S
H98 C71 0.949 . S
H99 C73 0.950 1_565 S
H100 C80 0.949 1_565 S
H101 C82 0.950 . S
C102 O118 1.251 . S
C102 O120 1.254 . S
N103 C104 1.333 . S
N103 C108 1.307 . S
N103 Zn109 2.020 . S
C104 N103 1.333 . S
C104 C105 1.379 1_565 S
C104 H122 0.952 . S
C105 C104 1.379 1_545 S
C105 C106 1.390 . S
C105 H132 0.949 . S
C106 C105 1.390 . S
C106 C107 1.357 . S
C107 C106 1.357 . S
C107 C108 1.370 1_545 S
C107 H133 0.950 . S
C108 N103 1.307 . S
C108 C107 1.370 1_565 S
C108 H126 0.948 . S
Zn109 N103 2.020 . S
Zn109 O118 2.039 . S
Zn109 O124 2.034 . S
Zn109 O128 2.025 . S
Zn109 O130 2.024 . S
C110 O129 1.246 . S
C110 O130 1.249 . S
N111 C112 1.307 . S
N111 C113 1.333 . S
N111 Zn117 2.020 . S
C112 N111 1.307 . S
C112 C116 1.370 . S
C112 H123 0.948 . S
C113 N111 1.333 . S
C113 C114 1.379 . S
C113 H121 0.952 . S
C114 C113 1.379 . S
C114 C115 1.390 . S
C114 H134 0.949 . S
C115 C114 1.390 . S
C115 C116 1.357 . S
C116 C112 1.370 . S
C116 C115 1.357 . S
C116 H135 0.950 . S
Zn117 N111 2.020 . S
Zn117 O120 2.025 . S
Zn117 O125 2.024 . S
Zn117 O127 2.039 . S
Zn117 O129 2.034 . S
O118 C102 1.251 . S
O118 Zn109 2.039 . S
C119 O124 1.246 . S
C119 O125 1.249 . S
O120 C102 1.254 . S
O120 Zn117 2.025 . S
H121 C113 0.952 . S
H122 C104 0.952 . S
H123 C112 0.948 . S
O124 Zn109 2.034 . S
O124 C119 1.246 . S
O125 Zn117 2.024 . S
O125 C119 1.249 . S
H126 C108 0.948 . S
O127 Zn117 2.039 . S
O127 C131 1.251 . S
O128 Zn109 2.025 . S
O128 C131 1.254 . S
O129 C110 1.246 . S
O129 Zn117 2.034 . S
O130 Zn109 2.024 . S
O130 C110 1.249 . S
C131 O127 1.251 . S
C131 O128 1.254 . S
H132 C105 0.949 . S
H133 C107 0.950 . S
H134 C114 0.949 . S
H135 C116 0.950 . S
C136 C137 1.391 . S
C136 C138 1.394 1_565 S
C136 H152 0.931 1_455 S
C137 C136 1.391 . S
C137 C141 1.376 1_554 S
C138 C136 1.394 1_545 S
C138 C139 1.369 . S
C138 C142 1.531 1_455 S
C139 C138 1.369 . S
C139 C140 1.410 1_554 S
C139 C147 1.503 . S
C140 C139 1.410 1_556 S
C140 C141 1.392 1_545 S
C140 C143 1.511 . S
C141 C137 1.376 1_556 S
C141 C140 1.392 1_565 S
C141 H153 0.929 . S
C142 C138 1.531 1_655 S
C142 H154 0.960 1_655 S
C142 H155 0.962 . S
C142 H156 0.960 . S
C143 C140 1.511 . S
C143 H157 0.961 1_545 S
C143 H158 0.961 . S
C143 H159 0.971 . S
C144 C145 1.370 1_556 S
C144 C146 1.363 . S
C144 H160 0.931 . S
C145 C144 1.370 1_554 S
C145 C149 1.408 . S
C146 C144 1.363 . S
C146 C147 1.370 1_556 S
C146 C150 1.524 . S
C147 C139 1.503 . S
C147 C146 1.370 1_554 S
C147 C148 1.403 . S
C148 C147 1.403 . S
C148 C149 1.404 . S
C148 C151 1.539 . S
C149 C145 1.408 . S
C149 C148 1.404 . S
C149 H161 0.930 . S
C150 C146 1.524 . S
C150 H162 0.956 . S
C150 H163 0.961 . S
C150 H164 0.961 . S
C151 C148 1.539 . S
C151 H165 0.958 . S
C151 H166 0.961 . S
C151 H167 0.960 . S
H152 C136 0.931 1_655 S
H153 C141 0.929 . S
H154 C142 0.960 1_455 S
H155 C142 0.962 . S
H156 C142 0.960 . S
H157 C143 0.961 1_565 S
H158 C143 0.961 . S
H159 C143 0.971 . S
H160 C144 0.931 . S
H161 C149 0.930 . S
H162 C150 0.956 . S
H163 C150 0.961 . S
H164 C150 0.961 . S
H165 C151 0.958 . S
H166 C151 0.961 . S
H167 C151 0.960 . S
C168 C169 1.391 1_565 S
C168 C170 1.394 1_565 S
C168 H184 0.931 . S
C169 C168 1.391 1_545 S
C169 C173 1.376 . S
C170 C168 1.394 1_545 S
C170 C171 1.369 . S
C170 C174 1.531 1_545 S
C171 C170 1.369 . S
C171 C172 1.410 . S
C171 C179 1.503 . S
C172 C171 1.410 . S
C172 C173 1.392 . S
C172 C175 1.511 . S
C173 C169 1.376 . S
C173 C172 1.392 . S
C173 H185 0.929 . S
C174 C170 1.531 1_565 S
C174 H186 0.960 . S
C174 H187 0.962 . S
C174 H188 0.960 . S
C175 C172 1.511 . S
C175 H189 0.961 . S
C175 H190 0.961 . S
C175 H191 0.961 . S
C176 C177 1.370 . S
C176 C178 1.363 1_655 S
C176 H192 0.931 . S
C177 C176 1.370 . S
C177 C181 1.408 . S
C178 C176 1.363 1_455 S
C178 C179 1.370 . S
C178 C182 1.524 . S
C179 C171 1.503 . S
C179 C178 1.370 . S
C179 C180 1.403 . S
C180 C179 1.403 . S
C180 C181 1.404 1_455 S
C180 C183 1.539 . S
C181 C177 1.408 . S
C181 C180 1.404 1_655 S
C181 H193 0.930 . S
C182 C178 1.524 . S
C182 H194 0.956 . S
C182 H195 0.961 . S
C182 H196 0.961 . S
C183 C180 1.539 . S
C183 H197 0.958 . S
C183 H198 0.961 . S
C183 H199 0.960 . S
H184 C168 0.931 . S
H185 C173 0.929 . S
H186 C174 0.960 . S
H187 C174 0.962 . S
H188 C174 0.960 . S
H189 C175 0.961 . S
H190 C175 0.961 . S
H191 C175 0.961 . S
H192 C176 0.931 . S
H193 C181 0.930 . S
H194 C182 0.956 . S
H195 C182 0.961 . S
H196 C182 0.961 . S
H197 C183 0.958 . S
H198 C183 0.961 . S
H199 C183 0.960 . S
C200 C201 1.391 1_554 S
C200 C202 1.394 . S
C200 H216 0.931 . S
C201 C200 1.391 1_556 S
C201 C205 1.376 . S
C202 C200 1.394 . S
C202 C203 1.369 1_554 S
C202 C206 1.531 . S
C203 C202 1.369 1_556 S
C203 C204 1.410 . S
C203 C211 1.503 . S
C204 C203 1.410 . S
C204 C205 1.392 . S
C204 C207 1.511 1_545 S
C205 C201 1.376 . S
C205 C204 1.392 . S
C205 H217 0.929 1_545 S
C206 C202 1.531 . S
C206 H218 0.960 . S
C206 H219 0.962 . S
C206 H220 0.960 . S
C207 C204 1.511 1_565 S
C207 H221 0.961 . S
C207 H222 0.961 . S
C207 H223 0.961 . S
C208 C209 1.370 1_554 S
C208 C210 1.363 . S
C208 H224 0.931 . S
C209 C208 1.370 1_556 S
C209 C213 1.408 . S
C210 C208 1.363 . S
C210 C211 1.370 1_554 S
C210 C214 1.524 . S
C211 C203 1.503 . S
C211 C210 1.370 1_556 S
C211 C212 1.403 . S
C212 C211 1.403 . S
C212 C213 1.404 . S
C212 C215 1.539 . S
C213 C209 1.408 . S
C213 C212 1.404 . S
C213 H225 0.930 . S
C214 C210 1.524 . S
C214 H226 0.956 . S
C214 H227 0.961 . S
C214 H228 0.961 . S
C215 C212 1.539 . S
C215 H229 0.958 . S
C215 H230 0.961 . S
C215 H231 0.960 . S
H216 C200 0.931 . S
H217 C205 0.929 1_565 S
H218 C206 0.960 . S
H219 C206 0.962 . S
H220 C206 0.960 . S
H221 C207 0.961 . S
H222 C207 0.961 . S
H223 C207 0.961 . S
H224 C208 0.931 . S
H225 C213 0.930 . S
H226 C214 0.956 . S
H227 C214 0.961 . S
H228 C214 0.961 . S
H229 C215 0.958 . S
H230 C215 0.961 . S
H231 C215 0.960 . S
C232 C233 1.391 . S
C232 C234 1.394 . S
C232 H248 0.931 . S
C233 C232 1.391 . S
C233 C237 1.376 . S
C234 C232 1.394 . S
C234 C235 1.369 . S
C234 C238 1.531 . S
C235 C234 1.369 . S
C235 C236 1.410 . S
C235 C243 1.503 . S
C236 C235 1.410 . S
C236 C237 1.392 . S
C236 C239 1.511 . S
C237 C233 1.376 . S
C237 C236 1.392 . S
C237 H249 0.929 . S
C238 C234 1.531 . S
C238 H250 0.960 . S
C238 H251 0.962 1_455 S
C238 H252 0.960 . S
C239 C236 1.511 . S
C239 H253 0.961 . S
C239 H254 0.961 . S
C239 H255 0.961 . S
C240 C241 1.370 . S
C240 C242 1.363 . S
C240 H256 0.931 . S
C241 C240 1.370 . S
C241 C245 1.408 . S
C242 C240 1.363 . S
C242 C243 1.370 . S
C242 C246 1.524 . S
C243 C235 1.503 . S
C243 C242 1.370 . S
C243 C244 1.403 . S
C244 C243 1.403 . S
C244 C245 1.404 . S
C244 C247 1.539 . S
C245 C241 1.408 . S
C245 C244 1.404 . S
C245 H257 0.930 . S
C246 C242 1.524 . S
C246 H258 0.956 1_455 S
C246 H259 0.961 . S
C246 H260 0.961 1_455 S
C247 C244 1.539 . S
C247 H261 0.958 . S
C247 H262 0.961 . S
C247 H263 0.960 . S
H248 C232 0.931 . S
H249 C237 0.929 . S
H250 C238 0.960 . S
H251 C238 0.962 1_655 S
H252 C238 0.960 . S
H253 C239 0.961 . S
H254 C239 0.961 . S
H255 C239 0.961 . S
H256 C240 0.931 . S
H257 C245 0.930 . S
H258 C246 0.956 1_655 S
H259 C246 0.961 . S
H260 C246 0.961 1_655 S
H261 C247 0.958 . S
H262 C247 0.961 . S
H263 C247 0.960 . S
C264 C265 1.391 . S
C264 C266 1.394 . S
C264 H280 0.931 . S
C265 C264 1.391 . S
C265 C269 1.376 . S
C266 C264 1.394 . S
C266 C267 1.369 . S
C266 C270 1.531 . S
C267 C266 1.369 . S
C267 C268 1.410 . S
C267 C275 1.503 . S
C268 C267 1.410 . S
C268 C269 1.392 . S
C268 C271 1.511 . S
C269 C265 1.376 . S
C269 C268 1.392 . S
C269 H281 0.929 . S
C270 C266 1.531 . S
C270 H282 0.960 . S
C270 H283 0.962 . S
C270 H284 0.960 . S
C271 C268 1.511 . S
C271 H285 0.961 . S
C271 H286 0.961 . S
C271 H287 0.961 . S
C272 C273 1.370 . S
C272 C274 1.363 . S
C272 H288 0.931 . S
C273 C272 1.370 . S
C273 C277 1.408 . S
C274 C272 1.363 . S
C274 C275 1.370 . S
C274 C278 1.524 . S
C275 C267 1.503 . S
C275 C274 1.370 . S
C275 C276 1.403 . S
C276 C275 1.403 . S
C276 C277 1.404 . S
C276 C279 1.539 . S
C277 C273 1.408 . S
C277 C276 1.404 . S
C277 H289 0.930 . S
C278 C274 1.524 . S
C278 H290 0.956 . S
C278 H291 0.961 . S
C278 H292 0.961 . S
C279 C276 1.539 . S
C279 H293 0.958 . S
C279 H294 0.961 . S
C279 H295 0.960 . S
H280 C264 0.931 . S
H281 C269 0.929 . S
H282 C270 0.960 . S
H283 C270 0.962 . S
H284 C270 0.960 . S
H285 C271 0.961 . S
H286 C271 0.961 . S
H287 C271 0.961 . S
H288 C272 0.931 . S
H289 C277 0.930 . S
H290 C278 0.956 . S
H291 C278 0.961 . S
H292 C278 0.961 . S
H293 C279 0.958 . S
H294 C279 0.961 . S
H295 C279 0.960 . S
C296 C297 1.391 . S
C296 C298 1.394 . S
C296 H312 0.931 . S
C297 C296 1.391 . S
C297 C301 1.376 . S
C298 C296 1.394 . S
C298 C299 1.369 . S
C298 C302 1.531 . S
C299 C298 1.369 . S
C299 C300 1.410 . S
C299 C307 1.503 . S
C300 C299 1.410 . S
C300 C301 1.392 . S
C300 C303 1.511 . S
C301 C297 1.376 . S
C301 C300 1.392 . S
C301 H313 0.929 . S
C302 C298 1.531 . S
C302 H314 0.960 . S
C302 H315 0.962 . S
C302 H316 0.960 . S
C303 C300 1.511 . S
C303 H317 0.961 . S
C303 H318 0.961 . S
C303 H319 0.961 . S
C304 C305 1.370 . S
C304 C306 1.363 . S
C304 H320 0.931 . S
C305 C304 1.370 . S
C305 C309 1.408 . S
C306 C304 1.363 . S
C306 C307 1.370 . S
C306 C310 1.524 . S
C307 C299 1.503 . S
C307 C306 1.370 . S
C307 C308 1.403 . S
C308 C307 1.403 . S
C308 C309 1.404 . S
C308 C311 1.539 . S
C309 C305 1.408 . S
C309 C308 1.404 . S
C309 H321 0.930 . S
C310 C306 1.524 . S
C310 H322 0.956 . S
C310 H323 0.961 . S
C310 H324 0.961 . S
C311 C308 1.539 . S
C311 H325 0.958 . S
C311 H326 0.961 . S
C311 H327 0.960 . S
H312 C296 0.931 . S
H313 C301 0.929 . S
H314 C302 0.960 . S
H315 C302 0.962 . S
H316 C302 0.960 . S
H317 C303 0.961 . S
H318 C303 0.961 . S
H319 C303 0.961 . S
H320 C304 0.931 . S
H321 C309 0.930 . S
H322 C310 0.956 . S
H323 C310 0.961 . S
H324 C310 0.961 . S
H325 C311 0.958 . S
H326 C311 0.961 . S
H327 C311 0.960 . S
C328 C329 1.391 1_455 S
C328 C330 1.394 1_455 S
C328 H344 0.931 . S
C329 C328 1.391 1_655 S
C329 C333 1.376 . S
C330 C328 1.394 1_655 S
C330 C331 1.369 . S
C330 C334 1.531 1_655 S
C331 C330 1.369 . S
C331 C332 1.410 . S
C331 C339 1.503 . S
C332 C331 1.410 . S
C332 C333 1.392 . S
C332 C335 1.511 . S
C333 C329 1.376 . S
C333 C332 1.392 . S
C333 H345 0.929 . S
C334 C330 1.531 1_455 S
C334 H346 0.960 1_455 S
C334 H347 0.962 . S
C334 H348 0.960 . S
C335 C332 1.511 . S
C335 H349 0.961 . S
C335 H350 0.961 . S
C335 H351 0.961 . S
C336 C337 1.370 . S
C336 C338 1.363 . S
C336 H352 0.931 . S
C337 C336 1.370 . S
C337 C341 1.408 . S
C338 C336 1.363 . S
C338 C339 1.370 . S
C338 C342 1.524 . S
C339 C331 1.503 . S
C339 C338 1.370 . S
C339 C340 1.403 . S
C340 C339 1.403 . S
C340 C341 1.404 . S
C340 C343 1.539 . S
C341 C337 1.408 . S
C341 C340 1.404 . S
C341 H353 0.930 . S
C342 C338 1.524 . S
C342 H354 0.956 . S
C342 H355 0.961 . S
C342 H356 0.961 . S
C343 C340 1.539 . S
C343 H357 0.958 . S
C343 H358 0.961 . S
C343 H359 0.960 . S
H344 C328 0.931 . S
H345 C333 0.929 . S
H346 C334 0.960 1_655 S
H347 C334 0.962 . S
H348 C334 0.960 . S
H349 C335 0.961 . S
H350 C335 0.961 . S
H351 C335 0.961 . S
H352 C336 0.931 . S
H353 C341 0.930 . S
H354 C342 0.956 . S
H355 C342 0.961 . S
H356 C342 0.961 . S
H357 C343 0.958 . S
H358 C343 0.961 . S
H359 C343 0.960 . S
C360 C361 1.391 . S
C360 C362 1.394 . S
C360 H376 0.931 . S
C361 C360 1.391 . S
C361 C365 1.376 . S
C362 C360 1.394 . S
C362 C363 1.369 . S
C362 C366 1.531 . S
C363 C362 1.369 . S
C363 C364 1.410 . S
C363 C371 1.503 . S
C364 C363 1.410 . S
C364 C365 1.392 . S
C364 C367 1.511 . S
C365 C361 1.376 . S
C365 C364 1.392 . S
C365 H377 0.929 . S
C366 C362 1.531 . S
C366 H378 0.960 . S
C366 H379 0.962 . S
C366 H380 0.960 . S
C367 C364 1.511 . S
C367 H381 0.961 . S
C367 H382 0.961 . S
C367 H383 0.961 . S
C368 C369 1.370 . S
C368 C370 1.363 . S
C368 H384 0.931 . S
C369 C368 1.370 . S
C369 C373 1.408 1_565 S
C370 C368 1.363 . S
C370 C371 1.370 . S
C370 C374 1.524 . S
C371 C363 1.503 . S
C371 C370 1.370 . S
C371 C372 1.403 . S
C372 C371 1.403 . S
C372 C373 1.404 1_565 S
C372 C375 1.539 . S
C373 C369 1.408 1_545 S
C373 C372 1.404 1_545 S
C373 H385 0.930 . S
C374 C370 1.524 . S
C374 H386 0.956 . S
C374 H387 0.961 . S
C374 H388 0.961 . S
C375 C372 1.539 . S
C375 H389 0.958 1_565 S
C375 H390 0.961 1_565 S
C375 H391 0.960 . S
H376 C360 0.931 . S
H377 C365 0.929 . S
H378 C366 0.960 . S
H379 C366 0.962 . S
H380 C366 0.960 . S
H381 C367 0.961 . S
H382 C367 0.961 . S
H383 C367 0.961 . S
H384 C368 0.931 . S
H385 C373 0.930 . S
H386 C374 0.956 . S
H387 C374 0.961 . S
H388 C374 0.961 . S
H389 C375 0.958 1_545 S
H390 C375 0.961 1_545 S
H391 C375 0.960 . S
C392 C393 1.391 . S
C392 C394 1.394 . S
C392 H408 0.931 . S
C393 C392 1.391 . S
C393 C397 1.376 . S
C394 C392 1.394 . S
C394 C395 1.369 . S
C394 C398 1.531 . S
C395 C394 1.369 . S
C395 C396 1.410 . S
C395 C403 1.503 . S
C396 C395 1.410 . S
C396 C397 1.392 . S
C396 C399 1.511 . S
C397 C393 1.376 . S
C397 C396 1.392 . S
C397 H409 0.929 . S
C398 C394 1.531 . S
C398 H410 0.960 . S
C398 H411 0.962 . S
C398 H412 0.960 . S
C399 C396 1.511 . S
C399 H413 0.961 . S
C399 H414 0.961 . S
C399 H415 0.961 . S
C400 C401 1.370 . S
C400 C402 1.363 . S
C400 H416 0.931 . S
C401 C400 1.370 . S
C401 C405 1.408 . S
C402 C400 1.363 . S
C402 C403 1.370 . S
C402 C406 1.524 . S
C403 C395 1.503 . S
C403 C402 1.370 . S
C403 C404 1.403 . S
C404 C403 1.403 . S
C404 C405 1.404 . S
C404 C407 1.539 . S
C405 C401 1.408 . S
C405 C404 1.404 . S
C405 H417 0.930 . S
C406 C402 1.524 . S
C406 H418 0.956 . S
C406 H419 0.961 . S
C406 H420 0.961 . S
C407 C404 1.539 . S
C407 H421 0.958 . S
C407 H422 0.961 . S
C407 H423 0.960 . S
H408 C392 0.931 . S
H409 C397 0.929 . S
H410 C398 0.960 . S
H411 C398 0.962 . S
H412 C398 0.960 . S
H413 C399 0.961 . S
H414 C399 0.961 . S
H415 C399 0.961 . S
H416 C400 0.931 . S
H417 C405 0.930 . S
H418 C406 0.956 . S
H419 C406 0.961 . S
H420 C406 0.961 . S
H421 C407 0.958 . S
H422 C407 0.961 . S
H423 C407 0.960 . S
C424 C425 1.391 . S
C424 C426 1.394 . S
C424 H440 0.931 . S
C425 C424 1.391 . S
C425 C429 1.376 . S
C426 C424 1.394 . S
C426 C427 1.369 . S
C426 C430 1.531 . S
C427 C426 1.369 . S
C427 C428 1.410 . S
C427 C435 1.503 . S
C428 C427 1.410 . S
C428 C429 1.392 . S
C428 C431 1.511 . S
C429 C425 1.376 . S
C429 C428 1.392 . S
C429 H441 0.929 1_565 S
C430 C426 1.531 . S
C430 H442 0.960 . S
C430 H443 0.962 . S
C430 H444 0.960 . S
C431 C428 1.511 . S
C431 H445 0.970 . S
C431 H446 0.961 . S
C431 H447 0.961 . S
C432 C433 1.370 . S
C432 C434 1.363 . S
C432 H448 0.931 . S
C433 C432 1.370 . S
C433 C437 1.408 . S
C434 C432 1.363 . S
C434 C435 1.370 . S
C434 C438 1.524 . S
C435 C427 1.503 . S
C435 C434 1.370 . S
C435 C436 1.403 . S
C436 C435 1.403 . S
C436 C437 1.404 . S
C436 C439 1.539 . S
C437 C433 1.408 . S
C437 C436 1.404 . S
C437 H449 0.930 . S
C438 C434 1.524 . S
C438 H450 0.956 . S
C438 H451 0.961 . S
C438 H452 0.961 . S
C439 C436 1.539 . S
C439 H453 0.958 . S
C439 H454 0.961 . S
C439 H455 0.960 . S
H440 C424 0.931 . S
H441 C429 0.929 1_545 S
H442 C430 0.960 . S
H443 C430 0.962 . S
H444 C430 0.960 . S
H445 C431 0.970 . S
H446 C431 0.961 . S
H447 C431 0.961 . S
H448 C432 0.931 . S
H449 C437 0.930 . S
H450 C438 0.956 . S
H451 C438 0.961 . S
H452 C438 0.961 . S
H453 C439 0.958 . S
H454 C439 0.961 . S
H455 C439 0.960 . S
C456 C457 1.391 . S
C456 C458 1.394 . S
C456 H472 0.931 . S
C457 C456 1.391 . S
C457 C461 1.376 . S
C458 C456 1.394 . S
C458 C459 1.369 . S
C458 C462 1.531 . S
C459 C458 1.369 . S
C459 C460 1.410 . S
C459 C467 1.503 . S
C460 C459 1.410 . S
C460 C461 1.392 . S
C460 C463 1.511 . S
C461 C457 1.376 . S
C461 C460 1.392 . S
C461 H473 0.929 . S
C462 C458 1.531 . S
C462 H474 0.960 . S
C462 H475 0.962 . S
C462 H476 0.960 . S
C463 C460 1.511 . S
C463 H477 0.961 . S
C463 H478 0.961 . S
C463 H479 0.961 . S
C464 C465 1.370 . S
C464 C466 1.363 . S
C464 H480 0.931 . S
C465 C464 1.370 . S
C465 C469 1.408 . S
C466 C464 1.363 . S
C466 C467 1.370 . S
C466 C470 1.524 . S
C467 C459 1.503 . S
C467 C466 1.370 . S
C467 C468 1.403 . S
C468 C467 1.403 . S
C468 C469 1.404 . S
C468 C471 1.539 . S
C469 C465 1.408 . S
C469 C468 1.404 . S
C469 H481 0.930 . S
C470 C466 1.524 . S
C470 H482 0.956 . S
C470 H483 0.961 . S
C470 H484 0.961 . S
C471 C468 1.539 . S
C471 H485 0.958 . S
C471 H486 0.961 . S
C471 H487 0.960 . S
H472 C456 0.931 . S
H473 C461 0.929 . S
H474 C462 0.960 . S
H475 C462 0.962 . S
H476 C462 0.960 . S
H477 C463 0.961 . S
H478 C463 0.961 . S
H479 C463 0.961 . S
H480 C464 0.931 . S
H481 C469 0.930 . S
H482 C470 0.956 . S
H483 C470 0.961 . S
H484 C470 0.961 . S
H485 C471 0.958 . S
H486 C471 0.961 . S
H487 C471 0.960 . S
C488 C489 1.391 . S
C488 C490 1.394 . S
C488 H504 0.931 . S
C489 C488 1.391 . S
C489 C493 1.376 . S
C490 C488 1.394 . S
C490 C491 1.369 . S
C490 C494 1.531 . S
C491 C490 1.369 . S
C491 C492 1.410 . S
C491 C499 1.503 . S
C492 C491 1.410 . S
C492 C493 1.392 . S
C492 C495 1.511 . S
C493 C489 1.376 . S
C493 C492 1.392 . S
C493 H505 0.929 . S
C494 C490 1.531 . S
C494 H506 0.960 . S
C494 H507 0.962 . S
C494 H508 0.960 . S
C495 C492 1.511 . S
C495 H509 0.961 . S
C495 H510 0.961 . S
C495 H511 0.961 . S
C496 C497 1.370 . S
C496 C498 1.363 . S
C496 H512 0.931 . S
C497 C496 1.370 . S
C497 C501 1.408 . S
C498 C496 1.363 . S
C498 C499 1.370 . S
C498 C502 1.524 . S
C499 C491 1.503 . S
C499 C498 1.370 . S
C499 C500 1.403 . S
C500 C499 1.403 . S
C500 C501 1.404 . S
C500 C503 1.539 . S
C501 C497 1.408 . S
C501 C500 1.404 . S
C501 H513 0.930 . S
C502 C498 1.524 . S
C502 H514 0.956 . S
C502 H515 0.961 . S
C502 H516 0.961 . S
C503 C500 1.539 . S
C503 H517 0.958 . S
C503 H518 0.961 . S
C503 H519 0.960 . S
H504 C488 0.931 . S
H505 C493 0.929 . S
H506 C494 0.960 . S
H507 C494 0.962 . S
H508 C494 0.960 . S
H509 C495 0.961 . S
H510 C495 0.961 . S
H511 C495 0.961 . S
H512 C496 0.931 . S
H513 C501 0.930 . S
H514 C502 0.956 . S
H515 C502 0.961 . S
H516 C502 0.961 . S
H517 C503 0.958 . S
H518 C503 0.961 . S
H519 C503 0.960 . S
C137 C81 2.802 1_565 S
C145 C13 2.768 . S
C169 C106 2.774 . S
C177 C47 2.788 1_655 S
C201 C72 1.117 . S
C209 C4 1.119 1_556 S
C233 C38 1.101 . S
C241 C115 1.120 . S
C265 C34 1.854 . S
C273 C29 1.862 . S
C297 C63 1.946 . S
C305 C68 1.933 . S
C329 C110 1.926 1_655 S
C337 C97 1.921 . S
C361 C119 1.877 . S
C369 C0 1.875 1_565 S
C393 C76 1.893 . S
C401 C131 1.882 1_655 S
C425 C17 1.928 1_565 S
C433 C102 1.927 . S
C457 C51 1.950 . S
C465 C8 1.943 . S
C489 C85 1.867 . S
C497 C42 1.878 . S
