# Generated by pormake.
# Topology wny, (7)-cn, num edge types: 1
# Building blocks:
#     Node 0, Type 0, BuildingBlock: HICVOG_clean_sbu_0, # of connection points: 7
#     Node 1, Type 0, BuildingBlock: HICVOG_clean_sbu_0, # of connection points: 7
#     Node 2, Type 0, BuildingBlock: HICVOG_clean_sbu_0, # of connection points: 7
#     Node 3, Type 0, BuildingBlock: HICVOG_clean_sbu_0, # of connection points: 7
#     Node 4, Type 0, BuildingBlock: HICVOG_clean_sbu_0, # of connection points: 7
#     Node 5, Type 0, BuildingBlock: HICVOG_clean_sbu_0, # of connection points: 7
#     Node 6, Type 0, BuildingBlock: HICVOG_clean_sbu_0, # of connection points: 7
#     Node 7, Type 0, BuildingBlock: HICVOG_clean_sbu_0, # of connection points: 7
#     Node 8, Type 0, BuildingBlock: HICVOG_clean_sbu_0, # of connection points: 7
#     Node 9, Type 0, BuildingBlock: HICVOG_clean_sbu_0, # of connection points: 7
#     Node 10, Type 0, BuildingBlock: HICVOG_clean_sbu_0, # of connection points: 7
#     Node 11, Type 0, BuildingBlock: HICVOG_clean_sbu_0, # of connection points: 7
#     Node 12, Type 0, BuildingBlock: HICVOG_clean_sbu_0, # of connection points: 7
#     Node 13, Type 0, BuildingBlock: HICVOG_clean_sbu_0, # of connection points: 7
#     Node 14, Type 0, BuildingBlock: HICVOG_clean_sbu_0, # of connection points: 7
#     Node 15, Type 0, BuildingBlock: HICVOG_clean_sbu_0, # of connection points: 7
#     Node 16, Type 0, BuildingBlock: HICVOG_clean_sbu_0, # of connection points: 7
#     Node 17, Type 0, BuildingBlock: HICVOG_clean_sbu_0, # of connection points: 7
#     Node 18, Type 0, BuildingBlock: HICVOG_clean_sbu_0, # of connection points: 7
#     Node 19, Type 0, BuildingBlock: HICVOG_clean_sbu_0, # of connection points: 7
#     Node 20, Type 0, BuildingBlock: HICVOG_clean_sbu_0, # of connection points: 7
#     Node 21, Type 0, BuildingBlock: HICVOG_clean_sbu_0, # of connection points: 7
#     Node 22, Type 0, BuildingBlock: HICVOG_clean_sbu_0, # of connection points: 7
#     Node 23, Type 0, BuildingBlock: HICVOG_clean_sbu_0, # of connection points: 7
#     Node 24, Type 0, BuildingBlock: HICVOG_clean_sbu_0, # of connection points: 7
#     Node 25, Type 0, BuildingBlock: HICVOG_clean_sbu_0, # of connection points: 7
#     Node 26, Type 0, BuildingBlock: HICVOG_clean_sbu_0, # of connection points: 7
#     Node 27, Type 0, BuildingBlock: HICVOG_clean_sbu_0, # of connection points: 7
#     Node 28, Type 0, BuildingBlock: HICVOG_clean_sbu_0, # of connection points: 7
#     Node 29, Type 0, BuildingBlock: HICVOG_clean_sbu_0, # of connection points: 7
#     Node 30, Type 0, BuildingBlock: HICVOG_clean_sbu_0, # of connection points: 7
#     Node 31, Type 0, BuildingBlock: HICVOG_clean_sbu_0, # of connection points: 7
#     Node 32, Type 0, BuildingBlock: HICVOG_clean_sbu_0, # of connection points: 7
#     Node 33, Type 0, BuildingBlock: HICVOG_clean_sbu_0, # of connection points: 7
#     Node 34, Type 0, BuildingBlock: HICVOG_clean_sbu_0, # of connection points: 7
#     Node 35, Type 0, BuildingBlock: HICVOG_clean_sbu_0, # of connection points: 7
#     Edge 36, Type (0, 0), BuildingBlock: OJICUG_clean_linker_0, # of connection points: 2
#     Edge 37, Type (0, 0), BuildingBlock: OJICUG_clean_linker_0, # of connection points: 2
#     Edge 38, Type (0, 0), BuildingBlock: OJICUG_clean_linker_0, # of connection points: 2
#     Edge 39, Type (0, 0), BuildingBlock: OJICUG_clean_linker_0, # of connection points: 2
#     Edge 40, Type (0, 0), BuildingBlock: OJICUG_clean_linker_0, # of connection points: 2
#     Edge 41, Type (0, 0), BuildingBlock: OJICUG_clean_linker_0, # of connection points: 2
#     Edge 42, Type (0, 0), BuildingBlock: OJICUG_clean_linker_0, # of connection points: 2
#     Edge 43, Type (0, 0), BuildingBlock: OJICUG_clean_linker_0, # of connection points: 2
#     Edge 44, Type (0, 0), BuildingBlock: OJICUG_clean_linker_0, # of connection points: 2
#     Edge 45, Type (0, 0), BuildingBlock: OJICUG_clean_linker_0, # of connection points: 2
#     Edge 46, Type (0, 0), BuildingBlock: OJICUG_clean_linker_0, # of connection points: 2
#     Edge 47, Type (0, 0), BuildingBlock: OJICUG_clean_linker_0, # of connection points: 2
#     Edge 48, Type (0, 0), BuildingBlock: OJICUG_clean_linker_0, # of connection points: 2
#     Edge 49, Type (0, 0), BuildingBlock: OJICUG_clean_linker_0, # of connection points: 2
#     Edge 50, Type (0, 0), BuildingBlock: OJICUG_clean_linker_0, # of connection points: 2
#     Edge 51, Type (0, 0), BuildingBlock: OJICUG_clean_linker_0, # of connection points: 2
#     Edge 52, Type (0, 0), BuildingBlock: OJICUG_clean_linker_0, # of connection points: 2
#     Edge 53, Type (0, 0), BuildingBlock: OJICUG_clean_linker_0, # of connection points: 2
#     Edge 54, Type (0, 0), BuildingBlock: OJICUG_clean_linker_0, # of connection points: 2
#     Edge 55, Type (0, 0), BuildingBlock: OJICUG_clean_linker_0, # of connection points: 2
#     Edge 56, Type (0, 0), BuildingBlock: OJICUG_clean_linker_0, # of connection points: 2
#     Edge 57, Type (0, 0), BuildingBlock: OJICUG_clean_linker_0, # of connection points: 2
#     Edge 58, Type (0, 0), BuildingBlock: OJICUG_clean_linker_0, # of connection points: 2
#     Edge 59, Type (0, 0), BuildingBlock: OJICUG_clean_linker_0, # of connection points: 2
#     Edge 60, Type (0, 0), BuildingBlock: OJICUG_clean_linker_0, # of connection points: 2
#     Edge 61, Type (0, 0), BuildingBlock: OJICUG_clean_linker_0, # of connection points: 2
#     Edge 62, Type (0, 0), BuildingBlock: OJICUG_clean_linker_0, # of connection points: 2
#     Edge 63, Type (0, 0), BuildingBlock: OJICUG_clean_linker_0, # of connection points: 2
#     Edge 64, Type (0, 0), BuildingBlock: OJICUG_clean_linker_0, # of connection points: 2
#     Edge 65, Type (0, 0), BuildingBlock: OJICUG_clean_linker_0, # of connection points: 2
#     Edge 66, Type (0, 0), BuildingBlock: OJICUG_clean_linker_0, # of connection points: 2
#     Edge 67, Type (0, 0), BuildingBlock: OJICUG_clean_linker_0, # of connection points: 2
#     Edge 68, Type (0, 0), BuildingBlock: OJICUG_clean_linker_0, # of connection points: 2
#     Edge 69, Type (0, 0), BuildingBlock: OJICUG_clean_linker_0, # of connection points: 2
#     Edge 70, Type (0, 0), BuildingBlock: OJICUG_clean_linker_0, # of connection points: 2
#     Edge 71, Type (0, 0), BuildingBlock: OJICUG_clean_linker_0, # of connection points: 2
#     Edge 72, Type (0, 0), BuildingBlock: OJICUG_clean_linker_0, # of connection points: 2
#     Edge 73, Type (0, 0), BuildingBlock: OJICUG_clean_linker_0, # of connection points: 2
#     Edge 74, Type (0, 0), BuildingBlock: OJICUG_clean_linker_0, # of connection points: 2
#     Edge 75, Type (0, 0), BuildingBlock: OJICUG_clean_linker_0, # of connection points: 2
#     Edge 76, Type (0, 0), BuildingBlock: OJICUG_clean_linker_0, # of connection points: 2
#     Edge 77, Type (0, 0), BuildingBlock: OJICUG_clean_linker_0, # of connection points: 2
#     Edge 78, Type (0, 0), BuildingBlock: OJICUG_clean_linker_0, # of connection points: 2
#     Edge 79, Type (0, 0), BuildingBlock: OJICUG_clean_linker_0, # of connection points: 2
#     Edge 80, Type (0, 0), BuildingBlock: OJICUG_clean_linker_0, # of connection points: 2
#     Edge 81, Type (0, 0), BuildingBlock: OJICUG_clean_linker_0, # of connection points: 2
#     Edge 82, Type (0, 0), BuildingBlock: OJICUG_clean_linker_0, # of connection points: 2
#     Edge 83, Type (0, 0), BuildingBlock: OJICUG_clean_linker_0, # of connection points: 2
#     Edge 84, Type (0, 0), BuildingBlock: OJICUG_clean_linker_0, # of connection points: 2
#     Edge 85, Type (0, 0), BuildingBlock: OJICUG_clean_linker_0, # of connection points: 2
#     Edge 86, Type (0, 0), BuildingBlock: OJICUG_clean_linker_0, # of connection points: 2
#     Edge 87, Type (0, 0), BuildingBlock: OJICUG_clean_linker_0, # of connection points: 2
#     Edge 88, Type (0, 0), BuildingBlock: OJICUG_clean_linker_0, # of connection points: 2
#     Edge 89, Type (0, 0), BuildingBlock: OJICUG_clean_linker_0, # of connection points: 2
#     Edge 90, Type (0, 0), BuildingBlock: OJICUG_clean_linker_0, # of connection points: 2
#     Edge 91, Type (0, 0), BuildingBlock: OJICUG_clean_linker_0, # of connection points: 2
#     Edge 92, Type (0, 0), BuildingBlock: OJICUG_clean_linker_0, # of connection points: 2
#     Edge 93, Type (0, 0), BuildingBlock: OJICUG_clean_linker_0, # of connection points: 2
#     Edge 94, Type (0, 0), BuildingBlock: OJICUG_clean_linker_0, # of connection points: 2
#     Edge 95, Type (0, 0), BuildingBlock: OJICUG_clean_linker_0, # of connection points: 2
#     Edge 96, Type (0, 0), BuildingBlock: OJICUG_clean_linker_0, # of connection points: 2
#     Edge 97, Type (0, 0), BuildingBlock: OJICUG_clean_linker_0, # of connection points: 2
#     Edge 98, Type (0, 0), BuildingBlock: OJICUG_clean_linker_0, # of connection points: 2
#     Edge 99, Type (0, 0), BuildingBlock: OJICUG_clean_linker_0, # of connection points: 2
#     Edge 100, Type (0, 0), BuildingBlock: OJICUG_clean_linker_0, # of connection points: 2
#     Edge 101, Type (0, 0), BuildingBlock: OJICUG_clean_linker_0, # of connection points: 2
#     Edge 102, Type (0, 0), BuildingBlock: OJICUG_clean_linker_0, # of connection points: 2
#     Edge 103, Type (0, 0), BuildingBlock: OJICUG_clean_linker_0, # of connection points: 2
#     Edge 104, Type (0, 0), BuildingBlock: OJICUG_clean_linker_0, # of connection points: 2
#     Edge 105, Type (0, 0), BuildingBlock: OJICUG_clean_linker_0, # of connection points: 2
#     Edge 106, Type (0, 0), BuildingBlock: OJICUG_clean_linker_0, # of connection points: 2
#     Edge 107, Type (0, 0), BuildingBlock: OJICUG_clean_linker_0, # of connection points: 2
#     Edge 108, Type (0, 0), BuildingBlock: OJICUG_clean_linker_0, # of connection points: 2
#     Edge 109, Type (0, 0), BuildingBlock: OJICUG_clean_linker_0, # of connection points: 2
#     Edge 110, Type (0, 0), BuildingBlock: OJICUG_clean_linker_0, # of connection points: 2
#     Edge 111, Type (0, 0), BuildingBlock: OJICUG_clean_linker_0, # of connection points: 2
#     Edge 112, Type (0, 0), BuildingBlock: OJICUG_clean_linker_0, # of connection points: 2
#     Edge 113, Type (0, 0), BuildingBlock: OJICUG_clean_linker_0, # of connection points: 2
#     Edge 114, Type (0, 0), BuildingBlock: OJICUG_clean_linker_0, # of connection points: 2
#     Edge 115, Type (0, 0), BuildingBlock: OJICUG_clean_linker_0, # of connection points: 2
#     Edge 116, Type (0, 0), BuildingBlock: OJICUG_clean_linker_0, # of connection points: 2
#     Edge 117, Type (0, 0), BuildingBlock: OJICUG_clean_linker_0, # of connection points: 2
#     Edge 118, Type (0, 0), BuildingBlock: OJICUG_clean_linker_0, # of connection points: 2
#     Edge 119, Type (0, 0), BuildingBlock: OJICUG_clean_linker_0, # of connection points: 2
#     Edge 120, Type (0, 0), BuildingBlock: OJICUG_clean_linker_0, # of connection points: 2
#     Edge 121, Type (0, 0), BuildingBlock: OJICUG_clean_linker_0, # of connection points: 2
#     Edge 122, Type (0, 0), BuildingBlock: OJICUG_clean_linker_0, # of connection points: 2
#     Edge 123, Type (0, 0), BuildingBlock: OJICUG_clean_linker_0, # of connection points: 2
#     Edge 124, Type (0, 0), BuildingBlock: OJICUG_clean_linker_0, # of connection points: 2
#     Edge 125, Type (0, 0), BuildingBlock: OJICUG_clean_linker_0, # of connection points: 2
#     Edge 126, Type (0, 0), BuildingBlock: OJICUG_clean_linker_0, # of connection points: 2
#     Edge 127, Type (0, 0), BuildingBlock: OJICUG_clean_linker_0, # of connection points: 2
#     Edge 128, Type (0, 0), BuildingBlock: OJICUG_clean_linker_0, # of connection points: 2
#     Edge 129, Type (0, 0), BuildingBlock: OJICUG_clean_linker_0, # of connection points: 2
#     Edge 130, Type (0, 0), BuildingBlock: OJICUG_clean_linker_0, # of connection points: 2
#     Edge 131, Type (0, 0), BuildingBlock: OJICUG_clean_linker_0, # of connection points: 2
#     Edge 132, Type (0, 0), BuildingBlock: OJICUG_clean_linker_0, # of connection points: 2
#     Edge 133, Type (0, 0), BuildingBlock: OJICUG_clean_linker_0, # of connection points: 2
#     Edge 134, Type (0, 0), BuildingBlock: OJICUG_clean_linker_0, # of connection points: 2
#     Edge 135, Type (0, 0), BuildingBlock: OJICUG_clean_linker_0, # of connection points: 2
#     Edge 136, Type (0, 0), BuildingBlock: OJICUG_clean_linker_0, # of connection points: 2
#     Edge 137, Type (0, 0), BuildingBlock: OJICUG_clean_linker_0, # of connection points: 2
#     Edge 138, Type (0, 0), BuildingBlock: OJICUG_clean_linker_0, # of connection points: 2
#     Edge 139, Type (0, 0), BuildingBlock: OJICUG_clean_linker_0, # of connection points: 2
#     Edge 140, Type (0, 0), BuildingBlock: OJICUG_clean_linker_0, # of connection points: 2
#     Edge 141, Type (0, 0), BuildingBlock: OJICUG_clean_linker_0, # of connection points: 2
#     Edge 142, Type (0, 0), BuildingBlock: OJICUG_clean_linker_0, # of connection points: 2
#     Edge 143, Type (0, 0), BuildingBlock: OJICUG_clean_linker_0, # of connection points: 2
#     Edge 144, Type (0, 0), BuildingBlock: OJICUG_clean_linker_0, # of connection points: 2
#     Edge 145, Type (0, 0), BuildingBlock: OJICUG_clean_linker_0, # of connection points: 2
#     Edge 146, Type (0, 0), BuildingBlock: OJICUG_clean_linker_0, # of connection points: 2
#     Edge 147, Type (0, 0), BuildingBlock: OJICUG_clean_linker_0, # of connection points: 2
#     Edge 148, Type (0, 0), BuildingBlock: OJICUG_clean_linker_0, # of connection points: 2
#     Edge 149, Type (0, 0), BuildingBlock: OJICUG_clean_linker_0, # of connection points: 2
#     Edge 150, Type (0, 0), BuildingBlock: OJICUG_clean_linker_0, # of connection points: 2
#     Edge 151, Type (0, 0), BuildingBlock: OJICUG_clean_linker_0, # of connection points: 2
#     Edge 152, Type (0, 0), BuildingBlock: OJICUG_clean_linker_0, # of connection points: 2
#     Edge 153, Type (0, 0), BuildingBlock: OJICUG_clean_linker_0, # of connection points: 2
#     Edge 154, Type (0, 0), BuildingBlock: OJICUG_clean_linker_0, # of connection points: 2
#     Edge 155, Type (0, 0), BuildingBlock: OJICUG_clean_linker_0, # of connection points: 2
#     Edge 156, Type (0, 0), BuildingBlock: OJICUG_clean_linker_0, # of connection points: 2
#     Edge 157, Type (0, 0), BuildingBlock: OJICUG_clean_linker_0, # of connection points: 2
#     Edge 158, Type (0, 0), BuildingBlock: OJICUG_clean_linker_0, # of connection points: 2
#     Edge 159, Type (0, 0), BuildingBlock: OJICUG_clean_linker_0, # of connection points: 2
#     Edge 160, Type (0, 0), BuildingBlock: OJICUG_clean_linker_0, # of connection points: 2
#     Edge 161, Type (0, 0), BuildingBlock: OJICUG_clean_linker_0, # of connection points: 2
# Relax obj value: 0.214
# Max RMSD: 0.221
# Mean RMSD: 0.221
data_MOF--net-wny--node1-HICVOG_clean_sbu_0--edge1-OJICUG_clean_linker_0
_symmetry_space_group_name_H-M    P1
_symmetry_Int_Tables_number       1
_symmetry_cell_setting            triclinic
loop_
_symmetry_equiv_pos_as_xyz
'x, y, z'
_cell_length_a     30.938089
_cell_length_b     30.940333
_cell_length_c     93.994568
_cell_angle_alpha  90.009923
_cell_angle_beta   89.99952
_cell_angle_gamma 119.99622
loop_
_atom_site_label
_atom_site_type_symbol
_atom_site_fract_x
_atom_site_fract_y
_atom_site_fract_z
_atom_type_partial_charge
Zn0 Zn 0.13225 0.26205 0.16422 0.0
C1 C 0.0253 0.13199 0.16797 0.0
N2 N 0.0552 0.12121 0.16032 0.0
C3 C 0.10146 0.15825 0.16356 0.0
N4 N 0.0994 0.19288 0.17195 0.0
N5 N 0.05203 0.17404 0.17562 0.0
C6 C 0.94537 0.18384 0.18073 0.0
O7 O 0.97841 0.20803 0.17071 0.0
O8 O 0.20811 0.29643 0.16609 0.0
Zn9 Zn 0.0329 0.19928 0.19159 0.0
N10 N 0.11549 0.25558 0.14394 0.0
C11 C 0.05261 0.212 0.12647 0.0
C12 C 0.06774 0.22084 0.1406 0.0
C13 C 0.14809 0.28456 0.13358 0.0
N14 N 0.08497 0.24043 0.11618 0.0
C15 C 0.13224 0.27722 0.11923 0.0
O16 O 0.05397 0.27072 0.18963 0.0
C17 C 0.07922 0.30876 0.18191 0.0
O18 O 0.10771 0.30874 0.17207 0.0
H19 H 0.04126 0.20043 0.14886 0.0
H20 H 0.18543 0.31317 0.1365 0.0
C21 C 0.03667 0.17943 0.22176 0.0
C22 C 0.06085 0.17651 0.23419 0.0
C23 C 0.13258 0.19581 0.22035 0.0
C24 C 0.10879 0.19926 0.20821 0.0
N25 N 0.06121 0.19047 0.20907 0.0
N26 N 0.10825 0.18475 0.23298 0.0
H27 H 0.99961 0.17465 0.22213 0.0
C28 C 0.23451 0.33122 0.17487 0.0
O29 O 0.21227 0.34573 0.18403 0.0
O30 O 0.95893 0.16986 0.19177 0.0
H31 H 0.12853 0.20982 0.19822 0.0
H32 H 1.01496 0.18371 0.12372 0.0
H33 H 0.17039 0.20256 0.21978 0.0
Zn34 Zn 0.76463 0.87543 0.1643 0.0
C35 C 0.89469 0.89853 0.16797 0.0
N36 N 0.90539 0.93912 0.16029 0.0
C37 C 0.86841 0.94841 0.16356 0.0
N38 N 0.83387 0.91182 0.17199 0.0
N39 N 0.85275 0.88332 0.17566 0.0
C40 C 0.84291 0.76685 0.18076 0.0
O41 O 0.81862 0.77567 0.17077 0.0
O42 O 0.7303 0.91697 0.16614 0.0
Zn43 Zn 0.82764 0.83902 0.19166 0.0
N44 N 0.77096 0.86489 0.14403 0.0
C45 C 0.81426 0.84509 0.1266 0.0
C46 C 0.80552 0.8516 0.14072 0.0
C47 C 0.74207 0.86861 0.13366 0.0
N48 N 0.78593 0.84911 0.11629 0.0
C49 C 0.74932 0.8599 0.11932 0.0
O50 O 0.75617 0.78867 0.18975 0.0
C51 C 0.71804 0.77584 0.18205 0.0
O52 O 0.71798 0.8043 0.17222 0.0
H53 H 0.82585 0.84548 0.149 0.0
H54 H 0.71362 0.87758 0.13656 0.0
C55 C 0.84744 0.86253 0.22184 0.0
C56 C 0.85047 0.88966 0.23427 0.0
C57 C 0.83179 0.94251 0.22041 0.0
C58 C 0.82819 0.9152 0.20828 0.0
N59 N 0.83665 0.87621 0.20914 0.0
N60 N 0.84261 0.92907 0.23305 0.0
H61 H 0.85193 0.83007 0.22221 0.0
C62 C 0.69538 0.90853 0.17488 0.0
O63 O 0.68069 0.87168 0.18401 0.0
O64 O 0.85701 0.79442 0.1918 0.0
H65 H 0.81778 0.92452 0.19827 0.0
H66 H 0.8424 0.8355 0.12387 0.0
H67 H 0.82532 0.97375 0.21984 0.0
Zn68 Zn 0.15127 0.89452 0.16433 0.0
C69 C 0.12827 1.00152 0.16804 0.0
N70 N 0.08765 0.97166 0.16037 0.0
C71 C 0.07836 0.92539 0.16362 0.0
N72 N 0.11495 0.92741 0.17203 0.0
N73 N 0.14349 0.97477 0.17572 0.0
C74 C 0.25996 0.08133 0.18085 0.0
O75 O 0.25114 0.04824 0.17085 0.0
O76 O 0.10971 0.81866 0.16615 0.0
Zn77 Zn 0.18777 0.99388 0.19172 0.0
N78 N 0.16175 0.91139 0.14405 0.0
C79 C 0.18147 0.97444 0.12663 0.0
C80 C 0.17502 0.95922 0.14075 0.0
C81 C 0.15798 0.87877 0.13368 0.0
N82 N 0.1774 0.94207 0.11631 0.0
C83 C 0.16663 0.8947 0.11935 0.0
O84 O 0.23811 0.97272 0.18979 0.0
C85 C 0.25091 0.94746 0.18207 0.0
O86 O 0.22243 0.919 0.17222 0.0
H87 H 0.18117 0.98569 0.14902 0.0
H88 H 0.14902 0.84135 0.13658 0.0
C89 C 0.1641 0.99008 0.2219 0.0
C90 C 0.13689 0.96592 0.23431 0.0
C91 C 0.08424 0.89438 0.22042 0.0
C92 C 0.1116 0.91815 0.2083 0.0
N93 N 0.15054 0.96563 0.20919 0.0
N94 N 0.09755 0.91862 0.23307 0.0
H95 H 0.1965 0.02705 0.22228 0.0
C96 C 0.11824 0.79214 0.17485 0.0
O97 O 0.15523 0.81423 0.18394 0.0
O98 O 0.23238 0.06784 0.19189 0.0
H99 H 0.10237 0.89845 0.1983 0.0
H100 H 0.19105 0.01217 0.1239 0.0
H101 H 0.05305 0.85665 0.21983 0.0
Zn102 Zn 0.26672 0.12635 0.36076 0.0
C103 C 0.13662 0.0194 0.35704 0.0
N104 N 0.1259 0.04929 0.3647 0.0
C105 C 0.16291 0.09555 0.36145 0.0
N106 N 0.19749 0.09349 0.35305 0.0
N107 N 0.17862 0.04612 0.34936 0.0
C108 C 0.18838 0.93945 0.34423 0.0
O109 O 0.21262 0.9725 0.35425 0.0
O110 O 0.30108 0.20222 0.3589 0.0
Zn111 Zn 0.20379 0.02697 0.33338 0.0
N112 N 0.26035 0.10956 0.38104 0.0
C113 C 0.21689 0.04662 0.39849 0.0
C114 C 0.22566 0.06179 0.38436 0.0
C115 C 0.28935 0.14215 0.3914 0.0
N116 N 0.24533 0.07896 0.40879 0.0
C117 C 0.28207 0.12626 0.40574 0.0
O118 O 0.27524 0.04803 0.33532 0.0
C119 C 0.31334 0.0733 0.34303 0.0
O120 O 0.31339 0.10182 0.35287 0.0
H121 H 0.20523 0.03533 0.3761 0.0
H122 H 0.31791 0.17951 0.38849 0.0
C123 C 0.18413 0.03083 0.30319 0.0
C124 C 0.18124 0.05503 0.29077 0.0
C125 C 0.20012 0.12659 0.30464 0.0
C126 C 0.20357 0.10278 0.31677 0.0
N127 N 0.19495 0.05528 0.3159 0.0
N128 N 0.18927 0.10236 0.29199 0.0
H129 H 0.17952 0.99384 0.30281 0.0
C130 C 0.33591 0.22864 0.35013 0.0
O131 O 0.35049 0.20644 0.34098 0.0
O132 O 0.17437 0.95301 0.33319 0.0
H133 H 0.214 0.12248 0.32678 0.0
H134 H 0.18864 1.00895 0.40123 0.0
H135 H 0.20671 0.16434 0.30522 0.0
Zn136 Zn 0.99868 0.18175 0.3332 0.0
C137 C 0.92985 0.07241 0.36129 0.0
N138 N 0.97608 0.0817 0.3646 0.0
C139 C 1.00602 0.12223 0.35692 0.0
N140 N 0.97933 0.13738 0.34918 0.0
N141 N 0.93191 0.10897 0.35284 0.0
C142 C 0.79676 0.11221 0.3499 0.0
O143 O 0.81894 0.14888 0.34071 0.0
O144 O 0.07265 0.2263 0.33309 0.0
Zn145 Zn 0.89909 0.14542 0.3605 0.0
N146 N 0.97065 0.1446 0.3157 0.0
C147 C 0.89963 0.07826 0.30439 0.0
C148 C 0.92322 0.10556 0.31654 0.0
C149 C 0.99522 0.15834 0.30302 0.0
N150 N 0.92398 0.09175 0.29177 0.0
C151 C 0.97123 0.13121 0.29058 0.0
O152 O 0.92356 0.2165 0.35255 0.0
C153 C 0.9522 0.24497 0.34274 0.0
O154 O 0.97758 0.23213 0.33508 0.0
H155 H 0.90342 0.09619 0.32653 0.0
H156 H 0.03214 0.19083 0.30267 0.0
C157 C 0.88342 0.15225 0.39115 0.0
C158 C 0.89946 0.16105 0.40548 0.0
C159 C 0.97927 0.17618 0.39816 0.0
C160 C 0.96394 0.16958 0.38405 0.0
N161 N 0.91603 0.15609 0.38076 0.0
N162 N 0.94692 0.17204 0.40849 0.0
H163 H 0.84593 0.14312 0.38827 0.0
C164 C 0.08607 0.2539 0.34413 0.0
O165 O 0.0529 0.24513 0.3541 0.0
O166 O 0.82321 0.1039 0.35868 0.0
H167 H 0.99037 0.17578 0.37576 0.0
H168 H 0.86194 0.04698 0.30494 0.0
H169 H 0.01707 0.18593 0.40087 0.0
Zn170 Zn 0.88006 0.75875 0.36065 0.0
C171 C 0.90305 0.88875 0.35697 0.0
N172 N 0.94365 0.89949 0.36465 0.0
C173 C 0.95297 0.86253 0.36139 0.0
N174 N 0.9164 0.82797 0.35296 0.0
N175 N 0.88786 0.84679 0.34928 0.0
C176 C 0.77141 0.83696 0.34412 0.0
O177 O 0.78022 0.81271 0.35413 0.0
O178 O 0.92157 0.72439 0.3588 0.0
Zn179 Zn 0.8436 0.82163 0.33328 0.0
N180 N 0.8696 0.76512 0.38092 0.0
C181 C 0.8498 0.80838 0.39836 0.0
C182 C 0.85626 0.79962 0.38424 0.0
C183 C 0.87344 0.7363 0.39129 0.0
N184 N 0.85393 0.78011 0.40867 0.0
C185 C 0.86479 0.74356 0.40563 0.0
O186 O 0.79323 0.75017 0.3352 0.0
C187 C 0.78041 0.7121 0.34292 0.0
O188 O 0.80889 0.7121 0.35275 0.0
H189 H 0.85006 0.81991 0.37596 0.0
H190 H 0.88247 0.70789 0.38838 0.0
C191 C 0.86739 0.84157 0.30311 0.0
C192 C 0.8946 0.84457 0.2907 0.0
C193 C 0.94709 0.82546 0.30458 0.0
C194 C 0.91973 0.82191 0.3167 0.0
N195 N 0.88087 0.83057 0.31581 0.0
N196 N 0.93386 0.83648 0.29194 0.0
H197 H 0.83505 0.84623 0.30272 0.0
C198 C 0.9132 0.6896 0.35002 0.0
O199 O 0.87649 0.67509 0.34085 0.0
O200 O 0.79901 0.85101 0.33309 0.0
H201 H 0.9289 0.81138 0.32671 0.0
H202 H 0.84016 0.83648 0.40109 0.0
H203 H 0.97822 0.81882 0.30517 0.0
Zn204 Zn 0.99835 0.82191 0.83329 0.0
C205 C 0.9296 0.86273 0.86132 0.0
N206 N 0.97584 0.89976 0.86459 0.0
C207 C 1.00576 0.88906 0.85694 0.0
N208 N 0.97906 0.84709 0.84925 0.0
N209 N 0.93166 0.82813 0.85292 0.0
C210 C 0.79654 0.68974 0.85001 0.0
O211 O 0.81875 0.67521 0.84084 0.0
O212 O 0.07232 0.85134 0.83316 0.0
Zn213 Zn 0.89884 0.75892 0.86063 0.0
N214 N 0.9702 0.83081 0.81579 0.0
C215 C 0.89899 0.82572 0.80448 0.0
C216 C 0.92269 0.8222 0.81663 0.0
C217 C 0.99477 0.84171 0.8031 0.0
N218 N 0.92335 0.83664 0.79185 0.0
C219 C 0.97069 0.84468 0.79066 0.0
O220 O 0.92334 0.71226 0.85274 0.0
C221 C 0.95194 0.71234 0.84292 0.0
O222 O 0.97728 0.75046 0.83523 0.0
H223 H 0.90291 0.81174 0.82662 0.0
H224 H 0.03177 0.84633 0.80275 0.0
C225 C 0.88313 0.73639 0.89127 0.0
C226 C 0.89906 0.74371 0.90561 0.0
C227 C 0.97871 0.80882 0.89834 0.0
C228 C 0.96349 0.80001 0.88421 0.0
N229 N 0.9157 0.76534 0.8809 0.0
N230 N 0.94639 0.78043 0.90864 0.0
H231 H 0.84575 0.70784 0.88836 0.0
C232 C 0.08581 0.8373 0.84421 0.0
O233 O 0.0527 0.81304 0.8542 0.0
O234 O 0.82297 0.72455 0.85879 0.0
H235 H 0.98993 0.82039 0.87594 0.0
H236 H 0.86124 0.81912 0.80503 0.0
H237 H 0.0164 0.83706 0.90107 0.0
Zn238 Zn 0.2034 0.18195 0.83332 0.0
C239 C 0.1627 0.07264 0.86142 0.0
N240 N 0.12574 0.08193 0.8647 0.0
C241 C 0.1364 0.12248 0.85702 0.0
N242 N 0.17829 0.13763 0.84931 0.0
N243 N 0.19726 0.10921 0.85299 0.0
C244 C 0.3357 0.11246 0.85007 0.0
O245 O 0.35032 0.14924 0.84091 0.0
O246 O 0.17398 0.2265 0.83315 0.0
Zn247 Zn 0.26653 0.14562 0.86066 0.0
N248 N 0.1945 0.14477 0.81584 0.0
C249 C 0.19959 0.07856 0.80459 0.0
C250 C 0.2031 0.10587 0.81672 0.0
C251 C 0.18367 0.15837 0.80313 0.0
N252 N 0.18873 0.09192 0.79194 0.0
C253 C 0.18074 0.13124 0.79071 0.0
O254 O 0.31318 0.21675 0.85274 0.0
C255 C 0.31303 0.2452 0.84292 0.0
O256 O 0.27484 0.23234 0.83524 0.0
H257 H 0.21354 0.09662 0.82673 0.0
H258 H 0.17908 0.19076 0.80275 0.0
C259 C 0.28916 0.15248 0.8913 0.0
C260 C 0.28196 0.16122 0.90564 0.0
C261 C 0.21703 0.17605 0.89837 0.0
C262 C 0.22571 0.1695 0.88425 0.0
N263 N 0.26025 0.1562 0.88094 0.0
N264 N 0.24539 0.17204 0.90868 0.0
H265 H 0.31759 0.14348 0.88839 0.0
C266 C 0.18806 0.25409 0.84419 0.0
O267 O 0.21233 0.24528 0.85419 0.0
O268 O 0.30085 0.10407 0.85882 0.0
H269 H 0.20534 0.17559 0.87598 0.0
H270 H 0.20617 0.04739 0.80517 0.0
H271 H 0.1889 0.18565 0.90111 0.0
Zn272 Zn 0.84331 0.02715 0.83322 0.0
C273 C 0.95269 0.09559 0.86133 0.0
N274 N 0.94338 0.04931 0.86458 0.0
C275 C 0.9028 0.01948 0.8569 0.0
N276 N 0.88766 0.04628 0.84921 0.0
N277 N 0.91613 0.09364 0.8529 0.0
C278 C 0.9128 0.22891 0.85008 0.0
O279 O 0.87578 0.20681 0.84099 0.0
O280 O 0.79873 0.95319 0.83305 0.0
Zn281 Zn 0.87981 0.12654 0.8606 0.0
N282 N 0.88052 0.05542 0.81575 0.0
C283 C 0.94674 0.12671 0.80451 0.0
C284 C 0.9194 0.10293 0.81663 0.0
C285 C 0.867 0.03094 0.80305 0.0
N286 N 0.93346 0.10245 0.79187 0.0
C287 C 0.89419 0.05512 0.79064 0.0
O288 O 0.80864 0.10204 0.85272 0.0
C289 C 0.78015 0.07354 0.84288 0.0
O290 O 0.79296 0.04827 0.83516 0.0
H291 H 0.92861 0.12264 0.82664 0.0
H292 H 0.83464 0.99394 0.80266 0.0
C293 C 0.87322 0.14235 0.89125 0.0
C294 C 0.86463 0.12643 0.90558 0.0
C295 C 0.84968 0.04664 0.8983 0.0
C296 C 0.85607 0.06185 0.88418 0.0
N297 N 0.86938 0.1097 0.88087 0.0
N298 N 0.85383 0.07904 0.90862 0.0
H299 H 0.88221 0.17977 0.88835 0.0
C300 C 0.77114 0.93968 0.84408 0.0
O301 O 0.77996 0.97276 0.85409 0.0
O302 O 0.92137 0.2024 0.85877 0.0
H303 H 0.84986 0.03538 0.8759 0.0
H304 H 0.97788 0.16447 0.8051 0.0
H305 H 0.84008 1.00891 0.90103 0.0
Zn306 Zn 0.76452 0.89419 0.66421 0.0
C307 C 0.89462 1.00112 0.66792 0.0
N308 N 0.90533 0.97122 0.66026 0.0
C309 C 0.86832 0.92496 0.66351 0.0
N310 N 0.83375 0.92704 0.67192 0.0
N311 N 0.85262 0.97442 0.6756 0.0
C312 C 0.84283 0.08109 0.68069 0.0
O313 O 0.81856 0.048 0.67069 0.0
O314 O 0.73017 0.81832 0.66606 0.0
Zn315 Zn 0.82747 0.99362 0.69158 0.0
N316 N 0.7709 0.911 0.64393 0.0
C317 C 0.81436 0.97398 0.6265 0.0
C318 C 0.80557 0.95879 0.64062 0.0
C319 C 0.74194 0.87841 0.63357 0.0
N320 N 0.78597 0.94164 0.61619 0.0
C321 C 0.74925 0.89432 0.61923 0.0
O322 O 0.75602 0.97253 0.68965 0.0
C323 C 0.71791 0.94724 0.68194 0.0
O324 O 0.71786 0.91871 0.67211 0.0
H325 H 0.82596 0.98524 0.64889 0.0
H326 H 0.71339 0.84104 0.63647 0.0
C327 C 0.84715 0.98992 0.72177 0.0
C328 C 0.85011 0.96582 0.7342 0.0
C329 C 0.83147 0.89427 0.72035 0.0
C330 C 0.82793 0.91798 0.70821 0.0
N331 N 0.8364 0.96544 0.70907 0.0
N332 N 0.84224 0.91854 0.73299 0.0
H333 H 0.85164 0.02687 0.72213 0.0
C334 C 0.69523 0.79188 0.6748 0.0
O335 O 0.68052 0.81406 0.68392 0.0
O336 O 0.85688 0.06758 0.69173 0.0
H337 H 0.81757 0.89825 0.69821 0.0
H338 H 0.8426 0.01166 0.62376 0.0
H339 H 0.82499 0.85657 0.71979 0.0
Zn340 Zn 0.13215 0.87517 0.66434 0.0
C341 C 0.0252 0.89827 0.66799 0.0
N342 N 0.05511 0.93887 0.66033 0.0
C343 C 0.10137 0.94815 0.6636 0.0
N344 N 0.09929 0.91154 0.67202 0.0
N345 N 0.0519 0.88303 0.67569 0.0
C346 C 0.94524 0.76656 0.68079 0.0
O347 O 0.97834 0.77535 0.6708 0.0
O348 O 0.20801 0.91668 0.66619 0.0
Zn349 Zn 0.03269 0.83872 0.69168 0.0
N350 N 0.11531 0.86467 0.64406 0.0
C351 C 0.05223 0.8449 0.62663 0.0
C352 C 0.06746 0.85137 0.64075 0.0
C353 C 0.14794 0.86843 0.63369 0.0
N354 N 0.0846 0.84896 0.61632 0.0
C355 C 0.13199 0.85975 0.61935 0.0
O356 O 0.0538 0.78835 0.68977 0.0
C357 C 0.0791 0.77554 0.68206 0.0
O358 O 0.10764 0.80402 0.67224 0.0
H359 H 0.041 0.84522 0.64902 0.0
H360 H 0.18536 0.87741 0.63659 0.0
C361 C 0.03629 0.86228 0.72185 0.0
C362 C 0.06035 0.88942 0.73428 0.0
C363 C 0.132 0.94214 0.72045 0.0
C364 C 0.10833 0.91484 0.70831 0.0
N365 N 0.06085 0.8759 0.70916 0.0
N366 N 0.10766 0.92876 0.73308 0.0
H367 H 0.99932 0.82987 0.72221 0.0
C368 C 0.23443 0.90834 0.67497 0.0
O369 O 0.21222 0.87166 0.68415 0.0
O370 O 0.95873 0.79416 0.69182 0.0
H371 H 0.12811 0.92412 0.69832 0.0
H372 H 1.0145 0.8353 0.6239 0.0
H373 H 0.16973 0.97333 0.7199 0.0
Zn374 Zn 0.15117 0.26177 0.66429 0.0
C375 C 0.12819 0.13178 0.66797 0.0
N376 N 0.0876 0.12105 0.66029 0.0
C377 C 0.07827 0.158 0.66355 0.0
N378 N 0.11483 0.19255 0.67198 0.0
N379 N 0.14336 0.17373 0.67566 0.0
C380 C 0.2598 0.18359 0.68083 0.0
O381 O 0.25098 0.20783 0.67083 0.0
O382 O 0.10961 0.29609 0.66612 0.0
Zn383 Zn 0.1876 0.19889 0.69167 0.0
N384 N 0.16169 0.25539 0.64403 0.0
C385 C 0.18163 0.2122 0.6266 0.0
C386 C 0.17511 0.22093 0.64072 0.0
C387 C 0.15783 0.28418 0.63365 0.0
N388 N 0.17748 0.24044 0.61629 0.0
C389 C 0.16655 0.27694 0.61932 0.0
O390 O 0.23797 0.27035 0.68975 0.0
C391 C 0.25079 0.30843 0.68204 0.0
O392 O 0.22232 0.30844 0.6722 0.0
H393 H 0.18131 0.20067 0.649 0.0
H394 H 0.14875 0.31256 0.63655 0.0
C395 C 0.16378 0.17902 0.72184 0.0
C396 C 0.13656 0.17603 0.73424 0.0
C397 C 0.08405 0.19506 0.72034 0.0
C398 C 0.11144 0.19861 0.70823 0.0
N399 N 0.15031 0.18996 0.70913 0.0
N400 N 0.09729 0.18409 0.73299 0.0
H401 H 0.19614 0.17437 0.72224 0.0
C402 C 0.11806 0.33103 0.67485 0.0
O403 O 0.15492 0.34575 0.68399 0.0
O404 O 0.2322 0.16952 0.69187 0.0
H405 H 0.10228 0.20911 0.69822 0.0
H406 H 0.19133 0.18413 0.62388 0.0
H407 H 0.05292 0.20169 0.71975 0.0
Zn408 Zn 0.79863 0.59501 0.49762 0.0
C409 C 0.69163 0.46497 0.50136 0.0
N410 N 0.72147 0.45419 0.49369 0.0
C411 C 0.76775 0.4912 0.49693 0.0
N412 N 0.76576 0.52582 0.50533 0.0
N413 N 0.7184 0.507 0.50902 0.0
C414 C 0.6118 0.51689 0.51414 0.0
O415 O 0.64487 0.54111 0.50413 0.0
O416 O 0.8745 0.62937 0.49947 0.0
Zn417 Zn 0.6993 0.53223 0.52501 0.0
N418 N 0.7818 0.58857 0.47734 0.0
C419 C 0.71882 0.5451 0.4599 0.0
C420 C 0.73402 0.5539 0.47402 0.0
C421 C 0.81439 0.61752 0.46698 0.0
N422 N 0.75116 0.57349 0.44959 0.0
C423 C 0.79848 0.6102 0.45264 0.0
O424 O 0.72043 0.6037 0.52307 0.0
C425 C 0.74567 0.64173 0.51533 0.0
O426 O 0.77412 0.64168 0.5055 0.0
H427 H 0.70756 0.53353 0.48229 0.0
H428 H 0.85177 0.64607 0.46989 0.0
C429 C 0.70311 0.51243 0.55519 0.0
C430 C 0.72727 0.50943 0.5676 0.0
C431 C 0.79884 0.52833 0.55373 0.0
C432 C 0.77507 0.53188 0.54161 0.0
N433 N 0.72758 0.52331 0.54248 0.0
N434 N 0.77459 0.51742 0.56638 0.0
H435 H 0.66612 0.50784 0.55556 0.0
C436 C 0.90091 0.66416 0.50825 0.0
O437 O 0.87869 0.67865 0.51743 0.0
O438 O 0.62534 0.50287 0.52518 0.0
H439 H 0.79477 0.54232 0.5316 0.0
H440 H 0.68114 0.51686 0.45716 0.0
H441 H 0.83658 0.53489 0.55316 0.0
Zn442 Zn 0.431 0.20838 0.49772 0.0
C443 C 0.56109 0.23156 0.50132 0.0
N444 N 0.57171 0.27214 0.49365 0.0
C445 C 0.53475 0.28141 0.49695 0.0
N446 N 0.50027 0.24481 0.50538 0.0
N447 N 0.51919 0.21633 0.50904 0.0
C448 C 0.50944 0.0999 0.51413 0.0
O449 O 0.48511 0.10871 0.50415 0.0
O450 O 0.39665 0.2499 0.49955 0.0
Zn451 Zn 0.49418 0.17205 0.52504 0.0
N452 N 0.43726 0.19777 0.47744 0.0
C453 C 0.48042 0.17781 0.46002 0.0
C454 C 0.47174 0.18439 0.47414 0.0
C455 C 0.40838 0.20152 0.46707 0.0
N456 N 0.4521 0.18186 0.44971 0.0
C457 C 0.41557 0.19274 0.45274 0.0
O458 O 0.42271 0.12167 0.52315 0.0
C459 C 0.38453 0.10883 0.51547 0.0
O460 O 0.38439 0.13728 0.50565 0.0
H461 H 0.49207 0.17826 0.48241 0.0
H462 H 0.37998 0.21056 0.46998 0.0
C463 C 0.5141 0.19561 0.55522 0.0
C464 C 0.51714 0.22275 0.56764 0.0
C465 C 0.49833 0.27552 0.5538 0.0
C466 C 0.4947 0.2482 0.54166 0.0
N467 N 0.50322 0.20925 0.54252 0.0
N468 N 0.50922 0.26212 0.56643 0.0
H469 H 0.51862 0.16317 0.55558 0.0
C470 C 0.3619 0.24158 0.50834 0.0
O471 O 0.34743 0.20492 0.51753 0.0
O472 O 0.52359 0.12749 0.52517 0.0
H473 H 0.48423 0.25748 0.53167 0.0
H474 H 0.50851 0.16814 0.45729 0.0
H475 H 0.49181 0.30673 0.55323 0.0
Zn476 Zn 0.81767 0.22747 0.49752 0.0
C477 C 0.79463 0.33445 0.50126 0.0
N478 N 0.754 0.30459 0.49359 0.0
C479 C 0.74471 0.25832 0.49683 0.0
N480 N 0.78133 0.26033 0.50524 0.0
N481 N 0.80987 0.30769 0.50893 0.0
C482 C 0.92632 0.4143 0.51407 0.0
O483 O 0.91752 0.38126 0.50406 0.0
O484 O 0.77611 0.1516 0.49936 0.0
Zn485 Zn 0.85417 0.3268 0.52492 0.0
N486 N 0.82805 0.2443 0.47725 0.0
C487 C 0.84761 0.30729 0.45981 0.0
C488 C 0.84125 0.29211 0.47394 0.0
C489 C 0.82428 0.21166 0.46688 0.0
N490 N 0.84353 0.27491 0.4495 0.0
C491 C 0.83284 0.22756 0.45254 0.0
O492 O 0.90452 0.30568 0.52298 0.0
C493 C 0.91734 0.28044 0.51525 0.0
O494 O 0.88887 0.25198 0.5054 0.0
H495 H 0.84741 0.31858 0.48221 0.0
H496 H 0.81538 0.17427 0.46978 0.0
C497 C 0.8306 0.32302 0.55509 0.0
C498 C 0.80348 0.29887 0.56752 0.0
C499 C 0.75082 0.22727 0.55366 0.0
C500 C 0.7781 0.25102 0.54152 0.0
N501 N 0.817 0.29852 0.54239 0.0
N502 N 0.76418 0.25154 0.5663 0.0
H503 H 0.86298 0.36001 0.55547 0.0
C504 C 0.78479 0.12507 0.50801 0.0
O505 O 0.82196 0.14715 0.51706 0.0
O506 O 0.89874 0.40075 0.52511 0.0
H507 H 0.76883 0.2313 0.53152 0.0
H508 H 0.85712 0.34499 0.45708 0.0
H509 H 0.71966 0.18952 0.55308 0.0
Zn510 Zn 0.87104 0.36048 0.66655 0.0
C511 C 0.83022 0.42903 0.69465 0.0
N512 N 0.79327 0.38277 0.69792 0.0
C513 C 0.80398 0.35291 0.69024 0.0
N514 N 0.84587 0.37967 0.68253 0.0
N515 N 0.86479 0.42706 0.68621 0.0
C516 C 1.00333 0.56228 0.68337 0.0
O517 O 0.01811 0.54016 0.67425 0.0
O518 O 0.84166 0.28652 0.66639 0.0
Zn519 Zn 0.93401 0.45991 0.69391 0.0
N520 N 0.86204 0.38865 0.64906 0.0
C521 C 0.8669 0.45981 0.6378 0.0
C522 C 0.87052 0.43611 0.64993 0.0
C523 C 0.85119 0.36415 0.63636 0.0
N524 N 0.85602 0.43553 0.62516 0.0
C525 C 0.84812 0.38824 0.62394 0.0
O526 O 0.98067 0.43542 0.686 0.0
C527 C 0.98062 0.40688 0.67617 0.0
O528 O 0.94252 0.38159 0.66847 0.0
H529 H 0.88094 0.45585 0.65993 0.0
H530 H 0.84667 0.3272 0.63599 0.0
C531 C 0.95631 0.47564 0.72456 0.0
C532 C 0.94899 0.45965 0.73889 0.0
C533 C 0.88433 0.37983 0.73157 0.0
C534 C 0.89315 0.39511 0.71746 0.0
N535 N 0.9276 0.443 0.71417 0.0
N536 N 0.91249 0.41221 0.7419 0.0
H537 H 0.98469 0.51311 0.72168 0.0
C538 C 0.85578 0.27303 0.67742 0.0
O539 O 0.88008 0.30613 0.68741 0.0
O540 O 0.96834 0.53578 0.69209 0.0
H541 H 0.87296 0.36865 0.70917 0.0
H542 H 0.87339 0.49752 0.63837 0.0
H543 H 0.85626 0.34205 0.73429 0.0
Zn544 Zn 0.56641 0.47903 0.69399 0.0
C545 C 0.67338 0.45593 0.69034 0.0
N546 N 0.64348 0.41536 0.69802 0.0
C547 C 0.59722 0.40605 0.69474 0.0
N548 N 0.59928 0.44263 0.68631 0.0
N549 N 0.64665 0.47113 0.68264 0.0
C550 C 0.75331 0.58757 0.67751 0.0
O551 O 0.72021 0.57877 0.68751 0.0
O552 O 0.49054 0.43749 0.69214 0.0
Zn553 Zn 0.66585 0.51539 0.66664 0.0
N554 N 0.58323 0.48957 0.71426 0.0
C555 C 0.64627 0.50941 0.73171 0.0
C556 C 0.63107 0.50288 0.71758 0.0
C557 C 0.55058 0.48583 0.72462 0.0
N558 N 0.61388 0.50537 0.74201 0.0
C559 C 0.56649 0.49455 0.73896 0.0
O560 O 0.64475 0.56576 0.66854 0.0
C561 C 0.61945 0.57861 0.67623 0.0
O562 O 0.59091 0.55017 0.68607 0.0
H563 H 0.65755 0.50899 0.70932 0.0
H564 H 0.51315 0.47682 0.72171 0.0
C565 C 0.66212 0.4918 0.63646 0.0
C566 C 0.638 0.46465 0.62404 0.0
C567 C 0.56643 0.41192 0.63789 0.0
C568 C 0.59016 0.43923 0.65002 0.0
N569 N 0.63764 0.47818 0.64916 0.0
N570 N 0.5907 0.4253 0.62525 0.0
H571 H 0.69909 0.52422 0.63609 0.0
C572 C 0.46406 0.44592 0.6834 0.0
O573 O 0.48621 0.48276 0.67427 0.0
O574 O 0.73981 0.55996 0.66648 0.0
H575 H 0.57043 0.42997 0.66003 0.0
H576 H 0.68401 0.51902 0.73445 0.0
H577 H 0.5287 0.38072 0.63846 0.0
Zn578 Zn 0.51089 0.15522 0.66668 0.0
C579 C 0.62045 0.19617 0.69471 0.0
N580 N 0.61125 0.23322 0.69796 0.0
C581 C 0.57062 0.22248 0.69031 0.0
N582 N 0.55533 0.18046 0.68264 0.0
N583 N 0.58377 0.16152 0.68633 0.0
C584 C 0.58058 0.02321 0.68337 0.0
O585 O 0.54388 1.00877 0.67419 0.0
O586 O 0.46637 0.18467 0.66652 0.0
Zn587 Zn 0.54743 0.09231 0.69404 0.0
N588 N 0.54798 0.16399 0.64919 0.0
C589 C 0.61403 0.15865 0.63793 0.0
C590 C 0.58678 0.15523 0.65006 0.0
C591 C 0.53445 0.17494 0.63649 0.0
N592 N 0.60074 0.16963 0.62529 0.0
C593 C 0.56153 0.17781 0.62407 0.0
O594 O 0.47623 0.04563 0.68617 0.0
C595 C 0.44771 0.04569 0.67635 0.0
O596 O 0.46051 0.08379 0.66865 0.0
H597 H 0.596 0.14473 0.66007 0.0
H598 H 0.50214 0.17968 0.63612 0.0
C599 C 0.54056 0.06968 0.72467 0.0
C600 C 0.53198 0.077 0.73902 0.0
C601 C 0.51774 0.14232 0.73177 0.0
C602 C 0.5241 0.13352 0.71764 0.0
N603 N 0.53705 0.09874 0.71432 0.0
N604 N 0.52155 0.11383 0.74207 0.0
H605 H 0.54925 0.04104 0.72176 0.0
C606 C 0.43884 0.17069 0.67756 0.0
O607 O 0.4477 0.14649 0.68758 0.0
O608 O 0.58893 0.05794 0.69217 0.0
H609 H 0.51811 0.15398 0.70938 0.0
H610 H 0.64511 0.15193 0.6385 0.0
H611 H 0.50842 0.17065 0.73452 0.0
Zn612 Zn 0.66592 0.15557 0.16663 0.0
C613 C 0.59736 0.1964 0.19472 0.0
N614 N 0.64362 0.23337 0.198 0.0
C615 C 0.6735 0.22266 0.19032 0.0
N616 N 0.64674 0.18074 0.18261 0.0
N617 N 0.59936 0.16181 0.1863 0.0
C618 C 0.4642 0.02339 0.18338 0.0
O619 O 0.48638 1.00881 0.17422 0.0
O620 O 0.73989 0.18499 0.16645 0.0
Zn621 Zn 0.56651 0.09259 0.19398 0.0
N622 N 0.63762 0.16443 0.14915 0.0
C623 C 0.56628 0.15924 0.1379 0.0
C624 C 0.59008 0.15575 0.15003 0.0
C625 C 0.66209 0.17536 0.13645 0.0
N626 N 0.59054 0.17019 0.12526 0.0
C627 C 0.63789 0.17829 0.12403 0.0
O628 O 0.59102 0.04593 0.18609 0.0
C629 C 0.61958 0.04601 0.17626 0.0
O630 O 0.64487 0.08413 0.16857 0.0
H631 H 0.57038 0.14526 0.16003 0.0
H632 H 0.69911 0.18003 0.13607 0.0
C633 C 0.55067 0.07008 0.22462 0.0
C634 C 0.56657 0.0773 0.23896 0.0
C635 C 0.64637 0.14218 0.2317 0.0
C636 C 0.63117 0.13347 0.21758 0.0
N637 N 0.58334 0.09894 0.21426 0.0
N638 N 0.61397 0.11385 0.24201 0.0
H639 H 0.51325 0.04167 0.22171 0.0
C640 C 0.75344 0.17095 0.17749 0.0
O641 O 0.72038 0.14671 0.1875 0.0
O642 O 0.49065 0.05824 0.19214 0.0
H643 H 0.65766 0.15381 0.20931 0.0
H644 H 0.52851 0.15259 0.13848 0.0
H645 H 0.6841 0.17029 0.23445 0.0
Zn646 Zn 0.87109 0.51567 0.16656 0.0
C647 C 0.83033 0.40633 0.19465 0.0
N648 N 0.79337 0.41563 0.19793 0.0
C649 C 0.80406 0.45619 0.19025 0.0
N650 N 0.84595 0.47133 0.18254 0.0
N651 N 0.86489 0.44288 0.18622 0.0
C652 C 1.00317 0.44603 0.18324 0.0
O653 O 0.01754 0.48262 0.17403 0.0
O654 O 0.84168 0.56024 0.1664 0.0
Zn655 Zn 0.93413 0.47926 0.19389 0.0
N656 N 0.86212 0.47847 0.14908 0.0
C657 C 0.86712 0.41223 0.13782 0.0
C658 C 0.87071 0.43956 0.14995 0.0
C659 C 0.85119 0.49204 0.13638 0.0
N660 N 0.85615 0.42555 0.12518 0.0
C661 C 0.84815 0.46486 0.12396 0.0
O662 O 0.98077 0.5504 0.18599 0.0
C663 C 0.98069 0.57888 0.17617 0.0
O664 O 0.94255 0.56605 0.16848 0.0
H665 H 0.8812 0.43033 0.15995 0.0
H666 H 0.84659 0.52442 0.13601 0.0
C667 C 0.95653 0.48589 0.22455 0.0
C668 C 0.94923 0.49456 0.23888 0.0
C669 C 0.8845 0.50966 0.23158 0.0
C670 C 0.8933 0.50319 0.21746 0.0
N671 N 0.92777 0.48978 0.21416 0.0
N672 N 0.91271 0.50548 0.2419 0.0
H673 H 0.98492 0.47682 0.22165 0.0
C674 C 0.85579 0.58783 0.17744 0.0
O675 O 0.88009 0.57901 0.18743 0.0
O676 O 0.9685 0.43776 0.19205 0.0
H677 H 0.87307 0.50942 0.20918 0.0
H678 H 0.87369 0.38106 0.13839 0.0
H679 H 0.85642 0.51935 0.2343 0.0
Zn680 Zn 0.51097 0.36076 0.16663 0.0
C681 C 0.62047 0.42941 0.19469 0.0
N682 N 0.61124 0.38317 0.19795 0.0
C683 C 0.57064 0.35328 0.19028 0.0
N684 N 0.5554 0.38001 0.1826 0.0
N685 N 0.58383 0.42739 0.18628 0.0
C686 C 0.5805 0.56259 0.18344 0.0
O687 O 0.54359 0.54044 0.17432 0.0
O688 O 0.46642 0.2868 0.16649 0.0
Zn689 Zn 0.54745 0.46024 0.19399 0.0
N690 N 0.54804 0.38895 0.14913 0.0
C691 C 0.61418 0.4602 0.13785 0.0
C692 C 0.58695 0.43645 0.14999 0.0
C693 C 0.53439 0.36445 0.13643 0.0
N694 N 0.60078 0.43592 0.12521 0.0
C695 C 0.56147 0.38859 0.124 0.0
O696 O 0.47629 0.43575 0.1861 0.0
C697 C 0.4478 0.40718 0.17627 0.0
O698 O 0.4606 0.38186 0.16858 0.0
H699 H 0.59625 0.45619 0.16 0.0
H700 H 0.50201 0.32746 0.13607 0.0
C701 C 0.54054 0.47593 0.22464 0.0
C702 C 0.5319 0.45999 0.23897 0.0
C703 C 0.51746 0.38038 0.2317 0.0
C704 C 0.52389 0.3956 0.21758 0.0
N705 N 0.53697 0.44338 0.21427 0.0
N706 N 0.52133 0.41268 0.24201 0.0
H707 H 0.54934 0.5133 0.22174 0.0
C708 C 0.43889 0.2733 0.17753 0.0
O709 O 0.44772 0.30641 0.18753 0.0
O710 O 0.58899 0.53611 0.19216 0.0
H711 H 0.51787 0.36917 0.2093 0.0
H712 H 0.64534 0.49795 0.13842 0.0
H713 H 0.50803 0.34269 0.23443 0.0
Zn714 Zn 0.43104 0.22761 0.99759 0.0
C715 C 0.56113 0.33459 1.0013 0.0
N716 N 0.57186 0.3047 0.99363 0.0
C717 C 0.53485 0.25844 0.99688 0.0
N718 N 0.50028 0.2605 1.00529 0.0
N719 N 0.51914 0.30787 1.00897 0.0
C720 C 0.50932 0.41453 0.01408 0.0
O721 O 0.48504 0.38145 1.00408 0.0
O722 O 0.39672 0.15174 0.99945 0.0
Zn723 Zn 0.49399 0.32706 0.02496 0.0
N724 N 0.43737 0.24441 0.97731 0.0
C725 C 0.48078 0.30735 0.95986 0.0
C726 C 0.47205 0.29218 0.97399 0.0
C727 C 0.40834 0.21182 0.96695 0.0
N728 N 0.45231 0.27502 0.94956 0.0
C729 C 0.41558 0.22772 0.95262 0.0
O730 O 0.42252 0.30594 0.02303 0.0
C731 C 0.38442 0.28064 0.01532 0.0
O732 O 0.38439 0.25211 1.00549 0.0
H733 H 0.4925 0.31863 0.98225 0.0
H734 H 0.37978 0.17446 0.96987 0.0
C735 C 0.51379 0.32335 0.05515 0.0
C736 C 0.5168 0.29924 0.06757 0.0
C737 C 0.49799 0.22766 0.05371 0.0
C738 C 0.49442 0.25139 0.04158 0.0
N739 N 0.50295 0.29886 0.04245 0.0
N740 N 0.50886 0.25194 0.06636 0.0
H741 H 0.51834 0.36032 0.05552 0.0
C742 C 0.36176 0.12529 1.00817 0.0
O743 O 0.34699 0.14745 0.01728 0.0
O744 O 0.52338 0.40102 0.02512 0.0
H745 H 0.48399 0.23166 0.03158 0.0
H746 H 0.50902 0.34502 0.95712 0.0
H747 H 0.49147 0.18994 0.05314 0.0
Zn748 Zn 0.79864 0.20858 0.99764 0.0
C749 C 0.69167 0.23165 1.0013 0.0
N750 N 0.72156 0.27222 0.99361 0.0
C751 C 0.76783 0.28153 0.99689 0.0
N752 N 0.76579 0.24498 1.00532 0.0
N753 N 0.71841 0.21647 1.009 0.0
C754 C 0.61179 0.09999 0.01413 0.0
O755 O 0.64489 0.10878 1.00414 0.0
O756 O 0.87452 0.25016 0.99945 0.0
Zn757 Zn 0.69924 0.17221 0.025 0.0
N758 N 0.78165 0.19796 0.97738 0.0
C759 C 0.71841 0.17795 0.95999 0.0
C760 C 0.73375 0.18451 0.9741 0.0
C761 C 0.81425 0.20179 0.96699 0.0
N762 N 0.75075 0.18208 0.94966 0.0
C763 C 0.7982 0.19303 0.95266 0.0
O764 O 0.72037 0.12185 0.0231 0.0
C765 C 0.74568 0.10902 0.0154 0.0
O766 O 0.7742 0.13748 1.00557 0.0
H767 H 0.70732 0.1783 0.98239 0.0
H768 H 0.85173 0.21089 0.96987 0.0
C769 C 0.70299 0.19585 0.05518 0.0
C770 C 0.72711 0.22303 0.06759 0.0
C771 C 0.79865 0.27577 0.05373 0.0
C772 C 0.77492 0.24842 0.0416 0.0
N773 N 0.72746 0.20945 0.04248 0.0
N774 N 0.7744 0.26241 0.06637 0.0
H775 H 0.66603 0.16341 0.05555 0.0
C776 C 0.90105 0.24166 1.00815 0.0
O777 O 0.87896 0.20471 0.01725 0.0
O778 O 0.62528 0.12761 0.02516 0.0
H779 H 0.79464 0.25768 0.0316 0.0
H780 H 0.68062 0.16823 0.95728 0.0
H781 H 0.83637 0.30699 0.05315 0.0
Zn782 Zn 0.8177 0.59523 0.9976 0.0
C783 C 0.79463 0.46521 1.00126 0.0
N784 N 0.75402 0.45451 0.99358 0.0
C785 C 0.74472 0.49147 0.99686 0.0
N786 N 0.78133 0.52601 1.00529 0.0
N787 N 0.80985 0.50715 1.00895 0.0
C788 C 0.92629 0.51695 0.01408 0.0
O789 O 0.91747 0.54122 1.00408 0.0
O790 O 0.77619 0.62959 0.99945 0.0
Zn791 Zn 0.85414 0.53227 0.02495 0.0
N792 N 0.82815 0.58886 0.97733 0.0
C793 C 0.84795 0.54562 0.95989 0.0
C794 C 0.84151 0.55437 0.97401 0.0
C795 C 0.82426 0.61766 0.96696 0.0
N796 N 0.84378 0.57386 0.94958 0.0
C797 C 0.8329 0.6104 0.95262 0.0
O798 O 0.90452 0.60373 0.02304 0.0
C799 C 0.91735 0.64183 0.01533 0.0
O800 O 0.88888 0.64188 1.0055 0.0
H801 H 0.84773 0.5341 0.98228 0.0
H802 H 0.81522 0.64606 0.96987 0.0
C803 C 0.83052 0.51242 0.05512 0.0
C804 C 0.80338 0.50943 0.06754 0.0
C805 C 0.75072 0.52838 0.05368 0.0
C806 C 0.77803 0.53193 0.04155 0.0
N807 N 0.81693 0.52333 0.04242 0.0
N808 N 0.76407 0.51744 0.06632 0.0
H809 H 0.8629 0.50782 0.05549 0.0
C810 C 0.78463 0.66448 1.0082 0.0
O811 O 0.82146 0.67911 0.01735 0.0
O812 O 0.89871 0.50287 0.02512 0.0
H813 H 0.76878 0.54242 0.03155 0.0
H814 H 0.85761 0.51752 0.95715 0.0
H815 H 0.71956 0.53496 0.05311 0.0
Zn816 Zn 0.46453 0.92836 0.83098 0.0
C817 C 0.35755 0.79837 0.83465 0.0
N818 N 0.38743 0.78764 0.82698 0.0
C819 C 0.43371 0.8246 0.83025 0.0
N820 N 0.43167 0.85915 0.83867 0.0
N821 N 0.3843 0.84032 0.84235 0.0
C822 C 0.27771 0.85015 0.84751 0.0
O823 O 0.31079 0.87439 0.8375 0.0
O824 O 0.5404 0.9627 0.83282 0.0
Zn825 Zn 0.3652 0.86548 0.85835 0.0
N826 N 0.4477 0.92197 0.81071 0.0
C827 C 0.38464 0.87877 0.79327 0.0
C828 C 0.39984 0.88751 0.80739 0.0
C829 C 0.48039 0.95076 0.80034 0.0
N830 N 0.41707 0.90702 0.78296 0.0
C831 C 0.46449 0.94352 0.786 0.0
O832 O 0.38628 0.93694 0.85643 0.0
C833 C 0.41154 0.97501 0.84871 0.0
O834 O 0.44002 0.97502 0.83887 0.0
H835 H 0.37334 0.86723 0.81566 0.0
H836 H 0.51784 0.97913 0.80325 0.0
C837 C 0.36913 0.84564 0.88852 0.0
C838 C 0.39337 0.84268 0.90093 0.0
C839 C 0.46492 0.86172 0.88704 0.0
C840 C 0.44108 0.86524 0.87492 0.0
N841 N 0.39356 0.85657 0.87581 0.0
N842 N 0.44071 0.85076 0.89969 0.0
H843 H 0.33212 0.84098 0.88891 0.0
C844 C 0.56685 0.99757 0.84158 0.0
O845 O 0.54467 0.01218 0.85073 0.0
O846 O 0.29123 0.83609 0.85854 0.0
H847 H 0.46076 0.87574 0.86491 0.0
H848 H 0.34689 0.8507 0.79053 0.0
H849 H 0.50268 0.86835 0.88644 0.0
Zn850 Zn 0.09697 0.54175 0.83098 0.0
C851 C 0.22702 0.56488 0.83464 0.0
N852 N 0.2377 0.60547 0.82697 0.0
C853 C 0.20072 0.61475 0.83024 0.0
N854 N 0.1662 0.57815 0.83867 0.0
N855 N 0.18508 0.54964 0.84234 0.0
C856 C 0.17527 0.43318 0.84745 0.0
O857 O 0.15098 0.44198 0.83745 0.0
O858 O 0.06262 0.58328 0.8328 0.0
Zn859 Zn 0.15999 0.50536 0.85833 0.0
N860 N 0.10336 0.5312 0.81071 0.0
C861 C 0.14667 0.51132 0.79331 0.0
C862 C 0.13786 0.51782 0.80743 0.0
C863 C 0.07458 0.53501 0.80032 0.0
N864 N 0.11845 0.51544 0.78298 0.0
C865 C 0.0819 0.52632 0.78599 0.0
O866 O 0.08852 0.45499 0.85642 0.0
C867 C 0.05039 0.44216 0.84872 0.0
O868 O 0.05031 0.47063 0.83889 0.0
H869 H 0.15809 0.51162 0.81571 0.0
H870 H 0.04615 0.54404 0.8032 0.0
C871 C 0.18 0.52906 0.88849 0.0
C872 C 0.18303 0.55622 0.90092 0.0
C873 C 0.1639 0.60876 0.88707 0.0
C874 C 0.16031 0.58144 0.87494 0.0
N875 N 0.16898 0.54258 0.8758 0.0
N876 N 0.17495 0.59548 0.8997 0.0
H877 H 0.18466 0.49671 0.88886 0.0
C878 C 0.02777 0.5749 0.84156 0.0
O879 O 1.01318 0.53814 0.85072 0.0
O880 O 0.18938 0.46078 0.85849 0.0
H881 H 0.14975 0.59063 0.86494 0.0
H882 H 0.17478 0.50166 0.7906 0.0
H883 H 0.15726 0.63989 0.8865 0.0
Zn884 Zn 0.4836 0.56079 0.83092 0.0
C885 C 0.46049 0.66776 0.83464 0.0
N886 N 0.41987 0.63788 0.82697 0.0
C887 C 0.41062 0.59162 0.83021 0.0
N888 N 0.44725 0.59366 0.83862 0.0
N889 N 0.47576 0.64103 0.84231 0.0
C890 C 0.59225 0.74768 0.84739 0.0
O891 O 0.58343 0.71457 0.8374 0.0
O892 O 0.44205 0.48492 0.83277 0.0
Zn893 Zn 0.52012 0.66023 0.85829 0.0
N894 N 0.49407 0.57759 0.81064 0.0
C895 C 0.51355 0.64052 0.79319 0.0
C896 C 0.50711 0.62535 0.80731 0.0
C897 C 0.49056 0.54502 0.80028 0.0
N898 N 0.50973 0.6082 0.78289 0.0
C899 C 0.49921 0.56092 0.78594 0.0
O900 O 0.57045 0.63909 0.85636 0.0
C901 C 0.58325 0.6138 0.84865 0.0
O902 O 0.55477 0.58529 0.83882 0.0
H903 H 0.51309 0.65179 0.81557 0.0
H904 H 0.4818 0.50767 0.80319 0.0
C905 C 0.49674 0.65659 0.88848 0.0
C906 C 0.46964 0.63252 0.90092 0.0
C907 C 0.4167 0.56099 0.88707 0.0
C908 C 0.44397 0.58467 0.87493 0.0
N909 N 0.48299 0.6321 0.87579 0.0
N910 N 0.43021 0.58527 0.89971 0.0
H911 H 0.52922 0.69352 0.88885 0.0
C912 C 0.45065 0.45844 0.84146 0.0
O913 O 0.4877 0.48057 0.85054 0.0
O914 O 0.5647 0.73419 0.85843 0.0
H915 H 0.43459 0.56493 0.86493 0.0
H916 H 0.52295 0.67819 0.79044 0.0
H917 H 0.38544 0.5233 0.88651 0.0
Zn918 Zn 0.53765 0.69398 0.99995 0.0
C919 C 0.49681 0.76251 0.02805 0.0
N920 N 0.45984 0.71625 0.03131 0.0
C921 C 0.47055 0.68639 0.02363 0.0
N922 N 0.51248 0.71317 0.01593 0.0
N923 N 0.53141 0.76054 0.01963 0.0
C924 C 0.66999 0.89578 0.01678 0.0
O925 O 0.68484 0.87365 1.00768 0.0
O926 O 0.50826 0.62002 0.99978 0.0
Zn927 Zn 0.60065 0.79341 0.02732 0.0
N928 N 0.52871 0.72221 0.98247 0.0
C929 C 0.5338 0.79349 0.97121 0.0
C930 C 0.53734 0.76972 0.98334 0.0
C931 C 0.51777 0.69772 0.96977 0.0
N932 N 0.52283 0.76921 0.95857 0.0
C933 C 0.51478 0.72187 0.95735 0.0
O934 O 0.6473 0.76891 0.01941 0.0
C935 C 0.64724 0.74037 1.00958 0.0
O936 O 0.60912 0.71508 1.00188 0.0
H937 H 0.54782 0.78944 0.99334 0.0
H938 H 0.51313 0.66071 0.96939 0.0
C939 C 0.62322 0.80917 0.05796 0.0
C940 C 0.61595 0.79324 0.0723 0.0
C941 C 0.55097 0.71353 0.06502 0.0
C942 C 0.55972 0.72875 0.0509 0.0
N943 N 0.59431 0.77656 0.04759 0.0
N944 N 0.57932 0.74588 0.07533 0.0
H945 H 0.6517 0.84658 0.05506 0.0
C946 C 0.52233 0.6065 1.01082 0.0
O947 O 0.54661 0.63958 0.02082 0.0
O948 O 0.63497 0.86928 0.02549 0.0
H949 H 0.53936 0.70229 0.04263 0.0
H950 H 0.54041 0.83124 0.97179 0.0
H951 H 0.52279 0.67581 0.06776 0.0
Zn952 Zn 0.23297 0.81243 0.02734 0.0
C953 C 0.33994 0.78931 0.02368 0.0
N954 N 0.31003 0.74873 0.03136 0.0
C955 C 0.26377 0.73945 0.02808 0.0
N956 N 0.26585 0.77605 0.01966 0.0
N957 N 0.31323 0.80454 0.01599 0.0
C958 C 0.41988 0.92096 1.01085 0.0
O959 O 0.38679 0.91216 0.02085 0.0
O960 O 0.15709 0.77088 0.02549 0.0
Zn961 Zn 0.3324 0.84881 0.99999 0.0
N962 N 0.24985 0.82299 0.04761 0.0
C963 C 0.31296 0.84282 0.06503 0.0
C964 C 0.2977 0.8363 0.05091 0.0
C965 C 0.21724 0.81926 0.05798 0.0
N966 N 0.28061 0.83878 0.07534 0.0
C967 C 0.23321 0.82798 0.07231 0.0
O968 O 0.31132 0.89919 1.0019 0.0
C969 C 0.28601 0.91203 1.00959 0.0
O970 O 0.25746 0.88357 0.01942 0.0
H971 H 0.32415 0.84243 0.04263 0.0
H972 H 0.17981 0.81028 0.05508 0.0
C973 C 0.32854 0.82515 0.96981 0.0
C974 C 0.30435 0.79798 0.95739 0.0
C975 C 0.23282 0.74533 0.97128 0.0
C976 C 0.25661 0.77267 0.9834 0.0
N977 N 0.30411 0.81158 0.98251 0.0
N978 N 0.25704 0.75866 0.95863 0.0
H979 H 0.36552 0.85754 0.96942 0.0
C980 C 0.13064 0.77927 0.01673 0.0
O981 O 0.15282 0.81605 1.00758 0.0
O982 O 0.40637 0.89337 0.99982 0.0
H983 H 0.23692 0.76345 0.9934 0.0
H984 H 0.3507 0.85243 0.06776 0.0
H985 H 0.19508 0.71416 0.97186 0.0
Zn986 Zn 0.17753 0.48886 0.99992 0.0
C987 C 0.28692 0.52955 0.02801 0.0
N988 N 0.27763 0.5665 0.0313 0.0
C989 C 0.23706 0.55584 0.02363 0.0
N990 N 0.2219 0.51396 0.0159 0.0
N991 N 0.25034 0.495 0.01957 0.0
C992 C 0.24702 0.35653 0.01666 0.0
O993 O 0.21022 0.3419 1.00751 0.0
O994 O 0.13298 0.51827 0.99978 0.0
Zn995 Zn 0.21393 0.42577 0.02725 0.0
N996 N 0.21467 0.49785 0.98243 0.0
C997 C 0.28092 0.49294 0.97115 0.0
C998 C 0.25363 0.48933 0.98328 0.0
C999 C 0.201 0.50872 0.96974 0.0
N1000 N 0.26749 0.50384 0.95851 0.0
C1001 C 0.22812 0.51177 0.95731 0.0
O1002 O 0.1428 0.37914 0.01933 0.0
C1003 C 0.11431 0.37925 1.00951 0.0
O1004 O 0.12714 0.4174 1.00183 0.0
H1005 H 0.26294 0.47888 0.99328 0.0
H1006 H 0.16858 0.51326 0.96939 0.0
C1007 C 0.20726 0.40333 0.05789 0.0
C1008 C 0.19853 0.41057 0.07223 0.0
C1009 C 0.18343 0.4753 0.06493 0.0
C1010 C 0.18996 0.46656 0.05082 0.0
N1011 N 0.20339 0.43211 0.04752 0.0
N1012 N 0.18759 0.44707 0.07525 0.0
H1013 H 0.21636 0.37496 0.05499 0.0
C1014 C 0.10538 0.50416 1.01082 0.0
O1015 O 0.11418 0.47985 0.02081 0.0
O1016 O 0.25545 0.39141 0.02542 0.0
H1017 H 0.18375 0.48682 0.04254 0.0
H1018 H 0.31212 0.48642 0.9717 0.0
H1019 H 0.17372 0.50336 0.06766 0.0
Zn1020 Zn 0.3323 0.48843 0.49998 0.0
C1021 C 0.2638 0.52947 0.52803 0.0
N1022 N 0.31007 0.5665 0.53127 0.0
C1023 C 0.33992 0.55573 0.52361 0.0
N1024 N 0.31316 0.51371 0.51595 0.0
N1025 N 0.26578 0.4948 0.51964 0.0
C1026 C 0.13066 0.35656 0.51664 0.0
O1027 O 0.15295 0.34221 0.50745 0.0
O1028 O 0.40627 0.51787 0.4998 0.0
Zn1029 Zn 0.23288 0.4256 0.52734 0.0
N1030 N 0.30393 0.49718 0.4825 0.0
C1031 C 0.23251 0.49184 0.47126 0.0
C1032 C 0.25637 0.48843 0.48338 0.0
C1033 C 0.32837 0.5081 0.4698 0.0
N1034 N 0.25675 0.50279 0.45861 0.0
C1035 C 0.30412 0.51096 0.45738 0.0
O1036 O 0.25741 0.37891 0.51949 0.0
C1037 C 0.28597 0.37893 0.50967 0.0
O1038 O 0.31125 0.41701 0.50195 0.0
H1039 H 0.23669 0.47796 0.49339 0.0
H1040 H 0.36541 0.51283 0.46942 0.0
C1041 C 0.21701 0.40303 0.55798 0.0
C1042 C 0.23286 0.41035 0.57232 0.0
C1043 C 0.3125 0.47558 0.56509 0.0
C1044 C 0.29738 0.46677 0.55096 0.0
N1045 N 0.24963 0.43203 0.54763 0.0
N1046 N 0.28013 0.44713 0.57538 0.0
H1047 H 0.17968 0.37443 0.55506 0.0
C1048 C 0.41983 0.50391 0.51085 0.0
O1049 O 0.38678 0.47972 0.52087 0.0
O1050 O 0.15702 0.39123 0.52546 0.0
H1051 H 0.32385 0.48719 0.5427 0.0
H1052 H 0.19472 0.48513 0.47184 0.0
H1053 H 0.35015 0.50387 0.56784 0.0
Zn1054 Zn 0.53739 0.84862 0.49989 0.0
C1055 C 0.49685 0.73932 0.528 0.0
N1056 N 0.45991 0.74862 0.5313 0.0
C1057 C 0.47052 0.78915 0.52361 0.0
N1058 N 0.51237 0.80429 0.51588 0.0
N1059 N 0.53136 0.77588 0.51955 0.0
C1060 C 0.66977 0.77912 0.51662 0.0
O1061 O 0.68429 0.8158 0.50744 0.0
O1062 O 0.508 0.89319 0.49977 0.0
Zn1063 Zn 0.60063 0.81233 0.52721 0.0
N1064 N 0.52833 0.81144 0.4824 0.0
C1065 C 0.53323 0.74518 0.47112 0.0
C1066 C 0.53686 0.7725 0.48326 0.0
C1067 C 0.51742 0.82507 0.46971 0.0
N1068 N 0.52229 0.75856 0.45849 0.0
C1069 C 0.51435 0.79792 0.45728 0.0
O1070 O 0.64725 0.88341 0.51926 0.0
C1071 C 0.64708 0.91185 0.50944 0.0
O1072 O 0.60887 0.899 0.50178 0.0
H1073 H 0.54736 0.76323 0.49325 0.0
H1074 H 0.51288 0.85749 0.46935 0.0
C1075 C 0.62317 0.81919 0.55786 0.0
C1076 C 0.61595 0.82799 0.57219 0.0
C1077 C 0.55122 0.84307 0.56488 0.0
C1078 C 0.55993 0.83646 0.55077 0.0
N1079 N 0.59437 0.823 0.54748 0.0
N1080 N 0.57947 0.83896 0.57521 0.0
H1081 H 0.65153 0.81007 0.55497 0.0
C1082 C 0.52217 0.9208 0.5108 0.0
O1083 O 0.54652 0.91198 0.52078 0.0
O1084 O 0.63498 0.7708 0.5254 0.0
H1085 H 0.53965 0.84262 0.54249 0.0
H1086 H 0.53976 0.71398 0.47168 0.0
H1087 H 0.52317 0.8528 0.5676 0.0
Zn1088 Zn 0.17739 0.69378 0.49997 0.0
C1089 C 0.28684 0.76231 0.52804 0.0
N1090 N 0.27755 0.71604 0.5313 0.0
C1091 C 0.23696 0.68619 0.52363 0.0
N1092 N 0.22178 0.71296 0.51594 0.0
N1093 N 0.25024 0.76033 0.51963 0.0
C1094 C 0.24678 0.89561 0.51686 0.0
O1095 O 0.2096 0.87356 0.50783 0.0
O1096 O 0.13283 0.61983 0.4998 0.0
Zn1097 Zn 0.21389 0.7932 0.52734 0.0
N1098 N 0.2145 0.72197 0.48248 0.0
C1099 C 0.28072 0.79314 0.47119 0.0
C1100 C 0.25347 0.76943 0.48333 0.0
C1101 C 0.20079 0.69747 0.46978 0.0
N1102 N 0.26726 0.76885 0.45856 0.0
C1103 C 0.22788 0.72156 0.45735 0.0
O1104 O 0.14271 0.7687 0.51945 0.0
C1105 C 0.11422 0.74017 0.50962 0.0
O1106 O 0.12703 0.71489 0.50191 0.0
H1107 H 0.26281 0.78917 0.49334 0.0
H1108 H 0.16836 0.66051 0.46942 0.0
C1109 C 0.20723 0.80899 0.55798 0.0
C1110 C 0.19862 0.79308 0.57232 0.0
C1111 C 0.18383 0.71334 0.56504 0.0
C1112 C 0.19024 0.72854 0.55092 0.0
N1113 N 0.20346 0.77636 0.54761 0.0
N1114 N 0.18789 0.74571 0.57536 0.0
H1115 H 0.21616 0.84639 0.55508 0.0
C1116 C 0.10525 0.60629 0.51084 0.0
O1117 O 0.11404 0.63936 0.52084 0.0
O1118 O 0.25546 0.86906 0.52551 0.0
H1119 H 0.18409 0.70207 0.54265 0.0
H1120 H 0.31194 0.83085 0.47176 0.0
H1121 H 0.17429 0.67563 0.56778 0.0
Zn1122 Zn 0.09722 0.56064 0.33094 0.0
C1123 C 0.22723 0.66759 0.33466 0.0
N1124 N 0.23798 0.63771 0.327 0.0
C1125 C 0.20099 0.59145 0.33025 0.0
N1126 N 0.16641 0.59349 0.33866 0.0
N1127 N 0.18525 0.64086 0.34234 0.0
C1128 C 0.17538 0.74749 0.34747 0.0
O1129 O 0.15112 0.71442 0.33746 0.0
O1130 O 0.06293 0.48477 0.33275 0.0
Zn1131 Zn 0.16006 0.66 0.35833 0.0
N1132 N 0.10369 0.57756 0.31068 0.0
C1133 C 0.14707 0.64067 0.29327 0.0
C1134 C 0.13823 0.62541 0.30739 0.0
C1135 C 0.07489 0.54496 0.30029 0.0
N1136 N 0.11884 0.60832 0.28294 0.0
C1137 C 0.08224 0.56093 0.28596 0.0
O1138 O 0.08859 0.63887 0.35639 0.0
C1139 C 0.05052 0.6136 0.34867 0.0
O1140 O 0.05052 0.58511 0.33884 0.0
H1141 H 0.15849 0.65186 0.31567 0.0
H1142 H 0.04643 0.50752 0.30318 0.0
C1143 C 0.17992 0.65627 0.38851 0.0
C1144 C 0.18293 0.63214 0.40093 0.0
C1145 C 0.16398 0.56053 0.38707 0.0
C1146 C 0.16042 0.58426 0.37494 0.0
N1147 N 0.16901 0.63176 0.37581 0.0
N1148 N 0.17491 0.58482 0.39971 0.0
H1149 H 0.18452 0.69326 0.38888 0.0
C1150 C 0.02766 0.45818 0.34138 0.0
O1151 O 1.01249 0.48021 0.35042 0.0
O1152 O 0.18944 0.73395 0.3585 0.0
H1153 H 0.14995 0.56453 0.36494 0.0
H1154 H 0.17522 0.67841 0.29055 0.0
H1155 H 0.1574 0.52278 0.3865 0.0
Zn1156 Zn 0.46478 0.54153 0.33098 0.0
C1157 C 0.35779 0.56458 0.33464 0.0
N1158 N 0.38768 0.60517 0.32696 0.0
C1159 C 0.43395 0.61448 0.33023 0.0
N1160 N 0.43191 0.5779 0.33866 0.0
N1161 N 0.38453 0.54939 0.34233 0.0
C1162 C 0.27795 0.43294 0.34746 0.0
O1163 O 0.31107 0.44177 0.33746 0.0
O1164 O 0.54065 0.58307 0.33282 0.0
Zn1165 Zn 0.36538 0.50512 0.35833 0.0
N1166 N 0.44794 0.53102 0.3107 0.0
C1167 C 0.38486 0.51116 0.29327 0.0
C1168 C 0.40008 0.51766 0.30739 0.0
C1169 C 0.4806 0.53485 0.30033 0.0
N1170 N 0.41727 0.51529 0.28296 0.0
C1171 C 0.46468 0.52617 0.28599 0.0
O1172 O 0.3865 0.45476 0.35643 0.0
C1173 C 0.41178 0.44192 0.34872 0.0
O1174 O 0.44028 0.47037 0.33888 0.0
H1175 H 0.37361 0.51148 0.31566 0.0
H1176 H 0.51805 0.5439 0.30324 0.0
C1177 C 0.36914 0.52869 0.38851 0.0
C1178 C 0.39327 0.55585 0.40093 0.0
C1179 C 0.46478 0.60866 0.38706 0.0
C1180 C 0.44105 0.58133 0.37494 0.0
N1181 N 0.3936 0.54234 0.37581 0.0
N1182 N 0.44054 0.59525 0.39971 0.0
H1183 H 0.3322 0.49624 0.38889 0.0
C1184 C 0.56712 0.57466 0.34157 0.0
O1185 O 0.54497 0.53786 0.35072 0.0
O1186 O 0.29142 0.46053 0.35849 0.0
H1187 H 0.46076 0.59062 0.36493 0.0
H1188 H 0.34711 0.50151 0.29053 0.0
H1189 H 0.50248 0.63989 0.38649 0.0
Zn1190 Zn 0.48374 0.92818 0.33089 0.0
C1191 C 0.46063 0.79808 0.33463 0.0
N1192 N 0.41997 0.7873 0.32698 0.0
C1193 C 0.41075 0.82435 0.33021 0.0
N1194 N 0.44743 0.85898 0.3386 0.0
N1195 N 0.47596 0.84013 0.34228 0.0
C1196 C 0.59241 0.84992 0.34738 0.0
O1197 O 0.58357 0.87413 0.33737 0.0
O1198 O 0.44226 0.96255 0.33278 0.0
Zn1199 Zn 0.52033 0.86536 0.35826 0.0
N1200 N 0.49408 0.92179 0.3106 0.0
C1201 C 0.51333 0.87822 0.29313 0.0
C1202 C 0.50699 0.88699 0.30726 0.0
C1203 C 0.4906 0.9509 0.30026 0.0
N1204 N 0.50955 0.90677 0.28284 0.0
C1205 C 0.49916 0.94362 0.28591 0.0
O1206 O 0.57069 0.9368 0.3563 0.0
C1207 C 0.58348 0.97486 0.34858 0.0
O1208 O 0.55495 0.97485 0.33875 0.0
H1209 H 0.51295 0.86648 0.31551 0.0
H1210 H 0.48194 0.97955 0.30319 0.0
C1211 C 0.4968 0.84562 0.38844 0.0
C1212 C 0.46971 0.84269 0.40087 0.0
C1213 C 0.41708 0.8617 0.38701 0.0
C1214 C 0.44433 0.86518 0.37488 0.0
N1215 N 0.4832 0.85652 0.37574 0.0
N1216 N 0.43043 0.85077 0.39965 0.0
H1217 H 0.52915 0.84096 0.38881 0.0
C1218 C 0.4506 0.99726 0.34159 0.0
O1219 O 0.48729 0.01166 0.35077 0.0
O1220 O 0.56488 0.83594 0.35843 0.0
H1221 H 0.43507 0.87563 0.36488 0.0
H1222 H 0.52262 0.84988 0.29037 0.0
H1223 H 0.38595 0.86833 0.38645 0.0
C1224 C 0.86144 0.15816 0.19099 0.0
C1225 C 0.89559 0.17891 0.17976 0.0
H1226 H 0.79001 0.14021 0.19917 0.0
C1227 C 0.88311 0.19808 0.16787 0.0
H1228 H 0.87015 0.14342 0.20032 0.0
C1229 C 0.83737 0.19664 0.16723 0.0
C1230 C 0.80322 0.17589 0.17846 0.0
H1231 H 0.90881 0.21459 0.15905 0.0
H1232 H 0.82866 0.21138 0.15789 0.0
C1233 C 0.8157 0.15672 0.19035 0.0
C1234 C 0.83001 0.64605 0.16722 0.0
C1235 C 0.85086 0.63267 0.17843 0.0
H1236 H 0.81197 0.69951 0.15908 0.0
C1237 C 0.87014 0.66433 0.19032 0.0
H1238 H 0.81519 0.62258 0.15789 0.0
C1239 C 0.86869 0.70862 0.19098 0.0
C1240 C 0.84784 0.72201 0.17977 0.0
H1241 H 0.88673 0.65516 0.19912 0.0
H1242 H 0.88352 0.73209 0.20031 0.0
C1243 C 0.82856 0.69034 0.16788 0.0
C1244 C 0.3807 0.18928 0.16732 0.0
C1245 C 0.39408 0.22351 0.17853 0.0
H1246 H 0.32727 0.11777 0.15917 0.0
C1247 C 0.36244 0.21109 0.19042 0.0
H1248 H 0.40415 0.19794 0.15798 0.0
C1249 C 0.31818 0.16534 0.19108 0.0
C1250 C 0.30479 0.13111 0.17987 0.0
H1251 H 0.37161 0.23685 0.19922 0.0
H1252 H 0.29473 0.15668 0.20041 0.0
C1253 C 0.33644 0.14352 0.16797 0.0
C1254 C 0.16112 0.80974 0.33461 0.0
C1255 C 0.18033 0.79726 0.3465 0.0
H1256 H 0.14782 0.86419 0.32465 0.0
C1257 C 0.20114 0.83144 0.35773 0.0
H1258 H 0.14456 0.78402 0.3258 0.0
C1259 C 0.20261 0.87719 0.35709 0.0
C1260 C 0.18341 0.88966 0.3452 0.0
H1261 H 0.21591 0.82274 0.36706 0.0
H1262 H 0.21917 0.9029 0.3659 0.0
C1263 C 0.16259 0.85549 0.33398 0.0
C1264 C 0.14819 0.33043 0.35701 0.0
C1265 C 0.13584 0.29873 0.34513 0.0
H1266 H 0.20254 0.39822 0.36699 0.0
C1267 C 0.17011 0.31209 0.33393 0.0
H1268 H 0.1224 0.32128 0.3658 0.0
C1269 C 0.21584 0.35638 0.33458 0.0
C1270 C 0.22819 0.38808 0.34646 0.0
H1271 H 0.1615 0.2886 0.3246 0.0
H1272 H 0.24163 0.36553 0.3258 0.0
C1273 C 0.19393 0.37472 0.35767 0.0
C1274 C 0.66889 0.86414 0.33451 0.0
C1275 C 0.63724 0.84496 0.3464 0.0
H1276 H 0.73664 0.87743 0.32454 0.0
C1277 C 0.65063 0.82418 0.35763 0.0
H1278 H 0.65971 0.88067 0.3257 0.0
C1279 C 0.69492 0.82272 0.35699 0.0
C1280 C 0.72658 0.8419 0.3451 0.0
H1281 H 0.62718 0.80943 0.36696 0.0
H1282 H 0.7041 0.80619 0.3658 0.0
C1283 C 0.71318 0.86268 0.33387 0.0
C1284 C 0.19375 0.82447 0.85775 0.0
C1285 C 0.22795 0.84525 0.84653 0.0
H1286 H 0.12228 0.8065 0.8659 0.0
C1287 C 0.21552 0.86446 0.83463 0.0
H1288 H 0.20242 0.80969 0.86708 0.0
C1289 C 0.16979 0.86303 0.83398 0.0
C1290 C 0.13558 0.84224 0.8452 0.0
H1291 H 0.24125 0.88099 0.82583 0.0
H1292 H 0.16112 0.8778 0.82465 0.0
C1293 C 0.14801 0.82303 0.8571 0.0
C1294 C 0.2024 0.33063 0.85705 0.0
C1295 C 0.18314 0.29894 0.84517 0.0
H1296 H 0.2158 0.39842 0.86702 0.0
C1297 C 0.16233 0.31233 0.83395 0.0
H1298 H 0.21896 0.32146 0.86586 0.0
C1299 C 0.16091 0.35663 0.83459 0.0
C1300 C 0.18018 0.38832 0.84647 0.0
H1301 H 0.14752 0.28885 0.82462 0.0
H1302 H 0.14435 0.3658 0.82578 0.0
C1303 C 0.20099 0.37494 0.8577 0.0
C1304 C 0.71297 0.85566 0.83386 0.0
C1305 C 0.72633 0.8899 0.84507 0.0
H1306 H 0.65956 0.78414 0.82571 0.0
C1307 C 0.69466 0.87747 0.85696 0.0
H1308 H 0.73644 0.86433 0.82453 0.0
C1309 C 0.65041 0.83171 0.85761 0.0
C1310 C 0.63705 0.79747 0.8464 0.0
H1311 H 0.70381 0.90323 0.86575 0.0
H1312 H 0.62694 0.82304 0.86694 0.0
C1313 C 0.66871 0.8099 0.83451 0.0
C1314 C 0.82851 0.14329 0.66783 0.0
C1315 C 0.84778 0.13087 0.67971 0.0
H1316 H 0.81514 0.19769 0.65786 0.0
C1317 C 0.86866 0.1651 0.69092 0.0
H1318 H 0.8119 0.11754 0.65903 0.0
C1319 C 0.87012 0.21084 0.69028 0.0
C1320 C 0.85084 0.22326 0.6784 0.0
H1321 H 0.88348 0.15644 0.70025 0.0
H1322 H 0.88673 0.23659 0.69908 0.0
C1323 C 0.82997 0.18903 0.66718 0.0
C1324 C 0.8155 0.66411 0.69037 0.0
C1325 C 0.80308 0.6324 0.67849 0.0
H1326 H 0.8699 0.73189 0.70034 0.0
C1327 C 0.83731 0.64574 0.66728 0.0
H1328 H 0.78975 0.65497 0.69917 0.0
C1329 C 0.88305 0.69002 0.66793 0.0
C1330 C 0.89546 0.72173 0.67981 0.0
H1331 H 0.82865 0.62224 0.65796 0.0
H1332 H 0.9088 0.69916 0.65913 0.0
C1333 C 0.86124 0.70839 0.69102 0.0
C1334 C 0.31808 0.15792 0.69109 0.0
C1335 C 0.30466 0.17867 0.67986 0.0
H1336 H 0.37157 0.13996 0.69925 0.0
C1337 C 0.3363 0.19784 0.66796 0.0
H1338 H 0.29463 0.14317 0.70042 0.0
C1339 C 0.38059 0.1964 0.66732 0.0
C1340 C 0.39401 0.17564 0.67855 0.0
H1341 H 0.3271 0.21436 0.65915 0.0
H1342 H 0.40403 0.21114 0.65798 0.0
C1343 C 0.36237 0.15647 0.69044 0.0
C1344 C 0.4821 0.48974 0.52374 0.0
C1345 C 0.46962 0.50887 0.51183 0.0
H1346 H 0.53656 0.4765 0.53373 0.0
C1347 C 0.50379 0.52961 0.50061 0.0
H1348 H 0.4564 0.47324 0.53255 0.0
C1349 C 0.54955 0.53108 0.50126 0.0
C1350 C 0.56202 0.51195 0.51316 0.0
H1351 H 0.49508 0.54432 0.49126 0.0
H1352 H 0.57525 0.54758 0.49244 0.0
C1353 C 0.52785 0.49121 0.52439 0.0
C1354 C 0.53522 0.04165 0.52434 0.0
C1355 C 0.51433 0.05504 0.51314 0.0
H1356 H 0.55324 0.98817 0.53247 0.0
C1357 C 0.49499 0.02335 0.50125 0.0
H1358 H 0.55009 0.06514 0.53366 0.0
C1359 C 0.49639 0.97904 0.5006 0.0
C1360 C 0.51728 0.96565 0.5118 0.0
H1361 H 0.47838 0.03252 0.49246 0.0
H1362 H 0.48152 0.95556 0.49127 0.0
C1363 C 0.53662 0.99734 0.52368 0.0
C1364 C 0.04711 0.52232 0.50058 0.0
C1365 C 0.06044 0.5565 0.51181 0.0
H1366 H 0.99372 0.45084 0.49241 0.0
C1367 C 0.02874 0.54403 0.52369 0.0
H1368 H 0.0706 0.53102 0.49126 0.0
C1369 C 0.98447 0.49827 0.52433 0.0
C1370 C 0.97114 0.46409 0.5131 0.0
H1371 H 0.03787 0.56975 0.5325 0.0
H1372 H 0.96098 0.48957 0.53365 0.0
C1373 C 1.00284 0.47656 0.50122 0.0
C1374 C 0.49651 0.52251 1.00058 0.0
C1375 C 0.51737 0.55672 1.01179 0.0
H1376 H 0.47843 0.45101 0.99242 0.0
C1377 C 0.53663 0.54428 0.02368 0.0
H1378 H 0.4817 0.53118 0.99125 0.0
C1379 C 0.53515 0.49853 0.02432 0.0
C1380 C 0.51428 0.46431 0.0131 0.0
H1381 H 0.55323 0.57002 0.03248 0.0
H1382 H 0.54995 0.48985 0.03365 0.0
C1383 C 0.49503 0.47675 1.00122 0.0
C1384 C 0.50387 0.97915 1.00062 0.0
C1385 C 0.46965 0.9658 1.01183 0.0
H1386 H 0.57535 0.03259 0.99247 0.0
C1387 C 0.48207 0.9975 0.02372 0.0
H1388 H 0.49521 0.95566 0.9913 0.0
C1389 C 0.5278 0.04179 0.02436 0.0
C1390 C 0.56202 0.05515 0.01315 0.0
H1391 H 0.45632 0.98835 0.03252 0.0
H1392 H 0.53646 0.06528 0.03369 0.0
C1393 C 0.54961 0.02345 1.00127 0.0
C1394 C 0.02883 0.48979 0.02368 0.0
C1395 C 0.06053 0.50908 1.0118 0.0
H1396 H 0.96104 0.47637 0.03365 0.0
C1397 C 0.04716 0.52992 1.00059 0.0
H1398 H 0.038 0.4732 0.03248 0.0
C1399 C 1.00285 0.53134 1.00123 0.0
C1400 C 0.97115 0.51205 0.01311 0.0
H1401 H 0.07065 0.54476 0.99126 0.0
H1402 H 0.99369 0.54792 0.99243 0.0
C1403 C 0.98453 0.49121 0.02432 0.0
C1404 C 0.06775 0.18143 0.26079 0.0
C1405 C 0.03736 0.16614 0.24856 0.0
H1406 H 0.07169 0.18227 0.28347 0.0
C1407 C 0.98528 0.13981 0.25035 0.0
H1408 H 0.10805 0.20163 0.25988 0.0
C1409 C 0.96433 0.12925 0.26397 0.0
C1410 C 0.99472 0.14457 0.27621 0.0
H1411 H 0.9604 0.1262 0.24129 0.0
H1412 H 0.92403 0.10878 0.26489 0.0
C1413 C 0.0468 0.1708 0.27442 0.0
C1414 C 0.84532 0.89161 0.26086 0.0
C1415 C 0.86054 0.87635 0.24864 0.0
H1416 H 0.84428 0.89465 0.28354 0.0
C1417 C 0.88651 0.85024 0.25047 0.0
H1418 H 0.8254 0.91198 0.25993 0.0
C1419 C 0.89678 0.83966 0.2641 0.0
C1420 C 0.88153 0.85488 0.27632 0.0
H1421 H 0.90005 0.83883 0.24143 0.0
H1422 H 0.91697 0.81956 0.26504 0.0
C1423 C 0.85567 0.88109 0.2745 0.0
C1424 C 0.14502 0.97961 0.27455 0.0
C1425 C 0.17113 0.03167 0.27638 0.0
H1426 H 0.11439 0.9185 0.25996 0.0
C1427 C 0.18646 0.06217 0.26417 0.0
H1428 H 0.1314 0.95465 0.28358 0.0
C1429 C 0.17606 0.04134 0.25053 0.0
C1430 C 0.15004 0.98928 0.24869 0.0
H1431 H 0.20649 0.10245 0.26512 0.0
H1432 H 0.18754 0.0663 0.24149 0.0
C1433 C 0.13469 0.95878 0.26091 0.0
C1434 C 0.96381 0.83966 0.76406 0.0
C1435 C 0.99419 0.85489 0.7763 0.0
H1436 H 0.95989 0.83875 0.74138 0.0
C1437 C 0.04627 0.88101 0.77451 0.0
H1438 H 0.92351 0.81962 0.76497 0.0
C1439 C 0.06723 0.89144 0.76089 0.0
C1440 C 0.03685 0.87618 0.74865 0.0
H1441 H 0.07115 0.89457 0.78357 0.0
H1442 H 0.10753 0.91175 0.75998 0.0
C1443 C 0.98477 0.85015 0.75044 0.0
C1444 C 0.18592 0.12921 0.76412 0.0
C1445 C 0.17065 0.14447 0.77633 0.0
H1446 H 0.18701 0.1261 0.74144 0.0
C1447 C 0.14461 0.17049 0.77449 0.0
H1448 H 0.2059 0.1089 0.76507 0.0
C1449 C 0.13432 0.181 0.76084 0.0
C1450 C 0.14964 0.16578 0.74863 0.0
H1451 H 0.13102 0.18189 0.78352 0.0
H1452 H 0.11408 0.20104 0.75989 0.0
C1453 C 0.17557 0.13965 0.75047 0.0
C1454 C 0.89637 0.06216 0.76404 0.0
C1455 C 0.88109 0.03171 0.77626 0.0
H1456 H 0.89969 0.06622 0.74136 0.0
C1457 C 0.85521 0.97964 0.77444 0.0
H1458 H 0.91658 0.10245 0.76497 0.0
C1459 C 0.84488 0.95876 0.7608 0.0
C1460 C 0.86014 0.98922 0.74858 0.0
H1461 H 0.84379 0.95471 0.78348 0.0
H1462 H 0.82495 0.91848 0.75987 0.0
C1463 C 0.88611 0.04129 0.7504 0.0
C1464 C 0.63093 0.46266 0.59744 0.0
C1465 C 0.6614 0.4779 0.60966 0.0
H1466 H 0.62686 0.45955 0.57476 0.0
C1467 C 0.71347 0.50392 0.60784 0.0
H1468 H 0.59064 0.44235 0.59837 0.0
C1469 C 0.73434 0.51442 0.5942 0.0
C1470 C 0.70387 0.49921 0.58198 0.0
H1471 H 0.73841 0.51532 0.61688 0.0
H1472 H 0.77463 0.53446 0.59327 0.0
C1473 C 0.6518 0.4731 0.5838 0.0
C1474 C 0.51215 0.2248 0.59425 0.0
C1475 C 0.52728 0.20948 0.58202 0.0
H1476 H 0.51123 0.22793 0.61692 0.0
C1477 C 0.55323 0.18335 0.58384 0.0
H1478 H 0.49225 0.24519 0.59332 0.0
C1479 C 0.56356 0.1728 0.59747 0.0
C1480 C 0.54839 0.18809 0.60969 0.0
H1481 H 0.56671 0.17189 0.57479 0.0
H1482 H 0.58373 0.15268 0.5984 0.0
C1483 C 0.52256 0.21432 0.60788 0.0
C1484 C 0.81193 0.31275 0.60775 0.0
C1485 C 0.83795 0.36482 0.60956 0.0
H1486 H 0.7813 0.25156 0.59319 0.0
C1487 C 0.85309 0.39526 0.59734 0.0
H1488 H 0.79845 0.28783 0.6168 0.0
C1489 C 0.84262 0.37436 0.58371 0.0
C1490 C 0.8167 0.32229 0.58189 0.0
H1491 H 0.87305 0.43555 0.59827 0.0
H1492 H 0.85396 0.39928 0.57466 0.0
C1493 C 0.80153 0.29185 0.59412 0.0
C1494 C 0.63081 0.17324 0.09743 0.0
C1495 C 0.66128 0.18852 0.10965 0.0
H1496 H 0.62671 0.17229 0.07476 0.0
C1497 C 0.71335 0.2147 0.10783 0.0
H1498 H 0.59052 0.15316 0.09837 0.0
C1499 C 0.73421 0.22512 0.09419 0.0
C1500 C 0.70373 0.20981 0.08198 0.0
H1501 H 0.7383 0.22829 0.11687 0.0
H1502 H 0.7745 0.24547 0.09326 0.0
C1503 C 0.65166 0.18374 0.0838 0.0
C1504 C 0.85307 0.46275 0.09736 0.0
C1505 C 0.8379 0.47803 0.10959 0.0
H1506 H 0.85393 0.45956 0.07468 0.0
C1507 C 0.81182 0.50402 0.10777 0.0
H1508 H 0.87308 0.44247 0.09829 0.0
C1509 C 0.80138 0.51447 0.09414 0.0
C1510 C 0.81659 0.49923 0.08192 0.0
H1511 H 0.79831 0.51544 0.11682 0.0
H1512 H 0.78111 0.53449 0.09321 0.0
C1513 C 0.84257 0.47313 0.08373 0.0
C1514 C 0.5634 0.39561 0.0974 0.0
C1515 C 0.54821 0.36517 0.10963 0.0
H1516 H 0.56651 0.39965 0.07472 0.0
C1517 C 0.52227 0.3131 0.10781 0.0
H1518 H 0.58365 0.4359 0.09833 0.0
C1519 C 0.51179 0.29221 0.09417 0.0
C1520 C 0.52696 0.32266 0.08195 0.0
H1521 H 0.51091 0.28818 0.11685 0.0
H1522 H 0.49182 0.25192 0.09324 0.0
C1523 C 0.55299 0.37472 0.08377 0.0
C1524 C 0.31797 0.80631 0.91715 0.0
C1525 C 0.37003 0.83245 0.91532 0.0
H1526 H 0.25688 0.77558 0.93174 0.0
C1527 C 0.40055 0.8477 0.92753 0.0
H1528 H 0.29299 0.79274 0.90812 0.0
C1529 C 0.37974 0.83721 0.94117 0.0
C1530 C 0.32768 0.81118 0.94301 0.0
H1531 H 0.44084 0.86775 0.92658 0.0
H1532 H 0.40473 0.84864 0.9502 0.0
C1533 C 0.29716 0.79589 0.9308 0.0
C1534 C 0.21955 0.51719 0.91708 0.0
C1535 C 0.19337 0.54309 0.91529 0.0
H1536 H 0.25041 0.48682 0.93163 0.0
C1537 C 0.17817 0.5583 0.92752 0.0
H1538 H 0.23308 0.50582 0.90803 0.0
C1539 C 0.18875 0.54795 0.94115 0.0
C1540 C 0.21483 0.52194 0.94294 0.0
H1541 H 0.15809 0.57851 0.9266 0.0
H1542 H 0.17736 0.56146 0.9502 0.0
C1543 C 0.23006 0.50676 0.93071 0.0
C1544 C 0.50913 0.708 0.91711 0.0
C1545 C 0.48301 0.65593 0.91529 0.0
H1546 H 0.53983 0.76918 0.93168 0.0
C1547 C 0.46777 0.62549 0.92752 0.0
H1548 H 0.52054 0.73293 0.90807 0.0
C1549 C 0.47829 0.64638 0.94115 0.0
C1550 C 0.5045 0.69845 0.94297 0.0
H1551 H 0.44739 0.5852 0.92659 0.0
H1552 H 0.46474 0.62146 0.9502 0.0
C1553 C 0.51972 0.72889 0.93075 0.0
C1554 C 0.37956 0.54745 0.44117 0.0
C1555 C 0.3275 0.52121 0.443 0.0
H1556 H 0.44069 0.57832 0.42659 0.0
C1557 C 0.297 0.50589 0.43078 0.0
H1558 H 0.40452 0.56107 0.45021 0.0
C1559 C 0.31784 0.51643 0.41714 0.0
C1560 C 0.36991 0.54258 0.41531 0.0
H1561 H 0.25671 0.48576 0.43172 0.0
H1562 H 0.29287 0.50496 0.4081 0.0
C1563 C 0.4004 0.55792 0.42753 0.0
C1564 C 0.46775 0.84774 0.42747 0.0
C1565 C 0.48291 0.83247 0.41524 0.0
H1566 H 0.46467 0.84868 0.45015 0.0
C1567 C 0.50881 0.8063 0.41705 0.0
H1568 H 0.44753 0.86782 0.42654 0.0
C1569 C 0.51929 0.79586 0.43068 0.0
C1570 C 0.50416 0.81116 0.44291 0.0
H1571 H 0.52014 0.7927 0.408 0.0
H1572 H 0.53923 0.77552 0.4316 0.0
C1573 C 0.47815 0.83724 0.4411 0.0
C1574 C 0.21931 0.70765 0.41711 0.0
C1575 C 0.19317 0.65558 0.4153 0.0
H1576 H 0.25012 0.76885 0.43167 0.0
C1577 C 0.17797 0.62515 0.42753 0.0
H1578 H 0.23285 0.73256 0.40807 0.0
C1579 C 0.18852 0.64606 0.44116 0.0
C1580 C 0.21457 0.69813 0.44297 0.0
H1581 H 0.15791 0.58486 0.4266 0.0
H1582 H 0.17713 0.62114 0.45021 0.0
C1583 C 0.22979 0.72856 0.43075 0.0
C1584 C 0.19025 0.36291 0.10963 0.0
C1585 C 0.16235 0.31108 0.1075 0.0
H1586 H 0.22431 0.43521 0.09996 0.0
C1587 C 0.15529 0.29255 0.0935 0.0
H1588 H 0.19597 0.37857 0.12023 0.0
C1589 C 0.17166 0.32507 0.08185 0.0
C1590 C 0.19504 0.37687 0.08398 0.0
H1591 H 0.13402 0.25275 0.09152 0.0
H1592 H 0.16196 0.30937 0.07125 0.0
C1593 C 0.2062 0.39543 0.09798 0.0
C1594 C 0.63121 0.81617 0.09805 0.0
C1595 C 0.64975 0.82338 0.08404 0.0
H1596 H 0.64804 0.82284 0.12029 0.0
C1597 C 0.70157 0.85151 0.08192 0.0
H1598 H 0.59141 0.79473 0.10002 0.0
C1599 C 0.73409 0.86755 0.09357 0.0
C1600 C 0.71555 0.85627 0.10757 0.0
H1601 H 0.71725 0.85735 0.07132 0.0
H1602 H 0.77389 0.88584 0.09159 0.0
C1603 C 0.66373 0.83265 0.1097 0.0
C1604 C 0.17492 0.85527 0.08194 0.0
C1605 C 0.20307 0.8316 0.08406 0.0
H1606 H 0.14058 0.89324 0.09162 0.0
C1607 C 0.21033 0.8203 0.09806 0.0
H1608 H 0.16904 0.86508 0.07135 0.0
C1609 C 0.19388 0.83636 0.10972 0.0
C1610 C 0.17022 0.86453 0.1076 0.0
H1611 H 0.2318 0.80197 0.10004 0.0
H1612 H 0.20372 0.83051 0.12031 0.0
C1613 C 0.15889 0.87176 0.0936 0.0
C1614 C 0.36776 0.18436 0.41534 0.0
C1615 C 0.31594 0.15637 0.41748 0.0
H1616 H 0.4401 0.21854 0.425 0.0
C1617 C 0.29744 0.14924 0.43148 0.0
H1618 H 0.3834 0.19012 0.40474 0.0
C1619 C 0.32999 0.16567 0.44313 0.0
C1620 C 0.3818 0.18916 0.44099 0.0
H1621 H 0.25764 0.12791 0.43347 0.0
H1622 H 0.31433 0.15594 0.45373 0.0
C1623 C 0.40031 0.20035 0.42699 0.0
C1624 C 0.82498 0.20454 0.4268 0.0
C1625 C 0.83643 0.19739 0.44079 0.0
H1626 H 0.83503 0.19786 0.40454 0.0
C1627 C 0.86021 0.16934 0.4429 0.0
H1628 H 0.80655 0.22593 0.42483 0.0
C1629 C 0.87667 0.15333 0.43123 0.0
C1630 C 0.86929 0.16457 0.41724 0.0
H1631 H 0.87015 0.16356 0.45349 0.0
H1632 H 0.89825 0.13511 0.43319 0.0
C1633 C 0.841 0.1881 0.41513 0.0
C1634 C 0.85657 0.69586 0.44303 0.0
C1635 C 0.82858 0.64404 0.4409 0.0
H1636 H 0.89072 0.76817 0.43336 0.0
C1637 C 0.82142 0.6255 0.42689 0.0
H1638 H 0.86237 0.71153 0.45362 0.0
C1639 C 0.83779 0.65803 0.41524 0.0
C1640 C 0.86128 0.70983 0.41737 0.0
H1641 H 0.80007 0.5857 0.42491 0.0
H1642 H 0.82802 0.64233 0.40465 0.0
C1643 C 0.87252 0.72838 0.43138 0.0
C1644 C 0.87616 0.72842 0.93135 0.0
C1645 C 0.86898 0.70988 0.91735 0.0
H1646 H 0.86961 0.71162 0.9536 0.0
C1647 C 0.84101 0.65805 0.91522 0.0
H1648 H 0.89749 0.76822 0.93333 0.0
C1649 C 0.82511 0.62554 0.92687 0.0
C1650 C 0.83637 0.6441 0.94088 0.0
H1651 H 0.83521 0.64238 0.90463 0.0
H1652 H 0.80693 0.58575 0.92489 0.0
C1653 C 0.85982 0.69591 0.943 0.0
C1654 C 0.36756 0.18832 0.91523 0.0
C1655 C 0.31576 0.16483 0.91738 0.0
H1656 H 0.43993 0.22607 0.92488 0.0
C1657 C 0.29728 0.15365 0.93139 0.0
H1658 H 0.3832 0.19805 0.90463 0.0
C1659 C 0.32986 0.16964 0.94303 0.0
C1660 C 0.38168 0.19762 0.94088 0.0
H1661 H 0.2575 0.13546 0.93338 0.0
H1662 H 0.31423 0.16387 0.95363 0.0
C1663 C 0.40014 0.20474 0.92687 0.0
C1664 C 0.87256 0.14943 0.93133 0.0
C1665 C 0.86112 0.15662 0.91734 0.0
H1666 H 0.86253 0.1561 0.95359 0.0
C1667 C 0.8374 0.18474 0.91524 0.0
H1668 H 0.89093 0.12799 0.93329 0.0
C1669 C 0.82098 0.20077 0.92691 0.0
C1670 C 0.82834 0.18949 0.9409 0.0
H1671 H 0.82748 0.19056 0.90465 0.0
H1672 H 0.79944 0.21904 0.92495 0.0
C1673 C 0.85658 0.1659 0.943 0.0
C1674 C 0.70147 0.85495 0.58183 0.0
C1675 C 0.64965 0.83151 0.58395 0.0
H1676 H 0.77378 0.89265 0.59151 0.0
C1677 C 0.63108 0.82032 0.59795 0.0
H1678 H 0.71717 0.86468 0.57123 0.0
C1679 C 0.66359 0.83627 0.6096 0.0
C1680 C 0.71542 0.86422 0.60748 0.0
H1681 H 0.59129 0.80216 0.59992 0.0
H1682 H 0.6479 0.83051 0.6202 0.0
C1683 C 0.73397 0.87134 0.59348 0.0
C1684 C 0.1549 0.86745 0.59361 0.0
C1685 C 0.16216 0.85615 0.60761 0.0
H1686 H 0.16151 0.85726 0.57136 0.0
C1687 C 0.19032 0.83249 0.60973 0.0
H1688 H 0.13342 0.88577 0.59163 0.0
C1689 C 0.20635 0.81601 0.59807 0.0
C1690 C 0.19502 0.82324 0.58407 0.0
H1691 H 0.1962 0.82268 0.62032 0.0
H1692 H 0.22468 0.79454 0.60004 0.0
C1693 C 0.17136 0.85141 0.58195 0.0
C1694 C 0.2098 0.39499 0.59806 0.0
C1695 C 0.20275 0.37647 0.58405 0.0
H1696 H 0.20313 0.37814 0.6203 0.0
C1697 C 0.17485 0.32465 0.58192 0.0
H1698 H 0.23107 0.43479 0.60004 0.0
C1699 C 0.15891 0.29212 0.59356 0.0
C1700 C 0.17005 0.31066 0.60757 0.0
H1701 H 0.16914 0.309 0.57132 0.0
H1702 H 0.1408 0.25234 0.59158 0.0
C1703 C 0.19343 0.36245 0.6097 0.0
C1704 C 0.99638 0.49903 0.77632 0.0
C1705 C 0.04822 0.52276 0.77423 0.0
H1706 H 0.92414 0.461 0.7666 0.0
C1707 C 0.06688 0.53414 0.76024 0.0
H1708 H 0.98062 0.48915 0.78691 0.0
C1709 C 0.03445 0.5181 0.74857 0.0
C1710 C 0.98262 0.48985 0.75066 0.0
H1711 H 0.10669 0.55252 0.75829 0.0
H1712 H 0.05023 0.52401 0.73798 0.0
C1713 C 0.96395 0.48254 0.76465 0.0
C1714 C 0.50793 0.52158 0.74856 0.0
C1715 C 0.53627 0.49813 0.7507 0.0
H1716 H 0.47324 0.55927 0.7582 0.0
C1717 C 0.54357 0.48694 0.76471 0.0
H1718 H 0.50201 0.53131 0.73795 0.0
C1719 C 0.52693 0.5029 0.77635 0.0
C1720 C 0.50306 0.53084 0.77421 0.0
H1721 H 0.56517 0.46878 0.76671 0.0
H1722 H 0.53679 0.49714 0.78695 0.0
C1723 C 0.49172 0.53796 0.7602 0.0
C1724 C 0.50408 0.99125 0.74861 0.0
C1725 C 0.5281 0.04308 0.75075 0.0
H1726 H 0.46569 0.91893 0.75826 0.0
C1727 C 0.53951 0.06157 0.76475 0.0
H1728 H 0.49417 0.97562 0.73801 0.0
C1729 C 0.52325 0.02902 0.7764 0.0
C1730 C 0.49476 0.97723 0.77426 0.0
H1731 H 0.5581 0.10137 0.76674 0.0
H1732 H 0.52922 0.0447 0.787 0.0
C1733 C 0.4874 0.9587 0.76025 0.0
C1734 C 0.49165 0.95915 0.26018 0.0
C1735 C 0.50305 0.97759 0.27419 0.0
H1736 H 0.50192 0.97609 0.23794 0.0
C1737 C 0.52704 0.02941 0.27635 0.0
H1738 H 0.47307 0.91936 0.25818 0.0
C1739 C 0.5437 0.062 0.26471 0.0
C1740 C 0.53634 0.04352 0.2507 0.0
H1741 H 0.53695 0.045 0.28695 0.0
H1742 H 0.56539 0.10176 0.26671 0.0
C1743 C 0.50789 0.99174 0.24855 0.0
C1744 C 0.96426 0.4867 0.26463 0.0
C1745 C 0.9829 0.49804 0.25064 0.0
H1746 H 0.98095 0.4968 0.28688 0.0
C1747 C 0.03473 0.52164 0.24854 0.0
H1748 H 0.92445 0.46842 0.26658 0.0
C1749 C 0.06717 0.53805 0.26021 0.0
C1750 C 0.04854 0.53079 0.2742 0.0
H1751 H 0.05048 0.53148 0.23795 0.0
H1752 H 0.10698 0.55949 0.25825 0.0
C1753 C 0.9967 0.50267 0.2763 0.0
C1754 C 0.53946 0.48288 0.26472 0.0
C1755 C 0.52809 0.49005 0.25072 0.0
H1756 H 0.5292 0.48946 0.28697 0.0
C1757 C 0.50421 0.51799 0.24859 0.0
H1758 H 0.55795 0.46157 0.2667 0.0
C1759 C 0.4876 0.5339 0.26025 0.0
C1760 C 0.49491 0.52267 0.27425 0.0
H1761 H 0.49434 0.52379 0.238 0.0
H1762 H 0.46597 0.55207 0.25827 0.0
C1763 C 0.52328 0.49923 0.27637 0.0
C1764 C 0.15612 0.08063 0.1552 0.0
C1765 C 0.14809 0.05599 0.16833 0.0
H1766 H 0.15027 0.13671 0.14343 0.0
C1767 C 0.14297 0.07889 0.18058 0.0
H1768 H 0.15983 0.06347 0.14558 0.0
C1769 C 0.13858 0.12179 0.17936 0.0
C1770 C 0.13793 0.14131 0.16585 0.0
H1771 H 0.13583 0.06023 0.19078 0.0
H1772 H 0.1274 0.13426 0.1887 0.0
C1773 C 0.15122 0.12305 0.15397 0.0
C1774 C 0.90505 0.02211 0.17933 0.0
C1775 C 0.88546 1.00186 0.16582 0.0
H1776 H 0.96665 0.08096 0.19073 0.0
C1777 C 0.90371 0.03332 0.15393 0.0
H1778 H 0.89258 0.99852 0.18867 0.0
C1779 C 0.94617 0.08062 0.15514 0.0
C1780 C 0.97084 0.09732 0.16827 0.0
H1781 H 0.88999 0.01863 0.14339 0.0
H1782 H 0.96331 0.10141 0.1455 0.0
C1783 C 0.94796 0.06939 0.18053 0.0
C1784 C 0.9573 0.88384 0.18055 0.0
C1785 C 0.92941 0.8788 0.16827 0.0
H1786 H 0.02814 0.89935 0.18872 0.0
C1787 C 0.94617 0.87087 0.15515 0.0
H1788 H 0.94566 0.89091 0.19074 0.0
C1789 C 0.99351 0.87577 0.15396 0.0
C1790 C 0.02492 0.88896 0.16586 0.0
H1791 H 0.9254 0.86721 0.14551 0.0
H1792 H 1.00824 0.87678 0.14343 0.0
C1793 C 1.0046 0.88823 0.17936 0.0
C1794 C 0.08345 0.13696 0.34441 0.0
C1795 C 0.06048 0.14199 0.35666 0.0
H1796 H 0.13889 0.12149 0.33631 0.0
C1797 C 0.08507 0.14998 0.3698 0.0
H1798 H 0.06482 0.12984 0.33421 0.0
C1799 C 0.12753 0.14514 0.37104 0.0
C1800 C 0.14587 0.13195 0.35916 0.0
H1801 H 0.06786 0.15364 0.37942 0.0
H1802 H 0.14117 0.14418 0.38159 0.0
C1803 C 0.12638 0.13262 0.34564 0.0
C1804 C 0.88839 0.95133 0.34437 0.0
C1805 C 0.8833 0.92346 0.35665 0.0
H1806 H 0.90394 0.02215 0.33619 0.0
C1807 C 0.87532 0.94023 0.36976 0.0
H1808 H 0.8955 0.93968 0.33419 0.0
C1809 C 0.88021 0.98756 0.37094 0.0
C1810 C 0.89345 0.01896 0.35904 0.0
H1811 H 0.87163 0.91947 0.37941 0.0
H1812 H 0.88117 1.0023 0.38147 0.0
C1813 C 0.89278 0.99863 0.34554 0.0
C1814 C 0.03784 0.89783 0.37104 0.0
C1815 C 1.00643 0.87959 0.35914 0.0
H1816 H 0.10592 0.95738 0.3795 0.0
C1817 C 0.02673 0.89918 0.34564 0.0
H1818 H 0.0231 0.88409 0.38157 0.0
C1819 C 0.07403 0.94209 0.34446 0.0
C1820 C 0.10191 0.96494 0.35673 0.0
H1821 H 1.00317 0.88672 0.33629 0.0
H1822 H 0.08564 0.96079 0.33427 0.0
C1823 C 0.08517 0.94026 0.36985 0.0
C1824 C 0.87493 0.94033 0.86971 0.0
C1825 C 0.88298 0.96501 0.85659 0.0
H1826 H 0.88076 0.8842 0.88147 0.0
C1827 C 0.88812 0.94216 0.84433 0.0
H1828 H 0.87121 0.95745 0.87934 0.0
C1829 C 0.89251 0.89926 0.84554 0.0
C1830 C 0.89314 0.87969 0.85904 0.0
H1831 H 0.89528 0.96087 0.83414 0.0
H1832 H 0.9037 0.88683 0.8362 0.0
C1833 C 0.87983 0.8979 0.87093 0.0
C1834 C 0.12609 0.99898 0.84563 0.0
C1835 C 0.14561 0.01918 0.85915 0.0
H1836 H 0.06454 0.94018 0.83421 0.0
C1837 C 0.12729 0.98768 0.87103 0.0
H1838 H 0.13861 0.0226 0.8363 0.0
C1839 C 0.08483 0.94038 0.8698 0.0
C1840 C 0.06023 0.92374 0.85666 0.0
H1841 H 0.14096 1.00233 0.88157 0.0
H1842 H 0.06764 0.91956 0.87943 0.0
C1843 C 0.08317 0.95171 0.84441 0.0
C1844 C 0.03751 0.14517 0.87101 0.0
C1845 C 1.00614 0.13201 0.8591 0.0
H1846 H 0.10558 0.15371 0.87948 0.0
C1847 C 0.0265 0.13277 0.8456 0.0
H1848 H 0.02272 0.14413 0.88154 0.0
C1849 C 0.07381 0.13717 0.84443 0.0
C1850 C 0.10165 0.14219 0.85671 0.0
H1851 H 1.00297 0.1217 0.83625 0.0
H1852 H 0.08546 0.13012 0.83424 0.0
C1853 C 0.08485 0.15009 0.86983 0.0
C1854 C 0.94781 0.88354 0.68052 0.0
C1855 C 0.97073 0.87849 0.66827 0.0
H1856 H 0.89242 0.89903 0.68864 0.0
C1857 C 0.9461 0.8705 0.65514 0.0
H1858 H 0.96647 0.89066 0.69072 0.0
C1859 C 0.90364 0.87534 0.65391 0.0
C1860 C 0.88534 0.88855 0.66579 0.0
H1861 H 0.96327 0.86683 0.6455 0.0
H1862 H 0.88996 0.8763 0.64337 0.0
C1863 C 0.90488 0.88788 0.67931 0.0
C1864 C 0.15104 0.03302 0.65397 0.0
C1865 C 0.13778 1.00159 0.66587 0.0
H1866 H 0.15964 0.10113 0.64552 0.0
C1867 C 0.13844 0.02187 0.67937 0.0
H1868 H 0.15008 0.0183 0.64344 0.0
C1869 C 0.14285 0.06918 0.68055 0.0
C1870 C 0.14795 0.09709 0.66828 0.0
H1871 H 0.12729 0.9983 0.68871 0.0
H1872 H 0.13572 0.08078 0.69074 0.0
C1873 C 0.15595 0.08036 0.65517 0.0
C1874 C 0.99339 0.12267 0.6539 0.0
C1875 C 0.02481 0.14093 0.6658 0.0
H1876 H 0.9253 0.06311 0.64545 0.0
C1877 C 1.00451 0.12136 0.6793 0.0
H1878 H 1.00812 0.13639 0.64337 0.0
C1879 C 0.95721 0.07845 0.68049 0.0
C1880 C 0.92932 0.05558 0.66822 0.0
H1881 H 0.02807 0.13383 0.68865 0.0
H1882 H 0.9456 0.05978 0.69068 0.0
C1883 C 0.94606 0.08024 0.6551 0.0
C1884 C 0.82234 0.4136 0.48846 0.0
C1885 C 0.8144 0.38891 0.50157 0.0
H1886 H 0.81643 0.46974 0.47673 0.0
C1887 C 0.80935 0.41175 0.51385 0.0
H1888 H 0.826 0.39649 0.47881 0.0
C1889 C 0.80495 0.45466 0.51266 0.0
C1890 C 0.80423 0.47424 0.49917 0.0
H1891 H 0.80226 0.39304 0.52404 0.0
H1892 H 0.79383 0.46708 0.52202 0.0
C1893 C 0.81745 0.45603 0.48726 0.0
C1894 C 0.61245 0.41366 0.48856 0.0
C1895 C 0.63716 0.43032 0.50167 0.0
H1896 H 0.55626 0.35171 0.4768 0.0
C1897 C 0.61433 0.40236 0.51393 0.0
H1898 H 0.62955 0.43449 0.47892 0.0
C1899 C 0.57142 0.35507 0.51273 0.0
C1900 C 0.5518 0.33486 0.49923 0.0
H1901 H 0.63306 0.41391 0.52413 0.0
H1902 H 0.55902 0.33147 0.52207 0.0
C1903 C 0.57 0.36635 0.48734 0.0
C1904 C 0.62377 0.21684 0.51384 0.0
C1905 C 0.59581 0.21183 0.50158 0.0
H1906 H 0.69465 0.23231 0.52196 0.0
C1907 C 0.61247 0.2039 0.48845 0.0
H1908 H 0.61221 0.22392 0.52404 0.0
C1909 C 0.65979 0.20876 0.48722 0.0
C1910 C 0.69127 0.22192 0.49911 0.0
H1911 H 0.59164 0.20026 0.47882 0.0
H1912 H 0.67444 0.20977 0.47668 0.0
C1913 C 0.67105 0.2212 0.51262 0.0
C1914 C 0.79496 0.47861 0.70433 0.0
C1915 C 0.81317 0.46544 0.69241 0.0
H1916 H 0.73544 0.48717 0.7128 0.0
C1917 C 0.79355 0.46619 0.67892 0.0
H1918 H 0.80871 0.47759 0.71485 0.0
C1919 C 0.75065 0.4706 0.67775 0.0
C1920 C 0.72783 0.47563 0.69003 0.0
H1921 H 0.80599 0.4551 0.66957 0.0
H1922 H 0.73194 0.46354 0.66756 0.0
C1923 C 0.75254 0.48353 0.70315 0.0
C1924 C 0.55588 0.28509 0.67776 0.0
C1925 C 0.55083 0.25716 0.69002 0.0
H1926 H 0.57134 0.35594 0.66962 0.0
C1927 C 0.54283 0.27383 0.70314 0.0
H1928 H 0.563 0.27352 0.66756 0.0
C1929 C 0.54766 0.32113 0.70436 0.0
C1930 C 0.56086 0.3526 0.69247 0.0
H1931 H 0.53918 0.25303 0.71278 0.0
H1932 H 0.54861 0.3358 0.71489 0.0
C1933 C 0.56021 0.33236 0.67896 0.0
C1934 C 0.74135 0.27553 0.6777 0.0
C1935 C 0.76933 0.29844 0.68995 0.0
H1936 H 0.67044 0.22016 0.66958 0.0
C1937 C 0.7527 0.27381 0.70308 0.0
H1938 H 0.75288 0.2942 0.6675 0.0
C1939 C 0.70538 0.23138 0.70431 0.0
C1940 C 0.67387 0.21311 0.69243 0.0
H1941 H 0.77355 0.29097 0.71271 0.0
H1942 H 0.69075 0.21771 0.71485 0.0
C1943 C 0.69407 0.23262 0.67891 0.0
C1944 C 0.5603 0.233 0.17894 0.0
C1945 C 0.56097 0.21346 0.19245 0.0
H1946 H 0.56304 0.29456 0.16753 0.0
C1947 C 0.54776 0.23175 0.20434 0.0
H1948 H 0.57143 0.2205 0.16961 0.0
C1949 C 0.54288 0.27419 0.20312 0.0
C1950 C 0.55086 0.29881 0.18999 0.0
H1951 H 0.54872 0.21806 0.21488 0.0
H1952 H 0.53921 0.29135 0.21275 0.0
C1953 C 0.55592 0.27591 0.17773 0.0
C1954 C 0.79509 0.32149 0.20431 0.0
C1955 C 0.81329 0.35288 0.1924 0.0
H1956 H 0.73557 0.25342 0.21277 0.0
C1957 C 0.79368 0.33254 0.17891 0.0
H1958 H 0.80885 0.33625 0.21484 0.0
C1959 C 0.75077 0.28524 0.17773 0.0
C1960 C 0.72795 0.25738 0.19001 0.0
H1961 H 0.80611 0.35608 0.16956 0.0
H1962 H 0.73206 0.2736 0.16754 0.0
C1963 C 0.75267 0.27415 0.20312 0.0
C1964 C 0.75271 0.48397 0.20309 0.0
C1965 C 0.76937 0.47597 0.18996 0.0
H1966 H 0.69075 0.47813 0.21485 0.0
C1967 C 0.7414 0.4709 0.1777 0.0
H1968 H 0.77355 0.48765 0.21272 0.0
C1969 C 0.69411 0.46652 0.17891 0.0
C1970 C 0.6739 0.46586 0.19242 0.0
H1971 H 0.75295 0.46377 0.1675 0.0
H1972 H 0.67051 0.45538 0.16957 0.0
C1973 C 0.7054 0.4791 0.20431 0.0
C1974 C 0.5701 0.20879 0.98726 0.0
C1975 C 0.55185 0.22201 0.99915 0.0
H1976 H 0.62967 0.20024 0.97882 0.0
C1977 C 0.57143 0.22132 0.01266 0.0
H1978 H 0.55638 0.20977 0.97672 0.0
C1979 C 0.61434 0.21694 0.01385 0.0
C1980 C 0.63721 0.21188 1.00159 0.0
H1981 H 0.55896 0.23245 0.022 0.0
H1982 H 0.63302 0.22405 0.02405 0.0
C1983 C 0.61254 0.2039 0.98847 0.0
C1984 C 0.81739 0.3664 0.98724 0.0
C1985 C 0.80422 0.33499 0.99914 0.0
H1986 H 0.82593 0.43447 0.97879 0.0
C1987 C 0.80493 0.3553 0.01264 0.0
H1988 H 0.81639 0.35165 0.97671 0.0
C1989 C 0.80932 0.4026 0.01383 0.0
C1990 C 0.81436 0.43048 1.00155 0.0
H1991 H 0.79382 0.33176 0.02199 0.0
H1992 H 0.80224 0.41423 0.02402 0.0
C1993 C 0.82229 0.41373 0.98844 0.0
C1994 C 0.62377 0.41193 0.01385 0.0
C1995 C 0.59581 0.38905 1.00159 0.0
H1996 H 0.69465 0.46729 0.02199 0.0
C1997 C 0.61248 0.41371 0.98847 0.0
H1998 H 0.6122 0.39325 0.02405 0.0
C1999 C 0.65979 0.45615 0.98725 0.0
C2000 C 0.69128 0.47441 0.99914 0.0
H2001 H 0.59165 0.39657 0.97883 0.0
H2002 H 0.67445 0.46986 0.97671 0.0
C2003 C 0.67105 0.45485 0.01265 0.0
C2004 C 0.48331 0.78931 0.82061 0.0
C2005 C 0.4701 0.80755 0.83251 0.0
H2006 H 0.49188 0.72977 0.81217 0.0
C2007 C 0.4708 0.78798 0.84601 0.0
H2008 H 0.48233 0.80304 0.81008 0.0
C2009 C 0.4752 0.74508 0.8472 0.0
C2010 C 0.48026 0.72222 0.83494 0.0
H2011 H 0.45968 0.80044 0.85536 0.0
H2012 H 0.4681 0.72639 0.8574 0.0
C2013 C 0.48822 0.74689 0.82182 0.0
C2014 C 0.28025 0.73574 0.84722 0.0
C2015 C 0.30309 0.76367 0.83495 0.0
H2016 H 0.22493 0.66488 0.85537 0.0
C2017 C 0.2784 0.74697 0.82183 0.0
H2018 H 0.29897 0.74734 0.85741 0.0
C2019 C 0.23597 0.69965 0.82062 0.0
C2020 C 0.21775 0.66819 0.83252 0.0
H2021 H 0.29551 0.76778 0.81219 0.0
H2022 H 0.22224 0.68496 0.81009 0.0
C2023 C 0.23734 0.68845 0.84602 0.0
C2024 C 0.32573 0.54202 0.82058 0.0
C2025 C 0.35718 0.55519 0.83248 0.0
H2026 H 0.25763 0.53353 0.81215 0.0
C2027 C 0.33692 0.55449 0.84598 0.0
H2028 H 0.34043 0.54301 0.81005 0.0
C2029 C 0.28964 0.55013 0.84718 0.0
C2030 C 0.26172 0.54512 0.83492 0.0
H2031 H 0.3605 0.56559 0.85533 0.0
H2032 H 0.27806 0.55722 0.85738 0.0
C2033 C 0.27841 0.53716 0.82179 0.0
C2034 C 0.4615 0.81207 0.03771 0.0
C2035 C 0.47976 0.79892 0.02581 0.0
H2036 H 0.40193 0.82058 0.04616 0.0
C2037 C 0.46019 0.79966 1.01231 0.0
H2038 H 0.47522 0.81105 0.04824 0.0
C2039 C 0.41728 0.80404 1.01112 0.0
C2040 C 0.3944 0.80905 0.02339 0.0
H2041 H 0.47268 0.78859 1.00296 0.0
H2042 H 0.3986 0.79698 1.00092 0.0
C2043 C 0.41906 0.81696 0.03651 0.0
C2044 C 0.22236 0.6185 1.01109 0.0
C2045 C 0.2173 0.59055 0.02335 0.0
H2046 H 0.23785 0.68936 1.00296 0.0
C2047 C 0.20932 0.60722 0.03647 0.0
H2048 H 0.22947 0.60693 1.00089 0.0
C2049 C 0.21418 0.65453 0.03769 0.0
C2050 C 0.22739 0.686 0.0258 0.0
H2051 H 0.20566 0.5864 0.04611 0.0
H2052 H 0.21515 0.66919 0.04823 0.0
C2053 C 0.22671 0.66577 1.0123 0.0
C2054 C 0.36062 0.56621 1.01224 0.0
C2055 C 0.34037 0.5466 0.02575 0.0
H2056 H 0.41948 0.62781 1.00086 0.0
C2057 C 0.37185 0.56481 0.03764 0.0
H2058 H 0.33701 0.55378 1.0029 0.0
C2059 C 0.41917 0.60724 0.03643 0.0
C2060 C 0.43586 0.63194 0.02332 0.0
H2061 H 0.35716 0.55106 0.04817 0.0
H2062 H 0.43998 0.62434 0.04608 0.0
C2063 C 0.40792 0.60911 1.01105 0.0
C2064 C 0.22661 0.56594 0.51227 0.0
C2065 C 0.22732 0.5464 0.52577 0.0
H2066 H 0.22932 0.62751 0.50087 0.0
C2067 C 0.21409 0.56465 0.53767 0.0
H2068 H 0.23773 0.55346 0.50293 0.0
C2069 C 0.20918 0.60707 0.53645 0.0
C2070 C 0.21715 0.63173 0.52333 0.0
H2071 H 0.21508 0.55095 0.5482 0.0
H2072 H 0.20551 0.62421 0.54609 0.0
C2073 C 0.22221 0.60884 0.51107 0.0
C2074 C 0.46014 0.66561 0.51223 0.0
C2075 C 0.47977 0.68586 0.52573 0.0
H2076 H 0.39852 0.60676 0.50084 0.0
C2077 C 0.46155 0.6544 0.53762 0.0
H2078 H 0.47258 0.6892 0.50289 0.0
C2079 C 0.41909 0.60709 0.53642 0.0
C2080 C 0.39439 0.5904 0.5233 0.0
H2081 H 0.4753 0.66909 0.54816 0.0
H2082 H 0.40199 0.5863 0.54606 0.0
C2083 C 0.41723 0.61833 0.51103 0.0
C2084 C 0.36053 0.79942 0.51228 0.0
C2085 C 0.34029 0.79872 0.52579 0.0
H2086 H 0.41939 0.79673 0.50087 0.0
C2087 C 0.37176 0.81191 0.53768 0.0
H2088 H 0.33692 0.78831 0.50294 0.0
C2089 C 0.41909 0.81681 0.53646 0.0
C2090 C 0.43578 0.80887 0.52333 0.0
H2091 H 0.35708 0.81091 0.54822 0.0
H2092 H 0.4399 0.82047 0.5461 0.0
C2093 C 0.40783 0.80382 0.51107 0.0
C2094 C 0.28049 0.54992 0.3472 0.0
C2095 C 0.30333 0.54484 0.33493 0.0
H2096 H 0.22518 0.56548 0.35536 0.0
C2097 C 0.27865 0.53688 0.32182 0.0
H2098 H 0.2992 0.55702 0.3574 0.0
C2099 C 0.23622 0.54179 0.32061 0.0
C2100 C 0.21801 0.55502 0.33251 0.0
H2101 H 0.29576 0.53319 0.31217 0.0
H2102 H 0.2225 0.54277 0.31008 0.0
C2103 C 0.23759 0.55432 0.34601 0.0
C2104 C 0.4884 0.7467 0.32181 0.0
C2105 C 0.48042 0.7634 0.33493 0.0
H2106 H 0.48258 0.68472 0.31006 0.0
C2107 C 0.47535 0.73547 0.3472 0.0
H2108 H 0.49206 0.7675 0.31217 0.0
C2109 C 0.47098 0.68818 0.346 0.0
C2110 C 0.47033 0.66793 0.33249 0.0
H2111 H 0.46823 0.74705 0.35739 0.0
H2112 H 0.45984 0.66461 0.35534 0.0
C2113 C 0.48355 0.69939 0.3206 0.0
C2114 C 0.28983 0.74497 0.34721 0.0
C2115 C 0.26188 0.72206 0.33495 0.0
H2116 H 0.36071 0.80035 0.35534 0.0
C2117 C 0.27854 0.7467 0.32182 0.0
H2118 H 0.27827 0.7263 0.35741 0.0
C2119 C 0.32585 0.78914 0.3206 0.0
C2120 C 0.35734 0.80741 0.33249 0.0
H2121 H 0.25771 0.72954 0.31219 0.0
H2122 H 0.3405 0.80282 0.31006 0.0
C2123 C 0.33711 0.78788 0.346 0.0
C2124 C 0.3194 0.3875 0.1857 0.0
C2125 C 0.28989 0.35512 0.17471 0.0
H2126 H 0.39271 0.43008 0.19481 0.0
C2127 C 0.3138 0.3451 0.16357 0.0
H2128 H 0.30219 0.3963 0.19441 0.0
C2129 C 0.36547 0.36504 0.16369 0.0
C2130 C 0.39493 0.39529 0.17502 0.0
H2131 H 0.29249 0.321 0.15483 0.0
H2132 H 0.38208 0.35504 0.15508 0.0
C2133 C 0.37139 0.40728 0.18588 0.0
C2134 C 0.61929 0.96937 0.18583 0.0
C2135 C 0.6315 1.00505 0.17501 0.0
H2136 H 0.63001 0.91097 0.19434 0.0
C2137 C 0.66194 1.00595 0.16372 0.0
H2138 H 0.59632 0.96779 0.19474 0.0
C2139 C 0.68182 0.97417 0.16361 0.0
C2140 C 0.67156 0.94008 0.17471 0.0
H2141 H 0.67211 0.03267 0.15513 0.0
H2142 H 0.70606 0.97705 0.1549 0.0
C2143 C 0.63901 0.93711 0.18566 0.0
C2144 C 0.05244 0.71301 0.16358 0.0
C2145 C 0.08666 0.73677 0.17466 0.0
H2146 H 0.99384 0.64486 0.1551 0.0
C2147 C 0.08971 0.70713 0.18557 0.0
H2148 H 0.04949 0.73442 0.1549 0.0
C2149 C 0.05743 0.65516 0.18573 0.0
C2150 C 0.02164 0.63176 0.17493 0.0
H2151 H 0.11594 0.72422 0.19424 0.0
H2152 H 0.0591 0.63373 0.19461 0.0
C2153 C 0.02065 0.66135 0.16367 0.0
C2154 C 0.36953 0.35958 0.36129 0.0
C2155 C 0.39987 0.38905 0.34997 0.0
H2156 H 0.32546 0.2866 0.37014 0.0
C2157 C 0.41195 0.36553 0.33914 0.0
H2158 H 0.35946 0.37617 0.36989 0.0
C2159 C 0.39221 0.31354 0.33932 0.0
C2160 C 0.35976 0.28402 0.35029 0.0
H2161 H 0.43484 0.38686 0.33022 0.0
H2162 H 0.4011 0.29635 0.33063 0.0
C2163 C 0.34963 0.30791 0.36141 0.0
C2164 C 0.71754 0.04685 0.36123 0.0
C2165 C 0.74139 0.08072 0.35007 0.0
H2166 H 0.64931 0.98856 0.36975 0.0
C2167 C 0.71182 0.0835 0.33909 0.0
H2168 H 0.7389 0.04412 0.36996 0.0
C2169 C 0.65983 0.05128 0.33894 0.0
C2170 C 0.63635 0.01582 0.3498 0.0
H2171 H 0.72898 0.10947 0.33037 0.0
H2172 H 0.63846 0.05271 0.33001 0.0
C2173 C 0.66587 0.01511 0.36113 0.0
C2174 C 1.01028 0.65573 0.36124 0.0
C2175 C 1.00954 0.6255 0.3499 0.0
H2176 H 0.98131 0.69977 0.37008 0.0
C2177 C 0.97407 0.61355 0.33904 0.0
H2178 H 0.03684 0.6657 0.36986 0.0
C2179 C 0.94187 0.63333 0.3392 0.0
C2180 C 0.94468 0.66569 0.35019 0.0
H2181 H 0.97262 0.59075 0.3301 0.0
H2182 H 0.91589 0.62455 0.33048 0.0
C2183 C 0.97856 0.67568 0.36134 0.0
C2184 C 0.71162 0.63346 0.8392 0.0
C2185 C 0.74117 0.66584 0.85018 0.0
H2186 H 0.63829 0.59086 0.8301 0.0
C2187 C 0.71728 0.67588 0.86132 0.0
H2188 H 0.72881 0.62464 0.83049 0.0
C2189 C 0.66561 0.65595 0.86122 0.0
C2190 C 0.63612 0.62569 0.84989 0.0
H2191 H 0.73862 0.69999 0.87006 0.0
H2192 H 0.64903 0.66596 0.86983 0.0
C2193 C 0.65963 0.61368 0.83903 0.0
C2194 C 0.36927 0.01515 0.86126 0.0
C2195 C 0.39963 0.01598 0.84995 0.0
H2196 H 0.3252 0.04411 0.87008 0.0
C2197 C 0.41174 0.05156 0.83911 0.0
H2198 H 0.35918 0.98851 0.86986 0.0
C2199 C 0.392 0.08381 0.83928 0.0
C2200 C 0.35954 0.08092 0.85024 0.0
H2201 H 0.43464 0.05308 0.83019 0.0
H2202 H 0.40092 0.10987 0.83058 0.0
C2203 C 0.34938 0.04693 0.86136 0.0
C2204 C 0.97864 0.30805 0.86133 0.0
C2205 C 0.94439 0.28428 0.85025 0.0
H2206 H 0.03727 0.3762 0.86979 0.0
C2207 C 0.94132 0.31391 0.83934 0.0
H2208 H 0.9816 0.28665 0.87001 0.0
C2209 C 0.97361 0.36588 0.83918 0.0
C2210 C 1.00942 0.38929 0.84997 0.0
H2211 H 0.91506 0.2968 0.83068 0.0
H2212 H 0.97192 0.3873 0.8303 0.0
C2213 C 1.01044 0.35971 0.86123 0.0
C2214 C 0.6817 0.71264 0.66355 0.0
C2215 C 0.67142 0.73651 0.67465 0.0
H2216 H 0.67202 0.64441 0.6551 0.0
C2217 C 0.63884 0.70696 0.68559 0.0
H2218 H 0.70597 0.73397 0.65485 0.0
C2219 C 0.61913 0.65498 0.68578 0.0
C2220 C 0.63136 0.63148 0.67497 0.0
H2221 H 0.62983 0.72413 0.69426 0.0
H2222 H 0.59614 0.63363 0.69468 0.0
C2223 C 0.66182 0.66098 0.66368 0.0
C2224 C 0.31934 0.93702 0.6858 0.0
C2225 C 0.28981 0.93983 0.67481 0.0
H2226 H 0.39267 0.96778 0.69491 0.0
C2227 C 0.3137 0.97373 0.66367 0.0
H2228 H 0.30215 0.91103 0.69451 0.0
C2229 C 0.36536 1.00547 0.66378 0.0
C2230 C 0.39485 1.00472 0.67511 0.0
H2231 H 0.29237 0.97648 0.65493 0.0
H2232 H 0.38195 0.03204 0.65516 0.0
C2233 C 0.37133 0.96923 0.68597 0.0
C2234 C 0.02071 0.36454 0.66365 0.0
C2235 C 0.02159 0.39497 0.67494 0.0
H2236 H 0.04962 0.32039 0.65484 0.0
C2237 C 0.05723 0.40716 0.68577 0.0
H2238 H 0.99403 0.35438 0.65505 0.0
C2239 C 0.08947 0.38742 0.68561 0.0
C2240 C 0.08653 0.35487 0.67467 0.0
H2241 H 0.05879 0.43013 0.69467 0.0
H2242 H 0.11558 0.3964 0.6943 0.0
C2243 C 0.05248 0.34463 0.66355 0.0
C2244 C 0.03187 0.69802 0.49705 0.0
C2245 C 0.06135 0.72827 0.50838 0.0
H2246 H 0.95887 0.65398 0.4882 0.0
C2247 C 0.03781 0.74022 0.51925 0.0
H2248 H 0.04847 0.68805 0.48843 0.0
C2249 C 0.98582 0.72043 0.51907 0.0
C2250 C 0.95629 0.68806 0.50809 0.0
H2251 H 0.05915 0.76303 0.52818 0.0
H2252 H 0.96862 0.72922 0.52779 0.0
C2253 C 0.98019 0.67807 0.49694 0.0
C2254 C 0.2859 0.30251 0.51931 0.0
C2255 C 0.29787 0.33797 0.50844 0.0
H2256 H 0.29688 0.24433 0.52787 0.0
C2257 C 0.32809 0.33868 0.49711 0.0
H2258 H 0.26311 0.30108 0.52825 0.0
C2259 C 0.34801 0.30693 0.49701 0.0
C2260 C 0.33802 0.27307 0.50817 0.0
H2261 H 0.33806 0.36523 0.48849 0.0
H2262 H 0.37209 0.30966 0.48828 0.0
C2263 C 0.30567 0.27029 0.51915 0.0
C2264 C 0.68685 0.9943 0.49693 0.0
C2265 C 0.68804 0.96471 0.50817 0.0
H2266 H 0.71559 0.06736 0.48816 0.0
C2267 C 0.72406 0.98811 0.51891 0.0
H2268 H 0.65986 0.97782 0.48841 0.0
C2269 C 0.75639 0.04007 0.51873 0.0
C2270 C 0.75315 0.06971 0.50785 0.0
H2271 H 0.72589 0.96668 0.52777 0.0
H2272 H 0.78281 0.05716 0.52735 0.0
C2273 C 0.71869 0.04595 0.49682 0.0
C2274 C 0.07946 0.69924 0.67248 0.0
C2275 C 0.06719 0.72267 0.6833 0.0
H2276 H 0.06879 0.63015 0.66395 0.0
C2277 C 0.0367 0.69309 0.69458 0.0
H2278 H 0.10247 0.72065 0.66358 0.0
C2279 C 0.01682 0.64143 0.69467 0.0
C2280 C 0.02714 0.61764 0.68356 0.0
H2281 H 0.02647 0.7096 0.70316 0.0
H2282 H 0.99253 0.62004 0.70336 0.0
C2283 C 0.05974 0.64727 0.67263 0.0
C2284 C 0.38486 0.38032 0.69469 0.0
C2285 C 0.40869 0.41437 0.68357 0.0
H2286 H 0.31667 0.32186 0.70318 0.0
C2287 C 0.3791 0.41729 0.67262 0.0
H2288 H 0.40624 0.37748 0.7034 0.0
C2289 C 0.32712 0.38503 0.67245 0.0
C2290 C 0.30366 0.3494 0.68328 0.0
H2291 H 0.39624 0.44339 0.66393 0.0
H2292 H 0.30573 0.38658 0.66354 0.0
C2293 C 0.3332 0.34855 0.69458 0.0
C2294 C 0.60922 0.96698 0.67252 0.0
C2295 C 0.61206 0.99931 0.68352 0.0
H2296 H 0.63996 0.92442 0.66339 0.0
C2297 C 0.64598 1.00929 0.69466 0.0
H2298 H 0.58322 0.95821 0.66381 0.0
C2299 C 0.67771 0.98935 0.69454 0.0
C2300 C 0.67694 0.95914 0.68319 0.0
H2301 H 0.64875 0.03336 0.70341 0.0
H2302 H 0.7043 0.99931 0.70315 0.0
C2303 C 0.64143 0.9472 0.67234 0.0
C2304 C 0.37925 0.9671 0.17259 0.0
C2305 C 0.40883 0.99951 0.18356 0.0
H2306 H 0.30589 0.9245 0.16351 0.0
C2307 C 0.38497 1.00956 0.19471 0.0
H2308 H 0.39641 0.95827 0.16388 0.0
C2309 C 0.3333 0.98963 0.19462 0.0
C2310 C 0.30378 0.95935 0.18329 0.0
H2311 H 0.40633 0.03368 0.20344 0.0
H2312 H 0.31674 0.99965 0.20323 0.0
C2313 C 0.32726 0.94733 0.17243 0.0
C2314 C 0.07914 0.3851 0.17224 0.0
C2315 C 0.0673 0.34972 0.18313 0.0
H2316 H 0.06803 0.44318 0.16367 0.0
C2317 C 0.03718 0.34908 0.19448 0.0
H2318 H 0.10186 0.38647 0.16329 0.0
C2319 C 0.01722 0.3808 0.19458 0.0
C2320 C 0.02709 0.41457 0.18341 0.0
H2321 H 0.0273 0.3226 0.20311 0.0
H2322 H 0.99322 0.37812 0.20333 0.0
C2323 C 0.05935 0.41729 0.17241 0.0
C2324 C 0.67802 0.69344 0.19459 0.0
C2325 C 0.67707 0.72297 0.1833 0.0
H2326 H 0.64915 0.62041 0.2034 0.0
C2327 C 0.64133 0.69952 0.17249 0.0
H2328 H 0.70479 0.70997 0.20316 0.0
C2329 C 0.60905 0.64754 0.17267 0.0
C2330 C 0.61206 0.61795 0.1836 0.0
H2331 H 0.6397 0.7209 0.1636 0.0
H2332 H 0.58286 0.6304 0.164 0.0
C2333 C 0.64623 0.64178 0.1947 0.0
C2334 C 0.32842 0.99441 0.99705 0.0
C2335 C 0.29792 0.96489 1.00833 0.0
H2336 H 0.37258 0.06742 0.98823 0.0
C2337 C 0.28565 0.98838 0.01913 0.0
H2338 H 0.33865 0.97786 0.98847 0.0
C2339 C 0.30536 0.04035 0.01895 0.0
C2340 C 0.33796 0.06992 1.00802 0.0
H2341 H 0.26263 0.96701 0.02803 0.0
H2342 H 0.29631 0.05751 0.02762 0.0
C2343 C 0.34829 0.04607 0.99693 0.0
C2344 C 0.98019 0.30748 0.99689 0.0
C2345 C 0.95642 0.27325 1.00797 0.0
H2346 H 0.04834 0.36611 0.98843 0.0
C2347 C 0.98606 0.27019 0.01888 0.0
H2348 H 0.95878 0.31044 0.98821 0.0
C2349 C 0.03804 0.30248 0.01905 0.0
C2350 C 0.06144 0.33828 1.00826 0.0
H2351 H 0.96896 0.24395 0.02754 0.0
H2352 H 0.05946 0.30081 0.02793 0.0
C2353 C 0.03185 0.33929 0.997 0.0
C2354 C 0.72381 0.74058 0.01917 0.0
C2355 C 0.6882 0.72846 1.00834 0.0
H2356 H 0.78213 0.72974 0.02769 0.0
C2357 C 0.68734 0.6981 0.99703 0.0
H2358 H 0.72536 0.76349 0.02809 0.0
C2359 C 0.7191 0.67818 0.99692 0.0
C2360 C 0.75312 0.68834 1.00804 0.0
H2361 H 0.66068 0.688 0.98843 0.0
H2362 H 0.71626 0.654 0.9882 0.0
C2363 C 0.75605 0.72083 0.019 0.0
C2364 C 0.70379 0.07367 0.85252 0.0
C2365 C 0.72727 0.06163 0.84166 0.0
H2366 H 0.63465 0.06276 0.86107 0.0
C2367 C 0.69774 0.03131 0.83034 0.0
H2368 H 0.72517 0.09654 0.86144 0.0
C2369 C 0.64606 0.01137 0.83025 0.0
C2370 C 0.62222 0.02146 0.8414 0.0
H2371 H 0.71429 0.02127 0.82173 0.0
H2372 H 0.6247 0.98723 0.82153 0.0
C2373 C 0.6518 0.0539 0.85236 0.0
C2374 C 0.99418 0.67219 0.83037 0.0
C2375 C 0.96383 0.67136 0.84168 0.0
H2376 H 0.03826 0.64324 0.82154 0.0
C2377 C 0.95171 0.63577 0.85252 0.0
H2378 H 1.00428 0.69884 0.82177 0.0
C2379 C 0.97145 0.60352 0.85235 0.0
C2380 C 1.00392 0.60642 0.84139 0.0
H2381 H 0.92881 0.63425 0.86143 0.0
H2382 H 0.96254 0.57746 0.86104 0.0
C2383 C 1.01408 0.64042 0.83026 0.0
C2384 C 0.38989 0.32151 0.85241 0.0
C2385 C 0.35398 0.29806 0.84164 0.0
H2386 H 0.44853 0.39062 0.86086 0.0
C2387 C 0.35287 0.3276 0.83038 0.0
H2388 H 0.39165 0.30013 0.86129 0.0
C2389 C 0.38469 0.37925 0.83026 0.0
C2390 C 0.41904 0.40307 0.84131 0.0
H2391 H 0.32597 0.31108 0.82184 0.0
H2392 H 0.38165 0.40062 0.82158 0.0
C2393 C 0.4222 0.37348 0.85222 0.0
C2394 C 0.68339 0.97495 0.02804 0.0
C2395 C 0.69378 0.95114 0.01695 0.0
H2396 H 0.69297 0.04312 0.0365 0.0
C2397 C 0.72643 0.98075 1.00603 0.0
H2398 H 0.65907 0.95356 0.03673 0.0
C2399 C 0.74612 0.03272 1.00586 0.0
C2400 C 0.73378 0.05616 0.01666 0.0
H2401 H 0.73553 0.96362 0.99736 0.0
H2402 H 0.76917 0.05412 0.99697 0.0
C2403 C 0.70325 0.0266 0.02793 0.0
C2404 C 0.99974 0.68193 0.02789 0.0
C2405 C 0.97023 0.68279 0.01658 0.0
H2406 H 0.07275 0.71085 0.03673 0.0
C2407 C 0.99373 0.7184 1.00575 0.0
H2408 H 0.98317 0.65526 0.03649 0.0
C2409 C 0.04571 0.75065 1.00593 0.0
C2410 C 0.07527 0.74773 0.01689 0.0
H2411 H 0.97237 0.71995 0.99683 0.0
H2412 H 0.06288 0.77674 0.99724 0.0
C2413 C 0.0514 0.7137 0.02801 0.0
C2414 C 0.27564 0.30019 1.00588 0.0
C2415 C 0.27853 0.33266 0.01684 0.0
H2416 H 0.30635 0.25755 0.9968 0.0
C2417 C 0.31251 0.3428 0.02797 0.0
H2418 H 0.24958 0.29129 0.99718 0.0
C2419 C 0.34427 0.32288 0.02787 0.0
C2420 C 0.34345 0.29254 0.01656 0.0
H2421 H 0.31533 0.36697 0.03669 0.0
H2422 H 0.37091 0.33297 0.03647 0.0
C2423 C 0.30787 0.28044 1.00571 0.0
C2424 C 0.99381 0.28057 0.5056 0.0
C2425 C 0.97022 0.29236 0.51648 0.0
H2426 H 0.06305 0.29174 0.49705 0.0
C2427 C 0.99964 0.32245 0.52785 0.0
H2428 H 0.97252 0.25788 0.49664 0.0
C2429 C 0.05132 0.34243 0.52796 0.0
C2430 C 0.07528 0.33262 0.5168 0.0
H2431 H 0.98299 0.33229 0.53648 0.0
H2432 H 0.0726 0.36641 0.53673 0.0
C2433 C 0.04581 0.30039 0.50578 0.0
C2434 C 0.68362 0.71376 0.52797 0.0
C2435 C 0.69364 0.74762 0.51681 0.0
H2436 H 0.69353 0.65547 0.5365 0.0
C2437 C 0.72601 0.7504 0.50583 0.0
H2438 H 0.65952 0.71104 0.5367 0.0
C2439 C 0.74577 0.71817 0.50568 0.0
C2440 C 0.73377 0.68271 0.51655 0.0
H2441 H 0.73482 0.77635 0.49711 0.0
H2442 H 0.76858 0.71959 0.49675 0.0
C2443 C 0.70353 0.68201 0.52788 0.0
C2444 C 0.30755 0.0326 0.50599 0.0
C2445 C 0.34357 0.05597 0.51674 0.0
H2446 H 0.24878 0.96358 0.49754 0.0
C2447 C 0.34475 0.02634 0.52796 0.0
H2448 H 0.30573 0.05405 0.49714 0.0
C2449 C 0.31289 0.9747 0.52807 0.0
C2450 C 0.27844 0.95097 0.51704 0.0
H2451 H 0.37173 0.0428 0.53649 0.0
H2452 H 0.31599 0.95326 0.53672 0.0
C2453 C 0.27521 0.98064 0.50617 0.0
C2454 C 0.97101 0.37313 0.35205 0.0
C2455 C 1.00396 0.40283 0.3412 0.0
H2456 H 0.92808 0.2997 0.36106 0.0
C2457 C 1.01475 0.37913 0.33017 0.0
H2458 H 0.96161 0.39017 0.36067 0.0
C2459 C 0.99496 0.32748 0.33027 0.0
C2460 C 0.9641 0.29783 0.34148 0.0
H2461 H 0.03932 0.40058 0.32153 0.0
H2462 H 1.00554 0.31105 0.32174 0.0
C2463 C 0.95139 0.32117 0.35222 0.0
C2464 C 0.69799 0.67197 0.33038 0.0
C2465 C 0.72753 0.67114 0.34168 0.0
H2466 H 0.62496 0.64302 0.32156 0.0
C2467 C 0.70407 0.63555 0.35252 0.0
H2468 H 0.71454 0.69862 0.32178 0.0
C2469 C 0.65208 0.60331 0.35235 0.0
C2470 C 0.62249 0.6062 0.3414 0.0
H2471 H 0.72545 0.63403 0.36143 0.0
H2472 H 0.63493 0.57724 0.36105 0.0
C2473 C 0.64633 0.6402 0.33027 0.0
C2474 C 0.38976 0.07326 0.35264 0.0
C2475 C 0.35429 0.06138 0.34178 0.0
H2476 H 0.44793 0.06219 0.36117 0.0
C2477 C 0.35354 0.03122 0.33043 0.0
H2478 H 0.39122 0.09601 0.36159 0.0
C2479 C 0.38526 0.01126 0.3303 0.0
C2480 C 0.41914 0.02117 0.34145 0.0
H2481 H 0.32699 0.02131 0.32181 0.0
H2482 H 0.3825 0.98723 0.32154 0.0
C2483 C 0.42196 0.05347 0.35245 0.0
loop_
_geom_bond_atom_site_label_1
_geom_bond_atom_site_label_2
_geom_bond_distance
_geom_bond_site_symmetry_2
_ccdc_geom_bond_type
Zn0 N4 2.020 . S
Zn0 O8 2.019 . S
Zn0 N10 2.119 . S
Zn0 O18 1.975 . S
C1 N2 1.334 . S
C1 N5 1.336 . S
N2 C1 1.334 . S
N2 C3 1.334 . S
C3 N2 1.334 . S
C3 N4 1.336 . S
N4 Zn0 2.020 . S
N4 C3 1.336 . S
N4 N5 1.354 . S
N5 C1 1.336 . S
N5 N4 1.354 . S
N5 Zn9 2.020 . S
C6 O7 1.244 . S
C6 O30 1.257 . S
O7 C6 1.244 . S
O8 Zn0 2.019 . S
O8 C28 1.257 . S
Zn9 N5 2.020 . S
Zn9 O16 1.975 . S
Zn9 N25 2.119 . S
Zn9 O30 2.019 1_455 S
N10 Zn0 2.119 . S
N10 C12 1.334 . S
N10 C13 1.328 . S
C11 C12 1.391 . S
C11 N14 1.329 . S
C11 H32 0.930 . S
C12 N10 1.334 . S
C12 C11 1.391 . S
C12 H19 0.930 . S
C13 N10 1.328 . S
C13 C15 1.392 . S
C13 H20 0.930 . S
N14 C11 1.329 . S
N14 C15 1.331 . S
C15 C13 1.392 . S
C15 N14 1.331 . S
O16 Zn9 1.975 . S
O16 C17 1.252 . S
C17 O16 1.252 . S
C17 O18 1.252 . S
O18 Zn0 1.975 . S
O18 C17 1.252 . S
H19 C12 0.930 . S
H20 C13 0.930 . S
C21 C22 1.392 1_655 S
C21 N25 1.328 1_655 S
C21 H27 0.930 . S
C22 C21 1.392 1_455 S
C22 N26 1.331 . S
C23 C24 1.391 . S
C23 N26 1.329 . S
C23 H33 0.930 . S
C24 C23 1.391 . S
C24 N25 1.334 . S
C24 H31 0.930 . S
N25 Zn9 2.119 . S
N25 C21 1.328 1_455 S
N25 C24 1.334 . S
N26 C22 1.331 . S
N26 C23 1.329 . S
H27 C21 0.930 . S
C28 O8 1.257 . S
C28 O29 1.244 . S
O29 C28 1.244 . S
O30 C6 1.257 . S
O30 Zn9 2.019 1_655 S
H31 C24 0.930 . S
H32 C11 0.930 . S
H33 C23 0.930 . S
Zn34 N38 2.020 . S
Zn34 O42 2.019 . S
Zn34 N44 2.119 . S
Zn34 O52 1.975 . S
C35 N36 1.334 . S
C35 N39 1.336 . S
N36 C35 1.334 . S
N36 C37 1.334 . S
C37 N36 1.334 . S
C37 N38 1.336 . S
N38 Zn34 2.020 . S
N38 C37 1.336 . S
N38 N39 1.354 . S
N39 C35 1.336 . S
N39 N38 1.354 . S
N39 Zn43 2.020 . S
C40 O41 1.244 . S
C40 O64 1.257 . S
O41 C40 1.244 . S
O42 Zn34 2.019 . S
O42 C62 1.257 . S
Zn43 N39 2.020 . S
Zn43 O50 1.975 . S
Zn43 N59 2.119 . S
Zn43 O64 2.019 . S
N44 Zn34 2.119 . S
N44 C46 1.334 . S
N44 C47 1.328 . S
C45 C46 1.391 . S
C45 N48 1.329 . S
C45 H66 0.930 . S
C46 N44 1.334 . S
C46 C45 1.391 . S
C46 H53 0.930 . S
C47 N44 1.328 . S
C47 C49 1.392 . S
C47 H54 0.930 . S
N48 C45 1.329 . S
N48 C49 1.331 . S
C49 C47 1.392 . S
C49 N48 1.331 . S
O50 Zn43 1.975 . S
O50 C51 1.252 . S
C51 O50 1.252 . S
C51 O52 1.252 . S
O52 Zn34 1.975 . S
O52 C51 1.252 . S
H53 C46 0.930 . S
H54 C47 0.930 . S
C55 C56 1.392 . S
C55 N59 1.328 . S
C55 H61 0.930 . S
C56 C55 1.392 . S
C56 N60 1.331 . S
C57 C58 1.391 . S
C57 N60 1.329 . S
C57 H67 0.930 . S
C58 C57 1.391 . S
C58 N59 1.334 . S
C58 H65 0.930 . S
N59 Zn43 2.119 . S
N59 C55 1.328 . S
N59 C58 1.334 . S
N60 C56 1.331 . S
N60 C57 1.329 . S
H61 C55 0.930 . S
C62 O42 1.257 . S
C62 O63 1.244 . S
O63 C62 1.244 . S
O64 C40 1.257 . S
O64 Zn43 2.019 . S
H65 C58 0.930 . S
H66 C45 0.930 . S
H67 C57 0.930 . S
Zn68 N72 2.020 . S
Zn68 O76 2.019 . S
Zn68 N78 2.119 . S
Zn68 O86 1.975 . S
C69 N70 1.334 . S
C69 N73 1.336 . S
N70 C69 1.334 . S
N70 C71 1.334 . S
C71 N70 1.334 . S
C71 N72 1.336 . S
N72 Zn68 2.020 . S
N72 C71 1.336 . S
N72 N73 1.354 . S
N73 C69 1.336 . S
N73 N72 1.354 . S
N73 Zn77 2.020 . S
C74 O75 1.244 . S
C74 O98 1.257 . S
O75 C74 1.244 . S
O76 Zn68 2.019 . S
O76 C96 1.257 . S
Zn77 N73 2.020 . S
Zn77 O84 1.975 . S
Zn77 N93 2.119 . S
Zn77 O98 2.019 1_565 S
N78 Zn68 2.119 . S
N78 C80 1.334 . S
N78 C81 1.328 . S
C79 C80 1.391 . S
C79 N82 1.329 . S
C79 H100 0.930 . S
C80 N78 1.334 . S
C80 C79 1.391 . S
C80 H87 0.930 . S
C81 N78 1.328 . S
C81 C83 1.392 . S
C81 H88 0.930 . S
N82 C79 1.329 . S
N82 C83 1.331 . S
C83 C81 1.392 . S
C83 N82 1.331 . S
O84 Zn77 1.975 . S
O84 C85 1.252 . S
C85 O84 1.252 . S
C85 O86 1.252 . S
O86 Zn68 1.975 . S
O86 C85 1.252 . S
H87 C80 0.930 . S
H88 C81 0.930 . S
C89 C90 1.392 1_545 S
C89 N93 1.328 1_545 S
C89 H95 0.930 . S
C90 C89 1.392 1_565 S
C90 N94 1.331 . S
C91 C92 1.391 . S
C91 N94 1.329 . S
C91 H101 0.930 . S
C92 C91 1.391 . S
C92 N93 1.334 . S
C92 H99 0.930 . S
N93 Zn77 2.119 . S
N93 C89 1.328 1_565 S
N93 C92 1.334 . S
N94 C90 1.331 . S
N94 C91 1.329 . S
H95 C89 0.930 . S
C96 O76 1.257 . S
C96 O97 1.244 . S
O97 C96 1.244 . S
O98 C74 1.257 . S
O98 Zn77 2.019 1_545 S
H99 C92 0.930 . S
H100 C79 0.930 . S
H101 C91 0.930 . S
Zn102 N106 2.020 . S
Zn102 O110 2.019 . S
Zn102 N112 2.119 . S
Zn102 O120 1.975 . S
C103 N104 1.334 . S
C103 N107 1.336 . S
N104 C103 1.334 . S
N104 C105 1.334 . S
C105 N104 1.334 . S
C105 N106 1.336 . S
N106 Zn102 2.020 . S
N106 C105 1.336 . S
N106 N107 1.354 . S
N107 C103 1.336 . S
N107 N106 1.354 . S
N107 Zn111 2.020 . S
C108 O109 1.244 . S
C108 O132 1.257 . S
O109 C108 1.244 . S
O110 Zn102 2.019 . S
O110 C130 1.257 . S
Zn111 N107 2.020 . S
Zn111 O118 1.975 . S
Zn111 N127 2.119 . S
Zn111 O132 2.019 1_545 S
N112 Zn102 2.119 . S
N112 C114 1.334 . S
N112 C115 1.328 . S
C113 C114 1.391 . S
C113 N116 1.329 . S
C113 H134 0.930 . S
C114 N112 1.334 . S
C114 C113 1.391 . S
C114 H121 0.930 . S
C115 N112 1.328 . S
C115 C117 1.392 . S
C115 H122 0.930 . S
N116 C113 1.329 . S
N116 C117 1.331 . S
C117 C115 1.392 . S
C117 N116 1.331 . S
O118 Zn111 1.975 . S
O118 C119 1.252 . S
C119 O118 1.252 . S
C119 O120 1.252 . S
O120 Zn102 1.975 . S
O120 C119 1.252 . S
H121 C114 0.930 . S
H122 C115 0.930 . S
C123 C124 1.392 1_565 S
C123 N127 1.328 1_565 S
C123 H129 0.930 . S
C124 C123 1.392 1_545 S
C124 N128 1.331 . S
C125 C126 1.391 . S
C125 N128 1.329 . S
C125 H135 0.930 . S
C126 C125 1.391 . S
C126 N127 1.334 . S
C126 H133 0.930 . S
N127 Zn111 2.119 . S
N127 C123 1.328 1_545 S
N127 C126 1.334 . S
N128 C124 1.331 . S
N128 C125 1.329 . S
H129 C123 0.930 . S
C130 O110 1.257 . S
C130 O131 1.244 . S
O131 C130 1.244 . S
O132 C108 1.257 . S
O132 Zn111 2.019 1_565 S
H133 C126 0.930 . S
H134 C113 0.930 . S
H135 C125 0.930 . S
Zn136 N140 2.020 . S
Zn136 O144 2.019 1_655 S
Zn136 N146 2.119 . S
Zn136 O154 1.975 . S
C137 N138 1.334 . S
C137 N141 1.336 . S
N138 C137 1.334 . S
N138 C139 1.334 . S
C139 N138 1.334 . S
C139 N140 1.336 . S
N140 Zn136 2.020 . S
N140 C139 1.336 . S
N140 N141 1.354 . S
N141 C137 1.336 . S
N141 N140 1.354 . S
N141 Zn145 2.020 . S
C142 O143 1.244 . S
C142 O166 1.257 . S
O143 C142 1.244 . S
O144 Zn136 2.019 1_455 S
O144 C164 1.257 . S
Zn145 N141 2.020 . S
Zn145 O152 1.975 . S
Zn145 N161 2.119 . S
Zn145 O166 2.019 . S
N146 Zn136 2.119 . S
N146 C148 1.334 . S
N146 C149 1.328 1_655 S
C147 C148 1.391 . S
C147 N150 1.329 . S
C147 H168 0.930 . S
C148 N146 1.334 . S
C148 C147 1.391 . S
C148 H155 0.930 . S
C149 N146 1.328 1_455 S
C149 C151 1.392 1_455 S
C149 H156 0.930 . S
N150 C147 1.329 . S
N150 C151 1.331 . S
C151 C149 1.392 1_655 S
C151 N150 1.331 . S
O152 Zn145 1.975 . S
O152 C153 1.252 . S
C153 O152 1.252 . S
C153 O154 1.252 . S
O154 Zn136 1.975 . S
O154 C153 1.252 . S
H155 C148 0.930 . S
H156 C149 0.930 . S
C157 C158 1.392 . S
C157 N161 1.328 . S
C157 H163 0.930 . S
C158 C157 1.392 . S
C158 N162 1.331 . S
C159 C160 1.391 . S
C159 N162 1.329 . S
C159 H169 0.930 . S
C160 C159 1.391 . S
C160 N161 1.334 . S
C160 H167 0.930 . S
N161 Zn145 2.119 . S
N161 C157 1.328 . S
N161 C160 1.334 . S
N162 C158 1.331 . S
N162 C159 1.329 . S
H163 C157 0.930 . S
C164 O144 1.257 . S
C164 O165 1.244 . S
O165 C164 1.244 . S
O166 C142 1.257 . S
O166 Zn145 2.019 . S
H167 C160 0.930 . S
H168 C147 0.930 . S
H169 C159 0.930 . S
Zn170 N174 2.020 . S
Zn170 O178 2.019 . S
Zn170 N180 2.119 . S
Zn170 O188 1.975 . S
C171 N172 1.334 . S
C171 N175 1.336 . S
N172 C171 1.334 . S
N172 C173 1.334 . S
C173 N172 1.334 . S
C173 N174 1.336 . S
N174 Zn170 2.020 . S
N174 C173 1.336 . S
N174 N175 1.354 . S
N175 C171 1.336 . S
N175 N174 1.354 . S
N175 Zn179 2.020 . S
C176 O177 1.244 . S
C176 O200 1.257 . S
O177 C176 1.244 . S
O178 Zn170 2.019 . S
O178 C198 1.257 . S
Zn179 N175 2.020 . S
Zn179 O186 1.975 . S
Zn179 N195 2.119 . S
Zn179 O200 2.019 . S
N180 Zn170 2.119 . S
N180 C182 1.334 . S
N180 C183 1.328 . S
C181 C182 1.391 . S
C181 N184 1.329 . S
C181 H202 0.930 . S
C182 N180 1.334 . S
C182 C181 1.391 . S
C182 H189 0.930 . S
C183 N180 1.328 . S
C183 C185 1.392 . S
C183 H190 0.930 . S
N184 C181 1.329 . S
N184 C185 1.331 . S
C185 C183 1.392 . S
C185 N184 1.331 . S
O186 Zn179 1.975 . S
O186 C187 1.252 . S
C187 O186 1.252 . S
C187 O188 1.252 . S
O188 Zn170 1.975 . S
O188 C187 1.252 . S
H189 C182 0.930 . S
H190 C183 0.930 . S
C191 C192 1.392 . S
C191 N195 1.328 . S
C191 H197 0.930 . S
C192 C191 1.392 . S
C192 N196 1.331 . S
C193 C194 1.391 . S
C193 N196 1.329 . S
C193 H203 0.930 . S
C194 C193 1.391 . S
C194 N195 1.334 . S
C194 H201 0.930 . S
N195 Zn179 2.119 . S
N195 C191 1.328 . S
N195 C194 1.334 . S
N196 C192 1.331 . S
N196 C193 1.329 . S
H197 C191 0.930 . S
C198 O178 1.257 . S
C198 O199 1.244 . S
O199 C198 1.244 . S
O200 C176 1.257 . S
O200 Zn179 2.019 . S
H201 C194 0.930 . S
H202 C181 0.930 . S
H203 C193 0.930 . S
Zn204 N208 2.020 . S
Zn204 O212 2.019 1_655 S
Zn204 N214 2.119 . S
Zn204 O222 1.975 . S
C205 N206 1.334 . S
C205 N209 1.336 . S
N206 C205 1.334 . S
N206 C207 1.334 . S
C207 N206 1.334 . S
C207 N208 1.336 . S
N208 Zn204 2.020 . S
N208 C207 1.336 . S
N208 N209 1.354 . S
N209 C205 1.336 . S
N209 N208 1.354 . S
N209 Zn213 2.020 . S
C210 O211 1.244 . S
C210 O234 1.257 . S
O211 C210 1.244 . S
O212 Zn204 2.019 1_455 S
O212 C232 1.257 . S
Zn213 N209 2.020 . S
Zn213 O220 1.975 . S
Zn213 N229 2.119 . S
Zn213 O234 2.019 . S
N214 Zn204 2.119 . S
N214 C216 1.334 . S
N214 C217 1.328 1_655 S
C215 C216 1.391 . S
C215 N218 1.329 . S
C215 H236 0.930 . S
C216 N214 1.334 . S
C216 C215 1.391 . S
C216 H223 0.930 . S
C217 N214 1.328 1_455 S
C217 C219 1.392 1_455 S
C217 H224 0.930 . S
N218 C215 1.329 . S
N218 C219 1.331 . S
C219 C217 1.392 1_655 S
C219 N218 1.331 . S
O220 Zn213 1.975 . S
O220 C221 1.252 . S
C221 O220 1.252 . S
C221 O222 1.252 . S
O222 Zn204 1.975 . S
O222 C221 1.252 . S
H223 C216 0.930 . S
H224 C217 0.930 . S
C225 C226 1.392 . S
C225 N229 1.328 . S
C225 H231 0.930 . S
C226 C225 1.392 . S
C226 N230 1.331 . S
C227 C228 1.391 . S
C227 N230 1.329 . S
C227 H237 0.930 . S
C228 C227 1.391 . S
C228 N229 1.334 . S
C228 H235 0.930 . S
N229 Zn213 2.119 . S
N229 C225 1.328 . S
N229 C228 1.334 . S
N230 C226 1.331 . S
N230 C227 1.329 . S
H231 C225 0.930 . S
C232 O212 1.257 . S
C232 O233 1.244 . S
O233 C232 1.244 . S
O234 C210 1.257 . S
O234 Zn213 2.019 . S
H235 C228 0.930 . S
H236 C215 0.930 . S
H237 C227 0.930 . S
Zn238 N242 2.020 . S
Zn238 O246 2.019 . S
Zn238 N248 2.119 . S
Zn238 O256 1.975 . S
C239 N240 1.334 . S
C239 N243 1.336 . S
N240 C239 1.334 . S
N240 C241 1.334 . S
C241 N240 1.334 . S
C241 N242 1.336 . S
N242 Zn238 2.020 . S
N242 C241 1.336 . S
N242 N243 1.354 . S
N243 C239 1.336 . S
N243 N242 1.354 . S
N243 Zn247 2.020 . S
C244 O245 1.244 . S
C244 O268 1.257 . S
O245 C244 1.244 . S
O246 Zn238 2.019 . S
O246 C266 1.257 . S
Zn247 N243 2.020 . S
Zn247 O254 1.975 . S
Zn247 N263 2.119 . S
Zn247 O268 2.019 . S
N248 Zn238 2.119 . S
N248 C250 1.334 . S
N248 C251 1.328 . S
C249 C250 1.391 . S
C249 N252 1.329 . S
C249 H270 0.930 . S
C250 N248 1.334 . S
C250 C249 1.391 . S
C250 H257 0.930 . S
C251 N248 1.328 . S
C251 C253 1.392 . S
C251 H258 0.930 . S
N252 C249 1.329 . S
N252 C253 1.331 . S
C253 C251 1.392 . S
C253 N252 1.331 . S
O254 Zn247 1.975 . S
O254 C255 1.252 . S
C255 O254 1.252 . S
C255 O256 1.252 . S
O256 Zn238 1.975 . S
O256 C255 1.252 . S
H257 C250 0.930 . S
H258 C251 0.930 . S
C259 C260 1.392 . S
C259 N263 1.328 . S
C259 H265 0.930 . S
C260 C259 1.392 . S
C260 N264 1.331 . S
C261 C262 1.391 . S
C261 N264 1.329 . S
C261 H271 0.930 . S
C262 C261 1.391 . S
C262 N263 1.334 . S
C262 H269 0.930 . S
N263 Zn247 2.119 . S
N263 C259 1.328 . S
N263 C262 1.334 . S
N264 C260 1.331 . S
N264 C261 1.329 . S
H265 C259 0.930 . S
C266 O246 1.257 . S
C266 O267 1.244 . S
O267 C266 1.244 . S
O268 C244 1.257 . S
O268 Zn247 2.019 . S
H269 C262 0.930 . S
H270 C249 0.930 . S
H271 C261 0.930 . S
Zn272 N276 2.020 . S
Zn272 O280 2.019 1_545 S
Zn272 N282 2.119 . S
Zn272 O290 1.975 . S
C273 N274 1.334 . S
C273 N277 1.336 . S
N274 C273 1.334 . S
N274 C275 1.334 . S
C275 N274 1.334 . S
C275 N276 1.336 . S
N276 Zn272 2.020 . S
N276 C275 1.336 . S
N276 N277 1.354 . S
N277 C273 1.336 . S
N277 N276 1.354 . S
N277 Zn281 2.020 . S
C278 O279 1.244 . S
C278 O302 1.257 . S
O279 C278 1.244 . S
O280 Zn272 2.019 1_565 S
O280 C300 1.257 . S
Zn281 N277 2.020 . S
Zn281 O288 1.975 . S
Zn281 N297 2.119 . S
Zn281 O302 2.019 . S
N282 Zn272 2.119 . S
N282 C284 1.334 . S
N282 C285 1.328 1_545 S
C283 C284 1.391 . S
C283 N286 1.329 . S
C283 H304 0.930 . S
C284 N282 1.334 . S
C284 C283 1.391 . S
C284 H291 0.930 . S
C285 N282 1.328 1_565 S
C285 C287 1.392 1_565 S
C285 H292 0.930 . S
N286 C283 1.329 . S
N286 C287 1.331 . S
C287 C285 1.392 1_545 S
C287 N286 1.331 . S
O288 Zn281 1.975 . S
O288 C289 1.252 . S
C289 O288 1.252 . S
C289 O290 1.252 . S
O290 Zn272 1.975 . S
O290 C289 1.252 . S
H291 C284 0.930 . S
H292 C285 0.930 . S
C293 C294 1.392 . S
C293 N297 1.328 . S
C293 H299 0.930 . S
C294 C293 1.392 . S
C294 N298 1.331 . S
C295 C296 1.391 . S
C295 N298 1.329 . S
C295 H305 0.930 . S
C296 C295 1.391 . S
C296 N297 1.334 . S
C296 H303 0.930 . S
N297 Zn281 2.119 . S
N297 C293 1.328 . S
N297 C296 1.334 . S
N298 C294 1.331 . S
N298 C295 1.329 . S
H299 C293 0.930 . S
C300 O280 1.257 . S
C300 O301 1.244 . S
O301 C300 1.244 . S
O302 C278 1.257 . S
O302 Zn281 2.019 . S
H303 C296 0.930 . S
H304 C283 0.930 . S
H305 C295 0.930 . S
Zn306 N310 2.020 . S
Zn306 O314 2.019 . S
Zn306 N316 2.119 . S
Zn306 O324 1.975 . S
C307 N308 1.334 . S
C307 N311 1.336 . S
N308 C307 1.334 . S
N308 C309 1.334 . S
C309 N308 1.334 . S
C309 N310 1.336 . S
N310 Zn306 2.020 . S
N310 C309 1.336 . S
N310 N311 1.354 . S
N311 C307 1.336 . S
N311 N310 1.354 . S
N311 Zn315 2.020 . S
C312 O313 1.244 . S
C312 O336 1.257 . S
O313 C312 1.244 . S
O314 Zn306 2.019 . S
O314 C334 1.257 . S
Zn315 N311 2.020 . S
Zn315 O322 1.975 . S
Zn315 N331 2.119 . S
Zn315 O336 2.019 1_565 S
N316 Zn306 2.119 . S
N316 C318 1.334 . S
N316 C319 1.328 . S
C317 C318 1.391 . S
C317 N320 1.329 . S
C317 H338 0.930 . S
C318 N316 1.334 . S
C318 C317 1.391 . S
C318 H325 0.930 . S
C319 N316 1.328 . S
C319 C321 1.392 . S
C319 H326 0.930 . S
N320 C317 1.329 . S
N320 C321 1.331 . S
C321 C319 1.392 . S
C321 N320 1.331 . S
O322 Zn315 1.975 . S
O322 C323 1.252 . S
C323 O322 1.252 . S
C323 O324 1.252 . S
O324 Zn306 1.975 . S
O324 C323 1.252 . S
H325 C318 0.930 . S
H326 C319 0.930 . S
C327 C328 1.392 1_545 S
C327 N331 1.328 1_545 S
C327 H333 0.930 . S
C328 C327 1.392 1_565 S
C328 N332 1.331 . S
C329 C330 1.391 . S
C329 N332 1.329 . S
C329 H339 0.930 . S
C330 C329 1.391 . S
C330 N331 1.334 . S
C330 H337 0.930 . S
N331 Zn315 2.119 . S
N331 C327 1.328 1_565 S
N331 C330 1.334 . S
N332 C328 1.331 . S
N332 C329 1.329 . S
H333 C327 0.930 . S
C334 O314 1.257 . S
C334 O335 1.244 . S
O335 C334 1.244 . S
O336 C312 1.257 . S
O336 Zn315 2.019 1_545 S
H337 C330 0.930 . S
H338 C317 0.930 . S
H339 C329 0.930 . S
Zn340 N344 2.020 . S
Zn340 O348 2.019 . S
Zn340 N350 2.119 . S
Zn340 O358 1.975 . S
C341 N342 1.334 . S
C341 N345 1.336 . S
N342 C341 1.334 . S
N342 C343 1.334 . S
C343 N342 1.334 . S
C343 N344 1.336 . S
N344 Zn340 2.020 . S
N344 C343 1.336 . S
N344 N345 1.354 . S
N345 C341 1.336 . S
N345 N344 1.354 . S
N345 Zn349 2.020 . S
C346 O347 1.244 . S
C346 O370 1.257 . S
O347 C346 1.244 . S
O348 Zn340 2.019 . S
O348 C368 1.257 . S
Zn349 N345 2.020 . S
Zn349 O356 1.975 . S
Zn349 N365 2.119 . S
Zn349 O370 2.019 1_455 S
N350 Zn340 2.119 . S
N350 C352 1.334 . S
N350 C353 1.328 . S
C351 C352 1.391 . S
C351 N354 1.329 . S
C351 H372 0.930 . S
C352 N350 1.334 . S
C352 C351 1.391 . S
C352 H359 0.930 . S
C353 N350 1.328 . S
C353 C355 1.392 . S
C353 H360 0.930 . S
N354 C351 1.329 . S
N354 C355 1.331 . S
C355 C353 1.392 . S
C355 N354 1.331 . S
O356 Zn349 1.975 . S
O356 C357 1.252 . S
C357 O356 1.252 . S
C357 O358 1.252 . S
O358 Zn340 1.975 . S
O358 C357 1.252 . S
H359 C352 0.930 . S
H360 C353 0.930 . S
C361 C362 1.392 1_655 S
C361 N365 1.328 1_655 S
C361 H367 0.930 . S
C362 C361 1.392 1_455 S
C362 N366 1.331 . S
C363 C364 1.391 . S
C363 N366 1.329 . S
C363 H373 0.930 . S
C364 C363 1.391 . S
C364 N365 1.334 . S
C364 H371 0.930 . S
N365 Zn349 2.119 . S
N365 C361 1.328 1_455 S
N365 C364 1.334 . S
N366 C362 1.331 . S
N366 C363 1.329 . S
H367 C361 0.930 . S
C368 O348 1.257 . S
C368 O369 1.244 . S
O369 C368 1.244 . S
O370 C346 1.257 . S
O370 Zn349 2.019 1_655 S
H371 C364 0.930 . S
H372 C351 0.930 . S
H373 C363 0.930 . S
Zn374 N378 2.020 . S
Zn374 O382 2.019 . S
Zn374 N384 2.119 . S
Zn374 O392 1.975 . S
C375 N376 1.334 . S
C375 N379 1.336 . S
N376 C375 1.334 . S
N376 C377 1.334 . S
C377 N376 1.334 . S
C377 N378 1.336 . S
N378 Zn374 2.020 . S
N378 C377 1.336 . S
N378 N379 1.354 . S
N379 C375 1.336 . S
N379 N378 1.354 . S
N379 Zn383 2.020 . S
C380 O381 1.244 . S
C380 O404 1.257 . S
O381 C380 1.244 . S
O382 Zn374 2.019 . S
O382 C402 1.257 . S
Zn383 N379 2.020 . S
Zn383 O390 1.975 . S
Zn383 N399 2.119 . S
Zn383 O404 2.019 . S
N384 Zn374 2.119 . S
N384 C386 1.334 . S
N384 C387 1.328 . S
C385 C386 1.391 . S
C385 N388 1.329 . S
C385 H406 0.930 . S
C386 N384 1.334 . S
C386 C385 1.391 . S
C386 H393 0.930 . S
C387 N384 1.328 . S
C387 C389 1.392 . S
C387 H394 0.930 . S
N388 C385 1.329 . S
N388 C389 1.331 . S
C389 C387 1.392 . S
C389 N388 1.331 . S
O390 Zn383 1.975 . S
O390 C391 1.252 . S
C391 O390 1.252 . S
C391 O392 1.252 . S
O392 Zn374 1.975 . S
O392 C391 1.252 . S
H393 C386 0.930 . S
H394 C387 0.930 . S
C395 C396 1.392 . S
C395 N399 1.328 . S
C395 H401 0.930 . S
C396 C395 1.392 . S
C396 N400 1.331 . S
C397 C398 1.391 . S
C397 N400 1.329 . S
C397 H407 0.930 . S
C398 C397 1.391 . S
C398 N399 1.334 . S
C398 H405 0.930 . S
N399 Zn383 2.119 . S
N399 C395 1.328 . S
N399 C398 1.334 . S
N400 C396 1.331 . S
N400 C397 1.329 . S
H401 C395 0.930 . S
C402 O382 1.257 . S
C402 O403 1.244 . S
O403 C402 1.244 . S
O404 C380 1.257 . S
O404 Zn383 2.019 . S
H405 C398 0.930 . S
H406 C385 0.930 . S
H407 C397 0.930 . S
Zn408 N412 2.020 . S
Zn408 O416 2.019 . S
Zn408 N418 2.119 . S
Zn408 O426 1.975 . S
C409 N410 1.334 . S
C409 N413 1.336 . S
N410 C409 1.334 . S
N410 C411 1.334 . S
C411 N410 1.334 . S
C411 N412 1.336 . S
N412 Zn408 2.020 . S
N412 C411 1.336 . S
N412 N413 1.354 . S
N413 C409 1.336 . S
N413 N412 1.354 . S
N413 Zn417 2.020 . S
C414 O415 1.244 . S
C414 O438 1.257 . S
O415 C414 1.244 . S
O416 Zn408 2.019 . S
O416 C436 1.257 . S
Zn417 N413 2.020 . S
Zn417 O424 1.975 . S
Zn417 N433 2.119 . S
Zn417 O438 2.019 . S
N418 Zn408 2.119 . S
N418 C420 1.334 . S
N418 C421 1.328 . S
C419 C420 1.391 . S
C419 N422 1.329 . S
C419 H440 0.930 . S
C420 N418 1.334 . S
C420 C419 1.391 . S
C420 H427 0.930 . S
C421 N418 1.328 . S
C421 C423 1.392 . S
C421 H428 0.930 . S
N422 C419 1.329 . S
N422 C423 1.331 . S
C423 C421 1.392 . S
C423 N422 1.331 . S
O424 Zn417 1.975 . S
O424 C425 1.252 . S
C425 O424 1.252 . S
C425 O426 1.252 . S
O426 Zn408 1.975 . S
O426 C425 1.252 . S
H427 C420 0.930 . S
H428 C421 0.930 . S
C429 C430 1.392 . S
C429 N433 1.328 . S
C429 H435 0.930 . S
C430 C429 1.392 . S
C430 N434 1.331 . S
C431 C432 1.391 . S
C431 N434 1.329 . S
C431 H441 0.930 . S
C432 C431 1.391 . S
C432 N433 1.334 . S
C432 H439 0.930 . S
N433 Zn417 2.119 . S
N433 C429 1.328 . S
N433 C432 1.334 . S
N434 C430 1.331 . S
N434 C431 1.329 . S
H435 C429 0.930 . S
C436 O416 1.257 . S
C436 O437 1.244 . S
O437 C436 1.244 . S
O438 C414 1.257 . S
O438 Zn417 2.019 . S
H439 C432 0.930 . S
H440 C419 0.930 . S
H441 C431 0.930 . S
Zn442 N446 2.020 . S
Zn442 O450 2.019 . S
Zn442 N452 2.119 . S
Zn442 O460 1.975 . S
C443 N444 1.334 . S
C443 N447 1.336 . S
N444 C443 1.334 . S
N444 C445 1.334 . S
C445 N444 1.334 . S
C445 N446 1.336 . S
N446 Zn442 2.020 . S
N446 C445 1.336 . S
N446 N447 1.354 . S
N447 C443 1.336 . S
N447 N446 1.354 . S
N447 Zn451 2.020 . S
C448 O449 1.244 . S
C448 O472 1.257 . S
O449 C448 1.244 . S
O450 Zn442 2.019 . S
O450 C470 1.257 . S
Zn451 N447 2.020 . S
Zn451 O458 1.975 . S
Zn451 N467 2.119 . S
Zn451 O472 2.019 . S
N452 Zn442 2.119 . S
N452 C454 1.334 . S
N452 C455 1.328 . S
C453 C454 1.391 . S
C453 N456 1.329 . S
C453 H474 0.930 . S
C454 N452 1.334 . S
C454 C453 1.391 . S
C454 H461 0.930 . S
C455 N452 1.328 . S
C455 C457 1.392 . S
C455 H462 0.930 . S
N456 C453 1.329 . S
N456 C457 1.331 . S
C457 C455 1.392 . S
C457 N456 1.331 . S
O458 Zn451 1.975 . S
O458 C459 1.252 . S
C459 O458 1.252 . S
C459 O460 1.252 . S
O460 Zn442 1.975 . S
O460 C459 1.252 . S
H461 C454 0.930 . S
H462 C455 0.930 . S
C463 C464 1.392 . S
C463 N467 1.328 . S
C463 H469 0.930 . S
C464 C463 1.392 . S
C464 N468 1.331 . S
C465 C466 1.391 . S
C465 N468 1.329 . S
C465 H475 0.930 . S
C466 C465 1.391 . S
C466 N467 1.334 . S
C466 H473 0.930 . S
N467 Zn451 2.119 . S
N467 C463 1.328 . S
N467 C466 1.334 . S
N468 C464 1.331 . S
N468 C465 1.329 . S
H469 C463 0.930 . S
C470 O450 1.257 . S
C470 O471 1.244 . S
O471 C470 1.244 . S
O472 C448 1.257 . S
O472 Zn451 2.019 . S
H473 C466 0.930 . S
H474 C453 0.930 . S
H475 C465 0.930 . S
Zn476 N480 2.020 . S
Zn476 O484 2.019 . S
Zn476 N486 2.119 . S
Zn476 O494 1.975 . S
C477 N478 1.334 . S
C477 N481 1.336 . S
N478 C477 1.334 . S
N478 C479 1.334 . S
C479 N478 1.334 . S
C479 N480 1.336 . S
N480 Zn476 2.020 . S
N480 C479 1.336 . S
N480 N481 1.354 . S
N481 C477 1.336 . S
N481 N480 1.354 . S
N481 Zn485 2.020 . S
C482 O483 1.244 . S
C482 O506 1.257 . S
O483 C482 1.244 . S
O484 Zn476 2.019 . S
O484 C504 1.257 . S
Zn485 N481 2.020 . S
Zn485 O492 1.975 . S
Zn485 N501 2.119 . S
Zn485 O506 2.019 . S
N486 Zn476 2.119 . S
N486 C488 1.334 . S
N486 C489 1.328 . S
C487 C488 1.391 . S
C487 N490 1.329 . S
C487 H508 0.930 . S
C488 N486 1.334 . S
C488 C487 1.391 . S
C488 H495 0.930 . S
C489 N486 1.328 . S
C489 C491 1.392 . S
C489 H496 0.930 . S
N490 C487 1.329 . S
N490 C491 1.331 . S
C491 C489 1.392 . S
C491 N490 1.331 . S
O492 Zn485 1.975 . S
O492 C493 1.252 . S
C493 O492 1.252 . S
C493 O494 1.252 . S
O494 Zn476 1.975 . S
O494 C493 1.252 . S
H495 C488 0.930 . S
H496 C489 0.930 . S
C497 C498 1.392 . S
C497 N501 1.328 . S
C497 H503 0.930 . S
C498 C497 1.392 . S
C498 N502 1.331 . S
C499 C500 1.391 . S
C499 N502 1.329 . S
C499 H509 0.930 . S
C500 C499 1.391 . S
C500 N501 1.334 . S
C500 H507 0.930 . S
N501 Zn485 2.119 . S
N501 C497 1.328 . S
N501 C500 1.334 . S
N502 C498 1.331 . S
N502 C499 1.329 . S
H503 C497 0.930 . S
C504 O484 1.257 . S
C504 O505 1.244 . S
O505 C504 1.244 . S
O506 C482 1.257 . S
O506 Zn485 2.019 . S
H507 C500 0.930 . S
H508 C487 0.930 . S
H509 C499 0.930 . S
Zn510 N514 2.020 . S
Zn510 O518 2.019 . S
Zn510 N520 2.119 . S
Zn510 O528 1.975 . S
C511 N512 1.334 . S
C511 N515 1.336 . S
N512 C511 1.334 . S
N512 C513 1.334 . S
C513 N512 1.334 . S
C513 N514 1.336 . S
N514 Zn510 2.020 . S
N514 C513 1.336 . S
N514 N515 1.354 . S
N515 C511 1.336 . S
N515 N514 1.354 . S
N515 Zn519 2.020 . S
C516 O517 1.244 . S
C516 O540 1.257 . S
O517 C516 1.244 . S
O518 Zn510 2.019 . S
O518 C538 1.257 . S
Zn519 N515 2.020 . S
Zn519 O526 1.975 . S
Zn519 N535 2.119 . S
Zn519 O540 2.019 . S
N520 Zn510 2.119 . S
N520 C522 1.334 . S
N520 C523 1.328 . S
C521 C522 1.391 . S
C521 N524 1.329 . S
C521 H542 0.930 . S
C522 N520 1.334 . S
C522 C521 1.391 . S
C522 H529 0.930 . S
C523 N520 1.328 . S
C523 C525 1.392 . S
C523 H530 0.930 . S
N524 C521 1.329 . S
N524 C525 1.331 . S
C525 C523 1.392 . S
C525 N524 1.331 . S
O526 Zn519 1.975 . S
O526 C527 1.252 . S
C527 O526 1.252 . S
C527 O528 1.252 . S
O528 Zn510 1.975 . S
O528 C527 1.252 . S
H529 C522 0.930 . S
H530 C523 0.930 . S
C531 C532 1.392 . S
C531 N535 1.328 . S
C531 H537 0.930 . S
C532 C531 1.392 . S
C532 N536 1.331 . S
C533 C534 1.391 . S
C533 N536 1.329 . S
C533 H543 0.930 . S
C534 C533 1.391 . S
C534 N535 1.334 . S
C534 H541 0.930 . S
N535 Zn519 2.119 . S
N535 C531 1.328 . S
N535 C534 1.334 . S
N536 C532 1.331 . S
N536 C533 1.329 . S
H537 C531 0.930 . S
C538 O518 1.257 . S
C538 O539 1.244 . S
O539 C538 1.244 . S
O540 C516 1.257 . S
O540 Zn519 2.019 . S
H541 C534 0.930 . S
H542 C521 0.930 . S
H543 C533 0.930 . S
Zn544 N548 2.020 . S
Zn544 O552 2.019 . S
Zn544 N554 2.119 . S
Zn544 O562 1.975 . S
C545 N546 1.334 . S
C545 N549 1.336 . S
N546 C545 1.334 . S
N546 C547 1.334 . S
C547 N546 1.334 . S
C547 N548 1.336 . S
N548 Zn544 2.020 . S
N548 C547 1.336 . S
N548 N549 1.354 . S
N549 C545 1.336 . S
N549 N548 1.354 . S
N549 Zn553 2.020 . S
C550 O551 1.244 . S
C550 O574 1.257 . S
O551 C550 1.244 . S
O552 Zn544 2.019 . S
O552 C572 1.257 . S
Zn553 N549 2.020 . S
Zn553 O560 1.975 . S
Zn553 N569 2.119 . S
Zn553 O574 2.019 . S
N554 Zn544 2.119 . S
N554 C556 1.334 . S
N554 C557 1.328 . S
C555 C556 1.391 . S
C555 N558 1.329 . S
C555 H576 0.930 . S
C556 N554 1.334 . S
C556 C555 1.391 . S
C556 H563 0.930 . S
C557 N554 1.328 . S
C557 C559 1.392 . S
C557 H564 0.930 . S
N558 C555 1.329 . S
N558 C559 1.331 . S
C559 C557 1.392 . S
C559 N558 1.331 . S
O560 Zn553 1.975 . S
O560 C561 1.252 . S
C561 O560 1.252 . S
C561 O562 1.252 . S
O562 Zn544 1.975 . S
O562 C561 1.252 . S
H563 C556 0.930 . S
H564 C557 0.930 . S
C565 C566 1.392 . S
C565 N569 1.328 . S
C565 H571 0.930 . S
C566 C565 1.392 . S
C566 N570 1.331 . S
C567 C568 1.391 . S
C567 N570 1.329 . S
C567 H577 0.930 . S
C568 C567 1.391 . S
C568 N569 1.334 . S
C568 H575 0.930 . S
N569 Zn553 2.119 . S
N569 C565 1.328 . S
N569 C568 1.334 . S
N570 C566 1.331 . S
N570 C567 1.329 . S
H571 C565 0.930 . S
C572 O552 1.257 . S
C572 O573 1.244 . S
O573 C572 1.244 . S
O574 C550 1.257 . S
O574 Zn553 2.019 . S
H575 C568 0.930 . S
H576 C555 0.930 . S
H577 C567 0.930 . S
Zn578 N582 2.020 . S
Zn578 O586 2.019 . S
Zn578 N588 2.119 . S
Zn578 O596 1.975 . S
C579 N580 1.334 . S
C579 N583 1.336 . S
N580 C579 1.334 . S
N580 C581 1.334 . S
C581 N580 1.334 . S
C581 N582 1.336 . S
N582 Zn578 2.020 . S
N582 C581 1.336 . S
N582 N583 1.354 . S
N583 C579 1.336 . S
N583 N582 1.354 . S
N583 Zn587 2.020 . S
C584 O585 1.244 . S
C584 O608 1.257 . S
O585 C584 1.244 . S
O586 Zn578 2.019 . S
O586 C606 1.257 . S
Zn587 N583 2.020 . S
Zn587 O594 1.975 . S
Zn587 N603 2.119 . S
Zn587 O608 2.019 . S
N588 Zn578 2.119 . S
N588 C590 1.334 . S
N588 C591 1.328 . S
C589 C590 1.391 . S
C589 N592 1.329 . S
C589 H610 0.930 . S
C590 N588 1.334 . S
C590 C589 1.391 . S
C590 H597 0.930 . S
C591 N588 1.328 . S
C591 C593 1.392 . S
C591 H598 0.930 . S
N592 C589 1.329 . S
N592 C593 1.331 . S
C593 C591 1.392 . S
C593 N592 1.331 . S
O594 Zn587 1.975 . S
O594 C595 1.252 . S
C595 O594 1.252 . S
C595 O596 1.252 . S
O596 Zn578 1.975 . S
O596 C595 1.252 . S
H597 C590 0.930 . S
H598 C591 0.930 . S
C599 C600 1.392 . S
C599 N603 1.328 . S
C599 H605 0.930 . S
C600 C599 1.392 . S
C600 N604 1.331 . S
C601 C602 1.391 . S
C601 N604 1.329 . S
C601 H611 0.930 . S
C602 C601 1.391 . S
C602 N603 1.334 . S
C602 H609 0.930 . S
N603 Zn587 2.119 . S
N603 C599 1.328 . S
N603 C602 1.334 . S
N604 C600 1.331 . S
N604 C601 1.329 . S
H605 C599 0.930 . S
C606 O586 1.257 . S
C606 O607 1.244 . S
O607 C606 1.244 . S
O608 C584 1.257 . S
O608 Zn587 2.019 . S
H609 C602 0.930 . S
H610 C589 0.930 . S
H611 C601 0.930 . S
Zn612 N616 2.020 . S
Zn612 O620 2.019 . S
Zn612 N622 2.119 . S
Zn612 O630 1.975 . S
C613 N614 1.334 . S
C613 N617 1.336 . S
N614 C613 1.334 . S
N614 C615 1.334 . S
C615 N614 1.334 . S
C615 N616 1.336 . S
N616 Zn612 2.020 . S
N616 C615 1.336 . S
N616 N617 1.354 . S
N617 C613 1.336 . S
N617 N616 1.354 . S
N617 Zn621 2.020 . S
C618 O619 1.244 . S
C618 O642 1.257 . S
O619 C618 1.244 . S
O620 Zn612 2.019 . S
O620 C640 1.257 . S
Zn621 N617 2.020 . S
Zn621 O628 1.975 . S
Zn621 N637 2.119 . S
Zn621 O642 2.019 . S
N622 Zn612 2.119 . S
N622 C624 1.334 . S
N622 C625 1.328 . S
C623 C624 1.391 . S
C623 N626 1.329 . S
C623 H644 0.930 . S
C624 N622 1.334 . S
C624 C623 1.391 . S
C624 H631 0.930 . S
C625 N622 1.328 . S
C625 C627 1.392 . S
C625 H632 0.930 . S
N626 C623 1.329 . S
N626 C627 1.331 . S
C627 C625 1.392 . S
C627 N626 1.331 . S
O628 Zn621 1.975 . S
O628 C629 1.252 . S
C629 O628 1.252 . S
C629 O630 1.252 . S
O630 Zn612 1.975 . S
O630 C629 1.252 . S
H631 C624 0.930 . S
H632 C625 0.930 . S
C633 C634 1.392 . S
C633 N637 1.328 . S
C633 H639 0.930 . S
C634 C633 1.392 . S
C634 N638 1.331 . S
C635 C636 1.391 . S
C635 N638 1.329 . S
C635 H645 0.930 . S
C636 C635 1.391 . S
C636 N637 1.334 . S
C636 H643 0.930 . S
N637 Zn621 2.119 . S
N637 C633 1.328 . S
N637 C636 1.334 . S
N638 C634 1.331 . S
N638 C635 1.329 . S
H639 C633 0.930 . S
C640 O620 1.257 . S
C640 O641 1.244 . S
O641 C640 1.244 . S
O642 C618 1.257 . S
O642 Zn621 2.019 . S
H643 C636 0.930 . S
H644 C623 0.930 . S
H645 C635 0.930 . S
Zn646 N650 2.020 . S
Zn646 O654 2.019 . S
Zn646 N656 2.119 . S
Zn646 O664 1.975 . S
C647 N648 1.334 . S
C647 N651 1.336 . S
N648 C647 1.334 . S
N648 C649 1.334 . S
C649 N648 1.334 . S
C649 N650 1.336 . S
N650 Zn646 2.020 . S
N650 C649 1.336 . S
N650 N651 1.354 . S
N651 C647 1.336 . S
N651 N650 1.354 . S
N651 Zn655 2.020 . S
C652 O653 1.244 . S
C652 O676 1.257 . S
O653 C652 1.244 . S
O654 Zn646 2.019 . S
O654 C674 1.257 . S
Zn655 N651 2.020 . S
Zn655 O662 1.975 . S
Zn655 N671 2.119 . S
Zn655 O676 2.019 . S
N656 Zn646 2.119 . S
N656 C658 1.334 . S
N656 C659 1.328 . S
C657 C658 1.391 . S
C657 N660 1.329 . S
C657 H678 0.930 . S
C658 N656 1.334 . S
C658 C657 1.391 . S
C658 H665 0.930 . S
C659 N656 1.328 . S
C659 C661 1.392 . S
C659 H666 0.930 . S
N660 C657 1.329 . S
N660 C661 1.331 . S
C661 C659 1.392 . S
C661 N660 1.331 . S
O662 Zn655 1.975 . S
O662 C663 1.252 . S
C663 O662 1.252 . S
C663 O664 1.252 . S
O664 Zn646 1.975 . S
O664 C663 1.252 . S
H665 C658 0.930 . S
H666 C659 0.930 . S
C667 C668 1.392 . S
C667 N671 1.328 . S
C667 H673 0.930 . S
C668 C667 1.392 . S
C668 N672 1.331 . S
C669 C670 1.391 . S
C669 N672 1.329 . S
C669 H679 0.930 . S
C670 C669 1.391 . S
C670 N671 1.334 . S
C670 H677 0.930 . S
N671 Zn655 2.119 . S
N671 C667 1.328 . S
N671 C670 1.334 . S
N672 C668 1.331 . S
N672 C669 1.329 . S
H673 C667 0.930 . S
C674 O654 1.257 . S
C674 O675 1.244 . S
O675 C674 1.244 . S
O676 C652 1.257 . S
O676 Zn655 2.019 . S
H677 C670 0.930 . S
H678 C657 0.930 . S
H679 C669 0.930 . S
Zn680 N684 2.020 . S
Zn680 O688 2.019 . S
Zn680 N690 2.119 . S
Zn680 O698 1.975 . S
C681 N682 1.334 . S
C681 N685 1.336 . S
N682 C681 1.334 . S
N682 C683 1.334 . S
C683 N682 1.334 . S
C683 N684 1.336 . S
N684 Zn680 2.020 . S
N684 C683 1.336 . S
N684 N685 1.354 . S
N685 C681 1.336 . S
N685 N684 1.354 . S
N685 Zn689 2.020 . S
C686 O687 1.244 . S
C686 O710 1.257 . S
O687 C686 1.244 . S
O688 Zn680 2.019 . S
O688 C708 1.257 . S
Zn689 N685 2.020 . S
Zn689 O696 1.975 . S
Zn689 N705 2.119 . S
Zn689 O710 2.019 . S
N690 Zn680 2.119 . S
N690 C692 1.334 . S
N690 C693 1.328 . S
C691 C692 1.391 . S
C691 N694 1.329 . S
C691 H712 0.930 . S
C692 N690 1.334 . S
C692 C691 1.391 . S
C692 H699 0.930 . S
C693 N690 1.328 . S
C693 C695 1.392 . S
C693 H700 0.930 . S
N694 C691 1.329 . S
N694 C695 1.331 . S
C695 C693 1.392 . S
C695 N694 1.331 . S
O696 Zn689 1.975 . S
O696 C697 1.252 . S
C697 O696 1.252 . S
C697 O698 1.252 . S
O698 Zn680 1.975 . S
O698 C697 1.252 . S
H699 C692 0.930 . S
H700 C693 0.930 . S
C701 C702 1.392 . S
C701 N705 1.328 . S
C701 H707 0.930 . S
C702 C701 1.392 . S
C702 N706 1.331 . S
C703 C704 1.391 . S
C703 N706 1.329 . S
C703 H713 0.930 . S
C704 C703 1.391 . S
C704 N705 1.334 . S
C704 H711 0.930 . S
N705 Zn689 2.119 . S
N705 C701 1.328 . S
N705 C704 1.334 . S
N706 C702 1.331 . S
N706 C703 1.329 . S
H707 C701 0.930 . S
C708 O688 1.257 . S
C708 O709 1.244 . S
O709 C708 1.244 . S
O710 C686 1.257 . S
O710 Zn689 2.019 . S
H711 C704 0.930 . S
H712 C691 0.930 . S
H713 C703 0.930 . S
Zn714 N718 2.020 . S
Zn714 O722 2.019 . S
Zn714 N724 2.119 . S
Zn714 O732 1.975 . S
C715 N716 1.334 1_554 S
C715 N719 1.340 . S
N716 C715 1.334 1_556 S
N716 C717 1.334 . S
C717 N716 1.334 . S
C717 N718 1.336 . S
N718 Zn714 2.020 . S
N718 C717 1.336 . S
N718 N719 1.329 1_556 S
N719 C715 1.340 . S
N719 N718 1.329 1_554 S
N719 Zn723 2.042 . S
C720 O721 1.244 1_554 S
C720 O744 1.257 . S
O721 C720 1.244 1_556 S
O722 Zn714 2.019 . S
O722 C742 1.257 . S
Zn723 N719 2.042 . S
Zn723 O730 1.999 . S
Zn723 N739 2.119 . S
Zn723 O744 2.019 . S
N724 Zn714 2.119 . S
N724 C726 1.334 . S
N724 C727 1.328 . S
C725 C726 1.391 . S
C725 N728 1.329 . S
C725 H746 0.930 . S
C726 N724 1.334 . S
C726 C725 1.391 . S
C726 H733 0.930 . S
C727 N724 1.328 . S
C727 C729 1.392 . S
C727 H734 0.930 . S
N728 C725 1.329 . S
N728 C729 1.331 . S
C729 C727 1.392 . S
C729 N728 1.331 . S
O730 Zn723 1.999 . S
O730 C731 1.251 . S
C731 O730 1.251 . S
C731 O732 1.252 1_554 S
O732 Zn714 1.975 . S
O732 C731 1.252 1_556 S
H733 C726 0.930 . S
H734 C727 0.930 . S
C735 C736 1.392 . S
C735 N739 1.328 . S
C735 H741 0.930 . S
C736 C735 1.392 . S
C736 N740 1.331 . S
C737 C738 1.391 . S
C737 N740 1.329 . S
C737 H747 0.930 . S
C738 C737 1.391 . S
C738 N739 1.334 . S
C738 H745 0.930 . S
N739 Zn723 2.119 . S
N739 C735 1.328 . S
N739 C738 1.334 . S
N740 C736 1.331 . S
N740 C737 1.329 . S
H741 C735 0.930 . S
C742 O722 1.257 . S
C742 O743 1.244 1_556 S
O743 C742 1.244 1_554 S
O744 C720 1.257 . S
O744 Zn723 2.019 . S
H745 C738 0.930 . S
H746 C725 0.930 . S
H747 C737 0.930 . S
Zn748 N752 2.020 . S
Zn748 O756 2.019 . S
Zn748 N758 2.119 . S
Zn748 O766 1.975 . S
C749 N750 1.334 1_554 S
C749 N753 1.340 . S
N750 C749 1.334 1_556 S
N750 C751 1.334 . S
C751 N750 1.334 . S
C751 N752 1.336 . S
N752 Zn748 2.020 . S
N752 C751 1.336 . S
N752 N753 1.329 1_556 S
N753 C749 1.340 . S
N753 N752 1.329 1_554 S
N753 Zn757 2.042 . S
C754 O755 1.244 1_554 S
C754 O778 1.257 . S
O755 C754 1.244 1_556 S
O756 Zn748 2.019 . S
O756 C776 1.257 . S
Zn757 N753 2.042 . S
Zn757 O764 1.999 . S
Zn757 N773 2.119 . S
Zn757 O778 2.019 . S
N758 Zn748 2.119 . S
N758 C760 1.334 . S
N758 C761 1.328 . S
C759 C760 1.391 . S
C759 N762 1.329 . S
C759 H780 0.930 . S
C760 N758 1.334 . S
C760 C759 1.391 . S
C760 H767 0.930 . S
C761 N758 1.328 . S
C761 C763 1.392 . S
C761 H768 0.930 . S
N762 C759 1.329 . S
N762 C763 1.331 . S
C763 C761 1.392 . S
C763 N762 1.331 . S
O764 Zn757 1.999 . S
O764 C765 1.251 . S
C765 O764 1.251 . S
C765 O766 1.252 1_554 S
O766 Zn748 1.975 . S
O766 C765 1.252 1_556 S
H767 C760 0.930 . S
H768 C761 0.930 . S
C769 C770 1.392 . S
C769 N773 1.328 . S
C769 H775 0.930 . S
C770 C769 1.392 . S
C770 N774 1.331 . S
C771 C772 1.391 . S
C771 N774 1.329 . S
C771 H781 0.930 . S
C772 C771 1.391 . S
C772 N773 1.334 . S
C772 H779 0.930 . S
N773 Zn757 2.119 . S
N773 C769 1.328 . S
N773 C772 1.334 . S
N774 C770 1.331 . S
N774 C771 1.329 . S
H775 C769 0.930 . S
C776 O756 1.257 . S
C776 O777 1.244 1_556 S
O777 C776 1.244 1_554 S
O778 C754 1.257 . S
O778 Zn757 2.019 . S
H779 C772 0.930 . S
H780 C759 0.930 . S
H781 C771 0.930 . S
Zn782 N786 2.020 . S
Zn782 O790 2.019 . S
Zn782 N792 2.119 . S
Zn782 O800 1.975 . S
C783 N784 1.334 1_554 S
C783 N787 1.340 . S
N784 C783 1.334 1_556 S
N784 C785 1.334 . S
C785 N784 1.334 . S
C785 N786 1.336 . S
N786 Zn782 2.020 . S
N786 C785 1.336 . S
N786 N787 1.329 1_556 S
N787 C783 1.340 . S
N787 N786 1.329 1_554 S
N787 Zn791 2.042 . S
C788 O789 1.244 1_554 S
C788 O812 1.257 . S
O789 C788 1.244 1_556 S
O790 Zn782 2.019 . S
O790 C810 1.257 . S
Zn791 N787 2.042 . S
Zn791 O798 1.998 . S
Zn791 N807 2.119 . S
Zn791 O812 2.019 . S
N792 Zn782 2.119 . S
N792 C794 1.334 . S
N792 C795 1.328 . S
C793 C794 1.391 . S
C793 N796 1.329 . S
C793 H814 0.930 . S
C794 N792 1.334 . S
C794 C793 1.391 . S
C794 H801 0.930 . S
C795 N792 1.328 . S
C795 C797 1.392 . S
C795 H802 0.930 . S
N796 C793 1.329 . S
N796 C797 1.331 . S
C797 C795 1.392 . S
C797 N796 1.331 . S
O798 Zn791 1.998 . S
O798 C799 1.251 . S
C799 O798 1.251 . S
C799 O800 1.252 1_554 S
O800 Zn782 1.975 . S
O800 C799 1.252 1_556 S
H801 C794 0.930 . S
H802 C795 0.930 . S
C803 C804 1.392 . S
C803 N807 1.328 . S
C803 H809 0.930 . S
C804 C803 1.392 . S
C804 N808 1.331 . S
C805 C806 1.391 . S
C805 N808 1.329 . S
C805 H815 0.930 . S
C806 C805 1.391 . S
C806 N807 1.334 . S
C806 H813 0.930 . S
N807 Zn791 2.119 . S
N807 C803 1.328 . S
N807 C806 1.334 . S
N808 C804 1.331 . S
N808 C805 1.329 . S
H809 C803 0.930 . S
C810 O790 1.257 . S
C810 O811 1.244 1_556 S
O811 C810 1.244 1_554 S
O812 C788 1.257 . S
O812 Zn791 2.019 . S
H813 C806 0.930 . S
H814 C793 0.930 . S
H815 C805 0.930 . S
Zn816 N820 2.020 . S
Zn816 O824 2.019 . S
Zn816 N826 2.119 . S
Zn816 O834 1.975 . S
C817 N818 1.334 . S
C817 N821 1.336 . S
N818 C817 1.334 . S
N818 C819 1.334 . S
C819 N818 1.334 . S
C819 N820 1.336 . S
N820 Zn816 2.020 . S
N820 C819 1.336 . S
N820 N821 1.354 . S
N821 C817 1.336 . S
N821 N820 1.354 . S
N821 Zn825 2.020 . S
C822 O823 1.244 . S
C822 O846 1.257 . S
O823 C822 1.244 . S
O824 Zn816 2.019 . S
O824 C844 1.257 . S
Zn825 N821 2.020 . S
Zn825 O832 1.975 . S
Zn825 N841 2.119 . S
Zn825 O846 2.019 . S
N826 Zn816 2.119 . S
N826 C828 1.334 . S
N826 C829 1.328 . S
C827 C828 1.391 . S
C827 N830 1.329 . S
C827 H848 0.930 . S
C828 N826 1.334 . S
C828 C827 1.391 . S
C828 H835 0.930 . S
C829 N826 1.328 . S
C829 C831 1.392 . S
C829 H836 0.930 . S
N830 C827 1.329 . S
N830 C831 1.331 . S
C831 C829 1.392 . S
C831 N830 1.331 . S
O832 Zn825 1.975 . S
O832 C833 1.252 . S
C833 O832 1.252 . S
C833 O834 1.252 . S
O834 Zn816 1.975 . S
O834 C833 1.252 . S
H835 C828 0.930 . S
H836 C829 0.930 . S
C837 C838 1.392 . S
C837 N841 1.328 . S
C837 H843 0.930 . S
C838 C837 1.392 . S
C838 N842 1.331 . S
C839 C840 1.391 . S
C839 N842 1.329 . S
C839 H849 0.930 . S
C840 C839 1.391 . S
C840 N841 1.334 . S
C840 H847 0.930 . S
N841 Zn825 2.119 . S
N841 C837 1.328 . S
N841 C840 1.334 . S
N842 C838 1.331 . S
N842 C839 1.329 . S
H843 C837 0.930 . S
C844 O824 1.257 . S
C844 O845 1.244 . S
O845 C844 1.244 . S
O846 C822 1.257 . S
O846 Zn825 2.019 . S
H847 C840 0.930 . S
H848 C827 0.930 . S
H849 C839 0.930 . S
Zn850 N854 2.020 . S
Zn850 O858 2.019 . S
Zn850 N860 2.119 . S
Zn850 O868 1.975 . S
C851 N852 1.334 . S
C851 N855 1.336 . S
N852 C851 1.334 . S
N852 C853 1.334 . S
C853 N852 1.334 . S
C853 N854 1.336 . S
N854 Zn850 2.020 . S
N854 C853 1.336 . S
N854 N855 1.354 . S
N855 C851 1.336 . S
N855 N854 1.354 . S
N855 Zn859 2.020 . S
C856 O857 1.244 . S
C856 O880 1.257 . S
O857 C856 1.244 . S
O858 Zn850 2.019 . S
O858 C878 1.257 . S
Zn859 N855 2.020 . S
Zn859 O866 1.975 . S
Zn859 N875 2.119 . S
Zn859 O880 2.019 . S
N860 Zn850 2.119 . S
N860 C862 1.334 . S
N860 C863 1.328 . S
C861 C862 1.391 . S
C861 N864 1.329 . S
C861 H882 0.930 . S
C862 N860 1.334 . S
C862 C861 1.391 . S
C862 H869 0.930 . S
C863 N860 1.328 . S
C863 C865 1.392 . S
C863 H870 0.930 . S
N864 C861 1.329 . S
N864 C865 1.331 . S
C865 C863 1.392 . S
C865 N864 1.331 . S
O866 Zn859 1.975 . S
O866 C867 1.252 . S
C867 O866 1.252 . S
C867 O868 1.252 . S
O868 Zn850 1.975 . S
O868 C867 1.252 . S
H869 C862 0.930 . S
H870 C863 0.930 . S
C871 C872 1.392 . S
C871 N875 1.328 . S
C871 H877 0.930 . S
C872 C871 1.392 . S
C872 N876 1.331 . S
C873 C874 1.391 . S
C873 N876 1.329 . S
C873 H883 0.930 . S
C874 C873 1.391 . S
C874 N875 1.334 . S
C874 H881 0.930 . S
N875 Zn859 2.119 . S
N875 C871 1.328 . S
N875 C874 1.334 . S
N876 C872 1.331 . S
N876 C873 1.329 . S
H877 C871 0.930 . S
C878 O858 1.257 . S
C878 O879 1.244 . S
O879 C878 1.244 . S
O880 C856 1.257 . S
O880 Zn859 2.019 . S
H881 C874 0.930 . S
H882 C861 0.930 . S
H883 C873 0.930 . S
Zn884 N888 2.020 . S
Zn884 O892 2.019 . S
Zn884 N894 2.119 . S
Zn884 O902 1.975 . S
C885 N886 1.334 . S
C885 N889 1.336 . S
N886 C885 1.334 . S
N886 C887 1.334 . S
C887 N886 1.334 . S
C887 N888 1.336 . S
N888 Zn884 2.020 . S
N888 C887 1.336 . S
N888 N889 1.354 . S
N889 C885 1.336 . S
N889 N888 1.354 . S
N889 Zn893 2.020 . S
C890 O891 1.244 . S
C890 O914 1.257 . S
O891 C890 1.244 . S
O892 Zn884 2.019 . S
O892 C912 1.257 . S
Zn893 N889 2.020 . S
Zn893 O900 1.975 . S
Zn893 N909 2.119 . S
Zn893 O914 2.019 . S
N894 Zn884 2.119 . S
N894 C896 1.334 . S
N894 C897 1.328 . S
C895 C896 1.391 . S
C895 N898 1.329 . S
C895 H916 0.930 . S
C896 N894 1.334 . S
C896 C895 1.391 . S
C896 H903 0.930 . S
C897 N894 1.328 . S
C897 C899 1.392 . S
C897 H904 0.930 . S
N898 C895 1.329 . S
N898 C899 1.331 . S
C899 C897 1.392 . S
C899 N898 1.331 . S
O900 Zn893 1.975 . S
O900 C901 1.252 . S
C901 O900 1.252 . S
C901 O902 1.252 . S
O902 Zn884 1.975 . S
O902 C901 1.252 . S
H903 C896 0.930 . S
H904 C897 0.930 . S
C905 C906 1.392 . S
C905 N909 1.328 . S
C905 H911 0.930 . S
C906 C905 1.392 . S
C906 N910 1.331 . S
C907 C908 1.391 . S
C907 N910 1.329 . S
C907 H917 0.930 . S
C908 C907 1.391 . S
C908 N909 1.334 . S
C908 H915 0.930 . S
N909 Zn893 2.119 . S
N909 C905 1.328 . S
N909 C908 1.334 . S
N910 C906 1.331 . S
N910 C907 1.329 . S
H911 C905 0.930 . S
C912 O892 1.257 . S
C912 O913 1.244 . S
O913 C912 1.244 . S
O914 C890 1.257 . S
O914 Zn893 2.019 . S
H915 C908 0.930 . S
H916 C895 0.930 . S
H917 C907 0.930 . S
Zn918 N922 2.042 . S
Zn918 O926 2.019 . S
Zn918 N928 2.119 . S
Zn918 O936 1.999 . S
C919 N920 1.334 . S
C919 N923 1.336 . S
N920 C919 1.334 . S
N920 C921 1.334 1_554 S
C921 N920 1.334 1_556 S
C921 N922 1.340 . S
N922 Zn918 2.042 . S
N922 C921 1.340 . S
N922 N923 1.329 1_556 S
N923 C919 1.336 . S
N923 N922 1.329 1_554 S
N923 Zn927 2.020 . S
C924 O925 1.244 1_554 S
C924 O948 1.257 . S
O925 C924 1.244 1_556 S
O926 Zn918 2.019 . S
O926 C946 1.257 . S
Zn927 N923 2.020 . S
Zn927 O934 1.975 . S
Zn927 N943 2.119 . S
Zn927 O948 2.019 . S
N928 Zn918 2.119 . S
N928 C930 1.334 . S
N928 C931 1.328 . S
C929 C930 1.391 . S
C929 N932 1.329 . S
C929 H950 0.930 . S
C930 N928 1.334 . S
C930 C929 1.391 . S
C930 H937 0.930 . S
C931 N928 1.328 . S
C931 C933 1.392 . S
C931 H938 0.930 . S
N932 C929 1.329 . S
N932 C933 1.331 . S
C933 C931 1.392 . S
C933 N932 1.331 . S
O934 Zn927 1.975 . S
O934 C935 1.252 1_554 S
C935 O934 1.252 1_556 S
C935 O936 1.251 . S
O936 Zn918 1.999 . S
O936 C935 1.251 . S
H937 C930 0.930 . S
H938 C931 0.930 . S
C939 C940 1.392 . S
C939 N943 1.328 . S
C939 H945 0.930 . S
C940 C939 1.392 . S
C940 N944 1.331 . S
C941 C942 1.391 . S
C941 N944 1.329 . S
C941 H951 0.930 . S
C942 C941 1.391 . S
C942 N943 1.334 . S
C942 H949 0.930 . S
N943 Zn927 2.119 . S
N943 C939 1.328 . S
N943 C942 1.334 . S
N944 C940 1.331 . S
N944 C941 1.329 . S
H945 C939 0.930 . S
C946 O926 1.257 . S
C946 O947 1.244 1_556 S
O947 C946 1.244 1_554 S
O948 C924 1.257 . S
O948 Zn927 2.019 . S
H949 C942 0.930 . S
H950 C929 0.930 . S
H951 C941 0.930 . S
Zn952 N956 2.020 . S
Zn952 O960 2.019 . S
Zn952 N962 2.119 . S
Zn952 O970 1.975 . S
C953 N954 1.334 1_556 S
C953 N957 1.340 . S
N954 C953 1.334 1_554 S
N954 C955 1.334 . S
C955 N954 1.334 . S
C955 N956 1.336 . S
N956 Zn952 2.020 . S
N956 C955 1.336 . S
N956 N957 1.329 1_554 S
N957 C953 1.340 . S
N957 N956 1.329 1_556 S
N957 Zn961 2.042 . S
C958 O959 1.244 1_556 S
C958 O982 1.257 . S
O959 C958 1.244 1_554 S
O960 Zn952 2.019 . S
O960 C980 1.257 . S
Zn961 N957 2.042 . S
Zn961 O968 1.999 . S
Zn961 N977 2.119 . S
Zn961 O982 2.019 . S
N962 Zn952 2.119 . S
N962 C964 1.334 . S
N962 C965 1.328 . S
C963 C964 1.391 . S
C963 N966 1.329 . S
C963 H984 0.930 . S
C964 N962 1.334 . S
C964 C963 1.391 . S
C964 H971 0.930 . S
C965 N962 1.328 . S
C965 C967 1.392 . S
C965 H972 0.930 . S
N966 C963 1.329 . S
N966 C967 1.331 . S
C967 C965 1.392 . S
C967 N966 1.331 . S
O968 Zn961 1.999 . S
O968 C969 1.251 . S
C969 O968 1.251 . S
C969 O970 1.252 1_556 S
O970 Zn952 1.975 . S
O970 C969 1.252 1_554 S
H971 C964 0.930 . S
H972 C965 0.930 . S
C973 C974 1.392 . S
C973 N977 1.328 . S
C973 H979 0.930 . S
C974 C973 1.392 . S
C974 N978 1.331 . S
C975 C976 1.391 . S
C975 N978 1.329 . S
C975 H985 0.930 . S
C976 C975 1.391 . S
C976 N977 1.334 . S
C976 H983 0.930 . S
N977 Zn961 2.119 . S
N977 C973 1.328 . S
N977 C976 1.334 . S
N978 C974 1.331 . S
N978 C975 1.329 . S
H979 C973 0.930 . S
C980 O960 1.257 . S
C980 O981 1.244 1_554 S
O981 C980 1.244 1_556 S
O982 C958 1.257 . S
O982 Zn961 2.019 . S
H983 C976 0.930 . S
H984 C963 0.930 . S
H985 C975 0.930 . S
Zn986 N990 2.042 . S
Zn986 O994 2.019 . S
Zn986 N996 2.119 . S
Zn986 O1004 1.998 . S
C987 N988 1.334 . S
C987 N991 1.336 . S
N988 C987 1.334 . S
N988 C989 1.334 1_554 S
C989 N988 1.334 1_556 S
C989 N990 1.340 . S
N990 Zn986 2.042 . S
N990 C989 1.340 . S
N990 N991 1.329 1_556 S
N991 C987 1.336 . S
N991 N990 1.329 1_554 S
N991 Zn995 2.020 . S
C992 O993 1.244 1_554 S
C992 O1016 1.257 . S
O993 C992 1.244 1_556 S
O994 Zn986 2.019 . S
O994 C1014 1.257 . S
Zn995 N991 2.020 . S
Zn995 O1002 1.975 . S
Zn995 N1011 2.119 . S
Zn995 O1016 2.019 . S
N996 Zn986 2.119 . S
N996 C998 1.334 . S
N996 C999 1.328 . S
C997 C998 1.391 . S
C997 N1000 1.329 . S
C997 H1018 0.930 . S
C998 N996 1.334 . S
C998 C997 1.391 . S
C998 H1005 0.930 . S
C999 N996 1.328 . S
C999 C1001 1.392 . S
C999 H1006 0.930 . S
N1000 C997 1.329 . S
N1000 C1001 1.331 . S
C1001 C999 1.392 . S
C1001 N1000 1.331 . S
O1002 Zn995 1.975 . S
O1002 C1003 1.252 1_554 S
C1003 O1002 1.252 1_556 S
C1003 O1004 1.251 . S
O1004 Zn986 1.998 . S
O1004 C1003 1.251 . S
H1005 C998 0.930 . S
H1006 C999 0.930 . S
C1007 C1008 1.392 . S
C1007 N1011 1.328 . S
C1007 H1013 0.930 . S
C1008 C1007 1.392 . S
C1008 N1012 1.331 . S
C1009 C1010 1.391 . S
C1009 N1012 1.329 . S
C1009 H1019 0.930 . S
C1010 C1009 1.391 . S
C1010 N1011 1.334 . S
C1010 H1017 0.930 . S
N1011 Zn995 2.119 . S
N1011 C1007 1.328 . S
N1011 C1010 1.334 . S
N1012 C1008 1.331 . S
N1012 C1009 1.329 . S
H1013 C1007 0.930 . S
C1014 O994 1.257 . S
C1014 O1015 1.244 1_556 S
O1015 C1014 1.244 1_554 S
O1016 C992 1.257 . S
O1016 Zn995 2.019 . S
H1017 C1010 0.930 . S
H1018 C997 0.930 . S
H1019 C1009 0.930 . S
Zn1020 N1024 2.020 . S
Zn1020 O1028 2.019 . S
Zn1020 N1030 2.119 . S
Zn1020 O1038 1.975 . S
C1021 N1022 1.334 . S
C1021 N1025 1.336 . S
N1022 C1021 1.334 . S
N1022 C1023 1.334 . S
C1023 N1022 1.334 . S
C1023 N1024 1.336 . S
N1024 Zn1020 2.020 . S
N1024 C1023 1.336 . S
N1024 N1025 1.354 . S
N1025 C1021 1.336 . S
N1025 N1024 1.354 . S
N1025 Zn1029 2.020 . S
C1026 O1027 1.244 . S
C1026 O1050 1.257 . S
O1027 C1026 1.244 . S
O1028 Zn1020 2.019 . S
O1028 C1048 1.257 . S
Zn1029 N1025 2.020 . S
Zn1029 O1036 1.975 . S
Zn1029 N1045 2.119 . S
Zn1029 O1050 2.019 . S
N1030 Zn1020 2.119 . S
N1030 C1032 1.334 . S
N1030 C1033 1.328 . S
C1031 C1032 1.391 . S
C1031 N1034 1.329 . S
C1031 H1052 0.930 . S
C1032 N1030 1.334 . S
C1032 C1031 1.391 . S
C1032 H1039 0.930 . S
C1033 N1030 1.328 . S
C1033 C1035 1.392 . S
C1033 H1040 0.930 . S
N1034 C1031 1.329 . S
N1034 C1035 1.331 . S
C1035 C1033 1.392 . S
C1035 N1034 1.331 . S
O1036 Zn1029 1.975 . S
O1036 C1037 1.252 . S
C1037 O1036 1.252 . S
C1037 O1038 1.252 . S
O1038 Zn1020 1.975 . S
O1038 C1037 1.252 . S
H1039 C1032 0.930 . S
H1040 C1033 0.930 . S
C1041 C1042 1.392 . S
C1041 N1045 1.328 . S
C1041 H1047 0.930 . S
C1042 C1041 1.392 . S
C1042 N1046 1.331 . S
C1043 C1044 1.391 . S
C1043 N1046 1.329 . S
C1043 H1053 0.930 . S
C1044 C1043 1.391 . S
C1044 N1045 1.334 . S
C1044 H1051 0.930 . S
N1045 Zn1029 2.119 . S
N1045 C1041 1.328 . S
N1045 C1044 1.334 . S
N1046 C1042 1.331 . S
N1046 C1043 1.329 . S
H1047 C1041 0.930 . S
C1048 O1028 1.257 . S
C1048 O1049 1.244 . S
O1049 C1048 1.244 . S
O1050 C1026 1.257 . S
O1050 Zn1029 2.019 . S
H1051 C1044 0.930 . S
H1052 C1031 0.930 . S
H1053 C1043 0.930 . S
Zn1054 N1058 2.020 . S
Zn1054 O1062 2.019 . S
Zn1054 N1064 2.119 . S
Zn1054 O1072 1.975 . S
C1055 N1056 1.334 . S
C1055 N1059 1.336 . S
N1056 C1055 1.334 . S
N1056 C1057 1.334 . S
C1057 N1056 1.334 . S
C1057 N1058 1.336 . S
N1058 Zn1054 2.020 . S
N1058 C1057 1.336 . S
N1058 N1059 1.354 . S
N1059 C1055 1.336 . S
N1059 N1058 1.354 . S
N1059 Zn1063 2.020 . S
C1060 O1061 1.244 . S
C1060 O1084 1.257 . S
O1061 C1060 1.244 . S
O1062 Zn1054 2.019 . S
O1062 C1082 1.257 . S
Zn1063 N1059 2.020 . S
Zn1063 O1070 1.975 . S
Zn1063 N1079 2.119 . S
Zn1063 O1084 2.019 . S
N1064 Zn1054 2.119 . S
N1064 C1066 1.334 . S
N1064 C1067 1.328 . S
C1065 C1066 1.391 . S
C1065 N1068 1.329 . S
C1065 H1086 0.930 . S
C1066 N1064 1.334 . S
C1066 C1065 1.391 . S
C1066 H1073 0.930 . S
C1067 N1064 1.328 . S
C1067 C1069 1.392 . S
C1067 H1074 0.930 . S
N1068 C1065 1.329 . S
N1068 C1069 1.331 . S
C1069 C1067 1.392 . S
C1069 N1068 1.331 . S
O1070 Zn1063 1.975 . S
O1070 C1071 1.252 . S
C1071 O1070 1.252 . S
C1071 O1072 1.252 . S
O1072 Zn1054 1.975 . S
O1072 C1071 1.252 . S
H1073 C1066 0.930 . S
H1074 C1067 0.930 . S
C1075 C1076 1.392 . S
C1075 N1079 1.328 . S
C1075 H1081 0.930 . S
C1076 C1075 1.392 . S
C1076 N1080 1.331 . S
C1077 C1078 1.391 . S
C1077 N1080 1.329 . S
C1077 H1087 0.930 . S
C1078 C1077 1.391 . S
C1078 N1079 1.334 . S
C1078 H1085 0.930 . S
N1079 Zn1063 2.119 . S
N1079 C1075 1.328 . S
N1079 C1078 1.334 . S
N1080 C1076 1.331 . S
N1080 C1077 1.329 . S
H1081 C1075 0.930 . S
C1082 O1062 1.257 . S
C1082 O1083 1.244 . S
O1083 C1082 1.244 . S
O1084 C1060 1.257 . S
O1084 Zn1063 2.019 . S
H1085 C1078 0.930 . S
H1086 C1065 0.930 . S
H1087 C1077 0.930 . S
Zn1088 N1092 2.020 . S
Zn1088 O1096 2.019 . S
Zn1088 N1098 2.119 . S
Zn1088 O1106 1.975 . S
C1089 N1090 1.334 . S
C1089 N1093 1.336 . S
N1090 C1089 1.334 . S
N1090 C1091 1.334 . S
C1091 N1090 1.334 . S
C1091 N1092 1.336 . S
N1092 Zn1088 2.020 . S
N1092 C1091 1.336 . S
N1092 N1093 1.354 . S
N1093 C1089 1.336 . S
N1093 N1092 1.354 . S
N1093 Zn1097 2.020 . S
C1094 O1095 1.244 . S
C1094 O1118 1.257 . S
O1095 C1094 1.244 . S
O1096 Zn1088 2.019 . S
O1096 C1116 1.257 . S
Zn1097 N1093 2.020 . S
Zn1097 O1104 1.975 . S
Zn1097 N1113 2.119 . S
Zn1097 O1118 2.019 . S
N1098 Zn1088 2.119 . S
N1098 C1100 1.334 . S
N1098 C1101 1.328 . S
C1099 C1100 1.391 . S
C1099 N1102 1.329 . S
C1099 H1120 0.930 . S
C1100 N1098 1.334 . S
C1100 C1099 1.391 . S
C1100 H1107 0.930 . S
C1101 N1098 1.328 . S
C1101 C1103 1.392 . S
C1101 H1108 0.930 . S
N1102 C1099 1.329 . S
N1102 C1103 1.331 . S
C1103 C1101 1.392 . S
C1103 N1102 1.331 . S
O1104 Zn1097 1.975 . S
O1104 C1105 1.252 . S
C1105 O1104 1.252 . S
C1105 O1106 1.252 . S
O1106 Zn1088 1.975 . S
O1106 C1105 1.252 . S
H1107 C1100 0.930 . S
H1108 C1101 0.930 . S
C1109 C1110 1.392 . S
C1109 N1113 1.328 . S
C1109 H1115 0.930 . S
C1110 C1109 1.392 . S
C1110 N1114 1.331 . S
C1111 C1112 1.391 . S
C1111 N1114 1.329 . S
C1111 H1121 0.930 . S
C1112 C1111 1.391 . S
C1112 N1113 1.334 . S
C1112 H1119 0.930 . S
N1113 Zn1097 2.119 . S
N1113 C1109 1.328 . S
N1113 C1112 1.334 . S
N1114 C1110 1.331 . S
N1114 C1111 1.329 . S
H1115 C1109 0.930 . S
C1116 O1096 1.257 . S
C1116 O1117 1.244 . S
O1117 C1116 1.244 . S
O1118 C1094 1.257 . S
O1118 Zn1097 2.019 . S
H1119 C1112 0.930 . S
H1120 C1099 0.930 . S
H1121 C1111 0.930 . S
Zn1122 N1126 2.020 . S
Zn1122 O1130 2.019 . S
Zn1122 N1132 2.119 . S
Zn1122 O1140 1.975 . S
C1123 N1124 1.334 . S
C1123 N1127 1.336 . S
N1124 C1123 1.334 . S
N1124 C1125 1.334 . S
C1125 N1124 1.334 . S
C1125 N1126 1.336 . S
N1126 Zn1122 2.020 . S
N1126 C1125 1.336 . S
N1126 N1127 1.354 . S
N1127 C1123 1.336 . S
N1127 N1126 1.354 . S
N1127 Zn1131 2.020 . S
C1128 O1129 1.244 . S
C1128 O1152 1.257 . S
O1129 C1128 1.244 . S
O1130 Zn1122 2.019 . S
O1130 C1150 1.257 . S
Zn1131 N1127 2.020 . S
Zn1131 O1138 1.975 . S
Zn1131 N1147 2.119 . S
Zn1131 O1152 2.019 . S
N1132 Zn1122 2.119 . S
N1132 C1134 1.334 . S
N1132 C1135 1.328 . S
C1133 C1134 1.391 . S
C1133 N1136 1.329 . S
C1133 H1154 0.930 . S
C1134 N1132 1.334 . S
C1134 C1133 1.391 . S
C1134 H1141 0.930 . S
C1135 N1132 1.328 . S
C1135 C1137 1.392 . S
C1135 H1142 0.930 . S
N1136 C1133 1.329 . S
N1136 C1137 1.331 . S
C1137 C1135 1.392 . S
C1137 N1136 1.331 . S
O1138 Zn1131 1.975 . S
O1138 C1139 1.252 . S
C1139 O1138 1.252 . S
C1139 O1140 1.252 . S
O1140 Zn1122 1.975 . S
O1140 C1139 1.252 . S
H1141 C1134 0.930 . S
H1142 C1135 0.930 . S
C1143 C1144 1.392 . S
C1143 N1147 1.328 . S
C1143 H1149 0.930 . S
C1144 C1143 1.392 . S
C1144 N1148 1.331 . S
C1145 C1146 1.391 . S
C1145 N1148 1.329 . S
C1145 H1155 0.930 . S
C1146 C1145 1.391 . S
C1146 N1147 1.334 . S
C1146 H1153 0.930 . S
N1147 Zn1131 2.119 . S
N1147 C1143 1.328 . S
N1147 C1146 1.334 . S
N1148 C1144 1.331 . S
N1148 C1145 1.329 . S
H1149 C1143 0.930 . S
C1150 O1130 1.257 . S
C1150 O1151 1.244 . S
O1151 C1150 1.244 . S
O1152 C1128 1.257 . S
O1152 Zn1131 2.019 . S
H1153 C1146 0.930 . S
H1154 C1133 0.930 . S
H1155 C1145 0.930 . S
Zn1156 N1160 2.020 . S
Zn1156 O1164 2.019 . S
Zn1156 N1166 2.119 . S
Zn1156 O1174 1.975 . S
C1157 N1158 1.334 . S
C1157 N1161 1.336 . S
N1158 C1157 1.334 . S
N1158 C1159 1.334 . S
C1159 N1158 1.334 . S
C1159 N1160 1.336 . S
N1160 Zn1156 2.020 . S
N1160 C1159 1.336 . S
N1160 N1161 1.354 . S
N1161 C1157 1.336 . S
N1161 N1160 1.354 . S
N1161 Zn1165 2.020 . S
C1162 O1163 1.244 . S
C1162 O1186 1.257 . S
O1163 C1162 1.244 . S
O1164 Zn1156 2.019 . S
O1164 C1184 1.257 . S
Zn1165 N1161 2.020 . S
Zn1165 O1172 1.975 . S
Zn1165 N1181 2.119 . S
Zn1165 O1186 2.019 . S
N1166 Zn1156 2.119 . S
N1166 C1168 1.334 . S
N1166 C1169 1.328 . S
C1167 C1168 1.391 . S
C1167 N1170 1.329 . S
C1167 H1188 0.930 . S
C1168 N1166 1.334 . S
C1168 C1167 1.391 . S
C1168 H1175 0.930 . S
C1169 N1166 1.328 . S
C1169 C1171 1.392 . S
C1169 H1176 0.930 . S
N1170 C1167 1.329 . S
N1170 C1171 1.331 . S
C1171 C1169 1.392 . S
C1171 N1170 1.331 . S
O1172 Zn1165 1.975 . S
O1172 C1173 1.252 . S
C1173 O1172 1.252 . S
C1173 O1174 1.252 . S
O1174 Zn1156 1.975 . S
O1174 C1173 1.252 . S
H1175 C1168 0.930 . S
H1176 C1169 0.930 . S
C1177 C1178 1.392 . S
C1177 N1181 1.328 . S
C1177 H1183 0.930 . S
C1178 C1177 1.392 . S
C1178 N1182 1.331 . S
C1179 C1180 1.391 . S
C1179 N1182 1.329 . S
C1179 H1189 0.930 . S
C1180 C1179 1.391 . S
C1180 N1181 1.334 . S
C1180 H1187 0.930 . S
N1181 Zn1165 2.119 . S
N1181 C1177 1.328 . S
N1181 C1180 1.334 . S
N1182 C1178 1.331 . S
N1182 C1179 1.329 . S
H1183 C1177 0.930 . S
C1184 O1164 1.257 . S
C1184 O1185 1.244 . S
O1185 C1184 1.244 . S
O1186 C1162 1.257 . S
O1186 Zn1165 2.019 . S
H1187 C1180 0.930 . S
H1188 C1167 0.930 . S
H1189 C1179 0.930 . S
Zn1190 N1194 2.020 . S
Zn1190 O1198 2.019 . S
Zn1190 N1200 2.119 . S
Zn1190 O1208 1.975 . S
C1191 N1192 1.334 . S
C1191 N1195 1.336 . S
N1192 C1191 1.334 . S
N1192 C1193 1.334 . S
C1193 N1192 1.334 . S
C1193 N1194 1.336 . S
N1194 Zn1190 2.020 . S
N1194 C1193 1.336 . S
N1194 N1195 1.354 . S
N1195 C1191 1.336 . S
N1195 N1194 1.354 . S
N1195 Zn1199 2.020 . S
C1196 O1197 1.244 . S
C1196 O1220 1.257 . S
O1197 C1196 1.244 . S
O1198 Zn1190 2.019 . S
O1198 C1218 1.257 . S
Zn1199 N1195 2.020 . S
Zn1199 O1206 1.975 . S
Zn1199 N1215 2.119 . S
Zn1199 O1220 2.019 . S
N1200 Zn1190 2.119 . S
N1200 C1202 1.334 . S
N1200 C1203 1.328 . S
C1201 C1202 1.391 . S
C1201 N1204 1.329 . S
C1201 H1222 0.930 . S
C1202 N1200 1.334 . S
C1202 C1201 1.391 . S
C1202 H1209 0.930 . S
C1203 N1200 1.328 . S
C1203 C1205 1.392 . S
C1203 H1210 0.930 . S
N1204 C1201 1.329 . S
N1204 C1205 1.331 . S
C1205 C1203 1.392 . S
C1205 N1204 1.331 . S
O1206 Zn1199 1.975 . S
O1206 C1207 1.252 . S
C1207 O1206 1.252 . S
C1207 O1208 1.252 . S
O1208 Zn1190 1.975 . S
O1208 C1207 1.252 . S
H1209 C1202 0.930 . S
H1210 C1203 0.930 . S
C1211 C1212 1.392 . S
C1211 N1215 1.328 . S
C1211 H1217 0.930 . S
C1212 C1211 1.392 . S
C1212 N1216 1.331 . S
C1213 C1214 1.391 . S
C1213 N1216 1.329 . S
C1213 H1223 0.930 . S
C1214 C1213 1.391 . S
C1214 N1215 1.334 . S
C1214 H1221 0.930 . S
N1215 Zn1199 2.119 . S
N1215 C1211 1.328 . S
N1215 C1214 1.334 . S
N1216 C1212 1.331 . S
N1216 C1213 1.329 . S
H1217 C1211 0.930 . S
C1218 O1198 1.257 . S
C1218 O1219 1.244 . S
O1219 C1218 1.244 . S
O1220 C1196 1.257 . S
O1220 Zn1199 2.019 . S
H1221 C1214 0.930 . S
H1222 C1201 0.930 . S
H1223 C1213 0.930 . S
C1224 C1225 1.387 . S
C1224 H1228 0.950 . S
C1224 C1233 1.390 . S
C1225 C1224 1.387 . S
C1225 C1227 1.387 . S
H1226 C1233 0.950 . S
C1227 C1225 1.387 . S
C1227 C1229 1.390 . S
C1227 H1231 0.950 . S
H1228 C1224 0.950 . S
C1229 C1227 1.390 . S
C1229 C1230 1.387 . S
C1229 H1232 0.950 . S
C1230 C1229 1.387 . S
C1230 C1233 1.387 . S
H1231 C1227 0.950 . S
H1232 C1229 0.950 . S
C1233 C1224 1.390 . S
C1233 H1226 0.950 . S
C1233 C1230 1.387 . S
C1234 C1235 1.387 . S
C1234 H1238 0.950 . S
C1234 C1243 1.390 . S
C1235 C1234 1.387 . S
C1235 C1237 1.387 . S
H1236 C1243 0.950 . S
C1237 C1235 1.387 . S
C1237 C1239 1.390 . S
C1237 H1241 0.950 . S
H1238 C1234 0.950 . S
C1239 C1237 1.390 . S
C1239 C1240 1.387 . S
C1239 H1242 0.950 . S
C1240 C1239 1.387 . S
C1240 C1243 1.387 . S
H1241 C1237 0.950 . S
H1242 C1239 0.950 . S
C1243 C1234 1.390 . S
C1243 H1236 0.950 . S
C1243 C1240 1.387 . S
C1244 C1245 1.387 . S
C1244 H1248 0.950 . S
C1244 C1253 1.390 . S
C1245 C1244 1.387 . S
C1245 C1247 1.387 . S
H1246 C1253 0.950 . S
C1247 C1245 1.387 . S
C1247 C1249 1.390 . S
C1247 H1251 0.950 . S
H1248 C1244 0.950 . S
C1249 C1247 1.390 . S
C1249 C1250 1.387 . S
C1249 H1252 0.950 . S
C1250 C1249 1.387 . S
C1250 C1253 1.387 . S
H1251 C1247 0.950 . S
H1252 C1249 0.950 . S
C1253 C1244 1.390 . S
C1253 H1246 0.950 . S
C1253 C1250 1.387 . S
C1254 C1255 1.387 . S
C1254 H1258 0.950 . S
C1254 C1263 1.390 . S
C1255 C1254 1.387 . S
C1255 C1257 1.387 . S
H1256 C1263 0.950 . S
C1257 C1255 1.387 . S
C1257 C1259 1.390 . S
C1257 H1261 0.950 . S
H1258 C1254 0.950 . S
C1259 C1257 1.390 . S
C1259 C1260 1.387 . S
C1259 H1262 0.950 . S
C1260 C1259 1.387 . S
C1260 C1263 1.387 . S
H1261 C1257 0.950 . S
H1262 C1259 0.950 . S
C1263 C1254 1.390 . S
C1263 H1256 0.950 . S
C1263 C1260 1.387 . S
C1264 C1265 1.387 . S
C1264 H1268 0.950 . S
C1264 C1273 1.390 . S
C1265 C1264 1.387 . S
C1265 C1267 1.387 . S
H1266 C1273 0.950 . S
C1267 C1265 1.387 . S
C1267 C1269 1.390 . S
C1267 H1271 0.950 . S
H1268 C1264 0.950 . S
C1269 C1267 1.390 . S
C1269 C1270 1.387 . S
C1269 H1272 0.950 . S
C1270 C1269 1.387 . S
C1270 C1273 1.387 . S
H1271 C1267 0.950 . S
H1272 C1269 0.950 . S
C1273 C1264 1.390 . S
C1273 H1266 0.950 . S
C1273 C1270 1.387 . S
C1274 C1275 1.387 . S
C1274 H1278 0.950 . S
C1274 C1283 1.390 . S
C1275 C1274 1.387 . S
C1275 C1277 1.387 . S
H1276 C1283 0.950 . S
C1277 C1275 1.387 . S
C1277 C1279 1.390 . S
C1277 H1281 0.950 . S
H1278 C1274 0.950 . S
C1279 C1277 1.390 . S
C1279 C1280 1.387 . S
C1279 H1282 0.950 . S
C1280 C1279 1.387 . S
C1280 C1283 1.387 . S
H1281 C1277 0.950 . S
H1282 C1279 0.950 . S
C1283 C1274 1.390 . S
C1283 H1276 0.950 . S
C1283 C1280 1.387 . S
C1284 C1285 1.387 . S
C1284 H1288 0.950 . S
C1284 C1293 1.390 . S
C1285 C1284 1.387 . S
C1285 C1287 1.387 . S
H1286 C1293 0.950 . S
C1287 C1285 1.387 . S
C1287 C1289 1.390 . S
C1287 H1291 0.950 . S
H1288 C1284 0.950 . S
C1289 C1287 1.390 . S
C1289 C1290 1.387 . S
C1289 H1292 0.950 . S
C1290 C1289 1.387 . S
C1290 C1293 1.387 . S
H1291 C1287 0.950 . S
H1292 C1289 0.950 . S
C1293 C1284 1.390 . S
C1293 H1286 0.950 . S
C1293 C1290 1.387 . S
C1294 C1295 1.387 . S
C1294 H1298 0.950 . S
C1294 C1303 1.390 . S
C1295 C1294 1.387 . S
C1295 C1297 1.387 . S
H1296 C1303 0.950 . S
C1297 C1295 1.387 . S
C1297 C1299 1.390 . S
C1297 H1301 0.950 . S
H1298 C1294 0.950 . S
C1299 C1297 1.390 . S
C1299 C1300 1.387 . S
C1299 H1302 0.950 . S
C1300 C1299 1.387 . S
C1300 C1303 1.387 . S
H1301 C1297 0.950 . S
H1302 C1299 0.950 . S
C1303 C1294 1.390 . S
C1303 H1296 0.950 . S
C1303 C1300 1.387 . S
C1304 C1305 1.387 . S
C1304 H1308 0.950 . S
C1304 C1313 1.390 . S
C1305 C1304 1.387 . S
C1305 C1307 1.387 . S
H1306 C1313 0.950 . S
C1307 C1305 1.387 . S
C1307 C1309 1.390 . S
C1307 H1311 0.950 . S
H1308 C1304 0.950 . S
C1309 C1307 1.390 . S
C1309 C1310 1.387 . S
C1309 H1312 0.950 . S
C1310 C1309 1.387 . S
C1310 C1313 1.387 . S
H1311 C1307 0.950 . S
H1312 C1309 0.950 . S
C1313 C1304 1.390 . S
C1313 H1306 0.950 . S
C1313 C1310 1.387 . S
C1314 C1315 1.387 . S
C1314 H1318 0.950 . S
C1314 C1323 1.390 . S
C1315 C1314 1.387 . S
C1315 C1317 1.387 . S
H1316 C1323 0.950 . S
C1317 C1315 1.387 . S
C1317 C1319 1.390 . S
C1317 H1321 0.950 . S
H1318 C1314 0.950 . S
C1319 C1317 1.390 . S
C1319 C1320 1.387 . S
C1319 H1322 0.950 . S
C1320 C1319 1.387 . S
C1320 C1323 1.387 . S
H1321 C1317 0.950 . S
H1322 C1319 0.950 . S
C1323 C1314 1.390 . S
C1323 H1316 0.950 . S
C1323 C1320 1.387 . S
C1324 C1325 1.387 . S
C1324 H1328 0.950 . S
C1324 C1333 1.390 . S
C1325 C1324 1.387 . S
C1325 C1327 1.387 . S
H1326 C1333 0.950 . S
C1327 C1325 1.387 . S
C1327 C1329 1.390 . S
C1327 H1331 0.950 . S
H1328 C1324 0.950 . S
C1329 C1327 1.390 . S
C1329 C1330 1.387 . S
C1329 H1332 0.950 . S
C1330 C1329 1.387 . S
C1330 C1333 1.387 . S
H1331 C1327 0.950 . S
H1332 C1329 0.950 . S
C1333 C1324 1.390 . S
C1333 H1326 0.950 . S
C1333 C1330 1.387 . S
C1334 C1335 1.387 . S
C1334 H1338 0.950 . S
C1334 C1343 1.390 . S
C1335 C1334 1.387 . S
C1335 C1337 1.387 . S
H1336 C1343 0.950 . S
C1337 C1335 1.387 . S
C1337 C1339 1.390 . S
C1337 H1341 0.950 . S
H1338 C1334 0.950 . S
C1339 C1337 1.390 . S
C1339 C1340 1.387 . S
C1339 H1342 0.950 . S
C1340 C1339 1.387 . S
C1340 C1343 1.387 . S
H1341 C1337 0.950 . S
H1342 C1339 0.950 . S
C1343 C1334 1.390 . S
C1343 H1336 0.950 . S
C1343 C1340 1.387 . S
C1344 C1345 1.387 . S
C1344 H1348 0.950 . S
C1344 C1353 1.390 . S
C1345 C1344 1.387 . S
C1345 C1347 1.387 . S
H1346 C1353 0.950 . S
C1347 C1345 1.387 . S
C1347 C1349 1.390 . S
C1347 H1351 0.950 . S
H1348 C1344 0.950 . S
C1349 C1347 1.390 . S
C1349 C1350 1.387 . S
C1349 H1352 0.950 . S
C1350 C1349 1.387 . S
C1350 C1353 1.387 . S
H1351 C1347 0.950 . S
H1352 C1349 0.950 . S
C1353 C1344 1.390 . S
C1353 H1346 0.950 . S
C1353 C1350 1.387 . S
C1354 C1355 1.387 . S
C1354 H1358 0.950 . S
C1354 C1363 1.390 1_545 S
C1355 C1354 1.387 . S
C1355 C1357 1.387 . S
H1356 C1363 0.950 . S
C1357 C1355 1.387 . S
C1357 C1359 1.390 1_545 S
C1357 H1361 0.950 . S
H1358 C1354 0.950 . S
C1359 C1357 1.390 1_565 S
C1359 C1360 1.387 . S
C1359 H1362 0.950 . S
C1360 C1359 1.387 . S
C1360 C1363 1.387 . S
H1361 C1357 0.950 . S
H1362 C1359 0.950 . S
C1363 C1354 1.390 1_565 S
C1363 H1356 0.950 . S
C1363 C1360 1.387 . S
C1364 C1365 1.387 . S
C1364 H1368 0.950 . S
C1364 C1373 1.390 1_455 S
C1365 C1364 1.387 . S
C1365 C1367 1.387 . S
H1366 C1373 0.950 . S
C1367 C1365 1.387 . S
C1367 C1369 1.390 1_455 S
C1367 H1371 0.950 . S
H1368 C1364 0.950 . S
C1369 C1367 1.390 1_655 S
C1369 C1370 1.387 . S
C1369 H1372 0.950 . S
C1370 C1369 1.387 . S
C1370 C1373 1.387 . S
H1371 C1367 0.950 . S
H1372 C1369 0.950 . S
C1373 C1364 1.390 1_655 S
C1373 H1366 0.950 . S
C1373 C1370 1.387 . S
C1374 C1375 1.387 . S
C1374 H1378 0.950 . S
C1374 C1383 1.390 . S
C1375 C1374 1.387 . S
C1375 C1377 1.387 1_556 S
H1376 C1383 0.950 . S
C1377 C1375 1.387 1_554 S
C1377 C1379 1.390 . S
C1377 H1381 0.950 . S
H1378 C1374 0.950 . S
C1379 C1377 1.390 . S
C1379 C1380 1.387 . S
C1379 H1382 0.950 . S
C1380 C1379 1.387 . S
C1380 C1383 1.387 1_554 S
H1381 C1377 0.950 . S
H1382 C1379 0.950 . S
C1383 C1374 1.390 . S
C1383 H1376 0.950 . S
C1383 C1380 1.387 1_556 S
C1384 C1385 1.387 . S
C1384 H1388 0.950 . S
C1384 C1393 1.390 1_565 S
C1385 C1384 1.387 . S
C1385 C1387 1.387 1_556 S
H1386 C1393 0.950 . S
C1387 C1385 1.387 1_554 S
C1387 C1389 1.390 1_565 S
C1387 H1391 0.950 . S
H1388 C1384 0.950 . S
C1389 C1387 1.390 1_545 S
C1389 C1390 1.387 . S
C1389 H1392 0.950 . S
C1390 C1389 1.387 . S
C1390 C1393 1.387 1_554 S
H1391 C1387 0.950 . S
H1392 C1389 0.950 . S
C1393 C1384 1.390 1_545 S
C1393 H1386 0.950 . S
C1393 C1390 1.387 1_556 S
C1394 C1395 1.387 1_554 S
C1394 H1398 0.950 . S
C1394 C1403 1.390 1_455 S
C1395 C1394 1.387 1_556 S
C1395 C1397 1.387 . S
H1396 C1403 0.950 . S
C1397 C1395 1.387 . S
C1397 C1399 1.390 1_455 S
C1397 H1401 0.950 . S
H1398 C1394 0.950 . S
C1399 C1397 1.390 1_655 S
C1399 C1400 1.387 1_556 S
C1399 H1402 0.950 . S
C1400 C1399 1.387 1_554 S
C1400 C1403 1.387 . S
H1401 C1397 0.950 . S
H1402 C1399 0.950 . S
C1403 C1394 1.390 1_655 S
C1403 H1396 0.950 . S
C1403 C1400 1.387 . S
C1404 C1405 1.387 1_455 S
C1404 H1408 0.950 . S
C1404 C1413 1.390 . S
C1405 C1404 1.387 1_655 S
C1405 C1407 1.387 . S
H1406 C1413 0.950 . S
C1407 C1405 1.387 . S
C1407 C1409 1.390 . S
C1407 H1411 0.950 . S
H1408 C1404 0.950 . S
C1409 C1407 1.390 . S
C1409 C1410 1.387 1_655 S
C1409 H1412 0.950 . S
C1410 C1409 1.387 1_455 S
C1410 C1413 1.387 . S
H1411 C1407 0.950 . S
H1412 C1409 0.950 . S
C1413 C1404 1.390 . S
C1413 H1406 0.950 . S
C1413 C1410 1.387 . S
C1414 C1415 1.387 . S
C1414 H1418 0.950 . S
C1414 C1423 1.390 . S
C1415 C1414 1.387 . S
C1415 C1417 1.387 . S
H1416 C1423 0.950 . S
C1417 C1415 1.387 . S
C1417 C1419 1.390 . S
C1417 H1421 0.950 . S
H1418 C1414 0.950 . S
C1419 C1417 1.390 . S
C1419 C1420 1.387 . S
C1419 H1422 0.950 . S
C1420 C1419 1.387 . S
C1420 C1423 1.387 . S
H1421 C1417 0.950 . S
H1422 C1419 0.950 . S
C1423 C1414 1.390 . S
C1423 H1416 0.950 . S
C1423 C1420 1.387 . S
C1424 C1425 1.387 . S
C1424 H1428 0.950 . S
C1424 C1433 1.390 . S
C1425 C1424 1.387 . S
C1425 C1427 1.387 1_565 S
H1426 C1433 0.950 . S
C1427 C1425 1.387 1_545 S
C1427 C1429 1.390 . S
C1427 H1431 0.950 . S
H1428 C1424 0.950 . S
C1429 C1427 1.390 . S
C1429 C1430 1.387 . S
C1429 H1432 0.950 . S
C1430 C1429 1.387 . S
C1430 C1433 1.387 1_545 S
H1431 C1427 0.950 . S
H1432 C1429 0.950 . S
C1433 C1424 1.390 . S
C1433 H1426 0.950 . S
C1433 C1430 1.387 1_565 S
C1434 C1435 1.387 1_655 S
C1434 H1438 0.950 . S
C1434 C1443 1.390 . S
C1435 C1434 1.387 1_455 S
C1435 C1437 1.387 . S
H1436 C1443 0.950 . S
C1437 C1435 1.387 . S
C1437 C1439 1.390 . S
C1437 H1441 0.950 . S
H1438 C1434 0.950 . S
C1439 C1437 1.390 . S
C1439 C1440 1.387 1_455 S
C1439 H1442 0.950 . S
C1440 C1439 1.387 1_655 S
C1440 C1443 1.387 . S
H1441 C1437 0.950 . S
H1442 C1439 0.950 . S
C1443 C1434 1.390 . S
C1443 H1436 0.950 . S
C1443 C1440 1.387 . S
C1444 C1445 1.387 . S
C1444 H1448 0.950 . S
C1444 C1453 1.390 . S
C1445 C1444 1.387 . S
C1445 C1447 1.387 . S
H1446 C1453 0.950 . S
C1447 C1445 1.387 . S
C1447 C1449 1.390 . S
C1447 H1451 0.950 . S
H1448 C1444 0.950 . S
C1449 C1447 1.390 . S
C1449 C1450 1.387 . S
C1449 H1452 0.950 . S
C1450 C1449 1.387 . S
C1450 C1453 1.387 . S
H1451 C1447 0.950 . S
H1452 C1449 0.950 . S
C1453 C1444 1.390 . S
C1453 H1446 0.950 . S
C1453 C1450 1.387 . S
C1454 C1455 1.387 . S
C1454 H1458 0.950 . S
C1454 C1463 1.390 1_565 S
C1455 C1454 1.387 . S
C1455 C1457 1.387 . S
H1456 C1463 0.950 . S
C1457 C1455 1.387 . S
C1457 C1459 1.390 1_565 S
C1457 H1461 0.950 . S
H1458 C1454 0.950 . S
C1459 C1457 1.390 1_545 S
C1459 C1460 1.387 . S
C1459 H1462 0.950 . S
C1460 C1459 1.387 . S
C1460 C1463 1.387 . S
H1461 C1457 0.950 . S
H1462 C1459 0.950 . S
C1463 C1454 1.390 1_545 S
C1463 H1456 0.950 . S
C1463 C1460 1.387 . S
C1464 C1465 1.387 . S
C1464 H1468 0.950 . S
C1464 C1473 1.390 . S
C1465 C1464 1.387 . S
C1465 C1467 1.387 . S
H1466 C1473 0.950 . S
C1467 C1465 1.387 . S
C1467 C1469 1.390 . S
C1467 H1471 0.950 . S
H1468 C1464 0.950 . S
C1469 C1467 1.390 . S
C1469 C1470 1.387 . S
C1469 H1472 0.950 . S
C1470 C1469 1.387 . S
C1470 C1473 1.387 . S
H1471 C1467 0.950 . S
H1472 C1469 0.950 . S
C1473 C1464 1.390 . S
C1473 H1466 0.950 . S
C1473 C1470 1.387 . S
C1474 C1475 1.387 . S
C1474 H1478 0.950 . S
C1474 C1483 1.390 . S
C1475 C1474 1.387 . S
C1475 C1477 1.387 . S
H1476 C1483 0.950 . S
C1477 C1475 1.387 . S
C1477 C1479 1.390 . S
C1477 H1481 0.950 . S
H1478 C1474 0.950 . S
C1479 C1477 1.390 . S
C1479 C1480 1.387 . S
C1479 H1482 0.950 . S
C1480 C1479 1.387 . S
C1480 C1483 1.387 . S
H1481 C1477 0.950 . S
H1482 C1479 0.950 . S
C1483 C1474 1.390 . S
C1483 H1476 0.950 . S
C1483 C1480 1.387 . S
C1484 C1485 1.387 . S
C1484 H1488 0.950 . S
C1484 C1493 1.390 . S
C1485 C1484 1.387 . S
C1485 C1487 1.387 . S
H1486 C1493 0.950 . S
C1487 C1485 1.387 . S
C1487 C1489 1.390 . S
C1487 H1491 0.950 . S
H1488 C1484 0.950 . S
C1489 C1487 1.390 . S
C1489 C1490 1.387 . S
C1489 H1492 0.950 . S
C1490 C1489 1.387 . S
C1490 C1493 1.387 . S
H1491 C1487 0.950 . S
H1492 C1489 0.950 . S
C1493 C1484 1.390 . S
C1493 H1486 0.950 . S
C1493 C1490 1.387 . S
C1494 C1495 1.387 . S
C1494 H1498 0.950 . S
C1494 C1503 1.390 . S
C1495 C1494 1.387 . S
C1495 C1497 1.387 . S
H1496 C1503 0.950 . S
C1497 C1495 1.387 . S
C1497 C1499 1.390 . S
C1497 H1501 0.950 . S
H1498 C1494 0.950 . S
C1499 C1497 1.390 . S
C1499 C1500 1.387 . S
C1499 H1502 0.950 . S
C1500 C1499 1.387 . S
C1500 C1503 1.387 . S
H1501 C1497 0.950 . S
H1502 C1499 0.950 . S
C1503 C1494 1.390 . S
C1503 H1496 0.950 . S
C1503 C1500 1.387 . S
C1504 C1505 1.387 . S
C1504 H1508 0.950 . S
C1504 C1513 1.390 . S
C1505 C1504 1.387 . S
C1505 C1507 1.387 . S
H1506 C1513 0.950 . S
C1507 C1505 1.387 . S
C1507 C1509 1.390 . S
C1507 H1511 0.950 . S
H1508 C1504 0.950 . S
C1509 C1507 1.390 . S
C1509 C1510 1.387 . S
C1509 H1512 0.950 . S
C1510 C1509 1.387 . S
C1510 C1513 1.387 . S
H1511 C1507 0.950 . S
H1512 C1509 0.950 . S
C1513 C1504 1.390 . S
C1513 H1506 0.950 . S
C1513 C1510 1.387 . S
C1514 C1515 1.387 . S
C1514 H1518 0.950 . S
C1514 C1523 1.390 . S
C1515 C1514 1.387 . S
C1515 C1517 1.387 . S
H1516 C1523 0.950 . S
C1517 C1515 1.387 . S
C1517 C1519 1.390 . S
C1517 H1521 0.950 . S
H1518 C1514 0.950 . S
C1519 C1517 1.390 . S
C1519 C1520 1.387 . S
C1519 H1522 0.950 . S
C1520 C1519 1.387 . S
C1520 C1523 1.387 . S
H1521 C1517 0.950 . S
H1522 C1519 0.950 . S
C1523 C1514 1.390 . S
C1523 H1516 0.950 . S
C1523 C1520 1.387 . S
C1524 C1525 1.387 . S
C1524 H1528 0.950 . S
C1524 C1533 1.390 . S
C1525 C1524 1.387 . S
C1525 C1527 1.387 . S
H1526 C1533 0.950 . S
C1527 C1525 1.387 . S
C1527 C1529 1.390 . S
C1527 H1531 0.950 . S
H1528 C1524 0.950 . S
C1529 C1527 1.390 . S
C1529 C1530 1.387 . S
C1529 H1532 0.950 . S
C1530 C1529 1.387 . S
C1530 C1533 1.387 . S
H1531 C1527 0.950 . S
H1532 C1529 0.950 . S
C1533 C1524 1.390 . S
C1533 H1526 0.950 . S
C1533 C1530 1.387 . S
C1534 C1535 1.387 . S
C1534 H1538 0.950 . S
C1534 C1543 1.390 . S
C1535 C1534 1.387 . S
C1535 C1537 1.387 . S
H1536 C1543 0.950 . S
C1537 C1535 1.387 . S
C1537 C1539 1.390 . S
C1537 H1541 0.950 . S
H1538 C1534 0.950 . S
C1539 C1537 1.390 . S
C1539 C1540 1.387 . S
C1539 H1542 0.950 . S
C1540 C1539 1.387 . S
C1540 C1543 1.387 . S
H1541 C1537 0.950 . S
H1542 C1539 0.950 . S
C1543 C1534 1.390 . S
C1543 H1536 0.950 . S
C1543 C1540 1.387 . S
C1544 C1545 1.387 . S
C1544 H1548 0.950 . S
C1544 C1553 1.390 . S
C1545 C1544 1.387 . S
C1545 C1547 1.387 . S
H1546 C1553 0.950 . S
C1547 C1545 1.387 . S
C1547 C1549 1.390 . S
C1547 H1551 0.950 . S
H1548 C1544 0.950 . S
C1549 C1547 1.390 . S
C1549 C1550 1.387 . S
C1549 H1552 0.950 . S
C1550 C1549 1.387 . S
C1550 C1553 1.387 . S
H1551 C1547 0.950 . S
H1552 C1549 0.950 . S
C1553 C1544 1.390 . S
C1553 H1546 0.950 . S
C1553 C1550 1.387 . S
C1554 C1555 1.387 . S
C1554 H1558 0.950 . S
C1554 C1563 1.390 . S
C1555 C1554 1.387 . S
C1555 C1557 1.387 . S
H1556 C1563 0.950 . S
C1557 C1555 1.387 . S
C1557 C1559 1.390 . S
C1557 H1561 0.950 . S
H1558 C1554 0.950 . S
C1559 C1557 1.390 . S
C1559 C1560 1.387 . S
C1559 H1562 0.950 . S
C1560 C1559 1.387 . S
C1560 C1563 1.387 . S
H1561 C1557 0.950 . S
H1562 C1559 0.950 . S
C1563 C1554 1.390 . S
C1563 H1556 0.950 . S
C1563 C1560 1.387 . S
C1564 C1565 1.387 . S
C1564 H1568 0.950 . S
C1564 C1573 1.390 . S
C1565 C1564 1.387 . S
C1565 C1567 1.387 . S
H1566 C1573 0.950 . S
C1567 C1565 1.387 . S
C1567 C1569 1.390 . S
C1567 H1571 0.950 . S
H1568 C1564 0.950 . S
C1569 C1567 1.390 . S
C1569 C1570 1.387 . S
C1569 H1572 0.950 . S
C1570 C1569 1.387 . S
C1570 C1573 1.387 . S
H1571 C1567 0.950 . S
H1572 C1569 0.950 . S
C1573 C1564 1.390 . S
C1573 H1566 0.950 . S
C1573 C1570 1.387 . S
C1574 C1575 1.387 . S
C1574 H1578 0.950 . S
C1574 C1583 1.390 . S
C1575 C1574 1.387 . S
C1575 C1577 1.387 . S
H1576 C1583 0.950 . S
C1577 C1575 1.387 . S
C1577 C1579 1.390 . S
C1577 H1581 0.950 . S
H1578 C1574 0.950 . S
C1579 C1577 1.390 . S
C1579 C1580 1.387 . S
C1579 H1582 0.950 . S
C1580 C1579 1.387 . S
C1580 C1583 1.387 . S
H1581 C1577 0.950 . S
H1582 C1579 0.950 . S
C1583 C1574 1.390 . S
C1583 H1576 0.950 . S
C1583 C1580 1.387 . S
C1584 C1585 1.387 . S
C1584 H1588 0.950 . S
C1584 C1593 1.390 . S
C1585 C1584 1.387 . S
C1585 C1587 1.387 . S
H1586 C1593 0.950 . S
C1587 C1585 1.387 . S
C1587 C1589 1.390 . S
C1587 H1591 0.950 . S
H1588 C1584 0.950 . S
C1589 C1587 1.390 . S
C1589 C1590 1.387 . S
C1589 H1592 0.950 . S
C1590 C1589 1.387 . S
C1590 C1593 1.387 . S
H1591 C1587 0.950 . S
H1592 C1589 0.950 . S
C1593 C1584 1.390 . S
C1593 H1586 0.950 . S
C1593 C1590 1.387 . S
C1594 C1595 1.387 . S
C1594 H1598 0.950 . S
C1594 C1603 1.390 . S
C1595 C1594 1.387 . S
C1595 C1597 1.387 . S
H1596 C1603 0.950 . S
C1597 C1595 1.387 . S
C1597 C1599 1.390 . S
C1597 H1601 0.950 . S
H1598 C1594 0.950 . S
C1599 C1597 1.390 . S
C1599 C1600 1.387 . S
C1599 H1602 0.950 . S
C1600 C1599 1.387 . S
C1600 C1603 1.387 . S
H1601 C1597 0.950 . S
H1602 C1599 0.950 . S
C1603 C1594 1.390 . S
C1603 H1596 0.950 . S
C1603 C1600 1.387 . S
C1604 C1605 1.387 . S
C1604 H1608 0.950 . S
C1604 C1613 1.390 . S
C1605 C1604 1.387 . S
C1605 C1607 1.387 . S
H1606 C1613 0.950 . S
C1607 C1605 1.387 . S
C1607 C1609 1.390 . S
C1607 H1611 0.950 . S
H1608 C1604 0.950 . S
C1609 C1607 1.390 . S
C1609 C1610 1.387 . S
C1609 H1612 0.950 . S
C1610 C1609 1.387 . S
C1610 C1613 1.387 . S
H1611 C1607 0.950 . S
H1612 C1609 0.950 . S
C1613 C1604 1.390 . S
C1613 H1606 0.950 . S
C1613 C1610 1.387 . S
C1614 C1615 1.387 . S
C1614 H1618 0.950 . S
C1614 C1623 1.390 . S
C1615 C1614 1.387 . S
C1615 C1617 1.387 . S
H1616 C1623 0.950 . S
C1617 C1615 1.387 . S
C1617 C1619 1.390 . S
C1617 H1621 0.950 . S
H1618 C1614 0.950 . S
C1619 C1617 1.390 . S
C1619 C1620 1.387 . S
C1619 H1622 0.950 . S
C1620 C1619 1.387 . S
C1620 C1623 1.387 . S
H1621 C1617 0.950 . S
H1622 C1619 0.950 . S
C1623 C1614 1.390 . S
C1623 H1616 0.950 . S
C1623 C1620 1.387 . S
C1624 C1625 1.387 . S
C1624 H1628 0.950 . S
C1624 C1633 1.390 . S
C1625 C1624 1.387 . S
C1625 C1627 1.387 . S
H1626 C1633 0.950 . S
C1627 C1625 1.387 . S
C1627 C1629 1.390 . S
C1627 H1631 0.950 . S
H1628 C1624 0.950 . S
C1629 C1627 1.390 . S
C1629 C1630 1.387 . S
C1629 H1632 0.950 . S
C1630 C1629 1.387 . S
C1630 C1633 1.387 . S
H1631 C1627 0.950 . S
H1632 C1629 0.950 . S
C1633 C1624 1.390 . S
C1633 H1626 0.950 . S
C1633 C1630 1.387 . S
C1634 C1635 1.387 . S
C1634 H1638 0.950 . S
C1634 C1643 1.390 . S
C1635 C1634 1.387 . S
C1635 C1637 1.387 . S
H1636 C1643 0.950 . S
C1637 C1635 1.387 . S
C1637 C1639 1.390 . S
C1637 H1641 0.950 . S
H1638 C1634 0.950 . S
C1639 C1637 1.390 . S
C1639 C1640 1.387 . S
C1639 H1642 0.950 . S
C1640 C1639 1.387 . S
C1640 C1643 1.387 . S
H1641 C1637 0.950 . S
H1642 C1639 0.950 . S
C1643 C1634 1.390 . S
C1643 H1636 0.950 . S
C1643 C1640 1.387 . S
C1644 C1645 1.387 . S
C1644 H1648 0.950 . S
C1644 C1653 1.390 . S
C1645 C1644 1.387 . S
C1645 C1647 1.387 . S
H1646 C1653 0.950 . S
C1647 C1645 1.387 . S
C1647 C1649 1.390 . S
C1647 H1651 0.950 . S
H1648 C1644 0.950 . S
C1649 C1647 1.390 . S
C1649 C1650 1.387 . S
C1649 H1652 0.950 . S
C1650 C1649 1.387 . S
C1650 C1653 1.387 . S
H1651 C1647 0.950 . S
H1652 C1649 0.950 . S
C1653 C1644 1.390 . S
C1653 H1646 0.950 . S
C1653 C1650 1.387 . S
C1654 C1655 1.387 . S
C1654 H1658 0.950 . S
C1654 C1663 1.390 . S
C1655 C1654 1.387 . S
C1655 C1657 1.387 . S
H1656 C1663 0.950 . S
C1657 C1655 1.387 . S
C1657 C1659 1.390 . S
C1657 H1661 0.950 . S
H1658 C1654 0.950 . S
C1659 C1657 1.390 . S
C1659 C1660 1.387 . S
C1659 H1662 0.950 . S
C1660 C1659 1.387 . S
C1660 C1663 1.387 . S
H1661 C1657 0.950 . S
H1662 C1659 0.950 . S
C1663 C1654 1.390 . S
C1663 H1656 0.950 . S
C1663 C1660 1.387 . S
C1664 C1665 1.387 . S
C1664 H1668 0.950 . S
C1664 C1673 1.390 . S
C1665 C1664 1.387 . S
C1665 C1667 1.387 . S
H1666 C1673 0.950 . S
C1667 C1665 1.387 . S
C1667 C1669 1.390 . S
C1667 H1671 0.950 . S
H1668 C1664 0.950 . S
C1669 C1667 1.390 . S
C1669 C1670 1.387 . S
C1669 H1672 0.950 . S
C1670 C1669 1.387 . S
C1670 C1673 1.387 . S
H1671 C1667 0.950 . S
H1672 C1669 0.950 . S
C1673 C1664 1.390 . S
C1673 H1666 0.950 . S
C1673 C1670 1.387 . S
C1674 C1675 1.387 . S
C1674 H1678 0.950 . S
C1674 C1683 1.390 . S
C1675 C1674 1.387 . S
C1675 C1677 1.387 . S
H1676 C1683 0.950 . S
C1677 C1675 1.387 . S
C1677 C1679 1.390 . S
C1677 H1681 0.950 . S
H1678 C1674 0.950 . S
C1679 C1677 1.390 . S
C1679 C1680 1.387 . S
C1679 H1682 0.950 . S
C1680 C1679 1.387 . S
C1680 C1683 1.387 . S
H1681 C1677 0.950 . S
H1682 C1679 0.950 . S
C1683 C1674 1.390 . S
C1683 H1676 0.950 . S
C1683 C1680 1.387 . S
C1684 C1685 1.387 . S
C1684 H1688 0.950 . S
C1684 C1693 1.390 . S
C1685 C1684 1.387 . S
C1685 C1687 1.387 . S
H1686 C1693 0.950 . S
C1687 C1685 1.387 . S
C1687 C1689 1.390 . S
C1687 H1691 0.950 . S
H1688 C1684 0.950 . S
C1689 C1687 1.390 . S
C1689 C1690 1.387 . S
C1689 H1692 0.950 . S
C1690 C1689 1.387 . S
C1690 C1693 1.387 . S
H1691 C1687 0.950 . S
H1692 C1689 0.950 . S
C1693 C1684 1.390 . S
C1693 H1686 0.950 . S
C1693 C1690 1.387 . S
C1694 C1695 1.387 . S
C1694 H1698 0.950 . S
C1694 C1703 1.390 . S
C1695 C1694 1.387 . S
C1695 C1697 1.387 . S
H1696 C1703 0.950 . S
C1697 C1695 1.387 . S
C1697 C1699 1.390 . S
C1697 H1701 0.950 . S
H1698 C1694 0.950 . S
C1699 C1697 1.390 . S
C1699 C1700 1.387 . S
C1699 H1702 0.950 . S
C1700 C1699 1.387 . S
C1700 C1703 1.387 . S
H1701 C1697 0.950 . S
H1702 C1699 0.950 . S
C1703 C1694 1.390 . S
C1703 H1696 0.950 . S
C1703 C1700 1.387 . S
C1704 C1705 1.387 1_655 S
C1704 H1708 0.950 . S
C1704 C1713 1.390 . S
C1705 C1704 1.387 1_455 S
C1705 C1707 1.387 . S
H1706 C1713 0.950 . S
C1707 C1705 1.387 . S
C1707 C1709 1.390 . S
C1707 H1711 0.950 . S
H1708 C1704 0.950 . S
C1709 C1707 1.390 . S
C1709 C1710 1.387 1_455 S
C1709 H1712 0.950 . S
C1710 C1709 1.387 1_655 S
C1710 C1713 1.387 . S
H1711 C1707 0.950 . S
H1712 C1709 0.950 . S
C1713 C1704 1.390 . S
C1713 H1706 0.950 . S
C1713 C1710 1.387 . S
C1714 C1715 1.387 . S
C1714 H1718 0.950 . S
C1714 C1723 1.390 . S
C1715 C1714 1.387 . S
C1715 C1717 1.387 . S
H1716 C1723 0.950 . S
C1717 C1715 1.387 . S
C1717 C1719 1.390 . S
C1717 H1721 0.950 . S
H1718 C1714 0.950 . S
C1719 C1717 1.390 . S
C1719 C1720 1.387 . S
C1719 H1722 0.950 . S
C1720 C1719 1.387 . S
C1720 C1723 1.387 . S
H1721 C1717 0.950 . S
H1722 C1719 0.950 . S
C1723 C1714 1.390 . S
C1723 H1716 0.950 . S
C1723 C1720 1.387 . S
C1724 C1725 1.387 . S
C1724 H1728 0.950 . S
C1724 C1733 1.390 1_545 S
C1725 C1724 1.387 . S
C1725 C1727 1.387 . S
H1726 C1733 0.950 . S
C1727 C1725 1.387 . S
C1727 C1729 1.390 1_545 S
C1727 H1731 0.950 . S
H1728 C1724 0.950 . S
C1729 C1727 1.390 1_565 S
C1729 C1730 1.387 . S
C1729 H1732 0.950 . S
C1730 C1729 1.387 . S
C1730 C1733 1.387 . S
H1731 C1727 0.950 . S
H1732 C1729 0.950 . S
C1733 C1724 1.390 1_565 S
C1733 H1726 0.950 . S
C1733 C1730 1.387 . S
C1734 C1735 1.387 . S
C1734 H1738 0.950 . S
C1734 C1743 1.390 1_565 S
C1735 C1734 1.387 . S
C1735 C1737 1.387 . S
H1736 C1743 0.950 . S
C1737 C1735 1.387 . S
C1737 C1739 1.390 1_565 S
C1737 H1741 0.950 . S
H1738 C1734 0.950 . S
C1739 C1737 1.390 1_545 S
C1739 C1740 1.387 . S
C1739 H1742 0.950 . S
C1740 C1739 1.387 . S
C1740 C1743 1.387 . S
H1741 C1737 0.950 . S
H1742 C1739 0.950 . S
C1743 C1734 1.390 1_545 S
C1743 H1736 0.950 . S
C1743 C1740 1.387 . S
C1744 C1745 1.387 . S
C1744 H1748 0.950 . S
C1744 C1753 1.390 . S
C1745 C1744 1.387 . S
C1745 C1747 1.387 1_655 S
H1746 C1753 0.950 . S
C1747 C1745 1.387 1_455 S
C1747 C1749 1.390 . S
C1747 H1751 0.950 . S
H1748 C1744 0.950 . S
C1749 C1747 1.390 . S
C1749 C1750 1.387 . S
C1749 H1752 0.950 . S
C1750 C1749 1.387 . S
C1750 C1753 1.387 1_455 S
H1751 C1747 0.950 . S
H1752 C1749 0.950 . S
C1753 C1744 1.390 . S
C1753 H1746 0.950 . S
C1753 C1750 1.387 1_655 S
C1754 C1755 1.387 . S
C1754 H1758 0.950 . S
C1754 C1763 1.390 . S
C1755 C1754 1.387 . S
C1755 C1757 1.387 . S
H1756 C1763 0.950 . S
C1757 C1755 1.387 . S
C1757 C1759 1.390 . S
C1757 H1761 0.950 . S
H1758 C1754 0.950 . S
C1759 C1757 1.390 . S
C1759 C1760 1.387 . S
C1759 H1762 0.950 . S
C1760 C1759 1.387 . S
C1760 C1763 1.387 . S
H1761 C1757 0.950 . S
H1762 C1759 0.950 . S
C1763 C1754 1.390 . S
C1763 H1756 0.950 . S
C1763 C1760 1.387 . S
C1764 C1765 1.387 . S
C1764 H1768 0.950 . S
C1764 C1773 1.390 . S
C1765 C1764 1.387 . S
C1765 C1767 1.387 . S
H1766 C1773 0.950 . S
C1767 C1765 1.387 . S
C1767 C1769 1.390 . S
C1767 H1771 0.950 . S
H1768 C1764 0.950 . S
C1769 C1767 1.390 . S
C1769 C1770 1.387 . S
C1769 H1772 0.950 . S
C1770 C1769 1.387 . S
C1770 C1773 1.387 . S
H1771 C1767 0.950 . S
H1772 C1769 0.950 . S
C1773 C1764 1.390 . S
C1773 H1766 0.950 . S
C1773 C1770 1.387 . S
C1774 C1775 1.387 1_545 S
C1774 H1778 0.950 1_545 S
C1774 C1783 1.390 . S
C1775 C1774 1.387 1_565 S
C1775 C1777 1.387 1_565 S
H1776 C1783 0.950 . S
C1777 C1775 1.387 1_545 S
C1777 C1779 1.390 . S
C1777 H1781 0.950 1_545 S
H1778 C1774 0.950 1_565 S
C1779 C1777 1.390 . S
C1779 C1780 1.387 . S
C1779 H1782 0.950 . S
C1780 C1779 1.387 . S
C1780 C1783 1.387 . S
H1781 C1777 0.950 1_565 S
H1782 C1779 0.950 . S
C1783 C1774 1.390 . S
C1783 H1776 0.950 . S
C1783 C1780 1.387 . S
C1784 C1785 1.387 . S
C1784 H1788 0.950 . S
C1784 C1793 1.390 1_655 S
C1785 C1784 1.387 . S
C1785 C1787 1.387 . S
H1786 C1793 0.950 . S
C1787 C1785 1.387 . S
C1787 C1789 1.390 . S
C1787 H1791 0.950 . S
H1788 C1784 0.950 . S
C1789 C1787 1.390 . S
C1789 C1790 1.387 1_655 S
C1789 H1792 0.950 . S
C1790 C1789 1.387 1_455 S
C1790 C1793 1.387 . S
H1791 C1787 0.950 . S
H1792 C1789 0.950 . S
C1793 C1784 1.390 1_455 S
C1793 H1786 0.950 . S
C1793 C1790 1.387 . S
C1794 C1795 1.387 . S
C1794 H1798 0.950 . S
C1794 C1803 1.390 . S
C1795 C1794 1.387 . S
C1795 C1797 1.387 . S
H1796 C1803 0.950 . S
C1797 C1795 1.387 . S
C1797 C1799 1.390 . S
C1797 H1801 0.950 . S
H1798 C1794 0.950 . S
C1799 C1797 1.390 . S
C1799 C1800 1.387 . S
C1799 H1802 0.950 . S
C1800 C1799 1.387 . S
C1800 C1803 1.387 . S
H1801 C1797 0.950 . S
H1802 C1799 0.950 . S
C1803 C1794 1.390 . S
C1803 H1796 0.950 . S
C1803 C1800 1.387 . S
C1804 C1805 1.387 . S
C1804 H1808 0.950 . S
C1804 C1813 1.390 1_565 S
C1805 C1804 1.387 . S
C1805 C1807 1.387 . S
H1806 C1813 0.950 . S
C1807 C1805 1.387 . S
C1807 C1809 1.390 . S
C1807 H1811 0.950 . S
H1808 C1804 0.950 . S
C1809 C1807 1.390 . S
C1809 C1810 1.387 1_565 S
C1809 H1812 0.950 . S
C1810 C1809 1.387 1_545 S
C1810 C1813 1.387 . S
H1811 C1807 0.950 . S
H1812 C1809 0.950 . S
C1813 C1804 1.390 1_545 S
C1813 H1806 0.950 . S
C1813 C1810 1.387 . S
C1814 C1815 1.386 . S
C1814 H1818 0.954 . S
C1814 C1823 1.388 1_655 S
C1815 C1814 1.386 . S
C1815 C1817 1.387 1_655 S
H1816 C1823 0.950 . S
C1817 C1815 1.387 1_455 S
C1817 C1819 1.390 . S
C1817 H1821 0.950 . S
H1818 C1814 0.954 . S
C1819 C1817 1.390 . S
C1819 C1820 1.387 . S
C1819 H1822 0.950 . S
C1820 C1819 1.387 . S
C1820 C1823 1.387 . S
H1821 C1817 0.950 . S
H1822 C1819 0.950 . S
C1823 C1814 1.388 1_455 S
C1823 H1816 0.950 . S
C1823 C1820 1.387 . S
C1824 C1825 1.387 . S
C1824 H1828 0.950 . S
C1824 C1833 1.390 . S
C1825 C1824 1.387 . S
C1825 C1827 1.387 . S
H1826 C1833 0.950 . S
C1827 C1825 1.387 . S
C1827 C1829 1.390 . S
C1827 H1831 0.950 . S
H1828 C1824 0.950 . S
C1829 C1827 1.390 . S
C1829 C1830 1.387 . S
C1829 H1832 0.950 . S
C1830 C1829 1.387 . S
C1830 C1833 1.387 . S
H1831 C1827 0.950 . S
H1832 C1829 0.950 . S
C1833 C1824 1.390 . S
C1833 H1826 0.950 . S
C1833 C1830 1.387 . S
C1834 C1835 1.387 1_565 S
C1834 H1838 0.950 . S
C1834 C1843 1.390 . S
C1835 C1834 1.387 1_545 S
C1835 C1837 1.384 . S
H1836 C1843 0.950 . S
C1837 C1835 1.384 . S
C1837 C1839 1.385 1_545 S
C1837 H1841 0.958 . S
H1838 C1834 0.950 . S
C1839 C1837 1.385 1_565 S
C1839 C1840 1.387 . S
C1839 H1842 0.950 . S
C1840 C1839 1.387 . S
C1840 C1843 1.387 . S
H1841 C1837 0.958 . S
H1842 C1839 0.950 . S
C1843 C1834 1.390 . S
C1843 H1836 0.950 . S
C1843 C1840 1.387 . S
C1844 C1845 1.387 . S
C1844 H1848 0.950 . S
C1844 C1853 1.390 1_655 S
C1845 C1844 1.387 . S
C1845 C1847 1.387 1_655 S
H1846 C1853 0.950 . S
C1847 C1845 1.387 1_455 S
C1847 C1849 1.390 . S
C1847 H1851 0.950 . S
H1848 C1844 0.950 . S
C1849 C1847 1.390 . S
C1849 C1850 1.387 . S
C1849 H1852 0.950 . S
C1850 C1849 1.387 . S
C1850 C1853 1.387 . S
H1851 C1847 0.950 . S
H1852 C1849 0.950 . S
C1853 C1844 1.390 1_455 S
C1853 H1846 0.950 . S
C1853 C1850 1.387 . S
C1854 C1855 1.387 . S
C1854 H1858 0.950 . S
C1854 C1863 1.390 . S
C1855 C1854 1.387 . S
C1855 C1857 1.387 . S
H1856 C1863 0.950 . S
C1857 C1855 1.387 . S
C1857 C1859 1.390 . S
C1857 H1861 0.950 . S
H1858 C1854 0.950 . S
C1859 C1857 1.390 . S
C1859 C1860 1.387 . S
C1859 H1862 0.950 . S
C1860 C1859 1.387 . S
C1860 C1863 1.387 . S
H1861 C1857 0.950 . S
H1862 C1859 0.950 . S
C1863 C1854 1.390 . S
C1863 H1856 0.950 . S
C1863 C1860 1.387 . S
C1864 C1865 1.387 1_545 S
C1864 H1868 0.950 . S
C1864 C1873 1.390 . S
C1865 C1864 1.387 1_565 S
C1865 C1867 1.387 . S
H1866 C1873 0.950 . S
C1867 C1865 1.387 . S
C1867 C1869 1.390 1_565 S
C1867 H1871 0.950 . S
H1868 C1864 0.950 . S
C1869 C1867 1.390 1_545 S
C1869 C1870 1.387 . S
C1869 H1872 0.950 . S
C1870 C1869 1.387 . S
C1870 C1873 1.387 . S
H1871 C1867 0.950 . S
H1872 C1869 0.950 . S
C1873 C1864 1.390 . S
C1873 H1866 0.950 . S
C1873 C1870 1.387 . S
C1874 C1875 1.387 1_655 S
C1874 H1878 0.950 . S
C1874 C1883 1.390 . S
C1875 C1874 1.387 1_455 S
C1875 C1877 1.387 . S
H1876 C1883 0.950 . S
C1877 C1875 1.387 . S
C1877 C1879 1.390 1_455 S
C1877 H1881 0.950 . S
H1878 C1874 0.950 . S
C1879 C1877 1.390 1_655 S
C1879 C1880 1.387 . S
C1879 H1882 0.950 . S
C1880 C1879 1.387 . S
C1880 C1883 1.387 . S
H1881 C1877 0.950 . S
H1882 C1879 0.950 . S
C1883 C1874 1.390 . S
C1883 H1876 0.950 . S
C1883 C1880 1.387 . S
C1884 C1885 1.387 . S
C1884 H1888 0.950 . S
C1884 C1893 1.390 . S
C1885 C1884 1.387 . S
C1885 C1887 1.387 . S
H1886 C1893 0.950 . S
C1887 C1885 1.387 . S
C1887 C1889 1.390 . S
C1887 H1891 0.950 . S
H1888 C1884 0.950 . S
C1889 C1887 1.390 . S
C1889 C1890 1.387 . S
C1889 H1892 0.950 . S
C1890 C1889 1.387 . S
C1890 C1893 1.387 . S
H1891 C1887 0.950 . S
H1892 C1889 0.950 . S
C1893 C1884 1.390 . S
C1893 H1886 0.950 . S
C1893 C1890 1.387 . S
C1894 C1895 1.387 . S
C1894 H1898 0.950 . S
C1894 C1903 1.390 . S
C1895 C1894 1.387 . S
C1895 C1897 1.387 . S
H1896 C1903 0.950 . S
C1897 C1895 1.387 . S
C1897 C1899 1.390 . S
C1897 H1901 0.950 . S
H1898 C1894 0.950 . S
C1899 C1897 1.390 . S
C1899 C1900 1.387 . S
C1899 H1902 0.950 . S
C1900 C1899 1.387 . S
C1900 C1903 1.387 . S
H1901 C1897 0.950 . S
H1902 C1899 0.950 . S
C1903 C1894 1.390 . S
C1903 H1896 0.950 . S
C1903 C1900 1.387 . S
C1904 C1905 1.387 . S
C1904 H1908 0.950 . S
C1904 C1913 1.390 . S
C1905 C1904 1.387 . S
C1905 C1907 1.387 . S
H1906 C1913 0.950 . S
C1907 C1905 1.387 . S
C1907 C1909 1.390 . S
C1907 H1911 0.950 . S
H1908 C1904 0.950 . S
C1909 C1907 1.390 . S
C1909 C1910 1.387 . S
C1909 H1912 0.950 . S
C1910 C1909 1.387 . S
C1910 C1913 1.387 . S
H1911 C1907 0.950 . S
H1912 C1909 0.950 . S
C1913 C1904 1.390 . S
C1913 H1906 0.950 . S
C1913 C1910 1.387 . S
C1914 C1915 1.387 . S
C1914 H1918 0.950 . S
C1914 C1923 1.390 . S
C1915 C1914 1.387 . S
C1915 C1917 1.387 . S
H1916 C1923 0.950 . S
C1917 C1915 1.387 . S
C1917 C1919 1.390 . S
C1917 H1921 0.950 . S
H1918 C1914 0.950 . S
C1919 C1917 1.390 . S
C1919 C1920 1.387 . S
C1919 H1922 0.950 . S
C1920 C1919 1.387 . S
C1920 C1923 1.387 . S
H1921 C1917 0.950 . S
H1922 C1919 0.950 . S
C1923 C1914 1.390 . S
C1923 H1916 0.950 . S
C1923 C1920 1.387 . S
C1924 C1925 1.387 . S
C1924 H1928 0.950 . S
C1924 C1933 1.390 . S
C1925 C1924 1.387 . S
C1925 C1927 1.387 . S
H1926 C1933 0.950 . S
C1927 C1925 1.387 . S
C1927 C1929 1.390 . S
C1927 H1931 0.950 . S
H1928 C1924 0.950 . S
C1929 C1927 1.390 . S
C1929 C1930 1.387 . S
C1929 H1932 0.950 . S
C1930 C1929 1.387 . S
C1930 C1933 1.387 . S
H1931 C1927 0.950 . S
H1932 C1929 0.950 . S
C1933 C1924 1.390 . S
C1933 H1926 0.950 . S
C1933 C1930 1.387 . S
C1934 C1935 1.387 . S
C1934 H1938 0.950 . S
C1934 C1943 1.390 . S
C1935 C1934 1.387 . S
C1935 C1937 1.387 . S
H1936 C1943 0.950 . S
C1937 C1935 1.387 . S
C1937 C1939 1.390 . S
C1937 H1941 0.950 . S
H1938 C1934 0.950 . S
C1939 C1937 1.390 . S
C1939 C1940 1.387 . S
C1939 H1942 0.950 . S
C1940 C1939 1.387 . S
C1940 C1943 1.387 . S
H1941 C1937 0.950 . S
H1942 C1939 0.950 . S
C1943 C1934 1.390 . S
C1943 H1936 0.950 . S
C1943 C1940 1.387 . S
C1944 C1945 1.387 . S
C1944 H1948 0.950 . S
C1944 C1953 1.390 . S
C1945 C1944 1.387 . S
C1945 C1947 1.387 . S
H1946 C1953 0.950 . S
C1947 C1945 1.387 . S
C1947 C1949 1.390 . S
C1947 H1951 0.950 . S
H1948 C1944 0.950 . S
C1949 C1947 1.390 . S
C1949 C1950 1.387 . S
C1949 H1952 0.950 . S
C1950 C1949 1.387 . S
C1950 C1953 1.387 . S
H1951 C1947 0.950 . S
H1952 C1949 0.950 . S
C1953 C1944 1.390 . S
C1953 H1946 0.950 . S
C1953 C1950 1.387 . S
C1954 C1955 1.387 . S
C1954 H1958 0.950 . S
C1954 C1963 1.390 . S
C1955 C1954 1.387 . S
C1955 C1957 1.387 . S
H1956 C1963 0.950 . S
C1957 C1955 1.387 . S
C1957 C1959 1.390 . S
C1957 H1961 0.950 . S
H1958 C1954 0.950 . S
C1959 C1957 1.390 . S
C1959 C1960 1.387 . S
C1959 H1962 0.950 . S
C1960 C1959 1.387 . S
C1960 C1963 1.387 . S
H1961 C1957 0.950 . S
H1962 C1959 0.950 . S
C1963 C1954 1.390 . S
C1963 H1956 0.950 . S
C1963 C1960 1.387 . S
C1964 C1965 1.387 . S
C1964 H1968 0.950 . S
C1964 C1973 1.390 . S
C1965 C1964 1.387 . S
C1965 C1967 1.387 . S
H1966 C1973 0.950 . S
C1967 C1965 1.387 . S
C1967 C1969 1.390 . S
C1967 H1971 0.950 . S
H1968 C1964 0.950 . S
C1969 C1967 1.390 . S
C1969 C1970 1.387 . S
C1969 H1972 0.950 . S
C1970 C1969 1.387 . S
C1970 C1973 1.387 . S
H1971 C1967 0.950 . S
H1972 C1969 0.950 . S
C1973 C1964 1.390 . S
C1973 H1966 0.950 . S
C1973 C1970 1.387 . S
C1974 C1975 1.387 . S
C1974 H1978 0.950 . S
C1974 C1983 1.390 . S
C1975 C1974 1.387 . S
C1975 C1977 1.387 . S
H1976 C1983 0.956 . S
C1977 C1975 1.387 . S
C1977 C1979 1.390 . S
C1977 H1981 0.950 . S
H1978 C1974 0.950 . S
C1979 C1977 1.390 . S
C1979 C1980 1.385 1_556 S
C1979 H1982 0.949 . S
C1980 C1979 1.385 1_554 S
C1980 C1983 1.384 1_554 S
H1981 C1977 0.950 . S
H1982 C1979 0.949 . S
C1983 C1974 1.390 . S
C1983 H1976 0.956 . S
C1983 C1980 1.384 1_556 S
C1984 C1985 1.387 . S
C1984 H1988 0.950 . S
C1984 C1993 1.390 . S
C1985 C1984 1.387 . S
C1985 C1987 1.387 1_556 S
H1986 C1993 0.950 . S
C1987 C1985 1.387 1_554 S
C1987 C1989 1.390 . S
C1987 H1991 0.950 . S
H1988 C1984 0.950 . S
C1989 C1987 1.390 . S
C1989 C1990 1.401 . S
C1989 H1992 0.950 . S
C1990 C1989 1.401 . S
C1990 C1993 1.367 1_554 S
H1991 C1987 0.950 . S
H1992 C1989 0.950 . S
C1993 C1984 1.390 . S
C1993 H1986 0.950 . S
C1993 C1990 1.367 1_556 S
C1994 C1995 1.407 . S
C1994 H1998 0.950 . S
C1994 C2003 1.390 . S
C1995 C1994 1.407 . S
C1995 C1997 1.360 1_554 S
H1996 C2003 0.950 . S
C1997 C1995 1.360 1_556 S
C1997 C1999 1.390 . S
C1997 H2001 0.950 . S
H1998 C1994 0.950 . S
C1999 C1997 1.390 . S
C1999 C2000 1.387 . S
C1999 H2002 0.950 . S
C2000 C1999 1.387 . S
C2000 C2003 1.387 1_556 S
H2001 C1997 0.950 . S
H2002 C1999 0.950 . S
C2003 C1994 1.390 . S
C2003 H1996 0.950 . S
C2003 C2000 1.387 1_554 S
C2004 C2005 1.387 . S
C2004 H2008 0.950 . S
C2004 C2013 1.390 . S
C2005 C2004 1.387 . S
C2005 C2007 1.387 . S
H2006 C2013 0.950 . S
C2007 C2005 1.387 . S
C2007 C2009 1.390 . S
C2007 H2011 0.950 . S
H2008 C2004 0.950 . S
C2009 C2007 1.390 . S
C2009 C2010 1.387 . S
C2009 H2012 0.950 . S
C2010 C2009 1.387 . S
C2010 C2013 1.387 . S
H2011 C2007 0.950 . S
H2012 C2009 0.950 . S
C2013 C2004 1.390 . S
C2013 H2006 0.950 . S
C2013 C2010 1.387 . S
C2014 C2015 1.387 . S
C2014 H2018 0.950 . S
C2014 C2023 1.390 . S
C2015 C2014 1.387 . S
C2015 C2017 1.387 . S
H2016 C2023 0.950 . S
C2017 C2015 1.387 . S
C2017 C2019 1.390 . S
C2017 H2021 0.950 . S
H2018 C2014 0.950 . S
C2019 C2017 1.390 . S
C2019 C2020 1.387 . S
C2019 H2022 0.950 . S
C2020 C2019 1.387 . S
C2020 C2023 1.387 . S
H2021 C2017 0.950 . S
H2022 C2019 0.950 . S
C2023 C2014 1.390 . S
C2023 H2016 0.950 . S
C2023 C2020 1.387 . S
C2024 C2025 1.387 . S
C2024 H2028 0.950 . S
C2024 C2033 1.390 . S
C2025 C2024 1.387 . S
C2025 C2027 1.387 . S
H2026 C2033 0.950 . S
C2027 C2025 1.387 . S
C2027 C2029 1.390 . S
C2027 H2031 0.950 . S
H2028 C2024 0.950 . S
C2029 C2027 1.390 . S
C2029 C2030 1.387 . S
C2029 H2032 0.950 . S
C2030 C2029 1.387 . S
C2030 C2033 1.387 . S
H2031 C2027 0.950 . S
H2032 C2029 0.950 . S
C2033 C2024 1.390 . S
C2033 H2026 0.950 . S
C2033 C2030 1.387 . S
C2034 C2035 1.387 . S
C2034 H2038 0.950 . S
C2034 C2043 1.390 . S
C2035 C2034 1.387 . S
C2035 C2037 1.387 . S
H2036 C2043 0.959 . S
C2037 C2035 1.387 . S
C2037 C2039 1.390 . S
C2037 H2041 0.950 . S
H2038 C2034 0.950 . S
C2039 C2037 1.390 . S
C2039 C2040 1.384 1_554 S
C2039 H2042 0.942 1_554 S
C2040 C2039 1.384 1_556 S
C2040 C2043 1.382 1_556 S
H2041 C2037 0.950 . S
H2042 C2039 0.942 1_556 S
C2043 C2034 1.390 . S
C2043 H2036 0.959 . S
C2043 C2040 1.382 1_554 S
C2044 C2045 1.409 . S
C2044 H2048 0.950 . S
C2044 C2053 1.390 . S
C2045 C2044 1.409 . S
C2045 C2047 1.359 1_556 S
H2046 C2053 0.950 . S
C2047 C2045 1.359 1_554 S
C2047 C2049 1.390 . S
C2047 H2051 0.950 . S
H2048 C2044 0.950 . S
C2049 C2047 1.390 . S
C2049 C2050 1.387 . S
C2049 H2052 0.950 . S
C2050 C2049 1.387 . S
C2050 C2053 1.387 1_554 S
H2051 C2047 0.950 . S
H2052 C2049 0.950 . S
C2053 C2044 1.390 . S
C2053 H2046 0.950 . S
C2053 C2050 1.387 1_556 S
C2054 C2055 1.387 1_556 S
C2054 H2058 0.950 . S
C2054 C2063 1.390 . S
C2055 C2054 1.387 1_554 S
C2055 C2057 1.387 . S
H2056 C2063 0.950 . S
C2057 C2055 1.387 . S
C2057 C2059 1.390 . S
C2057 H2061 0.950 . S
H2058 C2054 0.950 . S
C2059 C2057 1.390 . S
C2059 C2060 1.362 1_554 S
C2059 H2062 0.950 . S
C2060 C2059 1.362 1_556 S
C2060 C2063 1.406 . S
H2061 C2057 0.950 . S
H2062 C2059 0.950 . S
C2063 C2054 1.390 . S
C2063 H2056 0.950 . S
C2063 C2060 1.406 . S
C2064 C2065 1.387 . S
C2064 H2068 0.950 . S
C2064 C2073 1.390 . S
C2065 C2064 1.387 . S
C2065 C2067 1.387 . S
H2066 C2073 0.950 . S
C2067 C2065 1.387 . S
C2067 C2069 1.390 . S
C2067 H2071 0.950 . S
H2068 C2064 0.950 . S
C2069 C2067 1.390 . S
C2069 C2070 1.387 . S
C2069 H2072 0.950 . S
C2070 C2069 1.387 . S
C2070 C2073 1.387 . S
H2071 C2067 0.950 . S
H2072 C2069 0.950 . S
C2073 C2064 1.390 . S
C2073 H2066 0.950 . S
C2073 C2070 1.387 . S
C2074 C2075 1.387 . S
C2074 H2078 0.950 . S
C2074 C2083 1.390 . S
C2075 C2074 1.387 . S
C2075 C2077 1.387 . S
H2076 C2083 0.950 . S
C2077 C2075 1.387 . S
C2077 C2079 1.390 . S
C2077 H2081 0.950 . S
H2078 C2074 0.950 . S
C2079 C2077 1.390 . S
C2079 C2080 1.387 . S
C2079 H2082 0.950 . S
C2080 C2079 1.387 . S
C2080 C2083 1.387 . S
H2081 C2077 0.950 . S
H2082 C2079 0.950 . S
C2083 C2074 1.390 . S
C2083 H2076 0.950 . S
C2083 C2080 1.387 . S
C2084 C2085 1.387 . S
C2084 H2088 0.950 . S
C2084 C2093 1.390 . S
C2085 C2084 1.387 . S
C2085 C2087 1.387 . S
H2086 C2093 0.950 . S
C2087 C2085 1.387 . S
C2087 C2089 1.390 . S
C2087 H2091 0.950 . S
H2088 C2084 0.950 . S
C2089 C2087 1.390 . S
C2089 C2090 1.387 . S
C2089 H2092 0.950 . S
C2090 C2089 1.387 . S
C2090 C2093 1.387 . S
H2091 C2087 0.950 . S
H2092 C2089 0.950 . S
C2093 C2084 1.390 . S
C2093 H2086 0.950 . S
C2093 C2090 1.387 . S
C2094 C2095 1.387 . S
C2094 H2098 0.950 . S
C2094 C2103 1.390 . S
C2095 C2094 1.387 . S
C2095 C2097 1.387 . S
H2096 C2103 0.950 . S
C2097 C2095 1.387 . S
C2097 C2099 1.390 . S
C2097 H2101 0.950 . S
H2098 C2094 0.950 . S
C2099 C2097 1.390 . S
C2099 C2100 1.387 . S
C2099 H2102 0.950 . S
C2100 C2099 1.387 . S
C2100 C2103 1.387 . S
H2101 C2097 0.950 . S
H2102 C2099 0.950 . S
C2103 C2094 1.390 . S
C2103 H2096 0.950 . S
C2103 C2100 1.387 . S
C2104 C2105 1.387 . S
C2104 H2108 0.950 . S
C2104 C2113 1.390 . S
C2105 C2104 1.387 . S
C2105 C2107 1.387 . S
H2106 C2113 0.950 . S
C2107 C2105 1.387 . S
C2107 C2109 1.390 . S
C2107 H2111 0.950 . S
H2108 C2104 0.950 . S
C2109 C2107 1.390 . S
C2109 C2110 1.387 . S
C2109 H2112 0.950 . S
C2110 C2109 1.387 . S
C2110 C2113 1.387 . S
H2111 C2107 0.950 . S
H2112 C2109 0.950 . S
C2113 C2104 1.390 . S
C2113 H2106 0.950 . S
C2113 C2110 1.387 . S
C2114 C2115 1.387 . S
C2114 H2118 0.950 . S
C2114 C2123 1.390 . S
C2115 C2114 1.387 . S
C2115 C2117 1.387 . S
H2116 C2123 0.950 . S
C2117 C2115 1.387 . S
C2117 C2119 1.390 . S
C2117 H2121 0.950 . S
H2118 C2114 0.950 . S
C2119 C2117 1.390 . S
C2119 C2120 1.387 . S
C2119 H2122 0.950 . S
C2120 C2119 1.387 . S
C2120 C2123 1.387 . S
H2121 C2117 0.950 . S
H2122 C2119 0.950 . S
C2123 C2114 1.390 . S
C2123 H2116 0.950 . S
C2123 C2120 1.387 . S
C2124 C2125 1.387 . S
C2124 H2128 0.950 . S
C2124 C2133 1.390 . S
C2125 C2124 1.387 . S
C2125 C2127 1.387 . S
H2126 C2133 0.950 . S
C2127 C2125 1.387 . S
C2127 C2129 1.390 . S
C2127 H2131 0.950 . S
H2128 C2124 0.950 . S
C2129 C2127 1.390 . S
C2129 C2130 1.387 . S
C2129 H2132 0.950 . S
C2130 C2129 1.387 . S
C2130 C2133 1.387 . S
H2131 C2127 0.950 . S
H2132 C2129 0.950 . S
C2133 C2124 1.390 . S
C2133 H2126 0.950 . S
C2133 C2130 1.387 . S
C2134 C2135 1.387 . S
C2134 H2138 0.950 . S
C2134 C2143 1.390 . S
C2135 C2134 1.387 . S
C2135 C2137 1.387 . S
H2136 C2143 0.950 . S
C2137 C2135 1.387 . S
C2137 C2139 1.390 . S
C2137 H2141 0.950 . S
H2138 C2134 0.950 . S
C2139 C2137 1.390 . S
C2139 C2140 1.387 . S
C2139 H2142 0.950 . S
C2140 C2139 1.387 . S
C2140 C2143 1.387 . S
H2141 C2137 0.950 . S
H2142 C2139 0.950 . S
C2143 C2134 1.390 . S
C2143 H2136 0.950 . S
C2143 C2140 1.387 . S
C2144 C2145 1.387 . S
C2144 H2148 0.950 . S
C2144 C2153 1.390 1_455 S
C2145 C2144 1.387 . S
C2145 C2147 1.387 . S
H2146 C2153 0.959 . S
C2147 C2145 1.387 . S
C2147 C2149 1.390 . S
C2147 H2151 0.950 . S
H2148 C2144 0.950 . S
C2149 C2147 1.390 . S
C2149 C2150 1.387 . S
C2149 H2152 0.950 . S
C2150 C2149 1.387 . S
C2150 C2153 1.378 1_455 S
H2151 C2147 0.950 . S
H2152 C2149 0.950 . S
C2153 C2144 1.390 1_655 S
C2153 H2146 0.959 . S
C2153 C2150 1.378 1_655 S
C2154 C2155 1.387 . S
C2154 H2158 0.950 . S
C2154 C2163 1.390 . S
C2155 C2154 1.387 . S
C2155 C2157 1.387 . S
H2156 C2163 0.950 . S
C2157 C2155 1.387 . S
C2157 C2159 1.390 . S
C2157 H2161 0.950 . S
H2158 C2154 0.950 . S
C2159 C2157 1.390 . S
C2159 C2160 1.387 . S
C2159 H2162 0.950 . S
C2160 C2159 1.387 . S
C2160 C2163 1.387 . S
H2161 C2157 0.950 . S
H2162 C2159 0.950 . S
C2163 C2154 1.390 . S
C2163 H2156 0.950 . S
C2163 C2160 1.387 . S
C2164 C2165 1.387 . S
C2164 H2168 0.950 . S
C2164 C2173 1.390 . S
C2165 C2164 1.387 . S
C2165 C2167 1.387 . S
H2166 C2173 0.950 1_565 S
C2167 C2165 1.387 . S
C2167 C2169 1.390 . S
C2167 H2171 0.950 . S
H2168 C2164 0.950 . S
C2169 C2167 1.390 . S
C2169 C2170 1.387 . S
C2169 H2172 0.950 . S
C2170 C2169 1.387 . S
C2170 C2173 1.387 . S
H2171 C2167 0.950 . S
H2172 C2169 0.950 . S
C2173 C2164 1.390 . S
C2173 H2166 0.950 1_545 S
C2173 C2170 1.387 . S
C2174 C2175 1.387 . S
C2174 H2178 0.950 1_655 S
C2174 C2183 1.390 . S
C2175 C2174 1.387 . S
C2175 C2177 1.387 . S
H2176 C2183 0.950 . S
C2177 C2175 1.387 . S
C2177 C2179 1.390 . S
C2177 H2181 0.950 . S
H2178 C2174 0.950 1_455 S
C2179 C2177 1.390 . S
C2179 C2180 1.387 . S
C2179 H2182 0.950 . S
C2180 C2179 1.387 . S
C2180 C2183 1.387 . S
H2181 C2177 0.950 . S
H2182 C2179 0.950 . S
C2183 C2174 1.390 . S
C2183 H2176 0.950 . S
C2183 C2180 1.387 . S
C2184 C2185 1.387 . S
C2184 H2188 0.950 . S
C2184 C2193 1.390 . S
C2185 C2184 1.387 . S
C2185 C2187 1.387 . S
H2186 C2193 0.950 . S
C2187 C2185 1.387 . S
C2187 C2189 1.390 . S
C2187 H2191 0.950 . S
H2188 C2184 0.950 . S
C2189 C2187 1.390 . S
C2189 C2190 1.387 . S
C2189 H2192 0.950 . S
C2190 C2189 1.387 . S
C2190 C2193 1.387 . S
H2191 C2187 0.950 . S
H2192 C2189 0.950 . S
C2193 C2184 1.390 . S
C2193 H2186 0.950 . S
C2193 C2190 1.387 . S
C2194 C2195 1.387 . S
C2194 H2198 0.950 . S
C2194 C2203 1.390 . S
C2195 C2194 1.387 . S
C2195 C2197 1.387 . S
H2196 C2203 0.950 . S
C2197 C2195 1.387 . S
C2197 C2199 1.390 . S
C2197 H2201 0.950 . S
H2198 C2194 0.950 . S
C2199 C2197 1.390 . S
C2199 C2200 1.387 . S
C2199 H2202 0.950 . S
C2200 C2199 1.387 . S
C2200 C2203 1.387 . S
H2201 C2197 0.950 . S
H2202 C2199 0.950 . S
C2203 C2194 1.390 . S
C2203 H2196 0.950 . S
C2203 C2200 1.387 . S
C2204 C2205 1.387 . S
C2204 H2208 0.950 . S
C2204 C2213 1.390 1_655 S
C2205 C2204 1.387 . S
C2205 C2207 1.387 . S
H2206 C2213 0.954 . S
C2207 C2205 1.387 . S
C2207 C2209 1.390 . S
C2207 H2211 0.950 . S
H2208 C2204 0.950 . S
C2209 C2207 1.390 . S
C2209 C2210 1.387 . S
C2209 H2212 0.950 . S
C2210 C2209 1.387 . S
C2210 C2213 1.383 1_655 S
H2211 C2207 0.950 . S
H2212 C2209 0.950 . S
C2213 C2204 1.390 1_455 S
C2213 H2206 0.954 . S
C2213 C2210 1.383 1_455 S
C2214 C2215 1.387 . S
C2214 H2218 0.950 . S
C2214 C2223 1.390 . S
C2215 C2214 1.387 . S
C2215 C2217 1.387 . S
H2216 C2223 0.950 . S
C2217 C2215 1.387 . S
C2217 C2219 1.390 . S
C2217 H2221 0.950 . S
H2218 C2214 0.950 . S
C2219 C2217 1.390 . S
C2219 C2220 1.387 . S
C2219 H2222 0.950 . S
C2220 C2219 1.387 . S
C2220 C2223 1.387 . S
H2221 C2217 0.950 . S
H2222 C2219 0.950 . S
C2223 C2214 1.390 . S
C2223 H2216 0.950 . S
C2223 C2220 1.387 . S
C2224 C2225 1.387 . S
C2224 H2228 0.950 . S
C2224 C2233 1.390 . S
C2225 C2224 1.387 . S
C2225 C2227 1.387 . S
H2226 C2233 0.950 . S
C2227 C2225 1.387 . S
C2227 C2229 1.390 . S
C2227 H2231 0.950 . S
H2228 C2224 0.950 . S
C2229 C2227 1.390 . S
C2229 C2230 1.387 . S
C2229 H2232 0.950 . S
C2230 C2229 1.387 . S
C2230 C2233 1.387 . S
H2231 C2227 0.950 . S
H2232 C2229 0.950 . S
C2233 C2224 1.390 . S
C2233 H2226 0.950 . S
C2233 C2230 1.387 . S
C2234 C2235 1.387 . S
C2234 H2238 0.950 . S
C2234 C2243 1.390 . S
C2235 C2234 1.387 . S
C2235 C2237 1.387 . S
H2236 C2243 0.950 . S
C2237 C2235 1.387 . S
C2237 C2239 1.390 . S
C2237 H2241 0.950 . S
H2238 C2234 0.950 . S
C2239 C2237 1.390 . S
C2239 C2240 1.387 . S
C2239 H2242 0.950 . S
C2240 C2239 1.387 . S
C2240 C2243 1.387 . S
H2241 C2237 0.950 . S
H2242 C2239 0.950 . S
C2243 C2234 1.390 . S
C2243 H2236 0.950 . S
C2243 C2240 1.387 . S
C2244 C2245 1.387 . S
C2244 H2248 0.950 . S
C2244 C2253 1.390 1_455 S
C2245 C2244 1.387 . S
C2245 C2247 1.387 . S
H2246 C2253 0.950 . S
C2247 C2245 1.387 . S
C2247 C2249 1.390 1_455 S
C2247 H2251 0.950 . S
H2248 C2244 0.950 . S
C2249 C2247 1.390 1_655 S
C2249 C2250 1.387 . S
C2249 H2252 0.950 . S
C2250 C2249 1.387 . S
C2250 C2253 1.387 . S
H2251 C2247 0.950 . S
H2252 C2249 0.950 . S
C2253 C2244 1.390 1_655 S
C2253 H2246 0.950 . S
C2253 C2250 1.387 . S
C2254 C2255 1.387 . S
C2254 H2258 0.950 . S
C2254 C2263 1.390 . S
C2255 C2254 1.387 . S
C2255 C2257 1.387 . S
H2256 C2263 0.950 . S
C2257 C2255 1.387 . S
C2257 C2259 1.390 . S
C2257 H2261 0.950 . S
H2258 C2254 0.950 . S
C2259 C2257 1.390 . S
C2259 C2260 1.387 . S
C2259 H2262 0.950 . S
C2260 C2259 1.387 . S
C2260 C2263 1.387 . S
H2261 C2257 0.950 . S
H2262 C2259 0.950 . S
C2263 C2254 1.390 . S
C2263 H2256 0.950 . S
C2263 C2260 1.387 . S
C2264 C2265 1.387 . S
C2264 H2268 0.950 . S
C2264 C2273 1.390 1_565 S
C2265 C2264 1.387 . S
C2265 C2267 1.387 . S
H2266 C2273 0.950 . S
C2267 C2265 1.387 . S
C2267 C2269 1.390 1_565 S
C2267 H2271 0.950 . S
H2268 C2264 0.950 . S
C2269 C2267 1.390 1_545 S
C2269 C2270 1.387 . S
C2269 H2272 0.950 . S
C2270 C2269 1.387 . S
C2270 C2273 1.387 . S
H2271 C2267 0.950 . S
H2272 C2269 0.950 . S
C2273 C2264 1.390 1_545 S
C2273 H2266 0.950 . S
C2273 C2270 1.387 . S
C2274 C2275 1.387 . S
C2274 H2278 0.950 . S
C2274 C2283 1.390 . S
C2275 C2274 1.387 . S
C2275 C2277 1.387 . S
H2276 C2283 0.950 . S
C2277 C2275 1.387 . S
C2277 C2279 1.390 . S
C2277 H2281 0.950 . S
H2278 C2274 0.950 . S
C2279 C2277 1.390 . S
C2279 C2280 1.387 . S
C2279 H2282 0.950 1_455 S
C2280 C2279 1.387 . S
C2280 C2283 1.387 . S
H2281 C2277 0.950 . S
H2282 C2279 0.950 1_655 S
C2283 C2274 1.390 . S
C2283 H2276 0.950 . S
C2283 C2280 1.387 . S
C2284 C2285 1.387 . S
C2284 H2288 0.950 . S
C2284 C2293 1.390 . S
C2285 C2284 1.387 . S
C2285 C2287 1.387 . S
H2286 C2293 0.950 . S
C2287 C2285 1.387 . S
C2287 C2289 1.390 . S
C2287 H2291 0.950 . S
H2288 C2284 0.950 . S
C2289 C2287 1.390 . S
C2289 C2290 1.387 . S
C2289 H2292 0.950 . S
C2290 C2289 1.387 . S
C2290 C2293 1.387 . S
H2291 C2287 0.950 . S
H2292 C2289 0.950 . S
C2293 C2284 1.390 . S
C2293 H2286 0.950 . S
C2293 C2290 1.387 . S
C2294 C2295 1.387 . S
C2294 H2298 0.950 . S
C2294 C2303 1.390 . S
C2295 C2294 1.387 . S
C2295 C2297 1.387 . S
H2296 C2303 0.950 . S
C2297 C2295 1.387 . S
C2297 C2299 1.390 . S
C2297 H2301 0.950 . S
H2298 C2294 0.950 . S
C2299 C2297 1.390 . S
C2299 C2300 1.387 . S
C2299 H2302 0.950 . S
C2300 C2299 1.387 . S
C2300 C2303 1.387 . S
H2301 C2297 0.950 . S
H2302 C2299 0.950 . S
C2303 C2294 1.390 . S
C2303 H2296 0.950 . S
C2303 C2300 1.387 . S
C2304 C2305 1.387 . S
C2304 H2308 0.950 . S
C2304 C2313 1.390 . S
C2305 C2304 1.387 . S
C2305 C2307 1.387 . S
H2306 C2313 0.950 . S
C2307 C2305 1.387 . S
C2307 C2309 1.390 . S
C2307 H2311 0.950 . S
H2308 C2304 0.950 . S
C2309 C2307 1.390 . S
C2309 C2310 1.387 . S
C2309 H2312 0.950 . S
C2310 C2309 1.387 . S
C2310 C2313 1.387 . S
H2311 C2307 0.950 . S
H2312 C2309 0.950 . S
C2313 C2304 1.390 . S
C2313 H2306 0.950 . S
C2313 C2310 1.387 . S
C2314 C2315 1.387 . S
C2314 H2318 0.950 . S
C2314 C2323 1.390 . S
C2315 C2314 1.387 . S
C2315 C2317 1.387 . S
H2316 C2323 0.950 . S
C2317 C2315 1.387 . S
C2317 C2319 1.390 . S
C2317 H2321 0.950 . S
H2318 C2314 0.950 . S
C2319 C2317 1.390 . S
C2319 C2320 1.387 . S
C2319 H2322 0.950 . S
C2320 C2319 1.387 . S
C2320 C2323 1.387 . S
H2321 C2317 0.950 . S
H2322 C2319 0.950 . S
C2323 C2314 1.390 . S
C2323 H2316 0.950 . S
C2323 C2320 1.387 . S
C2324 C2325 1.387 . S
C2324 H2328 0.950 . S
C2324 C2333 1.390 . S
C2325 C2324 1.387 . S
C2325 C2327 1.387 . S
H2326 C2333 0.950 . S
C2327 C2325 1.387 . S
C2327 C2329 1.390 . S
C2327 H2331 0.950 . S
H2328 C2324 0.950 . S
C2329 C2327 1.390 . S
C2329 C2330 1.387 . S
C2329 H2332 0.950 . S
C2330 C2329 1.387 . S
C2330 C2333 1.387 . S
H2331 C2327 0.950 . S
H2332 C2329 0.950 . S
C2333 C2324 1.390 . S
C2333 H2326 0.950 . S
C2333 C2330 1.387 . S
C2334 C2335 1.387 . S
C2334 H2338 0.950 . S
C2334 C2343 1.390 1_565 S
C2335 C2334 1.387 . S
C2335 C2337 1.387 . S
H2336 C2343 0.950 . S
C2337 C2335 1.387 . S
C2337 C2339 1.390 1_565 S
C2337 H2341 0.958 . S
H2338 C2334 0.950 . S
C2339 C2337 1.390 1_545 S
C2339 C2340 1.387 . S
C2339 H2342 0.950 . S
C2340 C2339 1.387 . S
C2340 C2343 1.387 . S
H2341 C2337 0.958 . S
H2342 C2339 0.950 . S
C2343 C2334 1.390 1_545 S
C2343 H2336 0.950 . S
C2343 C2340 1.387 . S
C2344 C2345 1.387 . S
C2344 H2348 0.950 . S
C2344 C2353 1.390 1_655 S
C2345 C2344 1.387 . S
C2345 C2347 1.387 1_556 S
H2346 C2353 0.950 . S
C2347 C2345 1.387 1_554 S
C2347 C2349 1.390 1_655 S
C2347 H2351 0.950 . S
H2348 C2344 0.950 . S
C2349 C2347 1.390 1_455 S
C2349 C2350 1.387 1_554 S
C2349 H2352 0.950 . S
C2350 C2349 1.387 1_556 S
C2350 C2353 1.387 . S
H2351 C2347 0.950 . S
H2352 C2349 0.950 . S
C2353 C2344 1.390 1_455 S
C2353 H2346 0.950 . S
C2353 C2350 1.387 . S
C2354 C2355 1.387 1_554 S
C2354 H2358 0.950 . S
C2354 C2363 1.390 . S
C2355 C2354 1.387 1_556 S
C2355 C2357 1.387 . S
H2356 C2363 0.950 . S
C2357 C2355 1.387 . S
C2357 C2359 1.390 . S
C2357 H2361 0.950 . S
H2358 C2354 0.950 . S
C2359 C2357 1.390 . S
C2359 C2360 1.387 . S
C2359 H2362 0.950 . S
C2360 C2359 1.387 . S
C2360 C2363 1.387 1_556 S
H2361 C2357 0.950 . S
H2362 C2359 0.950 . S
C2363 C2354 1.390 . S
C2363 H2356 0.950 . S
C2363 C2360 1.387 1_554 S
C2364 C2365 1.387 . S
C2364 H2368 0.950 . S
C2364 C2373 1.390 . S
C2365 C2364 1.387 . S
C2365 C2367 1.387 . S
H2366 C2373 0.950 . S
C2367 C2365 1.387 . S
C2367 C2369 1.390 . S
C2367 H2371 0.950 . S
H2368 C2364 0.950 . S
C2369 C2367 1.390 . S
C2369 C2370 1.387 . S
C2369 H2372 0.950 . S
C2370 C2369 1.387 . S
C2370 C2373 1.387 . S
H2371 C2367 0.950 . S
H2372 C2369 0.950 . S
C2373 C2364 1.390 . S
C2373 H2366 0.950 . S
C2373 C2370 1.387 . S
C2374 C2375 1.387 . S
C2374 H2378 0.950 . S
C2374 C2383 1.390 . S
C2375 C2374 1.387 . S
C2375 C2377 1.387 . S
H2376 C2383 0.950 . S
C2377 C2375 1.387 . S
C2377 C2379 1.390 . S
C2377 H2381 0.950 . S
H2378 C2374 0.950 . S
C2379 C2377 1.390 . S
C2379 C2380 1.387 . S
C2379 H2382 0.950 . S
C2380 C2379 1.387 . S
C2380 C2383 1.387 . S
H2381 C2377 0.950 . S
H2382 C2379 0.950 . S
C2383 C2374 1.390 . S
C2383 H2376 0.950 . S
C2383 C2380 1.387 . S
C2384 C2385 1.387 . S
C2384 H2388 0.950 . S
C2384 C2393 1.390 . S
C2385 C2384 1.387 . S
C2385 C2387 1.387 . S
H2386 C2393 0.950 . S
C2387 C2385 1.387 . S
C2387 C2389 1.390 . S
C2387 H2391 0.950 . S
H2388 C2384 0.950 . S
C2389 C2387 1.390 . S
C2389 C2390 1.387 . S
C2389 H2392 0.950 . S
C2390 C2389 1.387 . S
C2390 C2393 1.387 . S
H2391 C2387 0.950 . S
H2392 C2389 0.950 . S
C2393 C2384 1.390 . S
C2393 H2386 0.950 . S
C2393 C2390 1.387 . S
C2394 C2395 1.387 . S
C2394 H2398 0.950 . S
C2394 C2403 1.390 1_565 S
C2395 C2394 1.387 . S
C2395 C2397 1.387 . S
H2396 C2403 0.950 . S
C2397 C2395 1.387 . S
C2397 C2399 1.390 1_565 S
C2397 H2401 0.950 . S
H2398 C2394 0.950 . S
C2399 C2397 1.390 1_545 S
C2399 C2400 1.387 . S
C2399 H2402 0.957 . S
C2400 C2399 1.387 . S
C2400 C2403 1.387 . S
H2401 C2397 0.950 . S
H2402 C2399 0.957 . S
C2403 C2394 1.390 1_545 S
C2403 H2396 0.950 . S
C2403 C2400 1.387 . S
C2404 C2405 1.387 . S
C2404 H2408 0.950 . S
C2404 C2413 1.390 1_655 S
C2405 C2404 1.387 . S
C2405 C2407 1.387 1_554 S
H2406 C2413 0.950 . S
C2407 C2405 1.387 1_556 S
C2407 C2409 1.390 1_655 S
C2407 H2411 0.950 . S
H2408 C2404 0.950 . S
C2409 C2407 1.390 1_455 S
C2409 C2410 1.387 1_556 S
C2409 H2412 0.950 . S
C2410 C2409 1.387 1_554 S
C2410 C2413 1.387 . S
H2411 C2407 0.950 . S
H2412 C2409 0.950 . S
C2413 C2404 1.390 1_455 S
C2413 H2406 0.950 . S
C2413 C2410 1.387 . S
C2414 C2415 1.387 1_556 S
C2414 H2418 0.950 . S
C2414 C2423 1.390 . S
C2415 C2414 1.387 1_554 S
C2415 C2417 1.387 . S
H2416 C2423 0.950 . S
C2417 C2415 1.387 . S
C2417 C2419 1.390 . S
C2417 H2421 0.950 . S
H2418 C2414 0.950 . S
C2419 C2417 1.390 . S
C2419 C2420 1.387 . S
C2419 H2422 0.950 . S
C2420 C2419 1.387 . S
C2420 C2423 1.387 1_554 S
H2421 C2417 0.950 . S
H2422 C2419 0.950 . S
C2423 C2414 1.390 . S
C2423 H2416 0.950 . S
C2423 C2420 1.387 1_556 S
C2424 C2425 1.387 . S
C2424 H2428 0.950 . S
C2424 C2433 1.390 1_655 S
C2425 C2424 1.387 . S
C2425 C2427 1.387 . S
H2426 C2433 0.950 . S
C2427 C2425 1.387 . S
C2427 C2429 1.390 1_655 S
C2427 H2431 0.950 . S
H2428 C2424 0.950 . S
C2429 C2427 1.390 1_455 S
C2429 C2430 1.387 . S
C2429 H2432 0.950 . S
C2430 C2429 1.387 . S
C2430 C2433 1.387 . S
H2431 C2427 0.950 . S
H2432 C2429 0.950 . S
C2433 C2424 1.390 1_455 S
C2433 H2426 0.950 . S
C2433 C2430 1.387 . S
C2434 C2435 1.387 . S
C2434 H2438 0.950 . S
C2434 C2443 1.390 . S
C2435 C2434 1.387 . S
C2435 C2437 1.387 . S
H2436 C2443 0.950 . S
C2437 C2435 1.387 . S
C2437 C2439 1.390 . S
C2437 H2441 0.950 . S
H2438 C2434 0.950 . S
C2439 C2437 1.390 . S
C2439 C2440 1.387 . S
C2439 H2442 0.950 . S
C2440 C2439 1.387 . S
C2440 C2443 1.387 . S
H2441 C2437 0.950 . S
H2442 C2439 0.950 . S
C2443 C2434 1.390 . S
C2443 H2436 0.950 . S
C2443 C2440 1.387 . S
C2444 C2445 1.387 . S
C2444 H2448 0.950 . S
C2444 C2453 1.390 1_545 S
C2445 C2444 1.387 . S
C2445 C2447 1.387 . S
H2446 C2453 0.950 . S
C2447 C2445 1.387 . S
C2447 C2449 1.390 1_545 S
C2447 H2451 0.950 . S
H2448 C2444 0.950 . S
C2449 C2447 1.390 1_565 S
C2449 C2450 1.387 . S
C2449 H2452 0.950 . S
C2450 C2449 1.387 . S
C2450 C2453 1.387 . S
H2451 C2447 0.950 . S
H2452 C2449 0.950 . S
C2453 C2444 1.390 1_565 S
C2453 H2446 0.950 . S
C2453 C2450 1.387 . S
C2454 C2455 1.387 . S
C2454 H2458 0.950 . S
C2454 C2463 1.390 . S
C2455 C2454 1.387 . S
C2455 C2457 1.387 1_655 S
H2456 C2463 0.950 . S
C2457 C2455 1.387 1_455 S
C2457 C2459 1.390 1_455 S
C2457 H2461 0.950 . S
H2458 C2454 0.950 . S
C2459 C2457 1.390 1_655 S
C2459 C2460 1.387 . S
C2459 H2462 0.934 1_655 S
C2460 C2459 1.387 . S
C2460 C2463 1.387 . S
H2461 C2457 0.950 . S
H2462 C2459 0.934 1_455 S
C2463 C2454 1.390 . S
C2463 H2456 0.950 . S
C2463 C2460 1.387 . S
C2464 C2465 1.387 . S
C2464 H2468 0.950 . S
C2464 C2473 1.390 . S
C2465 C2464 1.387 . S
C2465 C2467 1.387 . S
H2466 C2473 0.950 . S
C2467 C2465 1.387 . S
C2467 C2469 1.390 . S
C2467 H2471 0.950 . S
H2468 C2464 0.950 . S
C2469 C2467 1.390 . S
C2469 C2470 1.387 . S
C2469 H2472 0.950 . S
C2470 C2469 1.387 . S
C2470 C2473 1.387 . S
H2471 C2467 0.950 . S
H2472 C2469 0.950 . S
C2473 C2464 1.390 . S
C2473 H2466 0.950 . S
C2473 C2470 1.387 . S
C2474 C2475 1.387 . S
C2474 H2478 0.950 . S
C2474 C2483 1.390 . S
C2475 C2474 1.387 . S
C2475 C2477 1.387 . S
H2476 C2483 0.950 . S
C2477 C2475 1.387 . S
C2477 C2479 1.390 . S
C2477 H2481 0.950 . S
H2478 C2474 0.950 . S
C2479 C2477 1.390 . S
C2479 C2480 1.387 . S
C2479 H2482 0.950 . S
C2480 C2479 1.387 . S
C2480 C2483 1.387 . S
H2481 C2477 0.950 . S
H2482 C2479 0.950 . S
C2483 C2474 1.390 . S
C2483 H2476 0.950 . S
C2483 C2480 1.387 . S
C1225 C6 0.958 . S
C1230 C640 0.958 . S
C1235 C674 0.957 . S
C1240 C40 0.957 . S
C1245 C708 0.957 . S
C1250 C74 0.957 . S
C1255 C1128 0.958 . S
C1260 C108 0.958 . S
C1265 C164 0.957 . S
C1270 C1162 0.957 . S
C1275 C1196 0.957 . S
C1280 C176 0.957 . S
C1285 C822 0.958 . S
C1290 C232 0.958 . S
C1295 C266 0.958 . S
C1300 C856 0.958 . S
C1305 C300 0.957 . S
C1310 C890 0.957 . S
C1315 C312 0.958 . S
C1320 C538 0.958 . S
C1325 C550 0.957 . S
C1330 C346 0.957 . S
C1335 C380 0.958 . S
C1340 C606 0.958 . S
C1345 C1048 0.958 . S
C1350 C414 0.958 . S
C1355 C448 0.958 . S
C1360 C1082 0.958 . S
C1365 C1116 0.957 . S
C1370 C482 0.957 . S
C1375 C946 0.958 . S
C1380 C720 0.958 . S
C1385 C958 0.957 . S
C1390 C754 0.957 . S
C1395 C1014 0.957 . S
C1400 C788 0.957 . S
C1405 C22 1.613 1_655 S
C1410 C151 1.613 1_455 S
C1415 C56 1.617 . S
C1420 C192 1.617 . S
C1425 C124 1.617 1_565 S
C1430 C90 1.617 1_545 S
C1435 C219 1.616 1_455 S
C1440 C362 1.616 1_655 S
C1445 C253 1.613 . S
C1450 C396 1.613 . S
C1455 C287 1.617 1_565 S
C1460 C328 1.617 1_545 S
C1465 C566 1.613 . S
C1470 C430 1.613 . S
C1475 C464 1.616 . S
C1480 C593 1.616 . S
C1485 C525 1.613 . S
C1490 C498 1.613 . S
C1495 C627 1.617 . S
C1500 C770 1.617 . S
C1505 C661 1.614 . S
C1510 C804 1.613 . S
C1515 C695 1.617 . S
C1520 C736 1.617 . S
C1525 C838 1.617 . S
C1530 C974 1.617 . S
C1535 C872 1.617 . S
C1540 C1001 1.617 . S
C1545 C906 1.613 . S
C1550 C933 1.613 . S
C1555 C1035 1.614 . S
C1560 C1178 1.614 . S
C1565 C1212 1.617 . S
C1570 C1069 1.617 . S
C1575 C1144 1.613 . S
C1580 C1103 1.613 . S
C1585 C15 1.553 . S
C1590 C1008 1.553 . S
C1595 C940 1.554 . S
C1600 C49 1.552 . S
C1605 C967 1.552 . S
C1610 C83 1.555 . S
C1615 C117 1.553 . S
C1620 C457 1.555 . S
C1625 C491 1.555 . S
C1630 C158 1.552 . S
C1635 C423 1.553 . S
C1640 C185 1.553 . S
C1645 C226 1.553 . S
C1650 C797 1.553 . S
C1655 C260 1.555 . S
C1660 C729 1.553 . S
C1665 C294 1.554 . S
C1670 C763 1.555 . S
C1675 C1076 1.555 . S
C1680 C321 1.553 . S
C1685 C355 1.553 . S
C1690 C1110 1.555 . S
C1695 C1042 1.553 . S
C1700 C389 1.553 . S
C1705 C865 1.553 . S
C1710 C532 1.554 . S
C1715 C559 1.552 . S
C1720 C899 1.555 . S
C1725 C600 1.553 . S
C1730 C831 1.553 . S
C1735 C1205 1.553 . S
C1740 C634 1.553 . S
C1745 C668 1.552 . S
C1750 C1137 1.555 . S
C1755 C702 1.553 . S
C1760 C1171 1.554 . S
C1765 C69 2.144 1_545 S
C1770 C3 1.832 . S
C1775 C37 1.836 . S
C1780 C1 2.146 1_655 S
C1785 C35 2.144 . S
C1790 C71 1.832 . S
C1795 C139 2.144 1_455 S
C1800 C105 1.832 . S
C1805 C171 2.144 . S
C1810 C137 1.835 . S
C1815 C173 1.831 . S
C1820 C103 2.145 1_565 S
C1825 C275 2.145 1_565 S
C1830 C205 1.835 . S
C1835 C239 1.831 . S
C1840 C207 2.145 1_455 S
C1845 C273 1.835 . S
C1850 C241 2.147 . S
C1855 C341 2.147 1_655 S
C1860 C309 1.835 . S
C1865 C343 1.835 . S
C1870 C375 2.145 . S
C1875 C377 1.833 . S
C1880 C307 2.144 1_545 S
C1885 C477 2.145 . S
C1890 C411 1.831 . S
C1895 C409 2.146 . S
C1900 C445 1.832 . S
C1905 C443 2.144 . S
C1910 C479 1.832 . S
C1915 C511 1.832 . S
C1920 C545 2.144 . S
C1925 C581 2.145 . S
C1930 C547 1.836 . S
C1935 C513 2.146 . S
C1940 C579 1.836 . S
C1945 C613 1.832 . S
C1950 C683 2.146 . S
C1955 C647 1.836 . S
C1960 C615 2.146 . S
C1965 C649 2.144 . S
C1970 C681 1.832 . S
C1975 C717 1.832 . S
C1980 C749 2.145 . S
C1985 C751 1.834 . S
C1990 C783 2.146 . S
C1995 C715 2.148 . S
C2000 C785 1.832 . S
C2005 C819 1.833 . S
C2010 C885 2.147 . S
C2015 C817 2.144 . S
C2020 C853 1.835 . S
C2025 C887 1.832 . S
C2030 C851 2.144 . S
C2035 C919 1.835 . S
C2040 C953 2.149 . S
C2045 C989 2.147 . S
C2050 C955 1.836 . S
C2055 C987 1.835 . S
C2060 C921 2.146 . S
C2065 C1021 1.831 . S
C2070 C1091 2.146 . S
C2075 C1055 1.832 . S
C2080 C1023 2.146 . S
C2085 C1089 1.832 . S
C2090 C1057 2.144 . S
C2095 C1157 2.147 . S
C2100 C1125 1.835 . S
C2105 C1191 2.145 . S
C2110 C1159 1.836 . S
C2115 C1123 2.147 . S
C2120 C1193 1.833 . S
C2125 C28 1.377 . S
C2130 C697 1.315 . S
C2135 C629 1.315 1_565 S
C2140 C62 1.378 . S
C2145 C96 1.377 . S
C2150 C663 1.318 1_455 S
C2155 C1173 1.318 . S
C2160 C130 1.377 . S
C2165 C142 1.377 . S
C2170 C1207 1.319 1_545 S
C2175 C1139 1.319 1_655 S
C2180 C198 1.377 . S
C2185 C210 1.377 . S
C2190 C901 1.319 . S
C2195 C833 1.315 1_545 S
C2200 C244 1.378 . S
C2205 C278 1.378 . S
C2210 C867 1.317 1_655 S
C2215 C334 1.377 . S
C2220 C561 1.317 . S
C2225 C368 1.377 . S
C2230 C595 1.319 1_565 S
C2235 C527 1.315 1_455 S
C2240 C402 1.377 . S
C2245 C1105 1.319 . S
C2250 C436 1.377 . S
C2255 C1037 1.315 . S
C2260 C470 1.377 . S
C2265 C1071 1.317 . S
C2270 C504 1.377 . S
C2275 C357 1.315 . S
C2280 C516 1.377 1_455 S
C2285 C572 1.377 . S
C2290 C391 1.319 . S
C2295 C584 1.377 1_565 S
C2300 C323 1.315 . S
C2305 C618 1.377 1_565 S
C2310 C85 1.319 . S
C2315 C17 1.319 . S
C2320 C652 1.377 1_455 S
C2325 C51 1.317 . S
C2330 C686 1.378 . S
C2335 C969 1.317 . S
C2340 C742 1.377 . S
C2345 C776 1.378 . S
C2350 C1003 1.316 . S
C2355 C935 1.319 . S
C2360 C810 1.377 . S
C2365 C289 1.315 . S
C2370 C844 1.377 1_545 S
C2375 C221 1.319 . S
C2380 C878 1.377 1_655 S
C2385 C255 1.318 . S
C2390 C912 1.378 . S
C2395 C924 1.377 . S
C2400 C765 1.317 . S
C2405 C799 1.319 . S
C2410 C980 1.377 . S
C2415 C992 1.378 . S
C2420 C731 1.316 . S
C2425 C493 1.319 . S
C2430 C1026 1.377 . S
C2435 C1060 1.377 . S
C2440 C425 1.315 . S
C2445 C459 1.317 . S
C2450 C1094 1.377 . S
C2455 C1150 1.377 1_655 S
C2460 C153 1.317 . S
C2465 C187 1.315 . S
C2470 C1184 1.378 . S
C2475 C119 1.319 . S
C2480 C1218 1.377 1_545 S
