# Generated by pormake.
# Topology wjf, (4)-cn, num edge types: 1
# Building blocks:
#     Node 0, Type 0, BuildingBlock: NAHDIM_clean_sbu_0, # of connection points: 4
#     Node 1, Type 0, BuildingBlock: NAHDIM_clean_sbu_0, # of connection points: 4
#     Node 2, Type 0, BuildingBlock: NAHDIM_clean_sbu_0, # of connection points: 4
#     Node 3, Type 0, BuildingBlock: NAHDIM_clean_sbu_0, # of connection points: 4
#     Node 4, Type 0, BuildingBlock: NAHDIM_clean_sbu_0, # of connection points: 4
#     Node 5, Type 0, BuildingBlock: NAHDIM_clean_sbu_0, # of connection points: 4
#     Node 6, Type 0, BuildingBlock: NAHDIM_clean_sbu_0, # of connection points: 4
#     Node 7, Type 0, BuildingBlock: NAHDIM_clean_sbu_0, # of connection points: 4
#     Node 8, Type 0, BuildingBlock: NAHDIM_clean_sbu_0, # of connection points: 4
#     Node 9, Type 0, BuildingBlock: NAHDIM_clean_sbu_0, # of connection points: 4
#     Node 10, Type 0, BuildingBlock: NAHDIM_clean_sbu_0, # of connection points: 4
#     Node 11, Type 0, BuildingBlock: NAHDIM_clean_sbu_0, # of connection points: 4
#     Edge 12, Type (0, 0), BuildingBlock: AJUNOK_clean_linker_0, # of connection points: 2
#     Edge 13, Type (0, 0), BuildingBlock: AJUNOK_clean_linker_0, # of connection points: 2
#     Edge 14, Type (0, 0), BuildingBlock: AJUNOK_clean_linker_0, # of connection points: 2
#     Edge 15, Type (0, 0), BuildingBlock: AJUNOK_clean_linker_0, # of connection points: 2
#     Edge 16, Type (0, 0), BuildingBlock: AJUNOK_clean_linker_0, # of connection points: 2
#     Edge 17, Type (0, 0), BuildingBlock: AJUNOK_clean_linker_0, # of connection points: 2
#     Edge 18, Type (0, 0), BuildingBlock: AJUNOK_clean_linker_0, # of connection points: 2
#     Edge 19, Type (0, 0), BuildingBlock: AJUNOK_clean_linker_0, # of connection points: 2
#     Edge 20, Type (0, 0), BuildingBlock: AJUNOK_clean_linker_0, # of connection points: 2
#     Edge 21, Type (0, 0), BuildingBlock: AJUNOK_clean_linker_0, # of connection points: 2
#     Edge 22, Type (0, 0), BuildingBlock: AJUNOK_clean_linker_0, # of connection points: 2
#     Edge 23, Type (0, 0), BuildingBlock: AJUNOK_clean_linker_0, # of connection points: 2
#     Edge 24, Type (0, 0), BuildingBlock: AJUNOK_clean_linker_0, # of connection points: 2
#     Edge 25, Type (0, 0), BuildingBlock: AJUNOK_clean_linker_0, # of connection points: 2
#     Edge 26, Type (0, 0), BuildingBlock: AJUNOK_clean_linker_0, # of connection points: 2
#     Edge 27, Type (0, 0), BuildingBlock: AJUNOK_clean_linker_0, # of connection points: 2
#     Edge 28, Type (0, 0), BuildingBlock: AJUNOK_clean_linker_0, # of connection points: 2
#     Edge 29, Type (0, 0), BuildingBlock: AJUNOK_clean_linker_0, # of connection points: 2
#     Edge 30, Type (0, 0), BuildingBlock: AJUNOK_clean_linker_0, # of connection points: 2
#     Edge 31, Type (0, 0), BuildingBlock: AJUNOK_clean_linker_0, # of connection points: 2
#     Edge 32, Type (0, 0), BuildingBlock: AJUNOK_clean_linker_0, # of connection points: 2
#     Edge 33, Type (0, 0), BuildingBlock: AJUNOK_clean_linker_0, # of connection points: 2
#     Edge 34, Type (0, 0), BuildingBlock: AJUNOK_clean_linker_0, # of connection points: 2
#     Edge 35, Type (0, 0), BuildingBlock: AJUNOK_clean_linker_0, # of connection points: 2
# Relax obj value: 0.230
# Max RMSD: 0.247
# Mean RMSD: 0.247
data_MOF--net-wjf--node1-NAHDIM_clean_sbu_0--edge1-AJUNOK_clean_linker_0
_symmetry_space_group_name_H-M    P1
_symmetry_Int_Tables_number       1
_symmetry_cell_setting            triclinic
loop_
_symmetry_equiv_pos_as_xyz
'x, y, z'
_cell_length_a     38.893281
_cell_length_b     38.949609
_cell_length_c     18.928975
_cell_angle_alpha  89.924814
_cell_angle_beta   90.052965
_cell_angle_gamma 119.78375
loop_
_atom_site_label
_atom_site_type_symbol
_atom_site_fract_x
_atom_site_fract_y
_atom_site_fract_z
_atom_type_partial_charge
C0 C 0.26786 0.43711 0.10377 0.0
O1 O 0.25121 0.40766 0.1489 0.0
O2 O 0.31176 0.38695 0.19833 0.0
Zn3 Zn 0.33022 0.41814 0.10778 0.0
O4 O 0.31734 0.38399 0.02181 0.0
C5 C 0.41066 0.43863 0.13558 0.0
O6 O 0.39326 0.40128 0.15449 0.0
O7 O 0.30356 0.4497 0.0856 0.0
C8 C 0.326 0.35759 0.00591 0.0
O9 O 0.34563 0.34825 0.05121 0.0
C10 C 0.29147 0.34948 0.20309 0.0
O11 O 0.27718 0.3283 0.14551 0.0
O12 O 0.38956 0.45322 0.11425 0.0
C13 C 0.86943 0.27591 0.4439 0.0
O14 O 0.88686 0.27577 0.50324 0.0
O15 O 0.97703 0.33856 0.48061 0.0
Zn16 Zn 0.94619 0.34324 0.39974 0.0
O17 O 0.96811 0.33891 0.30606 0.0
C18 C 0.99031 0.42558 0.40503 0.0
O19 O 0.01811 0.41612 0.39649 0.0
O20 O 0.88831 0.30322 0.3993 0.0
C21 C 0.94702 0.31239 0.26115 0.0
O22 O 0.91109 0.2848 0.2784 0.0
C23 C 0.98057 0.31043 0.50675 0.0
O24 O 0.96009 0.27455 0.48073 0.0
O25 O 0.95437 0.39807 0.4068 0.0
C26 C 0.59555 0.86578 0.74002 0.0
O27 O 0.63006 0.89848 0.7423 0.0
O28 O 0.61617 0.94682 0.85336 0.0
Zn29 Zn 0.58033 0.92508 0.76824 0.0
O30 O 0.60453 0.94817 0.67417 0.0
C31 C 0.54537 0.97208 0.7877 0.0
O32 O 0.58333 -0.00179 0.7864 0.0
O33 O 0.56472 0.86776 0.7553 0.0
C34 C 0.62955 0.9819 0.65036 0.0
O35 O 0.64679 0.01223 0.69343 0.0
C36 C 0.65316 0.97069 0.85887 0.0
O37 O 0.675 0.98506 0.80199 0.0
O38 O 0.53479 0.93555 0.78231 0.0
C39 C 0.73748 0.59593 0.0968 0.0
O40 O 0.74045 0.63 0.11373 0.0
O41 O 0.67408 0.61143 0.2145 0.0
Zn42 Zn 0.66242 0.5801 0.12384 0.0
O43 O 0.6657 0.61199 0.0381 0.0
C44 C 0.58111 0.54097 0.16031 0.0
O45 O 0.59386 0.57515 0.19201 0.0
O46 O 0.70382 0.56485 0.1026 0.0
C47 C 0.64 0.62094 0.01826 0.0
O48 O 0.60944 0.6121 0.05911 0.0
C49 C 0.68017 0.64664 0.21778 0.0
O50 O 0.68371 0.66587 0.15877 0.0
O51 O 0.60598 0.53417 0.12852 0.0
C52 C 0.15583 0.70554 0.31644 0.0
O53 O 0.13242 0.67872 0.27067 0.0
O54 O 0.06536 0.68945 0.47876 0.0
Zn55 Zn 0.08278 0.67453 0.38883 0.0
O56 O 0.05876 0.6812 0.29959 0.0
C57 C 0.03703 0.59215 0.42684 0.0
O58 O 0.01511 0.60433 0.45884 0.0
O59 O 0.14139 0.70841 0.37494 0.0
C60 C 0.02383 0.65716 0.27907 0.0
O61 O -0.00031 0.6285 0.32125 0.0
C62 C 0.03272 0.68891 0.48802 0.0
O63 O 0.00868 0.6813 0.43421 0.0
O64 O 0.06831 0.61725 0.39497 0.0
C65 C 0.35755 0.108 0.72645 0.0
O66 O 0.32336 0.0753 0.73398 0.0
O67 O 0.34978 0.03717 0.86477 0.0
Zn68 Zn 0.37775 0.05298 0.7713 0.0
O69 O 0.34476 0.01826 0.69167 0.0
C70 C 0.42637 0.02057 0.81534 0.0
O71 O 0.39473 -0.00137 0.85364 0.0
O72 O 0.38894 0.10752 0.74361 0.0
C73 C 0.34212 0.98534 0.67646 0.0
O74 O 0.3581 0.97043 0.71878 0.0
C75 C 0.31587 0.00719 0.87545 0.0
O76 O 0.29533 0.98562 0.82138 0.0
O77 O 0.42719 0.04789 0.77701 0.0
C78 C 0.59717 0.72624 0.63409 0.0
O79 O 0.63104 0.72655 0.6386 0.0
O80 O 0.62037 0.66058 0.53036 0.0
Zn81 Zn 0.57874 0.65004 0.6038 0.0
O82 O 0.59594 0.64451 0.70049 0.0
C83 C 0.54027 0.56968 0.57543 0.0
O84 O 0.57762 0.57914 0.58118 0.0
O85 O 0.56688 0.69473 0.6131 0.0
C86 C 0.6305 0.65484 0.72284 0.0
O87 O 0.66049 0.66999 0.67865 0.0
C88 C 0.62525 0.68186 0.47625 0.0
O89 O 0.60495 0.70045 0.47108 0.0
O90 O 0.53149 0.59697 0.58184 0.0
C91 C 0.86424 0.60548 0.92143 0.0
O92 O 0.8939 0.64084 0.90667 0.0
O93 O 0.93923 0.62538 0.78291 0.0
Zn94 Zn 0.92295 0.59344 0.8734 0.0
O95 O 0.95244 0.62588 0.95761 0.0
C96 C 0.94771 0.54104 0.81068 0.0
O97 O 0.94869 0.55974 0.75229 0.0
O98 O 0.8665 0.57546 0.90169 0.0
C99 C 0.98359 0.62837 0.98378 0.0
O100 O 0.00231 0.61328 0.94945 0.0
C101 C 0.97475 0.65315 0.77475 0.0
O102 O -0.00067 0.66281 0.82826 0.0
O103 O 0.93549 0.54899 0.86731 0.0
C104 C 0.30127 0.84147 0.22394 0.0
O105 O 0.31234 0.84692 0.1574 0.0
O106 O 0.33254 0.95382 0.18235 0.0
Zn107 Zn 0.35111 0.92894 0.25447 0.0
O108 O 0.35199 0.94949 0.35069 0.0
C109 C 0.43089 0.98143 0.23132 0.0
O110 O 0.4166 0.0049 0.24587 0.0
O111 O 0.31457 0.87083 0.26546 0.0
C112 C 0.32115 0.94584 0.38058 0.0
O113 O 0.28789 0.93186 0.34495 0.0
C114 C 0.30004 0.93747 0.14854 0.0
O115 O 0.27355 0.90057 0.16247 0.0
O116 O 0.40723 0.94426 0.23047 0.0
C117 C 0.35429 0.24553 0.61377 0.0
O118 O 0.32064 0.24545 0.62093 0.0
O119 O 0.33424 0.31707 0.51702 0.0
Zn120 Zn 0.37421 0.32295 0.59054 0.0
O121 O 0.3564 0.32513 0.68833 0.0
C122 C 0.41567 0.40446 0.57311 0.0
O123 O 0.37889 0.39653 0.58142 0.0
O124 O 0.3846 0.27726 0.59353 0.0
C125 C 0.3243 0.32269 0.70923 0.0
O126 O 0.29753 0.31902 0.66289 0.0
C127 C 0.32749 0.2962 0.46176 0.0
O128 O 0.34395 0.27397 0.45548 0.0
O129 O 0.42277 0.37588 0.57384 0.0
C130 C 0.15367 0.44005 0.91437 0.0
O131 O 0.15038 0.42034 0.85613 0.0
O132 O 0.06928 0.38907 0.79758 0.0
Zn133 Zn 0.07058 0.41403 0.89137 0.0
O134 O 0.04137 0.37393 0.96608 0.0
C135 C 0.02501 0.44584 0.82576 0.0
O136 O 0.02165 0.4215 0.77486 0.0
O137 O 0.12496 0.4446 0.93364 0.0
C138 C 0.00424 0.35592 0.97599 0.0
O139 O 0.98133 0.36012 0.92986 0.0
C140 C 0.04888 0.35231 0.78416 0.0
O141 O 0.0307 0.32749 0.83622 0.0
O142 O 0.04497 0.44811 0.88066 0.0
C143 C 0.74667 0.13414 0.31287 0.0
O144 O 0.75071 0.10274 0.3188 0.0
O145 O 0.69673 0.06191 0.15302 0.0
Zn146 Zn 0.67988 0.07669 0.24343 0.0
O147 O 0.67712 0.04365 0.32711 0.0
C148 C 0.5995 0.03997 0.19415 0.0
O149 O 0.6108 0.0178 0.16048 0.0
O150 O 0.71878 0.13224 0.27483 0.0
C151 C 0.64699 0.0126 0.34944 0.0
O152 O 0.61476 -0.00428 0.31069 0.0
C153 C 0.69286 0.02784 0.14412 0.0
O154 O 0.6815 0.00316 0.19774 0.0
O155 O 0.62478 0.06884 0.23101 0.0
C156 C 0.29894 0.35246 0.33399 0.0
C157 C 0.29134 0.33063 0.27116 0.0
C158 C 0.30752 0.33941 0.39698 0.0
C159 C 0.30944 0.30427 0.39943 0.0
H160 H 0.30015 0.38086 0.33382 0.0
H161 H 0.31518 0.35844 0.44285 0.0
S162 S 0.28589 0.23319 0.25216 0.0
N163 N 0.28145 0.26967 0.21726 0.0
N164 N 0.29809 0.24536 0.33568 0.0
C165 C 0.29882 0.28059 0.3384 0.0
C166 C 0.2896 0.29369 0.27426 0.0
C167 C 0.99055 0.29021 0.62711 0.0
C168 C 0.00396 0.31819 0.5722 0.0
C169 C 0.00732 0.30059 0.69488 0.0
C170 C 0.03821 0.33921 0.70975 0.0
H171 H 0.9652 0.26103 0.6191 0.0
H172 H -0.00568 0.27885 0.73669 0.0
S173 S 0.08897 0.42057 0.57929 0.0
N174 N 0.05341 0.38403 0.53387 0.0
N175 N 0.08542 0.40346 0.66035 0.0
C176 C 0.05429 0.36614 0.65318 0.0
C177 C 0.03698 0.35566 0.58464 0.0
C178 C 0.65369 0.95888 0.98787 0.0
C179 C 0.66995 0.98463 0.92996 0.0
C180 C 0.66391 0.97261 0.05725 0.0
C181 C 0.69009 0.01284 0.07134 0.0
H182 H 0.63175 0.92809 0.97959 0.0
H183 H 0.64912 0.95194 0.10001 0.0
S184 S 0.7439 0.09158 0.93803 0.0
N185 N 0.71632 0.05144 0.89082 0.0
N186 N 0.73486 0.0776 0.02157 0.0
C187 C 0.70836 0.03846 0.01382 0.0
C188 C 0.69848 0.02426 0.94299 0.0
C189 C 0.66939 0.63969 0.34835 0.0
C190 C 0.6745 0.66171 0.28632 0.0
C191 C 0.65605 0.64819 0.41103 0.0
C192 C 0.647 0.67895 0.41424 0.0
H193 H 0.67385 0.61436 0.34782 0.0
H194 H 0.65067 0.62896 0.45604 0.0
S195 S 0.66212 0.75006 0.27058 0.0
N196 N 0.67463 0.71915 0.23497 0.0
N197 N 0.6493 0.73493 0.35279 0.0
C198 C 0.65508 0.70327 0.35443 0.0
C199 C 0.66893 0.69475 0.29052 0.0
C200 C 0.96345 0.65614 0.64507 0.0
C201 C 0.98968 0.66911 0.70297 0.0
C202 C 0.97746 0.66516 0.57548 0.0
C203 C 0.01829 0.68722 0.56103 0.0
H204 H 0.9319 0.63733 0.6532 0.0
H205 H 0.95622 0.65268 0.53276 0.0
S206 S 0.09902 0.73374 0.69329 0.0
N207 N 0.05829 0.70959 0.74087 0.0
N208 N 0.08444 0.72594 0.61006 0.0
C209 C 0.04463 0.7028 0.61829 0.0
C210 C 0.03038 0.69395 0.68923 0.0
C211 C 0.2736 0.93457 0.02697 0.0
C212 C 0.29658 0.95728 0.08441 0.0
C213 C 0.27753 0.95167 0.96007 0.0
C214 C 0.30453 0.99204 0.94849 0.0
H215 H 0.25461 0.90287 0.03224 0.0
H216 H 0.26135 0.93247 0.91635 0.0
S217 S 0.36441 0.06589 0.08557 0.0
N218 N 0.34198 0.02332 0.12829 0.0
N219 N 0.34926 0.05549 0.00286 0.0
C220 C 0.32445 0.01576 0.00723 0.0
C221 C 0.32051 -0.00164 0.07514 0.0
C222 C 0.22221 0.45343 0.94007 0.0
C223 C 0.18581 0.44794 0.96504 0.0
C224 C 0.25027 0.45334 0.98649 0.0
C225 C 0.2425 0.44677 0.05941 0.0
H226 H 0.22839 0.45614 0.88391 0.0
H227 H 0.277 0.45563 0.96427 0.0
S228 S 0.15326 0.43436 0.15253 0.0
N229 N 0.14498 0.43922 0.06853 0.0
N230 N 0.19732 0.43782 0.15515 0.0
C231 C 0.20723 0.44344 0.08557 0.0
C232 C 0.17898 0.44438 0.03855 0.0
C233 C 0.81408 0.24217 0.35713 0.0
C234 C 0.8328 0.24032 0.41981 0.0
C235 C 0.78482 0.20778 0.32419 0.0
C236 C 0.77363 0.17034 0.35229 0.0
H237 H 0.82331 0.2703 0.33148 0.0
H238 H 0.77239 0.21047 0.27464 0.0
S239 S 0.80846 0.14926 0.52085 0.0
N240 N 0.83415 0.19787 0.51301 0.0
N241 N 0.7795 0.13334 0.45066 0.0
C242 C 0.78999 0.16811 0.4173 0.0
C243 C 0.81941 0.2031 0.45133 0.0
C244 C 0.6293 0.82819 0.70689 0.0
C245 C 0.59368 0.82883 0.71484 0.0
C246 C 0.62983 0.79517 0.67969 0.0
C247 C 0.59475 0.7611 0.65901 0.0
H248 H 0.65737 0.85353 0.72167 0.0
H249 H 0.65825 0.79654 0.67515 0.0
S250 S 0.49329 0.74737 0.66837 0.0
N251 N 0.52212 0.79243 0.69938 0.0
N252 N 0.52305 0.72993 0.64825 0.0
C253 C 0.55872 0.76113 0.66648 0.0
C254 C 0.55818 0.79501 0.69453 0.0
C255 C 0.76404 0.56508 0.01202 0.0
C256 C 0.77085 0.59559 0.0597 0.0
C257 C 0.79448 0.5679 0.96799 0.0
C258 C 0.83253 0.60149 0.96974 0.0
H259 H 0.73469 0.53959 0.00662 0.0
H260 H 0.78785 0.54427 0.93085 0.0
S261 S 0.8671 0.68645 0.0931 0.0
N262 N 0.81968 0.65809 0.11169 0.0
N263 N 0.8764 0.66367 0.02882 0.0
C264 C 0.84012 0.63114 0.01978 0.0
C265 C 0.80941 0.62809 0.06482 0.0
C266 C 0.20661 0.74222 0.22307 0.0
C267 C 0.19627 0.73619 0.29518 0.0
C268 C 0.24198 0.77512 0.20036 0.0
C269 C 0.26832 0.8031 0.24898 0.0
H270 H 0.18632 0.72261 0.18334 0.0
H271 H 0.24757 0.77969 0.14413 0.0
S272 S 0.25854 0.79689 0.44456 0.0
N273 N 0.21771 0.75807 0.41559 0.0
N274 N 0.28423 0.81961 0.37327 0.0
C275 C 0.25981 0.79564 0.3216 0.0
C276 C 0.22378 0.76228 0.34462 0.0
C277 C 0.32262 0.14256 0.68113 0.0
C278 C 0.35861 0.14364 0.69594 0.0
C279 C 0.32182 0.17523 0.65252 0.0
C280 C 0.35695 0.21055 0.63713 0.0
H281 H 0.29454 0.11631 0.69228 0.0
H282 H 0.29319 0.17279 0.64329 0.0
S283 S 0.45927 0.22859 0.6631 0.0
N284 N 0.43056 0.18278 0.69092 0.0
N285 N 0.42904 0.24443 0.63698 0.0
C286 C 0.3933 0.21195 0.65007 0.0
C287 C 0.39413 0.17851 0.67962 0.0
C288 C 0.34214 0.31863 0.834 0.0
C289 C 0.31903 0.32609 0.78573 0.0
C290 C 0.34228 0.32654 0.90604 0.0
C291 C 0.31962 0.34262 0.93255 0.0
H292 H 0.3613 0.30766 0.81574 0.0
H293 H 0.36186 0.32184 0.9404 0.0
S294 S 0.25023 0.36302 0.82979 0.0
N295 N 0.26998 0.34689 0.7705 0.0
N296 N 0.27025 0.36197 0.90615 0.0
C297 C 0.29444 0.34792 0.88562 0.0
C298 C 0.2941 0.33956 0.81214 0.0
C299 C 0.00149 0.33872 0.17279 0.0
C300 C 0.96076 0.31667 0.18729 0.0
C301 C 0.01529 0.34892 0.10355 0.0
C302 C 0.98884 0.3381 0.04611 0.0
H303 H 0.02289 0.34941 0.21548 0.0
H304 H 0.04693 0.36733 0.09572 0.0
S305 S 0.87946 0.27613 0.05503 0.0
N306 N 0.89415 0.28083 0.13808 0.0
N307 N 0.92022 0.30077 0.00768 0.0
C308 C 0.94815 0.314 0.05941 0.0
C309 C 0.93407 0.30305 0.13007 0.0
C310 C 0.66643 0.02339 0.54622 0.0
C311 C 0.63641 0.98719 0.57311 0.0
C312 C 0.67112 0.03042 0.4734 0.0
C313 C 0.64562 0.0017 0.4246 0.0
H314 H 0.68591 0.04692 0.5816 0.0
H315 H 0.6938 0.05935 0.45557 0.0
S316 S 0.5652 0.90037 0.46684 0.0
N317 N 0.58303 0.92078 0.54444 0.0
N318 N 0.59165 0.93458 0.40769 0.0
C319 C 0.61677 0.96472 0.45042 0.0
C320 C 0.61222 0.9573 0.5246 0.0
C321 C 0.6051 0.64259 0.8463 0.0
C322 C 0.636 0.65018 0.79894 0.0
C323 C 0.60762 0.63523 0.91781 0.0
C324 C 0.64104 0.63485 0.94504 0.0
H325 H 0.57824 0.64162 0.82794 0.0
H326 H 0.58244 0.62839 0.9513 0.0
S327 S 0.73178 0.65655 0.84474 0.0
N328 N 0.70233 0.65963 0.7853 0.0
N329 N 0.70718 0.6457 0.92004 0.0
C330 C 0.67303 0.64421 0.89903 0.0
C331 C 0.67049 0.65189 0.82594 0.0
C332 C 0.04325 0.66472 0.1523 0.0
C333 C 0.01384 0.6559 0.20366 0.0
C334 C 0.03347 0.65706 0.08062 0.0
C335 C -0.00585 0.64136 0.05773 0.0
H336 H 0.07374 0.67552 0.16786 0.0
H337 H 0.05669 0.66251 0.04313 0.0
S338 S 0.90688 0.61698 0.17083 0.0
N339 N 0.94438 0.63304 0.22664 0.0
N340 N 0.92595 0.61981 0.09171 0.0
C341 C 0.96483 0.63472 0.10819 0.0
C342 C 0.9747 0.64166 0.18129 0.0
C343 C 0.34527 0.94254 0.50013 0.0
C344 C 0.32212 0.9526 0.45711 0.0
C345 C 0.34916 0.95067 0.57243 0.0
C346 C 0.33073 0.96996 0.60404 0.0
H347 H 0.36102 0.92875 0.47753 0.0
H348 H 0.36848 0.94364 0.60283 0.0
S349 S 0.2644 -0.00033 0.51529 0.0
N350 N 0.2781 0.98001 0.45166 0.0
N351 N 0.28634 -0.00343 0.58787 0.0
C352 C 0.30614 0.97873 0.56216 0.0
C353 C 0.30157 0.96968 0.48855 0.0
C354 C 0.471 0.50462 0.15195 0.0
C355 C 0.45419 0.46372 0.14123 0.0
C356 C 0.512 0.52902 0.1591 0.0
C357 C 0.53793 0.51366 0.15436 0.0
H358 H 0.45232 0.51789 0.15583 0.0
H359 H 0.52345 0.56037 0.16737 0.0
S360 S 0.50898 0.40862 0.12497 0.0
N361 N 0.46659 0.40878 0.12575 0.0
N362 N 0.54391 0.45501 0.13751 0.0
C363 C 0.52162 0.47288 0.1428 0.0
C364 C 0.47969 0.44782 0.13679 0.0
C365 C 0.05119 0.53753 0.40089 0.0
C366 C 0.02443 0.54948 0.4242 0.0
C367 C 0.03986 0.49746 0.39542 0.0
C368 C 0.00116 0.46763 0.41226 0.0
H369 H 0.08125 0.55929 0.38661 0.0
H370 H 0.06163 0.48991 0.377 0.0
S371 S 0.91972 0.48305 0.47693 0.0
N372 N 0.95746 0.52812 0.4654 0.0
N373 N 0.9361 0.45278 0.45446 0.0
C374 C 0.97406 0.47908 0.43605 0.0
C375 C 0.98573 0.51998 0.44229 0.0
C376 C 0.47765 0.95922 0.82073 0.0
C377 C 0.51579 0.98535 0.795 0.0
C378 C 0.44937 0.97128 0.82864 0.0
C379 C 0.45786 0.00976 0.80997 0.0
H380 H 0.46959 0.92925 0.83541 0.0
H381 H 0.42034 0.94992 0.84835 0.0
S382 S 0.55333 0.08955 0.7395 0.0
N383 N 0.56069 0.05167 0.75097 0.0
N384 N 0.5073 0.074 0.76482 0.0
C385 C 0.49587 0.03619 0.78405 0.0
C386 C 0.52488 0.02409 0.77689 0.0
C387 C 0.46893 0.51675 0.57666 0.0
C388 C 0.50898 0.52758 0.56832 0.0
C389 C 0.43908 0.47696 0.57645 0.0
C390 C 0.44796 0.44626 0.56788 0.0
H391 H 0.46051 0.53908 0.58522 0.0
H392 H 0.40884 0.47033 0.58465 0.0
S393 S 0.54783 0.45885 0.53712 0.0
N394 N 0.55572 0.50434 0.54612 0.0
N395 N 0.49958 0.42963 0.54599 0.0
C396 C 0.48773 0.45668 0.55683 0.0
C397 C 0.5182 0.49728 0.55697 0.0
C398 C 0.97603 0.5055 0.87813 0.0
C399 C 0.96531 0.51484 0.81278 0.0
C400 C -0.00447 0.48344 0.88175 0.0
C401 C 0.00462 0.46934 0.82025 0.0
H402 H 0.9701 0.516 0.92707 0.0
H403 H 0.00334 0.47725 0.93328 0.0
S404 S 0.98253 0.48494 0.63593 0.0
N405 N 0.96502 0.50782 0.68495 0.0
N406 N 0.00122 0.466 0.69191 0.0
C407 C -0.00643 0.47788 0.75457 0.0
C408 C 0.97407 0.50072 0.75079 0.0
C409 C 0.52842 0.98824 0.18002 0.0
C410 C 0.55676 0.02725 0.19857 0.0
C411 C 0.48786 0.97385 0.19011 0.0
C412 C 0.47389 -0.00198 0.21836 0.0
H413 H 0.53759 0.96811 0.15939 0.0
H414 H 0.46735 0.9434 0.17616 0.0
S415 S 0.53572 0.10333 0.27129 0.0
N416 N 0.56792 0.09039 0.24368 0.0
N417 N 0.4917 0.06362 0.26204 0.0
C418 C 0.50182 0.03754 0.23502 0.0
C419 C 0.54321 0.05207 0.22532 0.0
loop_
_geom_bond_atom_site_label_1
_geom_bond_atom_site_label_2
_geom_bond_distance
_geom_bond_site_symmetry_2
_ccdc_geom_bond_type
C0 O1 1.160 . S
C0 O7 1.185 . S
O1 C0 1.160 . S
O2 Zn3 1.899 . S
O2 C10 1.284 . S
Zn3 O2 1.899 . S
Zn3 O4 2.032 1_554 S
Zn3 O7 2.086 . S
Zn3 O12 1.977 . S
O4 Zn3 2.032 1_556 S
O4 C8 1.278 . S
C5 O6 1.203 . S
C5 O12 1.267 . S
O6 C5 1.203 . S
O7 C0 1.185 . S
O7 Zn3 2.086 . S
C8 O4 1.278 . S
C8 O9 1.211 . S
O9 C8 1.211 . S
C10 O2 1.284 . S
C10 O11 1.273 . S
O11 C10 1.273 . S
O12 Zn3 1.977 . S
O12 C5 1.267 . S
C13 O14 1.160 . S
C13 O20 1.185 . S
O14 C13 1.160 . S
O15 Zn16 1.899 . S
O15 C23 1.284 . S
Zn16 O15 1.899 . S
Zn16 O17 2.032 . S
Zn16 O20 2.086 . S
Zn16 O25 1.977 . S
O17 Zn16 2.032 . S
O17 C21 1.268 1_655 S
C18 O19 1.203 . S
C18 O25 1.267 . S
O19 C18 1.203 . S
O20 C13 1.185 . S
O20 Zn16 2.086 . S
C21 O17 1.268 1_455 S
C21 O22 1.212 . S
O22 C21 1.212 . S
C23 O15 1.284 . S
C23 O24 1.273 1_655 S
O24 C23 1.273 1_455 S
O25 Zn16 1.977 . S
O25 C18 1.267 . S
C26 O27 1.160 . S
C26 O33 1.185 . S
O27 C26 1.160 . S
O28 Zn29 1.899 . S
O28 C36 1.284 . S
Zn29 O28 1.899 . S
Zn29 O30 2.032 . S
Zn29 O33 2.086 . S
Zn29 O38 1.977 . S
O30 Zn29 2.032 . S
O30 C34 1.262 1_565 S
C31 O32 1.203 . S
C31 O38 1.267 . S
O32 C31 1.203 . S
O33 C26 1.185 . S
O33 Zn29 2.086 . S
C34 O30 1.262 1_545 S
C34 O35 1.227 . S
O35 C34 1.227 . S
C36 O28 1.284 . S
C36 O37 1.273 1_565 S
O37 C36 1.273 1_545 S
O38 Zn29 1.977 . S
O38 C31 1.267 . S
C39 O40 1.160 . S
C39 O46 1.185 . S
O40 C39 1.160 . S
O41 Zn42 1.899 . S
O41 C49 1.284 . S
Zn42 O41 1.899 . S
Zn42 O43 2.032 1_554 S
Zn42 O46 2.086 . S
Zn42 O51 1.977 . S
O43 Zn42 2.032 1_556 S
O43 C47 1.278 . S
C44 O45 1.203 . S
C44 O51 1.267 . S
O45 C44 1.203 . S
O46 C39 1.185 . S
O46 Zn42 2.086 . S
C47 O43 1.278 . S
C47 O48 1.211 . S
O48 C47 1.211 . S
C49 O41 1.284 . S
C49 O50 1.273 . S
O50 C49 1.273 . S
O51 Zn42 1.977 . S
O51 C44 1.267 . S
C52 O53 1.160 . S
C52 O59 1.185 . S
O53 C52 1.160 . S
O54 Zn55 1.899 . S
O54 C62 1.284 . S
Zn55 O54 1.899 . S
Zn55 O56 2.032 . S
Zn55 O59 2.086 . S
Zn55 O64 1.977 . S
O56 Zn55 2.032 . S
O56 C60 1.268 1_455 S
C57 O58 1.203 . S
C57 O64 1.267 . S
O58 C57 1.203 . S
O59 C52 1.185 . S
O59 Zn55 2.086 . S
C60 O56 1.268 1_655 S
C60 O61 1.212 . S
O61 C60 1.212 . S
C62 O54 1.284 . S
C62 O63 1.273 1_455 S
O63 C62 1.273 1_655 S
O64 Zn55 1.977 . S
O64 C57 1.267 . S
C65 O66 1.160 . S
C65 O72 1.185 . S
O66 C65 1.160 . S
O67 Zn68 1.899 . S
O67 C75 1.284 . S
Zn68 O67 1.899 . S
Zn68 O69 2.032 . S
Zn68 O72 2.086 . S
Zn68 O77 1.977 . S
O69 Zn68 2.032 . S
O69 C73 1.262 1_545 S
C70 O71 1.203 . S
C70 O77 1.267 . S
O71 C70 1.203 . S
O72 C65 1.185 . S
O72 Zn68 2.086 . S
C73 O69 1.262 1_565 S
C73 O74 1.227 . S
O74 C73 1.227 . S
C75 O67 1.284 . S
C75 O76 1.273 1_545 S
O76 C75 1.273 1_565 S
O77 Zn68 1.977 . S
O77 C70 1.267 . S
C78 O79 1.160 . S
C78 O85 1.185 . S
O79 C78 1.160 . S
O80 Zn81 1.899 . S
O80 C88 1.284 . S
Zn81 O80 1.899 . S
Zn81 O82 2.032 . S
Zn81 O85 2.086 . S
Zn81 O90 1.977 . S
O82 Zn81 2.032 . S
O82 C86 1.278 . S
C83 O84 1.203 . S
C83 O90 1.267 . S
O84 C83 1.203 . S
O85 C78 1.185 . S
O85 Zn81 2.086 . S
C86 O82 1.278 . S
C86 O87 1.211 . S
O87 C86 1.211 . S
C88 O80 1.284 . S
C88 O89 1.273 . S
O89 C88 1.273 . S
O90 Zn81 1.977 . S
O90 C83 1.267 . S
C91 O92 1.160 . S
C91 O98 1.185 . S
O92 C91 1.160 . S
O93 Zn94 1.899 . S
O93 C101 1.284 . S
Zn94 O93 1.899 . S
Zn94 O95 2.032 1_556 S
Zn94 O98 2.086 . S
Zn94 O103 1.977 . S
O95 Zn94 2.032 1_554 S
O95 C99 1.262 1_655 S
C96 O97 1.203 . S
C96 O103 1.267 . S
O97 C96 1.203 . S
O98 C91 1.185 . S
O98 Zn94 2.086 . S
C99 O95 1.262 1_455 S
C99 O100 1.227 . S
O100 C99 1.227 . S
C101 O93 1.284 . S
C101 O102 1.273 1_655 S
O102 C101 1.273 1_455 S
O103 Zn94 1.977 . S
O103 C96 1.267 . S
C104 O105 1.160 . S
C104 O111 1.185 . S
O105 C104 1.160 . S
O106 Zn107 1.899 . S
O106 C114 1.284 . S
Zn107 O106 1.899 . S
Zn107 O108 2.032 . S
Zn107 O111 2.086 . S
Zn107 O116 1.977 . S
O108 Zn107 2.032 . S
O108 C112 1.268 1_565 S
C109 O110 1.203 . S
C109 O116 1.267 . S
O110 C109 1.203 . S
O111 C104 1.185 . S
O111 Zn107 2.086 . S
C112 O108 1.268 1_545 S
C112 O113 1.212 . S
O113 C112 1.212 . S
C114 O106 1.284 . S
C114 O115 1.273 1_565 S
O115 C114 1.273 1_545 S
O116 Zn107 1.977 . S
O116 C109 1.267 . S
C117 O118 1.160 . S
C117 O124 1.185 . S
O118 C117 1.160 . S
O119 Zn120 1.899 . S
O119 C127 1.284 . S
Zn120 O119 1.899 . S
Zn120 O121 2.032 . S
Zn120 O124 2.086 . S
Zn120 O129 1.977 . S
O121 Zn120 2.032 . S
O121 C125 1.278 . S
C122 O123 1.203 . S
C122 O129 1.267 . S
O123 C122 1.203 . S
O124 C117 1.185 . S
O124 Zn120 2.086 . S
C125 O121 1.278 . S
C125 O126 1.211 . S
O126 C125 1.211 . S
C127 O119 1.284 . S
C127 O128 1.273 . S
O128 C127 1.273 . S
O129 Zn120 1.977 . S
O129 C122 1.267 . S
C130 O131 1.160 . S
C130 O137 1.185 . S
O131 C130 1.160 . S
O132 Zn133 1.899 . S
O132 C140 1.284 . S
Zn133 O132 1.899 . S
Zn133 O134 2.032 1_556 S
Zn133 O137 2.086 . S
Zn133 O142 1.977 . S
O134 Zn133 2.032 1_554 S
O134 C138 1.262 1_455 S
C135 O136 1.203 . S
C135 O142 1.267 . S
O136 C135 1.203 . S
O137 C130 1.185 . S
O137 Zn133 2.086 . S
C138 O134 1.262 1_655 S
C138 O139 1.227 . S
O139 C138 1.227 . S
C140 O132 1.284 . S
C140 O141 1.273 1_455 S
O141 C140 1.273 1_655 S
O142 Zn133 1.977 . S
O142 C135 1.267 . S
C143 O144 1.160 . S
C143 O150 1.185 . S
O144 C143 1.160 . S
O145 Zn146 1.899 . S
O145 C153 1.284 . S
Zn146 O145 1.899 . S
Zn146 O147 2.032 . S
Zn146 O150 2.086 . S
Zn146 O155 1.977 . S
O147 Zn146 2.032 . S
O147 C151 1.268 1_545 S
C148 O149 1.203 . S
C148 O155 1.267 . S
O149 C148 1.203 . S
O150 C143 1.185 . S
O150 Zn146 2.086 . S
C151 O147 1.268 1_565 S
C151 O152 1.212 . S
O152 C151 1.212 . S
C153 O145 1.284 . S
C153 O154 1.273 1_545 S
O154 C153 1.273 1_565 S
O155 Zn146 1.977 . S
O155 C148 1.267 . S
C156 C157 1.369 . S
C156 C158 1.419 . S
C156 H160 0.930 . S
C157 C156 1.369 . S
C157 C166 1.429 . S
C158 C156 1.419 . S
C158 C159 1.363 . S
C158 H161 0.929 . S
C159 C158 1.363 . S
C159 C165 1.428 . S
H160 C156 0.930 . S
H161 C158 0.929 . S
S162 N163 1.613 . S
S162 N164 1.610 . S
N163 S162 1.613 . S
N163 C166 1.350 . S
N164 S162 1.610 . S
N164 C165 1.351 . S
C165 C159 1.428 . S
C165 N164 1.351 . S
C165 C166 1.434 . S
C166 C157 1.429 . S
C166 N163 1.350 . S
C166 C165 1.434 . S
C167 C168 1.366 . S
C167 C169 1.419 . S
C167 H171 0.930 . S
C168 C167 1.366 . S
C168 C177 1.431 1_655 S
C169 C167 1.419 . S
C169 C170 1.372 1_655 S
C169 H172 0.929 . S
C170 C169 1.372 1_455 S
C170 C176 1.420 . S
H171 C167 0.930 . S
H172 C169 0.929 . S
S173 N174 1.613 . S
S173 N175 1.610 . S
N174 S173 1.613 . S
N174 C177 1.350 . S
N175 S173 1.610 . S
N175 C176 1.351 . S
C176 C170 1.420 . S
C176 N175 1.351 . S
C176 C177 1.434 . S
C177 C168 1.431 1_455 S
C177 N174 1.350 . S
C177 C176 1.434 . S
C178 C179 1.372 1_565 S
C178 C180 1.419 1_556 S
C178 H182 0.930 . S
C179 C178 1.372 1_545 S
C179 C188 1.426 . S
C180 C178 1.419 1_554 S
C180 C181 1.337 1_565 S
C180 H183 0.929 . S
C181 C180 1.337 1_545 S
C181 C187 1.455 . S
H182 C178 0.930 . S
H183 C180 0.929 . S
S184 N185 1.613 . S
S184 N186 1.610 1_556 S
N185 S184 1.613 . S
N185 C188 1.350 . S
N186 S184 1.610 1_554 S
N186 C187 1.351 . S
C187 C181 1.455 . S
C187 N186 1.351 . S
C187 C188 1.434 1_554 S
C188 C179 1.426 . S
C188 N185 1.350 . S
C188 C187 1.434 1_556 S
C189 C190 1.369 . S
C189 C191 1.419 . S
C189 H193 0.930 . S
C190 C189 1.369 . S
C190 C199 1.429 . S
C191 C189 1.419 . S
C191 C192 1.363 . S
C191 H194 0.929 . S
C192 C191 1.363 . S
C192 C198 1.428 . S
H193 C189 0.930 . S
H194 C191 0.929 . S
S195 N196 1.613 . S
S195 N197 1.610 . S
N196 S195 1.613 . S
N196 C199 1.350 . S
N197 S195 1.610 . S
N197 C198 1.351 . S
C198 C192 1.428 . S
C198 N197 1.351 . S
C198 C199 1.434 . S
C199 C190 1.429 . S
C199 N196 1.350 . S
C199 C198 1.434 . S
C200 C201 1.368 . S
C200 C202 1.419 . S
C200 H204 0.930 . S
C201 C200 1.368 . S
C201 C210 1.430 1_655 S
C202 C200 1.419 . S
C202 C203 1.341 1_655 S
C202 H205 0.929 . S
C203 C202 1.341 1_455 S
C203 C209 1.451 . S
H204 C200 0.930 . S
H205 C202 0.929 . S
S206 N207 1.613 . S
S206 N208 1.610 . S
N207 S206 1.613 . S
N207 C210 1.350 . S
N208 S206 1.610 . S
N208 C209 1.351 . S
C209 C203 1.451 . S
C209 N208 1.351 . S
C209 C210 1.434 . S
C210 C201 1.430 1_455 S
C210 N207 1.350 . S
C210 C209 1.434 . S
C211 C212 1.369 . S
C211 C213 1.419 1_554 S
C211 H215 0.930 . S
C212 C211 1.369 . S
C212 C221 1.429 1_565 S
C213 C211 1.419 1_556 S
C213 C214 1.364 1_565 S
C213 H216 0.929 . S
C214 C213 1.364 1_545 S
C214 C220 1.428 . S
H215 C211 0.930 . S
H216 C213 0.929 . S
S217 N218 1.613 . S
S217 N219 1.610 1_554 S
N218 S217 1.613 . S
N218 C221 1.350 . S
N219 S217 1.610 1_556 S
N219 C220 1.351 . S
C220 C214 1.428 . S
C220 N219 1.351 . S
C220 C221 1.434 1_556 S
C221 C212 1.429 1_545 S
C221 N218 1.350 . S
C221 C220 1.434 1_554 S
C222 C223 1.369 . S
C222 C224 1.419 . S
C222 H226 0.930 . S
C223 C222 1.369 . S
C223 C232 1.429 1_556 S
C224 C222 1.419 . S
C224 C225 1.363 1_556 S
C224 H227 0.929 . S
C225 C224 1.363 1_554 S
C225 C231 1.428 . S
H226 C222 0.930 . S
H227 C224 0.929 . S
S228 N229 1.613 . S
S228 N230 1.610 . S
N229 S228 1.613 . S
N229 C232 1.350 . S
N230 S228 1.610 . S
N230 C231 1.351 . S
C231 C225 1.428 . S
C231 N230 1.351 . S
C231 C232 1.434 . S
C232 C223 1.429 1_554 S
C232 N229 1.350 . S
C232 C231 1.434 . S
C233 C234 1.369 . S
C233 C235 1.419 . S
C233 H237 0.930 . S
C234 C233 1.369 . S
C234 C243 1.429 . S
C235 C233 1.419 . S
C235 C236 1.363 . S
C235 H238 0.929 . S
C236 C235 1.363 . S
C236 C242 1.428 . S
H237 C233 0.930 . S
H238 C235 0.929 . S
S239 N240 1.613 . S
S239 N241 1.610 . S
N240 S239 1.613 . S
N240 C243 1.350 . S
N241 S239 1.610 . S
N241 C242 1.351 . S
C242 C236 1.428 . S
C242 N241 1.351 . S
C242 C243 1.434 . S
C243 C234 1.429 . S
C243 N240 1.350 . S
C243 C242 1.434 . S
C244 C245 1.369 . S
C244 C246 1.419 . S
C244 H248 0.930 . S
C245 C244 1.369 . S
C245 C254 1.429 . S
C246 C244 1.419 . S
C246 C247 1.363 . S
C246 H249 0.929 . S
C247 C246 1.363 . S
C247 C253 1.428 . S
H248 C244 0.930 . S
H249 C246 0.929 . S
S250 N251 1.613 . S
S250 N252 1.610 . S
N251 S250 1.613 . S
N251 C254 1.350 . S
N252 S250 1.610 . S
N252 C253 1.351 . S
C253 C247 1.428 . S
C253 N252 1.351 . S
C253 C254 1.434 . S
C254 C245 1.429 . S
C254 N251 1.350 . S
C254 C253 1.434 . S
C255 C256 1.369 1_556 S
C255 C257 1.419 . S
C255 H259 0.930 . S
C256 C255 1.369 1_554 S
C256 C265 1.429 . S
C257 C255 1.419 . S
C257 C258 1.363 . S
C257 H260 0.929 . S
C258 C257 1.363 . S
C258 C264 1.428 1_556 S
H259 C255 0.930 . S
H260 C257 0.929 . S
S261 N262 1.613 . S
S261 N263 1.610 . S
N262 S261 1.613 . S
N262 C265 1.350 . S
N263 S261 1.610 . S
N263 C264 1.351 . S
C264 C258 1.428 1_554 S
C264 N263 1.351 . S
C264 C265 1.434 . S
C265 C256 1.429 . S
C265 N262 1.350 . S
C265 C264 1.434 . S
C266 C267 1.369 . S
C266 C268 1.419 . S
C266 H270 0.930 . S
C267 C266 1.369 . S
C267 C276 1.429 . S
C268 C266 1.419 . S
C268 C269 1.363 . S
C268 H271 0.929 . S
C269 C268 1.363 . S
C269 C275 1.428 . S
H270 C266 0.930 . S
H271 C268 0.929 . S
S272 N273 1.613 . S
S272 N274 1.610 . S
N273 S272 1.613 . S
N273 C276 1.350 . S
N274 S272 1.610 . S
N274 C275 1.351 . S
C275 C269 1.428 . S
C275 N274 1.351 . S
C275 C276 1.434 . S
C276 C267 1.429 . S
C276 N273 1.350 . S
C276 C275 1.434 . S
C277 C278 1.369 . S
C277 C279 1.419 . S
C277 H281 0.930 . S
C278 C277 1.369 . S
C278 C287 1.429 . S
C279 C277 1.419 . S
C279 C280 1.363 . S
C279 H282 0.929 . S
C280 C279 1.363 . S
C280 C286 1.428 . S
H281 C277 0.930 . S
H282 C279 0.929 . S
S283 N284 1.613 . S
S283 N285 1.610 . S
N284 S283 1.613 . S
N284 C287 1.350 . S
N285 S283 1.610 . S
N285 C286 1.351 . S
C286 C280 1.428 . S
C286 N285 1.351 . S
C286 C287 1.434 . S
C287 C278 1.429 . S
C287 N284 1.350 . S
C287 C286 1.434 . S
C288 C289 1.369 . S
C288 C290 1.419 . S
C288 H292 0.930 . S
C289 C288 1.369 . S
C289 C298 1.429 . S
C290 C288 1.419 . S
C290 C291 1.363 . S
C290 H293 0.929 . S
C291 C290 1.363 . S
C291 C297 1.428 . S
H292 C288 0.930 . S
H293 C290 0.929 . S
S294 N295 1.613 . S
S294 N296 1.610 . S
N295 S294 1.613 . S
N295 C298 1.350 . S
N296 S294 1.610 . S
N296 C297 1.351 . S
C297 C291 1.428 . S
C297 N296 1.351 . S
C297 C298 1.434 . S
C298 C289 1.429 . S
C298 N295 1.350 . S
C298 C297 1.434 . S
C299 C300 1.369 . S
C299 C301 1.419 . S
C299 H303 0.930 . S
C300 C299 1.369 . S
C300 C309 1.429 1_455 S
C301 C299 1.419 . S
C301 C302 1.363 1_455 S
C301 H304 0.929 . S
C302 C301 1.363 1_655 S
C302 C308 1.428 . S
H303 C299 0.930 . S
H304 C301 0.929 . S
S305 N306 1.613 . S
S305 N307 1.610 . S
N306 S305 1.613 . S
N306 C309 1.350 . S
N307 S305 1.610 . S
N307 C308 1.351 . S
C308 C302 1.428 . S
C308 N307 1.351 . S
C308 C309 1.434 . S
C309 C300 1.429 1_655 S
C309 N306 1.350 . S
C309 C308 1.434 . S
C310 C311 1.369 . S
C310 C312 1.419 . S
C310 H314 0.930 . S
C311 C310 1.369 . S
C311 C320 1.429 1_545 S
C312 C310 1.419 . S
C312 C313 1.363 1_545 S
C312 H315 0.929 . S
C313 C312 1.363 1_565 S
C313 C319 1.428 . S
H314 C310 0.930 . S
H315 C312 0.929 . S
S316 N317 1.613 . S
S316 N318 1.610 . S
N317 S316 1.613 . S
N317 C320 1.350 . S
N318 S316 1.610 . S
N318 C319 1.351 . S
C319 C313 1.428 . S
C319 N318 1.351 . S
C319 C320 1.434 . S
C320 C311 1.429 1_565 S
C320 N317 1.350 . S
C320 C319 1.434 . S
C321 C322 1.369 . S
C321 C323 1.419 . S
C321 H325 0.930 . S
C322 C321 1.369 . S
C322 C331 1.429 . S
C323 C321 1.419 . S
C323 C324 1.363 . S
C323 H326 0.929 . S
C324 C323 1.363 . S
C324 C330 1.428 . S
H325 C321 0.930 . S
H326 C323 0.929 . S
S327 N328 1.613 . S
S327 N329 1.610 . S
N328 S327 1.613 . S
N328 C331 1.350 . S
N329 S327 1.610 . S
N329 C330 1.351 . S
C330 C324 1.428 . S
C330 N329 1.351 . S
C330 C331 1.434 . S
C331 C322 1.429 . S
C331 N328 1.350 . S
C331 C330 1.434 . S
C332 C333 1.369 1_455 S
C332 C334 1.419 . S
C332 H336 0.930 . S
C333 C332 1.369 1_655 S
C333 C342 1.429 . S
C334 C332 1.419 . S
C334 C335 1.363 . S
C334 H337 0.929 . S
C335 C334 1.363 . S
C335 C341 1.428 1_455 S
H336 C332 0.930 . S
H337 C334 0.929 . S
S338 N339 1.613 . S
S338 N340 1.610 . S
N339 S338 1.613 . S
N339 C342 1.350 . S
N340 S338 1.610 . S
N340 C341 1.351 . S
C341 C335 1.428 1_655 S
C341 N340 1.351 . S
C341 C342 1.434 . S
C342 C333 1.429 . S
C342 N339 1.350 . S
C342 C341 1.434 . S
C343 C344 1.369 1_565 S
C343 C345 1.419 . S
C343 H347 0.930 . S
C344 C343 1.369 1_545 S
C344 C353 1.429 . S
C345 C343 1.419 . S
C345 C346 1.363 . S
C345 H348 0.929 . S
C346 C345 1.363 . S
C346 C352 1.428 1_565 S
H347 C343 0.930 . S
H348 C345 0.929 . S
S349 N350 1.613 . S
S349 N351 1.610 . S
N350 S349 1.613 . S
N350 C353 1.350 . S
N351 S349 1.610 . S
N351 C352 1.351 . S
C352 C346 1.428 1_545 S
C352 N351 1.351 . S
C352 C353 1.434 . S
C353 C344 1.429 . S
C353 N350 1.350 . S
C353 C352 1.434 . S
C354 C355 1.369 . S
C354 C356 1.419 . S
C354 H358 0.930 1_554 S
C355 C354 1.369 . S
C355 C364 1.429 . S
C356 C354 1.419 . S
C356 C357 1.363 . S
C356 H359 0.929 1_554 S
C357 C356 1.363 . S
C357 C363 1.428 . S
H358 C354 0.930 1_556 S
H359 C356 0.929 1_556 S
S360 N361 1.613 . S
S360 N362 1.610 . S
N361 S360 1.613 . S
N361 C364 1.350 . S
N362 S360 1.610 . S
N362 C363 1.351 . S
C363 C357 1.428 . S
C363 N362 1.351 . S
C363 C364 1.434 . S
C364 C355 1.429 . S
C364 N361 1.350 . S
C364 C363 1.434 . S
C365 C366 1.369 . S
C365 C367 1.419 . S
C365 H369 0.930 . S
C366 C365 1.369 . S
C366 C375 1.429 1_455 S
C367 C365 1.419 . S
C367 C368 1.363 1_455 S
C367 H370 0.929 . S
C368 C367 1.363 1_655 S
C368 C374 1.428 . S
H369 C365 0.930 . S
H370 C367 0.929 . S
S371 N372 1.613 . S
S371 N373 1.610 . S
N372 S371 1.613 . S
N372 C375 1.350 . S
N373 S371 1.610 . S
N373 C374 1.351 . S
C374 C368 1.428 . S
C374 N373 1.351 . S
C374 C375 1.434 . S
C375 C366 1.429 1_655 S
C375 N372 1.350 . S
C375 C374 1.434 . S
C376 C377 1.369 . S
C376 C378 1.419 . S
C376 H380 0.930 . S
C377 C376 1.369 . S
C377 C386 1.429 1_565 S
C378 C376 1.419 . S
C378 C379 1.363 1_565 S
C378 H381 0.929 . S
C379 C378 1.363 1_545 S
C379 C385 1.428 . S
H380 C376 0.930 . S
H381 C378 0.929 . S
S382 N383 1.613 . S
S382 N384 1.610 . S
N383 S382 1.613 . S
N383 C386 1.350 . S
N384 S382 1.610 . S
N384 C385 1.351 . S
C385 C379 1.428 . S
C385 N384 1.351 . S
C385 C386 1.434 . S
C386 C377 1.429 1_545 S
C386 N383 1.350 . S
C386 C385 1.434 . S
C387 C388 1.369 . S
C387 C389 1.419 . S
C387 H391 0.930 . S
C388 C387 1.369 . S
C388 C397 1.429 . S
C389 C387 1.419 . S
C389 C390 1.363 . S
C389 H392 0.929 . S
C390 C389 1.363 . S
C390 C396 1.428 . S
H391 C387 0.930 . S
H392 C389 0.929 . S
S393 N394 1.613 . S
S393 N395 1.610 . S
N394 S393 1.613 . S
N394 C397 1.350 . S
N395 S393 1.610 . S
N395 C396 1.351 . S
C396 C390 1.428 . S
C396 N395 1.351 . S
C396 C397 1.434 . S
C397 C388 1.429 . S
C397 N394 1.350 . S
C397 C396 1.434 . S
C398 C399 1.369 . S
C398 C400 1.419 1_655 S
C398 H402 0.930 1_556 S
C399 C398 1.369 . S
C399 C408 1.429 . S
C400 C398 1.419 1_455 S
C400 C401 1.363 . S
C400 H403 0.929 1_556 S
C401 C400 1.363 . S
C401 C407 1.428 . S
H402 C398 0.930 1_554 S
H403 C400 0.929 1_554 S
S404 N405 1.613 . S
S404 N406 1.610 1_655 S
N405 S404 1.613 . S
N405 C408 1.350 . S
N406 S404 1.610 1_455 S
N406 C407 1.351 . S
C407 C401 1.428 . S
C407 N406 1.351 . S
C407 C408 1.434 1_455 S
C408 C399 1.429 . S
C408 N405 1.350 . S
C408 C407 1.434 1_655 S
C409 C410 1.369 1_565 S
C409 C411 1.419 . S
C409 H413 0.930 . S
C410 C409 1.369 1_545 S
C410 C419 1.429 . S
C411 C409 1.419 . S
C411 C412 1.363 . S
C411 H414 0.929 . S
C412 C411 1.363 . S
C412 C418 1.428 1_565 S
H413 C409 0.930 . S
H414 C411 0.929 . S
S415 N416 1.613 . S
S415 N417 1.610 . S
N416 S415 1.613 . S
N416 C419 1.350 . S
N417 S415 1.610 . S
N417 C418 1.351 . S
C418 C412 1.428 1_545 S
C418 N417 1.351 . S
C418 C419 1.434 . S
C419 C410 1.429 . S
C419 N416 1.350 . S
C419 C418 1.434 . S
C157 C10 1.480 . S
C159 C127 1.479 . S
C168 C23 1.478 . S
C170 C140 1.478 . S
C179 C36 1.480 1_545 S
C181 C153 1.481 . S
C190 C49 1.480 . S
C192 C88 1.479 . S
C201 C101 1.480 . S
C203 C62 1.482 . S
C212 C114 1.479 . S
C214 C75 1.478 . S
C223 C130 1.423 . S
C225 C0 1.422 . S
C234 C13 1.419 . S
C236 C143 1.420 . S
C245 C26 1.423 . S
C247 C78 1.421 . S
C256 C39 1.419 . S
C258 C91 1.420 . S
C267 C52 1.422 . S
C269 C104 1.423 . S
C278 C65 1.423 . S
C280 C117 1.423 . S
C289 C125 1.014 . S
C291 C8 1.010 . S
C300 C21 1.030 . S
C302 C138 1.024 . S
C311 C34 1.015 . S
C313 C151 1.032 . S
C322 C86 1.013 . S
C324 C47 1.010 . S
C333 C60 1.028 . S
C335 C99 1.011 . S
C344 C112 1.032 . S
C346 C73 1.013 . S
C355 C5 1.405 . S
C357 C44 1.408 . S
C366 C57 1.406 . S
C368 C18 1.408 . S
C377 C31 1.401 . S
C379 C70 1.412 . S
C388 C83 1.403 . S
C390 C122 1.412 . S
C399 C96 1.410 . S
C401 C135 1.405 . S
C410 C148 1.413 . S
C412 C109 1.406 . S
