# Generated by pormake.
# Topology rho, (4)-cn, num edge types: 1
# Building blocks:
#     Node 0, Type 0, BuildingBlock: ICAMEG_clean_sbu_1, # of connection points: 4
#     Node 1, Type 0, BuildingBlock: ICAMEG_clean_sbu_1, # of connection points: 4
#     Node 2, Type 0, BuildingBlock: ICAMEG_clean_sbu_1, # of connection points: 4
#     Node 3, Type 0, BuildingBlock: ICAMEG_clean_sbu_1, # of connection points: 4
#     Node 4, Type 0, BuildingBlock: ICAMEG_clean_sbu_1, # of connection points: 4
#     Node 5, Type 0, BuildingBlock: ICAMEG_clean_sbu_1, # of connection points: 4
#     Node 6, Type 0, BuildingBlock: ICAMEG_clean_sbu_1, # of connection points: 4
#     Node 7, Type 0, BuildingBlock: ICAMEG_clean_sbu_1, # of connection points: 4
#     Node 8, Type 0, BuildingBlock: ICAMEG_clean_sbu_1, # of connection points: 4
#     Node 9, Type 0, BuildingBlock: ICAMEG_clean_sbu_1, # of connection points: 4
#     Node 10, Type 0, BuildingBlock: ICAMEG_clean_sbu_1, # of connection points: 4
#     Node 11, Type 0, BuildingBlock: ICAMEG_clean_sbu_1, # of connection points: 4
#     Node 12, Type 0, BuildingBlock: ICAMEG_clean_sbu_1, # of connection points: 4
#     Node 13, Type 0, BuildingBlock: ICAMEG_clean_sbu_1, # of connection points: 4
#     Node 14, Type 0, BuildingBlock: ICAMEG_clean_sbu_1, # of connection points: 4
#     Node 15, Type 0, BuildingBlock: ICAMEG_clean_sbu_1, # of connection points: 4
#     Node 16, Type 0, BuildingBlock: ICAMEG_clean_sbu_1, # of connection points: 4
#     Node 17, Type 0, BuildingBlock: ICAMEG_clean_sbu_1, # of connection points: 4
#     Node 18, Type 0, BuildingBlock: ICAMEG_clean_sbu_1, # of connection points: 4
#     Node 19, Type 0, BuildingBlock: ICAMEG_clean_sbu_1, # of connection points: 4
#     Node 20, Type 0, BuildingBlock: ICAMEG_clean_sbu_1, # of connection points: 4
#     Node 21, Type 0, BuildingBlock: ICAMEG_clean_sbu_1, # of connection points: 4
#     Node 22, Type 0, BuildingBlock: ICAMEG_clean_sbu_1, # of connection points: 4
#     Node 23, Type 0, BuildingBlock: ICAMEG_clean_sbu_1, # of connection points: 4
#     Node 24, Type 0, BuildingBlock: ICAMEG_clean_sbu_1, # of connection points: 4
#     Node 25, Type 0, BuildingBlock: ICAMEG_clean_sbu_1, # of connection points: 4
#     Node 26, Type 0, BuildingBlock: ICAMEG_clean_sbu_1, # of connection points: 4
#     Node 27, Type 0, BuildingBlock: ICAMEG_clean_sbu_1, # of connection points: 4
#     Node 28, Type 0, BuildingBlock: ICAMEG_clean_sbu_1, # of connection points: 4
#     Node 29, Type 0, BuildingBlock: ICAMEG_clean_sbu_1, # of connection points: 4
#     Node 30, Type 0, BuildingBlock: ICAMEG_clean_sbu_1, # of connection points: 4
#     Node 31, Type 0, BuildingBlock: ICAMEG_clean_sbu_1, # of connection points: 4
#     Node 32, Type 0, BuildingBlock: ICAMEG_clean_sbu_1, # of connection points: 4
#     Node 33, Type 0, BuildingBlock: ICAMEG_clean_sbu_1, # of connection points: 4
#     Node 34, Type 0, BuildingBlock: ICAMEG_clean_sbu_1, # of connection points: 4
#     Node 35, Type 0, BuildingBlock: ICAMEG_clean_sbu_1, # of connection points: 4
#     Node 36, Type 0, BuildingBlock: ICAMEG_clean_sbu_1, # of connection points: 4
#     Node 37, Type 0, BuildingBlock: ICAMEG_clean_sbu_1, # of connection points: 4
#     Node 38, Type 0, BuildingBlock: ICAMEG_clean_sbu_1, # of connection points: 4
#     Node 39, Type 0, BuildingBlock: ICAMEG_clean_sbu_1, # of connection points: 4
#     Node 40, Type 0, BuildingBlock: ICAMEG_clean_sbu_1, # of connection points: 4
#     Node 41, Type 0, BuildingBlock: ICAMEG_clean_sbu_1, # of connection points: 4
#     Node 42, Type 0, BuildingBlock: ICAMEG_clean_sbu_1, # of connection points: 4
#     Node 43, Type 0, BuildingBlock: ICAMEG_clean_sbu_1, # of connection points: 4
#     Node 44, Type 0, BuildingBlock: ICAMEG_clean_sbu_1, # of connection points: 4
#     Node 45, Type 0, BuildingBlock: ICAMEG_clean_sbu_1, # of connection points: 4
#     Node 46, Type 0, BuildingBlock: ICAMEG_clean_sbu_1, # of connection points: 4
#     Node 47, Type 0, BuildingBlock: ICAMEG_clean_sbu_1, # of connection points: 4
#     Edge 48, Type (0, 0), BuildingBlock: XIVTED_clean_linker_0, # of connection points: 2
#     Edge 49, Type (0, 0), BuildingBlock: XIVTED_clean_linker_0, # of connection points: 2
#     Edge 50, Type (0, 0), BuildingBlock: XIVTED_clean_linker_0, # of connection points: 2
#     Edge 51, Type (0, 0), BuildingBlock: XIVTED_clean_linker_0, # of connection points: 2
#     Edge 52, Type (0, 0), BuildingBlock: XIVTED_clean_linker_0, # of connection points: 2
#     Edge 53, Type (0, 0), BuildingBlock: XIVTED_clean_linker_0, # of connection points: 2
#     Edge 54, Type (0, 0), BuildingBlock: XIVTED_clean_linker_0, # of connection points: 2
#     Edge 55, Type (0, 0), BuildingBlock: XIVTED_clean_linker_0, # of connection points: 2
#     Edge 56, Type (0, 0), BuildingBlock: XIVTED_clean_linker_0, # of connection points: 2
#     Edge 57, Type (0, 0), BuildingBlock: XIVTED_clean_linker_0, # of connection points: 2
#     Edge 58, Type (0, 0), BuildingBlock: XIVTED_clean_linker_0, # of connection points: 2
#     Edge 59, Type (0, 0), BuildingBlock: XIVTED_clean_linker_0, # of connection points: 2
#     Edge 60, Type (0, 0), BuildingBlock: XIVTED_clean_linker_0, # of connection points: 2
#     Edge 61, Type (0, 0), BuildingBlock: XIVTED_clean_linker_0, # of connection points: 2
#     Edge 62, Type (0, 0), BuildingBlock: XIVTED_clean_linker_0, # of connection points: 2
#     Edge 63, Type (0, 0), BuildingBlock: XIVTED_clean_linker_0, # of connection points: 2
#     Edge 64, Type (0, 0), BuildingBlock: XIVTED_clean_linker_0, # of connection points: 2
#     Edge 65, Type (0, 0), BuildingBlock: XIVTED_clean_linker_0, # of connection points: 2
#     Edge 66, Type (0, 0), BuildingBlock: XIVTED_clean_linker_0, # of connection points: 2
#     Edge 67, Type (0, 0), BuildingBlock: XIVTED_clean_linker_0, # of connection points: 2
#     Edge 68, Type (0, 0), BuildingBlock: XIVTED_clean_linker_0, # of connection points: 2
#     Edge 69, Type (0, 0), BuildingBlock: XIVTED_clean_linker_0, # of connection points: 2
#     Edge 70, Type (0, 0), BuildingBlock: XIVTED_clean_linker_0, # of connection points: 2
#     Edge 71, Type (0, 0), BuildingBlock: XIVTED_clean_linker_0, # of connection points: 2
#     Edge 72, Type (0, 0), BuildingBlock: XIVTED_clean_linker_0, # of connection points: 2
#     Edge 73, Type (0, 0), BuildingBlock: XIVTED_clean_linker_0, # of connection points: 2
#     Edge 74, Type (0, 0), BuildingBlock: XIVTED_clean_linker_0, # of connection points: 2
#     Edge 75, Type (0, 0), BuildingBlock: XIVTED_clean_linker_0, # of connection points: 2
#     Edge 76, Type (0, 0), BuildingBlock: XIVTED_clean_linker_0, # of connection points: 2
#     Edge 77, Type (0, 0), BuildingBlock: XIVTED_clean_linker_0, # of connection points: 2
#     Edge 78, Type (0, 0), BuildingBlock: XIVTED_clean_linker_0, # of connection points: 2
#     Edge 79, Type (0, 0), BuildingBlock: XIVTED_clean_linker_0, # of connection points: 2
#     Edge 80, Type (0, 0), BuildingBlock: XIVTED_clean_linker_0, # of connection points: 2
#     Edge 81, Type (0, 0), BuildingBlock: XIVTED_clean_linker_0, # of connection points: 2
#     Edge 82, Type (0, 0), BuildingBlock: XIVTED_clean_linker_0, # of connection points: 2
#     Edge 83, Type (0, 0), BuildingBlock: XIVTED_clean_linker_0, # of connection points: 2
#     Edge 84, Type (0, 0), BuildingBlock: XIVTED_clean_linker_0, # of connection points: 2
#     Edge 85, Type (0, 0), BuildingBlock: XIVTED_clean_linker_0, # of connection points: 2
#     Edge 86, Type (0, 0), BuildingBlock: XIVTED_clean_linker_0, # of connection points: 2
#     Edge 87, Type (0, 0), BuildingBlock: XIVTED_clean_linker_0, # of connection points: 2
#     Edge 88, Type (0, 0), BuildingBlock: XIVTED_clean_linker_0, # of connection points: 2
#     Edge 89, Type (0, 0), BuildingBlock: XIVTED_clean_linker_0, # of connection points: 2
#     Edge 90, Type (0, 0), BuildingBlock: XIVTED_clean_linker_0, # of connection points: 2
#     Edge 91, Type (0, 0), BuildingBlock: XIVTED_clean_linker_0, # of connection points: 2
#     Edge 92, Type (0, 0), BuildingBlock: XIVTED_clean_linker_0, # of connection points: 2
#     Edge 93, Type (0, 0), BuildingBlock: XIVTED_clean_linker_0, # of connection points: 2
#     Edge 94, Type (0, 0), BuildingBlock: XIVTED_clean_linker_0, # of connection points: 2
#     Edge 95, Type (0, 0), BuildingBlock: XIVTED_clean_linker_0, # of connection points: 2
#     Edge 96, Type (0, 0), BuildingBlock: XIVTED_clean_linker_0, # of connection points: 2
#     Edge 97, Type (0, 0), BuildingBlock: XIVTED_clean_linker_0, # of connection points: 2
#     Edge 98, Type (0, 0), BuildingBlock: XIVTED_clean_linker_0, # of connection points: 2
#     Edge 99, Type (0, 0), BuildingBlock: XIVTED_clean_linker_0, # of connection points: 2
#     Edge 100, Type (0, 0), BuildingBlock: XIVTED_clean_linker_0, # of connection points: 2
#     Edge 101, Type (0, 0), BuildingBlock: XIVTED_clean_linker_0, # of connection points: 2
#     Edge 102, Type (0, 0), BuildingBlock: XIVTED_clean_linker_0, # of connection points: 2
#     Edge 103, Type (0, 0), BuildingBlock: XIVTED_clean_linker_0, # of connection points: 2
#     Edge 104, Type (0, 0), BuildingBlock: XIVTED_clean_linker_0, # of connection points: 2
#     Edge 105, Type (0, 0), BuildingBlock: XIVTED_clean_linker_0, # of connection points: 2
#     Edge 106, Type (0, 0), BuildingBlock: XIVTED_clean_linker_0, # of connection points: 2
#     Edge 107, Type (0, 0), BuildingBlock: XIVTED_clean_linker_0, # of connection points: 2
#     Edge 108, Type (0, 0), BuildingBlock: XIVTED_clean_linker_0, # of connection points: 2
#     Edge 109, Type (0, 0), BuildingBlock: XIVTED_clean_linker_0, # of connection points: 2
#     Edge 110, Type (0, 0), BuildingBlock: XIVTED_clean_linker_0, # of connection points: 2
#     Edge 111, Type (0, 0), BuildingBlock: XIVTED_clean_linker_0, # of connection points: 2
#     Edge 112, Type (0, 0), BuildingBlock: XIVTED_clean_linker_0, # of connection points: 2
#     Edge 113, Type (0, 0), BuildingBlock: XIVTED_clean_linker_0, # of connection points: 2
#     Edge 114, Type (0, 0), BuildingBlock: XIVTED_clean_linker_0, # of connection points: 2
#     Edge 115, Type (0, 0), BuildingBlock: XIVTED_clean_linker_0, # of connection points: 2
#     Edge 116, Type (0, 0), BuildingBlock: XIVTED_clean_linker_0, # of connection points: 2
#     Edge 117, Type (0, 0), BuildingBlock: XIVTED_clean_linker_0, # of connection points: 2
#     Edge 118, Type (0, 0), BuildingBlock: XIVTED_clean_linker_0, # of connection points: 2
#     Edge 119, Type (0, 0), BuildingBlock: XIVTED_clean_linker_0, # of connection points: 2
#     Edge 120, Type (0, 0), BuildingBlock: XIVTED_clean_linker_0, # of connection points: 2
#     Edge 121, Type (0, 0), BuildingBlock: XIVTED_clean_linker_0, # of connection points: 2
#     Edge 122, Type (0, 0), BuildingBlock: XIVTED_clean_linker_0, # of connection points: 2
#     Edge 123, Type (0, 0), BuildingBlock: XIVTED_clean_linker_0, # of connection points: 2
#     Edge 124, Type (0, 0), BuildingBlock: XIVTED_clean_linker_0, # of connection points: 2
#     Edge 125, Type (0, 0), BuildingBlock: XIVTED_clean_linker_0, # of connection points: 2
#     Edge 126, Type (0, 0), BuildingBlock: XIVTED_clean_linker_0, # of connection points: 2
#     Edge 127, Type (0, 0), BuildingBlock: XIVTED_clean_linker_0, # of connection points: 2
#     Edge 128, Type (0, 0), BuildingBlock: XIVTED_clean_linker_0, # of connection points: 2
#     Edge 129, Type (0, 0), BuildingBlock: XIVTED_clean_linker_0, # of connection points: 2
#     Edge 130, Type (0, 0), BuildingBlock: XIVTED_clean_linker_0, # of connection points: 2
#     Edge 131, Type (0, 0), BuildingBlock: XIVTED_clean_linker_0, # of connection points: 2
#     Edge 132, Type (0, 0), BuildingBlock: XIVTED_clean_linker_0, # of connection points: 2
#     Edge 133, Type (0, 0), BuildingBlock: XIVTED_clean_linker_0, # of connection points: 2
#     Edge 134, Type (0, 0), BuildingBlock: XIVTED_clean_linker_0, # of connection points: 2
#     Edge 135, Type (0, 0), BuildingBlock: XIVTED_clean_linker_0, # of connection points: 2
#     Edge 136, Type (0, 0), BuildingBlock: XIVTED_clean_linker_0, # of connection points: 2
#     Edge 137, Type (0, 0), BuildingBlock: XIVTED_clean_linker_0, # of connection points: 2
#     Edge 138, Type (0, 0), BuildingBlock: XIVTED_clean_linker_0, # of connection points: 2
#     Edge 139, Type (0, 0), BuildingBlock: XIVTED_clean_linker_0, # of connection points: 2
#     Edge 140, Type (0, 0), BuildingBlock: XIVTED_clean_linker_0, # of connection points: 2
#     Edge 141, Type (0, 0), BuildingBlock: XIVTED_clean_linker_0, # of connection points: 2
#     Edge 142, Type (0, 0), BuildingBlock: XIVTED_clean_linker_0, # of connection points: 2
#     Edge 143, Type (0, 0), BuildingBlock: XIVTED_clean_linker_0, # of connection points: 2
# Relax obj value: 0.061
# Max RMSD: 0.095
# Mean RMSD: 0.094
data_MOF--net-rho--node1-ICAMEG_clean_sbu_1--edge1-XIVTED_clean_linker_0
_symmetry_space_group_name_H-M    P1
_symmetry_Int_Tables_number       1
_symmetry_cell_setting            triclinic
loop_
_symmetry_equiv_pos_as_xyz
'x, y, z'
_cell_length_a     77.722438
_cell_length_b     77.717073
_cell_length_c     77.721799
_cell_angle_alpha  90.01499
_cell_angle_beta   90.01673
_cell_angle_gamma 90.06513
loop_
_atom_site_label
_atom_site_type_symbol
_atom_site_fract_x
_atom_site_fract_y
_atom_site_fract_z
_atom_type_partial_charge
Co0 Co 0.09803 0.27148 0.40515 0.0
Co1 Co 0.0947 0.22748 0.40139 0.0
O2 O 0.10477 0.24956 0.39504 0.0
C3 C 0.09323 0.27748 0.36789 0.0
O4 O 0.08394 0.26336 0.36727 0.0
C5 C 0.13192 0.22174 0.40687 0.0
O6 O 0.13226 0.23568 0.41641 0.0
O7 O 0.09831 0.23216 0.42636 0.0
O8 O 0.09625 0.26091 0.42841 0.0
H9 H 0.05624 0.18787 0.43506 0.0
H10 H 0.1297 0.26918 0.38401 0.0
O11 O 0.0998 0.2825 0.38204 0.0
H12 H 0.14899 0.28927 0.44105 0.0
H13 H 0.1014 0.33577 0.41238 0.0
H14 H 0.07196 0.28259 0.43068 0.0
H15 H 0.11823 0.28387 0.43538 0.0
H16 H 0.10983 0.30767 0.40028 0.0
O17 O 0.11793 0.2167 0.39997 0.0
H18 H 0.06873 0.21587 0.42683 0.0
H19 H 0.10013 0.19145 0.38939 0.0
H20 H 0.06321 0.3104 0.44322 0.0
H21 H 0.16057 0.27457 0.38908 0.0
H22 H 0.07798 0.33724 0.43407 0.0
H23 H 0.17039 0.28465 0.41778 0.0
O24 O 0.07318 0.2666 0.401 0.0
H25 H 0.11207 0.22511 0.33916 0.0
H26 H 0.06499 0.215 0.38047 0.0
H27 H 0.06 0.20982 0.34956 0.0
H28 H 0.08366 0.21485 0.32868 0.0
H29 H 0.11645 0.23027 0.37017 0.0
H30 H 0.08809 0.16316 0.39731 0.0
H31 H 0.06593 0.16126 0.42025 0.0
O32 O 0.07131 0.23781 0.40279 0.0
C33 C 0.09742 0.246 0.43515 0.0
C34 C 0.06585 0.18853 0.42501 0.0
C35 C 0.08374 0.17467 0.40383 0.0
N36 N 0.08503 0.20531 0.40755 0.0
C37 C 0.07293 0.20436 0.42026 0.0
C38 C 0.09054 0.19071 0.39943 0.0
C39 C 0.0713 0.17361 0.4167 0.0
C40 C 0.13386 0.2737 0.3965 0.0
N41 N 0.12217 0.27627 0.40936 0.0
C42 C 0.15136 0.27667 0.3993 0.0
C43 C 0.15687 0.2823 0.41542 0.0
C44 C 0.14487 0.28489 0.42848 0.0
C45 C 0.12747 0.28176 0.42521 0.0
C46 C 0.09489 0.32416 0.4165 0.0
C47 C 0.07851 0.29421 0.42672 0.0
C48 C 0.09958 0.30822 0.40967 0.0
N49 N 0.09148 0.2935 0.41488 0.0
C50 C 0.07347 0.30992 0.43383 0.0
C51 C 0.08175 0.32498 0.42867 0.0
C52 C 0.06449 0.25268 0.4016 0.0
C53 C 0.10167 0.22283 0.34814 0.0
C54 C 0.07532 0.21728 0.37146 0.0
C55 C 0.07244 0.21428 0.35398 0.0
C56 C 0.08572 0.2171 0.34226 0.0
N57 N 0.09101 0.22288 0.37713 0.0
C58 C 0.10409 0.22568 0.36572 0.0
Co59 Co 0.77182 0.09422 0.40137 0.0
Co60 Co 0.7278 0.09712 0.405 0.0
O61 O 0.74968 0.10399 0.39486 0.0
C62 C 0.77729 0.13156 0.40631 0.0
O63 O 0.76339 0.13191 0.41591 0.0
C64 C 0.72198 0.09205 0.36776 0.0
O65 O 0.73619 0.08295 0.36724 0.0
O66 O 0.73288 0.0723 0.40106 0.0
O67 O 0.76166 0.07075 0.40309 0.0
H68 H 0.68911 0.06229 0.44334 0.0
H69 H 0.76889 0.11549 0.36983 0.0
O70 O 0.78242 0.11752 0.39962 0.0
H71 H 0.78975 0.05894 0.35007 0.0
H72 H 0.83618 0.08817 0.39747 0.0
H73 H 0.78359 0.06871 0.42719 0.0
H74 H 0.78454 0.06433 0.38089 0.0
H75 H 0.80781 0.09983 0.38934 0.0
O76 O 0.71681 0.09859 0.38186 0.0
H77 H 0.71686 0.07118 0.43075 0.0
H78 H 0.69154 0.10853 0.39996 0.0
H79 H 0.81168 0.05662 0.43564 0.0
H80 H 0.77409 0.1107 0.3389 0.0
H81 H 0.83823 0.06635 0.42073 0.0
H82 H 0.78454 0.08224 0.32883 0.0
O83 O 0.76709 0.09813 0.42628 0.0
H84 H 0.72427 0.1595 0.38838 0.0
H85 H 0.71522 0.11747 0.43503 0.0
H86 H 0.70957 0.14822 0.44042 0.0
H87 H 0.71407 0.16947 0.41698 0.0
H88 H 0.7299 0.12864 0.3836 0.0
H89 H 0.66349 0.09994 0.41212 0.0
H90 H 0.66217 0.07671 0.43402 0.0
O91 O 0.73836 0.09565 0.42829 0.0
C92 C 0.74686 0.06376 0.40187 0.0
C93 C 0.68953 0.07246 0.43385 0.0
C94 C 0.67514 0.09358 0.4163 0.0
N95 N 0.70583 0.09045 0.41475 0.0
C96 C 0.7052 0.07759 0.42671 0.0
C97 C 0.69105 0.09836 0.40944 0.0
C98 C 0.67441 0.08055 0.4286 0.0
C99 C 0.77358 0.10311 0.36557 0.0
N100 N 0.77647 0.09023 0.37717 0.0
C101 C 0.77644 0.10046 0.34803 0.0
C102 C 0.78228 0.08448 0.34239 0.0
C103 C 0.7852 0.0714 0.3543 0.0
C104 C 0.78218 0.07451 0.37173 0.0
C105 C 0.82471 0.0838 0.40404 0.0
C106 C 0.79508 0.07293 0.42057 0.0
C107 C 0.80861 0.09038 0.39952 0.0
N108 N 0.79406 0.08485 0.40769 0.0
C109 C 0.81095 0.06607 0.42544 0.0
C110 C 0.82584 0.07155 0.41709 0.0
C111 C 0.75325 0.09712 0.43504 0.0
C112 C 0.72222 0.15036 0.39868 0.0
C113 C 0.71727 0.12664 0.42479 0.0
C114 C 0.71401 0.14403 0.4279 0.0
C115 C 0.71652 0.15595 0.41474 0.0
N116 N 0.72283 0.12126 0.409 0.0
C117 C 0.72533 0.13287 0.39603 0.0
Co118 Co 0.90073 0.72744 0.40464 0.0
Co119 Co 0.90374 0.77151 0.40187 0.0
O120 O 0.89384 0.74952 0.395 0.0
C121 C 0.9054 0.72218 0.36724 0.0
O122 O 0.91486 0.73618 0.36685 0.0
C123 C 0.86645 0.77682 0.40719 0.0
O124 O 0.86616 0.76265 0.41638 0.0
O125 O 0.90004 0.76628 0.4267 0.0
O126 O 0.90254 0.73753 0.42811 0.0
H127 H 0.94183 0.81063 0.43656 0.0
H128 H 0.86895 0.73002 0.38367 0.0
O129 O 0.89889 0.71692 0.38131 0.0
H130 H 0.85001 0.70862 0.44031 0.0
H131 H 0.89772 0.663 0.41048 0.0
H132 H 0.92693 0.71593 0.42986 0.0
H133 H 0.88071 0.7143 0.43466 0.0
H134 H 0.88911 0.6913 0.39901 0.0
O135 O 0.88045 0.78216 0.40056 0.0
H136 H 0.92954 0.78273 0.42766 0.0
H137 H 0.89812 0.80775 0.39063 0.0
H138 H 0.93587 0.68791 0.44178 0.0
H139 H 0.83813 0.72436 0.38872 0.0
H140 H 0.92121 0.66119 0.43208 0.0
H141 H 0.82848 0.71363 0.41723 0.0
O142 O 0.92554 0.73256 0.40052 0.0
H143 H 0.88665 0.77506 0.33961 0.0
H144 H 0.93345 0.78464 0.38138 0.0
H145 H 0.93855 0.79051 0.35062 0.0
H146 H 0.91503 0.78575 0.3295 0.0
H147 H 0.88216 0.76921 0.37047 0.0
H148 H 0.90996 0.83594 0.39922 0.0
H149 H 0.93203 0.83749 0.42229 0.0
O150 O 0.92717 0.76129 0.40316 0.0
C151 C 0.90115 0.75227 0.43518 0.0
C152 C 0.93226 0.81012 0.42645 0.0
C153 C 0.91436 0.82433 0.40551 0.0
N154 N 0.91324 0.79361 0.40855 0.0
C155 C 0.92529 0.79435 0.42133 0.0
C156 C 0.90768 0.80833 0.40073 0.0
C157 C 0.92675 0.82518 0.41845 0.0
C158 C 0.86487 0.72521 0.39606 0.0
N159 N 0.87663 0.72243 0.40883 0.0
C160 C 0.84739 0.72209 0.39887 0.0
C161 C 0.84198 0.71609 0.41487 0.0
C162 C 0.85405 0.71329 0.42783 0.0
C163 C 0.87142 0.71657 0.42457 0.0
C164 C 0.90418 0.67455 0.41483 0.0
C165 C 0.92043 0.70437 0.42566 0.0
C166 C 0.89938 0.69061 0.40836 0.0
N167 N 0.90743 0.70526 0.41387 0.0
C168 C 0.92557 0.68854 0.43242 0.0
C169 C 0.91736 0.67355 0.42696 0.0
C170 C 0.93412 0.74652 0.40156 0.0
C171 C 0.89698 0.77722 0.34869 0.0
C172 C 0.92318 0.78247 0.37227 0.0
C173 C 0.92612 0.78586 0.35487 0.0
C174 C 0.91292 0.7832 0.34303 0.0
N175 N 0.9075 0.77664 0.37773 0.0
C176 C 0.8945 0.77399 0.36619 0.0
Co177 Co 0.22653 0.90486 0.39996 0.0
Co178 Co 0.2706 0.90172 0.40279 0.0
O179 O 0.24848 0.89488 0.39314 0.0
C180 C 0.22105 0.86763 0.40553 0.0
O181 O 0.2353 0.86737 0.41461 0.0
C182 C 0.27595 0.90637 0.36538 0.0
O183 O 0.26202 0.9159 0.36493 0.0
O184 O 0.26561 0.92654 0.39868 0.0
O185 O 0.23687 0.92827 0.40114 0.0
H186 H 0.3103 0.93675 0.43995 0.0
H187 H 0.22872 0.88311 0.36869 0.0
O188 O 0.21576 0.88159 0.3988 0.0
H189 H 0.20771 0.93945 0.34852 0.0
H190 H 0.16214 0.91126 0.39725 0.0
H191 H 0.21545 0.93083 0.42562 0.0
H192 H 0.21354 0.9345 0.37931 0.0
H193 H 0.19027 0.89929 0.38874 0.0
O194 O 0.28112 0.89984 0.37947 0.0
H195 H 0.28224 0.92789 0.42802 0.0
H196 H 0.30667 0.88998 0.39718 0.0
H197 H 0.18762 0.94326 0.43442 0.0
H198 H 0.2229 0.88745 0.3378 0.0
H199 H 0.16071 0.93347 0.4202 0.0
H200 H 0.21235 0.9158 0.32753 0.0
O201 O 0.23175 0.90128 0.42483 0.0
H202 H 0.27337 0.83911 0.38686 0.0
H203 H 0.28362 0.88165 0.43282 0.0
H204 H 0.28914 0.85093 0.43847 0.0
H205 H 0.28404 0.82942 0.41538 0.0
H206 H 0.26786 0.86994 0.38181 0.0
H207 H 0.33502 0.89852 0.40867 0.0
H208 H 0.33695 0.92201 0.43027 0.0
O209 O 0.26052 0.90356 0.42625 0.0
C210 C 0.25169 0.93517 0.39963 0.0
C211 C 0.30962 0.92645 0.43059 0.0
C212 C 0.3235 0.90501 0.41302 0.0
N213 N 0.29281 0.90835 0.41203 0.0
C214 C 0.29377 0.92135 0.42382 0.0
C215 C 0.30742 0.90026 0.40653 0.0
C216 C 0.32457 0.91819 0.42514 0.0
C217 C 0.224 0.89544 0.36434 0.0
N218 N 0.22141 0.90851 0.3758 0.0
C219 C 0.22079 0.89784 0.34682 0.0
C220 C 0.21489 0.91376 0.34107 0.0
C221 C 0.21229 0.92703 0.35283 0.0
C222 C 0.21566 0.92417 0.37025 0.0
C223 C 0.17378 0.91566 0.40352 0.0
C224 C 0.2038 0.92659 0.4193 0.0
C225 C 0.18973 0.9089 0.39878 0.0
N226 N 0.20449 0.91446 0.40659 0.0
C227 C 0.18808 0.93363 0.42437 0.0
C228 C 0.17299 0.92812 0.41639 0.0
C229 C 0.24577 0.90229 0.43331 0.0
C230 C 0.27568 0.84836 0.39701 0.0
C231 C 0.28131 0.87237 0.42273 0.0
C232 C 0.2845 0.85499 0.42599 0.0
C233 C 0.28165 0.84293 0.41302 0.0
N234 N 0.27548 0.8776 0.40698 0.0
C235 C 0.27264 0.86585 0.39421 0.0
Co236 Co 0.09327 0.77147 0.59769 0.0
Co237 Co 0.09647 0.72744 0.5941 0.0
O238 O 0.10324 0.7494 0.60418 0.0
C239 C 0.13052 0.7773 0.59235 0.0
O240 O 0.13093 0.76329 0.58292 0.0
C241 C 0.09151 0.72162 0.63138 0.0
O242 O 0.08241 0.73583 0.6319 0.0
O243 O 0.0716 0.73235 0.59807 0.0
O244 O 0.06988 0.76113 0.5962 0.0
H245 H 0.06182 0.68842 0.55587 0.0
H246 H 0.11486 0.7688 0.62904 0.0
O247 O 0.11651 0.78229 0.59919 0.0
H248 H 0.05834 0.78926 0.64928 0.0
H249 H 0.08668 0.8358 0.60153 0.0
H250 H 0.06745 0.78295 0.57206 0.0
H251 H 0.06348 0.78402 0.61841 0.0
H252 H 0.09868 0.80755 0.6096 0.0
O253 O 0.09805 0.71648 0.61727 0.0
H254 H 0.07054 0.71626 0.56841 0.0
H255 H 0.10814 0.69126 0.59916 0.0
H256 H 0.05502 0.81091 0.56367 0.0
H257 H 0.11033 0.77403 0.66001 0.0
H258 H 0.06463 0.83758 0.57845 0.0
H259 H 0.08189 0.78429 0.67031 0.0
O260 O 0.097 0.7667 0.57276 0.0
H261 H 0.15891 0.72438 0.6106 0.0
H262 H 0.11683 0.71494 0.56404 0.0
H263 H 0.14761 0.70953 0.5586 0.0
H264 H 0.16888 0.71422 0.58199 0.0
H265 H 0.12802 0.72978 0.61544 0.0
H266 H 0.09974 0.66313 0.58705 0.0
H267 H 0.07647 0.66161 0.56518 0.0
O268 O 0.09487 0.73794 0.57078 0.0
C269 C 0.06298 0.74629 0.59739 0.0
C270 C 0.07201 0.68893 0.56534 0.0
C271 C 0.09328 0.67473 0.58286 0.0
N272 N 0.08992 0.70539 0.5844 0.0
C273 C 0.07703 0.70466 0.57246 0.0
C274 C 0.09796 0.69069 0.5897 0.0
C275 C 0.08023 0.67389 0.57059 0.0
C276 C 0.10249 0.7734 0.63341 0.0
N277 N 0.08947 0.77616 0.62192 0.0
C278 C 0.09999 0.77628 0.65096 0.0
C279 C 0.08402 0.78201 0.65674 0.0
C280 C 0.0708 0.78479 0.64495 0.0
C281 C 0.07377 0.78176 0.62749 0.0
C282 C 0.08237 0.82426 0.59501 0.0
C283 C 0.07163 0.79449 0.57862 0.0
C284 C 0.08914 0.80824 0.59951 0.0
N285 N 0.08367 0.79361 0.5914 0.0
C286 C 0.06458 0.81029 0.57378 0.0
C287 C 0.06999 0.82525 0.58207 0.0
C288 C 0.09613 0.75283 0.56401 0.0
C289 C 0.14976 0.72225 0.60032 0.0
C290 C 0.12601 0.71707 0.57427 0.0
C291 C 0.14342 0.71394 0.57112 0.0
C292 C 0.15535 0.71657 0.58426 0.0
N293 N 0.12062 0.72261 0.59007 0.0
C294 C 0.13224 0.72522 0.603 0.0
Co295 Co 0.27123 0.09733 0.59478 0.0
Co296 Co 0.22718 0.09407 0.59808 0.0
O297 O 0.24923 0.10396 0.60481 0.0
C298 C 0.27682 0.09187 0.63202 0.0
O299 O 0.26266 0.08264 0.63232 0.0
C300 C 0.22151 0.13139 0.59318 0.0
O301 O 0.23554 0.13189 0.58379 0.0
O302 O 0.2321 0.09809 0.57322 0.0
O303 O 0.26086 0.09602 0.57138 0.0
H304 H 0.18781 0.05624 0.56338 0.0
H305 H 0.26881 0.1286 0.61652 0.0
O306 O 0.28203 0.09862 0.61803 0.0
H307 H 0.28946 0.14894 0.56008 0.0
H308 H 0.33558 0.10072 0.58822 0.0
H309 H 0.28252 0.07175 0.56882 0.0
H310 H 0.28394 0.11809 0.56508 0.0
H311 H 0.30739 0.10894 0.60025 0.0
O312 O 0.21643 0.11729 0.5998 0.0
H313 H 0.21576 0.06856 0.57208 0.0
H314 H 0.19107 0.09935 0.60985 0.0
H315 H 0.31043 0.06322 0.55635 0.0
H316 H 0.27431 0.15955 0.61212 0.0
H317 H 0.33721 0.07776 0.56605 0.0
H318 H 0.28467 0.1699 0.58372 0.0
O319 O 0.26625 0.0724 0.59839 0.0
H320 H 0.22436 0.11037 0.66058 0.0
H321 H 0.21447 0.06403 0.61836 0.0
H322 H 0.20906 0.05851 0.64913 0.0
H323 H 0.21398 0.0818 0.67048 0.0
H324 H 0.22975 0.11528 0.6297 0.0
H325 H 0.16283 0.08747 0.60147 0.0
H326 H 0.16109 0.0657 0.57813 0.0
O327 O 0.23748 0.0707 0.59636 0.0
C328 C 0.24601 0.09732 0.56454 0.0
C329 C 0.18841 0.06568 0.57361 0.0
C330 C 0.17438 0.08322 0.59498 0.0
N331 N 0.20505 0.08455 0.59155 0.0
C332 C 0.2042 0.07266 0.57862 0.0
C333 C 0.1904 0.08993 0.59964 0.0
C334 C 0.17342 0.071 0.58188 0.0
C335 C 0.27345 0.13299 0.60416 0.0
N336 N 0.27611 0.12154 0.59109 0.0
C337 C 0.27649 0.15053 0.60174 0.0
C338 C 0.28228 0.15634 0.58579 0.0
C339 C 0.28495 0.14458 0.57251 0.0
C340 C 0.28176 0.12713 0.57541 0.0
C341 C 0.324 0.09432 0.58387 0.0
C342 C 0.29411 0.0782 0.57303 0.0
C343 C 0.30801 0.09889 0.59065 0.0
N344 N 0.29332 0.09092 0.58514 0.0
C345 C 0.30988 0.07328 0.56596 0.0
C346 C 0.3249 0.08143 0.57142 0.0
C347 C 0.2523 0.06378 0.59751 0.0
C348 C 0.22213 0.10013 0.6514 0.0
C349 C 0.2167 0.0742 0.62757 0.0
C350 C 0.21358 0.07102 0.64498 0.0
C351 C 0.21633 0.08409 0.65695 0.0
N352 N 0.22237 0.08998 0.62223 0.0
C353 C 0.2251 0.10285 0.63389 0.0
Co354 Co 0.90457 0.22795 0.59651 0.0
Co355 Co 0.901 0.27195 0.59349 0.0
O356 O 0.89446 0.24984 0.60332 0.0
C357 C 0.8673 0.22204 0.59152 0.0
O358 O 0.86676 0.23608 0.58215 0.0
C359 C 0.90596 0.27733 0.63081 0.0
O360 O 0.91542 0.26334 0.6311 0.0
O361 O 0.92591 0.26721 0.59739 0.0
O362 O 0.92787 0.23849 0.59496 0.0
H363 H 0.93522 0.31176 0.55573 0.0
H364 H 0.88323 0.23013 0.62807 0.0
O365 O 0.88142 0.21698 0.5981 0.0
H366 H 0.94007 0.20983 0.6476 0.0
H367 H 0.91158 0.16363 0.59954 0.0
H368 H 0.93026 0.21692 0.57056 0.0
H369 H 0.93462 0.21539 0.61684 0.0
H370 H 0.89949 0.19171 0.60805 0.0
O371 O 0.89931 0.28257 0.61679 0.0
H372 H 0.92677 0.28368 0.56792 0.0
H373 H 0.88903 0.30796 0.59906 0.0
H374 H 0.94278 0.18913 0.56174 0.0
H375 H 0.88807 0.22458 0.65894 0.0
H376 H 0.93343 0.16223 0.57627 0.0
H377 H 0.91667 0.21439 0.66888 0.0
O378 O 0.9006 0.23297 0.57168 0.0
H379 H 0.83855 0.27428 0.61007 0.0
H380 H 0.88049 0.28464 0.56361 0.0
H381 H 0.84967 0.28988 0.55826 0.0
H382 H 0.82846 0.28472 0.58161 0.0
H383 H 0.86949 0.26906 0.61482 0.0
H384 H 0.89715 0.33631 0.58732 0.0
H385 H 0.92036 0.33832 0.56544 0.0
O386 O 0.90267 0.26175 0.57005 0.0
C387 C 0.93465 0.25337 0.5964 0.0
C388 C 0.92505 0.31104 0.56522 0.0
C389 C 0.9037 0.32483 0.58296 0.0
N390 N 0.90733 0.29418 0.58407 0.0
C391 C 0.92018 0.29518 0.57213 0.0
C392 C 0.89918 0.30874 0.58959 0.0
C393 C 0.91672 0.32594 0.57068 0.0
C394 C 0.89567 0.22557 0.63228 0.0
N395 N 0.90861 0.22303 0.62065 0.0
C396 C 0.89835 0.2225 0.64978 0.0
C397 C 0.91441 0.21681 0.65536 0.0
C398 C 0.92754 0.21426 0.64342 0.0
C399 C 0.9244 0.21747 0.62603 0.0
C400 C 0.91577 0.17526 0.59313 0.0
C401 C 0.92621 0.20528 0.57701 0.0
C402 C 0.90895 0.19119 0.59787 0.0
N403 N 0.91427 0.20594 0.5899 0.0
C404 C 0.9333 0.18958 0.57193 0.0
C405 C 0.92804 0.17449 0.58008 0.0
C406 C 0.90142 0.24694 0.5631 0.0
C407 C 0.84767 0.27661 0.59981 0.0
C408 C 0.87134 0.2823 0.57381 0.0
C409 C 0.8539 0.28534 0.57072 0.0
C410 C 0.84201 0.28245 0.58383 0.0
N411 N 0.87679 0.27661 0.58953 0.0
C412 C 0.86521 0.27374 0.60244 0.0
Co413 Co 0.72704 0.90133 0.59409 0.0
Co414 Co 0.77108 0.90499 0.59692 0.0
O415 O 0.7492 0.89488 0.60387 0.0
C416 C 0.72175 0.90658 0.6314 0.0
O417 O 0.73585 0.9159 0.63163 0.0
C418 C 0.77698 0.86772 0.59198 0.0
O419 O 0.76286 0.86711 0.58272 0.0
O420 O 0.76593 0.90093 0.57212 0.0
O421 O 0.73714 0.90284 0.57061 0.0
H422 H 0.80972 0.94318 0.56186 0.0
H423 H 0.72998 0.86998 0.61562 0.0
O424 O 0.71648 0.89982 0.61743 0.0
H425 H 0.70893 0.84973 0.55928 0.0
H426 H 0.66266 0.89739 0.58811 0.0
H427 H 0.71526 0.92694 0.56839 0.0
H428 H 0.7142 0.8806 0.5644 0.0
H429 H 0.69104 0.88935 0.59983 0.0
O430 O 0.78206 0.88186 0.59852 0.0
H431 H 0.78198 0.93062 0.57084 0.0
H432 H 0.80737 0.90002 0.60831 0.0
H433 H 0.68716 0.93529 0.55624 0.0
H434 H 0.72473 0.83899 0.61111 0.0
H435 H 0.66061 0.92047 0.5661 0.0
H436 H 0.71417 0.82869 0.58275 0.0
O437 O 0.73182 0.92626 0.5978 0.0
H438 H 0.77477 0.88868 0.65937 0.0
H439 H 0.78375 0.93513 0.61711 0.0
H440 H 0.78947 0.94067 0.64782 0.0
H441 H 0.78501 0.91733 0.66919 0.0
H442 H 0.76905 0.88374 0.62855 0.0
H443 H 0.83541 0.91214 0.59964 0.0
H444 H 0.83669 0.93394 0.5763 0.0
O445 O 0.76055 0.92828 0.59535 0.0
C446 C 0.75192 0.90163 0.56359 0.0
C447 C 0.80933 0.93373 0.57208 0.0
C448 C 0.82374 0.9163 0.59327 0.0
N449 N 0.79305 0.91471 0.59017 0.0
C450 C 0.79365 0.92661 0.57725 0.0
C451 C 0.80784 0.90945 0.5981 0.0
C452 C 0.82445 0.92853 0.58018 0.0
C453 C 0.72525 0.8656 0.60329 0.0
N454 N 0.72234 0.87709 0.59031 0.0
C455 C 0.72236 0.84804 0.60079 0.0
C456 C 0.71646 0.84226 0.58487 0.0
C457 C 0.71352 0.85406 0.57169 0.0
C458 C 0.71657 0.87152 0.57465 0.0
C459 C 0.67414 0.90392 0.58369 0.0
C460 C 0.70377 0.92036 0.57267 0.0
C461 C 0.69023 0.89945 0.5903 0.0
N462 N 0.70479 0.90758 0.58469 0.0
C463 C 0.68789 0.92518 0.56578 0.0
C464 C 0.673 0.91687 0.57133 0.0
C465 C 0.74567 0.93503 0.59678 0.0
C466 C 0.7768 0.89894 0.65018 0.0
C467 C 0.78171 0.92493 0.62633 0.0
C468 C 0.78502 0.92813 0.6437 0.0
C469 C 0.78253 0.91502 0.65568 0.0
N470 N 0.77612 0.90911 0.62103 0.0
C471 C 0.77365 0.8962 0.6327 0.0
Co472 Co 0.4044 0.09631 0.27106 0.0
Co473 Co 0.40081 0.09355 0.22704 0.0
O474 O 0.39438 0.10335 0.2492 0.0
C475 C 0.36707 0.09178 0.27701 0.0
O476 O 0.36635 0.08245 0.26293 0.0
C477 C 0.40623 0.13084 0.22169 0.0
O478 O 0.41579 0.13104 0.23562 0.0
O479 O 0.42575 0.09721 0.23183 0.0
O480 O 0.42767 0.09447 0.26053 0.0
H481 H 0.43467 0.05563 0.18713 0.0
H482 H 0.38354 0.12817 0.26901 0.0
O483 O 0.38129 0.09817 0.28204 0.0
H484 H 0.44068 0.14681 0.28943 0.0
H485 H 0.41154 0.09897 0.33539 0.0
H486 H 0.4297 0.06994 0.28198 0.0
H487 H 0.43477 0.11616 0.28373 0.0
H488 H 0.39955 0.10776 0.30735 0.0
O489 O 0.39934 0.1169 0.2165 0.0
H490 H 0.42634 0.06779 0.21524 0.0
H491 H 0.38888 0.09934 0.19104 0.0
H492 H 0.44212 0.06082 0.30972 0.0
H493 H 0.38885 0.15895 0.27471 0.0
H494 H 0.43304 0.07538 0.33668 0.0
H495 H 0.4176 0.16844 0.28496 0.0
O496 O 0.40006 0.07154 0.26591 0.0
H497 H 0.33852 0.11068 0.22473 0.0
H498 H 0.38001 0.0639 0.21419 0.0
H499 H 0.34913 0.05884 0.20891 0.0
H500 H 0.32815 0.08235 0.21415 0.0
H501 H 0.36951 0.11514 0.22999 0.0
H502 H 0.39689 0.08762 0.16265 0.0
H503 H 0.41989 0.06555 0.16059 0.0
O504 O 0.40226 0.07005 0.23714 0.0
C505 C 0.43447 0.09598 0.24568 0.0
C506 C 0.42459 0.0652 0.18787 0.0
C507 C 0.4034 0.08317 0.17413 0.0
N508 N 0.40705 0.08415 0.20479 0.0
C509 C 0.41979 0.0721 0.20375 0.0
C510 C 0.39895 0.08979 0.19023 0.0
C511 C 0.4163 0.07078 0.17298 0.0
C512 C 0.39604 0.13219 0.2736 0.0
N513 N 0.4088 0.12037 0.2761 0.0
C514 C 0.39899 0.14964 0.27675 0.0
C515 C 0.41514 0.15496 0.28248 0.0
C516 C 0.42809 0.14283 0.28498 0.0
C517 C 0.42468 0.12549 0.28168 0.0
C518 C 0.41562 0.09255 0.32373 0.0
C519 C 0.42576 0.0764 0.29364 0.0
C520 C 0.40885 0.09745 0.30782 0.0
N521 N 0.41403 0.08946 0.29304 0.0
C522 C 0.43281 0.07115 0.30932 0.0
C523 C 0.42769 0.07932 0.32444 0.0
C524 C 0.40087 0.06303 0.2519 0.0
C525 C 0.34754 0.10035 0.22236 0.0
C526 C 0.37096 0.07417 0.21657 0.0
C527 C 0.35349 0.07124 0.21351 0.0
C528 C 0.34173 0.08444 0.21644 0.0
N529 N 0.37657 0.08982 0.22234 0.0
C530 C 0.36511 0.10282 0.22526 0.0
Co531 Co 0.90358 0.40113 0.22707 0.0
Co532 Co 0.9003 0.4041 0.27113 0.0
O533 O 0.89366 0.39426 0.24904 0.0
C534 C 0.8663 0.40622 0.22147 0.0
O535 O 0.86587 0.41536 0.23568 0.0
C536 C 0.90562 0.3668 0.27649 0.0
O537 O 0.91504 0.36656 0.26247 0.0
O538 O 0.92522 0.40044 0.26618 0.0
O539 O 0.92696 0.40266 0.23743 0.0
H540 H 0.93456 0.44206 0.31076 0.0
H541 H 0.88221 0.36959 0.22933 0.0
O542 O 0.88035 0.39963 0.21626 0.0
H543 H 0.93886 0.35008 0.20851 0.0
H544 H 0.91016 0.3983 0.1627 0.0
H545 H 0.92923 0.42712 0.21594 0.0
H546 H 0.93351 0.38083 0.21421 0.0
H547 H 0.89825 0.3897 0.19084 0.0
O548 O 0.89886 0.38077 0.28172 0.0
H549 H 0.92598 0.42987 0.28272 0.0
H550 H 0.88863 0.39836 0.30722 0.0
H551 H 0.94158 0.43603 0.18809 0.0
H552 H 0.88695 0.33873 0.22364 0.0
H553 H 0.93204 0.42157 0.16122 0.0
H554 H 0.91546 0.3288 0.21319 0.0
O555 O 0.89969 0.42596 0.2322 0.0
H556 H 0.838 0.38696 0.27394 0.0
H557 H 0.87967 0.43378 0.28406 0.0
H558 H 0.84885 0.43885 0.28957 0.0
H559 H 0.82778 0.41532 0.28453 0.0
H560 H 0.86893 0.3825 0.26846 0.0
H561 H 0.89689 0.4101 0.33554 0.0
H562 H 0.91997 0.43216 0.33742 0.0
O563 O 0.90173 0.42758 0.26099 0.0
C564 C 0.93385 0.40137 0.25225 0.0
C565 C 0.92445 0.43249 0.3101 0.0
C566 C 0.90333 0.41454 0.32401 0.0
N567 N 0.90673 0.41353 0.29333 0.0
C568 C 0.91951 0.42558 0.29426 0.0
C569 C 0.89873 0.40791 0.30794 0.0
C570 C 0.91627 0.42692 0.32506 0.0
C571 C 0.89461 0.36538 0.22465 0.0
N572 N 0.90755 0.37701 0.22204 0.0
C573 C 0.89724 0.34788 0.22151 0.0
C574 C 0.91324 0.34232 0.21567 0.0
C575 C 0.92638 0.35425 0.21305 0.0
C576 C 0.92329 0.37164 0.21634 0.0
C577 C 0.91445 0.40467 0.17432 0.0
C578 C 0.92509 0.4207 0.20431 0.0
C579 C 0.90772 0.39988 0.19028 0.0
N580 N 0.91314 0.40782 0.20502 0.0
C581 C 0.9321 0.42583 0.18858 0.0
C582 C 0.92673 0.41773 0.1735 0.0
C583 C 0.90046 0.43453 0.24618 0.0
C584 C 0.84706 0.3973 0.27622 0.0
C585 C 0.87058 0.4235 0.28178 0.0
C586 C 0.85314 0.42643 0.28496 0.0
C587 C 0.84133 0.41322 0.28214 0.0
N588 N 0.87611 0.40784 0.276 0.0
C589 C 0.8646 0.39483 0.2732 0.0
Co590 Co 0.59738 0.90461 0.22702 0.0
Co591 Co 0.59387 0.90141 0.27102 0.0
O592 O 0.60397 0.89472 0.24908 0.0
C593 C 0.59254 0.86728 0.22145 0.0
O594 O 0.58305 0.86686 0.23542 0.0
C595 C 0.63112 0.90652 0.27687 0.0
O596 O 0.63162 0.91593 0.26285 0.0
O597 O 0.59778 0.92629 0.26608 0.0
O598 O 0.59565 0.92801 0.23731 0.0
H599 H 0.55563 0.93593 0.31004 0.0
H600 H 0.62897 0.88342 0.22977 0.0
O601 O 0.59914 0.88137 0.2163 0.0
H602 H 0.64856 0.94013 0.2091 0.0
H603 H 0.60108 0.91106 0.16267 0.0
H604 H 0.57149 0.93012 0.21546 0.0
H605 H 0.61776 0.93463 0.21439 0.0
H606 H 0.60932 0.89925 0.19096 0.0
O607 O 0.61703 0.89987 0.28193 0.0
H608 H 0.56813 0.92724 0.2822 0.0
H609 H 0.59902 0.88976 0.3072 0.0
H610 H 0.56294 0.94237 0.18745 0.0
H611 H 0.65988 0.88832 0.22449 0.0
H612 H 0.57779 0.93283 0.16081 0.0
H613 H 0.66985 0.91687 0.21412 0.0
O614 O 0.5725 0.90059 0.2318 0.0
H615 H 0.61052 0.83903 0.27411 0.0
H616 H 0.56388 0.88094 0.28357 0.0
H617 H 0.55852 0.85014 0.28903 0.0
H618 H 0.58196 0.82895 0.28433 0.0
H619 H 0.61527 0.86993 0.26866 0.0
H620 H 0.58695 0.89813 0.33533 0.0
H621 H 0.56504 0.92133 0.33686 0.0
O622 O 0.57054 0.90293 0.26053 0.0
C623 C 0.59692 0.93491 0.25214 0.0
C624 C 0.56512 0.92577 0.30954 0.0
C625 C 0.58272 0.90457 0.32373 0.0
N626 N 0.58417 0.90792 0.29306 0.0
C627 C 0.57221 0.92076 0.2938 0.0
C628 C 0.58953 0.89991 0.30777 0.0
C629 C 0.57042 0.91758 0.32458 0.0
C630 C 0.63319 0.89583 0.22512 0.0
N631 N 0.62156 0.9087 0.22233 0.0
C632 C 0.65072 0.89855 0.22222 0.0
C633 C 0.65631 0.91457 0.21642 0.0
C634 C 0.64437 0.92764 0.21361 0.0
C635 C 0.62695 0.92446 0.21667 0.0
C636 C 0.59454 0.91534 0.1742 0.0
C637 C 0.57808 0.92599 0.20393 0.0
C638 C 0.59912 0.90867 0.19024 0.0
N639 N 0.59098 0.9141 0.20485 0.0
C640 C 0.57315 0.93293 0.18811 0.0
C641 C 0.58147 0.92756 0.17316 0.0
C642 C 0.56376 0.90151 0.24566 0.0
C643 C 0.60021 0.84814 0.27625 0.0
C644 C 0.57412 0.8718 0.28143 0.0
C645 C 0.57102 0.85438 0.28459 0.0
C646 C 0.58418 0.8425 0.28196 0.0
N647 N 0.58989 0.87724 0.27585 0.0
C648 C 0.60285 0.86567 0.27324 0.0
Co649 Co 0.09673 0.59491 0.2712 0.0
Co650 Co 0.0933 0.59763 0.22714 0.0
O651 O 0.10333 0.6046 0.24904 0.0
C652 C 0.0916 0.63226 0.27637 0.0
O653 O 0.08229 0.63248 0.26228 0.0
C654 C 0.13056 0.59243 0.22143 0.0
O655 O 0.131 0.58323 0.23559 0.0
O656 O 0.09715 0.57281 0.23236 0.0
O657 O 0.09517 0.57139 0.26116 0.0
H658 H 0.055 0.56271 0.18843 0.0
H659 H 0.12817 0.61636 0.26833 0.0
O660 O 0.09828 0.61829 0.28169 0.0
H661 H 0.1481 0.56003 0.28961 0.0
H662 H 0.10032 0.58919 0.33562 0.0
H663 H 0.07097 0.56931 0.28297 0.0
H664 H 0.11727 0.56521 0.2842 0.0
H665 H 0.10855 0.60076 0.30723 0.0
O666 O 0.1165 0.59905 0.21626 0.0
H667 H 0.06752 0.57167 0.2162 0.0
H668 H 0.09854 0.60886 0.19083 0.0
H669 H 0.06243 0.55729 0.31108 0.0
H670 H 0.15911 0.61178 0.27371 0.0
H671 H 0.07715 0.56724 0.33765 0.0
H672 H 0.16925 0.58343 0.28438 0.0
O673 O 0.07182 0.59865 0.26631 0.0
H674 H 0.11006 0.65998 0.22334 0.0
H675 H 0.06336 0.61794 0.21429 0.0
H676 H 0.05806 0.64867 0.20846 0.0
H677 H 0.08153 0.66992 0.21296 0.0
H678 H 0.11475 0.62914 0.22916 0.0
H679 H 0.08646 0.6002 0.16277 0.0
H680 H 0.06447 0.57701 0.16147 0.0
O681 O 0.06996 0.59621 0.23757 0.0
C682 C 0.09636 0.56433 0.2464 0.0
C683 C 0.06453 0.57286 0.18884 0.0
C684 C 0.08221 0.59389 0.17444 0.0
N685 N 0.08364 0.59086 0.20514 0.0
C686 C 0.07163 0.57802 0.20452 0.0
C687 C 0.08903 0.59871 0.19035 0.0
C688 C 0.06987 0.58088 0.17371 0.0
C689 C 0.13247 0.60403 0.27311 0.0
N690 N 0.12092 0.59109 0.27601 0.0
C691 C 0.15001 0.60149 0.27607 0.0
C692 C 0.1557 0.58558 0.28204 0.0
C693 C 0.14384 0.57244 0.28497 0.0
C694 C 0.1264 0.57543 0.28184 0.0
C695 C 0.09383 0.58473 0.32413 0.0
C696 C 0.0775 0.57362 0.29447 0.0
C697 C 0.09841 0.59126 0.30802 0.0
N698 N 0.09033 0.58561 0.29345 0.0
C699 C 0.07258 0.56681 0.31035 0.0
C700 C 0.08084 0.57241 0.32526 0.0
C701 C 0.06313 0.59763 0.25242 0.0
C702 C 0.09975 0.65084 0.2213 0.0
C703 C 0.07362 0.62711 0.21634 0.0
C704 C 0.07055 0.64449 0.21298 0.0
C705 C 0.08373 0.65641 0.21549 0.0
N706 N 0.08937 0.62174 0.22201 0.0
C707 C 0.10235 0.63335 0.22451 0.0
Co708 Co 0.40465 0.90115 0.72612 0.0
Co709 Co 0.40135 0.90464 0.77014 0.0
O710 O 0.39465 0.89458 0.74816 0.0
C711 C 0.36739 0.90624 0.72041 0.0
O712 O 0.36696 0.91549 0.73454 0.0
C713 C 0.40629 0.86737 0.7761 0.0
O714 O 0.41571 0.86679 0.76209 0.0
O715 O 0.42622 0.90064 0.76527 0.0
O716 O 0.42801 0.90273 0.73651 0.0
H717 H 0.436 0.94274 0.80928 0.0
H718 H 0.38318 0.8697 0.72873 0.0
O719 O 0.38144 0.89958 0.71528 0.0
H720 H 0.43981 0.84976 0.70829 0.0
H721 H 0.41138 0.89746 0.66181 0.0
H722 H 0.43041 0.92691 0.71472 0.0
H723 H 0.43454 0.88059 0.71359 0.0
H724 H 0.39937 0.88927 0.69002 0.0
O725 O 0.39964 0.88148 0.78106 0.0
H726 H 0.42732 0.93026 0.78141 0.0
H727 H 0.38955 0.89956 0.80628 0.0
H728 H 0.44286 0.93541 0.68679 0.0
H729 H 0.38783 0.83876 0.72345 0.0
H730 H 0.43334 0.92064 0.66008 0.0
H731 H 0.41634 0.8286 0.7132 0.0
O732 O 0.40082 0.92606 0.73093 0.0
H733 H 0.33887 0.88822 0.77309 0.0
H734 H 0.38103 0.93473 0.7826 0.0
H735 H 0.35025 0.94021 0.78798 0.0
H736 H 0.32894 0.91684 0.78325 0.0
H737 H 0.36976 0.88335 0.76772 0.0
H738 H 0.39791 0.9116 0.83444 0.0
H739 H 0.42125 0.93341 0.83605 0.0
O740 O 0.40306 0.92796 0.75967 0.0
C741 C 0.43488 0.90146 0.75135 0.0
C742 C 0.42578 0.93329 0.80874 0.0
C743 C 0.40441 0.9158 0.82287 0.0
N744 N 0.40786 0.91431 0.79221 0.0
C745 C 0.42078 0.92622 0.79299 0.0
C746 C 0.39976 0.909 0.80689 0.0
C747 C 0.4175 0.92804 0.82376 0.0
C748 C 0.39557 0.8654 0.72414 0.0
N749 N 0.40855 0.87695 0.72141 0.0
C750 C 0.39815 0.84785 0.72123 0.0
C751 C 0.41415 0.84216 0.7155 0.0
C752 C 0.42733 0.85402 0.71275 0.0
C753 C 0.42429 0.87146 0.71581 0.0
C754 C 0.41565 0.90397 0.67336 0.0
C755 C 0.42628 0.92036 0.70316 0.0
C756 C 0.40887 0.89942 0.68936 0.0
N757 N 0.41428 0.90752 0.70401 0.0
C758 C 0.43334 0.92526 0.68738 0.0
C759 C 0.42798 0.91697 0.6724 0.0
C760 C 0.40176 0.93477 0.74481 0.0
C761 C 0.34804 0.8985 0.77524 0.0
C762 C 0.37183 0.92451 0.78045 0.0
C763 C 0.35442 0.92768 0.78356 0.0
C764 C 0.34247 0.91456 0.78092 0.0
N765 N 0.3772 0.90871 0.77491 0.0
C766 C 0.36555 0.89579 0.77228 0.0
Co767 Co 0.09428 0.40086 0.7723 0.0
Co768 Co 0.09802 0.40442 0.72832 0.0
O769 O 0.10455 0.39442 0.75035 0.0
C770 C 0.13145 0.40638 0.77833 0.0
O771 O 0.13189 0.41582 0.76433 0.0
C772 C 0.09323 0.36713 0.72244 0.0
O773 O 0.0838 0.36659 0.73644 0.0
O774 O 0.07313 0.40029 0.73295 0.0
O775 O 0.07099 0.40217 0.76171 0.0
H776 H 0.06361 0.4423 0.68884 0.0
H777 H 0.11608 0.36966 0.76985 0.0
O778 O 0.11742 0.39954 0.78331 0.0
H779 H 0.05947 0.34906 0.78981 0.0
H780 H 0.08709 0.39707 0.83655 0.0
H781 H 0.06818 0.4263 0.78352 0.0
H782 H 0.06448 0.37995 0.78456 0.0
H783 H 0.09941 0.38905 0.80843 0.0
O784 O 0.09987 0.38125 0.71742 0.0
H785 H 0.07208 0.4299 0.7168 0.0
H786 H 0.11016 0.39937 0.69229 0.0
H787 H 0.05542 0.43464 0.81136 0.0
H788 H 0.11167 0.33867 0.7751 0.0
H789 H 0.06488 0.41998 0.83813 0.0
H790 H 0.08318 0.32818 0.78511 0.0
O791 O 0.09791 0.42582 0.76755 0.0
H792 H 0.16057 0.38833 0.72596 0.0
H793 H 0.11837 0.43461 0.71604 0.0
H794 H 0.14918 0.44025 0.71096 0.0
H795 H 0.17052 0.417 0.7159 0.0
H796 H 0.12965 0.38329 0.73103 0.0
H797 H 0.10202 0.41133 0.66404 0.0
H798 H 0.07863 0.43301 0.66221 0.0
O799 O 0.09615 0.42774 0.73877 0.0
C800 C 0.06431 0.40093 0.74678 0.0
C801 C 0.07386 0.4329 0.68948 0.0
C802 C 0.0954 0.41551 0.67556 0.0
N803 N 0.09169 0.41404 0.70619 0.0
C804 C 0.07874 0.42588 0.70528 0.0
C805 C 0.09993 0.40875 0.69158 0.0
C806 C 0.08228 0.42768 0.67454 0.0
C807 C 0.10369 0.36521 0.77434 0.0
N808 N 0.09058 0.37662 0.77696 0.0
C809 C 0.10125 0.34764 0.77723 0.0
C810 C 0.08526 0.34177 0.78283 0.0
C811 C 0.07194 0.35347 0.78546 0.0
C812 C 0.07484 0.37095 0.78242 0.0
C813 C 0.08284 0.40353 0.82498 0.0
C814 C 0.07228 0.41979 0.7951 0.0
C815 C 0.08979 0.39907 0.80902 0.0
N816 N 0.08441 0.40711 0.79434 0.0
C817 C 0.06505 0.4246 0.81083 0.0
C818 C 0.07037 0.41638 0.82585 0.0
C819 C 0.09714 0.43455 0.75367 0.0
C820 C 0.1514 0.39856 0.72373 0.0
C821 C 0.12757 0.42444 0.71828 0.0
C822 C 0.145 0.4277 0.71534 0.0
C823 C 0.15697 0.41465 0.7181 0.0
N824 N 0.12221 0.40862 0.72377 0.0
C825 C 0.13386 0.39576 0.72651 0.0
Co826 Co 0.598 0.09467 0.77157 0.0
Co827 Co 0.5945 0.09762 0.72752 0.0
O828 O 0.60459 0.10443 0.74944 0.0
C829 C 0.59297 0.13201 0.77693 0.0
O830 O 0.58349 0.13231 0.76295 0.0
C831 C 0.63172 0.09224 0.72199 0.0
O832 O 0.63204 0.08316 0.73623 0.0
O833 O 0.59815 0.07275 0.73264 0.0
O834 O 0.59634 0.07121 0.76144 0.0
H835 H 0.55598 0.06315 0.68864 0.0
H836 H 0.62952 0.11603 0.76875 0.0
O837 O 0.59967 0.118 0.78213 0.0
H838 H 0.64927 0.05954 0.78978 0.0
H839 H 0.60164 0.08871 0.83596 0.0
H840 H 0.57216 0.06913 0.78327 0.0
H841 H 0.61846 0.06484 0.78442 0.0
H842 H 0.60988 0.10035 0.8076 0.0
O843 O 0.61773 0.09887 0.71668 0.0
H844 H 0.56851 0.07193 0.71646 0.0
H845 H 0.59988 0.10895 0.69127 0.0
H846 H 0.56361 0.05704 0.81134 0.0
H847 H 0.66044 0.11132 0.77409 0.0
H848 H 0.5784 0.06684 0.83794 0.0
H849 H 0.6705 0.08289 0.78464 0.0
O850 O 0.57311 0.09852 0.76671 0.0
H851 H 0.6118 0.15984 0.72397 0.0
H852 H 0.56475 0.11823 0.71474 0.0
H853 H 0.55972 0.14902 0.70901 0.0
H854 H 0.58336 0.17006 0.71359 0.0
H855 H 0.61622 0.12895 0.72969 0.0
H856 H 0.58778 0.10048 0.66316 0.0
H857 H 0.56562 0.07747 0.66174 0.0
O858 O 0.57114 0.09636 0.73796 0.0
C859 C 0.59742 0.06421 0.74664 0.0
C860 C 0.56559 0.07323 0.6891 0.0
C861 C 0.58346 0.09416 0.6748 0.0
N862 N 0.5848 0.09103 0.70549 0.0
C863 C 0.5727 0.07829 0.70481 0.0
C864 C 0.59028 0.09888 0.69074 0.0
C865 C 0.57101 0.08126 0.67401 0.0
C866 C 0.63378 0.10367 0.77348 0.0
N867 N 0.62218 0.09075 0.77633 0.0
C868 C 0.65131 0.10106 0.77642 0.0
C869 C 0.65695 0.0851 0.78231 0.0
C870 C 0.64505 0.07198 0.78519 0.0
C871 C 0.62762 0.07505 0.78209 0.0
C872 C 0.59513 0.08431 0.82446 0.0
C873 C 0.57872 0.07337 0.79478 0.0
C874 C 0.59971 0.09088 0.80837 0.0
N875 N 0.5916 0.08531 0.79379 0.0
C876 C 0.57379 0.06652 0.81064 0.0
C877 C 0.58208 0.07204 0.82556 0.0
C878 C 0.56437 0.0977 0.75284 0.0
C879 C 0.60141 0.1508 0.72188 0.0
C880 C 0.57508 0.12731 0.71683 0.0
C881 C 0.57217 0.14473 0.71352 0.0
C882 C 0.58544 0.15653 0.71608 0.0
N883 N 0.59078 0.12179 0.72249 0.0
C884 C 0.60385 0.13328 0.72504 0.0
Co885 Co 0.90104 0.59343 0.72765 0.0
Co886 Co 0.90366 0.59723 0.77169 0.0
O887 O 0.89381 0.60339 0.74948 0.0
C888 C 0.90514 0.63079 0.7218 0.0
O889 O 0.91426 0.63157 0.73601 0.0
C890 C 0.86646 0.59106 0.77677 0.0
O891 O 0.86655 0.58158 0.76278 0.0
O892 O 0.9006 0.5722 0.76695 0.0
O893 O 0.90312 0.57021 0.73823 0.0
H894 H 0.94222 0.56438 0.81183 0.0
H895 H 0.86893 0.61393 0.72953 0.0
O896 O 0.89897 0.61651 0.71664 0.0
H897 H 0.85103 0.55652 0.70923 0.0
H898 H 0.89868 0.58618 0.66333 0.0
H899 H 0.92774 0.56842 0.71686 0.0
H900 H 0.88159 0.5628 0.71501 0.0
H901 H 0.88965 0.5981 0.69132 0.0
O902 O 0.88023 0.59816 0.78211 0.0
H903 H 0.92998 0.57236 0.78365 0.0
H904 H 0.89742 0.60908 0.80763 0.0
H905 H 0.9371 0.55608 0.68916 0.0
H906 H 0.83824 0.60825 0.72376 0.0
H907 H 0.92252 0.56496 0.66214 0.0
H908 H 0.82911 0.57935 0.71357 0.0
O909 O 0.92574 0.59805 0.73287 0.0
H910 H 0.88502 0.65909 0.77382 0.0
H911 H 0.93275 0.61876 0.78461 0.0
H912 H 0.93704 0.64976 0.78987 0.0
H913 H 0.91305 0.67016 0.7845 0.0
H914 H 0.88134 0.628 0.76858 0.0
H915 H 0.9092 0.60141 0.83609 0.0
H916 H 0.93182 0.57896 0.8383 0.0
O917 O 0.92723 0.59632 0.76168 0.0
C918 C 0.90186 0.56344 0.75312 0.0
C919 C 0.93241 0.57422 0.81103 0.0
C920 C 0.91386 0.59499 0.82464 0.0
N921 N 0.91311 0.59127 0.79399 0.0
C922 C 0.92547 0.57883 0.7951 0.0
C923 C 0.90721 0.59925 0.8085 0.0
C924 C 0.92656 0.5824 0.82587 0.0
C925 C 0.86508 0.60137 0.72496 0.0
N926 N 0.87705 0.58874 0.72254 0.0
C927 C 0.84767 0.59821 0.72177 0.0
C928 C 0.84256 0.58198 0.71608 0.0
C929 C 0.85485 0.56916 0.71365 0.0
C930 C 0.87213 0.57278 0.71699 0.0
C931 C 0.90511 0.58219 0.67502 0.0
C932 C 0.92127 0.57227 0.70517 0.0
C933 C 0.90007 0.58892 0.6909 0.0
N934 N 0.90807 0.58385 0.70572 0.0
C935 C 0.92665 0.56527 0.68952 0.0
C936 C 0.91848 0.57027 0.67436 0.0
C937 C 0.93424 0.59762 0.7469 0.0
C938 C 0.89556 0.65033 0.77625 0.0
C939 C 0.92228 0.62756 0.78218 0.0
C940 C 0.92477 0.6451 0.78522 0.0
C941 C 0.9113 0.65653 0.78222 0.0
N942 N 0.90679 0.62157 0.77635 0.0
C943 C 0.89353 0.6327 0.77336 0.0
Co944 Co 0.22763 0.40081 0.09501 0.0
Co945 Co 0.27168 0.40373 0.0988 0.0
O946 O 0.24948 0.39396 0.10524 0.0
C947 C 0.22162 0.40617 0.13221 0.0
O948 O 0.23589 0.41521 0.13277 0.0
C949 C 0.27701 0.36641 0.09363 0.0
O950 O 0.26293 0.36612 0.08431 0.0
O951 O 0.26699 0.39997 0.07385 0.0
O952 O 0.23825 0.40213 0.07174 0.0
H953 H 0.3117 0.44151 0.06484 0.0
H954 H 0.22955 0.36943 0.11662 0.0
O955 O 0.21655 0.39951 0.11812 0.0
H956 H 0.20935 0.34951 0.05985 0.0
H957 H 0.16333 0.398 0.08766 0.0
H958 H 0.21685 0.42661 0.06906 0.0
H959 H 0.21507 0.38028 0.06506 0.0
H960 H 0.19131 0.38947 0.09998 0.0
O961 O 0.28224 0.3804 0.10038 0.0
H962 H 0.28356 0.42937 0.07315 0.0
H963 H 0.30764 0.39805 0.11089 0.0
H964 H 0.18917 0.43545 0.05631 0.0
H965 H 0.22384 0.33855 0.11201 0.0
H966 H 0.16216 0.4211 0.06561 0.0
H967 H 0.21371 0.3284 0.08344 0.0
O968 O 0.23278 0.42567 0.09881 0.0
H969 H 0.27381 0.38685 0.16117 0.0
H970 H 0.28442 0.43349 0.11949 0.0
H971 H 0.28959 0.43869 0.15037 0.0
H972 H 0.2843 0.41525 0.17144 0.0
H973 H 0.26866 0.38226 0.13019 0.0
H974 H 0.33605 0.40975 0.10289 0.0
H975 H 0.33819 0.43169 0.07976 0.0
O976 O 0.26159 0.4272 0.0972 0.0
C977 C 0.25316 0.40082 0.06504 0.0
C978 C 0.31092 0.43199 0.07498 0.0
C979 C 0.3246 0.41415 0.09632 0.0
N980 N 0.29395 0.41312 0.09258 0.0
C981 C 0.29503 0.42511 0.07977 0.0
C982 C 0.30848 0.40755 0.10077 0.0
C983 C 0.32579 0.42647 0.08334 0.0
C984 C 0.22501 0.36513 0.10419 0.0
N985 N 0.22258 0.37666 0.09114 0.0
C986 C 0.22185 0.34762 0.10164 0.0
C987 C 0.21619 0.34194 0.0856 0.0
C988 C 0.21375 0.35377 0.07235 0.0
C989 C 0.21706 0.37118 0.07537 0.0
C990 C 0.17502 0.40433 0.08348 0.0
C991 C 0.20516 0.42024 0.0731 0.0
C992 C 0.19089 0.39958 0.09044 0.0
N993 N 0.20571 0.40745 0.08514 0.0
C994 C 0.18952 0.42533 0.06587 0.0
C995 C 0.17437 0.41728 0.07111 0.0
C996 C 0.2468 0.43421 0.0982 0.0
C997 C 0.2762 0.39715 0.15211 0.0
C998 C 0.28203 0.42325 0.12858 0.0
C999 C 0.28502 0.42626 0.14605 0.0
C1000 C 0.28206 0.4131 0.15787 0.0
N1001 N 0.2763 0.40757 0.12304 0.0
C1002 C 0.27337 0.39461 0.13455 0.0
Co1003 Co 0.27126 0.59482 0.90161 0.0
Co1004 Co 0.22724 0.59758 0.90559 0.0
O1005 O 0.24902 0.60451 0.89526 0.0
C1006 C 0.27656 0.63217 0.90661 0.0
O1007 O 0.26256 0.63242 0.91606 0.0
C1008 C 0.22094 0.59233 0.8684 0.0
O1009 O 0.23508 0.58313 0.86773 0.0
O1010 O 0.23237 0.57275 0.90166 0.0
O1011 O 0.26119 0.57132 0.90333 0.0
H1012 H 0.189 0.56271 0.94435 0.0
H1013 H 0.26802 0.61618 0.87016 0.0
O1014 O 0.28178 0.61818 0.89989 0.0
H1015 H 0.2889 0.55976 0.85005 0.0
H1016 H 0.33561 0.58898 0.89717 0.0
H1017 H 0.28331 0.56928 0.92725 0.0
H1018 H 0.2839 0.56504 0.88094 0.0
H1019 H 0.30714 0.60058 0.88931 0.0
O1020 O 0.21603 0.59898 0.88254 0.0
H1021 H 0.21661 0.57165 0.93148 0.0
H1022 H 0.1909 0.60886 0.90085 0.0
H1023 H 0.3115 0.55724 0.93544 0.0
H1024 H 0.27299 0.61151 0.83917 0.0
H1025 H 0.3379 0.56709 0.92035 0.0
H1026 H 0.28346 0.58311 0.82893 0.0
O1027 O 0.26671 0.59864 0.92657 0.0
H1028 H 0.22336 0.65991 0.88888 0.0
H1029 H 0.21486 0.61795 0.93569 0.0
H1030 H 0.20918 0.64869 0.94107 0.0
H1031 H 0.21341 0.66991 0.91755 0.0
H1032 H 0.22904 0.62906 0.88411 0.0
H1033 H 0.16299 0.60023 0.91329 0.0
H1034 H 0.16194 0.57704 0.93526 0.0
O1035 O 0.238 0.59618 0.92879 0.0
C1036 C 0.2464 0.56427 0.90231 0.0
C1037 C 0.1893 0.57286 0.93483 0.0
C1038 C 0.1747 0.59391 0.91738 0.0
N1039 N 0.20537 0.59085 0.91554 0.0
C1040 C 0.2049 0.57801 0.92753 0.0
C1041 C 0.19053 0.59871 0.91036 0.0
C1042 C 0.17412 0.5809 0.92971 0.0
C1043 C 0.27271 0.60384 0.86582 0.0
N1044 N 0.27573 0.59092 0.87736 0.0
C1045 C 0.27544 0.60125 0.84825 0.0
C1046 C 0.2813 0.5853 0.84251 0.0
C1047 C 0.28434 0.57219 0.85436 0.0
C1048 C 0.28145 0.57524 0.87183 0.0
C1049 C 0.32419 0.58456 0.90382 0.0
C1050 C 0.29473 0.57356 0.92056 0.0
C1051 C 0.30805 0.5911 0.89945 0.0
N1052 N 0.29357 0.58551 0.90773 0.0
C1053 C 0.31066 0.56673 0.92528 0.0
C1054 C 0.32547 0.57227 0.91682 0.0
C1055 C 0.25293 0.59762 0.93544 0.0
C1056 C 0.22144 0.65079 0.89922 0.0
C1057 C 0.21679 0.6271 0.92541 0.0
C1058 C 0.21351 0.6445 0.92852 0.0
C1059 C 0.21587 0.65639 0.91531 0.0
N1060 N 0.22222 0.6217 0.90958 0.0
C1061 C 0.22457 0.63329 0.89657 0.0
Co1062 Co 0.40095 0.22726 0.90509 0.0
Co1063 Co 0.40463 0.27129 0.90163 0.0
O1064 O 0.3945 0.2493 0.89502 0.0
C1065 C 0.40632 0.22162 0.86787 0.0
O1066 O 0.41552 0.23581 0.86755 0.0
C1067 C 0.36741 0.27705 0.90677 0.0
O1068 O 0.36694 0.26284 0.91589 0.0
O1069 O 0.4008 0.26646 0.92653 0.0
O1070 O 0.40234 0.23767 0.92846 0.0
H1071 H 0.44306 0.31043 0.93592 0.0
H1072 H 0.3697 0.22985 0.88334 0.0
O1073 O 0.39958 0.21642 0.88186 0.0
H1074 H 0.34921 0.20954 0.93985 0.0
H1075 H 0.39707 0.16295 0.91178 0.0
H1076 H 0.42645 0.21583 0.93106 0.0
H1077 H 0.38009 0.2148 0.93483 0.0
H1078 H 0.38905 0.19118 0.89971 0.0
O1079 O 0.38147 0.28222 0.90014 0.0
H1080 H 0.43047 0.28255 0.92737 0.0
H1081 H 0.39952 0.30742 0.88984 0.0
H1082 H 0.43479 0.18789 0.94357 0.0
H1083 H 0.33871 0.2246 0.88775 0.0
H1084 H 0.42006 0.16119 0.93393 0.0
H1085 H 0.32828 0.21442 0.91619 0.0
O1086 O 0.4259 0.23202 0.90146 0.0
H1087 H 0.38775 0.27418 0.83928 0.0
H1088 H 0.43459 0.28369 0.88104 0.0
H1089 H 0.43985 0.28902 0.85021 0.0
H1090 H 0.41632 0.28428 0.82909 0.0
H1091 H 0.38309 0.26887 0.87022 0.0
H1092 H 0.41168 0.33559 0.89807 0.0
H1093 H 0.43367 0.33719 0.92122 0.0
O1094 O 0.42794 0.2608 0.90314 0.0
C1095 C 0.40133 0.25257 0.93525 0.0
C1096 C 0.43353 0.30989 0.92577 0.0
C1097 C 0.41591 0.32401 0.90454 0.0
N1098 N 0.41439 0.29335 0.90803 0.0
C1099 C 0.42639 0.29414 0.92085 0.0
C1100 C 0.40904 0.30803 0.89997 0.0
C1101 C 0.42824 0.3249 0.91753 0.0
C1102 C 0.36528 0.22528 0.89571 0.0
N1103 N 0.37671 0.22257 0.90879 0.0
C1104 C 0.34771 0.22239 0.89815 0.0
C1105 C 0.34186 0.2167 0.91411 0.0
C1106 C 0.35359 0.21397 0.9274 0.0
C1107 C 0.37107 0.21702 0.92449 0.0
C1108 C 0.40357 0.17449 0.91611 0.0
C1109 C 0.41991 0.20428 0.92687 0.0
C1110 C 0.3991 0.1905 0.9093 0.0
N1111 N 0.40718 0.20514 0.91478 0.0
C1112 C 0.42472 0.18849 0.93397 0.0
C1113 C 0.41646 0.17352 0.92854 0.0
C1114 C 0.43467 0.24589 0.90211 0.0
C1115 C 0.39809 0.27633 0.84836 0.0
C1116 C 0.4243 0.28155 0.87193 0.0
C1117 C 0.42734 0.28462 0.85449 0.0
C1118 C 0.41413 0.28197 0.84265 0.0
N1119 N 0.40853 0.27603 0.87743 0.0
C1120 C 0.39551 0.2734 0.8659 0.0
Co1121 Co 0.72689 0.40404 0.89969 0.0
Co1122 Co 0.77092 0.40117 0.90324 0.0
O1123 O 0.74903 0.39432 0.89312 0.0
C1124 C 0.72163 0.3667 0.90467 0.0
O1125 O 0.73563 0.36646 0.91413 0.0
C1126 C 0.77671 0.40644 0.86601 0.0
O1127 O 0.76267 0.41581 0.86556 0.0
O1128 O 0.76581 0.42602 0.89945 0.0
O1129 O 0.73702 0.42751 0.90138 0.0
H1130 H 0.80974 0.43583 0.94166 0.0
H1131 H 0.72978 0.38274 0.86815 0.0
O1132 O 0.71636 0.38069 0.89799 0.0
H1133 H 0.70877 0.43923 0.8484 0.0
H1134 H 0.66251 0.40993 0.8959 0.0
H1135 H 0.71513 0.42954 0.9255 0.0
H1136 H 0.71408 0.43388 0.87922 0.0
H1137 H 0.69089 0.39832 0.88773 0.0
O1138 O 0.78182 0.39976 0.88006 0.0
H1139 H 0.78195 0.427 0.9291 0.0
H1140 H 0.80717 0.38981 0.89802 0.0
H1141 H 0.68703 0.4416 0.93399 0.0
H1142 H 0.72449 0.38748 0.83722 0.0
H1143 H 0.66047 0.43178 0.91913 0.0
H1144 H 0.71395 0.41591 0.82717 0.0
O1145 O 0.7317 0.40016 0.92459 0.0
H1146 H 0.77445 0.33886 0.88632 0.0
H1147 H 0.78361 0.3807 0.93315 0.0
H1148 H 0.78929 0.34994 0.93838 0.0
H1149 H 0.78474 0.32878 0.91485 0.0
H1150 H 0.76878 0.36973 0.8817 0.0
H1151 H 0.83526 0.39834 0.91014 0.0
H1152 H 0.83665 0.42145 0.93218 0.0
O1153 O 0.76043 0.40255 0.92657 0.0
C1154 C 0.75181 0.43454 0.90024 0.0
C1155 C 0.8093 0.4257 0.93211 0.0
C1156 C 0.82362 0.40467 0.9144 0.0
N1157 N 0.79293 0.40781 0.91296 0.0
C1158 C 0.79359 0.42061 0.92499 0.0
C1159 C 0.80769 0.39993 0.90756 0.0
C1160 C 0.82439 0.41764 0.92677 0.0
C1161 C 0.72506 0.3951 0.86389 0.0
N1162 N 0.72218 0.40799 0.87549 0.0
C1163 C 0.72215 0.39773 0.84636 0.0
C1164 C 0.71626 0.41369 0.84072 0.0
C1165 C 0.71336 0.42678 0.85263 0.0
C1166 C 0.71643 0.42369 0.87006 0.0
C1167 C 0.674 0.41433 0.90244 0.0
C1168 C 0.70364 0.42529 0.91891 0.0
C1169 C 0.69009 0.40778 0.8979 0.0
N1170 N 0.70466 0.41336 0.90604 0.0
C1171 C 0.68776 0.43212 0.9238 0.0
C1172 C 0.67286 0.4266 0.91548 0.0
C1173 C 0.74556 0.40111 0.93334 0.0
C1174 C 0.77652 0.34796 0.89666 0.0
C1175 C 0.78154 0.37158 0.92287 0.0
C1176 C 0.78482 0.35417 0.92589 0.0
C1177 C 0.78228 0.34231 0.91268 0.0
N1178 N 0.77592 0.37702 0.90711 0.0
C1179 C 0.77339 0.36546 0.8941 0.0
Co1180 Co 0.59763 0.77206 0.90501 0.0
Co1181 Co 0.59389 0.72805 0.90181 0.0
O1182 O 0.6041 0.74996 0.89509 0.0
C1183 C 0.5927 0.77774 0.86771 0.0
O1184 O 0.58319 0.76377 0.86726 0.0
C1185 C 0.63112 0.72203 0.90687 0.0
O1186 O 0.63174 0.73621 0.91604 0.0
O1187 O 0.59785 0.73298 0.92668 0.0
O1188 O 0.59589 0.76176 0.9284 0.0
H1189 H 0.55541 0.68925 0.93638 0.0
H1190 H 0.62916 0.76923 0.88373 0.0
O1191 O 0.59939 0.78281 0.88178 0.0
H1192 H 0.64896 0.78973 0.94043 0.0
H1193 H 0.60168 0.83638 0.91156 0.0
H1194 H 0.57183 0.78369 0.93058 0.0
H1195 H 0.61813 0.78458 0.935 0.0
H1196 H 0.60975 0.80808 0.89968 0.0
O1197 O 0.61699 0.71699 0.90028 0.0
H1198 H 0.56811 0.71702 0.92769 0.0
H1199 H 0.59878 0.69183 0.89015 0.0
H1200 H 0.56344 0.81171 0.9429 0.0
H1201 H 0.66011 0.77437 0.88856 0.0
H1202 H 0.57842 0.83831 0.93338 0.0
H1203 H 0.67019 0.78465 0.9171 0.0
O1204 O 0.5727 0.76737 0.90105 0.0
H1205 H 0.61052 0.72484 0.83942 0.0
H1206 H 0.56382 0.71563 0.88136 0.0
H1207 H 0.55843 0.71019 0.85057 0.0
H1208 H 0.58189 0.71477 0.82936 0.0
H1209 H 0.61531 0.73027 0.87032 0.0
H1210 H 0.58652 0.66377 0.89853 0.0
H1211 H 0.56461 0.66237 0.92175 0.0
O1212 O 0.57064 0.73864 0.90335 0.0
C1213 C 0.59708 0.74693 0.9353 0.0
C1214 C 0.5649 0.6897 0.9262 0.0
C1215 C 0.58238 0.67539 0.90497 0.0
N1216 N 0.58406 0.70605 0.90833 0.0
C1217 C 0.5721 0.70539 0.9212 0.0
C1218 C 0.5893 0.69131 0.90031 0.0
C1219 C 0.57008 0.67462 0.918 0.0
C1220 C 0.63343 0.77384 0.89614 0.0
N1221 N 0.62184 0.77666 0.90904 0.0
C1222 C 0.65098 0.77667 0.89882 0.0
C1223 C 0.65663 0.78241 0.91484 0.0
C1224 C 0.64473 0.78526 0.92794 0.0
C1225 C 0.62728 0.78227 0.9248 0.0
C1226 C 0.59508 0.82488 0.91583 0.0
C1227 C 0.57847 0.7952 0.92646 0.0
C1228 C 0.59957 0.80883 0.90913 0.0
N1229 N 0.59135 0.79424 0.91454 0.0
C1230 C 0.57363 0.81103 0.93344 0.0
C1231 C 0.58203 0.82595 0.92808 0.0
C1232 C 0.56391 0.75353 0.90197 0.0
C1233 C 0.60021 0.72276 0.84854 0.0
C1234 C 0.57408 0.71772 0.87221 0.0
C1235 C 0.57096 0.71457 0.8548 0.0
C1236 C 0.58413 0.71713 0.84291 0.0
N1237 N 0.58989 0.72321 0.87765 0.0
C1238 C 0.60286 0.72575 0.86606 0.0
Co1239 Co 0.77247 0.5976 0.09347 0.0
Co1240 Co 0.72849 0.59402 0.09715 0.0
O1241 O 0.75052 0.60403 0.10371 0.0
C1242 C 0.77825 0.59205 0.13063 0.0
O1243 O 0.76419 0.58268 0.13092 0.0
C1244 C 0.72267 0.63132 0.09252 0.0
O1245 O 0.73664 0.6319 0.08305 0.0
O1246 O 0.73315 0.59817 0.07229 0.0
O1247 O 0.76192 0.59635 0.07014 0.0
H1248 H 0.689 0.55619 0.06259 0.0
H1249 H 0.77003 0.62876 0.11538 0.0
O1250 O 0.78341 0.59887 0.11665 0.0
H1251 H 0.79017 0.64948 0.0589 0.0
H1252 H 0.83675 0.60138 0.0865 0.0
H1253 H 0.78372 0.57225 0.06727 0.0
H1254 H 0.78483 0.61858 0.06377 0.0
H1255 H 0.8086 0.60939 0.09876 0.0
O1256 O 0.71763 0.61718 0.09907 0.0
H1257 H 0.71697 0.56858 0.07113 0.0
H1258 H 0.69245 0.59905 0.10928 0.0
H1259 H 0.81159 0.56393 0.05457 0.0
H1260 H 0.77536 0.65975 0.11111 0.0
H1261 H 0.83835 0.57855 0.06419 0.0
H1262 H 0.78546 0.6703 0.08269 0.0
O1263 O 0.76769 0.57264 0.09699 0.0
H1264 H 0.7261 0.61004 0.15975 0.0
H1265 H 0.71616 0.56381 0.11742 0.0
H1266 H 0.71104 0.55813 0.14821 0.0
H1267 H 0.71598 0.58136 0.16961 0.0
H1268 H 0.7312 0.61511 0.12885 0.0
H1269 H 0.6642 0.5871 0.10107 0.0
H1270 H 0.66236 0.56546 0.07761 0.0
O1271 O 0.73891 0.57071 0.09524 0.0
C1272 C 0.74698 0.59757 0.06346 0.0
C1273 C 0.68964 0.56557 0.07287 0.0
C1274 C 0.67572 0.58293 0.09445 0.0
N1275 N 0.70635 0.5844 0.09078 0.0
C1276 C 0.70544 0.57259 0.0778 0.0
C1277 C 0.69174 0.58968 0.09902 0.0
C1278 C 0.6747 0.57079 0.08129 0.0
C1279 C 0.77456 0.63323 0.10302 0.0
N1280 N 0.77718 0.62186 0.08986 0.0
C1281 C 0.77749 0.6508 0.10066 0.0
C1282 C 0.78314 0.65672 0.0847 0.0
C1283 C 0.78577 0.64504 0.07134 0.0
C1284 C 0.78269 0.62756 0.07417 0.0
C1285 C 0.82518 0.59494 0.08218 0.0
C1286 C 0.7953 0.57874 0.07144 0.0
C1287 C 0.80921 0.5994 0.0891 0.0
N1288 N 0.79453 0.59138 0.08363 0.0
C1289 C 0.81105 0.57394 0.06424 0.0
C1290 C 0.82606 0.58214 0.06966 0.0
C1291 C 0.75379 0.56391 0.09622 0.0
C1292 C 0.72385 0.59983 0.15054 0.0
C1293 C 0.7184 0.57396 0.12665 0.0
C1294 C 0.71543 0.57069 0.14407 0.0
C1295 C 0.7182 0.58373 0.15607 0.0
N1296 N 0.72391 0.5898 0.12133 0.0
C1297 C 0.72666 0.60264 0.13302 0.0
Co1298 Co 0.40537 0.72667 0.09649 0.0
Co1299 Co 0.40236 0.77076 0.09394 0.0
O1300 O 0.39559 0.74863 0.10361 0.0
C1301 C 0.368 0.72119 0.09174 0.0
O1302 O 0.3675 0.73544 0.08267 0.0
C1303 C 0.40761 0.77594 0.1313 0.0
O1304 O 0.4169 0.76185 0.13155 0.0
O1305 O 0.42722 0.76567 0.09768 0.0
O1306 O 0.42879 0.73695 0.09486 0.0
H1307 H 0.43696 0.81042 0.05636 0.0
H1308 H 0.38433 0.7288 0.12824 0.0
O1309 O 0.38212 0.71592 0.09813 0.0
H1310 H 0.44108 0.70765 0.1471 0.0
H1311 H 0.41174 0.66226 0.09883 0.0
H1312 H 0.43072 0.71563 0.07021 0.0
H1313 H 0.43544 0.71356 0.11645 0.0
H1314 H 0.40001 0.69037 0.10771 0.0
O1315 O 0.40092 0.78124 0.11731 0.0
H1316 H 0.42818 0.78236 0.06835 0.0
H1317 H 0.39088 0.80688 0.09983 0.0
H1318 H 0.44288 0.68781 0.06101 0.0
H1319 H 0.38936 0.72291 0.15902 0.0
H1320 H 0.43339 0.66087 0.07536 0.0
H1321 H 0.41792 0.7123 0.16863 0.0
O1322 O 0.40125 0.73199 0.07174 0.0
H1323 H 0.34003 0.77374 0.11084 0.0
H1324 H 0.38187 0.78399 0.06427 0.0
H1325 H 0.35109 0.78966 0.05912 0.0
H1326 H 0.32994 0.78457 0.08252 0.0
H1327 H 0.37092 0.76809 0.11539 0.0
H1328 H 0.39934 0.83522 0.08829 0.0
H1329 H 0.42249 0.8371 0.06634 0.0
O1330 O 0.40378 0.76075 0.0704 0.0
C1331 C 0.43577 0.75172 0.09646 0.0
C1332 C 0.42682 0.80976 0.06588 0.0
C1333 C 0.40572 0.82368 0.08381 0.0
N1334 N 0.40894 0.79298 0.08466 0.0
C1335 C 0.42176 0.79391 0.07268 0.0
C1336 C 0.40101 0.80761 0.09033 0.0
C1337 C 0.41871 0.82473 0.07149 0.0
C1338 C 0.39675 0.72405 0.13231 0.0
N1339 N 0.40955 0.72147 0.12055 0.0
C1340 C 0.39954 0.7208 0.14976 0.0
C1341 C 0.41558 0.71487 0.15514 0.0
C1342 C 0.42858 0.71227 0.14308 0.0
C1343 C 0.42532 0.71568 0.12574 0.0
C1344 C 0.416 0.67391 0.0925 0.0
C1345 C 0.4266 0.70397 0.07658 0.0
C1346 C 0.40938 0.68986 0.09745 0.0
N1347 N 0.41478 0.70463 0.08957 0.0
C1348 C 0.4335 0.68825 0.07129 0.0
C1349 C 0.42815 0.67314 0.07934 0.0
C1350 C 0.40223 0.74604 0.0633 0.0
C1351 C 0.34913 0.77605 0.10056 0.0
C1352 C 0.37275 0.78167 0.07449 0.0
C1353 C 0.35533 0.78495 0.07152 0.0
C1354 C 0.34347 0.7821 0.08466 0.0
N1355 N 0.3782 0.77576 0.09013 0.0
C1356 C 0.36665 0.77293 0.10307 0.0
Co1357 Co 0.5948 0.27046 0.09757 0.0
Co1358 Co 0.59829 0.2264 0.09475 0.0
O1359 O 0.60484 0.24857 0.1045 0.0
C1360 C 0.63206 0.27612 0.09238 0.0
O1361 O 0.63248 0.26183 0.08338 0.0
C1362 C 0.59298 0.22117 0.13206 0.0
O1363 O 0.58351 0.23515 0.13226 0.0
O1364 O 0.57336 0.23124 0.09841 0.0
O1365 O 0.57146 0.25999 0.09616 0.0
H1366 H 0.5642 0.18648 0.05695 0.0
H1367 H 0.61627 0.26844 0.12905 0.0
O1368 O 0.61801 0.28137 0.09895 0.0
H1369 H 0.55958 0.28905 0.14866 0.0
H1370 H 0.58803 0.33482 0.10019 0.0
H1371 H 0.56905 0.28139 0.07163 0.0
H1372 H 0.56487 0.28324 0.11792 0.0
H1373 H 0.60005 0.30676 0.10885 0.0
O1374 O 0.59977 0.21591 0.11812 0.0
H1375 H 0.57266 0.2146 0.06904 0.0
H1376 H 0.6101 0.19039 0.10061 0.0
H1377 H 0.5566 0.30916 0.06266 0.0
H1378 H 0.61158 0.27423 0.1599 0.0
H1379 H 0.56608 0.33613 0.07699 0.0
H1380 H 0.58305 0.28457 0.16989 0.0
O1381 O 0.59866 0.26526 0.07275 0.0
H1382 H 0.6606 0.22396 0.11185 0.0
H1383 H 0.61898 0.21347 0.0651 0.0
H1384 H 0.64983 0.20811 0.06003 0.0
H1385 H 0.67087 0.21332 0.08352 0.0
H1386 H 0.62965 0.2293 0.11632 0.0
H1387 H 0.60195 0.16199 0.08897 0.0
H1388 H 0.5789 0.15992 0.06693 0.0
O1389 O 0.59683 0.23646 0.07124 0.0
C1390 C 0.56465 0.24512 0.09748 0.0
C1391 C 0.57431 0.18722 0.06651 0.0
C1392 C 0.59548 0.17347 0.0845 0.0
N1393 N 0.59195 0.20414 0.0854 0.0
C1394 C 0.57918 0.20311 0.07336 0.0
C1395 C 0.60001 0.18958 0.09107 0.0
C1396 C 0.58254 0.17232 0.07212 0.0
C1397 C 0.60386 0.27307 0.13328 0.0
N1398 N 0.59088 0.27557 0.12169 0.0
C1399 C 0.60126 0.27627 0.15077 0.0
C1400 C 0.58525 0.28205 0.15637 0.0
C1401 C 0.57207 0.28455 0.14447 0.0
C1402 C 0.57513 0.2812 0.12708 0.0
C1403 C 0.58376 0.32316 0.09388 0.0
C1404 C 0.57317 0.29307 0.07799 0.0
C1405 C 0.59055 0.30724 0.0987 0.0
N1406 N 0.58515 0.29245 0.09084 0.0
C1407 C 0.56611 0.30875 0.07283 0.0
C1408 C 0.57145 0.32388 0.08086 0.0
C1409 C 0.59798 0.25125 0.06423 0.0
C1410 C 0.65155 0.2216 0.10153 0.0
C1411 C 0.62806 0.21584 0.07537 0.0
C1412 C 0.64551 0.21273 0.07243 0.0
C1413 C 0.65731 0.21565 0.08562 0.0
N1414 N 0.62251 0.22164 0.09101 0.0
C1415 C 0.634 0.22454 0.104 0.0
Co1416 Co 0.90011 0.72681 0.59436 0.0
Co1417 Co 0.90373 0.77081 0.59809 0.0
O1418 O 0.89353 0.7488 0.60446 0.0
C1419 C 0.90501 0.7211 0.63161 0.0
O1420 O 0.91413 0.73532 0.63208 0.0
C1421 C 0.86656 0.77668 0.59254 0.0
O1422 O 0.86615 0.76254 0.5833 0.0
O1423 O 0.90017 0.7661 0.57313 0.0
O1424 O 0.90176 0.73732 0.57107 0.0
H1425 H 0.94255 0.8101 0.56446 0.0
H1426 H 0.86861 0.72928 0.61575 0.0
O1427 O 0.89848 0.71587 0.61752 0.0
H1428 H 0.84877 0.70924 0.55889 0.0
H1429 H 0.8963 0.66252 0.58731 0.0
H1430 H 0.9259 0.71548 0.56864 0.0
H1431 H 0.8796 0.71449 0.56431 0.0
H1432 H 0.88815 0.6907 0.59943 0.0
O1433 O 0.88056 0.78175 0.59937 0.0
H1434 H 0.92984 0.78219 0.5727 0.0
H1435 H 0.89852 0.8069 0.61002 0.0
H1436 H 0.93437 0.68759 0.55609 0.0
H1437 H 0.83767 0.72405 0.61094 0.0
H1438 H 0.91952 0.66086 0.56543 0.0
H1439 H 0.82757 0.714 0.58232 0.0
O1440 O 0.92502 0.73154 0.59831 0.0
H1441 H 0.88616 0.77339 0.66025 0.0
H1442 H 0.93346 0.78312 0.6191 0.0
H1443 H 0.93838 0.78827 0.65002 0.0
H1444 H 0.91461 0.78342 0.67083 0.0
H1445 H 0.88184 0.76825 0.62923 0.0
H1446 H 0.91079 0.83509 0.60209 0.0
H1447 H 0.93302 0.8368 0.5792 0.0
O1448 O 0.92705 0.76033 0.59679 0.0
C1449 C 0.90081 0.75225 0.56435 0.0
C1450 C 0.93291 0.80951 0.57449 0.0
C1451 C 0.91507 0.82354 0.5956 0.0
N1452 N 0.91356 0.79291 0.59192 0.0
C1453 C 0.9257 0.79374 0.57924 0.0
C1454 C 0.90814 0.80755 0.60001 0.0
C1455 C 0.92755 0.82449 0.58276 0.0
C1456 C 0.86433 0.72477 0.60331 0.0
N1457 N 0.87591 0.72213 0.59035 0.0
C1458 C 0.84679 0.72189 0.60064 0.0
C1459 C 0.84113 0.71627 0.58457 0.0
C1460 C 0.85302 0.71361 0.57142 0.0
C1461 C 0.87045 0.71665 0.57455 0.0
C1462 C 0.90284 0.67408 0.58312 0.0
C1463 C 0.91931 0.70391 0.57269 0.0
C1464 C 0.89831 0.69007 0.58996 0.0
N1465 N 0.90645 0.70473 0.58464 0.0
C1466 C 0.9242 0.68815 0.56558 0.0
C1467 C 0.91587 0.67316 0.57083 0.0
C1468 C 0.93379 0.74542 0.59781 0.0
C1469 C 0.8966 0.77558 0.65131 0.0
C1470 C 0.92307 0.78092 0.62808 0.0
C1471 C 0.92592 0.7839 0.64557 0.0
C1472 C 0.91258 0.78119 0.65724 0.0
N1473 N 0.90736 0.77544 0.62236 0.0
C1474 C 0.89422 0.77276 0.63372 0.0
Co1475 Co 0.22742 0.90457 0.59624 0.0
Co1476 Co 0.27139 0.90089 0.59248 0.0
O1477 O 0.24939 0.89434 0.6026 0.0
C1478 C 0.22131 0.86739 0.59086 0.0
O1479 O 0.23539 0.8669 0.58154 0.0
C1480 C 0.27741 0.90569 0.62973 0.0
O1481 O 0.26338 0.91508 0.6303 0.0
O1482 O 0.26678 0.9258 0.59658 0.0
O1483 O 0.23801 0.92786 0.59481 0.0
H1484 H 0.31066 0.93526 0.55429 0.0
H1485 H 0.22998 0.88284 0.62748 0.0
O1486 O 0.21636 0.88144 0.59766 0.0
H1487 H 0.21025 0.93951 0.64803 0.0
H1488 H 0.16319 0.91185 0.60032 0.0
H1489 H 0.21612 0.9306 0.57074 0.0
H1490 H 0.2153 0.93443 0.61712 0.0
H1491 H 0.19133 0.89953 0.60826 0.0
O1492 O 0.28239 0.89908 0.6156 0.0
H1493 H 0.28277 0.9268 0.56688 0.0
H1494 H 0.30744 0.88879 0.59738 0.0
H1495 H 0.18826 0.94336 0.56249 0.0
H1496 H 0.22493 0.88731 0.65849 0.0
H1497 H 0.16155 0.93398 0.57733 0.0
H1498 H 0.21504 0.91584 0.66895 0.0
O1499 O 0.23205 0.90089 0.57128 0.0
H1500 H 0.27385 0.83835 0.60868 0.0
H1501 H 0.28351 0.88052 0.56227 0.0
H1502 H 0.28857 0.84971 0.55667 0.0
H1503 H 0.28377 0.82839 0.57998 0.0
H1504 H 0.2688 0.86928 0.61368 0.0
H1505 H 0.33562 0.89692 0.58523 0.0
H1506 H 0.33734 0.92026 0.56347 0.0
O1507 O 0.26082 0.90272 0.56921 0.0
C1508 C 0.25294 0.93459 0.59597 0.0
C1509 C 0.31007 0.92503 0.56372 0.0
C1510 C 0.32408 0.90353 0.5811 0.0
N1511 N 0.29347 0.90723 0.58274 0.0
C1512 C 0.29431 0.92015 0.57086 0.0
C1513 C 0.3081 0.899 0.58796 0.0
C1514 C 0.32504 0.91662 0.56889 0.0
C1515 C 0.22553 0.89524 0.63192 0.0
N1516 N 0.22287 0.90833 0.62049 0.0
C1517 C 0.22276 0.89772 0.6495 0.0
C1518 C 0.21723 0.91373 0.65536 0.0
C1519 C 0.21455 0.92702 0.64363 0.0
C1520 C 0.21747 0.92408 0.62615 0.0
C1521 C 0.17474 0.91606 0.59378 0.0
C1522 C 0.20456 0.92653 0.57733 0.0
C1523 C 0.19071 0.90911 0.5982 0.0
N1524 N 0.20536 0.91444 0.59006 0.0
C1525 C 0.18882 0.93376 0.57256 0.0
C1526 C 0.17383 0.92848 0.58088 0.0
C1527 C 0.24589 0.90166 0.56249 0.0
C1528 C 0.27603 0.84752 0.59843 0.0
C1529 C 0.28133 0.87132 0.57247 0.0
C1530 C 0.28426 0.85389 0.56923 0.0
C1531 C 0.28157 0.84194 0.58232 0.0
N1532 N 0.27592 0.8767 0.58831 0.0
C1533 C 0.27325 0.86505 0.60121 0.0
Co1534 Co 0.09731 0.27143 0.59477 0.0
Co1535 Co 0.09413 0.22735 0.59774 0.0
O1536 O 0.10406 0.24936 0.60458 0.0
C1537 C 0.09229 0.27684 0.63211 0.0
O1538 O 0.08308 0.26267 0.63248 0.0
C1539 C 0.13142 0.22182 0.59259 0.0
O1540 O 0.13182 0.23601 0.58344 0.0
O1541 O 0.09797 0.23245 0.57289 0.0
O1542 O 0.09574 0.26122 0.57133 0.0
H1543 H 0.05604 0.18823 0.56305 0.0
H1544 H 0.12883 0.26889 0.61613 0.0
O1545 O 0.09888 0.2821 0.61807 0.0
H1546 H 0.14849 0.28989 0.55958 0.0
H1547 H 0.10057 0.33582 0.58857 0.0
H1548 H 0.07141 0.28286 0.5692 0.0
H1549 H 0.11771 0.28434 0.56491 0.0
H1550 H 0.10897 0.30757 0.60032 0.0
O1551 O 0.11737 0.21659 0.5992 0.0
H1552 H 0.06842 0.21612 0.57185 0.0
H1553 H 0.09951 0.19114 0.6092 0.0
H1554 H 0.0627 0.31083 0.55701 0.0
H1555 H 0.15973 0.27443 0.6114 0.0
H1556 H 0.07733 0.33757 0.5667 0.0
H1557 H 0.16974 0.28496 0.58294 0.0
O1558 O 0.07244 0.2664 0.59864 0.0
H1559 H 0.11089 0.22403 0.6601 0.0
H1560 H 0.06424 0.21447 0.61815 0.0
H1561 H 0.05896 0.2088 0.64891 0.0
H1562 H 0.0824 0.21356 0.67013 0.0
H1563 H 0.11556 0.22968 0.62923 0.0
H1564 H 0.08757 0.16297 0.6007 0.0
H1565 H 0.06561 0.1614 0.57751 0.0
O1566 O 0.07073 0.23765 0.59628 0.0
C1567 C 0.09705 0.24643 0.56434 0.0
C1568 C 0.06555 0.18875 0.5732 0.0
C1569 C 0.08327 0.17457 0.59432 0.0
N1570 N 0.08456 0.20526 0.59111 0.0
C1571 C 0.07258 0.20451 0.57827 0.0
C1572 C 0.09001 0.19055 0.59905 0.0
C1573 C 0.07095 0.1737 0.58131 0.0
C1574 C 0.13307 0.27361 0.60375 0.0
N1575 N 0.12147 0.27635 0.59083 0.0
C1576 C 0.15059 0.27667 0.60113 0.0
C1577 C 0.1562 0.28255 0.58515 0.0
C1578 C 0.14429 0.28531 0.57204 0.0
C1579 C 0.12688 0.2821 0.57512 0.0
C1580 C 0.09413 0.32426 0.58422 0.0
C1581 C 0.0779 0.29443 0.5734 0.0
C1582 C 0.0988 0.30823 0.59085 0.0
N1583 N 0.09078 0.29357 0.58535 0.0
C1584 C 0.07288 0.31023 0.56649 0.0
C1585 C 0.08109 0.32523 0.57195 0.0
C1586 C 0.06382 0.25246 0.59767 0.0
C1587 C 0.10058 0.22187 0.65098 0.0
C1588 C 0.07448 0.21663 0.6273 0.0
C1589 C 0.07143 0.21336 0.6447 0.0
C1590 C 0.08459 0.21602 0.6566 0.0
N1591 N 0.09021 0.22234 0.62189 0.0
C1592 C 0.10318 0.22499 0.63347 0.0
Co1593 Co 0.77157 0.09461 0.59767 0.0
Co1594 Co 0.72751 0.09764 0.59459 0.0
O1595 O 0.74955 0.10448 0.60441 0.0
C1596 C 0.77691 0.13188 0.59229 0.0
O1597 O 0.7627 0.13211 0.58315 0.0
C1598 C 0.72203 0.09268 0.63192 0.0
O1599 O 0.73606 0.08329 0.63234 0.0
O1600 O 0.73256 0.07279 0.59853 0.0
O1601 O 0.76133 0.07116 0.59634 0.0
H1602 H 0.68814 0.0628 0.55688 0.0
H1603 H 0.76915 0.11624 0.62901 0.0
O1604 O 0.78225 0.11792 0.59898 0.0
H1605 H 0.79019 0.05987 0.64908 0.0
H1606 H 0.83597 0.08844 0.60074 0.0
H1607 H 0.7829 0.06878 0.57197 0.0
H1608 H 0.78452 0.06492 0.61828 0.0
H1609 H 0.80775 0.10027 0.60913 0.0
O1610 O 0.71685 0.09927 0.61786 0.0
H1611 H 0.71611 0.07164 0.56907 0.0
H1612 H 0.69136 0.10919 0.60008 0.0
H1613 H 0.81083 0.0565 0.56328 0.0
H1614 H 0.7748 0.11179 0.65992 0.0
H1615 H 0.83762 0.06633 0.57771 0.0
H1616 H 0.78536 0.08342 0.67014 0.0
O1617 O 0.76649 0.09827 0.57279 0.0
H1618 H 0.72442 0.1601 0.61102 0.0
H1619 H 0.71459 0.11791 0.56464 0.0
H1620 H 0.70899 0.14865 0.55922 0.0
H1621 H 0.71388 0.16999 0.58252 0.0
H1622 H 0.73 0.12924 0.61585 0.0
H1623 H 0.66312 0.10067 0.58834 0.0
H1624 H 0.6614 0.07737 0.56653 0.0
O1625 O 0.73773 0.09602 0.57116 0.0
C1626 C 0.74652 0.06421 0.59768 0.0
C1627 C 0.68873 0.07301 0.56634 0.0
C1628 C 0.67468 0.09425 0.58401 0.0
N1629 N 0.70537 0.091 0.58516 0.0
C1630 C 0.70453 0.0781 0.57325 0.0
C1631 C 0.69071 0.09899 0.59064 0.0
C1632 C 0.67373 0.08118 0.57177 0.0
C1633 C 0.77387 0.1039 0.63334 0.0
N1634 N 0.77656 0.09088 0.62184 0.0
C1635 C 0.77699 0.10144 0.65087 0.0
C1636 C 0.78289 0.08551 0.65659 0.0
C1637 C 0.7856 0.07229 0.64479 0.0
C1638 C 0.78232 0.07521 0.62736 0.0
C1639 C 0.82439 0.08402 0.59438 0.0
C1640 C 0.7945 0.07305 0.57838 0.0
C1641 C 0.80838 0.09071 0.59905 0.0
N1642 N 0.79369 0.08512 0.59113 0.0
C1643 C 0.81028 0.06608 0.57337 0.0
C1644 C 0.8253 0.07162 0.58146 0.0
C1645 C 0.75253 0.09732 0.56421 0.0
C1646 C 0.7222 0.15092 0.60078 0.0
C1647 C 0.71681 0.12711 0.57483 0.0
C1648 C 0.71358 0.1445 0.57169 0.0
C1649 C 0.71631 0.15646 0.58478 0.0
N1650 N 0.72256 0.12177 0.59056 0.0
C1651 C 0.72528 0.13342 0.60345 0.0
Co1652 Co 0.9048 0.22683 0.40038 0.0
Co1653 Co 0.90198 0.2709 0.40368 0.0
O1654 O 0.89506 0.24894 0.39374 0.0
C1655 C 0.8675 0.22173 0.40575 0.0
O1656 O 0.86738 0.2359 0.41495 0.0
C1657 C 0.9071 0.27634 0.36637 0.0
O1658 O 0.91622 0.26214 0.36599 0.0
O1659 O 0.92681 0.26572 0.39985 0.0
O1660 O 0.92832 0.23692 0.40173 0.0
H1661 H 0.93687 0.30991 0.4417 0.0
H1662 H 0.88316 0.22951 0.36906 0.0
O1663 O 0.88142 0.21631 0.39904 0.0
H1664 H 0.93938 0.2082 0.34886 0.0
H1665 H 0.91052 0.16239 0.39707 0.0
H1666 H 0.93056 0.21523 0.42601 0.0
H1667 H 0.93439 0.21377 0.37969 0.0
H1668 H 0.89889 0.19073 0.38878 0.0
O1669 O 0.90057 0.28165 0.38042 0.0
H1670 H 0.92791 0.28205 0.42938 0.0
H1671 H 0.89069 0.30715 0.39824 0.0
H1672 H 0.94264 0.18717 0.43461 0.0
H1673 H 0.88755 0.22396 0.33812 0.0
H1674 H 0.93261 0.1605 0.42009 0.0
H1675 H 0.91585 0.21327 0.32784 0.0
O1676 O 0.90119 0.23182 0.42527 0.0
H1677 H 0.83964 0.27445 0.38688 0.0
H1678 H 0.88162 0.28385 0.43354 0.0
H1679 H 0.85088 0.28963 0.43881 0.0
H1680 H 0.82966 0.28495 0.41536 0.0
H1681 H 0.87049 0.26869 0.38222 0.0
H1682 H 0.89934 0.3353 0.41012 0.0
H1683 H 0.92253 0.33679 0.43207 0.0
O1684 O 0.90339 0.26059 0.42708 0.0
C1685 C 0.93532 0.25171 0.40056 0.0
C1686 C 0.9267 0.30942 0.43219 0.0
C1687 C 0.90566 0.32368 0.41445 0.0
N1688 N 0.9087 0.29297 0.41322 0.0
C1689 C 0.92155 0.29368 0.4252 0.0
C1690 C 0.90084 0.3077 0.40774 0.0
C1691 C 0.91867 0.3245 0.42677 0.0
C1692 C 0.89547 0.22473 0.3647 0.0
N1693 N 0.90848 0.22191 0.37618 0.0
C1694 C 0.8979 0.22166 0.34716 0.0
C1695 C 0.91378 0.21569 0.3414 0.0
C1696 C 0.92699 0.21285 0.35318 0.0
C1697 C 0.9241 0.21607 0.37062 0.0
C1698 C 0.91502 0.17393 0.40347 0.0
C1699 C 0.92622 0.20368 0.41956 0.0
C1700 C 0.90845 0.19 0.39885 0.0
N1701 N 0.91415 0.20462 0.40681 0.0
C1702 C 0.93306 0.18783 0.42452 0.0
C1703 C 0.92742 0.17288 0.41638 0.0
C1704 C 0.90208 0.24574 0.43393 0.0
C1705 C 0.84877 0.27658 0.39719 0.0
C1706 C 0.87247 0.28172 0.4233 0.0
C1707 C 0.85508 0.28506 0.42634 0.0
C1708 C 0.84318 0.28245 0.41318 0.0
N1709 N 0.87786 0.27599 0.40757 0.0
C1710 C 0.86627 0.27339 0.39461 0.0
Co1711 Co 0.72697 0.90103 0.40429 0.0
Co1712 Co 0.771 0.90433 0.40076 0.0
O1713 O 0.74893 0.89439 0.39421 0.0
C1714 C 0.72141 0.90641 0.36707 0.0
O1715 O 0.73563 0.91553 0.36676 0.0
C1716 C 0.77647 0.86706 0.40596 0.0
O1717 O 0.76245 0.86674 0.41538 0.0
O1718 O 0.76618 0.90057 0.42568 0.0
O1719 O 0.7374 0.90235 0.42765 0.0
H1720 H 0.8106 0.9424 0.43494 0.0
H1721 H 0.72931 0.86973 0.38257 0.0
O1722 O 0.71613 0.89972 0.38106 0.0
H1723 H 0.70879 0.84947 0.43908 0.0
H1724 H 0.66263 0.89773 0.41097 0.0
H1725 H 0.71577 0.92664 0.43025 0.0
H1726 H 0.71433 0.8803 0.43404 0.0
H1727 H 0.69079 0.88944 0.39891 0.0
O1728 O 0.78168 0.88106 0.39924 0.0
H1729 H 0.78258 0.93009 0.42645 0.0
H1730 H 0.80706 0.89883 0.38892 0.0
H1731 H 0.6879 0.93524 0.44274 0.0
H1732 H 0.72378 0.83879 0.387 0.0
H1733 H 0.66108 0.92074 0.4331 0.0
H1734 H 0.71348 0.82848 0.41544 0.0
O1735 O 0.73194 0.92593 0.40064 0.0
H1736 H 0.77364 0.88739 0.33842 0.0
H1737 H 0.78366 0.93415 0.38014 0.0
H1738 H 0.78901 0.93934 0.3493 0.0
H1739 H 0.78402 0.91585 0.3282 0.0
H1740 H 0.76831 0.8828 0.36936 0.0
H1741 H 0.83536 0.9107 0.39709 0.0
H1742 H 0.83724 0.9327 0.42021 0.0
O1743 O 0.76074 0.92774 0.40229 0.0
C1744 C 0.75231 0.90123 0.43442 0.0
C1745 C 0.80994 0.93286 0.42481 0.0
C1746 C 0.82384 0.91506 0.40358 0.0
N1747 N 0.79318 0.91387 0.40712 0.0
C1748 C 0.79411 0.92588 0.41992 0.0
C1749 C 0.80778 0.90836 0.39904 0.0
C1750 C 0.82488 0.9274 0.41655 0.0
C1751 C 0.7247 0.86536 0.39494 0.0
N1752 N 0.72208 0.87682 0.40801 0.0
C1753 C 0.72165 0.84782 0.39739 0.0
C1754 C 0.71589 0.84204 0.41336 0.0
C1755 C 0.71326 0.8538 0.42663 0.0
C1756 C 0.71646 0.87125 0.42371 0.0
C1757 C 0.67423 0.90412 0.4153 0.0
C1758 C 0.70416 0.9202 0.42607 0.0
C1759 C 0.6902 0.8995 0.40849 0.0
N1760 N 0.70491 0.90746 0.41398 0.0
C1761 C 0.68841 0.92516 0.43315 0.0
C1762 C 0.67337 0.91703 0.42772 0.0
C1763 C 0.74588 0.93459 0.40127 0.0
C1764 C 0.7759 0.89772 0.34749 0.0
C1765 C 0.7814 0.92388 0.37104 0.0
C1766 C 0.78449 0.92689 0.35359 0.0
C1767 C 0.7817 0.91369 0.34176 0.0
N1768 N 0.77574 0.90817 0.37656 0.0
C1769 C 0.77297 0.89518 0.36503 0.0
Co1770 Co 0.09331 0.77147 0.40146 0.0
Co1771 Co 0.09696 0.72746 0.40428 0.0
O1772 O 0.10346 0.74963 0.39455 0.0
C1773 C 0.13057 0.77746 0.40646 0.0
O1774 O 0.13116 0.7634 0.4158 0.0
C1775 C 0.09197 0.72208 0.36693 0.0
O1776 O 0.08241 0.73599 0.36663 0.0
O1777 O 0.07205 0.73217 0.40037 0.0
O1778 O 0.07003 0.76088 0.40299 0.0
H1779 H 0.0627 0.68745 0.4418 0.0
H1780 H 0.11462 0.76945 0.36987 0.0
O1781 O 0.11644 0.7825 0.3999 0.0
H1782 H 0.05775 0.78977 0.35048 0.0
H1783 H 0.08616 0.83579 0.39871 0.0
H1784 H 0.06761 0.78234 0.42747 0.0
H1785 H 0.06322 0.78406 0.38121 0.0
H1786 H 0.09831 0.80777 0.39008 0.0
O1787 O 0.0987 0.71691 0.38095 0.0
H1788 H 0.07115 0.71559 0.42976 0.0
H1789 H 0.10901 0.6915 0.39861 0.0
H1790 H 0.05503 0.81006 0.43641 0.0
H1791 H 0.10976 0.77516 0.33904 0.0
H1792 H 0.06431 0.83704 0.42198 0.0
H1793 H 0.08113 0.78535 0.32916 0.0
O1794 O 0.09731 0.76635 0.42628 0.0
H1795 H 0.15943 0.72533 0.38779 0.0
H1796 H 0.11744 0.7147 0.43415 0.0
H1797 H 0.14827 0.70951 0.43952 0.0
H1798 H 0.1695 0.7148 0.41623 0.0
H1799 H 0.12849 0.7305 0.38302 0.0
H1800 H 0.10088 0.66308 0.41021 0.0
H1801 H 0.07762 0.66095 0.43202 0.0
O1802 O 0.09523 0.73756 0.42777 0.0
C1803 C 0.06328 0.74599 0.40146 0.0
C1804 C 0.0729 0.68822 0.43235 0.0
C1805 C 0.09431 0.67454 0.4146 0.0
N1806 N 0.09065 0.70519 0.41361 0.0
C1807 C 0.07777 0.70412 0.42552 0.0
C1808 C 0.09883 0.69066 0.40805 0.0
C1809 C 0.08126 0.67335 0.42684 0.0
C1810 C 0.10217 0.77402 0.36569 0.0
N1811 N 0.08924 0.77648 0.37734 0.0
C1812 C 0.09948 0.77717 0.34821 0.0
C1813 C 0.08341 0.78287 0.34268 0.0
C1814 C 0.07028 0.78534 0.35463 0.0
C1815 C 0.07344 0.78204 0.37201 0.0
C1816 C 0.08199 0.82412 0.40507 0.0
C1817 C 0.07164 0.79402 0.42107 0.0
C1818 C 0.08885 0.80822 0.40026 0.0
N1819 N 0.08357 0.79343 0.40818 0.0
C1820 C 0.0645 0.80968 0.42621 0.0
C1821 C 0.06973 0.82481 0.41812 0.0
C1822 C 0.09647 0.75234 0.4348 0.0
C1823 C 0.1503 0.72294 0.39803 0.0
C1824 C 0.1266 0.71709 0.42397 0.0
C1825 C 0.14404 0.71409 0.42707 0.0
C1826 C 0.15595 0.71705 0.41399 0.0
N1827 N 0.12116 0.72284 0.40826 0.0
C1828 C 0.13276 0.72578 0.39538 0.0
Co1829 Co 0.27202 0.09787 0.4049 0.0
Co1830 Co 0.22794 0.09456 0.40192 0.0
O1831 O 0.24992 0.10459 0.39516 0.0
C1832 C 0.27718 0.09283 0.36757 0.0
O1833 O 0.26293 0.08374 0.36732 0.0
C1834 C 0.22243 0.13181 0.40745 0.0
O1835 O 0.23663 0.13215 0.4166 0.0
O1836 O 0.23309 0.09816 0.4268 0.0
O1837 O 0.26188 0.0963 0.42838 0.0
H1838 H 0.18891 0.05613 0.43629 0.0
H1839 H 0.2694 0.12938 0.38357 0.0
O1840 O 0.28259 0.09941 0.38157 0.0
H1841 H 0.29058 0.14907 0.44007 0.0
H1842 H 0.33643 0.10115 0.41089 0.0
H1843 H 0.28355 0.07199 0.43045 0.0
H1844 H 0.28501 0.11828 0.43474 0.0
H1845 H 0.30813 0.10954 0.39924 0.0
O1846 O 0.21717 0.11782 0.40073 0.0
H1847 H 0.21678 0.06859 0.42754 0.0
H1848 H 0.19171 0.10006 0.39059 0.0
H1849 H 0.31157 0.06329 0.44254 0.0
H1850 H 0.27494 0.16028 0.38829 0.0
H1851 H 0.33827 0.07792 0.43276 0.0
H1852 H 0.28556 0.17031 0.41672 0.0
O1853 O 0.26702 0.073 0.40102 0.0
H1854 H 0.22446 0.112 0.33976 0.0
H1855 H 0.21503 0.06489 0.3812 0.0
H1856 H 0.20929 0.05994 0.35039 0.0
H1857 H 0.21398 0.08361 0.32943 0.0
H1858 H 0.23019 0.11634 0.37067 0.0
H1859 H 0.16355 0.08805 0.39902 0.0
H1860 H 0.16205 0.06586 0.42198 0.0
O1861 O 0.23826 0.07116 0.4031 0.0
C1862 C 0.24708 0.09741 0.43535 0.0
C1863 C 0.18941 0.06575 0.42623 0.0
C1864 C 0.17517 0.08368 0.40533 0.0
N1865 N 0.20587 0.08493 0.40848 0.0
C1866 C 0.20515 0.07281 0.42119 0.0
C1867 C 0.19114 0.09046 0.40063 0.0
C1868 C 0.17434 0.07123 0.41821 0.0
C1869 C 0.27415 0.13363 0.39593 0.0
N1870 N 0.27694 0.12203 0.40884 0.0
C1871 C 0.27721 0.15115 0.39855 0.0
C1872 C 0.28315 0.15677 0.41451 0.0
C1873 C 0.28595 0.14486 0.42762 0.0
C1874 C 0.28274 0.12745 0.42454 0.0
C1875 C 0.32489 0.09471 0.41528 0.0
C1876 C 0.2951 0.07848 0.42621 0.0
C1877 C 0.30884 0.09938 0.40871 0.0
N1878 N 0.2942 0.09135 0.41427 0.0
C1879 C 0.31094 0.07347 0.43306 0.0
C1880 C 0.32591 0.08167 0.42755 0.0
C1881 C 0.2531 0.06432 0.40175 0.0
C1882 C 0.22233 0.10159 0.34877 0.0
C1883 C 0.21716 0.07523 0.37216 0.0
C1884 C 0.21385 0.07237 0.35473 0.0
C1885 C 0.21647 0.08566 0.34298 0.0
N1886 N 0.22288 0.09091 0.37774 0.0
C1887 C 0.22549 0.104 0.3663 0.0
Co1888 Co 0.59766 0.90495 0.77142 0.0
Co1889 Co 0.59423 0.90137 0.72742 0.0
O1890 O 0.60424 0.89483 0.74945 0.0
C1891 C 0.59243 0.86772 0.77718 0.0
O1892 O 0.58324 0.8673 0.763 0.0
C1893 C 0.63151 0.90639 0.72162 0.0
O1894 O 0.632 0.91587 0.7356 0.0
O1895 O 0.59818 0.92628 0.73217 0.0
O1896 O 0.5962 0.92827 0.76094 0.0
H1897 H 0.55618 0.93566 0.68801 0.0
H1898 H 0.62903 0.8834 0.76899 0.0
O1899 O 0.59911 0.88177 0.78235 0.0
H1900 H 0.64916 0.94011 0.78921 0.0
H1901 H 0.60126 0.91194 0.83572 0.0
H1902 H 0.57199 0.9308 0.78268 0.0
H1903 H 0.61832 0.93487 0.78387 0.0
H1904 H 0.60944 0.89979 0.80756 0.0
O1905 O 0.61743 0.8997 0.71658 0.0
H1906 H 0.56859 0.92718 0.71596 0.0
H1907 H 0.59944 0.88941 0.69134 0.0
H1908 H 0.56349 0.94339 0.81055 0.0
H1909 H 0.65998 0.88803 0.77431 0.0
H1910 H 0.57818 0.93396 0.83732 0.0
H1911 H 0.67023 0.91657 0.78445 0.0
O1912 O 0.57275 0.90114 0.76659 0.0
H1913 H 0.61076 0.83893 0.72483 0.0
H1914 H 0.56422 0.88086 0.71496 0.0
H1915 H 0.55881 0.85003 0.70974 0.0
H1916 H 0.58219 0.82883 0.71465 0.0
H1917 H 0.61558 0.86987 0.73005 0.0
H1918 H 0.58746 0.89757 0.66311 0.0
H1919 H 0.56561 0.92081 0.66133 0.0
O1920 O 0.57089 0.90303 0.73781 0.0
C1921 C 0.59742 0.93503 0.74604 0.0
C1922 C 0.56565 0.92548 0.68862 0.0
C1923 C 0.58322 0.90412 0.67465 0.0
N1924 N 0.58461 0.90772 0.70529 0.0
C1925 C 0.57269 0.92059 0.70442 0.0
C1926 C 0.58998 0.89957 0.69066 0.0
C1927 C 0.57096 0.91715 0.67366 0.0
C1928 C 0.63338 0.89581 0.77353 0.0
N1929 N 0.62187 0.90882 0.77618 0.0
C1930 C 0.65092 0.89838 0.77647 0.0
C1931 C 0.65666 0.9144 0.78214 0.0
C1932 C 0.64485 0.92761 0.7848 0.0
C1933 C 0.62741 0.92458 0.78171 0.0
C1934 C 0.59479 0.91618 0.82414 0.0
C1935 C 0.5785 0.92671 0.79427 0.0
C1936 C 0.59934 0.90932 0.80817 0.0
N1937 N 0.59129 0.91469 0.79349 0.0
C1938 C 0.57361 0.93385 0.81001 0.0
C1939 C 0.58184 0.92854 0.82503 0.0
C1940 C 0.56406 0.90189 0.75268 0.0
C1941 C 0.60049 0.84805 0.72261 0.0
C1942 C 0.57444 0.87171 0.71719 0.0
C1943 C 0.57132 0.85427 0.71417 0.0
C1944 C 0.58444 0.84239 0.71691 0.0
N1945 N 0.59022 0.87717 0.72275 0.0
C1946 C 0.60315 0.86559 0.72548 0.0
Co1947 Co 0.09349 0.59731 0.77176 0.0
Co1948 Co 0.097 0.59407 0.72773 0.0
O1949 O 0.1037 0.60392 0.74982 0.0
C1950 C 0.13068 0.59174 0.77773 0.0
O1951 O 0.13113 0.58254 0.76357 0.0
C1952 C 0.09244 0.63143 0.72192 0.0
O1953 O 0.08302 0.63203 0.73593 0.0
O1954 O 0.07216 0.59831 0.7325 0.0
O1955 O 0.07016 0.59608 0.76124 0.0
H1956 H 0.06212 0.55658 0.6882 0.0
H1957 H 0.11535 0.62852 0.76947 0.0
O1958 O 0.11666 0.59854 0.78276 0.0
H1959 H 0.05887 0.649 0.78979 0.0
H1960 H 0.08643 0.60065 0.83606 0.0
H1961 H 0.06737 0.57177 0.78284 0.0
H1962 H 0.06378 0.61814 0.7843 0.0
H1963 H 0.09871 0.60888 0.80797 0.0
O1964 O 0.099 0.61728 0.71693 0.0
H1965 H 0.07081 0.56881 0.71619 0.0
H1966 H 0.10904 0.59922 0.69167 0.0
H1967 H 0.05466 0.56323 0.81064 0.0
H1968 H 0.11104 0.65948 0.77495 0.0
H1969 H 0.06419 0.57772 0.8375 0.0
H1970 H 0.08261 0.6699 0.78515 0.0
O1971 O 0.09707 0.57238 0.76681 0.0
H1972 H 0.15968 0.60983 0.72523 0.0
H1973 H 0.11707 0.56385 0.71517 0.0
H1974 H 0.14781 0.55806 0.70994 0.0
H1975 H 0.16936 0.58116 0.71495 0.0
H1976 H 0.12881 0.61501 0.73045 0.0
H1977 H 0.10068 0.58743 0.6634 0.0
H1978 H 0.07711 0.5659 0.66156 0.0
O1979 O 0.09502 0.57071 0.73803 0.0
C1980 C 0.0634 0.59753 0.74636 0.0
C1981 C 0.07245 0.56592 0.68885 0.0
C1982 C 0.09408 0.58325 0.67492 0.0
N1983 N 0.09051 0.5846 0.70557 0.0
C1984 C 0.07746 0.57284 0.70466 0.0
C1985 C 0.09873 0.5899 0.69096 0.0
C1986 C 0.08085 0.57116 0.6739 0.0
C1987 C 0.10298 0.63294 0.77403 0.0
N1988 N 0.08986 0.62152 0.77662 0.0
C1989 C 0.1006 0.65049 0.77706 0.0
C1990 C 0.08465 0.65633 0.78276 0.0
C1991 C 0.07131 0.64461 0.78536 0.0
C1992 C 0.07416 0.62716 0.78218 0.0
C1993 C 0.08215 0.59426 0.82444 0.0
C1994 C 0.07151 0.5782 0.79447 0.0
C1995 C 0.08908 0.59884 0.80851 0.0
N1996 N 0.08366 0.5909 0.79378 0.0
C1997 C 0.0643 0.57328 0.81017 0.0
C1998 C 0.06967 0.5814 0.82524 0.0
C1999 C 0.09615 0.56377 0.75286 0.0
C2000 C 0.15041 0.59967 0.72296 0.0
C2001 C 0.12636 0.57395 0.71744 0.0
C2002 C 0.14375 0.57061 0.71442 0.0
C2003 C 0.15583 0.58358 0.71722 0.0
N2004 N 0.12114 0.58977 0.72305 0.0
C2005 C 0.13291 0.60255 0.72583 0.0
Co2006 Co 0.40188 0.09413 0.77149 0.0
Co2007 Co 0.40471 0.09757 0.72746 0.0
O2008 O 0.39489 0.10411 0.74958 0.0
C2009 C 0.40658 0.13145 0.77739 0.0
O2010 O 0.41591 0.1321 0.76332 0.0
C2011 C 0.3674 0.09231 0.72195 0.0
O2012 O 0.36708 0.08276 0.73588 0.0
O2013 O 0.40094 0.07265 0.7323 0.0
O2014 O 0.40365 0.07082 0.76101 0.0
H2015 H 0.44255 0.0634 0.68774 0.0
H2016 H 0.37008 0.11509 0.76932 0.0
O2017 O 0.40008 0.11728 0.78242 0.0
H2018 H 0.35124 0.05808 0.78987 0.0
H2019 H 0.39913 0.08718 0.83583 0.0
H2020 H 0.42814 0.06876 0.7825 0.0
H2021 H 0.38191 0.06386 0.78419 0.0
H2022 H 0.3904 0.09913 0.80775 0.0
O2023 O 0.3814 0.09911 0.71684 0.0
H2024 H 0.43038 0.07188 0.71579 0.0
H2025 H 0.39905 0.10941 0.69141 0.0
H2026 H 0.43718 0.05638 0.81029 0.0
H2027 H 0.33929 0.1099 0.775 0.0
H2028 H 0.42263 0.0656 0.8372 0.0
H2029 H 0.32969 0.08121 0.7853 0.0
O2030 O 0.42666 0.09838 0.76638 0.0
H2031 H 0.38786 0.15992 0.72496 0.0
H2032 H 0.43447 0.1182 0.71462 0.0
H2033 H 0.43968 0.14903 0.70926 0.0
H2034 H 0.41626 0.17014 0.71441 0.0
H2035 H 0.38326 0.12897 0.73029 0.0
H2036 H 0.41078 0.10124 0.66308 0.0
H2037 H 0.43275 0.07813 0.66113 0.0
O2038 O 0.42818 0.09605 0.73761 0.0
C2039 C 0.40213 0.06397 0.74618 0.0
C2040 C 0.43303 0.07353 0.68843 0.0
C2041 C 0.41518 0.09475 0.67458 0.0
N2042 N 0.41413 0.09122 0.70525 0.0
C2043 C 0.42613 0.07842 0.70428 0.0
C2044 C 0.40856 0.0993 0.69066 0.0
C2045 C 0.42751 0.08179 0.6735 0.0
C2046 C 0.36602 0.10261 0.77394 0.0
N2047 N 0.3778 0.08982 0.77649 0.0
C2048 C 0.34856 0.09973 0.77707 0.0
C2049 C 0.34318 0.08362 0.78284 0.0
C2050 C 0.35526 0.07063 0.78539 0.0
C2051 C 0.37261 0.07397 0.78211 0.0
C2052 C 0.40554 0.08304 0.82418 0.0
C2053 C 0.42168 0.07276 0.79415 0.0
C2054 C 0.40068 0.08979 0.80825 0.0
N2055 N 0.40867 0.08454 0.79349 0.0
C2056 C 0.42688 0.06574 0.80985 0.0
C2057 C 0.41873 0.07093 0.82495 0.0
C2058 C 0.43519 0.09749 0.75238 0.0
C2059 C 0.39816 0.15085 0.72263 0.0
C2060 C 0.42424 0.1273 0.71695 0.0
C2061 C 0.42725 0.14474 0.71385 0.0
C2062 C 0.4141 0.15657 0.71673 0.0
N2063 N 0.40856 0.12178 0.72271 0.0
C2064 C 0.39561 0.1333 0.72557 0.0
Co2065 Co 0.90198 0.40396 0.72719 0.0
Co2066 Co 0.90452 0.40074 0.77128 0.0
O2067 O 0.8948 0.39416 0.74912 0.0
C2068 C 0.9066 0.3666 0.72183 0.0
O2069 O 0.91562 0.36614 0.73611 0.0
C2070 C 0.86724 0.40643 0.77624 0.0
O2071 O 0.86721 0.4157 0.76211 0.0
O2072 O 0.90117 0.42567 0.76624 0.0
O2073 O 0.9037 0.42734 0.7375 0.0
H2074 H 0.94258 0.43464 0.81111 0.0
H2075 H 0.87015 0.38297 0.72921 0.0
O2076 O 0.90027 0.38072 0.71646 0.0
H2077 H 0.85152 0.43983 0.70816 0.0
H2078 H 0.89971 0.41037 0.66278 0.0
H2079 H 0.92835 0.42927 0.71618 0.0
H2080 H 0.88215 0.43412 0.71413 0.0
H2081 H 0.89077 0.39864 0.69089 0.0
O2082 O 0.8811 0.3996 0.78167 0.0
H2083 H 0.9305 0.42615 0.783 0.0
H2084 H 0.89836 0.38923 0.80734 0.0
H2085 H 0.9376 0.44144 0.68837 0.0
H2086 H 0.8394 0.38808 0.72326 0.0
H2087 H 0.92324 0.43199 0.66141 0.0
H2088 H 0.82991 0.4167 0.71269 0.0
O2089 O 0.92671 0.39979 0.73253 0.0
H2090 H 0.88665 0.33864 0.77406 0.0
H2091 H 0.93384 0.37979 0.78451 0.0
H2092 H 0.93851 0.34892 0.79011 0.0
H2093 H 0.91479 0.32811 0.78491 0.0
H2094 H 0.88259 0.36961 0.76848 0.0
H2095 H 0.90998 0.39742 0.83573 0.0
H2096 H 0.93231 0.42023 0.83773 0.0
O2097 O 0.92809 0.40187 0.76132 0.0
C2098 C 0.90234 0.43427 0.7523 0.0
C2099 C 0.93289 0.42465 0.8104 0.0
C2100 C 0.91458 0.40377 0.82422 0.0
N2101 N 0.91385 0.40712 0.79353 0.0
C2102 C 0.92604 0.41975 0.79452 0.0
C2103 C 0.90802 0.39922 0.80812 0.0
C2104 C 0.92712 0.41657 0.82533 0.0
C2105 C 0.86614 0.39541 0.72448 0.0
N2106 N 0.87794 0.4082 0.72195 0.0
C2107 C 0.8487 0.39825 0.72119 0.0
C2108 C 0.84338 0.41432 0.71528 0.0
C2109 C 0.8555 0.4273 0.71275 0.0
C2110 C 0.87282 0.424 0.71619 0.0
C2111 C 0.90605 0.41462 0.67444 0.0
C2112 C 0.92197 0.42518 0.70451 0.0
C2113 C 0.90106 0.408 0.69038 0.0
N2114 N 0.90895 0.41338 0.70516 0.0
C2115 C 0.9273 0.43207 0.6888 0.0
C2116 C 0.91924 0.42675 0.67368 0.0
C2117 C 0.93516 0.40051 0.74658 0.0
C2118 C 0.89707 0.34759 0.77641 0.0
C2119 C 0.92348 0.37082 0.78215 0.0
C2120 C 0.92619 0.35335 0.78539 0.0
C2121 C 0.91287 0.34169 0.78248 0.0
N2122 N 0.90794 0.37651 0.77623 0.0
C2123 C 0.89483 0.36515 0.77334 0.0
Co2124 Co 0.59386 0.09758 0.27239 0.0
Co2125 Co 0.59722 0.09435 0.22836 0.0
O2126 O 0.60378 0.10437 0.2504 0.0
C2127 C 0.63116 0.0928 0.27803 0.0
O2128 O 0.63163 0.08348 0.26395 0.0
C2129 C 0.59183 0.1316 0.22282 0.0
O2130 O 0.58252 0.1319 0.23691 0.0
O2131 O 0.57229 0.09796 0.23325 0.0
O2132 O 0.57051 0.09582 0.26202 0.0
H2133 H 0.56316 0.05598 0.18897 0.0
H2134 H 0.61502 0.12927 0.26997 0.0
O2135 O 0.61707 0.09934 0.2832 0.0
H2136 H 0.55818 0.14851 0.29051 0.0
H2137 H 0.5872 0.10085 0.33674 0.0
H2138 H 0.56837 0.07151 0.2837 0.0
H2139 H 0.56375 0.11777 0.28503 0.0
H2140 H 0.59908 0.10931 0.30855 0.0
O2141 O 0.59857 0.11761 0.21762 0.0
H2142 H 0.57164 0.06841 0.21693 0.0
H2143 H 0.60892 0.09987 0.19226 0.0
H2144 H 0.55605 0.06273 0.3116 0.0
H2145 H 0.61005 0.16013 0.27544 0.0
H2146 H 0.56547 0.07744 0.33837 0.0
H2147 H 0.58144 0.16993 0.28574 0.0
O2148 O 0.59792 0.07274 0.26745 0.0
H2149 H 0.65945 0.11171 0.22554 0.0
H2150 H 0.61798 0.06466 0.21568 0.0
H2151 H 0.64884 0.05967 0.21027 0.0
H2152 H 0.66981 0.08332 0.21517 0.0
H2153 H 0.6285 0.11609 0.23094 0.0
H2154 H 0.60075 0.08788 0.16401 0.0
H2155 H 0.57776 0.06572 0.16226 0.0
O2156 O 0.59586 0.07094 0.23868 0.0
C2157 C 0.56364 0.09701 0.24717 0.0
C2158 C 0.57323 0.06558 0.18957 0.0
C2159 C 0.59432 0.08351 0.17556 0.0
N2160 N 0.59086 0.08474 0.20623 0.0
C2161 C 0.57812 0.07263 0.20537 0.0
C2162 C 0.59886 0.09027 0.19158 0.0
C2163 C 0.58142 0.07107 0.17459 0.0
C2164 C 0.60258 0.13342 0.27459 0.0
N2165 N 0.58972 0.12172 0.27724 0.0
C2166 C 0.59982 0.15091 0.2776 0.0
C2167 C 0.58376 0.15641 0.28336 0.0
C2168 C 0.5707 0.1444 0.28603 0.0
C2169 C 0.57392 0.12701 0.28286 0.0
C2170 C 0.58297 0.09436 0.32516 0.0
C2171 C 0.57245 0.07804 0.29528 0.0
C2172 C 0.58968 0.09907 0.30917 0.0
N2173 N 0.58432 0.091 0.29449 0.0
C2174 C 0.56547 0.07298 0.31105 0.0
C2175 C 0.57077 0.08123 0.32607 0.0
C2176 C 0.59716 0.06408 0.25352 0.0
C2177 C 0.65044 0.10132 0.22332 0.0
C2178 C 0.62703 0.07499 0.21791 0.0
C2179 C 0.64448 0.07211 0.21478 0.0
C2180 C 0.65624 0.08538 0.21752 0.0
N2181 N 0.62143 0.09067 0.22357 0.0
C2182 C 0.63289 0.10374 0.22629 0.0
Co2183 Co 0.90031 0.59417 0.2727 0.0
Co2184 Co 0.90383 0.59706 0.22865 0.0
O2185 O 0.89378 0.60394 0.25055 0.0
C2186 C 0.90562 0.63147 0.27775 0.0
O2187 O 0.91486 0.63158 0.26361 0.0
C2188 C 0.86656 0.59193 0.22283 0.0
O2189 O 0.86601 0.58278 0.23702 0.0
O2190 O 0.8999 0.57225 0.23379 0.0
O2191 O 0.9017 0.57066 0.2626 0.0
H2192 H 0.94199 0.56217 0.18989 0.0
H2193 H 0.86902 0.61579 0.26985 0.0
O2194 O 0.89893 0.61754 0.2832 0.0
H2195 H 0.84868 0.55951 0.29101 0.0
H2196 H 0.89663 0.58836 0.3371 0.0
H2197 H 0.92584 0.56839 0.28445 0.0
H2198 H 0.87954 0.56454 0.28561 0.0
H2199 H 0.88853 0.60004 0.30872 0.0
O2200 O 0.88067 0.59851 0.21772 0.0
H2201 H 0.92951 0.5711 0.21767 0.0
H2202 H 0.8987 0.60845 0.19238 0.0
H2203 H 0.93426 0.55626 0.31255 0.0
H2204 H 0.83805 0.61136 0.27523 0.0
H2205 H 0.9196 0.56625 0.33913 0.0
H2206 H 0.8277 0.58304 0.28585 0.0
O2207 O 0.92525 0.59781 0.26786 0.0
H2208 H 0.88722 0.65943 0.22507 0.0
H2209 H 0.93383 0.61742 0.21594 0.0
H2210 H 0.93921 0.64818 0.21026 0.0
H2211 H 0.91579 0.66941 0.2148 0.0
H2212 H 0.88244 0.62856 0.23075 0.0
H2213 H 0.91074 0.59983 0.16431 0.0
H2214 H 0.93261 0.57658 0.16296 0.0
O2215 O 0.92715 0.59561 0.23912 0.0
C2216 C 0.90053 0.56369 0.24779 0.0
C2217 C 0.93252 0.57236 0.19032 0.0
C2218 C 0.91496 0.59348 0.17596 0.0
N2219 N 0.9135 0.59037 0.20665 0.0
C2220 C 0.92544 0.5775 0.20601 0.0
C2221 C 0.90816 0.59828 0.19188 0.0
C2222 C 0.92723 0.58044 0.17521 0.0
C2223 C 0.86463 0.60347 0.2746 0.0
N2224 N 0.87609 0.59046 0.27748 0.0
C2225 C 0.84707 0.60102 0.27757 0.0
C2226 C 0.84127 0.58512 0.2835 0.0
C2227 C 0.85303 0.57191 0.28639 0.0
C2228 C 0.87049 0.57482 0.28327 0.0
C2229 C 0.90309 0.58388 0.32561 0.0
C2230 C 0.91934 0.57272 0.29595 0.0
C2231 C 0.89858 0.59047 0.30951 0.0
N2232 N 0.90662 0.5848 0.29494 0.0
C2233 C 0.92419 0.56584 0.31183 0.0
C2234 C 0.91597 0.57147 0.32673 0.0
C2235 C 0.93396 0.59691 0.25398 0.0
C2236 C 0.89751 0.65029 0.22301 0.0
C2237 C 0.9236 0.62659 0.21801 0.0
C2238 C 0.9267 0.64398 0.21473 0.0
C2239 C 0.91355 0.65589 0.21727 0.0
N2240 N 0.90782 0.62119 0.22362 0.0
C2241 C 0.89486 0.63279 0.22614 0.0
Co2242 Co 0.40127 0.90369 0.22695 0.0
Co2243 Co 0.40401 0.90018 0.27102 0.0
O2244 O 0.39432 0.89364 0.24884 0.0
C2245 C 0.40654 0.86643 0.2213 0.0
O2246 O 0.41575 0.86602 0.23545 0.0
C2247 C 0.3667 0.90557 0.27593 0.0
O2248 O 0.36668 0.91477 0.26177 0.0
O2249 O 0.40045 0.92511 0.26614 0.0
O2250 O 0.40263 0.92706 0.23739 0.0
H2251 H 0.44183 0.93418 0.311 0.0
H2252 H 0.36981 0.88215 0.22895 0.0
O2253 O 0.39991 0.88047 0.2161 0.0
H2254 H 0.35016 0.93879 0.20823 0.0
H2255 H 0.39876 0.91038 0.16258 0.0
H2256 H 0.42718 0.92951 0.21602 0.0
H2257 H 0.3809 0.93357 0.21408 0.0
H2258 H 0.39008 0.89837 0.19065 0.0
O2259 O 0.38058 0.89883 0.28143 0.0
H2260 H 0.4298 0.92573 0.28286 0.0
H2261 H 0.39797 0.88844 0.30703 0.0
H2262 H 0.43618 0.94196 0.18824 0.0
H2263 H 0.33897 0.88677 0.2231 0.0
H2264 H 0.42193 0.93239 0.16127 0.0
H2265 H 0.32896 0.91527 0.21271 0.0
O2266 O 0.42609 0.89991 0.23221 0.0
H2267 H 0.38665 0.83793 0.27353 0.0
H2268 H 0.43353 0.87942 0.28409 0.0
H2269 H 0.43845 0.84856 0.28954 0.0
H2270 H 0.41489 0.82758 0.28429 0.0
H2271 H 0.38232 0.86889 0.2681 0.0
H2272 H 0.40955 0.89658 0.33546 0.0
H2273 H 0.4317 0.91956 0.33755 0.0
O2274 O 0.42755 0.90156 0.26103 0.0
C2275 C 0.40133 0.93384 0.25227 0.0
C2276 C 0.43223 0.92411 0.31025 0.0
C2277 C 0.41409 0.90302 0.32398 0.0
N2278 N 0.41331 0.90651 0.2933 0.0
C2279 C 0.4254 0.91924 0.29435 0.0
C2280 C 0.40756 0.89849 0.30785 0.0
C2281 C 0.42652 0.91591 0.32514 0.0
C2282 C 0.36558 0.89455 0.22429 0.0
N2283 N 0.37716 0.90755 0.2218 0.0
C2284 C 0.34809 0.8971 0.22106 0.0
C2285 C 0.34248 0.91311 0.21525 0.0
C2286 C 0.35437 0.92631 0.21275 0.0
C2287 C 0.37175 0.92329 0.21613 0.0
C2288 C 0.40505 0.91467 0.17425 0.0
C2289 C 0.42085 0.92536 0.20434 0.0
C2290 C 0.40021 0.9079 0.19017 0.0
N2291 N 0.40803 0.91334 0.20496 0.0
C2292 C 0.42603 0.93242 0.18865 0.0
C2293 C 0.41804 0.92703 0.17352 0.0
C2294 C 0.43459 0.90051 0.24625 0.0
C2295 C 0.397 0.84695 0.27591 0.0
C2296 C 0.42323 0.87037 0.28171 0.0
C2297 C 0.42608 0.85291 0.28486 0.0
C2298 C 0.41286 0.84115 0.28193 0.0
N2299 N 0.40763 0.87596 0.27584 0.0
C2300 C 0.39461 0.8645 0.27292 0.0
Co2301 Co 0.09673 0.4051 0.27172 0.0
Co2302 Co 0.0931 0.40143 0.22774 0.0
O2303 O 0.10325 0.39496 0.24973 0.0
C2304 C 0.09175 0.36785 0.27761 0.0
O2305 O 0.08251 0.36732 0.26348 0.0
C2306 C 0.13034 0.40651 0.2217 0.0
O2307 O 0.1309 0.41595 0.2357 0.0
O2308 O 0.09701 0.42635 0.23242 0.0
O2309 O 0.09509 0.4284 0.26118 0.0
H2310 H 0.05471 0.43555 0.18851 0.0
H2311 H 0.12819 0.38371 0.26917 0.0
O2312 O 0.09835 0.38196 0.2827 0.0
H2313 H 0.14813 0.44057 0.28915 0.0
H2314 H 0.10061 0.41226 0.33598 0.0
H2315 H 0.07097 0.43084 0.28305 0.0
H2316 H 0.11729 0.43516 0.28399 0.0
H2317 H 0.10873 0.4001 0.30781 0.0
O2318 O 0.11623 0.3998 0.21675 0.0
H2319 H 0.06733 0.42715 0.21639 0.0
H2320 H 0.0981 0.3894 0.19165 0.0
H2321 H 0.06253 0.44343 0.31094 0.0
H2322 H 0.15915 0.38852 0.27432 0.0
H2323 H 0.0774 0.43414 0.33766 0.0
H2324 H 0.16929 0.41713 0.28434 0.0
O2325 O 0.07181 0.40114 0.26703 0.0
H2326 H 0.10976 0.33903 0.22517 0.0
H2327 H 0.06306 0.38081 0.2155 0.0
H2328 H 0.05769 0.34996 0.21037 0.0
H2329 H 0.08116 0.32883 0.21518 0.0
H2330 H 0.11453 0.36999 0.2303 0.0
H2331 H 0.08591 0.39747 0.16348 0.0
H2332 H 0.064 0.42066 0.1618 0.0
O2333 O 0.0698 0.40305 0.23826 0.0
C2334 C 0.09626 0.43513 0.24627 0.0
C2335 C 0.06421 0.42539 0.18908 0.0
C2336 C 0.08173 0.40403 0.17503 0.0
N2337 N 0.08333 0.40771 0.20566 0.0
C2338 C 0.07136 0.42055 0.20483 0.0
C2339 C 0.08861 0.39954 0.19101 0.0
C2340 C 0.06944 0.41704 0.1741 0.0
C2341 C 0.1325 0.39615 0.27367 0.0
N2342 N 0.12094 0.40911 0.27634 0.0
C2343 C 0.15004 0.39882 0.2765 0.0
C2344 C 0.15573 0.41488 0.2821 0.0
C2345 C 0.14386 0.42804 0.28479 0.0
C2346 C 0.12642 0.42492 0.2818 0.0
C2347 C 0.09406 0.41643 0.32443 0.0
C2348 C 0.07756 0.42681 0.29461 0.0
C2349 C 0.09857 0.40957 0.30845 0.0
N2350 N 0.09042 0.41486 0.2938 0.0
C2351 C 0.0727 0.43395 0.31037 0.0
C2352 C 0.08104 0.42872 0.32536 0.0
C2353 C 0.06304 0.40187 0.25316 0.0
C2354 C 0.09945 0.34811 0.22299 0.0
C2355 C 0.07332 0.3717 0.21769 0.0
C2356 C 0.07021 0.35424 0.21472 0.0
C2357 C 0.08339 0.3424 0.21741 0.0
N2358 N 0.08911 0.37721 0.22314 0.0
C2359 C 0.10209 0.36567 0.22581 0.0
Co2360 Co 0.7706 0.59756 0.90348 0.0
Co2361 Co 0.72656 0.59362 0.90125 0.0
O2362 O 0.74828 0.60379 0.89394 0.0
C2363 C 0.77567 0.59198 0.86615 0.0
O2364 O 0.7619 0.58217 0.8661 0.0
C2365 C 0.7206 0.63088 0.90605 0.0
O2366 O 0.73489 0.63156 0.91504 0.0
O2367 O 0.73201 0.59785 0.92596 0.0
O2368 O 0.76083 0.59612 0.92711 0.0
H2369 H 0.68861 0.55545 0.93708 0.0
H2370 H 0.76716 0.62876 0.8818 0.0
O2371 O 0.78084 0.59904 0.88001 0.0
H2372 H 0.78885 0.6495 0.93772 0.0
H2373 H 0.83503 0.60196 0.90853 0.0
H2374 H 0.78291 0.5722 0.92918 0.0
H2375 H 0.7837 0.61857 0.93287 0.0
H2376 H 0.80644 0.60974 0.89718 0.0
O2377 O 0.71545 0.61669 0.89967 0.0
H2378 H 0.71616 0.56809 0.92763 0.0
H2379 H 0.69009 0.59834 0.89034 0.0
H2380 H 0.81123 0.56411 0.941 0.0
H2381 H 0.77227 0.6598 0.88604 0.0
H2382 H 0.83755 0.57904 0.93066 0.0
H2383 H 0.78316 0.67035 0.91418 0.0
O2384 O 0.76593 0.57256 0.89999 0.0
H2385 H 0.72194 0.60949 0.83875 0.0
H2386 H 0.71376 0.56329 0.88144 0.0
H2387 H 0.70762 0.55752 0.85085 0.0
H2388 H 0.71168 0.58073 0.82927 0.0
H2389 H 0.72807 0.61466 0.86946 0.0
H2390 H 0.66224 0.58613 0.89949 0.0
H2391 H 0.66139 0.56447 0.92297 0.0
O2392 O 0.73725 0.5704 0.90282 0.0
C2393 C 0.74614 0.59729 0.9343 0.0
C2394 C 0.68881 0.56483 0.9268 0.0
C2395 C 0.67401 0.58207 0.90571 0.0
N2396 N 0.70474 0.58382 0.90836 0.0
C2397 C 0.70437 0.572 0.92136 0.0
C2398 C 0.68981 0.58896 0.90061 0.0
C2399 C 0.67355 0.56991 0.91888 0.0
C2400 C 0.77203 0.63324 0.89403 0.0
N2401 N 0.77519 0.62185 0.90705 0.0
C2402 C 0.77484 0.65083 0.89638 0.0
C2403 C 0.78093 0.65675 0.91218 0.0
C2404 C 0.78411 0.64506 0.92539 0.0
C2405 C 0.78113 0.62756 0.92259 0.0
C2406 C 0.82366 0.59538 0.91316 0.0
C2407 C 0.79429 0.57882 0.9247 0.0
C2408 C 0.80744 0.59971 0.90676 0.0
N2409 N 0.79302 0.59152 0.91262 0.0
C2410 C 0.8103 0.57415 0.9314 0.0
C2411 C 0.82506 0.58253 0.92558 0.0
C2412 C 0.75214 0.56373 0.90125 0.0
C2413 C 0.72008 0.59928 0.84803 0.0
C2414 C 0.71562 0.57343 0.87213 0.0
C2415 C 0.71208 0.5701 0.85482 0.0
C2416 C 0.71435 0.58314 0.84272 0.0
N2417 N 0.72121 0.58931 0.87724 0.0
C2418 C 0.72348 0.60215 0.86545 0.0
Co2419 Co 0.72745 0.40446 0.09591 0.0
Co2420 Co 0.77147 0.4012 0.09285 0.0
O2421 O 0.74943 0.39456 0.10278 0.0
C2422 C 0.72171 0.36712 0.09129 0.0
O2423 O 0.73575 0.36656 0.0819 0.0
C2424 C 0.77708 0.40638 0.13014 0.0
O2425 O 0.76308 0.41583 0.13051 0.0
O2426 O 0.76657 0.42609 0.09666 0.0
O2427 O 0.73784 0.42782 0.09409 0.0
H2428 H 0.81088 0.43554 0.05479 0.0
H2429 H 0.72985 0.38348 0.12769 0.0
O2430 O 0.71662 0.38127 0.09776 0.0
H2431 H 0.70926 0.4404 0.14667 0.0
H2432 H 0.66311 0.41115 0.09904 0.0
H2433 H 0.71621 0.42982 0.06973 0.0
H2434 H 0.71477 0.43466 0.11596 0.0
H2435 H 0.69128 0.3993 0.10759 0.0
O2436 O 0.7822 0.39967 0.11611 0.0
H2437 H 0.78292 0.42696 0.06713 0.0
H2438 H 0.80758 0.38949 0.09831 0.0
H2439 H 0.68833 0.44211 0.06086 0.0
H2440 H 0.72435 0.38861 0.15852 0.0
H2441 H 0.66153 0.43277 0.07556 0.0
H2442 H 0.71402 0.41726 0.16819 0.0
O2443 O 0.73244 0.40027 0.0711 0.0
H2444 H 0.77425 0.33884 0.10966 0.0
H2445 H 0.78421 0.38066 0.06301 0.0
H2446 H 0.78962 0.34984 0.05776 0.0
H2447 H 0.78467 0.3287 0.08121 0.0
H2448 H 0.76885 0.36976 0.11431 0.0
H2449 H 0.83583 0.39777 0.08642 0.0
H2450 H 0.83759 0.4209 0.06444 0.0
O2451 O 0.76118 0.40271 0.06944 0.0
C2452 C 0.75266 0.43472 0.09553 0.0
C2453 C 0.81028 0.42541 0.06432 0.0
C2454 C 0.82428 0.40422 0.08209 0.0
N2455 N 0.79361 0.40765 0.08332 0.0
C2456 C 0.79448 0.42046 0.07131 0.0
C2457 C 0.80826 0.39962 0.0888 0.0
C2458 C 0.82526 0.4172 0.06975 0.0
C2459 C 0.72522 0.39593 0.13178 0.0
N2460 N 0.72257 0.40873 0.12002 0.0
C2461 C 0.72219 0.39878 0.14926 0.0
C2462 C 0.71641 0.41487 0.15468 0.0
C2463 C 0.71375 0.42786 0.14261 0.0
C2464 C 0.71694 0.42455 0.12524 0.0
C2465 C 0.6747 0.41535 0.09256 0.0
C2466 C 0.70461 0.42577 0.07625 0.0
C2467 C 0.69068 0.40865 0.09732 0.0
N2468 N 0.70538 0.41397 0.08925 0.0
C2469 C 0.68886 0.43274 0.07114 0.0
C2470 C 0.67382 0.42748 0.07939 0.0
C2471 C 0.74639 0.40122 0.0625 0.0
C2472 C 0.77649 0.34793 0.09936 0.0
C2473 C 0.78196 0.37153 0.07325 0.0
C2474 C 0.78509 0.3541 0.07022 0.0
C2475 C 0.78232 0.34225 0.08338 0.0
N2476 N 0.77627 0.37701 0.08897 0.0
C2477 C 0.77352 0.36546 0.10193 0.0
Co2478 Co 0.59863 0.77091 0.09472 0.0
Co2479 Co 0.59505 0.72687 0.09802 0.0
O2480 O 0.60514 0.74885 0.10468 0.0
C2481 C 0.59335 0.77637 0.13198 0.0
O2482 O 0.58414 0.7622 0.13226 0.0
C2483 C 0.63228 0.72132 0.09271 0.0
O2484 O 0.63262 0.73556 0.08363 0.0
O2485 O 0.59874 0.73181 0.07312 0.0
O2486 O 0.59718 0.76061 0.07132 0.0
H2487 H 0.55658 0.68774 0.06376 0.0
H2488 H 0.62994 0.76829 0.11637 0.0
O2489 O 0.60005 0.78164 0.11799 0.0
H2490 H 0.65024 0.78886 0.05989 0.0
H2491 H 0.60238 0.83526 0.08832 0.0
H2492 H 0.57303 0.78242 0.06888 0.0
H2493 H 0.61938 0.78353 0.06497 0.0
H2494 H 0.61049 0.80699 0.10023 0.0
O2495 O 0.61826 0.71603 0.09935 0.0
H2496 H 0.56912 0.71562 0.07236 0.0
H2497 H 0.60035 0.69071 0.10962 0.0
H2498 H 0.56461 0.81041 0.05653 0.0
H2499 H 0.66091 0.7736 0.11189 0.0
H2500 H 0.57933 0.83708 0.06625 0.0
H2501 H 0.67125 0.78392 0.08346 0.0
O2502 O 0.5737 0.76609 0.09839 0.0
H2503 H 0.61224 0.72374 0.16027 0.0
H2504 H 0.56523 0.71429 0.11869 0.0
H2505 H 0.56014 0.7088 0.14952 0.0
H2506 H 0.58376 0.71349 0.17054 0.0
H2507 H 0.61673 0.72922 0.12934 0.0
H2508 H 0.58825 0.66254 0.10133 0.0
H2509 H 0.56615 0.66095 0.0783 0.0
O2510 O 0.57171 0.7373 0.09665 0.0
C2511 C 0.59816 0.74574 0.06446 0.0
C2512 C 0.56616 0.68827 0.07386 0.0
C2513 C 0.58396 0.67412 0.09493 0.0
N2514 N 0.58534 0.7048 0.09157 0.0
C2515 C 0.57327 0.70403 0.07881 0.0
C2516 C 0.59079 0.6901 0.09954 0.0
C2517 C 0.57155 0.67324 0.08201 0.0
C2518 C 0.63432 0.77292 0.10401 0.0
N2519 N 0.62285 0.77566 0.09097 0.0
C2520 C 0.65188 0.77585 0.10153 0.0
C2521 C 0.65767 0.78161 0.08557 0.0
C2522 C 0.6459 0.78438 0.07234 0.0
C2523 C 0.62844 0.78129 0.07528 0.0
C2524 C 0.59589 0.82373 0.08395 0.0
C2525 C 0.57956 0.79397 0.0731 0.0
C2526 C 0.6004 0.80769 0.09068 0.0
N2527 N 0.59233 0.79307 0.08515 0.0
C2528 C 0.57471 0.80978 0.06609 0.0
C2529 C 0.58296 0.82474 0.07157 0.0
C2530 C 0.56495 0.7522 0.09773 0.0
C2531 C 0.60186 0.7216 0.15123 0.0
C2532 C 0.57556 0.71642 0.12776 0.0
C2533 C 0.57261 0.71325 0.1452 0.0
C2534 C 0.58587 0.71588 0.15699 0.0
N2535 N 0.59129 0.72201 0.12221 0.0
C2536 C 0.60435 0.72462 0.13369 0.0
Co2537 Co 0.27177 0.5935 0.09808 0.0
Co2538 Co 0.22774 0.59709 0.09497 0.0
O2539 O 0.24984 0.60357 0.10491 0.0
C2540 C 0.27769 0.63077 0.09315 0.0
O2541 O 0.26358 0.63133 0.08388 0.0
C2542 C 0.22201 0.59181 0.13224 0.0
O2543 O 0.23605 0.58244 0.13266 0.0
O2544 O 0.23249 0.57216 0.09871 0.0
O2545 O 0.26123 0.57019 0.09643 0.0
H2546 H 0.18815 0.56305 0.05678 0.0
H2547 H 0.26954 0.61475 0.1297 0.0
O2548 O 0.28275 0.61666 0.09974 0.0
H2549 H 0.28979 0.55786 0.14909 0.0
H2550 H 0.33607 0.58647 0.10125 0.0
H2551 H 0.28284 0.56788 0.07208 0.0
H2552 H 0.28428 0.56339 0.11834 0.0
H2553 H 0.30798 0.59855 0.10972 0.0
O2554 O 0.21698 0.59859 0.11821 0.0
H2555 H 0.21615 0.57144 0.06918 0.0
H2556 H 0.1917 0.60903 0.10039 0.0
H2557 H 0.31064 0.55536 0.06329 0.0
H2558 H 0.27504 0.60983 0.16057 0.0
H2559 H 0.33751 0.56466 0.07792 0.0
H2560 H 0.28519 0.58119 0.17044 0.0
O2561 O 0.2668 0.59754 0.07322 0.0
H2562 H 0.22536 0.65941 0.11201 0.0
H2563 H 0.21516 0.61781 0.06518 0.0
H2564 H 0.20996 0.64868 0.06004 0.0
H2565 H 0.21504 0.66972 0.08357 0.0
H2566 H 0.23054 0.62844 0.11654 0.0
H2567 H 0.16342 0.60096 0.08843 0.0
H2568 H 0.16153 0.57786 0.0664 0.0
O2569 O 0.23802 0.59559 0.07157 0.0
C2570 C 0.24634 0.56341 0.09776 0.0
C2571 C 0.18881 0.57317 0.06633 0.0
C2572 C 0.17493 0.59443 0.08411 0.0
N2573 N 0.20557 0.5908 0.08539 0.0
C2574 C 0.20463 0.57801 0.07336 0.0
C2575 C 0.19097 0.59892 0.09086 0.0
C2576 C 0.17388 0.58148 0.07174 0.0
C2577 C 0.27409 0.6023 0.13388 0.0
N2578 N 0.27665 0.5894 0.12222 0.0
C2579 C 0.27713 0.59957 0.15138 0.0
C2580 C 0.2828 0.58349 0.15692 0.0
C2581 C 0.28537 0.57039 0.14495 0.0
C2582 C 0.28219 0.57359 0.12755 0.0
C2583 C 0.32445 0.5823 0.0948 0.0
C2584 C 0.29447 0.57191 0.07857 0.0
C2585 C 0.30851 0.58911 0.09951 0.0
N2586 N 0.29378 0.58382 0.09148 0.0
C2587 C 0.31018 0.56482 0.07351 0.0
C2588 C 0.32525 0.57005 0.08171 0.0
C2589 C 0.25283 0.59682 0.06463 0.0
C2590 C 0.22306 0.65037 0.10166 0.0
C2591 C 0.21746 0.62688 0.07546 0.0
C2592 C 0.21445 0.64435 0.07249 0.0
C2593 C 0.2173 0.65614 0.0857 0.0
N2594 N 0.22309 0.62132 0.09116 0.0
C2595 C 0.22591 0.63281 0.10417 0.0
Co2596 Co 0.40195 0.2271 0.09486 0.0
Co2597 Co 0.40515 0.27116 0.0978 0.0
O2598 O 0.3953 0.24916 0.10472 0.0
C2599 C 0.40729 0.22168 0.13215 0.0
O2600 O 0.41662 0.23578 0.13245 0.0
C2601 C 0.3678 0.27675 0.09308 0.0
O2602 O 0.36727 0.26269 0.08372 0.0
O2603 O 0.401 0.26606 0.07299 0.0
O2604 O 0.40333 0.2373 0.0714 0.0
H2605 H 0.44276 0.31031 0.06266 0.0
H2606 H 0.3706 0.22968 0.11643 0.0
O2607 O 0.40055 0.21645 0.11816 0.0
H2608 H 0.35049 0.20856 0.06006 0.0
H2609 H 0.39864 0.1627 0.08868 0.0
H2610 H 0.42763 0.21566 0.06908 0.0
H2611 H 0.38131 0.21414 0.06515 0.0
H2612 H 0.39034 0.19096 0.1005 0.0
O2613 O 0.38193 0.28191 0.09958 0.0
H2614 H 0.43052 0.28241 0.0716 0.0
H2615 H 0.3999 0.30736 0.10935 0.0
H2616 H 0.43623 0.18768 0.05681 0.0
H2617 H 0.33967 0.22412 0.11195 0.0
H2618 H 0.42169 0.16095 0.06662 0.0
H2619 H 0.32943 0.21353 0.08358 0.0
O2620 O 0.42684 0.23212 0.09855 0.0
H2621 H 0.38921 0.27444 0.16037 0.0
H2622 H 0.4353 0.28405 0.11784 0.0
H2623 H 0.44098 0.2897 0.14854 0.0
H2624 H 0.41783 0.28492 0.17004 0.0
H2625 H 0.38413 0.2688 0.12955 0.0
H2626 H 0.4117 0.33555 0.10072 0.0
H2627 H 0.43335 0.33713 0.07726 0.0
O2628 O 0.42853 0.26086 0.09604 0.0
C2629 C 0.40188 0.25207 0.06443 0.0
C2630 C 0.43338 0.30978 0.07293 0.0
C2631 C 0.41593 0.32395 0.09428 0.0
N2632 N 0.41462 0.29325 0.09107 0.0
C2633 C 0.42644 0.29402 0.07808 0.0
C2634 C 0.40927 0.30796 0.09908 0.0
C2635 C 0.42808 0.32483 0.08112 0.0
C2636 C 0.36626 0.22494 0.1041 0.0
N2637 N 0.37776 0.22218 0.09109 0.0
C2638 C 0.34872 0.22187 0.10161 0.0
C2639 C 0.34298 0.21595 0.08568 0.0
C2640 C 0.35479 0.21317 0.07248 0.0
C2641 C 0.37223 0.21639 0.07543 0.0
C2642 C 0.40505 0.17426 0.08428 0.0
C2643 C 0.42117 0.20409 0.07333 0.0
C2644 C 0.40043 0.19029 0.09095 0.0
N2645 N 0.40841 0.20495 0.08538 0.0
C2646 C 0.42613 0.18828 0.06638 0.0
C2647 C 0.41798 0.17329 0.0719 0.0
C2648 C 0.43546 0.24606 0.09745 0.0
C2649 C 0.39939 0.27661 0.15112 0.0
C2650 C 0.42518 0.28187 0.12712 0.0
C2651 C 0.42846 0.28514 0.14448 0.0
C2652 C 0.41546 0.28247 0.15654 0.0
N2653 N 0.40938 0.27616 0.12189 0.0
C2654 C 0.39657 0.2735 0.13364 0.0
Co2655 Co 0.22768 0.4013 0.90547 0.0
Co2656 Co 0.2717 0.4051 0.90246 0.0
O2657 O 0.24981 0.39497 0.89555 0.0
C2658 C 0.22215 0.40677 0.86823 0.0
O2659 O 0.23621 0.41615 0.86797 0.0
C2660 C 0.27764 0.36782 0.90716 0.0
O2661 O 0.26353 0.36717 0.91641 0.0
O2662 O 0.26669 0.40092 0.92728 0.0
O2663 O 0.2379 0.40269 0.92891 0.0
H2664 H 0.31046 0.44321 0.93754 0.0
H2665 H 0.23059 0.3701 0.88371 0.0
O2666 O 0.217 0.39991 0.88218 0.0
H2667 H 0.20988 0.34942 0.94 0.0
H2668 H 0.16334 0.39715 0.91173 0.0
H2669 H 0.21597 0.42672 0.9314 0.0
H2670 H 0.21505 0.38034 0.93508 0.0
H2671 H 0.19168 0.38926 0.89983 0.0
O2672 O 0.28271 0.382 0.90071 0.0
H2673 H 0.28269 0.43064 0.92862 0.0
H2674 H 0.30794 0.40025 0.89089 0.0
H2675 H 0.18792 0.43492 0.94375 0.0
H2676 H 0.22543 0.33907 0.88803 0.0
H2677 H 0.16135 0.42009 0.93391 0.0
H2678 H 0.21505 0.32855 0.91636 0.0
O2679 O 0.23238 0.42627 0.90191 0.0
H2680 H 0.2751 0.38909 0.83991 0.0
H2681 H 0.28419 0.43537 0.88238 0.0
H2682 H 0.28974 0.44107 0.85167 0.0
H2683 H 0.28522 0.41782 0.8302 0.0
H2684 H 0.26956 0.384 0.87074 0.0
H2685 H 0.33599 0.41239 0.89948 0.0
H2686 H 0.33736 0.43409 0.92292 0.0
O2687 O 0.26112 0.42836 0.90421 0.0
C2688 C 0.25271 0.40151 0.93586 0.0
C2689 C 0.31002 0.43381 0.92727 0.0
C2690 C 0.32436 0.4165 0.90593 0.0
N2691 N 0.29368 0.41484 0.90916 0.0
C2692 C 0.29433 0.42669 0.92214 0.0
C2693 C 0.30844 0.40964 0.90114 0.0
C2694 C 0.32511 0.42867 0.91907 0.0
C2695 C 0.22593 0.36563 0.89603 0.0
N2696 N 0.22306 0.37703 0.9091 0.0
C2697 C 0.2231 0.34804 0.89842 0.0
C2698 C 0.21729 0.34215 0.91432 0.0
C2699 C 0.2144 0.35385 0.9276 0.0
C2700 C 0.21739 0.37134 0.92475 0.0
C2701 C 0.17483 0.40369 0.91615 0.0
C2702 C 0.20448 0.42014 0.92713 0.0
C2703 C 0.1909 0.3993 0.90943 0.0
N2704 N 0.20547 0.40743 0.91502 0.0
C2705 C 0.18863 0.42487 0.93413 0.0
C2706 C 0.17372 0.41655 0.92859 0.0
C2707 C 0.24621 0.43507 0.90291 0.0
C2708 C 0.27716 0.39931 0.84915 0.0
C2709 C 0.28213 0.4252 0.87311 0.0
C2710 C 0.28534 0.42849 0.85574 0.0
C2711 C 0.28281 0.41544 0.8437 0.0
N2712 N 0.27661 0.40935 0.87836 0.0
C2713 C 0.2741 0.39649 0.86663 0.0
Co2714 Co 0.59436 0.27111 0.9016 0.0
Co2715 Co 0.59721 0.22704 0.90479 0.0
O2716 O 0.60402 0.24901 0.89481 0.0
C2717 C 0.63175 0.27628 0.90634 0.0
O2718 O 0.63208 0.26215 0.91559 0.0
C2719 C 0.59176 0.2217 0.86753 0.0
O2720 O 0.58264 0.23591 0.86729 0.0
O2721 O 0.57234 0.23222 0.90119 0.0
O2722 O 0.57089 0.261 0.90332 0.0
H2723 H 0.56275 0.18798 0.94311 0.0
H2724 H 0.61548 0.26844 0.86994 0.0
O2725 O 0.6177 0.28165 0.89988 0.0
H2726 H 0.5589 0.28966 0.85065 0.0
H2727 H 0.58849 0.33553 0.8984 0.0
H2728 H 0.56903 0.28268 0.92766 0.0
H2729 H 0.56442 0.28412 0.88139 0.0
H2730 H 0.60002 0.30721 0.88991 0.0
O2731 O 0.5984 0.21633 0.88151 0.0
H2732 H 0.57155 0.21586 0.93073 0.0
H2733 H 0.60845 0.19081 0.89919 0.0
H2734 H 0.55706 0.31071 0.93647 0.0
H2735 H 0.61057 0.27397 0.83907 0.0
H2736 H 0.5668 0.33739 0.92179 0.0
H2737 H 0.58209 0.28461 0.82925 0.0
O2738 O 0.59838 0.2661 0.92642 0.0
H2739 H 0.65938 0.22353 0.88743 0.0
H2740 H 0.61786 0.21408 0.93445 0.0
H2741 H 0.64865 0.2083 0.93943 0.0
H2742 H 0.66965 0.213 0.91579 0.0
H2743 H 0.62849 0.22929 0.88306 0.0
H2744 H 0.59996 0.16264 0.91113 0.0
H2745 H 0.577 0.16112 0.9333 0.0
O2746 O 0.59602 0.23735 0.92822 0.0
C2747 C 0.56385 0.24622 0.90211 0.0
C2748 C 0.57281 0.18848 0.9335 0.0
C2749 C 0.59368 0.17426 0.91553 0.0
N2750 N 0.59059 0.20497 0.91437 0.0
C2751 C 0.57788 0.20424 0.92648 0.0
C2752 C 0.59841 0.19024 0.90879 0.0
C2753 C 0.5808 0.17342 0.92797 0.0
C2754 C 0.6031 0.27321 0.86578 0.0
N2755 N 0.59028 0.27602 0.87747 0.0
C2756 C 0.60037 0.27626 0.84828 0.0
C2757 C 0.58439 0.28221 0.84277 0.0
C2758 C 0.57137 0.28503 0.85477 0.0
C2759 C 0.57455 0.28183 0.87216 0.0
C2760 C 0.58412 0.32399 0.90487 0.0
C2761 C 0.57325 0.29422 0.92115 0.0
C2762 C 0.59063 0.30793 0.90015 0.0
N2763 N 0.58509 0.2933 0.9082 0.0
C2764 C 0.56646 0.31006 0.92622 0.0
C2765 C 0.57194 0.32503 0.91799 0.0
C2766 C 0.5975 0.25218 0.93508 0.0
C2767 C 0.65036 0.22139 0.89781 0.0
C2768 C 0.62692 0.21622 0.92413 0.0
C2769 C 0.64434 0.21288 0.927 0.0
C2770 C 0.65611 0.21551 0.91374 0.0
N2771 N 0.62137 0.22196 0.90846 0.0
C2772 C 0.63284 0.22458 0.89539 0.0
Co2773 Co 0.40429 0.72776 0.90041 0.0
Co2774 Co 0.4013 0.77179 0.90408 0.0
O2775 O 0.39452 0.74989 0.8939 0.0
C2776 C 0.36696 0.72228 0.90541 0.0
O2777 O 0.36664 0.73626 0.91489 0.0
C2778 C 0.4067 0.77753 0.86688 0.0
O2779 O 0.41575 0.76327 0.86649 0.0
O2780 O 0.42618 0.76674 0.9004 0.0
O2781 O 0.42775 0.73794 0.90211 0.0
H2782 H 0.43573 0.81057 0.94276 0.0
H2783 H 0.38297 0.73063 0.86889 0.0
O2784 O 0.38098 0.71713 0.8987 0.0
H2785 H 0.43951 0.70984 0.84907 0.0
H2786 H 0.41038 0.66339 0.89651 0.0
H2787 H 0.42984 0.71602 0.9262 0.0
H2788 H 0.43416 0.71507 0.8799 0.0
H2789 H 0.3987 0.69175 0.88838 0.0
O2790 O 0.40005 0.78276 0.88091 0.0
H2791 H 0.42698 0.78279 0.9301 0.0
H2792 H 0.38993 0.80804 0.89889 0.0
H2793 H 0.44196 0.68795 0.93465 0.0
H2794 H 0.38771 0.72542 0.83795 0.0
H2795 H 0.43223 0.66138 0.91976 0.0
H2796 H 0.41617 0.71499 0.82786 0.0
O2797 O 0.40042 0.7325 0.92531 0.0
H2798 H 0.33908 0.7753 0.88684 0.0
H2799 H 0.38066 0.78438 0.93391 0.0
H2800 H 0.34987 0.79002 0.93899 0.0
H2801 H 0.32884 0.7855 0.91533 0.0
H2802 H 0.36999 0.76967 0.88237 0.0
H2803 H 0.39837 0.83612 0.91111 0.0
H2804 H 0.42138 0.83749 0.93326 0.0
O2805 O 0.40256 0.76125 0.9274 0.0
C2806 C 0.43473 0.75276 0.90109 0.0
C2807 C 0.42565 0.81013 0.93316 0.0
C2808 C 0.40469 0.82447 0.91538 0.0
N2809 N 0.40786 0.79379 0.91388 0.0
C2810 C 0.42061 0.79444 0.92598 0.0
C2811 C 0.39999 0.80855 0.90848 0.0
C2812 C 0.4176 0.82523 0.92781 0.0
C2813 C 0.39534 0.72596 0.86462 0.0
N2814 N 0.40825 0.7231 0.8762 0.0
C2815 C 0.39797 0.72309 0.84707 0.0
C2816 C 0.41395 0.71726 0.84142 0.0
C2817 C 0.42705 0.71438 0.85331 0.0
C2818 C 0.42396 0.7174 0.87075 0.0
C2819 C 0.41475 0.67488 0.90307 0.0
C2820 C 0.42562 0.70453 0.91959 0.0
C2821 C 0.40815 0.69096 0.89855 0.0
N2822 N 0.41369 0.70553 0.90672 0.0
C2823 C 0.43249 0.68866 0.92447 0.0
C2824 C 0.42701 0.67376 0.91612 0.0
C2825 C 0.40124 0.74634 0.93411 0.0
C2826 C 0.34812 0.77735 0.89723 0.0
C2827 C 0.37159 0.78232 0.92358 0.0
C2828 C 0.35417 0.78558 0.92651 0.0
C2829 C 0.34238 0.78306 0.91323 0.0
N2830 N 0.37713 0.77676 0.90784 0.0
C2831 C 0.36565 0.77425 0.89476 0.0
H2832 H 0.07444 0.33698 0.27563 0.0
H2833 H 0.11625 0.30343 0.36335 0.0
H2834 H 0.11404 0.3635 0.30423 0.0
H2835 H 0.07513 0.27646 0.33745 0.0
H2836 H 0.11789 0.32346 0.33943 0.0
H2837 H 0.07664 0.31277 0.2958 0.0
C2838 C 0.0837 0.33764 0.28602 0.0
C2839 C 0.0939 0.35237 0.2884 0.0
C2840 C 0.10855 0.31312 0.33886 0.0
C2841 C 0.09649 0.32484 0.31141 0.0
C2842 C 0.1076 0.30166 0.35256 0.0
C2843 C 0.09536 0.2884 0.35251 0.0
C2844 C 0.09707 0.31148 0.32501 0.0
C2845 C 0.08468 0.28659 0.33804 0.0
C2846 C 0.08493 0.32384 0.29753 0.0
C2847 C 0.10574 0.35252 0.30202 0.0
N2848 N 0.08563 0.29816 0.32492 0.0
N2849 N 0.10662 0.33904 0.31304 0.0
H2850 H 0.72381 0.07448 0.33704 0.0
H2851 H 0.63607 0.1162 0.30355 0.0
H2852 H 0.69551 0.11443 0.36325 0.0
H2853 H 0.66151 0.0746 0.27697 0.0
H2854 H 0.6602 0.11806 0.32331 0.0
H2855 H 0.70354 0.07653 0.31288 0.0
C2856 C 0.71347 0.08379 0.33763 0.0
C2857 C 0.71119 0.09412 0.35227 0.0
C2858 C 0.66063 0.10857 0.31312 0.0
C2859 C 0.68809 0.09655 0.3248 0.0
C2860 C 0.64681 0.10749 0.30181 0.0
C2861 C 0.64667 0.09505 0.28875 0.0
C2862 C 0.67441 0.09701 0.31152 0.0
C2863 C 0.66107 0.0843 0.28696 0.0
C2864 C 0.70191 0.08494 0.32387 0.0
C2865 C 0.69763 0.10602 0.35235 0.0
N2866 N 0.67431 0.08538 0.29838 0.0
N2867 N 0.68657 0.10681 0.3389 0.0
H2868 H 0.88109 0.69764 0.36193 0.0
H2869 H 0.92373 0.66186 0.27557 0.0
H2870 H 0.92411 0.72259 0.33717 0.0
H2871 H 0.88274 0.63694 0.30361 0.0
H2872 H 0.92172 0.68648 0.29529 0.0
H2873 H 0.87901 0.6778 0.33788 0.0
C2874 C 0.89006 0.69901 0.35134 0.0
C2875 C 0.90297 0.71161 0.35167 0.0
C2876 C 0.91307 0.67567 0.29697 0.0
C2877 C 0.90077 0.68873 0.32405 0.0
C2878 C 0.9142 0.66165 0.28573 0.0
C2879 C 0.90357 0.64724 0.28813 0.0
C2880 C 0.90118 0.67523 0.31058 0.0
C2881 C 0.89139 0.64765 0.30143 0.0
C2882 C 0.88886 0.68766 0.33758 0.0
C2883 C 0.91404 0.71296 0.33746 0.0
N2884 N 0.89062 0.66134 0.31219 0.0
N2885 N 0.91285 0.70147 0.32428 0.0
H2886 H 0.33648 0.92387 0.27365 0.0
H2887 H 0.3003 0.88189 0.3602 0.0
H2888 H 0.36104 0.88286 0.30192 0.0
H2889 H 0.27575 0.92498 0.33524 0.0
H2890 H 0.32015 0.87959 0.3362 0.0
H2891 H 0.31186 0.92214 0.29338 0.0
C2892 C 0.33661 0.91438 0.28386 0.0
C2893 C 0.35093 0.90367 0.28632 0.0
C2894 C 0.31038 0.88951 0.33584 0.0
C2895 C 0.32293 0.90161 0.3088 0.0
C2896 C 0.29902 0.89083 0.34958 0.0
C2897 C 0.28653 0.90383 0.34983 0.0
C2898 C 0.30943 0.90137 0.32226 0.0
C2899 C 0.2853 0.91486 0.33558 0.0
C2900 C 0.32259 0.91343 0.29512 0.0
C2901 C 0.3504 0.89157 0.29969 0.0
N2902 N 0.29679 0.91353 0.32243 0.0
N2903 N 0.33672 0.89097 0.31046 0.0
H2904 H 0.11561 0.63593 0.69611 0.0
H2905 H 0.07426 0.72376 0.66225 0.0
H2906 H 0.0744 0.66189 0.72277 0.0
H2907 H 0.11352 0.69479 0.63574 0.0
H2908 H 0.07632 0.7036 0.68648 0.0
H2909 H 0.11735 0.6598 0.67602 0.0
C2910 C 0.10696 0.64673 0.6978 0.0
C2911 C 0.09466 0.64681 0.711 0.0
C2912 C 0.08457 0.70179 0.67541 0.0
C2913 C 0.0965 0.67425 0.68784 0.0
C2914 C 0.08342 0.71329 0.6616 0.0
C2915 C 0.09357 0.71081 0.64687 0.0
C2916 C 0.096 0.68782 0.67444 0.0
C2917 C 0.10527 0.69708 0.64673 0.0
C2918 C 0.10797 0.66039 0.6863 0.0
C2919 C 0.08399 0.66128 0.7127 0.0
N2920 N 0.10607 0.68608 0.66023 0.0
N2921 N 0.08501 0.67437 0.7011 0.0
H2922 H 0.27507 0.07373 0.6624 0.0
H2923 H 0.36207 0.11627 0.69708 0.0
H2924 H 0.30296 0.11457 0.63707 0.0
H2925 H 0.33734 0.07352 0.72254 0.0
H2926 H 0.33794 0.11815 0.67733 0.0
H2927 H 0.29522 0.07564 0.68669 0.0
C2928 C 0.28529 0.08321 0.66203 0.0
C2929 C 0.2875 0.09384 0.6476 0.0
C2930 C 0.33767 0.1084 0.68728 0.0
C2931 C 0.31046 0.09611 0.67521 0.0
C2932 C 0.35148 0.10731 0.69858 0.0
C2933 C 0.35183 0.09454 0.71132 0.0
C2934 C 0.32409 0.09653 0.68855 0.0
C2935 C 0.33762 0.08348 0.71281 0.0
C2936 C 0.29678 0.08427 0.67586 0.0
C2937 C 0.3009 0.10594 0.6478 0.0
N2938 N 0.32438 0.08458 0.70139 0.0
N2939 N 0.3119 0.10665 0.66131 0.0
H2940 H 0.88212 0.30229 0.63614 0.0
H2941 H 0.92426 0.33596 0.72367 0.0
H2942 H 0.92442 0.27631 0.66102 0.0
H2943 H 0.8839 0.36186 0.69566 0.0
H2944 H 0.92216 0.31176 0.70344 0.0
H2945 H 0.88012 0.3218 0.66046 0.0
C2946 C 0.89095 0.30063 0.6468 0.0
C2947 C 0.90364 0.28782 0.64645 0.0
C2948 C 0.91367 0.32269 0.70187 0.0
C2949 C 0.90152 0.31031 0.67439 0.0
C2950 C 0.91484 0.33647 0.71341 0.0
C2951 C 0.90442 0.35104 0.71117 0.0
C2952 C 0.90194 0.32353 0.68813 0.0
C2953 C 0.89239 0.35101 0.69772 0.0
C2954 C 0.88979 0.31179 0.66073 0.0
C2955 C 0.91453 0.2861 0.66075 0.0
N2956 N 0.89157 0.33756 0.68668 0.0
N2957 N 0.91338 0.2974 0.67409 0.0
H2958 H 0.72365 0.92468 0.6618 0.0
H2959 H 0.63646 0.88263 0.69648 0.0
H2960 H 0.69564 0.88386 0.63652 0.0
H2961 H 0.66176 0.92487 0.72226 0.0
H2962 H 0.66051 0.88065 0.67664 0.0
H2963 H 0.70357 0.9228 0.68613 0.0
C2964 C 0.71342 0.91521 0.66146 0.0
C2965 C 0.71115 0.90458 0.64702 0.0
C2966 C 0.66093 0.8903 0.68668 0.0
C2967 C 0.68826 0.90237 0.67468 0.0
C2968 C 0.64716 0.89145 0.69802 0.0
C2969 C 0.647 0.90411 0.71088 0.0
C2970 C 0.67464 0.902 0.68802 0.0
C2971 C 0.66133 0.915 0.71244 0.0
C2972 C 0.70196 0.91417 0.67531 0.0
C2973 C 0.69774 0.8925 0.64726 0.0
N2974 N 0.67453 0.91385 0.70097 0.0
N2975 N 0.68677 0.89181 0.66078 0.0
H2976 H 0.36268 0.11549 0.30229 0.0
H2977 H 0.27479 0.075 0.33704 0.0
H2978 H 0.33648 0.07388 0.27639 0.0
H2979 H 0.30378 0.115 0.36253 0.0
H2980 H 0.29481 0.07663 0.31266 0.0
H2981 H 0.33875 0.11783 0.32223 0.0
C2982 C 0.35181 0.10688 0.30075 0.0
C2983 C 0.35168 0.09429 0.28782 0.0
C2984 C 0.29665 0.08514 0.32354 0.0
C2985 C 0.32417 0.09681 0.3108 0.0
C2986 C 0.28522 0.08425 0.33742 0.0
C2987 C 0.28778 0.09471 0.35193 0.0
C2988 C 0.31061 0.09664 0.3242 0.0
C2989 C 0.30145 0.1065 0.35174 0.0
C2990 C 0.33811 0.10823 0.31215 0.0
C2991 C 0.33713 0.08368 0.28627 0.0
N2992 N 0.31238 0.10705 0.33817 0.0
N2993 N 0.32401 0.08503 0.29779 0.0
H2994 H 0.92499 0.27461 0.33584 0.0
H2995 H 0.88176 0.36125 0.3014 0.0
H2996 H 0.88422 0.30228 0.36144 0.0
H2997 H 0.92454 0.33688 0.27573 0.0
H2998 H 0.88009 0.33707 0.32111 0.0
H2999 H 0.92277 0.29467 0.31151 0.0
C3000 C 0.91546 0.28476 0.33626 0.0
C3001 C 0.90495 0.28695 0.35078 0.0
C3002 C 0.8898 0.33688 0.31112 0.0
C3003 C 0.90233 0.3098 0.32313 0.0
C3004 C 0.89077 0.35073 0.29985 0.0
C3005 C 0.90349 0.35119 0.28707 0.0
C3006 C 0.90175 0.32341 0.30979 0.0
C3007 C 0.91462 0.33706 0.2855 0.0
C3008 C 0.91422 0.2962 0.32241 0.0
C3009 C 0.89278 0.30025 0.35064 0.0
N3010 N 0.91364 0.3238 0.2969 0.0
N3011 N 0.89189 0.3112 0.33711 0.0
H3012 H 0.72343 0.9244 0.33662 0.0
H3013 H 0.63607 0.88267 0.30192 0.0
H3014 H 0.69505 0.88395 0.36205 0.0
H3015 H 0.66138 0.92497 0.27628 0.0
H3016 H 0.66012 0.88061 0.32174 0.0
H3017 H 0.70334 0.92258 0.31228 0.0
C3018 C 0.71311 0.91502 0.337 0.0
C3019 C 0.71074 0.90448 0.35147 0.0
C3020 C 0.66053 0.89031 0.31174 0.0
C3021 C 0.68785 0.90233 0.32381 0.0
C3022 C 0.64676 0.8915 0.3004 0.0
C3023 C 0.64661 0.90419 0.28759 0.0
C3024 C 0.67425 0.902 0.31044 0.0
C3025 C 0.66095 0.91508 0.28607 0.0
C3026 C 0.70165 0.91402 0.32314 0.0
C3027 C 0.69722 0.89252 0.35128 0.0
N3028 N 0.67415 0.91388 0.29753 0.0
N3029 N 0.68626 0.89186 0.33775 0.0
H3030 H 0.07343 0.66261 0.27463 0.0
H3031 H 0.11602 0.69732 0.36154 0.0
H3032 H 0.11456 0.6375 0.30224 0.0
H3033 H 0.07329 0.72276 0.33684 0.0
H3034 H 0.11801 0.67768 0.33732 0.0
H3035 H 0.07541 0.68694 0.29472 0.0
C3036 C 0.08299 0.66231 0.28477 0.0
C3037 C 0.09367 0.64791 0.28694 0.0
C3038 C 0.10824 0.6876 0.33707 0.0
C3039 C 0.096 0.67557 0.30983 0.0
C3040 C 0.10709 0.69883 0.35094 0.0
C3041 C 0.09429 0.71153 0.35132 0.0
C3042 C 0.0964 0.68888 0.32349 0.0
C3043 C 0.08327 0.71305 0.33709 0.0
C3044 C 0.08409 0.67616 0.29623 0.0
C3045 C 0.10587 0.6482 0.30023 0.0
N3046 N 0.08442 0.70169 0.32381 0.0
N3047 N 0.10661 0.66172 0.3112 0.0
H3048 H 0.33675 0.92391 0.72225 0.0
H3049 H 0.3031 0.88245 0.63435 0.0
H3050 H 0.36277 0.88385 0.69392 0.0
H3051 H 0.27646 0.92376 0.66018 0.0
H3052 H 0.32297 0.88058 0.65839 0.0
H3053 H 0.3126 0.92194 0.70196 0.0
C3054 C 0.3373 0.91459 0.7119 0.0
C3055 C 0.35189 0.9042 0.70962 0.0
C3056 C 0.31274 0.89001 0.65892 0.0
C3057 C 0.32442 0.90188 0.68648 0.0
C3058 C 0.30137 0.89109 0.64516 0.0
C3059 C 0.28825 0.90345 0.64516 0.0
C3060 C 0.31114 0.90147 0.6728 0.0
C3061 C 0.28648 0.91412 0.65963 0.0
C3062 C 0.32354 0.9135 0.70033 0.0
C3063 C 0.35191 0.8923 0.69605 0.0
N3064 N 0.29796 0.91303 0.67282 0.0
N3065 N 0.33847 0.89156 0.68497 0.0
H3066 H 0.11663 0.36237 0.6969 0.0
H3067 H 0.07462 0.27489 0.66276 0.0
H3068 H 0.07494 0.33678 0.72326 0.0
H3069 H 0.11484 0.30318 0.63688 0.0
H3070 H 0.0767 0.29502 0.68704 0.0
H3071 H 0.11843 0.33836 0.67697 0.0
C3072 C 0.10789 0.35162 0.69856 0.0
C3073 C 0.09545 0.35168 0.71161 0.0
C3074 C 0.08516 0.29668 0.6761 0.0
C3075 C 0.09733 0.32409 0.68865 0.0
C3076 C 0.084 0.28519 0.66227 0.0
C3077 C 0.0944 0.28752 0.64769 0.0
C3078 C 0.09685 0.31047 0.67529 0.0
C3079 C 0.10637 0.30103 0.64774 0.0
C3080 C 0.10893 0.33787 0.68716 0.0
C3081 C 0.08465 0.33728 0.71329 0.0
N3082 N 0.10718 0.31202 0.66125 0.0
N3083 N 0.0857 0.32412 0.70177 0.0
H3084 H 0.69716 0.11663 0.6371 0.0
H3085 H 0.6622 0.07432 0.72402 0.0
H3086 H 0.7226 0.07404 0.66205 0.0
H3087 H 0.63677 0.11479 0.69575 0.0
H3088 H 0.68661 0.0763 0.70405 0.0
H3089 H 0.67732 0.11856 0.66114 0.0
C3090 C 0.69863 0.10771 0.64772 0.0
C3091 C 0.71138 0.09497 0.64746 0.0
C3092 C 0.67573 0.08483 0.70236 0.0
C3093 C 0.68851 0.09701 0.67508 0.0
C3094 C 0.66183 0.08373 0.71375 0.0
C3095 C 0.64734 0.09423 0.71138 0.0
C3096 C 0.67509 0.09657 0.68863 0.0
C3097 C 0.64755 0.10625 0.69792 0.0
C3098 C 0.68728 0.10883 0.66148 0.0
C3099 C 0.71285 0.08398 0.66171 0.0
N3100 N 0.66113 0.107 0.68703 0.0
N3101 N 0.70137 0.08509 0.67489 0.0
H3102 H 0.92231 0.72339 0.66244 0.0
H3103 H 0.88196 0.63498 0.69598 0.0
H3104 H 0.88297 0.69427 0.63609 0.0
H3105 H 0.92264 0.66158 0.72292 0.0
H3106 H 0.8798 0.65895 0.67606 0.0
H3107 H 0.92039 0.70323 0.68668 0.0
C3108 C 0.91316 0.71289 0.66183 0.0
C3109 C 0.90297 0.71035 0.64713 0.0
C3110 C 0.88915 0.65966 0.68637 0.0
C3111 C 0.9007 0.68736 0.6747 0.0
C3112 C 0.8904 0.64594 0.69776 0.0
C3113 C 0.90268 0.64618 0.71097 0.0
C3114 C 0.90038 0.67373 0.68803 0.0
C3115 C 0.91308 0.66084 0.71282 0.0
C3116 C 0.91209 0.70139 0.67564 0.0
C3117 C 0.89127 0.69659 0.64704 0.0
N3118 N 0.91185 0.67399 0.70131 0.0
N3119 N 0.89056 0.68559 0.66053 0.0
H3120 H 0.27521 0.336 0.0755 0.0
H3121 H 0.36298 0.30201 0.11675 0.0
H3122 H 0.30326 0.36141 0.11621 0.0
H3123 H 0.33736 0.27585 0.07495 0.0
H3124 H 0.33884 0.32169 0.11893 0.0
H3125 H 0.29547 0.31183 0.07721 0.0
C3126 C 0.28548 0.33641 0.08492 0.0
C3127 C 0.28771 0.35084 0.09556 0.0
C3128 C 0.33837 0.31161 0.10933 0.0
C3129 C 0.31081 0.32335 0.09757 0.0
C3130 C 0.3522 0.30035 0.10806 0.0
C3131 C 0.35229 0.28743 0.09548 0.0
C3132 C 0.32453 0.31012 0.09781 0.0
C3133 C 0.33784 0.28573 0.08476 0.0
C3134 C 0.29704 0.32264 0.08586 0.0
C3135 C 0.30118 0.35068 0.10757 0.0
N3136 N 0.32459 0.29711 0.08602 0.0
N3137 N 0.31225 0.33724 0.10815 0.0
H3138 H 0.36165 0.6972 0.88164 0.0
H3139 H 0.27488 0.66265 0.9246 0.0
H3140 H 0.33689 0.72304 0.9241 0.0
H3141 H 0.30239 0.63726 0.88359 0.0
H3142 H 0.29494 0.68699 0.92243 0.0
H3143 H 0.3375 0.67742 0.87987 0.0
C3144 C 0.35105 0.69877 0.89055 0.0
C3145 C 0.35139 0.71163 0.90321 0.0
C3146 C 0.29644 0.67615 0.91382 0.0
C3147 C 0.32364 0.68883 0.90136 0.0
C3148 C 0.28499 0.66228 0.91503 0.0
C3149 C 0.28713 0.64781 0.90443 0.0
C3150 C 0.31001 0.67549 0.90188 0.0
C3151 C 0.3004 0.64802 0.89221 0.0
C3152 C 0.33722 0.68746 0.88953 0.0
C3153 C 0.33717 0.71322 0.91422 0.0
N3154 N 0.31136 0.66156 0.89136 0.0
N3155 N 0.32392 0.70178 0.91319 0.0
H3156 H 0.3033 0.36335 0.88385 0.0
H3157 H 0.33677 0.27508 0.92446 0.0
H3158 H 0.27663 0.33724 0.925 0.0
H3159 H 0.36284 0.30376 0.88465 0.0
H3160 H 0.31266 0.2954 0.92272 0.0
H3161 H 0.3231 0.33931 0.88174 0.0
C3162 C 0.30156 0.35248 0.89241 0.0
C3163 C 0.28844 0.3524 0.9048 0.0
C3164 C 0.32361 0.2971 0.91428 0.0
C3165 C 0.31127 0.32475 0.90253 0.0
C3166 C 0.33734 0.28551 0.91524 0.0
C3167 C 0.35193 0.28788 0.90485 0.0
C3168 C 0.32452 0.31105 0.9028 0.0
C3169 C 0.35198 0.30156 0.89309 0.0
C3170 C 0.31288 0.33871 0.89118 0.0
C3171 C 0.28665 0.33785 0.91535 0.0
N3172 N 0.33857 0.31266 0.89248 0.0
N3173 N 0.2981 0.32465 0.91412 0.0
H3174 H 0.66235 0.27451 0.92412 0.0
H3175 H 0.69672 0.36115 0.88079 0.0
H3176 H 0.63675 0.30202 0.88323 0.0
H3177 H 0.72252 0.33669 0.92344 0.0
H3178 H 0.67707 0.3369 0.87904 0.0
H3179 H 0.68673 0.2945 0.92175 0.0
C3180 C 0.66195 0.2846 0.91453 0.0
C3181 C 0.64741 0.28678 0.90404 0.0
C3182 C 0.68707 0.33671 0.88874 0.0
C3183 C 0.67512 0.30956 0.90125 0.0
C3184 C 0.69831 0.35059 0.88975 0.0
C3185 C 0.7111 0.35105 0.90246 0.0
C3186 C 0.68845 0.32319 0.90065 0.0
C3187 C 0.71274 0.33688 0.91353 0.0
C3188 C 0.67583 0.29601 0.9132 0.0
C3189 C 0.64757 0.30002 0.89178 0.0
N3190 N 0.70136 0.32358 0.91252 0.0
N3191 N 0.66113 0.31094 0.89082 0.0
H3192 H 0.69437 0.63526 0.88335 0.0
H3193 H 0.66192 0.72376 0.92432 0.0
H3194 H 0.72202 0.66152 0.92379 0.0
H3195 H 0.6353 0.69532 0.88468 0.0
H3196 H 0.68588 0.70328 0.92233 0.0
H3197 H 0.67457 0.65933 0.88158 0.0
C3198 C 0.69633 0.64616 0.89183 0.0
C3199 C 0.70973 0.64628 0.90391 0.0
C3200 C 0.67484 0.70166 0.91398 0.0
C3201 C 0.68691 0.67397 0.90204 0.0
C3202 C 0.6612 0.71335 0.91509 0.0
C3203 C 0.6465 0.71109 0.90483 0.0
C3204 C 0.67374 0.68774 0.90249 0.0
C3205 C 0.64625 0.69743 0.89304 0.0
C3206 C 0.685 0.65995 0.8908 0.0
C3207 C 0.71178 0.66088 0.91437 0.0
N3208 N 0.65958 0.68624 0.89229 0.0
N3209 N 0.70034 0.67409 0.91334 0.0
H3210 H 0.66284 0.72352 0.07493 0.0
H3211 H 0.69748 0.63604 0.11627 0.0
H3212 H 0.63717 0.6948 0.11498 0.0
H3213 H 0.72329 0.66169 0.0743 0.0
H3214 H 0.67756 0.66 0.11837 0.0
H3215 H 0.68719 0.70349 0.07677 0.0
C3216 C 0.6624 0.71314 0.08422 0.0
C3217 C 0.64786 0.71067 0.09465 0.0
C3218 C 0.68762 0.66051 0.10874 0.0
C3219 C 0.67555 0.68784 0.09682 0.0
C3220 C 0.69901 0.64679 0.10753 0.0
C3221 C 0.7119 0.64676 0.09492 0.0
C3222 C 0.68895 0.67429 0.09715 0.0
C3223 C 0.71345 0.66117 0.08414 0.0
C3224 C 0.67627 0.70171 0.08524 0.0
C3225 C 0.64799 0.69707 0.1065 0.0
N3226 N 0.70193 0.67431 0.08535 0.0
N3227 N 0.66154 0.68614 0.10717 0.0
H3228 H 0.33715 0.72318 0.07438 0.0
H3229 H 0.30351 0.63548 0.11627 0.0
H3230 H 0.36351 0.6947 0.11412 0.0
H3231 H 0.2767 0.66116 0.07497 0.0
H3232 H 0.32347 0.65949 0.11795 0.0
H3233 H 0.31292 0.70299 0.07658 0.0
C3234 C 0.33776 0.71282 0.08368 0.0
C3235 C 0.35246 0.71046 0.09391 0.0
C3236 C 0.31318 0.65999 0.10856 0.0
C3237 C 0.32491 0.68745 0.09649 0.0
C3238 C 0.30176 0.64625 0.10759 0.0
C3239 C 0.28857 0.64621 0.09529 0.0
C3240 C 0.31156 0.67381 0.09704 0.0
C3241 C 0.28678 0.66064 0.08456 0.0
C3242 C 0.32396 0.7013 0.0849 0.0
C3243 C 0.35256 0.69688 0.10578 0.0
N3244 N 0.29831 0.67381 0.08554 0.0
N3245 N 0.33907 0.68586 0.10665 0.0
H3246 H 0.69642 0.36244 0.11495 0.0
H3247 H 0.6626 0.27412 0.07453 0.0
H3248 H 0.72259 0.33656 0.07336 0.0
H3249 H 0.63679 0.30284 0.11446 0.0
H3250 H 0.68675 0.29447 0.07611 0.0
H3251 H 0.6767 0.33831 0.11726 0.0
C3252 C 0.69808 0.35161 0.10633 0.0
C3253 C 0.71101 0.35162 0.09377 0.0
C3254 C 0.67585 0.29617 0.08462 0.0
C3255 C 0.68828 0.32387 0.09625 0.0
C3256 C 0.6621 0.28457 0.08375 0.0
C3257 C 0.64757 0.28695 0.09421 0.0
C3258 C 0.67503 0.31014 0.09608 0.0
C3259 C 0.64761 0.30064 0.10596 0.0
C3260 C 0.6868 0.33778 0.10767 0.0
C3261 C 0.7127 0.3371 0.08315 0.0
N3262 N 0.66104 0.31175 0.10649 0.0
N3263 N 0.7013 0.32385 0.08449 0.0
H3264 H 0.57465 0.83712 0.77525 0.0
H3265 H 0.61638 0.803 0.86278 0.0
H3266 H 0.61481 0.86301 0.80364 0.0
H3267 H 0.57434 0.77695 0.83742 0.0
H3268 H 0.61833 0.82283 0.83872 0.0
H3269 H 0.57656 0.81289 0.79543 0.0
C3270 C 0.58398 0.83763 0.78559 0.0
C3271 C 0.59442 0.8522 0.78792 0.0
C3272 C 0.60872 0.81274 0.83829 0.0
C3273 C 0.59668 0.82464 0.81093 0.0
C3274 C 0.60759 0.80139 0.85207 0.0
C3275 C 0.595 0.78846 0.85221 0.0
C3276 C 0.59707 0.81131 0.82456 0.0
C3277 C 0.58416 0.78683 0.83785 0.0
C3278 C 0.58504 0.82383 0.7971 0.0
C3279 C 0.60633 0.85217 0.80148 0.0
N3280 N 0.58529 0.79829 0.82465 0.0
N3281 N 0.60704 0.83868 0.8125 0.0
H3282 H 0.19493 0.61525 0.86397 0.0
H3283 H 0.16126 0.57392 0.77598 0.0
H3284 H 0.22179 0.57419 0.83797 0.0
H3285 H 0.13523 0.61389 0.80443 0.0
H3286 H 0.18535 0.57574 0.79636 0.0
H3287 H 0.17489 0.61694 0.84007 0.0
C3288 C 0.19667 0.60661 0.85316 0.0
C3289 C 0.20992 0.59439 0.85307 0.0
C3290 C 0.17441 0.58419 0.79801 0.0
C3291 C 0.18682 0.59618 0.82557 0.0
C3292 C 0.16068 0.58319 0.78638 0.0
C3293 C 0.14612 0.59361 0.78865 0.0
C3294 C 0.17352 0.59575 0.81189 0.0
C3295 C 0.14607 0.60542 0.8023 0.0
C3296 C 0.1852 0.6076 0.83947 0.0
C3297 C 0.21167 0.58373 0.83859 0.0
N3298 N 0.15948 0.60608 0.81342 0.0
N3299 N 0.20011 0.58473 0.82546 0.0
H3300 H 0.38304 0.136 0.80281 0.0
H3301 H 0.42417 0.22373 0.83733 0.0
H3302 H 0.42468 0.16193 0.77673 0.0
H3303 H 0.3841 0.19502 0.86299 0.0
H3304 H 0.42241 0.20361 0.81303 0.0
H3305 H 0.38098 0.15992 0.82279 0.0
C3306 C 0.39172 0.1468 0.80123 0.0
C3307 C 0.40423 0.14686 0.78824 0.0
C3308 C 0.41392 0.20185 0.82393 0.0
C3309 C 0.40204 0.17437 0.81127 0.0
C3310 C 0.41489 0.21333 0.83777 0.0
C3311 C 0.40443 0.2109 0.8523 0.0
C3312 C 0.40235 0.18796 0.82465 0.0
C3313 C 0.39259 0.19727 0.85218 0.0
C3314 C 0.39053 0.1605 0.81266 0.0
C3315 C 0.41493 0.16134 0.78665 0.0
N3316 N 0.39197 0.18629 0.83865 0.0
N3317 N 0.41374 0.17446 0.7982 0.0
H3318 H 0.83713 0.425 0.77437 0.0
H3319 H 0.8014 0.38232 0.86076 0.0
H3320 H 0.86154 0.3834 0.80189 0.0
H3321 H 0.77637 0.42526 0.836 0.0
H3322 H 0.8212 0.38029 0.8367 0.0
H3323 H 0.81262 0.42318 0.79424 0.0
C3324 C 0.83724 0.41537 0.78444 0.0
C3325 C 0.85149 0.40451 0.78666 0.0
C3326 C 0.81134 0.39012 0.8364 0.0
C3327 C 0.82364 0.40235 0.8093 0.0
C3328 C 0.80002 0.3913 0.85018 0.0
C3329 C 0.78739 0.40416 0.85049 0.0
C3330 C 0.81023 0.40201 0.82285 0.0
C3331 C 0.78603 0.41523 0.83629 0.0
C3332 C 0.82329 0.41436 0.79578 0.0
C3333 C 0.85096 0.39222 0.79985 0.0
N3334 N 0.79749 0.41406 0.8231 0.0
N3335 N 0.83734 0.39157 0.81071 0.0
H3336 H 0.61697 0.19643 0.13774 0.0
H3337 H 0.5736 0.16193 0.22431 0.0
H3338 H 0.57399 0.22192 0.16195 0.0
H3339 H 0.61491 0.13672 0.19707 0.0
H3340 H 0.57573 0.18621 0.20418 0.0
H3341 H 0.61871 0.17684 0.16201 0.0
C3342 C 0.60793 0.19797 0.14825 0.0
C3343 C 0.59514 0.21066 0.14772 0.0
C3344 C 0.58441 0.17541 0.20276 0.0
C3345 C 0.59696 0.18807 0.17559 0.0
C3346 C 0.58323 0.16159 0.21425 0.0
C3347 C 0.59392 0.14719 0.21219 0.0
C3348 C 0.59643 0.17478 0.18926 0.0
C3349 C 0.60621 0.14743 0.19899 0.0
C3350 C 0.60894 0.18676 0.16214 0.0
C3351 C 0.58397 0.21222 0.16182 0.0
N3352 N 0.60704 0.16092 0.188 0.0
N3353 N 0.58499 0.20087 0.17513 0.0
H3354 H 0.83612 0.57379 0.22404 0.0
H3355 H 0.80362 0.61554 0.13593 0.0
H3356 H 0.862 0.61465 0.19667 0.0
H3357 H 0.77694 0.57366 0.16087 0.0
H3358 H 0.82295 0.61752 0.1604 0.0
H3359 H 0.81227 0.5756 0.20337 0.0
C3360 C 0.83669 0.58326 0.21383 0.0
C3361 C 0.85116 0.59391 0.21191 0.0
C3362 C 0.81283 0.60794 0.16064 0.0
C3363 C 0.82407 0.59604 0.18834 0.0
C3364 C 0.80178 0.60678 0.14662 0.0
C3365 C 0.78881 0.59424 0.14626 0.0
C3366 C 0.81107 0.59636 0.17439 0.0
C3367 C 0.78687 0.58343 0.1606 0.0
C3368 C 0.82312 0.58426 0.20204 0.0
C3369 C 0.85123 0.60599 0.19851 0.0
N3370 N 0.79805 0.58459 0.17404 0.0
N3371 N 0.83798 0.60663 0.18721 0.0
H3372 H 0.42579 0.77435 0.16169 0.0
H3373 H 0.38292 0.86117 0.19607 0.0
H3374 H 0.38457 0.8017 0.13645 0.0
H3375 H 0.42521 0.83635 0.22212 0.0
H3376 H 0.38117 0.83702 0.17633 0.0
H3377 H 0.42371 0.79446 0.18599 0.0
C3378 C 0.41619 0.78443 0.16135 0.0
C3379 C 0.40551 0.78652 0.14693 0.0
C3380 C 0.39079 0.83673 0.1864 0.0
C3381 C 0.40307 0.80945 0.17454 0.0
C3382 C 0.39181 0.85056 0.19769 0.0
C3383 C 0.40441 0.85088 0.2106 0.0
C3384 C 0.40257 0.82312 0.18784 0.0
C3385 C 0.41539 0.83664 0.21226 0.0
C3386 C 0.41503 0.79591 0.17518 0.0
C3387 C 0.39326 0.79975 0.14717 0.0
N3388 N 0.41437 0.82339 0.20084 0.0
N3389 N 0.39247 0.81074 0.16067 0.0
H3390 H 0.22339 0.42394 0.16282 0.0
H3391 H 0.13492 0.38327 0.19598 0.0
H3392 H 0.19474 0.38419 0.13658 0.0
H3393 H 0.16084 0.42456 0.22268 0.0
H3394 H 0.15899 0.38128 0.17618 0.0
H3395 H 0.20287 0.42231 0.18679 0.0
C3396 C 0.21292 0.41476 0.16218 0.0
C3397 C 0.21063 0.40435 0.14759 0.0
C3398 C 0.15953 0.39073 0.18641 0.0
C3399 C 0.18723 0.40241 0.17485 0.0
C3400 C 0.14575 0.39189 0.19773 0.0
C3401 C 0.14577 0.40426 0.21086 0.0
C3402 C 0.17346 0.40214 0.18805 0.0
C3403 C 0.16027 0.4149 0.21265 0.0
C3404 C 0.20121 0.41386 0.17583 0.0
C3405 C 0.19688 0.39264 0.14745 0.0
N3406 N 0.17349 0.41373 0.20122 0.0
N3407 N 0.18568 0.39208 0.16079 0.0
H3408 H 0.79947 0.61679 0.85993 0.0
H3409 H 0.83656 0.57207 0.77515 0.0
H3410 H 0.7758 0.57216 0.83678 0.0
H3411 H 0.86039 0.61456 0.80192 0.0
H3412 H 0.81187 0.57409 0.79478 0.0
H3413 H 0.8193 0.61851 0.83585 0.0
C3414 C 0.79838 0.60739 0.84969 0.0
C3415 C 0.78615 0.59414 0.85048 0.0
C3416 C 0.82245 0.58305 0.7962 0.0
C3417 C 0.80902 0.59592 0.82284 0.0
C3418 C 0.83651 0.58193 0.78501 0.0
C3419 C 0.85064 0.593 0.78708 0.0
C3420 C 0.82257 0.59539 0.80943 0.0
C3421 C 0.8499 0.60558 0.8 0.0
C3422 C 0.80972 0.60838 0.83591 0.0
C3423 C 0.78514 0.5825 0.8367 0.0
N3424 N 0.83618 0.60634 0.81071 0.0
N3425 N 0.79662 0.58351 0.82351 0.0
H3426 H 0.38272 0.86265 0.80148 0.0
H3427 H 0.42437 0.77535 0.83625 0.0
H3428 H 0.42466 0.83709 0.77558 0.0
H3429 H 0.38455 0.80415 0.8621 0.0
H3430 H 0.42246 0.79537 0.81189 0.0
H3431 H 0.38086 0.8388 0.82156 0.0
C3432 C 0.3915 0.85194 0.79996 0.0
C3433 C 0.40404 0.85197 0.78699 0.0
C3434 C 0.41406 0.79717 0.82285 0.0
C3435 C 0.40208 0.82456 0.81014 0.0
C3436 C 0.41512 0.78575 0.83673 0.0
C3437 C 0.40477 0.78824 0.85132 0.0
C3438 C 0.40251 0.81105 0.8236 0.0
C3439 C 0.39296 0.80187 0.85124 0.0
C3440 C 0.39043 0.83829 0.81145 0.0
C3441 C 0.41488 0.83762 0.78548 0.0
N3442 N 0.39224 0.81279 0.83768 0.0
N3443 N 0.4138 0.82453 0.79709 0.0
H3444 H 0.22374 0.42505 0.83791 0.0
H3445 H 0.13651 0.38275 0.80357 0.0
H3446 H 0.19611 0.38395 0.86313 0.0
H3447 H 0.1616 0.42501 0.77764 0.0
H3448 H 0.16063 0.38088 0.82334 0.0
H3449 H 0.2035 0.4232 0.81371 0.0
C3450 C 0.21356 0.41553 0.83827 0.0
C3451 C 0.21145 0.40481 0.85266 0.0
C3452 C 0.16098 0.39052 0.81329 0.0
C3453 C 0.18837 0.40263 0.82514 0.0
C3454 C 0.14717 0.39161 0.80198 0.0
C3455 C 0.14694 0.40422 0.78909 0.0
C3456 C 0.17467 0.40225 0.81187 0.0
C3457 C 0.16123 0.41516 0.78749 0.0
C3458 C 0.20201 0.4145 0.82449 0.0
C3459 C 0.19809 0.39266 0.85244 0.0
N3460 N 0.17447 0.41407 0.79892 0.0
N3461 N 0.18703 0.39199 0.83898 0.0
H3462 H 0.61707 0.13749 0.80164 0.0
H3463 H 0.57377 0.22369 0.83707 0.0
H3464 H 0.57402 0.1619 0.77646 0.0
H3465 H 0.61463 0.19581 0.86231 0.0
H3466 H 0.57597 0.20389 0.81253 0.0
H3467 H 0.61882 0.16154 0.82151 0.0
C3468 C 0.60802 0.148 0.80023 0.0
C3469 C 0.5952 0.14758 0.78755 0.0
C3470 C 0.58454 0.20225 0.82339 0.0
C3471 C 0.59703 0.1752 0.81046 0.0
C3472 C 0.58331 0.21355 0.83736 0.0
C3473 C 0.59386 0.21122 0.85184 0.0
C3474 C 0.59646 0.18867 0.82394 0.0
C3475 C 0.60605 0.19794 0.85154 0.0
C3476 C 0.60904 0.16177 0.8116 0.0
C3477 C 0.58402 0.16169 0.78615 0.0
N3478 N 0.60692 0.18714 0.8379 0.0
N3479 N 0.58504 0.17487 0.79765 0.0
H3480 H 0.83584 0.42422 0.22312 0.0
H3481 H 0.80223 0.38269 0.13526 0.0
H3482 H 0.86153 0.38373 0.19511 0.0
H3483 H 0.77614 0.42475 0.16043 0.0
H3484 H 0.82181 0.38064 0.15951 0.0
H3485 H 0.81177 0.42246 0.20271 0.0
C3486 C 0.83633 0.41484 0.21283 0.0
C3487 C 0.8508 0.40428 0.21066 0.0
C3488 C 0.81176 0.39027 0.15985 0.0
C3489 C 0.82344 0.40219 0.18739 0.0
C3490 C 0.80056 0.39147 0.14596 0.0
C3491 C 0.78769 0.40409 0.14571 0.0
C3492 C 0.81026 0.40189 0.1736 0.0
C3493 C 0.78598 0.41491 0.16007 0.0
C3494 C 0.82262 0.41387 0.20118 0.0
C3495 C 0.85075 0.39232 0.19714 0.0
N3496 N 0.7973 0.41372 0.17339 0.0
N3497 N 0.83737 0.39169 0.186 0.0
H3498 H 0.61655 0.86222 0.19658 0.0
H3499 H 0.57517 0.77454 0.16232 0.0
H3500 H 0.57425 0.83694 0.22224 0.0
H3501 H 0.61595 0.80259 0.13706 0.0
H3502 H 0.57686 0.79478 0.18654 0.0
H3503 H 0.61884 0.83798 0.177 0.0
C3504 C 0.60777 0.85149 0.19815 0.0
C3505 C 0.59501 0.85171 0.21089 0.0
C3506 C 0.58553 0.79635 0.17576 0.0
C3507 C 0.59747 0.82384 0.18833 0.0
C3508 C 0.5846 0.78481 0.16196 0.0
C3509 C 0.59526 0.78705 0.14756 0.0
C3510 C 0.59726 0.81012 0.17509 0.0
C3511 C 0.60728 0.80052 0.14777 0.0
C3512 C 0.6091 0.83761 0.18696 0.0
C3513 C 0.58419 0.83732 0.2125 0.0
N3514 N 0.60786 0.81157 0.16124 0.0
N3515 N 0.58552 0.82402 0.20117 0.0
H3516 H 0.13554 0.61562 0.19575 0.0
H3517 H 0.22333 0.57369 0.16267 0.0
H3518 H 0.16086 0.57415 0.22262 0.0
H3519 H 0.19588 0.61453 0.13693 0.0
H3520 H 0.20283 0.57558 0.18665 0.0
H3521 H 0.15976 0.61741 0.17611 0.0
C3522 C 0.14627 0.60692 0.19757 0.0
C3523 C 0.14608 0.59455 0.2107 0.0
C3524 C 0.20144 0.58422 0.17581 0.0
C3525 C 0.17394 0.59644 0.18807 0.0
C3526 C 0.21313 0.58317 0.16215 0.0
C3527 C 0.21115 0.59381 0.14769 0.0
C3528 C 0.18777 0.59603 0.17494 0.0
C3529 C 0.19777 0.60589 0.1477 0.0
C3530 C 0.16015 0.60796 0.18634 0.0
C3531 C 0.16047 0.5838 0.21259 0.0
N3532 N 0.18656 0.60658 0.16102 0.0
N3533 N 0.17377 0.58485 0.20124 0.0
H3534 H 0.42556 0.22316 0.16248 0.0
H3535 H 0.38226 0.13647 0.19688 0.0
H3536 H 0.38421 0.1959 0.13726 0.0
H3537 H 0.42523 0.16075 0.22244 0.0
H3538 H 0.38052 0.16073 0.17728 0.0
H3539 H 0.42349 0.20299 0.18672 0.0
C3540 C 0.41593 0.21308 0.16213 0.0
C3541 C 0.40521 0.21104 0.14774 0.0
C3542 C 0.39029 0.16088 0.18722 0.0
C3543 C 0.40277 0.18805 0.17529 0.0
C3544 C 0.3913 0.14699 0.19843 0.0
C3545 C 0.40408 0.14648 0.21115 0.0
C3546 C 0.40226 0.17436 0.18855 0.0
C3547 C 0.41525 0.1606 0.21272 0.0
C3548 C 0.41478 0.20157 0.17594 0.0
C3549 C 0.39293 0.19782 0.14796 0.0
N3550 N 0.41423 0.17391 0.20137 0.0
N3551 N 0.39213 0.1868 0.16143 0.0
H3552 H 0.83612 0.77497 0.57446 0.0
H3553 H 0.80259 0.86311 0.61532 0.0
H3554 H 0.86185 0.80325 0.6148 0.0
H3555 H 0.77601 0.83722 0.57395 0.0
H3556 H 0.82235 0.83904 0.61739 0.0
H3557 H 0.81207 0.79538 0.57606 0.0
C3558 C 0.83663 0.78533 0.58376 0.0
C3559 C 0.8511 0.78756 0.59434 0.0
C3560 C 0.81216 0.8385 0.6079 0.0
C3561 C 0.82376 0.81084 0.59625 0.0
C3562 C 0.80086 0.85229 0.6067 0.0
C3563 C 0.78778 0.85228 0.59427 0.0
C3564 C 0.81055 0.82458 0.59649 0.0
C3565 C 0.78601 0.83777 0.58364 0.0
C3566 C 0.82293 0.79698 0.58465 0.0
C3567 C 0.85108 0.80116 0.60621 0.0
N3568 N 0.79743 0.82455 0.58485 0.0
N3569 N 0.8377 0.81231 0.60675 0.0
H3570 H 0.83726 0.22371 0.4241 0.0
H3571 H 0.80175 0.1369 0.38195 0.0
H3572 H 0.862 0.19577 0.38296 0.0
H3573 H 0.77691 0.16166 0.42501 0.0
H3574 H 0.82147 0.16105 0.37974 0.0
H3575 H 0.8128 0.20375 0.42235 0.0
C3576 C 0.83746 0.21352 0.41458 0.0
C3577 C 0.85179 0.21123 0.40383 0.0
C3578 C 0.81166 0.16132 0.38963 0.0
C3579 C 0.82397 0.18849 0.40176 0.0
C3580 C 0.80039 0.1475 0.39091 0.0
C3581 C 0.78785 0.14715 0.40386 0.0
C3582 C 0.81058 0.1749 0.4015 0.0
C3583 C 0.7865 0.16138 0.41491 0.0
C3584 C 0.82353 0.20214 0.41362 0.0
C3585 C 0.85136 0.19788 0.39169 0.0
N3586 N 0.79791 0.17462 0.41363 0.0
N3587 N 0.83776 0.18698 0.39108 0.0
H3588 H 0.80135 0.8616 0.38206 0.0
H3589 H 0.83603 0.77507 0.42528 0.0
H3590 H 0.77576 0.8371 0.42484 0.0
H3591 H 0.86132 0.80261 0.38418 0.0
H3592 H 0.81167 0.79507 0.42311 0.0
H3593 H 0.82106 0.83745 0.38031 0.0
C3594 C 0.79982 0.85106 0.39105 0.0
C3595 C 0.78707 0.85148 0.40379 0.0
C3596 C 0.8225 0.79658 0.41448 0.0
C3597 C 0.80978 0.82373 0.40197 0.0
C3598 C 0.83637 0.78518 0.41569 0.0
C3599 C 0.85082 0.78736 0.40507 0.0
C3600 C 0.82312 0.81013 0.40251 0.0
C3601 C 0.85058 0.8006 0.39282 0.0
C3602 C 0.81109 0.83723 0.39004 0.0
C3603 C 0.78551 0.83732 0.4149 0.0
N3604 N 0.83703 0.81152 0.39197 0.0
N3605 N 0.79692 0.82407 0.41389 0.0
H3606 H 0.13532 0.80263 0.38269 0.0
H3607 H 0.22302 0.83729 0.42372 0.0
H3608 H 0.16095 0.77688 0.42469 0.0
H3609 H 0.19463 0.86251 0.38319 0.0
H3610 H 0.20283 0.813 0.42215 0.0
H3611 H 0.15937 0.82246 0.38047 0.0
C3612 C 0.14608 0.80109 0.39142 0.0
C3613 C 0.14602 0.78824 0.40407 0.0
C3614 C 0.20117 0.8238 0.41351 0.0
C3615 C 0.17368 0.81109 0.40168 0.0
C3616 C 0.21269 0.83763 0.41438 0.0
C3617 C 0.21035 0.85203 0.40374 0.0
C3618 C 0.18733 0.82442 0.40188 0.0
C3619 C 0.19679 0.8518 0.39183 0.0
C3620 C 0.15986 0.81243 0.39013 0.0
C3621 C 0.16045 0.7867 0.41483 0.0
N3622 N 0.18577 0.83829 0.39131 0.0
N3623 N 0.17366 0.79816 0.41354 0.0
H3624 H 0.22413 0.16218 0.42565 0.0
H3625 H 0.13722 0.19676 0.38301 0.0
H3626 H 0.19633 0.13684 0.38474 0.0
H3627 H 0.16191 0.22233 0.42573 0.0
H3628 H 0.16132 0.17699 0.38121 0.0
H3629 H 0.20397 0.18644 0.42375 0.0
C3630 C 0.21393 0.16181 0.41616 0.0
C3631 C 0.21174 0.14738 0.4055 0.0
C3632 C 0.16159 0.18697 0.39094 0.0
C3633 C 0.18878 0.17495 0.40325 0.0
C3634 C 0.14779 0.19827 0.39198 0.0
C3635 C 0.14745 0.21105 0.40471 0.0
C3636 C 0.17515 0.18827 0.40281 0.0
C3637 C 0.16164 0.21257 0.41579 0.0
C3638 C 0.20243 0.17562 0.4151 0.0
C3639 C 0.19837 0.14757 0.39339 0.0
N3640 N 0.17486 0.20114 0.41473 0.0
N3641 N 0.18737 0.16106 0.39269 0.0
H3642 H 0.19609 0.13624 0.61666 0.0
H3643 H 0.16202 0.22373 0.57481 0.0
H3644 H 0.22233 0.16169 0.57483 0.0
H3645 H 0.13615 0.1954 0.615 0.0
H3646 H 0.18624 0.20355 0.57677 0.0
H3647 H 0.17621 0.16025 0.6185 0.0
C3648 C 0.19773 0.14696 0.6079 0.0
C3649 C 0.21074 0.14686 0.5954 0.0
C3650 C 0.17531 0.20189 0.58524 0.0
C3651 C 0.18782 0.17446 0.59734 0.0
C3652 C 0.16151 0.2134 0.58416 0.0
C3653 C 0.14695 0.21109 0.59459 0.0
C3654 C 0.17449 0.18809 0.5969 0.0
C3655 C 0.14699 0.19755 0.60652 0.0
C3656 C 0.18636 0.16071 0.60896 0.0
C3657 C 0.21239 0.16122 0.58458 0.0
N3658 N 0.16046 0.18653 0.60725 0.0
N3659 N 0.20091 0.1744 0.58565 0.0
H3660 H 0.7749 0.16224 0.57414 0.0
H3661 H 0.86244 0.197 0.6154 0.0
H3662 H 0.80321 0.13706 0.61476 0.0
H3663 H 0.83696 0.22263 0.57324 0.0
H3664 H 0.83836 0.17721 0.61763 0.0
H3665 H 0.79503 0.18658 0.57579 0.0
C3666 C 0.78521 0.16192 0.58352 0.0
C3667 C 0.78755 0.14751 0.59415 0.0
C3668 C 0.83791 0.1872 0.60793 0.0
C3669 C 0.81048 0.17517 0.59611 0.0
C3670 C 0.8517 0.19852 0.60664 0.0
C3671 C 0.85182 0.21132 0.59393 0.0
C3672 C 0.82413 0.18851 0.59633 0.0
C3673 C 0.83741 0.21285 0.58314 0.0
C3674 C 0.79669 0.17578 0.58443 0.0
C3675 C 0.80105 0.14778 0.60612 0.0
N3676 N 0.8242 0.2014 0.58443 0.0
N3677 N 0.81204 0.16131 0.60668 0.0
H3678 H 0.2229 0.83674 0.57311 0.0
H3679 H 0.13551 0.80298 0.61557 0.0
H3680 H 0.19486 0.86289 0.6133 0.0
H3681 H 0.16068 0.77645 0.57378 0.0
H3682 H 0.15951 0.82294 0.61708 0.0
H3683 H 0.20257 0.81261 0.5752 0.0
C3684 C 0.2126 0.83733 0.58248 0.0
C3685 C 0.21043 0.85194 0.59289 0.0
C3686 C 0.15991 0.81272 0.60762 0.0
C3687 C 0.18725 0.8245 0.59535 0.0
C3688 C 0.14616 0.80129 0.60674 0.0
C3689 C 0.14599 0.78817 0.59436 0.0
C3690 C 0.17359 0.81118 0.59593 0.0
C3691 C 0.16028 0.78646 0.58345 0.0
C3692 C 0.20101 0.82359 0.58364 0.0
C3693 C 0.19691 0.85201 0.60484 0.0
N3694 N 0.17345 0.79799 0.58434 0.0
N3695 N 0.18582 0.83858 0.60565 0.0
H3696 H 0.09933 0.21721 0.45595 0.0
H3697 H 0.09598 0.27353 0.54208 0.0
H3698 H 0.09616 0.27269 0.4579 0.0
H3699 H 0.09904 0.21802 0.54303 0.0
H3700 H 0.09642 0.27281 0.511 0.0
H3701 H 0.09958 0.21661 0.48755 0.0
C3702 C 0.09873 0.22924 0.46296 0.0
C3703 C 0.09775 0.24502 0.45418 0.0
C3704 C 0.09702 0.26073 0.51792 0.0
C3705 C 0.09801 0.24439 0.49022 0.0
C3706 C 0.09679 0.26113 0.53578 0.0
C3707 C 0.09751 0.2458 0.5453 0.0
C3708 C 0.09795 0.2449 0.5093 0.0
C3709 C 0.09849 0.23016 0.53624 0.0
C3710 C 0.09886 0.22887 0.48098 0.0
C3711 C 0.09695 0.26019 0.46398 0.0
N3712 N 0.09867 0.2301 0.5187 0.0
N3713 N 0.0971 0.25946 0.48138 0.0
H3714 H 0.72547 0.0962 0.54189 0.0
H3715 H 0.78198 0.09938 0.4559 0.0
H3716 H 0.78099 0.09928 0.54297 0.0
H3717 H 0.72651 0.0959 0.45773 0.0
H3718 H 0.78251 0.09983 0.4875 0.0
H3719 H 0.72626 0.0966 0.5108 0.0
C3720 C 0.73789 0.097 0.53562 0.0
C3721 C 0.7532 0.09773 0.54517 0.0
C3722 C 0.77027 0.099 0.4809 0.0
C3723 C 0.75418 0.09812 0.50918 0.0
C3724 C 0.76994 0.09876 0.46288 0.0
C3725 C 0.75418 0.09763 0.45407 0.0
C3726 C 0.75473 0.09811 0.4901 0.0
C3727 C 0.73899 0.09681 0.46383 0.0
C3728 C 0.73832 0.09721 0.51776 0.0
C3729 C 0.76886 0.09871 0.53615 0.0
N3730 N 0.73968 0.09707 0.48123 0.0
N3731 N 0.76896 0.09886 0.51862 0.0
H3732 H 0.9026 0.72508 0.45731 0.0
H3733 H 0.89919 0.78109 0.54363 0.0
H3734 H 0.89897 0.78057 0.45661 0.0
H3735 H 0.90171 0.72558 0.54154 0.0
H3736 H 0.89898 0.78178 0.51204 0.0
H3737 H 0.90218 0.72567 0.48841 0.0
C3738 C 0.90168 0.73745 0.46367 0.0
C3739 C 0.90078 0.75281 0.45422 0.0
C3740 C 0.89954 0.76949 0.51857 0.0
C3741 C 0.90035 0.75355 0.49022 0.0
C3742 C 0.89966 0.76907 0.53659 0.0
C3743 C 0.90045 0.75325 0.54532 0.0
C3744 C 0.90024 0.75399 0.50929 0.0
C3745 C 0.90107 0.7381 0.53549 0.0
C3746 C 0.90144 0.73776 0.48153 0.0
C3747 C 0.89966 0.7684 0.46335 0.0
N3748 N 0.90096 0.73888 0.51809 0.0
N3749 N 0.89949 0.76838 0.48088 0.0
H3750 H 0.27297 0.90371 0.45545 0.0
H3751 H 0.21702 0.90001 0.54178 0.0
H3752 H 0.21747 0.90015 0.45474 0.0
H3753 H 0.27253 0.90274 0.53967 0.0
H3754 H 0.2163 0.8999 0.51019 0.0
H3755 H 0.27239 0.90323 0.48654 0.0
C3756 C 0.2606 0.90279 0.46181 0.0
C3757 C 0.24523 0.90193 0.45236 0.0
C3758 C 0.2286 0.90049 0.51672 0.0
C3759 C 0.2445 0.90143 0.48835 0.0
C3760 C 0.22903 0.90054 0.53473 0.0
C3761 C 0.24486 0.90136 0.54346 0.0
C3762 C 0.24409 0.90127 0.50743 0.0
C3763 C 0.26 0.90207 0.53363 0.0
C3764 C 0.26029 0.90253 0.47967 0.0
C3765 C 0.22964 0.90082 0.46148 0.0
N3766 N 0.2592 0.90202 0.51622 0.0
N3767 N 0.22967 0.90061 0.47901 0.0
H3768 H 0.09813 0.78158 0.54318 0.0
H3769 H 0.09564 0.7252 0.45703 0.0
H3770 H 0.09509 0.72608 0.54129 0.0
H3771 H 0.09815 0.78075 0.45615 0.0
H3772 H 0.09595 0.72591 0.48814 0.0
H3773 H 0.0986 0.78214 0.51159 0.0
C3774 C 0.0976 0.76954 0.53618 0.0
C3775 C 0.0966 0.75376 0.54497 0.0
C3776 C 0.09646 0.73799 0.48122 0.0
C3777 C 0.09712 0.75435 0.50894 0.0
C3778 C 0.0963 0.73761 0.46335 0.0
C3779 C 0.0969 0.75295 0.45385 0.0
C3780 C 0.09719 0.75384 0.48985 0.0
C3781 C 0.0977 0.76859 0.46293 0.0
C3782 C 0.09786 0.76988 0.51816 0.0
C3783 C 0.09591 0.73858 0.5352 0.0
N3784 N 0.0978 0.76864 0.48046 0.0
N3785 N 0.09618 0.73928 0.51779 0.0
H3786 H 0.27414 0.09671 0.45771 0.0
H3787 H 0.21735 0.09907 0.54356 0.0
H3788 H 0.21859 0.09904 0.45656 0.0
H3789 H 0.27289 0.09677 0.54198 0.0
H3790 H 0.21695 0.09951 0.51196 0.0
H3791 H 0.2733 0.09718 0.48882 0.0
C3792 C 0.26171 0.09736 0.46397 0.0
C3793 C 0.2464 0.09786 0.4544 0.0
C3794 C 0.22918 0.09895 0.51861 0.0
C3795 C 0.24537 0.09834 0.49039 0.0
C3796 C 0.22944 0.09871 0.53663 0.0
C3797 C 0.24518 0.0979 0.5455 0.0
C3798 C 0.24477 0.09837 0.50947 0.0
C3799 C 0.26042 0.09742 0.53582 0.0
C3800 C 0.26125 0.09761 0.48184 0.0
C3801 C 0.23072 0.09865 0.4634 0.0
N3802 N 0.2598 0.09765 0.5184 0.0
N3803 N 0.2306 0.09884 0.48093 0.0
H3804 H 0.90214 0.27398 0.54074 0.0
H3805 H 0.89994 0.21712 0.45491 0.0
H3806 H 0.89982 0.21843 0.5419 0.0
H3807 H 0.90308 0.27263 0.45649 0.0
H3808 H 0.89934 0.21674 0.4865 0.0
H3809 H 0.90185 0.27311 0.50964 0.0
C3810 C 0.90153 0.26154 0.53448 0.0
C3811 C 0.90099 0.24624 0.54406 0.0
C3812 C 0.90013 0.22896 0.47986 0.0
C3813 C 0.90073 0.24517 0.50807 0.0
C3814 C 0.90046 0.2292 0.46184 0.0
C3815 C 0.90154 0.24493 0.45297 0.0
C3816 C 0.90086 0.24455 0.489 0.0
C3817 C 0.90222 0.26017 0.46266 0.0
C3818 C 0.90138 0.26106 0.51662 0.0
C3819 C 0.90024 0.23055 0.53506 0.0
N3820 N 0.90187 0.25957 0.48006 0.0
N3821 N 0.90016 0.23041 0.51753 0.0
H3822 H 0.78109 0.89974 0.45524 0.0
H3823 H 0.72475 0.90201 0.54137 0.0
H3824 H 0.72555 0.90164 0.45713 0.0
H3825 H 0.78032 0.90002 0.54226 0.0
H3826 H 0.72544 0.9014 0.51027 0.0
H3827 H 0.78168 0.89938 0.48683 0.0
C3828 C 0.76905 0.90003 0.46224 0.0
C3829 C 0.75325 0.90071 0.45345 0.0
C3830 C 0.73753 0.90107 0.51719 0.0
C3831 C 0.75386 0.90033 0.48948 0.0
C3832 C 0.73716 0.9014 0.53505 0.0
C3833 C 0.75252 0.90104 0.54455 0.0
C3834 C 0.75337 0.90041 0.50856 0.0
C3835 C 0.76815 0.90029 0.53548 0.0
C3836 C 0.7694 0.89984 0.48026 0.0
C3837 C 0.73806 0.9011 0.46322 0.0
N3838 N 0.76819 0.90002 0.51795 0.0
N3839 N 0.73878 0.90091 0.48063 0.0
H3840 H 0.45545 0.09877 0.21708 0.0
H3841 H 0.54116 0.0956 0.27406 0.0
H3842 H 0.45705 0.09401 0.27247 0.0
H3843 H 0.54255 0.09886 0.21856 0.0
H3844 H 0.51008 0.09563 0.27306 0.0
H3845 H 0.48705 0.09933 0.21672 0.0
C3846 C 0.46238 0.09787 0.22914 0.0
C3847 C 0.45351 0.09638 0.24483 0.0
C3848 C 0.5171 0.09636 0.26105 0.0
C3849 C 0.48954 0.09702 0.24447 0.0
C3850 C 0.53496 0.09637 0.2616 0.0
C3851 C 0.5446 0.09725 0.24636 0.0
C3852 C 0.50861 0.09722 0.24514 0.0
C3853 C 0.53566 0.09818 0.23065 0.0
C3854 C 0.48041 0.09819 0.22891 0.0
C3855 C 0.4632 0.09522 0.26004 0.0
N3856 N 0.51813 0.09813 0.23043 0.0
N3857 N 0.4806 0.09557 0.25944 0.0
H3858 H 0.90077 0.54129 0.27482 0.0
H3859 H 0.89874 0.45565 0.21766 0.0
H3860 H 0.89904 0.54255 0.21925 0.0
H3861 H 0.90101 0.45695 0.27321 0.0
H3862 H 0.89825 0.48723 0.21743 0.0
H3863 H 0.90022 0.51017 0.27389 0.0
C3864 C 0.90023 0.53505 0.26237 0.0
C3865 C 0.89994 0.54465 0.24708 0.0
C3866 C 0.89882 0.48053 0.22963 0.0
C3867 C 0.89937 0.50867 0.24594 0.0
C3868 C 0.89908 0.46252 0.22978 0.0
C3869 C 0.8999 0.45357 0.24547 0.0
C3870 C 0.89937 0.4896 0.24527 0.0
C3871 C 0.90036 0.46318 0.26077 0.0
C3872 C 0.89993 0.51718 0.26186 0.0
C3873 C 0.89927 0.53569 0.23137 0.0
N3874 N 0.9001 0.48059 0.26025 0.0
N3875 N 0.89904 0.51817 0.2312 0.0
H3876 H 0.5429 0.89933 0.21694 0.0
H3877 H 0.45683 0.90076 0.27341 0.0
H3878 H 0.54108 0.90235 0.27243 0.0
H3879 H 0.45591 0.89928 0.21783 0.0
H3880 H 0.48794 0.90052 0.27269 0.0
H3881 H 0.51131 0.89858 0.21642 0.0
C3882 C 0.53592 0.89979 0.22899 0.0
C3883 C 0.54473 0.90088 0.24475 0.0
C3884 C 0.48101 0.90022 0.2606 0.0
C3885 C 0.5087 0.90003 0.24421 0.0
C3886 C 0.46314 0.90034 0.261 0.0
C3887 C 0.45363 0.90003 0.24564 0.0
C3888 C 0.48963 0.89982 0.24474 0.0
C3889 C 0.46269 0.89952 0.22999 0.0
C3890 C 0.5179 0.89938 0.22867 0.0
C3891 C 0.53497 0.90148 0.25995 0.0
N3892 N 0.48022 0.89945 0.22994 0.0
N3893 N 0.51757 0.90105 0.25927 0.0
H3894 H 0.09568 0.54217 0.27361 0.0
H3895 H 0.09799 0.45589 0.21745 0.0
H3896 H 0.09798 0.54291 0.21805 0.0
H3897 H 0.09552 0.45792 0.27297 0.0
H3898 H 0.09841 0.48747 0.2168 0.0
H3899 H 0.09607 0.51107 0.27298 0.0
C3900 C 0.09631 0.53582 0.26122 0.0
C3901 C 0.09682 0.54528 0.24584 0.0
C3902 C 0.09781 0.48093 0.22909 0.0
C3903 C 0.09721 0.50928 0.24506 0.0
C3904 C 0.09758 0.46291 0.22948 0.0
C3905 C 0.09674 0.45416 0.24529 0.0
C3906 C 0.0972 0.4902 0.2446 0.0
C3907 C 0.0962 0.46398 0.26045 0.0
C3908 C 0.09652 0.51796 0.26088 0.0
C3909 C 0.09759 0.53616 0.23023 0.0
N3910 N 0.09643 0.48138 0.2597 0.0
N3911 N 0.09774 0.51863 0.23023 0.0
H3912 H 0.45733 0.90213 0.7244 0.0
H3913 H 0.54308 0.90004 0.78135 0.0
H3914 H 0.456 0.89986 0.77995 0.0
H3915 H 0.54148 0.9027 0.72583 0.0
H3916 H 0.51148 0.8995 0.78174 0.0
H3917 H 0.4884 0.90181 0.72535 0.0
C3918 C 0.46354 0.90152 0.73686 0.0
C3919 C 0.45392 0.901 0.75213 0.0
C3920 C 0.51813 0.90017 0.76952 0.0
C3921 C 0.48991 0.90071 0.75329 0.0
C3922 C 0.53615 0.90047 0.76927 0.0
C3923 C 0.54502 0.90139 0.75353 0.0
C3924 C 0.50899 0.9008 0.75393 0.0
C3925 C 0.53533 0.90195 0.7383 0.0
C3926 C 0.4814 0.90136 0.73738 0.0
C3927 C 0.46288 0.90026 0.76784 0.0
N3928 N 0.51792 0.90165 0.73891 0.0
N3929 N 0.48041 0.90016 0.76803 0.0
H3930 H 0.09864 0.45546 0.78241 0.0
H3931 H 0.09468 0.5414 0.72585 0.0
H3932 H 0.09603 0.45721 0.72689 0.0
H3933 H 0.09828 0.54256 0.78134 0.0
H3934 H 0.0952 0.51031 0.72667 0.0
H3935 H 0.0986 0.48707 0.78293 0.0
C3936 C 0.0981 0.46243 0.77035 0.0
C3937 C 0.09736 0.45359 0.75458 0.0
C3938 C 0.09591 0.51728 0.73871 0.0
C3939 C 0.09728 0.48964 0.75512 0.0
C3940 C 0.09562 0.53515 0.73827 0.0
C3941 C 0.09649 0.54472 0.75356 0.0
C3942 C 0.09704 0.50872 0.75457 0.0
C3943 C 0.09762 0.53572 0.76922 0.0
C3944 C 0.09807 0.48045 0.77067 0.0
C3945 C 0.09664 0.46333 0.73938 0.0
N3946 N 0.09786 0.51818 0.76933 0.0
N3947 N 0.09661 0.48074 0.74006 0.0
H3948 H 0.45742 0.09686 0.72524 0.0
H3949 H 0.54355 0.09959 0.7816 0.0
H3950 H 0.45653 0.09942 0.78078 0.0
H3951 H 0.54165 0.09704 0.72608 0.0
H3952 H 0.51196 0.10005 0.78216 0.0
H3953 H 0.48851 0.09747 0.72593 0.0
C3954 C 0.46373 0.0976 0.73764 0.0
C3955 C 0.45423 0.09811 0.75299 0.0
C3956 C 0.51853 0.09943 0.7699 0.0
C3957 C 0.49023 0.09874 0.75385 0.0
C3958 C 0.53655 0.09918 0.76955 0.0
C3959 C 0.54534 0.09828 0.75376 0.0
C3960 C 0.50931 0.09878 0.75436 0.0
C3961 C 0.53556 0.09774 0.73858 0.0
C3962 C 0.48159 0.09793 0.73802 0.0
C3963 C 0.46331 0.09902 0.76862 0.0
N3964 N 0.51816 0.09799 0.73928 0.0
N3965 N 0.48084 0.09928 0.76866 0.0
H3966 H 0.89931 0.54257 0.78181 0.0
H3967 H 0.90447 0.45662 0.72535 0.0
H3968 H 0.90433 0.54077 0.72646 0.0
H3969 H 0.89977 0.45548 0.78075 0.0
H3970 H 0.90421 0.48771 0.72619 0.0
H3971 H 0.89928 0.51097 0.78234 0.0
C3972 C 0.90038 0.53559 0.7698 0.0
C3973 C 0.90179 0.54441 0.75407 0.0
C3974 C 0.90322 0.48074 0.73822 0.0
C3975 C 0.90177 0.50838 0.75461 0.0
C3976 C 0.90335 0.46288 0.73775 0.0
C3977 C 0.9021 0.45331 0.75302 0.0
C3978 C 0.90185 0.4893 0.75405 0.0
C3979 C 0.90073 0.46232 0.76866 0.0
C3980 C 0.90037 0.51757 0.77012 0.0
C3981 C 0.90318 0.53466 0.73892 0.0
N3982 N 0.90064 0.47985 0.76878 0.0
N3983 N 0.90313 0.51726 0.7396 0.0
H3984 H 0.21758 0.54256 0.0998 0.0
H3985 H 0.27394 0.45648 0.09768 0.0
H3986 H 0.27306 0.54071 0.09666 0.0
H3987 H 0.21837 0.45552 0.09957 0.0
H3988 H 0.27323 0.48758 0.09797 0.0
H3989 H 0.217 0.51097 0.1003 0.0
C3990 C 0.22961 0.53557 0.09925 0.0
C3991 C 0.24539 0.54438 0.09822 0.0
C3992 C 0.26115 0.48064 0.09834 0.0
C3993 C 0.24479 0.50834 0.09878 0.0
C3994 C 0.26153 0.46278 0.0982 0.0
C3995 C 0.24618 0.45326 0.09862 0.0
C3996 C 0.2453 0.48926 0.09888 0.0
C3997 C 0.23054 0.46231 0.09924 0.0
C3998 C 0.22926 0.51755 0.09953 0.0
C3999 C 0.26057 0.53461 0.09751 0.0
N4000 N 0.23049 0.47985 0.09934 0.0
N4001 N 0.25986 0.5172 0.0978 0.0
H4002 H 0.27359 0.54211 0.90289 0.0
H4003 H 0.21741 0.45579 0.90076 0.0
H4004 H 0.21802 0.54284 0.90095 0.0
H4005 H 0.27288 0.4579 0.90419 0.0
H4006 H 0.21676 0.48738 0.90024 0.0
H4007 H 0.27294 0.51101 0.90268 0.0
C4008 C 0.26119 0.53576 0.90238 0.0
C4009 C 0.24582 0.54522 0.90192 0.0
C4010 C 0.22903 0.48085 0.90108 0.0
C4011 C 0.24501 0.50921 0.90175 0.0
C4012 C 0.22943 0.46283 0.90137 0.0
C4013 C 0.24522 0.4541 0.90249 0.0
C4014 C 0.24454 0.49013 0.9019 0.0
C4015 C 0.26037 0.46394 0.90328 0.0
C4016 C 0.26084 0.51789 0.90228 0.0
C4017 C 0.23019 0.5361 0.9013 0.0
N4018 N 0.25962 0.48134 0.90297 0.0
N4019 N 0.23018 0.51856 0.90125 0.0
H4020 H 0.45543 0.21708 0.90048 0.0
H4021 H 0.54166 0.27337 0.90319 0.0
H4022 H 0.45744 0.27261 0.90286 0.0
H4023 H 0.54246 0.21783 0.9003 0.0
H4024 H 0.51057 0.27268 0.90281 0.0
H4025 H 0.48702 0.21647 0.90014 0.0
C4026 C 0.46246 0.22912 0.90089 0.0
C4027 C 0.4537 0.24492 0.90168 0.0
C4028 C 0.51746 0.2606 0.90223 0.0
C4029 C 0.48973 0.24428 0.90132 0.0
C4030 C 0.53533 0.26097 0.90243 0.0
C4031 C 0.5448 0.24562 0.90174 0.0
C4032 C 0.50881 0.24477 0.90136 0.0
C4033 C 0.5357 0.22999 0.90083 0.0
C4034 C 0.48047 0.22875 0.9007 0.0
C4035 C 0.46351 0.2601 0.90222 0.0
N4036 N 0.51817 0.22996 0.90068 0.0
N4037 N 0.48091 0.25937 0.90204 0.0
H4038 H 0.78091 0.54302 0.89846 0.0
H4039 H 0.72468 0.45674 0.90123 0.0
H4040 H 0.72554 0.54089 0.90311 0.0
H4041 H 0.78023 0.45591 0.89861 0.0
H4042 H 0.72539 0.48783 0.90114 0.0
H4043 H 0.78154 0.51142 0.89784 0.0
C4044 C 0.76891 0.53597 0.89932 0.0
C4045 C 0.75315 0.54469 0.9008 0.0
C4046 C 0.73748 0.48093 0.90057 0.0
C4047 C 0.75381 0.50867 0.9001 0.0
C4048 C 0.73709 0.46307 0.9006 0.0
C4049 C 0.75243 0.45359 0.89991 0.0
C4050 C 0.75332 0.48959 0.89987 0.0
C4051 C 0.76807 0.46268 0.89914 0.0
C4052 C 0.7693 0.51795 0.89898 0.0
C4053 C 0.73802 0.53486 0.90191 0.0
N4054 N 0.76812 0.48021 0.89915 0.0
N4055 N 0.73876 0.51746 0.90153 0.0
H4056 H 0.45702 0.72569 0.90178 0.0
H4057 H 0.54309 0.78228 0.8998 0.0
H4058 H 0.456 0.78126 0.8997 0.0
H4059 H 0.54118 0.72679 0.90297 0.0
H4060 H 0.51149 0.7828 0.89918 0.0
H4061 H 0.48812 0.72651 0.90157 0.0
C4062 C 0.46331 0.73812 0.90124 0.0
C4063 C 0.45378 0.75344 0.90074 0.0
C4064 C 0.51807 0.77055 0.89998 0.0
C4065 C 0.48977 0.75445 0.90057 0.0
C4066 C 0.53609 0.77023 0.90033 0.0
C4067 C 0.54488 0.75446 0.90141 0.0
C4068 C 0.50885 0.755 0.90072 0.0
C4069 C 0.5351 0.73927 0.90209 0.0
C4070 C 0.48117 0.73857 0.90114 0.0
C4071 C 0.46281 0.76912 0.90008 0.0
N4072 N 0.5177 0.73996 0.90174 0.0
N4073 N 0.48035 0.76923 0.90004 0.0
H4074 H 0.78249 0.54299 0.09792 0.0
H4075 H 0.72573 0.45712 0.09396 0.0
H4076 H 0.72698 0.54128 0.09497 0.0
H4077 H 0.78119 0.45589 0.09785 0.0
H4078 H 0.72663 0.4882 0.09442 0.0
H4079 H 0.78293 0.51139 0.09802 0.0
C4080 C 0.77042 0.53603 0.09733 0.0
C4081 C 0.75467 0.54487 0.09646 0.0
C4082 C 0.73865 0.48122 0.0952 0.0
C4083 C 0.75513 0.50884 0.09654 0.0
C4084 C 0.73815 0.46336 0.09495 0.0
C4085 C 0.75342 0.45377 0.09591 0.0
C4086 C 0.75452 0.48976 0.09639 0.0
C4087 C 0.76909 0.46275 0.09711 0.0
C4088 C 0.7707 0.51801 0.09738 0.0
C4089 C 0.73946 0.53515 0.09568 0.0
N4090 N 0.76925 0.48028 0.09731 0.0
N4091 N 0.7401 0.51774 0.09573 0.0
H4092 H 0.54414 0.78098 0.09925 0.0
H4093 H 0.45803 0.72466 0.09487 0.0
H4094 H 0.54221 0.72545 0.09697 0.0
H4095 H 0.45709 0.7801 0.09912 0.0
H4096 H 0.48911 0.72538 0.09563 0.0
H4097 H 0.51255 0.78156 0.09929 0.0
C4098 C 0.53714 0.76894 0.09881 0.0
C4099 C 0.54591 0.75314 0.09811 0.0
C4100 C 0.48219 0.73743 0.09643 0.0
C4101 C 0.50988 0.75375 0.09811 0.0
C4102 C 0.46433 0.73704 0.096 0.0
C4103 C 0.45482 0.75236 0.09698 0.0
C4104 C 0.49081 0.75325 0.0978 0.0
C4105 C 0.46388 0.76797 0.09837 0.0
C4106 C 0.51912 0.76929 0.09883 0.0
C4107 C 0.53613 0.73795 0.09753 0.0
N4108 N 0.48141 0.76803 0.09872 0.0
N4109 N 0.51872 0.73867 0.09752 0.0
H4110 H 0.5437 0.21642 0.09963 0.0
H4111 H 0.45786 0.27306 0.09596 0.0
H4112 H 0.54204 0.2719 0.09624 0.0
H4113 H 0.45663 0.21759 0.09968 0.0
H4114 H 0.48894 0.27222 0.09636 0.0
H4115 H 0.5121 0.21595 0.09996 0.0
C4116 C 0.53675 0.22848 0.099 0.0
C4117 C 0.54561 0.24423 0.09793 0.0
C4118 C 0.48196 0.26018 0.09712 0.0
C4119 C 0.50957 0.24374 0.09827 0.0
C4120 C 0.4641 0.26064 0.0969 0.0
C4121 C 0.4545 0.24536 0.09782 0.0
C4122 C 0.4905 0.24432 0.09822 0.0
C4123 C 0.46348 0.2297 0.09897 0.0
C4124 C 0.51873 0.22819 0.09918 0.0
C4125 C 0.5359 0.25943 0.0971 0.0
N4126 N 0.48102 0.22957 0.09912 0.0
N4127 N 0.51849 0.25877 0.09729 0.0
H4128 H 0.59937 0.71706 0.04346 0.0
H4129 H 0.59636 0.77393 0.95771 0.0
H4130 H 0.59773 0.77263 0.04191 0.0
H4131 H 0.59894 0.71839 0.95644 0.0
H4132 H 0.59708 0.77304 0.9888 0.0
H4133 H 0.59948 0.71666 0.01187 0.0
C4134 C 0.59909 0.72915 0.03654 0.0
C4135 C 0.59856 0.7449 0.04542 0.0
C4136 C 0.59752 0.761 0.9818 0.0
C4137 C 0.59864 0.7445 0.00939 0.0
C4138 C 0.59712 0.76149 0.96394 0.0
C4139 C 0.59763 0.7462 0.95434 0.0
C4140 C 0.5984 0.74511 0.99032 0.0
C4141 C 0.59855 0.73051 0.9633 0.0
C4142 C 0.59914 0.7289 0.01852 0.0
C4143 C 0.59816 0.76015 0.03574 0.0
N4144 N 0.59889 0.73036 0.98083 0.0
N4145 N 0.5982 0.75953 0.01833 0.0
H4146 H 0.28184 0.59952 0.95613 0.0
H4147 H 0.22572 0.59629 0.04237 0.0
H4148 H 0.22634 0.59665 0.95829 0.0
H4149 H 0.28128 0.59867 0.04331 0.0
H4150 H 0.22641 0.59701 0.01131 0.0
H4151 H 0.28257 0.59977 0.98774 0.0
C4152 C 0.26984 0.599 0.96319 0.0
C4153 C 0.25401 0.59808 0.95447 0.0
C4154 C 0.2385 0.5974 0.01822 0.0
C4155 C 0.25479 0.59834 0.99051 0.0
C4156 C 0.23813 0.597 0.03607 0.0
C4157 C 0.25348 0.59744 0.04558 0.0
C4158 C 0.25434 0.5982 0.00959 0.0
C4159 C 0.26912 0.59833 0.03652 0.0
C4160 C 0.27028 0.59913 0.98121 0.0
C4161 C 0.23888 0.59739 0.96432 0.0
N4162 N 0.26916 0.59866 0.01898 0.0
N4163 N 0.23968 0.59753 0.98172 0.0
H4164 H 0.4024 0.22494 0.04217 0.0
H4165 H 0.39998 0.28135 0.9561 0.0
H4166 H 0.40003 0.2805 0.04313 0.0
H4167 H 0.4016 0.22579 0.95794 0.0
H4168 H 0.39963 0.28192 0.98769 0.0
H4169 H 0.40173 0.22566 0.01108 0.0
C4170 C 0.40169 0.23735 0.03587 0.0
C4171 C 0.40124 0.2527 0.04539 0.0
C4172 C 0.40002 0.26964 0.9811 0.0
C4173 C 0.40055 0.25359 0.0094 0.0
C4174 C 0.40021 0.2693 0.96309 0.0
C4175 C 0.40081 0.2535 0.95428 0.0
C4176 C 0.40044 0.25409 0.99032 0.0
C4177 C 0.40113 0.2383 0.96405 0.0
C4178 C 0.40132 0.23774 0.01801 0.0
C4179 C 0.40037 0.26834 0.03634 0.0
N4180 N 0.40095 0.23901 0.98145 0.0
N4181 N 0.40008 0.26839 0.01881 0.0
H4182 H 0.77343 0.40201 0.04017 0.0
H4183 H 0.71683 0.39903 0.9542 0.0
H4184 H 0.7179 0.3992 0.04128 0.0
H4185 H 0.77234 0.40205 0.95601 0.0
H4186 H 0.71633 0.39856 0.9858 0.0
H4187 H 0.77261 0.40146 0.00909 0.0
C4188 C 0.761 0.40123 0.03391 0.0
C4189 C 0.74569 0.40063 0.04346 0.0
C4190 C 0.72857 0.39929 0.9792 0.0
C4191 C 0.74469 0.40007 0.00747 0.0
C4192 C 0.72889 0.39954 0.96118 0.0
C4193 C 0.74465 0.40056 0.95237 0.0
C4194 C 0.74413 0.40005 0.9884 0.0
C4195 C 0.75985 0.40123 0.96211 0.0
C4196 C 0.76056 0.40093 0.01605 0.0
C4197 C 0.73003 0.39967 0.03445 0.0
N4198 N 0.75918 0.40098 0.97952 0.0
N4199 N 0.72992 0.39945 0.01692 0.0
H4200 H 0.59955 0.28082 0.95604 0.0
H4201 H 0.59761 0.22412 0.04194 0.0
H4202 H 0.59688 0.2253 0.95765 0.0
H4203 H 0.59946 0.27969 0.04298 0.0
H4204 H 0.59806 0.2249 0.01083 0.0
H4205 H 0.60019 0.28124 0.98762 0.0
C4206 C 0.59915 0.26874 0.96298 0.0
C4207 C 0.59818 0.253 0.95411 0.0
C4208 C 0.5984 0.23697 0.01779 0.0
C4209 C 0.59889 0.25342 0.99013 0.0
C4210 C 0.59816 0.23654 0.03566 0.0
C4211 C 0.59851 0.25188 0.04519 0.0
C4212 C 0.59896 0.25284 0.00921 0.0
C4213 C 0.59919 0.26755 0.03617 0.0
C4214 C 0.59951 0.269 0.98099 0.0
C4215 C 0.59766 0.23776 0.9638 0.0
N4216 N 0.59936 0.26763 0.01864 0.0
N4217 N 0.59801 0.23839 0.98121 0.0
H4218 H 0.71804 0.59898 0.04288 0.0
H4219 H 0.77357 0.59742 0.95622 0.0
H4220 H 0.77358 0.59756 0.04054 0.0
H4221 H 0.71797 0.59865 0.95595 0.0
H4222 H 0.77321 0.59812 0.98733 0.0
H4223 H 0.71719 0.59948 0.01131 0.0
C4224 C 0.73003 0.59883 0.03579 0.0
C4225 C 0.7459 0.59823 0.04444 0.0
C4226 C 0.76105 0.59827 0.98054 0.0
C4227 C 0.74499 0.59878 0.00842 0.0
C4228 C 0.76123 0.59788 0.96267 0.0
C4229 C 0.74576 0.59799 0.95335 0.0
C4230 C 0.74529 0.59872 0.98934 0.0
C4231 C 0.73022 0.59856 0.96259 0.0
C4232 C 0.72952 0.5991 0.01778 0.0
C4233 C 0.76102 0.59803 0.03455 0.0
N4234 N 0.73037 0.59888 0.98011 0.0
N4235 N 0.76015 0.59828 0.01715 0.0
H4236 H 0.39948 0.71747 0.95479 0.0
H4237 H 0.4031 0.77331 0.04123 0.0
H4238 H 0.40196 0.77299 0.95696 0.0
H4239 H 0.39995 0.71779 0.04179 0.0
H4240 H 0.4023 0.77282 0.01013 0.0
H4241 H 0.39925 0.71673 0.98638 0.0
C4242 C 0.39992 0.72948 0.96185 0.0
C4243 C 0.40073 0.74532 0.95314 0.0
C4244 C 0.40175 0.7607 0.01698 0.0
C4245 C 0.4005 0.74453 0.98917 0.0
C4246 C 0.40219 0.76096 0.03484 0.0
C4247 C 0.40156 0.74555 0.04425 0.0
C4248 C 0.40071 0.74492 0.00826 0.0
C4249 C 0.40045 0.72999 0.03509 0.0
C4250 C 0.3998 0.72904 0.97987 0.0
C4251 C 0.40131 0.76046 0.963 0.0
N4252 N 0.40008 0.73006 0.01756 0.0
N4253 N 0.4012 0.75965 0.9804 0.0
H4254 H 0.28199 0.39914 0.04427 0.0
H4255 H 0.22562 0.40163 0.95814 0.0
H4256 H 0.22647 0.40147 0.04227 0.0
H4257 H 0.28119 0.39992 0.95715 0.0
H4258 H 0.22636 0.4009 0.98921 0.0
H4259 H 0.28261 0.3988 0.01266 0.0
C4260 C 0.26996 0.39953 0.03725 0.0
C4261 C 0.25416 0.40032 0.04601 0.0
C4262 C 0.23845 0.40066 0.98228 0.0
C4263 C 0.25481 0.39996 0.00997 0.0
C4264 C 0.23804 0.40106 0.96443 0.0
C4265 C 0.25338 0.40082 0.9549 0.0
C4266 C 0.25431 0.40006 0.99089 0.0
C4267 C 0.26904 0.40011 0.96395 0.0
C4268 C 0.27034 0.39935 0.01922 0.0
C4269 C 0.23899 0.40083 0.03621 0.0
N4270 N 0.26911 0.39978 0.98148 0.0
N4271 N 0.23972 0.40065 0.01881 0.0
H4272 H 0.04255 0.59933 0.7176 0.0
H4273 H 0.95647 0.59838 0.77407 0.0
H4274 H 0.04072 0.59737 0.77314 0.0
H4275 H 0.95556 0.59878 0.71847 0.0
H4276 H 0.98758 0.5991 0.77335 0.0
H4277 H 0.01097 0.6001 0.71706 0.0
C4278 C 0.03557 0.59912 0.72965 0.0
C4279 C 0.04438 0.5983 0.74544 0.0
C4280 C 0.98065 0.59906 0.76126 0.0
C4281 C 0.00835 0.59916 0.74488 0.0
C4282 C 0.96278 0.59867 0.76166 0.0
C4283 C 0.95328 0.59851 0.7463 0.0
C4284 C 0.98927 0.59925 0.7454 0.0
C4285 C 0.96234 0.5989 0.73064 0.0
C4286 C 0.01756 0.59954 0.72932 0.0
C4287 C 0.03462 0.59802 0.76064 0.0
N4288 N 0.97987 0.59921 0.73059 0.0
N4289 N 0.01722 0.59844 0.75995 0.0
H4290 H 0.39966 0.95575 0.71616 0.0
H4291 H 0.40383 0.04149 0.77306 0.0
H4292 H 0.40311 0.95735 0.77164 0.0
H4293 H 0.39965 0.04288 0.71762 0.0
H4294 H 0.40337 0.01041 0.77209 0.0
H4295 H 0.39943 0.98737 0.71577 0.0
C4296 C 0.40032 0.96269 0.72823 0.0
C4297 C 0.40138 0.95381 0.74396 0.0
C4298 C 0.40253 0.01743 0.76008 0.0
C4299 C 0.40115 0.98985 0.74356 0.0
C4300 C 0.40278 0.03529 0.76062 0.0
C4301 C 0.40174 0.04492 0.74538 0.0
C4302 C 0.40127 0.00893 0.7442 0.0
C4303 C 0.40045 0.03599 0.72969 0.0
C4304 C 0.4002 0.98072 0.72798 0.0
C4305 C 0.40225 0.96351 0.75918 0.0
N4306 N 0.40027 0.01845 0.7295 0.0
N4307 N 0.40213 0.98091 0.75857 0.0
H4308 H 0.04363 0.39922 0.71789 0.0
H4309 H 0.95725 0.40048 0.77386 0.0
H4310 H 0.04148 0.4011 0.77343 0.0
H4311 H 0.95662 0.3991 0.71827 0.0
H4312 H 0.98835 0.39995 0.77332 0.0
H4313 H 0.01205 0.3985 0.71716 0.0
C4314 C 0.03658 0.39943 0.72991 0.0
C4315 C 0.04529 0.40021 0.74575 0.0
C4316 C 0.98149 0.39973 0.76119 0.0
C4317 C 0.00927 0.3994 0.74497 0.0
C4318 C 0.96363 0.40002 0.76148 0.0
C4319 C 0.9542 0.39983 0.74608 0.0
C4320 C 0.99019 0.3993 0.74538 0.0
C4321 C 0.96335 0.39925 0.73047 0.0
C4322 C 0.01857 0.39903 0.72947 0.0
C4323 C 0.03545 0.40049 0.76089 0.0
N4324 N 0.98087 0.39904 0.73052 0.0
N4325 N 0.01805 0.40009 0.7601 0.0
H4326 H 0.59913 0.95587 0.71728 0.0
H4327 H 0.59673 0.04194 0.77375 0.0
H4328 H 0.59678 0.95773 0.77281 0.0
H4329 H 0.59901 0.04292 0.71819 0.0
H4330 H 0.59719 0.01085 0.773 0.0
H4331 H 0.59952 0.98747 0.71673 0.0
C4332 C 0.59875 0.96286 0.72933 0.0
C4333 C 0.59794 0.95406 0.74511 0.0
C4334 C 0.59762 0.01779 0.76092 0.0
C4335 C 0.59836 0.9901 0.74454 0.0
C4336 C 0.59737 0.03565 0.76133 0.0
C4337 C 0.59786 0.04517 0.74599 0.0
C4338 C 0.59833 0.00918 0.74507 0.0
C4339 C 0.59863 0.03612 0.73034 0.0
C4340 C 0.59896 0.98088 0.72899 0.0
C4341 C 0.59743 0.96383 0.76031 0.0
N4342 N 0.59882 0.01859 0.73027 0.0
N4343 N 0.59764 0.98124 0.75961 0.0
H4344 H 0.95623 0.40234 0.22526 0.0
H4345 H 0.04218 0.39997 0.28192 0.0
H4346 H 0.95505 0.39961 0.28079 0.0
H4347 H 0.04036 0.40267 0.2264 0.0
H4348 H 0.01058 0.39945 0.28243 0.0
H4349 H 0.98731 0.40204 0.22613 0.0
C4350 C 0.96248 0.40163 0.2377 0.0
C4351 C 0.9529 0.40097 0.25299 0.0
C4352 C 0.01717 0.40012 0.27018 0.0
C4353 C 0.98889 0.40069 0.25405 0.0
C4354 C 0.0352 0.40041 0.26986 0.0
C4355 C 0.04401 0.40135 0.25409 0.0
C4356 C 0.00797 0.40077 0.25463 0.0
C4357 C 0.03426 0.40192 0.2389 0.0
C4358 C 0.98034 0.40148 0.23817 0.0
C4359 C 0.96189 0.40011 0.26868 0.0
N4360 N 0.01685 0.40163 0.23957 0.0
N4361 N 0.97943 0.40002 0.26881 0.0
H4362 H 0.59889 0.04306 0.28215 0.0
H4363 H 0.5961 0.95734 0.22517 0.0
H4364 H 0.59659 0.04156 0.22661 0.0
H4365 H 0.59878 0.95604 0.2807 0.0
H4366 H 0.59668 0.98843 0.2261 0.0
H4367 H 0.59927 0.01147 0.2825 0.0
C4368 C 0.59852 0.03615 0.27005 0.0
C4369 C 0.59772 0.04505 0.25433 0.0
C4370 C 0.59717 0.98142 0.23813 0.0
C4371 C 0.59812 0.00901 0.25467 0.0
C4372 C 0.59685 0.96356 0.23762 0.0
C4373 C 0.59742 0.95395 0.25289 0.0
C4374 C 0.59802 0.98994 0.25403 0.0
C4375 C 0.59834 0.96291 0.26859 0.0
C4376 C 0.59872 0.01813 0.27028 0.0
C4377 C 0.59723 0.03538 0.23907 0.0
N4378 N 0.59859 0.98044 0.26877 0.0
N4379 N 0.59742 0.01797 0.23966 0.0
H4380 H 0.0406 0.59663 0.22553 0.0
H4381 H 0.95497 0.59917 0.28262 0.0
H4382 H 0.0421 0.59949 0.28105 0.0
H4383 H 0.95651 0.59576 0.22713 0.0
H4384 H 0.98658 0.59979 0.28297 0.0
H4385 H 0.00953 0.59689 0.22656 0.0
C4386 C 0.03442 0.59736 0.238 0.0
C4387 C 0.04409 0.59806 0.25324 0.0
C4388 C 0.97992 0.59894 0.27076 0.0
C4389 C 0.0081 0.59828 0.25449 0.0
C4390 C 0.96189 0.59859 0.27054 0.0
C4391 C 0.953 0.59744 0.25482 0.0
C4392 C 0.98903 0.59813 0.25517 0.0
C4393 C 0.96267 0.59669 0.23959 0.0
C4394 C 0.01657 0.59749 0.23857 0.0
C4395 C 0.03518 0.59895 0.26897 0.0
N4396 N 0.98007 0.59704 0.24017 0.0
N4397 N 0.01765 0.59901 0.2692 0.0
H4398 H 0.40131 0.04082 0.22472 0.0
H4399 H 0.39927 0.95466 0.28102 0.0
H4400 H 0.39926 0.04166 0.28028 0.0
H4401 H 0.40222 0.95656 0.22553 0.0
H4402 H 0.39864 0.98624 0.2816 0.0
H4403 H 0.40093 0.00972 0.22539 0.0
C4404 C 0.40073 0.03449 0.23712 0.0
C4405 C 0.4003 0.04398 0.25248 0.0
C4406 C 0.3994 0.97967 0.26934 0.0
C4407 C 0.39995 0.00798 0.25332 0.0
C4408 C 0.39975 0.96166 0.26898 0.0
C4409 C 0.40078 0.95287 0.2532 0.0
C4410 C 0.40007 0.9889 0.25381 0.0
C4411 C 0.4014 0.96265 0.23802 0.0
C4412 C 0.40053 0.01663 0.23748 0.0
C4413 C 0.39958 0.03489 0.26811 0.0
N4414 N 0.40104 0.98006 0.23874 0.0
N4415 N 0.39946 0.01736 0.26814 0.0
H4416 H 0.77357 0.0419 0.597 0.0
H4417 H 0.71697 0.95586 0.59922 0.0
H4418 H 0.71802 0.04295 0.59931 0.0
H4419 H 0.77242 0.95774 0.59549 0.0
H4420 H 0.71647 0.98746 0.59992 0.0
H4421 H 0.77275 0.01082 0.59723 0.0
C4422 C 0.76114 0.03563 0.5976 0.0
C4423 C 0.74582 0.04517 0.59815 0.0
C4424 C 0.7287 0.98088 0.59898 0.0
C4425 C 0.74481 0.00917 0.59833 0.0
C4426 C 0.72901 0.96286 0.59858 0.0
C4427 C 0.74476 0.95406 0.59732 0.0
C4428 C 0.74424 0.99009 0.59812 0.0
C4429 C 0.75995 0.96383 0.5965 0.0
C4430 C 0.76069 0.01776 0.59771 0.0
C4431 C 0.73015 0.03614 0.59889 0.0
N4432 N 0.75928 0.98124 0.59691 0.0
N4433 N 0.73004 0.0186 0.59893 0.0
H4434 H 0.77394 0.04146 0.40259 0.0
H4435 H 0.71721 0.95553 0.39985 0.0
H4436 H 0.7184 0.0425 0.40009 0.0
H4437 H 0.77276 0.95719 0.40184 0.0
H4438 H 0.71679 0.98712 0.39961 0.0
H4439 H 0.77313 0.01036 0.402 0.0
C4440 C 0.76152 0.03518 0.40188 0.0
C4441 C 0.7462 0.04472 0.40136 0.0
C4442 C 0.72903 0.98049 0.40006 0.0
C4443 C 0.7452 0.00873 0.40074 0.0
C4444 C 0.7293 0.96248 0.40019 0.0
C4445 C 0.74505 0.95363 0.40085 0.0
C4446 C 0.74462 0.98966 0.40061 0.0
C4447 C 0.76029 0.96334 0.40131 0.0
C4448 C 0.76107 0.01732 0.40155 0.0
C4449 C 0.73053 0.03569 0.40048 0.0
N4450 N 0.75966 0.98075 0.40119 0.0
N4451 N 0.73043 0.01816 0.40022 0.0
H4452 H 0.95643 0.77362 0.40249 0.0
H4453 H 0.04244 0.71724 0.39906 0.0
H4454 H 0.95536 0.7181 0.39933 0.0
H4455 H 0.04058 0.7727 0.40275 0.0
H4456 H 0.01084 0.71667 0.39857 0.0
H4457 H 0.98751 0.77287 0.40194 0.0
C4458 C 0.9627 0.76121 0.40163 0.0
C4459 C 0.95316 0.74588 0.40094 0.0
C4460 C 0.01743 0.72892 0.39945 0.0
C4461 C 0.98914 0.74496 0.40038 0.0
C4462 C 0.03545 0.72927 0.39972 0.0
C4463 C 0.04425 0.74504 0.40092 0.0
C4464 C 0.00822 0.74444 0.40038 0.0
C4465 C 0.03449 0.76021 0.40178 0.0
C4466 C 0.98056 0.7608 0.40134 0.0
C4467 C 0.96218 0.73024 0.39988 0.0
N4468 N 0.01709 0.7595 0.4015 0.0
N4469 N 0.97971 0.73017 0.39966 0.0
H4470 H 0.28171 0.04337 0.39937 0.0
H4471 H 0.2247 0.95757 0.40003 0.0
H4472 H 0.2262 0.04175 0.40232 0.0
H4473 H 0.28027 0.95633 0.39824 0.0
H4474 H 0.22564 0.98867 0.39998 0.0
H4475 H 0.28205 0.01179 0.39822 0.0
C4476 C 0.26962 0.03643 0.39974 0.0
C4477 C 0.2539 0.04529 0.40092 0.0
C4478 C 0.23768 0.98167 0.39957 0.0
C4479 C 0.25424 0.00928 0.39961 0.0
C4480 C 0.23716 0.96381 0.39957 0.0
C4481 C 0.25245 0.95421 0.39913 0.0
C4482 C 0.25359 0.99021 0.39918 0.0
C4483 C 0.26816 0.96319 0.39857 0.0
C4484 C 0.26984 0.01842 0.39908 0.0
C4485 C 0.23866 0.0356 0.40138 0.0
N4486 N 0.26834 0.98072 0.39865 0.0
N4487 N 0.23924 0.0182 0.40073 0.0
H4488 H 0.04358 0.28135 0.39983 0.0
H4489 H 0.9576 0.22461 0.40081 0.0
H4490 H 0.04187 0.2258 0.40184 0.0
H4491 H 0.95661 0.28019 0.3993 0.0
H4492 H 0.98871 0.22541 0.40052 0.0
H4493 H 0.012 0.28178 0.39904 0.0
C4494 C 0.03662 0.26927 0.40006 0.0
C4495 C 0.04546 0.25352 0.40088 0.0
C4496 C 0.98176 0.23748 0.40022 0.0
C4497 C 0.00944 0.25395 0.4 0.0
C4498 C 0.9639 0.23704 0.40037 0.0
C4499 C 0.95437 0.25237 0.40006 0.0
C4500 C 0.99036 0.25336 0.39981 0.0
C4501 C 0.96341 0.26804 0.39953 0.0
C4502 C 0.01861 0.26953 0.39962 0.0
C4503 C 0.03574 0.23828 0.40118 0.0
N4504 N 0.98094 0.26815 0.39945 0.0
N4505 N 0.01833 0.2389 0.40075 0.0
H4506 H 0.22526 0.04142 0.59673 0.0
H4507 H 0.28176 0.95541 0.59787 0.0
H4508 H 0.28082 0.04256 0.59882 0.0
H4509 H 0.22623 0.95731 0.59552 0.0
H4510 H 0.28234 0.98702 0.59867 0.0
H4511 H 0.22606 0.01034 0.59679 0.0
C4512 C 0.23769 0.03516 0.59724 0.0
C4513 C 0.25301 0.04473 0.59779 0.0
C4514 C 0.27008 0.98043 0.59801 0.0
C4515 C 0.254 0.00873 0.59779 0.0
C4516 C 0.26972 0.96241 0.59756 0.0
C4517 C 0.25392 0.95362 0.59665 0.0
C4518 C 0.25454 0.98965 0.59755 0.0
C4519 C 0.23874 0.96339 0.59625 0.0
C4520 C 0.23813 0.0173 0.59726 0.0
C4521 C 0.26868 0.03572 0.59841 0.0
N4522 N 0.23946 0.98079 0.5967 0.0
N4523 N 0.26879 0.01818 0.59837 0.0
H4524 H 0.95555 0.28208 0.59891 0.0
H4525 H 0.04143 0.22543 0.59674 0.0
H4526 H 0.9573 0.22662 0.59518 0.0
H4527 H 0.04264 0.28097 0.59938 0.0
H4528 H 0.01035 0.22628 0.59687 0.0
H4529 H 0.98714 0.28257 0.59969 0.0
C4530 C 0.96251 0.27003 0.59829 0.0
C4531 C 0.95368 0.25428 0.59701 0.0
C4532 C 0.01733 0.23833 0.59745 0.0
C4533 C 0.98971 0.25479 0.59788 0.0
C4534 C 0.03519 0.23787 0.5974 0.0
C4535 C 0.04478 0.25317 0.59807 0.0
C4536 C 0.00879 0.25421 0.59814 0.0
C4537 C 0.03579 0.26885 0.59886 0.0
C4538 C 0.98053 0.27034 0.59873 0.0
C4539 C 0.96342 0.23909 0.59621 0.0
N4540 N 0.01826 0.26898 0.59885 0.0
N4541 N 0.98082 0.23976 0.59666 0.0
H4542 H 0.04062 0.77331 0.59713 0.0
H4543 H 0.95463 0.71663 0.59899 0.0
H4544 H 0.04176 0.71773 0.59889 0.0
H4545 H 0.9565 0.7722 0.5978 0.0
H4546 H 0.98624 0.71611 0.59936 0.0
H4547 H 0.00955 0.77245 0.59778 0.0
C4548 C 0.03437 0.76086 0.5977 0.0
C4549 C 0.04393 0.74555 0.59798 0.0
C4550 C 0.97965 0.72837 0.59907 0.0
C4551 C 0.00794 0.7445 0.59866 0.0
C4552 C 0.96163 0.72869 0.59887 0.0
C4553 C 0.95282 0.74448 0.59838 0.0
C4554 C 0.98886 0.74394 0.59877 0.0
C4555 C 0.96259 0.75969 0.59819 0.0
C4556 C 0.01651 0.76039 0.59806 0.0
C4557 C 0.03492 0.72986 0.59868 0.0
N4558 N 0.97999 0.75901 0.59837 0.0
N4559 N 0.01739 0.72973 0.59897 0.0
loop_
_geom_bond_atom_site_label_1
_geom_bond_atom_site_label_2
_geom_bond_distance
_geom_bond_site_symmetry_2
_ccdc_geom_bond_type
Co0 O2 2.143 . S
Co0 O8 2.074 . S
Co0 O11 2.093 . S
Co0 O24 2.097 . S
Co0 N41 2.151 . S
Co0 N49 2.214 . S
Co1 O2 2.160 . S
Co1 O7 2.058 . S
Co1 O17 2.057 . S
Co1 O32 2.037 . S
Co1 N36 2.145 . S
Co1 N57 2.257 . S
O2 Co0 2.143 . S
O2 Co1 2.160 . S
C3 O4 1.278 . S
C3 O11 1.224 . S
O4 C3 1.278 . S
C5 O6 1.245 . S
C5 O17 1.232 . S
O6 C5 1.245 . S
O7 Co1 2.058 . S
O7 C33 1.269 . S
O8 Co0 2.074 . S
O8 C33 1.257 . S
H9 C34 0.930 . S
H10 C40 0.930 . S
O11 Co0 2.093 . S
O11 C3 1.224 . S
H12 C44 0.929 . S
H13 C46 0.930 . S
H14 C47 0.930 . S
H15 C45 0.929 . S
H16 C48 0.928 . S
O17 Co1 2.057 . S
O17 C5 1.232 . S
H18 C37 0.929 . S
H19 C38 0.929 . S
H20 C50 0.931 . S
H21 C42 0.929 . S
H22 C51 0.930 . S
H23 C43 0.931 . S
O24 Co0 2.097 . S
O24 C52 1.214 . S
H25 C53 0.929 . S
H26 C54 0.929 . S
H27 C55 0.930 . S
H28 C56 0.929 . S
H29 C58 0.930 . S
H30 C35 0.930 . S
H31 C39 0.930 . S
O32 Co1 2.037 . S
O32 C52 1.234 . S
C33 O7 1.269 . S
C33 O8 1.257 . S
C34 H9 0.930 . S
C34 C37 1.388 . S
C34 C39 1.418 . S
C35 H30 0.930 . S
C35 C38 1.404 . S
C35 C39 1.353 . S
N36 Co1 2.145 . S
N36 C37 1.397 . S
N36 C38 1.334 . S
C37 H18 0.929 . S
C37 C34 1.388 . S
C37 N36 1.397 . S
C38 H19 0.929 . S
C38 C35 1.404 . S
C38 N36 1.334 . S
C39 H31 0.930 . S
C39 C34 1.418 . S
C39 C35 1.353 . S
C40 H10 0.930 . S
C40 N41 1.330 . S
C40 C42 1.446 . S
N41 Co0 2.151 . S
N41 C40 1.330 . S
N41 C45 1.418 . S
C42 H21 0.929 . S
C42 C40 1.446 . S
C42 C43 1.332 . S
C43 H23 0.931 . S
C43 C42 1.332 . S
C43 C44 1.267 . S
C44 H12 0.929 . S
C44 C43 1.267 . S
C44 C45 1.251 . S
C45 H15 0.929 . S
C45 N41 1.418 . S
C45 C44 1.251 . S
C46 H13 0.930 . S
C46 C48 1.406 . S
C46 C51 1.261 . S
C47 H14 0.930 . S
C47 N49 1.325 . S
C47 C50 1.357 . S
C48 H16 0.928 . S
C48 C46 1.406 . S
C48 N49 1.261 . S
N49 Co0 2.214 . S
N49 C47 1.325 . S
N49 C48 1.261 . S
C50 H20 0.931 . S
C50 C47 1.357 . S
C50 C51 1.312 . S
C51 H22 0.930 . S
C51 C46 1.261 . S
C51 C50 1.312 . S
C52 O24 1.214 . S
C52 O32 1.234 . S
C53 H25 0.929 . S
C53 C56 1.391 . S
C53 C58 1.391 . S
C54 H26 0.929 . S
C54 C55 1.390 . S
C54 N57 1.391 . S
C55 H27 0.930 . S
C55 C54 1.390 . S
C55 C56 1.392 . S
C56 H28 0.929 . S
C56 C53 1.391 . S
C56 C55 1.392 . S
N57 Co1 2.257 . S
N57 C54 1.391 . S
N57 C58 1.388 . S
C58 H29 0.930 . S
C58 C53 1.391 . S
C58 N57 1.388 . S
Co59 O61 2.143 . S
Co59 O67 2.074 . S
Co59 O70 2.093 . S
Co59 O83 2.097 . S
Co59 N100 2.151 . S
Co59 N108 2.214 . S
Co60 O61 2.160 . S
Co60 O66 2.058 . S
Co60 O76 2.057 . S
Co60 O91 2.037 . S
Co60 N95 2.145 . S
Co60 N116 2.257 . S
O61 Co59 2.143 . S
O61 Co60 2.160 . S
C62 O63 1.278 . S
C62 O70 1.224 . S
O63 C62 1.278 . S
C64 O65 1.245 . S
C64 O76 1.232 . S
O65 C64 1.245 . S
O66 Co60 2.058 . S
O66 C92 1.269 . S
O67 Co59 2.074 . S
O67 C92 1.257 . S
H68 C93 0.930 . S
H69 C99 0.930 . S
O70 Co59 2.093 . S
O70 C62 1.224 . S
H71 C103 0.929 . S
H72 C105 0.930 . S
H73 C106 0.930 . S
H74 C104 0.929 . S
H75 C107 0.928 . S
O76 Co60 2.057 . S
O76 C64 1.232 . S
H77 C96 0.929 . S
H78 C97 0.929 . S
H79 C109 0.931 . S
H80 C101 0.929 . S
H81 C110 0.930 . S
H82 C102 0.931 . S
O83 Co59 2.097 . S
O83 C111 1.214 . S
H84 C112 0.929 . S
H85 C113 0.929 . S
H86 C114 0.930 . S
H87 C115 0.929 . S
H88 C117 0.930 . S
H89 C94 0.930 . S
H90 C98 0.930 . S
O91 Co60 2.037 . S
O91 C111 1.234 . S
C92 O66 1.269 . S
C92 O67 1.257 . S
C93 H68 0.930 . S
C93 C96 1.388 . S
C93 C98 1.418 . S
C94 H89 0.930 . S
C94 C97 1.404 . S
C94 C98 1.353 . S
N95 Co60 2.145 . S
N95 C96 1.397 . S
N95 C97 1.334 . S
C96 H77 0.929 . S
C96 C93 1.388 . S
C96 N95 1.397 . S
C97 H78 0.929 . S
C97 C94 1.404 . S
C97 N95 1.334 . S
C98 H90 0.930 . S
C98 C93 1.418 . S
C98 C94 1.353 . S
C99 H69 0.930 . S
C99 N100 1.330 . S
C99 C101 1.446 . S
N100 Co59 2.151 . S
N100 C99 1.330 . S
N100 C104 1.418 . S
C101 H80 0.929 . S
C101 C99 1.446 . S
C101 C102 1.332 . S
C102 H82 0.931 . S
C102 C101 1.332 . S
C102 C103 1.267 . S
C103 H71 0.929 . S
C103 C102 1.267 . S
C103 C104 1.251 . S
C104 H74 0.929 . S
C104 N100 1.418 . S
C104 C103 1.251 . S
C105 H72 0.930 . S
C105 C107 1.406 . S
C105 C110 1.261 . S
C106 H73 0.930 . S
C106 N108 1.325 . S
C106 C109 1.357 . S
C107 H75 0.928 . S
C107 C105 1.406 . S
C107 N108 1.261 . S
N108 Co59 2.214 . S
N108 C106 1.325 . S
N108 C107 1.261 . S
C109 H79 0.931 . S
C109 C106 1.357 . S
C109 C110 1.312 . S
C110 H81 0.930 . S
C110 C105 1.261 . S
C110 C109 1.312 . S
C111 O83 1.214 . S
C111 O91 1.234 . S
C112 H84 0.929 . S
C112 C115 1.391 . S
C112 C117 1.391 . S
C113 H85 0.929 . S
C113 C114 1.390 . S
C113 N116 1.391 . S
C114 H86 0.930 . S
C114 C113 1.390 . S
C114 C115 1.392 . S
C115 H87 0.929 . S
C115 C112 1.391 . S
C115 C114 1.392 . S
N116 Co60 2.257 . S
N116 C113 1.391 . S
N116 C117 1.388 . S
C117 H88 0.930 . S
C117 C112 1.391 . S
C117 N116 1.388 . S
Co118 O120 2.143 . S
Co118 O126 2.074 . S
Co118 O129 2.093 . S
Co118 O142 2.097 . S
Co118 N159 2.151 . S
Co118 N167 2.214 . S
Co119 O120 2.160 . S
Co119 O125 2.058 . S
Co119 O135 2.057 . S
Co119 O150 2.037 . S
Co119 N154 2.145 . S
Co119 N175 2.257 . S
O120 Co118 2.143 . S
O120 Co119 2.160 . S
C121 O122 1.278 . S
C121 O129 1.224 . S
O122 C121 1.278 . S
C123 O124 1.245 . S
C123 O135 1.232 . S
O124 C123 1.245 . S
O125 Co119 2.058 . S
O125 C151 1.269 . S
O126 Co118 2.074 . S
O126 C151 1.257 . S
H127 C152 0.930 . S
H128 C158 0.930 . S
O129 Co118 2.093 . S
O129 C121 1.224 . S
H130 C162 0.929 . S
H131 C164 0.930 . S
H132 C165 0.930 . S
H133 C163 0.929 . S
H134 C166 0.928 . S
O135 Co119 2.057 . S
O135 C123 1.232 . S
H136 C155 0.929 . S
H137 C156 0.929 . S
H138 C168 0.931 . S
H139 C160 0.929 . S
H140 C169 0.930 . S
H141 C161 0.931 . S
O142 Co118 2.097 . S
O142 C170 1.214 . S
H143 C171 0.929 . S
H144 C172 0.929 . S
H145 C173 0.930 . S
H146 C174 0.929 . S
H147 C176 0.930 . S
H148 C153 0.930 . S
H149 C157 0.930 . S
O150 Co119 2.037 . S
O150 C170 1.234 . S
C151 O125 1.269 . S
C151 O126 1.257 . S
C152 H127 0.930 . S
C152 C155 1.388 . S
C152 C157 1.418 . S
C153 H148 0.930 . S
C153 C156 1.404 . S
C153 C157 1.353 . S
N154 Co119 2.145 . S
N154 C155 1.397 . S
N154 C156 1.334 . S
C155 H136 0.929 . S
C155 C152 1.388 . S
C155 N154 1.397 . S
C156 H137 0.929 . S
C156 C153 1.404 . S
C156 N154 1.334 . S
C157 H149 0.930 . S
C157 C152 1.418 . S
C157 C153 1.353 . S
C158 H128 0.930 . S
C158 N159 1.330 . S
C158 C160 1.446 . S
N159 Co118 2.151 . S
N159 C158 1.330 . S
N159 C163 1.418 . S
C160 H139 0.929 . S
C160 C158 1.446 . S
C160 C161 1.332 . S
C161 H141 0.931 . S
C161 C160 1.332 . S
C161 C162 1.267 . S
C162 H130 0.929 . S
C162 C161 1.267 . S
C162 C163 1.251 . S
C163 H133 0.929 . S
C163 N159 1.418 . S
C163 C162 1.251 . S
C164 H131 0.930 . S
C164 C166 1.406 . S
C164 C169 1.261 . S
C165 H132 0.930 . S
C165 N167 1.325 . S
C165 C168 1.357 . S
C166 H134 0.928 . S
C166 C164 1.406 . S
C166 N167 1.261 . S
N167 Co118 2.214 . S
N167 C165 1.325 . S
N167 C166 1.261 . S
C168 H138 0.931 . S
C168 C165 1.357 . S
C168 C169 1.312 . S
C169 H140 0.930 . S
C169 C164 1.261 . S
C169 C168 1.312 . S
C170 O142 1.214 . S
C170 O150 1.234 . S
C171 H143 0.929 . S
C171 C174 1.391 . S
C171 C176 1.391 . S
C172 H144 0.929 . S
C172 C173 1.390 . S
C172 N175 1.391 . S
C173 H145 0.930 . S
C173 C172 1.390 . S
C173 C174 1.392 . S
C174 H146 0.929 . S
C174 C171 1.391 . S
C174 C173 1.392 . S
N175 Co119 2.257 . S
N175 C172 1.391 . S
N175 C176 1.388 . S
C176 H147 0.930 . S
C176 C171 1.391 . S
C176 N175 1.388 . S
Co177 O179 2.143 . S
Co177 O185 2.074 . S
Co177 O188 2.093 . S
Co177 O201 2.097 . S
Co177 N218 2.151 . S
Co177 N226 2.214 . S
Co178 O179 2.160 . S
Co178 O184 2.058 . S
Co178 O194 2.057 . S
Co178 O209 2.037 . S
Co178 N213 2.145 . S
Co178 N234 2.257 . S
O179 Co177 2.143 . S
O179 Co178 2.160 . S
C180 O181 1.278 . S
C180 O188 1.224 . S
O181 C180 1.278 . S
C182 O183 1.245 . S
C182 O194 1.232 . S
O183 C182 1.245 . S
O184 Co178 2.058 . S
O184 C210 1.269 . S
O185 Co177 2.074 . S
O185 C210 1.257 . S
H186 C211 0.930 . S
H187 C217 0.930 . S
O188 Co177 2.093 . S
O188 C180 1.224 . S
H189 C221 0.929 . S
H190 C223 0.930 . S
H191 C224 0.930 . S
H192 C222 0.929 . S
H193 C225 0.928 . S
O194 Co178 2.057 . S
O194 C182 1.232 . S
H195 C214 0.929 . S
H196 C215 0.929 . S
H197 C227 0.931 . S
H198 C219 0.929 . S
H199 C228 0.930 . S
H200 C220 0.931 . S
O201 Co177 2.097 . S
O201 C229 1.214 . S
H202 C230 0.929 . S
H203 C231 0.929 . S
H204 C232 0.930 . S
H205 C233 0.929 . S
H206 C235 0.930 . S
H207 C212 0.930 . S
H208 C216 0.930 . S
O209 Co178 2.037 . S
O209 C229 1.234 . S
C210 O184 1.269 . S
C210 O185 1.257 . S
C211 H186 0.930 . S
C211 C214 1.388 . S
C211 C216 1.418 . S
C212 H207 0.930 . S
C212 C215 1.404 . S
C212 C216 1.353 . S
N213 Co178 2.145 . S
N213 C214 1.397 . S
N213 C215 1.334 . S
C214 H195 0.929 . S
C214 C211 1.388 . S
C214 N213 1.397 . S
C215 H196 0.929 . S
C215 C212 1.404 . S
C215 N213 1.334 . S
C216 H208 0.930 . S
C216 C211 1.418 . S
C216 C212 1.353 . S
C217 H187 0.930 . S
C217 N218 1.330 . S
C217 C219 1.446 . S
N218 Co177 2.151 . S
N218 C217 1.330 . S
N218 C222 1.418 . S
C219 H198 0.929 . S
C219 C217 1.446 . S
C219 C220 1.332 . S
C220 H200 0.931 . S
C220 C219 1.332 . S
C220 C221 1.267 . S
C221 H189 0.929 . S
C221 C220 1.267 . S
C221 C222 1.251 . S
C222 H192 0.929 . S
C222 N218 1.418 . S
C222 C221 1.251 . S
C223 H190 0.930 . S
C223 C225 1.406 . S
C223 C228 1.261 . S
C224 H191 0.930 . S
C224 N226 1.325 . S
C224 C227 1.357 . S
C225 H193 0.928 . S
C225 C223 1.406 . S
C225 N226 1.261 . S
N226 Co177 2.214 . S
N226 C224 1.325 . S
N226 C225 1.261 . S
C227 H197 0.931 . S
C227 C224 1.357 . S
C227 C228 1.312 . S
C228 H199 0.930 . S
C228 C223 1.261 . S
C228 C227 1.312 . S
C229 O201 1.214 . S
C229 O209 1.234 . S
C230 H202 0.929 . S
C230 C233 1.391 . S
C230 C235 1.391 . S
C231 H203 0.929 . S
C231 C232 1.390 . S
C231 N234 1.391 . S
C232 H204 0.930 . S
C232 C231 1.390 . S
C232 C233 1.392 . S
C233 H205 0.929 . S
C233 C230 1.391 . S
C233 C232 1.392 . S
N234 Co178 2.257 . S
N234 C231 1.391 . S
N234 C235 1.388 . S
C235 H206 0.930 . S
C235 C230 1.391 . S
C235 N234 1.388 . S
Co236 O238 2.143 . S
Co236 O244 2.074 . S
Co236 O247 2.093 . S
Co236 O260 2.097 . S
Co236 N277 2.151 . S
Co236 N285 2.214 . S
Co237 O238 2.160 . S
Co237 O243 2.058 . S
Co237 O253 2.057 . S
Co237 O268 2.037 . S
Co237 N272 2.145 . S
Co237 N293 2.257 . S
O238 Co236 2.143 . S
O238 Co237 2.160 . S
C239 O240 1.278 . S
C239 O247 1.224 . S
O240 C239 1.278 . S
C241 O242 1.245 . S
C241 O253 1.232 . S
O242 C241 1.245 . S
O243 Co237 2.058 . S
O243 C269 1.269 . S
O244 Co236 2.074 . S
O244 C269 1.257 . S
H245 C270 0.930 . S
H246 C276 0.930 . S
O247 Co236 2.093 . S
O247 C239 1.224 . S
H248 C280 0.929 . S
H249 C282 0.930 . S
H250 C283 0.930 . S
H251 C281 0.929 . S
H252 C284 0.928 . S
O253 Co237 2.057 . S
O253 C241 1.232 . S
H254 C273 0.929 . S
H255 C274 0.929 . S
H256 C286 0.931 . S
H257 C278 0.929 . S
H258 C287 0.930 . S
H259 C279 0.931 . S
O260 Co236 2.097 . S
O260 C288 1.214 . S
H261 C289 0.929 . S
H262 C290 0.929 . S
H263 C291 0.930 . S
H264 C292 0.929 . S
H265 C294 0.930 . S
H266 C271 0.930 . S
H267 C275 0.930 . S
O268 Co237 2.037 . S
O268 C288 1.234 . S
C269 O243 1.269 . S
C269 O244 1.257 . S
C270 H245 0.930 . S
C270 C273 1.388 . S
C270 C275 1.418 . S
C271 H266 0.930 . S
C271 C274 1.404 . S
C271 C275 1.353 . S
N272 Co237 2.145 . S
N272 C273 1.397 . S
N272 C274 1.334 . S
C273 H254 0.929 . S
C273 C270 1.388 . S
C273 N272 1.397 . S
C274 H255 0.929 . S
C274 C271 1.404 . S
C274 N272 1.334 . S
C275 H267 0.930 . S
C275 C270 1.418 . S
C275 C271 1.353 . S
C276 H246 0.930 . S
C276 N277 1.330 . S
C276 C278 1.446 . S
N277 Co236 2.151 . S
N277 C276 1.330 . S
N277 C281 1.418 . S
C278 H257 0.929 . S
C278 C276 1.446 . S
C278 C279 1.332 . S
C279 H259 0.931 . S
C279 C278 1.332 . S
C279 C280 1.267 . S
C280 H248 0.929 . S
C280 C279 1.267 . S
C280 C281 1.251 . S
C281 H251 0.929 . S
C281 N277 1.418 . S
C281 C280 1.251 . S
C282 H249 0.930 . S
C282 C284 1.406 . S
C282 C287 1.261 . S
C283 H250 0.930 . S
C283 N285 1.325 . S
C283 C286 1.357 . S
C284 H252 0.928 . S
C284 C282 1.406 . S
C284 N285 1.261 . S
N285 Co236 2.214 . S
N285 C283 1.325 . S
N285 C284 1.261 . S
C286 H256 0.931 . S
C286 C283 1.357 . S
C286 C287 1.312 . S
C287 H258 0.930 . S
C287 C282 1.261 . S
C287 C286 1.312 . S
C288 O260 1.214 . S
C288 O268 1.234 . S
C289 H261 0.929 . S
C289 C292 1.391 . S
C289 C294 1.391 . S
C290 H262 0.929 . S
C290 C291 1.390 . S
C290 N293 1.391 . S
C291 H263 0.930 . S
C291 C290 1.390 . S
C291 C292 1.392 . S
C292 H264 0.929 . S
C292 C289 1.391 . S
C292 C291 1.392 . S
N293 Co237 2.257 . S
N293 C290 1.391 . S
N293 C294 1.388 . S
C294 H265 0.930 . S
C294 C289 1.391 . S
C294 N293 1.388 . S
Co295 O297 2.143 . S
Co295 O303 2.074 . S
Co295 O306 2.093 . S
Co295 O319 2.097 . S
Co295 N336 2.151 . S
Co295 N344 2.214 . S
Co296 O297 2.160 . S
Co296 O302 2.058 . S
Co296 O312 2.057 . S
Co296 O327 2.037 . S
Co296 N331 2.145 . S
Co296 N352 2.257 . S
O297 Co295 2.143 . S
O297 Co296 2.160 . S
C298 O299 1.278 . S
C298 O306 1.224 . S
O299 C298 1.278 . S
C300 O301 1.245 . S
C300 O312 1.232 . S
O301 C300 1.245 . S
O302 Co296 2.058 . S
O302 C328 1.269 . S
O303 Co295 2.074 . S
O303 C328 1.257 . S
H304 C329 0.930 . S
H305 C335 0.930 . S
O306 Co295 2.093 . S
O306 C298 1.224 . S
H307 C339 0.929 . S
H308 C341 0.930 . S
H309 C342 0.930 . S
H310 C340 0.929 . S
H311 C343 0.928 . S
O312 Co296 2.057 . S
O312 C300 1.232 . S
H313 C332 0.929 . S
H314 C333 0.929 . S
H315 C345 0.931 . S
H316 C337 0.929 . S
H317 C346 0.930 . S
H318 C338 0.931 . S
O319 Co295 2.097 . S
O319 C347 1.214 . S
H320 C348 0.929 . S
H321 C349 0.929 . S
H322 C350 0.930 . S
H323 C351 0.929 . S
H324 C353 0.930 . S
H325 C330 0.930 . S
H326 C334 0.930 . S
O327 Co296 2.037 . S
O327 C347 1.234 . S
C328 O302 1.269 . S
C328 O303 1.257 . S
C329 H304 0.930 . S
C329 C332 1.388 . S
C329 C334 1.418 . S
C330 H325 0.930 . S
C330 C333 1.404 . S
C330 C334 1.353 . S
N331 Co296 2.145 . S
N331 C332 1.397 . S
N331 C333 1.334 . S
C332 H313 0.929 . S
C332 C329 1.388 . S
C332 N331 1.397 . S
C333 H314 0.929 . S
C333 C330 1.404 . S
C333 N331 1.334 . S
C334 H326 0.930 . S
C334 C329 1.418 . S
C334 C330 1.353 . S
C335 H305 0.930 . S
C335 N336 1.330 . S
C335 C337 1.446 . S
N336 Co295 2.151 . S
N336 C335 1.330 . S
N336 C340 1.418 . S
C337 H316 0.929 . S
C337 C335 1.446 . S
C337 C338 1.332 . S
C338 H318 0.931 . S
C338 C337 1.332 . S
C338 C339 1.267 . S
C339 H307 0.929 . S
C339 C338 1.267 . S
C339 C340 1.251 . S
C340 H310 0.929 . S
C340 N336 1.418 . S
C340 C339 1.251 . S
C341 H308 0.930 . S
C341 C343 1.406 . S
C341 C346 1.261 . S
C342 H309 0.930 . S
C342 N344 1.325 . S
C342 C345 1.357 . S
C343 H311 0.928 . S
C343 C341 1.406 . S
C343 N344 1.261 . S
N344 Co295 2.214 . S
N344 C342 1.325 . S
N344 C343 1.261 . S
C345 H315 0.931 . S
C345 C342 1.357 . S
C345 C346 1.312 . S
C346 H317 0.930 . S
C346 C341 1.261 . S
C346 C345 1.312 . S
C347 O319 1.214 . S
C347 O327 1.234 . S
C348 H320 0.929 . S
C348 C351 1.391 . S
C348 C353 1.391 . S
C349 H321 0.929 . S
C349 C350 1.390 . S
C349 N352 1.391 . S
C350 H322 0.930 . S
C350 C349 1.390 . S
C350 C351 1.392 . S
C351 H323 0.929 . S
C351 C348 1.391 . S
C351 C350 1.392 . S
N352 Co296 2.257 . S
N352 C349 1.391 . S
N352 C353 1.388 . S
C353 H324 0.930 . S
C353 C348 1.391 . S
C353 N352 1.388 . S
Co354 O356 2.143 . S
Co354 O362 2.074 . S
Co354 O365 2.093 . S
Co354 O378 2.097 . S
Co354 N395 2.151 . S
Co354 N403 2.214 . S
Co355 O356 2.160 . S
Co355 O361 2.058 . S
Co355 O371 2.057 . S
Co355 O386 2.037 . S
Co355 N390 2.145 . S
Co355 N411 2.257 . S
O356 Co354 2.143 . S
O356 Co355 2.160 . S
C357 O358 1.278 . S
C357 O365 1.224 . S
O358 C357 1.278 . S
C359 O360 1.245 . S
C359 O371 1.232 . S
O360 C359 1.245 . S
O361 Co355 2.058 . S
O361 C387 1.269 . S
O362 Co354 2.074 . S
O362 C387 1.257 . S
H363 C388 0.930 . S
H364 C394 0.930 . S
O365 Co354 2.093 . S
O365 C357 1.224 . S
H366 C398 0.929 . S
H367 C400 0.930 . S
H368 C401 0.930 . S
H369 C399 0.929 . S
H370 C402 0.928 . S
O371 Co355 2.057 . S
O371 C359 1.232 . S
H372 C391 0.929 . S
H373 C392 0.929 . S
H374 C404 0.931 . S
H375 C396 0.929 . S
H376 C405 0.930 . S
H377 C397 0.931 . S
O378 Co354 2.097 . S
O378 C406 1.214 . S
H379 C407 0.929 . S
H380 C408 0.929 . S
H381 C409 0.930 . S
H382 C410 0.929 . S
H383 C412 0.930 . S
H384 C389 0.930 . S
H385 C393 0.930 . S
O386 Co355 2.037 . S
O386 C406 1.234 . S
C387 O361 1.269 . S
C387 O362 1.257 . S
C388 H363 0.930 . S
C388 C391 1.388 . S
C388 C393 1.418 . S
C389 H384 0.930 . S
C389 C392 1.404 . S
C389 C393 1.353 . S
N390 Co355 2.145 . S
N390 C391 1.397 . S
N390 C392 1.334 . S
C391 H372 0.929 . S
C391 C388 1.388 . S
C391 N390 1.397 . S
C392 H373 0.929 . S
C392 C389 1.404 . S
C392 N390 1.334 . S
C393 H385 0.930 . S
C393 C388 1.418 . S
C393 C389 1.353 . S
C394 H364 0.930 . S
C394 N395 1.330 . S
C394 C396 1.446 . S
N395 Co354 2.151 . S
N395 C394 1.330 . S
N395 C399 1.418 . S
C396 H375 0.929 . S
C396 C394 1.446 . S
C396 C397 1.332 . S
C397 H377 0.931 . S
C397 C396 1.332 . S
C397 C398 1.267 . S
C398 H366 0.929 . S
C398 C397 1.267 . S
C398 C399 1.251 . S
C399 H369 0.929 . S
C399 N395 1.418 . S
C399 C398 1.251 . S
C400 H367 0.930 . S
C400 C402 1.406 . S
C400 C405 1.261 . S
C401 H368 0.930 . S
C401 N403 1.325 . S
C401 C404 1.357 . S
C402 H370 0.928 . S
C402 C400 1.406 . S
C402 N403 1.261 . S
N403 Co354 2.214 . S
N403 C401 1.325 . S
N403 C402 1.261 . S
C404 H374 0.931 . S
C404 C401 1.357 . S
C404 C405 1.312 . S
C405 H376 0.930 . S
C405 C400 1.261 . S
C405 C404 1.312 . S
C406 O378 1.214 . S
C406 O386 1.234 . S
C407 H379 0.929 . S
C407 C410 1.391 . S
C407 C412 1.391 . S
C408 H380 0.929 . S
C408 C409 1.390 . S
C408 N411 1.391 . S
C409 H381 0.930 . S
C409 C408 1.390 . S
C409 C410 1.392 . S
C410 H382 0.929 . S
C410 C407 1.391 . S
C410 C409 1.392 . S
N411 Co355 2.257 . S
N411 C408 1.391 . S
N411 C412 1.388 . S
C412 H383 0.930 . S
C412 C407 1.391 . S
C412 N411 1.388 . S
Co413 O415 2.143 . S
Co413 O421 2.074 . S
Co413 O424 2.093 . S
Co413 O437 2.097 . S
Co413 N454 2.151 . S
Co413 N462 2.214 . S
Co414 O415 2.160 . S
Co414 O420 2.058 . S
Co414 O430 2.057 . S
Co414 O445 2.037 . S
Co414 N449 2.145 . S
Co414 N470 2.257 . S
O415 Co413 2.143 . S
O415 Co414 2.160 . S
C416 O417 1.278 . S
C416 O424 1.224 . S
O417 C416 1.278 . S
C418 O419 1.245 . S
C418 O430 1.232 . S
O419 C418 1.245 . S
O420 Co414 2.058 . S
O420 C446 1.269 . S
O421 Co413 2.074 . S
O421 C446 1.257 . S
H422 C447 0.930 . S
H423 C453 0.930 . S
O424 Co413 2.093 . S
O424 C416 1.224 . S
H425 C457 0.929 . S
H426 C459 0.930 . S
H427 C460 0.930 . S
H428 C458 0.929 . S
H429 C461 0.928 . S
O430 Co414 2.057 . S
O430 C418 1.232 . S
H431 C450 0.929 . S
H432 C451 0.929 . S
H433 C463 0.931 . S
H434 C455 0.929 . S
H435 C464 0.930 . S
H436 C456 0.931 . S
O437 Co413 2.097 . S
O437 C465 1.214 . S
H438 C466 0.929 . S
H439 C467 0.929 . S
H440 C468 0.930 . S
H441 C469 0.929 . S
H442 C471 0.930 . S
H443 C448 0.930 . S
H444 C452 0.930 . S
O445 Co414 2.037 . S
O445 C465 1.234 . S
C446 O420 1.269 . S
C446 O421 1.257 . S
C447 H422 0.930 . S
C447 C450 1.388 . S
C447 C452 1.418 . S
C448 H443 0.930 . S
C448 C451 1.404 . S
C448 C452 1.353 . S
N449 Co414 2.145 . S
N449 C450 1.397 . S
N449 C451 1.334 . S
C450 H431 0.929 . S
C450 C447 1.388 . S
C450 N449 1.397 . S
C451 H432 0.929 . S
C451 C448 1.404 . S
C451 N449 1.334 . S
C452 H444 0.930 . S
C452 C447 1.418 . S
C452 C448 1.353 . S
C453 H423 0.930 . S
C453 N454 1.330 . S
C453 C455 1.446 . S
N454 Co413 2.151 . S
N454 C453 1.330 . S
N454 C458 1.418 . S
C455 H434 0.929 . S
C455 C453 1.446 . S
C455 C456 1.332 . S
C456 H436 0.931 . S
C456 C455 1.332 . S
C456 C457 1.267 . S
C457 H425 0.929 . S
C457 C456 1.267 . S
C457 C458 1.251 . S
C458 H428 0.929 . S
C458 N454 1.418 . S
C458 C457 1.251 . S
C459 H426 0.930 . S
C459 C461 1.406 . S
C459 C464 1.261 . S
C460 H427 0.930 . S
C460 N462 1.325 . S
C460 C463 1.357 . S
C461 H429 0.928 . S
C461 C459 1.406 . S
C461 N462 1.261 . S
N462 Co413 2.214 . S
N462 C460 1.325 . S
N462 C461 1.261 . S
C463 H433 0.931 . S
C463 C460 1.357 . S
C463 C464 1.312 . S
C464 H435 0.930 . S
C464 C459 1.261 . S
C464 C463 1.312 . S
C465 O437 1.214 . S
C465 O445 1.234 . S
C466 H438 0.929 . S
C466 C469 1.391 . S
C466 C471 1.391 . S
C467 H439 0.929 . S
C467 C468 1.390 . S
C467 N470 1.391 . S
C468 H440 0.930 . S
C468 C467 1.390 . S
C468 C469 1.392 . S
C469 H441 0.929 . S
C469 C466 1.391 . S
C469 C468 1.392 . S
N470 Co414 2.257 . S
N470 C467 1.391 . S
N470 C471 1.388 . S
C471 H442 0.930 . S
C471 C466 1.391 . S
C471 N470 1.388 . S
Co472 O474 2.143 . S
Co472 O480 2.074 . S
Co472 O483 2.093 . S
Co472 O496 2.097 . S
Co472 N513 2.151 . S
Co472 N521 2.214 . S
Co473 O474 2.160 . S
Co473 O479 2.058 . S
Co473 O489 2.057 . S
Co473 O504 2.037 . S
Co473 N508 2.145 . S
Co473 N529 2.257 . S
O474 Co472 2.143 . S
O474 Co473 2.160 . S
C475 O476 1.278 . S
C475 O483 1.224 . S
O476 C475 1.278 . S
C477 O478 1.245 . S
C477 O489 1.232 . S
O478 C477 1.245 . S
O479 Co473 2.058 . S
O479 C505 1.269 . S
O480 Co472 2.074 . S
O480 C505 1.257 . S
H481 C506 0.930 . S
H482 C512 0.930 . S
O483 Co472 2.093 . S
O483 C475 1.224 . S
H484 C516 0.929 . S
H485 C518 0.930 . S
H486 C519 0.930 . S
H487 C517 0.929 . S
H488 C520 0.928 . S
O489 Co473 2.057 . S
O489 C477 1.232 . S
H490 C509 0.929 . S
H491 C510 0.929 . S
H492 C522 0.931 . S
H493 C514 0.929 . S
H494 C523 0.930 . S
H495 C515 0.931 . S
O496 Co472 2.097 . S
O496 C524 1.214 . S
H497 C525 0.929 . S
H498 C526 0.929 . S
H499 C527 0.930 . S
H500 C528 0.929 . S
H501 C530 0.930 . S
H502 C507 0.930 . S
H503 C511 0.930 . S
O504 Co473 2.037 . S
O504 C524 1.234 . S
C505 O479 1.269 . S
C505 O480 1.257 . S
C506 H481 0.930 . S
C506 C509 1.388 . S
C506 C511 1.418 . S
C507 H502 0.930 . S
C507 C510 1.404 . S
C507 C511 1.353 . S
N508 Co473 2.145 . S
N508 C509 1.397 . S
N508 C510 1.334 . S
C509 H490 0.929 . S
C509 C506 1.388 . S
C509 N508 1.397 . S
C510 H491 0.929 . S
C510 C507 1.404 . S
C510 N508 1.334 . S
C511 H503 0.930 . S
C511 C506 1.418 . S
C511 C507 1.353 . S
C512 H482 0.930 . S
C512 N513 1.330 . S
C512 C514 1.446 . S
N513 Co472 2.151 . S
N513 C512 1.330 . S
N513 C517 1.418 . S
C514 H493 0.929 . S
C514 C512 1.446 . S
C514 C515 1.332 . S
C515 H495 0.931 . S
C515 C514 1.332 . S
C515 C516 1.267 . S
C516 H484 0.929 . S
C516 C515 1.267 . S
C516 C517 1.251 . S
C517 H487 0.929 . S
C517 N513 1.418 . S
C517 C516 1.251 . S
C518 H485 0.930 . S
C518 C520 1.406 . S
C518 C523 1.261 . S
C519 H486 0.930 . S
C519 N521 1.325 . S
C519 C522 1.357 . S
C520 H488 0.928 . S
C520 C518 1.406 . S
C520 N521 1.261 . S
N521 Co472 2.214 . S
N521 C519 1.325 . S
N521 C520 1.261 . S
C522 H492 0.931 . S
C522 C519 1.357 . S
C522 C523 1.312 . S
C523 H494 0.930 . S
C523 C518 1.261 . S
C523 C522 1.312 . S
C524 O496 1.214 . S
C524 O504 1.234 . S
C525 H497 0.929 . S
C525 C528 1.391 . S
C525 C530 1.391 . S
C526 H498 0.929 . S
C526 C527 1.390 . S
C526 N529 1.391 . S
C527 H499 0.930 . S
C527 C526 1.390 . S
C527 C528 1.392 . S
C528 H500 0.929 . S
C528 C525 1.391 . S
C528 C527 1.392 . S
N529 Co473 2.257 . S
N529 C526 1.391 . S
N529 C530 1.388 . S
C530 H501 0.930 . S
C530 C525 1.391 . S
C530 N529 1.388 . S
Co531 O533 2.143 . S
Co531 O539 2.074 . S
Co531 O542 2.093 . S
Co531 O555 2.097 . S
Co531 N572 2.151 . S
Co531 N580 2.214 . S
Co532 O533 2.160 . S
Co532 O538 2.058 . S
Co532 O548 2.057 . S
Co532 O563 2.037 . S
Co532 N567 2.145 . S
Co532 N588 2.257 . S
O533 Co531 2.143 . S
O533 Co532 2.160 . S
C534 O535 1.278 . S
C534 O542 1.224 . S
O535 C534 1.278 . S
C536 O537 1.245 . S
C536 O548 1.232 . S
O537 C536 1.245 . S
O538 Co532 2.058 . S
O538 C564 1.269 . S
O539 Co531 2.074 . S
O539 C564 1.257 . S
H540 C565 0.930 . S
H541 C571 0.930 . S
O542 Co531 2.093 . S
O542 C534 1.224 . S
H543 C575 0.929 . S
H544 C577 0.930 . S
H545 C578 0.930 . S
H546 C576 0.929 . S
H547 C579 0.928 . S
O548 Co532 2.057 . S
O548 C536 1.232 . S
H549 C568 0.929 . S
H550 C569 0.929 . S
H551 C581 0.931 . S
H552 C573 0.929 . S
H553 C582 0.930 . S
H554 C574 0.931 . S
O555 Co531 2.097 . S
O555 C583 1.214 . S
H556 C584 0.929 . S
H557 C585 0.929 . S
H558 C586 0.930 . S
H559 C587 0.929 . S
H560 C589 0.930 . S
H561 C566 0.930 . S
H562 C570 0.930 . S
O563 Co532 2.037 . S
O563 C583 1.234 . S
C564 O538 1.269 . S
C564 O539 1.257 . S
C565 H540 0.930 . S
C565 C568 1.388 . S
C565 C570 1.418 . S
C566 H561 0.930 . S
C566 C569 1.404 . S
C566 C570 1.353 . S
N567 Co532 2.145 . S
N567 C568 1.397 . S
N567 C569 1.334 . S
C568 H549 0.929 . S
C568 C565 1.388 . S
C568 N567 1.397 . S
C569 H550 0.929 . S
C569 C566 1.404 . S
C569 N567 1.334 . S
C570 H562 0.930 . S
C570 C565 1.418 . S
C570 C566 1.353 . S
C571 H541 0.930 . S
C571 N572 1.330 . S
C571 C573 1.446 . S
N572 Co531 2.151 . S
N572 C571 1.330 . S
N572 C576 1.418 . S
C573 H552 0.929 . S
C573 C571 1.446 . S
C573 C574 1.332 . S
C574 H554 0.931 . S
C574 C573 1.332 . S
C574 C575 1.267 . S
C575 H543 0.929 . S
C575 C574 1.267 . S
C575 C576 1.251 . S
C576 H546 0.929 . S
C576 N572 1.418 . S
C576 C575 1.251 . S
C577 H544 0.930 . S
C577 C579 1.406 . S
C577 C582 1.261 . S
C578 H545 0.930 . S
C578 N580 1.325 . S
C578 C581 1.357 . S
C579 H547 0.928 . S
C579 C577 1.406 . S
C579 N580 1.261 . S
N580 Co531 2.214 . S
N580 C578 1.325 . S
N580 C579 1.261 . S
C581 H551 0.931 . S
C581 C578 1.357 . S
C581 C582 1.312 . S
C582 H553 0.930 . S
C582 C577 1.261 . S
C582 C581 1.312 . S
C583 O555 1.214 . S
C583 O563 1.234 . S
C584 H556 0.929 . S
C584 C587 1.391 . S
C584 C589 1.391 . S
C585 H557 0.929 . S
C585 C586 1.390 . S
C585 N588 1.391 . S
C586 H558 0.930 . S
C586 C585 1.390 . S
C586 C587 1.392 . S
C587 H559 0.929 . S
C587 C584 1.391 . S
C587 C586 1.392 . S
N588 Co532 2.257 . S
N588 C585 1.391 . S
N588 C589 1.388 . S
C589 H560 0.930 . S
C589 C584 1.391 . S
C589 N588 1.388 . S
Co590 O592 2.143 . S
Co590 O598 2.074 . S
Co590 O601 2.093 . S
Co590 O614 2.097 . S
Co590 N631 2.151 . S
Co590 N639 2.214 . S
Co591 O592 2.160 . S
Co591 O597 2.058 . S
Co591 O607 2.057 . S
Co591 O622 2.037 . S
Co591 N626 2.145 . S
Co591 N647 2.257 . S
O592 Co590 2.143 . S
O592 Co591 2.160 . S
C593 O594 1.278 . S
C593 O601 1.224 . S
O594 C593 1.278 . S
C595 O596 1.245 . S
C595 O607 1.232 . S
O596 C595 1.245 . S
O597 Co591 2.058 . S
O597 C623 1.269 . S
O598 Co590 2.074 . S
O598 C623 1.257 . S
H599 C624 0.930 . S
H600 C630 0.930 . S
O601 Co590 2.093 . S
O601 C593 1.224 . S
H602 C634 0.929 . S
H603 C636 0.930 . S
H604 C637 0.930 . S
H605 C635 0.929 . S
H606 C638 0.928 . S
O607 Co591 2.057 . S
O607 C595 1.232 . S
H608 C627 0.929 . S
H609 C628 0.929 . S
H610 C640 0.931 . S
H611 C632 0.929 . S
H612 C641 0.930 . S
H613 C633 0.931 . S
O614 Co590 2.097 . S
O614 C642 1.214 . S
H615 C643 0.929 . S
H616 C644 0.929 . S
H617 C645 0.930 . S
H618 C646 0.929 . S
H619 C648 0.930 . S
H620 C625 0.930 . S
H621 C629 0.930 . S
O622 Co591 2.037 . S
O622 C642 1.234 . S
C623 O597 1.269 . S
C623 O598 1.257 . S
C624 H599 0.930 . S
C624 C627 1.388 . S
C624 C629 1.418 . S
C625 H620 0.930 . S
C625 C628 1.404 . S
C625 C629 1.353 . S
N626 Co591 2.145 . S
N626 C627 1.397 . S
N626 C628 1.334 . S
C627 H608 0.929 . S
C627 C624 1.388 . S
C627 N626 1.397 . S
C628 H609 0.929 . S
C628 C625 1.404 . S
C628 N626 1.334 . S
C629 H621 0.930 . S
C629 C624 1.418 . S
C629 C625 1.353 . S
C630 H600 0.930 . S
C630 N631 1.330 . S
C630 C632 1.446 . S
N631 Co590 2.151 . S
N631 C630 1.330 . S
N631 C635 1.418 . S
C632 H611 0.929 . S
C632 C630 1.446 . S
C632 C633 1.332 . S
C633 H613 0.931 . S
C633 C632 1.332 . S
C633 C634 1.267 . S
C634 H602 0.929 . S
C634 C633 1.267 . S
C634 C635 1.251 . S
C635 H605 0.929 . S
C635 N631 1.418 . S
C635 C634 1.251 . S
C636 H603 0.930 . S
C636 C638 1.406 . S
C636 C641 1.261 . S
C637 H604 0.930 . S
C637 N639 1.325 . S
C637 C640 1.357 . S
C638 H606 0.928 . S
C638 C636 1.406 . S
C638 N639 1.261 . S
N639 Co590 2.214 . S
N639 C637 1.325 . S
N639 C638 1.261 . S
C640 H610 0.931 . S
C640 C637 1.357 . S
C640 C641 1.312 . S
C641 H612 0.930 . S
C641 C636 1.261 . S
C641 C640 1.312 . S
C642 O614 1.214 . S
C642 O622 1.234 . S
C643 H615 0.929 . S
C643 C646 1.391 . S
C643 C648 1.391 . S
C644 H616 0.929 . S
C644 C645 1.390 . S
C644 N647 1.391 . S
C645 H617 0.930 . S
C645 C644 1.390 . S
C645 C646 1.392 . S
C646 H618 0.929 . S
C646 C643 1.391 . S
C646 C645 1.392 . S
N647 Co591 2.257 . S
N647 C644 1.391 . S
N647 C648 1.388 . S
C648 H619 0.930 . S
C648 C643 1.391 . S
C648 N647 1.388 . S
Co649 O651 2.143 . S
Co649 O657 2.074 . S
Co649 O660 2.093 . S
Co649 O673 2.097 . S
Co649 N690 2.151 . S
Co649 N698 2.214 . S
Co650 O651 2.160 . S
Co650 O656 2.058 . S
Co650 O666 2.057 . S
Co650 O681 2.037 . S
Co650 N685 2.145 . S
Co650 N706 2.257 . S
O651 Co649 2.143 . S
O651 Co650 2.160 . S
C652 O653 1.278 . S
C652 O660 1.224 . S
O653 C652 1.278 . S
C654 O655 1.245 . S
C654 O666 1.232 . S
O655 C654 1.245 . S
O656 Co650 2.058 . S
O656 C682 1.269 . S
O657 Co649 2.074 . S
O657 C682 1.257 . S
H658 C683 0.930 . S
H659 C689 0.930 . S
O660 Co649 2.093 . S
O660 C652 1.224 . S
H661 C693 0.929 . S
H662 C695 0.930 . S
H663 C696 0.930 . S
H664 C694 0.929 . S
H665 C697 0.928 . S
O666 Co650 2.057 . S
O666 C654 1.232 . S
H667 C686 0.929 . S
H668 C687 0.929 . S
H669 C699 0.931 . S
H670 C691 0.929 . S
H671 C700 0.930 . S
H672 C692 0.931 . S
O673 Co649 2.097 . S
O673 C701 1.214 . S
H674 C702 0.929 . S
H675 C703 0.929 . S
H676 C704 0.930 . S
H677 C705 0.929 . S
H678 C707 0.930 . S
H679 C684 0.930 . S
H680 C688 0.930 . S
O681 Co650 2.037 . S
O681 C701 1.234 . S
C682 O656 1.269 . S
C682 O657 1.257 . S
C683 H658 0.930 . S
C683 C686 1.388 . S
C683 C688 1.418 . S
C684 H679 0.930 . S
C684 C687 1.404 . S
C684 C688 1.353 . S
N685 Co650 2.145 . S
N685 C686 1.397 . S
N685 C687 1.334 . S
C686 H667 0.929 . S
C686 C683 1.388 . S
C686 N685 1.397 . S
C687 H668 0.929 . S
C687 C684 1.404 . S
C687 N685 1.334 . S
C688 H680 0.930 . S
C688 C683 1.418 . S
C688 C684 1.353 . S
C689 H659 0.930 . S
C689 N690 1.330 . S
C689 C691 1.446 . S
N690 Co649 2.151 . S
N690 C689 1.330 . S
N690 C694 1.418 . S
C691 H670 0.929 . S
C691 C689 1.446 . S
C691 C692 1.332 . S
C692 H672 0.931 . S
C692 C691 1.332 . S
C692 C693 1.267 . S
C693 H661 0.929 . S
C693 C692 1.267 . S
C693 C694 1.251 . S
C694 H664 0.929 . S
C694 N690 1.418 . S
C694 C693 1.251 . S
C695 H662 0.930 . S
C695 C697 1.406 . S
C695 C700 1.261 . S
C696 H663 0.930 . S
C696 N698 1.325 . S
C696 C699 1.357 . S
C697 H665 0.928 . S
C697 C695 1.406 . S
C697 N698 1.261 . S
N698 Co649 2.214 . S
N698 C696 1.325 . S
N698 C697 1.261 . S
C699 H669 0.931 . S
C699 C696 1.357 . S
C699 C700 1.312 . S
C700 H671 0.930 . S
C700 C695 1.261 . S
C700 C699 1.312 . S
C701 O673 1.214 . S
C701 O681 1.234 . S
C702 H674 0.929 . S
C702 C705 1.391 . S
C702 C707 1.391 . S
C703 H675 0.929 . S
C703 C704 1.390 . S
C703 N706 1.391 . S
C704 H676 0.930 . S
C704 C703 1.390 . S
C704 C705 1.392 . S
C705 H677 0.929 . S
C705 C702 1.391 . S
C705 C704 1.392 . S
N706 Co650 2.257 . S
N706 C703 1.391 . S
N706 C707 1.388 . S
C707 H678 0.930 . S
C707 C702 1.391 . S
C707 N706 1.388 . S
Co708 O710 2.143 . S
Co708 O716 2.074 . S
Co708 O719 2.093 . S
Co708 O732 2.097 . S
Co708 N749 2.151 . S
Co708 N757 2.214 . S
Co709 O710 2.160 . S
Co709 O715 2.058 . S
Co709 O725 2.057 . S
Co709 O740 2.037 . S
Co709 N744 2.145 . S
Co709 N765 2.257 . S
O710 Co708 2.143 . S
O710 Co709 2.160 . S
C711 O712 1.278 . S
C711 O719 1.224 . S
O712 C711 1.278 . S
C713 O714 1.245 . S
C713 O725 1.232 . S
O714 C713 1.245 . S
O715 Co709 2.058 . S
O715 C741 1.269 . S
O716 Co708 2.074 . S
O716 C741 1.257 . S
H717 C742 0.930 . S
H718 C748 0.930 . S
O719 Co708 2.093 . S
O719 C711 1.224 . S
H720 C752 0.929 . S
H721 C754 0.930 . S
H722 C755 0.930 . S
H723 C753 0.929 . S
H724 C756 0.928 . S
O725 Co709 2.057 . S
O725 C713 1.232 . S
H726 C745 0.929 . S
H727 C746 0.929 . S
H728 C758 0.931 . S
H729 C750 0.929 . S
H730 C759 0.930 . S
H731 C751 0.931 . S
O732 Co708 2.097 . S
O732 C760 1.214 . S
H733 C761 0.929 . S
H734 C762 0.929 . S
H735 C763 0.930 . S
H736 C764 0.929 . S
H737 C766 0.930 . S
H738 C743 0.930 . S
H739 C747 0.930 . S
O740 Co709 2.037 . S
O740 C760 1.234 . S
C741 O715 1.269 . S
C741 O716 1.257 . S
C742 H717 0.930 . S
C742 C745 1.388 . S
C742 C747 1.418 . S
C743 H738 0.930 . S
C743 C746 1.404 . S
C743 C747 1.353 . S
N744 Co709 2.145 . S
N744 C745 1.397 . S
N744 C746 1.334 . S
C745 H726 0.929 . S
C745 C742 1.388 . S
C745 N744 1.397 . S
C746 H727 0.929 . S
C746 C743 1.404 . S
C746 N744 1.334 . S
C747 H739 0.930 . S
C747 C742 1.418 . S
C747 C743 1.353 . S
C748 H718 0.930 . S
C748 N749 1.330 . S
C748 C750 1.446 . S
N749 Co708 2.151 . S
N749 C748 1.330 . S
N749 C753 1.418 . S
C750 H729 0.929 . S
C750 C748 1.446 . S
C750 C751 1.332 . S
C751 H731 0.931 . S
C751 C750 1.332 . S
C751 C752 1.267 . S
C752 H720 0.929 . S
C752 C751 1.267 . S
C752 C753 1.251 . S
C753 H723 0.929 . S
C753 N749 1.418 . S
C753 C752 1.251 . S
C754 H721 0.930 . S
C754 C756 1.406 . S
C754 C759 1.261 . S
C755 H722 0.930 . S
C755 N757 1.325 . S
C755 C758 1.357 . S
C756 H724 0.928 . S
C756 C754 1.406 . S
C756 N757 1.261 . S
N757 Co708 2.214 . S
N757 C755 1.325 . S
N757 C756 1.261 . S
C758 H728 0.931 . S
C758 C755 1.357 . S
C758 C759 1.312 . S
C759 H730 0.930 . S
C759 C754 1.261 . S
C759 C758 1.312 . S
C760 O732 1.214 . S
C760 O740 1.234 . S
C761 H733 0.929 . S
C761 C764 1.391 . S
C761 C766 1.391 . S
C762 H734 0.929 . S
C762 C763 1.390 . S
C762 N765 1.391 . S
C763 H735 0.930 . S
C763 C762 1.390 . S
C763 C764 1.392 . S
C764 H736 0.929 . S
C764 C761 1.391 . S
C764 C763 1.392 . S
N765 Co709 2.257 . S
N765 C762 1.391 . S
N765 C766 1.388 . S
C766 H737 0.930 . S
C766 C761 1.391 . S
C766 N765 1.388 . S
Co767 O769 2.143 . S
Co767 O775 2.074 . S
Co767 O778 2.093 . S
Co767 O791 2.097 . S
Co767 N808 2.151 . S
Co767 N816 2.214 . S
Co768 O769 2.160 . S
Co768 O774 2.058 . S
Co768 O784 2.057 . S
Co768 O799 2.037 . S
Co768 N803 2.145 . S
Co768 N824 2.257 . S
O769 Co767 2.143 . S
O769 Co768 2.160 . S
C770 O771 1.278 . S
C770 O778 1.224 . S
O771 C770 1.278 . S
C772 O773 1.245 . S
C772 O784 1.232 . S
O773 C772 1.245 . S
O774 Co768 2.058 . S
O774 C800 1.269 . S
O775 Co767 2.074 . S
O775 C800 1.257 . S
H776 C801 0.930 . S
H777 C807 0.930 . S
O778 Co767 2.093 . S
O778 C770 1.224 . S
H779 C811 0.929 . S
H780 C813 0.930 . S
H781 C814 0.930 . S
H782 C812 0.929 . S
H783 C815 0.928 . S
O784 Co768 2.057 . S
O784 C772 1.232 . S
H785 C804 0.929 . S
H786 C805 0.929 . S
H787 C817 0.931 . S
H788 C809 0.929 . S
H789 C818 0.930 . S
H790 C810 0.931 . S
O791 Co767 2.097 . S
O791 C819 1.214 . S
H792 C820 0.929 . S
H793 C821 0.929 . S
H794 C822 0.930 . S
H795 C823 0.929 . S
H796 C825 0.930 . S
H797 C802 0.930 . S
H798 C806 0.930 . S
O799 Co768 2.037 . S
O799 C819 1.234 . S
C800 O774 1.269 . S
C800 O775 1.257 . S
C801 H776 0.930 . S
C801 C804 1.388 . S
C801 C806 1.418 . S
C802 H797 0.930 . S
C802 C805 1.404 . S
C802 C806 1.353 . S
N803 Co768 2.145 . S
N803 C804 1.397 . S
N803 C805 1.334 . S
C804 H785 0.929 . S
C804 C801 1.388 . S
C804 N803 1.397 . S
C805 H786 0.929 . S
C805 C802 1.404 . S
C805 N803 1.334 . S
C806 H798 0.930 . S
C806 C801 1.418 . S
C806 C802 1.353 . S
C807 H777 0.930 . S
C807 N808 1.330 . S
C807 C809 1.446 . S
N808 Co767 2.151 . S
N808 C807 1.330 . S
N808 C812 1.418 . S
C809 H788 0.929 . S
C809 C807 1.446 . S
C809 C810 1.332 . S
C810 H790 0.931 . S
C810 C809 1.332 . S
C810 C811 1.267 . S
C811 H779 0.929 . S
C811 C810 1.267 . S
C811 C812 1.251 . S
C812 H782 0.929 . S
C812 N808 1.418 . S
C812 C811 1.251 . S
C813 H780 0.930 . S
C813 C815 1.406 . S
C813 C818 1.261 . S
C814 H781 0.930 . S
C814 N816 1.325 . S
C814 C817 1.357 . S
C815 H783 0.928 . S
C815 C813 1.406 . S
C815 N816 1.261 . S
N816 Co767 2.214 . S
N816 C814 1.325 . S
N816 C815 1.261 . S
C817 H787 0.931 . S
C817 C814 1.357 . S
C817 C818 1.312 . S
C818 H789 0.930 . S
C818 C813 1.261 . S
C818 C817 1.312 . S
C819 O791 1.214 . S
C819 O799 1.234 . S
C820 H792 0.929 . S
C820 C823 1.391 . S
C820 C825 1.391 . S
C821 H793 0.929 . S
C821 C822 1.390 . S
C821 N824 1.391 . S
C822 H794 0.930 . S
C822 C821 1.390 . S
C822 C823 1.392 . S
C823 H795 0.929 . S
C823 C820 1.391 . S
C823 C822 1.392 . S
N824 Co768 2.257 . S
N824 C821 1.391 . S
N824 C825 1.388 . S
C825 H796 0.930 . S
C825 C820 1.391 . S
C825 N824 1.388 . S
Co826 O828 2.143 . S
Co826 O834 2.074 . S
Co826 O837 2.093 . S
Co826 O850 2.097 . S
Co826 N867 2.151 . S
Co826 N875 2.214 . S
Co827 O828 2.160 . S
Co827 O833 2.058 . S
Co827 O843 2.057 . S
Co827 O858 2.037 . S
Co827 N862 2.145 . S
Co827 N883 2.257 . S
O828 Co826 2.143 . S
O828 Co827 2.160 . S
C829 O830 1.278 . S
C829 O837 1.224 . S
O830 C829 1.278 . S
C831 O832 1.245 . S
C831 O843 1.232 . S
O832 C831 1.245 . S
O833 Co827 2.058 . S
O833 C859 1.269 . S
O834 Co826 2.074 . S
O834 C859 1.257 . S
H835 C860 0.930 . S
H836 C866 0.930 . S
O837 Co826 2.093 . S
O837 C829 1.224 . S
H838 C870 0.929 . S
H839 C872 0.930 . S
H840 C873 0.930 . S
H841 C871 0.929 . S
H842 C874 0.928 . S
O843 Co827 2.057 . S
O843 C831 1.232 . S
H844 C863 0.929 . S
H845 C864 0.929 . S
H846 C876 0.931 . S
H847 C868 0.929 . S
H848 C877 0.930 . S
H849 C869 0.931 . S
O850 Co826 2.097 . S
O850 C878 1.214 . S
H851 C879 0.929 . S
H852 C880 0.929 . S
H853 C881 0.930 . S
H854 C882 0.929 . S
H855 C884 0.930 . S
H856 C861 0.930 . S
H857 C865 0.930 . S
O858 Co827 2.037 . S
O858 C878 1.234 . S
C859 O833 1.269 . S
C859 O834 1.257 . S
C860 H835 0.930 . S
C860 C863 1.388 . S
C860 C865 1.418 . S
C861 H856 0.930 . S
C861 C864 1.404 . S
C861 C865 1.353 . S
N862 Co827 2.145 . S
N862 C863 1.397 . S
N862 C864 1.334 . S
C863 H844 0.929 . S
C863 C860 1.388 . S
C863 N862 1.397 . S
C864 H845 0.929 . S
C864 C861 1.404 . S
C864 N862 1.334 . S
C865 H857 0.930 . S
C865 C860 1.418 . S
C865 C861 1.353 . S
C866 H836 0.930 . S
C866 N867 1.330 . S
C866 C868 1.446 . S
N867 Co826 2.151 . S
N867 C866 1.330 . S
N867 C871 1.418 . S
C868 H847 0.929 . S
C868 C866 1.446 . S
C868 C869 1.332 . S
C869 H849 0.931 . S
C869 C868 1.332 . S
C869 C870 1.267 . S
C870 H838 0.929 . S
C870 C869 1.267 . S
C870 C871 1.251 . S
C871 H841 0.929 . S
C871 N867 1.418 . S
C871 C870 1.251 . S
C872 H839 0.930 . S
C872 C874 1.406 . S
C872 C877 1.261 . S
C873 H840 0.930 . S
C873 N875 1.325 . S
C873 C876 1.357 . S
C874 H842 0.928 . S
C874 C872 1.406 . S
C874 N875 1.261 . S
N875 Co826 2.214 . S
N875 C873 1.325 . S
N875 C874 1.261 . S
C876 H846 0.931 . S
C876 C873 1.357 . S
C876 C877 1.312 . S
C877 H848 0.930 . S
C877 C872 1.261 . S
C877 C876 1.312 . S
C878 O850 1.214 . S
C878 O858 1.234 . S
C879 H851 0.929 . S
C879 C882 1.391 . S
C879 C884 1.391 . S
C880 H852 0.929 . S
C880 C881 1.390 . S
C880 N883 1.391 . S
C881 H853 0.930 . S
C881 C880 1.390 . S
C881 C882 1.392 . S
C882 H854 0.929 . S
C882 C879 1.391 . S
C882 C881 1.392 . S
N883 Co827 2.257 . S
N883 C880 1.391 . S
N883 C884 1.388 . S
C884 H855 0.930 . S
C884 C879 1.391 . S
C884 N883 1.388 . S
Co885 O887 2.143 . S
Co885 O893 2.074 . S
Co885 O896 2.093 . S
Co885 O909 2.097 . S
Co885 N926 2.151 . S
Co885 N934 2.214 . S
Co886 O887 2.160 . S
Co886 O892 2.058 . S
Co886 O902 2.057 . S
Co886 O917 2.037 . S
Co886 N921 2.145 . S
Co886 N942 2.257 . S
O887 Co885 2.143 . S
O887 Co886 2.160 . S
C888 O889 1.278 . S
C888 O896 1.224 . S
O889 C888 1.278 . S
C890 O891 1.245 . S
C890 O902 1.232 . S
O891 C890 1.245 . S
O892 Co886 2.058 . S
O892 C918 1.269 . S
O893 Co885 2.074 . S
O893 C918 1.257 . S
H894 C919 0.930 . S
H895 C925 0.930 . S
O896 Co885 2.093 . S
O896 C888 1.224 . S
H897 C929 0.929 . S
H898 C931 0.930 . S
H899 C932 0.930 . S
H900 C930 0.929 . S
H901 C933 0.928 . S
O902 Co886 2.057 . S
O902 C890 1.232 . S
H903 C922 0.929 . S
H904 C923 0.929 . S
H905 C935 0.931 . S
H906 C927 0.929 . S
H907 C936 0.930 . S
H908 C928 0.931 . S
O909 Co885 2.097 . S
O909 C937 1.214 . S
H910 C938 0.929 . S
H911 C939 0.929 . S
H912 C940 0.930 . S
H913 C941 0.929 . S
H914 C943 0.930 . S
H915 C920 0.930 . S
H916 C924 0.930 . S
O917 Co886 2.037 . S
O917 C937 1.234 . S
C918 O892 1.269 . S
C918 O893 1.257 . S
C919 H894 0.930 . S
C919 C922 1.388 . S
C919 C924 1.418 . S
C920 H915 0.930 . S
C920 C923 1.404 . S
C920 C924 1.353 . S
N921 Co886 2.145 . S
N921 C922 1.397 . S
N921 C923 1.334 . S
C922 H903 0.929 . S
C922 C919 1.388 . S
C922 N921 1.397 . S
C923 H904 0.929 . S
C923 C920 1.404 . S
C923 N921 1.334 . S
C924 H916 0.930 . S
C924 C919 1.418 . S
C924 C920 1.353 . S
C925 H895 0.930 . S
C925 N926 1.330 . S
C925 C927 1.446 . S
N926 Co885 2.151 . S
N926 C925 1.330 . S
N926 C930 1.418 . S
C927 H906 0.929 . S
C927 C925 1.446 . S
C927 C928 1.332 . S
C928 H908 0.931 . S
C928 C927 1.332 . S
C928 C929 1.267 . S
C929 H897 0.929 . S
C929 C928 1.267 . S
C929 C930 1.251 . S
C930 H900 0.929 . S
C930 N926 1.418 . S
C930 C929 1.251 . S
C931 H898 0.930 . S
C931 C933 1.406 . S
C931 C936 1.261 . S
C932 H899 0.930 . S
C932 N934 1.325 . S
C932 C935 1.357 . S
C933 H901 0.928 . S
C933 C931 1.406 . S
C933 N934 1.261 . S
N934 Co885 2.214 . S
N934 C932 1.325 . S
N934 C933 1.261 . S
C935 H905 0.931 . S
C935 C932 1.357 . S
C935 C936 1.312 . S
C936 H907 0.930 . S
C936 C931 1.261 . S
C936 C935 1.312 . S
C937 O909 1.214 . S
C937 O917 1.234 . S
C938 H910 0.929 . S
C938 C941 1.391 . S
C938 C943 1.391 . S
C939 H911 0.929 . S
C939 C940 1.390 . S
C939 N942 1.391 . S
C940 H912 0.930 . S
C940 C939 1.390 . S
C940 C941 1.392 . S
C941 H913 0.929 . S
C941 C938 1.391 . S
C941 C940 1.392 . S
N942 Co886 2.257 . S
N942 C939 1.391 . S
N942 C943 1.388 . S
C943 H914 0.930 . S
C943 C938 1.391 . S
C943 N942 1.388 . S
Co944 O946 2.143 . S
Co944 O952 2.074 . S
Co944 O955 2.093 . S
Co944 O968 2.097 . S
Co944 N985 2.151 . S
Co944 N993 2.214 . S
Co945 O946 2.160 . S
Co945 O951 2.058 . S
Co945 O961 2.057 . S
Co945 O976 2.037 . S
Co945 N980 2.145 . S
Co945 N1001 2.257 . S
O946 Co944 2.143 . S
O946 Co945 2.160 . S
C947 O948 1.278 . S
C947 O955 1.224 . S
O948 C947 1.278 . S
C949 O950 1.245 . S
C949 O961 1.232 . S
O950 C949 1.245 . S
O951 Co945 2.058 . S
O951 C977 1.269 . S
O952 Co944 2.074 . S
O952 C977 1.257 . S
H953 C978 0.930 . S
H954 C984 0.930 . S
O955 Co944 2.093 . S
O955 C947 1.224 . S
H956 C988 0.929 . S
H957 C990 0.930 . S
H958 C991 0.930 . S
H959 C989 0.929 . S
H960 C992 0.928 . S
O961 Co945 2.057 . S
O961 C949 1.232 . S
H962 C981 0.929 . S
H963 C982 0.929 . S
H964 C994 0.931 . S
H965 C986 0.929 . S
H966 C995 0.930 . S
H967 C987 0.931 . S
O968 Co944 2.097 . S
O968 C996 1.214 . S
H969 C997 0.929 . S
H970 C998 0.929 . S
H971 C999 0.930 . S
H972 C1000 0.929 . S
H973 C1002 0.930 . S
H974 C979 0.930 . S
H975 C983 0.930 . S
O976 Co945 2.037 . S
O976 C996 1.234 . S
C977 O951 1.269 . S
C977 O952 1.257 . S
C978 H953 0.930 . S
C978 C981 1.388 . S
C978 C983 1.418 . S
C979 H974 0.930 . S
C979 C982 1.404 . S
C979 C983 1.353 . S
N980 Co945 2.145 . S
N980 C981 1.397 . S
N980 C982 1.334 . S
C981 H962 0.929 . S
C981 C978 1.388 . S
C981 N980 1.397 . S
C982 H963 0.929 . S
C982 C979 1.404 . S
C982 N980 1.334 . S
C983 H975 0.930 . S
C983 C978 1.418 . S
C983 C979 1.353 . S
C984 H954 0.930 . S
C984 N985 1.330 . S
C984 C986 1.446 . S
N985 Co944 2.151 . S
N985 C984 1.330 . S
N985 C989 1.418 . S
C986 H965 0.929 . S
C986 C984 1.446 . S
C986 C987 1.332 . S
C987 H967 0.931 . S
C987 C986 1.332 . S
C987 C988 1.267 . S
C988 H956 0.929 . S
C988 C987 1.267 . S
C988 C989 1.251 . S
C989 H959 0.929 . S
C989 N985 1.418 . S
C989 C988 1.251 . S
C990 H957 0.930 . S
C990 C992 1.406 . S
C990 C995 1.261 . S
C991 H958 0.930 . S
C991 N993 1.325 . S
C991 C994 1.357 . S
C992 H960 0.928 . S
C992 C990 1.406 . S
C992 N993 1.261 . S
N993 Co944 2.214 . S
N993 C991 1.325 . S
N993 C992 1.261 . S
C994 H964 0.931 . S
C994 C991 1.357 . S
C994 C995 1.312 . S
C995 H966 0.930 . S
C995 C990 1.261 . S
C995 C994 1.312 . S
C996 O968 1.214 . S
C996 O976 1.234 . S
C997 H969 0.929 . S
C997 C1000 1.391 . S
C997 C1002 1.391 . S
C998 H970 0.929 . S
C998 C999 1.390 . S
C998 N1001 1.391 . S
C999 H971 0.930 . S
C999 C998 1.390 . S
C999 C1000 1.392 . S
C1000 H972 0.929 . S
C1000 C997 1.391 . S
C1000 C999 1.392 . S
N1001 Co945 2.257 . S
N1001 C998 1.391 . S
N1001 C1002 1.388 . S
C1002 H973 0.930 . S
C1002 C997 1.391 . S
C1002 N1001 1.388 . S
Co1003 O1005 2.143 . S
Co1003 O1011 2.074 . S
Co1003 O1014 2.093 . S
Co1003 O1027 2.097 . S
Co1003 N1044 2.151 . S
Co1003 N1052 2.214 . S
Co1004 O1005 2.160 . S
Co1004 O1010 2.058 . S
Co1004 O1020 2.057 . S
Co1004 O1035 2.037 . S
Co1004 N1039 2.145 . S
Co1004 N1060 2.257 . S
O1005 Co1003 2.143 . S
O1005 Co1004 2.160 . S
C1006 O1007 1.278 . S
C1006 O1014 1.224 . S
O1007 C1006 1.278 . S
C1008 O1009 1.245 . S
C1008 O1020 1.232 . S
O1009 C1008 1.245 . S
O1010 Co1004 2.058 . S
O1010 C1036 1.269 . S
O1011 Co1003 2.074 . S
O1011 C1036 1.257 . S
H1012 C1037 0.930 . S
H1013 C1043 0.930 . S
O1014 Co1003 2.093 . S
O1014 C1006 1.224 . S
H1015 C1047 0.929 . S
H1016 C1049 0.930 . S
H1017 C1050 0.930 . S
H1018 C1048 0.929 . S
H1019 C1051 0.928 . S
O1020 Co1004 2.057 . S
O1020 C1008 1.232 . S
H1021 C1040 0.929 . S
H1022 C1041 0.929 . S
H1023 C1053 0.931 . S
H1024 C1045 0.929 . S
H1025 C1054 0.930 . S
H1026 C1046 0.931 . S
O1027 Co1003 2.097 . S
O1027 C1055 1.214 . S
H1028 C1056 0.929 . S
H1029 C1057 0.929 . S
H1030 C1058 0.930 . S
H1031 C1059 0.929 . S
H1032 C1061 0.930 . S
H1033 C1038 0.930 . S
H1034 C1042 0.930 . S
O1035 Co1004 2.037 . S
O1035 C1055 1.234 . S
C1036 O1010 1.269 . S
C1036 O1011 1.257 . S
C1037 H1012 0.930 . S
C1037 C1040 1.388 . S
C1037 C1042 1.418 . S
C1038 H1033 0.930 . S
C1038 C1041 1.404 . S
C1038 C1042 1.353 . S
N1039 Co1004 2.145 . S
N1039 C1040 1.397 . S
N1039 C1041 1.334 . S
C1040 H1021 0.929 . S
C1040 C1037 1.388 . S
C1040 N1039 1.397 . S
C1041 H1022 0.929 . S
C1041 C1038 1.404 . S
C1041 N1039 1.334 . S
C1042 H1034 0.930 . S
C1042 C1037 1.418 . S
C1042 C1038 1.353 . S
C1043 H1013 0.930 . S
C1043 N1044 1.330 . S
C1043 C1045 1.446 . S
N1044 Co1003 2.151 . S
N1044 C1043 1.330 . S
N1044 C1048 1.418 . S
C1045 H1024 0.929 . S
C1045 C1043 1.446 . S
C1045 C1046 1.332 . S
C1046 H1026 0.931 . S
C1046 C1045 1.332 . S
C1046 C1047 1.267 . S
C1047 H1015 0.929 . S
C1047 C1046 1.267 . S
C1047 C1048 1.251 . S
C1048 H1018 0.929 . S
C1048 N1044 1.418 . S
C1048 C1047 1.251 . S
C1049 H1016 0.930 . S
C1049 C1051 1.406 . S
C1049 C1054 1.261 . S
C1050 H1017 0.930 . S
C1050 N1052 1.325 . S
C1050 C1053 1.357 . S
C1051 H1019 0.928 . S
C1051 C1049 1.406 . S
C1051 N1052 1.261 . S
N1052 Co1003 2.214 . S
N1052 C1050 1.325 . S
N1052 C1051 1.261 . S
C1053 H1023 0.931 . S
C1053 C1050 1.357 . S
C1053 C1054 1.312 . S
C1054 H1025 0.930 . S
C1054 C1049 1.261 . S
C1054 C1053 1.312 . S
C1055 O1027 1.214 . S
C1055 O1035 1.234 . S
C1056 H1028 0.929 . S
C1056 C1059 1.391 . S
C1056 C1061 1.391 . S
C1057 H1029 0.929 . S
C1057 C1058 1.390 . S
C1057 N1060 1.391 . S
C1058 H1030 0.930 . S
C1058 C1057 1.390 . S
C1058 C1059 1.392 . S
C1059 H1031 0.929 . S
C1059 C1056 1.391 . S
C1059 C1058 1.392 . S
N1060 Co1004 2.257 . S
N1060 C1057 1.391 . S
N1060 C1061 1.388 . S
C1061 H1032 0.930 . S
C1061 C1056 1.391 . S
C1061 N1060 1.388 . S
Co1062 O1064 2.143 . S
Co1062 O1070 2.074 . S
Co1062 O1073 2.093 . S
Co1062 O1086 2.097 . S
Co1062 N1103 2.151 . S
Co1062 N1111 2.214 . S
Co1063 O1064 2.160 . S
Co1063 O1069 2.058 . S
Co1063 O1079 2.057 . S
Co1063 O1094 2.037 . S
Co1063 N1098 2.145 . S
Co1063 N1119 2.257 . S
O1064 Co1062 2.143 . S
O1064 Co1063 2.160 . S
C1065 O1066 1.278 . S
C1065 O1073 1.224 . S
O1066 C1065 1.278 . S
C1067 O1068 1.245 . S
C1067 O1079 1.232 . S
O1068 C1067 1.245 . S
O1069 Co1063 2.058 . S
O1069 C1095 1.269 . S
O1070 Co1062 2.074 . S
O1070 C1095 1.257 . S
H1071 C1096 0.930 . S
H1072 C1102 0.930 . S
O1073 Co1062 2.093 . S
O1073 C1065 1.224 . S
H1074 C1106 0.929 . S
H1075 C1108 0.930 . S
H1076 C1109 0.930 . S
H1077 C1107 0.929 . S
H1078 C1110 0.928 . S
O1079 Co1063 2.057 . S
O1079 C1067 1.232 . S
H1080 C1099 0.929 . S
H1081 C1100 0.929 . S
H1082 C1112 0.931 . S
H1083 C1104 0.929 . S
H1084 C1113 0.930 . S
H1085 C1105 0.931 . S
O1086 Co1062 2.097 . S
O1086 C1114 1.214 . S
H1087 C1115 0.929 . S
H1088 C1116 0.929 . S
H1089 C1117 0.930 . S
H1090 C1118 0.929 . S
H1091 C1120 0.930 . S
H1092 C1097 0.930 . S
H1093 C1101 0.930 . S
O1094 Co1063 2.037 . S
O1094 C1114 1.234 . S
C1095 O1069 1.269 . S
C1095 O1070 1.257 . S
C1096 H1071 0.930 . S
C1096 C1099 1.388 . S
C1096 C1101 1.418 . S
C1097 H1092 0.930 . S
C1097 C1100 1.404 . S
C1097 C1101 1.353 . S
N1098 Co1063 2.145 . S
N1098 C1099 1.397 . S
N1098 C1100 1.334 . S
C1099 H1080 0.929 . S
C1099 C1096 1.388 . S
C1099 N1098 1.397 . S
C1100 H1081 0.929 . S
C1100 C1097 1.404 . S
C1100 N1098 1.334 . S
C1101 H1093 0.930 . S
C1101 C1096 1.418 . S
C1101 C1097 1.353 . S
C1102 H1072 0.930 . S
C1102 N1103 1.330 . S
C1102 C1104 1.446 . S
N1103 Co1062 2.151 . S
N1103 C1102 1.330 . S
N1103 C1107 1.418 . S
C1104 H1083 0.929 . S
C1104 C1102 1.446 . S
C1104 C1105 1.332 . S
C1105 H1085 0.931 . S
C1105 C1104 1.332 . S
C1105 C1106 1.267 . S
C1106 H1074 0.929 . S
C1106 C1105 1.267 . S
C1106 C1107 1.251 . S
C1107 H1077 0.929 . S
C1107 N1103 1.418 . S
C1107 C1106 1.251 . S
C1108 H1075 0.930 . S
C1108 C1110 1.406 . S
C1108 C1113 1.261 . S
C1109 H1076 0.930 . S
C1109 N1111 1.325 . S
C1109 C1112 1.357 . S
C1110 H1078 0.928 . S
C1110 C1108 1.406 . S
C1110 N1111 1.261 . S
N1111 Co1062 2.214 . S
N1111 C1109 1.325 . S
N1111 C1110 1.261 . S
C1112 H1082 0.931 . S
C1112 C1109 1.357 . S
C1112 C1113 1.312 . S
C1113 H1084 0.930 . S
C1113 C1108 1.261 . S
C1113 C1112 1.312 . S
C1114 O1086 1.214 . S
C1114 O1094 1.234 . S
C1115 H1087 0.929 . S
C1115 C1118 1.391 . S
C1115 C1120 1.391 . S
C1116 H1088 0.929 . S
C1116 C1117 1.390 . S
C1116 N1119 1.391 . S
C1117 H1089 0.930 . S
C1117 C1116 1.390 . S
C1117 C1118 1.392 . S
C1118 H1090 0.929 . S
C1118 C1115 1.391 . S
C1118 C1117 1.392 . S
N1119 Co1063 2.257 . S
N1119 C1116 1.391 . S
N1119 C1120 1.388 . S
C1120 H1091 0.930 . S
C1120 C1115 1.391 . S
C1120 N1119 1.388 . S
Co1121 O1123 2.143 . S
Co1121 O1129 2.074 . S
Co1121 O1132 2.093 . S
Co1121 O1145 2.097 . S
Co1121 N1162 2.151 . S
Co1121 N1170 2.214 . S
Co1122 O1123 2.160 . S
Co1122 O1128 2.058 . S
Co1122 O1138 2.057 . S
Co1122 O1153 2.037 . S
Co1122 N1157 2.145 . S
Co1122 N1178 2.257 . S
O1123 Co1121 2.143 . S
O1123 Co1122 2.160 . S
C1124 O1125 1.278 . S
C1124 O1132 1.224 . S
O1125 C1124 1.278 . S
C1126 O1127 1.245 . S
C1126 O1138 1.232 . S
O1127 C1126 1.245 . S
O1128 Co1122 2.058 . S
O1128 C1154 1.269 . S
O1129 Co1121 2.074 . S
O1129 C1154 1.257 . S
H1130 C1155 0.930 . S
H1131 C1161 0.930 . S
O1132 Co1121 2.093 . S
O1132 C1124 1.224 . S
H1133 C1165 0.929 . S
H1134 C1167 0.930 . S
H1135 C1168 0.930 . S
H1136 C1166 0.929 . S
H1137 C1169 0.928 . S
O1138 Co1122 2.057 . S
O1138 C1126 1.232 . S
H1139 C1158 0.929 . S
H1140 C1159 0.929 . S
H1141 C1171 0.931 . S
H1142 C1163 0.929 . S
H1143 C1172 0.930 . S
H1144 C1164 0.931 . S
O1145 Co1121 2.097 . S
O1145 C1173 1.214 . S
H1146 C1174 0.929 . S
H1147 C1175 0.929 . S
H1148 C1176 0.930 . S
H1149 C1177 0.929 . S
H1150 C1179 0.930 . S
H1151 C1156 0.930 . S
H1152 C1160 0.930 . S
O1153 Co1122 2.037 . S
O1153 C1173 1.234 . S
C1154 O1128 1.269 . S
C1154 O1129 1.257 . S
C1155 H1130 0.930 . S
C1155 C1158 1.388 . S
C1155 C1160 1.418 . S
C1156 H1151 0.930 . S
C1156 C1159 1.404 . S
C1156 C1160 1.353 . S
N1157 Co1122 2.145 . S
N1157 C1158 1.397 . S
N1157 C1159 1.334 . S
C1158 H1139 0.929 . S
C1158 C1155 1.388 . S
C1158 N1157 1.397 . S
C1159 H1140 0.929 . S
C1159 C1156 1.404 . S
C1159 N1157 1.334 . S
C1160 H1152 0.930 . S
C1160 C1155 1.418 . S
C1160 C1156 1.353 . S
C1161 H1131 0.930 . S
C1161 N1162 1.330 . S
C1161 C1163 1.446 . S
N1162 Co1121 2.151 . S
N1162 C1161 1.330 . S
N1162 C1166 1.418 . S
C1163 H1142 0.929 . S
C1163 C1161 1.446 . S
C1163 C1164 1.332 . S
C1164 H1144 0.931 . S
C1164 C1163 1.332 . S
C1164 C1165 1.267 . S
C1165 H1133 0.929 . S
C1165 C1164 1.267 . S
C1165 C1166 1.251 . S
C1166 H1136 0.929 . S
C1166 N1162 1.418 . S
C1166 C1165 1.251 . S
C1167 H1134 0.930 . S
C1167 C1169 1.406 . S
C1167 C1172 1.261 . S
C1168 H1135 0.930 . S
C1168 N1170 1.325 . S
C1168 C1171 1.357 . S
C1169 H1137 0.928 . S
C1169 C1167 1.406 . S
C1169 N1170 1.261 . S
N1170 Co1121 2.214 . S
N1170 C1168 1.325 . S
N1170 C1169 1.261 . S
C1171 H1141 0.931 . S
C1171 C1168 1.357 . S
C1171 C1172 1.312 . S
C1172 H1143 0.930 . S
C1172 C1167 1.261 . S
C1172 C1171 1.312 . S
C1173 O1145 1.214 . S
C1173 O1153 1.234 . S
C1174 H1146 0.929 . S
C1174 C1177 1.391 . S
C1174 C1179 1.391 . S
C1175 H1147 0.929 . S
C1175 C1176 1.390 . S
C1175 N1178 1.391 . S
C1176 H1148 0.930 . S
C1176 C1175 1.390 . S
C1176 C1177 1.392 . S
C1177 H1149 0.929 . S
C1177 C1174 1.391 . S
C1177 C1176 1.392 . S
N1178 Co1122 2.257 . S
N1178 C1175 1.391 . S
N1178 C1179 1.388 . S
C1179 H1150 0.930 . S
C1179 C1174 1.391 . S
C1179 N1178 1.388 . S
Co1180 O1182 2.143 . S
Co1180 O1188 2.074 . S
Co1180 O1191 2.093 . S
Co1180 O1204 2.097 . S
Co1180 N1221 2.151 . S
Co1180 N1229 2.214 . S
Co1181 O1182 2.160 . S
Co1181 O1187 2.058 . S
Co1181 O1197 2.057 . S
Co1181 O1212 2.037 . S
Co1181 N1216 2.145 . S
Co1181 N1237 2.257 . S
O1182 Co1180 2.143 . S
O1182 Co1181 2.160 . S
C1183 O1184 1.278 . S
C1183 O1191 1.224 . S
O1184 C1183 1.278 . S
C1185 O1186 1.245 . S
C1185 O1197 1.232 . S
O1186 C1185 1.245 . S
O1187 Co1181 2.058 . S
O1187 C1213 1.269 . S
O1188 Co1180 2.074 . S
O1188 C1213 1.257 . S
H1189 C1214 0.930 . S
H1190 C1220 0.930 . S
O1191 Co1180 2.093 . S
O1191 C1183 1.224 . S
H1192 C1224 0.929 . S
H1193 C1226 0.930 . S
H1194 C1227 0.930 . S
H1195 C1225 0.929 . S
H1196 C1228 0.928 . S
O1197 Co1181 2.057 . S
O1197 C1185 1.232 . S
H1198 C1217 0.929 . S
H1199 C1218 0.929 . S
H1200 C1230 0.931 . S
H1201 C1222 0.929 . S
H1202 C1231 0.930 . S
H1203 C1223 0.931 . S
O1204 Co1180 2.097 . S
O1204 C1232 1.214 . S
H1205 C1233 0.929 . S
H1206 C1234 0.929 . S
H1207 C1235 0.930 . S
H1208 C1236 0.929 . S
H1209 C1238 0.930 . S
H1210 C1215 0.930 . S
H1211 C1219 0.930 . S
O1212 Co1181 2.037 . S
O1212 C1232 1.234 . S
C1213 O1187 1.269 . S
C1213 O1188 1.257 . S
C1214 H1189 0.930 . S
C1214 C1217 1.388 . S
C1214 C1219 1.418 . S
C1215 H1210 0.930 . S
C1215 C1218 1.404 . S
C1215 C1219 1.353 . S
N1216 Co1181 2.145 . S
N1216 C1217 1.397 . S
N1216 C1218 1.334 . S
C1217 H1198 0.929 . S
C1217 C1214 1.388 . S
C1217 N1216 1.397 . S
C1218 H1199 0.929 . S
C1218 C1215 1.404 . S
C1218 N1216 1.334 . S
C1219 H1211 0.930 . S
C1219 C1214 1.418 . S
C1219 C1215 1.353 . S
C1220 H1190 0.930 . S
C1220 N1221 1.330 . S
C1220 C1222 1.446 . S
N1221 Co1180 2.151 . S
N1221 C1220 1.330 . S
N1221 C1225 1.418 . S
C1222 H1201 0.929 . S
C1222 C1220 1.446 . S
C1222 C1223 1.332 . S
C1223 H1203 0.931 . S
C1223 C1222 1.332 . S
C1223 C1224 1.267 . S
C1224 H1192 0.929 . S
C1224 C1223 1.267 . S
C1224 C1225 1.251 . S
C1225 H1195 0.929 . S
C1225 N1221 1.418 . S
C1225 C1224 1.251 . S
C1226 H1193 0.930 . S
C1226 C1228 1.406 . S
C1226 C1231 1.261 . S
C1227 H1194 0.930 . S
C1227 N1229 1.325 . S
C1227 C1230 1.357 . S
C1228 H1196 0.928 . S
C1228 C1226 1.406 . S
C1228 N1229 1.261 . S
N1229 Co1180 2.214 . S
N1229 C1227 1.325 . S
N1229 C1228 1.261 . S
C1230 H1200 0.931 . S
C1230 C1227 1.357 . S
C1230 C1231 1.312 . S
C1231 H1202 0.930 . S
C1231 C1226 1.261 . S
C1231 C1230 1.312 . S
C1232 O1204 1.214 . S
C1232 O1212 1.234 . S
C1233 H1205 0.929 . S
C1233 C1236 1.391 . S
C1233 C1238 1.391 . S
C1234 H1206 0.929 . S
C1234 C1235 1.390 . S
C1234 N1237 1.391 . S
C1235 H1207 0.930 . S
C1235 C1234 1.390 . S
C1235 C1236 1.392 . S
C1236 H1208 0.929 . S
C1236 C1233 1.391 . S
C1236 C1235 1.392 . S
N1237 Co1181 2.257 . S
N1237 C1234 1.391 . S
N1237 C1238 1.388 . S
C1238 H1209 0.930 . S
C1238 C1233 1.391 . S
C1238 N1237 1.388 . S
Co1239 O1241 2.143 . S
Co1239 O1247 2.074 . S
Co1239 O1250 2.093 . S
Co1239 O1263 2.097 . S
Co1239 N1280 2.151 . S
Co1239 N1288 2.214 . S
Co1240 O1241 2.160 . S
Co1240 O1246 2.058 . S
Co1240 O1256 2.057 . S
Co1240 O1271 2.037 . S
Co1240 N1275 2.145 . S
Co1240 N1296 2.257 . S
O1241 Co1239 2.143 . S
O1241 Co1240 2.160 . S
C1242 O1243 1.278 . S
C1242 O1250 1.224 . S
O1243 C1242 1.278 . S
C1244 O1245 1.245 . S
C1244 O1256 1.232 . S
O1245 C1244 1.245 . S
O1246 Co1240 2.058 . S
O1246 C1272 1.269 . S
O1247 Co1239 2.074 . S
O1247 C1272 1.257 . S
H1248 C1273 0.930 . S
H1249 C1279 0.930 . S
O1250 Co1239 2.093 . S
O1250 C1242 1.224 . S
H1251 C1283 0.929 . S
H1252 C1285 0.930 . S
H1253 C1286 0.930 . S
H1254 C1284 0.929 . S
H1255 C1287 0.928 . S
O1256 Co1240 2.057 . S
O1256 C1244 1.232 . S
H1257 C1276 0.929 . S
H1258 C1277 0.929 . S
H1259 C1289 0.931 . S
H1260 C1281 0.929 . S
H1261 C1290 0.930 . S
H1262 C1282 0.931 . S
O1263 Co1239 2.097 . S
O1263 C1291 1.214 . S
H1264 C1292 0.929 . S
H1265 C1293 0.929 . S
H1266 C1294 0.930 . S
H1267 C1295 0.929 . S
H1268 C1297 0.930 . S
H1269 C1274 0.930 . S
H1270 C1278 0.930 . S
O1271 Co1240 2.037 . S
O1271 C1291 1.234 . S
C1272 O1246 1.269 . S
C1272 O1247 1.257 . S
C1273 H1248 0.930 . S
C1273 C1276 1.388 . S
C1273 C1278 1.418 . S
C1274 H1269 0.930 . S
C1274 C1277 1.404 . S
C1274 C1278 1.353 . S
N1275 Co1240 2.145 . S
N1275 C1276 1.397 . S
N1275 C1277 1.334 . S
C1276 H1257 0.929 . S
C1276 C1273 1.388 . S
C1276 N1275 1.397 . S
C1277 H1258 0.929 . S
C1277 C1274 1.404 . S
C1277 N1275 1.334 . S
C1278 H1270 0.930 . S
C1278 C1273 1.418 . S
C1278 C1274 1.353 . S
C1279 H1249 0.930 . S
C1279 N1280 1.330 . S
C1279 C1281 1.446 . S
N1280 Co1239 2.151 . S
N1280 C1279 1.330 . S
N1280 C1284 1.418 . S
C1281 H1260 0.929 . S
C1281 C1279 1.446 . S
C1281 C1282 1.332 . S
C1282 H1262 0.931 . S
C1282 C1281 1.332 . S
C1282 C1283 1.267 . S
C1283 H1251 0.929 . S
C1283 C1282 1.267 . S
C1283 C1284 1.251 . S
C1284 H1254 0.929 . S
C1284 N1280 1.418 . S
C1284 C1283 1.251 . S
C1285 H1252 0.930 . S
C1285 C1287 1.406 . S
C1285 C1290 1.261 . S
C1286 H1253 0.930 . S
C1286 N1288 1.325 . S
C1286 C1289 1.357 . S
C1287 H1255 0.928 . S
C1287 C1285 1.406 . S
C1287 N1288 1.261 . S
N1288 Co1239 2.214 . S
N1288 C1286 1.325 . S
N1288 C1287 1.261 . S
C1289 H1259 0.931 . S
C1289 C1286 1.357 . S
C1289 C1290 1.312 . S
C1290 H1261 0.930 . S
C1290 C1285 1.261 . S
C1290 C1289 1.312 . S
C1291 O1263 1.214 . S
C1291 O1271 1.234 . S
C1292 H1264 0.929 . S
C1292 C1295 1.391 . S
C1292 C1297 1.391 . S
C1293 H1265 0.929 . S
C1293 C1294 1.390 . S
C1293 N1296 1.391 . S
C1294 H1266 0.930 . S
C1294 C1293 1.390 . S
C1294 C1295 1.392 . S
C1295 H1267 0.929 . S
C1295 C1292 1.391 . S
C1295 C1294 1.392 . S
N1296 Co1240 2.257 . S
N1296 C1293 1.391 . S
N1296 C1297 1.388 . S
C1297 H1268 0.930 . S
C1297 C1292 1.391 . S
C1297 N1296 1.388 . S
Co1298 O1300 2.143 . S
Co1298 O1306 2.074 . S
Co1298 O1309 2.093 . S
Co1298 O1322 2.097 . S
Co1298 N1339 2.151 . S
Co1298 N1347 2.214 . S
Co1299 O1300 2.160 . S
Co1299 O1305 2.058 . S
Co1299 O1315 2.057 . S
Co1299 O1330 2.037 . S
Co1299 N1334 2.145 . S
Co1299 N1355 2.257 . S
O1300 Co1298 2.143 . S
O1300 Co1299 2.160 . S
C1301 O1302 1.278 . S
C1301 O1309 1.224 . S
O1302 C1301 1.278 . S
C1303 O1304 1.245 . S
C1303 O1315 1.232 . S
O1304 C1303 1.245 . S
O1305 Co1299 2.058 . S
O1305 C1331 1.269 . S
O1306 Co1298 2.074 . S
O1306 C1331 1.257 . S
H1307 C1332 0.930 . S
H1308 C1338 0.930 . S
O1309 Co1298 2.093 . S
O1309 C1301 1.224 . S
H1310 C1342 0.929 . S
H1311 C1344 0.930 . S
H1312 C1345 0.930 . S
H1313 C1343 0.929 . S
H1314 C1346 0.928 . S
O1315 Co1299 2.057 . S
O1315 C1303 1.232 . S
H1316 C1335 0.929 . S
H1317 C1336 0.929 . S
H1318 C1348 0.931 . S
H1319 C1340 0.929 . S
H1320 C1349 0.930 . S
H1321 C1341 0.931 . S
O1322 Co1298 2.097 . S
O1322 C1350 1.214 . S
H1323 C1351 0.929 . S
H1324 C1352 0.929 . S
H1325 C1353 0.930 . S
H1326 C1354 0.929 . S
H1327 C1356 0.930 . S
H1328 C1333 0.930 . S
H1329 C1337 0.930 . S
O1330 Co1299 2.037 . S
O1330 C1350 1.234 . S
C1331 O1305 1.269 . S
C1331 O1306 1.257 . S
C1332 H1307 0.930 . S
C1332 C1335 1.388 . S
C1332 C1337 1.418 . S
C1333 H1328 0.930 . S
C1333 C1336 1.404 . S
C1333 C1337 1.353 . S
N1334 Co1299 2.145 . S
N1334 C1335 1.397 . S
N1334 C1336 1.334 . S
C1335 H1316 0.929 . S
C1335 C1332 1.388 . S
C1335 N1334 1.397 . S
C1336 H1317 0.929 . S
C1336 C1333 1.404 . S
C1336 N1334 1.334 . S
C1337 H1329 0.930 . S
C1337 C1332 1.418 . S
C1337 C1333 1.353 . S
C1338 H1308 0.930 . S
C1338 N1339 1.330 . S
C1338 C1340 1.446 . S
N1339 Co1298 2.151 . S
N1339 C1338 1.330 . S
N1339 C1343 1.418 . S
C1340 H1319 0.929 . S
C1340 C1338 1.446 . S
C1340 C1341 1.332 . S
C1341 H1321 0.931 . S
C1341 C1340 1.332 . S
C1341 C1342 1.267 . S
C1342 H1310 0.929 . S
C1342 C1341 1.267 . S
C1342 C1343 1.251 . S
C1343 H1313 0.929 . S
C1343 N1339 1.418 . S
C1343 C1342 1.251 . S
C1344 H1311 0.930 . S
C1344 C1346 1.406 . S
C1344 C1349 1.261 . S
C1345 H1312 0.930 . S
C1345 N1347 1.325 . S
C1345 C1348 1.357 . S
C1346 H1314 0.928 . S
C1346 C1344 1.406 . S
C1346 N1347 1.261 . S
N1347 Co1298 2.214 . S
N1347 C1345 1.325 . S
N1347 C1346 1.261 . S
C1348 H1318 0.931 . S
C1348 C1345 1.357 . S
C1348 C1349 1.312 . S
C1349 H1320 0.930 . S
C1349 C1344 1.261 . S
C1349 C1348 1.312 . S
C1350 O1322 1.214 . S
C1350 O1330 1.234 . S
C1351 H1323 0.929 . S
C1351 C1354 1.391 . S
C1351 C1356 1.391 . S
C1352 H1324 0.929 . S
C1352 C1353 1.390 . S
C1352 N1355 1.391 . S
C1353 H1325 0.930 . S
C1353 C1352 1.390 . S
C1353 C1354 1.392 . S
C1354 H1326 0.929 . S
C1354 C1351 1.391 . S
C1354 C1353 1.392 . S
N1355 Co1299 2.257 . S
N1355 C1352 1.391 . S
N1355 C1356 1.388 . S
C1356 H1327 0.930 . S
C1356 C1351 1.391 . S
C1356 N1355 1.388 . S
Co1357 O1359 2.143 . S
Co1357 O1365 2.074 . S
Co1357 O1368 2.093 . S
Co1357 O1381 2.097 . S
Co1357 N1398 2.151 . S
Co1357 N1406 2.214 . S
Co1358 O1359 2.160 . S
Co1358 O1364 2.058 . S
Co1358 O1374 2.057 . S
Co1358 O1389 2.037 . S
Co1358 N1393 2.145 . S
Co1358 N1414 2.257 . S
O1359 Co1357 2.143 . S
O1359 Co1358 2.160 . S
C1360 O1361 1.278 . S
C1360 O1368 1.224 . S
O1361 C1360 1.278 . S
C1362 O1363 1.245 . S
C1362 O1374 1.232 . S
O1363 C1362 1.245 . S
O1364 Co1358 2.058 . S
O1364 C1390 1.269 . S
O1365 Co1357 2.074 . S
O1365 C1390 1.257 . S
H1366 C1391 0.930 . S
H1367 C1397 0.930 . S
O1368 Co1357 2.093 . S
O1368 C1360 1.224 . S
H1369 C1401 0.929 . S
H1370 C1403 0.930 . S
H1371 C1404 0.930 . S
H1372 C1402 0.929 . S
H1373 C1405 0.928 . S
O1374 Co1358 2.057 . S
O1374 C1362 1.232 . S
H1375 C1394 0.929 . S
H1376 C1395 0.929 . S
H1377 C1407 0.931 . S
H1378 C1399 0.929 . S
H1379 C1408 0.930 . S
H1380 C1400 0.931 . S
O1381 Co1357 2.097 . S
O1381 C1409 1.214 . S
H1382 C1410 0.929 . S
H1383 C1411 0.929 . S
H1384 C1412 0.930 . S
H1385 C1413 0.929 . S
H1386 C1415 0.930 . S
H1387 C1392 0.930 . S
H1388 C1396 0.930 . S
O1389 Co1358 2.037 . S
O1389 C1409 1.234 . S
C1390 O1364 1.269 . S
C1390 O1365 1.257 . S
C1391 H1366 0.930 . S
C1391 C1394 1.388 . S
C1391 C1396 1.418 . S
C1392 H1387 0.930 . S
C1392 C1395 1.404 . S
C1392 C1396 1.353 . S
N1393 Co1358 2.145 . S
N1393 C1394 1.397 . S
N1393 C1395 1.334 . S
C1394 H1375 0.929 . S
C1394 C1391 1.388 . S
C1394 N1393 1.397 . S
C1395 H1376 0.929 . S
C1395 C1392 1.404 . S
C1395 N1393 1.334 . S
C1396 H1388 0.930 . S
C1396 C1391 1.418 . S
C1396 C1392 1.353 . S
C1397 H1367 0.930 . S
C1397 N1398 1.330 . S
C1397 C1399 1.446 . S
N1398 Co1357 2.151 . S
N1398 C1397 1.330 . S
N1398 C1402 1.418 . S
C1399 H1378 0.929 . S
C1399 C1397 1.446 . S
C1399 C1400 1.332 . S
C1400 H1380 0.931 . S
C1400 C1399 1.332 . S
C1400 C1401 1.267 . S
C1401 H1369 0.929 . S
C1401 C1400 1.267 . S
C1401 C1402 1.251 . S
C1402 H1372 0.929 . S
C1402 N1398 1.418 . S
C1402 C1401 1.251 . S
C1403 H1370 0.930 . S
C1403 C1405 1.406 . S
C1403 C1408 1.261 . S
C1404 H1371 0.930 . S
C1404 N1406 1.325 . S
C1404 C1407 1.357 . S
C1405 H1373 0.928 . S
C1405 C1403 1.406 . S
C1405 N1406 1.261 . S
N1406 Co1357 2.214 . S
N1406 C1404 1.325 . S
N1406 C1405 1.261 . S
C1407 H1377 0.931 . S
C1407 C1404 1.357 . S
C1407 C1408 1.312 . S
C1408 H1379 0.930 . S
C1408 C1403 1.261 . S
C1408 C1407 1.312 . S
C1409 O1381 1.214 . S
C1409 O1389 1.234 . S
C1410 H1382 0.929 . S
C1410 C1413 1.391 . S
C1410 C1415 1.391 . S
C1411 H1383 0.929 . S
C1411 C1412 1.390 . S
C1411 N1414 1.391 . S
C1412 H1384 0.930 . S
C1412 C1411 1.390 . S
C1412 C1413 1.392 . S
C1413 H1385 0.929 . S
C1413 C1410 1.391 . S
C1413 C1412 1.392 . S
N1414 Co1358 2.257 . S
N1414 C1411 1.391 . S
N1414 C1415 1.388 . S
C1415 H1386 0.930 . S
C1415 C1410 1.391 . S
C1415 N1414 1.388 . S
Co1416 O1418 2.143 . S
Co1416 O1424 2.074 . S
Co1416 O1427 2.093 . S
Co1416 O1440 2.097 . S
Co1416 N1457 2.151 . S
Co1416 N1465 2.214 . S
Co1417 O1418 2.160 . S
Co1417 O1423 2.058 . S
Co1417 O1433 2.057 . S
Co1417 O1448 2.037 . S
Co1417 N1452 2.145 . S
Co1417 N1473 2.257 . S
O1418 Co1416 2.143 . S
O1418 Co1417 2.160 . S
C1419 O1420 1.278 . S
C1419 O1427 1.224 . S
O1420 C1419 1.278 . S
C1421 O1422 1.245 . S
C1421 O1433 1.232 . S
O1422 C1421 1.245 . S
O1423 Co1417 2.058 . S
O1423 C1449 1.269 . S
O1424 Co1416 2.074 . S
O1424 C1449 1.257 . S
H1425 C1450 0.930 . S
H1426 C1456 0.930 . S
O1427 Co1416 2.093 . S
O1427 C1419 1.224 . S
H1428 C1460 0.929 . S
H1429 C1462 0.930 . S
H1430 C1463 0.930 . S
H1431 C1461 0.929 . S
H1432 C1464 0.928 . S
O1433 Co1417 2.057 . S
O1433 C1421 1.232 . S
H1434 C1453 0.929 . S
H1435 C1454 0.929 . S
H1436 C1466 0.931 . S
H1437 C1458 0.929 . S
H1438 C1467 0.930 . S
H1439 C1459 0.931 . S
O1440 Co1416 2.097 . S
O1440 C1468 1.214 . S
H1441 C1469 0.929 . S
H1442 C1470 0.929 . S
H1443 C1471 0.930 . S
H1444 C1472 0.929 . S
H1445 C1474 0.930 . S
H1446 C1451 0.930 . S
H1447 C1455 0.930 . S
O1448 Co1417 2.037 . S
O1448 C1468 1.234 . S
C1449 O1423 1.269 . S
C1449 O1424 1.257 . S
C1450 H1425 0.930 . S
C1450 C1453 1.388 . S
C1450 C1455 1.418 . S
C1451 H1446 0.930 . S
C1451 C1454 1.404 . S
C1451 C1455 1.353 . S
N1452 Co1417 2.145 . S
N1452 C1453 1.397 . S
N1452 C1454 1.334 . S
C1453 H1434 0.929 . S
C1453 C1450 1.388 . S
C1453 N1452 1.397 . S
C1454 H1435 0.929 . S
C1454 C1451 1.404 . S
C1454 N1452 1.334 . S
C1455 H1447 0.930 . S
C1455 C1450 1.418 . S
C1455 C1451 1.353 . S
C1456 H1426 0.930 . S
C1456 N1457 1.330 . S
C1456 C1458 1.446 . S
N1457 Co1416 2.151 . S
N1457 C1456 1.330 . S
N1457 C1461 1.418 . S
C1458 H1437 0.929 . S
C1458 C1456 1.446 . S
C1458 C1459 1.332 . S
C1459 H1439 0.931 . S
C1459 C1458 1.332 . S
C1459 C1460 1.267 . S
C1460 H1428 0.929 . S
C1460 C1459 1.267 . S
C1460 C1461 1.251 . S
C1461 H1431 0.929 . S
C1461 N1457 1.418 . S
C1461 C1460 1.251 . S
C1462 H1429 0.930 . S
C1462 C1464 1.406 . S
C1462 C1467 1.261 . S
C1463 H1430 0.930 . S
C1463 N1465 1.325 . S
C1463 C1466 1.357 . S
C1464 H1432 0.928 . S
C1464 C1462 1.406 . S
C1464 N1465 1.261 . S
N1465 Co1416 2.214 . S
N1465 C1463 1.325 . S
N1465 C1464 1.261 . S
C1466 H1436 0.931 . S
C1466 C1463 1.357 . S
C1466 C1467 1.312 . S
C1467 H1438 0.930 . S
C1467 C1462 1.261 . S
C1467 C1466 1.312 . S
C1468 O1440 1.214 . S
C1468 O1448 1.234 . S
C1469 H1441 0.929 . S
C1469 C1472 1.391 . S
C1469 C1474 1.391 . S
C1470 H1442 0.929 . S
C1470 C1471 1.390 . S
C1470 N1473 1.391 . S
C1471 H1443 0.930 . S
C1471 C1470 1.390 . S
C1471 C1472 1.392 . S
C1472 H1444 0.929 . S
C1472 C1469 1.391 . S
C1472 C1471 1.392 . S
N1473 Co1417 2.257 . S
N1473 C1470 1.391 . S
N1473 C1474 1.388 . S
C1474 H1445 0.930 . S
C1474 C1469 1.391 . S
C1474 N1473 1.388 . S
Co1475 O1477 2.143 . S
Co1475 O1483 2.074 . S
Co1475 O1486 2.093 . S
Co1475 O1499 2.097 . S
Co1475 N1516 2.151 . S
Co1475 N1524 2.214 . S
Co1476 O1477 2.160 . S
Co1476 O1482 2.058 . S
Co1476 O1492 2.057 . S
Co1476 O1507 2.037 . S
Co1476 N1511 2.145 . S
Co1476 N1532 2.257 . S
O1477 Co1475 2.143 . S
O1477 Co1476 2.160 . S
C1478 O1479 1.278 . S
C1478 O1486 1.224 . S
O1479 C1478 1.278 . S
C1480 O1481 1.245 . S
C1480 O1492 1.232 . S
O1481 C1480 1.245 . S
O1482 Co1476 2.058 . S
O1482 C1508 1.269 . S
O1483 Co1475 2.074 . S
O1483 C1508 1.257 . S
H1484 C1509 0.930 . S
H1485 C1515 0.930 . S
O1486 Co1475 2.093 . S
O1486 C1478 1.224 . S
H1487 C1519 0.929 . S
H1488 C1521 0.930 . S
H1489 C1522 0.930 . S
H1490 C1520 0.929 . S
H1491 C1523 0.928 . S
O1492 Co1476 2.057 . S
O1492 C1480 1.232 . S
H1493 C1512 0.929 . S
H1494 C1513 0.929 . S
H1495 C1525 0.931 . S
H1496 C1517 0.929 . S
H1497 C1526 0.930 . S
H1498 C1518 0.931 . S
O1499 Co1475 2.097 . S
O1499 C1527 1.214 . S
H1500 C1528 0.929 . S
H1501 C1529 0.929 . S
H1502 C1530 0.930 . S
H1503 C1531 0.929 . S
H1504 C1533 0.930 . S
H1505 C1510 0.930 . S
H1506 C1514 0.930 . S
O1507 Co1476 2.037 . S
O1507 C1527 1.234 . S
C1508 O1482 1.269 . S
C1508 O1483 1.257 . S
C1509 H1484 0.930 . S
C1509 C1512 1.388 . S
C1509 C1514 1.418 . S
C1510 H1505 0.930 . S
C1510 C1513 1.404 . S
C1510 C1514 1.353 . S
N1511 Co1476 2.145 . S
N1511 C1512 1.397 . S
N1511 C1513 1.334 . S
C1512 H1493 0.929 . S
C1512 C1509 1.388 . S
C1512 N1511 1.397 . S
C1513 H1494 0.929 . S
C1513 C1510 1.404 . S
C1513 N1511 1.334 . S
C1514 H1506 0.930 . S
C1514 C1509 1.418 . S
C1514 C1510 1.353 . S
C1515 H1485 0.930 . S
C1515 N1516 1.330 . S
C1515 C1517 1.446 . S
N1516 Co1475 2.151 . S
N1516 C1515 1.330 . S
N1516 C1520 1.418 . S
C1517 H1496 0.929 . S
C1517 C1515 1.446 . S
C1517 C1518 1.332 . S
C1518 H1498 0.931 . S
C1518 C1517 1.332 . S
C1518 C1519 1.267 . S
C1519 H1487 0.929 . S
C1519 C1518 1.267 . S
C1519 C1520 1.251 . S
C1520 H1490 0.929 . S
C1520 N1516 1.418 . S
C1520 C1519 1.251 . S
C1521 H1488 0.930 . S
C1521 C1523 1.406 . S
C1521 C1526 1.261 . S
C1522 H1489 0.930 . S
C1522 N1524 1.325 . S
C1522 C1525 1.357 . S
C1523 H1491 0.928 . S
C1523 C1521 1.406 . S
C1523 N1524 1.261 . S
N1524 Co1475 2.214 . S
N1524 C1522 1.325 . S
N1524 C1523 1.261 . S
C1525 H1495 0.931 . S
C1525 C1522 1.357 . S
C1525 C1526 1.312 . S
C1526 H1497 0.930 . S
C1526 C1521 1.261 . S
C1526 C1525 1.312 . S
C1527 O1499 1.214 . S
C1527 O1507 1.234 . S
C1528 H1500 0.929 . S
C1528 C1531 1.391 . S
C1528 C1533 1.391 . S
C1529 H1501 0.929 . S
C1529 C1530 1.390 . S
C1529 N1532 1.391 . S
C1530 H1502 0.930 . S
C1530 C1529 1.390 . S
C1530 C1531 1.392 . S
C1531 H1503 0.929 . S
C1531 C1528 1.391 . S
C1531 C1530 1.392 . S
N1532 Co1476 2.257 . S
N1532 C1529 1.391 . S
N1532 C1533 1.388 . S
C1533 H1504 0.930 . S
C1533 C1528 1.391 . S
C1533 N1532 1.388 . S
Co1534 O1536 2.143 . S
Co1534 O1542 2.074 . S
Co1534 O1545 2.093 . S
Co1534 O1558 2.097 . S
Co1534 N1575 2.151 . S
Co1534 N1583 2.214 . S
Co1535 O1536 2.160 . S
Co1535 O1541 2.058 . S
Co1535 O1551 2.057 . S
Co1535 O1566 2.037 . S
Co1535 N1570 2.145 . S
Co1535 N1591 2.257 . S
O1536 Co1534 2.143 . S
O1536 Co1535 2.160 . S
C1537 O1538 1.278 . S
C1537 O1545 1.224 . S
O1538 C1537 1.278 . S
C1539 O1540 1.245 . S
C1539 O1551 1.232 . S
O1540 C1539 1.245 . S
O1541 Co1535 2.058 . S
O1541 C1567 1.269 . S
O1542 Co1534 2.074 . S
O1542 C1567 1.257 . S
H1543 C1568 0.930 . S
H1544 C1574 0.930 . S
O1545 Co1534 2.093 . S
O1545 C1537 1.224 . S
H1546 C1578 0.929 . S
H1547 C1580 0.930 . S
H1548 C1581 0.930 . S
H1549 C1579 0.929 . S
H1550 C1582 0.928 . S
O1551 Co1535 2.057 . S
O1551 C1539 1.232 . S
H1552 C1571 0.929 . S
H1553 C1572 0.929 . S
H1554 C1584 0.931 . S
H1555 C1576 0.929 . S
H1556 C1585 0.930 . S
H1557 C1577 0.931 . S
O1558 Co1534 2.097 . S
O1558 C1586 1.214 . S
H1559 C1587 0.929 . S
H1560 C1588 0.929 . S
H1561 C1589 0.930 . S
H1562 C1590 0.929 . S
H1563 C1592 0.930 . S
H1564 C1569 0.930 . S
H1565 C1573 0.930 . S
O1566 Co1535 2.037 . S
O1566 C1586 1.234 . S
C1567 O1541 1.269 . S
C1567 O1542 1.257 . S
C1568 H1543 0.930 . S
C1568 C1571 1.388 . S
C1568 C1573 1.418 . S
C1569 H1564 0.930 . S
C1569 C1572 1.404 . S
C1569 C1573 1.353 . S
N1570 Co1535 2.145 . S
N1570 C1571 1.397 . S
N1570 C1572 1.334 . S
C1571 H1552 0.929 . S
C1571 C1568 1.388 . S
C1571 N1570 1.397 . S
C1572 H1553 0.929 . S
C1572 C1569 1.404 . S
C1572 N1570 1.334 . S
C1573 H1565 0.930 . S
C1573 C1568 1.418 . S
C1573 C1569 1.353 . S
C1574 H1544 0.930 . S
C1574 N1575 1.330 . S
C1574 C1576 1.446 . S
N1575 Co1534 2.151 . S
N1575 C1574 1.330 . S
N1575 C1579 1.418 . S
C1576 H1555 0.929 . S
C1576 C1574 1.446 . S
C1576 C1577 1.332 . S
C1577 H1557 0.931 . S
C1577 C1576 1.332 . S
C1577 C1578 1.267 . S
C1578 H1546 0.929 . S
C1578 C1577 1.267 . S
C1578 C1579 1.251 . S
C1579 H1549 0.929 . S
C1579 N1575 1.418 . S
C1579 C1578 1.251 . S
C1580 H1547 0.930 . S
C1580 C1582 1.406 . S
C1580 C1585 1.261 . S
C1581 H1548 0.930 . S
C1581 N1583 1.325 . S
C1581 C1584 1.357 . S
C1582 H1550 0.928 . S
C1582 C1580 1.406 . S
C1582 N1583 1.261 . S
N1583 Co1534 2.214 . S
N1583 C1581 1.325 . S
N1583 C1582 1.261 . S
C1584 H1554 0.931 . S
C1584 C1581 1.357 . S
C1584 C1585 1.312 . S
C1585 H1556 0.930 . S
C1585 C1580 1.261 . S
C1585 C1584 1.312 . S
C1586 O1558 1.214 . S
C1586 O1566 1.234 . S
C1587 H1559 0.929 . S
C1587 C1590 1.391 . S
C1587 C1592 1.391 . S
C1588 H1560 0.929 . S
C1588 C1589 1.390 . S
C1588 N1591 1.391 . S
C1589 H1561 0.930 . S
C1589 C1588 1.390 . S
C1589 C1590 1.392 . S
C1590 H1562 0.929 . S
C1590 C1587 1.391 . S
C1590 C1589 1.392 . S
N1591 Co1535 2.257 . S
N1591 C1588 1.391 . S
N1591 C1592 1.388 . S
C1592 H1563 0.930 . S
C1592 C1587 1.391 . S
C1592 N1591 1.388 . S
Co1593 O1595 2.143 . S
Co1593 O1601 2.074 . S
Co1593 O1604 2.093 . S
Co1593 O1617 2.097 . S
Co1593 N1634 2.151 . S
Co1593 N1642 2.214 . S
Co1594 O1595 2.160 . S
Co1594 O1600 2.058 . S
Co1594 O1610 2.057 . S
Co1594 O1625 2.037 . S
Co1594 N1629 2.145 . S
Co1594 N1650 2.257 . S
O1595 Co1593 2.143 . S
O1595 Co1594 2.160 . S
C1596 O1597 1.278 . S
C1596 O1604 1.224 . S
O1597 C1596 1.278 . S
C1598 O1599 1.245 . S
C1598 O1610 1.232 . S
O1599 C1598 1.245 . S
O1600 Co1594 2.058 . S
O1600 C1626 1.269 . S
O1601 Co1593 2.074 . S
O1601 C1626 1.257 . S
H1602 C1627 0.930 . S
H1603 C1633 0.930 . S
O1604 Co1593 2.093 . S
O1604 C1596 1.224 . S
H1605 C1637 0.929 . S
H1606 C1639 0.930 . S
H1607 C1640 0.930 . S
H1608 C1638 0.929 . S
H1609 C1641 0.928 . S
O1610 Co1594 2.057 . S
O1610 C1598 1.232 . S
H1611 C1630 0.929 . S
H1612 C1631 0.929 . S
H1613 C1643 0.931 . S
H1614 C1635 0.929 . S
H1615 C1644 0.930 . S
H1616 C1636 0.931 . S
O1617 Co1593 2.097 . S
O1617 C1645 1.214 . S
H1618 C1646 0.929 . S
H1619 C1647 0.929 . S
H1620 C1648 0.930 . S
H1621 C1649 0.929 . S
H1622 C1651 0.930 . S
H1623 C1628 0.930 . S
H1624 C1632 0.930 . S
O1625 Co1594 2.037 . S
O1625 C1645 1.234 . S
C1626 O1600 1.269 . S
C1626 O1601 1.257 . S
C1627 H1602 0.930 . S
C1627 C1630 1.388 . S
C1627 C1632 1.418 . S
C1628 H1623 0.930 . S
C1628 C1631 1.404 . S
C1628 C1632 1.353 . S
N1629 Co1594 2.145 . S
N1629 C1630 1.397 . S
N1629 C1631 1.334 . S
C1630 H1611 0.929 . S
C1630 C1627 1.388 . S
C1630 N1629 1.397 . S
C1631 H1612 0.929 . S
C1631 C1628 1.404 . S
C1631 N1629 1.334 . S
C1632 H1624 0.930 . S
C1632 C1627 1.418 . S
C1632 C1628 1.353 . S
C1633 H1603 0.930 . S
C1633 N1634 1.330 . S
C1633 C1635 1.446 . S
N1634 Co1593 2.151 . S
N1634 C1633 1.330 . S
N1634 C1638 1.418 . S
C1635 H1614 0.929 . S
C1635 C1633 1.446 . S
C1635 C1636 1.332 . S
C1636 H1616 0.931 . S
C1636 C1635 1.332 . S
C1636 C1637 1.267 . S
C1637 H1605 0.929 . S
C1637 C1636 1.267 . S
C1637 C1638 1.251 . S
C1638 H1608 0.929 . S
C1638 N1634 1.418 . S
C1638 C1637 1.251 . S
C1639 H1606 0.930 . S
C1639 C1641 1.406 . S
C1639 C1644 1.261 . S
C1640 H1607 0.930 . S
C1640 N1642 1.325 . S
C1640 C1643 1.357 . S
C1641 H1609 0.928 . S
C1641 C1639 1.406 . S
C1641 N1642 1.261 . S
N1642 Co1593 2.214 . S
N1642 C1640 1.325 . S
N1642 C1641 1.261 . S
C1643 H1613 0.931 . S
C1643 C1640 1.357 . S
C1643 C1644 1.312 . S
C1644 H1615 0.930 . S
C1644 C1639 1.261 . S
C1644 C1643 1.312 . S
C1645 O1617 1.214 . S
C1645 O1625 1.234 . S
C1646 H1618 0.929 . S
C1646 C1649 1.391 . S
C1646 C1651 1.391 . S
C1647 H1619 0.929 . S
C1647 C1648 1.390 . S
C1647 N1650 1.391 . S
C1648 H1620 0.930 . S
C1648 C1647 1.390 . S
C1648 C1649 1.392 . S
C1649 H1621 0.929 . S
C1649 C1646 1.391 . S
C1649 C1648 1.392 . S
N1650 Co1594 2.257 . S
N1650 C1647 1.391 . S
N1650 C1651 1.388 . S
C1651 H1622 0.930 . S
C1651 C1646 1.391 . S
C1651 N1650 1.388 . S
Co1652 O1654 2.143 . S
Co1652 O1660 2.074 . S
Co1652 O1663 2.093 . S
Co1652 O1676 2.097 . S
Co1652 N1693 2.151 . S
Co1652 N1701 2.214 . S
Co1653 O1654 2.160 . S
Co1653 O1659 2.058 . S
Co1653 O1669 2.057 . S
Co1653 O1684 2.037 . S
Co1653 N1688 2.145 . S
Co1653 N1709 2.257 . S
O1654 Co1652 2.143 . S
O1654 Co1653 2.160 . S
C1655 O1656 1.278 . S
C1655 O1663 1.224 . S
O1656 C1655 1.278 . S
C1657 O1658 1.245 . S
C1657 O1669 1.232 . S
O1658 C1657 1.245 . S
O1659 Co1653 2.058 . S
O1659 C1685 1.269 . S
O1660 Co1652 2.074 . S
O1660 C1685 1.257 . S
H1661 C1686 0.930 . S
H1662 C1692 0.930 . S
O1663 Co1652 2.093 . S
O1663 C1655 1.224 . S
H1664 C1696 0.929 . S
H1665 C1698 0.930 . S
H1666 C1699 0.930 . S
H1667 C1697 0.929 . S
H1668 C1700 0.928 . S
O1669 Co1653 2.057 . S
O1669 C1657 1.232 . S
H1670 C1689 0.929 . S
H1671 C1690 0.929 . S
H1672 C1702 0.931 . S
H1673 C1694 0.929 . S
H1674 C1703 0.930 . S
H1675 C1695 0.931 . S
O1676 Co1652 2.097 . S
O1676 C1704 1.214 . S
H1677 C1705 0.929 . S
H1678 C1706 0.929 . S
H1679 C1707 0.930 . S
H1680 C1708 0.929 . S
H1681 C1710 0.930 . S
H1682 C1687 0.930 . S
H1683 C1691 0.930 . S
O1684 Co1653 2.037 . S
O1684 C1704 1.234 . S
C1685 O1659 1.269 . S
C1685 O1660 1.257 . S
C1686 H1661 0.930 . S
C1686 C1689 1.388 . S
C1686 C1691 1.418 . S
C1687 H1682 0.930 . S
C1687 C1690 1.404 . S
C1687 C1691 1.353 . S
N1688 Co1653 2.145 . S
N1688 C1689 1.397 . S
N1688 C1690 1.334 . S
C1689 H1670 0.929 . S
C1689 C1686 1.388 . S
C1689 N1688 1.397 . S
C1690 H1671 0.929 . S
C1690 C1687 1.404 . S
C1690 N1688 1.334 . S
C1691 H1683 0.930 . S
C1691 C1686 1.418 . S
C1691 C1687 1.353 . S
C1692 H1662 0.930 . S
C1692 N1693 1.330 . S
C1692 C1694 1.446 . S
N1693 Co1652 2.151 . S
N1693 C1692 1.330 . S
N1693 C1697 1.418 . S
C1694 H1673 0.929 . S
C1694 C1692 1.446 . S
C1694 C1695 1.332 . S
C1695 H1675 0.931 . S
C1695 C1694 1.332 . S
C1695 C1696 1.267 . S
C1696 H1664 0.929 . S
C1696 C1695 1.267 . S
C1696 C1697 1.251 . S
C1697 H1667 0.929 . S
C1697 N1693 1.418 . S
C1697 C1696 1.251 . S
C1698 H1665 0.930 . S
C1698 C1700 1.406 . S
C1698 C1703 1.261 . S
C1699 H1666 0.930 . S
C1699 N1701 1.325 . S
C1699 C1702 1.357 . S
C1700 H1668 0.928 . S
C1700 C1698 1.406 . S
C1700 N1701 1.261 . S
N1701 Co1652 2.214 . S
N1701 C1699 1.325 . S
N1701 C1700 1.261 . S
C1702 H1672 0.931 . S
C1702 C1699 1.357 . S
C1702 C1703 1.312 . S
C1703 H1674 0.930 . S
C1703 C1698 1.261 . S
C1703 C1702 1.312 . S
C1704 O1676 1.214 . S
C1704 O1684 1.234 . S
C1705 H1677 0.929 . S
C1705 C1708 1.391 . S
C1705 C1710 1.391 . S
C1706 H1678 0.929 . S
C1706 C1707 1.390 . S
C1706 N1709 1.391 . S
C1707 H1679 0.930 . S
C1707 C1706 1.390 . S
C1707 C1708 1.392 . S
C1708 H1680 0.929 . S
C1708 C1705 1.391 . S
C1708 C1707 1.392 . S
N1709 Co1653 2.257 . S
N1709 C1706 1.391 . S
N1709 C1710 1.388 . S
C1710 H1681 0.930 . S
C1710 C1705 1.391 . S
C1710 N1709 1.388 . S
Co1711 O1713 2.143 . S
Co1711 O1719 2.074 . S
Co1711 O1722 2.093 . S
Co1711 O1735 2.097 . S
Co1711 N1752 2.151 . S
Co1711 N1760 2.214 . S
Co1712 O1713 2.160 . S
Co1712 O1718 2.058 . S
Co1712 O1728 2.057 . S
Co1712 O1743 2.037 . S
Co1712 N1747 2.145 . S
Co1712 N1768 2.257 . S
O1713 Co1711 2.143 . S
O1713 Co1712 2.160 . S
C1714 O1715 1.278 . S
C1714 O1722 1.224 . S
O1715 C1714 1.278 . S
C1716 O1717 1.245 . S
C1716 O1728 1.232 . S
O1717 C1716 1.245 . S
O1718 Co1712 2.058 . S
O1718 C1744 1.269 . S
O1719 Co1711 2.074 . S
O1719 C1744 1.257 . S
H1720 C1745 0.930 . S
H1721 C1751 0.930 . S
O1722 Co1711 2.093 . S
O1722 C1714 1.224 . S
H1723 C1755 0.929 . S
H1724 C1757 0.930 . S
H1725 C1758 0.930 . S
H1726 C1756 0.929 . S
H1727 C1759 0.928 . S
O1728 Co1712 2.057 . S
O1728 C1716 1.232 . S
H1729 C1748 0.929 . S
H1730 C1749 0.929 . S
H1731 C1761 0.931 . S
H1732 C1753 0.929 . S
H1733 C1762 0.930 . S
H1734 C1754 0.931 . S
O1735 Co1711 2.097 . S
O1735 C1763 1.214 . S
H1736 C1764 0.929 . S
H1737 C1765 0.929 . S
H1738 C1766 0.930 . S
H1739 C1767 0.929 . S
H1740 C1769 0.930 . S
H1741 C1746 0.930 . S
H1742 C1750 0.930 . S
O1743 Co1712 2.037 . S
O1743 C1763 1.234 . S
C1744 O1718 1.269 . S
C1744 O1719 1.257 . S
C1745 H1720 0.930 . S
C1745 C1748 1.388 . S
C1745 C1750 1.418 . S
C1746 H1741 0.930 . S
C1746 C1749 1.404 . S
C1746 C1750 1.353 . S
N1747 Co1712 2.145 . S
N1747 C1748 1.397 . S
N1747 C1749 1.334 . S
C1748 H1729 0.929 . S
C1748 C1745 1.388 . S
C1748 N1747 1.397 . S
C1749 H1730 0.929 . S
C1749 C1746 1.404 . S
C1749 N1747 1.334 . S
C1750 H1742 0.930 . S
C1750 C1745 1.418 . S
C1750 C1746 1.353 . S
C1751 H1721 0.930 . S
C1751 N1752 1.330 . S
C1751 C1753 1.446 . S
N1752 Co1711 2.151 . S
N1752 C1751 1.330 . S
N1752 C1756 1.418 . S
C1753 H1732 0.929 . S
C1753 C1751 1.446 . S
C1753 C1754 1.332 . S
C1754 H1734 0.931 . S
C1754 C1753 1.332 . S
C1754 C1755 1.267 . S
C1755 H1723 0.929 . S
C1755 C1754 1.267 . S
C1755 C1756 1.251 . S
C1756 H1726 0.929 . S
C1756 N1752 1.418 . S
C1756 C1755 1.251 . S
C1757 H1724 0.930 . S
C1757 C1759 1.406 . S
C1757 C1762 1.261 . S
C1758 H1725 0.930 . S
C1758 N1760 1.325 . S
C1758 C1761 1.357 . S
C1759 H1727 0.928 . S
C1759 C1757 1.406 . S
C1759 N1760 1.261 . S
N1760 Co1711 2.214 . S
N1760 C1758 1.325 . S
N1760 C1759 1.261 . S
C1761 H1731 0.931 . S
C1761 C1758 1.357 . S
C1761 C1762 1.312 . S
C1762 H1733 0.930 . S
C1762 C1757 1.261 . S
C1762 C1761 1.312 . S
C1763 O1735 1.214 . S
C1763 O1743 1.234 . S
C1764 H1736 0.929 . S
C1764 C1767 1.391 . S
C1764 C1769 1.391 . S
C1765 H1737 0.929 . S
C1765 C1766 1.390 . S
C1765 N1768 1.391 . S
C1766 H1738 0.930 . S
C1766 C1765 1.390 . S
C1766 C1767 1.392 . S
C1767 H1739 0.929 . S
C1767 C1764 1.391 . S
C1767 C1766 1.392 . S
N1768 Co1712 2.257 . S
N1768 C1765 1.391 . S
N1768 C1769 1.388 . S
C1769 H1740 0.930 . S
C1769 C1764 1.391 . S
C1769 N1768 1.388 . S
Co1770 O1772 2.143 . S
Co1770 O1778 2.074 . S
Co1770 O1781 2.093 . S
Co1770 O1794 2.097 . S
Co1770 N1811 2.151 . S
Co1770 N1819 2.214 . S
Co1771 O1772 2.160 . S
Co1771 O1777 2.058 . S
Co1771 O1787 2.057 . S
Co1771 O1802 2.037 . S
Co1771 N1806 2.145 . S
Co1771 N1827 2.257 . S
O1772 Co1770 2.143 . S
O1772 Co1771 2.160 . S
C1773 O1774 1.278 . S
C1773 O1781 1.224 . S
O1774 C1773 1.278 . S
C1775 O1776 1.245 . S
C1775 O1787 1.232 . S
O1776 C1775 1.245 . S
O1777 Co1771 2.058 . S
O1777 C1803 1.269 . S
O1778 Co1770 2.074 . S
O1778 C1803 1.257 . S
H1779 C1804 0.930 . S
H1780 C1810 0.930 . S
O1781 Co1770 2.093 . S
O1781 C1773 1.224 . S
H1782 C1814 0.929 . S
H1783 C1816 0.930 . S
H1784 C1817 0.930 . S
H1785 C1815 0.929 . S
H1786 C1818 0.928 . S
O1787 Co1771 2.057 . S
O1787 C1775 1.232 . S
H1788 C1807 0.929 . S
H1789 C1808 0.929 . S
H1790 C1820 0.931 . S
H1791 C1812 0.929 . S
H1792 C1821 0.930 . S
H1793 C1813 0.931 . S
O1794 Co1770 2.097 . S
O1794 C1822 1.214 . S
H1795 C1823 0.929 . S
H1796 C1824 0.929 . S
H1797 C1825 0.930 . S
H1798 C1826 0.929 . S
H1799 C1828 0.930 . S
H1800 C1805 0.930 . S
H1801 C1809 0.930 . S
O1802 Co1771 2.037 . S
O1802 C1822 1.234 . S
C1803 O1777 1.269 . S
C1803 O1778 1.257 . S
C1804 H1779 0.930 . S
C1804 C1807 1.388 . S
C1804 C1809 1.418 . S
C1805 H1800 0.930 . S
C1805 C1808 1.404 . S
C1805 C1809 1.353 . S
N1806 Co1771 2.145 . S
N1806 C1807 1.397 . S
N1806 C1808 1.334 . S
C1807 H1788 0.929 . S
C1807 C1804 1.388 . S
C1807 N1806 1.397 . S
C1808 H1789 0.929 . S
C1808 C1805 1.404 . S
C1808 N1806 1.334 . S
C1809 H1801 0.930 . S
C1809 C1804 1.418 . S
C1809 C1805 1.353 . S
C1810 H1780 0.930 . S
C1810 N1811 1.330 . S
C1810 C1812 1.446 . S
N1811 Co1770 2.151 . S
N1811 C1810 1.330 . S
N1811 C1815 1.418 . S
C1812 H1791 0.929 . S
C1812 C1810 1.446 . S
C1812 C1813 1.332 . S
C1813 H1793 0.931 . S
C1813 C1812 1.332 . S
C1813 C1814 1.267 . S
C1814 H1782 0.929 . S
C1814 C1813 1.267 . S
C1814 C1815 1.251 . S
C1815 H1785 0.929 . S
C1815 N1811 1.418 . S
C1815 C1814 1.251 . S
C1816 H1783 0.930 . S
C1816 C1818 1.406 . S
C1816 C1821 1.261 . S
C1817 H1784 0.930 . S
C1817 N1819 1.325 . S
C1817 C1820 1.357 . S
C1818 H1786 0.928 . S
C1818 C1816 1.406 . S
C1818 N1819 1.261 . S
N1819 Co1770 2.214 . S
N1819 C1817 1.325 . S
N1819 C1818 1.261 . S
C1820 H1790 0.931 . S
C1820 C1817 1.357 . S
C1820 C1821 1.312 . S
C1821 H1792 0.930 . S
C1821 C1816 1.261 . S
C1821 C1820 1.312 . S
C1822 O1794 1.214 . S
C1822 O1802 1.234 . S
C1823 H1795 0.929 . S
C1823 C1826 1.391 . S
C1823 C1828 1.391 . S
C1824 H1796 0.929 . S
C1824 C1825 1.390 . S
C1824 N1827 1.391 . S
C1825 H1797 0.930 . S
C1825 C1824 1.390 . S
C1825 C1826 1.392 . S
C1826 H1798 0.929 . S
C1826 C1823 1.391 . S
C1826 C1825 1.392 . S
N1827 Co1771 2.257 . S
N1827 C1824 1.391 . S
N1827 C1828 1.388 . S
C1828 H1799 0.930 . S
C1828 C1823 1.391 . S
C1828 N1827 1.388 . S
Co1829 O1831 2.143 . S
Co1829 O1837 2.074 . S
Co1829 O1840 2.093 . S
Co1829 O1853 2.097 . S
Co1829 N1870 2.151 . S
Co1829 N1878 2.214 . S
Co1830 O1831 2.160 . S
Co1830 O1836 2.058 . S
Co1830 O1846 2.057 . S
Co1830 O1861 2.037 . S
Co1830 N1865 2.145 . S
Co1830 N1886 2.257 . S
O1831 Co1829 2.143 . S
O1831 Co1830 2.160 . S
C1832 O1833 1.278 . S
C1832 O1840 1.224 . S
O1833 C1832 1.278 . S
C1834 O1835 1.245 . S
C1834 O1846 1.232 . S
O1835 C1834 1.245 . S
O1836 Co1830 2.058 . S
O1836 C1862 1.269 . S
O1837 Co1829 2.074 . S
O1837 C1862 1.257 . S
H1838 C1863 0.930 . S
H1839 C1869 0.930 . S
O1840 Co1829 2.093 . S
O1840 C1832 1.224 . S
H1841 C1873 0.929 . S
H1842 C1875 0.930 . S
H1843 C1876 0.930 . S
H1844 C1874 0.929 . S
H1845 C1877 0.928 . S
O1846 Co1830 2.057 . S
O1846 C1834 1.232 . S
H1847 C1866 0.929 . S
H1848 C1867 0.929 . S
H1849 C1879 0.931 . S
H1850 C1871 0.929 . S
H1851 C1880 0.930 . S
H1852 C1872 0.931 . S
O1853 Co1829 2.097 . S
O1853 C1881 1.214 . S
H1854 C1882 0.929 . S
H1855 C1883 0.929 . S
H1856 C1884 0.930 . S
H1857 C1885 0.929 . S
H1858 C1887 0.930 . S
H1859 C1864 0.930 . S
H1860 C1868 0.930 . S
O1861 Co1830 2.037 . S
O1861 C1881 1.234 . S
C1862 O1836 1.269 . S
C1862 O1837 1.257 . S
C1863 H1838 0.930 . S
C1863 C1866 1.388 . S
C1863 C1868 1.418 . S
C1864 H1859 0.930 . S
C1864 C1867 1.404 . S
C1864 C1868 1.353 . S
N1865 Co1830 2.145 . S
N1865 C1866 1.397 . S
N1865 C1867 1.334 . S
C1866 H1847 0.929 . S
C1866 C1863 1.388 . S
C1866 N1865 1.397 . S
C1867 H1848 0.929 . S
C1867 C1864 1.404 . S
C1867 N1865 1.334 . S
C1868 H1860 0.930 . S
C1868 C1863 1.418 . S
C1868 C1864 1.353 . S
C1869 H1839 0.930 . S
C1869 N1870 1.330 . S
C1869 C1871 1.446 . S
N1870 Co1829 2.151 . S
N1870 C1869 1.330 . S
N1870 C1874 1.418 . S
C1871 H1850 0.929 . S
C1871 C1869 1.446 . S
C1871 C1872 1.332 . S
C1872 H1852 0.931 . S
C1872 C1871 1.332 . S
C1872 C1873 1.267 . S
C1873 H1841 0.929 . S
C1873 C1872 1.267 . S
C1873 C1874 1.251 . S
C1874 H1844 0.929 . S
C1874 N1870 1.418 . S
C1874 C1873 1.251 . S
C1875 H1842 0.930 . S
C1875 C1877 1.406 . S
C1875 C1880 1.261 . S
C1876 H1843 0.930 . S
C1876 N1878 1.325 . S
C1876 C1879 1.357 . S
C1877 H1845 0.928 . S
C1877 C1875 1.406 . S
C1877 N1878 1.261 . S
N1878 Co1829 2.214 . S
N1878 C1876 1.325 . S
N1878 C1877 1.261 . S
C1879 H1849 0.931 . S
C1879 C1876 1.357 . S
C1879 C1880 1.312 . S
C1880 H1851 0.930 . S
C1880 C1875 1.261 . S
C1880 C1879 1.312 . S
C1881 O1853 1.214 . S
C1881 O1861 1.234 . S
C1882 H1854 0.929 . S
C1882 C1885 1.391 . S
C1882 C1887 1.391 . S
C1883 H1855 0.929 . S
C1883 C1884 1.390 . S
C1883 N1886 1.391 . S
C1884 H1856 0.930 . S
C1884 C1883 1.390 . S
C1884 C1885 1.392 . S
C1885 H1857 0.929 . S
C1885 C1882 1.391 . S
C1885 C1884 1.392 . S
N1886 Co1830 2.257 . S
N1886 C1883 1.391 . S
N1886 C1887 1.388 . S
C1887 H1858 0.930 . S
C1887 C1882 1.391 . S
C1887 N1886 1.388 . S
Co1888 O1890 2.143 . S
Co1888 O1896 2.074 . S
Co1888 O1899 2.093 . S
Co1888 O1912 2.097 . S
Co1888 N1929 2.151 . S
Co1888 N1937 2.214 . S
Co1889 O1890 2.160 . S
Co1889 O1895 2.058 . S
Co1889 O1905 2.057 . S
Co1889 O1920 2.037 . S
Co1889 N1924 2.145 . S
Co1889 N1945 2.257 . S
O1890 Co1888 2.143 . S
O1890 Co1889 2.160 . S
C1891 O1892 1.278 . S
C1891 O1899 1.224 . S
O1892 C1891 1.278 . S
C1893 O1894 1.245 . S
C1893 O1905 1.232 . S
O1894 C1893 1.245 . S
O1895 Co1889 2.058 . S
O1895 C1921 1.269 . S
O1896 Co1888 2.074 . S
O1896 C1921 1.257 . S
H1897 C1922 0.930 . S
H1898 C1928 0.930 . S
O1899 Co1888 2.093 . S
O1899 C1891 1.224 . S
H1900 C1932 0.929 . S
H1901 C1934 0.930 . S
H1902 C1935 0.930 . S
H1903 C1933 0.929 . S
H1904 C1936 0.928 . S
O1905 Co1889 2.057 . S
O1905 C1893 1.232 . S
H1906 C1925 0.929 . S
H1907 C1926 0.929 . S
H1908 C1938 0.931 . S
H1909 C1930 0.929 . S
H1910 C1939 0.930 . S
H1911 C1931 0.931 . S
O1912 Co1888 2.097 . S
O1912 C1940 1.214 . S
H1913 C1941 0.929 . S
H1914 C1942 0.929 . S
H1915 C1943 0.930 . S
H1916 C1944 0.929 . S
H1917 C1946 0.930 . S
H1918 C1923 0.930 . S
H1919 C1927 0.930 . S
O1920 Co1889 2.037 . S
O1920 C1940 1.234 . S
C1921 O1895 1.269 . S
C1921 O1896 1.257 . S
C1922 H1897 0.930 . S
C1922 C1925 1.388 . S
C1922 C1927 1.418 . S
C1923 H1918 0.930 . S
C1923 C1926 1.404 . S
C1923 C1927 1.353 . S
N1924 Co1889 2.145 . S
N1924 C1925 1.397 . S
N1924 C1926 1.334 . S
C1925 H1906 0.929 . S
C1925 C1922 1.388 . S
C1925 N1924 1.397 . S
C1926 H1907 0.929 . S
C1926 C1923 1.404 . S
C1926 N1924 1.334 . S
C1927 H1919 0.930 . S
C1927 C1922 1.418 . S
C1927 C1923 1.353 . S
C1928 H1898 0.930 . S
C1928 N1929 1.330 . S
C1928 C1930 1.446 . S
N1929 Co1888 2.151 . S
N1929 C1928 1.330 . S
N1929 C1933 1.418 . S
C1930 H1909 0.929 . S
C1930 C1928 1.446 . S
C1930 C1931 1.332 . S
C1931 H1911 0.931 . S
C1931 C1930 1.332 . S
C1931 C1932 1.267 . S
C1932 H1900 0.929 . S
C1932 C1931 1.267 . S
C1932 C1933 1.251 . S
C1933 H1903 0.929 . S
C1933 N1929 1.418 . S
C1933 C1932 1.251 . S
C1934 H1901 0.930 . S
C1934 C1936 1.406 . S
C1934 C1939 1.261 . S
C1935 H1902 0.930 . S
C1935 N1937 1.325 . S
C1935 C1938 1.357 . S
C1936 H1904 0.928 . S
C1936 C1934 1.406 . S
C1936 N1937 1.261 . S
N1937 Co1888 2.214 . S
N1937 C1935 1.325 . S
N1937 C1936 1.261 . S
C1938 H1908 0.931 . S
C1938 C1935 1.357 . S
C1938 C1939 1.312 . S
C1939 H1910 0.930 . S
C1939 C1934 1.261 . S
C1939 C1938 1.312 . S
C1940 O1912 1.214 . S
C1940 O1920 1.234 . S
C1941 H1913 0.929 . S
C1941 C1944 1.391 . S
C1941 C1946 1.391 . S
C1942 H1914 0.929 . S
C1942 C1943 1.390 . S
C1942 N1945 1.391 . S
C1943 H1915 0.930 . S
C1943 C1942 1.390 . S
C1943 C1944 1.392 . S
C1944 H1916 0.929 . S
C1944 C1941 1.391 . S
C1944 C1943 1.392 . S
N1945 Co1889 2.257 . S
N1945 C1942 1.391 . S
N1945 C1946 1.388 . S
C1946 H1917 0.930 . S
C1946 C1941 1.391 . S
C1946 N1945 1.388 . S
Co1947 O1949 2.143 . S
Co1947 O1955 2.074 . S
Co1947 O1958 2.093 . S
Co1947 O1971 2.097 . S
Co1947 N1988 2.151 . S
Co1947 N1996 2.214 . S
Co1948 O1949 2.160 . S
Co1948 O1954 2.058 . S
Co1948 O1964 2.057 . S
Co1948 O1979 2.037 . S
Co1948 N1983 2.145 . S
Co1948 N2004 2.257 . S
O1949 Co1947 2.143 . S
O1949 Co1948 2.160 . S
C1950 O1951 1.278 . S
C1950 O1958 1.224 . S
O1951 C1950 1.278 . S
C1952 O1953 1.245 . S
C1952 O1964 1.232 . S
O1953 C1952 1.245 . S
O1954 Co1948 2.058 . S
O1954 C1980 1.269 . S
O1955 Co1947 2.074 . S
O1955 C1980 1.257 . S
H1956 C1981 0.930 . S
H1957 C1987 0.930 . S
O1958 Co1947 2.093 . S
O1958 C1950 1.224 . S
H1959 C1991 0.929 . S
H1960 C1993 0.930 . S
H1961 C1994 0.930 . S
H1962 C1992 0.929 . S
H1963 C1995 0.928 . S
O1964 Co1948 2.057 . S
O1964 C1952 1.232 . S
H1965 C1984 0.929 . S
H1966 C1985 0.929 . S
H1967 C1997 0.931 . S
H1968 C1989 0.929 . S
H1969 C1998 0.930 . S
H1970 C1990 0.931 . S
O1971 Co1947 2.097 . S
O1971 C1999 1.214 . S
H1972 C2000 0.929 . S
H1973 C2001 0.929 . S
H1974 C2002 0.930 . S
H1975 C2003 0.929 . S
H1976 C2005 0.930 . S
H1977 C1982 0.930 . S
H1978 C1986 0.930 . S
O1979 Co1948 2.037 . S
O1979 C1999 1.234 . S
C1980 O1954 1.269 . S
C1980 O1955 1.257 . S
C1981 H1956 0.930 . S
C1981 C1984 1.388 . S
C1981 C1986 1.418 . S
C1982 H1977 0.930 . S
C1982 C1985 1.404 . S
C1982 C1986 1.353 . S
N1983 Co1948 2.145 . S
N1983 C1984 1.397 . S
N1983 C1985 1.334 . S
C1984 H1965 0.929 . S
C1984 C1981 1.388 . S
C1984 N1983 1.397 . S
C1985 H1966 0.929 . S
C1985 C1982 1.404 . S
C1985 N1983 1.334 . S
C1986 H1978 0.930 . S
C1986 C1981 1.418 . S
C1986 C1982 1.353 . S
C1987 H1957 0.930 . S
C1987 N1988 1.330 . S
C1987 C1989 1.446 . S
N1988 Co1947 2.151 . S
N1988 C1987 1.330 . S
N1988 C1992 1.418 . S
C1989 H1968 0.929 . S
C1989 C1987 1.446 . S
C1989 C1990 1.332 . S
C1990 H1970 0.931 . S
C1990 C1989 1.332 . S
C1990 C1991 1.267 . S
C1991 H1959 0.929 . S
C1991 C1990 1.267 . S
C1991 C1992 1.251 . S
C1992 H1962 0.929 . S
C1992 N1988 1.418 . S
C1992 C1991 1.251 . S
C1993 H1960 0.930 . S
C1993 C1995 1.406 . S
C1993 C1998 1.261 . S
C1994 H1961 0.930 . S
C1994 N1996 1.325 . S
C1994 C1997 1.357 . S
C1995 H1963 0.928 . S
C1995 C1993 1.406 . S
C1995 N1996 1.261 . S
N1996 Co1947 2.214 . S
N1996 C1994 1.325 . S
N1996 C1995 1.261 . S
C1997 H1967 0.931 . S
C1997 C1994 1.357 . S
C1997 C1998 1.312 . S
C1998 H1969 0.930 . S
C1998 C1993 1.261 . S
C1998 C1997 1.312 . S
C1999 O1971 1.214 . S
C1999 O1979 1.234 . S
C2000 H1972 0.929 . S
C2000 C2003 1.391 . S
C2000 C2005 1.391 . S
C2001 H1973 0.929 . S
C2001 C2002 1.390 . S
C2001 N2004 1.391 . S
C2002 H1974 0.930 . S
C2002 C2001 1.390 . S
C2002 C2003 1.392 . S
C2003 H1975 0.929 . S
C2003 C2000 1.391 . S
C2003 C2002 1.392 . S
N2004 Co1948 2.257 . S
N2004 C2001 1.391 . S
N2004 C2005 1.388 . S
C2005 H1976 0.930 . S
C2005 C2000 1.391 . S
C2005 N2004 1.388 . S
Co2006 O2008 2.143 . S
Co2006 O2014 2.074 . S
Co2006 O2017 2.093 . S
Co2006 O2030 2.097 . S
Co2006 N2047 2.151 . S
Co2006 N2055 2.214 . S
Co2007 O2008 2.160 . S
Co2007 O2013 2.058 . S
Co2007 O2023 2.057 . S
Co2007 O2038 2.037 . S
Co2007 N2042 2.145 . S
Co2007 N2063 2.257 . S
O2008 Co2006 2.143 . S
O2008 Co2007 2.160 . S
C2009 O2010 1.278 . S
C2009 O2017 1.224 . S
O2010 C2009 1.278 . S
C2011 O2012 1.245 . S
C2011 O2023 1.232 . S
O2012 C2011 1.245 . S
O2013 Co2007 2.058 . S
O2013 C2039 1.269 . S
O2014 Co2006 2.074 . S
O2014 C2039 1.257 . S
H2015 C2040 0.930 . S
H2016 C2046 0.930 . S
O2017 Co2006 2.093 . S
O2017 C2009 1.224 . S
H2018 C2050 0.929 . S
H2019 C2052 0.930 . S
H2020 C2053 0.930 . S
H2021 C2051 0.929 . S
H2022 C2054 0.928 . S
O2023 Co2007 2.057 . S
O2023 C2011 1.232 . S
H2024 C2043 0.929 . S
H2025 C2044 0.929 . S
H2026 C2056 0.931 . S
H2027 C2048 0.929 . S
H2028 C2057 0.930 . S
H2029 C2049 0.931 . S
O2030 Co2006 2.097 . S
O2030 C2058 1.214 . S
H2031 C2059 0.929 . S
H2032 C2060 0.929 . S
H2033 C2061 0.930 . S
H2034 C2062 0.929 . S
H2035 C2064 0.930 . S
H2036 C2041 0.930 . S
H2037 C2045 0.930 . S
O2038 Co2007 2.037 . S
O2038 C2058 1.234 . S
C2039 O2013 1.269 . S
C2039 O2014 1.257 . S
C2040 H2015 0.930 . S
C2040 C2043 1.388 . S
C2040 C2045 1.418 . S
C2041 H2036 0.930 . S
C2041 C2044 1.404 . S
C2041 C2045 1.353 . S
N2042 Co2007 2.145 . S
N2042 C2043 1.397 . S
N2042 C2044 1.334 . S
C2043 H2024 0.929 . S
C2043 C2040 1.388 . S
C2043 N2042 1.397 . S
C2044 H2025 0.929 . S
C2044 C2041 1.404 . S
C2044 N2042 1.334 . S
C2045 H2037 0.930 . S
C2045 C2040 1.418 . S
C2045 C2041 1.353 . S
C2046 H2016 0.930 . S
C2046 N2047 1.330 . S
C2046 C2048 1.446 . S
N2047 Co2006 2.151 . S
N2047 C2046 1.330 . S
N2047 C2051 1.418 . S
C2048 H2027 0.929 . S
C2048 C2046 1.446 . S
C2048 C2049 1.332 . S
C2049 H2029 0.931 . S
C2049 C2048 1.332 . S
C2049 C2050 1.267 . S
C2050 H2018 0.929 . S
C2050 C2049 1.267 . S
C2050 C2051 1.251 . S
C2051 H2021 0.929 . S
C2051 N2047 1.418 . S
C2051 C2050 1.251 . S
C2052 H2019 0.930 . S
C2052 C2054 1.406 . S
C2052 C2057 1.261 . S
C2053 H2020 0.930 . S
C2053 N2055 1.325 . S
C2053 C2056 1.357 . S
C2054 H2022 0.928 . S
C2054 C2052 1.406 . S
C2054 N2055 1.261 . S
N2055 Co2006 2.214 . S
N2055 C2053 1.325 . S
N2055 C2054 1.261 . S
C2056 H2026 0.931 . S
C2056 C2053 1.357 . S
C2056 C2057 1.312 . S
C2057 H2028 0.930 . S
C2057 C2052 1.261 . S
C2057 C2056 1.312 . S
C2058 O2030 1.214 . S
C2058 O2038 1.234 . S
C2059 H2031 0.929 . S
C2059 C2062 1.391 . S
C2059 C2064 1.391 . S
C2060 H2032 0.929 . S
C2060 C2061 1.390 . S
C2060 N2063 1.391 . S
C2061 H2033 0.930 . S
C2061 C2060 1.390 . S
C2061 C2062 1.392 . S
C2062 H2034 0.929 . S
C2062 C2059 1.391 . S
C2062 C2061 1.392 . S
N2063 Co2007 2.257 . S
N2063 C2060 1.391 . S
N2063 C2064 1.388 . S
C2064 H2035 0.930 . S
C2064 C2059 1.391 . S
C2064 N2063 1.388 . S
Co2065 O2067 2.143 . S
Co2065 O2073 2.074 . S
Co2065 O2076 2.093 . S
Co2065 O2089 2.097 . S
Co2065 N2106 2.151 . S
Co2065 N2114 2.214 . S
Co2066 O2067 2.160 . S
Co2066 O2072 2.058 . S
Co2066 O2082 2.057 . S
Co2066 O2097 2.037 . S
Co2066 N2101 2.145 . S
Co2066 N2122 2.257 . S
O2067 Co2065 2.143 . S
O2067 Co2066 2.160 . S
C2068 O2069 1.278 . S
C2068 O2076 1.224 . S
O2069 C2068 1.278 . S
C2070 O2071 1.245 . S
C2070 O2082 1.232 . S
O2071 C2070 1.245 . S
O2072 Co2066 2.058 . S
O2072 C2098 1.269 . S
O2073 Co2065 2.074 . S
O2073 C2098 1.257 . S
H2074 C2099 0.930 . S
H2075 C2105 0.930 . S
O2076 Co2065 2.093 . S
O2076 C2068 1.224 . S
H2077 C2109 0.929 . S
H2078 C2111 0.930 . S
H2079 C2112 0.930 . S
H2080 C2110 0.929 . S
H2081 C2113 0.928 . S
O2082 Co2066 2.057 . S
O2082 C2070 1.232 . S
H2083 C2102 0.929 . S
H2084 C2103 0.929 . S
H2085 C2115 0.931 . S
H2086 C2107 0.929 . S
H2087 C2116 0.930 . S
H2088 C2108 0.931 . S
O2089 Co2065 2.097 . S
O2089 C2117 1.214 . S
H2090 C2118 0.929 . S
H2091 C2119 0.929 . S
H2092 C2120 0.930 . S
H2093 C2121 0.929 . S
H2094 C2123 0.930 . S
H2095 C2100 0.930 . S
H2096 C2104 0.930 . S
O2097 Co2066 2.037 . S
O2097 C2117 1.234 . S
C2098 O2072 1.269 . S
C2098 O2073 1.257 . S
C2099 H2074 0.930 . S
C2099 C2102 1.388 . S
C2099 C2104 1.418 . S
C2100 H2095 0.930 . S
C2100 C2103 1.404 . S
C2100 C2104 1.353 . S
N2101 Co2066 2.145 . S
N2101 C2102 1.397 . S
N2101 C2103 1.334 . S
C2102 H2083 0.929 . S
C2102 C2099 1.388 . S
C2102 N2101 1.397 . S
C2103 H2084 0.929 . S
C2103 C2100 1.404 . S
C2103 N2101 1.334 . S
C2104 H2096 0.930 . S
C2104 C2099 1.418 . S
C2104 C2100 1.353 . S
C2105 H2075 0.930 . S
C2105 N2106 1.330 . S
C2105 C2107 1.446 . S
N2106 Co2065 2.151 . S
N2106 C2105 1.330 . S
N2106 C2110 1.418 . S
C2107 H2086 0.929 . S
C2107 C2105 1.446 . S
C2107 C2108 1.332 . S
C2108 H2088 0.931 . S
C2108 C2107 1.332 . S
C2108 C2109 1.267 . S
C2109 H2077 0.929 . S
C2109 C2108 1.267 . S
C2109 C2110 1.251 . S
C2110 H2080 0.929 . S
C2110 N2106 1.418 . S
C2110 C2109 1.251 . S
C2111 H2078 0.930 . S
C2111 C2113 1.406 . S
C2111 C2116 1.261 . S
C2112 H2079 0.930 . S
C2112 N2114 1.325 . S
C2112 C2115 1.357 . S
C2113 H2081 0.928 . S
C2113 C2111 1.406 . S
C2113 N2114 1.261 . S
N2114 Co2065 2.214 . S
N2114 C2112 1.325 . S
N2114 C2113 1.261 . S
C2115 H2085 0.931 . S
C2115 C2112 1.357 . S
C2115 C2116 1.312 . S
C2116 H2087 0.930 . S
C2116 C2111 1.261 . S
C2116 C2115 1.312 . S
C2117 O2089 1.214 . S
C2117 O2097 1.234 . S
C2118 H2090 0.929 . S
C2118 C2121 1.391 . S
C2118 C2123 1.391 . S
C2119 H2091 0.929 . S
C2119 C2120 1.390 . S
C2119 N2122 1.391 . S
C2120 H2092 0.930 . S
C2120 C2119 1.390 . S
C2120 C2121 1.392 . S
C2121 H2093 0.929 . S
C2121 C2118 1.391 . S
C2121 C2120 1.392 . S
N2122 Co2066 2.257 . S
N2122 C2119 1.391 . S
N2122 C2123 1.388 . S
C2123 H2094 0.930 . S
C2123 C2118 1.391 . S
C2123 N2122 1.388 . S
Co2124 O2126 2.143 . S
Co2124 O2132 2.074 . S
Co2124 O2135 2.093 . S
Co2124 O2148 2.097 . S
Co2124 N2165 2.151 . S
Co2124 N2173 2.214 . S
Co2125 O2126 2.160 . S
Co2125 O2131 2.058 . S
Co2125 O2141 2.057 . S
Co2125 O2156 2.037 . S
Co2125 N2160 2.145 . S
Co2125 N2181 2.257 . S
O2126 Co2124 2.143 . S
O2126 Co2125 2.160 . S
C2127 O2128 1.278 . S
C2127 O2135 1.224 . S
O2128 C2127 1.278 . S
C2129 O2130 1.245 . S
C2129 O2141 1.232 . S
O2130 C2129 1.245 . S
O2131 Co2125 2.058 . S
O2131 C2157 1.269 . S
O2132 Co2124 2.074 . S
O2132 C2157 1.257 . S
H2133 C2158 0.930 . S
H2134 C2164 0.930 . S
O2135 Co2124 2.093 . S
O2135 C2127 1.224 . S
H2136 C2168 0.929 . S
H2137 C2170 0.930 . S
H2138 C2171 0.930 . S
H2139 C2169 0.929 . S
H2140 C2172 0.928 . S
O2141 Co2125 2.057 . S
O2141 C2129 1.232 . S
H2142 C2161 0.929 . S
H2143 C2162 0.929 . S
H2144 C2174 0.931 . S
H2145 C2166 0.929 . S
H2146 C2175 0.930 . S
H2147 C2167 0.931 . S
O2148 Co2124 2.097 . S
O2148 C2176 1.214 . S
H2149 C2177 0.929 . S
H2150 C2178 0.929 . S
H2151 C2179 0.930 . S
H2152 C2180 0.929 . S
H2153 C2182 0.930 . S
H2154 C2159 0.930 . S
H2155 C2163 0.930 . S
O2156 Co2125 2.037 . S
O2156 C2176 1.234 . S
C2157 O2131 1.269 . S
C2157 O2132 1.257 . S
C2158 H2133 0.930 . S
C2158 C2161 1.388 . S
C2158 C2163 1.418 . S
C2159 H2154 0.930 . S
C2159 C2162 1.404 . S
C2159 C2163 1.353 . S
N2160 Co2125 2.145 . S
N2160 C2161 1.397 . S
N2160 C2162 1.334 . S
C2161 H2142 0.929 . S
C2161 C2158 1.388 . S
C2161 N2160 1.397 . S
C2162 H2143 0.929 . S
C2162 C2159 1.404 . S
C2162 N2160 1.334 . S
C2163 H2155 0.930 . S
C2163 C2158 1.418 . S
C2163 C2159 1.353 . S
C2164 H2134 0.930 . S
C2164 N2165 1.330 . S
C2164 C2166 1.446 . S
N2165 Co2124 2.151 . S
N2165 C2164 1.330 . S
N2165 C2169 1.418 . S
C2166 H2145 0.929 . S
C2166 C2164 1.446 . S
C2166 C2167 1.332 . S
C2167 H2147 0.931 . S
C2167 C2166 1.332 . S
C2167 C2168 1.267 . S
C2168 H2136 0.929 . S
C2168 C2167 1.267 . S
C2168 C2169 1.251 . S
C2169 H2139 0.929 . S
C2169 N2165 1.418 . S
C2169 C2168 1.251 . S
C2170 H2137 0.930 . S
C2170 C2172 1.406 . S
C2170 C2175 1.261 . S
C2171 H2138 0.930 . S
C2171 N2173 1.325 . S
C2171 C2174 1.357 . S
C2172 H2140 0.928 . S
C2172 C2170 1.406 . S
C2172 N2173 1.261 . S
N2173 Co2124 2.214 . S
N2173 C2171 1.325 . S
N2173 C2172 1.261 . S
C2174 H2144 0.931 . S
C2174 C2171 1.357 . S
C2174 C2175 1.312 . S
C2175 H2146 0.930 . S
C2175 C2170 1.261 . S
C2175 C2174 1.312 . S
C2176 O2148 1.214 . S
C2176 O2156 1.234 . S
C2177 H2149 0.929 . S
C2177 C2180 1.391 . S
C2177 C2182 1.391 . S
C2178 H2150 0.929 . S
C2178 C2179 1.390 . S
C2178 N2181 1.391 . S
C2179 H2151 0.930 . S
C2179 C2178 1.390 . S
C2179 C2180 1.392 . S
C2180 H2152 0.929 . S
C2180 C2177 1.391 . S
C2180 C2179 1.392 . S
N2181 Co2125 2.257 . S
N2181 C2178 1.391 . S
N2181 C2182 1.388 . S
C2182 H2153 0.930 . S
C2182 C2177 1.391 . S
C2182 N2181 1.388 . S
Co2183 O2185 2.143 . S
Co2183 O2191 2.074 . S
Co2183 O2194 2.093 . S
Co2183 O2207 2.097 . S
Co2183 N2224 2.151 . S
Co2183 N2232 2.214 . S
Co2184 O2185 2.160 . S
Co2184 O2190 2.058 . S
Co2184 O2200 2.057 . S
Co2184 O2215 2.037 . S
Co2184 N2219 2.145 . S
Co2184 N2240 2.257 . S
O2185 Co2183 2.143 . S
O2185 Co2184 2.160 . S
C2186 O2187 1.278 . S
C2186 O2194 1.224 . S
O2187 C2186 1.278 . S
C2188 O2189 1.245 . S
C2188 O2200 1.232 . S
O2189 C2188 1.245 . S
O2190 Co2184 2.058 . S
O2190 C2216 1.269 . S
O2191 Co2183 2.074 . S
O2191 C2216 1.257 . S
H2192 C2217 0.930 . S
H2193 C2223 0.930 . S
O2194 Co2183 2.093 . S
O2194 C2186 1.224 . S
H2195 C2227 0.929 . S
H2196 C2229 0.930 . S
H2197 C2230 0.930 . S
H2198 C2228 0.929 . S
H2199 C2231 0.928 . S
O2200 Co2184 2.057 . S
O2200 C2188 1.232 . S
H2201 C2220 0.929 . S
H2202 C2221 0.929 . S
H2203 C2233 0.931 . S
H2204 C2225 0.929 . S
H2205 C2234 0.930 . S
H2206 C2226 0.931 . S
O2207 Co2183 2.097 . S
O2207 C2235 1.214 . S
H2208 C2236 0.929 . S
H2209 C2237 0.929 . S
H2210 C2238 0.930 . S
H2211 C2239 0.929 . S
H2212 C2241 0.930 . S
H2213 C2218 0.930 . S
H2214 C2222 0.930 . S
O2215 Co2184 2.037 . S
O2215 C2235 1.234 . S
C2216 O2190 1.269 . S
C2216 O2191 1.257 . S
C2217 H2192 0.930 . S
C2217 C2220 1.388 . S
C2217 C2222 1.418 . S
C2218 H2213 0.930 . S
C2218 C2221 1.404 . S
C2218 C2222 1.353 . S
N2219 Co2184 2.145 . S
N2219 C2220 1.397 . S
N2219 C2221 1.334 . S
C2220 H2201 0.929 . S
C2220 C2217 1.388 . S
C2220 N2219 1.397 . S
C2221 H2202 0.929 . S
C2221 C2218 1.404 . S
C2221 N2219 1.334 . S
C2222 H2214 0.930 . S
C2222 C2217 1.418 . S
C2222 C2218 1.353 . S
C2223 H2193 0.930 . S
C2223 N2224 1.330 . S
C2223 C2225 1.446 . S
N2224 Co2183 2.151 . S
N2224 C2223 1.330 . S
N2224 C2228 1.418 . S
C2225 H2204 0.929 . S
C2225 C2223 1.446 . S
C2225 C2226 1.332 . S
C2226 H2206 0.931 . S
C2226 C2225 1.332 . S
C2226 C2227 1.267 . S
C2227 H2195 0.929 . S
C2227 C2226 1.267 . S
C2227 C2228 1.251 . S
C2228 H2198 0.929 . S
C2228 N2224 1.418 . S
C2228 C2227 1.251 . S
C2229 H2196 0.930 . S
C2229 C2231 1.406 . S
C2229 C2234 1.261 . S
C2230 H2197 0.930 . S
C2230 N2232 1.325 . S
C2230 C2233 1.357 . S
C2231 H2199 0.928 . S
C2231 C2229 1.406 . S
C2231 N2232 1.261 . S
N2232 Co2183 2.214 . S
N2232 C2230 1.325 . S
N2232 C2231 1.261 . S
C2233 H2203 0.931 . S
C2233 C2230 1.357 . S
C2233 C2234 1.312 . S
C2234 H2205 0.930 . S
C2234 C2229 1.261 . S
C2234 C2233 1.312 . S
C2235 O2207 1.214 . S
C2235 O2215 1.234 . S
C2236 H2208 0.929 . S
C2236 C2239 1.391 . S
C2236 C2241 1.391 . S
C2237 H2209 0.929 . S
C2237 C2238 1.390 . S
C2237 N2240 1.391 . S
C2238 H2210 0.930 . S
C2238 C2237 1.390 . S
C2238 C2239 1.392 . S
C2239 H2211 0.929 . S
C2239 C2236 1.391 . S
C2239 C2238 1.392 . S
N2240 Co2184 2.257 . S
N2240 C2237 1.391 . S
N2240 C2241 1.388 . S
C2241 H2212 0.930 . S
C2241 C2236 1.391 . S
C2241 N2240 1.388 . S
Co2242 O2244 2.143 . S
Co2242 O2250 2.074 . S
Co2242 O2253 2.093 . S
Co2242 O2266 2.097 . S
Co2242 N2283 2.151 . S
Co2242 N2291 2.214 . S
Co2243 O2244 2.160 . S
Co2243 O2249 2.058 . S
Co2243 O2259 2.057 . S
Co2243 O2274 2.037 . S
Co2243 N2278 2.145 . S
Co2243 N2299 2.257 . S
O2244 Co2242 2.143 . S
O2244 Co2243 2.160 . S
C2245 O2246 1.278 . S
C2245 O2253 1.224 . S
O2246 C2245 1.278 . S
C2247 O2248 1.245 . S
C2247 O2259 1.232 . S
O2248 C2247 1.245 . S
O2249 Co2243 2.058 . S
O2249 C2275 1.269 . S
O2250 Co2242 2.074 . S
O2250 C2275 1.257 . S
H2251 C2276 0.930 . S
H2252 C2282 0.930 . S
O2253 Co2242 2.093 . S
O2253 C2245 1.224 . S
H2254 C2286 0.929 . S
H2255 C2288 0.930 . S
H2256 C2289 0.930 . S
H2257 C2287 0.929 . S
H2258 C2290 0.928 . S
O2259 Co2243 2.057 . S
O2259 C2247 1.232 . S
H2260 C2279 0.929 . S
H2261 C2280 0.929 . S
H2262 C2292 0.931 . S
H2263 C2284 0.929 . S
H2264 C2293 0.930 . S
H2265 C2285 0.931 . S
O2266 Co2242 2.097 . S
O2266 C2294 1.214 . S
H2267 C2295 0.929 . S
H2268 C2296 0.929 . S
H2269 C2297 0.930 . S
H2270 C2298 0.929 . S
H2271 C2300 0.930 . S
H2272 C2277 0.930 . S
H2273 C2281 0.930 . S
O2274 Co2243 2.037 . S
O2274 C2294 1.234 . S
C2275 O2249 1.269 . S
C2275 O2250 1.257 . S
C2276 H2251 0.930 . S
C2276 C2279 1.388 . S
C2276 C2281 1.418 . S
C2277 H2272 0.930 . S
C2277 C2280 1.404 . S
C2277 C2281 1.353 . S
N2278 Co2243 2.145 . S
N2278 C2279 1.397 . S
N2278 C2280 1.334 . S
C2279 H2260 0.929 . S
C2279 C2276 1.388 . S
C2279 N2278 1.397 . S
C2280 H2261 0.929 . S
C2280 C2277 1.404 . S
C2280 N2278 1.334 . S
C2281 H2273 0.930 . S
C2281 C2276 1.418 . S
C2281 C2277 1.353 . S
C2282 H2252 0.930 . S
C2282 N2283 1.330 . S
C2282 C2284 1.446 . S
N2283 Co2242 2.151 . S
N2283 C2282 1.330 . S
N2283 C2287 1.418 . S
C2284 H2263 0.929 . S
C2284 C2282 1.446 . S
C2284 C2285 1.332 . S
C2285 H2265 0.931 . S
C2285 C2284 1.332 . S
C2285 C2286 1.267 . S
C2286 H2254 0.929 . S
C2286 C2285 1.267 . S
C2286 C2287 1.251 . S
C2287 H2257 0.929 . S
C2287 N2283 1.418 . S
C2287 C2286 1.251 . S
C2288 H2255 0.930 . S
C2288 C2290 1.406 . S
C2288 C2293 1.261 . S
C2289 H2256 0.930 . S
C2289 N2291 1.325 . S
C2289 C2292 1.357 . S
C2290 H2258 0.928 . S
C2290 C2288 1.406 . S
C2290 N2291 1.261 . S
N2291 Co2242 2.214 . S
N2291 C2289 1.325 . S
N2291 C2290 1.261 . S
C2292 H2262 0.931 . S
C2292 C2289 1.357 . S
C2292 C2293 1.312 . S
C2293 H2264 0.930 . S
C2293 C2288 1.261 . S
C2293 C2292 1.312 . S
C2294 O2266 1.214 . S
C2294 O2274 1.234 . S
C2295 H2267 0.929 . S
C2295 C2298 1.391 . S
C2295 C2300 1.391 . S
C2296 H2268 0.929 . S
C2296 C2297 1.390 . S
C2296 N2299 1.391 . S
C2297 H2269 0.930 . S
C2297 C2296 1.390 . S
C2297 C2298 1.392 . S
C2298 H2270 0.929 . S
C2298 C2295 1.391 . S
C2298 C2297 1.392 . S
N2299 Co2243 2.257 . S
N2299 C2296 1.391 . S
N2299 C2300 1.388 . S
C2300 H2271 0.930 . S
C2300 C2295 1.391 . S
C2300 N2299 1.388 . S
Co2301 O2303 2.143 . S
Co2301 O2309 2.074 . S
Co2301 O2312 2.093 . S
Co2301 O2325 2.097 . S
Co2301 N2342 2.151 . S
Co2301 N2350 2.214 . S
Co2302 O2303 2.160 . S
Co2302 O2308 2.058 . S
Co2302 O2318 2.057 . S
Co2302 O2333 2.037 . S
Co2302 N2337 2.145 . S
Co2302 N2358 2.257 . S
O2303 Co2301 2.143 . S
O2303 Co2302 2.160 . S
C2304 O2305 1.278 . S
C2304 O2312 1.224 . S
O2305 C2304 1.278 . S
C2306 O2307 1.245 . S
C2306 O2318 1.232 . S
O2307 C2306 1.245 . S
O2308 Co2302 2.058 . S
O2308 C2334 1.269 . S
O2309 Co2301 2.074 . S
O2309 C2334 1.257 . S
H2310 C2335 0.930 . S
H2311 C2341 0.930 . S
O2312 Co2301 2.093 . S
O2312 C2304 1.224 . S
H2313 C2345 0.929 . S
H2314 C2347 0.930 . S
H2315 C2348 0.930 . S
H2316 C2346 0.929 . S
H2317 C2349 0.928 . S
O2318 Co2302 2.057 . S
O2318 C2306 1.232 . S
H2319 C2338 0.929 . S
H2320 C2339 0.929 . S
H2321 C2351 0.931 . S
H2322 C2343 0.929 . S
H2323 C2352 0.930 . S
H2324 C2344 0.931 . S
O2325 Co2301 2.097 . S
O2325 C2353 1.214 . S
H2326 C2354 0.929 . S
H2327 C2355 0.929 . S
H2328 C2356 0.930 . S
H2329 C2357 0.929 . S
H2330 C2359 0.930 . S
H2331 C2336 0.930 . S
H2332 C2340 0.930 . S
O2333 Co2302 2.037 . S
O2333 C2353 1.234 . S
C2334 O2308 1.269 . S
C2334 O2309 1.257 . S
C2335 H2310 0.930 . S
C2335 C2338 1.388 . S
C2335 C2340 1.418 . S
C2336 H2331 0.930 . S
C2336 C2339 1.404 . S
C2336 C2340 1.353 . S
N2337 Co2302 2.145 . S
N2337 C2338 1.397 . S
N2337 C2339 1.334 . S
C2338 H2319 0.929 . S
C2338 C2335 1.388 . S
C2338 N2337 1.397 . S
C2339 H2320 0.929 . S
C2339 C2336 1.404 . S
C2339 N2337 1.334 . S
C2340 H2332 0.930 . S
C2340 C2335 1.418 . S
C2340 C2336 1.353 . S
C2341 H2311 0.930 . S
C2341 N2342 1.330 . S
C2341 C2343 1.446 . S
N2342 Co2301 2.151 . S
N2342 C2341 1.330 . S
N2342 C2346 1.418 . S
C2343 H2322 0.929 . S
C2343 C2341 1.446 . S
C2343 C2344 1.332 . S
C2344 H2324 0.931 . S
C2344 C2343 1.332 . S
C2344 C2345 1.267 . S
C2345 H2313 0.929 . S
C2345 C2344 1.267 . S
C2345 C2346 1.251 . S
C2346 H2316 0.929 . S
C2346 N2342 1.418 . S
C2346 C2345 1.251 . S
C2347 H2314 0.930 . S
C2347 C2349 1.406 . S
C2347 C2352 1.261 . S
C2348 H2315 0.930 . S
C2348 N2350 1.325 . S
C2348 C2351 1.357 . S
C2349 H2317 0.928 . S
C2349 C2347 1.406 . S
C2349 N2350 1.261 . S
N2350 Co2301 2.214 . S
N2350 C2348 1.325 . S
N2350 C2349 1.261 . S
C2351 H2321 0.931 . S
C2351 C2348 1.357 . S
C2351 C2352 1.312 . S
C2352 H2323 0.930 . S
C2352 C2347 1.261 . S
C2352 C2351 1.312 . S
C2353 O2325 1.214 . S
C2353 O2333 1.234 . S
C2354 H2326 0.929 . S
C2354 C2357 1.391 . S
C2354 C2359 1.391 . S
C2355 H2327 0.929 . S
C2355 C2356 1.390 . S
C2355 N2358 1.391 . S
C2356 H2328 0.930 . S
C2356 C2355 1.390 . S
C2356 C2357 1.392 . S
C2357 H2329 0.929 . S
C2357 C2354 1.391 . S
C2357 C2356 1.392 . S
N2358 Co2302 2.257 . S
N2358 C2355 1.391 . S
N2358 C2359 1.388 . S
C2359 H2330 0.930 . S
C2359 C2354 1.391 . S
C2359 N2358 1.388 . S
Co2360 O2362 2.143 . S
Co2360 O2368 2.074 . S
Co2360 O2371 2.093 . S
Co2360 O2384 2.097 . S
Co2360 N2401 2.151 . S
Co2360 N2409 2.214 . S
Co2361 O2362 2.160 . S
Co2361 O2367 2.058 . S
Co2361 O2377 2.057 . S
Co2361 O2392 2.037 . S
Co2361 N2396 2.145 . S
Co2361 N2417 2.257 . S
O2362 Co2360 2.143 . S
O2362 Co2361 2.160 . S
C2363 O2364 1.278 . S
C2363 O2371 1.224 . S
O2364 C2363 1.278 . S
C2365 O2366 1.245 . S
C2365 O2377 1.232 . S
O2366 C2365 1.245 . S
O2367 Co2361 2.058 . S
O2367 C2393 1.269 . S
O2368 Co2360 2.074 . S
O2368 C2393 1.257 . S
H2369 C2394 0.930 . S
H2370 C2400 0.930 . S
O2371 Co2360 2.093 . S
O2371 C2363 1.224 . S
H2372 C2404 0.929 . S
H2373 C2406 0.930 . S
H2374 C2407 0.930 . S
H2375 C2405 0.929 . S
H2376 C2408 0.928 . S
O2377 Co2361 2.057 . S
O2377 C2365 1.232 . S
H2378 C2397 0.929 . S
H2379 C2398 0.929 . S
H2380 C2410 0.931 . S
H2381 C2402 0.929 . S
H2382 C2411 0.930 . S
H2383 C2403 0.931 . S
O2384 Co2360 2.097 . S
O2384 C2412 1.214 . S
H2385 C2413 0.929 . S
H2386 C2414 0.929 . S
H2387 C2415 0.930 . S
H2388 C2416 0.929 . S
H2389 C2418 0.930 . S
H2390 C2395 0.930 . S
H2391 C2399 0.930 . S
O2392 Co2361 2.037 . S
O2392 C2412 1.234 . S
C2393 O2367 1.269 . S
C2393 O2368 1.257 . S
C2394 H2369 0.930 . S
C2394 C2397 1.388 . S
C2394 C2399 1.418 . S
C2395 H2390 0.930 . S
C2395 C2398 1.404 . S
C2395 C2399 1.353 . S
N2396 Co2361 2.145 . S
N2396 C2397 1.397 . S
N2396 C2398 1.334 . S
C2397 H2378 0.929 . S
C2397 C2394 1.388 . S
C2397 N2396 1.397 . S
C2398 H2379 0.929 . S
C2398 C2395 1.404 . S
C2398 N2396 1.334 . S
C2399 H2391 0.930 . S
C2399 C2394 1.418 . S
C2399 C2395 1.353 . S
C2400 H2370 0.930 . S
C2400 N2401 1.330 . S
C2400 C2402 1.446 . S
N2401 Co2360 2.151 . S
N2401 C2400 1.330 . S
N2401 C2405 1.418 . S
C2402 H2381 0.929 . S
C2402 C2400 1.446 . S
C2402 C2403 1.332 . S
C2403 H2383 0.931 . S
C2403 C2402 1.332 . S
C2403 C2404 1.267 . S
C2404 H2372 0.929 . S
C2404 C2403 1.267 . S
C2404 C2405 1.251 . S
C2405 H2375 0.929 . S
C2405 N2401 1.418 . S
C2405 C2404 1.251 . S
C2406 H2373 0.930 . S
C2406 C2408 1.406 . S
C2406 C2411 1.261 . S
C2407 H2374 0.930 . S
C2407 N2409 1.325 . S
C2407 C2410 1.357 . S
C2408 H2376 0.928 . S
C2408 C2406 1.406 . S
C2408 N2409 1.261 . S
N2409 Co2360 2.214 . S
N2409 C2407 1.325 . S
N2409 C2408 1.261 . S
C2410 H2380 0.931 . S
C2410 C2407 1.357 . S
C2410 C2411 1.312 . S
C2411 H2382 0.930 . S
C2411 C2406 1.261 . S
C2411 C2410 1.312 . S
C2412 O2384 1.214 . S
C2412 O2392 1.234 . S
C2413 H2385 0.929 . S
C2413 C2416 1.391 . S
C2413 C2418 1.391 . S
C2414 H2386 0.929 . S
C2414 C2415 1.390 . S
C2414 N2417 1.391 . S
C2415 H2387 0.930 . S
C2415 C2414 1.390 . S
C2415 C2416 1.392 . S
C2416 H2388 0.929 . S
C2416 C2413 1.391 . S
C2416 C2415 1.392 . S
N2417 Co2361 2.257 . S
N2417 C2414 1.391 . S
N2417 C2418 1.388 . S
C2418 H2389 0.930 . S
C2418 C2413 1.391 . S
C2418 N2417 1.388 . S
Co2419 O2421 2.143 . S
Co2419 O2427 2.074 . S
Co2419 O2430 2.093 . S
Co2419 O2443 2.097 . S
Co2419 N2460 2.151 . S
Co2419 N2468 2.214 . S
Co2420 O2421 2.160 . S
Co2420 O2426 2.058 . S
Co2420 O2436 2.057 . S
Co2420 O2451 2.037 . S
Co2420 N2455 2.145 . S
Co2420 N2476 2.257 . S
O2421 Co2419 2.143 . S
O2421 Co2420 2.160 . S
C2422 O2423 1.278 . S
C2422 O2430 1.224 . S
O2423 C2422 1.278 . S
C2424 O2425 1.245 . S
C2424 O2436 1.232 . S
O2425 C2424 1.245 . S
O2426 Co2420 2.058 . S
O2426 C2452 1.269 . S
O2427 Co2419 2.074 . S
O2427 C2452 1.257 . S
H2428 C2453 0.930 . S
H2429 C2459 0.930 . S
O2430 Co2419 2.093 . S
O2430 C2422 1.224 . S
H2431 C2463 0.929 . S
H2432 C2465 0.930 . S
H2433 C2466 0.930 . S
H2434 C2464 0.929 . S
H2435 C2467 0.928 . S
O2436 Co2420 2.057 . S
O2436 C2424 1.232 . S
H2437 C2456 0.929 . S
H2438 C2457 0.929 . S
H2439 C2469 0.931 . S
H2440 C2461 0.929 . S
H2441 C2470 0.930 . S
H2442 C2462 0.931 . S
O2443 Co2419 2.097 . S
O2443 C2471 1.214 . S
H2444 C2472 0.929 . S
H2445 C2473 0.929 . S
H2446 C2474 0.930 . S
H2447 C2475 0.929 . S
H2448 C2477 0.930 . S
H2449 C2454 0.930 . S
H2450 C2458 0.930 . S
O2451 Co2420 2.037 . S
O2451 C2471 1.234 . S
C2452 O2426 1.269 . S
C2452 O2427 1.257 . S
C2453 H2428 0.930 . S
C2453 C2456 1.388 . S
C2453 C2458 1.418 . S
C2454 H2449 0.930 . S
C2454 C2457 1.404 . S
C2454 C2458 1.353 . S
N2455 Co2420 2.145 . S
N2455 C2456 1.397 . S
N2455 C2457 1.334 . S
C2456 H2437 0.929 . S
C2456 C2453 1.388 . S
C2456 N2455 1.397 . S
C2457 H2438 0.929 . S
C2457 C2454 1.404 . S
C2457 N2455 1.334 . S
C2458 H2450 0.930 . S
C2458 C2453 1.418 . S
C2458 C2454 1.353 . S
C2459 H2429 0.930 . S
C2459 N2460 1.330 . S
C2459 C2461 1.446 . S
N2460 Co2419 2.151 . S
N2460 C2459 1.330 . S
N2460 C2464 1.418 . S
C2461 H2440 0.929 . S
C2461 C2459 1.446 . S
C2461 C2462 1.332 . S
C2462 H2442 0.931 . S
C2462 C2461 1.332 . S
C2462 C2463 1.267 . S
C2463 H2431 0.929 . S
C2463 C2462 1.267 . S
C2463 C2464 1.251 . S
C2464 H2434 0.929 . S
C2464 N2460 1.418 . S
C2464 C2463 1.251 . S
C2465 H2432 0.930 . S
C2465 C2467 1.406 . S
C2465 C2470 1.261 . S
C2466 H2433 0.930 . S
C2466 N2468 1.325 . S
C2466 C2469 1.357 . S
C2467 H2435 0.928 . S
C2467 C2465 1.406 . S
C2467 N2468 1.261 . S
N2468 Co2419 2.214 . S
N2468 C2466 1.325 . S
N2468 C2467 1.261 . S
C2469 H2439 0.931 . S
C2469 C2466 1.357 . S
C2469 C2470 1.312 . S
C2470 H2441 0.930 . S
C2470 C2465 1.261 . S
C2470 C2469 1.312 . S
C2471 O2443 1.214 . S
C2471 O2451 1.234 . S
C2472 H2444 0.929 . S
C2472 C2475 1.391 . S
C2472 C2477 1.391 . S
C2473 H2445 0.929 . S
C2473 C2474 1.390 . S
C2473 N2476 1.391 . S
C2474 H2446 0.930 . S
C2474 C2473 1.390 . S
C2474 C2475 1.392 . S
C2475 H2447 0.929 . S
C2475 C2472 1.391 . S
C2475 C2474 1.392 . S
N2476 Co2420 2.257 . S
N2476 C2473 1.391 . S
N2476 C2477 1.388 . S
C2477 H2448 0.930 . S
C2477 C2472 1.391 . S
C2477 N2476 1.388 . S
Co2478 O2480 2.143 . S
Co2478 O2486 2.074 . S
Co2478 O2489 2.093 . S
Co2478 O2502 2.097 . S
Co2478 N2519 2.151 . S
Co2478 N2527 2.214 . S
Co2479 O2480 2.160 . S
Co2479 O2485 2.058 . S
Co2479 O2495 2.057 . S
Co2479 O2510 2.037 . S
Co2479 N2514 2.145 . S
Co2479 N2535 2.257 . S
O2480 Co2478 2.143 . S
O2480 Co2479 2.160 . S
C2481 O2482 1.278 . S
C2481 O2489 1.224 . S
O2482 C2481 1.278 . S
C2483 O2484 1.245 . S
C2483 O2495 1.232 . S
O2484 C2483 1.245 . S
O2485 Co2479 2.058 . S
O2485 C2511 1.269 . S
O2486 Co2478 2.074 . S
O2486 C2511 1.257 . S
H2487 C2512 0.930 . S
H2488 C2518 0.930 . S
O2489 Co2478 2.093 . S
O2489 C2481 1.224 . S
H2490 C2522 0.929 . S
H2491 C2524 0.930 . S
H2492 C2525 0.930 . S
H2493 C2523 0.929 . S
H2494 C2526 0.928 . S
O2495 Co2479 2.057 . S
O2495 C2483 1.232 . S
H2496 C2515 0.929 . S
H2497 C2516 0.929 . S
H2498 C2528 0.931 . S
H2499 C2520 0.929 . S
H2500 C2529 0.930 . S
H2501 C2521 0.931 . S
O2502 Co2478 2.097 . S
O2502 C2530 1.214 . S
H2503 C2531 0.929 . S
H2504 C2532 0.929 . S
H2505 C2533 0.930 . S
H2506 C2534 0.929 . S
H2507 C2536 0.930 . S
H2508 C2513 0.930 . S
H2509 C2517 0.930 . S
O2510 Co2479 2.037 . S
O2510 C2530 1.234 . S
C2511 O2485 1.269 . S
C2511 O2486 1.257 . S
C2512 H2487 0.930 . S
C2512 C2515 1.388 . S
C2512 C2517 1.418 . S
C2513 H2508 0.930 . S
C2513 C2516 1.404 . S
C2513 C2517 1.353 . S
N2514 Co2479 2.145 . S
N2514 C2515 1.397 . S
N2514 C2516 1.334 . S
C2515 H2496 0.929 . S
C2515 C2512 1.388 . S
C2515 N2514 1.397 . S
C2516 H2497 0.929 . S
C2516 C2513 1.404 . S
C2516 N2514 1.334 . S
C2517 H2509 0.930 . S
C2517 C2512 1.418 . S
C2517 C2513 1.353 . S
C2518 H2488 0.930 . S
C2518 N2519 1.330 . S
C2518 C2520 1.446 . S
N2519 Co2478 2.151 . S
N2519 C2518 1.330 . S
N2519 C2523 1.418 . S
C2520 H2499 0.929 . S
C2520 C2518 1.446 . S
C2520 C2521 1.332 . S
C2521 H2501 0.931 . S
C2521 C2520 1.332 . S
C2521 C2522 1.267 . S
C2522 H2490 0.929 . S
C2522 C2521 1.267 . S
C2522 C2523 1.251 . S
C2523 H2493 0.929 . S
C2523 N2519 1.418 . S
C2523 C2522 1.251 . S
C2524 H2491 0.930 . S
C2524 C2526 1.406 . S
C2524 C2529 1.261 . S
C2525 H2492 0.930 . S
C2525 N2527 1.325 . S
C2525 C2528 1.357 . S
C2526 H2494 0.928 . S
C2526 C2524 1.406 . S
C2526 N2527 1.261 . S
N2527 Co2478 2.214 . S
N2527 C2525 1.325 . S
N2527 C2526 1.261 . S
C2528 H2498 0.931 . S
C2528 C2525 1.357 . S
C2528 C2529 1.312 . S
C2529 H2500 0.930 . S
C2529 C2524 1.261 . S
C2529 C2528 1.312 . S
C2530 O2502 1.214 . S
C2530 O2510 1.234 . S
C2531 H2503 0.929 . S
C2531 C2534 1.391 . S
C2531 C2536 1.391 . S
C2532 H2504 0.929 . S
C2532 C2533 1.390 . S
C2532 N2535 1.391 . S
C2533 H2505 0.930 . S
C2533 C2532 1.390 . S
C2533 C2534 1.392 . S
C2534 H2506 0.929 . S
C2534 C2531 1.391 . S
C2534 C2533 1.392 . S
N2535 Co2479 2.257 . S
N2535 C2532 1.391 . S
N2535 C2536 1.388 . S
C2536 H2507 0.930 . S
C2536 C2531 1.391 . S
C2536 N2535 1.388 . S
Co2537 O2539 2.143 . S
Co2537 O2545 2.074 . S
Co2537 O2548 2.093 . S
Co2537 O2561 2.097 . S
Co2537 N2578 2.151 . S
Co2537 N2586 2.214 . S
Co2538 O2539 2.160 . S
Co2538 O2544 2.058 . S
Co2538 O2554 2.057 . S
Co2538 O2569 2.037 . S
Co2538 N2573 2.145 . S
Co2538 N2594 2.257 . S
O2539 Co2537 2.143 . S
O2539 Co2538 2.160 . S
C2540 O2541 1.278 . S
C2540 O2548 1.224 . S
O2541 C2540 1.278 . S
C2542 O2543 1.245 . S
C2542 O2554 1.232 . S
O2543 C2542 1.245 . S
O2544 Co2538 2.058 . S
O2544 C2570 1.269 . S
O2545 Co2537 2.074 . S
O2545 C2570 1.257 . S
H2546 C2571 0.930 . S
H2547 C2577 0.930 . S
O2548 Co2537 2.093 . S
O2548 C2540 1.224 . S
H2549 C2581 0.929 . S
H2550 C2583 0.930 . S
H2551 C2584 0.930 . S
H2552 C2582 0.929 . S
H2553 C2585 0.928 . S
O2554 Co2538 2.057 . S
O2554 C2542 1.232 . S
H2555 C2574 0.929 . S
H2556 C2575 0.929 . S
H2557 C2587 0.931 . S
H2558 C2579 0.929 . S
H2559 C2588 0.930 . S
H2560 C2580 0.931 . S
O2561 Co2537 2.097 . S
O2561 C2589 1.214 . S
H2562 C2590 0.929 . S
H2563 C2591 0.929 . S
H2564 C2592 0.930 . S
H2565 C2593 0.929 . S
H2566 C2595 0.930 . S
H2567 C2572 0.930 . S
H2568 C2576 0.930 . S
O2569 Co2538 2.037 . S
O2569 C2589 1.234 . S
C2570 O2544 1.269 . S
C2570 O2545 1.257 . S
C2571 H2546 0.930 . S
C2571 C2574 1.388 . S
C2571 C2576 1.418 . S
C2572 H2567 0.930 . S
C2572 C2575 1.404 . S
C2572 C2576 1.353 . S
N2573 Co2538 2.145 . S
N2573 C2574 1.397 . S
N2573 C2575 1.334 . S
C2574 H2555 0.929 . S
C2574 C2571 1.388 . S
C2574 N2573 1.397 . S
C2575 H2556 0.929 . S
C2575 C2572 1.404 . S
C2575 N2573 1.334 . S
C2576 H2568 0.930 . S
C2576 C2571 1.418 . S
C2576 C2572 1.353 . S
C2577 H2547 0.930 . S
C2577 N2578 1.330 . S
C2577 C2579 1.446 . S
N2578 Co2537 2.151 . S
N2578 C2577 1.330 . S
N2578 C2582 1.418 . S
C2579 H2558 0.929 . S
C2579 C2577 1.446 . S
C2579 C2580 1.332 . S
C2580 H2560 0.931 . S
C2580 C2579 1.332 . S
C2580 C2581 1.267 . S
C2581 H2549 0.929 . S
C2581 C2580 1.267 . S
C2581 C2582 1.251 . S
C2582 H2552 0.929 . S
C2582 N2578 1.418 . S
C2582 C2581 1.251 . S
C2583 H2550 0.930 . S
C2583 C2585 1.406 . S
C2583 C2588 1.261 . S
C2584 H2551 0.930 . S
C2584 N2586 1.325 . S
C2584 C2587 1.357 . S
C2585 H2553 0.928 . S
C2585 C2583 1.406 . S
C2585 N2586 1.261 . S
N2586 Co2537 2.214 . S
N2586 C2584 1.325 . S
N2586 C2585 1.261 . S
C2587 H2557 0.931 . S
C2587 C2584 1.357 . S
C2587 C2588 1.312 . S
C2588 H2559 0.930 . S
C2588 C2583 1.261 . S
C2588 C2587 1.312 . S
C2589 O2561 1.214 . S
C2589 O2569 1.234 . S
C2590 H2562 0.929 . S
C2590 C2593 1.391 . S
C2590 C2595 1.391 . S
C2591 H2563 0.929 . S
C2591 C2592 1.390 . S
C2591 N2594 1.391 . S
C2592 H2564 0.930 . S
C2592 C2591 1.390 . S
C2592 C2593 1.392 . S
C2593 H2565 0.929 . S
C2593 C2590 1.391 . S
C2593 C2592 1.392 . S
N2594 Co2538 2.257 . S
N2594 C2591 1.391 . S
N2594 C2595 1.388 . S
C2595 H2566 0.930 . S
C2595 C2590 1.391 . S
C2595 N2594 1.388 . S
Co2596 O2598 2.143 . S
Co2596 O2604 2.074 . S
Co2596 O2607 2.093 . S
Co2596 O2620 2.097 . S
Co2596 N2637 2.151 . S
Co2596 N2645 2.214 . S
Co2597 O2598 2.160 . S
Co2597 O2603 2.058 . S
Co2597 O2613 2.057 . S
Co2597 O2628 2.037 . S
Co2597 N2632 2.145 . S
Co2597 N2653 2.257 . S
O2598 Co2596 2.143 . S
O2598 Co2597 2.160 . S
C2599 O2600 1.278 . S
C2599 O2607 1.224 . S
O2600 C2599 1.278 . S
C2601 O2602 1.245 . S
C2601 O2613 1.232 . S
O2602 C2601 1.245 . S
O2603 Co2597 2.058 . S
O2603 C2629 1.269 . S
O2604 Co2596 2.074 . S
O2604 C2629 1.257 . S
H2605 C2630 0.930 . S
H2606 C2636 0.930 . S
O2607 Co2596 2.093 . S
O2607 C2599 1.224 . S
H2608 C2640 0.929 . S
H2609 C2642 0.930 . S
H2610 C2643 0.930 . S
H2611 C2641 0.929 . S
H2612 C2644 0.928 . S
O2613 Co2597 2.057 . S
O2613 C2601 1.232 . S
H2614 C2633 0.929 . S
H2615 C2634 0.929 . S
H2616 C2646 0.931 . S
H2617 C2638 0.929 . S
H2618 C2647 0.930 . S
H2619 C2639 0.931 . S
O2620 Co2596 2.097 . S
O2620 C2648 1.214 . S
H2621 C2649 0.929 . S
H2622 C2650 0.929 . S
H2623 C2651 0.930 . S
H2624 C2652 0.929 . S
H2625 C2654 0.930 . S
H2626 C2631 0.930 . S
H2627 C2635 0.930 . S
O2628 Co2597 2.037 . S
O2628 C2648 1.234 . S
C2629 O2603 1.269 . S
C2629 O2604 1.257 . S
C2630 H2605 0.930 . S
C2630 C2633 1.388 . S
C2630 C2635 1.418 . S
C2631 H2626 0.930 . S
C2631 C2634 1.404 . S
C2631 C2635 1.353 . S
N2632 Co2597 2.145 . S
N2632 C2633 1.397 . S
N2632 C2634 1.334 . S
C2633 H2614 0.929 . S
C2633 C2630 1.388 . S
C2633 N2632 1.397 . S
C2634 H2615 0.929 . S
C2634 C2631 1.404 . S
C2634 N2632 1.334 . S
C2635 H2627 0.930 . S
C2635 C2630 1.418 . S
C2635 C2631 1.353 . S
C2636 H2606 0.930 . S
C2636 N2637 1.330 . S
C2636 C2638 1.446 . S
N2637 Co2596 2.151 . S
N2637 C2636 1.330 . S
N2637 C2641 1.418 . S
C2638 H2617 0.929 . S
C2638 C2636 1.446 . S
C2638 C2639 1.332 . S
C2639 H2619 0.931 . S
C2639 C2638 1.332 . S
C2639 C2640 1.267 . S
C2640 H2608 0.929 . S
C2640 C2639 1.267 . S
C2640 C2641 1.251 . S
C2641 H2611 0.929 . S
C2641 N2637 1.418 . S
C2641 C2640 1.251 . S
C2642 H2609 0.930 . S
C2642 C2644 1.406 . S
C2642 C2647 1.261 . S
C2643 H2610 0.930 . S
C2643 N2645 1.325 . S
C2643 C2646 1.357 . S
C2644 H2612 0.928 . S
C2644 C2642 1.406 . S
C2644 N2645 1.261 . S
N2645 Co2596 2.214 . S
N2645 C2643 1.325 . S
N2645 C2644 1.261 . S
C2646 H2616 0.931 . S
C2646 C2643 1.357 . S
C2646 C2647 1.312 . S
C2647 H2618 0.930 . S
C2647 C2642 1.261 . S
C2647 C2646 1.312 . S
C2648 O2620 1.214 . S
C2648 O2628 1.234 . S
C2649 H2621 0.929 . S
C2649 C2652 1.391 . S
C2649 C2654 1.391 . S
C2650 H2622 0.929 . S
C2650 C2651 1.390 . S
C2650 N2653 1.391 . S
C2651 H2623 0.930 . S
C2651 C2650 1.390 . S
C2651 C2652 1.392 . S
C2652 H2624 0.929 . S
C2652 C2649 1.391 . S
C2652 C2651 1.392 . S
N2653 Co2597 2.257 . S
N2653 C2650 1.391 . S
N2653 C2654 1.388 . S
C2654 H2625 0.930 . S
C2654 C2649 1.391 . S
C2654 N2653 1.388 . S
Co2655 O2657 2.143 . S
Co2655 O2663 2.074 . S
Co2655 O2666 2.093 . S
Co2655 O2679 2.097 . S
Co2655 N2696 2.151 . S
Co2655 N2704 2.214 . S
Co2656 O2657 2.160 . S
Co2656 O2662 2.058 . S
Co2656 O2672 2.057 . S
Co2656 O2687 2.037 . S
Co2656 N2691 2.145 . S
Co2656 N2712 2.257 . S
O2657 Co2655 2.143 . S
O2657 Co2656 2.160 . S
C2658 O2659 1.278 . S
C2658 O2666 1.224 . S
O2659 C2658 1.278 . S
C2660 O2661 1.245 . S
C2660 O2672 1.232 . S
O2661 C2660 1.245 . S
O2662 Co2656 2.058 . S
O2662 C2688 1.269 . S
O2663 Co2655 2.074 . S
O2663 C2688 1.257 . S
H2664 C2689 0.930 . S
H2665 C2695 0.930 . S
O2666 Co2655 2.093 . S
O2666 C2658 1.224 . S
H2667 C2699 0.929 . S
H2668 C2701 0.930 . S
H2669 C2702 0.930 . S
H2670 C2700 0.929 . S
H2671 C2703 0.928 . S
O2672 Co2656 2.057 . S
O2672 C2660 1.232 . S
H2673 C2692 0.929 . S
H2674 C2693 0.929 . S
H2675 C2705 0.931 . S
H2676 C2697 0.929 . S
H2677 C2706 0.930 . S
H2678 C2698 0.931 . S
O2679 Co2655 2.097 . S
O2679 C2707 1.214 . S
H2680 C2708 0.929 . S
H2681 C2709 0.929 . S
H2682 C2710 0.930 . S
H2683 C2711 0.929 . S
H2684 C2713 0.930 . S
H2685 C2690 0.930 . S
H2686 C2694 0.930 . S
O2687 Co2656 2.037 . S
O2687 C2707 1.234 . S
C2688 O2662 1.269 . S
C2688 O2663 1.257 . S
C2689 H2664 0.930 . S
C2689 C2692 1.388 . S
C2689 C2694 1.418 . S
C2690 H2685 0.930 . S
C2690 C2693 1.404 . S
C2690 C2694 1.353 . S
N2691 Co2656 2.145 . S
N2691 C2692 1.397 . S
N2691 C2693 1.334 . S
C2692 H2673 0.929 . S
C2692 C2689 1.388 . S
C2692 N2691 1.397 . S
C2693 H2674 0.929 . S
C2693 C2690 1.404 . S
C2693 N2691 1.334 . S
C2694 H2686 0.930 . S
C2694 C2689 1.418 . S
C2694 C2690 1.353 . S
C2695 H2665 0.930 . S
C2695 N2696 1.330 . S
C2695 C2697 1.446 . S
N2696 Co2655 2.151 . S
N2696 C2695 1.330 . S
N2696 C2700 1.418 . S
C2697 H2676 0.929 . S
C2697 C2695 1.446 . S
C2697 C2698 1.332 . S
C2698 H2678 0.931 . S
C2698 C2697 1.332 . S
C2698 C2699 1.267 . S
C2699 H2667 0.929 . S
C2699 C2698 1.267 . S
C2699 C2700 1.251 . S
C2700 H2670 0.929 . S
C2700 N2696 1.418 . S
C2700 C2699 1.251 . S
C2701 H2668 0.930 . S
C2701 C2703 1.406 . S
C2701 C2706 1.261 . S
C2702 H2669 0.930 . S
C2702 N2704 1.325 . S
C2702 C2705 1.357 . S
C2703 H2671 0.928 . S
C2703 C2701 1.406 . S
C2703 N2704 1.261 . S
N2704 Co2655 2.214 . S
N2704 C2702 1.325 . S
N2704 C2703 1.261 . S
C2705 H2675 0.931 . S
C2705 C2702 1.357 . S
C2705 C2706 1.312 . S
C2706 H2677 0.930 . S
C2706 C2701 1.261 . S
C2706 C2705 1.312 . S
C2707 O2679 1.214 . S
C2707 O2687 1.234 . S
C2708 H2680 0.929 . S
C2708 C2711 1.391 . S
C2708 C2713 1.391 . S
C2709 H2681 0.929 . S
C2709 C2710 1.390 . S
C2709 N2712 1.391 . S
C2710 H2682 0.930 . S
C2710 C2709 1.390 . S
C2710 C2711 1.392 . S
C2711 H2683 0.929 . S
C2711 C2708 1.391 . S
C2711 C2710 1.392 . S
N2712 Co2656 2.257 . S
N2712 C2709 1.391 . S
N2712 C2713 1.388 . S
C2713 H2684 0.930 . S
C2713 C2708 1.391 . S
C2713 N2712 1.388 . S
Co2714 O2716 2.143 . S
Co2714 O2722 2.074 . S
Co2714 O2725 2.093 . S
Co2714 O2738 2.097 . S
Co2714 N2755 2.151 . S
Co2714 N2763 2.214 . S
Co2715 O2716 2.160 . S
Co2715 O2721 2.058 . S
Co2715 O2731 2.057 . S
Co2715 O2746 2.037 . S
Co2715 N2750 2.145 . S
Co2715 N2771 2.257 . S
O2716 Co2714 2.143 . S
O2716 Co2715 2.160 . S
C2717 O2718 1.278 . S
C2717 O2725 1.224 . S
O2718 C2717 1.278 . S
C2719 O2720 1.245 . S
C2719 O2731 1.232 . S
O2720 C2719 1.245 . S
O2721 Co2715 2.058 . S
O2721 C2747 1.269 . S
O2722 Co2714 2.074 . S
O2722 C2747 1.257 . S
H2723 C2748 0.930 . S
H2724 C2754 0.930 . S
O2725 Co2714 2.093 . S
O2725 C2717 1.224 . S
H2726 C2758 0.929 . S
H2727 C2760 0.930 . S
H2728 C2761 0.930 . S
H2729 C2759 0.929 . S
H2730 C2762 0.928 . S
O2731 Co2715 2.057 . S
O2731 C2719 1.232 . S
H2732 C2751 0.929 . S
H2733 C2752 0.929 . S
H2734 C2764 0.931 . S
H2735 C2756 0.929 . S
H2736 C2765 0.930 . S
H2737 C2757 0.931 . S
O2738 Co2714 2.097 . S
O2738 C2766 1.214 . S
H2739 C2767 0.929 . S
H2740 C2768 0.929 . S
H2741 C2769 0.930 . S
H2742 C2770 0.929 . S
H2743 C2772 0.930 . S
H2744 C2749 0.930 . S
H2745 C2753 0.930 . S
O2746 Co2715 2.037 . S
O2746 C2766 1.234 . S
C2747 O2721 1.269 . S
C2747 O2722 1.257 . S
C2748 H2723 0.930 . S
C2748 C2751 1.388 . S
C2748 C2753 1.418 . S
C2749 H2744 0.930 . S
C2749 C2752 1.404 . S
C2749 C2753 1.353 . S
N2750 Co2715 2.145 . S
N2750 C2751 1.397 . S
N2750 C2752 1.334 . S
C2751 H2732 0.929 . S
C2751 C2748 1.388 . S
C2751 N2750 1.397 . S
C2752 H2733 0.929 . S
C2752 C2749 1.404 . S
C2752 N2750 1.334 . S
C2753 H2745 0.930 . S
C2753 C2748 1.418 . S
C2753 C2749 1.353 . S
C2754 H2724 0.930 . S
C2754 N2755 1.330 . S
C2754 C2756 1.446 . S
N2755 Co2714 2.151 . S
N2755 C2754 1.330 . S
N2755 C2759 1.418 . S
C2756 H2735 0.929 . S
C2756 C2754 1.446 . S
C2756 C2757 1.332 . S
C2757 H2737 0.931 . S
C2757 C2756 1.332 . S
C2757 C2758 1.267 . S
C2758 H2726 0.929 . S
C2758 C2757 1.267 . S
C2758 C2759 1.251 . S
C2759 H2729 0.929 . S
C2759 N2755 1.418 . S
C2759 C2758 1.251 . S
C2760 H2727 0.930 . S
C2760 C2762 1.406 . S
C2760 C2765 1.261 . S
C2761 H2728 0.930 . S
C2761 N2763 1.325 . S
C2761 C2764 1.357 . S
C2762 H2730 0.928 . S
C2762 C2760 1.406 . S
C2762 N2763 1.261 . S
N2763 Co2714 2.214 . S
N2763 C2761 1.325 . S
N2763 C2762 1.261 . S
C2764 H2734 0.931 . S
C2764 C2761 1.357 . S
C2764 C2765 1.312 . S
C2765 H2736 0.930 . S
C2765 C2760 1.261 . S
C2765 C2764 1.312 . S
C2766 O2738 1.214 . S
C2766 O2746 1.234 . S
C2767 H2739 0.929 . S
C2767 C2770 1.391 . S
C2767 C2772 1.391 . S
C2768 H2740 0.929 . S
C2768 C2769 1.390 . S
C2768 N2771 1.391 . S
C2769 H2741 0.930 . S
C2769 C2768 1.390 . S
C2769 C2770 1.392 . S
C2770 H2742 0.929 . S
C2770 C2767 1.391 . S
C2770 C2769 1.392 . S
N2771 Co2715 2.257 . S
N2771 C2768 1.391 . S
N2771 C2772 1.388 . S
C2772 H2743 0.930 . S
C2772 C2767 1.391 . S
C2772 N2771 1.388 . S
Co2773 O2775 2.143 . S
Co2773 O2781 2.074 . S
Co2773 O2784 2.093 . S
Co2773 O2797 2.097 . S
Co2773 N2814 2.151 . S
Co2773 N2822 2.214 . S
Co2774 O2775 2.160 . S
Co2774 O2780 2.058 . S
Co2774 O2790 2.057 . S
Co2774 O2805 2.037 . S
Co2774 N2809 2.145 . S
Co2774 N2830 2.257 . S
O2775 Co2773 2.143 . S
O2775 Co2774 2.160 . S
C2776 O2777 1.278 . S
C2776 O2784 1.224 . S
O2777 C2776 1.278 . S
C2778 O2779 1.245 . S
C2778 O2790 1.232 . S
O2779 C2778 1.245 . S
O2780 Co2774 2.058 . S
O2780 C2806 1.269 . S
O2781 Co2773 2.074 . S
O2781 C2806 1.257 . S
H2782 C2807 0.930 . S
H2783 C2813 0.930 . S
O2784 Co2773 2.093 . S
O2784 C2776 1.224 . S
H2785 C2817 0.929 . S
H2786 C2819 0.930 . S
H2787 C2820 0.930 . S
H2788 C2818 0.929 . S
H2789 C2821 0.928 . S
O2790 Co2774 2.057 . S
O2790 C2778 1.232 . S
H2791 C2810 0.929 . S
H2792 C2811 0.929 . S
H2793 C2823 0.931 . S
H2794 C2815 0.929 . S
H2795 C2824 0.930 . S
H2796 C2816 0.931 . S
O2797 Co2773 2.097 . S
O2797 C2825 1.214 . S
H2798 C2826 0.929 . S
H2799 C2827 0.929 . S
H2800 C2828 0.930 . S
H2801 C2829 0.929 . S
H2802 C2831 0.930 . S
H2803 C2808 0.930 . S
H2804 C2812 0.930 . S
O2805 Co2774 2.037 . S
O2805 C2825 1.234 . S
C2806 O2780 1.269 . S
C2806 O2781 1.257 . S
C2807 H2782 0.930 . S
C2807 C2810 1.388 . S
C2807 C2812 1.418 . S
C2808 H2803 0.930 . S
C2808 C2811 1.404 . S
C2808 C2812 1.353 . S
N2809 Co2774 2.145 . S
N2809 C2810 1.397 . S
N2809 C2811 1.334 . S
C2810 H2791 0.929 . S
C2810 C2807 1.388 . S
C2810 N2809 1.397 . S
C2811 H2792 0.929 . S
C2811 C2808 1.404 . S
C2811 N2809 1.334 . S
C2812 H2804 0.930 . S
C2812 C2807 1.418 . S
C2812 C2808 1.353 . S
C2813 H2783 0.930 . S
C2813 N2814 1.330 . S
C2813 C2815 1.446 . S
N2814 Co2773 2.151 . S
N2814 C2813 1.330 . S
N2814 C2818 1.418 . S
C2815 H2794 0.929 . S
C2815 C2813 1.446 . S
C2815 C2816 1.332 . S
C2816 H2796 0.931 . S
C2816 C2815 1.332 . S
C2816 C2817 1.267 . S
C2817 H2785 0.929 . S
C2817 C2816 1.267 . S
C2817 C2818 1.251 . S
C2818 H2788 0.929 . S
C2818 N2814 1.418 . S
C2818 C2817 1.251 . S
C2819 H2786 0.930 . S
C2819 C2821 1.406 . S
C2819 C2824 1.261 . S
C2820 H2787 0.930 . S
C2820 N2822 1.325 . S
C2820 C2823 1.357 . S
C2821 H2789 0.928 . S
C2821 C2819 1.406 . S
C2821 N2822 1.261 . S
N2822 Co2773 2.214 . S
N2822 C2820 1.325 . S
N2822 C2821 1.261 . S
C2823 H2793 0.931 . S
C2823 C2820 1.357 . S
C2823 C2824 1.312 . S
C2824 H2795 0.930 . S
C2824 C2819 1.261 . S
C2824 C2823 1.312 . S
C2825 O2797 1.214 . S
C2825 O2805 1.234 . S
C2826 H2798 0.929 . S
C2826 C2829 1.391 . S
C2826 C2831 1.391 . S
C2827 H2799 0.929 . S
C2827 C2828 1.390 . S
C2827 N2830 1.391 . S
C2828 H2800 0.930 . S
C2828 C2827 1.390 . S
C2828 C2829 1.392 . S
C2829 H2801 0.929 . S
C2829 C2826 1.391 . S
C2829 C2828 1.392 . S
N2830 Co2774 2.257 . S
N2830 C2827 1.391 . S
N2830 C2831 1.388 . S
C2831 H2802 0.930 . S
C2831 C2826 1.391 . S
C2831 N2830 1.388 . S
H2832 C2838 0.930 . S
H2833 C2842 0.930 . S
H2834 C2847 0.929 . S
H2835 C2845 0.929 . S
H2836 C2840 0.929 . S
H2837 C2846 0.929 . S
C2838 H2832 0.930 . S
C2838 C2839 1.367 . S
C2838 C2846 1.378 . S
C2839 C2838 1.367 . S
C2839 C2847 1.433 . S
C2840 H2836 0.929 . S
C2840 C2842 1.378 . S
C2840 C2844 1.350 . S
C2841 C2844 1.463 . S
C2841 C2846 1.350 . S
C2841 N2849 1.427 . S
C2842 H2833 0.930 . S
C2842 C2840 1.378 . S
C2842 C2843 1.367 . S
C2843 C2842 1.367 . S
C2843 C2845 1.433 . S
C2844 C2840 1.350 . S
C2844 C2841 1.463 . S
C2844 N2848 1.427 . S
C2845 H2835 0.929 . S
C2845 C2843 1.433 . S
C2845 N2848 1.384 . S
C2846 H2837 0.929 . S
C2846 C2838 1.378 . S
C2846 C2841 1.350 . S
C2847 H2834 0.929 . S
C2847 C2839 1.433 . S
C2847 N2849 1.384 . S
N2848 C2844 1.427 . S
N2848 C2845 1.384 . S
N2849 C2841 1.427 . S
N2849 C2847 1.384 . S
H2850 C2856 0.930 . S
H2851 C2860 0.930 . S
H2852 C2865 0.929 . S
H2853 C2863 0.929 . S
H2854 C2858 0.929 . S
H2855 C2864 0.929 . S
C2856 H2850 0.930 . S
C2856 C2857 1.367 . S
C2856 C2864 1.378 . S
C2857 C2856 1.367 . S
C2857 C2865 1.433 . S
C2858 H2854 0.929 . S
C2858 C2860 1.378 . S
C2858 C2862 1.350 . S
C2859 C2862 1.463 . S
C2859 C2864 1.350 . S
C2859 N2867 1.427 . S
C2860 H2851 0.930 . S
C2860 C2858 1.378 . S
C2860 C2861 1.367 . S
C2861 C2860 1.367 . S
C2861 C2863 1.433 . S
C2862 C2858 1.350 . S
C2862 C2859 1.463 . S
C2862 N2866 1.427 . S
C2863 H2853 0.929 . S
C2863 C2861 1.433 . S
C2863 N2866 1.384 . S
C2864 H2855 0.929 . S
C2864 C2856 1.378 . S
C2864 C2859 1.350 . S
C2865 H2852 0.929 . S
C2865 C2857 1.433 . S
C2865 N2867 1.384 . S
N2866 C2862 1.427 . S
N2866 C2863 1.384 . S
N2867 C2859 1.427 . S
N2867 C2865 1.384 . S
H2868 C2874 0.930 . S
H2869 C2878 0.930 . S
H2870 C2883 0.929 . S
H2871 C2881 0.929 . S
H2872 C2876 0.929 . S
H2873 C2882 0.929 . S
C2874 H2868 0.930 . S
C2874 C2875 1.367 . S
C2874 C2882 1.378 . S
C2875 C2874 1.367 . S
C2875 C2883 1.433 . S
C2876 H2872 0.929 . S
C2876 C2878 1.378 . S
C2876 C2880 1.350 . S
C2877 C2880 1.463 . S
C2877 C2882 1.350 . S
C2877 N2885 1.427 . S
C2878 H2869 0.930 . S
C2878 C2876 1.378 . S
C2878 C2879 1.367 . S
C2879 C2878 1.367 . S
C2879 C2881 1.433 . S
C2880 C2876 1.350 . S
C2880 C2877 1.463 . S
C2880 N2884 1.427 . S
C2881 H2871 0.929 . S
C2881 C2879 1.433 . S
C2881 N2884 1.384 . S
C2882 H2873 0.929 . S
C2882 C2874 1.378 . S
C2882 C2877 1.350 . S
C2883 H2870 0.929 . S
C2883 C2875 1.433 . S
C2883 N2885 1.384 . S
N2884 C2880 1.427 . S
N2884 C2881 1.384 . S
N2885 C2877 1.427 . S
N2885 C2883 1.384 . S
H2886 C2892 0.930 . S
H2887 C2896 0.930 . S
H2888 C2901 0.929 . S
H2889 C2899 0.929 . S
H2890 C2894 0.929 . S
H2891 C2900 0.929 . S
C2892 H2886 0.930 . S
C2892 C2893 1.367 . S
C2892 C2900 1.378 . S
C2893 C2892 1.367 . S
C2893 C2901 1.433 . S
C2894 H2890 0.929 . S
C2894 C2896 1.378 . S
C2894 C2898 1.350 . S
C2895 C2898 1.463 . S
C2895 C2900 1.350 . S
C2895 N2903 1.427 . S
C2896 H2887 0.930 . S
C2896 C2894 1.378 . S
C2896 C2897 1.367 . S
C2897 C2896 1.367 . S
C2897 C2899 1.433 . S
C2898 C2894 1.350 . S
C2898 C2895 1.463 . S
C2898 N2902 1.427 . S
C2899 H2889 0.929 . S
C2899 C2897 1.433 . S
C2899 N2902 1.384 . S
C2900 H2891 0.929 . S
C2900 C2892 1.378 . S
C2900 C2895 1.350 . S
C2901 H2888 0.929 . S
C2901 C2893 1.433 . S
C2901 N2903 1.384 . S
N2902 C2898 1.427 . S
N2902 C2899 1.384 . S
N2903 C2895 1.427 . S
N2903 C2901 1.384 . S
H2904 C2910 0.930 . S
H2905 C2914 0.930 . S
H2906 C2919 0.929 . S
H2907 C2917 0.929 . S
H2908 C2912 0.929 . S
H2909 C2918 0.929 . S
C2910 H2904 0.930 . S
C2910 C2911 1.367 . S
C2910 C2918 1.378 . S
C2911 C2910 1.367 . S
C2911 C2919 1.433 . S
C2912 H2908 0.929 . S
C2912 C2914 1.378 . S
C2912 C2916 1.350 . S
C2913 C2916 1.463 . S
C2913 C2918 1.350 . S
C2913 N2921 1.427 . S
C2914 H2905 0.930 . S
C2914 C2912 1.378 . S
C2914 C2915 1.367 . S
C2915 C2914 1.367 . S
C2915 C2917 1.433 . S
C2916 C2912 1.350 . S
C2916 C2913 1.463 . S
C2916 N2920 1.427 . S
C2917 H2907 0.929 . S
C2917 C2915 1.433 . S
C2917 N2920 1.384 . S
C2918 H2909 0.929 . S
C2918 C2910 1.378 . S
C2918 C2913 1.350 . S
C2919 H2906 0.929 . S
C2919 C2911 1.433 . S
C2919 N2921 1.384 . S
N2920 C2916 1.427 . S
N2920 C2917 1.384 . S
N2921 C2913 1.427 . S
N2921 C2919 1.384 . S
H2922 C2928 0.930 . S
H2923 C2932 0.930 . S
H2924 C2937 0.929 . S
H2925 C2935 0.929 . S
H2926 C2930 0.929 . S
H2927 C2936 0.929 . S
C2928 H2922 0.930 . S
C2928 C2929 1.367 . S
C2928 C2936 1.378 . S
C2929 C2928 1.367 . S
C2929 C2937 1.433 . S
C2930 H2926 0.929 . S
C2930 C2932 1.378 . S
C2930 C2934 1.350 . S
C2931 C2934 1.463 . S
C2931 C2936 1.350 . S
C2931 N2939 1.427 . S
C2932 H2923 0.930 . S
C2932 C2930 1.378 . S
C2932 C2933 1.367 . S
C2933 C2932 1.367 . S
C2933 C2935 1.433 . S
C2934 C2930 1.350 . S
C2934 C2931 1.463 . S
C2934 N2938 1.427 . S
C2935 H2925 0.929 . S
C2935 C2933 1.433 . S
C2935 N2938 1.384 . S
C2936 H2927 0.929 . S
C2936 C2928 1.378 . S
C2936 C2931 1.350 . S
C2937 H2924 0.929 . S
C2937 C2929 1.433 . S
C2937 N2939 1.384 . S
N2938 C2934 1.427 . S
N2938 C2935 1.384 . S
N2939 C2931 1.427 . S
N2939 C2937 1.384 . S
H2940 C2946 0.930 . S
H2941 C2950 0.930 . S
H2942 C2955 0.929 . S
H2943 C2953 0.929 . S
H2944 C2948 0.929 . S
H2945 C2954 0.929 . S
C2946 H2940 0.930 . S
C2946 C2947 1.367 . S
C2946 C2954 1.378 . S
C2947 C2946 1.367 . S
C2947 C2955 1.433 . S
C2948 H2944 0.929 . S
C2948 C2950 1.378 . S
C2948 C2952 1.350 . S
C2949 C2952 1.463 . S
C2949 C2954 1.350 . S
C2949 N2957 1.427 . S
C2950 H2941 0.930 . S
C2950 C2948 1.378 . S
C2950 C2951 1.367 . S
C2951 C2950 1.367 . S
C2951 C2953 1.433 . S
C2952 C2948 1.350 . S
C2952 C2949 1.463 . S
C2952 N2956 1.427 . S
C2953 H2943 0.929 . S
C2953 C2951 1.433 . S
C2953 N2956 1.384 . S
C2954 H2945 0.929 . S
C2954 C2946 1.378 . S
C2954 C2949 1.350 . S
C2955 H2942 0.929 . S
C2955 C2947 1.433 . S
C2955 N2957 1.384 . S
N2956 C2952 1.427 . S
N2956 C2953 1.384 . S
N2957 C2949 1.427 . S
N2957 C2955 1.384 . S
H2958 C2964 0.930 . S
H2959 C2968 0.930 . S
H2960 C2973 0.929 . S
H2961 C2971 0.929 . S
H2962 C2966 0.929 . S
H2963 C2972 0.929 . S
C2964 H2958 0.930 . S
C2964 C2965 1.367 . S
C2964 C2972 1.378 . S
C2965 C2964 1.367 . S
C2965 C2973 1.433 . S
C2966 H2962 0.929 . S
C2966 C2968 1.378 . S
C2966 C2970 1.350 . S
C2967 C2970 1.463 . S
C2967 C2972 1.350 . S
C2967 N2975 1.427 . S
C2968 H2959 0.930 . S
C2968 C2966 1.378 . S
C2968 C2969 1.367 . S
C2969 C2968 1.367 . S
C2969 C2971 1.433 . S
C2970 C2966 1.350 . S
C2970 C2967 1.463 . S
C2970 N2974 1.427 . S
C2971 H2961 0.929 . S
C2971 C2969 1.433 . S
C2971 N2974 1.384 . S
C2972 H2963 0.929 . S
C2972 C2964 1.378 . S
C2972 C2967 1.350 . S
C2973 H2960 0.929 . S
C2973 C2965 1.433 . S
C2973 N2975 1.384 . S
N2974 C2970 1.427 . S
N2974 C2971 1.384 . S
N2975 C2967 1.427 . S
N2975 C2973 1.384 . S
H2976 C2982 0.930 . S
H2977 C2986 0.930 . S
H2978 C2991 0.929 . S
H2979 C2989 0.929 . S
H2980 C2984 0.929 . S
H2981 C2990 0.929 . S
C2982 H2976 0.930 . S
C2982 C2983 1.367 . S
C2982 C2990 1.378 . S
C2983 C2982 1.367 . S
C2983 C2991 1.433 . S
C2984 H2980 0.929 . S
C2984 C2986 1.378 . S
C2984 C2988 1.350 . S
C2985 C2988 1.463 . S
C2985 C2990 1.350 . S
C2985 N2993 1.427 . S
C2986 H2977 0.930 . S
C2986 C2984 1.378 . S
C2986 C2987 1.367 . S
C2987 C2986 1.367 . S
C2987 C2989 1.433 . S
C2988 C2984 1.350 . S
C2988 C2985 1.463 . S
C2988 N2992 1.427 . S
C2989 H2979 0.929 . S
C2989 C2987 1.433 . S
C2989 N2992 1.384 . S
C2990 H2981 0.929 . S
C2990 C2982 1.378 . S
C2990 C2985 1.350 . S
C2991 H2978 0.929 . S
C2991 C2983 1.433 . S
C2991 N2993 1.384 . S
N2992 C2988 1.427 . S
N2992 C2989 1.384 . S
N2993 C2985 1.427 . S
N2993 C2991 1.384 . S
H2994 C3000 0.930 . S
H2995 C3004 0.930 . S
H2996 C3009 0.929 . S
H2997 C3007 0.929 . S
H2998 C3002 0.929 . S
H2999 C3008 0.929 . S
C3000 H2994 0.930 . S
C3000 C3001 1.367 . S
C3000 C3008 1.378 . S
C3001 C3000 1.367 . S
C3001 C3009 1.433 . S
C3002 H2998 0.929 . S
C3002 C3004 1.378 . S
C3002 C3006 1.350 . S
C3003 C3006 1.463 . S
C3003 C3008 1.350 . S
C3003 N3011 1.427 . S
C3004 H2995 0.930 . S
C3004 C3002 1.378 . S
C3004 C3005 1.367 . S
C3005 C3004 1.367 . S
C3005 C3007 1.433 . S
C3006 C3002 1.350 . S
C3006 C3003 1.463 . S
C3006 N3010 1.427 . S
C3007 H2997 0.929 . S
C3007 C3005 1.433 . S
C3007 N3010 1.384 . S
C3008 H2999 0.929 . S
C3008 C3000 1.378 . S
C3008 C3003 1.350 . S
C3009 H2996 0.929 . S
C3009 C3001 1.433 . S
C3009 N3011 1.384 . S
N3010 C3006 1.427 . S
N3010 C3007 1.384 . S
N3011 C3003 1.427 . S
N3011 C3009 1.384 . S
H3012 C3018 0.930 . S
H3013 C3022 0.930 . S
H3014 C3027 0.929 . S
H3015 C3025 0.929 . S
H3016 C3020 0.929 . S
H3017 C3026 0.929 . S
C3018 H3012 0.930 . S
C3018 C3019 1.367 . S
C3018 C3026 1.378 . S
C3019 C3018 1.367 . S
C3019 C3027 1.433 . S
C3020 H3016 0.929 . S
C3020 C3022 1.378 . S
C3020 C3024 1.350 . S
C3021 C3024 1.463 . S
C3021 C3026 1.350 . S
C3021 N3029 1.427 . S
C3022 H3013 0.930 . S
C3022 C3020 1.378 . S
C3022 C3023 1.367 . S
C3023 C3022 1.367 . S
C3023 C3025 1.433 . S
C3024 C3020 1.350 . S
C3024 C3021 1.463 . S
C3024 N3028 1.427 . S
C3025 H3015 0.929 . S
C3025 C3023 1.433 . S
C3025 N3028 1.384 . S
C3026 H3017 0.929 . S
C3026 C3018 1.378 . S
C3026 C3021 1.350 . S
C3027 H3014 0.929 . S
C3027 C3019 1.433 . S
C3027 N3029 1.384 . S
N3028 C3024 1.427 . S
N3028 C3025 1.384 . S
N3029 C3021 1.427 . S
N3029 C3027 1.384 . S
H3030 C3036 0.930 . S
H3031 C3040 0.930 . S
H3032 C3045 0.929 . S
H3033 C3043 0.929 . S
H3034 C3038 0.929 . S
H3035 C3044 0.929 . S
C3036 H3030 0.930 . S
C3036 C3037 1.367 . S
C3036 C3044 1.378 . S
C3037 C3036 1.367 . S
C3037 C3045 1.433 . S
C3038 H3034 0.929 . S
C3038 C3040 1.378 . S
C3038 C3042 1.350 . S
C3039 C3042 1.463 . S
C3039 C3044 1.350 . S
C3039 N3047 1.427 . S
C3040 H3031 0.930 . S
C3040 C3038 1.378 . S
C3040 C3041 1.367 . S
C3041 C3040 1.367 . S
C3041 C3043 1.433 . S
C3042 C3038 1.350 . S
C3042 C3039 1.463 . S
C3042 N3046 1.427 . S
C3043 H3033 0.929 . S
C3043 C3041 1.433 . S
C3043 N3046 1.384 . S
C3044 H3035 0.929 . S
C3044 C3036 1.378 . S
C3044 C3039 1.350 . S
C3045 H3032 0.929 . S
C3045 C3037 1.433 . S
C3045 N3047 1.384 . S
N3046 C3042 1.427 . S
N3046 C3043 1.384 . S
N3047 C3039 1.427 . S
N3047 C3045 1.384 . S
H3048 C3054 0.930 . S
H3049 C3058 0.930 . S
H3050 C3063 0.929 . S
H3051 C3061 0.929 . S
H3052 C3056 0.929 . S
H3053 C3062 0.929 . S
C3054 H3048 0.930 . S
C3054 C3055 1.367 . S
C3054 C3062 1.378 . S
C3055 C3054 1.367 . S
C3055 C3063 1.433 . S
C3056 H3052 0.929 . S
C3056 C3058 1.378 . S
C3056 C3060 1.350 . S
C3057 C3060 1.463 . S
C3057 C3062 1.350 . S
C3057 N3065 1.427 . S
C3058 H3049 0.930 . S
C3058 C3056 1.378 . S
C3058 C3059 1.367 . S
C3059 C3058 1.367 . S
C3059 C3061 1.433 . S
C3060 C3056 1.350 . S
C3060 C3057 1.463 . S
C3060 N3064 1.427 . S
C3061 H3051 0.929 . S
C3061 C3059 1.433 . S
C3061 N3064 1.384 . S
C3062 H3053 0.929 . S
C3062 C3054 1.378 . S
C3062 C3057 1.350 . S
C3063 H3050 0.929 . S
C3063 C3055 1.433 . S
C3063 N3065 1.384 . S
N3064 C3060 1.427 . S
N3064 C3061 1.384 . S
N3065 C3057 1.427 . S
N3065 C3063 1.384 . S
H3066 C3072 0.930 . S
H3067 C3076 0.930 . S
H3068 C3081 0.929 . S
H3069 C3079 0.929 . S
H3070 C3074 0.929 . S
H3071 C3080 0.929 . S
C3072 H3066 0.930 . S
C3072 C3073 1.367 . S
C3072 C3080 1.378 . S
C3073 C3072 1.367 . S
C3073 C3081 1.433 . S
C3074 H3070 0.929 . S
C3074 C3076 1.378 . S
C3074 C3078 1.350 . S
C3075 C3078 1.463 . S
C3075 C3080 1.350 . S
C3075 N3083 1.427 . S
C3076 H3067 0.930 . S
C3076 C3074 1.378 . S
C3076 C3077 1.367 . S
C3077 C3076 1.367 . S
C3077 C3079 1.433 . S
C3078 C3074 1.350 . S
C3078 C3075 1.463 . S
C3078 N3082 1.427 . S
C3079 H3069 0.929 . S
C3079 C3077 1.433 . S
C3079 N3082 1.384 . S
C3080 H3071 0.929 . S
C3080 C3072 1.378 . S
C3080 C3075 1.350 . S
C3081 H3068 0.929 . S
C3081 C3073 1.433 . S
C3081 N3083 1.384 . S
N3082 C3078 1.427 . S
N3082 C3079 1.384 . S
N3083 C3075 1.427 . S
N3083 C3081 1.384 . S
H3084 C3090 0.930 . S
H3085 C3094 0.930 . S
H3086 C3099 0.929 . S
H3087 C3097 0.929 . S
H3088 C3092 0.929 . S
H3089 C3098 0.929 . S
C3090 H3084 0.930 . S
C3090 C3091 1.367 . S
C3090 C3098 1.378 . S
C3091 C3090 1.367 . S
C3091 C3099 1.433 . S
C3092 H3088 0.929 . S
C3092 C3094 1.378 . S
C3092 C3096 1.350 . S
C3093 C3096 1.463 . S
C3093 C3098 1.350 . S
C3093 N3101 1.427 . S
C3094 H3085 0.930 . S
C3094 C3092 1.378 . S
C3094 C3095 1.367 . S
C3095 C3094 1.367 . S
C3095 C3097 1.433 . S
C3096 C3092 1.350 . S
C3096 C3093 1.463 . S
C3096 N3100 1.427 . S
C3097 H3087 0.929 . S
C3097 C3095 1.433 . S
C3097 N3100 1.384 . S
C3098 H3089 0.929 . S
C3098 C3090 1.378 . S
C3098 C3093 1.350 . S
C3099 H3086 0.929 . S
C3099 C3091 1.433 . S
C3099 N3101 1.384 . S
N3100 C3096 1.427 . S
N3100 C3097 1.384 . S
N3101 C3093 1.427 . S
N3101 C3099 1.384 . S
H3102 C3108 0.930 . S
H3103 C3112 0.930 . S
H3104 C3117 0.929 . S
H3105 C3115 0.929 . S
H3106 C3110 0.929 . S
H3107 C3116 0.929 . S
C3108 H3102 0.930 . S
C3108 C3109 1.367 . S
C3108 C3116 1.378 . S
C3109 C3108 1.367 . S
C3109 C3117 1.433 . S
C3110 H3106 0.929 . S
C3110 C3112 1.378 . S
C3110 C3114 1.350 . S
C3111 C3114 1.463 . S
C3111 C3116 1.350 . S
C3111 N3119 1.427 . S
C3112 H3103 0.930 . S
C3112 C3110 1.378 . S
C3112 C3113 1.367 . S
C3113 C3112 1.367 . S
C3113 C3115 1.433 . S
C3114 C3110 1.350 . S
C3114 C3111 1.463 . S
C3114 N3118 1.427 . S
C3115 H3105 0.929 . S
C3115 C3113 1.433 . S
C3115 N3118 1.384 . S
C3116 H3107 0.929 . S
C3116 C3108 1.378 . S
C3116 C3111 1.350 . S
C3117 H3104 0.929 . S
C3117 C3109 1.433 . S
C3117 N3119 1.384 . S
N3118 C3114 1.427 . S
N3118 C3115 1.384 . S
N3119 C3111 1.427 . S
N3119 C3117 1.384 . S
H3120 C3126 0.930 . S
H3121 C3130 0.930 . S
H3122 C3135 0.929 . S
H3123 C3133 0.929 . S
H3124 C3128 0.929 . S
H3125 C3134 0.929 . S
C3126 H3120 0.930 . S
C3126 C3127 1.367 . S
C3126 C3134 1.378 . S
C3127 C3126 1.367 . S
C3127 C3135 1.433 . S
C3128 H3124 0.929 . S
C3128 C3130 1.378 . S
C3128 C3132 1.350 . S
C3129 C3132 1.463 . S
C3129 C3134 1.350 . S
C3129 N3137 1.427 . S
C3130 H3121 0.930 . S
C3130 C3128 1.378 . S
C3130 C3131 1.367 . S
C3131 C3130 1.367 . S
C3131 C3133 1.433 . S
C3132 C3128 1.350 . S
C3132 C3129 1.463 . S
C3132 N3136 1.427 . S
C3133 H3123 0.929 . S
C3133 C3131 1.433 . S
C3133 N3136 1.384 . S
C3134 H3125 0.929 . S
C3134 C3126 1.378 . S
C3134 C3129 1.350 . S
C3135 H3122 0.929 . S
C3135 C3127 1.433 . S
C3135 N3137 1.384 . S
N3136 C3132 1.427 . S
N3136 C3133 1.384 . S
N3137 C3129 1.427 . S
N3137 C3135 1.384 . S
H3138 C3144 0.930 . S
H3139 C3148 0.930 . S
H3140 C3153 0.929 . S
H3141 C3151 0.929 . S
H3142 C3146 0.929 . S
H3143 C3152 0.929 . S
C3144 H3138 0.930 . S
C3144 C3145 1.367 . S
C3144 C3152 1.378 . S
C3145 C3144 1.367 . S
C3145 C3153 1.433 . S
C3146 H3142 0.929 . S
C3146 C3148 1.378 . S
C3146 C3150 1.350 . S
C3147 C3150 1.463 . S
C3147 C3152 1.350 . S
C3147 N3155 1.427 . S
C3148 H3139 0.930 . S
C3148 C3146 1.378 . S
C3148 C3149 1.367 . S
C3149 C3148 1.367 . S
C3149 C3151 1.433 . S
C3150 C3146 1.350 . S
C3150 C3147 1.463 . S
C3150 N3154 1.427 . S
C3151 H3141 0.929 . S
C3151 C3149 1.433 . S
C3151 N3154 1.384 . S
C3152 H3143 0.929 . S
C3152 C3144 1.378 . S
C3152 C3147 1.350 . S
C3153 H3140 0.929 . S
C3153 C3145 1.433 . S
C3153 N3155 1.384 . S
N3154 C3150 1.427 . S
N3154 C3151 1.384 . S
N3155 C3147 1.427 . S
N3155 C3153 1.384 . S
H3156 C3162 0.930 . S
H3157 C3166 0.930 . S
H3158 C3171 0.929 . S
H3159 C3169 0.929 . S
H3160 C3164 0.929 . S
H3161 C3170 0.929 . S
C3162 H3156 0.930 . S
C3162 C3163 1.367 . S
C3162 C3170 1.378 . S
C3163 C3162 1.367 . S
C3163 C3171 1.433 . S
C3164 H3160 0.929 . S
C3164 C3166 1.378 . S
C3164 C3168 1.350 . S
C3165 C3168 1.463 . S
C3165 C3170 1.350 . S
C3165 N3173 1.427 . S
C3166 H3157 0.930 . S
C3166 C3164 1.378 . S
C3166 C3167 1.367 . S
C3167 C3166 1.367 . S
C3167 C3169 1.433 . S
C3168 C3164 1.350 . S
C3168 C3165 1.463 . S
C3168 N3172 1.427 . S
C3169 H3159 0.929 . S
C3169 C3167 1.433 . S
C3169 N3172 1.384 . S
C3170 H3161 0.929 . S
C3170 C3162 1.378 . S
C3170 C3165 1.350 . S
C3171 H3158 0.929 . S
C3171 C3163 1.433 . S
C3171 N3173 1.384 . S
N3172 C3168 1.427 . S
N3172 C3169 1.384 . S
N3173 C3165 1.427 . S
N3173 C3171 1.384 . S
H3174 C3180 0.930 . S
H3175 C3184 0.930 . S
H3176 C3189 0.929 . S
H3177 C3187 0.929 . S
H3178 C3182 0.929 . S
H3179 C3188 0.929 . S
C3180 H3174 0.930 . S
C3180 C3181 1.367 . S
C3180 C3188 1.378 . S
C3181 C3180 1.367 . S
C3181 C3189 1.433 . S
C3182 H3178 0.929 . S
C3182 C3184 1.378 . S
C3182 C3186 1.350 . S
C3183 C3186 1.463 . S
C3183 C3188 1.350 . S
C3183 N3191 1.427 . S
C3184 H3175 0.930 . S
C3184 C3182 1.378 . S
C3184 C3185 1.367 . S
C3185 C3184 1.367 . S
C3185 C3187 1.433 . S
C3186 C3182 1.350 . S
C3186 C3183 1.463 . S
C3186 N3190 1.427 . S
C3187 H3177 0.929 . S
C3187 C3185 1.433 . S
C3187 N3190 1.384 . S
C3188 H3179 0.929 . S
C3188 C3180 1.378 . S
C3188 C3183 1.350 . S
C3189 H3176 0.929 . S
C3189 C3181 1.433 . S
C3189 N3191 1.384 . S
N3190 C3186 1.427 . S
N3190 C3187 1.384 . S
N3191 C3183 1.427 . S
N3191 C3189 1.384 . S
H3192 C3198 0.930 . S
H3193 C3202 0.930 . S
H3194 C3207 0.929 . S
H3195 C3205 0.929 . S
H3196 C3200 0.929 . S
H3197 C3206 0.929 . S
C3198 H3192 0.930 . S
C3198 C3199 1.367 . S
C3198 C3206 1.378 . S
C3199 C3198 1.367 . S
C3199 C3207 1.433 . S
C3200 H3196 0.929 . S
C3200 C3202 1.378 . S
C3200 C3204 1.350 . S
C3201 C3204 1.463 . S
C3201 C3206 1.350 . S
C3201 N3209 1.427 . S
C3202 H3193 0.930 . S
C3202 C3200 1.378 . S
C3202 C3203 1.367 . S
C3203 C3202 1.367 . S
C3203 C3205 1.433 . S
C3204 C3200 1.350 . S
C3204 C3201 1.463 . S
C3204 N3208 1.427 . S
C3205 H3195 0.929 . S
C3205 C3203 1.433 . S
C3205 N3208 1.384 . S
C3206 H3197 0.929 . S
C3206 C3198 1.378 . S
C3206 C3201 1.350 . S
C3207 H3194 0.929 . S
C3207 C3199 1.433 . S
C3207 N3209 1.384 . S
N3208 C3204 1.427 . S
N3208 C3205 1.384 . S
N3209 C3201 1.427 . S
N3209 C3207 1.384 . S
H3210 C3216 0.930 . S
H3211 C3220 0.930 . S
H3212 C3225 0.929 . S
H3213 C3223 0.929 . S
H3214 C3218 0.929 . S
H3215 C3224 0.929 . S
C3216 H3210 0.930 . S
C3216 C3217 1.367 . S
C3216 C3224 1.378 . S
C3217 C3216 1.367 . S
C3217 C3225 1.433 . S
C3218 H3214 0.929 . S
C3218 C3220 1.378 . S
C3218 C3222 1.350 . S
C3219 C3222 1.463 . S
C3219 C3224 1.350 . S
C3219 N3227 1.427 . S
C3220 H3211 0.930 . S
C3220 C3218 1.378 . S
C3220 C3221 1.367 . S
C3221 C3220 1.367 . S
C3221 C3223 1.433 . S
C3222 C3218 1.350 . S
C3222 C3219 1.463 . S
C3222 N3226 1.427 . S
C3223 H3213 0.929 . S
C3223 C3221 1.433 . S
C3223 N3226 1.384 . S
C3224 H3215 0.929 . S
C3224 C3216 1.378 . S
C3224 C3219 1.350 . S
C3225 H3212 0.929 . S
C3225 C3217 1.433 . S
C3225 N3227 1.384 . S
N3226 C3222 1.427 . S
N3226 C3223 1.384 . S
N3227 C3219 1.427 . S
N3227 C3225 1.384 . S
H3228 C3234 0.930 . S
H3229 C3238 0.930 . S
H3230 C3243 0.929 . S
H3231 C3241 0.929 . S
H3232 C3236 0.929 . S
H3233 C3242 0.929 . S
C3234 H3228 0.930 . S
C3234 C3235 1.367 . S
C3234 C3242 1.378 . S
C3235 C3234 1.367 . S
C3235 C3243 1.433 . S
C3236 H3232 0.929 . S
C3236 C3238 1.378 . S
C3236 C3240 1.350 . S
C3237 C3240 1.463 . S
C3237 C3242 1.350 . S
C3237 N3245 1.427 . S
C3238 H3229 0.930 . S
C3238 C3236 1.378 . S
C3238 C3239 1.367 . S
C3239 C3238 1.367 . S
C3239 C3241 1.433 . S
C3240 C3236 1.350 . S
C3240 C3237 1.463 . S
C3240 N3244 1.427 . S
C3241 H3231 0.929 . S
C3241 C3239 1.433 . S
C3241 N3244 1.384 . S
C3242 H3233 0.929 . S
C3242 C3234 1.378 . S
C3242 C3237 1.350 . S
C3243 H3230 0.929 . S
C3243 C3235 1.433 . S
C3243 N3245 1.384 . S
N3244 C3240 1.427 . S
N3244 C3241 1.384 . S
N3245 C3237 1.427 . S
N3245 C3243 1.384 . S
H3246 C3252 0.930 . S
H3247 C3256 0.930 . S
H3248 C3261 0.929 . S
H3249 C3259 0.929 . S
H3250 C3254 0.929 . S
H3251 C3260 0.929 . S
C3252 H3246 0.930 . S
C3252 C3253 1.367 . S
C3252 C3260 1.378 . S
C3253 C3252 1.367 . S
C3253 C3261 1.433 . S
C3254 H3250 0.929 . S
C3254 C3256 1.378 . S
C3254 C3258 1.350 . S
C3255 C3258 1.463 . S
C3255 C3260 1.350 . S
C3255 N3263 1.427 . S
C3256 H3247 0.930 . S
C3256 C3254 1.378 . S
C3256 C3257 1.367 . S
C3257 C3256 1.367 . S
C3257 C3259 1.433 . S
C3258 C3254 1.350 . S
C3258 C3255 1.463 . S
C3258 N3262 1.427 . S
C3259 H3249 0.929 . S
C3259 C3257 1.433 . S
C3259 N3262 1.384 . S
C3260 H3251 0.929 . S
C3260 C3252 1.378 . S
C3260 C3255 1.350 . S
C3261 H3248 0.929 . S
C3261 C3253 1.433 . S
C3261 N3263 1.384 . S
N3262 C3258 1.427 . S
N3262 C3259 1.384 . S
N3263 C3255 1.427 . S
N3263 C3261 1.384 . S
H3264 C3270 0.930 . S
H3265 C3274 0.930 . S
H3266 C3279 0.929 . S
H3267 C3277 0.929 . S
H3268 C3272 0.929 . S
H3269 C3278 0.929 . S
C3270 H3264 0.930 . S
C3270 C3271 1.367 . S
C3270 C3278 1.378 . S
C3271 C3270 1.367 . S
C3271 C3279 1.433 . S
C3272 H3268 0.929 . S
C3272 C3274 1.378 . S
C3272 C3276 1.350 . S
C3273 C3276 1.463 . S
C3273 C3278 1.350 . S
C3273 N3281 1.427 . S
C3274 H3265 0.930 . S
C3274 C3272 1.378 . S
C3274 C3275 1.367 . S
C3275 C3274 1.367 . S
C3275 C3277 1.433 . S
C3276 C3272 1.350 . S
C3276 C3273 1.463 . S
C3276 N3280 1.427 . S
C3277 H3267 0.929 . S
C3277 C3275 1.433 . S
C3277 N3280 1.384 . S
C3278 H3269 0.929 . S
C3278 C3270 1.378 . S
C3278 C3273 1.350 . S
C3279 H3266 0.929 . S
C3279 C3271 1.433 . S
C3279 N3281 1.384 . S
N3280 C3276 1.427 . S
N3280 C3277 1.384 . S
N3281 C3273 1.427 . S
N3281 C3279 1.384 . S
H3282 C3288 0.930 . S
H3283 C3292 0.930 . S
H3284 C3297 0.929 . S
H3285 C3295 0.929 . S
H3286 C3290 0.929 . S
H3287 C3296 0.929 . S
C3288 H3282 0.930 . S
C3288 C3289 1.367 . S
C3288 C3296 1.378 . S
C3289 C3288 1.367 . S
C3289 C3297 1.433 . S
C3290 H3286 0.929 . S
C3290 C3292 1.378 . S
C3290 C3294 1.350 . S
C3291 C3294 1.463 . S
C3291 C3296 1.350 . S
C3291 N3299 1.427 . S
C3292 H3283 0.930 . S
C3292 C3290 1.378 . S
C3292 C3293 1.367 . S
C3293 C3292 1.367 . S
C3293 C3295 1.433 . S
C3294 C3290 1.350 . S
C3294 C3291 1.463 . S
C3294 N3298 1.427 . S
C3295 H3285 0.929 . S
C3295 C3293 1.433 . S
C3295 N3298 1.384 . S
C3296 H3287 0.929 . S
C3296 C3288 1.378 . S
C3296 C3291 1.350 . S
C3297 H3284 0.929 . S
C3297 C3289 1.433 . S
C3297 N3299 1.384 . S
N3298 C3294 1.427 . S
N3298 C3295 1.384 . S
N3299 C3291 1.427 . S
N3299 C3297 1.384 . S
H3300 C3306 0.930 . S
H3301 C3310 0.930 . S
H3302 C3315 0.929 . S
H3303 C3313 0.929 . S
H3304 C3308 0.929 . S
H3305 C3314 0.929 . S
C3306 H3300 0.930 . S
C3306 C3307 1.367 . S
C3306 C3314 1.378 . S
C3307 C3306 1.367 . S
C3307 C3315 1.433 . S
C3308 H3304 0.929 . S
C3308 C3310 1.378 . S
C3308 C3312 1.350 . S
C3309 C3312 1.463 . S
C3309 C3314 1.350 . S
C3309 N3317 1.427 . S
C3310 H3301 0.930 . S
C3310 C3308 1.378 . S
C3310 C3311 1.367 . S
C3311 C3310 1.367 . S
C3311 C3313 1.433 . S
C3312 C3308 1.350 . S
C3312 C3309 1.463 . S
C3312 N3316 1.427 . S
C3313 H3303 0.929 . S
C3313 C3311 1.433 . S
C3313 N3316 1.384 . S
C3314 H3305 0.929 . S
C3314 C3306 1.378 . S
C3314 C3309 1.350 . S
C3315 H3302 0.929 . S
C3315 C3307 1.433 . S
C3315 N3317 1.384 . S
N3316 C3312 1.427 . S
N3316 C3313 1.384 . S
N3317 C3309 1.427 . S
N3317 C3315 1.384 . S
H3318 C3324 0.930 . S
H3319 C3328 0.930 . S
H3320 C3333 0.929 . S
H3321 C3331 0.929 . S
H3322 C3326 0.929 . S
H3323 C3332 0.929 . S
C3324 H3318 0.930 . S
C3324 C3325 1.367 . S
C3324 C3332 1.378 . S
C3325 C3324 1.367 . S
C3325 C3333 1.433 . S
C3326 H3322 0.929 . S
C3326 C3328 1.378 . S
C3326 C3330 1.350 . S
C3327 C3330 1.463 . S
C3327 C3332 1.350 . S
C3327 N3335 1.427 . S
C3328 H3319 0.930 . S
C3328 C3326 1.378 . S
C3328 C3329 1.367 . S
C3329 C3328 1.367 . S
C3329 C3331 1.433 . S
C3330 C3326 1.350 . S
C3330 C3327 1.463 . S
C3330 N3334 1.427 . S
C3331 H3321 0.929 . S
C3331 C3329 1.433 . S
C3331 N3334 1.384 . S
C3332 H3323 0.929 . S
C3332 C3324 1.378 . S
C3332 C3327 1.350 . S
C3333 H3320 0.929 . S
C3333 C3325 1.433 . S
C3333 N3335 1.384 . S
N3334 C3330 1.427 . S
N3334 C3331 1.384 . S
N3335 C3327 1.427 . S
N3335 C3333 1.384 . S
H3336 C3342 0.930 . S
H3337 C3346 0.930 . S
H3338 C3351 0.929 . S
H3339 C3349 0.929 . S
H3340 C3344 0.929 . S
H3341 C3350 0.929 . S
C3342 H3336 0.930 . S
C3342 C3343 1.367 . S
C3342 C3350 1.378 . S
C3343 C3342 1.367 . S
C3343 C3351 1.433 . S
C3344 H3340 0.929 . S
C3344 C3346 1.378 . S
C3344 C3348 1.350 . S
C3345 C3348 1.463 . S
C3345 C3350 1.350 . S
C3345 N3353 1.427 . S
C3346 H3337 0.930 . S
C3346 C3344 1.378 . S
C3346 C3347 1.367 . S
C3347 C3346 1.367 . S
C3347 C3349 1.433 . S
C3348 C3344 1.350 . S
C3348 C3345 1.463 . S
C3348 N3352 1.427 . S
C3349 H3339 0.929 . S
C3349 C3347 1.433 . S
C3349 N3352 1.384 . S
C3350 H3341 0.929 . S
C3350 C3342 1.378 . S
C3350 C3345 1.350 . S
C3351 H3338 0.929 . S
C3351 C3343 1.433 . S
C3351 N3353 1.384 . S
N3352 C3348 1.427 . S
N3352 C3349 1.384 . S
N3353 C3345 1.427 . S
N3353 C3351 1.384 . S
H3354 C3360 0.930 . S
H3355 C3364 0.930 . S
H3356 C3369 0.929 . S
H3357 C3367 0.929 . S
H3358 C3362 0.929 . S
H3359 C3368 0.929 . S
C3360 H3354 0.930 . S
C3360 C3361 1.367 . S
C3360 C3368 1.378 . S
C3361 C3360 1.367 . S
C3361 C3369 1.433 . S
C3362 H3358 0.929 . S
C3362 C3364 1.378 . S
C3362 C3366 1.350 . S
C3363 C3366 1.463 . S
C3363 C3368 1.350 . S
C3363 N3371 1.427 . S
C3364 H3355 0.930 . S
C3364 C3362 1.378 . S
C3364 C3365 1.367 . S
C3365 C3364 1.367 . S
C3365 C3367 1.433 . S
C3366 C3362 1.350 . S
C3366 C3363 1.463 . S
C3366 N3370 1.427 . S
C3367 H3357 0.929 . S
C3367 C3365 1.433 . S
C3367 N3370 1.384 . S
C3368 H3359 0.929 . S
C3368 C3360 1.378 . S
C3368 C3363 1.350 . S
C3369 H3356 0.929 . S
C3369 C3361 1.433 . S
C3369 N3371 1.384 . S
N3370 C3366 1.427 . S
N3370 C3367 1.384 . S
N3371 C3363 1.427 . S
N3371 C3369 1.384 . S
H3372 C3378 0.930 . S
H3373 C3382 0.930 . S
H3374 C3387 0.929 . S
H3375 C3385 0.929 . S
H3376 C3380 0.929 . S
H3377 C3386 0.929 . S
C3378 H3372 0.930 . S
C3378 C3379 1.367 . S
C3378 C3386 1.378 . S
C3379 C3378 1.367 . S
C3379 C3387 1.433 . S
C3380 H3376 0.929 . S
C3380 C3382 1.378 . S
C3380 C3384 1.350 . S
C3381 C3384 1.463 . S
C3381 C3386 1.350 . S
C3381 N3389 1.427 . S
C3382 H3373 0.930 . S
C3382 C3380 1.378 . S
C3382 C3383 1.367 . S
C3383 C3382 1.367 . S
C3383 C3385 1.433 . S
C3384 C3380 1.350 . S
C3384 C3381 1.463 . S
C3384 N3388 1.427 . S
C3385 H3375 0.929 . S
C3385 C3383 1.433 . S
C3385 N3388 1.384 . S
C3386 H3377 0.929 . S
C3386 C3378 1.378 . S
C3386 C3381 1.350 . S
C3387 H3374 0.929 . S
C3387 C3379 1.433 . S
C3387 N3389 1.384 . S
N3388 C3384 1.427 . S
N3388 C3385 1.384 . S
N3389 C3381 1.427 . S
N3389 C3387 1.384 . S
H3390 C3396 0.930 . S
H3391 C3400 0.930 . S
H3392 C3405 0.929 . S
H3393 C3403 0.929 . S
H3394 C3398 0.929 . S
H3395 C3404 0.929 . S
C3396 H3390 0.930 . S
C3396 C3397 1.367 . S
C3396 C3404 1.378 . S
C3397 C3396 1.367 . S
C3397 C3405 1.433 . S
C3398 H3394 0.929 . S
C3398 C3400 1.378 . S
C3398 C3402 1.350 . S
C3399 C3402 1.463 . S
C3399 C3404 1.350 . S
C3399 N3407 1.427 . S
C3400 H3391 0.930 . S
C3400 C3398 1.378 . S
C3400 C3401 1.367 . S
C3401 C3400 1.367 . S
C3401 C3403 1.433 . S
C3402 C3398 1.350 . S
C3402 C3399 1.463 . S
C3402 N3406 1.427 . S
C3403 H3393 0.929 . S
C3403 C3401 1.433 . S
C3403 N3406 1.384 . S
C3404 H3395 0.929 . S
C3404 C3396 1.378 . S
C3404 C3399 1.350 . S
C3405 H3392 0.929 . S
C3405 C3397 1.433 . S
C3405 N3407 1.384 . S
N3406 C3402 1.427 . S
N3406 C3403 1.384 . S
N3407 C3399 1.427 . S
N3407 C3405 1.384 . S
H3408 C3414 0.930 . S
H3409 C3418 0.930 . S
H3410 C3423 0.929 . S
H3411 C3421 0.929 . S
H3412 C3416 0.929 . S
H3413 C3422 0.929 . S
C3414 H3408 0.930 . S
C3414 C3415 1.367 . S
C3414 C3422 1.378 . S
C3415 C3414 1.367 . S
C3415 C3423 1.433 . S
C3416 H3412 0.929 . S
C3416 C3418 1.378 . S
C3416 C3420 1.350 . S
C3417 C3420 1.463 . S
C3417 C3422 1.350 . S
C3417 N3425 1.427 . S
C3418 H3409 0.930 . S
C3418 C3416 1.378 . S
C3418 C3419 1.367 . S
C3419 C3418 1.367 . S
C3419 C3421 1.433 . S
C3420 C3416 1.350 . S
C3420 C3417 1.463 . S
C3420 N3424 1.427 . S
C3421 H3411 0.929 . S
C3421 C3419 1.433 . S
C3421 N3424 1.384 . S
C3422 H3413 0.929 . S
C3422 C3414 1.378 . S
C3422 C3417 1.350 . S
C3423 H3410 0.929 . S
C3423 C3415 1.433 . S
C3423 N3425 1.384 . S
N3424 C3420 1.427 . S
N3424 C3421 1.384 . S
N3425 C3417 1.427 . S
N3425 C3423 1.384 . S
H3426 C3432 0.930 . S
H3427 C3436 0.930 . S
H3428 C3441 0.929 . S
H3429 C3439 0.929 . S
H3430 C3434 0.929 . S
H3431 C3440 0.929 . S
C3432 H3426 0.930 . S
C3432 C3433 1.367 . S
C3432 C3440 1.378 . S
C3433 C3432 1.367 . S
C3433 C3441 1.433 . S
C3434 H3430 0.929 . S
C3434 C3436 1.378 . S
C3434 C3438 1.350 . S
C3435 C3438 1.463 . S
C3435 C3440 1.350 . S
C3435 N3443 1.427 . S
C3436 H3427 0.930 . S
C3436 C3434 1.378 . S
C3436 C3437 1.367 . S
C3437 C3436 1.367 . S
C3437 C3439 1.433 . S
C3438 C3434 1.350 . S
C3438 C3435 1.463 . S
C3438 N3442 1.427 . S
C3439 H3429 0.929 . S
C3439 C3437 1.433 . S
C3439 N3442 1.384 . S
C3440 H3431 0.929 . S
C3440 C3432 1.378 . S
C3440 C3435 1.350 . S
C3441 H3428 0.929 . S
C3441 C3433 1.433 . S
C3441 N3443 1.384 . S
N3442 C3438 1.427 . S
N3442 C3439 1.384 . S
N3443 C3435 1.427 . S
N3443 C3441 1.384 . S
H3444 C3450 0.930 . S
H3445 C3454 0.930 . S
H3446 C3459 0.929 . S
H3447 C3457 0.929 . S
H3448 C3452 0.929 . S
H3449 C3458 0.929 . S
C3450 H3444 0.930 . S
C3450 C3451 1.367 . S
C3450 C3458 1.378 . S
C3451 C3450 1.367 . S
C3451 C3459 1.433 . S
C3452 H3448 0.929 . S
C3452 C3454 1.378 . S
C3452 C3456 1.350 . S
C3453 C3456 1.463 . S
C3453 C3458 1.350 . S
C3453 N3461 1.427 . S
C3454 H3445 0.930 . S
C3454 C3452 1.378 . S
C3454 C3455 1.367 . S
C3455 C3454 1.367 . S
C3455 C3457 1.433 . S
C3456 C3452 1.350 . S
C3456 C3453 1.463 . S
C3456 N3460 1.427 . S
C3457 H3447 0.929 . S
C3457 C3455 1.433 . S
C3457 N3460 1.384 . S
C3458 H3449 0.929 . S
C3458 C3450 1.378 . S
C3458 C3453 1.350 . S
C3459 H3446 0.929 . S
C3459 C3451 1.433 . S
C3459 N3461 1.384 . S
N3460 C3456 1.427 . S
N3460 C3457 1.384 . S
N3461 C3453 1.427 . S
N3461 C3459 1.384 . S
H3462 C3468 0.930 . S
H3463 C3472 0.930 . S
H3464 C3477 0.929 . S
H3465 C3475 0.929 . S
H3466 C3470 0.929 . S
H3467 C3476 0.929 . S
C3468 H3462 0.930 . S
C3468 C3469 1.367 . S
C3468 C3476 1.378 . S
C3469 C3468 1.367 . S
C3469 C3477 1.433 . S
C3470 H3466 0.929 . S
C3470 C3472 1.378 . S
C3470 C3474 1.350 . S
C3471 C3474 1.463 . S
C3471 C3476 1.350 . S
C3471 N3479 1.427 . S
C3472 H3463 0.930 . S
C3472 C3470 1.378 . S
C3472 C3473 1.367 . S
C3473 C3472 1.367 . S
C3473 C3475 1.433 . S
C3474 C3470 1.350 . S
C3474 C3471 1.463 . S
C3474 N3478 1.427 . S
C3475 H3465 0.929 . S
C3475 C3473 1.433 . S
C3475 N3478 1.384 . S
C3476 H3467 0.929 . S
C3476 C3468 1.378 . S
C3476 C3471 1.350 . S
C3477 H3464 0.929 . S
C3477 C3469 1.433 . S
C3477 N3479 1.384 . S
N3478 C3474 1.427 . S
N3478 C3475 1.384 . S
N3479 C3471 1.427 . S
N3479 C3477 1.384 . S
H3480 C3486 0.930 . S
H3481 C3490 0.930 . S
H3482 C3495 0.929 . S
H3483 C3493 0.929 . S
H3484 C3488 0.929 . S
H3485 C3494 0.929 . S
C3486 H3480 0.930 . S
C3486 C3487 1.367 . S
C3486 C3494 1.378 . S
C3487 C3486 1.367 . S
C3487 C3495 1.433 . S
C3488 H3484 0.929 . S
C3488 C3490 1.378 . S
C3488 C3492 1.350 . S
C3489 C3492 1.463 . S
C3489 C3494 1.350 . S
C3489 N3497 1.427 . S
C3490 H3481 0.930 . S
C3490 C3488 1.378 . S
C3490 C3491 1.367 . S
C3491 C3490 1.367 . S
C3491 C3493 1.433 . S
C3492 C3488 1.350 . S
C3492 C3489 1.463 . S
C3492 N3496 1.427 . S
C3493 H3483 0.929 . S
C3493 C3491 1.433 . S
C3493 N3496 1.384 . S
C3494 H3485 0.929 . S
C3494 C3486 1.378 . S
C3494 C3489 1.350 . S
C3495 H3482 0.929 . S
C3495 C3487 1.433 . S
C3495 N3497 1.384 . S
N3496 C3492 1.427 . S
N3496 C3493 1.384 . S
N3497 C3489 1.427 . S
N3497 C3495 1.384 . S
H3498 C3504 0.930 . S
H3499 C3508 0.930 . S
H3500 C3513 0.929 . S
H3501 C3511 0.929 . S
H3502 C3506 0.929 . S
H3503 C3512 0.929 . S
C3504 H3498 0.930 . S
C3504 C3505 1.367 . S
C3504 C3512 1.378 . S
C3505 C3504 1.367 . S
C3505 C3513 1.433 . S
C3506 H3502 0.929 . S
C3506 C3508 1.378 . S
C3506 C3510 1.350 . S
C3507 C3510 1.463 . S
C3507 C3512 1.350 . S
C3507 N3515 1.427 . S
C3508 H3499 0.930 . S
C3508 C3506 1.378 . S
C3508 C3509 1.367 . S
C3509 C3508 1.367 . S
C3509 C3511 1.433 . S
C3510 C3506 1.350 . S
C3510 C3507 1.463 . S
C3510 N3514 1.427 . S
C3511 H3501 0.929 . S
C3511 C3509 1.433 . S
C3511 N3514 1.384 . S
C3512 H3503 0.929 . S
C3512 C3504 1.378 . S
C3512 C3507 1.350 . S
C3513 H3500 0.929 . S
C3513 C3505 1.433 . S
C3513 N3515 1.384 . S
N3514 C3510 1.427 . S
N3514 C3511 1.384 . S
N3515 C3507 1.427 . S
N3515 C3513 1.384 . S
H3516 C3522 0.930 . S
H3517 C3526 0.930 . S
H3518 C3531 0.929 . S
H3519 C3529 0.929 . S
H3520 C3524 0.929 . S
H3521 C3530 0.929 . S
C3522 H3516 0.930 . S
C3522 C3523 1.367 . S
C3522 C3530 1.378 . S
C3523 C3522 1.367 . S
C3523 C3531 1.433 . S
C3524 H3520 0.929 . S
C3524 C3526 1.378 . S
C3524 C3528 1.350 . S
C3525 C3528 1.463 . S
C3525 C3530 1.350 . S
C3525 N3533 1.427 . S
C3526 H3517 0.930 . S
C3526 C3524 1.378 . S
C3526 C3527 1.367 . S
C3527 C3526 1.367 . S
C3527 C3529 1.433 . S
C3528 C3524 1.350 . S
C3528 C3525 1.463 . S
C3528 N3532 1.427 . S
C3529 H3519 0.929 . S
C3529 C3527 1.433 . S
C3529 N3532 1.384 . S
C3530 H3521 0.929 . S
C3530 C3522 1.378 . S
C3530 C3525 1.350 . S
C3531 H3518 0.929 . S
C3531 C3523 1.433 . S
C3531 N3533 1.384 . S
N3532 C3528 1.427 . S
N3532 C3529 1.384 . S
N3533 C3525 1.427 . S
N3533 C3531 1.384 . S
H3534 C3540 0.930 . S
H3535 C3544 0.930 . S
H3536 C3549 0.929 . S
H3537 C3547 0.929 . S
H3538 C3542 0.929 . S
H3539 C3548 0.929 . S
C3540 H3534 0.930 . S
C3540 C3541 1.367 . S
C3540 C3548 1.378 . S
C3541 C3540 1.367 . S
C3541 C3549 1.433 . S
C3542 H3538 0.929 . S
C3542 C3544 1.378 . S
C3542 C3546 1.350 . S
C3543 C3546 1.463 . S
C3543 C3548 1.350 . S
C3543 N3551 1.427 . S
C3544 H3535 0.930 . S
C3544 C3542 1.378 . S
C3544 C3545 1.367 . S
C3545 C3544 1.367 . S
C3545 C3547 1.433 . S
C3546 C3542 1.350 . S
C3546 C3543 1.463 . S
C3546 N3550 1.427 . S
C3547 H3537 0.929 . S
C3547 C3545 1.433 . S
C3547 N3550 1.384 . S
C3548 H3539 0.929 . S
C3548 C3540 1.378 . S
C3548 C3543 1.350 . S
C3549 H3536 0.929 . S
C3549 C3541 1.433 . S
C3549 N3551 1.384 . S
N3550 C3546 1.427 . S
N3550 C3547 1.384 . S
N3551 C3543 1.427 . S
N3551 C3549 1.384 . S
H3552 C3558 0.930 . S
H3553 C3562 0.930 . S
H3554 C3567 0.929 . S
H3555 C3565 0.929 . S
H3556 C3560 0.929 . S
H3557 C3566 0.929 . S
C3558 H3552 0.930 . S
C3558 C3559 1.367 . S
C3558 C3566 1.378 . S
C3559 C3558 1.367 . S
C3559 C3567 1.433 . S
C3560 H3556 0.929 . S
C3560 C3562 1.378 . S
C3560 C3564 1.350 . S
C3561 C3564 1.463 . S
C3561 C3566 1.350 . S
C3561 N3569 1.427 . S
C3562 H3553 0.930 . S
C3562 C3560 1.378 . S
C3562 C3563 1.367 . S
C3563 C3562 1.367 . S
C3563 C3565 1.433 . S
C3564 C3560 1.350 . S
C3564 C3561 1.463 . S
C3564 N3568 1.427 . S
C3565 H3555 0.929 . S
C3565 C3563 1.433 . S
C3565 N3568 1.384 . S
C3566 H3557 0.929 . S
C3566 C3558 1.378 . S
C3566 C3561 1.350 . S
C3567 H3554 0.929 . S
C3567 C3559 1.433 . S
C3567 N3569 1.384 . S
N3568 C3564 1.427 . S
N3568 C3565 1.384 . S
N3569 C3561 1.427 . S
N3569 C3567 1.384 . S
H3570 C3576 0.930 . S
H3571 C3580 0.930 . S
H3572 C3585 0.929 . S
H3573 C3583 0.929 . S
H3574 C3578 0.929 . S
H3575 C3584 0.929 . S
C3576 H3570 0.930 . S
C3576 C3577 1.367 . S
C3576 C3584 1.378 . S
C3577 C3576 1.367 . S
C3577 C3585 1.433 . S
C3578 H3574 0.929 . S
C3578 C3580 1.378 . S
C3578 C3582 1.350 . S
C3579 C3582 1.463 . S
C3579 C3584 1.350 . S
C3579 N3587 1.427 . S
C3580 H3571 0.930 . S
C3580 C3578 1.378 . S
C3580 C3581 1.367 . S
C3581 C3580 1.367 . S
C3581 C3583 1.433 . S
C3582 C3578 1.350 . S
C3582 C3579 1.463 . S
C3582 N3586 1.427 . S
C3583 H3573 0.929 . S
C3583 C3581 1.433 . S
C3583 N3586 1.384 . S
C3584 H3575 0.929 . S
C3584 C3576 1.378 . S
C3584 C3579 1.350 . S
C3585 H3572 0.929 . S
C3585 C3577 1.433 . S
C3585 N3587 1.384 . S
N3586 C3582 1.427 . S
N3586 C3583 1.384 . S
N3587 C3579 1.427 . S
N3587 C3585 1.384 . S
H3588 C3594 0.930 . S
H3589 C3598 0.930 . S
H3590 C3603 0.929 . S
H3591 C3601 0.929 . S
H3592 C3596 0.929 . S
H3593 C3602 0.929 . S
C3594 H3588 0.930 . S
C3594 C3595 1.367 . S
C3594 C3602 1.378 . S
C3595 C3594 1.367 . S
C3595 C3603 1.433 . S
C3596 H3592 0.929 . S
C3596 C3598 1.378 . S
C3596 C3600 1.350 . S
C3597 C3600 1.463 . S
C3597 C3602 1.350 . S
C3597 N3605 1.427 . S
C3598 H3589 0.930 . S
C3598 C3596 1.378 . S
C3598 C3599 1.367 . S
C3599 C3598 1.367 . S
C3599 C3601 1.433 . S
C3600 C3596 1.350 . S
C3600 C3597 1.463 . S
C3600 N3604 1.427 . S
C3601 H3591 0.929 . S
C3601 C3599 1.433 . S
C3601 N3604 1.384 . S
C3602 H3593 0.929 . S
C3602 C3594 1.378 . S
C3602 C3597 1.350 . S
C3603 H3590 0.929 . S
C3603 C3595 1.433 . S
C3603 N3605 1.384 . S
N3604 C3600 1.427 . S
N3604 C3601 1.384 . S
N3605 C3597 1.427 . S
N3605 C3603 1.384 . S
H3606 C3612 0.930 . S
H3607 C3616 0.930 . S
H3608 C3621 0.929 . S
H3609 C3619 0.929 . S
H3610 C3614 0.929 . S
H3611 C3620 0.929 . S
C3612 H3606 0.930 . S
C3612 C3613 1.367 . S
C3612 C3620 1.378 . S
C3613 C3612 1.367 . S
C3613 C3621 1.433 . S
C3614 H3610 0.929 . S
C3614 C3616 1.378 . S
C3614 C3618 1.350 . S
C3615 C3618 1.463 . S
C3615 C3620 1.350 . S
C3615 N3623 1.427 . S
C3616 H3607 0.930 . S
C3616 C3614 1.378 . S
C3616 C3617 1.367 . S
C3617 C3616 1.367 . S
C3617 C3619 1.433 . S
C3618 C3614 1.350 . S
C3618 C3615 1.463 . S
C3618 N3622 1.427 . S
C3619 H3609 0.929 . S
C3619 C3617 1.433 . S
C3619 N3622 1.384 . S
C3620 H3611 0.929 . S
C3620 C3612 1.378 . S
C3620 C3615 1.350 . S
C3621 H3608 0.929 . S
C3621 C3613 1.433 . S
C3621 N3623 1.384 . S
N3622 C3618 1.427 . S
N3622 C3619 1.384 . S
N3623 C3615 1.427 . S
N3623 C3621 1.384 . S
H3624 C3630 0.930 . S
H3625 C3634 0.930 . S
H3626 C3639 0.929 . S
H3627 C3637 0.929 . S
H3628 C3632 0.929 . S
H3629 C3638 0.929 . S
C3630 H3624 0.930 . S
C3630 C3631 1.367 . S
C3630 C3638 1.378 . S
C3631 C3630 1.367 . S
C3631 C3639 1.433 . S
C3632 H3628 0.929 . S
C3632 C3634 1.378 . S
C3632 C3636 1.350 . S
C3633 C3636 1.463 . S
C3633 C3638 1.350 . S
C3633 N3641 1.427 . S
C3634 H3625 0.930 . S
C3634 C3632 1.378 . S
C3634 C3635 1.367 . S
C3635 C3634 1.367 . S
C3635 C3637 1.433 . S
C3636 C3632 1.350 . S
C3636 C3633 1.463 . S
C3636 N3640 1.427 . S
C3637 H3627 0.929 . S
C3637 C3635 1.433 . S
C3637 N3640 1.384 . S
C3638 H3629 0.929 . S
C3638 C3630 1.378 . S
C3638 C3633 1.350 . S
C3639 H3626 0.929 . S
C3639 C3631 1.433 . S
C3639 N3641 1.384 . S
N3640 C3636 1.427 . S
N3640 C3637 1.384 . S
N3641 C3633 1.427 . S
N3641 C3639 1.384 . S
H3642 C3648 0.930 . S
H3643 C3652 0.930 . S
H3644 C3657 0.929 . S
H3645 C3655 0.929 . S
H3646 C3650 0.929 . S
H3647 C3656 0.929 . S
C3648 H3642 0.930 . S
C3648 C3649 1.367 . S
C3648 C3656 1.378 . S
C3649 C3648 1.367 . S
C3649 C3657 1.433 . S
C3650 H3646 0.929 . S
C3650 C3652 1.378 . S
C3650 C3654 1.350 . S
C3651 C3654 1.463 . S
C3651 C3656 1.350 . S
C3651 N3659 1.427 . S
C3652 H3643 0.930 . S
C3652 C3650 1.378 . S
C3652 C3653 1.367 . S
C3653 C3652 1.367 . S
C3653 C3655 1.433 . S
C3654 C3650 1.350 . S
C3654 C3651 1.463 . S
C3654 N3658 1.427 . S
C3655 H3645 0.929 . S
C3655 C3653 1.433 . S
C3655 N3658 1.384 . S
C3656 H3647 0.929 . S
C3656 C3648 1.378 . S
C3656 C3651 1.350 . S
C3657 H3644 0.929 . S
C3657 C3649 1.433 . S
C3657 N3659 1.384 . S
N3658 C3654 1.427 . S
N3658 C3655 1.384 . S
N3659 C3651 1.427 . S
N3659 C3657 1.384 . S
H3660 C3666 0.930 . S
H3661 C3670 0.930 . S
H3662 C3675 0.929 . S
H3663 C3673 0.929 . S
H3664 C3668 0.929 . S
H3665 C3674 0.929 . S
C3666 H3660 0.930 . S
C3666 C3667 1.367 . S
C3666 C3674 1.378 . S
C3667 C3666 1.367 . S
C3667 C3675 1.433 . S
C3668 H3664 0.929 . S
C3668 C3670 1.378 . S
C3668 C3672 1.350 . S
C3669 C3672 1.463 . S
C3669 C3674 1.350 . S
C3669 N3677 1.427 . S
C3670 H3661 0.930 . S
C3670 C3668 1.378 . S
C3670 C3671 1.367 . S
C3671 C3670 1.367 . S
C3671 C3673 1.433 . S
C3672 C3668 1.350 . S
C3672 C3669 1.463 . S
C3672 N3676 1.427 . S
C3673 H3663 0.929 . S
C3673 C3671 1.433 . S
C3673 N3676 1.384 . S
C3674 H3665 0.929 . S
C3674 C3666 1.378 . S
C3674 C3669 1.350 . S
C3675 H3662 0.929 . S
C3675 C3667 1.433 . S
C3675 N3677 1.384 . S
N3676 C3672 1.427 . S
N3676 C3673 1.384 . S
N3677 C3669 1.427 . S
N3677 C3675 1.384 . S
H3678 C3684 0.930 . S
H3679 C3688 0.930 . S
H3680 C3693 0.929 . S
H3681 C3691 0.929 . S
H3682 C3686 0.929 . S
H3683 C3692 0.929 . S
C3684 H3678 0.930 . S
C3684 C3685 1.367 . S
C3684 C3692 1.378 . S
C3685 C3684 1.367 . S
C3685 C3693 1.433 . S
C3686 H3682 0.929 . S
C3686 C3688 1.378 . S
C3686 C3690 1.350 . S
C3687 C3690 1.463 . S
C3687 C3692 1.350 . S
C3687 N3695 1.427 . S
C3688 H3679 0.930 . S
C3688 C3686 1.378 . S
C3688 C3689 1.367 . S
C3689 C3688 1.367 . S
C3689 C3691 1.433 . S
C3690 C3686 1.350 . S
C3690 C3687 1.463 . S
C3690 N3694 1.427 . S
C3691 H3681 0.929 . S
C3691 C3689 1.433 . S
C3691 N3694 1.384 . S
C3692 H3683 0.929 . S
C3692 C3684 1.378 . S
C3692 C3687 1.350 . S
C3693 H3680 0.929 . S
C3693 C3685 1.433 . S
C3693 N3695 1.384 . S
N3694 C3690 1.427 . S
N3694 C3691 1.384 . S
N3695 C3687 1.427 . S
N3695 C3693 1.384 . S
H3696 C3702 0.930 . S
H3697 C3706 0.930 . S
H3698 C3711 0.929 . S
H3699 C3709 0.929 . S
H3700 C3704 0.929 . S
H3701 C3710 0.929 . S
C3702 H3696 0.930 . S
C3702 C3703 1.367 . S
C3702 C3710 1.378 . S
C3703 C3702 1.367 . S
C3703 C3711 1.433 . S
C3704 H3700 0.929 . S
C3704 C3706 1.378 . S
C3704 C3708 1.350 . S
C3705 C3708 1.463 . S
C3705 C3710 1.350 . S
C3705 N3713 1.427 . S
C3706 H3697 0.930 . S
C3706 C3704 1.378 . S
C3706 C3707 1.367 . S
C3707 C3706 1.367 . S
C3707 C3709 1.433 . S
C3708 C3704 1.350 . S
C3708 C3705 1.463 . S
C3708 N3712 1.427 . S
C3709 H3699 0.929 . S
C3709 C3707 1.433 . S
C3709 N3712 1.384 . S
C3710 H3701 0.929 . S
C3710 C3702 1.378 . S
C3710 C3705 1.350 . S
C3711 H3698 0.929 . S
C3711 C3703 1.433 . S
C3711 N3713 1.384 . S
N3712 C3708 1.427 . S
N3712 C3709 1.384 . S
N3713 C3705 1.427 . S
N3713 C3711 1.384 . S
H3714 C3720 0.930 . S
H3715 C3724 0.930 . S
H3716 C3729 0.929 . S
H3717 C3727 0.929 . S
H3718 C3722 0.929 . S
H3719 C3728 0.929 . S
C3720 H3714 0.930 . S
C3720 C3721 1.367 . S
C3720 C3728 1.378 . S
C3721 C3720 1.367 . S
C3721 C3729 1.433 . S
C3722 H3718 0.929 . S
C3722 C3724 1.378 . S
C3722 C3726 1.350 . S
C3723 C3726 1.463 . S
C3723 C3728 1.350 . S
C3723 N3731 1.427 . S
C3724 H3715 0.930 . S
C3724 C3722 1.378 . S
C3724 C3725 1.367 . S
C3725 C3724 1.367 . S
C3725 C3727 1.433 . S
C3726 C3722 1.350 . S
C3726 C3723 1.463 . S
C3726 N3730 1.427 . S
C3727 H3717 0.929 . S
C3727 C3725 1.433 . S
C3727 N3730 1.384 . S
C3728 H3719 0.929 . S
C3728 C3720 1.378 . S
C3728 C3723 1.350 . S
C3729 H3716 0.929 . S
C3729 C3721 1.433 . S
C3729 N3731 1.384 . S
N3730 C3726 1.427 . S
N3730 C3727 1.384 . S
N3731 C3723 1.427 . S
N3731 C3729 1.384 . S
H3732 C3738 0.930 . S
H3733 C3742 0.930 . S
H3734 C3747 0.929 . S
H3735 C3745 0.929 . S
H3736 C3740 0.929 . S
H3737 C3746 0.929 . S
C3738 H3732 0.930 . S
C3738 C3739 1.367 . S
C3738 C3746 1.378 . S
C3739 C3738 1.367 . S
C3739 C3747 1.433 . S
C3740 H3736 0.929 . S
C3740 C3742 1.378 . S
C3740 C3744 1.350 . S
C3741 C3744 1.463 . S
C3741 C3746 1.350 . S
C3741 N3749 1.427 . S
C3742 H3733 0.930 . S
C3742 C3740 1.378 . S
C3742 C3743 1.367 . S
C3743 C3742 1.367 . S
C3743 C3745 1.433 . S
C3744 C3740 1.350 . S
C3744 C3741 1.463 . S
C3744 N3748 1.427 . S
C3745 H3735 0.929 . S
C3745 C3743 1.433 . S
C3745 N3748 1.384 . S
C3746 H3737 0.929 . S
C3746 C3738 1.378 . S
C3746 C3741 1.350 . S
C3747 H3734 0.929 . S
C3747 C3739 1.433 . S
C3747 N3749 1.384 . S
N3748 C3744 1.427 . S
N3748 C3745 1.384 . S
N3749 C3741 1.427 . S
N3749 C3747 1.384 . S
H3750 C3756 0.930 . S
H3751 C3760 0.930 . S
H3752 C3765 0.929 . S
H3753 C3763 0.929 . S
H3754 C3758 0.929 . S
H3755 C3764 0.929 . S
C3756 H3750 0.930 . S
C3756 C3757 1.367 . S
C3756 C3764 1.378 . S
C3757 C3756 1.367 . S
C3757 C3765 1.433 . S
C3758 H3754 0.929 . S
C3758 C3760 1.378 . S
C3758 C3762 1.350 . S
C3759 C3762 1.463 . S
C3759 C3764 1.350 . S
C3759 N3767 1.427 . S
C3760 H3751 0.930 . S
C3760 C3758 1.378 . S
C3760 C3761 1.367 . S
C3761 C3760 1.367 . S
C3761 C3763 1.433 . S
C3762 C3758 1.350 . S
C3762 C3759 1.463 . S
C3762 N3766 1.427 . S
C3763 H3753 0.929 . S
C3763 C3761 1.433 . S
C3763 N3766 1.384 . S
C3764 H3755 0.929 . S
C3764 C3756 1.378 . S
C3764 C3759 1.350 . S
C3765 H3752 0.929 . S
C3765 C3757 1.433 . S
C3765 N3767 1.384 . S
N3766 C3762 1.427 . S
N3766 C3763 1.384 . S
N3767 C3759 1.427 . S
N3767 C3765 1.384 . S
H3768 C3774 0.930 . S
H3769 C3778 0.930 . S
H3770 C3783 0.929 . S
H3771 C3781 0.929 . S
H3772 C3776 0.929 . S
H3773 C3782 0.929 . S
C3774 H3768 0.930 . S
C3774 C3775 1.367 . S
C3774 C3782 1.378 . S
C3775 C3774 1.367 . S
C3775 C3783 1.433 . S
C3776 H3772 0.929 . S
C3776 C3778 1.378 . S
C3776 C3780 1.350 . S
C3777 C3780 1.463 . S
C3777 C3782 1.350 . S
C3777 N3785 1.427 . S
C3778 H3769 0.930 . S
C3778 C3776 1.378 . S
C3778 C3779 1.367 . S
C3779 C3778 1.367 . S
C3779 C3781 1.433 . S
C3780 C3776 1.350 . S
C3780 C3777 1.463 . S
C3780 N3784 1.427 . S
C3781 H3771 0.929 . S
C3781 C3779 1.433 . S
C3781 N3784 1.384 . S
C3782 H3773 0.929 . S
C3782 C3774 1.378 . S
C3782 C3777 1.350 . S
C3783 H3770 0.929 . S
C3783 C3775 1.433 . S
C3783 N3785 1.384 . S
N3784 C3780 1.427 . S
N3784 C3781 1.384 . S
N3785 C3777 1.427 . S
N3785 C3783 1.384 . S
H3786 C3792 0.930 . S
H3787 C3796 0.930 . S
H3788 C3801 0.929 . S
H3789 C3799 0.929 . S
H3790 C3794 0.929 . S
H3791 C3800 0.929 . S
C3792 H3786 0.930 . S
C3792 C3793 1.367 . S
C3792 C3800 1.378 . S
C3793 C3792 1.367 . S
C3793 C3801 1.433 . S
C3794 H3790 0.929 . S
C3794 C3796 1.378 . S
C3794 C3798 1.350 . S
C3795 C3798 1.463 . S
C3795 C3800 1.350 . S
C3795 N3803 1.427 . S
C3796 H3787 0.930 . S
C3796 C3794 1.378 . S
C3796 C3797 1.367 . S
C3797 C3796 1.367 . S
C3797 C3799 1.433 . S
C3798 C3794 1.350 . S
C3798 C3795 1.463 . S
C3798 N3802 1.427 . S
C3799 H3789 0.929 . S
C3799 C3797 1.433 . S
C3799 N3802 1.384 . S
C3800 H3791 0.929 . S
C3800 C3792 1.378 . S
C3800 C3795 1.350 . S
C3801 H3788 0.929 . S
C3801 C3793 1.433 . S
C3801 N3803 1.384 . S
N3802 C3798 1.427 . S
N3802 C3799 1.384 . S
N3803 C3795 1.427 . S
N3803 C3801 1.384 . S
H3804 C3810 0.930 . S
H3805 C3814 0.930 . S
H3806 C3819 0.929 . S
H3807 C3817 0.929 . S
H3808 C3812 0.929 . S
H3809 C3818 0.929 . S
C3810 H3804 0.930 . S
C3810 C3811 1.367 . S
C3810 C3818 1.378 . S
C3811 C3810 1.367 . S
C3811 C3819 1.433 . S
C3812 H3808 0.929 . S
C3812 C3814 1.378 . S
C3812 C3816 1.350 . S
C3813 C3816 1.463 . S
C3813 C3818 1.350 . S
C3813 N3821 1.427 . S
C3814 H3805 0.930 . S
C3814 C3812 1.378 . S
C3814 C3815 1.367 . S
C3815 C3814 1.367 . S
C3815 C3817 1.433 . S
C3816 C3812 1.350 . S
C3816 C3813 1.463 . S
C3816 N3820 1.427 . S
C3817 H3807 0.929 . S
C3817 C3815 1.433 . S
C3817 N3820 1.384 . S
C3818 H3809 0.929 . S
C3818 C3810 1.378 . S
C3818 C3813 1.350 . S
C3819 H3806 0.929 . S
C3819 C3811 1.433 . S
C3819 N3821 1.384 . S
N3820 C3816 1.427 . S
N3820 C3817 1.384 . S
N3821 C3813 1.427 . S
N3821 C3819 1.384 . S
H3822 C3828 0.930 . S
H3823 C3832 0.930 . S
H3824 C3837 0.929 . S
H3825 C3835 0.929 . S
H3826 C3830 0.929 . S
H3827 C3836 0.929 . S
C3828 H3822 0.930 . S
C3828 C3829 1.367 . S
C3828 C3836 1.378 . S
C3829 C3828 1.367 . S
C3829 C3837 1.433 . S
C3830 H3826 0.929 . S
C3830 C3832 1.378 . S
C3830 C3834 1.350 . S
C3831 C3834 1.463 . S
C3831 C3836 1.350 . S
C3831 N3839 1.427 . S
C3832 H3823 0.930 . S
C3832 C3830 1.378 . S
C3832 C3833 1.367 . S
C3833 C3832 1.367 . S
C3833 C3835 1.433 . S
C3834 C3830 1.350 . S
C3834 C3831 1.463 . S
C3834 N3838 1.427 . S
C3835 H3825 0.929 . S
C3835 C3833 1.433 . S
C3835 N3838 1.384 . S
C3836 H3827 0.929 . S
C3836 C3828 1.378 . S
C3836 C3831 1.350 . S
C3837 H3824 0.929 . S
C3837 C3829 1.433 . S
C3837 N3839 1.384 . S
N3838 C3834 1.427 . S
N3838 C3835 1.384 . S
N3839 C3831 1.427 . S
N3839 C3837 1.384 . S
H3840 C3846 0.930 . S
H3841 C3850 0.930 . S
H3842 C3855 0.929 . S
H3843 C3853 0.929 . S
H3844 C3848 0.929 . S
H3845 C3854 0.929 . S
C3846 H3840 0.930 . S
C3846 C3847 1.367 . S
C3846 C3854 1.378 . S
C3847 C3846 1.367 . S
C3847 C3855 1.433 . S
C3848 H3844 0.929 . S
C3848 C3850 1.378 . S
C3848 C3852 1.350 . S
C3849 C3852 1.463 . S
C3849 C3854 1.350 . S
C3849 N3857 1.427 . S
C3850 H3841 0.930 . S
C3850 C3848 1.378 . S
C3850 C3851 1.367 . S
C3851 C3850 1.367 . S
C3851 C3853 1.433 . S
C3852 C3848 1.350 . S
C3852 C3849 1.463 . S
C3852 N3856 1.427 . S
C3853 H3843 0.929 . S
C3853 C3851 1.433 . S
C3853 N3856 1.384 . S
C3854 H3845 0.929 . S
C3854 C3846 1.378 . S
C3854 C3849 1.350 . S
C3855 H3842 0.929 . S
C3855 C3847 1.433 . S
C3855 N3857 1.384 . S
N3856 C3852 1.427 . S
N3856 C3853 1.384 . S
N3857 C3849 1.427 . S
N3857 C3855 1.384 . S
H3858 C3864 0.930 . S
H3859 C3868 0.930 . S
H3860 C3873 0.929 . S
H3861 C3871 0.929 . S
H3862 C3866 0.929 . S
H3863 C3872 0.929 . S
C3864 H3858 0.930 . S
C3864 C3865 1.367 . S
C3864 C3872 1.378 . S
C3865 C3864 1.367 . S
C3865 C3873 1.433 . S
C3866 H3862 0.929 . S
C3866 C3868 1.378 . S
C3866 C3870 1.350 . S
C3867 C3870 1.463 . S
C3867 C3872 1.350 . S
C3867 N3875 1.427 . S
C3868 H3859 0.930 . S
C3868 C3866 1.378 . S
C3868 C3869 1.367 . S
C3869 C3868 1.367 . S
C3869 C3871 1.433 . S
C3870 C3866 1.350 . S
C3870 C3867 1.463 . S
C3870 N3874 1.427 . S
C3871 H3861 0.929 . S
C3871 C3869 1.433 . S
C3871 N3874 1.384 . S
C3872 H3863 0.929 . S
C3872 C3864 1.378 . S
C3872 C3867 1.350 . S
C3873 H3860 0.929 . S
C3873 C3865 1.433 . S
C3873 N3875 1.384 . S
N3874 C3870 1.427 . S
N3874 C3871 1.384 . S
N3875 C3867 1.427 . S
N3875 C3873 1.384 . S
H3876 C3882 0.930 . S
H3877 C3886 0.930 . S
H3878 C3891 0.929 . S
H3879 C3889 0.929 . S
H3880 C3884 0.929 . S
H3881 C3890 0.929 . S
C3882 H3876 0.930 . S
C3882 C3883 1.367 . S
C3882 C3890 1.378 . S
C3883 C3882 1.367 . S
C3883 C3891 1.433 . S
C3884 H3880 0.929 . S
C3884 C3886 1.378 . S
C3884 C3888 1.350 . S
C3885 C3888 1.463 . S
C3885 C3890 1.350 . S
C3885 N3893 1.427 . S
C3886 H3877 0.930 . S
C3886 C3884 1.378 . S
C3886 C3887 1.367 . S
C3887 C3886 1.367 . S
C3887 C3889 1.433 . S
C3888 C3884 1.350 . S
C3888 C3885 1.463 . S
C3888 N3892 1.427 . S
C3889 H3879 0.929 . S
C3889 C3887 1.433 . S
C3889 N3892 1.384 . S
C3890 H3881 0.929 . S
C3890 C3882 1.378 . S
C3890 C3885 1.350 . S
C3891 H3878 0.929 . S
C3891 C3883 1.433 . S
C3891 N3893 1.384 . S
N3892 C3888 1.427 . S
N3892 C3889 1.384 . S
N3893 C3885 1.427 . S
N3893 C3891 1.384 . S
H3894 C3900 0.930 . S
H3895 C3904 0.930 . S
H3896 C3909 0.929 . S
H3897 C3907 0.929 . S
H3898 C3902 0.929 . S
H3899 C3908 0.929 . S
C3900 H3894 0.930 . S
C3900 C3901 1.367 . S
C3900 C3908 1.378 . S
C3901 C3900 1.367 . S
C3901 C3909 1.433 . S
C3902 H3898 0.929 . S
C3902 C3904 1.378 . S
C3902 C3906 1.350 . S
C3903 C3906 1.463 . S
C3903 C3908 1.350 . S
C3903 N3911 1.427 . S
C3904 H3895 0.930 . S
C3904 C3902 1.378 . S
C3904 C3905 1.367 . S
C3905 C3904 1.367 . S
C3905 C3907 1.433 . S
C3906 C3902 1.350 . S
C3906 C3903 1.463 . S
C3906 N3910 1.427 . S
C3907 H3897 0.929 . S
C3907 C3905 1.433 . S
C3907 N3910 1.384 . S
C3908 H3899 0.929 . S
C3908 C3900 1.378 . S
C3908 C3903 1.350 . S
C3909 H3896 0.929 . S
C3909 C3901 1.433 . S
C3909 N3911 1.384 . S
N3910 C3906 1.427 . S
N3910 C3907 1.384 . S
N3911 C3903 1.427 . S
N3911 C3909 1.384 . S
H3912 C3918 0.930 . S
H3913 C3922 0.930 . S
H3914 C3927 0.929 . S
H3915 C3925 0.929 . S
H3916 C3920 0.929 . S
H3917 C3926 0.929 . S
C3918 H3912 0.930 . S
C3918 C3919 1.367 . S
C3918 C3926 1.378 . S
C3919 C3918 1.367 . S
C3919 C3927 1.433 . S
C3920 H3916 0.929 . S
C3920 C3922 1.378 . S
C3920 C3924 1.350 . S
C3921 C3924 1.463 . S
C3921 C3926 1.350 . S
C3921 N3929 1.427 . S
C3922 H3913 0.930 . S
C3922 C3920 1.378 . S
C3922 C3923 1.367 . S
C3923 C3922 1.367 . S
C3923 C3925 1.433 . S
C3924 C3920 1.350 . S
C3924 C3921 1.463 . S
C3924 N3928 1.427 . S
C3925 H3915 0.929 . S
C3925 C3923 1.433 . S
C3925 N3928 1.384 . S
C3926 H3917 0.929 . S
C3926 C3918 1.378 . S
C3926 C3921 1.350 . S
C3927 H3914 0.929 . S
C3927 C3919 1.433 . S
C3927 N3929 1.384 . S
N3928 C3924 1.427 . S
N3928 C3925 1.384 . S
N3929 C3921 1.427 . S
N3929 C3927 1.384 . S
H3930 C3936 0.930 . S
H3931 C3940 0.930 . S
H3932 C3945 0.929 . S
H3933 C3943 0.929 . S
H3934 C3938 0.929 . S
H3935 C3944 0.929 . S
C3936 H3930 0.930 . S
C3936 C3937 1.367 . S
C3936 C3944 1.378 . S
C3937 C3936 1.367 . S
C3937 C3945 1.433 . S
C3938 H3934 0.929 . S
C3938 C3940 1.378 . S
C3938 C3942 1.350 . S
C3939 C3942 1.463 . S
C3939 C3944 1.350 . S
C3939 N3947 1.427 . S
C3940 H3931 0.930 . S
C3940 C3938 1.378 . S
C3940 C3941 1.367 . S
C3941 C3940 1.367 . S
C3941 C3943 1.433 . S
C3942 C3938 1.350 . S
C3942 C3939 1.463 . S
C3942 N3946 1.427 . S
C3943 H3933 0.929 . S
C3943 C3941 1.433 . S
C3943 N3946 1.384 . S
C3944 H3935 0.929 . S
C3944 C3936 1.378 . S
C3944 C3939 1.350 . S
C3945 H3932 0.929 . S
C3945 C3937 1.433 . S
C3945 N3947 1.384 . S
N3946 C3942 1.427 . S
N3946 C3943 1.384 . S
N3947 C3939 1.427 . S
N3947 C3945 1.384 . S
H3948 C3954 0.930 . S
H3949 C3958 0.930 . S
H3950 C3963 0.929 . S
H3951 C3961 0.929 . S
H3952 C3956 0.929 . S
H3953 C3962 0.929 . S
C3954 H3948 0.930 . S
C3954 C3955 1.367 . S
C3954 C3962 1.378 . S
C3955 C3954 1.367 . S
C3955 C3963 1.433 . S
C3956 H3952 0.929 . S
C3956 C3958 1.378 . S
C3956 C3960 1.350 . S
C3957 C3960 1.463 . S
C3957 C3962 1.350 . S
C3957 N3965 1.427 . S
C3958 H3949 0.930 . S
C3958 C3956 1.378 . S
C3958 C3959 1.367 . S
C3959 C3958 1.367 . S
C3959 C3961 1.433 . S
C3960 C3956 1.350 . S
C3960 C3957 1.463 . S
C3960 N3964 1.427 . S
C3961 H3951 0.929 . S
C3961 C3959 1.433 . S
C3961 N3964 1.384 . S
C3962 H3953 0.929 . S
C3962 C3954 1.378 . S
C3962 C3957 1.350 . S
C3963 H3950 0.929 . S
C3963 C3955 1.433 . S
C3963 N3965 1.384 . S
N3964 C3960 1.427 . S
N3964 C3961 1.384 . S
N3965 C3957 1.427 . S
N3965 C3963 1.384 . S
H3966 C3972 0.930 . S
H3967 C3976 0.930 . S
H3968 C3981 0.929 . S
H3969 C3979 0.929 . S
H3970 C3974 0.929 . S
H3971 C3980 0.929 . S
C3972 H3966 0.930 . S
C3972 C3973 1.367 . S
C3972 C3980 1.378 . S
C3973 C3972 1.367 . S
C3973 C3981 1.433 . S
C3974 H3970 0.929 . S
C3974 C3976 1.378 . S
C3974 C3978 1.350 . S
C3975 C3978 1.463 . S
C3975 C3980 1.350 . S
C3975 N3983 1.427 . S
C3976 H3967 0.930 . S
C3976 C3974 1.378 . S
C3976 C3977 1.367 . S
C3977 C3976 1.367 . S
C3977 C3979 1.433 . S
C3978 C3974 1.350 . S
C3978 C3975 1.463 . S
C3978 N3982 1.427 . S
C3979 H3969 0.929 . S
C3979 C3977 1.433 . S
C3979 N3982 1.384 . S
C3980 H3971 0.929 . S
C3980 C3972 1.378 . S
C3980 C3975 1.350 . S
C3981 H3968 0.929 . S
C3981 C3973 1.433 . S
C3981 N3983 1.384 . S
N3982 C3978 1.427 . S
N3982 C3979 1.384 . S
N3983 C3975 1.427 . S
N3983 C3981 1.384 . S
H3984 C3990 0.930 . S
H3985 C3994 0.930 . S
H3986 C3999 0.929 . S
H3987 C3997 0.929 . S
H3988 C3992 0.929 . S
H3989 C3998 0.929 . S
C3990 H3984 0.930 . S
C3990 C3991 1.367 . S
C3990 C3998 1.378 . S
C3991 C3990 1.367 . S
C3991 C3999 1.433 . S
C3992 H3988 0.929 . S
C3992 C3994 1.378 . S
C3992 C3996 1.350 . S
C3993 C3996 1.463 . S
C3993 C3998 1.350 . S
C3993 N4001 1.427 . S
C3994 H3985 0.930 . S
C3994 C3992 1.378 . S
C3994 C3995 1.367 . S
C3995 C3994 1.367 . S
C3995 C3997 1.433 . S
C3996 C3992 1.350 . S
C3996 C3993 1.463 . S
C3996 N4000 1.427 . S
C3997 H3987 0.929 . S
C3997 C3995 1.433 . S
C3997 N4000 1.384 . S
C3998 H3989 0.929 . S
C3998 C3990 1.378 . S
C3998 C3993 1.350 . S
C3999 H3986 0.929 . S
C3999 C3991 1.433 . S
C3999 N4001 1.384 . S
N4000 C3996 1.427 . S
N4000 C3997 1.384 . S
N4001 C3993 1.427 . S
N4001 C3999 1.384 . S
H4002 C4008 0.930 . S
H4003 C4012 0.930 . S
H4004 C4017 0.929 . S
H4005 C4015 0.929 . S
H4006 C4010 0.929 . S
H4007 C4016 0.929 . S
C4008 H4002 0.930 . S
C4008 C4009 1.367 . S
C4008 C4016 1.378 . S
C4009 C4008 1.367 . S
C4009 C4017 1.433 . S
C4010 H4006 0.929 . S
C4010 C4012 1.378 . S
C4010 C4014 1.350 . S
C4011 C4014 1.463 . S
C4011 C4016 1.350 . S
C4011 N4019 1.427 . S
C4012 H4003 0.930 . S
C4012 C4010 1.378 . S
C4012 C4013 1.367 . S
C4013 C4012 1.367 . S
C4013 C4015 1.433 . S
C4014 C4010 1.350 . S
C4014 C4011 1.463 . S
C4014 N4018 1.427 . S
C4015 H4005 0.929 . S
C4015 C4013 1.433 . S
C4015 N4018 1.384 . S
C4016 H4007 0.929 . S
C4016 C4008 1.378 . S
C4016 C4011 1.350 . S
C4017 H4004 0.929 . S
C4017 C4009 1.433 . S
C4017 N4019 1.384 . S
N4018 C4014 1.427 . S
N4018 C4015 1.384 . S
N4019 C4011 1.427 . S
N4019 C4017 1.384 . S
H4020 C4026 0.930 . S
H4021 C4030 0.930 . S
H4022 C4035 0.929 . S
H4023 C4033 0.929 . S
H4024 C4028 0.929 . S
H4025 C4034 0.929 . S
C4026 H4020 0.930 . S
C4026 C4027 1.367 . S
C4026 C4034 1.378 . S
C4027 C4026 1.367 . S
C4027 C4035 1.433 . S
C4028 H4024 0.929 . S
C4028 C4030 1.378 . S
C4028 C4032 1.350 . S
C4029 C4032 1.463 . S
C4029 C4034 1.350 . S
C4029 N4037 1.427 . S
C4030 H4021 0.930 . S
C4030 C4028 1.378 . S
C4030 C4031 1.367 . S
C4031 C4030 1.367 . S
C4031 C4033 1.433 . S
C4032 C4028 1.350 . S
C4032 C4029 1.463 . S
C4032 N4036 1.427 . S
C4033 H4023 0.929 . S
C4033 C4031 1.433 . S
C4033 N4036 1.384 . S
C4034 H4025 0.929 . S
C4034 C4026 1.378 . S
C4034 C4029 1.350 . S
C4035 H4022 0.929 . S
C4035 C4027 1.433 . S
C4035 N4037 1.384 . S
N4036 C4032 1.427 . S
N4036 C4033 1.384 . S
N4037 C4029 1.427 . S
N4037 C4035 1.384 . S
H4038 C4044 0.930 . S
H4039 C4048 0.930 . S
H4040 C4053 0.929 . S
H4041 C4051 0.929 . S
H4042 C4046 0.929 . S
H4043 C4052 0.929 . S
C4044 H4038 0.930 . S
C4044 C4045 1.367 . S
C4044 C4052 1.378 . S
C4045 C4044 1.367 . S
C4045 C4053 1.433 . S
C4046 H4042 0.929 . S
C4046 C4048 1.378 . S
C4046 C4050 1.350 . S
C4047 C4050 1.463 . S
C4047 C4052 1.350 . S
C4047 N4055 1.427 . S
C4048 H4039 0.930 . S
C4048 C4046 1.378 . S
C4048 C4049 1.367 . S
C4049 C4048 1.367 . S
C4049 C4051 1.433 . S
C4050 C4046 1.350 . S
C4050 C4047 1.463 . S
C4050 N4054 1.427 . S
C4051 H4041 0.929 . S
C4051 C4049 1.433 . S
C4051 N4054 1.384 . S
C4052 H4043 0.929 . S
C4052 C4044 1.378 . S
C4052 C4047 1.350 . S
C4053 H4040 0.929 . S
C4053 C4045 1.433 . S
C4053 N4055 1.384 . S
N4054 C4050 1.427 . S
N4054 C4051 1.384 . S
N4055 C4047 1.427 . S
N4055 C4053 1.384 . S
H4056 C4062 0.930 . S
H4057 C4066 0.930 . S
H4058 C4071 0.929 . S
H4059 C4069 0.929 . S
H4060 C4064 0.929 . S
H4061 C4070 0.929 . S
C4062 H4056 0.930 . S
C4062 C4063 1.367 . S
C4062 C4070 1.378 . S
C4063 C4062 1.367 . S
C4063 C4071 1.433 . S
C4064 H4060 0.929 . S
C4064 C4066 1.378 . S
C4064 C4068 1.350 . S
C4065 C4068 1.463 . S
C4065 C4070 1.350 . S
C4065 N4073 1.427 . S
C4066 H4057 0.930 . S
C4066 C4064 1.378 . S
C4066 C4067 1.367 . S
C4067 C4066 1.367 . S
C4067 C4069 1.433 . S
C4068 C4064 1.350 . S
C4068 C4065 1.463 . S
C4068 N4072 1.427 . S
C4069 H4059 0.929 . S
C4069 C4067 1.433 . S
C4069 N4072 1.384 . S
C4070 H4061 0.929 . S
C4070 C4062 1.378 . S
C4070 C4065 1.350 . S
C4071 H4058 0.929 . S
C4071 C4063 1.433 . S
C4071 N4073 1.384 . S
N4072 C4068 1.427 . S
N4072 C4069 1.384 . S
N4073 C4065 1.427 . S
N4073 C4071 1.384 . S
H4074 C4080 0.930 . S
H4075 C4084 0.930 . S
H4076 C4089 0.929 . S
H4077 C4087 0.929 . S
H4078 C4082 0.929 . S
H4079 C4088 0.929 . S
C4080 H4074 0.930 . S
C4080 C4081 1.367 . S
C4080 C4088 1.378 . S
C4081 C4080 1.367 . S
C4081 C4089 1.433 . S
C4082 H4078 0.929 . S
C4082 C4084 1.378 . S
C4082 C4086 1.350 . S
C4083 C4086 1.463 . S
C4083 C4088 1.350 . S
C4083 N4091 1.427 . S
C4084 H4075 0.930 . S
C4084 C4082 1.378 . S
C4084 C4085 1.367 . S
C4085 C4084 1.367 . S
C4085 C4087 1.433 . S
C4086 C4082 1.350 . S
C4086 C4083 1.463 . S
C4086 N4090 1.427 . S
C4087 H4077 0.929 . S
C4087 C4085 1.433 . S
C4087 N4090 1.384 . S
C4088 H4079 0.929 . S
C4088 C4080 1.378 . S
C4088 C4083 1.350 . S
C4089 H4076 0.929 . S
C4089 C4081 1.433 . S
C4089 N4091 1.384 . S
N4090 C4086 1.427 . S
N4090 C4087 1.384 . S
N4091 C4083 1.427 . S
N4091 C4089 1.384 . S
H4092 C4098 0.930 . S
H4093 C4102 0.930 . S
H4094 C4107 0.929 . S
H4095 C4105 0.929 . S
H4096 C4100 0.929 . S
H4097 C4106 0.929 . S
C4098 H4092 0.930 . S
C4098 C4099 1.367 . S
C4098 C4106 1.378 . S
C4099 C4098 1.367 . S
C4099 C4107 1.433 . S
C4100 H4096 0.929 . S
C4100 C4102 1.378 . S
C4100 C4104 1.350 . S
C4101 C4104 1.463 . S
C4101 C4106 1.350 . S
C4101 N4109 1.427 . S
C4102 H4093 0.930 . S
C4102 C4100 1.378 . S
C4102 C4103 1.367 . S
C4103 C4102 1.367 . S
C4103 C4105 1.433 . S
C4104 C4100 1.350 . S
C4104 C4101 1.463 . S
C4104 N4108 1.427 . S
C4105 H4095 0.929 . S
C4105 C4103 1.433 . S
C4105 N4108 1.384 . S
C4106 H4097 0.929 . S
C4106 C4098 1.378 . S
C4106 C4101 1.350 . S
C4107 H4094 0.929 . S
C4107 C4099 1.433 . S
C4107 N4109 1.384 . S
N4108 C4104 1.427 . S
N4108 C4105 1.384 . S
N4109 C4101 1.427 . S
N4109 C4107 1.384 . S
H4110 C4116 0.930 . S
H4111 C4120 0.930 . S
H4112 C4125 0.929 . S
H4113 C4123 0.929 . S
H4114 C4118 0.929 . S
H4115 C4124 0.929 . S
C4116 H4110 0.930 . S
C4116 C4117 1.367 . S
C4116 C4124 1.378 . S
C4117 C4116 1.367 . S
C4117 C4125 1.433 . S
C4118 H4114 0.929 . S
C4118 C4120 1.378 . S
C4118 C4122 1.350 . S
C4119 C4122 1.463 . S
C4119 C4124 1.350 . S
C4119 N4127 1.427 . S
C4120 H4111 0.930 . S
C4120 C4118 1.378 . S
C4120 C4121 1.367 . S
C4121 C4120 1.367 . S
C4121 C4123 1.433 . S
C4122 C4118 1.350 . S
C4122 C4119 1.463 . S
C4122 N4126 1.427 . S
C4123 H4113 0.929 . S
C4123 C4121 1.433 . S
C4123 N4126 1.384 . S
C4124 H4115 0.929 . S
C4124 C4116 1.378 . S
C4124 C4119 1.350 . S
C4125 H4112 0.929 . S
C4125 C4117 1.433 . S
C4125 N4127 1.384 . S
N4126 C4122 1.427 . S
N4126 C4123 1.384 . S
N4127 C4119 1.427 . S
N4127 C4125 1.384 . S
H4128 C4134 0.930 . S
H4129 C4138 0.930 . S
H4130 C4143 0.929 . S
H4131 C4141 0.929 . S
H4132 C4136 0.929 . S
H4133 C4142 0.929 . S
C4134 H4128 0.930 . S
C4134 C4135 1.367 . S
C4134 C4142 1.378 . S
C4135 C4134 1.367 . S
C4135 C4143 1.433 . S
C4136 H4132 0.929 . S
C4136 C4138 1.378 . S
C4136 C4140 1.350 . S
C4137 C4140 1.463 1_554 S
C4137 C4142 1.350 . S
C4137 N4145 1.427 . S
C4138 H4129 0.930 . S
C4138 C4136 1.378 . S
C4138 C4139 1.367 . S
C4139 C4138 1.367 . S
C4139 C4141 1.433 . S
C4140 C4136 1.350 . S
C4140 C4137 1.463 1_556 S
C4140 N4144 1.427 . S
C4141 H4131 0.929 . S
C4141 C4139 1.433 . S
C4141 N4144 1.384 . S
C4142 H4133 0.929 . S
C4142 C4134 1.378 . S
C4142 C4137 1.350 . S
C4143 H4130 0.929 . S
C4143 C4135 1.433 . S
C4143 N4145 1.384 . S
N4144 C4140 1.427 . S
N4144 C4141 1.384 . S
N4145 C4137 1.427 . S
N4145 C4143 1.384 . S
H4146 C4152 0.930 . S
H4147 C4156 0.930 . S
H4148 C4161 0.929 . S
H4149 C4159 0.929 . S
H4150 C4154 0.929 . S
H4151 C4160 0.929 . S
C4152 H4146 0.930 . S
C4152 C4153 1.367 . S
C4152 C4160 1.378 . S
C4153 C4152 1.367 . S
C4153 C4161 1.433 . S
C4154 H4150 0.929 . S
C4154 C4156 1.378 . S
C4154 C4158 1.350 . S
C4155 C4158 1.463 1_556 S
C4155 C4160 1.350 . S
C4155 N4163 1.427 . S
C4156 H4147 0.930 . S
C4156 C4154 1.378 . S
C4156 C4157 1.367 . S
C4157 C4156 1.367 . S
C4157 C4159 1.433 . S
C4158 C4154 1.350 . S
C4158 C4155 1.463 1_554 S
C4158 N4162 1.427 . S
C4159 H4149 0.929 . S
C4159 C4157 1.433 . S
C4159 N4162 1.384 . S
C4160 H4151 0.929 . S
C4160 C4152 1.378 . S
C4160 C4155 1.350 . S
C4161 H4148 0.929 . S
C4161 C4153 1.433 . S
C4161 N4163 1.384 . S
N4162 C4158 1.427 . S
N4162 C4159 1.384 . S
N4163 C4155 1.427 . S
N4163 C4161 1.384 . S
H4164 C4170 0.930 . S
H4165 C4174 0.930 . S
H4166 C4179 0.929 . S
H4167 C4177 0.929 . S
H4168 C4172 0.929 . S
H4169 C4178 0.929 . S
C4170 H4164 0.930 . S
C4170 C4171 1.367 . S
C4170 C4178 1.378 . S
C4171 C4170 1.367 . S
C4171 C4179 1.433 . S
C4172 H4168 0.929 . S
C4172 C4174 1.378 . S
C4172 C4176 1.350 . S
C4173 C4176 1.463 1_554 S
C4173 C4178 1.350 . S
C4173 N4181 1.427 . S
C4174 H4165 0.930 . S
C4174 C4172 1.378 . S
C4174 C4175 1.367 . S
C4175 C4174 1.367 . S
C4175 C4177 1.433 . S
C4176 C4172 1.350 . S
C4176 C4173 1.463 1_556 S
C4176 N4180 1.427 . S
C4177 H4167 0.929 . S
C4177 C4175 1.433 . S
C4177 N4180 1.384 . S
C4178 H4169 0.929 . S
C4178 C4170 1.378 . S
C4178 C4173 1.350 . S
C4179 H4166 0.929 . S
C4179 C4171 1.433 . S
C4179 N4181 1.384 . S
N4180 C4176 1.427 . S
N4180 C4177 1.384 . S
N4181 C4173 1.427 . S
N4181 C4179 1.384 . S
H4182 C4188 0.930 . S
H4183 C4192 0.930 . S
H4184 C4197 0.929 . S
H4185 C4195 0.929 . S
H4186 C4190 0.929 . S
H4187 C4196 0.929 . S
C4188 H4182 0.930 . S
C4188 C4189 1.367 . S
C4188 C4196 1.378 . S
C4189 C4188 1.367 . S
C4189 C4197 1.433 . S
C4190 H4186 0.929 . S
C4190 C4192 1.378 . S
C4190 C4194 1.350 . S
C4191 C4194 1.463 1_554 S
C4191 C4196 1.350 . S
C4191 N4199 1.427 . S
C4192 H4183 0.930 . S
C4192 C4190 1.378 . S
C4192 C4193 1.367 . S
C4193 C4192 1.367 . S
C4193 C4195 1.433 . S
C4194 C4190 1.350 . S
C4194 C4191 1.463 1_556 S
C4194 N4198 1.427 . S
C4195 H4185 0.929 . S
C4195 C4193 1.433 . S
C4195 N4198 1.384 . S
C4196 H4187 0.929 . S
C4196 C4188 1.378 . S
C4196 C4191 1.350 . S
C4197 H4184 0.929 . S
C4197 C4189 1.433 . S
C4197 N4199 1.384 . S
N4198 C4194 1.427 . S
N4198 C4195 1.384 . S
N4199 C4191 1.427 . S
N4199 C4197 1.384 . S
H4200 C4206 0.930 . S
H4201 C4210 0.930 . S
H4202 C4215 0.929 . S
H4203 C4213 0.929 . S
H4204 C4208 0.929 . S
H4205 C4214 0.929 . S
C4206 H4200 0.930 . S
C4206 C4207 1.367 . S
C4206 C4214 1.378 . S
C4207 C4206 1.367 . S
C4207 C4215 1.433 . S
C4208 H4204 0.929 . S
C4208 C4210 1.378 . S
C4208 C4212 1.350 . S
C4209 C4212 1.463 1_556 S
C4209 C4214 1.350 . S
C4209 N4217 1.427 . S
C4210 H4201 0.930 . S
C4210 C4208 1.378 . S
C4210 C4211 1.367 . S
C4211 C4210 1.367 . S
C4211 C4213 1.433 . S
C4212 C4208 1.350 . S
C4212 C4209 1.463 1_554 S
C4212 N4216 1.427 . S
C4213 H4203 0.929 . S
C4213 C4211 1.433 . S
C4213 N4216 1.384 . S
C4214 H4205 0.929 . S
C4214 C4206 1.378 . S
C4214 C4209 1.350 . S
C4215 H4202 0.929 . S
C4215 C4207 1.433 . S
C4215 N4217 1.384 . S
N4216 C4212 1.427 . S
N4216 C4213 1.384 . S
N4217 C4209 1.427 . S
N4217 C4215 1.384 . S
H4218 C4224 0.930 . S
H4219 C4228 0.930 . S
H4220 C4233 0.929 . S
H4221 C4231 0.929 . S
H4222 C4226 0.929 . S
H4223 C4232 0.929 . S
C4224 H4218 0.930 . S
C4224 C4225 1.367 . S
C4224 C4232 1.378 . S
C4225 C4224 1.367 . S
C4225 C4233 1.433 . S
C4226 H4222 0.929 . S
C4226 C4228 1.378 . S
C4226 C4230 1.350 . S
C4227 C4230 1.463 1_554 S
C4227 C4232 1.350 . S
C4227 N4235 1.427 . S
C4228 H4219 0.930 . S
C4228 C4226 1.378 . S
C4228 C4229 1.367 . S
C4229 C4228 1.367 . S
C4229 C4231 1.433 . S
C4230 C4226 1.350 . S
C4230 C4227 1.463 1_556 S
C4230 N4234 1.427 . S
C4231 H4221 0.929 . S
C4231 C4229 1.433 . S
C4231 N4234 1.384 . S
C4232 H4223 0.929 . S
C4232 C4224 1.378 . S
C4232 C4227 1.350 . S
C4233 H4220 0.929 . S
C4233 C4225 1.433 . S
C4233 N4235 1.384 . S
N4234 C4230 1.427 . S
N4234 C4231 1.384 . S
N4235 C4227 1.427 . S
N4235 C4233 1.384 . S
H4236 C4242 0.930 . S
H4237 C4246 0.930 . S
H4238 C4251 0.929 . S
H4239 C4249 0.929 . S
H4240 C4244 0.929 . S
H4241 C4250 0.929 . S
C4242 H4236 0.930 . S
C4242 C4243 1.367 . S
C4242 C4250 1.378 . S
C4243 C4242 1.367 . S
C4243 C4251 1.433 . S
C4244 H4240 0.929 . S
C4244 C4246 1.378 . S
C4244 C4248 1.350 . S
C4245 C4248 1.463 1_556 S
C4245 C4250 1.350 . S
C4245 N4253 1.427 . S
C4246 H4237 0.930 . S
C4246 C4244 1.378 . S
C4246 C4247 1.367 . S
C4247 C4246 1.367 . S
C4247 C4249 1.433 . S
C4248 C4244 1.350 . S
C4248 C4245 1.463 1_554 S
C4248 N4252 1.427 . S
C4249 H4239 0.929 . S
C4249 C4247 1.433 . S
C4249 N4252 1.384 . S
C4250 H4241 0.929 . S
C4250 C4242 1.378 . S
C4250 C4245 1.350 . S
C4251 H4238 0.929 . S
C4251 C4243 1.433 . S
C4251 N4253 1.384 . S
N4252 C4248 1.427 . S
N4252 C4249 1.384 . S
N4253 C4245 1.427 . S
N4253 C4251 1.384 . S
H4254 C4260 0.930 . S
H4255 C4264 0.930 . S
H4256 C4269 0.929 . S
H4257 C4267 0.929 . S
H4258 C4262 0.929 . S
H4259 C4268 0.929 . S
C4260 H4254 0.930 . S
C4260 C4261 1.367 . S
C4260 C4268 1.378 . S
C4261 C4260 1.367 . S
C4261 C4269 1.433 . S
C4262 H4258 0.929 . S
C4262 C4264 1.378 . S
C4262 C4266 1.350 . S
C4263 C4266 1.463 1_554 S
C4263 C4268 1.350 . S
C4263 N4271 1.427 . S
C4264 H4255 0.930 . S
C4264 C4262 1.378 . S
C4264 C4265 1.367 . S
C4265 C4264 1.367 . S
C4265 C4267 1.433 . S
C4266 C4262 1.350 . S
C4266 C4263 1.463 1_556 S
C4266 N4270 1.427 . S
C4267 H4257 0.929 . S
C4267 C4265 1.433 . S
C4267 N4270 1.384 . S
C4268 H4259 0.929 . S
C4268 C4260 1.378 . S
C4268 C4263 1.350 . S
C4269 H4256 0.929 . S
C4269 C4261 1.433 . S
C4269 N4271 1.384 . S
N4270 C4266 1.427 . S
N4270 C4267 1.384 . S
N4271 C4263 1.427 . S
N4271 C4269 1.384 . S
H4272 C4278 0.930 . S
H4273 C4282 0.930 . S
H4274 C4287 0.929 . S
H4275 C4285 0.929 . S
H4276 C4280 0.929 . S
H4277 C4286 0.929 . S
C4278 H4272 0.930 . S
C4278 C4279 1.367 . S
C4278 C4286 1.378 . S
C4279 C4278 1.367 . S
C4279 C4287 1.433 . S
C4280 H4276 0.929 . S
C4280 C4282 1.378 . S
C4280 C4284 1.350 . S
C4281 C4284 1.463 1_455 S
C4281 C4286 1.350 . S
C4281 N4289 1.427 . S
C4282 H4273 0.930 . S
C4282 C4280 1.378 . S
C4282 C4283 1.367 . S
C4283 C4282 1.367 . S
C4283 C4285 1.433 . S
C4284 C4280 1.350 . S
C4284 C4281 1.463 1_655 S
C4284 N4288 1.427 . S
C4285 H4275 0.929 . S
C4285 C4283 1.433 . S
C4285 N4288 1.384 . S
C4286 H4277 0.929 . S
C4286 C4278 1.378 . S
C4286 C4281 1.350 . S
C4287 H4274 0.929 . S
C4287 C4279 1.433 . S
C4287 N4289 1.384 . S
N4288 C4284 1.427 . S
N4288 C4285 1.384 . S
N4289 C4281 1.427 . S
N4289 C4287 1.384 . S
H4290 C4296 0.930 . S
H4291 C4300 0.930 . S
H4292 C4305 0.929 . S
H4293 C4303 0.929 . S
H4294 C4298 0.929 . S
H4295 C4304 0.929 . S
C4296 H4290 0.930 . S
C4296 C4297 1.367 . S
C4296 C4304 1.378 . S
C4297 C4296 1.367 . S
C4297 C4305 1.433 . S
C4298 H4294 0.929 . S
C4298 C4300 1.378 . S
C4298 C4302 1.350 . S
C4299 C4302 1.463 1_565 S
C4299 C4304 1.350 . S
C4299 N4307 1.427 . S
C4300 H4291 0.930 . S
C4300 C4298 1.378 . S
C4300 C4301 1.367 . S
C4301 C4300 1.367 . S
C4301 C4303 1.433 . S
C4302 C4298 1.350 . S
C4302 C4299 1.463 1_545 S
C4302 N4306 1.427 . S
C4303 H4293 0.929 . S
C4303 C4301 1.433 . S
C4303 N4306 1.384 . S
C4304 H4295 0.929 . S
C4304 C4296 1.378 . S
C4304 C4299 1.350 . S
C4305 H4292 0.929 . S
C4305 C4297 1.433 . S
C4305 N4307 1.384 . S
N4306 C4302 1.427 . S
N4306 C4303 1.384 . S
N4307 C4299 1.427 . S
N4307 C4305 1.384 . S
H4308 C4314 0.930 . S
H4309 C4318 0.930 . S
H4310 C4323 0.929 . S
H4311 C4321 0.929 . S
H4312 C4316 0.929 . S
H4313 C4322 0.929 . S
C4314 H4308 0.930 . S
C4314 C4315 1.367 . S
C4314 C4322 1.378 . S
C4315 C4314 1.367 . S
C4315 C4323 1.433 . S
C4316 H4312 0.929 . S
C4316 C4318 1.378 . S
C4316 C4320 1.350 . S
C4317 C4320 1.463 1_455 S
C4317 C4322 1.350 . S
C4317 N4325 1.427 . S
C4318 H4309 0.930 . S
C4318 C4316 1.378 . S
C4318 C4319 1.367 . S
C4319 C4318 1.367 . S
C4319 C4321 1.433 . S
C4320 C4316 1.350 . S
C4320 C4317 1.463 1_655 S
C4320 N4324 1.427 . S
C4321 H4311 0.929 . S
C4321 C4319 1.433 . S
C4321 N4324 1.384 . S
C4322 H4313 0.929 . S
C4322 C4314 1.378 . S
C4322 C4317 1.350 . S
C4323 H4310 0.929 . S
C4323 C4315 1.433 . S
C4323 N4325 1.384 . S
N4324 C4320 1.427 . S
N4324 C4321 1.384 . S
N4325 C4317 1.427 . S
N4325 C4323 1.384 . S
H4326 C4332 0.930 . S
H4327 C4336 0.930 . S
H4328 C4341 0.929 . S
H4329 C4339 0.929 . S
H4330 C4334 0.929 . S
H4331 C4340 0.929 . S
C4332 H4326 0.930 . S
C4332 C4333 1.367 . S
C4332 C4340 1.378 . S
C4333 C4332 1.367 . S
C4333 C4341 1.433 . S
C4334 H4330 0.929 . S
C4334 C4336 1.378 . S
C4334 C4338 1.350 . S
C4335 C4338 1.463 1_565 S
C4335 C4340 1.350 . S
C4335 N4343 1.427 . S
C4336 H4327 0.930 . S
C4336 C4334 1.378 . S
C4336 C4337 1.367 . S
C4337 C4336 1.367 . S
C4337 C4339 1.433 . S
C4338 C4334 1.350 . S
C4338 C4335 1.463 1_545 S
C4338 N4342 1.427 . S
C4339 H4329 0.929 . S
C4339 C4337 1.433 . S
C4339 N4342 1.384 . S
C4340 H4331 0.929 . S
C4340 C4332 1.378 . S
C4340 C4335 1.350 . S
C4341 H4328 0.929 . S
C4341 C4333 1.433 . S
C4341 N4343 1.384 . S
N4342 C4338 1.427 . S
N4342 C4339 1.384 . S
N4343 C4335 1.427 . S
N4343 C4341 1.384 . S
H4344 C4350 0.930 . S
H4345 C4354 0.930 . S
H4346 C4359 0.929 . S
H4347 C4357 0.929 . S
H4348 C4352 0.929 . S
H4349 C4358 0.929 . S
C4350 H4344 0.930 . S
C4350 C4351 1.367 . S
C4350 C4358 1.378 . S
C4351 C4350 1.367 . S
C4351 C4359 1.433 . S
C4352 H4348 0.929 . S
C4352 C4354 1.378 . S
C4352 C4356 1.350 . S
C4353 C4356 1.463 1_655 S
C4353 C4358 1.350 . S
C4353 N4361 1.427 . S
C4354 H4345 0.930 . S
C4354 C4352 1.378 . S
C4354 C4355 1.367 . S
C4355 C4354 1.367 . S
C4355 C4357 1.433 . S
C4356 C4352 1.350 . S
C4356 C4353 1.463 1_455 S
C4356 N4360 1.427 . S
C4357 H4347 0.929 . S
C4357 C4355 1.433 . S
C4357 N4360 1.384 . S
C4358 H4349 0.929 . S
C4358 C4350 1.378 . S
C4358 C4353 1.350 . S
C4359 H4346 0.929 . S
C4359 C4351 1.433 . S
C4359 N4361 1.384 . S
N4360 C4356 1.427 . S
N4360 C4357 1.384 . S
N4361 C4353 1.427 . S
N4361 C4359 1.384 . S
H4362 C4368 0.930 . S
H4363 C4372 0.930 . S
H4364 C4377 0.929 . S
H4365 C4375 0.929 . S
H4366 C4370 0.929 . S
H4367 C4376 0.929 . S
C4368 H4362 0.930 . S
C4368 C4369 1.367 . S
C4368 C4376 1.378 . S
C4369 C4368 1.367 . S
C4369 C4377 1.433 . S
C4370 H4366 0.929 . S
C4370 C4372 1.378 . S
C4370 C4374 1.350 . S
C4371 C4374 1.463 1_545 S
C4371 C4376 1.350 . S
C4371 N4379 1.427 . S
C4372 H4363 0.930 . S
C4372 C4370 1.378 . S
C4372 C4373 1.367 . S
C4373 C4372 1.367 . S
C4373 C4375 1.433 . S
C4374 C4370 1.350 . S
C4374 C4371 1.463 1_565 S
C4374 N4378 1.427 . S
C4375 H4365 0.929 . S
C4375 C4373 1.433 . S
C4375 N4378 1.384 . S
C4376 H4367 0.929 . S
C4376 C4368 1.378 . S
C4376 C4371 1.350 . S
C4377 H4364 0.929 . S
C4377 C4369 1.433 . S
C4377 N4379 1.384 . S
N4378 C4374 1.427 . S
N4378 C4375 1.384 . S
N4379 C4371 1.427 . S
N4379 C4377 1.384 . S
H4380 C4386 0.930 . S
H4381 C4390 0.930 . S
H4382 C4395 0.929 . S
H4383 C4393 0.929 . S
H4384 C4388 0.929 . S
H4385 C4394 0.929 . S
C4386 H4380 0.930 . S
C4386 C4387 1.367 . S
C4386 C4394 1.378 . S
C4387 C4386 1.367 . S
C4387 C4395 1.433 . S
C4388 H4384 0.929 . S
C4388 C4390 1.378 . S
C4388 C4392 1.350 . S
C4389 C4392 1.463 1_455 S
C4389 C4394 1.350 . S
C4389 N4397 1.427 . S
C4390 H4381 0.930 . S
C4390 C4388 1.378 . S
C4390 C4391 1.367 . S
C4391 C4390 1.367 . S
C4391 C4393 1.433 . S
C4392 C4388 1.350 . S
C4392 C4389 1.463 1_655 S
C4392 N4396 1.427 . S
C4393 H4383 0.929 . S
C4393 C4391 1.433 . S
C4393 N4396 1.384 . S
C4394 H4385 0.929 . S
C4394 C4386 1.378 . S
C4394 C4389 1.350 . S
C4395 H4382 0.929 . S
C4395 C4387 1.433 . S
C4395 N4397 1.384 . S
N4396 C4392 1.427 . S
N4396 C4393 1.384 . S
N4397 C4389 1.427 . S
N4397 C4395 1.384 . S
H4398 C4404 0.930 . S
H4399 C4408 0.930 . S
H4400 C4413 0.929 . S
H4401 C4411 0.929 . S
H4402 C4406 0.929 . S
H4403 C4412 0.929 . S
C4404 H4398 0.930 . S
C4404 C4405 1.367 . S
C4404 C4412 1.378 . S
C4405 C4404 1.367 . S
C4405 C4413 1.433 . S
C4406 H4402 0.929 . S
C4406 C4408 1.378 . S
C4406 C4410 1.350 . S
C4407 C4410 1.463 1_545 S
C4407 C4412 1.350 . S
C4407 N4415 1.427 . S
C4408 H4399 0.930 . S
C4408 C4406 1.378 . S
C4408 C4409 1.367 . S
C4409 C4408 1.367 . S
C4409 C4411 1.433 . S
C4410 C4406 1.350 . S
C4410 C4407 1.463 1_565 S
C4410 N4414 1.427 . S
C4411 H4401 0.929 . S
C4411 C4409 1.433 . S
C4411 N4414 1.384 . S
C4412 H4403 0.929 . S
C4412 C4404 1.378 . S
C4412 C4407 1.350 . S
C4413 H4400 0.929 . S
C4413 C4405 1.433 . S
C4413 N4415 1.384 . S
N4414 C4410 1.427 . S
N4414 C4411 1.384 . S
N4415 C4407 1.427 . S
N4415 C4413 1.384 . S
H4416 C4422 0.930 . S
H4417 C4426 0.930 . S
H4418 C4431 0.929 . S
H4419 C4429 0.929 . S
H4420 C4424 0.929 . S
H4421 C4430 0.929 . S
C4422 H4416 0.930 . S
C4422 C4423 1.367 . S
C4422 C4430 1.378 . S
C4423 C4422 1.367 . S
C4423 C4431 1.433 . S
C4424 H4420 0.929 . S
C4424 C4426 1.378 . S
C4424 C4428 1.350 . S
C4425 C4428 1.463 1_545 S
C4425 C4430 1.350 . S
C4425 N4433 1.427 . S
C4426 H4417 0.930 . S
C4426 C4424 1.378 . S
C4426 C4427 1.367 . S
C4427 C4426 1.367 . S
C4427 C4429 1.433 . S
C4428 C4424 1.350 . S
C4428 C4425 1.463 1_565 S
C4428 N4432 1.427 . S
C4429 H4419 0.929 . S
C4429 C4427 1.433 . S
C4429 N4432 1.384 . S
C4430 H4421 0.929 . S
C4430 C4422 1.378 . S
C4430 C4425 1.350 . S
C4431 H4418 0.929 . S
C4431 C4423 1.433 . S
C4431 N4433 1.384 . S
N4432 C4428 1.427 . S
N4432 C4429 1.384 . S
N4433 C4425 1.427 . S
N4433 C4431 1.384 . S
H4434 C4440 0.930 . S
H4435 C4444 0.930 . S
H4436 C4449 0.929 . S
H4437 C4447 0.929 . S
H4438 C4442 0.929 . S
H4439 C4448 0.929 . S
C4440 H4434 0.930 . S
C4440 C4441 1.367 . S
C4440 C4448 1.378 . S
C4441 C4440 1.367 . S
C4441 C4449 1.433 . S
C4442 H4438 0.929 . S
C4442 C4444 1.378 . S
C4442 C4446 1.350 . S
C4443 C4446 1.463 1_545 S
C4443 C4448 1.350 . S
C4443 N4451 1.427 . S
C4444 H4435 0.930 . S
C4444 C4442 1.378 . S
C4444 C4445 1.367 . S
C4445 C4444 1.367 . S
C4445 C4447 1.433 . S
C4446 C4442 1.350 . S
C4446 C4443 1.463 1_565 S
C4446 N4450 1.427 . S
C4447 H4437 0.929 . S
C4447 C4445 1.433 . S
C4447 N4450 1.384 . S
C4448 H4439 0.929 . S
C4448 C4440 1.378 . S
C4448 C4443 1.350 . S
C4449 H4436 0.929 . S
C4449 C4441 1.433 . S
C4449 N4451 1.384 . S
N4450 C4446 1.427 . S
N4450 C4447 1.384 . S
N4451 C4443 1.427 . S
N4451 C4449 1.384 . S
H4452 C4458 0.930 . S
H4453 C4462 0.930 . S
H4454 C4467 0.929 . S
H4455 C4465 0.929 . S
H4456 C4460 0.929 . S
H4457 C4466 0.929 . S
C4458 H4452 0.930 . S
C4458 C4459 1.367 . S
C4458 C4466 1.378 . S
C4459 C4458 1.367 . S
C4459 C4467 1.433 . S
C4460 H4456 0.929 . S
C4460 C4462 1.378 . S
C4460 C4464 1.350 . S
C4461 C4464 1.463 1_655 S
C4461 C4466 1.350 . S
C4461 N4469 1.427 . S
C4462 H4453 0.930 . S
C4462 C4460 1.378 . S
C4462 C4463 1.367 . S
C4463 C4462 1.367 . S
C4463 C4465 1.433 . S
C4464 C4460 1.350 . S
C4464 C4461 1.463 1_455 S
C4464 N4468 1.427 . S
C4465 H4455 0.929 . S
C4465 C4463 1.433 . S
C4465 N4468 1.384 . S
C4466 H4457 0.929 . S
C4466 C4458 1.378 . S
C4466 C4461 1.350 . S
C4467 H4454 0.929 . S
C4467 C4459 1.433 . S
C4467 N4469 1.384 . S
N4468 C4464 1.427 . S
N4468 C4465 1.384 . S
N4469 C4461 1.427 . S
N4469 C4467 1.384 . S
H4470 C4476 0.930 . S
H4471 C4480 0.930 . S
H4472 C4485 0.929 . S
H4473 C4483 0.929 . S
H4474 C4478 0.929 . S
H4475 C4484 0.929 . S
C4476 H4470 0.930 . S
C4476 C4477 1.367 . S
C4476 C4484 1.378 . S
C4477 C4476 1.367 . S
C4477 C4485 1.433 . S
C4478 H4474 0.929 . S
C4478 C4480 1.378 . S
C4478 C4482 1.350 . S
C4479 C4482 1.463 1_545 S
C4479 C4484 1.350 . S
C4479 N4487 1.427 . S
C4480 H4471 0.930 . S
C4480 C4478 1.378 . S
C4480 C4481 1.367 . S
C4481 C4480 1.367 . S
C4481 C4483 1.433 . S
C4482 C4478 1.350 . S
C4482 C4479 1.463 1_565 S
C4482 N4486 1.427 . S
C4483 H4473 0.929 . S
C4483 C4481 1.433 . S
C4483 N4486 1.384 . S
C4484 H4475 0.929 . S
C4484 C4476 1.378 . S
C4484 C4479 1.350 . S
C4485 H4472 0.929 . S
C4485 C4477 1.433 . S
C4485 N4487 1.384 . S
N4486 C4482 1.427 . S
N4486 C4483 1.384 . S
N4487 C4479 1.427 . S
N4487 C4485 1.384 . S
H4488 C4494 0.930 . S
H4489 C4498 0.930 . S
H4490 C4503 0.929 . S
H4491 C4501 0.929 . S
H4492 C4496 0.929 . S
H4493 C4502 0.929 . S
C4494 H4488 0.930 . S
C4494 C4495 1.367 . S
C4494 C4502 1.378 . S
C4495 C4494 1.367 . S
C4495 C4503 1.433 . S
C4496 H4492 0.929 . S
C4496 C4498 1.378 . S
C4496 C4500 1.350 . S
C4497 C4500 1.463 1_455 S
C4497 C4502 1.350 . S
C4497 N4505 1.427 . S
C4498 H4489 0.930 . S
C4498 C4496 1.378 . S
C4498 C4499 1.367 . S
C4499 C4498 1.367 . S
C4499 C4501 1.433 . S
C4500 C4496 1.350 . S
C4500 C4497 1.463 1_655 S
C4500 N4504 1.427 . S
C4501 H4491 0.929 . S
C4501 C4499 1.433 . S
C4501 N4504 1.384 . S
C4502 H4493 0.929 . S
C4502 C4494 1.378 . S
C4502 C4497 1.350 . S
C4503 H4490 0.929 . S
C4503 C4495 1.433 . S
C4503 N4505 1.384 . S
N4504 C4500 1.427 . S
N4504 C4501 1.384 . S
N4505 C4497 1.427 . S
N4505 C4503 1.384 . S
H4506 C4512 0.930 . S
H4507 C4516 0.930 . S
H4508 C4521 0.929 . S
H4509 C4519 0.929 . S
H4510 C4514 0.929 . S
H4511 C4520 0.929 . S
C4512 H4506 0.930 . S
C4512 C4513 1.367 . S
C4512 C4520 1.378 . S
C4513 C4512 1.367 . S
C4513 C4521 1.433 . S
C4514 H4510 0.929 . S
C4514 C4516 1.378 . S
C4514 C4518 1.350 . S
C4515 C4518 1.463 1_545 S
C4515 C4520 1.350 . S
C4515 N4523 1.427 . S
C4516 H4507 0.930 . S
C4516 C4514 1.378 . S
C4516 C4517 1.367 . S
C4517 C4516 1.367 . S
C4517 C4519 1.433 . S
C4518 C4514 1.350 . S
C4518 C4515 1.463 1_565 S
C4518 N4522 1.427 . S
C4519 H4509 0.929 . S
C4519 C4517 1.433 . S
C4519 N4522 1.384 . S
C4520 H4511 0.929 . S
C4520 C4512 1.378 . S
C4520 C4515 1.350 . S
C4521 H4508 0.929 . S
C4521 C4513 1.433 . S
C4521 N4523 1.384 . S
N4522 C4518 1.427 . S
N4522 C4519 1.384 . S
N4523 C4515 1.427 . S
N4523 C4521 1.384 . S
H4524 C4530 0.930 . S
H4525 C4534 0.930 . S
H4526 C4539 0.929 . S
H4527 C4537 0.929 . S
H4528 C4532 0.929 . S
H4529 C4538 0.929 . S
C4530 H4524 0.930 . S
C4530 C4531 1.367 . S
C4530 C4538 1.378 . S
C4531 C4530 1.367 . S
C4531 C4539 1.433 . S
C4532 H4528 0.929 . S
C4532 C4534 1.378 . S
C4532 C4536 1.350 . S
C4533 C4536 1.463 1_655 S
C4533 C4538 1.350 . S
C4533 N4541 1.427 . S
C4534 H4525 0.930 . S
C4534 C4532 1.378 . S
C4534 C4535 1.367 . S
C4535 C4534 1.367 . S
C4535 C4537 1.433 . S
C4536 C4532 1.350 . S
C4536 C4533 1.463 1_455 S
C4536 N4540 1.427 . S
C4537 H4527 0.929 . S
C4537 C4535 1.433 . S
C4537 N4540 1.384 . S
C4538 H4529 0.929 . S
C4538 C4530 1.378 . S
C4538 C4533 1.350 . S
C4539 H4526 0.929 . S
C4539 C4531 1.433 . S
C4539 N4541 1.384 . S
N4540 C4536 1.427 . S
N4540 C4537 1.384 . S
N4541 C4533 1.427 . S
N4541 C4539 1.384 . S
H4542 C4548 0.930 . S
H4543 C4552 0.930 . S
H4544 C4557 0.929 . S
H4545 C4555 0.929 . S
H4546 C4550 0.929 . S
H4547 C4556 0.929 . S
C4548 H4542 0.930 . S
C4548 C4549 1.367 . S
C4548 C4556 1.378 . S
C4549 C4548 1.367 . S
C4549 C4557 1.433 . S
C4550 H4546 0.929 . S
C4550 C4552 1.378 . S
C4550 C4554 1.350 . S
C4551 C4554 1.463 1_455 S
C4551 C4556 1.350 . S
C4551 N4559 1.427 . S
C4552 H4543 0.930 . S
C4552 C4550 1.378 . S
C4552 C4553 1.367 . S
C4553 C4552 1.367 . S
C4553 C4555 1.433 . S
C4554 C4550 1.350 . S
C4554 C4551 1.463 1_655 S
C4554 N4558 1.427 . S
C4555 H4545 0.929 . S
C4555 C4553 1.433 . S
C4555 N4558 1.384 . S
C4556 H4547 0.929 . S
C4556 C4548 1.378 . S
C4556 C4551 1.350 . S
C4557 H4544 0.929 . S
C4557 C4549 1.433 . S
C4557 N4559 1.384 . S
N4558 C4554 1.427 . S
N4558 C4555 1.384 . S
N4559 C4551 1.427 . S
N4559 C4557 1.384 . S
C2839 C2304 1.359 . S
C2843 C3 1.348 . S
C2857 C64 1.365 . S
C2861 C2127 1.342 . S
C2875 C121 1.349 . S
C2879 C2186 1.351 . S
C2893 C2247 1.357 . S
C2897 C182 1.356 . S
C2911 C1952 1.354 . S
C2915 C241 1.360 . S
C2929 C298 1.344 . S
C2933 C2011 1.366 . S
C2947 C359 1.364 . S
C2951 C2068 1.346 . S
C2965 C416 1.355 . S
C2969 C1893 1.366 . S
C2983 C475 1.353 . S
C2987 C1832 1.354 . S
C3001 C1657 1.355 . S
C3005 C536 1.360 . S
C3019 C1714 1.350 . S
C3023 C595 1.363 . S
C3037 C652 1.344 . S
C3041 C1775 1.359 . S
C3055 C711 1.352 . S
C3059 C1480 1.360 . S
C3073 C772 1.363 . S
C3077 C1537 1.350 . S
C3091 C1598 1.362 . S
C3095 C831 1.359 . S
C3109 C1419 1.351 . S
C3113 C888 1.356 . S
C3127 C949 1.365 . S
C3131 C2601 1.362 . S
C3145 C2776 1.349 . S
C3149 C1006 1.343 . S
C3163 C2660 1.363 . S
C3167 C1067 1.369 . S
C3181 C2717 1.341 . S
C3185 C1124 1.351 . S
C3199 C2365 1.362 . S
C3203 C1185 1.369 . S
C3217 C2483 1.365 . S
C3221 C1244 1.363 . S
C3235 C1301 1.351 . S
C3239 C2540 1.340 . S
C3253 C2422 1.349 . S
C3257 C1360 1.343 . S
C3271 C1891 1.359 . S
C3275 C1183 1.348 . S
C3289 C1008 1.355 . S
C3293 C1950 1.349 . S
C3307 C2009 1.346 . S
C3311 C1065 1.355 . S
C3325 C2070 1.359 . S
C3329 C1126 1.362 . S
C3343 C1362 1.361 . S
C3347 C2129 1.361 . S
C3361 C2188 1.365 . S
C3365 C1242 1.347 . S
C3379 C1303 1.358 . S
C3383 C2245 1.345 . S
C3397 C947 1.357 . S
C3401 C2306 1.364 . S
C3415 C2363 1.357 . S
C3419 C890 1.364 . S
C3433 C713 1.358 . S
C3437 C2778 1.357 . S
C3451 C2658 1.354 . S
C3455 C770 1.346 . S
C3469 C829 1.348 . S
C3473 C2719 1.356 . S
C3487 C534 1.352 . S
C3491 C2424 1.359 . S
C3505 C593 1.349 . S
C3509 C2481 1.351 . S
C3523 C654 1.357 . S
C3527 C2542 1.364 . S
C3541 C2599 1.356 . S
C3545 C477 1.365 . S
C3559 C1421 1.369 . S
C3563 C418 1.363 . S
C3577 C1655 1.345 . S
C3581 C62 1.347 . S
C3595 C1716 1.365 . S
C3599 C123 1.363 . S
C3613 C1773 1.345 . S
C3617 C180 1.346 . S
C3631 C1834 1.365 . S
C3635 C5 1.370 . S
C3649 C300 1.359 . S
C3653 C1539 1.366 . S
C3667 C1596 1.347 . S
C3671 C357 1.345 . S
C3685 C1478 1.351 . S
C3689 C239 1.341 . S
C3703 C33 1.607 . S
C3707 C1567 1.607 . S
C3721 C1645 1.606 . S
C3725 C111 1.603 . S
C3739 C151 1.608 . S
C3743 C1449 1.607 . S
C3757 C229 1.605 . S
C3761 C1527 1.603 . S
C3775 C288 1.602 . S
C3779 C1822 1.605 . S
C3793 C1862 1.607 . S
C3797 C328 1.607 . S
C3811 C406 1.605 . S
C3815 C1704 1.603 . S
C3829 C1744 1.606 . S
C3833 C446 1.607 . S
C3847 C505 1.605 . S
C3851 C2157 1.607 . S
C3865 C2216 1.606 . S
C3869 C583 1.605 . S
C3883 C642 1.604 . S
C3887 C2294 1.605 . S
C3901 C682 1.606 . S
C3905 C2334 1.605 . S
C3919 C741 1.607 . S
C3923 C1940 1.605 . S
C3937 C819 1.604 . S
C3941 C1999 1.606 . S
C3955 C2058 1.605 . S
C3959 C878 1.606 . S
C3973 C918 1.606 . S
C3977 C2098 1.606 . S
C3991 C2570 1.606 . S
C3995 C996 1.606 . S
C4009 C1036 1.606 . S
C4013 C2707 1.605 . S
C4027 C1114 1.604 . S
C4031 C2747 1.606 . S
C4045 C2412 1.604 . S
C4049 C1154 1.607 . S
C4063 C2806 1.606 . S
C4067 C1232 1.604 . S
C4081 C1291 1.605 . S
C4085 C2452 1.606 . S
C4099 C2530 1.603 . S
C4103 C1331 1.606 . S
C4117 C1390 1.607 . S
C4121 C2648 1.607 . S
C4135 C2511 1.607 . S
C4139 C1213 1.608 . S
C4153 C1055 1.605 . S
C4157 C2589 1.603 . S
C4171 C2629 1.607 . S
C4175 C1095 1.607 . S
C4189 C2471 1.605 . S
C4193 C1173 1.604 . S
C4207 C2766 1.604 . S
C4211 C1409 1.604 . S
C4225 C1272 1.606 . S
C4229 C2393 1.607 . S
C4243 C2825 1.602 . S
C4247 C1350 1.605 . S
C4261 C977 1.606 . S
C4265 C2688 1.607 . S
C4279 C1980 1.605 . S
C4283 C937 1.605 . S
C4297 C760 1.603 . S
C4301 C2039 1.606 . S
C4315 C800 1.605 . S
C4319 C2117 1.604 . S
C4333 C1921 1.605 . S
C4337 C859 1.606 . S
C4351 C564 1.607 . S
C4355 C2353 1.605 . S
C4369 C2176 1.605 . S
C4373 C623 1.607 . S
C4387 C701 1.605 . S
C4391 C2235 1.606 . S
C4405 C524 1.605 . S
C4409 C2275 1.606 . S
C4423 C1626 1.606 . S
C4427 C465 1.604 . S
C4441 C92 1.607 . S
C4445 C1763 1.605 . S
C4459 C170 1.606 . S
C4463 C1803 1.606 . S
C4477 C1881 1.604 . S
C4481 C210 1.607 . S
C4495 C52 1.605 . S
C4499 C1685 1.607 . S
C4513 C347 1.603 . S
C4517 C1508 1.605 . S
C4531 C387 1.605 . S
C4535 C1586 1.605 . S
C4549 C269 1.606 . S
C4553 C1468 1.606 . S
