# Generated by pormake.
# Topology ull, (4)-cn, num edge types: 1
# Building blocks:
#     Node 0, Type 0, BuildingBlock: GALJAG_clean_sbu_0, # of connection points: 4
#     Node 1, Type 0, BuildingBlock: GALJAG_clean_sbu_0, # of connection points: 4
#     Node 2, Type 0, BuildingBlock: GALJAG_clean_sbu_0, # of connection points: 4
#     Node 3, Type 0, BuildingBlock: GALJAG_clean_sbu_0, # of connection points: 4
#     Node 4, Type 0, BuildingBlock: GALJAG_clean_sbu_0, # of connection points: 4
#     Node 5, Type 0, BuildingBlock: GALJAG_clean_sbu_0, # of connection points: 4
#     Node 6, Type 0, BuildingBlock: GALJAG_clean_sbu_0, # of connection points: 4
#     Node 7, Type 0, BuildingBlock: GALJAG_clean_sbu_0, # of connection points: 4
#     Node 8, Type 0, BuildingBlock: GALJAG_clean_sbu_0, # of connection points: 4
#     Node 9, Type 0, BuildingBlock: GALJAG_clean_sbu_0, # of connection points: 4
#     Node 10, Type 0, BuildingBlock: GALJAG_clean_sbu_0, # of connection points: 4
#     Node 11, Type 0, BuildingBlock: GALJAG_clean_sbu_0, # of connection points: 4
#     Node 12, Type 0, BuildingBlock: GALJAG_clean_sbu_0, # of connection points: 4
#     Node 13, Type 0, BuildingBlock: GALJAG_clean_sbu_0, # of connection points: 4
#     Node 14, Type 0, BuildingBlock: GALJAG_clean_sbu_0, # of connection points: 4
#     Node 15, Type 0, BuildingBlock: GALJAG_clean_sbu_0, # of connection points: 4
#     Node 16, Type 0, BuildingBlock: GALJAG_clean_sbu_0, # of connection points: 4
#     Node 17, Type 0, BuildingBlock: GALJAG_clean_sbu_0, # of connection points: 4
#     Node 18, Type 0, BuildingBlock: GALJAG_clean_sbu_0, # of connection points: 4
#     Node 19, Type 0, BuildingBlock: GALJAG_clean_sbu_0, # of connection points: 4
#     Node 20, Type 0, BuildingBlock: GALJAG_clean_sbu_0, # of connection points: 4
#     Node 21, Type 0, BuildingBlock: GALJAG_clean_sbu_0, # of connection points: 4
#     Node 22, Type 0, BuildingBlock: GALJAG_clean_sbu_0, # of connection points: 4
#     Node 23, Type 0, BuildingBlock: GALJAG_clean_sbu_0, # of connection points: 4
#     Node 24, Type 0, BuildingBlock: GALJAG_clean_sbu_0, # of connection points: 4
#     Node 25, Type 0, BuildingBlock: GALJAG_clean_sbu_0, # of connection points: 4
#     Node 26, Type 0, BuildingBlock: GALJAG_clean_sbu_0, # of connection points: 4
#     Node 27, Type 0, BuildingBlock: GALJAG_clean_sbu_0, # of connection points: 4
#     Node 28, Type 0, BuildingBlock: GALJAG_clean_sbu_0, # of connection points: 4
#     Node 29, Type 0, BuildingBlock: GALJAG_clean_sbu_0, # of connection points: 4
#     Node 30, Type 0, BuildingBlock: GALJAG_clean_sbu_0, # of connection points: 4
#     Node 31, Type 0, BuildingBlock: GALJAG_clean_sbu_0, # of connection points: 4
#     Node 32, Type 0, BuildingBlock: GALJAG_clean_sbu_0, # of connection points: 4
#     Node 33, Type 0, BuildingBlock: GALJAG_clean_sbu_0, # of connection points: 4
#     Node 34, Type 0, BuildingBlock: GALJAG_clean_sbu_0, # of connection points: 4
#     Node 35, Type 0, BuildingBlock: GALJAG_clean_sbu_0, # of connection points: 4
#     Node 36, Type 0, BuildingBlock: GALJAG_clean_sbu_0, # of connection points: 4
#     Node 37, Type 0, BuildingBlock: GALJAG_clean_sbu_0, # of connection points: 4
#     Node 38, Type 0, BuildingBlock: GALJAG_clean_sbu_0, # of connection points: 4
#     Node 39, Type 0, BuildingBlock: GALJAG_clean_sbu_0, # of connection points: 4
#     Node 40, Type 0, BuildingBlock: GALJAG_clean_sbu_0, # of connection points: 4
#     Node 41, Type 0, BuildingBlock: GALJAG_clean_sbu_0, # of connection points: 4
#     Node 42, Type 0, BuildingBlock: GALJAG_clean_sbu_0, # of connection points: 4
#     Node 43, Type 0, BuildingBlock: GALJAG_clean_sbu_0, # of connection points: 4
#     Node 44, Type 0, BuildingBlock: GALJAG_clean_sbu_0, # of connection points: 4
#     Node 45, Type 0, BuildingBlock: GALJAG_clean_sbu_0, # of connection points: 4
#     Node 46, Type 0, BuildingBlock: GALJAG_clean_sbu_0, # of connection points: 4
#     Node 47, Type 0, BuildingBlock: GALJAG_clean_sbu_0, # of connection points: 4
#     Edge 48, Type (0, 0), BuildingBlock: AJUNOK_clean_linker_0, # of connection points: 2
#     Edge 49, Type (0, 0), BuildingBlock: AJUNOK_clean_linker_0, # of connection points: 2
#     Edge 50, Type (0, 0), BuildingBlock: AJUNOK_clean_linker_0, # of connection points: 2
#     Edge 51, Type (0, 0), BuildingBlock: AJUNOK_clean_linker_0, # of connection points: 2
#     Edge 52, Type (0, 0), BuildingBlock: AJUNOK_clean_linker_0, # of connection points: 2
#     Edge 53, Type (0, 0), BuildingBlock: AJUNOK_clean_linker_0, # of connection points: 2
#     Edge 54, Type (0, 0), BuildingBlock: AJUNOK_clean_linker_0, # of connection points: 2
#     Edge 55, Type (0, 0), BuildingBlock: AJUNOK_clean_linker_0, # of connection points: 2
#     Edge 56, Type (0, 0), BuildingBlock: AJUNOK_clean_linker_0, # of connection points: 2
#     Edge 57, Type (0, 0), BuildingBlock: AJUNOK_clean_linker_0, # of connection points: 2
#     Edge 58, Type (0, 0), BuildingBlock: AJUNOK_clean_linker_0, # of connection points: 2
#     Edge 59, Type (0, 0), BuildingBlock: AJUNOK_clean_linker_0, # of connection points: 2
#     Edge 60, Type (0, 0), BuildingBlock: AJUNOK_clean_linker_0, # of connection points: 2
#     Edge 61, Type (0, 0), BuildingBlock: AJUNOK_clean_linker_0, # of connection points: 2
#     Edge 62, Type (0, 0), BuildingBlock: AJUNOK_clean_linker_0, # of connection points: 2
#     Edge 63, Type (0, 0), BuildingBlock: AJUNOK_clean_linker_0, # of connection points: 2
#     Edge 64, Type (0, 0), BuildingBlock: AJUNOK_clean_linker_0, # of connection points: 2
#     Edge 65, Type (0, 0), BuildingBlock: AJUNOK_clean_linker_0, # of connection points: 2
#     Edge 66, Type (0, 0), BuildingBlock: AJUNOK_clean_linker_0, # of connection points: 2
#     Edge 67, Type (0, 0), BuildingBlock: AJUNOK_clean_linker_0, # of connection points: 2
#     Edge 68, Type (0, 0), BuildingBlock: AJUNOK_clean_linker_0, # of connection points: 2
#     Edge 69, Type (0, 0), BuildingBlock: AJUNOK_clean_linker_0, # of connection points: 2
#     Edge 70, Type (0, 0), BuildingBlock: AJUNOK_clean_linker_0, # of connection points: 2
#     Edge 71, Type (0, 0), BuildingBlock: AJUNOK_clean_linker_0, # of connection points: 2
#     Edge 72, Type (0, 0), BuildingBlock: AJUNOK_clean_linker_0, # of connection points: 2
#     Edge 73, Type (0, 0), BuildingBlock: AJUNOK_clean_linker_0, # of connection points: 2
#     Edge 74, Type (0, 0), BuildingBlock: AJUNOK_clean_linker_0, # of connection points: 2
#     Edge 75, Type (0, 0), BuildingBlock: AJUNOK_clean_linker_0, # of connection points: 2
#     Edge 76, Type (0, 0), BuildingBlock: AJUNOK_clean_linker_0, # of connection points: 2
#     Edge 77, Type (0, 0), BuildingBlock: AJUNOK_clean_linker_0, # of connection points: 2
#     Edge 78, Type (0, 0), BuildingBlock: AJUNOK_clean_linker_0, # of connection points: 2
#     Edge 79, Type (0, 0), BuildingBlock: AJUNOK_clean_linker_0, # of connection points: 2
#     Edge 80, Type (0, 0), BuildingBlock: AJUNOK_clean_linker_0, # of connection points: 2
#     Edge 81, Type (0, 0), BuildingBlock: AJUNOK_clean_linker_0, # of connection points: 2
#     Edge 82, Type (0, 0), BuildingBlock: AJUNOK_clean_linker_0, # of connection points: 2
#     Edge 83, Type (0, 0), BuildingBlock: AJUNOK_clean_linker_0, # of connection points: 2
#     Edge 84, Type (0, 0), BuildingBlock: AJUNOK_clean_linker_0, # of connection points: 2
#     Edge 85, Type (0, 0), BuildingBlock: AJUNOK_clean_linker_0, # of connection points: 2
#     Edge 86, Type (0, 0), BuildingBlock: AJUNOK_clean_linker_0, # of connection points: 2
#     Edge 87, Type (0, 0), BuildingBlock: AJUNOK_clean_linker_0, # of connection points: 2
#     Edge 88, Type (0, 0), BuildingBlock: AJUNOK_clean_linker_0, # of connection points: 2
#     Edge 89, Type (0, 0), BuildingBlock: AJUNOK_clean_linker_0, # of connection points: 2
#     Edge 90, Type (0, 0), BuildingBlock: AJUNOK_clean_linker_0, # of connection points: 2
#     Edge 91, Type (0, 0), BuildingBlock: AJUNOK_clean_linker_0, # of connection points: 2
#     Edge 92, Type (0, 0), BuildingBlock: AJUNOK_clean_linker_0, # of connection points: 2
#     Edge 93, Type (0, 0), BuildingBlock: AJUNOK_clean_linker_0, # of connection points: 2
#     Edge 94, Type (0, 0), BuildingBlock: AJUNOK_clean_linker_0, # of connection points: 2
#     Edge 95, Type (0, 0), BuildingBlock: AJUNOK_clean_linker_0, # of connection points: 2
#     Edge 96, Type (0, 0), BuildingBlock: AJUNOK_clean_linker_0, # of connection points: 2
#     Edge 97, Type (0, 0), BuildingBlock: AJUNOK_clean_linker_0, # of connection points: 2
#     Edge 98, Type (0, 0), BuildingBlock: AJUNOK_clean_linker_0, # of connection points: 2
#     Edge 99, Type (0, 0), BuildingBlock: AJUNOK_clean_linker_0, # of connection points: 2
#     Edge 100, Type (0, 0), BuildingBlock: AJUNOK_clean_linker_0, # of connection points: 2
#     Edge 101, Type (0, 0), BuildingBlock: AJUNOK_clean_linker_0, # of connection points: 2
#     Edge 102, Type (0, 0), BuildingBlock: AJUNOK_clean_linker_0, # of connection points: 2
#     Edge 103, Type (0, 0), BuildingBlock: AJUNOK_clean_linker_0, # of connection points: 2
#     Edge 104, Type (0, 0), BuildingBlock: AJUNOK_clean_linker_0, # of connection points: 2
#     Edge 105, Type (0, 0), BuildingBlock: AJUNOK_clean_linker_0, # of connection points: 2
#     Edge 106, Type (0, 0), BuildingBlock: AJUNOK_clean_linker_0, # of connection points: 2
#     Edge 107, Type (0, 0), BuildingBlock: AJUNOK_clean_linker_0, # of connection points: 2
#     Edge 108, Type (0, 0), BuildingBlock: AJUNOK_clean_linker_0, # of connection points: 2
#     Edge 109, Type (0, 0), BuildingBlock: AJUNOK_clean_linker_0, # of connection points: 2
#     Edge 110, Type (0, 0), BuildingBlock: AJUNOK_clean_linker_0, # of connection points: 2
#     Edge 111, Type (0, 0), BuildingBlock: AJUNOK_clean_linker_0, # of connection points: 2
#     Edge 112, Type (0, 0), BuildingBlock: AJUNOK_clean_linker_0, # of connection points: 2
#     Edge 113, Type (0, 0), BuildingBlock: AJUNOK_clean_linker_0, # of connection points: 2
#     Edge 114, Type (0, 0), BuildingBlock: AJUNOK_clean_linker_0, # of connection points: 2
#     Edge 115, Type (0, 0), BuildingBlock: AJUNOK_clean_linker_0, # of connection points: 2
#     Edge 116, Type (0, 0), BuildingBlock: AJUNOK_clean_linker_0, # of connection points: 2
#     Edge 117, Type (0, 0), BuildingBlock: AJUNOK_clean_linker_0, # of connection points: 2
#     Edge 118, Type (0, 0), BuildingBlock: AJUNOK_clean_linker_0, # of connection points: 2
#     Edge 119, Type (0, 0), BuildingBlock: AJUNOK_clean_linker_0, # of connection points: 2
#     Edge 120, Type (0, 0), BuildingBlock: AJUNOK_clean_linker_0, # of connection points: 2
#     Edge 121, Type (0, 0), BuildingBlock: AJUNOK_clean_linker_0, # of connection points: 2
#     Edge 122, Type (0, 0), BuildingBlock: AJUNOK_clean_linker_0, # of connection points: 2
#     Edge 123, Type (0, 0), BuildingBlock: AJUNOK_clean_linker_0, # of connection points: 2
#     Edge 124, Type (0, 0), BuildingBlock: AJUNOK_clean_linker_0, # of connection points: 2
#     Edge 125, Type (0, 0), BuildingBlock: AJUNOK_clean_linker_0, # of connection points: 2
#     Edge 126, Type (0, 0), BuildingBlock: AJUNOK_clean_linker_0, # of connection points: 2
#     Edge 127, Type (0, 0), BuildingBlock: AJUNOK_clean_linker_0, # of connection points: 2
#     Edge 128, Type (0, 0), BuildingBlock: AJUNOK_clean_linker_0, # of connection points: 2
#     Edge 129, Type (0, 0), BuildingBlock: AJUNOK_clean_linker_0, # of connection points: 2
#     Edge 130, Type (0, 0), BuildingBlock: AJUNOK_clean_linker_0, # of connection points: 2
#     Edge 131, Type (0, 0), BuildingBlock: AJUNOK_clean_linker_0, # of connection points: 2
#     Edge 132, Type (0, 0), BuildingBlock: AJUNOK_clean_linker_0, # of connection points: 2
#     Edge 133, Type (0, 0), BuildingBlock: AJUNOK_clean_linker_0, # of connection points: 2
#     Edge 134, Type (0, 0), BuildingBlock: AJUNOK_clean_linker_0, # of connection points: 2
#     Edge 135, Type (0, 0), BuildingBlock: AJUNOK_clean_linker_0, # of connection points: 2
#     Edge 136, Type (0, 0), BuildingBlock: AJUNOK_clean_linker_0, # of connection points: 2
#     Edge 137, Type (0, 0), BuildingBlock: AJUNOK_clean_linker_0, # of connection points: 2
#     Edge 138, Type (0, 0), BuildingBlock: AJUNOK_clean_linker_0, # of connection points: 2
#     Edge 139, Type (0, 0), BuildingBlock: AJUNOK_clean_linker_0, # of connection points: 2
#     Edge 140, Type (0, 0), BuildingBlock: AJUNOK_clean_linker_0, # of connection points: 2
#     Edge 141, Type (0, 0), BuildingBlock: AJUNOK_clean_linker_0, # of connection points: 2
#     Edge 142, Type (0, 0), BuildingBlock: AJUNOK_clean_linker_0, # of connection points: 2
#     Edge 143, Type (0, 0), BuildingBlock: AJUNOK_clean_linker_0, # of connection points: 2
# Relax obj value: 0.015
# Max RMSD: 0.045
# Mean RMSD: 0.045
data_MOF--net-ull--node1-GALJAG_clean_sbu_0--edge1-AJUNOK_clean_linker_0
_symmetry_space_group_name_H-M    P1
_symmetry_Int_Tables_number       1
_symmetry_cell_setting            triclinic
loop_
_symmetry_equiv_pos_as_xyz
'x, y, z'
_cell_length_a     45.589206
_cell_length_b     45.610328
_cell_length_c     45.589025
_cell_angle_alpha  89.996191
_cell_angle_beta   90.000855
_cell_angle_gamma 90.012626
loop_
_atom_site_label
_atom_site_type_symbol
_atom_site_fract_x
_atom_site_fract_y
_atom_site_fract_z
_atom_type_partial_charge
In0 In 0.02894 0.3392 0.17278 0.0
O1 O 0.04025 0.29419 0.19202 0.0
O2 O 0.9988 0.31269 0.20249 0.0
C3 C 0.06883 0.34203 0.12925 0.0
C4 C 0.05373 0.37512 0.21288 0.0
C5 C 0.9795 0.34507 0.14098 0.0
O6 O 0.06001 0.31798 0.13996 0.0
O7 O 0.05759 0.36462 0.14068 0.0
O8 O 0.98221 0.35689 0.16595 0.0
O9 O 0.00159 0.33105 0.13215 0.0
C10 C 0.01647 0.29175 0.20601 0.0
O11 O 0.03213 0.38342 0.19754 0.0
O12 O 0.06197 0.34925 0.20795 0.0
In13 In 0.65896 0.02813 0.17207 0.0
O14 O 0.61695 0.03048 0.20035 0.0
O15 O 0.64621 0.06684 0.19954 0.0
C16 C 0.65631 0.9784 0.14048 0.0
C17 C 0.70217 0.01429 0.20985 0.0
C18 C 0.65739 0.06572 0.12653 0.0
O19 O 0.63469 0.98731 0.15551 0.0
O20 O 0.67873 0.99456 0.14163 0.0
O21 O 0.68079 0.06008 0.14036 0.0
O22 O 0.63503 0.05215 0.13557 0.0
C23 C 0.62249 0.0563 0.20899 0.0
O24 O 0.70358 0.03655 0.19337 0.0
O25 O 0.67896 0.99941 0.20745 0.0
In26 In 0.97795 0.65795 0.17365 0.0
O27 O 0.97587 0.70506 0.19049 0.0
O28 O 0.99797 0.67313 0.21654 0.0
C29 C 0.94038 0.65974 0.12787 0.0
C30 C 0.94894 0.62156 0.21 0.0
C31 C 0.03032 0.655 0.14624 0.0
O32 O 0.94504 0.68159 0.14425 0.0
O33 O 0.9548 0.63711 0.13454 0.0
O34 O 0.01752 0.63223 0.15559 0.0
O35 O 0.0167 0.67856 0.15075 0.0
C36 C 0.98995 0.69949 0.21374 0.0
O37 O 0.97425 0.61531 0.20038 0.0
O38 O 0.93875 0.64563 0.20095 0.0
In39 In 0.34064 0.97198 0.17057 0.0
O40 O 0.38356 0.96933 0.19725 0.0
O41 O 0.35399 0.93316 0.19775 0.0
C42 C 0.34166 0.0227 0.14005 0.0
C43 C 0.29906 0.98539 0.21027 0.0
C44 C 0.33982 0.93275 0.12634 0.0
O45 O 0.36453 0.01261 0.15218 0.0
O46 O 0.31906 0.00723 0.14349 0.0
O47 O 0.3181 0.93686 0.14307 0.0
O48 O 0.36187 0.94855 0.13192 0.0
C49 C 0.37794 0.94379 0.20668 0.0
O50 O 0.29361 0.97032 0.18765 0.0
O51 O 0.32545 0.99338 0.21294 0.0
In52 In 0.0281 0.65885 0.82942 0.0
O53 O 0.03071 0.61541 0.80317 0.0
O54 O 0.06509 0.64661 0.79952 0.0
C55 C 0.97795 0.65759 0.86014 0.0
C56 C 0.01338 0.70248 0.79254 0.0
C57 C 0.06546 0.65637 0.87506 0.0
O58 O 0.98661 0.63576 0.84525 0.0
O59 O 0.99453 0.67978 0.85916 0.0
O60 O 0.0663 0.67697 0.85654 0.0
O61 O 0.04578 0.63745 0.87076 0.0
C62 C 0.05514 0.62207 0.79177 0.0
O63 O 0.03457 0.70474 0.81031 0.0
O64 O 0.99983 0.67837 0.79341 0.0
In65 In 0.3402 0.02782 0.83032 0.0
O66 O 0.29191 0.02851 0.81592 0.0
O67 O 0.32254 0.0052 0.78965 0.0
C68 C 0.34099 0.06872 0.87288 0.0
C69 C 0.37758 0.05531 0.79378 0.0
C70 C 0.34453 0.97871 0.86285 0.0
O71 O 0.31835 0.0633 0.85774 0.0
O72 O 0.36334 0.05379 0.86609 0.0
O73 O 0.35975 0.98221 0.83994 0.0
O74 O 0.32756 0.99957 0.86893 0.0
C75 C 0.29633 0.01315 0.7933 0.0
O76 O 0.38508 0.03239 0.80757 0.0
O77 O 0.35171 0.06384 0.79874 0.0
In78 In 0.97338 0.34196 0.83152 0.0
O79 O 0.97162 0.29433 0.81582 0.0
O80 O 0.99366 0.32562 0.78904 0.0
C81 C 0.93453 0.34324 0.8762 0.0
C82 C 0.94528 0.37854 0.79466 0.0
C83 C 0.02443 0.34495 0.86145 0.0
O84 O 0.93855 0.32065 0.86063 0.0
O85 O 0.95029 0.36492 0.86932 0.0
O86 O 0.01401 0.36691 0.84807 0.0
O87 O 0.00928 0.32196 0.85926 0.0
C88 C 0.9859 0.2993 0.79257 0.0
O89 O 0.97103 0.38398 0.80359 0.0
O90 O 0.93432 0.35509 0.80447 0.0
In91 In 0.66221 0.9727 0.82807 0.0
O92 O 0.70937 0.97197 0.81077 0.0
O93 O 0.6769 0.99523 0.78638 0.0
C94 C 0.66087 0.93457 0.87329 0.0
C95 C 0.62856 0.94263 0.79007 0.0
C96 C 0.65815 0.02373 0.85757 0.0
O97 O 0.68421 0.94014 0.85933 0.0
O98 O 0.63856 0.94834 0.86448 0.0
O99 O 0.63621 0.01258 0.84468 0.0
O100 O 0.68158 0.0093 0.85513 0.0
C101 C 0.70333 0.98719 0.78834 0.0
O102 O 0.62036 0.96712 0.80039 0.0
O103 O 0.65307 0.93376 0.79941 0.0
In104 In 0.17406 0.02603 0.3423 0.0
O105 O 0.20192 0.02807 0.38419 0.0
O106 O 0.20082 0.06522 0.35588 0.0
C107 C 0.14553 0.97427 0.34502 0.0
C108 C 0.21274 0.01463 0.29915 0.0
C109 C 0.12844 0.06369 0.34417 0.0
O110 O 0.15842 0.98504 0.3671 0.0
O111 O 0.14746 0.98946 0.32203 0.0
O112 O 0.14399 0.06026 0.32146 0.0
O113 O 0.13586 0.04801 0.36571 0.0
C114 C 0.21069 0.05393 0.37917 0.0
O115 O 0.18929 0.02871 0.29459 0.0
O116 O 0.21665 0.00663 0.32535 0.0
In117 In 0.97489 0.16923 0.33971 0.0
O118 O 0.96629 0.18986 0.29494 0.0
O119 O 0.00506 0.20244 0.31782 0.0
C120 C 0.93595 0.12449 0.33924 0.0
C121 C 0.94971 0.21007 0.37443 0.0
C122 C 0.02496 0.13816 0.34407 0.0
O123 O 0.94401 0.13771 0.31631 0.0
O124 O 0.94729 0.1341 0.36257 0.0
O125 O 0.01495 0.15275 0.36549 0.0
O126 O 0.00974 0.13944 0.32103 0.0
C127 C 0.98942 0.20514 0.2951 0.0
O128 O 0.97191 0.19572 0.38293 0.0
O129 O 0.94064 0.20335 0.34923 0.0
In130 In 0.82945 0.97136 0.33847 0.0
O131 O 0.80261 0.9678 0.38148 0.0
O132 O 0.79781 0.93527 0.3484 0.0
C133 C 0.86086 0.02126 0.33973 0.0
C134 C 0.79153 0.98501 0.29544 0.0
C135 C 0.87458 0.9332 0.33893 0.0
O136 O 0.84595 0.01299 0.36173 0.0
O137 O 0.85978 0.00427 0.31794 0.0
O138 O 0.86077 0.93987 0.31585 0.0
O139 O 0.86539 0.94564 0.3619 0.0
C140 C 0.78993 0.94448 0.3732 0.0
O141 O 0.80759 0.96244 0.29446 0.0
O142 O 0.79487 0.00088 0.31789 0.0
In143 In 0.02919 0.82893 0.34151 0.0
O144 O 0.03194 0.81121 0.29468 0.0
O145 O 0.00657 0.78756 0.32616 0.0
C146 C 0.06935 0.87222 0.34378 0.0
C147 C 0.05539 0.79009 0.37702 0.0
C148 C 0.97849 0.85926 0.34152 0.0
O149 O 0.06428 0.85787 0.3206 0.0
O150 O 0.05405 0.86478 0.3656 0.0
O151 O 0.98722 0.84562 0.36408 0.0
O152 O 0.99538 0.85754 0.31974 0.0
C153 C 0.0161 0.78909 0.3002 0.0
O154 O 0.03238 0.80352 0.38503 0.0
O155 O 0.06501 0.7971 0.35203 0.0
In156 In 0.17034 0.97317 0.66212 0.0
O157 O 0.18573 0.97029 0.70978 0.0
O158 O 0.21172 0.99462 0.6794 0.0
C159 C 0.12582 0.93418 0.65935 0.0
C160 C 0.20971 0.94648 0.62716 0.0
C161 C 0.14135 0.02473 0.66111 0.0
O162 O 0.14046 0.93848 0.68249 0.0
O163 O 0.13364 0.94957 0.63774 0.0
O164 O 0.15431 0.01494 0.63858 0.0
O165 O 0.14305 0.00849 0.68336 0.0
C166 C 0.2084 0.9857 0.70541 0.0
O167 O 0.19735 0.97015 0.61942 0.0
O168 O 0.2015 0.93654 0.65165 0.0
In169 In 0.02866 0.17342 0.66191 0.0
O170 O 0.03199 0.2009 0.61969 0.0
O171 O 0.06736 0.20184 0.65017 0.0
C172 C 0.97768 0.1435 0.65767 0.0
C173 C 0.01492 0.21192 0.70455 0.0
C174 C 0.06723 0.12847 0.66234 0.0
O175 O 0.98945 0.15555 0.63561 0.0
O176 O 0.99135 0.1471 0.68139 0.0
O177 O 0.06251 0.1443 0.68459 0.0
O178 O 0.05256 0.13543 0.63995 0.0
C179 C 0.05709 0.21094 0.62613 0.0
O180 O 0.02983 0.18908 0.7095 0.0
O181 O 0.00713 0.2153 0.67818 0.0
In182 In 0.83103 0.02803 0.65867 0.0
O183 O 0.80405 0.03022 0.61595 0.0
O184 O 0.80657 0.06793 0.6435 0.0
C185 C 0.86028 0.97665 0.65875 0.0
C186 C 0.79021 0.01683 0.69993 0.0
C187 C 0.87651 0.0658 0.65745 0.0
O188 O 0.84807 0.98639 0.63578 0.0
O189 O 0.8575 0.99277 0.681 0.0
O190 O 0.85998 0.06317 0.67961 0.0
O191 O 0.87026 0.04906 0.63631 0.0
C192 C 0.79688 0.05675 0.6201 0.0
O193 O 0.81329 0.03114 0.70559 0.0
O194 O 0.78786 0.00839 0.67367 0.0
In195 In 0.97281 0.82767 0.66095 0.0
O196 O 0.96229 0.80571 0.70471 0.0
O197 O 0.00143 0.79295 0.68264 0.0
C198 C 0.93536 0.87352 0.6611 0.0
C199 C 0.94595 0.78998 0.62398 0.0
C200 C 0.02306 0.85859 0.65786 0.0
O201 O 0.9418 0.85935 0.68403 0.0
O202 O 0.94793 0.86456 0.63814 0.0
O203 O 0.01314 0.84458 0.636 0.0
O204 O 0.00769 0.85671 0.68078 0.0
C205 C 0.98491 0.78973 0.70462 0.0
O206 O 0.97145 0.79961 0.61867 0.0
O207 O 0.93483 0.79934 0.64747 0.0
In208 In 0.34136 0.17212 0.02792 0.0
O209 O 0.29738 0.19449 0.03684 0.0
O210 O 0.3226 0.20905 1.00028 0.0
C211 C 0.34047 0.12548 0.06429 0.0
C212 C 0.37883 0.20728 0.05715 0.0
C213 C 0.34249 0.14252 0.97687 0.0
O214 O 0.31798 0.14084 0.0591 0.0
O215 O 0.36332 0.13356 0.05088 0.0
O216 O 0.36517 0.15519 0.98681 0.0
O217 O 0.32004 0.14464 0.99287 0.0
C218 C 0.29936 0.21158 0.0151 0.0
O219 O 0.3841 0.19932 0.03105 0.0
O220 O 0.35496 0.19796 0.06747 0.0
In221 In 0.33964 0.82882 0.9724 0.0
O222 O 0.29135 0.81505 0.97053 0.0
O223 O 0.32223 0.78589 0.99012 0.0
C224 C 0.34199 0.87556 0.93648 0.0
C225 C 0.37793 0.79304 0.94515 0.0
C226 C 0.34014 0.85572 0.02487 0.0
O227 O 0.32361 0.85517 0.93269 0.0
O228 O 0.35885 0.87237 0.95813 0.0
O229 O 0.36304 0.84406 0.01426 0.0
O230 O 0.31749 0.85331 0.00917 0.0
C231 C 0.29587 0.79078 0.9832 0.0
O232 O 0.3827 0.80226 0.97093 0.0
O233 O 0.35455 0.80233 0.93369 0.0
In234 In 0.17302 0.34204 0.97458 0.0
O235 O 0.19421 0.29771 0.96514 0.0
O236 O 0.20857 0.32133 0.00285 0.0
C237 C 0.12711 0.34392 0.9373 0.0
C238 C 0.21047 0.37737 0.94552 0.0
C239 C 0.14269 0.34468 0.02516 0.0
O240 O 0.14017 0.3203 0.94368 0.0
O241 O 0.13704 0.36639 0.95004 0.0
O242 O 0.15826 0.36599 0.01637 0.0
O243 O 0.14267 0.32265 0.00842 0.0
C244 C 0.21109 0.29871 0.98711 0.0
O245 O 0.20064 0.38449 0.97054 0.0
O246 O 0.20171 0.35286 0.93631 0.0
In247 In 0.66133 0.17052 0.97255 0.0
O248 O 0.61956 0.19862 0.96783 0.0
O249 O 0.6523 0.20039 0.93454 0.0
C250 C 0.65736 0.14083 0.0235 0.0
C251 C 0.70464 0.20793 0.98703 0.0
C252 C 0.65884 0.12593 0.93375 0.0
O253 O 0.63579 0.15497 0.01318 0.0
O254 O 0.68036 0.14207 0.00825 0.0
O255 O 0.682 0.14055 0.93818 0.0
O256 O 0.63715 0.13379 0.94901 0.0
C257 C 0.62786 0.20962 0.94367 0.0
O258 O 0.70926 0.18536 0.97157 0.0
O259 O 0.67835 0.21144 0.99504 0.0
In260 In 0.83197 0.66201 0.97625 0.0
O261 O 0.8056 0.61874 0.9743 0.0
O262 O 0.79954 0.65086 0.94101 0.0
C263 C 0.86372 0.66047 0.02593 0.0
C264 C 0.7946 0.7055 0.99 0.0
C265 C 0.87629 0.65993 0.93709 0.0
O266 O 0.84907 0.63847 0.01734 0.0
O267 O 0.86235 0.68258 0.00938 0.0
O268 O 0.86347 0.68358 0.94375 0.0
O269 O 0.86679 0.63757 0.9503 0.0
C270 C 0.79262 0.62597 0.95081 0.0
O271 O 0.81017 0.7061 0.96705 0.0
O272 O 0.79786 0.68303 0.00585 0.0
In273 In 0.66126 0.82978 0.02763 0.0
O274 O 0.7055 0.80903 0.03862 0.0
O275 O 0.68355 0.7948 0.99991 0.0
C276 C 0.65868 0.87542 0.06522 0.0
C277 C 0.62464 0.79135 0.05392 0.0
C278 C 0.65907 0.86022 0.977 0.0
O279 O 0.68246 0.86265 0.0589 0.0
O280 O 0.63636 0.86524 0.05243 0.0
O281 O 0.63761 0.84498 0.98589 0.0
O282 O 0.6812 0.85985 0.99361 0.0
C283 C 0.70564 0.79241 0.01644 0.0
O284 O 0.61868 0.80221 0.02905 0.0
O285 O 0.64865 0.79983 0.06468 0.0
In286 In 0.17241 0.65849 0.02664 0.0
O287 O 0.19568 0.61403 0.03219 0.0
O288 O 0.20629 0.64908 0.06116 0.0
C289 C 0.13997 0.65315 0.97755 0.0
C290 C 0.20794 0.70295 0.01061 0.0
C291 C 0.13139 0.65656 0.06898 0.0
O292 O 0.1636 0.63906 0.98092 0.0
O293 O 0.13278 0.66923 0.99879 0.0
O294 O 0.14602 0.67949 0.06338 0.0
O295 O 0.13761 0.63467 0.05316 0.0
C296 C 0.21083 0.62282 0.05378 0.0
O297 O 0.18565 0.70713 0.02657 0.0
O298 O 0.21178 0.67677 0.00269 0.0
In299 In 0.8302 0.33861 0.03022 0.0
O300 O 0.8165 0.29025 0.02984 0.0
O301 O 0.78803 0.32175 0.01024 0.0
C302 C 0.87623 0.34104 0.06728 0.0
C303 C 0.79231 0.37357 0.05908 0.0
C304 C 0.85813 0.34231 0.97834 0.0
O305 O 0.85708 0.32106 0.06896 0.0
O306 O 0.87232 0.3593 0.0469 0.0
O307 O 0.8453 0.36421 0.98966 0.0
O308 O 0.85623 0.31889 0.99297 0.0
C309 C 0.79261 0.2952 0.01657 0.0
O310 O 0.80226 0.38069 0.03411 0.0
O311 O 0.80229 0.34984 0.06913 0.0
In312 In 0.52918 0.83913 0.67046 0.0
O313 O 0.5347 0.8814 0.69755 0.0
O314 O 0.56894 0.84957 0.69739 0.0
C315 C 0.47793 0.84058 0.64111 0.0
C316 C 0.51591 0.79843 0.71095 0.0
C317 C 0.56657 0.84078 0.6248 0.0
O318 O 0.48784 0.86309 0.65407 0.0
O319 O 0.49381 0.81809 0.64325 0.0
O320 O 0.56241 0.81774 0.63972 0.0
O321 O 0.55169 0.86268 0.63287 0.0
C322 C 0.55994 0.87402 0.7067 0.0
O323 O 0.53101 0.79234 0.68846 0.0
O324 O 0.50743 0.82473 0.71266 0.0
In325 In 0.16339 0.528 0.67284 0.0
O326 O 0.12078 0.52846 0.70034 0.0
O327 O 0.14965 0.56507 0.7019 0.0
C328 C 0.1632 0.47787 0.64192 0.0
C329 C 0.20682 0.51677 0.71117 0.0
C330 C 0.16084 0.56562 0.62731 0.0
O331 O 0.14076 0.48641 0.65593 0.0
O332 O 0.1851 0.49469 0.64357 0.0
O333 O 0.18446 0.5602 0.64081 0.0
O334 O 0.13873 0.55189 0.63671 0.0
C335 C 0.12601 0.55372 0.71064 0.0
O336 O 0.20695 0.5392 0.69487 0.0
O337 O 0.18496 0.50007 0.708 0.0
In338 In 0.47581 0.15946 0.67401 0.0
O339 O 0.46895 0.20574 0.69203 0.0
O340 O 0.50409 0.18019 0.70933 0.0
C341 C 0.43836 0.15605 0.62848 0.0
C342 C 0.4485 0.12345 0.71232 0.0
C343 C 0.52599 0.15718 0.64322 0.0
O344 O 0.43795 0.17726 0.64632 0.0
O345 O 0.45779 0.13698 0.63333 0.0
O346 O 0.5172 0.13576 0.65863 0.0
O347 O 0.50945 0.17941 0.64361 0.0
C348 C 0.49032 0.20418 0.70964 0.0
O349 O 0.47366 0.11732 0.70231 0.0
O350 O 0.43797 0.14718 0.703 0.0
In351 In 0.83989 0.47034 0.67119 0.0
O352 O 0.88354 0.46853 0.69701 0.0
O353 O 0.85161 0.43514 0.70347 0.0
C354 C 0.84038 0.5199 0.63912 0.0
C355 C 0.79732 0.48414 0.70968 0.0
C356 C 0.84033 0.4313 0.62665 0.0
O357 O 0.86252 0.51195 0.65395 0.0
O358 O 0.81872 0.50276 0.64054 0.0
O359 O 0.81736 0.43773 0.64077 0.0
O360 O 0.86314 0.44445 0.63522 0.0
C361 C 0.87644 0.44518 0.7103 0.0
O362 O 0.79636 0.46122 0.69412 0.0
O363 O 0.81949 0.5002 0.70555 0.0
In364 In 0.52577 0.15861 0.33087 0.0
O365 O 0.53064 0.11557 0.30483 0.0
O366 O 0.56263 0.14925 0.29966 0.0
C367 C 0.47472 0.15512 0.36052 0.0
C368 C 0.51126 0.20041 0.29187 0.0
C369 C 0.56502 0.15865 0.37525 0.0
O370 O 0.48517 0.13333 0.34686 0.0
O371 O 0.48997 0.1781 0.35894 0.0
O372 O 0.55975 0.1811 0.35989 0.0
O373 O 0.55052 0.13619 0.36811 0.0
C374 C 0.55378 0.12417 0.29205 0.0
O375 O 0.52705 0.20583 0.31404 0.0
O376 O 0.50254 0.17422 0.28982 0.0
In377 In 0.84252 0.52563 0.32939 0.0
O378 O 0.88514 0.52838 0.30264 0.0
O379 O 0.85511 0.56415 0.30129 0.0
C380 C 0.84501 0.47463 0.35922 0.0
C381 C 0.80063 0.51327 0.28967 0.0
C382 C 0.8442 0.56403 0.37434 0.0
O383 O 0.86698 0.4847 0.34555 0.0
O384 O 0.8222 0.49009 0.35732 0.0
O385 O 0.82133 0.55993 0.35917 0.0
O386 O 0.86595 0.54868 0.36683 0.0
C387 C 0.87915 0.55355 0.29253 0.0
O388 O 0.79529 0.52817 0.31246 0.0
O389 O 0.82676 0.50447 0.2873 0.0
In390 In 0.47128 0.83808 0.32891 0.0
O391 O 0.46138 0.79416 0.30698 0.0
O392 O 0.50075 0.81627 0.29498 0.0
C393 C 0.43279 0.83925 0.37405 0.0
C394 C 0.44582 0.87435 0.2896 0.0
C395 C 0.52143 0.84057 0.36007 0.0
O396 O 0.4391 0.81606 0.36027 0.0
O397 O 0.44587 0.86186 0.36494 0.0
O398 O 0.5128 0.86183 0.3444 0.0
O399 O 0.50476 0.81848 0.35979 0.0
C400 C 0.48428 0.79432 0.29137 0.0
O401 O 0.46941 0.88136 0.30249 0.0
O402 O 0.43572 0.84967 0.2968 0.0
In403 In 0.15993 0.47342 0.33058 0.0
O404 O 0.2069 0.47252 0.31283 0.0
O405 O 0.17444 0.49563 0.28847 0.0
C406 C 0.16114 0.43418 0.3749 0.0
C407 C 0.12273 0.44495 0.29457 0.0
C408 C 0.1571 0.52384 0.36135 0.0
O409 O 0.18286 0.43854 0.35822 0.0
O410 O 0.13897 0.44974 0.36922 0.0
O411 O 0.13485 0.51322 0.34859 0.0
O412 O 0.1803 0.5092 0.35817 0.0
C413 C 0.20088 0.48767 0.29039 0.0
O414 O 0.11679 0.47024 0.30442 0.0
O415 O 0.14699 0.43464 0.30304 0.0
In416 In 0.67517 0.52949 0.84285 0.0
O417 O 0.70213 0.53102 0.8858 0.0
O418 O 0.70397 0.56708 0.85631 0.0
C419 C 0.64279 0.48023 0.84527 0.0
C420 C 0.71301 0.51491 0.79986 0.0
C421 C 0.63036 0.56807 0.84237 0.0
O422 O 0.65755 0.48911 0.86708 0.0
O423 O 0.64454 0.49623 0.82276 0.0
O424 O 0.64524 0.56213 0.81975 0.0
O425 O 0.63809 0.5544 0.86517 0.0
C426 C 0.71232 0.55626 0.88032 0.0
O427 O 0.69733 0.53771 0.79863 0.0
O428 O 0.70989 0.49982 0.82285 0.0
In429 In 0.47624 0.67252 0.84242 0.0
O430 O 0.47322 0.68928 0.7952 0.0
O431 O 0.49695 0.71473 0.82648 0.0
C432 C 0.43858 0.62697 0.84462 0.0
C433 C 0.4478 0.70957 0.87842 0.0
C434 C 0.52789 0.64385 0.84342 0.0
O435 O 0.44217 0.6422 0.8217 0.0
O436 O 0.45412 0.63468 0.86617 0.0
O437 O 0.51761 0.65601 0.86618 0.0
O438 O 0.51215 0.64635 0.82086 0.0
C439 C 0.48808 0.71215 0.80038 0.0
O440 O 0.47316 0.70003 0.88465 0.0
O441 O 0.43735 0.7001 0.85459 0.0
In442 In 0.33227 0.47396 0.84169 0.0
O443 O 0.311 0.46656 0.79704 0.0
O444 O 0.29741 0.50368 0.82199 0.0
C445 C 0.37742 0.43569 0.84079 0.0
C446 C 0.29291 0.44619 0.87608 0.0
C447 C 0.36351 0.52387 0.84559 0.0
O448 O 0.36341 0.44293 0.81801 0.0
O449 O 0.36858 0.44778 0.86406 0.0
O450 O 0.3496 0.51365 0.86739 0.0
O451 O 0.36143 0.50893 0.82241 0.0
C452 C 0.29474 0.48894 0.79869 0.0
O453 O 0.30462 0.47005 0.88417 0.0
O454 O 0.30149 0.43699 0.85151 0.0
In455 In 0.53132 0.33073 0.83928 0.0
O456 O 0.54103 0.30993 0.79481 0.0
O457 O 0.5034 0.29517 0.81839 0.0
C458 C 0.56792 0.377 0.84208 0.0
C459 C 0.56002 0.29309 0.87466 0.0
C460 C 0.48067 0.36081 0.84075 0.0
O461 O 0.5624 0.36384 0.81829 0.0
O462 O 0.55477 0.36691 0.86424 0.0
O463 O 0.48958 0.34637 0.8628 0.0
O464 O 0.49739 0.35999 0.81873 0.0
C465 C 0.51909 0.29299 0.79567 0.0
O466 O 0.5346 0.30229 0.88119 0.0
O467 O 0.56988 0.30259 0.85066 0.0
In468 In 0.67163 0.47267 0.16137 0.0
O469 O 0.69903 0.46742 0.11918 0.0
O470 O 0.6979 0.43258 0.15026 0.0
C471 C 0.64224 0.52384 0.1572 0.0
C472 C 0.71194 0.48617 0.20233 0.0
C473 C 0.62622 0.43478 0.16257 0.0
O474 O 0.65464 0.5123 0.13519 0.0
O475 O 0.64519 0.50975 0.18077 0.0
O476 O 0.64205 0.4398 0.18478 0.0
O477 O 0.63329 0.449 0.1399 0.0
C478 C 0.70758 0.44188 0.12607 0.0
O479 O 0.68895 0.47191 0.20847 0.0
O480 O 0.71426 0.49378 0.17581 0.0
In481 In 0.52749 0.67104 0.15862 0.0
O482 O 0.52981 0.69849 0.116 0.0
O483 O 0.56433 0.70167 0.14717 0.0
C484 C 0.47773 0.6393 0.15604 0.0
C485 C 0.51314 0.70828 0.20217 0.0
C486 C 0.56605 0.62616 0.15696 0.0
O487 O 0.48698 0.65381 0.13421 0.0
O488 O 0.49352 0.64103 0.17869 0.0
O489 O 0.56003 0.63977 0.18037 0.0
O490 O 0.55248 0.63516 0.1346 0.0
C491 C 0.55425 0.70983 0.12276 0.0
O492 O 0.5356 0.69205 0.20341 0.0
O493 O 0.4982 0.70584 0.17898 0.0
In494 In 0.32906 0.52629 0.16057 0.0
O495 O 0.31227 0.52926 0.20792 0.0
O496 O 0.28585 0.50741 0.17615 0.0
C497 C 0.375 0.5636 0.15849 0.0
C498 C 0.29315 0.55448 0.12325 0.0
C499 C 0.35735 0.47441 0.15818 0.0
O500 O 0.35965 0.56026 0.18138 0.0
O501 O 0.36726 0.54795 0.13704 0.0
O502 O 0.345 0.48542 0.13591 0.0
O503 O 0.35493 0.48938 0.18128 0.0
C504 C 0.28871 0.51567 0.2024 0.0
O505 O 0.30126 0.52832 0.11863 0.0
O506 O 0.30338 0.56593 0.14631 0.0
In507 In 0.47301 0.32842 0.1623 0.0
O508 O 0.47015 0.3116 0.20948 0.0
O509 O 0.49469 0.28677 0.17827 0.0
C510 C 0.43331 0.37217 0.15982 0.0
C511 C 0.4466 0.28943 0.12688 0.0
C512 C 0.52402 0.3584 0.16171 0.0
O513 O 0.43797 0.35765 0.18298 0.0
O514 O 0.44878 0.36466 0.13816 0.0
O515 O 0.51447 0.34549 0.13905 0.0
O516 O 0.5079 0.356 0.184 0.0
C517 C 0.48539 0.28901 0.20427 0.0
O518 O 0.4702 0.30205 0.11926 0.0
O519 O 0.43656 0.29727 0.15145 0.0
In520 In 0.84046 0.66987 0.5276 0.0
O521 O 0.79671 0.69215 0.53721 0.0
O522 O 0.81959 0.70462 0.49841 0.0
C523 C 0.83944 0.62388 0.56497 0.0
C524 C 0.87681 0.70816 0.5544 0.0
C525 C 0.84426 0.63936 0.4772 0.0
O526 O 0.81656 0.6375 0.55736 0.0
O527 O 0.86284 0.63365 0.55392 0.0
O528 O 0.86603 0.65311 0.48763 0.0
O529 O 0.82105 0.64132 0.49211 0.0
C530 C 0.79735 0.70809 0.51454 0.0
O531 O 0.88359 0.69644 0.53016 0.0
O532 O 0.85225 0.70041 0.56444 0.0
In533 In 0.8424 0.32644 0.4724 0.0
O534 O 0.79821 0.30528 0.4621 0.0
O535 O 0.82192 0.28977 0.49926 0.0
C536 C 0.84397 0.37243 0.43541 0.0
C537 C 0.88012 0.29077 0.44415 0.0
C538 C 0.84278 0.35676 0.52309 0.0
O539 O 0.82062 0.35842 0.44073 0.0
O540 O 0.86627 0.36349 0.44916 0.0
O541 O 0.86525 0.34297 0.51426 0.0
O542 O 0.8209 0.35527 0.50624 0.0
C543 C 0.79915 0.28785 0.48363 0.0
O544 O 0.8849 0.2987 0.47036 0.0
O545 O 0.85648 0.30012 0.43336 0.0
In546 In 0.67167 0.83839 0.47097 0.0
O547 O 0.69929 0.88079 0.46776 0.0
O548 O 0.69949 0.85047 0.43228 0.0
C549 C 0.64093 0.84173 0.5212 0.0
C550 C 0.71002 0.79572 0.48489 0.0
C551 C 0.62555 0.83937 0.43393 0.0
O552 O 0.65543 0.86336 0.51148 0.0
O553 O 0.64217 0.81893 0.50559 0.0
O554 O 0.63871 0.81586 0.44058 0.0
O555 O 0.63555 0.86207 0.44617 0.0
C556 C 0.70839 0.87467 0.44222 0.0
O557 O 0.69372 0.79413 0.4625 0.0
O558 O 0.70714 0.8188 0.49987 0.0
In559 In 0.16065 0.67215 0.47453 0.0
O560 O 0.2047 0.694 0.46479 0.0
O561 O 0.18061 0.70851 0.50212 0.0
C562 C 0.15887 0.62604 0.43769 0.0
C563 C 0.12334 0.70795 0.44617 0.0
C564 C 0.15842 0.64126 0.52468 0.0
O565 O 0.18235 0.6399 0.44296 0.0
O566 O 0.13664 0.63528 0.45133 0.0
O567 O 0.13651 0.65558 0.51534 0.0
O568 O 0.18104 0.64288 0.50881 0.0
C569 C 0.20332 0.71117 0.48652 0.0
O570 O 0.11869 0.70047 0.47253 0.0
O571 O 0.14663 0.69797 0.43518 0.0
In572 In 0.33044 0.15724 0.47786 0.0
O573 O 0.30682 0.11312 0.47183 0.0
O574 O 0.29789 0.14799 0.44203 0.0
C575 C 0.36272 0.1518 0.52699 0.0
C576 C 0.29312 0.20039 0.49322 0.0
C577 C 0.37256 0.15541 0.43669 0.0
O578 O 0.33996 0.13652 0.52287 0.0
O579 O 0.36907 0.16926 0.50659 0.0
O580 O 0.3595 0.17895 0.44354 0.0
O581 O 0.36422 0.13295 0.4506 0.0
C582 C 0.29267 0.12188 0.44956 0.0
O583 O 0.31489 0.20515 0.4767 0.0
O584 O 0.29094 0.17442 0.50237 0.0
In585 In 0.16377 0.32947 0.52899 0.0
O586 O 0.21098 0.3127 0.5317 0.0
O587 O 0.17911 0.28625 0.50996 0.0
C588 C 0.16457 0.37516 0.56651 0.0
C589 C 0.12661 0.29345 0.55758 0.0
C590 C 0.16175 0.35751 0.47682 0.0
O591 O 0.18663 0.35894 0.56231 0.0
O592 O 0.1422 0.36829 0.55175 0.0
O593 O 0.13891 0.34705 0.48864 0.0
O594 O 0.18497 0.35354 0.4912 0.0
C595 C 0.2054 0.28916 0.51816 0.0
O596 O 0.12109 0.30265 0.53194 0.0
O597 O 0.15038 0.30275 0.56832 0.0
In598 In 0.6725 0.15921 0.52757 0.0
O599 O 0.6947 0.20323 0.53612 0.0
O600 O 0.7055 0.18019 0.4968 0.0
C601 C 0.62861 0.15774 0.56735 0.0
C602 C 0.71398 0.12477 0.55174 0.0
C603 C 0.64086 0.15749 0.47781 0.0
O604 O 0.64103 0.18131 0.55972 0.0
O605 O 0.63842 0.13505 0.55496 0.0
O606 O 0.65503 0.1353 0.48675 0.0
O607 O 0.64247 0.17971 0.49418 0.0
C608 C 0.70946 0.20257 0.51262 0.0
O609 O 0.69916 0.1161 0.52988 0.0
O610 O 0.70724 0.14986 0.56108 0.0
In611 In 0.3287 0.84206 0.52884 0.0
O612 O 0.30604 0.79831 0.53778 0.0
O613 O 0.29258 0.82289 0.50034 0.0
C614 C 0.37494 0.84082 0.56569 0.0
C615 C 0.29288 0.87914 0.55785 0.0
C616 C 0.35901 0.84284 0.47819 0.0
O617 O 0.3596 0.81842 0.56011 0.0
O618 O 0.36702 0.86382 0.55246 0.0
O619 O 0.34639 0.86567 0.48785 0.0
O620 O 0.35652 0.8205 0.49427 0.0
C621 C 0.28963 0.79991 0.51549 0.0
O622 O 0.30135 0.88479 0.53198 0.0
O623 O 0.30206 0.85517 0.568 0.0
C624 C 0.11164 0.39934 0.26702 0.0
C625 C 0.10352 0.42813 0.27441 0.0
C626 C 0.09507 0.3826 0.2475 0.0
C627 C 0.06958 0.39385 0.23425 0.0
H628 H 0.1312 0.38948 0.27628 0.0
H629 H 0.10265 0.36066 0.24256 0.0
S630 S 0.03807 0.46782 0.24667 0.0
N631 N 0.06777 0.46713 0.26745 0.0
N632 N 0.03649 0.43551 0.23036 0.0
C633 C 0.06084 0.42252 0.2416 0.0
C634 C 0.0778 0.43968 0.26177 0.0
C635 C 0.58304 0.05977 0.24753 0.0
C636 C 0.60309 0.07354 0.2285 0.0
C637 C 0.56646 0.07624 0.26773 0.0
C638 C 0.56946 0.10692 0.26946 0.0
H639 H 0.58079 0.03613 0.24741 0.0
H640 H 0.55185 0.06482 0.28258 0.0
S641 S 0.6157 0.15367 0.2214 0.0
N642 N 0.62265 0.11985 0.21064 0.0
N643 N 0.59172 0.15055 0.2483 0.0
C644 C 0.5884 0.12093 0.24955 0.0
C645 C 0.60516 0.1043 0.22915 0.0
C646 C 0.90529 0.61356 0.24161 0.0
C647 C 0.93223 0.60305 0.23087 0.0
C648 C 0.88864 0.59733 0.26152 0.0
C649 C 0.89805 0.56978 0.27163 0.0
H650 H 0.89687 0.63465 0.23469 0.0
H651 H 0.86807 0.60662 0.26899 0.0
S652 S 0.96696 0.53206 0.25025 0.0
N653 N 0.9677 0.56321 0.23177 0.0
N654 N 0.93615 0.53248 0.26933 0.0
C655 C 0.92496 0.55883 0.26112 0.0
C656 C 0.94208 0.57552 0.24073 0.0
C657 C 0.40606 0.8811 0.25303 0.0
C658 C 0.43042 0.89295 0.2678 0.0
C659 C 0.38982 0.89773 0.23313 0.0
C660 C 0.3971 0.92704 0.22696 0.0
H661 H 0.39919 0.85872 0.25697 0.0
H662 H 0.37115 0.88738 0.22265 0.0
S663 S 0.45931 0.96852 0.25913 0.0
N664 N 0.46152 0.93577 0.27449 0.0
N665 N 0.43078 0.96723 0.23681 0.0
C666 C 0.42173 0.93919 0.2411 0.0
C667 C 0.43842 0.9221 0.26156 0.0
C668 C 0.11423 0.59861 0.73882 0.0
C669 C 0.10652 0.56979 0.73108 0.0
C670 C 0.09723 0.615 0.75819 0.0
C671 C 0.0716 0.60343 0.77086 0.0
H672 H 0.13375 0.60884 0.72988 0.0
H673 H 0.10445 0.63704 0.76326 0.0
S674 S 0.04137 0.52901 0.75789 0.0
N675 N 0.0713 0.53021 0.73746 0.0
N676 N 0.03906 0.56128 0.77422 0.0
C677 C 0.06331 0.57468 0.76328 0.0
C678 C 0.08082 0.5578 0.74333 0.0
C679 C 0.38596 0.09701 0.75983 0.0
C680 C 0.3969 0.07151 0.77324 0.0
C681 C 0.40295 0.11329 0.74029 0.0
C682 C 0.43175 0.10487 0.7331 0.0
H683 H 0.36393 0.10467 0.76443 0.0
H684 H 0.39322 0.13272 0.73072 0.0
S685 S 0.47104 0.03979 0.76203 0.0
N686 N 0.43851 0.03842 0.77797 0.0
N687 N 0.47064 0.06923 0.74091 0.0
C688 C 0.44313 0.07936 0.7462 0.0
C689 C 0.42569 0.06265 0.76634 0.0
C690 C 0.88285 0.40621 0.74772 0.0
C691 C 0.89496 0.43004 0.73234 0.0
C692 C 0.8993 0.39027 0.76799 0.0
C693 C 0.92872 0.39734 0.77392 0.0
H694 H 0.86034 0.39952 0.74401 0.0
H695 H 0.88876 0.37202 0.77895 0.0
S696 S 0.97091 0.45825 0.74018 0.0
N697 N 0.93815 0.46046 0.72482 0.0
N698 N 0.96932 0.43028 0.76318 0.0
C699 C 0.94115 0.42145 0.75915 0.0
C700 C 0.92423 0.43784 0.73831 0.0
C701 C 0.58275 0.934 0.7604 0.0
C702 C 0.61135 0.92548 0.76838 0.0
C703 C 0.56623 0.91752 0.74018 0.0
C704 C 0.57776 0.89198 0.72721 0.0
H705 H 0.57294 0.95337 0.77 0.0
H706 H 0.54419 0.9247 0.73492 0.0
S707 S 0.6522 0.86109 0.73961 0.0
N708 N 0.65079 0.89029 0.76088 0.0
N709 N 0.62003 0.85961 0.72314 0.0
C710 C 0.60653 0.88355 0.7347 0.0
C711 C 0.62322 0.90022 0.75521 0.0
C712 C 0.23729 0.09974 0.39192 0.0
C713 C 0.23117 0.07024 0.39843 0.0
C714 C 0.25699 0.11601 0.40877 0.0
C715 C 0.27159 0.10355 0.43293 0.0
H716 H 0.22683 0.11052 0.37349 0.0
H717 H 0.26086 0.13861 0.40261 0.0
S718 S 0.26321 0.02713 0.45959 0.0
N719 N 0.24109 0.02913 0.43096 0.0
N720 N 0.27839 0.05987 0.46279 0.0
C721 C 0.26559 0.07411 0.43996 0.0
C722 C 0.24533 0.05742 0.4227 0.0
C723 C 0.9199 0.25255 0.44004 0.0
C724 C 0.90028 0.27226 0.42663 0.0
C725 C 0.93682 0.233 0.4231 0.0
C726 C 0.93461 0.23265 0.39227 0.0
H727 H 0.92142 0.2515 0.46373 0.0
H728 H 0.95088 0.21742 0.43422 0.0
S729 S 0.88996 0.28313 0.34655 0.0
N730 N 0.88218 0.29239 0.38065 0.0
N731 N 0.91373 0.25598 0.34908 0.0
C732 C 0.91628 0.2534 0.3787 0.0
C733 C 0.89918 0.27312 0.39581 0.0
C734 C 0.74477 0.91611 0.43774 0.0
C735 C 0.72765 0.89403 0.42457 0.0
C736 C 0.76449 0.93307 0.42103 0.0
C737 C 0.7676 0.92849 0.39064 0.0
H738 H 0.7435 0.91979 0.46118 0.0
H739 H 0.77786 0.9493 0.43207 0.0
S740 S 0.72495 0.87599 0.34514 0.0
N741 N 0.71327 0.87042 0.37892 0.0
N742 N 0.74988 0.90206 0.34776 0.0
C743 C 0.74962 0.90734 0.37713 0.0
C744 C 0.72976 0.89017 0.39403 0.0
C745 C 0.0684 0.76737 0.42562 0.0
C746 C 0.07017 0.76738 0.39479 0.0
C747 C 0.08488 0.74738 0.44243 0.0
C748 C 0.10351 0.72686 0.42883 0.0
H749 H 0.05507 0.78353 0.43682 0.0
H750 H 0.08382 0.74868 0.46613 0.0
S751 S 0.11187 0.71481 0.34872 0.0
N752 N 0.08925 0.7429 0.35141 0.0
N753 N 0.11999 0.70559 0.38275 0.0
C754 C 0.10406 0.72567 0.39802 0.0
C755 C 0.08743 0.74587 0.38105 0.0
C756 C 0.23463 0.93534 0.57903 0.0
C757 C 0.23249 0.93134 0.6096 0.0
C758 C 0.25487 0.91911 0.56222 0.0
C759 C 0.27357 0.89844 0.57551 0.0
H760 H 0.22001 0.95042 0.56794 0.0
H761 H 0.25522 0.92209 0.53865 0.0
S762 S 0.27956 0.88313 0.65533 0.0
N763 N 0.25293 0.90745 0.65269 0.0
N764 N 0.29069 0.87725 0.62141 0.0
C765 C 0.27256 0.89543 0.60622 0.0
C766 C 0.25209 0.91179 0.62318 0.0
C767 C 0.10044 0.24308 0.61816 0.0
C768 C 0.07361 0.23206 0.60766 0.0
C769 C 0.11703 0.26297 0.6018 0.0
C770 C 0.10765 0.27276 0.57408 0.0
H771 H 0.10887 0.23634 0.63933 0.0
H772 H 0.13755 0.2706 0.61105 0.0
S773 S 0.03889 0.25077 0.53644 0.0
N774 N 0.03821 0.23252 0.56774 0.0
N775 N 0.06961 0.27 0.53676 0.0
C776 C 0.08081 0.26204 0.5632 0.0
C777 C 0.06375 0.24169 0.58003 0.0
C778 C 0.75767 0.05997 0.58131 0.0
C779 C 0.77809 0.07384 0.59988 0.0
C780 C 0.73752 0.07648 0.56469 0.0
C781 C 0.73726 0.10732 0.56618 0.0
H782 H 0.75648 0.03627 0.5805 0.0
H783 H 0.72138 0.06504 0.55154 0.0
S784 S 0.78942 0.15406 0.60776 0.0
N785 N 0.79895 0.12017 0.61607 0.0
N786 N 0.76142 0.15098 0.58505 0.0
C787 C 0.75873 0.12133 0.58334 0.0
C788 C 0.77907 0.10464 0.60014 0.0
C789 C 0.88387 0.74291 0.59568 0.0
C790 C 0.89549 0.72936 0.57054 0.0
C791 C 0.90044 0.76246 0.61236 0.0
C792 C 0.92951 0.76949 0.60478 0.0
H793 H 0.86164 0.73836 0.60276 0.0
H794 H 0.89022 0.77208 0.63153 0.0
S795 S 0.97048 0.74028 0.54081 0.0
N796 N 0.93793 0.72447 0.53857 0.0
N797 N 0.96933 0.7615 0.57016 0.0
C798 C 0.94151 0.75638 0.57953 0.0
C799 C 0.92446 0.73628 0.56236 0.0
C800 C 0.43483 0.26558 0.07844 0.0
C801 C 0.43163 0.26675 0.10914 0.0
C802 C 0.41844 0.24558 0.06151 0.0
C803 C 0.39844 0.22619 0.07484 0.0
H804 H 0.44931 0.28082 0.06737 0.0
H805 H 0.42071 0.24599 0.03787 0.0
S806 S 0.38567 0.21744 0.15482 0.0
N807 N 0.40947 0.24457 0.15229 0.0
N808 N 0.37892 0.20727 0.12076 0.0
C809 C 0.39633 0.22617 0.10562 0.0
C810 C 0.41287 0.24639 0.1227 0.0
C811 C 0.38668 0.75989 0.9029 0.0
C812 C 0.39699 0.77196 0.92935 0.0
C813 C 0.40331 0.73973 0.88703 0.0
C814 C 0.43115 0.73068 0.89672 0.0
H815 H 0.36538 0.76592 0.89428 0.0
H816 H 0.39411 0.73123 0.86683 0.0
S817 S 0.46861 0.75585 0.96449 0.0
N818 N 0.43697 0.77352 0.96465 0.0
N819 N 0.46855 0.7355 0.93451 0.0
C820 C 0.44193 0.74253 0.92314 0.0
C821 C 0.42478 0.76316 0.93952 0.0
C822 C 0.26491 0.43693 0.92297 0.0
C823 C 0.27091 0.42967 0.89353 0.0
C824 C 0.24498 0.42029 0.93976 0.0
C825 C 0.23047 0.39586 0.92766 0.0
H826 H 0.27599 0.45525 0.93323 0.0
H827 H 0.24132 0.42631 0.96245 0.0
S828 S 0.23668 0.36923 0.85084 0.0
N829 N 0.25929 0.39738 0.85262 0.0
N830 N 0.22226 0.36641 0.88387 0.0
C831 C 0.23575 0.38895 0.89803 0.0
C832 C 0.25586 0.40578 0.88105 0.0
C833 C 0.58113 0.23736 0.93346 0.0
C834 C 0.61084 0.23181 0.92704 0.0
C835 C 0.56472 0.25755 0.91679 0.0
C836 C 0.57751 0.27284 0.8932 0.0
H837 H 0.57034 0.2257 0.95112 0.0
H838 H 0.5418 0.26081 0.92212 0.0
S839 S 0.65532 0.2682 0.86925 0.0
N840 N 0.65277 0.24473 0.89663 0.0
N841 N 0.62225 0.28236 0.86561 0.0
C842 C 0.60743 0.26805 0.8872 0.0
C843 C 0.624 0.24762 0.90404 0.0
C844 C 0.73721 0.60263 0.89387 0.0
C845 C 0.73204 0.5729 0.90009 0.0
C846 C 0.75631 0.61939 0.91087 0.0
C847 C 0.7713 0.60724 0.93493 0.0
H848 H 0.72649 0.61324 0.87549 0.0
H849 H 0.75951 0.64212 0.90478 0.0
S850 S 0.76517 0.53045 0.96109 0.0
N851 N 0.74301 0.53193 0.93244 0.0
N852 N 0.77932 0.56363 0.96459 0.0
C853 C 0.76605 0.57763 0.94189 0.0
C854 C 0.74634 0.56041 0.92444 0.0
C855 C 0.59785 0.74134 0.11438 0.0
C856 C 0.57078 0.73074 0.10406 0.0
C857 C 0.61477 0.76074 0.09784 0.0
C858 C 0.6055 0.77059 0.07012 0.0
H859 H 0.60629 0.73459 0.13554 0.0
H860 H 0.63542 0.76805 0.10707 0.0
S861 S 0.53622 0.74966 0.03282 0.0
N862 N 0.53529 0.73157 0.06422 0.0
N863 N 0.56729 0.76835 0.03293 0.0
C864 C 0.57843 0.76031 0.05937 0.0
C865 C 0.56104 0.74034 0.07637 0.0
C866 C 0.24885 0.61735 0.09242 0.0
C867 C 0.23224 0.6044 0.06986 0.0
C868 C 0.26865 0.60098 0.10905 0.0
C869 C 0.27287 0.5709 0.1039 0.0
H870 H 0.24644 0.6404 0.09755 0.0
H871 H 0.28065 0.61213 0.12629 0.0
S872 S 0.23524 0.52635 0.04711 0.0
N873 N 0.22159 0.55964 0.04288 0.0
N874 N 0.25908 0.5287 0.0743 0.0
C875 C 0.2568 0.5576 0.08112 0.0
C876 C 0.23644 0.57439 0.06409 0.0
C877 C 0.74314 0.43649 0.08406 0.0
C878 C 0.72801 0.4241 0.108 0.0
C879 C 0.76372 0.42004 0.06795 0.0
C880 C 0.76994 0.39072 0.07533 0.0
H881 H 0.73942 0.45914 0.07803 0.0
H882 H 0.77517 0.4305 0.04995 0.0
S883 S 0.73435 0.34727 0.13442 0.0
N884 N 0.71941 0.38009 0.13697 0.0
N885 N 0.75787 0.3495 0.10703 0.0
C886 C 0.75435 0.37792 0.09872 0.0
C887 C 0.73345 0.39453 0.11495 0.0
C888 C 0.97468 0.23868 0.25444 0.0
C889 C 0.99704 0.22547 0.27106 0.0
C890 C 0.98123 0.2597 0.23296 0.0
C891 C 0.0104 0.26762 0.22677 0.0
H892 H 0.95189 0.23349 0.25873 0.0
H893 H 0.96328 0.27003 0.22129 0.0
S894 S 0.07701 0.23811 0.26297 0.0
N895 N 0.04953 0.22108 0.27933 0.0
N896 N 0.06189 0.2599 0.23829 0.0
C897 C 0.03302 0.25377 0.24248 0.0
C898 C 0.02632 0.23289 0.26483 0.0
C899 C 0.76379 0.02127 0.26526 0.0
C900 C 0.76968 0.99192 0.27262 0.0
C901 C 0.74244 0.02835 0.24424 0.0
C902 C 0.72567 0.00634 0.23064 0.0
H903 H 0.77586 0.03887 0.27571 0.0
H904 H 0.73851 0.05122 0.23918 0.0
S905 S 0.73254 0.92617 0.24253 0.0
N906 N 0.75744 0.94072 0.26446 0.0
N907 N 0.71655 0.95403 0.2258 0.0
C908 C 0.73134 0.97692 0.23788 0.0
C909 C 0.75358 0.9697 0.25866 0.0
C910 C 0.99871 0.75176 0.22793 0.0
C911 C 0.99666 0.72205 0.23601 0.0
C912 C 0.00558 0.77341 0.24871 0.0
C913 C 0.0098 0.76611 0.27836 0.0
H914 H 0.99535 0.75828 0.20532 0.0
H915 H 0.00709 0.79605 0.24165 0.0
S916 S 0.00707 0.6916 0.31078 0.0
N917 N 0.99992 0.68648 0.27564 0.0
N918 N 0.01192 0.72725 0.31475 0.0
C919 C 0.00769 0.73656 0.28674 0.0
C920 C 0.00137 0.71448 0.26553 0.0
C921 C 0.26393 0.00436 0.28309 0.0
C922 C 0.23416 0.00781 0.27583 0.0
C923 C 0.2848 0.99747 0.26162 0.0
C924 C 0.27652 0.99298 0.23225 0.0
H925 H 0.27123 0.00727 0.30552 0.0
H926 H 0.30753 0.99516 0.26817 0.0
S927 S 0.2013 0.99921 0.20192 0.0
N928 N 0.19743 0.00654 0.23719 0.0
N929 N 0.23657 0.99261 0.19693 0.0
C930 C 0.2468 0.99617 0.2247 0.0
C931 C 0.22563 0.00388 0.24647 0.0
C932 C 0.02766 0.7424 0.75794 0.0
C933 C 0.00554 0.72578 0.77153 0.0
C934 C 0.02078 0.7631 0.73623 0.0
C935 C 0.9915 0.7685 0.72813 0.0
H936 H 0.05048 0.73874 0.76346 0.0
H937 H 0.03848 0.77502 0.72577 0.0
S938 S 0.92553 0.73173 0.75823 0.0
N939 N 0.95325 0.71636 0.77578 0.0
N940 N 0.94023 0.75616 0.73588 0.0
C941 C 0.96915 0.75266 0.74221 0.0
C942 C 0.9762 0.73103 0.76368 0.0
C943 C 0.25975 0.99554 0.72091 0.0
C944 C 0.23007 0.9923 0.72855 0.0
C945 C 0.28098 0.00188 0.74217 0.0
C946 C 0.27322 0.00601 0.77173 0.0
H947 H 0.26671 0.99282 0.69835 0.0
H948 H 0.30363 0.00402 0.73528 0.0
S949 S 0.19834 1.00037 0.80299 0.0
N950 N 0.19389 0.9935 0.76768 0.0
N951 N 0.23377 0.0065 0.8076 0.0
C952 C 0.24356 0.00313 0.77966 0.0
C953 C 0.22199 0.99594 0.75807 0.0
C954 C 0.00279 0.26296 0.71981 0.0
C955 C 0.00745 0.23349 0.72756 0.0
C956 C 0.99602 0.28408 0.74108 0.0
C957 C 0.99288 0.27636 0.77077 0.0
H958 H 0.00482 0.26989 0.69717 0.0
H959 H 0.9929 0.30659 0.73414 0.0
S960 S 0.00223 0.20206 0.80242 0.0
N961 N 0.00847 0.19762 0.767 0.0
N962 N 0.99475 0.23721 0.80689 0.0
C963 C 0.99705 0.24691 0.7788 0.0
C964 C 0.00464 0.2255 0.75722 0.0
C965 C 0.77573 0.0067 0.75195 0.0
C966 C 0.76777 0.0099 0.7223 0.0
C967 C 0.75487 0.99885 0.77324 0.0
C968 C 0.72524 0.99476 0.76568 0.0
H969 H 0.79833 0.00972 0.75866 0.0
H970 H 0.76189 0.99636 0.79581 0.0
S971 S 0.69312 0.00098 0.69117 0.0
N972 N 0.72828 0.0083 0.68651 0.0
N973 N 0.689 0.99449 0.72656 0.0
C974 C 0.71698 0.99826 0.73619 0.0
C975 C 0.73827 0.00558 0.71447 0.0
C976 C 0.23883 0.26802 0.02293 0.0
C977 C 0.23276 0.27562 0.99366 0.0
C978 C 0.25992 0.24666 0.02971 0.0
C979 C 0.2763 0.23296 0.00747 0.0
H980 H 0.22706 0.27853 0.0407 0.0
H981 H 0.26395 0.24138 0.05253 0.0
S982 S 0.26883 0.24533 0.92741 0.0
N983 N 0.24438 0.26753 0.94229 0.0
N984 N 0.28487 0.22826 0.95505 0.0
C985 C 0.27048 0.24045 0.97814 0.0
C986 C 0.24845 0.26156 0.97121 0.0
C987 C 0.25838 0.71816 0.99667 0.0
C988 C 0.22929 0.72616 0.0031 0.0
C989 C 0.27964 0.73931 0.99027 0.0
C990 C 0.2725 0.76925 0.98933 0.0
H991 H 0.26498 0.69534 0.99713 0.0
H992 H 0.30185 0.7321 0.98585 0.0
S993 S 0.1994 0.80176 0.0039 0.0
N994 N 0.19437 0.76612 0.00812 0.0
N995 N 0.23431 0.80598 0.99512 0.0
C996 C 0.24341 0.77763 0.9952 0.0
C997 C 0.22182 0.75605 0.00239 0.0
C998 C 0.74121 0.27974 0.0068 0.0
C999 C 0.77098 0.27214 0.00942 0.0
C1000 C 0.71997 0.25868 0.99988 0.0
C1001 C 0.72777 0.22934 0.9946 0.0
H1002 H 0.73416 0.30213 0.01042 0.0
H1003 H 0.69729 0.26557 0.99824 0.0
S1004 S 0.8028 0.19815 0.99839 0.0
N1005 N 0.80724 0.23319 0.00642 0.0
N1006 N 0.76732 0.19365 0.99248 0.0
C1007 C 0.75749 0.22142 0.9969 0.0
C1008 C 0.7791 0.2428 0.00461 0.0
C1009 C 0.75784 0.74298 0.97471 0.0
C1010 C 0.77328 0.72872 0.99725 0.0
C1011 C 0.73599 0.76365 0.98116 0.0
C1012 C 0.72948 0.77137 0.01031 0.0
H1013 H 0.76205 0.73751 0.95197 0.0
H1014 H 0.72414 0.77368 0.96317 0.0
S1015 S 0.76484 0.74138 0.07714 0.0
N1016 N 0.78112 0.72411 0.04977 0.0
N1017 N 0.74081 0.76378 0.06186 0.0
C1018 C 0.74541 0.75791 0.033 0.0
C1019 C 0.76711 0.73633 0.02646 0.0
C1020 C 0.49804 0.72611 0.7482 0.0
C1021 C 0.49472 0.73436 0.77775 0.0
C1022 C 0.50541 0.74688 0.72667 0.0
C1023 C 0.50887 0.77666 0.73389 0.0
H1024 H 0.49544 0.70339 0.74178 0.0
H1025 H 0.508 0.73965 0.70418 0.0
S1026 S 0.50192 0.80951 0.80801 0.0
N1027 N 0.49542 0.77426 0.81309 0.0
N1028 N 0.50832 0.81335 0.77257 0.0
C1029 C 0.50522 0.7852 0.76328 0.0
C1030 C 0.4984 0.76401 0.78524 0.0
C1031 C 0.25958 0.47448 0.75938 0.0
C1032 C 0.27343 0.49672 0.77562 0.0
C1033 C 0.238 0.48121 0.73853 0.0
C1034 C 0.23022 0.51044 0.73258 0.0
H1035 H 0.26488 0.45167 0.76338 0.0
H1036 H 0.22743 0.4634 0.72688 0.0
S1037 S 0.26084 0.57672 0.76832 0.0
N1038 N 0.27814 0.54912 0.78417 0.0
N1039 N 0.23837 0.56181 0.74411 0.0
C1040 C 0.24444 0.53291 0.7481 0.0
C1041 C 0.26584 0.52603 0.76989 0.0
C1042 C 0.48301 0.26521 0.76539 0.0
C1043 C 0.51238 0.2717 0.77228 0.0
C1044 C 0.47601 0.24408 0.74415 0.0
C1045 C 0.49815 0.2281 0.72989 0.0
H1046 H 0.46532 0.27655 0.7765 0.0
H1047 H 0.45313 0.23952 0.73961 0.0
S1048 S 0.57836 0.23706 0.73982 0.0
N1049 N 0.5637 0.26118 0.76253 0.0
N1050 N 0.55052 0.22053 0.72355 0.0
C1051 C 0.52757 0.2345 0.73644 0.0
C1052 C 0.5347 0.25659 0.75741 0.0
C1053 C 0.76823 0.52084 0.73798 0.0
C1054 C 0.7748 0.49136 0.73178 0.0
C1055 C 0.74762 0.5283 0.75957 0.0
C1056 C 0.73359 0.50654 0.7763 0.0
H1057 H 0.77901 0.53828 0.72595 0.0
H1058 H 0.74318 0.55127 0.76368 0.0
S1059 S 0.74317 0.42615 0.76862 0.0
N1060 N 0.76531 0.4403 0.74368 0.0
N1061 N 0.72737 0.45432 0.78501 0.0
C1062 C 0.73998 0.47699 0.77033 0.0
C1063 C 0.76037 0.46939 0.74784 0.0
C1064 C 0.50327 0.25266 0.27697 0.0
C1065 C 0.50416 0.22274 0.26947 0.0
C1066 C 0.49651 0.27409 0.25589 0.0
C1067 C 0.49132 0.26631 0.22651 0.0
H1068 H 0.50752 0.25953 0.29931 0.0
H1069 H 0.49596 0.2969 0.26248 0.0
S1070 S 0.49092 0.19111 0.19564 0.0
N1071 N 0.49878 0.18649 0.2307 0.0
N1072 N 0.48704 0.2268 0.19104 0.0
C1073 C 0.49224 0.23654 0.21874 0.0
C1074 C 0.4984 0.21472 0.24025 0.0
C1075 C 0.74855 0.50369 0.2751 0.0
C1076 C 0.77822 0.50675 0.2672 0.0
C1077 C 0.72719 0.49659 0.25406 0.0
C1078 C 0.73471 0.49316 0.22432 0.0
H1079 H 0.74189 0.50629 0.29776 0.0
H1080 H 0.70461 0.49417 0.26104 0.0
S1081 S 0.80925 0.49961 0.19232 0.0
N1082 N 0.81399 0.50592 0.22766 0.0
N1083 N 0.77381 0.49351 0.18806 0.0
C1084 C 0.76423 0.49658 0.21613 0.0
C1085 C 0.78601 0.50312 0.2376 0.0
C1086 C 0.52727 0.74249 0.24257 0.0
C1087 C 0.50521 0.72904 0.22574 0.0
C1088 C 0.5203 0.76357 0.26388 0.0
C1089 C 0.49098 0.77121 0.2697 0.0
H1090 H 0.55014 0.7373 0.2387 0.0
H1091 H 0.53797 0.77392 0.27594 0.0
S1092 S 0.42508 0.74146 0.23249 0.0
N1093 N 0.45287 0.72453 0.21657 0.0
N1094 N 0.43973 0.76332 0.25738 0.0
C1095 C 0.46869 0.75734 0.25359 0.0
C1096 C 0.47582 0.73647 0.23138 0.0
C1097 C 0.27405 0.50458 0.25416 0.0
C1098 C 0.26608 0.50958 0.22479 0.0
C1099 C 0.25286 0.49717 0.27529 0.0
C1100 C 0.22295 0.49532 0.26787 0.0
H1101 H 0.29686 0.50573 0.26072 0.0
H1102 H 0.25992 0.49313 0.29761 0.0
S1103 S 0.19074 0.50756 0.19413 0.0
N1104 N 0.22629 0.51259 0.18943 0.0
N1105 N 0.18646 0.4996 0.2292 0.0
C1106 C 0.2147 0.50088 0.23868 0.0
C1107 C 0.23628 0.50776 0.21711 0.0
C1108 C 0.76749 0.73604 0.4781 0.0
C1109 C 0.77417 0.72959 0.50754 0.0
C1110 C 0.74602 0.75688 0.4709 0.0
C1111 C 0.73121 0.7726 0.49288 0.0
H1112 H 0.77884 0.72479 0.46052 0.0
H1113 H 0.74156 0.76127 0.44797 0.0
S1114 S 0.74061 0.76382 0.57321 0.0
N1115 N 0.76385 0.7401 0.55876 0.0
N1116 N 0.72433 0.78007 0.54522 0.0
C1117 C 0.73768 0.76635 0.52237 0.0
C1118 C 0.75895 0.7446 0.5297 0.0
C1119 C 0.74811 0.2385 0.52683 0.0
C1120 C 0.73094 0.22543 0.50484 0.0
C1121 C 0.77024 0.25863 0.51971 0.0
C1122 C 0.77535 0.26698 0.49044 0.0
H1123 H 0.74501 0.23247 0.54962 0.0
H1124 H 0.78336 0.26782 0.53727 0.0
S1125 S 0.73526 0.24009 0.42497 0.0
N1126 N 0.72001 0.22254 0.45276 0.0
N1127 N 0.76086 0.26127 0.43944 0.0
C1128 C 0.75773 0.25469 0.46834 0.0
C1129 C 0.73572 0.23364 0.47553 0.0
C1130 C 0.25284 0.76204 0.52974 0.0
C1131 C 0.26852 0.77672 0.50765 0.0
C1132 C 0.2317 0.74085 0.52265 0.0
C1133 C 0.22626 0.73297 0.49331 0.0
H1134 H 0.2564 0.76749 0.55259 0.0
H1135 H 0.21965 0.73042 0.54028 0.0
S1136 S 0.26266 0.76402 0.42754 0.0
N1137 N 0.27768 0.78168 0.45538 0.0
N1138 N 0.23879 0.74097 0.44211 0.0
C1139 C 0.2424 0.74693 0.47109 0.0
C1140 C 0.26331 0.76908 0.47826 0.0
C1141 C 0.25708 0.27423 0.50712 0.0
C1142 C 0.22772 0.26643 0.51253 0.0
C1143 C 0.27823 0.25279 0.5006 0.0
C1144 C 0.27082 0.22286 0.50016 0.0
H1145 H 0.2636 0.29708 0.50731 0.0
H1146 H 0.30054 0.25966 0.49615 0.0
S1147 S 0.19707 0.19114 0.51383 0.0
N1148 N 0.19238 0.22685 0.51731 0.0
N1149 N 0.23213 0.18656 0.50602 0.0
C1150 C 0.24162 0.21483 0.50608 0.0
C1151 C 0.22005 0.23663 0.51201 0.0
C1152 C 0.095 0.31784 0.08775 0.0
C1153 C 0.08922 0.3434 0.10395 0.0
C1154 C 0.11258 0.3186 0.0626 0.0
C1155 C 0.12539 0.3449 0.05271 0.0
H1156 H 0.08535 0.29709 0.09415 0.0
H1157 H 0.11593 0.29832 0.0507 0.0
S1158 S 0.11849 0.41775 0.08822 0.0
N1159 N 0.0986 0.3957 0.10896 0.0
N1160 N 0.13197 0.39702 0.06175 0.0
C1161 C 0.12049 0.37053 0.06911 0.0
C1162 C 0.10231 0.36981 0.09469 0.0
C1163 C 0.68279 0.09571 0.08845 0.0
C1164 C 0.65645 0.08609 0.10124 0.0
C1165 C 0.68269 0.11381 0.06366 0.0
C1166 C 0.65626 0.12333 0.05083 0.0
H1167 H 0.70372 0.08876 0.09728 0.0
H1168 H 0.7036 0.1202 0.05435 0.0
S1169 S 0.58123 0.10554 0.07671 0.0
N1170 N 0.6031 0.08819 0.09979 0.0
N1171 N 0.60302 0.12254 0.05329 0.0
C1172 C 0.62973 0.11456 0.06382 0.0
C1173 C 0.62981 0.09583 0.08896 0.0
C1174 C 0.91153 0.63411 0.08879 0.0
C1175 C 0.9198 0.66043 0.10272 0.0
C1176 C 0.89266 0.63415 0.06447 0.0
C1177 C 0.88177 0.66054 0.0529 0.0
H1178 H 0.91977 0.61328 0.09666 0.0
H1179 H 0.88718 0.61343 0.05422 0.0
S1180 S 0.89556 0.7353 0.08202 0.0
N1181 N 0.91459 0.71349 0.10377 0.0
N1182 N 0.87956 0.7136 0.05787 0.0
C1183 C 0.88945 0.68696 0.06688 0.0
C1184 C 0.90834 0.6869 0.09184 0.0
C1185 C 0.36612 0.88506 0.06328 0.0
C1186 C 0.33995 0.87296 0.05237 0.0
C1187 C 0.36588 0.90413 0.08743 0.0
C1188 C 0.33953 0.91146 0.1018 0.0
H1189 H 0.38682 0.88056 0.05253 0.0
H1190 H 0.38651 0.91342 0.09469 0.0
S1191 S 0.26528 0.88387 0.08299 0.0
N1192 N 0.28713 0.86851 0.05856 0.0
N1193 N 0.28675 0.90398 0.1041 0.0
C1194 C 0.31335 0.89866 0.09171 0.0
C1195 C 0.31355 0.87952 0.06696 0.0
C1196 C 0.07328 0.65009 0.92857 0.0
C1197 C 0.08516 0.65484 0.90055 0.0
C1198 C 0.09135 0.64918 0.9534 0.0
C1199 C 0.12195 0.6518 0.95083 0.0
H1200 H 0.04978 0.64783 0.93138 0.0
H1201 H 0.08133 0.64642 0.97477 0.0
S1202 S 0.16386 0.66318 0.88215 0.0
N1203 N 0.12923 0.66187 0.87147 0.0
N1204 N 0.16345 0.65866 0.91813 0.0
C1205 C 0.13419 0.65566 0.92285 0.0
C1206 C 0.11568 0.6576 0.89766 0.0
C1207 C 0.36763 0.09692 0.91183 0.0
C1208 C 0.34105 0.08954 0.89787 0.0
C1209 C 0.36811 0.11488 0.93684 0.0
C1210 C 0.34199 0.12577 0.94904 0.0
H1211 H 0.38825 0.08842 0.90364 0.0
H1212 H 0.389 0.11952 0.94717 0.0
S1213 S 0.26675 0.11452 0.91987 0.0
N1214 N 0.28807 0.09587 0.89734 0.0
N1215 N 0.28893 0.12926 0.94439 0.0
C1216 C 0.31534 0.11923 0.93485 0.0
C1217 C 0.31488 0.10123 0.90925 0.0
C1218 C 0.88353 0.31752 0.9367 0.0
C1219 C 0.87557 0.34372 0.95096 0.0
C1220 C 0.902 0.31767 0.91213 0.0
C1221 C 0.91358 0.344 0.90107 0.0
H1222 H 0.87571 0.29659 0.94479 0.0
H1223 H 0.90777 0.29688 0.9022 0.0
S1224 S 0.8986 0.41876 0.92967 0.0
N1225 N 0.87983 0.39684 0.95154 0.0
N1226 N 0.91486 0.39717 0.90558 0.0
C1227 C 0.90532 0.37045 0.91472 0.0
C1228 C 0.8862 0.37031 0.93957 0.0
C1229 C 0.68526 0.88912 0.93855 0.0
C1230 C 0.65875 0.8777 0.94959 0.0
C1231 C 0.68582 0.90686 0.91346 0.0
C1232 C 0.65983 0.91426 0.89864 0.0
H1233 H 0.70585 0.88448 0.94948 0.0
H1234 H 0.70672 0.91539 0.90604 0.0
S1235 S 0.58475 0.88909 0.91776 0.0
N1236 N 0.60595 0.87419 0.94306 0.0
N1237 N 0.60688 0.90792 0.89614 0.0
C1238 C 0.63319 0.90262 0.90911 0.0
C1239 C 0.63268 0.88423 0.9345 0.0
C1240 C 0.09101 0.09454 0.31883 0.0
C1241 C 0.10297 0.08382 0.34513 0.0
C1242 C 0.06601 0.11237 0.31888 0.0
C1243 C 0.05223 0.12059 0.34526 0.0
H1244 H 0.10064 0.08862 0.29793 0.0
H1245 H 0.05735 0.11967 0.29799 0.0
S1246 S 0.07565 0.09956 0.42025 0.0
N1247 N 0.09963 0.08341 0.39843 0.0
N1248 N 0.05286 0.11739 0.39846 0.0
C1249 C 0.06438 0.11072 0.3718 0.0
C1250 C 0.08966 0.09219 0.37174 0.0
C1251 C 0.90396 0.08801 0.36515 0.0
C1252 C 0.91569 0.09908 0.33879 0.0
C1253 C 0.88565 0.06323 0.36532 0.0
C1254 C 0.87872 0.04842 0.33917 0.0
H1255 H 0.90908 0.09844 0.38587 0.0
H1256 H 0.87739 0.0553 0.38614 0.0
S1257 S 0.90314 0.06903 0.26417 0.0
N1258 N 0.9184 0.09371 0.28579 0.0
N1259 N 0.88435 0.0472 0.28606 0.0
C1260 C 0.88998 0.05954 0.31262 0.0
C1261 C 0.90836 0.08485 0.31244 0.0
C1262 C 0.91185 0.90303 0.36577 0.0
C1263 C 0.90013 0.91314 0.33903 0.0
C1264 C 0.93677 0.88497 0.36646 0.0
C1265 C 0.95108 0.87666 0.34044 0.0
H1266 H 0.90183 0.90928 0.38639 0.0
H1267 H 0.94524 0.87802 0.38755 0.0
S1268 S 0.92861 0.89637 0.26462 0.0
N1269 N 0.90427 0.91271 0.28584 0.0
N1270 N 0.9511 0.87909 0.28709 0.0
C1271 C 0.93929 0.88622 0.31353 0.0
C1272 C 0.91381 0.90436 0.31283 0.0
C1273 C 0.11839 0.93453 0.3191 0.0
C1274 C 0.12822 0.94681 0.34568 0.0
C1275 C 0.10008 0.90989 0.31872 0.0
C1276 C 0.09056 0.89676 0.34491 0.0
H1277 H 0.12454 0.94426 0.29831 0.0
H1278 H 0.09269 0.90161 0.29771 0.0
S1279 S 0.11151 0.91916 0.42036 0.0
N1280 N 0.12833 0.94298 0.39888 0.0
N1281 N 0.09356 0.89682 0.39821 0.0
C1282 C 0.10084 0.90827 0.37167 0.0
C1283 C 0.11979 0.93323 0.37204 0.0
C1284 C 0.06292 0.88562 0.68377 0.0
C1285 C 0.05026 0.87636 0.65717 0.0
C1286 C 0.08775 0.9037 0.68421 0.0
C1287 C 0.1007 0.9136 0.65805 0.0
H1288 H 0.05347 0.87902 0.70455 0.0
H1289 H 0.09644 0.91048 0.70526 0.0
S1290 S 0.07679 0.8948 0.58249 0.0
N1291 N 0.05319 0.87761 0.60394 0.0
N1292 N 0.09966 0.912 0.6047 0.0
C1293 C 0.0886 0.90414 0.63124 0.0
C1294 C 0.06347 0.88539 0.63081 0.0
C1295 C 0.11373 0.06471 0.63544 0.0
C1296 C 0.12444 0.05244 0.66161 0.0
C1297 C 0.09552 0.08952 0.63588 0.0
C1298 C 0.0877 0.10322 0.66247 0.0
H1299 H 0.11875 0.0546 0.61454 0.0
H1300 H 0.08729 0.09786 0.61521 0.0
S1301 S 0.11175 0.08078 0.73693 0.0
N1302 N 0.12705 0.05661 0.71477 0.0
N1303 N 0.09322 0.10334 0.71553 0.0
C1304 C 0.09909 0.09171 0.6887 0.0
C1305 C 0.11734 0.0663 0.68829 0.0
C1306 C 0.9356 0.11879 0.68238 0.0
C1307 C 0.95077 0.12537 0.65629 0.0
C1308 C 0.91129 0.09999 0.68242 0.0
C1309 C 0.90142 0.08666 0.65644 0.0
H1310 H 0.9427 0.12805 0.70308 0.0
H1311 H 0.90056 0.09542 0.70312 0.0
S1312 S 0.93295 0.0973 0.58205 0.0
N1313 N 0.95366 0.11775 0.60361 0.0
N1314 N 0.90818 0.08208 0.60366 0.0
C1315 C 0.91609 0.09341 0.63007 0.0
C1316 C 0.94067 0.11288 0.63 0.0
C1317 C 0.90651 0.91182 0.63428 0.0
C1318 C 0.91502 0.89889 0.66103 0.0
C1319 C 0.88806 0.93646 0.6336 0.0
C1320 C 0.8777 0.94925 0.65966 0.0
H1321 H 0.91433 0.90302 0.61365 0.0
H1322 H 0.88249 0.94594 0.61254 0.0
S1323 S 0.89229 0.92297 0.7354 0.0
N1324 N 0.91064 0.9001 0.71419 0.0
N1325 N 0.87626 0.9464 0.71296 0.0
C1326 C 0.88555 0.93618 0.68653 0.0
C1327 C 0.90413 0.91101 0.6872 0.0
C1328 C 0.36729 0.06203 0.11137 0.0
C1329 C 0.34111 0.04985 0.12218 0.0
C1330 C 0.36687 0.08655 0.09274 0.0
C1331 C 0.34028 0.09998 0.08448 0.0
H1332 H 0.38822 0.05221 0.11681 0.0
H1333 H 0.38758 0.09495 0.08466 0.0
S1334 S 0.26571 0.07741 0.1081 0.0
N1335 N 0.28788 0.05369 0.12409 0.0
N1336 N 0.28717 0.09975 0.08938 0.0
C1337 C 0.314 0.0884 0.09571 0.0
C1338 C 0.3144 0.06335 0.11446 0.0
C1339 C 0.3451 0.92426 0.86912 0.0
C1340 C 0.34595 0.95246 0.88153 0.0
C1341 C 0.34328 0.89924 0.88704 0.0
C1342 C 0.34324 0.90179 0.91777 0.0
H1343 H 0.34487 0.9216 0.84551 0.0
H1344 H 0.3422 0.87781 0.87684 0.0
S1345 S 0.34605 0.97064 0.96078 0.0
N1346 N 0.34668 0.98148 0.92621 0.0
N1347 N 0.34473 0.93447 0.95979 0.0
C1348 C 0.34484 0.9298 0.93034 0.0
C1349 C 0.3458 0.95518 0.9122 0.0
C1350 C 0.06328 0.31919 0.89008 0.0
C1351 C 0.05159 0.34567 0.87931 0.0
C1352 C 0.08794 0.31887 0.90838 0.0
C1353 C 0.1018 0.34503 0.91692 0.0
H1354 H 0.05315 0.29842 0.88455 0.0
H1355 H 0.09586 0.29792 0.91629 0.0
S1356 S 0.08068 0.42023 0.89386 0.0
N1357 N 0.0564 0.39873 0.87774 0.0
N1358 N 0.10267 0.3982 0.91238 0.0
C1359 C 0.09069 0.37168 0.90594 0.0
C1360 C 0.06565 0.37199 0.88705 0.0
C1361 C 0.68363 0.08982 0.90093 0.0
C1362 C 0.65755 0.10097 0.91298 0.0
C1363 C 0.68338 0.06523 0.88256 0.0
C1364 C 0.65701 0.05097 0.87518 0.0
H1365 H 0.70456 0.09976 0.90621 0.0
H1366 H 0.70415 0.05717 0.87431 0.0
S1367 S 0.58245 0.0722 0.89977 0.0
N1368 N 0.60438 0.09639 0.91546 0.0
N1369 N 0.60398 0.0503 0.88059 0.0
C1370 C 0.63064 0.06234 0.88633 0.0
C1371 C 0.63089 0.08727 0.90535 0.0
C1372 C 0.9398 0.68401 0.88912 0.0
C1373 C 0.95098 0.65738 0.87822 0.0
C1374 C 0.91525 0.68464 0.90758 0.0
C1375 C 0.90113 0.65864 0.9162 0.0
H1376 H 0.95021 0.70462 0.88351 0.0
H1377 H 0.9077 0.70567 0.91564 0.0
S1378 S 0.9211 0.58317 0.89302 0.0
N1379 N 0.94549 0.60438 0.87667 0.0
N1380 N 0.89953 0.60548 0.91168 0.0
C1381 C 0.91176 0.63186 0.9051 0.0
C1382 C 0.93661 0.63124 0.88601 0.0
C1383 C 0.68252 0.94045 0.11113 0.0
C1384 C 0.65595 0.95135 0.12249 0.0
C1385 C 0.68319 0.91561 0.09311 0.0
C1386 C 0.65727 0.90084 0.0854 0.0
H1387 H 0.7031 0.95125 0.11609 0.0
H1388 H 0.70418 0.90828 0.08475 0.0
S1389 S 0.58199 0.91981 0.11005 0.0
N1390 N 0.6031 0.94491 0.12542 0.0
N1391 N 0.60425 0.89835 0.0912 0.0
C1392 C 0.63053 0.91122 0.09687 0.0
C1393 C 0.62989 0.93641 0.11553 0.0
C1394 C 0.06606 0.62962 0.11322 0.0
C1395 C 0.05811 0.6545 0.12954 0.0
C1396 C 0.09031 0.63024 0.09426 0.0
C1397 C 0.1076 0.65568 0.09115 0.0
H1398 H 0.05278 0.60994 0.11416 0.0
H1399 H 0.09503 0.61085 0.08138 0.0
S1400 S 0.09811 0.72534 0.13217 0.0
N1401 N 0.07087 0.70435 0.14349 0.0
N1402 N 0.11652 0.70545 0.10817 0.0
C1403 C 0.10073 0.68017 0.10857 0.0
C1404 C 0.07596 0.67959 0.12769 0.0
C1405 C 0.95431 0.35168 0.09315 0.0
C1406 C 0.95243 0.34626 0.12342 0.0
C1407 C 0.92933 0.35052 0.07529 0.0
C1408 C 0.90185 0.34276 0.08692 0.0
H1409 H 0.97528 0.3568 0.0832 0.0
H1410 H 0.93168 0.35495 0.05205 0.0
S1411 S 0.88539 0.32636 0.16482 0.0
N1412 N 0.92094 0.33349 0.16445 0.0
N1413 N 0.87408 0.32992 0.13056 0.0
C1414 C 0.89967 0.33722 0.11715 0.0
C1415 C 0.92497 0.33936 0.13552 0.0
C1416 C 0.61416 0.81597 0.56132 0.0
C1417 C 0.62338 0.84251 0.54851 0.0
C1418 C 0.59635 0.81565 0.58635 0.0
C1419 C 0.5867 0.84186 0.59933 0.0
H1420 H 0.62062 0.79516 0.55186 0.0
H1421 H 0.58961 0.79466 0.5952 0.0
S1422 S 0.60544 0.91728 0.57494 0.0
N1423 N 0.62231 0.89572 0.55124 0.0
N1424 N 0.58845 0.8952 0.59809 0.0
C1425 C 0.59611 0.86861 0.58704 0.0
C1426 C 0.61457 0.86891 0.56171 0.0
C1427 C 0.18541 0.59548 0.58857 0.0
C1428 C 0.15936 0.58593 0.602 0.0
C1429 C 0.18475 0.61365 0.56382 0.0
C1430 C 0.15804 0.62332 0.55173 0.0
H1431 H 0.20653 0.58845 0.59687 0.0
H1432 H 0.20544 0.62004 0.55402 0.0
S1433 S 0.08361 0.60558 0.57937 0.0
N1434 N 0.106 0.58812 0.60185 0.0
N1435 N 0.10486 0.62261 0.55549 0.0
C1436 C 0.13181 0.61453 0.56532 0.0
C1437 C 0.13245 0.59573 0.59039 0.0
C1438 C 0.41073 0.14382 0.55127 0.0
C1439 C 0.3807 0.15022 0.55365 0.0
C1440 C 0.42911 0.14503 0.57588 0.0
C1441 C 0.41823 0.15385 0.60334 0.0
H1442 H 0.42007 0.13802 0.5302 0.0
H1443 H 0.45217 0.13993 0.57322 0.0
S1444 S 0.34117 0.17288 0.62086 0.0
N1445 N 0.34066 0.16492 0.58549 0.0
N1446 N 0.37553 0.16861 0.63162 0.0
C1447 C 0.38822 0.1603 0.60598 0.0
C1448 C 0.36933 0.15811 0.58111 0.0
C1449 C 0.86795 0.38392 0.56376 0.0
C1450 C 0.84188 0.37403 0.5506 0.0
C1451 C 0.86725 0.40214 0.58859 0.0
C1452 C 0.84048 0.41082 0.60138 0.0
H1453 H 0.88902 0.3782 0.55439 0.0
H1454 H 0.88789 0.40971 0.59763 0.0
S1455 S 0.76609 0.38903 0.57645 0.0
N1456 N 0.78857 0.37306 0.55301 0.0
N1457 N 0.78729 0.40693 0.59969 0.0
C1458 C 0.8143 0.40027 0.58894 0.0
C1459 C 0.815 0.38199 0.56355 0.0
C1460 C 0.59298 0.1322 0.41451 0.0
C1461 C 0.58586 0.15868 0.40024 0.0
C1462 C 0.61155 0.13176 0.43908 0.0
C1463 C 0.62332 0.15784 0.45051 0.0
H1464 H 0.5839 0.11163 0.40685 0.0
H1465 H 0.61603 0.11097 0.44967 0.0
S1466 S 0.61326 0.2327 0.42015 0.0
N1467 N 0.59349 0.21145 0.39852 0.0
N1468 N 0.62799 0.21065 0.44479 0.0
C1469 C 0.61699 0.18435 0.43604 0.0
C1470 C 0.59839 0.18477 0.41088 0.0
C1471 C 0.81889 0.59545 0.41135 0.0
C1472 C 0.84517 0.5845 0.39955 0.0
C1473 C 0.81898 0.61351 0.43619 0.0
C1474 C 0.84537 0.62169 0.44999 0.0
H1475 H 0.79798 0.58953 0.40174 0.0
H1476 H 0.79811 0.62096 0.44475 0.0
S1477 S 0.92031 0.60008 0.42694 0.0
N1478 N 0.89846 0.58386 0.40303 0.0
N1479 N 0.89856 0.6182 0.44952 0.0
C1480 C 0.87188 0.61159 0.43798 0.0
C1481 C 0.87179 0.59287 0.41284 0.0
C1482 C 0.38793 0.86767 0.43849 0.0
C1483 C 0.37598 0.84192 0.45049 0.0
C1484 C 0.40597 0.86664 0.41352 0.0
C1485 C 0.41245 0.83988 0.39947 0.0
H1486 H 0.384 0.88865 0.4489 0.0
H1487 H 0.4152 0.88698 0.40543 0.0
S1488 S 0.38422 0.76655 0.42078 0.0
N1489 N 0.37035 0.78912 0.44543 0.0
N1490 N 0.40392 0.78723 0.39854 0.0
C1491 C 0.39974 0.81412 0.4107 0.0
C1492 C 0.38161 0.81514 0.4362 0.0
C1493 C 0.13556 0.40705 0.41525 0.0
C1494 C 0.16154 0.41298 0.39957 0.0
C1495 C 0.1355 0.38817 0.43956 0.0
C1496 C 0.16149 0.37478 0.44931 0.0
H1497 H 0.11511 0.41735 0.40894 0.0
H1498 H 0.11513 0.38478 0.45132 0.0
S1499 S 0.23501 0.38143 0.41484 0.0
N1500 N 0.21364 0.4026 0.3947 0.0
N1501 N 0.21361 0.36744 0.44048 0.0
C1502 C 0.18746 0.37986 0.43337 0.0
C1503 C 0.18746 0.39886 0.40848 0.0
C1504 C 0.59132 0.5963 0.86876 0.0
C1505 C 0.60542 0.58891 0.84226 0.0
C1506 C 0.56685 0.61496 0.86917 0.0
C1507 C 0.5554 0.62664 0.84306 0.0
H1508 H 0.59901 0.58733 0.88938 0.0
H1509 H 0.55634 0.61954 0.88998 0.0
S1510 S 0.58532 0.61577 0.76807 0.0
N1511 N 0.60695 0.59609 0.78941 0.0
N1512 N 0.56091 0.63085 0.79013 0.0
C1513 C 0.56974 0.62008 0.81651 0.0
C1514 C 0.59476 0.6013 0.81612 0.0
C1515 C 0.40743 0.5895 0.81968 0.0
C1516 C 0.41834 0.60158 0.84585 0.0
C1517 C 0.38944 0.56461 0.82 0.0
C1518 C 0.38127 0.55103 0.84651 0.0
H1519 H 0.41329 0.59895 0.79868 0.0
H1520 H 0.38198 0.55588 0.79919 0.0
S1521 S 0.40282 0.57485 0.92123 0.0
N1522 N 0.419 0.59859 0.89916 0.0
N1523 N 0.38477 0.55201 0.89969 0.0
C1524 C 0.39137 0.5633 0.87291 0.0
C1525 C 0.41004 0.58849 0.87259 0.0
C1526 C 0.41571 0.406 0.86677 0.0
C1527 C 0.4027 0.41524 0.84029 0.0
C1528 C 0.44042 0.38763 0.86687 0.0
C1529 C 0.45321 0.37813 0.84049 0.0
H1530 H 0.40694 0.41324 0.88763 0.0
H1531 H 0.45 0.38148 0.88773 0.0
S1532 S 0.42659 0.39453 0.76526 0.0
N1533 N 0.40373 0.41224 0.78703 0.0
N1534 N 0.45019 0.37805 0.7872 0.0
C1535 C 0.44003 0.38664 0.81389 0.0
C1536 C 0.41476 0.40509 0.81379 0.0
C1537 C 0.59587 0.41733 0.81786 0.0
C1538 C 0.58778 0.40264 0.84372 0.0
C1539 C 0.61378 0.44224 0.81872 0.0
C1540 C 0.62464 0.4533 0.84544 0.0
H1541 H 0.58793 0.40982 0.79676 0.0
H1542 H 0.61911 0.45294 0.79818 0.0
S1543 S 0.61093 0.42216 0.91934 0.0
N1544 N 0.59257 0.4005 0.89685 0.0
N1545 N 0.62659 0.44719 0.89838 0.0
C1546 C 0.61722 0.43851 0.87145 0.0
C1547 C 0.59868 0.41325 0.87061 0.0
C1548 C 0.56331 0.38693 0.136 0.0
C1549 C 0.55124 0.37612 0.16222 0.0
C1550 C 0.58769 0.40573 0.13633 0.0
C1551 C 0.60114 0.41409 0.16288 0.0
H1552 H 0.55341 0.38147 0.11509 0.0
H1553 H 0.59592 0.41391 0.1156 0.0
S1554 S 0.57901 0.39026 0.2375 0.0
N1555 N 0.55527 0.37416 0.21542 0.0
N1556 N 0.60119 0.40912 0.21599 0.0
C1557 C 0.58978 0.40273 0.18919 0.0
C1558 C 0.56481 0.38385 0.18887 0.0
C1559 C 0.61567 0.56447 0.18233 0.0
C1560 C 0.62453 0.55106 0.15596 0.0
C1561 C 0.59729 0.58906 0.18236 0.0
C1562 C 0.58675 0.60111 0.15602 0.0
H1563 H 0.62275 0.55575 0.20327 0.0
H1564 H 0.59085 0.59831 0.20327 0.0
S1565 S 0.60424 0.57491 0.08087 0.0
N1566 N 0.62212 0.55222 0.10271 0.0
N1567 N 0.58732 0.59835 0.10268 0.0
C1568 C 0.59586 0.58828 0.12941 0.0
C1569 C 0.61483 0.56331 0.12939 0.0
C1570 C 0.43744 0.6132 0.18232 0.0
C1571 C 0.45073 0.62125 0.15562 0.0
C1572 C 0.41263 0.59506 0.18299 0.0
C1573 C 0.4004 0.58385 0.15701 0.0
H1574 H 0.44632 0.62093 0.20297 0.0
H1575 H 0.40334 0.58935 0.2041 0.0
S1576 S 0.4266 0.59873 0.08129 0.0
N1577 N 0.44945 0.61717 0.1025 0.0
N1578 N 0.4031 0.58265 0.10368 0.0
C1579 C 0.41329 0.59196 0.1301 0.0
C1580 C 0.43835 0.6108 0.12942 0.0
C1581 C 0.40168 0.4093 0.18464 0.0
C1582 C 0.41227 0.39686 0.15851 0.0
C1583 C 0.38339 0.43396 0.18417 0.0
C1584 C 0.37466 0.44696 0.15755 0.0
H1585 H 0.40816 0.40042 0.20571 0.0
H1586 H 0.37637 0.44314 0.20493 0.0
S1587 S 0.39465 0.42152 0.0829 0.0
N1588 N 0.41158 0.3985 0.10515 0.0
N1589 N 0.37689 0.44469 0.10431 0.0
C1590 C 0.38422 0.43413 0.13121 0.0
C1591 C 0.40313 0.40915 0.13168 0.0
C1592 C 0.8656 0.56226 0.61471 0.0
C1593 C 0.83959 0.54699 0.62113 0.0
C1594 C 0.86532 0.58722 0.59667 0.0
C1595 C 0.83898 0.59804 0.58469 0.0
H1596 H 0.88641 0.55464 0.62327 0.0
H1597 H 0.88595 0.59806 0.59205 0.0
S1598 S 0.76469 0.56659 0.59559 0.0
N1599 N 0.78661 0.54489 0.61452 0.0
N1600 N 0.78614 0.59181 0.58098 0.0
C1601 C 0.81275 0.58328 0.59138 0.0
C1602 C 0.81305 0.55775 0.60949 0.0
C1603 C 0.81918 0.43624 0.38835 0.0
C1604 C 0.84565 0.44754 0.37713 0.0
C1605 C 0.81885 0.41166 0.40675 0.0
C1606 C 0.845 0.3976 0.41496 0.0
H1607 H 0.79845 0.44658 0.38311 0.0
H1608 H 0.79794 0.404 0.41505 0.0
S1609 S 0.92009 0.41754 0.39049 0.0
N1610 N 0.89864 0.44204 0.37464 0.0
N1611 N 0.89808 0.39597 0.40953 0.0
C1612 C 0.87162 0.40831 0.40351 0.0
C1613 C 0.87193 0.43321 0.38449 0.0
C1614 C 0.55884 0.81487 0.39072 0.0
C1615 C 0.54874 0.84101 0.37773 0.0
C1616 C 0.58401 0.81444 0.40834 0.0
C1617 C 0.5999 0.84022 0.41401 0.0
H1618 H 0.54714 0.79446 0.38737 0.0
H1619 H 0.59071 0.79383 0.41806 0.0
S1620 S 0.58354 0.91426 0.38434 0.0
N1621 N 0.55729 0.8932 0.37095 0.0
N1622 N 0.60441 0.89251 0.40441 0.0
C1623 C 0.59034 0.86648 0.40086 0.0
C1624 C 0.56484 0.86684 0.38262 0.0
C1625 C 0.18365 0.58802 0.40704 0.0
C1626 C 0.15755 0.60074 0.41734 0.0
C1627 C 0.18314 0.56346 0.38863 0.0
C1628 C 0.15649 0.55078 0.37949 0.0
H1629 H 0.20474 0.59679 0.41362 0.0
H1630 H 0.20389 0.55424 0.38165 0.0
S1631 S 0.08188 0.57648 0.39924 0.0
N1632 N 0.10415 0.59931 0.41638 0.0
N1633 N 0.10327 0.55326 0.38151 0.0
C1634 C 0.13018 0.56364 0.38906 0.0
C1635 C 0.13068 0.58856 0.40807 0.0
C1636 C 0.43553 0.18065 0.38878 0.0
C1637 C 0.44731 0.15425 0.37793 0.0
C1638 C 0.41082 0.18082 0.40699 0.0
C1639 C 0.39704 0.15457 0.41537 0.0
H1640 H 0.44571 0.20146 0.3835 0.0
H1641 H 0.40298 0.20168 0.41519 0.0
S1642 S 0.418 0.0796 0.39151 0.0
N1643 N 0.44237 0.10122 0.37567 0.0
N1644 N 0.39601 0.10146 0.41022 0.0
C1645 C 0.40805 0.12802 0.40406 0.0
C1646 C 0.43313 0.12788 0.38524 0.0
C1647 C 0.13771 0.43814 0.61393 0.0
C1648 C 0.16391 0.45073 0.62417 0.0
C1649 C 0.13815 0.41359 0.59539 0.0
C1650 C 0.16478 0.40048 0.58682 0.0
H1651 H 0.11674 0.44772 0.61967 0.0
H1652 H 0.11743 0.4049 0.58764 0.0
S1653 S 0.23941 0.42417 0.60905 0.0
N1654 N 0.21719 0.4477 0.62526 0.0
N1655 N 0.21796 0.40139 0.59083 0.0
C1656 C 0.19109 0.41241 0.59758 0.0
C1657 C 0.19066 0.43759 0.61613 0.0
C1658 C 0.58863 0.18302 0.59494 0.0
C1659 C 0.60361 0.15698 0.58811 0.0
C1660 C 0.56382 0.1828 0.61306 0.0
C1661 C 0.55317 0.15657 0.62539 0.0
H1662 H 0.59571 0.20374 0.5857 0.0
H1663 H 0.55279 0.20341 0.61724 0.0
S1664 S 0.58549 0.08254 0.61572 0.0
N1665 N 0.60668 0.10429 0.59596 0.0
N1666 N 0.56022 0.10395 0.63034 0.0
C1667 C 0.56841 0.13044 0.61942 0.0
C1668 C 0.59356 0.13062 0.60069 0.0
C1669 C 0.43816 0.86677 0.61357 0.0
C1670 C 0.45057 0.84039 0.62356 0.0
C1671 C 0.41361 0.86671 0.59497 0.0
C1672 C 0.40036 0.84028 0.58597 0.0
H1673 H 0.4479 0.8876 0.61956 0.0
H1674 H 0.40507 0.88756 0.58747 0.0
S1675 S 0.42348 0.76526 0.6074 0.0
N1676 N 0.44709 0.78712 0.62398 0.0
N1677 N 0.40094 0.78708 0.58936 0.0
C1678 C 0.41211 0.81379 0.59646 0.0
C1679 C 0.4372 0.81383 0.61515 0.0
loop_
_geom_bond_atom_site_label_1
_geom_bond_atom_site_label_2
_geom_bond_distance
_geom_bond_site_symmetry_2
_ccdc_geom_bond_type
In0 O1 2.294 . S
In0 O2 2.326 . S
In0 O6 2.266 . S
In0 O7 2.326 . S
In0 O8 2.266 1_455 S
In0 O9 2.326 1_455 S
In0 O11 2.294 . S
In0 O12 2.326 . S
O1 In0 2.294 . S
O1 C10 1.240 . S
O2 In0 2.326 . S
O2 C10 1.252 . S
C3 O6 1.252 . S
C3 O7 1.260 . S
C4 O11 1.240 . S
C4 O12 1.252 . S
C5 O8 1.252 . S
C5 O9 1.260 . S
O6 In0 2.266 . S
O6 C3 1.252 . S
O7 In0 2.326 . S
O7 C3 1.260 . S
O8 In0 2.266 1_655 S
O8 C5 1.252 . S
O9 In0 2.326 1_655 S
O9 C5 1.260 . S
C10 O1 1.240 . S
C10 O2 1.252 . S
O11 In0 2.294 . S
O11 C4 1.240 . S
O12 In0 2.326 . S
O12 C4 1.252 . S
In13 O14 2.294 . S
In13 O15 2.326 . S
In13 O19 2.266 1_545 S
In13 O20 2.326 1_545 S
In13 O21 2.266 . S
In13 O22 2.326 . S
In13 O24 2.294 . S
In13 O25 2.326 . S
O14 In13 2.294 . S
O14 C23 1.240 . S
O15 In13 2.326 . S
O15 C23 1.252 . S
C16 O19 1.252 . S
C16 O20 1.260 . S
C17 O24 1.240 . S
C17 O25 1.252 . S
C18 O21 1.252 . S
C18 O22 1.260 . S
O19 In13 2.266 1_565 S
O19 C16 1.252 . S
O20 In13 2.326 1_565 S
O20 C16 1.260 . S
O21 In13 2.266 . S
O21 C18 1.252 . S
O22 In13 2.326 . S
O22 C18 1.260 . S
C23 O14 1.240 . S
C23 O15 1.252 . S
O24 In13 2.294 . S
O24 C17 1.240 . S
O25 In13 2.326 . S
O25 C17 1.252 . S
In26 O27 2.294 . S
In26 O28 2.326 . S
In26 O32 2.266 . S
In26 O33 2.326 . S
In26 O34 2.266 1_655 S
In26 O35 2.326 1_655 S
In26 O37 2.294 . S
In26 O38 2.326 . S
O27 In26 2.294 . S
O27 C36 1.240 . S
O28 In26 2.326 . S
O28 C36 1.252 . S
C29 O32 1.252 . S
C29 O33 1.260 . S
C30 O37 1.240 . S
C30 O38 1.252 . S
C31 O34 1.252 . S
C31 O35 1.260 . S
O32 In26 2.266 . S
O32 C29 1.252 . S
O33 In26 2.326 . S
O33 C29 1.260 . S
O34 In26 2.266 1_455 S
O34 C31 1.252 . S
O35 In26 2.326 1_455 S
O35 C31 1.260 . S
C36 O27 1.240 . S
C36 O28 1.252 . S
O37 In26 2.294 . S
O37 C30 1.240 . S
O38 In26 2.326 . S
O38 C30 1.252 . S
In39 O40 2.294 . S
In39 O41 2.326 . S
In39 O45 2.266 1_565 S
In39 O46 2.326 1_565 S
In39 O47 2.266 . S
In39 O48 2.326 . S
In39 O50 2.294 . S
In39 O51 2.326 . S
O40 In39 2.294 . S
O40 C49 1.240 . S
O41 In39 2.326 . S
O41 C49 1.252 . S
C42 O45 1.252 . S
C42 O46 1.260 . S
C43 O50 1.240 . S
C43 O51 1.252 . S
C44 O47 1.252 . S
C44 O48 1.260 . S
O45 In39 2.266 1_545 S
O45 C42 1.252 . S
O46 In39 2.326 1_545 S
O46 C42 1.260 . S
O47 In39 2.266 . S
O47 C44 1.252 . S
O48 In39 2.326 . S
O48 C44 1.260 . S
C49 O40 1.240 . S
C49 O41 1.252 . S
O50 In39 2.294 . S
O50 C43 1.240 . S
O51 In39 2.326 . S
O51 C43 1.252 . S
In52 O53 2.294 . S
In52 O54 2.326 . S
In52 O58 2.266 1_455 S
In52 O59 2.326 1_455 S
In52 O60 2.266 . S
In52 O61 2.326 . S
In52 O63 2.294 . S
In52 O64 2.326 . S
O53 In52 2.294 . S
O53 C62 1.240 . S
O54 In52 2.326 . S
O54 C62 1.252 . S
C55 O58 1.252 . S
C55 O59 1.260 . S
C56 O63 1.240 . S
C56 O64 1.252 . S
C57 O60 1.252 . S
C57 O61 1.260 . S
O58 In52 2.266 1_655 S
O58 C55 1.252 . S
O59 In52 2.326 1_655 S
O59 C55 1.260 . S
O60 In52 2.266 . S
O60 C57 1.252 . S
O61 In52 2.326 . S
O61 C57 1.260 . S
C62 O53 1.240 . S
C62 O54 1.252 . S
O63 In52 2.294 . S
O63 C56 1.240 . S
O64 In52 2.326 . S
O64 C56 1.252 . S
In65 O66 2.294 . S
In65 O67 2.326 . S
In65 O71 2.266 . S
In65 O72 2.326 . S
In65 O73 2.266 1_545 S
In65 O74 2.326 1_545 S
In65 O76 2.294 . S
In65 O77 2.326 . S
O66 In65 2.294 . S
O66 C75 1.240 . S
O67 In65 2.326 . S
O67 C75 1.252 . S
C68 O71 1.252 . S
C68 O72 1.260 . S
C69 O76 1.240 . S
C69 O77 1.252 . S
C70 O73 1.252 . S
C70 O74 1.260 . S
O71 In65 2.266 . S
O71 C68 1.252 . S
O72 In65 2.326 . S
O72 C68 1.260 . S
O73 In65 2.266 1_565 S
O73 C70 1.252 . S
O74 In65 2.326 1_565 S
O74 C70 1.260 . S
C75 O66 1.240 . S
C75 O67 1.252 . S
O76 In65 2.294 . S
O76 C69 1.240 . S
O77 In65 2.326 . S
O77 C69 1.252 . S
In78 O79 2.294 . S
In78 O80 2.326 . S
In78 O84 2.266 . S
In78 O85 2.326 . S
In78 O86 2.266 1_655 S
In78 O87 2.326 1_655 S
In78 O89 2.294 . S
In78 O90 2.326 . S
O79 In78 2.294 . S
O79 C88 1.240 . S
O80 In78 2.326 . S
O80 C88 1.252 . S
C81 O84 1.252 . S
C81 O85 1.260 . S
C82 O89 1.240 . S
C82 O90 1.252 . S
C83 O86 1.252 . S
C83 O87 1.260 . S
O84 In78 2.266 . S
O84 C81 1.252 . S
O85 In78 2.326 . S
O85 C81 1.260 . S
O86 In78 2.266 1_455 S
O86 C83 1.252 . S
O87 In78 2.326 1_455 S
O87 C83 1.260 . S
C88 O79 1.240 . S
C88 O80 1.252 . S
O89 In78 2.294 . S
O89 C82 1.240 . S
O90 In78 2.326 . S
O90 C82 1.252 . S
In91 O92 2.294 . S
In91 O93 2.326 . S
In91 O97 2.266 . S
In91 O98 2.326 . S
In91 O99 2.266 1_565 S
In91 O100 2.326 1_565 S
In91 O102 2.294 . S
In91 O103 2.326 . S
O92 In91 2.294 . S
O92 C101 1.240 . S
O93 In91 2.326 . S
O93 C101 1.252 . S
C94 O97 1.252 . S
C94 O98 1.260 . S
C95 O102 1.240 . S
C95 O103 1.252 . S
C96 O99 1.252 . S
C96 O100 1.260 . S
O97 In91 2.266 . S
O97 C94 1.252 . S
O98 In91 2.326 . S
O98 C94 1.260 . S
O99 In91 2.266 1_545 S
O99 C96 1.252 . S
O100 In91 2.326 1_545 S
O100 C96 1.260 . S
C101 O92 1.240 . S
C101 O93 1.252 . S
O102 In91 2.294 . S
O102 C95 1.240 . S
O103 In91 2.326 . S
O103 C95 1.252 . S
In104 O105 2.294 . S
In104 O106 2.326 . S
In104 O110 2.266 1_545 S
In104 O111 2.326 1_545 S
In104 O112 2.266 . S
In104 O113 2.326 . S
In104 O115 2.294 . S
In104 O116 2.326 . S
O105 In104 2.294 . S
O105 C114 1.240 . S
O106 In104 2.326 . S
O106 C114 1.252 . S
C107 O110 1.252 . S
C107 O111 1.260 . S
C108 O115 1.240 . S
C108 O116 1.252 . S
C109 O112 1.252 . S
C109 O113 1.260 . S
O110 In104 2.266 1_565 S
O110 C107 1.252 . S
O111 In104 2.326 1_565 S
O111 C107 1.260 . S
O112 In104 2.266 . S
O112 C109 1.252 . S
O113 In104 2.326 . S
O113 C109 1.260 . S
C114 O105 1.240 . S
C114 O106 1.252 . S
O115 In104 2.294 . S
O115 C108 1.240 . S
O116 In104 2.326 . S
O116 C108 1.252 . S
In117 O118 2.294 . S
In117 O119 2.326 . S
In117 O123 2.266 . S
In117 O124 2.326 . S
In117 O125 2.266 1_655 S
In117 O126 2.326 1_655 S
In117 O128 2.294 . S
In117 O129 2.326 . S
O118 In117 2.294 . S
O118 C127 1.240 . S
O119 In117 2.326 . S
O119 C127 1.252 . S
C120 O123 1.252 . S
C120 O124 1.260 . S
C121 O128 1.240 . S
C121 O129 1.252 . S
C122 O125 1.252 . S
C122 O126 1.260 . S
O123 In117 2.266 . S
O123 C120 1.252 . S
O124 In117 2.326 . S
O124 C120 1.260 . S
O125 In117 2.266 1_455 S
O125 C122 1.252 . S
O126 In117 2.326 1_455 S
O126 C122 1.260 . S
C127 O118 1.240 . S
C127 O119 1.252 . S
O128 In117 2.294 . S
O128 C121 1.240 . S
O129 In117 2.326 . S
O129 C121 1.252 . S
In130 O131 2.294 . S
In130 O132 2.326 . S
In130 O136 2.266 1_565 S
In130 O137 2.326 1_565 S
In130 O138 2.266 . S
In130 O139 2.326 . S
In130 O141 2.294 . S
In130 O142 2.326 . S
O131 In130 2.294 . S
O131 C140 1.240 . S
O132 In130 2.326 . S
O132 C140 1.252 . S
C133 O136 1.252 . S
C133 O137 1.260 . S
C134 O141 1.240 . S
C134 O142 1.252 . S
C135 O138 1.252 . S
C135 O139 1.260 . S
O136 In130 2.266 1_545 S
O136 C133 1.252 . S
O137 In130 2.326 1_545 S
O137 C133 1.260 . S
O138 In130 2.266 . S
O138 C135 1.252 . S
O139 In130 2.326 . S
O139 C135 1.260 . S
C140 O131 1.240 . S
C140 O132 1.252 . S
O141 In130 2.294 . S
O141 C134 1.240 . S
O142 In130 2.326 . S
O142 C134 1.252 . S
In143 O144 2.294 . S
In143 O145 2.326 . S
In143 O149 2.266 . S
In143 O150 2.326 . S
In143 O151 2.266 1_455 S
In143 O152 2.326 1_455 S
In143 O154 2.294 . S
In143 O155 2.326 . S
O144 In143 2.294 . S
O144 C153 1.240 . S
O145 In143 2.326 . S
O145 C153 1.252 . S
C146 O149 1.252 . S
C146 O150 1.260 . S
C147 O154 1.240 . S
C147 O155 1.252 . S
C148 O151 1.252 . S
C148 O152 1.260 . S
O149 In143 2.266 . S
O149 C146 1.252 . S
O150 In143 2.326 . S
O150 C146 1.260 . S
O151 In143 2.266 1_655 S
O151 C148 1.252 . S
O152 In143 2.326 1_655 S
O152 C148 1.260 . S
C153 O144 1.240 . S
C153 O145 1.252 . S
O154 In143 2.294 . S
O154 C147 1.240 . S
O155 In143 2.326 . S
O155 C147 1.252 . S
In156 O157 2.294 . S
In156 O158 2.326 . S
In156 O162 2.266 . S
In156 O163 2.326 . S
In156 O164 2.266 1_565 S
In156 O165 2.326 1_565 S
In156 O167 2.294 . S
In156 O168 2.326 . S
O157 In156 2.294 . S
O157 C166 1.240 . S
O158 In156 2.326 . S
O158 C166 1.252 . S
C159 O162 1.252 . S
C159 O163 1.260 . S
C160 O167 1.240 . S
C160 O168 1.252 . S
C161 O164 1.252 . S
C161 O165 1.260 . S
O162 In156 2.266 . S
O162 C159 1.252 . S
O163 In156 2.326 . S
O163 C159 1.260 . S
O164 In156 2.266 1_545 S
O164 C161 1.252 . S
O165 In156 2.326 1_545 S
O165 C161 1.260 . S
C166 O157 1.240 . S
C166 O158 1.252 . S
O167 In156 2.294 . S
O167 C160 1.240 . S
O168 In156 2.326 . S
O168 C160 1.252 . S
In169 O170 2.294 . S
In169 O171 2.326 . S
In169 O175 2.266 1_455 S
In169 O176 2.326 1_455 S
In169 O177 2.266 . S
In169 O178 2.326 . S
In169 O180 2.294 . S
In169 O181 2.326 . S
O170 In169 2.294 . S
O170 C179 1.240 . S
O171 In169 2.326 . S
O171 C179 1.252 . S
C172 O175 1.252 . S
C172 O176 1.260 . S
C173 O180 1.240 . S
C173 O181 1.252 . S
C174 O177 1.252 . S
C174 O178 1.260 . S
O175 In169 2.266 1_655 S
O175 C172 1.252 . S
O176 In169 2.326 1_655 S
O176 C172 1.260 . S
O177 In169 2.266 . S
O177 C174 1.252 . S
O178 In169 2.326 . S
O178 C174 1.260 . S
C179 O170 1.240 . S
C179 O171 1.252 . S
O180 In169 2.294 . S
O180 C173 1.240 . S
O181 In169 2.326 . S
O181 C173 1.252 . S
In182 O183 2.294 . S
In182 O184 2.326 . S
In182 O188 2.266 1_545 S
In182 O189 2.326 1_545 S
In182 O190 2.266 . S
In182 O191 2.326 . S
In182 O193 2.294 . S
In182 O194 2.326 . S
O183 In182 2.294 . S
O183 C192 1.240 . S
O184 In182 2.326 . S
O184 C192 1.252 . S
C185 O188 1.252 . S
C185 O189 1.260 . S
C186 O193 1.240 . S
C186 O194 1.252 . S
C187 O190 1.252 . S
C187 O191 1.260 . S
O188 In182 2.266 1_565 S
O188 C185 1.252 . S
O189 In182 2.326 1_565 S
O189 C185 1.260 . S
O190 In182 2.266 . S
O190 C187 1.252 . S
O191 In182 2.326 . S
O191 C187 1.260 . S
C192 O183 1.240 . S
C192 O184 1.252 . S
O193 In182 2.294 . S
O193 C186 1.240 . S
O194 In182 2.326 . S
O194 C186 1.252 . S
In195 O196 2.294 . S
In195 O197 2.326 . S
In195 O201 2.266 . S
In195 O202 2.326 . S
In195 O203 2.266 1_655 S
In195 O204 2.326 1_655 S
In195 O206 2.294 . S
In195 O207 2.326 . S
O196 In195 2.294 . S
O196 C205 1.240 . S
O197 In195 2.326 . S
O197 C205 1.252 . S
C198 O201 1.252 . S
C198 O202 1.260 . S
C199 O206 1.240 . S
C199 O207 1.252 . S
C200 O203 1.252 . S
C200 O204 1.260 . S
O201 In195 2.266 . S
O201 C198 1.252 . S
O202 In195 2.326 . S
O202 C198 1.260 . S
O203 In195 2.266 1_455 S
O203 C200 1.252 . S
O204 In195 2.326 1_455 S
O204 C200 1.260 . S
C205 O196 1.240 . S
C205 O197 1.252 . S
O206 In195 2.294 . S
O206 C199 1.240 . S
O207 In195 2.326 . S
O207 C199 1.252 . S
In208 O209 2.294 . S
In208 O210 2.326 . S
In208 O214 2.266 . S
In208 O215 2.326 . S
In208 O216 2.266 1_554 S
In208 O217 2.326 1_554 S
In208 O219 2.294 . S
In208 O220 2.326 . S
O209 In208 2.294 . S
O209 C218 1.240 . S
O210 In208 2.326 . S
O210 C218 1.252 . S
C211 O214 1.252 . S
C211 O215 1.260 . S
C212 O219 1.240 . S
C212 O220 1.252 . S
C213 O216 1.252 . S
C213 O217 1.260 . S
O214 In208 2.266 . S
O214 C211 1.252 . S
O215 In208 2.326 . S
O215 C211 1.260 . S
O216 In208 2.266 1_556 S
O216 C213 1.252 . S
O217 In208 2.326 1_556 S
O217 C213 1.260 . S
C218 O209 1.240 . S
C218 O210 1.252 . S
O219 In208 2.294 . S
O219 C212 1.240 . S
O220 In208 2.326 . S
O220 C212 1.252 . S
In221 O222 2.294 . S
In221 O223 2.326 . S
In221 O227 2.266 . S
In221 O228 2.326 . S
In221 O229 2.266 1_556 S
In221 O230 2.326 1_556 S
In221 O232 2.294 . S
In221 O233 2.326 . S
O222 In221 2.294 . S
O222 C231 1.240 . S
O223 In221 2.326 . S
O223 C231 1.252 . S
C224 O227 1.252 . S
C224 O228 1.260 . S
C225 O232 1.240 . S
C225 O233 1.252 . S
C226 O229 1.252 . S
C226 O230 1.260 . S
O227 In221 2.266 . S
O227 C224 1.252 . S
O228 In221 2.326 . S
O228 C224 1.260 . S
O229 In221 2.266 1_554 S
O229 C226 1.252 . S
O230 In221 2.326 1_554 S
O230 C226 1.260 . S
C231 O222 1.240 . S
C231 O223 1.252 . S
O232 In221 2.294 . S
O232 C225 1.240 . S
O233 In221 2.326 . S
O233 C225 1.252 . S
In234 O235 2.294 . S
In234 O236 2.326 . S
In234 O240 2.266 . S
In234 O241 2.326 . S
In234 O242 2.266 1_556 S
In234 O243 2.326 1_556 S
In234 O245 2.294 . S
In234 O246 2.326 . S
O235 In234 2.294 . S
O235 C244 1.240 . S
O236 In234 2.326 . S
O236 C244 1.252 . S
C237 O240 1.252 . S
C237 O241 1.260 . S
C238 O245 1.240 . S
C238 O246 1.252 . S
C239 O242 1.252 . S
C239 O243 1.260 . S
O240 In234 2.266 . S
O240 C237 1.252 . S
O241 In234 2.326 . S
O241 C237 1.260 . S
O242 In234 2.266 1_554 S
O242 C239 1.252 . S
O243 In234 2.326 1_554 S
O243 C239 1.260 . S
C244 O235 1.240 . S
C244 O236 1.252 . S
O245 In234 2.294 . S
O245 C238 1.240 . S
O246 In234 2.326 . S
O246 C238 1.252 . S
In247 O248 2.294 . S
In247 O249 2.326 . S
In247 O253 2.266 1_556 S
In247 O254 2.326 1_556 S
In247 O255 2.266 . S
In247 O256 2.326 . S
In247 O258 2.294 . S
In247 O259 2.326 . S
O248 In247 2.294 . S
O248 C257 1.240 . S
O249 In247 2.326 . S
O249 C257 1.252 . S
C250 O253 1.252 . S
C250 O254 1.260 . S
C251 O258 1.240 . S
C251 O259 1.252 . S
C252 O255 1.252 . S
C252 O256 1.260 . S
O253 In247 2.266 1_554 S
O253 C250 1.252 . S
O254 In247 2.326 1_554 S
O254 C250 1.260 . S
O255 In247 2.266 . S
O255 C252 1.252 . S
O256 In247 2.326 . S
O256 C252 1.260 . S
C257 O248 1.240 . S
C257 O249 1.252 . S
O258 In247 2.294 . S
O258 C251 1.240 . S
O259 In247 2.326 . S
O259 C251 1.252 . S
In260 O261 2.294 . S
In260 O262 2.326 . S
In260 O266 2.266 1_556 S
In260 O267 2.326 1_556 S
In260 O268 2.266 . S
In260 O269 2.326 . S
In260 O271 2.294 . S
In260 O272 2.326 . S
O261 In260 2.294 . S
O261 C270 1.240 . S
O262 In260 2.326 . S
O262 C270 1.252 . S
C263 O266 1.252 . S
C263 O267 1.260 . S
C264 O271 1.240 . S
C264 O272 1.252 . S
C265 O268 1.252 . S
C265 O269 1.260 . S
O266 In260 2.266 1_554 S
O266 C263 1.252 . S
O267 In260 2.326 1_554 S
O267 C263 1.260 . S
O268 In260 2.266 . S
O268 C265 1.252 . S
O269 In260 2.326 . S
O269 C265 1.260 . S
C270 O261 1.240 . S
C270 O262 1.252 . S
O271 In260 2.294 . S
O271 C264 1.240 . S
O272 In260 2.326 . S
O272 C264 1.252 . S
In273 O274 2.294 . S
In273 O275 2.326 . S
In273 O279 2.266 . S
In273 O280 2.326 . S
In273 O281 2.266 1_554 S
In273 O282 2.326 1_554 S
In273 O284 2.294 . S
In273 O285 2.326 . S
O274 In273 2.294 . S
O274 C283 1.240 . S
O275 In273 2.326 . S
O275 C283 1.252 . S
C276 O279 1.252 . S
C276 O280 1.260 . S
C277 O284 1.240 . S
C277 O285 1.252 . S
C278 O281 1.252 . S
C278 O282 1.260 . S
O279 In273 2.266 . S
O279 C276 1.252 . S
O280 In273 2.326 . S
O280 C276 1.260 . S
O281 In273 2.266 1_556 S
O281 C278 1.252 . S
O282 In273 2.326 1_556 S
O282 C278 1.260 . S
C283 O274 1.240 . S
C283 O275 1.252 . S
O284 In273 2.294 . S
O284 C277 1.240 . S
O285 In273 2.326 . S
O285 C277 1.252 . S
In286 O287 2.294 . S
In286 O288 2.326 . S
In286 O292 2.266 1_554 S
In286 O293 2.326 1_554 S
In286 O294 2.266 . S
In286 O295 2.326 . S
In286 O297 2.294 . S
In286 O298 2.326 . S
O287 In286 2.294 . S
O287 C296 1.240 . S
O288 In286 2.326 . S
O288 C296 1.252 . S
C289 O292 1.252 . S
C289 O293 1.260 . S
C290 O297 1.240 . S
C290 O298 1.252 . S
C291 O294 1.252 . S
C291 O295 1.260 . S
O292 In286 2.266 1_556 S
O292 C289 1.252 . S
O293 In286 2.326 1_556 S
O293 C289 1.260 . S
O294 In286 2.266 . S
O294 C291 1.252 . S
O295 In286 2.326 . S
O295 C291 1.260 . S
C296 O287 1.240 . S
C296 O288 1.252 . S
O297 In286 2.294 . S
O297 C290 1.240 . S
O298 In286 2.326 . S
O298 C290 1.252 . S
In299 O300 2.294 . S
In299 O301 2.326 . S
In299 O305 2.266 . S
In299 O306 2.326 . S
In299 O307 2.266 1_554 S
In299 O308 2.326 1_554 S
In299 O310 2.294 . S
In299 O311 2.326 . S
O300 In299 2.294 . S
O300 C309 1.240 . S
O301 In299 2.326 . S
O301 C309 1.252 . S
C302 O305 1.252 . S
C302 O306 1.260 . S
C303 O310 1.240 . S
C303 O311 1.252 . S
C304 O307 1.252 . S
C304 O308 1.260 . S
O305 In299 2.266 . S
O305 C302 1.252 . S
O306 In299 2.326 . S
O306 C302 1.260 . S
O307 In299 2.266 1_556 S
O307 C304 1.252 . S
O308 In299 2.326 1_556 S
O308 C304 1.260 . S
C309 O300 1.240 . S
C309 O301 1.252 . S
O310 In299 2.294 . S
O310 C303 1.240 . S
O311 In299 2.326 . S
O311 C303 1.252 . S
In312 O313 2.294 . S
In312 O314 2.326 . S
In312 O318 2.266 . S
In312 O319 2.326 . S
In312 O320 2.266 . S
In312 O321 2.326 . S
In312 O323 2.294 . S
In312 O324 2.326 . S
O313 In312 2.294 . S
O313 C322 1.240 . S
O314 In312 2.326 . S
O314 C322 1.252 . S
C315 O318 1.252 . S
C315 O319 1.260 . S
C316 O323 1.240 . S
C316 O324 1.252 . S
C317 O320 1.252 . S
C317 O321 1.260 . S
O318 In312 2.266 . S
O318 C315 1.252 . S
O319 In312 2.326 . S
O319 C315 1.260 . S
O320 In312 2.266 . S
O320 C317 1.252 . S
O321 In312 2.326 . S
O321 C317 1.260 . S
C322 O313 1.240 . S
C322 O314 1.252 . S
O323 In312 2.294 . S
O323 C316 1.240 . S
O324 In312 2.326 . S
O324 C316 1.252 . S
In325 O326 2.294 . S
In325 O327 2.326 . S
In325 O331 2.266 . S
In325 O332 2.326 . S
In325 O333 2.266 . S
In325 O334 2.326 . S
In325 O336 2.294 . S
In325 O337 2.326 . S
O326 In325 2.294 . S
O326 C335 1.240 . S
O327 In325 2.326 . S
O327 C335 1.252 . S
C328 O331 1.252 . S
C328 O332 1.260 . S
C329 O336 1.240 . S
C329 O337 1.252 . S
C330 O333 1.252 . S
C330 O334 1.260 . S
O331 In325 2.266 . S
O331 C328 1.252 . S
O332 In325 2.326 . S
O332 C328 1.260 . S
O333 In325 2.266 . S
O333 C330 1.252 . S
O334 In325 2.326 . S
O334 C330 1.260 . S
C335 O326 1.240 . S
C335 O327 1.252 . S
O336 In325 2.294 . S
O336 C329 1.240 . S
O337 In325 2.326 . S
O337 C329 1.252 . S
In338 O339 2.294 . S
In338 O340 2.326 . S
In338 O344 2.266 . S
In338 O345 2.326 . S
In338 O346 2.266 . S
In338 O347 2.326 . S
In338 O349 2.294 . S
In338 O350 2.326 . S
O339 In338 2.294 . S
O339 C348 1.240 . S
O340 In338 2.326 . S
O340 C348 1.252 . S
C341 O344 1.252 . S
C341 O345 1.260 . S
C342 O349 1.240 . S
C342 O350 1.252 . S
C343 O346 1.252 . S
C343 O347 1.260 . S
O344 In338 2.266 . S
O344 C341 1.252 . S
O345 In338 2.326 . S
O345 C341 1.260 . S
O346 In338 2.266 . S
O346 C343 1.252 . S
O347 In338 2.326 . S
O347 C343 1.260 . S
C348 O339 1.240 . S
C348 O340 1.252 . S
O349 In338 2.294 . S
O349 C342 1.240 . S
O350 In338 2.326 . S
O350 C342 1.252 . S
In351 O352 2.294 . S
In351 O353 2.326 . S
In351 O357 2.266 . S
In351 O358 2.326 . S
In351 O359 2.266 . S
In351 O360 2.326 . S
In351 O362 2.294 . S
In351 O363 2.326 . S
O352 In351 2.294 . S
O352 C361 1.240 . S
O353 In351 2.326 . S
O353 C361 1.252 . S
C354 O357 1.252 . S
C354 O358 1.260 . S
C355 O362 1.240 . S
C355 O363 1.252 . S
C356 O359 1.252 . S
C356 O360 1.260 . S
O357 In351 2.266 . S
O357 C354 1.252 . S
O358 In351 2.326 . S
O358 C354 1.260 . S
O359 In351 2.266 . S
O359 C356 1.252 . S
O360 In351 2.326 . S
O360 C356 1.260 . S
C361 O352 1.240 . S
C361 O353 1.252 . S
O362 In351 2.294 . S
O362 C355 1.240 . S
O363 In351 2.326 . S
O363 C355 1.252 . S
In364 O365 2.294 . S
In364 O366 2.326 . S
In364 O370 2.266 . S
In364 O371 2.326 . S
In364 O372 2.266 . S
In364 O373 2.326 . S
In364 O375 2.294 . S
In364 O376 2.326 . S
O365 In364 2.294 . S
O365 C374 1.240 . S
O366 In364 2.326 . S
O366 C374 1.252 . S
C367 O370 1.252 . S
C367 O371 1.260 . S
C368 O375 1.240 . S
C368 O376 1.252 . S
C369 O372 1.252 . S
C369 O373 1.260 . S
O370 In364 2.266 . S
O370 C367 1.252 . S
O371 In364 2.326 . S
O371 C367 1.260 . S
O372 In364 2.266 . S
O372 C369 1.252 . S
O373 In364 2.326 . S
O373 C369 1.260 . S
C374 O365 1.240 . S
C374 O366 1.252 . S
O375 In364 2.294 . S
O375 C368 1.240 . S
O376 In364 2.326 . S
O376 C368 1.252 . S
In377 O378 2.294 . S
In377 O379 2.326 . S
In377 O383 2.266 . S
In377 O384 2.326 . S
In377 O385 2.266 . S
In377 O386 2.326 . S
In377 O388 2.294 . S
In377 O389 2.326 . S
O378 In377 2.294 . S
O378 C387 1.240 . S
O379 In377 2.326 . S
O379 C387 1.252 . S
C380 O383 1.252 . S
C380 O384 1.260 . S
C381 O388 1.240 . S
C381 O389 1.252 . S
C382 O385 1.252 . S
C382 O386 1.260 . S
O383 In377 2.266 . S
O383 C380 1.252 . S
O384 In377 2.326 . S
O384 C380 1.260 . S
O385 In377 2.266 . S
O385 C382 1.252 . S
O386 In377 2.326 . S
O386 C382 1.260 . S
C387 O378 1.240 . S
C387 O379 1.252 . S
O388 In377 2.294 . S
O388 C381 1.240 . S
O389 In377 2.326 . S
O389 C381 1.252 . S
In390 O391 2.294 . S
In390 O392 2.326 . S
In390 O396 2.266 . S
In390 O397 2.326 . S
In390 O398 2.266 . S
In390 O399 2.326 . S
In390 O401 2.294 . S
In390 O402 2.326 . S
O391 In390 2.294 . S
O391 C400 1.240 . S
O392 In390 2.326 . S
O392 C400 1.252 . S
C393 O396 1.252 . S
C393 O397 1.260 . S
C394 O401 1.240 . S
C394 O402 1.252 . S
C395 O398 1.252 . S
C395 O399 1.260 . S
O396 In390 2.266 . S
O396 C393 1.252 . S
O397 In390 2.326 . S
O397 C393 1.260 . S
O398 In390 2.266 . S
O398 C395 1.252 . S
O399 In390 2.326 . S
O399 C395 1.260 . S
C400 O391 1.240 . S
C400 O392 1.252 . S
O401 In390 2.294 . S
O401 C394 1.240 . S
O402 In390 2.326 . S
O402 C394 1.252 . S
In403 O404 2.294 . S
In403 O405 2.326 . S
In403 O409 2.266 . S
In403 O410 2.326 . S
In403 O411 2.266 . S
In403 O412 2.326 . S
In403 O414 2.294 . S
In403 O415 2.326 . S
O404 In403 2.294 . S
O404 C413 1.240 . S
O405 In403 2.326 . S
O405 C413 1.252 . S
C406 O409 1.252 . S
C406 O410 1.260 . S
C407 O414 1.240 . S
C407 O415 1.252 . S
C408 O411 1.252 . S
C408 O412 1.260 . S
O409 In403 2.266 . S
O409 C406 1.252 . S
O410 In403 2.326 . S
O410 C406 1.260 . S
O411 In403 2.266 . S
O411 C408 1.252 . S
O412 In403 2.326 . S
O412 C408 1.260 . S
C413 O404 1.240 . S
C413 O405 1.252 . S
O414 In403 2.294 . S
O414 C407 1.240 . S
O415 In403 2.326 . S
O415 C407 1.252 . S
In416 O417 2.294 . S
In416 O418 2.326 . S
In416 O422 2.266 . S
In416 O423 2.326 . S
In416 O424 2.266 . S
In416 O425 2.326 . S
In416 O427 2.294 . S
In416 O428 2.326 . S
O417 In416 2.294 . S
O417 C426 1.240 . S
O418 In416 2.326 . S
O418 C426 1.252 . S
C419 O422 1.252 . S
C419 O423 1.260 . S
C420 O427 1.240 . S
C420 O428 1.252 . S
C421 O424 1.252 . S
C421 O425 1.260 . S
O422 In416 2.266 . S
O422 C419 1.252 . S
O423 In416 2.326 . S
O423 C419 1.260 . S
O424 In416 2.266 . S
O424 C421 1.252 . S
O425 In416 2.326 . S
O425 C421 1.260 . S
C426 O417 1.240 . S
C426 O418 1.252 . S
O427 In416 2.294 . S
O427 C420 1.240 . S
O428 In416 2.326 . S
O428 C420 1.252 . S
In429 O430 2.294 . S
In429 O431 2.326 . S
In429 O435 2.266 . S
In429 O436 2.326 . S
In429 O437 2.266 . S
In429 O438 2.326 . S
In429 O440 2.294 . S
In429 O441 2.326 . S
O430 In429 2.294 . S
O430 C439 1.240 . S
O431 In429 2.326 . S
O431 C439 1.252 . S
C432 O435 1.252 . S
C432 O436 1.260 . S
C433 O440 1.240 . S
C433 O441 1.252 . S
C434 O437 1.252 . S
C434 O438 1.260 . S
O435 In429 2.266 . S
O435 C432 1.252 . S
O436 In429 2.326 . S
O436 C432 1.260 . S
O437 In429 2.266 . S
O437 C434 1.252 . S
O438 In429 2.326 . S
O438 C434 1.260 . S
C439 O430 1.240 . S
C439 O431 1.252 . S
O440 In429 2.294 . S
O440 C433 1.240 . S
O441 In429 2.326 . S
O441 C433 1.252 . S
In442 O443 2.294 . S
In442 O444 2.326 . S
In442 O448 2.266 . S
In442 O449 2.326 . S
In442 O450 2.266 . S
In442 O451 2.326 . S
In442 O453 2.294 . S
In442 O454 2.326 . S
O443 In442 2.294 . S
O443 C452 1.240 . S
O444 In442 2.326 . S
O444 C452 1.252 . S
C445 O448 1.252 . S
C445 O449 1.260 . S
C446 O453 1.240 . S
C446 O454 1.252 . S
C447 O450 1.252 . S
C447 O451 1.260 . S
O448 In442 2.266 . S
O448 C445 1.252 . S
O449 In442 2.326 . S
O449 C445 1.260 . S
O450 In442 2.266 . S
O450 C447 1.252 . S
O451 In442 2.326 . S
O451 C447 1.260 . S
C452 O443 1.240 . S
C452 O444 1.252 . S
O453 In442 2.294 . S
O453 C446 1.240 . S
O454 In442 2.326 . S
O454 C446 1.252 . S
In455 O456 2.294 . S
In455 O457 2.326 . S
In455 O461 2.266 . S
In455 O462 2.326 . S
In455 O463 2.266 . S
In455 O464 2.326 . S
In455 O466 2.294 . S
In455 O467 2.326 . S
O456 In455 2.294 . S
O456 C465 1.240 . S
O457 In455 2.326 . S
O457 C465 1.252 . S
C458 O461 1.252 . S
C458 O462 1.260 . S
C459 O466 1.240 . S
C459 O467 1.252 . S
C460 O463 1.252 . S
C460 O464 1.260 . S
O461 In455 2.266 . S
O461 C458 1.252 . S
O462 In455 2.326 . S
O462 C458 1.260 . S
O463 In455 2.266 . S
O463 C460 1.252 . S
O464 In455 2.326 . S
O464 C460 1.260 . S
C465 O456 1.240 . S
C465 O457 1.252 . S
O466 In455 2.294 . S
O466 C459 1.240 . S
O467 In455 2.326 . S
O467 C459 1.252 . S
In468 O469 2.294 . S
In468 O470 2.326 . S
In468 O474 2.266 . S
In468 O475 2.326 . S
In468 O476 2.266 . S
In468 O477 2.326 . S
In468 O479 2.294 . S
In468 O480 2.326 . S
O469 In468 2.294 . S
O469 C478 1.240 . S
O470 In468 2.326 . S
O470 C478 1.252 . S
C471 O474 1.252 . S
C471 O475 1.260 . S
C472 O479 1.240 . S
C472 O480 1.252 . S
C473 O476 1.252 . S
C473 O477 1.260 . S
O474 In468 2.266 . S
O474 C471 1.252 . S
O475 In468 2.326 . S
O475 C471 1.260 . S
O476 In468 2.266 . S
O476 C473 1.252 . S
O477 In468 2.326 . S
O477 C473 1.260 . S
C478 O469 1.240 . S
C478 O470 1.252 . S
O479 In468 2.294 . S
O479 C472 1.240 . S
O480 In468 2.326 . S
O480 C472 1.252 . S
In481 O482 2.294 . S
In481 O483 2.326 . S
In481 O487 2.266 . S
In481 O488 2.326 . S
In481 O489 2.266 . S
In481 O490 2.326 . S
In481 O492 2.294 . S
In481 O493 2.326 . S
O482 In481 2.294 . S
O482 C491 1.240 . S
O483 In481 2.326 . S
O483 C491 1.252 . S
C484 O487 1.252 . S
C484 O488 1.260 . S
C485 O492 1.240 . S
C485 O493 1.252 . S
C486 O489 1.252 . S
C486 O490 1.260 . S
O487 In481 2.266 . S
O487 C484 1.252 . S
O488 In481 2.326 . S
O488 C484 1.260 . S
O489 In481 2.266 . S
O489 C486 1.252 . S
O490 In481 2.326 . S
O490 C486 1.260 . S
C491 O482 1.240 . S
C491 O483 1.252 . S
O492 In481 2.294 . S
O492 C485 1.240 . S
O493 In481 2.326 . S
O493 C485 1.252 . S
In494 O495 2.294 . S
In494 O496 2.326 . S
In494 O500 2.266 . S
In494 O501 2.326 . S
In494 O502 2.266 . S
In494 O503 2.326 . S
In494 O505 2.294 . S
In494 O506 2.326 . S
O495 In494 2.294 . S
O495 C504 1.240 . S
O496 In494 2.326 . S
O496 C504 1.252 . S
C497 O500 1.252 . S
C497 O501 1.260 . S
C498 O505 1.240 . S
C498 O506 1.252 . S
C499 O502 1.252 . S
C499 O503 1.260 . S
O500 In494 2.266 . S
O500 C497 1.252 . S
O501 In494 2.326 . S
O501 C497 1.260 . S
O502 In494 2.266 . S
O502 C499 1.252 . S
O503 In494 2.326 . S
O503 C499 1.260 . S
C504 O495 1.240 . S
C504 O496 1.252 . S
O505 In494 2.294 . S
O505 C498 1.240 . S
O506 In494 2.326 . S
O506 C498 1.252 . S
In507 O508 2.294 . S
In507 O509 2.326 . S
In507 O513 2.266 . S
In507 O514 2.326 . S
In507 O515 2.266 . S
In507 O516 2.326 . S
In507 O518 2.294 . S
In507 O519 2.326 . S
O508 In507 2.294 . S
O508 C517 1.240 . S
O509 In507 2.326 . S
O509 C517 1.252 . S
C510 O513 1.252 . S
C510 O514 1.260 . S
C511 O518 1.240 . S
C511 O519 1.252 . S
C512 O515 1.252 . S
C512 O516 1.260 . S
O513 In507 2.266 . S
O513 C510 1.252 . S
O514 In507 2.326 . S
O514 C510 1.260 . S
O515 In507 2.266 . S
O515 C512 1.252 . S
O516 In507 2.326 . S
O516 C512 1.260 . S
C517 O508 1.240 . S
C517 O509 1.252 . S
O518 In507 2.294 . S
O518 C511 1.240 . S
O519 In507 2.326 . S
O519 C511 1.252 . S
In520 O521 2.294 . S
In520 O522 2.326 . S
In520 O526 2.266 . S
In520 O527 2.326 . S
In520 O528 2.266 . S
In520 O529 2.326 . S
In520 O531 2.294 . S
In520 O532 2.326 . S
O521 In520 2.294 . S
O521 C530 1.240 . S
O522 In520 2.326 . S
O522 C530 1.252 . S
C523 O526 1.252 . S
C523 O527 1.260 . S
C524 O531 1.240 . S
C524 O532 1.252 . S
C525 O528 1.252 . S
C525 O529 1.260 . S
O526 In520 2.266 . S
O526 C523 1.252 . S
O527 In520 2.326 . S
O527 C523 1.260 . S
O528 In520 2.266 . S
O528 C525 1.252 . S
O529 In520 2.326 . S
O529 C525 1.260 . S
C530 O521 1.240 . S
C530 O522 1.252 . S
O531 In520 2.294 . S
O531 C524 1.240 . S
O532 In520 2.326 . S
O532 C524 1.252 . S
In533 O534 2.294 . S
In533 O535 2.326 . S
In533 O539 2.266 . S
In533 O540 2.326 . S
In533 O541 2.266 . S
In533 O542 2.326 . S
In533 O544 2.294 . S
In533 O545 2.326 . S
O534 In533 2.294 . S
O534 C543 1.240 . S
O535 In533 2.326 . S
O535 C543 1.252 . S
C536 O539 1.252 . S
C536 O540 1.260 . S
C537 O544 1.240 . S
C537 O545 1.252 . S
C538 O541 1.252 . S
C538 O542 1.260 . S
O539 In533 2.266 . S
O539 C536 1.252 . S
O540 In533 2.326 . S
O540 C536 1.260 . S
O541 In533 2.266 . S
O541 C538 1.252 . S
O542 In533 2.326 . S
O542 C538 1.260 . S
C543 O534 1.240 . S
C543 O535 1.252 . S
O544 In533 2.294 . S
O544 C537 1.240 . S
O545 In533 2.326 . S
O545 C537 1.252 . S
In546 O547 2.294 . S
In546 O548 2.326 . S
In546 O552 2.266 . S
In546 O553 2.326 . S
In546 O554 2.266 . S
In546 O555 2.326 . S
In546 O557 2.294 . S
In546 O558 2.326 . S
O547 In546 2.294 . S
O547 C556 1.240 . S
O548 In546 2.326 . S
O548 C556 1.252 . S
C549 O552 1.252 . S
C549 O553 1.260 . S
C550 O557 1.240 . S
C550 O558 1.252 . S
C551 O554 1.252 . S
C551 O555 1.260 . S
O552 In546 2.266 . S
O552 C549 1.252 . S
O553 In546 2.326 . S
O553 C549 1.260 . S
O554 In546 2.266 . S
O554 C551 1.252 . S
O555 In546 2.326 . S
O555 C551 1.260 . S
C556 O547 1.240 . S
C556 O548 1.252 . S
O557 In546 2.294 . S
O557 C550 1.240 . S
O558 In546 2.326 . S
O558 C550 1.252 . S
In559 O560 2.294 . S
In559 O561 2.326 . S
In559 O565 2.266 . S
In559 O566 2.326 . S
In559 O567 2.266 . S
In559 O568 2.326 . S
In559 O570 2.294 . S
In559 O571 2.326 . S
O560 In559 2.294 . S
O560 C569 1.240 . S
O561 In559 2.326 . S
O561 C569 1.252 . S
C562 O565 1.252 . S
C562 O566 1.260 . S
C563 O570 1.240 . S
C563 O571 1.252 . S
C564 O567 1.252 . S
C564 O568 1.260 . S
O565 In559 2.266 . S
O565 C562 1.252 . S
O566 In559 2.326 . S
O566 C562 1.260 . S
O567 In559 2.266 . S
O567 C564 1.252 . S
O568 In559 2.326 . S
O568 C564 1.260 . S
C569 O560 1.240 . S
C569 O561 1.252 . S
O570 In559 2.294 . S
O570 C563 1.240 . S
O571 In559 2.326 . S
O571 C563 1.252 . S
In572 O573 2.294 . S
In572 O574 2.326 . S
In572 O578 2.266 . S
In572 O579 2.326 . S
In572 O580 2.266 . S
In572 O581 2.326 . S
In572 O583 2.294 . S
In572 O584 2.326 . S
O573 In572 2.294 . S
O573 C582 1.240 . S
O574 In572 2.326 . S
O574 C582 1.252 . S
C575 O578 1.252 . S
C575 O579 1.260 . S
C576 O583 1.240 . S
C576 O584 1.252 . S
C577 O580 1.252 . S
C577 O581 1.260 . S
O578 In572 2.266 . S
O578 C575 1.252 . S
O579 In572 2.326 . S
O579 C575 1.260 . S
O580 In572 2.266 . S
O580 C577 1.252 . S
O581 In572 2.326 . S
O581 C577 1.260 . S
C582 O573 1.240 . S
C582 O574 1.252 . S
O583 In572 2.294 . S
O583 C576 1.240 . S
O584 In572 2.326 . S
O584 C576 1.252 . S
In585 O586 2.294 . S
In585 O587 2.326 . S
In585 O591 2.266 . S
In585 O592 2.326 . S
In585 O593 2.266 . S
In585 O594 2.326 . S
In585 O596 2.294 . S
In585 O597 2.326 . S
O586 In585 2.294 . S
O586 C595 1.240 . S
O587 In585 2.326 . S
O587 C595 1.252 . S
C588 O591 1.252 . S
C588 O592 1.260 . S
C589 O596 1.240 . S
C589 O597 1.252 . S
C590 O593 1.252 . S
C590 O594 1.260 . S
O591 In585 2.266 . S
O591 C588 1.252 . S
O592 In585 2.326 . S
O592 C588 1.260 . S
O593 In585 2.266 . S
O593 C590 1.252 . S
O594 In585 2.326 . S
O594 C590 1.260 . S
C595 O586 1.240 . S
C595 O587 1.252 . S
O596 In585 2.294 . S
O596 C589 1.240 . S
O597 In585 2.326 . S
O597 C589 1.252 . S
In598 O599 2.294 . S
In598 O600 2.326 . S
In598 O604 2.266 . S
In598 O605 2.326 . S
In598 O606 2.266 . S
In598 O607 2.326 . S
In598 O609 2.294 . S
In598 O610 2.326 . S
O599 In598 2.294 . S
O599 C608 1.240 . S
O600 In598 2.326 . S
O600 C608 1.252 . S
C601 O604 1.252 . S
C601 O605 1.260 . S
C602 O609 1.240 . S
C602 O610 1.252 . S
C603 O606 1.252 . S
C603 O607 1.260 . S
O604 In598 2.266 . S
O604 C601 1.252 . S
O605 In598 2.326 . S
O605 C601 1.260 . S
O606 In598 2.266 . S
O606 C603 1.252 . S
O607 In598 2.326 . S
O607 C603 1.260 . S
C608 O599 1.240 . S
C608 O600 1.252 . S
O609 In598 2.294 . S
O609 C602 1.240 . S
O610 In598 2.326 . S
O610 C602 1.252 . S
In611 O612 2.294 . S
In611 O613 2.326 . S
In611 O617 2.266 . S
In611 O618 2.326 . S
In611 O619 2.266 . S
In611 O620 2.326 . S
In611 O622 2.294 . S
In611 O623 2.326 . S
O612 In611 2.294 . S
O612 C621 1.240 . S
O613 In611 2.326 . S
O613 C621 1.252 . S
C614 O617 1.252 . S
C614 O618 1.260 . S
C615 O622 1.240 . S
C615 O623 1.252 . S
C616 O619 1.252 . S
C616 O620 1.260 . S
O617 In611 2.266 . S
O617 C614 1.252 . S
O618 In611 2.326 . S
O618 C614 1.260 . S
O619 In611 2.266 . S
O619 C616 1.252 . S
O620 In611 2.326 . S
O620 C616 1.260 . S
C621 O612 1.240 . S
C621 O613 1.252 . S
O622 In611 2.294 . S
O622 C615 1.240 . S
O623 In611 2.326 . S
O623 C615 1.252 . S
C624 C625 1.369 . S
C624 C626 1.419 . S
C624 H628 0.930 . S
C625 C624 1.369 . S
C625 C634 1.429 . S
C626 C624 1.419 . S
C626 C627 1.363 . S
C626 H629 0.929 . S
C627 C626 1.363 . S
C627 C633 1.428 . S
H628 C624 0.930 . S
H629 C626 0.929 . S
S630 N631 1.613 . S
S630 N632 1.610 . S
N631 S630 1.613 . S
N631 C634 1.350 . S
N632 S630 1.610 . S
N632 C633 1.351 . S
C633 C627 1.428 . S
C633 N632 1.351 . S
C633 C634 1.434 . S
C634 C625 1.429 . S
C634 N631 1.350 . S
C634 C633 1.434 . S
C635 C636 1.369 . S
C635 C637 1.419 . S
C635 H639 0.930 . S
C636 C635 1.369 . S
C636 C645 1.429 . S
C637 C635 1.419 . S
C637 C638 1.363 . S
C637 H640 0.929 . S
C638 C637 1.363 . S
C638 C644 1.428 . S
H639 C635 0.930 . S
H640 C637 0.929 . S
S641 N642 1.613 . S
S641 N643 1.610 . S
N642 S641 1.613 . S
N642 C645 1.350 . S
N643 S641 1.610 . S
N643 C644 1.351 . S
C644 C638 1.428 . S
C644 N643 1.351 . S
C644 C645 1.434 . S
C645 C636 1.429 . S
C645 N642 1.350 . S
C645 C644 1.434 . S
C646 C647 1.369 . S
C646 C648 1.419 . S
C646 H650 0.930 . S
C647 C646 1.369 . S
C647 C656 1.429 . S
C648 C646 1.419 . S
C648 C649 1.363 . S
C648 H651 0.929 . S
C649 C648 1.363 . S
C649 C655 1.428 . S
H650 C646 0.930 . S
H651 C648 0.929 . S
S652 N653 1.613 . S
S652 N654 1.610 . S
N653 S652 1.613 . S
N653 C656 1.350 . S
N654 S652 1.610 . S
N654 C655 1.351 . S
C655 C649 1.428 . S
C655 N654 1.351 . S
C655 C656 1.434 . S
C656 C647 1.429 . S
C656 N653 1.350 . S
C656 C655 1.434 . S
C657 C658 1.369 . S
C657 C659 1.419 . S
C657 H661 0.930 . S
C658 C657 1.369 . S
C658 C667 1.429 . S
C659 C657 1.419 . S
C659 C660 1.363 . S
C659 H662 0.929 . S
C660 C659 1.363 . S
C660 C666 1.428 . S
H661 C657 0.930 . S
H662 C659 0.929 . S
S663 N664 1.613 . S
S663 N665 1.610 . S
N664 S663 1.613 . S
N664 C667 1.350 . S
N665 S663 1.610 . S
N665 C666 1.351 . S
C666 C660 1.428 . S
C666 N665 1.351 . S
C666 C667 1.434 . S
C667 C658 1.429 . S
C667 N664 1.350 . S
C667 C666 1.434 . S
C668 C669 1.369 . S
C668 C670 1.419 . S
C668 H672 0.930 . S
C669 C668 1.369 . S
C669 C678 1.429 . S
C670 C668 1.419 . S
C670 C671 1.363 . S
C670 H673 0.929 . S
C671 C670 1.363 . S
C671 C677 1.428 . S
H672 C668 0.930 . S
H673 C670 0.929 . S
S674 N675 1.613 . S
S674 N676 1.610 . S
N675 S674 1.613 . S
N675 C678 1.350 . S
N676 S674 1.610 . S
N676 C677 1.351 . S
C677 C671 1.428 . S
C677 N676 1.351 . S
C677 C678 1.434 . S
C678 C669 1.429 . S
C678 N675 1.350 . S
C678 C677 1.434 . S
C679 C680 1.369 . S
C679 C681 1.419 . S
C679 H683 0.930 . S
C680 C679 1.369 . S
C680 C689 1.429 . S
C681 C679 1.419 . S
C681 C682 1.363 . S
C681 H684 0.929 . S
C682 C681 1.363 . S
C682 C688 1.428 . S
H683 C679 0.930 . S
H684 C681 0.929 . S
S685 N686 1.613 . S
S685 N687 1.610 . S
N686 S685 1.613 . S
N686 C689 1.350 . S
N687 S685 1.610 . S
N687 C688 1.351 . S
C688 C682 1.428 . S
C688 N687 1.351 . S
C688 C689 1.434 . S
C689 C680 1.429 . S
C689 N686 1.350 . S
C689 C688 1.434 . S
C690 C691 1.369 . S
C690 C692 1.419 . S
C690 H694 0.930 . S
C691 C690 1.369 . S
C691 C700 1.429 . S
C692 C690 1.419 . S
C692 C693 1.363 . S
C692 H695 0.929 . S
C693 C692 1.363 . S
C693 C699 1.428 . S
H694 C690 0.930 . S
H695 C692 0.929 . S
S696 N697 1.613 . S
S696 N698 1.610 . S
N697 S696 1.613 . S
N697 C700 1.350 . S
N698 S696 1.610 . S
N698 C699 1.351 . S
C699 C693 1.428 . S
C699 N698 1.351 . S
C699 C700 1.434 . S
C700 C691 1.429 . S
C700 N697 1.350 . S
C700 C699 1.434 . S
C701 C702 1.369 . S
C701 C703 1.419 . S
C701 H705 0.930 . S
C702 C701 1.369 . S
C702 C711 1.429 . S
C703 C701 1.419 . S
C703 C704 1.363 . S
C703 H706 0.929 . S
C704 C703 1.363 . S
C704 C710 1.428 . S
H705 C701 0.930 . S
H706 C703 0.929 . S
S707 N708 1.613 . S
S707 N709 1.610 . S
N708 S707 1.613 . S
N708 C711 1.350 . S
N709 S707 1.610 . S
N709 C710 1.351 . S
C710 C704 1.428 . S
C710 N709 1.351 . S
C710 C711 1.434 . S
C711 C702 1.429 . S
C711 N708 1.350 . S
C711 C710 1.434 . S
C712 C713 1.369 . S
C712 C714 1.419 . S
C712 H716 0.930 . S
C713 C712 1.369 . S
C713 C722 1.429 . S
C714 C712 1.419 . S
C714 C715 1.363 . S
C714 H717 0.929 . S
C715 C714 1.363 . S
C715 C721 1.428 . S
H716 C712 0.930 . S
H717 C714 0.929 . S
S718 N719 1.613 . S
S718 N720 1.610 . S
N719 S718 1.613 . S
N719 C722 1.350 . S
N720 S718 1.610 . S
N720 C721 1.351 . S
C721 C715 1.428 . S
C721 N720 1.351 . S
C721 C722 1.434 . S
C722 C713 1.429 . S
C722 N719 1.350 . S
C722 C721 1.434 . S
C723 C724 1.369 . S
C723 C725 1.419 . S
C723 H727 0.930 . S
C724 C723 1.369 . S
C724 C733 1.429 . S
C725 C723 1.419 . S
C725 C726 1.363 . S
C725 H728 0.929 . S
C726 C725 1.363 . S
C726 C732 1.428 . S
H727 C723 0.930 . S
H728 C725 0.929 . S
S729 N730 1.613 . S
S729 N731 1.610 . S
N730 S729 1.613 . S
N730 C733 1.350 . S
N731 S729 1.610 . S
N731 C732 1.351 . S
C732 C726 1.428 . S
C732 N731 1.351 . S
C732 C733 1.434 . S
C733 C724 1.429 . S
C733 N730 1.350 . S
C733 C732 1.434 . S
C734 C735 1.369 . S
C734 C736 1.419 . S
C734 H738 0.930 . S
C735 C734 1.369 . S
C735 C744 1.429 . S
C736 C734 1.419 . S
C736 C737 1.363 . S
C736 H739 0.929 . S
C737 C736 1.363 . S
C737 C743 1.428 . S
H738 C734 0.930 . S
H739 C736 0.929 . S
S740 N741 1.613 . S
S740 N742 1.610 . S
N741 S740 1.613 . S
N741 C744 1.350 . S
N742 S740 1.610 . S
N742 C743 1.351 . S
C743 C737 1.428 . S
C743 N742 1.351 . S
C743 C744 1.434 . S
C744 C735 1.429 . S
C744 N741 1.350 . S
C744 C743 1.434 . S
C745 C746 1.369 . S
C745 C747 1.419 . S
C745 H749 0.930 . S
C746 C745 1.369 . S
C746 C755 1.429 . S
C747 C745 1.419 . S
C747 C748 1.363 . S
C747 H750 0.929 . S
C748 C747 1.363 . S
C748 C754 1.428 . S
H749 C745 0.930 . S
H750 C747 0.929 . S
S751 N752 1.613 . S
S751 N753 1.610 . S
N752 S751 1.613 . S
N752 C755 1.350 . S
N753 S751 1.610 . S
N753 C754 1.351 . S
C754 C748 1.428 . S
C754 N753 1.351 . S
C754 C755 1.434 . S
C755 C746 1.429 . S
C755 N752 1.350 . S
C755 C754 1.434 . S
C756 C757 1.369 . S
C756 C758 1.419 . S
C756 H760 0.930 . S
C757 C756 1.369 . S
C757 C766 1.429 . S
C758 C756 1.419 . S
C758 C759 1.363 . S
C758 H761 0.929 . S
C759 C758 1.363 . S
C759 C765 1.428 . S
H760 C756 0.930 . S
H761 C758 0.929 . S
S762 N763 1.613 . S
S762 N764 1.610 . S
N763 S762 1.613 . S
N763 C766 1.350 . S
N764 S762 1.610 . S
N764 C765 1.351 . S
C765 C759 1.428 . S
C765 N764 1.351 . S
C765 C766 1.434 . S
C766 C757 1.429 . S
C766 N763 1.350 . S
C766 C765 1.434 . S
C767 C768 1.369 . S
C767 C769 1.419 . S
C767 H771 0.930 . S
C768 C767 1.369 . S
C768 C777 1.429 . S
C769 C767 1.419 . S
C769 C770 1.363 . S
C769 H772 0.929 . S
C770 C769 1.363 . S
C770 C776 1.428 . S
H771 C767 0.930 . S
H772 C769 0.929 . S
S773 N774 1.613 . S
S773 N775 1.610 . S
N774 S773 1.613 . S
N774 C777 1.350 . S
N775 S773 1.610 . S
N775 C776 1.351 . S
C776 C770 1.428 . S
C776 N775 1.351 . S
C776 C777 1.434 . S
C777 C768 1.429 . S
C777 N774 1.350 . S
C777 C776 1.434 . S
C778 C779 1.369 . S
C778 C780 1.419 . S
C778 H782 0.930 . S
C779 C778 1.369 . S
C779 C788 1.429 . S
C780 C778 1.419 . S
C780 C781 1.363 . S
C780 H783 0.929 . S
C781 C780 1.363 . S
C781 C787 1.428 . S
H782 C778 0.930 . S
H783 C780 0.929 . S
S784 N785 1.613 . S
S784 N786 1.610 . S
N785 S784 1.613 . S
N785 C788 1.350 . S
N786 S784 1.610 . S
N786 C787 1.351 . S
C787 C781 1.428 . S
C787 N786 1.351 . S
C787 C788 1.434 . S
C788 C779 1.429 . S
C788 N785 1.350 . S
C788 C787 1.434 . S
C789 C790 1.369 . S
C789 C791 1.419 . S
C789 H793 0.930 . S
C790 C789 1.369 . S
C790 C799 1.429 . S
C791 C789 1.419 . S
C791 C792 1.363 . S
C791 H794 0.929 . S
C792 C791 1.363 . S
C792 C798 1.428 . S
H793 C789 0.930 . S
H794 C791 0.929 . S
S795 N796 1.613 . S
S795 N797 1.610 . S
N796 S795 1.613 . S
N796 C799 1.350 . S
N797 S795 1.610 . S
N797 C798 1.351 . S
C798 C792 1.428 . S
C798 N797 1.351 . S
C798 C799 1.434 . S
C799 C790 1.429 . S
C799 N796 1.350 . S
C799 C798 1.434 . S
C800 C801 1.369 . S
C800 C802 1.419 . S
C800 H804 0.930 . S
C801 C800 1.369 . S
C801 C810 1.429 . S
C802 C800 1.419 . S
C802 C803 1.363 . S
C802 H805 0.929 . S
C803 C802 1.363 . S
C803 C809 1.428 . S
H804 C800 0.930 . S
H805 C802 0.929 . S
S806 N807 1.613 . S
S806 N808 1.610 . S
N807 S806 1.613 . S
N807 C810 1.350 . S
N808 S806 1.610 . S
N808 C809 1.351 . S
C809 C803 1.428 . S
C809 N808 1.351 . S
C809 C810 1.434 . S
C810 C801 1.429 . S
C810 N807 1.350 . S
C810 C809 1.434 . S
C811 C812 1.369 . S
C811 C813 1.419 . S
C811 H815 0.930 . S
C812 C811 1.369 . S
C812 C821 1.429 . S
C813 C811 1.419 . S
C813 C814 1.363 . S
C813 H816 0.929 . S
C814 C813 1.363 . S
C814 C820 1.428 . S
H815 C811 0.930 . S
H816 C813 0.929 . S
S817 N818 1.613 . S
S817 N819 1.610 . S
N818 S817 1.613 . S
N818 C821 1.350 . S
N819 S817 1.610 . S
N819 C820 1.351 . S
C820 C814 1.428 . S
C820 N819 1.351 . S
C820 C821 1.434 . S
C821 C812 1.429 . S
C821 N818 1.350 . S
C821 C820 1.434 . S
C822 C823 1.369 . S
C822 C824 1.419 . S
C822 H826 0.930 . S
C823 C822 1.369 . S
C823 C832 1.429 . S
C824 C822 1.419 . S
C824 C825 1.363 . S
C824 H827 0.929 . S
C825 C824 1.363 . S
C825 C831 1.428 . S
H826 C822 0.930 . S
H827 C824 0.929 . S
S828 N829 1.613 . S
S828 N830 1.610 . S
N829 S828 1.613 . S
N829 C832 1.350 . S
N830 S828 1.610 . S
N830 C831 1.351 . S
C831 C825 1.428 . S
C831 N830 1.351 . S
C831 C832 1.434 . S
C832 C823 1.429 . S
C832 N829 1.350 . S
C832 C831 1.434 . S
C833 C834 1.369 . S
C833 C835 1.419 . S
C833 H837 0.930 . S
C834 C833 1.369 . S
C834 C843 1.429 . S
C835 C833 1.419 . S
C835 C836 1.363 . S
C835 H838 0.929 . S
C836 C835 1.363 . S
C836 C842 1.428 . S
H837 C833 0.930 . S
H838 C835 0.929 . S
S839 N840 1.613 . S
S839 N841 1.610 . S
N840 S839 1.613 . S
N840 C843 1.350 . S
N841 S839 1.610 . S
N841 C842 1.351 . S
C842 C836 1.428 . S
C842 N841 1.351 . S
C842 C843 1.434 . S
C843 C834 1.429 . S
C843 N840 1.350 . S
C843 C842 1.434 . S
C844 C845 1.369 . S
C844 C846 1.419 . S
C844 H848 0.930 . S
C845 C844 1.369 . S
C845 C854 1.429 . S
C846 C844 1.419 . S
C846 C847 1.363 . S
C846 H849 0.929 . S
C847 C846 1.363 . S
C847 C853 1.428 . S
H848 C844 0.930 . S
H849 C846 0.929 . S
S850 N851 1.613 . S
S850 N852 1.610 . S
N851 S850 1.613 . S
N851 C854 1.350 . S
N852 S850 1.610 . S
N852 C853 1.351 . S
C853 C847 1.428 . S
C853 N852 1.351 . S
C853 C854 1.434 . S
C854 C845 1.429 . S
C854 N851 1.350 . S
C854 C853 1.434 . S
C855 C856 1.369 . S
C855 C857 1.419 . S
C855 H859 0.930 . S
C856 C855 1.369 . S
C856 C865 1.429 . S
C857 C855 1.419 . S
C857 C858 1.363 . S
C857 H860 0.929 . S
C858 C857 1.363 . S
C858 C864 1.428 . S
H859 C855 0.930 . S
H860 C857 0.929 . S
S861 N862 1.613 . S
S861 N863 1.610 . S
N862 S861 1.613 . S
N862 C865 1.350 . S
N863 S861 1.610 . S
N863 C864 1.351 . S
C864 C858 1.428 . S
C864 N863 1.351 . S
C864 C865 1.434 . S
C865 C856 1.429 . S
C865 N862 1.350 . S
C865 C864 1.434 . S
C866 C867 1.369 . S
C866 C868 1.419 . S
C866 H870 0.930 . S
C867 C866 1.369 . S
C867 C876 1.429 . S
C868 C866 1.419 . S
C868 C869 1.363 . S
C868 H871 0.929 . S
C869 C868 1.363 . S
C869 C875 1.428 . S
H870 C866 0.930 . S
H871 C868 0.929 . S
S872 N873 1.613 . S
S872 N874 1.610 . S
N873 S872 1.613 . S
N873 C876 1.350 . S
N874 S872 1.610 . S
N874 C875 1.351 . S
C875 C869 1.428 . S
C875 N874 1.351 . S
C875 C876 1.434 . S
C876 C867 1.429 . S
C876 N873 1.350 . S
C876 C875 1.434 . S
C877 C878 1.369 . S
C877 C879 1.419 . S
C877 H881 0.930 . S
C878 C877 1.369 . S
C878 C887 1.429 . S
C879 C877 1.419 . S
C879 C880 1.363 . S
C879 H882 0.929 . S
C880 C879 1.363 . S
C880 C886 1.428 . S
H881 C877 0.930 . S
H882 C879 0.929 . S
S883 N884 1.613 . S
S883 N885 1.610 . S
N884 S883 1.613 . S
N884 C887 1.350 . S
N885 S883 1.610 . S
N885 C886 1.351 . S
C886 C880 1.428 . S
C886 N885 1.351 . S
C886 C887 1.434 . S
C887 C878 1.429 . S
C887 N884 1.350 . S
C887 C886 1.434 . S
C888 C889 1.369 . S
C888 C890 1.419 . S
C888 H892 0.930 . S
C889 C888 1.369 . S
C889 C898 1.429 1_655 S
C890 C888 1.419 . S
C890 C891 1.363 1_655 S
C890 H893 0.929 . S
C891 C890 1.363 1_455 S
C891 C897 1.428 . S
H892 C888 0.930 . S
H893 C890 0.929 . S
S894 N895 1.613 . S
S894 N896 1.610 . S
N895 S894 1.613 . S
N895 C898 1.350 . S
N896 S894 1.610 . S
N896 C897 1.351 . S
C897 C891 1.428 . S
C897 N896 1.351 . S
C897 C898 1.434 . S
C898 C889 1.429 1_455 S
C898 N895 1.350 . S
C898 C897 1.434 . S
C899 C900 1.369 1_545 S
C899 C901 1.419 . S
C899 H903 0.930 . S
C900 C899 1.369 1_565 S
C900 C909 1.429 . S
C901 C899 1.419 . S
C901 C902 1.363 . S
C901 H904 0.929 . S
C902 C901 1.363 . S
C902 C908 1.428 1_545 S
H903 C899 0.930 . S
H904 C901 0.929 . S
S905 N906 1.613 . S
S905 N907 1.610 . S
N906 S905 1.613 . S
N906 C909 1.350 . S
N907 S905 1.610 . S
N907 C908 1.351 . S
C908 C902 1.428 1_565 S
C908 N907 1.351 . S
C908 C909 1.434 . S
C909 C900 1.429 . S
C909 N906 1.350 . S
C909 C908 1.434 . S
C910 C911 1.369 . S
C910 C912 1.419 . S
C910 H914 0.930 . S
C911 C910 1.369 . S
C911 C920 1.429 1_655 S
C912 C910 1.419 . S
C912 C913 1.363 1_655 S
C912 H915 0.929 . S
C913 C912 1.363 1_455 S
C913 C919 1.428 . S
H914 C910 0.930 . S
H915 C912 0.929 . S
S916 N917 1.613 . S
S916 N918 1.610 . S
N917 S916 1.613 . S
N917 C920 1.350 . S
N918 S916 1.610 . S
N918 C919 1.351 . S
C919 C913 1.428 . S
C919 N918 1.351 . S
C919 C920 1.434 . S
C920 C911 1.429 1_455 S
C920 N917 1.350 . S
C920 C919 1.434 . S
C921 C922 1.369 . S
C921 C923 1.419 . S
C921 H925 0.930 . S
C922 C921 1.369 . S
C922 C931 1.429 1_545 S
C923 C921 1.419 . S
C923 C924 1.363 1_545 S
C923 H926 0.929 . S
C924 C923 1.363 1_565 S
C924 C930 1.428 . S
H925 C921 0.930 . S
H926 C923 0.929 . S
S927 N928 1.613 . S
S927 N929 1.610 . S
N928 S927 1.613 . S
N928 C931 1.350 . S
N929 S927 1.610 . S
N929 C930 1.351 . S
C930 C924 1.428 . S
C930 N929 1.351 . S
C930 C931 1.434 . S
C931 C922 1.429 1_565 S
C931 N928 1.350 . S
C931 C930 1.434 . S
C932 C933 1.369 . S
C932 C934 1.419 . S
C932 H936 0.930 . S
C933 C932 1.369 . S
C933 C942 1.429 1_455 S
C934 C932 1.419 . S
C934 C935 1.363 1_455 S
C934 H937 0.929 . S
C935 C934 1.363 1_655 S
C935 C941 1.428 . S
H936 C932 0.930 . S
H937 C934 0.929 . S
S938 N939 1.613 . S
S938 N940 1.610 . S
N939 S938 1.613 . S
N939 C942 1.350 . S
N940 S938 1.610 . S
N940 C941 1.351 . S
C941 C935 1.428 . S
C941 N940 1.351 . S
C941 C942 1.434 . S
C942 C933 1.429 1_655 S
C942 N939 1.350 . S
C942 C941 1.434 . S
C943 C944 1.369 1_545 S
C943 C945 1.419 . S
C943 H947 0.930 . S
C944 C943 1.369 1_565 S
C944 C953 1.429 . S
C945 C943 1.419 . S
C945 C946 1.363 . S
C945 H948 0.929 . S
C946 C945 1.363 . S
C946 C952 1.428 1_545 S
H947 C943 0.930 . S
H948 C945 0.929 . S
S949 N950 1.613 . S
S949 N951 1.610 . S
N950 S949 1.613 . S
N950 C953 1.350 . S
N951 S949 1.610 . S
N951 C952 1.351 . S
C952 C946 1.428 1_565 S
C952 N951 1.351 . S
C952 C953 1.434 . S
C953 C944 1.429 . S
C953 N950 1.350 . S
C953 C952 1.434 . S
C954 C955 1.369 1_655 S
C954 C956 1.419 . S
C954 H958 0.930 . S
C955 C954 1.369 1_455 S
C955 C964 1.429 . S
C956 C954 1.419 . S
C956 C957 1.363 . S
C956 H959 0.929 . S
C957 C956 1.363 . S
C957 C963 1.428 1_655 S
H958 C954 0.930 . S
H959 C956 0.929 . S
S960 N961 1.613 . S
S960 N962 1.610 . S
N961 S960 1.613 . S
N961 C964 1.350 . S
N962 S960 1.610 . S
N962 C963 1.351 . S
C963 C957 1.428 1_455 S
C963 N962 1.351 . S
C963 C964 1.434 . S
C964 C955 1.429 . S
C964 N961 1.350 . S
C964 C963 1.434 . S
C965 C966 1.369 . S
C965 C967 1.419 . S
C965 H969 0.930 . S
C966 C965 1.369 . S
C966 C975 1.429 1_545 S
C967 C965 1.419 . S
C967 C968 1.363 1_545 S
C967 H970 0.929 . S
C968 C967 1.363 1_565 S
C968 C974 1.428 . S
H969 C965 0.930 . S
H970 C967 0.929 . S
S971 N972 1.613 . S
S971 N973 1.610 . S
N972 S971 1.613 . S
N972 C975 1.350 . S
N973 S971 1.610 . S
N973 C974 1.351 . S
C974 C968 1.428 . S
C974 N973 1.351 . S
C974 C975 1.434 . S
C975 C966 1.429 1_565 S
C975 N972 1.350 . S
C975 C974 1.434 . S
C976 C977 1.369 1_554 S
C976 C978 1.419 . S
C976 H980 0.930 . S
C977 C976 1.369 1_556 S
C977 C986 1.429 . S
C978 C976 1.419 . S
C978 C979 1.363 . S
C978 H981 0.929 . S
C979 C978 1.363 . S
C979 C985 1.428 1_554 S
H980 C976 0.930 . S
H981 C978 0.929 . S
S982 N983 1.613 . S
S982 N984 1.610 . S
N983 S982 1.613 . S
N983 C986 1.350 . S
N984 S982 1.610 . S
N984 C985 1.351 . S
C985 C979 1.428 1_556 S
C985 N984 1.351 . S
C985 C986 1.434 . S
C986 C977 1.429 . S
C986 N983 1.350 . S
C986 C985 1.434 . S
C987 C988 1.369 1_556 S
C987 C989 1.419 . S
C987 H991 0.930 . S
C988 C987 1.369 1_554 S
C988 C997 1.429 . S
C989 C987 1.419 . S
C989 C990 1.363 . S
C989 H992 0.929 . S
C990 C989 1.363 . S
C990 C996 1.428 1_556 S
H991 C987 0.930 . S
H992 C989 0.929 . S
S993 N994 1.613 . S
S993 N995 1.610 . S
N994 S993 1.613 . S
N994 C997 1.350 . S
N995 S993 1.610 . S
N995 C996 1.351 . S
C996 C990 1.428 1_554 S
C996 N995 1.351 . S
C996 C997 1.434 . S
C997 C988 1.429 . S
C997 N994 1.350 . S
C997 C996 1.434 . S
C998 C999 1.369 . S
C998 C1000 1.419 1_554 S
C998 H1002 0.930 . S
C999 C998 1.369 . S
C999 C1008 1.429 . S
C1000 C998 1.419 1_556 S
C1000 C1001 1.363 . S
C1000 H1003 0.929 . S
C1001 C1000 1.363 . S
C1001 C1007 1.428 . S
H1002 C998 0.930 . S
H1003 C1000 0.929 . S
S1004 N1005 1.613 . S
S1004 N1006 1.610 1_554 S
N1005 S1004 1.613 . S
N1005 C1008 1.350 . S
N1006 S1004 1.610 1_556 S
N1006 C1007 1.351 . S
C1007 C1001 1.428 . S
C1007 N1006 1.351 . S
C1007 C1008 1.434 1_556 S
C1008 C999 1.429 . S
C1008 N1005 1.350 . S
C1008 C1007 1.434 1_554 S
C1009 C1010 1.369 . S
C1009 C1011 1.419 . S
C1009 H1013 0.930 . S
C1010 C1009 1.369 . S
C1010 C1019 1.429 1_556 S
C1011 C1009 1.419 . S
C1011 C1012 1.363 1_556 S
C1011 H1014 0.929 . S
C1012 C1011 1.363 1_554 S
C1012 C1018 1.428 . S
H1013 C1009 0.930 . S
H1014 C1011 0.929 . S
S1015 N1016 1.613 . S
S1015 N1017 1.610 . S
N1016 S1015 1.613 . S
N1016 C1019 1.350 . S
N1017 S1015 1.610 . S
N1017 C1018 1.351 . S
C1018 C1012 1.428 . S
C1018 N1017 1.351 . S
C1018 C1019 1.434 . S
C1019 C1010 1.429 1_554 S
C1019 N1016 1.350 . S
C1019 C1018 1.434 . S
C1020 C1021 1.369 . S
C1020 C1022 1.419 . S
C1020 H1024 0.930 . S
C1021 C1020 1.369 . S
C1021 C1030 1.429 . S
C1022 C1020 1.419 . S
C1022 C1023 1.363 . S
C1022 H1025 0.929 . S
C1023 C1022 1.363 . S
C1023 C1029 1.428 . S
H1024 C1020 0.930 . S
H1025 C1022 0.929 . S
S1026 N1027 1.613 . S
S1026 N1028 1.610 . S
N1027 S1026 1.613 . S
N1027 C1030 1.350 . S
N1028 S1026 1.610 . S
N1028 C1029 1.351 . S
C1029 C1023 1.428 . S
C1029 N1028 1.351 . S
C1029 C1030 1.434 . S
C1030 C1021 1.429 . S
C1030 N1027 1.350 . S
C1030 C1029 1.434 . S
C1031 C1032 1.369 . S
C1031 C1033 1.419 . S
C1031 H1035 0.930 . S
C1032 C1031 1.369 . S
C1032 C1041 1.429 . S
C1033 C1031 1.419 . S
C1033 C1034 1.363 . S
C1033 H1036 0.929 . S
C1034 C1033 1.363 . S
C1034 C1040 1.428 . S
H1035 C1031 0.930 . S
H1036 C1033 0.929 . S
S1037 N1038 1.613 . S
S1037 N1039 1.610 . S
N1038 S1037 1.613 . S
N1038 C1041 1.350 . S
N1039 S1037 1.610 . S
N1039 C1040 1.351 . S
C1040 C1034 1.428 . S
C1040 N1039 1.351 . S
C1040 C1041 1.434 . S
C1041 C1032 1.429 . S
C1041 N1038 1.350 . S
C1041 C1040 1.434 . S
C1042 C1043 1.369 . S
C1042 C1044 1.419 . S
C1042 H1046 0.930 . S
C1043 C1042 1.369 . S
C1043 C1052 1.429 . S
C1044 C1042 1.419 . S
C1044 C1045 1.363 . S
C1044 H1047 0.929 . S
C1045 C1044 1.363 . S
C1045 C1051 1.428 . S
H1046 C1042 0.930 . S
H1047 C1044 0.929 . S
S1048 N1049 1.613 . S
S1048 N1050 1.610 . S
N1049 S1048 1.613 . S
N1049 C1052 1.350 . S
N1050 S1048 1.610 . S
N1050 C1051 1.351 . S
C1051 C1045 1.428 . S
C1051 N1050 1.351 . S
C1051 C1052 1.434 . S
C1052 C1043 1.429 . S
C1052 N1049 1.350 . S
C1052 C1051 1.434 . S
C1053 C1054 1.369 . S
C1053 C1055 1.419 . S
C1053 H1057 0.930 . S
C1054 C1053 1.369 . S
C1054 C1063 1.429 . S
C1055 C1053 1.419 . S
C1055 C1056 1.363 . S
C1055 H1058 0.929 . S
C1056 C1055 1.363 . S
C1056 C1062 1.428 . S
H1057 C1053 0.930 . S
H1058 C1055 0.929 . S
S1059 N1060 1.613 . S
S1059 N1061 1.610 . S
N1060 S1059 1.613 . S
N1060 C1063 1.350 . S
N1061 S1059 1.610 . S
N1061 C1062 1.351 . S
C1062 C1056 1.428 . S
C1062 N1061 1.351 . S
C1062 C1063 1.434 . S
C1063 C1054 1.429 . S
C1063 N1060 1.350 . S
C1063 C1062 1.434 . S
C1064 C1065 1.369 . S
C1064 C1066 1.419 . S
C1064 H1068 0.930 . S
C1065 C1064 1.369 . S
C1065 C1074 1.429 . S
C1066 C1064 1.419 . S
C1066 C1067 1.363 . S
C1066 H1069 0.929 . S
C1067 C1066 1.363 . S
C1067 C1073 1.428 . S
H1068 C1064 0.930 . S
H1069 C1066 0.929 . S
S1070 N1071 1.613 . S
S1070 N1072 1.610 . S
N1071 S1070 1.613 . S
N1071 C1074 1.350 . S
N1072 S1070 1.610 . S
N1072 C1073 1.351 . S
C1073 C1067 1.428 . S
C1073 N1072 1.351 . S
C1073 C1074 1.434 . S
C1074 C1065 1.429 . S
C1074 N1071 1.350 . S
C1074 C1073 1.434 . S
C1075 C1076 1.369 . S
C1075 C1077 1.419 . S
C1075 H1079 0.930 . S
C1076 C1075 1.369 . S
C1076 C1085 1.429 . S
C1077 C1075 1.419 . S
C1077 C1078 1.363 . S
C1077 H1080 0.929 . S
C1078 C1077 1.363 . S
C1078 C1084 1.428 . S
H1079 C1075 0.930 . S
H1080 C1077 0.929 . S
S1081 N1082 1.613 . S
S1081 N1083 1.610 . S
N1082 S1081 1.613 . S
N1082 C1085 1.350 . S
N1083 S1081 1.610 . S
N1083 C1084 1.351 . S
C1084 C1078 1.428 . S
C1084 N1083 1.351 . S
C1084 C1085 1.434 . S
C1085 C1076 1.429 . S
C1085 N1082 1.350 . S
C1085 C1084 1.434 . S
C1086 C1087 1.369 . S
C1086 C1088 1.419 . S
C1086 H1090 0.930 . S
C1087 C1086 1.369 . S
C1087 C1096 1.429 . S
C1088 C1086 1.419 . S
C1088 C1089 1.363 . S
C1088 H1091 0.929 . S
C1089 C1088 1.363 . S
C1089 C1095 1.428 . S
H1090 C1086 0.930 . S
H1091 C1088 0.929 . S
S1092 N1093 1.613 . S
S1092 N1094 1.610 . S
N1093 S1092 1.613 . S
N1093 C1096 1.350 . S
N1094 S1092 1.610 . S
N1094 C1095 1.351 . S
C1095 C1089 1.428 . S
C1095 N1094 1.351 . S
C1095 C1096 1.434 . S
C1096 C1087 1.429 . S
C1096 N1093 1.350 . S
C1096 C1095 1.434 . S
C1097 C1098 1.369 . S
C1097 C1099 1.419 . S
C1097 H1101 0.930 . S
C1098 C1097 1.369 . S
C1098 C1107 1.429 . S
C1099 C1097 1.419 . S
C1099 C1100 1.363 . S
C1099 H1102 0.929 . S
C1100 C1099 1.363 . S
C1100 C1106 1.428 . S
H1101 C1097 0.930 . S
H1102 C1099 0.929 . S
S1103 N1104 1.613 . S
S1103 N1105 1.610 . S
N1104 S1103 1.613 . S
N1104 C1107 1.350 . S
N1105 S1103 1.610 . S
N1105 C1106 1.351 . S
C1106 C1100 1.428 . S
C1106 N1105 1.351 . S
C1106 C1107 1.434 . S
C1107 C1098 1.429 . S
C1107 N1104 1.350 . S
C1107 C1106 1.434 . S
C1108 C1109 1.369 . S
C1108 C1110 1.419 . S
C1108 H1112 0.930 . S
C1109 C1108 1.369 . S
C1109 C1118 1.429 . S
C1110 C1108 1.419 . S
C1110 C1111 1.363 . S
C1110 H1113 0.929 . S
C1111 C1110 1.363 . S
C1111 C1117 1.428 . S
H1112 C1108 0.930 . S
H1113 C1110 0.929 . S
S1114 N1115 1.613 . S
S1114 N1116 1.610 . S
N1115 S1114 1.613 . S
N1115 C1118 1.350 . S
N1116 S1114 1.610 . S
N1116 C1117 1.351 . S
C1117 C1111 1.428 . S
C1117 N1116 1.351 . S
C1117 C1118 1.434 . S
C1118 C1109 1.429 . S
C1118 N1115 1.350 . S
C1118 C1117 1.434 . S
C1119 C1120 1.369 . S
C1119 C1121 1.419 . S
C1119 H1123 0.930 . S
C1120 C1119 1.369 . S
C1120 C1129 1.429 . S
C1121 C1119 1.419 . S
C1121 C1122 1.363 . S
C1121 H1124 0.929 . S
C1122 C1121 1.363 . S
C1122 C1128 1.428 . S
H1123 C1119 0.930 . S
H1124 C1121 0.929 . S
S1125 N1126 1.613 . S
S1125 N1127 1.610 . S
N1126 S1125 1.613 . S
N1126 C1129 1.350 . S
N1127 S1125 1.610 . S
N1127 C1128 1.351 . S
C1128 C1122 1.428 . S
C1128 N1127 1.351 . S
C1128 C1129 1.434 . S
C1129 C1120 1.429 . S
C1129 N1126 1.350 . S
C1129 C1128 1.434 . S
C1130 C1131 1.369 . S
C1130 C1132 1.419 . S
C1130 H1134 0.930 . S
C1131 C1130 1.369 . S
C1131 C1140 1.429 . S
C1132 C1130 1.419 . S
C1132 C1133 1.363 . S
C1132 H1135 0.929 . S
C1133 C1132 1.363 . S
C1133 C1139 1.428 . S
H1134 C1130 0.930 . S
H1135 C1132 0.929 . S
S1136 N1137 1.613 . S
S1136 N1138 1.610 . S
N1137 S1136 1.613 . S
N1137 C1140 1.350 . S
N1138 S1136 1.610 . S
N1138 C1139 1.351 . S
C1139 C1133 1.428 . S
C1139 N1138 1.351 . S
C1139 C1140 1.434 . S
C1140 C1131 1.429 . S
C1140 N1137 1.350 . S
C1140 C1139 1.434 . S
C1141 C1142 1.369 . S
C1141 C1143 1.419 . S
C1141 H1145 0.930 . S
C1142 C1141 1.369 . S
C1142 C1151 1.429 . S
C1143 C1141 1.419 . S
C1143 C1144 1.363 . S
C1143 H1146 0.929 . S
C1144 C1143 1.363 . S
C1144 C1150 1.428 . S
H1145 C1141 0.930 . S
H1146 C1143 0.929 . S
S1147 N1148 1.613 . S
S1147 N1149 1.610 . S
N1148 S1147 1.613 . S
N1148 C1151 1.350 . S
N1149 S1147 1.610 . S
N1149 C1150 1.351 . S
C1150 C1144 1.428 . S
C1150 N1149 1.351 . S
C1150 C1151 1.434 . S
C1151 C1142 1.429 . S
C1151 N1148 1.350 . S
C1151 C1150 1.434 . S
C1152 C1153 1.369 . S
C1152 C1154 1.419 . S
C1152 H1156 0.930 . S
C1153 C1152 1.369 . S
C1153 C1162 1.429 . S
C1154 C1152 1.419 . S
C1154 C1155 1.363 . S
C1154 H1157 0.929 . S
C1155 C1154 1.363 . S
C1155 C1161 1.428 . S
H1156 C1152 0.930 . S
H1157 C1154 0.929 . S
S1158 N1159 1.613 . S
S1158 N1160 1.610 . S
N1159 S1158 1.613 . S
N1159 C1162 1.350 . S
N1160 S1158 1.610 . S
N1160 C1161 1.351 . S
C1161 C1155 1.428 . S
C1161 N1160 1.351 . S
C1161 C1162 1.434 . S
C1162 C1153 1.429 . S
C1162 N1159 1.350 . S
C1162 C1161 1.434 . S
C1163 C1164 1.369 . S
C1163 C1165 1.419 . S
C1163 H1167 0.930 . S
C1164 C1163 1.369 . S
C1164 C1173 1.429 . S
C1165 C1163 1.419 . S
C1165 C1166 1.363 . S
C1165 H1168 0.929 . S
C1166 C1165 1.363 . S
C1166 C1172 1.428 . S
H1167 C1163 0.930 . S
H1168 C1165 0.929 . S
S1169 N1170 1.613 . S
S1169 N1171 1.610 . S
N1170 S1169 1.613 . S
N1170 C1173 1.350 . S
N1171 S1169 1.610 . S
N1171 C1172 1.351 . S
C1172 C1166 1.428 . S
C1172 N1171 1.351 . S
C1172 C1173 1.434 . S
C1173 C1164 1.429 . S
C1173 N1170 1.350 . S
C1173 C1172 1.434 . S
C1174 C1175 1.369 . S
C1174 C1176 1.419 . S
C1174 H1178 0.930 . S
C1175 C1174 1.369 . S
C1175 C1184 1.429 . S
C1176 C1174 1.419 . S
C1176 C1177 1.363 . S
C1176 H1179 0.929 . S
C1177 C1176 1.363 . S
C1177 C1183 1.428 . S
H1178 C1174 0.930 . S
H1179 C1176 0.929 . S
S1180 N1181 1.613 . S
S1180 N1182 1.610 . S
N1181 S1180 1.613 . S
N1181 C1184 1.350 . S
N1182 S1180 1.610 . S
N1182 C1183 1.351 . S
C1183 C1177 1.428 . S
C1183 N1182 1.351 . S
C1183 C1184 1.434 . S
C1184 C1175 1.429 . S
C1184 N1181 1.350 . S
C1184 C1183 1.434 . S
C1185 C1186 1.369 . S
C1185 C1187 1.419 . S
C1185 H1189 0.930 . S
C1186 C1185 1.369 . S
C1186 C1195 1.429 . S
C1187 C1185 1.419 . S
C1187 C1188 1.363 . S
C1187 H1190 0.929 . S
C1188 C1187 1.363 . S
C1188 C1194 1.428 . S
H1189 C1185 0.930 . S
H1190 C1187 0.929 . S
S1191 N1192 1.613 . S
S1191 N1193 1.610 . S
N1192 S1191 1.613 . S
N1192 C1195 1.350 . S
N1193 S1191 1.610 . S
N1193 C1194 1.351 . S
C1194 C1188 1.428 . S
C1194 N1193 1.351 . S
C1194 C1195 1.434 . S
C1195 C1186 1.429 . S
C1195 N1192 1.350 . S
C1195 C1194 1.434 . S
C1196 C1197 1.369 . S
C1196 C1198 1.419 . S
C1196 H1200 0.930 . S
C1197 C1196 1.369 . S
C1197 C1206 1.429 . S
C1198 C1196 1.419 . S
C1198 C1199 1.363 . S
C1198 H1201 0.929 . S
C1199 C1198 1.363 . S
C1199 C1205 1.428 . S
H1200 C1196 0.930 . S
H1201 C1198 0.929 . S
S1202 N1203 1.613 . S
S1202 N1204 1.610 . S
N1203 S1202 1.613 . S
N1203 C1206 1.350 . S
N1204 S1202 1.610 . S
N1204 C1205 1.351 . S
C1205 C1199 1.428 . S
C1205 N1204 1.351 . S
C1205 C1206 1.434 . S
C1206 C1197 1.429 . S
C1206 N1203 1.350 . S
C1206 C1205 1.434 . S
C1207 C1208 1.369 . S
C1207 C1209 1.419 . S
C1207 H1211 0.930 . S
C1208 C1207 1.369 . S
C1208 C1217 1.429 . S
C1209 C1207 1.419 . S
C1209 C1210 1.363 . S
C1209 H1212 0.929 . S
C1210 C1209 1.363 . S
C1210 C1216 1.428 . S
H1211 C1207 0.930 . S
H1212 C1209 0.929 . S
S1213 N1214 1.613 . S
S1213 N1215 1.610 . S
N1214 S1213 1.613 . S
N1214 C1217 1.350 . S
N1215 S1213 1.610 . S
N1215 C1216 1.351 . S
C1216 C1210 1.428 . S
C1216 N1215 1.351 . S
C1216 C1217 1.434 . S
C1217 C1208 1.429 . S
C1217 N1214 1.350 . S
C1217 C1216 1.434 . S
C1218 C1219 1.369 . S
C1218 C1220 1.419 . S
C1218 H1222 0.930 . S
C1219 C1218 1.369 . S
C1219 C1228 1.429 . S
C1220 C1218 1.419 . S
C1220 C1221 1.363 . S
C1220 H1223 0.929 . S
C1221 C1220 1.363 . S
C1221 C1227 1.428 . S
H1222 C1218 0.930 . S
H1223 C1220 0.929 . S
S1224 N1225 1.613 . S
S1224 N1226 1.610 . S
N1225 S1224 1.613 . S
N1225 C1228 1.350 . S
N1226 S1224 1.610 . S
N1226 C1227 1.351 . S
C1227 C1221 1.428 . S
C1227 N1226 1.351 . S
C1227 C1228 1.434 . S
C1228 C1219 1.429 . S
C1228 N1225 1.350 . S
C1228 C1227 1.434 . S
C1229 C1230 1.369 . S
C1229 C1231 1.419 . S
C1229 H1233 0.930 . S
C1230 C1229 1.369 . S
C1230 C1239 1.429 . S
C1231 C1229 1.419 . S
C1231 C1232 1.363 . S
C1231 H1234 0.929 . S
C1232 C1231 1.363 . S
C1232 C1238 1.428 . S
H1233 C1229 0.930 . S
H1234 C1231 0.929 . S
S1235 N1236 1.613 . S
S1235 N1237 1.610 . S
N1236 S1235 1.613 . S
N1236 C1239 1.350 . S
N1237 S1235 1.610 . S
N1237 C1238 1.351 . S
C1238 C1232 1.428 . S
C1238 N1237 1.351 . S
C1238 C1239 1.434 . S
C1239 C1230 1.429 . S
C1239 N1236 1.350 . S
C1239 C1238 1.434 . S
C1240 C1241 1.369 . S
C1240 C1242 1.419 . S
C1240 H1244 0.930 . S
C1241 C1240 1.369 . S
C1241 C1250 1.429 . S
C1242 C1240 1.419 . S
C1242 C1243 1.363 . S
C1242 H1245 0.929 . S
C1243 C1242 1.363 . S
C1243 C1249 1.428 . S
H1244 C1240 0.930 . S
H1245 C1242 0.929 . S
S1246 N1247 1.613 . S
S1246 N1248 1.610 . S
N1247 S1246 1.613 . S
N1247 C1250 1.350 . S
N1248 S1246 1.610 . S
N1248 C1249 1.351 . S
C1249 C1243 1.428 . S
C1249 N1248 1.351 . S
C1249 C1250 1.434 . S
C1250 C1241 1.429 . S
C1250 N1247 1.350 . S
C1250 C1249 1.434 . S
C1251 C1252 1.369 . S
C1251 C1253 1.419 . S
C1251 H1255 0.930 . S
C1252 C1251 1.369 . S
C1252 C1261 1.429 . S
C1253 C1251 1.419 . S
C1253 C1254 1.363 . S
C1253 H1256 0.929 . S
C1254 C1253 1.363 . S
C1254 C1260 1.428 . S
H1255 C1251 0.930 . S
H1256 C1253 0.929 . S
S1257 N1258 1.613 . S
S1257 N1259 1.610 . S
N1258 S1257 1.613 . S
N1258 C1261 1.350 . S
N1259 S1257 1.610 . S
N1259 C1260 1.351 . S
C1260 C1254 1.428 . S
C1260 N1259 1.351 . S
C1260 C1261 1.434 . S
C1261 C1252 1.429 . S
C1261 N1258 1.350 . S
C1261 C1260 1.434 . S
C1262 C1263 1.369 . S
C1262 C1264 1.419 . S
C1262 H1266 0.930 . S
C1263 C1262 1.369 . S
C1263 C1272 1.429 . S
C1264 C1262 1.419 . S
C1264 C1265 1.363 . S
C1264 H1267 0.929 . S
C1265 C1264 1.363 . S
C1265 C1271 1.428 . S
H1266 C1262 0.930 . S
H1267 C1264 0.929 . S
S1268 N1269 1.613 . S
S1268 N1270 1.610 . S
N1269 S1268 1.613 . S
N1269 C1272 1.350 . S
N1270 S1268 1.610 . S
N1270 C1271 1.351 . S
C1271 C1265 1.428 . S
C1271 N1270 1.351 . S
C1271 C1272 1.434 . S
C1272 C1263 1.429 . S
C1272 N1269 1.350 . S
C1272 C1271 1.434 . S
C1273 C1274 1.369 . S
C1273 C1275 1.419 . S
C1273 H1277 0.930 . S
C1274 C1273 1.369 . S
C1274 C1283 1.429 . S
C1275 C1273 1.419 . S
C1275 C1276 1.363 . S
C1275 H1278 0.929 . S
C1276 C1275 1.363 . S
C1276 C1282 1.428 . S
H1277 C1273 0.930 . S
H1278 C1275 0.929 . S
S1279 N1280 1.613 . S
S1279 N1281 1.610 . S
N1280 S1279 1.613 . S
N1280 C1283 1.350 . S
N1281 S1279 1.610 . S
N1281 C1282 1.351 . S
C1282 C1276 1.428 . S
C1282 N1281 1.351 . S
C1282 C1283 1.434 . S
C1283 C1274 1.429 . S
C1283 N1280 1.350 . S
C1283 C1282 1.434 . S
C1284 C1285 1.369 . S
C1284 C1286 1.419 . S
C1284 H1288 0.930 . S
C1285 C1284 1.369 . S
C1285 C1294 1.429 . S
C1286 C1284 1.419 . S
C1286 C1287 1.363 . S
C1286 H1289 0.929 . S
C1287 C1286 1.363 . S
C1287 C1293 1.428 . S
H1288 C1284 0.930 . S
H1289 C1286 0.929 . S
S1290 N1291 1.613 . S
S1290 N1292 1.610 . S
N1291 S1290 1.613 . S
N1291 C1294 1.350 . S
N1292 S1290 1.610 . S
N1292 C1293 1.351 . S
C1293 C1287 1.428 . S
C1293 N1292 1.351 . S
C1293 C1294 1.434 . S
C1294 C1285 1.429 . S
C1294 N1291 1.350 . S
C1294 C1293 1.434 . S
C1295 C1296 1.369 . S
C1295 C1297 1.419 . S
C1295 H1299 0.930 . S
C1296 C1295 1.369 . S
C1296 C1305 1.429 . S
C1297 C1295 1.419 . S
C1297 C1298 1.363 . S
C1297 H1300 0.929 . S
C1298 C1297 1.363 . S
C1298 C1304 1.428 . S
H1299 C1295 0.930 . S
H1300 C1297 0.929 . S
S1301 N1302 1.613 . S
S1301 N1303 1.610 . S
N1302 S1301 1.613 . S
N1302 C1305 1.350 . S
N1303 S1301 1.610 . S
N1303 C1304 1.351 . S
C1304 C1298 1.428 . S
C1304 N1303 1.351 . S
C1304 C1305 1.434 . S
C1305 C1296 1.429 . S
C1305 N1302 1.350 . S
C1305 C1304 1.434 . S
C1306 C1307 1.369 . S
C1306 C1308 1.419 . S
C1306 H1310 0.930 . S
C1307 C1306 1.369 . S
C1307 C1316 1.429 . S
C1308 C1306 1.419 . S
C1308 C1309 1.363 . S
C1308 H1311 0.929 . S
C1309 C1308 1.363 . S
C1309 C1315 1.428 . S
H1310 C1306 0.930 . S
H1311 C1308 0.929 . S
S1312 N1313 1.613 . S
S1312 N1314 1.610 . S
N1313 S1312 1.613 . S
N1313 C1316 1.350 . S
N1314 S1312 1.610 . S
N1314 C1315 1.351 . S
C1315 C1309 1.428 . S
C1315 N1314 1.351 . S
C1315 C1316 1.434 . S
C1316 C1307 1.429 . S
C1316 N1313 1.350 . S
C1316 C1315 1.434 . S
C1317 C1318 1.369 . S
C1317 C1319 1.419 . S
C1317 H1321 0.930 . S
C1318 C1317 1.369 . S
C1318 C1327 1.429 . S
C1319 C1317 1.419 . S
C1319 C1320 1.363 . S
C1319 H1322 0.929 . S
C1320 C1319 1.363 . S
C1320 C1326 1.428 . S
H1321 C1317 0.930 . S
H1322 C1319 0.929 . S
S1323 N1324 1.613 . S
S1323 N1325 1.610 . S
N1324 S1323 1.613 . S
N1324 C1327 1.350 . S
N1325 S1323 1.610 . S
N1325 C1326 1.351 . S
C1326 C1320 1.428 . S
C1326 N1325 1.351 . S
C1326 C1327 1.434 . S
C1327 C1318 1.429 . S
C1327 N1324 1.350 . S
C1327 C1326 1.434 . S
C1328 C1329 1.369 . S
C1328 C1330 1.419 . S
C1328 H1332 0.930 . S
C1329 C1328 1.369 . S
C1329 C1338 1.429 . S
C1330 C1328 1.419 . S
C1330 C1331 1.363 . S
C1330 H1333 0.929 . S
C1331 C1330 1.363 . S
C1331 C1337 1.428 . S
H1332 C1328 0.930 . S
H1333 C1330 0.929 . S
S1334 N1335 1.613 . S
S1334 N1336 1.610 . S
N1335 S1334 1.613 . S
N1335 C1338 1.350 . S
N1336 S1334 1.610 . S
N1336 C1337 1.351 . S
C1337 C1331 1.428 . S
C1337 N1336 1.351 . S
C1337 C1338 1.434 . S
C1338 C1329 1.429 . S
C1338 N1335 1.350 . S
C1338 C1337 1.434 . S
C1339 C1340 1.369 . S
C1339 C1341 1.419 . S
C1339 H1343 0.930 . S
C1340 C1339 1.369 . S
C1340 C1349 1.429 . S
C1341 C1339 1.419 . S
C1341 C1342 1.363 . S
C1341 H1344 0.929 . S
C1342 C1341 1.363 . S
C1342 C1348 1.428 . S
H1343 C1339 0.930 . S
H1344 C1341 0.929 . S
S1345 N1346 1.613 . S
S1345 N1347 1.610 . S
N1346 S1345 1.613 . S
N1346 C1349 1.350 . S
N1347 S1345 1.610 . S
N1347 C1348 1.351 . S
C1348 C1342 1.428 . S
C1348 N1347 1.351 . S
C1348 C1349 1.434 . S
C1349 C1340 1.429 . S
C1349 N1346 1.350 . S
C1349 C1348 1.434 . S
C1350 C1351 1.369 . S
C1350 C1352 1.419 . S
C1350 H1354 0.930 . S
C1351 C1350 1.369 . S
C1351 C1360 1.429 . S
C1352 C1350 1.419 . S
C1352 C1353 1.363 . S
C1352 H1355 0.929 . S
C1353 C1352 1.363 . S
C1353 C1359 1.428 . S
H1354 C1350 0.930 . S
H1355 C1352 0.929 . S
S1356 N1357 1.613 . S
S1356 N1358 1.610 . S
N1357 S1356 1.613 . S
N1357 C1360 1.350 . S
N1358 S1356 1.610 . S
N1358 C1359 1.351 . S
C1359 C1353 1.428 . S
C1359 N1358 1.351 . S
C1359 C1360 1.434 . S
C1360 C1351 1.429 . S
C1360 N1357 1.350 . S
C1360 C1359 1.434 . S
C1361 C1362 1.369 . S
C1361 C1363 1.419 . S
C1361 H1365 0.930 . S
C1362 C1361 1.369 . S
C1362 C1371 1.429 . S
C1363 C1361 1.419 . S
C1363 C1364 1.363 . S
C1363 H1366 0.929 . S
C1364 C1363 1.363 . S
C1364 C1370 1.428 . S
H1365 C1361 0.930 . S
H1366 C1363 0.929 . S
S1367 N1368 1.613 . S
S1367 N1369 1.610 . S
N1368 S1367 1.613 . S
N1368 C1371 1.350 . S
N1369 S1367 1.610 . S
N1369 C1370 1.351 . S
C1370 C1364 1.428 . S
C1370 N1369 1.351 . S
C1370 C1371 1.434 . S
C1371 C1362 1.429 . S
C1371 N1368 1.350 . S
C1371 C1370 1.434 . S
C1372 C1373 1.369 . S
C1372 C1374 1.419 . S
C1372 H1376 0.930 . S
C1373 C1372 1.369 . S
C1373 C1382 1.429 . S
C1374 C1372 1.419 . S
C1374 C1375 1.363 . S
C1374 H1377 0.929 . S
C1375 C1374 1.363 . S
C1375 C1381 1.428 . S
H1376 C1372 0.930 . S
H1377 C1374 0.929 . S
S1378 N1379 1.613 . S
S1378 N1380 1.610 . S
N1379 S1378 1.613 . S
N1379 C1382 1.350 . S
N1380 S1378 1.610 . S
N1380 C1381 1.351 . S
C1381 C1375 1.428 . S
C1381 N1380 1.351 . S
C1381 C1382 1.434 . S
C1382 C1373 1.429 . S
C1382 N1379 1.350 . S
C1382 C1381 1.434 . S
C1383 C1384 1.369 . S
C1383 C1385 1.419 . S
C1383 H1387 0.930 . S
C1384 C1383 1.369 . S
C1384 C1393 1.429 . S
C1385 C1383 1.419 . S
C1385 C1386 1.363 . S
C1385 H1388 0.929 . S
C1386 C1385 1.363 . S
C1386 C1392 1.428 . S
H1387 C1383 0.930 . S
H1388 C1385 0.929 . S
S1389 N1390 1.613 . S
S1389 N1391 1.610 . S
N1390 S1389 1.613 . S
N1390 C1393 1.350 . S
N1391 S1389 1.610 . S
N1391 C1392 1.351 . S
C1392 C1386 1.428 . S
C1392 N1391 1.351 . S
C1392 C1393 1.434 . S
C1393 C1384 1.429 . S
C1393 N1390 1.350 . S
C1393 C1392 1.434 . S
C1394 C1395 1.369 . S
C1394 C1396 1.419 . S
C1394 H1398 0.930 . S
C1395 C1394 1.369 . S
C1395 C1404 1.429 . S
C1396 C1394 1.419 . S
C1396 C1397 1.363 . S
C1396 H1399 0.929 . S
C1397 C1396 1.363 . S
C1397 C1403 1.428 . S
H1398 C1394 0.930 . S
H1399 C1396 0.929 . S
S1400 N1401 1.613 . S
S1400 N1402 1.610 . S
N1401 S1400 1.613 . S
N1401 C1404 1.350 . S
N1402 S1400 1.610 . S
N1402 C1403 1.351 . S
C1403 C1397 1.428 . S
C1403 N1402 1.351 . S
C1403 C1404 1.434 . S
C1404 C1395 1.429 . S
C1404 N1401 1.350 . S
C1404 C1403 1.434 . S
C1405 C1406 1.369 . S
C1405 C1407 1.419 . S
C1405 H1409 0.930 . S
C1406 C1405 1.369 . S
C1406 C1415 1.429 . S
C1407 C1405 1.419 . S
C1407 C1408 1.363 . S
C1407 H1410 0.929 . S
C1408 C1407 1.363 . S
C1408 C1414 1.428 . S
H1409 C1405 0.930 . S
H1410 C1407 0.929 . S
S1411 N1412 1.613 . S
S1411 N1413 1.610 . S
N1412 S1411 1.613 . S
N1412 C1415 1.350 . S
N1413 S1411 1.610 . S
N1413 C1414 1.351 . S
C1414 C1408 1.428 . S
C1414 N1413 1.351 . S
C1414 C1415 1.434 . S
C1415 C1406 1.429 . S
C1415 N1412 1.350 . S
C1415 C1414 1.434 . S
C1416 C1417 1.369 . S
C1416 C1418 1.419 . S
C1416 H1420 0.930 . S
C1417 C1416 1.369 . S
C1417 C1426 1.429 . S
C1418 C1416 1.419 . S
C1418 C1419 1.363 . S
C1418 H1421 0.929 . S
C1419 C1418 1.363 . S
C1419 C1425 1.428 . S
H1420 C1416 0.930 . S
H1421 C1418 0.929 . S
S1422 N1423 1.613 . S
S1422 N1424 1.610 . S
N1423 S1422 1.613 . S
N1423 C1426 1.350 . S
N1424 S1422 1.610 . S
N1424 C1425 1.351 . S
C1425 C1419 1.428 . S
C1425 N1424 1.351 . S
C1425 C1426 1.434 . S
C1426 C1417 1.429 . S
C1426 N1423 1.350 . S
C1426 C1425 1.434 . S
C1427 C1428 1.369 . S
C1427 C1429 1.419 . S
C1427 H1431 0.930 . S
C1428 C1427 1.369 . S
C1428 C1437 1.429 . S
C1429 C1427 1.419 . S
C1429 C1430 1.363 . S
C1429 H1432 0.929 . S
C1430 C1429 1.363 . S
C1430 C1436 1.428 . S
H1431 C1427 0.930 . S
H1432 C1429 0.929 . S
S1433 N1434 1.613 . S
S1433 N1435 1.610 . S
N1434 S1433 1.613 . S
N1434 C1437 1.350 . S
N1435 S1433 1.610 . S
N1435 C1436 1.351 . S
C1436 C1430 1.428 . S
C1436 N1435 1.351 . S
C1436 C1437 1.434 . S
C1437 C1428 1.429 . S
C1437 N1434 1.350 . S
C1437 C1436 1.434 . S
C1438 C1439 1.369 . S
C1438 C1440 1.419 . S
C1438 H1442 0.930 . S
C1439 C1438 1.369 . S
C1439 C1448 1.429 . S
C1440 C1438 1.419 . S
C1440 C1441 1.363 . S
C1440 H1443 0.929 . S
C1441 C1440 1.363 . S
C1441 C1447 1.428 . S
H1442 C1438 0.930 . S
H1443 C1440 0.929 . S
S1444 N1445 1.613 . S
S1444 N1446 1.610 . S
N1445 S1444 1.613 . S
N1445 C1448 1.350 . S
N1446 S1444 1.610 . S
N1446 C1447 1.351 . S
C1447 C1441 1.428 . S
C1447 N1446 1.351 . S
C1447 C1448 1.434 . S
C1448 C1439 1.429 . S
C1448 N1445 1.350 . S
C1448 C1447 1.434 . S
C1449 C1450 1.369 . S
C1449 C1451 1.419 . S
C1449 H1453 0.930 . S
C1450 C1449 1.369 . S
C1450 C1459 1.429 . S
C1451 C1449 1.419 . S
C1451 C1452 1.363 . S
C1451 H1454 0.929 . S
C1452 C1451 1.363 . S
C1452 C1458 1.428 . S
H1453 C1449 0.930 . S
H1454 C1451 0.929 . S
S1455 N1456 1.613 . S
S1455 N1457 1.610 . S
N1456 S1455 1.613 . S
N1456 C1459 1.350 . S
N1457 S1455 1.610 . S
N1457 C1458 1.351 . S
C1458 C1452 1.428 . S
C1458 N1457 1.351 . S
C1458 C1459 1.434 . S
C1459 C1450 1.429 . S
C1459 N1456 1.350 . S
C1459 C1458 1.434 . S
C1460 C1461 1.369 . S
C1460 C1462 1.419 . S
C1460 H1464 0.930 . S
C1461 C1460 1.369 . S
C1461 C1470 1.429 . S
C1462 C1460 1.419 . S
C1462 C1463 1.363 . S
C1462 H1465 0.929 . S
C1463 C1462 1.363 . S
C1463 C1469 1.428 . S
H1464 C1460 0.930 . S
H1465 C1462 0.929 . S
S1466 N1467 1.613 . S
S1466 N1468 1.610 . S
N1467 S1466 1.613 . S
N1467 C1470 1.350 . S
N1468 S1466 1.610 . S
N1468 C1469 1.351 . S
C1469 C1463 1.428 . S
C1469 N1468 1.351 . S
C1469 C1470 1.434 . S
C1470 C1461 1.429 . S
C1470 N1467 1.350 . S
C1470 C1469 1.434 . S
C1471 C1472 1.369 . S
C1471 C1473 1.419 . S
C1471 H1475 0.930 . S
C1472 C1471 1.369 . S
C1472 C1481 1.429 . S
C1473 C1471 1.419 . S
C1473 C1474 1.363 . S
C1473 H1476 0.929 . S
C1474 C1473 1.363 . S
C1474 C1480 1.428 . S
H1475 C1471 0.930 . S
H1476 C1473 0.929 . S
S1477 N1478 1.613 . S
S1477 N1479 1.610 . S
N1478 S1477 1.613 . S
N1478 C1481 1.350 . S
N1479 S1477 1.610 . S
N1479 C1480 1.351 . S
C1480 C1474 1.428 . S
C1480 N1479 1.351 . S
C1480 C1481 1.434 . S
C1481 C1472 1.429 . S
C1481 N1478 1.350 . S
C1481 C1480 1.434 . S
C1482 C1483 1.369 . S
C1482 C1484 1.419 . S
C1482 H1486 0.930 . S
C1483 C1482 1.369 . S
C1483 C1492 1.429 . S
C1484 C1482 1.419 . S
C1484 C1485 1.363 . S
C1484 H1487 0.929 . S
C1485 C1484 1.363 . S
C1485 C1491 1.428 . S
H1486 C1482 0.930 . S
H1487 C1484 0.929 . S
S1488 N1489 1.613 . S
S1488 N1490 1.610 . S
N1489 S1488 1.613 . S
N1489 C1492 1.350 . S
N1490 S1488 1.610 . S
N1490 C1491 1.351 . S
C1491 C1485 1.428 . S
C1491 N1490 1.351 . S
C1491 C1492 1.434 . S
C1492 C1483 1.429 . S
C1492 N1489 1.350 . S
C1492 C1491 1.434 . S
C1493 C1494 1.369 . S
C1493 C1495 1.419 . S
C1493 H1497 0.930 . S
C1494 C1493 1.369 . S
C1494 C1503 1.429 . S
C1495 C1493 1.419 . S
C1495 C1496 1.363 . S
C1495 H1498 0.929 . S
C1496 C1495 1.363 . S
C1496 C1502 1.428 . S
H1497 C1493 0.930 . S
H1498 C1495 0.929 . S
S1499 N1500 1.613 . S
S1499 N1501 1.610 . S
N1500 S1499 1.613 . S
N1500 C1503 1.350 . S
N1501 S1499 1.610 . S
N1501 C1502 1.351 . S
C1502 C1496 1.428 . S
C1502 N1501 1.351 . S
C1502 C1503 1.434 . S
C1503 C1494 1.429 . S
C1503 N1500 1.350 . S
C1503 C1502 1.434 . S
C1504 C1505 1.369 . S
C1504 C1506 1.419 . S
C1504 H1508 0.930 . S
C1505 C1504 1.369 . S
C1505 C1514 1.429 . S
C1506 C1504 1.419 . S
C1506 C1507 1.363 . S
C1506 H1509 0.929 . S
C1507 C1506 1.363 . S
C1507 C1513 1.428 . S
H1508 C1504 0.930 . S
H1509 C1506 0.929 . S
S1510 N1511 1.613 . S
S1510 N1512 1.610 . S
N1511 S1510 1.613 . S
N1511 C1514 1.350 . S
N1512 S1510 1.610 . S
N1512 C1513 1.351 . S
C1513 C1507 1.428 . S
C1513 N1512 1.351 . S
C1513 C1514 1.434 . S
C1514 C1505 1.429 . S
C1514 N1511 1.350 . S
C1514 C1513 1.434 . S
C1515 C1516 1.369 . S
C1515 C1517 1.419 . S
C1515 H1519 0.930 . S
C1516 C1515 1.369 . S
C1516 C1525 1.429 . S
C1517 C1515 1.419 . S
C1517 C1518 1.363 . S
C1517 H1520 0.929 . S
C1518 C1517 1.363 . S
C1518 C1524 1.428 . S
H1519 C1515 0.930 . S
H1520 C1517 0.929 . S
S1521 N1522 1.613 . S
S1521 N1523 1.610 . S
N1522 S1521 1.613 . S
N1522 C1525 1.350 . S
N1523 S1521 1.610 . S
N1523 C1524 1.351 . S
C1524 C1518 1.428 . S
C1524 N1523 1.351 . S
C1524 C1525 1.434 . S
C1525 C1516 1.429 . S
C1525 N1522 1.350 . S
C1525 C1524 1.434 . S
C1526 C1527 1.369 . S
C1526 C1528 1.419 . S
C1526 H1530 0.930 . S
C1527 C1526 1.369 . S
C1527 C1536 1.429 . S
C1528 C1526 1.419 . S
C1528 C1529 1.363 . S
C1528 H1531 0.929 . S
C1529 C1528 1.363 . S
C1529 C1535 1.428 . S
H1530 C1526 0.930 . S
H1531 C1528 0.929 . S
S1532 N1533 1.613 . S
S1532 N1534 1.610 . S
N1533 S1532 1.613 . S
N1533 C1536 1.350 . S
N1534 S1532 1.610 . S
N1534 C1535 1.351 . S
C1535 C1529 1.428 . S
C1535 N1534 1.351 . S
C1535 C1536 1.434 . S
C1536 C1527 1.429 . S
C1536 N1533 1.350 . S
C1536 C1535 1.434 . S
C1537 C1538 1.369 . S
C1537 C1539 1.419 . S
C1537 H1541 0.930 . S
C1538 C1537 1.369 . S
C1538 C1547 1.429 . S
C1539 C1537 1.419 . S
C1539 C1540 1.363 . S
C1539 H1542 0.929 . S
C1540 C1539 1.363 . S
C1540 C1546 1.428 . S
H1541 C1537 0.930 . S
H1542 C1539 0.929 . S
S1543 N1544 1.613 . S
S1543 N1545 1.610 . S
N1544 S1543 1.613 . S
N1544 C1547 1.350 . S
N1545 S1543 1.610 . S
N1545 C1546 1.351 . S
C1546 C1540 1.428 . S
C1546 N1545 1.351 . S
C1546 C1547 1.434 . S
C1547 C1538 1.429 . S
C1547 N1544 1.350 . S
C1547 C1546 1.434 . S
C1548 C1549 1.369 . S
C1548 C1550 1.419 . S
C1548 H1552 0.930 . S
C1549 C1548 1.369 . S
C1549 C1558 1.429 . S
C1550 C1548 1.419 . S
C1550 C1551 1.363 . S
C1550 H1553 0.929 . S
C1551 C1550 1.363 . S
C1551 C1557 1.428 . S
H1552 C1548 0.930 . S
H1553 C1550 0.929 . S
S1554 N1555 1.613 . S
S1554 N1556 1.610 . S
N1555 S1554 1.613 . S
N1555 C1558 1.350 . S
N1556 S1554 1.610 . S
N1556 C1557 1.351 . S
C1557 C1551 1.428 . S
C1557 N1556 1.351 . S
C1557 C1558 1.434 . S
C1558 C1549 1.429 . S
C1558 N1555 1.350 . S
C1558 C1557 1.434 . S
C1559 C1560 1.369 . S
C1559 C1561 1.419 . S
C1559 H1563 0.930 . S
C1560 C1559 1.369 . S
C1560 C1569 1.429 . S
C1561 C1559 1.419 . S
C1561 C1562 1.363 . S
C1561 H1564 0.929 . S
C1562 C1561 1.363 . S
C1562 C1568 1.428 . S
H1563 C1559 0.930 . S
H1564 C1561 0.929 . S
S1565 N1566 1.613 . S
S1565 N1567 1.610 . S
N1566 S1565 1.613 . S
N1566 C1569 1.350 . S
N1567 S1565 1.610 . S
N1567 C1568 1.351 . S
C1568 C1562 1.428 . S
C1568 N1567 1.351 . S
C1568 C1569 1.434 . S
C1569 C1560 1.429 . S
C1569 N1566 1.350 . S
C1569 C1568 1.434 . S
C1570 C1571 1.369 . S
C1570 C1572 1.419 . S
C1570 H1574 0.930 . S
C1571 C1570 1.369 . S
C1571 C1580 1.429 . S
C1572 C1570 1.419 . S
C1572 C1573 1.363 . S
C1572 H1575 0.929 . S
C1573 C1572 1.363 . S
C1573 C1579 1.428 . S
H1574 C1570 0.930 . S
H1575 C1572 0.929 . S
S1576 N1577 1.613 . S
S1576 N1578 1.610 . S
N1577 S1576 1.613 . S
N1577 C1580 1.350 . S
N1578 S1576 1.610 . S
N1578 C1579 1.351 . S
C1579 C1573 1.428 . S
C1579 N1578 1.351 . S
C1579 C1580 1.434 . S
C1580 C1571 1.429 . S
C1580 N1577 1.350 . S
C1580 C1579 1.434 . S
C1581 C1582 1.369 . S
C1581 C1583 1.419 . S
C1581 H1585 0.930 . S
C1582 C1581 1.369 . S
C1582 C1591 1.429 . S
C1583 C1581 1.419 . S
C1583 C1584 1.363 . S
C1583 H1586 0.929 . S
C1584 C1583 1.363 . S
C1584 C1590 1.428 . S
H1585 C1581 0.930 . S
H1586 C1583 0.929 . S
S1587 N1588 1.613 . S
S1587 N1589 1.610 . S
N1588 S1587 1.613 . S
N1588 C1591 1.350 . S
N1589 S1587 1.610 . S
N1589 C1590 1.351 . S
C1590 C1584 1.428 . S
C1590 N1589 1.351 . S
C1590 C1591 1.434 . S
C1591 C1582 1.429 . S
C1591 N1588 1.350 . S
C1591 C1590 1.434 . S
C1592 C1593 1.369 . S
C1592 C1594 1.419 . S
C1592 H1596 0.930 . S
C1593 C1592 1.369 . S
C1593 C1602 1.429 . S
C1594 C1592 1.419 . S
C1594 C1595 1.363 . S
C1594 H1597 0.929 . S
C1595 C1594 1.363 . S
C1595 C1601 1.428 . S
H1596 C1592 0.930 . S
H1597 C1594 0.929 . S
S1598 N1599 1.613 . S
S1598 N1600 1.610 . S
N1599 S1598 1.613 . S
N1599 C1602 1.350 . S
N1600 S1598 1.610 . S
N1600 C1601 1.351 . S
C1601 C1595 1.428 . S
C1601 N1600 1.351 . S
C1601 C1602 1.434 . S
C1602 C1593 1.429 . S
C1602 N1599 1.350 . S
C1602 C1601 1.434 . S
C1603 C1604 1.369 . S
C1603 C1605 1.419 . S
C1603 H1607 0.930 . S
C1604 C1603 1.369 . S
C1604 C1613 1.429 . S
C1605 C1603 1.419 . S
C1605 C1606 1.363 . S
C1605 H1608 0.929 . S
C1606 C1605 1.363 . S
C1606 C1612 1.428 . S
H1607 C1603 0.930 . S
H1608 C1605 0.929 . S
S1609 N1610 1.613 . S
S1609 N1611 1.610 . S
N1610 S1609 1.613 . S
N1610 C1613 1.350 . S
N1611 S1609 1.610 . S
N1611 C1612 1.351 . S
C1612 C1606 1.428 . S
C1612 N1611 1.351 . S
C1612 C1613 1.434 . S
C1613 C1604 1.429 . S
C1613 N1610 1.350 . S
C1613 C1612 1.434 . S
C1614 C1615 1.369 . S
C1614 C1616 1.419 . S
C1614 H1618 0.930 . S
C1615 C1614 1.369 . S
C1615 C1624 1.429 . S
C1616 C1614 1.419 . S
C1616 C1617 1.363 . S
C1616 H1619 0.929 . S
C1617 C1616 1.363 . S
C1617 C1623 1.428 . S
H1618 C1614 0.930 . S
H1619 C1616 0.929 . S
S1620 N1621 1.613 . S
S1620 N1622 1.610 . S
N1621 S1620 1.613 . S
N1621 C1624 1.350 . S
N1622 S1620 1.610 . S
N1622 C1623 1.351 . S
C1623 C1617 1.428 . S
C1623 N1622 1.351 . S
C1623 C1624 1.434 . S
C1624 C1615 1.429 . S
C1624 N1621 1.350 . S
C1624 C1623 1.434 . S
C1625 C1626 1.369 . S
C1625 C1627 1.419 . S
C1625 H1629 0.930 . S
C1626 C1625 1.369 . S
C1626 C1635 1.429 . S
C1627 C1625 1.419 . S
C1627 C1628 1.363 . S
C1627 H1630 0.929 . S
C1628 C1627 1.363 . S
C1628 C1634 1.428 . S
H1629 C1625 0.930 . S
H1630 C1627 0.929 . S
S1631 N1632 1.613 . S
S1631 N1633 1.610 . S
N1632 S1631 1.613 . S
N1632 C1635 1.350 . S
N1633 S1631 1.610 . S
N1633 C1634 1.351 . S
C1634 C1628 1.428 . S
C1634 N1633 1.351 . S
C1634 C1635 1.434 . S
C1635 C1626 1.429 . S
C1635 N1632 1.350 . S
C1635 C1634 1.434 . S
C1636 C1637 1.369 . S
C1636 C1638 1.419 . S
C1636 H1640 0.930 . S
C1637 C1636 1.369 . S
C1637 C1646 1.429 . S
C1638 C1636 1.419 . S
C1638 C1639 1.363 . S
C1638 H1641 0.929 . S
C1639 C1638 1.363 . S
C1639 C1645 1.428 . S
H1640 C1636 0.930 . S
H1641 C1638 0.929 . S
S1642 N1643 1.613 . S
S1642 N1644 1.610 . S
N1643 S1642 1.613 . S
N1643 C1646 1.350 . S
N1644 S1642 1.610 . S
N1644 C1645 1.351 . S
C1645 C1639 1.428 . S
C1645 N1644 1.351 . S
C1645 C1646 1.434 . S
C1646 C1637 1.429 . S
C1646 N1643 1.350 . S
C1646 C1645 1.434 . S
C1647 C1648 1.369 . S
C1647 C1649 1.419 . S
C1647 H1651 0.930 . S
C1648 C1647 1.369 . S
C1648 C1657 1.429 . S
C1649 C1647 1.419 . S
C1649 C1650 1.363 . S
C1649 H1652 0.929 . S
C1650 C1649 1.363 . S
C1650 C1656 1.428 . S
H1651 C1647 0.930 . S
H1652 C1649 0.929 . S
S1653 N1654 1.613 . S
S1653 N1655 1.610 . S
N1654 S1653 1.613 . S
N1654 C1657 1.350 . S
N1655 S1653 1.610 . S
N1655 C1656 1.351 . S
C1656 C1650 1.428 . S
C1656 N1655 1.351 . S
C1656 C1657 1.434 . S
C1657 C1648 1.429 . S
C1657 N1654 1.350 . S
C1657 C1656 1.434 . S
C1658 C1659 1.369 . S
C1658 C1660 1.419 . S
C1658 H1662 0.930 . S
C1659 C1658 1.369 . S
C1659 C1668 1.429 . S
C1660 C1658 1.419 . S
C1660 C1661 1.363 . S
C1660 H1663 0.929 . S
C1661 C1660 1.363 . S
C1661 C1667 1.428 . S
H1662 C1658 0.930 . S
H1663 C1660 0.929 . S
S1664 N1665 1.613 . S
S1664 N1666 1.610 . S
N1665 S1664 1.613 . S
N1665 C1668 1.350 . S
N1666 S1664 1.610 . S
N1666 C1667 1.351 . S
C1667 C1661 1.428 . S
C1667 N1666 1.351 . S
C1667 C1668 1.434 . S
C1668 C1659 1.429 . S
C1668 N1665 1.350 . S
C1668 C1667 1.434 . S
C1669 C1670 1.369 . S
C1669 C1671 1.419 . S
C1669 H1673 0.930 . S
C1670 C1669 1.369 . S
C1670 C1679 1.429 . S
C1671 C1669 1.419 . S
C1671 C1672 1.363 . S
C1671 H1674 0.929 . S
C1672 C1671 1.363 . S
C1672 C1678 1.428 . S
H1673 C1669 0.930 . S
H1674 C1671 0.929 . S
S1675 N1676 1.613 . S
S1675 N1677 1.610 . S
N1676 S1675 1.613 . S
N1676 C1679 1.350 . S
N1677 S1675 1.610 . S
N1677 C1678 1.351 . S
C1678 C1672 1.428 . S
C1678 N1677 1.351 . S
C1678 C1679 1.434 . S
C1679 C1670 1.429 . S
C1679 N1676 1.350 . S
C1679 C1678 1.434 . S
C625 C407 1.435 . S
C627 C4 1.436 . S
C636 C23 1.434 . S
C638 C374 1.435 . S
C647 C30 1.436 . S
C649 C387 1.436 . S
C658 C394 1.435 . S
C660 C49 1.436 . S
C669 C335 1.436 . S
C671 C62 1.436 . S
C680 C69 1.435 . S
C682 C342 1.436 . S
C691 C361 1.435 . S
C693 C82 1.436 . S
C702 C95 1.435 . S
C704 C322 1.434 . S
C713 C114 1.436 . S
C715 C582 1.436 . S
C724 C537 1.434 . S
C726 C121 1.435 . S
C735 C556 1.434 . S
C737 C140 1.434 . S
C746 C147 1.435 . S
C748 C563 1.435 . S
C757 C160 1.436 . S
C759 C615 1.435 . S
C768 C179 1.436 . S
C770 C589 1.436 . S
C779 C192 1.434 . S
C781 C602 1.435 . S
C790 C524 1.435 . S
C792 C199 1.436 . S
C801 C511 1.435 . S
C803 C212 1.435 . S
C812 C225 1.435 . S
C814 C433 1.435 . S
C823 C446 1.435 . S
C825 C238 1.434 . S
C834 C257 1.435 . S
C836 C459 1.435 . S
C845 C426 1.436 . S
C847 C270 1.435 . S
C856 C491 1.436 . S
C858 C277 1.436 . S
C867 C296 1.435 . S
C869 C498 1.435 . S
C878 C478 1.434 . S
C880 C303 1.435 . S
C889 C127 1.672 . S
C891 C10 1.672 . S
C900 C134 1.672 . S
C902 C17 1.672 . S
C911 C36 1.672 . S
C913 C153 1.672 . S
C922 C108 1.672 . S
C924 C43 1.672 . S
C933 C56 1.672 . S
C935 C205 1.672 . S
C944 C166 1.672 . S
C946 C75 1.672 . S
C955 C173 1.672 . S
C957 C88 1.672 . S
C966 C186 1.672 . S
C968 C101 1.672 . S
C977 C244 1.672 . S
C979 C218 1.672 . S
C988 C290 1.672 . S
C990 C231 1.672 . S
C999 C309 1.672 . S
C1001 C251 1.672 . S
C1010 C264 1.672 . S
C1012 C283 1.672 . S
C1021 C439 1.672 . S
C1023 C316 1.672 . S
C1032 C452 1.672 . S
C1034 C329 1.672 . S
C1043 C465 1.672 . S
C1045 C348 1.672 . S
C1054 C355 1.672 . S
C1056 C420 1.672 . S
C1065 C368 1.672 . S
C1067 C517 1.672 . S
C1076 C381 1.672 . S
C1078 C472 1.672 . S
C1087 C485 1.672 . S
C1089 C400 1.672 . S
C1098 C504 1.672 . S
C1100 C413 1.672 . S
C1109 C530 1.672 . S
C1111 C550 1.672 . S
C1120 C608 1.672 . S
C1122 C543 1.672 . S
C1131 C621 1.672 . S
C1133 C569 1.672 . S
C1142 C595 1.672 . S
C1144 C576 1.672 . S
C1153 C3 1.448 . S
C1155 C239 1.445 . S
C1164 C18 1.449 . S
C1166 C250 1.444 . S
C1175 C29 1.448 . S
C1177 C263 1.444 . S
C1186 C226 1.442 . S
C1188 C44 1.449 . S
C1197 C57 1.448 . S
C1199 C289 1.445 . S
C1208 C68 1.449 . S
C1210 C213 1.443 . S
C1219 C304 1.445 . S
C1221 C81 1.448 . S
C1230 C278 1.445 . S
C1232 C94 1.448 . S
C1241 C109 1.449 . S
C1243 C122 1.444 . S
C1252 C120 1.449 . S
C1254 C133 1.443 . S
C1263 C135 1.449 . S
C1265 C148 1.443 . S
C1274 C107 1.444 . S
C1276 C146 1.448 . S
C1285 C200 1.445 . S
C1287 C159 1.448 . S
C1296 C161 1.442 . S
C1298 C174 1.449 . S
C1307 C172 1.444 . S
C1309 C187 1.448 . S
C1318 C198 1.449 . S
C1320 C185 1.443 . S
C1329 C42 1.442 . S
C1331 C211 1.449 . S
C1340 C70 1.443 . S
C1342 C224 1.449 . S
C1351 C83 1.445 . S
C1353 C237 1.448 . S
C1362 C252 1.449 . S
C1364 C96 1.443 . S
C1373 C55 1.445 . S
C1375 C265 1.448 . S
C1384 C16 1.445 . S
C1386 C276 1.448 . S
C1395 C31 1.444 . S
C1397 C291 1.448 . S
C1406 C5 1.444 . S
C1408 C302 1.448 . S
C1417 C549 1.445 . S
C1419 C317 1.448 . S
C1428 C330 1.449 . S
C1430 C564 1.444 . S
C1439 C575 1.444 . S
C1441 C341 1.448 . S
C1450 C538 1.442 . S
C1452 C356 1.449 . S
C1461 C369 1.448 . S
C1463 C603 1.444 . S
C1472 C382 1.449 . S
C1474 C525 1.444 . S
C1483 C616 1.443 . S
C1485 C393 1.449 . S
C1494 C406 1.448 . S
C1496 C590 1.444 . S
C1505 C421 1.448 . S
C1507 C434 1.444 . S
C1516 C432 1.449 . S
C1518 C447 1.444 . S
C1527 C445 1.449 . S
C1529 C460 1.443 . S
C1538 C458 1.448 . S
C1540 C419 1.445 . S
C1549 C512 1.442 . S
C1551 C473 1.449 . S
C1560 C471 1.445 . S
C1562 C486 1.448 . S
C1571 C484 1.444 . S
C1573 C497 1.448 . S
C1582 C510 1.448 . S
C1584 C499 1.445 . S
C1593 C354 1.443 . S
C1595 C523 1.449 . S
C1604 C380 1.444 . S
C1606 C536 1.448 . S
C1615 C395 1.444 . S
C1617 C551 1.448 . S
C1626 C562 1.449 . S
C1628 C408 1.444 . S
C1637 C367 1.445 . S
C1639 C577 1.448 . S
C1648 C328 1.442 . S
C1650 C588 1.449 . S
C1659 C601 1.448 . S
C1661 C343 1.445 . S
C1670 C315 1.442 . S
C1672 C614 1.449 . S
