# Generated by pormake.
# Topology umn, (4)-cn, num edge types: 1
# Building blocks:
#     Node 0, Type 0, BuildingBlock: QUQFOY_clean_sbu_3, # of connection points: 4
#     Node 1, Type 0, BuildingBlock: QUQFOY_clean_sbu_3, # of connection points: 4
#     Node 2, Type 0, BuildingBlock: QUQFOY_clean_sbu_3, # of connection points: 4
#     Node 3, Type 0, BuildingBlock: QUQFOY_clean_sbu_3, # of connection points: 4
#     Node 4, Type 0, BuildingBlock: QUQFOY_clean_sbu_3, # of connection points: 4
#     Node 5, Type 0, BuildingBlock: QUQFOY_clean_sbu_3, # of connection points: 4
#     Node 6, Type 0, BuildingBlock: QUQFOY_clean_sbu_3, # of connection points: 4
#     Node 7, Type 0, BuildingBlock: QUQFOY_clean_sbu_3, # of connection points: 4
#     Node 8, Type 0, BuildingBlock: QUQFOY_clean_sbu_3, # of connection points: 4
#     Node 9, Type 0, BuildingBlock: QUQFOY_clean_sbu_3, # of connection points: 4
#     Node 10, Type 0, BuildingBlock: QUQFOY_clean_sbu_3, # of connection points: 4
#     Node 11, Type 0, BuildingBlock: QUQFOY_clean_sbu_3, # of connection points: 4
#     Node 12, Type 0, BuildingBlock: QUQFOY_clean_sbu_3, # of connection points: 4
#     Node 13, Type 0, BuildingBlock: QUQFOY_clean_sbu_3, # of connection points: 4
#     Node 14, Type 0, BuildingBlock: QUQFOY_clean_sbu_3, # of connection points: 4
#     Node 15, Type 0, BuildingBlock: QUQFOY_clean_sbu_3, # of connection points: 4
#     Node 16, Type 0, BuildingBlock: QUQFOY_clean_sbu_3, # of connection points: 4
#     Node 17, Type 0, BuildingBlock: QUQFOY_clean_sbu_3, # of connection points: 4
#     Node 18, Type 0, BuildingBlock: QUQFOY_clean_sbu_3, # of connection points: 4
#     Node 19, Type 0, BuildingBlock: QUQFOY_clean_sbu_3, # of connection points: 4
#     Node 20, Type 0, BuildingBlock: QUQFOY_clean_sbu_3, # of connection points: 4
#     Node 21, Type 0, BuildingBlock: QUQFOY_clean_sbu_3, # of connection points: 4
#     Node 22, Type 0, BuildingBlock: QUQFOY_clean_sbu_3, # of connection points: 4
#     Node 23, Type 0, BuildingBlock: QUQFOY_clean_sbu_3, # of connection points: 4
#     Node 24, Type 0, BuildingBlock: QUQFOY_clean_sbu_3, # of connection points: 4
#     Node 25, Type 0, BuildingBlock: QUQFOY_clean_sbu_3, # of connection points: 4
#     Node 26, Type 0, BuildingBlock: QUQFOY_clean_sbu_3, # of connection points: 4
#     Node 27, Type 0, BuildingBlock: QUQFOY_clean_sbu_3, # of connection points: 4
#     Node 28, Type 0, BuildingBlock: QUQFOY_clean_sbu_3, # of connection points: 4
#     Node 29, Type 0, BuildingBlock: QUQFOY_clean_sbu_3, # of connection points: 4
#     Node 30, Type 0, BuildingBlock: QUQFOY_clean_sbu_3, # of connection points: 4
#     Node 31, Type 0, BuildingBlock: QUQFOY_clean_sbu_3, # of connection points: 4
#     Node 32, Type 0, BuildingBlock: QUQFOY_clean_sbu_3, # of connection points: 4
#     Node 33, Type 0, BuildingBlock: QUQFOY_clean_sbu_3, # of connection points: 4
#     Node 34, Type 0, BuildingBlock: QUQFOY_clean_sbu_3, # of connection points: 4
#     Node 35, Type 0, BuildingBlock: QUQFOY_clean_sbu_3, # of connection points: 4
#     Edge 36, Type (0, 0), BuildingBlock: XIVTED_clean_linker_0, # of connection points: 2
#     Edge 37, Type (0, 0), BuildingBlock: XIVTED_clean_linker_0, # of connection points: 2
#     Edge 38, Type (0, 0), BuildingBlock: XIVTED_clean_linker_0, # of connection points: 2
#     Edge 39, Type (0, 0), BuildingBlock: XIVTED_clean_linker_0, # of connection points: 2
#     Edge 40, Type (0, 0), BuildingBlock: XIVTED_clean_linker_0, # of connection points: 2
#     Edge 41, Type (0, 0), BuildingBlock: XIVTED_clean_linker_0, # of connection points: 2
#     Edge 42, Type (0, 0), BuildingBlock: XIVTED_clean_linker_0, # of connection points: 2
#     Edge 43, Type (0, 0), BuildingBlock: XIVTED_clean_linker_0, # of connection points: 2
#     Edge 44, Type (0, 0), BuildingBlock: XIVTED_clean_linker_0, # of connection points: 2
#     Edge 45, Type (0, 0), BuildingBlock: XIVTED_clean_linker_0, # of connection points: 2
#     Edge 46, Type (0, 0), BuildingBlock: XIVTED_clean_linker_0, # of connection points: 2
#     Edge 47, Type (0, 0), BuildingBlock: XIVTED_clean_linker_0, # of connection points: 2
#     Edge 48, Type (0, 0), BuildingBlock: XIVTED_clean_linker_0, # of connection points: 2
#     Edge 49, Type (0, 0), BuildingBlock: XIVTED_clean_linker_0, # of connection points: 2
#     Edge 50, Type (0, 0), BuildingBlock: XIVTED_clean_linker_0, # of connection points: 2
#     Edge 51, Type (0, 0), BuildingBlock: XIVTED_clean_linker_0, # of connection points: 2
#     Edge 52, Type (0, 0), BuildingBlock: XIVTED_clean_linker_0, # of connection points: 2
#     Edge 53, Type (0, 0), BuildingBlock: XIVTED_clean_linker_0, # of connection points: 2
#     Edge 54, Type (0, 0), BuildingBlock: XIVTED_clean_linker_0, # of connection points: 2
#     Edge 55, Type (0, 0), BuildingBlock: XIVTED_clean_linker_0, # of connection points: 2
#     Edge 56, Type (0, 0), BuildingBlock: XIVTED_clean_linker_0, # of connection points: 2
#     Edge 57, Type (0, 0), BuildingBlock: XIVTED_clean_linker_0, # of connection points: 2
#     Edge 58, Type (0, 0), BuildingBlock: XIVTED_clean_linker_0, # of connection points: 2
#     Edge 59, Type (0, 0), BuildingBlock: XIVTED_clean_linker_0, # of connection points: 2
#     Edge 60, Type (0, 0), BuildingBlock: XIVTED_clean_linker_0, # of connection points: 2
#     Edge 61, Type (0, 0), BuildingBlock: XIVTED_clean_linker_0, # of connection points: 2
#     Edge 62, Type (0, 0), BuildingBlock: XIVTED_clean_linker_0, # of connection points: 2
#     Edge 63, Type (0, 0), BuildingBlock: XIVTED_clean_linker_0, # of connection points: 2
#     Edge 64, Type (0, 0), BuildingBlock: XIVTED_clean_linker_0, # of connection points: 2
#     Edge 65, Type (0, 0), BuildingBlock: XIVTED_clean_linker_0, # of connection points: 2
#     Edge 66, Type (0, 0), BuildingBlock: XIVTED_clean_linker_0, # of connection points: 2
#     Edge 67, Type (0, 0), BuildingBlock: XIVTED_clean_linker_0, # of connection points: 2
#     Edge 68, Type (0, 0), BuildingBlock: XIVTED_clean_linker_0, # of connection points: 2
#     Edge 69, Type (0, 0), BuildingBlock: XIVTED_clean_linker_0, # of connection points: 2
#     Edge 70, Type (0, 0), BuildingBlock: XIVTED_clean_linker_0, # of connection points: 2
#     Edge 71, Type (0, 0), BuildingBlock: XIVTED_clean_linker_0, # of connection points: 2
#     Edge 72, Type (0, 0), BuildingBlock: XIVTED_clean_linker_0, # of connection points: 2
#     Edge 73, Type (0, 0), BuildingBlock: XIVTED_clean_linker_0, # of connection points: 2
#     Edge 74, Type (0, 0), BuildingBlock: XIVTED_clean_linker_0, # of connection points: 2
#     Edge 75, Type (0, 0), BuildingBlock: XIVTED_clean_linker_0, # of connection points: 2
#     Edge 76, Type (0, 0), BuildingBlock: XIVTED_clean_linker_0, # of connection points: 2
#     Edge 77, Type (0, 0), BuildingBlock: XIVTED_clean_linker_0, # of connection points: 2
#     Edge 78, Type (0, 0), BuildingBlock: XIVTED_clean_linker_0, # of connection points: 2
#     Edge 79, Type (0, 0), BuildingBlock: XIVTED_clean_linker_0, # of connection points: 2
#     Edge 80, Type (0, 0), BuildingBlock: XIVTED_clean_linker_0, # of connection points: 2
#     Edge 81, Type (0, 0), BuildingBlock: XIVTED_clean_linker_0, # of connection points: 2
#     Edge 82, Type (0, 0), BuildingBlock: XIVTED_clean_linker_0, # of connection points: 2
#     Edge 83, Type (0, 0), BuildingBlock: XIVTED_clean_linker_0, # of connection points: 2
#     Edge 84, Type (0, 0), BuildingBlock: XIVTED_clean_linker_0, # of connection points: 2
#     Edge 85, Type (0, 0), BuildingBlock: XIVTED_clean_linker_0, # of connection points: 2
#     Edge 86, Type (0, 0), BuildingBlock: XIVTED_clean_linker_0, # of connection points: 2
#     Edge 87, Type (0, 0), BuildingBlock: XIVTED_clean_linker_0, # of connection points: 2
#     Edge 88, Type (0, 0), BuildingBlock: XIVTED_clean_linker_0, # of connection points: 2
#     Edge 89, Type (0, 0), BuildingBlock: XIVTED_clean_linker_0, # of connection points: 2
#     Edge 90, Type (0, 0), BuildingBlock: XIVTED_clean_linker_0, # of connection points: 2
#     Edge 91, Type (0, 0), BuildingBlock: XIVTED_clean_linker_0, # of connection points: 2
#     Edge 92, Type (0, 0), BuildingBlock: XIVTED_clean_linker_0, # of connection points: 2
#     Edge 93, Type (0, 0), BuildingBlock: XIVTED_clean_linker_0, # of connection points: 2
#     Edge 94, Type (0, 0), BuildingBlock: XIVTED_clean_linker_0, # of connection points: 2
#     Edge 95, Type (0, 0), BuildingBlock: XIVTED_clean_linker_0, # of connection points: 2
#     Edge 96, Type (0, 0), BuildingBlock: XIVTED_clean_linker_0, # of connection points: 2
#     Edge 97, Type (0, 0), BuildingBlock: XIVTED_clean_linker_0, # of connection points: 2
#     Edge 98, Type (0, 0), BuildingBlock: XIVTED_clean_linker_0, # of connection points: 2
#     Edge 99, Type (0, 0), BuildingBlock: XIVTED_clean_linker_0, # of connection points: 2
#     Edge 100, Type (0, 0), BuildingBlock: XIVTED_clean_linker_0, # of connection points: 2
#     Edge 101, Type (0, 0), BuildingBlock: XIVTED_clean_linker_0, # of connection points: 2
#     Edge 102, Type (0, 0), BuildingBlock: XIVTED_clean_linker_0, # of connection points: 2
#     Edge 103, Type (0, 0), BuildingBlock: XIVTED_clean_linker_0, # of connection points: 2
#     Edge 104, Type (0, 0), BuildingBlock: XIVTED_clean_linker_0, # of connection points: 2
#     Edge 105, Type (0, 0), BuildingBlock: XIVTED_clean_linker_0, # of connection points: 2
#     Edge 106, Type (0, 0), BuildingBlock: XIVTED_clean_linker_0, # of connection points: 2
#     Edge 107, Type (0, 0), BuildingBlock: XIVTED_clean_linker_0, # of connection points: 2
# Relax obj value: 0.163
# Max RMSD: 0.212
# Mean RMSD: 0.212
data_MOF--net-umn--node1-QUQFOY_clean_sbu_3--edge1-XIVTED_clean_linker_0
_symmetry_space_group_name_H-M    P1
_symmetry_Int_Tables_number       1
_symmetry_cell_setting            triclinic
loop_
_symmetry_equiv_pos_as_xyz
'x, y, z'
_cell_length_a     85.331391
_cell_length_b     85.244503
_cell_length_c     37.969151
_cell_angle_alpha  89.881538
_cell_angle_beta   90.073977
_cell_angle_gamma 120.07456
loop_
_atom_site_label
_atom_site_type_symbol
_atom_site_fract_x
_atom_site_fract_y
_atom_site_fract_z
_atom_type_partial_charge
C0 C 0.39592 0.10373 0.19283 0.0
O1 O 0.40161 0.10303 0.22335 0.0
Cd2 Cd 0.38067 0.09459 0.27357 0.0
O3 O 0.3802 0.10161 0.18942 0.0
Cd4 Cd 0.35546 0.09658 0.22893 0.0
C5 C 0.34681 0.05483 0.24426 0.0
O6 O 0.3618 0.10714 0.29174 0.0
O7 O 0.33529 0.08491 0.2762 0.0
O8 O 0.35712 0.12423 0.21005 0.0
C9 C 0.34509 0.09634 0.29934 0.0
O10 O 0.35926 0.06284 0.26706 0.0
C11 C 0.34163 0.11673 0.19553 0.0
O12 O 0.34323 0.06387 0.22213 0.0
O13 O 0.33276 0.09947 0.19484 0.0
C14 C 0.86363 0.28725 0.19115 0.0
O15 O 0.86446 0.29354 0.22178 0.0
Cd16 Cd 0.87331 0.28105 0.2714 0.0
O17 O 0.86576 0.27366 0.1874 0.0
Cd18 Cd 0.87102 0.25385 0.22648 0.0
C19 C 0.91281 0.28692 0.24069 0.0
O20 O 0.8606 0.24952 0.28939 0.0
O21 O 0.88291 0.24549 0.27379 0.0
O22 O 0.84344 0.2277 0.20784 0.0
C23 C 0.87144 0.24367 0.29695 0.0
O24 O 0.905 0.29137 0.26384 0.0
C25 C 0.85101 0.21981 0.1933 0.0
O26 O 0.9036 0.27429 0.21874 0.0
O27 O 0.86825 0.22833 0.19243 0.0
C28 C 0.681 0.57213 0.19452 0.0
O29 O 0.67484 0.56684 0.22532 0.0
Cd30 Cd 0.68813 0.58813 0.27481 0.0
O31 O 0.69482 0.58768 0.19036 0.0
Cd32 Cd 0.71538 0.6127 0.22871 0.0
C33 C 0.68314 0.62245 0.24469 0.0
O34 O 0.71986 0.60643 0.29153 0.0
O35 O 0.725 0.63321 0.27561 0.0
O36 O 0.74085 0.61043 0.20871 0.0
C37 C 0.72634 0.62326 0.29887 0.0
O38 O 0.67861 0.61014 0.26788 0.0
C39 C 0.74887 0.62584 0.19378 0.0
O40 O 0.69546 0.62555 0.22221 0.0
O41 O 0.74075 0.63495 0.19349 0.0
C42 C 0.0964 0.4036 0.30176 0.0
O43 O 0.09572 0.40915 0.27107 0.0
Cd44 Cd 0.08714 0.38792 0.22138 0.0
O45 O 0.09432 0.38789 0.30556 0.0
Cd46 Cd 0.08948 0.363 0.2665 0.0
C47 C 0.04765 0.35405 0.25192 0.0
O48 O 0.09985 0.36916 0.20352 0.0
O49 O 0.07773 0.34265 0.21944 0.0
O50 O 0.1172 0.36488 0.28555 0.0
C51 C 0.08909 0.35241 0.19613 0.0
O52 O 0.05549 0.36639 0.22879 0.0
C53 C 0.10975 0.34938 0.30008 0.0
O54 O 0.05685 0.35064 0.27396 0.0
O55 O 0.09251 0.3404 0.3007 0.0
C56 C 0.56572 0.68842 0.30132 0.0
O57 O 0.56023 0.68193 0.27081 0.0
Cd58 Cd 0.58132 0.69473 0.22083 0.0
O59 O 0.58131 0.70224 0.30481 0.0
Cd60 Cd 0.6061 0.72221 0.26543 0.0
C61 C 0.61552 0.68964 0.25079 0.0
O62 O 0.5998 0.72625 0.20238 0.0
O63 O 0.62646 0.7312 0.21846 0.0
O64 O 0.60411 0.74804 0.28407 0.0
C65 C 0.6166 0.73255 0.19507 0.0
O66 O 0.6031 0.68496 0.22784 0.0
C67 C 0.61956 0.75614 0.29875 0.0
O68 O 0.61882 0.70221 0.2728 0.0
O69 O 0.62854 0.7479 0.2996 0.0
C70 C 0.27731 0.87029 0.30506 0.0
O71 O 0.28354 0.87078 0.27451 0.0
Cd72 Cd 0.27132 0.87964 0.22442 0.0
O73 O 0.26396 0.87279 0.30853 0.0
Cd74 Cd 0.2445 0.87828 0.26896 0.0
C75 C 0.2781 0.91973 0.25364 0.0
O76 O 0.23992 0.86747 0.20631 0.0
O77 O 0.23643 0.89022 0.22134 0.0
O78 O 0.21822 0.85089 0.28784 0.0
C79 C 0.23434 0.87851 0.19848 0.0
O80 O 0.28228 0.91152 0.23089 0.0
C81 C 0.21039 0.85861 0.30203 0.0
O82 O 0.26543 0.91088 0.27578 0.0
O83 O 0.21901 0.87587 0.30266 0.0
C84 C 0.56542 0.87084 0.80385 0.0
O85 O 0.55982 0.87157 0.77326 0.0
Cd86 Cd 0.58093 0.88015 0.7233 0.0
O87 O 0.58114 0.87298 0.80744 0.0
Cd88 Cd 0.60602 0.8782 0.76806 0.0
C89 C 0.61456 0.91991 0.75301 0.0
O90 O 0.5999 0.86771 0.70515 0.0
O91 O 0.62631 0.89001 0.72098 0.0
O92 O 0.60457 0.85063 0.78689 0.0
C93 C 0.61663 0.87855 0.69777 0.0
O94 O 0.60221 0.91191 0.73003 0.0
C95 C 0.62005 0.85823 0.80142 0.0
O96 O 0.61811 0.91085 0.77516 0.0
O97 O 0.6288 0.87549 0.80221 0.0
C98 C 0.09699 0.68613 0.79672 0.0
O99 O 0.0957 0.68007 0.76572 0.0
Cd100 Cd 0.0875 0.69367 0.71703 0.0
O101 O 0.09539 0.69996 0.80163 0.0
Cd102 Cd 0.09016 0.72043 0.76461 0.0
C103 C 0.04821 0.68773 0.74874 0.0
O104 O 0.10065 0.72559 0.70172 0.0
O105 O 0.07867 0.72993 0.71852 0.0
O106 O 0.11758 0.74639 0.78471 0.0
C107 C 0.09004 0.73184 0.69505 0.0
O108 O 0.05591 0.68363 0.72475 0.0
C109 C 0.10981 0.75385 0.80014 0.0
O110 O 0.05752 0.69988 0.77148 0.0
O111 O 0.09258 0.74516 0.80078 0.0
C112 C 0.27936 0.40273 0.80334 0.0
O113 O 0.28543 0.40819 0.77256 0.0
Cd114 Cd 0.27277 0.38652 0.72353 0.0
O115 O 0.26589 0.38694 0.80741 0.0
Cd116 Cd 0.24586 0.36183 0.76876 0.0
C117 C 0.27879 0.353 0.75476 0.0
O118 O 0.24132 0.3674 0.70555 0.0
O119 O 0.23722 0.34112 0.72236 0.0
O120 O 0.22015 0.36399 0.78727 0.0
C121 C 0.2354 0.3506 0.69873 0.0
O122 O 0.28318 0.36526 0.73149 0.0
C123 C 0.212 0.34858 0.80217 0.0
O124 O 0.26619 0.34958 0.77678 0.0
O125 O 0.22016 0.33952 0.80325 0.0
C126 C 0.86389 0.57087 0.69254 0.0
O127 O 0.8649 0.56526 0.72295 0.0
Cd128 Cd 0.8741 0.58646 0.7728 0.0
O129 O 0.86597 0.5866 0.68923 0.0
Cd130 Cd 0.87138 0.61147 0.72884 0.0
C131 C 0.9133 0.62024 0.74098 0.0
O132 O 0.86187 0.60541 0.79229 0.0
O133 O 0.88387 0.63186 0.77567 0.0
O134 O 0.84343 0.60965 0.71172 0.0
C135 C 0.8728 0.62216 0.79944 0.0
O136 O 0.90567 0.60786 0.7641 0.0
C137 C 0.8507 0.62512 0.69709 0.0
O138 O 0.9039 0.62377 0.71968 0.0
O139 O 0.86792 0.63405 0.69554 0.0
C140 C 0.39535 0.28607 0.69201 0.0
O141 O 0.40096 0.29245 0.72254 0.0
Cd142 Cd 0.37986 0.27985 0.77253 0.0
O143 O 0.37964 0.2724 0.68854 0.0
Cd144 Cd 0.35485 0.25252 0.72796 0.0
C145 C 0.34598 0.28547 0.74249 0.0
O146 O 0.3611 0.24837 0.79096 0.0
O147 O 0.33454 0.24378 0.77503 0.0
O148 O 0.35675 0.22668 0.70922 0.0
C149 C 0.34434 0.24227 0.79835 0.0
O150 O 0.35838 0.29001 0.76543 0.0
C151 C 0.34126 0.21855 0.69474 0.0
O152 O 0.3425 0.27282 0.72054 0.0
O153 O 0.33227 0.22678 0.694 0.0
C154 C 0.67977 0.10354 0.6953 0.0
O155 O 0.67353 0.1027 0.72599 0.0
Cd156 Cd 0.68651 0.0945 0.77582 0.0
O157 O 0.6935 0.10169 0.69147 0.0
Cd158 Cd 0.71363 0.09691 0.73046 0.0
C159 C 0.68091 0.05498 0.74612 0.0
O160 O 0.71811 0.10747 0.79332 0.0
O161 O 0.72268 0.0855 0.7774 0.0
O162 O 0.73959 0.12454 0.71107 0.0
C163 C 0.72429 0.09686 0.80064 0.0
O164 O 0.67647 0.06283 0.76919 0.0
C165 C 0.74739 0.11696 0.69627 0.0
O166 O 0.69338 0.06418 0.72381 0.0
O167 O 0.73892 0.0997 0.69568 0.0
C168 C 0.06264 0.4374 0.52538 0.0
O169 O 0.06819 0.43674 0.55606 0.0
Cd170 Cd 0.04711 0.42836 0.60598 0.0
O171 O 0.04696 0.43534 0.52162 0.0
Cd172 Cd 0.02207 0.43045 0.56072 0.0
C173 C 0.01322 0.38866 0.57639 0.0
O174 O 0.02842 0.4412 0.62344 0.0
O175 O 0.00189 0.41897 0.6081 0.0
O176 O 0.02362 0.45801 0.54128 0.0
C177 C 0.01171 0.43048 0.63111 0.0
O178 O 0.02558 0.39663 0.59935 0.0
C179 C 0.00815 0.45039 0.52673 0.0
O180 O 0.00976 0.39774 0.55412 0.0
O181 O -0.00065 0.43313 0.52629 0.0
C182 C 0.53115 0.62036 0.52515 0.0
O183 O 0.53164 0.62677 0.55551 0.0
Cd184 Cd 0.54011 0.61446 0.60614 0.0
O185 O 0.53341 0.60682 0.52219 0.0
Cd186 Cd 0.53841 0.5873 0.56252 0.0
C187 C 0.58 0.62068 0.57755 0.0
O188 O 0.52767 0.58309 0.62523 0.0
O189 O 0.55003 0.57898 0.61021 0.0
O190 O 0.51086 0.5612 0.54373 0.0
C191 C 0.53848 0.57723 0.63313 0.0
O192 O 0.57191 0.62512 0.60008 0.0
C193 C 0.51841 0.55319 0.52959 0.0
O194 O 0.57105 0.60792 0.55566 0.0
O195 O 0.53565 0.5616 0.52908 0.0
C196 C 0.34644 0.90354 0.52713 0.0
O197 O 0.33997 0.89816 0.5577 0.0
Cd198 Cd 0.35279 0.91918 0.60768 0.0
O199 O 0.36034 0.91909 0.52341 0.0
Cd200 Cd 0.38042 0.94404 0.56235 0.0
C201 C 0.34779 0.95339 0.57694 0.0
O202 O 0.38436 0.93763 0.62533 0.0
O203 O 0.38917 0.9643 0.60958 0.0
O204 O 0.40645 0.94241 0.54363 0.0
C205 C 0.39052 0.95438 0.63289 0.0
O206 O 0.34316 0.94107 0.60015 0.0
C207 C 0.41437 0.95787 0.52888 0.0
O208 O 0.36033 0.95661 0.5549 0.0
O209 O 0.40595 0.96667 0.52802 0.0
C210 C 0.76437 0.73675 0.63568 0.0
O211 O 0.76402 0.74235 0.60487 0.0
Cd212 Cd 0.75499 0.72076 0.55569 0.0
O213 O 0.76175 0.72086 0.63975 0.0
Cd214 Cd 0.75642 0.69567 0.60119 0.0
C215 C 0.71499 0.68766 0.58595 0.0
O216 O 0.76702 0.70131 0.53832 0.0
O217 O 0.74447 0.6751 0.55453 0.0
O218 O 0.78398 0.69747 0.62077 0.0
C219 C 0.75602 0.68457 0.53124 0.0
O220 O 0.72316 0.6999 0.56279 0.0
C221 C 0.77648 0.68203 0.63554 0.0
O222 O 0.72387 0.68397 0.60828 0.0
O223 O 0.75923 0.67308 0.63603 0.0
C224 C 0.23032 0.01964 0.63534 0.0
O225 O 0.22492 0.01337 0.60466 0.0
Cd226 Cd 0.24643 0.02605 0.55537 0.0
O227 O 0.246 0.03329 0.63923 0.0
Cd228 Cd 0.27107 0.05332 0.6004 0.0
C229 C 0.28022 0.02057 0.58669 0.0
O230 O 0.26512 0.05759 0.5373 0.0
O231 O 0.29151 0.06188 0.55347 0.0
O232 O 0.2691 0.07918 0.61888 0.0
C233 C 0.28187 0.06359 0.53006 0.0
O234 O 0.26797 0.01601 0.56341 0.0
C235 C 0.28454 0.0873 0.63354 0.0
O236 O 0.28352 0.03318 0.60858 0.0
O237 O 0.29352 0.07906 0.63451 0.0
C238 C 0.94546 0.20443 0.63526 0.0
O239 O 0.95189 0.20526 0.60476 0.0
Cd240 Cd 0.93946 0.2138 0.55453 0.0
O241 O 0.93185 0.20653 0.63868 0.0
Cd242 Cd 0.91223 0.21182 0.59921 0.0
C243 C 0.94544 0.25355 0.58395 0.0
O244 O 0.90797 0.20108 0.53652 0.0
O245 O 0.90377 0.22339 0.55155 0.0
O246 O 0.88604 0.18437 0.61832 0.0
C247 C 0.90207 0.21185 0.52863 0.0
O248 O 0.94983 0.24556 0.5611 0.0
C249 C 0.87824 0.19205 0.6327 0.0
O250 O 0.93282 0.24449 0.60605 0.0
O251 O 0.88679 0.20931 0.6332 0.0
C252 C 0.23184 0.20483 0.13739 0.0
O253 O 0.22607 0.20532 0.10684 0.0
Cd254 Cd 0.24725 0.21421 0.05692 0.0
O255 O 0.2477 0.20732 0.14084 0.0
Cd256 Cd 0.27255 0.21273 0.10125 0.0
C257 C 0.28055 0.25424 0.08628 0.0
O258 O 0.26648 0.20211 0.03845 0.0
O259 O 0.29276 0.22471 0.05406 0.0
O260 O 0.2711 0.18519 0.1201 0.0
C261 C 0.28318 0.21309 0.03099 0.0
O262 O 0.26816 0.24609 0.06345 0.0
C263 C 0.2866 0.19276 0.13454 0.0
O264 O 0.28435 0.24533 0.10835 0.0
O265 O 0.29541 0.21002 0.13523 0.0
C266 C 0.7639 0.02126 0.13703 0.0
O267 O 0.76324 0.01511 0.10634 0.0
Cd268 Cd 0.75389 0.02746 0.05718 0.0
O269 O 0.76143 0.03462 0.14092 0.0
Cd270 Cd 0.7558 0.05419 0.10198 0.0
C271 C 0.7142 0.02071 0.08845 0.0
O272 O 0.76581 0.05886 0.03876 0.0
O273 O 0.74326 0.06229 0.05548 0.0
O274 O 0.78339 0.08044 0.12013 0.0
C275 C 0.75469 0.06446 0.03192 0.0
O276 O 0.72211 0.01646 0.06513 0.0
C277 C 0.77584 0.08826 0.13501 0.0
O278 O 0.72334 0.03341 0.11032 0.0
O279 O 0.75861 0.07966 0.13628 0.0
C280 C 0.94565 0.73782 0.13973 0.0
O281 O 0.9513 0.74465 0.10949 0.0
Cd282 Cd 0.94171 0.72291 0.06102 0.0
O283 O 0.93354 0.72125 0.14216 0.0
Cd284 Cd 0.91461 0.69673 0.10084 0.0
C285 C 0.94959 0.69071 0.09371 0.0
O286 O 0.91145 0.70281 0.0372 0.0
O287 O 0.90816 0.67679 0.0537 0.0
O288 O 0.88805 0.69803 0.11641 0.0
C289 C 0.90633 0.68621 0.02995 0.0
O290 O 0.95498 0.70431 0.07334 0.0
C291 C 0.87981 0.68248 0.13077 0.0
O292 O 0.93478 0.68461 0.11065 0.0
O293 O 0.88823 0.6737 0.13278 0.0
C294 C 0.53054 0.90466 0.02626 0.0
O295 O 0.53122 0.89895 0.05678 0.0
Cd296 Cd 0.53971 0.91992 0.10694 0.0
O297 O 0.53264 0.92039 0.02285 0.0
Cd298 Cd 0.53762 0.94514 0.06239 0.0
C299 C 0.57934 0.95374 0.07703 0.0
O300 O 0.52715 0.93876 0.12527 0.0
O301 O 0.54935 0.96531 0.10974 0.0
O302 O 0.50999 0.94347 0.04354 0.0
C303 C 0.53793 0.95548 0.13291 0.0
O304 O 0.57141 0.94133 0.09998 0.0
C305 C 0.51748 0.95899 0.02907 0.0
O306 O 0.57024 0.95732 0.05507 0.0
O307 O 0.53472 0.9679 0.02842 0.0
C308 C 0.06232 0.61859 0.02005 0.0
O309 O 0.06906 0.62416 0.05036 0.0
Cd310 Cd 0.04734 0.61433 0.09892 0.0
O311 O 0.04578 0.60643 0.01747 0.0
Cd312 Cd 0.02116 0.58732 0.05851 0.0
C313 C 0.01514 0.6223 0.06661 0.0
O314 O 0.0273 0.58384 0.12192 0.0
O315 O 0.0013 0.58067 0.10594 0.0
O316 O 0.02229 0.56071 0.04238 0.0
C317 C 0.01075 0.57871 0.12943 0.0
O318 O 0.02866 0.62755 0.08708 0.0
C319 C 0.00677 0.55261 0.02801 0.0
O320 O 0.00913 0.60762 0.04926 0.0
O321 O -0.00191 0.56114 0.02622 0.0
C322 C 0.34703 0.43805 0.02683 0.0
O323 O 0.3409 0.43754 0.05749 0.0
Cd324 Cd 0.35361 0.42914 0.10746 0.0
O325 O 0.36058 0.43588 0.02317 0.0
Cd326 Cd 0.38059 0.4311 0.06244 0.0
C327 C 0.34753 0.38937 0.07797 0.0
O328 O 0.38512 0.44177 0.12519 0.0
O329 O 0.38925 0.41947 0.10965 0.0
O330 O 0.40645 0.45876 0.04299 0.0
C331 C 0.39104 0.43097 0.13274 0.0
O332 O 0.3432 0.39739 0.1009 0.0
C333 C 0.41445 0.45125 0.02866 0.0
O334 O 0.36008 0.3984 0.05573 0.0
O335 O 0.40613 0.434 0.02831 0.0
C336 C 0.73125 0.77103 0.85877 0.0
O337 O 0.73677 0.77047 0.88953 0.0
Cd338 Cd 0.71517 0.76132 0.93873 0.0
O339 O 0.71543 0.76858 0.85479 0.0
Cd340 Cd 0.69031 0.76311 0.89364 0.0
C341 C 0.68215 0.72152 0.90776 0.0
O342 O 0.69573 0.77327 0.95675 0.0
O343 O 0.66971 0.75062 0.94016 0.0
O344 O 0.69173 0.79069 0.87508 0.0
C345 C 0.67901 0.76212 0.96362 0.0
O346 O 0.69432 0.72949 0.93109 0.0
C347 C 0.67632 0.78311 0.86026 0.0
O348 O 0.67858 0.73061 0.88572 0.0
O349 O 0.66763 0.76585 0.85918 0.0
C350 C 0.19562 0.95259 0.85987 0.0
O351 O 0.19652 0.95904 0.89037 0.0
Cd352 Cd 0.20498 0.94659 0.94066 0.0
O353 O 0.19755 0.93887 0.85644 0.0
Cd354 Cd 0.20268 0.91915 0.89603 0.0
C355 C 0.2445 0.95224 0.91078 0.0
O356 O 0.19198 0.91505 0.95874 0.0
O357 O 0.21427 0.91082 0.94388 0.0
O358 O 0.17534 0.89272 0.87713 0.0
C359 C 0.20272 0.90913 0.96674 0.0
O360 O 0.23667 0.95676 0.93378 0.0
C361 C 0.18317 0.885 0.86295 0.0
O362 O 0.23529 0.9396 0.88885 0.0
O363 O 0.2004 0.89374 0.86239 0.0
C364 C 0.0136 0.23809 0.85851 0.0
O365 O 0.00731 0.23223 0.889 0.0
Cd366 Cd 0.01965 0.25328 0.93909 0.0
O367 O 0.02707 0.25395 0.85523 0.0
Cd368 Cd 0.04669 0.27862 0.89506 0.0
C369 C 0.01336 0.28682 0.90941 0.0
O370 O 0.05098 0.27244 0.95801 0.0
O371 O 0.05493 0.29882 0.94223 0.0
O372 O 0.07255 0.27677 0.87656 0.0
C373 C 0.05675 0.28915 0.96547 0.0
O374 O 0.00896 0.27436 0.9322 0.0
C375 C 0.08076 0.29234 0.8623 0.0
O376 O 0.02611 0.29061 0.88754 0.0
O377 O 0.07258 0.30138 0.86155 0.0
C378 C 0.42887 0.06852 0.97015 0.0
O379 O 0.42802 0.07407 0.93958 0.0
Cd380 Cd 0.41893 0.0527 0.89005 0.0
O381 O 0.42662 0.05274 0.9738 0.0
Cd382 Cd 0.42109 0.02764 0.93474 0.0
C383 C 0.37938 0.01917 0.9212 0.0
O384 O 0.43131 0.0337 0.87171 0.0
O385 O 0.40891 0.00736 0.88759 0.0
O386 O 0.44875 0.02922 0.95302 0.0
C387 C 0.42035 0.017 0.8643 0.0
O388 O 0.38722 0.03145 0.89798 0.0
C389 C 0.44128 0.01375 0.96769 0.0
O390 O 0.38856 0.01562 0.94301 0.0
O391 O 0.42405 0.00491 0.96872 0.0
C392 C 0.89704 0.35447 0.96707 0.0
O393 O 0.89142 0.34842 0.93636 0.0
Cd394 Cd 0.91279 0.36108 0.88678 0.0
O395 O 0.91287 0.36788 0.97091 0.0
Cd396 Cd 0.93796 0.38782 0.93216 0.0
C397 C 0.94605 0.35443 0.91674 0.0
O398 O 0.93205 0.39266 0.86939 0.0
O399 O 0.95836 0.39656 0.88516 0.0
O400 O 0.93634 0.41368 0.95169 0.0
C401 C 0.94876 0.39849 0.86199 0.0
O402 O 0.93377 0.35028 0.89367 0.0
C403 C 0.95174 0.42153 0.96654 0.0
O404 O 0.94971 0.367 0.93899 0.0
O405 O 0.96059 0.41314 0.96701 0.0
C406 C 0.61294 0.53754 0.97107 0.0
O407 O 0.61901 0.5378 0.94047 0.0
Cd408 Cd 0.60669 0.54658 0.8904 0.0
O409 O 0.59957 0.54002 0.97452 0.0
Cd410 Cd 0.57981 0.54498 0.93478 0.0
C411 C 0.61335 0.58651 0.92019 0.0
O412 O 0.57535 0.5345 0.87191 0.0
O413 O 0.57168 0.55707 0.88752 0.0
O414 O 0.55379 0.51736 0.95377 0.0
C415 C 0.56972 0.54554 0.86436 0.0
O416 O 0.61761 0.57842 0.89731 0.0
C417 C 0.54577 0.52489 0.9679 0.0
O418 O 0.60061 0.57755 0.94212 0.0
O419 O 0.55415 0.54215 0.96839 0.0
C420 C 0.8971 0.53726 0.46833 0.0
O421 O 0.89127 0.53796 0.43796 0.0
Cd422 Cd 0.91211 0.54689 0.3875 0.0
O423 O 0.91293 0.53961 0.47145 0.0
Cd424 Cd 0.93775 0.5452 0.4316 0.0
C425 C 0.94558 0.58677 0.41723 0.0
O426 O 0.93124 0.53474 0.36875 0.0
O427 O 0.95771 0.55715 0.38401 0.0
O428 O 0.93662 0.51774 0.45012 0.0
C429 C 0.94789 0.5457 0.36091 0.0
O430 O 0.93313 0.57871 0.39447 0.0
C431 C 0.95216 0.52542 0.46443 0.0
O432 O 0.94944 0.57777 0.43896 0.0
O433 O 0.96084 0.54268 0.46514 0.0
C434 C 0.42949 0.35489 0.46936 0.0
O435 O 0.42876 0.3486 0.43878 0.0
Cd436 Cd 0.42024 0.36128 0.38891 0.0
O437 O 0.42736 0.36848 0.47295 0.0
Cd438 Cd 0.42223 0.38831 0.43378 0.0
C439 C 0.38053 0.35518 0.41861 0.0
O440 O 0.43289 0.39284 0.371 0.0
O441 O 0.4106 0.39696 0.38655 0.0
O442 O 0.44982 0.41426 0.4529 0.0
C443 C 0.42211 0.39878 0.36346 0.0
O444 O 0.38851 0.35085 0.39564 0.0
C445 C 0.44231 0.42218 0.46752 0.0
O446 O 0.38958 0.36776 0.44078 0.0
O447 O 0.42507 0.41379 0.4681 0.0
C448 C 0.61258 0.06934 0.471 0.0
O449 O 0.61879 0.07512 0.44043 0.0
Cd450 Cd 0.60665 0.05399 0.39049 0.0
O451 O 0.59919 0.05344 0.4745 0.0
Cd452 Cd 0.57965 0.02853 0.43489 0.0
C453 C 0.61327 0.02071 0.42072 0.0
O454 O 0.5753 0.03472 0.37198 0.0
O455 O 0.57165 0.00844 0.38748 0.0
O456 O 0.5534 0.02966 0.45355 0.0
C457 C 0.5697 0.01807 0.36435 0.0
O458 O 0.61756 0.03308 0.39774 0.0
C459 C 0.54553 0.0141 0.46788 0.0
O460 O 0.60049 0.01689 0.44253 0.0
O461 O 0.55409 0.00543 0.46861 0.0
C462 C 0.19686 0.23803 0.36026 0.0
O463 O 0.19761 0.23237 0.39079 0.0
Cd464 Cd 0.20595 0.25335 0.44092 0.0
O465 O 0.19887 0.25372 0.35681 0.0
Cd466 Cd 0.20377 0.27844 0.39634 0.0
C467 C 0.24556 0.28733 0.41144 0.0
O468 O 0.19322 0.27206 0.45921 0.0
O469 O 0.2153 0.29866 0.44351 0.0
O470 O 0.1761 0.27664 0.37728 0.0
C471 C 0.2039 0.28882 0.46669 0.0
O472 O 0.23763 0.27488 0.43433 0.0
C473 C 0.18357 0.29218 0.36288 0.0
O474 O 0.23646 0.29083 0.38934 0.0
O475 O 0.20081 0.30114 0.36234 0.0
C476 C 0.7309 0.95426 0.36108 0.0
O477 O 0.73642 0.9604 0.39178 0.0
Cd478 Cd 0.71482 0.94784 0.441 0.0
O479 O 0.71509 0.94082 0.35719 0.0
Cd480 Cd 0.68997 0.92097 0.39598 0.0
C481 C 0.68164 0.95427 0.40982 0.0
O482 O 0.69557 0.91635 0.45911 0.0
O483 O 0.66936 0.91244 0.44254 0.0
O484 O 0.69175 0.89508 0.37717 0.0
C485 C 0.67881 0.9105 0.46605 0.0
O486 O 0.69382 0.95857 0.43315 0.0
C487 C 0.67634 0.8871 0.36235 0.0
O488 O 0.67811 0.94161 0.38789 0.0
O489 O 0.66745 0.89543 0.3615 0.0
C490 C 0.01189 0.77133 0.36407 0.0
O491 O 0.00592 0.77037 0.39503 0.0
Cd492 Cd 0.01912 0.76165 0.44364 0.0
O493 O 0.02543 0.76923 0.35935 0.0
Cd494 Cd 0.04551 0.7637 0.3968 0.0
C495 C 0.01235 0.72197 0.41225 0.0
O496 O 0.05084 0.77408 0.45973 0.0
O497 O 0.05449 0.75167 0.44276 0.0
O498 O 0.07143 0.79128 0.37732 0.0
C499 C 0.05675 0.76317 0.46624 0.0
O500 O 0.0084 0.7299 0.43602 0.0
C501 C 0.07909 0.7837 0.36199 0.0
O502 O 0.02466 0.73109 0.38963 0.0
O503 O 0.07053 0.76644 0.36106 0.0
H504 H 0.2943 0.94121 0.19691 0.0
H505 H 0.34098 0.03325 0.30107 0.0
H506 H 0.28279 0.94345 0.3069 0.0
H507 H 0.32755 0.03128 0.19089 0.0
H508 H 0.32294 0.00024 0.30377 0.0
H509 H 0.30984 0.97424 0.19419 0.0
C510 C 0.29511 0.94868 0.22055 0.0
C511 C 0.28738 0.93964 0.25231 0.0
C512 C 0.32388 0.00705 0.27908 0.0
C513 C 0.30517 0.97733 0.24925 0.0
C514 C 0.33427 0.02584 0.27738 0.0
C515 C 0.33584 0.03494 0.24558 0.0
C516 C 0.31531 -0.00272 0.24861 0.0
C517 C 0.32669 0.02473 0.21585 0.0
C518 C 0.30384 0.96749 0.21884 0.0
C519 C 0.2886 0.94994 0.28197 0.0
N520 N 0.31694 0.00635 0.21797 0.0
N521 N 0.29756 0.96833 0.27984 0.0
H522 H 0.02455 0.33511 0.30612 0.0
H523 H 0.93583 0.29089 0.18658 0.0
H524 H 0.0257 0.34777 0.19565 0.0
H525 H 0.93485 0.30279 0.29677 0.0
H526 H 0.96904 0.30615 0.18951 0.0
H527 H -0.00869 0.31733 0.30318 0.0
C528 C 0.01781 0.33408 0.28132 0.0
C529 C 0.02778 0.34305 0.25121 0.0
C530 C 0.96146 0.30534 0.21297 0.0
C531 C -0.00984 0.32264 0.24753 0.0
C532 C 0.9426 0.29666 0.21131 0.0
C533 C 0.93268 0.29581 0.24134 0.0
C534 C 0.97028 0.31278 0.24504 0.0
C535 C 0.94204 0.3034 0.27286 0.0
C536 C -0.00106 0.32401 0.27967 0.0
C537 C 0.01847 0.34126 0.21961 0.0
N538 N 0.96034 0.31152 0.27394 0.0
N539 N 0.00015 0.33119 0.21854 0.0
H540 H 0.66816 0.62923 0.30139 0.0
H541 H 0.62172 0.67397 0.1945 0.0
H542 H 0.67882 0.64138 0.19062 0.0
H543 H 0.63498 0.68594 0.30459 0.0
H544 H 0.63993 0.65925 0.19262 0.0
H545 H 0.65329 0.64732 0.30329 0.0
C546 C 0.66733 0.63569 0.27742 0.0
C547 C 0.67456 0.6337 0.24567 0.0
C548 C 0.63894 0.66519 0.21711 0.0
C549 C 0.65754 0.65429 0.24776 0.0
C550 C 0.62844 0.67345 0.21834 0.0
C551 C 0.62674 0.68102 0.24989 0.0
C552 C 0.64749 0.66418 0.2478 0.0
C553 C 0.63593 0.68021 0.27981 0.0
C554 C 0.65899 0.64611 0.27865 0.0
C555 C 0.67336 0.64256 0.21555 0.0
N556 N 0.64578 0.6717 0.27816 0.0
N557 N 0.66476 0.65233 0.21722 0.0
H558 H 0.62049 0.94168 0.69648 0.0
H559 H 0.66526 0.0331 0.80262 0.0
H560 H 0.63344 0.9433 0.80685 0.0
H561 H 0.67691 0.03175 0.6924 0.0
H562 H 0.65049 0.0001 0.80473 0.0
H563 H 0.63813 0.97471 0.69442 0.0
C564 C 0.62701 0.94901 0.72034 0.0
C565 C 0.62541 0.9398 0.75201 0.0
C566 C 0.65637 0.00704 0.78017 0.0
C567 C 0.64549 0.9775 0.74973 0.0
C568 C 0.66465 0.02583 0.7788 0.0
C569 C 0.67217 0.0351 0.74715 0.0
C570 C 0.65527 -0.00255 0.74952 0.0
C571 C 0.67123 0.02507 0.71725 0.0
C572 C 0.63718 0.96782 0.71901 0.0
C573 C 0.63434 0.94993 0.78198 0.0
N574 N 0.66271 0.00669 0.71905 0.0
N575 N 0.64386 0.96833 0.78022 0.0
H576 H 0.02544 0.68298 0.8038 0.0
H577 H 0.93592 0.63965 0.68647 0.0
H578 H 0.02591 0.67274 0.69259 0.0
H579 H 0.93575 0.62605 0.79613 0.0
H580 H 0.96918 0.65757 0.68847 0.0
H581 H -0.00778 0.66763 0.80165 0.0
C582 C 0.01856 0.67757 0.779 0.0
C583 C 0.02834 0.67891 0.74845 0.0
C584 C 0.96176 0.65064 0.71201 0.0
C585 C -0.00929 0.66179 0.74567 0.0
C586 C 0.94288 0.64049 0.71089 0.0
C587 C 0.93317 0.63123 0.74104 0.0
C588 C 0.97081 0.6518 0.74368 0.0
C589 C 0.94277 0.63278 0.77214 0.0
C590 C -0.00031 0.66883 0.77779 0.0
C591 C 0.01883 0.67175 0.71687 0.0
N592 N 0.96107 0.64293 0.77271 0.0
N593 N 0.00051 0.66354 0.71626 0.0
H594 H 0.32681 0.28954 0.68863 0.0
H595 H 0.28297 0.33399 0.8089 0.0
H596 H 0.33988 0.30114 0.79887 0.0
H597 H 0.29441 0.34677 0.69848 0.0
H598 H 0.29823 0.31605 0.80577 0.0
H599 H 0.30898 0.30491 0.6919 0.0
C600 C 0.32586 0.29525 0.71345 0.0
C601 C 0.33496 0.2943 0.74339 0.0
C602 C 0.29732 0.32281 0.78231 0.0
C603 C 0.31449 0.31141 0.74746 0.0
C604 C 0.28863 0.33297 0.78408 0.0
C605 C 0.28765 0.34201 0.75404 0.0
C606 C 0.30463 0.3214 0.75012 0.0
C607 C 0.29512 0.34022 0.7224 0.0
C608 C 0.31576 0.304 0.71529 0.0
C609 C 0.33327 0.30183 0.77503 0.0
N610 N 0.30324 0.33005 0.72122 0.0
N611 N 0.32318 0.31003 0.77629 0.0
H612 H 0.0072 0.36691 0.63302 0.0
H613 H 0.96139 0.2753 0.52743 0.0
H614 H -0.00586 0.36526 0.5227 0.0
H615 H 0.94974 0.27696 0.63754 0.0
H616 H 0.97659 0.30833 0.52517 0.0
H617 H -0.01073 0.33388 0.63527 0.0
C618 C 0.00059 0.35957 0.60921 0.0
C619 C 0.00224 0.36877 0.5775 0.0
C620 C 0.97062 0.30145 0.54975 0.0
C621 C -0.01816 0.33109 0.58001 0.0
C622 C 0.96209 0.28264 0.55119 0.0
C623 C 0.95444 0.27345 0.58284 0.0
C624 C 0.97184 0.31113 0.58033 0.0
C625 C 0.95551 0.28358 0.61268 0.0
C626 C -0.00974 0.34077 0.61065 0.0
C627 C -0.00679 0.35864 0.54761 0.0
N628 N 0.96428 0.30198 0.61081 0.0
N629 N -0.01647 0.34025 0.54947 0.0
H630 H 0.60158 0.6371 0.63398 0.0
H631 H 0.69344 0.68192 0.52923 0.0
H632 H 0.60354 0.62472 0.52442 0.0
H633 H 0.69139 0.66906 0.63978 0.0
H634 H 0.66044 0.66438 0.52685 0.0
H635 H 0.63457 0.6523 0.63655 0.0
C636 C 0.60898 0.63765 0.6104 0.0
C637 C 0.59988 0.62977 0.57881 0.0
C638 C 0.66723 0.66534 0.55156 0.0
C639 C 0.63751 0.64717 0.5817 0.0
C640 C 0.68602 0.67545 0.55307 0.0
C641 C 0.6951 0.67702 0.58487 0.0
C642 C 0.65744 0.65706 0.58221 0.0
C643 C 0.68486 0.66818 0.6148 0.0
C644 C 0.62776 0.64618 0.61203 0.0
C645 C 0.61008 0.63066 0.54923 0.0
N646 N 0.66648 0.6587 0.61286 0.0
N647 N 0.62845 0.63942 0.55126 0.0
H648 H 0.2994 0.01688 0.64104 0.0
H649 H 0.34372 0.97226 0.52244 0.0
H650 H 0.28656 0.00474 0.53085 0.0
H651 H 0.33248 0.96013 0.6331 0.0
H652 H 0.32845 -0.0098 0.52502 0.0
H653 H 0.31748 0.00176 0.63849 0.0
C654 C 0.30044 0.01109 0.61638 0.0
C655 C 0.29134 0.01183 0.58624 0.0
C656 C 0.32942 0.98361 0.54867 0.0
C657 C 0.3121 -0.00499 0.58299 0.0
C658 C 0.33812 0.97345 0.54722 0.0
C659 C 0.33913 0.96457 0.57748 0.0
C660 C 0.32212 0.98515 0.58075 0.0
C661 C 0.33174 0.96656 0.60903 0.0
C662 C 0.31069 0.00249 0.61494 0.0
C663 C 0.29316 0.00421 0.55484 0.0
N664 N 0.32358 0.9767 0.60989 0.0
N665 N 0.3034 -0.00383 0.55397 0.0
H666 H 0.33188 0.36771 0.13474 0.0
H667 H 0.28576 0.27587 0.02982 0.0
H668 H 0.34293 0.36587 0.02435 0.0
H669 H 0.29976 0.27781 0.13967 0.0
H670 H 0.30336 0.30891 0.02738 0.0
H671 H 0.31673 0.33469 0.13718 0.0
C672 C 0.33105 0.36033 0.11095 0.0
C673 C 0.33853 0.36948 0.07917 0.0
C674 C 0.30264 0.30208 0.05194 0.0
C675 C 0.32118 0.3318 0.0819 0.0
C676 C 0.29249 0.28328 0.0535 0.0
C677 C 0.29122 0.27415 0.08512 0.0
C678 C 0.31126 0.31185 0.08238 0.0
C679 C 0.3004 0.28437 0.11483 0.0
C680 C 0.32255 0.34153 0.1125 0.0
C681 C 0.3373 0.3593 0.04931 0.0
N682 N 0.30991 0.30277 0.11286 0.0
N683 N 0.32856 0.3409 0.05129 0.0
H684 H 0.60255 0.97261 0.02295 0.0
H685 H 0.69116 0.01661 0.14261 0.0
H686 H 0.60119 0.95978 0.13337 0.0
H687 H 0.69215 0.00447 0.03256 0.0
H688 H 0.65793 0.00126 0.13969 0.0
H689 H 0.6358 -0.00984 0.02601 0.0
C690 C 0.60925 0.97356 0.04776 0.0
C691 C 0.59921 0.96462 0.07783 0.0
C692 C 0.66552 0.00202 0.11627 0.0
C693 C 0.63684 0.98476 0.08165 0.0
C694 C 0.68439 0.01075 0.11792 0.0
C695 C 0.69432 0.0116 0.08791 0.0
C696 C 0.65671 -0.00547 0.08422 0.0
C697 C 0.68496 0.00388 0.05645 0.0
C698 C 0.62812 0.98349 0.04949 0.0
C699 C 0.60847 0.96628 0.10945 0.0
N700 N 0.66666 -0.00426 0.05536 0.0
N701 N 0.62679 0.97623 0.11059 0.0
H702 H -0.0143 0.70503 0.08339 0.0
H703 H 0.97917 0.60965 0.05416 0.0
H704 H 0.93656 0.65446 0.10341 0.0
H705 H 0.02929 0.65821 0.07967 0.0
H706 H 0.96299 0.62638 0.06295 0.0
H707 H 0.00181 0.68839 0.07484 0.0
C708 C 0.97837 0.69042 0.08645 0.0
C709 C 0.95982 0.68107 0.09424 0.0
C710 C 0.97754 0.63333 0.06641 0.0
C711 C 0.978 0.66197 0.08356 0.0
C712 C -0.01322 0.62389 0.06096 0.0
C713 C 0.00556 0.63261 0.06623 0.0
C714 C -0.01275 0.65161 0.07658 0.0
C715 C 0.01479 0.651 0.07548 0.0
C716 C -0.01246 0.68095 0.08145 0.0
C717 C 0.95092 0.66215 0.09779 0.0
N718 N 0.00554 0.65991 0.08033 0.0
N719 N 0.96007 0.65315 0.09198 0.0
H720 H 0.61801 0.60989 0.97405 0.0
H721 H 0.66319 0.69836 0.85371 0.0
H722 H 0.62953 0.60827 0.86385 0.0
H723 H 0.67632 0.69954 0.96389 0.0
H724 H 0.64525 0.66511 0.85689 0.0
H725 H 0.63405 0.64317 0.97075 0.0
C726 C 0.62386 0.61654 0.94923 0.0
C727 C 0.62266 0.60642 0.9193 0.0
C728 C 0.65209 0.67274 0.88028 0.0
C729 C 0.64054 0.64409 0.9152 0.0
C730 C 0.66226 0.69163 0.87848 0.0
C731 C 0.67136 0.70161 0.90846 0.0
C732 C 0.65074 0.66397 0.91244 0.0
C733 C 0.6697 0.69229 0.94003 0.0
C734 C 0.633 0.63543 0.94738 0.0
C735 C 0.63039 0.61562 0.88767 0.0
N736 N 0.65951 0.67398 0.94126 0.0
N737 N 0.63895 0.63396 0.88639 0.0
H738 H 0.35637 0.0004 0.97568 0.0
H739 H 0.26748 0.95611 0.85674 0.0
H740 H 0.35729 0.01304 0.86526 0.0
H741 H 0.26656 0.9682 0.96684 0.0
H742 H 0.30069 0.9714 0.85959 0.0
H743 H 0.32312 0.98273 0.97307 0.0
C744 C 0.34958 -0.0006 0.95096 0.0
C745 C 0.35949 0.00831 0.92076 0.0
C746 C 0.29313 0.97063 0.88305 0.0
C747 C 0.32185 -0.01198 0.91744 0.0
C748 C 0.27427 0.96193 0.88144 0.0
C749 C 0.26437 0.96112 0.91147 0.0
C750 C 0.30197 0.97814 0.91506 0.0
C751 C 0.27375 0.96878 0.94294 0.0
C752 C 0.3307 -0.01061 0.94949 0.0
C753 C 0.3501 0.00657 0.88928 0.0
N754 N 0.29205 0.97692 0.94397 0.0
N755 N 0.33179 -0.00345 0.88839 0.0
H756 H -0.00294 0.29215 0.96571 0.0
H757 H 0.95166 0.33845 0.8602 0.0
H758 H 0.00908 0.30604 0.8558 0.0
H759 H 0.96486 0.34971 0.97047 0.0
H760 H 0.96928 0.3231 0.85798 0.0
H761 H -0.01823 0.30983 0.9679 0.0
C762 C -0.00358 0.29888 0.94197 0.0
C763 C 0.00422 0.29756 0.9104 0.0
C764 C 0.96838 0.329 0.88258 0.0
C765 C -0.01329 0.31767 0.91285 0.0
C766 C 0.95822 0.33763 0.88401 0.0
C767 C 0.95673 0.34523 0.91569 0.0
C768 C 0.97678 0.32766 0.9132 0.0
C769 C 0.96569 0.34399 0.94559 0.0
C770 C -0.01217 0.30906 0.94338 0.0
C771 C 0.00321 0.30672 0.88059 0.0
N772 N 0.9752 0.33515 0.94373 0.0
N773 N -0.00561 0.31627 0.88242 0.0
H774 H -0.0032 0.69991 0.46859 0.0
H775 H 0.95058 0.6087 0.36139 0.0
H776 H 0.0074 0.69881 0.35772 0.0
H777 H 0.96482 0.61006 0.47095 0.0
H778 H 0.96801 0.64176 0.35968 0.0
H779 H -0.01838 0.66688 0.47013 0.0
C780 C -0.00413 0.6927 0.44451 0.0
C781 C 0.00324 0.70205 0.41286 0.0
C782 C 0.96738 0.6348 0.38401 0.0
C783 C -0.01413 0.66436 0.41458 0.0
C784 C 0.95733 0.61598 0.38515 0.0
C785 C 0.95618 0.60669 0.41648 0.0
C786 C 0.97602 0.64441 0.41459 0.0
C787 C 0.96537 0.61675 0.44633 0.0
C788 C -0.01266 0.67389 0.44554 0.0
C789 C 0.00186 0.69207 0.38259 0.0
N790 N 0.97479 0.63516 0.44477 0.0
N791 N -0.00688 0.67366 0.38409 0.0
H792 H 0.2673 0.29326 0.46796 0.0
H793 H 0.3588 0.33934 0.3621 0.0
H794 H 0.26892 0.30655 0.35774 0.0
H795 H 0.35714 0.35077 0.47233 0.0
H796 H 0.3258 0.32414 0.35995 0.0
H797 H 0.30029 0.31122 0.47012 0.0
C798 C 0.27463 0.29993 0.44415 0.0
C799 C 0.26543 0.29833 0.41249 0.0
C800 C 0.33268 0.33006 0.38452 0.0
C801 C 0.30307 0.31877 0.4149 0.0
C802 C 0.35146 0.33859 0.38591 0.0
C803 C 0.36065 0.34618 0.41757 0.0
C804 C 0.323 0.32879 0.41516 0.0
C805 C 0.35053 0.34505 0.44746 0.0
C806 C 0.2934 0.31028 0.44554 0.0
C807 C 0.27554 0.30744 0.3826 0.0
N808 N 0.33215 0.33629 0.44565 0.0
N809 N 0.29392 0.31714 0.38441 0.0
H810 H 0.66287 0.95857 0.35545 0.0
H811 H 0.61762 0.0018 0.47476 0.0
H812 H 0.67558 0.97022 0.4658 0.0
H813 H 0.62967 0.01529 0.36471 0.0
H814 H 0.63351 0.98447 0.47183 0.0
H815 H 0.64504 0.97395 0.35825 0.0
C816 C 0.66187 0.96432 0.38018 0.0
C817 C 0.67082 0.96333 0.41032 0.0
C818 C 0.6326 -0.00875 0.44841 0.0
C819 C 0.65034 0.98044 0.41385 0.0
C820 C 0.62355 0.00106 0.45005 0.0
C821 C 0.62254 0.01011 0.42005 0.0
C822 C 0.64024 -0.00981 0.41637 0.0
C823 C 0.63038 0.00871 0.38858 0.0
C824 C 0.65177 0.97308 0.38176 0.0
C825 C 0.66908 0.97092 0.44183 0.0
N826 N 0.63884 -0.00114 0.3875 0.0
N827 N 0.65895 0.97909 0.44283 0.0
H828 H 0.26584 0.06201 0.46568 0.0
H829 H 0.36137 0.10957 0.36403 0.0
H830 H 0.31779 0.08479 0.51728 0.0
H831 H 0.30936 0.08272 0.31222 0.0
H832 H 0.34574 0.10491 0.42078 0.0
H833 H 0.2816 0.07371 0.40923 0.0
C834 C 0.28051 0.06965 0.46521 0.0
C835 C 0.29049 0.07219 0.49612 0.0
C836 C 0.33778 0.10023 0.39688 0.0
C837 C 0.30862 0.08555 0.43192 0.0
C838 C 0.34673 0.10298 0.36453 0.0
C839 C 0.33667 0.09631 0.33347 0.0
C840 C 0.31869 0.09083 0.39799 0.0
C841 C 0.31768 0.08783 0.33561 0.0
C842 C 0.28952 0.07628 0.43303 0.0
C843 C 0.30951 0.08224 0.49401 0.0
N844 N 0.30933 0.08521 0.36723 0.0
N845 N 0.31792 0.0884 0.46254 0.0
H846 H 0.90501 0.19831 0.46429 0.0
H847 H 0.85686 0.24529 0.36104 0.0
H848 H 0.88001 0.22546 0.51518 0.0
H849 H 0.88625 0.22261 0.31031 0.0
H850 H 0.86094 0.23379 0.41776 0.0
H851 H 0.89395 0.20269 0.40731 0.0
C852 C 0.89698 0.20491 0.46354 0.0
C853 C 0.89365 0.21175 0.49441 0.0
C854 C 0.86633 0.23119 0.39409 0.0
C855 C 0.88105 0.2169 0.42963 0.0
C856 C 0.86392 0.2377 0.36176 0.0
C857 C 0.87143 0.23515 0.33102 0.0
C858 C 0.87622 0.22201 0.39553 0.0
C859 C 0.88047 0.22518 0.33344 0.0
C860 C 0.89074 0.2075 0.43107 0.0
C861 C 0.88316 0.22022 0.49195 0.0
N862 N 0.88272 0.21912 0.36506 0.0
N863 N 0.87738 0.22268 0.46021 0.0
H864 H 0.74129 0.64854 0.51946 0.0
H865 H 0.75008 0.65876 0.31104 0.0
H866 H 0.77032 0.70019 0.46644 0.0
H867 H 0.72198 0.60711 0.36423 0.0
H868 H 0.76081 0.67382 0.36755 0.0
H869 H 0.73738 0.63318 0.46353 0.0
C870 C 0.747 0.6567 0.496 0.0
C871 C 0.75597 0.67574 0.4976 0.0
C872 C 0.75248 0.65919 0.36699 0.0
C873 C 0.75139 0.65805 0.43305 0.0
C874 C 0.74631 0.65053 0.33469 0.0
C875 C 0.7349 0.63162 0.33293 0.0
C876 C 0.74711 0.64895 0.39808 0.0
C877 C 0.73069 0.62169 0.36437 0.0
C878 C 0.74476 0.64786 0.46401 0.0
C879 C 0.76327 0.68552 0.46641 0.0
N880 N 0.7366 0.63051 0.39575 0.0
N881 N 0.76062 0.67655 0.4353 0.0
H882 H 0.10255 0.36864 0.13144 0.0
H883 H 0.05498 0.27304 0.02991 0.0
H884 H 0.07514 0.31658 0.18332 0.0
H885 H 0.07804 0.32508 0.97824 0.0
H886 H 0.06651 0.28878 0.08641 0.0
H887 H 0.09799 0.35298 0.07478 0.0
C888 C 0.09584 0.35398 0.13098 0.0
C889 C 0.08901 0.34392 0.16204 0.0
C890 C 0.06918 0.29672 0.06258 0.0
C891 C 0.08365 0.3259 0.09761 0.0
C892 C 0.06266 0.28771 0.03037 0.0
C893 C 0.06531 0.29773 -0.00057 0.0
C894 C 0.07848 0.31583 0.06368 0.0
C895 C 0.07539 0.31677 0.00153 0.0
C896 C 0.09315 0.34502 0.09868 0.0
C897 C 0.08039 0.3249 0.15994 0.0
N898 N 0.08146 0.32517 0.03302 0.0
N899 N 0.07784 0.31654 0.12836 0.0
H900 H 0.65204 0.75651 0.18328 0.0
H901 H 0.64292 0.74688 0.97487 0.0
H902 H 0.60073 0.72786 0.12936 0.0
H903 H 0.69422 0.77665 0.02854 0.0
H904 H 0.62726 0.74296 0.03043 0.0
H905 H 0.66734 0.76712 0.12692 0.0
C906 C 0.64393 0.75259 0.15949 0.0
C907 C 0.62505 0.74107 0.16101 0.0
C908 C 0.64192 0.7505 0.03017 0.0
C909 C 0.64266 0.75313 0.09604 0.0
C910 C 0.65094 0.75274 -0.0016 0.0
C911 C 0.66998 0.76193 0.99708 0.0
C912 C 0.65193 0.75735 0.06123 0.0
C913 C 0.67956 0.76942 0.02835 0.0
C914 C 0.65273 0.75869 0.12727 0.0
C915 C 0.61528 0.73667 0.1294 0.0
N916 N 0.67042 0.76677 0.05927 0.0
N917 N 0.62424 0.74252 0.09812 0.0
H918 H 0.23565 0.8636 0.1346 0.0
H919 H 0.1892 0.91218 0.03102 0.0
H920 H 0.21346 0.8935 0.18507 0.0
H921 H 0.21612 0.88689 0.98032 0.0
H922 H 0.19346 0.90107 0.08807 0.0
H923 H 0.22414 0.86764 0.07787 0.0
C924 C 0.22817 0.87076 0.13383 0.0
C925 C 0.22576 0.87844 0.16448 0.0
C926 C 0.19825 0.8978 0.06434 0.0
C927 C 0.21262 0.88318 0.09998 0.0
C928 C 0.19573 0.90408 0.03183 0.0
C929 C 0.20254 0.90069 0.001 0.0
C930 C 0.20755 0.88802 0.06584 0.0
C931 C 0.21091 0.8901 0.00352 0.0
C932 C 0.22165 0.87315 0.10149 0.0
C933 C 0.21592 0.8876 0.162 0.0
N934 N 0.2133 0.88429 0.0353 0.0
N935 N 0.20985 0.88983 0.13038 0.0
H936 H 0.6523 0.89126 0.68614 0.0
H937 H 0.64285 0.88875 0.47752 0.0
H938 H 0.60085 0.86622 0.63234 0.0
H939 H 0.69428 0.9123 0.53123 0.0
H940 H 0.62735 0.8773 0.53341 0.0
H941 H 0.66764 0.89573 0.62994 0.0
C942 C 0.64418 0.88652 0.66242 0.0
C943 C 0.62523 0.87855 0.6639 0.0
C944 C 0.64201 0.8848 0.53309 0.0
C945 C 0.64288 0.88381 0.59909 0.0
C946 C 0.65094 0.89141 0.50113 0.0
C947 C 0.66995 0.90174 0.49972 0.0
C948 C 0.6521 0.88863 0.56421 0.0
C949 C 0.67964 0.90448 0.53111 0.0
C950 C 0.653 0.88908 0.63029 0.0
C951 C 0.61545 0.87247 0.6324 0.0
N952 N 0.67058 0.89815 0.56218 0.0
N953 N 0.62442 0.87545 0.60118 0.0
H954 H 0.07893 0.74936 0.47606 0.0
H955 H 0.07787 0.75535 0.68494 0.0
H956 H 0.05545 0.77665 0.53184 0.0
H957 H 0.10194 0.72867 0.62906 0.0
H958 H 0.07327 0.76671 0.62935 0.0
H959 H 0.09091 0.74524 0.53123 0.0
C960 C 0.07641 0.75465 0.49998 0.0
C961 C 0.06592 0.76317 0.49939 0.0
C962 C 0.07974 0.75856 0.62912 0.0
C963 C 0.07963 0.75833 0.56304 0.0
C964 C 0.08238 0.75203 0.66089 0.0
C965 C 0.0901 0.74082 0.6616 0.0
C966 C 0.08468 0.75375 0.59752 0.0
C967 C 0.0959 0.73721 0.6297 0.0
C968 C 0.08332 0.75229 0.53152 0.0
C969 C 0.06338 0.76996 0.53111 0.0
N970 N 0.09283 0.74345 0.59885 0.0
N971 N 0.06999 0.76718 0.56177 0.0
H972 H 0.2161 0.32441 0.47855 0.0
H973 H 0.2139 0.31458 0.68713 0.0
H974 H 0.19183 0.27282 0.5321 0.0
H975 H 0.23712 0.36614 0.63361 0.0
H976 H 0.20255 0.29913 0.63121 0.0
H977 H 0.22047 0.3396 0.53486 0.0
C978 C 0.2115 0.31622 0.50224 0.0
C979 C 0.20378 0.29728 0.50064 0.0
C980 C 0.20996 0.31381 0.63158 0.0
C981 C 0.20893 0.31477 0.56559 0.0
C982 C 0.21651 0.3227 0.66356 0.0
C983 C 0.22672 0.34174 0.66503 0.0
C984 C 0.21372 0.32394 0.6005 0.0
C985 C 0.2294 0.35147 0.63368 0.0
C986 C 0.21401 0.32496 0.53444 0.0
C987 C 0.19788 0.28742 0.53213 0.0
N988 N 0.22312 0.34244 0.6026 0.0
N989 N 0.2008 0.29631 0.56341 0.0
H990 H 0.90734 0.70195 0.96545 0.0
H991 H 0.86011 0.60608 0.86454 0.0
H992 H 0.88639 0.65013 0.01719 0.0
H993 H 0.88702 0.65803 0.81217 0.0
H994 H 0.86528 0.62189 0.92122 0.0
H995 H 0.89577 0.68599 0.90914 0.0
C996 C 0.90015 0.68727 0.96504 0.0
C997 C 0.89806 0.6774 0.99595 0.0
C998 C 0.86989 0.62979 0.89722 0.0
C999 C 0.88479 0.65905 0.93195 0.0
C1000 C 0.86684 0.62075 0.86492 0.0
C1001 C 0.87334 0.63073 0.83369 0.0
C1002 C 0.87939 0.64891 0.89812 0.0
C1003 C 0.88202 0.64976 0.83567 0.0
C1004 C 0.89359 0.67815 0.93295 0.0
C1005 C 0.88858 0.65835 0.99392 0.0
N1006 N 0.88489 0.6582 0.86725 0.0
N1007 N 0.88242 0.64984 0.96256 0.0
H1008 H 0.31905 0.22718 0.01904 0.0
H1009 H 0.30871 0.21924 0.81064 0.0
H1010 H 0.26738 0.19909 0.96622 0.0
H1011 H 0.36038 0.24609 0.86364 0.0
H1012 H 0.2936 0.20858 0.86714 0.0
H1013 H 0.33429 0.23094 0.96299 0.0
C1014 C 0.31086 0.22164 0.99559 0.0
C1015 C 0.29186 0.21299 0.99729 0.0
C1016 C 0.30824 0.21663 0.86655 0.0
C1017 C 0.30941 0.21741 0.93261 0.0
C1018 C 0.31693 0.22276 0.83424 0.0
C1019 C 0.33587 0.23379 0.83244 0.0
C1020 C 0.31848 0.22166 0.89759 0.0
C1021 C 0.34577 0.23767 0.86383 0.0
C1022 C 0.31963 0.22379 0.96354 0.0
C1023 C 0.28202 0.20589 0.96611 0.0
N1024 N 0.33693 0.23181 0.89521 0.0
N1025 N 0.29093 0.20847 0.93493 0.0
H1026 H 0.74797 0.08504 0.81214 0.0
H1027 H 0.73971 0.08554 0.02071 0.0
H1028 H 0.72019 0.10847 0.86627 0.0
H1029 H 0.76882 0.06346 0.96679 0.0
H1030 H 0.73561 0.09717 0.96507 0.0
H1031 H 0.75882 0.08047 0.86836 0.0
C1032 C 0.74429 0.08942 0.83594 0.0
C1033 C 0.73294 0.09696 0.83454 0.0
C1034 C 0.74305 0.08995 0.96529 0.0
C1035 C 0.74529 0.09156 0.89935 0.0
C1036 C 0.74539 0.08324 0.99711 0.0
C1037 C 0.75444 0.07327 -0.00162 0.0
C1038 C 0.74965 0.0866 0.93415 0.0
C1039 C 0.7617 0.07099 0.96701 0.0
C1040 C 0.75053 0.08679 0.86808 0.0
C1041 C 0.72886 0.10258 0.86615 0.0
N1042 N 0.75894 0.07741 0.93606 0.0
N1043 N 0.73483 0.09953 0.89736 0.0
H1044 H 0.02808 0.44395 0.69563 0.0
H1045 H 0.93269 0.39699 0.79772 0.0
H1046 H 0.976 0.41695 0.64411 0.0
H1047 H -0.01532 0.41965 0.84911 0.0
H1048 H 0.9484 0.40855 0.74117 0.0
H1049 H 0.01254 0.43957 0.75241 0.0
C1050 C 0.01344 0.43738 0.6962 0.0
C1051 C 0.00334 0.43059 0.66522 0.0
C1052 C 0.95634 0.41114 0.76495 0.0
C1053 C -0.01455 0.42544 0.72976 0.0
C1054 C 0.94735 0.40459 0.79718 0.0
C1055 C 0.95736 0.40713 0.82805 0.0
C1056 C 0.97543 0.42031 0.76375 0.0
C1057 C 0.97638 0.41711 0.82587 0.0
C1058 C 0.00455 0.43479 0.72856 0.0
C1059 C -0.01565 0.42215 0.66744 0.0
N1060 N -0.01524 0.42319 0.79435 0.0
N1061 N 0.97605 0.41969 0.69907 0.0
H1062 H 0.5713 0.53107 0.8001 0.0
H1063 H 0.52487 0.57999 0.69756 0.0
H1064 H 0.54883 0.56054 0.85126 0.0
H1065 H 0.55199 0.55506 0.64631 0.0
H1066 H 0.5291 0.56867 0.75439 0.0
H1067 H 0.55995 0.53543 0.74346 0.0
C1068 C 0.56378 0.53821 0.7995 0.0
C1069 C 0.56124 0.54566 0.83033 0.0
C1070 C 0.53394 0.56553 0.73059 0.0
C1071 C 0.54829 0.55078 0.76592 0.0
C1072 C 0.53144 0.57192 0.69819 0.0
C1073 C 0.5383 0.56869 0.66727 0.0
C1074 C 0.54328 0.55579 0.73188 0.0
C1075 C 0.54673 0.55815 0.66959 0.0
C1076 C 0.55736 0.54078 0.76721 0.0
C1077 C 0.55137 0.5548 0.82805 0.0
N1078 N 0.5491 0.55222 0.70125 0.0
N1079 N 0.54541 0.55722 0.79648 0.0
H1080 H 0.43532 0.03314 0.80024 0.0
H1081 H 0.3868 0.93785 0.6976 0.0
H1082 H 0.40497 0.98102 0.85113 0.0
H1083 H 0.41286 -0.00993 0.64624 0.0
H1084 H 0.3975 0.95329 0.7546 0.0
H1085 H 0.43133 0.01749 0.74373 0.0
C1086 C 0.42805 0.01846 0.79961 0.0
C1087 C 0.42027 0.00841 0.83033 0.0
C1088 C 0.40103 0.96133 0.73075 0.0
C1089 C 0.41559 -0.00959 0.76607 0.0
C1090 C 0.39499 0.95249 0.69827 0.0
C1091 C 0.39872 0.96267 0.66724 0.0
C1092 C 0.41092 0.98044 0.73204 0.0
C1093 C 0.4094 0.98166 0.66959 0.0
C1094 C 0.4257 0.00951 0.7674 0.0
C1095 C 0.41097 -0.01064 0.82802 0.0
N1096 N 0.41498 -0.01009 0.70135 0.0
N1097 N 0.40879 0.98102 0.79652 0.0
H1098 H 0.52437 0.93902 0.19739 0.0
H1099 H 0.57135 0.0343 0.30013 0.0
H1100 H 0.55185 -0.00874 0.14618 0.0
H1101 H 0.54877 0.98214 0.35112 0.0
H1102 H 0.55998 0.01871 0.24344 0.0
H1103 H 0.5288 0.9545 0.25425 0.0
C1104 C 0.53107 0.95368 0.19804 0.0
C1105 C 0.53796 0.96384 0.16711 0.0
C1106 C 0.55738 0.01071 0.26717 0.0
C1107 C 0.54317 0.98165 0.23177 0.0
C1108 C 0.56381 0.01963 0.29948 0.0
C1109 C 0.56124 0.00954 0.33028 0.0
C1110 C 0.54825 -0.0084 0.26582 0.0
C1111 C 0.55134 -0.0095 0.32794 0.0
C1112 C 0.53369 0.96254 0.23045 0.0
C1113 C 0.54656 0.98285 0.16945 0.0
N1114 N 0.54535 0.98219 0.29635 0.0
N1115 N 0.54903 -0.00889 0.20114 0.0
H1116 H 0.93141 0.53286 0.29625 0.0
H1117 H 0.02666 0.57927 0.19341 0.0
H1118 H -0.01645 0.55923 0.34753 0.0
H1119 H 0.97473 0.55902 0.14284 0.0
H1120 H 0.01093 0.56759 0.24991 0.0
H1121 H 0.94686 0.53776 0.23922 0.0
C1122 C 0.94604 0.5394 0.29556 0.0
C1123 C 0.9562 0.54586 0.32657 0.0
C1124 C 0.003 0.56559 0.22631 0.0
C1125 C 0.97398 0.55159 0.26175 0.0
C1126 C 0.012 0.57222 0.19411 0.0
C1127 C 0.00204 0.57036 0.16348 0.0
C1128 C -0.01605 0.55697 0.22772 0.0
C1129 C -0.01699 0.56104 0.16588 0.0
C1130 C 0.95489 0.54229 0.26306 0.0
C1131 C 0.97517 0.55427 0.32419 0.0
N1132 N 0.97463 0.55482 0.19736 0.0
N1133 N -0.01658 0.55701 0.29243 0.0
H1134 H 0.38867 0.44475 0.19724 0.0
H1135 H 0.43622 0.39678 0.29907 0.0
H1136 H 0.41284 0.41699 0.1456 0.0
H1137 H 0.40803 0.42051 0.35063 0.0
H1138 H 0.43209 0.40836 0.24249 0.0
H1139 H 0.39995 0.44032 0.25391 0.0
C1140 C 0.39656 0.43799 0.19775 0.0
C1141 C 0.39959 0.43101 0.16677 0.0
C1142 C 0.42698 0.41118 0.26632 0.0
C1143 C 0.41244 0.4258 0.2312 0.0
C1144 C 0.42942 0.40462 0.29857 0.0
C1145 C 0.42224 0.40744 0.32949 0.0
C1146 C 0.41738 0.42066 0.26516 0.0
C1147 C 0.41354 0.41774 0.32734 0.0
C1148 C 0.40294 0.43538 0.23005 0.0
C1149 C 0.40992 0.42234 0.16893 0.0
N1150 N 0.41123 0.42382 0.29581 0.0
N1151 N 0.41582 0.41987 0.20051 0.0
H1152 H 0.3208 0.2047 0.16006 0.0
H1153 H 0.30755 0.10488 0.16953 0.0
H1154 H 0.27057 0.15593 0.13588 0.0
H1155 H 0.35772 0.15358 0.19438 0.0
H1156 H 0.2939 0.12344 0.15588 0.0
H1157 H 0.33453 0.18617 0.17356 0.0
C1158 C 0.31261 0.1901 0.15798 0.0
C1159 C 0.29454 0.18184 0.14679 0.0
C1160 C 0.30792 0.13007 0.16416 0.0
C1161 C 0.31018 0.1606 0.16165 0.0
C1162 C 0.31575 0.11948 0.17173 0.0
C1163 C 0.33377 0.1277 0.18316 0.0
C1164 C 0.31821 0.14899 0.16812 0.0
C1165 C 0.34376 0.14667 0.1857 0.0
C1166 C 0.32047 0.17953 0.16546 0.0
C1167 C 0.28457 0.16286 0.14437 0.0
N1168 N 0.33581 0.15667 0.1784 0.0
N1169 N 0.29255 0.15289 0.15158 0.0
H1170 H 0.7638 0.11024 0.16128 0.0
H1171 H 0.86307 0.19781 0.16723 0.0
H1172 H 0.81262 0.10945 0.135 0.0
H1173 H 0.81423 0.19866 0.19297 0.0
H1174 H 0.84475 0.16544 0.15433 0.0
H1175 H 0.78212 0.14261 0.17412 0.0
C1176 C 0.77838 0.11683 0.15861 0.0
C1177 C 0.7867 0.10717 0.147 0.0
C1178 C 0.83804 0.17274 0.16264 0.0
C1179 C 0.8077 0.14418 0.1611 0.0
C1180 C 0.84848 0.19123 0.16977 0.0
C1181 C 0.84016 0.20091 0.18125 0.0
C1182 C 0.81916 0.1639 0.16709 0.0
C1183 C 0.82121 0.19171 0.18425 0.0
C1184 C 0.78883 0.13533 0.16571 0.0
C1185 C 0.80564 0.11639 0.14383 0.0
N1186 N 0.81136 0.1737 0.17737 0.0
N1187 N 0.81549 0.1344 0.15069 0.0
H1188 H 0.769 0.60915 0.19108 0.0
H1189 H 0.85915 0.69862 0.1302 0.0
H1190 H 0.77132 0.65984 0.16739 0.0
H1191 H 0.85707 0.64823 0.15578 0.0
H1192 H 0.82694 0.68457 0.14327 0.0
H1193 H 0.80099 0.62292 0.17614 0.0
C1194 C 0.7762 0.62314 0.18236 0.0
C1195 C 0.76751 0.6334 0.18057 0.0
C1196 C 0.83352 0.67659 0.14616 0.0
C1197 C 0.8042 0.6493 0.16386 0.0
C1198 C 0.85194 0.68462 0.13885 0.0
C1199 C 0.86079 0.67456 0.14192 0.0
C1200 C 0.82385 0.65834 0.15654 0.0
C1201 C 0.85078 0.65649 0.15317 0.0
C1202 C 0.7945 0.63102 0.17401 0.0
C1203 C 0.7775 0.65144 0.16912 0.0
N1204 N 0.8328 0.64892 0.15997 0.0
N1205 N 0.79536 0.65886 0.16138 0.0
H1206 H 0.14659 0.36583 0.3024 0.0
H1207 H 0.14674 0.27574 0.36047 0.0
H1208 H 0.09804 0.31509 0.32502 0.0
H1209 H 0.19531 0.32651 0.33814 0.0
H1210 H 0.12867 0.2898 0.34664 0.0
H1211 H 0.16468 0.35178 0.31628 0.0
C1212 C 0.13973 0.35176 0.31065 0.0
C1213 C 0.12077 0.34158 0.31251 0.0
C1214 C 0.14327 0.29786 0.34459 0.0
C1215 C 0.1414 0.32537 0.32799 0.0
C1216 C 0.15361 0.28982 0.3523 0.0
C1217 C 0.17257 0.3 0.3505 0.0
C1218 C 0.15195 0.31624 0.33508 0.0
C1219 C 0.18073 0.31817 0.33982 0.0
C1220 C 0.15008 0.34373 0.31839 0.0
C1221 C 0.11262 0.32343 0.3233 0.0
N1222 N 0.17036 0.32574 0.33266 0.0
N1223 N 0.123 0.31587 0.33047 0.0
H1224 H 0.69275 0.86671 0.36017 0.0
H1225 H 0.60312 0.77653 0.30035 0.0
H1226 H 0.64217 0.86458 0.33695 0.0
H1227 H 0.65364 0.7787 0.32435 0.0
H1228 H 0.61707 0.80868 0.31435 0.0
H1229 H 0.67878 0.8346 0.34604 0.0
C1230 C 0.67874 0.85952 0.35175 0.0
C1231 C 0.66858 0.86831 0.34979 0.0
C1232 C 0.62509 0.80212 0.31672 0.0
C1233 C 0.65244 0.83148 0.33401 0.0
C1234 C 0.61711 0.78374 0.30891 0.0
C1235 C 0.62727 0.77495 0.31114 0.0
C1236 C 0.64336 0.8118 0.32676 0.0
C1237 C 0.64533 0.78495 0.32232 0.0
C1238 C 0.67074 0.84115 0.34386 0.0
C1239 C 0.65049 0.85833 0.33876 0.0
N1240 N 0.65283 0.80289 0.32957 0.0
N1241 N 0.64296 0.84039 0.33143 0.0
H1242 H 0.10088 0.77159 0.33505 0.0
H1243 H 0.1884 0.87091 0.32711 0.0
H1244 H 0.10018 0.82053 0.36098 0.0
H1245 H 0.18916 0.82181 0.30306 0.0
H1246 H 0.15603 0.85269 0.33996 0.0
H1247 H 0.13314 0.7899 0.32141 0.0
C1248 C 0.10746 0.78619 0.33745 0.0
C1249 C 0.09787 0.79455 0.34924 0.0
C1250 C 0.16331 0.84591 0.33203 0.0
C1251 C 0.13476 0.81555 0.33425 0.0
C1252 C 0.1818 0.8563 0.32493 0.0
C1253 C 0.19146 0.84786 0.31397 0.0
C1254 C 0.15446 0.82698 0.32806 0.0
C1255 C 0.18223 0.82889 0.31139 0.0
C1256 C 0.12589 0.79664 0.32991 0.0
C1257 C 0.10707 0.81352 0.35204 0.0
N1258 N 0.16423 0.81909 0.31824 0.0
N1259 N 0.12503 0.82337 0.34477 0.0
H1260 H 0.65419 0.87035 0.82736 0.0
H1261 H 0.64221 0.77099 0.83413 0.0
H1262 H 0.60433 0.82141 0.80201 0.0
H1263 H 0.69201 0.81992 0.85981 0.0
H1264 H 0.6282 0.78931 0.82114 0.0
H1265 H 0.6682 0.85203 0.84035 0.0
C1266 C 0.64614 0.85574 0.82493 0.0
C1267 C 0.6281 0.84739 0.81354 0.0
C1268 C 0.64223 0.79604 0.82945 0.0
C1269 C 0.64406 0.82639 0.8278 0.0
C1270 C 0.65025 0.7856 0.83663 0.0
C1271 C 0.66828 0.79395 0.84812 0.0
C1272 C 0.65231 0.81494 0.83385 0.0
C1273 C 0.67806 0.81291 0.85108 0.0
C1274 C 0.65416 0.8453 0.83211 0.0
C1275 C 0.6183 0.82842 0.81067 0.0
N1276 N 0.66992 0.82276 0.84414 0.0
N1277 N 0.62644 0.81857 0.81759 0.0
H1278 H 0.09725 0.77509 0.82796 0.0
H1279 H 0.19584 0.86349 0.83701 0.0
H1280 H 0.14657 0.77536 0.80137 0.0
H1281 H 0.14644 0.86331 0.8624 0.0
H1282 H 0.178 0.83115 0.82355 0.0
H1283 H 0.11516 0.80729 0.84247 0.0
C1284 C 0.11186 0.78187 0.82559 0.0
C1285 C 0.12044 0.77257 0.81336 0.0
C1286 C 0.17106 0.83821 0.83192 0.0
C1287 C 0.14097 0.8094 0.82936 0.0
C1288 C 0.18123 0.85669 0.83938 0.0
C1289 C 0.1726 0.86608 0.85085 0.0
C1290 C 0.15216 0.82909 0.83604 0.0
C1291 C 0.15365 0.85659 0.85365 0.0
C1292 C 0.12207 0.80027 0.83365 0.0
C1293 C 0.13939 0.78202 0.81064 0.0
N1294 N 0.14407 0.8386 0.84643 0.0
N1295 N 0.14901 0.79995 0.8184 0.0
H1296 H 0.10086 0.27562 0.86009 0.0
H1297 H 0.19194 0.36536 0.80398 0.0
H1298 H 0.10377 0.32675 0.83832 0.0
H1299 H 0.18908 0.31438 0.82715 0.0
H1300 H 0.15976 0.35159 0.81727 0.0
H1301 H 0.13306 0.28948 0.84706 0.0
C1302 C 0.10825 0.28974 0.85221 0.0
C1303 C 0.09964 0.30008 0.85034 0.0
C1304 C 0.16618 0.34343 0.81964 0.0
C1305 C 0.13657 0.31608 0.83583 0.0
C1306 C 0.18458 0.35131 0.81223 0.0
C1307 C 0.19318 0.34097 0.8144 0.0
C1308 C 0.15629 0.32507 0.82919 0.0
C1309 C 0.18298 0.32284 0.82519 0.0
C1310 C 0.12666 0.29767 0.84496 0.0
C1311 C 0.10987 0.31829 0.84004 0.0
N1312 N 0.16502 0.31543 0.83202 0.0
N1313 N 0.12784 0.32575 0.83331 0.0
H1314 H 0.81384 0.60875 0.69674 0.0
H1315 H 0.81328 0.69861 0.63862 0.0
H1316 H 0.86215 0.65932 0.67199 0.0
H1317 H 0.76476 0.64773 0.66056 0.0
H1318 H 0.83142 0.68466 0.65269 0.0
H1319 H 0.79562 0.62276 0.68372 0.0
C1320 C 0.82061 0.62277 0.68823 0.0
C1321 C 0.83955 0.63291 0.68546 0.0
C1322 C 0.81681 0.67655 0.65461 0.0
C1323 C 0.81877 0.64908 0.67095 0.0
C1324 C 0.80644 0.68453 0.64677 0.0
C1325 C 0.78747 0.67428 0.64833 0.0
C1326 C 0.80817 0.65816 0.66404 0.0
C1327 C 0.77935 0.65612 0.65905 0.0
C1328 C 0.8102 0.63078 0.68097 0.0
C1329 C 0.84759 0.65101 0.67439 0.0
N1330 N 0.78976 0.6486 0.66632 0.0
N1331 N 0.83715 0.65854 0.66768 0.0
H1332 H 0.3578 0.19827 0.69262 0.0
H1333 H 0.26803 0.10762 0.6352 0.0
H1334 H 0.30701 0.19581 0.67001 0.0
H1335 H 0.31874 0.11004 0.65852 0.0
H1336 H 0.28197 0.13982 0.6486 0.0
H1337 H 0.34386 0.16609 0.67913 0.0
C1338 C 0.34375 0.19099 0.68446 0.0
C1339 C 0.33352 0.19971 0.6825 0.0
C1340 C 0.29003 0.13331 0.65096 0.0
C1341 C 0.31742 0.1628 0.66746 0.0
C1342 C 0.28206 0.11489 0.6435 0.0
C1343 C 0.29226 0.10615 0.6457 0.0
C1344 C 0.30836 0.14308 0.66063 0.0
C1345 C 0.31038 0.11624 0.65654 0.0
C1346 C 0.33577 0.17258 0.67694 0.0
C1347 C 0.31539 0.18961 0.67182 0.0
N1348 N 0.31788 0.13422 0.66344 0.0
N1349 N 0.30788 0.17164 0.66485 0.0
H1350 H 0.85638 0.2043 0.65876 0.0
H1351 H 0.76918 0.10486 0.6693 0.0
H1352 H 0.85711 0.15524 0.63406 0.0
H1353 H 0.76845 0.1538 0.69516 0.0
H1354 H 0.80134 0.1232 0.65493 0.0
H1355 H 0.82416 0.18602 0.67285 0.0
C1356 C 0.84981 0.18968 0.65668 0.0
C1357 C 0.85941 0.18128 0.64518 0.0
C1358 C 0.79411 0.12993 0.66359 0.0
C1359 C 0.82257 0.16032 0.66073 0.0
C1360 C 0.77574 0.11947 0.67157 0.0
C1361 C 0.76616 0.12782 0.68349 0.0
C1362 C 0.80295 0.14885 0.66763 0.0
C1363 C 0.77533 0.14679 0.6861 0.0
C1364 C 0.8314 0.17926 0.6645 0.0
C1365 C 0.85022 0.16229 0.64278 0.0
N1366 N 0.79324 0.15667 0.67839 0.0
N1367 N 0.83229 0.15246 0.65034 0.0
H1368 H 0.97409 0.43824 0.50034 0.0
H1369 H -0.01361 0.53767 0.4901 0.0
H1370 H 0.02397 0.48722 0.52536 0.0
H1371 H 0.93649 0.48862 0.46557 0.0
H1372 H 0.00037 0.5194 0.50384 0.0
H1373 H 0.96022 0.45656 0.48623 0.0
C1374 C -0.01782 0.45285 0.50248 0.0
C1375 C 0.00018 0.46122 0.51409 0.0
C1376 C -0.01367 0.51263 0.49559 0.0
C1377 C -0.01563 0.48223 0.49852 0.0
C1378 C 0.97832 0.52306 0.48797 0.0
C1379 C 0.96027 0.51465 0.47663 0.0
C1380 C 0.9762 0.4937 0.49179 0.0
C1381 C 0.95046 0.49567 0.47417 0.0
C1382 C 0.97423 0.4633 0.49464 0.0
C1383 C 0.01002 0.4802 0.51654 0.0
N1384 N 0.95858 0.48584 0.48155 0.0
N1385 N 0.00196 0.49006 0.50898 0.0
H1386 H 0.5303 0.53091 0.50425 0.0
H1387 H 0.43047 0.44437 0.49362 0.0
H1388 H 0.4816 0.5324 0.52812 0.0
H1389 H 0.47912 0.44291 0.46909 0.0
H1390 H 0.44905 0.47658 0.50767 0.0
H1391 H 0.51174 0.49865 0.49057 0.0
C1392 C 0.5157 0.5245 0.50624 0.0
C1393 C 0.50748 0.53432 0.51738 0.0
C1394 C 0.45566 0.46918 0.49937 0.0
C1395 C 0.4862 0.49744 0.50229 0.0
C1396 C 0.44506 0.45077 0.49158 0.0
C1397 C 0.45326 0.44098 0.48011 0.0
C1398 C 0.47457 0.47781 0.49561 0.0
C1399 C 0.47222 0.44996 0.47778 0.0
C1400 C 0.50512 0.50607 0.49865 0.0
C1401 C 0.48851 0.52533 0.51967 0.0
N1402 N 0.48223 0.46789 0.4853 0.0
N1403 N 0.47852 0.50738 0.51234 0.0
H1404 H 0.5235 0.97981 0.49351 0.0
H1405 H 0.43633 -0.00814 0.50202 0.0
H1406 H 0.52443 0.02973 0.46884 0.0
H1407 H 0.4354 0.94211 0.52848 0.0
H1408 H 0.46855 0.00576 0.48826 0.0
H1409 H 0.49121 0.96573 0.50694 0.0
C1410 C 0.51696 -0.01215 0.4913 0.0
C1411 C 0.52664 0.00594 0.48001 0.0
C1412 C 0.46127 -0.00823 0.49692 0.0
C1413 C 0.48972 -0.01009 0.49479 0.0
C1414 C 0.44286 0.9838 0.50455 0.0
C1415 C 0.4332 0.96583 0.51647 0.0
C1416 C 0.47006 0.98168 0.50129 0.0
C1417 C 0.44234 0.95603 0.51942 0.0
C1418 C 0.49851 0.97979 0.49874 0.0
C1419 C 0.51748 0.01573 0.47742 0.0
N1420 N 0.46028 0.96411 0.51203 0.0
N1421 N 0.49952 0.00756 0.4846 0.0
H1422 H 0.42949 0.97965 0.99383 0.0
H1423 H 0.52929 -0.0069 0.00297 0.0
H1424 H 0.47809 0.02983 0.96833 0.0
H1425 H 0.48067 0.94284 0.02796 0.0
H1426 H 0.5107 0.00671 0.98917 0.0
H1427 H 0.44808 0.96601 0.00744 0.0
C1428 C 0.44407 -0.01215 0.99147 0.0
C1429 C 0.45226 0.00588 0.97989 0.0
C1430 C 0.5041 -0.00733 0.99752 0.0
C1431 C 0.47357 -0.00966 0.99489 0.0
C1432 C 0.5147 0.98488 0.00517 0.0
C1433 C 0.50651 0.96684 0.01668 0.0
C1434 C 0.4852 0.98235 0.00147 0.0
C1435 C 0.48756 0.95682 0.01922 0.0
C1436 C 0.45467 0.98004 -0.00099 0.0
C1437 C 0.47121 0.01586 0.97713 0.0
N1438 N 0.47755 0.96473 0.01184 0.0
N1439 N 0.48121 0.00794 0.98443 0.0
H1440 H 0.97268 0.53027 0.00213 0.0
H1441 H -0.01431 0.4436 0.99339 0.0
H1442 H 0.0225 0.53157 0.02901 0.0
H1443 H 0.93564 0.4422 0.96827 0.0
H1444 H -0.00071 0.47575 0.00792 0.0
H1445 H 0.9589 0.49795 0.98908 0.0
C1446 C -0.01924 0.52379 0.00496 0.0
C1447 C -0.00126 0.53359 0.01667 0.0
C1448 C -0.0147 0.46837 -0.00058 0.0
C1449 C -0.01695 0.49664 0.00226 0.0
C1450 C 0.97751 0.45 0.99133 0.0
C1451 C 0.95955 0.44025 0.97952 0.0
C1452 C 0.97503 0.47701 0.99556 0.0
C1453 C 0.94957 0.44922 0.97719 0.0
C1454 C 0.97287 0.50533 0.99773 0.0
C1455 C 0.00858 0.52452 0.02005 0.0
N1456 N 0.95748 0.46712 0.98496 0.0
N1457 N 0.00059 0.50654 0.01298 0.0
H1458 H 0.43491 0.48812 0.02571 0.0
H1459 H 0.52522 0.48804 0.97061 0.0
H1460 H 0.43698 0.43944 0.00449 0.0
H1461 H 0.52319 0.53675 0.99159 0.0
H1462 H 0.493 0.47002 0.98376 0.0
H1463 H 0.46711 0.50618 0.01225 0.0
C1464 C 0.44211 0.48123 0.01785 0.0
C1465 C 0.43327 0.46224 0.01628 0.0
C1466 C 0.4996 0.48464 0.98567 0.0
C1467 C 0.4702 0.48284 0.0013 0.0
C1468 C 0.51803 0.49495 0.97835 0.0
C1469 C 0.52689 0.51394 0.97997 0.0
C1470 C 0.48992 0.49337 0.9946 0.0
C1471 C 0.51689 0.52215 0.99008 0.0
C1472 C 0.46052 0.49156 0.01035 0.0
C1473 C 0.44326 0.45405 0.00598 0.0
N1474 N 0.49889 0.5118 0.99687 0.0
N1475 N 0.46124 0.46441 -0.00095 0.0
H1476 H 0.43931 0.06486 0.03629 0.0
H1477 H 0.39214 0.11398 0.1266 0.0
H1478 H 0.42066 0.09572 0.97745 0.0
H1479 H 0.42265 0.0949 0.18526 0.0
H1480 H 0.40468 0.10984 0.07195 0.0
H1481 H 0.43576 0.07793 0.0908 0.0
C1482 C 0.43476 0.07465 0.03477 0.0
C1483 C 0.43014 0.07908 0.00219 0.0
C1484 C 0.40891 0.10684 0.09676 0.0
C1485 C 0.4257 0.09388 0.06482 0.0
C1486 C 0.40175 0.10922 0.12804 0.0
C1487 C 0.40623 0.10465 0.16062 0.0
C1488 C 0.42042 0.09951 0.09784 0.0
C1489 C 0.4188 0.0986 0.1608 0.0
C1490 C 0.43273 0.08211 0.06598 0.0
C1491 C 0.42439 0.0919 0.00192 0.0
N1492 N 0.4252 0.0959 0.12987 0.0
N1493 N 0.42202 0.09859 0.03278 0.0
H1494 H 0.87146 0.32261 0.18467 0.0
H1495 H 0.86952 0.31907 0.97344 0.0
H1496 H 0.85392 0.27372 0.12445 0.0
H1497 H 0.90093 0.36793 0.03376 0.0
H1498 H 0.85676 0.30238 0.02853 0.0
H1499 H 0.87526 0.33925 0.12958 0.0
C1500 C 0.86801 0.31528 0.15997 0.0
C1501 C 0.86255 0.29677 0.1592 0.0
C1502 C 0.86622 0.31682 0.02962 0.0
C1503 C 0.86695 0.31574 0.09606 0.0
C1504 C 0.87341 0.32638 -0.00184 0.0
C1505 C 0.88646 0.3449 -0.00103 0.0
C1506 C 0.87199 0.32588 0.06209 0.0
C1507 C 0.89106 0.35363 0.03187 0.0
C1508 C 0.8703 0.32481 0.12851 0.0
C1509 C 0.85835 0.28802 0.12632 0.0
N1510 N 0.88396 0.34404 0.06205 0.0
N1511 N 0.86078 0.29759 0.09612 0.0
H1512 H 0.64813 0.54495 0.97756 0.0
H1513 H 0.64533 0.54521 0.18884 0.0
H1514 H 0.59965 0.52888 0.03814 0.0
H1515 H 0.69411 0.57534 0.12761 0.0
H1516 H 0.62837 0.53229 0.13415 0.0
H1517 H 0.66487 0.54918 0.03262 0.0
C1518 C 0.64091 0.54191 0.00235 0.0
C1519 C 0.62248 0.53672 0.0032 0.0
C1520 C 0.64284 0.54152 0.13278 0.0
C1521 C 0.64159 0.54162 0.06631 0.0
C1522 C 0.65255 0.5488 0.16402 0.0
C1523 C 0.67115 0.56153 0.16283 0.0
C1524 C 0.65181 0.54685 0.10015 0.0
C1525 C 0.67976 0.56573 0.1298 0.0
C1526 C 0.6505 0.54445 0.03379 0.0
C1527 C 0.61388 0.53308 0.0362 0.0
N1528 N 0.67002 0.55854 0.09983 0.0
N1529 N 0.62351 0.53572 0.06637 0.0
H1530 H 0.08837 0.43098 0.30791 0.0
H1531 H 0.08996 0.42933 0.51921 0.0
H1532 H 0.10579 0.39965 0.3687 0.0
H1533 H 0.0587 0.4468 0.45842 0.0
H1534 H 0.10264 0.42528 0.46428 0.0
H1535 H 0.08432 0.44366 0.36283 0.0
C1536 C 0.09174 0.42708 0.3327 0.0
C1537 C 0.09726 0.41408 0.33367 0.0
C1538 C 0.09322 0.43027 0.46305 0.0
C1539 C 0.09257 0.42848 0.39662 0.0
C1540 C 0.08607 0.43271 0.49442 0.0
C1541 C 0.0731 0.43825 0.49345 0.0
C1542 C 0.0875 0.43356 0.43049 0.0
C1543 C 0.06851 0.44233 0.46045 0.0
C1544 C 0.08931 0.43422 0.36406 0.0
C1545 C 0.10133 0.40948 0.36667 0.0
N1546 N 0.07558 0.43978 0.43035 0.0
N1547 N 0.09878 0.41655 0.39677 0.0
H1548 H 0.52141 0.60616 0.45898 0.0
H1549 H 0.56907 0.70251 0.3673 0.0
H1550 H 0.53947 0.6558 0.51685 0.0
H1551 H 0.53916 0.65269 0.30905 0.0
H1552 H 0.55625 0.68583 0.42199 0.0
H1553 H 0.52547 0.62271 0.40401 0.0
C1554 C 0.52594 0.62051 0.46018 0.0
C1555 C 0.53024 0.62962 0.49265 0.0
C1556 C 0.55222 0.67855 0.39725 0.0
C1557 C 0.53526 0.64878 0.42949 0.0
C1558 C 0.55955 0.68808 0.36594 0.0
C1559 C 0.5553 0.67897 0.33347 0.0
C1560 C 0.54078 0.65966 0.39632 0.0
C1561 C 0.54282 0.66028 0.33342 0.0
C1562 C 0.52826 0.62996 0.42871 0.0
C1563 C 0.53598 0.64821 0.49249 0.0
N1564 N 0.53625 0.6512 0.36438 0.0
N1565 N 0.53863 0.65723 0.4614 0.0
H1566 H 0.36016 0.90673 0.4608 0.0
H1567 H 0.26346 0.86059 0.37152 0.0
H1568 H 0.31063 0.87722 0.52009 0.0
H1569 H 0.31256 0.87795 0.31226 0.0
H1570 H 0.28021 0.8642 0.42596 0.0
H1571 H 0.34313 0.89412 0.40641 0.0
C1572 C 0.34573 0.89733 0.46245 0.0
C1573 C 0.3368 0.89315 0.49512 0.0
C1574 C 0.2873 0.86693 0.40107 0.0
C1575 C 0.3171 0.8789 0.43264 0.0
C1576 C 0.27773 0.86487 0.3699 0.0
C1577 C 0.28664 0.86911 0.33721 0.0
C1578 C 0.30604 0.87362 0.39975 0.0
C1579 C 0.30513 0.87453 0.33681 0.0
C1580 C 0.336 0.89013 0.43131 0.0
C1581 C 0.31809 0.88083 0.49556 0.0
N1582 N 0.31428 0.87693 0.36762 0.0
N1583 N 0.30882 0.8744 0.46477 0.0
H1584 H 0.56908 0.86061 0.8702 0.0
H1585 H 0.52061 0.90863 0.95985 0.0
H1586 H 0.53849 0.87942 0.81101 0.0
H1587 H 0.53916 0.87775 0.01889 0.0
H1588 H 0.52476 0.89599 0.90531 0.0
H1589 H 0.55619 0.86449 0.92464 0.0
C1590 C 0.5594 0.86526 0.86859 0.0
C1591 C 0.55498 0.86982 0.83592 0.0
C1592 C 0.52764 0.89171 0.93018 0.0
C1593 C 0.54038 0.87465 0.89847 0.0
C1594 C 0.52526 0.89893 0.9614 0.0
C1595 C 0.52967 0.89436 0.99406 0.0
C1596 C 0.5348 0.88006 0.93141 0.0
C1597 C 0.53558 0.88166 0.99436 0.0
C1598 C 0.55203 0.86748 0.89976 0.0
C1599 C 0.54229 0.87573 0.83554 0.0
N1600 N 0.53828 0.87521 0.9635 0.0
N1601 N 0.53569 0.87827 0.86636 0.0
H1602 H 0.09234 0.65246 0.01275 0.0
H1603 H 0.08653 0.65 0.80176 0.0
H1604 H 0.05543 0.60519 0.95295 0.0
H1605 H 0.10862 0.69907 0.86314 0.0
H1606 H 0.0821 0.63271 0.85623 0.0
H1607 H 0.10526 0.66874 0.95737 0.0
C1608 C 0.08724 0.64537 0.98804 0.0
C1609 C 0.07265 0.62748 0.98751 0.0
C1610 C 0.08821 0.64731 0.85765 0.0
C1611 C 0.08735 0.64604 0.92409 0.0
C1612 C 0.09088 0.6572 0.82654 0.0
C1613 C 0.0978 0.676 0.8279 0.0
C1614 C 0.09269 0.6563 0.89029 0.0
C1615 C 0.10307 0.68458 0.86087 0.0
C1616 C 0.09454 0.6547 0.95643 0.0
C1617 C 0.06654 0.61902 0.95462 0.0
N1618 N 0.10028 0.67467 0.89072 0.0
N1619 N 0.07381 0.62839 0.92429 0.0
H1620 H 0.31466 0.43046 0.8092 0.0
H1621 H 0.31157 0.42981 0.02046 0.0
H1622 H 0.26604 0.39902 0.87016 0.0
H1623 H 0.36035 0.44739 0.95991 0.0
H1624 H 0.29477 0.42544 0.96542 0.0
H1625 H 0.3314 0.44361 0.86401 0.0
C1626 C 0.30741 0.42663 0.83399 0.0
C1627 C 0.28895 0.41346 0.83507 0.0
C1628 C 0.30921 0.43054 0.96426 0.0
C1629 C 0.30803 0.4284 0.89788 0.0
C1630 C 0.31884 0.43316 0.99569 0.0
C1631 C 0.33737 0.4388 0.99483 0.0
C1632 C 0.31821 0.43374 0.93174 0.0
C1633 C 0.34603 0.44283 0.96186 0.0
C1634 C 0.317 0.43405 0.86529 0.0
C1635 C 0.2803 0.40897 0.86806 0.0
N1636 N 0.33638 0.4401 0.93169 0.0
N1637 N 0.28991 0.4163 0.89809 0.0
H1638 H 0.85318 0.57461 0.6267 0.0
H1639 H 0.90126 0.52694 0.53426 0.0
H1640 H 0.87247 0.54398 0.68441 0.0
H1641 H 0.87002 0.54553 0.47667 0.0
H1642 H 0.88867 0.53066 0.58927 0.0
H1643 H 0.85683 0.5619 0.5718 0.0
C1644 C 0.85788 0.56494 0.62789 0.0
C1645 C 0.86266 0.56047 0.66027 0.0
C1646 C 0.8843 0.53363 0.56461 0.0
C1647 C 0.86722 0.54609 0.59719 0.0
C1648 C 0.89149 0.53151 0.53313 0.0
C1649 C 0.88681 0.53606 0.50074 0.0
C1650 C 0.87256 0.5407 0.56393 0.0
C1651 C 0.87402 0.54185 0.50097 0.0
C1652 C 0.85997 0.55768 0.59646 0.0
C1653 C 0.86862 0.54782 0.66012 0.0
N1654 N 0.8676 0.54431 0.53208 0.0
N1655 N 0.87104 0.54133 0.62904 0.0
H1656 H 0.39157 0.27213 0.62578 0.0
H1657 H 0.43986 0.36881 0.53556 0.0
H1658 H 0.42228 0.32166 0.68454 0.0
H1659 H 0.42081 0.3193 0.47671 0.0
H1660 H 0.43596 0.35199 0.5901 0.0
H1661 H 0.40435 0.28893 0.57118 0.0
C1662 C 0.40126 0.28651 0.62726 0.0
C1663 C 0.40574 0.29551 0.65985 0.0
C1664 C 0.43292 0.34482 0.56527 0.0
C1665 C 0.42021 0.31496 0.59713 0.0
C1666 C 0.43515 0.35443 0.53405 0.0
C1667 C 0.43052 0.34543 0.50145 0.0
C1668 C 0.42567 0.32597 0.56412 0.0
C1669 C 0.42455 0.3268 0.50119 0.0
C1670 C 0.40856 0.29611 0.596 0.0
C1671 C 0.41843 0.31415 0.66007 0.0
N1672 N 0.42199 0.31763 0.53206 0.0
N1673 N 0.42497 0.32331 0.62917 0.0
H1674 H 0.64768 0.09737 0.47769 0.0
H1675 H 0.64413 0.09469 0.68896 0.0
H1676 H 0.59904 0.06472 0.53786 0.0
H1677 H 0.69314 0.11353 0.62855 0.0
H1678 H 0.62736 0.09048 0.63393 0.0
H1679 H 0.6642 0.11013 0.53286 0.0
C1680 C 0.64038 0.09318 0.5024 0.0
C1681 C 0.62198 0.07981 0.50312 0.0
C1682 C 0.64184 0.09582 0.63281 0.0
C1683 C 0.64082 0.09429 0.56635 0.0
C1684 C 0.65145 0.09835 0.66424 0.0
C1685 C 0.67005 0.10431 0.66339 0.0
C1686 C 0.65093 0.09944 0.60032 0.0
C1687 C 0.67878 0.10872 0.63047 0.0
C1688 C 0.64984 0.10038 0.5339 0.0
C1689 C 0.61326 0.07485 0.53602 0.0
N1690 N 0.66914 0.10608 0.60031 0.0
N1691 N 0.62276 0.08197 0.56626 0.0
H1692 H 0.75692 0.76454 0.6415 0.0
H1693 H 0.75875 0.76322 0.85276 0.0
H1694 H 0.77389 0.73292 0.70254 0.0
H1695 H 0.7275 0.78069 0.79193 0.0
H1696 H 0.77149 0.75922 0.79786 0.0
H1697 H 0.75325 0.77758 0.69632 0.0
C1698 C 0.76028 0.76065 0.66631 0.0
C1699 C 0.76554 0.74747 0.66742 0.0
C1700 C 0.76207 0.76422 0.79662 0.0
C1701 C 0.7613 0.76227 0.73022 0.0
C1702 C 0.7549 0.76664 0.82797 0.0
C1703 C 0.74189 0.77212 0.82697 0.0
C1704 C 0.75633 0.76748 0.76405 0.0
C1705 C 0.73734 0.77624 0.79397 0.0
C1706 C 0.75807 0.76801 0.69762 0.0
C1707 C 0.76961 0.74289 0.70043 0.0
N1708 N 0.74442 0.7737 0.76388 0.0
N1709 N 0.76728 0.75016 0.73046 0.0
H1710 H 0.20287 0.98421 0.64172 0.0
H1711 H 0.20377 -0.01197 0.8529 0.0
H1712 H 0.23394 0.03316 0.70195 0.0
H1713 H 0.18615 0.93899 0.79315 0.0
H1714 H 0.20797 0.00463 0.79761 0.0
H1715 H 0.18986 0.96759 0.69675 0.0
C1716 C 0.20665 -0.00845 0.66639 0.0
C1717 C 0.21966 0.01008 0.6672 0.0
C1718 C 0.20291 -0.00982 0.79668 0.0
C1719 C 0.2049 -0.00887 0.73028 0.0
C1720 C 0.20038 0.98066 0.82826 0.0
C1721 C 0.19478 0.96212 0.8277 0.0
C1722 C 0.19966 0.98105 0.76431 0.0
C1723 C 0.19069 0.95332 0.79487 0.0
C1724 C 0.19931 0.98203 0.69783 0.0
C1725 C 0.22411 0.01885 0.70006 0.0
N1726 N 0.19334 0.96287 0.76455 0.0
N1727 N 0.21687 0.0093 0.73023 0.0
H1728 H 0.93138 0.19401 0.7014 0.0
H1729 H 0.02768 0.24226 0.79231 0.0
H1730 H -0.01902 0.21307 0.6429 0.0
H1731 H 0.97814 0.21099 0.85073 0.0
H1732 H 0.01104 0.22963 0.73757 0.0
H1733 H 0.94804 0.19781 0.75607 0.0
C1734 C 0.94574 0.1987 0.69999 0.0
C1735 C 0.95481 0.20336 0.66745 0.0
C1736 C 0.00383 0.22526 0.76234 0.0
C1737 C 0.97409 0.2081 0.73026 0.0
C1738 C 0.01333 0.23247 0.79368 0.0
C1739 C 0.00428 0.22779 0.82622 0.0
C1740 C -0.01499 0.21349 0.76333 0.0
C1741 C -0.01431 0.21499 0.8263 0.0
C1742 C 0.95526 0.20088 0.73128 0.0
C1743 C 0.97342 0.20931 0.66732 0.0
N1744 N 0.97661 0.20854 0.79532 0.0
N1745 N -0.0175 0.21181 0.69826 0.0
H1746 H 0.23587 0.19478 0.20364 0.0
H1747 H 0.18654 0.24172 0.29403 0.0
H1748 H 0.20454 0.21286 0.14488 0.0
H1749 H 0.20587 0.2114 0.35273 0.0
H1750 H 0.19071 0.22915 0.23941 0.0
H1751 H 0.22294 0.19843 0.25824 0.0
C1752 C 0.22602 0.19923 0.20216 0.0
C1753 C 0.2214 0.20365 0.16957 0.0
C1754 C 0.19375 0.22498 0.26422 0.0
C1755 C 0.20675 0.20821 0.2323 0.0
C1756 C 0.19137 0.23215 0.29549 0.0
C1757 C 0.19599 0.22772 0.32808 0.0
C1758 C 0.20114 0.21351 0.26532 0.0
C1759 C 0.20212 0.2152 0.32827 0.0
C1760 C 0.21863 0.20131 0.23342 0.0
C1761 C 0.2085 0.20928 0.16935 0.0
N1762 N 0.20482 0.20879 0.29736 0.0
N1763 N 0.20187 0.21171 0.20026 0.0
H1764 H 0.75638 0.98599 0.14345 0.0
H1765 H 0.75838 -0.01033 0.35465 0.0
H1766 H 0.77373 0.03485 0.20363 0.0
H1767 H 0.72717 0.94072 0.29448 0.0
H1768 H 0.77115 0.00633 0.29954 0.0
H1769 H 0.75277 0.9694 0.19855 0.0
C1770 C 0.75984 -0.00668 0.16813 0.0
C1771 C 0.76518 0.01181 0.16891 0.0
C1772 C 0.76173 -0.00812 0.29849 0.0
C1773 C 0.76099 -0.0071 0.23205 0.0
C1774 C 0.75454 0.98234 0.32997 0.0
C1775 C 0.74153 0.9638 0.3292 0.0
C1776 C 0.75601 0.98279 0.26604 0.0
C1777 C 0.737 0.95504 0.29633 0.0
C1778 C 0.75766 0.98382 0.19961 0.0
C1779 C 0.76938 0.02057 0.20177 0.0
N1780 N 0.74409 0.96461 0.26613 0.0
N1781 N 0.76706 0.01103 0.23197 0.0
H1782 H 0.97597 0.76144 0.35851 0.0
H1783 H 0.97952 0.76775 0.14755 0.0
H1784 H 0.02522 0.78298 0.29786 0.0
H1785 H 0.93189 0.73088 0.20657 0.0
H1786 H -0.00447 0.78047 0.2032 0.0
H1787 H 0.95902 0.75738 0.30374 0.0
C1788 C -0.01671 0.76575 0.33382 0.0
C1789 C 0.00202 0.7724 0.33274 0.0
C1790 C -0.01852 0.7698 0.2039 0.0
C1791 C -0.01728 0.76772 0.27005 0.0
C1792 C 0.97229 0.76262 0.17214 0.0
C1793 C 0.95439 0.74809 0.17238 0.0
C1794 C 0.97264 0.76256 0.2361 0.0
C1795 C 0.94575 0.74193 0.20513 0.0
C1796 C 0.97359 0.7633 0.30255 0.0
C1797 C 0.01076 0.77763 0.2999 0.0
N1798 N 0.95497 0.74909 0.23562 0.0
N1799 N 0.00104 0.77506 0.2699 0.0
loop_
_geom_bond_atom_site_label_1
_geom_bond_atom_site_label_2
_geom_bond_distance
_geom_bond_site_symmetry_2
_ccdc_geom_bond_type
C0 O1 1.306 . S
C0 O3 1.160 . S
O1 C0 1.306 . S
O1 Cd2 2.228 . S
Cd2 O1 2.228 . S
Cd2 O6 2.273 . S
Cd2 O10 2.277 . S
O3 C0 1.160 . S
O3 Cd4 2.203 . S
Cd4 O3 2.203 . S
Cd4 O6 2.411 . S
Cd4 O7 2.333 . S
Cd4 O8 2.352 . S
Cd4 O12 2.277 . S
Cd4 O13 2.356 . S
C5 O10 1.209 . S
C5 O12 1.226 . S
O6 Cd2 2.273 . S
O6 Cd4 2.411 . S
O6 C9 1.320 . S
O7 Cd4 2.333 . S
O7 C9 1.214 . S
O8 Cd4 2.352 . S
O8 C11 1.258 . S
C9 O6 1.320 . S
C9 O7 1.214 . S
O10 Cd2 2.277 . S
O10 C5 1.209 . S
C11 O8 1.258 . S
C11 O13 1.282 . S
O12 Cd4 2.277 . S
O12 C5 1.226 . S
O13 Cd4 2.356 . S
O13 C11 1.282 . S
C14 O15 1.306 . S
C14 O17 1.160 . S
O15 C14 1.306 . S
O15 Cd16 2.228 . S
Cd16 O15 2.228 . S
Cd16 O20 2.273 . S
Cd16 O24 2.277 . S
O17 C14 1.160 . S
O17 Cd18 2.203 . S
Cd18 O17 2.203 . S
Cd18 O20 2.411 . S
Cd18 O21 2.333 . S
Cd18 O22 2.352 . S
Cd18 O26 2.277 . S
Cd18 O27 2.356 . S
C19 O24 1.209 . S
C19 O26 1.226 . S
O20 Cd16 2.273 . S
O20 Cd18 2.411 . S
O20 C23 1.320 . S
O21 Cd18 2.333 . S
O21 C23 1.214 . S
O22 Cd18 2.352 . S
O22 C25 1.258 . S
C23 O20 1.320 . S
C23 O21 1.214 . S
O24 Cd16 2.277 . S
O24 C19 1.209 . S
C25 O22 1.258 . S
C25 O27 1.282 . S
O26 Cd18 2.277 . S
O26 C19 1.226 . S
O27 Cd18 2.356 . S
O27 C25 1.282 . S
C28 O29 1.306 . S
C28 O31 1.160 . S
O29 C28 1.306 . S
O29 Cd30 2.228 . S
Cd30 O29 2.228 . S
Cd30 O34 2.273 . S
Cd30 O38 2.277 . S
O31 C28 1.160 . S
O31 Cd32 2.203 . S
Cd32 O31 2.203 . S
Cd32 O34 2.411 . S
Cd32 O35 2.333 . S
Cd32 O36 2.352 . S
Cd32 O40 2.277 . S
Cd32 O41 2.356 . S
C33 O38 1.209 . S
C33 O40 1.226 . S
O34 Cd30 2.273 . S
O34 Cd32 2.411 . S
O34 C37 1.320 . S
O35 Cd32 2.333 . S
O35 C37 1.214 . S
O36 Cd32 2.352 . S
O36 C39 1.258 . S
C37 O34 1.320 . S
C37 O35 1.214 . S
O38 Cd30 2.277 . S
O38 C33 1.209 . S
C39 O36 1.258 . S
C39 O41 1.282 . S
O40 Cd32 2.277 . S
O40 C33 1.226 . S
O41 Cd32 2.356 . S
O41 C39 1.282 . S
C42 O43 1.306 . S
C42 O45 1.160 . S
O43 C42 1.306 . S
O43 Cd44 2.228 . S
Cd44 O43 2.228 . S
Cd44 O48 2.273 . S
Cd44 O52 2.277 . S
O45 C42 1.160 . S
O45 Cd46 2.203 . S
Cd46 O45 2.203 . S
Cd46 O48 2.411 . S
Cd46 O49 2.333 . S
Cd46 O50 2.352 . S
Cd46 O54 2.277 . S
Cd46 O55 2.356 . S
C47 O52 1.209 . S
C47 O54 1.226 . S
O48 Cd44 2.273 . S
O48 Cd46 2.411 . S
O48 C51 1.320 . S
O49 Cd46 2.333 . S
O49 C51 1.214 . S
O50 Cd46 2.352 . S
O50 C53 1.258 . S
C51 O48 1.320 . S
C51 O49 1.214 . S
O52 Cd44 2.277 . S
O52 C47 1.209 . S
C53 O50 1.258 . S
C53 O55 1.282 . S
O54 Cd46 2.277 . S
O54 C47 1.226 . S
O55 Cd46 2.356 . S
O55 C53 1.282 . S
C56 O57 1.306 . S
C56 O59 1.160 . S
O57 C56 1.306 . S
O57 Cd58 2.228 . S
Cd58 O57 2.228 . S
Cd58 O62 2.273 . S
Cd58 O66 2.277 . S
O59 C56 1.160 . S
O59 Cd60 2.203 . S
Cd60 O59 2.203 . S
Cd60 O62 2.411 . S
Cd60 O63 2.333 . S
Cd60 O64 2.352 . S
Cd60 O68 2.277 . S
Cd60 O69 2.356 . S
C61 O66 1.209 . S
C61 O68 1.226 . S
O62 Cd58 2.273 . S
O62 Cd60 2.411 . S
O62 C65 1.320 . S
O63 Cd60 2.333 . S
O63 C65 1.214 . S
O64 Cd60 2.352 . S
O64 C67 1.258 . S
C65 O62 1.320 . S
C65 O63 1.214 . S
O66 Cd58 2.277 . S
O66 C61 1.209 . S
C67 O64 1.258 . S
C67 O69 1.282 . S
O68 Cd60 2.277 . S
O68 C61 1.226 . S
O69 Cd60 2.356 . S
O69 C67 1.282 . S
C70 O71 1.306 . S
C70 O73 1.160 . S
O71 C70 1.306 . S
O71 Cd72 2.228 . S
Cd72 O71 2.228 . S
Cd72 O76 2.273 . S
Cd72 O80 2.277 . S
O73 C70 1.160 . S
O73 Cd74 2.203 . S
Cd74 O73 2.203 . S
Cd74 O76 2.411 . S
Cd74 O77 2.333 . S
Cd74 O78 2.352 . S
Cd74 O82 2.277 . S
Cd74 O83 2.356 . S
C75 O80 1.209 . S
C75 O82 1.226 . S
O76 Cd72 2.273 . S
O76 Cd74 2.411 . S
O76 C79 1.320 . S
O77 Cd74 2.333 . S
O77 C79 1.214 . S
O78 Cd74 2.352 . S
O78 C81 1.258 . S
C79 O76 1.320 . S
C79 O77 1.214 . S
O80 Cd72 2.277 . S
O80 C75 1.209 . S
C81 O78 1.258 . S
C81 O83 1.282 . S
O82 Cd74 2.277 . S
O82 C75 1.226 . S
O83 Cd74 2.356 . S
O83 C81 1.282 . S
C84 O85 1.306 . S
C84 O87 1.160 . S
O85 C84 1.306 . S
O85 Cd86 2.228 . S
Cd86 O85 2.228 . S
Cd86 O90 2.273 . S
Cd86 O94 2.277 . S
O87 C84 1.160 . S
O87 Cd88 2.203 . S
Cd88 O87 2.203 . S
Cd88 O90 2.411 . S
Cd88 O91 2.333 . S
Cd88 O92 2.352 . S
Cd88 O96 2.277 . S
Cd88 O97 2.356 . S
C89 O94 1.209 . S
C89 O96 1.226 . S
O90 Cd86 2.273 . S
O90 Cd88 2.411 . S
O90 C93 1.320 . S
O91 Cd88 2.333 . S
O91 C93 1.214 . S
O92 Cd88 2.352 . S
O92 C95 1.258 . S
C93 O90 1.320 . S
C93 O91 1.214 . S
O94 Cd86 2.277 . S
O94 C89 1.209 . S
C95 O92 1.258 . S
C95 O97 1.282 . S
O96 Cd88 2.277 . S
O96 C89 1.226 . S
O97 Cd88 2.356 . S
O97 C95 1.282 . S
C98 O99 1.306 . S
C98 O101 1.160 . S
O99 C98 1.306 . S
O99 Cd100 2.228 . S
Cd100 O99 2.228 . S
Cd100 O104 2.273 . S
Cd100 O108 2.277 . S
O101 C98 1.160 . S
O101 Cd102 2.203 . S
Cd102 O101 2.203 . S
Cd102 O104 2.411 . S
Cd102 O105 2.333 . S
Cd102 O106 2.352 . S
Cd102 O110 2.277 . S
Cd102 O111 2.356 . S
C103 O108 1.209 . S
C103 O110 1.226 . S
O104 Cd100 2.273 . S
O104 Cd102 2.411 . S
O104 C107 1.320 . S
O105 Cd102 2.333 . S
O105 C107 1.214 . S
O106 Cd102 2.352 . S
O106 C109 1.258 . S
C107 O104 1.320 . S
C107 O105 1.214 . S
O108 Cd100 2.277 . S
O108 C103 1.209 . S
C109 O106 1.258 . S
C109 O111 1.282 . S
O110 Cd102 2.277 . S
O110 C103 1.226 . S
O111 Cd102 2.356 . S
O111 C109 1.282 . S
C112 O113 1.306 . S
C112 O115 1.160 . S
O113 C112 1.306 . S
O113 Cd114 2.228 . S
Cd114 O113 2.228 . S
Cd114 O118 2.273 . S
Cd114 O122 2.277 . S
O115 C112 1.160 . S
O115 Cd116 2.203 . S
Cd116 O115 2.203 . S
Cd116 O118 2.411 . S
Cd116 O119 2.333 . S
Cd116 O120 2.352 . S
Cd116 O124 2.277 . S
Cd116 O125 2.356 . S
C117 O122 1.209 . S
C117 O124 1.226 . S
O118 Cd114 2.273 . S
O118 Cd116 2.411 . S
O118 C121 1.320 . S
O119 Cd116 2.333 . S
O119 C121 1.214 . S
O120 Cd116 2.352 . S
O120 C123 1.258 . S
C121 O118 1.320 . S
C121 O119 1.214 . S
O122 Cd114 2.277 . S
O122 C117 1.209 . S
C123 O120 1.258 . S
C123 O125 1.282 . S
O124 Cd116 2.277 . S
O124 C117 1.226 . S
O125 Cd116 2.356 . S
O125 C123 1.282 . S
C126 O127 1.306 . S
C126 O129 1.160 . S
O127 C126 1.306 . S
O127 Cd128 2.228 . S
Cd128 O127 2.228 . S
Cd128 O132 2.273 . S
Cd128 O136 2.277 . S
O129 C126 1.160 . S
O129 Cd130 2.203 . S
Cd130 O129 2.203 . S
Cd130 O132 2.411 . S
Cd130 O133 2.333 . S
Cd130 O134 2.352 . S
Cd130 O138 2.277 . S
Cd130 O139 2.356 . S
C131 O136 1.209 . S
C131 O138 1.226 . S
O132 Cd128 2.273 . S
O132 Cd130 2.411 . S
O132 C135 1.320 . S
O133 Cd130 2.333 . S
O133 C135 1.214 . S
O134 Cd130 2.352 . S
O134 C137 1.258 . S
C135 O132 1.320 . S
C135 O133 1.214 . S
O136 Cd128 2.277 . S
O136 C131 1.209 . S
C137 O134 1.258 . S
C137 O139 1.282 . S
O138 Cd130 2.277 . S
O138 C131 1.226 . S
O139 Cd130 2.356 . S
O139 C137 1.282 . S
C140 O141 1.306 . S
C140 O143 1.160 . S
O141 C140 1.306 . S
O141 Cd142 2.228 . S
Cd142 O141 2.228 . S
Cd142 O146 2.273 . S
Cd142 O150 2.277 . S
O143 C140 1.160 . S
O143 Cd144 2.203 . S
Cd144 O143 2.203 . S
Cd144 O146 2.411 . S
Cd144 O147 2.333 . S
Cd144 O148 2.352 . S
Cd144 O152 2.277 . S
Cd144 O153 2.356 . S
C145 O150 1.209 . S
C145 O152 1.226 . S
O146 Cd142 2.273 . S
O146 Cd144 2.411 . S
O146 C149 1.320 . S
O147 Cd144 2.333 . S
O147 C149 1.214 . S
O148 Cd144 2.352 . S
O148 C151 1.258 . S
C149 O146 1.320 . S
C149 O147 1.214 . S
O150 Cd142 2.277 . S
O150 C145 1.209 . S
C151 O148 1.258 . S
C151 O153 1.282 . S
O152 Cd144 2.277 . S
O152 C145 1.226 . S
O153 Cd144 2.356 . S
O153 C151 1.282 . S
C154 O155 1.306 . S
C154 O157 1.160 . S
O155 C154 1.306 . S
O155 Cd156 2.228 . S
Cd156 O155 2.228 . S
Cd156 O160 2.273 . S
Cd156 O164 2.277 . S
O157 C154 1.160 . S
O157 Cd158 2.203 . S
Cd158 O157 2.203 . S
Cd158 O160 2.411 . S
Cd158 O161 2.333 . S
Cd158 O162 2.352 . S
Cd158 O166 2.277 . S
Cd158 O167 2.356 . S
C159 O164 1.209 . S
C159 O166 1.226 . S
O160 Cd156 2.273 . S
O160 Cd158 2.411 . S
O160 C163 1.320 . S
O161 Cd158 2.333 . S
O161 C163 1.214 . S
O162 Cd158 2.352 . S
O162 C165 1.258 . S
C163 O160 1.320 . S
C163 O161 1.214 . S
O164 Cd156 2.277 . S
O164 C159 1.209 . S
C165 O162 1.258 . S
C165 O167 1.282 . S
O166 Cd158 2.277 . S
O166 C159 1.226 . S
O167 Cd158 2.356 . S
O167 C165 1.282 . S
C168 O169 1.306 . S
C168 O171 1.160 . S
O169 C168 1.306 . S
O169 Cd170 2.228 . S
Cd170 O169 2.228 . S
Cd170 O174 2.273 . S
Cd170 O178 2.277 . S
O171 C168 1.160 . S
O171 Cd172 2.203 . S
Cd172 O171 2.203 . S
Cd172 O174 2.411 . S
Cd172 O175 2.333 . S
Cd172 O176 2.352 . S
Cd172 O180 2.277 . S
Cd172 O181 2.356 . S
C173 O178 1.209 . S
C173 O180 1.226 . S
O174 Cd170 2.273 . S
O174 Cd172 2.411 . S
O174 C177 1.320 . S
O175 Cd172 2.333 . S
O175 C177 1.214 . S
O176 Cd172 2.352 . S
O176 C179 1.258 . S
C177 O174 1.320 . S
C177 O175 1.214 . S
O178 Cd170 2.277 . S
O178 C173 1.209 . S
C179 O176 1.258 . S
C179 O181 1.282 . S
O180 Cd172 2.277 . S
O180 C173 1.226 . S
O181 Cd172 2.356 . S
O181 C179 1.282 . S
C182 O183 1.306 . S
C182 O185 1.160 . S
O183 C182 1.306 . S
O183 Cd184 2.228 . S
Cd184 O183 2.228 . S
Cd184 O188 2.273 . S
Cd184 O192 2.277 . S
O185 C182 1.160 . S
O185 Cd186 2.203 . S
Cd186 O185 2.203 . S
Cd186 O188 2.411 . S
Cd186 O189 2.333 . S
Cd186 O190 2.352 . S
Cd186 O194 2.277 . S
Cd186 O195 2.356 . S
C187 O192 1.209 . S
C187 O194 1.226 . S
O188 Cd184 2.273 . S
O188 Cd186 2.411 . S
O188 C191 1.320 . S
O189 Cd186 2.333 . S
O189 C191 1.214 . S
O190 Cd186 2.352 . S
O190 C193 1.258 . S
C191 O188 1.320 . S
C191 O189 1.214 . S
O192 Cd184 2.277 . S
O192 C187 1.209 . S
C193 O190 1.258 . S
C193 O195 1.282 . S
O194 Cd186 2.277 . S
O194 C187 1.226 . S
O195 Cd186 2.356 . S
O195 C193 1.282 . S
C196 O197 1.306 . S
C196 O199 1.160 . S
O197 C196 1.306 . S
O197 Cd198 2.228 . S
Cd198 O197 2.228 . S
Cd198 O202 2.273 . S
Cd198 O206 2.277 . S
O199 C196 1.160 . S
O199 Cd200 2.203 . S
Cd200 O199 2.203 . S
Cd200 O202 2.411 . S
Cd200 O203 2.333 . S
Cd200 O204 2.352 . S
Cd200 O208 2.277 . S
Cd200 O209 2.356 . S
C201 O206 1.209 . S
C201 O208 1.226 . S
O202 Cd198 2.273 . S
O202 Cd200 2.411 . S
O202 C205 1.320 . S
O203 Cd200 2.333 . S
O203 C205 1.214 . S
O204 Cd200 2.352 . S
O204 C207 1.258 . S
C205 O202 1.320 . S
C205 O203 1.214 . S
O206 Cd198 2.277 . S
O206 C201 1.209 . S
C207 O204 1.258 . S
C207 O209 1.282 . S
O208 Cd200 2.277 . S
O208 C201 1.226 . S
O209 Cd200 2.356 . S
O209 C207 1.282 . S
C210 O211 1.306 . S
C210 O213 1.160 . S
O211 C210 1.306 . S
O211 Cd212 2.228 . S
Cd212 O211 2.228 . S
Cd212 O216 2.273 . S
Cd212 O220 2.277 . S
O213 C210 1.160 . S
O213 Cd214 2.203 . S
Cd214 O213 2.203 . S
Cd214 O216 2.411 . S
Cd214 O217 2.333 . S
Cd214 O218 2.352 . S
Cd214 O222 2.277 . S
Cd214 O223 2.356 . S
C215 O220 1.209 . S
C215 O222 1.226 . S
O216 Cd212 2.273 . S
O216 Cd214 2.411 . S
O216 C219 1.320 . S
O217 Cd214 2.333 . S
O217 C219 1.214 . S
O218 Cd214 2.352 . S
O218 C221 1.258 . S
C219 O216 1.320 . S
C219 O217 1.214 . S
O220 Cd212 2.277 . S
O220 C215 1.209 . S
C221 O218 1.258 . S
C221 O223 1.282 . S
O222 Cd214 2.277 . S
O222 C215 1.226 . S
O223 Cd214 2.356 . S
O223 C221 1.282 . S
C224 O225 1.306 . S
C224 O227 1.160 . S
O225 C224 1.306 . S
O225 Cd226 2.228 . S
Cd226 O225 2.228 . S
Cd226 O230 2.273 . S
Cd226 O234 2.277 . S
O227 C224 1.160 . S
O227 Cd228 2.203 . S
Cd228 O227 2.203 . S
Cd228 O230 2.411 . S
Cd228 O231 2.333 . S
Cd228 O232 2.352 . S
Cd228 O236 2.277 . S
Cd228 O237 2.356 . S
C229 O234 1.209 . S
C229 O236 1.226 . S
O230 Cd226 2.273 . S
O230 Cd228 2.411 . S
O230 C233 1.320 . S
O231 Cd228 2.333 . S
O231 C233 1.214 . S
O232 Cd228 2.352 . S
O232 C235 1.258 . S
C233 O230 1.320 . S
C233 O231 1.214 . S
O234 Cd226 2.277 . S
O234 C229 1.209 . S
C235 O232 1.258 . S
C235 O237 1.282 . S
O236 Cd228 2.277 . S
O236 C229 1.226 . S
O237 Cd228 2.356 . S
O237 C235 1.282 . S
C238 O239 1.306 . S
C238 O241 1.160 . S
O239 C238 1.306 . S
O239 Cd240 2.228 . S
Cd240 O239 2.228 . S
Cd240 O244 2.273 . S
Cd240 O248 2.277 . S
O241 C238 1.160 . S
O241 Cd242 2.203 . S
Cd242 O241 2.203 . S
Cd242 O244 2.411 . S
Cd242 O245 2.333 . S
Cd242 O246 2.352 . S
Cd242 O250 2.277 . S
Cd242 O251 2.356 . S
C243 O248 1.209 . S
C243 O250 1.226 . S
O244 Cd240 2.273 . S
O244 Cd242 2.411 . S
O244 C247 1.320 . S
O245 Cd242 2.333 . S
O245 C247 1.214 . S
O246 Cd242 2.352 . S
O246 C249 1.258 . S
C247 O244 1.320 . S
C247 O245 1.214 . S
O248 Cd240 2.277 . S
O248 C243 1.209 . S
C249 O246 1.258 . S
C249 O251 1.282 . S
O250 Cd242 2.277 . S
O250 C243 1.226 . S
O251 Cd242 2.356 . S
O251 C249 1.282 . S
C252 O253 1.306 . S
C252 O255 1.160 . S
O253 C252 1.306 . S
O253 Cd254 2.228 . S
Cd254 O253 2.228 . S
Cd254 O258 2.273 . S
Cd254 O262 2.277 . S
O255 C252 1.160 . S
O255 Cd256 2.203 . S
Cd256 O255 2.203 . S
Cd256 O258 2.411 . S
Cd256 O259 2.333 . S
Cd256 O260 2.352 . S
Cd256 O264 2.277 . S
Cd256 O265 2.356 . S
C257 O262 1.209 . S
C257 O264 1.226 . S
O258 Cd254 2.273 . S
O258 Cd256 2.411 . S
O258 C261 1.320 . S
O259 Cd256 2.333 . S
O259 C261 1.214 . S
O260 Cd256 2.352 . S
O260 C263 1.258 . S
C261 O258 1.320 . S
C261 O259 1.214 . S
O262 Cd254 2.277 . S
O262 C257 1.209 . S
C263 O260 1.258 . S
C263 O265 1.282 . S
O264 Cd256 2.277 . S
O264 C257 1.226 . S
O265 Cd256 2.356 . S
O265 C263 1.282 . S
C266 O267 1.306 . S
C266 O269 1.160 . S
O267 C266 1.306 . S
O267 Cd268 2.228 . S
Cd268 O267 2.228 . S
Cd268 O272 2.273 . S
Cd268 O276 2.277 . S
O269 C266 1.160 . S
O269 Cd270 2.203 . S
Cd270 O269 2.203 . S
Cd270 O272 2.411 . S
Cd270 O273 2.333 . S
Cd270 O274 2.352 . S
Cd270 O278 2.277 . S
Cd270 O279 2.356 . S
C271 O276 1.209 . S
C271 O278 1.226 . S
O272 Cd268 2.273 . S
O272 Cd270 2.411 . S
O272 C275 1.320 . S
O273 Cd270 2.333 . S
O273 C275 1.214 . S
O274 Cd270 2.352 . S
O274 C277 1.258 . S
C275 O272 1.320 . S
C275 O273 1.214 . S
O276 Cd268 2.277 . S
O276 C271 1.209 . S
C277 O274 1.258 . S
C277 O279 1.282 . S
O278 Cd270 2.277 . S
O278 C271 1.226 . S
O279 Cd270 2.356 . S
O279 C277 1.282 . S
C280 O281 1.306 . S
C280 O283 1.160 . S
O281 C280 1.306 . S
O281 Cd282 2.228 . S
Cd282 O281 2.228 . S
Cd282 O286 2.273 . S
Cd282 O290 2.277 . S
O283 C280 1.160 . S
O283 Cd284 2.203 . S
Cd284 O283 2.203 . S
Cd284 O286 2.411 . S
Cd284 O287 2.333 . S
Cd284 O288 2.352 . S
Cd284 O292 2.277 . S
Cd284 O293 2.356 . S
C285 O290 1.209 . S
C285 O292 1.226 . S
O286 Cd282 2.273 . S
O286 Cd284 2.411 . S
O286 C289 1.320 . S
O287 Cd284 2.333 . S
O287 C289 1.214 . S
O288 Cd284 2.352 . S
O288 C291 1.258 . S
C289 O286 1.320 . S
C289 O287 1.214 . S
O290 Cd282 2.277 . S
O290 C285 1.209 . S
C291 O288 1.258 . S
C291 O293 1.282 . S
O292 Cd284 2.277 . S
O292 C285 1.226 . S
O293 Cd284 2.356 . S
O293 C291 1.282 . S
C294 O295 1.306 . S
C294 O297 1.160 . S
O295 C294 1.306 . S
O295 Cd296 2.228 . S
Cd296 O295 2.228 . S
Cd296 O300 2.273 . S
Cd296 O304 2.277 . S
O297 C294 1.160 . S
O297 Cd298 2.203 . S
Cd298 O297 2.203 . S
Cd298 O300 2.411 . S
Cd298 O301 2.333 . S
Cd298 O302 2.352 . S
Cd298 O306 2.277 . S
Cd298 O307 2.356 . S
C299 O304 1.209 . S
C299 O306 1.226 . S
O300 Cd296 2.273 . S
O300 Cd298 2.411 . S
O300 C303 1.320 . S
O301 Cd298 2.333 . S
O301 C303 1.214 . S
O302 Cd298 2.352 . S
O302 C305 1.258 . S
C303 O300 1.320 . S
C303 O301 1.214 . S
O304 Cd296 2.277 . S
O304 C299 1.209 . S
C305 O302 1.258 . S
C305 O307 1.282 . S
O306 Cd298 2.277 . S
O306 C299 1.226 . S
O307 Cd298 2.356 . S
O307 C305 1.282 . S
C308 O309 1.306 . S
C308 O311 1.160 . S
O309 C308 1.306 . S
O309 Cd310 2.228 . S
Cd310 O309 2.228 . S
Cd310 O314 2.273 . S
Cd310 O318 2.277 . S
O311 C308 1.160 . S
O311 Cd312 2.203 . S
Cd312 O311 2.203 . S
Cd312 O314 2.411 . S
Cd312 O315 2.333 . S
Cd312 O316 2.352 . S
Cd312 O320 2.277 . S
Cd312 O321 2.356 . S
C313 O318 1.209 . S
C313 O320 1.226 . S
O314 Cd310 2.273 . S
O314 Cd312 2.411 . S
O314 C317 1.320 . S
O315 Cd312 2.333 . S
O315 C317 1.214 . S
O316 Cd312 2.352 . S
O316 C319 1.258 . S
C317 O314 1.320 . S
C317 O315 1.214 . S
O318 Cd310 2.277 . S
O318 C313 1.209 . S
C319 O316 1.258 . S
C319 O321 1.282 . S
O320 Cd312 2.277 . S
O320 C313 1.226 . S
O321 Cd312 2.356 . S
O321 C319 1.282 . S
C322 O323 1.306 . S
C322 O325 1.160 . S
O323 C322 1.306 . S
O323 Cd324 2.228 . S
Cd324 O323 2.228 . S
Cd324 O328 2.273 . S
Cd324 O332 2.277 . S
O325 C322 1.160 . S
O325 Cd326 2.203 . S
Cd326 O325 2.203 . S
Cd326 O328 2.411 . S
Cd326 O329 2.333 . S
Cd326 O330 2.352 . S
Cd326 O334 2.277 . S
Cd326 O335 2.356 . S
C327 O332 1.209 . S
C327 O334 1.226 . S
O328 Cd324 2.273 . S
O328 Cd326 2.411 . S
O328 C331 1.320 . S
O329 Cd326 2.333 . S
O329 C331 1.214 . S
O330 Cd326 2.352 . S
O330 C333 1.258 . S
C331 O328 1.320 . S
C331 O329 1.214 . S
O332 Cd324 2.277 . S
O332 C327 1.209 . S
C333 O330 1.258 . S
C333 O335 1.282 . S
O334 Cd326 2.277 . S
O334 C327 1.226 . S
O335 Cd326 2.356 . S
O335 C333 1.282 . S
C336 O337 1.306 . S
C336 O339 1.160 . S
O337 C336 1.306 . S
O337 Cd338 2.228 . S
Cd338 O337 2.228 . S
Cd338 O342 2.273 . S
Cd338 O346 2.277 . S
O339 C336 1.160 . S
O339 Cd340 2.203 . S
Cd340 O339 2.203 . S
Cd340 O342 2.411 . S
Cd340 O343 2.333 . S
Cd340 O344 2.352 . S
Cd340 O348 2.277 . S
Cd340 O349 2.356 . S
C341 O346 1.209 . S
C341 O348 1.226 . S
O342 Cd338 2.273 . S
O342 Cd340 2.411 . S
O342 C345 1.320 . S
O343 Cd340 2.333 . S
O343 C345 1.214 . S
O344 Cd340 2.352 . S
O344 C347 1.258 . S
C345 O342 1.320 . S
C345 O343 1.214 . S
O346 Cd338 2.277 . S
O346 C341 1.209 . S
C347 O344 1.258 . S
C347 O349 1.282 . S
O348 Cd340 2.277 . S
O348 C341 1.226 . S
O349 Cd340 2.356 . S
O349 C347 1.282 . S
C350 O351 1.306 . S
C350 O353 1.160 . S
O351 C350 1.306 . S
O351 Cd352 2.228 . S
Cd352 O351 2.228 . S
Cd352 O356 2.273 . S
Cd352 O360 2.277 . S
O353 C350 1.160 . S
O353 Cd354 2.203 . S
Cd354 O353 2.203 . S
Cd354 O356 2.411 . S
Cd354 O357 2.333 . S
Cd354 O358 2.352 . S
Cd354 O362 2.277 . S
Cd354 O363 2.356 . S
C355 O360 1.209 . S
C355 O362 1.226 . S
O356 Cd352 2.273 . S
O356 Cd354 2.411 . S
O356 C359 1.320 . S
O357 Cd354 2.333 . S
O357 C359 1.214 . S
O358 Cd354 2.352 . S
O358 C361 1.258 . S
C359 O356 1.320 . S
C359 O357 1.214 . S
O360 Cd352 2.277 . S
O360 C355 1.209 . S
C361 O358 1.258 . S
C361 O363 1.282 . S
O362 Cd354 2.277 . S
O362 C355 1.226 . S
O363 Cd354 2.356 . S
O363 C361 1.282 . S
C364 O365 1.306 . S
C364 O367 1.160 . S
O365 C364 1.306 . S
O365 Cd366 2.228 . S
Cd366 O365 2.228 . S
Cd366 O370 2.273 . S
Cd366 O374 2.277 . S
O367 C364 1.160 . S
O367 Cd368 2.203 . S
Cd368 O367 2.203 . S
Cd368 O370 2.411 . S
Cd368 O371 2.333 . S
Cd368 O372 2.352 . S
Cd368 O376 2.277 . S
Cd368 O377 2.356 . S
C369 O374 1.209 . S
C369 O376 1.226 . S
O370 Cd366 2.273 . S
O370 Cd368 2.411 . S
O370 C373 1.320 . S
O371 Cd368 2.333 . S
O371 C373 1.214 . S
O372 Cd368 2.352 . S
O372 C375 1.258 . S
C373 O370 1.320 . S
C373 O371 1.214 . S
O374 Cd366 2.277 . S
O374 C369 1.209 . S
C375 O372 1.258 . S
C375 O377 1.282 . S
O376 Cd368 2.277 . S
O376 C369 1.226 . S
O377 Cd368 2.356 . S
O377 C375 1.282 . S
C378 O379 1.306 . S
C378 O381 1.160 . S
O379 C378 1.306 . S
O379 Cd380 2.228 . S
Cd380 O379 2.228 . S
Cd380 O384 2.273 . S
Cd380 O388 2.277 . S
O381 C378 1.160 . S
O381 Cd382 2.203 . S
Cd382 O381 2.203 . S
Cd382 O384 2.411 . S
Cd382 O385 2.333 . S
Cd382 O386 2.352 . S
Cd382 O390 2.277 . S
Cd382 O391 2.356 . S
C383 O388 1.209 . S
C383 O390 1.226 . S
O384 Cd380 2.273 . S
O384 Cd382 2.411 . S
O384 C387 1.320 . S
O385 Cd382 2.333 . S
O385 C387 1.214 . S
O386 Cd382 2.352 . S
O386 C389 1.258 . S
C387 O384 1.320 . S
C387 O385 1.214 . S
O388 Cd380 2.277 . S
O388 C383 1.209 . S
C389 O386 1.258 . S
C389 O391 1.282 . S
O390 Cd382 2.277 . S
O390 C383 1.226 . S
O391 Cd382 2.356 . S
O391 C389 1.282 . S
C392 O393 1.306 . S
C392 O395 1.160 . S
O393 C392 1.306 . S
O393 Cd394 2.228 . S
Cd394 O393 2.228 . S
Cd394 O398 2.273 . S
Cd394 O402 2.277 . S
O395 C392 1.160 . S
O395 Cd396 2.203 . S
Cd396 O395 2.203 . S
Cd396 O398 2.411 . S
Cd396 O399 2.333 . S
Cd396 O400 2.352 . S
Cd396 O404 2.277 . S
Cd396 O405 2.356 . S
C397 O402 1.209 . S
C397 O404 1.226 . S
O398 Cd394 2.273 . S
O398 Cd396 2.411 . S
O398 C401 1.320 . S
O399 Cd396 2.333 . S
O399 C401 1.214 . S
O400 Cd396 2.352 . S
O400 C403 1.258 . S
C401 O398 1.320 . S
C401 O399 1.214 . S
O402 Cd394 2.277 . S
O402 C397 1.209 . S
C403 O400 1.258 . S
C403 O405 1.282 . S
O404 Cd396 2.277 . S
O404 C397 1.226 . S
O405 Cd396 2.356 . S
O405 C403 1.282 . S
C406 O407 1.306 . S
C406 O409 1.160 . S
O407 C406 1.306 . S
O407 Cd408 2.228 . S
Cd408 O407 2.228 . S
Cd408 O412 2.273 . S
Cd408 O416 2.277 . S
O409 C406 1.160 . S
O409 Cd410 2.203 . S
Cd410 O409 2.203 . S
Cd410 O412 2.411 . S
Cd410 O413 2.333 . S
Cd410 O414 2.352 . S
Cd410 O418 2.277 . S
Cd410 O419 2.356 . S
C411 O416 1.209 . S
C411 O418 1.226 . S
O412 Cd408 2.273 . S
O412 Cd410 2.411 . S
O412 C415 1.320 . S
O413 Cd410 2.333 . S
O413 C415 1.214 . S
O414 Cd410 2.352 . S
O414 C417 1.258 . S
C415 O412 1.320 . S
C415 O413 1.214 . S
O416 Cd408 2.277 . S
O416 C411 1.209 . S
C417 O414 1.258 . S
C417 O419 1.282 . S
O418 Cd410 2.277 . S
O418 C411 1.226 . S
O419 Cd410 2.356 . S
O419 C417 1.282 . S
C420 O421 1.306 . S
C420 O423 1.160 . S
O421 C420 1.306 . S
O421 Cd422 2.228 . S
Cd422 O421 2.228 . S
Cd422 O426 2.273 . S
Cd422 O430 2.277 . S
O423 C420 1.160 . S
O423 Cd424 2.203 . S
Cd424 O423 2.203 . S
Cd424 O426 2.411 . S
Cd424 O427 2.333 . S
Cd424 O428 2.352 . S
Cd424 O432 2.277 . S
Cd424 O433 2.356 . S
C425 O430 1.209 . S
C425 O432 1.226 . S
O426 Cd422 2.273 . S
O426 Cd424 2.411 . S
O426 C429 1.320 . S
O427 Cd424 2.333 . S
O427 C429 1.214 . S
O428 Cd424 2.352 . S
O428 C431 1.258 . S
C429 O426 1.320 . S
C429 O427 1.214 . S
O430 Cd422 2.277 . S
O430 C425 1.209 . S
C431 O428 1.258 . S
C431 O433 1.282 . S
O432 Cd424 2.277 . S
O432 C425 1.226 . S
O433 Cd424 2.356 . S
O433 C431 1.282 . S
C434 O435 1.306 . S
C434 O437 1.160 . S
O435 C434 1.306 . S
O435 Cd436 2.228 . S
Cd436 O435 2.228 . S
Cd436 O440 2.273 . S
Cd436 O444 2.277 . S
O437 C434 1.160 . S
O437 Cd438 2.203 . S
Cd438 O437 2.203 . S
Cd438 O440 2.411 . S
Cd438 O441 2.333 . S
Cd438 O442 2.352 . S
Cd438 O446 2.277 . S
Cd438 O447 2.356 . S
C439 O444 1.209 . S
C439 O446 1.226 . S
O440 Cd436 2.273 . S
O440 Cd438 2.411 . S
O440 C443 1.320 . S
O441 Cd438 2.333 . S
O441 C443 1.214 . S
O442 Cd438 2.352 . S
O442 C445 1.258 . S
C443 O440 1.320 . S
C443 O441 1.214 . S
O444 Cd436 2.277 . S
O444 C439 1.209 . S
C445 O442 1.258 . S
C445 O447 1.282 . S
O446 Cd438 2.277 . S
O446 C439 1.226 . S
O447 Cd438 2.356 . S
O447 C445 1.282 . S
C448 O449 1.306 . S
C448 O451 1.160 . S
O449 C448 1.306 . S
O449 Cd450 2.228 . S
Cd450 O449 2.228 . S
Cd450 O454 2.273 . S
Cd450 O458 2.277 . S
O451 C448 1.160 . S
O451 Cd452 2.203 . S
Cd452 O451 2.203 . S
Cd452 O454 2.411 . S
Cd452 O455 2.333 . S
Cd452 O456 2.352 . S
Cd452 O460 2.277 . S
Cd452 O461 2.356 . S
C453 O458 1.209 . S
C453 O460 1.226 . S
O454 Cd450 2.273 . S
O454 Cd452 2.411 . S
O454 C457 1.320 . S
O455 Cd452 2.333 . S
O455 C457 1.214 . S
O456 Cd452 2.352 . S
O456 C459 1.258 . S
C457 O454 1.320 . S
C457 O455 1.214 . S
O458 Cd450 2.277 . S
O458 C453 1.209 . S
C459 O456 1.258 . S
C459 O461 1.282 . S
O460 Cd452 2.277 . S
O460 C453 1.226 . S
O461 Cd452 2.356 . S
O461 C459 1.282 . S
C462 O463 1.306 . S
C462 O465 1.160 . S
O463 C462 1.306 . S
O463 Cd464 2.228 . S
Cd464 O463 2.228 . S
Cd464 O468 2.273 . S
Cd464 O472 2.277 . S
O465 C462 1.160 . S
O465 Cd466 2.203 . S
Cd466 O465 2.203 . S
Cd466 O468 2.411 . S
Cd466 O469 2.333 . S
Cd466 O470 2.352 . S
Cd466 O474 2.277 . S
Cd466 O475 2.356 . S
C467 O472 1.209 . S
C467 O474 1.226 . S
O468 Cd464 2.273 . S
O468 Cd466 2.411 . S
O468 C471 1.320 . S
O469 Cd466 2.333 . S
O469 C471 1.214 . S
O470 Cd466 2.352 . S
O470 C473 1.258 . S
C471 O468 1.320 . S
C471 O469 1.214 . S
O472 Cd464 2.277 . S
O472 C467 1.209 . S
C473 O470 1.258 . S
C473 O475 1.282 . S
O474 Cd466 2.277 . S
O474 C467 1.226 . S
O475 Cd466 2.356 . S
O475 C473 1.282 . S
C476 O477 1.306 . S
C476 O479 1.160 . S
O477 C476 1.306 . S
O477 Cd478 2.228 . S
Cd478 O477 2.228 . S
Cd478 O482 2.273 . S
Cd478 O486 2.277 . S
O479 C476 1.160 . S
O479 Cd480 2.203 . S
Cd480 O479 2.203 . S
Cd480 O482 2.411 . S
Cd480 O483 2.333 . S
Cd480 O484 2.352 . S
Cd480 O488 2.277 . S
Cd480 O489 2.356 . S
C481 O486 1.209 . S
C481 O488 1.226 . S
O482 Cd478 2.273 . S
O482 Cd480 2.411 . S
O482 C485 1.320 . S
O483 Cd480 2.333 . S
O483 C485 1.214 . S
O484 Cd480 2.352 . S
O484 C487 1.258 . S
C485 O482 1.320 . S
C485 O483 1.214 . S
O486 Cd478 2.277 . S
O486 C481 1.209 . S
C487 O484 1.258 . S
C487 O489 1.282 . S
O488 Cd480 2.277 . S
O488 C481 1.226 . S
O489 Cd480 2.356 . S
O489 C487 1.282 . S
C490 O491 1.306 . S
C490 O493 1.160 . S
O491 C490 1.306 . S
O491 Cd492 2.228 . S
Cd492 O491 2.228 . S
Cd492 O496 2.273 . S
Cd492 O500 2.277 . S
O493 C490 1.160 . S
O493 Cd494 2.203 . S
Cd494 O493 2.203 . S
Cd494 O496 2.411 . S
Cd494 O497 2.333 . S
Cd494 O498 2.352 . S
Cd494 O502 2.277 . S
Cd494 O503 2.356 . S
C495 O500 1.209 . S
C495 O502 1.226 . S
O496 Cd492 2.273 . S
O496 Cd494 2.411 . S
O496 C499 1.320 . S
O497 Cd494 2.333 . S
O497 C499 1.214 . S
O498 Cd494 2.352 . S
O498 C501 1.258 . S
C499 O496 1.320 . S
C499 O497 1.214 . S
O500 Cd492 2.277 . S
O500 C495 1.209 . S
C501 O498 1.258 . S
C501 O503 1.282 . S
O502 Cd494 2.277 . S
O502 C495 1.226 . S
O503 Cd494 2.356 . S
O503 C501 1.282 . S
H504 C510 0.930 . S
H505 C514 0.930 . S
H506 C519 0.929 . S
H507 C517 0.929 . S
H508 C512 0.929 . S
H509 C518 0.929 . S
C510 H504 0.930 . S
C510 C511 1.367 . S
C510 C518 1.378 . S
C511 C510 1.367 . S
C511 C519 1.433 . S
C512 H508 0.929 . S
C512 C514 1.378 . S
C512 C516 1.350 . S
C513 C516 1.463 1_565 S
C513 C518 1.350 . S
C513 N521 1.427 . S
C514 H505 0.930 . S
C514 C512 1.378 . S
C514 C515 1.367 . S
C515 C514 1.367 . S
C515 C517 1.433 . S
C516 C512 1.350 . S
C516 C513 1.463 1_545 S
C516 N520 1.427 . S
C517 H507 0.929 . S
C517 C515 1.433 . S
C517 N520 1.384 . S
C518 H509 0.929 . S
C518 C510 1.378 . S
C518 C513 1.350 . S
C519 H506 0.929 . S
C519 C511 1.433 . S
C519 N521 1.384 . S
N520 C516 1.427 . S
N520 C517 1.384 . S
N521 C513 1.427 . S
N521 C519 1.384 . S
H522 C528 0.930 . S
H523 C532 0.930 . S
H524 C537 0.929 . S
H525 C535 0.929 . S
H526 C530 0.929 . S
H527 C536 0.929 . S
C528 H522 0.930 . S
C528 C529 1.367 . S
C528 C536 1.378 . S
C529 C528 1.367 . S
C529 C537 1.433 . S
C530 H526 0.929 . S
C530 C532 1.378 . S
C530 C534 1.350 . S
C531 C534 1.463 1_455 S
C531 C536 1.350 . S
C531 N539 1.427 . S
C532 H523 0.930 . S
C532 C530 1.378 . S
C532 C533 1.367 . S
C533 C532 1.367 . S
C533 C535 1.433 . S
C534 C530 1.350 . S
C534 C531 1.463 1_655 S
C534 N538 1.427 . S
C535 H525 0.929 . S
C535 C533 1.433 . S
C535 N538 1.384 . S
C536 H527 0.929 . S
C536 C528 1.378 . S
C536 C531 1.350 . S
C537 H524 0.929 . S
C537 C529 1.433 . S
C537 N539 1.384 . S
N538 C534 1.427 . S
N538 C535 1.384 . S
N539 C531 1.427 . S
N539 C537 1.384 . S
H540 C546 0.930 . S
H541 C550 0.930 . S
H542 C555 0.929 . S
H543 C553 0.929 . S
H544 C548 0.929 . S
H545 C554 0.929 . S
C546 H540 0.930 . S
C546 C547 1.367 . S
C546 C554 1.378 . S
C547 C546 1.367 . S
C547 C555 1.433 . S
C548 H544 0.929 . S
C548 C550 1.378 . S
C548 C552 1.350 . S
C549 C552 1.463 . S
C549 C554 1.350 . S
C549 N557 1.427 . S
C550 H541 0.930 . S
C550 C548 1.378 . S
C550 C551 1.367 . S
C551 C550 1.367 . S
C551 C553 1.433 . S
C552 C548 1.350 . S
C552 C549 1.463 . S
C552 N556 1.427 . S
C553 H543 0.929 . S
C553 C551 1.433 . S
C553 N556 1.384 . S
C554 H545 0.929 . S
C554 C546 1.378 . S
C554 C549 1.350 . S
C555 H542 0.929 . S
C555 C547 1.433 . S
C555 N557 1.384 . S
N556 C552 1.427 . S
N556 C553 1.384 . S
N557 C549 1.427 . S
N557 C555 1.384 . S
H558 C564 0.930 . S
H559 C568 0.930 . S
H560 C573 0.929 . S
H561 C571 0.929 . S
H562 C566 0.929 . S
H563 C572 0.929 . S
C564 H558 0.930 . S
C564 C565 1.367 . S
C564 C572 1.378 . S
C565 C564 1.367 . S
C565 C573 1.433 . S
C566 H562 0.929 . S
C566 C568 1.378 . S
C566 C570 1.350 . S
C567 C570 1.463 1_565 S
C567 C572 1.350 . S
C567 N575 1.427 . S
C568 H559 0.930 . S
C568 C566 1.378 . S
C568 C569 1.367 . S
C569 C568 1.367 . S
C569 C571 1.433 . S
C570 C566 1.350 . S
C570 C567 1.463 1_545 S
C570 N574 1.427 . S
C571 H561 0.929 . S
C571 C569 1.433 . S
C571 N574 1.384 . S
C572 H563 0.929 . S
C572 C564 1.378 . S
C572 C567 1.350 . S
C573 H560 0.929 . S
C573 C565 1.433 . S
C573 N575 1.384 . S
N574 C570 1.427 . S
N574 C571 1.384 . S
N575 C567 1.427 . S
N575 C573 1.384 . S
H576 C582 0.930 . S
H577 C586 0.930 . S
H578 C591 0.929 . S
H579 C589 0.929 . S
H580 C584 0.929 . S
H581 C590 0.929 . S
C582 H576 0.930 . S
C582 C583 1.367 . S
C582 C590 1.378 . S
C583 C582 1.367 . S
C583 C591 1.433 . S
C584 H580 0.929 . S
C584 C586 1.378 . S
C584 C588 1.350 . S
C585 C588 1.463 1_455 S
C585 C590 1.350 . S
C585 N593 1.427 . S
C586 H577 0.930 . S
C586 C584 1.378 . S
C586 C587 1.367 . S
C587 C586 1.367 . S
C587 C589 1.433 . S
C588 C584 1.350 . S
C588 C585 1.463 1_655 S
C588 N592 1.427 . S
C589 H579 0.929 . S
C589 C587 1.433 . S
C589 N592 1.384 . S
C590 H581 0.929 . S
C590 C582 1.378 . S
C590 C585 1.350 . S
C591 H578 0.929 . S
C591 C583 1.433 . S
C591 N593 1.384 . S
N592 C588 1.427 . S
N592 C589 1.384 . S
N593 C585 1.427 . S
N593 C591 1.384 . S
H594 C600 0.930 . S
H595 C604 0.930 . S
H596 C609 0.929 . S
H597 C607 0.929 . S
H598 C602 0.929 . S
H599 C608 0.929 . S
C600 H594 0.930 . S
C600 C601 1.367 . S
C600 C608 1.378 . S
C601 C600 1.367 . S
C601 C609 1.433 . S
C602 H598 0.929 . S
C602 C604 1.378 . S
C602 C606 1.350 . S
C603 C606 1.463 . S
C603 C608 1.350 . S
C603 N611 1.427 . S
C604 H595 0.930 . S
C604 C602 1.378 . S
C604 C605 1.367 . S
C605 C604 1.367 . S
C605 C607 1.433 . S
C606 C602 1.350 . S
C606 C603 1.463 . S
C606 N610 1.427 . S
C607 H597 0.929 . S
C607 C605 1.433 . S
C607 N610 1.384 . S
C608 H599 0.929 . S
C608 C600 1.378 . S
C608 C603 1.350 . S
C609 H596 0.929 . S
C609 C601 1.433 . S
C609 N611 1.384 . S
N610 C606 1.427 . S
N610 C607 1.384 . S
N611 C603 1.427 . S
N611 C609 1.384 . S
H612 C618 0.930 . S
H613 C622 0.930 . S
H614 C627 0.929 . S
H615 C625 0.929 . S
H616 C620 0.929 . S
H617 C626 0.929 . S
C618 H612 0.930 . S
C618 C619 1.367 . S
C618 C626 1.378 . S
C619 C618 1.367 . S
C619 C627 1.433 1_455 S
C620 H616 0.929 . S
C620 C622 1.378 . S
C620 C624 1.350 . S
C621 C624 1.463 . S
C621 C626 1.350 1_655 S
C621 N629 1.427 . S
C622 H613 0.930 . S
C622 C620 1.378 . S
C622 C623 1.367 . S
C623 C622 1.367 . S
C623 C625 1.433 . S
C624 C620 1.350 . S
C624 C621 1.463 . S
C624 N628 1.427 . S
C625 H615 0.929 . S
C625 C623 1.433 . S
C625 N628 1.384 . S
C626 H617 0.929 . S
C626 C618 1.378 . S
C626 C621 1.350 1_455 S
C627 H614 0.929 . S
C627 C619 1.433 1_655 S
C627 N629 1.384 . S
N628 C624 1.427 . S
N628 C625 1.384 . S
N629 C621 1.427 . S
N629 C627 1.384 . S
H630 C636 0.930 . S
H631 C640 0.930 . S
H632 C645 0.929 . S
H633 C643 0.929 . S
H634 C638 0.929 . S
H635 C644 0.929 . S
C636 H630 0.930 . S
C636 C637 1.367 . S
C636 C644 1.378 . S
C637 C636 1.367 . S
C637 C645 1.433 . S
C638 H634 0.929 . S
C638 C640 1.378 . S
C638 C642 1.350 . S
C639 C642 1.463 . S
C639 C644 1.350 . S
C639 N647 1.427 . S
C640 H631 0.930 . S
C640 C638 1.378 . S
C640 C641 1.367 . S
C641 C640 1.367 . S
C641 C643 1.433 . S
C642 C638 1.350 . S
C642 C639 1.463 . S
C642 N646 1.427 . S
C643 H633 0.929 . S
C643 C641 1.433 . S
C643 N646 1.384 . S
C644 H635 0.929 . S
C644 C636 1.378 . S
C644 C639 1.350 . S
C645 H632 0.929 . S
C645 C637 1.433 . S
C645 N647 1.384 . S
N646 C642 1.427 . S
N646 C643 1.384 . S
N647 C639 1.427 . S
N647 C645 1.384 . S
H648 C654 0.930 . S
H649 C658 0.930 . S
H650 C663 0.929 . S
H651 C661 0.959 . S
H652 C656 0.929 . S
H653 C662 0.929 . S
C654 H648 0.930 . S
C654 C655 1.367 . S
C654 C662 1.378 . S
C655 C654 1.367 . S
C655 C663 1.433 . S
C656 H652 0.929 . S
C656 C658 1.378 1_545 S
C656 C660 1.350 . S
C657 C660 1.463 . S
C657 C662 1.350 . S
C657 N665 1.427 . S
C658 H649 0.930 . S
C658 C656 1.378 1_565 S
C658 C659 1.367 . S
C659 C658 1.367 . S
C659 C661 1.456 . S
C660 C656 1.350 . S
C660 C657 1.463 . S
C660 N664 1.427 . S
C661 H651 0.959 . S
C661 C659 1.456 . S
C661 N664 1.332 1_565 S
C662 H653 0.929 . S
C662 C654 1.378 . S
C662 C657 1.350 . S
C663 H650 0.929 . S
C663 C655 1.433 . S
C663 N665 1.384 . S
N664 C660 1.427 . S
N664 C661 1.332 1_545 S
N665 C657 1.427 . S
N665 C663 1.384 . S
H666 C672 0.930 . S
H667 C676 0.930 . S
H668 C681 0.929 . S
H669 C679 0.929 . S
H670 C674 0.929 . S
H671 C680 0.929 . S
C672 H666 0.930 . S
C672 C673 1.367 . S
C672 C680 1.378 . S
C673 C672 1.367 . S
C673 C681 1.433 . S
C674 H670 0.929 . S
C674 C676 1.378 . S
C674 C678 1.350 . S
C675 C678 1.463 . S
C675 C680 1.350 . S
C675 N683 1.427 . S
C676 H667 0.930 . S
C676 C674 1.378 . S
C676 C677 1.367 . S
C677 C676 1.367 . S
C677 C679 1.433 . S
C678 C674 1.350 . S
C678 C675 1.463 . S
C678 N682 1.427 . S
C679 H669 0.929 . S
C679 C677 1.433 . S
C679 N682 1.384 . S
C680 H671 0.929 . S
C680 C672 1.378 . S
C680 C675 1.350 . S
C681 H668 0.929 . S
C681 C673 1.433 . S
C681 N683 1.384 . S
N682 C678 1.427 . S
N682 C679 1.384 . S
N683 C675 1.427 . S
N683 C681 1.384 . S
H684 C690 0.930 . S
H685 C694 0.930 . S
H686 C699 0.929 . S
H687 C697 0.929 . S
H688 C692 0.929 . S
H689 C698 0.929 . S
C690 H684 0.930 . S
C690 C691 1.367 1_545 S
C690 C698 1.378 . S
C691 C690 1.367 1_565 S
C691 C699 1.433 . S
C692 H688 0.929 . S
C692 C694 1.378 . S
C692 C696 1.350 . S
C693 C696 1.463 . S
C693 C698 1.350 . S
C693 N701 1.427 1_545 S
C694 H685 0.930 . S
C694 C692 1.378 . S
C694 C695 1.367 . S
C695 C694 1.367 . S
C695 C697 1.433 . S
C696 C692 1.350 . S
C696 C693 1.463 . S
C696 N700 1.427 . S
C697 H687 0.929 . S
C697 C695 1.433 . S
C697 N700 1.384 . S
C698 H689 0.929 . S
C698 C690 1.378 . S
C698 C693 1.350 . S
C699 H686 0.929 . S
C699 C691 1.433 . S
C699 N701 1.384 . S
N700 C696 1.427 . S
N700 C697 1.384 . S
N701 C693 1.427 1_565 S
N701 C699 1.384 . S
H702 C708 0.930 . S
H703 C712 0.930 . S
H704 C717 0.929 . S
H705 C715 0.929 . S
H706 C710 0.929 . S
H707 C716 0.941 . S
C708 H702 0.930 . S
C708 C709 1.367 . S
C708 C716 1.378 . S
C709 C708 1.367 . S
C709 C717 1.433 . S
C710 H706 0.929 . S
C710 C712 1.378 . S
C710 C714 1.350 . S
C711 C714 1.463 . S
C711 C716 1.350 . S
C711 N719 1.427 . S
C712 H703 0.930 . S
C712 C710 1.378 . S
C712 C713 1.367 1_655 S
C713 C712 1.367 1_455 S
C713 C715 1.433 . S
C714 C710 1.350 . S
C714 C711 1.463 . S
C714 N718 1.427 1_655 S
C715 H705 0.929 . S
C715 C713 1.433 . S
C715 N718 1.384 . S
C716 H707 0.941 . S
C716 C708 1.378 . S
C716 C711 1.350 . S
C717 H704 0.929 . S
C717 C709 1.433 . S
C717 N719 1.384 . S
N718 C714 1.427 1_455 S
N718 C715 1.384 . S
N719 C711 1.427 . S
N719 C717 1.384 . S
H720 C726 0.930 . S
H721 C730 0.930 . S
H722 C735 0.929 . S
H723 C733 0.929 . S
H724 C728 0.929 . S
H725 C734 0.929 . S
C726 H720 0.930 . S
C726 C727 1.367 . S
C726 C734 1.378 . S
C727 C726 1.367 . S
C727 C735 1.433 . S
C728 H724 0.929 . S
C728 C730 1.378 . S
C728 C732 1.350 . S
C729 C732 1.463 . S
C729 C734 1.350 . S
C729 N737 1.427 . S
C730 H721 0.930 . S
C730 C728 1.378 . S
C730 C731 1.367 . S
C731 C730 1.367 . S
C731 C733 1.433 . S
C732 C728 1.350 . S
C732 C729 1.463 . S
C732 N736 1.427 . S
C733 H723 0.929 . S
C733 C731 1.433 . S
C733 N736 1.384 . S
C734 H725 0.929 . S
C734 C726 1.378 . S
C734 C729 1.350 . S
C735 H722 0.929 . S
C735 C727 1.433 . S
C735 N737 1.384 . S
N736 C732 1.427 . S
N736 C733 1.384 . S
N737 C729 1.427 . S
N737 C735 1.384 . S
H738 C744 0.930 . S
H739 C748 0.930 . S
H740 C753 0.929 . S
H741 C751 0.929 . S
H742 C746 0.929 . S
H743 C752 0.929 . S
C744 H738 0.930 . S
C744 C745 1.367 . S
C744 C752 1.378 1_545 S
C745 C744 1.367 . S
C745 C753 1.433 1_545 S
C746 H742 0.929 . S
C746 C748 1.378 . S
C746 C750 1.350 . S
C747 C750 1.463 . S
C747 C752 1.350 . S
C747 N755 1.427 . S
C748 H739 0.930 . S
C748 C746 1.378 . S
C748 C749 1.367 . S
C749 C748 1.367 . S
C749 C751 1.433 . S
C750 C746 1.350 . S
C750 C747 1.463 . S
C750 N754 1.427 . S
C751 H741 0.929 . S
C751 C749 1.433 . S
C751 N754 1.384 . S
C752 H743 0.929 . S
C752 C744 1.378 1_565 S
C752 C747 1.350 . S
C753 H740 0.929 . S
C753 C745 1.433 1_565 S
C753 N755 1.384 . S
N754 C750 1.427 . S
N754 C751 1.384 . S
N755 C747 1.427 . S
N755 C753 1.384 . S
H756 C762 0.930 . S
H757 C766 0.930 . S
H758 C771 0.929 . S
H759 C769 0.929 . S
H760 C764 0.929 . S
H761 C770 0.929 . S
C762 H756 0.930 . S
C762 C763 1.367 . S
C762 C770 1.378 . S
C763 C762 1.367 . S
C763 C771 1.433 . S
C764 H760 0.929 . S
C764 C766 1.378 . S
C764 C768 1.350 . S
C765 C768 1.463 . S
C765 C770 1.350 . S
C765 N773 1.427 . S
C766 H757 0.930 . S
C766 C764 1.378 . S
C766 C767 1.367 1_455 S
C767 C766 1.367 1_655 S
C767 C769 1.433 . S
C768 C764 1.350 . S
C768 C765 1.463 . S
C768 N772 1.427 1_455 S
C769 H759 0.929 . S
C769 C767 1.433 . S
C769 N772 1.384 . S
C770 H761 0.929 . S
C770 C762 1.378 . S
C770 C765 1.350 . S
C771 H758 0.929 . S
C771 C763 1.433 . S
C771 N773 1.384 . S
N772 C768 1.427 1_655 S
N772 C769 1.384 . S
N773 C765 1.427 . S
N773 C771 1.384 . S
H774 C780 0.930 . S
H775 C784 0.930 . S
H776 C789 0.929 . S
H777 C787 0.929 . S
H778 C782 0.929 . S
H779 C788 0.929 . S
C780 H774 0.930 . S
C780 C781 1.367 . S
C780 C788 1.378 . S
C781 C780 1.367 . S
C781 C789 1.433 . S
C782 H778 0.929 . S
C782 C784 1.378 . S
C782 C786 1.350 . S
C783 C786 1.463 . S
C783 C788 1.350 . S
C783 N791 1.427 . S
C784 H775 0.930 . S
C784 C782 1.378 . S
C784 C785 1.367 1_455 S
C785 C784 1.367 1_655 S
C785 C787 1.433 . S
C786 C782 1.350 . S
C786 C783 1.463 . S
C786 N790 1.427 1_455 S
C787 H777 0.929 . S
C787 C785 1.433 . S
C787 N790 1.384 . S
C788 H779 0.929 . S
C788 C780 1.378 . S
C788 C783 1.350 . S
C789 H776 0.929 . S
C789 C781 1.433 . S
C789 N791 1.384 . S
N790 C786 1.427 1_655 S
N790 C787 1.384 . S
N791 C783 1.427 . S
N791 C789 1.384 . S
H792 C798 0.930 . S
H793 C802 0.930 . S
H794 C807 0.929 . S
H795 C805 0.929 . S
H796 C800 0.929 . S
H797 C806 0.929 . S
C798 H792 0.930 . S
C798 C799 1.367 . S
C798 C806 1.378 . S
C799 C798 1.367 . S
C799 C807 1.433 . S
C800 H796 0.929 . S
C800 C802 1.378 . S
C800 C804 1.350 . S
C801 C804 1.463 . S
C801 C806 1.350 . S
C801 N809 1.427 . S
C802 H793 0.930 . S
C802 C800 1.378 . S
C802 C803 1.367 . S
C803 C802 1.367 . S
C803 C805 1.433 . S
C804 C800 1.350 . S
C804 C801 1.463 . S
C804 N808 1.427 . S
C805 H795 0.929 . S
C805 C803 1.433 . S
C805 N808 1.384 . S
C806 H797 0.929 . S
C806 C798 1.378 . S
C806 C801 1.350 . S
C807 H794 0.929 . S
C807 C799 1.433 . S
C807 N809 1.384 . S
N808 C804 1.427 . S
N808 C805 1.384 . S
N809 C801 1.427 . S
N809 C807 1.384 . S
H810 C816 0.930 . S
H811 C820 0.930 . S
H812 C825 0.929 . S
H813 C823 0.929 . S
H814 C818 0.929 . S
H815 C824 0.929 . S
C816 H810 0.930 . S
C816 C817 1.367 . S
C816 C824 1.378 . S
C817 C816 1.367 . S
C817 C825 1.433 . S
C818 H814 0.929 . S
C818 C820 1.378 . S
C818 C822 1.350 . S
C819 C822 1.463 . S
C819 C824 1.350 . S
C819 N827 1.427 . S
C820 H811 0.930 . S
C820 C818 1.378 . S
C820 C821 1.367 1_565 S
C821 C820 1.367 1_545 S
C821 C823 1.433 . S
C822 C818 1.350 . S
C822 C819 1.463 . S
C822 N826 1.400 1_565 S
C823 H813 0.929 . S
C823 C821 1.433 . S
C823 N826 1.417 . S
C824 H815 0.929 . S
C824 C816 1.378 . S
C824 C819 1.350 . S
C825 H812 0.929 . S
C825 C817 1.433 . S
C825 N827 1.384 . S
N826 C822 1.400 1_545 S
N826 C823 1.417 . S
N827 C819 1.427 . S
N827 C825 1.384 . S
H828 C834 0.930 . S
H829 C838 0.930 . S
H830 C843 0.929 . S
H831 C841 0.929 . S
H832 C836 0.929 . S
H833 C842 0.929 . S
C834 H828 0.930 . S
C834 C835 1.367 . S
C834 C842 1.378 . S
C835 C834 1.367 . S
C835 C843 1.433 . S
C836 H832 0.929 . S
C836 C838 1.378 . S
C836 C840 1.350 . S
C837 C840 1.463 . S
C837 C842 1.350 . S
C837 N845 1.427 . S
C838 H829 0.930 . S
C838 C836 1.378 . S
C838 C839 1.367 . S
C839 C838 1.367 . S
C839 C841 1.433 . S
C840 C836 1.350 . S
C840 C837 1.463 . S
C840 N844 1.427 . S
C841 H831 0.929 . S
C841 C839 1.433 . S
C841 N844 1.384 . S
C842 H833 0.929 . S
C842 C834 1.378 . S
C842 C837 1.350 . S
C843 H830 0.929 . S
C843 C835 1.433 . S
C843 N845 1.384 . S
N844 C840 1.427 . S
N844 C841 1.384 . S
N845 C837 1.427 . S
N845 C843 1.384 . S
H846 C852 0.930 . S
H847 C856 0.930 . S
H848 C861 0.929 . S
H849 C859 0.929 . S
H850 C854 0.929 . S
H851 C860 0.929 . S
C852 H846 0.930 . S
C852 C853 1.367 . S
C852 C860 1.378 . S
C853 C852 1.367 . S
C853 C861 1.433 . S
C854 H850 0.929 . S
C854 C856 1.378 . S
C854 C858 1.350 . S
C855 C858 1.463 . S
C855 C860 1.350 . S
C855 N863 1.427 . S
C856 H847 0.930 . S
C856 C854 1.378 . S
C856 C857 1.367 . S
C857 C856 1.367 . S
C857 C859 1.433 . S
C858 C854 1.350 . S
C858 C855 1.463 . S
C858 N862 1.427 . S
C859 H849 0.929 . S
C859 C857 1.433 . S
C859 N862 1.384 . S
C860 H851 0.929 . S
C860 C852 1.378 . S
C860 C855 1.350 . S
C861 H848 0.929 . S
C861 C853 1.433 . S
C861 N863 1.384 . S
N862 C858 1.427 . S
N862 C859 1.384 . S
N863 C855 1.427 . S
N863 C861 1.384 . S
H864 C870 0.930 . S
H865 C874 0.930 . S
H866 C879 0.929 . S
H867 C877 0.929 . S
H868 C872 0.929 . S
H869 C878 0.929 . S
C870 H864 0.930 . S
C870 C871 1.367 . S
C870 C878 1.378 . S
C871 C870 1.367 . S
C871 C879 1.433 . S
C872 H868 0.929 . S
C872 C874 1.378 . S
C872 C876 1.350 . S
C873 C876 1.463 . S
C873 C878 1.350 . S
C873 N881 1.427 . S
C874 H865 0.930 . S
C874 C872 1.378 . S
C874 C875 1.367 . S
C875 C874 1.367 . S
C875 C877 1.433 . S
C876 C872 1.350 . S
C876 C873 1.463 . S
C876 N880 1.427 . S
C877 H867 0.929 . S
C877 C875 1.433 . S
C877 N880 1.384 . S
C878 H869 0.929 . S
C878 C870 1.378 . S
C878 C873 1.350 . S
C879 H866 0.929 . S
C879 C871 1.433 . S
C879 N881 1.384 . S
N880 C876 1.427 . S
N880 C877 1.384 . S
N881 C873 1.427 . S
N881 C879 1.384 . S
H882 C888 0.930 . S
H883 C892 0.930 . S
H884 C897 0.929 . S
H885 C895 0.929 1_556 S
H886 C890 0.929 . S
H887 C896 0.929 . S
C888 H882 0.930 . S
C888 C889 1.367 . S
C888 C896 1.378 . S
C889 C888 1.367 . S
C889 C897 1.433 . S
C890 H886 0.929 . S
C890 C892 1.378 . S
C890 C894 1.350 . S
C891 C894 1.463 . S
C891 C896 1.350 . S
C891 N899 1.427 . S
C892 H883 0.930 . S
C892 C890 1.378 . S
C892 C893 1.367 . S
C893 C892 1.367 . S
C893 C895 1.433 . S
C894 C890 1.350 . S
C894 C891 1.463 . S
C894 N898 1.427 . S
C895 H885 0.929 1_554 S
C895 C893 1.433 . S
C895 N898 1.384 . S
C896 H887 0.929 . S
C896 C888 1.378 . S
C896 C891 1.350 . S
C897 H884 0.929 . S
C897 C889 1.433 . S
C897 N899 1.384 . S
N898 C894 1.427 . S
N898 C895 1.384 . S
N899 C891 1.427 . S
N899 C897 1.384 . S
H900 C906 0.930 . S
H901 C910 0.946 . S
H902 C915 0.929 . S
H903 C913 0.929 . S
H904 C908 0.929 . S
H905 C914 0.929 . S
C906 H900 0.930 . S
C906 C907 1.367 . S
C906 C914 1.378 . S
C907 C906 1.367 . S
C907 C915 1.433 . S
C908 H904 0.929 . S
C908 C910 1.378 . S
C908 C912 1.350 . S
C909 C912 1.463 . S
C909 C914 1.350 . S
C909 N917 1.427 . S
C910 H901 0.946 . S
C910 C908 1.378 . S
C910 C911 1.367 . S
C911 C910 1.367 . S
C911 C913 1.433 . S
C912 C908 1.350 . S
C912 C909 1.463 . S
C912 N916 1.427 . S
C913 H903 0.929 . S
C913 C911 1.433 . S
C913 N916 1.384 . S
C914 H905 0.929 . S
C914 C906 1.378 . S
C914 C909 1.350 . S
C915 H902 0.929 . S
C915 C907 1.433 . S
C915 N917 1.384 . S
N916 C912 1.427 . S
N916 C913 1.384 . S
N917 C909 1.427 . S
N917 C915 1.384 . S
H918 C924 0.930 . S
H919 C928 0.930 . S
H920 C933 0.929 . S
H921 C931 0.929 . S
H922 C926 0.929 . S
H923 C932 0.929 . S
C924 H918 0.930 . S
C924 C925 1.367 . S
C924 C932 1.378 . S
C925 C924 1.367 . S
C925 C933 1.433 . S
C926 H922 0.929 . S
C926 C928 1.378 . S
C926 C930 1.350 . S
C927 C930 1.463 . S
C927 C932 1.350 . S
C927 N935 1.427 . S
C928 H919 0.930 . S
C928 C926 1.378 . S
C928 C929 1.367 . S
C929 C928 1.367 . S
C929 C931 1.433 . S
C930 C926 1.350 . S
C930 C927 1.463 . S
C930 N934 1.427 . S
C931 H921 0.929 . S
C931 C929 1.433 . S
C931 N934 1.384 . S
C932 H923 0.929 . S
C932 C924 1.378 . S
C932 C927 1.350 . S
C933 H920 0.929 . S
C933 C925 1.433 . S
C933 N935 1.384 . S
N934 C930 1.427 . S
N934 C931 1.384 . S
N935 C927 1.427 . S
N935 C933 1.384 . S
H936 C942 0.930 . S
H937 C946 0.930 . S
H938 C951 0.929 . S
H939 C949 0.929 . S
H940 C944 0.929 . S
H941 C950 0.929 . S
C942 H936 0.930 . S
C942 C943 1.367 . S
C942 C950 1.378 . S
C943 C942 1.367 . S
C943 C951 1.433 . S
C944 H940 0.929 . S
C944 C946 1.378 . S
C944 C948 1.350 . S
C945 C948 1.463 . S
C945 C950 1.350 . S
C945 N953 1.427 . S
C946 H937 0.930 . S
C946 C944 1.378 . S
C946 C947 1.367 . S
C947 C946 1.367 . S
C947 C949 1.433 . S
C948 C944 1.350 . S
C948 C945 1.463 . S
C948 N952 1.427 . S
C949 H939 0.929 . S
C949 C947 1.433 . S
C949 N952 1.384 . S
C950 H941 0.929 . S
C950 C942 1.378 . S
C950 C945 1.350 . S
C951 H938 0.929 . S
C951 C943 1.433 . S
C951 N953 1.384 . S
N952 C948 1.427 . S
N952 C949 1.384 . S
N953 C945 1.427 . S
N953 C951 1.384 . S
H954 C960 0.930 . S
H955 C964 0.930 . S
H956 C969 0.929 . S
H957 C967 0.929 . S
H958 C962 0.929 . S
H959 C968 0.929 . S
C960 H954 0.930 . S
C960 C961 1.367 . S
C960 C968 1.378 . S
C961 C960 1.367 . S
C961 C969 1.433 . S
C962 H958 0.929 . S
C962 C964 1.378 . S
C962 C966 1.350 . S
C963 C966 1.463 . S
C963 C968 1.350 . S
C963 N971 1.427 . S
C964 H955 0.930 . S
C964 C962 1.378 . S
C964 C965 1.367 . S
C965 C964 1.367 . S
C965 C967 1.433 . S
C966 C962 1.350 . S
C966 C963 1.463 . S
C966 N970 1.427 . S
C967 H957 0.929 . S
C967 C965 1.433 . S
C967 N970 1.384 . S
C968 H959 0.929 . S
C968 C960 1.378 . S
C968 C963 1.350 . S
C969 H956 0.929 . S
C969 C961 1.433 . S
C969 N971 1.384 . S
N970 C966 1.427 . S
N970 C967 1.384 . S
N971 C963 1.427 . S
N971 C969 1.384 . S
H972 C978 0.930 . S
H973 C982 0.930 . S
H974 C987 0.929 . S
H975 C985 0.929 . S
H976 C980 0.929 . S
H977 C986 0.929 . S
C978 H972 0.930 . S
C978 C979 1.367 . S
C978 C986 1.378 . S
C979 C978 1.367 . S
C979 C987 1.433 . S
C980 H976 0.929 . S
C980 C982 1.378 . S
C980 C984 1.350 . S
C981 C984 1.463 . S
C981 C986 1.350 . S
C981 N989 1.427 . S
C982 H973 0.930 . S
C982 C980 1.378 . S
C982 C983 1.367 . S
C983 C982 1.367 . S
C983 C985 1.433 . S
C984 C980 1.350 . S
C984 C981 1.463 . S
C984 N988 1.427 . S
C985 H975 0.929 . S
C985 C983 1.433 . S
C985 N988 1.384 . S
C986 H977 0.929 . S
C986 C978 1.378 . S
C986 C981 1.350 . S
C987 H974 0.929 . S
C987 C979 1.433 . S
C987 N989 1.384 . S
N988 C984 1.427 . S
N988 C985 1.384 . S
N989 C981 1.427 . S
N989 C987 1.384 . S
H990 C996 0.930 . S
H991 C1000 0.930 . S
H992 C1005 0.929 . S
H993 C1003 0.929 . S
H994 C998 0.929 . S
H995 C1004 0.929 . S
C996 H990 0.930 . S
C996 C997 1.367 . S
C996 C1004 1.378 . S
C997 C996 1.367 . S
C997 C1005 1.433 . S
C998 H994 0.929 . S
C998 C1000 1.378 . S
C998 C1002 1.350 . S
C999 C1002 1.463 . S
C999 C1004 1.350 . S
C999 N1007 1.427 . S
C1000 H991 0.930 . S
C1000 C998 1.378 . S
C1000 C1001 1.367 . S
C1001 C1000 1.367 . S
C1001 C1003 1.433 . S
C1002 C998 1.350 . S
C1002 C999 1.463 . S
C1002 N1006 1.427 . S
C1003 H993 0.929 . S
C1003 C1001 1.433 . S
C1003 N1006 1.384 . S
C1004 H995 0.929 . S
C1004 C996 1.378 . S
C1004 C999 1.350 . S
C1005 H992 0.929 . S
C1005 C997 1.433 . S
C1005 N1007 1.384 . S
N1006 C1002 1.427 . S
N1006 C1003 1.384 . S
N1007 C999 1.427 . S
N1007 C1005 1.384 . S
H1008 C1014 0.930 1_554 S
H1009 C1018 0.930 . S
H1010 C1023 0.929 . S
H1011 C1021 0.929 . S
H1012 C1016 0.929 . S
H1013 C1022 0.929 . S
C1014 H1008 0.930 1_556 S
C1014 C1015 1.367 . S
C1014 C1022 1.378 . S
C1015 C1014 1.367 . S
C1015 C1023 1.433 . S
C1016 H1012 0.929 . S
C1016 C1018 1.378 . S
C1016 C1020 1.350 . S
C1017 C1020 1.463 . S
C1017 C1022 1.350 . S
C1017 N1025 1.427 . S
C1018 H1009 0.930 . S
C1018 C1016 1.378 . S
C1018 C1019 1.367 . S
C1019 C1018 1.367 . S
C1019 C1021 1.433 . S
C1020 C1016 1.350 . S
C1020 C1017 1.463 . S
C1020 N1024 1.427 . S
C1021 H1011 0.929 . S
C1021 C1019 1.433 . S
C1021 N1024 1.384 . S
C1022 H1013 0.929 . S
C1022 C1014 1.378 . S
C1022 C1017 1.350 . S
C1023 H1010 0.929 . S
C1023 C1015 1.433 . S
C1023 N1025 1.384 . S
N1024 C1020 1.427 . S
N1024 C1021 1.384 . S
N1025 C1017 1.427 . S
N1025 C1023 1.384 . S
H1026 C1032 0.930 . S
H1027 C1036 0.930 . S
H1028 C1041 0.929 . S
H1029 C1039 0.929 . S
H1030 C1034 0.929 . S
H1031 C1040 0.929 . S
C1032 H1026 0.930 . S
C1032 C1033 1.367 . S
C1032 C1040 1.378 . S
C1033 C1032 1.367 . S
C1033 C1041 1.433 . S
C1034 H1030 0.929 . S
C1034 C1036 1.378 . S
C1034 C1038 1.350 . S
C1035 C1038 1.463 . S
C1035 C1040 1.350 . S
C1035 N1043 1.427 . S
C1036 H1027 0.930 . S
C1036 C1034 1.378 . S
C1036 C1037 1.367 . S
C1037 C1036 1.367 . S
C1037 C1039 1.433 . S
C1038 C1034 1.350 . S
C1038 C1035 1.463 . S
C1038 N1042 1.427 . S
C1039 H1029 0.929 . S
C1039 C1037 1.433 . S
C1039 N1042 1.384 . S
C1040 H1031 0.929 . S
C1040 C1032 1.378 . S
C1040 C1035 1.350 . S
C1041 H1028 0.929 . S
C1041 C1033 1.433 . S
C1041 N1043 1.384 . S
N1042 C1038 1.427 . S
N1042 C1039 1.384 . S
N1043 C1035 1.427 . S
N1043 C1041 1.384 . S
H1044 C1050 0.930 . S
H1045 C1054 0.930 . S
H1046 C1059 0.929 . S
H1047 C1057 0.929 . S
H1048 C1052 0.929 . S
H1049 C1058 0.929 . S
C1050 H1044 0.930 . S
C1050 C1051 1.367 . S
C1050 C1058 1.378 . S
C1051 C1050 1.367 . S
C1051 C1059 1.433 . S
C1052 H1048 0.929 . S
C1052 C1054 1.378 . S
C1052 C1056 1.350 . S
C1053 C1056 1.463 1_455 S
C1053 C1058 1.350 . S
C1053 N1061 1.427 . S
C1054 H1045 0.930 . S
C1054 C1052 1.378 . S
C1054 C1055 1.367 . S
C1055 C1054 1.367 . S
C1055 C1057 1.433 . S
C1056 C1052 1.350 . S
C1056 C1053 1.463 1_655 S
C1056 N1060 1.427 . S
C1057 H1047 0.929 . S
C1057 C1055 1.433 . S
C1057 N1060 1.384 . S
C1058 H1049 0.929 . S
C1058 C1050 1.378 . S
C1058 C1053 1.350 . S
C1059 H1046 0.929 . S
C1059 C1051 1.433 . S
C1059 N1061 1.384 . S
N1060 C1056 1.427 . S
N1060 C1057 1.384 . S
N1061 C1053 1.427 . S
N1061 C1059 1.384 . S
H1062 C1068 0.930 . S
H1063 C1072 0.930 . S
H1064 C1077 0.929 . S
H1065 C1075 0.929 . S
H1066 C1070 0.929 . S
H1067 C1076 0.929 . S
C1068 H1062 0.930 . S
C1068 C1069 1.367 . S
C1068 C1076 1.378 . S
C1069 C1068 1.367 . S
C1069 C1077 1.433 . S
C1070 H1066 0.929 . S
C1070 C1072 1.378 . S
C1070 C1074 1.350 . S
C1071 C1074 1.463 . S
C1071 C1076 1.350 . S
C1071 N1079 1.427 . S
C1072 H1063 0.930 . S
C1072 C1070 1.378 . S
C1072 C1073 1.367 . S
C1073 C1072 1.367 . S
C1073 C1075 1.433 . S
C1074 C1070 1.350 . S
C1074 C1071 1.463 . S
C1074 N1078 1.427 . S
C1075 H1065 0.929 . S
C1075 C1073 1.433 . S
C1075 N1078 1.384 . S
C1076 H1067 0.929 . S
C1076 C1068 1.378 . S
C1076 C1071 1.350 . S
C1077 H1064 0.929 . S
C1077 C1069 1.433 . S
C1077 N1079 1.384 . S
N1078 C1074 1.427 . S
N1078 C1075 1.384 . S
N1079 C1071 1.427 . S
N1079 C1077 1.384 . S
H1080 C1086 0.930 . S
H1081 C1090 0.930 . S
H1082 C1095 0.929 . S
H1083 C1093 0.929 . S
H1084 C1088 0.929 . S
H1085 C1094 0.929 . S
C1086 H1080 0.930 . S
C1086 C1087 1.367 . S
C1086 C1094 1.378 . S
C1087 C1086 1.367 . S
C1087 C1095 1.433 . S
C1088 H1084 0.929 . S
C1088 C1090 1.378 . S
C1088 C1092 1.350 . S
C1089 C1092 1.463 1_545 S
C1089 C1094 1.350 . S
C1089 N1097 1.427 . S
C1090 H1081 0.930 . S
C1090 C1088 1.378 . S
C1090 C1091 1.367 . S
C1091 C1090 1.367 . S
C1091 C1093 1.433 . S
C1092 C1088 1.350 . S
C1092 C1089 1.463 1_565 S
C1092 N1096 1.428 . S
C1093 H1083 0.929 . S
C1093 C1091 1.433 . S
C1093 N1096 1.422 . S
C1094 H1085 0.929 . S
C1094 C1086 1.378 . S
C1094 C1089 1.350 . S
C1095 H1082 0.929 . S
C1095 C1087 1.433 . S
C1095 N1097 1.420 . S
N1096 C1092 1.428 . S
N1096 C1093 1.422 . S
N1097 C1089 1.427 . S
N1097 C1095 1.420 . S
H1098 C1104 0.930 . S
H1099 C1108 0.930 . S
H1100 C1113 0.929 . S
H1101 C1111 0.929 . S
H1102 C1106 0.929 . S
H1103 C1112 0.929 . S
C1104 H1098 0.930 . S
C1104 C1105 1.367 . S
C1104 C1112 1.378 . S
C1105 C1104 1.367 . S
C1105 C1113 1.433 . S
C1106 H1102 0.929 . S
C1106 C1108 1.378 . S
C1106 C1110 1.350 . S
C1107 C1110 1.463 1_565 S
C1107 C1112 1.350 . S
C1107 N1115 1.448 . S
C1108 H1099 0.930 . S
C1108 C1106 1.378 . S
C1108 C1109 1.367 . S
C1109 C1108 1.367 . S
C1109 C1111 1.433 . S
C1110 C1106 1.350 . S
C1110 C1107 1.463 1_545 S
C1110 N1114 1.450 . S
C1111 H1101 0.929 . S
C1111 C1109 1.433 . S
C1111 N1114 1.406 . S
C1112 H1103 0.929 . S
C1112 C1104 1.378 . S
C1112 C1107 1.350 . S
C1113 H1100 0.929 . S
C1113 C1105 1.433 . S
C1113 N1115 1.404 . S
N1114 C1110 1.450 . S
N1114 C1111 1.406 . S
N1115 C1107 1.448 . S
N1115 C1113 1.404 . S
H1116 C1122 0.930 . S
H1117 C1126 0.930 . S
H1118 C1131 0.929 . S
H1119 C1129 0.929 . S
H1120 C1124 0.929 . S
H1121 C1130 0.929 . S
C1122 H1116 0.930 . S
C1122 C1123 1.367 . S
C1122 C1130 1.378 . S
C1123 C1122 1.367 . S
C1123 C1131 1.433 . S
C1124 H1120 0.929 . S
C1124 C1126 1.378 . S
C1124 C1128 1.350 . S
C1125 C1128 1.463 1_655 S
C1125 C1130 1.350 . S
C1125 N1133 1.427 . S
C1126 H1117 0.930 . S
C1126 C1124 1.378 . S
C1126 C1127 1.367 . S
C1127 C1126 1.367 . S
C1127 C1129 1.433 . S
C1128 C1124 1.350 . S
C1128 C1125 1.463 1_455 S
C1128 N1132 1.427 . S
C1129 H1119 0.929 . S
C1129 C1127 1.433 . S
C1129 N1132 1.384 . S
C1130 H1121 0.929 . S
C1130 C1122 1.378 . S
C1130 C1125 1.350 . S
C1131 H1118 0.929 . S
C1131 C1123 1.433 . S
C1131 N1133 1.384 . S
N1132 C1128 1.427 . S
N1132 C1129 1.384 . S
N1133 C1125 1.427 . S
N1133 C1131 1.384 . S
H1134 C1140 0.930 . S
H1135 C1144 0.930 . S
H1136 C1149 0.929 . S
H1137 C1147 0.929 . S
H1138 C1142 0.929 . S
H1139 C1148 0.929 . S
C1140 H1134 0.930 . S
C1140 C1141 1.367 . S
C1140 C1148 1.378 . S
C1141 C1140 1.367 . S
C1141 C1149 1.433 . S
C1142 H1138 0.929 . S
C1142 C1144 1.378 . S
C1142 C1146 1.350 . S
C1143 C1146 1.463 . S
C1143 C1148 1.350 . S
C1143 N1151 1.427 . S
C1144 H1135 0.930 . S
C1144 C1142 1.378 . S
C1144 C1145 1.367 . S
C1145 C1144 1.367 . S
C1145 C1147 1.433 . S
C1146 C1142 1.350 . S
C1146 C1143 1.463 . S
C1146 N1150 1.427 . S
C1147 H1137 0.929 . S
C1147 C1145 1.433 . S
C1147 N1150 1.384 . S
C1148 H1139 0.929 . S
C1148 C1140 1.378 . S
C1148 C1143 1.350 . S
C1149 H1136 0.929 . S
C1149 C1141 1.433 . S
C1149 N1151 1.384 . S
N1150 C1146 1.427 . S
N1150 C1147 1.384 . S
N1151 C1143 1.427 . S
N1151 C1149 1.384 . S
H1152 C1158 0.930 . S
H1153 C1162 0.930 . S
H1154 C1167 0.929 . S
H1155 C1165 0.929 . S
H1156 C1160 0.929 . S
H1157 C1166 0.929 . S
C1158 H1152 0.930 . S
C1158 C1159 1.367 . S
C1158 C1166 1.378 . S
C1159 C1158 1.367 . S
C1159 C1167 1.433 . S
C1160 H1156 0.929 . S
C1160 C1162 1.378 . S
C1160 C1164 1.350 . S
C1161 C1164 1.463 . S
C1161 C1166 1.350 . S
C1161 N1169 1.427 . S
C1162 H1153 0.930 . S
C1162 C1160 1.378 . S
C1162 C1163 1.367 . S
C1163 C1162 1.367 . S
C1163 C1165 1.433 . S
C1164 C1160 1.350 . S
C1164 C1161 1.463 . S
C1164 N1168 1.427 . S
C1165 H1155 0.929 . S
C1165 C1163 1.433 . S
C1165 N1168 1.384 . S
C1166 H1157 0.929 . S
C1166 C1158 1.378 . S
C1166 C1161 1.350 . S
C1167 H1154 0.929 . S
C1167 C1159 1.433 . S
C1167 N1169 1.384 . S
N1168 C1164 1.427 . S
N1168 C1165 1.384 . S
N1169 C1161 1.427 . S
N1169 C1167 1.384 . S
H1170 C1176 0.930 . S
H1171 C1180 0.930 . S
H1172 C1185 0.929 . S
H1173 C1183 0.929 . S
H1174 C1178 0.929 . S
H1175 C1184 0.929 . S
C1176 H1170 0.930 . S
C1176 C1177 1.367 . S
C1176 C1184 1.378 . S
C1177 C1176 1.367 . S
C1177 C1185 1.433 . S
C1178 H1174 0.929 . S
C1178 C1180 1.378 . S
C1178 C1182 1.350 . S
C1179 C1182 1.463 . S
C1179 C1184 1.350 . S
C1179 N1187 1.427 . S
C1180 H1171 0.930 . S
C1180 C1178 1.378 . S
C1180 C1181 1.367 . S
C1181 C1180 1.367 . S
C1181 C1183 1.433 . S
C1182 C1178 1.350 . S
C1182 C1179 1.463 . S
C1182 N1186 1.427 . S
C1183 H1173 0.929 . S
C1183 C1181 1.433 . S
C1183 N1186 1.384 . S
C1184 H1175 0.929 . S
C1184 C1176 1.378 . S
C1184 C1179 1.350 . S
C1185 H1172 0.929 . S
C1185 C1177 1.433 . S
C1185 N1187 1.384 . S
N1186 C1182 1.427 . S
N1186 C1183 1.384 . S
N1187 C1179 1.427 . S
N1187 C1185 1.384 . S
H1188 C1194 0.930 . S
H1189 C1198 0.930 . S
H1190 C1203 0.929 . S
H1191 C1201 0.929 . S
H1192 C1196 0.929 . S
H1193 C1202 0.929 . S
C1194 H1188 0.930 . S
C1194 C1195 1.367 . S
C1194 C1202 1.378 . S
C1195 C1194 1.367 . S
C1195 C1203 1.433 . S
C1196 H1192 0.929 . S
C1196 C1198 1.378 . S
C1196 C1200 1.350 . S
C1197 C1200 1.463 . S
C1197 C1202 1.350 . S
C1197 N1205 1.427 . S
C1198 H1189 0.930 . S
C1198 C1196 1.378 . S
C1198 C1199 1.367 . S
C1199 C1198 1.367 . S
C1199 C1201 1.433 . S
C1200 C1196 1.350 . S
C1200 C1197 1.463 . S
C1200 N1204 1.427 . S
C1201 H1191 0.929 . S
C1201 C1199 1.433 . S
C1201 N1204 1.384 . S
C1202 H1193 0.929 . S
C1202 C1194 1.378 . S
C1202 C1197 1.350 . S
C1203 H1190 0.929 . S
C1203 C1195 1.433 . S
C1203 N1205 1.384 . S
N1204 C1200 1.427 . S
N1204 C1201 1.384 . S
N1205 C1197 1.427 . S
N1205 C1203 1.384 . S
H1206 C1212 0.930 . S
H1207 C1216 0.930 . S
H1208 C1221 0.929 . S
H1209 C1219 0.929 . S
H1210 C1214 0.929 . S
H1211 C1220 0.929 . S
C1212 H1206 0.930 . S
C1212 C1213 1.367 . S
C1212 C1220 1.378 . S
C1213 C1212 1.367 . S
C1213 C1221 1.433 . S
C1214 H1210 0.929 . S
C1214 C1216 1.378 . S
C1214 C1218 1.350 . S
C1215 C1218 1.463 . S
C1215 C1220 1.350 . S
C1215 N1223 1.427 . S
C1216 H1207 0.930 . S
C1216 C1214 1.378 . S
C1216 C1217 1.367 . S
C1217 C1216 1.367 . S
C1217 C1219 1.433 . S
C1218 C1214 1.350 . S
C1218 C1215 1.463 . S
C1218 N1222 1.427 . S
C1219 H1209 0.929 . S
C1219 C1217 1.433 . S
C1219 N1222 1.384 . S
C1220 H1211 0.929 . S
C1220 C1212 1.378 . S
C1220 C1215 1.350 . S
C1221 H1208 0.929 . S
C1221 C1213 1.433 . S
C1221 N1223 1.384 . S
N1222 C1218 1.427 . S
N1222 C1219 1.384 . S
N1223 C1215 1.427 . S
N1223 C1221 1.384 . S
H1224 C1230 0.930 . S
H1225 C1234 0.930 . S
H1226 C1239 0.929 . S
H1227 C1237 0.929 . S
H1228 C1232 0.929 . S
H1229 C1238 0.929 . S
C1230 H1224 0.930 . S
C1230 C1231 1.367 . S
C1230 C1238 1.378 . S
C1231 C1230 1.367 . S
C1231 C1239 1.433 . S
C1232 H1228 0.929 . S
C1232 C1234 1.378 . S
C1232 C1236 1.350 . S
C1233 C1236 1.463 . S
C1233 C1238 1.350 . S
C1233 N1241 1.427 . S
C1234 H1225 0.930 . S
C1234 C1232 1.378 . S
C1234 C1235 1.367 . S
C1235 C1234 1.367 . S
C1235 C1237 1.433 . S
C1236 C1232 1.350 . S
C1236 C1233 1.463 . S
C1236 N1240 1.427 . S
C1237 H1227 0.929 . S
C1237 C1235 1.433 . S
C1237 N1240 1.384 . S
C1238 H1229 0.929 . S
C1238 C1230 1.378 . S
C1238 C1233 1.350 . S
C1239 H1226 0.929 . S
C1239 C1231 1.433 . S
C1239 N1241 1.384 . S
N1240 C1236 1.427 . S
N1240 C1237 1.384 . S
N1241 C1233 1.427 . S
N1241 C1239 1.384 . S
H1242 C1248 0.930 . S
H1243 C1252 0.930 . S
H1244 C1257 0.929 . S
H1245 C1255 0.929 . S
H1246 C1250 0.929 . S
H1247 C1256 0.929 . S
C1248 H1242 0.930 . S
C1248 C1249 1.367 . S
C1248 C1256 1.378 . S
C1249 C1248 1.367 . S
C1249 C1257 1.433 . S
C1250 H1246 0.929 . S
C1250 C1252 1.378 . S
C1250 C1254 1.350 . S
C1251 C1254 1.463 . S
C1251 C1256 1.350 . S
C1251 N1259 1.427 . S
C1252 H1243 0.930 . S
C1252 C1250 1.378 . S
C1252 C1253 1.367 . S
C1253 C1252 1.367 . S
C1253 C1255 1.433 . S
C1254 C1250 1.350 . S
C1254 C1251 1.463 . S
C1254 N1258 1.427 . S
C1255 H1245 0.929 . S
C1255 C1253 1.433 . S
C1255 N1258 1.384 . S
C1256 H1247 0.929 . S
C1256 C1248 1.378 . S
C1256 C1251 1.350 . S
C1257 H1244 0.929 . S
C1257 C1249 1.433 . S
C1257 N1259 1.384 . S
N1258 C1254 1.427 . S
N1258 C1255 1.384 . S
N1259 C1251 1.427 . S
N1259 C1257 1.384 . S
H1260 C1266 0.930 . S
H1261 C1270 0.930 . S
H1262 C1275 0.929 . S
H1263 C1273 0.929 . S
H1264 C1268 0.929 . S
H1265 C1274 0.929 . S
C1266 H1260 0.930 . S
C1266 C1267 1.367 . S
C1266 C1274 1.378 . S
C1267 C1266 1.367 . S
C1267 C1275 1.433 . S
C1268 H1264 0.929 . S
C1268 C1270 1.378 . S
C1268 C1272 1.350 . S
C1269 C1272 1.463 . S
C1269 C1274 1.350 . S
C1269 N1277 1.427 . S
C1270 H1261 0.930 . S
C1270 C1268 1.378 . S
C1270 C1271 1.367 . S
C1271 C1270 1.367 . S
C1271 C1273 1.433 . S
C1272 C1268 1.350 . S
C1272 C1269 1.463 . S
C1272 N1276 1.427 . S
C1273 H1263 0.929 . S
C1273 C1271 1.433 . S
C1273 N1276 1.384 . S
C1274 H1265 0.929 . S
C1274 C1266 1.378 . S
C1274 C1269 1.350 . S
C1275 H1262 0.929 . S
C1275 C1267 1.433 . S
C1275 N1277 1.384 . S
N1276 C1272 1.427 . S
N1276 C1273 1.384 . S
N1277 C1269 1.427 . S
N1277 C1275 1.384 . S
H1278 C1284 0.930 . S
H1279 C1288 0.930 . S
H1280 C1293 0.929 . S
H1281 C1291 0.929 . S
H1282 C1286 0.929 . S
H1283 C1292 0.929 . S
C1284 H1278 0.930 . S
C1284 C1285 1.367 . S
C1284 C1292 1.378 . S
C1285 C1284 1.367 . S
C1285 C1293 1.433 . S
C1286 H1282 0.929 . S
C1286 C1288 1.378 . S
C1286 C1290 1.350 . S
C1287 C1290 1.463 . S
C1287 C1292 1.350 . S
C1287 N1295 1.427 . S
C1288 H1279 0.930 . S
C1288 C1286 1.378 . S
C1288 C1289 1.367 . S
C1289 C1288 1.367 . S
C1289 C1291 1.433 . S
C1290 C1286 1.350 . S
C1290 C1287 1.463 . S
C1290 N1294 1.427 . S
C1291 H1281 0.929 . S
C1291 C1289 1.433 . S
C1291 N1294 1.384 . S
C1292 H1283 0.929 . S
C1292 C1284 1.378 . S
C1292 C1287 1.350 . S
C1293 H1280 0.929 . S
C1293 C1285 1.433 . S
C1293 N1295 1.384 . S
N1294 C1290 1.427 . S
N1294 C1291 1.384 . S
N1295 C1287 1.427 . S
N1295 C1293 1.384 . S
H1296 C1302 0.930 . S
H1297 C1306 0.930 . S
H1298 C1311 0.929 . S
H1299 C1309 0.929 . S
H1300 C1304 0.929 . S
H1301 C1310 0.929 . S
C1302 H1296 0.930 . S
C1302 C1303 1.367 . S
C1302 C1310 1.378 . S
C1303 C1302 1.367 . S
C1303 C1311 1.433 . S
C1304 H1300 0.929 . S
C1304 C1306 1.378 . S
C1304 C1308 1.350 . S
C1305 C1308 1.463 . S
C1305 C1310 1.350 . S
C1305 N1313 1.427 . S
C1306 H1297 0.930 . S
C1306 C1304 1.378 . S
C1306 C1307 1.367 . S
C1307 C1306 1.367 . S
C1307 C1309 1.433 . S
C1308 C1304 1.350 . S
C1308 C1305 1.463 . S
C1308 N1312 1.427 . S
C1309 H1299 0.929 . S
C1309 C1307 1.433 . S
C1309 N1312 1.384 . S
C1310 H1301 0.929 . S
C1310 C1302 1.378 . S
C1310 C1305 1.350 . S
C1311 H1298 0.929 . S
C1311 C1303 1.433 . S
C1311 N1313 1.384 . S
N1312 C1308 1.427 . S
N1312 C1309 1.384 . S
N1313 C1305 1.427 . S
N1313 C1311 1.384 . S
H1314 C1320 0.930 . S
H1315 C1324 0.930 . S
H1316 C1329 0.929 . S
H1317 C1327 0.929 . S
H1318 C1322 0.929 . S
H1319 C1328 0.929 . S
C1320 H1314 0.930 . S
C1320 C1321 1.367 . S
C1320 C1328 1.378 . S
C1321 C1320 1.367 . S
C1321 C1329 1.433 . S
C1322 H1318 0.929 . S
C1322 C1324 1.378 . S
C1322 C1326 1.350 . S
C1323 C1326 1.463 . S
C1323 C1328 1.350 . S
C1323 N1331 1.427 . S
C1324 H1315 0.930 . S
C1324 C1322 1.378 . S
C1324 C1325 1.367 . S
C1325 C1324 1.367 . S
C1325 C1327 1.433 . S
C1326 C1322 1.350 . S
C1326 C1323 1.463 . S
C1326 N1330 1.427 . S
C1327 H1317 0.929 . S
C1327 C1325 1.433 . S
C1327 N1330 1.384 . S
C1328 H1319 0.929 . S
C1328 C1320 1.378 . S
C1328 C1323 1.350 . S
C1329 H1316 0.929 . S
C1329 C1321 1.433 . S
C1329 N1331 1.384 . S
N1330 C1326 1.427 . S
N1330 C1327 1.384 . S
N1331 C1323 1.427 . S
N1331 C1329 1.384 . S
H1332 C1338 0.930 . S
H1333 C1342 0.930 . S
H1334 C1347 0.929 . S
H1335 C1345 0.929 . S
H1336 C1340 0.929 . S
H1337 C1346 0.929 . S
C1338 H1332 0.930 . S
C1338 C1339 1.367 . S
C1338 C1346 1.378 . S
C1339 C1338 1.367 . S
C1339 C1347 1.433 . S
C1340 H1336 0.929 . S
C1340 C1342 1.378 . S
C1340 C1344 1.350 . S
C1341 C1344 1.463 . S
C1341 C1346 1.350 . S
C1341 N1349 1.427 . S
C1342 H1333 0.930 . S
C1342 C1340 1.378 . S
C1342 C1343 1.367 . S
C1343 C1342 1.367 . S
C1343 C1345 1.433 . S
C1344 C1340 1.350 . S
C1344 C1341 1.463 . S
C1344 N1348 1.427 . S
C1345 H1335 0.929 . S
C1345 C1343 1.433 . S
C1345 N1348 1.384 . S
C1346 H1337 0.929 . S
C1346 C1338 1.378 . S
C1346 C1341 1.350 . S
C1347 H1334 0.929 . S
C1347 C1339 1.433 . S
C1347 N1349 1.384 . S
N1348 C1344 1.427 . S
N1348 C1345 1.384 . S
N1349 C1341 1.427 . S
N1349 C1347 1.384 . S
H1350 C1356 0.930 . S
H1351 C1360 0.930 . S
H1352 C1365 0.929 . S
H1353 C1363 0.929 . S
H1354 C1358 0.929 . S
H1355 C1364 0.929 . S
C1356 H1350 0.930 . S
C1356 C1357 1.367 . S
C1356 C1364 1.378 . S
C1357 C1356 1.367 . S
C1357 C1365 1.433 . S
C1358 H1354 0.929 . S
C1358 C1360 1.378 . S
C1358 C1362 1.350 . S
C1359 C1362 1.463 . S
C1359 C1364 1.350 . S
C1359 N1367 1.427 . S
C1360 H1351 0.930 . S
C1360 C1358 1.378 . S
C1360 C1361 1.367 . S
C1361 C1360 1.367 . S
C1361 C1363 1.433 . S
C1362 C1358 1.350 . S
C1362 C1359 1.463 . S
C1362 N1366 1.427 . S
C1363 H1353 0.929 . S
C1363 C1361 1.433 . S
C1363 N1366 1.384 . S
C1364 H1355 0.929 . S
C1364 C1356 1.378 . S
C1364 C1359 1.350 . S
C1365 H1352 0.929 . S
C1365 C1357 1.433 . S
C1365 N1367 1.384 . S
N1366 C1362 1.427 . S
N1366 C1363 1.384 . S
N1367 C1359 1.427 . S
N1367 C1365 1.384 . S
H1368 C1374 0.929 . S
H1369 C1378 0.929 . S
H1370 C1383 0.929 . S
H1371 C1381 0.929 . S
H1372 C1376 0.929 . S
H1373 C1382 0.929 . S
C1374 H1368 0.929 . S
C1374 C1375 1.374 1_655 S
C1374 C1382 1.372 . S
C1375 C1374 1.374 1_455 S
C1375 C1383 1.433 . S
C1376 H1372 0.929 . S
C1376 C1378 1.372 . S
C1376 C1380 1.350 1_455 S
C1377 C1380 1.463 1_455 S
C1377 C1382 1.350 1_455 S
C1377 N1385 1.427 . S
C1378 H1369 0.929 . S
C1378 C1376 1.372 . S
C1378 C1379 1.374 1_455 S
C1379 C1378 1.374 1_655 S
C1379 C1381 1.433 . S
C1380 C1376 1.350 1_655 S
C1380 C1377 1.463 1_655 S
C1380 N1384 1.427 . S
C1381 H1371 0.929 . S
C1381 C1379 1.433 . S
C1381 N1384 1.384 . S
C1382 H1373 0.929 . S
C1382 C1374 1.372 . S
C1382 C1377 1.350 1_655 S
C1383 H1370 0.929 . S
C1383 C1375 1.433 . S
C1383 N1385 1.384 . S
N1384 C1380 1.427 . S
N1384 C1381 1.384 . S
N1385 C1377 1.427 . S
N1385 C1383 1.384 . S
H1386 C1392 0.930 . S
H1387 C1396 0.930 . S
H1388 C1401 0.929 . S
H1389 C1399 0.929 . S
H1390 C1394 0.929 . S
H1391 C1400 0.929 . S
C1392 H1386 0.930 . S
C1392 C1393 1.367 . S
C1392 C1400 1.378 . S
C1393 C1392 1.367 . S
C1393 C1401 1.433 . S
C1394 H1390 0.929 . S
C1394 C1396 1.378 . S
C1394 C1398 1.350 . S
C1395 C1398 1.463 . S
C1395 C1400 1.350 . S
C1395 N1403 1.427 . S
C1396 H1387 0.930 . S
C1396 C1394 1.378 . S
C1396 C1397 1.367 . S
C1397 C1396 1.367 . S
C1397 C1399 1.433 . S
C1398 C1394 1.350 . S
C1398 C1395 1.463 . S
C1398 N1402 1.427 . S
C1399 H1389 0.929 . S
C1399 C1397 1.433 . S
C1399 N1402 1.384 . S
C1400 H1391 0.929 . S
C1400 C1392 1.378 . S
C1400 C1395 1.350 . S
C1401 H1388 0.929 . S
C1401 C1393 1.433 . S
C1401 N1403 1.384 . S
N1402 C1398 1.427 . S
N1402 C1399 1.384 . S
N1403 C1395 1.427 . S
N1403 C1401 1.384 . S
H1404 C1410 0.930 1_565 S
H1405 C1414 0.930 1_545 S
H1406 C1419 0.929 . S
H1407 C1417 0.929 . S
H1408 C1412 0.929 . S
H1409 C1418 0.929 . S
C1410 H1404 0.930 1_545 S
C1410 C1411 1.367 . S
C1410 C1418 1.378 1_545 S
C1411 C1410 1.367 . S
C1411 C1419 1.433 . S
C1412 H1408 0.929 . S
C1412 C1414 1.378 1_545 S
C1412 C1416 1.350 1_545 S
C1413 C1416 1.463 1_545 S
C1413 C1418 1.350 1_545 S
C1413 N1421 1.427 . S
C1414 H1405 0.930 1_565 S
C1414 C1412 1.378 1_565 S
C1414 C1415 1.367 . S
C1415 C1414 1.367 . S
C1415 C1417 1.433 . S
C1416 C1412 1.350 1_565 S
C1416 C1413 1.463 1_565 S
C1416 N1420 1.427 . S
C1417 H1407 0.929 . S
C1417 C1415 1.433 . S
C1417 N1420 1.384 . S
C1418 H1409 0.929 . S
C1418 C1410 1.378 1_565 S
C1418 C1413 1.350 1_565 S
C1419 H1406 0.929 . S
C1419 C1411 1.433 . S
C1419 N1421 1.384 . S
N1420 C1416 1.427 . S
N1420 C1417 1.384 . S
N1421 C1413 1.427 . S
N1421 C1419 1.384 . S
H1422 C1428 0.930 1_554 S
H1423 C1432 0.930 1_556 S
H1424 C1437 0.929 . S
H1425 C1435 0.929 . S
H1426 C1430 0.929 . S
H1427 C1436 0.929 . S
C1428 H1422 0.930 1_556 S
C1428 C1429 1.367 . S
C1428 C1436 1.378 1_546 S
C1429 C1428 1.367 . S
C1429 C1437 1.433 . S
C1430 H1426 0.929 . S
C1430 C1432 1.378 1_546 S
C1430 C1434 1.350 1_546 S
C1431 C1434 1.463 1_546 S
C1431 C1436 1.350 1_546 S
C1431 N1439 1.427 . S
C1432 H1423 0.930 1_554 S
C1432 C1430 1.378 1_564 S
C1432 C1433 1.367 . S
C1433 C1432 1.367 . S
C1433 C1435 1.433 . S
C1434 C1430 1.350 1_564 S
C1434 C1431 1.463 1_564 S
C1434 N1438 1.427 . S
C1435 H1425 0.929 . S
C1435 C1433 1.433 . S
C1435 N1438 1.384 . S
C1436 H1427 0.929 . S
C1436 C1428 1.378 1_564 S
C1436 C1431 1.350 1_564 S
C1437 H1424 0.929 . S
C1437 C1429 1.433 . S
C1437 N1439 1.384 . S
N1438 C1434 1.427 . S
N1438 C1435 1.384 . S
N1439 C1431 1.427 . S
N1439 C1437 1.384 . S
H1440 C1446 0.930 . S
H1441 C1450 0.930 . S
H1442 C1455 0.929 . S
H1443 C1453 0.929 . S
H1444 C1448 0.929 . S
H1445 C1454 0.929 . S
C1446 H1440 0.930 . S
C1446 C1447 1.367 1_556 S
C1446 C1454 1.378 . S
C1447 C1446 1.367 1_554 S
C1447 C1455 1.433 . S
C1448 H1444 0.929 . S
C1448 C1450 1.378 . S
C1448 C1452 1.350 1_554 S
C1449 C1452 1.463 1_454 S
C1449 C1454 1.350 1_554 S
C1449 N1457 1.427 . S
C1450 H1441 0.930 . S
C1450 C1448 1.378 . S
C1450 C1451 1.367 1_554 S
C1451 C1450 1.367 1_556 S
C1451 C1453 1.433 . S
C1452 C1448 1.350 1_556 S
C1452 C1449 1.463 1_656 S
C1452 N1456 1.427 . S
C1453 H1443 0.929 . S
C1453 C1451 1.433 . S
C1453 N1456 1.384 . S
C1454 H1445 0.929 . S
C1454 C1446 1.378 . S
C1454 C1449 1.350 1_556 S
C1455 H1442 0.929 . S
C1455 C1447 1.433 . S
C1455 N1457 1.384 . S
N1456 C1452 1.427 . S
N1456 C1453 1.384 . S
N1457 C1449 1.427 . S
N1457 C1455 1.384 . S
H1458 C1464 0.930 . S
H1459 C1468 0.930 . S
H1460 C1473 0.929 . S
H1461 C1471 0.929 . S
H1462 C1466 0.929 . S
H1463 C1472 0.929 . S
C1464 H1458 0.930 . S
C1464 C1465 1.367 1_556 S
C1464 C1472 1.378 . S
C1465 C1464 1.367 1_554 S
C1465 C1473 1.433 . S
C1466 H1462 0.929 . S
C1466 C1468 1.378 . S
C1466 C1470 1.350 1_554 S
C1467 C1470 1.463 1_554 S
C1467 C1472 1.350 1_554 S
C1467 N1475 1.427 . S
C1468 H1459 0.930 . S
C1468 C1466 1.378 . S
C1468 C1469 1.367 1_554 S
C1469 C1468 1.367 1_556 S
C1469 C1471 1.433 . S
C1470 C1466 1.350 1_556 S
C1470 C1467 1.463 1_556 S
C1470 N1474 1.427 . S
C1471 H1461 0.929 . S
C1471 C1469 1.433 . S
C1471 N1474 1.384 . S
C1472 H1463 0.929 . S
C1472 C1464 1.378 . S
C1472 C1467 1.350 1_556 S
C1473 H1460 0.929 . S
C1473 C1465 1.433 . S
C1473 N1475 1.384 . S
N1474 C1470 1.427 . S
N1474 C1471 1.384 . S
N1475 C1467 1.427 . S
N1475 C1473 1.384 . S
H1476 C1482 0.930 . S
H1477 C1486 0.930 . S
H1478 C1491 0.929 1_556 S
H1479 C1489 0.929 . S
H1480 C1484 0.929 . S
H1481 C1490 0.929 . S
C1482 H1476 0.930 . S
C1482 C1483 1.367 . S
C1482 C1490 1.378 . S
C1483 C1482 1.367 . S
C1483 C1491 1.433 . S
C1484 H1480 0.929 . S
C1484 C1486 1.378 . S
C1484 C1488 1.350 . S
C1485 C1488 1.463 . S
C1485 C1490 1.350 . S
C1485 N1493 1.427 . S
C1486 H1477 0.930 . S
C1486 C1484 1.378 . S
C1486 C1487 1.367 . S
C1487 C1486 1.367 . S
C1487 C1489 1.433 . S
C1488 C1484 1.350 . S
C1488 C1485 1.463 . S
C1488 N1492 1.427 . S
C1489 H1479 0.929 . S
C1489 C1487 1.433 . S
C1489 N1492 1.384 . S
C1490 H1481 0.929 . S
C1490 C1482 1.378 . S
C1490 C1485 1.350 . S
C1491 H1478 0.929 1_554 S
C1491 C1483 1.433 . S
C1491 N1493 1.384 . S
N1492 C1488 1.427 . S
N1492 C1489 1.384 . S
N1493 C1485 1.427 . S
N1493 C1491 1.384 . S
H1494 C1500 0.930 . S
H1495 C1504 0.930 1_556 S
H1496 C1509 0.929 . S
H1497 C1507 0.929 . S
H1498 C1502 0.929 . S
H1499 C1508 0.929 . S
C1500 H1494 0.930 . S
C1500 C1501 1.367 . S
C1500 C1508 1.378 . S
C1501 C1500 1.367 . S
C1501 C1509 1.433 . S
C1502 H1498 0.929 . S
C1502 C1504 1.378 . S
C1502 C1506 1.350 . S
C1503 C1506 1.463 . S
C1503 C1508 1.350 . S
C1503 N1511 1.427 . S
C1504 H1495 0.930 1_554 S
C1504 C1502 1.378 . S
C1504 C1505 1.367 . S
C1505 C1504 1.367 . S
C1505 C1507 1.433 . S
C1506 C1502 1.350 . S
C1506 C1503 1.463 . S
C1506 N1510 1.427 . S
C1507 H1497 0.929 . S
C1507 C1505 1.433 . S
C1507 N1510 1.384 . S
C1508 H1499 0.929 . S
C1508 C1500 1.378 . S
C1508 C1503 1.350 . S
C1509 H1496 0.929 . S
C1509 C1501 1.433 . S
C1509 N1511 1.384 . S
N1510 C1506 1.427 . S
N1510 C1507 1.384 . S
N1511 C1503 1.427 . S
N1511 C1509 1.384 . S
H1512 C1518 0.930 1_556 S
H1513 C1522 0.930 . S
H1514 C1527 0.929 . S
H1515 C1525 0.929 . S
H1516 C1520 0.929 . S
H1517 C1526 0.929 . S
C1518 H1512 0.930 1_554 S
C1518 C1519 1.367 . S
C1518 C1526 1.378 . S
C1519 C1518 1.367 . S
C1519 C1527 1.433 . S
C1520 H1516 0.929 . S
C1520 C1522 1.378 . S
C1520 C1524 1.350 . S
C1521 C1524 1.463 . S
C1521 C1526 1.350 . S
C1521 N1529 1.427 . S
C1522 H1513 0.930 . S
C1522 C1520 1.378 . S
C1522 C1523 1.367 . S
C1523 C1522 1.367 . S
C1523 C1525 1.433 . S
C1524 C1520 1.350 . S
C1524 C1521 1.463 . S
C1524 N1528 1.427 . S
C1525 H1515 0.929 . S
C1525 C1523 1.433 . S
C1525 N1528 1.384 . S
C1526 H1517 0.929 . S
C1526 C1518 1.378 . S
C1526 C1521 1.350 . S
C1527 H1514 0.929 . S
C1527 C1519 1.433 . S
C1527 N1529 1.384 . S
N1528 C1524 1.427 . S
N1528 C1525 1.384 . S
N1529 C1521 1.427 . S
N1529 C1527 1.384 . S
H1530 C1536 0.930 . S
H1531 C1540 0.930 . S
H1532 C1545 0.929 . S
H1533 C1543 0.929 . S
H1534 C1538 0.929 . S
H1535 C1544 0.929 . S
C1536 H1530 0.930 . S
C1536 C1537 1.367 . S
C1536 C1544 1.378 . S
C1537 C1536 1.367 . S
C1537 C1545 1.433 . S
C1538 H1534 0.929 . S
C1538 C1540 1.378 . S
C1538 C1542 1.350 . S
C1539 C1542 1.463 . S
C1539 C1544 1.350 . S
C1539 N1547 1.427 . S
C1540 H1531 0.930 . S
C1540 C1538 1.378 . S
C1540 C1541 1.367 . S
C1541 C1540 1.367 . S
C1541 C1543 1.433 . S
C1542 C1538 1.350 . S
C1542 C1539 1.463 . S
C1542 N1546 1.427 . S
C1543 H1533 0.929 . S
C1543 C1541 1.433 . S
C1543 N1546 1.384 . S
C1544 H1535 0.929 . S
C1544 C1536 1.378 . S
C1544 C1539 1.350 . S
C1545 H1532 0.929 . S
C1545 C1537 1.433 . S
C1545 N1547 1.384 . S
N1546 C1542 1.427 . S
N1546 C1543 1.384 . S
N1547 C1539 1.427 . S
N1547 C1545 1.384 . S
H1548 C1554 0.930 . S
H1549 C1558 0.930 . S
H1550 C1563 0.929 . S
H1551 C1561 0.929 . S
H1552 C1556 0.929 . S
H1553 C1562 0.929 . S
C1554 H1548 0.930 . S
C1554 C1555 1.367 . S
C1554 C1562 1.378 . S
C1555 C1554 1.367 . S
C1555 C1563 1.433 . S
C1556 H1552 0.929 . S
C1556 C1558 1.378 . S
C1556 C1560 1.350 . S
C1557 C1560 1.463 . S
C1557 C1562 1.350 . S
C1557 N1565 1.427 . S
C1558 H1549 0.930 . S
C1558 C1556 1.378 . S
C1558 C1559 1.367 . S
C1559 C1558 1.367 . S
C1559 C1561 1.433 . S
C1560 C1556 1.350 . S
C1560 C1557 1.463 . S
C1560 N1564 1.427 . S
C1561 H1551 0.929 . S
C1561 C1559 1.433 . S
C1561 N1564 1.384 . S
C1562 H1553 0.929 . S
C1562 C1554 1.378 . S
C1562 C1557 1.350 . S
C1563 H1550 0.929 . S
C1563 C1555 1.433 . S
C1563 N1565 1.384 . S
N1564 C1560 1.427 . S
N1564 C1561 1.384 . S
N1565 C1557 1.427 . S
N1565 C1563 1.384 . S
H1566 C1572 0.930 . S
H1567 C1576 0.930 . S
H1568 C1581 0.929 . S
H1569 C1579 0.929 . S
H1570 C1574 0.929 . S
H1571 C1580 0.929 . S
C1572 H1566 0.930 . S
C1572 C1573 1.367 . S
C1572 C1580 1.378 . S
C1573 C1572 1.367 . S
C1573 C1581 1.433 . S
C1574 H1570 0.929 . S
C1574 C1576 1.378 . S
C1574 C1578 1.350 . S
C1575 C1578 1.463 . S
C1575 C1580 1.350 . S
C1575 N1583 1.427 . S
C1576 H1567 0.930 . S
C1576 C1574 1.378 . S
C1576 C1577 1.367 . S
C1577 C1576 1.367 . S
C1577 C1579 1.433 . S
C1578 C1574 1.350 . S
C1578 C1575 1.463 . S
C1578 N1582 1.427 . S
C1579 H1569 0.929 . S
C1579 C1577 1.433 . S
C1579 N1582 1.384 . S
C1580 H1571 0.929 . S
C1580 C1572 1.378 . S
C1580 C1575 1.350 . S
C1581 H1568 0.929 . S
C1581 C1573 1.433 . S
C1581 N1583 1.384 . S
N1582 C1578 1.427 . S
N1582 C1579 1.384 . S
N1583 C1575 1.427 . S
N1583 C1581 1.384 . S
H1584 C1590 0.930 . S
H1585 C1594 0.930 . S
H1586 C1599 0.929 . S
H1587 C1597 0.929 1_554 S
H1588 C1592 0.929 . S
H1589 C1598 0.929 . S
C1590 H1584 0.930 . S
C1590 C1591 1.367 . S
C1590 C1598 1.378 . S
C1591 C1590 1.367 . S
C1591 C1599 1.433 . S
C1592 H1588 0.929 . S
C1592 C1594 1.378 . S
C1592 C1596 1.350 . S
C1593 C1596 1.463 . S
C1593 C1598 1.350 . S
C1593 N1601 1.427 . S
C1594 H1585 0.930 . S
C1594 C1592 1.378 . S
C1594 C1595 1.367 . S
C1595 C1594 1.367 . S
C1595 C1597 1.433 . S
C1596 C1592 1.350 . S
C1596 C1593 1.463 . S
C1596 N1600 1.427 . S
C1597 H1587 0.929 1_556 S
C1597 C1595 1.433 . S
C1597 N1600 1.384 . S
C1598 H1589 0.929 . S
C1598 C1590 1.378 . S
C1598 C1593 1.350 . S
C1599 H1586 0.929 . S
C1599 C1591 1.433 . S
C1599 N1601 1.384 . S
N1600 C1596 1.427 . S
N1600 C1597 1.384 . S
N1601 C1593 1.427 . S
N1601 C1599 1.384 . S
H1602 C1608 0.930 1_554 S
H1603 C1612 0.930 . S
H1604 C1617 0.929 . S
H1605 C1615 0.929 . S
H1606 C1610 0.929 . S
H1607 C1616 0.929 . S
C1608 H1602 0.930 1_556 S
C1608 C1609 1.367 . S
C1608 C1616 1.378 . S
C1609 C1608 1.367 . S
C1609 C1617 1.433 . S
C1610 H1606 0.929 . S
C1610 C1612 1.378 . S
C1610 C1614 1.350 . S
C1611 C1614 1.463 . S
C1611 C1616 1.350 . S
C1611 N1619 1.427 . S
C1612 H1603 0.930 . S
C1612 C1610 1.378 . S
C1612 C1613 1.367 . S
C1613 C1612 1.367 . S
C1613 C1615 1.433 . S
C1614 C1610 1.350 . S
C1614 C1611 1.463 . S
C1614 N1618 1.427 . S
C1615 H1605 0.929 . S
C1615 C1613 1.433 . S
C1615 N1618 1.384 . S
C1616 H1607 0.929 . S
C1616 C1608 1.378 . S
C1616 C1611 1.350 . S
C1617 H1604 0.929 . S
C1617 C1609 1.433 . S
C1617 N1619 1.384 . S
N1618 C1614 1.427 . S
N1618 C1615 1.384 . S
N1619 C1611 1.427 . S
N1619 C1617 1.384 . S
H1620 C1626 0.930 . S
H1621 C1630 0.930 1_554 S
H1622 C1635 0.929 . S
H1623 C1633 0.929 . S
H1624 C1628 0.929 . S
H1625 C1634 0.929 . S
C1626 H1620 0.930 . S
C1626 C1627 1.367 . S
C1626 C1634 1.378 . S
C1627 C1626 1.367 . S
C1627 C1635 1.433 . S
C1628 H1624 0.929 . S
C1628 C1630 1.378 . S
C1628 C1632 1.350 . S
C1629 C1632 1.463 . S
C1629 C1634 1.350 . S
C1629 N1637 1.427 . S
C1630 H1621 0.930 1_556 S
C1630 C1628 1.378 . S
C1630 C1631 1.367 . S
C1631 C1630 1.367 . S
C1631 C1633 1.433 . S
C1632 C1628 1.350 . S
C1632 C1629 1.463 . S
C1632 N1636 1.427 . S
C1633 H1623 0.929 . S
C1633 C1631 1.433 . S
C1633 N1636 1.384 . S
C1634 H1625 0.929 . S
C1634 C1626 1.378 . S
C1634 C1629 1.350 . S
C1635 H1622 0.929 . S
C1635 C1627 1.433 . S
C1635 N1637 1.384 . S
N1636 C1632 1.427 . S
N1636 C1633 1.384 . S
N1637 C1629 1.427 . S
N1637 C1635 1.384 . S
H1638 C1644 0.930 . S
H1639 C1648 0.930 . S
H1640 C1653 0.929 . S
H1641 C1651 0.929 . S
H1642 C1646 0.929 . S
H1643 C1652 0.929 . S
C1644 H1638 0.930 . S
C1644 C1645 1.367 . S
C1644 C1652 1.378 . S
C1645 C1644 1.367 . S
C1645 C1653 1.433 . S
C1646 H1642 0.929 . S
C1646 C1648 1.378 . S
C1646 C1650 1.350 . S
C1647 C1650 1.463 . S
C1647 C1652 1.350 . S
C1647 N1655 1.427 . S
C1648 H1639 0.930 . S
C1648 C1646 1.378 . S
C1648 C1649 1.367 . S
C1649 C1648 1.367 . S
C1649 C1651 1.433 . S
C1650 C1646 1.350 . S
C1650 C1647 1.463 . S
C1650 N1654 1.427 . S
C1651 H1641 0.929 . S
C1651 C1649 1.433 . S
C1651 N1654 1.384 . S
C1652 H1643 0.929 . S
C1652 C1644 1.378 . S
C1652 C1647 1.350 . S
C1653 H1640 0.929 . S
C1653 C1645 1.433 . S
C1653 N1655 1.384 . S
N1654 C1650 1.427 . S
N1654 C1651 1.384 . S
N1655 C1647 1.427 . S
N1655 C1653 1.384 . S
H1656 C1662 0.930 . S
H1657 C1666 0.930 . S
H1658 C1671 0.929 . S
H1659 C1669 0.929 . S
H1660 C1664 0.929 . S
H1661 C1670 0.929 . S
C1662 H1656 0.930 . S
C1662 C1663 1.367 . S
C1662 C1670 1.378 . S
C1663 C1662 1.367 . S
C1663 C1671 1.433 . S
C1664 H1660 0.929 . S
C1664 C1666 1.378 . S
C1664 C1668 1.350 . S
C1665 C1668 1.463 . S
C1665 C1670 1.350 . S
C1665 N1673 1.427 . S
C1666 H1657 0.930 . S
C1666 C1664 1.378 . S
C1666 C1667 1.367 . S
C1667 C1666 1.367 . S
C1667 C1669 1.433 . S
C1668 C1664 1.350 . S
C1668 C1665 1.463 . S
C1668 N1672 1.427 . S
C1669 H1659 0.929 . S
C1669 C1667 1.433 . S
C1669 N1672 1.384 . S
C1670 H1661 0.929 . S
C1670 C1662 1.378 . S
C1670 C1665 1.350 . S
C1671 H1658 0.929 . S
C1671 C1663 1.433 . S
C1671 N1673 1.384 . S
N1672 C1668 1.427 . S
N1672 C1669 1.384 . S
N1673 C1665 1.427 . S
N1673 C1671 1.384 . S
H1674 C1680 0.930 . S
H1675 C1684 0.930 . S
H1676 C1689 0.929 . S
H1677 C1687 0.929 . S
H1678 C1682 0.929 . S
H1679 C1688 0.929 . S
C1680 H1674 0.930 . S
C1680 C1681 1.367 . S
C1680 C1688 1.378 . S
C1681 C1680 1.367 . S
C1681 C1689 1.433 . S
C1682 H1678 0.929 . S
C1682 C1684 1.378 . S
C1682 C1686 1.350 . S
C1683 C1686 1.463 . S
C1683 C1688 1.350 . S
C1683 N1691 1.427 . S
C1684 H1675 0.930 . S
C1684 C1682 1.378 . S
C1684 C1685 1.367 . S
C1685 C1684 1.367 . S
C1685 C1687 1.433 . S
C1686 C1682 1.350 . S
C1686 C1683 1.463 . S
C1686 N1690 1.427 . S
C1687 H1677 0.929 . S
C1687 C1685 1.433 . S
C1687 N1690 1.384 . S
C1688 H1679 0.929 . S
C1688 C1680 1.378 . S
C1688 C1683 1.350 . S
C1689 H1676 0.929 . S
C1689 C1681 1.433 . S
C1689 N1691 1.384 . S
N1690 C1686 1.427 . S
N1690 C1687 1.384 . S
N1691 C1683 1.427 . S
N1691 C1689 1.384 . S
H1692 C1698 0.930 . S
H1693 C1702 0.930 . S
H1694 C1707 0.929 . S
H1695 C1705 0.929 . S
H1696 C1700 0.929 . S
H1697 C1706 0.929 . S
C1698 H1692 0.930 . S
C1698 C1699 1.367 . S
C1698 C1706 1.378 . S
C1699 C1698 1.367 . S
C1699 C1707 1.433 . S
C1700 H1696 0.929 . S
C1700 C1702 1.378 . S
C1700 C1704 1.350 . S
C1701 C1704 1.463 . S
C1701 C1706 1.350 . S
C1701 N1709 1.427 . S
C1702 H1693 0.930 . S
C1702 C1700 1.378 . S
C1702 C1703 1.367 . S
C1703 C1702 1.367 . S
C1703 C1705 1.433 . S
C1704 C1700 1.350 . S
C1704 C1701 1.463 . S
C1704 N1708 1.427 . S
C1705 H1695 0.929 . S
C1705 C1703 1.433 . S
C1705 N1708 1.384 . S
C1706 H1697 0.929 . S
C1706 C1698 1.378 . S
C1706 C1701 1.350 . S
C1707 H1694 0.929 . S
C1707 C1699 1.433 . S
C1707 N1709 1.384 . S
N1708 C1704 1.427 . S
N1708 C1705 1.384 . S
N1709 C1701 1.427 . S
N1709 C1707 1.384 . S
H1710 C1716 0.930 . S
H1711 C1720 0.930 . S
H1712 C1725 0.929 . S
H1713 C1723 0.929 . S
H1714 C1718 0.929 1_545 S
H1715 C1724 0.929 1_565 S
C1716 H1710 0.930 . S
C1716 C1717 1.367 . S
C1716 C1724 1.378 . S
C1717 C1716 1.367 . S
C1717 C1725 1.433 . S
C1718 H1714 0.929 1_565 S
C1718 C1720 1.378 . S
C1718 C1722 1.350 . S
C1719 C1722 1.463 1_545 S
C1719 C1724 1.350 . S
C1719 N1727 1.427 . S
C1720 H1711 0.930 . S
C1720 C1718 1.378 . S
C1720 C1721 1.367 . S
C1721 C1720 1.367 . S
C1721 C1723 1.433 . S
C1722 C1718 1.350 . S
C1722 C1719 1.463 1_565 S
C1722 N1726 1.427 . S
C1723 H1713 0.929 . S
C1723 C1721 1.433 . S
C1723 N1726 1.384 . S
C1724 H1715 0.929 1_545 S
C1724 C1716 1.378 . S
C1724 C1719 1.350 . S
C1725 H1712 0.929 . S
C1725 C1717 1.433 . S
C1725 N1727 1.384 . S
N1726 C1722 1.427 . S
N1726 C1723 1.384 . S
N1727 C1719 1.427 . S
N1727 C1725 1.384 . S
H1728 C1734 0.930 . S
H1729 C1738 0.930 . S
H1730 C1743 0.929 . S
H1731 C1741 0.929 . S
H1732 C1736 0.929 . S
H1733 C1742 0.929 . S
C1734 H1728 0.930 . S
C1734 C1735 1.367 . S
C1734 C1742 1.378 . S
C1735 C1734 1.367 . S
C1735 C1743 1.433 . S
C1736 H1732 0.929 . S
C1736 C1738 1.378 . S
C1736 C1740 1.350 . S
C1737 C1740 1.463 1_655 S
C1737 C1742 1.350 . S
C1737 N1745 1.427 . S
C1738 H1729 0.930 . S
C1738 C1736 1.378 . S
C1738 C1739 1.367 . S
C1739 C1738 1.367 . S
C1739 C1741 1.433 . S
C1740 C1736 1.350 . S
C1740 C1737 1.463 1_455 S
C1740 N1744 1.427 . S
C1741 H1731 0.929 . S
C1741 C1739 1.433 . S
C1741 N1744 1.384 . S
C1742 H1733 0.929 . S
C1742 C1734 1.378 . S
C1742 C1737 1.350 . S
C1743 H1730 0.929 . S
C1743 C1735 1.433 . S
C1743 N1745 1.384 . S
N1744 C1740 1.427 . S
N1744 C1741 1.384 . S
N1745 C1737 1.427 . S
N1745 C1743 1.384 . S
H1746 C1752 0.930 . S
H1747 C1756 0.930 . S
H1748 C1761 0.929 . S
H1749 C1759 0.929 . S
H1750 C1754 0.929 . S
H1751 C1760 0.929 . S
C1752 H1746 0.930 . S
C1752 C1753 1.367 . S
C1752 C1760 1.378 . S
C1753 C1752 1.367 . S
C1753 C1761 1.433 . S
C1754 H1750 0.929 . S
C1754 C1756 1.378 . S
C1754 C1758 1.350 . S
C1755 C1758 1.463 . S
C1755 C1760 1.350 . S
C1755 N1763 1.427 . S
C1756 H1747 0.930 . S
C1756 C1754 1.378 . S
C1756 C1757 1.367 . S
C1757 C1756 1.367 . S
C1757 C1759 1.433 . S
C1758 C1754 1.350 . S
C1758 C1755 1.463 . S
C1758 N1762 1.427 . S
C1759 H1749 0.929 . S
C1759 C1757 1.433 . S
C1759 N1762 1.384 . S
C1760 H1751 0.929 . S
C1760 C1752 1.378 . S
C1760 C1755 1.350 . S
C1761 H1748 0.929 . S
C1761 C1753 1.433 . S
C1761 N1763 1.384 . S
N1762 C1758 1.427 . S
N1762 C1759 1.384 . S
N1763 C1755 1.427 . S
N1763 C1761 1.384 . S
H1764 C1770 0.930 . S
H1765 C1774 0.930 . S
H1766 C1779 0.929 . S
H1767 C1777 0.929 . S
H1768 C1772 0.929 . S
H1769 C1778 0.929 . S
C1770 H1764 0.930 . S
C1770 C1771 1.367 . S
C1770 C1778 1.378 1_545 S
C1771 C1770 1.367 . S
C1771 C1779 1.433 . S
C1772 H1768 0.929 . S
C1772 C1774 1.378 1_545 S
C1772 C1776 1.350 1_545 S
C1773 C1776 1.463 1_545 S
C1773 C1778 1.350 1_545 S
C1773 N1781 1.427 . S
C1774 H1765 0.930 . S
C1774 C1772 1.378 1_565 S
C1774 C1775 1.367 . S
C1775 C1774 1.367 . S
C1775 C1777 1.433 . S
C1776 C1772 1.350 1_565 S
C1776 C1773 1.463 1_565 S
C1776 N1780 1.427 . S
C1777 H1767 0.929 . S
C1777 C1775 1.433 . S
C1777 N1780 1.384 . S
C1778 H1769 0.929 . S
C1778 C1770 1.378 1_565 S
C1778 C1773 1.350 1_565 S
C1779 H1766 0.929 . S
C1779 C1771 1.433 . S
C1779 N1781 1.384 . S
N1780 C1776 1.427 . S
N1780 C1777 1.384 . S
N1781 C1773 1.427 . S
N1781 C1779 1.384 . S
H1782 C1788 0.930 . S
H1783 C1792 0.930 . S
H1784 C1797 0.929 . S
H1785 C1795 0.929 . S
H1786 C1790 0.954 . S
H1787 C1796 0.955 . S
C1788 H1782 0.930 . S
C1788 C1789 1.367 . S
C1788 C1796 1.355 1_455 S
C1789 C1788 1.367 . S
C1789 C1797 1.433 . S
C1790 H1786 0.954 . S
C1790 C1792 1.355 1_455 S
C1790 C1794 1.349 1_455 S
C1791 C1794 1.463 1_455 S
C1791 C1796 1.349 1_455 S
C1791 N1799 1.427 . S
C1792 H1783 0.930 . S
C1792 C1790 1.355 1_655 S
C1792 C1793 1.367 . S
C1793 C1792 1.367 . S
C1793 C1795 1.433 . S
C1794 C1790 1.349 1_655 S
C1794 C1791 1.463 1_655 S
C1794 N1798 1.427 . S
C1795 H1785 0.929 . S
C1795 C1793 1.433 . S
C1795 N1798 1.384 . S
C1796 H1787 0.955 . S
C1796 C1788 1.355 1_655 S
C1796 C1791 1.349 1_655 S
C1797 H1784 0.929 . S
C1797 C1789 1.433 . S
C1797 N1799 1.384 . S
N1798 C1794 1.427 . S
N1798 C1795 1.384 . S
N1799 C1791 1.427 . S
N1799 C1797 1.384 . S
C511 C75 0.815 . S
C515 C5 0.816 . S
C529 C47 0.817 . S
C533 C19 0.820 . S
C547 C33 0.815 . S
C551 C61 0.815 . S
C565 C89 0.814 . S
C569 C159 0.817 . S
C583 C103 0.820 . S
C587 C131 0.817 . S
C601 C145 0.816 . S
C605 C117 0.820 . S
C619 C173 0.814 . S
C623 C243 0.818 . S
C637 C187 0.814 . S
C641 C215 0.817 . S
C655 C229 0.819 . S
C659 C201 0.819 . S
C673 C327 0.814 . S
C677 C257 0.816 . S
C691 C299 0.820 . S
C695 C271 0.817 . S
C709 C285 0.814 . S
C713 C313 0.819 . S
C727 C411 0.818 . S
C731 C341 0.819 . S
C745 C383 0.818 . S
C749 C355 0.820 . S
C763 C369 0.814 . S
C767 C397 0.818 . S
C781 C495 0.814 . S
C785 C425 0.819 . S
C799 C467 0.814 . S
C803 C439 0.816 . S
C817 C481 0.817 . S
C821 C453 0.820 . S
C835 C233 1.584 . S
C839 C9 1.582 . S
C853 C247 1.581 . S
C857 C23 1.582 . S
C871 C219 1.572 . S
C875 C37 1.573 . S
C889 C51 1.585 . S
C893 C373 1.586 1_554 S
C907 C65 1.575 . S
C911 C345 1.573 1_554 S
C925 C79 1.579 . S
C929 C359 1.577 1_554 S
C943 C93 1.570 . S
C947 C485 1.569 . S
C961 C499 1.573 . S
C965 C107 1.574 . S
C979 C471 1.573 . S
C983 C121 1.571 . S
C997 C289 1.578 1_556 S
C1001 C135 1.580 . S
C1015 C261 1.570 1_556 S
C1019 C149 1.571 . S
C1033 C163 1.578 . S
C1037 C275 1.576 1_556 S
C1051 C177 1.578 . S
C1055 C401 1.580 . S
C1069 C415 1.586 . S
C1073 C191 1.585 . S
C1087 C387 1.587 . S
C1091 C205 1.586 . S
C1105 C303 1.586 . S
C1109 C457 1.587 . S
C1123 C429 1.586 . S
C1127 C317 1.585 . S
C1141 C331 1.589 . S
C1145 C443 1.589 . S
C1159 C263 1.552 . S
C1163 C11 1.552 . S
C1177 C277 1.553 . S
C1181 C25 1.553 . S
C1195 C39 1.558 . S
C1199 C291 1.558 . S
C1213 C53 1.558 . S
C1217 C473 1.558 . S
C1231 C487 1.560 . S
C1235 C67 1.560 . S
C1249 C501 1.554 . S
C1253 C81 1.554 . S
C1267 C95 1.552 . S
C1271 C347 1.552 . S
C1285 C109 1.553 . S
C1289 C361 1.553 . S
C1303 C375 1.557 . S
C1307 C123 1.557 . S
C1321 C137 1.558 . S
C1325 C221 1.558 . S
C1339 C151 1.559 . S
C1343 C235 1.559 . S
C1357 C249 1.553 . S
C1361 C165 1.553 . S
C1375 C179 1.552 . S
C1379 C431 1.552 . S
C1393 C193 1.555 . S
C1397 C445 1.555 . S
C1411 C459 1.553 . S
C1415 C207 1.553 . S
C1429 C389 1.553 . S
C1433 C305 1.553 . S
C1447 C319 1.557 . S
C1451 C403 1.557 . S
C1465 C333 1.558 . S
C1469 C417 1.558 . S
C1483 C378 1.619 1_554 S
C1487 C0 1.629 . S
C1501 C14 1.621 . S
C1505 C392 1.627 1_554 S
C1519 C406 1.623 1_554 S
C1523 C28 1.626 . S
C1537 C42 1.627 . S
C1541 C168 1.620 . S
C1555 C182 1.619 . S
C1559 C56 1.630 . S
C1573 C196 1.630 . S
C1577 C70 1.620 . S
C1591 C84 1.627 . S
C1595 C294 1.621 1_556 S
C1609 C308 1.626 1_556 S
C1613 C98 1.622 . S
C1627 C112 1.628 . S
C1631 C322 1.620 1_556 S
C1645 C126 1.618 . S
C1649 C420 1.630 . S
C1663 C140 1.626 . S
C1667 C434 1.624 . S
C1681 C448 1.631 . S
C1685 C154 1.618 . S
C1699 C210 1.627 . S
C1703 C336 1.620 . S
C1717 C224 1.629 . S
C1721 C350 1.619 . S
C1735 C238 1.630 . S
C1739 C364 1.619 . S
C1753 C252 1.623 . S
C1757 C462 1.625 . S
C1771 C266 1.624 . S
C1775 C476 1.624 . S
C1789 C490 1.621 . S
C1793 C280 1.628 . S
