# Generated by pormake.
# Topology crs, (6)-cn, num edge types: 1
# Building blocks:
#     Node 0, Type 0, BuildingBlock: KUMBUR_clean_sbu_0, # of connection points: 6
#     Node 1, Type 0, BuildingBlock: KUMBUR_clean_sbu_0, # of connection points: 6
#     Node 2, Type 0, BuildingBlock: KUMBUR_clean_sbu_0, # of connection points: 6
#     Node 3, Type 0, BuildingBlock: KUMBUR_clean_sbu_0, # of connection points: 6
#     Node 4, Type 0, BuildingBlock: KUMBUR_clean_sbu_0, # of connection points: 6
#     Node 5, Type 0, BuildingBlock: KUMBUR_clean_sbu_0, # of connection points: 6
#     Node 6, Type 0, BuildingBlock: KUMBUR_clean_sbu_0, # of connection points: 6
#     Node 7, Type 0, BuildingBlock: KUMBUR_clean_sbu_0, # of connection points: 6
#     Node 8, Type 0, BuildingBlock: KUMBUR_clean_sbu_0, # of connection points: 6
#     Node 9, Type 0, BuildingBlock: KUMBUR_clean_sbu_0, # of connection points: 6
#     Node 10, Type 0, BuildingBlock: KUMBUR_clean_sbu_0, # of connection points: 6
#     Node 11, Type 0, BuildingBlock: KUMBUR_clean_sbu_0, # of connection points: 6
#     Node 12, Type 0, BuildingBlock: KUMBUR_clean_sbu_0, # of connection points: 6
#     Node 13, Type 0, BuildingBlock: KUMBUR_clean_sbu_0, # of connection points: 6
#     Node 14, Type 0, BuildingBlock: KUMBUR_clean_sbu_0, # of connection points: 6
#     Node 15, Type 0, BuildingBlock: KUMBUR_clean_sbu_0, # of connection points: 6
#     Edge 16, Type (0, 0), BuildingBlock: ZUJKAS_clean_linker_0, # of connection points: 2
#     Edge 17, Type (0, 0), BuildingBlock: ZUJKAS_clean_linker_0, # of connection points: 2
#     Edge 18, Type (0, 0), BuildingBlock: ZUJKAS_clean_linker_0, # of connection points: 2
#     Edge 19, Type (0, 0), BuildingBlock: ZUJKAS_clean_linker_0, # of connection points: 2
#     Edge 20, Type (0, 0), BuildingBlock: ZUJKAS_clean_linker_0, # of connection points: 2
#     Edge 21, Type (0, 0), BuildingBlock: ZUJKAS_clean_linker_0, # of connection points: 2
#     Edge 22, Type (0, 0), BuildingBlock: ZUJKAS_clean_linker_0, # of connection points: 2
#     Edge 23, Type (0, 0), BuildingBlock: ZUJKAS_clean_linker_0, # of connection points: 2
#     Edge 24, Type (0, 0), BuildingBlock: ZUJKAS_clean_linker_0, # of connection points: 2
#     Edge 25, Type (0, 0), BuildingBlock: ZUJKAS_clean_linker_0, # of connection points: 2
#     Edge 26, Type (0, 0), BuildingBlock: ZUJKAS_clean_linker_0, # of connection points: 2
#     Edge 27, Type (0, 0), BuildingBlock: ZUJKAS_clean_linker_0, # of connection points: 2
#     Edge 28, Type (0, 0), BuildingBlock: ZUJKAS_clean_linker_0, # of connection points: 2
#     Edge 29, Type (0, 0), BuildingBlock: ZUJKAS_clean_linker_0, # of connection points: 2
#     Edge 30, Type (0, 0), BuildingBlock: ZUJKAS_clean_linker_0, # of connection points: 2
#     Edge 31, Type (0, 0), BuildingBlock: ZUJKAS_clean_linker_0, # of connection points: 2
#     Edge 32, Type (0, 0), BuildingBlock: ZUJKAS_clean_linker_0, # of connection points: 2
#     Edge 33, Type (0, 0), BuildingBlock: ZUJKAS_clean_linker_0, # of connection points: 2
#     Edge 34, Type (0, 0), BuildingBlock: ZUJKAS_clean_linker_0, # of connection points: 2
#     Edge 35, Type (0, 0), BuildingBlock: ZUJKAS_clean_linker_0, # of connection points: 2
#     Edge 36, Type (0, 0), BuildingBlock: ZUJKAS_clean_linker_0, # of connection points: 2
#     Edge 37, Type (0, 0), BuildingBlock: ZUJKAS_clean_linker_0, # of connection points: 2
#     Edge 38, Type (0, 0), BuildingBlock: ZUJKAS_clean_linker_0, # of connection points: 2
#     Edge 39, Type (0, 0), BuildingBlock: ZUJKAS_clean_linker_0, # of connection points: 2
#     Edge 40, Type (0, 0), BuildingBlock: ZUJKAS_clean_linker_0, # of connection points: 2
#     Edge 41, Type (0, 0), BuildingBlock: ZUJKAS_clean_linker_0, # of connection points: 2
#     Edge 42, Type (0, 0), BuildingBlock: ZUJKAS_clean_linker_0, # of connection points: 2
#     Edge 43, Type (0, 0), BuildingBlock: ZUJKAS_clean_linker_0, # of connection points: 2
#     Edge 44, Type (0, 0), BuildingBlock: ZUJKAS_clean_linker_0, # of connection points: 2
#     Edge 45, Type (0, 0), BuildingBlock: ZUJKAS_clean_linker_0, # of connection points: 2
#     Edge 46, Type (0, 0), BuildingBlock: ZUJKAS_clean_linker_0, # of connection points: 2
#     Edge 47, Type (0, 0), BuildingBlock: ZUJKAS_clean_linker_0, # of connection points: 2
#     Edge 48, Type (0, 0), BuildingBlock: ZUJKAS_clean_linker_0, # of connection points: 2
#     Edge 49, Type (0, 0), BuildingBlock: ZUJKAS_clean_linker_0, # of connection points: 2
#     Edge 50, Type (0, 0), BuildingBlock: ZUJKAS_clean_linker_0, # of connection points: 2
#     Edge 51, Type (0, 0), BuildingBlock: ZUJKAS_clean_linker_0, # of connection points: 2
#     Edge 52, Type (0, 0), BuildingBlock: ZUJKAS_clean_linker_0, # of connection points: 2
#     Edge 53, Type (0, 0), BuildingBlock: ZUJKAS_clean_linker_0, # of connection points: 2
#     Edge 54, Type (0, 0), BuildingBlock: ZUJKAS_clean_linker_0, # of connection points: 2
#     Edge 55, Type (0, 0), BuildingBlock: ZUJKAS_clean_linker_0, # of connection points: 2
#     Edge 56, Type (0, 0), BuildingBlock: ZUJKAS_clean_linker_0, # of connection points: 2
#     Edge 57, Type (0, 0), BuildingBlock: ZUJKAS_clean_linker_0, # of connection points: 2
#     Edge 58, Type (0, 0), BuildingBlock: ZUJKAS_clean_linker_0, # of connection points: 2
#     Edge 59, Type (0, 0), BuildingBlock: ZUJKAS_clean_linker_0, # of connection points: 2
#     Edge 60, Type (0, 0), BuildingBlock: ZUJKAS_clean_linker_0, # of connection points: 2
#     Edge 61, Type (0, 0), BuildingBlock: ZUJKAS_clean_linker_0, # of connection points: 2
#     Edge 62, Type (0, 0), BuildingBlock: ZUJKAS_clean_linker_0, # of connection points: 2
#     Edge 63, Type (0, 0), BuildingBlock: ZUJKAS_clean_linker_0, # of connection points: 2
# Relax obj value: 0.084
# Max RMSD: 0.195
# Mean RMSD: 0.153
data_MOF--net-crs--node1-KUMBUR_clean_sbu_0--edge1-ZUJKAS_clean_linker_0
_symmetry_space_group_name_H-M    P1
_symmetry_Int_Tables_number       1
_symmetry_cell_setting            triclinic
loop_
_symmetry_equiv_pos_as_xyz
'x, y, z'
_cell_length_a     67.147302
_cell_length_b     67.242532
_cell_length_c     55.706815
_cell_angle_alpha  78.680776
_cell_angle_beta   77.162477
_cell_angle_gamma 72.595277
loop_
_atom_site_label
_atom_site_type_symbol
_atom_site_fract_x
_atom_site_fract_y
_atom_site_fract_z
_atom_type_partial_charge
Tb0 Tb 0.98361 0.99123 0.04341 0.0
C1 C 0.02465 1.00476 0.93355 0.0
C2 C 0.04599 0.97023 0.92449 0.0
C3 C 0.03104 0.99616 0.89165 0.0
C4 C 0.03632 0.98483 0.94145 0.0
C5 C 0.02213 0.01084 0.90849 0.0
C6 C 0.04294 0.97586 0.89965 0.0
C7 C 0.00336 0.04578 0.91835 0.0
N8 N 0.01625 0.01842 0.95043 0.0
C9 C 0.00635 0.039 0.94301 0.0
C10 C 0.01108 0.03159 0.90105 0.0
Tb11 Tb 0.02164 0.00571 0.99041 0.0
N12 N 0.03893 0.98008 0.96555 0.0
C13 C 0.05241 0.96139 0.97347 0.0
C14 C 0.05881 0.95062 0.93289 0.0
C15 C 0.06228 0.94631 0.9574 0.0
H16 H 0.00023 0.05008 0.95624 0.0
H17 H 0.07247 0.93134 0.96398 0.0
H18 H 0.05008 0.9648 0.88638 0.0
H19 H 0.9951 0.06195 0.9127 0.0
H20 H 0.05521 0.95773 0.99237 0.0
H21 H 0.93388 0.06634 0.06873 0.0
H22 H 0.06644 0.93891 0.9205 0.0
H23 H 0.00276 0.94663 0.07849 0.0
H24 H 0.95068 0.0395 0.04086 0.0
H25 H 0.00694 0.93471 0.12231 0.0
H26 H 0.02916 1.00045 0.87233 0.0
H27 H 0.93966 0.05902 0.1123 0.0
H28 H 0.95534 0.03308 0.14688 0.0
H29 H 0.00878 0.03689 0.88196 0.0
H30 H 0.97515 0.9971 0.16158 0.0
N31 N 0.9665 0.01712 0.06802 0.0
C32 C 0.95336 0.03592 0.0598 0.0
C33 C 0.94711 0.04711 0.10013 0.0
C34 C 0.95949 0.02738 0.10887 0.0
C35 C 0.94377 0.05127 0.07557 0.0
C36 C 0.96893 0.01253 0.09217 0.0
H37 H 0.99412 0.96014 0.15264 0.0
N38 N 0.98798 0.97862 0.08375 0.0
C39 C 0.99943 0.95105 0.11636 0.0
C40 C 0.98007 0.9925 0.10037 0.0
C41 C 0.99698 0.95787 0.09152 0.0
C42 C 0.99223 0.96546 0.13341 0.0
C43 C 0.98214 0.98644 0.12557 0.0
O44 O 0.96913 0.96638 0.05133 0.0
O45 O 0.00336 0.98394 1.00857 0.0
O46 O 0.99289 0.00851 0.97677 0.0
O47 O 0.96834 0.01323 0.01338 0.0
O48 O 0.99948 0.95912 0.03448 0.0
O49 O 0.95111 0.99854 0.04254 0.0
O50 O 0.03474 0.0314 0.9843 0.0
O51 O 0.00243 0.01262 0.02575 0.0
O52 O 0.01281 0.98723 0.05708 0.0
O53 O 0.03737 0.98394 0.0201 0.0
O54 O 0.00535 0.03765 0.99973 0.0
O55 O 0.05461 0.99945 0.9871 0.0
C56 C 0.00817 0.96414 1.01202 0.0
C57 C 0.93263 0.97524 0.06813 0.0
C58 C 0.90008 0.96403 0.07894 0.0
C59 C 0.91722 0.96844 0.06122 0.0
C60 C 0.89846 0.96668 0.10377 0.0
C61 C 0.93077 0.97804 0.09289 0.0
C62 C 0.91368 0.9738 0.11062 0.0
C63 C 0.97315 0.01353 0.98886 0.0
C64 C 0.95049 0.97903 0.04903 0.0
C65 C 0.97357 1.00136 0.14217 0.0
C66 C 0.96228 0.02183 0.13381 0.0
C67 C 0.99743 0.03242 0.02249 0.0
C68 C 0.06946 0.02597 0.96183 0.0
C69 C 0.07758 0.04229 0.96407 0.0
C70 C 0.09217 0.0495 0.94464 0.0
C71 C 0.09872 0.03994 0.92287 0.0
C72 C 0.076 0.01665 0.93996 0.0
C73 C 0.09062 0.02363 0.92059 0.0
C74 C 0.03257 0.98286 0.04472 0.0
C75 C 0.05405 0.01935 0.98264 0.0
H76 H 0.91888 0.96605 0.04209 0.0
H77 H 0.88542 0.96331 0.1178 0.0
H78 H 0.94247 0.98336 0.09852 0.0
H79 H 0.91232 0.97589 0.12975 0.0
H80 H 0.07263 0.04925 0.98116 0.0
H81 H 0.10984 0.04525 0.90752 0.0
H82 H 0.06991 1.00403 0.93785 0.0
H83 H 0.09564 0.01642 0.90372 0.0
Tb84 Tb 0.01142 0.26741 0.27727 0.0
C85 C 0.93582 0.25752 0.24556 0.0
C86 C 0.92185 0.23392 0.27922 0.0
C87 C 0.89806 0.2603 0.25453 0.0
C88 C 0.93906 0.24119 0.26485 0.0
C89 C 0.91539 0.26694 0.23974 0.0
C90 C 0.90128 0.24383 0.27427 0.0
C91 C 0.93106 0.28741 0.20386 0.0
N92 N 0.95301 0.26338 0.23158 0.0
C93 C 0.95105 0.27747 0.21024 0.0
C94 C 0.91312 0.28232 0.21884 0.0
Tb95 Tb 0.98497 0.2461 0.24377 0.0
N96 N 0.95918 0.23198 0.26901 0.0
C97 C 0.96328 0.21457 0.28648 0.0
C98 C 0.92587 0.2167 0.29785 0.0
C99 C 0.94671 0.20686 0.30131 0.0
H100 H 0.96487 0.28149 0.19863 0.0
H101 H 0.95002 0.19337 0.31548 0.0
H102 H 0.88783 0.2386 0.28526 0.0
H103 H 0.9295 0.29897 0.18739 0.0
H104 H 0.97924 0.20681 0.28956 0.0
H105 H 0.04607 0.32036 0.20557 0.0
H106 H 0.91308 0.21069 0.30937 0.0
H107 H 0.03186 0.23159 0.32192 0.0
H108 H 0.0169 0.30703 0.23185 0.0
H109 H 0.06744 0.21367 0.33239 0.0
H110 H 0.88219 0.26748 0.25054 0.0
H111 H 0.08314 0.30255 0.21082 0.0
H112 H 0.10859 0.2742 0.23425 0.0
H113 H 0.89767 0.28997 0.21377 0.0
H114 H 0.11445 0.24509 0.26868 0.0
N115 N 0.03711 0.28158 0.25189 0.0
C116 C 0.03292 0.29911 0.23461 0.0
C117 C 0.07037 0.29664 0.22256 0.0
C118 C 0.07449 0.27929 0.241 0.0
C119 C 0.04946 0.30675 0.21957 0.0
C120 C 0.0573 0.27216 0.25566 0.0
H121 H 0.09916 0.22253 0.30555 0.0
N122 N 0.04351 0.24987 0.28899 0.0
C123 C 0.06574 0.22538 0.31608 0.0
C124 C 0.06065 0.25572 0.27483 0.0
C125 C 0.04564 0.23558 0.31015 0.0
C126 C 0.08363 0.23041 0.30084 0.0
C127 C 0.08119 0.246 0.28016 0.0
O128 O 0.00716 0.27376 0.31388 0.0
O129 O 0.9832 0.25726 0.27847 0.0
O130 O 0.9645 0.27719 0.25161 0.0
O131 O 0.98855 0.29349 0.25785 0.0
O132 O 0.99498 0.25027 0.31017 0.0
O133 O 0.00672 0.29876 0.28311 0.0
O134 O 0.98915 0.23939 0.2073 0.0
O135 O 0.01302 0.25646 0.24255 0.0
O136 O 0.03188 0.23653 0.26892 0.0
O137 O 0.00761 0.22013 0.26371 0.0
O138 O 0.0015 0.26315 0.21079 0.0
O139 O 0.99056 0.21454 0.23824 0.0
C140 C 0.97938 0.24914 0.30109 0.0
C141 C 0.01965 0.30218 0.31818 0.0
C142 C 0.02373 0.32865 0.33996 0.0
C143 C 0.01109 0.3212 0.32854 0.0
C144 C 0.0449 0.31729 0.34053 0.0
C145 C 0.04078 0.29101 0.31956 0.0
C146 C 0.05335 0.2986 0.33036 0.0
C147 C 0.96969 0.29433 0.25322 0.0
C148 C 0.00635 0.29365 0.307 0.0
C149 C 0.09849 0.2525 0.26507 0.0
C150 C 0.09515 0.2691 0.24549 0.0
C151 C 0.01694 0.26454 0.21994 0.0
C152 C 0.97738 0.21018 0.20391 0.0
C153 C 0.98611 0.19098 0.19397 0.0
C154 C 0.97317 0.18223 0.18459 0.0
C155 C 0.9516 0.19277 0.18537 0.0
C156 C 0.95596 0.22062 0.20343 0.0
C157 C 0.94314 0.2119 0.19456 0.0
C158 C 0.02659 0.21934 0.26788 0.0
C159 C 0.99057 0.2194 0.21439 0.0
H160 H 0.99469 0.32986 0.32817 0.0
H161 H 0.05481 0.32277 0.34924 0.0
H162 H 0.04763 0.27619 0.31281 0.0
H163 H 0.06961 0.28976 0.3312 0.0
H164 H 0.00275 0.18291 0.19356 0.0
H165 H 0.9414 0.18648 0.17813 0.0
H166 H 0.94904 0.2357 0.20949 0.0
H167 H 0.92661 0.22016 0.19451 0.0
Tb168 Tb 0.74391 0.24467 0.49061 0.0
C169 C 0.74714 0.25872 0.59127 0.0
C170 C 0.71178 0.27968 0.60543 0.0
C171 C 0.7328 0.25675 0.63549 0.0
C172 C 0.72845 0.27278 0.58601 0.0
C173 C 0.7498 0.25094 0.61608 0.0
C174 C 0.71379 0.27108 0.63016 0.0
C175 C 0.78635 0.23386 0.60068 0.0
N176 N 0.76316 0.25357 0.57197 0.0
C177 C 0.78293 0.24202 0.57637 0.0
C178 C 0.76965 0.23813 0.62062 0.0
Tb179 Tb 0.75645 0.26907 0.53303 0.0
N180 N 0.72741 0.28117 0.56195 0.0
C181 C 0.71067 0.29763 0.55618 0.0
C182 C 0.69408 0.29577 0.59949 0.0
C183 C 0.69375 0.30511 0.57482 0.0
H184 H 0.79592 0.23873 0.56104 0.0
H185 H 0.68036 0.31789 0.57009 0.0
H186 H 0.70105 0.27598 0.64534 0.0
H187 H 0.80187 0.22434 0.60402 0.0
H188 H 0.71011 0.30481 0.53714 0.0
H189 H 0.81604 0.18097 0.50593 0.0
H190 H 0.68094 0.30155 0.61386 0.0
H191 H 0.73274 0.27299 0.43678 0.0
H192 H 0.78729 0.21115 0.51657 0.0
H193 H 0.74388 0.27049 0.39243 0.0
H194 H 0.73442 0.25075 0.65468 0.0
H195 H 0.82454 0.17164 0.46351 0.0
H196 H 0.81859 0.18161 0.41966 0.0
H197 H 0.77236 0.23186 0.63942 0.0
H198 H 0.79994 0.2069 0.38836 0.0
N199 N 0.77521 0.21741 0.48239 0.0
C200 C 0.78873 0.20651 0.49879 0.0
C201 C 0.81086 0.18448 0.46852 0.0
C202 C 0.79906 0.19716 0.4508 0.0
C203 C 0.80602 0.1896 0.49247 0.0
C204 C 0.78137 0.21381 0.4583 0.0
H205 H 0.77273 0.2404 0.37797 0.0
N206 N 0.75566 0.24485 0.44839 0.0
C207 C 0.75183 0.25848 0.40576 0.0
C208 C 0.77134 0.22818 0.44067 0.0
C209 C 0.74572 0.25985 0.43116 0.0
C210 C 0.76802 0.24146 0.39769 0.0
C211 C 0.77804 0.22606 0.41515 0.0
O212 O 0.71546 0.2614 0.4783 0.0
O213 O 0.73003 0.26331 0.52155 0.0
O214 O 0.75571 0.23623 0.55167 0.0
O215 O 0.74954 0.2189 0.52235 0.0
O216 O 0.71949 0.23749 0.52205 0.0
O217 O 0.7283 0.22814 0.47587 0.0
O218 O 0.78304 0.27863 0.53567 0.0
O219 O 0.76653 0.25911 0.49631 0.0
O220 O 0.7466 0.27669 0.47232 0.0
O221 O 0.74211 0.29499 0.50498 0.0
O222 O 0.78953 0.25331 0.51643 0.0
O223 O 0.75263 0.30091 0.53511 0.0
C224 C 0.71652 0.2531 0.5338 0.0
C225 C 0.69076 0.24127 0.48434 0.0
C226 C 0.66547 0.22046 0.48959 0.0
C227 C 0.6856 0.22379 0.47972 0.0
C228 C 0.65061 0.23472 0.50451 0.0
C229 C 0.67541 0.25564 0.49872 0.0
C230 C 0.6556 0.2522 0.50899 0.0
C231 C 0.75332 0.21911 0.54495 0.0
C232 C 0.71199 0.24452 0.4738 0.0
C233 C 0.79471 0.20886 0.40781 0.0
C234 C 0.80523 0.19442 0.42563 0.0
C235 C 0.78644 0.25205 0.49489 0.0
C236 C 0.77453 0.30612 0.55988 0.0
C237 C 0.79321 0.31175 0.55906 0.0
C238 C 0.79602 0.31974 0.57927 0.0
C239 C 0.7801 0.32157 0.60053 0.0
C240 C 0.75854 0.30879 0.58099 0.0
C241 C 0.76147 0.31615 0.6013 0.0
C242 C 0.74263 0.29481 0.48102 0.0
C243 C 0.77191 0.29773 0.53855 0.0
H244 H 0.6973 0.21275 0.46848 0.0
H245 H 0.63494 0.23267 0.51219 0.0
H246 H 0.67867 0.26959 0.50198 0.0
H247 H 0.64397 0.26328 0.5202 0.0
H248 H 0.80547 0.31006 0.54266 0.0
H249 H 0.7817 0.32791 0.61622 0.0
H250 H 0.74364 0.30553 0.58177 0.0
H251 H 0.74908 0.31806 0.61751 0.0
Tb252 Tb 0.74259 0.99206 0.74391 0.0
C253 C 0.75095 0.06934 0.77288 0.0
C254 C 0.77928 0.07838 0.74125 0.0
C255 C 0.75154 0.10594 0.76078 0.0
C256 C 0.76932 0.06322 0.75586 0.0
C257 C 0.74218 0.0907 0.77601 0.0
C258 C 0.77006 0.09979 0.74345 0.0
C259 C 0.71706 0.08012 0.81094 0.0
N260 N 0.74248 0.05416 0.78755 0.0
C261 C 0.72642 0.05911 0.80731 0.0
C262 C 0.72477 0.09601 0.795 0.0
Tb263 Tb 0.75961 0.02039 0.78012 0.0
N264 N 0.77786 0.04238 0.75431 0.0
C265 C 0.79679 0.03558 0.73906 0.0
C266 C 0.79845 0.07151 0.7253 0.0
C267 C 0.80727 0.05003 0.72428 0.0
H268 H 0.72049 0.0468 0.81968 0.0
H269 H 0.82216 0.04458 0.71209 0.0
H270 H 0.77739 0.11168 0.73224 0.0
H271 H 0.70398 0.08403 0.82607 0.0
H272 H 0.80382 0.01907 0.73787 0.0
H273 H 0.68794 0.9572 0.81344 0.0
H274 H 0.80678 0.08261 0.71403 0.0
H275 H 0.77625 0.97174 0.69596 0.0
H276 H 0.70135 0.98621 0.78783 0.0
H277 H 0.79505 0.93644 0.68415 0.0
H278 H 0.74493 0.12246 0.76273 0.0
H279 H 0.70752 0.92032 0.8086 0.0
H280 H 0.73773 0.89492 0.78529 0.0
H281 H 0.71759 0.11225 0.79798 0.0
H282 H 0.76768 0.88918 0.75052 0.0
N283 N 0.72901 0.96611 0.76917 0.0
C284 C 0.71025 0.97024 0.78551 0.0
C285 C 0.71373 0.933 0.79749 0.0
C286 C 0.73226 0.92884 0.77976 0.0
C287 C 0.70255 0.9538 0.80015 0.0
C288 C 0.73954 0.94595 0.76571 0.0
H289 H 0.78898 0.90464 0.71229 0.0
N290 N 0.76048 0.95996 0.73102 0.0
C291 C 0.78422 0.93798 0.70166 0.0
C292 C 0.75609 0.94272 0.74597 0.0
C293 C 0.77347 0.95793 0.70835 0.0
C294 C 0.78087 0.92006 0.71768 0.0
C295 C 0.76613 0.92231 0.73976 0.0
O296 O 0.73686 0.9953 0.70737 0.0
O297 O 0.75191 0.02004 0.7446 0.0
O298 O 0.72925 0.03993 0.77004 0.0
O299 O 0.71472 0.01489 0.76293 0.0
O300 O 0.76015 0.00879 0.71187 0.0
O301 O 0.71119 0.99814 0.7384 0.0
O302 O 0.75993 0.01898 0.81809 0.0
O303 O 0.75127 0.99179 0.77936 0.0
O304 O 0.77534 0.97398 0.74721 0.0
O305 O 0.78748 0.99476 0.76678 0.0
O306 O 0.73948 1.0054 0.81077 0.0
O307 O 0.78873 0.01704 0.79104 0.0
C308 C 0.76084 0.02396 0.72228 0.0
C309 C 0.70735 0.98386 0.70489 0.0
C310 C 0.68244 0.97993 0.68145 0.0
C311 C 0.69214 0.99285 0.68931 0.0
C312 C 0.6882 0.95812 0.68893 0.0
C313 C 0.71287 0.96199 0.71198 0.0
C314 C 0.70344 0.9492 0.70403 0.0
C315 C 0.71276 0.0342 0.76735 0.0
C316 C 0.71663 0.99731 0.71462 0.0
C317 C 0.76006 0.90502 0.75484 0.0
C318 C 0.74302 0.9083 0.77469 0.0
C319 C 0.74101 0.98892 0.80122 0.0
C320 C 0.78627 0.03173 0.82747 0.0
C321 C 0.8025 0.02315 0.84177 0.0
C322 C 0.80748 0.03589 0.85563 0.0
C323 C 0.79644 0.05729 0.85464 0.0
C324 C 0.77561 0.05319 0.8268 0.0
C325 C 0.78069 0.06587 0.84018 0.0
C326 C 0.79049 0.97801 0.75564 0.0
C327 C 0.78008 0.01796 0.81436 0.0
H328 H 0.68757 0.00973 0.68375 0.0
H329 H 0.68091 0.94798 0.68297 0.0
H330 H 0.72427 0.95473 0.72385 0.0
H331 H 0.70786 0.93236 0.70975 0.0
H332 H 0.81087 0.00659 0.84256 0.0
H333 H 0.80019 0.06745 0.86487 0.0
H334 H 0.76319 0.06032 0.81627 0.0
H335 H 0.77228 0.08239 0.83946 0.0
Tb336 Tb 0.51267 0.7706 0.28094 0.0
C337 C 0.44016 0.75854 0.24573 0.0
C338 C 0.42462 0.73486 0.27783 0.0
C339 C 0.4028 0.76049 0.25032 0.0
C340 C 0.4422 0.74242 0.26546 0.0
C341 C 0.42054 0.76751 0.23761 0.0
C342 C 0.40483 0.74421 0.2704 0.0
C343 C 0.43778 0.78872 0.20401 0.0
N344 N 0.45769 0.765 0.23399 0.0
C345 C 0.45697 0.77924 0.21258 0.0
C346 C 0.41946 0.78296 0.21668 0.0
Tb347 Tb 0.48857 0.74654 0.24829 0.0
N348 N 0.4616 0.73363 0.27194 0.0
C349 C 0.46471 0.71665 0.29012 0.0
C350 C 0.42759 0.71781 0.29687 0.0
C351 C 0.44775 0.70859 0.30292 0.0
H352 H 0.47114 0.78354 0.20252 0.0
H353 H 0.45023 0.69529 0.31747 0.0
H354 H 0.3911 0.73871 0.27978 0.0
H355 H 0.43716 0.80032 0.18751 0.0
H356 H 0.48025 0.70941 0.29491 0.0
H357 H 0.50666 0.83273 0.19973 0.0
H358 H 0.41452 0.71143 0.30672 0.0
H359 H 0.55533 0.74286 0.30531 0.0
H360 H 0.49598 0.8044 0.2284 0.0
H361 H 0.59189 0.74398 0.3022 0.0
H362 H 0.38754 0.76729 0.2445 0.0
H363 H 0.54073 0.83969 0.19935 0.0
H364 H 0.57503 0.82853 0.21468 0.0
H365 H 0.40466 0.79024 0.20988 0.0
H366 H 0.59874 0.80361 0.24132 0.0
N367 N 0.52162 0.7966 0.24884 0.0
C368 C 0.50988 0.80796 0.23082 0.0
C369 C 0.53561 0.8276 0.21315 0.0
C370 C 0.54867 0.81477 0.22955 0.0
C371 C 0.51634 0.82382 0.21343 0.0
C372 C 0.54129 0.79913 0.24718 0.0
H373 H 0.60539 0.77177 0.27324 0.0
N374 N 0.5479 0.76905 0.277 0.0
C375 C 0.58174 0.75549 0.2905 0.0
C376 C 0.55485 0.78486 0.2617 0.0
C377 C 0.56094 0.75478 0.29187 0.0
C378 C 0.58924 0.77125 0.27428 0.0
C379 C 0.5758 0.78622 0.25969 0.0
O380 O 0.51737 0.7583 0.31759 0.0
O381 O 0.49051 0.75122 0.28503 0.0
O382 O 0.46703 0.77837 0.25514 0.0
O383 O 0.48507 0.79597 0.27174 0.0
O384 O 0.48206 0.77457 0.30683 0.0
O385 O 0.51564 0.79147 0.30315 0.0
O386 O 0.49669 0.73823 0.21207 0.0
O387 O 0.5171 0.75605 0.24802 0.0
O388 O 0.53271 0.73788 0.27847 0.0
O389 O 0.51122 0.72063 0.26788 0.0
O390 O 0.50618 0.76234 0.2156 0.0
O391 O 0.49051 0.71549 0.24331 0.0
C392 C 0.47604 0.75945 0.30239 0.0
C393 C 0.52135 0.77945 0.34636 0.0
C394 C 0.52419 0.80172 0.37483 0.0
C395 C 0.51995 0.79955 0.35185 0.0
C396 C 0.5295 0.78363 0.39222 0.0
C397 C 0.52664 0.76174 0.36422 0.0
C398 C 0.53064 0.76386 0.38695 0.0
C399 C 0.4685 0.79543 0.26278 0.0
C400 C 0.51807 0.77646 0.32198 0.0
C401 C 0.58277 0.8023 0.24303 0.0
C402 C 0.56924 0.81654 0.22797 0.0
C403 C 0.52176 0.76291 0.2251 0.0
C404 C 0.48128 0.71267 0.2055 0.0
C405 C 0.48758 0.69235 0.19824 0.0
C406 C 0.47499 0.68644 0.18498 0.0
C407 C 0.45616 0.70106 0.17927 0.0
C408 C 0.46267 0.72687 0.19877 0.0
C409 C 0.45012 0.72107 0.1861 0.0
C410 C 0.52887 0.72036 0.27523 0.0
C411 C 0.49432 0.71934 0.21921 0.0
H412 H 0.51597 0.81336 0.33823 0.0
H413 H 0.53258 0.7848 0.4101 0.0
H414 H 0.52789 0.74613 0.36056 0.0
H415 H 0.53471 0.75008 0.40055 0.0
H416 H 0.50215 0.68129 0.20277 0.0
H417 H 0.44636 0.69725 0.16874 0.0
H418 H 0.4579 0.74268 0.20271 0.0
H419 H 0.43582 0.73232 0.18112 0.0
Tb420 Tb 0.24349 0.74129 0.49189 0.0
C421 C 0.23216 0.77274 0.5873 0.0
C422 C 0.20176 0.80277 0.58355 0.0
C423 C 0.20824 0.78508 0.62446 0.0
C424 C 0.22028 0.78868 0.57247 0.0
C425 C 0.22647 0.77105 0.61352 0.0
C426 C 0.19587 0.80087 0.6095 0.0
C427 C 0.25803 0.74268 0.61662 0.0
N428 N 0.24949 0.75912 0.57619 0.0
C429 C 0.26299 0.7449 0.59069 0.0
C430 C 0.2395 0.75559 0.62811 0.0
Tb431 Tb 0.25775 0.76533 0.53325 0.0
N432 N 0.2263 0.7899 0.54731 0.0
C433 C 0.2131 0.80431 0.53258 0.0
C434 C 0.18934 0.81815 0.5683 0.0
C435 C 0.19494 0.81876 0.54272 0.0
H436 H 0.27749 0.73451 0.5825 0.0
H437 H 0.1849 0.83001 0.53069 0.0
H438 H 0.18171 0.81152 0.61819 0.0
H439 H 0.26855 0.73094 0.6277 0.0
H440 H 0.21529 0.80455 0.51299 0.0
H441 H 0.31533 0.67547 0.49499 0.0
H442 H 0.17504 0.82917 0.57609 0.0
H443 H 0.22459 0.77242 0.44207 0.0
H444 H 0.28436 0.7002 0.51275 0.0
H445 H 0.23621 0.77896 0.39728 0.0
H446 H 0.20361 0.78389 0.6445 0.0
H447 H 0.32733 0.67855 0.44967 0.0
H448 H 0.32287 0.69844 0.40783 0.0
H449 H 0.23567 0.75383 0.64823 0.0
H450 H 0.30239 0.72747 0.38154 0.0
N451 N 0.27526 0.71704 0.47806 0.0
C452 C 0.28757 0.70166 0.49294 0.0
C453 C 0.31278 0.68932 0.45734 0.0
C454 C 0.30117 0.70553 0.44209 0.0
C455 C 0.30601 0.68749 0.48288 0.0
C456 C 0.28223 0.71922 0.45301 0.0
H457 H 0.27047 0.75762 0.37746 0.0
N458 N 0.25297 0.74876 0.44912 0.0
C459 C 0.24635 0.76695 0.40854 0.0
C460 C 0.27095 0.73577 0.4382 0.0
C461 C 0.23999 0.76328 0.43426 0.0
C462 C 0.26561 0.75485 0.39745 0.0
C463 C 0.27794 0.73873 0.41214 0.0
O464 O 0.21456 0.75095 0.47936 0.0
O465 O 0.231 0.76096 0.52192 0.0
O466 O 0.25786 0.732 0.55061 0.0
O467 O 0.24887 0.71544 0.52296 0.0
O468 O 0.21866 0.73635 0.524 0.0
O469 O 0.23268 0.71834 0.4814 0.0
O470 O 0.28761 0.75371 0.54345 0.0
O471 O 0.27042 0.74578 0.50303 0.0
O472 O 0.241 0.77547 0.47601 0.0
O473 O 0.25207 0.79146 0.50257 0.0
O474 O 0.28154 0.77148 0.50066 0.0
O475 O 0.27 0.78644 0.54517 0.0
C476 C 0.21711 0.75185 0.53504 0.0
C477 C 0.19509 0.72567 0.4931 0.0
C478 C 0.17675 0.69866 0.5125 0.0
C479 C 0.19409 0.70465 0.49666 0.0
C480 C 0.16033 0.71386 0.52453 0.0
C481 C 0.17811 0.7407 0.50488 0.0
C482 C 0.161 0.73475 0.5206 0.0
C483 C 0.25403 0.71528 0.54476 0.0
C484 C 0.21434 0.73173 0.47875 0.0
C485 C 0.29676 0.72529 0.40142 0.0
C486 C 0.30833 0.7087 0.41636 0.0
C487 C 0.28362 0.75574 0.48967 0.0
C488 C 0.30764 0.77858 0.53473 0.0
C489 C 0.31053 0.79705 0.53977 0.0
C490 C 0.32939 0.80296 0.52939 0.0
C491 C 0.34523 0.79024 0.51351 0.0
C492 C 0.32381 0.76599 0.51899 0.0
C493 C 0.34238 0.77191 0.50835 0.0
C494 C 0.24575 0.79193 0.48134 0.0
C495 C 0.28812 0.77224 0.54677 0.0
H496 H 0.2069 0.69294 0.48756 0.0
H497 H 0.14669 0.70968 0.53653 0.0
H498 H 0.17821 0.75705 0.50251 0.0
H499 H 0.14821 0.74639 0.52981 0.0
H500 H 0.2981 0.80675 0.55189 0.0
H501 H 0.36008 0.79412 0.50559 0.0
H502 H 0.32224 0.75147 0.515 0.0
H503 H 0.35478 0.76204 0.49645 0.0
Tb504 Tb 0.24234 0.49162 0.74779 0.0
C505 C 0.25357 0.56815 0.77723 0.0
C506 C 0.27849 0.57831 0.74178 0.0
C507 C 0.2529 0.60505 0.76478 0.0
C508 C 0.26995 0.56271 0.7578 0.0
C509 C 0.24529 0.5893 0.78147 0.0
C510 C 0.26946 0.59956 0.74493 0.0
C511 C 0.2245 0.57742 0.81989 0.0
N512 N 0.24665 0.5525 0.79293 0.0
C513 C 0.23324 0.55667 0.81488 0.0
C514 C 0.23022 0.59386 0.80285 0.0
Tb515 Tb 0.26152 0.51913 0.78264 0.0
N516 N 0.27827 0.54201 0.75544 0.0
C517 C 0.29645 0.53574 0.7387 0.0
C518 C 0.29624 0.57203 0.7236 0.0
C519 C 0.30551 0.55063 0.7224 0.0
H520 H 0.22854 0.54402 0.82797 0.0
H521 H 0.31952 0.54557 0.70876 0.0
H522 H 0.27561 0.6118 0.7326 0.0
H523 H 0.21331 0.5807 0.83682 0.0
H524 H 0.30374 0.51932 0.73716 0.0
H525 H 0.18232 0.46443 0.81712 0.0
H526 H 0.30324 0.58352 0.71088 0.0
H527 H 0.27968 0.46763 0.70493 0.0
H528 H 0.20022 0.49076 0.79261 0.0
H529 H 0.29533 0.43136 0.6947 0.0
H530 H 0.24655 0.62143 0.76751 0.0
H531 H 0.19662 0.42707 0.81087 0.0
H532 H 0.2245 0.39932 0.78859 0.0
H533 H 0.22347 0.6099 0.80679 0.0
H534 H 0.25572 0.39017 0.75594 0.0
N535 N 0.22507 0.46852 0.77303 0.0
C536 C 0.20686 0.47453 0.78974 0.0
C537 C 0.20483 0.43851 0.80033 0.0
C538 C 0.22324 0.43248 0.78291 0.0
C539 C 0.19662 0.45961 0.80377 0.0
C540 C 0.23304 0.44807 0.76928 0.0
H541 H 0.28217 0.40204 0.72073 0.0
N542 N 0.25871 0.45863 0.73721 0.0
C543 C 0.28286 0.43437 0.71066 0.0
C544 C 0.2506 0.44289 0.75096 0.0
C545 C 0.27398 0.45486 0.71648 0.0
C546 C 0.27542 0.41785 0.72545 0.0
C547 C 0.2588 0.42205 0.74556 0.0
O548 O 0.23938 0.49512 0.71025 0.0
O549 O 0.25176 0.51977 0.7478 0.0
O550 O 0.22931 0.5387 0.7787 0.0
O551 O 0.2152 0.51647 0.76403 0.0
O552 O 0.26234 0.50597 0.71642 0.0
O553 O 0.21192 0.49698 0.73925 0.0
O554 O 0.26574 0.51706 0.81939 0.0
O555 O 0.25126 0.49148 0.78287 0.0
O556 O 0.27291 0.47094 0.75629 0.0
O557 O 0.28846 0.49429 0.76591 0.0
O558 O 0.24297 0.50379 0.81497 0.0
O559 O 0.2924 0.51438 0.78928 0.0
C560 C 0.26161 0.52231 0.72569 0.0
C561 C 0.21089 0.48466 0.70254 0.0
C562 C 0.18601 0.48287 0.67739 0.0
C563 C 0.19384 0.49464 0.6897 0.0
C564 C 0.19551 0.46113 0.67803 0.0
C565 C 0.22016 0.46301 0.70249 0.0
C566 C 0.21247 0.45133 0.69046 0.0
C567 C 0.21323 0.53412 0.77286 0.0
C568 C 0.21903 0.49703 0.71546 0.0
C569 C 0.24959 0.40631 0.7597 0.0
C570 C 0.23179 0.41153 0.77827 0.0
C571 C 0.24213 0.48826 0.80525 0.0
C572 C 0.29902 0.49686 0.82897 0.0
C573 C 0.31314 0.50162 0.84077 0.0
C574 C 0.32474 0.48615 0.85732 0.0
C575 C 0.32197 0.46569 0.86139 0.0
C576 C 0.29684 0.47634 0.83299 0.0
C577 C 0.3083 0.46085 0.84914 0.0
C578 C 0.28966 0.47564 0.76011 0.0
C579 C 0.28622 0.51377 0.81322 0.0
H580 H 0.18663 0.5114 0.68942 0.0
H581 H 0.19006 0.45173 0.66846 0.0
H582 H 0.23349 0.45501 0.71141 0.0
H583 H 0.21984 0.43462 0.69059 0.0
H584 H 0.31504 0.51744 0.83689 0.0
H585 H 0.33005 0.45339 0.87435 0.0
H586 H 0.28613 0.4724 0.82388 0.0
H587 H 0.30639 0.44506 0.85244 0.0
Tb588 Tb 0.99203 0.49808 0.53328 0.0
C589 C 0.02048 0.5083 0.42332 0.0
C590 C 0.05147 0.47853 0.42122 0.0
C591 C 0.03118 0.48923 0.38764 0.0
C592 C 0.03729 0.495 0.43374 0.0
C593 C 0.0175 0.50592 0.39983 0.0
C594 C 0.04812 0.47553 0.39834 0.0
C595 C 0.98882 0.53766 0.40124 0.0
N596 N 0.00738 0.52397 0.43586 0.0
C597 C 0.99247 0.53935 0.4244 0.0
C598 C 0.00115 0.52064 0.38907 0.0
Tb599 Tb 0.01382 0.52489 0.47456 0.0
N600 N 0.03968 0.49812 0.45618 0.0
C601 C 0.05677 0.4856 0.46651 0.0
C602 C 0.06859 0.46555 0.43206 0.0
C603 C 0.07133 0.46923 0.45469 0.0
H604 H 0.98299 0.55278 0.43348 0.0
H605 H 0.08458 0.4593 0.46324 0.0
H606 H 0.0587 0.46281 0.38864 0.0
H607 H 0.97654 0.54954 0.39276 0.0
H608 H 0.05936 0.48752 0.48412 0.0
H609 H 0.93488 0.56258 0.57627 0.0
H610 H 0.0798 0.45273 0.42307 0.0
H611 H 0.02348 0.45501 0.559 0.0
H612 H 0.95024 0.53919 0.54418 0.0
H613 H 0.03824 0.44288 0.59786 0.0
H614 H 0.02898 0.48698 0.36976 0.0
H615 H 0.95124 0.55657 0.61364 0.0
H616 H 0.97849 0.53354 0.63905 0.0
H617 H 0.99834 0.51936 0.37109 0.0
H618 H 0.00673 0.50068 0.64506 0.0
N619 N 0.97565 0.52028 0.56259 0.0
C620 C 0.95757 0.5362 0.56037 0.0
C621 C 0.95808 0.54619 0.59958 0.0
C622 C 0.97558 0.52891 0.60267 0.0
C623 C 0.94877 0.54959 0.57856 0.0
C624 C 0.98392 0.51601 0.58371 0.0
H625 H 0.02876 0.46642 0.63004 0.0
N626 N 0.0062 0.48527 0.56889 0.0
C627 C 0.02755 0.45843 0.59497 0.0
C628 C -0.00023 0.49775 0.58704 0.0
C629 C 0.01911 0.46533 0.57302 0.0
C630 C 0.02222 0.47179 0.61306 0.0
C631 C 0.00781 0.49158 0.60945 0.0
O632 O 0.98658 0.46804 0.54087 0.0
O633 O 0.00396 0.49769 0.49417 0.0
O634 O 0.9821 0.52439 0.47146 0.0
O635 O 0.96622 0.51599 0.51267 0.0
O636 O 0.01213 0.47002 0.5167 0.0
O637 O 0.96076 0.49594 0.54589 0.0
O638 O 0.01183 0.55496 0.45436 0.0
O639 O 0.0005 0.52618 0.51321 0.0
O640 O 0.02316 0.49866 0.5383 0.0
O641 O 0.0366 0.5168 0.5006 0.0
O642 O 0.99118 0.55273 0.48932 0.0
O643 O 0.0413 0.53573 0.46518 0.0
C644 C 0.01346 0.47854 0.49384 0.0
C645 C 0.9569 0.46438 0.57126 0.0
C646 C 0.9363 0.43931 0.59085 0.0
C647 C 0.94617 0.44998 0.5694 0.0
C648 C 0.93779 0.443 0.61432 0.0
C649 C 0.95813 0.46801 0.59474 0.0
C650 C 0.94869 0.45724 0.61618 0.0
C651 C 0.96548 0.52219 0.48868 0.0
C652 C 0.96636 0.47548 0.54828 0.0
C653 C 0.00054 0.50497 0.62783 0.0
C654 C 0.98446 0.52366 0.62442 0.0
C655 C 0.98991 0.54519 0.51254 0.0
C656 C 0.03232 0.57222 0.46785 0.0
C657 C 0.05102 0.57113 0.47605 0.0
C658 C 0.05162 0.58658 0.48933 0.0
C659 C 0.03376 0.60369 0.49337 0.0
C660 C 0.01467 0.5897 0.47178 0.0
C661 C 0.01546 0.60531 0.48444 0.0
C662 C 0.03808 0.50665 0.52349 0.0
C663 C 0.03078 0.5546 0.45672 0.0
H664 H 0.94555 0.4471 0.55113 0.0
H665 H 0.93017 0.43525 0.63121 0.0
H666 H 0.9662 0.4792 0.59652 0.0
H667 H 0.94962 0.46012 0.6343 0.0
H668 H 0.06486 0.55797 0.47282 0.0
H669 H 0.03413 0.616 0.5031 0.0
H670 H 9e-05 0.59123 0.46544 0.0
H671 H 0.00178 0.61861 0.48751 0.0
Tb672 Tb 0.24182 0.24245 0.98943 0.0
C673 C 0.24677 0.25661 0.09015 0.0
C674 C 0.21243 0.27941 0.10451 0.0
C675 C 0.23303 0.2556 0.13446 0.0
C676 C 0.22861 0.27171 0.08501 0.0
C677 C 0.24944 0.24866 0.11493 0.0
C678 C 0.21454 0.27094 0.12925 0.0
C679 C 0.28485 0.22875 0.0992 0.0
N680 N 0.26214 0.25017 0.07073 0.0
C681 C 0.28145 0.23712 0.07493 0.0
C682 C 0.2687 0.23435 0.11929 0.0
Tb683 Tb 0.25544 0.26585 0.03182 0.0
N684 N 0.22725 0.27955 0.0609 0.0
C685 C 0.2106 0.29611 0.05504 0.0
C686 C 0.19495 0.29579 0.09856 0.0
C687 C 0.19419 0.30438 0.07374 0.0
H688 H 0.29403 0.23275 0.0595 0.0
H689 H 0.18088 0.31725 0.06896 0.0
H690 H 0.20219 0.27649 0.14449 0.0
H691 H 0.29994 0.21801 0.1024 0.0
H692 H 0.20967 0.30276 0.03592 0.0
H693 H 0.31263 0.17728 1.00575 0.0
H694 H 0.18222 0.30222 0.11299 0.0
H695 H 0.23111 0.27105 0.93554 0.0
H696 H 0.2839 0.20734 0.01647 0.0
H697 H 0.24326 0.26928 0.89117 0.0
H698 H 0.23467 0.24953 0.15363 0.0
H699 H 0.32241 0.16918 0.96274 0.0
H700 H 0.31785 0.18037 0.91857 0.0
H701 H 0.27139 0.22787 0.13806 0.0
H702 H 0.30001 0.20628 0.88712 0.0
N703 N 0.27281 0.21477 0.98153 0.0
C704 C 0.28571 0.20321 0.99834 0.0
C705 C 0.30865 0.18196 0.96773 0.0
C706 C 0.29745 0.1952 0.9498 0.0
C707 C 0.30308 0.18637 0.99201 0.0
C708 C 0.27961 0.21175 0.95727 0.0
H709 H 0.2728 0.23971 0.87672 0.0
N710 N 0.25411 0.24301 0.94726 0.0
C711 C 0.25105 0.25716 0.90453 0.0
C712 C 0.27004 0.22651 0.93955 0.0
C713 C 0.24435 0.25811 0.92997 0.0
C714 C 0.26762 0.24043 0.89647 0.0
C715 C 0.27735 0.22484 0.91397 0.0
O716 O 0.21364 0.25911 0.97647 0.0
O717 O 0.22865 0.26142 0.02004 0.0
O718 O 0.25266 0.23378 0.05104 0.0
O719 O 0.24645 0.21672 0.02151 0.0
O720 O 0.21653 0.23671 0.02065 0.0
O721 O 0.22642 0.22577 0.97458 0.0
O722 O 0.28294 0.27363 0.03411 0.0
O723 O 0.26509 0.2562 0.99491 0.0
O724 O 0.24459 0.27463 0.97144 0.0
O725 O 0.24115 0.29223 1.00441 0.0
O726 O 0.28803 0.24876 0.01549 0.0
O727 O 0.25316 0.29725 0.03457 0.0
C728 C 0.21438 0.2522 0.03223 0.0
C729 C 0.18888 0.23906 0.98264 0.0
C730 C 0.16364 0.21806 0.98877 0.0
C731 C 0.18376 0.22133 0.97865 0.0
C732 C 0.14869 0.23272 1.0031 0.0
C733 C 0.17347 0.25376 0.99655 0.0
C734 C 0.15362 0.25046 1.0069 0.0
C735 C 0.24989 0.21686 0.04431 0.0
C736 C 0.21018 0.24216 0.97215 0.0
C737 C 0.29427 0.20785 0.90662 0.0
C738 C 0.30433 0.19305 0.92452 0.0
C739 C 0.28491 0.24833 0.99368 0.0
C740 C 0.28389 0.3077 0.01512 0.0
C741 C 0.29072 0.32233 0.02353 0.0
C742 C 0.3027 0.33485 1.00695 0.0
C743 C 0.30653 0.33332 0.98137 0.0
C744 C 0.28803 0.30613 0.98965 0.0
C745 C 0.29903 0.31917 0.97282 0.0
C746 C 0.24136 0.29249 0.98045 0.0
C747 C 0.27342 0.29357 0.03347 0.0
H748 H 0.19551 0.21 0.96783 0.0
H749 H 0.13302 0.23072 1.01091 0.0
H750 H 0.17671 0.26783 0.99947 0.0
H751 H 0.14194 0.26179 0.01773 0.0
H752 H 0.28697 0.32358 0.04323 0.0
H753 H 0.31585 0.34251 0.96802 0.0
H754 H 0.28304 0.29472 0.98286 0.0
H755 H 0.30222 0.31792 0.95318 0.0
Tb756 Tb 0.23706 0.993 0.24829 0.0
C757 C 0.24858 0.06855 0.28054 0.0
C758 C 0.27357 0.07994 0.24601 0.0
C759 C 0.24822 0.10551 0.27087 0.0
C760 C 0.26483 0.06394 0.26067 0.0
C761 C 0.2404 0.0893 0.28625 0.0
C762 C 0.26482 0.10083 0.25081 0.0
C763 C 0.21929 0.07605 0.32354 0.0
N764 N 0.24164 0.05244 0.29515 0.0
C765 C 0.22811 0.0557 0.31728 0.0
C766 C 0.2252 0.09299 0.30775 0.0
Tb767 Tb 0.25689 0.0198 0.28291 0.0
N768 N 0.2729 0.04357 0.25663 0.0
C769 C 0.29075 0.03798 0.23921 0.0
C770 C 0.29128 0.07437 0.22753 0.0
C771 C 0.3 0.05329 0.22426 0.0
H772 H 0.22344 0.04263 0.32951 0.0
H773 H 0.3139 0.04878 0.21025 0.0
H774 H 0.27114 0.11338 0.23955 0.0
H775 H 0.208 0.07865 0.34057 0.0
H776 H 0.29776 0.02178 0.23636 0.0
H777 H 0.1758 0.97215 0.32181 0.0
H778 H 0.29874 0.08611 0.21621 0.0
H779 H 0.27232 0.96533 0.2066 0.0
H780 H 0.1948 0.99633 0.2943 0.0
H781 H 0.2851 0.9282 0.19896 0.0
H782 H 0.242 0.1216 0.27479 0.0
H783 H 0.18801 0.93408 0.31879 0.0
H784 H 0.21375 0.90432 0.29794 0.0
H785 H 0.21848 0.10872 0.31274 0.0
H786 H 0.24361 0.89231 0.26479 0.0
N787 N 0.21804 0.97229 0.27559 0.0
C788 C 0.20038 0.97984 0.29242 0.0
C789 C 0.19652 0.94463 0.30658 0.0
C790 C 0.21415 0.93707 0.28882 0.0
C791 C 0.18953 0.96613 0.30825 0.0
C792 C 0.22458 0.95149 0.27323 0.0
H793 H 0.27013 0.90111 0.22765 0.0
N794 N 0.25077 0.9591 0.2397 0.0
C795 C 0.27292 0.9326 0.21479 0.0
C796 C 0.2415 0.94467 0.25472 0.0
C797 C 0.26562 0.95358 0.21912 0.0
C798 C 0.26446 0.91735 0.23106 0.0
C799 C 0.24832 0.92334 0.25109 0.0
O800 O 0.23519 0.99333 0.21119 0.0
O801 O 0.24674 0.02105 0.2481 0.0
O802 O 0.22462 0.0395 0.27986 0.0
O803 O 0.21046 0.01899 0.26246 0.0
O804 O 0.25676 0.00752 0.21659 0.0
O805 O 0.20688 0.99808 0.23945 0.0
O806 O 0.26208 0.01584 0.31961 0.0
O807 O 0.24704 0.99198 0.28294 0.0
O808 O 0.26787 0.97231 0.25534 0.0
O809 O 0.28365 0.99552 0.26487 0.0
O810 O 0.23893 1.00397 0.31533 0.0
O811 O 0.28781 0.01592 0.28855 0.0
C812 C 0.25636 0.02375 0.22589 0.0
C813 C 0.20331 0.01374 0.19821 0.0
C814 C 0.17917 0.02295 0.16834 0.0
C815 C 0.18864 0.00892 0.18754 0.0
C816 C 0.18423 0.0424 0.16076 0.0
C817 C 0.20792 0.03325 0.19068 0.0
C818 C 0.19829 0.04756 0.1721 0.0
C819 C 0.20862 0.03574 0.2729 0.0
C820 C 0.21457 0.99746 0.21585 0.0
C821 C 0.23846 0.9088 0.26712 0.0
C822 C 0.22143 0.91565 0.28596 0.0
C823 C 0.23834 0.98846 0.30543 0.0
C824 C 0.29623 0.99575 0.32622 0.0
C825 C 0.30957 0.99995 0.33955 0.0
C826 C 0.32321 0.98346 0.35276 0.0
C827 C 0.32331 0.96258 0.35218 0.0
C828 C 0.29651 0.9749 0.32583 0.0
C829 C 0.31005 0.95839 0.33877 0.0
C830 C 0.28473 0.97697 0.25887 0.0
C831 C 0.2824 0.01345 0.31265 0.0
H832 H 0.18485 0.994 0.19422 0.0
H833 H 0.17771 0.05353 0.14577 0.0
H834 H 0.2191 0.03726 0.1989 0.0
H835 H 0.20207 0.06253 0.16612 0.0
H836 H 0.30951 0.01614 0.33928 0.0
H837 H 0.33344 0.9495 0.36231 0.0
H838 H 0.28633 0.97142 0.31554 0.0
H839 H 0.31023 0.94229 0.33846 0.0
Tb840 Tb 0.51327 0.26348 0.78181 0.0
C841 C 0.43772 0.25573 0.74869 0.0
C842 C 0.42504 0.2303 0.78098 0.0
C843 C 0.40016 0.25752 0.75845 0.0
C844 C 0.44176 0.23845 0.76681 0.0
C845 C 0.41697 0.26514 0.74386 0.0
C846 C 0.40418 0.24016 0.77701 0.0
C847 C 0.43129 0.28768 0.70915 0.0
N848 N 0.45439 0.26265 0.73489 0.0
C849 C 0.45162 0.27778 0.71453 0.0
C850 C 0.41386 0.28153 0.72406 0.0
Tb851 Tb 0.48687 0.2449 0.74524 0.0
N852 N 0.46211 0.22934 0.77015 0.0
C853 C 0.46695 0.21132 0.78656 0.0
C854 C 0.42981 0.21235 0.79849 0.0
C855 C 0.45089 0.2027 0.8011 0.0
H856 H 0.46509 0.28255 0.70299 0.0
H857 H 0.45476 0.18868 0.81442 0.0
H858 H 0.3911 0.23424 0.78787 0.0
H859 H 0.42907 0.30002 0.69349 0.0
H860 H 0.48311 0.20377 0.789 0.0
H861 H 0.54955 0.31626 0.71179 0.0
H862 H 0.41741 0.20566 0.80984 0.0
H863 H 0.53242 0.23156 0.82966 0.0
H864 H 0.51995 0.30336 0.73747 0.0
H865 H 0.56751 0.21402 0.84168 0.0
H866 H 0.38406 0.26466 0.75521 0.0
H867 H 0.58642 0.29732 0.71668 0.0
H868 H 0.61142 0.26796 0.73968 0.0
H869 H 0.39815 0.28917 0.71977 0.0
H870 H 0.61643 0.23938 0.77472 0.0
N871 N 0.53972 0.27666 0.75643 0.0
C872 C 0.5359 0.29477 0.7399 0.0
C873 C 0.57349 0.29135 0.72788 0.0
C874 C 0.57729 0.27348 0.7457 0.0
C875 C 0.55269 0.30218 0.72519 0.0
C876 C 0.55983 0.26653 0.75994 0.0
H877 H 0.60005 0.21951 0.81336 0.0
N878 N 0.5451 0.24615 0.79445 0.0
C879 C 0.56639 0.22409 0.82404 0.0
C880 C 0.56269 0.25045 0.77951 0.0
C881 C 0.54656 0.23409 0.81723 0.0
C882 C 0.58473 0.22711 0.80792 0.0
C883 C 0.58299 0.24094 0.78569 0.0
O884 O 0.50917 0.27046 0.81829 0.0
O885 O 0.48507 0.2541 0.78114 0.0
O886 O 0.46659 0.27552 0.75499 0.0
O887 O 0.49098 0.29052 0.7627 0.0
O888 O 0.49507 0.24732 0.81395 0.0
O889 O 0.50762 0.29504 0.78733 0.0
O890 O 0.48983 0.24128 0.70774 0.0
O891 O 0.51575 0.2533 0.74597 0.0
O892 O 0.53177 0.2306 0.77843 0.0
O893 O 0.51055 0.21745 0.76097 0.0
O894 O 0.50371 0.26314 0.71417 0.0
O895 O 0.4912 0.21455 0.73642 0.0
C896 C 0.4801 0.24624 0.8037 0.0
C897 C 0.52094 0.29991 0.82115 0.0
C898 C 0.52511 0.32698 0.84208 0.0
C899 C 0.5119 0.31769 0.83387 0.0
C900 C 0.54714 0.31821 0.8377 0.0
C901 C 0.54299 0.29152 0.8175 0.0
C902 C 0.55597 0.30056 0.82561 0.0
C903 C 0.47197 0.29216 0.75796 0.0
C904 C 0.50764 0.29043 0.81113 0.0
C905 C 0.60065 0.24668 0.77047 0.0
C906 C 0.59779 0.26299 0.75053 0.0
C907 C 0.51976 0.26234 0.72374 0.0
C908 C 0.47738 0.21346 0.70103 0.0
C909 C 0.48569 0.1949 0.6897 0.0
C910 C 0.47248 0.18744 0.67909 0.0
C911 C 0.45107 0.1986 0.68003 0.0
C912 C 0.45609 0.22457 0.70071 0.0
C913 C 0.44301 0.2171 0.69061 0.0
C914 C 0.52744 0.21493 0.77113 0.0
C915 C 0.49091 0.22122 0.71284 0.0
H916 H 0.49488 0.32441 0.83702 0.0
H917 H 0.55757 0.32493 0.84396 0.0
H918 H 0.55036 0.27796 0.80838 0.0
H919 H 0.57297 0.29383 0.82251 0.0
H920 H 0.50222 0.18632 0.68918 0.0
H921 H 0.44066 0.19328 0.6719 0.0
H922 H 0.44944 0.2392 0.70788 0.0
H923 H 0.42659 0.22585 0.69071 0.0
Tb924 Tb 0.01392 0.7631 0.78089 0.0
C925 C 0.93912 0.74968 0.76338 0.0
C926 C 0.9367 0.71885 0.79353 0.0
C927 C 0.90457 0.74538 0.78502 0.0
C928 C 0.94894 0.7309 0.77625 0.0
C929 C 0.91675 0.75678 0.76703 0.0
C930 C 0.91454 0.72642 0.79824 0.0
C931 C 0.91991 0.78393 0.73224 0.0
N932 N 0.95139 0.76013 0.74594 0.0
C933 C 0.94193 0.77599 0.72904 0.0
C934 C 0.90724 0.7746 0.75174 0.0
Tb935 Tb 0.98774 0.74625 0.74314 0.0
N936 N 0.97044 0.72426 0.7716 0.0
C937 C 0.98051 0.70484 0.78259 0.0
C938 C 0.94709 0.69946 0.80547 0.0
C939 C 0.96907 0.69234 0.79974 0.0
H940 H 0.95143 0.7826 0.71291 0.0
H941 H 0.97727 0.67713 0.80846 0.0
H942 H 0.90494 0.71754 0.81172 0.0
H943 H 0.91273 0.79698 0.71935 0.0
H944 H 0.99731 0.69846 0.77813 0.0
H945 H 0.02116 0.83371 0.71641 0.0
H946 H 0.93828 0.68977 0.81884 0.0
H947 H 0.05199 0.72717 0.80873 0.0
H948 H 0.00254 0.81177 0.74761 0.0
H949 H 0.0907 0.71352 0.80023 0.0
H950 H 0.88741 0.75077 0.78831 0.0
H951 H 0.06 0.82181 0.70377 0.0
H952 H 0.09407 0.79454 0.70896 0.0
H953 H 0.89015 0.78056 0.75399 0.0
H954 H 0.11297 0.76126 0.73098 0.0
N955 N 0.02993 0.786 0.75204 0.0
C956 C 0.01923 0.80552 0.74199 0.0
C957 C 0.05179 0.81175 0.71741 0.0
C958 C 0.0629 0.79237 0.72858 0.0
C959 C 0.02988 0.81844 0.7244 0.0
C960 C 0.05142 0.77981 0.74623 0.0
H961 H 0.11187 0.73083 0.76485 0.0
N962 N 0.05046 0.75 0.77604 0.0
C963 C 0.08285 0.72661 0.78788 0.0
C964 C 0.062 0.76096 0.75823 0.0
C965 C 0.06078 0.73412 0.79223 0.0
C966 C 0.09473 0.73645 0.76798 0.0
C967 C 0.0844 0.75434 0.75346 0.0
O968 O 0.02171 0.76189 0.8159 0.0
O969 O 0.98469 0.75554 0.77976 0.0
O970 O 0.97522 0.78087 0.74014 0.0
O971 O 0.98452 0.78819 0.7745 0.0
O972 O 0.99666 0.74556 0.81201 0.0
O973 O 0.00675 0.79131 0.79616 0.0
O974 O 0.98235 0.74714 0.70704 0.0
O975 O 0.01714 0.75342 0.74437 0.0
O976 O 0.02592 0.72851 0.78504 0.0
O977 O 0.01675 0.72087 0.75072 0.0
O978 O 0.00508 0.76372 0.71216 0.0
O979 O 0.99359 0.7176 0.7291 0.0
C980 C 0.98077 0.74638 0.80205 0.0
C981 C 0.03041 0.79233 0.82142 0.0
C982 C 0.03682 0.81901 0.84093 0.0
C983 C 0.02273 0.80898 0.83592 0.0
C984 C 0.05855 0.81212 0.83134 0.0
C985 C 0.05226 0.78566 0.81256 0.0
C986 C 0.06617 0.79554 0.81735 0.0
C987 C 0.97302 0.79359 0.75649 0.0
C988 C 0.01559 0.78222 0.81546 0.0
C989 C 0.09581 0.76627 0.73516 0.0
C990 C 0.08507 0.78527 0.72273 0.0
C991 C 0.02111 0.76254 0.72205 0.0
C992 C 0.97181 0.71806 0.70057 0.0
C993 C 0.97926 0.70032 0.68775 0.0
C994 C 0.96489 0.69243 0.67963 0.0
C995 C 0.94312 0.70278 0.68434 0.0
C996 C 0.94994 0.72764 0.70517 0.0
C997 C 0.93577 0.7201 0.69711 0.0
C998 C 0.02802 0.71557 0.76899 0.0
C999 C 0.98686 0.72676 0.70848 0.0
H1000 H 0.00592 0.81421 0.84307 0.0
H1001 H 0.06978 0.81929 0.83513 0.0
H1002 H 0.05879 0.77273 0.8021 0.0
H1003 H 0.08298 0.7902 0.81034 0.0
H1004 H 0.9961 0.6927 0.68423 0.0
H1005 H 0.93165 0.69773 0.67777 0.0
H1006 H 0.94363 0.74115 0.71467 0.0
H1007 H 0.91898 0.72789 0.70057 0.0
Tb1008 Tb 0.73649 0.49166 0.24881 0.0
C1009 C 0.75269 0.56782 0.27388 0.0
C1010 C 0.77304 0.5819 0.23645 0.0
C1011 C 0.75041 0.60522 0.26576 0.0
C1012 C 0.76645 0.56485 0.25174 0.0
C1013 C 0.74478 0.58794 0.28146 0.0
C1014 C 0.76452 0.6022 0.24326 0.0
C1015 C 0.72756 0.57208 0.32012 0.0
N1016 N 0.74765 0.55071 0.28843 0.0
C1017 C 0.7359 0.55242 0.31179 0.0
C1018 C 0.73186 0.58996 0.30479 0.0
Tb1019 Tb 0.76326 0.51898 0.27393 0.0
N1020 N 0.77461 0.54494 0.24612 0.0
C1021 C 0.79061 0.54079 0.22626 0.0
C1022 C 0.78858 0.57789 0.21533 0.0
C1023 C 0.79767 0.55719 0.21047 0.0
H1024 H 0.73256 0.53867 0.32378 0.0
H1025 H 0.81001 0.55385 0.19446 0.0
H1026 H 0.7692 0.61555 0.23163 0.0
H1027 H 0.71789 0.57342 0.33837 0.0
H1028 H 0.7977 0.5249 0.22215 0.0
H1029 H 0.67511 0.50393 0.33285 0.0
H1030 H 0.79406 0.59054 0.20306 0.0
H1031 H 0.7646 0.44627 0.22863 0.0
H1032 H 0.704 0.512 0.30195 0.0
H1033 H 0.76315 0.4097 0.23567 0.0
H1034 H 0.74435 0.62086 0.27111 0.0
H1035 H 0.66699 0.46994 0.33675 0.0
H1036 H 0.67755 0.43412 0.32438 0.0
H1037 H 0.72545 0.60515 0.31132 0.0
H1038 H 0.70246 0.40795 0.29921 0.0
N1039 N 0.71046 0.48506 0.28319 0.0
C1040 C 0.69971 0.49813 0.30082 0.0
C1041 C 0.67918 0.47394 0.32183 0.0
C1042 C 0.69171 0.45946 0.30611 0.0
C1043 C 0.68361 0.49316 0.31958 0.0
C1044 C 0.7075 0.46544 0.28696 0.0
H1045 H 0.73473 0.39854 0.26688 0.0
N1046 N 0.73773 0.45639 0.25664 0.0
C1047 C 0.75144 0.42097 0.24654 0.0
C1048 C 0.72174 0.45058 0.27333 0.0
C1049 C 0.75226 0.44188 0.24286 0.0
C1050 C 0.73534 0.41477 0.26404 0.0
C1051 C 0.72023 0.42959 0.27768 0.0
O1052 O 0.74994 0.48307 0.21339 0.0
O1053 O 0.75578 0.51418 0.23998 0.0
O1054 O 0.73038 0.53959 0.27166 0.0
O1055 O 0.7117 0.52036 0.25825 0.0
O1056 O 0.73035 0.52086 0.22228 0.0
O1057 O 0.71663 0.48613 0.22775 0.0
O1058 O 0.77484 0.51551 0.30735 0.0
O1059 O 0.75225 0.49096 0.27846 0.0
O1060 O 0.76936 0.47203 0.25099 0.0
O1061 O 0.78766 0.49602 0.25195 0.0
O1062 O 0.74924 0.50301 0.30979 0.0
O1063 O 0.79602 0.51297 0.27248 0.0
C1064 C 0.74618 0.52739 0.22351 0.0
C1065 C 0.72665 0.49443 0.18397 0.0
C1066 C 0.70472 0.50206 0.15176 0.0
C1067 C 0.70932 0.49215 0.17545 0.0
C1068 C 0.71777 0.51436 0.13682 0.0
C1069 C 0.7394 0.50675 0.16855 0.0
C1070 C 0.73487 0.51673 0.14524 0.0
C1071 C 0.71276 0.53751 0.26612 0.0
C1072 C 0.73178 0.4832 0.20843 0.0
C1073 C 0.70391 0.42394 0.29571 0.0
C1074 C 0.68966 0.43885 0.30993 0.0
C1075 C 0.74652 0.48758 0.3017 0.0
C1076 C 0.80568 0.5274 0.30214 0.0
C1077 C 0.81508 0.5215 0.32362 0.0
C1078 C 0.82725 0.53362 0.3285 0.0
C1079 C 0.82916 0.55208 0.31229 0.0
C1080 C 0.80839 0.54563 0.28596 0.0
C1081 C 0.81973 0.55803 0.29121 0.0
C1082 C 0.78746 0.47698 0.24901 0.0
C1083 C 0.79426 0.51387 0.29595 0.0
H1084 H 0.69944 0.48269 0.18733 0.0
H1085 H 0.71505 0.52186 0.11833 0.0
H1086 H 0.75302 0.50854 0.17436 0.0
H1087 H 0.74485 0.52613 0.1335 0.0
H1088 H 0.8136 0.50718 0.33593 0.0
H1089 H 0.83816 0.56182 0.31582 0.0
H1090 H 0.80225 0.55013 0.26889 0.0
H1091 H 0.82157 0.57208 0.27862 0.0
Tb1092 Tb 0.73986 0.74662 0.99107 0.0
C1093 C 0.74367 0.76471 0.08697 0.0
C1094 C 0.71281 0.79463 0.09028 0.0
C1095 C 0.72323 0.77215 0.12768 0.0
C1096 C 0.72978 0.78162 0.0757 0.0
C1097 C 0.74091 0.76015 0.11315 0.0
C1098 C 0.70924 0.78943 0.11626 0.0
C1099 C 0.775 0.7346 0.10886 0.0
N1100 N 0.76085 0.75384 0.07237 0.0
C1101 C 0.77719 0.74001 0.08305 0.0
C1102 C 0.75657 0.74441 0.12399 0.0
Tb1103 Tb 0.7629 0.76404 0.03012 0.0
N1104 N 0.73357 0.78601 0.05052 0.0
C1105 C 0.72151 0.80398 0.03888 0.0
C1106 C 0.70028 0.8128 0.07838 0.0
C1107 C 0.70487 0.81764 0.05259 0.0
H1108 H 0.79165 0.73246 0.0715 0.0
H1109 H 0.69538 0.83174 0.04319 0.0
H1110 H 0.69608 0.79903 0.12771 0.0
H1111 H 0.78762 0.72299 0.11705 0.0
H1112 H 0.72441 0.80798 0.01904 0.0
H1113 H 0.73087 0.66797 1.00067 0.0
H1114 H 0.68722 0.82327 0.08891 0.0
H1115 H 0.75912 0.77319 0.93599 0.0
H1116 H 0.71974 0.70532 1.00718 0.0
H1117 H 0.78638 0.76473 0.89996 0.0
H1118 H 0.72071 0.76872 0.14779 0.0
H1119 H 0.76413 0.65447 0.97204 0.0
H1120 H 0.79421 0.66253 0.93916 0.0
H1121 H 0.75502 0.74041 0.14401 0.0
H1122 H 0.80966 0.68944 0.91132 0.0
N1123 N 0.74719 0.71247 0.98383 0.0
C1124 C 0.73436 0.69952 0.99479 0.0
C1125 C 0.75943 0.67079 0.97507 0.0
C1126 C 0.77111 0.68476 0.9617 0.0
C1127 C 0.7406 0.67837 0.99113 0.0
C1128 C 0.76426 0.70584 0.96634 0.0
H1129 H 0.80606 0.72781 0.89576 0.0
N1130 N 0.76359 0.74133 0.95422 0.0
C1131 C 0.78299 0.75222 0.91436 0.0
C1132 C 0.77282 0.72092 0.95083 0.0
C1133 C 0.7675 0.75693 0.93537 0.0
C1134 C 0.79416 0.73138 0.91211 0.0
C1135 C 0.78863 0.71535 0.93004 0.0
O1136 O 0.71086 0.76901 0.987 0.0
O1137 O 0.7325 0.76147 0.02482 0.0
O1138 O 0.76259 0.73157 0.04771 0.0
O1139 O 0.75257 0.71826 0.01801 0.0
O1140 O 0.71957 0.73719 0.02524 0.0
O1141 O 0.7207 0.7419 0.96845 0.0
O1142 O 0.79257 0.76338 0.03716 0.0
O1143 O 0.76818 0.75494 0.99323 0.0
O1144 O 0.74021 0.7794 0.97437 0.0
O1145 O 0.75866 0.78973 0.99819 0.0
O1146 O 0.79129 0.74102 0.0137 0.0
O1147 O 0.7694 0.79278 0.0306 0.0
C1148 C 0.72007 0.75063 0.03847 0.0
C1149 C 0.68425 0.75292 0.98615 0.0
C1150 C 0.6601 0.7308 0.99136 0.0
C1151 C 0.67925 0.73585 0.98002 0.0
C1152 C 0.64587 0.74319 1.00877 0.0
C1153 C 0.66961 0.76518 1.00346 0.0
C1154 C 0.65061 0.76028 0.01468 0.0
C1155 C 0.75912 0.71581 0.03964 0.0
C1156 C 0.70493 0.75751 0.97531 0.0
C1157 C 0.79718 0.69405 0.92685 0.0
C1158 C 0.78839 0.67873 0.9427 0.0
C1159 C 0.78697 0.74285 0.99183 0.0
C1160 C 0.80521 0.79239 0.01576 0.0
C1161 C 0.80704 0.81224 0.01767 0.0
C1162 C 0.82284 0.82056 1.00152 0.0
C1163 C 0.8363 0.80907 0.98282 0.0
C1164 C 0.81926 0.78091 0.99745 0.0
C1165 C 0.83447 0.78937 0.98084 0.0
C1166 C 0.74865 0.79347 0.97903 0.0
C1167 C 0.78892 0.78372 0.03332 0.0
H1168 H 0.69045 0.7262 0.96685 0.0
H1169 H 0.6309 0.73985 0.01758 0.0
H1170 H 0.67289 0.77848 1.00855 0.0
H1171 H 0.6395 0.76977 0.02803 0.0
H1172 H 0.79666 0.82083 0.03232 0.0
H1173 H 0.84843 0.81521 0.96996 0.0
H1174 H 0.8187 0.7653 0.99616 0.0
H1175 H 0.84512 0.78046 0.96666 0.0
Tb1176 Tb 0.48142 1.00033 0.5332 0.0
C1177 C 0.52289 0.01354 0.42301 0.0
C1178 C 0.54675 0.97994 0.41403 0.0
C1179 C 0.53143 1.00504 0.38083 0.0
C1180 C 0.5354 0.99409 0.43107 0.0
C1181 C 0.52089 0.0194 0.39776 0.0
C1182 C 0.5444 0.98536 0.38894 0.0
C1183 C 0.49953 0.05366 0.4076 0.0
N1184 N 0.51322 0.02703 0.43987 0.0
C1185 C 0.50218 0.04719 0.4324 0.0
C1186 C 0.50878 0.03966 0.39022 0.0
Tb1187 Tb 0.51876 0.01504 0.47989 0.0
N1188 N 0.53734 0.9895 0.45541 0.0
C1189 C 0.55125 0.97127 0.46368 0.0
C1190 C 0.56059 0.96107 0.42255 0.0
C1191 C 0.56286 0.95672 0.44749 0.0
H1192 H 0.49496 0.05814 0.44566 0.0
H1193 H 0.57367 0.94223 0.45422 0.0
H1194 H 0.55284 0.97461 0.37561 0.0
H1195 H 0.49041 0.06948 0.40189 0.0
H1196 H 0.55337 0.96769 0.48283 0.0
H1197 H 0.43103 0.07577 0.55668 0.0
H1198 H 0.56993 0.94998 0.40994 0.0
H1199 H 0.50123 0.95653 0.56922 0.0
H1200 H 0.44804 0.04834 0.52959 0.0
H1201 H 0.50572 0.94568 0.61305 0.0
H1202 H 0.53002 0.00919 0.36136 0.0
H1203 H 0.43709 0.06956 0.60007 0.0
H1204 H 0.45311 0.04452 0.63501 0.0
H1205 H 0.50682 0.04476 0.37099 0.0
H1206 H 0.47327 0.00894 0.6505 0.0
N1207 N 0.46428 0.02679 0.557 0.0
C1208 C 0.45086 0.04528 0.54847 0.0
C1209 C 0.44463 0.05741 0.58824 0.0
C1210 C 0.45727 0.03796 0.59736 0.0
C1211 C 0.44114 0.06095 0.56379 0.0
C1212 C 0.46682 0.02276 0.58111 0.0
H1213 H 0.49264 0.97182 0.64254 0.0
N1214 N 0.4861 0.98865 0.5736 0.0
C1215 C 0.49799 0.96187 0.60672 0.0
C1216 C 0.47806 1.00291 0.58978 0.0
C1217 C 0.49537 0.96808 0.58188 0.0
C1218 C 0.49063 0.97667 0.6233 0.0
C1219 C 0.48025 0.99744 0.61499 0.0
O1220 O 0.46752 0.97501 0.54187 0.0
O1221 O 0.50118 0.9927 0.49834 0.0
O1222 O 0.49039 0.01589 0.46642 0.0
O1223 O 0.46576 0.02118 0.50278 0.0
O1224 O 0.49799 0.96814 0.525 0.0
O1225 O 0.44874 0.00702 0.53408 0.0
O1226 O 0.53097 0.04143 0.472 0.0
O1227 O 0.49959 0.02215 0.51512 0.0
O1228 O 0.51046 0.99709 0.54663 0.0
O1229 O 0.53506 0.99408 0.50968 0.0
O1230 O 0.50166 0.04702 0.48869 0.0
O1231 O 0.55143 0.00992 0.47812 0.0
C1232 C 0.50659 0.97289 0.50241 0.0
C1233 C 0.43197 0.98338 0.56221 0.0
C1234 C 0.40574 0.96385 0.58066 0.0
C1235 C 0.42182 0.96827 0.56122 0.0
C1236 C 0.39981 0.97494 0.60118 0.0
C1237 C 0.42595 0.99433 0.5828 0.0
C1238 C 0.40993 0.99008 0.60221 0.0
C1239 C 0.47058 0.02064 0.47841 0.0
C1240 C 0.44854 0.98745 0.54128 0.0
C1241 C 0.4716 0.01274 0.6311 0.0
C1242 C 0.46013 0.03299 0.62228 0.0
C1243 C 0.49415 0.04194 0.51163 0.0
C1244 C 0.56646 0.03589 0.45186 0.0
C1245 C 0.57484 0.05195 0.45433 0.0
C1246 C 0.59027 0.05844 0.43547 0.0
C1247 C 0.59731 0.04846 0.414 0.0
C1248 C 0.57356 0.0261 0.43033 0.0
C1249 C 0.58894 0.03241 0.41149 0.0
C1250 C 0.53021 0.99294 0.53431 0.0
C1251 C 0.55036 0.0299 0.47218 0.0
H1252 H 0.42629 0.96017 0.54501 0.0
H1253 H 0.38757 0.97175 0.61651 0.0
H1254 H 0.43342 0.0062 0.58385 0.0
H1255 H 0.40534 0.99854 0.61807 0.0
H1256 H 0.5695 0.05921 0.47121 0.0
H1257 H 0.60907 0.05322 0.39908 0.0
H1258 H 0.56735 0.01362 0.42811 0.0
H1259 H 0.59438 0.02485 0.39488 0.0
Tb1260 Tb 0.48772 0.49638 0.0406 0.0
C1261 C 0.5211 0.51773 0.92922 0.0
C1262 C 0.54303 0.48424 0.91735 0.0
C1263 C 0.52586 0.51104 0.88672 0.0
C1264 C 0.53372 0.49786 0.93546 0.0
C1265 C 0.51739 0.5248 0.90466 0.0
C1266 C 0.53863 0.49075 0.89308 0.0
C1267 C 0.49875 0.55897 0.91705 0.0
N1268 N 0.51322 0.53047 0.9471 0.0
C1269 C 0.50278 0.55115 0.9412 0.0
C1270 C 0.50581 0.54565 0.89877 0.0
Tb1271 Tb 0.52063 0.51634 0.98602 0.0
N1272 N 0.53776 0.49234 0.959 0.0
C1273 C 0.55238 0.4739 0.96512 0.0
C1274 C 0.55693 0.46476 0.92401 0.0
C1275 C 0.56187 0.45972 0.9479 0.0
H1276 H 0.49714 0.56153 0.9552 0.0
H1277 H 0.57296 0.44489 0.95311 0.0
H1278 H 0.54547 0.48044 0.87895 0.0
H1279 H 0.49012 0.57522 0.91258 0.0
H1280 H 0.55637 0.46967 0.98349 0.0
H1281 H 0.43446 0.56766 0.07288 0.0
H1282 H 0.56433 0.45378 0.9107 0.0
H1283 H 0.51162 0.4517 0.07208 0.0
H1284 H 0.45117 0.54244 0.0429 0.0
H1285 H 0.51958 0.43898 0.11451 0.0
H1286 H 0.52304 0.51609 0.86779 0.0
H1287 H 0.4442 0.56 0.11469 0.0
H1288 H 0.46437 0.53444 0.14617 0.0
H1289 H 0.50266 0.55174 0.88009 0.0
H1290 H 0.48742 0.49919 0.15766 0.0
N1291 N 0.47065 0.52073 0.06719 0.0
C1292 C 0.45551 0.53875 0.0611 0.0
C1293 C 0.45157 0.54881 0.10161 0.0
C1294 C 0.46603 0.52973 0.10829 0.0
C1295 C 0.44599 0.55315 0.07806 0.0
C1296 C 0.47523 0.5158 0.0905 0.0
H1297 H 0.50769 0.46325 0.14613 0.0
N1298 N 0.49573 0.48299 0.07945 0.0
C1299 C 0.51084 0.45515 0.10976 0.0
C1300 C 0.4882 0.49616 0.09691 0.0
C1301 C 0.50626 0.4624 0.08575 0.0
C1302 C 0.50415 0.46891 0.12755 0.0
C1303 C 0.4924 0.48964 0.12133 0.0
O1304 O 0.47657 0.46936 0.04785 0.0
O1305 O 0.50487 0.4923 1.00364 0.0
O1306 O 0.49089 0.51871 0.97445 0.0
O1307 O 0.46847 0.51727 1.01309 0.0
O1308 O 0.50559 0.4658 0.02843 0.0
O1309 O 0.45488 0.50051 0.04618 0.0
O1310 O 0.53151 0.54343 0.9806 0.0
O1311 O 0.5034 0.52026 0.02291 0.0
O1312 O 0.51767 0.49388 0.05153 0.0
O1313 O 0.53986 0.49443 1.0128 0.0
O1314 O 0.50238 0.54684 0.99838 0.0
O1315 O 0.55346 0.51252 0.9807 0.0
C1316 C 0.51151 0.47254 1.00548 0.0
C1317 C 0.44238 0.47282 0.07162 0.0
C1318 C 0.41595 0.45306 0.08673 0.0
C1319 C 0.42949 0.46157 0.06711 0.0
C1320 C 0.41511 0.45656 0.11107 0.0
C1321 C 0.44141 0.47625 0.09591 0.0
C1322 C 0.42773 0.46818 0.11555 0.0
C1323 C 0.47182 0.52021 0.98832 0.0
C1324 C 0.45682 0.48034 0.05043 0.0
C1325 C 0.48418 0.50379 0.13886 0.0
C1326 C 0.47105 0.52385 0.13232 0.0
C1327 C 0.49652 0.53995 0.02128 0.0
C1328 C 0.56534 0.5412 0.95635 0.0
C1329 C 0.57359 0.55716 0.95955 0.0
C1330 C 0.58699 0.56588 0.9399 0.0
C1331 C 0.59209 0.55826 0.9169 0.0
C1332 C 0.57049 0.53384 0.93327 0.0
C1333 C 0.58384 0.54237 0.91366 0.0
C1334 C 0.53673 0.49139 0.03752 0.0
C1335 C 0.55133 0.53273 0.97743 0.0
H1336 H 0.43005 0.45952 0.04812 0.0
H1337 H 0.405 0.45006 0.12666 0.0
H1338 H 0.45113 0.48507 0.0997 0.0
H1339 H 0.42706 0.47076 0.13433 0.0
H1340 H 0.56972 0.56261 0.97753 0.0
H1341 H 0.6022 0.56478 0.90133 0.0
H1342 H 0.56428 0.52155 0.93042 0.0
H1343 H 0.58777 0.53668 0.89586 0.0
H1344 H 0.97993 0.0745 0.01955 0.0
H1345 H 0.97846 0.09788 0.04898 0.0
H1346 H 0.00881 0.04445 0.09743 0.0
H1347 H 0.01118 0.02139 0.06767 0.0
H1348 H 0.95919 0.09967 0.09641 0.0
H1349 H 0.04586 0.08292 0.09181 0.0
H1350 H 0.03472 0.07436 0.07029 0.0
H1351 H 0.03631 0.05984 0.1009 0.0
C1352 C 0.98624 0.06778 0.03653 0.0
C1353 C 0.99521 0.046 0.04149 0.0
C1354 C 0.9854 0.08113 0.05334 0.0
C1355 C 0.9938 0.07301 0.07533 0.0
C1356 C 0.00262 0.05122 0.08041 0.0
H1357 H 0.96077 0.14609 0.19853 0.0
H1358 H 0.96766 0.11784 0.17347 0.0
C1359 C 0.00361 0.03791 0.0635 0.0
C1360 C 0.99303 0.08739 0.09298 0.0
H1361 H 0.02371 0.10361 0.12262 0.0
C1362 C 0.97331 0.10054 0.1021 0.0
C1363 C 0.01149 0.08871 0.10024 0.0
C1364 C 0.03332 0.07586 0.09013 0.0
C1365 C 0.97149 0.11488 0.11824 0.0
C1366 C 0.98985 0.11577 0.12612 0.0
C1367 C 0.00962 0.10274 0.11688 0.0
C1368 C 0.98875 0.13068 0.14328 0.0
C1369 C 0.94993 0.12937 0.12612 0.0
C1370 C 0.99956 0.14645 0.13556 0.0
C1371 C 0.99601 0.16238 0.15018 0.0
C1372 C 0.98156 0.16276 0.17271 0.0
C1373 C 0.972 0.14612 0.18123 0.0
C1374 C 0.97573 0.13012 0.16679 0.0
H1375 H 0.93889 0.1307 0.11334 0.0
H1376 H 0.94294 0.12299 0.14497 0.0
H1377 H 0.95108 0.14538 0.12678 0.0
H1378 H 0.00982 0.14713 0.11758 0.0
H1379 H 0.00337 0.17516 0.14307 0.0
H1380 H 0.82842 0.23095 0.49313 0.0
H1381 H 0.85842 0.23024 0.45864 0.0
H1382 H 0.8158 0.26831 0.4097 0.0
H1383 H 0.78567 0.26906 0.44439 0.0
H1384 H 0.87026 0.21605 0.41304 0.0
H1385 H 0.859 0.30236 0.39574 0.0
H1386 H 0.84519 0.28961 0.42314 0.0
H1387 H 0.83644 0.294 0.39384 0.0
C1388 C 0.82526 0.23906 0.47499 0.0
C1389 C 0.8042 0.24995 0.47199 0.0
C1390 C 0.84266 0.23868 0.45504 0.0
C1391 C 0.84004 0.24956 0.43105 0.0
C1392 C 0.81887 0.26007 0.42779 0.0
H1393 H 0.93756 0.27251 0.2955 0.0
H1394 H 0.90422 0.27203 0.3248 0.0
C1395 C 0.80136 0.26026 0.4478 0.0
C1396 C 0.85941 0.24978 0.41 0.0
H1397 H 0.88679 0.2823 0.36903 0.0
C1398 C 0.87373 0.23064 0.40353 0.0
C1399 C 0.86449 0.26858 0.39683 0.0
C1400 C 0.85063 0.28983 0.40277 0.0
C1401 C 0.89226 0.22975 0.38478 0.0
C1402 C 0.89775 0.24854 0.37213 0.0
C1403 C 0.88322 0.26771 0.37832 0.0
C1404 C 0.91851 0.24856 0.35317 0.0
C1405 C 0.90538 0.2084 0.37827 0.0
C1406 C 0.93844 0.23588 0.35853 0.0
C1407 C 0.95758 0.23591 0.34143 0.0
C1408 C 0.95799 0.24864 0.31798 0.0
C1409 C 0.93819 0.26184 0.31275 0.0
C1410 C 0.91891 0.26173 0.32988 0.0
H1411 H 0.89557 0.19707 0.38211 0.0
H1412 H 0.91299 0.20923 0.35839 0.0
H1413 H 0.91792 0.20208 0.38991 0.0
H1414 H 0.93941 0.2261 0.37636 0.0
H1415 H 0.97231 0.22592 0.34676 0.0
H1416 H 0.78877 0.0326 0.68051 0.0
H1417 H 0.78772 0.06578 0.65229 0.0
H1418 H 0.73145 0.09672 0.69941 0.0
H1419 H 0.73252 0.0635 0.72762 0.0
H1420 H 0.72927 0.10419 0.6455 0.0
H1421 H 0.80148 0.12037 0.6613 0.0
H1422 H 0.80268 0.09347 0.65995 0.0
H1423 H 0.78555 0.10649 0.68512 0.0
C1424 C 0.77638 0.04655 0.68518 0.0
C1425 C 0.76114 0.04526 0.707 0.0
C1426 C 0.77578 0.06565 0.66893 0.0
C1427 C 0.75965 0.08418 0.67355 0.0
C1428 C 0.74425 0.08291 0.69524 0.0
H1429 H 0.75506 0.2132 0.59526 0.0
H1430 H 0.75638 0.18136 0.62558 0.0
C1431 C 0.745 0.06382 0.71167 0.0
C1432 C 0.75843 0.1044 0.65523 0.0
H1433 H 0.78472 0.14237 0.62919 0.0
C1434 C 0.74144 0.11248 0.64199 0.0
C1435 C 0.77404 0.11568 0.6505 0.0
C1436 C 0.792 0.10876 0.66495 0.0
C1437 C 0.73988 0.13095 0.62415 0.0
C1438 C 0.75583 0.14192 0.61892 0.0
C1439 C 0.77256 0.13408 0.63261 0.0
C1440 C 0.75526 0.16166 0.5998 0.0
C1441 C 0.72081 0.13879 0.61143 0.0
C1442 C 0.75449 0.16174 0.57465 0.0
C1443 C 0.75398 0.18013 0.55703 0.0
C1444 C 0.7543 0.19922 0.56379 0.0
C1445 C 0.75517 0.19902 0.58893 0.0
C1446 C 0.7558 0.18063 0.60651 0.0
H1447 H 0.70746 0.13238 0.62206 0.0
H1448 H 0.71529 0.15624 0.60897 0.0
H1449 H 0.72515 0.13362 0.59279 0.0
H1450 H 0.7545 0.14745 0.56847 0.0
H1451 H 0.75339 0.17931 0.53799 0.0
H1452 H 0.97701 0.00954 0.94008 0.0
H1453 H 0.94908 0.01117 0.91796 0.0
H1454 H 0.90211 0.02729 0.98281 0.0
H1455 H 0.93014 0.02531 1.00547 0.0
H1456 H 0.89654 0.99551 0.96281 0.0
H1457 H 0.90718 0.06167 0.88864 0.0
H1458 H 0.93113 0.04095 0.89058 0.0
H1459 H 0.91909 0.0558 0.91611 0.0
C1460 C 0.96076 0.01382 0.94963 0.0
C1461 C 0.95587 0.01737 0.97461 0.0
C1462 C 0.94476 0.01477 0.93686 0.0
C1463 C 0.92349 0.0196 0.94862 0.0
C1464 C 0.91845 0.02359 0.97338 0.0
H1465 H 0.80401 0.03867 0.9044 0.0
H1466 H 0.83289 0.03119 0.92774 0.0
C1467 C 0.93449 0.02253 0.98626 0.0
C1468 C 0.90665 0.01958 0.93535 0.0
H1469 H 0.88507 0.04172 0.88316 0.0
C1470 C 0.89396 0.00568 0.94545 0.0
C1471 C 0.90339 0.03279 0.91264 0.0
C1472 C 0.91577 0.04879 0.90146 0.0
C1473 C 0.87818 1.00452 0.93332 0.0
C1474 C 0.875 0.01768 0.91061 0.0
C1475 C 0.88777 0.03146 0.90043 0.0
C1476 C 0.85747 0.01872 0.89796 0.0
C1477 C 0.86513 0.98917 0.94476 0.0
C1478 C 0.8617 0.01386 0.87361 0.0
C1479 C 0.84518 0.01803 0.86028 0.0
C1480 C 0.82429 0.02746 0.87101 0.0
C1481 C 0.82001 0.03138 0.89576 0.0
C1482 C 0.83646 0.02702 0.90913 0.0
H1483 H 0.87287 0.97671 0.95865 0.0
H1484 H 0.84948 0.99775 0.95436 0.0
H1485 H 0.86234 0.98161 0.93023 0.0
H1486 H 0.87787 0.00759 0.86464 0.0
H1487 H 0.84886 0.01508 0.84114 0.0
H1488 H 0.07274 0.98643 0.02581 0.0
H1489 H 0.09821 0.98959 0.04855 0.0
H1490 H 0.05784 0.97548 0.11794 0.0
H1491 H 0.03137 0.97407 0.09511 0.0
H1492 H 0.06916 0.00717 0.12059 0.0
H1493 H 0.14217 0.95049 0.08314 0.0
H1494 H 0.13188 0.9688 0.05799 0.0
H1495 H 0.11668 0.95146 0.07686 0.0
C1496 C 0.06935 0.98358 0.04588 0.0
C1497 C 0.0499 0.97998 0.05857 0.0
C1498 C 0.08415 0.9852 0.05895 0.0
C1499 C 0.08024 0.98242 0.08505 0.0
C1500 C 0.06131 0.97767 0.0978 0.0
H1501 H 0.18011 0.98336 0.16076 0.0
H1502 H 0.15514 0.97333 0.14336 0.0
C1503 C 0.04621 0.97667 0.08471 0.0
C1504 C 0.09482 0.9866 0.09885 0.0
H1505 H 0.14709 0.97834 0.10097 0.0
C1506 C 0.08619 1.00052 0.11661 0.0
C1507 C 0.11704 0.9778 0.09402 0.0
C1508 C 0.1274 0.96113 0.07716 0.0
C1509 C 0.09909 0.00623 0.12922 0.0
C1510 C 0.12142 0.99875 0.12292 0.0
C1511 C 0.13002 0.98444 0.10558 0.0
C1512 C 0.13618 1.00518 0.13432 0.0
C1513 C 0.08849 0.01983 0.14951 0.0
C1514 C 0.13412 0.02649 0.135 0.0
C1515 C 0.14784 0.0323 0.14619 0.0
C1516 C 0.16453 0.01696 0.15611 0.0
C1517 C 0.16709 0.99569 0.1543 0.0
C1518 C 0.15294 0.98988 0.1439 0.0
H1519 H 0.07248 0.01773 0.15787 0.0
H1520 H 0.09798 0.01617 0.16456 0.0
H1521 H 0.08642 0.03663 0.14147 0.0
H1522 H 0.12187 0.03872 0.1269 0.0
H1523 H 0.14515 0.04882 0.14722 0.0
H1524 H 0.98751 0.48855 0.45904 0.0
H1525 H 0.98684 0.46698 0.42893 0.0
H1526 H 0.03859 0.4182 0.45559 0.0
H1527 H 0.03974 0.44022 0.48533 0.0
H1528 H 0.04302 0.42439 0.40421 0.0
H1529 H 0.96238 0.41652 0.44791 0.0
H1530 H 0.96409 0.44312 0.43804 0.0
H1531 H 0.97747 0.4272 0.46267 0.0
C1532 C 0.99905 0.47347 0.45817 0.0
C1533 C 0.01403 0.46629 0.47418 0.0
C1534 C 0.99845 0.46098 0.44114 0.0
C1535 C 0.01245 0.44081 0.44021 0.0
C1536 C 0.02761 0.4337 0.45597 0.0
H1537 H 0.00952 0.32996 0.38913 0.0
H1538 H 0.00468 0.3594 0.41167 0.0
C1539 C 0.02825 0.44625 0.47296 0.0
C1540 C 0.01101 0.4268 0.42338 0.0
H1541 H 0.97853 0.40042 0.41181 0.0
C1542 C 0.02888 0.41924 0.40576 0.0
C1543 C 0.99256 0.42 0.42551 0.0
C1544 C 0.97308 0.42695 0.44467 0.0
C1545 C 0.02897 0.40481 0.39051 0.0
C1546 C 0.01054 0.398 0.39263 0.0
C1547 C 0.99255 0.40581 0.41001 0.0
C1548 C 0.01032 0.38139 0.37857 0.0
C1549 C 0.04912 0.39634 0.37299 0.0
C1550 C 0.01413 0.3842 0.35241 0.0
C1551 C 0.01677 0.36737 0.33953 0.0
C1552 C 0.01535 0.34761 0.35262 0.0
C1553 C 0.01026 0.34519 0.37867 0.0
C1554 C 0.00765 0.36196 0.39153 0.0
H1555 H 0.06303 0.39973 0.37736 0.0
H1556 H 0.05239 0.37906 0.3737 0.0
H1557 H 0.04734 0.40381 0.35369 0.0
H1558 H 0.01592 0.39914 0.342 0.0
H1559 H 0.02107 0.36946 0.31945 0.0
H1560 H 0.71206 0.2297 0.58036 0.0
H1561 H 0.68036 0.23147 0.61277 0.0
H1562 H 0.64643 0.2862 0.56932 0.0
H1563 H 0.67816 0.28432 0.53696 0.0
H1564 H 0.6551 0.25717 0.64436 0.0
H1565 H 0.60432 0.25317 0.58095 0.0
H1566 H 0.63255 0.24913 0.57147 0.0
H1567 H 0.61516 0.27539 0.57121 0.0
C1568 C 0.69803 0.24245 0.57785 0.0
C1569 C 0.69834 0.25725 0.55596 0.0
C1570 C 0.6796 0.24338 0.59655 0.0
C1571 C 0.6602 0.25873 0.59394 0.0
C1572 C 0.66057 0.27371 0.57216 0.0
H1573 H 0.52842 0.28731 0.67969 0.0
H1574 H 0.56173 0.28614 0.65037 0.0
C1575 C 0.67906 0.27282 0.55353 0.0
C1576 C 0.63986 0.25884 0.61365 0.0
H1577 H 0.58685 0.26073 0.62139 0.0
C1578 C 0.64026 0.25784 0.63916 0.0
C1579 C 0.62 0.2596 0.60772 0.0
C1580 C 0.61794 0.25916 0.58142 0.0
C1581 C 0.6219 0.25824 0.65815 0.0
C1582 C 0.60194 0.25928 0.6522 0.0
C1583 C 0.60164 0.26008 0.62667 0.0
C1584 C 0.58123 0.2601 0.67161 0.0
C1585 C 0.62408 0.25836 0.68443 0.0
C1586 C 0.57998 0.2459 0.69412 0.0
C1587 C 0.56056 0.24672 0.71133 0.0
C1588 C 0.54143 0.26179 0.70689 0.0
C1589 C 0.54264 0.27566 0.68429 0.0
C1590 C 0.56195 0.27492 0.66722 0.0
H1591 H 0.63788 0.26402 0.68504 0.0
H1592 H 0.60962 0.26854 0.69427 0.0
H1593 H 0.62654 0.24211 0.69455 0.0
H1594 H 0.59395 0.23369 0.69827 0.0
H1595 H 0.5605 0.23522 0.72793 0.0
H1596 H 0.77051 0.94997 0.7968 0.0
H1597 H 0.77297 0.91724 0.82602 0.0
H1598 H 0.71623 0.9476 0.87315 0.0
H1599 H 0.7144 0.98051 0.84445 0.0
H1600 H 0.74103 0.92513 0.90212 0.0
H1601 H 0.74519 0.87198 0.836 0.0
H1602 H 0.7663 0.8846 0.82713 0.0
H1603 H 0.73922 0.9001 0.82778 0.0
C1604 C 0.75838 0.94962 0.8132 0.0
C1605 C 0.74195 0.96798 0.81781 0.0
C1606 C 0.7597 0.93067 0.83003 0.0
C1607 C 0.74452 0.92926 0.85201 0.0
C1608 C 0.72824 0.94776 0.85658 0.0
H1609 H 0.72543 0.81007 0.94102 0.0
H1610 H 0.72475 0.84248 0.91169 0.0
C1611 C 0.72709 0.96672 0.83997 0.0
C1612 C 0.74577 0.90905 0.87064 0.0
H1613 H 0.75175 0.85575 0.87624 0.0
C1614 C 0.74332 0.91003 0.89627 0.0
C1615 C 0.74855 0.88895 0.86373 0.0
C1616 C 0.74979 0.88627 0.8372 0.0
C1617 C 0.74356 0.89204 0.91466 0.0
C1618 C 0.74694 0.87189 0.90763 0.0
C1619 C 0.74935 0.87089 0.88205 0.0
C1620 C 0.74735 0.85187 0.92629 0.0
C1621 C 0.73942 0.89511 0.94161 0.0
C1622 C 0.7604 0.84561 0.94463 0.0
C1623 C 0.76062 0.82702 0.96179 0.0
C1624 C 0.74806 0.8137 0.96106 0.0
C1625 C 0.7353 0.81976 0.94246 0.0
C1626 C 0.73495 0.83844 0.92547 0.0
H1627 H 0.73071 0.91163 0.94427 0.0
H1628 H 0.73009 0.88455 0.9535 0.0
H1629 H 0.75478 0.89156 0.94802 0.0
H1630 H 0.77076 0.85495 0.94555 0.0
H1631 H 0.77095 0.82292 0.97544 0.0
H1632 H 0.17631 0.28349 0.03434 0.0
H1633 H 0.1445 0.28633 0.06685 0.0
H1634 H 0.17852 0.23324 0.11233 0.0
H1635 H 0.21009 0.23036 0.07976 0.0
H1636 H 0.11967 0.26041 0.08596 0.0
H1637 H 0.15097 0.26993 0.16548 0.0
H1638 H 0.16532 0.27226 0.13405 0.0
H1639 H 0.16603 0.24672 0.15181 0.0
C1640 C 0.17726 0.27271 0.0515 0.0
C1641 C 0.19648 0.2572 0.05441 0.0
C1642 C 0.15881 0.27425 0.07026 0.0
C1643 C 0.15858 0.26031 0.09291 0.0
C1644 C 0.17783 0.2448 0.0958 0.0
H1645 H 0.05819 0.2396 0.22487 0.0
H1646 H 0.09157 0.23875 0.19526 0.0
C1647 C 0.19618 0.24315 0.07693 0.0
C1648 C 0.13812 0.26123 0.11253 0.0
H1649 H 0.11707 0.26309 0.17489 0.0
C1650 C 0.11924 0.26115 0.10534 0.0
C1651 C 0.13688 0.26194 0.13828 0.0
C1652 C 0.1558 0.26292 0.14791 0.0
C1653 C 0.09994 0.26134 0.12256 0.0
C1654 C 0.09857 0.26237 0.14827 0.0
C1655 C 0.11749 0.26236 0.15551 0.0
C1656 C 0.07788 0.2635 0.1676 0.0
C1657 C 0.08138 0.25955 0.11285 0.0
C1658 C 0.05842 0.27798 0.16321 0.0
C1659 C 0.0392 0.27841 0.18035 0.0
C1660 C 0.03841 0.26483 0.20319 0.0
C1661 C 0.05789 0.25065 0.20798 0.0
C1662 C 0.07719 0.25012 0.19071 0.0
H1663 H 0.08669 0.25174 0.09583 0.0
H1664 H 0.07171 0.25049 0.12696 0.0
H1665 H 0.07119 0.27555 0.10782 0.0
H1666 H 0.05794 0.28914 0.14634 0.0
H1667 H 0.02475 0.28954 0.17563 0.0
H1668 H 0.72613 0.48294 0.34981 0.0
H1669 H 0.7249 0.45068 0.37887 0.0
H1670 H 0.76024 0.41364 0.32064 0.0
H1671 H 0.76258 0.44593 0.29209 0.0
H1672 H 0.70907 0.41913 0.38417 0.0
H1673 H 0.79582 0.38442 0.3712 0.0
H1674 H 0.78419 0.41093 0.35787 0.0
H1675 H 0.78586 0.38896 0.34276 0.0
C1676 C 0.73361 0.46791 0.34311 0.0
C1677 C 0.7441 0.46731 0.31822 0.0
C1678 C 0.73288 0.4493 0.35987 0.0
C1679 C 0.74284 0.42922 0.35258 0.0
C1680 C 0.75288 0.42861 0.32744 0.0
H1681 H 0.75476 0.29914 0.42994 0.0
H1682 H 0.75416 0.33109 0.40002 0.0
C1683 C 0.7538 0.44728 0.31072 0.0
C1684 C 0.74275 0.40926 0.37133 0.0
H1685 H 0.77467 0.36243 0.39528 0.0
C1686 C 0.72353 0.40686 0.38657 0.0
C1687 C 0.76144 0.39287 0.37503 0.0
C1688 C 0.78301 0.39447 0.36105 0.0
C1689 C 0.72243 0.38887 0.40462 0.0
C1690 C 0.74107 0.37246 0.40813 0.0
C1691 C 0.76026 0.37476 0.39287 0.0
C1692 C 0.74099 0.35271 0.4271 0.0
C1693 C 0.70109 0.38737 0.41945 0.0
C1694 C 0.734 0.35362 0.45285 0.0
C1695 C 0.73439 0.33508 0.47029 0.0
C1696 C 0.74161 0.31493 0.46263 0.0
C1697 C 0.74866 0.31413 0.43686 0.0
C1698 C 0.74848 0.33259 0.41954 0.0
H1699 H 0.68789 0.39833 0.41057 0.0
H1700 H 0.69952 0.3711 0.4217 0.0
H1701 H 0.69945 0.39155 0.43823 0.0
H1702 H 0.72852 0.36871 0.45961 0.0
H1703 H 0.72901 0.33657 0.48984 0.0
H1704 H 0.57245 0.98929 0.51603 0.0
H1705 H 0.5993 0.99005 0.53874 0.0
H1706 H 0.55413 0.99008 0.6072 0.0
H1707 H 0.52698 0.99028 0.58459 0.0
H1708 H 0.57401 0.02041 0.60147 0.0
H1709 H 0.63351 0.94488 0.58359 0.0
H1710 H 0.62684 0.96202 0.55584 0.0
H1711 H 0.60701 0.95126 0.57706 0.0
C1712 C 0.56826 0.98912 0.53597 0.0
C1713 C 0.54747 0.98966 0.54843 0.0
C1714 C 0.58371 0.98946 0.54896 0.0
C1715 C 0.57879 0.98993 0.57472 0.0
C1716 C 0.55829 0.98972 0.58732 0.0
H1717 H 0.64065 0.98254 0.69494 0.0
H1718 H 0.61511 0.98903 0.66709 0.0
C1719 C 0.5428 0.98962 0.57434 0.0
C1720 C 0.59457 0.99178 0.58846 0.0
H1721 H 0.64346 0.96744 0.60367 0.0
C1722 C 0.5892 0.00883 0.60192 0.0
C1723 C 0.61444 0.97673 0.58892 0.0
C1724 C 0.62076 0.95759 0.57578 0.0
C1725 C 0.60306 0.01106 0.61611 0.0
C1726 C 0.62275 0.99588 0.6168 0.0
C1727 C 0.62838 0.97916 0.60285 0.0
C1728 C 0.63695 0.99584 0.63365 0.0
C1729 C 0.59652 0.02952 0.6304 0.0
C1730 C 0.65751 0.99795 0.62406 0.0
C1731 C 0.67201 0.9945 0.64 0.0
C1732 C 0.66614 0.98862 0.6656 0.0
C1733 C 0.64531 0.98741 0.67526 0.0
C1734 C 0.63078 0.99109 0.6594 0.0
H1735 H 0.58342 0.0423 0.62336 0.0
H1736 H 0.59095 0.0242 0.65026 0.0
H1737 H 0.61016 0.03596 0.62937 0.0
H1738 H 0.66257 1.00141 0.60419 0.0
H1739 H 0.68814 0.99511 0.63221 0.0
H1740 H 0.99425 0.97408 0.96713 0.0
H1741 H 0.99801 0.95046 0.93742 0.0
H1742 H 0.03114 0.89855 0.98534 0.0
H1743 H 0.02803 0.92252 0.01486 0.0
H1744 H 0.05019 0.89875 0.93599 0.0
H1745 H 0.96399 0.9078 0.94603 0.0
H1746 H 0.97122 0.93221 0.93751 0.0
H1747 H 0.975 0.91688 0.96726 0.0
C1748 C 0.00275 0.95781 0.97115 0.0
C1749 C 0.01141 0.95031 0.99302 0.0
C1750 C 0.00456 0.94418 0.9543 0.0
C1751 C 0.0146 0.92265 0.95928 0.0
C1752 C 0.0233 0.91511 0.98111 0.0
H1753 H 0.0113 0.81989 0.88682 0.0
H1754 H 0.00487 0.8456 0.91543 0.0
C1755 C 0.02153 0.92878 0.99794 0.0
C1756 C 0.0161 0.90798 0.94173 0.0
H1757 H 0.98647 0.88896 0.91375 0.0
C1758 C 0.03626 0.89657 0.93119 0.0
C1759 C 0.9979 0.90494 0.93569 0.0
C1760 C 0.97579 0.91594 0.94737 0.0
C1761 C 0.03874 0.88242 0.91454 0.0
C1762 C 0.02056 0.87991 0.90782 0.0
C1763 C 0.00038 0.89106 0.91868 0.0
C1764 C 0.02232 0.86564 0.88968 0.0
C1765 C 0.06084 0.87 0.90466 0.0
C1766 C 0.03341 0.86886 0.86537 0.0
C1767 C 0.03708 0.85426 0.84909 0.0
C1768 C 0.02955 0.8362 0.85667 0.0
C1769 C 0.01722 0.83369 0.88044 0.0
C1770 C 0.01365 0.8483 0.89683 0.0
H1771 H 0.0723 0.86939 0.91662 0.0
H1772 H 0.06118 0.85365 0.90329 0.0
H1773 H 0.06625 0.87766 0.8858 0.0
H1774 H 0.03974 0.88241 0.85918 0.0
H1775 H 0.04639 0.85676 0.83076 0.0
H1776 H 0.13306 0.05269 0.93176 0.0
H1777 H 0.14661 0.08095 0.93815 0.0
H1778 H 0.08359 0.1136 0.97062 0.0
H1779 H 0.06984 0.08581 0.96367 0.0
H1780 H 0.1052 0.13959 0.93613 0.0
H1781 H 0.15386 0.09073 1.00614 0.0
H1782 H 0.1591 0.08043 0.97726 0.0
H1783 H 0.13372 0.08243 0.99709 0.0
C1784 C 0.12207 0.066 0.94001 0.0
C1785 C 0.10041 0.06695 0.94738 0.0
C1786 C 0.12987 0.08199 0.9439 0.0
C1787 C 0.11614 0.09914 0.95525 0.0
C1788 C 0.09445 0.10039 0.96203 0.0
H1789 H 0.14259 0.19215 0.02182 0.0
H1790 H 0.13154 0.16309 0.01316 0.0
C1791 C 0.08666 0.08444 0.95817 0.0
C1792 C 0.12423 0.11594 0.95996 0.0
H1793 H 0.15676 0.1256 0.99291 0.0
C1794 C 0.11651 0.13655 0.94848 0.0
C1795 C 0.13874 0.11191 0.9764 0.0
C1796 C 0.14674 0.09023 0.99014 0.0
C1797 C 0.12305 0.15327 0.95284 0.0
C1798 C 0.13793 0.14917 0.96881 0.0
C1799 C 0.14552 0.1286 0.98047 0.0
C1800 C 0.14537 0.16618 0.9741 0.0
C1801 C 0.11364 0.17527 0.94078 0.0
C1802 C 0.15709 0.17723 0.95507 0.0
C1803 C 0.16335 0.19387 0.95993 0.0
C1804 C 0.158 0.19968 0.98393 0.0
C1805 C 0.14668 0.18822 1.00308 0.0
C1806 C 0.14048 0.17156 0.99821 0.0
H1807 H 0.09909 0.1764 0.93367 0.0
H1808 H 0.1097 0.18674 0.95413 0.0
H1809 H 0.1254 0.17984 0.92486 0.0
H1810 H 0.16124 0.17311 0.93641 0.0
H1811 H 0.17192 0.20249 0.94476 0.0
H1812 H 0.70797 0.578 0.27439 0.0
H1813 H 0.67595 0.60726 0.2771 0.0
H1814 H 0.64059 0.5679 0.2635 0.0
H1815 H 0.67244 0.53836 0.26163 0.0
H1816 H 0.65139 0.62768 0.24278 0.0
H1817 H 0.60167 0.59221 0.3229 0.0
H1818 H 0.62979 0.58072 0.3146 0.0
H1819 H 0.6116 0.57676 0.29782 0.0
C1820 C 0.69338 0.57535 0.27249 0.0
C1821 C 0.69301 0.55552 0.26818 0.0
C1822 C 0.67497 0.59226 0.27383 0.0
C1823 C 0.65553 0.58989 0.27099 0.0
C1824 C 0.65511 0.57017 0.26645 0.0
H1825 H 0.52889 0.68042 0.26897 0.0
H1826 H 0.55889 0.64865 0.26742 0.0
C1827 C 0.67352 0.55324 0.26516 0.0
C1828 C 0.63602 0.60825 0.27187 0.0
H1829 H 0.58456 0.62482 0.30141 0.0
C1830 C 0.63683 0.62701 0.2557 0.0
C1831 C 0.61679 0.60754 0.28852 0.0
C1832 C 0.61489 0.58831 0.30711 0.0
C1833 C 0.61916 0.64483 0.25558 0.0
C1834 C 0.60004 0.64425 0.27249 0.0
C1835 C 0.59909 0.6254 0.28842 0.0
C1836 C 0.58128 0.66328 0.2745 0.0
C1837 C 0.62111 0.66404 0.23692 0.0
C1838 C 0.58347 0.68206 0.27967 0.0
C1839 C 0.56641 0.7002 0.28048 0.0
C1840 C 0.54637 0.70022 0.27658 0.0
C1841 C 0.54396 0.68116 0.27219 0.0
C1842 C 0.56117 0.66292 0.27126 0.0
H1843 H 0.63375 0.6599 0.22065 0.0
H1844 H 0.60596 0.67217 0.23016 0.0
H1845 H 0.62538 0.67519 0.24585 0.0
H1846 H 0.59855 0.6828 0.28285 0.0
H1847 H 0.56927 0.71434 0.28358 0.0
H1848 H 0.34839 0.83185 0.49899 0.0
H1849 H 0.35744 0.86066 0.51105 0.0
H1850 H 0.32667 0.84614 0.58644 0.0
H1851 H 0.31855 0.81661 0.57491 0.0
H1852 H 0.33351 0.89617 0.53203 0.0
H1853 H 0.38646 0.84198 0.59475 0.0
H1854 H 0.37603 0.83274 0.57316 0.0
H1855 H 0.35965 0.83998 0.60202 0.0
C1856 C 0.34366 0.8347 0.51817 0.0
C1857 C 0.333 0.82175 0.53605 0.0
C1858 C 0.34865 0.85129 0.52497 0.0
C1859 C 0.34303 0.85525 0.54972 0.0
C1860 C 0.33149 0.84305 0.56735 0.0
H1861 H 0.36336 0.9659 0.59239 0.0
H1862 H 0.3462 0.93992 0.58722 0.0
C1863 C 0.32665 0.82634 0.56063 0.0
C1864 C 0.35016 0.87154 0.55719 0.0
H1865 H 0.38197 0.8783 0.59319 0.0
C1866 C 0.344 0.89235 0.54551 0.0
C1867 C 0.36404 0.86635 0.57456 0.0
C1868 C 0.37212 0.84403 0.5867 0.0
C1869 C 0.35163 0.90812 0.55049 0.0
C1870 C 0.36539 0.90294 0.568 0.0
C1871 C 0.37123 0.88221 0.57998 0.0
C1872 C 0.37544 0.91829 0.57254 0.0
C1873 C 0.34562 0.92995 0.53623 0.0
C1874 C 0.39756 0.9143 0.56689 0.0
C1875 C 0.40738 0.92887 0.57017 0.0
C1876 C 0.39525 0.94776 0.57914 0.0
C1877 C 0.37311 0.95145 0.58553 0.0
C1878 C 0.36327 0.93677 0.58231 0.0
H1879 H 0.33863 0.93017 0.51984 0.0
H1880 H 0.33369 0.94056 0.5486 0.0
H1881 H 0.35965 0.93635 0.52976 0.0
H1882 H 0.40723 0.90003 0.55951 0.0
H1883 H 0.4245 0.9254 0.56552 0.0
H1884 H 0.04695 0.69049 0.73211 0.0
H1885 H 0.0769 0.65881 0.73276 0.0
H1886 H 0.07831 0.66258 0.80863 0.0
H1887 H 0.04797 0.69379 0.80839 0.0
H1888 H 0.11919 0.65745 0.77547 0.0
H1889 H 0.07904 0.59796 0.76903 0.0
H1890 H 0.075 0.62132 0.74653 0.0
H1891 H 0.06459 0.6232 0.77883 0.0
C1892 C 0.05337 0.68443 0.74911 0.0
C1893 C 0.04505 0.69506 0.77011 0.0
C1894 C 0.0706 0.66624 0.74943 0.0
C1895 C 0.08002 0.65811 0.77076 0.0
C1896 C 0.07151 0.66847 0.79186 0.0
H1897 H 0.19341 0.56022 0.80834 0.0
H1898 H 0.16158 0.58969 0.80773 0.0
C1899 C 0.05416 0.6865 0.79164 0.0
C1900 C 0.09914 0.63932 0.77087 0.0
H1901 H 0.11616 0.58641 0.767 0.0
C1902 C 0.11848 0.64191 0.7737 0.0
C1903 C 0.09847 0.61899 0.76828 0.0
C1904 C 0.07817 0.61501 0.76567 0.0
C1905 C 0.13705 0.62498 0.77369 0.0
C1906 C 0.13632 0.60445 0.7717 0.0
C1907 C 0.11696 0.60194 0.76867 0.0
C1908 C 0.15537 0.58552 0.77277 0.0
C1909 C 0.15743 0.62954 0.77502 0.0
C1910 C 0.16223 0.57225 0.75415 0.0
C1911 C 0.18048 0.55508 0.75469 0.0
C1912 C 0.19247 0.55074 0.77381 0.0
C1913 C 0.18512 0.56349 0.79289 0.0
C1914 C 0.16679 0.58046 0.79251 0.0
H1915 H 0.15698 0.64632 0.76821 0.0
H1916 H 0.15975 0.62632 0.79467 0.0
H1917 H 0.17129 0.61958 0.7639 0.0
H1918 H 0.15377 0.57547 0.73878 0.0
H1919 H 0.18564 0.54566 0.73963 0.0
H1920 H 0.82057 0.31301 0.61476 0.0
H1921 H 0.84779 0.33059 0.61455 0.0
H1922 H 0.84067 0.36199 0.54044 0.0
H1923 H 0.81333 0.34466 0.54055 0.0
H1924 H 0.8882 0.33489 0.57435 0.0
H1925 H 0.82365 0.40791 0.59135 0.0
H1926 H 0.81898 0.38212 0.59873 0.0
H1927 H 0.82296 0.39419 0.56697 0.0
C1928 C 0.82503 0.32345 0.5983 0.0
C1929 C 0.81472 0.32761 0.57774 0.0
C1930 C 0.84062 0.33335 0.59817 0.0
C1931 C 0.84604 0.34761 0.57755 0.0
C1932 C 0.83662 0.35099 0.55651 0.0
H1933 H 0.91025 0.44472 0.55736 0.0
H1934 H 0.8902 0.42115 0.55324 0.0
C1935 C 0.8211 0.34101 0.55656 0.0
C1936 C 0.85997 0.36049 0.57897 0.0
H1937 H 0.85865 0.40986 0.58699 0.0
C1938 C 0.88185 0.35129 0.5771 0.0
C1939 C 0.85148 0.38181 0.58258 0.0
C1940 C 0.82797 0.39219 0.58518 0.0
C1941 C 0.8956 0.36308 0.57834 0.0
C1942 C 0.88707 0.38442 0.58214 0.0
C1943 C 0.86515 0.39351 0.58407 0.0
C1944 C 0.90048 0.39783 0.58392 0.0
C1945 C 0.91913 0.35275 0.57498 0.0
C1946 C 0.91289 0.39259 0.60263 0.0
C1947 C 0.92466 0.40594 0.60484 0.0
C1948 C 0.92405 0.42488 0.58853 0.0
C1949 C 0.91146 0.43009 0.56993 0.0
C1950 C 0.89985 0.41669 0.56764 0.0
H1951 H 0.92345 0.33858 0.56551 0.0
H1952 H 0.92823 0.36386 0.564 0.0
H1953 H 0.92398 0.34772 0.59349 0.0
H1954 H 0.91323 0.37835 0.61576 0.0
H1955 H 0.93429 0.40139 0.61926 0.0
H1956 H 0.32502 0.97908 0.26065 0.0
H1957 H 0.3577 0.94999 0.26042 0.0
H1958 H 0.32265 0.90661 0.25733 0.0
H1959 H 0.29033 0.93511 0.2579 0.0
H1960 H 0.36722 0.9115 0.2936 0.0
H1961 H 0.37156 0.89508 0.1987 0.0
H1962 H 0.3551 0.91923 0.20982 0.0
H1963 H 0.34632 0.8956 0.21828 0.0
C1964 C 0.32432 0.96338 0.25969 0.0
C1965 C 0.30499 0.95972 0.25848 0.0
C1966 C 0.34303 0.94672 0.25963 0.0
C1967 C 0.34285 0.92608 0.2582 0.0
C1968 C 0.32347 0.9224 0.25764 0.0
H1969 H 0.42741 0.80006 0.25739 0.0
H1970 H 0.3982 0.83204 0.25606 0.0
C1971 C 0.30489 0.93889 0.25783 0.0
C1972 C 0.36259 0.90817 0.25777 0.0
H1973 H 0.39341 0.8688 0.22418 0.0
C1974 C 0.37311 0.90232 0.27829 0.0
C1975 C 0.37031 0.89601 0.23788 0.0
C1976 C 0.36038 0.90187 0.21481 0.0
C1977 C 0.39054 0.88433 0.27985 0.0
C1978 C 0.39805 0.87197 0.2601 0.0
C1979 C 0.38773 0.87809 0.2394 0.0
C1980 C 0.41622 0.85242 0.26071 0.0
C1981 C 0.40019 0.87826 0.30313 0.0
C1982 C 0.43639 0.85299 0.26335 0.0
C1983 C 0.45325 0.83458 0.26396 0.0
C1984 C 0.45052 0.81508 0.26167 0.0
C1985 C 0.43037 0.81466 0.25871 0.0
C1986 C 0.41351 0.83304 0.25815 0.0
H1987 H 0.38926 0.88576 0.31894 0.0
H1988 H 0.40445 0.86093 0.30863 0.0
H1989 H 0.41485 0.88357 0.29962 0.0
H1990 H 0.43919 0.86773 0.26475 0.0
H1991 H 0.46852 0.83571 0.26605 0.0
H1992 H 0.29591 0.43349 0.75974 0.0
H1993 H 0.32871 0.40542 0.75862 0.0
H1994 H 0.36311 0.45008 0.75915 0.0
H1995 H 0.33001 0.47854 0.76023 0.0
H1996 H 0.36467 0.3997 0.72405 0.0
H1997 H 0.38444 0.40441 0.81403 0.0
H1998 H 0.35882 0.41778 0.8056 0.0
H1999 H 0.38107 0.42849 0.79274 0.0
C2000 C 0.31039 0.43755 0.75933 0.0
C2001 C 0.31014 0.45855 0.75964 0.0
C2002 C 0.32927 0.42131 0.75887 0.0
C2003 C 0.34861 0.42535 0.759 0.0
C2004 C 0.34848 0.44629 0.75948 0.0
H2005 H 0.47585 0.33256 0.75611 0.0
H2006 H 0.44747 0.36586 0.7555 0.0
C2007 C 0.32948 0.46265 0.75991 0.0
C2008 C 0.36869 0.40759 0.75798 0.0
H2009 H 0.40901 0.37951 0.78979 0.0
C2010 C 0.37435 0.39541 0.73843 0.0
C2011 C 0.38161 0.40183 0.77658 0.0
C2012 C 0.37616 0.41366 0.79856 0.0
C2013 C 0.39217 0.37774 0.73709 0.0
C2014 C 0.40474 0.3716 0.75603 0.0
C2015 C 0.3995 0.3841 0.77522 0.0
C2016 C 0.4223 0.35147 0.757 0.0
C2017 C 0.39737 0.36578 0.71525 0.0
C2018 C 0.41775 0.33213 0.75863 0.0
C2019 C 0.43384 0.31321 0.75902 0.0
C2020 C 0.45517 0.31282 0.75776 0.0
C2021 C 0.45972 0.33215 0.75681 0.0
C2022 C 0.44346 0.35124 0.7565 0.0
H2023 H 0.39065 0.37577 0.69902 0.0
H2024 H 0.41477 0.35972 0.70952 0.0
H2025 H 0.39042 0.35216 0.72057 0.0
H2026 H 0.4016 0.33161 0.75977 0.0
H2027 H 0.42937 0.29879 0.76063 0.0
H2028 H 0.17893 0.78246 0.53668 0.0
H2029 H 0.14747 0.78538 0.56966 0.0
H2030 H 0.18267 0.73348 0.61552 0.0
H2031 H 0.2141 0.7311 0.58284 0.0
H2032 H 0.12335 0.76039 0.58847 0.0
H2033 H 0.15417 0.76842 0.66899 0.0
H2034 H 0.16875 0.77103 0.63772 0.0
H2035 H 0.16964 0.74536 0.65531 0.0
C2036 C 0.18032 0.77237 0.55428 0.0
C2037 C 0.19976 0.75736 0.55733 0.0
C2038 C 0.16202 0.77375 0.57318 0.0
C2039 C 0.16218 0.75998 0.59596 0.0
C2040 C 0.18169 0.74497 0.59895 0.0
H2041 H 0.06093 0.73324 0.72372 0.0
H2042 H 0.0945 0.73257 0.69424 0.0
C2043 C 0.19994 0.74361 0.58004 0.0
C2044 C 0.1418 0.76035 0.61549 0.0
H2045 H 0.12091 0.76006 0.67812 0.0
C2046 C 0.12297 0.7605 0.608 0.0
C2047 C 0.14061 0.76033 0.64141 0.0
C2048 C 0.1593 0.76149 0.65135 0.0
C2049 C 0.10373 0.76028 0.62509 0.0
C2050 C 0.10255 0.76024 0.65097 0.0
C2051 C 0.12136 0.75999 0.65856 0.0
C2052 C 0.08195 0.7609 0.67005 0.0
C2053 C 0.08488 0.75951 0.61515 0.0
C2054 C 0.06322 0.77711 0.66723 0.0
C2055 C 0.04402 0.77757 0.68427 0.0
C2056 C 0.04261 0.76214 0.70534 0.0
C2057 C 0.06128 0.74581 0.70828 0.0
C2058 C 0.08062 0.74537 0.69117 0.0
H2059 H 0.08975 0.7533 0.59706 0.0
H2060 H 0.07564 0.74955 0.62846 0.0
H2061 H 0.07436 0.77568 0.61213 0.0
H2062 H 0.06338 0.78962 0.6517 0.0
H2063 H 0.0301 0.79026 0.68097 0.0
H2064 H 0.26246 0.94775 0.29675 0.0
H2065 H 0.26291 0.91443 0.32445 0.0
H2066 H 0.21609 0.94804 0.37943 0.0
H2067 H 0.21502 0.9811 0.35134 0.0
H2068 H 0.27395 0.89878 0.36792 0.0
H2069 H 0.18905 0.90274 0.38197 0.0
H2070 H 0.2007 0.9208 0.35891 0.0
H2071 H 0.19271 0.92545 0.39086 0.0
C2072 C 0.25182 0.94804 0.31441 0.0
C2073 C 0.23813 0.96732 0.32121 0.0
C2074 C 0.25224 0.92883 0.33055 0.0
C2075 C 0.23915 0.92816 0.35423 0.0
C2076 C 0.22587 0.94754 0.36117 0.0
H2077 H 0.26391 0.82426 0.47889 0.0
H2078 H 0.26253 0.8562 0.44872 0.0
C2079 C 0.22537 0.96665 0.34502 0.0
C2080 C 0.23994 0.90757 0.372 0.0
H2081 H 0.2088 0.87784 0.41094 0.0
C2082 C 0.25963 0.89425 0.37716 0.0
C2083 C 0.22149 0.90095 0.38412 0.0
C2084 C 0.19983 0.91312 0.3785 0.0
C2085 C 0.26132 0.87526 0.39413 0.0
C2086 C 0.24278 0.86921 0.40721 0.0
C2087 C 0.22315 0.88225 0.40155 0.0
C2088 C 0.24336 0.84945 0.42641 0.0
C2089 C 0.28319 0.86161 0.39729 0.0
C2090 C 0.23231 0.83487 0.4253 0.0
C2091 C 0.23278 0.81655 0.44303 0.0
C2092 C 0.24433 0.81197 0.46266 0.0
C2093 C 0.25494 0.82684 0.46411 0.0
C2094 C 0.25439 0.8452 0.44647 0.0
H2095 H 0.29522 0.86449 0.38071 0.0
H2096 H 0.28769 0.86542 0.4135 0.0
H2097 H 0.28375 0.84464 0.40051 0.0
H2098 H 0.22334 0.83755 0.4105 0.0
H2099 H 0.22373 0.80621 0.44145 0.0
H2100 H 0.94548 0.66113 0.68385 0.0
H2101 H 0.95318 0.63468 0.65662 0.0
H2102 H 0.00877 0.65407 0.61715 0.0
H2103 H 0.00021 0.68184 0.64341 0.0
H2104 H 0.98747 0.65085 0.58532 0.0
H2105 H 0.99317 0.57852 0.65309 0.0
H2106 H 0.96827 0.59721 0.66102 0.0
H2107 H 0.99258 0.60321 0.6617 0.0
C2108 C 0.9594 0.65983 0.66942 0.0
C2109 C 0.97203 0.67393 0.66567 0.0
C2110 C 0.96401 0.64435 0.65406 0.0
C2111 C 0.98177 0.64202 0.63495 0.0
C2112 C 0.995 0.65544 0.63181 0.0
H2113 H 0.01452 0.53787 0.54846 0.0
H2114 H 0.01389 0.56142 0.57677 0.0
C2115 C 0.99021 0.67122 0.64701 0.0
C2116 C 0.98527 0.62691 0.61703 0.0
H2117 H 0.98559 0.57663 0.61333 0.0
C2118 C 0.98736 0.63454 0.59149 0.0
C2119 C 0.98539 0.6055 0.62483 0.0
C2120 C 0.98497 0.59561 0.65165 0.0
C2121 C 0.98889 0.62166 0.57373 0.0
C2122 C 0.98761 0.60066 0.58167 0.0
C2123 C 0.9862 0.59281 0.60714 0.0
C2124 C 0.98803 0.58644 0.56394 0.0
C2125 C 0.99219 0.63071 0.54661 0.0
C2126 C 0.97367 0.59242 0.54722 0.0
C2127 C 0.97429 0.57896 0.53061 0.0
C2128 C 0.9888 0.55896 0.53093 0.0
C2129 C 0.00303 0.55298 0.54777 0.0
C2130 C 0.00264 0.56651 0.56409 0.0
H2131 H 0.00014 0.64356 0.54329 0.0
H2132 H 0.0019 0.61844 0.53498 0.0
H2133 H 0.97658 0.63743 0.54056 0.0
H2134 H 0.96188 0.60747 0.54705 0.0
H2135 H 0.96324 0.58407 0.51769 0.0
H2136 H 0.32124 0.72393 0.48688 0.0
H2137 H 0.35278 0.72122 0.45404 0.0
H2138 H 0.31916 0.77604 0.41039 0.0
H2139 H 0.28754 0.7783 0.44297 0.0
H2140 H 0.34444 0.74985 0.37909 0.0
H2141 H 0.3944 0.75496 0.44304 0.0
H2142 H 0.38323 0.73295 0.45278 0.0
H2143 H 0.3661 0.75935 0.45183 0.0
C2144 C 0.32025 0.73493 0.46989 0.0
C2145 C 0.3012 0.75076 0.46741 0.0
C2146 C 0.33867 0.73373 0.45115 0.0
C2147 C 0.33909 0.74869 0.42936 0.0
C2148 C 0.31982 0.76417 0.42665 0.0
H2149 H 0.43457 0.78134 0.29929 0.0
H2150 H 0.40217 0.77816 0.32836 0.0
C2151 C 0.30148 0.76537 0.44539 0.0
C2152 C 0.35941 0.74868 0.40987 0.0
H2153 H 0.41188 0.74857 0.40244 0.0
C2154 C 0.35912 0.7496 0.38438 0.0
C2155 C 0.37902 0.74846 0.416 0.0
C2156 C 0.38077 0.74908 0.44234 0.0
C2157 C 0.37736 0.7499 0.36548 0.0
C2158 C 0.397 0.74962 0.37162 0.0
C2159 C 0.39728 0.74862 0.39714 0.0
C2160 C 0.41714 0.75075 0.35218 0.0
C2161 C 0.37537 0.74996 0.33905 0.0
C2162 C 0.43724 0.73685 0.35517 0.0
C2163 C 0.45605 0.73869 0.33813 0.0
C2164 C 0.45567 0.75433 0.31704 0.0
C2165 C 0.43567 0.76837 0.31426 0.0
C2166 C 0.41687 0.76653 0.3312 0.0
H2167 H 0.36253 0.74294 0.3383 0.0
H2168 H 0.37135 0.76644 0.32965 0.0
H2169 H 0.39038 0.74112 0.32856 0.0
H2170 H 0.43851 0.72462 0.37106 0.0
H2171 H 0.47109 0.72816 0.34187 0.0
H2172 H 0.28045 0.03076 0.1802 0.0
H2173 H 0.27883 0.06357 0.15112 0.0
H2174 H 0.22903 0.0971 0.2035 0.0
H2175 H 0.23065 0.0642 0.23277 0.0
H2176 H 0.22592 0.10063 0.14305 0.0
H2177 H 0.29409 0.1205 0.16472 0.0
H2178 H 0.29331 0.09342 0.16846 0.0
H2179 H 0.27539 0.11072 0.18927 0.0
C2180 C 0.26927 0.04513 0.18572 0.0
C2181 C 0.25601 0.04465 0.20924 0.0
C2182 C 0.26832 0.06399 0.16895 0.0
C2183 C 0.25384 0.08313 0.17483 0.0
C2184 C 0.24044 0.08275 0.19828 0.0
H2185 H 0.24902 0.21183 0.09515 0.0
H2186 H 0.24954 0.18032 0.12586 0.0
C2187 C 0.24149 0.06384 0.2152 0.0
C2188 C 0.25264 0.1032 0.15628 0.0
H2189 H 0.27712 0.14291 0.13301 0.0
C2190 C 0.23714 0.10984 0.14089 0.0
C2191 C 0.26705 0.11558 0.15326 0.0
C2192 C 0.28351 0.10985 0.16969 0.0
C2193 C 0.23579 0.12814 0.12277 0.0
C2194 C 0.25059 0.14031 0.11929 0.0
C2195 C 0.26585 0.13378 0.13506 0.0
C2196 C 0.25034 0.15991 0.09988 0.0
C2197 C 0.21806 0.13453 0.10798 0.0
C2198 C 0.25091 0.15955 0.07444 0.0
C2199 C 0.25075 0.1778 0.05661 0.0
C2200 C 0.25021 0.19716 0.0634 0.0
C2201 C 0.24981 0.19741 0.0888 0.0
C2202 C 0.24998 0.1792 0.1066 0.0
H2203 H 0.20469 0.12779 0.11767 0.0
H2204 H 0.21193 0.15192 0.10444 0.0
H2205 H 0.22408 0.12854 0.08981 0.0
H2206 H 0.25177 0.14503 0.06818 0.0
H2207 H 0.25122 0.17664 0.03737 0.0
H2208 H 0.79383 0.77591 0.95479 0.0
H2209 H 0.82444 0.7766 0.92126 0.0
H2210 H 0.85359 0.71177 0.94675 0.0
H2211 H 0.82253 0.7109 0.97939 0.0
H2212 H 0.86328 0.77432 0.91727 0.0
H2213 H 0.8666 0.70476 0.87676 0.0
H2214 H 0.84475 0.7153 0.90013 0.0
H2215 H 0.86888 0.69755 0.90891 0.0
C2216 C 0.8064 0.76154 0.95275 0.0
C2217 C 0.8049 0.74302 0.96941 0.0
C2218 C 0.82429 0.76201 0.93356 0.0
C2219 C 0.84173 0.74406 0.93025 0.0
C2220 C 0.84042 0.72575 0.94749 0.0
H2221 H 0.97179 0.71762 0.8421 0.0
H2222 H 0.93843 0.71769 0.87121 0.0
C2223 C 0.82248 0.72526 0.96653 0.0
C2224 C 0.86139 0.74478 0.90978 0.0
H2225 H 0.89768 0.71738 0.86505 0.0
C2226 C 0.87051 0.76187 0.90579 0.0
C2227 C 0.87145 0.72882 0.8941 0.0
C2228 C 0.86228 0.71072 0.89498 0.0
C2229 C 0.88908 0.7631 0.88777 0.0
C2230 C 0.89939 0.74688 0.87266 0.0
C2231 C 0.89023 0.7299 0.87642 0.0
C2232 C 0.91993 0.74684 0.85366 0.0
C2233 C 0.89794 0.78162 0.88562 0.0
C2234 C 0.92134 0.76299 0.83324 0.0
C2235 C 0.94062 0.76277 0.8161 0.0
C2236 C 0.95928 0.74632 0.81857 0.0
C2237 C 0.95785 0.73038 0.8391 0.0
C2238 C 0.93859 0.73042 0.85594 0.0
H2239 H 0.89125 0.7903 0.90189 0.0
H2240 H 0.91548 0.77643 0.88384 0.0
H2241 H 0.89398 0.79268 0.86869 0.0
H2242 H 0.90745 0.77584 0.83041 0.0
H2243 H 0.94096 0.77565 0.80104 0.0
H2244 H 0.23417 0.56221 0.73105 0.0
H2245 H 0.23257 0.59491 0.70151 0.0
H2246 H 0.28584 0.56211 0.65204 0.0
H2247 H 0.28731 0.52944 0.68133 0.0
H2248 H 0.28757 0.60431 0.66027 0.0
H2249 H 0.21276 0.6065 0.63141 0.0
H2250 H 0.21299 0.60258 0.66429 0.0
H2251 H 0.22917 0.58261 0.64582 0.0
C2252 C 0.24569 0.56197 0.71401 0.0
C2253 C 0.26112 0.54307 0.7089 0.0
C2254 C 0.24466 0.58074 0.69694 0.0
C2255 C 0.25902 0.58124 0.67419 0.0
C2256 C 0.27454 0.56241 0.66927 0.0
H2257 H 0.25578 0.67499 0.53762 0.0
H2258 H 0.25691 0.64313 0.56835 0.0
C2259 C 0.27537 0.54364 0.68612 0.0
C2260 C 0.25787 0.60109 0.65539 0.0
H2261 H 0.22794 0.63464 0.61362 0.0
C2262 C 0.27446 0.61094 0.65019 0.0
C2263 C 0.24097 0.60988 0.64176 0.0
C2264 C 0.22296 0.59988 0.64584 0.0
C2265 C 0.27447 0.62917 0.63227 0.0
C2266 C 0.25746 0.63812 0.61879 0.0
C2267 C 0.24101 0.62808 0.62377 0.0
C2268 C 0.25649 0.65785 0.59973 0.0
C2269 C 0.293 0.63853 0.62757 0.0
C2270 C 0.25545 0.67722 0.60669 0.0
C2271 C 0.25462 0.69556 0.58909 0.0
C2272 C 0.25504 0.69541 0.56368 0.0
C2273 C 0.25568 0.67603 0.5568 0.0
C2274 C 0.25631 0.65764 0.57449 0.0
H2275 H 0.30693 0.6273 0.63483 0.0
H2276 H 0.29776 0.64342 0.60738 0.0
H2277 H 0.28835 0.65271 0.63705 0.0
H2278 H 0.25493 0.67828 0.62598 0.0
H2279 H 0.25306 0.70999 0.59572 0.0
H2280 H 0.31399 0.01545 0.38072 0.0
H2281 H 0.33771 0.02421 0.40208 0.0
H2282 H 0.38786 0.9708 0.37878 0.0
H2283 H 0.36443 0.96215 0.3568 0.0
H2284 H 0.38106 0.9759 0.43121 0.0
H2285 H 0.38911 0.04843 0.36626 0.0
H2286 H 0.36249 0.04647 0.37828 0.0
H2287 H 0.37997 0.02838 0.35806 0.0
C2288 C 0.33013 0.00566 0.37988 0.0
C2289 C 0.33733 0.98818 0.36682 0.0
C2290 C 0.34363 0.01067 0.39218 0.0
C2291 C 0.36459 0.99831 0.39172 0.0
C2292 C 0.37173 0.98057 0.37927 0.0
H2293 H 0.47437 0.01746 0.42926 0.0
H2294 H 0.44745 0.01382 0.40864 0.0
C2295 C 0.35827 0.97559 0.36685 0.0
C2296 C 0.37907 1.00384 0.40429 0.0
H2297 H 0.4053 0.04081 0.40182 0.0
C2298 C 0.38632 0.99011 0.42487 0.0
C2299 C 0.386 0.02232 0.39579 0.0
C2300 C 0.37917 0.03723 0.37327 0.0
C2301 C 0.4003 0.99443 0.43728 0.0
C2302 C 0.40704 0.01303 0.42896 0.0
C2303 C 0.39989 0.0267 0.40829 0.0
C2304 C 0.42244 0.01787 0.44075 0.0
C2305 C 0.40815 0.97883 0.45885 0.0
C2306 C 0.41705 0.02222 0.46534 0.0
C2307 C 0.43239 0.02449 0.47722 0.0
C2308 C 0.45343 0.02233 0.4647 0.0
C2309 C 0.45839 0.0192 0.43956 0.0
C2310 C 0.44302 0.01704 0.4277 0.0
H2311 H 0.40452 0.96356 0.46005 0.0
H2312 H 0.42554 0.97592 0.45725 0.0
H2313 H 0.40041 0.98538 0.47646 0.0
H2314 H 0.40113 0.02325 0.47558 0.0
H2315 H 0.4279 0.02712 0.49647 0.0
H2316 H 0.79313 0.85766 1.01082 0.0
H2317 H 0.79931 0.88942 0.01983 0.0
H2318 H 0.86648 0.85938 1.01079 0.0
H2319 H 0.86046 0.82794 1.00157 0.0
H2320 H 0.81549 0.89348 0.0576 0.0
H2321 H 0.86633 0.91575 0.97041 0.0
H2322 H 0.85119 0.89712 0.97275 0.0
H2323 H 0.87688 0.88864 0.98194 0.0
C2324 C 0.80921 0.85798 1.01052 0.0
C2325 C 0.82634 0.8404 1.00531 0.0
C2326 C 0.81272 0.87613 0.01558 0.0
C2327 C 0.8334 0.87695 0.01546 0.0
C2328 C 0.85046 0.85941 1.01016 0.0
H2329 H 0.88685 0.92932 0.10134 0.0
H2330 H 0.86597 0.91221 0.08567 0.0
C2331 C 0.847 0.84139 1.00497 0.0
C2332 C 0.83729 0.89526 0.02291 0.0
H2333 H 0.87119 0.92649 1.00754 0.0
C2334 C 0.82733 0.90105 0.04644 0.0
C2335 C 0.85228 0.90559 1.00813 0.0
C2336 C 0.86207 0.9016 0.98179 0.0
C2337 C 0.83323 0.91566 0.05635 0.0
C2338 C 0.84995 0.92419 0.04266 0.0
C2339 C 0.85866 0.91967 0.01833 0.0
C2340 C 0.86005 0.93613 0.05384 0.0
C2341 C 0.82171 0.92148 0.08156 0.0
C2342 C 0.86394 0.95517 0.04108 0.0
C2343 C 0.87625 0.96475 0.0498 0.0
C2344 C 0.88478 0.95551 0.07151 0.0
C2345 C 0.88017 0.93695 0.08481 0.0
C2346 C 0.86811 0.92723 0.07591 0.0
H2347 H 0.805 0.92075 0.08475 0.0
H2348 H 0.82949 0.91003 0.09618 0.0
H2349 H 0.82183 0.93753 0.08364 0.0
H2350 H 0.85801 0.96228 0.02395 0.0
H2351 H 0.87953 0.97911 0.03925 0.0
H2352 H 0.64374 0.19422 0.52106 0.0
H2353 H 0.63266 0.16594 0.51052 0.0
H2354 H 0.66326 0.17778 0.43445 0.0
H2355 H 0.67387 0.20646 0.44464 0.0
H2356 H 0.62171 0.17534 0.43947 0.0
H2357 H 0.66903 0.10722 0.49527 0.0
H2358 H 0.65314 0.12822 0.51249 0.0
H2359 H 0.67454 0.13263 0.48808 0.0
C2360 C 0.64811 0.19079 0.50209 0.0
C2361 C 0.65972 0.20254 0.48368 0.0
C2362 C 0.64197 0.1745 0.49617 0.0
C2363 C 0.64741 0.16962 0.47179 0.0
C2364 C 0.65907 0.18123 0.45341 0.0
H2365 H 0.63168 0.05989 0.42469 0.0
H2366 H 0.64601 0.08732 0.43186 0.0
C2367 C 0.66523 0.1975 0.45931 0.0
C2368 C 0.64005 0.15311 0.46513 0.0
H2369 H 0.64273 0.10071 0.4777 0.0
C2370 C 0.62639 0.15899 0.4477 0.0
C2371 C 0.64637 0.1318 0.47575 0.0
C2372 C 0.66173 0.12448 0.49377 0.0
C2373 C 0.61851 0.14417 0.44095 0.0
C2374 C 0.62426 0.12299 0.45219 0.0
C2375 C 0.63828 0.11701 0.46923 0.0
C2376 C 0.61553 0.10687 0.44691 0.0
C2377 C 0.60421 0.1513 0.42174 0.0
C2378 C 0.59368 0.10883 0.45301 0.0
C2379 C 0.58546 0.09333 0.44878 0.0
C2380 C 0.59897 0.07545 0.43856 0.0
C2381 C 0.62086 0.0736 0.43229 0.0
C2382 C 0.62907 0.08915 0.43654 0.0
H2383 H 0.606 0.16635 0.4102 0.0
H2384 H 0.60755 0.13922 0.4093 0.0
H2385 H 0.58746 0.15385 0.43129 0.0
H2386 H 0.58301 0.12223 0.46139 0.0
H2387 H 0.56851 0.0953 0.45361 0.0
H2388 H 0.79296 0.43433 0.25319 0.0
H2389 H 0.82578 0.40621 0.25164 0.0
H2390 H 0.86158 0.45194 0.23923 0.0
H2391 H 0.82856 0.48041 0.24064 0.0
H2392 H 0.86078 0.39781 0.2144 0.0
H2393 H 0.88461 0.41152 0.2978 0.0
H2394 H 0.85835 0.42344 0.29054 0.0
H2395 H 0.88008 0.43388 0.27404 0.0
C2396 C 0.80773 0.4386 0.2497 0.0
C2397 C 0.80789 0.45987 0.24671 0.0
C2398 C 0.82662 0.42235 0.24902 0.0
C2399 C 0.84633 0.42674 0.24562 0.0
C2400 C 0.84665 0.44796 0.24235 0.0
H2401 H 0.97349 0.33521 0.24634 0.0
H2402 H 0.945 0.36827 0.24311 0.0
C2403 C 0.82768 0.4643 0.24297 0.0
C2404 C 0.8663 0.409 0.24532 0.0
H2405 H 0.90795 0.38427 0.27619 0.0
C2406 C 0.8711 0.39496 0.22788 0.0
C2407 C 0.88002 0.40516 0.26276 0.0
C2408 C 0.87551 0.41915 0.28251 0.0
C2409 C 0.8889 0.37727 0.22752 0.0
C2410 C 0.90224 0.37304 0.24543 0.0
C2411 C 0.89783 0.38739 0.26244 0.0
C2412 C 0.91985 0.35311 0.24775 0.0
C2413 C 0.89327 0.3633 0.20776 0.0
C2414 C 0.91534 0.3335 0.25206 0.0
C2415 C 0.93149 0.31473 0.2539 0.0
C2416 C 0.95281 0.31482 0.25157 0.0
C2417 C 0.95734 0.33446 0.24798 0.0
C2418 C 0.94103 0.35339 0.24614 0.0
H2419 H 0.8862 0.37198 0.19119 0.0
H2420 H 0.91056 0.35674 0.20174 0.0
H2421 H 0.88606 0.35001 0.21535 0.0
H2422 H 0.89917 0.33266 0.2542 0.0
H2423 H 0.9271 0.30008 0.25749 0.0
H2424 H 0.09118 0.58388 0.46248 0.0
H2425 H 0.12064 0.5906 0.47567 0.0
H2426 H 0.08502 0.59317 0.55027 0.0
H2427 H 0.05518 0.58731 0.53675 0.0
H2428 H 0.09421 0.62847 0.53175 0.0
H2429 H 0.16807 0.56559 0.51418 0.0
H2430 H 0.15554 0.57342 0.48732 0.0
H2431 H 0.14229 0.56166 0.51591 0.0
C2432 C 0.08999 0.58518 0.48186 0.0
C2433 C 0.07093 0.58544 0.49856 0.0
C2434 C 0.10691 0.5888 0.48948 0.0
C2435 C 0.10514 0.59229 0.51403 0.0
C2436 C 0.08676 0.59052 0.53126 0.0
H2437 H 0.16782 0.67342 0.55587 0.0
H2438 H 0.15513 0.64206 0.56056 0.0
C2439 C 0.06971 0.5873 0.52353 0.0
C2440 C 0.11999 0.60233 0.51999 0.0
H2441 H 0.17234 0.60101 0.51146 0.0
C2442 C 0.11129 0.62214 0.52803 0.0
C2443 C 0.14228 0.59418 0.51496 0.0
C2444 C 0.15255 0.57243 0.50787 0.0
C2445 C 0.12415 0.63464 0.52956 0.0
C2446 C 0.1464 0.62702 0.52317 0.0
C2447 C 0.15526 0.60679 0.5163 0.0
C2448 C 0.16012 0.64106 0.52106 0.0
C2449 C 0.11371 0.6565 0.53647 0.0
C2450 C 0.16841 0.64993 0.49737 0.0
C2451 C 0.17575 0.66777 0.49465 0.0
C2452 C 0.17472 0.67696 0.5156 0.0
C2453 C 0.16847 0.66674 0.53943 0.0
C2454 C 0.16133 0.64882 0.54214 0.0
H2455 H 0.09629 0.66112 0.53708 0.0
H2456 H 0.11662 0.65709 0.55512 0.0
H2457 H 0.12051 0.6683 0.52298 0.0
H2458 H 0.16752 0.64417 0.48089 0.0
H2459 H 0.18047 0.67537 0.47611 0.0
H2460 H 0.70599 0.07686 0.76287 0.0
H2461 H 0.67294 0.10443 0.76377 0.0
H2462 H 0.63863 0.05798 0.77173 0.0
H2463 H 0.67209 0.02986 0.77144 0.0
H2464 H 0.6443 0.11672 0.73271 0.0
H2465 H 0.60472 0.09194 0.82779 0.0
H2466 H 0.63262 0.08126 0.8168 0.0
H2467 H 0.61331 0.07224 0.80733 0.0
C2468 C 0.69149 0.07225 0.76524 0.0
C2469 C 0.69193 0.05085 0.7676 0.0
C2470 C 0.67245 0.08824 0.76551 0.0
C2471 C 0.65299 0.08353 0.76819 0.0
C2472 C 0.65326 0.06219 0.77017 0.0
H2473 H 0.5383 0.18618 0.73827 0.0
H2474 H 0.56729 0.15363 0.73709 0.0
C2475 C 0.67248 0.04605 0.76984 0.0
C2476 C 0.63281 0.10118 0.76843 0.0
H2477 H 0.58513 0.12169 0.80454 0.0
C2478 C 0.63131 0.11767 0.74837 0.0
C2479 C 0.61582 0.1028 0.78894 0.0
C2480 C 0.61664 0.08625 0.81157 0.0
C2481 C 0.61362 0.13553 0.74829 0.0
C2482 C 0.59656 0.13709 0.76871 0.0
C2483 C 0.59799 0.12057 0.78874 0.0
C2484 C 0.57773 0.1562 0.77016 0.0
C2485 C 0.61378 0.153 0.72667 0.0
C2486 C 0.5731 0.16828 0.78964 0.0
C2487 C 0.55639 0.18684 0.79041 0.0
C2488 C 0.54368 0.19393 0.77184 0.0
C2489 C 0.54771 0.18134 0.75292 0.0
C2490 C 0.56451 0.16277 0.75207 0.0
H2491 H 0.62993 0.15177 0.71556 0.0
H2492 H 0.60335 0.15212 0.71424 0.0
H2493 H 0.6077 0.16865 0.7332 0.0
H2494 H 0.58273 0.1636 0.80407 0.0
H2495 H 0.55338 0.19556 0.8057 0.0
H2496 H 0.72622 0.56913 0.22778 0.0
H2497 H 0.72974 0.60027 0.19773 0.0
H2498 H 0.77747 0.56078 0.14896 0.0
H2499 H 0.77474 0.52973 0.17989 0.0
H2500 H 0.78875 0.59498 0.14506 0.0
H2501 H 0.70393 0.6218 0.13775 0.0
H2502 H 0.70765 0.62077 0.16887 0.0
H2503 H 0.71515 0.59687 0.15511 0.0
C2504 C 0.73781 0.56706 0.21094 0.0
C2505 C 0.75072 0.54678 0.20691 0.0
C2506 C 0.73957 0.58501 0.19333 0.0
C2507 C 0.75356 0.58331 0.17032 0.0
C2508 C 0.76647 0.56296 0.16629 0.0
H2509 H 0.7381 0.6853 0.04238 0.0
H2510 H 0.73808 0.65344 0.07227 0.0
C2511 C 0.76494 0.54506 0.18412 0.0
C2512 C 0.75472 0.60247 0.15056 0.0
H2513 H 0.72445 0.64581 0.11842 0.0
C2514 C 0.77461 0.60599 0.13926 0.0
C2515 C 0.73652 0.61702 0.14215 0.0
C2516 C 0.71465 0.61383 0.15139 0.0
C2517 C 0.77676 0.62332 0.12052 0.0
C2518 C 0.75848 0.63842 0.11294 0.0
C2519 C 0.73863 0.63472 0.12403 0.0
C2520 C 0.75948 0.65782 0.09346 0.0
C2521 C 0.79886 0.6247 0.10849 0.0
C2522 C 0.77147 0.67155 0.0946 0.0
C2523 C 0.77196 0.68966 0.07679 0.0
C2524 C 0.76016 0.6952 0.05727 0.0
C2525 C 0.74803 0.68157 0.05628 0.0
C2526 C 0.74773 0.66329 0.0739 0.0
H2527 H 0.81047 0.60896 0.10979 0.0
H2528 H 0.79963 0.63152 0.08858 0.0
H2529 H 0.80379 0.63479 0.11832 0.0
H2530 H 0.78026 0.66856 0.10961 0.0
H2531 H 0.78164 0.69938 0.07847 0.0
H2532 H 0.93781 0.49806 0.50652 0.0
H2533 H 0.90906 0.49655 0.48694 0.0
H2534 H 0.92039 0.54823 0.43121 0.0
H2535 H 0.94881 0.55002 0.45089 0.0
H2536 H 0.87529 0.54879 0.45152 0.0
H2537 H 0.92591 0.47406 0.4173 0.0
H2538 H 0.92212 0.47567 0.44996 0.0
H2539 H 0.93689 0.49156 0.42788 0.0
C2540 C 0.93377 0.50946 0.49049 0.0
C2541 C 0.9457 0.52402 0.48 0.0
C2542 C 0.91749 0.50845 0.47922 0.0
C2543 C 0.91285 0.52209 0.45746 0.0
C2544 C 0.92384 0.53749 0.44792 0.0
H2545 H 0.86883 0.52977 0.32686 0.0
H2546 H 0.88735 0.52374 0.36179 0.0
C2547 C 0.94018 0.5384 0.45905 0.0
C2548 C 0.89772 0.51952 0.44336 0.0
H2549 H 0.89388 0.48965 0.40246 0.0
C2550 C 0.87906 0.53566 0.44117 0.0
C2551 C 0.9029 0.50242 0.42978 0.0
C2552 C 0.92307 0.48493 0.43111 0.0
C2553 C 0.86579 0.5356 0.42494 0.0
C2554 C 0.87134 0.51888 0.41067 0.0
C2555 C 0.88958 0.50231 0.41363 0.0
C2556 C 0.86029 0.52001 0.38998 0.0
C2557 C 0.84663 0.55402 0.42201 0.0
C2558 C 0.83907 0.51928 0.39424 0.0
C2559 C 0.82842 0.52269 0.37418 0.0
C2560 C 0.83886 0.52702 0.34971 0.0
C2561 C 0.86036 0.52672 0.34557 0.0
C2562 C 0.87097 0.52319 0.36548 0.0
H2563 H 0.8459 0.56682 0.43238 0.0
H2564 H 0.84674 0.56052 0.40206 0.0
H2565 H 0.83202 0.54865 0.42906 0.0
H2566 H 0.83064 0.51663 0.41304 0.0
H2567 H 0.81185 0.52285 0.37783 0.0
H2568 H 0.18105 0.51849 0.64289 0.0
H2569 H 0.15451 0.53122 0.61531 0.0
H2570 H 0.12548 0.48145 0.6519 0.0
H2571 H 0.15139 0.46916 0.67963 0.0
H2572 H 0.14925 0.50925 0.58225 0.0
H2573 H 0.074 0.53046 0.64746 0.0
H2574 H 0.09932 0.52698 0.65615 0.0
H2575 H 0.08919 0.50462 0.65799 0.0
C2576 C 0.16859 0.51071 0.64545 0.0
C2577 C 0.16829 0.49281 0.66336 0.0
C2578 C 0.15355 0.51789 0.62961 0.0
C2579 C 0.13782 0.50746 0.6317 0.0
C2580 C 0.13711 0.49009 0.65024 0.0
H2581 H 0.05629 0.47799 0.55958 0.0
H2582 H 0.0808 0.48196 0.58365 0.0
C2583 C 0.15207 0.48293 0.66595 0.0
C2584 C 0.12337 0.51306 0.61327 0.0
H2585 H 0.07184 0.51897 0.60942 0.0
C2586 C 0.13225 0.51192 0.58805 0.0
C2587 C 0.10116 0.51681 0.62074 0.0
C2588 C 0.09038 0.52003 0.64704 0.0
C2589 C 0.11971 0.51264 0.57058 0.0
C2590 C 0.09782 0.51447 0.57863 0.0
C2591 C 0.08873 0.51715 0.60341 0.0
C2592 C 0.08438 0.51167 0.56243 0.0
C2593 C 0.13006 0.51022 0.54399 0.0
C2594 C 0.07858 0.52687 0.54222 0.0
C2595 C 0.06439 0.52464 0.52853 0.0
C2596 C 0.05578 0.50724 0.5349 0.0
C2597 C 0.06234 0.4917 0.5545 0.0
C2598 C 0.07641 0.49393 0.5682 0.0
H2599 H 0.1476 0.50677 0.5413 0.0
H2600 H 0.12593 0.49737 0.53798 0.0
H2601 H 0.12405 0.525 0.53175 0.0
H2602 H 0.08441 0.54076 0.53761 0.0
H2603 H 0.05931 0.53704 0.51386 0.0
H2604 H 0.53046 0.77317 0.17483 0.0
H2605 H 0.56396 0.77064 0.14675 0.0
H2606 H 0.59635 0.75309 0.20971 0.0
H2607 H 0.56299 0.75113 0.23719 0.0
H2608 H 0.59044 0.78574 0.13003 0.0
H2609 H 0.64094 0.71482 0.17643 0.0
H2610 H 0.61285 0.7226 0.187 0.0
H2611 H 0.63026 0.73412 0.19712 0.0
C2612 C 0.54474 0.76847 0.18285 0.0
C2613 C 0.54339 0.7631 0.20887 0.0
C2614 C 0.56434 0.76723 0.16646 0.0
C2615 C 0.58391 0.76139 0.17507 0.0
C2616 C 0.58242 0.75673 0.20137 0.0
H2617 H 0.68791 0.78711 0.04825 0.0
H2618 H 0.6581 0.79166 0.08271 0.0
C2619 C 0.5628 0.7566 0.21769 0.0
C2620 C 0.60509 0.76058 0.1564 0.0
H2621 H 0.6587 0.73614 0.14563 0.0
C2622 C 0.6051 0.77432 0.13356 0.0
C2623 C 0.62508 0.74597 0.15966 0.0
C2624 C 0.62726 0.72842 0.18122 0.0
C2625 C 0.62329 0.77347 0.11441 0.0
C2626 C 0.64361 0.76009 0.11849 0.0
C2627 C 0.64376 0.74673 0.14161 0.0
C2628 C 0.66443 0.75871 0.09906 0.0
C2629 C 0.61965 0.78618 0.08948 0.0
C2630 C 0.68038 0.73943 0.09719 0.0
C2631 C 0.6991 0.73765 0.07901 0.0
C2632 C 0.70289 0.75486 0.06129 0.0
C2633 C 0.68694 0.77397 0.06268 0.0
C2634 C 0.66883 0.77616 0.0819 0.0
H2635 H 0.60311 0.78875 0.08679 0.0
H2636 H 0.62208 0.80194 0.08855 0.0
H2637 H 0.63038 0.77822 0.07393 0.0
H2638 H 0.6782 0.72526 0.10926 0.0
H2639 H 0.7103 0.72229 0.07806 0.0
H2640 H 0.69066 0.46654 0.1581 0.0
H2641 H 0.66208 0.46209 0.1408 0.0
H2642 H 0.65024 0.52658 0.10542 0.0
H2643 H 0.67778 0.53156 0.12385 0.0
H2644 H 0.61423 0.51718 0.12524 0.0
H2645 H 0.66525 0.45426 0.07032 0.0
H2646 H 0.66585 0.44762 0.103 0.0
H2647 H 0.67599 0.46908 0.08545 0.0
C2648 C 0.68178 0.47989 0.14695 0.0
C2649 C 0.68674 0.49937 0.14221 0.0
C2650 C 0.66565 0.4772 0.13672 0.0
C2651 C 0.65435 0.49383 0.12125 0.0
C2652 C 0.65888 0.51342 0.11705 0.0
H2653 H 0.5781 0.49013 0.01623 0.0
H2654 H 0.60664 0.48947 0.03725 0.0
C2655 C 0.6748 0.51619 0.12746 0.0
C2656 C 0.63758 0.49112 0.10961 0.0
H2657 H 0.62821 0.46228 0.0712 0.0
C2658 C 0.6173 0.50517 0.11343 0.0
C2659 C 0.64166 0.47565 0.09386 0.0
C2660 C 0.66341 0.46092 0.08768 0.0
C2661 C 0.60104 0.50423 0.10197 0.0
C2662 C 0.60491 0.48832 0.08689 0.0
C2663 C 0.62518 0.47429 0.08301 0.0
C2664 C 0.58827 0.48653 0.07435 0.0
C2665 C 0.58009 0.52078 0.10553 0.0
C2666 C 0.56871 0.48428 0.08822 0.0
C2667 C 0.55227 0.48497 0.07625 0.0
C2668 C 0.55514 0.48743 0.05013 0.0
C2669 C 0.57522 0.48829 0.03634 0.0
C2670 C 0.5916 0.4879 0.04835 0.0
H2671 H 0.58174 0.53502 0.11134 0.0
H2672 H 0.57327 0.52562 0.08818 0.0
H2673 H 0.56873 0.5143 0.12033 0.0
H2674 H 0.56592 0.48261 0.10833 0.0
H2675 H 0.5371 0.48434 0.08756 0.0
H2676 H 0.37507 0.45225 0.10808 0.0
H2677 H 0.35399 0.43195 0.09793 0.0
H2678 H 0.40625 0.40642 0.04197 0.0
H2679 H 0.42783 0.42515 0.05323 0.0
H2680 H 0.34057 0.43356 0.05603 0.0
H2681 H 0.39232 0.35392 0.07836 0.0
H2682 H 0.39593 0.37686 0.08713 0.0
H2683 H 0.40693 0.36993 0.05632 0.0
C2684 C 0.38222 0.44192 0.09403 0.0
C2685 C 0.40315 0.44036 0.08147 0.0
C2686 C 0.37008 0.43051 0.08807 0.0
C2687 C 0.37867 0.41742 0.06946 0.0
C2688 C 0.39946 0.41599 0.05682 0.0
H2689 H 0.31009 0.37318 0.98514 0.0
H2690 H 0.32755 0.3938 1.00081 0.0
C2691 C 0.41167 0.42704 0.06302 0.0
C2692 C 0.36586 0.40563 0.06258 0.0
H2693 H 0.36776 0.357 0.05155 0.0
C2694 C 0.34632 0.41675 0.05537 0.0
C2695 C 0.37324 0.38366 0.06211 0.0
C2696 C 0.39314 0.3704 0.07167 0.0
C2697 C 0.33422 0.40657 0.04704 0.0
C2698 C 0.34231 0.38485 0.04502 0.0
C2699 C 0.36164 0.3737 0.05278 0.0
C2700 C 0.33097 0.37301 0.03556 0.0
C2701 C 0.3128 0.41916 0.04091 0.0
C2702 C 0.32777 0.35409 0.04938 0.0
C2703 C 0.31875 0.3418 0.03999 0.0
C2704 C 0.31212 0.34837 0.01675 0.0
C2705 C 0.31509 0.36751 1.00301 0.0
C2706 C 0.32469 0.37957 1.01218 0.0
H2707 H 0.30616 0.43306 0.051 0.0
H2708 H 0.3145 0.42502 0.02071 0.0
H2709 H 0.30133 0.40945 0.04566 0.0
H2710 H 0.33264 0.34858 0.06736 0.0
H2711 H 0.31746 0.32688 0.05086 0.0
H2712 H 0.06932 0.21397 0.25761 0.0
H2713 H 0.09761 0.18175 0.259 0.0
H2714 H 0.05152 0.1458 0.28499 0.0
H2715 H 0.02277 0.17846 0.28163 0.0
H2716 H 0.11137 0.15507 0.29228 0.0
H2717 H 0.08713 0.11044 0.23553 0.0
H2718 H 0.07387 0.13766 0.23824 0.0
H2719 H 0.06733 0.11717 0.26221 0.0
C2720 C 0.06502 0.19927 0.2633 0.0
C2721 C 0.04359 0.19898 0.26925 0.0
C2722 C 0.0814 0.18065 0.26424 0.0
C2723 C 0.07708 0.16092 0.27175 0.0
C2724 C 0.0556 0.16055 0.27827 0.0
H2725 H 0.18558 0.0556 0.31271 0.0
H2726 H 0.15296 0.08438 0.314 0.0
C2727 C 0.03906 0.17932 0.2766 0.0
C2728 C 0.09527 0.14123 0.27333 0.0
H2729 H 0.11561 0.09163 0.25678 0.0
C2730 C 0.11224 0.14129 0.28431 0.0
C2731 C 0.0969 0.12308 0.26279 0.0
C2732 C 0.08045 0.12212 0.2488 0.0
C2733 C 0.13064 0.1243 0.28464 0.0
C2734 C 0.13189 0.10578 0.2751 0.0
C2735 C 0.11482 0.10556 0.26439 0.0
C2736 C 0.15099 0.0869 0.27513 0.0
C2737 C 0.14891 0.12703 0.29415 0.0
C2738 C 0.16031 0.0774 0.25343 0.0
C2739 C 0.17854 0.0603 0.25304 0.0
C2740 C 0.18819 0.05246 0.27417 0.0
C2741 C 0.17872 0.06155 0.29601 0.0
C2742 C 0.16012 0.07822 0.29664 0.0
H2743 H 0.14835 0.14393 0.29249 0.0
H2744 H 0.14792 0.12052 0.31415 0.0
H2745 H 0.16443 0.11887 0.28384 0.0
H2746 H 0.15377 0.0835 0.23652 0.0
H2747 H 0.18553 0.05368 0.2359 0.0
H2748 H 0.25079 0.29806 0.92901 0.0
H2749 H 0.25142 0.33031 0.90007 0.0
H2750 H 0.2321 0.36594 0.96158 0.0
H2751 H 0.2318 0.33349 0.99074 0.0
H2752 H 0.22326 0.36481 0.88749 0.0
H2753 H 0.27955 0.38993 0.92586 0.0
H2754 H 0.27462 0.36439 0.93589 0.0
H2755 H 0.25668 0.38718 0.94863 0.0
C2756 C 0.24645 0.3127 0.93657 0.0
C2757 C 0.24095 0.31282 0.96255 0.0
C2758 C 0.24694 0.33135 0.91979 0.0
C2759 C 0.24214 0.35101 0.92818 0.0
C2760 C 0.23647 0.35122 0.95417 0.0
H2761 H 0.21824 0.4818 0.85109 0.0
H2762 H 0.21862 0.44901 0.87991 0.0
C2763 C 0.23605 0.33249 0.97101 0.0
C2764 C 0.24259 0.37106 0.9097 0.0
H2765 H 0.26149 0.41511 0.89574 0.0
C2766 C 0.23183 0.37561 0.88936 0.0
C2767 C 0.25373 0.38558 0.91152 0.0
C2768 C 0.26698 0.38145 0.93148 0.0
C2769 C 0.23155 0.39396 0.87158 0.0
C2770 C 0.24226 0.40862 0.8737 0.0
C2771 C 0.25313 0.40413 0.89389 0.0
C2772 C 0.24194 0.42878 0.85544 0.0
C2773 C 0.2193 0.39795 0.85077 0.0
C2774 C 0.25488 0.42882 0.83169 0.0
C2775 C 0.2548 0.44777 0.81509 0.0
C2776 C 0.2414 0.46733 0.8214 0.0
C2777 C 0.2285 0.46716 0.84518 0.0
C2778 C 0.22876 0.44831 0.86185 0.0
H2779 H 0.21145 0.38539 0.85163 0.0
H2780 H 0.20705 0.41324 0.85162 0.0
H2781 H 0.23017 0.39904 0.83268 0.0
H2782 H 0.26538 0.41417 0.82608 0.0
H2783 H 0.26555 0.44705 0.79752 0.0
H2784 H 0.28501 0.26791 0.94387 0.0
H2785 H 0.31563 0.26739 0.90967 0.0
H2786 H 0.35677 0.22526 0.95795 0.0
H2787 H 0.32641 0.22577 0.99182 0.0
H2788 H 0.35309 0.27976 0.90453 0.0
H2789 H 0.37671 0.19486 0.89754 0.0
H2790 H 0.35127 0.20768 0.91427 0.0
H2791 H 0.37447 0.19996 0.92859 0.0
C2792 C 0.30046 0.25816 0.94713 0.0
C2793 C 0.3028 0.24657 0.97093 0.0
C2794 C 0.31823 0.25801 0.92742 0.0
C2795 C 0.33908 0.24606 0.93051 0.0
C2796 C 0.34122 0.23435 0.95425 0.0
H2797 H 0.4712 0.22143 0.84773 0.0
H2798 H 0.43751 0.22203 0.87613 0.0
C2799 C 0.32361 0.2347 0.9739 0.0
C2800 C 0.35861 0.24617 0.90964 0.0
H2801 H 0.40221 0.2137 0.87744 0.0
C2802 C 0.36365 0.26526 0.89852 0.0
C2803 C 0.37295 0.22747 0.90124 0.0
C2804 C 0.36853 0.20634 0.91081 0.0
C2805 C 0.38243 0.26609 0.88057 0.0
C2806 C 0.39697 0.24733 0.87237 0.0
C2807 C 0.39165 0.22828 0.88323 0.0
C2808 C 0.41796 0.24687 0.85363 0.0
C2809 C 0.38688 0.28724 0.87146 0.0
C2810 C 0.41922 0.26028 0.83051 0.0
C2811 C 0.43889 0.25996 0.814 0.0
C2812 C 0.45821 0.24584 0.81945 0.0
C2813 C 0.45687 0.23235 0.84235 0.0
C2814 C 0.43733 0.23269 0.85883 0.0
H2815 H 0.37817 0.29875 0.88455 0.0
H2816 H 0.40407 0.28596 0.86893 0.0
H2817 H 0.38157 0.2936 0.85332 0.0
H2818 H 0.40494 0.27111 0.82502 0.0
H2819 H 0.43891 0.27105 0.7971 0.0
H2820 H 0.46834 0.53532 0.93959 0.0
H2821 H 0.44165 0.53353 0.91733 0.0
H2822 H 0.40957 0.50495 0.98515 0.0
H2823 H 0.4354 0.508 1.0077 0.0
H2824 H 0.43415 0.50155 0.90785 0.0
H2825 H 0.35931 0.54418 0.96133 0.0
H2826 H 0.38476 0.54486 0.96611 0.0
H2827 H 0.37371 0.52329 0.98136 0.0
C2828 C 0.45525 0.52929 0.94994 0.0
C2829 C 0.45395 0.52214 0.97557 0.0
C2830 C 0.44002 0.5281 0.93712 0.0
C2831 C 0.42326 0.51936 0.9495 0.0
C2832 C 0.4218 0.51243 0.97518 0.0
H2833 H 0.36167 0.46028 0.8723 0.0
H2834 H 0.38468 0.46852 0.89477 0.0
C2835 C 0.43675 0.51411 0.98812 0.0
C2836 C 0.40845 0.51596 0.9352 0.0
H2837 H 0.35624 0.52093 0.93543 0.0
C2838 C 0.41709 0.50607 0.91376 0.0
C2839 C 0.38612 0.52204 0.94251 0.0
C2840 C 0.37546 0.53439 0.96392 0.0
C2841 C 0.40418 0.50182 0.89977 0.0
C2842 C 0.38194 0.50663 0.90803 0.0
C2843 C 0.37326 0.51689 0.92919 0.0
C2844 C 0.36738 0.50133 0.89498 0.0
C2845 C 0.41464 0.49269 0.87594 0.0
C2846 C 0.34917 0.51664 0.88866 0.0
C2847 C 0.33532 0.51171 0.87673 0.0
C2848 C 0.33942 0.49138 0.87042 0.0
C2849 C 0.35765 0.47606 0.87695 0.0
C2850 C 0.3712 0.48088 0.88942 0.0
H2851 H 0.42975 0.49699 0.86797 0.0
H2852 H 0.41848 0.47527 0.87988 0.0
H2853 H 0.40418 0.49822 0.86175 0.0
H2854 H 0.34563 0.5325 0.89293 0.0
H2855 H 0.32125 0.52389 0.87278 0.0
H2856 H 0.64307 0.70124 0.02323 0.0
H2857 H 0.63274 0.67251 1.0127 0.0
H2858 H 0.65514 0.69041 0.935 0.0
H2859 H 0.6651 0.71952 0.94532 0.0
H2860 H 0.61407 0.68455 0.9454 0.0
H2861 H 0.67098 0.61677 0.98964 0.0
H2862 H 0.65593 0.63593 1.00979 0.0
H2863 H 0.67431 0.6431 0.98306 0.0
C2864 C 0.6458 0.69907 1.00389 0.0
C2865 C 0.65487 0.71268 0.98509 0.0
C2866 C 0.64009 0.68251 0.99794 0.0
C2867 C 0.64342 0.67919 0.97311 0.0
C2868 C 0.65259 0.69264 0.9543 0.0
H2869 H 0.62735 0.57019 0.92409 0.0
H2870 H 0.64139 0.59803 0.9307 0.0
C2871 C 0.65837 0.70917 0.96023 0.0
C2872 C 0.63636 0.66231 0.96669 0.0
H2873 H 0.64289 0.60917 0.97658 0.0
C2874 C 0.62047 0.66805 0.95206 0.0
C2875 C 0.64488 0.64081 0.97523 0.0
C2876 C 0.66261 0.6337 0.99012 0.0
C2877 C 0.61246 0.65288 0.94624 0.0
C2878 C 0.62042 0.63145 0.95555 0.0
C2879 C 0.63671 0.62564 0.96964 0.0
C2880 C 0.61181 0.61484 0.95117 0.0
C2881 C 0.59563 0.6599 0.93009 0.0
C2882 C 0.59059 0.61503 0.96064 0.0
C2883 C 0.58251 0.59924 0.9568 0.0
C2884 C 0.59554 0.58288 0.94352 0.0
C2885 C 0.61683 0.58272 0.9341 0.0
C2886 C 0.62491 0.59852 0.93801 0.0
H2887 H 0.59526 0.67573 0.9193 0.0
H2888 H 0.59822 0.64856 0.91693 0.0
H2889 H 0.57987 0.66077 0.94206 0.0
H2890 H 0.58029 0.62731 0.97118 0.0
H2891 H 0.566 0.59993 0.96413 0.0
H2892 H 0.95297 0.81633 0.71742 0.0
H2893 H 0.92316 0.84805 0.71776 0.0
H2894 H 0.92459 0.8497 0.79426 0.0
H2895 H 0.9541 0.8177 0.7942 0.0
H2896 H 0.88268 0.85456 0.74776 0.0
H2897 H 0.92374 0.91024 0.76281 0.0
H2898 H 0.93793 0.88489 0.75321 0.0
H2899 H 0.92585 0.88682 0.78516 0.0
C2900 C 0.94688 0.82327 0.73442 0.0
C2901 C 0.95594 0.81409 0.75587 0.0
C2902 C 0.92983 0.8416 0.73454 0.0
C2903 C 0.92152 0.8516 0.75597 0.0
C2904 C 0.93079 0.84268 0.77729 0.0
H2905 H 0.81587 0.96322 0.79146 0.0
H2906 H 0.84738 0.93288 0.79188 0.0
C2907 C 0.94775 0.82426 0.77723 0.0
C2908 C 0.90283 0.87087 0.75616 0.0
H2909 H 0.88657 0.92291 0.7646 0.0
C2910 C 0.88362 0.86951 0.75133 0.0
C2911 C 0.90374 0.89049 0.76106 0.0
C2912 C 0.92395 0.89336 0.76566 0.0
C2913 C 0.86543 0.88689 0.75158 0.0
C2914 C 0.86642 0.90665 0.75605 0.0
C2915 C 0.88561 0.90796 0.76108 0.0
C2916 C 0.84782 0.92604 0.75534 0.0
C2917 C 0.84513 0.88363 0.74775 0.0
C2918 C 0.83778 0.9331 0.73439 0.0
C2919 C 0.81977 0.95042 0.73418 0.0
C2920 C 0.8113 0.96147 0.75475 0.0
C2921 C 0.82195 0.95516 0.77523 0.0
C2922 C 0.83995 0.93768 0.77553 0.0
H2923 H 0.84505 0.86682 0.75253 0.0
H2924 H 0.83108 0.8931 0.75918 0.0
H2925 H 0.84359 0.88853 0.72788 0.0
H2926 H 0.8438 0.92513 0.7181 0.0
H2927 H 0.81251 0.95524 0.71777 0.0
H2928 H 0.50241 0.18166 0.6371 0.0
H2929 H 0.50828 0.15514 0.60969 0.0
H2930 H 0.46567 0.12489 0.66358 0.0
H2931 H 0.45933 0.15169 0.69052 0.0
H2932 H 0.52183 0.11219 0.61205 0.0
H2933 H 0.43692 0.13993 0.60351 0.0
H2934 H 0.44908 0.15375 0.6182 0.0
H2935 H 0.44095 0.13092 0.63502 0.0
C2936 C 0.4948 0.16898 0.64333 0.0
C2937 C 0.48043 0.16868 0.66588 0.0
C2938 C 0.49802 0.15393 0.6276 0.0
C2939 C 0.48693 0.13835 0.63422 0.0
C2940 C 0.47392 0.13709 0.6577 0.0
H2941 H 0.50913 0.03122 0.55604 0.0
H2942 H 0.50713 0.05418 0.58561 0.0
C2943 C 0.47053 0.15223 0.67324 0.0
C2944 C 0.48793 0.12426 0.6161 0.0
H2945 H 0.45704 0.10919 0.58563 0.0
C2946 C 0.50768 0.11157 0.60623 0.0
C2947 C 0.4695 0.12371 0.60808 0.0
C2948 C 0.44795 0.13796 0.61653 0.0
C2949 C 0.50946 0.09812 0.58895 0.0
C2950 C 0.49092 0.09698 0.58169 0.0
C2951 C 0.47123 0.10989 0.59131 0.0
C2952 C 0.49155 0.08272 0.56394 0.0
C2953 C 0.53127 0.08563 0.57826 0.0
C2954 C 0.48272 0.09082 0.54223 0.0
C2955 C 0.48333 0.07746 0.5255 0.0
C2956 C 0.49249 0.05569 0.53029 0.0
C2957 C 0.5014 0.04769 0.55197 0.0
C2958 C 0.50062 0.06096 0.56878 0.0
H2959 H 0.54373 0.09289 0.57972 0.0
H2960 H 0.53466 0.06954 0.58883 0.0
H2961 H 0.5324 0.0843 0.55842 0.0
H2962 H 0.47557 0.10755 0.53805 0.0
H2963 H 0.47662 0.08415 0.50878 0.0
H2964 H 0.53302 0.36519 0.82727 0.0
H2965 H 0.52781 0.39233 0.85336 0.0
H2966 H 0.49509 0.35716 0.91431 0.0
H2967 H 0.49999 0.33007 0.88794 0.0
H2968 H 0.47785 0.40154 0.91176 0.0
H2969 H 0.56506 0.37859 0.90672 0.0
H2970 H 0.55687 0.38652 0.87694 0.0
H2971 H 0.55166 0.3632 0.89619 0.0
C2972 C 0.52412 0.3636 0.846 0.0
C2973 C 0.51683 0.34559 0.85558 0.0
C2974 C 0.52137 0.37899 0.86098 0.0
C2975 C 0.51155 0.37654 0.886 0.0
C2976 C 0.50284 0.35933 0.89511 0.0
H2977 H 0.53098 0.43101 1.00537 0.0
H2978 H 0.53059 0.40821 0.9762 0.0
C2979 C 0.50548 0.34394 0.88 0.0
C2980 C 0.51186 0.39103 0.90299 0.0
H2981 H 0.54555 0.40826 0.92675 0.0
C2982 C 0.49264 0.40302 0.91505 0.0
C2983 C 0.53117 0.39274 0.90763 0.0
C2984 C 0.55237 0.37945 0.8964 0.0
C2985 C 0.49221 0.41685 0.9313 0.0
C2986 C 0.51155 0.41899 0.93535 0.0
C2987 C 0.53074 0.40681 0.92349 0.0
C2988 C 0.51229 0.43316 0.9525 0.0
C2989 C 0.47103 0.42866 0.94442 0.0
C2990 C 0.50256 0.45487 0.94868 0.0
C2991 C 0.50272 0.46789 0.96541 0.0
C2992 C 0.51305 0.45958 0.98601 0.0
C2993 C 0.52312 0.43792 0.98951 0.0
C2994 C 0.52288 0.42489 0.97286 0.0
H2995 H 0.4583 0.42121 0.94454 0.0
H2996 H 0.47171 0.42951 0.96392 0.0
H2997 H 0.46664 0.44497 0.93458 0.0
H2998 H 0.49467 0.46177 0.93286 0.0
H2999 H 0.49439 0.48431 0.96233 0.0
H3000 H 0.55369 0.81193 0.39314 0.0
H3001 H 0.55016 0.84426 0.40951 0.0
H3002 H 0.4887 0.87091 0.38815 0.0
H3003 H 0.49216 0.83839 0.37169 0.0
H3004 H 0.54155 0.88843 0.38668 0.0
H3005 H 0.47874 0.87141 0.46536 0.0
H3006 H 0.49591 0.8515 0.44697 0.0
H3007 H 0.47476 0.87131 0.43448 0.0
C3008 C 0.53951 0.82476 0.39167 0.0
C3009 C 0.52313 0.82255 0.38129 0.0
C3010 C 0.53754 0.84325 0.40098 0.0
C3011 C 0.51906 0.85991 0.40037 0.0
C3012 C 0.50301 0.85816 0.38905 0.0
H3013 H 0.4956 0.98043 0.4557 0.0
H3014 H 0.49927 0.9544 0.42877 0.0
C3015 C 0.50507 0.83967 0.37948 0.0
C3016 C 0.51637 0.87846 0.41282 0.0
H3017 H 0.48999 0.90148 0.46464 0.0
C3018 C 0.53007 0.89149 0.40352 0.0
C3019 C 0.50161 0.88223 0.43503 0.0
C3020 C 0.48696 0.86836 0.44627 0.0
C3021 C 0.52948 0.90805 0.41594 0.0
C3022 C 0.51495 0.91161 0.4383 0.0
C3023 C 0.50108 0.89876 0.44744 0.0
C3024 C 0.51461 0.92784 0.45324 0.0
C3025 C 0.54503 0.92106 0.4058 0.0
C3026 C 0.52221 0.92166 0.47582 0.0
C3027 C 0.52043 0.93659 0.49107 0.0
C3028 C 0.51102 0.95805 0.4841 0.0
C3029 C 0.50357 0.96424 0.46133 0.0
C3030 C 0.50551 0.9493 0.44596 0.0
H3031 H 0.5556 0.91613 0.38839 0.0
H3032 H 0.53635 0.9379 0.402 0.0
H3033 H 0.55491 0.91957 0.41994 0.0
H3034 H 0.52916 0.90518 0.4819 0.0
H3035 H 0.52597 0.93129 0.50868 0.0
H3036 H 0.4742 0.58055 0.02459 0.0
H3037 H 0.47324 0.60227 0.05567 0.0
H3038 H 0.51619 0.5499 0.09233 0.0
H3039 H 0.51693 0.52829 0.06165 0.0
H3040 H 0.48504 0.56987 0.12584 0.0
H3041 H 0.5193 0.62833 0.05848 0.0
H3042 H 0.49568 0.62592 0.05069 0.0
H3043 H 0.51886 0.60383 0.05028 0.0
C3044 C 0.48331 0.57369 0.03939 0.0
C3045 C 0.4952 0.55254 0.04098 0.0
C3046 C 0.4829 0.58613 0.05704 0.0
C3047 C 0.49489 0.57784 0.0762 0.0
C3048 C 0.50676 0.55669 0.07779 0.0
H3049 H 0.51383 0.66643 0.16014 0.0
H3050 H 0.52151 0.6369 0.13664 0.0
C3051 C 0.50706 0.54424 0.06027 0.0
C3052 C 0.49515 0.5912 0.0945 0.0
H3053 H 0.50382 0.63776 0.099 0.0
C3054 C 0.48932 0.58463 0.11998 0.0
C3055 C 0.50128 0.6102 0.087 0.0
C3056 C 0.50936 0.61739 0.06015 0.0
C3057 C 0.48865 0.59693 0.13804 0.0
C3058 C 0.49339 0.61665 0.13042 0.0
C3059 C 0.50001 0.62278 0.10498 0.0
C3060 C 0.49017 0.63189 0.14807 0.0
C3061 C 0.483 0.58852 0.1651 0.0
C3062 C 0.47027 0.63852 0.163 0.0
C3063 C 0.46602 0.65508 0.17671 0.0
C3064 C 0.4814 0.66578 0.17548 0.0
C3065 C 0.50172 0.65841 0.16168 0.0
C3066 C 0.50603 0.64166 0.14805 0.0
H3067 H 0.4878 0.57103 0.16812 0.0
H3068 H 0.49065 0.59427 0.17709 0.0
H3069 H 0.46555 0.59368 0.17102 0.0
H3070 H 0.45756 0.63171 0.16302 0.0
H3071 H 0.45024 0.6603 0.18726 0.0
loop_
_geom_bond_atom_site_label_1
_geom_bond_atom_site_label_2
_geom_bond_distance
_geom_bond_site_symmetry_2
_ccdc_geom_bond_type
Tb0 N31 2.660 1_565 S
Tb0 N38 2.600 . S
Tb0 O44 2.546 . S
Tb0 O45 2.610 1_654 S
Tb0 O47 2.320 1_564 S
Tb0 O48 2.552 1_554 S
Tb0 O49 2.413 . S
Tb0 O51 2.362 1_565 S
Tb0 O52 2.421 1_655 S
Tb0 C64 2.833 . S
C1 C4 1.432 1_545 S
C1 C5 1.414 . S
C1 N8 1.359 . S
C2 C4 1.417 . S
C2 C6 1.432 . S
C2 C14 1.410 . S
C3 C5 1.444 1_565 S
C3 C6 1.317 . S
C3 H26 0.929 . S
C4 C1 1.432 1_565 S
C4 C2 1.417 . S
C4 N12 1.360 . S
C5 C1 1.414 . S
C5 C3 1.444 1_545 S
C5 C10 1.385 . S
C6 C2 1.432 . S
C6 C3 1.317 . S
C6 H18 0.930 . S
C7 C9 1.392 . S
C7 C10 1.370 . S
C7 H19 0.936 . S
N8 C1 1.359 . S
N8 C9 1.327 . S
N8 Tb11 2.600 . S
C9 C7 1.392 . S
C9 N8 1.327 . S
C9 H16 0.930 1_455 S
C10 C5 1.385 . S
C10 C7 1.370 . S
C10 H29 0.930 . S
Tb11 N8 2.600 . S
Tb11 N12 2.660 1_545 S
Tb11 O45 2.362 1_545 S
Tb11 O46 2.421 1_455 S
Tb11 O50 2.546 . S
Tb11 O51 2.610 1_456 S
Tb11 O53 2.320 1_546 S
Tb11 O54 2.552 1_556 S
Tb11 O55 2.413 . S
Tb11 C75 2.833 . S
N12 C4 1.360 . S
N12 Tb11 2.660 1_565 S
N12 C13 1.305 . S
C13 N12 1.305 . S
C13 C15 1.407 . S
C13 H20 0.930 . S
C14 C2 1.410 . S
C14 C15 1.345 . S
C14 H22 0.930 . S
C15 C13 1.407 . S
C15 C14 1.345 . S
C15 H17 0.930 . S
H16 C9 0.930 1_655 S
H17 C15 0.930 . S
H18 C6 0.930 . S
H19 C7 0.936 . S
H20 C13 0.930 . S
H21 C35 0.930 . S
H22 C14 0.930 . S
H23 C41 0.930 1_455 S
H24 C32 0.930 . S
H25 C39 0.928 1_455 S
H26 C3 0.929 . S
H27 C33 0.930 . S
H28 C66 0.930 . S
H29 C10 0.930 . S
H30 C65 0.929 . S
N31 Tb0 2.660 1_545 S
N31 C32 1.305 . S
N31 C36 1.360 . S
C32 H24 0.930 . S
C32 N31 1.305 . S
C32 C35 1.407 . S
C33 H27 0.930 . S
C33 C34 1.410 . S
C33 C35 1.345 . S
C34 C33 1.410 . S
C34 C36 1.417 . S
C34 C66 1.432 . S
C35 H21 0.930 . S
C35 C32 1.407 . S
C35 C33 1.345 . S
C36 N31 1.360 . S
C36 C34 1.417 . S
C36 C40 1.432 1_545 S
H37 C42 0.930 . S
N38 Tb0 2.600 . S
N38 C40 1.359 . S
N38 C41 1.327 . S
C39 H25 0.928 1_655 S
C39 C41 1.392 . S
C39 C42 1.370 . S
C40 C36 1.432 1_565 S
C40 N38 1.359 . S
C40 C43 1.414 . S
C41 H23 0.930 1_655 S
C41 N38 1.327 . S
C41 C39 1.392 . S
C42 H37 0.930 . S
C42 C39 1.370 . S
C42 C43 1.385 . S
C43 C40 1.414 . S
C43 C42 1.385 . S
C43 C65 1.444 1_565 S
O44 Tb0 2.546 . S
O44 C64 1.251 . S
O45 Tb0 2.610 1_456 S
O45 Tb11 2.362 1_565 S
O45 C56 1.283 . S
O46 Tb11 2.421 1_655 S
O46 C63 1.262 . S
O47 Tb0 2.320 1_546 S
O47 C63 1.260 . S
O48 Tb0 2.552 1_556 S
O48 C56 1.243 1_655 S
O49 Tb0 2.413 . S
O49 C64 1.256 . S
O50 Tb11 2.546 . S
O50 C75 1.251 . S
O51 Tb0 2.362 1_545 S
O51 Tb11 2.610 1_654 S
O51 C67 1.283 . S
O52 Tb0 2.421 1_455 S
O52 C74 1.262 . S
O53 Tb11 2.320 1_564 S
O53 C74 1.260 . S
O54 Tb11 2.552 1_554 S
O54 C67 1.243 1_455 S
O55 Tb11 2.413 . S
O55 C75 1.256 . S
C56 O45 1.283 . S
C56 O48 1.243 1_455 S
C57 C59 1.382 . S
C57 C61 1.393 . S
C57 C64 1.500 . S
C58 C59 1.400 . S
C58 C60 1.384 . S
C59 C57 1.382 . S
C59 C58 1.400 . S
C59 H76 0.930 . S
C60 C58 1.384 . S
C60 C62 1.392 . S
C60 H77 0.931 . S
C61 C57 1.393 . S
C61 C62 1.401 . S
C61 H78 0.930 . S
C62 C60 1.392 . S
C62 C61 1.401 . S
C62 H79 0.930 . S
C63 O46 1.262 . S
C63 O47 1.260 . S
C64 Tb0 2.833 . S
C64 O44 1.251 . S
C64 O49 1.256 . S
C64 C57 1.500 . S
C65 H30 0.929 . S
C65 C43 1.444 1_545 S
C65 C66 1.317 . S
C66 H28 0.930 . S
C66 C34 1.432 . S
C66 C65 1.317 . S
C67 O51 1.283 . S
C67 O54 1.243 1_655 S
C68 C69 1.382 . S
C68 C72 1.393 . S
C68 C75 1.500 . S
C69 C68 1.382 . S
C69 C70 1.400 . S
C69 H80 0.930 . S
C70 C69 1.400 . S
C70 C71 1.384 . S
C71 C70 1.384 . S
C71 C73 1.392 . S
C71 H81 0.931 . S
C72 C68 1.393 . S
C72 C73 1.401 . S
C72 H82 0.930 . S
C73 C71 1.392 . S
C73 C72 1.401 . S
C73 H83 0.930 . S
C74 O52 1.262 . S
C74 O53 1.260 . S
C75 Tb11 2.833 . S
C75 O50 1.251 . S
C75 O55 1.256 . S
C75 C68 1.500 . S
H76 C59 0.930 . S
H77 C60 0.931 . S
H78 C61 0.930 . S
H79 C62 0.930 . S
H80 C69 0.930 . S
H81 C71 0.931 . S
H82 C72 0.930 . S
H83 C73 0.930 . S
Tb84 N115 2.660 . S
Tb84 N122 2.600 . S
Tb84 O128 2.546 . S
Tb84 O129 2.610 1_455 S
Tb84 O131 2.320 1_455 S
Tb84 O132 2.552 1_455 S
Tb84 O133 2.413 . S
Tb84 O135 2.362 . S
Tb84 O136 2.421 . S
Tb84 C148 2.833 . S
C85 C88 1.432 . S
C85 C89 1.414 . S
C85 N92 1.359 . S
C86 C88 1.417 . S
C86 C90 1.432 . S
C86 C98 1.410 . S
C87 C89 1.444 . S
C87 C90 1.317 . S
C87 H110 0.929 . S
C88 C85 1.432 . S
C88 C86 1.417 . S
C88 N96 1.360 . S
C89 C85 1.414 . S
C89 C87 1.444 . S
C89 C94 1.385 . S
C90 C86 1.432 . S
C90 C87 1.317 . S
C90 H102 0.930 . S
C91 C93 1.392 . S
C91 C94 1.370 . S
C91 H103 0.931 . S
N92 C85 1.359 . S
N92 C93 1.327 . S
N92 Tb95 2.600 . S
C93 C91 1.392 . S
C93 N92 1.327 . S
C93 H100 0.930 . S
C94 C89 1.385 . S
C94 C91 1.370 . S
C94 H113 0.930 . S
Tb95 N92 2.600 . S
Tb95 N96 2.660 . S
Tb95 O129 2.362 . S
Tb95 O130 2.421 . S
Tb95 O134 2.546 . S
Tb95 O135 2.610 1_655 S
Tb95 O137 2.320 1_655 S
Tb95 O138 2.552 1_655 S
Tb95 O139 2.413 . S
Tb95 C159 2.833 . S
N96 C88 1.360 . S
N96 Tb95 2.660 . S
N96 C97 1.305 . S
C97 N96 1.305 . S
C97 C99 1.407 . S
C97 H104 0.930 . S
C98 C86 1.410 . S
C98 C99 1.345 . S
C98 H106 0.930 . S
C99 C97 1.407 . S
C99 C98 1.345 . S
C99 H101 0.930 . S
H100 C93 0.930 . S
H101 C99 0.930 . S
H102 C90 0.930 . S
H103 C91 0.931 . S
H104 C97 0.930 . S
H105 C119 0.930 . S
H106 C98 0.930 . S
H107 C125 0.930 . S
H108 C116 0.930 . S
H109 C123 0.931 . S
H110 C87 0.929 . S
H111 C117 0.930 . S
H112 C150 0.930 . S
H113 C94 0.930 . S
H114 C149 0.929 . S
N115 Tb84 2.660 . S
N115 C116 1.305 . S
N115 C120 1.360 . S
C116 H108 0.930 . S
C116 N115 1.305 . S
C116 C119 1.407 . S
C117 H111 0.930 . S
C117 C118 1.410 . S
C117 C119 1.345 . S
C118 C117 1.410 . S
C118 C120 1.417 . S
C118 C150 1.432 . S
C119 H105 0.930 . S
C119 C116 1.407 . S
C119 C117 1.345 . S
C120 N115 1.360 . S
C120 C118 1.417 . S
C120 C124 1.432 . S
H121 C126 0.930 . S
N122 Tb84 2.600 . S
N122 C124 1.359 . S
N122 C125 1.327 . S
C123 H109 0.931 . S
C123 C125 1.392 . S
C123 C126 1.370 . S
C124 C120 1.432 . S
C124 N122 1.359 . S
C124 C127 1.414 . S
C125 H107 0.930 . S
C125 N122 1.327 . S
C125 C123 1.392 . S
C126 H121 0.930 . S
C126 C123 1.370 . S
C126 C127 1.385 . S
C127 C124 1.414 . S
C127 C126 1.385 . S
C127 C149 1.444 . S
O128 Tb84 2.546 . S
O128 C148 1.251 . S
O129 Tb84 2.610 1_655 S
O129 Tb95 2.362 . S
O129 C140 1.283 . S
O130 Tb95 2.421 . S
O130 C147 1.262 . S
O131 Tb84 2.320 1_655 S
O131 C147 1.260 . S
O132 Tb84 2.552 1_655 S
O132 C140 1.243 . S
O133 Tb84 2.413 . S
O133 C148 1.256 . S
O134 Tb95 2.546 . S
O134 C159 1.251 . S
O135 Tb84 2.362 . S
O135 Tb95 2.610 1_455 S
O135 C151 1.283 . S
O136 Tb84 2.421 . S
O136 C158 1.262 . S
O137 Tb95 2.320 1_455 S
O137 C158 1.260 . S
O138 Tb95 2.552 1_455 S
O138 C151 1.243 . S
O139 Tb95 2.413 . S
O139 C159 1.256 . S
C140 O129 1.283 . S
C140 O132 1.243 . S
C141 C143 1.382 1_455 S
C141 C145 1.393 . S
C141 C148 1.500 . S
C142 C143 1.400 . S
C142 C144 1.384 1_655 S
C143 C141 1.382 1_655 S
C143 C142 1.400 . S
C143 H160 0.930 . S
C144 C142 1.384 1_455 S
C144 C146 1.392 . S
C144 H161 0.931 . S
C145 C141 1.393 . S
C145 C146 1.401 . S
C145 H162 0.930 . S
C146 C144 1.392 . S
C146 C145 1.401 . S
C146 H163 0.930 . S
C147 O130 1.262 . S
C147 O131 1.260 . S
C148 Tb84 2.833 . S
C148 O128 1.251 . S
C148 O133 1.256 . S
C148 C141 1.500 . S
C149 H114 0.929 . S
C149 C127 1.444 . S
C149 C150 1.317 . S
C150 H112 0.930 . S
C150 C118 1.432 . S
C150 C149 1.317 . S
C151 O135 1.283 . S
C151 O138 1.243 . S
C152 C153 1.382 1_655 S
C152 C156 1.393 . S
C152 C159 1.500 . S
C153 C152 1.382 1_455 S
C153 C154 1.400 . S
C153 H164 0.930 . S
C154 C153 1.400 . S
C154 C155 1.384 1_455 S
C155 C154 1.384 1_655 S
C155 C157 1.392 . S
C155 H165 0.931 . S
C156 C152 1.393 . S
C156 C157 1.401 . S
C156 H166 0.930 . S
C157 C155 1.392 . S
C157 C156 1.401 . S
C157 H167 0.930 . S
C158 O136 1.262 . S
C158 O137 1.260 . S
C159 Tb95 2.833 . S
C159 O134 1.251 . S
C159 O139 1.256 . S
C159 C152 1.500 . S
H160 C143 0.930 . S
H161 C144 0.931 . S
H162 C145 0.930 . S
H163 C146 0.930 . S
H164 C153 0.930 . S
H165 C155 0.931 . S
H166 C156 0.930 . S
H167 C157 0.930 . S
Tb168 N199 2.660 . S
Tb168 N206 2.600 . S
Tb168 O212 2.546 . S
Tb168 O213 2.610 . S
Tb168 O215 2.320 . S
Tb168 O216 2.552 . S
Tb168 O217 2.413 . S
Tb168 O219 2.362 . S
Tb168 O220 2.421 . S
Tb168 C232 2.833 . S
C169 C172 1.432 . S
C169 C173 1.414 . S
C169 N176 1.359 . S
C170 C172 1.417 . S
C170 C174 1.432 . S
C170 C182 1.410 . S
C171 C173 1.444 . S
C171 C174 1.317 . S
C171 H194 0.929 . S
C172 C169 1.432 . S
C172 C170 1.417 . S
C172 N180 1.360 . S
C173 C169 1.414 . S
C173 C171 1.444 . S
C173 C178 1.385 . S
C174 C170 1.432 . S
C174 C171 1.317 . S
C174 H186 0.930 . S
C175 C177 1.392 . S
C175 C178 1.370 . S
C175 H187 0.931 . S
N176 C169 1.359 . S
N176 C177 1.327 . S
N176 Tb179 2.600 . S
C177 C175 1.392 . S
C177 N176 1.327 . S
C177 H184 0.930 . S
C178 C173 1.385 . S
C178 C175 1.370 . S
C178 H197 0.930 . S
Tb179 N176 2.600 . S
Tb179 N180 2.660 . S
Tb179 O213 2.362 . S
Tb179 O214 2.421 . S
Tb179 O218 2.546 . S
Tb179 O219 2.610 . S
Tb179 O221 2.320 . S
Tb179 O222 2.552 . S
Tb179 O223 2.413 . S
Tb179 C243 2.833 . S
N180 C172 1.360 . S
N180 Tb179 2.660 . S
N180 C181 1.305 . S
C181 N180 1.305 . S
C181 C183 1.407 . S
C181 H188 0.930 . S
C182 C170 1.410 . S
C182 C183 1.345 . S
C182 H190 0.930 . S
C183 C181 1.407 . S
C183 C182 1.345 . S
C183 H185 0.930 . S
H184 C177 0.930 . S
H185 C183 0.930 . S
H186 C174 0.930 . S
H187 C175 0.931 . S
H188 C181 0.930 . S
H189 C203 0.930 . S
H190 C182 0.930 . S
H191 C209 0.930 . S
H192 C200 0.930 . S
H193 C207 0.931 . S
H194 C171 0.929 . S
H195 C201 0.930 . S
H196 C234 0.930 . S
H197 C178 0.930 . S
H198 C233 0.929 . S
N199 Tb168 2.660 . S
N199 C200 1.305 . S
N199 C204 1.360 . S
C200 H192 0.930 . S
C200 N199 1.305 . S
C200 C203 1.407 . S
C201 H195 0.930 . S
C201 C202 1.410 . S
C201 C203 1.345 . S
C202 C201 1.410 . S
C202 C204 1.417 . S
C202 C234 1.432 . S
C203 H189 0.930 . S
C203 C200 1.407 . S
C203 C201 1.345 . S
C204 N199 1.360 . S
C204 C202 1.417 . S
C204 C208 1.432 . S
H205 C210 0.930 . S
N206 Tb168 2.600 . S
N206 C208 1.359 . S
N206 C209 1.327 . S
C207 H193 0.931 . S
C207 C209 1.392 . S
C207 C210 1.370 . S
C208 C204 1.432 . S
C208 N206 1.359 . S
C208 C211 1.414 . S
C209 H191 0.930 . S
C209 N206 1.327 . S
C209 C207 1.392 . S
C210 H205 0.930 . S
C210 C207 1.370 . S
C210 C211 1.385 . S
C211 C208 1.414 . S
C211 C210 1.385 . S
C211 C233 1.444 . S
O212 Tb168 2.546 . S
O212 C232 1.251 . S
O213 Tb168 2.610 . S
O213 Tb179 2.362 . S
O213 C224 1.283 . S
O214 Tb179 2.421 . S
O214 C231 1.262 . S
O215 Tb168 2.320 . S
O215 C231 1.260 . S
O216 Tb168 2.552 . S
O216 C224 1.243 . S
O217 Tb168 2.413 . S
O217 C232 1.256 . S
O218 Tb179 2.546 . S
O218 C243 1.251 . S
O219 Tb168 2.362 . S
O219 Tb179 2.610 . S
O219 C235 1.283 . S
O220 Tb168 2.421 . S
O220 C242 1.262 . S
O221 Tb179 2.320 . S
O221 C242 1.260 . S
O222 Tb179 2.552 . S
O222 C235 1.243 . S
O223 Tb179 2.413 . S
O223 C243 1.256 . S
C224 O213 1.283 . S
C224 O216 1.243 . S
C225 C227 1.382 . S
C225 C229 1.393 . S
C225 C232 1.500 . S
C226 C227 1.400 . S
C226 C228 1.384 . S
C227 C225 1.382 . S
C227 C226 1.400 . S
C227 H244 0.930 . S
C228 C226 1.384 . S
C228 C230 1.392 . S
C228 H245 0.931 . S
C229 C225 1.393 . S
C229 C230 1.401 . S
C229 H246 0.930 . S
C230 C228 1.392 . S
C230 C229 1.401 . S
C230 H247 0.930 . S
C231 O214 1.262 . S
C231 O215 1.260 . S
C232 Tb168 2.833 . S
C232 O212 1.251 . S
C232 O217 1.256 . S
C232 C225 1.500 . S
C233 H198 0.929 . S
C233 C211 1.444 . S
C233 C234 1.317 . S
C234 H196 0.930 . S
C234 C202 1.432 . S
C234 C233 1.317 . S
C235 O219 1.283 . S
C235 O222 1.243 . S
C236 C237 1.382 . S
C236 C240 1.393 . S
C236 C243 1.500 . S
C237 C236 1.382 . S
C237 C238 1.400 . S
C237 H248 0.930 . S
C238 C237 1.400 . S
C238 C239 1.384 . S
C239 C238 1.384 . S
C239 C241 1.392 . S
C239 H249 0.931 . S
C240 C236 1.393 . S
C240 C241 1.401 . S
C240 H250 0.930 . S
C241 C239 1.392 . S
C241 C240 1.401 . S
C241 H251 0.930 . S
C242 O220 1.262 . S
C242 O221 1.260 . S
C243 Tb179 2.833 . S
C243 O218 1.251 . S
C243 O223 1.256 . S
C243 C236 1.500 . S
H244 C227 0.930 . S
H245 C228 0.931 . S
H246 C229 0.930 . S
H247 C230 0.930 . S
H248 C237 0.930 . S
H249 C239 0.931 . S
H250 C240 0.930 . S
H251 C241 0.930 . S
Tb252 N283 2.660 . S
Tb252 N290 2.600 . S
Tb252 O296 2.546 . S
Tb252 O297 2.610 1_565 S
Tb252 O299 2.320 1_565 S
Tb252 O300 2.552 1_565 S
Tb252 O301 2.413 . S
Tb252 O303 2.362 . S
Tb252 O304 2.421 . S
Tb252 C316 2.833 . S
C253 C256 1.432 . S
C253 C257 1.414 . S
C253 N260 1.359 . S
C254 C256 1.417 . S
C254 C258 1.432 . S
C254 C266 1.410 . S
C255 C257 1.444 . S
C255 C258 1.317 . S
C255 H278 0.929 . S
C256 C253 1.432 . S
C256 C254 1.417 . S
C256 N264 1.360 . S
C257 C253 1.414 . S
C257 C255 1.444 . S
C257 C262 1.385 . S
C258 C254 1.432 . S
C258 C255 1.317 . S
C258 H270 0.930 . S
C259 C261 1.392 . S
C259 C262 1.370 . S
C259 H271 0.931 . S
N260 C253 1.359 . S
N260 C261 1.327 . S
N260 Tb263 2.600 . S
C261 C259 1.392 . S
C261 N260 1.327 . S
C261 H268 0.930 . S
C262 C257 1.385 . S
C262 C259 1.370 . S
C262 H281 0.930 . S
Tb263 N260 2.600 . S
Tb263 N264 2.660 . S
Tb263 O297 2.362 . S
Tb263 O298 2.421 . S
Tb263 O302 2.546 . S
Tb263 O303 2.610 1_545 S
Tb263 O305 2.320 1_545 S
Tb263 O306 2.552 1_545 S
Tb263 O307 2.413 . S
Tb263 C327 2.833 . S
N264 C256 1.360 . S
N264 Tb263 2.660 . S
N264 C265 1.305 . S
C265 N264 1.305 . S
C265 C267 1.407 . S
C265 H272 0.930 . S
C266 C254 1.410 . S
C266 C267 1.345 . S
C266 H274 0.930 . S
C267 C265 1.407 . S
C267 C266 1.345 . S
C267 H269 0.930 . S
H268 C261 0.930 . S
H269 C267 0.930 . S
H270 C258 0.930 . S
H271 C259 0.931 . S
H272 C265 0.930 . S
H273 C287 0.930 . S
H274 C266 0.930 . S
H275 C293 0.930 . S
H276 C284 0.930 . S
H277 C291 0.931 . S
H278 C255 0.929 . S
H279 C285 0.930 . S
H280 C318 0.930 . S
H281 C262 0.930 . S
H282 C317 0.929 . S
N283 Tb252 2.660 . S
N283 C284 1.305 . S
N283 C288 1.360 . S
C284 H276 0.930 . S
C284 N283 1.305 . S
C284 C287 1.407 . S
C285 H279 0.930 . S
C285 C286 1.410 . S
C285 C287 1.345 . S
C286 C285 1.410 . S
C286 C288 1.417 . S
C286 C318 1.432 . S
C287 H273 0.930 . S
C287 C284 1.407 . S
C287 C285 1.345 . S
C288 N283 1.360 . S
C288 C286 1.417 . S
C288 C292 1.432 . S
H289 C294 0.930 . S
N290 Tb252 2.600 . S
N290 C292 1.359 . S
N290 C293 1.327 . S
C291 H277 0.931 . S
C291 C293 1.392 . S
C291 C294 1.370 . S
C292 C288 1.432 . S
C292 N290 1.359 . S
C292 C295 1.414 . S
C293 H275 0.930 . S
C293 N290 1.327 . S
C293 C291 1.392 . S
C294 H289 0.930 . S
C294 C291 1.370 . S
C294 C295 1.385 . S
C295 C292 1.414 . S
C295 C294 1.385 . S
C295 C317 1.444 . S
O296 Tb252 2.546 . S
O296 C316 1.251 . S
O297 Tb252 2.610 1_545 S
O297 Tb263 2.362 . S
O297 C308 1.283 . S
O298 Tb263 2.421 . S
O298 C315 1.262 . S
O299 Tb252 2.320 1_545 S
O299 C315 1.260 . S
O300 Tb252 2.552 1_545 S
O300 C308 1.243 . S
O301 Tb252 2.413 . S
O301 C316 1.256 . S
O302 Tb263 2.546 . S
O302 C327 1.251 . S
O303 Tb252 2.362 . S
O303 Tb263 2.610 1_565 S
O303 C319 1.283 . S
O304 Tb252 2.421 . S
O304 C326 1.262 . S
O305 Tb263 2.320 1_565 S
O305 C326 1.260 . S
O306 Tb263 2.552 1_565 S
O306 C319 1.243 . S
O307 Tb263 2.413 . S
O307 C327 1.256 . S
C308 O297 1.283 . S
C308 O300 1.243 . S
C309 C311 1.382 1_565 S
C309 C313 1.393 . S
C309 C316 1.500 . S
C310 C311 1.400 . S
C310 C312 1.384 1_545 S
C311 C309 1.382 1_545 S
C311 C310 1.400 . S
C311 H328 0.930 . S
C312 C310 1.384 1_565 S
C312 C314 1.392 . S
C312 H329 0.931 . S
C313 C309 1.393 . S
C313 C314 1.401 . S
C313 H330 0.930 . S
C314 C312 1.392 . S
C314 C313 1.401 . S
C314 H331 0.930 . S
C315 O298 1.262 . S
C315 O299 1.260 . S
C316 Tb252 2.833 . S
C316 O296 1.251 . S
C316 O301 1.256 . S
C316 C309 1.500 . S
C317 H282 0.929 . S
C317 C295 1.444 . S
C317 C318 1.317 . S
C318 H280 0.930 . S
C318 C286 1.432 . S
C318 C317 1.317 . S
C319 O303 1.283 . S
C319 O306 1.243 . S
C320 C321 1.382 1_545 S
C320 C324 1.393 . S
C320 C327 1.500 . S
C321 C320 1.382 1_565 S
C321 C322 1.400 . S
C321 H332 0.930 . S
C322 C321 1.400 . S
C322 C323 1.384 1_565 S
C323 C322 1.384 1_545 S
C323 C325 1.392 . S
C323 H333 0.931 . S
C324 C320 1.393 . S
C324 C325 1.401 . S
C324 H334 0.930 . S
C325 C323 1.392 . S
C325 C324 1.401 . S
C325 H335 0.930 . S
C326 O304 1.262 . S
C326 O305 1.260 . S
C327 Tb263 2.833 . S
C327 O302 1.251 . S
C327 O307 1.256 . S
C327 C320 1.500 . S
H328 C311 0.930 . S
H329 C312 0.931 . S
H330 C313 0.930 . S
H331 C314 0.930 . S
H332 C321 0.930 . S
H333 C323 0.931 . S
H334 C324 0.930 . S
H335 C325 0.930 . S
Tb336 N367 2.660 . S
Tb336 N374 2.600 . S
Tb336 O380 2.546 . S
Tb336 O381 2.610 . S
Tb336 O383 2.320 . S
Tb336 O384 2.552 . S
Tb336 O385 2.413 . S
Tb336 O387 2.362 . S
Tb336 O388 2.421 . S
Tb336 C400 2.833 . S
C337 C340 1.432 . S
C337 C341 1.414 . S
C337 N344 1.359 . S
C338 C340 1.417 . S
C338 C342 1.432 . S
C338 C350 1.410 . S
C339 C341 1.444 . S
C339 C342 1.317 . S
C339 H362 0.929 . S
C340 C337 1.432 . S
C340 C338 1.417 . S
C340 N348 1.360 . S
C341 C337 1.414 . S
C341 C339 1.444 . S
C341 C346 1.385 . S
C342 C338 1.432 . S
C342 C339 1.317 . S
C342 H354 0.930 . S
C343 C345 1.392 . S
C343 C346 1.370 . S
C343 H355 0.931 . S
N344 C337 1.359 . S
N344 C345 1.327 . S
N344 Tb347 2.600 . S
C345 C343 1.392 . S
C345 N344 1.327 . S
C345 H352 0.930 . S
C346 C341 1.385 . S
C346 C343 1.370 . S
C346 H365 0.930 . S
Tb347 N344 2.600 . S
Tb347 N348 2.660 . S
Tb347 O381 2.362 . S
Tb347 O382 2.421 . S
Tb347 O386 2.546 . S
Tb347 O387 2.610 . S
Tb347 O389 2.320 . S
Tb347 O390 2.552 . S
Tb347 O391 2.413 . S
Tb347 C411 2.833 . S
N348 C340 1.360 . S
N348 Tb347 2.660 . S
N348 C349 1.305 . S
C349 N348 1.305 . S
C349 C351 1.407 . S
C349 H356 0.930 . S
C350 C338 1.410 . S
C350 C351 1.345 . S
C350 H358 0.930 . S
C351 C349 1.407 . S
C351 C350 1.345 . S
C351 H353 0.930 . S
H352 C345 0.930 . S
H353 C351 0.930 . S
H354 C342 0.930 . S
H355 C343 0.931 . S
H356 C349 0.930 . S
H357 C371 0.930 . S
H358 C350 0.930 . S
H359 C377 0.930 . S
H360 C368 0.930 . S
H361 C375 0.931 . S
H362 C339 0.929 . S
H363 C369 0.930 . S
H364 C402 0.930 . S
H365 C346 0.930 . S
H366 C401 0.929 . S
N367 Tb336 2.660 . S
N367 C368 1.305 . S
N367 C372 1.360 . S
C368 H360 0.930 . S
C368 N367 1.305 . S
C368 C371 1.407 . S
C369 H363 0.930 . S
C369 C370 1.410 . S
C369 C371 1.345 . S
C370 C369 1.410 . S
C370 C372 1.417 . S
C370 C402 1.432 . S
C371 H357 0.930 . S
C371 C368 1.407 . S
C371 C369 1.345 . S
C372 N367 1.360 . S
C372 C370 1.417 . S
C372 C376 1.432 . S
H373 C378 0.930 . S
N374 Tb336 2.600 . S
N374 C376 1.359 . S
N374 C377 1.327 . S
C375 H361 0.931 . S
C375 C377 1.392 . S
C375 C378 1.370 . S
C376 C372 1.432 . S
C376 N374 1.359 . S
C376 C379 1.414 . S
C377 H359 0.930 . S
C377 N374 1.327 . S
C377 C375 1.392 . S
C378 H373 0.930 . S
C378 C375 1.370 . S
C378 C379 1.385 . S
C379 C376 1.414 . S
C379 C378 1.385 . S
C379 C401 1.444 . S
O380 Tb336 2.546 . S
O380 C400 1.251 . S
O381 Tb336 2.610 . S
O381 Tb347 2.362 . S
O381 C392 1.283 . S
O382 Tb347 2.421 . S
O382 C399 1.262 . S
O383 Tb336 2.320 . S
O383 C399 1.260 . S
O384 Tb336 2.552 . S
O384 C392 1.243 . S
O385 Tb336 2.413 . S
O385 C400 1.256 . S
O386 Tb347 2.546 . S
O386 C411 1.251 . S
O387 Tb336 2.362 . S
O387 Tb347 2.610 . S
O387 C403 1.283 . S
O388 Tb336 2.421 . S
O388 C410 1.262 . S
O389 Tb347 2.320 . S
O389 C410 1.260 . S
O390 Tb347 2.552 . S
O390 C403 1.243 . S
O391 Tb347 2.413 . S
O391 C411 1.256 . S
C392 O381 1.283 . S
C392 O384 1.243 . S
C393 C395 1.382 . S
C393 C397 1.393 . S
C393 C400 1.500 . S
C394 C395 1.400 . S
C394 C396 1.384 . S
C395 C393 1.382 . S
C395 C394 1.400 . S
C395 H412 0.930 . S
C396 C394 1.384 . S
C396 C398 1.392 . S
C396 H413 0.931 . S
C397 C393 1.393 . S
C397 C398 1.401 . S
C397 H414 0.930 . S
C398 C396 1.392 . S
C398 C397 1.401 . S
C398 H415 0.930 . S
C399 O382 1.262 . S
C399 O383 1.260 . S
C400 Tb336 2.833 . S
C400 O380 1.251 . S
C400 O385 1.256 . S
C400 C393 1.500 . S
C401 H366 0.929 . S
C401 C379 1.444 . S
C401 C402 1.317 . S
C402 H364 0.930 . S
C402 C370 1.432 . S
C402 C401 1.317 . S
C403 O387 1.283 . S
C403 O390 1.243 . S
C404 C405 1.382 . S
C404 C408 1.393 . S
C404 C411 1.500 . S
C405 C404 1.382 . S
C405 C406 1.400 . S
C405 H416 0.930 . S
C406 C405 1.400 . S
C406 C407 1.384 . S
C407 C406 1.384 . S
C407 C409 1.392 . S
C407 H417 0.931 . S
C408 C404 1.393 . S
C408 C409 1.401 . S
C408 H418 0.930 . S
C409 C407 1.392 . S
C409 C408 1.401 . S
C409 H419 0.930 . S
C410 O388 1.262 . S
C410 O389 1.260 . S
C411 Tb347 2.833 . S
C411 O386 1.251 . S
C411 O391 1.256 . S
C411 C404 1.500 . S
H412 C395 0.930 . S
H413 C396 0.931 . S
H414 C397 0.930 . S
H415 C398 0.930 . S
H416 C405 0.930 . S
H417 C407 0.931 . S
H418 C408 0.930 . S
H419 C409 0.930 . S
Tb420 N451 2.660 . S
Tb420 N458 2.600 . S
Tb420 O464 2.546 . S
Tb420 O465 2.610 . S
Tb420 O467 2.320 . S
Tb420 O468 2.552 . S
Tb420 O469 2.413 . S
Tb420 O471 2.362 . S
Tb420 O472 2.421 . S
Tb420 C484 2.833 . S
C421 C424 1.432 . S
C421 C425 1.414 . S
C421 N428 1.359 . S
C422 C424 1.417 . S
C422 C426 1.432 . S
C422 C434 1.410 . S
C423 C425 1.444 . S
C423 C426 1.317 . S
C423 H446 0.929 . S
C424 C421 1.432 . S
C424 C422 1.417 . S
C424 N432 1.360 . S
C425 C421 1.414 . S
C425 C423 1.444 . S
C425 C430 1.385 . S
C426 C422 1.432 . S
C426 C423 1.317 . S
C426 H438 0.930 . S
C427 C429 1.392 . S
C427 C430 1.370 . S
C427 H439 0.931 . S
N428 C421 1.359 . S
N428 C429 1.327 . S
N428 Tb431 2.600 . S
C429 C427 1.392 . S
C429 N428 1.327 . S
C429 H436 0.930 . S
C430 C425 1.385 . S
C430 C427 1.370 . S
C430 H449 0.930 . S
Tb431 N428 2.600 . S
Tb431 N432 2.660 . S
Tb431 O465 2.362 . S
Tb431 O466 2.421 . S
Tb431 O470 2.546 . S
Tb431 O471 2.610 . S
Tb431 O473 2.320 . S
Tb431 O474 2.552 . S
Tb431 O475 2.413 . S
Tb431 C495 2.833 . S
N432 C424 1.360 . S
N432 Tb431 2.660 . S
N432 C433 1.305 . S
C433 N432 1.305 . S
C433 C435 1.407 . S
C433 H440 0.930 . S
C434 C422 1.410 . S
C434 C435 1.345 . S
C434 H442 0.930 . S
C435 C433 1.407 . S
C435 C434 1.345 . S
C435 H437 0.930 . S
H436 C429 0.930 . S
H437 C435 0.930 . S
H438 C426 0.930 . S
H439 C427 0.931 . S
H440 C433 0.930 . S
H441 C455 0.930 . S
H442 C434 0.930 . S
H443 C461 0.930 . S
H444 C452 0.930 . S
H445 C459 0.931 . S
H446 C423 0.929 . S
H447 C453 0.930 . S
H448 C486 0.930 . S
H449 C430 0.930 . S
H450 C485 0.929 . S
N451 Tb420 2.660 . S
N451 C452 1.305 . S
N451 C456 1.360 . S
C452 H444 0.930 . S
C452 N451 1.305 . S
C452 C455 1.407 . S
C453 H447 0.930 . S
C453 C454 1.410 . S
C453 C455 1.345 . S
C454 C453 1.410 . S
C454 C456 1.417 . S
C454 C486 1.432 . S
C455 H441 0.930 . S
C455 C452 1.407 . S
C455 C453 1.345 . S
C456 N451 1.360 . S
C456 C454 1.417 . S
C456 C460 1.432 . S
H457 C462 0.930 . S
N458 Tb420 2.600 . S
N458 C460 1.359 . S
N458 C461 1.327 . S
C459 H445 0.931 . S
C459 C461 1.392 . S
C459 C462 1.370 . S
C460 C456 1.432 . S
C460 N458 1.359 . S
C460 C463 1.414 . S
C461 H443 0.930 . S
C461 N458 1.327 . S
C461 C459 1.392 . S
C462 H457 0.930 . S
C462 C459 1.370 . S
C462 C463 1.385 . S
C463 C460 1.414 . S
C463 C462 1.385 . S
C463 C485 1.444 . S
O464 Tb420 2.546 . S
O464 C484 1.251 . S
O465 Tb420 2.610 . S
O465 Tb431 2.362 . S
O465 C476 1.283 . S
O466 Tb431 2.421 . S
O466 C483 1.262 . S
O467 Tb420 2.320 . S
O467 C483 1.260 . S
O468 Tb420 2.552 . S
O468 C476 1.243 . S
O469 Tb420 2.413 . S
O469 C484 1.256 . S
O470 Tb431 2.546 . S
O470 C495 1.251 . S
O471 Tb420 2.362 . S
O471 Tb431 2.610 . S
O471 C487 1.283 . S
O472 Tb420 2.421 . S
O472 C494 1.262 . S
O473 Tb431 2.320 . S
O473 C494 1.260 . S
O474 Tb431 2.552 . S
O474 C487 1.243 . S
O475 Tb431 2.413 . S
O475 C495 1.256 . S
C476 O465 1.283 . S
C476 O468 1.243 . S
C477 C479 1.382 . S
C477 C481 1.393 . S
C477 C484 1.500 . S
C478 C479 1.400 . S
C478 C480 1.384 . S
C479 C477 1.382 . S
C479 C478 1.400 . S
C479 H496 0.930 . S
C480 C478 1.384 . S
C480 C482 1.392 . S
C480 H497 0.931 . S
C481 C477 1.393 . S
C481 C482 1.401 . S
C481 H498 0.930 . S
C482 C480 1.392 . S
C482 C481 1.401 . S
C482 H499 0.930 . S
C483 O466 1.262 . S
C483 O467 1.260 . S
C484 Tb420 2.833 . S
C484 O464 1.251 . S
C484 O469 1.256 . S
C484 C477 1.500 . S
C485 H450 0.929 . S
C485 C463 1.444 . S
C485 C486 1.317 . S
C486 H448 0.930 . S
C486 C454 1.432 . S
C486 C485 1.317 . S
C487 O471 1.283 . S
C487 O474 1.243 . S
C488 C489 1.382 . S
C488 C492 1.393 . S
C488 C495 1.500 . S
C489 C488 1.382 . S
C489 C490 1.400 . S
C489 H500 0.930 . S
C490 C489 1.400 . S
C490 C491 1.384 . S
C491 C490 1.384 . S
C491 C493 1.392 . S
C491 H501 0.931 . S
C492 C488 1.393 . S
C492 C493 1.401 . S
C492 H502 0.930 . S
C493 C491 1.392 . S
C493 C492 1.401 . S
C493 H503 0.930 . S
C494 O472 1.262 . S
C494 O473 1.260 . S
C495 Tb431 2.833 . S
C495 O470 1.251 . S
C495 O475 1.256 . S
C495 C488 1.500 . S
H496 C479 0.930 . S
H497 C480 0.931 . S
H498 C481 0.930 . S
H499 C482 0.930 . S
H500 C489 0.930 . S
H501 C491 0.931 . S
H502 C492 0.930 . S
H503 C493 0.930 . S
Tb504 N535 2.660 . S
Tb504 N542 2.600 . S
Tb504 O548 2.546 . S
Tb504 O549 2.610 . S
Tb504 O551 2.320 . S
Tb504 O552 2.552 . S
Tb504 O553 2.413 . S
Tb504 O555 2.362 . S
Tb504 O556 2.421 . S
Tb504 C568 2.833 . S
C505 C508 1.432 . S
C505 C509 1.414 . S
C505 N512 1.359 . S
C506 C508 1.417 . S
C506 C510 1.432 . S
C506 C518 1.410 . S
C507 C509 1.444 . S
C507 C510 1.317 . S
C507 H530 0.929 . S
C508 C505 1.432 . S
C508 C506 1.417 . S
C508 N516 1.360 . S
C509 C505 1.414 . S
C509 C507 1.444 . S
C509 C514 1.385 . S
C510 C506 1.432 . S
C510 C507 1.317 . S
C510 H522 0.930 . S
C511 C513 1.392 . S
C511 C514 1.370 . S
C511 H523 0.931 . S
N512 C505 1.359 . S
N512 C513 1.327 . S
N512 Tb515 2.600 . S
C513 C511 1.392 . S
C513 N512 1.327 . S
C513 H520 0.930 . S
C514 C509 1.385 . S
C514 C511 1.370 . S
C514 H533 0.930 . S
Tb515 N512 2.600 . S
Tb515 N516 2.660 . S
Tb515 O549 2.362 . S
Tb515 O550 2.421 . S
Tb515 O554 2.546 . S
Tb515 O555 2.610 . S
Tb515 O557 2.320 . S
Tb515 O558 2.552 . S
Tb515 O559 2.413 . S
Tb515 C579 2.833 . S
N516 C508 1.360 . S
N516 Tb515 2.660 . S
N516 C517 1.305 . S
C517 N516 1.305 . S
C517 C519 1.407 . S
C517 H524 0.930 . S
C518 C506 1.410 . S
C518 C519 1.345 . S
C518 H526 0.930 . S
C519 C517 1.407 . S
C519 C518 1.345 . S
C519 H521 0.930 . S
H520 C513 0.930 . S
H521 C519 0.930 . S
H522 C510 0.930 . S
H523 C511 0.931 . S
H524 C517 0.930 . S
H525 C539 0.930 . S
H526 C518 0.930 . S
H527 C545 0.930 . S
H528 C536 0.930 . S
H529 C543 0.931 . S
H530 C507 0.929 . S
H531 C537 0.930 . S
H532 C570 0.930 . S
H533 C514 0.930 . S
H534 C569 0.929 . S
N535 Tb504 2.660 . S
N535 C536 1.305 . S
N535 C540 1.360 . S
C536 H528 0.930 . S
C536 N535 1.305 . S
C536 C539 1.407 . S
C537 H531 0.930 . S
C537 C538 1.410 . S
C537 C539 1.345 . S
C538 C537 1.410 . S
C538 C540 1.417 . S
C538 C570 1.432 . S
C539 H525 0.930 . S
C539 C536 1.407 . S
C539 C537 1.345 . S
C540 N535 1.360 . S
C540 C538 1.417 . S
C540 C544 1.432 . S
H541 C546 0.930 . S
N542 Tb504 2.600 . S
N542 C544 1.359 . S
N542 C545 1.327 . S
C543 H529 0.931 . S
C543 C545 1.392 . S
C543 C546 1.370 . S
C544 C540 1.432 . S
C544 N542 1.359 . S
C544 C547 1.414 . S
C545 H527 0.930 . S
C545 N542 1.327 . S
C545 C543 1.392 . S
C546 H541 0.930 . S
C546 C543 1.370 . S
C546 C547 1.385 . S
C547 C544 1.414 . S
C547 C546 1.385 . S
C547 C569 1.444 . S
O548 Tb504 2.546 . S
O548 C568 1.251 . S
O549 Tb504 2.610 . S
O549 Tb515 2.362 . S
O549 C560 1.283 . S
O550 Tb515 2.421 . S
O550 C567 1.262 . S
O551 Tb504 2.320 . S
O551 C567 1.260 . S
O552 Tb504 2.552 . S
O552 C560 1.243 . S
O553 Tb504 2.413 . S
O553 C568 1.256 . S
O554 Tb515 2.546 . S
O554 C579 1.251 . S
O555 Tb504 2.362 . S
O555 Tb515 2.610 . S
O555 C571 1.283 . S
O556 Tb504 2.421 . S
O556 C578 1.262 . S
O557 Tb515 2.320 . S
O557 C578 1.260 . S
O558 Tb515 2.552 . S
O558 C571 1.243 . S
O559 Tb515 2.413 . S
O559 C579 1.256 . S
C560 O549 1.283 . S
C560 O552 1.243 . S
C561 C563 1.382 . S
C561 C565 1.393 . S
C561 C568 1.500 . S
C562 C563 1.400 . S
C562 C564 1.384 . S
C563 C561 1.382 . S
C563 C562 1.400 . S
C563 H580 0.930 . S
C564 C562 1.384 . S
C564 C566 1.392 . S
C564 H581 0.931 . S
C565 C561 1.393 . S
C565 C566 1.401 . S
C565 H582 0.930 . S
C566 C564 1.392 . S
C566 C565 1.401 . S
C566 H583 0.930 . S
C567 O550 1.262 . S
C567 O551 1.260 . S
C568 Tb504 2.833 . S
C568 O548 1.251 . S
C568 O553 1.256 . S
C568 C561 1.500 . S
C569 H534 0.929 . S
C569 C547 1.444 . S
C569 C570 1.317 . S
C570 H532 0.930 . S
C570 C538 1.432 . S
C570 C569 1.317 . S
C571 O555 1.283 . S
C571 O558 1.243 . S
C572 C573 1.382 . S
C572 C576 1.393 . S
C572 C579 1.500 . S
C573 C572 1.382 . S
C573 C574 1.400 . S
C573 H584 0.930 . S
C574 C573 1.400 . S
C574 C575 1.384 . S
C575 C574 1.384 . S
C575 C577 1.392 . S
C575 H585 0.931 . S
C576 C572 1.393 . S
C576 C577 1.401 . S
C576 H586 0.930 . S
C577 C575 1.392 . S
C577 C576 1.401 . S
C577 H587 0.930 . S
C578 O556 1.262 . S
C578 O557 1.260 . S
C579 Tb515 2.833 . S
C579 O554 1.251 . S
C579 O559 1.256 . S
C579 C572 1.500 . S
H580 C563 0.930 . S
H581 C564 0.931 . S
H582 C565 0.930 . S
H583 C566 0.930 . S
H584 C573 0.930 . S
H585 C575 0.931 . S
H586 C576 0.930 . S
H587 C577 0.930 . S
Tb588 N619 2.660 . S
Tb588 N626 2.600 . S
Tb588 O632 2.546 . S
Tb588 O633 2.610 1_655 S
Tb588 O635 2.320 . S
Tb588 O636 2.552 . S
Tb588 O637 2.413 . S
Tb588 O639 2.362 . S
Tb588 O640 2.421 1_655 S
Tb588 C652 2.833 . S
C589 C592 1.432 . S
C589 C593 1.414 . S
C589 N596 1.359 . S
C590 C592 1.417 . S
C590 C594 1.432 . S
C590 C602 1.410 . S
C591 C593 1.444 . S
C591 C594 1.317 . S
C591 H614 0.929 . S
C592 C589 1.432 . S
C592 C590 1.417 . S
C592 N600 1.360 . S
C593 C589 1.414 . S
C593 C591 1.444 . S
C593 C598 1.385 . S
C594 C590 1.432 . S
C594 C591 1.317 . S
C594 H606 0.930 . S
C595 C597 1.392 . S
C595 C598 1.370 . S
C595 H607 0.937 . S
N596 C589 1.359 . S
N596 C597 1.327 . S
N596 Tb599 2.600 . S
C597 C595 1.392 . S
C597 N596 1.327 . S
C597 H604 0.930 1_455 S
C598 C593 1.385 . S
C598 C595 1.370 . S
C598 H617 0.930 . S
Tb599 N596 2.600 . S
Tb599 N600 2.660 . S
Tb599 O633 2.362 . S
Tb599 O634 2.421 1_455 S
Tb599 O638 2.546 . S
Tb599 O639 2.610 1_455 S
Tb599 O641 2.320 . S
Tb599 O642 2.552 . S
Tb599 O643 2.413 . S
Tb599 C663 2.833 . S
N600 C592 1.360 . S
N600 Tb599 2.660 . S
N600 C601 1.305 . S
C601 N600 1.305 . S
C601 C603 1.407 . S
C601 H608 0.930 . S
C602 C590 1.410 . S
C602 C603 1.345 . S
C602 H610 0.930 . S
C603 C601 1.407 . S
C603 C602 1.345 . S
C603 H605 0.930 . S
H604 C597 0.930 1_655 S
H605 C603 0.930 . S
H606 C594 0.930 . S
H607 C595 0.937 . S
H608 C601 0.930 . S
H609 C623 0.930 . S
H610 C602 0.930 . S
H611 C629 0.930 1_455 S
H612 C620 0.930 . S
H613 C627 0.928 1_455 S
H614 C591 0.929 . S
H615 C621 0.930 . S
H616 C654 0.930 . S
H617 C598 0.930 . S
H618 C653 0.929 . S
N619 Tb588 2.660 . S
N619 C620 1.305 . S
N619 C624 1.360 . S
C620 H612 0.930 . S
C620 N619 1.305 . S
C620 C623 1.407 . S
C621 H615 0.930 . S
C621 C622 1.410 . S
C621 C623 1.345 . S
C622 C621 1.410 . S
C622 C624 1.417 . S
C622 C654 1.432 . S
C623 H609 0.930 . S
C623 C620 1.407 . S
C623 C621 1.345 . S
C624 N619 1.360 . S
C624 C622 1.417 . S
C624 C628 1.432 . S
H625 C630 0.930 . S
N626 Tb588 2.600 . S
N626 C628 1.359 . S
N626 C629 1.327 . S
C627 H613 0.928 1_655 S
C627 C629 1.392 . S
C627 C630 1.370 . S
C628 C624 1.432 . S
C628 N626 1.359 . S
C628 C631 1.414 . S
C629 H611 0.930 1_655 S
C629 N626 1.327 . S
C629 C627 1.392 . S
C630 H625 0.930 . S
C630 C627 1.370 . S
C630 C631 1.385 . S
C631 C628 1.414 . S
C631 C630 1.385 . S
C631 C653 1.444 . S
O632 Tb588 2.546 . S
O632 C652 1.251 . S
O633 Tb588 2.610 1_455 S
O633 Tb599 2.362 . S
O633 C644 1.283 . S
O634 Tb599 2.421 1_655 S
O634 C651 1.262 . S
O635 Tb588 2.320 . S
O635 C651 1.260 . S
O636 Tb588 2.552 . S
O636 C644 1.243 1_655 S
O637 Tb588 2.413 . S
O637 C652 1.256 . S
O638 Tb599 2.546 . S
O638 C663 1.251 . S
O639 Tb588 2.362 . S
O639 Tb599 2.610 1_655 S
O639 C655 1.283 . S
O640 Tb588 2.421 1_455 S
O640 C662 1.262 . S
O641 Tb599 2.320 . S
O641 C662 1.260 . S
O642 Tb599 2.552 . S
O642 C655 1.243 1_455 S
O643 Tb599 2.413 . S
O643 C663 1.256 . S
C644 O633 1.283 . S
C644 O636 1.243 1_455 S
C645 C647 1.382 . S
C645 C649 1.393 . S
C645 C652 1.500 . S
C646 C647 1.400 . S
C646 C648 1.384 . S
C647 C645 1.382 . S
C647 C646 1.400 . S
C647 H664 0.930 . S
C648 C646 1.384 . S
C648 C650 1.392 . S
C648 H665 0.931 . S
C649 C645 1.393 . S
C649 C650 1.401 . S
C649 H666 0.930 . S
C650 C648 1.392 . S
C650 C649 1.401 . S
C650 H667 0.930 . S
C651 O634 1.262 . S
C651 O635 1.260 . S
C652 Tb588 2.833 . S
C652 O632 1.251 . S
C652 O637 1.256 . S
C652 C645 1.500 . S
C653 H618 0.929 . S
C653 C631 1.444 . S
C653 C654 1.317 . S
C654 H616 0.930 . S
C654 C622 1.432 . S
C654 C653 1.317 . S
C655 O639 1.283 . S
C655 O642 1.243 1_655 S
C656 C657 1.382 . S
C656 C660 1.393 . S
C656 C663 1.500 . S
C657 C656 1.382 . S
C657 C658 1.400 . S
C657 H668 0.930 . S
C658 C657 1.400 . S
C658 C659 1.384 . S
C659 C658 1.384 . S
C659 C661 1.392 . S
C659 H669 0.931 . S
C660 C656 1.393 . S
C660 C661 1.401 . S
C660 H670 0.930 . S
C661 C659 1.392 . S
C661 C660 1.401 . S
C661 H671 0.930 . S
C662 O640 1.262 . S
C662 O641 1.260 . S
C663 Tb599 2.833 . S
C663 O638 1.251 . S
C663 O643 1.256 . S
C663 C656 1.500 . S
H664 C647 0.930 . S
H665 C648 0.931 . S
H666 C649 0.930 . S
H667 C650 0.930 . S
H668 C657 0.930 . S
H669 C659 0.931 . S
H670 C660 0.930 . S
H671 C661 0.930 . S
Tb672 N703 2.660 . S
Tb672 N710 2.600 . S
Tb672 O716 2.546 . S
Tb672 O717 2.610 1_556 S
Tb672 O719 2.320 1_556 S
Tb672 O720 2.552 1_556 S
Tb672 O721 2.413 . S
Tb672 O723 2.362 . S
Tb672 O724 2.421 . S
Tb672 C736 2.833 . S
C673 C676 1.432 . S
C673 C677 1.414 . S
C673 N680 1.359 . S
C674 C676 1.417 . S
C674 C678 1.432 . S
C674 C686 1.410 . S
C675 C677 1.444 . S
C675 C678 1.317 . S
C675 H698 0.929 . S
C676 C673 1.432 . S
C676 C674 1.417 . S
C676 N684 1.360 . S
C677 C673 1.414 . S
C677 C675 1.444 . S
C677 C682 1.385 . S
C678 C674 1.432 . S
C678 C675 1.317 . S
C678 H690 0.930 . S
C679 C681 1.392 . S
C679 C682 1.370 . S
C679 H691 0.931 . S
N680 C673 1.359 . S
N680 C681 1.327 . S
N680 Tb683 2.600 . S
C681 C679 1.392 . S
C681 N680 1.327 . S
C681 H688 0.930 . S
C682 C677 1.385 . S
C682 C679 1.370 . S
C682 H701 0.930 . S
Tb683 N680 2.600 . S
Tb683 N684 2.660 . S
Tb683 O717 2.362 . S
Tb683 O718 2.421 . S
Tb683 O722 2.546 . S
Tb683 O723 2.610 1_554 S
Tb683 O725 2.320 1_554 S
Tb683 O726 2.552 1_554 S
Tb683 O727 2.413 . S
Tb683 C747 2.833 . S
N684 C676 1.360 . S
N684 Tb683 2.660 . S
N684 C685 1.305 . S
C685 N684 1.305 . S
C685 C687 1.407 . S
C685 H692 0.930 . S
C686 C674 1.410 . S
C686 C687 1.345 . S
C686 H694 0.930 . S
C687 C685 1.407 . S
C687 C686 1.345 . S
C687 H689 0.930 . S
H688 C681 0.930 . S
H689 C687 0.930 . S
H690 C678 0.930 . S
H691 C679 0.931 . S
H692 C685 0.930 . S
H693 C707 0.930 . S
H694 C686 0.930 . S
H695 C713 0.930 . S
H696 C704 0.930 . S
H697 C711 0.931 . S
H698 C675 0.929 . S
H699 C705 0.930 . S
H700 C738 0.930 . S
H701 C682 0.930 . S
H702 C737 0.929 . S
N703 Tb672 2.660 . S
N703 C704 1.305 . S
N703 C708 1.360 . S
C704 H696 0.930 . S
C704 N703 1.305 . S
C704 C707 1.407 . S
C705 H699 0.930 . S
C705 C706 1.410 . S
C705 C707 1.345 . S
C706 C705 1.410 . S
C706 C708 1.417 . S
C706 C738 1.432 . S
C707 H693 0.930 . S
C707 C704 1.407 . S
C707 C705 1.345 . S
C708 N703 1.360 . S
C708 C706 1.417 . S
C708 C712 1.432 . S
H709 C714 0.930 . S
N710 Tb672 2.600 . S
N710 C712 1.359 . S
N710 C713 1.327 . S
C711 H697 0.931 . S
C711 C713 1.392 . S
C711 C714 1.370 . S
C712 C708 1.432 . S
C712 N710 1.359 . S
C712 C715 1.414 . S
C713 H695 0.930 . S
C713 N710 1.327 . S
C713 C711 1.392 . S
C714 H709 0.930 . S
C714 C711 1.370 . S
C714 C715 1.385 . S
C715 C712 1.414 . S
C715 C714 1.385 . S
C715 C737 1.444 . S
O716 Tb672 2.546 . S
O716 C736 1.251 . S
O717 Tb672 2.610 1_554 S
O717 Tb683 2.362 . S
O717 C728 1.283 . S
O718 Tb683 2.421 . S
O718 C735 1.262 . S
O719 Tb672 2.320 1_554 S
O719 C735 1.260 . S
O720 Tb672 2.552 1_554 S
O720 C728 1.243 . S
O721 Tb672 2.413 . S
O721 C736 1.256 . S
O722 Tb683 2.546 . S
O722 C747 1.251 . S
O723 Tb672 2.362 . S
O723 Tb683 2.610 1_556 S
O723 C739 1.283 . S
O724 Tb672 2.421 . S
O724 C746 1.262 . S
O725 Tb683 2.320 1_556 S
O725 C746 1.260 . S
O726 Tb683 2.552 1_556 S
O726 C739 1.243 . S
O727 Tb683 2.413 . S
O727 C747 1.256 . S
C728 O717 1.283 . S
C728 O720 1.243 . S
C729 C731 1.382 . S
C729 C733 1.393 . S
C729 C736 1.500 . S
C730 C731 1.400 . S
C730 C732 1.384 . S
C731 C729 1.382 . S
C731 C730 1.400 . S
C731 H748 0.930 1_556 S
C732 C730 1.384 . S
C732 C734 1.392 . S
C732 H749 0.931 . S
C733 C729 1.393 . S
C733 C734 1.401 . S
C733 H750 0.930 . S
C734 C732 1.392 . S
C734 C733 1.401 . S
C734 H751 0.930 . S
C735 O718 1.262 . S
C735 O719 1.260 . S
C736 Tb672 2.833 . S
C736 O716 1.251 . S
C736 O721 1.256 . S
C736 C729 1.500 . S
C737 H702 0.929 . S
C737 C715 1.444 . S
C737 C738 1.317 . S
C738 H700 0.930 . S
C738 C706 1.432 . S
C738 C737 1.317 . S
C739 O723 1.283 . S
C739 O726 1.243 . S
C740 C741 1.382 . S
C740 C744 1.393 . S
C740 C747 1.500 . S
C741 C740 1.382 . S
C741 C742 1.400 . S
C741 H752 0.942 . S
C742 C741 1.400 . S
C742 C743 1.384 . S
C743 C742 1.384 . S
C743 C745 1.392 . S
C743 H753 0.931 . S
C744 C740 1.393 . S
C744 C745 1.401 . S
C744 H754 0.930 . S
C745 C743 1.392 . S
C745 C744 1.401 . S
C745 H755 0.930 . S
C746 O724 1.262 . S
C746 O725 1.260 . S
C747 Tb683 2.833 . S
C747 O722 1.251 . S
C747 O727 1.256 . S
C747 C740 1.500 . S
H748 C731 0.930 1_554 S
H749 C732 0.931 . S
H750 C733 0.930 . S
H751 C734 0.930 . S
H752 C741 0.942 . S
H753 C743 0.931 . S
H754 C744 0.930 . S
H755 C745 0.930 . S
Tb756 N787 2.660 . S
Tb756 N794 2.600 . S
Tb756 O800 2.546 . S
Tb756 O801 2.610 1_565 S
Tb756 O803 2.320 1_565 S
Tb756 O804 2.552 1_565 S
Tb756 O805 2.413 . S
Tb756 O807 2.362 . S
Tb756 O808 2.421 . S
Tb756 C820 2.833 . S
C757 C760 1.432 . S
C757 C761 1.414 . S
C757 N764 1.359 . S
C758 C760 1.417 . S
C758 C762 1.432 . S
C758 C770 1.410 . S
C759 C761 1.444 . S
C759 C762 1.317 . S
C759 H782 0.929 . S
C760 C757 1.432 . S
C760 C758 1.417 . S
C760 N768 1.360 . S
C761 C757 1.414 . S
C761 C759 1.444 . S
C761 C766 1.385 . S
C762 C758 1.432 . S
C762 C759 1.317 . S
C762 H774 0.930 . S
C763 C765 1.392 . S
C763 C766 1.370 . S
C763 H775 0.931 . S
N764 C757 1.359 . S
N764 C765 1.327 . S
N764 Tb767 2.600 . S
C765 C763 1.392 . S
C765 N764 1.327 . S
C765 H772 0.930 . S
C766 C761 1.385 . S
C766 C763 1.370 . S
C766 H785 0.930 . S
Tb767 N764 2.600 . S
Tb767 N768 2.660 . S
Tb767 O801 2.362 . S
Tb767 O802 2.421 . S
Tb767 O806 2.546 . S
Tb767 O807 2.610 1_545 S
Tb767 O809 2.320 1_545 S
Tb767 O810 2.552 1_545 S
Tb767 O811 2.413 . S
Tb767 C831 2.833 . S
N768 C760 1.360 . S
N768 Tb767 2.660 . S
N768 C769 1.305 . S
C769 N768 1.305 . S
C769 C771 1.407 . S
C769 H776 0.930 . S
C770 C758 1.410 . S
C770 C771 1.345 . S
C770 H778 0.930 . S
C771 C769 1.407 . S
C771 C770 1.345 . S
C771 H773 0.930 . S
H772 C765 0.930 . S
H773 C771 0.930 . S
H774 C762 0.930 . S
H775 C763 0.931 . S
H776 C769 0.930 . S
H777 C791 0.930 . S
H778 C770 0.930 . S
H779 C797 0.930 . S
H780 C788 0.930 . S
H781 C795 0.931 . S
H782 C759 0.929 . S
H783 C789 0.930 . S
H784 C822 0.930 . S
H785 C766 0.930 . S
H786 C821 0.929 . S
N787 Tb756 2.660 . S
N787 C788 1.305 . S
N787 C792 1.360 . S
C788 H780 0.930 . S
C788 N787 1.305 . S
C788 C791 1.407 . S
C789 H783 0.930 . S
C789 C790 1.410 . S
C789 C791 1.345 . S
C790 C789 1.410 . S
C790 C792 1.417 . S
C790 C822 1.432 . S
C791 H777 0.930 . S
C791 C788 1.407 . S
C791 C789 1.345 . S
C792 N787 1.360 . S
C792 C790 1.417 . S
C792 C796 1.432 . S
H793 C798 0.930 . S
N794 Tb756 2.600 . S
N794 C796 1.359 . S
N794 C797 1.327 . S
C795 H781 0.931 . S
C795 C797 1.392 . S
C795 C798 1.370 . S
C796 C792 1.432 . S
C796 N794 1.359 . S
C796 C799 1.414 . S
C797 H779 0.930 . S
C797 N794 1.327 . S
C797 C795 1.392 . S
C798 H793 0.930 . S
C798 C795 1.370 . S
C798 C799 1.385 . S
C799 C796 1.414 . S
C799 C798 1.385 . S
C799 C821 1.444 . S
O800 Tb756 2.546 . S
O800 C820 1.251 . S
O801 Tb756 2.610 1_545 S
O801 Tb767 2.362 . S
O801 C812 1.283 . S
O802 Tb767 2.421 . S
O802 C819 1.262 . S
O803 Tb756 2.320 1_545 S
O803 C819 1.260 . S
O804 Tb756 2.552 1_545 S
O804 C812 1.243 . S
O805 Tb756 2.413 . S
O805 C820 1.256 . S
O806 Tb767 2.546 . S
O806 C831 1.251 . S
O807 Tb756 2.362 . S
O807 Tb767 2.610 1_565 S
O807 C823 1.283 . S
O808 Tb756 2.421 . S
O808 C830 1.262 . S
O809 Tb767 2.320 1_565 S
O809 C830 1.260 . S
O810 Tb767 2.552 1_565 S
O810 C823 1.243 . S
O811 Tb767 2.413 . S
O811 C831 1.256 . S
C812 O801 1.283 . S
C812 O804 1.243 . S
C813 C815 1.382 1_565 S
C813 C817 1.393 . S
C813 C820 1.500 . S
C814 C815 1.400 . S
C814 C816 1.384 1_545 S
C815 C813 1.382 1_545 S
C815 C814 1.400 . S
C815 H832 0.930 . S
C816 C814 1.384 1_565 S
C816 C818 1.392 . S
C816 H833 0.931 . S
C817 C813 1.393 . S
C817 C818 1.401 . S
C817 H834 0.930 . S
C818 C816 1.392 . S
C818 C817 1.401 . S
C818 H835 0.930 . S
C819 O802 1.262 . S
C819 O803 1.260 . S
C820 Tb756 2.833 . S
C820 O800 1.251 . S
C820 O805 1.256 . S
C820 C813 1.500 . S
C821 H786 0.929 . S
C821 C799 1.444 . S
C821 C822 1.317 . S
C822 H784 0.930 . S
C822 C790 1.432 . S
C822 C821 1.317 . S
C823 O807 1.283 . S
C823 O810 1.243 . S
C824 C825 1.382 1_545 S
C824 C828 1.393 . S
C824 C831 1.500 . S
C825 C824 1.382 1_565 S
C825 C826 1.400 . S
C825 H836 0.930 . S
C826 C825 1.400 . S
C826 C827 1.384 1_565 S
C827 C826 1.384 1_545 S
C827 C829 1.392 . S
C827 H837 0.931 . S
C828 C824 1.393 . S
C828 C829 1.401 . S
C828 H838 0.930 . S
C829 C827 1.392 . S
C829 C828 1.401 . S
C829 H839 0.930 . S
C830 O808 1.262 . S
C830 O809 1.260 . S
C831 Tb767 2.833 . S
C831 O806 1.251 . S
C831 O811 1.256 . S
C831 C824 1.500 . S
H832 C815 0.930 . S
H833 C816 0.931 . S
H834 C817 0.930 . S
H835 C818 0.930 . S
H836 C825 0.930 . S
H837 C827 0.931 . S
H838 C828 0.930 . S
H839 C829 0.930 . S
Tb840 N871 2.660 . S
Tb840 N878 2.600 . S
Tb840 O884 2.546 . S
Tb840 O885 2.610 . S
Tb840 O887 2.320 . S
Tb840 O888 2.552 . S
Tb840 O889 2.413 . S
Tb840 O891 2.362 . S
Tb840 O892 2.421 . S
Tb840 C904 2.833 . S
C841 C844 1.432 . S
C841 C845 1.414 . S
C841 N848 1.359 . S
C842 C844 1.417 . S
C842 C846 1.432 . S
C842 C854 1.410 . S
C843 C845 1.444 . S
C843 C846 1.317 . S
C843 H866 0.929 . S
C844 C841 1.432 . S
C844 C842 1.417 . S
C844 N852 1.360 . S
C845 C841 1.414 . S
C845 C843 1.444 . S
C845 C850 1.385 . S
C846 C842 1.432 . S
C846 C843 1.317 . S
C846 H858 0.930 . S
C847 C849 1.392 . S
C847 C850 1.370 . S
C847 H859 0.931 . S
N848 C841 1.359 . S
N848 C849 1.327 . S
N848 Tb851 2.600 . S
C849 C847 1.392 . S
C849 N848 1.327 . S
C849 H856 0.930 . S
C850 C845 1.385 . S
C850 C847 1.370 . S
C850 H869 0.930 . S
Tb851 N848 2.600 . S
Tb851 N852 2.660 . S
Tb851 O885 2.362 . S
Tb851 O886 2.421 . S
Tb851 O890 2.546 . S
Tb851 O891 2.610 . S
Tb851 O893 2.320 . S
Tb851 O894 2.552 . S
Tb851 O895 2.413 . S
Tb851 C915 2.833 . S
N852 C844 1.360 . S
N852 Tb851 2.660 . S
N852 C853 1.305 . S
C853 N852 1.305 . S
C853 C855 1.407 . S
C853 H860 0.930 . S
C854 C842 1.410 . S
C854 C855 1.345 . S
C854 H862 0.930 . S
C855 C853 1.407 . S
C855 C854 1.345 . S
C855 H857 0.930 . S
H856 C849 0.930 . S
H857 C855 0.930 . S
H858 C846 0.930 . S
H859 C847 0.931 . S
H860 C853 0.930 . S
H861 C875 0.930 . S
H862 C854 0.930 . S
H863 C881 0.930 . S
H864 C872 0.930 . S
H865 C879 0.931 . S
H866 C843 0.929 . S
H867 C873 0.930 . S
H868 C906 0.930 . S
H869 C850 0.930 . S
H870 C905 0.929 . S
N871 Tb840 2.660 . S
N871 C872 1.305 . S
N871 C876 1.360 . S
C872 H864 0.930 . S
C872 N871 1.305 . S
C872 C875 1.407 . S
C873 H867 0.930 . S
C873 C874 1.410 . S
C873 C875 1.345 . S
C874 C873 1.410 . S
C874 C876 1.417 . S
C874 C906 1.432 . S
C875 H861 0.930 . S
C875 C872 1.407 . S
C875 C873 1.345 . S
C876 N871 1.360 . S
C876 C874 1.417 . S
C876 C880 1.432 . S
H877 C882 0.930 . S
N878 Tb840 2.600 . S
N878 C880 1.359 . S
N878 C881 1.327 . S
C879 H865 0.931 . S
C879 C881 1.392 . S
C879 C882 1.370 . S
C880 C876 1.432 . S
C880 N878 1.359 . S
C880 C883 1.414 . S
C881 H863 0.930 . S
C881 N878 1.327 . S
C881 C879 1.392 . S
C882 H877 0.930 . S
C882 C879 1.370 . S
C882 C883 1.385 . S
C883 C880 1.414 . S
C883 C882 1.385 . S
C883 C905 1.444 . S
O884 Tb840 2.546 . S
O884 C904 1.251 . S
O885 Tb840 2.610 . S
O885 Tb851 2.362 . S
O885 C896 1.283 . S
O886 Tb851 2.421 . S
O886 C903 1.262 . S
O887 Tb840 2.320 . S
O887 C903 1.260 . S
O888 Tb840 2.552 . S
O888 C896 1.243 . S
O889 Tb840 2.413 . S
O889 C904 1.256 . S
O890 Tb851 2.546 . S
O890 C915 1.251 . S
O891 Tb840 2.362 . S
O891 Tb851 2.610 . S
O891 C907 1.283 . S
O892 Tb840 2.421 . S
O892 C914 1.262 . S
O893 Tb851 2.320 . S
O893 C914 1.260 . S
O894 Tb851 2.552 . S
O894 C907 1.243 . S
O895 Tb851 2.413 . S
O895 C915 1.256 . S
C896 O885 1.283 . S
C896 O888 1.243 . S
C897 C899 1.382 . S
C897 C901 1.393 . S
C897 C904 1.500 . S
C898 C899 1.400 . S
C898 C900 1.384 . S
C899 C897 1.382 . S
C899 C898 1.400 . S
C899 H916 0.930 . S
C900 C898 1.384 . S
C900 C902 1.392 . S
C900 H917 0.931 . S
C901 C897 1.393 . S
C901 C902 1.401 . S
C901 H918 0.930 . S
C902 C900 1.392 . S
C902 C901 1.401 . S
C902 H919 0.930 . S
C903 O886 1.262 . S
C903 O887 1.260 . S
C904 Tb840 2.833 . S
C904 O884 1.251 . S
C904 O889 1.256 . S
C904 C897 1.500 . S
C905 H870 0.929 . S
C905 C883 1.444 . S
C905 C906 1.317 . S
C906 H868 0.930 . S
C906 C874 1.432 . S
C906 C905 1.317 . S
C907 O891 1.283 . S
C907 O894 1.243 . S
C908 C909 1.382 . S
C908 C912 1.393 . S
C908 C915 1.500 . S
C909 C908 1.382 . S
C909 C910 1.400 . S
C909 H920 0.930 . S
C910 C909 1.400 . S
C910 C911 1.384 . S
C911 C910 1.384 . S
C911 C913 1.392 . S
C911 H921 0.931 . S
C912 C908 1.393 . S
C912 C913 1.401 . S
C912 H922 0.930 . S
C913 C911 1.392 . S
C913 C912 1.401 . S
C913 H923 0.930 . S
C914 O892 1.262 . S
C914 O893 1.260 . S
C915 Tb851 2.833 . S
C915 O890 1.251 . S
C915 O895 1.256 . S
C915 C908 1.500 . S
H916 C899 0.930 . S
H917 C900 0.931 . S
H918 C901 0.930 . S
H919 C902 0.930 . S
H920 C909 0.930 . S
H921 C911 0.931 . S
H922 C912 0.930 . S
H923 C913 0.930 . S
Tb924 N955 2.660 . S
Tb924 N962 2.600 . S
Tb924 O968 2.546 . S
Tb924 O969 2.610 1_455 S
Tb924 O971 2.320 1_455 S
Tb924 O972 2.552 1_455 S
Tb924 O973 2.413 . S
Tb924 O975 2.362 . S
Tb924 O976 2.421 . S
Tb924 C988 2.833 . S
C925 C928 1.432 . S
C925 C929 1.414 . S
C925 N932 1.359 . S
C926 C928 1.417 . S
C926 C930 1.432 . S
C926 C938 1.410 . S
C927 C929 1.444 . S
C927 C930 1.317 . S
C927 H950 0.929 . S
C928 C925 1.432 . S
C928 C926 1.417 . S
C928 N936 1.360 . S
C929 C925 1.414 . S
C929 C927 1.444 . S
C929 C934 1.385 . S
C930 C926 1.432 . S
C930 C927 1.317 . S
C930 H942 0.930 . S
C931 C933 1.392 . S
C931 C934 1.370 . S
C931 H943 0.931 . S
N932 C925 1.359 . S
N932 C933 1.327 . S
N932 Tb935 2.600 . S
C933 C931 1.392 . S
C933 N932 1.327 . S
C933 H940 0.930 . S
C934 C929 1.385 . S
C934 C931 1.370 . S
C934 H953 0.930 . S
Tb935 N932 2.600 . S
Tb935 N936 2.660 . S
Tb935 O969 2.362 . S
Tb935 O970 2.421 . S
Tb935 O974 2.546 . S
Tb935 O975 2.610 1_655 S
Tb935 O977 2.320 1_655 S
Tb935 O978 2.552 1_655 S
Tb935 O979 2.413 . S
Tb935 C999 2.833 . S
N936 C928 1.360 . S
N936 Tb935 2.660 . S
N936 C937 1.305 . S
C937 N936 1.305 . S
C937 C939 1.407 . S
C937 H944 0.930 . S
C938 C926 1.410 . S
C938 C939 1.345 . S
C938 H946 0.930 . S
C939 C937 1.407 . S
C939 C938 1.345 . S
C939 H941 0.930 . S
H940 C933 0.930 . S
H941 C939 0.930 . S
H942 C930 0.930 . S
H943 C931 0.931 . S
H944 C937 0.930 . S
H945 C959 0.930 . S
H946 C938 0.930 . S
H947 C965 0.930 . S
H948 C956 0.930 . S
H949 C963 0.931 . S
H950 C927 0.929 . S
H951 C957 0.930 . S
H952 C990 0.930 . S
H953 C934 0.930 . S
H954 C989 0.929 . S
N955 Tb924 2.660 . S
N955 C956 1.305 . S
N955 C960 1.360 . S
C956 H948 0.930 . S
C956 N955 1.305 . S
C956 C959 1.407 . S
C957 H951 0.930 . S
C957 C958 1.410 . S
C957 C959 1.345 . S
C958 C957 1.410 . S
C958 C960 1.417 . S
C958 C990 1.432 . S
C959 H945 0.930 . S
C959 C956 1.407 . S
C959 C957 1.345 . S
C960 N955 1.360 . S
C960 C958 1.417 . S
C960 C964 1.432 . S
H961 C966 0.930 . S
N962 Tb924 2.600 . S
N962 C964 1.359 . S
N962 C965 1.327 . S
C963 H949 0.931 . S
C963 C965 1.392 . S
C963 C966 1.370 . S
C964 C960 1.432 . S
C964 N962 1.359 . S
C964 C967 1.414 . S
C965 H947 0.930 . S
C965 N962 1.327 . S
C965 C963 1.392 . S
C966 H961 0.930 . S
C966 C963 1.370 . S
C966 C967 1.385 . S
C967 C964 1.414 . S
C967 C966 1.385 . S
C967 C989 1.444 . S
O968 Tb924 2.546 . S
O968 C988 1.251 . S
O969 Tb924 2.610 1_655 S
O969 Tb935 2.362 . S
O969 C980 1.283 . S
O970 Tb935 2.421 . S
O970 C987 1.262 . S
O971 Tb924 2.320 1_655 S
O971 C987 1.260 . S
O972 Tb924 2.552 1_655 S
O972 C980 1.243 . S
O973 Tb924 2.413 . S
O973 C988 1.256 . S
O974 Tb935 2.546 . S
O974 C999 1.251 . S
O975 Tb924 2.362 . S
O975 Tb935 2.610 1_455 S
O975 C991 1.283 . S
O976 Tb924 2.421 . S
O976 C998 1.262 . S
O977 Tb935 2.320 1_455 S
O977 C998 1.260 . S
O978 Tb935 2.552 1_455 S
O978 C991 1.243 . S
O979 Tb935 2.413 . S
O979 C999 1.256 . S
C980 O969 1.283 . S
C980 O972 1.243 . S
C981 C983 1.382 1_455 S
C981 C985 1.393 . S
C981 C988 1.500 . S
C982 C983 1.400 . S
C982 C984 1.384 1_655 S
C983 C981 1.382 1_655 S
C983 C982 1.400 . S
C983 H1000 0.930 . S
C984 C982 1.384 1_455 S
C984 C986 1.392 . S
C984 H1001 0.931 . S
C985 C981 1.393 . S
C985 C986 1.401 . S
C985 H1002 0.930 . S
C986 C984 1.392 . S
C986 C985 1.401 . S
C986 H1003 0.930 . S
C987 O970 1.262 . S
C987 O971 1.260 . S
C988 Tb924 2.833 . S
C988 O968 1.251 . S
C988 O973 1.256 . S
C988 C981 1.500 . S
C989 H954 0.929 . S
C989 C967 1.444 . S
C989 C990 1.317 . S
C990 H952 0.930 . S
C990 C958 1.432 . S
C990 C989 1.317 . S
C991 O975 1.283 . S
C991 O978 1.243 . S
C992 C993 1.382 1_655 S
C992 C996 1.393 . S
C992 C999 1.500 . S
C993 C992 1.382 1_455 S
C993 C994 1.400 . S
C993 H1004 0.930 . S
C994 C993 1.400 . S
C994 C995 1.384 1_455 S
C995 C994 1.384 1_655 S
C995 C997 1.392 . S
C995 H1005 0.931 . S
C996 C992 1.393 . S
C996 C997 1.401 . S
C996 H1006 0.930 . S
C997 C995 1.392 . S
C997 C996 1.401 . S
C997 H1007 0.930 . S
C998 O976 1.262 . S
C998 O977 1.260 . S
C999 Tb935 2.833 . S
C999 O974 1.251 . S
C999 O979 1.256 . S
C999 C992 1.500 . S
H1000 C983 0.930 . S
H1001 C984 0.931 . S
H1002 C985 0.930 . S
H1003 C986 0.930 . S
H1004 C993 0.930 . S
H1005 C995 0.931 . S
H1006 C996 0.930 . S
H1007 C997 0.930 . S
Tb1008 N1039 2.660 . S
Tb1008 N1046 2.600 . S
Tb1008 O1052 2.546 . S
Tb1008 O1053 2.610 . S
Tb1008 O1055 2.320 . S
Tb1008 O1056 2.552 . S
Tb1008 O1057 2.413 . S
Tb1008 O1059 2.362 . S
Tb1008 O1060 2.421 . S
Tb1008 C1072 2.833 . S
C1009 C1012 1.432 . S
C1009 C1013 1.414 . S
C1009 N1016 1.359 . S
C1010 C1012 1.417 . S
C1010 C1014 1.432 . S
C1010 C1022 1.410 . S
C1011 C1013 1.444 . S
C1011 C1014 1.317 . S
C1011 H1034 0.929 . S
C1012 C1009 1.432 . S
C1012 C1010 1.417 . S
C1012 N1020 1.360 . S
C1013 C1009 1.414 . S
C1013 C1011 1.444 . S
C1013 C1018 1.385 . S
C1014 C1010 1.432 . S
C1014 C1011 1.317 . S
C1014 H1026 0.930 . S
C1015 C1017 1.392 . S
C1015 C1018 1.370 . S
C1015 H1027 0.931 . S
N1016 C1009 1.359 . S
N1016 C1017 1.327 . S
N1016 Tb1019 2.600 . S
C1017 C1015 1.392 . S
C1017 N1016 1.327 . S
C1017 H1024 0.930 . S
C1018 C1013 1.385 . S
C1018 C1015 1.370 . S
C1018 H1037 0.930 . S
Tb1019 N1016 2.600 . S
Tb1019 N1020 2.660 . S
Tb1019 O1053 2.362 . S
Tb1019 O1054 2.421 . S
Tb1019 O1058 2.546 . S
Tb1019 O1059 2.610 . S
Tb1019 O1061 2.320 . S
Tb1019 O1062 2.552 . S
Tb1019 O1063 2.413 . S
Tb1019 C1083 2.833 . S
N1020 C1012 1.360 . S
N1020 Tb1019 2.660 . S
N1020 C1021 1.305 . S
C1021 N1020 1.305 . S
C1021 C1023 1.407 . S
C1021 H1028 0.930 . S
C1022 C1010 1.410 . S
C1022 C1023 1.345 . S
C1022 H1030 0.930 . S
C1023 C1021 1.407 . S
C1023 C1022 1.345 . S
C1023 H1025 0.930 . S
H1024 C1017 0.930 . S
H1025 C1023 0.930 . S
H1026 C1014 0.930 . S
H1027 C1015 0.931 . S
H1028 C1021 0.930 . S
H1029 C1043 0.930 . S
H1030 C1022 0.930 . S
H1031 C1049 0.930 . S
H1032 C1040 0.930 . S
H1033 C1047 0.931 . S
H1034 C1011 0.929 . S
H1035 C1041 0.930 . S
H1036 C1074 0.930 . S
H1037 C1018 0.930 . S
H1038 C1073 0.929 . S
N1039 Tb1008 2.660 . S
N1039 C1040 1.305 . S
N1039 C1044 1.360 . S
C1040 H1032 0.930 . S
C1040 N1039 1.305 . S
C1040 C1043 1.407 . S
C1041 H1035 0.930 . S
C1041 C1042 1.410 . S
C1041 C1043 1.345 . S
C1042 C1041 1.410 . S
C1042 C1044 1.417 . S
C1042 C1074 1.432 . S
C1043 H1029 0.930 . S
C1043 C1040 1.407 . S
C1043 C1041 1.345 . S
C1044 N1039 1.360 . S
C1044 C1042 1.417 . S
C1044 C1048 1.432 . S
H1045 C1050 0.930 . S
N1046 Tb1008 2.600 . S
N1046 C1048 1.359 . S
N1046 C1049 1.327 . S
C1047 H1033 0.931 . S
C1047 C1049 1.392 . S
C1047 C1050 1.370 . S
C1048 C1044 1.432 . S
C1048 N1046 1.359 . S
C1048 C1051 1.414 . S
C1049 H1031 0.930 . S
C1049 N1046 1.327 . S
C1049 C1047 1.392 . S
C1050 H1045 0.930 . S
C1050 C1047 1.370 . S
C1050 C1051 1.385 . S
C1051 C1048 1.414 . S
C1051 C1050 1.385 . S
C1051 C1073 1.444 . S
O1052 Tb1008 2.546 . S
O1052 C1072 1.251 . S
O1053 Tb1008 2.610 . S
O1053 Tb1019 2.362 . S
O1053 C1064 1.283 . S
O1054 Tb1019 2.421 . S
O1054 C1071 1.262 . S
O1055 Tb1008 2.320 . S
O1055 C1071 1.260 . S
O1056 Tb1008 2.552 . S
O1056 C1064 1.243 . S
O1057 Tb1008 2.413 . S
O1057 C1072 1.256 . S
O1058 Tb1019 2.546 . S
O1058 C1083 1.251 . S
O1059 Tb1008 2.362 . S
O1059 Tb1019 2.610 . S
O1059 C1075 1.283 . S
O1060 Tb1008 2.421 . S
O1060 C1082 1.262 . S
O1061 Tb1019 2.320 . S
O1061 C1082 1.260 . S
O1062 Tb1019 2.552 . S
O1062 C1075 1.243 . S
O1063 Tb1019 2.413 . S
O1063 C1083 1.256 . S
C1064 O1053 1.283 . S
C1064 O1056 1.243 . S
C1065 C1067 1.382 . S
C1065 C1069 1.393 . S
C1065 C1072 1.500 . S
C1066 C1067 1.400 . S
C1066 C1068 1.384 . S
C1067 C1065 1.382 . S
C1067 C1066 1.400 . S
C1067 H1084 0.930 . S
C1068 C1066 1.384 . S
C1068 C1070 1.392 . S
C1068 H1085 0.931 . S
C1069 C1065 1.393 . S
C1069 C1070 1.401 . S
C1069 H1086 0.930 . S
C1070 C1068 1.392 . S
C1070 C1069 1.401 . S
C1070 H1087 0.930 . S
C1071 O1054 1.262 . S
C1071 O1055 1.260 . S
C1072 Tb1008 2.833 . S
C1072 O1052 1.251 . S
C1072 O1057 1.256 . S
C1072 C1065 1.500 . S
C1073 H1038 0.929 . S
C1073 C1051 1.444 . S
C1073 C1074 1.317 . S
C1074 H1036 0.930 . S
C1074 C1042 1.432 . S
C1074 C1073 1.317 . S
C1075 O1059 1.283 . S
C1075 O1062 1.243 . S
C1076 C1077 1.382 . S
C1076 C1080 1.393 . S
C1076 C1083 1.500 . S
C1077 C1076 1.382 . S
C1077 C1078 1.400 . S
C1077 H1088 0.930 . S
C1078 C1077 1.400 . S
C1078 C1079 1.384 . S
C1079 C1078 1.384 . S
C1079 C1081 1.392 . S
C1079 H1089 0.931 . S
C1080 C1076 1.393 . S
C1080 C1081 1.401 . S
C1080 H1090 0.930 . S
C1081 C1079 1.392 . S
C1081 C1080 1.401 . S
C1081 H1091 0.930 . S
C1082 O1060 1.262 . S
C1082 O1061 1.260 . S
C1083 Tb1019 2.833 . S
C1083 O1058 1.251 . S
C1083 O1063 1.256 . S
C1083 C1076 1.500 . S
H1084 C1067 0.930 . S
H1085 C1068 0.931 . S
H1086 C1069 0.930 . S
H1087 C1070 0.930 . S
H1088 C1077 0.930 . S
H1089 C1079 0.931 . S
H1090 C1080 0.930 . S
H1091 C1081 0.930 . S
Tb1092 N1123 2.660 . S
Tb1092 N1130 2.600 . S
Tb1092 O1136 2.546 . S
Tb1092 O1137 2.610 1_556 S
Tb1092 O1139 2.320 1_556 S
Tb1092 O1140 2.552 1_556 S
Tb1092 O1141 2.413 . S
Tb1092 O1143 2.362 . S
Tb1092 O1144 2.421 . S
Tb1092 C1156 2.833 . S
C1093 C1096 1.432 . S
C1093 C1097 1.414 . S
C1093 N1100 1.359 . S
C1094 C1096 1.417 . S
C1094 C1098 1.432 . S
C1094 C1106 1.410 . S
C1095 C1097 1.444 . S
C1095 C1098 1.317 . S
C1095 H1118 0.929 . S
C1096 C1093 1.432 . S
C1096 C1094 1.417 . S
C1096 N1104 1.360 . S
C1097 C1093 1.414 . S
C1097 C1095 1.444 . S
C1097 C1102 1.385 . S
C1098 C1094 1.432 . S
C1098 C1095 1.317 . S
C1098 H1110 0.930 . S
C1099 C1101 1.392 . S
C1099 C1102 1.370 . S
C1099 H1111 0.931 . S
N1100 C1093 1.359 . S
N1100 C1101 1.327 . S
N1100 Tb1103 2.600 . S
C1101 C1099 1.392 . S
C1101 N1100 1.327 . S
C1101 H1108 0.930 . S
C1102 C1097 1.385 . S
C1102 C1099 1.370 . S
C1102 H1121 0.930 . S
Tb1103 N1100 2.600 . S
Tb1103 N1104 2.660 . S
Tb1103 O1137 2.362 . S
Tb1103 O1138 2.421 . S
Tb1103 O1142 2.546 . S
Tb1103 O1143 2.610 1_554 S
Tb1103 O1145 2.320 1_554 S
Tb1103 O1146 2.552 1_554 S
Tb1103 O1147 2.413 . S
Tb1103 C1167 2.833 . S
N1104 C1096 1.360 . S
N1104 Tb1103 2.660 . S
N1104 C1105 1.305 . S
C1105 N1104 1.305 . S
C1105 C1107 1.407 . S
C1105 H1112 0.930 . S
C1106 C1094 1.410 . S
C1106 C1107 1.345 . S
C1106 H1114 0.930 . S
C1107 C1105 1.407 . S
C1107 C1106 1.345 . S
C1107 H1109 0.930 . S
H1108 C1101 0.930 . S
H1109 C1107 0.930 . S
H1110 C1098 0.930 . S
H1111 C1099 0.931 . S
H1112 C1105 0.930 . S
H1113 C1127 0.930 . S
H1114 C1106 0.930 . S
H1115 C1133 0.930 . S
H1116 C1124 0.930 . S
H1117 C1131 0.931 . S
H1118 C1095 0.929 . S
H1119 C1125 0.930 . S
H1120 C1158 0.930 . S
H1121 C1102 0.930 . S
H1122 C1157 0.929 . S
N1123 Tb1092 2.660 . S
N1123 C1124 1.305 . S
N1123 C1128 1.360 . S
C1124 H1116 0.930 . S
C1124 N1123 1.305 . S
C1124 C1127 1.407 . S
C1125 H1119 0.930 . S
C1125 C1126 1.410 . S
C1125 C1127 1.345 . S
C1126 C1125 1.410 . S
C1126 C1128 1.417 . S
C1126 C1158 1.432 . S
C1127 H1113 0.930 . S
C1127 C1124 1.407 . S
C1127 C1125 1.345 . S
C1128 N1123 1.360 . S
C1128 C1126 1.417 . S
C1128 C1132 1.432 . S
H1129 C1134 0.930 . S
N1130 Tb1092 2.600 . S
N1130 C1132 1.359 . S
N1130 C1133 1.327 . S
C1131 H1117 0.931 . S
C1131 C1133 1.392 . S
C1131 C1134 1.370 . S
C1132 C1128 1.432 . S
C1132 N1130 1.359 . S
C1132 C1135 1.414 . S
C1133 H1115 0.930 . S
C1133 N1130 1.327 . S
C1133 C1131 1.392 . S
C1134 H1129 0.930 . S
C1134 C1131 1.370 . S
C1134 C1135 1.385 . S
C1135 C1132 1.414 . S
C1135 C1134 1.385 . S
C1135 C1157 1.444 . S
O1136 Tb1092 2.546 . S
O1136 C1156 1.251 . S
O1137 Tb1092 2.610 1_554 S
O1137 Tb1103 2.362 . S
O1137 C1148 1.283 . S
O1138 Tb1103 2.421 . S
O1138 C1155 1.262 . S
O1139 Tb1092 2.320 1_554 S
O1139 C1155 1.260 . S
O1140 Tb1092 2.552 1_554 S
O1140 C1148 1.243 . S
O1141 Tb1092 2.413 . S
O1141 C1156 1.256 . S
O1142 Tb1103 2.546 . S
O1142 C1167 1.251 . S
O1143 Tb1092 2.362 . S
O1143 Tb1103 2.610 1_556 S
O1143 C1159 1.283 . S
O1144 Tb1092 2.421 . S
O1144 C1166 1.262 . S
O1145 Tb1103 2.320 1_556 S
O1145 C1166 1.260 . S
O1146 Tb1103 2.552 1_556 S
O1146 C1159 1.243 . S
O1147 Tb1103 2.413 . S
O1147 C1167 1.256 . S
C1148 O1137 1.283 . S
C1148 O1140 1.243 . S
C1149 C1151 1.382 . S
C1149 C1153 1.393 . S
C1149 C1156 1.500 . S
C1150 C1151 1.400 . S
C1150 C1152 1.384 . S
C1151 C1149 1.382 . S
C1151 C1150 1.400 . S
C1151 H1168 0.930 1_556 S
C1152 C1150 1.384 . S
C1152 C1154 1.392 . S
C1152 H1169 0.931 . S
C1153 C1149 1.393 . S
C1153 C1154 1.401 . S
C1153 H1170 0.930 . S
C1154 C1152 1.392 . S
C1154 C1153 1.401 . S
C1154 H1171 0.930 . S
C1155 O1138 1.262 . S
C1155 O1139 1.260 . S
C1156 Tb1092 2.833 . S
C1156 O1136 1.251 . S
C1156 O1141 1.256 . S
C1156 C1149 1.500 . S
C1157 H1122 0.929 . S
C1157 C1135 1.444 . S
C1157 C1158 1.317 . S
C1158 H1120 0.930 . S
C1158 C1126 1.432 . S
C1158 C1157 1.317 . S
C1159 O1143 1.283 . S
C1159 O1146 1.243 . S
C1160 C1161 1.382 . S
C1160 C1164 1.393 . S
C1160 C1167 1.500 . S
C1161 C1160 1.382 . S
C1161 C1162 1.400 . S
C1161 H1172 0.942 . S
C1162 C1161 1.400 . S
C1162 C1163 1.384 . S
C1163 C1162 1.384 . S
C1163 C1165 1.392 . S
C1163 H1173 0.931 . S
C1164 C1160 1.393 . S
C1164 C1165 1.401 . S
C1164 H1174 0.930 . S
C1165 C1163 1.392 . S
C1165 C1164 1.401 . S
C1165 H1175 0.930 . S
C1166 O1144 1.262 . S
C1166 O1145 1.260 . S
C1167 Tb1103 2.833 . S
C1167 O1142 1.251 . S
C1167 O1147 1.256 . S
C1167 C1160 1.500 . S
H1168 C1151 0.930 1_554 S
H1169 C1152 0.931 . S
H1170 C1153 0.930 . S
H1171 C1154 0.930 . S
H1172 C1161 0.942 . S
H1173 C1163 0.931 . S
H1174 C1164 0.930 . S
H1175 C1165 0.930 . S
Tb1176 N1207 2.660 1_565 S
Tb1176 N1214 2.600 . S
Tb1176 O1220 2.546 . S
Tb1176 O1221 2.610 . S
Tb1176 O1223 2.320 1_565 S
Tb1176 O1224 2.552 . S
Tb1176 O1225 2.413 . S
Tb1176 O1227 2.362 1_565 S
Tb1176 O1228 2.421 . S
Tb1176 C1240 2.833 . S
C1177 C1180 1.432 1_545 S
C1177 C1181 1.414 . S
C1177 N1184 1.359 . S
C1178 C1180 1.417 . S
C1178 C1182 1.432 . S
C1178 C1190 1.410 . S
C1179 C1181 1.444 1_565 S
C1179 C1182 1.317 . S
C1179 H1202 0.929 . S
C1180 C1177 1.432 1_565 S
C1180 C1178 1.417 . S
C1180 N1188 1.360 . S
C1181 C1177 1.414 . S
C1181 C1179 1.444 1_545 S
C1181 C1186 1.385 . S
C1182 C1178 1.432 . S
C1182 C1179 1.317 . S
C1182 H1194 0.930 . S
C1183 C1185 1.392 . S
C1183 C1186 1.370 . S
C1183 H1195 0.931 . S
N1184 C1177 1.359 . S
N1184 C1185 1.327 . S
N1184 Tb1187 2.600 . S
C1185 C1183 1.392 . S
C1185 N1184 1.327 . S
C1185 H1192 0.930 . S
C1186 C1181 1.385 . S
C1186 C1183 1.370 . S
C1186 H1205 0.930 . S
Tb1187 N1184 2.600 . S
Tb1187 N1188 2.660 1_545 S
Tb1187 O1221 2.362 1_545 S
Tb1187 O1222 2.421 . S
Tb1187 O1226 2.546 . S
Tb1187 O1227 2.610 . S
Tb1187 O1229 2.320 1_545 S
Tb1187 O1230 2.552 . S
Tb1187 O1231 2.413 . S
Tb1187 C1251 2.833 . S
N1188 C1180 1.360 . S
N1188 Tb1187 2.660 1_565 S
N1188 C1189 1.305 . S
C1189 N1188 1.305 . S
C1189 C1191 1.407 . S
C1189 H1196 0.930 . S
C1190 C1178 1.410 . S
C1190 C1191 1.345 . S
C1190 H1198 0.930 . S
C1191 C1189 1.407 . S
C1191 C1190 1.345 . S
C1191 H1193 0.930 . S
H1192 C1185 0.930 . S
H1193 C1191 0.930 . S
H1194 C1182 0.930 . S
H1195 C1183 0.931 . S
H1196 C1189 0.930 . S
H1197 C1211 0.930 . S
H1198 C1190 0.930 . S
H1199 C1217 0.930 . S
H1200 C1208 0.930 . S
H1201 C1215 0.931 . S
H1202 C1179 0.929 . S
H1203 C1209 0.930 . S
H1204 C1242 0.930 . S
H1205 C1186 0.930 . S
H1206 C1241 0.929 . S
N1207 Tb1176 2.660 1_545 S
N1207 C1208 1.305 . S
N1207 C1212 1.360 . S
C1208 H1200 0.930 . S
C1208 N1207 1.305 . S
C1208 C1211 1.407 . S
C1209 H1203 0.930 . S
C1209 C1210 1.410 . S
C1209 C1211 1.345 . S
C1210 C1209 1.410 . S
C1210 C1212 1.417 . S
C1210 C1242 1.432 . S
C1211 H1197 0.930 . S
C1211 C1208 1.407 . S
C1211 C1209 1.345 . S
C1212 N1207 1.360 . S
C1212 C1210 1.417 . S
C1212 C1216 1.432 1_545 S
H1213 C1218 0.930 . S
N1214 Tb1176 2.600 . S
N1214 C1216 1.359 . S
N1214 C1217 1.327 . S
C1215 H1201 0.931 . S
C1215 C1217 1.392 . S
C1215 C1218 1.370 . S
C1216 C1212 1.432 1_565 S
C1216 N1214 1.359 . S
C1216 C1219 1.414 . S
C1217 H1199 0.930 . S
C1217 N1214 1.327 . S
C1217 C1215 1.392 . S
C1218 H1213 0.930 . S
C1218 C1215 1.370 . S
C1218 C1219 1.385 . S
C1219 C1216 1.414 . S
C1219 C1218 1.385 . S
C1219 C1241 1.444 1_565 S
O1220 Tb1176 2.546 . S
O1220 C1240 1.251 . S
O1221 Tb1176 2.610 . S
O1221 Tb1187 2.362 1_565 S
O1221 C1232 1.283 . S
O1222 Tb1187 2.421 . S
O1222 C1239 1.262 . S
O1223 Tb1176 2.320 1_545 S
O1223 C1239 1.260 . S
O1224 Tb1176 2.552 . S
O1224 C1232 1.243 . S
O1225 Tb1176 2.413 . S
O1225 C1240 1.256 . S
O1226 Tb1187 2.546 . S
O1226 C1251 1.251 . S
O1227 Tb1176 2.362 1_545 S
O1227 Tb1187 2.610 . S
O1227 C1243 1.283 . S
O1228 Tb1176 2.421 . S
O1228 C1250 1.262 . S
O1229 Tb1187 2.320 1_565 S
O1229 C1250 1.260 . S
O1230 Tb1187 2.552 . S
O1230 C1243 1.243 . S
O1231 Tb1187 2.413 . S
O1231 C1251 1.256 . S
C1232 O1221 1.283 . S
C1232 O1224 1.243 . S
C1233 C1235 1.382 . S
C1233 C1237 1.393 . S
C1233 C1240 1.500 . S
C1234 C1235 1.400 . S
C1234 C1236 1.384 . S
C1235 C1233 1.382 . S
C1235 C1234 1.400 . S
C1235 H1252 0.930 . S
C1236 C1234 1.384 . S
C1236 C1238 1.392 . S
C1236 H1253 0.931 . S
C1237 C1233 1.393 . S
C1237 C1238 1.401 . S
C1237 H1254 0.930 . S
C1238 C1236 1.392 . S
C1238 C1237 1.401 . S
C1238 H1255 0.930 . S
C1239 O1222 1.262 . S
C1239 O1223 1.260 . S
C1240 Tb1176 2.833 . S
C1240 O1220 1.251 . S
C1240 O1225 1.256 . S
C1240 C1233 1.500 . S
C1241 H1206 0.929 . S
C1241 C1219 1.444 1_545 S
C1241 C1242 1.317 . S
C1242 H1204 0.930 . S
C1242 C1210 1.432 . S
C1242 C1241 1.317 . S
C1243 O1227 1.283 . S
C1243 O1230 1.243 . S
C1244 C1245 1.382 . S
C1244 C1248 1.393 . S
C1244 C1251 1.500 . S
C1245 C1244 1.382 . S
C1245 C1246 1.400 . S
C1245 H1256 0.930 . S
C1246 C1245 1.400 . S
C1246 C1247 1.384 . S
C1247 C1246 1.384 . S
C1247 C1249 1.392 . S
C1247 H1257 0.931 . S
C1248 C1244 1.393 . S
C1248 C1249 1.401 . S
C1248 H1258 0.930 . S
C1249 C1247 1.392 . S
C1249 C1248 1.401 . S
C1249 H1259 0.930 . S
C1250 O1228 1.262 . S
C1250 O1229 1.260 . S
C1251 Tb1187 2.833 . S
C1251 O1226 1.251 . S
C1251 O1231 1.256 . S
C1251 C1244 1.500 . S
H1252 C1235 0.930 . S
H1253 C1236 0.931 . S
H1254 C1237 0.930 . S
H1255 C1238 0.930 . S
H1256 C1245 0.930 . S
H1257 C1247 0.931 . S
H1258 C1248 0.930 . S
H1259 C1249 0.930 . S
Tb1260 N1291 2.660 . S
Tb1260 N1298 2.600 . S
Tb1260 O1304 2.546 . S
Tb1260 O1305 2.610 1_554 S
Tb1260 O1307 2.320 1_554 S
Tb1260 O1308 2.552 1_554 S
Tb1260 O1309 2.413 . S
Tb1260 O1311 2.362 . S
Tb1260 O1312 2.421 . S
Tb1260 C1324 2.833 . S
C1261 C1264 1.432 . S
C1261 C1265 1.414 . S
C1261 N1268 1.359 . S
C1262 C1264 1.417 . S
C1262 C1266 1.432 . S
C1262 C1274 1.410 . S
C1263 C1265 1.444 . S
C1263 C1266 1.317 . S
C1263 H1286 0.929 . S
C1264 C1261 1.432 . S
C1264 C1262 1.417 . S
C1264 N1272 1.360 . S
C1265 C1261 1.414 . S
C1265 C1263 1.444 . S
C1265 C1270 1.385 . S
C1266 C1262 1.432 . S
C1266 C1263 1.317 . S
C1266 H1278 0.930 . S
C1267 C1269 1.392 . S
C1267 C1270 1.370 . S
C1267 H1279 0.931 . S
N1268 C1261 1.359 . S
N1268 C1269 1.327 . S
N1268 Tb1271 2.600 . S
C1269 C1267 1.392 . S
C1269 N1268 1.327 . S
C1269 H1276 0.930 . S
C1270 C1265 1.385 . S
C1270 C1267 1.370 . S
C1270 H1289 0.930 . S
Tb1271 N1268 2.600 . S
Tb1271 N1272 2.660 . S
Tb1271 O1305 2.362 . S
Tb1271 O1306 2.421 . S
Tb1271 O1310 2.546 . S
Tb1271 O1311 2.610 1_556 S
Tb1271 O1313 2.320 1_556 S
Tb1271 O1314 2.552 1_556 S
Tb1271 O1315 2.413 . S
Tb1271 C1335 2.833 . S
N1272 C1264 1.360 . S
N1272 Tb1271 2.660 . S
N1272 C1273 1.305 . S
C1273 N1272 1.305 . S
C1273 C1275 1.407 . S
C1273 H1280 0.930 . S
C1274 C1262 1.410 . S
C1274 C1275 1.345 . S
C1274 H1282 0.930 . S
C1275 C1273 1.407 . S
C1275 C1274 1.345 . S
C1275 H1277 0.930 . S
H1276 C1269 0.930 . S
H1277 C1275 0.930 . S
H1278 C1266 0.930 . S
H1279 C1267 0.931 . S
H1280 C1273 0.930 . S
H1281 C1295 0.930 . S
H1282 C1274 0.930 . S
H1283 C1301 0.930 . S
H1284 C1292 0.930 . S
H1285 C1299 0.931 . S
H1286 C1263 0.929 . S
H1287 C1293 0.930 . S
H1288 C1326 0.930 . S
H1289 C1270 0.930 . S
H1290 C1325 0.929 . S
N1291 Tb1260 2.660 . S
N1291 C1292 1.305 . S
N1291 C1296 1.360 . S
C1292 H1284 0.930 . S
C1292 N1291 1.305 . S
C1292 C1295 1.407 . S
C1293 H1287 0.930 . S
C1293 C1294 1.410 . S
C1293 C1295 1.345 . S
C1294 C1293 1.410 . S
C1294 C1296 1.417 . S
C1294 C1326 1.432 . S
C1295 H1281 0.930 . S
C1295 C1292 1.407 . S
C1295 C1293 1.345 . S
C1296 N1291 1.360 . S
C1296 C1294 1.417 . S
C1296 C1300 1.432 . S
H1297 C1302 0.930 . S
N1298 Tb1260 2.600 . S
N1298 C1300 1.359 . S
N1298 C1301 1.327 . S
C1299 H1285 0.931 . S
C1299 C1301 1.392 . S
C1299 C1302 1.370 . S
C1300 C1296 1.432 . S
C1300 N1298 1.359 . S
C1300 C1303 1.414 . S
C1301 H1283 0.930 . S
C1301 N1298 1.327 . S
C1301 C1299 1.392 . S
C1302 H1297 0.930 . S
C1302 C1299 1.370 . S
C1302 C1303 1.385 . S
C1303 C1300 1.414 . S
C1303 C1302 1.385 . S
C1303 C1325 1.444 . S
O1304 Tb1260 2.546 . S
O1304 C1324 1.251 . S
O1305 Tb1260 2.610 1_556 S
O1305 Tb1271 2.362 . S
O1305 C1316 1.283 . S
O1306 Tb1271 2.421 . S
O1306 C1323 1.262 . S
O1307 Tb1260 2.320 1_556 S
O1307 C1323 1.260 . S
O1308 Tb1260 2.552 1_556 S
O1308 C1316 1.243 . S
O1309 Tb1260 2.413 . S
O1309 C1324 1.256 . S
O1310 Tb1271 2.546 . S
O1310 C1335 1.251 . S
O1311 Tb1260 2.362 . S
O1311 Tb1271 2.610 1_554 S
O1311 C1327 1.283 . S
O1312 Tb1260 2.421 . S
O1312 C1334 1.262 . S
O1313 Tb1271 2.320 1_554 S
O1313 C1334 1.260 . S
O1314 Tb1271 2.552 1_554 S
O1314 C1327 1.243 . S
O1315 Tb1271 2.413 . S
O1315 C1335 1.256 . S
C1316 O1305 1.283 . S
C1316 O1308 1.243 . S
C1317 C1319 1.382 . S
C1317 C1321 1.393 . S
C1317 C1324 1.500 . S
C1318 C1319 1.400 . S
C1318 C1320 1.384 . S
C1319 C1317 1.382 . S
C1319 C1318 1.400 . S
C1319 H1336 0.930 . S
C1320 C1318 1.384 . S
C1320 C1322 1.392 . S
C1320 H1337 0.931 . S
C1321 C1317 1.393 . S
C1321 C1322 1.401 . S
C1321 H1338 0.930 . S
C1322 C1320 1.392 . S
C1322 C1321 1.401 . S
C1322 H1339 0.930 . S
C1323 O1306 1.262 . S
C1323 O1307 1.260 . S
C1324 Tb1260 2.833 . S
C1324 O1304 1.251 . S
C1324 O1309 1.256 . S
C1324 C1317 1.500 . S
C1325 H1290 0.929 . S
C1325 C1303 1.444 . S
C1325 C1326 1.317 . S
C1326 H1288 0.930 . S
C1326 C1294 1.432 . S
C1326 C1325 1.317 . S
C1327 O1311 1.283 . S
C1327 O1314 1.243 . S
C1328 C1329 1.382 . S
C1328 C1332 1.393 . S
C1328 C1335 1.500 . S
C1329 C1328 1.382 . S
C1329 C1330 1.400 . S
C1329 H1340 0.930 . S
C1330 C1329 1.400 . S
C1330 C1331 1.384 . S
C1331 C1330 1.384 . S
C1331 C1333 1.392 . S
C1331 H1341 0.931 . S
C1332 C1328 1.393 . S
C1332 C1333 1.401 . S
C1332 H1342 0.930 . S
C1333 C1331 1.392 . S
C1333 C1332 1.401 . S
C1333 H1343 0.930 . S
C1334 O1312 1.262 . S
C1334 O1313 1.260 . S
C1335 Tb1271 2.833 . S
C1335 O1310 1.251 . S
C1335 O1315 1.256 . S
C1335 C1328 1.500 . S
H1336 C1319 0.930 . S
H1337 C1320 0.931 . S
H1338 C1321 0.930 . S
H1339 C1322 0.930 . S
H1340 C1329 0.930 . S
H1341 C1331 0.931 . S
H1342 C1332 0.930 . S
H1343 C1333 0.930 . S
H1344 C1352 0.929 . S
H1345 C1354 0.930 . S
H1346 C1356 0.930 . S
H1347 C1359 0.929 . S
H1348 C1362 0.930 . S
H1349 C1364 0.960 . S
H1350 C1364 0.960 . S
H1351 C1364 0.960 . S
C1352 H1344 0.929 . S
C1352 C1353 1.377 1_455 S
C1352 C1354 1.384 . S
C1353 C1352 1.377 1_655 S
C1353 C1359 1.390 . S
C1354 H1345 0.930 . S
C1354 C1352 1.384 . S
C1354 C1355 1.372 1_455 S
C1355 C1354 1.372 1_655 S
C1355 C1356 1.400 . S
C1355 C1360 1.490 1_655 S
C1356 H1346 0.930 . S
C1356 C1355 1.400 . S
C1356 C1359 1.386 . S
H1357 C1373 0.930 1_655 S
H1358 C1374 0.931 . S
C1359 H1347 0.929 . S
C1359 C1353 1.390 . S
C1359 C1356 1.386 . S
C1360 C1355 1.490 1_455 S
C1360 C1362 1.395 1_455 S
C1360 C1363 1.403 . S
H1361 C1367 0.930 . S
C1362 H1348 0.930 . S
C1362 C1360 1.395 1_655 S
C1362 C1365 1.403 . S
C1363 C1360 1.403 . S
C1363 C1364 1.524 . S
C1363 C1367 1.400 . S
C1364 H1349 0.960 . S
C1364 H1350 0.960 . S
C1364 H1351 0.960 . S
C1364 C1363 1.524 . S
C1365 C1362 1.403 . S
C1365 C1366 1.392 1_655 S
C1365 C1369 1.495 . S
C1366 C1365 1.392 1_455 S
C1366 C1367 1.385 . S
C1366 C1368 1.478 . S
C1367 H1361 0.930 . S
C1367 C1363 1.400 . S
C1367 C1366 1.385 . S
C1368 C1366 1.478 . S
C1368 C1370 1.381 . S
C1368 C1374 1.383 1_455 S
C1369 C1365 1.495 . S
C1369 H1375 0.959 . S
C1369 H1376 0.961 . S
C1369 H1377 0.960 . S
C1370 C1368 1.381 . S
C1370 C1371 1.394 . S
C1370 H1378 0.930 . S
C1371 C1370 1.394 . S
C1371 C1372 1.383 . S
C1371 H1379 0.929 . S
C1372 C1371 1.383 . S
C1372 C1373 1.377 . S
C1373 H1357 0.930 1_455 S
C1373 C1372 1.377 . S
C1373 C1374 1.379 1_455 S
C1374 H1358 0.931 . S
C1374 C1368 1.383 1_655 S
C1374 C1373 1.379 1_655 S
H1375 C1369 0.959 . S
H1376 C1369 0.961 . S
H1377 C1369 0.960 . S
H1378 C1370 0.930 . S
H1379 C1371 0.929 . S
H1380 C1388 0.929 . S
H1381 C1390 0.930 . S
H1382 C1392 0.930 . S
H1383 C1395 0.929 . S
H1384 C1398 0.930 . S
H1385 C1400 0.960 . S
H1386 C1400 0.960 . S
H1387 C1400 0.960 . S
C1388 H1380 0.929 . S
C1388 C1389 1.377 . S
C1388 C1390 1.384 . S
C1389 C1388 1.377 . S
C1389 C1395 1.390 . S
C1390 H1381 0.930 . S
C1390 C1388 1.384 . S
C1390 C1391 1.372 . S
C1391 C1390 1.372 . S
C1391 C1392 1.400 . S
C1391 C1396 1.490 . S
C1392 H1382 0.930 . S
C1392 C1391 1.400 . S
C1392 C1395 1.386 . S
H1393 C1409 0.930 . S
H1394 C1410 0.931 . S
C1395 H1383 0.929 . S
C1395 C1389 1.390 . S
C1395 C1392 1.386 . S
C1396 C1391 1.490 . S
C1396 C1398 1.395 . S
C1396 C1399 1.403 . S
H1397 C1403 0.930 . S
C1398 H1384 0.930 . S
C1398 C1396 1.395 . S
C1398 C1401 1.403 . S
C1399 C1396 1.403 . S
C1399 C1400 1.524 . S
C1399 C1403 1.400 . S
C1400 H1385 0.960 . S
C1400 H1386 0.960 . S
C1400 H1387 0.960 . S
C1400 C1399 1.524 . S
C1401 C1398 1.403 . S
C1401 C1402 1.392 . S
C1401 C1405 1.495 . S
C1402 C1401 1.392 . S
C1402 C1403 1.385 . S
C1402 C1404 1.478 . S
C1403 H1397 0.930 . S
C1403 C1399 1.400 . S
C1403 C1402 1.385 . S
C1404 C1402 1.478 . S
C1404 C1406 1.381 . S
C1404 C1410 1.383 . S
C1405 C1401 1.495 . S
C1405 H1411 0.959 . S
C1405 H1412 0.961 . S
C1405 H1413 0.960 . S
C1406 C1404 1.381 . S
C1406 C1407 1.394 . S
C1406 H1414 0.930 . S
C1407 C1406 1.394 . S
C1407 C1408 1.383 . S
C1407 H1415 0.929 . S
C1408 C1407 1.383 . S
C1408 C1409 1.377 . S
C1409 H1393 0.930 . S
C1409 C1408 1.377 . S
C1409 C1410 1.379 . S
C1410 H1394 0.931 . S
C1410 C1404 1.383 . S
C1410 C1409 1.379 . S
H1411 C1405 0.959 . S
H1412 C1405 0.961 . S
H1413 C1405 0.960 . S
H1414 C1406 0.930 . S
H1415 C1407 0.929 . S
H1416 C1424 0.929 . S
H1417 C1426 0.930 . S
H1418 C1428 0.930 . S
H1419 C1431 0.929 . S
H1420 C1434 0.930 . S
H1421 C1436 0.960 . S
H1422 C1436 0.960 . S
H1423 C1436 0.960 . S
C1424 H1416 0.929 . S
C1424 C1425 1.377 . S
C1424 C1426 1.384 . S
C1425 C1424 1.377 . S
C1425 C1431 1.390 . S
C1426 H1417 0.930 . S
C1426 C1424 1.384 . S
C1426 C1427 1.372 . S
C1427 C1426 1.372 . S
C1427 C1428 1.400 . S
C1427 C1432 1.490 . S
C1428 H1418 0.930 . S
C1428 C1427 1.400 . S
C1428 C1431 1.386 . S
H1429 C1445 0.930 . S
H1430 C1446 0.931 . S
C1431 H1419 0.929 . S
C1431 C1425 1.390 . S
C1431 C1428 1.386 . S
C1432 C1427 1.490 . S
C1432 C1434 1.395 . S
C1432 C1435 1.403 . S
H1433 C1439 0.930 . S
C1434 H1420 0.930 . S
C1434 C1432 1.395 . S
C1434 C1437 1.403 . S
C1435 C1432 1.403 . S
C1435 C1436 1.524 . S
C1435 C1439 1.400 . S
C1436 H1421 0.960 . S
C1436 H1422 0.960 . S
C1436 H1423 0.960 . S
C1436 C1435 1.524 . S
C1437 C1434 1.403 . S
C1437 C1438 1.392 . S
C1437 C1441 1.495 . S
C1438 C1437 1.392 . S
C1438 C1439 1.385 . S
C1438 C1440 1.478 . S
C1439 H1433 0.930 . S
C1439 C1435 1.400 . S
C1439 C1438 1.385 . S
C1440 C1438 1.478 . S
C1440 C1442 1.381 . S
C1440 C1446 1.383 . S
C1441 C1437 1.495 . S
C1441 H1447 0.959 . S
C1441 H1448 0.961 . S
C1441 H1449 0.960 . S
C1442 C1440 1.381 . S
C1442 C1443 1.394 . S
C1442 H1450 0.930 . S
C1443 C1442 1.394 . S
C1443 C1444 1.383 . S
C1443 H1451 0.929 . S
C1444 C1443 1.383 . S
C1444 C1445 1.377 . S
C1445 H1429 0.930 . S
C1445 C1444 1.377 . S
C1445 C1446 1.379 . S
C1446 H1430 0.931 . S
C1446 C1440 1.383 . S
C1446 C1445 1.379 . S
H1447 C1441 0.959 . S
H1448 C1441 0.961 . S
H1449 C1441 0.960 . S
H1450 C1442 0.930 . S
H1451 C1443 0.929 . S
H1452 C1460 0.925 1_565 S
H1453 C1462 0.930 . S
H1454 C1464 0.930 . S
H1455 C1467 0.929 . S
H1456 C1470 0.930 . S
H1457 C1472 0.960 . S
H1458 C1472 0.960 . S
H1459 C1472 0.960 . S
C1460 H1452 0.925 1_545 S
C1460 C1461 1.407 . S
C1460 C1462 1.361 1_545 S
C1461 C1460 1.407 . S
C1461 C1467 1.390 . S
C1462 H1453 0.930 . S
C1462 C1460 1.361 1_565 S
C1462 C1463 1.372 1_565 S
C1463 C1462 1.372 1_545 S
C1463 C1464 1.400 . S
C1463 C1468 1.497 . S
C1464 H1454 0.930 . S
C1464 C1463 1.400 . S
C1464 C1467 1.386 . S
H1465 C1481 0.930 . S
H1466 C1482 0.952 . S
C1467 H1455 0.929 . S
C1467 C1461 1.390 . S
C1467 C1464 1.386 . S
C1468 C1463 1.497 . S
C1468 C1470 1.380 1_545 S
C1468 C1471 1.410 . S
H1469 C1475 0.930 . S
C1470 H1456 0.930 . S
C1470 C1468 1.380 1_565 S
C1470 C1473 1.403 . S
C1471 C1468 1.410 . S
C1471 C1472 1.524 . S
C1471 C1475 1.400 . S
C1472 H1457 0.960 . S
C1472 H1458 0.960 . S
C1472 H1459 0.960 . S
C1472 C1471 1.524 . S
C1473 C1470 1.403 . S
C1473 C1474 1.392 . S
C1473 C1477 1.495 . S
C1474 C1473 1.392 . S
C1474 C1475 1.385 1_565 S
C1474 C1476 1.478 . S
C1475 H1469 0.930 . S
C1475 C1471 1.400 . S
C1475 C1474 1.385 1_545 S
C1476 C1474 1.478 . S
C1476 C1478 1.381 . S
C1476 C1482 1.383 . S
C1477 C1473 1.495 . S
C1477 H1483 0.959 . S
C1477 H1484 0.961 . S
C1477 H1485 0.960 . S
C1478 C1476 1.381 . S
C1478 C1479 1.394 . S
C1478 H1486 0.930 . S
C1479 C1478 1.394 . S
C1479 C1480 1.383 . S
C1479 H1487 0.929 . S
C1480 C1479 1.383 . S
C1480 C1481 1.377 . S
C1481 H1465 0.930 . S
C1481 C1480 1.377 . S
C1481 C1482 1.379 . S
C1482 H1466 0.952 . S
C1482 C1476 1.383 . S
C1482 C1481 1.379 . S
H1483 C1477 0.959 . S
H1484 C1477 0.961 . S
H1485 C1477 0.960 . S
H1486 C1478 0.930 . S
H1487 C1479 0.929 . S
H1488 C1496 0.929 . S
H1489 C1498 0.930 . S
H1490 C1500 0.930 . S
H1491 C1503 0.929 . S
H1492 C1506 0.946 . S
H1493 C1508 0.960 . S
H1494 C1508 0.960 . S
H1495 C1508 0.960 1_565 S
C1496 H1488 0.929 . S
C1496 C1497 1.377 1_545 S
C1496 C1498 1.384 . S
C1497 C1496 1.377 1_565 S
C1497 C1503 1.390 . S
C1498 H1489 0.930 . S
C1498 C1496 1.384 . S
C1498 C1499 1.372 1_545 S
C1499 C1498 1.372 1_565 S
C1499 C1500 1.400 . S
C1499 C1504 1.487 1_565 S
C1500 H1490 0.930 . S
C1500 C1499 1.400 . S
C1500 C1503 1.386 . S
H1501 C1517 0.930 . S
H1502 C1518 0.931 . S
C1503 H1491 0.929 . S
C1503 C1497 1.390 . S
C1503 C1500 1.386 . S
C1504 C1499 1.487 1_545 S
C1504 C1506 1.395 . S
C1504 C1507 1.404 . S
H1505 C1511 0.930 . S
C1506 H1492 0.946 . S
C1506 C1504 1.395 . S
C1506 C1509 1.403 . S
C1507 C1504 1.404 . S
C1507 C1508 1.524 . S
C1507 C1511 1.400 . S
C1508 H1493 0.960 . S
C1508 H1494 0.960 . S
C1508 H1495 0.960 1_545 S
C1508 C1507 1.524 . S
C1509 C1506 1.403 . S
C1509 C1510 1.392 . S
C1509 C1513 1.495 . S
C1510 C1509 1.392 . S
C1510 C1511 1.385 . S
C1510 C1512 1.478 . S
C1511 H1505 0.930 . S
C1511 C1507 1.400 . S
C1511 C1510 1.385 . S
C1512 C1510 1.478 . S
C1512 C1514 1.381 . S
C1512 C1518 1.383 1_545 S
C1513 C1509 1.495 . S
C1513 H1519 0.959 . S
C1513 H1520 0.961 1_545 S
C1513 H1521 0.960 . S
C1514 C1512 1.381 . S
C1514 C1515 1.394 . S
C1514 H1522 0.930 . S
C1515 C1514 1.394 . S
C1515 C1516 1.383 . S
C1515 H1523 0.929 . S
C1516 C1515 1.383 . S
C1516 C1517 1.377 1_545 S
C1517 H1501 0.930 . S
C1517 C1516 1.377 1_565 S
C1517 C1518 1.379 . S
C1518 H1502 0.931 . S
C1518 C1512 1.383 1_565 S
C1518 C1517 1.379 . S
H1519 C1513 0.959 . S
H1520 C1513 0.961 1_565 S
H1521 C1513 0.960 . S
H1522 C1514 0.930 . S
H1523 C1515 0.929 . S
H1524 C1532 0.929 . S
H1525 C1534 0.930 . S
H1526 C1536 0.930 . S
H1527 C1539 0.929 . S
H1528 C1542 0.930 . S
H1529 C1544 0.960 . S
H1530 C1544 0.960 . S
H1531 C1544 0.960 . S
C1532 H1524 0.929 . S
C1532 C1533 1.377 . S
C1532 C1534 1.384 . S
C1533 C1532 1.377 . S
C1533 C1539 1.390 . S
C1534 H1525 0.930 . S
C1534 C1532 1.384 . S
C1534 C1535 1.372 . S
C1535 C1534 1.372 . S
C1535 C1536 1.400 . S
C1535 C1540 1.495 . S
C1536 H1526 0.930 . S
C1536 C1535 1.400 . S
C1536 C1539 1.386 . S
H1537 C1553 0.930 . S
H1538 C1554 0.931 . S
C1539 H1527 0.929 . S
C1539 C1533 1.390 . S
C1539 C1536 1.386 . S
C1540 C1535 1.495 . S
C1540 C1542 1.402 . S
C1540 C1543 1.391 1_455 S
H1541 C1547 0.930 . S
C1542 H1528 0.930 . S
C1542 C1540 1.402 . S
C1542 C1545 1.403 . S
C1543 C1540 1.391 1_655 S
C1543 C1544 1.524 . S
C1543 C1547 1.400 . S
C1544 H1529 0.960 . S
C1544 H1530 0.960 . S
C1544 H1531 0.960 . S
C1544 C1543 1.524 . S
C1545 C1542 1.403 . S
C1545 C1546 1.392 1_455 S
C1545 C1549 1.495 . S
C1546 C1545 1.392 1_655 S
C1546 C1547 1.385 . S
C1546 C1548 1.478 . S
C1547 H1541 0.930 . S
C1547 C1543 1.400 . S
C1547 C1546 1.385 . S
C1548 C1546 1.478 . S
C1548 C1550 1.381 . S
C1548 C1554 1.383 . S
C1549 C1545 1.495 . S
C1549 H1555 0.959 . S
C1549 H1556 0.961 . S
C1549 H1557 0.960 . S
C1550 C1548 1.381 . S
C1550 C1551 1.394 . S
C1550 H1558 0.930 . S
C1551 C1550 1.394 . S
C1551 C1552 1.383 . S
C1551 H1559 0.929 . S
C1552 C1551 1.383 . S
C1552 C1553 1.377 . S
C1553 H1537 0.930 . S
C1553 C1552 1.377 . S
C1553 C1554 1.379 . S
C1554 H1538 0.931 . S
C1554 C1548 1.383 . S
C1554 C1553 1.379 . S
H1555 C1549 0.959 . S
H1556 C1549 0.961 . S
H1557 C1549 0.960 . S
H1558 C1550 0.930 . S
H1559 C1551 0.929 . S
H1560 C1568 0.929 . S
H1561 C1570 0.930 . S
H1562 C1572 0.930 . S
H1563 C1575 0.929 . S
H1564 C1578 0.930 . S
H1565 C1580 0.960 . S
H1566 C1580 0.960 . S
H1567 C1580 0.960 . S
C1568 H1560 0.929 . S
C1568 C1569 1.377 . S
C1568 C1570 1.384 . S
C1569 C1568 1.377 . S
C1569 C1575 1.390 . S
C1570 H1561 0.930 . S
C1570 C1568 1.384 . S
C1570 C1571 1.372 . S
C1571 C1570 1.372 . S
C1571 C1572 1.400 . S
C1571 C1576 1.490 . S
C1572 H1562 0.930 . S
C1572 C1571 1.400 . S
C1572 C1575 1.386 . S
H1573 C1589 0.930 . S
H1574 C1590 0.931 . S
C1575 H1563 0.929 . S
C1575 C1569 1.390 . S
C1575 C1572 1.386 . S
C1576 C1571 1.490 . S
C1576 C1578 1.395 . S
C1576 C1579 1.403 . S
H1577 C1583 0.930 . S
C1578 H1564 0.930 . S
C1578 C1576 1.395 . S
C1578 C1581 1.403 . S
C1579 C1576 1.403 . S
C1579 C1580 1.524 . S
C1579 C1583 1.400 . S
C1580 H1565 0.960 . S
C1580 H1566 0.960 . S
C1580 H1567 0.960 . S
C1580 C1579 1.524 . S
C1581 C1578 1.403 . S
C1581 C1582 1.392 . S
C1581 C1585 1.495 . S
C1582 C1581 1.392 . S
C1582 C1583 1.385 . S
C1582 C1584 1.478 . S
C1583 H1577 0.930 . S
C1583 C1579 1.400 . S
C1583 C1582 1.385 . S
C1584 C1582 1.478 . S
C1584 C1586 1.381 . S
C1584 C1590 1.383 . S
C1585 C1581 1.495 . S
C1585 H1591 0.959 . S
C1585 H1592 0.961 . S
C1585 H1593 0.960 . S
C1586 C1584 1.381 . S
C1586 C1587 1.394 . S
C1586 H1594 0.930 . S
C1587 C1586 1.394 . S
C1587 C1588 1.383 . S
C1587 H1595 0.929 . S
C1588 C1587 1.383 . S
C1588 C1589 1.377 . S
C1589 H1573 0.930 . S
C1589 C1588 1.377 . S
C1589 C1590 1.379 . S
C1590 H1574 0.931 . S
C1590 C1584 1.383 . S
C1590 C1589 1.379 . S
H1591 C1585 0.959 . S
H1592 C1585 0.961 . S
H1593 C1585 0.960 . S
H1594 C1586 0.930 . S
H1595 C1587 0.929 . S
H1596 C1604 0.929 . S
H1597 C1606 0.930 . S
H1598 C1608 0.930 . S
H1599 C1611 0.929 . S
H1600 C1614 0.930 . S
H1601 C1616 0.960 . S
H1602 C1616 0.960 . S
H1603 C1616 0.960 . S
C1604 H1596 0.929 . S
C1604 C1605 1.377 . S
C1604 C1606 1.384 . S
C1605 C1604 1.377 . S
C1605 C1611 1.390 . S
C1606 H1597 0.930 . S
C1606 C1604 1.384 . S
C1606 C1607 1.372 . S
C1607 C1606 1.372 . S
C1607 C1608 1.400 . S
C1607 C1612 1.490 . S
C1608 H1598 0.930 . S
C1608 C1607 1.400 . S
C1608 C1611 1.386 . S
H1609 C1625 0.930 . S
H1610 C1626 0.931 . S
C1611 H1599 0.929 . S
C1611 C1605 1.390 . S
C1611 C1608 1.386 . S
C1612 C1607 1.490 . S
C1612 C1614 1.395 . S
C1612 C1615 1.403 . S
H1613 C1619 0.930 . S
C1614 H1600 0.930 . S
C1614 C1612 1.395 . S
C1614 C1617 1.403 . S
C1615 C1612 1.403 . S
C1615 C1616 1.524 . S
C1615 C1619 1.400 . S
C1616 H1601 0.960 . S
C1616 H1602 0.960 . S
C1616 H1603 0.960 . S
C1616 C1615 1.524 . S
C1617 C1614 1.403 . S
C1617 C1618 1.392 . S
C1617 C1621 1.495 . S
C1618 C1617 1.392 . S
C1618 C1619 1.385 . S
C1618 C1620 1.478 . S
C1619 H1613 0.930 . S
C1619 C1615 1.400 . S
C1619 C1618 1.385 . S
C1620 C1618 1.478 . S
C1620 C1622 1.381 . S
C1620 C1626 1.383 . S
C1621 C1617 1.495 . S
C1621 H1627 0.959 . S
C1621 H1628 0.961 . S
C1621 H1629 0.960 . S
C1622 C1620 1.381 . S
C1622 C1623 1.394 . S
C1622 H1630 0.930 . S
C1623 C1622 1.394 . S
C1623 C1624 1.383 . S
C1623 H1631 0.929 . S
C1624 C1623 1.383 . S
C1624 C1625 1.377 . S
C1625 H1609 0.930 . S
C1625 C1624 1.377 . S
C1625 C1626 1.379 . S
C1626 H1610 0.931 . S
C1626 C1620 1.383 . S
C1626 C1625 1.379 . S
H1627 C1621 0.959 . S
H1628 C1621 0.961 . S
H1629 C1621 0.960 . S
H1630 C1622 0.930 . S
H1631 C1623 0.929 . S
H1632 C1640 0.929 . S
H1633 C1642 0.930 . S
H1634 C1644 0.930 . S
H1635 C1647 0.929 . S
H1636 C1650 0.930 . S
H1637 C1652 0.960 . S
H1638 C1652 0.960 . S
H1639 C1652 0.960 . S
C1640 H1632 0.929 . S
C1640 C1641 1.377 . S
C1640 C1642 1.384 . S
C1641 C1640 1.377 . S
C1641 C1647 1.390 . S
C1642 H1633 0.930 . S
C1642 C1640 1.384 . S
C1642 C1643 1.372 . S
C1643 C1642 1.372 . S
C1643 C1644 1.400 . S
C1643 C1648 1.490 . S
C1644 H1634 0.930 . S
C1644 C1643 1.400 . S
C1644 C1647 1.386 . S
H1645 C1661 0.930 . S
H1646 C1662 0.931 . S
C1647 H1635 0.929 . S
C1647 C1641 1.390 . S
C1647 C1644 1.386 . S
C1648 C1643 1.490 . S
C1648 C1650 1.395 . S
C1648 C1651 1.403 . S
H1649 C1655 0.930 . S
C1650 H1636 0.930 . S
C1650 C1648 1.395 . S
C1650 C1653 1.403 . S
C1651 C1648 1.403 . S
C1651 C1652 1.524 . S
C1651 C1655 1.400 . S
C1652 H1637 0.960 . S
C1652 H1638 0.960 . S
C1652 H1639 0.960 . S
C1652 C1651 1.524 . S
C1653 C1650 1.403 . S
C1653 C1654 1.392 . S
C1653 C1657 1.495 . S
C1654 C1653 1.392 . S
C1654 C1655 1.385 . S
C1654 C1656 1.478 . S
C1655 H1649 0.930 . S
C1655 C1651 1.400 . S
C1655 C1654 1.385 . S
C1656 C1654 1.478 . S
C1656 C1658 1.381 . S
C1656 C1662 1.383 . S
C1657 C1653 1.495 . S
C1657 H1663 0.959 . S
C1657 H1664 0.961 . S
C1657 H1665 0.960 . S
C1658 C1656 1.381 . S
C1658 C1659 1.394 . S
C1658 H1666 0.930 . S
C1659 C1658 1.394 . S
C1659 C1660 1.383 . S
C1659 H1667 0.929 . S
C1660 C1659 1.383 . S
C1660 C1661 1.377 . S
C1661 H1645 0.930 . S
C1661 C1660 1.377 . S
C1661 C1662 1.379 . S
C1662 H1646 0.931 . S
C1662 C1656 1.383 . S
C1662 C1661 1.379 . S
H1663 C1657 0.959 . S
H1664 C1657 0.961 . S
H1665 C1657 0.960 . S
H1666 C1658 0.930 . S
H1667 C1659 0.929 . S
H1668 C1676 0.929 . S
H1669 C1678 0.930 . S
H1670 C1680 0.930 . S
H1671 C1683 0.929 . S
H1672 C1686 0.930 . S
H1673 C1688 0.960 . S
H1674 C1688 0.960 . S
H1675 C1688 0.960 . S
C1676 H1668 0.929 . S
C1676 C1677 1.377 . S
C1676 C1678 1.384 . S
C1677 C1676 1.377 . S
C1677 C1683 1.390 . S
C1678 H1669 0.930 . S
C1678 C1676 1.384 . S
C1678 C1679 1.372 . S
C1679 C1678 1.372 . S
C1679 C1680 1.400 . S
C1679 C1684 1.490 . S
C1680 H1670 0.930 . S
C1680 C1679 1.400 . S
C1680 C1683 1.386 . S
H1681 C1697 0.930 . S
H1682 C1698 0.931 . S
C1683 H1671 0.929 . S
C1683 C1677 1.390 . S
C1683 C1680 1.386 . S
C1684 C1679 1.490 . S
C1684 C1686 1.395 . S
C1684 C1687 1.403 . S
H1685 C1691 0.930 . S
C1686 H1672 0.930 . S
C1686 C1684 1.395 . S
C1686 C1689 1.403 . S
C1687 C1684 1.403 . S
C1687 C1688 1.524 . S
C1687 C1691 1.400 . S
C1688 H1673 0.960 . S
C1688 H1674 0.960 . S
C1688 H1675 0.960 . S
C1688 C1687 1.524 . S
C1689 C1686 1.403 . S
C1689 C1690 1.392 . S
C1689 C1693 1.495 . S
C1690 C1689 1.392 . S
C1690 C1691 1.385 . S
C1690 C1692 1.478 . S
C1691 H1685 0.930 . S
C1691 C1687 1.400 . S
C1691 C1690 1.385 . S
C1692 C1690 1.478 . S
C1692 C1694 1.381 . S
C1692 C1698 1.383 . S
C1693 C1689 1.495 . S
C1693 H1699 0.959 . S
C1693 H1700 0.961 . S
C1693 H1701 0.960 . S
C1694 C1692 1.381 . S
C1694 C1695 1.394 . S
C1694 H1702 0.930 . S
C1695 C1694 1.394 . S
C1695 C1696 1.383 . S
C1695 H1703 0.929 . S
C1696 C1695 1.383 . S
C1696 C1697 1.377 . S
C1697 H1681 0.930 . S
C1697 C1696 1.377 . S
C1697 C1698 1.379 . S
C1698 H1682 0.931 . S
C1698 C1692 1.383 . S
C1698 C1697 1.379 . S
H1699 C1693 0.959 . S
H1700 C1693 0.961 . S
H1701 C1693 0.960 . S
H1702 C1694 0.930 . S
H1703 C1695 0.929 . S
H1704 C1712 0.929 . S
H1705 C1714 0.930 . S
H1706 C1716 0.930 . S
H1707 C1719 0.929 . S
H1708 C1722 0.930 . S
H1709 C1724 0.960 . S
H1710 C1724 0.960 . S
H1711 C1724 0.960 . S
C1712 H1704 0.929 . S
C1712 C1713 1.377 1_545 S
C1712 C1714 1.384 . S
C1713 C1712 1.377 1_565 S
C1713 C1719 1.390 . S
C1714 H1705 0.930 . S
C1714 C1712 1.384 . S
C1714 C1715 1.372 1_545 S
C1715 C1714 1.372 1_565 S
C1715 C1716 1.400 . S
C1715 C1720 1.473 1_565 S
C1716 H1706 0.930 . S
C1716 C1715 1.400 . S
C1716 C1719 1.386 . S
H1717 C1733 0.930 . S
H1718 C1734 0.931 . S
C1719 H1707 0.929 . S
C1719 C1713 1.390 . S
C1719 C1716 1.386 . S
C1720 C1715 1.473 1_545 S
C1720 C1722 1.419 . S
C1720 C1723 1.396 1_545 S
H1721 C1727 0.930 . S
C1722 H1708 0.930 . S
C1722 C1720 1.419 . S
C1722 C1725 1.403 . S
C1723 C1720 1.396 1_565 S
C1723 C1724 1.524 . S
C1723 C1727 1.400 . S
C1724 H1709 0.960 . S
C1724 H1710 0.960 . S
C1724 H1711 0.960 . S
C1724 C1723 1.524 . S
C1725 C1722 1.403 . S
C1725 C1726 1.392 . S
C1725 C1729 1.495 . S
C1726 C1725 1.392 . S
C1726 C1727 1.385 1_545 S
C1726 C1728 1.478 . S
C1727 H1721 0.930 . S
C1727 C1723 1.400 . S
C1727 C1726 1.385 1_565 S
C1728 C1726 1.478 . S
C1728 C1730 1.381 . S
C1728 C1734 1.383 1_545 S
C1729 C1725 1.495 . S
C1729 H1735 0.959 . S
C1729 H1736 0.961 . S
C1729 H1737 0.960 . S
C1730 C1728 1.381 . S
C1730 C1731 1.394 . S
C1730 H1738 0.930 . S
C1731 C1730 1.394 . S
C1731 C1732 1.383 . S
C1731 H1739 0.929 . S
C1732 C1731 1.383 . S
C1732 C1733 1.377 1_545 S
C1733 H1717 0.930 . S
C1733 C1732 1.377 1_565 S
C1733 C1734 1.379 . S
C1734 H1718 0.931 . S
C1734 C1728 1.383 1_565 S
C1734 C1733 1.379 . S
H1735 C1729 0.959 . S
H1736 C1729 0.961 . S
H1737 C1729 0.960 . S
H1738 C1730 0.930 . S
H1739 C1731 0.929 . S
H1740 C1748 0.929 . S
H1741 C1750 0.930 . S
H1742 C1752 0.930 . S
H1743 C1755 0.929 . S
H1744 C1758 0.930 . S
H1745 C1760 0.960 . S
H1746 C1760 0.960 . S
H1747 C1760 0.960 . S
C1748 H1740 0.929 . S
C1748 C1749 1.377 . S
C1748 C1750 1.384 . S
C1749 C1748 1.377 . S
C1749 C1755 1.390 1_455 S
C1750 H1741 0.930 . S
C1750 C1748 1.384 . S
C1750 C1751 1.372 . S
C1751 C1750 1.372 . S
C1751 C1752 1.400 1_455 S
C1751 C1756 1.511 . S
C1752 H1742 0.930 . S
C1752 C1751 1.400 1_655 S
C1752 C1755 1.386 . S
H1753 C1769 0.930 . S
H1754 C1770 0.931 . S
C1755 H1743 0.929 . S
C1755 C1749 1.390 1_655 S
C1755 C1752 1.386 . S
C1756 C1751 1.511 . S
C1756 C1758 1.426 . S
C1756 C1759 1.353 1_455 S
H1757 C1763 0.930 . S
C1758 H1744 0.930 . S
C1758 C1756 1.426 . S
C1758 C1761 1.403 . S
C1759 C1756 1.353 1_655 S
C1759 C1760 1.524 . S
C1759 C1763 1.400 . S
C1760 H1745 0.960 . S
C1760 H1746 0.960 . S
C1760 H1747 0.960 . S
C1760 C1759 1.524 . S
C1761 C1758 1.403 . S
C1761 C1762 1.392 1_455 S
C1761 C1765 1.495 . S
C1762 C1761 1.392 1_655 S
C1762 C1763 1.385 . S
C1762 C1764 1.478 . S
C1763 H1757 0.930 . S
C1763 C1759 1.400 . S
C1763 C1762 1.385 . S
C1764 C1762 1.478 . S
C1764 C1766 1.382 . S
C1764 C1770 1.383 . S
C1765 C1761 1.495 . S
C1765 H1771 0.959 . S
C1765 H1772 0.961 . S
C1765 H1773 0.960 . S
C1766 C1764 1.382 . S
C1766 C1767 1.398 . S
C1766 H1774 0.926 1_655 S
C1767 C1766 1.398 . S
C1767 C1768 1.383 . S
C1767 H1775 0.929 . S
C1768 C1767 1.383 . S
C1768 C1769 1.377 . S
C1769 H1753 0.930 . S
C1769 C1768 1.377 . S
C1769 C1770 1.379 . S
C1770 H1754 0.931 . S
C1770 C1764 1.383 . S
C1770 C1769 1.379 . S
H1771 C1765 0.959 . S
H1772 C1765 0.961 . S
H1773 C1765 0.960 . S
H1774 C1766 0.926 1_455 S
H1775 C1767 0.929 . S
H1776 C1784 0.929 . S
H1777 C1786 0.930 . S
H1778 C1788 0.906 1_554 S
H1779 C1791 0.929 1_554 S
H1780 C1794 0.930 . S
H1781 C1796 0.960 . S
H1782 C1796 0.960 . S
H1783 C1796 0.960 1_554 S
C1784 H1776 0.929 . S
C1784 C1785 1.377 . S
C1784 C1786 1.384 . S
C1785 C1784 1.377 . S
C1785 C1791 1.390 . S
C1786 H1777 0.930 . S
C1786 C1784 1.384 . S
C1786 C1787 1.372 . S
C1787 C1786 1.372 . S
C1787 C1788 1.416 . S
C1787 C1792 1.490 . S
C1788 H1778 0.906 1_556 S
C1788 C1787 1.416 . S
C1788 C1791 1.393 . S
H1789 C1805 0.930 . S
H1790 C1806 0.931 . S
C1791 H1779 0.929 1_556 S
C1791 C1785 1.390 . S
C1791 C1788 1.393 . S
C1792 C1787 1.490 . S
C1792 C1794 1.395 . S
C1792 C1795 1.403 . S
H1793 C1799 0.930 . S
C1794 H1780 0.930 . S
C1794 C1792 1.395 . S
C1794 C1797 1.403 . S
C1795 C1792 1.403 . S
C1795 C1796 1.524 . S
C1795 C1799 1.400 . S
C1796 H1781 0.960 . S
C1796 H1782 0.960 . S
C1796 H1783 0.960 1_556 S
C1796 C1795 1.524 . S
C1797 C1794 1.403 . S
C1797 C1798 1.392 . S
C1797 C1801 1.495 . S
C1798 C1797 1.392 . S
C1798 C1799 1.385 . S
C1798 C1800 1.478 . S
C1799 H1793 0.930 . S
C1799 C1795 1.400 . S
C1799 C1798 1.385 . S
C1800 C1798 1.478 . S
C1800 C1802 1.381 . S
C1800 C1806 1.383 1_556 S
C1801 C1797 1.495 . S
C1801 H1807 0.959 . S
C1801 H1808 0.961 . S
C1801 H1809 0.960 . S
C1802 C1800 1.381 . S
C1802 C1803 1.394 . S
C1802 H1810 0.930 . S
C1803 C1802 1.394 . S
C1803 C1804 1.383 . S
C1803 H1811 0.929 . S
C1804 C1803 1.383 . S
C1804 C1805 1.377 1_556 S
C1805 H1789 0.930 . S
C1805 C1804 1.377 1_554 S
C1805 C1806 1.379 . S
C1806 H1790 0.931 . S
C1806 C1800 1.383 1_554 S
C1806 C1805 1.379 . S
H1807 C1801 0.959 . S
H1808 C1801 0.961 . S
H1809 C1801 0.960 . S
H1810 C1802 0.930 . S
H1811 C1803 0.929 . S
H1812 C1820 0.929 . S
H1813 C1822 0.930 . S
H1814 C1824 0.930 . S
H1815 C1827 0.929 . S
H1816 C1830 0.930 . S
H1817 C1832 0.960 . S
H1818 C1832 0.960 . S
H1819 C1832 0.960 . S
C1820 H1812 0.929 . S
C1820 C1821 1.377 . S
C1820 C1822 1.384 . S
C1821 C1820 1.377 . S
C1821 C1827 1.390 . S
C1822 H1813 0.930 . S
C1822 C1820 1.384 . S
C1822 C1823 1.372 . S
C1823 C1822 1.372 . S
C1823 C1824 1.400 . S
C1823 C1828 1.490 . S
C1824 H1814 0.930 . S
C1824 C1823 1.400 . S
C1824 C1827 1.386 . S
H1825 C1841 0.930 . S
H1826 C1842 0.931 . S
C1827 H1815 0.929 . S
C1827 C1821 1.390 . S
C1827 C1824 1.386 . S
C1828 C1823 1.490 . S
C1828 C1830 1.395 . S
C1828 C1831 1.403 . S
H1829 C1835 0.930 . S
C1830 H1816 0.930 . S
C1830 C1828 1.395 . S
C1830 C1833 1.403 . S
C1831 C1828 1.403 . S
C1831 C1832 1.524 . S
C1831 C1835 1.400 . S
C1832 H1817 0.960 . S
C1832 H1818 0.960 . S
C1832 H1819 0.960 . S
C1832 C1831 1.524 . S
C1833 C1830 1.403 . S
C1833 C1834 1.392 . S
C1833 C1837 1.495 . S
C1834 C1833 1.392 . S
C1834 C1835 1.385 . S
C1834 C1836 1.478 . S
C1835 H1829 0.930 . S
C1835 C1831 1.400 . S
C1835 C1834 1.385 . S
C1836 C1834 1.478 . S
C1836 C1838 1.381 . S
C1836 C1842 1.383 . S
C1837 C1833 1.495 . S
C1837 H1843 0.959 . S
C1837 H1844 0.961 . S
C1837 H1845 0.960 . S
C1838 C1836 1.381 . S
C1838 C1839 1.394 . S
C1838 H1846 0.930 . S
C1839 C1838 1.394 . S
C1839 C1840 1.383 . S
C1839 H1847 0.929 . S
C1840 C1839 1.383 . S
C1840 C1841 1.377 . S
C1841 H1825 0.930 . S
C1841 C1840 1.377 . S
C1841 C1842 1.379 . S
C1842 H1826 0.931 . S
C1842 C1836 1.383 . S
C1842 C1841 1.379 . S
H1843 C1837 0.959 . S
H1844 C1837 0.961 . S
H1845 C1837 0.960 . S
H1846 C1838 0.930 . S
H1847 C1839 0.929 . S
H1848 C1856 0.929 . S
H1849 C1858 0.930 . S
H1850 C1860 0.930 . S
H1851 C1863 0.929 . S
H1852 C1866 0.930 . S
H1853 C1868 0.960 . S
H1854 C1868 0.960 . S
H1855 C1868 0.960 . S
C1856 H1848 0.929 . S
C1856 C1857 1.377 . S
C1856 C1858 1.384 . S
C1857 C1856 1.377 . S
C1857 C1863 1.390 . S
C1858 H1849 0.930 . S
C1858 C1856 1.384 . S
C1858 C1859 1.372 . S
C1859 C1858 1.372 . S
C1859 C1860 1.400 . S
C1859 C1864 1.490 . S
C1860 H1850 0.930 . S
C1860 C1859 1.400 . S
C1860 C1863 1.386 . S
H1861 C1877 0.930 . S
H1862 C1878 0.931 . S
C1863 H1851 0.929 . S
C1863 C1857 1.390 . S
C1863 C1860 1.386 . S
C1864 C1859 1.490 . S
C1864 C1866 1.395 . S
C1864 C1867 1.403 . S
H1865 C1871 0.930 . S
C1866 H1852 0.930 . S
C1866 C1864 1.395 . S
C1866 C1869 1.403 . S
C1867 C1864 1.403 . S
C1867 C1868 1.524 . S
C1867 C1871 1.400 . S
C1868 H1853 0.960 . S
C1868 H1854 0.960 . S
C1868 H1855 0.960 . S
C1868 C1867 1.524 . S
C1869 C1866 1.403 . S
C1869 C1870 1.392 . S
C1869 C1873 1.495 . S
C1870 C1869 1.392 . S
C1870 C1871 1.385 . S
C1870 C1872 1.478 . S
C1871 H1865 0.930 . S
C1871 C1867 1.400 . S
C1871 C1870 1.385 . S
C1872 C1870 1.478 . S
C1872 C1874 1.381 . S
C1872 C1878 1.383 . S
C1873 C1869 1.495 . S
C1873 H1879 0.959 . S
C1873 H1880 0.961 . S
C1873 H1881 0.960 . S
C1874 C1872 1.381 . S
C1874 C1875 1.394 . S
C1874 H1882 0.930 . S
C1875 C1874 1.394 . S
C1875 C1876 1.383 . S
C1875 H1883 0.929 . S
C1876 C1875 1.383 . S
C1876 C1877 1.377 . S
C1877 H1861 0.930 . S
C1877 C1876 1.377 . S
C1877 C1878 1.379 . S
C1878 H1862 0.931 . S
C1878 C1872 1.383 . S
C1878 C1877 1.379 . S
H1879 C1873 0.959 . S
H1880 C1873 0.961 . S
H1881 C1873 0.960 . S
H1882 C1874 0.930 . S
H1883 C1875 0.929 . S
H1884 C1892 0.929 . S
H1885 C1894 0.930 . S
H1886 C1896 0.930 . S
H1887 C1899 0.929 . S
H1888 C1902 0.930 . S
H1889 C1904 0.960 . S
H1890 C1904 0.960 . S
H1891 C1904 0.960 . S
C1892 H1884 0.929 . S
C1892 C1893 1.377 . S
C1892 C1894 1.384 . S
C1893 C1892 1.377 . S
C1893 C1899 1.390 . S
C1894 H1885 0.930 . S
C1894 C1892 1.384 . S
C1894 C1895 1.372 . S
C1895 C1894 1.372 . S
C1895 C1896 1.400 . S
C1895 C1900 1.490 . S
C1896 H1886 0.930 . S
C1896 C1895 1.400 . S
C1896 C1899 1.386 . S
H1897 C1913 0.930 . S
H1898 C1914 0.931 . S
C1899 H1887 0.929 . S
C1899 C1893 1.390 . S
C1899 C1896 1.386 . S
C1900 C1895 1.490 . S
C1900 C1902 1.395 . S
C1900 C1903 1.403 . S
H1901 C1907 0.930 . S
C1902 H1888 0.930 . S
C1902 C1900 1.395 . S
C1902 C1905 1.403 . S
C1903 C1900 1.403 . S
C1903 C1904 1.524 . S
C1903 C1907 1.400 . S
C1904 H1889 0.960 . S
C1904 H1890 0.960 . S
C1904 H1891 0.960 . S
C1904 C1903 1.524 . S
C1905 C1902 1.403 . S
C1905 C1906 1.392 . S
C1905 C1909 1.495 . S
C1906 C1905 1.392 . S
C1906 C1907 1.385 . S
C1906 C1908 1.478 . S
C1907 H1901 0.930 . S
C1907 C1903 1.400 . S
C1907 C1906 1.385 . S
C1908 C1906 1.478 . S
C1908 C1910 1.381 . S
C1908 C1914 1.383 . S
C1909 C1905 1.495 . S
C1909 H1915 0.959 . S
C1909 H1916 0.961 . S
C1909 H1917 0.960 . S
C1910 C1908 1.381 . S
C1910 C1911 1.394 . S
C1910 H1918 0.930 . S
C1911 C1910 1.394 . S
C1911 C1912 1.383 . S
C1911 H1919 0.929 . S
C1912 C1911 1.383 . S
C1912 C1913 1.377 . S
C1913 H1897 0.930 . S
C1913 C1912 1.377 . S
C1913 C1914 1.379 . S
C1914 H1898 0.931 . S
C1914 C1908 1.383 . S
C1914 C1913 1.379 . S
H1915 C1909 0.959 . S
H1916 C1909 0.961 . S
H1917 C1909 0.960 . S
H1918 C1910 0.930 . S
H1919 C1911 0.929 . S
H1920 C1928 0.929 . S
H1921 C1930 0.930 . S
H1922 C1932 0.930 . S
H1923 C1935 0.929 . S
H1924 C1938 0.930 . S
H1925 C1940 0.960 . S
H1926 C1940 0.960 . S
H1927 C1940 0.960 . S
C1928 H1920 0.929 . S
C1928 C1929 1.377 . S
C1928 C1930 1.384 . S
C1929 C1928 1.377 . S
C1929 C1935 1.390 . S
C1930 H1921 0.930 . S
C1930 C1928 1.384 . S
C1930 C1931 1.372 . S
C1931 C1930 1.372 . S
C1931 C1932 1.400 . S
C1931 C1936 1.490 . S
C1932 H1922 0.930 . S
C1932 C1931 1.400 . S
C1932 C1935 1.386 . S
H1933 C1949 0.930 . S
H1934 C1950 0.931 . S
C1935 H1923 0.929 . S
C1935 C1929 1.390 . S
C1935 C1932 1.386 . S
C1936 C1931 1.490 . S
C1936 C1938 1.395 . S
C1936 C1939 1.403 . S
H1937 C1943 0.930 . S
C1938 H1924 0.930 . S
C1938 C1936 1.395 . S
C1938 C1941 1.403 . S
C1939 C1936 1.403 . S
C1939 C1940 1.524 . S
C1939 C1943 1.400 . S
C1940 H1925 0.960 . S
C1940 H1926 0.960 . S
C1940 H1927 0.960 . S
C1940 C1939 1.524 . S
C1941 C1938 1.403 . S
C1941 C1942 1.392 . S
C1941 C1945 1.495 . S
C1942 C1941 1.392 . S
C1942 C1943 1.385 . S
C1942 C1944 1.478 . S
C1943 H1937 0.930 . S
C1943 C1939 1.400 . S
C1943 C1942 1.385 . S
C1944 C1942 1.478 . S
C1944 C1946 1.381 . S
C1944 C1950 1.383 . S
C1945 C1941 1.495 . S
C1945 H1951 0.959 . S
C1945 H1952 0.961 . S
C1945 H1953 0.960 . S
C1946 C1944 1.381 . S
C1946 C1947 1.394 . S
C1946 H1954 0.930 . S
C1947 C1946 1.394 . S
C1947 C1948 1.383 . S
C1947 H1955 0.929 . S
C1948 C1947 1.383 . S
C1948 C1949 1.377 . S
C1949 H1933 0.930 . S
C1949 C1948 1.377 . S
C1949 C1950 1.379 . S
C1950 H1934 0.931 . S
C1950 C1944 1.383 . S
C1950 C1949 1.379 . S
H1951 C1945 0.959 . S
H1952 C1945 0.961 . S
H1953 C1945 0.960 . S
H1954 C1946 0.930 . S
H1955 C1947 0.929 . S
H1956 C1964 0.929 . S
H1957 C1966 0.930 . S
H1958 C1968 0.930 . S
H1959 C1971 0.929 . S
H1960 C1974 0.930 . S
H1961 C1976 0.960 . S
H1962 C1976 0.960 . S
H1963 C1976 0.960 . S
C1964 H1956 0.929 . S
C1964 C1965 1.377 . S
C1964 C1966 1.384 . S
C1965 C1964 1.377 . S
C1965 C1971 1.390 . S
C1966 H1957 0.930 . S
C1966 C1964 1.384 . S
C1966 C1967 1.372 . S
C1967 C1966 1.372 . S
C1967 C1968 1.400 . S
C1967 C1972 1.490 . S
C1968 H1958 0.930 . S
C1968 C1967 1.400 . S
C1968 C1971 1.386 . S
H1969 C1985 0.930 . S
H1970 C1986 0.931 . S
C1971 H1959 0.929 . S
C1971 C1965 1.390 . S
C1971 C1968 1.386 . S
C1972 C1967 1.490 . S
C1972 C1974 1.395 . S
C1972 C1975 1.403 . S
H1973 C1979 0.930 . S
C1974 H1960 0.930 . S
C1974 C1972 1.395 . S
C1974 C1977 1.403 . S
C1975 C1972 1.403 . S
C1975 C1976 1.524 . S
C1975 C1979 1.400 . S
C1976 H1961 0.960 . S
C1976 H1962 0.960 . S
C1976 H1963 0.960 . S
C1976 C1975 1.524 . S
C1977 C1974 1.403 . S
C1977 C1978 1.392 . S
C1977 C1981 1.495 . S
C1978 C1977 1.392 . S
C1978 C1979 1.385 . S
C1978 C1980 1.478 . S
C1979 H1973 0.930 . S
C1979 C1975 1.400 . S
C1979 C1978 1.385 . S
C1980 C1978 1.478 . S
C1980 C1982 1.381 . S
C1980 C1986 1.383 . S
C1981 C1977 1.495 . S
C1981 H1987 0.959 . S
C1981 H1988 0.961 . S
C1981 H1989 0.960 . S
C1982 C1980 1.381 . S
C1982 C1983 1.394 . S
C1982 H1990 0.930 . S
C1983 C1982 1.394 . S
C1983 C1984 1.383 . S
C1983 H1991 0.929 . S
C1984 C1983 1.383 . S
C1984 C1985 1.377 . S
C1985 H1969 0.930 . S
C1985 C1984 1.377 . S
C1985 C1986 1.379 . S
C1986 H1970 0.931 . S
C1986 C1980 1.383 . S
C1986 C1985 1.379 . S
H1987 C1981 0.959 . S
H1988 C1981 0.961 . S
H1989 C1981 0.960 . S
H1990 C1982 0.930 . S
H1991 C1983 0.929 . S
H1992 C2000 0.929 . S
H1993 C2002 0.930 . S
H1994 C2004 0.930 . S
H1995 C2007 0.929 . S
H1996 C2010 0.930 . S
H1997 C2012 0.960 . S
H1998 C2012 0.960 . S
H1999 C2012 0.960 . S
C2000 H1992 0.929 . S
C2000 C2001 1.377 . S
C2000 C2002 1.384 . S
C2001 C2000 1.377 . S
C2001 C2007 1.390 . S
C2002 H1993 0.930 . S
C2002 C2000 1.384 . S
C2002 C2003 1.372 . S
C2003 C2002 1.372 . S
C2003 C2004 1.400 . S
C2003 C2008 1.490 . S
C2004 H1994 0.930 . S
C2004 C2003 1.400 . S
C2004 C2007 1.386 . S
H2005 C2021 0.930 . S
H2006 C2022 0.931 . S
C2007 H1995 0.929 . S
C2007 C2001 1.390 . S
C2007 C2004 1.386 . S
C2008 C2003 1.490 . S
C2008 C2010 1.395 . S
C2008 C2011 1.403 . S
H2009 C2015 0.930 . S
C2010 H1996 0.930 . S
C2010 C2008 1.395 . S
C2010 C2013 1.403 . S
C2011 C2008 1.403 . S
C2011 C2012 1.524 . S
C2011 C2015 1.400 . S
C2012 H1997 0.960 . S
C2012 H1998 0.960 . S
C2012 H1999 0.960 . S
C2012 C2011 1.524 . S
C2013 C2010 1.403 . S
C2013 C2014 1.392 . S
C2013 C2017 1.495 . S
C2014 C2013 1.392 . S
C2014 C2015 1.385 . S
C2014 C2016 1.478 . S
C2015 H2009 0.930 . S
C2015 C2011 1.400 . S
C2015 C2014 1.385 . S
C2016 C2014 1.478 . S
C2016 C2018 1.381 . S
C2016 C2022 1.383 . S
C2017 C2013 1.495 . S
C2017 H2023 0.959 . S
C2017 H2024 0.961 . S
C2017 H2025 0.960 . S
C2018 C2016 1.381 . S
C2018 C2019 1.394 . S
C2018 H2026 0.930 . S
C2019 C2018 1.394 . S
C2019 C2020 1.383 . S
C2019 H2027 0.929 . S
C2020 C2019 1.383 . S
C2020 C2021 1.377 . S
C2021 H2005 0.930 . S
C2021 C2020 1.377 . S
C2021 C2022 1.379 . S
C2022 H2006 0.931 . S
C2022 C2016 1.383 . S
C2022 C2021 1.379 . S
H2023 C2017 0.959 . S
H2024 C2017 0.961 . S
H2025 C2017 0.960 . S
H2026 C2018 0.930 . S
H2027 C2019 0.929 . S
H2028 C2036 0.929 . S
H2029 C2038 0.930 . S
H2030 C2040 0.930 . S
H2031 C2043 0.929 . S
H2032 C2046 0.930 . S
H2033 C2048 0.960 . S
H2034 C2048 0.960 . S
H2035 C2048 0.960 . S
C2036 H2028 0.929 . S
C2036 C2037 1.377 . S
C2036 C2038 1.384 . S
C2037 C2036 1.377 . S
C2037 C2043 1.390 . S
C2038 H2029 0.930 . S
C2038 C2036 1.384 . S
C2038 C2039 1.372 . S
C2039 C2038 1.372 . S
C2039 C2040 1.400 . S
C2039 C2044 1.490 . S
C2040 H2030 0.930 . S
C2040 C2039 1.400 . S
C2040 C2043 1.386 . S
H2041 C2057 0.930 . S
H2042 C2058 0.931 . S
C2043 H2031 0.929 . S
C2043 C2037 1.390 . S
C2043 C2040 1.386 . S
C2044 C2039 1.490 . S
C2044 C2046 1.395 . S
C2044 C2047 1.403 . S
H2045 C2051 0.930 . S
C2046 H2032 0.930 . S
C2046 C2044 1.395 . S
C2046 C2049 1.403 . S
C2047 C2044 1.403 . S
C2047 C2048 1.524 . S
C2047 C2051 1.400 . S
C2048 H2033 0.960 . S
C2048 H2034 0.960 . S
C2048 H2035 0.960 . S
C2048 C2047 1.524 . S
C2049 C2046 1.403 . S
C2049 C2050 1.392 . S
C2049 C2053 1.495 . S
C2050 C2049 1.392 . S
C2050 C2051 1.385 . S
C2050 C2052 1.478 . S
C2051 H2045 0.930 . S
C2051 C2047 1.400 . S
C2051 C2050 1.385 . S
C2052 C2050 1.478 . S
C2052 C2054 1.381 . S
C2052 C2058 1.383 . S
C2053 C2049 1.495 . S
C2053 H2059 0.959 . S
C2053 H2060 0.961 . S
C2053 H2061 0.960 . S
C2054 C2052 1.381 . S
C2054 C2055 1.394 . S
C2054 H2062 0.930 . S
C2055 C2054 1.394 . S
C2055 C2056 1.383 . S
C2055 H2063 0.929 . S
C2056 C2055 1.383 . S
C2056 C2057 1.377 . S
C2057 H2041 0.930 . S
C2057 C2056 1.377 . S
C2057 C2058 1.379 . S
C2058 H2042 0.931 . S
C2058 C2052 1.383 . S
C2058 C2057 1.379 . S
H2059 C2053 0.959 . S
H2060 C2053 0.961 . S
H2061 C2053 0.960 . S
H2062 C2054 0.930 . S
H2063 C2055 0.929 . S
H2064 C2072 0.929 . S
H2065 C2074 0.930 . S
H2066 C2076 0.930 . S
H2067 C2079 0.929 . S
H2068 C2082 0.930 . S
H2069 C2084 0.960 . S
H2070 C2084 0.960 . S
H2071 C2084 0.960 . S
C2072 H2064 0.929 . S
C2072 C2073 1.377 . S
C2072 C2074 1.384 . S
C2073 C2072 1.377 . S
C2073 C2079 1.390 . S
C2074 H2065 0.930 . S
C2074 C2072 1.384 . S
C2074 C2075 1.372 . S
C2075 C2074 1.372 . S
C2075 C2076 1.400 . S
C2075 C2080 1.490 . S
C2076 H2066 0.930 . S
C2076 C2075 1.400 . S
C2076 C2079 1.386 . S
H2077 C2093 0.930 . S
H2078 C2094 0.931 . S
C2079 H2067 0.929 . S
C2079 C2073 1.390 . S
C2079 C2076 1.386 . S
C2080 C2075 1.490 . S
C2080 C2082 1.395 . S
C2080 C2083 1.403 . S
H2081 C2087 0.930 . S
C2082 H2068 0.930 . S
C2082 C2080 1.395 . S
C2082 C2085 1.403 . S
C2083 C2080 1.403 . S
C2083 C2084 1.524 . S
C2083 C2087 1.400 . S
C2084 H2069 0.960 . S
C2084 H2070 0.960 . S
C2084 H2071 0.960 . S
C2084 C2083 1.524 . S
C2085 C2082 1.403 . S
C2085 C2086 1.392 . S
C2085 C2089 1.495 . S
C2086 C2085 1.392 . S
C2086 C2087 1.385 . S
C2086 C2088 1.478 . S
C2087 H2081 0.930 . S
C2087 C2083 1.400 . S
C2087 C2086 1.385 . S
C2088 C2086 1.478 . S
C2088 C2090 1.381 . S
C2088 C2094 1.383 . S
C2089 C2085 1.495 . S
C2089 H2095 0.959 . S
C2089 H2096 0.961 . S
C2089 H2097 0.960 . S
C2090 C2088 1.381 . S
C2090 C2091 1.394 . S
C2090 H2098 0.930 . S
C2091 C2090 1.394 . S
C2091 C2092 1.383 . S
C2091 H2099 0.929 . S
C2092 C2091 1.383 . S
C2092 C2093 1.377 . S
C2093 H2077 0.930 . S
C2093 C2092 1.377 . S
C2093 C2094 1.379 . S
C2094 H2078 0.931 . S
C2094 C2088 1.383 . S
C2094 C2093 1.379 . S
H2095 C2089 0.959 . S
H2096 C2089 0.961 . S
H2097 C2089 0.960 . S
H2098 C2090 0.930 . S
H2099 C2091 0.929 . S
H2100 C2108 0.929 . S
H2101 C2110 0.930 . S
H2102 C2112 0.930 . S
H2103 C2115 0.929 . S
H2104 C2118 0.930 . S
H2105 C2120 0.960 . S
H2106 C2120 0.960 1_655 S
H2107 C2120 0.960 . S
C2108 H2100 0.929 . S
C2108 C2109 1.377 1_655 S
C2108 C2110 1.384 . S
C2109 C2108 1.377 1_455 S
C2109 C2115 1.390 . S
C2110 H2101 0.930 . S
C2110 C2108 1.384 . S
C2110 C2111 1.372 1_655 S
C2111 C2110 1.372 1_455 S
C2111 C2112 1.400 . S
C2111 C2116 1.490 . S
C2112 H2102 0.930 . S
C2112 C2111 1.400 . S
C2112 C2115 1.386 . S
H2113 C2129 0.930 . S
H2114 C2130 0.931 . S
C2115 H2103 0.929 . S
C2115 C2109 1.390 . S
C2115 C2112 1.386 . S
C2116 C2111 1.490 . S
C2116 C2118 1.395 . S
C2116 C2119 1.403 . S
H2117 C2123 0.930 . S
C2118 H2104 0.930 . S
C2118 C2116 1.395 . S
C2118 C2121 1.403 1_455 S
C2119 C2116 1.403 . S
C2119 C2120 1.524 . S
C2119 C2123 1.400 . S
C2120 H2105 0.960 . S
C2120 H2106 0.960 1_455 S
C2120 H2107 0.960 . S
C2120 C2119 1.524 . S
C2121 C2118 1.403 1_655 S
C2121 C2122 1.388 . S
C2121 C2125 1.495 . S
C2122 C2121 1.388 . S
C2122 C2123 1.379 1_655 S
C2122 C2124 1.488 . S
C2123 H2117 0.930 . S
C2123 C2119 1.400 . S
C2123 C2122 1.379 1_455 S
C2124 C2122 1.488 . S
C2124 C2126 1.381 . S
C2124 C2130 1.383 1_655 S
C2125 C2121 1.495 . S
C2125 H2131 0.959 . S
C2125 H2132 0.961 1_655 S
C2125 H2133 0.960 . S
C2126 C2124 1.381 . S
C2126 C2127 1.394 . S
C2126 H2134 0.930 . S
C2127 C2126 1.394 . S
C2127 C2128 1.383 . S
C2127 H2135 0.929 . S
C2128 C2127 1.383 . S
C2128 C2129 1.377 1_655 S
C2129 H2113 0.930 . S
C2129 C2128 1.377 1_455 S
C2129 C2130 1.379 . S
C2130 H2114 0.931 . S
C2130 C2124 1.383 1_455 S
C2130 C2129 1.379 . S
H2131 C2125 0.959 . S
H2132 C2125 0.961 1_455 S
H2133 C2125 0.960 . S
H2134 C2126 0.930 . S
H2135 C2127 0.929 . S
H2136 C2144 0.929 . S
H2137 C2146 0.930 . S
H2138 C2148 0.930 . S
H2139 C2151 0.929 . S
H2140 C2154 0.930 . S
H2141 C2156 0.960 . S
H2142 C2156 0.960 . S
H2143 C2156 0.960 . S
C2144 H2136 0.929 . S
C2144 C2145 1.377 . S
C2144 C2146 1.384 . S
C2145 C2144 1.377 . S
C2145 C2151 1.390 . S
C2146 H2137 0.930 . S
C2146 C2144 1.384 . S
C2146 C2147 1.372 . S
C2147 C2146 1.372 . S
C2147 C2148 1.400 . S
C2147 C2152 1.490 . S
C2148 H2138 0.930 . S
C2148 C2147 1.400 . S
C2148 C2151 1.386 . S
H2149 C2165 0.930 . S
H2150 C2166 0.931 . S
C2151 H2139 0.929 . S
C2151 C2145 1.390 . S
C2151 C2148 1.386 . S
C2152 C2147 1.490 . S
C2152 C2154 1.395 . S
C2152 C2155 1.403 . S
H2153 C2159 0.930 . S
C2154 H2140 0.930 . S
C2154 C2152 1.395 . S
C2154 C2157 1.403 . S
C2155 C2152 1.403 . S
C2155 C2156 1.524 . S
C2155 C2159 1.400 . S
C2156 H2141 0.960 . S
C2156 H2142 0.960 . S
C2156 H2143 0.960 . S
C2156 C2155 1.524 . S
C2157 C2154 1.403 . S
C2157 C2158 1.392 . S
C2157 C2161 1.495 . S
C2158 C2157 1.392 . S
C2158 C2159 1.385 . S
C2158 C2160 1.478 . S
C2159 H2153 0.930 . S
C2159 C2155 1.400 . S
C2159 C2158 1.385 . S
C2160 C2158 1.478 . S
C2160 C2162 1.381 . S
C2160 C2166 1.383 . S
C2161 C2157 1.495 . S
C2161 H2167 0.959 . S
C2161 H2168 0.961 . S
C2161 H2169 0.960 . S
C2162 C2160 1.381 . S
C2162 C2163 1.394 . S
C2162 H2170 0.930 . S
C2163 C2162 1.394 . S
C2163 C2164 1.383 . S
C2163 H2171 0.929 . S
C2164 C2163 1.383 . S
C2164 C2165 1.377 . S
C2165 H2149 0.930 . S
C2165 C2164 1.377 . S
C2165 C2166 1.379 . S
C2166 H2150 0.931 . S
C2166 C2160 1.383 . S
C2166 C2165 1.379 . S
H2167 C2161 0.959 . S
H2168 C2161 0.961 . S
H2169 C2161 0.960 . S
H2170 C2162 0.930 . S
H2171 C2163 0.929 . S
H2172 C2180 0.929 . S
H2173 C2182 0.930 . S
H2174 C2184 0.930 . S
H2175 C2187 0.929 . S
H2176 C2190 0.930 . S
H2177 C2192 0.960 . S
H2178 C2192 0.960 . S
H2179 C2192 0.960 . S
C2180 H2172 0.929 . S
C2180 C2181 1.377 . S
C2180 C2182 1.384 . S
C2181 C2180 1.377 . S
C2181 C2187 1.390 . S
C2182 H2173 0.930 . S
C2182 C2180 1.384 . S
C2182 C2183 1.372 . S
C2183 C2182 1.372 . S
C2183 C2184 1.400 . S
C2183 C2188 1.490 . S
C2184 H2174 0.930 . S
C2184 C2183 1.400 . S
C2184 C2187 1.386 . S
H2185 C2201 0.930 . S
H2186 C2202 0.931 . S
C2187 H2175 0.929 . S
C2187 C2181 1.390 . S
C2187 C2184 1.386 . S
C2188 C2183 1.490 . S
C2188 C2190 1.395 . S
C2188 C2191 1.403 . S
H2189 C2195 0.930 . S
C2190 H2176 0.930 . S
C2190 C2188 1.395 . S
C2190 C2193 1.403 . S
C2191 C2188 1.403 . S
C2191 C2192 1.524 . S
C2191 C2195 1.400 . S
C2192 H2177 0.960 . S
C2192 H2178 0.960 . S
C2192 H2179 0.960 . S
C2192 C2191 1.524 . S
C2193 C2190 1.403 . S
C2193 C2194 1.392 . S
C2193 C2197 1.495 . S
C2194 C2193 1.392 . S
C2194 C2195 1.385 . S
C2194 C2196 1.478 . S
C2195 H2189 0.930 . S
C2195 C2191 1.400 . S
C2195 C2194 1.385 . S
C2196 C2194 1.478 . S
C2196 C2198 1.381 . S
C2196 C2202 1.383 . S
C2197 C2193 1.495 . S
C2197 H2203 0.959 . S
C2197 H2204 0.961 . S
C2197 H2205 0.960 . S
C2198 C2196 1.381 . S
C2198 C2199 1.394 . S
C2198 H2206 0.930 . S
C2199 C2198 1.394 . S
C2199 C2200 1.383 . S
C2199 H2207 0.929 . S
C2200 C2199 1.383 . S
C2200 C2201 1.377 . S
C2201 H2185 0.930 . S
C2201 C2200 1.377 . S
C2201 C2202 1.379 . S
C2202 H2186 0.931 . S
C2202 C2196 1.383 . S
C2202 C2201 1.379 . S
H2203 C2197 0.959 . S
H2204 C2197 0.961 . S
H2205 C2197 0.960 . S
H2206 C2198 0.930 . S
H2207 C2199 0.929 . S
H2208 C2216 0.929 . S
H2209 C2218 0.930 . S
H2210 C2220 0.930 . S
H2211 C2223 0.929 . S
H2212 C2226 0.930 . S
H2213 C2228 0.960 . S
H2214 C2228 0.960 . S
H2215 C2228 0.960 . S
C2216 H2208 0.929 . S
C2216 C2217 1.377 . S
C2216 C2218 1.384 . S
C2217 C2216 1.377 . S
C2217 C2223 1.390 . S
C2218 H2209 0.930 . S
C2218 C2216 1.384 . S
C2218 C2219 1.372 . S
C2219 C2218 1.372 . S
C2219 C2220 1.400 . S
C2219 C2224 1.490 . S
C2220 H2210 0.930 . S
C2220 C2219 1.400 . S
C2220 C2223 1.386 . S
H2221 C2237 0.930 . S
H2222 C2238 0.931 . S
C2223 H2211 0.929 . S
C2223 C2217 1.390 . S
C2223 C2220 1.386 . S
C2224 C2219 1.490 . S
C2224 C2226 1.395 . S
C2224 C2227 1.403 . S
H2225 C2231 0.930 . S
C2226 H2212 0.930 . S
C2226 C2224 1.395 . S
C2226 C2229 1.403 . S
C2227 C2224 1.403 . S
C2227 C2228 1.524 . S
C2227 C2231 1.400 . S
C2228 H2213 0.960 . S
C2228 H2214 0.960 . S
C2228 H2215 0.960 . S
C2228 C2227 1.524 . S
C2229 C2226 1.403 . S
C2229 C2230 1.392 . S
C2229 C2233 1.495 . S
C2230 C2229 1.392 . S
C2230 C2231 1.385 . S
C2230 C2232 1.478 . S
C2231 H2225 0.930 . S
C2231 C2227 1.400 . S
C2231 C2230 1.385 . S
C2232 C2230 1.478 . S
C2232 C2234 1.381 . S
C2232 C2238 1.383 . S
C2233 C2229 1.495 . S
C2233 H2239 0.959 . S
C2233 H2240 0.961 . S
C2233 H2241 0.960 . S
C2234 C2232 1.381 . S
C2234 C2235 1.394 . S
C2234 H2242 0.930 . S
C2235 C2234 1.394 . S
C2235 C2236 1.383 . S
C2235 H2243 0.929 . S
C2236 C2235 1.383 . S
C2236 C2237 1.377 . S
C2237 H2221 0.930 . S
C2237 C2236 1.377 . S
C2237 C2238 1.379 . S
C2238 H2222 0.931 . S
C2238 C2232 1.383 . S
C2238 C2237 1.379 . S
H2239 C2233 0.959 . S
H2240 C2233 0.961 . S
H2241 C2233 0.960 . S
H2242 C2234 0.930 . S
H2243 C2235 0.929 . S
H2244 C2252 0.929 . S
H2245 C2254 0.930 . S
H2246 C2256 0.930 . S
H2247 C2259 0.929 . S
H2248 C2262 0.930 . S
H2249 C2264 0.960 . S
H2250 C2264 0.960 . S
H2251 C2264 0.960 . S
C2252 H2244 0.929 . S
C2252 C2253 1.377 . S
C2252 C2254 1.384 . S
C2253 C2252 1.377 . S
C2253 C2259 1.390 . S
C2254 H2245 0.930 . S
C2254 C2252 1.384 . S
C2254 C2255 1.372 . S
C2255 C2254 1.372 . S
C2255 C2256 1.400 . S
C2255 C2260 1.490 . S
C2256 H2246 0.930 . S
C2256 C2255 1.400 . S
C2256 C2259 1.386 . S
H2257 C2273 0.930 . S
H2258 C2274 0.931 . S
C2259 H2247 0.929 . S
C2259 C2253 1.390 . S
C2259 C2256 1.386 . S
C2260 C2255 1.490 . S
C2260 C2262 1.395 . S
C2260 C2263 1.403 . S
H2261 C2267 0.930 . S
C2262 H2248 0.930 . S
C2262 C2260 1.395 . S
C2262 C2265 1.403 . S
C2263 C2260 1.403 . S
C2263 C2264 1.524 . S
C2263 C2267 1.400 . S
C2264 H2249 0.960 . S
C2264 H2250 0.960 . S
C2264 H2251 0.960 . S
C2264 C2263 1.524 . S
C2265 C2262 1.403 . S
C2265 C2266 1.392 . S
C2265 C2269 1.495 . S
C2266 C2265 1.392 . S
C2266 C2267 1.385 . S
C2266 C2268 1.478 . S
C2267 H2261 0.930 . S
C2267 C2263 1.400 . S
C2267 C2266 1.385 . S
C2268 C2266 1.478 . S
C2268 C2270 1.381 . S
C2268 C2274 1.383 . S
C2269 C2265 1.495 . S
C2269 H2275 0.959 . S
C2269 H2276 0.961 . S
C2269 H2277 0.960 . S
C2270 C2268 1.381 . S
C2270 C2271 1.394 . S
C2270 H2278 0.930 . S
C2271 C2270 1.394 . S
C2271 C2272 1.383 . S
C2271 H2279 0.929 . S
C2272 C2271 1.383 . S
C2272 C2273 1.377 . S
C2273 H2257 0.930 . S
C2273 C2272 1.377 . S
C2273 C2274 1.379 . S
C2274 H2258 0.931 . S
C2274 C2268 1.383 . S
C2274 C2273 1.379 . S
H2275 C2269 0.959 . S
H2276 C2269 0.961 . S
H2277 C2269 0.960 . S
H2278 C2270 0.930 . S
H2279 C2271 0.929 . S
H2280 C2288 0.929 . S
H2281 C2290 0.930 . S
H2282 C2292 0.930 . S
H2283 C2295 0.929 . S
H2284 C2298 0.930 . S
H2285 C2300 0.980 . S
H2286 C2300 0.960 1_545 S
H2287 C2300 0.960 . S
C2288 H2280 0.929 . S
C2288 C2289 1.377 1_545 S
C2288 C2290 1.384 . S
C2289 C2288 1.377 1_565 S
C2289 C2295 1.390 . S
C2290 H2281 0.930 . S
C2290 C2288 1.384 . S
C2290 C2291 1.372 1_545 S
C2291 C2290 1.372 1_565 S
C2291 C2292 1.400 . S
C2291 C2296 1.490 . S
C2292 H2282 0.930 . S
C2292 C2291 1.400 . S
C2292 C2295 1.386 . S
H2293 C2309 0.930 . S
H2294 C2310 0.931 . S
C2295 H2283 0.929 . S
C2295 C2289 1.390 . S
C2295 C2292 1.386 . S
C2296 C2291 1.490 . S
C2296 C2298 1.395 . S
C2296 C2299 1.403 . S
H2297 C2303 0.944 . S
C2298 H2284 0.930 . S
C2298 C2296 1.395 . S
C2298 C2301 1.387 1_565 S
C2299 C2296 1.403 . S
C2299 C2300 1.524 . S
C2299 C2303 1.382 1_565 S
C2300 H2285 0.980 . S
C2300 H2286 0.960 1_565 S
C2300 H2287 0.960 . S
C2300 C2299 1.524 . S
C2301 C2298 1.387 1_545 S
C2301 C2302 1.404 . S
C2301 C2305 1.501 . S
C2302 C2301 1.404 . S
C2302 C2303 1.393 . S
C2302 C2304 1.478 . S
C2303 H2297 0.944 . S
C2303 C2299 1.382 1_545 S
C2303 C2302 1.393 . S
C2304 C2302 1.478 . S
C2304 C2306 1.381 . S
C2304 C2310 1.383 1_545 S
C2305 C2301 1.501 . S
C2305 H2311 0.969 . S
C2305 H2312 0.961 1_545 S
C2305 H2313 0.960 . S
C2306 C2304 1.381 . S
C2306 C2307 1.394 . S
C2306 H2314 0.930 . S
C2307 C2306 1.394 . S
C2307 C2308 1.383 . S
C2307 H2315 0.929 . S
C2308 C2307 1.383 . S
C2308 C2309 1.377 1_545 S
C2309 H2293 0.930 . S
C2309 C2308 1.377 1_565 S
C2309 C2310 1.379 . S
C2310 H2294 0.931 . S
C2310 C2304 1.383 1_565 S
C2310 C2309 1.379 . S
H2311 C2305 0.969 . S
H2312 C2305 0.961 1_565 S
H2313 C2305 0.960 . S
H2314 C2306 0.930 . S
H2315 C2307 0.929 . S
H2316 C2324 0.929 . S
H2317 C2326 0.930 1_556 S
H2318 C2328 0.930 . S
H2319 C2331 0.929 . S
H2320 C2334 0.930 . S
H2321 C2336 0.960 . S
H2322 C2336 0.960 . S
H2323 C2336 0.960 . S
C2324 H2316 0.929 . S
C2324 C2325 1.377 1_556 S
C2324 C2326 1.384 1_556 S
C2325 C2324 1.377 1_554 S
C2325 C2331 1.390 . S
C2326 H2317 0.930 1_554 S
C2326 C2324 1.384 1_554 S
C2326 C2327 1.372 . S
C2327 C2326 1.372 . S
C2327 C2328 1.400 . S
C2327 C2332 1.490 . S
C2328 H2318 0.930 . S
C2328 C2327 1.400 . S
C2328 C2331 1.386 . S
H2329 C2345 0.930 . S
H2330 C2346 0.931 . S
C2331 H2319 0.929 . S
C2331 C2325 1.390 . S
C2331 C2328 1.386 . S
C2332 C2327 1.490 . S
C2332 C2334 1.395 . S
C2332 C2335 1.403 1_554 S
H2333 C2339 0.930 1_556 S
C2334 H2320 0.930 . S
C2334 C2332 1.395 . S
C2334 C2337 1.403 . S
C2335 C2332 1.403 1_556 S
C2335 C2336 1.524 . S
C2335 C2339 1.400 1_556 S
C2336 H2321 0.960 . S
C2336 H2322 0.960 . S
C2336 H2323 0.960 . S
C2336 C2335 1.524 . S
C2337 C2334 1.403 . S
C2337 C2338 1.392 . S
C2337 C2341 1.495 . S
C2338 C2337 1.392 . S
C2338 C2339 1.385 . S
C2338 C2340 1.478 . S
C2339 H2333 0.930 1_554 S
C2339 C2335 1.400 1_554 S
C2339 C2338 1.385 . S
C2340 C2338 1.478 . S
C2340 C2342 1.381 . S
C2340 C2346 1.383 . S
C2341 C2337 1.495 . S
C2341 H2347 0.959 . S
C2341 H2348 0.961 . S
C2341 H2349 0.960 . S
C2342 C2340 1.381 . S
C2342 C2343 1.394 . S
C2342 H2350 0.930 . S
C2343 C2342 1.394 . S
C2343 C2344 1.383 . S
C2343 H2351 0.929 . S
C2344 C2343 1.383 . S
C2344 C2345 1.377 . S
C2345 H2329 0.930 . S
C2345 C2344 1.377 . S
C2345 C2346 1.379 . S
C2346 H2330 0.931 . S
C2346 C2340 1.383 . S
C2346 C2345 1.379 . S
H2347 C2341 0.959 . S
H2348 C2341 0.961 . S
H2349 C2341 0.960 . S
H2350 C2342 0.930 . S
H2351 C2343 0.929 . S
H2352 C2360 0.929 . S
H2353 C2362 0.930 . S
H2354 C2364 0.930 . S
H2355 C2367 0.929 . S
H2356 C2370 0.930 . S
H2357 C2372 0.960 . S
H2358 C2372 0.960 . S
H2359 C2372 0.960 . S
C2360 H2352 0.929 . S
C2360 C2361 1.377 . S
C2360 C2362 1.384 . S
C2361 C2360 1.377 . S
C2361 C2367 1.390 . S
C2362 H2353 0.930 . S
C2362 C2360 1.384 . S
C2362 C2363 1.372 . S
C2363 C2362 1.372 . S
C2363 C2364 1.400 . S
C2363 C2368 1.490 . S
C2364 H2354 0.930 . S
C2364 C2363 1.400 . S
C2364 C2367 1.386 . S
H2365 C2381 0.930 . S
H2366 C2382 0.931 . S
C2367 H2355 0.929 . S
C2367 C2361 1.390 . S
C2367 C2364 1.386 . S
C2368 C2363 1.490 . S
C2368 C2370 1.395 . S
C2368 C2371 1.403 . S
H2369 C2375 0.930 . S
C2370 H2356 0.930 . S
C2370 C2368 1.395 . S
C2370 C2373 1.403 . S
C2371 C2368 1.403 . S
C2371 C2372 1.524 . S
C2371 C2375 1.400 . S
C2372 H2357 0.960 . S
C2372 H2358 0.960 . S
C2372 H2359 0.960 . S
C2372 C2371 1.524 . S
C2373 C2370 1.403 . S
C2373 C2374 1.392 . S
C2373 C2377 1.495 . S
C2374 C2373 1.392 . S
C2374 C2375 1.385 . S
C2374 C2376 1.478 . S
C2375 H2369 0.930 . S
C2375 C2371 1.400 . S
C2375 C2374 1.385 . S
C2376 C2374 1.478 . S
C2376 C2378 1.381 . S
C2376 C2382 1.383 . S
C2377 C2373 1.495 . S
C2377 H2383 0.959 . S
C2377 H2384 0.961 . S
C2377 H2385 0.960 . S
C2378 C2376 1.381 . S
C2378 C2379 1.394 . S
C2378 H2386 0.930 . S
C2379 C2378 1.394 . S
C2379 C2380 1.383 . S
C2379 H2387 0.929 . S
C2380 C2379 1.383 . S
C2380 C2381 1.377 . S
C2381 H2365 0.930 . S
C2381 C2380 1.377 . S
C2381 C2382 1.379 . S
C2382 H2366 0.931 . S
C2382 C2376 1.383 . S
C2382 C2381 1.379 . S
H2383 C2377 0.959 . S
H2384 C2377 0.961 . S
H2385 C2377 0.960 . S
H2386 C2378 0.930 . S
H2387 C2379 0.929 . S
H2388 C2396 0.929 . S
H2389 C2398 0.930 . S
H2390 C2400 0.930 . S
H2391 C2403 0.929 . S
H2392 C2406 0.930 . S
H2393 C2408 0.960 . S
H2394 C2408 0.960 . S
H2395 C2408 0.960 . S
C2396 H2388 0.929 . S
C2396 C2397 1.377 . S
C2396 C2398 1.384 . S
C2397 C2396 1.377 . S
C2397 C2403 1.390 . S
C2398 H2389 0.930 . S
C2398 C2396 1.384 . S
C2398 C2399 1.372 . S
C2399 C2398 1.372 . S
C2399 C2400 1.400 . S
C2399 C2404 1.490 . S
C2400 H2390 0.930 . S
C2400 C2399 1.400 . S
C2400 C2403 1.386 . S
H2401 C2417 0.930 . S
H2402 C2418 0.931 . S
C2403 H2391 0.929 . S
C2403 C2397 1.390 . S
C2403 C2400 1.386 . S
C2404 C2399 1.490 . S
C2404 C2406 1.395 . S
C2404 C2407 1.403 . S
H2405 C2411 0.930 . S
C2406 H2392 0.930 . S
C2406 C2404 1.395 . S
C2406 C2409 1.403 . S
C2407 C2404 1.403 . S
C2407 C2408 1.524 . S
C2407 C2411 1.400 . S
C2408 H2393 0.960 . S
C2408 H2394 0.960 . S
C2408 H2395 0.960 . S
C2408 C2407 1.524 . S
C2409 C2406 1.403 . S
C2409 C2410 1.392 . S
C2409 C2413 1.495 . S
C2410 C2409 1.392 . S
C2410 C2411 1.385 . S
C2410 C2412 1.478 . S
C2411 H2405 0.930 . S
C2411 C2407 1.400 . S
C2411 C2410 1.385 . S
C2412 C2410 1.478 . S
C2412 C2414 1.381 . S
C2412 C2418 1.383 . S
C2413 C2409 1.495 . S
C2413 H2419 0.959 . S
C2413 H2420 0.961 . S
C2413 H2421 0.960 . S
C2414 C2412 1.381 . S
C2414 C2415 1.394 . S
C2414 H2422 0.930 . S
C2415 C2414 1.394 . S
C2415 C2416 1.383 . S
C2415 H2423 0.929 . S
C2416 C2415 1.383 . S
C2416 C2417 1.377 . S
C2417 H2401 0.930 . S
C2417 C2416 1.377 . S
C2417 C2418 1.379 . S
C2418 H2402 0.931 . S
C2418 C2412 1.383 . S
C2418 C2417 1.379 . S
H2419 C2413 0.959 . S
H2420 C2413 0.961 . S
H2421 C2413 0.960 . S
H2422 C2414 0.930 . S
H2423 C2415 0.929 . S
H2424 C2432 0.929 . S
H2425 C2434 0.930 . S
H2426 C2436 0.930 . S
H2427 C2439 0.929 . S
H2428 C2442 0.930 . S
H2429 C2444 0.960 . S
H2430 C2444 0.960 . S
H2431 C2444 0.960 . S
C2432 H2424 0.929 . S
C2432 C2433 1.377 . S
C2432 C2434 1.384 . S
C2433 C2432 1.377 . S
C2433 C2439 1.390 . S
C2434 H2425 0.930 . S
C2434 C2432 1.384 . S
C2434 C2435 1.372 . S
C2435 C2434 1.372 . S
C2435 C2436 1.400 . S
C2435 C2440 1.490 . S
C2436 H2426 0.930 . S
C2436 C2435 1.400 . S
C2436 C2439 1.386 . S
H2437 C2453 0.930 . S
H2438 C2454 0.931 . S
C2439 H2427 0.929 . S
C2439 C2433 1.390 . S
C2439 C2436 1.386 . S
C2440 C2435 1.490 . S
C2440 C2442 1.395 . S
C2440 C2443 1.403 . S
H2441 C2447 0.930 . S
C2442 H2428 0.930 . S
C2442 C2440 1.395 . S
C2442 C2445 1.403 . S
C2443 C2440 1.403 . S
C2443 C2444 1.524 . S
C2443 C2447 1.400 . S
C2444 H2429 0.960 . S
C2444 H2430 0.960 . S
C2444 H2431 0.960 . S
C2444 C2443 1.524 . S
C2445 C2442 1.403 . S
C2445 C2446 1.392 . S
C2445 C2449 1.495 . S
C2446 C2445 1.392 . S
C2446 C2447 1.385 . S
C2446 C2448 1.478 . S
C2447 H2441 0.930 . S
C2447 C2443 1.400 . S
C2447 C2446 1.385 . S
C2448 C2446 1.478 . S
C2448 C2450 1.381 . S
C2448 C2454 1.383 . S
C2449 C2445 1.495 . S
C2449 H2455 0.959 . S
C2449 H2456 0.961 . S
C2449 H2457 0.960 . S
C2450 C2448 1.381 . S
C2450 C2451 1.394 . S
C2450 H2458 0.930 . S
C2451 C2450 1.394 . S
C2451 C2452 1.383 . S
C2451 H2459 0.929 . S
C2452 C2451 1.383 . S
C2452 C2453 1.377 . S
C2453 H2437 0.930 . S
C2453 C2452 1.377 . S
C2453 C2454 1.379 . S
C2454 H2438 0.931 . S
C2454 C2448 1.383 . S
C2454 C2453 1.379 . S
H2455 C2449 0.959 . S
H2456 C2449 0.961 . S
H2457 C2449 0.960 . S
H2458 C2450 0.930 . S
H2459 C2451 0.929 . S
H2460 C2468 0.929 . S
H2461 C2470 0.930 . S
H2462 C2472 0.930 . S
H2463 C2475 0.929 . S
H2464 C2478 0.930 . S
H2465 C2480 0.960 . S
H2466 C2480 0.960 . S
H2467 C2480 0.960 . S
C2468 H2460 0.929 . S
C2468 C2469 1.377 . S
C2468 C2470 1.384 . S
C2469 C2468 1.377 . S
C2469 C2475 1.390 . S
C2470 H2461 0.930 . S
C2470 C2468 1.384 . S
C2470 C2471 1.372 . S
C2471 C2470 1.372 . S
C2471 C2472 1.400 . S
C2471 C2476 1.490 . S
C2472 H2462 0.930 . S
C2472 C2471 1.400 . S
C2472 C2475 1.386 . S
H2473 C2489 0.930 . S
H2474 C2490 0.931 . S
C2475 H2463 0.929 . S
C2475 C2469 1.390 . S
C2475 C2472 1.386 . S
C2476 C2471 1.490 . S
C2476 C2478 1.395 . S
C2476 C2479 1.403 . S
H2477 C2483 0.930 . S
C2478 H2464 0.930 . S
C2478 C2476 1.395 . S
C2478 C2481 1.403 . S
C2479 C2476 1.403 . S
C2479 C2480 1.524 . S
C2479 C2483 1.400 . S
C2480 H2465 0.960 . S
C2480 H2466 0.960 . S
C2480 H2467 0.960 . S
C2480 C2479 1.524 . S
C2481 C2478 1.403 . S
C2481 C2482 1.392 . S
C2481 C2485 1.495 . S
C2482 C2481 1.392 . S
C2482 C2483 1.385 . S
C2482 C2484 1.478 . S
C2483 H2477 0.930 . S
C2483 C2479 1.400 . S
C2483 C2482 1.385 . S
C2484 C2482 1.478 . S
C2484 C2486 1.381 . S
C2484 C2490 1.383 . S
C2485 C2481 1.495 . S
C2485 H2491 0.959 . S
C2485 H2492 0.961 . S
C2485 H2493 0.960 . S
C2486 C2484 1.381 . S
C2486 C2487 1.394 . S
C2486 H2494 0.930 . S
C2487 C2486 1.394 . S
C2487 C2488 1.383 . S
C2487 H2495 0.929 . S
C2488 C2487 1.383 . S
C2488 C2489 1.377 . S
C2489 H2473 0.930 . S
C2489 C2488 1.377 . S
C2489 C2490 1.379 . S
C2490 H2474 0.931 . S
C2490 C2484 1.383 . S
C2490 C2489 1.379 . S
H2491 C2485 0.959 . S
H2492 C2485 0.961 . S
H2493 C2485 0.960 . S
H2494 C2486 0.930 . S
H2495 C2487 0.929 . S
H2496 C2504 0.929 . S
H2497 C2506 0.930 . S
H2498 C2508 0.930 . S
H2499 C2511 0.929 . S
H2500 C2514 0.930 . S
H2501 C2516 0.960 . S
H2502 C2516 0.960 . S
H2503 C2516 0.960 . S
C2504 H2496 0.929 . S
C2504 C2505 1.377 . S
C2504 C2506 1.384 . S
C2505 C2504 1.377 . S
C2505 C2511 1.390 . S
C2506 H2497 0.930 . S
C2506 C2504 1.384 . S
C2506 C2507 1.372 . S
C2507 C2506 1.372 . S
C2507 C2508 1.400 . S
C2507 C2512 1.490 . S
C2508 H2498 0.930 . S
C2508 C2507 1.400 . S
C2508 C2511 1.386 . S
H2509 C2525 0.930 . S
H2510 C2526 0.931 . S
C2511 H2499 0.929 . S
C2511 C2505 1.390 . S
C2511 C2508 1.386 . S
C2512 C2507 1.490 . S
C2512 C2514 1.395 . S
C2512 C2515 1.403 . S
H2513 C2519 0.930 . S
C2514 H2500 0.930 . S
C2514 C2512 1.395 . S
C2514 C2517 1.403 . S
C2515 C2512 1.403 . S
C2515 C2516 1.524 . S
C2515 C2519 1.400 . S
C2516 H2501 0.960 . S
C2516 H2502 0.960 . S
C2516 H2503 0.960 . S
C2516 C2515 1.524 . S
C2517 C2514 1.403 . S
C2517 C2518 1.392 . S
C2517 C2521 1.495 . S
C2518 C2517 1.392 . S
C2518 C2519 1.385 . S
C2518 C2520 1.478 . S
C2519 H2513 0.930 . S
C2519 C2515 1.400 . S
C2519 C2518 1.385 . S
C2520 C2518 1.478 . S
C2520 C2522 1.381 . S
C2520 C2526 1.383 . S
C2521 C2517 1.495 . S
C2521 H2527 0.959 . S
C2521 H2528 0.961 . S
C2521 H2529 0.960 . S
C2522 C2520 1.381 . S
C2522 C2523 1.394 . S
C2522 H2530 0.930 . S
C2523 C2522 1.394 . S
C2523 C2524 1.383 . S
C2523 H2531 0.929 . S
C2524 C2523 1.383 . S
C2524 C2525 1.377 . S
C2525 H2509 0.930 . S
C2525 C2524 1.377 . S
C2525 C2526 1.379 . S
C2526 H2510 0.931 . S
C2526 C2520 1.383 . S
C2526 C2525 1.379 . S
H2527 C2521 0.959 . S
H2528 C2521 0.961 . S
H2529 C2521 0.960 . S
H2530 C2522 0.930 . S
H2531 C2523 0.929 . S
H2532 C2540 0.929 . S
H2533 C2542 0.930 . S
H2534 C2544 0.930 . S
H2535 C2547 0.929 . S
H2536 C2550 0.930 . S
H2537 C2552 0.960 . S
H2538 C2552 0.960 . S
H2539 C2552 0.960 . S
C2540 H2532 0.929 . S
C2540 C2541 1.377 . S
C2540 C2542 1.384 . S
C2541 C2540 1.377 . S
C2541 C2547 1.390 . S
C2542 H2533 0.930 . S
C2542 C2540 1.384 . S
C2542 C2543 1.372 . S
C2543 C2542 1.372 . S
C2543 C2544 1.400 . S
C2543 C2548 1.490 . S
C2544 H2534 0.930 . S
C2544 C2543 1.400 . S
C2544 C2547 1.386 . S
H2545 C2561 0.930 . S
H2546 C2562 0.931 . S
C2547 H2535 0.929 . S
C2547 C2541 1.390 . S
C2547 C2544 1.386 . S
C2548 C2543 1.490 . S
C2548 C2550 1.395 . S
C2548 C2551 1.403 . S
H2549 C2555 0.930 . S
C2550 H2536 0.930 . S
C2550 C2548 1.395 . S
C2550 C2553 1.403 . S
C2551 C2548 1.403 . S
C2551 C2552 1.524 . S
C2551 C2555 1.400 . S
C2552 H2537 0.960 . S
C2552 H2538 0.960 . S
C2552 H2539 0.960 . S
C2552 C2551 1.524 . S
C2553 C2550 1.403 . S
C2553 C2554 1.392 . S
C2553 C2557 1.495 . S
C2554 C2553 1.392 . S
C2554 C2555 1.385 . S
C2554 C2556 1.478 . S
C2555 H2549 0.930 . S
C2555 C2551 1.400 . S
C2555 C2554 1.385 . S
C2556 C2554 1.478 . S
C2556 C2558 1.381 . S
C2556 C2562 1.383 . S
C2557 C2553 1.495 . S
C2557 H2563 0.959 . S
C2557 H2564 0.961 . S
C2557 H2565 0.960 . S
C2558 C2556 1.381 . S
C2558 C2559 1.394 . S
C2558 H2566 0.930 . S
C2559 C2558 1.394 . S
C2559 C2560 1.383 . S
C2559 H2567 0.929 . S
C2560 C2559 1.383 . S
C2560 C2561 1.377 . S
C2561 H2545 0.930 . S
C2561 C2560 1.377 . S
C2561 C2562 1.379 . S
C2562 H2546 0.931 . S
C2562 C2556 1.383 . S
C2562 C2561 1.379 . S
H2563 C2557 0.959 . S
H2564 C2557 0.961 . S
H2565 C2557 0.960 . S
H2566 C2558 0.930 . S
H2567 C2559 0.929 . S
H2568 C2576 0.929 . S
H2569 C2578 0.930 . S
H2570 C2580 0.930 . S
H2571 C2583 0.929 . S
H2572 C2586 0.930 . S
H2573 C2588 0.960 . S
H2574 C2588 0.960 . S
H2575 C2588 0.960 . S
C2576 H2568 0.929 . S
C2576 C2577 1.377 . S
C2576 C2578 1.384 . S
C2577 C2576 1.377 . S
C2577 C2583 1.390 . S
C2578 H2569 0.930 . S
C2578 C2576 1.384 . S
C2578 C2579 1.372 . S
C2579 C2578 1.372 . S
C2579 C2580 1.400 . S
C2579 C2584 1.490 . S
C2580 H2570 0.930 . S
C2580 C2579 1.400 . S
C2580 C2583 1.386 . S
H2581 C2597 0.930 . S
H2582 C2598 0.931 . S
C2583 H2571 0.929 . S
C2583 C2577 1.390 . S
C2583 C2580 1.386 . S
C2584 C2579 1.490 . S
C2584 C2586 1.395 . S
C2584 C2587 1.403 . S
H2585 C2591 0.930 . S
C2586 H2572 0.930 . S
C2586 C2584 1.395 . S
C2586 C2589 1.403 . S
C2587 C2584 1.403 . S
C2587 C2588 1.524 . S
C2587 C2591 1.400 . S
C2588 H2573 0.960 . S
C2588 H2574 0.960 . S
C2588 H2575 0.960 . S
C2588 C2587 1.524 . S
C2589 C2586 1.403 . S
C2589 C2590 1.392 . S
C2589 C2593 1.495 . S
C2590 C2589 1.392 . S
C2590 C2591 1.385 . S
C2590 C2592 1.478 . S
C2591 H2585 0.930 . S
C2591 C2587 1.400 . S
C2591 C2590 1.385 . S
C2592 C2590 1.478 . S
C2592 C2594 1.381 . S
C2592 C2598 1.383 . S
C2593 C2589 1.495 . S
C2593 H2599 0.959 . S
C2593 H2600 0.961 . S
C2593 H2601 0.960 . S
C2594 C2592 1.381 . S
C2594 C2595 1.394 . S
C2594 H2602 0.930 . S
C2595 C2594 1.394 . S
C2595 C2596 1.383 . S
C2595 H2603 0.929 . S
C2596 C2595 1.383 . S
C2596 C2597 1.377 . S
C2597 H2581 0.930 . S
C2597 C2596 1.377 . S
C2597 C2598 1.379 . S
C2598 H2582 0.931 . S
C2598 C2592 1.383 . S
C2598 C2597 1.379 . S
H2599 C2593 0.959 . S
H2600 C2593 0.961 . S
H2601 C2593 0.960 . S
H2602 C2594 0.930 . S
H2603 C2595 0.929 . S
H2604 C2612 0.929 . S
H2605 C2614 0.930 . S
H2606 C2616 0.930 . S
H2607 C2619 0.929 . S
H2608 C2622 0.930 . S
H2609 C2624 0.960 . S
H2610 C2624 0.960 . S
H2611 C2624 0.960 . S
C2612 H2604 0.929 . S
C2612 C2613 1.377 . S
C2612 C2614 1.384 . S
C2613 C2612 1.377 . S
C2613 C2619 1.390 . S
C2614 H2605 0.930 . S
C2614 C2612 1.384 . S
C2614 C2615 1.372 . S
C2615 C2614 1.372 . S
C2615 C2616 1.400 . S
C2615 C2620 1.490 . S
C2616 H2606 0.930 . S
C2616 C2615 1.400 . S
C2616 C2619 1.386 . S
H2617 C2633 0.930 . S
H2618 C2634 0.931 . S
C2619 H2607 0.929 . S
C2619 C2613 1.390 . S
C2619 C2616 1.386 . S
C2620 C2615 1.490 . S
C2620 C2622 1.395 . S
C2620 C2623 1.403 . S
H2621 C2627 0.930 . S
C2622 H2608 0.930 . S
C2622 C2620 1.395 . S
C2622 C2625 1.403 . S
C2623 C2620 1.403 . S
C2623 C2624 1.524 . S
C2623 C2627 1.400 . S
C2624 H2609 0.960 . S
C2624 H2610 0.960 . S
C2624 H2611 0.960 . S
C2624 C2623 1.524 . S
C2625 C2622 1.403 . S
C2625 C2626 1.392 . S
C2625 C2629 1.495 . S
C2626 C2625 1.392 . S
C2626 C2627 1.385 . S
C2626 C2628 1.478 . S
C2627 H2621 0.930 . S
C2627 C2623 1.400 . S
C2627 C2626 1.385 . S
C2628 C2626 1.478 . S
C2628 C2630 1.381 . S
C2628 C2634 1.383 . S
C2629 C2625 1.495 . S
C2629 H2635 0.959 . S
C2629 H2636 0.961 . S
C2629 H2637 0.960 . S
C2630 C2628 1.381 . S
C2630 C2631 1.394 . S
C2630 H2638 0.930 . S
C2631 C2630 1.394 . S
C2631 C2632 1.383 . S
C2631 H2639 0.929 . S
C2632 C2631 1.383 . S
C2632 C2633 1.377 . S
C2633 H2617 0.930 . S
C2633 C2632 1.377 . S
C2633 C2634 1.379 . S
C2634 H2618 0.931 . S
C2634 C2628 1.383 . S
C2634 C2633 1.379 . S
H2635 C2629 0.959 . S
H2636 C2629 0.961 . S
H2637 C2629 0.960 . S
H2638 C2630 0.930 . S
H2639 C2631 0.929 . S
H2640 C2648 0.929 . S
H2641 C2650 0.930 . S
H2642 C2652 0.930 . S
H2643 C2655 0.929 . S
H2644 C2658 0.930 . S
H2645 C2660 0.960 . S
H2646 C2660 0.960 . S
H2647 C2660 0.960 . S
C2648 H2640 0.929 . S
C2648 C2649 1.377 . S
C2648 C2650 1.384 . S
C2649 C2648 1.377 . S
C2649 C2655 1.390 . S
C2650 H2641 0.930 . S
C2650 C2648 1.384 . S
C2650 C2651 1.372 . S
C2651 C2650 1.372 . S
C2651 C2652 1.400 . S
C2651 C2656 1.490 . S
C2652 H2642 0.930 . S
C2652 C2651 1.400 . S
C2652 C2655 1.386 . S
H2653 C2669 0.930 . S
H2654 C2670 0.931 . S
C2655 H2643 0.929 . S
C2655 C2649 1.390 . S
C2655 C2652 1.386 . S
C2656 C2651 1.490 . S
C2656 C2658 1.395 . S
C2656 C2659 1.403 . S
H2657 C2663 0.930 . S
C2658 H2644 0.930 . S
C2658 C2656 1.395 . S
C2658 C2661 1.403 . S
C2659 C2656 1.403 . S
C2659 C2660 1.524 . S
C2659 C2663 1.400 . S
C2660 H2645 0.960 . S
C2660 H2646 0.960 . S
C2660 H2647 0.960 . S
C2660 C2659 1.524 . S
C2661 C2658 1.403 . S
C2661 C2662 1.392 . S
C2661 C2665 1.495 . S
C2662 C2661 1.392 . S
C2662 C2663 1.385 . S
C2662 C2664 1.478 . S
C2663 H2657 0.930 . S
C2663 C2659 1.400 . S
C2663 C2662 1.385 . S
C2664 C2662 1.478 . S
C2664 C2666 1.381 . S
C2664 C2670 1.383 . S
C2665 C2661 1.495 . S
C2665 H2671 0.959 . S
C2665 H2672 0.961 . S
C2665 H2673 0.960 . S
C2666 C2664 1.381 . S
C2666 C2667 1.394 . S
C2666 H2674 0.930 . S
C2667 C2666 1.394 . S
C2667 C2668 1.383 . S
C2667 H2675 0.929 . S
C2668 C2667 1.383 . S
C2668 C2669 1.377 . S
C2669 H2653 0.930 . S
C2669 C2668 1.377 . S
C2669 C2670 1.379 . S
C2670 H2654 0.931 . S
C2670 C2664 1.383 . S
C2670 C2669 1.379 . S
H2671 C2665 0.959 . S
H2672 C2665 0.961 . S
H2673 C2665 0.960 . S
H2674 C2666 0.930 . S
H2675 C2667 0.929 . S
H2676 C2684 0.929 . S
H2677 C2686 0.930 . S
H2678 C2688 0.930 . S
H2679 C2691 0.929 . S
H2680 C2694 0.930 . S
H2681 C2696 0.960 . S
H2682 C2696 0.960 . S
H2683 C2696 0.960 . S
C2684 H2676 0.929 . S
C2684 C2685 1.377 . S
C2684 C2686 1.384 . S
C2685 C2684 1.377 . S
C2685 C2691 1.390 . S
C2686 H2677 0.930 . S
C2686 C2684 1.384 . S
C2686 C2687 1.372 . S
C2687 C2686 1.372 . S
C2687 C2688 1.400 . S
C2687 C2692 1.490 . S
C2688 H2678 0.930 . S
C2688 C2687 1.400 . S
C2688 C2691 1.386 . S
H2689 C2705 0.930 . S
H2690 C2706 0.931 . S
C2691 H2679 0.929 . S
C2691 C2685 1.390 . S
C2691 C2688 1.386 . S
C2692 C2687 1.490 . S
C2692 C2694 1.395 1_554 S
C2692 C2695 1.403 . S
H2693 C2699 0.930 . S
C2694 H2680 0.930 . S
C2694 C2692 1.395 1_556 S
C2694 C2697 1.403 . S
C2695 C2692 1.403 . S
C2695 C2696 1.524 . S
C2695 C2699 1.400 . S
C2696 H2681 0.960 . S
C2696 H2682 0.960 . S
C2696 H2683 0.960 . S
C2696 C2695 1.524 . S
C2697 C2694 1.403 . S
C2697 C2698 1.392 1_556 S
C2697 C2701 1.495 . S
C2698 C2697 1.392 1_554 S
C2698 C2699 1.385 . S
C2698 C2700 1.478 . S
C2699 H2693 0.930 . S
C2699 C2695 1.400 . S
C2699 C2698 1.385 . S
C2700 C2698 1.478 . S
C2700 C2702 1.381 . S
C2700 C2706 1.383 1_554 S
C2701 C2697 1.495 . S
C2701 H2707 0.959 . S
C2701 H2708 0.961 . S
C2701 H2709 0.960 . S
C2702 C2700 1.381 . S
C2702 C2703 1.394 . S
C2702 H2710 0.930 . S
C2703 C2702 1.394 . S
C2703 C2704 1.383 . S
C2703 H2711 0.929 . S
C2704 C2703 1.383 . S
C2704 C2705 1.377 1_554 S
C2705 H2689 0.930 . S
C2705 C2704 1.377 1_556 S
C2705 C2706 1.379 . S
C2706 H2690 0.931 . S
C2706 C2700 1.383 1_556 S
C2706 C2705 1.379 . S
H2707 C2701 0.959 . S
H2708 C2701 0.961 . S
H2709 C2701 0.960 . S
H2710 C2702 0.930 . S
H2711 C2703 0.929 . S
H2712 C2720 0.929 . S
H2713 C2722 0.930 . S
H2714 C2724 0.930 . S
H2715 C2727 0.929 . S
H2716 C2730 0.930 . S
H2717 C2732 0.960 . S
H2718 C2732 0.960 . S
H2719 C2732 0.960 . S
C2720 H2712 0.929 . S
C2720 C2721 1.377 . S
C2720 C2722 1.384 . S
C2721 C2720 1.377 . S
C2721 C2727 1.390 . S
C2722 H2713 0.930 . S
C2722 C2720 1.384 . S
C2722 C2723 1.372 . S
C2723 C2722 1.372 . S
C2723 C2724 1.400 . S
C2723 C2728 1.490 . S
C2724 H2714 0.930 . S
C2724 C2723 1.400 . S
C2724 C2727 1.386 . S
H2725 C2741 0.930 . S
H2726 C2742 0.931 . S
C2727 H2715 0.929 . S
C2727 C2721 1.390 . S
C2727 C2724 1.386 . S
C2728 C2723 1.490 . S
C2728 C2730 1.395 . S
C2728 C2731 1.403 . S
H2729 C2735 0.930 . S
C2730 H2716 0.930 . S
C2730 C2728 1.395 . S
C2730 C2733 1.403 . S
C2731 C2728 1.403 . S
C2731 C2732 1.524 . S
C2731 C2735 1.400 . S
C2732 H2717 0.960 . S
C2732 H2718 0.960 . S
C2732 H2719 0.960 . S
C2732 C2731 1.524 . S
C2733 C2730 1.403 . S
C2733 C2734 1.392 . S
C2733 C2737 1.495 . S
C2734 C2733 1.392 . S
C2734 C2735 1.385 . S
C2734 C2736 1.478 . S
C2735 H2729 0.930 . S
C2735 C2731 1.400 . S
C2735 C2734 1.385 . S
C2736 C2734 1.478 . S
C2736 C2738 1.381 . S
C2736 C2742 1.383 . S
C2737 C2733 1.495 . S
C2737 H2743 0.959 . S
C2737 H2744 0.961 . S
C2737 H2745 0.960 . S
C2738 C2736 1.381 . S
C2738 C2739 1.394 . S
C2738 H2746 0.930 . S
C2739 C2738 1.394 . S
C2739 C2740 1.383 . S
C2739 H2747 0.929 . S
C2740 C2739 1.383 . S
C2740 C2741 1.377 . S
C2741 H2725 0.930 . S
C2741 C2740 1.377 . S
C2741 C2742 1.379 . S
C2742 H2726 0.931 . S
C2742 C2736 1.383 . S
C2742 C2741 1.379 . S
H2743 C2737 0.959 . S
H2744 C2737 0.961 . S
H2745 C2737 0.960 . S
H2746 C2738 0.930 . S
H2747 C2739 0.929 . S
H2748 C2756 0.929 . S
H2749 C2758 0.930 . S
H2750 C2760 0.930 . S
H2751 C2763 0.929 . S
H2752 C2766 0.930 . S
H2753 C2768 0.960 . S
H2754 C2768 0.960 . S
H2755 C2768 0.960 . S
C2756 H2748 0.929 . S
C2756 C2757 1.377 . S
C2756 C2758 1.384 . S
C2757 C2756 1.377 . S
C2757 C2763 1.390 . S
C2758 H2749 0.930 . S
C2758 C2756 1.384 . S
C2758 C2759 1.372 . S
C2759 C2758 1.372 . S
C2759 C2760 1.400 . S
C2759 C2764 1.490 . S
C2760 H2750 0.930 . S
C2760 C2759 1.400 . S
C2760 C2763 1.386 . S
H2761 C2777 0.930 . S
H2762 C2778 0.931 . S
C2763 H2751 0.929 . S
C2763 C2757 1.390 . S
C2763 C2760 1.386 . S
C2764 C2759 1.490 . S
C2764 C2766 1.395 . S
C2764 C2767 1.403 . S
H2765 C2771 0.930 . S
C2766 H2752 0.930 . S
C2766 C2764 1.395 . S
C2766 C2769 1.403 . S
C2767 C2764 1.403 . S
C2767 C2768 1.524 . S
C2767 C2771 1.400 . S
C2768 H2753 0.960 . S
C2768 H2754 0.960 . S
C2768 H2755 0.960 . S
C2768 C2767 1.524 . S
C2769 C2766 1.403 . S
C2769 C2770 1.392 . S
C2769 C2773 1.495 . S
C2770 C2769 1.392 . S
C2770 C2771 1.385 . S
C2770 C2772 1.478 . S
C2771 H2765 0.930 . S
C2771 C2767 1.400 . S
C2771 C2770 1.385 . S
C2772 C2770 1.478 . S
C2772 C2774 1.381 . S
C2772 C2778 1.383 . S
C2773 C2769 1.495 . S
C2773 H2779 0.959 . S
C2773 H2780 0.961 . S
C2773 H2781 0.960 . S
C2774 C2772 1.381 . S
C2774 C2775 1.394 . S
C2774 H2782 0.930 . S
C2775 C2774 1.394 . S
C2775 C2776 1.383 . S
C2775 H2783 0.929 . S
C2776 C2775 1.383 . S
C2776 C2777 1.377 . S
C2777 H2761 0.930 . S
C2777 C2776 1.377 . S
C2777 C2778 1.379 . S
C2778 H2762 0.931 . S
C2778 C2772 1.383 . S
C2778 C2777 1.379 . S
H2779 C2773 0.959 . S
H2780 C2773 0.961 . S
H2781 C2773 0.960 . S
H2782 C2774 0.930 . S
H2783 C2775 0.929 . S
H2784 C2792 0.929 . S
H2785 C2794 0.930 . S
H2786 C2796 0.930 . S
H2787 C2799 0.929 . S
H2788 C2802 0.930 . S
H2789 C2804 0.960 . S
H2790 C2804 0.960 . S
H2791 C2804 0.960 . S
C2792 H2784 0.929 . S
C2792 C2793 1.377 . S
C2792 C2794 1.384 . S
C2793 C2792 1.377 . S
C2793 C2799 1.390 . S
C2794 H2785 0.930 . S
C2794 C2792 1.384 . S
C2794 C2795 1.372 . S
C2795 C2794 1.372 . S
C2795 C2796 1.400 . S
C2795 C2800 1.490 . S
C2796 H2786 0.930 . S
C2796 C2795 1.400 . S
C2796 C2799 1.386 . S
H2797 C2813 0.930 . S
H2798 C2814 0.931 . S
C2799 H2787 0.929 . S
C2799 C2793 1.390 . S
C2799 C2796 1.386 . S
C2800 C2795 1.490 . S
C2800 C2802 1.395 . S
C2800 C2803 1.403 . S
H2801 C2807 0.930 . S
C2802 H2788 0.930 . S
C2802 C2800 1.395 . S
C2802 C2805 1.403 . S
C2803 C2800 1.403 . S
C2803 C2804 1.524 . S
C2803 C2807 1.400 . S
C2804 H2789 0.960 . S
C2804 H2790 0.960 . S
C2804 H2791 0.960 . S
C2804 C2803 1.524 . S
C2805 C2802 1.403 . S
C2805 C2806 1.392 . S
C2805 C2809 1.495 . S
C2806 C2805 1.392 . S
C2806 C2807 1.385 . S
C2806 C2808 1.478 . S
C2807 H2801 0.930 . S
C2807 C2803 1.400 . S
C2807 C2806 1.385 . S
C2808 C2806 1.478 . S
C2808 C2810 1.381 . S
C2808 C2814 1.383 . S
C2809 C2805 1.495 . S
C2809 H2815 0.959 . S
C2809 H2816 0.961 . S
C2809 H2817 0.960 . S
C2810 C2808 1.381 . S
C2810 C2811 1.394 . S
C2810 H2818 0.930 . S
C2811 C2810 1.394 . S
C2811 C2812 1.383 . S
C2811 H2819 0.929 . S
C2812 C2811 1.383 . S
C2812 C2813 1.377 . S
C2813 H2797 0.930 . S
C2813 C2812 1.377 . S
C2813 C2814 1.379 . S
C2814 H2798 0.931 . S
C2814 C2808 1.383 . S
C2814 C2813 1.379 . S
H2815 C2809 0.959 . S
H2816 C2809 0.961 . S
H2817 C2809 0.960 . S
H2818 C2810 0.930 . S
H2819 C2811 0.929 . S
H2820 C2828 0.929 . S
H2821 C2830 0.930 . S
H2822 C2832 0.930 . S
H2823 C2835 0.929 . S
H2824 C2838 0.930 . S
H2825 C2840 0.960 . S
H2826 C2840 0.960 . S
H2827 C2840 0.960 . S
C2828 H2820 0.929 . S
C2828 C2829 1.377 . S
C2828 C2830 1.384 . S
C2829 C2828 1.377 . S
C2829 C2835 1.390 . S
C2830 H2821 0.930 . S
C2830 C2828 1.384 . S
C2830 C2831 1.372 . S
C2831 C2830 1.372 . S
C2831 C2832 1.400 . S
C2831 C2836 1.490 . S
C2832 H2822 0.930 . S
C2832 C2831 1.400 . S
C2832 C2835 1.386 . S
H2833 C2849 0.930 . S
H2834 C2850 0.931 . S
C2835 H2823 0.929 . S
C2835 C2829 1.390 . S
C2835 C2832 1.386 . S
C2836 C2831 1.490 . S
C2836 C2838 1.395 . S
C2836 C2839 1.403 . S
H2837 C2843 0.930 . S
C2838 H2824 0.930 . S
C2838 C2836 1.395 . S
C2838 C2841 1.403 . S
C2839 C2836 1.403 . S
C2839 C2840 1.524 . S
C2839 C2843 1.400 . S
C2840 H2825 0.960 . S
C2840 H2826 0.960 . S
C2840 H2827 0.960 . S
C2840 C2839 1.524 . S
C2841 C2838 1.403 . S
C2841 C2842 1.392 . S
C2841 C2845 1.495 . S
C2842 C2841 1.392 . S
C2842 C2843 1.385 . S
C2842 C2844 1.478 . S
C2843 H2837 0.930 . S
C2843 C2839 1.400 . S
C2843 C2842 1.385 . S
C2844 C2842 1.478 . S
C2844 C2846 1.381 . S
C2844 C2850 1.383 . S
C2845 C2841 1.495 . S
C2845 H2851 0.959 . S
C2845 H2852 0.961 . S
C2845 H2853 0.960 . S
C2846 C2844 1.381 . S
C2846 C2847 1.394 . S
C2846 H2854 0.930 . S
C2847 C2846 1.394 . S
C2847 C2848 1.383 . S
C2847 H2855 0.929 . S
C2848 C2847 1.383 . S
C2848 C2849 1.377 . S
C2849 H2833 0.930 . S
C2849 C2848 1.377 . S
C2849 C2850 1.379 . S
C2850 H2834 0.931 . S
C2850 C2844 1.383 . S
C2850 C2849 1.379 . S
H2851 C2845 0.959 . S
H2852 C2845 0.961 . S
H2853 C2845 0.960 . S
H2854 C2846 0.930 . S
H2855 C2847 0.929 . S
H2856 C2864 0.929 . S
H2857 C2866 0.930 . S
H2858 C2868 0.930 . S
H2859 C2871 0.929 . S
H2860 C2874 0.930 . S
H2861 C2876 0.960 . S
H2862 C2876 0.960 . S
H2863 C2876 0.960 . S
C2864 H2856 0.929 . S
C2864 C2865 1.377 1_554 S
C2864 C2866 1.384 . S
C2865 C2864 1.377 1_556 S
C2865 C2871 1.390 . S
C2866 H2857 0.930 . S
C2866 C2864 1.384 . S
C2866 C2867 1.372 1_554 S
C2867 C2866 1.372 1_556 S
C2867 C2868 1.400 . S
C2867 C2872 1.490 . S
C2868 H2858 0.930 . S
C2868 C2867 1.400 . S
C2868 C2871 1.386 . S
H2869 C2885 0.930 . S
H2870 C2886 0.931 . S
C2871 H2859 0.929 . S
C2871 C2865 1.390 . S
C2871 C2868 1.386 . S
C2872 C2867 1.490 . S
C2872 C2874 1.395 . S
C2872 C2875 1.388 1_556 S
H2873 C2879 0.930 1_554 S
C2874 H2860 0.930 . S
C2874 C2872 1.395 . S
C2874 C2877 1.403 . S
C2875 C2872 1.388 1_554 S
C2875 C2876 1.557 . S
C2875 C2879 1.383 1_554 S
C2876 H2861 0.960 . S
C2876 H2862 0.960 . S
C2876 H2863 0.960 . S
C2876 C2875 1.557 . S
C2877 C2874 1.403 . S
C2877 C2878 1.392 . S
C2877 C2881 1.495 . S
C2878 C2877 1.392 . S
C2878 C2879 1.385 . S
C2878 C2880 1.478 . S
C2879 H2873 0.930 1_556 S
C2879 C2875 1.383 1_556 S
C2879 C2878 1.385 . S
C2880 C2878 1.478 . S
C2880 C2882 1.381 . S
C2880 C2886 1.383 . S
C2881 C2877 1.495 . S
C2881 H2887 0.959 . S
C2881 H2888 0.961 . S
C2881 H2889 0.960 . S
C2882 C2880 1.381 . S
C2882 C2883 1.394 . S
C2882 H2890 0.930 . S
C2883 C2882 1.394 . S
C2883 C2884 1.383 . S
C2883 H2891 0.929 . S
C2884 C2883 1.383 . S
C2884 C2885 1.377 . S
C2885 H2869 0.930 . S
C2885 C2884 1.377 . S
C2885 C2886 1.379 . S
C2886 H2870 0.931 . S
C2886 C2880 1.383 . S
C2886 C2885 1.379 . S
H2887 C2881 0.959 . S
H2888 C2881 0.961 . S
H2889 C2881 0.960 . S
H2890 C2882 0.930 . S
H2891 C2883 0.929 . S
H2892 C2900 0.929 . S
H2893 C2902 0.930 . S
H2894 C2904 0.930 . S
H2895 C2907 0.929 . S
H2896 C2910 0.930 . S
H2897 C2912 0.960 . S
H2898 C2912 0.960 . S
H2899 C2912 0.960 . S
C2900 H2892 0.929 . S
C2900 C2901 1.377 . S
C2900 C2902 1.384 . S
C2901 C2900 1.377 . S
C2901 C2907 1.390 . S
C2902 H2893 0.930 . S
C2902 C2900 1.384 . S
C2902 C2903 1.372 . S
C2903 C2902 1.372 . S
C2903 C2904 1.400 . S
C2903 C2908 1.490 . S
C2904 H2894 0.930 . S
C2904 C2903 1.400 . S
C2904 C2907 1.386 . S
H2905 C2921 0.930 . S
H2906 C2922 0.931 . S
C2907 H2895 0.929 . S
C2907 C2901 1.390 . S
C2907 C2904 1.386 . S
C2908 C2903 1.490 . S
C2908 C2910 1.395 . S
C2908 C2911 1.403 . S
H2909 C2915 0.930 . S
C2910 H2896 0.930 . S
C2910 C2908 1.395 . S
C2910 C2913 1.403 . S
C2911 C2908 1.403 . S
C2911 C2912 1.524 . S
C2911 C2915 1.400 . S
C2912 H2897 0.960 . S
C2912 H2898 0.960 . S
C2912 H2899 0.960 . S
C2912 C2911 1.524 . S
C2913 C2910 1.403 . S
C2913 C2914 1.392 . S
C2913 C2917 1.495 . S
C2914 C2913 1.392 . S
C2914 C2915 1.385 . S
C2914 C2916 1.478 . S
C2915 H2909 0.930 . S
C2915 C2911 1.400 . S
C2915 C2914 1.385 . S
C2916 C2914 1.478 . S
C2916 C2918 1.381 . S
C2916 C2922 1.383 . S
C2917 C2913 1.495 . S
C2917 H2923 0.959 . S
C2917 H2924 0.961 . S
C2917 H2925 0.960 . S
C2918 C2916 1.381 . S
C2918 C2919 1.394 . S
C2918 H2926 0.930 . S
C2919 C2918 1.394 . S
C2919 C2920 1.383 . S
C2919 H2927 0.929 . S
C2920 C2919 1.383 . S
C2920 C2921 1.377 . S
C2921 H2905 0.930 . S
C2921 C2920 1.377 . S
C2921 C2922 1.379 . S
C2922 H2906 0.931 . S
C2922 C2916 1.383 . S
C2922 C2921 1.379 . S
H2923 C2917 0.959 . S
H2924 C2917 0.961 . S
H2925 C2917 0.960 . S
H2926 C2918 0.930 . S
H2927 C2919 0.929 . S
H2928 C2936 0.929 . S
H2929 C2938 0.930 . S
H2930 C2940 0.930 . S
H2931 C2943 0.929 . S
H2932 C2946 0.930 . S
H2933 C2948 0.960 . S
H2934 C2948 0.960 . S
H2935 C2948 0.960 . S
C2936 H2928 0.929 . S
C2936 C2937 1.377 . S
C2936 C2938 1.384 . S
C2937 C2936 1.377 . S
C2937 C2943 1.390 . S
C2938 H2929 0.930 . S
C2938 C2936 1.384 . S
C2938 C2939 1.372 . S
C2939 C2938 1.372 . S
C2939 C2940 1.400 . S
C2939 C2944 1.490 . S
C2940 H2930 0.930 . S
C2940 C2939 1.400 . S
C2940 C2943 1.386 . S
H2941 C2957 0.930 . S
H2942 C2958 0.931 . S
C2943 H2931 0.929 . S
C2943 C2937 1.390 . S
C2943 C2940 1.386 . S
C2944 C2939 1.490 . S
C2944 C2946 1.395 . S
C2944 C2947 1.403 . S
H2945 C2951 0.930 . S
C2946 H2932 0.930 . S
C2946 C2944 1.395 . S
C2946 C2949 1.403 . S
C2947 C2944 1.403 . S
C2947 C2948 1.524 . S
C2947 C2951 1.400 . S
C2948 H2933 0.960 . S
C2948 H2934 0.960 . S
C2948 H2935 0.960 . S
C2948 C2947 1.524 . S
C2949 C2946 1.403 . S
C2949 C2950 1.392 . S
C2949 C2953 1.495 . S
C2950 C2949 1.392 . S
C2950 C2951 1.385 . S
C2950 C2952 1.478 . S
C2951 H2945 0.930 . S
C2951 C2947 1.400 . S
C2951 C2950 1.385 . S
C2952 C2950 1.478 . S
C2952 C2954 1.381 . S
C2952 C2958 1.383 . S
C2953 C2949 1.495 . S
C2953 H2959 0.959 . S
C2953 H2960 0.961 . S
C2953 H2961 0.960 . S
C2954 C2952 1.381 . S
C2954 C2955 1.394 . S
C2954 H2962 0.930 . S
C2955 C2954 1.394 . S
C2955 C2956 1.383 . S
C2955 H2963 0.929 . S
C2956 C2955 1.383 . S
C2956 C2957 1.377 . S
C2957 H2941 0.930 . S
C2957 C2956 1.377 . S
C2957 C2958 1.379 . S
C2958 H2942 0.931 . S
C2958 C2952 1.383 . S
C2958 C2957 1.379 . S
H2959 C2953 0.959 . S
H2960 C2953 0.961 . S
H2961 C2953 0.960 . S
H2962 C2954 0.930 . S
H2963 C2955 0.929 . S
H2964 C2972 0.929 . S
H2965 C2974 0.930 . S
H2966 C2976 0.930 . S
H2967 C2979 0.929 . S
H2968 C2982 0.930 . S
H2969 C2984 0.960 . S
H2970 C2984 0.960 . S
H2971 C2984 0.960 . S
C2972 H2964 0.929 . S
C2972 C2973 1.377 . S
C2972 C2974 1.384 . S
C2973 C2972 1.377 . S
C2973 C2979 1.390 . S
C2974 H2965 0.930 . S
C2974 C2972 1.384 . S
C2974 C2975 1.372 . S
C2975 C2974 1.372 . S
C2975 C2976 1.400 . S
C2975 C2980 1.490 . S
C2976 H2966 0.930 . S
C2976 C2975 1.400 . S
C2976 C2979 1.386 . S
H2977 C2993 0.930 . S
H2978 C2994 0.931 . S
C2979 H2967 0.929 . S
C2979 C2973 1.390 . S
C2979 C2976 1.386 . S
C2980 C2975 1.490 . S
C2980 C2982 1.395 . S
C2980 C2983 1.403 . S
H2981 C2987 0.930 . S
C2982 H2968 0.930 . S
C2982 C2980 1.395 . S
C2982 C2985 1.403 . S
C2983 C2980 1.403 . S
C2983 C2984 1.524 . S
C2983 C2987 1.400 . S
C2984 H2969 0.960 . S
C2984 H2970 0.960 . S
C2984 H2971 0.960 . S
C2984 C2983 1.524 . S
C2985 C2982 1.403 . S
C2985 C2986 1.392 . S
C2985 C2989 1.495 . S
C2986 C2985 1.392 . S
C2986 C2987 1.385 . S
C2986 C2988 1.478 . S
C2987 H2981 0.930 . S
C2987 C2983 1.400 . S
C2987 C2986 1.385 . S
C2988 C2986 1.478 . S
C2988 C2990 1.381 . S
C2988 C2994 1.383 . S
C2989 C2985 1.495 . S
C2989 H2995 0.959 . S
C2989 H2996 0.961 . S
C2989 H2997 0.960 . S
C2990 C2988 1.381 . S
C2990 C2991 1.394 . S
C2990 H2998 0.930 . S
C2991 C2990 1.394 . S
C2991 C2992 1.383 . S
C2991 H2999 0.929 . S
C2992 C2991 1.383 . S
C2992 C2993 1.377 . S
C2993 H2977 0.930 . S
C2993 C2992 1.377 . S
C2993 C2994 1.379 . S
C2994 H2978 0.931 . S
C2994 C2988 1.383 . S
C2994 C2993 1.379 . S
H2995 C2989 0.959 . S
H2996 C2989 0.961 . S
H2997 C2989 0.960 . S
H2998 C2990 0.930 . S
H2999 C2991 0.929 . S
H3000 C3008 0.929 . S
H3001 C3010 0.930 . S
H3002 C3012 0.930 . S
H3003 C3015 0.929 . S
H3004 C3018 0.930 . S
H3005 C3020 0.960 . S
H3006 C3020 0.960 . S
H3007 C3020 0.960 . S
C3008 H3000 0.929 . S
C3008 C3009 1.377 . S
C3008 C3010 1.384 . S
C3009 C3008 1.377 . S
C3009 C3015 1.390 . S
C3010 H3001 0.930 . S
C3010 C3008 1.384 . S
C3010 C3011 1.372 . S
C3011 C3010 1.372 . S
C3011 C3012 1.400 . S
C3011 C3016 1.490 . S
C3012 H3002 0.930 . S
C3012 C3011 1.400 . S
C3012 C3015 1.386 . S
H3013 C3029 0.930 . S
H3014 C3030 0.931 . S
C3015 H3003 0.929 . S
C3015 C3009 1.390 . S
C3015 C3012 1.386 . S
C3016 C3011 1.490 . S
C3016 C3018 1.395 . S
C3016 C3019 1.403 . S
H3017 C3023 0.930 . S
C3018 H3004 0.930 . S
C3018 C3016 1.395 . S
C3018 C3021 1.403 . S
C3019 C3016 1.403 . S
C3019 C3020 1.524 . S
C3019 C3023 1.400 . S
C3020 H3005 0.960 . S
C3020 H3006 0.960 . S
C3020 H3007 0.960 . S
C3020 C3019 1.524 . S
C3021 C3018 1.403 . S
C3021 C3022 1.392 . S
C3021 C3025 1.495 . S
C3022 C3021 1.392 . S
C3022 C3023 1.385 . S
C3022 C3024 1.478 . S
C3023 H3017 0.930 . S
C3023 C3019 1.400 . S
C3023 C3022 1.385 . S
C3024 C3022 1.478 . S
C3024 C3026 1.381 . S
C3024 C3030 1.383 . S
C3025 C3021 1.495 . S
C3025 H3031 0.959 . S
C3025 H3032 0.961 . S
C3025 H3033 0.960 . S
C3026 C3024 1.381 . S
C3026 C3027 1.394 . S
C3026 H3034 0.930 . S
C3027 C3026 1.394 . S
C3027 C3028 1.383 . S
C3027 H3035 0.929 . S
C3028 C3027 1.383 . S
C3028 C3029 1.377 . S
C3029 H3013 0.930 . S
C3029 C3028 1.377 . S
C3029 C3030 1.379 . S
C3030 H3014 0.931 . S
C3030 C3024 1.383 . S
C3030 C3029 1.379 . S
H3031 C3025 0.959 . S
H3032 C3025 0.961 . S
H3033 C3025 0.960 . S
H3034 C3026 0.930 . S
H3035 C3027 0.929 . S
H3036 C3044 0.929 . S
H3037 C3046 0.930 . S
H3038 C3048 0.930 . S
H3039 C3051 0.929 . S
H3040 C3054 0.930 . S
H3041 C3056 0.960 . S
H3042 C3056 0.960 . S
H3043 C3056 0.960 . S
C3044 H3036 0.929 . S
C3044 C3045 1.377 . S
C3044 C3046 1.384 . S
C3045 C3044 1.377 . S
C3045 C3051 1.390 . S
C3046 H3037 0.930 . S
C3046 C3044 1.384 . S
C3046 C3047 1.372 . S
C3047 C3046 1.372 . S
C3047 C3048 1.400 . S
C3047 C3052 1.490 . S
C3048 H3038 0.930 . S
C3048 C3047 1.400 . S
C3048 C3051 1.386 . S
H3049 C3065 0.930 . S
H3050 C3066 0.931 . S
C3051 H3039 0.929 . S
C3051 C3045 1.390 . S
C3051 C3048 1.386 . S
C3052 C3047 1.490 . S
C3052 C3054 1.395 . S
C3052 C3055 1.403 . S
H3053 C3059 0.930 . S
C3054 H3040 0.930 . S
C3054 C3052 1.395 . S
C3054 C3057 1.403 . S
C3055 C3052 1.403 . S
C3055 C3056 1.524 . S
C3055 C3059 1.400 . S
C3056 H3041 0.960 . S
C3056 H3042 0.960 . S
C3056 H3043 0.960 . S
C3056 C3055 1.524 . S
C3057 C3054 1.403 . S
C3057 C3058 1.392 . S
C3057 C3061 1.495 . S
C3058 C3057 1.392 . S
C3058 C3059 1.385 . S
C3058 C3060 1.478 . S
C3059 H3053 0.930 . S
C3059 C3055 1.400 . S
C3059 C3058 1.385 . S
C3060 C3058 1.478 . S
C3060 C3062 1.381 . S
C3060 C3066 1.383 . S
C3061 C3057 1.495 . S
C3061 H3067 0.959 . S
C3061 H3068 0.961 . S
C3061 H3069 0.960 . S
C3062 C3060 1.381 . S
C3062 C3063 1.394 . S
C3062 H3070 0.930 . S
C3063 C3062 1.394 . S
C3063 C3064 1.383 . S
C3063 H3071 0.929 . S
C3064 C3063 1.383 . S
C3064 C3065 1.377 . S
C3065 H3049 0.930 . S
C3065 C3064 1.377 . S
C3065 C3066 1.379 . S
C3066 H3050 0.931 . S
C3066 C3060 1.383 . S
C3066 C3065 1.379 . S
H3067 C3061 0.959 . S
H3068 C3061 0.961 . S
H3069 C3061 0.960 . S
H3070 C3062 0.930 . S
H3071 C3063 0.929 . S
C1353 C67 1.107 . S
C1372 C154 0.957 . S
C1389 C235 1.898 . S
C1408 C140 1.937 . S
C1425 C308 1.940 . S
C1444 C231 1.962 . S
C1461 C63 1.171 . S
C1480 C322 1.051 . S
C1497 C74 1.167 . S
C1516 C814 0.990 . S
C1533 C644 1.115 . S
C1552 C142 0.943 . S
C1569 C224 1.896 . S
C1588 C907 1.961 . S
C1605 C319 1.942 . S
C1624 C1166 1.957 . S
C1641 C728 1.904 . S
C1660 C151 1.933 . S
C1677 C1075 1.938 . S
C1696 C242 1.947 . S
C1713 C1250 1.166 . S
C1732 C310 1.031 . S
C1749 C56 1.119 . S
C1768 C982 0.933 . S
C1785 C70 0.496 . S
C1804 C730 0.658 . S
C1821 C1071 1.872 . S
C1840 C410 1.875 . S
C1857 C490 0.686 . S
C1876 C1234 0.603 . S
C1893 C998 1.874 . S
C1912 C567 1.872 . S
C1929 C238 0.667 . S
C1948 C646 0.523 . S
C1965 C830 1.872 . S
C1984 C399 1.871 . S
C2001 C578 1.876 . S
C2020 C903 1.866 . S
C2037 C476 1.903 . S
C2056 C991 1.933 . S
C2073 C823 1.944 . S
C2092 C494 1.966 . S
C2109 C994 0.994 . S
C2128 C655 1.077 . S
C2145 C487 1.900 . S
C2164 C392 1.960 . S
C2181 C812 1.942 . S
C2200 C735 1.958 . S
C2217 C1159 1.902 . S
C2236 C980 1.956 . S
C2253 C560 1.940 . S
C2272 C483 1.955 . S
C2289 C826 0.970 . S
C2308 C1239 1.153 . S
C2325 C1162 0.706 . S
C2344 C58 0.468 . S
C2361 C226 0.706 . S
C2380 C1246 0.443 . S
C2397 C1082 1.876 . S
C2416 C147 1.864 . S
C2433 C658 0.501 . S
C2452 C478 0.639 . S
C2469 C315 1.872 . S
C2488 C914 1.876 . S
C2505 C1064 1.943 . S
C2524 C1155 1.947 . S
C2541 C651 1.167 . S
C2560 C1078 0.925 . S
C2577 C562 0.998 . S
C2596 C662 1.154 . S
C2613 C403 1.949 . S
C2632 C1148 1.881 . S
C2649 C1066 0.970 . S
C2668 C1334 1.178 . S
C2685 C1318 0.494 . S
C2704 C742 0.780 . S
C2721 C158 1.874 . S
C2740 C819 1.872 . S
C2757 C746 1.963 . S
C2776 C571 1.951 . S
C2793 C739 1.904 . S
C2812 C896 1.934 . S
C2829 C1323 1.166 . S
C2848 C574 0.959 . S
C2865 C1150 0.703 . S
C2884 C1330 0.420 . S
C2901 C987 1.871 . S
C2920 C326 1.876 . S
C2937 C910 0.997 . S
C2956 C1243 1.084 . S
C2973 C898 0.991 . S
C2992 C1316 1.135 . S
C3009 C394 0.992 . S
C3028 C1232 1.153 . S
C3045 C1327 1.115 . S
C3064 C406 1.006 . S
