# Generated by pormake.
# Topology noz, (5)-cn, num edge types: 1
# Building blocks:
#     Node 0, Type 0, BuildingBlock: XOMCOT_clean_sbu_1, # of connection points: 5
#     Node 1, Type 0, BuildingBlock: XOMCOT_clean_sbu_1, # of connection points: 5
#     Node 2, Type 0, BuildingBlock: XOMCOT_clean_sbu_1, # of connection points: 5
#     Node 3, Type 0, BuildingBlock: XOMCOT_clean_sbu_1, # of connection points: 5
#     Node 4, Type 0, BuildingBlock: XOMCOT_clean_sbu_1, # of connection points: 5
#     Node 5, Type 0, BuildingBlock: XOMCOT_clean_sbu_1, # of connection points: 5
#     Node 6, Type 0, BuildingBlock: XOMCOT_clean_sbu_1, # of connection points: 5
#     Node 7, Type 0, BuildingBlock: XOMCOT_clean_sbu_1, # of connection points: 5
#     Edge 8, Type (0, 0), BuildingBlock: AJUNOK_clean_linker_0, # of connection points: 2
#     Edge 9, Type (0, 0), BuildingBlock: AJUNOK_clean_linker_0, # of connection points: 2
#     Edge 10, Type (0, 0), BuildingBlock: AJUNOK_clean_linker_0, # of connection points: 2
#     Edge 11, Type (0, 0), BuildingBlock: AJUNOK_clean_linker_0, # of connection points: 2
#     Edge 12, Type (0, 0), BuildingBlock: AJUNOK_clean_linker_0, # of connection points: 2
#     Edge 13, Type (0, 0), BuildingBlock: AJUNOK_clean_linker_0, # of connection points: 2
#     Edge 14, Type (0, 0), BuildingBlock: AJUNOK_clean_linker_0, # of connection points: 2
#     Edge 15, Type (0, 0), BuildingBlock: AJUNOK_clean_linker_0, # of connection points: 2
#     Edge 16, Type (0, 0), BuildingBlock: AJUNOK_clean_linker_0, # of connection points: 2
#     Edge 17, Type (0, 0), BuildingBlock: AJUNOK_clean_linker_0, # of connection points: 2
#     Edge 18, Type (0, 0), BuildingBlock: AJUNOK_clean_linker_0, # of connection points: 2
#     Edge 19, Type (0, 0), BuildingBlock: AJUNOK_clean_linker_0, # of connection points: 2
#     Edge 20, Type (0, 0), BuildingBlock: AJUNOK_clean_linker_0, # of connection points: 2
#     Edge 21, Type (0, 0), BuildingBlock: AJUNOK_clean_linker_0, # of connection points: 2
#     Edge 22, Type (0, 0), BuildingBlock: AJUNOK_clean_linker_0, # of connection points: 2
#     Edge 23, Type (0, 0), BuildingBlock: AJUNOK_clean_linker_0, # of connection points: 2
#     Edge 24, Type (0, 0), BuildingBlock: AJUNOK_clean_linker_0, # of connection points: 2
#     Edge 25, Type (0, 0), BuildingBlock: AJUNOK_clean_linker_0, # of connection points: 2
#     Edge 26, Type (0, 0), BuildingBlock: AJUNOK_clean_linker_0, # of connection points: 2
#     Edge 27, Type (0, 0), BuildingBlock: AJUNOK_clean_linker_0, # of connection points: 2
# Relax obj value: 0.077
# Max RMSD: 0.161
# Mean RMSD: 0.161
data_MOF--net-noz--node1-XOMCOT_clean_sbu_1--edge1-AJUNOK_clean_linker_0
_symmetry_space_group_name_H-M    P1
_symmetry_Int_Tables_number       1
_symmetry_cell_setting            triclinic
loop_
_symmetry_equiv_pos_as_xyz
'x, y, z'
_cell_length_a     17.735729
_cell_length_b     39.235644
_cell_length_c     27.453752
_cell_angle_alpha  89.888733
_cell_angle_beta   90.063333
_cell_angle_gamma 89.861023
loop_
_atom_site_label
_atom_site_type_symbol
_atom_site_fract_x
_atom_site_fract_y
_atom_site_fract_z
_atom_type_partial_charge
C0 C 0.17549 0.3752 0.33911 0.0
C1 C 0.11793 0.3817 0.3065 0.0
N2 N 0.06259 0.35887 0.31427 0.0
N3 N 0.15588 0.34876 0.36785 0.0
C4 C 0.08757 0.33883 0.35092 0.0
H5 H 0.22686 0.38973 0.34309 0.0
Co6 Co 0.2102 0.33196 0.4218 0.0
C7 C 0.07033 0.31213 0.47684 0.0
O8 O 0.06925 0.34119 0.50023 0.0
N9 N 0.26476 0.31298 0.47587 0.0
C10 C 0.29642 0.29584 0.55079 0.0
C11 C 0.24082 0.3101 0.52253 0.0
C12 C 0.33553 0.29982 0.47717 0.0
N13 N 0.35629 0.28948 0.52227 0.0
O14 O 0.24272 0.29488 0.3812 0.0
H15 H 0.18763 0.31906 0.53629 0.0
H16 H 0.37115 0.29723 0.44566 0.0
O17 O 0.12094 0.30616 0.44464 0.0
C18 C 0.30326 0.30626 0.36187 0.0
O19 O 0.32846 0.33613 0.37604 0.0
N20 N 0.18686 0.37274 0.45812 0.0
C21 C 0.17892 0.43923 0.49631 0.0
C22 C 0.12194 0.4267 0.46572 0.0
C23 C 0.12627 0.39338 0.44778 0.0
C24 C 0.24267 0.38503 0.48762 0.0
C25 C 0.23691 0.41676 0.50968 0.0
H26 H 0.08116 0.38469 0.42457 0.0
H27 H 0.29453 0.37122 0.49319 0.0
H28 H 0.0545 0.31854 0.36678 0.0
H29 H 0.11602 0.40217 0.28003 0.0
H30 H 0.29346 0.29112 0.5896 0.0
H31 H 0.07544 0.44273 0.4542 0.0
H32 H 0.28009 0.42384 0.53554 0.0
C33 C 0.63665 0.65412 0.82409 0.0
C34 C 0.69786 0.65172 0.79352 0.0
N35 N 0.75935 0.66283 0.81761 0.0
N36 N 0.6592 0.66667 0.8673 0.0
C37 C 0.73443 0.67145 0.86247 0.0
H38 H 0.57937 0.6468 0.81563 0.0
Co39 Co 0.59538 0.67318 0.92021 0.0
C40 C 0.68347 0.71308 0.99238 0.0
O41 O 0.64875 0.69744 1.02818 0.0
N42 N 0.52856 0.67964 0.97413 0.0
C43 C 0.45675 0.67271 0.0401 0.0
C44 C 0.5093 0.65773 1.01014 0.0
C45 C 0.48675 0.70781 0.98363 0.0
N46 N 0.44145 0.70413 1.02292 0.0
O47 O 0.54471 0.70885 0.88403 0.0
H48 H 0.53201 0.63246 1.01529 0.0
H49 H 0.48815 0.73053 0.96135 0.0
O50 O 0.66717 0.70592 0.94814 0.0
C51 C 0.47916 0.69974 0.8698 0.0
O52 O 0.45281 0.67023 0.88466 0.0
N53 N 0.64059 0.63547 0.95034 0.0
C54 C 0.68543 0.57163 0.98428 0.0
C55 C 0.72887 0.60059 0.99443 0.0
C56 C 0.70651 0.63236 0.97586 0.0
C57 C 0.60011 0.60726 0.9383 0.0
C58 C 0.62103 0.57517 0.95522 0.0
H59 H 0.74292 0.65388 0.98155 0.0
H60 H 0.54984 0.61001 0.91627 0.0
H61 H 0.77038 0.68102 0.89121 0.0
H62 H 0.69732 0.64168 0.75684 0.0
H63 H 0.43289 0.66123 0.07239 0.0
H64 H 0.77982 0.59858 1.01605 0.0
H65 H 0.58582 0.55343 0.94678 0.0
C66 C 0.17503 0.64184 0.72111 0.0
C67 C 0.11463 0.63651 0.75203 0.0
N68 N 0.06356 0.66146 0.74441 0.0
N69 N 0.16151 0.66984 0.69382 0.0
C70 C 0.09473 0.68186 0.71037 0.0
H71 H 0.22341 0.6253 0.71672 0.0
Co72 Co 0.21666 0.68699 0.64041 0.0
C73 C 0.0729 0.70985 0.59101 0.0
O74 O 0.06544 0.6811 0.56734 0.0
N75 N 0.27105 0.70651 0.58736 0.0
C76 C 0.30007 0.72624 0.51353 0.0
C77 C 0.2443 0.71247 0.54194 0.0
C78 C 0.34349 0.71735 0.58536 0.0
N79 N 0.36271 0.72923 0.54079 0.0
O80 O 0.25178 0.72266 0.68248 0.0
H81 H 0.18854 0.70616 0.52928 0.0
H82 H 0.38127 0.7172 0.6161 0.0
O83 O 0.12914 0.71452 0.61951 0.0
C84 C 0.31189 0.71029 0.70129 0.0
O85 O 0.33502 0.68016 0.6866 0.0
N86 N 0.19011 0.64748 0.60176 0.0
C87 C 0.17932 0.58187 0.56069 0.0
C88 C 0.12421 0.59394 0.59305 0.0
C89 C 0.12977 0.62687 0.61227 0.0
C90 C 0.24354 0.63575 0.56996 0.0
C91 C 0.23607 0.60457 0.54657 0.0
H92 H 0.08598 0.63513 0.63681 0.0
H93 H 0.29525 0.64933 0.56358 0.0
H94 H 0.06802 0.70476 0.69689 0.0
H95 H 0.10691 0.6149 0.77606 0.0
H96 H 0.29508 0.73307 0.47544 0.0
H97 H 0.07846 0.5778 0.60509 0.0
H98 H 0.27739 0.59798 0.51924 0.0
C99 C 0.63599 0.36425 0.2363 0.0
C100 C 0.69886 0.36921 0.26488 0.0
N101 N 0.75886 0.35581 0.24171 0.0
N102 N 0.65623 0.34784 0.19527 0.0
C103 C 0.73154 0.34279 0.19975 0.0
H104 H 0.57936 0.3729 0.24419 0.0
Co105 Co 0.59103 0.33985 0.14327 0.0
C106 C 0.67841 0.29883 0.0729 0.0
O107 O 0.64805 0.31615 0.03686 0.0
N108 N 0.52322 0.33169 0.09046 0.0
C109 C 0.43784 0.33715 1.03114 0.0
C110 C 0.49234 0.35363 0.05793 0.0
C111 C 0.48722 0.3019 0.08169 0.0
N112 N 0.4338 0.30472 0.04674 0.0
O113 O 0.53982 0.30575 0.18203 0.0
H114 H 0.50535 0.38035 0.05474 0.0
H115 H 0.49819 0.27873 0.10193 0.0
O116 O 0.66104 0.30581 0.117 0.0
C117 C 0.47429 0.31596 0.19491 0.0
O118 O 0.4499 0.34542 0.17827 0.0
N119 N 0.63625 0.37638 0.1103 0.0
C120 C 0.68243 0.43921 0.07363 0.0
C121 C 0.7271 0.41005 0.06681 0.0
C122 C 0.70394 0.37885 0.08673 0.0
C123 C 0.59524 0.40497 0.11985 0.0
C124 C 0.61668 0.43653 0.10144 0.0
H125 H 0.74138 0.3573 0.08393 0.0
H126 H 0.54424 0.40297 0.14124 0.0
H127 H 0.76638 0.33123 0.17194 0.0
H128 H 0.7006 0.38207 0.29972 0.0
H129 H 0.4007 0.34872 1.00448 0.0
H130 H 0.77974 0.41151 0.04696 0.0
H131 H 0.58108 0.45852 0.10797 0.0
C132 C 0.67919 0.86396 0.32134 0.0
C133 C 0.61751 0.86685 0.2911 0.0
N134 N 0.55606 0.85619 0.3156 0.0
N135 N 0.65702 0.85119 0.36456 0.0
C136 C 0.58186 0.84674 0.35998 0.0
H137 H 0.7365 0.87108 0.31265 0.0
Co138 Co 0.7199 0.84458 0.41798 0.0
C139 C 0.63885 0.79692 0.48664 0.0
O140 O 0.68167 0.80553 0.52357 0.0
N141 N 0.78624 0.83859 0.47169 0.0
C142 C 0.85912 0.84688 0.53687 0.0
C143 C 0.80764 0.86157 0.50569 0.0
C144 C 0.82646 0.81027 0.48295 0.0
N145 N 0.87103 0.81462 0.52233 0.0
O146 O 0.77269 0.80998 0.38161 0.0
H147 H 0.78753 0.88747 0.50828 0.0
H148 H 0.82295 0.7867 0.46269 0.0
O149 O 0.64852 0.81071 0.44471 0.0
C150 C 0.83825 0.81942 0.36806 0.0
O151 O 0.86469 0.84846 0.38454 0.0
N152 N 0.67176 0.8808 0.44898 0.0
C153 C 0.62199 0.94246 0.48735 0.0
C154 C 0.58603 0.91184 0.49991 0.0
C155 C 0.61157 0.88109 0.47998 0.0
C156 C 0.70414 0.91049 0.43428 0.0
C157 C 0.68062 0.94156 0.45324 0.0
H158 H 0.58277 0.85799 0.48976 0.0
H159 H 0.75056 0.90976 0.40877 0.0
H160 H 0.54693 0.83673 0.38861 0.0
H161 H 0.61764 0.87676 0.25428 0.0
H162 H 0.88464 0.85889 0.56825 0.0
H163 H 0.53915 0.91164 0.52515 0.0
H164 H 0.71011 0.96455 0.44264 0.0
C165 C 0.13627 0.14554 0.83944 0.0
C166 C 0.19722 0.14102 0.80915 0.0
N167 N 0.25336 0.16124 0.82483 0.0
N168 N 0.15425 0.16816 0.87442 0.0
C169 C 0.22605 0.17747 0.86442 0.0
H170 H 0.08308 0.13219 0.83736 0.0
Co171 Co 0.09109 0.17769 0.92673 0.0
C172 C 0.18875 0.21292 0.99848 0.0
O173 O 0.15885 0.19395 0.03266 0.0
N174 N 1.02363 0.18707 0.98051 0.0
C175 C 0.95771 0.18347 0.04969 0.0
C176 C 1.01375 0.16905 1.02216 0.0
C177 C 0.97169 0.21244 0.98427 0.0
N178 N 0.92971 0.21049 1.0254 0.0
O179 O 0.04657 0.21358 0.88867 0.0
H180 H 0.04646 0.14717 0.0334 0.0
H181 H 0.96351 0.23185 0.95689 0.0
O182 O 0.16702 0.20906 0.95433 0.0
C183 C 0.9847 0.20251 0.87099 0.0
O184 O 0.96013 0.17257 0.88537 0.0
N185 N 0.13042 0.1393 0.95806 0.0
C186 C 0.17167 0.07364 0.98602 0.0
C187 C 0.22375 0.10041 0.98906 0.0
C188 C 0.2025 0.13315 0.97355 0.0
C189 C 0.08022 0.11327 0.95388 0.0
C190 C 0.09913 0.08045 0.96841 0.0
H191 H 0.24464 0.15293 0.97231 0.0
H192 H 1.02488 0.11819 0.9388 0.0
H193 H 0.25925 0.1943 0.88702 0.0
H194 H 0.20084 0.1236 0.7787 0.0
H195 H 0.94091 0.17489 0.08547 0.0
H196 H 0.28079 0.09578 1.00161 0.0
H197 H 0.05731 0.06046 0.96566 0.0
C198 C 0.67292 0.14517 0.7364 0.0
C199 C 0.61294 0.14169 0.76778 0.0
N200 N 0.55489 0.16005 0.75003 0.0
N201 N 0.65239 0.16522 0.69871 0.0
C202 C 0.58012 0.17406 0.70818 0.0
H203 H 0.72757 0.13313 0.74002 0.0
Co204 Co 0.71472 0.17367 0.64565 0.0
C205 C 0.62847 0.21779 0.57591 0.0
O206 O 0.66821 0.20649 0.53899 0.0
N207 N 0.78077 0.18165 0.59247 0.0
C208 C 0.862 0.17587 0.53101 0.0
C209 C 0.81032 0.15939 0.56003 0.0
C210 C 0.81544 0.21146 0.58205 0.0
N211 N 0.8657 0.20853 0.54539 0.0
O212 O 0.76345 0.20881 0.68306 0.0
H213 H 0.79748 0.13258 0.55798 0.0
H214 H 0.80417 0.23495 0.60131 0.0
O215 O 0.64069 0.20639 0.61901 0.0
C216 C 0.83028 0.2009 0.69631 0.0
O217 O 0.86075 0.17293 0.67881 0.0
N218 N 0.67085 0.13675 0.61381 0.0
C219 C 0.62361 0.07371 0.57908 0.0
C220 C 0.58247 0.10335 0.56812 0.0
C221 C 0.60634 0.13477 0.5867 0.0
C222 C 0.7097 0.10802 0.62598 0.0
C223 C 0.68777 0.07635 0.60856 0.0
H224 H 0.57212 0.15694 0.57973 0.0
H225 H 0.75936 0.11 0.64872 0.0
H226 H 0.54549 0.18924 0.68413 0.0
H227 H 0.61154 0.12643 0.80067 0.0
H228 H 0.89662 0.16439 0.50301 0.0
H229 H 0.53214 0.10215 0.54581 0.0
H230 H 0.72198 0.05423 0.61715 0.0
C231 C 0.14071 0.87616 0.21712 0.0
C232 C 0.19963 0.88079 0.24914 0.0
N233 N 0.25435 0.85815 0.23826 0.0
N234 N 0.15829 0.8509 0.18597 0.0
C235 C 0.2277 0.84032 0.19989 0.0
H236 H 0.08928 0.89099 0.21552 0.0
Co237 Co 0.09816 0.83739 0.13378 0.0
C238 C 0.2099 0.80192 0.07072 0.0
O239 O 0.19372 0.82216 0.03411 0.0
N240 N 1.03498 0.82316 0.08006 0.0
C241 C 0.97983 0.81738 1.00716 0.0
C242 C 1.03458 0.8341 0.03318 0.0
C243 C 0.97911 0.79954 0.08083 0.0
N244 N 0.94475 0.79553 0.0372 0.0
O245 O 0.05559 0.80327 0.1755 0.0
H246 H 0.07157 0.85314 1.01793 0.0
H247 H 0.9622 0.78595 0.11304 0.0
O248 O 0.17655 0.80542 0.11171 0.0
C249 C 0.99512 0.81537 0.19381 0.0
O250 O 0.96981 0.84479 0.17761 0.0
N251 N 0.13597 0.87436 0.09811 0.0
C252 C 0.17525 0.93719 0.05887 0.0
C253 C 0.23129 0.91341 0.07072 0.0
C254 C 0.21042 0.88209 0.09119 0.0
C255 C 0.08171 0.89826 0.0894 0.0
C256 C 0.09989 0.92951 0.06861 0.0
H257 H 0.25406 0.86453 0.10252 0.0
H258 H 1.02371 0.89292 0.09882 0.0
H259 H 0.25916 0.82045 0.18168 0.0
H260 H 0.20324 0.90042 0.27667 0.0
H261 H 0.96717 0.82103 0.96893 0.0
H262 H 0.29028 0.91917 0.06483 0.0
H263 H 0.05557 0.94783 0.06101 0.0
C264 C 0.30563 0.2978 0.27326 0.0
C265 C 0.33929 0.29126 0.31861 0.0
C266 C 0.34992 0.30192 0.23133 0.0
C267 C 0.4291 0.29888 0.23314 0.0
H268 H 0.24621 0.30421 0.27125 0.0
H269 H 0.32259 0.3107 0.19828 0.0
S270 S 0.54237 0.27541 0.34149 0.0
N271 N 0.45477 0.27725 0.36177 0.0
N272 N 0.53773 0.28375 0.28255 0.0
C273 C 0.46215 0.28789 0.2769 0.0
C274 C 0.41716 0.28436 0.31981 0.0
C275 C 0.35794 0.71772 0.83224 0.0
C276 C 0.43737 0.71771 0.83077 0.0
C277 C 0.3149 0.72155 0.78957 0.0
C278 C 0.35013 0.72487 0.74406 0.0
H279 H 0.32905 0.71139 0.86581 0.0
H280 H 0.25456 0.71747 0.79157 0.0
S281 S 0.55552 0.73215 0.72162 0.0
N282 N 0.54877 0.72662 0.78113 0.0
N283 N 0.46808 0.73272 0.70079 0.0
C284 C 0.42891 0.72887 0.74295 0.0
C285 C 0.47265 0.72558 0.78646 0.0
C286 C 0.97123 0.65406 0.81142 0.0
C287 C 0.98723 0.66312 0.76288 0.0
C288 C 0.89696 0.65479 0.8295 0.0
C289 C 0.8358 0.66409 0.79947 0.0
H290 H 1.01654 0.64643 0.83557 0.0
H291 H 0.88707 0.64725 0.86691 0.0
S292 S 0.84702 0.69019 0.6697 0.0
N293 N 0.93496 0.68142 0.68503 0.0
N294 N 0.7966 0.68357 0.7193 0.0
C295 C 0.85115 0.6735 0.75105 0.0
C296 C 0.92648 0.67284 0.73269 0.0
C297 C 0.88086 0.32743 0.25894 0.0
C298 C 0.83643 0.35716 0.2574 0.0
C299 C 0.95504 0.32812 0.2773 0.0
C300 C 0.98789 0.35875 0.29337 0.0
H301 H 0.85724 0.30338 0.24719 0.0
H302 H 0.98705 0.30461 0.27903 0.0
S303 S 0.89583 0.44368 0.29515 0.0
N304 N 0.83098 0.41803 0.27252 0.0
N305 N 0.97033 0.41949 0.30605 0.0
C306 C 0.94449 0.38872 0.29087 0.0
C307 C 0.86877 0.38788 0.27314 0.0
C308 C 0.95735 0.80431 0.32591 0.0
C309 C 0.87795 0.80348 0.32662 0.0
C310 C 0.99736 0.80267 0.28189 0.0
C311 C 0.95894 0.8008 0.23727 0.0
H312 H 0.98835 0.80954 0.3591 0.0
H313 H 0.05769 0.80703 0.2825 0.0
S314 S 0.75284 0.79176 0.21986 0.0
N315 N 0.76354 0.79501 0.27946 0.0
N316 N 0.83865 0.79331 0.19659 0.0
C317 C 0.88047 0.79611 0.23789 0.0
C318 C 0.83984 0.79702 0.28275 0.0
C319 C 0.94648 0.21841 0.73993 0.0
C320 C 0.86714 0.21676 0.73883 0.0
C321 C 0.98594 0.21951 0.78427 0.0
C322 C 0.94708 0.2183 0.82875 0.0
H323 H 0.97838 0.2154 0.70656 0.0
H324 H 0.0468 0.21695 0.78364 0.0
S325 S 0.73988 0.22014 0.84558 0.0
N326 N 0.75142 0.21959 0.78588 0.0
N327 N 0.8256 0.22051 0.8692 0.0
C328 C 0.86802 0.22073 0.828 0.0
C329 C 0.82788 0.22029 0.7829 0.0
C330 C 0.3686 0.13087 0.79971 0.0
C331 C 0.32945 0.16167 0.80672 0.0
C332 C 0.44263 0.13059 0.78177 0.0
C333 C 0.47933 0.16105 0.76904 0.0
H334 H 0.3419 0.10688 0.80869 0.0
H335 H 0.47108 0.10637 0.77702 0.0
S336 S 0.40102 0.2483 0.78007 0.0
N337 N 0.33271 0.22332 0.79999 0.0
N338 N 0.47131 0.22275 0.76473 0.0
C339 C 0.44062 0.19198 0.7755 0.0
C340 C 0.36583 0.1923 0.79485 0.0
C341 C 0.39172 0.84943 0.22912 0.0
C342 C 0.3291 0.85616 0.25907 0.0
C343 C 0.46527 0.84919 0.24797 0.0
C344 C 0.47938 0.85549 0.29762 0.0
H345 H 0.38403 0.8451 0.1905 0.0
H346 H 0.51154 0.84399 0.22339 0.0
S347 S 0.33451 0.87322 0.39192 0.0
N348 N 0.28569 0.86785 0.34128 0.0
N349 N 0.42384 0.86844 0.37651 0.0
C350 C 0.4171 0.86175 0.32818 0.0
C351 C 0.3421 0.86192 0.30894 0.0
C352 C 0.11252 0.52764 0.53641 0.0
C353 C 0.18035 0.54552 0.54405 0.0
C354 C 0.11244 0.49341 0.5216 0.0
C355 C 0.18014 0.47574 0.51216 0.0
H356 H 0.05865 0.5401 0.54173 0.0
H357 H 0.05859 0.48075 0.51788 0.0
S358 S 0.37385 0.51093 0.5252 0.0
N359 N 0.31771 0.5417 0.54396 0.0
N360 N 0.31718 0.47998 0.50811 0.0
C361 C 0.2484 0.49368 0.51813 0.0
C362 C 0.24861 0.52781 0.53595 0.0
C363 C 0.70308 0.53453 0.05723 0.0
C364 C 0.70284 0.53804 1.00629 0.0
C365 C 0.70171 0.5022 0.07907 0.0
C366 C 0.70107 0.47235 0.05069 0.0
H367 H 0.69909 0.55686 0.08026 0.0
H368 H 0.69738 0.50053 0.11837 0.0
S369 S 0.70957 0.468 0.91598 0.0
N370 N 0.70918 0.50921 0.92817 0.0
N371 N 0.70698 0.44839 0.96925 0.0
C372 C 0.70659 0.47556 0.99987 0.0
C373 C 0.70726 0.50845 0.97765 0.0
C374 C 0.59793 0.03735 0.50653 0.0
C375 C 0.60425 0.04032 0.55736 0.0
C376 C 0.59781 1.00528 0.48414 0.0
C377 C 0.60378 0.97513 0.51182 0.0
H378 H 0.5984 0.0599 0.4837 0.0
H379 H 0.59715 1.00412 0.44471 0.0
S380 S 0.60996 0.96934 0.64667 0.0
N381 N 0.60662 0.01064 0.63512 0.0
N382 N 0.60833 0.95035 0.59306 0.0
C383 C 0.6038 0.97777 0.56288 0.0
C384 C 0.60371 0.01041 0.58564 0.0
C385 C 0.21283 0.99805 0.06751 0.0
C386 C 0.19335 0.97055 0.0373 0.0
C387 C 0.21189 0.03161 0.04959 0.0
C388 C 0.19087 0.03845 1.00112 0.0
H389 H 0.22403 0.99378 0.10585 0.0
H390 H 0.22238 0.0524 0.07459 0.0
S391 S 0.14497 0.9746 0.90629 0.0
N392 N 0.15985 0.9518 0.95605 0.0
N393 N 0.15876 0.01472 0.92205 0.0
C394 C 0.17688 0.01083 0.96986 0.0
C395 C 0.1778 0.97686 0.98809 0.0
C396 C 0.42611 0.24888 0.57455 0.0
C397 C 0.42613 0.27352 0.53714 0.0
C398 C 0.49244 0.23198 0.58847 0.0
C399 C 0.56135 0.23893 0.56539 0.0
H400 H 0.37393 0.24178 0.59223 0.0
H401 H 0.48883 0.21225 0.6159 0.0
S402 S 0.59434 0.3038 0.46946 0.0
N403 N 0.50298 0.30621 0.48054 0.0
N404 N 0.62713 0.27358 0.50574 0.0
C405 C 0.56284 0.26414 0.52899 0.0
C406 C 0.49544 0.28164 0.51509 0.0
C407 C 0.39473 0.76336 1.03021 0.0
C408 C 0.38569 0.72835 0.04011 0.0
C409 C 0.3383 0.78706 0.04161 0.0
C410 C 0.27128 0.77692 0.06454 0.0
H411 H 0.44537 0.7726 1.01274 0.0
H412 H 0.34689 0.81356 0.03193 0.0
S413 S 0.21828 0.68909 0.09942 0.0
N414 N 0.30244 0.68505 0.07438 0.0
N415 N 0.19864 0.73023 0.09795 0.0
C416 C 0.26218 0.74249 0.07663 0.0
C417 C 0.31885 0.71804 0.06397 0.0
C418 C 0.43388 0.77016 0.49027 0.0
C419 C 0.4334 0.74405 0.52557 0.0
C420 C 0.50101 0.78606 0.47615 0.0
C421 C 0.57046 0.77665 0.49685 0.0
H422 H 0.38159 0.77926 0.47454 0.0
H423 H 0.49764 0.80697 0.45064 0.0
S424 S 0.60201 0.70759 0.58704 0.0
N425 N 0.50997 0.70758 0.57782 0.0
N426 N 0.63585 0.73834 0.55227 0.0
C427 C 0.57138 0.75003 0.53119 0.0
C428 C 0.50303 0.73353 0.54529 0.0
C429 C 0.28853 0.25569 0.975 0.0
C430 C 0.25212 0.23623 1.01118 0.0
C431 C 0.34857 0.27761 0.98669 0.0
C432 C 0.37516 0.28062 0.03484 0.0
H433 H 0.27045 0.25413 0.93738 0.0
H434 H 0.3746 0.2923 0.95786 0.0
S435 S 0.29815 0.2365 0.14353 0.0
N436 N 0.24687 0.2223 0.09775 0.0
N437 N 0.35885 0.2633 0.11908 0.0
C438 C 0.33942 0.26139 0.07128 0.0
C439 C 0.27816 0.23931 0.05961 0.0
C440 C 0.94749 0.72973 0.56178 0.0
C441 C 1.0197 0.73781 0.57954 0.0
C442 C 0.89863 0.75505 0.54451 0.0
C443 C 0.92011 0.7895 0.54404 0.0
H444 H 0.92891 0.70346 0.56035 0.0
H445 H 0.84383 0.74757 0.53086 0.0
S446 S 0.10313 0.82422 0.58664 0.0
N447 N 0.10993 0.7828 0.59652 0.0
N448 N 1.01842 0.83048 0.56318 0.0
C449 C 0.99139 0.79813 0.56293 0.0
C450 C 0.0411 0.77226 0.58091 0.0
C451 C 0.79928 0.28657 1.03034 0.0
C452 C 0.74247 0.27595 0.0625 0.0
C453 C 0.86069 0.26539 1.01935 0.0
C454 C 0.86697 0.2323 0.03911 0.0
H455 H 0.79683 0.31172 1.01401 0.0
H456 H 0.90363 0.27528 0.99527 0.0
S457 S 0.72803 0.19188 0.12285 0.0
N458 N 0.69436 0.2306 0.11352 0.0
N459 N 0.80659 0.18958 0.0908 0.0
C460 C 0.80918 0.22129 0.07098 0.0
C461 C 0.74776 0.24339 0.08313 0.0
C462 C 0.98754 0.26131 0.46195 0.0
C463 C 1.02026 0.2847 0.49436 0.0
C464 C 0.93696 0.23637 0.4788 0.0
C465 C 0.918 0.23398 0.52854 0.0
H466 H 0.99975 0.26278 0.42335 0.0
H467 H 0.91152 0.2192 0.45273 0.0
S468 S 0.9979 0.28581 0.62886 0.0
N469 N 1.03579 0.30179 0.57895 0.0
N470 N 0.94258 0.25466 0.61035 0.0
C471 C 0.95292 0.25635 0.56136 0.0
C472 C 1.00363 0.28176 0.54432 0.0
C473 C 0.76641 0.76363 0.97739 0.0
C474 C 0.751 0.73368 1.00353 0.0
C475 C 0.82974 0.78362 0.98853 0.0
C476 C 0.88095 0.77402 1.02555 0.0
H477 H 0.72838 0.77206 0.94887 0.0
H478 H 0.8378 0.80708 0.96846 0.0
S479 S 0.87074 0.69481 0.09971 0.0
N480 N 0.79418 0.69391 0.06554 0.0
N481 N 0.91502 0.73023 0.08465 0.0
C482 C 0.8674 0.74324 0.05053 0.0
C483 C 0.80206 0.72338 0.03993 0.0
loop_
_geom_bond_atom_site_label_1
_geom_bond_atom_site_label_2
_geom_bond_distance
_geom_bond_site_symmetry_2
_ccdc_geom_bond_type
C0 C1 1.351 . S
C0 N3 1.368 . S
C0 H5 0.931 . S
C1 C0 1.351 . S
C1 N2 1.374 1_455 S
C1 H29 0.930 . S
N2 C1 1.374 1_655 S
N2 C4 1.341 1_655 S
N3 C0 1.368 . S
N3 C4 1.321 . S
N3 Co6 2.135 . S
C4 N2 1.341 1_455 S
C4 N3 1.321 . S
C4 H28 0.930 . S
H5 C0 0.931 . S
Co6 N3 2.135 . S
Co6 N9 2.121 . S
Co6 O14 2.055 . S
Co6 O17 2.039 . S
Co6 N20 2.140 . S
C7 O8 1.227 . S
C7 O17 1.265 . S
O8 C7 1.227 . S
N9 Co6 2.121 . S
N9 C11 1.375 . S
N9 C12 1.313 . S
C10 C11 1.338 . S
C10 N13 1.377 . S
C10 H30 0.930 . S
C11 N9 1.375 . S
C11 C10 1.338 . S
C11 H15 0.931 . S
C12 N9 1.313 . S
C12 N13 1.344 . S
C12 H16 0.930 . S
N13 C10 1.377 . S
N13 C12 1.344 . S
O14 Co6 2.055 . S
O14 C18 1.253 . S
H15 C11 0.931 . S
H16 C12 0.930 . S
O17 Co6 2.039 . S
O17 C7 1.265 . S
C18 O14 1.253 . S
C18 O19 1.227 . S
O19 C18 1.227 . S
N20 Co6 2.140 . S
N20 C23 1.346 . S
N20 C24 1.345 . S
C21 C22 1.387 . S
C21 C25 1.391 . S
C22 C21 1.387 . S
C22 C23 1.369 . S
C22 H31 0.929 . S
C23 N20 1.346 . S
C23 C22 1.369 . S
C23 H26 0.928 . S
C24 N20 1.345 . S
C24 C25 1.371 . S
C24 H27 0.931 . S
C25 C21 1.391 . S
C25 C24 1.371 . S
C25 H32 0.930 . S
H26 C23 0.928 . S
H27 C24 0.931 . S
H28 C4 0.930 . S
H29 C1 0.930 . S
H30 C10 0.930 . S
H31 C22 0.929 . S
H32 C25 0.930 . S
C33 C34 1.351 . S
C33 N36 1.368 . S
C33 H38 0.931 . S
C34 C33 1.351 . S
C34 N35 1.373 . S
C34 H62 0.930 . S
N35 C34 1.373 . S
N35 C37 1.340 . S
N36 C33 1.368 . S
N36 C37 1.321 . S
N36 Co39 2.135 . S
C37 N35 1.340 . S
C37 N36 1.321 . S
C37 H61 0.930 . S
H38 C33 0.931 . S
Co39 N36 2.135 . S
Co39 N42 2.121 . S
Co39 O47 2.055 . S
Co39 O50 2.039 . S
Co39 N53 2.140 . S
C40 O41 1.227 . S
C40 O50 1.265 . S
O41 C40 1.227 . S
N42 Co39 2.121 . S
N42 C44 1.375 . S
N42 C45 1.313 . S
C43 C44 1.338 1_554 S
C43 N46 1.377 1_554 S
C43 H63 0.930 . S
C44 N42 1.375 . S
C44 C43 1.338 1_556 S
C44 H48 0.931 . S
C45 N42 1.313 . S
C45 N46 1.344 . S
C45 H49 0.930 . S
N46 C43 1.377 1_556 S
N46 C45 1.344 . S
O47 Co39 2.055 . S
O47 C51 1.253 . S
H48 C44 0.931 . S
H49 C45 0.930 . S
O50 Co39 2.039 . S
O50 C40 1.265 . S
C51 O47 1.253 . S
C51 O52 1.227 . S
O52 C51 1.227 . S
N53 Co39 2.140 . S
N53 C56 1.346 . S
N53 C57 1.345 . S
C54 C55 1.387 . S
C54 C58 1.391 . S
C55 C54 1.387 . S
C55 C56 1.369 . S
C55 H64 0.929 . S
C56 N53 1.346 . S
C56 C55 1.369 . S
C56 H59 0.928 . S
C57 N53 1.345 . S
C57 C58 1.371 . S
C57 H60 0.931 . S
C58 C54 1.391 . S
C58 C57 1.371 . S
C58 H65 0.930 . S
H59 C56 0.928 . S
H60 C57 0.931 . S
H61 C37 0.930 . S
H62 C34 0.930 . S
H63 C43 0.930 . S
H64 C55 0.929 . S
H65 C58 0.930 . S
C66 C67 1.351 . S
C66 N69 1.368 . S
C66 H71 0.931 . S
C67 C66 1.351 . S
C67 N68 1.374 1_455 S
C67 H95 0.930 . S
N68 C67 1.374 1_655 S
N68 C70 1.341 1_655 S
N69 C66 1.368 . S
N69 C70 1.321 . S
N69 Co72 2.135 . S
C70 N68 1.341 1_455 S
C70 N69 1.321 . S
C70 H94 0.930 . S
H71 C66 0.931 . S
Co72 N69 2.135 . S
Co72 N75 2.121 . S
Co72 O80 2.055 . S
Co72 O83 2.039 . S
Co72 N86 2.140 . S
C73 O74 1.227 . S
C73 O83 1.265 . S
O74 C73 1.227 . S
N75 Co72 2.121 . S
N75 C77 1.375 . S
N75 C78 1.313 . S
C76 C77 1.338 . S
C76 N79 1.377 . S
C76 H96 0.930 . S
C77 N75 1.375 . S
C77 C76 1.338 . S
C77 H81 0.931 . S
C78 N75 1.313 . S
C78 N79 1.344 . S
C78 H82 0.930 . S
N79 C76 1.377 . S
N79 C78 1.344 . S
O80 Co72 2.055 . S
O80 C84 1.253 . S
H81 C77 0.931 . S
H82 C78 0.930 . S
O83 Co72 2.039 . S
O83 C73 1.265 . S
C84 O80 1.253 . S
C84 O85 1.227 . S
O85 C84 1.227 . S
N86 Co72 2.140 . S
N86 C89 1.346 . S
N86 C90 1.345 . S
C87 C88 1.387 . S
C87 C91 1.391 . S
C88 C87 1.387 . S
C88 C89 1.369 . S
C88 H97 0.929 . S
C89 N86 1.346 . S
C89 C88 1.369 . S
C89 H92 0.928 . S
C90 N86 1.345 . S
C90 C91 1.371 . S
C90 H93 0.931 . S
C91 C87 1.391 . S
C91 C90 1.371 . S
C91 H98 0.930 . S
H92 C89 0.928 . S
H93 C90 0.931 . S
H94 C70 0.930 . S
H95 C67 0.930 . S
H96 C76 0.930 . S
H97 C88 0.929 . S
H98 C91 0.930 . S
C99 C100 1.351 . S
C99 N102 1.368 . S
C99 H104 0.931 . S
C100 C99 1.351 . S
C100 N101 1.373 . S
C100 H128 0.930 . S
N101 C100 1.373 . S
N101 C103 1.340 . S
N102 C99 1.368 . S
N102 C103 1.321 . S
N102 Co105 2.135 . S
C103 N101 1.340 . S
C103 N102 1.321 . S
C103 H127 0.930 . S
H104 C99 0.931 . S
Co105 N102 2.135 . S
Co105 N108 2.121 . S
Co105 O113 2.055 . S
Co105 O116 2.039 . S
Co105 N119 2.140 . S
C106 O107 1.227 . S
C106 O116 1.265 . S
O107 C106 1.227 . S
N108 Co105 2.121 . S
N108 C110 1.375 . S
N108 C111 1.313 . S
C109 C110 1.338 1_556 S
C109 N112 1.377 1_556 S
C109 H129 0.930 . S
C110 N108 1.375 . S
C110 C109 1.338 1_554 S
C110 H114 0.931 . S
C111 N108 1.313 . S
C111 N112 1.344 . S
C111 H115 0.930 . S
N112 C109 1.377 1_554 S
N112 C111 1.344 . S
O113 Co105 2.055 . S
O113 C117 1.253 . S
H114 C110 0.931 . S
H115 C111 0.930 . S
O116 Co105 2.039 . S
O116 C106 1.265 . S
C117 O113 1.253 . S
C117 O118 1.227 . S
O118 C117 1.227 . S
N119 Co105 2.140 . S
N119 C122 1.346 . S
N119 C123 1.345 . S
C120 C121 1.387 . S
C120 C124 1.391 . S
C121 C120 1.387 . S
C121 C122 1.369 . S
C121 H130 0.929 . S
C122 N119 1.346 . S
C122 C121 1.369 . S
C122 H125 0.928 . S
C123 N119 1.345 . S
C123 C124 1.371 . S
C123 H126 0.931 . S
C124 C120 1.391 . S
C124 C123 1.371 . S
C124 H131 0.930 . S
H125 C122 0.928 . S
H126 C123 0.931 . S
H127 C103 0.930 . S
H128 C100 0.930 . S
H129 C109 0.930 . S
H130 C121 0.929 . S
H131 C124 0.930 . S
C132 C133 1.351 . S
C132 N135 1.368 . S
C132 H137 0.931 . S
C133 C132 1.351 . S
C133 N134 1.373 . S
C133 H161 0.930 . S
N134 C133 1.373 . S
N134 C136 1.340 . S
N135 C132 1.368 . S
N135 C136 1.321 . S
N135 Co138 2.135 . S
C136 N134 1.340 . S
C136 N135 1.321 . S
C136 H160 0.930 . S
H137 C132 0.931 . S
Co138 N135 2.135 . S
Co138 N141 2.121 . S
Co138 O146 2.055 . S
Co138 O149 2.039 . S
Co138 N152 2.140 . S
C139 O140 1.227 . S
C139 O149 1.265 . S
O140 C139 1.227 . S
N141 Co138 2.121 . S
N141 C143 1.375 . S
N141 C144 1.313 . S
C142 C143 1.338 . S
C142 N145 1.377 . S
C142 H162 0.930 . S
C143 N141 1.375 . S
C143 C142 1.338 . S
C143 H147 0.931 . S
C144 N141 1.313 . S
C144 N145 1.344 . S
C144 H148 0.930 . S
N145 C142 1.377 . S
N145 C144 1.344 . S
O146 Co138 2.055 . S
O146 C150 1.253 . S
H147 C143 0.931 . S
H148 C144 0.930 . S
O149 Co138 2.039 . S
O149 C139 1.265 . S
C150 O146 1.253 . S
C150 O151 1.227 . S
O151 C150 1.227 . S
N152 Co138 2.140 . S
N152 C155 1.346 . S
N152 C156 1.345 . S
C153 C154 1.387 . S
C153 C157 1.391 . S
C154 C153 1.387 . S
C154 C155 1.369 . S
C154 H163 0.929 . S
C155 N152 1.346 . S
C155 C154 1.369 . S
C155 H158 0.928 . S
C156 N152 1.345 . S
C156 C157 1.371 . S
C156 H159 0.931 . S
C157 C153 1.391 . S
C157 C156 1.371 . S
C157 H164 0.930 . S
H158 C155 0.928 . S
H159 C156 0.931 . S
H160 C136 0.930 . S
H161 C133 0.930 . S
H162 C142 0.930 . S
H163 C154 0.929 . S
H164 C157 0.930 . S
C165 C166 1.351 . S
C165 N168 1.368 . S
C165 H170 0.931 . S
C166 C165 1.351 . S
C166 N167 1.373 . S
C166 H194 0.930 . S
N167 C166 1.373 . S
N167 C169 1.340 . S
N168 C165 1.368 . S
N168 C169 1.321 . S
N168 Co171 2.135 . S
C169 N167 1.340 . S
C169 N168 1.321 . S
C169 H193 0.930 . S
H170 C165 0.931 . S
Co171 N168 2.135 . S
Co171 N174 2.121 1_455 S
Co171 O179 2.055 . S
Co171 O182 2.039 . S
Co171 N185 2.140 . S
C172 O173 1.227 . S
C172 O182 1.265 . S
O173 C172 1.227 . S
N174 Co171 2.121 1_655 S
N174 C176 1.375 1_655 S
N174 C177 1.313 . S
C175 C176 1.338 1_654 S
C175 N178 1.377 1_554 S
C175 H195 0.930 . S
C176 N174 1.375 1_455 S
C176 C175 1.338 1_456 S
C176 H180 0.931 . S
C177 N174 1.313 . S
C177 N178 1.344 . S
C177 H181 0.930 . S
N178 C175 1.377 1_556 S
N178 C177 1.344 . S
O179 Co171 2.055 . S
O179 C183 1.253 1_455 S
H180 C176 0.931 . S
H181 C177 0.930 . S
O182 Co171 2.039 . S
O182 C172 1.265 . S
C183 O179 1.253 1_655 S
C183 O184 1.227 . S
O184 C183 1.227 . S
N185 Co171 2.140 . S
N185 C188 1.346 . S
N185 C189 1.345 . S
C186 C187 1.387 . S
C186 C190 1.391 . S
C187 C186 1.387 . S
C187 C188 1.369 . S
C187 H196 0.929 . S
C188 N185 1.346 . S
C188 C187 1.369 . S
C188 H191 0.928 . S
C189 N185 1.345 . S
C189 C190 1.371 . S
C189 H192 0.931 1_455 S
C190 C186 1.391 . S
C190 C189 1.371 . S
C190 H197 0.930 1_455 S
H191 C188 0.928 . S
H192 C189 0.931 1_655 S
H193 C169 0.930 . S
H194 C166 0.930 . S
H195 C175 0.930 . S
H196 C187 0.929 . S
H197 C190 0.930 1_655 S
C198 C199 1.351 . S
C198 N201 1.368 . S
C198 H203 0.931 . S
C199 C198 1.351 . S
C199 N200 1.373 . S
C199 H227 0.930 . S
N200 C199 1.373 . S
N200 C202 1.340 . S
N201 C198 1.368 . S
N201 C202 1.321 . S
N201 Co204 2.135 . S
C202 N200 1.340 . S
C202 N201 1.321 . S
C202 H226 0.930 . S
H203 C198 0.931 . S
Co204 N201 2.135 . S
Co204 N207 2.121 . S
Co204 O212 2.055 . S
Co204 O215 2.039 . S
Co204 N218 2.140 . S
C205 O206 1.227 . S
C205 O215 1.265 . S
O206 C205 1.227 . S
N207 Co204 2.121 . S
N207 C209 1.375 . S
N207 C210 1.313 . S
C208 C209 1.338 . S
C208 N211 1.377 . S
C208 H228 0.930 . S
C209 N207 1.375 . S
C209 C208 1.338 . S
C209 H213 0.931 . S
C210 N207 1.313 . S
C210 N211 1.344 . S
C210 H214 0.930 . S
N211 C208 1.377 . S
N211 C210 1.344 . S
O212 Co204 2.055 . S
O212 C216 1.253 . S
H213 C209 0.931 . S
H214 C210 0.930 . S
O215 Co204 2.039 . S
O215 C205 1.265 . S
C216 O212 1.253 . S
C216 O217 1.227 . S
O217 C216 1.227 . S
N218 Co204 2.140 . S
N218 C221 1.346 . S
N218 C222 1.345 . S
C219 C220 1.387 . S
C219 C223 1.391 . S
C220 C219 1.387 . S
C220 C221 1.369 . S
C220 H229 0.929 . S
C221 N218 1.346 . S
C221 C220 1.369 . S
C221 H224 0.928 . S
C222 N218 1.345 . S
C222 C223 1.371 . S
C222 H225 0.931 . S
C223 C219 1.391 . S
C223 C222 1.371 . S
C223 H230 0.930 . S
H224 C221 0.928 . S
H225 C222 0.931 . S
H226 C202 0.930 . S
H227 C199 0.930 . S
H228 C208 0.930 . S
H229 C220 0.929 . S
H230 C223 0.930 . S
C231 C232 1.351 . S
C231 N234 1.368 . S
C231 H236 0.931 . S
C232 C231 1.351 . S
C232 N233 1.373 . S
C232 H260 0.930 . S
N233 C232 1.373 . S
N233 C235 1.340 . S
N234 C231 1.368 . S
N234 C235 1.321 . S
N234 Co237 2.135 . S
C235 N233 1.340 . S
C235 N234 1.321 . S
C235 H259 0.930 . S
H236 C231 0.931 . S
Co237 N234 2.135 . S
Co237 N240 2.121 1_455 S
Co237 O245 2.055 . S
Co237 O248 2.039 . S
Co237 N251 2.140 . S
C238 O239 1.227 . S
C238 O248 1.265 . S
O239 C238 1.227 . S
N240 Co237 2.121 1_655 S
N240 C242 1.375 1_655 S
N240 C243 1.313 . S
C241 C242 1.338 1_656 S
C241 N244 1.377 1_556 S
C241 H261 0.930 . S
C242 N240 1.375 1_455 S
C242 C241 1.338 1_454 S
C242 H246 0.931 . S
C243 N240 1.313 . S
C243 N244 1.344 . S
C243 H247 0.930 . S
N244 C241 1.377 1_554 S
N244 C243 1.344 . S
O245 Co237 2.055 . S
O245 C249 1.253 1_455 S
H246 C242 0.931 . S
H247 C243 0.930 . S
O248 Co237 2.039 . S
O248 C238 1.265 . S
C249 O245 1.253 1_655 S
C249 O250 1.227 . S
O250 C249 1.227 . S
N251 Co237 2.140 . S
N251 C254 1.346 . S
N251 C255 1.345 . S
C252 C253 1.387 . S
C252 C256 1.391 . S
C253 C252 1.387 . S
C253 C254 1.369 . S
C253 H262 0.929 . S
C254 N251 1.346 . S
C254 C253 1.369 . S
C254 H257 0.928 . S
C255 N251 1.345 . S
C255 C256 1.371 . S
C255 H258 0.931 1_455 S
C256 C252 1.391 . S
C256 C255 1.371 . S
C256 H263 0.930 1_455 S
H257 C254 0.928 . S
H258 C255 0.931 1_655 S
H259 C235 0.930 . S
H260 C232 0.930 . S
H261 C241 0.930 . S
H262 C253 0.929 . S
H263 C256 0.930 1_655 S
C264 C265 1.369 . S
C264 C266 1.419 . S
C264 H268 0.930 . S
C265 C264 1.369 . S
C265 C274 1.429 . S
C266 C264 1.419 . S
C266 C267 1.363 . S
C266 H269 0.929 . S
C267 C266 1.363 . S
C267 C273 1.428 . S
H268 C264 0.930 . S
H269 C266 0.929 . S
S270 N271 1.613 . S
S270 N272 1.610 . S
N271 S270 1.613 . S
N271 C274 1.350 . S
N272 S270 1.610 . S
N272 C273 1.351 . S
C273 C267 1.428 . S
C273 N272 1.351 . S
C273 C274 1.434 . S
C274 C265 1.429 . S
C274 N271 1.350 . S
C274 C273 1.434 . S
C275 C276 1.369 . S
C275 C277 1.419 . S
C275 H279 0.930 . S
C276 C275 1.369 . S
C276 C285 1.429 . S
C277 C275 1.419 . S
C277 C278 1.363 . S
C277 H280 0.929 . S
C278 C277 1.363 . S
C278 C284 1.428 . S
H279 C275 0.930 . S
H280 C277 0.929 . S
S281 N282 1.613 . S
S281 N283 1.610 . S
N282 S281 1.613 . S
N282 C285 1.350 . S
N283 S281 1.610 . S
N283 C284 1.351 . S
C284 C278 1.428 . S
C284 N283 1.351 . S
C284 C285 1.434 . S
C285 C276 1.429 . S
C285 N282 1.350 . S
C285 C284 1.434 . S
C286 C287 1.369 . S
C286 C288 1.419 . S
C286 H290 0.930 . S
C287 C286 1.369 . S
C287 C296 1.429 . S
C288 C286 1.419 . S
C288 C289 1.363 . S
C288 H291 0.929 . S
C289 C288 1.363 . S
C289 C295 1.428 . S
H290 C286 0.930 . S
H291 C288 0.929 . S
S292 N293 1.613 . S
S292 N294 1.610 . S
N293 S292 1.613 . S
N293 C296 1.350 . S
N294 S292 1.610 . S
N294 C295 1.351 . S
C295 C289 1.428 . S
C295 N294 1.351 . S
C295 C296 1.434 . S
C296 C287 1.429 . S
C296 N293 1.350 . S
C296 C295 1.434 . S
C297 C298 1.369 . S
C297 C299 1.419 . S
C297 H301 0.930 . S
C298 C297 1.369 . S
C298 C307 1.429 . S
C299 C297 1.419 . S
C299 C300 1.363 . S
C299 H302 0.929 . S
C300 C299 1.363 . S
C300 C306 1.428 . S
H301 C297 0.930 . S
H302 C299 0.929 . S
S303 N304 1.613 . S
S303 N305 1.610 . S
N304 S303 1.613 . S
N304 C307 1.350 . S
N305 S303 1.610 . S
N305 C306 1.351 . S
C306 C300 1.428 . S
C306 N305 1.351 . S
C306 C307 1.434 . S
C307 C298 1.429 . S
C307 N304 1.350 . S
C307 C306 1.434 . S
C308 C309 1.369 . S
C308 C310 1.419 . S
C308 H312 0.930 . S
C309 C308 1.369 . S
C309 C318 1.429 . S
C310 C308 1.419 . S
C310 C311 1.363 . S
C310 H313 0.929 . S
C311 C310 1.363 . S
C311 C317 1.428 . S
H312 C308 0.930 . S
H313 C310 0.929 . S
S314 N315 1.613 . S
S314 N316 1.610 . S
N315 S314 1.613 . S
N315 C318 1.350 . S
N316 S314 1.610 . S
N316 C317 1.351 . S
C317 C311 1.428 . S
C317 N316 1.351 . S
C317 C318 1.434 . S
C318 C309 1.429 . S
C318 N315 1.350 . S
C318 C317 1.434 . S
C319 C320 1.369 . S
C319 C321 1.419 . S
C319 H323 0.930 . S
C320 C319 1.369 . S
C320 C329 1.429 . S
C321 C319 1.419 . S
C321 C322 1.363 . S
C321 H324 0.929 . S
C322 C321 1.363 . S
C322 C328 1.428 . S
H323 C319 0.930 . S
H324 C321 0.929 . S
S325 N326 1.613 . S
S325 N327 1.610 . S
N326 S325 1.613 . S
N326 C329 1.350 . S
N327 S325 1.610 . S
N327 C328 1.351 . S
C328 C322 1.428 . S
C328 N327 1.351 . S
C328 C329 1.434 . S
C329 C320 1.429 . S
C329 N326 1.350 . S
C329 C328 1.434 . S
C330 C331 1.369 . S
C330 C332 1.419 . S
C330 H334 0.930 . S
C331 C330 1.369 . S
C331 C340 1.429 . S
C332 C330 1.419 . S
C332 C333 1.363 . S
C332 H335 0.929 . S
C333 C332 1.363 . S
C333 C339 1.428 . S
H334 C330 0.930 . S
H335 C332 0.929 . S
S336 N337 1.613 . S
S336 N338 1.610 . S
N337 S336 1.613 . S
N337 C340 1.350 . S
N338 S336 1.610 . S
N338 C339 1.351 . S
C339 C333 1.428 . S
C339 N338 1.351 . S
C339 C340 1.434 . S
C340 C331 1.429 . S
C340 N337 1.350 . S
C340 C339 1.434 . S
C341 C342 1.369 . S
C341 C343 1.419 . S
C341 H345 0.930 . S
C342 C341 1.369 . S
C342 C351 1.429 . S
C343 C341 1.419 . S
C343 C344 1.363 . S
C343 H346 0.929 . S
C344 C343 1.363 . S
C344 C350 1.428 . S
H345 C341 0.930 . S
H346 C343 0.929 . S
S347 N348 1.613 . S
S347 N349 1.610 . S
N348 S347 1.613 . S
N348 C351 1.350 . S
N349 S347 1.610 . S
N349 C350 1.351 . S
C350 C344 1.428 . S
C350 N349 1.351 . S
C350 C351 1.434 . S
C351 C342 1.429 . S
C351 N348 1.350 . S
C351 C350 1.434 . S
C352 C353 1.369 . S
C352 C354 1.419 . S
C352 H356 0.930 . S
C353 C352 1.369 . S
C353 C362 1.429 . S
C354 C352 1.419 . S
C354 C355 1.363 . S
C354 H357 0.929 . S
C355 C354 1.363 . S
C355 C361 1.428 . S
H356 C352 0.930 . S
H357 C354 0.929 . S
S358 N359 1.613 . S
S358 N360 1.610 . S
N359 S358 1.613 . S
N359 C362 1.350 . S
N360 S358 1.610 . S
N360 C361 1.351 . S
C361 C355 1.428 . S
C361 N360 1.351 . S
C361 C362 1.434 . S
C362 C353 1.429 . S
C362 N359 1.350 . S
C362 C361 1.434 . S
C363 C364 1.369 . S
C363 C365 1.419 1_556 S
C363 H367 0.930 . S
C364 C363 1.369 . S
C364 C373 1.429 . S
C365 C363 1.419 1_554 S
C365 C366 1.363 . S
C365 H368 0.929 . S
C366 C365 1.363 . S
C366 C372 1.428 . S
H367 C363 0.930 . S
H368 C365 0.929 . S
S369 N370 1.613 . S
S369 N371 1.610 1_556 S
N370 S369 1.613 . S
N370 C373 1.350 . S
N371 S369 1.610 1_554 S
N371 C372 1.351 . S
C372 C366 1.428 . S
C372 N371 1.351 . S
C372 C373 1.434 1_554 S
C373 C364 1.429 . S
C373 N370 1.350 . S
C373 C372 1.434 1_556 S
C374 C375 1.369 . S
C374 C376 1.419 1_545 S
C374 H378 0.930 . S
C375 C374 1.369 . S
C375 C384 1.429 . S
C376 C374 1.419 1_565 S
C376 C377 1.363 . S
C376 H379 0.929 . S
C377 C376 1.363 . S
C377 C383 1.428 . S
H378 C374 0.930 . S
H379 C376 0.929 . S
S380 N381 1.613 1_565 S
S380 N382 1.610 . S
N381 S380 1.613 1_545 S
N381 C384 1.350 . S
N382 S380 1.610 . S
N382 C383 1.351 . S
C383 C377 1.428 . S
C383 N382 1.351 . S
C383 C384 1.434 1_565 S
C384 C375 1.429 . S
C384 N381 1.350 . S
C384 C383 1.434 1_545 S
C385 C386 1.369 . S
C385 C387 1.419 1_565 S
C385 H389 0.930 . S
C386 C385 1.369 . S
C386 C395 1.429 1_554 S
C387 C385 1.419 1_545 S
C387 C388 1.363 1_554 S
C387 H390 0.929 . S
C388 C387 1.363 1_556 S
C388 C394 1.428 . S
H389 C385 0.930 . S
H390 C387 0.929 . S
S391 N392 1.613 . S
S391 N393 1.610 1_565 S
N392 S391 1.613 . S
N392 C395 1.350 . S
N393 S391 1.610 1_545 S
N393 C394 1.351 . S
C394 C388 1.428 . S
C394 N393 1.351 . S
C394 C395 1.434 1_545 S
C395 C386 1.429 1_556 S
C395 N392 1.350 . S
C395 C394 1.434 1_565 S
C396 C397 1.369 . S
C396 C398 1.419 . S
C396 H400 0.930 . S
C397 C396 1.369 . S
C397 C406 1.429 . S
C398 C396 1.419 . S
C398 C399 1.363 . S
C398 H401 0.929 . S
C399 C398 1.363 . S
C399 C405 1.428 . S
H400 C396 0.930 . S
H401 C398 0.929 . S
S402 N403 1.613 . S
S402 N404 1.610 . S
N403 S402 1.613 . S
N403 C406 1.350 . S
N404 S402 1.610 . S
N404 C405 1.351 . S
C405 C399 1.428 . S
C405 N404 1.351 . S
C405 C406 1.434 . S
C406 C397 1.429 . S
C406 N403 1.350 . S
C406 C405 1.434 . S
C407 C408 1.369 . S
C407 C409 1.419 1_556 S
C407 H411 0.930 . S
C408 C407 1.369 . S
C408 C417 1.429 1_556 S
C409 C407 1.419 1_554 S
C409 C410 1.363 . S
C409 H412 0.929 . S
C410 C409 1.363 . S
C410 C416 1.428 . S
H411 C407 0.930 . S
H412 C409 0.929 . S
S413 N414 1.613 . S
S413 N415 1.610 . S
N414 S413 1.613 . S
N414 C417 1.350 . S
N415 S413 1.610 . S
N415 C416 1.351 . S
C416 C410 1.428 . S
C416 N415 1.351 . S
C416 C417 1.434 . S
C417 C408 1.429 1_554 S
C417 N414 1.350 . S
C417 C416 1.434 . S
C418 C419 1.369 . S
C418 C420 1.419 . S
C418 H422 0.930 . S
C419 C418 1.369 . S
C419 C428 1.429 . S
C420 C418 1.419 . S
C420 C421 1.363 . S
C420 H423 0.929 . S
C421 C420 1.363 . S
C421 C427 1.428 . S
H422 C418 0.930 . S
H423 C420 0.929 . S
S424 N425 1.613 . S
S424 N426 1.610 . S
N425 S424 1.613 . S
N425 C428 1.350 . S
N426 S424 1.610 . S
N426 C427 1.351 . S
C427 C421 1.428 . S
C427 N426 1.351 . S
C427 C428 1.434 . S
C428 C419 1.429 . S
C428 N425 1.350 . S
C428 C427 1.434 . S
C429 C430 1.369 . S
C429 C431 1.419 . S
C429 H433 0.930 . S
C430 C429 1.369 . S
C430 C439 1.429 1_556 S
C431 C429 1.419 . S
C431 C432 1.363 1_556 S
C431 H434 0.929 . S
C432 C431 1.363 1_554 S
C432 C438 1.428 . S
H433 C429 0.930 . S
H434 C431 0.929 . S
S435 N436 1.613 . S
S435 N437 1.610 . S
N436 S435 1.613 . S
N436 C439 1.350 . S
N437 S435 1.610 . S
N437 C438 1.351 . S
C438 C432 1.428 . S
C438 N437 1.351 . S
C438 C439 1.434 . S
C439 C430 1.429 1_554 S
C439 N436 1.350 . S
C439 C438 1.434 . S
C440 C441 1.369 1_655 S
C440 C442 1.419 . S
C440 H444 0.930 1_655 S
C441 C440 1.369 1_455 S
C441 C450 1.429 1_455 S
C442 C440 1.419 . S
C442 C443 1.363 . S
C442 H445 0.929 . S
C443 C442 1.363 . S
C443 C449 1.428 . S
H444 C440 0.930 1_455 S
H445 C442 0.929 . S
S446 N447 1.613 . S
S446 N448 1.610 . S
N447 S446 1.613 . S
N447 C450 1.350 . S
N448 S446 1.610 . S
N448 C449 1.351 . S
C449 C443 1.428 . S
C449 N448 1.351 . S
C449 C450 1.434 . S
C450 C441 1.429 1_655 S
C450 N447 1.350 . S
C450 C449 1.434 . S
C451 C452 1.369 1_556 S
C451 C453 1.419 . S
C451 H455 0.930 . S
C452 C451 1.369 1_554 S
C452 C461 1.429 . S
C453 C451 1.419 . S
C453 C454 1.363 . S
C453 H456 0.929 . S
C454 C453 1.363 . S
C454 C460 1.428 1_556 S
H455 C451 0.930 . S
H456 C453 0.929 . S
S457 N458 1.613 . S
S457 N459 1.610 . S
N458 S457 1.613 . S
N458 C461 1.350 . S
N459 S457 1.610 . S
N459 C460 1.351 . S
C460 C454 1.428 1_554 S
C460 N459 1.351 . S
C460 C461 1.434 . S
C461 C452 1.429 . S
C461 N458 1.350 . S
C461 C460 1.434 . S
C462 C463 1.369 1_655 S
C462 C464 1.419 . S
C462 H466 0.927 1_655 S
C463 C462 1.369 1_455 S
C463 C472 1.429 1_455 S
C464 C462 1.419 . S
C464 C465 1.363 . S
C464 H467 0.929 . S
C465 C464 1.363 . S
C465 C471 1.428 . S
H466 C462 0.927 1_455 S
H467 C464 0.929 . S
S468 N469 1.613 1_655 S
S468 N470 1.610 . S
N469 S468 1.613 1_455 S
N469 C472 1.350 1_455 S
N470 S468 1.610 . S
N470 C471 1.351 . S
C471 C465 1.428 . S
C471 N470 1.351 . S
C471 C472 1.434 . S
C472 C463 1.429 1_655 S
C472 N469 1.350 1_655 S
C472 C471 1.434 . S
C473 C474 1.369 . S
C473 C475 1.419 . S
C473 H477 0.930 . S
C474 C473 1.369 . S
C474 C483 1.429 . S
C475 C473 1.419 . S
C475 C476 1.363 1_556 S
C475 H478 0.929 . S
C476 C475 1.363 1_554 S
C476 C482 1.428 . S
H477 C473 0.930 . S
H478 C475 0.929 . S
S479 N480 1.613 1_554 S
S479 N481 1.610 . S
N480 S479 1.613 1_556 S
N480 C483 1.350 . S
N481 S479 1.610 . S
N481 C482 1.351 . S
C482 C476 1.428 . S
C482 N481 1.351 . S
C482 C483 1.434 1_554 S
C483 C474 1.429 . S
C483 N480 1.350 . S
C483 C482 1.434 1_556 S
C265 C18 1.411 . S
C267 C117 1.412 . S
C276 C51 1.412 . S
C278 C84 1.411 . S
C287 N68 1.535 . S
C289 N35 1.532 . S
C298 N101 1.539 . S
C300 N2 1.532 . S
C309 C150 1.412 . S
C311 C249 1.411 . S
C320 C216 1.412 . S
C322 C183 1.411 . S
C331 N167 1.533 . S
C333 N200 1.534 . S
C342 N233 1.533 . S
C344 N134 1.538 . S
C353 C87 1.504 . S
C355 C21 1.504 . S
C364 C54 1.504 . S
C366 C120 1.504 . S
C375 C219 1.504 . S
C377 C153 1.504 . S
C386 C252 1.505 . S
C388 C186 1.504 . S
C397 N13 1.468 . S
C399 C205 1.504 . S
C408 N46 1.467 . S
C410 C238 1.505 . S
C419 N79 1.468 . S
C421 C139 1.504 . S
C430 C172 1.505 . S
C432 N112 1.467 . S
C441 C73 1.503 . S
C443 N145 1.462 . S
C452 C106 1.504 . S
C454 N178 1.463 . S
C463 C7 1.502 . S
C465 N211 1.465 . S
C474 C40 1.501 . S
C476 N244 1.462 . S
