# Generated by pormake.
# Topology sme, (6)-cn, num edge types: 1
# Building blocks:
#     Node 0, Type 0, BuildingBlock: OJICUG_clean_sbu_0, # of connection points: 6
#     Node 1, Type 0, BuildingBlock: OJICUG_clean_sbu_0, # of connection points: 6
#     Node 2, Type 0, BuildingBlock: OJICUG_clean_sbu_0, # of connection points: 6
#     Node 3, Type 0, BuildingBlock: OJICUG_clean_sbu_0, # of connection points: 6
#     Node 4, Type 0, BuildingBlock: OJICUG_clean_sbu_0, # of connection points: 6
#     Node 5, Type 0, BuildingBlock: OJICUG_clean_sbu_0, # of connection points: 6
#     Node 6, Type 0, BuildingBlock: OJICUG_clean_sbu_0, # of connection points: 6
#     Node 7, Type 0, BuildingBlock: OJICUG_clean_sbu_0, # of connection points: 6
#     Node 8, Type 0, BuildingBlock: OJICUG_clean_sbu_0, # of connection points: 6
#     Node 9, Type 0, BuildingBlock: OJICUG_clean_sbu_0, # of connection points: 6
#     Node 10, Type 0, BuildingBlock: OJICUG_clean_sbu_0, # of connection points: 6
#     Node 11, Type 0, BuildingBlock: OJICUG_clean_sbu_0, # of connection points: 6
#     Node 12, Type 0, BuildingBlock: OJICUG_clean_sbu_0, # of connection points: 6
#     Node 13, Type 0, BuildingBlock: OJICUG_clean_sbu_0, # of connection points: 6
#     Node 14, Type 0, BuildingBlock: OJICUG_clean_sbu_0, # of connection points: 6
#     Node 15, Type 0, BuildingBlock: OJICUG_clean_sbu_0, # of connection points: 6
#     Node 16, Type 0, BuildingBlock: OJICUG_clean_sbu_0, # of connection points: 6
#     Node 17, Type 0, BuildingBlock: OJICUG_clean_sbu_0, # of connection points: 6
#     Edge 18, Type (0, 0), BuildingBlock: OJICUG_clean_linker_0, # of connection points: 2
#     Edge 19, Type (0, 0), BuildingBlock: OJICUG_clean_linker_0, # of connection points: 2
#     Edge 20, Type (0, 0), BuildingBlock: OJICUG_clean_linker_0, # of connection points: 2
#     Edge 21, Type (0, 0), BuildingBlock: OJICUG_clean_linker_0, # of connection points: 2
#     Edge 22, Type (0, 0), BuildingBlock: OJICUG_clean_linker_0, # of connection points: 2
#     Edge 23, Type (0, 0), BuildingBlock: OJICUG_clean_linker_0, # of connection points: 2
#     Edge 24, Type (0, 0), BuildingBlock: OJICUG_clean_linker_0, # of connection points: 2
#     Edge 25, Type (0, 0), BuildingBlock: OJICUG_clean_linker_0, # of connection points: 2
#     Edge 26, Type (0, 0), BuildingBlock: OJICUG_clean_linker_0, # of connection points: 2
#     Edge 27, Type (0, 0), BuildingBlock: OJICUG_clean_linker_0, # of connection points: 2
#     Edge 28, Type (0, 0), BuildingBlock: OJICUG_clean_linker_0, # of connection points: 2
#     Edge 29, Type (0, 0), BuildingBlock: OJICUG_clean_linker_0, # of connection points: 2
#     Edge 30, Type (0, 0), BuildingBlock: OJICUG_clean_linker_0, # of connection points: 2
#     Edge 31, Type (0, 0), BuildingBlock: OJICUG_clean_linker_0, # of connection points: 2
#     Edge 32, Type (0, 0), BuildingBlock: OJICUG_clean_linker_0, # of connection points: 2
#     Edge 33, Type (0, 0), BuildingBlock: OJICUG_clean_linker_0, # of connection points: 2
#     Edge 34, Type (0, 0), BuildingBlock: OJICUG_clean_linker_0, # of connection points: 2
#     Edge 35, Type (0, 0), BuildingBlock: OJICUG_clean_linker_0, # of connection points: 2
#     Edge 36, Type (0, 0), BuildingBlock: OJICUG_clean_linker_0, # of connection points: 2
#     Edge 37, Type (0, 0), BuildingBlock: OJICUG_clean_linker_0, # of connection points: 2
#     Edge 38, Type (0, 0), BuildingBlock: OJICUG_clean_linker_0, # of connection points: 2
#     Edge 39, Type (0, 0), BuildingBlock: OJICUG_clean_linker_0, # of connection points: 2
#     Edge 40, Type (0, 0), BuildingBlock: OJICUG_clean_linker_0, # of connection points: 2
#     Edge 41, Type (0, 0), BuildingBlock: OJICUG_clean_linker_0, # of connection points: 2
#     Edge 42, Type (0, 0), BuildingBlock: OJICUG_clean_linker_0, # of connection points: 2
#     Edge 43, Type (0, 0), BuildingBlock: OJICUG_clean_linker_0, # of connection points: 2
#     Edge 44, Type (0, 0), BuildingBlock: OJICUG_clean_linker_0, # of connection points: 2
#     Edge 45, Type (0, 0), BuildingBlock: OJICUG_clean_linker_0, # of connection points: 2
#     Edge 46, Type (0, 0), BuildingBlock: OJICUG_clean_linker_0, # of connection points: 2
#     Edge 47, Type (0, 0), BuildingBlock: OJICUG_clean_linker_0, # of connection points: 2
#     Edge 48, Type (0, 0), BuildingBlock: OJICUG_clean_linker_0, # of connection points: 2
#     Edge 49, Type (0, 0), BuildingBlock: OJICUG_clean_linker_0, # of connection points: 2
#     Edge 50, Type (0, 0), BuildingBlock: OJICUG_clean_linker_0, # of connection points: 2
#     Edge 51, Type (0, 0), BuildingBlock: OJICUG_clean_linker_0, # of connection points: 2
#     Edge 52, Type (0, 0), BuildingBlock: OJICUG_clean_linker_0, # of connection points: 2
#     Edge 53, Type (0, 0), BuildingBlock: OJICUG_clean_linker_0, # of connection points: 2
#     Edge 54, Type (0, 0), BuildingBlock: OJICUG_clean_linker_0, # of connection points: 2
#     Edge 55, Type (0, 0), BuildingBlock: OJICUG_clean_linker_0, # of connection points: 2
#     Edge 56, Type (0, 0), BuildingBlock: OJICUG_clean_linker_0, # of connection points: 2
#     Edge 57, Type (0, 0), BuildingBlock: OJICUG_clean_linker_0, # of connection points: 2
#     Edge 58, Type (0, 0), BuildingBlock: OJICUG_clean_linker_0, # of connection points: 2
#     Edge 59, Type (0, 0), BuildingBlock: OJICUG_clean_linker_0, # of connection points: 2
#     Edge 60, Type (0, 0), BuildingBlock: OJICUG_clean_linker_0, # of connection points: 2
#     Edge 61, Type (0, 0), BuildingBlock: OJICUG_clean_linker_0, # of connection points: 2
#     Edge 62, Type (0, 0), BuildingBlock: OJICUG_clean_linker_0, # of connection points: 2
#     Edge 63, Type (0, 0), BuildingBlock: OJICUG_clean_linker_0, # of connection points: 2
#     Edge 64, Type (0, 0), BuildingBlock: OJICUG_clean_linker_0, # of connection points: 2
#     Edge 65, Type (0, 0), BuildingBlock: OJICUG_clean_linker_0, # of connection points: 2
#     Edge 66, Type (0, 0), BuildingBlock: OJICUG_clean_linker_0, # of connection points: 2
#     Edge 67, Type (0, 0), BuildingBlock: OJICUG_clean_linker_0, # of connection points: 2
#     Edge 68, Type (0, 0), BuildingBlock: OJICUG_clean_linker_0, # of connection points: 2
#     Edge 69, Type (0, 0), BuildingBlock: OJICUG_clean_linker_0, # of connection points: 2
#     Edge 70, Type (0, 0), BuildingBlock: OJICUG_clean_linker_0, # of connection points: 2
#     Edge 71, Type (0, 0), BuildingBlock: OJICUG_clean_linker_0, # of connection points: 2
# Relax obj value: 0.180
# Max RMSD: 0.201
# Mean RMSD: 0.201
data_MOF--net-sme--node1-OJICUG_clean_sbu_0--edge1-OJICUG_clean_linker_0
_symmetry_space_group_name_H-M    P1
_symmetry_Int_Tables_number       1
_symmetry_cell_setting            triclinic
loop_
_symmetry_equiv_pos_as_xyz
'x, y, z'
_cell_length_a     35.198276
_cell_length_b     35.21397
_cell_length_c     29.950312
_cell_angle_alpha  89.967604
_cell_angle_beta   89.991669
_cell_angle_gamma 120.03302
loop_
_atom_site_label
_atom_site_type_symbol
_atom_site_fract_x
_atom_site_fract_y
_atom_site_fract_z
_atom_type_partial_charge
Sc0 Sc 0.03218 0.31129 0.76663 0.0
Sc1 Sc 0.03402 0.2247 0.71067 0.0
Sc2 Sc 0.03691 0.22838 0.82756 0.0
O3 O 0.03411 0.25476 0.7683 0.0
C4 C 0.11103 0.32941 0.82975 0.0
C5 C 0.08578 0.32265 0.67592 0.0
C6 C 0.10003 0.20858 0.76698 0.0
C7 C 0.95799 0.24876 0.70041 0.0
C8 C 0.98268 0.27339 0.85979 0.0
C9 C 0.97092 0.14393 0.77452 0.0
O10 O 0.0917 0.34268 0.80347 0.0
O11 O 0.07734 0.28325 0.67399 0.0
O12 O 0.08068 0.20765 0.80299 0.0
O13 O 0.9731 0.27971 0.72892 0.0
O14 O -0.00525 0.24521 0.8641 0.0
O15 O -0.01018 0.16137 0.73789 0.0
O16 O -0.00657 0.29875 0.82633 0.0
O17 O 0.9775 0.22798 0.68894 0.0
O18 O 0.98102 0.16484 0.81145 0.0
O19 O 0.07088 0.33633 0.70665 0.0
O20 O 0.09419 0.28996 0.84375 0.0
O21 O 0.09005 0.2185 0.72958 0.0
Sc22 Sc 0.86393 0.87417 0.71051 0.0
Sc23 Sc 0.86012 0.8732 0.8274 0.0
Sc24 Sc 0.77719 0.78562 0.76645 0.0
O25 O 0.83378 0.8441 0.76814 0.0
C26 C 0.76598 0.82795 0.67576 0.0
C27 C 0.87997 0.95618 0.76692 0.0
C28 C 0.75908 0.84631 0.82959 0.0
C29 C 0.94465 0.89179 0.77435 0.0
C30 C 0.83985 0.77407 0.70027 0.0
C31 C 0.81502 0.77392 0.85959 0.0
O32 O 0.80541 0.85896 0.67385 0.0
O33 O 0.88085 0.93771 0.80291 0.0
O34 O 0.74578 0.81376 0.80323 0.0
O35 O 0.92726 0.89329 0.73772 0.0
O36 O 0.80886 0.75817 0.72879 0.0
O37 O 0.84329 0.81416 0.86385 0.0
O38 O 0.86063 0.81438 0.68876 0.0
O39 O 0.92368 0.88093 0.81127 0.0
O40 O 0.7896 0.75936 0.8262 0.0
O41 O 0.87015 0.93637 0.72949 0.0
O42 O 0.75226 0.7993 0.70645 0.0
O43 O 0.79851 0.86879 0.84367 0.0
Sc44 Sc 0.30312 0.05655 0.76649 0.0
Sc45 Sc 0.21458 0.0546 0.71052 0.0
Sc46 Sc 0.21542 0.05175 0.8274 0.0
O47 O 0.24461 0.05456 0.76816 0.0
C48 C 0.24239 0.97773 0.82972 0.0
C49 C 0.26087 0.00294 0.67585 0.0
C50 C 0.13248 0.98853 0.76692 0.0
C51 C 0.3147 0.13071 0.70022 0.0
C52 C 0.31473 0.10607 0.85956 0.0
C53 C 0.1968 0.11759 0.7743 0.0
O54 O 0.27501 -0.00294 0.8034 0.0
O55 O 0.22989 0.01137 0.67388 0.0
O56 O 0.1509 0.00791 0.8029 0.0
O57 O 0.33059 0.11561 0.7287 0.0
O58 O 0.27446 0.09398 0.86385 0.0
O59 O 0.19533 0.0987 0.73769 0.0
O60 O 0.32935 0.0953 0.82614 0.0
O61 O 0.27438 0.11117 0.68876 0.0
O62 O 0.2077 0.10754 0.81122 0.0
O63 O 0.28947 0.01785 0.70658 0.0
O64 O 0.2198 -0.00543 0.84371 0.0
O65 O 0.15237 -0.00149 0.7295 0.0
Sc66 Sc 0.0429 0.79124 0.23538 0.0
Sc67 Sc 0.04106 0.87783 0.29133 0.0
Sc68 Sc 0.03816 0.87415 0.17444 0.0
O69 O 0.04096 0.84777 0.2337 0.0
C70 C 0.0924 0.82913 0.14222 0.0
C71 C 0.11709 0.85377 0.30159 0.0
C72 C 0.10416 0.9586 0.22747 0.0
C73 C -0.0107 0.77988 0.32608 0.0
C74 C 0.96405 0.77312 0.17225 0.0
C75 C 0.97505 0.89395 0.23502 0.0
O76 O 0.08165 0.80378 0.17568 0.0
O77 O 0.09758 0.87455 0.31306 0.0
O78 O 0.09406 0.93769 0.19055 0.0
O79 O 0.0042 0.7662 0.29535 0.0
O80 O 0.98089 0.81256 0.15825 0.0
O81 O -0.01498 0.88403 0.27242 0.0
O82 O 0.98338 0.75984 0.19854 0.0
O83 O -0.00226 0.81929 0.32801 0.0
O84 O -0.00561 0.89487 0.199 0.0
O85 O 0.10198 0.82282 0.27308 0.0
O86 O 0.08033 0.85731 0.1379 0.0
O87 O 0.08525 0.94116 0.2641 0.0
Sc88 Sc 0.21113 0.22836 0.29148 0.0
Sc89 Sc 0.21495 0.22933 0.17459 0.0
Sc90 Sc 0.29787 0.31691 0.23554 0.0
O91 O 0.24129 0.25843 0.23385 0.0
C92 C 0.23521 0.32846 0.30172 0.0
C93 C 0.13042 0.21073 0.22764 0.0
C94 C 0.26005 0.32861 0.14241 0.0
C95 C 0.19509 0.14634 0.23507 0.0
C96 C 0.30908 0.27458 0.32624 0.0
C97 C 0.31599 0.25622 0.17241 0.0
O98 O 0.21443 0.28815 0.31323 0.0
O99 O 0.15139 0.2216 0.19072 0.0
O100 O 0.28547 0.34317 0.1758 0.0
O101 O 0.20492 0.16615 0.2725 0.0
O102 O 0.3228 0.30323 0.29554 0.0
O103 O 0.27657 0.23374 0.15832 0.0
O104 O 0.26966 0.24356 0.32815 0.0
O105 O 0.19422 0.16482 0.19908 0.0
O106 O 0.32929 0.28878 0.19876 0.0
O107 O 0.14781 0.20923 0.26427 0.0
O108 O 0.26621 0.34436 0.27321 0.0
O109 O 0.23178 0.28837 0.13814 0.0
Sc110 Sc 0.86049 0.04792 0.29146 0.0
Sc111 Sc 0.85965 0.05077 0.17458 0.0
Sc112 Sc 0.77194 0.04596 0.23549 0.0
O113 O 0.83046 0.04795 0.23382 0.0
C114 C 0.76037 0.97181 0.30176 0.0
C115 C 0.87827 0.98493 0.22768 0.0
C116 C 0.76034 -0.00355 0.14242 0.0
C117 C 0.94259 0.11399 0.23506 0.0
C118 C 0.8142 0.09958 0.32612 0.0
C119 C 0.83268 0.12478 0.17226 0.0
O120 O 0.80069 -0.00865 0.31322 0.0
O121 O 0.86737 -0.00503 0.19076 0.0
O122 O 0.74572 0.00721 0.17583 0.0
O123 O 0.9227 0.104 0.27247 0.0
O124 O 0.7856 0.08466 0.2954 0.0
O125 O 0.85527 0.10795 0.15827 0.0
O126 O 0.84518 0.09114 0.32809 0.0
O127 O 0.92417 0.0946 0.19908 0.0
O128 O 0.80005 0.10545 0.19857 0.0
O129 O 0.87974 0.00382 0.26429 0.0
O130 O 0.74448 0.9869 0.27328 0.0
O131 O 0.80061 0.00854 0.13812 0.0
Sc132 Sc 0.69886 0.64463 0.09992 0.0
Sc133 Sc 0.70069 0.55803 0.04397 0.0
Sc134 Sc 0.70359 0.56172 0.16086 0.0
O135 O 0.70079 0.5881 0.1016 0.0
C136 C 0.77771 0.66276 0.16305 0.0
C137 C 0.75245 0.65598 0.00921 0.0
C138 C 0.76671 0.54193 0.10028 0.0
C139 C 0.62466 0.5821 0.03371 0.0
C140 C 0.64935 0.60674 0.19308 0.0
C141 C 0.63759 0.47727 0.10783 0.0
O142 O 0.75837 0.67603 0.13675 0.0
O143 O 0.74401 0.61658 0.00729 0.0
O144 O 0.74736 0.54101 0.1363 0.0
O145 O 0.63977 0.61305 0.06221 0.0
O146 O 0.66142 0.57856 0.19739 0.0
O147 O 0.6565 0.49471 0.0712 0.0
O148 O 0.66011 0.6321 0.15962 0.0
O149 O 0.64417 0.56132 0.02224 0.0
O150 O 0.6477 0.49818 0.14476 0.0
O151 O 0.73755 0.66966 0.03994 0.0
O152 O 0.76086 0.62332 0.17705 0.0
O153 O 0.75673 0.55184 0.06288 0.0
Sc154 Sc 0.44386 0.11895 0.09979 0.0
Sc155 Sc 0.53061 0.2075 0.04385 0.0
Sc156 Sc 0.52679 0.20653 0.16074 0.0
O157 O 0.50045 0.17744 0.10148 0.0
C158 C 0.42575 0.17965 0.16292 0.0
C159 C 0.43266 0.16128 0.00909 0.0
C160 C 0.54665 0.28952 0.10025 0.0
C161 C 0.50652 0.1074 0.03361 0.0
C162 C 0.48169 0.10726 0.19293 0.0
C163 C 0.61132 0.22513 0.10769 0.0
O164 O 0.41245 0.14709 0.13657 0.0
O165 O 0.47208 0.1923 0.00718 0.0
O166 O 0.54752 0.27104 0.13624 0.0
O167 O 0.47552 0.0915 0.06212 0.0
O168 O 0.50995 0.1475 0.19719 0.0
O169 O 0.59393 0.22663 0.07106 0.0
O170 O 0.45626 0.0927 0.15953 0.0
O171 O 0.5273 0.14771 0.02211 0.0
O172 O 0.59035 0.21427 0.14461 0.0
O173 O 0.41893 0.13264 0.03979 0.0
O174 O 0.46517 0.20213 0.17701 0.0
O175 O 0.53682 0.26971 0.06282 0.0
Sc176 Sc 0.96979 0.3899 0.09986 0.0
Sc177 Sc 0.88125 0.38794 0.04388 0.0
Sc178 Sc 0.88209 0.3851 0.16077 0.0
O179 O 0.91127 0.3879 0.10152 0.0
C180 C 0.90905 0.31108 0.1631 0.0
C181 C 0.92754 0.33627 0.00923 0.0
C182 C 0.79915 0.32187 0.10028 0.0
C183 C 0.98137 0.46404 0.03358 0.0
C184 C 0.98139 0.43942 0.19293 0.0
C185 C 0.86347 0.45093 0.10764 0.0
O186 O 0.94168 0.33041 0.13678 0.0
O187 O 0.89656 0.3447 0.00726 0.0
O188 O 0.81757 0.34126 0.13626 0.0
O189 O -0.00274 0.44895 0.06207 0.0
O190 O 0.94112 0.42733 0.19722 0.0
O191 O 0.862 0.43204 0.07104 0.0
O192 O -0.00399 0.42865 0.15952 0.0
O193 O 0.94105 0.4445 0.02212 0.0
O194 O 0.87437 0.44089 0.14457 0.0
O195 O 0.95614 0.35119 0.03996 0.0
O196 O 0.88646 0.32792 0.17708 0.0
O197 O 0.81904 0.33185 0.06287 0.0
Sc198 Sc 0.70773 0.21117 0.62468 0.0
Sc199 Sc 0.70483 0.20748 0.50779 0.0
Sc200 Sc 0.70957 0.12457 0.56874 0.0
O201 O 0.70764 0.18111 0.56705 0.0
C202 C 0.78376 0.18711 0.63494 0.0
C203 C 0.77083 0.29194 0.56082 0.0
C204 C 0.75907 0.16246 0.47557 0.0
C205 C 0.64172 0.22728 0.56837 0.0
C206 C 0.65597 0.11322 0.65944 0.0
C207 C 0.63072 0.10645 0.50561 0.0
O208 O 0.76425 0.20789 0.64641 0.0
O209 O 0.76073 0.27102 0.52389 0.0
O210 O 0.74831 0.13711 0.50903 0.0
O211 O 0.6517 0.21737 0.60577 0.0
O212 O 0.67087 0.09954 0.62871 0.0
O213 O 0.64756 0.14589 0.49161 0.0
O214 O 0.66441 0.15263 0.66137 0.0
O215 O 0.66106 0.2282 0.53235 0.0
O216 O 0.65005 0.09317 0.5319 0.0
O217 O 0.75193 0.2745 0.59745 0.0
O218 O 0.76866 0.15616 0.60644 0.0
O219 O 0.747 0.19064 0.47126 0.0
Sc220 Sc 0.87781 0.5617 0.62478 0.0
Sc221 Sc 0.88162 0.56266 0.50789 0.0
Sc222 Sc 0.96455 0.65025 0.56884 0.0
O223 O 0.90796 0.59177 0.56715 0.0
C224 C 0.90189 0.6618 0.63501 0.0
C225 C 0.79709 0.54407 0.56095 0.0
C226 C 0.92672 0.66193 0.4757 0.0
C227 C 0.86176 0.47968 0.56838 0.0
C228 C 0.97576 0.60792 0.65954 0.0
C229 C 0.98266 0.58955 0.50571 0.0
O230 O 0.88111 0.62149 0.64653 0.0
O231 O 0.81806 0.55493 0.52402 0.0
O232 O 0.95214 0.6765 0.50909 0.0
O233 O 0.87159 0.4995 0.60581 0.0
O234 O -0.01052 0.63657 0.62884 0.0
O235 O 0.94323 0.56707 0.49163 0.0
O236 O 0.93633 0.57691 0.66145 0.0
O237 O 0.86089 0.49816 0.53239 0.0
O238 O -0.00404 0.62211 0.53206 0.0
O239 O 0.81448 0.54257 0.59758 0.0
O240 O 0.93288 0.6777 0.6065 0.0
O241 O 0.89845 0.62169 0.47144 0.0
Sc242 Sc 0.52717 0.38126 0.6248 0.0
Sc243 Sc 0.52632 0.3841 0.50792 0.0
Sc244 Sc 0.43862 0.3793 0.56884 0.0
O245 O 0.49714 0.38129 0.56717 0.0
C246 C 0.42705 0.30515 0.63511 0.0
C247 C 0.54495 0.31827 0.56103 0.0
C248 C 0.427 0.32977 0.47577 0.0
C249 C 0.60926 0.44732 0.56839 0.0
C250 C 0.48088 0.43292 0.65947 0.0
C251 C 0.49935 0.45811 0.5056 0.0
O252 O 0.46737 0.32469 0.64657 0.0
O253 O 0.53404 0.3283 0.52411 0.0
O254 O 0.41239 0.34055 0.50919 0.0
O255 O 0.58938 0.43735 0.60581 0.0
O256 O 0.45228 0.41801 0.62874 0.0
O257 O 0.52193 0.44128 0.49161 0.0
O258 O 0.51186 0.42449 0.66144 0.0
O259 O 0.59084 0.42793 0.53242 0.0
O260 O 0.46673 0.43879 0.53192 0.0
O261 O 0.54642 0.33716 0.59764 0.0
O262 O 0.41116 0.32025 0.60663 0.0
O263 O 0.46728 0.34186 0.47147 0.0
Sc264 Sc 0.36552 0.97796 0.43324 0.0
Sc265 Sc 0.36735 0.89136 0.3773 0.0
Sc266 Sc 0.37025 0.89506 0.49419 0.0
O267 O 0.36745 0.92143 0.43493 0.0
C268 C 0.44437 -0.00391 0.49637 0.0
C269 C 0.41911 -0.01069 0.34254 0.0
C270 C 0.43337 0.87525 0.43361 0.0
C271 C 0.29132 0.91542 0.36704 0.0
C272 C 0.31602 0.94007 0.52641 0.0
C273 C 0.30426 0.8106 0.44117 0.0
O274 O 0.42504 0.00936 0.47008 0.0
O275 O 0.41067 0.9499 0.34061 0.0
O276 O 0.41403 0.87434 0.46962 0.0
O277 O 0.30643 0.94638 0.39554 0.0
O278 O 0.32809 0.91189 0.53072 0.0
O279 O 0.32316 0.82804 0.40453 0.0
O280 O 0.32677 0.96543 0.49295 0.0
O281 O 0.31083 0.89464 0.35557 0.0
O282 O 0.31436 0.83151 0.47809 0.0
O283 O 0.40421 0.00299 0.37327 0.0
O284 O 0.42753 0.95665 0.51037 0.0
O285 O 0.42338 0.88516 0.39621 0.0
Sc286 Sc 0.19726 0.54082 0.37722 0.0
Sc287 Sc 0.19346 0.53987 0.49411 0.0
Sc288 Sc 0.11053 0.45228 0.43317 0.0
O289 O 0.16711 0.51076 0.43485 0.0
C290 C 0.09931 0.4946 0.34247 0.0
C291 C 0.21331 0.62285 0.43361 0.0
C292 C 0.09242 0.51298 0.49629 0.0
C293 C 0.27798 0.55845 0.44105 0.0
C294 C 0.17318 0.44072 0.36699 0.0
C295 C 0.14836 0.4406 0.52631 0.0
O296 O 0.13873 0.52562 0.34056 0.0
O297 O 0.21419 0.60438 0.46961 0.0
O298 O 0.07912 0.48042 0.46995 0.0
O299 O 0.26059 0.55995 0.40442 0.0
O300 O 0.14218 0.42483 0.3955 0.0
O301 O 0.17663 0.48084 0.53057 0.0
O302 O 0.19395 0.48103 0.35547 0.0
O303 O 0.25701 0.5476 0.47797 0.0
O304 O 0.12294 0.42603 0.49291 0.0
O305 O 0.20348 0.60303 0.39619 0.0
O306 O 0.08559 0.46595 0.37317 0.0
O307 O 0.13184 0.53547 0.51037 0.0
Sc308 Sc 0.5479 0.72126 0.37718 0.0
Sc309 Sc 0.54876 0.71843 0.49407 0.0
Sc310 Sc 0.63645 0.72322 0.43315 0.0
O311 O 0.57793 0.72123 0.43482 0.0
C312 C 0.59419 0.6696 0.34252 0.0
C313 C 0.46581 0.6552 0.4336 0.0
C314 C 0.57572 0.64441 0.4964 0.0
C315 C 0.53013 0.78426 0.44095 0.0
C316 C 0.64802 0.79736 0.36687 0.0
C317 C 0.64807 0.77275 0.52622 0.0
O318 O 0.56321 0.67803 0.34055 0.0
O319 O 0.48423 0.67459 0.46957 0.0
O320 O 0.60834 0.66373 0.47008 0.0
O321 O 0.52865 0.76536 0.40435 0.0
O322 O 0.66391 0.78227 0.39536 0.0
O323 O 0.60779 0.76066 0.53052 0.0
O324 O 0.6077 0.77782 0.35542 0.0
O325 O 0.54104 0.77422 0.47787 0.0
O326 O 0.66268 0.76197 0.49281 0.0
O327 O 0.48569 0.66517 0.39618 0.0
O328 O 0.62279 0.68451 0.37325 0.0
O329 O 0.55314 0.66125 0.51039 0.0
Sc330 Sc 0.37622 0.45789 0.90208 0.0
Sc331 Sc 0.37439 0.5445 0.95803 0.0
Sc332 Sc 0.37149 0.5408 0.84114 0.0
O333 O 0.37429 0.51443 0.90039 0.0
C334 C 0.42573 0.49578 0.80891 0.0
C335 C 0.45042 0.52044 0.96828 0.0
C336 C 0.43748 0.62526 0.89416 0.0
C337 C 0.32263 0.44655 0.99279 0.0
C338 C 0.29737 0.43977 0.83896 0.0
C339 C 0.30838 0.5606 0.90171 0.0
O340 O 0.41497 0.47043 0.84237 0.0
O341 O 0.43092 0.54122 0.97975 0.0
O342 O 0.42738 0.60434 0.85723 0.0
O343 O 0.33753 0.43287 0.96206 0.0
O344 O 0.31422 0.4792 0.82495 0.0
O345 O 0.31836 0.55069 0.93911 0.0
O346 O 0.31671 0.42649 0.86524 0.0
O347 O 0.33108 0.48596 0.99471 0.0
O348 O 0.32771 0.56152 0.8657 0.0
O349 O 0.43531 0.48949 0.93978 0.0
O350 O 0.41366 0.52396 0.8046 0.0
O351 O 0.41859 0.60782 0.93079 0.0
Sc352 Sc 0.54447 0.89503 0.95812 0.0
Sc353 Sc 0.54828 0.89599 0.84123 0.0
Sc354 Sc 0.63121 0.98358 0.90219 0.0
O355 O 0.57462 0.92509 0.9005 0.0
C356 C 0.56855 -0.00487 0.96836 0.0
C357 C 0.46375 0.8774 0.89428 0.0
C358 C 0.59338 -0.00473 0.80905 0.0
C359 C 0.52842 0.81301 0.90172 0.0
C360 C 0.64242 0.94125 0.99288 0.0
C361 C 0.64932 0.92288 0.83906 0.0
O362 O 0.54777 0.95482 0.97987 0.0
O363 O 0.48473 0.88826 0.85736 0.0
O364 O 0.61881 0.00983 0.84244 0.0
O365 O 0.53825 0.83282 0.93915 0.0
O366 O 0.65614 0.96989 0.96218 0.0
O367 O 0.6099 0.9004 0.82497 0.0
O368 O 0.60299 0.91023 0.99479 0.0
O369 O 0.52755 0.83148 0.86573 0.0
O370 O 0.66262 0.95544 0.86541 0.0
O371 O 0.48114 0.8759 0.93091 0.0
O372 O 0.59955 0.01103 0.93985 0.0
O373 O 0.56512 0.95503 0.80478 0.0
Sc374 Sc 0.19383 0.71459 0.95812 0.0
Sc375 Sc 0.19298 0.71742 0.84124 0.0
Sc376 Sc 0.10528 0.71262 0.90215 0.0
O377 O 0.1638 0.71461 0.90048 0.0
C378 C 0.09371 0.63848 0.96843 0.0
C379 C 0.21161 0.65159 0.89436 0.0
C380 C 0.09367 0.6631 0.80908 0.0
C381 C 0.27593 0.78065 0.90171 0.0
C382 C 0.14754 0.76625 0.99277 0.0
C383 C 0.16602 0.79143 0.83891 0.0
O384 O 0.13403 0.65802 0.97989 0.0
O385 O 0.2007 0.66162 0.85743 0.0
O386 O 0.07905 0.67386 0.84249 0.0
O387 O 0.25604 0.77067 0.93913 0.0
O388 O 0.11894 0.75133 0.96205 0.0
O389 O 0.1886 0.7746 0.82492 0.0
O390 O 0.17852 0.75782 0.99474 0.0
O391 O 0.2575 0.76125 0.86574 0.0
O392 O 0.13339 0.7721 0.86522 0.0
O393 O 0.21308 0.67049 0.93096 0.0
O394 O 0.07782 0.65356 0.93994 0.0
O395 O 0.13395 0.67519 0.80478 0.0
C396 C 0.17258 0.16308 0.73207 0.0
C397 C 0.18051 0.14906 0.77338 0.0
H398 H 0.14117 0.19307 0.69748 0.0
C399 C 0.16753 0.16093 0.81274 0.0
H400 H 0.18285 0.15519 0.70102 0.0
C401 C 0.14374 0.1829 0.8106 0.0
C402 C 0.13239 0.1934 0.76906 0.0
H403 H 0.17339 0.15101 0.84506 0.0
H404 H 0.13235 0.18963 0.84159 0.0
C405 C 0.14874 0.18496 0.72993 0.0
C406 C 0.9253 0.0743 0.73225 0.0
C407 C 0.93937 0.09616 0.77358 0.0
H408 H 0.89532 0.01296 0.69756 0.0
C409 C 0.92755 0.07121 0.8129 0.0
H410 H 0.93315 0.09254 0.70123 0.0
C411 C 0.9056 0.02545 0.81069 0.0
C412 C 0.89509 0.0037 0.76911 0.0
H413 H 0.93751 0.08693 0.84523 0.0
H414 H 0.89891 0.00726 0.84164 0.0
C415 C 0.90346 0.02858 0.73003 0.0
C416 C 0.01729 0.92103 0.81279 0.0
C417 C -0.00758 0.908 0.77344 0.0
H418 H 0.08122 0.95625 0.84159 0.0
C419 C 0.01437 0.91585 0.73213 0.0
H420 H 0.00151 0.91522 0.8451 0.0
C421 C 0.06012 0.93969 0.72996 0.0
C422 C 0.08493 0.95612 0.76907 0.0
H423 H -0.00382 0.90553 0.70109 0.0
H424 H 0.07581 0.94722 0.6975 0.0
C425 C 0.06308 0.94482 0.81062 0.0
C426 C 0.93134 0.91962 0.19139 0.0
C427 C 0.94269 0.90913 0.23292 0.0
H428 H 0.90169 0.95151 0.15693 0.0
C429 C 0.92633 0.91756 0.27206 0.0
H430 H 0.94273 0.91289 0.16039 0.0
C431 C 0.90248 0.93943 0.26991 0.0
C432 C 0.89456 0.95345 0.2286 0.0
H433 H 0.93389 0.90944 0.3045 0.0
H434 H 0.89221 0.94733 0.30097 0.0
C435 C 0.90755 0.94159 0.18924 0.0
C436 C 0.14752 0.03131 0.18909 0.0
C437 C 0.1357 0.00637 0.22841 0.0
H438 H 0.17614 0.09526 0.16035 0.0
C439 C 0.14978 0.02823 0.26974 0.0
H440 H 0.13755 0.0156 0.15676 0.0
C441 C 0.17162 0.07395 0.27196 0.0
C442 C 0.17997 0.09883 0.23288 0.0
H443 H 0.14193 0.00999 0.30076 0.0
H444 H 0.17976 0.08956 0.30443 0.0
C445 C 0.16946 0.07708 0.1913 0.0
C446 C 0.05777 0.18149 0.1892 0.0
C447 C 0.08265 0.19452 0.22855 0.0
H448 H -0.00615 0.14626 0.16039 0.0
C449 C 0.0607 0.18668 0.26985 0.0
H450 H 0.07356 0.1873 0.15688 0.0
C451 C 0.01495 0.16283 0.27202 0.0
C452 C -0.00986 0.1464 0.23291 0.0
H453 H 0.07888 0.197 0.30089 0.0
H454 H -0.00074 0.1553 0.30448 0.0
C455 C 0.01199 0.1577 0.19136 0.0
C456 C 0.83421 0.49429 0.14607 0.0
C457 C 0.84719 0.48241 0.10671 0.0
H458 H 0.79904 0.523 0.17491 0.0
C459 C 0.83926 0.49642 0.0654 0.0
H460 H 0.84007 0.48438 0.17839 0.0
C461 C 0.81542 0.5183 0.06325 0.0
C462 C 0.79907 0.52675 0.10238 0.0
H463 H 0.84952 0.48852 0.03435 0.0
H464 H 0.80785 0.52641 0.0308 0.0
C465 C 0.81042 0.51626 0.14392 0.0
C466 C 0.57229 0.35879 0.14401 0.0
C467 C 0.56177 0.33704 0.10244 0.0
H468 H 0.6042 0.42027 0.17855 0.0
C469 C 0.57013 0.36191 0.06335 0.0
H470 H 0.5656 0.34061 0.17497 0.0
C471 C 0.59197 0.40763 0.06557 0.0
C472 C 0.60605 0.4295 0.1069 0.0
H473 H 0.56199 0.34629 0.03089 0.0
H474 H 0.59982 0.42587 0.03455 0.0
C475 C 0.59423 0.40456 0.14622 0.0
C476 C 0.68104 0.24918 0.06549 0.0
C477 C 0.65909 0.24134 0.10679 0.0
H478 H 0.74248 0.28055 0.03086 0.0
C479 C 0.68396 0.25437 0.14614 0.0
H480 H 0.66286 0.23886 0.03444 0.0
C481 C 0.72975 0.27816 0.14398 0.0
C482 C 0.7516 0.28946 0.10243 0.0
H483 H 0.66817 0.24857 0.17845 0.0
H484 H 0.74788 0.2896 0.17495 0.0
C485 C 0.72679 0.27303 0.06332 0.0
C486 C 0.59301 0.2509 0.60541 0.0
C487 C 0.60936 0.24246 0.56628 0.0
H488 H 0.55889 0.28067 0.63432 0.0
C489 C 0.59801 0.25295 0.52474 0.0
H490 H 0.60058 0.24279 0.63786 0.0
C491 C 0.57421 0.27492 0.5226 0.0
C492 C 0.56123 0.28679 0.56195 0.0
H493 H 0.60939 0.24621 0.49375 0.0
H494 H 0.56835 0.28484 0.49028 0.0
C495 C 0.56916 0.27277 0.60326 0.0
C496 C 0.81645 0.36157 0.60307 0.0
C497 C 0.80237 0.3397 0.56174 0.0
H498 H 0.84643 0.42291 0.63776 0.0
C499 C 0.81419 0.36464 0.52242 0.0
H500 H 0.8086 0.34334 0.6341 0.0
C501 C 0.83613 0.41041 0.52463 0.0
C502 C 0.84664 0.43216 0.5662 0.0
H503 H 0.80422 0.34892 0.4901 0.0
H504 H 0.84282 0.42859 0.49367 0.0
C505 C 0.83829 0.40729 0.60529 0.0
C506 C 0.68163 0.49618 0.60534 0.0
C507 C 0.65681 0.47974 0.56624 0.0
H508 H 0.74556 0.53035 0.6342 0.0
C509 C 0.67865 0.49103 0.52468 0.0
H510 H 0.66594 0.48866 0.6378 0.0
C511 C 0.72444 0.51482 0.52251 0.0
C512 C 0.74932 0.52786 0.56185 0.0
H513 H 0.66051 0.47959 0.49371 0.0
H514 H 0.74023 0.52062 0.49019 0.0
C515 C 0.72738 0.52003 0.60316 0.0
C516 C 0.50591 0.82975 0.39871 0.0
C517 C 0.51385 0.81573 0.44003 0.0
H518 H 0.4745 0.85973 0.36411 0.0
C519 C 0.50087 0.82762 0.47938 0.0
H520 H 0.51617 0.82184 0.36766 0.0
C521 C 0.47708 0.84959 0.47724 0.0
C522 C 0.46573 0.86007 0.4357 0.0
H523 H 0.50674 0.8177 0.5117 0.0
H524 H 0.4657 0.85633 0.50823 0.0
C525 C 0.48207 0.85162 0.39657 0.0
C526 C 0.25864 0.74096 0.39891 0.0
C527 C 0.27272 0.76283 0.44024 0.0
H528 H 0.22865 0.67962 0.36424 0.0
C529 C 0.2609 0.73789 0.47956 0.0
H530 H 0.26649 0.75919 0.36789 0.0
C531 C 0.23895 0.69213 0.47736 0.0
C532 C 0.22844 0.67037 0.43579 0.0
H533 H 0.27087 0.75361 0.51189 0.0
H534 H 0.23227 0.67395 0.50832 0.0
C535 C 0.23679 0.69523 0.3967 0.0
C536 C 0.34769 0.5825 0.39883 0.0
C537 C 0.32575 0.57466 0.44014 0.0
H538 H 0.40912 0.61386 0.36419 0.0
C539 C 0.35063 0.5877 0.47948 0.0
H540 H 0.3295 0.57217 0.36779 0.0
C541 C 0.39642 0.61149 0.47731 0.0
C542 C 0.41826 0.62279 0.43575 0.0
H543 H 0.33485 0.5819 0.5118 0.0
H544 H 0.41456 0.62293 0.50828 0.0
C545 C 0.39344 0.60635 0.39665 0.0
C546 C 0.23582 0.6061 0.9366 0.0
C547 C 0.22789 0.62011 0.89528 0.0
H548 H 0.26724 0.57612 0.9712 0.0
C549 C 0.24086 0.60823 0.85593 0.0
H550 H 0.22556 0.61401 0.96765 0.0
C551 C 0.26465 0.58626 0.85807 0.0
C552 C 0.27601 0.57577 0.89962 0.0
H553 H 0.235 0.61814 0.82361 0.0
H554 H 0.27603 0.57951 0.82709 0.0
C555 C 0.25966 0.58422 0.93875 0.0
C556 C 0.50495 0.74062 0.93862 0.0
C557 C 0.5133 0.76549 0.89954 0.0
H558 H 0.47527 0.67667 0.96743 0.0
C559 C 0.50278 0.74373 0.85797 0.0
H560 H 0.5131 0.75624 0.97109 0.0
C561 C 0.48084 0.69797 0.85576 0.0
C562 C 0.46902 0.67303 0.89508 0.0
H563 H 0.50946 0.76191 0.82701 0.0
H564 H 0.47086 0.68225 0.82343 0.0
C565 C 0.48311 0.6949 0.93641 0.0
C566 C 0.34532 0.82435 0.85801 0.0
C567 C 0.32348 0.81306 0.89956 0.0
H568 H 0.40689 0.85394 0.82352 0.0
C569 C 0.34829 0.8295 0.93867 0.0
H570 H 0.32718 0.81291 0.82704 0.0
C571 C 0.39404 0.85336 0.93649 0.0
C572 C 0.41598 0.86119 0.89518 0.0
H573 H 0.3326 0.82198 0.97113 0.0
H574 H 0.41222 0.86368 0.96753 0.0
C575 C 0.39111 0.84815 0.85584 0.0
C576 C 0.13271 0.3983 0.64487 0.0
C577 C 0.10942 0.35268 0.6383 0.0
H578 H 0.16453 0.46191 0.61455 0.0
C579 C 0.1043 0.33628 0.59456 0.0
H580 H 0.13729 0.41188 0.67819 0.0
C581 C 0.11911 0.36492 0.55798 0.0
C582 C 0.14032 0.41056 0.56445 0.0
H583 H 0.08632 0.30127 0.5884 0.0
H584 H 0.11243 0.35131 0.52458 0.0
C585 C 0.14849 0.42694 0.60836 0.0
C586 C 0.66169 0.78642 0.60827 0.0
C587 C 0.6781 0.79474 0.56435 0.0
H588 H 0.67671 0.79015 0.67808 0.0
C589 C 0.72376 0.81922 0.55786 0.0
H590 H 0.6267 0.76745 0.61448 0.0
C591 C 0.7524 0.833 0.59442 0.0
C592 C 0.73597 0.82161 0.63816 0.0
H593 H 0.7374 0.82622 0.52445 0.0
H594 H 0.78743 0.85006 0.58824 0.0
C595 C 0.69032 0.79923 0.64476 0.0
C596 C 0.25578 0.98415 0.59456 0.0
C597 C 0.26722 0.97923 0.63831 0.0
H598 H 0.26248 0.97579 0.52461 0.0
C599 C 0.28964 0.95604 0.64494 0.0
H600 H 0.23868 0.00205 0.58835 0.0
C601 C 0.30243 0.94017 0.60849 0.0
C602 C 0.29405 0.94814 0.56455 0.0
H603 H 0.29876 0.9516 0.67827 0.0
H604 H 0.32143 0.92422 0.61472 0.0
C605 C 0.26953 0.96924 0.55803 0.0
C606 C 0.35699 0.13256 0.97809 0.0
C607 C 0.40264 0.15495 0.9715 0.0
H608 H 0.29338 0.10079 0.94782 0.0
C609 C 0.41907 0.16633 0.92775 0.0
H610 H 0.34339 0.12349 0.01142 0.0
C611 C 0.39043 0.15255 0.89119 0.0
C612 C 0.34477 0.12806 0.89768 0.0
H613 H 0.4541 0.18339 0.92157 0.0
H614 H 0.40407 0.15954 0.85778 0.0
C615 C 0.32836 0.11975 0.94161 0.0
C616 C 0.93618 0.30255 0.89141 0.0
C617 C 0.96072 0.28146 0.89793 0.0
H618 H 0.90533 0.33535 0.92172 0.0
C619 C 0.96912 0.27351 0.94187 0.0
H620 H 0.92912 0.30908 0.85799 0.0
C621 C 0.95633 0.28939 0.97833 0.0
C622 C 0.93389 0.31257 0.97169 0.0
H623 H -0.01188 0.25757 0.9481 0.0
H624 H 0.96546 0.28496 0.01165 0.0
C625 C 0.92243 0.31746 0.92795 0.0
C626 C 0.77096 0.6696 0.92785 0.0
C627 C 0.77609 0.686 0.97159 0.0
H628 H 0.77906 0.68463 0.85786 0.0
C629 C 0.79939 0.73163 0.97815 0.0
H630 H 0.75296 0.6346 0.92169 0.0
C631 C 0.81516 0.76027 0.94164 0.0
C632 C 0.80698 0.74388 0.89773 0.0
H633 H 0.80399 0.74521 0.01147 0.0
H634 H 0.83122 0.79523 0.94782 0.0
C635 C 0.78576 0.69824 0.89126 0.0
C636 C 0.92659 0.67559 0.39365 0.0
C637 C 0.93476 0.69198 0.43756 0.0
H638 H 0.93778 0.69065 0.32382 0.0
C639 C 0.95597 0.73761 0.44403 0.0
H640 H 0.91054 0.64063 0.38747 0.0
C641 C 0.97078 0.76626 0.40744 0.0
C642 C 0.96566 0.74986 0.3637 0.0
H643 H 0.96266 0.75123 0.47743 0.0
H644 H -0.01123 0.80126 0.4136 0.0
C645 C 0.94237 0.70423 0.35714 0.0
C646 C 0.32267 0.26953 0.40757 0.0
C647 C 0.33909 0.28091 0.36383 0.0
H648 H 0.33767 0.2763 0.47755 0.0
C649 C 0.38475 0.3033 0.35724 0.0
H650 H 0.28764 0.25246 0.41376 0.0
C651 C 0.41338 0.3161 0.39372 0.0
C652 C 0.39697 0.30778 0.43765 0.0
H653 H 0.39835 0.31237 0.32391 0.0
H654 H 0.44836 0.33507 0.38751 0.0
C655 C 0.3513 0.2833 0.44414 0.0
C656 C 0.77264 0.16234 0.39349 0.0
C657 C 0.78103 0.15439 0.43743 0.0
H658 H 0.77629 0.1509 0.32371 0.0
C659 C 0.80555 0.13329 0.44395 0.0
H660 H 0.75364 0.1783 0.38726 0.0
C661 C 0.8193 0.11838 0.40741 0.0
C662 C 0.80785 0.12328 0.36366 0.0
H663 H 0.81261 0.12675 0.47737 0.0
H664 H 0.8364 0.10048 0.41363 0.0
C665 C 0.78542 0.14647 0.35703 0.0
C666 C 0.68464 0.94997 0.11078 0.0
C667 C 0.73031 0.97446 0.10429 0.0
H668 H 0.62098 0.91913 0.08041 0.0
C669 C 0.74671 0.98278 0.06036 0.0
H670 H 0.67101 0.94297 0.1442 0.0
C671 C 0.71808 0.96997 0.02388 0.0
C672 C 0.67243 0.94758 0.03048 0.0
H673 H 0.7817 0.00174 0.05416 0.0
H674 H 0.73169 0.97905 0.99055 0.0
C675 C 0.656 0.93619 0.07422 0.0
C676 C 0.15264 0.78505 0.07406 0.0
C677 C 0.14118 0.78995 0.03031 0.0
H678 H 0.14595 0.79343 0.14402 0.0
C679 C 0.11875 0.81314 0.02368 0.0
H680 H 0.16975 0.76716 0.08028 0.0
C681 C 0.10597 0.82901 0.06013 0.0
C682 C 0.11436 0.82106 0.10407 0.0
H683 H 0.10962 0.81756 0.99035 0.0
H684 H 0.08696 0.84496 0.05391 0.0
C685 C 0.13889 0.79997 0.1106 0.0
C686 C 0.2757 0.3709 0.02385 0.0
C687 C 0.299 0.41653 0.03041 0.0
H688 H 0.24386 0.3073 0.05417 0.0
C689 C 0.30413 0.43293 0.07415 0.0
H690 H 0.2711 0.35732 0.99053 0.0
C691 C 0.28932 0.40429 0.11074 0.0
C692 C 0.26809 0.35865 0.10427 0.0
H693 H 0.32213 0.46794 0.08031 0.0
H694 H 0.29602 0.4179 0.14414 0.0
C695 C 0.25992 0.34227 0.06035 0.0
C696 C 0.02364 0.46587 0.31147 0.0
C697 C 0.0693 0.48826 0.30488 0.0
H698 H 0.96003 0.43409 0.28119 0.0
C699 C 0.08572 0.49967 0.26114 0.0
H700 H 0.01004 0.45678 0.3448 0.0
C701 C 0.05708 0.4859 0.22457 0.0
C702 C 0.01142 0.4614 0.23106 0.0
H703 H 0.12075 0.51674 0.25495 0.0
H704 H 0.07072 0.49291 0.19116 0.0
C705 C -0.00499 0.45307 0.27499 0.0
C706 C 0.62297 0.62271 0.31161 0.0
C707 C 0.60055 0.64589 0.30498 0.0
H708 H 0.65476 0.59089 0.28139 0.0
C709 C 0.5891 0.65081 0.26123 0.0
H710 H 0.63209 0.61827 0.34494 0.0
C711 C 0.60286 0.63591 0.2247 0.0
C712 C 0.62738 0.61481 0.23122 0.0
H713 H 0.572 0.66871 0.25501 0.0
H714 H 0.59581 0.64245 0.19127 0.0
C715 C 0.63576 0.60684 0.27516 0.0
C716 C 0.48182 0.0936 0.27498 0.0
C717 C 0.47365 0.07722 0.23106 0.0
H718 H 0.47065 0.07854 0.3448 0.0
C719 C 0.45243 0.03158 0.22459 0.0
H720 H 0.49788 0.12856 0.28116 0.0
C721 C 0.43762 0.00293 0.26118 0.0
C722 C 0.44275 0.01933 0.30492 0.0
H723 H 0.44573 0.01797 0.19119 0.0
H724 H 0.41962 0.96793 0.25502 0.0
C725 C 0.46605 0.06496 0.31148 0.0
C726 C 0.60904 0.03757 0.69049 0.0
C727 C 0.63233 0.0832 0.69706 0.0
H728 H 0.5772 0.97397 0.72081 0.0
C729 C 0.63746 0.09959 0.7408 0.0
H730 H 0.60445 0.024 0.65717 0.0
C731 C 0.62265 0.07095 0.77738 0.0
C732 C 0.60143 0.02531 0.77091 0.0
H733 H 0.65545 0.1346 0.74696 0.0
H734 H 0.62934 0.08456 0.81079 0.0
C735 C 0.59326 0.00893 0.72699 0.0
C736 C 0.08005 0.64945 0.72702 0.0
C737 C 0.06364 0.64112 0.77095 0.0
H738 H 0.06503 0.64574 0.65721 0.0
C739 C 0.01798 0.61663 0.77744 0.0
H740 H 0.11504 0.66842 0.72082 0.0
C741 C -0.01066 0.60286 0.74087 0.0
C742 C 0.00577 0.61426 0.69713 0.0
H743 H 0.00434 0.60961 0.81085 0.0
H744 H 0.95431 0.58579 0.74705 0.0
C745 C 0.05142 0.63665 0.69054 0.0
C746 C 0.48597 0.45171 0.74076 0.0
C747 C 0.47453 0.45662 0.69701 0.0
H748 H 0.47926 0.46007 0.81072 0.0
C749 C 0.4521 0.47981 0.69038 0.0
H750 H 0.50307 0.43381 0.74698 0.0
C751 C 0.43931 0.49568 0.72683 0.0
C752 C 0.4477 0.48772 0.77077 0.0
H753 H 0.44298 0.48425 0.65705 0.0
H754 H 0.42031 0.51164 0.72061 0.0
C755 C 0.47221 0.46661 0.7773 0.0
C756 C 0.18461 0.34163 0.8506 0.0
C757 C 0.15829 0.35879 0.83614 0.0
H758 H 0.24942 0.35305 0.86053 0.0
C759 C 0.17835 0.40207 0.82007 0.0
H760 H 0.17025 0.3081 0.86226 0.0
C761 C 0.22379 0.42754 0.8181 0.0
C762 C 0.25011 0.41038 0.83256 0.0
H763 H 0.15898 0.41612 0.80818 0.0
H764 H 0.23816 0.46107 0.80645 0.0
C765 C 0.23005 0.3671 0.84863 0.0
C766 C 0.74702 0.90762 0.85098 0.0
C767 C 0.72981 0.86429 0.83601 0.0
H768 H 0.73583 0.96105 0.86143 0.0
C769 C 0.68666 0.84142 0.81952 0.0
H770 H 0.78045 0.92653 0.86299 0.0
C771 C 0.66139 0.86157 0.81766 0.0
C772 C 0.6786 0.9049 0.83264 0.0
H773 H 0.67257 0.80814 0.80722 0.0
H774 H 0.62795 0.84266 0.80565 0.0
C775 C 0.72174 0.92777 0.84912 0.0
C776 C 0.16086 0.85879 0.8487 0.0
C777 C 0.18397 0.83869 0.8325 0.0
H778 H 0.16185 0.9186 0.86245 0.0
C779 C 0.22746 0.86496 0.81793 0.0
H780 H 0.12744 0.83946 0.86069 0.0
C781 C 0.24755 0.91038 0.81992 0.0
C782 C 0.22443 0.93048 0.83612 0.0
H783 H 0.24655 0.85056 0.80617 0.0
H784 H 0.28096 0.92971 0.80793 0.0
C785 C 0.18094 0.90421 0.85069 0.0
C786 C 0.35367 0.23779 0.64028 0.0
C787 C 0.39798 0.26115 0.65307 0.0
H788 H 0.2927 0.17794 0.64456 0.0
C789 C 0.41493 0.24092 0.68063 0.0
H790 H 0.33966 0.2524 0.61884 0.0
C791 C 0.38808 0.19807 0.69506 0.0
C792 C 0.34377 0.17471 0.68227 0.0
H793 H 0.44905 0.25792 0.69078 0.0
H794 H 0.40209 0.18346 0.71649 0.0
C795 C 0.32682 0.19494 0.6547 0.0
C796 C 0.85102 0.18096 0.64019 0.0
C797 C 0.82772 0.20196 0.65295 0.0
H798 H 0.91076 0.17969 0.6446 0.0
C799 C 0.84795 0.23905 0.68062 0.0
H800 H 0.83641 0.1524 0.61868 0.0
C801 C 0.89074 0.25492 0.69516 0.0
C802 C 0.91403 0.23392 0.6824 0.0
H803 H 0.83099 0.25619 0.69075 0.0
H804 H 0.90535 0.28347 0.71667 0.0
C805 C 0.8938 0.19683 0.65473 0.0
C806 C 0.8919 0.76196 0.6546 0.0
C807 C 0.85478 0.74502 0.6823 0.0
H808 H 0.93644 0.74914 0.61858 0.0
C809 C 0.83386 0.70073 0.69517 0.0
H810 H 0.90899 0.79606 0.64439 0.0
C811 C 0.84983 0.67391 0.68068 0.0
C812 C 0.88695 0.69085 0.65298 0.0
H813 H 0.80529 0.68673 0.7167 0.0
H814 H 0.83275 0.63981 0.6909 0.0
C815 C 0.90788 0.73514 0.64012 0.0
C816 C 0.89047 0.76089 0.15141 0.0
C817 C 0.91679 0.74373 0.16586 0.0
H818 H 0.82566 0.74948 0.14148 0.0
C819 C 0.89673 0.70045 0.18192 0.0
H820 H 0.90483 0.79443 0.13975 0.0
C821 C 0.85129 0.67498 0.18389 0.0
C822 C 0.82497 0.69214 0.16944 0.0
H823 H 0.91609 0.6864 0.19381 0.0
H824 H 0.83692 0.64145 0.19554 0.0
C825 C 0.84503 0.73543 0.15337 0.0
C826 C 0.32806 0.19492 0.15099 0.0
C827 C 0.34526 0.23824 0.16599 0.0
H828 H 0.33925 0.14149 0.14052 0.0
C829 C 0.3884 0.26111 0.18248 0.0
H830 H 0.29463 0.17601 0.13897 0.0
C831 C 0.41368 0.24095 0.18434 0.0
C832 C 0.39647 0.19763 0.16934 0.0
H833 H 0.40249 0.29438 0.1948 0.0
H834 H 0.44711 0.25986 0.19636 0.0
C835 C 0.35333 0.17476 0.15284 0.0
C836 C 0.82752 0.19213 0.18205 0.0
C837 C 0.85064 0.17204 0.16586 0.0
H838 H 0.8285 0.25195 0.1958 0.0
C839 C 0.89414 0.19831 0.15131 0.0
H840 H 0.7941 0.1728 0.19403 0.0
C841 C 0.91422 0.24373 0.1533 0.0
C842 C 0.8911 0.26383 0.16949 0.0
H843 H 0.91323 0.18392 0.13955 0.0
H844 H 0.94764 0.26306 0.14133 0.0
C845 C 0.8476 0.23755 0.18405 0.0
C846 C 0.74825 0.90757 0.34728 0.0
C847 C 0.7313 0.9278 0.31971 0.0
H848 H 0.73541 0.85013 0.38315 0.0
C849 C 0.68699 0.90444 0.30692 0.0
H850 H 0.78237 0.92458 0.35743 0.0
C851 C 0.66014 0.8616 0.32134 0.0
C852 C 0.67709 0.84137 0.34892 0.0
H853 H 0.67298 0.91904 0.28548 0.0
H854 H 0.62602 0.84459 0.31119 0.0
C855 C 0.72141 0.86473 0.36171 0.0
C856 C 0.18128 0.90572 0.34725 0.0
C857 C 0.16105 0.86861 0.3196 0.0
H858 H 0.23869 0.95015 0.38329 0.0
C859 C 0.18434 0.84761 0.30684 0.0
H860 H 0.16433 0.92286 0.35738 0.0
C861 C 0.22713 0.86348 0.32138 0.0
C862 C 0.24736 0.90058 0.34903 0.0
H863 H 0.16972 0.81904 0.28534 0.0
H864 H 0.24408 0.84633 0.31125 0.0
C865 C 0.22407 0.92159 0.36179 0.0
C866 C 0.16719 0.36739 0.36189 0.0
C867 C 0.18811 0.41168 0.34902 0.0
H868 H 0.16608 0.30646 0.35762 0.0
C869 C 0.22523 0.42861 0.32131 0.0
H870 H 0.13863 0.35338 0.38343 0.0
C871 C 0.2412 0.40179 0.30683 0.0
C872 C 0.22028 0.3575 0.31969 0.0
H873 H 0.24231 0.46271 0.31109 0.0
H874 H 0.26976 0.41579 0.28529 0.0
C875 C 0.18316 0.34056 0.3474 0.0
C876 C 0.05475 0.53142 0.02843 0.0
C877 C 0.01044 0.50805 0.01562 0.0
H878 H 0.11571 0.59128 0.02415 0.0
C879 C -0.00651 0.52826 0.98802 0.0
H880 H 0.06875 0.51683 0.04988 0.0
C881 C 0.02033 0.5711 0.97358 0.0
C882 C 0.06464 0.59447 0.98639 0.0
H883 H 0.95937 0.51124 0.97786 0.0
H884 H 0.00633 0.58569 0.95213 0.0
C885 C 0.08159 0.57426 0.01399 0.0
C886 C 0.51463 0.5724 0.01392 0.0
C887 C 0.49439 0.53528 0.98628 0.0
H888 H 0.57204 0.61684 0.04994 0.0
C889 C 0.51767 0.51427 0.97353 0.0
H890 H 0.49768 0.58954 0.02405 0.0
C891 C 0.56046 0.53014 0.98806 0.0
C892 C 0.5807 0.56725 0.01571 0.0
H893 H 0.50305 0.4857 0.95204 0.0
H894 H 0.57741 0.51299 0.97794 0.0
C895 C 0.55742 0.58827 0.02846 0.0
C896 C 0.55858 0.09529 0.98795 0.0
C897 C 0.52145 0.07835 0.01565 0.0
H898 H 0.60312 0.08247 0.95193 0.0
C899 C 0.50052 0.03406 0.02851 0.0
H900 H 0.57566 0.12939 0.97774 0.0
C901 C 0.51649 0.00723 0.01403 0.0
C902 C 0.55362 0.02417 0.98633 0.0
H903 H 0.47195 0.02006 0.05004 0.0
H904 H 0.4994 0.97314 0.02424 0.0
C905 C 0.57455 0.06846 0.97347 0.0
C906 C 0.56339 0.03379 0.51531 0.0
C907 C 0.58346 0.07706 0.49921 0.0
H908 H 0.50358 0.9748 0.52895 0.0
C909 C 0.55714 0.09421 0.48471 0.0
H910 H 0.58275 0.01975 0.52724 0.0
C911 C 0.5117 0.06874 0.48667 0.0
C912 C 0.49163 0.02547 0.50277 0.0
H913 H 0.57151 0.12774 0.47302 0.0
H914 H 0.49233 0.08279 0.47474 0.0
C915 C 0.51795 0.00832 0.51727 0.0
C916 C -0.00528 0.52823 0.48436 0.0
C917 C 0.01193 0.57157 0.4993 0.0
H918 H 0.0059 0.47479 0.47395 0.0
C919 C 0.05508 0.59445 0.51577 0.0
H920 H 0.96128 0.50931 0.47236 0.0
C921 C 0.08036 0.5743 0.51765 0.0
C922 C 0.06314 0.53096 0.5027 0.0
H923 H 0.06917 0.62774 0.52805 0.0
H924 H 0.1138 0.59322 0.52964 0.0
C925 C 0.01999 0.50808 0.48623 0.0
C926 C 0.58088 0.57706 0.48661 0.0
C927 C 0.55776 0.59716 0.5028 0.0
H928 H 0.57989 0.51724 0.47287 0.0
C929 C 0.51427 0.57089 0.51736 0.0
H930 H 0.6143 0.59638 0.47463 0.0
C931 C 0.49419 0.52546 0.51538 0.0
C932 C 0.51731 0.50537 0.49919 0.0
H933 H 0.49518 0.58528 0.52912 0.0
H934 H 0.46077 0.50614 0.52736 0.0
C935 C 0.5608 0.53164 0.48462 0.0
loop_
_geom_bond_atom_site_label_1
_geom_bond_atom_site_label_2
_geom_bond_distance
_geom_bond_site_symmetry_2
_ccdc_geom_bond_type
Sc0 O3 2.025 . S
Sc0 O10 2.105 . S
Sc0 O13 2.105 1_455 S
Sc0 O16 2.105 . S
Sc0 O19 2.105 . S
Sc1 O3 2.025 . S
Sc1 O11 2.105 . S
Sc1 O15 2.105 1_455 S
Sc1 O17 2.105 1_455 S
Sc1 O21 2.105 . S
Sc2 O3 2.025 . S
Sc2 O12 2.105 . S
Sc2 O14 2.105 . S
Sc2 O18 2.105 . S
Sc2 O20 2.105 . S
O3 Sc0 2.025 . S
O3 Sc1 2.025 . S
O3 Sc2 2.025 . S
C4 O10 1.268 . S
C4 O20 1.268 . S
C5 O11 1.268 . S
C5 O19 1.268 . S
C6 O12 1.268 . S
C6 O21 1.268 . S
C7 O13 1.268 . S
C7 O17 1.268 . S
C8 O14 1.268 . S
C8 O16 1.268 . S
C9 O15 1.268 . S
C9 O18 1.268 1_655 S
O10 Sc0 2.105 . S
O10 C4 1.268 . S
O11 Sc1 2.105 . S
O11 C5 1.268 . S
O12 Sc2 2.105 . S
O12 C6 1.268 . S
O13 Sc0 2.105 1_655 S
O13 C7 1.268 . S
O14 Sc2 2.105 . S
O14 C8 1.268 . S
O15 Sc1 2.105 1_655 S
O15 C9 1.268 . S
O16 Sc0 2.105 . S
O16 C8 1.268 . S
O17 Sc1 2.105 1_655 S
O17 C7 1.268 . S
O18 Sc2 2.105 . S
O18 C9 1.268 1_455 S
O19 Sc0 2.105 . S
O19 C5 1.268 . S
O20 Sc2 2.105 . S
O20 C4 1.268 . S
O21 Sc1 2.105 . S
O21 C6 1.268 . S
Sc22 O25 2.025 . S
Sc22 O32 2.105 . S
Sc22 O35 2.105 . S
Sc22 O38 2.105 . S
Sc22 O41 2.105 . S
Sc23 O25 2.025 . S
Sc23 O33 2.105 . S
Sc23 O37 2.105 . S
Sc23 O39 2.105 . S
Sc23 O43 2.105 . S
Sc24 O25 2.025 . S
Sc24 O34 2.105 . S
Sc24 O36 2.105 . S
Sc24 O40 2.105 . S
Sc24 O42 2.105 . S
O25 Sc22 2.025 . S
O25 Sc23 2.025 . S
O25 Sc24 2.025 . S
C26 O32 1.268 . S
C26 O42 1.268 . S
C27 O33 1.268 . S
C27 O41 1.268 . S
C28 O34 1.268 . S
C28 O43 1.268 . S
C29 O35 1.268 . S
C29 O39 1.268 . S
C30 O36 1.268 . S
C30 O38 1.268 . S
C31 O37 1.268 . S
C31 O40 1.268 . S
O32 Sc22 2.105 . S
O32 C26 1.268 . S
O33 Sc23 2.105 . S
O33 C27 1.268 . S
O34 Sc24 2.105 . S
O34 C28 1.268 . S
O35 Sc22 2.105 . S
O35 C29 1.268 . S
O36 Sc24 2.105 . S
O36 C30 1.268 . S
O37 Sc23 2.105 . S
O37 C31 1.268 . S
O38 Sc22 2.105 . S
O38 C30 1.268 . S
O39 Sc23 2.105 . S
O39 C29 1.268 . S
O40 Sc24 2.105 . S
O40 C31 1.268 . S
O41 Sc22 2.105 . S
O41 C27 1.268 . S
O42 Sc24 2.105 . S
O42 C26 1.268 . S
O43 Sc23 2.105 . S
O43 C28 1.268 . S
Sc44 O47 2.025 . S
Sc44 O54 2.087 1_545 S
Sc44 O57 2.105 . S
Sc44 O60 2.105 . S
Sc44 O63 2.105 . S
Sc45 O47 2.025 . S
Sc45 O55 2.105 . S
Sc45 O59 2.105 . S
Sc45 O61 2.105 . S
Sc45 O65 2.105 . S
Sc46 O47 2.025 . S
Sc46 O56 2.105 . S
Sc46 O58 2.105 . S
Sc46 O62 2.105 . S
Sc46 O64 2.105 1_545 S
O47 Sc44 2.025 . S
O47 Sc45 2.025 . S
O47 Sc46 2.025 . S
C48 O54 1.272 . S
C48 O64 1.268 . S
C49 O55 1.268 . S
C49 O63 1.268 . S
C50 O56 1.268 1_565 S
C50 O65 1.268 1_565 S
C51 O57 1.268 . S
C51 O61 1.268 . S
C52 O58 1.268 . S
C52 O60 1.268 . S
C53 O59 1.268 . S
C53 O62 1.268 . S
O54 Sc44 2.087 1_565 S
O54 C48 1.272 . S
O55 Sc45 2.105 . S
O55 C49 1.268 . S
O56 Sc46 2.105 . S
O56 C50 1.268 1_545 S
O57 Sc44 2.105 . S
O57 C51 1.268 . S
O58 Sc46 2.105 . S
O58 C52 1.268 . S
O59 Sc45 2.105 . S
O59 C53 1.268 . S
O60 Sc44 2.105 . S
O60 C52 1.268 . S
O61 Sc45 2.105 . S
O61 C51 1.268 . S
O62 Sc46 2.105 . S
O62 C53 1.268 . S
O63 Sc44 2.105 . S
O63 C49 1.268 . S
O64 Sc46 2.105 1_565 S
O64 C48 1.268 . S
O65 Sc45 2.105 . S
O65 C50 1.268 1_545 S
Sc66 O69 2.025 . S
Sc66 O76 2.105 . S
Sc66 O79 2.105 . S
Sc66 O82 2.105 1_455 S
Sc66 O85 2.105 . S
Sc67 O69 2.025 . S
Sc67 O77 2.105 . S
Sc67 O81 2.105 . S
Sc67 O83 2.105 . S
Sc67 O87 2.105 . S
Sc68 O69 2.025 . S
Sc68 O78 2.105 . S
Sc68 O80 2.105 1_455 S
Sc68 O84 2.105 1_455 S
Sc68 O86 2.105 . S
O69 Sc66 2.025 . S
O69 Sc67 2.025 . S
O69 Sc68 2.025 . S
C70 O76 1.268 . S
C70 O86 1.268 . S
C71 O77 1.268 . S
C71 O85 1.268 . S
C72 O78 1.268 . S
C72 O87 1.268 . S
C73 O79 1.268 . S
C73 O83 1.268 . S
C74 O80 1.268 . S
C74 O82 1.268 . S
C75 O81 1.268 1_655 S
C75 O84 1.268 . S
O76 Sc66 2.105 . S
O76 C70 1.268 . S
O77 Sc67 2.105 . S
O77 C71 1.268 . S
O78 Sc68 2.105 . S
O78 C72 1.268 . S
O79 Sc66 2.105 . S
O79 C73 1.268 . S
O80 Sc68 2.105 1_655 S
O80 C74 1.268 . S
O81 Sc67 2.105 . S
O81 C75 1.268 1_455 S
O82 Sc66 2.105 1_655 S
O82 C74 1.268 . S
O83 Sc67 2.105 . S
O83 C73 1.268 . S
O84 Sc68 2.105 1_655 S
O84 C75 1.268 . S
O85 Sc66 2.105 . S
O85 C71 1.268 . S
O86 Sc68 2.105 . S
O86 C70 1.268 . S
O87 Sc67 2.105 . S
O87 C72 1.268 . S
Sc88 O91 2.025 . S
Sc88 O98 2.105 . S
Sc88 O101 2.105 . S
Sc88 O104 2.105 . S
Sc88 O107 2.105 . S
Sc89 O91 2.025 . S
Sc89 O99 2.105 . S
Sc89 O103 2.105 . S
Sc89 O105 2.105 . S
Sc89 O109 2.105 . S
Sc90 O91 2.025 . S
Sc90 O100 2.105 . S
Sc90 O102 2.105 . S
Sc90 O106 2.105 . S
Sc90 O108 2.105 . S
O91 Sc88 2.025 . S
O91 Sc89 2.025 . S
O91 Sc90 2.025 . S
C92 O98 1.268 . S
C92 O108 1.268 . S
C93 O99 1.268 . S
C93 O107 1.268 . S
C94 O100 1.268 . S
C94 O109 1.268 . S
C95 O101 1.268 . S
C95 O105 1.268 . S
C96 O102 1.268 . S
C96 O104 1.268 . S
C97 O103 1.268 . S
C97 O106 1.268 . S
O98 Sc88 2.105 . S
O98 C92 1.268 . S
O99 Sc89 2.105 . S
O99 C93 1.268 . S
O100 Sc90 2.105 . S
O100 C94 1.268 . S
O101 Sc88 2.105 . S
O101 C95 1.268 . S
O102 Sc90 2.105 . S
O102 C96 1.268 . S
O103 Sc89 2.105 . S
O103 C97 1.268 . S
O104 Sc88 2.105 . S
O104 C96 1.268 . S
O105 Sc89 2.105 . S
O105 C95 1.268 . S
O106 Sc90 2.105 . S
O106 C97 1.268 . S
O107 Sc88 2.105 . S
O107 C93 1.268 . S
O108 Sc90 2.105 . S
O108 C92 1.268 . S
O109 Sc89 2.105 . S
O109 C94 1.268 . S
Sc110 O113 2.025 . S
Sc110 O120 2.105 1_545 S
Sc110 O123 2.105 . S
Sc110 O126 2.105 . S
Sc110 O129 2.105 . S
Sc111 O113 2.025 . S
Sc111 O121 2.105 . S
Sc111 O125 2.105 . S
Sc111 O127 2.105 . S
Sc111 O131 2.105 . S
Sc112 O113 2.025 . S
Sc112 O122 2.105 . S
Sc112 O124 2.105 . S
Sc112 O128 2.105 . S
Sc112 O130 2.089 1_545 S
O113 Sc110 2.025 . S
O113 Sc111 2.025 . S
O113 Sc112 2.025 . S
C114 O120 1.268 . S
C114 O130 1.286 . S
C115 O121 1.268 1_565 S
C115 O129 1.268 1_565 S
C116 O122 1.268 . S
C116 O131 1.268 . S
C117 O123 1.268 . S
C117 O127 1.268 . S
C118 O124 1.268 . S
C118 O126 1.268 . S
C119 O125 1.268 . S
C119 O128 1.268 . S
O120 Sc110 2.105 1_565 S
O120 C114 1.268 . S
O121 Sc111 2.105 . S
O121 C115 1.268 1_545 S
O122 Sc112 2.105 . S
O122 C116 1.268 . S
O123 Sc110 2.105 . S
O123 C117 1.268 . S
O124 Sc112 2.105 . S
O124 C118 1.268 . S
O125 Sc111 2.105 . S
O125 C119 1.268 . S
O126 Sc110 2.105 . S
O126 C118 1.268 . S
O127 Sc111 2.105 . S
O127 C117 1.268 . S
O128 Sc112 2.105 . S
O128 C119 1.268 . S
O129 Sc110 2.105 . S
O129 C115 1.268 1_545 S
O130 Sc112 2.089 1_565 S
O130 C114 1.286 . S
O131 Sc111 2.105 . S
O131 C116 1.268 . S
Sc132 O135 2.025 . S
Sc132 O142 2.105 . S
Sc132 O145 2.105 . S
Sc132 O148 2.105 . S
Sc132 O151 2.105 . S
Sc133 O135 2.025 . S
Sc133 O143 2.105 1_554 S
Sc133 O147 2.105 . S
Sc133 O149 2.105 . S
Sc133 O153 2.105 . S
Sc134 O135 2.025 . S
Sc134 O144 2.105 . S
Sc134 O146 2.105 . S
Sc134 O150 2.105 . S
Sc134 O152 2.105 . S
O135 Sc132 2.025 . S
O135 Sc133 2.025 . S
O135 Sc134 2.025 . S
C136 O142 1.268 . S
C136 O152 1.268 . S
C137 O143 1.268 . S
C137 O151 1.268 1_556 S
C138 O144 1.268 . S
C138 O153 1.268 . S
C139 O145 1.268 . S
C139 O149 1.268 . S
C140 O146 1.268 . S
C140 O148 1.268 . S
C141 O147 1.268 . S
C141 O150 1.268 . S
O142 Sc132 2.105 . S
O142 C136 1.268 . S
O143 Sc133 2.105 1_556 S
O143 C137 1.268 . S
O144 Sc134 2.105 . S
O144 C138 1.268 . S
O145 Sc132 2.105 . S
O145 C139 1.268 . S
O146 Sc134 2.105 . S
O146 C140 1.268 . S
O147 Sc133 2.105 . S
O147 C141 1.268 . S
O148 Sc132 2.105 . S
O148 C140 1.268 . S
O149 Sc133 2.105 . S
O149 C139 1.268 . S
O150 Sc134 2.105 . S
O150 C141 1.268 . S
O151 Sc132 2.105 . S
O151 C137 1.268 1_554 S
O152 Sc134 2.105 . S
O152 C136 1.268 . S
O153 Sc133 2.105 . S
O153 C138 1.268 . S
Sc154 O157 2.025 . S
Sc154 O164 2.105 . S
Sc154 O167 2.105 . S
Sc154 O170 2.105 . S
Sc154 O173 2.105 . S
Sc155 O157 2.025 . S
Sc155 O165 2.105 1_554 S
Sc155 O169 2.105 . S
Sc155 O171 2.105 . S
Sc155 O175 2.105 . S
Sc156 O157 2.025 . S
Sc156 O166 2.105 . S
Sc156 O168 2.105 . S
Sc156 O172 2.105 . S
Sc156 O174 2.105 . S
O157 Sc154 2.025 . S
O157 Sc155 2.025 . S
O157 Sc156 2.025 . S
C158 O164 1.268 . S
C158 O174 1.268 . S
C159 O165 1.268 . S
C159 O173 1.268 1_556 S
C160 O166 1.268 . S
C160 O175 1.268 . S
C161 O167 1.268 . S
C161 O171 1.268 . S
C162 O168 1.268 . S
C162 O170 1.268 . S
C163 O169 1.268 . S
C163 O172 1.268 . S
O164 Sc154 2.105 . S
O164 C158 1.268 . S
O165 Sc155 2.105 1_556 S
O165 C159 1.268 . S
O166 Sc156 2.105 . S
O166 C160 1.268 . S
O167 Sc154 2.105 . S
O167 C161 1.268 . S
O168 Sc156 2.105 . S
O168 C162 1.268 . S
O169 Sc155 2.105 . S
O169 C163 1.268 . S
O170 Sc154 2.105 . S
O170 C162 1.268 . S
O171 Sc155 2.105 . S
O171 C161 1.268 . S
O172 Sc156 2.105 . S
O172 C163 1.268 . S
O173 Sc154 2.105 . S
O173 C159 1.268 1_554 S
O174 Sc156 2.105 . S
O174 C158 1.268 . S
O175 Sc155 2.105 . S
O175 C160 1.268 . S
Sc176 O179 2.025 . S
Sc176 O186 2.105 . S
Sc176 O189 2.105 1_655 S
Sc176 O192 2.104 1_655 S
Sc176 O195 2.105 . S
Sc177 O179 2.025 . S
Sc177 O187 2.105 1_554 S
Sc177 O191 2.105 . S
Sc177 O193 2.105 . S
Sc177 O197 2.105 . S
Sc178 O179 2.025 . S
Sc178 O188 2.105 . S
Sc178 O190 2.105 . S
Sc178 O194 2.105 . S
Sc178 O196 2.105 . S
O179 Sc176 2.025 . S
O179 Sc177 2.025 . S
O179 Sc178 2.025 . S
C180 O186 1.268 . S
C180 O196 1.268 . S
C181 O187 1.268 . S
C181 O195 1.268 1_556 S
C182 O188 1.268 . S
C182 O197 1.268 . S
C183 O189 1.268 . S
C183 O193 1.268 1_455 S
C184 O190 1.268 . S
C184 O192 1.262 1_655 S
C185 O191 1.268 . S
C185 O194 1.268 . S
O186 Sc176 2.105 . S
O186 C180 1.268 . S
O187 Sc177 2.105 1_556 S
O187 C181 1.268 . S
O188 Sc178 2.105 . S
O188 C182 1.268 . S
O189 Sc176 2.105 1_455 S
O189 C183 1.268 . S
O190 Sc178 2.105 . S
O190 C184 1.268 . S
O191 Sc177 2.105 . S
O191 C185 1.268 . S
O192 Sc176 2.104 1_455 S
O192 C184 1.262 1_455 S
O193 Sc177 2.105 . S
O193 C183 1.268 1_655 S
O194 Sc178 2.105 . S
O194 C185 1.268 . S
O195 Sc176 2.105 . S
O195 C181 1.268 1_554 S
O196 Sc178 2.105 . S
O196 C180 1.268 . S
O197 Sc177 2.105 . S
O197 C182 1.268 . S
Sc198 O201 2.025 . S
Sc198 O208 2.105 . S
Sc198 O211 2.105 . S
Sc198 O214 2.105 . S
Sc198 O217 2.105 . S
Sc199 O201 2.025 . S
Sc199 O209 2.105 . S
Sc199 O213 2.105 . S
Sc199 O215 2.105 . S
Sc199 O219 2.105 . S
Sc200 O201 2.025 . S
Sc200 O210 2.105 . S
Sc200 O212 2.105 . S
Sc200 O216 2.105 . S
Sc200 O218 2.105 . S
O201 Sc198 2.025 . S
O201 Sc199 2.025 . S
O201 Sc200 2.025 . S
C202 O208 1.268 . S
C202 O218 1.268 . S
C203 O209 1.268 . S
C203 O217 1.268 . S
C204 O210 1.268 . S
C204 O219 1.268 . S
C205 O211 1.268 . S
C205 O215 1.268 . S
C206 O212 1.268 . S
C206 O214 1.268 . S
C207 O213 1.268 . S
C207 O216 1.268 . S
O208 Sc198 2.105 . S
O208 C202 1.268 . S
O209 Sc199 2.105 . S
O209 C203 1.268 . S
O210 Sc200 2.105 . S
O210 C204 1.268 . S
O211 Sc198 2.105 . S
O211 C205 1.268 . S
O212 Sc200 2.105 . S
O212 C206 1.268 . S
O213 Sc199 2.105 . S
O213 C207 1.268 . S
O214 Sc198 2.105 . S
O214 C206 1.268 . S
O215 Sc199 2.105 . S
O215 C205 1.268 . S
O216 Sc200 2.105 . S
O216 C207 1.268 . S
O217 Sc198 2.105 . S
O217 C203 1.268 . S
O218 Sc200 2.105 . S
O218 C202 1.268 . S
O219 Sc199 2.105 . S
O219 C204 1.268 . S
Sc220 O223 2.025 . S
Sc220 O230 2.105 . S
Sc220 O233 2.105 . S
Sc220 O236 2.105 . S
Sc220 O239 2.105 . S
Sc221 O223 2.025 . S
Sc221 O231 2.105 . S
Sc221 O235 2.105 . S
Sc221 O237 2.105 . S
Sc221 O241 2.105 . S
Sc222 O223 2.025 . S
Sc222 O232 2.105 . S
Sc222 O234 2.100 1_655 S
Sc222 O238 2.105 1_655 S
Sc222 O240 2.105 . S
O223 Sc220 2.025 . S
O223 Sc221 2.025 . S
O223 Sc222 2.025 . S
C224 O230 1.268 . S
C224 O240 1.268 . S
C225 O231 1.268 . S
C225 O239 1.268 . S
C226 O232 1.268 . S
C226 O241 1.268 . S
C227 O233 1.268 . S
C227 O237 1.268 . S
C228 O234 1.266 1_655 S
C228 O236 1.268 . S
C229 O235 1.268 1_455 S
C229 O238 1.268 . S
O230 Sc220 2.105 . S
O230 C224 1.268 . S
O231 Sc221 2.105 . S
O231 C225 1.268 . S
O232 Sc222 2.105 . S
O232 C226 1.268 . S
O233 Sc220 2.105 . S
O233 C227 1.268 . S
O234 Sc222 2.100 1_455 S
O234 C228 1.266 1_455 S
O235 Sc221 2.105 . S
O235 C229 1.268 1_655 S
O236 Sc220 2.105 . S
O236 C228 1.268 . S
O237 Sc221 2.105 . S
O237 C227 1.268 . S
O238 Sc222 2.105 1_455 S
O238 C229 1.268 . S
O239 Sc220 2.105 . S
O239 C225 1.268 . S
O240 Sc222 2.105 . S
O240 C224 1.268 . S
O241 Sc221 2.105 . S
O241 C226 1.268 . S
Sc242 O245 2.025 . S
Sc242 O252 2.105 . S
Sc242 O255 2.105 . S
Sc242 O258 2.105 . S
Sc242 O261 2.105 . S
Sc243 O245 2.025 . S
Sc243 O253 2.105 . S
Sc243 O257 2.105 . S
Sc243 O259 2.105 . S
Sc243 O263 2.105 . S
Sc244 O245 2.025 . S
Sc244 O254 2.105 . S
Sc244 O256 2.105 . S
Sc244 O260 2.105 . S
Sc244 O262 2.105 . S
O245 Sc242 2.025 . S
O245 Sc243 2.025 . S
O245 Sc244 2.025 . S
C246 O252 1.268 . S
C246 O262 1.268 . S
C247 O253 1.268 . S
C247 O261 1.268 . S
C248 O254 1.268 . S
C248 O263 1.268 . S
C249 O255 1.268 . S
C249 O259 1.268 . S
C250 O256 1.268 . S
C250 O258 1.268 . S
C251 O257 1.268 . S
C251 O260 1.268 . S
O252 Sc242 2.105 . S
O252 C246 1.268 . S
O253 Sc243 2.105 . S
O253 C247 1.268 . S
O254 Sc244 2.105 . S
O254 C248 1.268 . S
O255 Sc242 2.105 . S
O255 C249 1.268 . S
O256 Sc244 2.105 . S
O256 C250 1.268 . S
O257 Sc243 2.105 . S
O257 C251 1.268 . S
O258 Sc242 2.105 . S
O258 C250 1.268 . S
O259 Sc243 2.105 . S
O259 C249 1.268 . S
O260 Sc244 2.105 . S
O260 C251 1.268 . S
O261 Sc242 2.105 . S
O261 C247 1.268 . S
O262 Sc244 2.105 . S
O262 C246 1.268 . S
O263 Sc243 2.105 . S
O263 C248 1.268 . S
Sc264 O267 2.025 . S
Sc264 O274 2.105 1_565 S
Sc264 O277 2.105 . S
Sc264 O280 2.105 . S
Sc264 O283 2.105 1_565 S
Sc265 O267 2.025 . S
Sc265 O275 2.105 . S
Sc265 O279 2.105 . S
Sc265 O281 2.105 . S
Sc265 O285 2.105 . S
Sc266 O267 2.025 . S
Sc266 O276 2.105 . S
Sc266 O278 2.105 . S
Sc266 O282 2.105 . S
Sc266 O284 2.105 . S
O267 Sc264 2.025 . S
O267 Sc265 2.025 . S
O267 Sc266 2.025 . S
C268 O274 1.268 . S
C268 O284 1.268 1_545 S
C269 O275 1.268 . S
C269 O283 1.268 1_565 S
C270 O276 1.268 . S
C270 O285 1.268 . S
C271 O277 1.268 . S
C271 O281 1.268 . S
C272 O278 1.268 . S
C272 O280 1.268 . S
C273 O279 1.268 . S
C273 O282 1.268 . S
O274 Sc264 2.105 1_545 S
O274 C268 1.268 . S
O275 Sc265 2.105 . S
O275 C269 1.268 . S
O276 Sc266 2.105 . S
O276 C270 1.268 . S
O277 Sc264 2.105 . S
O277 C271 1.268 . S
O278 Sc266 2.105 . S
O278 C272 1.268 . S
O279 Sc265 2.105 . S
O279 C273 1.268 . S
O280 Sc264 2.105 . S
O280 C272 1.268 . S
O281 Sc265 2.105 . S
O281 C271 1.268 . S
O282 Sc266 2.105 . S
O282 C273 1.268 . S
O283 Sc264 2.105 1_545 S
O283 C269 1.268 1_545 S
O284 Sc266 2.105 . S
O284 C268 1.268 1_565 S
O285 Sc265 2.105 . S
O285 C270 1.268 . S
Sc286 O289 2.025 . S
Sc286 O296 2.105 . S
Sc286 O299 2.105 . S
Sc286 O302 2.105 . S
Sc286 O305 2.105 . S
Sc287 O289 2.025 . S
Sc287 O297 2.105 . S
Sc287 O301 2.105 . S
Sc287 O303 2.105 . S
Sc287 O307 2.105 . S
Sc288 O289 2.025 . S
Sc288 O298 2.105 . S
Sc288 O300 2.105 . S
Sc288 O304 2.105 . S
Sc288 O306 2.105 . S
O289 Sc286 2.025 . S
O289 Sc287 2.025 . S
O289 Sc288 2.025 . S
C290 O296 1.268 . S
C290 O306 1.268 . S
C291 O297 1.268 . S
C291 O305 1.268 . S
C292 O298 1.268 . S
C292 O307 1.268 . S
C293 O299 1.268 . S
C293 O303 1.268 . S
C294 O300 1.268 . S
C294 O302 1.268 . S
C295 O301 1.268 . S
C295 O304 1.268 . S
O296 Sc286 2.105 . S
O296 C290 1.268 . S
O297 Sc287 2.105 . S
O297 C291 1.268 . S
O298 Sc288 2.105 . S
O298 C292 1.268 . S
O299 Sc286 2.105 . S
O299 C293 1.268 . S
O300 Sc288 2.105 . S
O300 C294 1.268 . S
O301 Sc287 2.105 . S
O301 C295 1.268 . S
O302 Sc286 2.105 . S
O302 C294 1.268 . S
O303 Sc287 2.105 . S
O303 C293 1.268 . S
O304 Sc288 2.105 . S
O304 C295 1.268 . S
O305 Sc286 2.105 . S
O305 C291 1.268 . S
O306 Sc288 2.105 . S
O306 C290 1.268 . S
O307 Sc287 2.105 . S
O307 C292 1.268 . S
Sc308 O311 2.025 . S
Sc308 O318 2.105 . S
Sc308 O321 2.105 . S
Sc308 O324 2.105 . S
Sc308 O327 2.105 . S
Sc309 O311 2.025 . S
Sc309 O319 2.105 . S
Sc309 O323 2.105 . S
Sc309 O325 2.105 . S
Sc309 O329 2.105 . S
Sc310 O311 2.025 . S
Sc310 O320 2.105 . S
Sc310 O322 2.105 . S
Sc310 O326 2.105 . S
Sc310 O328 2.105 . S
O311 Sc308 2.025 . S
O311 Sc309 2.025 . S
O311 Sc310 2.025 . S
C312 O318 1.268 . S
C312 O328 1.268 . S
C313 O319 1.268 . S
C313 O327 1.268 . S
C314 O320 1.268 . S
C314 O329 1.268 . S
C315 O321 1.268 . S
C315 O325 1.268 . S
C316 O322 1.268 . S
C316 O324 1.268 . S
C317 O323 1.268 . S
C317 O326 1.268 . S
O318 Sc308 2.105 . S
O318 C312 1.268 . S
O319 Sc309 2.105 . S
O319 C313 1.268 . S
O320 Sc310 2.105 . S
O320 C314 1.268 . S
O321 Sc308 2.105 . S
O321 C315 1.268 . S
O322 Sc310 2.105 . S
O322 C316 1.268 . S
O323 Sc309 2.105 . S
O323 C317 1.268 . S
O324 Sc308 2.105 . S
O324 C316 1.268 . S
O325 Sc309 2.105 . S
O325 C315 1.268 . S
O326 Sc310 2.105 . S
O326 C317 1.268 . S
O327 Sc308 2.105 . S
O327 C313 1.268 . S
O328 Sc310 2.105 . S
O328 C312 1.268 . S
O329 Sc309 2.105 . S
O329 C314 1.268 . S
Sc330 O333 2.025 . S
Sc330 O340 2.105 . S
Sc330 O343 2.105 . S
Sc330 O346 2.105 . S
Sc330 O349 2.105 . S
Sc331 O333 2.025 . S
Sc331 O341 2.105 . S
Sc331 O345 2.105 . S
Sc331 O347 2.105 1_556 S
Sc331 O351 2.105 . S
Sc332 O333 2.025 . S
Sc332 O342 2.105 . S
Sc332 O344 2.105 . S
Sc332 O348 2.105 . S
Sc332 O350 2.105 . S
O333 Sc330 2.025 . S
O333 Sc331 2.025 . S
O333 Sc332 2.025 . S
C334 O340 1.268 . S
C334 O350 1.268 . S
C335 O341 1.268 . S
C335 O349 1.268 . S
C336 O342 1.268 . S
C336 O351 1.268 . S
C337 O343 1.268 1_554 S
C337 O347 1.268 . S
C338 O344 1.268 . S
C338 O346 1.268 . S
C339 O345 1.268 . S
C339 O348 1.268 . S
O340 Sc330 2.105 . S
O340 C334 1.268 . S
O341 Sc331 2.105 . S
O341 C335 1.268 . S
O342 Sc332 2.105 . S
O342 C336 1.268 . S
O343 Sc330 2.105 . S
O343 C337 1.268 1_556 S
O344 Sc332 2.105 . S
O344 C338 1.268 . S
O345 Sc331 2.105 . S
O345 C339 1.268 . S
O346 Sc330 2.105 . S
O346 C338 1.268 . S
O347 Sc331 2.105 1_554 S
O347 C337 1.268 . S
O348 Sc332 2.105 . S
O348 C339 1.268 . S
O349 Sc330 2.105 . S
O349 C335 1.268 . S
O350 Sc332 2.105 . S
O350 C334 1.268 . S
O351 Sc331 2.105 . S
O351 C336 1.268 . S
Sc352 O355 2.025 . S
Sc352 O362 2.105 . S
Sc352 O365 2.105 . S
Sc352 O368 2.105 1_556 S
Sc352 O371 2.105 . S
Sc353 O355 2.025 . S
Sc353 O363 2.105 . S
Sc353 O367 2.105 . S
Sc353 O369 2.105 . S
Sc353 O373 2.105 . S
Sc354 O355 2.025 . S
Sc354 O364 2.105 1_565 S
Sc354 O366 2.105 . S
Sc354 O370 2.105 . S
Sc354 O372 2.105 1_565 S
O355 Sc352 2.025 . S
O355 Sc353 2.025 . S
O355 Sc354 2.025 . S
C356 O362 1.268 1_545 S
C356 O372 1.268 . S
C357 O363 1.268 . S
C357 O371 1.268 . S
C358 O364 1.268 1_565 S
C358 O373 1.268 . S
C359 O365 1.268 . S
C359 O369 1.268 . S
C360 O366 1.268 1_554 S
C360 O368 1.268 . S
C361 O367 1.268 . S
C361 O370 1.268 . S
O362 Sc352 2.105 . S
O362 C356 1.268 1_565 S
O363 Sc353 2.105 . S
O363 C357 1.268 . S
O364 Sc354 2.105 1_545 S
O364 C358 1.268 1_545 S
O365 Sc352 2.105 . S
O365 C359 1.268 . S
O366 Sc354 2.105 . S
O366 C360 1.268 1_556 S
O367 Sc353 2.105 . S
O367 C361 1.268 . S
O368 Sc352 2.105 1_554 S
O368 C360 1.268 . S
O369 Sc353 2.105 . S
O369 C359 1.268 . S
O370 Sc354 2.105 . S
O370 C361 1.268 . S
O371 Sc352 2.105 . S
O371 C357 1.268 . S
O372 Sc354 2.105 1_545 S
O372 C356 1.268 . S
O373 Sc353 2.105 . S
O373 C358 1.268 . S
Sc374 O377 2.025 . S
Sc374 O384 2.105 . S
Sc374 O387 2.105 . S
Sc374 O390 2.105 1_556 S
Sc374 O393 2.105 . S
Sc375 O377 2.025 . S
Sc375 O385 2.105 . S
Sc375 O389 2.105 . S
Sc375 O391 2.105 . S
Sc375 O395 2.105 . S
Sc376 O377 2.025 . S
Sc376 O386 2.105 . S
Sc376 O388 2.105 . S
Sc376 O392 2.105 . S
Sc376 O394 2.105 . S
O377 Sc374 2.025 . S
O377 Sc375 2.025 . S
O377 Sc376 2.025 . S
C378 O384 1.268 . S
C378 O394 1.268 . S
C379 O385 1.268 . S
C379 O393 1.268 . S
C380 O386 1.268 . S
C380 O395 1.268 . S
C381 O387 1.268 . S
C381 O391 1.268 . S
C382 O388 1.268 1_554 S
C382 O390 1.268 . S
C383 O389 1.268 . S
C383 O392 1.268 . S
O384 Sc374 2.105 . S
O384 C378 1.268 . S
O385 Sc375 2.105 . S
O385 C379 1.268 . S
O386 Sc376 2.105 . S
O386 C380 1.268 . S
O387 Sc374 2.105 . S
O387 C381 1.268 . S
O388 Sc376 2.105 . S
O388 C382 1.268 1_556 S
O389 Sc375 2.105 . S
O389 C383 1.268 . S
O390 Sc374 2.105 1_554 S
O390 C382 1.268 . S
O391 Sc375 2.105 . S
O391 C381 1.268 . S
O392 Sc376 2.105 . S
O392 C383 1.268 . S
O393 Sc374 2.105 . S
O393 C379 1.268 . S
O394 Sc376 2.105 . S
O394 C378 1.268 . S
O395 Sc375 2.105 . S
O395 C380 1.268 . S
C396 C397 1.387 . S
C396 H400 0.950 . S
C396 C405 1.390 . S
C397 C396 1.387 . S
C397 C399 1.387 . S
H398 C405 0.950 . S
C399 C397 1.387 . S
C399 C401 1.390 . S
C399 H403 0.950 . S
H400 C396 0.950 . S
C401 C399 1.390 . S
C401 C402 1.387 . S
C401 H404 0.950 . S
C402 C401 1.387 . S
C402 C405 1.387 . S
H403 C399 0.950 . S
H404 C401 0.950 . S
C405 C396 1.390 . S
C405 H398 0.950 . S
C405 C402 1.387 . S
C406 C407 1.387 . S
C406 H410 0.950 . S
C406 C415 1.390 . S
C407 C406 1.387 . S
C407 C409 1.387 . S
H408 C415 0.950 . S
C409 C407 1.387 . S
C409 C411 1.390 . S
C409 H413 0.950 1_655 S
H410 C406 0.950 . S
C411 C409 1.390 . S
C411 C412 1.387 . S
C411 H414 0.950 . S
C412 C411 1.387 . S
C412 C415 1.387 . S
H413 C409 0.950 1_455 S
H414 C411 0.950 . S
C415 C406 1.390 . S
C415 H408 0.950 . S
C415 C412 1.387 . S
C416 C417 1.387 . S
C416 H420 0.950 . S
C416 C425 1.390 . S
C417 C416 1.387 . S
C417 C419 1.387 . S
H418 C425 0.950 . S
C419 C417 1.387 . S
C419 C421 1.390 . S
C419 H423 0.950 1_455 S
H420 C416 0.950 . S
C421 C419 1.390 . S
C421 C422 1.387 . S
C421 H424 0.950 . S
C422 C421 1.387 . S
C422 C425 1.387 . S
H423 C419 0.950 1_655 S
H424 C421 0.950 . S
C425 C416 1.390 . S
C425 H418 0.950 . S
C425 C422 1.387 . S
C426 C427 1.387 . S
C426 H430 0.950 1_655 S
C426 C435 1.390 . S
C427 C426 1.387 . S
C427 C429 1.387 . S
H428 C435 0.950 1_545 S
C429 C427 1.387 . S
C429 C431 1.390 . S
C429 H433 0.950 . S
H430 C426 0.950 1_455 S
C431 C429 1.390 . S
C431 C432 1.387 . S
C431 H434 0.950 . S
C432 C431 1.387 . S
C432 C435 1.387 . S
H433 C429 0.950 . S
H434 C431 0.950 . S
C435 C426 1.390 . S
C435 H428 0.950 1_565 S
C435 C432 1.387 . S
C436 C437 1.387 . S
C436 H440 0.950 . S
C436 C445 1.390 . S
C437 C436 1.387 . S
C437 C439 1.387 . S
H438 C445 0.950 . S
C439 C437 1.387 . S
C439 C441 1.390 . S
C439 H443 0.950 . S
H440 C436 0.950 . S
C441 C439 1.390 . S
C441 C442 1.387 . S
C441 H444 0.950 . S
C442 C441 1.387 . S
C442 C445 1.387 . S
H443 C439 0.950 . S
H444 C441 0.950 . S
C445 C436 1.390 . S
C445 H438 0.950 . S
C445 C442 1.387 . S
C446 C447 1.387 . S
C446 H450 0.950 . S
C446 C455 1.390 . S
C447 C446 1.387 . S
C447 C449 1.387 . S
H448 C455 0.950 1_655 S
C449 C447 1.387 . S
C449 C451 1.390 . S
C449 H453 0.950 . S
H450 C446 0.950 . S
C451 C449 1.390 . S
C451 C452 1.387 . S
C451 H454 0.950 . S
C452 C451 1.387 . S
C452 C455 1.387 . S
H453 C449 0.950 . S
H454 C451 0.950 . S
C455 C446 1.390 . S
C455 H448 0.950 1_455 S
C455 C452 1.387 . S
C456 C457 1.387 . S
C456 H460 0.950 . S
C456 C465 1.390 . S
C457 C456 1.387 . S
C457 C459 1.387 . S
H458 C465 0.950 . S
C459 C457 1.387 . S
C459 C461 1.390 . S
C459 H463 0.950 . S
H460 C456 0.950 . S
C461 C459 1.390 . S
C461 C462 1.387 . S
C461 H464 0.950 . S
C462 C461 1.387 . S
C462 C465 1.387 . S
H463 C459 0.950 . S
H464 C461 0.950 . S
C465 C456 1.390 . S
C465 H458 0.950 . S
C465 C462 1.387 . S
C466 C467 1.387 . S
C466 H470 0.950 . S
C466 C475 1.390 . S
C467 C466 1.387 . S
C467 C469 1.387 . S
H468 C475 0.950 . S
C469 C467 1.387 . S
C469 C471 1.390 . S
C469 H473 0.950 . S
H470 C466 0.950 . S
C471 C469 1.390 . S
C471 C472 1.387 . S
C471 H474 0.950 . S
C472 C471 1.387 . S
C472 C475 1.387 . S
H473 C469 0.950 . S
H474 C471 0.950 . S
C475 C466 1.390 . S
C475 H468 0.950 . S
C475 C472 1.387 . S
C476 C477 1.387 . S
C476 H480 0.950 . S
C476 C485 1.390 . S
C477 C476 1.387 . S
C477 C479 1.387 . S
H478 C485 0.950 . S
C479 C477 1.387 . S
C479 C481 1.390 . S
C479 H483 0.950 . S
H480 C476 0.950 . S
C481 C479 1.390 . S
C481 C482 1.387 . S
C481 H484 0.950 . S
C482 C481 1.387 . S
C482 C485 1.387 . S
H483 C479 0.950 . S
H484 C481 0.950 . S
C485 C476 1.390 . S
C485 H478 0.950 . S
C485 C482 1.387 . S
C486 C487 1.387 . S
C486 H490 0.950 . S
C486 C495 1.390 . S
C487 C486 1.387 . S
C487 C489 1.387 . S
H488 C495 0.950 . S
C489 C487 1.387 . S
C489 C491 1.390 . S
C489 H493 0.950 . S
H490 C486 0.950 . S
C491 C489 1.390 . S
C491 C492 1.387 . S
C491 H494 0.950 . S
C492 C491 1.387 . S
C492 C495 1.387 . S
H493 C489 0.950 . S
H494 C491 0.950 . S
C495 C486 1.390 . S
C495 H488 0.950 . S
C495 C492 1.387 . S
C496 C497 1.387 . S
C496 H500 0.950 . S
C496 C505 1.390 . S
C497 C496 1.387 . S
C497 C499 1.387 . S
H498 C505 0.950 . S
C499 C497 1.387 . S
C499 C501 1.390 . S
C499 H503 0.950 . S
H500 C496 0.950 . S
C501 C499 1.390 . S
C501 C502 1.387 . S
C501 H504 0.950 . S
C502 C501 1.387 . S
C502 C505 1.387 . S
H503 C499 0.950 . S
H504 C501 0.950 . S
C505 C496 1.390 . S
C505 H498 0.950 . S
C505 C502 1.387 . S
C506 C507 1.387 . S
C506 H510 0.950 . S
C506 C515 1.390 . S
C507 C506 1.387 . S
C507 C509 1.387 . S
H508 C515 0.950 . S
C509 C507 1.387 . S
C509 C511 1.390 . S
C509 H513 0.950 . S
H510 C506 0.950 . S
C511 C509 1.390 . S
C511 C512 1.387 . S
C511 H514 0.950 . S
C512 C511 1.387 . S
C512 C515 1.387 . S
H513 C509 0.950 . S
H514 C511 0.950 . S
C515 C506 1.390 . S
C515 H508 0.950 . S
C515 C512 1.387 . S
C516 C517 1.387 . S
C516 H520 0.950 . S
C516 C525 1.390 . S
C517 C516 1.387 . S
C517 C519 1.387 . S
H518 C525 0.950 . S
C519 C517 1.387 . S
C519 C521 1.390 . S
C519 H523 0.950 . S
H520 C516 0.950 . S
C521 C519 1.390 . S
C521 C522 1.387 . S
C521 H524 0.950 . S
C522 C521 1.387 . S
C522 C525 1.387 . S
H523 C519 0.950 . S
H524 C521 0.950 . S
C525 C516 1.390 . S
C525 H518 0.950 . S
C525 C522 1.387 . S
C526 C527 1.387 . S
C526 H530 0.950 . S
C526 C535 1.390 . S
C527 C526 1.387 . S
C527 C529 1.387 . S
H528 C535 0.950 . S
C529 C527 1.387 . S
C529 C531 1.390 . S
C529 H533 0.950 . S
H530 C526 0.950 . S
C531 C529 1.390 . S
C531 C532 1.387 . S
C531 H534 0.950 . S
C532 C531 1.387 . S
C532 C535 1.387 . S
H533 C529 0.950 . S
H534 C531 0.950 . S
C535 C526 1.390 . S
C535 H528 0.950 . S
C535 C532 1.387 . S
C536 C537 1.387 . S
C536 H540 0.950 . S
C536 C545 1.390 . S
C537 C536 1.387 . S
C537 C539 1.387 . S
H538 C545 0.950 . S
C539 C537 1.387 . S
C539 C541 1.390 . S
C539 H543 0.950 . S
H540 C536 0.950 . S
C541 C539 1.390 . S
C541 C542 1.387 . S
C541 H544 0.950 . S
C542 C541 1.387 . S
C542 C545 1.387 . S
H543 C539 0.950 . S
H544 C541 0.950 . S
C545 C536 1.390 . S
C545 H538 0.950 . S
C545 C542 1.387 . S
C546 C547 1.387 . S
C546 H550 0.950 . S
C546 C555 1.390 . S
C547 C546 1.387 . S
C547 C549 1.387 . S
H548 C555 0.950 . S
C549 C547 1.387 . S
C549 C551 1.390 . S
C549 H553 0.950 . S
H550 C546 0.950 . S
C551 C549 1.390 . S
C551 C552 1.387 . S
C551 H554 0.950 . S
C552 C551 1.387 . S
C552 C555 1.387 . S
H553 C549 0.950 . S
H554 C551 0.950 . S
C555 C546 1.390 . S
C555 H548 0.950 . S
C555 C552 1.387 . S
C556 C557 1.387 . S
C556 H560 0.950 . S
C556 C565 1.390 . S
C557 C556 1.387 . S
C557 C559 1.387 . S
H558 C565 0.950 . S
C559 C557 1.387 . S
C559 C561 1.390 . S
C559 H563 0.950 . S
H560 C556 0.950 . S
C561 C559 1.390 . S
C561 C562 1.387 . S
C561 H564 0.950 . S
C562 C561 1.387 . S
C562 C565 1.387 . S
H563 C559 0.950 . S
H564 C561 0.950 . S
C565 C556 1.390 . S
C565 H558 0.950 . S
C565 C562 1.387 . S
C566 C567 1.387 . S
C566 H570 0.950 . S
C566 C575 1.390 . S
C567 C566 1.387 . S
C567 C569 1.387 . S
H568 C575 0.950 . S
C569 C567 1.387 . S
C569 C571 1.390 . S
C569 H573 0.950 . S
H570 C566 0.950 . S
C571 C569 1.390 . S
C571 C572 1.387 . S
C571 H574 0.950 . S
C572 C571 1.387 . S
C572 C575 1.387 . S
H573 C569 0.950 . S
H574 C571 0.950 . S
C575 C566 1.390 . S
C575 H568 0.950 . S
C575 C572 1.387 . S
C576 C577 1.387 . S
C576 H580 0.950 . S
C576 C585 1.390 . S
C577 C576 1.387 . S
C577 C579 1.387 . S
H578 C585 0.950 . S
C579 C577 1.387 . S
C579 C581 1.390 . S
C579 H583 0.950 . S
H580 C576 0.950 . S
C581 C579 1.390 . S
C581 C582 1.387 . S
C581 H584 0.950 . S
C582 C581 1.387 . S
C582 C585 1.387 . S
H583 C579 0.950 . S
H584 C581 0.950 . S
C585 C576 1.390 . S
C585 H578 0.950 . S
C585 C582 1.387 . S
C586 C587 1.387 . S
C586 H590 0.950 . S
C586 C595 1.390 . S
C587 C586 1.387 . S
C587 C589 1.387 . S
H588 C595 0.950 . S
C589 C587 1.387 . S
C589 C591 1.390 . S
C589 H593 0.950 . S
H590 C586 0.950 . S
C591 C589 1.390 . S
C591 C592 1.387 . S
C591 H594 0.950 . S
C592 C591 1.387 . S
C592 C595 1.387 . S
H593 C589 0.950 . S
H594 C591 0.950 . S
C595 C586 1.390 . S
C595 H588 0.950 . S
C595 C592 1.387 . S
C596 C597 1.387 1_545 S
C596 H600 0.950 . S
C596 C605 1.390 . S
C597 C596 1.387 1_565 S
C597 C599 1.387 . S
H598 C605 0.950 . S
C599 C597 1.387 . S
C599 C601 1.390 . S
C599 H603 0.950 . S
H600 C596 0.950 . S
C601 C599 1.390 . S
C601 C602 1.387 . S
C601 H604 0.950 . S
C602 C601 1.387 . S
C602 C605 1.387 1_565 S
H603 C599 0.950 . S
H604 C601 0.950 . S
C605 C596 1.390 . S
C605 H598 0.950 . S
C605 C602 1.387 1_545 S
C606 C607 1.387 . S
C606 H610 0.950 . S
C606 C615 1.390 . S
C607 C606 1.387 . S
C607 C609 1.387 . S
H608 C615 0.950 . S
C609 C607 1.387 . S
C609 C611 1.390 . S
C609 H613 0.950 . S
H610 C606 0.950 . S
C611 C609 1.390 . S
C611 C612 1.387 . S
C611 H614 0.950 . S
C612 C611 1.387 . S
C612 C615 1.387 . S
H613 C609 0.950 . S
H614 C611 0.950 . S
C615 C606 1.390 . S
C615 H608 0.950 . S
C615 C612 1.387 . S
C616 C617 1.387 . S
C616 H620 0.951 . S
C616 C625 1.390 . S
C617 C616 1.387 . S
C617 C619 1.387 . S
H618 C625 0.950 . S
C619 C617 1.387 . S
C619 C621 1.390 . S
C619 H623 0.950 . S
H620 C616 0.951 . S
C621 C619 1.390 . S
C621 C622 1.387 . S
C621 H624 0.950 . S
C622 C621 1.387 . S
C622 C625 1.387 . S
H623 C619 0.950 . S
H624 C621 0.950 . S
C625 C616 1.390 . S
C625 H618 0.950 . S
C625 C622 1.387 . S
C626 C627 1.387 . S
C626 H630 0.950 . S
C626 C635 1.390 . S
C627 C626 1.387 . S
C627 C629 1.387 . S
H628 C635 0.950 . S
C629 C627 1.387 . S
C629 C631 1.390 . S
C629 H633 0.950 . S
H630 C626 0.950 . S
C631 C629 1.390 . S
C631 C632 1.387 . S
C631 H634 0.950 . S
C632 C631 1.387 . S
C632 C635 1.387 . S
H633 C629 0.950 . S
H634 C631 0.950 . S
C635 C626 1.390 . S
C635 H628 0.950 . S
C635 C632 1.387 . S
C636 C637 1.387 . S
C636 H640 0.950 . S
C636 C645 1.390 . S
C637 C636 1.387 . S
C637 C639 1.387 . S
H638 C645 0.950 . S
C639 C637 1.387 . S
C639 C641 1.390 1_655 S
C639 H643 0.950 1_655 S
H640 C636 0.950 . S
C641 C639 1.390 1_455 S
C641 C642 1.387 1_455 S
C641 H644 0.950 . S
C642 C641 1.387 1_655 S
C642 C645 1.387 . S
H643 C639 0.950 1_455 S
H644 C641 0.950 . S
C645 C636 1.390 . S
C645 H638 0.950 . S
C645 C642 1.387 . S
C646 C647 1.387 . S
C646 H650 0.950 . S
C646 C655 1.390 . S
C647 C646 1.387 . S
C647 C649 1.387 . S
H648 C655 0.950 . S
C649 C647 1.387 . S
C649 C651 1.390 . S
C649 H653 0.950 . S
H650 C646 0.950 . S
C651 C649 1.390 . S
C651 C652 1.387 . S
C651 H654 0.950 . S
C652 C651 1.387 . S
C652 C655 1.387 . S
H653 C649 0.950 . S
H654 C651 0.950 . S
C655 C646 1.390 . S
C655 H648 0.950 . S
C655 C652 1.387 . S
C656 C657 1.387 . S
C656 H660 0.950 . S
C656 C665 1.390 . S
C657 C656 1.387 . S
C657 C659 1.387 . S
H658 C665 0.950 . S
C659 C657 1.387 . S
C659 C661 1.390 . S
C659 H663 0.950 . S
H660 C656 0.950 . S
C661 C659 1.390 . S
C661 C662 1.387 . S
C661 H664 0.950 . S
C662 C661 1.387 . S
C662 C665 1.387 . S
H663 C659 0.950 . S
H664 C661 0.950 . S
C665 C656 1.390 . S
C665 H658 0.950 . S
C665 C662 1.387 . S
C666 C667 1.387 . S
C666 H670 0.950 . S
C666 C675 1.390 . S
C667 C666 1.387 . S
C667 C669 1.387 . S
H668 C675 0.950 . S
C669 C667 1.387 . S
C669 C671 1.390 . S
C669 H673 0.950 . S
H670 C666 0.950 . S
C671 C669 1.390 . S
C671 C672 1.387 . S
C671 H674 0.950 . S
C672 C671 1.387 . S
C672 C675 1.387 . S
H673 C669 0.950 . S
H674 C671 0.950 . S
C675 C666 1.390 . S
C675 H668 0.950 . S
C675 C672 1.387 . S
C676 C677 1.387 . S
C676 H680 0.950 . S
C676 C685 1.390 . S
C677 C676 1.387 . S
C677 C679 1.387 . S
H678 C685 0.950 . S
C679 C677 1.387 . S
C679 C681 1.390 . S
C679 H683 0.950 . S
H680 C676 0.950 . S
C681 C679 1.390 . S
C681 C682 1.387 . S
C681 H684 0.950 . S
C682 C681 1.387 . S
C682 C685 1.387 . S
H683 C679 0.950 . S
H684 C681 0.950 . S
C685 C676 1.390 . S
C685 H678 0.950 . S
C685 C682 1.387 . S
C686 C687 1.387 . S
C686 H690 0.950 . S
C686 C695 1.390 . S
C687 C686 1.387 . S
C687 C689 1.387 . S
H688 C695 0.950 . S
C689 C687 1.387 . S
C689 C691 1.390 . S
C689 H693 0.950 . S
H690 C686 0.950 . S
C691 C689 1.390 . S
C691 C692 1.387 . S
C691 H694 0.950 . S
C692 C691 1.387 . S
C692 C695 1.387 . S
H693 C689 0.950 . S
H694 C691 0.950 . S
C695 C686 1.390 . S
C695 H688 0.950 . S
C695 C692 1.387 . S
C696 C697 1.387 . S
C696 H700 0.950 . S
C696 C705 1.390 . S
C697 C696 1.387 . S
C697 C699 1.387 . S
H698 C705 0.950 1_655 S
C699 C697 1.387 . S
C699 C701 1.390 . S
C699 H703 0.950 . S
H700 C696 0.950 . S
C701 C699 1.390 . S
C701 C702 1.387 . S
C701 H704 0.950 . S
C702 C701 1.387 . S
C702 C705 1.387 . S
H703 C699 0.950 . S
H704 C701 0.950 . S
C705 C696 1.390 . S
C705 H698 0.950 1_455 S
C705 C702 1.387 . S
C706 C707 1.387 . S
C706 H710 0.950 . S
C706 C715 1.390 . S
C707 C706 1.387 . S
C707 C709 1.387 . S
H708 C715 0.950 . S
C709 C707 1.387 . S
C709 C711 1.390 . S
C709 H713 0.950 . S
H710 C706 0.950 . S
C711 C709 1.390 . S
C711 C712 1.387 . S
C711 H714 0.950 . S
C712 C711 1.387 . S
C712 C715 1.387 . S
H713 C709 0.950 . S
H714 C711 0.950 . S
C715 C706 1.390 . S
C715 H708 0.950 . S
C715 C712 1.387 . S
C716 C717 1.387 . S
C716 H720 0.950 . S
C716 C725 1.390 . S
C717 C716 1.387 . S
C717 C719 1.387 . S
H718 C725 0.950 . S
C719 C717 1.387 . S
C719 C721 1.390 . S
C719 H723 0.950 . S
H720 C716 0.950 . S
C721 C719 1.390 . S
C721 C722 1.387 . S
C721 H724 0.950 . S
C722 C721 1.387 . S
C722 C725 1.387 . S
H723 C719 0.950 . S
H724 C721 0.950 . S
C725 C716 1.390 . S
C725 H718 0.950 . S
C725 C722 1.387 . S
C726 C727 1.387 . S
C726 H730 0.950 . S
C726 C735 1.390 . S
C727 C726 1.387 . S
C727 C729 1.387 . S
H728 C735 0.950 . S
C729 C727 1.387 . S
C729 C731 1.390 . S
C729 H733 0.950 . S
H730 C726 0.950 . S
C731 C729 1.390 . S
C731 C732 1.387 . S
C731 H734 0.950 . S
C732 C731 1.387 . S
C732 C735 1.387 . S
H733 C729 0.950 . S
H734 C731 0.950 . S
C735 C726 1.390 . S
C735 H728 0.950 . S
C735 C732 1.387 . S
C736 C737 1.387 . S
C736 H740 0.950 . S
C736 C745 1.390 . S
C737 C736 1.387 . S
C737 C739 1.387 . S
H738 C745 0.950 . S
C739 C737 1.387 . S
C739 C741 1.390 . S
C739 H743 0.950 . S
H740 C736 0.950 . S
C741 C739 1.390 . S
C741 C742 1.387 . S
C741 H744 0.950 . S
C742 C741 1.387 . S
C742 C745 1.387 . S
H743 C739 0.950 . S
H744 C741 0.950 . S
C745 C736 1.390 . S
C745 H738 0.950 . S
C745 C742 1.387 . S
C746 C747 1.387 . S
C746 H750 0.950 . S
C746 C755 1.390 . S
C747 C746 1.387 . S
C747 C749 1.387 . S
H748 C755 0.950 . S
C749 C747 1.387 . S
C749 C751 1.390 . S
C749 H753 0.950 . S
H750 C746 0.950 . S
C751 C749 1.390 . S
C751 C752 1.387 . S
C751 H754 0.950 . S
C752 C751 1.387 . S
C752 C755 1.387 . S
H753 C749 0.950 . S
H754 C751 0.950 . S
C755 C746 1.390 . S
C755 H748 0.950 . S
C755 C752 1.387 . S
C756 C757 1.387 . S
C756 H760 0.950 . S
C756 C765 1.390 . S
C757 C756 1.387 . S
C757 C759 1.387 . S
H758 C765 0.950 . S
C759 C757 1.387 . S
C759 C761 1.390 . S
C759 H763 0.950 . S
H760 C756 0.950 . S
C761 C759 1.390 . S
C761 C762 1.387 . S
C761 H764 0.950 . S
C762 C761 1.387 . S
C762 C765 1.387 . S
H763 C759 0.950 . S
H764 C761 0.950 . S
C765 C756 1.390 . S
C765 H758 0.950 . S
C765 C762 1.387 . S
C766 C767 1.387 . S
C766 H770 0.950 . S
C766 C775 1.390 . S
C767 C766 1.387 . S
C767 C769 1.387 . S
H768 C775 0.950 . S
C769 C767 1.387 . S
C769 C771 1.390 . S
C769 H773 0.950 . S
H770 C766 0.950 . S
C771 C769 1.390 . S
C771 C772 1.387 . S
C771 H774 0.950 . S
C772 C771 1.387 . S
C772 C775 1.387 . S
H773 C769 0.950 . S
H774 C771 0.950 . S
C775 C766 1.390 . S
C775 H768 0.950 . S
C775 C772 1.387 . S
C776 C777 1.387 . S
C776 H780 0.950 . S
C776 C785 1.390 . S
C777 C776 1.387 . S
C777 C779 1.387 . S
H778 C785 0.950 . S
C779 C777 1.387 . S
C779 C781 1.390 . S
C779 H783 0.950 . S
H780 C776 0.950 . S
C781 C779 1.390 . S
C781 C782 1.387 . S
C781 H784 0.950 . S
C782 C781 1.387 . S
C782 C785 1.387 . S
H783 C779 0.950 . S
H784 C781 0.950 . S
C785 C776 1.390 . S
C785 H778 0.950 . S
C785 C782 1.387 . S
C786 C787 1.387 . S
C786 H790 0.950 . S
C786 C795 1.390 . S
C787 C786 1.387 . S
C787 C789 1.387 . S
H788 C795 0.950 . S
C789 C787 1.387 . S
C789 C791 1.390 . S
C789 H793 0.950 . S
H790 C786 0.950 . S
C791 C789 1.390 . S
C791 C792 1.387 . S
C791 H794 0.950 . S
C792 C791 1.387 . S
C792 C795 1.387 . S
H793 C789 0.950 . S
H794 C791 0.950 . S
C795 C786 1.390 . S
C795 H788 0.950 . S
C795 C792 1.387 . S
C796 C797 1.387 . S
C796 H800 0.950 . S
C796 C805 1.390 . S
C797 C796 1.387 . S
C797 C799 1.387 . S
H798 C805 0.950 . S
C799 C797 1.387 . S
C799 C801 1.390 . S
C799 H803 0.950 . S
H800 C796 0.950 . S
C801 C799 1.390 . S
C801 C802 1.387 . S
C801 H804 0.950 . S
C802 C801 1.387 . S
C802 C805 1.387 . S
H803 C799 0.950 . S
H804 C801 0.950 . S
C805 C796 1.390 . S
C805 H798 0.950 . S
C805 C802 1.387 . S
C806 C807 1.387 . S
C806 H810 0.950 . S
C806 C815 1.390 . S
C807 C806 1.387 . S
C807 C809 1.387 . S
H808 C815 0.950 . S
C809 C807 1.387 . S
C809 C811 1.390 . S
C809 H813 0.950 . S
H810 C806 0.950 . S
C811 C809 1.390 . S
C811 C812 1.387 . S
C811 H814 0.950 . S
C812 C811 1.387 . S
C812 C815 1.387 . S
H813 C809 0.950 . S
H814 C811 0.950 . S
C815 C806 1.390 . S
C815 H808 0.950 . S
C815 C812 1.387 . S
C816 C817 1.387 . S
C816 H820 0.950 . S
C816 C825 1.390 . S
C817 C816 1.387 . S
C817 C819 1.387 . S
H818 C825 0.950 . S
C819 C817 1.387 . S
C819 C821 1.390 . S
C819 H823 0.950 . S
H820 C816 0.950 . S
C821 C819 1.390 . S
C821 C822 1.387 . S
C821 H824 0.950 . S
C822 C821 1.387 . S
C822 C825 1.387 . S
H823 C819 0.950 . S
H824 C821 0.950 . S
C825 C816 1.390 . S
C825 H818 0.950 . S
C825 C822 1.387 . S
C826 C827 1.387 . S
C826 H830 0.950 . S
C826 C835 1.390 . S
C827 C826 1.387 . S
C827 C829 1.387 . S
H828 C835 0.950 . S
C829 C827 1.387 . S
C829 C831 1.390 . S
C829 H833 0.950 . S
H830 C826 0.950 . S
C831 C829 1.390 . S
C831 C832 1.387 . S
C831 H834 0.950 . S
C832 C831 1.387 . S
C832 C835 1.387 . S
H833 C829 0.950 . S
H834 C831 0.950 . S
C835 C826 1.390 . S
C835 H828 0.950 . S
C835 C832 1.387 . S
C836 C837 1.387 . S
C836 H840 0.950 . S
C836 C845 1.390 . S
C837 C836 1.387 . S
C837 C839 1.387 . S
H838 C845 0.950 . S
C839 C837 1.387 . S
C839 C841 1.390 . S
C839 H843 0.950 . S
H840 C836 0.950 . S
C841 C839 1.390 . S
C841 C842 1.387 . S
C841 H844 0.950 . S
C842 C841 1.387 . S
C842 C845 1.387 . S
H843 C839 0.950 . S
H844 C841 0.950 . S
C845 C836 1.390 . S
C845 H838 0.950 . S
C845 C842 1.387 . S
C846 C847 1.387 . S
C846 H850 0.950 . S
C846 C855 1.390 . S
C847 C846 1.387 . S
C847 C849 1.387 . S
H848 C855 0.950 . S
C849 C847 1.387 . S
C849 C851 1.390 . S
C849 H853 0.950 . S
H850 C846 0.950 . S
C851 C849 1.390 . S
C851 C852 1.387 . S
C851 H854 0.950 . S
C852 C851 1.387 . S
C852 C855 1.387 . S
H853 C849 0.950 . S
H854 C851 0.950 . S
C855 C846 1.390 . S
C855 H848 0.950 . S
C855 C852 1.387 . S
C856 C857 1.387 . S
C856 H860 0.950 . S
C856 C865 1.390 . S
C857 C856 1.387 . S
C857 C859 1.387 . S
H858 C865 0.950 . S
C859 C857 1.387 . S
C859 C861 1.390 . S
C859 H863 0.950 . S
H860 C856 0.950 . S
C861 C859 1.390 . S
C861 C862 1.387 . S
C861 H864 0.950 . S
C862 C861 1.387 . S
C862 C865 1.387 . S
H863 C859 0.950 . S
H864 C861 0.950 . S
C865 C856 1.390 . S
C865 H858 0.950 . S
C865 C862 1.387 . S
C866 C867 1.387 . S
C866 H870 0.950 . S
C866 C875 1.390 . S
C867 C866 1.387 . S
C867 C869 1.387 . S
H868 C875 0.950 . S
C869 C867 1.387 . S
C869 C871 1.390 . S
C869 H873 0.950 . S
H870 C866 0.950 . S
C871 C869 1.390 . S
C871 C872 1.387 . S
C871 H874 0.950 . S
C872 C871 1.387 . S
C872 C875 1.387 . S
H873 C869 0.950 . S
H874 C871 0.950 . S
C875 C866 1.390 . S
C875 H868 0.950 . S
C875 C872 1.387 . S
C876 C877 1.387 . S
C876 H880 0.950 . S
C876 C885 1.390 . S
C877 C876 1.387 . S
C877 C879 1.387 1_554 S
H878 C885 0.950 . S
C879 C877 1.387 1_556 S
C879 C881 1.390 . S
C879 H883 0.950 1_455 S
H880 C876 0.950 . S
C881 C879 1.390 . S
C881 C882 1.387 . S
C881 H884 0.950 . S
C882 C881 1.387 . S
C882 C885 1.387 1_556 S
H883 C879 0.950 1_655 S
H884 C881 0.950 . S
C885 C876 1.390 . S
C885 H878 0.950 . S
C885 C882 1.387 1_554 S
C886 C887 1.387 1_554 S
C886 H890 0.950 . S
C886 C895 1.390 . S
C887 C886 1.387 1_556 S
C887 C889 1.387 . S
H888 C895 0.950 . S
C889 C887 1.387 . S
C889 C891 1.390 . S
C889 H893 0.950 . S
H890 C886 0.950 . S
C891 C889 1.390 . S
C891 C892 1.387 1_556 S
C891 H894 0.950 . S
C892 C891 1.387 1_554 S
C892 C895 1.387 . S
H893 C889 0.950 . S
H894 C891 0.950 . S
C895 C886 1.390 . S
C895 H888 0.950 . S
C895 C892 1.387 . S
C896 C897 1.387 1_556 S
C896 H900 0.950 . S
C896 C905 1.390 . S
C897 C896 1.387 1_554 S
C897 C899 1.387 . S
H898 C905 0.950 . S
C899 C897 1.387 . S
C899 C901 1.390 . S
C899 H903 0.950 . S
H900 C896 0.950 . S
C901 C899 1.390 . S
C901 C902 1.387 1_554 S
C901 H904 0.950 1_545 S
C902 C901 1.387 1_556 S
C902 C905 1.387 . S
H903 C899 0.950 . S
H904 C901 0.950 1_565 S
C905 C896 1.390 . S
C905 H898 0.950 . S
C905 C902 1.387 . S
C906 C907 1.387 . S
C906 H910 0.950 . S
C906 C915 1.390 . S
C907 C906 1.387 . S
C907 C909 1.387 . S
H908 C915 0.950 . S
C909 C907 1.387 . S
C909 C911 1.390 . S
C909 H913 0.950 . S
H910 C906 0.950 . S
C911 C909 1.390 . S
C911 C912 1.387 . S
C911 H914 0.950 . S
C912 C911 1.387 . S
C912 C915 1.387 . S
H913 C909 0.950 . S
H914 C911 0.950 . S
C915 C906 1.390 . S
C915 H908 0.950 . S
C915 C912 1.387 . S
C916 C917 1.387 . S
C916 H920 0.950 . S
C916 C925 1.390 . S
C917 C916 1.387 . S
C917 C919 1.387 . S
H918 C925 0.950 . S
C919 C917 1.387 . S
C919 C921 1.390 . S
C919 H923 0.950 . S
H920 C916 0.950 . S
C921 C919 1.390 . S
C921 C922 1.387 . S
C921 H924 0.950 . S
C922 C921 1.387 . S
C922 C925 1.387 . S
H923 C919 0.950 . S
H924 C921 0.950 . S
C925 C916 1.390 . S
C925 H918 0.950 . S
C925 C922 1.387 . S
C926 C927 1.387 . S
C926 H930 0.950 . S
C926 C935 1.390 . S
C927 C926 1.387 . S
C927 C929 1.387 . S
H928 C935 0.950 . S
C929 C927 1.387 . S
C929 C931 1.390 . S
C929 H933 0.950 . S
H930 C926 0.950 . S
C931 C929 1.390 . S
C931 C932 1.387 . S
C931 H934 0.950 . S
C932 C931 1.387 . S
C932 C935 1.387 . S
H933 C929 0.950 . S
H934 C931 0.950 . S
C935 C926 1.390 . S
C935 H928 0.950 . S
C935 C932 1.387 . S
C397 C53 1.489 . S
C402 C6 1.486 . S
C407 C9 1.489 . S
C412 C27 1.488 1_545 S
C417 C29 1.485 1_455 S
C422 C50 1.487 . S
C427 C75 1.487 . S
C432 C115 1.489 . S
C437 C72 1.485 1_545 S
C442 C95 1.485 . S
C447 C93 1.487 . S
C452 C117 1.485 1_455 S
C457 C185 1.485 . S
C462 C138 1.485 . S
C467 C160 1.488 . S
C472 C141 1.488 . S
C477 C163 1.489 . S
C482 C182 1.486 . S
C487 C205 1.486 . S
C492 C247 1.484 . S
C497 C203 1.488 . S
C502 C227 1.489 . S
C507 C249 1.489 . S
C512 C225 1.487 . S
C517 C315 1.487 . S
C522 C270 1.484 . S
C527 C273 1.488 . S
C532 C291 1.488 . S
C537 C293 1.489 . S
C542 C313 1.486 . S
C547 C379 1.488 . S
C552 C339 1.488 . S
C557 C359 1.485 . S
C562 C336 1.485 . S
C567 C381 1.485 . S
C572 C357 1.485 . S
C577 C5 1.763 . S
C582 C295 1.766 . S
C587 C317 1.765 . S
C592 C26 1.764 . S
C597 C49 1.765 1_565 S
C602 C272 1.764 . S
C607 C159 1.764 . S
C612 C52 1.765 . S
C617 C8 1.764 1_655 S
C622 C181 1.766 . S
C627 C137 1.765 . S
C632 C31 1.765 . S
C637 C226 1.765 . S
C642 C73 1.765 1_655 S
C647 C96 1.763 . S
C652 C248 1.766 . S
C657 C204 1.764 . S
C662 C118 1.766 . S
C667 C116 1.766 1_565 S
C672 C360 1.763 . S
C677 C382 1.763 . S
C682 C70 1.766 . S
C687 C337 1.765 . S
C692 C94 1.765 . S
C697 C290 1.763 . S
C702 C184 1.766 1_455 S
C707 C312 1.763 . S
C712 C140 1.765 . S
C717 C162 1.765 . S
C722 C269 1.764 1_545 S
C727 C206 1.765 . S
C732 C358 1.765 1_545 S
C737 C380 1.764 . S
C742 C228 1.765 1_455 S
C747 C250 1.764 . S
C752 C334 1.765 . S
C757 C4 1.191 . S
C762 C338 1.191 . S
C767 C28 1.190 . S
C772 C361 1.190 . S
C777 C383 1.191 . S
C782 C48 1.191 . S
C787 C246 1.191 . S
C792 C51 1.191 . S
C797 C202 1.192 . S
C802 C7 1.192 . S
C807 C30 1.191 . S
C812 C224 1.191 . S
C817 C74 1.191 . S
C822 C136 1.191 . S
C827 C97 1.193 . S
C832 C158 1.193 . S
C837 C119 1.190 . S
C842 C180 1.190 . S
C847 C114 1.192 . S
C852 C316 1.192 . S
C857 C71 1.192 . S
C862 C271 1.192 . S
C867 C294 1.192 . S
C872 C92 1.192 . S
C877 C183 1.192 . S
C882 C378 1.192 . S
C887 C335 1.191 . S
C892 C139 1.191 . S
C897 C161 1.191 . S
C902 C356 1.191 . S
C907 C207 1.192 . S
C912 C268 1.192 . S
C917 C229 1.193 . S
C922 C292 1.193 . S
C927 C314 1.193 . S
C932 C251 1.193 . S
