# Generated by pormake.
# Topology vch, (7)-cn, num edge types: 1
# Building blocks:
#     Node 0, Type 0, BuildingBlock: HICVOG_clean_sbu_0, # of connection points: 7
#     Node 1, Type 0, BuildingBlock: HICVOG_clean_sbu_0, # of connection points: 7
#     Node 2, Type 0, BuildingBlock: HICVOG_clean_sbu_0, # of connection points: 7
#     Node 3, Type 0, BuildingBlock: HICVOG_clean_sbu_0, # of connection points: 7
#     Node 4, Type 0, BuildingBlock: HICVOG_clean_sbu_0, # of connection points: 7
#     Node 5, Type 0, BuildingBlock: HICVOG_clean_sbu_0, # of connection points: 7
#     Node 6, Type 0, BuildingBlock: HICVOG_clean_sbu_0, # of connection points: 7
#     Node 7, Type 0, BuildingBlock: HICVOG_clean_sbu_0, # of connection points: 7
#     Node 8, Type 0, BuildingBlock: HICVOG_clean_sbu_0, # of connection points: 7
#     Node 9, Type 0, BuildingBlock: HICVOG_clean_sbu_0, # of connection points: 7
#     Node 10, Type 0, BuildingBlock: HICVOG_clean_sbu_0, # of connection points: 7
#     Node 11, Type 0, BuildingBlock: HICVOG_clean_sbu_0, # of connection points: 7
#     Node 12, Type 0, BuildingBlock: HICVOG_clean_sbu_0, # of connection points: 7
#     Node 13, Type 0, BuildingBlock: HICVOG_clean_sbu_0, # of connection points: 7
#     Node 14, Type 0, BuildingBlock: HICVOG_clean_sbu_0, # of connection points: 7
#     Node 15, Type 0, BuildingBlock: HICVOG_clean_sbu_0, # of connection points: 7
#     Edge 16, Type (0, 0), BuildingBlock: XUDNAN_clean_linker_2, # of connection points: 2
#     Edge 17, Type (0, 0), BuildingBlock: XUDNAN_clean_linker_2, # of connection points: 2
#     Edge 18, Type (0, 0), BuildingBlock: XUDNAN_clean_linker_2, # of connection points: 2
#     Edge 19, Type (0, 0), BuildingBlock: XUDNAN_clean_linker_2, # of connection points: 2
#     Edge 20, Type (0, 0), BuildingBlock: XUDNAN_clean_linker_2, # of connection points: 2
#     Edge 21, Type (0, 0), BuildingBlock: XUDNAN_clean_linker_2, # of connection points: 2
#     Edge 22, Type (0, 0), BuildingBlock: XUDNAN_clean_linker_2, # of connection points: 2
#     Edge 23, Type (0, 0), BuildingBlock: XUDNAN_clean_linker_2, # of connection points: 2
#     Edge 24, Type (0, 0), BuildingBlock: XUDNAN_clean_linker_2, # of connection points: 2
#     Edge 25, Type (0, 0), BuildingBlock: XUDNAN_clean_linker_2, # of connection points: 2
#     Edge 26, Type (0, 0), BuildingBlock: XUDNAN_clean_linker_2, # of connection points: 2
#     Edge 27, Type (0, 0), BuildingBlock: XUDNAN_clean_linker_2, # of connection points: 2
#     Edge 28, Type (0, 0), BuildingBlock: XUDNAN_clean_linker_2, # of connection points: 2
#     Edge 29, Type (0, 0), BuildingBlock: XUDNAN_clean_linker_2, # of connection points: 2
#     Edge 30, Type (0, 0), BuildingBlock: XUDNAN_clean_linker_2, # of connection points: 2
#     Edge 31, Type (0, 0), BuildingBlock: XUDNAN_clean_linker_2, # of connection points: 2
#     Edge 32, Type (0, 0), BuildingBlock: XUDNAN_clean_linker_2, # of connection points: 2
#     Edge 33, Type (0, 0), BuildingBlock: XUDNAN_clean_linker_2, # of connection points: 2
#     Edge 34, Type (0, 0), BuildingBlock: XUDNAN_clean_linker_2, # of connection points: 2
#     Edge 35, Type (0, 0), BuildingBlock: XUDNAN_clean_linker_2, # of connection points: 2
#     Edge 36, Type (0, 0), BuildingBlock: XUDNAN_clean_linker_2, # of connection points: 2
#     Edge 37, Type (0, 0), BuildingBlock: XUDNAN_clean_linker_2, # of connection points: 2
#     Edge 38, Type (0, 0), BuildingBlock: XUDNAN_clean_linker_2, # of connection points: 2
#     Edge 39, Type (0, 0), BuildingBlock: XUDNAN_clean_linker_2, # of connection points: 2
#     Edge 40, Type (0, 0), BuildingBlock: XUDNAN_clean_linker_2, # of connection points: 2
#     Edge 41, Type (0, 0), BuildingBlock: XUDNAN_clean_linker_2, # of connection points: 2
#     Edge 42, Type (0, 0), BuildingBlock: XUDNAN_clean_linker_2, # of connection points: 2
#     Edge 43, Type (0, 0), BuildingBlock: XUDNAN_clean_linker_2, # of connection points: 2
#     Edge 44, Type (0, 0), BuildingBlock: XUDNAN_clean_linker_2, # of connection points: 2
#     Edge 45, Type (0, 0), BuildingBlock: XUDNAN_clean_linker_2, # of connection points: 2
#     Edge 46, Type (0, 0), BuildingBlock: XUDNAN_clean_linker_2, # of connection points: 2
#     Edge 47, Type (0, 0), BuildingBlock: XUDNAN_clean_linker_2, # of connection points: 2
#     Edge 48, Type (0, 0), BuildingBlock: XUDNAN_clean_linker_2, # of connection points: 2
#     Edge 49, Type (0, 0), BuildingBlock: XUDNAN_clean_linker_2, # of connection points: 2
#     Edge 50, Type (0, 0), BuildingBlock: XUDNAN_clean_linker_2, # of connection points: 2
#     Edge 51, Type (0, 0), BuildingBlock: XUDNAN_clean_linker_2, # of connection points: 2
#     Edge 52, Type (0, 0), BuildingBlock: XUDNAN_clean_linker_2, # of connection points: 2
#     Edge 53, Type (0, 0), BuildingBlock: XUDNAN_clean_linker_2, # of connection points: 2
#     Edge 54, Type (0, 0), BuildingBlock: XUDNAN_clean_linker_2, # of connection points: 2
#     Edge 55, Type (0, 0), BuildingBlock: XUDNAN_clean_linker_2, # of connection points: 2
#     Edge 56, Type (0, 0), BuildingBlock: XUDNAN_clean_linker_2, # of connection points: 2
#     Edge 57, Type (0, 0), BuildingBlock: XUDNAN_clean_linker_2, # of connection points: 2
#     Edge 58, Type (0, 0), BuildingBlock: XUDNAN_clean_linker_2, # of connection points: 2
#     Edge 59, Type (0, 0), BuildingBlock: XUDNAN_clean_linker_2, # of connection points: 2
#     Edge 60, Type (0, 0), BuildingBlock: XUDNAN_clean_linker_2, # of connection points: 2
#     Edge 61, Type (0, 0), BuildingBlock: XUDNAN_clean_linker_2, # of connection points: 2
#     Edge 62, Type (0, 0), BuildingBlock: XUDNAN_clean_linker_2, # of connection points: 2
#     Edge 63, Type (0, 0), BuildingBlock: XUDNAN_clean_linker_2, # of connection points: 2
#     Edge 64, Type (0, 0), BuildingBlock: XUDNAN_clean_linker_2, # of connection points: 2
#     Edge 65, Type (0, 0), BuildingBlock: XUDNAN_clean_linker_2, # of connection points: 2
#     Edge 66, Type (0, 0), BuildingBlock: XUDNAN_clean_linker_2, # of connection points: 2
#     Edge 67, Type (0, 0), BuildingBlock: XUDNAN_clean_linker_2, # of connection points: 2
#     Edge 68, Type (0, 0), BuildingBlock: XUDNAN_clean_linker_2, # of connection points: 2
#     Edge 69, Type (0, 0), BuildingBlock: XUDNAN_clean_linker_2, # of connection points: 2
#     Edge 70, Type (0, 0), BuildingBlock: XUDNAN_clean_linker_2, # of connection points: 2
#     Edge 71, Type (0, 0), BuildingBlock: XUDNAN_clean_linker_2, # of connection points: 2
# Relax obj value: 0.109
# Max RMSD: 0.194
# Mean RMSD: 0.194
data_MOF--net-vch--node1-HICVOG_clean_sbu_0--edge1-XUDNAN_clean_linker_2
_symmetry_space_group_name_H-M    P1
_symmetry_Int_Tables_number       1
_symmetry_cell_setting            triclinic
loop_
_symmetry_equiv_pos_as_xyz
'x, y, z'
_cell_length_a     18.080232
_cell_length_b     78.469173
_cell_length_c     52.045788
_cell_angle_alpha  90.024543
_cell_angle_beta   90.006676
_cell_angle_gamma 90.05889
loop_
_atom_site_label
_atom_site_type_symbol
_atom_site_fract_x
_atom_site_fract_y
_atom_site_fract_z
_atom_type_partial_charge
Zn0 Zn 0.97823 0.14359 0.12671 0.0
C1 C 0.09227 0.11242 0.07923 0.0
N2 N 0.03166 0.11389 0.06458 0.0
C3 C 0.98553 0.12285 0.07946 0.0
N4 N 0.01623 0.12692 0.10228 0.0
N5 N 0.08312 0.12003 0.10227 0.0
C6 C 0.28981 0.12323 0.13095 0.0
O7 O 0.26234 0.1377 0.13931 0.0
O8 O 0.86436 0.14349 0.12358 0.0
Zn9 Zn 0.13377 0.11115 0.13189 0.0
N10 N 0.02219 0.1657 0.11756 0.0
C11 C 0.11449 0.1796 0.09238 0.0
C12 C 0.08116 0.16479 0.10132 0.0
C13 C 0.99691 0.18115 0.12598 0.0
N14 N 0.08852 0.19488 0.10025 0.0
C15 C 0.03105 0.19619 0.11696 0.0
O16 O 0.10332 0.12122 0.16627 0.0
C17 C 0.05279 0.13013 0.17686 0.0
O18 O 1.00372 0.13799 0.16387 0.0
H19 H 0.10187 0.15266 0.09489 0.0
H20 H 0.95021 0.18173 0.13896 0.0
C21 C 0.13036 0.07346 0.1275 0.0
C22 C 0.09208 0.0578 0.12955 0.0
C23 C 0.98706 0.07258 0.14558 0.0
C24 C 0.02477 0.08792 0.14345 0.0
N25 N 0.0954 0.08814 0.13454 0.0
N26 N 0.02137 0.05797 0.13857 0.0
H27 H 0.18599 0.07408 0.1199 0.0
C28 C 0.83445 0.12876 0.1238 0.0
O29 O 0.87721 0.11538 0.12674 0.0
O30 O 0.24619 0.11075 0.12678 0.0
H31 H 0.99768 0.0997 0.14861 0.0
H32 H 0.16039 0.17901 0.07913 0.0
H33 H 0.93076 0.07225 0.1526 0.0
Zn34 Zn 0.39527 0.89898 0.12781 0.0
C35 C 0.54941 0.87672 0.08355 0.0
N36 N 0.49716 0.8784 0.06542 0.0
C37 C 0.43808 0.8837 0.07864 0.0
N38 N 0.45286 0.88548 0.10377 0.0
N39 N 0.52233 0.88063 0.10704 0.0
C40 C 0.71094 0.87511 0.13814 0.0
O41 O 0.68682 0.8906 0.14261 0.0
O42 O 0.28429 0.89292 0.12553 0.0
Zn43 Zn 0.55411 0.86905 0.13788 0.0
N44 N 0.41086 0.92244 0.11743 0.0
C45 C 0.49924 0.943 0.10373 0.0
C46 C 0.48138 0.92638 0.11064 0.0
C47 C 0.35697 0.93456 0.11769 0.0
N48 N 0.44592 0.95513 0.10415 0.0
C49 C 0.37489 0.95149 0.1109 0.0
O50 O 0.53711 0.88288 0.17004 0.0
C51 C 0.48638 0.89251 0.1789 0.0
O52 O 0.43295 0.89778 0.16492 0.0
H53 H 0.52361 0.91668 0.11089 0.0
H54 H 0.30177 0.9311 0.12378 0.0
C55 C 0.50505 0.83228 0.14215 0.0
C56 C 0.44652 0.82035 0.14454 0.0
C57 C 0.35996 0.84307 0.14375 0.0
C58 C 0.41732 0.85472 0.14212 0.0
N59 N 0.48854 0.84929 0.14108 0.0
N60 N 0.37585 0.82629 0.14505 0.0
H61 H 0.56218 0.82821 0.14166 0.0
C62 C 0.25168 0.8849 0.14356 0.0
O63 O 0.28932 0.88077 0.16422 0.0
O64 O 0.6642 0.86302 0.13578 0.0
H65 H 0.40524 0.86813 0.14167 0.0
H66 H 0.55523 0.94629 0.09832 0.0
H67 H 0.30315 0.84728 0.14412 0.0
Zn68 Zn 0.64743 0.90403 0.41159 0.0
C69 C 0.52859 0.8798 0.46531 0.0
N70 N 0.59175 0.88029 0.47876 0.0
C71 C 0.64077 0.8862 0.46161 0.0
N72 N 0.60933 0.88957 0.43874 0.0
N73 N 0.53915 0.88513 0.44095 0.0
C74 C 0.34197 0.88885 0.41939 0.0
O75 O 0.38006 0.90244 0.41299 0.0
O76 O 0.75899 0.9051 0.415 0.0
Zn77 Zn 0.48541 0.87599 0.41252 0.0
N78 N 0.6065 0.9266 0.41736 0.0
C79 C 0.49591 0.9421 0.4256 0.0
C80 C 0.53337 0.92673 0.42327 0.0
C81 C 0.64428 0.94145 0.41358 0.0
N82 N 0.53283 0.95686 0.42135 0.0
C83 C 0.6061 0.95706 0.41537 0.0
O84 O 0.4974 0.88946 0.37966 0.0
C85 C 0.54969 0.89547 0.36594 0.0
O86 O 0.61453 0.89815 0.37488 0.0
H87 H 0.50398 0.91492 0.42542 0.0
H88 H 0.70207 0.94107 0.40818 0.0
C89 C 0.50176 0.83841 0.41164 0.0
C90 C 0.54515 0.82358 0.40782 0.0
C91 C 0.64431 0.84108 0.39332 0.0
C92 C 0.6017 0.85552 0.39733 0.0
N93 N 0.53142 0.85399 0.40625 0.0
N94 N 0.61523 0.82559 0.39866 0.0
H95 H 0.4458 0.8378 0.41881 0.0
C96 C 0.80115 0.89217 0.41326 0.0
O97 O 0.77242 0.87727 0.40746 0.0
O98 O 0.37507 0.87456 0.42055 0.0
H99 H 0.62494 0.86796 0.39379 0.0
H100 H 0.43756 0.94231 0.43019 0.0
H101 H 0.70039 0.84215 0.38625 0.0
Zn102 Zn 0.01717 0.15116 0.40811 0.0
C103 C 0.88337 0.13493 0.46245 0.0
N104 N 0.93777 0.1405 0.47774 0.0
C105 C 0.99305 0.14327 0.46118 0.0
N106 N 0.97339 0.1395 0.43684 0.0
N107 N 0.90406 0.1341 0.43759 0.0
C108 C 0.70325 0.13387 0.41433 0.0
O109 O 0.73157 0.14925 0.41263 0.0
O110 O 0.12956 0.15183 0.41233 0.0
Zn111 Zn 0.85838 0.12025 0.4113 0.0
N112 N 0.96907 0.17309 0.40801 0.0
C113 C 0.85126 0.18604 0.403 0.0
C114 C 0.8959 0.17168 0.40252 0.0
C115 C 1.00012 0.18842 0.41393 0.0
N116 N 0.88171 0.20132 0.40888 0.0
C117 C 0.95499 0.20314 0.41441 0.0
O118 O 0.89346 0.12454 0.37453 0.0
C119 C 0.94567 0.13188 0.36225 0.0
O120 O 0.99402 0.14105 0.37341 0.0
H121 H 0.87247 0.15936 0.39803 0.0
H122 H 0.05868 0.18894 0.41793 0.0
C123 C 0.8419 0.08379 0.4141 0.0
C124 C 0.86674 0.06693 0.41795 0.0
C125 C 0.9837 0.07785 0.43094 0.0
C126 C 0.95915 0.09441 0.42657 0.0
N127 N 0.88882 0.09706 0.41835 0.0
N128 N 0.93727 0.06458 0.42648 0.0
H129 H 0.78619 0.08654 0.40789 0.0
C130 C 0.15896 0.13739 0.4078 0.0
O131 O 0.11567 0.12478 0.40067 0.0
O132 O 0.746 0.12098 0.41391 0.0
H133 H 0.99603 0.10506 0.42951 0.0
H134 H 0.79282 0.18509 0.39877 0.0
H135 H 0.0395 0.07554 0.43758 0.0
Zn136 Zn 0.86876 0.90832 0.9156 0.0
C137 C 0.03701 0.90272 0.96301 0.0
N138 N 0.99232 0.91128 0.97897 0.0
C139 C 0.92732 0.91093 0.96665 0.0
N140 N 0.93288 0.90273 0.94398 0.0
N141 N 1.00141 0.89697 0.94197 0.0
C142 C 0.18837 0.88528 0.91782 0.0
O143 O 0.16508 0.90028 0.91006 0.0
O144 O 0.75966 0.90282 0.9227 0.0
Zn145 Zn 0.03073 0.87861 0.91873 0.0
N146 N 0.88277 0.93274 0.9108 0.0
C147 C 0.96519 0.95332 0.89325 0.0
C148 C 0.94632 0.93646 0.89803 0.0
C149 C 0.83744 0.94539 0.91954 0.0
N150 N 0.92024 0.96592 0.90175 0.0
C151 C 0.85675 0.96262 0.91493 0.0
O152 O 0.00999 0.88445 0.88153 0.0
C153 C 0.95563 0.8911 0.86957 0.0
O154 O 0.90265 0.89852 0.88131 0.0
H155 H 0.98239 0.92632 0.89169 0.0
H156 H 0.78729 0.94201 0.92965 0.0
C157 C 0.9968 0.84189 0.9286 0.0
C158 C 0.94722 0.82873 0.93565 0.0
C159 C 0.85052 0.84905 0.93874 0.0
C160 C 0.89934 0.86193 0.93181 0.0
N161 N 0.9716 0.85831 0.92724 0.0
N162 N 0.87556 0.83285 0.94064 0.0
H163 H 0.05436 0.83916 0.92467 0.0
C164 C 0.7301 0.88939 0.91351 0.0
O165 O 0.77025 0.87921 0.89915 0.0
O166 O 0.141 0.87368 0.92262 0.0
H167 H 0.87961 0.87478 0.92997 0.0
H168 H 0.01546 0.95642 0.88298 0.0
H169 H 0.793 0.85189 0.94254 0.0
Zn170 Zn 0.61291 0.12338 0.91691 0.0
C171 C 0.471 0.14779 0.9623 0.0
N172 N 0.52996 0.15065 0.9774 0.0
C173 C 0.58692 0.14579 0.96264 0.0
N174 N 0.56455 0.13986 0.93963 0.0
N175 N 0.49226 0.14217 0.93892 0.0
C176 C 0.2952 0.14532 0.90858 0.0
O177 O 0.3195 0.13076 0.89941 0.0
O178 O 0.72521 0.12663 0.9179 0.0
Zn179 Zn 0.45217 0.15317 0.90911 0.0
N180 N 0.58504 0.10077 0.9295 0.0
C181 C 0.48147 0.08457 0.94369 0.0
C182 C 0.51131 0.09958 0.93412 0.0
C183 C 0.63034 0.08701 0.93287 0.0
N184 N 0.52618 0.07097 0.94736 0.0
C185 C 0.59984 0.07153 0.94198 0.0
O186 O 0.47072 0.13982 0.87661 0.0
C187 C 0.51884 0.12985 0.8669 0.0
O188 O 0.57363 0.12407 0.87977 0.0
H189 H 0.47578 0.11021 0.93001 0.0
H190 H 0.6887 0.0881 0.92855 0.0
C191 C 0.48344 0.1903 0.91328 0.0
C192 C 0.52857 0.20477 0.90861 0.0
C193 C 0.61462 0.18698 0.88686 0.0
C194 C 0.57013 0.17287 0.8915 0.0
N195 N 0.50556 0.17469 0.90454 0.0
N196 N 0.59288 0.20247 0.89544 0.0
H197 H 0.43128 0.19135 0.92329 0.0
C198 C 0.75124 0.14171 0.91794 0.0
O199 O 0.70509 0.15459 0.9167 0.0
O200 O 0.34166 0.15703 0.91384 0.0
H201 H 0.5872 0.16045 0.88481 0.0
H202 H 0.42293 0.08362 0.94777 0.0
H203 H 0.66619 0.18564 0.87652 0.0
Zn204 Zn 0.36095 0.122 0.62906 0.0
C205 C 0.50122 0.14889 0.58491 0.0
N206 N 0.44414 0.14899 0.56846 0.0
C207 C 0.38939 0.14194 0.58206 0.0
N208 N 0.41162 0.13738 0.60576 0.0
N209 N 0.48126 0.14231 0.60788 0.0
C210 C 0.66438 0.14592 0.64199 0.0
O211 O 0.63214 0.1319 0.65007 0.0
O212 O 0.25203 0.12869 0.62747 0.0
Zn213 Zn 0.51289 0.15384 0.63841 0.0
N214 N 0.37668 0.09895 0.61576 0.0
C215 C 0.44277 0.08145 0.5862 0.0
C216 C 0.42977 0.09727 0.59739 0.0
C217 C 0.33882 0.08505 0.62446 0.0
N218 N 0.40385 0.06772 0.59434 0.0
C219 C 0.3527 0.06898 0.61339 0.0
O220 O 0.49376 0.14041 0.67062 0.0
C221 C 0.44996 0.12927 0.67981 0.0
O222 O 0.39935 0.12224 0.66632 0.0
H223 H 0.46157 0.10815 0.59116 0.0
H224 H 0.2982 0.08647 0.63956 0.0
C225 C 0.46529 0.19063 0.64118 0.0
C226 C 0.40771 0.20272 0.64423 0.0
C227 C 0.32084 0.18004 0.6476 0.0
C228 C 0.37743 0.16828 0.64507 0.0
N229 N 0.44829 0.17364 0.64169 0.0
N230 N 0.33729 0.19685 0.64719 0.0
H231 H 0.52231 0.19453 0.63899 0.0
C232 C 0.20021 0.12315 0.64174 0.0
O233 O 0.21546 0.11181 0.65952 0.0
O234 O 0.62385 0.15854 0.63568 0.0
H235 H 0.36496 0.15484 0.6459 0.0
H236 H 0.48382 0.08007 0.57122 0.0
H237 H 0.26423 0.17588 0.65011 0.0
Zn238 Zn 0.14882 0.90228 0.63869 0.0
C239 C 0.03091 0.87962 0.5829 0.0
N240 N 0.09425 0.88072 0.56969 0.0
C241 C 0.14272 0.88602 0.58748 0.0
N242 N 0.11079 0.88843 0.61055 0.0
N243 N 0.04063 0.88405 0.60771 0.0
C244 C 0.84586 0.88531 0.62818 0.0
O245 O 0.88567 0.8987 0.6344 0.0
O246 O 0.26154 0.90218 0.63693 0.0
Zn247 Zn 0.98854 0.87255 0.63443 0.0
N248 N 0.11569 0.92536 0.63134 0.0
C249 C 0.01725 0.94245 0.6153 0.0
C250 C 0.04526 0.92665 0.62247 0.0
C251 C 0.15868 0.93951 0.63442 0.0
N252 N 0.0603 0.9565 0.61786 0.0
C253 C 0.13016 0.95557 0.62748 0.0
O254 O 0.99855 0.88425 0.66842 0.0
C255 C 0.04465 0.89184 0.68295 0.0
O256 O 0.10768 0.89701 0.6749 0.0
H257 H 0.01114 0.91544 0.62097 0.0
H258 H 0.21442 0.93825 0.64177 0.0
C259 C 0.018 0.83519 0.63029 0.0
C260 C 0.06828 0.82148 0.63196 0.0
C261 C 0.15826 0.83997 0.6499 0.0
C262 C 0.10903 0.85348 0.64808 0.0
N263 N 0.04023 0.85097 0.63822 0.0
N264 N 0.13699 0.82436 0.64168 0.0
H265 H 0.96348 0.83345 0.6221 0.0
C266 C 0.30347 0.88914 0.63737 0.0
O267 O 0.27427 0.874 0.64097 0.0
O268 O 0.87793 0.8709 0.62652 0.0
H269 H 0.12622 0.86608 0.65389 0.0
H270 H 0.96158 0.94356 0.60787 0.0
H271 H 0.21331 0.84188 0.65753 0.0
Zn272 Zn 0.48545 0.64522 0.12679 0.0
C273 C 0.62826 0.62232 0.07997 0.0
N274 N 0.57316 0.62289 0.0627 0.0
C275 C 0.51568 0.62863 0.07646 0.0
N276 N 0.53441 0.63167 0.10108 0.0
N277 N 0.60425 0.62712 0.10345 0.0
C278 C 0.80417 0.62986 0.13716 0.0
O279 O 0.78001 0.64366 0.14871 0.0
O280 O 0.37518 0.64705 0.11908 0.0
Zn281 Zn 0.64652 0.61839 0.13487 0.0
N282 N 0.53694 0.66705 0.12832 0.0
C283 C 0.65571 0.68013 0.13047 0.0
C284 C 0.61172 0.6656 0.12977 0.0
C285 C 0.50387 0.68266 0.1287 0.0
N286 N 0.62312 0.69565 0.13082 0.0
C287 C 0.54827 0.69748 0.1303 0.0
O288 O 0.611 0.62815 0.16964 0.0
C289 C 0.54481 0.63067 0.17741 0.0
O290 O 0.49314 0.63492 0.16206 0.0
H291 H 0.63709 0.6532 0.13063 0.0
H292 H 0.44419 0.68346 0.12787 0.0
C293 C 0.65713 0.58169 0.12985 0.0
C294 C 0.62761 0.56505 0.12924 0.0
C295 C 0.50965 0.57625 0.14007 0.0
C296 C 0.53892 0.59265 0.14024 0.0
N297 N 0.61203 0.59505 0.13538 0.0
N298 N 0.55446 0.56289 0.13459 0.0
H299 H 0.71504 0.58409 0.12615 0.0
C300 C 0.34314 0.63283 0.11506 0.0
O301 O 0.38303 0.61884 0.1153 0.0
O302 O 0.75845 0.61819 0.13104 0.0
H303 H 0.50345 0.60342 0.14399 0.0
H304 H 0.71533 0.67908 0.13125 0.0
H305 H 0.45162 0.57415 0.14403 0.0
Zn306 Zn 0.86207 0.40261 0.13092 0.0
C307 C 0.01544 0.38982 0.07953 0.0
N308 N 0.97228 0.39911 0.06408 0.0
C309 C 0.9136 0.40224 0.07894 0.0
N310 N 0.92023 0.39507 0.10233 0.0
N311 N 0.98521 0.38724 0.10286 0.0
C312 C 0.17684 0.37997 0.12735 0.0
O313 O 0.15042 0.3951 0.13305 0.0
O314 O 0.74993 0.39942 0.12608 0.0
Zn315 Zn 0.01893 0.37065 0.12794 0.0
N316 N 0.89131 0.42619 0.13374 0.0
C317 C 0.99694 0.44343 0.14215 0.0
C318 C 0.96277 0.42758 0.14163 0.0
C319 C 0.85192 0.44016 0.12638 0.0
N320 N 0.95843 0.45732 0.13457 0.0
C321 C 0.88678 0.45623 0.12671 0.0
O322 O 0.99655 0.37722 0.16504 0.0
C323 C 0.94423 0.38485 0.17679 0.0
O324 O 0.89378 0.39293 0.16486 0.0
H325 H 0.99365 0.41629 0.1468 0.0
H326 H 0.79573 0.43869 0.11954 0.0
C327 C 0.98911 0.33348 0.12684 0.0
C328 C 0.9478 0.31913 0.11885 0.0
C329 C 0.86199 0.3374 0.09822 0.0
C330 C 0.90282 0.35148 0.10597 0.0
N331 N 0.96601 0.34941 0.11987 0.0
N332 N 0.88558 0.32162 0.10465 0.0
H333 H 0.03951 0.33199 0.13783 0.0
C334 C 0.72346 0.3845 0.12913 0.0
O335 O 0.76913 0.37202 0.13465 0.0
O336 O 0.13168 0.3676 0.1243 0.0
H337 H 0.8838 0.36398 0.10072 0.0
H338 H 0.05395 0.44467 0.14819 0.0
H339 H 0.812 0.33898 0.08704 0.0
Zn340 Zn 0.14664 0.40409 0.40536 0.0
C341 C 0.02873 0.38012 0.46099 0.0
N342 N 0.08398 0.38575 0.47578 0.0
C343 C 0.12908 0.3931 0.4587 0.0
N344 N 0.10326 0.39211 0.43446 0.0
N345 N 0.03898 0.38404 0.43605 0.0
C346 C 0.83041 0.38177 0.41364 0.0
O347 O 0.85548 0.39697 0.40763 0.0
O348 O 0.25952 0.40032 0.40532 0.0
Zn349 Zn 0.98635 0.37383 0.40828 0.0
N350 N 0.12373 0.42785 0.41162 0.0
C351 C 0.02812 0.44733 0.42233 0.0
C352 C 0.05213 0.43076 0.41813 0.0
C353 C 0.17284 0.44093 0.40901 0.0
N354 N 0.07656 0.46039 0.41959 0.0
C355 C 0.14869 0.4579 0.41294 0.0
O356 O 0.9893 0.38771 0.37623 0.0
C357 C 0.03601 0.39525 0.36193 0.0
O358 O 0.10065 0.39939 0.36974 0.0
H359 H 0.01387 0.42022 0.41986 0.0
H360 H 0.22919 0.43791 0.40397 0.0
C361 C 0.02403 0.33747 0.41151 0.0
C362 C 0.07226 0.32369 0.40703 0.0
C363 C 0.14667 0.34131 0.38061 0.0
C364 C 0.09935 0.35493 0.38517 0.0
N365 N 0.03936 0.35288 0.40063 0.0
N366 N 0.13235 0.32608 0.39173 0.0
H367 H 0.97662 0.33612 0.42405 0.0
C368 C 0.2844 0.38517 0.40681 0.0
O369 O 0.23681 0.37254 0.40767 0.0
O370 O 0.87656 0.36957 0.41617 0.0
H371 H 0.11199 0.36719 0.37706 0.0
H372 H 0.97126 0.44984 0.42756 0.0
H373 H 0.19503 0.34289 0.3686 0.0
Zn374 Zn 0.53017 0.65145 0.40606 0.0
C375 C 0.39018 0.64319 0.46085 0.0
N376 N 0.44392 0.64999 0.47529 0.0
C377 C 0.50325 0.64933 0.45986 0.0
N378 N 0.48572 0.64265 0.43675 0.0
N379 N 0.41508 0.63832 0.43757 0.0
C380 C 0.23148 0.64013 0.41578 0.0
O381 O 0.27799 0.65299 0.41536 0.0
O382 O 0.64037 0.65587 0.41168 0.0
Zn383 Zn 0.37006 0.62188 0.41442 0.0
N384 N 0.4752 0.67228 0.39881 0.0
C385 C 0.36185 0.68279 0.38168 0.0
C386 C 0.41125 0.6695 0.38569 0.0
C387 C 0.49217 0.68811 0.40799 0.0
N388 N 0.37786 0.69843 0.39113 0.0
C389 C 0.44164 0.70157 0.40415 0.0
O390 O 0.40893 0.62303 0.37733 0.0
C391 C 0.46588 0.62766 0.36448 0.0
O392 O 0.51702 0.63671 0.37444 0.0
H393 H 0.39726 0.6569 0.37908 0.0
H394 H 0.54255 0.69005 0.41884 0.0
C395 C 0.36591 0.5846 0.41849 0.0
C396 C 0.39544 0.56879 0.42621 0.0
C397 C 0.48525 0.58318 0.45132 0.0
C398 C 0.45677 0.59877 0.44342 0.0
N399 N 0.39798 0.5993 0.42708 0.0
N400 N 0.45452 0.5686 0.44238 0.0
H401 H 0.32011 0.58522 0.40513 0.0
C402 C 0.68659 0.64382 0.40816 0.0
O403 O 0.66186 0.62885 0.40078 0.0
O404 O 0.25729 0.62503 0.4151 0.0
H405 H 0.48245 0.61034 0.45008 0.0
H406 H 0.31048 0.68063 0.37152 0.0
H407 H 0.53221 0.58267 0.46418 0.0
Zn408 Zn 0.53134 0.37778 0.91506 0.0
C409 C 0.39789 0.40362 0.96001 0.0
N410 N 0.45579 0.40414 0.97612 0.0
C411 C 0.51154 0.39863 0.96144 0.0
N412 N 0.4893 0.39468 0.93751 0.0
N413 N 0.41804 0.3984 0.93634 0.0
C414 C 0.22727 0.39041 0.89723 0.0
O415 O 0.26763 0.38001 0.88331 0.0
O416 O 0.64111 0.37374 0.92165 0.0
Zn417 Zn 0.36987 0.40734 0.90549 0.0
N418 N 0.47209 0.35689 0.9184 0.0
C419 C 0.34722 0.3472 0.91775 0.0
C420 C 0.39909 0.36011 0.91472 0.0
C421 C 0.49603 0.34076 0.92391 0.0
N422 N 0.37043 0.33131 0.92375 0.0
C423 C 0.44334 0.32753 0.92672 0.0
O424 O 0.41558 0.39939 0.87094 0.0
C425 C 0.47625 0.3926 0.86348 0.0
O426 O 0.52124 0.38553 0.87895 0.0
H427 H 0.38139 0.37274 0.90956 0.0
H428 H 0.55447 0.33831 0.92646 0.0
C429 C 0.34267 0.44499 0.90466 0.0
C430 C 0.3699 0.46187 0.9039 0.0
C431 C 0.49257 0.45134 0.90673 0.0
C432 C 0.46584 0.43472 0.90717 0.0
N433 N 0.3918 0.43177 0.90609 0.0
N434 N 0.44422 0.46446 0.9049 0.0
H435 H 0.28394 0.44243 0.90348 0.0
C436 C 0.68704 0.38565 0.91679 0.0
O437 O 0.66186 0.4004 0.90869 0.0
O438 O 0.25795 0.4033 0.9076 0.0
H439 H 0.50404 0.42414 0.90804 0.0
H440 H 0.28888 0.34976 0.9153 0.0
H441 H 0.55141 0.4538 0.90749 0.0
Zn442 Zn 0.96828 0.6548 0.91097 0.0
C443 C 0.12559 0.65126 0.95802 0.0
N444 N 0.0771 0.65891 0.97364 0.0
C445 C 0.01206 0.65577 0.96227 0.0
N446 N 0.02081 0.64681 0.94036 0.0
N447 N 0.09217 0.6434 0.9381 0.0
C448 C 0.27051 0.64553 0.90924 0.0
O449 O 0.22422 0.65817 0.9054 0.0
O450 O 0.85961 0.6586 0.9187 0.0
Zn451 Zn 0.13377 0.62661 0.91442 0.0
N452 N 0.01432 0.67644 0.90117 0.0
C453 C 0.10725 0.68991 0.87596 0.0
C454 C 0.06982 0.67529 0.88367 0.0
C455 C 0.99508 0.69179 0.91158 0.0
N456 N 0.08822 0.70517 0.88621 0.0
C457 C 0.0333 0.70674 0.90397 0.0
O458 O 0.08649 0.62637 0.87831 0.0
C459 C 0.02379 0.63019 0.8685 0.0
O460 O 0.97614 0.63922 0.88033 0.0
H461 H 0.08535 0.66306 0.87586 0.0
H462 H 0.9504 0.69223 0.92535 0.0
C463 C 0.15144 0.58977 0.91909 0.0
C464 C 0.13793 0.57354 0.93006 0.0
C465 C 0.05921 0.58671 0.96085 0.0
C466 C 0.07218 0.60257 0.94978 0.0
N467 N 0.11807 0.60388 0.92918 0.0
N468 N 0.09208 0.57268 0.95079 0.0
H469 H 0.18845 0.59135 0.90297 0.0
C470 C 0.81355 0.64632 0.91888 0.0
O471 O 0.83777 0.63073 0.91511 0.0
O472 O 0.24473 0.63059 0.91241 0.0
H473 H 0.04586 0.61376 0.95766 0.0
H474 H 0.15148 0.68914 0.86201 0.0
H475 H 0.02299 0.58552 0.9773 0.0
Zn476 Zn 0.86517 0.61886 0.63133 0.0
C477 C 1.00069 0.64413 0.58465 0.0
N478 N 0.94332 0.64355 0.56838 0.0
C479 C 0.88879 0.63733 0.58304 0.0
N480 N 0.91152 0.63394 0.60712 0.0
N481 N 0.9819 0.63843 0.60822 0.0
C482 C 0.16904 0.63456 0.63456 0.0
O483 O 0.12778 0.62121 0.63976 0.0
O484 O 0.75372 0.61943 0.62709 0.0
Zn485 Zn 0.02653 0.64769 0.63864 0.0
N486 N 0.89858 0.5962 0.62252 0.0
C487 C 1.00023 0.5775 0.61581 0.0
C488 C 0.97277 0.59372 0.62104 0.0
C489 C 0.85032 0.58312 0.61878 0.0
N490 N 0.95227 0.56439 0.61231 0.0
C491 C 0.8777 0.56668 0.61351 0.0
O492 O 0.00533 0.63479 0.67173 0.0
C493 C 0.95128 0.62681 0.68193 0.0
O494 O 0.89511 0.62208 0.66883 0.0
H495 H 0.01014 0.60425 0.62419 0.0
H496 H 0.7916 0.58546 0.62058 0.0
C497 C 0.00629 0.68513 0.63628 0.0
C498 C 0.96138 0.69981 0.63894 0.0
C499 C 0.86413 0.68236 0.65494 0.0
C500 C 0.9082 0.66802 0.65206 0.0
N501 N 0.97835 0.66961 0.643 0.0
N502 N 0.89159 0.6978 0.64834 0.0
H503 H 0.06224 0.68588 0.62907 0.0
C504 C 0.71148 0.63236 0.62857 0.0
O505 O 0.74 0.64736 0.63386 0.0
O506 O 0.1382 0.64911 0.63351 0.0
H507 H 0.88624 0.65559 0.65664 0.0
H508 H 0.05922 0.57533 0.61471 0.0
H509 H 0.80821 0.68124 0.66214 0.0
Zn510 Zn 0.65281 0.40568 0.62938 0.0
C511 C 0.51781 0.3904 0.57699 0.0
N512 N 0.57456 0.39345 0.56112 0.0
C513 C 0.63159 0.39497 0.57735 0.0
N514 N 0.6105 0.39299 0.60196 0.0
N515 N 0.53888 0.38992 0.60178 0.0
C516 C 0.33558 0.37329 0.6384 0.0
O517 O 0.3567 0.36967 0.66193 0.0
O518 O 0.76331 0.40566 0.62497 0.0
Zn519 Zn 0.49292 0.37732 0.62903 0.0
N520 N 0.61015 0.42823 0.62623 0.0
C521 C 0.49606 0.44326 0.62735 0.0
C522 C 0.53577 0.42823 0.62999 0.0
C523 C 0.64709 0.44283 0.6201 0.0
N524 N 0.53238 0.45778 0.62117 0.0
C525 C 0.60696 0.45817 0.61749 0.0
O526 O 0.50929 0.38693 0.66481 0.0
C527 C 0.56572 0.39263 0.67676 0.0
O528 O 0.62351 0.39779 0.66502 0.0
H529 H 0.50738 0.41653 0.63477 0.0
H530 H 0.70615 0.44238 0.61684 0.0
C531 C 0.50165 0.33985 0.62975 0.0
C532 C 0.54145 0.32435 0.63055 0.0
C533 C 0.65395 0.34 0.62974 0.0
C534 C 0.61452 0.3552 0.62967 0.0
N535 N 0.53934 0.35491 0.62925 0.0
N536 N 0.6167 0.32501 0.63025 0.0
H537 H 0.44186 0.34004 0.62953 0.0
C538 C 0.80204 0.39553 0.63843 0.0
O539 O 0.76954 0.38616 0.65603 0.0
O540 O 0.38423 0.37622 0.62138 0.0
H541 H 0.64382 0.36718 0.63018 0.0
H542 H 0.43676 0.4434 0.63012 0.0
H543 H 0.71378 0.3401 0.62979 0.0
H544 H 0.71828 0.15099 0.13371 0.0
H545 H 0.76814 0.10039 0.10491 0.0
H546 H 0.63505 0.09423 0.10118 0.0
H547 H 0.56828 0.13901 0.17262 0.0
H548 H 0.51227 0.15751 0.16619 0.0
H549 H 0.61142 0.15892 0.16393 0.0
H550 H 0.60046 0.16986 0.11709 0.0
H551 H 0.50109 0.16861 0.11933 0.0
H552 H 0.54888 0.15757 0.09392 0.0
H553 H 0.49707 0.09257 0.10331 0.0
H554 H 0.36313 0.09567 0.11105 0.0
H555 H 0.40003 0.147 0.13957 0.0
C556 C 0.701 0.13875 0.1262 0.0
C557 C 0.75381 0.12616 0.11968 0.0
C558 C 0.72891 0.1102 0.11024 0.0
C559 C 0.65328 0.10658 0.10793 0.0
C560 C 0.60258 0.11903 0.11516 0.0
C561 C 0.62515 0.13483 0.12399 0.0
C562 C 0.55876 0.14553 0.13178 0.0
C563 C 0.56296 0.15053 0.16033 0.0
C564 C 0.55191 0.16133 0.1145 0.0
C565 C 0.49597 0.13305 0.1268 0.0
C566 C 0.52252 0.11795 0.1168 0.0
C567 C 0.47556 0.10438 0.11101 0.0
C568 C 0.39945 0.10624 0.11559 0.0
C569 C 0.37068 0.12153 0.12606 0.0
C570 C 0.42001 0.13512 0.13161 0.0
H571 H 0.13562 0.90161 0.11977 0.0
H572 H 0.18972 0.85628 0.16351 0.0
H573 H 0.05928 0.84726 0.16209 0.0
H574 H 0.9715 0.91001 0.15401 0.0
H575 H 0.92026 0.91816 0.12697 0.0
H576 H 0.01953 0.9198 0.12747 0.0
H577 H 0.02589 0.9041 0.08387 0.0
H578 H 0.92656 0.90213 0.08326 0.0
H579 H 0.98359 0.88339 0.08052 0.0
H580 H 0.92225 0.8434 0.15736 0.0
H581 H 0.78639 0.84705 0.15485 0.0
H582 H 0.81759 0.89635 0.11884 0.0
C583 C 0.12004 0.88962 0.12852 0.0
C584 C 0.17326 0.87944 0.14125 0.0
C585 C 0.15034 0.86413 0.15328 0.0
C586 C 0.07625 0.85887 0.15252 0.0
C587 C 0.02492 0.86921 0.14012 0.0
C588 C 0.04546 0.8844 0.12864 0.0
C589 C 0.97775 0.8941 0.11942 0.0
C590 C 0.97193 0.91155 0.13277 0.0
C591 C 0.97852 0.89604 0.09002 0.0
C592 C 0.91632 0.88215 0.128 0.0
C593 C 0.94492 0.86764 0.1392 0.0
C594 C 0.89917 0.85472 0.14863 0.0
C595 C 0.82213 0.85686 0.14707 0.0
C596 C 0.79166 0.87199 0.13683 0.0
C597 C 0.83953 0.88468 0.12691 0.0
H598 H 0.9113 0.86848 0.40539 0.0
H599 H 0.87176 0.91943 0.43489 0.0
H600 H 0.00488 0.92262 0.44389 0.0
H601 H 0.06393 0.85722 0.45073 0.0
H602 H 0.11259 0.84563 0.42614 0.0
H603 H 0.01304 0.8469 0.42529 0.0
H604 H 0.02253 0.85897 0.37876 0.0
H605 H 0.12187 0.85814 0.38034 0.0
H606 H 0.07622 0.87798 0.37312 0.0
H607 H 0.142 0.92152 0.446 0.0
H608 H 0.27556 0.91631 0.44065 0.0
H609 H 0.22898 0.86589 0.41049 0.0
C610 C 0.93057 0.88023 0.41402 0.0
C611 C 0.88104 0.89375 0.41928 0.0
C612 C 0.90856 0.90895 0.43047 0.0
C613 C 0.98408 0.91084 0.43584 0.0
C614 C 0.03153 0.89739 0.43006 0.0
C615 C 0.00603 0.88234 0.41949 0.0
C616 C 0.06968 0.87034 0.4136 0.0
C617 C 0.06443 0.85406 0.42991 0.0
C618 C 0.07274 0.86612 0.38474 0.0
C619 C 0.13503 0.88121 0.42178 0.0
C620 C 0.11145 0.89669 0.43149 0.0
C621 C 0.16113 0.90937 0.43876 0.0
C622 C 0.23685 0.90631 0.43557 0.0
C623 C 0.26243 0.89068 0.4253 0.0
C624 C 0.21088 0.87782 0.41884 0.0
H625 H 0.59342 0.1584 0.41608 0.0
H626 H 0.62867 0.10364 0.41713 0.0
H627 H 0.49407 0.09905 0.41848 0.0
H628 H 0.43039 0.158 0.45914 0.0
H629 H 0.38443 0.17485 0.44189 0.0
H630 H 0.48406 0.17406 0.44285 0.0
H631 H 0.48826 0.17435 0.3931 0.0
H632 H 0.3888 0.1751 0.39195 0.0
H633 H 0.43775 0.15838 0.37536 0.0
H634 H 0.35732 0.10005 0.41652 0.0
H635 H 0.22505 0.10649 0.41195 0.0
H636 H 0.27417 0.16068 0.41282 0.0
C637 C 0.57283 0.14545 0.41684 0.0
C638 C 0.62195 0.13138 0.4164 0.0
C639 C 0.59253 0.11464 0.4174 0.0
C640 C 0.516 0.11189 0.41825 0.0
C641 C 0.46922 0.12598 0.41831 0.0
C642 C 0.49622 0.14244 0.41782 0.0
C643 C 0.43322 0.15526 0.4172 0.0
C644 C 0.43302 0.16619 0.44173 0.0
C645 C 0.43727 0.16643 0.39296 0.0
C646 C 0.36678 0.14339 0.41645 0.0
C647 C 0.38922 0.12656 0.4174 0.0
C648 C 0.33898 0.11316 0.41596 0.0
C649 C 0.26383 0.11699 0.41322 0.0
C650 C 0.239 0.1341 0.41189 0.0
C651 C 0.29132 0.14748 0.41391 0.0
H652 H 0.29825 0.90888 0.92546 0.0
H653 H 0.26013 0.85457 0.91729 0.0
H654 H 0.39508 0.84952 0.9191 0.0
H655 H 0.4551 0.91225 0.88739 0.0
H656 H 0.50319 0.92732 0.90753 0.0
H657 H 0.40376 0.92651 0.90787 0.0
H658 H 0.40515 0.92177 0.95714 0.0
H659 H 0.50482 0.92262 0.95702 0.0
H660 H 0.45787 0.90439 0.97039 0.0
H661 H 0.53382 0.8508 0.91632 0.0
H662 H 0.66614 0.858 0.91206 0.0
H663 H 0.61549 0.91134 0.92495 0.0
C664 C 0.3183 0.89591 0.92433 0.0
C665 C 0.26873 0.88211 0.921 0.0
C666 C 0.29705 0.86531 0.91985 0.0
C667 C 0.37361 0.86233 0.92088 0.0
C668 C 0.42108 0.87625 0.92369 0.0
C669 C 0.39447 0.89268 0.92588 0.0
C670 C 0.45738 0.90542 0.92825 0.0
C671 C 0.45467 0.91865 0.90646 0.0
C672 C 0.45623 0.91406 0.95478 0.0
C673 C 0.52365 0.8937 0.92557 0.0
C674 C 0.50136 0.8769 0.92321 0.0
C675 C 0.55194 0.86387 0.91861 0.0
C676 C 0.62699 0.8681 0.91606 0.0
C677 C 0.6512 0.88522 0.91826 0.0
C678 C 0.59879 0.89812 0.92357 0.0
H679 H 0.18384 0.12152 0.90492 0.0
H680 H 0.22447 0.17483 0.92241 0.0
H681 H 0.0904 0.17924 0.92863 0.0
H682 H 0.01858 0.12729 0.86948 0.0
H683 H 0.9734 0.1085 0.88175 0.0
H684 H 0.07276 0.1093 0.87989 0.0
H685 H 0.08176 0.10244 0.92849 0.0
H686 H 0.98231 0.1016 0.9305 0.0
H687 H 0.03355 0.11569 0.95129 0.0
H688 H 0.95179 0.17825 0.93064 0.0
H689 H 0.81833 0.17194 0.92905 0.0
H690 H 0.86672 0.11907 0.91117 0.0
C691 C 0.16466 0.13412 0.91016 0.0
C692 C 0.21484 0.14787 0.91304 0.0
C693 C 0.18728 0.16411 0.92005 0.0
C694 C 0.11117 0.16673 0.92366 0.0
C695 C 0.06326 0.15296 0.92045 0.0
C696 C 0.08889 0.13694 0.91402 0.0
C697 C 0.02546 0.12436 0.91132 0.0
C698 C 0.02239 0.11693 0.88398 0.0
C699 C 0.03113 0.11018 0.93161 0.0
C700 C 0.95998 0.13592 0.91657 0.0
C701 C 0.98318 0.15233 0.92194 0.0
C702 C 0.93303 0.16542 0.92661 0.0
C703 C 0.85722 0.16171 0.92556 0.0
C704 C 0.8319 0.14502 0.9199 0.0
C705 C 0.88426 0.13193 0.91566 0.0
H706 H 0.76325 0.12391 0.66346 0.0
H707 H 0.75056 0.16858 0.61458 0.0
H708 H 0.88683 0.16778 0.60898 0.0
H709 H 0.9334 0.13522 0.69546 0.0
H710 H 0.96572 0.11352 0.69686 0.0
H711 H 0.86797 0.1179 0.69697 0.0
H712 H 0.85085 0.09824 0.65738 0.0
H713 H 0.94857 0.09385 0.65706 0.0
H714 H 0.90419 0.1022 0.62873 0.0
H715 H 0.02555 0.16118 0.60786 0.0
H716 H 0.15335 0.15034 0.61272 0.0
H717 H 0.07302 0.11047 0.66331 0.0
C718 C 0.78897 0.1336 0.65164 0.0
C719 C 0.74618 0.14634 0.63947 0.0
C720 C 0.78225 0.15878 0.62424 0.0
C721 C 0.85957 0.15837 0.62088 0.0
C722 C 0.89997 0.14553 0.63306 0.0
C723 C 0.86572 0.13346 0.64829 0.0
C724 C 0.92106 0.12099 0.6594 0.0
C725 C 0.92209 0.12197 0.68892 0.0
C726 C 0.90521 0.10275 0.65008 0.0
C727 C 0.99211 0.12783 0.648 0.0
C728 C 0.97898 0.14194 0.63274 0.0
C729 C 0.03634 0.15019 0.61983 0.0
C730 C 0.10876 0.14391 0.62268 0.0
C731 C 0.12343 0.12958 0.63848 0.0
C732 C 0.06395 0.12151 0.65124 0.0
H733 H 0.41374 0.86508 0.64304 0.0
H734 H 0.37499 0.91729 0.61898 0.0
H735 H 0.50805 0.92073 0.61014 0.0
H736 H 0.58102 0.87303 0.67583 0.0
H737 H 0.62561 0.85347 0.66643 0.0
H738 H 0.52636 0.8544 0.66863 0.0
H739 H 0.51442 0.84434 0.62108 0.0
H740 H 0.61388 0.84296 0.61956 0.0
H741 H 0.56451 0.85565 0.59644 0.0
H742 H 0.64502 0.91942 0.60681 0.0
H743 H 0.77859 0.91369 0.61023 0.0
H744 H 0.73197 0.86225 0.63613 0.0
C745 C 0.43319 0.87718 0.6357 0.0
C746 C 0.38375 0.89095 0.63186 0.0
C747 C 0.41161 0.9066 0.62232 0.0
C748 C 0.48714 0.90865 0.61705 0.0
C749 C 0.53443 0.89493 0.62131 0.0
C750 C 0.50877 0.87948 0.6304 0.0
C751 C 0.57238 0.86714 0.63473 0.0
C752 C 0.57657 0.8617 0.66309 0.0
C753 C 0.56584 0.8516 0.61689 0.0
C754 C 0.63786 0.87823 0.62729 0.0
C755 C 0.61431 0.89415 0.61933 0.0
C756 C 0.66408 0.90696 0.61275 0.0
C757 C 0.73989 0.90359 0.61483 0.0
C758 C 0.76566 0.88752 0.62336 0.0
C759 C 0.71385 0.87455 0.62916 0.0
H760 H 0.91951 0.65184 0.14786 0.0
H761 H 0.86712 0.60458 0.10835 0.0
H762 H 0.99739 0.60184 0.09511 0.0
H763 H 0.05751 0.66696 0.10115 0.0
H764 H 0.11668 0.67593 0.12555 0.0
H765 H 0.01815 0.6749 0.13063 0.0
H766 H 0.0389 0.65823 0.17298 0.0
H767 H 0.13733 0.65929 0.16811 0.0
H768 H 0.09287 0.63892 0.17245 0.0
H769 H 0.13397 0.60305 0.08851 0.0
H770 H 0.26877 0.60777 0.09004 0.0
H771 H 0.23459 0.65451 0.13296 0.0
C772 C 0.93534 0.64097 0.1363 0.0
C773 C 0.8829 0.62838 0.12929 0.0
C774 C 0.9061 0.61434 0.11414 0.0
C775 C 0.98 0.61272 0.10637 0.0
C776 C 0.03028 0.62527 0.11373 0.0
C777 C 0.0091 0.63914 0.12833 0.0
C778 C 0.07507 0.65041 0.13454 0.0
C779 C 0.06631 0.6681 0.12223 0.0
C780 C 0.08672 0.65178 0.16375 0.0
C781 C 0.13692 0.64043 0.12181 0.0
C782 C 0.10953 0.62607 0.10968 0.0
C783 C 0.15597 0.61433 0.09775 0.0
C784 C 0.23248 0.61711 0.09876 0.0
C785 C 0.26208 0.63153 0.11152 0.0
C786 C 0.21344 0.64353 0.1227 0.0
H787 H 0.2872 0.40434 0.12902 0.0
H788 H 0.25156 0.34996 0.11971 0.0
H789 H 0.38664 0.34557 0.11739 0.0
H790 H 0.44903 0.40747 0.08598 0.0
H791 H 0.49471 0.42298 0.10594 0.0
H792 H 0.39522 0.42208 0.1052 0.0
H793 H 0.39315 0.41853 0.1547 0.0
H794 H 0.49265 0.41933 0.15542 0.0
H795 H 0.44466 0.40139 0.16924 0.0
H796 H 0.52558 0.34675 0.11886 0.0
H797 H 0.65836 0.35348 0.12248 0.0
H798 H 0.60594 0.40722 0.12984 0.0
C799 C 0.30769 0.3915 0.12629 0.0
C800 C 0.25831 0.37746 0.12467 0.0
C801 C 0.28783 0.36092 0.12104 0.0
C802 C 0.36464 0.3583 0.11967 0.0
C803 C 0.41163 0.37235 0.12169 0.0
C804 C 0.38437 0.38867 0.12469 0.0
C805 C 0.44721 0.4015 0.12711 0.0
C806 C 0.44639 0.41426 0.10471 0.0
C807 C 0.44422 0.41073 0.15317 0.0
C808 C 0.51394 0.38982 0.12542 0.0
C809 C 0.49202 0.37306 0.12225 0.0
C810 C 0.54329 0.35985 0.12111 0.0
C811 C 0.61875 0.36381 0.12331 0.0
C812 C 0.64292 0.38089 0.12642 0.0
C813 C 0.58946 0.39406 0.12728 0.0
H814 H 0.71936 0.40572 0.41281 0.0
H815 H 0.75703 0.35125 0.41882 0.0
H816 H 0.62186 0.34638 0.41882 0.0
H817 H 0.55553 0.40622 0.45474 0.0
H818 H 0.51001 0.42261 0.43636 0.0
H819 H 0.60959 0.42191 0.43783 0.0
H820 H 0.61625 0.42095 0.38818 0.0
H821 H 0.51687 0.42164 0.38637 0.0
H822 H 0.56671 0.40455 0.37104 0.0
H823 H 0.48276 0.34734 0.41489 0.0
H824 H 0.35027 0.35397 0.41044 0.0
H825 H 0.40171 0.40802 0.40858 0.0
C826 C 0.69932 0.39275 0.41436 0.0
C827 C 0.74917 0.37884 0.41572 0.0
C828 C 0.72027 0.36211 0.4178 0.0
C829 C 0.64346 0.35923 0.41779 0.0
C830 C 0.59604 0.37321 0.41604 0.0
C831 C 0.62284 0.38966 0.41474 0.0
C832 C 0.56001 0.40246 0.41299 0.0
C833 C 0.55869 0.41398 0.4369 0.0
C834 C 0.56531 0.41302 0.38817 0.0
C835 C 0.49362 0.39061 0.41249 0.0
C836 C 0.51576 0.37379 0.41441 0.0
C837 C 0.46487 0.36047 0.41361 0.0
C838 C 0.38951 0.36439 0.41097 0.0
C839 C 0.36509 0.38153 0.40913 0.0
C840 C 0.41828 0.39479 0.40995 0.0
H841 H 0.1151 0.61756 0.40927 0.0
H842 H 0.16492 0.67048 0.42645 0.0
H843 H 0.0317 0.67688 0.42841 0.0
H844 H 0.96259 0.62577 0.36802 0.0
H845 H 0.90854 0.6078 0.37866 0.0
H846 H 0.00793 0.60702 0.38032 0.0
H847 H 1.00063 0.60029 0.429 0.0
H848 H 0.90111 0.60102 0.42748 0.0
H849 H 0.95008 0.61439 0.44995 0.0
H850 H 0.89259 0.67792 0.42691 0.0
H851 H 0.75815 0.67347 0.42136 0.0
H852 H 0.79785 0.62008 0.40441 0.0
C853 C 0.09794 0.63045 0.41366 0.0
C854 C 0.15074 0.64351 0.41767 0.0
C855 C 0.12579 0.66025 0.42316 0.0
C856 C 0.05006 0.66402 0.42441 0.0
C857 C 0.99948 0.65095 0.42007 0.0
C858 C 0.02226 0.63449 0.4148 0.0
C859 C 0.95632 0.62296 0.4099 0.0
C860 C 0.95903 0.61545 0.38261 0.0
C861 C 0.95178 0.60883 0.4303 0.0
C862 C 0.89321 0.63556 0.41278 0.0
C863 C 0.91927 0.6516 0.41891 0.0
C864 C 0.87152 0.66539 0.42219 0.0
C865 C 0.79518 0.66275 0.41896 0.0
C866 C 0.76718 0.64646 0.41235 0.0
C867 C 0.81724 0.63271 0.40942 0.0
H868 H 0.11398 0.41239 0.91015 0.0
H869 H 0.16207 0.35915 0.89519 0.0
H870 H 0.0311 0.35186 0.9027 0.0
H871 H 0.9707 0.40556 0.95944 0.0
H872 H 0.91374 0.42281 0.94803 0.0
H873 H 0.01275 0.42376 0.94415 0.0
H874 H 0.99663 0.42812 0.89512 0.0
H875 H 0.89774 0.42727 0.89885 0.0
H876 H 0.94318 0.41292 0.8769 0.0
H877 H 0.89417 0.35031 0.91078 0.0
H878 H 0.75939 0.35507 0.91427 0.0
H879 H 0.79769 0.40947 0.92115 0.0
C880 C 0.09697 0.39918 0.90877 0.0
C881 C 0.14837 0.38632 0.90219 0.0
C882 C 0.12375 0.36923 0.90015 0.0
C883 C 0.04948 0.36493 0.90455 0.0
C884 C 1.00002 0.3779 0.91077 0.0
C885 C 0.02249 0.39471 0.91265 0.0
C886 C 0.95691 0.40632 0.91758 0.0
C887 C 0.96397 0.41513 0.94386 0.0
C888 C 0.94811 0.41943 0.89581 0.0
C889 C 0.89408 0.39347 0.91757 0.0
C890 C 0.92039 0.3771 0.91423 0.0
C891 C 0.87292 0.36308 0.91342 0.0
C892 C 0.79643 0.36589 0.9155 0.0
C893 C 0.76798 0.38262 0.91784 0.0
C894 C 0.81778 0.39653 0.91926 0.0
H895 H 0.38383 0.62232 0.91502 0.0
H896 H 0.33875 0.6766 0.91085 0.0
H897 H 0.47164 0.68266 0.91629 0.0
H898 H 0.53314 0.62514 0.9625 0.0
H899 H 0.58726 0.60855 0.94772 0.0
H900 H 0.48786 0.60818 0.94518 0.0
H901 H 0.49674 0.6071 0.8956 0.0
H902 H 0.59606 0.60718 0.89783 0.0
H903 H 0.54956 0.62315 0.8789 0.0
H904 H 0.60985 0.68293 0.92063 0.0
H905 H 0.74412 0.67731 0.92104 0.0
H906 H 0.70043 0.62289 0.92125 0.0
C907 C 0.40186 0.63549 0.91535 0.0
C908 C 0.35072 0.64898 0.91236 0.0
C909 C 0.37673 0.66602 0.91291 0.0
C910 C 0.45216 0.66962 0.91617 0.0
C911 C 0.50112 0.65604 0.9189 0.0
C912 C 0.47716 0.63931 0.91847 0.0
C913 C 0.54183 0.62709 0.92055 0.0
C914 C 0.53722 0.61662 0.94547 0.0
C915 C 0.5463 0.61545 0.8968 0.0
C916 C 0.60591 0.63956 0.92144 0.0
C917 C 0.5811 0.6562 0.92094 0.0
C918 C 0.62994 0.66995 0.92112 0.0
C919 C 0.70619 0.66662 0.92136 0.0
C920 C 0.73303 0.64966 0.92111 0.0
C921 C 0.68186 0.636 0.92149 0.0
H922 H 0.60171 0.65663 0.63351 0.0
H923 H 0.63812 0.60337 0.61462 0.0
H924 H 0.50377 0.59913 0.61043 0.0
H925 H 0.44547 0.65075 0.672 0.0
H926 H 0.39656 0.66943 0.6612 0.0
H927 H 0.49601 0.66893 0.66011 0.0
H928 H 0.49307 0.6758 0.6114 0.0
H929 H 0.39341 0.67644 0.61239 0.0
H930 H 0.43977 0.66248 0.59009 0.0
H931 H 0.367 0.59972 0.61231 0.0
H932 H 0.23471 0.60518 0.61949 0.0
H933 H 0.28308 0.6582 0.63649 0.0
C934 C 0.58144 0.64413 0.62817 0.0
C935 C 0.63068 0.63031 0.62454 0.0
C936 C 0.60177 0.61415 0.61762 0.0
C937 C 0.52543 0.61162 0.61507 0.0
C938 C 0.47843 0.62539 0.61926 0.0
C939 C 0.50508 0.64137 0.62545 0.0
C940 C 0.4419 0.65375 0.63012 0.0
C941 C 0.44521 0.66114 0.65748 0.0
C942 C 0.44205 0.66796 0.60979 0.0
C943 C 0.37575 0.64202 0.62672 0.0
C944 C 0.39844 0.62578 0.6201 0.0
C945 C 0.34847 0.61242 0.61722 0.0
C946 C 0.27338 0.61564 0.62151 0.0
C947 C 0.24851 0.6321 0.62865 0.0
C948 C 0.3004 0.64554 0.63084 0.0
H949 H 0.21639 0.36831 0.67016 0.0
H950 H 0.27567 0.38437 0.59303 0.0
H951 H 0.14537 0.39162 0.58438 0.0
H952 H 0.03797 0.34945 0.65264 0.0
H953 H 0.9943 0.3563 0.682 0.0
H954 H 0.0919 0.35171 0.68158 0.0
H955 H 0.1191 0.38191 0.69946 0.0
H956 H 0.02172 0.38666 0.69968 0.0
H957 H 0.08482 0.40031 0.68248 0.0
H958 H 0.00984 0.39919 0.58535 0.0
H959 H 0.87746 0.40413 0.59466 0.0
H960 H 0.90624 0.38192 0.67036 0.0
C961 C 0.20191 0.37315 0.65134 0.0
C962 C 0.25643 0.3759 0.63236 0.0
C963 C 0.23504 0.38225 0.60795 0.0
C964 C 0.16109 0.38641 0.60284 0.0
C965 C 0.10904 0.38393 0.62221 0.0
C966 C 0.12829 0.37721 0.64583 0.0
C967 C 0.06187 0.37592 0.66341 0.0
C968 C 0.04555 0.35723 0.6703 0.0
C969 C 0.07255 0.38685 0.68768 0.0
C970 C 1.0025 0.38323 0.64616 0.0
C971 C 0.0308 0.38784 0.6225 0.0
C972 C 0.98692 0.39548 0.60373 0.0
C973 C 0.91197 0.39832 0.60923 0.0
C974 C 0.88169 0.39335 0.63319 0.0
C975 C 0.92776 0.38572 0.65181 0.0
H976 H 0.21319 0.13289 0.08326 0.0
H977 H 0.12615 0.08868 0.04359 0.0
H978 H 0.21277 0.09375 1.0078 0.0
H979 H 0.22428 0.15862 0.03358 0.0
H980 H 0.31095 0.16913 0.04026 0.0
H981 H 0.25766 0.16025 0.06616 0.0
H982 H 0.3655 0.1422 0.08102 0.0
H983 H 0.42347 0.15066 0.05606 0.0
H984 H 0.41159 0.12792 0.0591 0.0
H985 H 0.28648 0.10738 0.97268 0.0
H986 H 0.37299 0.12345 0.94543 0.0
H987 H 0.41514 0.15846 1.00825 0.0
C988 C 0.21626 0.12354 0.06799 0.0
C989 C 0.16392 0.11021 0.06633 0.0
C990 C 0.16689 0.09875 0.04536 0.0
C991 C 0.21507 0.1017 0.02477 0.0
C992 C 0.26098 0.11594 0.02582 0.0
C993 C 0.26466 0.12623 0.04737 0.0
C994 C 0.31568 0.14129 0.04286 0.0
C995 C 0.27459 0.15833 0.04587 0.0
C996 C 0.38315 0.14043 0.06079 0.0
C997 C 0.33738 0.13821 1.01517 0.0
C998 C 0.30479 0.12361 1.00564 0.0
C999 C 0.31394 0.11859 0.98017 0.0
C1000 C 0.36235 0.128 0.96463 0.0
C1001 C 0.40156 0.14214 0.9747 0.0
C1002 C 0.38604 0.1477 0.99997 0.0
H1003 H 0.30285 0.86965 0.0707 0.0
H1004 H 0.43964 0.91357 0.05381 0.0
H1005 H 0.35732 0.92123 1.01773 0.0
H1006 H 0.2662 0.85769 1.00788 0.0
H1007 H 0.17082 0.85176 1.0126 0.0
H1008 H 0.23512 0.85047 0.03896 0.0
H1009 H 0.15292 0.87033 0.06687 0.0
H1010 H 0.0866 0.87094 0.04107 0.0
H1011 H 0.12351 0.89051 0.05393 0.0
H1012 H 0.26752 0.9227 0.98179 0.0
H1013 H 0.15704 0.92191 0.9539 0.0
H1014 H 0.07963 0.87671 0.99323 0.0
C1015 C 0.31302 0.8813 0.06011 0.0
C1016 C 0.37596 0.89131 0.06511 0.0
C1017 C 0.39007 0.90611 0.05045 0.0
C1018 C 0.34453 0.91035 0.02973 0.0
C1019 C 0.28527 0.89964 0.02418 0.0
C1020 C 0.26778 0.88577 0.03941 0.0
C1021 C 0.20059 0.87645 0.02923 0.0
C1022 C 0.21937 0.858 0.02173 0.0
C1023 C 0.13714 0.8771 0.04893 0.0
C1024 C 0.18382 0.88713 1.00573 0.0
C1025 C 0.23403 0.90031 1.00302 0.0
C1026 C 0.22807 0.91238 0.98355 0.0
C1027 C 0.16613 0.91166 0.96749 0.0
C1028 C 0.11224 0.89882 0.97084 0.0
C1029 C 0.12235 0.8861 0.98957 0.0
H1030 H 0.76419 0.86719 0.46405 0.0
H1031 H 0.67303 0.91666 0.48226 0.0
H1032 H 0.76526 0.92019 0.51686 0.0
H1033 H 0.78793 0.853 0.5225 0.0
H1034 H 0.87602 0.84249 0.51912 0.0
H1035 H 0.81738 0.84521 0.49153 0.0
H1036 H 0.92015 0.86123 0.46686 0.0
H1037 H 0.98138 0.85778 0.49368 0.0
H1038 H 0.9662 0.87905 0.48176 0.0
H1039 H 0.84407 0.91501 0.55538 0.0
H1040 H 0.93443 0.90579 0.58785 0.0
H1041 H 0.97809 0.85994 0.54405 0.0
C1042 C 0.7675 0.87926 0.47412 0.0
C1043 C 0.71322 0.89185 0.47033 0.0
C1044 C 0.71606 0.90718 0.48452 0.0
C1045 C 0.76736 0.90913 0.50446 0.0
C1046 C 0.81609 0.89577 0.50931 0.0
C1047 C 0.81925 0.88149 0.49377 0.0
C1048 C 0.87379 0.86856 0.5041 0.0
C1049 C 0.83648 0.85131 0.50963 0.0
C1050 C 0.93929 0.86655 0.48551 0.0
C1051 C 0.89703 0.8773 0.52871 0.0
C1052 C 0.86277 0.89293 0.53141 0.0
C1053 C 0.87233 0.90294 0.55324 0.0
C1054 C 0.92217 0.89736 0.57201 0.0
C1055 C 0.96135 0.8819 0.56886 0.0
C1056 C 0.94735 0.8716 0.54719 0.0
H1057 H 0.75992 0.15383 0.46417 0.0
H1058 H 0.85661 0.10633 0.48937 0.0
H1059 H 0.77296 0.10596 0.5269 0.0
H1060 H 0.75017 0.17278 0.52102 0.0
H1061 H 0.66197 0.18323 0.51755 0.0
H1062 H 0.71592 0.17822 0.48952 0.0
H1063 H 0.60867 0.16077 0.46982 0.0
H1064 H 0.55207 0.16647 0.49695 0.0
H1065 H 0.56454 0.14437 0.48858 0.0
H1066 H 0.69666 0.11383 0.56564 0.0
H1067 H 0.60421 0.12465 0.59649 0.0
H1068 H 0.55934 0.16734 0.54602 0.0
C1069 C 0.75927 0.14271 0.47649 0.0
C1070 C 0.81278 0.12984 0.4736 0.0
C1071 C 0.81397 0.11597 0.49093 0.0
C1072 C 0.76781 0.11587 0.51257 0.0
C1073 C 0.72032 0.12963 0.5162 0.0
C1074 C 0.7133 0.14242 0.49807 0.0
C1075 C 0.66093 0.15619 0.50715 0.0
C1076 C 0.69963 0.17363 0.5089 0.0
C1077 C 0.59247 0.15698 0.48961 0.0
C1078 C 0.6418 0.14946 0.53357 0.0
C1079 C 0.67701 0.13421 0.53854 0.0
C1080 C 0.66803 0.12566 0.56183 0.0
C1081 C 0.61683 0.13215 0.57958 0.0
C1082 C 0.57543 0.14696 0.57376 0.0
C1083 C 0.59129 0.15617 0.55113 0.0
H1084 H 0.81821 0.88722 0.96766 0.0
H1085 H 0.89082 0.93452 1.00251 0.0
H1086 H 0.81067 0.92884 0.04004 0.0
H1087 H 0.62602 0.88769 0.99204 0.0
H1088 H 0.62603 0.86495 0.99692 0.0
H1089 H 0.68128 0.87413 0.97174 0.0
H1090 H 0.79717 0.85931 0.99042 0.0
H1091 H 0.74311 0.85044 1.0162 0.0
H1092 H 0.82338 0.86326 0.02327 0.0
H1093 H 0.73196 0.91667 0.07518 0.0
H1094 H 0.63695 0.90229 0.10101 0.0
H1095 H 0.62453 0.86167 0.04488 0.0
C1096 C 0.81409 0.89685 0.98246 0.0
C1097 C 0.85936 0.9115 0.98201 0.0
C1098 C 0.85503 0.92343 1.00234 0.0
C1099 C 0.81086 0.92014 0.0239 0.0
C1100 C 0.77175 0.90485 0.02472 0.0
C1101 C 0.77125 0.89362 1.00425 0.0
C1102 C 0.7267 0.8778 1.01033 0.0
C1103 C 0.66105 0.87605 0.99168 0.0
C1104 C 0.77553 0.86176 1.01003 0.0
C1105 C 0.70166 0.88193 0.03736 0.0
C1106 C 0.72917 0.89748 0.04543 0.0
C1107 C 0.71071 0.90439 0.06921 0.0
C1108 C 0.65822 0.89584 0.08423 0.0
C1109 C 0.6256 0.88047 0.07554 0.0
C1110 C 0.65072 0.87304 0.05244 0.0
H1111 H 0.6542 0.11762 0.98152 0.0
H1112 H 0.6787 0.17205 0.97108 0.0
H1113 H 0.77937 0.17254 1.00324 0.0
H1114 H 0.67529 0.1177 0.04778 0.0
H1115 H 0.72695 0.09813 0.04994 0.0
H1116 H 0.66372 0.1014 0.02367 0.0
H1117 H 0.76848 0.09617 0.99048 0.0
H1118 H 0.8312 0.09214 1.01666 0.0
H1119 H 0.85337 0.10813 0.99301 0.0
H1120 H 0.86605 0.16761 0.0401 0.0
H1121 H 0.95431 0.15642 0.07218 0.0
H1122 H 0.87225 0.10532 0.05896 0.0
C1123 C 0.68357 0.12943 0.98515 0.0
C1124 C 0.66101 0.14473 0.97348 0.0
C1125 C 0.69743 0.16017 0.97944 0.0
C1126 C 0.75361 0.16059 0.99792 0.0
C1127 C 0.77178 0.14546 1.01032 0.0
C1128 C 0.73941 0.13007 1.00371 0.0
C1129 C 0.7675 0.11575 1.0205 0.0
C1130 C 0.70459 0.10779 0.03639 0.0
C1131 C 0.80756 0.10225 1.0042 0.0
C1132 C 0.82061 0.12549 0.03752 0.0
C1133 C 0.82128 0.14265 0.03168 0.0
C1134 C 0.86619 0.15419 0.04484 0.0
C1135 C 0.91513 0.14781 0.06338 0.0
C1136 C 0.91849 0.13014 0.06832 0.0
C1137 C 0.86915 0.11896 0.05584 0.0
H1138 H 0.04963 0.16547 0.49563 0.0
H1139 H 0.09915 0.11997 0.45188 0.0
H1140 H 0.20237 0.11345 0.48112 0.0
H1141 H 0.24626 0.17562 0.51428 0.0
H1142 H 0.21712 0.18301 0.54547 0.0
H1143 H 0.15664 0.18533 0.5182 0.0
H1144 H 0.05428 0.16908 0.54341 0.0
H1145 H 0.11614 0.16636 0.57017 0.0
H1146 H 0.07344 0.14801 0.5555 0.0
H1147 H 0.28761 0.1098 0.51826 0.0
H1148 H 0.3722 0.11308 0.55493 0.0
H1149 H 0.26423 0.16022 0.57614 0.0
C1150 C 0.08506 0.15469 0.49147 0.0
C1151 C 0.06881 0.1436 0.47091 0.0
C1152 C 0.11346 0.12909 0.46666 0.0
C1153 C 0.1709 0.12506 0.48361 0.0
C1154 C 0.18217 0.13563 0.50475 0.0
C1155 C 0.14226 0.15045 0.50832 0.0
C1156 C 0.1639 0.15928 0.53308 0.0
C1157 C 0.19805 0.17684 0.52742 0.0
C1158 C 0.09795 0.16075 0.55161 0.0
C1159 C 0.22101 0.1469 0.54317 0.0
C1160 C 0.23 0.13326 0.52664 0.0
C1161 C 0.28084 0.12035 0.53144 0.0
C1162 C 0.32735 0.12206 0.55276 0.0
C1163 C 0.32218 0.13646 0.56899 0.0
C1164 C 0.26679 0.14872 0.56464 0.0
H1165 H 0.4757 0.85981 0.50374 0.0
H1166 H 0.43211 0.90605 0.46092 0.0
H1167 H 0.34323 0.9152 0.49395 0.0
H1168 H 0.28608 0.85325 0.52572 0.0
H1169 H 0.31591 0.84502 0.55635 0.0
H1170 H 0.37369 0.84245 0.52851 0.0
H1171 H 0.48074 0.85709 0.5537 0.0
H1172 H 0.42113 0.86039 0.581 0.0
H1173 H 0.46743 0.87825 0.56637 0.0
H1174 H 0.26687 0.92037 0.53319 0.0
H1175 H 0.17617 0.9168 0.56823 0.0
H1176 H 0.26602 0.86699 0.58502 0.0
C1177 C 0.44524 0.87154 0.50093 0.0
C1178 C 0.45899 0.88199 0.47941 0.0
C1179 C 0.42009 0.89752 0.47666 0.0
C1180 C 0.37114 0.90306 0.49575 0.0
C1181 C 0.36213 0.89293 0.51748 0.0
C1182 C 0.39591 0.87722 0.51975 0.0
C1183 C 0.37321 0.86834 0.54433 0.0
C1184 C 0.33489 0.85126 0.53837 0.0
C1185 C 0.43962 0.86588 0.5624 0.0
C1186 C 0.31985 0.88134 0.55517 0.0
C1187 C 0.31666 0.89574 0.5399 0.0
C1188 C 0.26903 0.90921 0.54536 0.0
C1189 C 0.21873 0.90724 0.5656 0.0
C1190 C 0.21567 0.89179 0.57948 0.0
C1191 C 0.26944 0.87914 0.57523 0.0
H1192 H 0.69754 0.60743 0.03931 0.0
H1193 H 0.72262 0.64669 0.09725 0.0
H1194 H 0.81924 0.66038 0.0714 0.0
H1195 H 0.899 0.60667 1.01911 0.0
H1196 H 0.87393 0.60307 0.98603 0.0
H1197 H 0.81636 0.59484 1.01142 0.0
H1198 H 0.70405 0.61068 0.99137 0.0
H1199 H 0.7625 0.61933 0.96661 0.0
H1200 H 0.7091 0.63342 0.98668 0.0
H1201 H 0.89452 0.67277 0.03611 0.0
H1202 H 0.97471 0.67861 0.9988 0.0
H1203 H 0.90427 0.63119 0.9636 0.0
C1204 C 0.72635 0.61838 0.04713 0.0
C1205 C 0.70374 0.62574 0.07065 0.0
C1206 C 0.74067 0.64043 0.07986 0.0
C1207 C 0.79459 0.64855 0.06496 0.0
C1208 C 0.81109 0.64176 0.04094 0.0
C1209 C 0.78041 0.62664 0.03243 0.0
C1210 C 0.80662 0.62238 1.00549 0.0
C1211 C 0.85168 0.60576 1.00552 0.0
C1212 C 0.74164 0.6214 0.98644 0.0
C1213 C 0.85515 0.6377 0.99999 0.0
C1214 C 0.85589 0.64882 1.02059 0.0
C1215 C 0.89539 0.66404 1.02001 0.0
C1216 C 0.93977 0.66738 0.99858 0.0
C1217 C 0.945 0.65546 0.97825 0.0
C1218 C 0.8998 0.64077 0.9785 0.0
H1219 H 0.56434 0.37829 0.99875 0.0
H1220 H 0.62032 0.42059 0.94911 0.0
H1221 H 0.72347 0.42839 0.97805 0.0
H1222 H 0.59078 0.39928 0.05647 0.0
H1223 H 0.62984 0.38134 0.07321 0.0
H1224 H 0.56711 0.37784 0.04698 0.0
H1225 H 0.66593 0.35918 0.02388 0.0
H1226 H 0.72675 0.36233 0.05085 0.0
H1227 H 0.75749 0.36768 1.0189 0.0
H1228 H 0.80966 0.43348 1.0149 0.0
H1229 H 0.89698 0.43091 0.05116 0.0
H1230 H 0.78315 0.38552 0.07709 0.0
C1231 C 0.60108 0.3886 0.99335 0.0
C1232 C 0.58685 0.39848 0.97133 0.0
C1233 C 0.63303 0.41245 0.96533 0.0
C1234 C 0.69038 0.4172 0.98198 0.0
C1235 C 0.69985 0.40786 1.00451 0.0
C1236 C 0.65825 0.3935 1.00978 0.0
C1237 C 0.67863 0.38586 0.0355 0.0
C1238 C 0.61258 0.38612 0.05411 0.0
C1239 C 0.70906 0.36769 0.03208 0.0
C1240 C 0.73824 0.39819 0.04396 0.0
C1241 C 0.74853 0.41098 0.02601 0.0
C1242 C 0.80219 0.42354 0.02909 0.0
C1243 C 0.85059 0.42219 0.04997 0.0
C1244 C 0.84519 0.40831 0.06719 0.0
C1245 C 0.7861 0.39669 0.06493 0.0
H1246 H 0.2597 0.37742 0.45933 0.0
H1247 H 0.14663 0.42357 0.48171 0.0
H1248 H 0.23193 0.42689 0.51848 0.0
H1249 H 0.27669 0.36051 0.51584 0.0
H1250 H 0.36833 0.35164 0.51332 0.0
H1251 H 0.31404 0.35492 0.48482 0.0
H1252 H 0.4147 0.37394 0.46443 0.0
H1253 H 0.47268 0.3698 0.4918 0.0
H1254 H 0.45301 0.39144 0.48243 0.0
H1255 H 0.31262 0.42155 0.55747 0.0
H1256 H 0.40899 0.41283 0.58872 0.0
H1257 H 0.46482 0.3698 0.54047 0.0
C1258 C 0.25728 0.38904 0.47052 0.0
C1259 C 0.19846 0.40054 0.46733 0.0
C1260 C 0.19321 0.41497 0.48349 0.0
C1261 C 0.24034 0.41672 0.50473 0.0
C1262 C 0.29298 0.40408 0.50896 0.0
C1263 C 0.30403 0.39095 0.49163 0.0
C1264 C 0.36052 0.37834 0.50137 0.0
C1265 C 0.32785 0.3603 0.50398 0.0
C1266 C 0.42937 0.3784 0.484 0.0
C1267 C 0.37695 0.38597 0.52736 0.0
C1268 C 0.33751 0.40079 0.53151 0.0
C1269 C 0.34439 0.41006 0.55428 0.0
C1270 C 0.39766 0.40479 0.57224 0.0
C1271 C 0.44255 0.39046 0.56708 0.0
C1272 C 0.42936 0.3805 0.54509 0.0
H1273 H 0.06443 0.66712 0.55296 0.0
H1274 H 0.09674 0.61793 0.58888 0.0
H1275 H 0.19404 0.61109 0.5573 0.0
H1276 H 0.07824 0.65345 0.4899 0.0
H1277 H 0.12738 0.67188 0.47824 0.0
H1278 H 0.06747 0.67377 0.50568 0.0
H1279 H 0.17652 0.68592 0.53283 0.0
H1280 H 0.2351 0.68444 0.50495 0.0
H1281 H 0.26206 0.67419 0.53449 0.0
H1282 H 0.27486 0.60814 0.51822 0.0
H1283 H 0.3596 0.61244 0.48155 0.0
H1284 H 0.27367 0.66339 0.4709 0.0
C1285 C 0.09492 0.65531 0.55492 0.0
C1286 C 0.07533 0.6433 0.57386 0.0
C1287 C 0.11363 0.62762 0.57527 0.0
C1288 C 0.16753 0.62345 0.55698 0.0
C1289 C 0.18194 0.63512 0.53744 0.0
C1290 C 0.14866 0.65097 0.5368 0.0
C1291 C 0.17317 0.6611 0.51358 0.0
C1292 C 0.10761 0.66528 0.49582 0.0
C1293 C 0.21419 0.67737 0.52196 0.0
C1294 C 0.22483 0.64841 0.50111 0.0
C1295 C 0.22805 0.63338 0.51489 0.0
C1296 C 0.27284 0.61985 0.50727 0.0
C1297 C 0.31956 0.62223 0.48607 0.0
C1298 C 0.32108 0.63802 0.47303 0.0
C1299 C 0.27129 0.651 0.48004 0.0
H1300 H 0.14413 0.40613 0.08111 0.0
H1301 H 0.03575 0.36085 0.05248 0.0
H1302 H 0.12042 0.36039 1.01518 0.0
H1303 H 0.15243 0.42643 0.02585 0.0
H1304 H 0.24174 0.43638 0.02943 0.0
H1305 H 0.18872 0.43085 0.05744 0.0
H1306 H 0.29431 0.41218 0.07546 0.0
H1307 H 0.35061 0.41864 0.04862 0.0
H1308 H 0.33682 0.39631 0.05527 0.0
H1309 H 0.20025 0.36854 0.977 0.0
H1310 H 0.29374 0.37987 0.94691 0.0
H1311 H 0.34123 0.42107 0.99986 0.0
C1312 C 0.14232 0.39537 0.06807 0.0
C1313 C 0.08519 0.38327 0.06984 0.0
C1314 C 0.08116 0.36986 0.05175 0.0
C1315 C 0.12781 0.36977 0.03021 0.0
C1316 C 0.17826 0.38309 0.02749 0.0
C1317 C 0.18768 0.39528 0.04644 0.0
C1318 C 0.24076 0.40907 0.03811 0.0
C1319 C 0.20362 0.42671 0.03769 0.0
C1320 C 0.30979 0.40904 0.05535 0.0
C1321 C 0.25818 0.40305 1.01125 0.0
C1322 C 0.22157 0.38809 1.00535 0.0
C1323 C 0.22974 0.38016 0.98154 0.0
C1324 C 0.28153 0.38694 0.96423 0.0
C1325 C 0.32374 0.40148 0.97095 0.0
C1326 C 0.30863 0.41012 0.99408 0.0
H1327 H 0.1978 0.62256 0.97288 0.0
H1328 H 0.22017 0.67716 0.96407 0.0
H1329 H 0.32235 0.67735 0.99546 0.0
H1330 H 0.21721 0.62105 0.03687 0.0
H1331 H 0.27188 0.60193 0.03923 0.0
H1332 H 0.21162 0.60501 1.01212 0.0
H1333 H 0.32094 0.6014 0.98028 0.0
H1334 H 0.38091 0.59736 1.00726 0.0
H1335 H 0.40348 0.61397 0.98466 0.0
H1336 H 0.40093 0.6726 0.03413 0.0
H1337 H 0.48123 0.66175 0.06906 0.0
H1338 H 0.41141 0.61017 0.05192 0.0
C1339 C 0.2276 0.63431 0.97636 0.0
C1340 C 0.20271 0.64981 0.96587 0.0
C1341 C 0.24017 0.66516 0.97164 0.0
C1342 C 0.29735 0.66541 0.9897 0.0
C1343 C 0.31645 0.65015 1.00151 0.0
C1344 C 0.28509 0.63476 0.99436 0.0
C1345 C 0.31315 0.62036 1.01105 0.0
C1346 C 0.24965 0.61158 0.02567 0.0
C1347 C 0.35727 0.60751 0.99486 0.0
C1348 C 0.36281 0.63017 0.02921 0.0
C1349 C 0.36313 0.64737 0.0236 0.0
C1350 C 0.40227 0.65911 0.03846 0.0
C1351 C 0.44634 0.65294 0.05855 0.0
C1352 C 0.45083 0.63526 0.06324 0.0
C1353 C 0.40729 0.6238 0.04888 0.0
H1354 H 0.76427 0.65601 0.58069 0.0
H1355 H 0.86445 0.6088 0.5557 0.0
H1356 H 0.77879 0.60764 0.51873 0.0
H1357 H 0.5686 0.64479 0.55797 0.0
H1358 H 0.55191 0.66669 0.54929 0.0
H1359 H 0.61107 0.66174 0.5761 0.0
H1360 H 0.7145 0.67986 0.55537 0.0
H1361 H 0.65789 0.68426 0.52774 0.0
H1362 H 0.74738 0.67451 0.52366 0.0
H1363 H 0.70024 0.61477 0.48042 0.0
H1364 H 0.60671 0.625 0.44959 0.0
H1365 H 0.55777 0.66766 0.49972 0.0
C1366 C 0.76438 0.64484 0.56844 0.0
C1367 C 0.81908 0.63224 0.57124 0.0
C1368 C 0.82093 0.61824 0.55417 0.0
C1369 C 0.77349 0.61767 0.5329 0.0
C1370 C 0.72409 0.63108 0.52941 0.0
C1371 C 0.71681 0.64401 0.54731 0.0
C1372 C 0.66175 0.65729 0.53846 0.0
C1373 C 0.59432 0.65764 0.5565 0.0
C1374 C 0.69759 0.67502 0.53618 0.0
C1375 C 0.64196 0.65022 0.51229 0.0
C1376 C 0.6788 0.63516 0.50736 0.0
C1377 C 0.6703 0.62644 0.48421 0.0
C1378 C 0.61844 0.6326 0.46646 0.0
C1379 C 0.57607 0.6473 0.47205 0.0
C1380 C 0.5905 0.65658 0.49475 0.0
H1381 H 0.68874 0.41204 0.5373 0.0
H1382 H 0.73832 0.37298 0.59349 0.0
H1383 H 0.83854 0.36212 0.56556 0.0
H1384 H 0.70792 0.38714 0.48279 0.0
H1385 H 0.75024 0.40357 0.46355 0.0
H1386 H 0.68908 0.40928 0.48937 0.0
H1387 H 0.79294 0.42819 0.50943 0.0
H1388 H 0.85205 0.42263 0.48291 0.0
H1389 H 0.8826 0.41896 0.51541 0.0
H1390 H 0.92273 0.35367 0.52912 0.0
H1391 H 0.00934 0.35319 0.4924 0.0
H1392 H 0.90061 0.39725 0.45984 0.0
C1393 C 0.72315 0.40171 0.54421 0.0
C1394 C 0.70704 0.39347 0.56758 0.0
C1395 C 0.7514 0.37971 0.57589 0.0
C1396 C 0.80714 0.37323 0.55988 0.0
C1397 C 0.81723 0.38076 0.53585 0.0
C1398 C 0.77828 0.39507 0.52846 0.0
C1399 C 0.79912 0.40077 0.50169 0.0
C1400 C 0.73254 0.40013 0.4833 0.0
C1401 C 0.83379 0.41869 0.5024 0.0
C1402 C 0.85545 0.38729 0.49494 0.0
C1403 C 0.86437 0.37572 0.51476 0.0
C1404 C 0.91603 0.36261 0.51345 0.0
C1405 C 0.96389 0.36219 0.4923 0.0
C1406 C 0.95964 0.37483 0.473 0.0
C1407 C 0.90231 0.38693 0.47364 0.0
H1408 H 0.23917 0.04743 0.1314 0.0
H1409 H 0.01791 0.03003 0.11197 0.0
H1410 H 0.06604 1.00119 0.10415 0.0
H1411 H 0.33699 0.02087 0.08387 0.0
H1412 H 0.41356 0.01687 0.10521 0.0
H1413 H 0.36253 0.03652 0.10766 0.0
H1414 H 0.33755 0.03035 0.15578 0.0
H1415 H 0.38774 1.01061 0.15342 0.0
H1416 H 0.29366 1.0106 0.16487 0.0
H1417 H 0.13589 0.97375 0.1011 0.0
H1418 H 0.22493 0.94992 0.10081 0.0
H1419 H 0.40091 0.98501 0.12174 0.0
C1420 C 0.20108 0.0377 0.12487 0.0
C1421 C 0.12464 0.0411 0.1222 0.0
C1422 C 0.07664 0.02778 0.11427 0.0
C1423 C 0.1034 1.01132 0.1097 0.0
C1424 C 0.17853 1.0083 0.11304 0.0
C1425 C 0.22691 0.02112 0.1202 0.0
C1426 C 0.30475 0.01426 0.12326 0.0
C1427 C 0.35757 0.02263 0.10384 0.0
C1428 C 0.33252 0.01659 0.15098 0.0
C1429 C 0.29214 0.9956 0.11702 0.0
C1430 C 0.21895 0.99243 0.11119 0.0
C1431 C 0.19351 0.97606 0.10553 0.0
C1432 C 0.24441 0.96257 0.10567 0.0
C1433 C 0.31992 0.96553 0.11145 0.0
C1434 C 0.34368 0.98232 0.11709 0.0
H1435 H 0.88516 0.03457 0.43677 0.0
H1436 H 0.74181 0.06432 0.38684 0.0
H1437 H 0.66477 0.03906 0.37953 0.0
H1438 H 0.8771 0.99567 0.39864 0.0
H1439 H 0.87765 0.98191 0.42636 0.0
H1440 H 0.92291 1.00236 0.42772 0.0
H1441 H 0.84455 1.01054 0.46752 0.0
H1442 H 0.79937 0.99011 0.46637 0.0
H1443 H 0.74509 1.00936 0.46569 0.0
H1444 H 0.59903 1.01115 0.37922 0.0
H1445 H 0.54997 0.98209 0.38561 0.0
H1446 H 0.73885 0.96966 0.4334 0.0
C1447 C 0.83781 0.03584 0.42418 0.0
C1448 C 0.81929 0.05172 0.41293 0.0
C1449 C 0.75668 0.05263 0.39651 0.0
C1450 C 0.71274 0.03822 0.3919 0.0
C1451 C 0.73244 0.02289 0.40347 0.0
C1452 C 0.79367 0.02155 0.41916 0.0
C1453 C 0.80198 1.00357 0.4295 0.0
C1454 C 0.87421 0.9954 0.41998 0.0
C1455 C 0.79745 1.00339 0.45902 0.0
C1456 C 0.73504 0.99508 0.41748 0.0
C1457 C 0.69584 1.0065 0.40251 0.0
C1458 C 0.62971 1.00203 0.3906 0.0
C1459 C 0.60228 0.98553 0.39436 0.0
C1460 C 0.6412 0.97363 0.40967 0.0
C1461 C 0.70901 0.9784 0.42109 0.0
H1462 H 0.85203 0.99451 0.89394 0.0
H1463 H 0.76115 0.96458 0.95669 0.0
H1464 H 0.69317 0.9899 0.97191 0.0
H1465 H 0.87707 0.03354 0.92971 0.0
H1466 H 0.85153 0.04704 0.90315 0.0
H1467 H 0.8936 0.02661 0.89718 0.0
H1468 H 0.78268 0.01788 0.8685 0.0
H1469 H 0.74082 0.03835 0.8741 0.0
H1470 H 0.69018 0.01913 0.88129 0.0
H1471 H 0.63401 0.01847 0.98003 0.0
H1472 H 0.58103 0.04739 0.97873 0.0
H1473 H 0.71192 0.05891 0.91105 0.0
C1474 C 0.81797 0.99321 0.91094 0.0
C1475 C 0.81172 0.97739 0.92391 0.0
C1476 C 0.76604 0.97635 0.946 0.0
C1477 C 0.7278 0.99076 0.95501 0.0
C1478 C 0.73596 1.00614 0.94183 0.0
C1479 C 0.77957 1.00742 0.92017 0.0
C1480 C 0.77748 0.0253 0.90907 0.0
C1481 C 0.85451 0.03361 0.90983 0.0
C1482 C 0.74589 0.02515 0.88162 0.0
C1483 C 0.7251 0.0339 0.92772 0.0
C1484 C 0.70234 0.02264 0.9466 0.0
C1485 C 0.6518 0.02739 0.96544 0.0
C1486 C 0.62212 0.04388 0.96454 0.0
C1487 C 0.64285 0.05552 0.94497 0.0
C1488 C 0.69631 0.05052 0.92664 0.0
H1489 H 0.14942 0.98025 0.59162 0.0
H1490 H 0.20421 0.96705 0.67016 0.0
H1491 H 0.26117 0.99558 0.67622 0.0
H1492 H 0.31955 1.00342 0.57878 0.0
H1493 H 0.27424 0.0188 0.55846 0.0
H1494 H 0.23803 0.99748 0.56093 0.0
H1495 H 0.11075 1.00981 0.57432 0.0
H1496 H 0.147 0.03116 0.57236 0.0
H1497 H 0.10499 0.0238 0.60174 0.0
H1498 H 0.30475 0.0266 0.67405 0.0
H1499 H 0.35003 0.05536 0.66177 0.0
H1500 H 0.27442 0.04695 0.58383 0.0
C1501 C 0.17415 0.98334 0.61 0.0
C1502 C 0.17276 0.97153 0.63043 0.0
C1503 C 0.20564 0.97591 0.65421 0.0
C1504 C 0.23736 0.99211 0.65787 0.0
C1505 C 0.23658 1.00362 0.63741 0.0
C1506 C 0.2073 0.99925 0.61377 0.0
C1507 C 0.21593 0.01355 0.59451 0.0
C1508 C 0.26487 1.00798 0.57184 0.0
C1509 C 0.14015 0.01995 0.58519 0.0
C1510 C 0.25423 0.02676 0.611 0.0
C1511 C 0.26452 0.02097 0.63583 0.0
C1512 C 0.29737 0.03119 0.65462 0.0
C1513 C 0.32225 0.04754 0.64759 0.0
C1514 C 0.31507 0.05329 0.62196 0.0
C1515 C 0.28007 0.04282 0.60359 0.0
H1516 H 0.74995 0.46779 0.14141 0.0
H1517 H 0.94231 0.48071 0.09568 0.0
H1518 H 0.89179 0.5095 0.08822 0.0
H1519 H 0.61243 0.49401 0.10476 0.0
H1520 H 0.56466 0.50015 0.13371 0.0
H1521 H 0.60992 0.47972 0.13187 0.0
H1522 H 0.68488 0.48709 0.17284 0.0
H1523 H 0.6408 0.50759 0.17461 0.0
H1524 H 0.74025 0.50621 0.17348 0.0
H1525 H 0.82796 0.53764 0.08964 0.0
H1526 H 0.75318 0.56311 0.09883 0.0
H1527 H 0.60429 0.53235 0.14519 0.0
C1528 C 0.77981 0.4765 0.12904 0.0
C1529 C 0.84929 0.47203 0.11873 0.0
C1530 C 0.88855 0.48392 0.10349 0.0
C1531 C 0.86032 0.50027 0.09914 0.0
C1532 C 0.79287 0.50454 0.11029 0.0
C1533 C 0.75275 0.49299 0.12477 0.0
C1534 C 0.68535 0.50135 0.13659 0.0
C1535 C 0.61385 0.49333 0.1261 0.0
C1536 C 0.68804 0.50051 0.16612 0.0
C1537 C 0.69506 0.51945 0.12703 0.0
C1538 C 0.75695 0.52098 0.11168 0.0
C1539 C 0.77905 0.5366 0.10152 0.0
C1540 C 0.73663 0.55108 0.10717 0.0
C1541 C 0.67321 0.54986 0.1231 0.0
C1542 C 0.65218 0.53374 0.13287 0.0
H1543 H 0.11557 0.49093 0.42567 0.0
H1544 H 0.29363 0.46023 0.39356 0.0
H1545 H 0.3708 0.4858 0.39038 0.0
H1546 H 0.148 0.52839 0.38589 0.0
H1547 H 0.12589 0.54302 0.41147 0.0
H1548 H 0.08275 0.52231 0.41043 0.0
H1549 H 0.1296 0.51598 0.4565 0.0
H1550 H 0.1724 0.53667 0.45774 0.0
H1551 H 0.22694 0.51784 0.46349 0.0
H1552 H 0.43274 0.51439 0.39358 0.0
H1553 H 0.47366 0.54382 0.40301 0.0
H1554 H 0.25417 0.55629 0.43053 0.0
C1555 C 0.17052 0.48942 0.41773 0.0
C1556 C 0.19769 0.4732 0.41019 0.0
C1557 C 0.27049 0.47216 0.40001 0.0
C1558 C 0.31509 0.48676 0.39785 0.0
C1559 C 0.28625 0.5024 0.4056 0.0
C1560 C 0.21551 0.50384 0.41524 0.0
C1561 C 0.19836 0.52204 0.42301 0.0
C1562 C 0.13499 0.52937 0.40672 0.0
C1563 C 0.18082 0.52319 0.4519 0.0
C1564 C 0.2712 0.53062 0.41669 0.0
C1565 C 0.32108 0.51904 0.40658 0.0
C1566 C 0.39378 0.52361 0.40102 0.0
C1567 C 0.41648 0.54033 0.40639 0.0
C1568 C 0.36652 0.55232 0.4169 0.0
C1569 C 0.29263 0.54748 0.4217 0.0
H1570 H 0.28078 0.47695 0.94003 0.0
H1571 H 0.35883 0.48174 0.86175 0.0
H1572 H 0.30233 0.51038 0.85878 0.0
H1573 H 0.10432 0.50132 0.9315 0.0
H1574 H 0.11213 0.51108 0.96274 0.0
H1575 H 0.14941 0.49009 0.95733 0.0
H1576 H 0.27717 0.50048 0.97352 0.0
H1577 H 0.24073 0.52155 0.9786 0.0
H1578 H 0.32045 0.51856 0.9583 0.0
H1579 H 0.24755 0.5396 0.86574 0.0
H1580 H 0.19449 0.56656 0.88128 0.0
H1581 H 0.1557 0.5433 0.95588 0.0
C1582 C 0.28315 0.4838 0.92199 0.0
C1583 C 0.322 0.477 0.9008 0.0
C1584 C 0.32741 0.4866 0.87789 0.0
C1585 C 0.2959 0.50291 0.8761 0.0
C1586 C 0.25953 0.50951 0.89752 0.0
C1587 C 0.25237 0.50021 0.91998 0.0
C1588 C 0.21538 0.51077 0.94076 0.0
C1589 C 0.14088 0.50284 0.94854 0.0
C1590 C 0.2665 0.51297 0.96417 0.0
C1591 C 0.20444 0.52753 0.92668 0.0
C1592 C 0.22978 0.52651 0.90173 0.0
C1593 C 0.22728 0.54052 0.88525 0.0
C1594 C 0.19769 0.55594 0.89444 0.0
C1595 C 0.17137 0.55737 0.92005 0.0
C1596 C 0.1749 0.5428 0.93619 0.0
H1597 H 0.90285 0.53372 0.62799 0.0
H1598 H 0.74061 0.566 0.59045 0.0
H1599 H 0.65851 0.54114 0.58484 0.0
H1600 H 0.87245 0.4958 0.58882 0.0
H1601 H 0.88345 0.48135 0.61546 0.0
H1602 H 0.93153 0.50148 0.61539 0.0
H1603 H 0.87297 0.50914 0.65934 0.0
H1604 H 0.82516 0.48901 0.65961 0.0
H1605 H 0.77379 0.50857 0.66285 0.0
H1606 H 0.59264 0.5132 0.58449 0.0
H1607 H 0.5437 0.48429 0.59133 0.0
H1608 H 0.74769 0.46997 0.62975 0.0
C1609 C 0.85031 0.53553 0.61837 0.0
C1610 C 0.82797 0.55184 0.60983 0.0
C1611 C 0.75847 0.55371 0.59757 0.0
C1612 C 0.71175 0.53963 0.59406 0.0
C1613 C 0.7353 0.52376 0.60288 0.0
C1614 C 0.80275 0.52163 0.61489 0.0
C1615 C 0.81309 0.50336 0.62375 0.0
C1616 C 0.87905 0.49501 0.61003 0.0
C1617 C 0.82173 0.50248 0.65313 0.0
C1618 C 0.74048 0.49559 0.61507 0.0
C1619 C 0.69688 0.50758 0.60286 0.0
C1620 C 0.6264 0.50369 0.59391 0.0
C1621 C 0.59907 0.48721 0.59796 0.0
C1622 C 0.64186 0.47475 0.61094 0.0
C1623 C 0.71407 0.479 0.61926 0.0
H1624 H 0.9883 0.22108 0.08459 0.0
H1625 H 0.02534 0.21045 0.16516 0.0
H1626 H 0.01153 0.2413 0.17512 0.0
H1627 H 0.08755 0.25901 0.08113 0.0
H1628 H 0.0248 0.26957 0.05946 0.0
H1629 H 0.03182 0.2467 0.05918 0.0
H1630 H 0.89085 0.24389 0.06729 0.0
H1631 H 0.88302 0.26676 0.06691 0.0
H1632 H 0.84975 0.25485 0.09418 0.0
H1633 H 0.0059 0.27427 0.1748 0.0
H1634 H 0.98924 0.3051 0.16533 0.0
H1635 H 0.95167 0.29298 0.08517 0.0
C1636 C 0.99142 0.22522 0.10442 0.0
C1637 C 0.00678 0.21348 0.1242 0.0
C1638 C 0.01195 0.21928 0.14988 0.0
C1639 C 0.00503 0.23677 0.1556 0.0
C1640 C 0.9922 0.24815 0.13542 0.0
C1641 C 0.9837 0.24247 0.11043 0.0
C1642 C 0.9706 0.25706 0.09204 0.0
C1643 C 0.03238 0.25814 0.07177 0.0
C1644 C 0.89399 0.25555 0.07937 0.0
C1645 C 0.97398 0.27194 0.11043 0.0
C1646 C 0.98728 0.26668 0.13535 0.0
C1647 C 0.99476 0.27845 0.15537 0.0
C1648 C 0.98609 0.29593 0.14982 0.0
C1649 C 0.96944 0.30135 0.12453 0.0
C1650 C 0.9643 0.28916 0.10469 0.0
H1651 H 0.5567 0.7995 0.1237 0.0
H1652 H 0.35733 0.7986 0.17032 0.0
H1653 H 0.3593 0.76735 0.17032 0.0
H1654 H 0.51242 0.76374 0.08476 0.0
H1655 H 0.60493 0.75523 0.08371 0.0
H1656 H 0.59089 0.77779 0.08788 0.0
H1657 H 0.6684 0.77727 0.12974 0.0
H1658 H 0.68372 0.75477 0.12546 0.0
H1659 H 0.64407 0.76256 0.15498 0.0
H1660 H 0.37727 0.73633 0.16362 0.0
H1661 H 0.41962 0.70708 0.15469 0.0
H1662 H 0.60877 0.7274 0.1133 0.0
C1663 C 0.51447 0.79275 0.13437 0.0
C1664 C 0.4567 0.80161 0.14693 0.0
C1665 C 0.40183 0.79218 0.16031 0.0
C1666 C 0.4023 0.77437 0.16046 0.0
C1667 C 0.45832 0.76603 0.14728 0.0
C1668 C 0.51417 0.77482 0.13483 0.0
C1669 C 0.56776 0.76252 0.12221 0.0
C1670 C 0.56904 0.76497 0.0929 0.0
C1671 C 0.64559 0.76439 0.1338 0.0
C1672 C 0.53284 0.74558 0.12947 0.0
C1673 C 0.46941 0.74793 0.14374 0.0
C1674 C 0.42699 0.73427 0.15248 0.0
C1675 C 0.45104 0.71767 0.14703 0.0
C1676 C 0.51712 0.71488 0.13304 0.0
C1677 C 0.55792 0.7291 0.12399 0.0
H1678 H 0.56013 0.72234 0.39458 0.0
H1679 H 0.34784 0.7204 0.43299 0.0
H1680 H 0.35506 0.75134 0.44165 0.0
H1681 H 0.64509 0.75689 0.4348 0.0
H1682 H 0.68973 0.76632 0.40729 0.0
H1683 H 0.67381 0.74365 0.40831 0.0
H1684 H 0.60391 0.74551 0.36493 0.0
H1685 H 0.61854 0.76817 0.36396 0.0
H1686 H 0.526 0.75971 0.36199 0.0
H1687 H 0.37925 0.78298 0.44196 0.0
H1688 H 0.41886 0.81253 0.4346 0.0
H1689 H 0.61242 0.79384 0.39363 0.0
C1690 C 0.51685 0.72836 0.40574 0.0
C1691 C 0.45429 0.71902 0.4137 0.0
C1692 C 0.39681 0.72738 0.42719 0.0
C1693 C 0.40039 0.74493 0.43214 0.0
C1694 C 0.46161 0.75396 0.42327 0.0
C1695 C 0.51906 0.74595 0.41048 0.0
C1696 C 0.57466 0.75881 0.4006 0.0
C1697 C 0.6503 0.75626 0.41353 0.0
C1698 C 0.5811 0.758 0.37113 0.0
C1699 C 0.53863 0.77525 0.40929 0.0
C1700 C 0.47403 0.77222 0.42259 0.0
C1701 C 0.43009 0.78552 0.43168 0.0
C1702 C 0.45291 0.80239 0.42709 0.0
C1703 C 0.51884 0.80585 0.4132 0.0
C1704 C 0.5619 0.79191 0.40441 0.0
H1705 H 0.94777 0.30416 0.40331 0.0
H1706 H 0.17193 0.30436 0.43262 0.0
H1707 H 0.16203 0.27364 0.44254 0.0
H1708 H 0.87092 0.27041 0.4475 0.0
H1709 H 0.81607 0.26135 0.42199 0.0
H1710 H 0.83547 0.28389 0.42231 0.0
H1711 H 0.89001 0.28154 0.37641 0.0
H1712 H 0.87193 0.25901 0.37607 0.0
H1713 H 0.96436 0.26677 0.37038 0.0
H1714 H 0.13339 0.24232 0.44406 0.0
H1715 H 0.08852 0.21308 0.4374 0.0
H1716 H 0.88548 0.23327 0.40446 0.0
C1717 C 0.99333 0.29784 0.41288 0.0
C1718 C 0.05994 0.30658 0.41782 0.0
C1719 C 0.12002 0.29784 0.42917 0.0
C1720 C 0.11489 0.28042 0.43485 0.0
C1721 C 0.04942 0.27194 0.42885 0.0
C1722 C 0.98949 0.28038 0.41826 0.0
C1723 C 0.92911 0.26799 0.4107 0.0
C1724 C 0.85873 0.2711 0.42658 0.0
C1725 C 0.91297 0.26888 0.38167 0.0
C1726 C 0.9654 0.25128 0.41792 0.0
C1727 C 0.03417 0.25381 0.42873 0.0
C1728 C 0.07929 0.24018 0.43576 0.0
C1729 C 0.05347 0.22352 0.43154 0.0
C1730 C 0.98346 0.22061 0.41998 0.0
C1731 C 0.93905 0.23483 0.41345 0.0
H1732 H 0.0263 0.80899 0.90122 0.0
H1733 H 0.91071 0.80715 0.97413 0.0
H1734 H 0.92451 0.77586 0.97516 0.0
H1735 H 0.94228 0.77274 0.8751 0.0
H1736 H 0.02279 0.76499 0.85837 0.0
H1737 H 0.01298 0.78743 0.86471 0.0
H1738 H 0.13944 0.78777 0.8881 0.0
H1739 H 0.15016 0.76536 0.8815 0.0
H1740 H 0.15591 0.77306 0.91408 0.0
H1741 H 0.94177 0.74454 0.96671 0.0
H1742 H 0.96537 0.71565 0.95016 0.0
H1743 H 0.06571 0.73756 0.88181 0.0
C1744 C 0.00629 0.80202 0.91779 0.0
C1745 C 0.96859 0.81052 0.93785 0.0
C1746 C 0.94053 0.8009 0.95873 0.0
C1747 C 0.94796 0.78312 0.95946 0.0
C1748 C 0.98329 0.77503 0.93906 0.0
C1749 C 0.01254 0.78415 0.91869 0.0
C1750 C 0.04335 0.7722 0.89841 0.0
C1751 C 1.00292 0.77448 0.87263 0.0
C1752 C 0.1272 0.77475 0.89535 0.0
C1753 C 0.02581 0.75502 0.91041 0.0
C1754 C 0.99157 0.75693 0.93391 0.0
C1755 C 0.96872 0.74288 0.94831 0.0
C1756 C 0.98166 0.72644 0.93854 0.0
C1757 C 0.01669 0.7241 0.9144 0.0
C1758 C 0.03898 0.73873 0.90034 0.0
H1759 H 0.57974 0.23475 0.88845 0.0
H1760 H 0.43548 0.21517 0.94839 0.0
H1761 H 0.40826 0.24462 0.96193 0.0
H1762 H 0.65513 0.27016 0.92527 0.0
H1763 H 0.65766 0.28427 0.89796 0.0
H1764 H 0.66779 0.26162 0.89341 0.0
H1765 H 0.55784 0.26159 0.86148 0.0
H1766 H 0.54798 0.28424 0.86569 0.0
H1767 H 0.47022 0.27035 0.8714 0.0
H1768 H 0.39203 0.27632 0.96762 0.0
H1769 H 0.38297 0.30761 0.96355 0.0
H1770 H 0.54126 0.30668 0.90108 0.0
C1771 C 0.54271 0.23655 0.90458 0.0
C1772 C 0.50936 0.22243 0.91711 0.0
C1773 C 0.46083 0.22557 0.93799 0.0
C1774 C 0.44567 0.24232 0.94607 0.0
C1775 C 0.47979 0.25585 0.93327 0.0
C1776 C 0.52719 0.25313 0.91292 0.0
C1777 C 0.55454 0.26985 0.90172 0.0
C1778 C 0.63879 0.27157 0.90478 0.0
C1779 C 0.53122 0.27161 0.8734 0.0
C1780 C 0.51409 0.2825 0.91867 0.0
C1781 C 0.47173 0.27412 0.93689 0.0
C1782 C 0.42578 0.28298 0.95369 0.0
C1783 C 0.42123 0.30076 0.95131 0.0
C1784 C 0.46268 0.30958 0.93241 0.0
C1785 C 0.51097 0.30033 0.91626 0.0
H1786 H 0.52273 0.22245 0.62343 0.0
H1787 H 0.31734 0.22601 0.66662 0.0
H1788 H 0.32634 0.25715 0.66604 0.0
H1789 H 0.61398 0.25779 0.65577 0.0
H1790 H 0.65989 0.26516 0.62711 0.0
H1791 H 0.63767 0.2429 0.6307 0.0
H1792 H 0.5659 0.2437 0.58763 0.0
H1793 H 0.58719 0.266 0.58406 0.0
H1794 H 0.49233 0.25893 0.58341 0.0
H1795 H 0.35499 0.28794 0.66065 0.0
H1796 H 0.40752 0.31648 0.65335 0.0
H1797 H 0.59503 0.29356 0.61421 0.0
C1798 C 0.48018 0.2297 0.63311 0.0
C1799 C 0.41918 0.22155 0.64502 0.0
C1800 C 0.36436 0.23177 0.65708 0.0
C1801 C 0.36883 0.24955 0.65693 0.0
C1802 C 0.42865 0.25714 0.64472 0.0
C1803 C 0.48381 0.24761 0.63325 0.0
C1804 C 0.54256 0.25914 0.62177 0.0
C1805 C 0.61799 0.25606 0.63461 0.0
C1806 C 0.54724 0.2568 0.59248 0.0
C1807 C 0.51162 0.27653 0.6287 0.0
C1808 C 0.44557 0.27506 0.64176 0.0
C1809 C 0.40661 0.2893 0.65032 0.0
C1810 C 0.43661 0.30552 0.64582 0.0
C1811 C 0.50511 0.3074 0.63287 0.0
C1812 C 0.54247 0.29262 0.62409 0.0
H1813 H 0.90209 0.72979 0.65567 0.0
H1814 H 0.07526 0.70996 0.60601 0.0
H1815 H 0.112 0.73933 0.59528 0.0
H1816 H 0.85215 0.76594 0.61505 0.0
H1817 H 0.83532 0.77973 0.64213 0.0
H1818 H 0.82033 0.7571 0.64505 0.0
H1819 H 0.90942 0.75602 0.68405 0.0
H1820 H 0.92396 0.77863 0.68142 0.0
H1821 H 1.00193 0.76434 0.68076 0.0
H1822 H 0.13557 0.7709 0.5924 0.0
H1823 H 0.14684 0.80199 0.59898 0.0
H1824 H 0.95439 0.80126 0.64851 0.0
C1825 C 0.94742 0.7315 0.64232 0.0
C1826 C 0.98607 0.71736 0.63201 0.0
C1827 C 0.0454 0.72039 0.61476 0.0
C1828 C 0.06618 0.7371 0.60822 0.0
C1829 C 0.02664 0.75066 0.6188 0.0
C1830 C 0.96845 0.74802 0.63547 0.0
C1831 C 0.93692 0.76472 0.64515 0.0
C1832 C 0.8564 0.767 0.63631 0.0
C1833 C 0.9435 0.766 0.67458 0.0
C1834 C 0.98771 0.77725 0.63182 0.0
C1835 C 0.03869 0.76887 0.61651 0.0
C1836 C 0.09511 0.7776 0.60391 0.0
C1837 C 0.10093 0.79524 0.60768 0.0
C1838 C 0.05034 0.80398 0.6237 0.0
C1839 C 0.99199 0.79494 0.63542 0.0
H1840 H 0.97486 0.15514 0.32418 0.0
H1841 H 0.93712 0.10134 0.33786 0.0
H1842 H 0.96423 0.09522 0.29216 0.0
H1843 H 0.88613 0.15541 0.26066 0.0
H1844 H 0.94939 0.17095 0.24768 0.0
H1845 H 0.92807 0.17103 0.2815 0.0
H1846 H 0.06774 0.16885 0.29202 0.0
H1847 H 0.08944 0.16855 0.25824 0.0
H1848 H 0.12109 0.15155 0.27876 0.0
H1849 H 0.00668 0.09469 0.2464 0.0
H1850 H 0.03982 0.10002 0.20111 0.0
H1851 H 0.0354 0.1545 0.21498 0.0
C1852 C 0.97175 0.14211 0.3174 0.0
C1853 C 0.95425 0.12865 0.33444 0.0
C1854 C 0.95003 0.11178 0.32501 0.0
C1855 C 0.96582 0.1082 0.29917 0.0
C1856 C 0.98394 0.1217 0.2829 0.0
C1857 C 0.98502 0.13837 0.29142 0.0
C1858 C 1.00278 0.15055 0.26956 0.0
C1859 C 0.93771 0.1627 0.26455 0.0
C1860 C 0.07453 0.16046 0.27498 0.0
C1861 C 0.01283 0.13808 0.24752 0.0
C1862 C 1.00305 0.12149 0.25586 0.0
C1863 C 0.01338 0.10762 0.23956 0.0
C1864 C 0.03276 0.11077 0.21394 0.0
C1865 C 0.04008 0.12764 0.20464 0.0
C1866 C 0.02984 0.14149 0.22165 0.0
H1867 H 0.59773 0.88673 0.21406 0.0
H1868 H 0.37676 0.9079 0.20691 0.0
H1869 H 0.37377 0.91297 0.25365 0.0
H1870 H 0.56841 0.86475 0.27181 0.0
H1871 H 0.65852 0.86904 0.28515 0.0
H1872 H 0.64627 0.86835 0.25085 0.0
H1873 H 0.7011 0.89875 0.24692 0.0
H1874 H 0.71374 0.89953 0.28126 0.0
H1875 H 0.66117 0.91591 0.26529 0.0
H1876 H 0.38868 0.91284 0.30134 0.0
H1877 H 0.4234 0.90898 0.34684 0.0
H1878 H 0.63716 0.8893 0.32356 0.0
C1879 C 0.54906 0.89266 0.22223 0.0
C1880 C 0.48743 0.89692 0.20668 0.0
C1881 C 0.42483 0.90459 0.21827 0.0
C1882 C 0.42256 0.90752 0.24486 0.0
C1883 C 0.48366 0.90292 0.25962 0.0
C1884 C 0.54612 0.89583 0.24874 0.0
C1885 C 0.60315 0.89148 0.26913 0.0
C1886 C 0.62004 0.87227 0.26923 0.0
C1887 C 0.67398 0.90205 0.26542 0.0
C1888 C 0.56216 0.89682 0.29325 0.0
C1889 C 0.49332 0.9034 0.28726 0.0
C1890 C 0.44291 0.90802 0.30625 0.0
C1891 C 0.46302 0.90573 0.33202 0.0
C1892 C 0.53322 0.89907 0.33865 0.0
C1893 C 0.58384 0.8948 0.31899 0.0
H1894 H 0.12911 0.8889 0.7272 0.0
H1895 H 0.90781 0.89986 0.69954 0.0
H1896 H 0.86232 0.90112 0.74409 0.0
H1897 H 0.07226 0.86124 0.77765 0.0
H1898 H 0.14152 0.86807 0.80036 0.0
H1899 H 0.15959 0.86946 0.76639 0.0
H1900 H 0.1877 0.9017 0.77087 0.0
H1901 H 0.17056 0.90035 0.80492 0.0
H1902 H 0.12019 0.91548 0.78562 0.0
H1903 H 0.8387 0.90015 0.79086 0.0
H1904 H 0.83855 0.89751 0.83799 0.0
H1905 H 0.07358 0.88606 0.83656 0.0
C1906 C 0.07155 0.89193 0.73066 0.0
C1907 C 0.022 0.89443 0.70997 0.0
C1908 C 0.94663 0.89795 0.71514 0.0
C1909 C 0.92023 0.89869 0.74037 0.0
C1910 C 0.96972 0.89574 0.76033 0.0
C1911 C 0.04379 0.89247 0.75591 0.0
C1912 C 0.08387 0.88898 0.78103 0.0
C1913 C 0.11621 0.87086 0.78137 0.0
C1914 C 0.14415 0.90243 0.7859 0.0
C1915 C 0.02061 0.89073 0.80008 0.0
C1916 C 0.95547 0.89472 0.78763 0.0
C1917 C 0.88938 0.89706 0.80089 0.0
C1918 C 0.88987 0.89551 0.82768 0.0
C1919 C 0.95591 0.89153 0.84105 0.0
C1920 C 0.02202 0.88896 0.82693 0.0
H1921 H 0.50289 0.15231 0.82773 0.0
H1922 H 0.52006 0.09835 0.84406 0.0
H1923 H 0.49991 0.09188 0.7978 0.0
H1924 H 0.36482 0.15044 0.77903 0.0
H1925 H 0.4064 0.16676 0.7594 0.0
H1926 H 0.42019 0.16692 0.79367 0.0
H1927 H 0.5623 0.16681 0.78707 0.0
H1928 H 0.54894 0.16682 0.75278 0.0
H1929 H 0.60394 0.1504 0.76763 0.0
H1930 H 0.46853 0.09169 0.74948 0.0
H1931 H 0.44853 0.09784 0.70312 0.0
H1932 H 0.46569 0.15192 0.71878 0.0
C1933 C 0.50252 0.13914 0.82149 0.0
C1934 C 0.51229 0.12578 0.8393 0.0
C1935 C 0.51267 0.10871 0.83056 0.0
C1936 C 0.50088 0.10495 0.8044 0.0
C1937 C 0.49055 0.11845 0.78727 0.0
C1938 C 0.49301 0.13522 0.79547 0.0
C1939 C 0.48432 0.14747 0.77323 0.0
C1940 C 0.41479 0.15854 0.77654 0.0
C1941 C 0.55403 0.15852 0.76999 0.0
C1942 C 0.47557 0.13504 0.75121 0.0
C1943 C 0.47797 0.11834 0.75963 0.0
C1944 C 0.46762 0.10472 0.74268 0.0
C1945 C 0.4559 0.1083 0.71647 0.0
C1946 C 0.45639 0.12531 0.70748 0.0
C1947 C 0.46607 0.13878 0.72515 0.0
H1948 H 0.62838 0.63595 0.22145 0.0
H1949 H 0.41445 0.61815 0.19476 0.0
H1950 H 0.37553 0.61317 0.23949 0.0
H1951 H 0.64506 0.6072 0.27698 0.0
H1952 H 0.6856 0.62326 0.29738 0.0
H1953 H 0.69999 0.62404 0.26313 0.0
H1954 H 0.64803 0.65479 0.26196 0.0
H1955 H 0.63377 0.65411 0.29618 0.0
H1956 H 0.55757 0.65897 0.27509 0.0
H1957 H 0.35734 0.6109 0.28689 0.0
H1958 H 0.35768 0.61366 0.33408 0.0
H1959 H 0.58089 0.63412 0.33091 0.0
C1960 C 0.57382 0.63079 0.22509 0.0
C1961 C 0.52455 0.62737 0.2046 0.0
C1962 C 0.45303 0.62093 0.21014 0.0
C1963 C 0.4305 0.61795 0.23549 0.0
C1964 C 0.47979 0.6216 0.25528 0.0
C1965 C 0.54975 0.62801 0.25048 0.0
C1966 C 0.58951 0.63201 0.27548 0.0
C1967 C 0.65917 0.62097 0.27841 0.0
C1968 C 0.6083 0.6511 0.27728 0.0
C1969 C 0.53068 0.62701 0.29494 0.0
C1970 C 0.46831 0.6208 0.28284 0.0
C1971 C 0.406 0.61569 0.29662 0.0
C1972 C 0.4068 0.61727 0.32349 0.0
C1973 C 0.4692 0.6241 0.33638 0.0
C1974 C 0.53229 0.62879 0.32177 0.0
H1975 H 0.06213 0.38036 0.21009 0.0
H1976 H 0.82834 0.39304 0.20769 0.0
H1977 H 0.83024 0.39888 0.25409 0.0
H1978 H 0.0583 0.35961 0.27272 0.0
H1979 H 0.14735 0.36779 0.28227 0.0
H1980 H 0.12757 0.3642 0.24878 0.0
H1981 H 0.16156 0.39561 0.23899 0.0
H1982 H 0.18018 0.39937 0.27253 0.0
H1983 H 0.11423 0.4125 0.25574 0.0
H1984 H 0.85565 0.40357 0.30005 0.0
H1985 H 0.9017 0.4047 0.34457 0.0
H1986 H 0.12004 0.38973 0.31845 0.0
C1987 C 0.01116 0.38412 0.21943 0.0
C1988 C 0.94502 0.38623 0.20519 0.0
C1989 C 0.87971 0.39137 0.2181 0.0
C1990 C 0.88022 0.39478 0.24447 0.0
C1991 C 0.9465 0.39306 0.25777 0.0
C1992 C 0.01069 0.38769 0.24588 0.0
C1993 C 0.07417 0.38684 0.26498 0.0
C1994 C 0.10356 0.36852 0.26733 0.0
C1995 C 0.1362 0.39933 0.25761 0.0
C1996 C 0.03525 0.39247 0.28942 0.0
C1997 C 0.96168 0.39605 0.28463 0.0
C1998 C 0.9132 0.40089 0.30406 0.0
C1999 C 0.9399 0.40156 0.32924 0.0
C2000 C 0.01449 0.39753 0.33483 0.0
C2001 C 0.06326 0.39329 0.31458 0.0
H2002 H 0.44529 0.39034 0.70942 0.0
H2003 H 0.68408 0.39676 0.7086 0.0
H2004 H 0.68469 0.39814 0.7558 0.0
H2005 H 0.41113 0.41929 0.76264 0.0
H2006 H 0.33783 0.40657 0.77621 0.0
H2007 H 0.35499 0.40603 0.74211 0.0
H2008 H 0.3698 0.37325 0.74401 0.0
H2009 H 0.35253 0.37367 0.77809 0.0
H2010 H 0.43595 0.36405 0.76589 0.0
H2011 H 0.66194 0.39773 0.80239 0.0
H2012 H 0.61644 0.3965 0.84683 0.0
H2013 H 0.39092 0.39166 0.81903 0.0
C2014 C 0.49767 0.39202 0.71919 0.0
C2015 C 0.56472 0.39342 0.70522 0.0
C2016 C 0.632 0.39572 0.71876 0.0
C2017 C 0.63298 0.3965 0.74561 0.0
C2018 C 0.56619 0.39513 0.75874 0.0
C2019 C 0.49965 0.39303 0.74612 0.0
C2020 C 0.43598 0.392 0.76515 0.0
C2021 C 0.38178 0.40686 0.76129 0.0
C2022 C 0.39623 0.37471 0.76316 0.0
C2023 C 0.47749 0.39367 0.79041 0.0
C2024 C 0.55259 0.39539 0.78607 0.0
C2025 C 0.60327 0.3965 0.80607 0.0
C2026 C 0.5768 0.39573 0.83125 0.0
C2027 C 0.50016 0.39401 0.83638 0.0
C2028 C 0.44966 0.39317 0.81565 0.0
H2029 H 0.06592 0.63223 0.71608 0.0
H2030 H 0.83853 0.61451 0.71194 0.0
H2031 H 0.83694 0.611 0.75901 0.0
H2032 H 0.12351 0.60374 0.76877 0.0
H2033 H 0.182 0.61967 0.7833 0.0
H2034 H 0.16738 0.6197 0.74904 0.0
H2035 H 0.12206 0.65097 0.75132 0.0
H2036 H 0.13665 0.65105 0.78553 0.0
H2037 H 0.04709 0.65639 0.77264 0.0
H2038 H 0.85506 0.61228 0.80662 0.0
H2039 H 0.8935 0.61732 0.85156 0.0
H2040 H 0.11118 0.63265 0.82542 0.0
C2041 C 0.01601 0.62741 0.725 0.0
C2042 C 0.95228 0.62366 0.71015 0.0
C2043 C 0.88817 0.61743 0.72274 0.0
C2044 C 0.88671 0.61537 0.74952 0.0
C2045 C 0.95007 0.61937 0.76355 0.0
C2046 C 0.01379 0.62512 0.75174 0.0
C2047 C 0.07337 0.62911 0.77144 0.0
C2048 C 0.14054 0.61735 0.76792 0.0
C2049 C 0.09609 0.648 0.77015 0.0
C2050 C 0.03254 0.62513 0.7962 0.0
C2051 C 0.96148 0.6195 0.79115 0.0
C2052 C 0.91101 0.61633 0.81081 0.0
C2053 C 0.93328 0.61922 0.83626 0.0
C2054 C 0.00566 0.625 0.84192 0.0
C2055 C 0.05629 0.62771 0.82163 0.0
loop_
_geom_bond_atom_site_label_1
_geom_bond_atom_site_label_2
_geom_bond_distance
_geom_bond_site_symmetry_2
_ccdc_geom_bond_type
Zn0 N4 2.020 1_655 S
Zn0 O8 2.019 . S
Zn0 N10 2.119 1_655 S
Zn0 O18 1.975 1_655 S
C1 N2 1.334 . S
C1 N5 1.336 . S
N2 C1 1.334 . S
N2 C3 1.334 . S
C3 N2 1.334 . S
C3 N4 1.336 . S
N4 Zn0 2.020 1_455 S
N4 C3 1.336 . S
N4 N5 1.354 . S
N5 C1 1.336 . S
N5 N4 1.354 . S
N5 Zn9 2.020 . S
C6 O7 1.244 . S
C6 O30 1.257 . S
O7 C6 1.244 . S
O8 Zn0 2.019 . S
O8 C28 1.257 . S
Zn9 N5 2.020 . S
Zn9 O16 1.975 . S
Zn9 N25 2.119 . S
Zn9 O30 2.019 . S
N10 Zn0 2.119 1_455 S
N10 C12 1.334 . S
N10 C13 1.328 1_455 S
C11 C12 1.391 . S
C11 N14 1.329 . S
C11 H32 0.930 . S
C12 N10 1.334 . S
C12 C11 1.391 . S
C12 H19 0.930 . S
C13 N10 1.328 1_655 S
C13 C15 1.392 . S
C13 H20 0.930 . S
N14 C11 1.329 . S
N14 C15 1.331 1_455 S
C15 C13 1.392 . S
C15 N14 1.331 1_655 S
O16 Zn9 1.975 . S
O16 C17 1.252 . S
C17 O16 1.252 . S
C17 O18 1.252 . S
O18 Zn0 1.975 1_455 S
O18 C17 1.252 . S
H19 C12 0.930 . S
H20 C13 0.930 . S
C21 C22 1.392 . S
C21 N25 1.328 . S
C21 H27 0.930 . S
C22 C21 1.392 . S
C22 N26 1.331 . S
C23 C24 1.391 . S
C23 N26 1.329 . S
C23 H33 0.930 . S
C24 C23 1.391 . S
C24 N25 1.334 . S
C24 H31 0.930 . S
N25 Zn9 2.119 . S
N25 C21 1.328 . S
N25 C24 1.334 . S
N26 C22 1.331 . S
N26 C23 1.329 . S
H27 C21 0.930 . S
C28 O8 1.257 . S
C28 O29 1.244 . S
O29 C28 1.244 . S
O30 C6 1.257 . S
O30 Zn9 2.019 . S
H31 C24 0.930 . S
H32 C11 0.930 . S
H33 C23 0.930 . S
Zn34 N38 2.020 . S
Zn34 O42 2.019 . S
Zn34 N44 2.119 . S
Zn34 O52 1.975 . S
C35 N36 1.334 . S
C35 N39 1.336 . S
N36 C35 1.334 . S
N36 C37 1.334 . S
C37 N36 1.334 . S
C37 N38 1.336 . S
N38 Zn34 2.020 . S
N38 C37 1.336 . S
N38 N39 1.354 . S
N39 C35 1.336 . S
N39 N38 1.354 . S
N39 Zn43 2.020 . S
C40 O41 1.244 . S
C40 O64 1.257 . S
O41 C40 1.244 . S
O42 Zn34 2.019 . S
O42 C62 1.257 . S
Zn43 N39 2.020 . S
Zn43 O50 1.975 . S
Zn43 N59 2.119 . S
Zn43 O64 2.019 . S
N44 Zn34 2.119 . S
N44 C46 1.334 . S
N44 C47 1.328 . S
C45 C46 1.391 . S
C45 N48 1.329 . S
C45 H66 0.930 . S
C46 N44 1.334 . S
C46 C45 1.391 . S
C46 H53 0.930 . S
C47 N44 1.328 . S
C47 C49 1.392 . S
C47 H54 0.930 . S
N48 C45 1.329 . S
N48 C49 1.331 . S
C49 C47 1.392 . S
C49 N48 1.331 . S
O50 Zn43 1.975 . S
O50 C51 1.252 . S
C51 O50 1.252 . S
C51 O52 1.252 . S
O52 Zn34 1.975 . S
O52 C51 1.252 . S
H53 C46 0.930 . S
H54 C47 0.930 . S
C55 C56 1.392 . S
C55 N59 1.328 . S
C55 H61 0.930 . S
C56 C55 1.392 . S
C56 N60 1.331 . S
C57 C58 1.391 . S
C57 N60 1.329 . S
C57 H67 0.930 . S
C58 C57 1.391 . S
C58 N59 1.334 . S
C58 H65 0.930 . S
N59 Zn43 2.119 . S
N59 C55 1.328 . S
N59 C58 1.334 . S
N60 C56 1.331 . S
N60 C57 1.329 . S
H61 C55 0.930 . S
C62 O42 1.257 . S
C62 O63 1.244 . S
O63 C62 1.244 . S
O64 C40 1.257 . S
O64 Zn43 2.019 . S
H65 C58 0.930 . S
H66 C45 0.930 . S
H67 C57 0.930 . S
Zn68 N72 2.020 . S
Zn68 O76 2.019 . S
Zn68 N78 2.119 . S
Zn68 O86 1.975 . S
C69 N70 1.334 . S
C69 N73 1.336 . S
N70 C69 1.334 . S
N70 C71 1.334 . S
C71 N70 1.334 . S
C71 N72 1.336 . S
N72 Zn68 2.020 . S
N72 C71 1.336 . S
N72 N73 1.354 . S
N73 C69 1.336 . S
N73 N72 1.354 . S
N73 Zn77 2.020 . S
C74 O75 1.244 . S
C74 O98 1.257 . S
O75 C74 1.244 . S
O76 Zn68 2.019 . S
O76 C96 1.257 . S
Zn77 N73 2.020 . S
Zn77 O84 1.975 . S
Zn77 N93 2.119 . S
Zn77 O98 2.019 . S
N78 Zn68 2.119 . S
N78 C80 1.334 . S
N78 C81 1.328 . S
C79 C80 1.391 . S
C79 N82 1.329 . S
C79 H100 0.930 . S
C80 N78 1.334 . S
C80 C79 1.391 . S
C80 H87 0.930 . S
C81 N78 1.328 . S
C81 C83 1.392 . S
C81 H88 0.930 . S
N82 C79 1.329 . S
N82 C83 1.331 . S
C83 C81 1.392 . S
C83 N82 1.331 . S
O84 Zn77 1.975 . S
O84 C85 1.252 . S
C85 O84 1.252 . S
C85 O86 1.252 . S
O86 Zn68 1.975 . S
O86 C85 1.252 . S
H87 C80 0.930 . S
H88 C81 0.930 . S
C89 C90 1.392 . S
C89 N93 1.328 . S
C89 H95 0.930 . S
C90 C89 1.392 . S
C90 N94 1.331 . S
C91 C92 1.391 . S
C91 N94 1.329 . S
C91 H101 0.930 . S
C92 C91 1.391 . S
C92 N93 1.334 . S
C92 H99 0.930 . S
N93 Zn77 2.119 . S
N93 C89 1.328 . S
N93 C92 1.334 . S
N94 C90 1.331 . S
N94 C91 1.329 . S
H95 C89 0.930 . S
C96 O76 1.257 . S
C96 O97 1.244 . S
O97 C96 1.244 . S
O98 C74 1.257 . S
O98 Zn77 2.019 . S
H99 C92 0.930 . S
H100 C79 0.930 . S
H101 C91 0.930 . S
Zn102 N106 2.020 1_455 S
Zn102 O110 2.019 . S
Zn102 N112 2.119 1_455 S
Zn102 O120 1.975 1_455 S
C103 N104 1.334 . S
C103 N107 1.336 . S
N104 C103 1.334 . S
N104 C105 1.334 . S
C105 N104 1.334 . S
C105 N106 1.336 . S
N106 Zn102 2.020 1_655 S
N106 C105 1.336 . S
N106 N107 1.354 . S
N107 C103 1.336 . S
N107 N106 1.354 . S
N107 Zn111 2.020 . S
C108 O109 1.244 . S
C108 O132 1.257 . S
O109 C108 1.244 . S
O110 Zn102 2.019 . S
O110 C130 1.257 . S
Zn111 N107 2.020 . S
Zn111 O118 1.975 . S
Zn111 N127 2.119 . S
Zn111 O132 2.019 . S
N112 Zn102 2.119 1_655 S
N112 C114 1.334 . S
N112 C115 1.328 1_655 S
C113 C114 1.391 . S
C113 N116 1.329 . S
C113 H134 0.930 . S
C114 N112 1.334 . S
C114 C113 1.391 . S
C114 H121 0.930 . S
C115 N112 1.328 1_455 S
C115 C117 1.392 . S
C115 H122 0.930 . S
N116 C113 1.329 . S
N116 C117 1.331 1_655 S
C117 C115 1.392 . S
C117 N116 1.331 1_455 S
O118 Zn111 1.975 . S
O118 C119 1.252 . S
C119 O118 1.252 . S
C119 O120 1.252 . S
O120 Zn102 1.975 1_655 S
O120 C119 1.252 . S
H121 C114 0.930 . S
H122 C115 0.930 . S
C123 C124 1.392 . S
C123 N127 1.328 . S
C123 H129 0.930 . S
C124 C123 1.392 . S
C124 N128 1.331 . S
C125 C126 1.391 . S
C125 N128 1.329 . S
C125 H135 0.930 . S
C126 C125 1.391 . S
C126 N127 1.334 . S
C126 H133 0.930 . S
N127 Zn111 2.119 . S
N127 C123 1.328 . S
N127 C126 1.334 . S
N128 C124 1.331 . S
N128 C125 1.329 . S
H129 C123 0.930 . S
C130 O110 1.257 . S
C130 O131 1.244 . S
O131 C130 1.244 . S
O132 C108 1.257 . S
O132 Zn111 2.019 . S
H133 C126 0.930 . S
H134 C113 0.930 . S
H135 C125 0.930 . S
Zn136 N140 2.020 . S
Zn136 O144 2.019 . S
Zn136 N146 2.119 . S
Zn136 O154 1.975 . S
C137 N138 1.334 . S
C137 N141 1.336 . S
N138 C137 1.334 . S
N138 C139 1.334 . S
C139 N138 1.334 . S
C139 N140 1.336 . S
N140 Zn136 2.020 . S
N140 C139 1.336 . S
N140 N141 1.354 . S
N141 C137 1.336 . S
N141 N140 1.354 . S
N141 Zn145 2.020 1_655 S
C142 O143 1.244 . S
C142 O166 1.257 . S
O143 C142 1.244 . S
O144 Zn136 2.019 . S
O144 C164 1.257 . S
Zn145 N141 2.020 1_455 S
Zn145 O152 1.975 1_455 S
Zn145 N161 2.119 1_455 S
Zn145 O166 2.019 . S
N146 Zn136 2.119 . S
N146 C148 1.334 . S
N146 C149 1.328 . S
C147 C148 1.391 . S
C147 N150 1.329 . S
C147 H168 0.930 . S
C148 N146 1.334 . S
C148 C147 1.391 . S
C148 H155 0.930 . S
C149 N146 1.328 . S
C149 C151 1.392 . S
C149 H156 0.930 . S
N150 C147 1.329 . S
N150 C151 1.331 . S
C151 C149 1.392 . S
C151 N150 1.331 . S
O152 Zn145 1.975 1_655 S
O152 C153 1.252 . S
C153 O152 1.252 . S
C153 O154 1.252 . S
O154 Zn136 1.975 . S
O154 C153 1.252 . S
H155 C148 0.930 . S
H156 C149 0.930 . S
C157 C158 1.392 . S
C157 N161 1.328 1_455 S
C157 H163 0.930 . S
C158 C157 1.392 . S
C158 N162 1.331 1_455 S
C159 C160 1.391 . S
C159 N162 1.329 . S
C159 H169 0.930 . S
C160 C159 1.391 . S
C160 N161 1.334 . S
C160 H167 0.930 . S
N161 Zn145 2.119 1_655 S
N161 C157 1.328 1_655 S
N161 C160 1.334 . S
N162 C158 1.331 1_655 S
N162 C159 1.329 . S
H163 C157 0.930 . S
C164 O144 1.257 . S
C164 O165 1.244 . S
O165 C164 1.244 . S
O166 C142 1.257 . S
O166 Zn145 2.019 . S
H167 C160 0.930 . S
H168 C147 0.930 . S
H169 C159 0.930 . S
Zn170 N174 2.020 . S
Zn170 O178 2.019 . S
Zn170 N180 2.119 . S
Zn170 O188 1.975 . S
C171 N172 1.334 . S
C171 N175 1.336 . S
N172 C171 1.334 . S
N172 C173 1.334 . S
C173 N172 1.334 . S
C173 N174 1.336 . S
N174 Zn170 2.020 . S
N174 C173 1.336 . S
N174 N175 1.354 . S
N175 C171 1.336 . S
N175 N174 1.354 . S
N175 Zn179 2.020 . S
C176 O177 1.244 . S
C176 O200 1.257 . S
O177 C176 1.244 . S
O178 Zn170 2.019 . S
O178 C198 1.257 . S
Zn179 N175 2.020 . S
Zn179 O186 1.975 . S
Zn179 N195 2.119 . S
Zn179 O200 2.019 . S
N180 Zn170 2.119 . S
N180 C182 1.334 . S
N180 C183 1.328 . S
C181 C182 1.391 . S
C181 N184 1.329 . S
C181 H202 0.930 . S
C182 N180 1.334 . S
C182 C181 1.391 . S
C182 H189 0.930 . S
C183 N180 1.328 . S
C183 C185 1.392 . S
C183 H190 0.930 . S
N184 C181 1.329 . S
N184 C185 1.331 . S
C185 C183 1.392 . S
C185 N184 1.331 . S
O186 Zn179 1.975 . S
O186 C187 1.252 . S
C187 O186 1.252 . S
C187 O188 1.252 . S
O188 Zn170 1.975 . S
O188 C187 1.252 . S
H189 C182 0.930 . S
H190 C183 0.930 . S
C191 C192 1.392 . S
C191 N195 1.328 . S
C191 H197 0.930 . S
C192 C191 1.392 . S
C192 N196 1.331 . S
C193 C194 1.391 . S
C193 N196 1.329 . S
C193 H203 0.930 . S
C194 C193 1.391 . S
C194 N195 1.334 . S
C194 H201 0.930 . S
N195 Zn179 2.119 . S
N195 C191 1.328 . S
N195 C194 1.334 . S
N196 C192 1.331 . S
N196 C193 1.329 . S
H197 C191 0.930 . S
C198 O178 1.257 . S
C198 O199 1.244 . S
O199 C198 1.244 . S
O200 C176 1.257 . S
O200 Zn179 2.019 . S
H201 C194 0.930 . S
H202 C181 0.930 . S
H203 C193 0.930 . S
Zn204 N208 2.020 . S
Zn204 O212 2.019 . S
Zn204 N214 2.119 . S
Zn204 O222 1.975 . S
C205 N206 1.334 . S
C205 N209 1.336 . S
N206 C205 1.334 . S
N206 C207 1.334 . S
C207 N206 1.334 . S
C207 N208 1.336 . S
N208 Zn204 2.020 . S
N208 C207 1.336 . S
N208 N209 1.354 . S
N209 C205 1.336 . S
N209 N208 1.354 . S
N209 Zn213 2.020 . S
C210 O211 1.244 . S
C210 O234 1.257 . S
O211 C210 1.244 . S
O212 Zn204 2.019 . S
O212 C232 1.257 . S
Zn213 N209 2.020 . S
Zn213 O220 1.975 . S
Zn213 N229 2.119 . S
Zn213 O234 2.019 . S
N214 Zn204 2.119 . S
N214 C216 1.334 . S
N214 C217 1.328 . S
C215 C216 1.391 . S
C215 N218 1.329 . S
C215 H236 0.930 . S
C216 N214 1.334 . S
C216 C215 1.391 . S
C216 H223 0.930 . S
C217 N214 1.328 . S
C217 C219 1.392 . S
C217 H224 0.930 . S
N218 C215 1.329 . S
N218 C219 1.331 . S
C219 C217 1.392 . S
C219 N218 1.331 . S
O220 Zn213 1.975 . S
O220 C221 1.252 . S
C221 O220 1.252 . S
C221 O222 1.252 . S
O222 Zn204 1.975 . S
O222 C221 1.252 . S
H223 C216 0.930 . S
H224 C217 0.930 . S
C225 C226 1.392 . S
C225 N229 1.328 . S
C225 H231 0.930 . S
C226 C225 1.392 . S
C226 N230 1.331 . S
C227 C228 1.391 . S
C227 N230 1.329 . S
C227 H237 0.930 . S
C228 C227 1.391 . S
C228 N229 1.334 . S
C228 H235 0.930 . S
N229 Zn213 2.119 . S
N229 C225 1.328 . S
N229 C228 1.334 . S
N230 C226 1.331 . S
N230 C227 1.329 . S
H231 C225 0.930 . S
C232 O212 1.257 . S
C232 O233 1.244 . S
O233 C232 1.244 . S
O234 C210 1.257 . S
O234 Zn213 2.019 . S
H235 C228 0.930 . S
H236 C215 0.930 . S
H237 C227 0.930 . S
Zn238 N242 2.020 . S
Zn238 O246 2.019 . S
Zn238 N248 2.119 . S
Zn238 O256 1.975 . S
C239 N240 1.334 . S
C239 N243 1.336 . S
N240 C239 1.334 . S
N240 C241 1.334 . S
C241 N240 1.334 . S
C241 N242 1.336 . S
N242 Zn238 2.020 . S
N242 C241 1.336 . S
N242 N243 1.354 . S
N243 C239 1.336 . S
N243 N242 1.354 . S
N243 Zn247 2.020 1_455 S
C244 O245 1.244 . S
C244 O268 1.257 . S
O245 C244 1.244 . S
O246 Zn238 2.019 . S
O246 C266 1.257 . S
Zn247 N243 2.020 1_655 S
Zn247 O254 1.975 1_655 S
Zn247 N263 2.119 1_655 S
Zn247 O268 2.019 . S
N248 Zn238 2.119 . S
N248 C250 1.334 . S
N248 C251 1.328 . S
C249 C250 1.391 . S
C249 N252 1.329 . S
C249 H270 0.930 . S
C250 N248 1.334 . S
C250 C249 1.391 . S
C250 H257 0.930 . S
C251 N248 1.328 . S
C251 C253 1.392 . S
C251 H258 0.930 . S
N252 C249 1.329 . S
N252 C253 1.331 . S
C253 C251 1.392 . S
C253 N252 1.331 . S
O254 Zn247 1.975 1_455 S
O254 C255 1.252 . S
C255 O254 1.252 . S
C255 O256 1.252 . S
O256 Zn238 1.975 . S
O256 C255 1.252 . S
H257 C250 0.930 . S
H258 C251 0.930 . S
C259 C260 1.392 . S
C259 N263 1.328 1_655 S
C259 H265 0.930 . S
C260 C259 1.392 . S
C260 N264 1.331 1_655 S
C261 C262 1.391 . S
C261 N264 1.329 . S
C261 H271 0.930 . S
C262 C261 1.391 . S
C262 N263 1.334 . S
C262 H269 0.930 . S
N263 Zn247 2.119 1_455 S
N263 C259 1.328 1_455 S
N263 C262 1.334 . S
N264 C260 1.331 1_455 S
N264 C261 1.329 . S
H265 C259 0.930 . S
C266 O246 1.257 . S
C266 O267 1.244 . S
O267 C266 1.244 . S
O268 C244 1.257 . S
O268 Zn247 2.019 . S
H269 C262 0.930 . S
H270 C249 0.930 . S
H271 C261 0.930 . S
Zn272 N276 2.020 . S
Zn272 O280 2.019 . S
Zn272 N282 2.119 . S
Zn272 O290 1.975 . S
C273 N274 1.334 . S
C273 N277 1.336 . S
N274 C273 1.334 . S
N274 C275 1.334 . S
C275 N274 1.334 . S
C275 N276 1.336 . S
N276 Zn272 2.020 . S
N276 C275 1.336 . S
N276 N277 1.354 . S
N277 C273 1.336 . S
N277 N276 1.354 . S
N277 Zn281 2.020 . S
C278 O279 1.244 . S
C278 O302 1.257 . S
O279 C278 1.244 . S
O280 Zn272 2.019 . S
O280 C300 1.257 . S
Zn281 N277 2.020 . S
Zn281 O288 1.975 . S
Zn281 N297 2.119 . S
Zn281 O302 2.019 . S
N282 Zn272 2.119 . S
N282 C284 1.334 . S
N282 C285 1.328 . S
C283 C284 1.391 . S
C283 N286 1.329 . S
C283 H304 0.930 . S
C284 N282 1.334 . S
C284 C283 1.391 . S
C284 H291 0.930 . S
C285 N282 1.328 . S
C285 C287 1.392 . S
C285 H292 0.930 . S
N286 C283 1.329 . S
N286 C287 1.331 . S
C287 C285 1.392 . S
C287 N286 1.331 . S
O288 Zn281 1.975 . S
O288 C289 1.252 . S
C289 O288 1.252 . S
C289 O290 1.252 . S
O290 Zn272 1.975 . S
O290 C289 1.252 . S
H291 C284 0.930 . S
H292 C285 0.930 . S
C293 C294 1.392 . S
C293 N297 1.328 . S
C293 H299 0.930 . S
C294 C293 1.392 . S
C294 N298 1.331 . S
C295 C296 1.391 . S
C295 N298 1.329 . S
C295 H305 0.930 . S
C296 C295 1.391 . S
C296 N297 1.334 . S
C296 H303 0.930 . S
N297 Zn281 2.119 . S
N297 C293 1.328 . S
N297 C296 1.334 . S
N298 C294 1.331 . S
N298 C295 1.329 . S
H299 C293 0.930 . S
C300 O280 1.257 . S
C300 O301 1.244 . S
O301 C300 1.244 . S
O302 C278 1.257 . S
O302 Zn281 2.019 . S
H303 C296 0.930 . S
H304 C283 0.930 . S
H305 C295 0.930 . S
Zn306 N310 2.020 . S
Zn306 O314 2.019 . S
Zn306 N316 2.119 . S
Zn306 O324 1.975 . S
C307 N308 1.334 . S
C307 N311 1.336 . S
N308 C307 1.334 . S
N308 C309 1.334 . S
C309 N308 1.334 . S
C309 N310 1.336 . S
N310 Zn306 2.020 . S
N310 C309 1.336 . S
N310 N311 1.354 . S
N311 C307 1.336 . S
N311 N310 1.354 . S
N311 Zn315 2.020 1_655 S
C312 O313 1.244 . S
C312 O336 1.257 . S
O313 C312 1.244 . S
O314 Zn306 2.019 . S
O314 C334 1.257 . S
Zn315 N311 2.020 1_455 S
Zn315 O322 1.975 1_455 S
Zn315 N331 2.119 1_455 S
Zn315 O336 2.019 . S
N316 Zn306 2.119 . S
N316 C318 1.334 . S
N316 C319 1.328 . S
C317 C318 1.391 . S
C317 N320 1.329 . S
C317 H338 0.930 . S
C318 N316 1.334 . S
C318 C317 1.391 . S
C318 H325 0.930 . S
C319 N316 1.328 . S
C319 C321 1.392 . S
C319 H326 0.930 . S
N320 C317 1.329 . S
N320 C321 1.331 . S
C321 C319 1.392 . S
C321 N320 1.331 . S
O322 Zn315 1.975 1_655 S
O322 C323 1.252 . S
C323 O322 1.252 . S
C323 O324 1.252 . S
O324 Zn306 1.975 . S
O324 C323 1.252 . S
H325 C318 0.930 . S
H326 C319 0.930 . S
C327 C328 1.392 . S
C327 N331 1.328 1_455 S
C327 H333 0.930 . S
C328 C327 1.392 . S
C328 N332 1.331 1_455 S
C329 C330 1.391 . S
C329 N332 1.329 . S
C329 H339 0.930 . S
C330 C329 1.391 . S
C330 N331 1.334 . S
C330 H337 0.930 . S
N331 Zn315 2.119 1_655 S
N331 C327 1.328 1_655 S
N331 C330 1.334 . S
N332 C328 1.331 1_655 S
N332 C329 1.329 . S
H333 C327 0.930 . S
C334 O314 1.257 . S
C334 O335 1.244 . S
O335 C334 1.244 . S
O336 C312 1.257 . S
O336 Zn315 2.019 . S
H337 C330 0.930 . S
H338 C317 0.930 . S
H339 C329 0.930 . S
Zn340 N344 2.020 . S
Zn340 O348 2.019 . S
Zn340 N350 2.119 . S
Zn340 O358 1.975 . S
C341 N342 1.334 . S
C341 N345 1.336 . S
N342 C341 1.334 . S
N342 C343 1.334 . S
C343 N342 1.334 . S
C343 N344 1.336 . S
N344 Zn340 2.020 . S
N344 C343 1.336 . S
N344 N345 1.354 . S
N345 C341 1.336 . S
N345 N344 1.354 . S
N345 Zn349 2.020 1_455 S
C346 O347 1.244 . S
C346 O370 1.257 . S
O347 C346 1.244 . S
O348 Zn340 2.019 . S
O348 C368 1.257 . S
Zn349 N345 2.020 1_655 S
Zn349 O356 1.975 1_655 S
Zn349 N365 2.119 1_655 S
Zn349 O370 2.019 . S
N350 Zn340 2.119 . S
N350 C352 1.334 . S
N350 C353 1.328 . S
C351 C352 1.391 . S
C351 N354 1.329 . S
C351 H372 0.930 . S
C352 N350 1.334 . S
C352 C351 1.391 . S
C352 H359 0.930 . S
C353 N350 1.328 . S
C353 C355 1.392 . S
C353 H360 0.930 . S
N354 C351 1.329 . S
N354 C355 1.331 . S
C355 C353 1.392 . S
C355 N354 1.331 . S
O356 Zn349 1.975 1_455 S
O356 C357 1.252 . S
C357 O356 1.252 . S
C357 O358 1.252 . S
O358 Zn340 1.975 . S
O358 C357 1.252 . S
H359 C352 0.930 . S
H360 C353 0.930 . S
C361 C362 1.392 . S
C361 N365 1.328 1_655 S
C361 H367 0.930 . S
C362 C361 1.392 . S
C362 N366 1.331 1_655 S
C363 C364 1.391 . S
C363 N366 1.329 . S
C363 H373 0.930 . S
C364 C363 1.391 . S
C364 N365 1.334 . S
C364 H371 0.930 . S
N365 Zn349 2.119 1_455 S
N365 C361 1.328 1_455 S
N365 C364 1.334 . S
N366 C362 1.331 1_455 S
N366 C363 1.329 . S
H367 C361 0.930 . S
C368 O348 1.257 . S
C368 O369 1.244 . S
O369 C368 1.244 . S
O370 C346 1.257 . S
O370 Zn349 2.019 . S
H371 C364 0.930 . S
H372 C351 0.930 . S
H373 C363 0.930 . S
Zn374 N378 2.020 . S
Zn374 O382 2.019 . S
Zn374 N384 2.119 . S
Zn374 O392 1.975 . S
C375 N376 1.334 . S
C375 N379 1.336 . S
N376 C375 1.334 . S
N376 C377 1.334 . S
C377 N376 1.334 . S
C377 N378 1.336 . S
N378 Zn374 2.020 . S
N378 C377 1.336 . S
N378 N379 1.354 . S
N379 C375 1.336 . S
N379 N378 1.354 . S
N379 Zn383 2.020 . S
C380 O381 1.244 . S
C380 O404 1.257 . S
O381 C380 1.244 . S
O382 Zn374 2.019 . S
O382 C402 1.257 . S
Zn383 N379 2.020 . S
Zn383 O390 1.975 . S
Zn383 N399 2.119 . S
Zn383 O404 2.019 . S
N384 Zn374 2.119 . S
N384 C386 1.334 . S
N384 C387 1.328 . S
C385 C386 1.391 . S
C385 N388 1.329 . S
C385 H406 0.930 . S
C386 N384 1.334 . S
C386 C385 1.391 . S
C386 H393 0.930 . S
C387 N384 1.328 . S
C387 C389 1.392 . S
C387 H394 0.930 . S
N388 C385 1.329 . S
N388 C389 1.331 . S
C389 C387 1.392 . S
C389 N388 1.331 . S
O390 Zn383 1.975 . S
O390 C391 1.252 . S
C391 O390 1.252 . S
C391 O392 1.252 . S
O392 Zn374 1.975 . S
O392 C391 1.252 . S
H393 C386 0.930 . S
H394 C387 0.930 . S
C395 C396 1.392 . S
C395 N399 1.328 . S
C395 H401 0.930 . S
C396 C395 1.392 . S
C396 N400 1.331 . S
C397 C398 1.391 . S
C397 N400 1.329 . S
C397 H407 0.930 . S
C398 C397 1.391 . S
C398 N399 1.334 . S
C398 H405 0.930 . S
N399 Zn383 2.119 . S
N399 C395 1.328 . S
N399 C398 1.334 . S
N400 C396 1.331 . S
N400 C397 1.329 . S
H401 C395 0.930 . S
C402 O382 1.257 . S
C402 O403 1.244 . S
O403 C402 1.244 . S
O404 C380 1.257 . S
O404 Zn383 2.019 . S
H405 C398 0.930 . S
H406 C385 0.930 . S
H407 C397 0.930 . S
Zn408 N412 2.020 . S
Zn408 O416 2.019 . S
Zn408 N418 2.119 . S
Zn408 O426 1.975 . S
C409 N410 1.334 . S
C409 N413 1.336 . S
N410 C409 1.334 . S
N410 C411 1.334 . S
C411 N410 1.334 . S
C411 N412 1.336 . S
N412 Zn408 2.020 . S
N412 C411 1.336 . S
N412 N413 1.354 . S
N413 C409 1.336 . S
N413 N412 1.354 . S
N413 Zn417 2.020 . S
C414 O415 1.244 . S
C414 O438 1.257 . S
O415 C414 1.244 . S
O416 Zn408 2.019 . S
O416 C436 1.257 . S
Zn417 N413 2.020 . S
Zn417 O424 1.975 . S
Zn417 N433 2.119 . S
Zn417 O438 2.019 . S
N418 Zn408 2.119 . S
N418 C420 1.334 . S
N418 C421 1.328 . S
C419 C420 1.391 . S
C419 N422 1.329 . S
C419 H440 0.930 . S
C420 N418 1.334 . S
C420 C419 1.391 . S
C420 H427 0.930 . S
C421 N418 1.328 . S
C421 C423 1.392 . S
C421 H428 0.930 . S
N422 C419 1.329 . S
N422 C423 1.331 . S
C423 C421 1.392 . S
C423 N422 1.331 . S
O424 Zn417 1.975 . S
O424 C425 1.252 . S
C425 O424 1.252 . S
C425 O426 1.252 . S
O426 Zn408 1.975 . S
O426 C425 1.252 . S
H427 C420 0.930 . S
H428 C421 0.930 . S
C429 C430 1.392 . S
C429 N433 1.328 . S
C429 H435 0.930 . S
C430 C429 1.392 . S
C430 N434 1.331 . S
C431 C432 1.391 . S
C431 N434 1.329 . S
C431 H441 0.930 . S
C432 C431 1.391 . S
C432 N433 1.334 . S
C432 H439 0.930 . S
N433 Zn417 2.119 . S
N433 C429 1.328 . S
N433 C432 1.334 . S
N434 C430 1.331 . S
N434 C431 1.329 . S
H435 C429 0.930 . S
C436 O416 1.257 . S
C436 O437 1.244 . S
O437 C436 1.244 . S
O438 C414 1.257 . S
O438 Zn417 2.019 . S
H439 C432 0.930 . S
H440 C419 0.930 . S
H441 C431 0.930 . S
Zn442 N446 2.020 1_655 S
Zn442 O450 2.019 . S
Zn442 N452 2.119 1_655 S
Zn442 O460 1.975 1_655 S
C443 N444 1.334 . S
C443 N447 1.336 . S
N444 C443 1.334 . S
N444 C445 1.334 . S
C445 N444 1.334 . S
C445 N446 1.336 . S
N446 Zn442 2.020 1_455 S
N446 C445 1.336 . S
N446 N447 1.354 . S
N447 C443 1.336 . S
N447 N446 1.354 . S
N447 Zn451 2.020 . S
C448 O449 1.244 . S
C448 O472 1.257 . S
O449 C448 1.244 . S
O450 Zn442 2.019 . S
O450 C470 1.257 . S
Zn451 N447 2.020 . S
Zn451 O458 1.975 . S
Zn451 N467 2.119 . S
Zn451 O472 2.019 . S
N452 Zn442 2.119 1_455 S
N452 C454 1.334 . S
N452 C455 1.328 1_455 S
C453 C454 1.391 . S
C453 N456 1.329 . S
C453 H474 0.930 . S
C454 N452 1.334 . S
C454 C453 1.391 . S
C454 H461 0.930 . S
C455 N452 1.328 1_655 S
C455 C457 1.392 . S
C455 H462 0.930 . S
N456 C453 1.329 . S
N456 C457 1.331 1_455 S
C457 C455 1.392 . S
C457 N456 1.331 1_655 S
O458 Zn451 1.975 . S
O458 C459 1.252 . S
C459 O458 1.252 . S
C459 O460 1.252 . S
O460 Zn442 1.975 1_455 S
O460 C459 1.252 . S
H461 C454 0.930 . S
H462 C455 0.930 . S
C463 C464 1.392 . S
C463 N467 1.328 . S
C463 H469 0.930 . S
C464 C463 1.392 . S
C464 N468 1.331 . S
C465 C466 1.391 . S
C465 N468 1.329 . S
C465 H475 0.930 . S
C466 C465 1.391 . S
C466 N467 1.334 . S
C466 H473 0.930 . S
N467 Zn451 2.119 . S
N467 C463 1.328 . S
N467 C466 1.334 . S
N468 C464 1.331 . S
N468 C465 1.329 . S
H469 C463 0.930 . S
C470 O450 1.257 . S
C470 O471 1.244 . S
O471 C470 1.244 . S
O472 C448 1.257 . S
O472 Zn451 2.019 . S
H473 C466 0.930 . S
H474 C453 0.930 . S
H475 C465 0.930 . S
Zn476 N480 2.020 . S
Zn476 O484 2.019 . S
Zn476 N486 2.119 . S
Zn476 O494 1.975 . S
C477 N478 1.334 . S
C477 N481 1.336 . S
N478 C477 1.334 . S
N478 C479 1.334 . S
C479 N478 1.334 . S
C479 N480 1.336 . S
N480 Zn476 2.020 . S
N480 C479 1.336 . S
N480 N481 1.354 . S
N481 C477 1.336 . S
N481 N480 1.354 . S
N481 Zn485 2.020 1_655 S
C482 O483 1.244 . S
C482 O506 1.257 . S
O483 C482 1.244 . S
O484 Zn476 2.019 . S
O484 C504 1.257 . S
Zn485 N481 2.020 1_455 S
Zn485 O492 1.975 1_455 S
Zn485 N501 2.119 1_455 S
Zn485 O506 2.019 . S
N486 Zn476 2.119 . S
N486 C488 1.334 . S
N486 C489 1.328 . S
C487 C488 1.391 . S
C487 N490 1.329 . S
C487 H508 0.930 . S
C488 N486 1.334 . S
C488 C487 1.391 . S
C488 H495 0.930 . S
C489 N486 1.328 . S
C489 C491 1.392 . S
C489 H496 0.930 . S
N490 C487 1.329 . S
N490 C491 1.331 . S
C491 C489 1.392 . S
C491 N490 1.331 . S
O492 Zn485 1.975 1_655 S
O492 C493 1.252 . S
C493 O492 1.252 . S
C493 O494 1.252 . S
O494 Zn476 1.975 . S
O494 C493 1.252 . S
H495 C488 0.930 . S
H496 C489 0.930 . S
C497 C498 1.392 . S
C497 N501 1.328 1_455 S
C497 H503 0.930 . S
C498 C497 1.392 . S
C498 N502 1.331 1_455 S
C499 C500 1.391 . S
C499 N502 1.329 . S
C499 H509 0.930 . S
C500 C499 1.391 . S
C500 N501 1.334 . S
C500 H507 0.930 . S
N501 Zn485 2.119 1_655 S
N501 C497 1.328 1_655 S
N501 C500 1.334 . S
N502 C498 1.331 1_655 S
N502 C499 1.329 . S
H503 C497 0.930 . S
C504 O484 1.257 . S
C504 O505 1.244 . S
O505 C504 1.244 . S
O506 C482 1.257 . S
O506 Zn485 2.019 . S
H507 C500 0.930 . S
H508 C487 0.930 . S
H509 C499 0.930 . S
Zn510 N514 2.020 . S
Zn510 O518 2.019 . S
Zn510 N520 2.119 . S
Zn510 O528 1.975 . S
C511 N512 1.334 . S
C511 N515 1.336 . S
N512 C511 1.334 . S
N512 C513 1.334 . S
C513 N512 1.334 . S
C513 N514 1.336 . S
N514 Zn510 2.020 . S
N514 C513 1.336 . S
N514 N515 1.354 . S
N515 C511 1.336 . S
N515 N514 1.354 . S
N515 Zn519 2.020 . S
C516 O517 1.244 . S
C516 O540 1.257 . S
O517 C516 1.244 . S
O518 Zn510 2.019 . S
O518 C538 1.257 . S
Zn519 N515 2.020 . S
Zn519 O526 1.975 . S
Zn519 N535 2.119 . S
Zn519 O540 2.019 . S
N520 Zn510 2.119 . S
N520 C522 1.334 . S
N520 C523 1.328 . S
C521 C522 1.391 . S
C521 N524 1.329 . S
C521 H542 0.930 . S
C522 N520 1.334 . S
C522 C521 1.391 . S
C522 H529 0.930 . S
C523 N520 1.328 . S
C523 C525 1.392 . S
C523 H530 0.930 . S
N524 C521 1.329 . S
N524 C525 1.331 . S
C525 C523 1.392 . S
C525 N524 1.331 . S
O526 Zn519 1.975 . S
O526 C527 1.252 . S
C527 O526 1.252 . S
C527 O528 1.252 . S
O528 Zn510 1.975 . S
O528 C527 1.252 . S
H529 C522 0.930 . S
H530 C523 0.930 . S
C531 C532 1.392 . S
C531 N535 1.328 . S
C531 H537 0.930 . S
C532 C531 1.392 . S
C532 N536 1.331 . S
C533 C534 1.391 . S
C533 N536 1.329 . S
C533 H543 0.930 . S
C534 C533 1.391 . S
C534 N535 1.334 . S
C534 H541 0.930 . S
N535 Zn519 2.119 . S
N535 C531 1.328 . S
N535 C534 1.334 . S
N536 C532 1.331 . S
N536 C533 1.329 . S
H537 C531 0.930 . S
C538 O518 1.257 . S
C538 O539 1.244 . S
O539 C538 1.244 . S
O540 C516 1.257 . S
O540 Zn519 2.019 . S
H541 C534 0.930 . S
H542 C521 0.930 . S
H543 C533 0.930 . S
H544 C556 0.930 . S
H545 C558 0.930 . S
H546 C559 0.930 . S
H547 C563 0.959 . S
H548 C563 0.959 . S
H549 C563 0.961 . S
H550 C564 0.960 . S
H551 C564 0.961 . S
H552 C564 0.959 . S
H553 C567 0.929 . S
H554 C568 0.931 . S
H555 C570 0.930 . S
C556 H544 0.930 . S
C556 C557 1.399 . S
C556 C561 1.399 . S
C557 C556 1.399 . S
C557 C558 1.376 . S
C558 H545 0.930 . S
C558 C557 1.376 . S
C558 C559 1.388 . S
C559 H546 0.930 . S
C559 C558 1.388 . S
C559 C560 1.390 . S
C560 C559 1.390 . S
C560 C561 1.394 . S
C560 C566 1.465 . S
C561 C556 1.399 . S
C561 C560 1.394 . S
C561 C562 1.516 . S
C562 C561 1.516 . S
C562 C563 1.502 . S
C562 C564 1.561 . S
C562 C565 1.526 . S
C563 H547 0.959 . S
C563 H548 0.959 . S
C563 H549 0.961 . S
C563 C562 1.502 . S
C564 H550 0.960 . S
C564 H551 0.961 . S
C564 H552 0.959 . S
C564 C562 1.561 . S
C565 C562 1.526 . S
C565 C566 1.396 . S
C565 C570 1.390 . S
C566 C560 1.465 . S
C566 C565 1.396 . S
C566 C567 1.399 . S
C567 H553 0.929 . S
C567 C566 1.399 . S
C567 C568 1.385 . S
C568 H554 0.931 . S
C568 C567 1.385 . S
C568 C569 1.389 . S
C569 C568 1.389 . S
C569 C570 1.387 . S
C570 H555 0.930 . S
C570 C565 1.390 . S
C570 C569 1.387 . S
H571 C583 0.930 . S
H572 C585 0.930 . S
H573 C586 0.930 1_655 S
H574 C590 0.959 . S
H575 C590 0.959 . S
H576 C590 0.961 . S
H577 C591 0.960 . S
H578 C591 0.961 . S
H579 C591 0.959 . S
H580 C594 0.929 . S
H581 C595 0.931 . S
H582 C597 0.930 . S
C583 H571 0.930 . S
C583 C584 1.399 . S
C583 C588 1.399 1_455 S
C584 C583 1.399 . S
C584 C585 1.376 . S
C585 H572 0.930 . S
C585 C584 1.376 . S
C585 C586 1.388 . S
C586 H573 0.930 1_455 S
C586 C585 1.388 . S
C586 C587 1.390 1_455 S
C587 C586 1.390 1_655 S
C587 C588 1.394 . S
C587 C593 1.465 . S
C588 C583 1.399 1_655 S
C588 C587 1.394 . S
C588 C589 1.516 . S
C589 C588 1.516 . S
C589 C590 1.502 . S
C589 C591 1.561 . S
C589 C592 1.526 . S
C590 H574 0.959 . S
C590 H575 0.959 . S
C590 H576 0.961 . S
C590 C589 1.502 . S
C591 H577 0.960 . S
C591 H578 0.961 . S
C591 H579 0.959 . S
C591 C589 1.561 . S
C592 C589 1.526 . S
C592 C593 1.396 . S
C592 C597 1.390 . S
C593 C587 1.465 . S
C593 C592 1.396 . S
C593 C594 1.399 . S
C594 H580 0.929 . S
C594 C593 1.399 . S
C594 C595 1.385 . S
C595 H581 0.931 . S
C595 C594 1.385 . S
C595 C596 1.389 . S
C596 C595 1.389 . S
C596 C597 1.387 . S
C597 H582 0.930 . S
C597 C592 1.390 . S
C597 C596 1.387 . S
H598 C610 0.930 . S
H599 C612 0.930 . S
H600 C613 0.930 1_455 S
H601 C617 0.959 . S
H602 C617 0.959 . S
H603 C617 0.961 . S
H604 C618 0.960 . S
H605 C618 0.961 . S
H606 C618 0.959 . S
H607 C621 0.929 . S
H608 C622 0.931 . S
H609 C624 0.930 . S
C610 H598 0.930 . S
C610 C611 1.399 . S
C610 C615 1.399 1_655 S
C611 C610 1.399 . S
C611 C612 1.376 . S
C612 H599 0.930 . S
C612 C611 1.376 . S
C612 C613 1.388 . S
C613 H600 0.930 1_655 S
C613 C612 1.388 . S
C613 C614 1.390 1_655 S
C614 C613 1.390 1_455 S
C614 C615 1.394 . S
C614 C620 1.465 . S
C615 C610 1.399 1_455 S
C615 C614 1.394 . S
C615 C616 1.516 . S
C616 C615 1.516 . S
C616 C617 1.502 . S
C616 C618 1.561 . S
C616 C619 1.526 . S
C617 H601 0.959 . S
C617 H602 0.959 . S
C617 H603 0.961 . S
C617 C616 1.502 . S
C618 H604 0.960 . S
C618 H605 0.961 . S
C618 H606 0.959 . S
C618 C616 1.561 . S
C619 C616 1.526 . S
C619 C620 1.396 . S
C619 C624 1.390 . S
C620 C614 1.465 . S
C620 C619 1.396 . S
C620 C621 1.399 . S
C621 H607 0.929 . S
C621 C620 1.399 . S
C621 C622 1.385 . S
C622 H608 0.931 . S
C622 C621 1.385 . S
C622 C623 1.389 . S
C623 C622 1.389 . S
C623 C624 1.387 . S
C624 H609 0.930 . S
C624 C619 1.390 . S
C624 C623 1.387 . S
H625 C637 0.930 . S
H626 C639 0.930 . S
H627 C640 0.930 . S
H628 C644 0.959 . S
H629 C644 0.959 . S
H630 C644 0.961 . S
H631 C645 0.960 . S
H632 C645 0.961 . S
H633 C645 0.959 . S
H634 C648 0.929 . S
H635 C649 0.931 . S
H636 C651 0.930 . S
C637 H625 0.930 . S
C637 C638 1.399 . S
C637 C642 1.399 . S
C638 C637 1.399 . S
C638 C639 1.376 . S
C639 H626 0.930 . S
C639 C638 1.376 . S
C639 C640 1.388 . S
C640 H627 0.930 . S
C640 C639 1.388 . S
C640 C641 1.390 . S
C641 C640 1.390 . S
C641 C642 1.394 . S
C641 C647 1.465 . S
C642 C637 1.399 . S
C642 C641 1.394 . S
C642 C643 1.516 . S
C643 C642 1.516 . S
C643 C644 1.502 . S
C643 C645 1.561 . S
C643 C646 1.526 . S
C644 H628 0.959 . S
C644 H629 0.959 . S
C644 H630 0.961 . S
C644 C643 1.502 . S
C645 H631 0.960 . S
C645 H632 0.961 . S
C645 H633 0.959 . S
C645 C643 1.561 . S
C646 C643 1.526 . S
C646 C647 1.396 . S
C646 C651 1.390 . S
C647 C641 1.465 . S
C647 C646 1.396 . S
C647 C648 1.399 . S
C648 H634 0.929 . S
C648 C647 1.399 . S
C648 C649 1.385 . S
C649 H635 0.931 . S
C649 C648 1.385 . S
C649 C650 1.389 . S
C650 C649 1.389 . S
C650 C651 1.387 . S
C651 H636 0.930 . S
C651 C646 1.390 . S
C651 C650 1.387 . S
H652 C664 0.930 . S
H653 C666 0.930 . S
H654 C667 0.930 . S
H655 C671 0.959 . S
H656 C671 0.959 . S
H657 C671 0.961 . S
H658 C672 0.960 . S
H659 C672 0.961 . S
H660 C672 0.959 . S
H661 C675 0.929 . S
H662 C676 0.931 . S
H663 C678 0.930 . S
C664 H652 0.930 . S
C664 C665 1.399 . S
C664 C669 1.399 . S
C665 C664 1.399 . S
C665 C666 1.376 . S
C666 H653 0.930 . S
C666 C665 1.376 . S
C666 C667 1.388 . S
C667 H654 0.930 . S
C667 C666 1.388 . S
C667 C668 1.390 . S
C668 C667 1.390 . S
C668 C669 1.394 . S
C668 C674 1.465 . S
C669 C664 1.399 . S
C669 C668 1.394 . S
C669 C670 1.516 . S
C670 C669 1.516 . S
C670 C671 1.502 . S
C670 C672 1.561 . S
C670 C673 1.526 . S
C671 H655 0.959 . S
C671 H656 0.959 . S
C671 H657 0.961 . S
C671 C670 1.502 . S
C672 H658 0.960 . S
C672 H659 0.961 . S
C672 H660 0.959 . S
C672 C670 1.561 . S
C673 C670 1.526 . S
C673 C674 1.396 . S
C673 C678 1.390 . S
C674 C668 1.465 . S
C674 C673 1.396 . S
C674 C675 1.399 . S
C675 H661 0.929 . S
C675 C674 1.399 . S
C675 C676 1.385 . S
C676 H662 0.931 . S
C676 C675 1.385 . S
C676 C677 1.389 . S
C677 C676 1.389 . S
C677 C678 1.387 . S
C678 H663 0.930 . S
C678 C673 1.390 . S
C678 C677 1.387 . S
H679 C691 0.930 . S
H680 C693 0.930 . S
H681 C694 0.930 . S
H682 C698 0.959 . S
H683 C698 0.959 . S
H684 C698 0.961 . S
H685 C699 0.960 . S
H686 C699 0.961 . S
H687 C699 0.959 . S
H688 C702 0.929 1_455 S
H689 C703 0.931 . S
H690 C705 0.930 . S
C691 H679 0.930 . S
C691 C692 1.399 . S
C691 C696 1.399 . S
C692 C691 1.399 . S
C692 C693 1.376 . S
C693 H680 0.930 . S
C693 C692 1.376 . S
C693 C694 1.388 . S
C694 H681 0.930 . S
C694 C693 1.388 . S
C694 C695 1.390 . S
C695 C694 1.390 . S
C695 C696 1.394 . S
C695 C701 1.465 . S
C696 C691 1.399 . S
C696 C695 1.394 . S
C696 C697 1.516 . S
C697 C696 1.516 . S
C697 C698 1.502 . S
C697 C699 1.561 . S
C697 C700 1.526 . S
C698 H682 0.959 . S
C698 H683 0.959 . S
C698 H684 0.961 . S
C698 C697 1.502 . S
C699 H685 0.960 . S
C699 H686 0.961 . S
C699 H687 0.959 . S
C699 C697 1.561 . S
C700 C697 1.526 . S
C700 C701 1.396 . S
C700 C705 1.390 1_455 S
C701 C695 1.465 . S
C701 C700 1.396 . S
C701 C702 1.399 1_455 S
C702 H688 0.929 1_655 S
C702 C701 1.399 1_655 S
C702 C703 1.385 . S
C703 H689 0.931 . S
C703 C702 1.385 . S
C703 C704 1.389 . S
C704 C703 1.389 . S
C704 C705 1.387 . S
C705 H690 0.930 . S
C705 C700 1.390 1_655 S
C705 C704 1.387 . S
H706 C718 0.930 . S
H707 C720 0.930 . S
H708 C721 0.930 . S
H709 C725 0.959 . S
H710 C725 0.959 . S
H711 C725 0.961 . S
H712 C726 0.960 . S
H713 C726 0.961 . S
H714 C726 0.959 . S
H715 C729 0.929 1_655 S
H716 C730 0.931 . S
H717 C732 0.930 . S
C718 H706 0.930 . S
C718 C719 1.399 . S
C718 C723 1.399 . S
C719 C718 1.399 . S
C719 C720 1.376 . S
C720 H707 0.930 . S
C720 C719 1.376 . S
C720 C721 1.388 . S
C721 H708 0.930 . S
C721 C720 1.388 . S
C721 C722 1.390 . S
C722 C721 1.390 . S
C722 C723 1.394 . S
C722 C728 1.465 . S
C723 C718 1.399 . S
C723 C722 1.394 . S
C723 C724 1.516 . S
C724 C723 1.516 . S
C724 C725 1.502 . S
C724 C726 1.561 . S
C724 C727 1.526 . S
C725 H709 0.959 . S
C725 H710 0.959 . S
C725 H711 0.961 . S
C725 C724 1.502 . S
C726 H712 0.960 . S
C726 H713 0.961 . S
C726 H714 0.959 . S
C726 C724 1.561 . S
C727 C724 1.526 . S
C727 C728 1.396 . S
C727 C732 1.390 1_655 S
C728 C722 1.465 . S
C728 C727 1.396 . S
C728 C729 1.399 1_655 S
C729 H715 0.929 1_455 S
C729 C728 1.399 1_455 S
C729 C730 1.385 . S
C730 H716 0.931 . S
C730 C729 1.385 . S
C730 C731 1.389 . S
C731 C730 1.389 . S
C731 C732 1.387 . S
C732 H717 0.930 . S
C732 C727 1.390 1_455 S
C732 C731 1.387 . S
H733 C745 0.930 . S
H734 C747 0.930 . S
H735 C748 0.930 . S
H736 C752 0.959 . S
H737 C752 0.959 . S
H738 C752 0.961 . S
H739 C753 0.960 . S
H740 C753 0.961 . S
H741 C753 0.959 . S
H742 C756 0.929 . S
H743 C757 0.931 . S
H744 C759 0.930 . S
C745 H733 0.930 . S
C745 C746 1.399 . S
C745 C750 1.399 . S
C746 C745 1.399 . S
C746 C747 1.376 . S
C747 H734 0.930 . S
C747 C746 1.376 . S
C747 C748 1.388 . S
C748 H735 0.930 . S
C748 C747 1.388 . S
C748 C749 1.390 . S
C749 C748 1.390 . S
C749 C750 1.394 . S
C749 C755 1.465 . S
C750 C745 1.399 . S
C750 C749 1.394 . S
C750 C751 1.516 . S
C751 C750 1.516 . S
C751 C752 1.502 . S
C751 C753 1.561 . S
C751 C754 1.526 . S
C752 H736 0.959 . S
C752 H737 0.959 . S
C752 H738 0.961 . S
C752 C751 1.502 . S
C753 H739 0.960 . S
C753 H740 0.961 . S
C753 H741 0.959 . S
C753 C751 1.561 . S
C754 C751 1.526 . S
C754 C755 1.396 . S
C754 C759 1.390 . S
C755 C749 1.465 . S
C755 C754 1.396 . S
C755 C756 1.399 . S
C756 H742 0.929 . S
C756 C755 1.399 . S
C756 C757 1.385 . S
C757 H743 0.931 . S
C757 C756 1.385 . S
C757 C758 1.389 . S
C758 C757 1.389 . S
C758 C759 1.387 . S
C759 H744 0.930 . S
C759 C754 1.390 . S
C759 C758 1.387 . S
H760 C772 0.930 . S
H761 C774 0.930 . S
H762 C775 0.930 1_455 S
H763 C779 0.959 . S
H764 C779 0.959 . S
H765 C779 0.961 . S
H766 C780 0.960 . S
H767 C780 0.961 . S
H768 C780 0.959 . S
H769 C783 0.929 . S
H770 C784 0.931 . S
H771 C786 0.930 . S
C772 H760 0.930 . S
C772 C773 1.399 . S
C772 C777 1.399 1_655 S
C773 C772 1.399 . S
C773 C774 1.376 . S
C774 H761 0.930 . S
C774 C773 1.376 . S
C774 C775 1.388 . S
C775 H762 0.930 1_655 S
C775 C774 1.388 . S
C775 C776 1.390 1_655 S
C776 C775 1.390 1_455 S
C776 C777 1.394 . S
C776 C782 1.465 . S
C777 C772 1.399 1_455 S
C777 C776 1.394 . S
C777 C778 1.516 . S
C778 C777 1.516 . S
C778 C779 1.502 . S
C778 C780 1.561 . S
C778 C781 1.526 . S
C779 H763 0.959 . S
C779 H764 0.959 . S
C779 H765 0.961 . S
C779 C778 1.502 . S
C780 H766 0.960 . S
C780 H767 0.961 . S
C780 H768 0.959 . S
C780 C778 1.561 . S
C781 C778 1.526 . S
C781 C782 1.396 . S
C781 C786 1.390 . S
C782 C776 1.465 . S
C782 C781 1.396 . S
C782 C783 1.399 . S
C783 H769 0.929 . S
C783 C782 1.399 . S
C783 C784 1.385 . S
C784 H770 0.931 . S
C784 C783 1.385 . S
C784 C785 1.389 . S
C785 C784 1.389 . S
C785 C786 1.387 . S
C786 H771 0.930 . S
C786 C781 1.390 . S
C786 C785 1.387 . S
H787 C799 0.930 . S
H788 C801 0.930 . S
H789 C802 0.930 . S
H790 C806 0.959 . S
H791 C806 0.959 . S
H792 C806 0.961 . S
H793 C807 0.960 . S
H794 C807 0.961 . S
H795 C807 0.959 . S
H796 C810 0.929 . S
H797 C811 0.931 . S
H798 C813 0.930 . S
C799 H787 0.930 . S
C799 C800 1.399 . S
C799 C804 1.399 . S
C800 C799 1.399 . S
C800 C801 1.376 . S
C801 H788 0.930 . S
C801 C800 1.376 . S
C801 C802 1.388 . S
C802 H789 0.930 . S
C802 C801 1.388 . S
C802 C803 1.390 . S
C803 C802 1.390 . S
C803 C804 1.394 . S
C803 C809 1.465 . S
C804 C799 1.399 . S
C804 C803 1.394 . S
C804 C805 1.516 . S
C805 C804 1.516 . S
C805 C806 1.502 . S
C805 C807 1.561 . S
C805 C808 1.526 . S
C806 H790 0.959 . S
C806 H791 0.959 . S
C806 H792 0.961 . S
C806 C805 1.502 . S
C807 H793 0.960 . S
C807 H794 0.961 . S
C807 H795 0.959 . S
C807 C805 1.561 . S
C808 C805 1.526 . S
C808 C809 1.396 . S
C808 C813 1.390 . S
C809 C803 1.465 . S
C809 C808 1.396 . S
C809 C810 1.399 . S
C810 H796 0.929 . S
C810 C809 1.399 . S
C810 C811 1.385 . S
C811 H797 0.931 . S
C811 C810 1.385 . S
C811 C812 1.389 . S
C812 C811 1.389 . S
C812 C813 1.387 . S
C813 H798 0.930 . S
C813 C808 1.390 . S
C813 C812 1.387 . S
H814 C826 0.930 . S
H815 C828 0.930 . S
H816 C829 0.930 . S
H817 C833 0.959 . S
H818 C833 0.959 . S
H819 C833 0.961 . S
H820 C834 0.960 . S
H821 C834 0.961 . S
H822 C834 0.959 . S
H823 C837 0.929 . S
H824 C838 0.931 . S
H825 C840 0.930 . S
C826 H814 0.930 . S
C826 C827 1.399 . S
C826 C831 1.399 . S
C827 C826 1.399 . S
C827 C828 1.376 . S
C828 H815 0.930 . S
C828 C827 1.376 . S
C828 C829 1.388 . S
C829 H816 0.930 . S
C829 C828 1.388 . S
C829 C830 1.390 . S
C830 C829 1.390 . S
C830 C831 1.394 . S
C830 C836 1.465 . S
C831 C826 1.399 . S
C831 C830 1.394 . S
C831 C832 1.516 . S
C832 C831 1.516 . S
C832 C833 1.502 . S
C832 C834 1.561 . S
C832 C835 1.526 . S
C833 H817 0.959 . S
C833 H818 0.959 . S
C833 H819 0.961 . S
C833 C832 1.502 . S
C834 H820 0.960 . S
C834 H821 0.961 . S
C834 H822 0.959 . S
C834 C832 1.561 . S
C835 C832 1.526 . S
C835 C836 1.396 . S
C835 C840 1.390 . S
C836 C830 1.465 . S
C836 C835 1.396 . S
C836 C837 1.399 . S
C837 H823 0.929 . S
C837 C836 1.399 . S
C837 C838 1.385 . S
C838 H824 0.931 . S
C838 C837 1.385 . S
C838 C839 1.389 . S
C839 C838 1.389 . S
C839 C840 1.387 . S
C840 H825 0.930 . S
C840 C835 1.390 . S
C840 C839 1.387 . S
H841 C853 0.930 . S
H842 C855 0.930 . S
H843 C856 0.930 1_655 S
H844 C860 0.959 . S
H845 C860 0.959 . S
H846 C860 0.961 . S
H847 C861 0.960 . S
H848 C861 0.961 . S
H849 C861 0.959 . S
H850 C864 0.929 . S
H851 C865 0.931 . S
H852 C867 0.930 . S
C853 H841 0.930 . S
C853 C854 1.399 . S
C853 C858 1.399 1_455 S
C854 C853 1.399 . S
C854 C855 1.376 . S
C855 H842 0.930 . S
C855 C854 1.376 . S
C855 C856 1.388 . S
C856 H843 0.930 1_455 S
C856 C855 1.388 . S
C856 C857 1.390 1_455 S
C857 C856 1.390 1_655 S
C857 C858 1.394 . S
C857 C863 1.465 . S
C858 C853 1.399 1_655 S
C858 C857 1.394 . S
C858 C859 1.516 . S
C859 C858 1.516 . S
C859 C860 1.502 . S
C859 C861 1.561 . S
C859 C862 1.526 . S
C860 H844 0.959 . S
C860 H845 0.959 . S
C860 H846 0.961 . S
C860 C859 1.502 . S
C861 H847 0.960 . S
C861 H848 0.961 . S
C861 H849 0.959 . S
C861 C859 1.561 . S
C862 C859 1.526 . S
C862 C863 1.396 . S
C862 C867 1.390 . S
C863 C857 1.465 . S
C863 C862 1.396 . S
C863 C864 1.399 . S
C864 H850 0.929 . S
C864 C863 1.399 . S
C864 C865 1.385 . S
C865 H851 0.931 . S
C865 C864 1.385 . S
C865 C866 1.389 . S
C866 C865 1.389 . S
C866 C867 1.387 . S
C867 H852 0.930 . S
C867 C862 1.390 . S
C867 C866 1.387 . S
H868 C880 0.930 . S
H869 C882 0.930 . S
H870 C883 0.930 1_655 S
H871 C887 0.959 . S
H872 C887 0.959 . S
H873 C887 0.961 . S
H874 C888 0.960 . S
H875 C888 0.961 . S
H876 C888 0.959 . S
H877 C891 0.929 . S
H878 C892 0.931 . S
H879 C894 0.930 . S
C880 H868 0.930 . S
C880 C881 1.399 . S
C880 C885 1.399 1_455 S
C881 C880 1.399 . S
C881 C882 1.376 . S
C882 H869 0.930 . S
C882 C881 1.376 . S
C882 C883 1.388 . S
C883 H870 0.930 1_455 S
C883 C882 1.388 . S
C883 C884 1.390 1_455 S
C884 C883 1.390 1_655 S
C884 C885 1.394 . S
C884 C890 1.465 . S
C885 C880 1.399 1_655 S
C885 C884 1.394 . S
C885 C886 1.516 . S
C886 C885 1.516 . S
C886 C887 1.502 . S
C886 C888 1.561 . S
C886 C889 1.526 . S
C887 H871 0.959 . S
C887 H872 0.959 . S
C887 H873 0.961 . S
C887 C886 1.502 . S
C888 H874 0.960 . S
C888 H875 0.961 . S
C888 H876 0.959 . S
C888 C886 1.561 . S
C889 C886 1.526 . S
C889 C890 1.396 . S
C889 C894 1.390 . S
C890 C884 1.465 . S
C890 C889 1.396 . S
C890 C891 1.399 . S
C891 H877 0.929 . S
C891 C890 1.399 . S
C891 C892 1.385 . S
C892 H878 0.931 . S
C892 C891 1.385 . S
C892 C893 1.389 . S
C893 C892 1.389 . S
C893 C894 1.387 . S
C894 H879 0.930 . S
C894 C889 1.390 . S
C894 C893 1.387 . S
H895 C907 0.930 . S
H896 C909 0.930 . S
H897 C910 0.930 . S
H898 C914 0.959 . S
H899 C914 0.959 . S
H900 C914 0.961 . S
H901 C915 0.960 . S
H902 C915 0.961 . S
H903 C915 0.959 . S
H904 C918 0.929 . S
H905 C919 0.931 . S
H906 C921 0.930 . S
C907 H895 0.930 . S
C907 C908 1.399 . S
C907 C912 1.399 . S
C908 C907 1.399 . S
C908 C909 1.376 . S
C909 H896 0.930 . S
C909 C908 1.376 . S
C909 C910 1.388 . S
C910 H897 0.930 . S
C910 C909 1.388 . S
C910 C911 1.390 . S
C911 C910 1.390 . S
C911 C912 1.394 . S
C911 C917 1.465 . S
C912 C907 1.399 . S
C912 C911 1.394 . S
C912 C913 1.516 . S
C913 C912 1.516 . S
C913 C914 1.502 . S
C913 C915 1.561 . S
C913 C916 1.526 . S
C914 H898 0.959 . S
C914 H899 0.959 . S
C914 H900 0.961 . S
C914 C913 1.502 . S
C915 H901 0.960 . S
C915 H902 0.961 . S
C915 H903 0.959 . S
C915 C913 1.561 . S
C916 C913 1.526 . S
C916 C917 1.396 . S
C916 C921 1.390 . S
C917 C911 1.465 . S
C917 C916 1.396 . S
C917 C918 1.399 . S
C918 H904 0.929 . S
C918 C917 1.399 . S
C918 C919 1.385 . S
C919 H905 0.931 . S
C919 C918 1.385 . S
C919 C920 1.389 . S
C920 C919 1.389 . S
C920 C921 1.387 . S
C921 H906 0.930 . S
C921 C916 1.390 . S
C921 C920 1.387 . S
H922 C934 0.930 . S
H923 C936 0.930 . S
H924 C937 0.930 . S
H925 C941 0.959 . S
H926 C941 0.959 . S
H927 C941 0.961 . S
H928 C942 0.960 . S
H929 C942 0.961 . S
H930 C942 0.959 . S
H931 C945 0.929 . S
H932 C946 0.931 . S
H933 C948 0.930 . S
C934 H922 0.930 . S
C934 C935 1.399 . S
C934 C939 1.399 . S
C935 C934 1.399 . S
C935 C936 1.376 . S
C936 H923 0.930 . S
C936 C935 1.376 . S
C936 C937 1.388 . S
C937 H924 0.930 . S
C937 C936 1.388 . S
C937 C938 1.390 . S
C938 C937 1.390 . S
C938 C939 1.394 . S
C938 C944 1.465 . S
C939 C934 1.399 . S
C939 C938 1.394 . S
C939 C940 1.516 . S
C940 C939 1.516 . S
C940 C941 1.502 . S
C940 C942 1.561 . S
C940 C943 1.526 . S
C941 H925 0.959 . S
C941 H926 0.959 . S
C941 H927 0.961 . S
C941 C940 1.502 . S
C942 H928 0.960 . S
C942 H929 0.961 . S
C942 H930 0.959 . S
C942 C940 1.561 . S
C943 C940 1.526 . S
C943 C944 1.396 . S
C943 C948 1.390 . S
C944 C938 1.465 . S
C944 C943 1.396 . S
C944 C945 1.399 . S
C945 H931 0.929 . S
C945 C944 1.399 . S
C945 C946 1.385 . S
C946 H932 0.931 . S
C946 C945 1.385 . S
C946 C947 1.389 . S
C947 C946 1.389 . S
C947 C948 1.387 . S
C948 H933 0.930 . S
C948 C943 1.390 . S
C948 C947 1.387 . S
H949 C961 0.930 . S
H950 C963 0.930 . S
H951 C964 0.930 . S
H952 C968 0.959 . S
H953 C968 0.959 . S
H954 C968 0.961 . S
H955 C969 0.960 . S
H956 C969 0.961 . S
H957 C969 0.959 . S
H958 C972 0.929 1_455 S
H959 C973 0.931 . S
H960 C975 0.930 . S
C961 H949 0.930 . S
C961 C962 1.399 . S
C961 C966 1.399 . S
C962 C961 1.399 . S
C962 C963 1.376 . S
C963 H950 0.930 . S
C963 C962 1.376 . S
C963 C964 1.388 . S
C964 H951 0.930 . S
C964 C963 1.388 . S
C964 C965 1.390 . S
C965 C964 1.390 . S
C965 C966 1.394 . S
C965 C971 1.465 . S
C966 C961 1.399 . S
C966 C965 1.394 . S
C966 C967 1.516 . S
C967 C966 1.516 . S
C967 C968 1.502 . S
C967 C969 1.561 . S
C967 C970 1.526 . S
C968 H952 0.959 . S
C968 H953 0.959 . S
C968 H954 0.961 . S
C968 C967 1.502 . S
C969 H955 0.960 . S
C969 H956 0.961 . S
C969 H957 0.959 . S
C969 C967 1.561 . S
C970 C967 1.526 . S
C970 C971 1.396 . S
C970 C975 1.390 1_455 S
C971 C965 1.465 . S
C971 C970 1.396 . S
C971 C972 1.399 1_455 S
C972 H958 0.929 1_655 S
C972 C971 1.399 1_655 S
C972 C973 1.385 . S
C973 H959 0.931 . S
C973 C972 1.385 . S
C973 C974 1.389 . S
C974 C973 1.389 . S
C974 C975 1.387 . S
C975 H960 0.930 . S
C975 C970 1.390 1_655 S
C975 C974 1.387 . S
H976 C988 0.930 . S
H977 C990 0.930 . S
H978 C991 0.930 . S
H979 C995 0.959 . S
H980 C995 0.959 . S
H981 C995 0.961 1_554 S
H982 C996 0.960 . S
H983 C996 0.961 . S
H984 C996 0.959 . S
H985 C999 0.929 . S
H986 C1000 0.931 . S
H987 C1002 0.930 . S
C988 H976 0.930 . S
C988 C989 1.399 . S
C988 C993 1.399 . S
C989 C988 1.399 . S
C989 C990 1.376 . S
C990 H977 0.930 . S
C990 C989 1.376 . S
C990 C991 1.388 . S
C991 H978 0.930 . S
C991 C990 1.388 . S
C991 C992 1.390 . S
C992 C991 1.390 . S
C992 C993 1.394 . S
C992 C998 1.465 1_554 S
C993 C988 1.399 . S
C993 C992 1.394 . S
C993 C994 1.516 . S
C994 C993 1.516 . S
C994 C995 1.502 1_554 S
C994 C996 1.561 . S
C994 C997 1.526 1_554 S
C995 H979 0.959 . S
C995 H980 0.959 . S
C995 H981 0.961 1_556 S
C995 C994 1.502 1_556 S
C996 H982 0.960 . S
C996 H983 0.961 . S
C996 H984 0.959 . S
C996 C994 1.561 . S
C997 C994 1.526 1_556 S
C997 C998 1.396 . S
C997 C1002 1.390 . S
C998 C992 1.465 1_556 S
C998 C997 1.396 . S
C998 C999 1.399 . S
C999 H985 0.929 . S
C999 C998 1.399 . S
C999 C1000 1.385 . S
C1000 H986 0.931 . S
C1000 C999 1.385 . S
C1000 C1001 1.389 . S
C1001 C1000 1.389 . S
C1001 C1002 1.387 . S
C1002 H987 0.930 . S
C1002 C997 1.390 . S
C1002 C1001 1.387 . S
H1003 C1015 0.930 . S
H1004 C1017 0.930 . S
H1005 C1018 0.930 1_556 S
H1006 C1022 0.959 . S
H1007 C1022 0.959 . S
H1008 C1022 0.961 . S
H1009 C1023 0.960 . S
H1010 C1023 0.961 1_655 S
H1011 C1023 0.959 . S
H1012 C1026 0.929 . S
H1013 C1027 0.931 . S
H1014 C1029 0.930 1_655 S
C1015 H1003 0.930 . S
C1015 C1016 1.399 . S
C1015 C1020 1.399 . S
C1016 C1015 1.399 . S
C1016 C1017 1.376 . S
C1017 H1004 0.930 . S
C1017 C1016 1.376 . S
C1017 C1018 1.388 . S
C1018 H1005 0.930 1_554 S
C1018 C1017 1.388 . S
C1018 C1019 1.390 . S
C1019 C1018 1.390 . S
C1019 C1020 1.394 . S
C1019 C1025 1.465 1_554 S
C1020 C1015 1.399 . S
C1020 C1019 1.394 . S
C1020 C1021 1.516 . S
C1021 C1020 1.516 . S
C1021 C1022 1.502 . S
C1021 C1023 1.561 . S
C1021 C1024 1.526 1_554 S
C1022 H1006 0.959 . S
C1022 H1007 0.959 . S
C1022 H1008 0.961 . S
C1022 C1021 1.502 . S
C1023 H1009 0.960 . S
C1023 H1010 0.961 1_455 S
C1023 H1011 0.959 . S
C1023 C1021 1.561 . S
C1024 C1021 1.526 1_556 S
C1024 C1025 1.396 . S
C1024 C1029 1.390 . S
C1025 C1019 1.465 1_556 S
C1025 C1024 1.396 . S
C1025 C1026 1.399 . S
C1026 H1012 0.929 . S
C1026 C1025 1.399 . S
C1026 C1027 1.385 . S
C1027 H1013 0.931 . S
C1027 C1026 1.385 . S
C1027 C1028 1.389 . S
C1028 C1027 1.389 . S
C1028 C1029 1.387 . S
C1029 H1014 0.930 1_455 S
C1029 C1024 1.390 . S
C1029 C1028 1.387 . S
H1030 C1042 0.930 . S
H1031 C1044 0.930 . S
H1032 C1045 0.930 . S
H1033 C1049 0.959 . S
H1034 C1049 0.959 . S
H1035 C1049 0.961 . S
H1036 C1050 0.960 . S
H1037 C1050 0.961 . S
H1038 C1050 0.959 . S
H1039 C1053 0.929 . S
H1040 C1054 0.931 1_455 S
H1041 C1056 0.930 . S
C1042 H1030 0.930 . S
C1042 C1043 1.399 . S
C1042 C1047 1.399 . S
C1043 C1042 1.399 . S
C1043 C1044 1.376 . S
C1044 H1031 0.930 . S
C1044 C1043 1.376 . S
C1044 C1045 1.388 . S
C1045 H1032 0.930 . S
C1045 C1044 1.388 . S
C1045 C1046 1.390 . S
C1046 C1045 1.390 . S
C1046 C1047 1.394 . S
C1046 C1052 1.465 . S
C1047 C1042 1.399 . S
C1047 C1046 1.394 . S
C1047 C1048 1.516 . S
C1048 C1047 1.516 . S
C1048 C1049 1.502 . S
C1048 C1050 1.561 . S
C1048 C1051 1.526 . S
C1049 H1033 0.959 . S
C1049 H1034 0.959 . S
C1049 H1035 0.961 . S
C1049 C1048 1.502 . S
C1050 H1036 0.960 . S
C1050 H1037 0.961 . S
C1050 H1038 0.959 . S
C1050 C1048 1.561 . S
C1051 C1048 1.526 . S
C1051 C1052 1.396 . S
C1051 C1056 1.390 . S
C1052 C1046 1.465 . S
C1052 C1051 1.396 . S
C1052 C1053 1.399 . S
C1053 H1039 0.929 . S
C1053 C1052 1.399 . S
C1053 C1054 1.385 . S
C1054 H1040 0.931 1_655 S
C1054 C1053 1.385 . S
C1054 C1055 1.389 . S
C1055 C1054 1.389 . S
C1055 C1056 1.387 . S
C1056 H1041 0.930 . S
C1056 C1051 1.390 . S
C1056 C1055 1.387 . S
H1057 C1069 0.930 . S
H1058 C1071 0.930 . S
H1059 C1072 0.930 . S
H1060 C1076 0.959 . S
H1061 C1076 0.959 . S
H1062 C1076 0.961 . S
H1063 C1077 0.960 . S
H1064 C1077 0.961 . S
H1065 C1077 0.959 . S
H1066 C1080 0.929 . S
H1067 C1081 0.931 . S
H1068 C1083 0.930 . S
C1069 H1057 0.930 . S
C1069 C1070 1.399 . S
C1069 C1074 1.399 . S
C1070 C1069 1.399 . S
C1070 C1071 1.376 . S
C1071 H1058 0.930 . S
C1071 C1070 1.376 . S
C1071 C1072 1.388 . S
C1072 H1059 0.930 . S
C1072 C1071 1.388 . S
C1072 C1073 1.390 . S
C1073 C1072 1.390 . S
C1073 C1074 1.394 . S
C1073 C1079 1.465 . S
C1074 C1069 1.399 . S
C1074 C1073 1.394 . S
C1074 C1075 1.516 . S
C1075 C1074 1.516 . S
C1075 C1076 1.502 . S
C1075 C1077 1.561 . S
C1075 C1078 1.526 . S
C1076 H1060 0.959 . S
C1076 H1061 0.959 . S
C1076 H1062 0.961 . S
C1076 C1075 1.502 . S
C1077 H1063 0.960 . S
C1077 H1064 0.961 . S
C1077 H1065 0.959 . S
C1077 C1075 1.561 . S
C1078 C1075 1.526 . S
C1078 C1079 1.396 . S
C1078 C1083 1.390 . S
C1079 C1073 1.465 . S
C1079 C1078 1.396 . S
C1079 C1080 1.399 . S
C1080 H1066 0.929 . S
C1080 C1079 1.399 . S
C1080 C1081 1.385 . S
C1081 H1067 0.931 . S
C1081 C1080 1.385 . S
C1081 C1082 1.389 . S
C1082 C1081 1.389 . S
C1082 C1083 1.387 . S
C1083 H1068 0.930 . S
C1083 C1078 1.390 . S
C1083 C1082 1.387 . S
H1084 C1096 0.930 . S
H1085 C1098 0.930 . S
H1086 C1099 0.930 . S
H1087 C1103 0.959 . S
H1088 C1103 0.959 . S
H1089 C1103 0.961 . S
H1090 C1104 0.960 1_556 S
H1091 C1104 0.961 . S
H1092 C1104 0.959 . S
H1093 C1107 0.929 . S
H1094 C1108 0.931 . S
H1095 C1110 0.930 . S
C1096 H1084 0.930 . S
C1096 C1097 1.399 . S
C1096 C1101 1.399 . S
C1097 C1096 1.399 . S
C1097 C1098 1.376 . S
C1098 H1085 0.930 . S
C1098 C1097 1.376 . S
C1098 C1099 1.388 . S
C1099 H1086 0.930 . S
C1099 C1098 1.388 . S
C1099 C1100 1.390 . S
C1100 C1099 1.390 . S
C1100 C1101 1.394 . S
C1100 C1106 1.465 1_556 S
C1101 C1096 1.399 . S
C1101 C1100 1.394 . S
C1101 C1102 1.516 . S
C1102 C1101 1.516 . S
C1102 C1103 1.502 . S
C1102 C1104 1.561 1_556 S
C1102 C1105 1.526 1_556 S
C1103 H1087 0.959 . S
C1103 H1088 0.959 . S
C1103 H1089 0.961 . S
C1103 C1102 1.502 . S
C1104 H1090 0.960 1_554 S
C1104 H1091 0.961 . S
C1104 H1092 0.959 . S
C1104 C1102 1.561 1_554 S
C1105 C1102 1.526 1_554 S
C1105 C1106 1.396 . S
C1105 C1110 1.390 . S
C1106 C1100 1.465 1_554 S
C1106 C1105 1.396 . S
C1106 C1107 1.399 . S
C1107 H1093 0.929 . S
C1107 C1106 1.399 . S
C1107 C1108 1.385 . S
C1108 H1094 0.931 . S
C1108 C1107 1.385 . S
C1108 C1109 1.389 . S
C1109 C1108 1.389 . S
C1109 C1110 1.387 . S
C1110 H1095 0.930 . S
C1110 C1105 1.390 . S
C1110 C1109 1.387 . S
H1111 C1123 0.930 . S
H1112 C1125 0.930 . S
H1113 C1126 0.930 . S
H1114 C1130 0.959 . S
H1115 C1130 0.959 . S
H1116 C1130 0.961 . S
H1117 C1131 0.955 1_556 S
H1118 C1131 0.969 . S
H1119 C1131 0.953 1_556 S
H1120 C1134 0.929 1_556 S
H1121 C1135 0.931 . S
H1122 C1137 0.930 . S
C1123 H1111 0.930 . S
C1123 C1124 1.399 . S
C1123 C1128 1.399 . S
C1124 C1123 1.399 . S
C1124 C1125 1.376 . S
C1125 H1112 0.930 . S
C1125 C1124 1.376 . S
C1125 C1126 1.388 . S
C1126 H1113 0.930 . S
C1126 C1125 1.388 . S
C1126 C1127 1.390 . S
C1127 C1126 1.390 . S
C1127 C1128 1.394 . S
C1127 C1133 1.465 1_556 S
C1128 C1123 1.399 . S
C1128 C1127 1.394 . S
C1128 C1129 1.516 1_556 S
C1129 C1128 1.516 1_554 S
C1129 C1130 1.502 . S
C1129 C1131 1.564 . S
C1129 C1132 1.526 . S
C1130 H1114 0.959 . S
C1130 H1115 0.959 . S
C1130 H1116 0.961 . S
C1130 C1129 1.502 . S
C1131 H1117 0.955 1_554 S
C1131 H1118 0.969 . S
C1131 H1119 0.953 1_554 S
C1131 C1129 1.564 . S
C1132 C1129 1.526 . S
C1132 C1133 1.396 . S
C1132 C1137 1.390 . S
C1133 C1127 1.465 1_554 S
C1133 C1132 1.396 . S
C1133 C1134 1.399 . S
C1134 H1120 0.929 1_554 S
C1134 C1133 1.399 . S
C1134 C1135 1.385 . S
C1135 H1121 0.931 . S
C1135 C1134 1.385 . S
C1135 C1136 1.389 . S
C1136 C1135 1.389 . S
C1136 C1137 1.387 . S
C1137 H1122 0.930 . S
C1137 C1132 1.390 . S
C1137 C1136 1.387 . S
H1138 C1150 0.930 . S
H1139 C1152 0.930 . S
H1140 C1153 0.930 . S
H1141 C1157 0.959 . S
H1142 C1157 0.959 . S
H1143 C1157 0.961 . S
H1144 C1158 0.960 . S
H1145 C1158 0.961 . S
H1146 C1158 0.959 . S
H1147 C1161 0.929 . S
H1148 C1162 0.931 . S
H1149 C1164 0.930 . S
C1150 H1138 0.930 . S
C1150 C1151 1.399 . S
C1150 C1155 1.399 . S
C1151 C1150 1.399 . S
C1151 C1152 1.376 . S
C1152 H1139 0.930 . S
C1152 C1151 1.376 . S
C1152 C1153 1.388 . S
C1153 H1140 0.930 . S
C1153 C1152 1.388 . S
C1153 C1154 1.390 . S
C1154 C1153 1.390 . S
C1154 C1155 1.394 . S
C1154 C1160 1.465 . S
C1155 C1150 1.399 . S
C1155 C1154 1.394 . S
C1155 C1156 1.516 . S
C1156 C1155 1.516 . S
C1156 C1157 1.502 . S
C1156 C1158 1.561 . S
C1156 C1159 1.526 . S
C1157 H1141 0.959 . S
C1157 H1142 0.959 . S
C1157 H1143 0.961 . S
C1157 C1156 1.502 . S
C1158 H1144 0.960 . S
C1158 H1145 0.961 . S
C1158 H1146 0.959 . S
C1158 C1156 1.561 . S
C1159 C1156 1.526 . S
C1159 C1160 1.396 . S
C1159 C1164 1.390 . S
C1160 C1154 1.465 . S
C1160 C1159 1.396 . S
C1160 C1161 1.399 . S
C1161 H1147 0.929 . S
C1161 C1160 1.399 . S
C1161 C1162 1.385 . S
C1162 H1148 0.931 . S
C1162 C1161 1.385 . S
C1162 C1163 1.389 . S
C1163 C1162 1.389 . S
C1163 C1164 1.387 . S
C1164 H1149 0.930 . S
C1164 C1159 1.390 . S
C1164 C1163 1.387 . S
H1165 C1177 0.930 . S
H1166 C1179 0.930 . S
H1167 C1180 0.930 . S
H1168 C1184 0.959 . S
H1169 C1184 0.959 . S
H1170 C1184 0.961 . S
H1171 C1185 0.960 . S
H1172 C1185 0.961 . S
H1173 C1185 0.959 . S
H1174 C1188 0.929 . S
H1175 C1189 0.931 . S
H1176 C1191 0.930 . S
C1177 H1165 0.930 . S
C1177 C1178 1.399 . S
C1177 C1182 1.399 . S
C1178 C1177 1.399 . S
C1178 C1179 1.376 . S
C1179 H1166 0.930 . S
C1179 C1178 1.376 . S
C1179 C1180 1.388 . S
C1180 H1167 0.930 . S
C1180 C1179 1.388 . S
C1180 C1181 1.390 . S
C1181 C1180 1.390 . S
C1181 C1182 1.394 . S
C1181 C1187 1.465 . S
C1182 C1177 1.399 . S
C1182 C1181 1.394 . S
C1182 C1183 1.516 . S
C1183 C1182 1.516 . S
C1183 C1184 1.502 . S
C1183 C1185 1.561 . S
C1183 C1186 1.526 . S
C1184 H1168 0.959 . S
C1184 H1169 0.959 . S
C1184 H1170 0.961 . S
C1184 C1183 1.502 . S
C1185 H1171 0.960 . S
C1185 H1172 0.961 . S
C1185 H1173 0.959 . S
C1185 C1183 1.561 . S
C1186 C1183 1.526 . S
C1186 C1187 1.396 . S
C1186 C1191 1.390 . S
C1187 C1181 1.465 . S
C1187 C1186 1.396 . S
C1187 C1188 1.399 . S
C1188 H1174 0.929 . S
C1188 C1187 1.399 . S
C1188 C1189 1.385 . S
C1189 H1175 0.931 . S
C1189 C1188 1.385 . S
C1189 C1190 1.389 . S
C1190 C1189 1.389 . S
C1190 C1191 1.387 . S
C1191 H1176 0.930 . S
C1191 C1186 1.390 . S
C1191 C1190 1.387 . S
H1192 C1204 0.930 . S
H1193 C1206 0.930 . S
H1194 C1207 0.930 . S
H1195 C1211 0.959 . S
H1196 C1211 0.959 . S
H1197 C1211 0.961 . S
H1198 C1212 0.960 . S
H1199 C1212 0.961 . S
H1200 C1212 0.959 . S
H1201 C1215 0.929 . S
H1202 C1216 0.931 . S
H1203 C1218 0.930 . S
C1204 H1192 0.930 . S
C1204 C1205 1.399 . S
C1204 C1209 1.399 . S
C1205 C1204 1.399 . S
C1205 C1206 1.376 . S
C1206 H1193 0.930 . S
C1206 C1205 1.376 . S
C1206 C1207 1.388 . S
C1207 H1194 0.930 . S
C1207 C1206 1.388 . S
C1207 C1208 1.390 . S
C1208 C1207 1.390 . S
C1208 C1209 1.394 . S
C1208 C1214 1.465 1_554 S
C1209 C1204 1.399 . S
C1209 C1208 1.394 . S
C1209 C1210 1.539 . S
C1210 C1209 1.539 . S
C1210 C1211 1.522 . S
C1210 C1212 1.540 1_554 S
C1210 C1213 1.502 1_554 S
C1211 H1195 0.959 . S
C1211 H1196 0.959 . S
C1211 H1197 0.961 . S
C1211 C1210 1.522 . S
C1212 H1198 0.960 . S
C1212 H1199 0.961 . S
C1212 H1200 0.959 . S
C1212 C1210 1.540 1_556 S
C1213 C1210 1.502 1_556 S
C1213 C1214 1.396 . S
C1213 C1218 1.390 . S
C1214 C1208 1.465 1_556 S
C1214 C1213 1.396 . S
C1214 C1215 1.399 . S
C1215 H1201 0.929 . S
C1215 C1214 1.399 . S
C1215 C1216 1.385 . S
C1216 H1202 0.931 . S
C1216 C1215 1.385 . S
C1216 C1217 1.389 . S
C1217 C1216 1.389 . S
C1217 C1218 1.387 . S
C1218 H1203 0.930 . S
C1218 C1213 1.390 . S
C1218 C1217 1.387 . S
H1219 C1231 0.930 . S
H1220 C1233 0.930 . S
H1221 C1234 0.924 1_554 S
H1222 C1238 0.959 1_554 S
H1223 C1238 0.959 . S
H1224 C1238 0.961 . S
H1225 C1239 0.960 . S
H1226 C1239 0.961 . S
H1227 C1239 0.959 . S
H1228 C1242 0.929 . S
H1229 C1243 0.931 . S
H1230 C1245 0.930 . S
C1231 H1219 0.930 . S
C1231 C1232 1.399 . S
C1231 C1236 1.399 . S
C1232 C1231 1.399 . S
C1232 C1233 1.376 . S
C1233 H1220 0.930 . S
C1233 C1232 1.376 . S
C1233 C1234 1.388 . S
C1234 H1221 0.924 1_556 S
C1234 C1233 1.388 . S
C1234 C1235 1.390 . S
C1235 C1234 1.390 . S
C1235 C1236 1.394 . S
C1235 C1241 1.465 1_556 S
C1236 C1231 1.399 . S
C1236 C1235 1.394 . S
C1236 C1237 1.516 . S
C1237 C1236 1.516 . S
C1237 C1238 1.502 . S
C1237 C1239 1.561 . S
C1237 C1240 1.526 1_556 S
C1238 H1222 0.959 1_556 S
C1238 H1223 0.959 . S
C1238 H1224 0.961 . S
C1238 C1237 1.502 . S
C1239 H1225 0.960 . S
C1239 H1226 0.961 . S
C1239 H1227 0.959 . S
C1239 C1237 1.561 . S
C1240 C1237 1.526 1_554 S
C1240 C1241 1.396 . S
C1240 C1245 1.390 . S
C1241 C1235 1.465 1_554 S
C1241 C1240 1.396 . S
C1241 C1242 1.399 . S
C1242 H1228 0.929 . S
C1242 C1241 1.399 . S
C1242 C1243 1.385 . S
C1243 H1229 0.931 . S
C1243 C1242 1.385 . S
C1243 C1244 1.389 . S
C1244 C1243 1.389 . S
C1244 C1245 1.387 . S
C1245 H1230 0.930 . S
C1245 C1240 1.390 . S
C1245 C1244 1.387 . S
H1246 C1258 0.930 . S
H1247 C1260 0.930 . S
H1248 C1261 0.930 . S
H1249 C1265 0.959 . S
H1250 C1265 0.959 . S
H1251 C1265 0.961 . S
H1252 C1266 0.960 . S
H1253 C1266 0.961 . S
H1254 C1266 0.959 . S
H1255 C1269 0.929 . S
H1256 C1270 0.931 . S
H1257 C1272 0.930 . S
C1258 H1246 0.930 . S
C1258 C1259 1.399 . S
C1258 C1263 1.399 . S
C1259 C1258 1.399 . S
C1259 C1260 1.376 . S
C1260 H1247 0.930 . S
C1260 C1259 1.376 . S
C1260 C1261 1.388 . S
C1261 H1248 0.930 . S
C1261 C1260 1.388 . S
C1261 C1262 1.390 . S
C1262 C1261 1.390 . S
C1262 C1263 1.394 . S
C1262 C1268 1.465 . S
C1263 C1258 1.399 . S
C1263 C1262 1.394 . S
C1263 C1264 1.516 . S
C1264 C1263 1.516 . S
C1264 C1265 1.502 . S
C1264 C1266 1.561 . S
C1264 C1267 1.526 . S
C1265 H1249 0.959 . S
C1265 H1250 0.959 . S
C1265 H1251 0.961 . S
C1265 C1264 1.502 . S
C1266 H1252 0.960 . S
C1266 H1253 0.961 . S
C1266 H1254 0.959 . S
C1266 C1264 1.561 . S
C1267 C1264 1.526 . S
C1267 C1268 1.396 . S
C1267 C1272 1.390 . S
C1268 C1262 1.465 . S
C1268 C1267 1.396 . S
C1268 C1269 1.399 . S
C1269 H1255 0.929 . S
C1269 C1268 1.399 . S
C1269 C1270 1.385 . S
C1270 H1256 0.931 . S
C1270 C1269 1.385 . S
C1270 C1271 1.389 . S
C1271 C1270 1.389 . S
C1271 C1272 1.387 . S
C1272 H1257 0.930 . S
C1272 C1267 1.390 . S
C1272 C1271 1.387 . S
H1273 C1285 0.930 . S
H1274 C1287 0.930 . S
H1275 C1288 0.930 . S
H1276 C1292 0.959 . S
H1277 C1292 0.959 . S
H1278 C1292 0.961 . S
H1279 C1293 0.960 . S
H1280 C1293 0.961 . S
H1281 C1293 0.959 . S
H1282 C1296 0.929 . S
H1283 C1297 0.931 . S
H1284 C1299 0.930 . S
C1285 H1273 0.930 . S
C1285 C1286 1.399 . S
C1285 C1290 1.399 . S
C1286 C1285 1.399 . S
C1286 C1287 1.376 . S
C1287 H1274 0.930 . S
C1287 C1286 1.376 . S
C1287 C1288 1.388 . S
C1288 H1275 0.930 . S
C1288 C1287 1.388 . S
C1288 C1289 1.390 . S
C1289 C1288 1.390 . S
C1289 C1290 1.394 . S
C1289 C1295 1.465 . S
C1290 C1285 1.399 . S
C1290 C1289 1.394 . S
C1290 C1291 1.516 . S
C1291 C1290 1.516 . S
C1291 C1292 1.502 . S
C1291 C1293 1.561 . S
C1291 C1294 1.526 . S
C1292 H1276 0.959 . S
C1292 H1277 0.959 . S
C1292 H1278 0.961 . S
C1292 C1291 1.502 . S
C1293 H1279 0.960 . S
C1293 H1280 0.961 . S
C1293 H1281 0.959 . S
C1293 C1291 1.561 . S
C1294 C1291 1.526 . S
C1294 C1295 1.396 . S
C1294 C1299 1.390 . S
C1295 C1289 1.465 . S
C1295 C1294 1.396 . S
C1295 C1296 1.399 . S
C1296 H1282 0.929 . S
C1296 C1295 1.399 . S
C1296 C1297 1.385 . S
C1297 H1283 0.931 . S
C1297 C1296 1.385 . S
C1297 C1298 1.389 . S
C1298 C1297 1.389 . S
C1298 C1299 1.387 . S
C1299 H1284 0.930 . S
C1299 C1294 1.390 . S
C1299 C1298 1.387 . S
H1300 C1312 0.930 . S
H1301 C1314 0.930 . S
H1302 C1315 0.930 . S
H1303 C1319 0.959 . S
H1304 C1319 0.959 . S
H1305 C1319 0.961 . S
H1306 C1320 0.960 . S
H1307 C1320 0.961 . S
H1308 C1320 0.959 . S
H1309 C1323 0.929 . S
H1310 C1324 0.931 . S
H1311 C1326 0.930 . S
C1312 H1300 0.930 . S
C1312 C1313 1.399 . S
C1312 C1317 1.399 . S
C1313 C1312 1.399 . S
C1313 C1314 1.376 . S
C1314 H1301 0.930 . S
C1314 C1313 1.376 . S
C1314 C1315 1.388 . S
C1315 H1302 0.930 . S
C1315 C1314 1.388 . S
C1315 C1316 1.390 . S
C1316 C1315 1.390 . S
C1316 C1317 1.394 . S
C1316 C1322 1.465 1_554 S
C1317 C1312 1.399 . S
C1317 C1316 1.394 . S
C1317 C1318 1.490 1_554 S
C1318 C1317 1.490 1_556 S
C1318 C1319 1.526 . S
C1318 C1320 1.537 1_556 S
C1318 C1321 1.551 . S
C1319 H1303 0.959 . S
C1319 H1304 0.959 . S
C1319 H1305 0.961 . S
C1319 C1318 1.526 . S
C1320 H1306 0.960 . S
C1320 H1307 0.961 . S
C1320 H1308 0.959 . S
C1320 C1318 1.537 1_554 S
C1321 C1318 1.551 . S
C1321 C1322 1.396 . S
C1321 C1326 1.390 . S
C1322 C1316 1.465 1_556 S
C1322 C1321 1.396 . S
C1322 C1323 1.399 . S
C1323 H1309 0.929 . S
C1323 C1322 1.399 . S
C1323 C1324 1.385 . S
C1324 H1310 0.931 . S
C1324 C1323 1.385 . S
C1324 C1325 1.389 . S
C1325 C1324 1.389 . S
C1325 C1326 1.387 . S
C1326 H1311 0.930 . S
C1326 C1321 1.390 . S
C1326 C1325 1.387 . S
H1327 C1339 0.930 . S
H1328 C1341 0.930 . S
H1329 C1342 0.930 . S
H1330 C1346 0.959 . S
H1331 C1346 0.959 . S
H1332 C1346 0.961 . S
H1333 C1347 0.960 . S
H1334 C1347 0.961 1_554 S
H1335 C1347 0.959 . S
H1336 C1350 0.929 . S
H1337 C1351 0.931 . S
H1338 C1353 0.930 . S
C1339 H1327 0.930 . S
C1339 C1340 1.399 . S
C1339 C1344 1.399 . S
C1340 C1339 1.399 . S
C1340 C1341 1.376 . S
C1341 H1328 0.930 . S
C1341 C1340 1.376 . S
C1341 C1342 1.388 . S
C1342 H1329 0.930 . S
C1342 C1341 1.388 . S
C1342 C1343 1.390 . S
C1343 C1342 1.390 . S
C1343 C1344 1.394 . S
C1343 C1349 1.465 1_556 S
C1344 C1339 1.399 . S
C1344 C1343 1.394 . S
C1344 C1345 1.516 1_556 S
C1345 C1344 1.516 1_554 S
C1345 C1346 1.502 . S
C1345 C1347 1.561 1_554 S
C1345 C1348 1.526 . S
C1346 H1330 0.959 . S
C1346 H1331 0.959 . S
C1346 H1332 0.961 . S
C1346 C1345 1.502 . S
C1347 H1333 0.960 . S
C1347 H1334 0.961 1_556 S
C1347 H1335 0.959 . S
C1347 C1345 1.561 1_556 S
C1348 C1345 1.526 . S
C1348 C1349 1.396 . S
C1348 C1353 1.390 . S
C1349 C1343 1.465 1_554 S
C1349 C1348 1.396 . S
C1349 C1350 1.399 . S
C1350 H1336 0.929 . S
C1350 C1349 1.399 . S
C1350 C1351 1.385 . S
C1351 H1337 0.931 . S
C1351 C1350 1.385 . S
C1351 C1352 1.389 . S
C1352 C1351 1.389 . S
C1352 C1353 1.387 . S
C1353 H1338 0.930 . S
C1353 C1348 1.390 . S
C1353 C1352 1.387 . S
H1354 C1366 0.930 . S
H1355 C1368 0.930 . S
H1356 C1369 0.930 . S
H1357 C1373 0.959 . S
H1358 C1373 0.959 . S
H1359 C1373 0.961 . S
H1360 C1374 0.960 . S
H1361 C1374 0.961 . S
H1362 C1374 0.959 . S
H1363 C1377 0.929 . S
H1364 C1378 0.931 . S
H1365 C1380 0.930 . S
C1366 H1354 0.930 . S
C1366 C1367 1.399 . S
C1366 C1371 1.399 . S
C1367 C1366 1.399 . S
C1367 C1368 1.376 . S
C1368 H1355 0.930 . S
C1368 C1367 1.376 . S
C1368 C1369 1.388 . S
C1369 H1356 0.930 . S
C1369 C1368 1.388 . S
C1369 C1370 1.390 . S
C1370 C1369 1.390 . S
C1370 C1371 1.394 . S
C1370 C1376 1.465 . S
C1371 C1366 1.399 . S
C1371 C1370 1.394 . S
C1371 C1372 1.516 . S
C1372 C1371 1.516 . S
C1372 C1373 1.502 . S
C1372 C1374 1.561 . S
C1372 C1375 1.526 . S
C1373 H1357 0.959 . S
C1373 H1358 0.959 . S
C1373 H1359 0.961 . S
C1373 C1372 1.502 . S
C1374 H1360 0.960 . S
C1374 H1361 0.961 . S
C1374 H1362 0.959 . S
C1374 C1372 1.561 . S
C1375 C1372 1.526 . S
C1375 C1376 1.396 . S
C1375 C1380 1.390 . S
C1376 C1370 1.465 . S
C1376 C1375 1.396 . S
C1376 C1377 1.399 . S
C1377 H1363 0.929 . S
C1377 C1376 1.399 . S
C1377 C1378 1.385 . S
C1378 H1364 0.931 . S
C1378 C1377 1.385 . S
C1378 C1379 1.389 . S
C1379 C1378 1.389 . S
C1379 C1380 1.387 . S
C1380 H1365 0.930 . S
C1380 C1375 1.390 . S
C1380 C1379 1.387 . S
H1381 C1393 0.930 . S
H1382 C1395 0.930 . S
H1383 C1396 0.930 . S
H1384 C1400 0.959 . S
H1385 C1400 0.959 . S
H1386 C1400 0.961 . S
H1387 C1401 0.960 . S
H1388 C1401 0.961 . S
H1389 C1401 0.959 . S
H1390 C1404 0.929 . S
H1391 C1405 0.931 1_455 S
H1392 C1407 0.930 . S
C1393 H1381 0.930 . S
C1393 C1394 1.399 . S
C1393 C1398 1.399 . S
C1394 C1393 1.399 . S
C1394 C1395 1.376 . S
C1395 H1382 0.930 . S
C1395 C1394 1.376 . S
C1395 C1396 1.388 . S
C1396 H1383 0.930 . S
C1396 C1395 1.388 . S
C1396 C1397 1.390 . S
C1397 C1396 1.390 . S
C1397 C1398 1.394 . S
C1397 C1403 1.465 . S
C1398 C1393 1.399 . S
C1398 C1397 1.394 . S
C1398 C1399 1.516 . S
C1399 C1398 1.516 . S
C1399 C1400 1.502 . S
C1399 C1401 1.561 . S
C1399 C1402 1.526 . S
C1400 H1384 0.959 . S
C1400 H1385 0.959 . S
C1400 H1386 0.961 . S
C1400 C1399 1.502 . S
C1401 H1387 0.960 . S
C1401 H1388 0.961 . S
C1401 H1389 0.959 . S
C1401 C1399 1.561 . S
C1402 C1399 1.526 . S
C1402 C1403 1.396 . S
C1402 C1407 1.390 . S
C1403 C1397 1.465 . S
C1403 C1402 1.396 . S
C1403 C1404 1.399 . S
C1404 H1390 0.929 . S
C1404 C1403 1.399 . S
C1404 C1405 1.385 . S
C1405 H1391 0.931 1_655 S
C1405 C1404 1.385 . S
C1405 C1406 1.389 . S
C1406 C1405 1.389 . S
C1406 C1407 1.387 . S
C1407 H1392 0.930 . S
C1407 C1402 1.390 . S
C1407 C1406 1.387 . S
H1408 C1420 0.930 . S
H1409 C1422 0.930 . S
H1410 C1423 0.930 . S
H1411 C1427 0.959 . S
H1412 C1427 0.959 1_565 S
H1413 C1427 0.961 . S
H1414 C1428 0.960 1_545 S
H1415 C1428 0.961 . S
H1416 C1428 0.959 . S
H1417 C1431 0.929 . S
H1418 C1432 0.931 . S
H1419 C1434 0.930 . S
C1420 H1408 0.930 . S
C1420 C1421 1.399 . S
C1420 C1425 1.399 . S
C1421 C1420 1.399 . S
C1421 C1422 1.376 . S
C1422 H1409 0.930 . S
C1422 C1421 1.376 . S
C1422 C1423 1.388 . S
C1423 H1410 0.930 . S
C1423 C1422 1.388 . S
C1423 C1424 1.390 . S
C1424 C1423 1.390 . S
C1424 C1425 1.394 . S
C1424 C1430 1.465 1_545 S
C1425 C1420 1.399 . S
C1425 C1424 1.394 . S
C1425 C1426 1.560 . S
C1426 C1425 1.560 . S
C1426 C1427 1.511 . S
C1426 C1428 1.556 1_545 S
C1426 C1429 1.479 1_545 S
C1427 H1411 0.959 . S
C1427 H1412 0.959 1_545 S
C1427 H1413 0.961 . S
C1427 C1426 1.511 . S
C1428 H1414 0.960 1_565 S
C1428 H1415 0.961 . S
C1428 H1416 0.959 . S
C1428 C1426 1.556 1_565 S
C1429 C1426 1.479 1_565 S
C1429 C1430 1.396 . S
C1429 C1434 1.390 . S
C1430 C1424 1.465 1_565 S
C1430 C1429 1.396 . S
C1430 C1431 1.399 . S
C1431 H1417 0.929 . S
C1431 C1430 1.399 . S
C1431 C1432 1.385 . S
C1432 H1418 0.931 . S
C1432 C1431 1.385 . S
C1432 C1433 1.389 . S
C1433 C1432 1.389 . S
C1433 C1434 1.387 . S
C1434 H1419 0.930 . S
C1434 C1429 1.390 . S
C1434 C1433 1.387 . S
H1435 C1447 0.930 . S
H1436 C1449 0.930 . S
H1437 C1450 0.930 . S
H1438 C1454 0.959 . S
H1439 C1454 0.959 . S
H1440 C1454 0.961 1_545 S
H1441 C1455 0.960 1_545 S
H1442 C1455 0.961 . S
H1443 C1455 0.959 . S
H1444 C1458 0.929 . S
H1445 C1459 0.931 . S
H1446 C1461 0.930 . S
C1447 H1435 0.930 . S
C1447 C1448 1.399 . S
C1447 C1452 1.399 . S
C1448 C1447 1.399 . S
C1448 C1449 1.376 . S
C1449 H1436 0.930 . S
C1449 C1448 1.376 . S
C1449 C1450 1.388 . S
C1450 H1437 0.930 . S
C1450 C1449 1.388 . S
C1450 C1451 1.390 . S
C1451 C1450 1.390 . S
C1451 C1452 1.394 . S
C1451 C1457 1.465 1_545 S
C1452 C1447 1.399 . S
C1452 C1451 1.394 . S
C1452 C1453 1.516 1_545 S
C1453 C1452 1.516 1_565 S
C1453 C1454 1.502 . S
C1453 C1455 1.561 . S
C1453 C1456 1.526 . S
C1454 H1438 0.959 . S
C1454 H1439 0.959 . S
C1454 H1440 0.961 1_565 S
C1454 C1453 1.502 . S
C1455 H1441 0.960 1_565 S
C1455 H1442 0.961 . S
C1455 H1443 0.959 . S
C1455 C1453 1.561 . S
C1456 C1453 1.526 . S
C1456 C1457 1.396 . S
C1456 C1461 1.390 . S
C1457 C1451 1.465 1_565 S
C1457 C1456 1.396 . S
C1457 C1458 1.399 . S
C1458 H1444 0.929 . S
C1458 C1457 1.399 . S
C1458 C1459 1.385 . S
C1459 H1445 0.931 . S
C1459 C1458 1.385 . S
C1459 C1460 1.389 . S
C1460 C1459 1.389 . S
C1460 C1461 1.387 . S
C1461 H1446 0.930 . S
C1461 C1456 1.390 . S
C1461 C1460 1.387 . S
H1462 C1474 0.930 . S
H1463 C1476 0.930 . S
H1464 C1477 0.930 . S
H1465 C1481 0.959 . S
H1466 C1481 0.959 . S
H1467 C1481 0.961 1_565 S
H1468 C1482 0.960 . S
H1469 C1482 0.961 1_545 S
H1470 C1482 0.959 . S
H1471 C1485 0.929 . S
H1472 C1486 0.931 . S
H1473 C1488 0.930 . S
C1474 H1462 0.930 . S
C1474 C1475 1.399 . S
C1474 C1479 1.399 . S
C1475 C1474 1.399 . S
C1475 C1476 1.376 . S
C1476 H1463 0.930 . S
C1476 C1475 1.376 . S
C1476 C1477 1.388 . S
C1477 H1464 0.930 . S
C1477 C1476 1.388 . S
C1477 C1478 1.390 . S
C1478 C1477 1.390 . S
C1478 C1479 1.394 . S
C1478 C1484 1.465 1_565 S
C1479 C1474 1.399 . S
C1479 C1478 1.394 . S
C1479 C1480 1.482 1_565 S
C1480 C1479 1.482 1_545 S
C1480 C1481 1.510 . S
C1480 C1482 1.557 1_545 S
C1480 C1483 1.558 . S
C1481 H1465 0.959 . S
C1481 H1466 0.959 . S
C1481 H1467 0.961 1_545 S
C1481 C1480 1.510 . S
C1482 H1468 0.960 . S
C1482 H1469 0.961 1_565 S
C1482 H1470 0.959 . S
C1482 C1480 1.557 1_565 S
C1483 C1480 1.558 . S
C1483 C1484 1.396 . S
C1483 C1488 1.390 . S
C1484 C1478 1.465 1_545 S
C1484 C1483 1.396 . S
C1484 C1485 1.399 . S
C1485 H1471 0.929 . S
C1485 C1484 1.399 . S
C1485 C1486 1.385 . S
C1486 H1472 0.931 . S
C1486 C1485 1.385 . S
C1486 C1487 1.389 . S
C1487 C1486 1.389 . S
C1487 C1488 1.387 . S
C1488 H1473 0.930 . S
C1488 C1483 1.390 . S
C1488 C1487 1.387 . S
H1489 C1501 0.930 . S
H1490 C1503 0.930 . S
H1491 C1504 0.930 . S
H1492 C1508 0.959 . S
H1493 C1508 0.959 . S
H1494 C1508 0.961 1_565 S
H1495 C1509 0.960 1_565 S
H1496 C1509 0.961 . S
H1497 C1509 0.959 . S
H1498 C1512 0.929 . S
H1499 C1513 0.931 . S
H1500 C1515 0.930 . S
C1501 H1489 0.930 . S
C1501 C1502 1.399 . S
C1501 C1506 1.399 . S
C1502 C1501 1.399 . S
C1502 C1503 1.376 . S
C1503 H1490 0.930 . S
C1503 C1502 1.376 . S
C1503 C1504 1.388 . S
C1504 H1491 0.930 . S
C1504 C1503 1.388 . S
C1504 C1505 1.390 . S
C1505 C1504 1.390 . S
C1505 C1506 1.394 . S
C1505 C1511 1.465 1_565 S
C1506 C1501 1.399 . S
C1506 C1505 1.394 . S
C1506 C1507 1.516 1_565 S
C1507 C1506 1.516 1_545 S
C1507 C1508 1.502 . S
C1507 C1509 1.561 . S
C1507 C1510 1.526 . S
C1508 H1492 0.959 . S
C1508 H1493 0.959 . S
C1508 H1494 0.961 1_545 S
C1508 C1507 1.502 . S
C1509 H1495 0.960 1_545 S
C1509 H1496 0.961 . S
C1509 H1497 0.959 . S
C1509 C1507 1.561 . S
C1510 C1507 1.526 . S
C1510 C1511 1.396 . S
C1510 C1515 1.390 . S
C1511 C1505 1.465 1_545 S
C1511 C1510 1.396 . S
C1511 C1512 1.399 . S
C1512 H1498 0.929 . S
C1512 C1511 1.399 . S
C1512 C1513 1.385 . S
C1513 H1499 0.931 . S
C1513 C1512 1.385 . S
C1513 C1514 1.389 . S
C1514 C1513 1.389 . S
C1514 C1515 1.387 . S
C1515 H1500 0.930 . S
C1515 C1510 1.390 . S
C1515 C1514 1.387 . S
H1516 C1528 0.930 . S
H1517 C1530 0.930 . S
H1518 C1531 0.930 . S
H1519 C1535 0.959 . S
H1520 C1535 0.959 . S
H1521 C1535 0.961 . S
H1522 C1536 0.960 . S
H1523 C1536 0.961 . S
H1524 C1536 0.959 . S
H1525 C1539 0.929 . S
H1526 C1540 0.931 . S
H1527 C1542 0.930 . S
C1528 H1516 0.930 . S
C1528 C1529 1.399 . S
C1528 C1533 1.399 . S
C1529 C1528 1.399 . S
C1529 C1530 1.376 . S
C1530 H1517 0.930 . S
C1530 C1529 1.376 . S
C1530 C1531 1.388 . S
C1531 H1518 0.930 . S
C1531 C1530 1.388 . S
C1531 C1532 1.390 . S
C1532 C1531 1.390 . S
C1532 C1533 1.394 . S
C1532 C1538 1.465 . S
C1533 C1528 1.399 . S
C1533 C1532 1.394 . S
C1533 C1534 1.516 . S
C1534 C1533 1.516 . S
C1534 C1535 1.502 . S
C1534 C1536 1.561 . S
C1534 C1537 1.526 . S
C1535 H1519 0.959 . S
C1535 H1520 0.959 . S
C1535 H1521 0.961 . S
C1535 C1534 1.502 . S
C1536 H1522 0.960 . S
C1536 H1523 0.961 . S
C1536 H1524 0.959 . S
C1536 C1534 1.561 . S
C1537 C1534 1.526 . S
C1537 C1538 1.396 . S
C1537 C1542 1.390 . S
C1538 C1532 1.465 . S
C1538 C1537 1.396 . S
C1538 C1539 1.399 . S
C1539 H1525 0.929 . S
C1539 C1538 1.399 . S
C1539 C1540 1.385 . S
C1540 H1526 0.931 . S
C1540 C1539 1.385 . S
C1540 C1541 1.389 . S
C1541 C1540 1.389 . S
C1541 C1542 1.387 . S
C1542 H1527 0.930 . S
C1542 C1537 1.390 . S
C1542 C1541 1.387 . S
H1543 C1555 0.930 . S
H1544 C1557 0.930 . S
H1545 C1558 0.930 . S
H1546 C1562 0.959 . S
H1547 C1562 0.959 . S
H1548 C1562 0.961 . S
H1549 C1563 0.960 . S
H1550 C1563 0.961 . S
H1551 C1563 0.959 . S
H1552 C1566 0.929 . S
H1553 C1567 0.931 . S
H1554 C1569 0.930 . S
C1555 H1543 0.930 . S
C1555 C1556 1.399 . S
C1555 C1560 1.399 . S
C1556 C1555 1.399 . S
C1556 C1557 1.376 . S
C1557 H1544 0.930 . S
C1557 C1556 1.376 . S
C1557 C1558 1.388 . S
C1558 H1545 0.930 . S
C1558 C1557 1.388 . S
C1558 C1559 1.390 . S
C1559 C1558 1.390 . S
C1559 C1560 1.394 . S
C1559 C1565 1.465 . S
C1560 C1555 1.399 . S
C1560 C1559 1.394 . S
C1560 C1561 1.516 . S
C1561 C1560 1.516 . S
C1561 C1562 1.502 . S
C1561 C1563 1.561 . S
C1561 C1564 1.526 . S
C1562 H1546 0.959 . S
C1562 H1547 0.959 . S
C1562 H1548 0.961 . S
C1562 C1561 1.502 . S
C1563 H1549 0.960 . S
C1563 H1550 0.961 . S
C1563 H1551 0.959 . S
C1563 C1561 1.561 . S
C1564 C1561 1.526 . S
C1564 C1565 1.396 . S
C1564 C1569 1.390 . S
C1565 C1559 1.465 . S
C1565 C1564 1.396 . S
C1565 C1566 1.399 . S
C1566 H1552 0.929 . S
C1566 C1565 1.399 . S
C1566 C1567 1.385 . S
C1567 H1553 0.931 . S
C1567 C1566 1.385 . S
C1567 C1568 1.389 . S
C1568 C1567 1.389 . S
C1568 C1569 1.387 . S
C1569 H1554 0.930 . S
C1569 C1564 1.390 . S
C1569 C1568 1.387 . S
H1570 C1582 0.930 . S
H1571 C1584 0.930 . S
H1572 C1585 0.930 . S
H1573 C1589 0.959 . S
H1574 C1589 0.959 . S
H1575 C1589 0.961 . S
H1576 C1590 0.960 . S
H1577 C1590 0.961 . S
H1578 C1590 0.959 . S
H1579 C1593 0.929 . S
H1580 C1594 0.931 . S
H1581 C1596 0.930 . S
C1582 H1570 0.930 . S
C1582 C1583 1.399 . S
C1582 C1587 1.399 . S
C1583 C1582 1.399 . S
C1583 C1584 1.376 . S
C1584 H1571 0.930 . S
C1584 C1583 1.376 . S
C1584 C1585 1.388 . S
C1585 H1572 0.930 . S
C1585 C1584 1.388 . S
C1585 C1586 1.390 . S
C1586 C1585 1.390 . S
C1586 C1587 1.394 . S
C1586 C1592 1.465 . S
C1587 C1582 1.399 . S
C1587 C1586 1.394 . S
C1587 C1588 1.516 . S
C1588 C1587 1.516 . S
C1588 C1589 1.502 . S
C1588 C1590 1.561 . S
C1588 C1591 1.526 . S
C1589 H1573 0.959 . S
C1589 H1574 0.959 . S
C1589 H1575 0.961 . S
C1589 C1588 1.502 . S
C1590 H1576 0.960 . S
C1590 H1577 0.961 . S
C1590 H1578 0.959 . S
C1590 C1588 1.561 . S
C1591 C1588 1.526 . S
C1591 C1592 1.396 . S
C1591 C1596 1.390 . S
C1592 C1586 1.465 . S
C1592 C1591 1.396 . S
C1592 C1593 1.399 . S
C1593 H1579 0.929 . S
C1593 C1592 1.399 . S
C1593 C1594 1.385 . S
C1594 H1580 0.931 . S
C1594 C1593 1.385 . S
C1594 C1595 1.389 . S
C1595 C1594 1.389 . S
C1595 C1596 1.387 . S
C1596 H1581 0.930 . S
C1596 C1591 1.390 . S
C1596 C1595 1.387 . S
H1597 C1609 0.930 . S
H1598 C1611 0.930 . S
H1599 C1612 0.930 . S
H1600 C1616 0.959 . S
H1601 C1616 0.959 . S
H1602 C1616 0.961 . S
H1603 C1617 0.960 . S
H1604 C1617 0.961 . S
H1605 C1617 0.959 . S
H1606 C1620 0.929 . S
H1607 C1621 0.931 . S
H1608 C1623 0.930 . S
C1609 H1597 0.930 . S
C1609 C1610 1.399 . S
C1609 C1614 1.399 . S
C1610 C1609 1.399 . S
C1610 C1611 1.376 . S
C1611 H1598 0.930 . S
C1611 C1610 1.376 . S
C1611 C1612 1.388 . S
C1612 H1599 0.930 . S
C1612 C1611 1.388 . S
C1612 C1613 1.390 . S
C1613 C1612 1.390 . S
C1613 C1614 1.394 . S
C1613 C1619 1.465 . S
C1614 C1609 1.399 . S
C1614 C1613 1.394 . S
C1614 C1615 1.516 . S
C1615 C1614 1.516 . S
C1615 C1616 1.502 . S
C1615 C1617 1.561 . S
C1615 C1618 1.526 . S
C1616 H1600 0.959 . S
C1616 H1601 0.959 . S
C1616 H1602 0.961 . S
C1616 C1615 1.502 . S
C1617 H1603 0.960 . S
C1617 H1604 0.961 . S
C1617 H1605 0.959 . S
C1617 C1615 1.561 . S
C1618 C1615 1.526 . S
C1618 C1619 1.396 . S
C1618 C1623 1.390 . S
C1619 C1613 1.465 . S
C1619 C1618 1.396 . S
C1619 C1620 1.399 . S
C1620 H1606 0.929 . S
C1620 C1619 1.399 . S
C1620 C1621 1.385 . S
C1621 H1607 0.931 . S
C1621 C1620 1.385 . S
C1621 C1622 1.389 . S
C1622 C1621 1.389 . S
C1622 C1623 1.387 . S
C1623 H1608 0.930 . S
C1623 C1618 1.390 . S
C1623 C1622 1.387 . S
H1624 C1636 0.930 . S
H1625 C1638 0.930 . S
H1626 C1639 0.930 . S
H1627 C1643 0.959 . S
H1628 C1643 0.959 . S
H1629 C1643 0.961 . S
H1630 C1644 0.960 . S
H1631 C1644 0.961 . S
H1632 C1644 0.959 . S
H1633 C1647 0.929 1_655 S
H1634 C1648 0.931 . S
H1635 C1650 0.930 . S
C1636 H1624 0.930 . S
C1636 C1637 1.399 . S
C1636 C1641 1.399 . S
C1637 C1636 1.399 . S
C1637 C1638 1.376 . S
C1638 H1625 0.930 . S
C1638 C1637 1.376 . S
C1638 C1639 1.388 . S
C1639 H1626 0.930 . S
C1639 C1638 1.388 . S
C1639 C1640 1.390 . S
C1640 C1639 1.390 . S
C1640 C1641 1.394 . S
C1640 C1646 1.465 . S
C1641 C1636 1.399 . S
C1641 C1640 1.394 . S
C1641 C1642 1.516 . S
C1642 C1641 1.516 . S
C1642 C1643 1.502 1_655 S
C1642 C1644 1.561 . S
C1642 C1645 1.526 1_655 S
C1643 H1627 0.959 . S
C1643 H1628 0.959 . S
C1643 H1629 0.961 . S
C1643 C1642 1.502 1_455 S
C1644 H1630 0.960 . S
C1644 H1631 0.961 . S
C1644 H1632 0.959 . S
C1644 C1642 1.561 . S
C1645 C1642 1.526 1_455 S
C1645 C1646 1.396 1_455 S
C1645 C1650 1.390 . S
C1646 C1640 1.465 . S
C1646 C1645 1.396 1_655 S
C1646 C1647 1.399 1_655 S
C1647 H1633 0.929 1_455 S
C1647 C1646 1.399 1_455 S
C1647 C1648 1.385 . S
C1648 H1634 0.931 . S
C1648 C1647 1.385 . S
C1648 C1649 1.389 . S
C1649 C1648 1.389 . S
C1649 C1650 1.387 . S
C1650 H1635 0.930 . S
C1650 C1645 1.390 . S
C1650 C1649 1.387 . S
H1651 C1663 0.930 . S
H1652 C1665 0.930 . S
H1653 C1666 0.930 . S
H1654 C1670 0.959 . S
H1655 C1670 0.959 . S
H1656 C1670 0.961 . S
H1657 C1671 0.960 . S
H1658 C1671 0.961 . S
H1659 C1671 0.959 . S
H1660 C1674 0.929 . S
H1661 C1675 0.931 . S
H1662 C1677 0.930 . S
C1663 H1651 0.930 . S
C1663 C1664 1.399 . S
C1663 C1668 1.399 . S
C1664 C1663 1.399 . S
C1664 C1665 1.376 . S
C1665 H1652 0.930 . S
C1665 C1664 1.376 . S
C1665 C1666 1.388 . S
C1666 H1653 0.930 . S
C1666 C1665 1.388 . S
C1666 C1667 1.390 . S
C1667 C1666 1.390 . S
C1667 C1668 1.394 . S
C1667 C1673 1.465 . S
C1668 C1663 1.399 . S
C1668 C1667 1.394 . S
C1668 C1669 1.516 . S
C1669 C1668 1.516 . S
C1669 C1670 1.502 . S
C1669 C1671 1.561 . S
C1669 C1672 1.526 . S
C1670 H1654 0.959 . S
C1670 H1655 0.959 . S
C1670 H1656 0.961 . S
C1670 C1669 1.502 . S
C1671 H1657 0.960 . S
C1671 H1658 0.961 . S
C1671 H1659 0.959 . S
C1671 C1669 1.561 . S
C1672 C1669 1.526 . S
C1672 C1673 1.396 . S
C1672 C1677 1.390 . S
C1673 C1667 1.465 . S
C1673 C1672 1.396 . S
C1673 C1674 1.399 . S
C1674 H1660 0.929 . S
C1674 C1673 1.399 . S
C1674 C1675 1.385 . S
C1675 H1661 0.931 . S
C1675 C1674 1.385 . S
C1675 C1676 1.389 . S
C1676 C1675 1.389 . S
C1676 C1677 1.387 . S
C1677 H1662 0.930 . S
C1677 C1672 1.390 . S
C1677 C1676 1.387 . S
H1678 C1690 0.930 . S
H1679 C1692 0.930 . S
H1680 C1693 0.930 . S
H1681 C1697 0.959 . S
H1682 C1697 0.959 . S
H1683 C1697 0.961 . S
H1684 C1698 0.960 . S
H1685 C1698 0.961 . S
H1686 C1698 0.959 . S
H1687 C1701 0.929 . S
H1688 C1702 0.931 . S
H1689 C1704 0.930 . S
C1690 H1678 0.930 . S
C1690 C1691 1.399 . S
C1690 C1695 1.399 . S
C1691 C1690 1.399 . S
C1691 C1692 1.376 . S
C1692 H1679 0.930 . S
C1692 C1691 1.376 . S
C1692 C1693 1.388 . S
C1693 H1680 0.930 . S
C1693 C1692 1.388 . S
C1693 C1694 1.390 . S
C1694 C1693 1.390 . S
C1694 C1695 1.394 . S
C1694 C1700 1.465 . S
C1695 C1690 1.399 . S
C1695 C1694 1.394 . S
C1695 C1696 1.516 . S
C1696 C1695 1.516 . S
C1696 C1697 1.502 . S
C1696 C1698 1.561 . S
C1696 C1699 1.526 . S
C1697 H1681 0.959 . S
C1697 H1682 0.959 . S
C1697 H1683 0.961 . S
C1697 C1696 1.502 . S
C1698 H1684 0.960 . S
C1698 H1685 0.961 . S
C1698 H1686 0.959 . S
C1698 C1696 1.561 . S
C1699 C1696 1.526 . S
C1699 C1700 1.396 . S
C1699 C1704 1.390 . S
C1700 C1694 1.465 . S
C1700 C1699 1.396 . S
C1700 C1701 1.399 . S
C1701 H1687 0.929 . S
C1701 C1700 1.399 . S
C1701 C1702 1.385 . S
C1702 H1688 0.931 . S
C1702 C1701 1.385 . S
C1702 C1703 1.389 . S
C1703 C1702 1.389 . S
C1703 C1704 1.387 . S
C1704 H1689 0.930 . S
C1704 C1699 1.390 . S
C1704 C1703 1.387 . S
H1705 C1717 0.930 . S
H1706 C1719 0.930 . S
H1707 C1720 0.930 . S
H1708 C1724 0.959 . S
H1709 C1724 0.959 . S
H1710 C1724 0.961 . S
H1711 C1725 0.960 . S
H1712 C1725 0.961 . S
H1713 C1725 0.959 . S
H1714 C1728 0.929 . S
H1715 C1729 0.931 . S
H1716 C1731 0.930 1_655 S
C1717 H1705 0.930 . S
C1717 C1718 1.399 . S
C1717 C1722 1.399 . S
C1718 C1717 1.399 . S
C1718 C1719 1.376 1_655 S
C1719 H1706 0.930 . S
C1719 C1718 1.376 1_455 S
C1719 C1720 1.388 . S
C1720 H1707 0.930 . S
C1720 C1719 1.388 . S
C1720 C1721 1.390 . S
C1721 C1720 1.390 . S
C1721 C1722 1.394 1_455 S
C1721 C1727 1.465 . S
C1722 C1717 1.399 . S
C1722 C1721 1.394 1_655 S
C1722 C1723 1.516 . S
C1723 C1722 1.516 . S
C1723 C1724 1.502 . S
C1723 C1725 1.561 1_655 S
C1723 C1726 1.526 1_655 S
C1724 H1708 0.959 . S
C1724 H1709 0.959 . S
C1724 H1710 0.961 . S
C1724 C1723 1.502 . S
C1725 H1711 0.960 . S
C1725 H1712 0.961 . S
C1725 H1713 0.959 . S
C1725 C1723 1.561 1_455 S
C1726 C1723 1.526 1_455 S
C1726 C1727 1.396 . S
C1726 C1731 1.390 . S
C1727 C1721 1.465 . S
C1727 C1726 1.396 . S
C1727 C1728 1.399 . S
C1728 H1714 0.929 . S
C1728 C1727 1.399 . S
C1728 C1729 1.385 . S
C1729 H1715 0.931 . S
C1729 C1728 1.385 . S
C1729 C1730 1.389 . S
C1730 C1729 1.389 . S
C1730 C1731 1.387 . S
C1731 H1716 0.930 1_455 S
C1731 C1726 1.390 . S
C1731 C1730 1.387 . S
H1732 C1744 0.930 . S
H1733 C1746 0.930 . S
H1734 C1747 0.930 . S
H1735 C1751 0.959 . S
H1736 C1751 0.959 . S
H1737 C1751 0.961 . S
H1738 C1752 0.960 . S
H1739 C1752 0.961 . S
H1740 C1752 0.959 . S
H1741 C1755 0.929 . S
H1742 C1756 0.931 . S
H1743 C1758 0.930 . S
C1744 H1732 0.930 . S
C1744 C1745 1.399 . S
C1744 C1749 1.399 . S
C1745 C1744 1.399 . S
C1745 C1746 1.376 1_455 S
C1746 H1733 0.930 . S
C1746 C1745 1.376 1_655 S
C1746 C1747 1.388 . S
C1747 H1734 0.930 . S
C1747 C1746 1.388 . S
C1747 C1748 1.390 . S
C1748 C1747 1.390 . S
C1748 C1749 1.394 1_655 S
C1748 C1754 1.465 . S
C1749 C1744 1.399 . S
C1749 C1748 1.394 1_455 S
C1749 C1750 1.516 . S
C1750 C1749 1.516 . S
C1750 C1751 1.502 . S
C1750 C1752 1.561 . S
C1750 C1753 1.526 . S
C1751 H1735 0.959 . S
C1751 H1736 0.959 . S
C1751 H1737 0.961 . S
C1751 C1750 1.502 . S
C1752 H1738 0.960 . S
C1752 H1739 0.961 . S
C1752 H1740 0.959 . S
C1752 C1750 1.561 . S
C1753 C1750 1.526 . S
C1753 C1754 1.396 1_455 S
C1753 C1758 1.390 . S
C1754 C1748 1.465 . S
C1754 C1753 1.396 1_655 S
C1754 C1755 1.399 . S
C1755 H1741 0.929 . S
C1755 C1754 1.399 . S
C1755 C1756 1.385 . S
C1756 H1742 0.931 . S
C1756 C1755 1.385 . S
C1756 C1757 1.389 . S
C1757 C1756 1.389 . S
C1757 C1758 1.387 1_655 S
C1758 H1743 0.930 . S
C1758 C1753 1.390 . S
C1758 C1757 1.387 1_455 S
H1759 C1771 0.930 . S
H1760 C1773 0.930 . S
H1761 C1774 0.930 . S
H1762 C1778 0.959 . S
H1763 C1778 0.959 . S
H1764 C1778 0.961 . S
H1765 C1779 0.960 . S
H1766 C1779 0.961 . S
H1767 C1779 0.959 . S
H1768 C1782 0.929 . S
H1769 C1783 0.931 . S
H1770 C1785 0.930 . S
C1771 H1759 0.930 . S
C1771 C1772 1.399 . S
C1771 C1776 1.399 . S
C1772 C1771 1.399 . S
C1772 C1773 1.376 . S
C1773 H1760 0.930 . S
C1773 C1772 1.376 . S
C1773 C1774 1.388 . S
C1774 H1761 0.930 . S
C1774 C1773 1.388 . S
C1774 C1775 1.390 . S
C1775 C1774 1.390 . S
C1775 C1776 1.394 . S
C1775 C1781 1.465 . S
C1776 C1771 1.399 . S
C1776 C1775 1.394 . S
C1776 C1777 1.516 . S
C1777 C1776 1.516 . S
C1777 C1778 1.502 . S
C1777 C1779 1.561 . S
C1777 C1780 1.526 . S
C1778 H1762 0.959 . S
C1778 H1763 0.959 . S
C1778 H1764 0.961 . S
C1778 C1777 1.502 . S
C1779 H1765 0.960 . S
C1779 H1766 0.961 . S
C1779 H1767 0.959 . S
C1779 C1777 1.561 . S
C1780 C1777 1.526 . S
C1780 C1781 1.396 . S
C1780 C1785 1.390 . S
C1781 C1775 1.465 . S
C1781 C1780 1.396 . S
C1781 C1782 1.399 . S
C1782 H1768 0.929 . S
C1782 C1781 1.399 . S
C1782 C1783 1.385 . S
C1783 H1769 0.931 . S
C1783 C1782 1.385 . S
C1783 C1784 1.389 . S
C1784 C1783 1.389 . S
C1784 C1785 1.387 . S
C1785 H1770 0.930 . S
C1785 C1780 1.390 . S
C1785 C1784 1.387 . S
H1786 C1798 0.930 . S
H1787 C1800 0.930 . S
H1788 C1801 0.930 . S
H1789 C1805 0.959 . S
H1790 C1805 0.959 . S
H1791 C1805 0.961 . S
H1792 C1806 0.960 . S
H1793 C1806 0.961 . S
H1794 C1806 0.959 . S
H1795 C1809 0.929 . S
H1796 C1810 0.931 . S
H1797 C1812 0.930 . S
C1798 H1786 0.930 . S
C1798 C1799 1.399 . S
C1798 C1803 1.399 . S
C1799 C1798 1.399 . S
C1799 C1800 1.376 . S
C1800 H1787 0.930 . S
C1800 C1799 1.376 . S
C1800 C1801 1.388 . S
C1801 H1788 0.930 . S
C1801 C1800 1.388 . S
C1801 C1802 1.390 . S
C1802 C1801 1.390 . S
C1802 C1803 1.394 . S
C1802 C1808 1.465 . S
C1803 C1798 1.399 . S
C1803 C1802 1.394 . S
C1803 C1804 1.516 . S
C1804 C1803 1.516 . S
C1804 C1805 1.502 . S
C1804 C1806 1.561 . S
C1804 C1807 1.526 . S
C1805 H1789 0.959 . S
C1805 H1790 0.959 . S
C1805 H1791 0.961 . S
C1805 C1804 1.502 . S
C1806 H1792 0.960 . S
C1806 H1793 0.961 . S
C1806 H1794 0.959 . S
C1806 C1804 1.561 . S
C1807 C1804 1.526 . S
C1807 C1808 1.396 . S
C1807 C1812 1.390 . S
C1808 C1802 1.465 . S
C1808 C1807 1.396 . S
C1808 C1809 1.399 . S
C1809 H1795 0.929 . S
C1809 C1808 1.399 . S
C1809 C1810 1.385 . S
C1810 H1796 0.931 . S
C1810 C1809 1.385 . S
C1810 C1811 1.389 . S
C1811 C1810 1.389 . S
C1811 C1812 1.387 . S
C1812 H1797 0.930 . S
C1812 C1807 1.390 . S
C1812 C1811 1.387 . S
H1813 C1825 0.930 . S
H1814 C1827 0.930 . S
H1815 C1828 0.930 . S
H1816 C1832 0.959 . S
H1817 C1832 0.959 . S
H1818 C1832 0.961 . S
H1819 C1833 0.960 . S
H1820 C1833 0.961 . S
H1821 C1833 0.959 . S
H1822 C1836 0.929 . S
H1823 C1837 0.931 . S
H1824 C1839 0.930 . S
C1825 H1813 0.930 . S
C1825 C1826 1.399 . S
C1825 C1830 1.399 . S
C1826 C1825 1.399 . S
C1826 C1827 1.376 . S
C1827 H1814 0.930 . S
C1827 C1826 1.376 . S
C1827 C1828 1.388 . S
C1828 H1815 0.930 . S
C1828 C1827 1.388 . S
C1828 C1829 1.390 . S
C1829 C1828 1.390 . S
C1829 C1830 1.394 . S
C1829 C1835 1.465 . S
C1830 C1825 1.399 . S
C1830 C1829 1.394 . S
C1830 C1831 1.516 1_455 S
C1831 C1830 1.516 1_655 S
C1831 C1832 1.502 . S
C1831 C1833 1.561 1_655 S
C1831 C1834 1.526 . S
C1832 H1816 0.959 . S
C1832 H1817 0.959 . S
C1832 H1818 0.961 . S
C1832 C1831 1.502 . S
C1833 H1819 0.960 . S
C1833 H1820 0.961 . S
C1833 H1821 0.959 . S
C1833 C1831 1.561 1_455 S
C1834 C1831 1.526 . S
C1834 C1835 1.396 1_655 S
C1834 C1839 1.390 . S
C1835 C1829 1.465 . S
C1835 C1834 1.396 1_455 S
C1835 C1836 1.399 . S
C1836 H1822 0.929 . S
C1836 C1835 1.399 . S
C1836 C1837 1.385 1_455 S
C1837 H1823 0.931 . S
C1837 C1836 1.385 1_655 S
C1837 C1838 1.389 . S
C1838 C1837 1.389 . S
C1838 C1839 1.387 . S
C1839 H1824 0.930 . S
C1839 C1834 1.390 . S
C1839 C1838 1.387 . S
H1840 C1852 0.930 . S
H1841 C1854 0.930 . S
H1842 C1855 0.930 . S
H1843 C1859 0.959 . S
H1844 C1859 0.959 . S
H1845 C1859 0.961 . S
H1846 C1860 0.960 . S
H1847 C1860 0.961 . S
H1848 C1860 0.959 . S
H1849 C1863 0.929 . S
H1850 C1864 0.931 . S
H1851 C1866 0.930 . S
C1852 H1840 0.930 . S
C1852 C1853 1.399 . S
C1852 C1857 1.399 . S
C1853 C1852 1.399 . S
C1853 C1854 1.376 . S
C1854 H1841 0.930 . S
C1854 C1853 1.376 . S
C1854 C1855 1.388 1_655 S
C1855 H1842 0.930 . S
C1855 C1854 1.388 1_455 S
C1855 C1856 1.390 . S
C1856 C1855 1.390 . S
C1856 C1857 1.394 1_455 S
C1856 C1862 1.465 . S
C1857 C1852 1.399 . S
C1857 C1856 1.394 1_655 S
C1857 C1858 1.516 . S
C1858 C1857 1.516 . S
C1858 C1859 1.502 . S
C1858 C1860 1.561 1_655 S
C1858 C1861 1.526 1_655 S
C1859 H1843 0.959 . S
C1859 H1844 0.959 . S
C1859 H1845 0.961 . S
C1859 C1858 1.502 . S
C1860 H1846 0.960 . S
C1860 H1847 0.961 . S
C1860 H1848 0.959 . S
C1860 C1858 1.561 1_455 S
C1861 C1858 1.526 1_455 S
C1861 C1862 1.396 . S
C1861 C1866 1.390 . S
C1862 C1856 1.465 . S
C1862 C1861 1.396 . S
C1862 C1863 1.399 . S
C1863 H1849 0.929 . S
C1863 C1862 1.399 . S
C1863 C1864 1.385 . S
C1864 H1850 0.931 . S
C1864 C1863 1.385 . S
C1864 C1865 1.389 . S
C1865 C1864 1.389 . S
C1865 C1866 1.387 . S
C1866 H1851 0.930 . S
C1866 C1861 1.390 . S
C1866 C1865 1.387 . S
H1867 C1879 0.930 . S
H1868 C1881 0.930 . S
H1869 C1882 0.930 . S
H1870 C1886 0.959 . S
H1871 C1886 0.959 . S
H1872 C1886 0.961 . S
H1873 C1887 0.960 . S
H1874 C1887 0.961 . S
H1875 C1887 0.959 . S
H1876 C1890 0.929 . S
H1877 C1891 0.931 . S
H1878 C1893 0.930 . S
C1879 H1867 0.930 . S
C1879 C1880 1.399 . S
C1879 C1884 1.399 . S
C1880 C1879 1.399 . S
C1880 C1881 1.376 . S
C1881 H1868 0.930 . S
C1881 C1880 1.376 . S
C1881 C1882 1.388 . S
C1882 H1869 0.930 . S
C1882 C1881 1.388 . S
C1882 C1883 1.390 . S
C1883 C1882 1.390 . S
C1883 C1884 1.394 . S
C1883 C1889 1.465 . S
C1884 C1879 1.399 . S
C1884 C1883 1.394 . S
C1884 C1885 1.516 . S
C1885 C1884 1.516 . S
C1885 C1886 1.502 . S
C1885 C1887 1.561 . S
C1885 C1888 1.526 . S
C1886 H1870 0.959 . S
C1886 H1871 0.959 . S
C1886 H1872 0.961 . S
C1886 C1885 1.502 . S
C1887 H1873 0.960 . S
C1887 H1874 0.961 . S
C1887 H1875 0.959 . S
C1887 C1885 1.561 . S
C1888 C1885 1.526 . S
C1888 C1889 1.396 . S
C1888 C1893 1.390 . S
C1889 C1883 1.465 . S
C1889 C1888 1.396 . S
C1889 C1890 1.399 . S
C1890 H1876 0.929 . S
C1890 C1889 1.399 . S
C1890 C1891 1.385 . S
C1891 H1877 0.931 . S
C1891 C1890 1.385 . S
C1891 C1892 1.389 . S
C1892 C1891 1.389 . S
C1892 C1893 1.387 . S
C1893 H1878 0.930 . S
C1893 C1888 1.390 . S
C1893 C1892 1.387 . S
H1894 C1906 0.930 . S
H1895 C1908 0.930 . S
H1896 C1909 0.930 . S
H1897 C1913 0.959 . S
H1898 C1913 0.959 . S
H1899 C1913 0.961 . S
H1900 C1914 0.960 1_455 S
H1901 C1914 0.961 . S
H1902 C1914 0.959 . S
H1903 C1917 0.929 . S
H1904 C1918 0.931 . S
H1905 C1920 0.930 . S
C1906 H1894 0.930 . S
C1906 C1907 1.399 . S
C1906 C1911 1.399 . S
C1907 C1906 1.399 . S
C1907 C1908 1.376 . S
C1908 H1895 0.930 . S
C1908 C1907 1.376 . S
C1908 C1909 1.388 1_455 S
C1909 H1896 0.930 . S
C1909 C1908 1.388 1_655 S
C1909 C1910 1.390 . S
C1910 C1909 1.390 . S
C1910 C1911 1.394 1_655 S
C1910 C1916 1.465 . S
C1911 C1906 1.399 . S
C1911 C1910 1.394 1_455 S
C1911 C1912 1.516 . S
C1912 C1911 1.516 . S
C1912 C1913 1.502 . S
C1912 C1914 1.561 1_455 S
C1912 C1915 1.526 1_455 S
C1913 H1897 0.959 . S
C1913 H1898 0.959 . S
C1913 H1899 0.961 . S
C1913 C1912 1.502 . S
C1914 H1900 0.960 1_655 S
C1914 H1901 0.961 . S
C1914 H1902 0.959 . S
C1914 C1912 1.561 1_655 S
C1915 C1912 1.526 1_655 S
C1915 C1916 1.396 . S
C1915 C1920 1.390 . S
C1916 C1910 1.465 . S
C1916 C1915 1.396 . S
C1916 C1917 1.399 . S
C1917 H1903 0.929 . S
C1917 C1916 1.399 . S
C1917 C1918 1.385 . S
C1918 H1904 0.931 . S
C1918 C1917 1.385 . S
C1918 C1919 1.389 . S
C1919 C1918 1.389 . S
C1919 C1920 1.387 . S
C1920 H1905 0.930 . S
C1920 C1915 1.390 . S
C1920 C1919 1.387 . S
H1921 C1933 0.930 . S
H1922 C1935 0.930 . S
H1923 C1936 0.930 . S
H1924 C1940 0.959 . S
H1925 C1940 0.959 . S
H1926 C1940 0.961 . S
H1927 C1941 0.960 . S
H1928 C1941 0.961 . S
H1929 C1941 0.959 . S
H1930 C1944 0.929 . S
H1931 C1945 0.931 . S
H1932 C1947 0.930 . S
C1933 H1921 0.930 . S
C1933 C1934 1.399 . S
C1933 C1938 1.399 . S
C1934 C1933 1.399 . S
C1934 C1935 1.376 . S
C1935 H1922 0.930 . S
C1935 C1934 1.376 . S
C1935 C1936 1.388 . S
C1936 H1923 0.930 . S
C1936 C1935 1.388 . S
C1936 C1937 1.390 . S
C1937 C1936 1.390 . S
C1937 C1938 1.394 . S
C1937 C1943 1.465 . S
C1938 C1933 1.399 . S
C1938 C1937 1.394 . S
C1938 C1939 1.516 . S
C1939 C1938 1.516 . S
C1939 C1940 1.502 . S
C1939 C1941 1.561 . S
C1939 C1942 1.526 . S
C1940 H1924 0.959 . S
C1940 H1925 0.959 . S
C1940 H1926 0.961 . S
C1940 C1939 1.502 . S
C1941 H1927 0.960 . S
C1941 H1928 0.961 . S
C1941 H1929 0.959 . S
C1941 C1939 1.561 . S
C1942 C1939 1.526 . S
C1942 C1943 1.396 . S
C1942 C1947 1.390 . S
C1943 C1937 1.465 . S
C1943 C1942 1.396 . S
C1943 C1944 1.399 . S
C1944 H1930 0.929 . S
C1944 C1943 1.399 . S
C1944 C1945 1.385 . S
C1945 H1931 0.931 . S
C1945 C1944 1.385 . S
C1945 C1946 1.389 . S
C1946 C1945 1.389 . S
C1946 C1947 1.387 . S
C1947 H1932 0.930 . S
C1947 C1942 1.390 . S
C1947 C1946 1.387 . S
H1948 C1960 0.930 . S
H1949 C1962 0.930 . S
H1950 C1963 0.930 . S
H1951 C1967 0.959 . S
H1952 C1967 0.959 . S
H1953 C1967 0.961 . S
H1954 C1968 0.960 . S
H1955 C1968 0.961 . S
H1956 C1968 0.959 . S
H1957 C1971 0.929 . S
H1958 C1972 0.931 . S
H1959 C1974 0.930 . S
C1960 H1948 0.930 . S
C1960 C1961 1.399 . S
C1960 C1965 1.399 . S
C1961 C1960 1.399 . S
C1961 C1962 1.376 . S
C1962 H1949 0.930 . S
C1962 C1961 1.376 . S
C1962 C1963 1.388 . S
C1963 H1950 0.930 . S
C1963 C1962 1.388 . S
C1963 C1964 1.390 . S
C1964 C1963 1.390 . S
C1964 C1965 1.394 . S
C1964 C1970 1.465 . S
C1965 C1960 1.399 . S
C1965 C1964 1.394 . S
C1965 C1966 1.516 . S
C1966 C1965 1.516 . S
C1966 C1967 1.502 . S
C1966 C1968 1.561 . S
C1966 C1969 1.526 . S
C1967 H1951 0.959 . S
C1967 H1952 0.959 . S
C1967 H1953 0.961 . S
C1967 C1966 1.502 . S
C1968 H1954 0.960 . S
C1968 H1955 0.961 . S
C1968 H1956 0.959 . S
C1968 C1966 1.561 . S
C1969 C1966 1.526 . S
C1969 C1970 1.396 . S
C1969 C1974 1.390 . S
C1970 C1964 1.465 . S
C1970 C1969 1.396 . S
C1970 C1971 1.399 . S
C1971 H1957 0.929 . S
C1971 C1970 1.399 . S
C1971 C1972 1.385 . S
C1972 H1958 0.931 . S
C1972 C1971 1.385 . S
C1972 C1973 1.389 . S
C1973 C1972 1.389 . S
C1973 C1974 1.387 . S
C1974 H1959 0.930 . S
C1974 C1969 1.390 . S
C1974 C1973 1.387 . S
H1975 C1987 0.930 . S
H1976 C1989 0.930 . S
H1977 C1990 0.930 . S
H1978 C1994 0.959 1_655 S
H1979 C1994 0.959 . S
H1980 C1994 0.961 . S
H1981 C1995 0.960 . S
H1982 C1995 0.961 . S
H1983 C1995 0.959 . S
H1984 C1998 0.929 . S
H1985 C1999 0.931 . S
H1986 C2001 0.930 . S
C1987 H1975 0.930 . S
C1987 C1988 1.399 . S
C1987 C1992 1.399 . S
C1988 C1987 1.399 . S
C1988 C1989 1.376 . S
C1989 H1976 0.930 . S
C1989 C1988 1.376 . S
C1989 C1990 1.388 . S
C1990 H1977 0.930 . S
C1990 C1989 1.388 . S
C1990 C1991 1.390 . S
C1991 C1990 1.390 . S
C1991 C1992 1.394 . S
C1991 C1997 1.465 1_655 S
C1992 C1987 1.399 . S
C1992 C1991 1.394 . S
C1992 C1993 1.516 1_655 S
C1993 C1992 1.516 1_455 S
C1993 C1994 1.502 . S
C1993 C1995 1.561 . S
C1993 C1996 1.526 . S
C1994 H1978 0.959 1_455 S
C1994 H1979 0.959 . S
C1994 H1980 0.961 . S
C1994 C1993 1.502 . S
C1995 H1981 0.960 . S
C1995 H1982 0.961 . S
C1995 H1983 0.959 . S
C1995 C1993 1.561 . S
C1996 C1993 1.526 . S
C1996 C1997 1.396 . S
C1996 C2001 1.390 . S
C1997 C1991 1.465 1_455 S
C1997 C1996 1.396 . S
C1997 C1998 1.399 1_455 S
C1998 H1984 0.929 . S
C1998 C1997 1.399 1_655 S
C1998 C1999 1.385 1_655 S
C1999 H1985 0.931 . S
C1999 C1998 1.385 1_455 S
C1999 C2000 1.389 . S
C2000 C1999 1.389 . S
C2000 C2001 1.387 . S
C2001 H1986 0.930 . S
C2001 C1996 1.390 . S
C2001 C2000 1.387 . S
H2002 C2014 0.930 . S
H2003 C2016 0.930 . S
H2004 C2017 0.930 . S
H2005 C2021 0.959 . S
H2006 C2021 0.959 . S
H2007 C2021 0.961 . S
H2008 C2022 0.960 . S
H2009 C2022 0.961 . S
H2010 C2022 0.959 . S
H2011 C2025 0.929 . S
H2012 C2026 0.931 . S
H2013 C2028 0.930 . S
C2014 H2002 0.930 . S
C2014 C2015 1.399 . S
C2014 C2019 1.399 . S
C2015 C2014 1.399 . S
C2015 C2016 1.376 . S
C2016 H2003 0.930 . S
C2016 C2015 1.376 . S
C2016 C2017 1.388 . S
C2017 H2004 0.930 . S
C2017 C2016 1.388 . S
C2017 C2018 1.390 . S
C2018 C2017 1.390 . S
C2018 C2019 1.394 . S
C2018 C2024 1.465 . S
C2019 C2014 1.399 . S
C2019 C2018 1.394 . S
C2019 C2020 1.516 . S
C2020 C2019 1.516 . S
C2020 C2021 1.502 . S
C2020 C2022 1.561 . S
C2020 C2023 1.526 . S
C2021 H2005 0.959 . S
C2021 H2006 0.959 . S
C2021 H2007 0.961 . S
C2021 C2020 1.502 . S
C2022 H2008 0.960 . S
C2022 H2009 0.961 . S
C2022 H2010 0.959 . S
C2022 C2020 1.561 . S
C2023 C2020 1.526 . S
C2023 C2024 1.396 . S
C2023 C2028 1.390 . S
C2024 C2018 1.465 . S
C2024 C2023 1.396 . S
C2024 C2025 1.399 . S
C2025 H2011 0.929 . S
C2025 C2024 1.399 . S
C2025 C2026 1.385 . S
C2026 H2012 0.931 . S
C2026 C2025 1.385 . S
C2026 C2027 1.389 . S
C2027 C2026 1.389 . S
C2027 C2028 1.387 . S
C2028 H2013 0.930 . S
C2028 C2023 1.390 . S
C2028 C2027 1.387 . S
H2029 C2041 0.930 . S
H2030 C2043 0.930 . S
H2031 C2044 0.930 . S
H2032 C2048 0.959 . S
H2033 C2048 0.959 . S
H2034 C2048 0.961 . S
H2035 C2049 0.960 . S
H2036 C2049 0.961 . S
H2037 C2049 0.959 . S
H2038 C2052 0.929 . S
H2039 C2053 0.931 . S
H2040 C2055 0.930 . S
C2041 H2029 0.930 . S
C2041 C2042 1.399 . S
C2041 C2046 1.399 . S
C2042 C2041 1.399 . S
C2042 C2043 1.376 . S
C2043 H2030 0.930 . S
C2043 C2042 1.376 . S
C2043 C2044 1.388 . S
C2044 H2031 0.930 . S
C2044 C2043 1.388 . S
C2044 C2045 1.390 . S
C2045 C2044 1.390 . S
C2045 C2046 1.394 . S
C2045 C2051 1.465 . S
C2046 C2041 1.399 . S
C2046 C2045 1.394 . S
C2046 C2047 1.516 1_655 S
C2047 C2046 1.516 1_455 S
C2047 C2048 1.502 . S
C2047 C2049 1.561 1_455 S
C2047 C2050 1.526 . S
C2048 H2032 0.959 . S
C2048 H2033 0.959 . S
C2048 H2034 0.961 . S
C2048 C2047 1.502 . S
C2049 H2035 0.960 . S
C2049 H2036 0.961 . S
C2049 H2037 0.959 . S
C2049 C2047 1.561 1_655 S
C2050 C2047 1.526 . S
C2050 C2051 1.396 1_455 S
C2050 C2055 1.390 . S
C2051 C2045 1.465 . S
C2051 C2050 1.396 1_655 S
C2051 C2052 1.399 . S
C2052 H2038 0.929 . S
C2052 C2051 1.399 . S
C2052 C2053 1.385 1_655 S
C2053 H2039 0.931 . S
C2053 C2052 1.385 1_455 S
C2053 C2054 1.389 . S
C2054 C2053 1.389 . S
C2054 C2055 1.387 . S
C2055 H2040 0.930 . S
C2055 C2050 1.390 . S
C2055 C2054 1.387 . S
C557 C28 1.457 . S
C569 C6 1.443 . S
C584 C62 1.464 . S
C596 C40 1.460 . S
C611 C96 1.464 . S
C623 C74 1.461 . S
C638 C108 1.448 . S
C650 C130 1.459 . S
C665 C142 1.457 . S
C677 C164 1.463 . S
C692 C176 1.455 . S
C704 C198 1.456 . S
C719 C210 1.456 . S
C731 C232 1.439 . S
C746 C266 1.449 . S
C758 C244 1.460 . S
C773 C278 1.456 . S
C785 C300 1.460 . S
C800 C312 1.459 . S
C812 C334 1.463 . S
C827 C346 1.460 . S
C839 C368 1.466 . S
C854 C380 1.453 . S
C866 C402 1.456 . S
C881 C414 1.464 . S
C893 C436 1.460 . S
C908 C448 1.465 . S
C920 C470 1.458 . S
C935 C504 1.438 . S
C947 C482 1.457 . S
C962 C516 1.457 . S
C974 C538 1.440 . S
C989 C1 1.827 . S
C1001 C171 1.760 . S
C1016 C37 1.777 . S
C1028 C137 1.815 1_455 S
C1043 C71 1.828 . S
C1055 C239 1.758 1_655 S
C1070 C103 1.813 . S
C1082 C205 1.779 . S
C1097 C139 1.785 . S
C1109 C35 1.782 . S
C1124 C173 1.787 . S
C1136 C3 1.810 1_655 S
C1151 C105 1.765 1_455 S
C1163 C207 1.805 . S
C1178 C69 1.766 . S
C1190 C241 1.804 . S
C1205 C273 1.739 . S
C1217 C445 1.837 1_655 S
C1232 C411 1.757 . S
C1244 C309 1.827 . S
C1259 C343 1.812 . S
C1271 C511 1.780 . S
C1286 C477 1.798 1_455 S
C1298 C375 1.795 . S
C1313 C307 1.840 1_455 S
C1325 C409 1.743 . S
C1340 C443 1.776 . S
C1352 C275 1.819 . S
C1367 C479 1.780 . S
C1379 C377 1.787 . S
C1394 C513 1.802 . S
C1406 C341 1.796 1_655 S
C1421 C22 1.458 . S
C1433 C49 1.511 . S
C1448 C124 1.536 . S
C1460 C83 1.452 . S
C1475 C151 1.519 . S
C1487 C185 1.472 . S
C1502 C253 1.505 . S
C1514 C219 1.476 . S
C1529 C321 1.453 . S
C1541 C294 1.518 . S
C1556 C355 1.532 . S
C1568 C396 1.468 . S
C1583 C430 1.465 . S
C1595 C464 1.515 . S
C1610 C491 1.521 . S
C1622 C525 1.471 . S
C1637 C15 1.750 . S
C1649 C328 1.715 . S
C1664 C56 1.696 . S
C1676 C287 1.765 . S
C1691 C389 1.680 . S
C1703 C90 1.754 . S
C1718 C362 1.684 . S
C1730 C117 1.750 . S
C1745 C158 1.710 . S
C1757 C457 1.753 . S
C1772 C192 1.772 . S
C1784 C423 1.686 . S
C1799 C226 1.680 . S
C1811 C532 1.756 . S
C1826 C498 1.753 . S
C1838 C260 1.709 . S
C1853 C119 1.614 . S
C1865 C17 1.637 . S
C1880 C51 1.642 . S
C1892 C85 1.618 . S
C1907 C255 1.611 . S
C1919 C153 1.639 . S
C1934 C187 1.641 . S
C1946 C221 1.620 . S
C1961 C289 1.615 . S
C1973 C391 1.636 . S
C1988 C323 1.627 . S
C2000 C357 1.623 . S
C2015 C527 1.641 . S
C2027 C425 1.611 . S
C2042 C493 1.642 . S
C2054 C459 1.619 . S
