# Generated by pormake.
# Topology oof, (8)-cn, num edge types: 1
# Building blocks:
#     Node 0, Type 0, BuildingBlock: TAGTUT_clean_sbu_3, # of connection points: 8
#     Node 1, Type 0, BuildingBlock: TAGTUT_clean_sbu_3, # of connection points: 8
#     Node 2, Type 0, BuildingBlock: TAGTUT_clean_sbu_3, # of connection points: 8
#     Node 3, Type 0, BuildingBlock: TAGTUT_clean_sbu_3, # of connection points: 8
#     Edge 4, Type (0, 0), BuildingBlock: XIVTED_clean_linker_0, # of connection points: 2
#     Edge 5, Type (0, 0), BuildingBlock: XIVTED_clean_linker_0, # of connection points: 2
#     Edge 6, Type (0, 0), BuildingBlock: XIVTED_clean_linker_0, # of connection points: 2
#     Edge 7, Type (0, 0), BuildingBlock: XIVTED_clean_linker_0, # of connection points: 2
#     Edge 8, Type (0, 0), BuildingBlock: XIVTED_clean_linker_0, # of connection points: 2
#     Edge 9, Type (0, 0), BuildingBlock: XIVTED_clean_linker_0, # of connection points: 2
#     Edge 10, Type (0, 0), BuildingBlock: XIVTED_clean_linker_0, # of connection points: 2
#     Edge 11, Type (0, 0), BuildingBlock: XIVTED_clean_linker_0, # of connection points: 2
#     Edge 12, Type (0, 0), BuildingBlock: XIVTED_clean_linker_0, # of connection points: 2
#     Edge 13, Type (0, 0), BuildingBlock: XIVTED_clean_linker_0, # of connection points: 2
#     Edge 14, Type (0, 0), BuildingBlock: XIVTED_clean_linker_0, # of connection points: 2
#     Edge 15, Type (0, 0), BuildingBlock: XIVTED_clean_linker_0, # of connection points: 2
#     Edge 16, Type (0, 0), BuildingBlock: XIVTED_clean_linker_0, # of connection points: 2
#     Edge 17, Type (0, 0), BuildingBlock: XIVTED_clean_linker_0, # of connection points: 2
#     Edge 18, Type (0, 0), BuildingBlock: XIVTED_clean_linker_0, # of connection points: 2
#     Edge 19, Type (0, 0), BuildingBlock: XIVTED_clean_linker_0, # of connection points: 2
# Relax obj value: 0.060
# Max RMSD: 0.153
# Mean RMSD: 0.153
data_MOF--net-oof--node1-TAGTUT_clean_sbu_3--edge1-XIVTED_clean_linker_0
_symmetry_space_group_name_H-M    P1
_symmetry_Int_Tables_number       1
_symmetry_cell_setting            triclinic
loop_
_symmetry_equiv_pos_as_xyz
'x, y, z'
_cell_length_a     15.950094
_cell_length_b     63.723267
_cell_length_c     15.62892
_cell_angle_alpha  90.161676
_cell_angle_beta   87.368507
_cell_angle_gamma 89.872362
loop_
_atom_site_label
_atom_site_type_symbol
_atom_site_fract_x
_atom_site_fract_y
_atom_site_fract_z
_atom_type_partial_charge
C0 C 0.16874 0.1626 0.22232 0.0
C1 C -0.00863 0.23186 0.26974 0.0
C2 C 0.81299 0.19896 0.11598 0.0
Mg3 Mg 0.10927 0.11463 0.19542 0.0
Mg4 Mg 0.92613 0.09807 0.2708 0.0
O5 O -0.01654 0.11775 0.20375 0.0
Mg6 Mg 0.97416 0.1486 0.2326 0.0
O7 O 0.97305 0.17964 0.25379 0.0
Mg8 Mg 0.01976 0.1896 0.14004 0.0
Mg9 Mg 0.87461 0.19295 0.29664 0.0
C10 C 0.77959 0.13054 0.24369 0.0
O11 O 0.94659 0.14546 0.37585 0.0
O12 O 0.09138 0.08019 0.14889 0.0
O13 O 0.86082 0.17289 0.4098 0.0
O14 O 0.11646 0.10012 0.33216 0.0
O15 O 0.96454 0.07003 0.20239 0.0
O16 O -0.01383 0.09666 0.3886 0.0
O17 O 0.00253 0.15504 0.09343 0.0
O18 O 0.09285 0.12893 0.06138 0.0
C19 C 0.04912 0.14481 0.039 0.0
C20 C 0.03392 0.0662 0.16047 0.0
O21 O 0.8313 0.14539 0.22317 0.0
O22 O 0.02959 0.22271 0.20537 0.0
O23 O 0.80303 0.1122 0.26682 0.0
O24 O 0.89046 0.19815 0.09205 0.0
O25 O 0.93071 0.22318 0.31289 0.0
O26 O 0.78891 0.19574 0.19381 0.0
O27 O 0.11404 0.1488 0.24439 0.0
O28 O 0.14752 0.1798 0.18704 0.0
C29 C 0.06536 0.09505 0.39434 0.0
C30 C 0.90082 0.15617 0.43014 0.0
C31 C 0.05122 0.87924 0.53245 0.0
C32 C 0.03819 0.95804 0.65406 0.0
C33 C 0.06588 0.9296 0.88781 0.0
Mg34 Mg 0.01797 0.83492 0.63454 0.0
Mg35 Mg 0.87291 0.83299 0.79177 0.0
O36 O 0.97272 0.84543 0.74821 0.0
Mg37 Mg 0.97526 0.87628 0.72531 0.0
O38 O -0.01431 0.90691 0.69569 0.0
Mg39 Mg 0.11167 0.9095 0.68935 0.0
Mg40 Mg 0.92782 0.92663 0.76308 0.0
C41 C 0.90119 0.86999 0.92349 0.0
O42 O 0.83291 0.87978 0.71215 0.0
O43 O 0.02583 0.80206 0.70138 0.0
O44 O 0.80403 0.91281 0.75792 0.0
O45 O 0.88707 0.82691 0.58875 0.0
O46 O 0.92647 0.80243 0.80852 0.0
O47 O 0.78573 0.83077 0.69035 0.0
O48 O 0.11543 0.87546 0.73849 0.0
O49 O 0.14704 0.84439 0.67922 0.0
C50 C 0.16943 0.86152 0.71453 0.0
C51 C -0.01319 0.79331 0.76595 0.0
O52 O 0.94725 0.88023 0.86842 0.0
O53 O 0.09508 0.94383 0.64273 0.0
O54 O 0.86027 0.85336 0.90423 0.0
O55 O 0.11758 0.92439 0.8261 0.0
O56 O 0.9683 0.95453 0.69545 0.0
O57 O -0.01319 0.92787 0.88154 0.0
O58 O 0.00365 0.86939 0.58677 0.0
O59 O 0.09593 0.89493 0.55506 0.0
C60 C 0.80951 0.82679 0.61284 0.0
C61 C 0.78084 0.89463 0.73233 0.0
C62 C 0.54133 0.64309 0.04125 0.0
C63 C 0.52812 0.56494 0.16809 0.0
C64 C 0.55821 0.5949 0.40022 0.0
Mg65 Mg 0.51245 0.68823 0.13974 0.0
Mg66 Mg 0.36836 0.6924 0.29757 0.0
O67 O 0.46545 0.67863 0.25393 0.0
Mg68 Mg 0.4666 0.6475 0.2347 0.0
O69 O 0.47608 0.61656 0.20778 0.0
Mg70 Mg 0.60195 0.61361 0.19977 0.0
Mg71 Mg 0.41916 0.59705 0.2763 0.0
C72 C 0.39365 0.65571 0.43208 0.0
O73 O 0.32385 0.64408 0.22523 0.0
O74 O 0.52355 0.72151 0.20339 0.0
O75 O 0.29577 0.61105 0.27094 0.0
O76 O 0.38318 0.69683 0.09202 0.0
O77 O 0.42677 0.72238 0.31282 0.0
O78 O 0.28239 0.69569 0.19507 0.0
O79 O 0.60656 0.64785 0.24677 0.0
O80 O 0.6401 0.67853 0.18672 0.0
C81 C 0.66126 0.66153 0.22338 0.0
C82 C 0.48697 0.73085 0.26824 0.0
O83 O 0.43912 0.64485 0.37809 0.0
O84 O 0.58483 0.57906 0.15551 0.0
O85 O 0.3541 0.67247 0.41134 0.0
O86 O 0.60911 0.59969 0.33748 0.0
O87 O 0.45863 0.56871 0.21 0.0
O88 O 0.47898 0.59641 0.39451 0.0
O89 O 0.49476 0.65346 0.09523 0.0
O90 O 0.58547 0.62737 0.0646 0.0
C91 C 0.30604 0.69829 0.11668 0.0
C92 C 0.27218 0.62927 0.24647 0.0
C93 C 0.55556 0.38054 0.53691 0.0
C94 C 0.54107 0.45867 0.66613 0.0
C95 C 0.57007 0.42871 0.89716 0.0
Mg96 Mg 0.52312 0.33569 0.63501 0.0
Mg97 Mg 0.37892 0.33268 0.79303 0.0
O98 O 0.47806 0.34552 0.74974 0.0
Mg99 Mg 0.48004 0.37649 0.72959 0.0
O100 O 0.48976 0.40728 0.70268 0.0
Mg101 Mg 0.61568 0.41001 0.69637 0.0
Mg102 Mg 0.43201 0.42649 0.7727 0.0
C103 C 0.407 0.36912 0.92748 0.0
O104 O 0.33766 0.37992 0.71729 0.0
O105 O 0.53205 0.30249 0.6987 0.0
O106 O 0.30849 0.41265 0.76653 0.0
O107 O 0.39226 0.32783 0.58919 0.0
O108 O 0.43386 0.30216 0.80691 0.0
O109 O 0.2913 0.33073 0.69176 0.0
O110 O 0.62022 0.37571 0.74236 0.0
O111 O 0.65204 0.345 0.68014 0.0
C112 C 0.6743 0.36192 0.71704 0.0
C113 C 0.49403 0.29336 0.76293 0.0
O114 O 0.45252 0.37966 0.87294 0.0
O115 O 0.5981 0.44457 0.65293 0.0
O116 O 0.3664 0.35252 0.9073 0.0
O117 O 0.62163 0.42411 0.8345 0.0
O118 O 0.47168 0.45488 0.70799 0.0
O119 O 0.49108 0.42676 0.89116 0.0
O120 O 0.50814 0.37039 0.59043 0.0
O121 O 0.60007 0.39614 0.56074 0.0
C122 C 0.31484 0.32735 0.6137 0.0
C123 C 0.28547 0.39462 0.73921 0.0
H124 H 0.96056 0.17639 0.96653 0.0
H125 H -0.00251 0.1261 0.50037 0.0
H126 H 0.10563 0.12074 0.90278 0.0
H127 H 0.82687 0.17664 0.56942 0.0
H128 H 0.03512 0.12343 0.64804 0.0
H129 H 0.91537 0.17772 0.81994 0.0
C130 C -0.0162 0.1646 0.92152 0.0
C131 C 0.03621 0.14829 0.94738 0.0
C132 C -0.0115 0.13492 0.63135 0.0
C133 C -0.01613 0.14958 0.77976 0.0
C134 C 0.96581 0.13621 0.54686 0.0
C135 C 0.90848 0.15149 0.52191 0.0
C136 C 0.95447 0.14923 0.69165 0.0
C137 C 0.87142 0.16459 0.58544 0.0
C138 C 0.95734 0.16527 0.83798 0.0
C139 C 0.06502 0.13357 0.88593 0.0
N140 N 0.89587 0.16333 0.66738 0.0
N141 N 0.03792 0.13449 0.80504 0.0
H142 H 0.9517 0.84981 0.46026 0.0
H143 H 0.00896 0.89774 -0.00754 0.0
H144 H 0.11682 0.90162 0.39581 0.0
H145 H 0.81874 0.85214 0.06344 0.0
H146 H 0.04671 0.89999 0.14027 0.0
H147 H 0.90671 0.84933 0.31361 0.0
C148 C -0.0205 0.86089 0.41506 0.0
C149 C 0.03758 0.87592 0.44077 0.0
C150 C -0.00418 0.88971 0.12395 0.0
C151 C -0.01475 0.87565 0.27302 0.0
C152 C 0.97303 0.88871 0.03938 0.0
C153 C 0.91003 0.87488 0.015 0.0
C154 C 0.95621 0.87654 0.18483 0.0
C155 C 0.8678 0.86303 0.07905 0.0
C156 C 0.95305 0.86074 0.33148 0.0
C157 C 0.07169 0.8898 0.37909 0.0
N158 N 0.89241 0.86393 0.16102 0.0
N159 N 0.04453 0.88942 0.29814 0.0
H160 H 0.60613 0.61999 0.90555 0.0
H161 H 0.31128 0.67461 0.57051 0.0
H162 H 0.4441 0.67279 0.96776 0.0
H163 H 0.49711 0.62731 0.50334 0.0
H164 H 0.34909 0.67189 0.71992 0.0
H165 H 0.56203 0.62136 0.75842 0.0
C166 C 0.56233 0.63209 0.8881 0.0
C167 C 0.52832 0.64622 0.94937 0.0
C168 C 0.38064 0.6619 0.67236 0.0
C169 C 0.47629 0.64759 0.78157 0.0
C170 C 0.35852 0.66329 0.58721 0.0
C171 C 0.40083 0.65107 0.52395 0.0
C172 C 0.44543 0.64821 0.69408 0.0
C173 C 0.46176 0.63676 0.54955 0.0
C174 C 0.53654 0.63274 0.80423 0.0
C175 C 0.47157 0.66151 0.92293 0.0
N176 N 0.4827 0.63585 0.63239 0.0
N177 N 0.4468 0.66169 0.84112 0.0
H178 H 0.31937 0.35221 0.06635 0.0
H179 H 0.62567 0.40258 0.40147 0.0
H180 H 0.51925 0.39541 -0.00226 0.0
H181 H 0.45381 0.35194 0.46289 0.0
H182 H 0.58226 0.40158 0.25396 0.0
H183 H 0.35787 0.35456 0.21575 0.0
C184 C 0.36991 0.36259 0.08276 0.0
C185 C 0.41567 0.3738 0.01918 0.0
C186 C 0.5545 0.39058 0.2997 0.0
C187 C 0.46101 0.3762 0.1892 0.0
C188 C 0.57984 0.39102 0.38377 0.0
C189 C 0.5429 0.37742 0.44491 0.0
C190 C 0.49168 0.37649 0.27678 0.0
C191 C 0.48367 0.3628 0.41816 0.0
C192 C 0.39237 0.36376 0.16787 0.0
C193 C 0.4809 0.38688 0.04429 0.0
N194 N 0.45933 0.36284 0.3362 0.0
N195 N 0.50199 0.3876 0.12712 0.0
H196 H 0.652 0.10225 0.23145 0.0
H197 H 0.2997 0.18973 0.19904 0.0
H198 H 0.70095 0.16835 0.25924 0.0
H199 H 0.24234 0.12542 0.26563 0.0
H200 H 0.44862 0.18181 0.20705 0.0
H201 H 0.50169 0.10996 0.23099 0.0
C202 C 0.63119 0.11841 0.23688 0.0
C203 C 0.68907 0.13483 0.24291 0.0
C204 C 0.4033 0.16947 0.22025 0.0
C205 C 0.51816 0.14369 0.24242 0.0
C206 C 0.31833 0.17394 0.21545 0.0
C207 C 0.25847 0.15815 0.23102 0.0
C208 C 0.42857 0.14902 0.23992 0.0
C209 C 0.28624 0.13802 0.25261 0.0
C210 C 0.54559 0.12278 0.23677 0.0
C211 C 0.65881 0.15542 0.25054 0.0
N212 N 0.36955 0.13397 0.25581 0.0
N213 N 0.57536 0.15931 0.24959 0.0
H214 H 0.65123 0.91605 0.8131 0.0
H215 H 0.30127 0.83813 0.64919 0.0
H216 H 0.7042 0.86414 0.64096 0.0
H217 H 0.24348 0.89516 0.79016 0.0
H218 H 0.44998 0.84642 0.65248 0.0
H219 H 0.50182 0.90805 0.81 0.0
C220 C 0.63144 0.90297 0.77456 0.0
C221 C 0.69031 0.89049 0.72828 0.0
C222 C 0.40478 0.85714 0.68264 0.0
C223 C 0.51973 0.88121 0.72487 0.0
C224 C 0.31977 0.85238 0.6811 0.0
C225 C 0.25971 0.86603 0.71922 0.0
C226 C 0.43005 0.87563 0.72291 0.0
C227 C 0.28754 0.88426 0.75957 0.0
C228 C 0.54618 0.89838 0.77304 0.0
C229 C 0.66117 0.87376 0.67947 0.0
N230 N 0.37083 0.88854 0.76035 0.0
N231 N 0.57788 0.86955 0.67924 0.0
H232 H 0.79278 0.68821 0.19412 0.0
H233 H 0.14361 0.60084 0.24532 0.0
H234 H 0.73437 0.62471 0.27214 0.0
H235 H 0.19412 0.66724 0.24873 0.0
H236 H -0.00662 0.6086 0.24395 0.0
H237 H 0.94152 0.68021 0.20197 0.0
C238 C 0.81114 0.67258 0.21301 0.0
C239 C 0.75101 0.65704 0.23187 0.0
C240 C 0.03762 0.62146 0.24468 0.0
C241 C 0.92105 0.6478 0.24066 0.0
C242 C 0.12322 0.61707 0.2453 0.0
C243 C 0.18156 0.63352 0.24506 0.0
C244 C 0.01063 0.64243 0.24354 0.0
C245 C 0.15169 0.65419 0.24562 0.0
C246 C 0.89606 0.66805 0.21768 0.0
C247 C 0.7785 0.63712 0.25654 0.0
N248 N 0.0683 0.65809 0.24444 0.0
N249 N 0.86177 0.633 0.25968 0.0
H250 H 0.80614 0.33872 0.65068 0.0
H251 H 0.15587 0.41567 0.82162 0.0
H252 H 0.74816 0.39518 0.7955 0.0
H253 H 0.209 0.36444 0.64605 0.0
H254 H 0.00648 0.40773 0.81775 0.0
H255 H 0.95483 0.34685 0.65551 0.0
C256 C 0.8246 0.35282 0.68374 0.0
C257 C 0.76451 0.36636 0.72248 0.0
C258 C 0.05088 0.3982 0.7802 0.0
C259 C 0.93482 0.37576 0.72796 0.0
C260 C 0.13611 0.40275 0.78216 0.0
C261 C 0.195 0.39046 0.73503 0.0
C262 C 0.02448 0.38125 0.73072 0.0
C263 C 0.16594 0.37393 0.68511 0.0
C264 C 0.9096 0.35748 0.68618 0.0
C265 C 0.79227 0.38438 0.76437 0.0
N266 N 0.08266 0.36976 0.68444 0.0
N267 N 0.87557 0.38857 0.76599 0.0
H268 H 0.34188 0.32218 0.44092 0.0
H269 H 0.92142 0.25675 0.39722 0.0
H270 H 0.14846 0.31674 0.64219 0.0
H271 H 0.13581 0.25289 0.21869 0.0
H272 H -0.0118 0.28571 0.46987 0.0
H273 H 0.2512 0.30426 0.34326 0.0
C274 C 0.2798 0.3175 0.46446 0.0
C275 C 0.25362 0.32052 0.55077 0.0
C276 C 0.02009 0.27874 0.41406 0.0
C277 C 0.14952 0.29983 0.43868 0.0
C278 C -0.018 0.26218 0.37226 0.0
C279 C 0.02379 0.25201 0.30255 0.0
C280 C 0.10068 0.28523 0.38619 0.0
C281 C 0.10158 0.26004 0.27265 0.0
C282 C 0.22809 0.30722 0.40843 0.0
C283 C 0.17184 0.31446 0.57669 0.0
N284 N 0.13804 0.27598 0.31542 0.0
N285 N 0.12316 0.30409 0.52121 0.0
H286 H 0.63625 0.27177 0.70762 0.0
H287 H 0.64468 0.20794 0.14237 0.0
H288 H 0.42754 0.26909 0.89335 0.0
H289 H 0.84298 0.20591 0.94479 0.0
H290 H 0.5546 0.2255 0.04201 0.0
H291 H 0.70292 0.24296 0.78196 0.0
C292 C 0.6036 0.26489 0.76295 0.0
C293 C 0.52694 0.27322 0.79517 0.0
C294 C 0.61745 0.22093 0.02027 0.0
C295 C 0.60354 0.2404 0.88149 0.0
C296 C 0.6689 0.21087 0.07762 0.0
C297 C 0.75226 0.20589 0.05278 0.0
C298 C 0.64982 0.22614 0.93779 0.0
C299 C 0.77977 0.20984 0.96756 0.0
C300 C 0.64186 0.24845 0.80565 0.0
C301 C 0.48744 0.2635 0.86693 0.0
N302 N 0.72923 0.22002 0.91372 0.0
N303 N 0.52681 0.24788 0.90845 0.0
H304 H 0.62948 0.75185 0.21111 0.0
H305 H 0.64094 0.81847 0.64062 0.0
H306 H 0.42261 0.75565 0.39881 0.0
H307 H 0.83838 0.81882 0.44204 0.0
H308 H 0.55021 0.80034 0.54242 0.0
H309 H 0.69694 0.78097 0.28304 0.0
C310 C 0.59744 0.75902 0.26641 0.0
C311 C 0.52099 0.75095 0.2998 0.0
C312 C 0.61303 0.80466 0.51997 0.0
C313 C 0.59844 0.78415 0.3833 0.0
C314 C 0.66483 0.81506 0.57607 0.0
C315 C 0.74818 0.81971 0.55043 0.0
C316 C 0.64503 0.79878 0.43793 0.0
C317 C 0.77522 0.81515 0.46547 0.0
C318 C 0.63613 0.77564 0.30771 0.0
C319 C 0.4823 0.76104 0.37149 0.0
N320 N 0.72436 0.80464 0.41289 0.0
N321 N 0.52203 0.77685 0.41156 0.0
H322 H 0.33361 0.70269 0.94368 0.0
H323 H 0.91582 0.76936 0.89511 0.0
H324 H 0.1407 0.71011 0.14466 0.0
H325 H 0.13023 0.77148 0.71623 0.0
H326 H -0.01831 0.74067 0.97008 0.0
H327 H 0.2439 0.72052 0.84488 0.0
C328 C 0.27186 0.70779 0.96695 0.0
C329 C 0.24551 0.70531 0.05343 0.0
C330 C 0.01378 0.7472 0.9137 0.0
C331 C 0.14252 0.72588 0.94 0.0
C332 C 0.97618 0.7636 0.87055 0.0
C333 C 0.01829 0.77321 0.80003 0.0
C334 C 0.09415 0.7403 0.88636 0.0
C335 C 0.09578 0.76477 0.77076 0.0
C336 C 0.22071 0.71801 0.91026 0.0
C337 C 0.16419 0.71194 0.07902 0.0
N338 N 0.13176 0.749 0.81482 0.0
N339 N 0.11605 0.72222 0.02285 0.0
H340 H 0.94354 0.03113 0.20295 0.0
H341 H 0.2012 0.95595 0.88301 0.0
H342 H 0.16434 0.05119 0.05525 0.0
H343 H -0.01024 0.93649 0.04551 0.0
H344 H 0.2074 0.98862 0.96462 0.0
H345 H 0.97314 0.99512 0.16031 0.0
C346 C -0.00188 0.02801 0.16101 0.0
C347 C 0.05073 0.04435 0.13154 0.0
C348 C 0.16117 0.97694 0.98399 0.0
C349 C 0.08563 1.00278 0.08281 0.0
C350 C 0.15841 0.95808 0.93821 0.0
C351 C 0.09366 0.94363 0.95634 0.0
C352 C 0.09884 0.98124 0.04814 0.0
C353 C 0.03989 0.94733 0.02843 0.0
C354 C 0.01552 1.00733 0.13735 0.0
C355 C 0.12146 0.03915 0.07872 0.0
N356 N 0.04243 0.96597 0.07038 0.0
N357 N 0.13637 0.01883 0.05529 0.0
H358 H -0.00814 0.08886 0.55354 0.0
H359 H 0.17263 0.97243 0.55391 0.0
H360 H 0.20011 0.06843 0.38777 0.0
H361 H 0.94758 0.99348 0.69308 0.0
H362 H 0.20296 1.0089 0.51392 0.0
H363 H 0.00122 0.05637 0.63379 0.0
C364 C 0.04184 0.07792 0.53609 0.0
C365 C 0.09415 0.08121 0.46273 0.0
C366 C 0.1473 1.00549 0.55369 0.0
C367 C 0.10261 0.04346 0.55183 0.0
C368 C 0.12953 0.98466 0.57594 0.0
C369 C 0.05663 0.97979 0.62577 0.0
C370 C 0.0921 0.02154 0.58197 0.0
C371 C 0.00375 0.99635 0.65338 0.0
C372 C 0.04629 0.05916 0.58114 0.0
C373 C 0.15786 0.06646 0.44337 0.0
N374 N 0.0224 0.0164 0.63088 0.0
N375 N 0.15876 0.04789 0.48607 0.0
H376 H 0.43927 0.52958 0.21093 0.0
H377 H 0.70459 0.45531 0.89426 0.0
H378 H 0.66014 0.55022 0.06481 0.0
H379 H 0.49381 0.43482 0.05543 0.0
H380 H 0.70833 0.48789 0.97652 0.0
H381 H 0.47177 0.49356 0.16977 0.0
C382 C 0.49446 0.52659 0.16969 0.0
C383 C 0.54625 0.54308 0.14017 0.0
C384 C 0.66275 0.47602 -0.00453 0.0
C385 C 0.58453 0.50156 0.09331 0.0
C386 C 0.66142 0.4572 0.94932 0.0
C387 C 0.59736 0.44252 0.96666 0.0
C388 C 0.59966 0.48004 0.05916 0.0
C389 C 0.54324 0.44589 0.03878 0.0
C390 C 0.51353 0.50591 0.14692 0.0
C391 C 0.61782 0.53806 0.08828 0.0
N392 N 0.54423 0.46452 0.081 0.0
N393 N 0.63438 0.51777 0.06578 0.0
H394 H 0.6744 0.47358 0.56592 0.0
H395 H 0.48414 0.58899 0.55947 0.0
H396 H 0.44882 0.49382 0.70626 0.0
H397 H 0.6952 0.56902 0.39652 0.0
H398 H 0.49576 0.55685 0.64201 0.0
H399 H 0.70189 0.51009 0.52496 0.0
C400 C 0.63063 0.48565 0.5881 0.0
C401 C 0.55835 0.48052 0.63841 0.0
C402 C 0.5409 0.55968 0.58946 0.0
C403 C 0.59046 0.52235 0.59326 0.0
C404 C 0.53505 0.57822 0.54303 0.0
C405 C 0.5875 0.58148 0.46973 0.0
C406 C 0.59892 0.54421 0.5617 0.0
C407 C 0.6527 0.56704 0.45191 0.0
C408 C 0.64676 0.5065 0.56524 0.0
C409 C 0.50456 0.49689 0.66617 0.0
N410 N 0.65508 0.54869 0.49601 0.0
N411 N 0.52152 0.51699 0.6429 0.0
loop_
_geom_bond_atom_site_label_1
_geom_bond_atom_site_label_2
_geom_bond_distance
_geom_bond_site_symmetry_2
_ccdc_geom_bond_type
C0 O27 1.312 . S
C0 O28 1.208 . S
C1 O22 1.331 . S
C1 O25 1.244 . S
C2 O24 1.264 . S
C2 O26 1.273 . S
Mg3 O5 1.936 1_455 S
Mg3 O12 2.081 . S
Mg3 O14 2.023 . S
Mg3 O18 2.031 . S
Mg3 O27 2.291 . S
Mg4 O5 1.963 . S
Mg4 O15 1.942 . S
Mg4 O16 1.955 . S
Mg4 O23 1.986 . S
O5 Mg3 1.936 1_655 S
O5 Mg4 1.963 . S
O5 Mg6 1.915 . S
Mg6 O5 1.915 . S
Mg6 O7 1.915 1_655 S
Mg6 O11 2.013 . S
Mg6 O17 2.114 1_655 S
Mg6 O21 2.013 . S
Mg6 O27 2.114 1_655 S
O7 Mg6 1.915 1_455 S
O7 Mg8 1.936 . S
O7 Mg9 1.963 1_455 S
Mg8 O7 1.936 . S
Mg8 O17 2.291 . S
Mg8 O22 2.081 . S
Mg8 O24 2.023 1_455 S
Mg8 O28 2.031 . S
Mg9 O7 1.963 1_655 S
Mg9 O13 1.986 . S
Mg9 O25 1.942 1_655 S
Mg9 O26 1.955 . S
C10 O21 1.191 . S
C10 O23 1.307 . S
O11 Mg6 2.013 . S
O11 C30 1.191 . S
O12 Mg3 2.081 . S
O12 C20 1.331 1_455 S
O13 Mg9 1.986 . S
O13 C30 1.307 . S
O14 Mg3 2.023 . S
O14 C29 1.264 . S
O15 Mg4 1.942 . S
O15 C20 1.244 . S
O16 Mg4 1.955 . S
O16 C29 1.273 1_655 S
O17 Mg6 2.114 1_455 S
O17 Mg8 2.291 . S
O17 C19 1.312 . S
O18 Mg3 2.031 . S
O18 C19 1.208 . S
C19 O17 1.312 . S
C19 O18 1.208 . S
C20 O12 1.331 1_655 S
C20 O15 1.244 . S
O21 Mg6 2.013 . S
O21 C10 1.191 . S
O22 C1 1.331 . S
O22 Mg8 2.081 . S
O23 Mg4 1.986 . S
O23 C10 1.307 . S
O24 C2 1.264 . S
O24 Mg8 2.023 1_655 S
O25 C1 1.244 . S
O25 Mg9 1.942 1_455 S
O26 C2 1.273 . S
O26 Mg9 1.955 . S
O27 C0 1.312 . S
O27 Mg3 2.291 . S
O27 Mg6 2.114 1_455 S
O28 C0 1.208 . S
O28 Mg8 2.031 . S
C29 O14 1.264 . S
C29 O16 1.273 1_455 S
C30 O11 1.191 . S
C30 O13 1.307 . S
C31 O58 1.312 . S
C31 O59 1.208 . S
C32 O53 1.331 1_655 S
C32 O56 1.244 . S
C33 O55 1.264 . S
C33 O57 1.273 1_455 S
Mg34 O36 1.936 . S
Mg34 O43 2.081 . S
Mg34 O45 2.023 1_455 S
Mg34 O49 2.031 . S
Mg34 O58 2.291 . S
Mg35 O36 1.963 1_655 S
Mg35 O46 1.942 1_655 S
Mg35 O47 1.955 . S
Mg35 O54 1.986 . S
O36 Mg34 1.936 . S
O36 Mg35 1.963 1_455 S
O36 Mg37 1.915 1_455 S
Mg37 O36 1.915 1_655 S
Mg37 O38 1.915 . S
Mg37 O42 2.013 . S
Mg37 O48 2.114 1_655 S
Mg37 O52 2.013 . S
Mg37 O58 2.114 1_655 S
O38 Mg37 1.915 . S
O38 Mg39 1.936 1_655 S
O38 Mg40 1.963 . S
Mg39 O38 1.936 1_455 S
Mg39 O48 2.291 . S
Mg39 O53 2.081 . S
Mg39 O55 2.023 . S
Mg39 O59 2.031 . S
Mg40 O38 1.963 . S
Mg40 O44 1.986 . S
Mg40 O56 1.942 . S
Mg40 O57 1.955 . S
C41 O52 1.191 . S
C41 O54 1.307 . S
O42 Mg37 2.013 . S
O42 C61 1.191 . S
O43 Mg34 2.081 . S
O43 C51 1.331 . S
O44 Mg40 1.986 . S
O44 C61 1.307 . S
O45 Mg34 2.023 1_655 S
O45 C60 1.264 . S
O46 Mg35 1.942 1_455 S
O46 C51 1.244 . S
O47 Mg35 1.955 . S
O47 C60 1.273 . S
O48 Mg37 2.114 1_455 S
O48 Mg39 2.291 . S
O48 C50 1.312 . S
O49 Mg34 2.031 . S
O49 C50 1.208 . S
C50 O48 1.312 . S
C50 O49 1.208 . S
C51 O43 1.331 . S
C51 O46 1.244 . S
O52 Mg37 2.013 . S
O52 C41 1.191 . S
O53 C32 1.331 1_455 S
O53 Mg39 2.081 . S
O54 Mg35 1.986 . S
O54 C41 1.307 . S
O55 C33 1.264 . S
O55 Mg39 2.023 . S
O56 C32 1.244 . S
O56 Mg40 1.942 . S
O57 C33 1.273 1_655 S
O57 Mg40 1.955 . S
O58 C31 1.312 . S
O58 Mg34 2.291 . S
O58 Mg37 2.114 1_455 S
O59 C31 1.208 . S
O59 Mg39 2.031 . S
C60 O45 1.264 . S
C60 O47 1.273 . S
C61 O42 1.191 . S
C61 O44 1.307 . S
C62 O89 1.312 . S
C62 O90 1.208 . S
C63 O84 1.331 . S
C63 O87 1.244 . S
C64 O86 1.264 . S
C64 O88 1.273 . S
Mg65 O67 1.936 . S
Mg65 O74 2.081 . S
Mg65 O76 2.023 . S
Mg65 O80 2.031 . S
Mg65 O89 2.291 . S
Mg66 O67 1.963 . S
Mg66 O77 1.942 . S
Mg66 O78 1.955 . S
Mg66 O85 1.986 . S
O67 Mg65 1.936 . S
O67 Mg66 1.963 . S
O67 Mg68 1.915 . S
Mg68 O67 1.915 . S
Mg68 O69 1.915 . S
Mg68 O73 2.013 . S
Mg68 O79 2.114 . S
Mg68 O83 2.013 . S
Mg68 O89 2.114 . S
O69 Mg68 1.915 . S
O69 Mg70 1.936 . S
O69 Mg71 1.963 . S
Mg70 O69 1.936 . S
Mg70 O79 2.291 . S
Mg70 O84 2.081 . S
Mg70 O86 2.023 . S
Mg70 O90 2.031 . S
Mg71 O69 1.963 . S
Mg71 O75 1.986 . S
Mg71 O87 1.942 . S
Mg71 O88 1.955 . S
C72 O83 1.191 . S
C72 O85 1.307 . S
O73 Mg68 2.013 . S
O73 C92 1.191 . S
O74 Mg65 2.081 . S
O74 C82 1.331 . S
O75 Mg71 1.986 . S
O75 C92 1.307 . S
O76 Mg65 2.023 . S
O76 C91 1.264 . S
O77 Mg66 1.942 . S
O77 C82 1.244 . S
O78 Mg66 1.955 . S
O78 C91 1.273 . S
O79 Mg68 2.114 . S
O79 Mg70 2.291 . S
O79 C81 1.312 . S
O80 Mg65 2.031 . S
O80 C81 1.208 . S
C81 O79 1.312 . S
C81 O80 1.208 . S
C82 O74 1.331 . S
C82 O77 1.244 . S
O83 Mg68 2.013 . S
O83 C72 1.191 . S
O84 C63 1.331 . S
O84 Mg70 2.081 . S
O85 Mg66 1.986 . S
O85 C72 1.307 . S
O86 C64 1.264 . S
O86 Mg70 2.023 . S
O87 C63 1.244 . S
O87 Mg71 1.942 . S
O88 C64 1.273 . S
O88 Mg71 1.955 . S
O89 C62 1.312 . S
O89 Mg65 2.291 . S
O89 Mg68 2.114 . S
O90 C62 1.208 . S
O90 Mg70 2.031 . S
C91 O76 1.264 . S
C91 O78 1.273 . S
C92 O73 1.191 . S
C92 O75 1.307 . S
C93 O120 1.312 . S
C93 O121 1.208 . S
C94 O115 1.331 . S
C94 O118 1.244 . S
C95 O117 1.264 . S
C95 O119 1.273 . S
Mg96 O98 1.936 . S
Mg96 O105 2.081 . S
Mg96 O107 2.023 . S
Mg96 O111 2.031 . S
Mg96 O120 2.291 . S
Mg97 O98 1.963 . S
Mg97 O108 1.942 . S
Mg97 O109 1.955 . S
Mg97 O116 1.986 . S
O98 Mg96 1.936 . S
O98 Mg97 1.963 . S
O98 Mg99 1.915 . S
Mg99 O98 1.915 . S
Mg99 O100 1.915 . S
Mg99 O104 2.013 . S
Mg99 O110 2.114 . S
Mg99 O114 2.013 . S
Mg99 O120 2.114 . S
O100 Mg99 1.915 . S
O100 Mg101 1.936 . S
O100 Mg102 1.963 . S
Mg101 O100 1.936 . S
Mg101 O110 2.291 . S
Mg101 O115 2.081 . S
Mg101 O117 2.023 . S
Mg101 O121 2.031 . S
Mg102 O100 1.963 . S
Mg102 O106 1.986 . S
Mg102 O118 1.942 . S
Mg102 O119 1.955 . S
C103 O114 1.191 . S
C103 O116 1.307 . S
O104 Mg99 2.013 . S
O104 C123 1.191 . S
O105 Mg96 2.081 . S
O105 C113 1.331 . S
O106 Mg102 1.986 . S
O106 C123 1.307 . S
O107 Mg96 2.023 . S
O107 C122 1.264 . S
O108 Mg97 1.942 . S
O108 C113 1.244 . S
O109 Mg97 1.955 . S
O109 C122 1.273 . S
O110 Mg99 2.114 . S
O110 Mg101 2.291 . S
O110 C112 1.312 . S
O111 Mg96 2.031 . S
O111 C112 1.208 . S
C112 O110 1.312 . S
C112 O111 1.208 . S
C113 O105 1.331 . S
C113 O108 1.244 . S
O114 Mg99 2.013 . S
O114 C103 1.191 . S
O115 C94 1.331 . S
O115 Mg101 2.081 . S
O116 Mg97 1.986 . S
O116 C103 1.307 . S
O117 C95 1.264 . S
O117 Mg101 2.023 . S
O118 C94 1.244 . S
O118 Mg102 1.942 . S
O119 C95 1.273 . S
O119 Mg102 1.955 . S
O120 C93 1.312 . S
O120 Mg96 2.291 . S
O120 Mg99 2.114 . S
O121 C93 1.208 . S
O121 Mg101 2.031 . S
C122 O107 1.264 . S
C122 O109 1.273 . S
C123 O104 1.191 . S
C123 O106 1.307 . S
H124 C130 0.930 . S
H125 C134 0.930 . S
H126 C139 0.929 . S
H127 C137 0.929 . S
H128 C132 0.929 . S
H129 C138 0.929 . S
C130 H124 0.930 . S
C130 C131 1.367 . S
C130 C138 1.378 . S
C131 C130 1.367 . S
C131 C139 1.433 . S
C132 H128 0.929 . S
C132 C134 1.378 . S
C132 C136 1.350 . S
C133 C136 1.463 1_455 S
C133 C138 1.350 . S
C133 N141 1.427 1_455 S
C134 H125 0.930 . S
C134 C132 1.378 . S
C134 C135 1.367 . S
C135 C134 1.367 . S
C135 C137 1.433 . S
C136 C132 1.350 . S
C136 C133 1.463 1_655 S
C136 N140 1.427 1_655 S
C137 H127 0.929 . S
C137 C135 1.433 . S
C137 N140 1.384 1_655 S
C138 H129 0.929 . S
C138 C130 1.378 . S
C138 C133 1.350 . S
C139 H126 0.929 . S
C139 C131 1.433 . S
C139 N141 1.384 1_455 S
N140 C136 1.427 1_455 S
N140 C137 1.384 1_455 S
N141 C133 1.427 1_655 S
N141 C139 1.384 1_655 S
H142 C148 0.930 . S
H143 C152 0.930 . S
H144 C157 0.929 . S
H145 C155 0.929 . S
H146 C150 0.929 . S
H147 C156 0.929 . S
C148 H142 0.930 . S
C148 C149 1.367 1_655 S
C148 C156 1.378 . S
C149 C148 1.367 1_455 S
C149 C157 1.433 . S
C150 H146 0.929 . S
C150 C152 1.378 . S
C150 C154 1.350 1_455 S
C151 C154 1.463 1_455 S
C151 C156 1.350 1_455 S
C151 N159 1.427 . S
C152 H143 0.930 . S
C152 C150 1.378 . S
C152 C153 1.367 1_455 S
C153 C152 1.367 1_655 S
C153 C155 1.433 . S
C154 C150 1.350 1_655 S
C154 C151 1.463 1_655 S
C154 N158 1.427 . S
C155 H145 0.929 . S
C155 C153 1.433 . S
C155 N158 1.384 . S
C156 H147 0.929 . S
C156 C148 1.378 . S
C156 C151 1.350 1_655 S
C157 H144 0.929 . S
C157 C149 1.433 . S
C157 N159 1.384 . S
N158 C154 1.427 . S
N158 C155 1.384 . S
N159 C151 1.427 . S
N159 C157 1.384 . S
H160 C166 0.930 . S
H161 C170 0.930 . S
H162 C175 0.929 . S
H163 C173 0.929 . S
H164 C168 0.929 . S
H165 C174 0.929 . S
C166 H160 0.930 . S
C166 C167 1.367 . S
C166 C174 1.378 . S
C167 C166 1.367 . S
C167 C175 1.433 . S
C168 H164 0.929 . S
C168 C170 1.378 . S
C168 C172 1.350 . S
C169 C172 1.463 . S
C169 C174 1.350 . S
C169 N177 1.427 . S
C170 H161 0.930 . S
C170 C168 1.378 . S
C170 C171 1.367 . S
C171 C170 1.367 . S
C171 C173 1.433 . S
C172 C168 1.350 . S
C172 C169 1.463 . S
C172 N176 1.427 . S
C173 H163 0.929 . S
C173 C171 1.433 . S
C173 N176 1.384 . S
C174 H165 0.929 . S
C174 C166 1.378 . S
C174 C169 1.350 . S
C175 H162 0.929 . S
C175 C167 1.433 . S
C175 N177 1.384 . S
N176 C172 1.427 . S
N176 C173 1.384 . S
N177 C169 1.427 . S
N177 C175 1.384 . S
H178 C184 0.930 . S
H179 C188 0.930 . S
H180 C193 0.929 . S
H181 C191 0.929 . S
H182 C186 0.929 . S
H183 C192 0.929 . S
C184 H178 0.930 . S
C184 C185 1.367 . S
C184 C192 1.378 . S
C185 C184 1.367 . S
C185 C193 1.433 . S
C186 H182 0.929 . S
C186 C188 1.378 . S
C186 C190 1.350 . S
C187 C190 1.463 . S
C187 C192 1.350 . S
C187 N195 1.427 . S
C188 H179 0.930 . S
C188 C186 1.378 . S
C188 C189 1.367 . S
C189 C188 1.367 . S
C189 C191 1.433 . S
C190 C186 1.350 . S
C190 C187 1.463 . S
C190 N194 1.427 . S
C191 H181 0.929 . S
C191 C189 1.433 . S
C191 N194 1.384 . S
C192 H183 0.929 . S
C192 C184 1.378 . S
C192 C187 1.350 . S
C193 H180 0.929 . S
C193 C185 1.433 . S
C193 N195 1.384 . S
N194 C190 1.427 . S
N194 C191 1.384 . S
N195 C187 1.427 . S
N195 C193 1.384 . S
H196 C202 0.930 . S
H197 C206 0.930 . S
H198 C211 0.929 . S
H199 C209 0.929 . S
H200 C204 0.929 . S
H201 C210 0.929 . S
C202 H196 0.930 . S
C202 C203 1.367 . S
C202 C210 1.378 . S
C203 C202 1.367 . S
C203 C211 1.433 . S
C204 H200 0.929 . S
C204 C206 1.378 . S
C204 C208 1.350 . S
C205 C208 1.463 . S
C205 C210 1.350 . S
C205 N213 1.427 . S
C206 H197 0.930 . S
C206 C204 1.378 . S
C206 C207 1.367 . S
C207 C206 1.367 . S
C207 C209 1.433 . S
C208 C204 1.350 . S
C208 C205 1.463 . S
C208 N212 1.427 . S
C209 H199 0.929 . S
C209 C207 1.433 . S
C209 N212 1.384 . S
C210 H201 0.929 . S
C210 C202 1.378 . S
C210 C205 1.350 . S
C211 H198 0.929 . S
C211 C203 1.433 . S
C211 N213 1.384 . S
N212 C208 1.427 . S
N212 C209 1.384 . S
N213 C205 1.427 . S
N213 C211 1.384 . S
H214 C220 0.930 . S
H215 C224 0.930 . S
H216 C229 0.929 . S
H217 C227 0.929 . S
H218 C222 0.929 . S
H219 C228 0.929 . S
C220 H214 0.930 . S
C220 C221 1.367 . S
C220 C228 1.378 . S
C221 C220 1.367 . S
C221 C229 1.433 . S
C222 H218 0.929 . S
C222 C224 1.378 . S
C222 C226 1.350 . S
C223 C226 1.463 . S
C223 C228 1.350 . S
C223 N231 1.427 . S
C224 H215 0.930 . S
C224 C222 1.378 . S
C224 C225 1.367 . S
C225 C224 1.367 . S
C225 C227 1.433 . S
C226 C222 1.350 . S
C226 C223 1.463 . S
C226 N230 1.427 . S
C227 H217 0.929 . S
C227 C225 1.433 . S
C227 N230 1.384 . S
C228 H219 0.929 . S
C228 C220 1.378 . S
C228 C223 1.350 . S
C229 H216 0.929 . S
C229 C221 1.433 . S
C229 N231 1.384 . S
N230 C226 1.427 . S
N230 C227 1.384 . S
N231 C223 1.427 . S
N231 C229 1.384 . S
H232 C238 0.930 . S
H233 C242 0.930 . S
H234 C247 0.929 . S
H235 C245 0.929 . S
H236 C240 0.929 . S
H237 C246 0.929 . S
C238 H232 0.930 . S
C238 C239 1.367 . S
C238 C246 1.378 . S
C239 C238 1.367 . S
C239 C247 1.433 . S
C240 H236 0.929 . S
C240 C242 1.378 . S
C240 C244 1.350 . S
C241 C244 1.463 1_655 S
C241 C246 1.350 . S
C241 N249 1.427 . S
C242 H233 0.930 . S
C242 C240 1.378 . S
C242 C243 1.367 . S
C243 C242 1.367 . S
C243 C245 1.433 . S
C244 C240 1.350 . S
C244 C241 1.463 1_455 S
C244 N248 1.427 . S
C245 H235 0.929 . S
C245 C243 1.433 . S
C245 N248 1.384 . S
C246 H237 0.929 . S
C246 C238 1.378 . S
C246 C241 1.350 . S
C247 H234 0.929 . S
C247 C239 1.433 . S
C247 N249 1.384 . S
N248 C244 1.427 . S
N248 C245 1.384 . S
N249 C241 1.427 . S
N249 C247 1.384 . S
H250 C256 0.930 . S
H251 C260 0.930 . S
H252 C265 0.929 . S
H253 C263 0.929 . S
H254 C258 0.929 . S
H255 C264 0.929 . S
C256 H250 0.930 . S
C256 C257 1.367 . S
C256 C264 1.378 . S
C257 C256 1.367 . S
C257 C265 1.433 . S
C258 H254 0.929 . S
C258 C260 1.378 . S
C258 C262 1.350 . S
C259 C262 1.463 1_655 S
C259 C264 1.350 . S
C259 N267 1.427 . S
C260 H251 0.930 . S
C260 C258 1.378 . S
C260 C261 1.367 . S
C261 C260 1.367 . S
C261 C263 1.433 . S
C262 C258 1.350 . S
C262 C259 1.463 1_455 S
C262 N266 1.427 . S
C263 H253 0.929 . S
C263 C261 1.433 . S
C263 N266 1.384 . S
C264 H255 0.929 . S
C264 C256 1.378 . S
C264 C259 1.350 . S
C265 H252 0.929 . S
C265 C257 1.433 . S
C265 N267 1.384 . S
N266 C262 1.427 . S
N266 C263 1.384 . S
N267 C259 1.427 . S
N267 C265 1.384 . S
H268 C274 0.930 . S
H269 C278 0.930 . S
H270 C283 0.929 . S
H271 C281 0.929 . S
H272 C276 0.929 . S
H273 C282 0.929 . S
C274 H268 0.930 . S
C274 C275 1.367 . S
C274 C282 1.378 . S
C275 C274 1.367 . S
C275 C283 1.433 . S
C276 H272 0.929 . S
C276 C278 1.378 . S
C276 C280 1.350 . S
C277 C280 1.463 . S
C277 C282 1.350 . S
C277 N285 1.427 . S
C278 H269 0.930 . S
C278 C276 1.378 . S
C278 C279 1.367 . S
C279 C278 1.367 . S
C279 C281 1.433 . S
C280 C276 1.350 . S
C280 C277 1.463 . S
C280 N284 1.427 . S
C281 H271 0.929 . S
C281 C279 1.433 . S
C281 N284 1.384 . S
C282 H273 0.929 . S
C282 C274 1.378 . S
C282 C277 1.350 . S
C283 H270 0.929 . S
C283 C275 1.433 . S
C283 N285 1.384 . S
N284 C280 1.427 . S
N284 C281 1.384 . S
N285 C277 1.427 . S
N285 C283 1.384 . S
H286 C292 0.930 . S
H287 C296 0.930 . S
H288 C301 0.929 1_554 S
H289 C299 0.929 1_556 S
H290 C294 0.929 . S
H291 C300 0.929 . S
C292 H286 0.930 . S
C292 C293 1.367 . S
C292 C300 1.378 . S
C293 C292 1.367 . S
C293 C301 1.433 . S
C294 H290 0.929 . S
C294 C296 1.378 . S
C294 C298 1.350 . S
C295 C298 1.463 1_556 S
C295 C300 1.350 . S
C295 N303 1.427 1_556 S
C296 H287 0.930 . S
C296 C294 1.378 . S
C296 C297 1.367 . S
C297 C296 1.367 . S
C297 C299 1.433 . S
C298 C294 1.350 . S
C298 C295 1.463 1_554 S
C298 N302 1.427 1_554 S
C299 H289 0.929 1_554 S
C299 C297 1.433 . S
C299 N302 1.384 1_554 S
C300 H291 0.929 . S
C300 C292 1.378 . S
C300 C295 1.350 . S
C301 H288 0.929 1_556 S
C301 C293 1.433 . S
C301 N303 1.384 1_556 S
N302 C298 1.427 1_556 S
N302 C299 1.384 1_556 S
N303 C295 1.427 1_554 S
N303 C301 1.384 1_554 S
H304 C310 0.930 . S
H305 C314 0.930 . S
H306 C319 0.929 . S
H307 C317 0.929 . S
H308 C312 0.929 . S
H309 C318 0.929 . S
C310 H304 0.930 . S
C310 C311 1.367 . S
C310 C318 1.378 . S
C311 C310 1.367 . S
C311 C319 1.433 . S
C312 H308 0.929 . S
C312 C314 1.378 . S
C312 C316 1.350 . S
C313 C316 1.463 . S
C313 C318 1.350 . S
C313 N321 1.427 . S
C314 H305 0.930 . S
C314 C312 1.378 . S
C314 C315 1.367 . S
C315 C314 1.367 . S
C315 C317 1.433 . S
C316 C312 1.350 . S
C316 C313 1.463 . S
C316 N320 1.427 . S
C317 H307 0.929 . S
C317 C315 1.433 . S
C317 N320 1.384 . S
C318 H309 0.929 . S
C318 C310 1.378 . S
C318 C313 1.350 . S
C319 H306 0.929 . S
C319 C311 1.433 . S
C319 N321 1.384 . S
N320 C316 1.427 . S
N320 C317 1.384 . S
N321 C313 1.427 . S
N321 C319 1.384 . S
H322 C328 0.930 . S
H323 C332 0.930 . S
H324 C337 0.929 . S
H325 C335 0.929 . S
H326 C330 0.929 . S
H327 C336 0.929 . S
C328 H322 0.930 . S
C328 C329 1.367 . S
C328 C336 1.378 . S
C329 C328 1.367 . S
C329 C337 1.433 . S
C330 H326 0.929 . S
C330 C332 1.378 . S
C330 C334 1.350 . S
C331 C334 1.463 1_554 S
C331 C336 1.350 . S
C331 N339 1.427 . S
C332 H323 0.930 . S
C332 C330 1.378 . S
C332 C333 1.367 . S
C333 C332 1.367 . S
C333 C335 1.433 . S
C334 C330 1.350 . S
C334 C331 1.463 1_556 S
C334 N338 1.427 . S
C335 H325 0.929 . S
C335 C333 1.433 . S
C335 N338 1.384 . S
C336 H327 0.929 . S
C336 C328 1.378 . S
C336 C331 1.350 . S
C337 H324 0.929 . S
C337 C329 1.433 . S
C337 N339 1.384 . S
N338 C334 1.427 . S
N338 C335 1.384 . S
N339 C331 1.427 . S
N339 C337 1.384 . S
H340 C346 0.930 . S
H341 C350 0.930 . S
H342 C355 0.929 . S
H343 C353 0.929 1_554 S
H344 C348 0.929 . S
H345 C354 0.929 1_565 S
C346 H340 0.930 . S
C346 C347 1.367 . S
C346 C354 1.378 . S
C347 C346 1.367 . S
C347 C355 1.433 1_554 S
C348 H344 0.929 . S
C348 C350 1.378 . S
C348 C352 1.350 . S
C349 C352 1.463 1_644 S
C349 C354 1.350 . S
C349 N357 1.427 1_554 S
C350 H341 0.930 . S
C350 C348 1.378 . S
C350 C351 1.367 . S
C351 C350 1.367 . S
C351 C353 1.433 . S
C352 C348 1.350 . S
C352 C349 1.463 1_466 S
C352 N356 1.427 1_556 S
C353 H343 0.929 1_556 S
C353 C351 1.433 . S
C353 N356 1.384 1_556 S
C354 H345 0.929 1_545 S
C354 C346 1.378 . S
C354 C349 1.350 . S
C355 H342 0.929 . S
C355 C347 1.433 1_556 S
C355 N357 1.384 . S
N356 C352 1.427 1_554 S
N356 C353 1.384 1_554 S
N357 C349 1.427 1_556 S
N357 C355 1.384 . S
H358 C364 0.930 1_655 S
H359 C368 0.930 1_455 S
H360 C373 0.929 . S
H361 C371 0.929 . S
H362 C366 0.929 . S
H363 C372 0.929 . S
C364 H358 0.930 1_455 S
C364 C365 1.367 . S
C364 C372 1.378 1_455 S
C365 C364 1.367 . S
C365 C373 1.433 . S
C366 H362 0.929 . S
C366 C368 1.378 1_455 S
C366 C370 1.350 1_455 S
C367 C370 1.463 1_445 S
C367 C372 1.350 1_455 S
C367 N375 1.427 . S
C368 H359 0.930 1_655 S
C368 C366 1.378 1_655 S
C368 C369 1.367 . S
C369 C368 1.367 . S
C369 C371 1.433 . S
C370 C366 1.350 1_655 S
C370 C367 1.463 1_665 S
C370 N374 1.427 . S
C371 H361 0.929 . S
C371 C369 1.433 . S
C371 N374 1.384 . S
C372 H363 0.929 . S
C372 C364 1.378 1_655 S
C372 C367 1.350 1_655 S
C373 H360 0.929 . S
C373 C365 1.433 . S
C373 N375 1.384 . S
N374 C370 1.427 . S
N374 C371 1.384 . S
N375 C367 1.427 . S
N375 C373 1.384 . S
H376 C382 0.930 . S
H377 C386 0.930 . S
H378 C391 0.929 1_556 S
H379 C389 0.929 . S
H380 C384 0.929 . S
H381 C390 0.929 . S
C382 H376 0.930 . S
C382 C383 1.367 . S
C382 C390 1.378 . S
C383 C382 1.367 . S
C383 C391 1.433 . S
C384 H380 0.929 . S
C384 C386 1.378 . S
C384 C388 1.350 . S
C385 C388 1.463 1_554 S
C385 C390 1.350 . S
C385 N393 1.427 1_554 S
C386 H377 0.930 . S
C386 C384 1.378 . S
C386 C387 1.367 . S
C387 C386 1.367 . S
C387 C389 1.433 . S
C388 C384 1.350 . S
C388 C385 1.463 1_556 S
C388 N392 1.427 1_556 S
C389 H379 0.929 . S
C389 C387 1.433 . S
C389 N392 1.384 1_556 S
C390 H381 0.929 . S
C390 C382 1.378 . S
C390 C385 1.350 . S
C391 H378 0.929 1_554 S
C391 C383 1.433 . S
C391 N393 1.384 1_554 S
N392 C388 1.427 1_554 S
N392 C389 1.384 1_554 S
N393 C385 1.427 1_556 S
N393 C391 1.384 1_556 S
H394 C400 0.930 . S
H395 C404 0.930 . S
H396 C409 0.929 . S
H397 C407 0.929 . S
H398 C402 0.929 . S
H399 C408 0.929 . S
C400 H394 0.930 . S
C400 C401 1.367 . S
C400 C408 1.378 . S
C401 C400 1.367 . S
C401 C409 1.433 . S
C402 H398 0.929 . S
C402 C404 1.378 . S
C402 C406 1.350 . S
C403 C406 1.463 . S
C403 C408 1.350 . S
C403 N411 1.427 . S
C404 H395 0.930 . S
C404 C402 1.378 . S
C404 C405 1.367 . S
C405 C404 1.367 . S
C405 C407 1.433 . S
C406 C402 1.350 . S
C406 C403 1.463 . S
C406 N410 1.427 . S
C407 H397 0.929 . S
C407 C405 1.433 . S
C407 N410 1.384 . S
C408 H399 0.929 . S
C408 C400 1.378 . S
C408 C403 1.350 . S
C409 H396 0.929 . S
C409 C401 1.433 . S
C409 N411 1.384 . S
N410 C406 1.427 . S
N410 C407 1.384 . S
N411 C403 1.427 . S
N411 C409 1.384 . S
C131 C19 1.310 1_556 S
C135 C30 1.317 . S
C149 C31 1.311 . S
C153 C41 1.315 1_554 S
C167 C62 1.300 1_556 S
C171 C72 1.306 . S
C185 C103 1.308 1_554 S
C189 C93 1.303 . S
C203 C10 1.271 . S
C207 C0 1.255 . S
C221 C61 1.265 . S
C225 C50 1.248 . S
C239 C81 1.253 . S
C243 C92 1.269 . S
C257 C112 1.248 . S
C261 C123 1.267 . S
C275 C122 1.811 . S
C279 C1 1.808 . S
C293 C113 1.811 . S
C297 C2 1.812 . S
C311 C82 1.816 . S
C315 C60 1.817 . S
C329 C91 1.809 . S
C333 C51 1.807 . S
C347 C20 1.463 . S
C351 C33 1.442 . S
C365 C29 1.445 . S
C369 C32 1.467 . S
C383 C63 1.469 . S
C387 C95 1.449 . S
C401 C94 1.474 . S
C405 C64 1.452 . S
