# Generated by pormake.
# Topology fcs, (5)-cn, num edge types: 1
# Building blocks:
#     Node 0, Type 0, BuildingBlock: XOMCOT_clean_sbu_1, # of connection points: 5
#     Node 1, Type 0, BuildingBlock: XOMCOT_clean_sbu_1, # of connection points: 5
#     Node 2, Type 0, BuildingBlock: XOMCOT_clean_sbu_1, # of connection points: 5
#     Node 3, Type 0, BuildingBlock: XOMCOT_clean_sbu_1, # of connection points: 5
#     Node 4, Type 0, BuildingBlock: XOMCOT_clean_sbu_1, # of connection points: 5
#     Node 5, Type 0, BuildingBlock: XOMCOT_clean_sbu_1, # of connection points: 5
#     Node 6, Type 0, BuildingBlock: XOMCOT_clean_sbu_1, # of connection points: 5
#     Node 7, Type 0, BuildingBlock: XOMCOT_clean_sbu_1, # of connection points: 5
#     Node 8, Type 0, BuildingBlock: XOMCOT_clean_sbu_1, # of connection points: 5
#     Node 9, Type 0, BuildingBlock: XOMCOT_clean_sbu_1, # of connection points: 5
#     Node 10, Type 0, BuildingBlock: XOMCOT_clean_sbu_1, # of connection points: 5
#     Node 11, Type 0, BuildingBlock: XOMCOT_clean_sbu_1, # of connection points: 5
#     Node 12, Type 0, BuildingBlock: XOMCOT_clean_sbu_1, # of connection points: 5
#     Node 13, Type 0, BuildingBlock: XOMCOT_clean_sbu_1, # of connection points: 5
#     Node 14, Type 0, BuildingBlock: XOMCOT_clean_sbu_1, # of connection points: 5
#     Node 15, Type 0, BuildingBlock: XOMCOT_clean_sbu_1, # of connection points: 5
#     Node 16, Type 0, BuildingBlock: XOMCOT_clean_sbu_1, # of connection points: 5
#     Node 17, Type 0, BuildingBlock: XOMCOT_clean_sbu_1, # of connection points: 5
#     Node 18, Type 0, BuildingBlock: XOMCOT_clean_sbu_1, # of connection points: 5
#     Node 19, Type 0, BuildingBlock: XOMCOT_clean_sbu_1, # of connection points: 5
#     Node 20, Type 0, BuildingBlock: XOMCOT_clean_sbu_1, # of connection points: 5
#     Node 21, Type 0, BuildingBlock: XOMCOT_clean_sbu_1, # of connection points: 5
#     Node 22, Type 0, BuildingBlock: XOMCOT_clean_sbu_1, # of connection points: 5
#     Node 23, Type 0, BuildingBlock: XOMCOT_clean_sbu_1, # of connection points: 5
#     Node 24, Type 0, BuildingBlock: XOMCOT_clean_sbu_1, # of connection points: 5
#     Node 25, Type 0, BuildingBlock: XOMCOT_clean_sbu_1, # of connection points: 5
#     Node 26, Type 0, BuildingBlock: XOMCOT_clean_sbu_1, # of connection points: 5
#     Node 27, Type 0, BuildingBlock: XOMCOT_clean_sbu_1, # of connection points: 5
#     Node 28, Type 0, BuildingBlock: XOMCOT_clean_sbu_1, # of connection points: 5
#     Node 29, Type 0, BuildingBlock: XOMCOT_clean_sbu_1, # of connection points: 5
#     Node 30, Type 0, BuildingBlock: XOMCOT_clean_sbu_1, # of connection points: 5
#     Node 31, Type 0, BuildingBlock: XOMCOT_clean_sbu_1, # of connection points: 5
#     Node 32, Type 0, BuildingBlock: XOMCOT_clean_sbu_1, # of connection points: 5
#     Node 33, Type 0, BuildingBlock: XOMCOT_clean_sbu_1, # of connection points: 5
#     Node 34, Type 0, BuildingBlock: XOMCOT_clean_sbu_1, # of connection points: 5
#     Node 35, Type 0, BuildingBlock: XOMCOT_clean_sbu_1, # of connection points: 5
#     Node 36, Type 0, BuildingBlock: XOMCOT_clean_sbu_1, # of connection points: 5
#     Node 37, Type 0, BuildingBlock: XOMCOT_clean_sbu_1, # of connection points: 5
#     Node 38, Type 0, BuildingBlock: XOMCOT_clean_sbu_1, # of connection points: 5
#     Node 39, Type 0, BuildingBlock: XOMCOT_clean_sbu_1, # of connection points: 5
#     Node 40, Type 0, BuildingBlock: XOMCOT_clean_sbu_1, # of connection points: 5
#     Node 41, Type 0, BuildingBlock: XOMCOT_clean_sbu_1, # of connection points: 5
#     Node 42, Type 0, BuildingBlock: XOMCOT_clean_sbu_1, # of connection points: 5
#     Node 43, Type 0, BuildingBlock: XOMCOT_clean_sbu_1, # of connection points: 5
#     Node 44, Type 0, BuildingBlock: XOMCOT_clean_sbu_1, # of connection points: 5
#     Node 45, Type 0, BuildingBlock: XOMCOT_clean_sbu_1, # of connection points: 5
#     Node 46, Type 0, BuildingBlock: XOMCOT_clean_sbu_1, # of connection points: 5
#     Node 47, Type 0, BuildingBlock: XOMCOT_clean_sbu_1, # of connection points: 5
#     Edge 48, Type (0, 0), BuildingBlock: CIFDUS_clean_linker_0, # of connection points: 2
#     Edge 49, Type (0, 0), BuildingBlock: CIFDUS_clean_linker_0, # of connection points: 2
#     Edge 50, Type (0, 0), BuildingBlock: CIFDUS_clean_linker_0, # of connection points: 2
#     Edge 51, Type (0, 0), BuildingBlock: CIFDUS_clean_linker_0, # of connection points: 2
#     Edge 52, Type (0, 0), BuildingBlock: CIFDUS_clean_linker_0, # of connection points: 2
#     Edge 53, Type (0, 0), BuildingBlock: CIFDUS_clean_linker_0, # of connection points: 2
#     Edge 54, Type (0, 0), BuildingBlock: CIFDUS_clean_linker_0, # of connection points: 2
#     Edge 55, Type (0, 0), BuildingBlock: CIFDUS_clean_linker_0, # of connection points: 2
#     Edge 56, Type (0, 0), BuildingBlock: CIFDUS_clean_linker_0, # of connection points: 2
#     Edge 57, Type (0, 0), BuildingBlock: CIFDUS_clean_linker_0, # of connection points: 2
#     Edge 58, Type (0, 0), BuildingBlock: CIFDUS_clean_linker_0, # of connection points: 2
#     Edge 59, Type (0, 0), BuildingBlock: CIFDUS_clean_linker_0, # of connection points: 2
#     Edge 60, Type (0, 0), BuildingBlock: CIFDUS_clean_linker_0, # of connection points: 2
#     Edge 61, Type (0, 0), BuildingBlock: CIFDUS_clean_linker_0, # of connection points: 2
#     Edge 62, Type (0, 0), BuildingBlock: CIFDUS_clean_linker_0, # of connection points: 2
#     Edge 63, Type (0, 0), BuildingBlock: CIFDUS_clean_linker_0, # of connection points: 2
#     Edge 64, Type (0, 0), BuildingBlock: CIFDUS_clean_linker_0, # of connection points: 2
#     Edge 65, Type (0, 0), BuildingBlock: CIFDUS_clean_linker_0, # of connection points: 2
#     Edge 66, Type (0, 0), BuildingBlock: CIFDUS_clean_linker_0, # of connection points: 2
#     Edge 67, Type (0, 0), BuildingBlock: CIFDUS_clean_linker_0, # of connection points: 2
#     Edge 68, Type (0, 0), BuildingBlock: CIFDUS_clean_linker_0, # of connection points: 2
#     Edge 69, Type (0, 0), BuildingBlock: CIFDUS_clean_linker_0, # of connection points: 2
#     Edge 70, Type (0, 0), BuildingBlock: CIFDUS_clean_linker_0, # of connection points: 2
#     Edge 71, Type (0, 0), BuildingBlock: CIFDUS_clean_linker_0, # of connection points: 2
#     Edge 72, Type (0, 0), BuildingBlock: CIFDUS_clean_linker_0, # of connection points: 2
#     Edge 73, Type (0, 0), BuildingBlock: CIFDUS_clean_linker_0, # of connection points: 2
#     Edge 74, Type (0, 0), BuildingBlock: CIFDUS_clean_linker_0, # of connection points: 2
#     Edge 75, Type (0, 0), BuildingBlock: CIFDUS_clean_linker_0, # of connection points: 2
#     Edge 76, Type (0, 0), BuildingBlock: CIFDUS_clean_linker_0, # of connection points: 2
#     Edge 77, Type (0, 0), BuildingBlock: CIFDUS_clean_linker_0, # of connection points: 2
#     Edge 78, Type (0, 0), BuildingBlock: CIFDUS_clean_linker_0, # of connection points: 2
#     Edge 79, Type (0, 0), BuildingBlock: CIFDUS_clean_linker_0, # of connection points: 2
#     Edge 80, Type (0, 0), BuildingBlock: CIFDUS_clean_linker_0, # of connection points: 2
#     Edge 81, Type (0, 0), BuildingBlock: CIFDUS_clean_linker_0, # of connection points: 2
#     Edge 82, Type (0, 0), BuildingBlock: CIFDUS_clean_linker_0, # of connection points: 2
#     Edge 83, Type (0, 0), BuildingBlock: CIFDUS_clean_linker_0, # of connection points: 2
#     Edge 84, Type (0, 0), BuildingBlock: CIFDUS_clean_linker_0, # of connection points: 2
#     Edge 85, Type (0, 0), BuildingBlock: CIFDUS_clean_linker_0, # of connection points: 2
#     Edge 86, Type (0, 0), BuildingBlock: CIFDUS_clean_linker_0, # of connection points: 2
#     Edge 87, Type (0, 0), BuildingBlock: CIFDUS_clean_linker_0, # of connection points: 2
#     Edge 88, Type (0, 0), BuildingBlock: CIFDUS_clean_linker_0, # of connection points: 2
#     Edge 89, Type (0, 0), BuildingBlock: CIFDUS_clean_linker_0, # of connection points: 2
#     Edge 90, Type (0, 0), BuildingBlock: CIFDUS_clean_linker_0, # of connection points: 2
#     Edge 91, Type (0, 0), BuildingBlock: CIFDUS_clean_linker_0, # of connection points: 2
#     Edge 92, Type (0, 0), BuildingBlock: CIFDUS_clean_linker_0, # of connection points: 2
#     Edge 93, Type (0, 0), BuildingBlock: CIFDUS_clean_linker_0, # of connection points: 2
#     Edge 94, Type (0, 0), BuildingBlock: CIFDUS_clean_linker_0, # of connection points: 2
#     Edge 95, Type (0, 0), BuildingBlock: CIFDUS_clean_linker_0, # of connection points: 2
#     Edge 96, Type (0, 0), BuildingBlock: CIFDUS_clean_linker_0, # of connection points: 2
#     Edge 97, Type (0, 0), BuildingBlock: CIFDUS_clean_linker_0, # of connection points: 2
#     Edge 98, Type (0, 0), BuildingBlock: CIFDUS_clean_linker_0, # of connection points: 2
#     Edge 99, Type (0, 0), BuildingBlock: CIFDUS_clean_linker_0, # of connection points: 2
#     Edge 100, Type (0, 0), BuildingBlock: CIFDUS_clean_linker_0, # of connection points: 2
#     Edge 101, Type (0, 0), BuildingBlock: CIFDUS_clean_linker_0, # of connection points: 2
#     Edge 102, Type (0, 0), BuildingBlock: CIFDUS_clean_linker_0, # of connection points: 2
#     Edge 103, Type (0, 0), BuildingBlock: CIFDUS_clean_linker_0, # of connection points: 2
#     Edge 104, Type (0, 0), BuildingBlock: CIFDUS_clean_linker_0, # of connection points: 2
#     Edge 105, Type (0, 0), BuildingBlock: CIFDUS_clean_linker_0, # of connection points: 2
#     Edge 106, Type (0, 0), BuildingBlock: CIFDUS_clean_linker_0, # of connection points: 2
#     Edge 107, Type (0, 0), BuildingBlock: CIFDUS_clean_linker_0, # of connection points: 2
#     Edge 108, Type (0, 0), BuildingBlock: CIFDUS_clean_linker_0, # of connection points: 2
#     Edge 109, Type (0, 0), BuildingBlock: CIFDUS_clean_linker_0, # of connection points: 2
#     Edge 110, Type (0, 0), BuildingBlock: CIFDUS_clean_linker_0, # of connection points: 2
#     Edge 111, Type (0, 0), BuildingBlock: CIFDUS_clean_linker_0, # of connection points: 2
#     Edge 112, Type (0, 0), BuildingBlock: CIFDUS_clean_linker_0, # of connection points: 2
#     Edge 113, Type (0, 0), BuildingBlock: CIFDUS_clean_linker_0, # of connection points: 2
#     Edge 114, Type (0, 0), BuildingBlock: CIFDUS_clean_linker_0, # of connection points: 2
#     Edge 115, Type (0, 0), BuildingBlock: CIFDUS_clean_linker_0, # of connection points: 2
#     Edge 116, Type (0, 0), BuildingBlock: CIFDUS_clean_linker_0, # of connection points: 2
#     Edge 117, Type (0, 0), BuildingBlock: CIFDUS_clean_linker_0, # of connection points: 2
#     Edge 118, Type (0, 0), BuildingBlock: CIFDUS_clean_linker_0, # of connection points: 2
#     Edge 119, Type (0, 0), BuildingBlock: CIFDUS_clean_linker_0, # of connection points: 2
#     Edge 120, Type (0, 0), BuildingBlock: CIFDUS_clean_linker_0, # of connection points: 2
#     Edge 121, Type (0, 0), BuildingBlock: CIFDUS_clean_linker_0, # of connection points: 2
#     Edge 122, Type (0, 0), BuildingBlock: CIFDUS_clean_linker_0, # of connection points: 2
#     Edge 123, Type (0, 0), BuildingBlock: CIFDUS_clean_linker_0, # of connection points: 2
#     Edge 124, Type (0, 0), BuildingBlock: CIFDUS_clean_linker_0, # of connection points: 2
#     Edge 125, Type (0, 0), BuildingBlock: CIFDUS_clean_linker_0, # of connection points: 2
#     Edge 126, Type (0, 0), BuildingBlock: CIFDUS_clean_linker_0, # of connection points: 2
#     Edge 127, Type (0, 0), BuildingBlock: CIFDUS_clean_linker_0, # of connection points: 2
#     Edge 128, Type (0, 0), BuildingBlock: CIFDUS_clean_linker_0, # of connection points: 2
#     Edge 129, Type (0, 0), BuildingBlock: CIFDUS_clean_linker_0, # of connection points: 2
#     Edge 130, Type (0, 0), BuildingBlock: CIFDUS_clean_linker_0, # of connection points: 2
#     Edge 131, Type (0, 0), BuildingBlock: CIFDUS_clean_linker_0, # of connection points: 2
#     Edge 132, Type (0, 0), BuildingBlock: CIFDUS_clean_linker_0, # of connection points: 2
#     Edge 133, Type (0, 0), BuildingBlock: CIFDUS_clean_linker_0, # of connection points: 2
#     Edge 134, Type (0, 0), BuildingBlock: CIFDUS_clean_linker_0, # of connection points: 2
#     Edge 135, Type (0, 0), BuildingBlock: CIFDUS_clean_linker_0, # of connection points: 2
#     Edge 136, Type (0, 0), BuildingBlock: CIFDUS_clean_linker_0, # of connection points: 2
#     Edge 137, Type (0, 0), BuildingBlock: CIFDUS_clean_linker_0, # of connection points: 2
#     Edge 138, Type (0, 0), BuildingBlock: CIFDUS_clean_linker_0, # of connection points: 2
#     Edge 139, Type (0, 0), BuildingBlock: CIFDUS_clean_linker_0, # of connection points: 2
#     Edge 140, Type (0, 0), BuildingBlock: CIFDUS_clean_linker_0, # of connection points: 2
#     Edge 141, Type (0, 0), BuildingBlock: CIFDUS_clean_linker_0, # of connection points: 2
#     Edge 142, Type (0, 0), BuildingBlock: CIFDUS_clean_linker_0, # of connection points: 2
#     Edge 143, Type (0, 0), BuildingBlock: CIFDUS_clean_linker_0, # of connection points: 2
#     Edge 144, Type (0, 0), BuildingBlock: CIFDUS_clean_linker_0, # of connection points: 2
#     Edge 145, Type (0, 0), BuildingBlock: CIFDUS_clean_linker_0, # of connection points: 2
#     Edge 146, Type (0, 0), BuildingBlock: CIFDUS_clean_linker_0, # of connection points: 2
#     Edge 147, Type (0, 0), BuildingBlock: CIFDUS_clean_linker_0, # of connection points: 2
#     Edge 148, Type (0, 0), BuildingBlock: CIFDUS_clean_linker_0, # of connection points: 2
#     Edge 149, Type (0, 0), BuildingBlock: CIFDUS_clean_linker_0, # of connection points: 2
#     Edge 150, Type (0, 0), BuildingBlock: CIFDUS_clean_linker_0, # of connection points: 2
#     Edge 151, Type (0, 0), BuildingBlock: CIFDUS_clean_linker_0, # of connection points: 2
#     Edge 152, Type (0, 0), BuildingBlock: CIFDUS_clean_linker_0, # of connection points: 2
#     Edge 153, Type (0, 0), BuildingBlock: CIFDUS_clean_linker_0, # of connection points: 2
#     Edge 154, Type (0, 0), BuildingBlock: CIFDUS_clean_linker_0, # of connection points: 2
#     Edge 155, Type (0, 0), BuildingBlock: CIFDUS_clean_linker_0, # of connection points: 2
#     Edge 156, Type (0, 0), BuildingBlock: CIFDUS_clean_linker_0, # of connection points: 2
#     Edge 157, Type (0, 0), BuildingBlock: CIFDUS_clean_linker_0, # of connection points: 2
#     Edge 158, Type (0, 0), BuildingBlock: CIFDUS_clean_linker_0, # of connection points: 2
#     Edge 159, Type (0, 0), BuildingBlock: CIFDUS_clean_linker_0, # of connection points: 2
#     Edge 160, Type (0, 0), BuildingBlock: CIFDUS_clean_linker_0, # of connection points: 2
#     Edge 161, Type (0, 0), BuildingBlock: CIFDUS_clean_linker_0, # of connection points: 2
#     Edge 162, Type (0, 0), BuildingBlock: CIFDUS_clean_linker_0, # of connection points: 2
#     Edge 163, Type (0, 0), BuildingBlock: CIFDUS_clean_linker_0, # of connection points: 2
#     Edge 164, Type (0, 0), BuildingBlock: CIFDUS_clean_linker_0, # of connection points: 2
#     Edge 165, Type (0, 0), BuildingBlock: CIFDUS_clean_linker_0, # of connection points: 2
#     Edge 166, Type (0, 0), BuildingBlock: CIFDUS_clean_linker_0, # of connection points: 2
#     Edge 167, Type (0, 0), BuildingBlock: CIFDUS_clean_linker_0, # of connection points: 2
# Relax obj value: 0.339
# Max RMSD: 0.237
# Mean RMSD: 0.237
data_MOF--net-fcs--node1-XOMCOT_clean_sbu_1--edge1-CIFDUS_clean_linker_0
_symmetry_space_group_name_H-M    P1
_symmetry_Int_Tables_number       1
_symmetry_cell_setting            triclinic
loop_
_symmetry_equiv_pos_as_xyz
'x, y, z'
_cell_length_a     51.245623
_cell_length_b     51.120666
_cell_length_c     51.183001
_cell_angle_alpha  89.928839
_cell_angle_beta   89.985467
_cell_angle_gamma 90.021413
loop_
_atom_site_label
_atom_site_type_symbol
_atom_site_fract_x
_atom_site_fract_y
_atom_site_fract_z
_atom_type_partial_charge
C0 C 0.06672 0.16154 0.24428 0.0
C1 C 0.08954 0.15464 0.23198 0.0
N2 N 0.09285 0.12871 0.23489 0.0
N3 N 0.05583 0.14011 0.25521 0.0
C4 C 0.07229 0.12035 0.2491 0.0
H5 H 0.05802 0.1808 0.24423 0.0
Co6 Co 0.02269 0.13977 0.27069 0.0
C7 C 0.01744 0.08368 0.28658 0.0
O8 O 0.00966 0.08983 0.31025 0.0
N9 N 0.98925 0.1402 0.28575 0.0
C10 C 0.94733 0.13366 0.29536 0.0
C11 C 0.96837 0.12482 0.28097 0.0
C12 C 0.98033 0.15836 0.30266 0.0
N13 N 0.95493 0.15494 0.30888 0.0
O14 O 0.03874 0.14151 0.305 0.0
H15 H 0.96829 0.10852 0.26751 0.0
H16 H 0.99224 0.17398 0.3103 0.0
O17 O 0.02288 0.10172 0.27027 0.0
C18 C 0.04448 0.16558 0.30863 0.0
O19 O 0.03747 0.18242 0.29052 0.0
N20 N 0.00819 0.14105 0.23741 0.0
C21 C 0.01274 0.15799 0.1862 0.0
C22 C 0.01589 0.13139 0.19238 0.0
C23 C 0.01359 0.12322 0.21833 0.0
C24 C 1.00084 0.16586 0.23115 0.0
C25 C 0.00297 0.17482 0.20549 0.0
H26 H 0.01968 0.10361 0.22323 0.0
H27 H 0.99714 0.17981 0.24658 0.0
H28 H 0.06919 0.10015 0.25448 0.0
H29 H 0.10214 0.16746 0.2208 0.0
H30 H 0.92786 0.12546 0.29533 0.0
H31 H 0.02301 0.11769 0.1779 0.0
H32 H 1.00034 0.19549 0.20166 0.0
C33 C 0.39243 0.68453 0.00773 0.0
C34 C 0.38416 0.66161 0.01905 0.0
N35 N 0.35796 0.6623 0.02077 0.0
N36 N 0.37155 0.69953 1.00203 0.0
C37 C 0.35075 0.68546 0.01035 0.0
H38 H 0.41249 0.6902 0.00446 0.0
Co39 Co 0.37419 0.73317 0.98795 0.0
C40 C 0.32138 0.75581 0.99754 0.0
O41 O 0.33207 0.77766 0.0057 0.0
N42 N 0.37791 0.76774 0.97301 0.0
C43 C 0.38893 0.80966 0.96636 0.0
C44 C 0.38305 0.7909 0.98483 0.0
C45 C 0.38023 0.77353 0.9472 0.0
N46 N 0.38731 0.7986 0.9426 0.0
O47 O 0.37179 0.71815 0.95366 0.0
H48 H 0.38339 0.79408 0.00569 0.0
H49 H 0.37816 0.75936 0.93176 0.0
O50 O 0.336 0.73707 0.98985 0.0
C51 C 0.39514 0.71278 0.94682 0.0
O52 O 0.41411 0.71962 0.96269 0.0
N53 N 0.37988 0.74555 0.02192 0.0
C54 C 0.4026 0.73736 0.07071 0.0
C55 C 0.37547 0.73505 0.06743 0.0
C56 C 0.36438 0.73934 0.04277 0.0
C57 C 0.40581 0.75038 0.02547 0.0
C58 C 0.41749 0.74683 0.04979 0.0
H59 H 0.34419 0.73405 0.03992 0.0
H60 H 0.41814 0.75382 0.00866 0.0
H61 H 0.33075 0.69202 0.00908 0.0
H62 H 0.39647 0.6459 0.02609 0.0
H63 H 0.39456 0.82969 0.97021 0.0
H64 H 0.36333 0.72765 0.0831 0.0
H65 H 0.43852 0.74842 0.05128 0.0
C66 C 0.92758 0.35822 0.26625 0.0
C67 C 0.90595 0.3666 0.25273 0.0
N68 N 0.91081 0.39076 0.2434 0.0
N69 N 0.94607 0.37693 0.26532 0.0
C70 C 0.93514 0.39672 0.25153 0.0
H71 H 0.9303 0.33906 0.27479 0.0
Co72 Co 0.98048 0.37123 0.27548 0.0
C73 C 0.00917 0.41964 0.26142 0.0
O74 O 0.02873 0.40517 0.25337 0.0
N75 N 0.01587 0.36468 0.28625 0.0
C76 C 0.05629 0.34868 0.28995 0.0
C77 C 0.03547 0.35242 0.2734 0.0
C78 C 0.02591 0.36876 0.31041 0.0
N79 N 0.05012 0.3587 0.31343 0.0
O80 O 0.97018 0.377 0.31116 0.0
H81 H 0.03489 0.34598 0.25334 0.0
H82 H 0.01511 0.37771 0.32614 0.0
O83 O 0.98849 0.40873 0.27027 0.0
C84 C 0.96746 0.35456 0.32189 0.0
O85 O 0.97334 0.33356 0.30836 0.0
N86 N 0.98779 0.36182 0.24108 0.0
C87 C 0.97408 0.33669 0.19494 0.0
C88 C 0.97754 0.36397 0.19535 0.0
C89 C 0.98432 0.37634 0.2189 0.0
C90 C 0.98653 0.33522 0.24022 0.0
C91 C 0.98007 0.32226 0.21733 0.0
H92 H 0.9838 0.39743 0.21982 0.0
H93 H 0.98804 0.32408 0.25813 0.0
H94 H 0.94548 0.41421 0.24565 0.0
H95 H 0.88842 0.35535 0.24907 0.0
H96 H 0.07424 0.33864 0.28515 0.0
H97 H 0.97267 0.37573 0.17843 0.0
H98 H 0.97761 0.3012 0.21773 0.0
C99 C 0.6066 0.81364 0.0194 0.0
C100 C 0.61464 0.8332 0.03584 0.0
N101 N 0.64092 0.83297 0.03682 0.0
N102 N 0.62763 0.80105 0.00979 0.0
C103 C 0.64836 0.81355 0.02049 0.0
H104 H 0.58659 0.80781 0.01605 0.0
Co105 Co 0.62509 0.76942 0.99119 0.0
C106 C 0.67757 0.74875 0.00967 0.0
O107 O 0.6679 0.73237 0.02688 0.0
N108 N 0.62213 0.73793 0.97209 0.0
C109 C 0.62294 0.6967 0.95781 0.0
C110 C 0.62966 0.71328 0.97801 0.0
C111 C 0.61069 0.73566 0.94842 0.0
N112 N 0.61119 0.71099 0.93913 0.0
O113 O 0.63214 0.78792 0.95912 0.0
H114 H 0.63908 0.70749 0.99595 0.0
H115 H 0.60165 0.75173 0.93818 0.0
O116 O 0.66259 0.76302 0.99566 0.0
C117 C 0.61182 0.80039 0.95182 0.0
O118 O 0.59082 0.79898 0.96648 0.0
N119 N 0.61473 0.75255 0.02244 0.0
C120 C 0.57996 0.7574 0.0638 0.0
C121 C 0.60657 0.76263 0.06753 0.0
C122 C 0.62381 0.75991 0.0465 0.0
C123 C 0.5899 0.74318 0.02001 0.0
C124 C 0.57222 0.74522 0.04058 0.0
H125 H 0.64309 0.76817 0.04858 0.0
H126 H 0.58226 0.73813 1.00101 0.0
H127 H 0.66836 0.80731 0.01799 0.0
H128 H 0.602 0.84601 0.04691 0.0
H129 H 0.6268 0.67591 0.95676 0.0
H130 H 0.61334 0.77216 0.08516 0.0
H131 H 0.55188 0.74058 0.0371 0.0
C132 C 0.07866 0.86886 0.25496 0.0
C133 C 0.10124 0.87919 0.26506 0.0
N134 N 0.09911 0.90541 0.26472 0.0
N135 N 0.06252 0.8885 0.24799 0.0
C136 C 0.07555 0.91064 0.25425 0.0
H137 H 0.07395 0.84829 0.25355 0.0
Co138 Co 0.0289 0.88338 0.23491 0.0
C139 C 1.00226 0.93042 0.256 0.0
O140 O 0.98407 0.91489 0.2654 0.0
N141 N 0.99548 0.87741 0.22053 0.0
C142 C 0.96005 0.88164 0.19558 0.0
C143 C 0.97724 0.89442 0.21178 0.0
C144 C 0.98918 0.85465 0.20863 0.0
N145 N 0.9678 0.85662 0.19331 0.0
O146 O 0.04127 0.8907 0.20004 0.0
H147 H 0.97784 0.91537 0.21412 0.0
H148 H 1.00149 0.83751 0.20933 0.0
O149 O 0.02065 0.92073 0.24204 0.0
C150 C 0.05149 0.86938 0.19189 0.0
O151 O 0.05162 0.8491 0.20767 0.0
N152 N 0.01841 0.8728 0.26884 0.0
C153 C 0.0252 0.84615 0.31593 0.0
C154 C 0.02932 0.87319 0.31456 0.0
C155 C 0.02608 0.88614 0.29074 0.0
C156 C 0.01168 0.84704 0.27072 0.0
C157 C 0.01475 0.83339 0.29412 0.0
H158 H 0.03295 0.90605 0.28939 0.0
H159 H 0.00702 0.83598 0.2535 0.0
H160 H 0.06789 0.93018 0.25161 0.0
H161 H 0.11758 0.86832 0.27292 0.0
H162 H 0.94487 0.89081 0.18407 0.0
H163 H 0.03784 0.88368 0.33084 0.0
H164 H 0.01137 0.81247 0.29443 0.0
C165 C 0.10139 0.68468 1.00278 0.0
C166 C 0.11017 0.66386 0.98837 0.0
N167 N 0.13557 0.66772 0.98291 0.0
N168 N 0.12111 0.70173 0.00651 0.0
C169 C 0.14188 0.69066 0.9944 0.0
H170 H 0.08141 0.68797 0.00864 0.0
Co171 Co 0.1154 0.73544 0.01949 0.0
C172 C 0.16591 0.76344 0.01507 0.0
O173 O 0.15293 0.78457 0.00853 0.0
N174 N 0.10835 0.76982 0.03303 0.0
C175 C 0.09385 0.81072 0.03837 0.0
C176 C 0.09826 0.79098 0.02068 0.0
C177 C 0.11001 0.77763 0.05831 0.0
N178 N 0.10107 0.80227 0.06219 0.0
O179 O 0.11624 0.72136 0.05443 0.0
H180 H 0.09418 0.79237 1.00004 0.0
H181 H 0.11676 0.7651 0.07391 0.0
O182 O 0.15352 0.74219 0.01983 0.0
C183 C 0.09263 0.71578 0.06015 0.0
O184 O 0.07419 0.72315 0.04388 0.0
N185 N 0.11124 0.74659 0.98489 0.0
C186 C 0.09461 0.73391 0.93466 0.0
C187 C 0.12129 0.73744 0.94004 0.0
C188 C 0.12929 0.74386 0.96542 0.0
C189 C 0.08526 0.74608 0.97923 0.0
C190 C 0.07651 0.74011 0.9542 0.0
H191 H 0.14985 0.74301 0.96984 0.0
H192 H 0.0712 0.74703 0.99496 0.0
H193 H 0.1606 0.70015 0.99213 0.0
H194 H 0.09847 0.64763 0.9815 0.0
H195 H 0.08575 0.82976 0.03394 0.0
H196 H 0.13591 0.7329 0.92546 0.0
H197 H 0.05578 0.73729 0.95119 0.0
C198 C 0.93479 0.64553 0.25146 0.0
C199 C 0.91269 0.63611 0.26341 0.0
N200 N 0.91493 0.60997 0.26542 0.0
N201 N 0.95075 0.62538 0.24558 0.0
C202 C 0.93806 0.60394 0.25443 0.0
H203 H 0.9396 0.66593 0.24872 0.0
Co204 Co 0.98484 0.6294 0.2333 0.0
C205 C 0.00786 0.57585 0.24502 0.0
O206 O 0.02902 0.58572 0.25551 0.0
N207 N 0.01957 0.63472 0.22072 0.0
C208 C 0.06208 0.64421 0.21812 0.0
C209 C 0.04226 0.63578 0.23422 0.0
C210 C 0.02637 0.64292 0.19646 0.0
N211 N 0.05202 0.64882 0.1943 0.0
O212 O 0.9723 0.62493 0.19799 0.0
H213 H 0.04431 0.63212 0.25491 0.0
H214 H 0.01256 0.64617 0.18092 0.0
O215 O 0.99024 0.59116 0.23607 0.0
C216 C 0.96138 0.64572 0.18953 0.0
O217 O 0.96184 0.66674 0.20424 0.0
N218 N 0.99504 0.63628 0.26778 0.0
C219 C 0.98706 0.65875 0.31672 0.0
C220 C 0.98508 0.63154 0.31334 0.0
C221 C 0.98917 0.62061 0.28861 0.0
C222 C 0.99953 0.66232 0.27131 0.0
C223 C 0.99595 0.67393 0.2957 0.0
H224 H 0.98442 0.60025 0.28577 0.0
H225 H 0.003 0.67469 0.2545 0.0
H226 H 0.94601 0.58441 0.25408 0.0
H227 H 0.89694 0.64771 0.27142 0.0
H228 H 0.08215 0.64745 0.22383 0.0
H229 H 0.97826 0.61914 0.3291 0.0
H230 H 0.99736 0.69501 0.29727 0.0
C231 C 0.90332 0.82328 0.01643 0.0
C232 C 0.89597 0.84703 0.00633 0.0
N233 N 0.87061 0.84565 0.99947 0.0
N234 N 0.88273 0.80693 0.01616 0.0
C235 C 0.86299 0.8211 0.0057 0.0
H236 H 0.92272 0.81793 0.02277 0.0
Co237 Co 0.88568 0.77189 0.02539 0.0
C238 C 0.83297 0.75004 0.01685 0.0
O239 O 0.84297 0.73036 0.00378 0.0
N240 N 0.88953 0.7359 0.03527 0.0
C241 C 0.90288 0.69435 0.03791 0.0
C242 C 0.89877 0.71531 0.02145 0.0
C243 C 0.88728 0.72631 0.05987 0.0
N244 N 0.89588 0.70143 0.06222 0.0
O245 O 0.8851 0.78226 0.06134 0.0
H246 H 0.90335 0.71546 1.00087 0.0
H247 H 0.88101 0.73786 0.07636 0.0
O248 O 0.84774 0.76803 0.02584 0.0
C249 C 0.90804 0.78393 0.07082 0.0
O250 O 0.92781 0.77646 0.05626 0.0
N251 N 0.88926 0.76421 0.98983 0.0
C252 C 0.90725 0.77846 0.94039 0.0
C253 C 0.88035 0.77712 0.94563 0.0
C254 C 0.8717 0.77024 0.97064 0.0
C255 C 0.91523 0.76295 0.98426 0.0
C256 C 0.92464 0.76972 0.95964 0.0
H257 H 0.85135 0.77314 0.9751 0.0
H258 H 0.92902 0.75968 0.99993 0.0
H259 H 0.8436 0.81348 1.00224 0.0
H260 H 0.90859 0.86376 0.00339 0.0
H261 H 0.91129 0.67571 0.03251 0.0
H262 H 0.86621 0.78364 0.93131 0.0
H263 H 0.94555 0.77088 0.95682 0.0
C264 C 0.27346 0.07446 0.14739 0.0
C265 C 0.26541 0.09808 0.13726 0.0
N266 N 0.25458 0.09377 0.11364 0.0
N267 N 0.26791 0.05533 0.1302 0.0
C268 C 0.25633 0.0677 0.10991 0.0
H269 H 0.28241 0.07135 0.16627 0.0
Co270 Co 0.27386 0.01974 0.13541 0.0
C271 C 0.26077 0.99547 0.08379 0.0
O272 O 0.2522 0.97396 0.09493 0.0
N273 N 0.2803 0.98314 0.14126 0.0
C274 C 0.27895 0.94256 0.1576 0.0
C275 C 0.26489 0.96506 0.15298 0.0
C276 C 0.30338 0.9705 0.13825 0.0
N277 N 0.30331 0.9461 0.14852 0.0
O278 O 0.31045 0.02618 0.13102 0.0
H279 H 0.24488 0.96801 0.15885 0.0
H280 H 0.32064 0.97951 0.13012 0.0
O281 O 0.26966 0.01402 0.0979 0.0
C282 C 0.32128 0.02786 0.15341 0.0
O283 O 0.30715 0.02264 0.17422 0.0
N284 N 0.2384 0.016 0.14283 0.0
C285 C 0.19106 0.03188 0.16415 0.0
C286 C 0.1934 0.02782 0.13712 0.0
C287 C 0.21753 0.02002 0.12669 0.0
C288 C 0.23569 0.01802 0.16922 0.0
C289 C 0.21216 0.02568 0.18031 0.0
H290 H 0.2199 0.01993 0.10575 0.0
H291 H 0.25265 0.0159 0.18161 0.0
H292 H 0.24906 0.05779 0.09278 0.0
H293 H 0.26682 0.11686 0.1469 0.0
H294 H 0.27198 0.92528 0.16767 0.0
H295 H 0.17756 0.03293 0.12407 0.0
H296 H 0.21109 0.02875 0.20123 0.0
C297 C 0.31051 0.50979 0.11074 0.0
C298 C 0.33133 0.52238 0.12203 0.0
N299 N 0.32987 0.51895 0.14809 0.0
N300 N 0.29582 0.49867 0.12959 0.0
C301 C 0.30839 0.50422 0.15213 0.0
H302 H 0.30559 0.50992 0.09019 0.0
Co303 Co 0.26289 0.48414 0.12383 0.0
C304 C 0.23458 0.49173 0.174 0.0
O305 O 0.21339 0.49816 0.16116 0.0
N306 N 0.22923 0.46885 0.11724 0.0
C307 C 0.18808 0.46111 0.10479 0.0
C308 C 0.20662 0.48007 0.10925 0.0
C309 C 0.22346 0.44296 0.11769 0.0
N310 N 0.19877 0.43768 0.11003 0.0
O311 O 0.27807 0.4499 0.12712 0.0
H312 H 0.2034 0.5008 0.10676 0.0
H313 H 0.23735 0.4279 0.12262 0.0
O314 O 0.25539 0.4858 0.16155 0.0
C315 C 0.2866 0.44404 0.10442 0.0
O316 O 0.28291 0.46098 0.08543 0.0
N317 N 0.25051 0.51798 0.11739 0.0
C318 C 0.26112 0.56654 0.09531 0.0
C319 C 0.26048 0.56359 0.12258 0.0
C320 C 0.25506 0.53892 0.13337 0.0
C321 C 0.24819 0.52141 0.09108 0.0
C322 C 0.25299 0.54563 0.07968 0.0
H323 H 0.2584 0.53602 0.15401 0.0
H324 H 0.24604 0.50455 0.07852 0.0
H325 H 0.30123 0.49893 0.17127 0.0
H326 H 0.34601 0.53378 0.11192 0.0
H327 H 0.16834 0.46438 0.09805 0.0
H328 H 0.26704 0.57924 0.13522 0.0
H329 H 0.25329 0.54718 0.05856 0.0
C330 C 0.7655 0.43116 0.13699 0.0
C331 C 0.77783 0.41167 0.12325 0.0
N332 N 0.77155 0.41429 0.09785 0.0
N333 N 0.7518 0.44627 0.12026 0.0
C334 C 0.75547 0.43515 0.09655 0.0
H335 H 0.76771 0.43513 0.15763 0.0
Co336 Co 0.73671 0.47845 0.1293 0.0
C337 C 0.74979 0.50626 0.07861 0.0
O338 O 0.76689 0.52219 0.08913 0.0
N339 N 0.721 0.51087 0.13858 0.0
C340 C 0.7111 0.55301 0.14469 0.0
C341 C 0.73022 0.53563 0.13694 0.0
C342 C 0.69646 0.5139 0.14786 0.0
N343 N 0.68973 0.53922 0.1513 0.0
O344 O 0.70262 0.46354 0.12378 0.0
H345 H 0.74959 0.54092 0.13058 0.0
H346 H 0.68354 0.49782 0.15218 0.0
O347 O 0.73769 0.48948 0.09264 0.0
C348 C 0.69623 0.44773 0.14203 0.0
O349 O 0.71317 0.44318 0.16075 0.0
N350 N 0.7704 0.49116 0.13738 0.0
C351 C 0.81845 0.4845 0.162 0.0
C352 C 0.81618 0.48132 0.13489 0.0
C353 C 0.79195 0.48495 0.12284 0.0
C354 C 0.77301 0.49697 0.16327 0.0
C355 C 0.79699 0.49413 0.1759 0.0
H356 H 0.7899 0.47901 0.1027 0.0
H357 H 0.75584 0.50055 0.17501 0.0
H358 H 0.74801 0.44313 0.07844 0.0
H359 H 0.79109 0.3972 0.13116 0.0
H360 H 0.71261 0.57413 0.14473 0.0
H361 H 0.8323 0.47363 0.12357 0.0
H362 H 0.79787 0.49639 0.19693 0.0
C363 C 0.67829 0.00782 0.11534 0.0
C364 C 0.65628 0.99644 0.12582 0.0
N365 N 0.662 0.98825 0.15015 0.0
N366 N 0.69772 0.00708 0.13311 0.0
C367 C 0.68714 0.99491 0.15409 0.0
H368 H 0.68008 0.01574 0.09584 0.0
Co369 Co 0.73175 0.01931 0.12802 0.0
C370 C 0.75677 0.01281 0.18027 0.0
O371 O 0.77909 0.00647 0.16936 0.0
N372 N 0.76657 0.03236 0.12233 0.0
C373 C 0.80572 0.03962 0.10444 0.0
C374 C 0.78742 0.0209 0.11082 0.0
C375 C 0.77368 0.05786 0.12395 0.0
N376 N 0.79677 0.06311 0.11219 0.0
O377 O 0.71864 0.05454 0.12952 0.0
H378 H 0.78895 1.00048 0.10575 0.0
H379 H 0.76146 0.07274 0.13247 0.0
O380 O 0.73724 0.01855 0.16586 0.0
C381 C 0.7149 0.06166 0.10588 0.0
O382 O 0.72122 0.04515 0.08725 0.0
N383 N 0.74226 0.98464 0.123 0.0
C384 C 0.73579 0.93411 0.1036 0.0
C385 C 0.73638 0.93866 0.13068 0.0
C386 C 0.73983 0.96422 0.14009 0.0
C387 C 0.74319 0.98018 0.09678 0.0
C388 C 0.74064 0.95508 0.0867 0.0
H389 H 0.73765 0.96768 0.16076 0.0
H390 H 0.74365 0.99658 0.08342 0.0
H391 H 0.69762 0.99075 0.17193 0.0
H392 H 0.63774 0.99375 0.11605 0.0
H393 H 0.82321 0.03629 0.09309 0.0
H394 H 0.73233 0.92297 0.14434 0.0
H395 H 0.73969 0.95262 0.0657 0.0
C396 C 0.24849 0.95073 0.35747 0.0
C397 C 0.2372 0.92756 0.36495 0.0
N398 N 0.2348 0.92762 0.39113 0.0
N399 N 0.25351 0.96528 0.37883 0.0
C400 C 0.24479 0.95071 0.39916 0.0
H401 H 0.25255 0.95677 0.33763 0.0
Co402 Co 0.26836 0.99851 0.37663 0.0
C403 C 0.25747 0.02306 0.42755 0.0
O404 O 0.24961 0.04384 0.41473 0.0
N405 N 0.28429 0.03268 0.37334 0.0
C406 C 0.29313 0.07407 0.36195 0.0
C407 C 0.27371 0.05594 0.36625 0.0
C408 C 0.31027 0.03782 0.37386 0.0
N409 N 0.31624 0.06251 0.3665 0.0
O410 O 0.30217 0.98254 0.3799 0.0
H411 H 0.25315 0.05972 0.3636 0.0
H412 H 0.32497 0.02336 0.37814 0.0
O413 O 0.26532 1.00297 0.41488 0.0
C414 C 0.31001 0.97833 0.35657 0.0
O415 O 0.2952 0.9865 0.33724 0.0
N416 N 0.23504 0.01171 0.36977 0.0
C417 C 0.18774 0.00366 0.34451 0.0
C418 C 0.18932 1.00162 0.37182 0.0
C419 C 0.21337 0.00575 0.38422 0.0
C420 C 0.23293 0.01656 0.34367 0.0
C421 C 0.20933 0.01323 0.33076 0.0
H422 H 0.21519 1.00031 0.40453 0.0
H423 H 0.25034 0.01971 0.33215 0.0
H424 H 0.24585 0.9567 0.41939 0.0
H425 H 0.23093 0.91193 0.35214 0.0
H426 H 0.29039 0.09396 0.35525 0.0
H427 H 0.17314 0.99385 0.38302 0.0
H428 H 0.20883 0.01499 0.30966 0.0
C429 C 0.17933 0.50035 0.90048 0.0
C430 C 0.15631 0.51053 0.89124 0.0
N431 N 0.1584 0.51327 0.86518 0.0
N432 N 0.19576 0.49635 0.88029 0.0
C433 C 0.18244 0.50451 0.85896 0.0
H434 H 0.18409 0.4969 0.92076 0.0
Co435 Co 0.23003 0.48477 0.88425 0.0
C436 C 0.25312 0.49716 0.83225 0.0
O437 O 0.27202 0.51059 0.84319 0.0
N438 N 0.26514 0.47245 0.88878 0.0
C439 C 0.30758 0.46809 0.89831 0.0
C440 C 0.28742 0.48557 0.89448 0.0
C441 C 0.27278 0.44705 0.88866 0.0
N442 N 0.29824 0.44382 0.8946 0.0
O443 O 0.21759 0.44936 0.88127 0.0
H444 H 0.28918 0.50656 0.89609 0.0
H445 H 0.25985 0.43079 0.88511 0.0
O446 O 0.23556 0.48638 0.84637 0.0
C447 C 0.21056 0.44123 0.90378 0.0
O448 O 0.21439 0.45658 0.92399 0.0
N449 N 0.23971 0.51976 0.89023 0.0
C450 C 0.23086 0.56915 0.91177 0.0
C451 C 0.22848 0.56508 0.88475 0.0
C452 C 0.23288 0.54017 0.87433 0.0
C453 C 0.24398 0.52393 0.9162 0.0
C454 C 0.24012 0.54855 0.92729 0.0
H455 H 0.22762 0.53683 0.8542 0.0
H456 H 0.24773 0.50744 0.92891 0.0
H457 H 0.19025 0.50454 0.83932 0.0
H458 H 0.13964 0.51634 0.90286 0.0
H459 H 0.32749 0.47287 0.90351 0.0
H460 H 0.22113 0.58042 0.87213 0.0
H461 H 0.24166 0.55063 0.9483 0.0
C462 C 0.73076 0.57912 0.37105 0.0
C463 C 0.74127 0.60045 0.38369 0.0
N464 N 0.74762 0.59318 0.40818 0.0
N465 N 0.73034 0.55854 0.38755 0.0
C466 C 0.74043 0.56789 0.41013 0.0
H467 H 0.72528 0.57827 0.35068 0.0
Co468 Co 0.72249 0.52395 0.37839 0.0
C469 C 0.74501 0.49863 0.42676 0.0
O470 O 0.76405 0.48692 0.41428 0.0
N471 N 0.71443 0.48855 0.36917 0.0
C472 C 0.71765 0.44638 0.35801 0.0
C473 C 0.73088 0.46789 0.3673 0.0
C474 C 0.69124 0.47871 0.36116 0.0
N475 N 0.69265 0.45327 0.3542 0.0
O476 O 0.68636 0.53104 0.38598 0.0
H477 H 0.75156 0.46847 0.3712 0.0
H478 H 0.67362 0.49004 0.35938 0.0
O479 O 0.72844 0.51273 0.41452 0.0
C480 C 0.67661 0.53976 0.3647 0.0
O481 O 0.69118 0.53961 0.34357 0.0
N482 N 0.7572 0.51982 0.36736 0.0
C483 C 0.80054 0.53513 0.33841 0.0
C484 C 0.80113 0.53622 0.36577 0.0
C485 C 0.77901 0.52867 0.38 0.0
C486 C 0.7574 0.51665 0.34091 0.0
C487 C 0.77896 0.52387 0.3261 0.0
H488 H 0.7786 0.53267 0.40069 0.0
H489 H 0.73968 0.51119 0.33083 0.0
H490 H 0.74394 0.55611 0.42731 0.0
H491 H 0.74557 0.61928 0.375 0.0
H492 H 0.7259 0.42732 0.35399 0.0
H493 H 0.81735 0.54532 0.37583 0.0
H494 H 0.77778 0.52299 0.30498 0.0
C495 C 0.83221 0.02202 0.88913 0.0
C496 C 0.8534 0.0108 0.87691 0.0
N497 N 0.84501 0.99899 0.85494 0.0
N498 N 0.8106 0.01749 0.87482 0.0
C499 C 0.81909 1.00345 0.85411 0.0
H500 H 0.83247 0.03234 0.90755 0.0
Co501 Co 0.77656 0.02716 0.8836 0.0
C502 C 0.74485 0.01447 0.8364 0.0
O503 O 0.72518 0.00723 0.85117 0.0
N504 N 0.74161 0.03752 0.89285 0.0
C505 C 0.70181 0.04057 0.91057 0.0
C506 C 0.72278 0.02437 0.90604 0.0
C507 C 0.73095 0.06153 0.88909 0.0
N508 N 0.70706 0.06409 0.90003 0.0
O509 O 0.78588 0.06309 0.87735 0.0
H510 H 0.72387 0.00424 0.91231 0.0
H511 H 0.74092 0.07738 0.87935 0.0
O512 O 0.76603 0.02241 0.84693 0.0
C513 C 0.7909 0.0734 0.89952 0.0
O514 O 0.78777 0.05923 0.92071 0.0
N515 N 0.77021 0.99241 0.89314 0.0
C516 C 0.7835 0.94531 0.91734 0.0
C517 C 0.77912 0.94633 0.89019 0.0
C518 C 0.77233 0.97026 0.87835 0.0
C519 C 0.77254 0.99114 0.9196 0.0
C520 C 0.7783 0.96776 0.93211 0.0
H521 H 0.77147 0.97138 0.8573 0.0
H522 H 0.7718 0.00893 0.93098 0.0
H523 H 0.80652 0.99622 0.83882 0.0
H524 H 0.87327 0.0106 0.88409 0.0
H525 H 0.68423 0.03544 0.9211 0.0
H526 H 0.78301 0.92948 0.87801 0.0
H527 H 0.78073 0.96784 0.95314 0.0
C528 C 0.1498 0.23952 0.07143 0.0
C529 C 0.14094 0.22467 0.09192 0.0
N530 N 0.11474 0.22301 0.09024 0.0
N531 N 0.12936 0.24748 0.0569 0.0
C532 C 0.10817 0.23732 0.06903 0.0
H533 H 0.17004 0.24293 0.06653 0.0
Co534 Co 0.13323 0.26342 0.02422 0.0
C535 C 0.08214 0.24815 0.99918 0.0
O536 O 0.09363 0.23734 0.97899 0.0
N537 N 0.13801 0.27996 0.99103 0.0
C538 C 0.14588 0.28908 0.94898 0.0
C539 C 0.14007 0.26961 0.96677 0.0
C540 C 0.14288 0.30572 0.9872 0.0
N541 N 0.14757 0.31187 0.96196 0.0
O542 O 0.12598 0.29682 0.04004 0.0
H543 H 0.13849 0.24905 0.96218 0.0
H544 H 0.1442 0.31984 1.00272 0.0
O545 O 0.09588 0.2586 0.01722 0.0
C546 C 0.14602 0.30523 0.05223 0.0
O547 O 0.16745 0.29117 0.05159 0.0
N548 N 0.14298 0.23067 0.01082 0.0
C549 C 0.17074 0.18463 0.01936 0.0
C550 C 0.14336 0.18477 0.02073 0.0
C551 C 0.12974 0.20809 0.01632 0.0
C552 C 0.16915 0.23001 0.00611 0.0
C553 C 0.18338 0.20709 0.00998 0.0
H554 H 0.10928 0.20863 0.02127 0.0
H555 H 0.17962 0.24809 1.00278 0.0
H556 H 0.08853 0.2387 0.06142 0.0
H557 H 0.15302 0.21511 0.1064 0.0
H558 H 0.14895 0.28653 0.92822 0.0
H559 H 0.13278 0.16796 0.02809 0.0
H560 H 0.20444 0.20773 0.0082 0.0
C561 C 0.15096 0.74751 0.4303 0.0
C562 C 0.14202 0.75639 0.40654 0.0
N563 N 0.11712 0.76425 0.40957 0.0
N564 N 0.1317 0.74951 0.44813 0.0
C565 C 0.1114 0.75995 0.43491 0.0
H566 H 0.17036 0.74027 0.43436 0.0
Co567 Co 0.13443 0.74003 0.48312 0.0
C568 C 0.08069 0.74699 0.50514 0.0
O569 O 0.09012 0.75377 0.528 0.0
N570 N 0.13803 0.7298 0.51909 0.0
C571 C 0.15087 0.72737 0.56082 0.0
C572 C 0.14642 0.74382 0.53993 0.0
C573 C 0.13669 0.70501 0.52846 0.0
N574 N 0.14492 0.70286 0.55344 0.0
O575 O 0.13267 0.70416 0.47253 0.0
H576 H 0.15005 0.76461 0.54006 0.0
H577 H 0.13129 0.6883 0.51678 0.0
O578 O 0.09627 0.74147 0.48645 0.0
C579 C 0.15586 0.69539 0.47021 0.0
O580 O 0.17529 0.71061 0.47727 0.0
N581 N 0.13934 0.77529 0.49115 0.0
C582 C 0.1598 0.82451 0.47996 0.0
C583 C 0.13265 0.82054 0.48035 0.0
C584 C 0.12269 0.79553 0.48599 0.0
C585 C 0.1655 0.77956 0.49305 0.0
C586 C 0.17608 0.80407 0.48805 0.0
H587 H 0.10211 0.79197 0.48324 0.0
H588 H 0.1785 0.76315 0.496 0.0
H589 H 0.09277 0.76449 0.44362 0.0
H590 H 0.15314 0.75749 0.38859 0.0
H591 H 0.15869 0.73294 0.57964 0.0
H592 H 0.11948 0.83581 0.4739 0.0
H593 H 0.1971 0.80637 0.48817 0.0
C594 C 0.00303 0.61137 0.81644 0.0
C595 C 0.01492 0.62318 0.83743 0.0
N596 N 0.01333 0.64928 0.83421 0.0
N597 N 0.99418 0.62993 0.79993 0.0
C598 C 1.00034 0.65288 0.81157 0.0
H599 H 0.00256 0.5906 0.8125 0.0
Co600 Co 0.98346 0.62293 0.76575 0.0
C601 C 0.99506 0.67335 0.73796 0.0
O602 O 0.00566 0.66112 0.71814 0.0
N603 N 0.97238 0.61497 0.73064 0.0
C604 C 0.97136 0.60175 0.68897 0.0
C605 C 0.98699 0.61025 0.70907 0.0
C606 C 0.9478 0.60927 0.72264 0.0
N607 N 0.9466 0.60091 0.69761 0.0
O608 O 0.94762 0.62674 0.77667 0.0
H609 H 0.00798 0.61199 0.70793 0.0
H610 H 0.931 0.60998 0.73521 0.0
O611 O 0.98587 0.66048 0.75731 0.0
C612 C 0.94 0.60438 0.78488 0.0
O613 O 0.95662 0.58483 0.78416 0.0
N614 N 0.01831 0.61601 0.75743 0.0
C615 C 0.06595 0.593 0.76956 0.0
C616 C 0.06327 0.62035 0.76989 0.0
C617 C 0.03906 0.63161 0.76367 0.0
C618 C 0.02151 0.58971 0.75456 0.0
C619 C 0.0453 0.57789 0.75996 0.0
H620 H 0.03622 0.65225 0.76723 0.0
H621 H 0.00472 0.57743 0.75091 0.0
H622 H 0.99732 0.67185 0.80275 0.0
H623 H 0.02494 0.61335 0.85326 0.0
H624 H 0.97794 0.59601 0.66973 0.0
H625 H 0.07872 0.63262 0.77752 0.0
H626 H 0.04666 0.55675 0.75928 0.0
C627 C 0.85774 0.74689 0.43601 0.0
C628 C 0.86548 0.73166 0.41538 0.0
N629 N 0.89165 0.72928 0.41613 0.0
N630 N 0.87888 0.75428 0.44985 0.0
C631 C 0.89937 0.74356 0.43699 0.0
H632 H 0.83778 0.75092 0.44156 0.0
Co633 Co 0.87639 0.77084 0.48255 0.0
C634 C 0.92416 0.74981 0.5081 0.0
O635 O 0.90945 0.73994 0.52671 0.0
N636 N 0.87318 0.7887 0.51502 0.0
C637 C 0.88019 0.81305 0.55053 0.0
C638 C 0.8912 0.796 0.53292 0.0
C639 C 0.85173 0.80258 0.52183 0.0
N640 N 0.85528 0.81731 0.54349 0.0
O641 O 0.88506 0.80381 0.46661 0.0
H642 H 0.91171 0.79152 0.5323 0.0
H643 H 0.83412 0.80278 0.51022 0.0
O644 O 0.91356 0.76286 0.48955 0.0
C645 C 0.86389 0.81248 0.45665 0.0
O646 O 0.84267 0.79825 0.45894 0.0
N647 N 0.86421 0.73867 0.49693 0.0
C648 C 0.83038 0.69673 0.48901 0.0
C649 C 0.8572 0.69388 0.48426 0.0
C650 C 0.87398 0.71509 0.48877 0.0
C651 C 0.83905 0.74003 0.50558 0.0
C652 C 0.82192 0.71918 0.50212 0.0
H653 H 0.8938 0.71369 0.48172 0.0
H654 H 0.83074 0.75828 0.51162 0.0
H655 H 0.9193 0.74448 0.44383 0.0
H656 H 0.85266 0.72227 0.40144 0.0
H657 H 0.89046 0.82318 0.56598 0.0
H658 H 0.86466 0.67677 0.47429 0.0
H659 H 0.80148 0.7219 0.50679 0.0
C660 C 0.5104 0.38755 0.32327 0.0
C661 C 0.49965 0.37539 0.3447 0.0
N662 N 0.49249 0.35109 0.33766 0.0
N663 N 0.51039 0.37088 0.30286 0.0
C664 C 0.49909 0.34884 0.31225 0.0
H665 H 0.51729 0.4075 0.32256 0.0
Co666 Co 0.52262 0.3791 0.26938 0.0
C667 C 0.52034 0.32977 0.23891 0.0
O668 O 0.5146 0.34316 0.21779 0.0
N669 N 0.53554 0.38824 0.23545 0.0
C670 C 0.54113 0.40484 0.19544 0.0
C671 C 0.52342 0.40005 0.21509 0.0
C672 C 0.56057 0.38583 0.22725 0.0
N673 N 0.56462 0.39603 0.20318 0.0
O674 O 0.55757 0.37843 0.28291 0.0
H675 H 0.50301 0.40512 0.21422 0.0
H676 H 0.57591 0.37756 0.23913 0.0
O677 O 0.52389 0.34163 0.26062 0.0
C678 C 0.56279 0.40205 0.28903 0.0
O679 O 0.54598 0.42037 0.28259 0.0
N680 N 0.48806 0.38292 0.25879 0.0
C681 C 0.43688 0.39814 0.2688 0.0
C682 C 0.44298 0.37165 0.26449 0.0
C683 C 0.46889 0.36436 0.25946 0.0
C684 C 0.482 0.40877 0.26065 0.0
C685 C 0.45655 0.41684 0.26519 0.0
H686 H 0.47368 0.34382 0.25927 0.0
H687 H 0.49749 0.42311 0.26136 0.0
H688 H 0.49546 0.33155 0.30072 0.0
H689 H 0.49658 0.38403 0.36376 0.0
H690 H 0.53696 0.41434 0.17701 0.0
H691 H 0.42836 0.35658 0.26716 0.0
H692 H 0.45308 0.43741 0.26886 0.0
C693 C 0.35781 0.75546 0.57126 0.0
C694 C 0.36737 0.76494 0.59443 0.0
N695 N 0.39359 0.76477 0.59315 0.0
N696 N 0.37789 0.74902 0.5555 0.0
C697 C 0.39957 0.75508 0.56937 0.0
H698 H 0.33745 0.75364 0.56608 0.0
Co699 Co 0.37294 0.73573 0.52193 0.0
C700 C 0.42336 0.74308 0.4948 0.0
O701 O 0.41028 0.75128 0.47434 0.0
N702 N 0.36685 0.72148 0.48756 0.0
C703 C 0.35429 0.71488 0.44621 0.0
C704 C 0.35858 0.73329 0.46533 0.0
C705 C 0.36769 0.69578 0.48093 0.0
N706 N 0.35988 0.69117 0.4561 0.0
O707 O 0.37453 0.70101 0.53645 0.0
H708 H 0.35576 0.75406 0.46275 0.0
H709 H 0.373 0.68038 0.49435 0.0
O710 O 0.41107 0.73635 0.51553 0.0
C711 C 0.35107 0.6956 0.54289 0.0
O712 O 0.33257 0.71214 0.53631 0.0
N713 N 0.36802 0.77019 0.51043 0.0
C714 C 0.34837 0.82017 0.51969 0.0
C715 C 0.37534 0.8154 0.52084 0.0
C716 C 0.38488 0.79019 0.51595 0.0
C717 C 0.34204 0.77508 0.50738 0.0
C718 C 0.33189 0.80003 0.51131 0.0
H719 H 0.40514 0.78621 0.52017 0.0
H720 H 0.32865 0.75893 0.50481 0.0
H721 H 0.41928 0.75236 0.56236 0.0
H722 H 0.35596 0.77184 0.61084 0.0
H723 H 0.34743 0.71875 0.42659 0.0
H724 H 0.38861 0.83042 0.52765 0.0
H725 H 0.31093 0.8027 0.5108 0.0
C726 C 0.01598 0.40904 0.68446 0.0
C727 C 0.03059 0.39938 0.66421 0.0
N728 N 0.02913 0.37306 0.66469 0.0
N729 N 0.00513 0.389 0.69772 0.0
C730 C 0.01319 0.36725 0.68494 0.0
H731 H 0.01477 0.42935 0.69021 0.0
Co732 Co 0.9883 0.39342 0.72997 0.0
C733 C 0.00298 0.33969 0.75097 0.0
O734 O 0.02023 0.3487 0.76761 0.0
N735 N 0.97104 0.39856 0.76225 0.0
C736 C 0.96035 0.40191 0.80435 0.0
C737 C 0.97757 0.39111 0.78673 0.0
C738 C 0.9499 0.41399 0.76568 0.0
N739 N 0.94294 0.41646 0.79104 0.0
O740 O 0.95493 0.38942 0.71266 0.0
H741 H 0.99452 0.37982 0.79189 0.0
H742 H 0.93999 0.42365 0.74981 0.0
O743 O 0.98989 0.35534 0.73645 0.0
C744 C 0.94964 0.41072 0.70066 0.0
O745 O 0.96579 0.43051 0.70319 0.0
N746 N 0.02107 0.40079 0.74529 0.0
C747 C 0.06796 0.4284 0.74494 0.0
C748 C 0.06739 0.4019 0.73797 0.0
C749 C 0.04365 0.38843 0.73811 0.0
C750 C 0.02204 0.42557 0.75516 0.0
C751 C 0.04536 0.43962 0.75544 0.0
H752 H 0.04307 0.36936 0.7291 0.0
H753 H 0.00421 0.43591 0.75962 0.0
H754 H 0.00923 0.34754 0.69154 0.0
H755 H 0.04226 0.41087 0.65081 0.0
H756 H 0.96131 0.4 0.82538 0.0
H757 H 0.08433 0.39259 0.72938 0.0
H758 H 0.04503 0.46005 0.76107 0.0
C759 C 0.01433 0.12378 0.66988 0.0
C760 C 0.00369 0.1364 0.64869 0.0
N761 N 0.00275 0.16212 0.65405 0.0
N762 N 0.02038 0.14149 0.68847 0.0
C763 C 0.01313 0.16478 0.6781 0.0
H764 H 0.01598 0.10282 0.67222 0.0
Co765 Co 0.03204 0.1331 0.72237 0.0
C766 C 0.01112 0.18375 0.74551 0.0
O767 O 0.9907 0.17293 0.7566 0.0
N768 N 0.04438 0.12447 0.75618 0.0
C769 C 0.05109 0.11978 0.79898 0.0
C770 C 0.03663 0.13248 0.78009 0.0
C771 C 0.06341 0.10684 0.76116 0.0
N772 N 0.06793 0.10352 0.78698 0.0
O773 O 0.06737 0.13997 0.71148 0.0
H774 H 0.02112 0.14617 0.78387 0.0
H775 H 0.07378 0.09648 0.74604 0.0
O776 O 0.0277 0.16985 0.73301 0.0
C777 C 0.07484 0.11974 0.6989 0.0
O778 O 0.05872 0.09983 0.69714 0.0
N779 N 0.99767 0.12267 0.7312 0.0
C780 C 0.95404 0.09203 0.72015 0.0
C781 C 0.95367 0.119 0.7152 0.0
C782 C 0.97577 0.13404 0.72087 0.0
C783 C 0.9969 0.09711 0.73895 0.0
C784 C 0.97518 0.08155 0.73391 0.0
H785 H 0.97627 0.15393 0.71377 0.0
H786 H 0.0143 0.08747 0.74589 0.0
H787 H 0.01397 0.18321 0.6884 0.0
H788 H 0.99551 0.12721 0.63149 0.0
H789 H 0.0489 0.12195 0.81989 0.0
H790 H 0.93775 0.12784 0.70444 0.0
H791 H 0.97609 0.06084 0.73833 0.0
C792 C 0.568 0.64598 0.74391 0.0
C793 C 0.58818 0.6345 0.73043 0.0
N794 N 0.58657 0.60842 0.73385 0.0
N795 N 0.55362 0.6272 0.7556 0.0
C796 C 0.5657 0.60456 0.74943 0.0
H797 H 0.56319 0.66657 0.74393 0.0
Co798 Co 0.52117 0.63288 0.77113 0.0
C799 C 0.49387 0.58179 0.76326 0.0
O800 O 0.47257 0.59383 0.75565 0.0
N801 N 0.48803 0.63953 0.78735 0.0
C802 C 0.44758 0.65367 0.79586 0.0
C803 C 0.46467 0.64577 0.77662 0.0
C804 C 0.48404 0.64315 0.81326 0.0
N805 N 0.46 0.65237 0.81896 0.0
O806 O 0.53741 0.6294 0.80479 0.0
H807 H 0.46034 0.64575 0.75596 0.0
H808 H 0.49871 0.63981 0.82796 0.0
O809 O 0.51382 0.5952 0.77 0.0
C810 C 0.54715 0.65159 0.81077 0.0
O811 O 0.54407 0.671 0.79418 0.0
N812 N 0.5077 0.63914 0.73765 0.0
C813 C 0.51604 0.66069 0.68842 0.0
C814 C 0.51685 0.63348 0.69203 0.0
C815 C 0.51231 0.62296 0.71689 0.0
C816 C 0.50427 0.66531 0.7338 0.0
C817 C 0.50788 0.67645 0.70921 0.0
H818 H 0.51647 0.60249 0.71996 0.0
H819 H 0.50212 0.67811 0.75048 0.0
H820 H 0.55841 0.58546 0.75463 0.0
H821 H 0.60242 0.64449 0.7184 0.0
H822 H 0.42812 0.66127 0.79279 0.0
H823 H 0.52336 0.62075 0.67643 0.0
H824 H 0.50749 0.69756 0.70733 0.0
C825 C 0.89313 0.18186 0.49036 0.0
C826 C 0.88661 0.15828 0.50172 0.0
N827 N 0.86073 0.15819 0.50629 0.0
N828 N 0.87143 0.1965 0.48758 0.0
C829 C 0.85198 0.18141 0.49734 0.0
H830 H 0.91258 0.18826 0.48521 0.0
Co831 Co 0.87049 0.23112 0.47512 0.0
C832 C 0.82071 0.24684 0.50192 0.0
O833 O 0.83281 0.265 0.51547 0.0
N834 N 0.86964 0.26616 0.46145 0.0
C835 C 0.85655 0.30466 0.44548 0.0
C836 C 0.84961 0.28337 0.46022 0.0
C837 C 0.88838 0.27762 0.44648 0.0
N838 N 0.88092 0.30102 0.43649 0.0
O839 O 0.86157 0.21813 0.4411 0.0
H840 H 0.83023 0.28045 0.46761 0.0
H841 H 0.90669 0.2683 0.44179 0.0
O842 O 0.83341 0.23329 0.48519 0.0
C843 C 0.88346 0.21417 0.42985 0.0
O844 O 0.90497 0.21936 0.44279 0.0
N845 N 0.883 0.2426 0.50798 0.0
C846 C 0.91828 0.23747 0.5492 0.0
C847 C 0.89236 0.22916 0.55208 0.0
C848 C 0.87499 0.23178 0.53113 0.0
C849 C 0.90723 0.25354 0.50621 0.0
C850 C 0.92508 0.2514 0.52665 0.0
H851 H 0.85635 0.22203 0.53253 0.0
H852 H 0.91429 0.26081 0.48777 0.0
H853 H 0.83179 0.18736 0.49844 0.0
H854 H 0.90001 0.14281 0.50708 0.0
H855 H 0.84397 0.321 0.44085 0.0
H856 H 0.8864 0.21801 0.56909 0.0
H857 H 0.94491 0.25814 0.52369 0.0
C858 C 0.43756 0.85643 0.74906 0.0
C859 C 0.41824 0.86872 0.73502 0.0
N860 N 0.42151 0.89475 0.73749 0.0
N861 N 0.45306 0.87462 0.76016 0.0
C862 C 0.4424 0.89777 0.75321 0.0
H863 H 0.44116 0.8356 0.74964 0.0
Co864 Co 0.4856 0.86758 0.775 0.0
C865 C 0.51655 0.91598 0.76383 0.0
O866 O 0.53658 0.90168 0.75679 0.0
N867 N 0.51888 0.85972 0.79037 0.0
C868 C 0.56007 0.84708 0.79746 0.0
C869 C 0.54128 0.8516 0.77884 0.0
C870 C 0.52492 0.85983 0.81617 0.0
N871 N 0.54974 0.8522 0.82103 0.0
O872 O 0.47083 0.87366 0.80923 0.0
H873 H 0.54427 0.84931 0.75809 0.0
H874 H 0.5112 0.86471 0.83138 0.0
O875 O 0.49544 0.9049 0.77137 0.0
C876 C 0.45865 0.853 0.8163 0.0
O877 O 0.45883 0.83279 0.80045 0.0
N878 N 0.4974 0.85867 0.74148 0.0
C879 C 0.48858 0.83496 0.69331 0.0
C880 C 0.48974 0.86234 0.69532 0.0
C881 C 0.49417 0.87393 0.71976 0.0
C882 C 0.4989 0.83215 0.73924 0.0
C883 C 0.49507 0.81993 0.71528 0.0
H884 H 0.4914 0.89478 0.72162 0.0
H885 H 0.50009 0.82022 0.75667 0.0
H886 H 0.45076 0.91651 0.75799 0.0
H887 H 0.40357 0.85925 0.72313 0.0
H888 H 0.57983 0.84061 0.79379 0.0
H889 H 0.48445 0.87463 0.6789 0.0
H890 H 0.49456 0.79876 0.71453 0.0
C891 C 0.1004 0.32131 0.50911 0.0
C892 C 0.10705 0.34249 0.52408 0.0
N893 N 0.1332 0.34293 0.52668 0.0
N894 N 0.12218 0.3084 0.50193 0.0
C895 C 0.14196 0.3222 0.5128 0.0
H896 H 0.08073 0.31473 0.50523 0.0
Co897 Co 0.12099 0.27504 0.48689 0.0
C898 C 0.17641 0.26365 0.47669 0.0
O899 O 0.17038 0.25678 0.45271 0.0
N900 N 0.11879 0.24157 0.4721 0.0
C901 C 0.12173 0.19896 0.46358 0.0
C902 C 0.12885 0.21868 0.48059 0.0
C903 C 0.10552 0.23524 0.45021 0.0
N904 N 0.10716 0.20953 0.44437 0.0
O905 O 0.12665 0.29003 0.45278 0.0
H906 H 0.14068 0.21651 0.49796 0.0
H907 H 0.09448 0.24921 0.43886 0.0
O908 O 0.15844 0.27096 0.49231 0.0
C909 C 0.10627 0.30111 0.44375 0.0
O910 O 0.08474 0.3005 0.45764 0.0
N911 N 0.11323 0.2616 0.51983 0.0
C912 C 0.09065 0.26859 0.56859 0.0
C913 C 0.11795 0.26837 0.56582 0.0
C914 C 0.12896 0.26484 0.54109 0.0
C915 C 0.08712 0.25772 0.52279 0.0
C916 C 0.07533 0.26114 0.54713 0.0
H917 H 0.14964 0.2682 0.53878 0.0
H918 H 0.07493 0.25572 0.50565 0.0
H919 H 0.16215 0.31617 0.51225 0.0
H920 H 0.09353 0.35594 0.53317 0.0
H921 H 0.12729 0.17858 0.46497 0.0
H922 H 0.13049 0.27358 0.58203 0.0
H923 H 0.05423 0.26114 0.54829 0.0
C924 C 0.56689 0.37204 0.73954 0.0
C925 C 0.58849 0.38427 0.74986 0.0
N926 N 0.58064 0.40652 0.76149 0.0
N927 N 0.54552 0.38665 0.74434 0.0
C928 C 0.55458 0.4075 0.75787 0.0
H929 H 0.5668 0.35341 0.7296 0.0
Co930 Co 0.51124 0.3779 0.73513 0.0
C931 C 0.48039 0.42718 0.74056 0.0
O932 O 0.45918 0.41373 0.74573 0.0
N933 N 0.47636 0.36832 0.72533 0.0
C934 C 0.43696 0.34966 0.72317 0.0
C935 C 0.45783 0.35537 0.73911 0.0
C936 C 0.46573 0.37064 0.70118 0.0
N937 N 0.44204 0.35913 0.69917 0.0
O938 O 0.52121 0.3798 0.69892 0.0
H939 H 0.45923 0.34977 0.75939 0.0
H940 H 0.47572 0.37954 0.68485 0.0
O941 O 0.50187 0.41527 0.73599 0.0
C942 C 0.52587 0.35628 0.69189 0.0
O943 O 0.52139 0.33752 0.70889 0.0
N944 N 0.50405 0.37274 0.77044 0.0
C945 C 0.51634 0.35624 0.82077 0.0
C946 C 0.51042 0.38266 0.81577 0.0
C947 C 0.50411 0.39058 0.79028 0.0
C948 C 0.50779 0.34687 0.77546 0.0
C949 C 0.51347 0.33813 0.80048 0.0
H950 H 0.50209 0.41121 0.78628 0.0
H951 H 0.50864 0.33316 0.75942 0.0
H952 H 0.54238 0.42303 0.76521 0.0
H953 H 0.60831 0.37695 0.74956 0.0
H954 H 0.41966 0.33888 0.72874 0.0
H955 H 0.51257 0.39726 0.83092 0.0
H956 H 0.51835 0.31769 0.80316 0.0
C957 C 0.60224 0.18414 0.49382 0.0
C958 C 0.61185 0.16477 0.47806 0.0
N959 N 0.63795 0.16737 0.47674 0.0
N960 N 0.6221 0.19897 0.50271 0.0
C961 C 0.64376 0.18809 0.4921 0.0
H962 H 0.58182 0.18826 0.4971 0.0
Co963 Co 0.61564 0.23095 0.51926 0.0
C964 C 0.66606 0.26062 0.51737 0.0
O965 O 0.65385 0.28305 0.51542 0.0
N966 N 0.60723 0.26344 0.53608 0.0
C967 C 0.59113 0.30338 0.54385 0.0
C968 C 0.60082 0.28673 0.52513 0.0
C969 C 0.60122 0.26683 0.56165 0.0
N970 N 0.59108 0.2907 0.56686 0.0
O971 O 0.62013 0.21432 0.55266 0.0
H972 H 0.60222 0.29139 0.50458 0.0
H973 H 0.60331 0.25179 0.57625 0.0
O974 O 0.65314 0.23926 0.51858 0.0
C975 C 0.60017 0.2014 0.56009 0.0
O976 O 0.57931 0.20139 0.54519 0.0
N977 N 0.60942 0.2452 0.48635 0.0
C978 C 0.5909 0.24107 0.4356 0.0
C979 C 0.61785 0.24218 0.44044 0.0
C980 C 0.62682 0.24441 0.46615 0.0
C981 C 0.58331 0.24695 0.48168 0.0
C982 C 0.57362 0.24538 0.45635 0.0
H983 H 0.64741 0.24195 0.46982 0.0
H984 H 0.56979 0.24642 0.49791 0.0
H985 H 0.66309 0.19628 0.49389 0.0
H986 H 0.60036 0.15045 0.46756 0.0
H987 H 0.5833 0.32273 0.54038 0.0
H988 H 0.63174 0.23874 0.42487 0.0
H989 H 0.5527 0.2442 0.45353 0.0
C990 C 0.43804 0.14042 0.7589 0.0
C991 C 0.41732 0.13058 0.77296 0.0
N992 N 0.41871 0.10429 0.77235 0.0
N993 N 0.45251 0.1204 0.74973 0.0
C994 C 0.44 0.09864 0.75796 0.0
H995 H 0.44318 0.16084 0.7569 0.0
Co996 Co 0.48583 0.12415 0.73567 0.0
C997 C 0.5098 0.0712 0.74081 0.0
O998 O 0.53216 0.08191 0.74731 0.0
N999 N 0.51996 0.12874 0.72109 0.0
C1000 C 0.56128 0.14082 0.71391 0.0
C1001 C 0.54244 0.13655 0.73263 0.0
C1002 C 0.52617 0.12783 0.69537 0.0
N1003 N 0.5509 0.13553 0.69038 0.0
O1004 O 0.47077 0.12362 0.70128 0.0
H1005 H 0.54517 0.1396 0.75331 0.0
H1006 H 0.51243 0.12294 0.68018 0.0
O1007 O 0.49029 0.08587 0.73546 0.0
C1008 C 0.46641 0.14721 0.6943 0.0
O1009 O 0.47315 0.16602 0.71044 0.0
N1010 N 0.49824 0.12789 0.76984 0.0
C1011 C 0.48629 0.14632 0.81961 0.0
C1012 C 0.48792 0.11929 0.81473 0.0
C1013 C 0.49381 0.11039 0.78955 0.0
C1014 C 0.50018 0.15394 0.77514 0.0
C1015 C 0.49445 0.16358 0.79991 0.0
H1016 H 0.49096 0.08991 0.78541 0.0
H1017 H 0.50244 0.16767 0.7592 0.0
H1018 H 0.4473 0.07902 0.75533 0.0
H1019 H 0.40285 0.14185 0.78347 0.0
H1020 H 0.58086 0.14793 0.7174 0.0
H1021 H 0.48211 0.10522 0.82946 0.0
H1022 H 0.49324 0.18457 0.80245 0.0
C1023 C 0.39164 0.32512 0.50784 0.0
C1024 C 0.3819 0.34808 0.4979 0.0
N1025 N 0.35573 0.34616 0.49715 0.0
N1026 N 0.37168 0.3089 0.51362 0.0
C1027 C 0.34994 0.32229 0.50679 0.0
H1028 H 0.41205 0.32028 0.51023 0.0
Co1029 Co 0.37605 0.27513 0.52704 0.0
C1030 C 0.33037 0.24964 0.5014 0.0
O1031 O 0.34608 0.23246 0.49056 0.0
N1032 N 0.38113 0.24155 0.54188 0.0
C1033 C 0.37599 0.20396 0.56351 0.0
C1034 C 0.36478 0.22119 0.54613 0.0
C1035 C 0.40184 0.23628 0.55741 0.0
N1036 N 0.39926 0.21363 0.57086 0.0
O1037 O 0.36539 0.28736 0.56097 0.0
H1038 H 0.3449 0.2198 0.53946 0.0
H1039 H 0.41791 0.24974 0.55995 0.0
O1040 O 0.33966 0.26673 0.51715 0.0
C1041 C 0.38501 0.299 0.57105 0.0
O1042 O 0.40681 0.30018 0.55761 0.0
N1043 N 0.38972 0.26471 0.49414 0.0
C1044 C 0.42181 0.27195 0.45054 0.0
C1045 C 0.39502 0.27738 0.44912 0.0
C1046 C 0.37929 0.27365 0.47115 0.0
C1047 C 0.41506 0.25657 0.49479 0.0
C1048 C 0.43133 0.25968 0.47313 0.0
H1049 H 0.35959 0.28113 0.47055 0.0
H1050 H 0.42383 0.25052 0.51292 0.0
H1051 H 0.33029 0.31478 0.50871 0.0
H1052 H 0.39316 0.36466 0.49108 0.0
H1053 H 0.36661 0.18695 0.57193 0.0
H1054 H 0.3868 0.28709 0.43221 0.0
H1055 H 0.45181 0.2548 0.47497 0.0
C1056 C 0.75396 0.57003 0.64874 0.0
C1057 C 0.73973 0.59112 0.64028 0.0
N1058 N 0.73488 0.58812 0.61461 0.0
N1059 N 0.75826 0.55367 0.62855 0.0
C1060 C 0.7467 0.56548 0.60782 0.0
H1061 H 0.75899 0.56597 0.66882 0.0
Co1062 Co 0.7702 0.51935 0.63358 0.0
C1063 C 0.7645 0.49518 0.58125 0.0
O1064 O 0.75276 0.47485 0.59163 0.0
N1065 N 0.78239 0.48431 0.63974 0.0
C1066 C 0.78446 0.44231 0.6519 0.0
C1067 C 0.7682 0.46249 0.64474 0.0
C1068 C 0.80738 0.4764 0.64367 0.0
N1069 N 0.80915 0.45114 0.65138 0.0
O1070 O 0.80532 0.53238 0.63399 0.0
H1071 H 0.74719 0.46112 0.64393 0.0
H1072 H 0.82412 0.48916 0.64226 0.0
O1073 O 0.77212 0.51403 0.59574 0.0
C1074 C 0.81076 0.53845 0.65753 0.0
O1075 O 0.79414 0.53197 0.676 0.0
N1076 N 0.73523 0.50908 0.63623 0.0
C1077 C 0.68501 0.52187 0.65242 0.0
C1078 C 0.69084 0.51948 0.62571 0.0
C1079 C 0.71625 0.51333 0.61794 0.0
C1080 C 0.72899 0.50791 0.66207 0.0
C1081 C 0.70397 0.51413 0.67062 0.0
H1082 H 0.72104 0.51564 0.59758 0.0
H1083 H 0.74435 0.5056 0.67637 0.0
H1084 H 0.74483 0.55657 0.58875 0.0
H1085 H 0.73231 0.60677 0.65242 0.0
H1086 H 0.77848 0.42282 0.65761 0.0
H1087 H 0.67669 0.52494 0.61097 0.0
H1088 H 0.70066 0.51591 0.69143 0.0
C1089 C 0.82437 0.99469 0.61145 0.0
C1090 C 0.84652 0.00741 0.61993 0.0
N1091 N 0.84187 0.01663 0.6441 0.0
N1092 N 0.80602 0.99565 0.63035 0.0
C1093 C 0.8174 0.00914 0.64998 0.0
H1094 H 0.82165 0.98594 0.59244 0.0
Co1095 Co 0.77184 0.98299 0.62819 0.0
C1096 C 0.75052 0.99968 0.68042 0.0
O1097 O 0.7296 0.0097 0.66942 0.0
N1098 N 0.73739 0.9691 0.6256 0.0
C1099 C 0.70468 0.94147 0.63405 0.0
C1100 C 0.72373 0.95701 0.64477 0.0
C1101 C 0.72618 0.96005 0.60337 0.0
N1102 N 0.70656 0.94287 0.6079 0.0
O1103 O 0.78454 0.94798 0.63358 0.0
H1104 H 0.72928 0.95622 0.66507 0.0
H1105 H 0.73419 0.96341 0.58417 0.0
O1106 O 0.7678 0.98852 0.66621 0.0
C1107 C 0.78783 0.93859 0.6107 0.0
O1108 O 0.78259 0.95365 0.59056 0.0
N1109 N 0.76097 0.01714 0.61913 0.0
C1110 C 0.77192 0.06353 0.59232 0.0
C1111 C 0.77207 0.06294 0.61973 0.0
C1112 C 0.76662 0.03943 0.63286 0.0
C1113 C 0.75795 0.01841 0.59269 0.0
C1114 C 0.76316 0.04137 0.57895 0.0
H1115 H 0.77042 0.03868 0.65354 0.0
H1116 H 0.75534 1.00076 0.58159 0.0
H1117 H 0.80789 0.01405 0.66814 0.0
H1118 H 0.86429 0.01046 0.60889 0.0
H1119 H 0.69289 0.92746 0.64469 0.0
H1120 H 0.77901 0.07962 0.63077 0.0
H1121 H 0.76276 0.04101 0.55778 0.0
C1122 C 0.25867 0.93393 0.65231 0.0
C1123 C 0.27287 0.91274 0.64394 0.0
N1124 N 0.27782 0.91571 0.61826 0.0
N1125 N 0.25459 0.95027 0.63204 0.0
C1126 C 0.26617 0.9384 0.61142 0.0
H1127 H 0.25328 0.93801 0.6723 0.0
Co1128 Co 0.24275 0.98463 0.636 0.0
C1129 C 0.24524 0.00813 0.58309 0.0
O1130 O 0.25286 0.03016 0.59381 0.0
N1131 N 0.23065 0.01972 0.64094 0.0
C1132 C 0.22693 0.06163 0.65277 0.0
C1133 C 0.24388 0.04108 0.64933 0.0
C1134 C 0.20567 0.02823 0.63909 0.0
N1135 N 0.20281 0.05347 0.64647 0.0
O1136 O 0.20746 0.97157 0.63849 0.0
H1137 H 0.26458 0.04204 0.65303 0.0
H1138 H 0.18954 0.01583 0.63348 0.0
O1139 O 0.24029 0.98838 0.59768 0.0
C1140 C 0.20294 0.96861 0.66288 0.0
O1141 O 0.22067 0.97694 0.67946 0.0
N1142 N 0.27767 0.99511 0.63722 0.0
C1143 C 0.32828 0.98243 0.65215 0.0
C1144 C 0.32178 0.98474 0.62556 0.0
C1145 C 0.29619 0.99118 0.6184 0.0
C1146 C 0.28453 0.99595 0.6629 0.0
C1147 C 0.30975 0.99002 0.67079 0.0
H1148 H 0.29083 0.98937 0.59812 0.0
H1149 H 0.26953 0.99796 0.67762 0.0
H1150 H 0.26809 0.94725 0.59232 0.0
H1151 H 0.27996 0.89692 0.6561 0.0
H1152 H 0.23199 0.08097 0.65968 0.0
H1153 H 0.33557 0.97916 0.61053 0.0
H1154 H 0.31357 0.9882 0.69152 0.0
C1155 C 0.17671 0.51959 0.61552 0.0
C1156 C 0.1537 0.51307 0.62767 0.0
N1157 N 0.15801 0.51249 0.65359 0.0
N1158 N 0.19534 0.52345 0.63372 0.0
C1159 C 0.18332 0.51885 0.65681 0.0
H1160 H 0.17987 0.52054 0.59465 0.0
Co1161 Co 0.23012 0.53125 0.62608 0.0
C1162 C 0.25412 0.51357 0.67706 0.0
O1163 O 0.2682 0.49526 0.66599 0.0
N1164 N 0.26551 0.53961 0.61784 0.0
C1165 C 0.30801 0.53794 0.60801 0.0
C1166 C 0.2868 0.52394 0.61695 0.0
C1167 C 0.27458 0.56305 0.60943 0.0
N1168 N 0.30023 0.56262 0.60339 0.0
O1169 O 0.22211 0.5678 0.63081 0.0
H1170 H 0.28695 0.50331 0.62149 0.0
H1171 H 0.26252 0.58013 0.60674 0.0
O1172 O 0.23926 0.52824 0.66333 0.0
C1173 C 0.21114 0.5761 0.60999 0.0
O1174 O 0.21006 0.56043 0.58969 0.0
N1175 N 0.23544 0.49558 0.6186 0.0
C1176 C 0.22482 0.44682 0.59631 0.0
C1177 C 0.22144 0.45094 0.62323 0.0
C1178 C 0.22656 0.47556 0.63396 0.0
C1179 C 0.24031 0.49141 0.59274 0.0
C1180 C 0.2355 0.46712 0.58128 0.0
H1181 H 0.22097 0.47906 0.65399 0.0
H1182 H 0.2457 0.50769 0.58035 0.0
H1183 H 0.19294 0.51943 0.67561 0.0
H1184 H 0.13554 0.5079 0.61818 0.0
H1185 H 0.32753 0.53047 0.60492 0.0
H1186 H 0.21314 0.43584 0.63555 0.0
H1187 H 0.23786 0.46511 0.56035 0.0
C1188 C 0.75675 0.43948 0.85985 0.0
C1189 C 0.74743 0.4174 0.87219 0.0
N1190 N 0.74616 0.42233 0.89799 0.0
N1191 N 0.76145 0.45818 0.87781 0.0
C1192 C 0.75508 0.44695 0.90093 0.0
H1193 H 0.7587 0.44217 0.83898 0.0
Co1194 Co 0.77128 0.49286 0.87055 0.0
C1195 C 0.75088 0.51307 0.9227 0.0
O1196 O 0.72935 0.52326 0.91326 0.0
N1197 N 0.78199 0.52786 0.86331 0.0
C1198 C 0.78655 0.57131 0.86303 0.0
C1199 C 0.77155 0.55064 0.8717 0.0
C1200 C 0.80299 0.53545 0.84908 0.0
N1201 N 0.80637 0.56166 0.84876 0.0
O1202 O 0.80697 0.48307 0.87647 0.0
H1203 H 0.75415 0.55236 0.88338 0.0
H1204 H 0.81619 0.52211 0.83959 0.0
O1205 O 0.76741 0.50191 0.90765 0.0
C1206 C 0.8153 0.47391 0.85484 0.0
O1207 O 0.7995 0.47406 0.8346 0.0
N1208 N 0.73623 0.5005 0.86119 0.0
C1209 C 0.6917 0.4894 0.83158 0.0
C1210 C 0.69265 0.48308 0.85824 0.0
C1211 C 0.71511 0.4888 0.87274 0.0
C1212 C 0.73432 0.50933 0.83608 0.0
C1213 C 0.71213 0.50435 0.8211 0.0
H1214 H 0.7165 0.48087 0.89223 0.0
H1215 H 0.75118 0.51744 0.82633 0.0
H1216 H 0.75573 0.45687 0.91955 0.0
H1217 H 0.74061 0.39971 0.8628 0.0
H1218 H 0.78313 0.59183 0.86695 0.0
H1219 H 0.67745 0.47139 0.8672 0.0
H1220 H 0.71208 0.51005 0.80071 0.0
C1221 C 0.68311 1.00103 0.39786 0.0
C1222 C 0.66242 0.01512 0.38832 0.0
N1223 N 0.66638 0.01931 0.36266 0.0
N1224 N 0.70014 0.99625 0.37836 0.0
C1225 C 0.68925 0.00746 0.35699 0.0
H1226 H 0.68639 0.99624 0.41816 0.0
Co1227 Co 0.73363 0.98327 0.38473 0.0
C1228 C 0.76353 0.99278 0.33573 0.0
O1229 O 0.78379 0.99967 0.34978 0.0
N1230 N 0.76785 0.96972 0.39237 0.0
C1231 C 0.80882 0.96461 0.40661 0.0
C1232 C 0.78916 0.98227 0.4018 0.0
C1233 C 0.77548 0.94431 0.39164 0.0
N1234 N 0.80016 0.9406 0.40036 0.0
O1235 O 0.72049 0.94823 0.37998 0.0
H1236 H 0.79077 1.00308 0.40496 0.0
H1237 H 0.76289 0.92849 0.38568 0.0
O1238 O 0.74227 0.98611 0.34709 0.0
C1239 C 0.71152 0.94005 0.40179 0.0
O1240 O 0.71419 0.95504 0.42245 0.0
N1241 N 0.74392 0.01762 0.39226 0.0
C1242 C 0.7361 0.06741 0.41303 0.0
C1243 C 0.73735 0.06368 0.38586 0.0
C1244 C 0.74135 0.03852 0.37578 0.0
C1245 C 0.74448 0.02127 0.41863 0.0
C1246 C 0.74114 0.04604 0.42941 0.0
H1247 H 0.73928 0.03564 0.355 0.0
H1248 H 0.74503 0.00445 0.43146 0.0
H1249 H 0.69879 0.00891 0.33822 0.0
H1250 H 0.64629 0.02276 0.39963 0.0
H1251 H 0.82794 0.96923 0.41427 0.0
H1252 H 0.73324 0.07967 0.37258 0.0
H1253 H 0.73974 0.04788 0.45045 0.0
C1254 C 0.23927 0.07472 0.86823 0.0
C1255 C 0.25255 0.09639 0.87683 0.0
N1256 N 0.26172 0.09138 0.90096 0.0
N1257 N 0.24017 0.056 0.88676 0.0
C1258 C 0.25371 0.06688 0.90672 0.0
H1259 H 0.23116 0.07207 0.84892 0.0
Co1260 Co 0.23082 0.02151 0.87975 0.0
C1261 C 0.23791 0.99162 0.92896 0.0
O1262 O 0.24503 0.97122 0.91516 0.0
N1263 N 0.22094 0.98624 0.87136 0.0
C1264 C 0.21903 0.94637 0.85357 0.0
C1265 C 0.23489 0.96734 0.85916 0.0
C1266 C 0.19674 0.97569 0.87338 0.0
N1267 N 0.19487 0.95176 0.86227 0.0
O1268 O 0.1947 0.03173 0.88177 0.0
H1269 H 0.25527 0.96851 0.85401 0.0
H1270 H 0.18026 0.98598 0.88159 0.0
O1271 O 0.23199 0.01308 0.91746 0.0
C1272 C 0.18615 0.03478 0.85852 0.0
O1273 O 0.20161 0.02872 0.83895 0.0
N1274 N 0.26611 0.01424 0.87458 0.0
C1275 C 0.31603 0.02725 0.85757 0.0
C1276 C 0.31112 0.02277 0.88422 0.0
C1277 C 0.28587 0.01607 0.89241 0.0
C1278 C 0.27106 0.01683 0.84858 0.0
C1279 C 0.29592 0.02283 0.8396 0.0
H1280 H 0.28189 0.01538 0.91309 0.0
H1281 H 0.25501 0.01662 0.83486 0.0
H1282 H 0.25966 0.05635 0.92406 0.0
H1283 H 0.25649 0.11395 0.86564 0.0
H1284 H 0.22479 0.92885 0.84324 0.0
H1285 H 0.32615 0.02624 0.89868 0.0
H1286 H 0.29861 0.02663 0.81895 0.0
C1287 C 0.32101 0.48986 0.39151 0.0
C1288 C 0.34002 0.47535 0.37932 0.0
N1289 N 0.33828 0.47963 0.35341 0.0
N1290 N 0.30723 0.50314 0.37336 0.0
C1291 C 0.31855 0.49683 0.35036 0.0
H1292 H 0.31641 0.48948 0.41213 0.0
Co1293 Co 0.2757 0.52036 0.38012 0.0
C1294 C 0.2483 0.50824 0.3291 0.0
O1295 O 0.22894 0.49617 0.34077 0.0
N1296 N 0.24385 0.53796 0.38772 0.0
C1297 C 0.20278 0.54774 0.39867 0.0
C1298 C 0.21895 0.52908 0.38799 0.0
C1299 C 0.24205 0.56202 0.39856 0.0
N1300 N 0.21744 0.56843 0.40552 0.0
O1301 O 0.2927 0.55368 0.37442 0.0
H1302 H 0.21293 0.50951 0.38295 0.0
H1303 H 0.25863 0.57442 0.40223 0.0
O1304 O 0.26669 0.51824 0.34272 0.0
C1305 C 0.3074 0.55978 0.39367 0.0
O1306 O 0.30965 0.54301 0.41301 0.0
N1307 N 0.26091 0.48776 0.38865 0.0
C1308 C 0.26472 0.44041 0.41519 0.0
C1309 C 0.26738 0.44124 0.38789 0.0
C1310 C 0.26532 0.46529 0.37485 0.0
C1311 C 0.25511 0.48659 0.41462 0.0
C1312 C 0.2564 0.46302 0.42816 0.0
H1313 H 0.27109 0.46624 0.35457 0.0
H1314 H 0.25283 0.50444 0.4257 0.0
H1315 H 0.31143 0.50318 0.33156 0.0
H1316 H 0.35352 0.46206 0.38873 0.0
H1317 H 0.18216 0.54545 0.40266 0.0
H1318 H 0.27406 0.42425 0.37718 0.0
H1319 H 0.25391 0.46312 0.44919 0.0
C1320 C 0.64906 0.75211 0.57563 0.0
C1321 C 0.64118 0.73742 0.59675 0.0
N1322 N 0.61548 0.73243 0.59424 0.0
N1323 N 0.62848 0.75633 0.55981 0.0
C1324 C 0.60821 0.74436 0.57186 0.0
H1325 H 0.66886 0.758 0.57127 0.0
Co1326 Co 0.63137 0.76981 0.52604 0.0
C1327 C 0.57886 0.75948 0.50265 0.0
O1328 O 0.58961 0.75216 0.48056 0.0
N1329 N 0.63518 0.78394 0.49125 0.0
C1330 C 0.64666 0.78966 0.4494 0.0
C1331 C 0.64158 0.77157 0.46873 0.0
C1332 C 0.63586 0.80962 0.48447 0.0
N1333 N 0.64328 0.81371 0.45943 0.0
O1334 O 0.62745 0.8044 0.54016 0.0
H1335 H 0.64324 0.75065 0.46633 0.0
H1336 H 0.63226 0.8254 0.49793 0.0
O1337 O 0.59338 0.76682 0.52158 0.0
C1338 C 0.6499 0.81429 0.54456 0.0
O1339 O 0.67066 0.80066 0.53809 0.0
N1340 N 0.63828 0.73569 0.51451 0.0
C1341 C 0.661 0.68659 0.52121 0.0
C1342 C 0.63378 0.68964 0.52256 0.0
C1343 C 0.6227 0.71445 0.51898 0.0
C1344 C 0.66448 0.73259 0.51104 0.0
C1345 C 0.67618 0.70814 0.51383 0.0
H1346 H 0.60219 0.71685 0.52306 0.0
H1347 H 0.67675 0.74968 0.50884 0.0
H1348 H 0.58895 0.74253 0.56346 0.0
H1349 H 0.65359 0.73025 0.6123 0.0
H1350 H 0.65298 0.78535 0.4297 0.0
H1351 H 0.62144 0.67347 0.52845 0.0
H1352 H 0.69727 0.70678 0.51307 0.0
C1353 C 0.64298 0.26357 0.9312 0.0
C1354 C 0.63005 0.27724 0.91202 0.0
N1355 N 0.60424 0.27364 0.91543 0.0
N1356 N 0.62536 0.25167 0.94683 0.0
C1357 C 0.60192 0.25769 0.93631 0.0
H1358 H 0.66379 0.26383 0.93472 0.0
Co1359 Co 0.6331 0.23625 0.97918 0.0
C1360 C 0.58221 0.25524 0.00383 0.0
O1361 O 0.59256 0.27467 0.01697 0.0
N1362 N 0.6409 0.22026 0.01135 0.0
C1363 C 0.64223 0.20663 0.05265 0.0
C1364 C 0.63273 0.22548 0.03586 0.0
C1365 C 0.65577 0.19862 0.01389 0.0
N1366 N 0.65658 0.18954 0.0387 0.0
O1367 O 0.62535 0.20221 0.96488 0.0
H1368 H 0.62027 0.24157 0.0413 0.0
H1369 H 0.66566 0.18954 0.99764 0.0
O1370 O 0.59646 0.24011 0.98997 0.0
C1371 C 0.64347 0.19474 0.94945 0.0
O1372 O 0.66298 0.21078 0.94489 0.0
N1373 N 0.64409 0.2694 0.99169 0.0
C1374 C 0.67585 0.31269 0.98232 0.0
C1375 C 0.64877 0.31446 0.97884 0.0
C1376 C 0.63312 0.2925 0.98367 0.0
C1377 C 0.66978 0.2688 0.99874 0.0
C1378 C 0.68596 0.29029 0.99437 0.0
H1379 H 0.61319 0.29303 0.97684 0.0
H1380 H 0.67891 0.25053 0.00409 0.0
H1381 H 0.58339 0.25219 0.94481 0.0
H1382 H 0.63887 0.28968 0.89734 0.0
H1383 H 0.638 0.20513 0.07331 0.0
H1384 H 0.64021 0.33135 0.96934 0.0
H1385 H 0.70677 0.28826 0.99758 0.0
C1386 C 0.51467 0.1048 0.31778 0.0
C1387 C 0.53 0.11353 0.33798 0.0
N1388 N 0.53051 0.13987 0.33716 0.0
N1389 N 0.50552 0.1255 0.30426 0.0
C1390 C 0.51522 0.14663 0.31678 0.0
H1391 H 0.51177 0.0846 0.31225 0.0
Co1392 Co 0.48935 0.12243 0.27177 0.0
C1393 C 0.50388 0.17427 0.2479 0.0
O1394 O 0.51357 0.16283 0.22705 0.0
N1395 N 0.47229 0.11811 0.23946 0.0
C1396 C 0.44571 0.12306 0.20535 0.0
C1397 C 0.46187 0.13568 0.22267 0.0
C1398 C 0.46137 0.09512 0.23229 0.0
N1399 N 0.44515 0.09749 0.21157 0.0
O1400 O 0.45591 0.12838 0.28763 0.0
H1401 H 0.46319 0.15664 0.22433 0.0
H1402 H 0.46363 0.07733 0.2435 0.0
O1403 O 0.49361 0.16035 0.26599 0.0
C1404 C 0.44725 0.10793 0.29901 0.0
O1405 O 0.46144 0.08655 0.29844 0.0
N1406 N 0.52242 0.11412 0.25746 0.0
C1407 C 0.57086 0.08996 0.26367 0.0
C1408 C 0.5685 0.11719 0.26569 0.0
C1409 C 0.54408 0.1289 0.26275 0.0
C1410 C 0.52517 0.08815 0.25193 0.0
C1411 C 0.54928 0.07566 0.25482 0.0
H1412 H 0.54234 0.14903 0.26871 0.0
H1413 H 0.50815 0.07612 0.24907 0.0
H1414 H 0.51296 0.16647 0.30993 0.0
H1415 H 0.54067 0.10138 0.35161 0.0
H1416 H 0.4332 0.13247 0.19113 0.0
H1417 H 0.58475 0.12898 0.27239 0.0
H1418 H 0.55013 0.05455 0.25328 0.0
C1419 C 0.36353 0.24506 0.93138 0.0
C1420 C 0.37556 0.231 0.91196 0.0
N1421 N 0.40154 0.23409 0.91442 0.0
N1422 N 0.3818 0.25698 0.94613 0.0
C1423 C 0.40482 0.25028 0.93501 0.0
H1424 H 0.34285 0.24508 0.93563 0.0
Co1425 Co 0.3744 0.27252 0.97845 0.0
C1426 C 0.42633 0.2596 0.0041 0.0
O1427 O 0.41646 0.24278 0.02076 0.0
N1428 N 0.36645 0.2885 0.011 0.0
C1429 C 0.36077 0.29828 0.05315 0.0
C1430 C 0.36918 0.2795 0.03571 0.0
C1431 C 0.35593 0.31256 0.01411 0.0
N1432 N 0.35262 0.31919 0.03943 0.0
O1433 O 0.37934 0.30671 0.96297 0.0
H1434 H 0.37632 0.26035 0.04094 0.0
H1435 H 0.35028 0.32503 0.99808 0.0
O1436 O 0.41162 0.27158 0.98782 0.0
C1437 C 0.36012 0.31326 0.94848 0.0
O1438 O 0.34074 0.29666 0.9458 0.0
N1439 N 0.36678 0.23887 0.99181 0.0
C1440 C 0.34244 0.19017 0.98794 0.0
C1441 C 0.36939 0.19263 0.98382 0.0
C1442 C 0.38124 0.21718 0.98583 0.0
C1443 C 0.34112 0.23627 0.99845 0.0
C1444 C 0.32862 0.21202 0.99696 0.0
H1445 H 0.40116 0.21911 0.97923 0.0
H1446 H 0.3294 0.25352 1.00184 0.0
H1447 H 0.42368 0.25532 0.94306 0.0
H1448 H 0.36594 0.21861 0.89779 0.0
H1449 H 0.36099 0.29673 0.07424 0.0
H1450 H 0.38073 0.17622 0.97674 0.0
H1451 H 0.30772 0.2111 0.99995 0.0
C1452 C 0.00343 0.89563 0.81937 0.0
C1453 C 0.9907 0.8851 0.84056 0.0
N1454 N 0.99253 0.85886 0.83913 0.0
N1455 N 0.01312 0.87612 0.80452 0.0
C1456 C 0.00655 0.85394 0.81737 0.0
H1457 H 0.00408 0.91613 0.81418 0.0
Co1458 Co 0.02697 0.8808 0.77086 0.0
C1459 C 0.00708 0.82911 0.74888 0.0
O1460 O 0.9903 0.84025 0.73304 0.0
N1461 N 0.04146 0.88612 0.73706 0.0
C1462 C 0.04819 0.89034 0.6942 0.0
C1463 C 0.03126 0.88154 0.71315 0.0
C1464 C 0.06445 0.89816 0.73191 0.0
N1465 N 0.06918 0.90086 0.70602 0.0
O1466 O 0.06129 0.87349 0.78438 0.0
H1467 H 0.01215 0.87372 0.70938 0.0
H1468 H 0.07705 0.90584 0.74694 0.0
O1469 O 0.02167 0.84319 0.76353 0.0
C1470 C 0.06919 0.89324 0.79742 0.0
O1471 O 0.05422 0.91406 0.79852 0.0
N1472 N 0.9935 0.89117 0.75929 0.0
C1473 C 0.95065 0.92304 0.76977 0.0
C1474 C 0.94934 0.89597 0.77436 0.0
C1475 C 0.971 0.88022 0.7687 0.0
C1476 C 0.99358 0.91663 0.75127 0.0
C1477 C 0.97219 0.93278 0.75592 0.0
H1478 H 0.97097 0.86034 0.77587 0.0
H1479 H 0.0115 0.92563 0.74467 0.0
H1480 H 0.01017 0.8345 0.81002 0.0
H1481 H 0.98007 0.89588 0.85531 0.0
H1482 H 0.04497 0.88936 0.67334 0.0
H1483 H 0.93315 0.88751 0.78503 0.0
H1484 H 0.97376 0.95341 0.7513 0.0
C1485 C 0.85143 0.25538 0.06813 0.0
C1486 C 0.85708 0.26422 0.09284 0.0
N1487 N 0.88215 0.25858 0.09792 0.0
N1488 N 0.87304 0.24477 0.05727 0.0
C1489 C 0.891 0.24583 0.07666 0.0
H1490 H 0.83262 0.25696 0.05881 0.0
Co1491 Co 0.87616 0.23115 0.0228 0.0
C1492 C 0.92912 0.25653 0.03115 0.0
O1493 O 0.91825 0.27701 0.0422 0.0
N1494 N 0.87847 0.21724 0.98915 0.0
C1495 C 0.89107 0.20674 0.94893 0.0
C1496 C 0.8965 0.22191 0.9705 0.0
C1497 C 0.86208 0.19959 0.97834 0.0
N1498 N 0.86936 0.19272 0.9539 0.0
O1499 O 0.88108 0.19678 0.03775 0.0
H1500 H 0.9127 0.23533 0.97243 0.0
H1501 H 0.84551 0.19131 0.98849 0.0
O1502 O 0.91477 0.23775 0.02266 0.0
C1503 C 0.85828 0.1889 0.04415 0.0
O1504 O 0.83836 0.20399 0.03824 0.0
N1505 N 0.86764 0.26405 0.00842 0.0
C1506 C 0.84723 0.31415 0.00952 0.0
C1507 C 0.87336 0.31003 1.00208 0.0
C1508 C 0.88308 0.28442 1.0008 0.0
C1509 C 0.84131 0.26736 0.00935 0.0
C1510 C 0.83061 0.29237 0.01049 0.0
H1511 H 0.90329 0.28143 0.9958 0.0
H1512 H 0.82889 0.25063 0.01295 0.0
H1513 H 0.91056 0.23807 0.07515 0.0
H1514 H 0.84418 0.27511 0.10556 0.0
H1515 H 0.90229 0.20604 0.93102 0.0
H1516 H 0.88658 0.32635 0.99942 0.0
H1517 H 0.81014 0.29433 0.01536 0.0
C1518 C 0.49032 0.88237 0.17997 0.0
C1519 C 0.50126 0.86914 0.15928 0.0
N1520 N 0.50204 0.84355 0.16542 0.0
N1521 N 0.48408 0.86512 0.19896 0.0
C1522 C 0.49132 0.84158 0.18935 0.0
H1523 H 0.48822 0.90335 0.18159 0.0
Co1524 Co 0.47135 0.87353 0.2323 0.0
C1525 C 0.49725 0.82967 0.26115 0.0
O1526 O 0.50882 0.84643 0.2768 0.0
N1527 N 0.45735 0.88211 0.26548 0.0
C1528 C 0.43697 0.88051 0.30397 0.0
C1529 C 0.4535 0.86754 0.28722 0.0
C1530 C 0.44244 0.90356 0.26949 0.0
N1531 N 0.42977 0.90316 0.29268 0.0
O1532 O 0.43689 0.86272 0.22166 0.0
H1533 H 0.45993 0.84769 0.2901 0.0
H1534 H 0.43988 0.9186 0.25485 0.0
O1535 O 0.48083 0.83794 0.24418 0.0
C1536 C 0.42785 0.88207 0.20862 0.0
O1537 O 0.44259 0.9029 0.20576 0.0
N1538 N 0.50462 0.88761 0.24073 0.0
C1539 C 0.548 0.91885 0.22961 0.0
C1540 C 0.54933 0.8916 0.22675 0.0
C1541 C 0.52739 0.87628 0.23243 0.0
C1542 C 0.50417 0.91369 0.24636 0.0
C1543 C 0.52572 0.92956 0.24131 0.0
H1544 H 0.52788 0.85588 0.22701 0.0
H1545 H 0.48623 0.92313 0.25178 0.0
H1546 H 0.48969 0.82332 0.1999 0.0
H1547 H 0.50939 0.87779 0.14175 0.0
H1548 H 0.42908 0.87269 0.32198 0.0
H1549 H 0.56607 0.88246 0.21762 0.0
H1550 H 0.52399 0.95047 0.24424 0.0
C1551 C 0.4966 0.60412 0.18104 0.0
C1552 C 0.48124 0.61243 0.1607 0.0
N1553 N 0.47813 0.6385 0.16271 0.0
N1554 N 0.50348 0.6248 0.19587 0.0
C1555 C 0.49212 0.64556 0.18395 0.0
H1556 H 0.50048 0.58392 0.18589 0.0
Co1557 Co 0.51725 0.62129 0.22975 0.0
C1558 C 0.52916 0.67698 0.24313 0.0
O1559 O 0.55302 0.67119 0.25055 0.0
N1560 N 0.5305 0.61679 0.26368 0.0
C1561 C 0.53833 0.61802 0.30649 0.0
C1562 C 0.52417 0.62892 0.28622 0.0
C1563 C 0.54806 0.59844 0.27082 0.0
N1564 N 0.55329 0.59869 0.2967 0.0
O1565 O 0.55237 0.62457 0.21612 0.0
H1566 H 0.50995 0.64446 0.28789 0.0
H1567 H 0.55701 0.58508 0.25722 0.0
O1568 O 0.5141 0.65891 0.23495 0.0
C1569 C 0.55942 0.60232 0.20722 0.0
O1570 O 0.54303 0.58268 0.20946 0.0
N1571 N 0.48346 0.61549 0.24173 0.0
C1572 C 0.43327 0.59794 0.23157 0.0
C1573 C 0.43822 0.62477 0.23495 0.0
C1574 C 0.46365 0.63325 0.24003 0.0
C1575 C 0.4783 0.5894 0.24267 0.0
C1576 C 0.45323 0.58012 0.23754 0.0
H1577 H 0.46762 0.65396 0.23928 0.0
H1578 H 0.49433 0.57566 0.24358 0.0
H1579 H 0.49212 0.6651 0.19183 0.0
H1580 H 0.47196 0.59998 0.14636 0.0
H1581 H 0.53729 0.62361 0.32685 0.0
H1582 H 0.4232 0.63918 0.23113 0.0
H1583 H 0.45044 0.55926 0.23514 0.0
H1584 H 0.0633 0.23013 0.10004 0.0
H1585 H 0.12819 0.17855 0.11554 0.0
H1586 H 0.10108 0.15222 0.14428 0.0
H1587 H 0.0604 0.14578 0.16771 0.0
H1588 H 0.99493 0.19683 0.15334 0.0
H1589 H 0.02067 0.2211 0.12097 0.0
C1590 C 0.07138 0.21294 0.10944 0.0
C1591 C 0.09794 0.20671 0.10599 0.0
C1592 C 0.05556 0.1977 0.12602 0.0
C1593 C 0.10809 0.18434 0.11838 0.0
C1594 C 0.09252 0.16906 0.13465 0.0
C1595 C 0.05136 0.16164 0.1569 0.0
C1596 C 0.02566 0.1693 0.16277 0.0
C1597 C 0.0664 0.1758 0.13894 0.0
C1598 C 0.01466 0.1905 0.14912 0.0
C1599 C 0.02941 0.20445 0.13075 0.0
H1600 H 0.48249 0.69012 0.15184 0.0
H1601 H 0.43282 0.6229 0.1406 0.0
H1602 H 0.40337 0.64874 0.11373 0.0
H1603 H 0.39343 0.68927 0.09049 0.0
H1604 H 0.44319 0.7566 0.10005 0.0
H1605 H 0.47057 0.73214 0.13082 0.0
C1606 C 0.46508 0.68126 0.14371 0.0
C1607 C 0.4602 0.65446 0.14787 0.0
C1608 C 0.44815 0.6963 0.12803 0.0
C1609 C 0.43751 0.64325 0.13718 0.0
C1610 C 0.42048 0.6581 0.12196 0.0
C1611 C 0.4098 0.69888 0.0999 0.0
C1612 C 0.41611 0.72481 0.09318 0.0
C1613 C 0.42582 0.68449 0.11689 0.0
C1614 C 0.43787 0.73669 0.10499 0.0
C1615 C 0.4536 0.72266 0.12246 0.0
H1616 H 0.93035 0.30801 0.19866 0.0
H1617 H 0.98676 0.33609 0.14281 0.0
H1618 H 0.96407 0.31235 0.10775 0.0
H1619 H 0.92759 0.28411 0.0933 0.0
H1620 H 0.87006 0.25854 0.14898 0.0
H1621 H 0.89394 0.28051 0.18422 0.0
C1622 C 0.93774 0.30878 0.1788 0.0
C1623 C 0.9603 0.32346 0.17323 0.0
C1624 C 0.92449 0.29541 0.15896 0.0
C1625 C 0.96943 0.32486 0.14744 0.0
C1626 C 0.95654 0.31122 0.12751 0.0
C1627 C 0.92067 0.28302 0.11323 0.0
C1628 C 0.89744 0.2694 0.11879 0.0
C1629 C 0.93408 0.2964 0.13309 0.0
C1630 C 0.88804 0.26873 0.14449 0.0
C1631 C 0.90161 0.28135 0.1645 0.0
H1632 H 0.57637 0.75893 0.11731 0.0
H1633 H 0.53998 0.78731 0.04672 0.0
H1634 H 0.51149 0.81551 0.0721 0.0
H1635 H 0.4995 0.83527 0.11402 0.0
H1636 H 0.53437 0.80677 0.18502 0.0
H1637 H 0.56069 0.77547 0.16007 0.0
C1638 C 0.56187 0.77096 0.10762 0.0
C1639 C 0.5602 0.77083 0.0802 0.0
C1640 C 0.54545 0.78735 0.1224 0.0
C1641 C 0.54136 0.78659 0.06783 0.0
C1642 C 0.52521 0.80299 0.0823 0.0
C1643 C 0.51271 0.82198 0.12392 0.0
C1644 C 0.51527 0.82336 0.15112 0.0
C1645 C 0.52749 0.80398 0.1095 0.0
C1646 C 0.53211 0.8059 0.164 0.0
C1647 C 0.54722 0.78814 0.14975 0.0
H1648 H 0.05707 0.80464 0.31112 0.0
H1649 H 0.02103 0.8543 0.36879 0.0
H1650 H 0.04567 0.83216 0.40348 0.0
H1651 H 0.07972 0.80065 0.41671 0.0
H1652 H 0.11672 0.75263 0.35824 0.0
H1653 H 0.08943 0.77224 0.32439 0.0
C1654 C 0.0541 0.81019 0.33136 0.0
C1655 C 0.03699 0.8308 0.33748 0.0
C1656 C 0.06879 0.79794 0.35092 0.0
C1657 C 0.03398 0.83836 0.36368 0.0
C1658 C 0.04812 0.82579 0.38344 0.0
C1659 C 0.08152 0.79426 0.39661 0.0
C1660 C 0.10028 0.77528 0.38994 0.0
C1661 C 0.06593 0.80585 0.37721 0.0
C1662 C 0.1027 0.76746 0.36377 0.0
C1663 C 0.087 0.77854 0.34445 0.0
H1664 H 0.06068 0.64575 0.85634 0.0
H1665 H 0.99515 0.69743 0.8459 0.0
H1666 H 0.01613 0.73028 0.87379 0.0
H1667 H 0.05168 0.74258 0.90394 0.0
H1668 H 0.11696 0.69022 0.91421 0.0
H1669 H 0.09789 0.65969 0.88314 0.0
C1670 C 0.051 0.66418 0.86028 0.0
C1671 C 0.02618 0.66901 0.84961 0.0
C1672 C 0.06328 0.68294 0.87607 0.0
C1673 C 0.01417 0.69328 0.85412 0.0
C1674 C 0.02616 0.712 0.87004 0.0
C1675 C 0.06191 0.72468 0.89904 0.0
C1676 C 0.08572 0.71875 0.91149 0.0
C1677 C 0.05054 0.70685 0.88148 0.0
C1678 C 0.09884 0.69555 0.90472 0.0
C1679 C 0.08776 0.67785 0.88719 0.0
H1680 H 0.94221 0.73585 0.40213 0.0
H1681 H 0.87644 0.68376 0.39419 0.0
H1682 H 0.90135 0.65594 0.36485 0.0
H1683 H 0.94042 0.64799 0.33886 0.0
H1684 H 0.0064 0.69994 0.34533 0.0
H1685 H 0.98305 0.72593 0.37808 0.0
C1686 C 0.9335 0.71826 0.39418 0.0
C1687 C 0.9073 0.71222 0.40002 0.0
C1688 C 0.94799 0.70225 0.37709 0.0
C1689 C 0.89627 0.68932 0.38952 0.0
C1690 C 0.91059 0.67323 0.37288 0.0
C1691 C 0.95003 0.66456 0.34795 0.0
C1692 C 0.97521 0.67187 0.3398 0.0
C1693 C 0.93629 0.67971 0.36619 0.0
C1694 C 0.98703 0.69388 0.35129 0.0
C1695 C 0.97365 0.7088 0.36993 0.0
H1696 H 0.94544 0.86461 0.86135 0.0
H1697 H 0.00918 0.81042 0.85238 0.0
H1698 H 0.98684 0.77888 0.88074 0.0
H1699 H 0.95036 0.76813 0.91036 0.0
H1700 H 0.88758 0.82366 0.92005 0.0
H1701 H 0.90799 0.85287 0.88861 0.0
C1702 C 0.95451 0.84597 0.86576 0.0
C1703 C 0.97913 0.84003 0.85523 0.0
C1704 C 0.94155 0.82803 0.88195 0.0
C1705 C 0.99029 0.81546 0.8604 0.0
C1706 C 0.97753 0.79746 0.8766 0.0
C1707 C 0.94103 0.78651 0.9054 0.0
C1708 C 0.9174 0.79355 0.91763 0.0
C1709 C 0.95329 0.80371 0.88779 0.0
C1710 C 0.90545 0.81735 0.91068 0.0
C1711 C 0.91732 0.83433 0.89295 0.0
H1712 H 0.19395 0.07772 0.18912 0.0
H1713 H 0.13887 0.01935 0.16388 0.0
H1714 H 0.10317 0.04384 0.18479 0.0
H1715 H 0.08802 0.08214 0.21066 0.0
H1716 H 0.14361 0.1411 0.2334 0.0
H1717 H 0.17893 0.1161 0.21324 0.0
C1718 C 0.17409 0.07037 0.18827 0.0
C1719 C 0.16892 0.04672 0.17532 0.0
C1720 C 0.15391 0.08463 0.19997 0.0
C1721 C 0.14317 0.03753 0.17383 0.0
C1722 C 0.12287 0.05147 0.18584 0.0
C1723 C 0.10794 0.08926 0.21131 0.0
C1724 C 0.1134 0.11325 0.22365 0.0
C1725 C 0.12805 0.07501 0.19911 0.0
C1726 C 0.13911 0.12268 0.22399 0.0
C1727 C 0.15923 0.10841 0.21249 0.0
H1728 H 0.31549 0.66912 0.05133 0.0
H1729 H 0.36384 0.61056 0.015 0.0
H1730 H 0.33749 0.5759 0.03456 0.0
H1731 H 0.30163 0.5622 0.06262 0.0
H1732 H 0.25379 0.61966 0.10121 0.0
H1733 H 0.27904 0.65498 0.08036 0.0
C1734 C 0.31997 0.64875 0.04759 0.0
C1735 C 0.34149 0.6423 0.03171 0.0
C1736 C 0.30496 0.62886 0.05938 0.0
C1737 C 0.34748 0.61589 0.02728 0.0
C1738 C 0.33241 0.59612 0.0384 0.0
C1739 C 0.2965 0.58248 0.0662 0.0
C1740 C 0.27561 0.58842 0.08297 0.0
C1741 C 0.31124 0.60238 0.05456 0.0
C1742 C 0.26968 0.61471 0.08816 0.0
C1743 C 0.28409 0.63482 0.07624 0.0
H1744 H 0.83456 0.43467 0.15841 0.0
H1745 H 0.85005 0.50668 0.1992 0.0
H1746 H 0.88176 0.48413 0.22731 0.0
H1747 H 0.90267 0.44287 0.24221 0.0
H1748 H 0.8839 0.37073 0.20301 0.0
H1749 H 0.85591 0.39423 0.17234 0.0
C1750 C 0.84537 0.44554 0.17305 0.0
C1751 C 0.84041 0.47236 0.17647 0.0
C1752 C 0.86266 0.43227 0.18967 0.0
C1753 C 0.85386 0.48608 0.19606 0.0
C1754 C 0.87183 0.47315 0.21219 0.0
C1755 C 0.89254 0.43247 0.2268 0.0
C1756 C 0.89508 0.40511 0.22499 0.0
C1757 C 0.87601 0.44611 0.20951 0.0
C1758 C 0.88184 0.39171 0.20505 0.0
C1759 C 0.86598 0.40515 0.18742 0.0
H1760 H 0.69118 0.84738 0.02915 0.0
H1761 H 0.62734 0.85292 0.08385 0.0
H1762 H 0.6529 0.88191 0.11146 0.0
H1763 H 0.69157 0.90923 0.11795 0.0
H1764 H 0.75528 0.90502 0.06313 0.0
H1765 H 0.73202 0.87147 0.03818 0.0
C1766 C 0.68303 0.85463 0.04729 0.0
C1767 C 0.65712 0.84839 0.05403 0.0
C1768 C 0.6979 0.87146 0.06319 0.0
C1769 C 0.64689 0.85798 0.07768 0.0
C1770 C 0.66161 0.87441 0.09367 0.0
C1771 C 0.70074 0.90034 0.10104 0.0
C1772 C 0.72514 0.9095 0.09246 0.0
C1773 C 0.6869 0.88175 0.08635 0.0
C1774 C 0.73651 0.89822 0.07014 0.0
C1775 C 0.72312 0.8792 0.05576 0.0
H1776 H 0.19468 0.96717 0.30777 0.0
H1777 H 0.13434 0.00825 0.34963 0.0
H1778 H 0.10086 0.98254 0.32665 0.0
H1779 H 0.08928 0.94658 0.29599 0.0
H1780 H 0.1507 0.90434 0.25706 0.0
H1781 H 0.18346 0.9326 0.27724 0.0
C1782 C 0.17416 0.9709 0.31149 0.0
C1783 C 0.16688 0.98989 0.32994 0.0
C1784 C 0.15535 0.95577 0.29876 0.0
C1785 C 0.14031 0.99387 0.3353 0.0
C1786 C 0.12125 0.97918 0.32219 0.0
C1787 C 0.10984 0.94397 0.29173 0.0
C1788 C 0.11776 0.9236 0.27504 0.0
C1789 C 0.12858 0.95988 0.30404 0.0
C1790 C 0.14437 0.91991 0.26992 0.0
C1791 C 0.16301 0.93601 0.28143 0.0
H1792 H 0.18349 0.58998 0.90187 0.0
H1793 H 0.25102 0.5996 0.95114 0.0
H1794 H 0.22798 0.63299 0.97663 0.0
H1795 H 0.1869 0.65649 0.98727 0.0
H1796 H 0.11922 0.64438 0.93877 0.0
H1797 H 0.14402 0.61521 0.91049 0.0
C1798 C 0.19346 0.59989 0.91772 0.0
C1799 C 0.21902 0.59247 0.92445 0.0
C1800 C 0.17986 0.61839 0.93269 0.0
C1801 C 0.23136 0.60502 0.94554 0.0
C1802 C 0.21816 0.62402 0.96017 0.0
C1803 C 0.1778 0.64766 0.97031 0.0
C1804 C 0.15119 0.65228 0.96531 0.0
C1805 C 0.19214 0.6304 0.95433 0.0
C1806 C 0.13953 0.64071 0.94332 0.0
C1807 C 0.15373 0.62412 0.92706 0.0
H1808 H 0.86296 0.6128 0.26632 0.0
H1809 H 0.92818 0.56859 0.29571 0.0
H1810 H 0.89857 0.54099 0.32134 0.0
H1811 H 0.8537 0.53037 0.33639 0.0
H1812 H 0.78891 0.57437 0.30541 0.0
H1813 H 0.81862 0.60124 0.27961 0.0
C1814 C 0.8706 0.5971 0.27836 0.0
C1815 C 0.89758 0.59274 0.27924 0.0
C1816 C 0.85352 0.58135 0.29283 0.0
C1817 C 0.90738 0.57213 0.29458 0.0
C1818 C 0.89049 0.55648 0.30935 0.0
C1819 C 0.84626 0.5458 0.32389 0.0
C1820 C 0.81927 0.55037 0.32261 0.0
C1821 C 0.86349 0.56104 0.30878 0.0
C1822 C 0.80966 0.57036 0.3064 0.0
C1823 C 0.8266 0.58578 0.29173 0.0
H1824 H 0.8315 0.84036 0.96401 0.0
H1825 H 0.87623 0.89728 0.00721 0.0
H1826 H 0.85352 0.9327 0.98504 0.0
H1827 H 0.82214 0.94766 0.95304 0.0
H1828 H 0.77567 0.89221 0.90987 0.0
H1829 H 0.79822 0.85598 0.93202 0.0
C1830 C 0.83597 0.86052 0.96875 0.0
C1831 C 0.85565 0.86616 0.98721 0.0
C1832 C 0.82275 0.881 0.9558 0.0
C1833 C 0.86148 0.8924 0.99288 0.0
C1834 C 0.84845 0.91268 0.98026 0.0
C1835 C 0.81646 0.92768 0.94874 0.0
C1836 C 0.79682 0.92273 0.93015 0.0
C1837 C 0.82921 0.90721 0.96164 0.0
C1838 C 0.79063 0.89662 0.92414 0.0
C1839 C 0.80344 0.87592 0.9369 0.0
H1840 H 0.21677 0.0856 0.07746 0.0
H1841 H 0.26625 0.14528 0.11069 0.0
H1842 H 0.24568 0.1782 0.08309 0.0
H1843 H 0.21235 0.19048 0.05139 0.0
H1844 H 0.16269 0.13137 0.01757 0.0
H1845 H 0.18489 0.09767 0.0434 0.0
C1846 C 0.22335 0.10571 0.07843 0.0
C1847 C 0.24299 0.1129 0.09637 0.0
C1848 C 0.21142 0.12464 0.0624 0.0
C1849 C 0.25091 0.1392 0.0975 0.0
C1850 C 0.23927 0.15805 0.08157 0.0
C1851 C 0.20676 0.17015 0.04907 0.0
C1852 C 0.18602 0.16347 0.03229 0.0
C1853 C 0.21935 0.15103 0.06416 0.0
C1854 C 0.17857 0.13707 0.0303 0.0
C1855 C 0.19124 0.11781 0.0451 0.0
H1856 H 0.20086 0.93143 0.4314 0.0
H1857 H 0.24532 0.87675 0.38542 0.0
H1858 H 0.22627 0.84017 0.40947 0.0
H1859 H 0.1961 0.82364 0.44219 0.0
H1860 H 0.14944 0.87697 0.48759 0.0
H1861 H 0.16984 0.91429 0.465 0.0
C1862 C 0.20646 0.91147 0.42699 0.0
C1863 C 0.22449 0.90665 0.40677 0.0
C1864 C 0.19488 0.89042 0.44058 0.0
C1865 C 0.2314 0.88078 0.40083 0.0
C1866 C 0.22053 0.85993 0.41455 0.0
C1867 C 0.19061 0.84345 0.44743 0.0
C1868 C 0.17163 0.8476 0.46683 0.0
C1869 C 0.20212 0.86451 0.43426 0.0
C1870 C 0.16412 0.87334 0.47281 0.0
C1871 C 0.17583 0.89461 0.45994 0.0
H1872 H 0.16657 0.54739 0.82571 0.0
H1873 H 0.10695 0.50445 0.86684 0.0
H1874 H 0.07323 0.52494 0.84002 0.0
H1875 H 0.06061 0.55604 0.80638 0.0
H1876 H 0.11907 0.60108 0.76578 0.0
H1877 H 0.15353 0.57904 0.79104 0.0
C1878 C 0.1462 0.54239 0.82845 0.0
C1879 C 0.13912 0.5244 0.84809 0.0
C1880 C 0.12685 0.55473 0.81327 0.0
C1881 C 0.1127 0.51833 0.8519 0.0
C1882 C 0.09349 0.53 0.83659 0.0
C1883 C 0.08094 0.56076 0.80271 0.0
C1884 C 0.08738 0.57979 0.78392 0.0
C1885 C 0.10033 0.54836 0.81743 0.0
C1886 C 0.11371 0.58636 0.78004 0.0
C1887 C 0.13334 0.57374 0.79444 0.0
H1888 H 0.74476 0.64466 0.41735 0.0
H1889 H 0.78553 0.57457 0.44006 0.0
H1890 H 0.81424 0.60007 0.46849 0.0
H1891 H 0.8295 0.64305 0.48493 0.0
H1892 H 0.78802 0.71279 0.4617 0.0
H1893 H 0.75795 0.68682 0.43581 0.0
C1894 C 0.75987 0.63503 0.42865 0.0
C1895 C 0.76306 0.60787 0.42655 0.0
C1896 C 0.77626 0.64979 0.44494 0.0
C1897 C 0.7825 0.59548 0.44152 0.0
C1898 C 0.79906 0.61007 0.45766 0.0
C1899 C 0.81372 0.65245 0.47439 0.0
C1900 C 0.81093 0.67981 0.47556 0.0
C1901 C 0.79637 0.63734 0.45926 0.0
C1902 C 0.79036 0.69173 0.46171 0.0
C1903 C 0.77323 0.67693 0.44662 0.0
H1904 H 0.35577 0.43006 0.35418 0.0
H1905 H 0.35238 0.49958 0.30657 0.0
H1906 H 0.37911 0.47833 0.27314 0.0
H1907 H 0.40731 0.44172 0.2599 0.0
H1908 H 0.41237 0.3732 0.30905 0.0
H1909 H 0.38039 0.39188 0.33886 0.0
C1910 C 0.36095 0.44055 0.33651 0.0
C1911 C 0.35263 0.46654 0.33308 0.0
C1912 C 0.37637 0.42825 0.3175 0.0
C1913 C 0.35872 0.47962 0.30971 0.0
C1914 C 0.37401 0.46748 0.29062 0.0
C1915 C 0.40106 0.43069 0.27691 0.0
C1916 C 0.41246 0.40619 0.28228 0.0
C1917 C 0.38345 0.44202 0.29461 0.0
C1918 C 0.4038 0.39195 0.30417 0.0
C1919 C 0.38579 0.40281 0.32153 0.0
H1920 H 0.35825 0.83829 0.56812 0.0
H1921 H 0.31095 0.85303 0.50008 0.0
H1922 H 0.28561 0.88559 0.52441 0.0
H1923 H 0.27431 0.90661 0.56644 0.0
H1924 H 0.32069 0.88974 0.63469 0.0
H1925 H 0.34891 0.8613 0.609 0.0
C1926 C 0.3429 0.84921 0.5584 0.0
C1927 C 0.33666 0.84353 0.53227 0.0
C1928 C 0.32788 0.86711 0.57276 0.0
C1929 C 0.31621 0.85726 0.52013 0.0
C1930 C 0.30162 0.87571 0.5341 0.0
C1931 C 0.29076 0.89689 0.57555 0.0
C1932 C 0.29509 0.89995 0.60253 0.0
C1933 C 0.30682 0.88027 0.56064 0.0
C1934 C 0.31649 0.88721 0.61413 0.0
C1935 C 0.33279 0.8711 0.59939 0.0
H1936 H 0.16744 0.47774 0.69187 0.0
H1937 H 0.10793 0.52669 0.65814 0.0
H1938 H 0.07515 0.50733 0.68706 0.0
H1939 H 0.06271 0.47301 0.71759 0.0
H1940 H 0.121 0.42095 0.74902 0.0
H1941 H 0.15519 0.44505 0.72554 0.0
C1942 C 0.14738 0.48446 0.69139 0.0
C1943 C 0.13991 0.50355 0.67304 0.0
C1944 C 0.12852 0.47253 0.70745 0.0
C1945 C 0.11388 0.51193 0.67211 0.0
C1946 C 0.09523 0.50086 0.68858 0.0
C1947 C 0.08298 0.4674 0.72001 0.0
C1948 C 0.08937 0.44539 0.73524 0.0
C1949 C 0.10221 0.48066 0.70577 0.0
C1950 C 0.11566 0.43789 0.73748 0.0
C1951 C 0.13514 0.45159 0.72398 0.0
H1952 H 0.90089 0.09631 0.71642 0.0
H1953 H 0.966 0.04841 0.69261 0.0
H1954 H 0.93706 0.02084 0.66693 0.0
H1955 H 0.89344 0.01098 0.64986 0.0
H1956 H 0.82791 0.05777 0.67398 0.0
H1957 H 0.85662 0.08512 0.70072 0.0
C1958 C 0.90862 0.07972 0.70574 0.0
C1959 C 0.93549 0.07429 0.70667 0.0
C1960 C 0.89182 0.06385 0.69087 0.0
C1961 C 0.9453 0.05272 0.69271 0.0
C1962 C 0.92882 0.03706 0.67777 0.0
C1963 C 0.88558 0.02723 0.66093 0.0
C1964 C 0.85876 0.03249 0.65992 0.0
C1965 C 0.90211 0.04257 0.6765 0.0
C1966 C 0.84855 0.05332 0.67464 0.0
C1967 C 0.86495 0.06898 0.68985 0.0
H1968 H 0.56472 0.65131 0.67095 0.0
H1969 H 0.4971 0.69929 0.6565 0.0
H1970 H 0.52185 0.72524 0.62467 0.0
H1971 H 0.56391 0.73646 0.60387 0.0
H1972 H 0.63181 0.68943 0.62032 0.0
H1973 H 0.60589 0.66103 0.64857 0.0
C1974 C 0.55521 0.66699 0.66026 0.0
C1975 C 0.52903 0.67317 0.6657 0.0
C1976 C 0.56981 0.68232 0.6428 0.0
C1977 C 0.51716 0.69405 0.65237 0.0
C1978 C 0.53136 0.70897 0.63435 0.0
C1979 C 0.57291 0.71984 0.61346 0.0
C1980 C 0.59983 0.7153 0.61027 0.0
C1981 C 0.55788 0.70367 0.62988 0.0
C1982 C 0.61129 0.69374 0.62292 0.0
C1983 C 0.59643 0.67735 0.6389 0.0
H1984 H 0.92047 0.23676 0.60281 0.0
H1985 H 0.96224 0.21279 0.53365 0.0
H1986 H 0.99355 0.18891 0.56028 0.0
H1987 H 0.00661 0.17105 0.60286 0.0
H1988 H 0.96645 0.19557 0.67244 0.0
H1989 H 0.93716 0.22313 0.64629 0.0
C1990 C 0.93669 0.22664 0.5937 0.0
C1991 C 0.93903 0.22661 0.56631 0.0
C1992 C 0.95481 0.21288 0.60921 0.0
C1993 C 0.96017 0.21345 0.55471 0.0
C1994 C 0.978 0.19957 0.5699 0.0
C1995 C 0.99168 0.18283 0.61219 0.0
C1996 C 0.98847 0.18131 0.63934 0.0
C1997 C 0.97515 0.19864 0.59708 0.0
C1998 C 0.96927 0.19667 0.6515 0.0
C1999 C 0.95245 0.21223 0.63654 0.0
H2000 H 0.43632 0.79531 0.58803 0.0
H2001 H 0.38945 0.75327 0.64395 0.0
H2002 H 0.41609 0.77012 0.67972 0.0
H2003 H 0.45048 0.79884 0.69527 0.0
H2004 H 0.4967 0.84333 0.64063 0.0
H2005 H 0.47249 0.82375 0.60407 0.0
C2006 C 0.43233 0.78964 0.60806 0.0
C2007 C 0.41104 0.77309 0.6135 0.0
C2008 C 0.44741 0.80002 0.62864 0.0
C2009 C 0.40567 0.7661 0.63946 0.0
C2010 C 0.42088 0.77571 0.65985 0.0
C2011 C 0.45572 0.80386 0.67535 0.0
C2012 C 0.47567 0.82218 0.67064 0.0
C2013 C 0.4415 0.79296 0.6547 0.0
C2014 C 0.48151 0.82917 0.64473 0.0
C2015 C 0.46768 0.81797 0.62387 0.0
H2016 H 0.01646 0.32368 0.65036 0.0
H2017 H 0.0771 0.38202 0.64479 0.0
H2018 H 0.10263 0.35338 0.6169 0.0
H2019 H 0.10628 0.31363 0.59114 0.0
H2020 H 0.0462 0.25465 0.59561 0.0
H2021 H 0.02203 0.28153 0.62701 0.0
C2022 C 0.03536 0.32996 0.64321 0.0
C2023 C 0.04455 0.35522 0.64926 0.0
C2024 C 0.05005 0.3133 0.62694 0.0
C2025 C 0.06914 0.36306 0.63985 0.0
C2026 C 0.0839 0.34659 0.62403 0.0
C2027 C 0.08831 0.30618 0.59955 0.0
C2028 C 0.07821 0.28201 0.59117 0.0
C2029 C 0.07436 0.3219 0.61707 0.0
C2030 C 0.05443 0.27317 0.60174 0.0
C2031 C 0.04057 0.28859 0.61961 0.0
H2032 H 0.60424 0.32338 0.89863 0.0
H2033 H 0.5573 0.25358 0.90252 0.0
H2034 H 0.52295 0.27501 0.87698 0.0
H2035 H 0.50871 0.31199 0.8496 0.0
H2036 H 0.55669 0.38122 0.84473 0.0
H2037 H 0.58772 0.36209 0.87538 0.0
C2038 C 0.58648 0.31292 0.89383 0.0
C2039 C 0.58347 0.28678 0.90184 0.0
C2040 C 0.5669 0.3254 0.87926 0.0
C2041 C 0.56006 0.27364 0.8963 0.0
C2042 C 0.54047 0.28589 0.88174 0.0
C2043 C 0.52569 0.32308 0.8557 0.0
C2044 C 0.53045 0.3479 0.84472 0.0
C2045 C 0.54397 0.31157 0.87261 0.0
C2046 C 0.55236 0.36221 0.85305 0.0
C2047 C 0.57037 0.3511 0.87027 0.0
H2048 H 0.60743 0.19654 0.41309 0.0
H2049 H 0.55024 0.25789 0.40512 0.0
H2050 H 0.52699 0.23216 0.37214 0.0
H2051 H 0.5203 0.19003 0.34971 0.0
H2052 H 0.57709 0.12846 0.3592 0.0
H2053 H 0.60313 0.15644 0.38749 0.0
C2054 C 0.59039 0.20469 0.40347 0.0
C2055 C 0.58066 0.22915 0.41132 0.0
C2056 C 0.5767 0.18943 0.38534 0.0
C2057 C 0.55814 0.23914 0.39924 0.0
C2058 C 0.54475 0.22434 0.38059 0.0
C2059 C 0.53853 0.18289 0.35773 0.0
C2060 C 0.54645 0.15701 0.35276 0.0
C2061 C 0.55338 0.19909 0.37416 0.0
C2062 C 0.57013 0.14801 0.36331 0.0
C2063 C 0.58517 0.16409 0.37933 0.0
H2064 H 0.39833 0.18509 0.89576 0.0
H2065 H 0.44991 0.25138 0.90196 0.0
H2066 H 0.48284 0.22842 0.87588 0.0
H2067 H 0.49525 0.19082 0.84832 0.0
H2068 H 0.44201 0.12568 0.8409 0.0
H2069 H 0.41187 0.14652 0.87097 0.0
C2070 C 0.41672 0.19457 0.89129 0.0
C2071 C 0.42148 0.22011 0.9003 0.0
C2072 C 0.4354 0.1813 0.87629 0.0
C2073 C 0.44576 0.23179 0.89511 0.0
C2074 C 0.46454 0.21867 0.88018 0.0
C2075 C 0.47719 0.18105 0.85351 0.0
C2076 C 0.47105 0.15666 0.84219 0.0
C2077 C 0.45937 0.19359 0.87025 0.0
C2078 C 0.44766 0.14417 0.84951 0.0
C2079 C 0.43012 0.15628 0.86647 0.0
H2080 H 0.41719 0.27448 0.39702 0.0
H2081 H 0.46751 0.29686 0.46089 0.0
H2082 H 0.49481 0.32181 0.43117 0.0
H2083 H 0.50233 0.34081 0.38789 0.0
H2084 H 0.45277 0.31923 0.32356 0.0
H2085 H 0.42728 0.29056 0.35241 0.0
C2086 C 0.43429 0.28458 0.40434 0.0
C2087 C 0.44022 0.28363 0.43122 0.0
C2088 C 0.44991 0.29934 0.38709 0.0
C2089 C 0.46262 0.29674 0.44031 0.0
C2090 C 0.47816 0.31133 0.42335 0.0
C2091 C 0.48603 0.32967 0.38024 0.0
C2092 C 0.4792 0.33227 0.35382 0.0
C2093 C 0.47165 0.31328 0.39687 0.0
C2094 C 0.45837 0.31743 0.34388 0.0
C2095 C 0.44375 0.30118 0.3604 0.0
H2096 H 0.60764 0.61098 0.68584 0.0
H2097 H 0.5993 0.56089 0.75314 0.0
H2098 H 0.62625 0.5275 0.73211 0.0
H2099 H 0.65478 0.51406 0.6959 0.0
H2100 H 0.66449 0.56555 0.62961 0.0
H2101 H 0.63386 0.59641 0.64855 0.0
C2102 C 0.61188 0.59282 0.69595 0.0
C2103 C 0.60191 0.58857 0.72117 0.0
C2104 C 0.62737 0.5738 0.68376 0.0
C2105 C 0.60685 0.56462 0.73374 0.0
C2106 C 0.62226 0.54555 0.72173 0.0
C2107 C 0.65 0.53191 0.68547 0.0
C2108 C 0.66214 0.5374 0.66139 0.0
C2109 C 0.63295 0.55011 0.6969 0.0
C2110 C 0.65529 0.56046 0.64796 0.0
C2111 C 0.638 0.5784 0.65897 0.0
H2112 H 0.82088 0.16503 0.5402 0.0
H2113 H 0.86748 0.10617 0.50209 0.0
H2114 H 0.84332 0.07173 0.52481 0.0
H2115 H 0.80974 0.05836 0.5561 0.0
H2116 H 0.76422 0.11665 0.59629 0.0
H2117 H 0.78712 0.15142 0.57225 0.0
C2118 C 0.82551 0.14464 0.53673 0.0
C2119 C 0.84587 0.1381 0.51938 0.0
C2120 C 0.81179 0.12493 0.55028 0.0
C2121 C 0.85203 0.11164 0.51543 0.0
C2122 C 0.83817 0.09198 0.52836 0.0
C2123 C 0.80458 0.07868 0.55935 0.0
C2124 C 0.78501 0.08495 0.57762 0.0
C2125 C 0.81812 0.09839 0.54588 0.0
C2126 C 0.77909 0.11137 0.58221 0.0
C2127 C 0.79218 0.13119 0.56846 0.0
H2128 H 0.36003 0.99142 0.6941 0.0
H2129 H 0.3471 0.93753 0.63051 0.0
H2130 H 0.37625 0.90595 0.65085 0.0
H2131 H 0.40107 0.89145 0.6892 0.0
H2132 H 0.41221 0.94408 0.754 0.0
H2133 H 0.38792 0.97819 0.7309 0.0
C2134 C 0.36394 0.97293 0.6845 0.0
C2135 C 0.3512 0.96687 0.66088 0.0
C2136 C 0.37993 0.95436 0.69684 0.0
C2137 C 0.35682 0.94296 0.64849 0.0
C2138 C 0.37319 0.92465 0.66034 0.0
C2139 C 0.39804 0.91033 0.69832 0.0
C2140 C 0.40793 0.91506 0.7235 0.0
C2141 C 0.38403 0.92975 0.68496 0.0
C2142 C 0.40463 0.93993 0.7347 0.0
C2143 C 0.39076 0.95941 0.7215 0.0
H2144 H 0.17792 0.42442 0.60609 0.0
H2145 H 0.24544 0.41757 0.55623 0.0
H2146 H 0.22339 0.38363 0.53069 0.0
H2147 H 0.18345 0.35823 0.52069 0.0
H2148 H 0.11635 0.36601 0.57101 0.0
H2149 H 0.13977 0.39705 0.59826 0.0
C2150 C 0.18816 0.41506 0.59008 0.0
C2151 C 0.21337 0.4235 0.58319 0.0
C2152 C 0.17524 0.39593 0.57529 0.0
C2153 C 0.22598 0.41154 0.5619 0.0
C2154 C 0.21336 0.39215 0.54727 0.0
C2155 C 0.17411 0.36652 0.53778 0.0
C2156 C 0.14799 0.36009 0.54348 0.0
C2157 C 0.18775 0.38457 0.55345 0.0
C2158 C 0.13615 0.37105 0.56572 0.0
C2159 C 0.14962 0.3887 0.58148 0.0
H2160 H 0.63925 0.48096 0.8397 0.0
H2161 H 0.70116 0.46771 0.784 0.0
H2162 H 0.67192 0.44208 0.75689 0.0
H2163 H 0.6297 0.42068 0.75016 0.0
H2164 H 0.56744 0.43305 0.80529 0.0
H2165 H 0.59571 0.46157 0.83137 0.0
C2166 C 0.64625 0.47262 0.82154 0.0
C2167 C 0.67241 0.47651 0.81395 0.0
C2168 C 0.62931 0.45747 0.80599 0.0
C2169 C 0.68107 0.46563 0.79021 0.0
C2170 C 0.66441 0.45064 0.77474 0.0
C2171 C 0.62237 0.42967 0.76788 0.0
C2172 C 0.59666 0.42462 0.77592 0.0
C2173 C 0.63867 0.44604 0.78265 0.0
C2174 C 0.58716 0.43676 0.79865 0.0
C2175 C 0.60336 0.45295 0.81361 0.0
H2176 H 0.6881 0.15396 0.4862 0.0
H2177 H 0.62645 0.1479 0.42924 0.0
H2178 H 0.65323 0.11911 0.40248 0.0
H2179 H 0.6921 0.09192 0.39756 0.0
H2180 H 0.75345 0.09584 0.45503 0.0
H2181 H 0.72924 0.12948 0.47901 0.0
C2182 C 0.68079 0.14663 0.46773 0.0
C2183 C 0.65515 0.15268 0.45996 0.0
C2184 C 0.69626 0.12966 0.45253 0.0
C2185 C 0.64587 0.14304 0.43597 0.0
C2186 C 0.66123 0.12668 0.42056 0.0
C2187 C 0.70057 0.10071 0.41488 0.0
C2188 C 0.72459 0.09152 0.42442 0.0
C2189 C 0.68619 0.11934 0.42896 0.0
C2190 C 0.73498 0.10265 0.44729 0.0
C2191 C 0.72107 0.12176 0.46107 0.0
H2192 H 0.34581 0.01574 0.81515 0.0
H2193 H 0.33886 0.07029 0.87899 0.0
H2194 H 0.37112 0.09893 0.85851 0.0
H2195 H 0.39771 0.11063 0.82011 0.0
H2196 H 0.40414 0.05641 0.75603 0.0
H2197 H 0.37552 0.02554 0.77874 0.0
C2198 C 0.35176 0.03367 0.82478 0.0
C2199 C 0.33992 0.04091 0.84849 0.0
C2200 C 0.36979 0.05034 0.81256 0.0
C2201 C 0.34791 0.06409 0.8609 0.0
C2202 C 0.36608 0.08067 0.84901 0.0
C2203 C 0.39277 0.09207 0.81117 0.0
C2204 C 0.40259 0.08593 0.78626 0.0
C2205 C 0.37648 0.07439 0.82444 0.0
C2206 C 0.39666 0.06154 0.77513 0.0
C2207 C 0.38033 0.04393 0.7881 0.0
H2208 H 0.31576 0.33844 0.46383 0.0
H2209 H 0.35696 0.39738 0.50749 0.0
H2210 H 0.33039 0.43163 0.48743 0.0
H2211 H 0.2983 0.44495 0.45517 0.0
H2212 H 0.25839 0.38718 0.40866 0.0
H2213 H 0.28164 0.35214 0.43197 0.0
C2214 C 0.31847 0.35878 0.46915 0.0
C2215 C 0.33815 0.36557 0.48709 0.0
C2216 C 0.30358 0.37843 0.45688 0.0
C2217 C 0.34195 0.39191 0.49364 0.0
C2218 C 0.3268 0.41141 0.48218 0.0
C2219 C 0.29413 0.42467 0.45052 0.0
C2220 C 0.2763 0.41863 0.43053 0.0
C2221 C 0.30793 0.40492 0.46347 0.0
C2222 C 0.2719 0.39228 0.42411 0.0
C2223 C 0.2852 0.37231 0.43741 0.0
H2224 H 0.73892 0.60069 0.56347 0.0
H2225 H 0.69019 0.61009 0.63148 0.0
H2226 H 0.66097 0.63873 0.60716 0.0
H2227 H 0.65138 0.6643 0.56797 0.0
H2228 H 0.70104 0.6577 0.50034 0.0
H2229 H 0.72755 0.62465 0.52278 0.0
C2230 C 0.72173 0.60882 0.57275 0.0
C2231 C 0.71693 0.60355 0.59932 0.0
C2232 C 0.70518 0.6258 0.55869 0.0
C2233 C 0.69462 0.61425 0.61121 0.0
C2234 C 0.6778 0.63053 0.59728 0.0
C2235 C 0.66755 0.65507 0.55786 0.0
C2236 C 0.67406 0.66319 0.53243 0.0
C2237 C 0.68315 0.63686 0.57119 0.0
C2238 C 0.69556 0.65162 0.51987 0.0
C2239 C 0.71079 0.63285 0.53276 0.0
H2240 H 0.67578 0.36644 0.98169 0.0
H2241 H 0.71523 0.29904 0.94994 0.0
H2242 H 0.74136 0.32708 0.92178 0.0
H2243 H 0.751 0.37053 0.90369 0.0
H2244 H 0.71312 0.43838 0.93585 0.0
H2245 H 0.68861 0.41067 0.96631 0.0
C2246 C 0.69036 0.35802 0.96885 0.0
C2247 C 0.69364 0.33071 0.96808 0.0
C2248 C 0.7055 0.37435 0.9526 0.0
C2249 C 0.7126 0.32002 0.95129 0.0
C2250 C 0.72743 0.33602 0.93496 0.0
C2251 C 0.7375 0.37915 0.91755 0.0
C2252 C 0.73371 0.40631 0.91748 0.0
C2253 C 0.72374 0.36314 0.9351 0.0
C2254 C 0.71644 0.41746 0.93569 0.0
C2255 C 0.70232 0.40162 0.95298 0.0
H2256 H 0.65436 0.01234 0.31177 0.0
H2257 H 0.64487 0.06511 0.37671 0.0
H2258 H 0.61653 0.09305 0.35055 0.0
H2259 H 0.59168 0.10061 0.31078 0.0
H2260 H 0.59881 0.04755 0.24574 0.0
H2261 H 0.63091 0.02162 0.2702 0.0
C2262 C 0.64625 0.03012 0.31995 0.0
C2263 C 0.65134 0.03649 0.34621 0.0
C2264 C 0.62954 0.04596 0.30482 0.0
C2265 C 0.64076 0.05954 0.35672 0.0
C2266 C 0.62467 0.07559 0.34174 0.0
C2267 C 0.60077 0.0838 0.30159 0.0
C2268 C 0.59313 0.07623 0.27631 0.0
C2269 C 0.61856 0.06875 0.31596 0.0
C2270 C 0.60448 0.05385 0.26512 0.0
C2271 C 0.62275 0.039 0.27914 0.0
H2272 H 0.26116 0.10416 0.95203 0.0
H2273 H 0.30486 0.11299 0.88068 0.0
H2274 H 0.33581 0.14196 0.90258 0.0
H2275 H 0.34809 0.16781 0.94066 0.0
H2276 H 0.30323 0.16208 0.0117 0.0
H2277 H 0.27513 0.12886 0.99153 0.0
C2278 C 0.27766 0.1123 0.94154 0.0
C2279 C 0.28068 0.1068 0.91479 0.0
C2280 C 0.29504 0.12953 0.95417 0.0
C2281 C 0.30201 0.11739 0.90118 0.0
C2282 C 0.31972 0.13384 0.91371 0.0
C2283 C 0.33261 0.15878 0.952 0.0
C2284 C 0.32795 0.16715 0.97775 0.0
C2285 C 0.31613 0.14046 0.94003 0.0
C2286 C 0.30728 0.15584 0.99189 0.0
C2287 C 0.29117 0.13694 0.98032 0.0
H2288 H 0.8977 0.91875 0.77809 0.0
H2289 H 0.96401 0.96838 0.79418 0.0
H2290 H 0.93703 0.99664 0.82093 0.0
H2291 H 0.89527 0.00632 0.84199 0.0
H2292 H 0.82884 0.9568 0.82725 0.0
H2293 H 0.85505 0.92962 0.798 0.0
C2294 C 0.90618 0.93584 0.78731 0.0
C2295 C 0.93286 0.94144 0.78372 0.0
C2296 C 0.89056 0.95202 0.8032 0.0
C2297 C 0.94345 0.96379 0.79587 0.0
C2298 C 0.92809 0.9799 0.81153 0.0
C2299 C 0.88658 0.98954 0.83242 0.0
C2300 C 0.86021 0.98355 0.83692 0.0
C2301 C 0.90175 0.97402 0.81565 0.0
C2302 C 0.84905 0.962 0.82398 0.0
C2303 C 0.86408 0.94635 0.80734 0.0
H2304 H 0.79971 0.33892 0.00573 0.0
H2305 H 0.87539 0.34489 0.0424 0.0
H2306 H 0.85886 0.37814 0.07195 0.0
H2307 H 0.82159 0.40095 0.09157 0.0
H2308 H 0.74574 0.39532 0.05597 0.0
H2309 H 0.76345 0.36639 0.02201 0.0
C2310 C 0.8127 0.34786 0.01986 0.0
C2311 C 0.83874 0.33913 0.02187 0.0
C2312 C 0.80286 0.36661 0.03742 0.0
C2313 C 0.85538 0.35129 0.04007 0.0
C2314 C 0.84583 0.3701 0.05733 0.0
C2315 C 0.80905 0.39346 0.07624 0.0
C2316 C 0.78236 0.39966 0.07645 0.0
C2317 C 0.81942 0.3771 0.05686 0.0
C2318 C 0.76632 0.39053 0.05619 0.0
C2319 C 0.77645 0.37401 0.03687 0.0
H2320 H 0.60142 0.91439 0.22758 0.0
H2321 H 0.53725 0.96184 0.2003 0.0
H2322 H 0.56698 0.988 0.1741 0.0
H2323 H 0.61076 0.99606 0.15671 0.0
H2324 H 0.67537 0.94931 0.1834 0.0
H2325 H 0.64609 0.92427 0.21189 0.0
C2326 C 0.59403 0.93058 0.21605 0.0
C2327 C 0.56712 0.93618 0.21615 0.0
C2328 C 0.61129 0.94557 0.20069 0.0
C2329 C 0.55789 0.95734 0.20112 0.0
C2330 C 0.57484 0.9722 0.18584 0.0
C2331 C 0.61836 0.98037 0.16877 0.0
C2332 C 0.64506 0.97437 0.16783 0.0
C2333 C 0.60148 0.96626 0.18515 0.0
C2334 C 0.65485 0.95433 0.18391 0.0
C2335 C 0.63811 0.93997 0.2001 0.0
H2336 H 0.35152 0.56664 0.14563 0.0
H2337 H 0.34413 0.49855 0.19474 0.0
H2338 H 0.37346 0.51832 0.22701 0.0
H2339 H 0.40376 0.5538 0.23949 0.0
H2340 H 0.41129 0.62128 0.18917 0.0
H2341 H 0.37902 0.60321 0.1595 0.0
C2342 C 0.35644 0.55611 0.16335 0.0
C2343 C 0.34613 0.53099 0.16761 0.0
C2344 C 0.37316 0.56762 0.18172 0.0
C2345 C 0.35198 0.51786 0.19102 0.0
C2346 C 0.36875 0.52915 0.20941 0.0
C2347 C 0.39807 0.56468 0.22221 0.0
C2348 C 0.40998 0.58892 0.21671 0.0
C2349 C 0.3798 0.55387 0.20476 0.0
C2350 C 0.40219 0.60285 0.19428 0.0
C2351 C 0.38394 0.59236 0.17703 0.0
H2352 H 0.99257 0.04199 0.30848 0.0
H2353 H 0.04354 0.06291 0.24472 0.0
H2354 H 0.04416 0.01755 0.22993 0.0
H2355 H 0.02958 0.97156 0.23466 0.0
H2356 H 0.97605 0.95187 0.29678 0.0
H2357 H 0.97701 0.99677 0.31237 0.0
C2358 C 0.00396 0.03661 0.29145 0.0
C2359 C 0.01823 0.05589 0.278 0.0
C2360 C 0.00362 0.01056 0.28254 0.0
C2361 C 0.03251 0.04855 0.25566 0.0
C2362 C 0.03283 0.02255 0.2471 0.0
C2363 C 0.0181 0.97715 0.25155 0.0
C2364 C 0.00272 0.95826 0.26441 0.0
C2365 C 0.01835 1.00334 0.2603 0.0
C2366 C 0.98791 0.96592 0.28628 0.0
C2367 C 0.98851 0.99166 0.29535 0.0
H2368 H 0.28559 0.792 0.01251 0.0
H2369 H 0.29207 0.71172 0.98746 0.0
H2370 H 0.24488 0.70611 0.9925 0.0
H2371 H 0.20123 0.72454 0.00327 0.0
H2372 H 0.19566 0.8055 0.02633 0.0
H2373 H 0.24286 0.81014 0.02311 0.0
C2374 C 0.27678 0.77322 0.00812 0.0
C2375 C 0.29255 0.75233 0.99966 0.0
C2376 C 0.24964 0.7702 0.01086 0.0
C2377 C 0.28055 0.72819 0.99403 0.0
C2378 C 0.2535 0.72494 0.99696 0.0
C2379 C 0.21042 0.74306 0.00788 0.0
C2380 C 0.19488 0.76463 0.01514 0.0
C2381 C 0.23777 0.74584 0.00536 0.0
C2382 C 0.2071 0.78861 0.02066 0.0
C2383 C 0.23413 0.79132 0.01878 0.0
H2384 H 0.04271 0.53839 0.25927 0.0
H2385 H 0.96343 0.54799 0.2326 0.0
H2386 H 0.956 0.50096 0.23716 0.0
H2387 H 0.9723 0.45653 0.2486 0.0
H2388 H 0.05272 0.44741 0.27163 0.0
H2389 H 0.05934 0.49459 0.26874 0.0
C2390 C 0.02376 0.53029 0.25441 0.0
C2391 C 0.00357 0.54698 0.24602 0.0
C2392 C 0.01979 0.50313 0.25652 0.0
C2393 C 0.97929 0.53585 0.23949 0.0
C2394 C 0.97501 0.50885 0.24206 0.0
C2395 C 0.99116 0.46498 0.25318 0.0
C2396 C 0.01195 0.44851 0.26055 0.0
C2397 C 0.9951 0.49225 0.25068 0.0
C2398 C 0.03643 0.45965 0.26594 0.0
C2399 C 0.04024 0.48665 0.26427 0.0
H2400 H 0.7968 0.74698 0.97851 0.0
H2401 H 0.8055 0.75793 0.06148 0.0
H2402 H 0.75791 0.75824 0.06679 0.0
H2403 H 0.71377 0.7538 0.04778 0.0
H2404 H 0.70505 0.7477 0.9643 0.0
H2405 H 0.75263 0.74723 0.95902 0.0
C2406 C 0.78815 0.74953 0.99769 0.0
C2407 C 0.80441 0.75208 0.01965 0.0
C2408 C 0.76085 0.75052 1.00042 0.0
C2409 C 0.79322 0.75587 0.04437 0.0
C2410 C 0.76607 0.75597 0.04739 0.0
C2411 C 0.7224 0.75248 0.02847 0.0
C2412 C 0.70613 0.75045 0.00646 0.0
C2413 C 0.7497 0.75306 0.02558 0.0
C2414 C 0.71732 0.74923 0.98147 0.0
C2415 C 0.74447 0.74888 0.97848 0.0
H2416 H 0.2514 0.02921 0.96463 0.0
H2417 H 0.22686 0.94881 0.95791 0.0
H2418 H 0.2314 0.94294 0.00501 0.0
H2419 H 0.24365 0.96003 0.04797 0.0
H2420 H 0.27097 0.03959 0.05482 0.0
H2421 H 0.2642 0.04633 0.00808 0.0
C2422 C 0.24675 0.01056 0.97359 0.0
C2423 C 0.23863 0.98952 0.95783 0.0
C2424 C 0.25016 0.00706 1.00074 0.0
C2425 C 0.23312 0.9653 0.96962 0.0
C2426 C 0.23578 0.9619 0.99656 0.0
C2427 C 0.24815 0.97887 0.0393 0.0
C2428 C 0.25766 0.99927 0.05509 0.0
C2429 C 0.24457 0.98252 0.01229 0.0
C2430 C 0.26349 0.0235 0.04332 0.0
C2431 C 0.25961 0.02741 0.0165 0.0
H2432 H 0.21145 0.49102 0.29502 0.0
H2433 H 0.28867 0.52464 0.29752 0.0
H2434 H 0.29211 0.52084 0.25005 0.0
H2435 H 0.27289 0.50815 0.20746 0.0
H2436 H 0.19456 0.47744 0.20531 0.0
H2437 H 0.19187 0.4799 0.25289 0.0
C2438 C 0.22907 0.49759 0.28526 0.0
C2439 C 0.2499 0.50776 0.30004 0.0
C2440 C 0.23074 0.49577 0.2579 0.0
C2441 C 0.27241 0.51642 0.28684 0.0
C2442 C 0.2744 0.51428 0.2596 0.0
C2443 C 0.25541 0.5017 0.21748 0.0
C2444 C 0.23408 0.49227 0.20292 0.0
C2445 C 0.25373 0.50385 0.24491 0.0
C2446 C 0.21126 0.48466 0.2161 0.0
C2447 C 0.2097 0.4861 0.24331 0.0
H2448 H 0.71463 0.50486 0.96025 0.0
H2449 H 0.79658 0.52003 0.94891 0.0
H2450 H 0.80336 0.52026 0.99633 0.0
H2451 H 0.7858 0.51621 0.04106 0.0
H2452 H 0.70472 0.49664 0.05216 0.0
H2453 H 0.69767 0.49798 0.00483 0.0
C2454 C 0.73393 0.50834 0.96824 0.0
C2455 C 0.75504 0.51283 0.95125 0.0
C2456 C 0.73777 0.5076 0.99544 0.0
C2457 C 0.78006 0.51667 0.9617 0.0
C2458 C 0.78391 0.51682 0.98877 0.0
C2459 C 0.76658 0.51236 0.03307 0.0
C2460 C 0.7457 0.50669 0.05001 0.0
C2461 C 0.76289 0.51237 0.00583 0.0
C2462 C 0.72103 0.50115 0.03945 0.0
C2463 C 0.717 0.50194 0.01243 0.0
H2464 H 0.79411 1.00172 0.21648 0.0
H2465 H 0.71186 0.01824 0.20914 0.0
H2466 H 0.70615 0.01187 0.25613 0.0
H2467 H 0.7247 1.00184 0.29973 0.0
H2468 H 0.80737 0.98762 0.30672 0.0
H2469 H 0.8126 0.99259 0.25964 0.0
C2470 C 0.77491 0.004 0.2251 0.0
C2471 C 0.75347 0.01033 0.20911 0.0
C2472 C 0.77178 1.00055 0.25221 0.0
C2473 C 0.72877 0.01328 0.22082 0.0
C2474 C 0.72545 0.0096 0.24776 0.0
C2475 C 0.74378 0.99963 0.29091 0.0
C2476 C 0.76559 0.99427 0.3068 0.0
C2477 C 0.74681 1.00315 0.2637 0.0
C2478 C 0.79026 0.9918 0.29501 0.0
C2479 C 0.7933 0.99467 0.26805 0.0
H2480 H 0.25255 0.98163 0.46187 0.0
H2481 H 0.25949 0.06573 0.45843 0.0
H2482 H 0.25569 0.06837 0.50569 0.0
H2483 H 0.25019 0.04737 0.54798 0.0
H2484 H 0.24189 0.96354 0.55287 0.0
H2485 H 0.24607 0.96027 0.50524 0.0
C2486 C 0.25341 1.00046 0.47154 0.0
C2487 C 0.2564 0.02345 0.45655 0.0
C2488 C 0.25072 1.00195 0.499 0.0
C2489 C 0.25714 0.04773 0.46939 0.0
C2490 C 0.25495 0.0493 0.49648 0.0
C2491 C 0.24922 0.02831 0.53872 0.0
C2492 C 0.24581 0.00575 0.5541 0.0
C2493 C 0.25161 0.02661 0.51145 0.0
C2494 C 0.24444 0.98128 0.54158 0.0
C2495 C 0.24695 0.97939 0.51431 0.0
H2496 H 0.26049 0.53707 0.79811 0.0
H2497 H 0.241 0.45516 0.80204 0.0
H2498 H 0.23999 0.45286 0.75419 0.0
H2499 H 0.24586 0.47405 0.71115 0.0
H2500 H 0.26058 0.55691 0.7072 0.0
H2501 H 0.26217 0.55915 0.75509 0.0
C2502 C 0.25602 0.51875 0.7884 0.0
C2503 C 0.25122 0.49619 0.80344 0.0
C2504 C 0.25465 0.51783 0.76094 0.0
C2505 C 0.24487 0.4727 0.79079 0.0
C2506 C 0.24434 0.4714 0.76347 0.0
C2507 C 0.24937 0.49256 0.72088 0.0
C2508 C 0.25351 0.51524 0.70585 0.0
C2509 C 0.24941 0.49378 0.74835 0.0
C2510 C 0.25748 0.53924 0.71849 0.0
C2511 C 0.25843 0.54048 0.74581 0.0
H2512 H 0.78435 0.50939 0.46018 0.0
H2513 H 0.70373 0.48564 0.45739 0.0
H2514 H 0.70286 0.48176 0.50517 0.0
H2515 H 0.72542 0.48442 0.54762 0.0
H2516 H 0.80454 0.51276 0.5509 0.0
H2517 H 0.80577 0.51574 0.50303 0.0
C2518 C 0.76666 0.50334 0.47015 0.0
C2519 C 0.74423 0.49737 0.4555 0.0
C2520 C 0.76612 0.50201 0.4976 0.0
C2521 C 0.7212 0.49016 0.46843 0.0
C2522 C 0.72074 0.48792 0.49566 0.0
C2523 C 0.74292 0.49118 0.53777 0.0
C2524 C 0.76504 0.49794 0.55256 0.0
C2525 C 0.74313 0.49363 0.51042 0.0
C2526 C 0.78739 0.50731 0.53978 0.0
C2527 C 0.78808 0.50897 0.51248 0.0
H2528 H 0.78309 0.0063 0.79984 0.0
H2529 H 0.70035 0.01927 0.80809 0.0
H2530 H 0.69487 0.01643 0.76079 0.0
H2531 H 0.71338 0.00985 0.71702 0.0
H2532 H 0.79548 0.99318 0.70879 0.0
H2533 H 0.80138 0.9977 0.75596 0.0
C2534 C 0.7639 0.00858 0.79128 0.0
C2535 C 0.74218 0.01312 0.80753 0.0
C2536 C 0.76075 0.00616 0.764 0.0
C2537 C 0.71739 0.01572 0.79608 0.0
C2538 C 0.71423 0.01411 0.769 0.0
C2539 C 0.73259 0.00724 0.72551 0.0
C2540 C 0.75399 1.00148 0.70924 0.0
C2541 C 0.73574 0.00925 0.75276 0.0
C2542 C 0.77866 0.99779 0.72072 0.0
C2543 C 0.78207 1.00038 0.74776 0.0
H2544 H 0.95956 0.22985 0.99592 0.0
H2545 H 0.96372 0.28197 0.06204 0.0
H2546 H 0.01103 0.28347 0.05853 0.0
H2547 H 0.05141 0.2713 0.03601 0.0
H2548 H 0.04779 0.22088 0.96856 0.0
H2549 H 1.00046 0.2176 0.97316 0.0
C2550 C 0.97088 0.24135 0.00964 0.0
C2551 C 0.95803 0.25573 0.02922 0.0
C2552 C 0.9983 0.24267 0.00715 0.0
C2553 C 0.973 0.27075 0.04671 0.0
C2554 C 1.00015 0.27167 0.04473 0.0
C2555 C 0.04031 0.25957 0.0223 0.0
C2556 C 0.05327 0.24644 1.00194 0.0
C2557 C 0.01302 0.25795 0.02488 0.0
C2558 C 0.03843 0.23135 0.98437 0.0
C2559 C 0.01129 0.22938 0.98702 0.0
H2560 H 0.96179 0.74998 0.46991 0.0
H2561 H 0.95117 0.74792 0.55351 0.0
H2562 H 0.99828 0.74721 0.55992 0.0
H2563 H 0.04261 0.74733 0.54208 0.0
H2564 H 0.05388 0.74588 0.45858 0.0
H2565 H 0.00672 0.74771 0.45187 0.0
C2566 C 0.96985 0.7494 0.48948 0.0
C2567 C 0.95295 0.7491 0.51119 0.0
C2568 C 0.99716 0.74836 0.49309 0.0
C2569 C 0.96369 0.74804 0.53645 0.0
C2570 C 0.99067 0.7477 0.54016 0.0
C2571 C 0.03481 0.74744 0.52238 0.0
C2572 C 0.05194 0.74689 0.5009 0.0
C2573 C 0.00761 0.74786 0.51866 0.0
C2574 C 0.04132 0.7466 0.47553 0.0
C2575 C 0.01425 0.74761 0.47166 0.0
H2576 H 0.98628 0.79413 0.71485 0.0
H2577 H 0.02923 0.79852 0.78722 0.0
H2578 H 0.02747 0.75088 0.79144 0.0
H2579 H 0.01408 0.70756 0.77412 0.0
H2580 H 0.97468 0.70355 0.69988 0.0
H2581 H 0.97457 0.75133 0.69685 0.0
C2582 C 0.99528 0.78473 0.73158 0.0
C2583 C 0.00757 0.80005 0.75085 0.0
C2584 C 0.99471 0.75729 0.73358 0.0
C2585 C 0.01944 0.78736 0.77217 0.0
C2586 C 0.01843 0.76005 0.77462 0.0
C2587 C 0.00519 0.71727 0.75751 0.0
C2588 C 0.99395 0.70221 0.73744 0.0
C2589 C 0.00605 0.74479 0.75547 0.0
C2590 C 0.98319 0.71485 0.71562 0.0
C2591 C 0.98321 0.74213 0.71386 0.0
H2592 H 0.5195 0.20953 0.21129 0.0
H2593 H 0.49243 0.20412 0.29097 0.0
H2594 H 0.49718 0.25138 0.29599 0.0
H2595 H 0.50826 0.29455 0.2774 0.0
H2596 H 0.53217 0.29997 0.19678 0.0
H2597 H 0.52967 0.25247 0.19258 0.0
C2598 C 0.51465 0.21863 0.22979 0.0
C2599 C 0.50584 0.20313 0.25076 0.0
C2600 C 0.51695 0.2459 0.23241 0.0
C2601 C 0.49944 0.21542 0.27451 0.0
C2602 C 0.50214 0.24251 0.27742 0.0
C2603 C 0.51312 0.28533 0.25901 0.0
C2604 C 0.52048 0.30081 0.23747 0.0
C2605 C 0.51087 0.25798 0.25649 0.0
C2606 C 0.52642 0.28852 0.21365 0.0
C2607 C 0.52496 0.26135 0.21121 0.0
H2608 H 0.45888 0.75245 0.53404 0.0
H2609 H 0.45278 0.73421 0.45201 0.0
H2610 H 0.49999 0.73734 0.44733 0.0
H2611 H 0.5429 0.74657 0.46585 0.0
H2612 H 0.54983 0.76693 0.54734 0.0
H2613 H 0.50266 0.7618 0.55286 0.0
C2614 C 0.46798 0.74884 0.51527 0.0
C2615 C 0.4523 0.74296 0.49343 0.0
C2616 C 0.49532 0.75132 0.51252 0.0
C2617 C 0.46435 0.73879 0.46912 0.0
C2618 C 0.49139 0.74062 0.46639 0.0
C2619 C 0.53419 0.7499 0.48487 0.0
C2620 C 0.55007 0.75708 0.50612 0.0
C2621 C 0.50704 0.74716 0.48785 0.0
C2622 C 0.53821 0.76137 0.53058 0.0
C2623 C 0.51117 0.75839 0.53378 0.0
H2624 H 0.04101 0.30324 0.75471 0.0
H2625 H 0.95861 0.31205 0.7403 0.0
H2626 H 0.95374 0.26436 0.7379 0.0
H2627 H 0.97294 0.2201 0.74098 0.0
H2628 H 0.05599 0.21167 0.75128 0.0
H2629 H 0.06072 0.2593 0.75418 0.0
C2630 C 0.02199 0.29468 0.75105 0.0
C2631 C 1.00011 0.31104 0.74806 0.0
C2632 C 0.01952 0.26737 0.74903 0.0
C2633 C 0.97569 0.2998 0.74275 0.0
C2634 C 0.97291 0.27257 0.74145 0.0
C2635 C 0.99204 0.22877 0.74392 0.0
C2636 C 0.01406 0.2125 0.74635 0.0
C2637 C 0.99466 0.25616 0.74478 0.0
C2638 C 0.03879 0.22386 0.7495 0.0
C2639 C 0.04147 0.25105 0.75119 0.0
H2640 H 0.51985 0.46092 0.75349 0.0
H2641 H 0.43846 0.45851 0.73222 0.0
H2642 H 0.4354 0.50589 0.73742 0.0
H2643 H 0.45555 0.54792 0.74858 0.0
H2644 H 0.53611 0.5501 0.77306 0.0
H2645 H 0.5397 0.503 0.76628 0.0
C2646 C 0.50151 0.47076 0.74984 0.0
C2647 C 0.47945 0.45614 0.74234 0.0
C2648 C 0.49968 0.49801 0.75362 0.0
C2649 C 0.45574 0.46926 0.738 0.0
C2650 C 0.45395 0.49637 0.74102 0.0
C2651 C 0.47391 0.53816 0.75252 0.0
C2652 C 0.49562 0.5528 0.76096 0.0
C2653 C 0.47573 0.51093 0.749 0.0
C2654 C 0.51915 0.53958 0.76617 0.0
C2655 C 0.52123 0.51254 0.76233 0.0
H2656 H 0.69943 0.22296 0.49919 0.0
H2657 H 0.69754 0.29861 0.53633 0.0
H2658 H 0.7451 0.30041 0.53592 0.0
H2659 H 0.7871 0.28134 0.52384 0.0
H2660 H 0.78954 0.207 0.4841 0.0
H2661 H 0.74195 0.20374 0.48679 0.0
C2662 C 0.70944 0.23966 0.50743 0.0
C2663 C 0.69495 0.26056 0.51789 0.0
C2664 C 0.7369 0.24085 0.50656 0.0
C2665 C 0.70824 0.28231 0.52809 0.0
C2666 C 0.73544 0.28335 0.52789 0.0
C2667 C 0.77729 0.26432 0.51589 0.0
C2668 C 0.79193 0.24439 0.5039 0.0
C2669 C 0.74996 0.26286 0.51698 0.0
C2670 C 0.77879 0.22262 0.49346 0.0
C2671 C 0.75156 0.22075 0.49498 0.0
H2672 H 0.47813 0.95156 0.75184 0.0
H2673 H 0.56006 0.94532 0.76998 0.0
H2674 H 0.56525 0.99241 0.76415 0.0
H2675 H 0.54685 0.03529 0.75358 0.0
H2676 H 0.46535 0.04182 0.73336 0.0
H2677 H 0.4597 0.99482 0.74023 0.0
C2678 C 0.497 0.96054 0.75486 0.0
C2679 C 0.51861 0.94489 0.76164 0.0
C2680 C 0.49999 0.98771 0.75089 0.0
C2681 C 0.54309 0.95687 0.76481 0.0
C2682 C 0.5461 0.98382 0.76145 0.0
C2683 C 0.52782 0.02651 0.75058 0.0
C2684 C 0.50653 0.0423 0.74318 0.0
C2685 C 0.52475 0.99942 0.75434 0.0
C2686 C 0.48209 0.03034 0.73927 0.0
C2687 C 0.47882 1.00339 0.74321 0.0
H2688 H 0.28944 0.27354 0.52649 0.0
H2689 H 0.30821 0.22588 0.45951 0.0
H2690 H 0.26269 0.22622 0.44597 0.0
H2691 H 0.21748 0.24013 0.45268 0.0
H2692 H 0.19762 0.28575 0.52068 0.0
H2693 H 0.24336 0.28608 0.53419 0.0
C2694 C 0.28353 0.26321 0.50897 0.0
C2695 C 0.30231 0.24971 0.49408 0.0
C2696 C 0.25704 0.26312 0.50139 0.0
C2697 C 0.29425 0.23632 0.47148 0.0
C2698 C 0.26816 0.23654 0.46363 0.0
C2699 C 0.22311 0.25017 0.47046 0.0
C2700 C 0.20408 0.26312 0.48545 0.0
C2701 C 0.24939 0.24989 0.47838 0.0
C2702 C 0.21179 0.27574 0.50863 0.0
C2703 C 0.23801 0.27593 0.5164 0.0
H2704 H 0.54519 0.29283 0.99982 0.0
H2705 H 0.55531 0.20953 0.00778 0.0
H2706 H 0.50786 0.20356 0.00937 0.0
H2707 H 0.46344 0.22223 0.00896 0.0
H2708 H 0.45321 0.30492 0.99618 0.0
H2709 H 0.50068 0.31108 0.99587 0.0
C2710 C 0.53691 0.27341 1.00198 0.0
C2711 C 0.55359 0.25165 0.0041 0.0
C2712 C 0.50964 0.27009 1.00196 0.0
C2713 C 0.54277 0.22652 0.00625 0.0
C2714 C 0.51569 0.22314 0.00719 0.0
C2715 C 0.47167 0.24158 0.00617 0.0
C2716 C 0.45495 0.26318 0.00298 0.0
C2717 C 0.49893 0.24479 0.00517 0.0
C2718 C 0.46576 0.28806 0.99877 0.0
C2719 C 0.49286 0.29157 0.99865 0.0
H2720 H 0.55152 0.71865 0.26797 0.0
H2721 H 0.4842 0.6971 0.22215 0.0
H2722 H 0.46849 0.74197 0.22345 0.0
H2723 H 0.47385 0.78785 0.23728 0.0
H2724 H 0.5398 0.8088 0.28535 0.0
H2725 H 0.55569 0.76391 0.2837 0.0
C2726 C 0.53343 0.72374 0.25823 0.0
C2727 C 0.51939 0.7044 0.2446 0.0
C2728 C 0.52406 0.74962 0.25959 0.0
C2729 C 0.49574 0.71144 0.23248 0.0
C2730 C 0.48661 0.7372 0.23328 0.0
C2731 C 0.49162 0.78256 0.24751 0.0
C2732 C 0.50555 0.80179 0.2614 0.0
C2733 C 0.50062 0.75651 0.24673 0.0
C2734 C 0.52852 0.79448 0.27461 0.0
C2735 C 0.53774 0.76877 0.2736 0.0
H2736 H 0.05513 0.14081 0.35584 0.0
H2737 H 0.06514 0.21371 0.31414 0.0
H2738 H 0.0855 0.23327 0.35197 0.0
H2739 H 0.09974 0.23076 0.39707 0.0
H2740 H 0.09063 0.15905 0.44038 0.0
H2741 H 0.07115 0.13801 0.40194 0.0
C2742 C 0.06193 0.16088 0.35506 0.0
C2743 C 0.05828 0.17572 0.3321 0.0
C2744 C 0.07381 0.17237 0.37724 0.0
C2745 C 0.06731 0.20175 0.33149 0.0
C2746 C 0.07907 0.21309 0.35318 0.0
C2747 C 0.0933 0.21059 0.39824 0.0
C2748 C 0.09637 0.19665 0.42168 0.0
C2749 C 0.08216 0.19874 0.3762 0.0
C2750 C 0.08855 0.17026 0.42254 0.0
C2751 C 0.07731 0.15825 0.40057 0.0
H2752 H 0.44336 0.70234 0.92915 0.0
H2753 H 0.36231 0.69569 0.90739 0.0
H2754 H 0.37518 0.67557 0.86571 0.0
H2755 H 0.41004 0.6601 0.83552 0.0
H2756 H 0.4907 0.66929 0.85865 0.0
H2757 H 0.47721 0.68774 0.89987 0.0
C2758 C 0.42834 0.69653 0.9154 0.0
C2759 C 0.40188 0.70054 0.92143 0.0
C2760 C 0.43585 0.68519 0.89173 0.0
C2761 C 0.38283 0.69284 0.90324 0.0
C2762 C 0.39021 0.68133 0.87943 0.0
C2763 C 0.42465 0.66618 0.84954 0.0
C2764 C 0.45142 0.66278 0.84381 0.0
C2765 C 0.41675 0.67744 0.87343 0.0
C2766 C 0.47 0.67079 0.86244 0.0
C2767 C 0.46232 0.68171 0.88608 0.0
H2768 H 0.91951 0.36673 0.34005 0.0
H2769 H 0.99257 0.33157 0.36207 0.0
H2770 H 0.97253 0.31321 0.40147 0.0
H2771 H 0.9329 0.30265 0.42656 0.0
H2772 H 0.8591 0.33529 0.4021 0.0
H2773 H 0.88063 0.35922 0.36732 0.0
C2774 C 0.93117 0.35591 0.35407 0.0
C2775 C 0.9575 0.35087 0.34859 0.0
C2776 C 0.9192 0.34443 0.37605 0.0
C2777 C 0.97233 0.33603 0.36628 0.0
C2778 C 0.96079 0.32527 0.38861 0.0
C2779 C 0.92151 0.31503 0.41371 0.0
C2780 C 0.89429 0.31682 0.41711 0.0
C2781 C 0.93399 0.32851 0.39317 0.0
C2782 C 0.88004 0.33347 0.40038 0.0
C2783 C 0.89235 0.34718 0.38023 0.0
H2784 H 0.591 0.82101 0.83298 0.0
H2785 H 0.53629 0.87584 0.86646 0.0
H2786 H 0.55339 0.86676 0.90983 0.0
H2787 H 0.58079 0.84041 0.93864 0.0
H2788 H 0.63568 0.78553 0.90611 0.0
H2789 H 0.62228 0.7982 0.86182 0.0
C2790 C 0.5831 0.83138 0.84963 0.0
C2791 C 0.56191 0.84874 0.84631 0.0
C2792 C 0.59317 0.82616 0.87469 0.0
C2793 C 0.55201 0.86185 0.86833 0.0
C2794 C 0.56194 0.85684 0.89319 0.0
C2795 C 0.59023 0.83162 0.92182 0.0
C2796 C 0.60908 0.81201 0.92555 0.0
C2797 C 0.58205 0.8386 0.89664 0.0
C2798 C 0.62129 0.80086 0.90368 0.0
C2799 C 0.61338 0.80789 0.8784 0.0
H2800 H 0.0921 0.83947 0.17843 0.0
H2801 H 0.03286 0.88934 0.14548 0.0
H2802 H 0.04426 0.87392 0.10142 0.0
H2803 H 0.06778 0.84235 0.07329 0.0
H2804 H 0.12704 0.79281 0.10737 0.0
H2805 H 0.11861 0.81179 0.15007 0.0
C2806 C 0.08202 0.84737 0.16153 0.0
C2807 C 0.06167 0.86549 0.16512 0.0
C2808 C 0.08833 0.83805 0.13656 0.0
C2809 C 0.04881 0.87564 0.14314 0.0
C2810 C 0.05513 0.86655 0.11803 0.0
C2811 C 0.07923 0.83598 0.08988 0.0
C2812 C 0.09776 0.81566 0.08694 0.0
C2813 C 0.07438 0.84717 0.1146 0.0
C2814 C 0.11222 0.80778 0.10894 0.0
C2815 C 0.10756 0.81881 0.13343 0.0
H2816 H 0.03786 0.64457 0.14384 0.0
H2817 H 0.09558 0.67953 0.1942 0.0
H2818 H 0.11524 0.70169 0.15674 0.0
H2819 H 0.11398 0.7139 0.10959 0.0
H2820 H 0.05412 0.68027 0.06079 0.0
H2821 H 0.03738 0.6552 0.09753 0.0
C2822 C 0.05465 0.65711 0.14674 0.0
C2823 C 0.06494 0.66047 0.17197 0.0
C2824 C 0.06551 0.67025 0.12524 0.0
C2825 C 0.08721 0.67635 0.17507 0.0
C2826 C 0.09842 0.68923 0.15362 0.0
C2827 C 0.09754 0.70079 0.10706 0.0
C2828 C 0.08522 0.69906 0.08256 0.0
C2829 C 0.0875 0.68667 0.1286 0.0
C2830 C 0.06378 0.68216 0.07952 0.0
C2831 C 0.05417 0.66776 0.10052 0.0
H2832 H 0.93367 0.66528 0.0716 0.0
H2833 H 0.87018 0.70713 0.10797 0.0
H2834 H 0.88379 0.69122 0.15069 0.0
H2835 H 0.91647 0.66972 0.17814 0.0
H2836 H 0.97948 0.62677 0.14274 0.0
H2837 H 0.96303 0.63828 0.09908 0.0
C2838 C 0.9224 0.67041 0.08874 0.0
C2839 C 0.90121 0.68795 0.08651 0.0
C2840 C 0.93036 0.66109 0.11343 0.0
C2841 C 0.88694 0.69431 0.10909 0.0
C2842 C 0.89466 0.68513 0.13357 0.0
C2843 C 0.92628 0.66246 0.16082 0.0
C2844 C 0.94917 0.64759 0.1635 0.0
C2845 C 0.91679 0.66923 0.13603 0.0
C2846 C 0.9617 0.6381 0.14105 0.0
C2847 C 0.9524 0.64488 0.11615 0.0
H2848 H 0.9528 0.78122 0.09842 0.0
H2849 H 0.87493 0.81311 0.10133 0.0
H2850 H 0.88609 0.83714 0.14123 0.0
H2851 H 0.91936 0.85191 0.17305 0.0
H2852 H 0.99743 0.82054 0.16827 0.0
H2853 H 0.98467 0.79326 0.13165 0.0
C2854 C 0.93814 0.79324 0.10788 0.0
C2855 C 0.91316 0.79562 0.09676 0.0
C2856 C 0.94477 0.80715 0.13051 0.0
C2857 C 0.89432 0.81098 0.10948 0.0
C2858 C 0.90074 0.82482 0.13221 0.0
C2859 C 0.93349 0.83896 0.16407 0.0
C2860 C 0.95932 0.83838 0.17352 0.0
C2861 C 0.92612 0.82353 0.14254 0.0
C2862 C 0.97734 0.82123 0.16185 0.0
C2863 C 0.97012 0.80573 0.14065 0.0
H2864 H 0.42335 0.09532 0.16356 0.0
H2865 H 0.42381 0.05735 0.23896 0.0
H2866 H 0.38756 0.02974 0.22573 0.0
H2867 H 0.35236 0.02013 0.19507 0.0
H2868 H 0.34998 0.05873 0.12016 0.0
H2869 H 0.39042 0.08214 0.13072 0.0
C2870 C 0.41564 0.08084 0.17699 0.0
C2871 C 0.42626 0.07868 0.20232 0.0
C2872 C 0.39431 0.06525 0.1694 0.0
C2873 C 0.41633 0.05944 0.21931 0.0
C2874 C 0.39537 0.04373 0.21183 0.0
C2875 C 0.3609 0.03338 0.18086 0.0
C2876 C 0.34807 0.03796 0.15701 0.0
C2877 C 0.38375 0.04702 0.18726 0.0
C2878 C 0.35952 0.05487 0.13865 0.0
C2879 C 0.38252 0.0684 0.14479 0.0
H2880 H 0.31521 0.43347 0.06182 0.0
H2881 H 0.28684 0.39793 0.13281 0.0
H2882 H 0.30559 0.35576 0.11929 0.0
H2883 H 0.32827 0.3287 0.08577 0.0
H2884 H 0.35626 0.36607 0.01539 0.0
H2885 H 0.33905 0.40772 0.03009 0.0
C2886 C 0.31311 0.41656 0.07448 0.0
C2887 C 0.29948 0.41881 0.09822 0.0
C2888 C 0.32367 0.39261 0.06651 0.0
C2889 C 0.2973 0.39674 0.11446 0.0
C2890 C 0.3079 0.37262 0.10664 0.0
C2891 C 0.3308 0.346 0.07379 0.0
C2892 C 0.34324 0.344 0.04923 0.0
C2893 C 0.32089 0.37025 0.0825 0.0
C2894 C 0.34625 0.36671 0.03398 0.0
C2895 C 0.33658 0.39068 0.04248 0.0
H2896 H 0.57706 0.43187 0.1659 0.0
H2897 H 0.6086 0.3675 0.21061 0.0
H2898 H 0.65186 0.37647 0.19326 0.0
H2899 H 0.68143 0.40493 0.1688 0.0
H2900 H 0.6506 0.4688 0.12324 0.0
H2901 H 0.60619 0.45718 0.1369 0.0
C2902 C 0.59321 0.41943 0.1715 0.0
C2903 C 0.58946 0.39934 0.19011 0.0
C2904 C 0.61821 0.42461 0.16127 0.0
C2905 C 0.61086 0.38355 0.19701 0.0
C2906 C 0.63566 0.38854 0.18693 0.0
C2907 C 0.66494 0.41606 0.16149 0.0
C2908 C 0.66928 0.43788 0.14531 0.0
C2909 C 0.63966 0.40941 0.16961 0.0
C2910 C 0.64775 0.45192 0.13572 0.0
C2911 C 0.6224 0.44538 0.1437 0.0
H2912 H 0.70215 0.07757 0.05751 0.0
H2913 H 0.70371 0.10409 0.13748 0.0
H2914 H 0.68614 0.14667 0.12365 0.0
H2915 H 0.67026 0.1761 0.08837 0.0
H2916 H 0.66825 0.14726 0.00902 0.0
H2917 H 0.6865 0.10602 0.02316 0.0
C2918 C 0.69875 0.09259 0.07206 0.0
C2919 C 0.70424 0.08761 0.09853 0.0
C2920 C 0.6887 0.11673 0.06401 0.0
C2921 C 0.69958 0.10738 0.11699 0.0
C2922 C 0.68958 0.13172 0.10906 0.0
C2923 C 0.6737 0.16079 0.07419 0.0
C2924 C 0.66797 0.16518 0.04753 0.0
C2925 C 0.684 0.13659 0.08255 0.0
C2926 C 0.67284 0.14499 0.0295 0.0
C2927 C 0.68313 0.12114 0.03761 0.0
H2928 H 0.33301 0.97585 0.30939 0.0
H2929 H 0.34328 0.95131 0.38941 0.0
H2930 H 0.3826 0.92684 0.37684 0.0
H2931 H 0.41255 0.91067 0.34232 0.0
H2932 H 0.39976 0.93469 0.26234 0.0
H2933 H 0.36318 0.96143 0.27589 0.0
C2934 C 0.34382 0.96525 0.32423 0.0
C2935 C 0.33504 0.96521 0.3503 0.0
C2936 C 0.36603 0.95115 0.31683 0.0
C2937 C 0.34957 0.95162 0.36921 0.0
C2938 C 0.37199 0.93757 0.36198 0.0
C2939 C 0.40177 0.92173 0.32785 0.0
C2940 C 0.40916 0.9205 0.30127 0.0
C2941 C 0.38017 0.93687 0.33573 0.0
C2942 C 0.39507 0.93538 0.28292 0.0
C2943 C 0.37386 0.95059 0.29062 0.0
H2944 H 0.17636 0.42905 0.94141 0.0
H2945 H 0.21739 0.3955 0.87605 0.0
H2946 H 0.20027 0.35199 0.88751 0.0
H2947 H 0.17611 0.32327 0.91848 0.0
H2948 H 0.13432 0.35858 0.98269 0.0
H2949 H 0.14944 0.40157 0.96939 0.0
C2950 C 0.18145 0.41223 0.92954 0.0
C2951 C 0.19831 0.41537 0.90811 0.0
C2952 C 0.17159 0.38756 0.93622 0.0
C2953 C 0.2044 0.39353 0.89264 0.0
C2954 C 0.19472 0.36868 0.89929 0.0
C2955 C 0.16999 0.34038 0.92932 0.0
C2956 C 0.1545 0.33744 0.95198 0.0
C2957 C 0.17863 0.36538 0.92136 0.0
C2958 C 0.1468 0.35999 0.9657 0.0
C2959 C 0.1553 0.3847 0.95799 0.0
H2960 H 0.57875 0.60878 0.34228 0.0
H2961 H 0.5691 0.55029 0.28224 0.0
H2962 H 0.60434 0.52467 0.30095 0.0
H2963 H 0.64153 0.52154 0.33072 0.0
H2964 H 0.65189 0.57898 0.39122 0.0
H2965 H 0.61228 0.60187 0.37666 0.0
C2966 C 0.58398 0.5902 0.33358 0.0
C2967 C 0.57166 0.582 0.31031 0.0
C2968 C 0.60438 0.57528 0.34463 0.0
C2969 C 0.57873 0.5577 0.29951 0.0
C2970 C 0.5988 0.54283 0.31035 0.0
C2971 C 0.63456 0.5386 0.34123 0.0
C2972 C 0.64936 0.54855 0.36205 0.0
C2973 C 0.61228 0.55183 0.33236 0.0
C2974 C 0.64047 0.57076 0.37543 0.0
C2975 C 0.61806 0.58403 0.36682 0.0
H2976 H 0.81841 0.17996 0.95107 0.0
H2977 H 0.89414 0.16061 0.91998 0.0
H2978 H 0.87531 0.12398 0.89583 0.0
H2979 H 0.83818 0.094 0.88815 0.0
H2980 H 0.76299 0.1125 0.92075 0.0
H2981 H 0.78041 0.15302 0.93925 0.0
C2982 C 0.83072 0.16781 0.93886 0.0
C2983 C 0.85769 0.17284 0.93762 0.0
C2984 C 0.81976 0.14666 0.92514 0.0
C2985 C 0.87333 0.15724 0.92128 0.0
C2986 C 0.86257 0.13619 0.90752 0.0
C2987 C 0.82548 0.10752 0.8984 0.0
C2988 C 0.79929 0.1007 0.90273 0.0
C2989 C 0.83592 0.13032 0.90979 0.0
C2990 C 0.7831 0.11776 0.91681 0.0
C2991 C 0.79315 0.14072 0.92766 0.0
H2992 H 0.15956 0.42476 0.0767 0.0
H2993 H 0.21243 0.39249 0.134 0.0
H2994 H 0.19839 0.34851 0.12273 0.0
H2995 H 0.1746 0.31905 0.09374 0.0
H2996 H 0.121 0.35026 0.03684 0.0
H2997 H 0.13121 0.39488 0.05135 0.0
C2998 C 0.16764 0.40819 0.08712 0.0
C2999 C 0.18756 0.41207 0.10579 0.0
C3000 C 0.15934 0.38275 0.08061 0.0
C3001 C 0.19771 0.3902 0.11903 0.0
C3002 C 0.18955 0.36497 0.11272 0.0
C3003 C 0.16479 0.33563 0.08484 0.0
C3004 C 0.14729 0.33149 0.06413 0.0
C3005 C 0.17096 0.36101 0.09307 0.0
C3006 C 0.13448 0.35301 0.0529 0.0
C3007 C 0.14051 0.3785 0.06105 0.0
H3008 H 0.20197 0.67033 0.47142 0.0
H3009 H 0.12305 0.66232 0.44325 0.0
H3010 H 0.13507 0.62161 0.42088 0.0
H3011 H 0.16897 0.58974 0.40744 0.0
H3012 H 0.24749 0.59876 0.43688 0.0
H3013 H 0.23468 0.63794 0.46015 0.0
C3014 C 0.18727 0.65967 0.4605 0.0
C3015 C 0.16169 0.66943 0.45885 0.0
C3016 C 0.19437 0.63663 0.44758 0.0
C3017 C 0.14288 0.65519 0.44485 0.0
C3018 C 0.1498 0.632 0.43195 0.0
C3019 C 0.18321 0.60012 0.41912 0.0
C3020 C 0.20931 0.59134 0.41991 0.0
C3021 C 0.17563 0.62273 0.43288 0.0
C3022 C 0.22748 0.60523 0.43516 0.0
C3023 C 0.22011 0.6276 0.44878 0.0
H3024 H 0.90672 0.62693 0.82028 0.0
H3025 H 0.91192 0.5669 0.76146 0.0
H3026 H 0.8696 0.54947 0.77465 0.0
H3027 H 0.83338 0.54837 0.8057 0.0
H3028 H 0.82825 0.60684 0.86605 0.0
H3029 H 0.86779 0.62797 0.8494 0.0
C3030 C 0.89816 0.61049 0.81001 0.0
C3031 C 0.9123 0.5982 0.78993 0.0
C3032 C 0.87397 0.60004 0.81823 0.0
C3033 C 0.90131 0.57663 0.77699 0.0
C3034 C 0.87719 0.56657 0.78459 0.0
C3035 C 0.84085 0.56577 0.81518 0.0
C3036 C 0.82801 0.57576 0.8373 0.0
C3037 C 0.86374 0.57759 0.80571 0.0
C3038 C 0.83767 0.59874 0.84895 0.0
C3039 C 0.8604 0.61077 0.83951 0.0
H3040 H 0.83472 0.82414 0.415 0.0
H3041 H 0.88601 0.85905 0.47177 0.0
H3042 H 0.87198 0.90287 0.45773 0.0
H3043 H 0.84073 0.93044 0.43324 0.0
H3044 H 0.78981 0.89446 0.37637 0.0
H3045 H 0.80792 0.85178 0.38679 0.0
C3046 C 0.84329 0.8414 0.42387 0.0
C3047 C 0.86131 0.83849 0.44437 0.0
C3048 C 0.83474 0.86625 0.41608 0.0
C3049 C 0.87234 0.86088 0.45572 0.0
C3050 C 0.86404 0.88587 0.44791 0.0
C3051 C 0.83388 0.91342 0.4227 0.0
C3052 C 0.81335 0.91585 0.40439 0.0
C3053 C 0.84458 0.88873 0.42869 0.0
C3054 C 0.80491 0.89332 0.39107 0.0
C3055 C 0.81544 0.86883 0.39686 0.0
H3056 H 0.64148 0.45796 0.36379 0.0
H3057 H 0.69727 0.41369 0.31901 0.0
H3058 H 0.6617 0.39097 0.29651 0.0
H3059 H 0.61423 0.38701 0.28652 0.0
H3060 H 0.55968 0.434 0.33022 0.0
H3061 H 0.59506 0.45227 0.35606 0.0
C3062 C 0.64589 0.44336 0.3491 0.0
C3063 C 0.67198 0.43784 0.34287 0.0
C3064 C 0.62544 0.43086 0.33594 0.0
C3065 C 0.67735 0.4183 0.32426 0.0
C3066 C 0.65699 0.40541 0.31125 0.0
C3067 C 0.61022 0.40083 0.30206 0.0
C3068 C 0.58448 0.40923 0.30648 0.0
C3069 C 0.6309 0.41193 0.31652 0.0
C3070 C 0.5794 0.42738 0.32642 0.0
C3071 C 0.59961 0.43789 0.34119 0.0
H3072 H 0.36691 0.64423 0.53943 0.0
H3073 H 0.31831 0.69705 0.5835 0.0
H3074 H 0.29953 0.66053 0.60757 0.0
H3075 H 0.29395 0.61361 0.61361 0.0
H3076 H 0.34064 0.55964 0.56908 0.0
H3077 H 0.36334 0.59628 0.54805 0.0
C3078 C 0.35266 0.64762 0.55471 0.0
C3079 C 0.34393 0.67322 0.55968 0.0
C3080 C 0.34136 0.6263 0.56821 0.0
C3081 C 0.32519 0.67746 0.57927 0.0
C3082 C 0.31438 0.6566 0.59301 0.0
C3083 C 0.3091 0.60985 0.59931 0.0
C3084 C 0.31533 0.58396 0.5927 0.0
C3085 C 0.32177 0.63093 0.58716 0.0
C3086 C 0.33549 0.57941 0.57458 0.0
C3087 C 0.34839 0.60037 0.56244 0.0
H3088 H 0.89995 0.39311 0.71074 0.0
H3089 H 0.9455 0.43906 0.6567 0.0
H3090 H 0.9059 0.45438 0.63531 0.0
H3091 H 0.85834 0.45822 0.63448 0.0
H3092 H 0.81205 0.4138 0.68906 0.0
H3093 H 0.85155 0.39422 0.70736 0.0
C3094 C 0.9011 0.40591 0.69386 0.0
C3095 C 0.92557 0.41495 0.6853 0.0
C3096 C 0.87805 0.41524 0.68192 0.0
C3097 C 0.92684 0.43189 0.66368 0.0
C3098 C 0.90421 0.44077 0.65148 0.0
C3099 C 0.8569 0.44419 0.6503 0.0
C3100 C 0.83226 0.43772 0.66048 0.0
C3101 C 0.8797 0.43321 0.66091 0.0
C3102 C 0.83072 0.41908 0.6807 0.0
C3103 C 0.85336 0.40795 0.69131 0.0
H3104 H 0.19279 0.09277 0.68064 0.0
H3105 H 0.15803 0.04604 0.61966 0.0
H3106 H 0.11561 0.06557 0.62862 0.0
H3107 H 0.08775 0.09222 0.65654 0.0
H3108 H 0.12134 0.13863 0.71818 0.0
H3109 H 0.16518 0.12367 0.7056 0.0
C3110 C 0.17609 0.08724 0.66894 0.0
C3111 C 0.17859 0.06755 0.64975 0.0
C3112 C 0.1516 0.09854 0.67429 0.0
C3113 C 0.1566 0.0606 0.63492 0.0
C3114 C 0.13234 0.07189 0.63993 0.0
C3115 C 0.10474 0.09946 0.66693 0.0
C3116 C 0.10142 0.11633 0.68834 0.0
C3117 C 0.12953 0.0903 0.66 0.0
C3118 C 0.12349 0.12578 0.70151 0.0
C3119 C 0.14847 0.11697 0.69448 0.0
H3120 H 0.57287 0.69536 0.82432 0.0
H3121 H 0.54994 0.61998 0.85454 0.0
H3122 H 0.56886 0.63129 0.89719 0.0
H3123 H 0.59031 0.66389 0.92636 0.0
H3124 H 0.61191 0.73912 0.89472 0.0
H3125 H 0.59492 0.72663 0.85218 0.0
C3126 C 0.572 0.68126 0.84015 0.0
C3127 C 0.55989 0.65688 0.83625 0.0
C3128 C 0.58255 0.688 0.86445 0.0
C3129 C 0.55919 0.63886 0.857 0.0
C3130 C 0.56993 0.64538 0.8814 0.0
C3131 C 0.59146 0.67737 0.91005 0.0
C3132 C 0.6021 0.70255 0.91382 0.0
C3133 C 0.58145 0.67005 0.88543 0.0
C3134 C 0.60336 0.71989 0.89253 0.0
C3135 C 0.59378 0.7127 0.86813 0.0
H3136 H 0.91263 0.23393 0.39158 0.0
H3137 H 0.86217 0.16917 0.41003 0.0
H3138 H 0.87857 0.14518 0.37177 0.0
H3139 H 0.9124 0.14046 0.33724 0.0
H3140 H 0.96258 0.2061 0.31986 0.0
H3141 H 0.94132 0.23182 0.35357 0.0
C3142 C 0.90463 0.21488 0.38667 0.0
C3143 C 0.88621 0.2033 0.40336 0.0
C3144 C 0.91465 0.20112 0.36524 0.0
C3145 C 0.87605 0.1786 0.39712 0.0
C3146 C 0.88575 0.16477 0.3755 0.0
C3147 C 0.91832 0.16054 0.34047 0.0
C3148 C 0.93966 0.17098 0.32644 0.0
C3149 C 0.90584 0.17545 0.36002 0.0
C3150 C 0.94692 0.19715 0.33089 0.0
C3151 C 0.9346 0.21203 0.35005 0.0
H3152 H 0.4171 0.8227 0.82645 0.0
H3153 H 0.47002 0.87674 0.86337 0.0
H3154 H 0.45113 0.866 0.90625 0.0
H3155 H 0.42225 0.83776 0.93338 0.0
H3156 H 0.36927 0.78448 0.89509 0.0
H3157 H 0.38559 0.79834 0.85264 0.0
C3158 C 0.42434 0.83239 0.84385 0.0
C3159 C 0.44509 0.85032 0.84178 0.0
C3160 C 0.41354 0.82599 0.86823 0.0
C3161 C 0.45401 0.86294 0.86444 0.0
C3162 C 0.44331 0.85663 0.88895 0.0
C3163 C 0.41392 0.82954 0.91576 0.0
C3164 C 0.3948 0.80965 0.91761 0.0
C3165 C 0.42344 0.8377 0.89115 0.0
C3166 C 0.38438 0.79925 0.89442 0.0
C3167 C 0.39362 0.80728 0.87006 0.0
H3168 H 0.08307 0.34593 0.43009 0.0
H3169 H 0.12552 0.28059 0.39834 0.0
H3170 H 0.11379 0.29437 0.35387 0.0
H3171 H 0.08643 0.32166 0.32503 0.0
H3172 H 0.04503 0.38769 0.35746 0.0
H3173 H 0.06147 0.37699 0.40073 0.0
C3174 C 0.09028 0.33512 0.41333 0.0
C3175 C 0.10503 0.31233 0.41729 0.0
C3176 C 0.08329 0.34304 0.38806 0.0
C3177 C 0.11436 0.29839 0.39562 0.0
C3178 C 0.10742 0.30613 0.37027 0.0
C3179 C 0.08146 0.33415 0.34135 0.0
C3180 C 0.06383 0.35511 0.33789 0.0
C3181 C 0.09116 0.32796 0.36634 0.0
C3182 C 0.0578 0.37098 0.35951 0.0
C3183 C 0.06734 0.36497 0.38432 0.0
H3184 H 0.5343 0.30771 0.67372 0.0
H3185 H 0.54369 0.3889 0.65254 0.0
H3186 H 0.56523 0.3757 0.6117 0.0
H3187 H 0.58232 0.34068 0.58276 0.0
H3188 H 0.57163 0.25987 0.60539 0.0
H3189 H 0.55026 0.27353 0.64528 0.0
C3190 C 0.54095 0.32268 0.66024 0.0
C3191 C 0.5374 0.3493 0.66625 0.0
C3192 C 0.55344 0.31498 0.63719 0.0
C3193 C 0.5461 0.36827 0.64837 0.0
C3194 C 0.55852 0.36071 0.6251 0.0
C3195 C 0.57522 0.32605 0.59634 0.0
C3196 C 0.57898 0.29921 0.59094 0.0
C3197 C 0.56245 0.33406 0.61939 0.0
C3198 C 0.56974 0.28061 0.60902 0.0
C3199 C 0.55718 0.2884 0.63184 0.0
H3200 H 0.57212 0.15879 0.57248 0.0
H3201 H 0.62463 0.21566 0.6056 0.0
H3202 H 0.61566 0.19855 0.64952 0.0
H3203 H 0.58894 0.17061 0.67848 0.0
H3204 H 0.53761 0.11294 0.64446 0.0
H3205 H 0.55012 0.1272 0.60086 0.0
C3206 C 0.58189 0.16719 0.58931 0.0
C3207 C 0.59873 0.18862 0.58594 0.0
C3208 C 0.57662 0.1573 0.61431 0.0
C3209 C 0.61157 0.19913 0.60776 0.0
C3210 C 0.60631 0.18944 0.63286 0.0
C3211 C 0.58091 0.16072 0.6616 0.0
C3212 C 0.56181 0.14108 0.66491 0.0
C3213 C 0.58832 0.16896 0.63641 0.0
C3214 C 0.55171 0.12859 0.64263 0.0
C3215 C 0.55896 0.13664 0.61762 0.0
H3216 H 0.4653 0.19502 0.67209 0.0
H3217 H 0.44104 0.11529 0.65907 0.0
H3218 H 0.41893 0.12869 0.61863 0.0
H3219 H 0.40477 0.16382 0.5882 0.0
H3220 H 0.42907 0.24334 0.60293 0.0
H3221 H 0.45315 0.22915 0.64126 0.0
C3222 C 0.45526 0.18045 0.66043 0.0
C3223 C 0.4546 0.15421 0.66876 0.0
C3224 C 0.44263 0.1883 0.63743 0.0
C3225 C 0.44179 0.13562 0.65315 0.0
C3226 C 0.4291 0.14331 0.63007 0.0
C3227 C 0.4154 0.17799 0.59978 0.0
C3228 C 0.41508 0.20464 0.59248 0.0
C3229 C 0.42908 0.16971 0.62221 0.0
C3230 C 0.42923 0.2227 0.60761 0.0
C3231 C 0.44286 0.21463 0.62977 0.0
H3232 H 0.4084 0.3193 0.68889 0.0
H3233 H 0.44257 0.38895 0.65548 0.0
H3234 H 0.42402 0.37805 0.61309 0.0
H3235 H 0.40316 0.34602 0.58441 0.0
H3236 H 0.36901 0.27619 0.61681 0.0
H3237 H 0.38168 0.29025 0.66095 0.0
C3238 C 0.4113 0.33245 0.67255 0.0
C3239 C 0.42746 0.35468 0.67538 0.0
C3240 C 0.40051 0.32602 0.64804 0.0
C3241 C 0.43092 0.37138 0.6538 0.0
C3242 C 0.42016 0.36524 0.62954 0.0
C3243 C 0.39779 0.3343 0.60128 0.0
C3244 C 0.38511 0.31022 0.59755 0.0
C3245 C 0.40569 0.34221 0.62627 0.0
C3246 C 0.37837 0.29502 0.61936 0.0
C3247 C 0.38597 0.30291 0.6445 0.0
H3248 H 0.86041 0.53675 0.63736 0.0
H3249 H 0.81202 0.576 0.69405 0.0
H3250 H 0.84945 0.60063 0.70986 0.0
H3251 H 0.89595 0.60936 0.70943 0.0
H3252 H 0.94594 0.56779 0.65577 0.0
H3253 H 0.90797 0.54649 0.6365 0.0
C3254 C 0.85815 0.55096 0.65291 0.0
C3255 C 0.83359 0.55452 0.6646 0.0
C3256 C 0.88004 0.56469 0.66248 0.0
C3257 C 0.83083 0.57278 0.68491 0.0
C3258 C 0.8522 0.58692 0.69395 0.0
C3259 C 0.89876 0.59553 0.69367 0.0
C3260 C 0.92403 0.5901 0.68445 0.0
C3261 C 0.87696 0.58268 0.68325 0.0
C3262 C 0.92685 0.57262 0.66335 0.0
C3263 C 0.90509 0.5602 0.65238 0.0
H3264 H 0.77967 0.91003 0.56774 0.0
H3265 H 0.82025 0.90833 0.64148 0.0
H3266 H 0.84365 0.86865 0.62769 0.0
H3267 H 0.85548 0.83731 0.59261 0.0
H3268 H 0.81557 0.84186 0.51836 0.0
H3269 H 0.78878 0.87735 0.53461 0.0
C3270 C 0.79341 0.90083 0.58099 0.0
C3271 C 0.79848 0.91222 0.60547 0.0
C3272 C 0.80704 0.87862 0.57272 0.0
C3273 C 0.816 0.89987 0.62256 0.0
C3274 C 0.82952 0.87735 0.61455 0.0
C3275 C 0.84091 0.84603 0.57999 0.0
C3276 C 0.83785 0.83683 0.55414 0.0
C3277 C 0.82573 0.86702 0.58933 0.0
C3278 C 0.8184 0.84811 0.53833 0.0
C3279 C 0.8031 0.86865 0.54755 0.0
H3280 H 0.15575 0.95812 0.63879 0.0
H3281 H 0.19815 0.94755 0.71096 0.0
H3282 H 0.16104 0.92539 0.73029 0.0
H3283 H 0.11665 0.90907 0.72736 0.0
H3284 H 0.07243 0.92075 0.65656 0.0
H3285 H 0.11004 0.94179 0.63616 0.0
C3286 C 0.15682 0.95086 0.65868 0.0
C3287 C 0.17975 0.95466 0.67334 0.0
C3288 C 0.13505 0.93819 0.67005 0.0
C3289 C 0.18075 0.94519 0.69918 0.0
C3290 C 0.15951 0.93239 0.71034 0.0
C3291 C 0.11497 0.91643 0.70758 0.0
C3292 C 0.09149 0.91326 0.69373 0.0
C3293 C 0.13652 0.92892 0.69607 0.0
C3294 C 0.0902 0.92255 0.6678 0.0
C3295 C 0.11174 0.93478 0.65608 0.0
H3296 H 0.18331 0.69408 0.589 0.0
H3297 H 0.11954 0.65694 0.54831 0.0
H3298 H 0.13338 0.6144 0.56468 0.0
H3299 H 0.16613 0.58733 0.58636 0.0
H3300 H 0.2299 0.62331 0.6277 0.0
H3301 H 0.21325 0.6669 0.61582 0.0
C3302 C 0.17207 0.67678 0.58423 0.0
C3303 C 0.15063 0.67871 0.56699 0.0
C3304 C 0.18025 0.65221 0.59371 0.0
C3305 C 0.13641 0.65599 0.56099 0.0
C3306 C 0.14427 0.63164 0.57041 0.0
C3307 C 0.17614 0.60477 0.59313 0.0
C3308 C 0.19925 0.60228 0.60766 0.0
C3309 C 0.16659 0.62946 0.58608 0.0
C3310 C 0.21197 0.62487 0.61659 0.0
C3311 C 0.20255 0.64971 0.60961 0.0
H3312 H 0.91948 0.41163 0.83852 0.0
H3313 H 0.91872 0.45739 0.76743 0.0
H3314 H 0.88063 0.48096 0.78261 0.0
H3315 H 0.84525 0.48613 0.814 0.0
H3316 H 0.84548 0.44208 0.88577 0.0
H3317 H 0.88664 0.42092 0.87284 0.0
C3318 C 0.91129 0.427 0.82648 0.0
C3319 C 0.92178 0.43205 0.80144 0.0
C3320 C 0.88934 0.44092 0.83552 0.0
C3321 C 0.91075 0.45223 0.7863 0.0
C3322 C 0.88902 0.46601 0.79509 0.0
C3323 C 0.8546 0.47223 0.82703 0.0
C3324 C 0.84245 0.46546 0.85067 0.0
C3325 C 0.87783 0.46009 0.81932 0.0
C3326 C 0.8547 0.44766 0.86755 0.0
C3327 C 0.87802 0.43541 0.86 0.0
H3328 H 0.67082 0.93002 0.433 0.0
H3329 H 0.72284 0.89296 0.37827 0.0
H3330 H 0.70475 0.84993 0.39001 0.0
H3331 H 0.67712 0.8229 0.41935 0.0
H3332 H 0.6243 0.8613 0.47276 0.0
H3333 H 0.63983 0.90375 0.45806 0.0
C3334 C 0.67797 0.91252 0.42338 0.0
C3335 C 0.69825 0.91454 0.40499 0.0
C3336 C 0.66754 0.8881 0.43025 0.0
C3337 C 0.70714 0.89185 0.39241 0.0
C3338 C 0.69692 0.86727 0.39929 0.0
C3339 C 0.66859 0.84049 0.42743 0.0
C3340 C 0.64989 0.83866 0.44769 0.0
C3341 C 0.67751 0.86512 0.41867 0.0
C3342 C 0.63919 0.86189 0.45779 0.0
C3343 C 0.64796 0.88628 0.44927 0.0
H3344 H 0.15675 0.02478 0.81639 0.0
H3345 H 0.15823 0.07105 0.88667 0.0
H3346 H 0.12015 0.09591 0.87127 0.0
H3347 H 0.08967 0.10735 0.83536 0.0
H3348 H 0.0888 0.05977 0.76565 0.0
H3349 H 0.12363 0.03285 0.78318 0.0
C3350 C 0.14849 0.04006 0.82855 0.0
C3351 C 0.16035 0.04625 0.85251 0.0
C3352 C 0.12702 0.05437 0.81941 0.0
C3353 C 0.14931 0.06585 0.86821 0.0
C3354 C 0.12773 0.08021 0.85926 0.0
C3355 C 0.09678 0.09088 0.82415 0.0
C3356 C 0.08687 0.08615 0.79883 0.0
C3357 C 0.11688 0.07511 0.83451 0.0
C3358 C 0.09645 0.06457 0.78474 0.0
C3359 C 0.11629 0.04892 0.79486 0.0
H3360 H 0.34766 0.57345 0.42453 0.0
H3361 H 0.29049 0.60612 0.37203 0.0
H3362 H 0.30303 0.65039 0.38565 0.0
H3363 H 0.32704 0.67928 0.41607 0.0
H3364 H 0.3842 0.64569 0.46824 0.0
H3365 H 0.37458 0.6023 0.45134 0.0
C3366 C 0.33819 0.59027 0.41573 0.0
C3367 C 0.31805 0.58649 0.39742 0.0
C3368 C 0.34519 0.61549 0.42395 0.0
C3369 C 0.30615 0.60848 0.38604 0.0
C3370 C 0.31316 0.63378 0.39403 0.0
C3371 C 0.33777 0.66259 0.42345 0.0
C3372 C 0.35605 0.66592 0.44386 0.0
C3373 C 0.33219 0.63749 0.41351 0.0
C3374 C 0.36959 0.64384 0.45311 0.0
C3375 C 0.36423 0.61895 0.4433 0.0
H3376 H 0.66004 0.91804 0.6104 0.0
H3377 H 0.73125 0.92276 0.56557 0.0
H3378 H 0.71838 0.88471 0.54038 0.0
H3379 H 0.68955 0.84716 0.53429 0.0
H3380 H 0.61828 0.84111 0.5786 0.0
H3381 H 0.62836 0.88257 0.60067 0.0
C3382 C 0.67251 0.91092 0.59485 0.0
C3383 C 0.69666 0.92332 0.59008 0.0
C3384 C 0.66511 0.88858 0.58053 0.0
C3385 C 0.71248 0.914 0.56963 0.0
C3386 C 0.70525 0.89196 0.55531 0.0
C3387 C 0.67607 0.85505 0.5486 0.0
C3388 C 0.65342 0.84096 0.55516 0.0
C3389 C 0.68203 0.87869 0.56111 0.0
C3390 C 0.63587 0.85162 0.57332 0.0
C3391 C 0.64172 0.87523 0.586 0.0
H3392 H 0.66558 0.17891 0.90471 0.0
H3393 H 0.62835 0.14959 0.97432 0.0
H3394 H 0.64316 0.10516 0.96384 0.0
H3395 H 0.67177 0.07616 0.93782 0.0
H3396 H 0.70857 0.10634 0.8681 0.0
H3397 H 0.68895 0.14897 0.87577 0.0
C3398 C 0.66017 0.16265 0.91726 0.0
C3399 C 0.64602 0.16745 0.94029 0.0
C3400 C 0.66913 0.13743 0.91133 0.0
C3401 C 0.63902 0.1463 0.95635 0.0
C3402 C 0.64777 0.12097 0.95049 0.0
C3403 C 0.67507 0.09183 0.92396 0.0
C3404 C 0.69221 0.08803 0.90267 0.0
C3405 C 0.66359 0.11647 0.92847 0.0
C3406 C 0.69617 0.10877 0.88502 0.0
C3407 C 0.68479 0.13317 0.8893 0.0
H3408 H 0.43436 0.07913 0.34096 0.0
H3409 H 0.40248 0.13436 0.28591 0.0
H3410 H 0.35856 0.12679 0.30365 0.0
H3411 H 0.32905 0.10071 0.33174 0.0
H3412 H 0.36203 0.04663 0.38758 0.0
H3413 H 0.40574 0.05752 0.37255 0.0
C3414 C 0.41782 0.08978 0.33307 0.0
C3415 C 0.42152 0.10706 0.31202 0.0
C3416 C 0.39283 0.08529 0.34332 0.0
C3417 C 0.40006 0.12101 0.30218 0.0
C3418 C 0.37497 0.11653 0.31221 0.0
C3419 C 0.34575 0.09171 0.34106 0.0
C3420 C 0.34203 0.07236 0.36044 0.0
C3421 C 0.37105 0.0982 0.33238 0.0
C3422 C 0.36412 0.06098 0.37216 0.0
C3423 C 0.3892 0.0673 0.36366 0.0
H3424 H 0.33173 0.32699 0.90661 0.0
H3425 H 0.38031 0.35959 0.9671 0.0
H3426 H 0.36703 0.40391 0.95411 0.0
H3427 H 0.33742 0.43283 0.92859 0.0
H3428 H 0.28883 0.39896 0.86868 0.0
H3429 H 0.30624 0.35572 0.87842 0.0
C3430 C 0.33976 0.34382 0.9167 0.0
C3431 C 0.35681 0.34004 0.93789 0.0
C3432 C 0.33173 0.36901 0.90942 0.0
C3433 C 0.36726 0.362 0.95062 0.0
C3434 C 0.35947 0.38732 0.94334 0.0
C3435 C 0.33106 0.41606 0.91735 0.0
C3436 C 0.31147 0.41912 0.8982 0.0
C3437 C 0.34111 0.39102 0.9232 0.0
C3438 C 0.3034 0.39711 0.88388 0.0
C3439 C 0.31344 0.37237 0.88936 0.0
H3440 H 0.18611 0.9172 0.8229 0.0
H3441 H 0.14964 0.95387 0.88954 0.0
H3442 H 0.1076 0.93584 0.87667 0.0
H3443 H 0.08043 0.91423 0.84384 0.0
H3444 H 0.1161 0.87707 0.77734 0.0
H3445 H 0.15948 0.89005 0.79321 0.0
C3446 C 0.16917 0.92078 0.83501 0.0
C3447 C 0.17109 0.93747 0.85691 0.0
C3448 C 0.14491 0.91025 0.82748 0.0
C3449 C 0.14872 0.94179 0.87222 0.0
C3450 C 0.12464 0.93135 0.86495 0.0
C3451 C 0.0978 0.90843 0.83319 0.0
C3452 C 0.09524 0.8948 0.80951 0.0
C3453 C 0.1224 0.91627 0.84221 0.0
C3454 C 0.11772 0.8873 0.7958 0.0
C3455 C 0.14244 0.895 0.80473 0.0
H3456 H 0.84551 0.07608 0.09464 0.0
H3457 H 0.76891 0.10836 0.10975 0.0
H3458 H 0.78238 0.14978 0.09185 0.0
H3459 H 0.8141 0.17639 0.06925 0.0
H3460 H 0.89054 0.1459 0.05161 0.0
H3461 H 0.87884 0.10433 0.07301 0.0
C3462 C 0.83177 0.09215 0.09412 0.0
C3463 C 0.80612 0.08861 0.10382 0.0
C3464 C 0.8395 0.11631 0.08307 0.0
C3465 C 0.78884 0.11005 0.1031 0.0
C3466 C 0.79645 0.13395 0.09252 0.0
C3467 C 0.82837 0.16073 0.07002 0.0
C3468 C 0.85308 0.16417 0.05851 0.0
C3469 C 0.82147 0.13713 0.08207 0.0
C3470 C 0.87135 0.14375 0.06021 0.0
C3471 C 0.8646 0.11998 0.07239 0.0
H3472 H 0.31154 0.91239 0.1888 0.0
H3473 H 0.34633 0.94292 0.11827 0.0
H3474 H 0.38741 0.92144 0.12903 0.0
H3475 H 0.41495 0.89928 0.16115 0.0
H3476 H 0.38144 0.86944 0.23234 0.0
H3477 H 0.33807 0.88453 0.21832 0.0
C3478 C 0.32787 0.91381 0.17545 0.0
C3479 C 0.32591 0.92972 0.15292 0.0
C3480 C 0.35165 0.9015 0.18191 0.0
C3481 C 0.34743 0.93137 0.13597 0.0
C3482 C 0.37092 0.91897 0.14206 0.0
C3483 C 0.39796 0.89536 0.17321 0.0
C3484 C 0.40124 0.88321 0.19765 0.0
C3485 C 0.37348 0.90476 0.16536 0.0
C3486 C 0.37925 0.87836 0.21325 0.0
C3487 C 0.35456 0.88735 0.20538 0.0
H3488 H 0.678 0.58502 0.17584 0.0
H3489 H 0.64353 0.51568 0.14224 0.0
H3490 H 0.6005 0.5302 0.15546 0.0
H3491 H 0.57263 0.56126 0.17761 0.0
H3492 H 0.60507 0.63109 0.21186 0.0
H3493 H 0.6488 0.61811 0.19671 0.0
C3494 C 0.66103 0.57324 0.17126 0.0
C3495 C 0.66422 0.54897 0.15845 0.0
C3496 C 0.63596 0.58185 0.17889 0.0
C3497 C 0.64193 0.53399 0.15267 0.0
C3498 C 0.61718 0.54241 0.16002 0.0
C3499 C 0.5892 0.57381 0.18176 0.0
C3500 C 0.58561 0.59702 0.19604 0.0
C3501 C 0.61402 0.56608 0.17337 0.0
C3502 C 0.60729 0.61315 0.20085 0.0
C3503 C 0.63229 0.60562 0.19232 0.0
loop_
_geom_bond_atom_site_label_1
_geom_bond_atom_site_label_2
_geom_bond_distance
_geom_bond_site_symmetry_2
_ccdc_geom_bond_type
C0 C1 1.351 . S
C0 N3 1.368 . S
C0 H5 0.931 . S
C1 C0 1.351 . S
C1 N2 1.373 . S
C1 H29 0.930 . S
N2 C1 1.373 . S
N2 C4 1.340 . S
N3 C0 1.368 . S
N3 C4 1.321 . S
N3 Co6 2.135 . S
C4 N2 1.340 . S
C4 N3 1.321 . S
C4 H28 0.930 . S
H5 C0 0.931 . S
Co6 N3 2.135 . S
Co6 N9 2.121 1_455 S
Co6 O14 2.055 . S
Co6 O17 2.039 . S
Co6 N20 2.140 . S
C7 O8 1.227 . S
C7 O17 1.265 . S
O8 C7 1.227 . S
N9 Co6 2.121 1_655 S
N9 C11 1.375 . S
N9 C12 1.313 . S
C10 C11 1.338 . S
C10 N13 1.377 . S
C10 H30 0.930 . S
C11 N9 1.375 . S
C11 C10 1.338 . S
C11 H15 0.931 . S
C12 N9 1.313 . S
C12 N13 1.344 . S
C12 H16 0.930 1_655 S
N13 C10 1.377 . S
N13 C12 1.344 . S
O14 Co6 2.055 . S
O14 C18 1.253 . S
H15 C11 0.931 . S
H16 C12 0.930 1_455 S
O17 Co6 2.039 . S
O17 C7 1.265 . S
C18 O14 1.253 . S
C18 O19 1.227 . S
O19 C18 1.227 . S
N20 Co6 2.140 . S
N20 C23 1.346 . S
N20 C24 1.345 . S
C21 C22 1.387 . S
C21 C25 1.391 . S
C22 C21 1.387 . S
C22 C23 1.369 . S
C22 H31 0.929 . S
C23 N20 1.346 . S
C23 C22 1.369 . S
C23 H26 0.928 . S
C24 N20 1.345 . S
C24 C25 1.371 . S
C24 H27 0.931 . S
C25 C21 1.391 . S
C25 C24 1.371 . S
C25 H32 0.930 . S
H26 C23 0.928 . S
H27 C24 0.931 . S
H28 C4 0.930 . S
H29 C1 0.930 . S
H30 C10 0.930 . S
H31 C22 0.929 . S
H32 C25 0.930 . S
C33 C34 1.351 . S
C33 N36 1.368 . S
C33 H38 0.931 . S
C34 C33 1.351 . S
C34 N35 1.373 1_556 S
C34 H62 0.930 . S
N35 C34 1.373 1_554 S
N35 C37 1.340 1_554 S
N36 C33 1.368 . S
N36 C37 1.321 . S
N36 Co39 2.135 . S
C37 N35 1.340 1_556 S
C37 N36 1.321 . S
C37 H61 0.930 . S
H38 C33 0.931 . S
Co39 N36 2.135 . S
Co39 N42 2.121 . S
Co39 O47 2.055 . S
Co39 O50 2.039 . S
Co39 N53 2.140 1_556 S
C40 O41 1.227 1_556 S
C40 O50 1.265 . S
O41 C40 1.227 1_554 S
N42 Co39 2.121 . S
N42 C44 1.375 . S
N42 C45 1.313 . S
C43 C44 1.338 . S
C43 N46 1.377 . S
C43 H63 0.930 . S
C44 N42 1.375 . S
C44 C43 1.338 . S
C44 H48 0.931 . S
C45 N42 1.313 . S
C45 N46 1.344 . S
C45 H49 0.930 . S
N46 C43 1.377 . S
N46 C45 1.344 . S
O47 Co39 2.055 . S
O47 C51 1.253 . S
H48 C44 0.931 . S
H49 C45 0.930 . S
O50 Co39 2.039 . S
O50 C40 1.265 . S
C51 O47 1.253 . S
C51 O52 1.227 . S
O52 C51 1.227 . S
N53 Co39 2.140 1_554 S
N53 C56 1.346 . S
N53 C57 1.345 . S
C54 C55 1.387 . S
C54 C58 1.391 . S
C55 C54 1.387 . S
C55 C56 1.369 . S
C55 H64 0.929 . S
C56 N53 1.346 . S
C56 C55 1.369 . S
C56 H59 0.928 . S
C57 N53 1.345 . S
C57 C58 1.371 . S
C57 H60 0.931 1_554 S
C58 C54 1.391 . S
C58 C57 1.371 . S
C58 H65 0.930 . S
H59 C56 0.928 . S
H60 C57 0.931 1_556 S
H61 C37 0.930 . S
H62 C34 0.930 . S
H63 C43 0.930 . S
H64 C55 0.929 . S
H65 C58 0.930 . S
C66 C67 1.351 . S
C66 N69 1.368 . S
C66 H71 0.931 . S
C67 C66 1.351 . S
C67 N68 1.373 . S
C67 H95 0.930 . S
N68 C67 1.373 . S
N68 C70 1.340 . S
N69 C66 1.368 . S
N69 C70 1.321 . S
N69 Co72 2.135 . S
C70 N68 1.340 . S
C70 N69 1.321 . S
C70 H94 0.930 . S
H71 C66 0.931 . S
Co72 N69 2.135 . S
Co72 N75 2.121 1_655 S
Co72 O80 2.055 . S
Co72 O83 2.039 . S
Co72 N86 2.140 . S
C73 O74 1.227 . S
C73 O83 1.265 . S
O74 C73 1.227 . S
N75 Co72 2.121 1_455 S
N75 C77 1.375 . S
N75 C78 1.313 . S
C76 C77 1.338 . S
C76 N79 1.377 . S
C76 H96 0.930 . S
C77 N75 1.375 . S
C77 C76 1.338 . S
C77 H81 0.931 . S
C78 N75 1.313 . S
C78 N79 1.344 . S
C78 H82 0.925 1_455 S
N79 C76 1.377 . S
N79 C78 1.344 . S
O80 Co72 2.055 . S
O80 C84 1.253 . S
H81 C77 0.931 . S
H82 C78 0.925 1_655 S
O83 Co72 2.039 . S
O83 C73 1.265 . S
C84 O80 1.253 . S
C84 O85 1.227 . S
O85 C84 1.227 . S
N86 Co72 2.140 . S
N86 C89 1.346 . S
N86 C90 1.345 . S
C87 C88 1.387 . S
C87 C91 1.391 . S
C88 C87 1.387 . S
C88 C89 1.369 . S
C88 H97 0.929 . S
C89 N86 1.346 . S
C89 C88 1.369 . S
C89 H92 0.928 . S
C90 N86 1.345 . S
C90 C91 1.371 . S
C90 H93 0.931 . S
C91 C87 1.391 . S
C91 C90 1.371 . S
C91 H98 0.930 . S
H92 C89 0.928 . S
H93 C90 0.931 . S
H94 C70 0.930 . S
H95 C67 0.930 . S
H96 C76 0.930 . S
H97 C88 0.929 . S
H98 C91 0.930 . S
C99 C100 1.351 . S
C99 N102 1.368 . S
C99 H104 0.931 . S
C100 C99 1.351 . S
C100 N101 1.373 1_556 S
C100 H128 0.930 . S
N101 C100 1.373 1_554 S
N101 C103 1.340 1_554 S
N102 C99 1.368 . S
N102 C103 1.321 . S
N102 Co105 2.135 . S
C103 N101 1.340 1_556 S
C103 N102 1.321 . S
C103 H127 0.930 . S
H104 C99 0.931 . S
Co105 N102 2.135 . S
Co105 N108 2.121 . S
Co105 O113 2.055 . S
Co105 O116 2.039 . S
Co105 N119 2.140 1_556 S
C106 O107 1.227 1_556 S
C106 O116 1.265 . S
O107 C106 1.227 1_554 S
N108 Co105 2.121 . S
N108 C110 1.375 . S
N108 C111 1.313 . S
C109 C110 1.338 . S
C109 N112 1.377 . S
C109 H129 0.930 . S
C110 N108 1.375 . S
C110 C109 1.338 . S
C110 H114 0.931 . S
C111 N108 1.313 . S
C111 N112 1.344 . S
C111 H115 0.930 . S
N112 C109 1.377 . S
N112 C111 1.344 . S
O113 Co105 2.055 . S
O113 C117 1.253 . S
H114 C110 0.931 . S
H115 C111 0.930 . S
O116 Co105 2.039 . S
O116 C106 1.265 . S
C117 O113 1.253 . S
C117 O118 1.227 . S
O118 C117 1.227 . S
N119 Co105 2.140 1_554 S
N119 C122 1.346 . S
N119 C123 1.345 . S
C120 C121 1.387 . S
C120 C124 1.391 . S
C121 C120 1.387 . S
C121 C122 1.369 . S
C121 H130 0.929 . S
C122 N119 1.346 . S
C122 C121 1.369 . S
C122 H125 0.928 . S
C123 N119 1.345 . S
C123 C124 1.371 . S
C123 H126 0.931 1_554 S
C124 C120 1.391 . S
C124 C123 1.371 . S
C124 H131 0.930 . S
H125 C122 0.928 . S
H126 C123 0.931 1_556 S
H127 C103 0.930 . S
H128 C100 0.930 . S
H129 C109 0.930 . S
H130 C121 0.929 . S
H131 C124 0.930 . S
C132 C133 1.351 . S
C132 N135 1.368 . S
C132 H137 0.931 . S
C133 C132 1.351 . S
C133 N134 1.373 . S
C133 H161 0.930 . S
N134 C133 1.373 . S
N134 C136 1.340 . S
N135 C132 1.368 . S
N135 C136 1.321 . S
N135 Co138 2.135 . S
C136 N134 1.340 . S
C136 N135 1.321 . S
C136 H160 0.930 . S
H137 C132 0.931 . S
Co138 N135 2.135 . S
Co138 N141 2.121 1_455 S
Co138 O146 2.055 . S
Co138 O149 2.039 . S
Co138 N152 2.140 . S
C139 O140 1.227 . S
C139 O149 1.265 . S
O140 C139 1.227 . S
N141 Co138 2.121 1_655 S
N141 C143 1.375 . S
N141 C144 1.313 . S
C142 C143 1.338 . S
C142 N145 1.377 . S
C142 H162 0.930 . S
C143 N141 1.375 . S
C143 C142 1.338 . S
C143 H147 0.931 . S
C144 N141 1.313 . S
C144 N145 1.344 . S
C144 H148 0.930 1_655 S
N145 C142 1.377 . S
N145 C144 1.344 . S
O146 Co138 2.055 . S
O146 C150 1.253 . S
H147 C143 0.931 . S
H148 C144 0.930 1_455 S
O149 Co138 2.039 . S
O149 C139 1.265 . S
C150 O146 1.253 . S
C150 O151 1.227 . S
O151 C150 1.227 . S
N152 Co138 2.140 . S
N152 C155 1.346 . S
N152 C156 1.345 . S
C153 C154 1.387 . S
C153 C157 1.391 . S
C154 C153 1.387 . S
C154 C155 1.369 . S
C154 H163 0.929 . S
C155 N152 1.346 . S
C155 C154 1.369 . S
C155 H158 0.928 . S
C156 N152 1.345 . S
C156 C157 1.371 . S
C156 H159 0.931 . S
C157 C153 1.391 . S
C157 C156 1.371 . S
C157 H164 0.930 . S
H158 C155 0.928 . S
H159 C156 0.931 . S
H160 C136 0.930 . S
H161 C133 0.930 . S
H162 C142 0.930 . S
H163 C154 0.929 . S
H164 C157 0.930 . S
C165 C166 1.351 . S
C165 N168 1.368 . S
C165 H170 0.931 . S
C166 C165 1.351 . S
C166 N167 1.373 1_554 S
C166 H194 0.930 . S
N167 C166 1.373 1_556 S
N167 C169 1.340 1_556 S
N168 C165 1.368 . S
N168 C169 1.321 . S
N168 Co171 2.135 . S
C169 N167 1.340 1_554 S
C169 N168 1.321 . S
C169 H193 0.930 . S
H170 C165 0.931 . S
Co171 N168 2.135 . S
Co171 N174 2.121 . S
Co171 O179 2.055 . S
Co171 O182 2.039 . S
Co171 N185 2.140 1_554 S
C172 O173 1.227 1_554 S
C172 O182 1.265 . S
O173 C172 1.227 1_556 S
N174 Co171 2.121 . S
N174 C176 1.375 . S
N174 C177 1.313 . S
C175 C176 1.338 . S
C175 N178 1.377 . S
C175 H195 0.930 . S
C176 N174 1.375 . S
C176 C175 1.338 . S
C176 H180 0.931 . S
C177 N174 1.313 . S
C177 N178 1.344 . S
C177 H181 0.930 . S
N178 C175 1.377 . S
N178 C177 1.344 . S
O179 Co171 2.055 . S
O179 C183 1.253 . S
H180 C176 0.931 . S
H181 C177 0.930 . S
O182 Co171 2.039 . S
O182 C172 1.265 . S
C183 O179 1.253 . S
C183 O184 1.227 . S
O184 C183 1.227 . S
N185 Co171 2.140 1_556 S
N185 C188 1.346 . S
N185 C189 1.345 . S
C186 C187 1.387 . S
C186 C190 1.391 . S
C187 C186 1.387 . S
C187 C188 1.369 . S
C187 H196 0.929 . S
C188 N185 1.346 . S
C188 C187 1.369 . S
C188 H191 0.928 . S
C189 N185 1.345 . S
C189 C190 1.371 . S
C189 H192 0.931 1_556 S
C190 C186 1.391 . S
C190 C189 1.371 . S
C190 H197 0.930 . S
H191 C188 0.928 . S
H192 C189 0.931 1_554 S
H193 C169 0.930 . S
H194 C166 0.930 . S
H195 C175 0.930 . S
H196 C187 0.929 . S
H197 C190 0.930 . S
C198 C199 1.351 . S
C198 N201 1.368 . S
C198 H203 0.931 . S
C199 C198 1.351 . S
C199 N200 1.373 . S
C199 H227 0.930 . S
N200 C199 1.373 . S
N200 C202 1.340 . S
N201 C198 1.368 . S
N201 C202 1.321 . S
N201 Co204 2.135 . S
C202 N200 1.340 . S
C202 N201 1.321 . S
C202 H226 0.930 . S
H203 C198 0.931 . S
Co204 N201 2.135 . S
Co204 N207 2.121 1_655 S
Co204 O212 2.055 . S
Co204 O215 2.039 . S
Co204 N218 2.140 . S
C205 O206 1.227 . S
C205 O215 1.265 . S
O206 C205 1.227 . S
N207 Co204 2.121 1_455 S
N207 C209 1.375 . S
N207 C210 1.313 . S
C208 C209 1.338 . S
C208 N211 1.377 . S
C208 H228 0.930 . S
C209 N207 1.375 . S
C209 C208 1.338 . S
C209 H213 0.931 . S
C210 N207 1.313 . S
C210 N211 1.344 . S
C210 H214 0.925 1_455 S
N211 C208 1.377 . S
N211 C210 1.344 . S
O212 Co204 2.055 . S
O212 C216 1.253 . S
H213 C209 0.931 . S
H214 C210 0.925 1_655 S
O215 Co204 2.039 . S
O215 C205 1.265 . S
C216 O212 1.253 . S
C216 O217 1.227 . S
O217 C216 1.227 . S
N218 Co204 2.140 . S
N218 C221 1.346 . S
N218 C222 1.345 . S
C219 C220 1.387 . S
C219 C223 1.391 . S
C220 C219 1.387 . S
C220 C221 1.369 . S
C220 H229 0.929 . S
C221 N218 1.346 . S
C221 C220 1.369 . S
C221 H224 0.928 . S
C222 N218 1.345 . S
C222 C223 1.371 . S
C222 H225 0.931 . S
C223 C219 1.391 . S
C223 C222 1.371 . S
C223 H230 0.930 . S
H224 C221 0.928 . S
H225 C222 0.931 . S
H226 C202 0.930 . S
H227 C199 0.930 . S
H228 C208 0.930 . S
H229 C220 0.929 . S
H230 C223 0.930 . S
C231 C232 1.351 . S
C231 N234 1.368 . S
C231 H236 0.931 . S
C232 C231 1.351 . S
C232 N233 1.373 1_554 S
C232 H260 0.930 . S
N233 C232 1.373 1_556 S
N233 C235 1.340 1_556 S
N234 C231 1.368 . S
N234 C235 1.321 . S
N234 Co237 2.135 . S
C235 N233 1.340 1_554 S
C235 N234 1.321 . S
C235 H259 0.930 . S
H236 C231 0.931 . S
Co237 N234 2.135 . S
Co237 N240 2.121 . S
Co237 O245 2.055 . S
Co237 O248 2.039 . S
Co237 N251 2.140 1_554 S
C238 O239 1.227 1_554 S
C238 O248 1.265 . S
O239 C238 1.227 1_556 S
N240 Co237 2.121 . S
N240 C242 1.375 . S
N240 C243 1.313 . S
C241 C242 1.338 . S
C241 N244 1.377 . S
C241 H261 0.930 . S
C242 N240 1.375 . S
C242 C241 1.338 . S
C242 H246 0.931 . S
C243 N240 1.313 . S
C243 N244 1.344 . S
C243 H247 0.930 . S
N244 C241 1.377 . S
N244 C243 1.344 . S
O245 Co237 2.055 . S
O245 C249 1.253 . S
H246 C242 0.931 . S
H247 C243 0.930 . S
O248 Co237 2.039 . S
O248 C238 1.265 . S
C249 O245 1.253 . S
C249 O250 1.227 . S
O250 C249 1.227 . S
N251 Co237 2.140 1_556 S
N251 C254 1.346 . S
N251 C255 1.345 . S
C252 C253 1.387 . S
C252 C256 1.391 . S
C253 C252 1.387 . S
C253 C254 1.369 . S
C253 H262 0.929 . S
C254 N251 1.346 . S
C254 C253 1.369 . S
C254 H257 0.928 . S
C255 N251 1.345 . S
C255 C256 1.371 . S
C255 H258 0.931 1_556 S
C256 C252 1.391 . S
C256 C255 1.371 . S
C256 H263 0.930 . S
H257 C254 0.928 . S
H258 C255 0.931 1_554 S
H259 C235 0.930 . S
H260 C232 0.930 . S
H261 C241 0.930 . S
H262 C253 0.929 . S
H263 C256 0.930 . S
C264 C265 1.351 . S
C264 N267 1.368 . S
C264 H269 0.931 . S
C265 C264 1.351 . S
C265 N266 1.373 . S
C265 H293 0.930 . S
N266 C265 1.373 . S
N266 C268 1.340 . S
N267 C264 1.368 . S
N267 C268 1.321 . S
N267 Co270 2.135 . S
C268 N266 1.340 . S
C268 N267 1.321 . S
C268 H292 0.930 . S
H269 C264 0.931 . S
Co270 N267 2.135 . S
Co270 N273 2.121 1_545 S
Co270 O278 2.055 . S
Co270 O281 2.039 . S
Co270 N284 2.140 . S
C271 O272 1.227 . S
C271 O281 1.265 . S
O272 C271 1.227 . S
N273 Co270 2.121 1_565 S
N273 C275 1.375 . S
N273 C276 1.313 . S
C274 C275 1.338 . S
C274 N277 1.377 . S
C274 H294 0.930 . S
C275 N273 1.375 . S
C275 C274 1.338 . S
C275 H279 0.931 . S
C276 N273 1.313 . S
C276 N277 1.344 . S
C276 H280 0.930 1_565 S
N277 C274 1.377 . S
N277 C276 1.344 . S
O278 Co270 2.055 . S
O278 C282 1.253 . S
H279 C275 0.931 . S
H280 C276 0.930 1_545 S
O281 Co270 2.039 . S
O281 C271 1.265 . S
C282 O278 1.253 . S
C282 O283 1.227 . S
O283 C282 1.227 . S
N284 Co270 2.140 . S
N284 C287 1.346 . S
N284 C288 1.345 . S
C285 C286 1.387 . S
C285 C289 1.391 . S
C286 C285 1.387 . S
C286 C287 1.369 . S
C286 H295 0.929 . S
C287 N284 1.346 . S
C287 C286 1.369 . S
C287 H290 0.928 . S
C288 N284 1.345 . S
C288 C289 1.371 . S
C288 H291 0.931 . S
C289 C285 1.391 . S
C289 C288 1.371 . S
C289 H296 0.930 . S
H290 C287 0.928 . S
H291 C288 0.931 . S
H292 C268 0.930 . S
H293 C265 0.930 . S
H294 C274 0.930 . S
H295 C286 0.929 . S
H296 C289 0.930 . S
C297 C298 1.351 . S
C297 N300 1.368 . S
C297 H302 0.931 . S
C298 C297 1.351 . S
C298 N299 1.373 . S
C298 H326 0.930 . S
N299 C298 1.373 . S
N299 C301 1.340 . S
N300 C297 1.368 . S
N300 C301 1.321 . S
N300 Co303 2.135 . S
C301 N299 1.340 . S
C301 N300 1.321 . S
C301 H325 0.930 . S
H302 C297 0.931 . S
Co303 N300 2.135 . S
Co303 N306 2.121 . S
Co303 O311 2.055 . S
Co303 O314 2.039 . S
Co303 N317 2.140 . S
C304 O305 1.227 . S
C304 O314 1.265 . S
O305 C304 1.227 . S
N306 Co303 2.121 . S
N306 C308 1.375 . S
N306 C309 1.313 . S
C307 C308 1.338 . S
C307 N310 1.377 . S
C307 H327 0.930 . S
C308 N306 1.375 . S
C308 C307 1.338 . S
C308 H312 0.931 . S
C309 N306 1.313 . S
C309 N310 1.344 . S
C309 H313 0.930 . S
N310 C307 1.377 . S
N310 C309 1.344 . S
O311 Co303 2.055 . S
O311 C315 1.253 . S
H312 C308 0.931 . S
H313 C309 0.930 . S
O314 Co303 2.039 . S
O314 C304 1.265 . S
C315 O311 1.253 . S
C315 O316 1.227 . S
O316 C315 1.227 . S
N317 Co303 2.140 . S
N317 C320 1.346 . S
N317 C321 1.345 . S
C318 C319 1.387 . S
C318 C322 1.391 . S
C319 C318 1.387 . S
C319 C320 1.369 . S
C319 H328 0.929 . S
C320 N317 1.346 . S
C320 C319 1.369 . S
C320 H323 0.928 . S
C321 N317 1.345 . S
C321 C322 1.371 . S
C321 H324 0.931 . S
C322 C318 1.391 . S
C322 C321 1.371 . S
C322 H329 0.930 . S
H323 C320 0.928 . S
H324 C321 0.931 . S
H325 C301 0.930 . S
H326 C298 0.930 . S
H327 C307 0.930 . S
H328 C319 0.929 . S
H329 C322 0.930 . S
C330 C331 1.351 . S
C330 N333 1.368 . S
C330 H335 0.931 . S
C331 C330 1.351 . S
C331 N332 1.373 . S
C331 H359 0.930 . S
N332 C331 1.373 . S
N332 C334 1.340 . S
N333 C330 1.368 . S
N333 C334 1.321 . S
N333 Co336 2.135 . S
C334 N332 1.340 . S
C334 N333 1.321 . S
C334 H358 0.930 . S
H335 C330 0.931 . S
Co336 N333 2.135 . S
Co336 N339 2.121 . S
Co336 O344 2.055 . S
Co336 O347 2.039 . S
Co336 N350 2.140 . S
C337 O338 1.227 . S
C337 O347 1.265 . S
O338 C337 1.227 . S
N339 Co336 2.121 . S
N339 C341 1.375 . S
N339 C342 1.313 . S
C340 C341 1.338 . S
C340 N343 1.377 . S
C340 H360 0.930 . S
C341 N339 1.375 . S
C341 C340 1.338 . S
C341 H345 0.931 . S
C342 N339 1.313 . S
C342 N343 1.344 . S
C342 H346 0.930 . S
N343 C340 1.377 . S
N343 C342 1.344 . S
O344 Co336 2.055 . S
O344 C348 1.253 . S
H345 C341 0.931 . S
H346 C342 0.930 . S
O347 Co336 2.039 . S
O347 C337 1.265 . S
C348 O344 1.253 . S
C348 O349 1.227 . S
O349 C348 1.227 . S
N350 Co336 2.140 . S
N350 C353 1.346 . S
N350 C354 1.345 . S
C351 C352 1.387 . S
C351 C355 1.391 . S
C352 C351 1.387 . S
C352 C353 1.369 . S
C352 H361 0.929 . S
C353 N350 1.346 . S
C353 C352 1.369 . S
C353 H356 0.928 . S
C354 N350 1.345 . S
C354 C355 1.371 . S
C354 H357 0.931 . S
C355 C351 1.391 . S
C355 C354 1.371 . S
C355 H362 0.930 . S
H356 C353 0.928 . S
H357 C354 0.931 . S
H358 C334 0.930 . S
H359 C331 0.930 . S
H360 C340 0.930 . S
H361 C352 0.929 . S
H362 C355 0.930 . S
C363 C364 1.351 . S
C363 N366 1.368 . S
C363 H368 0.931 . S
C364 C363 1.351 . S
C364 N365 1.373 1_545 S
C364 H392 0.930 . S
N365 C364 1.373 1_565 S
N365 C367 1.340 1_565 S
N366 C363 1.368 . S
N366 C367 1.321 . S
N366 Co369 2.135 . S
C367 N365 1.340 1_545 S
C367 N366 1.321 . S
C367 H391 0.930 . S
H368 C363 0.931 . S
Co369 N366 2.135 . S
Co369 N372 2.121 . S
Co369 O377 2.055 . S
Co369 O380 2.039 . S
Co369 N383 2.140 1_545 S
C370 O371 1.227 1_545 S
C370 O380 1.265 . S
O371 C370 1.227 1_565 S
N372 Co369 2.121 . S
N372 C374 1.375 . S
N372 C375 1.313 . S
C373 C374 1.338 . S
C373 N376 1.377 . S
C373 H393 0.930 . S
C374 N372 1.375 . S
C374 C373 1.338 . S
C374 H378 0.931 . S
C375 N372 1.313 . S
C375 N376 1.344 . S
C375 H379 0.930 . S
N376 C373 1.377 . S
N376 C375 1.344 . S
O377 Co369 2.055 . S
O377 C381 1.253 . S
H378 C374 0.931 . S
H379 C375 0.930 . S
O380 Co369 2.039 . S
O380 C370 1.265 . S
C381 O377 1.253 . S
C381 O382 1.227 . S
O382 C381 1.227 . S
N383 Co369 2.140 1_565 S
N383 C386 1.346 . S
N383 C387 1.345 . S
C384 C385 1.387 . S
C384 C388 1.391 . S
C385 C384 1.387 . S
C385 C386 1.369 . S
C385 H394 0.929 . S
C386 N383 1.346 . S
C386 C385 1.369 . S
C386 H389 0.928 . S
C387 N383 1.345 . S
C387 C388 1.371 . S
C387 H390 0.931 1_565 S
C388 C384 1.391 . S
C388 C387 1.371 . S
C388 H395 0.930 . S
H389 C386 0.928 . S
H390 C387 0.931 1_545 S
H391 C367 0.930 . S
H392 C364 0.930 . S
H393 C373 0.930 . S
H394 C385 0.929 . S
H395 C388 0.930 . S
C396 C397 1.351 . S
C396 N399 1.368 . S
C396 H401 0.931 . S
C397 C396 1.351 . S
C397 N398 1.373 . S
C397 H425 0.930 . S
N398 C397 1.373 . S
N398 C400 1.340 . S
N399 C396 1.368 . S
N399 C400 1.321 . S
N399 Co402 2.135 . S
C400 N398 1.340 . S
C400 N399 1.321 . S
C400 H424 0.930 . S
H401 C396 0.931 . S
Co402 N399 2.135 . S
Co402 N405 2.121 1_565 S
Co402 O410 2.055 . S
Co402 O413 2.039 . S
Co402 N416 2.140 . S
C403 O404 1.227 . S
C403 O413 1.265 . S
O404 C403 1.227 . S
N405 Co402 2.121 1_545 S
N405 C407 1.375 . S
N405 C408 1.313 . S
C406 C407 1.338 . S
C406 N409 1.377 . S
C406 H426 0.930 . S
C407 N405 1.375 . S
C407 C406 1.338 . S
C407 H411 0.931 . S
C408 N405 1.313 . S
C408 N409 1.344 . S
C408 H412 0.925 1_545 S
N409 C406 1.377 . S
N409 C408 1.344 . S
O410 Co402 2.055 . S
O410 C414 1.253 . S
H411 C407 0.931 . S
H412 C408 0.925 1_565 S
O413 Co402 2.039 . S
O413 C403 1.265 . S
C414 O410 1.253 . S
C414 O415 1.227 . S
O415 C414 1.227 . S
N416 Co402 2.140 . S
N416 C419 1.346 . S
N416 C420 1.345 . S
C417 C418 1.387 . S
C417 C421 1.391 . S
C418 C417 1.387 . S
C418 C419 1.369 . S
C418 H427 0.929 . S
C419 N416 1.346 . S
C419 C418 1.369 . S
C419 H422 0.928 . S
C420 N416 1.345 . S
C420 C421 1.371 . S
C420 H423 0.931 . S
C421 C417 1.391 . S
C421 C420 1.371 . S
C421 H428 0.930 . S
H422 C419 0.928 . S
H423 C420 0.931 . S
H424 C400 0.930 . S
H425 C397 0.930 . S
H426 C406 0.930 . S
H427 C418 0.929 . S
H428 C421 0.930 . S
C429 C430 1.351 . S
C429 N432 1.368 . S
C429 H434 0.931 . S
C430 C429 1.351 . S
C430 N431 1.373 . S
C430 H458 0.930 . S
N431 C430 1.373 . S
N431 C433 1.340 . S
N432 C429 1.368 . S
N432 C433 1.321 . S
N432 Co435 2.135 . S
C433 N431 1.340 . S
C433 N432 1.321 . S
C433 H457 0.930 . S
H434 C429 0.931 . S
Co435 N432 2.135 . S
Co435 N438 2.121 . S
Co435 O443 2.055 . S
Co435 O446 2.039 . S
Co435 N449 2.140 . S
C436 O437 1.227 . S
C436 O446 1.265 . S
O437 C436 1.227 . S
N438 Co435 2.121 . S
N438 C440 1.375 . S
N438 C441 1.313 . S
C439 C440 1.338 . S
C439 N442 1.377 . S
C439 H459 0.930 . S
C440 N438 1.375 . S
C440 C439 1.338 . S
C440 H444 0.931 . S
C441 N438 1.313 . S
C441 N442 1.344 . S
C441 H445 0.930 . S
N442 C439 1.377 . S
N442 C441 1.344 . S
O443 Co435 2.055 . S
O443 C447 1.253 . S
H444 C440 0.931 . S
H445 C441 0.930 . S
O446 Co435 2.039 . S
O446 C436 1.265 . S
C447 O443 1.253 . S
C447 O448 1.227 . S
O448 C447 1.227 . S
N449 Co435 2.140 . S
N449 C452 1.346 . S
N449 C453 1.345 . S
C450 C451 1.387 . S
C450 C454 1.391 . S
C451 C450 1.387 . S
C451 C452 1.369 . S
C451 H460 0.929 . S
C452 N449 1.346 . S
C452 C451 1.369 . S
C452 H455 0.928 . S
C453 N449 1.345 . S
C453 C454 1.371 . S
C453 H456 0.931 . S
C454 C450 1.391 . S
C454 C453 1.371 . S
C454 H461 0.930 . S
H455 C452 0.928 . S
H456 C453 0.931 . S
H457 C433 0.930 . S
H458 C430 0.930 . S
H459 C439 0.930 . S
H460 C451 0.929 . S
H461 C454 0.930 . S
C462 C463 1.351 . S
C462 N465 1.368 . S
C462 H467 0.931 . S
C463 C462 1.351 . S
C463 N464 1.373 . S
C463 H491 0.930 . S
N464 C463 1.373 . S
N464 C466 1.340 . S
N465 C462 1.368 . S
N465 C466 1.321 . S
N465 Co468 2.135 . S
C466 N464 1.340 . S
C466 N465 1.321 . S
C466 H490 0.930 . S
H467 C462 0.931 . S
Co468 N465 2.135 . S
Co468 N471 2.121 . S
Co468 O476 2.055 . S
Co468 O479 2.039 . S
Co468 N482 2.140 . S
C469 O470 1.227 . S
C469 O479 1.265 . S
O470 C469 1.227 . S
N471 Co468 2.121 . S
N471 C473 1.375 . S
N471 C474 1.313 . S
C472 C473 1.338 . S
C472 N475 1.377 . S
C472 H492 0.930 . S
C473 N471 1.375 . S
C473 C472 1.338 . S
C473 H477 0.931 . S
C474 N471 1.313 . S
C474 N475 1.344 . S
C474 H478 0.930 . S
N475 C472 1.377 . S
N475 C474 1.344 . S
O476 Co468 2.055 . S
O476 C480 1.253 . S
H477 C473 0.931 . S
H478 C474 0.930 . S
O479 Co468 2.039 . S
O479 C469 1.265 . S
C480 O476 1.253 . S
C480 O481 1.227 . S
O481 C480 1.227 . S
N482 Co468 2.140 . S
N482 C485 1.346 . S
N482 C486 1.345 . S
C483 C484 1.387 . S
C483 C487 1.391 . S
C484 C483 1.387 . S
C484 C485 1.369 . S
C484 H493 0.929 . S
C485 N482 1.346 . S
C485 C484 1.369 . S
C485 H488 0.928 . S
C486 N482 1.345 . S
C486 C487 1.371 . S
C486 H489 0.931 . S
C487 C483 1.391 . S
C487 C486 1.371 . S
C487 H494 0.930 . S
H488 C485 0.928 . S
H489 C486 0.931 . S
H490 C466 0.930 . S
H491 C463 0.930 . S
H492 C472 0.930 . S
H493 C484 0.929 . S
H494 C487 0.930 . S
C495 C496 1.351 . S
C495 N498 1.368 . S
C495 H500 0.931 . S
C496 C495 1.351 . S
C496 N497 1.373 1_545 S
C496 H524 0.930 . S
N497 C496 1.373 1_565 S
N497 C499 1.340 1_565 S
N498 C495 1.368 . S
N498 C499 1.321 . S
N498 Co501 2.135 . S
C499 N497 1.340 1_545 S
C499 N498 1.321 . S
C499 H523 0.930 . S
H500 C495 0.931 . S
Co501 N498 2.135 . S
Co501 N504 2.121 . S
Co501 O509 2.055 . S
Co501 O512 2.039 . S
Co501 N515 2.140 1_545 S
C502 O503 1.227 1_545 S
C502 O512 1.265 . S
O503 C502 1.227 1_565 S
N504 Co501 2.121 . S
N504 C506 1.375 . S
N504 C507 1.313 . S
C505 C506 1.338 . S
C505 N508 1.377 . S
C505 H525 0.930 . S
C506 N504 1.375 . S
C506 C505 1.338 . S
C506 H510 0.931 . S
C507 N504 1.313 . S
C507 N508 1.344 . S
C507 H511 0.930 . S
N508 C505 1.377 . S
N508 C507 1.344 . S
O509 Co501 2.055 . S
O509 C513 1.253 . S
H510 C506 0.931 . S
H511 C507 0.930 . S
O512 Co501 2.039 . S
O512 C502 1.265 . S
C513 O509 1.253 . S
C513 O514 1.227 . S
O514 C513 1.227 . S
N515 Co501 2.140 1_565 S
N515 C518 1.346 . S
N515 C519 1.345 . S
C516 C517 1.387 . S
C516 C520 1.391 . S
C517 C516 1.387 . S
C517 C518 1.369 . S
C517 H526 0.929 . S
C518 N515 1.346 . S
C518 C517 1.369 . S
C518 H521 0.928 . S
C519 N515 1.345 . S
C519 C520 1.371 . S
C519 H522 0.931 1_565 S
C520 C516 1.391 . S
C520 C519 1.371 . S
C520 H527 0.930 . S
H521 C518 0.928 . S
H522 C519 0.931 1_545 S
H523 C499 0.930 . S
H524 C496 0.930 . S
H525 C505 0.930 . S
H526 C517 0.929 . S
H527 C520 0.930 . S
C528 C529 1.351 . S
C528 N531 1.368 . S
C528 H533 0.931 . S
C529 C528 1.351 . S
C529 N530 1.373 . S
C529 H557 0.930 . S
N530 C529 1.373 . S
N530 C532 1.340 . S
N531 C528 1.368 . S
N531 C532 1.321 . S
N531 Co534 2.135 . S
C532 N530 1.340 . S
C532 N531 1.321 . S
C532 H556 0.930 . S
H533 C528 0.931 . S
Co534 N531 2.135 . S
Co534 N537 2.121 1_554 S
Co534 O542 2.055 . S
Co534 O545 2.039 . S
Co534 N548 2.140 . S
C535 O536 1.227 . S
C535 O545 1.265 . S
O536 C535 1.227 . S
N537 Co534 2.121 1_556 S
N537 C539 1.375 . S
N537 C540 1.313 . S
C538 C539 1.338 . S
C538 N541 1.377 . S
C538 H558 0.930 . S
C539 N537 1.375 . S
C539 C538 1.338 . S
C539 H543 0.931 . S
C540 N537 1.313 . S
C540 N541 1.344 . S
C540 H544 0.930 1_556 S
N541 C538 1.377 . S
N541 C540 1.344 . S
O542 Co534 2.055 . S
O542 C546 1.253 . S
H543 C539 0.931 . S
H544 C540 0.930 1_554 S
O545 Co534 2.039 . S
O545 C535 1.265 . S
C546 O542 1.253 . S
C546 O547 1.227 . S
O547 C546 1.227 . S
N548 Co534 2.140 . S
N548 C551 1.346 . S
N548 C552 1.345 . S
C549 C550 1.387 . S
C549 C553 1.391 . S
C550 C549 1.387 . S
C550 C551 1.369 . S
C550 H559 0.929 . S
C551 N548 1.346 . S
C551 C550 1.369 . S
C551 H554 0.928 . S
C552 N548 1.345 . S
C552 C553 1.371 . S
C552 H555 0.931 . S
C553 C549 1.391 . S
C553 C552 1.371 . S
C553 H560 0.930 . S
H554 C551 0.928 . S
H555 C552 0.931 . S
H556 C532 0.930 . S
H557 C529 0.930 . S
H558 C538 0.930 . S
H559 C550 0.929 . S
H560 C553 0.930 . S
C561 C562 1.351 . S
C561 N564 1.368 . S
C561 H566 0.931 . S
C562 C561 1.351 . S
C562 N563 1.373 . S
C562 H590 0.930 . S
N563 C562 1.373 . S
N563 C565 1.340 . S
N564 C561 1.368 . S
N564 C565 1.321 . S
N564 Co567 2.135 . S
C565 N563 1.340 . S
C565 N564 1.321 . S
C565 H589 0.930 . S
H566 C561 0.931 . S
Co567 N564 2.135 . S
Co567 N570 2.121 . S
Co567 O575 2.055 . S
Co567 O578 2.039 . S
Co567 N581 2.140 . S
C568 O569 1.227 . S
C568 O578 1.265 . S
O569 C568 1.227 . S
N570 Co567 2.121 . S
N570 C572 1.375 . S
N570 C573 1.313 . S
C571 C572 1.338 . S
C571 N574 1.377 . S
C571 H591 0.930 . S
C572 N570 1.375 . S
C572 C571 1.338 . S
C572 H576 0.931 . S
C573 N570 1.313 . S
C573 N574 1.344 . S
C573 H577 0.930 . S
N574 C571 1.377 . S
N574 C573 1.344 . S
O575 Co567 2.055 . S
O575 C579 1.253 . S
H576 C572 0.931 . S
H577 C573 0.930 . S
O578 Co567 2.039 . S
O578 C568 1.265 . S
C579 O575 1.253 . S
C579 O580 1.227 . S
O580 C579 1.227 . S
N581 Co567 2.140 . S
N581 C584 1.346 . S
N581 C585 1.345 . S
C582 C583 1.387 . S
C582 C586 1.391 . S
C583 C582 1.387 . S
C583 C584 1.369 . S
C583 H592 0.929 . S
C584 N581 1.346 . S
C584 C583 1.369 . S
C584 H587 0.928 . S
C585 N581 1.345 . S
C585 C586 1.371 . S
C585 H588 0.931 . S
C586 C582 1.391 . S
C586 C585 1.371 . S
C586 H593 0.930 . S
H587 C584 0.928 . S
H588 C585 0.931 . S
H589 C565 0.930 . S
H590 C562 0.930 . S
H591 C571 0.930 . S
H592 C583 0.929 . S
H593 C586 0.930 . S
C594 C595 1.351 . S
C594 N597 1.368 . S
C594 H599 0.931 . S
C595 C594 1.351 . S
C595 N596 1.373 1_655 S
C595 H623 0.930 . S
N596 C595 1.373 1_455 S
N596 C598 1.340 1_455 S
N597 C594 1.368 . S
N597 C598 1.321 . S
N597 Co600 2.135 . S
C598 N596 1.340 1_655 S
C598 N597 1.321 . S
C598 H622 0.930 . S
H599 C594 0.931 . S
Co600 N597 2.135 . S
Co600 N603 2.121 . S
Co600 O608 2.055 . S
Co600 O611 2.039 . S
Co600 N614 2.140 1_655 S
C601 O602 1.227 1_655 S
C601 O611 1.265 . S
O602 C601 1.227 1_455 S
N603 Co600 2.121 . S
N603 C605 1.375 . S
N603 C606 1.313 . S
C604 C605 1.338 . S
C604 N607 1.377 . S
C604 H624 0.930 . S
C605 N603 1.375 . S
C605 C604 1.338 . S
C605 H609 0.931 . S
C606 N603 1.313 . S
C606 N607 1.344 . S
C606 H610 0.930 . S
N607 C604 1.377 . S
N607 C606 1.344 . S
O608 Co600 2.055 . S
O608 C612 1.253 . S
H609 C605 0.931 . S
H610 C606 0.930 . S
O611 Co600 2.039 . S
O611 C601 1.265 . S
C612 O608 1.253 . S
C612 O613 1.227 . S
O613 C612 1.227 . S
N614 Co600 2.140 1_455 S
N614 C617 1.346 . S
N614 C618 1.345 . S
C615 C616 1.387 . S
C615 C619 1.391 . S
C616 C615 1.387 . S
C616 C617 1.369 . S
C616 H625 0.929 . S
C617 N614 1.346 . S
C617 C616 1.369 . S
C617 H620 0.928 . S
C618 N614 1.345 . S
C618 C619 1.371 . S
C618 H621 0.931 1_455 S
C619 C615 1.391 . S
C619 C618 1.371 . S
C619 H626 0.930 . S
H620 C617 0.928 . S
H621 C618 0.931 1_655 S
H622 C598 0.930 . S
H623 C595 0.930 . S
H624 C604 0.930 . S
H625 C616 0.929 . S
H626 C619 0.930 . S
C627 C628 1.351 . S
C627 N630 1.368 . S
C627 H632 0.931 . S
C628 C627 1.351 . S
C628 N629 1.373 . S
C628 H656 0.930 . S
N629 C628 1.373 . S
N629 C631 1.340 . S
N630 C627 1.368 . S
N630 C631 1.321 . S
N630 Co633 2.135 . S
C631 N629 1.340 . S
C631 N630 1.321 . S
C631 H655 0.930 . S
H632 C627 0.931 . S
Co633 N630 2.135 . S
Co633 N636 2.121 . S
Co633 O641 2.055 . S
Co633 O644 2.039 . S
Co633 N647 2.140 . S
C634 O635 1.227 . S
C634 O644 1.265 . S
O635 C634 1.227 . S
N636 Co633 2.121 . S
N636 C638 1.375 . S
N636 C639 1.313 . S
C637 C638 1.338 . S
C637 N640 1.377 . S
C637 H657 0.930 . S
C638 N636 1.375 . S
C638 C637 1.338 . S
C638 H642 0.931 . S
C639 N636 1.313 . S
C639 N640 1.344 . S
C639 H643 0.930 . S
N640 C637 1.377 . S
N640 C639 1.344 . S
O641 Co633 2.055 . S
O641 C645 1.253 . S
H642 C638 0.931 . S
H643 C639 0.930 . S
O644 Co633 2.039 . S
O644 C634 1.265 . S
C645 O641 1.253 . S
C645 O646 1.227 . S
O646 C645 1.227 . S
N647 Co633 2.140 . S
N647 C650 1.346 . S
N647 C651 1.345 . S
C648 C649 1.387 . S
C648 C652 1.391 . S
C649 C648 1.387 . S
C649 C650 1.369 . S
C649 H658 0.929 . S
C650 N647 1.346 . S
C650 C649 1.369 . S
C650 H653 0.928 . S
C651 N647 1.345 . S
C651 C652 1.371 . S
C651 H654 0.931 . S
C652 C648 1.391 . S
C652 C651 1.371 . S
C652 H659 0.930 . S
H653 C650 0.928 . S
H654 C651 0.931 . S
H655 C631 0.930 . S
H656 C628 0.930 . S
H657 C637 0.930 . S
H658 C649 0.929 . S
H659 C652 0.930 . S
C660 C661 1.351 . S
C660 N663 1.368 . S
C660 H665 0.931 . S
C661 C660 1.351 . S
C661 N662 1.373 . S
C661 H689 0.930 . S
N662 C661 1.373 . S
N662 C664 1.340 . S
N663 C660 1.368 . S
N663 C664 1.321 . S
N663 Co666 2.135 . S
C664 N662 1.340 . S
C664 N663 1.321 . S
C664 H688 0.930 . S
H665 C660 0.931 . S
Co666 N663 2.135 . S
Co666 N669 2.121 . S
Co666 O674 2.055 . S
Co666 O677 2.039 . S
Co666 N680 2.140 . S
C667 O668 1.227 . S
C667 O677 1.265 . S
O668 C667 1.227 . S
N669 Co666 2.121 . S
N669 C671 1.375 . S
N669 C672 1.313 . S
C670 C671 1.338 . S
C670 N673 1.377 . S
C670 H690 0.930 . S
C671 N669 1.375 . S
C671 C670 1.338 . S
C671 H675 0.931 . S
C672 N669 1.313 . S
C672 N673 1.344 . S
C672 H676 0.930 . S
N673 C670 1.377 . S
N673 C672 1.344 . S
O674 Co666 2.055 . S
O674 C678 1.253 . S
H675 C671 0.931 . S
H676 C672 0.930 . S
O677 Co666 2.039 . S
O677 C667 1.265 . S
C678 O674 1.253 . S
C678 O679 1.227 . S
O679 C678 1.227 . S
N680 Co666 2.140 . S
N680 C683 1.346 . S
N680 C684 1.345 . S
C681 C682 1.387 . S
C681 C685 1.391 . S
C682 C681 1.387 . S
C682 C683 1.369 . S
C682 H691 0.929 . S
C683 N680 1.346 . S
C683 C682 1.369 . S
C683 H686 0.928 . S
C684 N680 1.345 . S
C684 C685 1.371 . S
C684 H687 0.931 . S
C685 C681 1.391 . S
C685 C684 1.371 . S
C685 H692 0.930 . S
H686 C683 0.928 . S
H687 C684 0.931 . S
H688 C664 0.930 . S
H689 C661 0.930 . S
H690 C670 0.930 . S
H691 C682 0.929 . S
H692 C685 0.930 . S
C693 C694 1.351 . S
C693 N696 1.368 . S
C693 H698 0.931 . S
C694 C693 1.351 . S
C694 N695 1.373 . S
C694 H722 0.930 . S
N695 C694 1.373 . S
N695 C697 1.340 . S
N696 C693 1.368 . S
N696 C697 1.321 . S
N696 Co699 2.135 . S
C697 N695 1.340 . S
C697 N696 1.321 . S
C697 H721 0.930 . S
H698 C693 0.931 . S
Co699 N696 2.135 . S
Co699 N702 2.121 . S
Co699 O707 2.055 . S
Co699 O710 2.039 . S
Co699 N713 2.140 . S
C700 O701 1.227 . S
C700 O710 1.265 . S
O701 C700 1.227 . S
N702 Co699 2.121 . S
N702 C704 1.375 . S
N702 C705 1.313 . S
C703 C704 1.338 . S
C703 N706 1.377 . S
C703 H723 0.930 . S
C704 N702 1.375 . S
C704 C703 1.338 . S
C704 H708 0.931 . S
C705 N702 1.313 . S
C705 N706 1.344 . S
C705 H709 0.930 . S
N706 C703 1.377 . S
N706 C705 1.344 . S
O707 Co699 2.055 . S
O707 C711 1.253 . S
H708 C704 0.931 . S
H709 C705 0.930 . S
O710 Co699 2.039 . S
O710 C700 1.265 . S
C711 O707 1.253 . S
C711 O712 1.227 . S
O712 C711 1.227 . S
N713 Co699 2.140 . S
N713 C716 1.346 . S
N713 C717 1.345 . S
C714 C715 1.387 . S
C714 C718 1.391 . S
C715 C714 1.387 . S
C715 C716 1.369 . S
C715 H724 0.929 . S
C716 N713 1.346 . S
C716 C715 1.369 . S
C716 H719 0.928 . S
C717 N713 1.345 . S
C717 C718 1.371 . S
C717 H720 0.931 . S
C718 C714 1.391 . S
C718 C717 1.371 . S
C718 H725 0.930 . S
H719 C716 0.928 . S
H720 C717 0.931 . S
H721 C697 0.930 . S
H722 C694 0.930 . S
H723 C703 0.930 . S
H724 C715 0.929 . S
H725 C718 0.930 . S
C726 C727 1.351 . S
C726 N729 1.368 . S
C726 H731 0.931 . S
C727 C726 1.351 . S
C727 N728 1.373 1_655 S
C727 H755 0.930 . S
N728 C727 1.373 1_455 S
N728 C730 1.340 1_455 S
N729 C726 1.368 . S
N729 C730 1.321 . S
N729 Co732 2.135 . S
C730 N728 1.340 1_655 S
C730 N729 1.321 . S
C730 H754 0.930 . S
H731 C726 0.931 . S
Co732 N729 2.135 . S
Co732 N735 2.121 . S
Co732 O740 2.055 . S
Co732 O743 2.039 . S
Co732 N746 2.140 1_655 S
C733 O734 1.227 1_655 S
C733 O743 1.265 . S
O734 C733 1.227 1_455 S
N735 Co732 2.121 . S
N735 C737 1.375 . S
N735 C738 1.313 . S
C736 C737 1.338 . S
C736 N739 1.377 . S
C736 H756 0.930 . S
C737 N735 1.375 . S
C737 C736 1.338 . S
C737 H741 0.931 . S
C738 N735 1.313 . S
C738 N739 1.344 . S
C738 H742 0.930 . S
N739 C736 1.377 . S
N739 C738 1.344 . S
O740 Co732 2.055 . S
O740 C744 1.253 . S
H741 C737 0.931 . S
H742 C738 0.930 . S
O743 Co732 2.039 . S
O743 C733 1.265 . S
C744 O740 1.253 . S
C744 O745 1.227 . S
O745 C744 1.227 . S
N746 Co732 2.140 1_455 S
N746 C749 1.346 . S
N746 C750 1.345 . S
C747 C748 1.387 . S
C747 C751 1.391 . S
C748 C747 1.387 . S
C748 C749 1.369 . S
C748 H757 0.929 . S
C749 N746 1.346 . S
C749 C748 1.369 . S
C749 H752 0.928 . S
C750 N746 1.345 . S
C750 C751 1.371 . S
C750 H753 0.931 1_455 S
C751 C747 1.391 . S
C751 C750 1.371 . S
C751 H758 0.930 . S
H752 C749 0.928 . S
H753 C750 0.931 1_655 S
H754 C730 0.930 . S
H755 C727 0.930 . S
H756 C736 0.930 . S
H757 C748 0.929 . S
H758 C751 0.930 . S
C759 C760 1.351 . S
C759 N762 1.368 . S
C759 H764 0.931 . S
C760 C759 1.351 . S
C760 N761 1.373 1_455 S
C760 H788 0.930 . S
N761 C760 1.373 1_655 S
N761 C763 1.340 1_655 S
N762 C759 1.368 . S
N762 C763 1.321 . S
N762 Co765 2.135 . S
C763 N761 1.340 1_455 S
C763 N762 1.321 . S
C763 H787 0.930 . S
H764 C759 0.931 . S
Co765 N762 2.135 . S
Co765 N768 2.121 . S
Co765 O773 2.055 . S
Co765 O776 2.039 . S
Co765 N779 2.140 1_455 S
C766 O767 1.227 1_455 S
C766 O776 1.265 . S
O767 C766 1.227 1_655 S
N768 Co765 2.121 . S
N768 C770 1.375 . S
N768 C771 1.313 . S
C769 C770 1.338 . S
C769 N772 1.377 . S
C769 H789 0.930 . S
C770 N768 1.375 . S
C770 C769 1.338 . S
C770 H774 0.931 . S
C771 N768 1.313 . S
C771 N772 1.344 . S
C771 H775 0.930 . S
N772 C769 1.377 . S
N772 C771 1.344 . S
O773 Co765 2.055 . S
O773 C777 1.253 . S
H774 C770 0.931 . S
H775 C771 0.930 . S
O776 Co765 2.039 . S
O776 C766 1.265 . S
C777 O773 1.253 . S
C777 O778 1.227 . S
O778 C777 1.227 . S
N779 Co765 2.140 1_655 S
N779 C782 1.346 . S
N779 C783 1.345 . S
C780 C781 1.387 . S
C780 C784 1.391 . S
C781 C780 1.387 . S
C781 C782 1.369 . S
C781 H790 0.929 . S
C782 N779 1.346 . S
C782 C781 1.369 . S
C782 H785 0.928 . S
C783 N779 1.345 . S
C783 C784 1.371 . S
C783 H786 0.931 1_655 S
C784 C780 1.391 . S
C784 C783 1.371 . S
C784 H791 0.930 . S
H785 C782 0.928 . S
H786 C783 0.931 1_455 S
H787 C763 0.930 . S
H788 C760 0.930 . S
H789 C769 0.930 . S
H790 C781 0.929 . S
H791 C784 0.930 . S
C792 C793 1.351 . S
C792 N795 1.368 . S
C792 H797 0.931 . S
C793 C792 1.351 . S
C793 N794 1.373 . S
C793 H821 0.930 . S
N794 C793 1.373 . S
N794 C796 1.340 . S
N795 C792 1.368 . S
N795 C796 1.321 . S
N795 Co798 2.135 . S
C796 N794 1.340 . S
C796 N795 1.321 . S
C796 H820 0.930 . S
H797 C792 0.931 . S
Co798 N795 2.135 . S
Co798 N801 2.121 . S
Co798 O806 2.055 . S
Co798 O809 2.039 . S
Co798 N812 2.140 . S
C799 O800 1.227 . S
C799 O809 1.265 . S
O800 C799 1.227 . S
N801 Co798 2.121 . S
N801 C803 1.375 . S
N801 C804 1.313 . S
C802 C803 1.338 . S
C802 N805 1.377 . S
C802 H822 0.930 . S
C803 N801 1.375 . S
C803 C802 1.338 . S
C803 H807 0.931 . S
C804 N801 1.313 . S
C804 N805 1.344 . S
C804 H808 0.930 . S
N805 C802 1.377 . S
N805 C804 1.344 . S
O806 Co798 2.055 . S
O806 C810 1.253 . S
H807 C803 0.931 . S
H808 C804 0.930 . S
O809 Co798 2.039 . S
O809 C799 1.265 . S
C810 O806 1.253 . S
C810 O811 1.227 . S
O811 C810 1.227 . S
N812 Co798 2.140 . S
N812 C815 1.346 . S
N812 C816 1.345 . S
C813 C814 1.387 . S
C813 C817 1.391 . S
C814 C813 1.387 . S
C814 C815 1.369 . S
C814 H823 0.929 . S
C815 N812 1.346 . S
C815 C814 1.369 . S
C815 H818 0.928 . S
C816 N812 1.345 . S
C816 C817 1.371 . S
C816 H819 0.931 . S
C817 C813 1.391 . S
C817 C816 1.371 . S
C817 H824 0.930 . S
H818 C815 0.928 . S
H819 C816 0.931 . S
H820 C796 0.930 . S
H821 C793 0.930 . S
H822 C802 0.930 . S
H823 C814 0.929 . S
H824 C817 0.930 . S
C825 C826 1.351 . S
C825 N828 1.368 . S
C825 H830 0.931 . S
C826 C825 1.351 . S
C826 N827 1.373 . S
C826 H854 0.930 . S
N827 C826 1.373 . S
N827 C829 1.340 . S
N828 C825 1.368 . S
N828 C829 1.321 . S
N828 Co831 2.135 . S
C829 N827 1.340 . S
C829 N828 1.321 . S
C829 H853 0.930 . S
H830 C825 0.931 . S
Co831 N828 2.135 . S
Co831 N834 2.121 . S
Co831 O839 2.055 . S
Co831 O842 2.039 . S
Co831 N845 2.140 . S
C832 O833 1.227 . S
C832 O842 1.265 . S
O833 C832 1.227 . S
N834 Co831 2.121 . S
N834 C836 1.375 . S
N834 C837 1.313 . S
C835 C836 1.338 . S
C835 N838 1.377 . S
C835 H855 0.930 . S
C836 N834 1.375 . S
C836 C835 1.338 . S
C836 H840 0.931 . S
C837 N834 1.313 . S
C837 N838 1.344 . S
C837 H841 0.930 . S
N838 C835 1.377 . S
N838 C837 1.344 . S
O839 Co831 2.055 . S
O839 C843 1.253 . S
H840 C836 0.931 . S
H841 C837 0.930 . S
O842 Co831 2.039 . S
O842 C832 1.265 . S
C843 O839 1.253 . S
C843 O844 1.227 . S
O844 C843 1.227 . S
N845 Co831 2.140 . S
N845 C848 1.346 . S
N845 C849 1.345 . S
C846 C847 1.387 . S
C846 C850 1.391 . S
C847 C846 1.387 . S
C847 C848 1.369 . S
C847 H856 0.929 . S
C848 N845 1.346 . S
C848 C847 1.369 . S
C848 H851 0.928 . S
C849 N845 1.345 . S
C849 C850 1.371 . S
C849 H852 0.931 . S
C850 C846 1.391 . S
C850 C849 1.371 . S
C850 H857 0.930 . S
H851 C848 0.928 . S
H852 C849 0.931 . S
H853 C829 0.930 . S
H854 C826 0.930 . S
H855 C835 0.930 . S
H856 C847 0.929 . S
H857 C850 0.930 . S
C858 C859 1.351 . S
C858 N861 1.368 . S
C858 H863 0.931 . S
C859 C858 1.351 . S
C859 N860 1.373 . S
C859 H887 0.930 . S
N860 C859 1.373 . S
N860 C862 1.340 . S
N861 C858 1.368 . S
N861 C862 1.321 . S
N861 Co864 2.135 . S
C862 N860 1.340 . S
C862 N861 1.321 . S
C862 H886 0.930 . S
H863 C858 0.931 . S
Co864 N861 2.135 . S
Co864 N867 2.121 . S
Co864 O872 2.055 . S
Co864 O875 2.039 . S
Co864 N878 2.140 . S
C865 O866 1.227 . S
C865 O875 1.265 . S
O866 C865 1.227 . S
N867 Co864 2.121 . S
N867 C869 1.375 . S
N867 C870 1.313 . S
C868 C869 1.338 . S
C868 N871 1.377 . S
C868 H888 0.930 . S
C869 N867 1.375 . S
C869 C868 1.338 . S
C869 H873 0.931 . S
C870 N867 1.313 . S
C870 N871 1.344 . S
C870 H874 0.930 . S
N871 C868 1.377 . S
N871 C870 1.344 . S
O872 Co864 2.055 . S
O872 C876 1.253 . S
H873 C869 0.931 . S
H874 C870 0.930 . S
O875 Co864 2.039 . S
O875 C865 1.265 . S
C876 O872 1.253 . S
C876 O877 1.227 . S
O877 C876 1.227 . S
N878 Co864 2.140 . S
N878 C881 1.346 . S
N878 C882 1.345 . S
C879 C880 1.387 . S
C879 C883 1.391 . S
C880 C879 1.387 . S
C880 C881 1.369 . S
C880 H889 0.929 . S
C881 N878 1.346 . S
C881 C880 1.369 . S
C881 H884 0.928 . S
C882 N878 1.345 . S
C882 C883 1.371 . S
C882 H885 0.931 . S
C883 C879 1.391 . S
C883 C882 1.371 . S
C883 H890 0.930 . S
H884 C881 0.928 . S
H885 C882 0.931 . S
H886 C862 0.930 . S
H887 C859 0.930 . S
H888 C868 0.930 . S
H889 C880 0.929 . S
H890 C883 0.930 . S
C891 C892 1.351 . S
C891 N894 1.368 . S
C891 H896 0.931 . S
C892 C891 1.351 . S
C892 N893 1.373 . S
C892 H920 0.930 . S
N893 C892 1.373 . S
N893 C895 1.340 . S
N894 C891 1.368 . S
N894 C895 1.321 . S
N894 Co897 2.135 . S
C895 N893 1.340 . S
C895 N894 1.321 . S
C895 H919 0.930 . S
H896 C891 0.931 . S
Co897 N894 2.135 . S
Co897 N900 2.121 . S
Co897 O905 2.055 . S
Co897 O908 2.039 . S
Co897 N911 2.140 . S
C898 O899 1.227 . S
C898 O908 1.265 . S
O899 C898 1.227 . S
N900 Co897 2.121 . S
N900 C902 1.375 . S
N900 C903 1.313 . S
C901 C902 1.338 . S
C901 N904 1.377 . S
C901 H921 0.930 . S
C902 N900 1.375 . S
C902 C901 1.338 . S
C902 H906 0.931 . S
C903 N900 1.313 . S
C903 N904 1.344 . S
C903 H907 0.930 . S
N904 C901 1.377 . S
N904 C903 1.344 . S
O905 Co897 2.055 . S
O905 C909 1.253 . S
H906 C902 0.931 . S
H907 C903 0.930 . S
O908 Co897 2.039 . S
O908 C898 1.265 . S
C909 O905 1.253 . S
C909 O910 1.227 . S
O910 C909 1.227 . S
N911 Co897 2.140 . S
N911 C914 1.346 . S
N911 C915 1.345 . S
C912 C913 1.387 . S
C912 C916 1.391 . S
C913 C912 1.387 . S
C913 C914 1.369 . S
C913 H922 0.929 . S
C914 N911 1.346 . S
C914 C913 1.369 . S
C914 H917 0.928 . S
C915 N911 1.345 . S
C915 C916 1.371 . S
C915 H918 0.931 . S
C916 C912 1.391 . S
C916 C915 1.371 . S
C916 H923 0.930 . S
H917 C914 0.928 . S
H918 C915 0.931 . S
H919 C895 0.930 . S
H920 C892 0.930 . S
H921 C901 0.930 . S
H922 C913 0.929 . S
H923 C916 0.930 . S
C924 C925 1.351 . S
C924 N927 1.368 . S
C924 H929 0.931 . S
C925 C924 1.351 . S
C925 N926 1.373 . S
C925 H953 0.930 . S
N926 C925 1.373 . S
N926 C928 1.340 . S
N927 C924 1.368 . S
N927 C928 1.321 . S
N927 Co930 2.135 . S
C928 N926 1.340 . S
C928 N927 1.321 . S
C928 H952 0.930 . S
H929 C924 0.931 . S
Co930 N927 2.135 . S
Co930 N933 2.121 . S
Co930 O938 2.055 . S
Co930 O941 2.039 . S
Co930 N944 2.140 . S
C931 O932 1.227 . S
C931 O941 1.265 . S
O932 C931 1.227 . S
N933 Co930 2.121 . S
N933 C935 1.375 . S
N933 C936 1.313 . S
C934 C935 1.338 . S
C934 N937 1.377 . S
C934 H954 0.930 . S
C935 N933 1.375 . S
C935 C934 1.338 . S
C935 H939 0.931 . S
C936 N933 1.313 . S
C936 N937 1.344 . S
C936 H940 0.930 . S
N937 C934 1.377 . S
N937 C936 1.344 . S
O938 Co930 2.055 . S
O938 C942 1.253 . S
H939 C935 0.931 . S
H940 C936 0.930 . S
O941 Co930 2.039 . S
O941 C931 1.265 . S
C942 O938 1.253 . S
C942 O943 1.227 . S
O943 C942 1.227 . S
N944 Co930 2.140 . S
N944 C947 1.346 . S
N944 C948 1.345 . S
C945 C946 1.387 . S
C945 C949 1.391 . S
C946 C945 1.387 . S
C946 C947 1.369 . S
C946 H955 0.929 . S
C947 N944 1.346 . S
C947 C946 1.369 . S
C947 H950 0.928 . S
C948 N944 1.345 . S
C948 C949 1.371 . S
C948 H951 0.931 . S
C949 C945 1.391 . S
C949 C948 1.371 . S
C949 H956 0.930 . S
H950 C947 0.928 . S
H951 C948 0.931 . S
H952 C928 0.930 . S
H953 C925 0.930 . S
H954 C934 0.930 . S
H955 C946 0.929 . S
H956 C949 0.930 . S
C957 C958 1.351 . S
C957 N960 1.368 . S
C957 H962 0.931 . S
C958 C957 1.351 . S
C958 N959 1.373 . S
C958 H986 0.930 . S
N959 C958 1.373 . S
N959 C961 1.340 . S
N960 C957 1.368 . S
N960 C961 1.321 . S
N960 Co963 2.135 . S
C961 N959 1.340 . S
C961 N960 1.321 . S
C961 H985 0.930 . S
H962 C957 0.931 . S
Co963 N960 2.135 . S
Co963 N966 2.121 . S
Co963 O971 2.055 . S
Co963 O974 2.039 . S
Co963 N977 2.140 . S
C964 O965 1.227 . S
C964 O974 1.265 . S
O965 C964 1.227 . S
N966 Co963 2.121 . S
N966 C968 1.375 . S
N966 C969 1.313 . S
C967 C968 1.338 . S
C967 N970 1.377 . S
C967 H987 0.930 . S
C968 N966 1.375 . S
C968 C967 1.338 . S
C968 H972 0.931 . S
C969 N966 1.313 . S
C969 N970 1.344 . S
C969 H973 0.930 . S
N970 C967 1.377 . S
N970 C969 1.344 . S
O971 Co963 2.055 . S
O971 C975 1.253 . S
H972 C968 0.931 . S
H973 C969 0.930 . S
O974 Co963 2.039 . S
O974 C964 1.265 . S
C975 O971 1.253 . S
C975 O976 1.227 . S
O976 C975 1.227 . S
N977 Co963 2.140 . S
N977 C980 1.346 . S
N977 C981 1.345 . S
C978 C979 1.387 . S
C978 C982 1.391 . S
C979 C978 1.387 . S
C979 C980 1.369 . S
C979 H988 0.929 . S
C980 N977 1.346 . S
C980 C979 1.369 . S
C980 H983 0.928 . S
C981 N977 1.345 . S
C981 C982 1.371 . S
C981 H984 0.931 . S
C982 C978 1.391 . S
C982 C981 1.371 . S
C982 H989 0.930 . S
H983 C980 0.928 . S
H984 C981 0.931 . S
H985 C961 0.930 . S
H986 C958 0.930 . S
H987 C967 0.930 . S
H988 C979 0.929 . S
H989 C982 0.930 . S
C990 C991 1.351 . S
C990 N993 1.368 . S
C990 H995 0.931 . S
C991 C990 1.351 . S
C991 N992 1.373 . S
C991 H1019 0.930 . S
N992 C991 1.373 . S
N992 C994 1.340 . S
N993 C990 1.368 . S
N993 C994 1.321 . S
N993 Co996 2.135 . S
C994 N992 1.340 . S
C994 N993 1.321 . S
C994 H1018 0.930 . S
H995 C990 0.931 . S
Co996 N993 2.135 . S
Co996 N999 2.121 . S
Co996 O1004 2.055 . S
Co996 O1007 2.039 . S
Co996 N1010 2.140 . S
C997 O998 1.227 . S
C997 O1007 1.265 . S
O998 C997 1.227 . S
N999 Co996 2.121 . S
N999 C1001 1.375 . S
N999 C1002 1.313 . S
C1000 C1001 1.338 . S
C1000 N1003 1.377 . S
C1000 H1020 0.930 . S
C1001 N999 1.375 . S
C1001 C1000 1.338 . S
C1001 H1005 0.931 . S
C1002 N999 1.313 . S
C1002 N1003 1.344 . S
C1002 H1006 0.930 . S
N1003 C1000 1.377 . S
N1003 C1002 1.344 . S
O1004 Co996 2.055 . S
O1004 C1008 1.253 . S
H1005 C1001 0.931 . S
H1006 C1002 0.930 . S
O1007 Co996 2.039 . S
O1007 C997 1.265 . S
C1008 O1004 1.253 . S
C1008 O1009 1.227 . S
O1009 C1008 1.227 . S
N1010 Co996 2.140 . S
N1010 C1013 1.346 . S
N1010 C1014 1.345 . S
C1011 C1012 1.387 . S
C1011 C1015 1.391 . S
C1012 C1011 1.387 . S
C1012 C1013 1.369 . S
C1012 H1021 0.929 . S
C1013 N1010 1.346 . S
C1013 C1012 1.369 . S
C1013 H1016 0.928 . S
C1014 N1010 1.345 . S
C1014 C1015 1.371 . S
C1014 H1017 0.931 . S
C1015 C1011 1.391 . S
C1015 C1014 1.371 . S
C1015 H1022 0.930 . S
H1016 C1013 0.928 . S
H1017 C1014 0.931 . S
H1018 C994 0.930 . S
H1019 C991 0.930 . S
H1020 C1000 0.930 . S
H1021 C1012 0.929 . S
H1022 C1015 0.930 . S
C1023 C1024 1.351 . S
C1023 N1026 1.368 . S
C1023 H1028 0.931 . S
C1024 C1023 1.351 . S
C1024 N1025 1.373 . S
C1024 H1052 0.930 . S
N1025 C1024 1.373 . S
N1025 C1027 1.340 . S
N1026 C1023 1.368 . S
N1026 C1027 1.321 . S
N1026 Co1029 2.135 . S
C1027 N1025 1.340 . S
C1027 N1026 1.321 . S
C1027 H1051 0.930 . S
H1028 C1023 0.931 . S
Co1029 N1026 2.135 . S
Co1029 N1032 2.121 . S
Co1029 O1037 2.055 . S
Co1029 O1040 2.039 . S
Co1029 N1043 2.140 . S
C1030 O1031 1.227 . S
C1030 O1040 1.265 . S
O1031 C1030 1.227 . S
N1032 Co1029 2.121 . S
N1032 C1034 1.375 . S
N1032 C1035 1.313 . S
C1033 C1034 1.338 . S
C1033 N1036 1.377 . S
C1033 H1053 0.930 . S
C1034 N1032 1.375 . S
C1034 C1033 1.338 . S
C1034 H1038 0.931 . S
C1035 N1032 1.313 . S
C1035 N1036 1.344 . S
C1035 H1039 0.930 . S
N1036 C1033 1.377 . S
N1036 C1035 1.344 . S
O1037 Co1029 2.055 . S
O1037 C1041 1.253 . S
H1038 C1034 0.931 . S
H1039 C1035 0.930 . S
O1040 Co1029 2.039 . S
O1040 C1030 1.265 . S
C1041 O1037 1.253 . S
C1041 O1042 1.227 . S
O1042 C1041 1.227 . S
N1043 Co1029 2.140 . S
N1043 C1046 1.346 . S
N1043 C1047 1.345 . S
C1044 C1045 1.387 . S
C1044 C1048 1.391 . S
C1045 C1044 1.387 . S
C1045 C1046 1.369 . S
C1045 H1054 0.929 . S
C1046 N1043 1.346 . S
C1046 C1045 1.369 . S
C1046 H1049 0.928 . S
C1047 N1043 1.345 . S
C1047 C1048 1.371 . S
C1047 H1050 0.931 . S
C1048 C1044 1.391 . S
C1048 C1047 1.371 . S
C1048 H1055 0.930 . S
H1049 C1046 0.928 . S
H1050 C1047 0.931 . S
H1051 C1027 0.930 . S
H1052 C1024 0.930 . S
H1053 C1033 0.930 . S
H1054 C1045 0.929 . S
H1055 C1048 0.930 . S
C1056 C1057 1.351 . S
C1056 N1059 1.368 . S
C1056 H1061 0.931 . S
C1057 C1056 1.351 . S
C1057 N1058 1.373 . S
C1057 H1085 0.930 . S
N1058 C1057 1.373 . S
N1058 C1060 1.340 . S
N1059 C1056 1.368 . S
N1059 C1060 1.321 . S
N1059 Co1062 2.135 . S
C1060 N1058 1.340 . S
C1060 N1059 1.321 . S
C1060 H1084 0.930 . S
H1061 C1056 0.931 . S
Co1062 N1059 2.135 . S
Co1062 N1065 2.121 . S
Co1062 O1070 2.055 . S
Co1062 O1073 2.039 . S
Co1062 N1076 2.140 . S
C1063 O1064 1.227 . S
C1063 O1073 1.265 . S
O1064 C1063 1.227 . S
N1065 Co1062 2.121 . S
N1065 C1067 1.375 . S
N1065 C1068 1.313 . S
C1066 C1067 1.338 . S
C1066 N1069 1.377 . S
C1066 H1086 0.930 . S
C1067 N1065 1.375 . S
C1067 C1066 1.338 . S
C1067 H1071 0.931 . S
C1068 N1065 1.313 . S
C1068 N1069 1.344 . S
C1068 H1072 0.930 . S
N1069 C1066 1.377 . S
N1069 C1068 1.344 . S
O1070 Co1062 2.055 . S
O1070 C1074 1.253 . S
H1071 C1067 0.931 . S
H1072 C1068 0.930 . S
O1073 Co1062 2.039 . S
O1073 C1063 1.265 . S
C1074 O1070 1.253 . S
C1074 O1075 1.227 . S
O1075 C1074 1.227 . S
N1076 Co1062 2.140 . S
N1076 C1079 1.346 . S
N1076 C1080 1.345 . S
C1077 C1078 1.387 . S
C1077 C1081 1.391 . S
C1078 C1077 1.387 . S
C1078 C1079 1.369 . S
C1078 H1087 0.929 . S
C1079 N1076 1.346 . S
C1079 C1078 1.369 . S
C1079 H1082 0.928 . S
C1080 N1076 1.345 . S
C1080 C1081 1.371 . S
C1080 H1083 0.931 . S
C1081 C1077 1.391 . S
C1081 C1080 1.371 . S
C1081 H1088 0.930 . S
H1082 C1079 0.928 . S
H1083 C1080 0.931 . S
H1084 C1060 0.930 . S
H1085 C1057 0.930 . S
H1086 C1066 0.930 . S
H1087 C1078 0.929 . S
H1088 C1081 0.930 . S
C1089 C1090 1.351 . S
C1089 N1092 1.368 . S
C1089 H1094 0.931 . S
C1090 C1089 1.351 . S
C1090 N1091 1.373 1_565 S
C1090 H1118 0.930 . S
N1091 C1090 1.373 1_545 S
N1091 C1093 1.340 1_545 S
N1092 C1089 1.368 . S
N1092 C1093 1.321 . S
N1092 Co1095 2.135 . S
C1093 N1091 1.340 1_565 S
C1093 N1092 1.321 . S
C1093 H1117 0.930 . S
H1094 C1089 0.931 . S
Co1095 N1092 2.135 . S
Co1095 N1098 2.121 . S
Co1095 O1103 2.055 . S
Co1095 O1106 2.039 . S
Co1095 N1109 2.140 1_565 S
C1096 O1097 1.227 1_565 S
C1096 O1106 1.265 . S
O1097 C1096 1.227 1_545 S
N1098 Co1095 2.121 . S
N1098 C1100 1.375 . S
N1098 C1101 1.313 . S
C1099 C1100 1.338 . S
C1099 N1102 1.377 . S
C1099 H1119 0.930 . S
C1100 N1098 1.375 . S
C1100 C1099 1.338 . S
C1100 H1104 0.931 . S
C1101 N1098 1.313 . S
C1101 N1102 1.344 . S
C1101 H1105 0.930 . S
N1102 C1099 1.377 . S
N1102 C1101 1.344 . S
O1103 Co1095 2.055 . S
O1103 C1107 1.253 . S
H1104 C1100 0.931 . S
H1105 C1101 0.930 . S
O1106 Co1095 2.039 . S
O1106 C1096 1.265 . S
C1107 O1103 1.253 . S
C1107 O1108 1.227 . S
O1108 C1107 1.227 . S
N1109 Co1095 2.140 1_545 S
N1109 C1112 1.346 . S
N1109 C1113 1.345 . S
C1110 C1111 1.387 . S
C1110 C1114 1.391 . S
C1111 C1110 1.387 . S
C1111 C1112 1.369 . S
C1111 H1120 0.929 . S
C1112 N1109 1.346 . S
C1112 C1111 1.369 . S
C1112 H1115 0.928 . S
C1113 N1109 1.345 . S
C1113 C1114 1.371 . S
C1113 H1116 0.931 1_545 S
C1114 C1110 1.391 . S
C1114 C1113 1.371 . S
C1114 H1121 0.930 . S
H1115 C1112 0.928 . S
H1116 C1113 0.931 1_565 S
H1117 C1093 0.930 . S
H1118 C1090 0.930 . S
H1119 C1099 0.930 . S
H1120 C1111 0.929 . S
H1121 C1114 0.930 . S
C1122 C1123 1.351 . S
C1122 N1125 1.368 . S
C1122 H1127 0.931 . S
C1123 C1122 1.351 . S
C1123 N1124 1.373 . S
C1123 H1151 0.930 . S
N1124 C1123 1.373 . S
N1124 C1126 1.340 . S
N1125 C1122 1.368 . S
N1125 C1126 1.321 . S
N1125 Co1128 2.135 . S
C1126 N1124 1.340 . S
C1126 N1125 1.321 . S
C1126 H1150 0.930 . S
H1127 C1122 0.931 . S
Co1128 N1125 2.135 . S
Co1128 N1131 2.121 1_565 S
Co1128 O1136 2.055 . S
Co1128 O1139 2.039 . S
Co1128 N1142 2.140 . S
C1129 O1130 1.227 . S
C1129 O1139 1.265 . S
O1130 C1129 1.227 . S
N1131 Co1128 2.121 1_545 S
N1131 C1133 1.375 . S
N1131 C1134 1.313 . S
C1132 C1133 1.338 . S
C1132 N1135 1.377 . S
C1132 H1152 0.930 . S
C1133 N1131 1.375 . S
C1133 C1132 1.338 . S
C1133 H1137 0.931 . S
C1134 N1131 1.313 . S
C1134 N1135 1.344 . S
C1134 H1138 0.925 1_545 S
N1135 C1132 1.377 . S
N1135 C1134 1.344 . S
O1136 Co1128 2.055 . S
O1136 C1140 1.253 . S
H1137 C1133 0.931 . S
H1138 C1134 0.925 1_565 S
O1139 Co1128 2.039 . S
O1139 C1129 1.265 . S
C1140 O1136 1.253 . S
C1140 O1141 1.227 . S
O1141 C1140 1.227 . S
N1142 Co1128 2.140 . S
N1142 C1145 1.346 . S
N1142 C1146 1.345 . S
C1143 C1144 1.387 . S
C1143 C1147 1.391 . S
C1144 C1143 1.387 . S
C1144 C1145 1.369 . S
C1144 H1153 0.929 . S
C1145 N1142 1.346 . S
C1145 C1144 1.369 . S
C1145 H1148 0.928 . S
C1146 N1142 1.345 . S
C1146 C1147 1.371 . S
C1146 H1149 0.931 . S
C1147 C1143 1.391 . S
C1147 C1146 1.371 . S
C1147 H1154 0.930 . S
H1148 C1145 0.928 . S
H1149 C1146 0.931 . S
H1150 C1126 0.930 . S
H1151 C1123 0.930 . S
H1152 C1132 0.930 . S
H1153 C1144 0.929 . S
H1154 C1147 0.930 . S
C1155 C1156 1.351 . S
C1155 N1158 1.368 . S
C1155 H1160 0.931 . S
C1156 C1155 1.351 . S
C1156 N1157 1.373 . S
C1156 H1184 0.930 . S
N1157 C1156 1.373 . S
N1157 C1159 1.340 . S
N1158 C1155 1.368 . S
N1158 C1159 1.321 . S
N1158 Co1161 2.135 . S
C1159 N1157 1.340 . S
C1159 N1158 1.321 . S
C1159 H1183 0.930 . S
H1160 C1155 0.931 . S
Co1161 N1158 2.135 . S
Co1161 N1164 2.121 . S
Co1161 O1169 2.055 . S
Co1161 O1172 2.039 . S
Co1161 N1175 2.140 . S
C1162 O1163 1.227 . S
C1162 O1172 1.265 . S
O1163 C1162 1.227 . S
N1164 Co1161 2.121 . S
N1164 C1166 1.375 . S
N1164 C1167 1.313 . S
C1165 C1166 1.338 . S
C1165 N1168 1.377 . S
C1165 H1185 0.930 . S
C1166 N1164 1.375 . S
C1166 C1165 1.338 . S
C1166 H1170 0.931 . S
C1167 N1164 1.313 . S
C1167 N1168 1.344 . S
C1167 H1171 0.930 . S
N1168 C1165 1.377 . S
N1168 C1167 1.344 . S
O1169 Co1161 2.055 . S
O1169 C1173 1.253 . S
H1170 C1166 0.931 . S
H1171 C1167 0.930 . S
O1172 Co1161 2.039 . S
O1172 C1162 1.265 . S
C1173 O1169 1.253 . S
C1173 O1174 1.227 . S
O1174 C1173 1.227 . S
N1175 Co1161 2.140 . S
N1175 C1178 1.346 . S
N1175 C1179 1.345 . S
C1176 C1177 1.387 . S
C1176 C1180 1.391 . S
C1177 C1176 1.387 . S
C1177 C1178 1.369 . S
C1177 H1186 0.929 . S
C1178 N1175 1.346 . S
C1178 C1177 1.369 . S
C1178 H1181 0.928 . S
C1179 N1175 1.345 . S
C1179 C1180 1.371 . S
C1179 H1182 0.931 . S
C1180 C1176 1.391 . S
C1180 C1179 1.371 . S
C1180 H1187 0.930 . S
H1181 C1178 0.928 . S
H1182 C1179 0.931 . S
H1183 C1159 0.930 . S
H1184 C1156 0.930 . S
H1185 C1165 0.930 . S
H1186 C1177 0.929 . S
H1187 C1180 0.930 . S
C1188 C1189 1.351 . S
C1188 N1191 1.368 . S
C1188 H1193 0.931 . S
C1189 C1188 1.351 . S
C1189 N1190 1.373 . S
C1189 H1217 0.930 . S
N1190 C1189 1.373 . S
N1190 C1192 1.340 . S
N1191 C1188 1.368 . S
N1191 C1192 1.321 . S
N1191 Co1194 2.135 . S
C1192 N1190 1.340 . S
C1192 N1191 1.321 . S
C1192 H1216 0.930 . S
H1193 C1188 0.931 . S
Co1194 N1191 2.135 . S
Co1194 N1197 2.121 . S
Co1194 O1202 2.055 . S
Co1194 O1205 2.039 . S
Co1194 N1208 2.140 . S
C1195 O1196 1.227 . S
C1195 O1205 1.265 . S
O1196 C1195 1.227 . S
N1197 Co1194 2.121 . S
N1197 C1199 1.375 . S
N1197 C1200 1.313 . S
C1198 C1199 1.338 . S
C1198 N1201 1.377 . S
C1198 H1218 0.930 . S
C1199 N1197 1.375 . S
C1199 C1198 1.338 . S
C1199 H1203 0.931 . S
C1200 N1197 1.313 . S
C1200 N1201 1.344 . S
C1200 H1204 0.930 . S
N1201 C1198 1.377 . S
N1201 C1200 1.344 . S
O1202 Co1194 2.055 . S
O1202 C1206 1.253 . S
H1203 C1199 0.931 . S
H1204 C1200 0.930 . S
O1205 Co1194 2.039 . S
O1205 C1195 1.265 . S
C1206 O1202 1.253 . S
C1206 O1207 1.227 . S
O1207 C1206 1.227 . S
N1208 Co1194 2.140 . S
N1208 C1211 1.346 . S
N1208 C1212 1.345 . S
C1209 C1210 1.387 . S
C1209 C1213 1.391 . S
C1210 C1209 1.387 . S
C1210 C1211 1.369 . S
C1210 H1219 0.929 . S
C1211 N1208 1.346 . S
C1211 C1210 1.369 . S
C1211 H1214 0.928 . S
C1212 N1208 1.345 . S
C1212 C1213 1.371 . S
C1212 H1215 0.931 . S
C1213 C1209 1.391 . S
C1213 C1212 1.371 . S
C1213 H1220 0.930 . S
H1214 C1211 0.928 . S
H1215 C1212 0.931 . S
H1216 C1192 0.930 . S
H1217 C1189 0.930 . S
H1218 C1198 0.930 . S
H1219 C1210 0.929 . S
H1220 C1213 0.930 . S
C1221 C1222 1.351 . S
C1221 N1224 1.368 . S
C1221 H1226 0.931 . S
C1222 C1221 1.351 . S
C1222 N1223 1.373 1_565 S
C1222 H1250 0.930 . S
N1223 C1222 1.373 1_545 S
N1223 C1225 1.340 1_545 S
N1224 C1221 1.368 . S
N1224 C1225 1.321 . S
N1224 Co1227 2.135 . S
C1225 N1223 1.340 1_565 S
C1225 N1224 1.321 . S
C1225 H1249 0.930 . S
H1226 C1221 0.931 . S
Co1227 N1224 2.135 . S
Co1227 N1230 2.121 . S
Co1227 O1235 2.055 . S
Co1227 O1238 2.039 . S
Co1227 N1241 2.140 1_565 S
C1228 O1229 1.227 1_565 S
C1228 O1238 1.265 . S
O1229 C1228 1.227 1_545 S
N1230 Co1227 2.121 . S
N1230 C1232 1.375 . S
N1230 C1233 1.313 . S
C1231 C1232 1.338 . S
C1231 N1234 1.377 . S
C1231 H1251 0.930 . S
C1232 N1230 1.375 . S
C1232 C1231 1.338 . S
C1232 H1236 0.931 . S
C1233 N1230 1.313 . S
C1233 N1234 1.344 . S
C1233 H1237 0.930 . S
N1234 C1231 1.377 . S
N1234 C1233 1.344 . S
O1235 Co1227 2.055 . S
O1235 C1239 1.253 . S
H1236 C1232 0.931 . S
H1237 C1233 0.930 . S
O1238 Co1227 2.039 . S
O1238 C1228 1.265 . S
C1239 O1235 1.253 . S
C1239 O1240 1.227 . S
O1240 C1239 1.227 . S
N1241 Co1227 2.140 1_545 S
N1241 C1244 1.346 . S
N1241 C1245 1.345 . S
C1242 C1243 1.387 . S
C1242 C1246 1.391 . S
C1243 C1242 1.387 . S
C1243 C1244 1.369 . S
C1243 H1252 0.929 . S
C1244 N1241 1.346 . S
C1244 C1243 1.369 . S
C1244 H1247 0.928 . S
C1245 N1241 1.345 . S
C1245 C1246 1.371 . S
C1245 H1248 0.931 1_545 S
C1246 C1242 1.391 . S
C1246 C1245 1.371 . S
C1246 H1253 0.930 . S
H1247 C1244 0.928 . S
H1248 C1245 0.931 1_565 S
H1249 C1225 0.930 . S
H1250 C1222 0.930 . S
H1251 C1231 0.930 . S
H1252 C1243 0.929 . S
H1253 C1246 0.930 . S
C1254 C1255 1.351 . S
C1254 N1257 1.368 . S
C1254 H1259 0.931 . S
C1255 C1254 1.351 . S
C1255 N1256 1.373 . S
C1255 H1283 0.930 . S
N1256 C1255 1.373 . S
N1256 C1258 1.340 . S
N1257 C1254 1.368 . S
N1257 C1258 1.321 . S
N1257 Co1260 2.135 . S
C1258 N1256 1.340 . S
C1258 N1257 1.321 . S
C1258 H1282 0.930 . S
H1259 C1254 0.931 . S
Co1260 N1257 2.135 . S
Co1260 N1263 2.121 1_545 S
Co1260 O1268 2.055 . S
Co1260 O1271 2.039 . S
Co1260 N1274 2.140 . S
C1261 O1262 1.227 . S
C1261 O1271 1.265 . S
O1262 C1261 1.227 . S
N1263 Co1260 2.121 1_565 S
N1263 C1265 1.375 . S
N1263 C1266 1.313 . S
C1264 C1265 1.338 . S
C1264 N1267 1.377 . S
C1264 H1284 0.930 . S
C1265 N1263 1.375 . S
C1265 C1264 1.338 . S
C1265 H1269 0.931 . S
C1266 N1263 1.313 . S
C1266 N1267 1.344 . S
C1266 H1270 0.930 1_565 S
N1267 C1264 1.377 . S
N1267 C1266 1.344 . S
O1268 Co1260 2.055 . S
O1268 C1272 1.253 . S
H1269 C1265 0.931 . S
H1270 C1266 0.930 1_545 S
O1271 Co1260 2.039 . S
O1271 C1261 1.265 . S
C1272 O1268 1.253 . S
C1272 O1273 1.227 . S
O1273 C1272 1.227 . S
N1274 Co1260 2.140 . S
N1274 C1277 1.346 . S
N1274 C1278 1.345 . S
C1275 C1276 1.387 . S
C1275 C1279 1.391 . S
C1276 C1275 1.387 . S
C1276 C1277 1.369 . S
C1276 H1285 0.929 . S
C1277 N1274 1.346 . S
C1277 C1276 1.369 . S
C1277 H1280 0.928 . S
C1278 N1274 1.345 . S
C1278 C1279 1.371 . S
C1278 H1281 0.931 . S
C1279 C1275 1.391 . S
C1279 C1278 1.371 . S
C1279 H1286 0.930 . S
H1280 C1277 0.928 . S
H1281 C1278 0.931 . S
H1282 C1258 0.930 . S
H1283 C1255 0.930 . S
H1284 C1264 0.930 . S
H1285 C1276 0.929 . S
H1286 C1279 0.930 . S
C1287 C1288 1.351 . S
C1287 N1290 1.368 . S
C1287 H1292 0.931 . S
C1288 C1287 1.351 . S
C1288 N1289 1.373 . S
C1288 H1316 0.930 . S
N1289 C1288 1.373 . S
N1289 C1291 1.340 . S
N1290 C1287 1.368 . S
N1290 C1291 1.321 . S
N1290 Co1293 2.135 . S
C1291 N1289 1.340 . S
C1291 N1290 1.321 . S
C1291 H1315 0.930 . S
H1292 C1287 0.931 . S
Co1293 N1290 2.135 . S
Co1293 N1296 2.121 . S
Co1293 O1301 2.055 . S
Co1293 O1304 2.039 . S
Co1293 N1307 2.140 . S
C1294 O1295 1.227 . S
C1294 O1304 1.265 . S
O1295 C1294 1.227 . S
N1296 Co1293 2.121 . S
N1296 C1298 1.375 . S
N1296 C1299 1.313 . S
C1297 C1298 1.338 . S
C1297 N1300 1.377 . S
C1297 H1317 0.930 . S
C1298 N1296 1.375 . S
C1298 C1297 1.338 . S
C1298 H1302 0.931 . S
C1299 N1296 1.313 . S
C1299 N1300 1.344 . S
C1299 H1303 0.930 . S
N1300 C1297 1.377 . S
N1300 C1299 1.344 . S
O1301 Co1293 2.055 . S
O1301 C1305 1.253 . S
H1302 C1298 0.931 . S
H1303 C1299 0.930 . S
O1304 Co1293 2.039 . S
O1304 C1294 1.265 . S
C1305 O1301 1.253 . S
C1305 O1306 1.227 . S
O1306 C1305 1.227 . S
N1307 Co1293 2.140 . S
N1307 C1310 1.346 . S
N1307 C1311 1.345 . S
C1308 C1309 1.387 . S
C1308 C1312 1.391 . S
C1309 C1308 1.387 . S
C1309 C1310 1.369 . S
C1309 H1318 0.929 . S
C1310 N1307 1.346 . S
C1310 C1309 1.369 . S
C1310 H1313 0.928 . S
C1311 N1307 1.345 . S
C1311 C1312 1.371 . S
C1311 H1314 0.931 . S
C1312 C1308 1.391 . S
C1312 C1311 1.371 . S
C1312 H1319 0.930 . S
H1313 C1310 0.928 . S
H1314 C1311 0.931 . S
H1315 C1291 0.930 . S
H1316 C1288 0.930 . S
H1317 C1297 0.930 . S
H1318 C1309 0.929 . S
H1319 C1312 0.930 . S
C1320 C1321 1.351 . S
C1320 N1323 1.368 . S
C1320 H1325 0.931 . S
C1321 C1320 1.351 . S
C1321 N1322 1.373 . S
C1321 H1349 0.930 . S
N1322 C1321 1.373 . S
N1322 C1324 1.340 . S
N1323 C1320 1.368 . S
N1323 C1324 1.321 . S
N1323 Co1326 2.135 . S
C1324 N1322 1.340 . S
C1324 N1323 1.321 . S
C1324 H1348 0.930 . S
H1325 C1320 0.931 . S
Co1326 N1323 2.135 . S
Co1326 N1329 2.121 . S
Co1326 O1334 2.055 . S
Co1326 O1337 2.039 . S
Co1326 N1340 2.140 . S
C1327 O1328 1.227 . S
C1327 O1337 1.265 . S
O1328 C1327 1.227 . S
N1329 Co1326 2.121 . S
N1329 C1331 1.375 . S
N1329 C1332 1.313 . S
C1330 C1331 1.338 . S
C1330 N1333 1.377 . S
C1330 H1350 0.930 . S
C1331 N1329 1.375 . S
C1331 C1330 1.338 . S
C1331 H1335 0.931 . S
C1332 N1329 1.313 . S
C1332 N1333 1.344 . S
C1332 H1336 0.930 . S
N1333 C1330 1.377 . S
N1333 C1332 1.344 . S
O1334 Co1326 2.055 . S
O1334 C1338 1.253 . S
H1335 C1331 0.931 . S
H1336 C1332 0.930 . S
O1337 Co1326 2.039 . S
O1337 C1327 1.265 . S
C1338 O1334 1.253 . S
C1338 O1339 1.227 . S
O1339 C1338 1.227 . S
N1340 Co1326 2.140 . S
N1340 C1343 1.346 . S
N1340 C1344 1.345 . S
C1341 C1342 1.387 . S
C1341 C1345 1.391 . S
C1342 C1341 1.387 . S
C1342 C1343 1.369 . S
C1342 H1351 0.929 . S
C1343 N1340 1.346 . S
C1343 C1342 1.369 . S
C1343 H1346 0.928 . S
C1344 N1340 1.345 . S
C1344 C1345 1.371 . S
C1344 H1347 0.931 . S
C1345 C1341 1.391 . S
C1345 C1344 1.371 . S
C1345 H1352 0.930 . S
H1346 C1343 0.928 . S
H1347 C1344 0.931 . S
H1348 C1324 0.930 . S
H1349 C1321 0.930 . S
H1350 C1330 0.930 . S
H1351 C1342 0.929 . S
H1352 C1345 0.930 . S
C1353 C1354 1.351 . S
C1353 N1356 1.368 . S
C1353 H1358 0.931 . S
C1354 C1353 1.351 . S
C1354 N1355 1.373 . S
C1354 H1382 0.930 . S
N1355 C1354 1.373 . S
N1355 C1357 1.340 . S
N1356 C1353 1.368 . S
N1356 C1357 1.321 . S
N1356 Co1359 2.135 . S
C1357 N1355 1.340 . S
C1357 N1356 1.321 . S
C1357 H1381 0.930 . S
H1358 C1353 0.931 . S
Co1359 N1356 2.135 . S
Co1359 N1362 2.121 1_556 S
Co1359 O1367 2.055 . S
Co1359 O1370 2.039 . S
Co1359 N1373 2.140 . S
C1360 O1361 1.227 . S
C1360 O1370 1.265 . S
O1361 C1360 1.227 . S
N1362 Co1359 2.121 1_554 S
N1362 C1364 1.375 . S
N1362 C1365 1.313 . S
C1363 C1364 1.338 . S
C1363 N1366 1.377 . S
C1363 H1383 0.930 . S
C1364 N1362 1.375 . S
C1364 C1363 1.338 . S
C1364 H1368 0.931 . S
C1365 N1362 1.313 . S
C1365 N1366 1.344 . S
C1365 H1369 0.925 1_554 S
N1366 C1363 1.377 . S
N1366 C1365 1.344 . S
O1367 Co1359 2.055 . S
O1367 C1371 1.253 . S
H1368 C1364 0.931 . S
H1369 C1365 0.925 1_556 S
O1370 Co1359 2.039 . S
O1370 C1360 1.265 . S
C1371 O1367 1.253 . S
C1371 O1372 1.227 . S
O1372 C1371 1.227 . S
N1373 Co1359 2.140 . S
N1373 C1376 1.346 . S
N1373 C1377 1.345 . S
C1374 C1375 1.387 . S
C1374 C1378 1.391 . S
C1375 C1374 1.387 . S
C1375 C1376 1.369 . S
C1375 H1384 0.929 . S
C1376 N1373 1.346 . S
C1376 C1375 1.369 . S
C1376 H1379 0.928 . S
C1377 N1373 1.345 . S
C1377 C1378 1.371 . S
C1377 H1380 0.931 . S
C1378 C1374 1.391 . S
C1378 C1377 1.371 . S
C1378 H1385 0.930 . S
H1379 C1376 0.928 . S
H1380 C1377 0.931 . S
H1381 C1357 0.930 . S
H1382 C1354 0.930 . S
H1383 C1363 0.930 . S
H1384 C1375 0.929 . S
H1385 C1378 0.930 . S
C1386 C1387 1.351 . S
C1386 N1389 1.368 . S
C1386 H1391 0.931 . S
C1387 C1386 1.351 . S
C1387 N1388 1.373 . S
C1387 H1415 0.930 . S
N1388 C1387 1.373 . S
N1388 C1390 1.340 . S
N1389 C1386 1.368 . S
N1389 C1390 1.321 . S
N1389 Co1392 2.135 . S
C1390 N1388 1.340 . S
C1390 N1389 1.321 . S
C1390 H1414 0.930 . S
H1391 C1386 0.931 . S
Co1392 N1389 2.135 . S
Co1392 N1395 2.121 . S
Co1392 O1400 2.055 . S
Co1392 O1403 2.039 . S
Co1392 N1406 2.140 . S
C1393 O1394 1.227 . S
C1393 O1403 1.265 . S
O1394 C1393 1.227 . S
N1395 Co1392 2.121 . S
N1395 C1397 1.375 . S
N1395 C1398 1.313 . S
C1396 C1397 1.338 . S
C1396 N1399 1.377 . S
C1396 H1416 0.930 . S
C1397 N1395 1.375 . S
C1397 C1396 1.338 . S
C1397 H1401 0.931 . S
C1398 N1395 1.313 . S
C1398 N1399 1.344 . S
C1398 H1402 0.930 . S
N1399 C1396 1.377 . S
N1399 C1398 1.344 . S
O1400 Co1392 2.055 . S
O1400 C1404 1.253 . S
H1401 C1397 0.931 . S
H1402 C1398 0.930 . S
O1403 Co1392 2.039 . S
O1403 C1393 1.265 . S
C1404 O1400 1.253 . S
C1404 O1405 1.227 . S
O1405 C1404 1.227 . S
N1406 Co1392 2.140 . S
N1406 C1409 1.346 . S
N1406 C1410 1.345 . S
C1407 C1408 1.387 . S
C1407 C1411 1.391 . S
C1408 C1407 1.387 . S
C1408 C1409 1.369 . S
C1408 H1417 0.929 . S
C1409 N1406 1.346 . S
C1409 C1408 1.369 . S
C1409 H1412 0.928 . S
C1410 N1406 1.345 . S
C1410 C1411 1.371 . S
C1410 H1413 0.931 . S
C1411 C1407 1.391 . S
C1411 C1410 1.371 . S
C1411 H1418 0.930 . S
H1412 C1409 0.928 . S
H1413 C1410 0.931 . S
H1414 C1390 0.930 . S
H1415 C1387 0.930 . S
H1416 C1396 0.930 . S
H1417 C1408 0.929 . S
H1418 C1411 0.930 . S
C1419 C1420 1.351 . S
C1419 N1422 1.368 . S
C1419 H1424 0.931 . S
C1420 C1419 1.351 . S
C1420 N1421 1.373 . S
C1420 H1448 0.930 . S
N1421 C1420 1.373 . S
N1421 C1423 1.340 . S
N1422 C1419 1.368 . S
N1422 C1423 1.321 . S
N1422 Co1425 2.135 . S
C1423 N1421 1.340 . S
C1423 N1422 1.321 . S
C1423 H1447 0.930 . S
H1424 C1419 0.931 . S
Co1425 N1422 2.135 . S
Co1425 N1428 2.121 1_556 S
Co1425 O1433 2.055 . S
Co1425 O1436 2.039 . S
Co1425 N1439 2.140 . S
C1426 O1427 1.227 . S
C1426 O1436 1.265 . S
O1427 C1426 1.227 . S
N1428 Co1425 2.121 1_554 S
N1428 C1430 1.375 . S
N1428 C1431 1.313 . S
C1429 C1430 1.338 . S
C1429 N1432 1.377 . S
C1429 H1449 0.930 . S
C1430 N1428 1.375 . S
C1430 C1429 1.338 . S
C1430 H1434 0.931 . S
C1431 N1428 1.313 . S
C1431 N1432 1.344 . S
C1431 H1435 0.925 1_554 S
N1432 C1429 1.377 . S
N1432 C1431 1.344 . S
O1433 Co1425 2.055 . S
O1433 C1437 1.253 . S
H1434 C1430 0.931 . S
H1435 C1431 0.925 1_556 S
O1436 Co1425 2.039 . S
O1436 C1426 1.265 . S
C1437 O1433 1.253 . S
C1437 O1438 1.227 . S
O1438 C1437 1.227 . S
N1439 Co1425 2.140 . S
N1439 C1442 1.346 . S
N1439 C1443 1.345 . S
C1440 C1441 1.387 . S
C1440 C1444 1.391 . S
C1441 C1440 1.387 . S
C1441 C1442 1.369 . S
C1441 H1450 0.929 . S
C1442 N1439 1.346 . S
C1442 C1441 1.369 . S
C1442 H1445 0.928 . S
C1443 N1439 1.345 . S
C1443 C1444 1.371 . S
C1443 H1446 0.931 . S
C1444 C1440 1.391 . S
C1444 C1443 1.371 . S
C1444 H1451 0.930 . S
H1445 C1442 0.928 . S
H1446 C1443 0.931 . S
H1447 C1423 0.930 . S
H1448 C1420 0.930 . S
H1449 C1429 0.930 . S
H1450 C1441 0.929 . S
H1451 C1444 0.930 . S
C1452 C1453 1.351 . S
C1452 N1455 1.368 . S
C1452 H1457 0.931 . S
C1453 C1452 1.351 . S
C1453 N1454 1.373 1_455 S
C1453 H1481 0.930 . S
N1454 C1453 1.373 1_655 S
N1454 C1456 1.340 1_655 S
N1455 C1452 1.368 . S
N1455 C1456 1.321 . S
N1455 Co1458 2.135 . S
C1456 N1454 1.340 1_455 S
C1456 N1455 1.321 . S
C1456 H1480 0.930 . S
H1457 C1452 0.931 . S
Co1458 N1455 2.135 . S
Co1458 N1461 2.121 . S
Co1458 O1466 2.055 . S
Co1458 O1469 2.039 . S
Co1458 N1472 2.140 1_455 S
C1459 O1460 1.227 1_455 S
C1459 O1469 1.265 . S
O1460 C1459 1.227 1_655 S
N1461 Co1458 2.121 . S
N1461 C1463 1.375 . S
N1461 C1464 1.313 . S
C1462 C1463 1.338 . S
C1462 N1465 1.377 . S
C1462 H1482 0.930 . S
C1463 N1461 1.375 . S
C1463 C1462 1.338 . S
C1463 H1467 0.931 . S
C1464 N1461 1.313 . S
C1464 N1465 1.344 . S
C1464 H1468 0.930 . S
N1465 C1462 1.377 . S
N1465 C1464 1.344 . S
O1466 Co1458 2.055 . S
O1466 C1470 1.253 . S
H1467 C1463 0.931 . S
H1468 C1464 0.930 . S
O1469 Co1458 2.039 . S
O1469 C1459 1.265 . S
C1470 O1466 1.253 . S
C1470 O1471 1.227 . S
O1471 C1470 1.227 . S
N1472 Co1458 2.140 1_655 S
N1472 C1475 1.346 . S
N1472 C1476 1.345 . S
C1473 C1474 1.387 . S
C1473 C1477 1.391 . S
C1474 C1473 1.387 . S
C1474 C1475 1.369 . S
C1474 H1483 0.929 . S
C1475 N1472 1.346 . S
C1475 C1474 1.369 . S
C1475 H1478 0.928 . S
C1476 N1472 1.345 . S
C1476 C1477 1.371 . S
C1476 H1479 0.931 1_655 S
C1477 C1473 1.391 . S
C1477 C1476 1.371 . S
C1477 H1484 0.930 . S
H1478 C1475 0.928 . S
H1479 C1476 0.931 1_455 S
H1480 C1456 0.930 . S
H1481 C1453 0.930 . S
H1482 C1462 0.930 . S
H1483 C1474 0.929 . S
H1484 C1477 0.930 . S
C1485 C1486 1.351 . S
C1485 N1488 1.368 . S
C1485 H1490 0.931 . S
C1486 C1485 1.351 . S
C1486 N1487 1.373 . S
C1486 H1514 0.930 . S
N1487 C1486 1.373 . S
N1487 C1489 1.340 . S
N1488 C1485 1.368 . S
N1488 C1489 1.321 . S
N1488 Co1491 2.135 . S
C1489 N1487 1.340 . S
C1489 N1488 1.321 . S
C1489 H1513 0.930 . S
H1490 C1485 0.931 . S
Co1491 N1488 2.135 . S
Co1491 N1494 2.121 1_554 S
Co1491 O1499 2.055 . S
Co1491 O1502 2.039 . S
Co1491 N1505 2.140 . S
C1492 O1493 1.227 . S
C1492 O1502 1.265 . S
O1493 C1492 1.227 . S
N1494 Co1491 2.121 1_556 S
N1494 C1496 1.375 . S
N1494 C1497 1.313 . S
C1495 C1496 1.338 . S
C1495 N1498 1.377 . S
C1495 H1515 0.930 . S
C1496 N1494 1.375 . S
C1496 C1495 1.338 . S
C1496 H1500 0.931 . S
C1497 N1494 1.313 . S
C1497 N1498 1.344 . S
C1497 H1501 0.930 1_556 S
N1498 C1495 1.377 . S
N1498 C1497 1.344 . S
O1499 Co1491 2.055 . S
O1499 C1503 1.253 . S
H1500 C1496 0.931 . S
H1501 C1497 0.930 1_554 S
O1502 Co1491 2.039 . S
O1502 C1492 1.265 . S
C1503 O1499 1.253 . S
C1503 O1504 1.227 . S
O1504 C1503 1.227 . S
N1505 Co1491 2.140 . S
N1505 C1508 1.346 . S
N1505 C1509 1.345 . S
C1506 C1507 1.387 . S
C1506 C1510 1.391 . S
C1507 C1506 1.387 . S
C1507 C1508 1.369 . S
C1507 H1516 0.929 . S
C1508 N1505 1.346 . S
C1508 C1507 1.369 . S
C1508 H1511 0.928 . S
C1509 N1505 1.345 . S
C1509 C1510 1.371 . S
C1509 H1512 0.931 . S
C1510 C1506 1.391 . S
C1510 C1509 1.371 . S
C1510 H1517 0.930 . S
H1511 C1508 0.928 . S
H1512 C1509 0.931 . S
H1513 C1489 0.930 . S
H1514 C1486 0.930 . S
H1515 C1495 0.930 . S
H1516 C1507 0.929 . S
H1517 C1510 0.930 . S
C1518 C1519 1.351 . S
C1518 N1521 1.368 . S
C1518 H1523 0.931 . S
C1519 C1518 1.351 . S
C1519 N1520 1.373 . S
C1519 H1547 0.930 . S
N1520 C1519 1.373 . S
N1520 C1522 1.340 . S
N1521 C1518 1.368 . S
N1521 C1522 1.321 . S
N1521 Co1524 2.135 . S
C1522 N1520 1.340 . S
C1522 N1521 1.321 . S
C1522 H1546 0.930 . S
H1523 C1518 0.931 . S
Co1524 N1521 2.135 . S
Co1524 N1527 2.121 . S
Co1524 O1532 2.055 . S
Co1524 O1535 2.039 . S
Co1524 N1538 2.140 . S
C1525 O1526 1.227 . S
C1525 O1535 1.265 . S
O1526 C1525 1.227 . S
N1527 Co1524 2.121 . S
N1527 C1529 1.375 . S
N1527 C1530 1.313 . S
C1528 C1529 1.338 . S
C1528 N1531 1.377 . S
C1528 H1548 0.930 . S
C1529 N1527 1.375 . S
C1529 C1528 1.338 . S
C1529 H1533 0.931 . S
C1530 N1527 1.313 . S
C1530 N1531 1.344 . S
C1530 H1534 0.930 . S
N1531 C1528 1.377 . S
N1531 C1530 1.344 . S
O1532 Co1524 2.055 . S
O1532 C1536 1.253 . S
H1533 C1529 0.931 . S
H1534 C1530 0.930 . S
O1535 Co1524 2.039 . S
O1535 C1525 1.265 . S
C1536 O1532 1.253 . S
C1536 O1537 1.227 . S
O1537 C1536 1.227 . S
N1538 Co1524 2.140 . S
N1538 C1541 1.346 . S
N1538 C1542 1.345 . S
C1539 C1540 1.387 . S
C1539 C1543 1.391 . S
C1540 C1539 1.387 . S
C1540 C1541 1.369 . S
C1540 H1549 0.929 . S
C1541 N1538 1.346 . S
C1541 C1540 1.369 . S
C1541 H1544 0.928 . S
C1542 N1538 1.345 . S
C1542 C1543 1.371 . S
C1542 H1545 0.931 . S
C1543 C1539 1.391 . S
C1543 C1542 1.371 . S
C1543 H1550 0.930 . S
H1544 C1541 0.928 . S
H1545 C1542 0.931 . S
H1546 C1522 0.930 . S
H1547 C1519 0.930 . S
H1548 C1528 0.930 . S
H1549 C1540 0.929 . S
H1550 C1543 0.930 . S
C1551 C1552 1.351 . S
C1551 N1554 1.368 . S
C1551 H1556 0.931 . S
C1552 C1551 1.351 . S
C1552 N1553 1.373 . S
C1552 H1580 0.930 . S
N1553 C1552 1.373 . S
N1553 C1555 1.340 . S
N1554 C1551 1.368 . S
N1554 C1555 1.321 . S
N1554 Co1557 2.135 . S
C1555 N1553 1.340 . S
C1555 N1554 1.321 . S
C1555 H1579 0.930 . S
H1556 C1551 0.931 . S
Co1557 N1554 2.135 . S
Co1557 N1560 2.121 . S
Co1557 O1565 2.055 . S
Co1557 O1568 2.039 . S
Co1557 N1571 2.140 . S
C1558 O1559 1.227 . S
C1558 O1568 1.265 . S
O1559 C1558 1.227 . S
N1560 Co1557 2.121 . S
N1560 C1562 1.375 . S
N1560 C1563 1.313 . S
C1561 C1562 1.338 . S
C1561 N1564 1.377 . S
C1561 H1581 0.930 . S
C1562 N1560 1.375 . S
C1562 C1561 1.338 . S
C1562 H1566 0.931 . S
C1563 N1560 1.313 . S
C1563 N1564 1.344 . S
C1563 H1567 0.930 . S
N1564 C1561 1.377 . S
N1564 C1563 1.344 . S
O1565 Co1557 2.055 . S
O1565 C1569 1.253 . S
H1566 C1562 0.931 . S
H1567 C1563 0.930 . S
O1568 Co1557 2.039 . S
O1568 C1558 1.265 . S
C1569 O1565 1.253 . S
C1569 O1570 1.227 . S
O1570 C1569 1.227 . S
N1571 Co1557 2.140 . S
N1571 C1574 1.346 . S
N1571 C1575 1.345 . S
C1572 C1573 1.387 . S
C1572 C1576 1.391 . S
C1573 C1572 1.387 . S
C1573 C1574 1.369 . S
C1573 H1582 0.929 . S
C1574 N1571 1.346 . S
C1574 C1573 1.369 . S
C1574 H1577 0.928 . S
C1575 N1571 1.345 . S
C1575 C1576 1.371 . S
C1575 H1578 0.931 . S
C1576 C1572 1.391 . S
C1576 C1575 1.371 . S
C1576 H1583 0.930 . S
H1577 C1574 0.928 . S
H1578 C1575 0.931 . S
H1579 C1555 0.930 . S
H1580 C1552 0.930 . S
H1581 C1561 0.930 . S
H1582 C1573 0.929 . S
H1583 C1576 0.930 . S
H1584 C1590 0.930 . S
H1585 C1593 0.930 . S
H1586 C1594 0.930 . S
H1587 C1595 0.930 . S
H1588 C1598 0.930 1_655 S
H1589 C1599 0.935 . S
C1590 H1584 0.930 . S
C1590 C1591 1.355 . S
C1590 C1592 1.415 . S
C1591 C1590 1.355 . S
C1591 C1593 1.419 . S
C1592 C1590 1.415 . S
C1592 C1597 1.425 . S
C1592 C1599 1.409 . S
C1593 H1585 0.930 . S
C1593 C1591 1.419 . S
C1593 C1594 1.362 . S
C1594 H1586 0.930 . S
C1594 C1593 1.362 . S
C1594 C1597 1.409 . S
C1595 H1587 0.930 . S
C1595 C1596 1.355 . S
C1595 C1597 1.415 . S
C1596 C1595 1.355 . S
C1596 C1598 1.419 . S
C1597 C1592 1.425 . S
C1597 C1594 1.409 . S
C1597 C1595 1.415 . S
C1598 H1588 0.930 1_455 S
C1598 C1596 1.419 . S
C1598 C1599 1.362 . S
C1599 H1589 0.935 . S
C1599 C1592 1.409 . S
C1599 C1598 1.362 . S
H1600 C1606 0.930 . S
H1601 C1609 0.930 . S
H1602 C1610 0.930 . S
H1603 C1611 0.930 . S
H1604 C1614 0.930 . S
H1605 C1615 0.930 . S
C1606 H1600 0.930 . S
C1606 C1607 1.355 . S
C1606 C1608 1.415 . S
C1607 C1606 1.355 . S
C1607 C1609 1.419 . S
C1608 C1606 1.415 . S
C1608 C1613 1.425 . S
C1608 C1615 1.409 . S
C1609 H1601 0.930 . S
C1609 C1607 1.419 . S
C1609 C1610 1.362 . S
C1610 H1602 0.930 . S
C1610 C1609 1.362 . S
C1610 C1613 1.409 . S
C1611 H1603 0.930 . S
C1611 C1612 1.355 . S
C1611 C1613 1.415 . S
C1612 C1611 1.355 . S
C1612 C1614 1.419 . S
C1613 C1608 1.425 . S
C1613 C1610 1.409 . S
C1613 C1611 1.415 . S
C1614 H1604 0.930 . S
C1614 C1612 1.419 . S
C1614 C1615 1.362 . S
C1615 H1605 0.930 . S
C1615 C1608 1.409 . S
C1615 C1614 1.362 . S
H1616 C1622 0.930 . S
H1617 C1625 0.930 . S
H1618 C1626 0.930 . S
H1619 C1627 0.930 . S
H1620 C1630 0.930 . S
H1621 C1631 0.930 . S
C1622 H1616 0.930 . S
C1622 C1623 1.355 . S
C1622 C1624 1.415 . S
C1623 C1622 1.355 . S
C1623 C1625 1.419 . S
C1624 C1622 1.415 . S
C1624 C1629 1.425 . S
C1624 C1631 1.409 . S
C1625 H1617 0.930 . S
C1625 C1623 1.419 . S
C1625 C1626 1.362 . S
C1626 H1618 0.930 . S
C1626 C1625 1.362 . S
C1626 C1629 1.409 . S
C1627 H1619 0.930 . S
C1627 C1628 1.355 . S
C1627 C1629 1.415 . S
C1628 C1627 1.355 . S
C1628 C1630 1.419 . S
C1629 C1624 1.425 . S
C1629 C1626 1.409 . S
C1629 C1627 1.415 . S
C1630 H1620 0.930 . S
C1630 C1628 1.419 . S
C1630 C1631 1.362 . S
C1631 H1621 0.930 . S
C1631 C1624 1.409 . S
C1631 C1630 1.362 . S
H1632 C1638 0.930 . S
H1633 C1641 0.930 . S
H1634 C1642 0.930 . S
H1635 C1643 0.930 . S
H1636 C1646 0.930 . S
H1637 C1647 0.930 . S
C1638 H1632 0.930 . S
C1638 C1639 1.355 . S
C1638 C1640 1.415 . S
C1639 C1638 1.355 . S
C1639 C1641 1.419 . S
C1640 C1638 1.415 . S
C1640 C1645 1.425 . S
C1640 C1647 1.409 . S
C1641 H1633 0.930 . S
C1641 C1639 1.419 . S
C1641 C1642 1.362 . S
C1642 H1634 0.930 . S
C1642 C1641 1.362 . S
C1642 C1645 1.409 . S
C1643 H1635 0.930 . S
C1643 C1644 1.355 . S
C1643 C1645 1.415 . S
C1644 C1643 1.355 . S
C1644 C1646 1.419 . S
C1645 C1640 1.425 . S
C1645 C1642 1.409 . S
C1645 C1643 1.415 . S
C1646 H1636 0.930 . S
C1646 C1644 1.419 . S
C1646 C1647 1.362 . S
C1647 H1637 0.930 . S
C1647 C1640 1.409 . S
C1647 C1646 1.362 . S
H1648 C1654 0.930 . S
H1649 C1657 0.930 . S
H1650 C1658 0.930 . S
H1651 C1659 0.930 . S
H1652 C1662 0.930 . S
H1653 C1663 0.930 . S
C1654 H1648 0.930 . S
C1654 C1655 1.355 . S
C1654 C1656 1.415 . S
C1655 C1654 1.355 . S
C1655 C1657 1.419 . S
C1656 C1654 1.415 . S
C1656 C1661 1.425 . S
C1656 C1663 1.409 . S
C1657 H1649 0.930 . S
C1657 C1655 1.419 . S
C1657 C1658 1.362 . S
C1658 H1650 0.930 . S
C1658 C1657 1.362 . S
C1658 C1661 1.409 . S
C1659 H1651 0.930 . S
C1659 C1660 1.355 . S
C1659 C1661 1.415 . S
C1660 C1659 1.355 . S
C1660 C1662 1.419 . S
C1661 C1656 1.425 . S
C1661 C1658 1.409 . S
C1661 C1659 1.415 . S
C1662 H1652 0.930 . S
C1662 C1660 1.419 . S
C1662 C1663 1.362 . S
C1663 H1653 0.930 . S
C1663 C1656 1.409 . S
C1663 C1662 1.362 . S
H1664 C1670 0.930 . S
H1665 C1673 0.930 1_655 S
H1666 C1674 0.930 . S
H1667 C1675 0.930 . S
H1668 C1678 0.930 . S
H1669 C1679 0.930 . S
C1670 H1664 0.930 . S
C1670 C1671 1.355 . S
C1670 C1672 1.415 . S
C1671 C1670 1.355 . S
C1671 C1673 1.419 . S
C1672 C1670 1.415 . S
C1672 C1677 1.425 . S
C1672 C1679 1.409 . S
C1673 H1665 0.930 1_455 S
C1673 C1671 1.419 . S
C1673 C1674 1.362 . S
C1674 H1666 0.930 . S
C1674 C1673 1.362 . S
C1674 C1677 1.409 . S
C1675 H1667 0.930 . S
C1675 C1676 1.355 . S
C1675 C1677 1.415 . S
C1676 C1675 1.355 . S
C1676 C1678 1.419 . S
C1677 C1672 1.425 . S
C1677 C1674 1.409 . S
C1677 C1675 1.415 . S
C1678 H1668 0.930 . S
C1678 C1676 1.419 . S
C1678 C1679 1.362 . S
C1679 H1669 0.930 . S
C1679 C1672 1.409 . S
C1679 C1678 1.362 . S
H1680 C1686 0.930 . S
H1681 C1689 0.930 . S
H1682 C1690 0.930 . S
H1683 C1691 0.930 . S
H1684 C1694 0.930 . S
H1685 C1695 0.930 . S
C1686 H1680 0.930 . S
C1686 C1687 1.355 . S
C1686 C1688 1.415 . S
C1687 C1686 1.355 . S
C1687 C1689 1.419 . S
C1688 C1686 1.415 . S
C1688 C1693 1.425 . S
C1688 C1695 1.409 . S
C1689 H1681 0.930 . S
C1689 C1687 1.419 . S
C1689 C1690 1.362 . S
C1690 H1682 0.930 . S
C1690 C1689 1.362 . S
C1690 C1693 1.409 . S
C1691 H1683 0.930 . S
C1691 C1692 1.355 . S
C1691 C1693 1.415 . S
C1692 C1691 1.355 . S
C1692 C1694 1.419 . S
C1693 C1688 1.425 . S
C1693 C1690 1.409 . S
C1693 C1691 1.415 . S
C1694 H1684 0.930 . S
C1694 C1692 1.419 . S
C1694 C1695 1.362 . S
C1695 H1685 0.930 . S
C1695 C1688 1.409 . S
C1695 C1694 1.362 . S
H1696 C1702 0.930 1_455 S
H1697 C1705 0.930 . S
H1698 C1706 0.930 . S
H1699 C1707 0.930 . S
H1700 C1710 0.930 . S
H1701 C1711 0.930 . S
C1702 H1696 0.930 1_655 S
C1702 C1703 1.355 . S
C1702 C1704 1.415 . S
C1703 C1702 1.355 . S
C1703 C1705 1.419 . S
C1704 C1702 1.415 . S
C1704 C1709 1.425 . S
C1704 C1711 1.409 . S
C1705 H1697 0.930 . S
C1705 C1703 1.419 . S
C1705 C1706 1.362 . S
C1706 H1698 0.930 . S
C1706 C1705 1.362 . S
C1706 C1709 1.409 . S
C1707 H1699 0.930 . S
C1707 C1708 1.355 . S
C1707 C1709 1.415 . S
C1708 C1707 1.355 . S
C1708 C1710 1.419 . S
C1709 C1704 1.425 . S
C1709 C1706 1.409 . S
C1709 C1707 1.415 . S
C1710 H1700 0.930 . S
C1710 C1708 1.419 . S
C1710 C1711 1.362 . S
C1711 H1701 0.930 . S
C1711 C1704 1.409 . S
C1711 C1710 1.362 . S
H1712 C1718 0.930 . S
H1713 C1721 0.930 . S
H1714 C1722 0.930 . S
H1715 C1723 0.930 . S
H1716 C1726 0.930 . S
H1717 C1727 0.930 . S
C1718 H1712 0.930 . S
C1718 C1719 1.355 . S
C1718 C1720 1.415 . S
C1719 C1718 1.355 . S
C1719 C1721 1.419 . S
C1720 C1718 1.415 . S
C1720 C1725 1.425 . S
C1720 C1727 1.409 . S
C1721 H1713 0.930 . S
C1721 C1719 1.419 . S
C1721 C1722 1.362 . S
C1722 H1714 0.930 . S
C1722 C1721 1.362 . S
C1722 C1725 1.409 . S
C1723 H1715 0.930 . S
C1723 C1724 1.355 . S
C1723 C1725 1.415 . S
C1724 C1723 1.355 . S
C1724 C1726 1.419 . S
C1725 C1720 1.425 . S
C1725 C1722 1.409 . S
C1725 C1723 1.415 . S
C1726 H1716 0.930 . S
C1726 C1724 1.419 . S
C1726 C1727 1.362 . S
C1727 H1717 0.930 . S
C1727 C1720 1.409 . S
C1727 C1726 1.362 . S
H1728 C1734 0.930 . S
H1729 C1737 0.930 1_556 S
H1730 C1738 0.930 . S
H1731 C1739 0.930 . S
H1732 C1742 0.930 . S
H1733 C1743 0.930 . S
C1734 H1728 0.930 . S
C1734 C1735 1.355 . S
C1734 C1736 1.415 . S
C1735 C1734 1.355 . S
C1735 C1737 1.419 . S
C1736 C1734 1.415 . S
C1736 C1741 1.425 . S
C1736 C1743 1.409 . S
C1737 H1729 0.930 1_554 S
C1737 C1735 1.419 . S
C1737 C1738 1.362 . S
C1738 H1730 0.930 . S
C1738 C1737 1.362 . S
C1738 C1741 1.409 . S
C1739 H1731 0.930 . S
C1739 C1740 1.355 . S
C1739 C1741 1.415 . S
C1740 C1739 1.355 . S
C1740 C1742 1.419 . S
C1741 C1736 1.425 . S
C1741 C1738 1.409 . S
C1741 C1739 1.415 . S
C1742 H1732 0.930 . S
C1742 C1740 1.419 . S
C1742 C1743 1.362 . S
C1743 H1733 0.930 . S
C1743 C1736 1.409 . S
C1743 C1742 1.362 . S
H1744 C1750 0.930 . S
H1745 C1753 0.930 . S
H1746 C1754 0.930 . S
H1747 C1755 0.930 . S
H1748 C1758 0.930 . S
H1749 C1759 0.930 . S
C1750 H1744 0.930 . S
C1750 C1751 1.355 . S
C1750 C1752 1.415 . S
C1751 C1750 1.355 . S
C1751 C1753 1.419 . S
C1752 C1750 1.415 . S
C1752 C1757 1.425 . S
C1752 C1759 1.409 . S
C1753 H1745 0.930 . S
C1753 C1751 1.419 . S
C1753 C1754 1.362 . S
C1754 H1746 0.930 . S
C1754 C1753 1.362 . S
C1754 C1757 1.409 . S
C1755 H1747 0.930 . S
C1755 C1756 1.355 . S
C1755 C1757 1.415 . S
C1756 C1755 1.355 . S
C1756 C1758 1.419 . S
C1757 C1752 1.425 . S
C1757 C1754 1.409 . S
C1757 C1755 1.415 . S
C1758 H1748 0.930 . S
C1758 C1756 1.419 . S
C1758 C1759 1.362 . S
C1759 H1749 0.930 . S
C1759 C1752 1.409 . S
C1759 C1758 1.362 . S
H1760 C1766 0.930 . S
H1761 C1769 0.930 . S
H1762 C1770 0.930 . S
H1763 C1771 0.930 . S
H1764 C1774 0.930 . S
H1765 C1775 0.930 . S
C1766 H1760 0.930 . S
C1766 C1767 1.355 . S
C1766 C1768 1.415 . S
C1767 C1766 1.355 . S
C1767 C1769 1.419 . S
C1768 C1766 1.415 . S
C1768 C1773 1.425 . S
C1768 C1775 1.409 . S
C1769 H1761 0.930 . S
C1769 C1767 1.419 . S
C1769 C1770 1.362 . S
C1770 H1762 0.930 . S
C1770 C1769 1.362 . S
C1770 C1773 1.409 . S
C1771 H1763 0.930 . S
C1771 C1772 1.355 . S
C1771 C1773 1.415 . S
C1772 C1771 1.355 . S
C1772 C1774 1.419 . S
C1773 C1768 1.425 . S
C1773 C1770 1.409 . S
C1773 C1771 1.415 . S
C1774 H1764 0.930 . S
C1774 C1772 1.419 . S
C1774 C1775 1.362 . S
C1775 H1765 0.930 . S
C1775 C1768 1.409 . S
C1775 C1774 1.362 . S
H1776 C1782 0.930 . S
H1777 C1785 0.930 . S
H1778 C1786 0.930 . S
H1779 C1787 0.930 . S
H1780 C1790 0.930 . S
H1781 C1791 0.930 . S
C1782 H1776 0.930 . S
C1782 C1783 1.355 . S
C1782 C1784 1.415 . S
C1783 C1782 1.355 . S
C1783 C1785 1.419 . S
C1784 C1782 1.415 . S
C1784 C1789 1.425 . S
C1784 C1791 1.409 . S
C1785 H1777 0.930 . S
C1785 C1783 1.419 . S
C1785 C1786 1.362 . S
C1786 H1778 0.930 . S
C1786 C1785 1.362 . S
C1786 C1789 1.409 . S
C1787 H1779 0.930 . S
C1787 C1788 1.355 . S
C1787 C1789 1.415 . S
C1788 C1787 1.355 . S
C1788 C1790 1.419 . S
C1789 C1784 1.425 . S
C1789 C1786 1.409 . S
C1789 C1787 1.415 . S
C1790 H1780 0.930 . S
C1790 C1788 1.419 . S
C1790 C1791 1.362 . S
C1791 H1781 0.930 . S
C1791 C1784 1.409 . S
C1791 C1790 1.362 . S
H1792 C1798 0.930 . S
H1793 C1801 0.930 . S
H1794 C1802 0.930 . S
H1795 C1803 0.930 . S
H1796 C1806 0.930 . S
H1797 C1807 0.930 . S
C1798 H1792 0.930 . S
C1798 C1799 1.355 . S
C1798 C1800 1.415 . S
C1799 C1798 1.355 . S
C1799 C1801 1.419 . S
C1800 C1798 1.415 . S
C1800 C1805 1.425 . S
C1800 C1807 1.409 . S
C1801 H1793 0.930 . S
C1801 C1799 1.419 . S
C1801 C1802 1.362 . S
C1802 H1794 0.930 . S
C1802 C1801 1.362 . S
C1802 C1805 1.409 . S
C1803 H1795 0.930 . S
C1803 C1804 1.355 . S
C1803 C1805 1.415 . S
C1804 C1803 1.355 . S
C1804 C1806 1.419 . S
C1805 C1800 1.425 . S
C1805 C1802 1.409 . S
C1805 C1803 1.415 . S
C1806 H1796 0.930 . S
C1806 C1804 1.419 . S
C1806 C1807 1.362 . S
C1807 H1797 0.930 . S
C1807 C1800 1.409 . S
C1807 C1806 1.362 . S
H1808 C1814 0.930 . S
H1809 C1817 0.930 . S
H1810 C1818 0.930 . S
H1811 C1819 0.930 . S
H1812 C1822 0.930 . S
H1813 C1823 0.930 . S
C1814 H1808 0.930 . S
C1814 C1815 1.355 . S
C1814 C1816 1.415 . S
C1815 C1814 1.355 . S
C1815 C1817 1.419 . S
C1816 C1814 1.415 . S
C1816 C1821 1.425 . S
C1816 C1823 1.409 . S
C1817 H1809 0.930 . S
C1817 C1815 1.419 . S
C1817 C1818 1.362 . S
C1818 H1810 0.930 . S
C1818 C1817 1.362 . S
C1818 C1821 1.409 . S
C1819 H1811 0.930 . S
C1819 C1820 1.355 . S
C1819 C1821 1.415 . S
C1820 C1819 1.355 . S
C1820 C1822 1.419 . S
C1821 C1816 1.425 . S
C1821 C1818 1.409 . S
C1821 C1819 1.415 . S
C1822 H1812 0.930 . S
C1822 C1820 1.419 . S
C1822 C1823 1.362 . S
C1823 H1813 0.930 . S
C1823 C1816 1.409 . S
C1823 C1822 1.362 . S
H1824 C1830 0.930 . S
H1825 C1833 0.930 . S
H1826 C1834 0.930 . S
H1827 C1835 0.930 . S
H1828 C1838 0.930 . S
H1829 C1839 0.930 . S
C1830 H1824 0.930 . S
C1830 C1831 1.355 . S
C1830 C1832 1.415 . S
C1831 C1830 1.355 . S
C1831 C1833 1.419 . S
C1832 C1830 1.415 . S
C1832 C1837 1.425 . S
C1832 C1839 1.409 . S
C1833 H1825 0.930 . S
C1833 C1831 1.419 . S
C1833 C1834 1.362 . S
C1834 H1826 0.930 . S
C1834 C1833 1.362 . S
C1834 C1837 1.409 . S
C1835 H1827 0.930 . S
C1835 C1836 1.355 . S
C1835 C1837 1.415 . S
C1836 C1835 1.355 . S
C1836 C1838 1.419 . S
C1837 C1832 1.425 . S
C1837 C1834 1.409 . S
C1837 C1835 1.415 . S
C1838 H1828 0.930 . S
C1838 C1836 1.419 . S
C1838 C1839 1.362 . S
C1839 H1829 0.930 . S
C1839 C1832 1.409 . S
C1839 C1838 1.362 . S
H1840 C1846 0.930 . S
H1841 C1849 0.930 . S
H1842 C1850 0.930 . S
H1843 C1851 0.930 . S
H1844 C1854 0.930 . S
H1845 C1855 0.930 . S
C1846 H1840 0.930 . S
C1846 C1847 1.355 . S
C1846 C1848 1.415 . S
C1847 C1846 1.355 . S
C1847 C1849 1.419 . S
C1848 C1846 1.415 . S
C1848 C1853 1.425 . S
C1848 C1855 1.409 . S
C1849 H1841 0.930 . S
C1849 C1847 1.419 . S
C1849 C1850 1.362 . S
C1850 H1842 0.930 . S
C1850 C1849 1.362 . S
C1850 C1853 1.409 . S
C1851 H1843 0.930 . S
C1851 C1852 1.355 . S
C1851 C1853 1.415 . S
C1852 C1851 1.355 . S
C1852 C1854 1.419 . S
C1853 C1848 1.425 . S
C1853 C1850 1.409 . S
C1853 C1851 1.415 . S
C1854 H1844 0.930 . S
C1854 C1852 1.419 . S
C1854 C1855 1.362 . S
C1855 H1845 0.930 . S
C1855 C1848 1.409 . S
C1855 C1854 1.362 . S
H1856 C1862 0.930 . S
H1857 C1865 0.930 . S
H1858 C1866 0.930 . S
H1859 C1867 0.930 . S
H1860 C1870 0.930 . S
H1861 C1871 0.930 . S
C1862 H1856 0.930 . S
C1862 C1863 1.355 . S
C1862 C1864 1.415 . S
C1863 C1862 1.355 . S
C1863 C1865 1.419 . S
C1864 C1862 1.415 . S
C1864 C1869 1.425 . S
C1864 C1871 1.409 . S
C1865 H1857 0.930 . S
C1865 C1863 1.419 . S
C1865 C1866 1.362 . S
C1866 H1858 0.930 . S
C1866 C1865 1.362 . S
C1866 C1869 1.409 . S
C1867 H1859 0.930 . S
C1867 C1868 1.355 . S
C1867 C1869 1.415 . S
C1868 C1867 1.355 . S
C1868 C1870 1.419 . S
C1869 C1864 1.425 . S
C1869 C1866 1.409 . S
C1869 C1867 1.415 . S
C1870 H1860 0.930 . S
C1870 C1868 1.419 . S
C1870 C1871 1.362 . S
C1871 H1861 0.930 . S
C1871 C1864 1.409 . S
C1871 C1870 1.362 . S
H1872 C1878 0.930 . S
H1873 C1881 0.930 . S
H1874 C1882 0.930 . S
H1875 C1883 0.930 . S
H1876 C1886 0.930 . S
H1877 C1887 0.930 . S
C1878 H1872 0.930 . S
C1878 C1879 1.355 . S
C1878 C1880 1.415 . S
C1879 C1878 1.355 . S
C1879 C1881 1.419 . S
C1880 C1878 1.415 . S
C1880 C1885 1.425 . S
C1880 C1887 1.409 . S
C1881 H1873 0.930 . S
C1881 C1879 1.419 . S
C1881 C1882 1.362 . S
C1882 H1874 0.930 . S
C1882 C1881 1.362 . S
C1882 C1885 1.409 . S
C1883 H1875 0.930 . S
C1883 C1884 1.355 . S
C1883 C1885 1.415 . S
C1884 C1883 1.355 . S
C1884 C1886 1.419 . S
C1885 C1880 1.425 . S
C1885 C1882 1.409 . S
C1885 C1883 1.415 . S
C1886 H1876 0.930 . S
C1886 C1884 1.419 . S
C1886 C1887 1.362 . S
C1887 H1877 0.930 . S
C1887 C1880 1.409 . S
C1887 C1886 1.362 . S
H1888 C1894 0.930 . S
H1889 C1897 0.930 . S
H1890 C1898 0.930 . S
H1891 C1899 0.930 . S
H1892 C1902 0.930 . S
H1893 C1903 0.930 . S
C1894 H1888 0.930 . S
C1894 C1895 1.355 . S
C1894 C1896 1.415 . S
C1895 C1894 1.355 . S
C1895 C1897 1.419 . S
C1896 C1894 1.415 . S
C1896 C1901 1.425 . S
C1896 C1903 1.409 . S
C1897 H1889 0.930 . S
C1897 C1895 1.419 . S
C1897 C1898 1.362 . S
C1898 H1890 0.930 . S
C1898 C1897 1.362 . S
C1898 C1901 1.409 . S
C1899 H1891 0.930 . S
C1899 C1900 1.355 . S
C1899 C1901 1.415 . S
C1900 C1899 1.355 . S
C1900 C1902 1.419 . S
C1901 C1896 1.425 . S
C1901 C1898 1.409 . S
C1901 C1899 1.415 . S
C1902 H1892 0.930 . S
C1902 C1900 1.419 . S
C1902 C1903 1.362 . S
C1903 H1893 0.930 . S
C1903 C1896 1.409 . S
C1903 C1902 1.362 . S
H1904 C1910 0.930 . S
H1905 C1913 0.930 . S
H1906 C1914 0.930 . S
H1907 C1915 0.930 . S
H1908 C1918 0.930 . S
H1909 C1919 0.930 . S
C1910 H1904 0.930 . S
C1910 C1911 1.355 . S
C1910 C1912 1.415 . S
C1911 C1910 1.355 . S
C1911 C1913 1.419 . S
C1912 C1910 1.415 . S
C1912 C1917 1.425 . S
C1912 C1919 1.409 . S
C1913 H1905 0.930 . S
C1913 C1911 1.419 . S
C1913 C1914 1.362 . S
C1914 H1906 0.930 . S
C1914 C1913 1.362 . S
C1914 C1917 1.409 . S
C1915 H1907 0.930 . S
C1915 C1916 1.355 . S
C1915 C1917 1.415 . S
C1916 C1915 1.355 . S
C1916 C1918 1.419 . S
C1917 C1912 1.425 . S
C1917 C1914 1.409 . S
C1917 C1915 1.415 . S
C1918 H1908 0.930 . S
C1918 C1916 1.419 . S
C1918 C1919 1.362 . S
C1919 H1909 0.930 . S
C1919 C1912 1.409 . S
C1919 C1918 1.362 . S
H1920 C1926 0.930 . S
H1921 C1929 0.930 . S
H1922 C1930 0.930 . S
H1923 C1931 0.930 . S
H1924 C1934 0.930 . S
H1925 C1935 0.930 . S
C1926 H1920 0.930 . S
C1926 C1927 1.355 . S
C1926 C1928 1.415 . S
C1927 C1926 1.355 . S
C1927 C1929 1.419 . S
C1928 C1926 1.415 . S
C1928 C1933 1.425 . S
C1928 C1935 1.409 . S
C1929 H1921 0.930 . S
C1929 C1927 1.419 . S
C1929 C1930 1.362 . S
C1930 H1922 0.930 . S
C1930 C1929 1.362 . S
C1930 C1933 1.409 . S
C1931 H1923 0.930 . S
C1931 C1932 1.355 . S
C1931 C1933 1.415 . S
C1932 C1931 1.355 . S
C1932 C1934 1.419 . S
C1933 C1928 1.425 . S
C1933 C1930 1.409 . S
C1933 C1931 1.415 . S
C1934 H1924 0.930 . S
C1934 C1932 1.419 . S
C1934 C1935 1.362 . S
C1935 H1925 0.930 . S
C1935 C1928 1.409 . S
C1935 C1934 1.362 . S
H1936 C1942 0.930 . S
H1937 C1945 0.930 . S
H1938 C1946 0.930 . S
H1939 C1947 0.930 . S
H1940 C1950 0.930 . S
H1941 C1951 0.930 . S
C1942 H1936 0.930 . S
C1942 C1943 1.355 . S
C1942 C1944 1.415 . S
C1943 C1942 1.355 . S
C1943 C1945 1.419 . S
C1944 C1942 1.415 . S
C1944 C1949 1.425 . S
C1944 C1951 1.409 . S
C1945 H1937 0.930 . S
C1945 C1943 1.419 . S
C1945 C1946 1.362 . S
C1946 H1938 0.930 . S
C1946 C1945 1.362 . S
C1946 C1949 1.409 . S
C1947 H1939 0.930 . S
C1947 C1948 1.355 . S
C1947 C1949 1.415 . S
C1948 C1947 1.355 . S
C1948 C1950 1.419 . S
C1949 C1944 1.425 . S
C1949 C1946 1.409 . S
C1949 C1947 1.415 . S
C1950 H1940 0.930 . S
C1950 C1948 1.419 . S
C1950 C1951 1.362 . S
C1951 H1941 0.930 . S
C1951 C1944 1.409 . S
C1951 C1950 1.362 . S
H1952 C1958 0.930 . S
H1953 C1961 0.930 . S
H1954 C1962 0.930 . S
H1955 C1963 0.930 1_565 S
H1956 C1966 0.930 . S
H1957 C1967 0.930 . S
C1958 H1952 0.930 . S
C1958 C1959 1.355 . S
C1958 C1960 1.415 . S
C1959 C1958 1.355 . S
C1959 C1961 1.419 . S
C1960 C1958 1.415 . S
C1960 C1965 1.425 . S
C1960 C1967 1.409 . S
C1961 H1953 0.930 . S
C1961 C1959 1.419 . S
C1961 C1962 1.362 . S
C1962 H1954 0.930 . S
C1962 C1961 1.362 . S
C1962 C1965 1.409 . S
C1963 H1955 0.930 1_545 S
C1963 C1964 1.355 . S
C1963 C1965 1.415 . S
C1964 C1963 1.355 . S
C1964 C1966 1.419 . S
C1965 C1960 1.425 . S
C1965 C1962 1.409 . S
C1965 C1963 1.415 . S
C1966 H1956 0.930 . S
C1966 C1964 1.419 . S
C1966 C1967 1.362 . S
C1967 H1957 0.930 . S
C1967 C1960 1.409 . S
C1967 C1966 1.362 . S
H1968 C1974 0.930 . S
H1969 C1977 0.930 . S
H1970 C1978 0.930 . S
H1971 C1979 0.930 . S
H1972 C1982 0.930 . S
H1973 C1983 0.930 . S
C1974 H1968 0.930 . S
C1974 C1975 1.355 . S
C1974 C1976 1.415 . S
C1975 C1974 1.355 . S
C1975 C1977 1.419 . S
C1976 C1974 1.415 . S
C1976 C1981 1.425 . S
C1976 C1983 1.409 . S
C1977 H1969 0.930 . S
C1977 C1975 1.419 . S
C1977 C1978 1.362 . S
C1978 H1970 0.930 . S
C1978 C1977 1.362 . S
C1978 C1981 1.409 . S
C1979 H1971 0.930 . S
C1979 C1980 1.355 . S
C1979 C1981 1.415 . S
C1980 C1979 1.355 . S
C1980 C1982 1.419 . S
C1981 C1976 1.425 . S
C1981 C1978 1.409 . S
C1981 C1979 1.415 . S
C1982 H1972 0.930 . S
C1982 C1980 1.419 . S
C1982 C1983 1.362 . S
C1983 H1973 0.930 . S
C1983 C1976 1.409 . S
C1983 C1982 1.362 . S
H1984 C1990 0.930 . S
H1985 C1993 0.930 . S
H1986 C1994 0.930 . S
H1987 C1995 0.930 . S
H1988 C1998 0.930 . S
H1989 C1999 0.930 . S
C1990 H1984 0.930 . S
C1990 C1991 1.355 . S
C1990 C1992 1.415 . S
C1991 C1990 1.355 . S
C1991 C1993 1.419 . S
C1992 C1990 1.415 . S
C1992 C1997 1.425 . S
C1992 C1999 1.409 . S
C1993 H1985 0.930 . S
C1993 C1991 1.419 . S
C1993 C1994 1.362 . S
C1994 H1986 0.930 . S
C1994 C1993 1.362 . S
C1994 C1997 1.409 . S
C1995 H1987 0.930 . S
C1995 C1996 1.355 . S
C1995 C1997 1.415 . S
C1996 C1995 1.355 . S
C1996 C1998 1.419 . S
C1997 C1992 1.425 . S
C1997 C1994 1.409 . S
C1997 C1995 1.415 . S
C1998 H1988 0.930 . S
C1998 C1996 1.419 . S
C1998 C1999 1.362 . S
C1999 H1989 0.930 . S
C1999 C1992 1.409 . S
C1999 C1998 1.362 . S
H2000 C2006 0.930 . S
H2001 C2009 0.930 . S
H2002 C2010 0.930 . S
H2003 C2011 0.930 . S
H2004 C2014 0.930 . S
H2005 C2015 0.930 . S
C2006 H2000 0.930 . S
C2006 C2007 1.355 . S
C2006 C2008 1.415 . S
C2007 C2006 1.355 . S
C2007 C2009 1.419 . S
C2008 C2006 1.415 . S
C2008 C2013 1.425 . S
C2008 C2015 1.409 . S
C2009 H2001 0.930 . S
C2009 C2007 1.419 . S
C2009 C2010 1.362 . S
C2010 H2002 0.930 . S
C2010 C2009 1.362 . S
C2010 C2013 1.409 . S
C2011 H2003 0.930 . S
C2011 C2012 1.355 . S
C2011 C2013 1.415 . S
C2012 C2011 1.355 . S
C2012 C2014 1.419 . S
C2013 C2008 1.425 . S
C2013 C2010 1.409 . S
C2013 C2011 1.415 . S
C2014 H2004 0.930 . S
C2014 C2012 1.419 . S
C2014 C2015 1.362 . S
C2015 H2005 0.930 . S
C2015 C2008 1.409 . S
C2015 C2014 1.362 . S
H2016 C2022 0.930 1_655 S
H2017 C2025 0.930 . S
H2018 C2026 0.930 . S
H2019 C2027 0.930 . S
H2020 C2030 0.930 . S
H2021 C2031 0.930 . S
C2022 H2016 0.930 1_455 S
C2022 C2023 1.355 . S
C2022 C2024 1.415 . S
C2023 C2022 1.355 . S
C2023 C2025 1.419 . S
C2024 C2022 1.415 . S
C2024 C2029 1.425 . S
C2024 C2031 1.409 . S
C2025 H2017 0.930 . S
C2025 C2023 1.419 . S
C2025 C2026 1.362 . S
C2026 H2018 0.930 . S
C2026 C2025 1.362 . S
C2026 C2029 1.409 . S
C2027 H2019 0.930 . S
C2027 C2028 1.355 . S
C2027 C2029 1.415 . S
C2028 C2027 1.355 . S
C2028 C2030 1.419 . S
C2029 C2024 1.425 . S
C2029 C2026 1.409 . S
C2029 C2027 1.415 . S
C2030 H2020 0.930 . S
C2030 C2028 1.419 . S
C2030 C2031 1.362 . S
C2031 H2021 0.930 . S
C2031 C2024 1.409 . S
C2031 C2030 1.362 . S
H2032 C2038 0.930 . S
H2033 C2041 0.930 . S
H2034 C2042 0.930 . S
H2035 C2043 0.930 . S
H2036 C2046 0.930 . S
H2037 C2047 0.930 . S
C2038 H2032 0.930 . S
C2038 C2039 1.355 . S
C2038 C2040 1.415 . S
C2039 C2038 1.355 . S
C2039 C2041 1.419 . S
C2040 C2038 1.415 . S
C2040 C2045 1.425 . S
C2040 C2047 1.409 . S
C2041 H2033 0.930 . S
C2041 C2039 1.419 . S
C2041 C2042 1.362 . S
C2042 H2034 0.930 . S
C2042 C2041 1.362 . S
C2042 C2045 1.409 . S
C2043 H2035 0.930 . S
C2043 C2044 1.355 . S
C2043 C2045 1.415 . S
C2044 C2043 1.355 . S
C2044 C2046 1.419 . S
C2045 C2040 1.425 . S
C2045 C2042 1.409 . S
C2045 C2043 1.415 . S
C2046 H2036 0.930 . S
C2046 C2044 1.419 . S
C2046 C2047 1.362 . S
C2047 H2037 0.930 . S
C2047 C2040 1.409 . S
C2047 C2046 1.362 . S
H2048 C2054 0.930 . S
H2049 C2057 0.930 . S
H2050 C2058 0.930 . S
H2051 C2059 0.930 . S
H2052 C2062 0.930 . S
H2053 C2063 0.930 . S
C2054 H2048 0.930 . S
C2054 C2055 1.355 . S
C2054 C2056 1.415 . S
C2055 C2054 1.355 . S
C2055 C2057 1.419 . S
C2056 C2054 1.415 . S
C2056 C2061 1.425 . S
C2056 C2063 1.409 . S
C2057 H2049 0.930 . S
C2057 C2055 1.419 . S
C2057 C2058 1.362 . S
C2058 H2050 0.930 . S
C2058 C2057 1.362 . S
C2058 C2061 1.409 . S
C2059 H2051 0.930 . S
C2059 C2060 1.355 . S
C2059 C2061 1.415 . S
C2060 C2059 1.355 . S
C2060 C2062 1.419 . S
C2061 C2056 1.425 . S
C2061 C2058 1.409 . S
C2061 C2059 1.415 . S
C2062 H2052 0.930 . S
C2062 C2060 1.419 . S
C2062 C2063 1.362 . S
C2063 H2053 0.930 . S
C2063 C2056 1.409 . S
C2063 C2062 1.362 . S
H2064 C2070 0.930 . S
H2065 C2073 0.930 . S
H2066 C2074 0.930 . S
H2067 C2075 0.930 . S
H2068 C2078 0.930 . S
H2069 C2079 0.930 . S
C2070 H2064 0.930 . S
C2070 C2071 1.355 . S
C2070 C2072 1.415 . S
C2071 C2070 1.355 . S
C2071 C2073 1.419 . S
C2072 C2070 1.415 . S
C2072 C2077 1.425 . S
C2072 C2079 1.409 . S
C2073 H2065 0.930 . S
C2073 C2071 1.419 . S
C2073 C2074 1.362 . S
C2074 H2066 0.930 . S
C2074 C2073 1.362 . S
C2074 C2077 1.409 . S
C2075 H2067 0.930 . S
C2075 C2076 1.355 . S
C2075 C2077 1.415 . S
C2076 C2075 1.355 . S
C2076 C2078 1.419 . S
C2077 C2072 1.425 . S
C2077 C2074 1.409 . S
C2077 C2075 1.415 . S
C2078 H2068 0.930 . S
C2078 C2076 1.419 . S
C2078 C2079 1.362 . S
C2079 H2069 0.930 . S
C2079 C2072 1.409 . S
C2079 C2078 1.362 . S
H2080 C2086 0.930 . S
H2081 C2089 0.930 . S
H2082 C2090 0.930 . S
H2083 C2091 0.930 . S
H2084 C2094 0.930 . S
H2085 C2095 0.930 . S
C2086 H2080 0.930 . S
C2086 C2087 1.355 . S
C2086 C2088 1.415 . S
C2087 C2086 1.355 . S
C2087 C2089 1.419 . S
C2088 C2086 1.415 . S
C2088 C2093 1.425 . S
C2088 C2095 1.409 . S
C2089 H2081 0.930 . S
C2089 C2087 1.419 . S
C2089 C2090 1.362 . S
C2090 H2082 0.930 . S
C2090 C2089 1.362 . S
C2090 C2093 1.409 . S
C2091 H2083 0.930 . S
C2091 C2092 1.355 . S
C2091 C2093 1.415 . S
C2092 C2091 1.355 . S
C2092 C2094 1.419 . S
C2093 C2088 1.425 . S
C2093 C2090 1.409 . S
C2093 C2091 1.415 . S
C2094 H2084 0.930 . S
C2094 C2092 1.419 . S
C2094 C2095 1.362 . S
C2095 H2085 0.930 . S
C2095 C2088 1.409 . S
C2095 C2094 1.362 . S
H2096 C2102 0.930 . S
H2097 C2105 0.930 . S
H2098 C2106 0.930 . S
H2099 C2107 0.930 . S
H2100 C2110 0.930 . S
H2101 C2111 0.930 . S
C2102 H2096 0.930 . S
C2102 C2103 1.355 . S
C2102 C2104 1.415 . S
C2103 C2102 1.355 . S
C2103 C2105 1.419 . S
C2104 C2102 1.415 . S
C2104 C2109 1.425 . S
C2104 C2111 1.409 . S
C2105 H2097 0.930 . S
C2105 C2103 1.419 . S
C2105 C2106 1.362 . S
C2106 H2098 0.930 . S
C2106 C2105 1.362 . S
C2106 C2109 1.409 . S
C2107 H2099 0.930 . S
C2107 C2108 1.355 . S
C2107 C2109 1.415 . S
C2108 C2107 1.355 . S
C2108 C2110 1.419 . S
C2109 C2104 1.425 . S
C2109 C2106 1.409 . S
C2109 C2107 1.415 . S
C2110 H2100 0.930 . S
C2110 C2108 1.419 . S
C2110 C2111 1.362 . S
C2111 H2101 0.930 . S
C2111 C2104 1.409 . S
C2111 C2110 1.362 . S
H2112 C2118 0.930 . S
H2113 C2121 0.930 . S
H2114 C2122 0.930 . S
H2115 C2123 0.930 . S
H2116 C2126 0.930 . S
H2117 C2127 0.930 . S
C2118 H2112 0.930 . S
C2118 C2119 1.355 . S
C2118 C2120 1.415 . S
C2119 C2118 1.355 . S
C2119 C2121 1.419 . S
C2120 C2118 1.415 . S
C2120 C2125 1.425 . S
C2120 C2127 1.409 . S
C2121 H2113 0.930 . S
C2121 C2119 1.419 . S
C2121 C2122 1.362 . S
C2122 H2114 0.930 . S
C2122 C2121 1.362 . S
C2122 C2125 1.409 . S
C2123 H2115 0.930 . S
C2123 C2124 1.355 . S
C2123 C2125 1.415 . S
C2124 C2123 1.355 . S
C2124 C2126 1.419 . S
C2125 C2120 1.425 . S
C2125 C2122 1.409 . S
C2125 C2123 1.415 . S
C2126 H2116 0.930 . S
C2126 C2124 1.419 . S
C2126 C2127 1.362 . S
C2127 H2117 0.930 . S
C2127 C2120 1.409 . S
C2127 C2126 1.362 . S
H2128 C2134 0.930 . S
H2129 C2137 0.930 . S
H2130 C2138 0.930 . S
H2131 C2139 0.930 . S
H2132 C2142 0.930 . S
H2133 C2143 0.930 . S
C2134 H2128 0.930 . S
C2134 C2135 1.355 . S
C2134 C2136 1.415 . S
C2135 C2134 1.355 . S
C2135 C2137 1.419 . S
C2136 C2134 1.415 . S
C2136 C2141 1.425 . S
C2136 C2143 1.409 . S
C2137 H2129 0.930 . S
C2137 C2135 1.419 . S
C2137 C2138 1.362 . S
C2138 H2130 0.930 . S
C2138 C2137 1.362 . S
C2138 C2141 1.409 . S
C2139 H2131 0.930 . S
C2139 C2140 1.355 . S
C2139 C2141 1.415 . S
C2140 C2139 1.355 . S
C2140 C2142 1.419 . S
C2141 C2136 1.425 . S
C2141 C2138 1.409 . S
C2141 C2139 1.415 . S
C2142 H2132 0.930 . S
C2142 C2140 1.419 . S
C2142 C2143 1.362 . S
C2143 H2133 0.930 . S
C2143 C2136 1.409 . S
C2143 C2142 1.362 . S
H2144 C2150 0.930 . S
H2145 C2153 0.930 . S
H2146 C2154 0.930 . S
H2147 C2155 0.930 . S
H2148 C2158 0.930 . S
H2149 C2159 0.930 . S
C2150 H2144 0.930 . S
C2150 C2151 1.355 . S
C2150 C2152 1.415 . S
C2151 C2150 1.355 . S
C2151 C2153 1.419 . S
C2152 C2150 1.415 . S
C2152 C2157 1.425 . S
C2152 C2159 1.409 . S
C2153 H2145 0.930 . S
C2153 C2151 1.419 . S
C2153 C2154 1.362 . S
C2154 H2146 0.930 . S
C2154 C2153 1.362 . S
C2154 C2157 1.409 . S
C2155 H2147 0.930 . S
C2155 C2156 1.355 . S
C2155 C2157 1.415 . S
C2156 C2155 1.355 . S
C2156 C2158 1.419 . S
C2157 C2152 1.425 . S
C2157 C2154 1.409 . S
C2157 C2155 1.415 . S
C2158 H2148 0.930 . S
C2158 C2156 1.419 . S
C2158 C2159 1.362 . S
C2159 H2149 0.930 . S
C2159 C2152 1.409 . S
C2159 C2158 1.362 . S
H2160 C2166 0.930 . S
H2161 C2169 0.930 . S
H2162 C2170 0.930 . S
H2163 C2171 0.930 . S
H2164 C2174 0.930 . S
H2165 C2175 0.930 . S
C2166 H2160 0.930 . S
C2166 C2167 1.355 . S
C2166 C2168 1.415 . S
C2167 C2166 1.355 . S
C2167 C2169 1.419 . S
C2168 C2166 1.415 . S
C2168 C2173 1.425 . S
C2168 C2175 1.409 . S
C2169 H2161 0.930 . S
C2169 C2167 1.419 . S
C2169 C2170 1.362 . S
C2170 H2162 0.930 . S
C2170 C2169 1.362 . S
C2170 C2173 1.409 . S
C2171 H2163 0.930 . S
C2171 C2172 1.355 . S
C2171 C2173 1.415 . S
C2172 C2171 1.355 . S
C2172 C2174 1.419 . S
C2173 C2168 1.425 . S
C2173 C2170 1.409 . S
C2173 C2171 1.415 . S
C2174 H2164 0.930 . S
C2174 C2172 1.419 . S
C2174 C2175 1.362 . S
C2175 H2165 0.930 . S
C2175 C2168 1.409 . S
C2175 C2174 1.362 . S
H2176 C2182 0.930 . S
H2177 C2185 0.930 . S
H2178 C2186 0.930 . S
H2179 C2187 0.930 . S
H2180 C2190 0.930 . S
H2181 C2191 0.930 . S
C2182 H2176 0.930 . S
C2182 C2183 1.355 . S
C2182 C2184 1.415 . S
C2183 C2182 1.355 . S
C2183 C2185 1.419 . S
C2184 C2182 1.415 . S
C2184 C2189 1.425 . S
C2184 C2191 1.409 . S
C2185 H2177 0.930 . S
C2185 C2183 1.419 . S
C2185 C2186 1.362 . S
C2186 H2178 0.930 . S
C2186 C2185 1.362 . S
C2186 C2189 1.409 . S
C2187 H2179 0.930 . S
C2187 C2188 1.355 . S
C2187 C2189 1.415 . S
C2188 C2187 1.355 . S
C2188 C2190 1.419 . S
C2189 C2184 1.425 . S
C2189 C2186 1.409 . S
C2189 C2187 1.415 . S
C2190 H2180 0.930 . S
C2190 C2188 1.419 . S
C2190 C2191 1.362 . S
C2191 H2181 0.930 . S
C2191 C2184 1.409 . S
C2191 C2190 1.362 . S
H2192 C2198 0.930 1_565 S
H2193 C2201 0.930 . S
H2194 C2202 0.930 . S
H2195 C2203 0.930 . S
H2196 C2206 0.930 . S
H2197 C2207 0.930 . S
C2198 H2192 0.930 1_545 S
C2198 C2199 1.355 . S
C2198 C2200 1.415 . S
C2199 C2198 1.355 . S
C2199 C2201 1.419 . S
C2200 C2198 1.415 . S
C2200 C2205 1.425 . S
C2200 C2207 1.409 . S
C2201 H2193 0.930 . S
C2201 C2199 1.419 . S
C2201 C2202 1.362 . S
C2202 H2194 0.930 . S
C2202 C2201 1.362 . S
C2202 C2205 1.409 . S
C2203 H2195 0.930 . S
C2203 C2204 1.355 . S
C2203 C2205 1.415 . S
C2204 C2203 1.355 . S
C2204 C2206 1.419 . S
C2205 C2200 1.425 . S
C2205 C2202 1.409 . S
C2205 C2203 1.415 . S
C2206 H2196 0.930 . S
C2206 C2204 1.419 . S
C2206 C2207 1.362 . S
C2207 H2197 0.930 . S
C2207 C2200 1.409 . S
C2207 C2206 1.362 . S
H2208 C2214 0.930 . S
H2209 C2217 0.930 . S
H2210 C2218 0.930 . S
H2211 C2219 0.930 . S
H2212 C2222 0.930 . S
H2213 C2223 0.930 . S
C2214 H2208 0.930 . S
C2214 C2215 1.355 . S
C2214 C2216 1.415 . S
C2215 C2214 1.355 . S
C2215 C2217 1.419 . S
C2216 C2214 1.415 . S
C2216 C2221 1.425 . S
C2216 C2223 1.409 . S
C2217 H2209 0.930 . S
C2217 C2215 1.419 . S
C2217 C2218 1.362 . S
C2218 H2210 0.930 . S
C2218 C2217 1.362 . S
C2218 C2221 1.409 . S
C2219 H2211 0.930 . S
C2219 C2220 1.355 . S
C2219 C2221 1.415 . S
C2220 C2219 1.355 . S
C2220 C2222 1.419 . S
C2221 C2216 1.425 . S
C2221 C2218 1.409 . S
C2221 C2219 1.415 . S
C2222 H2212 0.930 . S
C2222 C2220 1.419 . S
C2222 C2223 1.362 . S
C2223 H2213 0.930 . S
C2223 C2216 1.409 . S
C2223 C2222 1.362 . S
H2224 C2230 0.930 . S
H2225 C2233 0.930 . S
H2226 C2234 0.930 . S
H2227 C2235 0.930 . S
H2228 C2238 0.930 . S
H2229 C2239 0.930 . S
C2230 H2224 0.930 . S
C2230 C2231 1.355 . S
C2230 C2232 1.415 . S
C2231 C2230 1.355 . S
C2231 C2233 1.419 . S
C2232 C2230 1.415 . S
C2232 C2237 1.425 . S
C2232 C2239 1.409 . S
C2233 H2225 0.930 . S
C2233 C2231 1.419 . S
C2233 C2234 1.362 . S
C2234 H2226 0.930 . S
C2234 C2233 1.362 . S
C2234 C2237 1.409 . S
C2235 H2227 0.930 . S
C2235 C2236 1.355 . S
C2235 C2237 1.415 . S
C2236 C2235 1.355 . S
C2236 C2238 1.419 . S
C2237 C2232 1.425 . S
C2237 C2234 1.409 . S
C2237 C2235 1.415 . S
C2238 H2228 0.930 . S
C2238 C2236 1.419 . S
C2238 C2239 1.362 . S
C2239 H2229 0.930 . S
C2239 C2232 1.409 . S
C2239 C2238 1.362 . S
H2240 C2246 0.930 . S
H2241 C2249 0.930 . S
H2242 C2250 0.930 . S
H2243 C2251 0.930 . S
H2244 C2254 0.930 . S
H2245 C2255 0.930 . S
C2246 H2240 0.930 . S
C2246 C2247 1.355 . S
C2246 C2248 1.415 . S
C2247 C2246 1.355 . S
C2247 C2249 1.419 . S
C2248 C2246 1.415 . S
C2248 C2253 1.425 . S
C2248 C2255 1.409 . S
C2249 H2241 0.930 . S
C2249 C2247 1.419 . S
C2249 C2250 1.362 . S
C2250 H2242 0.930 . S
C2250 C2249 1.362 . S
C2250 C2253 1.409 . S
C2251 H2243 0.930 . S
C2251 C2252 1.355 . S
C2251 C2253 1.415 . S
C2252 C2251 1.355 . S
C2252 C2254 1.419 . S
C2253 C2248 1.425 . S
C2253 C2250 1.409 . S
C2253 C2251 1.415 . S
C2254 H2244 0.930 . S
C2254 C2252 1.419 . S
C2254 C2255 1.362 . S
C2255 H2245 0.930 . S
C2255 C2248 1.409 . S
C2255 C2254 1.362 . S
H2256 C2262 0.930 . S
H2257 C2265 0.930 . S
H2258 C2266 0.930 . S
H2259 C2267 0.930 . S
H2260 C2270 0.930 . S
H2261 C2271 0.930 . S
C2262 H2256 0.930 . S
C2262 C2263 1.355 . S
C2262 C2264 1.415 . S
C2263 C2262 1.355 . S
C2263 C2265 1.419 . S
C2264 C2262 1.415 . S
C2264 C2269 1.425 . S
C2264 C2271 1.409 . S
C2265 H2257 0.930 . S
C2265 C2263 1.419 . S
C2265 C2266 1.362 . S
C2266 H2258 0.930 . S
C2266 C2265 1.362 . S
C2266 C2269 1.409 . S
C2267 H2259 0.930 . S
C2267 C2268 1.355 . S
C2267 C2269 1.415 . S
C2268 C2267 1.355 . S
C2268 C2270 1.419 . S
C2269 C2264 1.425 . S
C2269 C2266 1.409 . S
C2269 C2267 1.415 . S
C2270 H2260 0.930 . S
C2270 C2268 1.419 . S
C2270 C2271 1.362 . S
C2271 H2261 0.930 . S
C2271 C2264 1.409 . S
C2271 C2270 1.362 . S
H2272 C2278 0.930 . S
H2273 C2281 0.930 . S
H2274 C2282 0.930 . S
H2275 C2283 0.930 . S
H2276 C2286 0.930 1_554 S
H2277 C2287 0.930 . S
C2278 H2272 0.930 . S
C2278 C2279 1.355 . S
C2278 C2280 1.415 . S
C2279 C2278 1.355 . S
C2279 C2281 1.419 . S
C2280 C2278 1.415 . S
C2280 C2285 1.425 . S
C2280 C2287 1.409 . S
C2281 H2273 0.930 . S
C2281 C2279 1.419 . S
C2281 C2282 1.362 . S
C2282 H2274 0.930 . S
C2282 C2281 1.362 . S
C2282 C2285 1.409 . S
C2283 H2275 0.930 . S
C2283 C2284 1.355 . S
C2283 C2285 1.415 . S
C2284 C2283 1.355 . S
C2284 C2286 1.419 . S
C2285 C2280 1.425 . S
C2285 C2282 1.409 . S
C2285 C2283 1.415 . S
C2286 H2276 0.930 1_556 S
C2286 C2284 1.419 . S
C2286 C2287 1.362 . S
C2287 H2277 0.930 . S
C2287 C2280 1.409 . S
C2287 C2286 1.362 . S
H2288 C2294 0.930 . S
H2289 C2297 0.930 . S
H2290 C2298 0.930 . S
H2291 C2299 0.965 . S
H2292 C2302 0.930 . S
H2293 C2303 0.930 . S
C2294 H2288 0.930 . S
C2294 C2295 1.355 . S
C2294 C2296 1.415 . S
C2295 C2294 1.355 . S
C2295 C2297 1.419 . S
C2296 C2294 1.415 . S
C2296 C2301 1.425 . S
C2296 C2303 1.409 . S
C2297 H2289 0.930 . S
C2297 C2295 1.419 . S
C2297 C2298 1.362 . S
C2298 H2290 0.930 . S
C2298 C2297 1.362 . S
C2298 C2301 1.409 . S
C2299 H2291 0.965 . S
C2299 C2300 1.355 . S
C2299 C2301 1.415 . S
C2300 C2299 1.355 . S
C2300 C2302 1.419 . S
C2301 C2296 1.425 . S
C2301 C2298 1.409 . S
C2301 C2299 1.415 . S
C2302 H2292 0.930 . S
C2302 C2300 1.419 . S
C2302 C2303 1.362 . S
C2303 H2293 0.930 . S
C2303 C2296 1.409 . S
C2303 C2302 1.362 . S
H2304 C2310 0.930 . S
H2305 C2313 0.930 . S
H2306 C2314 0.930 . S
H2307 C2315 0.930 . S
H2308 C2318 0.930 . S
H2309 C2319 0.930 . S
C2310 H2304 0.930 . S
C2310 C2311 1.355 . S
C2310 C2312 1.415 . S
C2311 C2310 1.355 . S
C2311 C2313 1.419 . S
C2312 C2310 1.415 . S
C2312 C2317 1.425 . S
C2312 C2319 1.409 . S
C2313 H2305 0.930 . S
C2313 C2311 1.419 . S
C2313 C2314 1.362 . S
C2314 H2306 0.930 . S
C2314 C2313 1.362 . S
C2314 C2317 1.409 . S
C2315 H2307 0.930 . S
C2315 C2316 1.355 . S
C2315 C2317 1.415 . S
C2316 C2315 1.355 . S
C2316 C2318 1.419 . S
C2317 C2312 1.425 . S
C2317 C2314 1.409 . S
C2317 C2315 1.415 . S
C2318 H2308 0.930 . S
C2318 C2316 1.419 . S
C2318 C2319 1.362 . S
C2319 H2309 0.930 . S
C2319 C2312 1.409 . S
C2319 C2318 1.362 . S
H2320 C2326 0.930 . S
H2321 C2329 0.930 . S
H2322 C2330 0.930 . S
H2323 C2331 0.930 1_545 S
H2324 C2334 0.930 . S
H2325 C2335 0.930 . S
C2326 H2320 0.930 . S
C2326 C2327 1.355 . S
C2326 C2328 1.415 . S
C2327 C2326 1.355 . S
C2327 C2329 1.419 . S
C2328 C2326 1.415 . S
C2328 C2333 1.425 . S
C2328 C2335 1.409 . S
C2329 H2321 0.930 . S
C2329 C2327 1.419 . S
C2329 C2330 1.362 . S
C2330 H2322 0.930 . S
C2330 C2329 1.362 . S
C2330 C2333 1.409 . S
C2331 H2323 0.930 1_565 S
C2331 C2332 1.355 . S
C2331 C2333 1.415 . S
C2332 C2331 1.355 . S
C2332 C2334 1.419 . S
C2333 C2328 1.425 . S
C2333 C2330 1.409 . S
C2333 C2331 1.415 . S
C2334 H2324 0.930 . S
C2334 C2332 1.419 . S
C2334 C2335 1.362 . S
C2335 H2325 0.930 . S
C2335 C2328 1.409 . S
C2335 C2334 1.362 . S
H2336 C2342 0.930 . S
H2337 C2345 0.930 . S
H2338 C2346 0.930 . S
H2339 C2347 0.930 . S
H2340 C2350 0.930 . S
H2341 C2351 0.930 . S
C2342 H2336 0.930 . S
C2342 C2343 1.355 . S
C2342 C2344 1.415 . S
C2343 C2342 1.355 . S
C2343 C2345 1.419 . S
C2344 C2342 1.415 . S
C2344 C2349 1.425 . S
C2344 C2351 1.409 . S
C2345 H2337 0.930 . S
C2345 C2343 1.419 . S
C2345 C2346 1.362 . S
C2346 H2338 0.930 . S
C2346 C2345 1.362 . S
C2346 C2349 1.409 . S
C2347 H2339 0.930 . S
C2347 C2348 1.355 . S
C2347 C2349 1.415 . S
C2348 C2347 1.355 . S
C2348 C2350 1.419 . S
C2349 C2344 1.425 . S
C2349 C2346 1.409 . S
C2349 C2347 1.415 . S
C2350 H2340 0.930 . S
C2350 C2348 1.419 . S
C2350 C2351 1.362 . S
C2351 H2341 0.930 . S
C2351 C2344 1.409 . S
C2351 C2350 1.362 . S
H2352 C2358 0.930 1_655 S
H2353 C2361 0.930 . S
H2354 C2362 0.930 . S
H2355 C2363 0.930 . S
H2356 C2366 0.930 . S
H2357 C2367 0.930 . S
C2358 H2352 0.930 1_455 S
C2358 C2359 1.355 . S
C2358 C2360 1.415 . S
C2359 C2358 1.355 . S
C2359 C2361 1.419 . S
C2360 C2358 1.415 . S
C2360 C2365 1.425 1_545 S
C2360 C2367 1.409 1_445 S
C2361 H2353 0.930 . S
C2361 C2359 1.419 . S
C2361 C2362 1.362 . S
C2362 H2354 0.930 . S
C2362 C2361 1.362 . S
C2362 C2365 1.409 1_545 S
C2363 H2355 0.930 . S
C2363 C2364 1.355 . S
C2363 C2365 1.415 . S
C2364 C2363 1.355 . S
C2364 C2366 1.419 1_455 S
C2365 C2360 1.425 1_565 S
C2365 C2362 1.409 1_565 S
C2365 C2363 1.415 . S
C2366 H2356 0.930 . S
C2366 C2364 1.419 1_655 S
C2366 C2367 1.362 . S
C2367 H2357 0.930 . S
C2367 C2360 1.409 1_665 S
C2367 C2366 1.362 . S
H2368 C2374 0.930 . S
H2369 C2377 0.930 . S
H2370 C2378 0.930 . S
H2371 C2379 0.930 . S
H2372 C2382 0.930 . S
H2373 C2383 0.930 . S
C2374 H2368 0.930 . S
C2374 C2375 1.355 1_554 S
C2374 C2376 1.415 . S
C2375 C2374 1.355 1_556 S
C2375 C2377 1.419 . S
C2376 C2374 1.415 . S
C2376 C2381 1.425 1_554 S
C2376 C2383 1.409 . S
C2377 H2369 0.930 . S
C2377 C2375 1.419 . S
C2377 C2378 1.362 . S
C2378 H2370 0.930 . S
C2378 C2377 1.362 . S
C2378 C2381 1.409 . S
C2379 H2371 0.930 . S
C2379 C2380 1.355 1_556 S
C2379 C2381 1.415 . S
C2380 C2379 1.355 1_554 S
C2380 C2382 1.419 . S
C2381 C2376 1.425 1_556 S
C2381 C2378 1.409 . S
C2381 C2379 1.415 . S
C2382 H2372 0.930 . S
C2382 C2380 1.419 . S
C2382 C2383 1.362 . S
C2383 H2373 0.930 . S
C2383 C2376 1.409 . S
C2383 C2382 1.362 . S
H2384 C2390 0.930 . S
H2385 C2393 0.930 . S
H2386 C2394 0.930 . S
H2387 C2395 0.930 . S
H2388 C2398 0.930 . S
H2389 C2399 0.930 . S
C2390 H2384 0.930 . S
C2390 C2391 1.355 1_455 S
C2390 C2392 1.411 1_455 S
C2391 C2390 1.355 1_655 S
C2391 C2393 1.419 . S
C2392 C2390 1.411 1_655 S
C2392 C2397 1.449 . S
C2392 C2399 1.390 1_655 S
C2393 H2385 0.930 . S
C2393 C2391 1.419 . S
C2393 C2394 1.362 . S
C2394 H2386 0.930 . S
C2394 C2393 1.362 . S
C2394 C2397 1.409 . S
C2395 H2387 0.930 . S
C2395 C2396 1.355 . S
C2395 C2397 1.415 . S
C2396 C2395 1.355 . S
C2396 C2398 1.419 1_655 S
C2397 C2392 1.449 . S
C2397 C2394 1.409 . S
C2397 C2395 1.415 . S
C2398 H2388 0.930 . S
C2398 C2396 1.419 1_455 S
C2398 C2399 1.362 . S
C2399 H2389 0.930 . S
C2399 C2392 1.390 1_455 S
C2399 C2398 1.362 . S
H2400 C2406 0.930 . S
H2401 C2409 0.930 . S
H2402 C2410 0.930 . S
H2403 C2411 0.930 . S
H2404 C2414 0.930 . S
H2405 C2415 0.930 . S
C2406 H2400 0.930 . S
C2406 C2407 1.355 1_556 S
C2406 C2408 1.415 . S
C2407 C2406 1.355 1_554 S
C2407 C2409 1.419 . S
C2408 C2406 1.415 . S
C2408 C2413 1.425 1_556 S
C2408 C2415 1.409 . S
C2409 H2401 0.930 . S
C2409 C2407 1.419 . S
C2409 C2410 1.362 . S
C2410 H2402 0.930 . S
C2410 C2409 1.362 . S
C2410 C2413 1.409 . S
C2411 H2403 0.930 . S
C2411 C2412 1.355 1_554 S
C2411 C2413 1.415 . S
C2412 C2411 1.355 1_556 S
C2412 C2414 1.419 . S
C2413 C2408 1.425 1_554 S
C2413 C2410 1.409 . S
C2413 C2411 1.415 . S
C2414 H2404 0.930 . S
C2414 C2412 1.419 . S
C2414 C2415 1.362 . S
C2415 H2405 0.930 . S
C2415 C2408 1.409 . S
C2415 C2414 1.362 . S
H2416 C2422 0.930 . S
H2417 C2425 0.930 . S
H2418 C2426 0.930 . S
H2419 C2427 0.930 . S
H2420 C2430 0.930 . S
H2421 C2431 0.930 . S
C2422 H2416 0.930 . S
C2422 C2423 1.355 . S
C2422 C2424 1.415 . S
C2423 C2422 1.355 . S
C2423 C2425 1.419 1_545 S
C2424 C2422 1.415 . S
C2424 C2429 1.464 1_556 S
C2424 C2431 1.409 1_556 S
C2425 H2417 0.930 . S
C2425 C2423 1.419 1_565 S
C2425 C2426 1.362 . S
C2426 H2418 0.930 . S
C2426 C2425 1.362 . S
C2426 C2429 1.379 1_566 S
C2427 H2419 0.930 . S
C2427 C2428 1.355 1_565 S
C2427 C2429 1.409 1_565 S
C2428 C2427 1.355 1_545 S
C2428 C2430 1.419 . S
C2429 C2424 1.464 1_554 S
C2429 C2426 1.379 1_544 S
C2429 C2427 1.409 1_545 S
C2430 H2420 0.930 . S
C2430 C2428 1.419 . S
C2430 C2431 1.362 . S
C2431 H2421 0.930 . S
C2431 C2424 1.409 1_554 S
C2431 C2430 1.362 . S
H2432 C2438 0.930 . S
H2433 C2441 0.930 . S
H2434 C2442 0.930 . S
H2435 C2443 0.930 . S
H2436 C2446 0.930 . S
H2437 C2447 0.930 . S
C2438 H2432 0.930 . S
C2438 C2439 1.355 . S
C2438 C2440 1.415 . S
C2439 C2438 1.355 . S
C2439 C2441 1.419 . S
C2440 C2438 1.415 . S
C2440 C2445 1.425 . S
C2440 C2447 1.409 . S
C2441 H2433 0.930 . S
C2441 C2439 1.419 . S
C2441 C2442 1.362 . S
C2442 H2434 0.930 . S
C2442 C2441 1.362 . S
C2442 C2445 1.409 . S
C2443 H2435 0.930 . S
C2443 C2444 1.355 . S
C2443 C2445 1.415 . S
C2444 C2443 1.355 . S
C2444 C2446 1.419 . S
C2445 C2440 1.425 . S
C2445 C2442 1.409 . S
C2445 C2443 1.415 . S
C2446 H2436 0.930 . S
C2446 C2444 1.419 . S
C2446 C2447 1.362 . S
C2447 H2437 0.930 . S
C2447 C2440 1.409 . S
C2447 C2446 1.362 . S
H2448 C2454 0.930 . S
H2449 C2457 0.930 . S
H2450 C2458 0.930 1_554 S
H2451 C2459 0.930 . S
H2452 C2462 0.930 . S
H2453 C2463 0.930 1_556 S
C2454 H2448 0.930 . S
C2454 C2455 1.355 . S
C2454 C2456 1.415 . S
C2455 C2454 1.355 . S
C2455 C2457 1.419 . S
C2456 C2454 1.415 . S
C2456 C2461 1.425 1_556 S
C2456 C2463 1.409 1_556 S
C2457 H2449 0.930 . S
C2457 C2455 1.419 . S
C2457 C2458 1.362 . S
C2458 H2450 0.930 1_556 S
C2458 C2457 1.362 . S
C2458 C2461 1.409 1_556 S
C2459 H2451 0.930 . S
C2459 C2460 1.355 . S
C2459 C2461 1.415 . S
C2460 C2459 1.355 . S
C2460 C2462 1.419 . S
C2461 C2456 1.425 1_554 S
C2461 C2458 1.409 1_554 S
C2461 C2459 1.415 . S
C2462 H2452 0.930 . S
C2462 C2460 1.419 . S
C2462 C2463 1.362 . S
C2463 H2453 0.930 1_554 S
C2463 C2456 1.409 1_554 S
C2463 C2462 1.362 . S
H2464 C2470 0.930 . S
H2465 C2473 0.930 . S
H2466 C2474 0.930 . S
H2467 C2475 0.930 . S
H2468 C2478 0.930 . S
H2469 C2479 0.930 . S
C2470 H2464 0.930 . S
C2470 C2471 1.355 . S
C2470 C2472 1.420 . S
C2471 C2470 1.355 . S
C2471 C2473 1.419 . S
C2472 C2470 1.420 . S
C2472 C2477 1.424 1_545 S
C2472 C2479 1.405 1_545 S
C2473 H2465 0.930 . S
C2473 C2471 1.419 . S
C2473 C2474 1.362 . S
C2474 H2466 0.930 . S
C2474 C2473 1.362 . S
C2474 C2477 1.403 1_545 S
C2475 H2467 0.930 . S
C2475 C2476 1.355 . S
C2475 C2477 1.422 . S
C2476 C2475 1.355 . S
C2476 C2478 1.419 . S
C2477 C2472 1.424 1_565 S
C2477 C2474 1.403 1_565 S
C2477 C2475 1.422 . S
C2478 H2468 0.930 . S
C2478 C2476 1.419 . S
C2478 C2479 1.362 . S
C2479 H2469 0.930 . S
C2479 C2472 1.405 1_565 S
C2479 C2478 1.362 . S
H2480 C2486 0.930 . S
H2481 C2489 0.930 . S
H2482 C2490 0.930 . S
H2483 C2491 0.930 . S
H2484 C2494 0.930 . S
H2485 C2495 0.930 . S
C2486 H2480 0.930 . S
C2486 C2487 1.355 . S
C2486 C2488 1.415 . S
C2487 C2486 1.355 . S
C2487 C2489 1.419 . S
C2488 C2486 1.415 . S
C2488 C2493 1.425 . S
C2488 C2495 1.409 . S
C2489 H2481 0.930 . S
C2489 C2487 1.419 . S
C2489 C2490 1.362 . S
C2490 H2482 0.930 . S
C2490 C2489 1.362 . S
C2490 C2493 1.409 . S
C2491 H2483 0.930 . S
C2491 C2492 1.355 . S
C2491 C2493 1.415 . S
C2492 C2491 1.355 . S
C2492 C2494 1.419 . S
C2493 C2488 1.425 . S
C2493 C2490 1.409 . S
C2493 C2491 1.415 . S
C2494 H2484 0.930 . S
C2494 C2492 1.419 . S
C2494 C2495 1.362 . S
C2495 H2485 0.930 . S
C2495 C2488 1.409 . S
C2495 C2494 1.362 . S
H2496 C2502 0.930 . S
H2497 C2505 0.930 . S
H2498 C2506 0.930 . S
H2499 C2507 0.930 . S
H2500 C2510 0.930 . S
H2501 C2511 0.930 . S
C2502 H2496 0.930 . S
C2502 C2503 1.355 . S
C2502 C2504 1.415 . S
C2503 C2502 1.355 . S
C2503 C2505 1.419 . S
C2504 C2502 1.415 . S
C2504 C2509 1.425 . S
C2504 C2511 1.409 . S
C2505 H2497 0.930 . S
C2505 C2503 1.419 . S
C2505 C2506 1.362 . S
C2506 H2498 0.930 . S
C2506 C2505 1.362 . S
C2506 C2509 1.409 . S
C2507 H2499 0.930 . S
C2507 C2508 1.355 . S
C2507 C2509 1.415 . S
C2508 C2507 1.355 . S
C2508 C2510 1.419 . S
C2509 C2504 1.425 . S
C2509 C2506 1.409 . S
C2509 C2507 1.415 . S
C2510 H2500 0.930 . S
C2510 C2508 1.419 . S
C2510 C2511 1.362 . S
C2511 H2501 0.930 . S
C2511 C2504 1.409 . S
C2511 C2510 1.362 . S
H2512 C2518 0.930 . S
H2513 C2521 0.930 . S
H2514 C2522 0.930 . S
H2515 C2523 0.930 . S
H2516 C2526 0.930 . S
H2517 C2527 0.930 . S
C2518 H2512 0.930 . S
C2518 C2519 1.355 . S
C2518 C2520 1.415 . S
C2519 C2518 1.355 . S
C2519 C2521 1.419 . S
C2520 C2518 1.415 . S
C2520 C2525 1.425 . S
C2520 C2527 1.409 . S
C2521 H2513 0.930 . S
C2521 C2519 1.419 . S
C2521 C2522 1.362 . S
C2522 H2514 0.930 . S
C2522 C2521 1.362 . S
C2522 C2525 1.409 . S
C2523 H2515 0.930 . S
C2523 C2524 1.355 . S
C2523 C2525 1.415 . S
C2524 C2523 1.355 . S
C2524 C2526 1.419 . S
C2525 C2520 1.425 . S
C2525 C2522 1.409 . S
C2525 C2523 1.415 . S
C2526 H2516 0.930 . S
C2526 C2524 1.419 . S
C2526 C2527 1.362 . S
C2527 H2517 0.930 . S
C2527 C2520 1.409 . S
C2527 C2526 1.362 . S
H2528 C2534 0.930 . S
H2529 C2537 0.930 . S
H2530 C2538 0.930 . S
H2531 C2539 0.930 . S
H2532 C2542 0.930 . S
H2533 C2543 0.930 . S
C2534 H2528 0.930 . S
C2534 C2535 1.355 . S
C2534 C2536 1.415 . S
C2535 C2534 1.355 . S
C2535 C2537 1.419 1_545 S
C2536 C2534 1.415 . S
C2536 C2541 1.425 1_545 S
C2536 C2543 1.409 . S
C2537 H2529 0.930 . S
C2537 C2535 1.419 1_565 S
C2537 C2538 1.362 . S
C2538 H2530 0.930 . S
C2538 C2537 1.362 . S
C2538 C2541 1.409 . S
C2539 H2531 0.930 . S
C2539 C2540 1.355 . S
C2539 C2541 1.415 . S
C2540 C2539 1.355 . S
C2540 C2542 1.419 1_565 S
C2541 C2536 1.425 1_565 S
C2541 C2538 1.409 . S
C2541 C2539 1.415 . S
C2542 H2532 0.930 . S
C2542 C2540 1.419 1_545 S
C2542 C2543 1.362 . S
C2543 H2533 0.930 . S
C2543 C2536 1.409 . S
C2543 C2542 1.362 . S
H2544 C2550 0.930 . S
H2545 C2553 0.930 . S
H2546 C2554 0.930 . S
H2547 C2555 0.930 . S
H2548 C2558 0.930 . S
H2549 C2559 0.930 . S
C2550 H2544 0.930 . S
C2550 C2551 1.355 . S
C2550 C2552 1.444 . S
C2551 C2550 1.355 . S
C2551 C2553 1.419 . S
C2552 C2550 1.444 . S
C2552 C2557 1.424 1_655 S
C2552 C2559 1.381 1_655 S
C2553 H2545 0.930 . S
C2553 C2551 1.419 . S
C2553 C2554 1.362 . S
C2554 H2546 0.930 . S
C2554 C2553 1.362 . S
C2554 C2557 1.389 1_655 S
C2555 H2547 0.930 . S
C2555 C2556 1.355 . S
C2555 C2557 1.436 . S
C2556 C2555 1.355 . S
C2556 C2558 1.419 . S
C2557 C2552 1.424 1_455 S
C2557 C2554 1.389 1_455 S
C2557 C2555 1.436 . S
C2558 H2548 0.930 . S
C2558 C2556 1.419 . S
C2558 C2559 1.362 . S
C2559 H2549 0.930 . S
C2559 C2552 1.381 1_455 S
C2559 C2558 1.362 . S
H2560 C2566 0.930 . S
H2561 C2569 0.930 . S
H2562 C2570 0.930 . S
H2563 C2571 0.930 . S
H2564 C2574 0.930 . S
H2565 C2575 0.930 . S
C2566 H2560 0.930 . S
C2566 C2567 1.355 . S
C2566 C2568 1.415 . S
C2567 C2566 1.355 . S
C2567 C2569 1.419 . S
C2568 C2566 1.415 . S
C2568 C2573 1.425 1_655 S
C2568 C2575 1.409 1_655 S
C2569 H2561 0.930 . S
C2569 C2567 1.419 . S
C2569 C2570 1.362 . S
C2570 H2562 0.930 . S
C2570 C2569 1.362 . S
C2570 C2573 1.409 1_655 S
C2571 H2563 0.930 . S
C2571 C2572 1.355 . S
C2571 C2573 1.415 . S
C2572 C2571 1.355 . S
C2572 C2574 1.419 . S
C2573 C2568 1.425 1_455 S
C2573 C2570 1.409 1_455 S
C2573 C2571 1.415 . S
C2574 H2564 0.930 . S
C2574 C2572 1.419 . S
C2574 C2575 1.362 . S
C2575 H2565 0.930 . S
C2575 C2568 1.409 1_455 S
C2575 C2574 1.362 . S
H2576 C2582 0.930 . S
H2577 C2585 0.930 . S
H2578 C2586 0.930 . S
H2579 C2587 0.930 . S
H2580 C2590 0.930 . S
H2581 C2591 0.930 . S
C2582 H2576 0.930 . S
C2582 C2583 1.355 . S
C2582 C2584 1.415 . S
C2583 C2582 1.355 . S
C2583 C2585 1.419 1_455 S
C2584 C2582 1.415 . S
C2584 C2589 1.425 1_455 S
C2584 C2591 1.409 . S
C2585 H2577 0.930 . S
C2585 C2583 1.419 1_655 S
C2585 C2586 1.362 . S
C2586 H2578 0.930 . S
C2586 C2585 1.362 . S
C2586 C2589 1.409 . S
C2587 H2579 0.930 . S
C2587 C2588 1.355 . S
C2587 C2589 1.415 . S
C2588 C2587 1.355 . S
C2588 C2590 1.419 1_655 S
C2589 C2584 1.425 1_655 S
C2589 C2586 1.409 . S
C2589 C2587 1.415 . S
C2590 H2580 0.930 . S
C2590 C2588 1.419 1_455 S
C2590 C2591 1.362 . S
C2591 H2581 0.930 . S
C2591 C2584 1.409 . S
C2591 C2590 1.362 . S
H2592 C2598 0.930 . S
H2593 C2601 0.930 . S
H2594 C2602 0.930 . S
H2595 C2603 0.930 . S
H2596 C2606 0.930 . S
H2597 C2607 0.930 . S
C2598 H2592 0.930 . S
C2598 C2599 1.355 . S
C2598 C2600 1.415 . S
C2599 C2598 1.355 . S
C2599 C2601 1.419 . S
C2600 C2598 1.415 . S
C2600 C2605 1.425 . S
C2600 C2607 1.409 . S
C2601 H2593 0.930 . S
C2601 C2599 1.419 . S
C2601 C2602 1.362 . S
C2602 H2594 0.930 . S
C2602 C2601 1.362 . S
C2602 C2605 1.409 . S
C2603 H2595 0.930 . S
C2603 C2604 1.355 . S
C2603 C2605 1.415 . S
C2604 C2603 1.355 . S
C2604 C2606 1.419 . S
C2605 C2600 1.425 . S
C2605 C2602 1.409 . S
C2605 C2603 1.415 . S
C2606 H2596 0.930 . S
C2606 C2604 1.419 . S
C2606 C2607 1.362 . S
C2607 H2597 0.930 . S
C2607 C2600 1.409 . S
C2607 C2606 1.362 . S
H2608 C2614 0.930 . S
H2609 C2617 0.930 . S
H2610 C2618 0.930 . S
H2611 C2619 0.930 . S
H2612 C2622 0.930 . S
H2613 C2623 0.930 . S
C2614 H2608 0.930 . S
C2614 C2615 1.355 . S
C2614 C2616 1.415 . S
C2615 C2614 1.355 . S
C2615 C2617 1.419 . S
C2616 C2614 1.415 . S
C2616 C2621 1.425 . S
C2616 C2623 1.409 . S
C2617 H2609 0.930 . S
C2617 C2615 1.419 . S
C2617 C2618 1.362 . S
C2618 H2610 0.930 . S
C2618 C2617 1.362 . S
C2618 C2621 1.409 . S
C2619 H2611 0.930 . S
C2619 C2620 1.355 . S
C2619 C2621 1.415 . S
C2620 C2619 1.355 . S
C2620 C2622 1.419 . S
C2621 C2616 1.425 . S
C2621 C2618 1.409 . S
C2621 C2619 1.415 . S
C2622 H2612 0.930 . S
C2622 C2620 1.419 . S
C2622 C2623 1.362 . S
C2623 H2613 0.930 . S
C2623 C2616 1.409 . S
C2623 C2622 1.362 . S
H2624 C2630 0.930 . S
H2625 C2633 0.930 . S
H2626 C2634 0.930 . S
H2627 C2635 0.930 . S
H2628 C2638 0.930 . S
H2629 C2639 0.930 . S
C2630 H2624 0.930 . S
C2630 C2631 1.355 1_455 S
C2630 C2632 1.415 . S
C2631 C2630 1.355 1_655 S
C2631 C2633 1.419 . S
C2632 C2630 1.415 . S
C2632 C2637 1.425 1_455 S
C2632 C2639 1.409 . S
C2633 H2625 0.930 . S
C2633 C2631 1.419 . S
C2633 C2634 1.362 . S
C2634 H2626 0.930 . S
C2634 C2633 1.362 . S
C2634 C2637 1.409 . S
C2635 H2627 0.930 . S
C2635 C2636 1.355 1_655 S
C2635 C2637 1.415 . S
C2636 C2635 1.355 1_455 S
C2636 C2638 1.419 . S
C2637 C2632 1.425 1_655 S
C2637 C2634 1.409 . S
C2637 C2635 1.415 . S
C2638 H2628 0.930 . S
C2638 C2636 1.419 . S
C2638 C2639 1.362 . S
C2639 H2629 0.930 . S
C2639 C2632 1.409 . S
C2639 C2638 1.362 . S
H2640 C2646 0.930 . S
H2641 C2649 0.930 . S
H2642 C2650 0.930 . S
H2643 C2651 0.930 . S
H2644 C2654 0.930 . S
H2645 C2655 0.930 . S
C2646 H2640 0.930 . S
C2646 C2647 1.355 . S
C2646 C2648 1.415 . S
C2647 C2646 1.355 . S
C2647 C2649 1.419 . S
C2648 C2646 1.415 . S
C2648 C2653 1.425 . S
C2648 C2655 1.409 . S
C2649 H2641 0.930 . S
C2649 C2647 1.419 . S
C2649 C2650 1.362 . S
C2650 H2642 0.930 . S
C2650 C2649 1.362 . S
C2650 C2653 1.409 . S
C2651 H2643 0.930 . S
C2651 C2652 1.355 . S
C2651 C2653 1.415 . S
C2652 C2651 1.355 . S
C2652 C2654 1.419 . S
C2653 C2648 1.425 . S
C2653 C2650 1.409 . S
C2653 C2651 1.415 . S
C2654 H2644 0.930 . S
C2654 C2652 1.419 . S
C2654 C2655 1.362 . S
C2655 H2645 0.930 . S
C2655 C2648 1.409 . S
C2655 C2654 1.362 . S
H2656 C2662 0.930 . S
H2657 C2665 0.930 . S
H2658 C2666 0.930 . S
H2659 C2667 0.930 . S
H2660 C2670 0.930 . S
H2661 C2671 0.930 . S
C2662 H2656 0.930 . S
C2662 C2663 1.355 . S
C2662 C2664 1.415 . S
C2663 C2662 1.355 . S
C2663 C2665 1.419 . S
C2664 C2662 1.415 . S
C2664 C2669 1.425 . S
C2664 C2671 1.409 . S
C2665 H2657 0.930 . S
C2665 C2663 1.419 . S
C2665 C2666 1.362 . S
C2666 H2658 0.930 . S
C2666 C2665 1.362 . S
C2666 C2669 1.409 . S
C2667 H2659 0.930 . S
C2667 C2668 1.355 . S
C2667 C2669 1.415 . S
C2668 C2667 1.355 . S
C2668 C2670 1.419 . S
C2669 C2664 1.425 . S
C2669 C2666 1.409 . S
C2669 C2667 1.415 . S
C2670 H2660 0.930 . S
C2670 C2668 1.419 . S
C2670 C2671 1.362 . S
C2671 H2661 0.930 . S
C2671 C2664 1.409 . S
C2671 C2670 1.362 . S
H2672 C2678 0.930 . S
H2673 C2681 0.930 . S
H2674 C2682 0.930 . S
H2675 C2683 0.930 . S
H2676 C2686 0.930 . S
H2677 C2687 0.930 . S
C2678 H2672 0.930 . S
C2678 C2679 1.355 . S
C2678 C2680 1.415 . S
C2679 C2678 1.355 . S
C2679 C2681 1.419 . S
C2680 C2678 1.415 . S
C2680 C2685 1.425 1_565 S
C2680 C2687 1.409 1_565 S
C2681 H2673 0.930 . S
C2681 C2679 1.419 . S
C2681 C2682 1.362 . S
C2682 H2674 0.930 . S
C2682 C2681 1.362 . S
C2682 C2685 1.409 1_565 S
C2683 H2675 0.930 . S
C2683 C2684 1.355 . S
C2683 C2685 1.415 . S
C2684 C2683 1.355 . S
C2684 C2686 1.419 . S
C2685 C2680 1.425 1_545 S
C2685 C2682 1.409 1_545 S
C2685 C2683 1.415 . S
C2686 H2676 0.930 . S
C2686 C2684 1.419 . S
C2686 C2687 1.362 . S
C2687 H2677 0.930 . S
C2687 C2680 1.409 1_545 S
C2687 C2686 1.362 . S
H2688 C2694 0.930 . S
H2689 C2697 0.930 . S
H2690 C2698 0.930 . S
H2691 C2699 0.930 . S
H2692 C2702 0.930 . S
H2693 C2703 0.930 . S
C2694 H2688 0.930 . S
C2694 C2695 1.355 . S
C2694 C2696 1.415 . S
C2695 C2694 1.355 . S
C2695 C2697 1.419 . S
C2696 C2694 1.415 . S
C2696 C2701 1.425 . S
C2696 C2703 1.409 . S
C2697 H2689 0.930 . S
C2697 C2695 1.419 . S
C2697 C2698 1.362 . S
C2698 H2690 0.930 . S
C2698 C2697 1.362 . S
C2698 C2701 1.409 . S
C2699 H2691 0.930 . S
C2699 C2700 1.355 . S
C2699 C2701 1.415 . S
C2700 C2699 1.355 . S
C2700 C2702 1.419 . S
C2701 C2696 1.425 . S
C2701 C2698 1.409 . S
C2701 C2699 1.415 . S
C2702 H2692 0.930 . S
C2702 C2700 1.419 . S
C2702 C2703 1.362 . S
C2703 H2693 0.930 . S
C2703 C2696 1.409 . S
C2703 C2702 1.362 . S
H2704 C2710 0.930 . S
H2705 C2713 0.930 . S
H2706 C2714 0.930 . S
H2707 C2715 0.930 . S
H2708 C2718 0.930 . S
H2709 C2719 0.930 . S
C2710 H2704 0.930 . S
C2710 C2711 1.355 . S
C2710 C2712 1.415 . S
C2711 C2710 1.355 . S
C2711 C2713 1.419 . S
C2712 C2710 1.415 . S
C2712 C2717 1.425 . S
C2712 C2719 1.409 . S
C2713 H2705 0.930 . S
C2713 C2711 1.419 . S
C2713 C2714 1.362 . S
C2714 H2706 0.930 . S
C2714 C2713 1.362 . S
C2714 C2717 1.409 . S
C2715 H2707 0.930 . S
C2715 C2716 1.355 . S
C2715 C2717 1.415 . S
C2716 C2715 1.355 . S
C2716 C2718 1.419 . S
C2717 C2712 1.425 . S
C2717 C2714 1.409 . S
C2717 C2715 1.415 . S
C2718 H2708 0.930 . S
C2718 C2716 1.419 . S
C2718 C2719 1.362 . S
C2719 H2709 0.930 . S
C2719 C2712 1.409 . S
C2719 C2718 1.362 . S
H2720 C2726 0.930 . S
H2721 C2729 0.930 . S
H2722 C2730 0.930 . S
H2723 C2731 0.930 . S
H2724 C2734 0.930 . S
H2725 C2735 0.930 . S
C2726 H2720 0.930 . S
C2726 C2727 1.355 . S
C2726 C2728 1.415 . S
C2727 C2726 1.355 . S
C2727 C2729 1.419 . S
C2728 C2726 1.415 . S
C2728 C2733 1.425 . S
C2728 C2735 1.409 . S
C2729 H2721 0.930 . S
C2729 C2727 1.419 . S
C2729 C2730 1.362 . S
C2730 H2722 0.930 . S
C2730 C2729 1.362 . S
C2730 C2733 1.409 . S
C2731 H2723 0.930 . S
C2731 C2732 1.355 . S
C2731 C2733 1.415 . S
C2732 C2731 1.355 . S
C2732 C2734 1.419 . S
C2733 C2728 1.425 . S
C2733 C2730 1.409 . S
C2733 C2731 1.415 . S
C2734 H2724 0.930 . S
C2734 C2732 1.419 . S
C2734 C2735 1.362 . S
C2735 H2725 0.930 . S
C2735 C2728 1.409 . S
C2735 C2734 1.362 . S
H2736 C2742 0.930 . S
H2737 C2745 0.930 . S
H2738 C2746 0.930 . S
H2739 C2747 0.930 . S
H2740 C2750 0.930 . S
H2741 C2751 0.930 . S
C2742 H2736 0.930 . S
C2742 C2743 1.355 . S
C2742 C2744 1.415 . S
C2743 C2742 1.355 . S
C2743 C2745 1.419 . S
C2744 C2742 1.415 . S
C2744 C2749 1.425 . S
C2744 C2751 1.409 . S
C2745 H2737 0.930 . S
C2745 C2743 1.419 . S
C2745 C2746 1.362 . S
C2746 H2738 0.930 . S
C2746 C2745 1.362 . S
C2746 C2749 1.409 . S
C2747 H2739 0.930 . S
C2747 C2748 1.355 . S
C2747 C2749 1.415 . S
C2748 C2747 1.355 . S
C2748 C2750 1.419 . S
C2749 C2744 1.425 . S
C2749 C2746 1.409 . S
C2749 C2747 1.415 . S
C2750 H2740 0.930 . S
C2750 C2748 1.419 . S
C2750 C2751 1.362 . S
C2751 H2741 0.930 . S
C2751 C2744 1.409 . S
C2751 C2750 1.362 . S
H2752 C2758 0.930 . S
H2753 C2761 0.930 . S
H2754 C2762 0.930 . S
H2755 C2763 0.930 . S
H2756 C2766 0.930 . S
H2757 C2767 0.930 . S
C2758 H2752 0.930 . S
C2758 C2759 1.355 . S
C2758 C2760 1.415 . S
C2759 C2758 1.355 . S
C2759 C2761 1.419 . S
C2760 C2758 1.415 . S
C2760 C2765 1.425 . S
C2760 C2767 1.409 . S
C2761 H2753 0.930 . S
C2761 C2759 1.419 . S
C2761 C2762 1.362 . S
C2762 H2754 0.930 . S
C2762 C2761 1.362 . S
C2762 C2765 1.409 . S
C2763 H2755 0.930 . S
C2763 C2764 1.355 . S
C2763 C2765 1.415 . S
C2764 C2763 1.355 . S
C2764 C2766 1.419 . S
C2765 C2760 1.425 . S
C2765 C2762 1.409 . S
C2765 C2763 1.415 . S
C2766 H2756 0.930 . S
C2766 C2764 1.419 . S
C2766 C2767 1.362 . S
C2767 H2757 0.930 . S
C2767 C2760 1.409 . S
C2767 C2766 1.362 . S
H2768 C2774 0.930 . S
H2769 C2777 0.930 . S
H2770 C2778 0.930 . S
H2771 C2779 0.930 . S
H2772 C2782 0.930 . S
H2773 C2783 0.930 . S
C2774 H2768 0.930 . S
C2774 C2775 1.355 . S
C2774 C2776 1.415 . S
C2775 C2774 1.355 . S
C2775 C2777 1.419 . S
C2776 C2774 1.415 . S
C2776 C2781 1.425 . S
C2776 C2783 1.409 . S
C2777 H2769 0.930 . S
C2777 C2775 1.419 . S
C2777 C2778 1.362 . S
C2778 H2770 0.930 . S
C2778 C2777 1.362 . S
C2778 C2781 1.409 . S
C2779 H2771 0.930 . S
C2779 C2780 1.355 . S
C2779 C2781 1.415 . S
C2780 C2779 1.355 . S
C2780 C2782 1.419 . S
C2781 C2776 1.425 . S
C2781 C2778 1.409 . S
C2781 C2779 1.415 . S
C2782 H2772 0.930 . S
C2782 C2780 1.419 . S
C2782 C2783 1.362 . S
C2783 H2773 0.930 . S
C2783 C2776 1.409 . S
C2783 C2782 1.362 . S
H2784 C2790 0.930 . S
H2785 C2793 0.930 . S
H2786 C2794 0.930 . S
H2787 C2795 0.930 . S
H2788 C2798 0.930 . S
H2789 C2799 0.930 . S
C2790 H2784 0.930 . S
C2790 C2791 1.355 . S
C2790 C2792 1.415 . S
C2791 C2790 1.355 . S
C2791 C2793 1.419 . S
C2792 C2790 1.415 . S
C2792 C2797 1.425 . S
C2792 C2799 1.409 . S
C2793 H2785 0.930 . S
C2793 C2791 1.419 . S
C2793 C2794 1.362 . S
C2794 H2786 0.930 . S
C2794 C2793 1.362 . S
C2794 C2797 1.409 . S
C2795 H2787 0.930 . S
C2795 C2796 1.355 . S
C2795 C2797 1.415 . S
C2796 C2795 1.355 . S
C2796 C2798 1.419 . S
C2797 C2792 1.425 . S
C2797 C2794 1.409 . S
C2797 C2795 1.415 . S
C2798 H2788 0.930 . S
C2798 C2796 1.419 . S
C2798 C2799 1.362 . S
C2799 H2789 0.930 . S
C2799 C2792 1.409 . S
C2799 C2798 1.362 . S
H2800 C2806 0.930 . S
H2801 C2809 0.930 . S
H2802 C2810 0.930 . S
H2803 C2811 0.930 . S
H2804 C2814 0.930 . S
H2805 C2815 0.930 . S
C2806 H2800 0.930 . S
C2806 C2807 1.355 . S
C2806 C2808 1.415 . S
C2807 C2806 1.355 . S
C2807 C2809 1.419 . S
C2808 C2806 1.415 . S
C2808 C2813 1.425 . S
C2808 C2815 1.409 . S
C2809 H2801 0.930 . S
C2809 C2807 1.419 . S
C2809 C2810 1.362 . S
C2810 H2802 0.930 . S
C2810 C2809 1.362 . S
C2810 C2813 1.409 . S
C2811 H2803 0.930 . S
C2811 C2812 1.355 . S
C2811 C2813 1.415 . S
C2812 C2811 1.355 . S
C2812 C2814 1.419 . S
C2813 C2808 1.425 . S
C2813 C2810 1.409 . S
C2813 C2811 1.415 . S
C2814 H2804 0.930 . S
C2814 C2812 1.419 . S
C2814 C2815 1.362 . S
C2815 H2805 0.930 . S
C2815 C2808 1.409 . S
C2815 C2814 1.362 . S
H2816 C2822 0.930 . S
H2817 C2825 0.930 . S
H2818 C2826 0.930 . S
H2819 C2827 0.930 . S
H2820 C2830 0.930 . S
H2821 C2831 0.930 . S
C2822 H2816 0.930 . S
C2822 C2823 1.355 . S
C2822 C2824 1.415 . S
C2823 C2822 1.355 . S
C2823 C2825 1.419 . S
C2824 C2822 1.415 . S
C2824 C2829 1.425 . S
C2824 C2831 1.409 . S
C2825 H2817 0.930 . S
C2825 C2823 1.419 . S
C2825 C2826 1.362 . S
C2826 H2818 0.930 . S
C2826 C2825 1.362 . S
C2826 C2829 1.409 . S
C2827 H2819 0.930 . S
C2827 C2828 1.355 . S
C2827 C2829 1.415 . S
C2828 C2827 1.355 . S
C2828 C2830 1.419 . S
C2829 C2824 1.425 . S
C2829 C2826 1.409 . S
C2829 C2827 1.415 . S
C2830 H2820 0.930 . S
C2830 C2828 1.419 . S
C2830 C2831 1.362 . S
C2831 H2821 0.930 . S
C2831 C2824 1.409 . S
C2831 C2830 1.362 . S
H2832 C2838 0.930 . S
H2833 C2841 0.930 . S
H2834 C2842 0.930 . S
H2835 C2843 0.930 . S
H2836 C2846 0.930 . S
H2837 C2847 0.930 . S
C2838 H2832 0.930 . S
C2838 C2839 1.355 . S
C2838 C2840 1.415 . S
C2839 C2838 1.355 . S
C2839 C2841 1.419 . S
C2840 C2838 1.415 . S
C2840 C2845 1.425 . S
C2840 C2847 1.409 . S
C2841 H2833 0.930 . S
C2841 C2839 1.419 . S
C2841 C2842 1.362 . S
C2842 H2834 0.930 . S
C2842 C2841 1.362 . S
C2842 C2845 1.409 . S
C2843 H2835 0.930 . S
C2843 C2844 1.355 . S
C2843 C2845 1.415 . S
C2844 C2843 1.355 . S
C2844 C2846 1.419 . S
C2845 C2840 1.425 . S
C2845 C2842 1.409 . S
C2845 C2843 1.415 . S
C2846 H2836 0.930 . S
C2846 C2844 1.419 . S
C2846 C2847 1.362 . S
C2847 H2837 0.930 . S
C2847 C2840 1.409 . S
C2847 C2846 1.362 . S
H2848 C2854 0.930 . S
H2849 C2857 0.930 . S
H2850 C2858 0.930 . S
H2851 C2859 0.930 . S
H2852 C2862 0.930 . S
H2853 C2863 0.930 . S
C2854 H2848 0.930 . S
C2854 C2855 1.355 . S
C2854 C2856 1.415 . S
C2855 C2854 1.355 . S
C2855 C2857 1.419 . S
C2856 C2854 1.415 . S
C2856 C2861 1.425 . S
C2856 C2863 1.409 . S
C2857 H2849 0.930 . S
C2857 C2855 1.419 . S
C2857 C2858 1.362 . S
C2858 H2850 0.930 . S
C2858 C2857 1.362 . S
C2858 C2861 1.409 . S
C2859 H2851 0.930 . S
C2859 C2860 1.355 . S
C2859 C2861 1.415 . S
C2860 C2859 1.355 . S
C2860 C2862 1.419 . S
C2861 C2856 1.425 . S
C2861 C2858 1.409 . S
C2861 C2859 1.415 . S
C2862 H2852 0.930 . S
C2862 C2860 1.419 . S
C2862 C2863 1.362 . S
C2863 H2853 0.930 . S
C2863 C2856 1.409 . S
C2863 C2862 1.362 . S
H2864 C2870 0.930 . S
H2865 C2873 0.930 . S
H2866 C2874 0.930 . S
H2867 C2875 0.930 . S
H2868 C2878 0.930 . S
H2869 C2879 0.930 . S
C2870 H2864 0.930 . S
C2870 C2871 1.355 . S
C2870 C2872 1.415 . S
C2871 C2870 1.355 . S
C2871 C2873 1.419 . S
C2872 C2870 1.415 . S
C2872 C2877 1.425 . S
C2872 C2879 1.409 . S
C2873 H2865 0.930 . S
C2873 C2871 1.419 . S
C2873 C2874 1.362 . S
C2874 H2866 0.930 . S
C2874 C2873 1.362 . S
C2874 C2877 1.409 . S
C2875 H2867 0.930 . S
C2875 C2876 1.355 . S
C2875 C2877 1.415 . S
C2876 C2875 1.355 . S
C2876 C2878 1.419 . S
C2877 C2872 1.425 . S
C2877 C2874 1.409 . S
C2877 C2875 1.415 . S
C2878 H2868 0.930 . S
C2878 C2876 1.419 . S
C2878 C2879 1.362 . S
C2879 H2869 0.930 . S
C2879 C2872 1.409 . S
C2879 C2878 1.362 . S
H2880 C2886 0.930 . S
H2881 C2889 0.930 . S
H2882 C2890 0.930 . S
H2883 C2891 0.930 . S
H2884 C2894 0.930 . S
H2885 C2895 0.930 . S
C2886 H2880 0.930 . S
C2886 C2887 1.355 . S
C2886 C2888 1.415 . S
C2887 C2886 1.355 . S
C2887 C2889 1.419 . S
C2888 C2886 1.415 . S
C2888 C2893 1.425 . S
C2888 C2895 1.409 . S
C2889 H2881 0.930 . S
C2889 C2887 1.419 . S
C2889 C2890 1.362 . S
C2890 H2882 0.930 . S
C2890 C2889 1.362 . S
C2890 C2893 1.409 . S
C2891 H2883 0.930 . S
C2891 C2892 1.355 . S
C2891 C2893 1.415 . S
C2892 C2891 1.355 . S
C2892 C2894 1.419 . S
C2893 C2888 1.425 . S
C2893 C2890 1.409 . S
C2893 C2891 1.415 . S
C2894 H2884 0.930 . S
C2894 C2892 1.419 . S
C2894 C2895 1.362 . S
C2895 H2885 0.930 . S
C2895 C2888 1.409 . S
C2895 C2894 1.362 . S
H2896 C2902 0.930 . S
H2897 C2905 0.930 . S
H2898 C2906 0.930 . S
H2899 C2907 0.930 . S
H2900 C2910 0.930 . S
H2901 C2911 0.930 . S
C2902 H2896 0.930 . S
C2902 C2903 1.355 . S
C2902 C2904 1.415 . S
C2903 C2902 1.355 . S
C2903 C2905 1.419 . S
C2904 C2902 1.415 . S
C2904 C2909 1.425 . S
C2904 C2911 1.409 . S
C2905 H2897 0.930 . S
C2905 C2903 1.419 . S
C2905 C2906 1.362 . S
C2906 H2898 0.930 . S
C2906 C2905 1.362 . S
C2906 C2909 1.409 . S
C2907 H2899 0.930 . S
C2907 C2908 1.355 . S
C2907 C2909 1.415 . S
C2908 C2907 1.355 . S
C2908 C2910 1.419 . S
C2909 C2904 1.425 . S
C2909 C2906 1.409 . S
C2909 C2907 1.415 . S
C2910 H2900 0.930 . S
C2910 C2908 1.419 . S
C2910 C2911 1.362 . S
C2911 H2901 0.930 . S
C2911 C2904 1.409 . S
C2911 C2910 1.362 . S
H2912 C2918 0.930 . S
H2913 C2921 0.930 . S
H2914 C2922 0.930 . S
H2915 C2923 0.930 . S
H2916 C2926 0.930 . S
H2917 C2927 0.930 . S
C2918 H2912 0.930 . S
C2918 C2919 1.355 . S
C2918 C2920 1.415 . S
C2919 C2918 1.355 . S
C2919 C2921 1.419 . S
C2920 C2918 1.415 . S
C2920 C2925 1.425 . S
C2920 C2927 1.409 . S
C2921 H2913 0.930 . S
C2921 C2919 1.419 . S
C2921 C2922 1.362 . S
C2922 H2914 0.930 . S
C2922 C2921 1.362 . S
C2922 C2925 1.409 . S
C2923 H2915 0.930 . S
C2923 C2924 1.355 . S
C2923 C2925 1.415 . S
C2924 C2923 1.355 . S
C2924 C2926 1.419 . S
C2925 C2920 1.425 . S
C2925 C2922 1.409 . S
C2925 C2923 1.415 . S
C2926 H2916 0.930 . S
C2926 C2924 1.419 . S
C2926 C2927 1.362 . S
C2927 H2917 0.930 . S
C2927 C2920 1.409 . S
C2927 C2926 1.362 . S
H2928 C2934 0.930 . S
H2929 C2937 0.930 . S
H2930 C2938 0.930 . S
H2931 C2939 0.930 . S
H2932 C2942 0.930 . S
H2933 C2943 0.930 . S
C2934 H2928 0.930 . S
C2934 C2935 1.355 . S
C2934 C2936 1.415 . S
C2935 C2934 1.355 . S
C2935 C2937 1.419 . S
C2936 C2934 1.415 . S
C2936 C2941 1.425 . S
C2936 C2943 1.409 . S
C2937 H2929 0.930 . S
C2937 C2935 1.419 . S
C2937 C2938 1.362 . S
C2938 H2930 0.930 . S
C2938 C2937 1.362 . S
C2938 C2941 1.409 . S
C2939 H2931 0.930 . S
C2939 C2940 1.355 . S
C2939 C2941 1.415 . S
C2940 C2939 1.355 . S
C2940 C2942 1.419 . S
C2941 C2936 1.425 . S
C2941 C2938 1.409 . S
C2941 C2939 1.415 . S
C2942 H2932 0.930 . S
C2942 C2940 1.419 . S
C2942 C2943 1.362 . S
C2943 H2933 0.930 . S
C2943 C2936 1.409 . S
C2943 C2942 1.362 . S
H2944 C2950 0.930 . S
H2945 C2953 0.930 . S
H2946 C2954 0.930 . S
H2947 C2955 0.930 . S
H2948 C2958 0.930 . S
H2949 C2959 0.930 . S
C2950 H2944 0.930 . S
C2950 C2951 1.355 . S
C2950 C2952 1.415 . S
C2951 C2950 1.355 . S
C2951 C2953 1.419 . S
C2952 C2950 1.415 . S
C2952 C2957 1.425 . S
C2952 C2959 1.409 . S
C2953 H2945 0.930 . S
C2953 C2951 1.419 . S
C2953 C2954 1.362 . S
C2954 H2946 0.930 . S
C2954 C2953 1.362 . S
C2954 C2957 1.409 . S
C2955 H2947 0.930 . S
C2955 C2956 1.355 . S
C2955 C2957 1.415 . S
C2956 C2955 1.355 . S
C2956 C2958 1.419 . S
C2957 C2952 1.425 . S
C2957 C2954 1.409 . S
C2957 C2955 1.415 . S
C2958 H2948 0.930 . S
C2958 C2956 1.419 . S
C2958 C2959 1.362 . S
C2959 H2949 0.930 . S
C2959 C2952 1.409 . S
C2959 C2958 1.362 . S
H2960 C2966 0.930 . S
H2961 C2969 0.930 . S
H2962 C2970 0.930 . S
H2963 C2971 0.930 . S
H2964 C2974 0.930 . S
H2965 C2975 0.930 . S
C2966 H2960 0.930 . S
C2966 C2967 1.355 . S
C2966 C2968 1.415 . S
C2967 C2966 1.355 . S
C2967 C2969 1.419 . S
C2968 C2966 1.415 . S
C2968 C2973 1.425 . S
C2968 C2975 1.409 . S
C2969 H2961 0.930 . S
C2969 C2967 1.419 . S
C2969 C2970 1.362 . S
C2970 H2962 0.930 . S
C2970 C2969 1.362 . S
C2970 C2973 1.409 . S
C2971 H2963 0.930 . S
C2971 C2972 1.355 . S
C2971 C2973 1.415 . S
C2972 C2971 1.355 . S
C2972 C2974 1.419 . S
C2973 C2968 1.425 . S
C2973 C2970 1.409 . S
C2973 C2971 1.415 . S
C2974 H2964 0.930 . S
C2974 C2972 1.419 . S
C2974 C2975 1.362 . S
C2975 H2965 0.930 . S
C2975 C2968 1.409 . S
C2975 C2974 1.362 . S
H2976 C2982 0.930 . S
H2977 C2985 0.930 . S
H2978 C2986 0.930 . S
H2979 C2987 0.930 . S
H2980 C2990 0.930 . S
H2981 C2991 0.930 . S
C2982 H2976 0.930 . S
C2982 C2983 1.355 . S
C2982 C2984 1.415 . S
C2983 C2982 1.355 . S
C2983 C2985 1.419 . S
C2984 C2982 1.415 . S
C2984 C2989 1.425 . S
C2984 C2991 1.409 . S
C2985 H2977 0.930 . S
C2985 C2983 1.419 . S
C2985 C2986 1.362 . S
C2986 H2978 0.930 . S
C2986 C2985 1.362 . S
C2986 C2989 1.409 . S
C2987 H2979 0.930 . S
C2987 C2988 1.355 . S
C2987 C2989 1.415 . S
C2988 C2987 1.355 . S
C2988 C2990 1.419 . S
C2989 C2984 1.425 . S
C2989 C2986 1.409 . S
C2989 C2987 1.415 . S
C2990 H2980 0.930 . S
C2990 C2988 1.419 . S
C2990 C2991 1.362 . S
C2991 H2981 0.930 . S
C2991 C2984 1.409 . S
C2991 C2990 1.362 . S
H2992 C2998 0.930 . S
H2993 C3001 0.930 . S
H2994 C3002 0.930 . S
H2995 C3003 0.930 . S
H2996 C3006 0.930 . S
H2997 C3007 0.930 . S
C2998 H2992 0.930 . S
C2998 C2999 1.355 . S
C2998 C3000 1.415 . S
C2999 C2998 1.355 . S
C2999 C3001 1.419 . S
C3000 C2998 1.415 . S
C3000 C3005 1.425 . S
C3000 C3007 1.409 . S
C3001 H2993 0.930 . S
C3001 C2999 1.419 . S
C3001 C3002 1.362 . S
C3002 H2994 0.930 . S
C3002 C3001 1.362 . S
C3002 C3005 1.409 . S
C3003 H2995 0.930 . S
C3003 C3004 1.355 . S
C3003 C3005 1.415 . S
C3004 C3003 1.355 . S
C3004 C3006 1.419 . S
C3005 C3000 1.425 . S
C3005 C3002 1.409 . S
C3005 C3003 1.415 . S
C3006 H2996 0.930 . S
C3006 C3004 1.419 . S
C3006 C3007 1.362 . S
C3007 H2997 0.930 . S
C3007 C3000 1.409 . S
C3007 C3006 1.362 . S
H3008 C3014 0.930 . S
H3009 C3017 0.930 . S
H3010 C3018 0.930 . S
H3011 C3019 0.930 . S
H3012 C3022 0.930 . S
H3013 C3023 0.930 . S
C3014 H3008 0.930 . S
C3014 C3015 1.355 . S
C3014 C3016 1.415 . S
C3015 C3014 1.355 . S
C3015 C3017 1.419 . S
C3016 C3014 1.415 . S
C3016 C3021 1.425 . S
C3016 C3023 1.409 . S
C3017 H3009 0.930 . S
C3017 C3015 1.419 . S
C3017 C3018 1.362 . S
C3018 H3010 0.930 . S
C3018 C3017 1.362 . S
C3018 C3021 1.409 . S
C3019 H3011 0.930 . S
C3019 C3020 1.355 . S
C3019 C3021 1.415 . S
C3020 C3019 1.355 . S
C3020 C3022 1.419 . S
C3021 C3016 1.425 . S
C3021 C3018 1.409 . S
C3021 C3019 1.415 . S
C3022 H3012 0.930 . S
C3022 C3020 1.419 . S
C3022 C3023 1.362 . S
C3023 H3013 0.930 . S
C3023 C3016 1.409 . S
C3023 C3022 1.362 . S
H3024 C3030 0.930 . S
H3025 C3033 0.930 . S
H3026 C3034 0.930 . S
H3027 C3035 0.930 . S
H3028 C3038 0.930 . S
H3029 C3039 0.930 . S
C3030 H3024 0.930 . S
C3030 C3031 1.355 . S
C3030 C3032 1.415 . S
C3031 C3030 1.355 . S
C3031 C3033 1.419 . S
C3032 C3030 1.415 . S
C3032 C3037 1.425 . S
C3032 C3039 1.409 . S
C3033 H3025 0.930 . S
C3033 C3031 1.419 . S
C3033 C3034 1.362 . S
C3034 H3026 0.930 . S
C3034 C3033 1.362 . S
C3034 C3037 1.409 . S
C3035 H3027 0.930 . S
C3035 C3036 1.355 . S
C3035 C3037 1.415 . S
C3036 C3035 1.355 . S
C3036 C3038 1.419 . S
C3037 C3032 1.425 . S
C3037 C3034 1.409 . S
C3037 C3035 1.415 . S
C3038 H3028 0.930 . S
C3038 C3036 1.419 . S
C3038 C3039 1.362 . S
C3039 H3029 0.930 . S
C3039 C3032 1.409 . S
C3039 C3038 1.362 . S
H3040 C3046 0.930 . S
H3041 C3049 0.930 . S
H3042 C3050 0.930 . S
H3043 C3051 0.930 . S
H3044 C3054 0.930 . S
H3045 C3055 0.930 . S
C3046 H3040 0.930 . S
C3046 C3047 1.355 . S
C3046 C3048 1.415 . S
C3047 C3046 1.355 . S
C3047 C3049 1.419 . S
C3048 C3046 1.415 . S
C3048 C3053 1.425 . S
C3048 C3055 1.409 . S
C3049 H3041 0.930 . S
C3049 C3047 1.419 . S
C3049 C3050 1.362 . S
C3050 H3042 0.930 . S
C3050 C3049 1.362 . S
C3050 C3053 1.409 . S
C3051 H3043 0.930 . S
C3051 C3052 1.355 . S
C3051 C3053 1.415 . S
C3052 C3051 1.355 . S
C3052 C3054 1.419 . S
C3053 C3048 1.425 . S
C3053 C3050 1.409 . S
C3053 C3051 1.415 . S
C3054 H3044 0.930 . S
C3054 C3052 1.419 . S
C3054 C3055 1.362 . S
C3055 H3045 0.930 . S
C3055 C3048 1.409 . S
C3055 C3054 1.362 . S
H3056 C3062 0.930 . S
H3057 C3065 0.930 . S
H3058 C3066 0.930 . S
H3059 C3067 0.930 . S
H3060 C3070 0.930 . S
H3061 C3071 0.930 . S
C3062 H3056 0.930 . S
C3062 C3063 1.355 . S
C3062 C3064 1.415 . S
C3063 C3062 1.355 . S
C3063 C3065 1.419 . S
C3064 C3062 1.415 . S
C3064 C3069 1.425 . S
C3064 C3071 1.409 . S
C3065 H3057 0.930 . S
C3065 C3063 1.419 . S
C3065 C3066 1.362 . S
C3066 H3058 0.930 . S
C3066 C3065 1.362 . S
C3066 C3069 1.409 . S
C3067 H3059 0.930 . S
C3067 C3068 1.355 . S
C3067 C3069 1.415 . S
C3068 C3067 1.355 . S
C3068 C3070 1.419 . S
C3069 C3064 1.425 . S
C3069 C3066 1.409 . S
C3069 C3067 1.415 . S
C3070 H3060 0.930 . S
C3070 C3068 1.419 . S
C3070 C3071 1.362 . S
C3071 H3061 0.930 . S
C3071 C3064 1.409 . S
C3071 C3070 1.362 . S
H3072 C3078 0.930 . S
H3073 C3081 0.930 . S
H3074 C3082 0.930 . S
H3075 C3083 0.930 . S
H3076 C3086 0.930 . S
H3077 C3087 0.930 . S
C3078 H3072 0.930 . S
C3078 C3079 1.355 . S
C3078 C3080 1.415 . S
C3079 C3078 1.355 . S
C3079 C3081 1.419 . S
C3080 C3078 1.415 . S
C3080 C3085 1.425 . S
C3080 C3087 1.409 . S
C3081 H3073 0.930 . S
C3081 C3079 1.419 . S
C3081 C3082 1.362 . S
C3082 H3074 0.930 . S
C3082 C3081 1.362 . S
C3082 C3085 1.409 . S
C3083 H3075 0.930 . S
C3083 C3084 1.355 . S
C3083 C3085 1.415 . S
C3084 C3083 1.355 . S
C3084 C3086 1.419 . S
C3085 C3080 1.425 . S
C3085 C3082 1.409 . S
C3085 C3083 1.415 . S
C3086 H3076 0.930 . S
C3086 C3084 1.419 . S
C3086 C3087 1.362 . S
C3087 H3077 0.930 . S
C3087 C3080 1.409 . S
C3087 C3086 1.362 . S
H3088 C3094 0.930 . S
H3089 C3097 0.930 . S
H3090 C3098 0.930 . S
H3091 C3099 0.930 . S
H3092 C3102 0.930 . S
H3093 C3103 0.930 . S
C3094 H3088 0.930 . S
C3094 C3095 1.355 . S
C3094 C3096 1.415 . S
C3095 C3094 1.355 . S
C3095 C3097 1.419 . S
C3096 C3094 1.415 . S
C3096 C3101 1.425 . S
C3096 C3103 1.409 . S
C3097 H3089 0.930 . S
C3097 C3095 1.419 . S
C3097 C3098 1.362 . S
C3098 H3090 0.930 . S
C3098 C3097 1.362 . S
C3098 C3101 1.409 . S
C3099 H3091 0.930 . S
C3099 C3100 1.355 . S
C3099 C3101 1.415 . S
C3100 C3099 1.355 . S
C3100 C3102 1.419 . S
C3101 C3096 1.425 . S
C3101 C3098 1.409 . S
C3101 C3099 1.415 . S
C3102 H3092 0.930 . S
C3102 C3100 1.419 . S
C3102 C3103 1.362 . S
C3103 H3093 0.930 . S
C3103 C3096 1.409 . S
C3103 C3102 1.362 . S
H3104 C3110 0.930 . S
H3105 C3113 0.930 . S
H3106 C3114 0.930 . S
H3107 C3115 0.930 . S
H3108 C3118 0.930 . S
H3109 C3119 0.930 . S
C3110 H3104 0.930 . S
C3110 C3111 1.355 . S
C3110 C3112 1.415 . S
C3111 C3110 1.355 . S
C3111 C3113 1.419 . S
C3112 C3110 1.415 . S
C3112 C3117 1.425 . S
C3112 C3119 1.409 . S
C3113 H3105 0.930 . S
C3113 C3111 1.419 . S
C3113 C3114 1.362 . S
C3114 H3106 0.930 . S
C3114 C3113 1.362 . S
C3114 C3117 1.409 . S
C3115 H3107 0.930 . S
C3115 C3116 1.355 . S
C3115 C3117 1.415 . S
C3116 C3115 1.355 . S
C3116 C3118 1.419 . S
C3117 C3112 1.425 . S
C3117 C3114 1.409 . S
C3117 C3115 1.415 . S
C3118 H3108 0.930 . S
C3118 C3116 1.419 . S
C3118 C3119 1.362 . S
C3119 H3109 0.930 . S
C3119 C3112 1.409 . S
C3119 C3118 1.362 . S
H3120 C3126 0.930 . S
H3121 C3129 0.930 . S
H3122 C3130 0.930 . S
H3123 C3131 0.930 . S
H3124 C3134 0.930 . S
H3125 C3135 0.930 . S
C3126 H3120 0.930 . S
C3126 C3127 1.355 . S
C3126 C3128 1.415 . S
C3127 C3126 1.355 . S
C3127 C3129 1.419 . S
C3128 C3126 1.415 . S
C3128 C3133 1.425 . S
C3128 C3135 1.409 . S
C3129 H3121 0.930 . S
C3129 C3127 1.419 . S
C3129 C3130 1.362 . S
C3130 H3122 0.930 . S
C3130 C3129 1.362 . S
C3130 C3133 1.409 . S
C3131 H3123 0.930 . S
C3131 C3132 1.355 . S
C3131 C3133 1.415 . S
C3132 C3131 1.355 . S
C3132 C3134 1.419 . S
C3133 C3128 1.425 . S
C3133 C3130 1.409 . S
C3133 C3131 1.415 . S
C3134 H3124 0.930 . S
C3134 C3132 1.419 . S
C3134 C3135 1.362 . S
C3135 H3125 0.930 . S
C3135 C3128 1.409 . S
C3135 C3134 1.362 . S
H3136 C3142 0.930 . S
H3137 C3145 0.930 . S
H3138 C3146 0.930 . S
H3139 C3147 0.930 . S
H3140 C3150 0.930 . S
H3141 C3151 0.930 . S
C3142 H3136 0.930 . S
C3142 C3143 1.355 . S
C3142 C3144 1.415 . S
C3143 C3142 1.355 . S
C3143 C3145 1.419 . S
C3144 C3142 1.415 . S
C3144 C3149 1.425 . S
C3144 C3151 1.409 . S
C3145 H3137 0.930 . S
C3145 C3143 1.419 . S
C3145 C3146 1.362 . S
C3146 H3138 0.930 . S
C3146 C3145 1.362 . S
C3146 C3149 1.409 . S
C3147 H3139 0.930 . S
C3147 C3148 1.355 . S
C3147 C3149 1.415 . S
C3148 C3147 1.355 . S
C3148 C3150 1.419 . S
C3149 C3144 1.425 . S
C3149 C3146 1.409 . S
C3149 C3147 1.415 . S
C3150 H3140 0.930 . S
C3150 C3148 1.419 . S
C3150 C3151 1.362 . S
C3151 H3141 0.930 . S
C3151 C3144 1.409 . S
C3151 C3150 1.362 . S
H3152 C3158 0.930 . S
H3153 C3161 0.930 . S
H3154 C3162 0.930 . S
H3155 C3163 0.930 . S
H3156 C3166 0.930 . S
H3157 C3167 0.930 . S
C3158 H3152 0.930 . S
C3158 C3159 1.355 . S
C3158 C3160 1.415 . S
C3159 C3158 1.355 . S
C3159 C3161 1.419 . S
C3160 C3158 1.415 . S
C3160 C3165 1.425 . S
C3160 C3167 1.409 . S
C3161 H3153 0.930 . S
C3161 C3159 1.419 . S
C3161 C3162 1.362 . S
C3162 H3154 0.930 . S
C3162 C3161 1.362 . S
C3162 C3165 1.409 . S
C3163 H3155 0.930 . S
C3163 C3164 1.355 . S
C3163 C3165 1.415 . S
C3164 C3163 1.355 . S
C3164 C3166 1.419 . S
C3165 C3160 1.425 . S
C3165 C3162 1.409 . S
C3165 C3163 1.415 . S
C3166 H3156 0.930 . S
C3166 C3164 1.419 . S
C3166 C3167 1.362 . S
C3167 H3157 0.930 . S
C3167 C3160 1.409 . S
C3167 C3166 1.362 . S
H3168 C3174 0.930 . S
H3169 C3177 0.930 . S
H3170 C3178 0.930 . S
H3171 C3179 0.930 . S
H3172 C3182 0.930 . S
H3173 C3183 0.930 . S
C3174 H3168 0.930 . S
C3174 C3175 1.355 . S
C3174 C3176 1.415 . S
C3175 C3174 1.355 . S
C3175 C3177 1.419 . S
C3176 C3174 1.415 . S
C3176 C3181 1.425 . S
C3176 C3183 1.409 . S
C3177 H3169 0.930 . S
C3177 C3175 1.419 . S
C3177 C3178 1.362 . S
C3178 H3170 0.930 . S
C3178 C3177 1.362 . S
C3178 C3181 1.409 . S
C3179 H3171 0.930 . S
C3179 C3180 1.355 . S
C3179 C3181 1.415 . S
C3180 C3179 1.355 . S
C3180 C3182 1.419 . S
C3181 C3176 1.425 . S
C3181 C3178 1.409 . S
C3181 C3179 1.415 . S
C3182 H3172 0.930 . S
C3182 C3180 1.419 . S
C3182 C3183 1.362 . S
C3183 H3173 0.930 . S
C3183 C3176 1.409 . S
C3183 C3182 1.362 . S
H3184 C3190 0.930 . S
H3185 C3193 0.930 . S
H3186 C3194 0.930 . S
H3187 C3195 0.930 . S
H3188 C3198 0.930 . S
H3189 C3199 0.930 . S
C3190 H3184 0.930 . S
C3190 C3191 1.355 . S
C3190 C3192 1.415 . S
C3191 C3190 1.355 . S
C3191 C3193 1.419 . S
C3192 C3190 1.415 . S
C3192 C3197 1.425 . S
C3192 C3199 1.409 . S
C3193 H3185 0.930 . S
C3193 C3191 1.419 . S
C3193 C3194 1.362 . S
C3194 H3186 0.930 . S
C3194 C3193 1.362 . S
C3194 C3197 1.409 . S
C3195 H3187 0.930 . S
C3195 C3196 1.355 . S
C3195 C3197 1.415 . S
C3196 C3195 1.355 . S
C3196 C3198 1.419 . S
C3197 C3192 1.425 . S
C3197 C3194 1.409 . S
C3197 C3195 1.415 . S
C3198 H3188 0.930 . S
C3198 C3196 1.419 . S
C3198 C3199 1.362 . S
C3199 H3189 0.930 . S
C3199 C3192 1.409 . S
C3199 C3198 1.362 . S
H3200 C3206 0.930 . S
H3201 C3209 0.930 . S
H3202 C3210 0.930 . S
H3203 C3211 0.930 . S
H3204 C3214 0.930 . S
H3205 C3215 0.930 . S
C3206 H3200 0.930 . S
C3206 C3207 1.355 . S
C3206 C3208 1.415 . S
C3207 C3206 1.355 . S
C3207 C3209 1.419 . S
C3208 C3206 1.415 . S
C3208 C3213 1.425 . S
C3208 C3215 1.409 . S
C3209 H3201 0.930 . S
C3209 C3207 1.419 . S
C3209 C3210 1.362 . S
C3210 H3202 0.930 . S
C3210 C3209 1.362 . S
C3210 C3213 1.409 . S
C3211 H3203 0.930 . S
C3211 C3212 1.355 . S
C3211 C3213 1.415 . S
C3212 C3211 1.355 . S
C3212 C3214 1.419 . S
C3213 C3208 1.425 . S
C3213 C3210 1.409 . S
C3213 C3211 1.415 . S
C3214 H3204 0.930 . S
C3214 C3212 1.419 . S
C3214 C3215 1.362 . S
C3215 H3205 0.930 . S
C3215 C3208 1.409 . S
C3215 C3214 1.362 . S
H3216 C3222 0.930 . S
H3217 C3225 0.930 . S
H3218 C3226 0.930 . S
H3219 C3227 0.930 . S
H3220 C3230 0.930 . S
H3221 C3231 0.930 . S
C3222 H3216 0.930 . S
C3222 C3223 1.355 . S
C3222 C3224 1.415 . S
C3223 C3222 1.355 . S
C3223 C3225 1.419 . S
C3224 C3222 1.415 . S
C3224 C3229 1.425 . S
C3224 C3231 1.409 . S
C3225 H3217 0.930 . S
C3225 C3223 1.419 . S
C3225 C3226 1.362 . S
C3226 H3218 0.930 . S
C3226 C3225 1.362 . S
C3226 C3229 1.409 . S
C3227 H3219 0.930 . S
C3227 C3228 1.355 . S
C3227 C3229 1.415 . S
C3228 C3227 1.355 . S
C3228 C3230 1.419 . S
C3229 C3224 1.425 . S
C3229 C3226 1.409 . S
C3229 C3227 1.415 . S
C3230 H3220 0.930 . S
C3230 C3228 1.419 . S
C3230 C3231 1.362 . S
C3231 H3221 0.930 . S
C3231 C3224 1.409 . S
C3231 C3230 1.362 . S
H3232 C3238 0.930 . S
H3233 C3241 0.930 . S
H3234 C3242 0.930 . S
H3235 C3243 0.930 . S
H3236 C3246 0.930 . S
H3237 C3247 0.930 . S
C3238 H3232 0.930 . S
C3238 C3239 1.355 . S
C3238 C3240 1.415 . S
C3239 C3238 1.355 . S
C3239 C3241 1.419 . S
C3240 C3238 1.415 . S
C3240 C3245 1.425 . S
C3240 C3247 1.409 . S
C3241 H3233 0.930 . S
C3241 C3239 1.419 . S
C3241 C3242 1.362 . S
C3242 H3234 0.930 . S
C3242 C3241 1.362 . S
C3242 C3245 1.409 . S
C3243 H3235 0.930 . S
C3243 C3244 1.355 . S
C3243 C3245 1.415 . S
C3244 C3243 1.355 . S
C3244 C3246 1.419 . S
C3245 C3240 1.425 . S
C3245 C3242 1.409 . S
C3245 C3243 1.415 . S
C3246 H3236 0.930 . S
C3246 C3244 1.419 . S
C3246 C3247 1.362 . S
C3247 H3237 0.930 . S
C3247 C3240 1.409 . S
C3247 C3246 1.362 . S
H3248 C3254 0.930 . S
H3249 C3257 0.930 . S
H3250 C3258 0.930 . S
H3251 C3259 0.930 . S
H3252 C3262 0.930 . S
H3253 C3263 0.930 . S
C3254 H3248 0.930 . S
C3254 C3255 1.355 . S
C3254 C3256 1.415 . S
C3255 C3254 1.355 . S
C3255 C3257 1.419 . S
C3256 C3254 1.415 . S
C3256 C3261 1.425 . S
C3256 C3263 1.409 . S
C3257 H3249 0.930 . S
C3257 C3255 1.419 . S
C3257 C3258 1.362 . S
C3258 H3250 0.930 . S
C3258 C3257 1.362 . S
C3258 C3261 1.409 . S
C3259 H3251 0.930 . S
C3259 C3260 1.355 . S
C3259 C3261 1.415 . S
C3260 C3259 1.355 . S
C3260 C3262 1.419 . S
C3261 C3256 1.425 . S
C3261 C3258 1.409 . S
C3261 C3259 1.415 . S
C3262 H3252 0.930 . S
C3262 C3260 1.419 . S
C3262 C3263 1.362 . S
C3263 H3253 0.930 . S
C3263 C3256 1.409 . S
C3263 C3262 1.362 . S
H3264 C3270 0.930 . S
H3265 C3273 0.930 . S
H3266 C3274 0.930 . S
H3267 C3275 0.930 . S
H3268 C3278 0.930 . S
H3269 C3279 0.930 . S
C3270 H3264 0.930 . S
C3270 C3271 1.355 . S
C3270 C3272 1.415 . S
C3271 C3270 1.355 . S
C3271 C3273 1.419 . S
C3272 C3270 1.415 . S
C3272 C3277 1.425 . S
C3272 C3279 1.409 . S
C3273 H3265 0.930 . S
C3273 C3271 1.419 . S
C3273 C3274 1.362 . S
C3274 H3266 0.930 . S
C3274 C3273 1.362 . S
C3274 C3277 1.409 . S
C3275 H3267 0.930 . S
C3275 C3276 1.355 . S
C3275 C3277 1.415 . S
C3276 C3275 1.355 . S
C3276 C3278 1.419 . S
C3277 C3272 1.425 . S
C3277 C3274 1.409 . S
C3277 C3275 1.415 . S
C3278 H3268 0.930 . S
C3278 C3276 1.419 . S
C3278 C3279 1.362 . S
C3279 H3269 0.930 . S
C3279 C3272 1.409 . S
C3279 C3278 1.362 . S
H3280 C3286 0.930 . S
H3281 C3289 0.930 . S
H3282 C3290 0.930 . S
H3283 C3291 0.930 . S
H3284 C3294 0.930 . S
H3285 C3295 0.930 . S
C3286 H3280 0.930 . S
C3286 C3287 1.355 . S
C3286 C3288 1.415 . S
C3287 C3286 1.355 . S
C3287 C3289 1.419 . S
C3288 C3286 1.415 . S
C3288 C3293 1.425 . S
C3288 C3295 1.409 . S
C3289 H3281 0.930 . S
C3289 C3287 1.419 . S
C3289 C3290 1.362 . S
C3290 H3282 0.930 . S
C3290 C3289 1.362 . S
C3290 C3293 1.409 . S
C3291 H3283 0.930 . S
C3291 C3292 1.355 . S
C3291 C3293 1.415 . S
C3292 C3291 1.355 . S
C3292 C3294 1.419 . S
C3293 C3288 1.425 . S
C3293 C3290 1.409 . S
C3293 C3291 1.415 . S
C3294 H3284 0.930 . S
C3294 C3292 1.419 . S
C3294 C3295 1.362 . S
C3295 H3285 0.930 . S
C3295 C3288 1.409 . S
C3295 C3294 1.362 . S
H3296 C3302 0.930 . S
H3297 C3305 0.930 . S
H3298 C3306 0.930 . S
H3299 C3307 0.930 . S
H3300 C3310 0.930 . S
H3301 C3311 0.930 . S
C3302 H3296 0.930 . S
C3302 C3303 1.355 . S
C3302 C3304 1.415 . S
C3303 C3302 1.355 . S
C3303 C3305 1.419 . S
C3304 C3302 1.415 . S
C3304 C3309 1.425 . S
C3304 C3311 1.409 . S
C3305 H3297 0.930 . S
C3305 C3303 1.419 . S
C3305 C3306 1.362 . S
C3306 H3298 0.930 . S
C3306 C3305 1.362 . S
C3306 C3309 1.409 . S
C3307 H3299 0.930 . S
C3307 C3308 1.355 . S
C3307 C3309 1.415 . S
C3308 C3307 1.355 . S
C3308 C3310 1.419 . S
C3309 C3304 1.425 . S
C3309 C3306 1.409 . S
C3309 C3307 1.415 . S
C3310 H3300 0.930 . S
C3310 C3308 1.419 . S
C3310 C3311 1.362 . S
C3311 H3301 0.930 . S
C3311 C3304 1.409 . S
C3311 C3310 1.362 . S
H3312 C3318 0.930 . S
H3313 C3321 0.930 . S
H3314 C3322 0.930 . S
H3315 C3323 0.930 . S
H3316 C3326 0.930 . S
H3317 C3327 0.930 . S
C3318 H3312 0.930 . S
C3318 C3319 1.355 . S
C3318 C3320 1.415 . S
C3319 C3318 1.355 . S
C3319 C3321 1.419 . S
C3320 C3318 1.415 . S
C3320 C3325 1.425 . S
C3320 C3327 1.409 . S
C3321 H3313 0.930 . S
C3321 C3319 1.419 . S
C3321 C3322 1.362 . S
C3322 H3314 0.930 . S
C3322 C3321 1.362 . S
C3322 C3325 1.409 . S
C3323 H3315 0.930 . S
C3323 C3324 1.355 . S
C3323 C3325 1.415 . S
C3324 C3323 1.355 . S
C3324 C3326 1.419 . S
C3325 C3320 1.425 . S
C3325 C3322 1.409 . S
C3325 C3323 1.415 . S
C3326 H3316 0.930 . S
C3326 C3324 1.419 . S
C3326 C3327 1.362 . S
C3327 H3317 0.930 . S
C3327 C3320 1.409 . S
C3327 C3326 1.362 . S
H3328 C3334 0.930 . S
H3329 C3337 0.930 . S
H3330 C3338 0.930 . S
H3331 C3339 0.930 . S
H3332 C3342 0.930 . S
H3333 C3343 0.930 . S
C3334 H3328 0.930 . S
C3334 C3335 1.355 . S
C3334 C3336 1.415 . S
C3335 C3334 1.355 . S
C3335 C3337 1.419 . S
C3336 C3334 1.415 . S
C3336 C3341 1.425 . S
C3336 C3343 1.409 . S
C3337 H3329 0.930 . S
C3337 C3335 1.419 . S
C3337 C3338 1.362 . S
C3338 H3330 0.930 . S
C3338 C3337 1.362 . S
C3338 C3341 1.409 . S
C3339 H3331 0.930 . S
C3339 C3340 1.355 . S
C3339 C3341 1.415 . S
C3340 C3339 1.355 . S
C3340 C3342 1.419 . S
C3341 C3336 1.425 . S
C3341 C3338 1.409 . S
C3341 C3339 1.415 . S
C3342 H3332 0.930 . S
C3342 C3340 1.419 . S
C3342 C3343 1.362 . S
C3343 H3333 0.930 . S
C3343 C3336 1.409 . S
C3343 C3342 1.362 . S
H3344 C3350 0.930 . S
H3345 C3353 0.930 . S
H3346 C3354 0.930 . S
H3347 C3355 0.930 . S
H3348 C3358 0.930 . S
H3349 C3359 0.930 . S
C3350 H3344 0.930 . S
C3350 C3351 1.355 . S
C3350 C3352 1.415 . S
C3351 C3350 1.355 . S
C3351 C3353 1.419 . S
C3352 C3350 1.415 . S
C3352 C3357 1.425 . S
C3352 C3359 1.409 . S
C3353 H3345 0.930 . S
C3353 C3351 1.419 . S
C3353 C3354 1.362 . S
C3354 H3346 0.930 . S
C3354 C3353 1.362 . S
C3354 C3357 1.409 . S
C3355 H3347 0.930 . S
C3355 C3356 1.355 . S
C3355 C3357 1.415 . S
C3356 C3355 1.355 . S
C3356 C3358 1.419 . S
C3357 C3352 1.425 . S
C3357 C3354 1.409 . S
C3357 C3355 1.415 . S
C3358 H3348 0.930 . S
C3358 C3356 1.419 . S
C3358 C3359 1.362 . S
C3359 H3349 0.930 . S
C3359 C3352 1.409 . S
C3359 C3358 1.362 . S
H3360 C3366 0.930 . S
H3361 C3369 0.930 . S
H3362 C3370 0.930 . S
H3363 C3371 0.930 . S
H3364 C3374 0.930 . S
H3365 C3375 0.930 . S
C3366 H3360 0.930 . S
C3366 C3367 1.355 . S
C3366 C3368 1.415 . S
C3367 C3366 1.355 . S
C3367 C3369 1.419 . S
C3368 C3366 1.415 . S
C3368 C3373 1.425 . S
C3368 C3375 1.409 . S
C3369 H3361 0.930 . S
C3369 C3367 1.419 . S
C3369 C3370 1.362 . S
C3370 H3362 0.930 . S
C3370 C3369 1.362 . S
C3370 C3373 1.409 . S
C3371 H3363 0.930 . S
C3371 C3372 1.355 . S
C3371 C3373 1.415 . S
C3372 C3371 1.355 . S
C3372 C3374 1.419 . S
C3373 C3368 1.425 . S
C3373 C3370 1.409 . S
C3373 C3371 1.415 . S
C3374 H3364 0.930 . S
C3374 C3372 1.419 . S
C3374 C3375 1.362 . S
C3375 H3365 0.930 . S
C3375 C3368 1.409 . S
C3375 C3374 1.362 . S
H3376 C3382 0.930 . S
H3377 C3385 0.930 . S
H3378 C3386 0.930 . S
H3379 C3387 0.930 . S
H3380 C3390 0.930 . S
H3381 C3391 0.930 . S
C3382 H3376 0.930 . S
C3382 C3383 1.355 . S
C3382 C3384 1.415 . S
C3383 C3382 1.355 . S
C3383 C3385 1.419 . S
C3384 C3382 1.415 . S
C3384 C3389 1.425 . S
C3384 C3391 1.409 . S
C3385 H3377 0.930 . S
C3385 C3383 1.419 . S
C3385 C3386 1.362 . S
C3386 H3378 0.930 . S
C3386 C3385 1.362 . S
C3386 C3389 1.409 . S
C3387 H3379 0.930 . S
C3387 C3388 1.355 . S
C3387 C3389 1.415 . S
C3388 C3387 1.355 . S
C3388 C3390 1.419 . S
C3389 C3384 1.425 . S
C3389 C3386 1.409 . S
C3389 C3387 1.415 . S
C3390 H3380 0.930 . S
C3390 C3388 1.419 . S
C3390 C3391 1.362 . S
C3391 H3381 0.930 . S
C3391 C3384 1.409 . S
C3391 C3390 1.362 . S
H3392 C3398 0.930 . S
H3393 C3401 0.930 . S
H3394 C3402 0.930 . S
H3395 C3403 0.930 . S
H3396 C3406 0.930 . S
H3397 C3407 0.930 . S
C3398 H3392 0.930 . S
C3398 C3399 1.355 . S
C3398 C3400 1.415 . S
C3399 C3398 1.355 . S
C3399 C3401 1.419 . S
C3400 C3398 1.415 . S
C3400 C3405 1.425 . S
C3400 C3407 1.409 . S
C3401 H3393 0.930 . S
C3401 C3399 1.419 . S
C3401 C3402 1.362 . S
C3402 H3394 0.930 . S
C3402 C3401 1.362 . S
C3402 C3405 1.409 . S
C3403 H3395 0.930 . S
C3403 C3404 1.355 . S
C3403 C3405 1.415 . S
C3404 C3403 1.355 . S
C3404 C3406 1.419 . S
C3405 C3400 1.425 . S
C3405 C3402 1.409 . S
C3405 C3403 1.415 . S
C3406 H3396 0.930 . S
C3406 C3404 1.419 . S
C3406 C3407 1.362 . S
C3407 H3397 0.930 . S
C3407 C3400 1.409 . S
C3407 C3406 1.362 . S
H3408 C3414 0.930 . S
H3409 C3417 0.930 . S
H3410 C3418 0.930 . S
H3411 C3419 0.930 . S
H3412 C3422 0.930 . S
H3413 C3423 0.930 . S
C3414 H3408 0.930 . S
C3414 C3415 1.355 . S
C3414 C3416 1.415 . S
C3415 C3414 1.355 . S
C3415 C3417 1.419 . S
C3416 C3414 1.415 . S
C3416 C3421 1.425 . S
C3416 C3423 1.409 . S
C3417 H3409 0.930 . S
C3417 C3415 1.419 . S
C3417 C3418 1.362 . S
C3418 H3410 0.930 . S
C3418 C3417 1.362 . S
C3418 C3421 1.409 . S
C3419 H3411 0.930 . S
C3419 C3420 1.355 . S
C3419 C3421 1.415 . S
C3420 C3419 1.355 . S
C3420 C3422 1.419 . S
C3421 C3416 1.425 . S
C3421 C3418 1.409 . S
C3421 C3419 1.415 . S
C3422 H3412 0.930 . S
C3422 C3420 1.419 . S
C3422 C3423 1.362 . S
C3423 H3413 0.930 . S
C3423 C3416 1.409 . S
C3423 C3422 1.362 . S
H3424 C3430 0.930 . S
H3425 C3433 0.930 . S
H3426 C3434 0.930 . S
H3427 C3435 0.930 . S
H3428 C3438 0.930 . S
H3429 C3439 0.930 . S
C3430 H3424 0.930 . S
C3430 C3431 1.355 . S
C3430 C3432 1.415 . S
C3431 C3430 1.355 . S
C3431 C3433 1.419 . S
C3432 C3430 1.415 . S
C3432 C3437 1.425 . S
C3432 C3439 1.409 . S
C3433 H3425 0.930 . S
C3433 C3431 1.419 . S
C3433 C3434 1.362 . S
C3434 H3426 0.930 . S
C3434 C3433 1.362 . S
C3434 C3437 1.409 . S
C3435 H3427 0.930 . S
C3435 C3436 1.355 . S
C3435 C3437 1.415 . S
C3436 C3435 1.355 . S
C3436 C3438 1.419 . S
C3437 C3432 1.425 . S
C3437 C3434 1.409 . S
C3437 C3435 1.415 . S
C3438 H3428 0.930 . S
C3438 C3436 1.419 . S
C3438 C3439 1.362 . S
C3439 H3429 0.930 . S
C3439 C3432 1.409 . S
C3439 C3438 1.362 . S
H3440 C3446 0.930 . S
H3441 C3449 0.930 . S
H3442 C3450 0.930 . S
H3443 C3451 0.930 . S
H3444 C3454 0.930 . S
H3445 C3455 0.930 . S
C3446 H3440 0.930 . S
C3446 C3447 1.355 . S
C3446 C3448 1.415 . S
C3447 C3446 1.355 . S
C3447 C3449 1.419 . S
C3448 C3446 1.415 . S
C3448 C3453 1.425 . S
C3448 C3455 1.409 . S
C3449 H3441 0.930 . S
C3449 C3447 1.419 . S
C3449 C3450 1.362 . S
C3450 H3442 0.930 . S
C3450 C3449 1.362 . S
C3450 C3453 1.409 . S
C3451 H3443 0.930 . S
C3451 C3452 1.355 . S
C3451 C3453 1.415 . S
C3452 C3451 1.355 . S
C3452 C3454 1.419 . S
C3453 C3448 1.425 . S
C3453 C3450 1.409 . S
C3453 C3451 1.415 . S
C3454 H3444 0.930 . S
C3454 C3452 1.419 . S
C3454 C3455 1.362 . S
C3455 H3445 0.930 . S
C3455 C3448 1.409 . S
C3455 C3454 1.362 . S
H3456 C3462 0.930 . S
H3457 C3465 0.930 . S
H3458 C3466 0.930 . S
H3459 C3467 0.930 . S
H3460 C3470 0.930 . S
H3461 C3471 0.930 . S
C3462 H3456 0.930 . S
C3462 C3463 1.355 . S
C3462 C3464 1.415 . S
C3463 C3462 1.355 . S
C3463 C3465 1.419 . S
C3464 C3462 1.415 . S
C3464 C3469 1.425 . S
C3464 C3471 1.409 . S
C3465 H3457 0.930 . S
C3465 C3463 1.419 . S
C3465 C3466 1.362 . S
C3466 H3458 0.930 . S
C3466 C3465 1.362 . S
C3466 C3469 1.409 . S
C3467 H3459 0.930 . S
C3467 C3468 1.355 . S
C3467 C3469 1.415 . S
C3468 C3467 1.355 . S
C3468 C3470 1.419 . S
C3469 C3464 1.425 . S
C3469 C3466 1.409 . S
C3469 C3467 1.415 . S
C3470 H3460 0.930 . S
C3470 C3468 1.419 . S
C3470 C3471 1.362 . S
C3471 H3461 0.930 . S
C3471 C3464 1.409 . S
C3471 C3470 1.362 . S
H3472 C3478 0.930 . S
H3473 C3481 0.930 . S
H3474 C3482 0.930 . S
H3475 C3483 0.930 . S
H3476 C3486 0.930 . S
H3477 C3487 0.930 . S
C3478 H3472 0.930 . S
C3478 C3479 1.355 . S
C3478 C3480 1.415 . S
C3479 C3478 1.355 . S
C3479 C3481 1.419 . S
C3480 C3478 1.415 . S
C3480 C3485 1.425 . S
C3480 C3487 1.409 . S
C3481 H3473 0.930 . S
C3481 C3479 1.419 . S
C3481 C3482 1.362 . S
C3482 H3474 0.930 . S
C3482 C3481 1.362 . S
C3482 C3485 1.409 . S
C3483 H3475 0.930 . S
C3483 C3484 1.355 . S
C3483 C3485 1.415 . S
C3484 C3483 1.355 . S
C3484 C3486 1.419 . S
C3485 C3480 1.425 . S
C3485 C3482 1.409 . S
C3485 C3483 1.415 . S
C3486 H3476 0.930 . S
C3486 C3484 1.419 . S
C3486 C3487 1.362 . S
C3487 H3477 0.930 . S
C3487 C3480 1.409 . S
C3487 C3486 1.362 . S
H3488 C3494 0.930 . S
H3489 C3497 0.930 . S
H3490 C3498 0.930 . S
H3491 C3499 0.930 . S
H3492 C3502 0.930 . S
H3493 C3503 0.930 . S
C3494 H3488 0.930 . S
C3494 C3495 1.355 . S
C3494 C3496 1.415 . S
C3495 C3494 1.355 . S
C3495 C3497 1.419 . S
C3496 C3494 1.415 . S
C3496 C3501 1.425 . S
C3496 C3503 1.409 . S
C3497 H3489 0.930 . S
C3497 C3495 1.419 . S
C3497 C3498 1.362 . S
C3498 H3490 0.930 . S
C3498 C3497 1.362 . S
C3498 C3501 1.409 . S
C3499 H3491 0.930 . S
C3499 C3500 1.355 . S
C3499 C3501 1.415 . S
C3500 C3499 1.355 . S
C3500 C3502 1.419 . S
C3501 C3496 1.425 . S
C3501 C3498 1.409 . S
C3501 C3499 1.415 . S
C3502 H3492 0.930 . S
C3502 C3500 1.419 . S
C3502 C3503 1.362 . S
C3503 H3493 0.930 . S
C3503 C3496 1.409 . S
C3503 C3502 1.362 . S
C1591 N530 1.277 . S
C1596 C21 1.264 . S
C1607 N1553 1.289 . S
C1612 C54 1.228 . S
C1623 C87 1.249 . S
C1628 N1487 1.274 . S
C1639 C120 1.205 . S
C1644 N1520 1.293 . S
C1655 C153 1.243 . S
C1660 N563 1.274 . S
C1671 N596 1.284 . S
C1676 C186 1.177 . S
C1687 N629 1.287 . S
C1692 C219 1.239 . S
C1703 N1454 1.295 . S
C1708 C252 1.184 . S
C1719 C285 1.247 . S
C1724 N2 1.274 . S
C1735 N35 1.274 . S
C1740 C318 1.242 . S
C1751 C351 1.246 . S
C1756 N68 1.285 . S
C1767 N101 1.285 . S
C1772 C384 1.247 . S
C1783 C417 1.241 . S
C1788 N134 1.274 . S
C1799 C450 1.262 . S
C1804 N167 1.279 . S
C1815 N200 1.288 . S
C1820 C483 1.231 . S
C1831 N233 1.278 . S
C1836 C516 1.264 . S
C1847 N266 1.277 . S
C1852 C549 1.212 . S
C1863 N398 1.274 . S
C1868 C582 1.258 . S
C1879 N431 1.275 . S
C1884 C615 1.229 . S
C1895 N464 1.292 . S
C1900 C648 1.207 . S
C1911 N1289 1.294 . S
C1916 C681 1.155 . S
C1927 C714 1.261 . S
C1932 N1124 1.280 . S
C1943 N1157 1.274 . S
C1948 C747 1.261 . S
C1959 C780 1.231 . S
C1964 N1091 1.288 . S
C1975 C813 1.253 . S
C1980 N1322 1.283 . S
C1991 C846 1.209 . S
C1996 N761 1.292 . S
C2007 N695 1.274 . S
C2012 C879 1.256 . S
C2023 N728 1.293 . S
C2028 C912 1.206 . S
C2039 N1355 1.293 . S
C2044 C945 1.205 . S
C2055 C978 1.263 . S
C2060 N1388 1.278 . S
C2071 N1421 1.294 . S
C2076 C1011 1.156 . S
C2087 C1044 1.207 . S
C2092 N662 1.293 . S
C2103 N794 1.293 . S
C2108 C1077 1.154 . S
C2119 N827 1.275 . S
C2124 C1110 1.262 . S
C2135 C1143 1.186 . S
C2140 N860 1.295 . S
C2151 C1176 1.262 . S
C2156 N893 1.279 . S
C2167 C1209 1.161 . S
C2172 N926 1.295 . S
C2183 N959 1.292 . S
C2188 C1242 1.213 . S
C2199 C1275 1.166 . S
C2204 N992 1.287 . S
C2215 N1025 1.274 . S
C2220 C1308 1.254 . S
C2231 N1058 1.279 . S
C2236 C1341 1.261 . S
C2247 C1374 1.197 . S
C2252 N1190 1.294 . S
C2263 N1223 1.278 . S
C2268 C1407 1.263 . S
C2279 N1256 1.279 . S
C2284 C1440 1.262 . S
C2295 C1473 1.213 . S
C2300 N497 1.292 . S
C2311 C1506 1.189 . S
C2316 N332 1.281 . S
C2327 C1539 1.226 . S
C2332 N365 1.289 . S
C2343 N299 1.284 . S
C2348 C1572 1.176 . S
C2359 C7 0.705 . S
C2364 C139 0.787 . S
C2375 C40 0.765 . S
C2380 C172 0.837 . S
C2391 C205 0.753 . S
C2396 C73 0.836 . S
C2407 C238 0.782 . S
C2412 C106 0.835 . S
C2423 C1261 0.821 . S
C2428 C271 0.722 . S
C2439 C1294 0.717 . S
C2444 C304 0.816 . S
C2455 C1195 0.829 . S
C2460 C337 0.800 . S
C2471 C370 0.711 . S
C2476 C1228 0.808 . S
C2487 C403 0.716 . S
C2492 C1129 0.742 . S
C2503 C436 0.787 . S
C2508 C1162 0.834 . S
C2519 C469 0.807 . S
C2524 C1063 0.824 . S
C2535 C502 0.778 . S
C2540 C1096 0.704 . S
C2551 C1492 0.722 . S
C2556 C535 0.735 . S
C2567 C634 0.784 . S
C2572 C568 0.704 . S
C2583 C1459 0.704 . S
C2588 C601 0.775 . S
C2599 C1393 0.748 . S
C2604 C667 0.713 . S
C2615 C700 0.818 . S
C2620 C1327 0.719 . S
C2631 C733 0.812 . S
C2636 C766 0.821 . S
C2647 C931 0.822 . S
C2652 C799 0.724 . S
C2663 C964 0.796 . S
C2668 C832 0.706 . S
C2679 C865 0.787 . S
C2684 C997 0.705 . S
C2695 C1030 0.830 . S
C2700 C898 0.736 . S
C2711 C1360 0.833 . S
C2716 C1426 0.791 . S
C2727 C1558 0.710 . S
C2732 C1525 0.754 . S
C2743 C18 1.398 . S
C2748 N904 1.409 . S
C2759 C51 1.410 . S
C2764 N805 1.386 . S
C2775 C84 1.396 . S
C2780 N838 1.374 . S
C2791 N871 1.411 . S
C2796 C117 1.401 . S
C2807 C150 1.403 . S
C2812 N178 1.411 . S
C2823 N211 1.399 . S
C2828 C183 1.392 . S
C2839 N244 1.372 . S
C2844 C216 1.399 . S
C2855 C249 1.410 . S
C2860 N145 1.399 . S
C2871 N1399 1.403 . S
C2876 C282 1.409 . S
C2887 C315 1.408 . S
C2892 N1432 1.381 . S
C2903 N673 1.373 . S
C2908 C348 1.398 . S
C2919 C381 1.401 . S
C2924 N1366 1.372 . S
C2935 C414 1.400 . S
C2940 N1531 1.411 . S
C2951 C447 1.394 . S
C2956 N541 1.376 . S
C2967 N1564 1.389 . S
C2972 C480 1.410 . S
C2983 N1498 1.373 . S
C2988 C513 1.397 . S
C2999 N310 1.374 . S
C3004 C546 1.396 . S
C3015 C579 1.408 . S
C3020 N1300 1.405 . S
C3031 C612 1.391 . S
C3036 N1201 1.386 . S
C3047 C645 1.397 . S
C3052 N1234 1.373 . S
C3063 N475 1.398 . S
C3068 C678 1.392 . S
C3079 C711 1.393 . S
C3084 N1168 1.401 . S
C3095 C744 1.401 . S
C3100 N1069 1.411 . S
C3111 N1135 1.383 . S
C3116 C777 1.409 . S
C3127 C810 1.398 . S
C3132 N112 1.373 . S
C3143 C843 1.409 . S
C3148 N13 1.384 . S
C3159 C876 1.402 . S
C3164 N46 1.373 . S
C3175 C909 1.405 . S
C3180 N79 1.374 . S
C3191 C942 1.407 . S
C3196 N970 1.407 . S
C3207 C975 1.405 . S
C3212 N1003 1.375 . S
C3223 C1008 1.400 . S
C3228 N1036 1.411 . S
C3239 N937 1.389 . S
C3244 C1041 1.410 . S
C3255 C1074 1.399 . S
C3260 N607 1.410 . S
C3271 C1107 1.407 . S
C3276 N640 1.407 . S
C3287 C1140 1.391 . S
C3292 N1465 1.392 . S
C3303 N574 1.374 . S
C3308 C1173 1.404 . S
C3319 N739 1.390 . S
C3324 C1206 1.410 . S
C3335 C1239 1.392 . S
C3340 N1333 1.382 . S
C3351 C1272 1.410 . S
C3356 N772 1.397 . S
C3367 C1305 1.411 . S
C3372 N706 1.392 . S
C3383 N1102 1.395 . S
C3388 C1338 1.411 . S
C3399 C1371 1.405 . S
C3404 N508 1.375 . S
C3415 C1404 1.402 . S
C3420 N409 1.373 . S
C3431 C1437 1.398 . S
C3436 N442 1.373 . S
C3447 N1267 1.379 . S
C3452 C1470 1.408 . S
C3463 N376 1.393 . S
C3468 C1503 1.411 . S
C3479 N277 1.374 . S
C3484 C1536 1.404 . S
C3495 N343 1.380 . S
C3500 C1569 1.408 . S
