# Generated by pormake.
# Topology fnu, (5)-cn, num edge types: 1
# Building blocks:
#     Node 0, Type 0, BuildingBlock: BEQFEK_clean_sbu_0, # of connection points: 5
#     Node 1, Type 0, BuildingBlock: BEQFEK_clean_sbu_0, # of connection points: 5
#     Node 2, Type 0, BuildingBlock: BEQFEK_clean_sbu_0, # of connection points: 5
#     Node 3, Type 0, BuildingBlock: BEQFEK_clean_sbu_0, # of connection points: 5
#     Node 4, Type 0, BuildingBlock: BEQFEK_clean_sbu_0, # of connection points: 5
#     Node 5, Type 0, BuildingBlock: BEQFEK_clean_sbu_0, # of connection points: 5
#     Edge 6, Type (0, 0), BuildingBlock: XUDNAN_clean_linker_2, # of connection points: 2
#     Edge 7, Type (0, 0), BuildingBlock: XUDNAN_clean_linker_2, # of connection points: 2
#     Edge 8, Type (0, 0), BuildingBlock: XUDNAN_clean_linker_2, # of connection points: 2
#     Edge 9, Type (0, 0), BuildingBlock: XUDNAN_clean_linker_2, # of connection points: 2
#     Edge 10, Type (0, 0), BuildingBlock: XUDNAN_clean_linker_2, # of connection points: 2
#     Edge 11, Type (0, 0), BuildingBlock: XUDNAN_clean_linker_2, # of connection points: 2
#     Edge 12, Type (0, 0), BuildingBlock: XUDNAN_clean_linker_2, # of connection points: 2
#     Edge 13, Type (0, 0), BuildingBlock: XUDNAN_clean_linker_2, # of connection points: 2
#     Edge 14, Type (0, 0), BuildingBlock: XUDNAN_clean_linker_2, # of connection points: 2
#     Edge 15, Type (0, 0), BuildingBlock: XUDNAN_clean_linker_2, # of connection points: 2
#     Edge 16, Type (0, 0), BuildingBlock: XUDNAN_clean_linker_2, # of connection points: 2
#     Edge 17, Type (0, 0), BuildingBlock: XUDNAN_clean_linker_2, # of connection points: 2
#     Edge 18, Type (0, 0), BuildingBlock: XUDNAN_clean_linker_2, # of connection points: 2
#     Edge 19, Type (0, 0), BuildingBlock: XUDNAN_clean_linker_2, # of connection points: 2
#     Edge 20, Type (0, 0), BuildingBlock: XUDNAN_clean_linker_2, # of connection points: 2
# Relax obj value: 0.175
# Max RMSD: 0.165
# Mean RMSD: 0.165
data_MOF--net-fnu--node1-BEQFEK_clean_sbu_0--edge1-XUDNAN_clean_linker_2
_symmetry_space_group_name_H-M    P1
_symmetry_Int_Tables_number       1
_symmetry_cell_setting            triclinic
loop_
_symmetry_equiv_pos_as_xyz
'x, y, z'
_cell_length_a     24.524302
_cell_length_b     28.954096
_cell_length_c     36.372563
_cell_angle_alpha  89.909607
_cell_angle_beta   97.088262
_cell_angle_gamma 126.14154
loop_
_atom_site_label
_atom_site_type_symbol
_atom_site_fract_x
_atom_site_fract_y
_atom_site_fract_z
_atom_type_partial_charge
Co0 Co 1.03123 0.02829 0.18757 0.0
Co1 Co 0.07249 0.05368 0.27351 0.0
C2 C 1.00986 0.9371 0.23562 0.0
O3 O 1.0068 0.95599 0.20474 0.0
O4 O 0.03449 0.96944 0.2659 0.0
C5 C 0.92468 0.96019 0.12943 0.0
O6 O 0.89306 0.93018 0.1566 0.0
C7 C 0.05995 0.04075 0.35332 0.0
C8 C 0.14074 0.12836 0.3793 0.0
C9 C 0.09039 0.07333 0.38751 0.0
N10 N 0.09122 0.07479 0.32632 0.0
N11 N 0.13951 0.12715 0.34213 0.0
C12 C 0.99961 0.97907 0.34598 0.0
H13 H 0.96869 0.97212 0.31875 0.0
H14 H 0.96733 0.96566 0.36831 0.0
H15 H 1.01786 0.95206 0.34482 0.0
C16 C 0.96636 0.08327 0.19831 0.0
N17 N 0.99646 0.05935 0.21269 0.0
N18 N 1.01419 0.07252 0.24882 0.0
C19 C 0.99661 0.10681 0.25843 0.0
C20 C 0.96487 0.11402 0.22668 0.0
C21 C 0.95182 0.0861 0.15737 0.0
H22 H 0.99593 0.09741 0.1439 0.0
H23 H 0.90627 0.04346 0.1449 0.0
H24 H 0.94156 0.11807 0.15134 0.0
O25 O 0.13274 0.08333 0.19107 0.0
O26 O 0.16101 0.09873 0.25272 0.0
H27 H 0.07407 0.17157 0.3004 0.0
H28 H 0.99241 0.15934 0.29835 0.0
C29 C 1.01793 0.13833 0.29593 0.0
H30 H 1.00523 0.10806 0.31773 0.0
H31 H 0.17177 0.16209 0.32753 0.0
O32 O 0.98571 1.00562 0.13648 0.0
C33 C 0.17795 0.10702 0.2201 0.0
Co34 Co 0.07094 0.99225 0.844 0.0
Co35 Co 1.02774 0.99661 0.76153 0.0
C36 C 0.08921 0.93342 0.78846 0.0
O37 O 0.10196 0.95438 0.82143 0.0
O38 O 0.05682 0.94221 0.76249 0.0
C39 C 0.05351 0.94032 0.90601 0.0
O40 O 0.03261 0.89836 0.88091 0.0
C41 C 0.0442 1.00876 0.68179 0.0
C42 C 0.98107 0.03766 0.66185 0.0
C43 C 1.02166 0.02363 0.65012 0.0
N44 N 1.0176 1.01324 0.71069 0.0
N45 N 0.97997 0.03063 0.69848 0.0
C46 C 0.09325 0.99366 0.68515 0.0
H47 H 0.12675 1.0116 0.7125 0.0
H48 H 0.12517 1.01035 0.66258 0.0
H49 H 0.06412 0.94624 0.68347 0.0
C50 C 0.148 0.11567 0.84787 0.0
N51 N 0.1098 0.06434 0.82818 0.0
N52 N 0.09302 0.06904 0.79335 0.0
C53 C 0.12141 0.12539 0.78989 0.0
C54 C 0.15763 0.15681 0.82439 0.0
C55 C 0.1655 0.12274 0.88943 0.0
H56 H 0.20062 0.1109 0.89748 0.0
H57 H 0.18904 0.16686 0.90142 0.0
H58 H 0.11825 0.09295 0.90162 0.0
O59 O 0.97196 0.94994 0.83602 0.0
O60 O 0.93422 0.95429 0.77875 0.0
H61 H 0.14921 0.19588 0.75643 0.0
H62 H 0.11833 0.12897 0.73094 0.0
C63 C 0.11206 0.14842 0.75479 0.0
H64 H 0.05948 0.13645 0.74997 0.0
H65 H 0.95322 0.03747 0.71514 0.0
O66 O 0.08888 0.99161 0.89702 0.0
C67 C 0.92322 0.9385 0.81148 0.0
Co68 Co 0.6542 0.3189 0.51211 0.0
Co69 Co 0.70201 0.35702 0.59853 0.0
C70 C 0.64929 0.23972 0.56655 0.0
O71 O 0.64524 0.25507 0.53446 0.0
O72 O 0.66719 0.27292 0.59568 0.0
C73 C 0.61391 0.27767 0.43196 0.0
O74 O 0.56552 0.24419 0.40409 0.0
C75 C 0.70097 0.35512 0.68108 0.0
C76 C 0.7692 0.44736 0.70013 0.0
C77 C 0.72984 0.39341 0.71304 0.0
N78 N 0.72288 0.38511 0.65103 0.0
N79 N 0.76364 0.44029 0.66285 0.0
C80 C 0.64984 0.29128 0.67872 0.0
H81 H 0.6127 0.27605 0.65276 0.0
H82 H 0.62202 0.27769 0.70301 0.0
H83 H 0.67673 0.27118 0.67799 0.0
C84 C 0.57555 0.36135 0.52066 0.0
N85 N 0.61556 0.34715 0.53648 0.0
N86 N 0.63412 0.36475 0.57215 0.0
C87 C 0.60497 0.3907 0.58007 0.0
C88 C 0.5662 0.38868 0.5476 0.0
C89 C 0.55634 0.3572 0.47937 0.0
H90 H 0.6002 0.36945 0.46536 0.0
H91 H 0.51302 0.31219 0.46946 0.0
H92 H 0.54156 0.38575 0.47123 0.0
O93 O 0.75105 0.38091 0.51296 0.0
O94 O 0.78943 0.40586 0.57389 0.0
H95 H 0.66926 0.4602 0.62209 0.0
H96 H 0.57953 0.42909 0.61893 0.0
C97 C 0.61684 0.41947 0.6173 0.0
H98 H 0.61295 0.39161 0.63938 0.0
H99 H 0.78776 0.47329 0.64541 0.0
O100 O 0.59743 0.28108 0.46294 0.0
C101 C 0.79966 0.41144 0.53981 0.0
Co102 Co 0.79929 0.40524 0.18503 0.0
Co103 Co 0.74283 0.38869 0.09924 0.0
C104 C 0.82103 0.34288 0.13203 0.0
O105 O 0.82904 0.36477 0.16401 0.0
O106 O 0.78799 0.34698 0.10377 0.0
C107 C 0.87352 0.40929 0.25482 0.0
O108 O 0.88561 0.37818 0.23621 0.0
C109 C 0.74414 0.38531 0.01677 0.0
C110 C 0.66969 0.40217 0.99581 0.0
C111 C 0.7126 0.39073 0.98404 0.0
N112 N 0.72038 0.39258 0.0462 0.0
N113 N 0.6759 0.40272 0.03323 0.0
C114 C 0.79915 0.37695 0.0203 0.0
H115 H 0.83685 0.40245 0.04555 0.0
H116 H 0.82571 0.39009 0.99554 0.0
H117 H 0.77609 0.33095 0.02322 0.0
C118 C 0.86282 0.52451 0.17533 0.0
N119 N 0.82562 0.46997 0.16066 0.0
N120 N 0.80379 0.46619 0.12505 0.0
C121 C 0.82776 0.52001 0.11606 0.0
C122 C 0.86648 0.55859 0.14773 0.0
C123 C 0.88815 0.54223 0.21613 0.0
H124 H 0.92797 0.53569 0.22482 0.0
H125 H 0.90941 0.58761 0.22344 0.0
H126 H 0.84526 0.51486 0.23194 0.0
O127 O 0.70059 0.3555 0.18183 0.0
O128 O 0.65408 0.3419 0.12283 0.0
H129 H 0.84556 0.58115 0.07619 0.0
H130 H 0.82157 0.5126 0.05692 0.0
C131 C 0.81302 0.53407 0.07831 0.0
H132 H 0.75854 0.51734 0.07288 0.0
H133 H 0.6495 0.40991 0.04996 0.0
O134 O 0.83909 0.4251 0.23821 0.0
C135 C 0.64805 0.33331 0.1572 0.0
Co136 Co 0.30736 0.61636 0.84355 0.0
Co137 Co 0.35073 0.65735 0.92965 0.0
C138 C 0.29603 0.53839 0.90173 0.0
O139 O 0.29161 0.55207 0.86908 0.0
O140 O 0.31833 0.57429 0.93 0.0
C141 C 0.26744 0.5838 0.76291 0.0
O142 O 0.22003 0.55403 0.73393 0.0
C143 C 0.35982 0.67366 1.01367 0.0
C144 C 0.44262 0.76651 0.023 0.0
C145 C 0.40058 0.71886 0.04171 0.0
N146 N 0.37769 0.69407 0.98028 0.0
N147 N 0.42677 0.74979 0.9864 0.0
C148 C 0.30763 0.61184 0.01888 0.0
H149 H 0.29515 0.58399 0.99373 0.0
H150 H 0.26021 0.60566 0.02417 0.0
H151 H 0.32626 0.59908 0.0433 0.0
C152 C 0.23236 0.66382 0.84767 0.0
N153 N 0.27049 0.64882 0.86516 0.0
N154 N 0.28558 0.66572 0.90087 0.0
C155 C 0.25703 0.69282 0.90698 0.0
C156 C 0.22151 0.69157 0.87336 0.0
C157 C 0.21501 0.65883 0.80621 0.0
H158 H 0.2602 0.67171 0.79333 0.0
H159 H 0.17281 0.6135 0.79632 0.0
H160 H 0.19918 0.68633 0.79697 0.0
O161 O 0.40749 0.67513 0.84362 0.0
O162 O 0.43551 0.70042 0.90468 0.0
H163 H 0.3206 0.76236 0.94903 0.0
H164 H 0.23142 0.73394 0.9434 0.0
C165 C 0.26746 0.72256 0.94349 0.0
H166 H 0.26065 0.69458 0.96608 0.0
H167 H 0.4508 0.77635 0.96552 0.0
O168 O 0.25053 0.57699 0.79499 0.0
C169 C 0.45239 0.70509 0.87213 0.0
Co170 Co 0.41507 0.70589 0.51187 0.0
Co171 Co 0.37229 0.69106 0.42513 0.0
C172 C 0.43233 0.63383 0.46499 0.0
O173 O 0.43974 0.658 0.49602 0.0
O174 O 0.40584 0.64107 0.43502 0.0
C175 C 0.50352 0.73234 0.58132 0.0
O176 O 0.53831 0.72251 0.56221 0.0
C177 C 0.39561 0.70594 0.34542 0.0
C178 C 0.29586 0.6814 0.31738 0.0
C179 C 0.35945 0.69881 0.31028 0.0
N180 N 0.35515 0.69348 0.37153 0.0
N181 N 0.29569 0.67899 0.35438 0.0
C182 C 0.4659 0.72117 0.35426 0.0
H183 H 0.47263 0.70692 0.38167 0.0
H184 H 0.50383 0.76851 0.35575 0.0
H185 H 0.47569 0.70141 0.33232 0.0
C186 C 0.487 0.82659 0.50057 0.0
N187 N 0.45366 0.77213 0.48622 0.0
N188 N 0.433 0.76778 0.4504 0.0
C189 C 0.44998 0.81976 0.44144 0.0
C190 C 0.48535 0.85889 0.47305 0.0
C191 C 0.50998 0.84545 0.54134 0.0
H192 H 0.46495 0.82269 0.55614 0.0
H193 H 0.54482 0.83448 0.55235 0.0
H194 H 0.53753 0.89242 0.547 0.0
O195 O 0.31308 0.66125 0.50583 0.0
O196 O 0.28318 0.65274 0.44453 0.0
H197 H 0.36724 0.79831 0.39967 0.0
H198 H 0.43913 0.87389 0.40504 0.0
C199 C 0.42377 0.82934 0.40514 0.0
H200 H 0.44408 0.82098 0.38247 0.0
H201 H 0.25448 0.66675 0.36791 0.0
O202 O 0.45091 0.72714 0.56508 0.0
C203 C 0.26744 0.64371 0.47734 0.0
H204 H 0.23882 0.14723 0.15621 0.0
H205 H 0.28513 0.14721 0.27551 0.0
H206 H 0.40703 0.20227 0.27063 0.0
H207 H 0.36633 0.13338 0.12976 0.0
H208 H 0.38927 0.18156 0.09354 0.0
H209 H 0.30426 0.1416 0.10544 0.0
H210 H 0.31766 0.23614 0.11733 0.0
H211 H 0.4026 0.2764 0.10531 0.0
H212 H 0.38917 0.29283 0.14961 0.0
H213 H 0.52146 0.25385 0.25421 0.0
H214 H 0.62743 0.30659 0.22805 0.0
H215 H 0.51469 0.27955 0.11818 0.0
C216 C 0.27469 0.15897 0.18129 0.0
C217 C 0.25186 0.14259 0.21633 0.0
C218 C 0.30074 0.15912 0.24842 0.0
C219 C 0.37034 0.19034 0.24593 0.0
C220 C 0.39095 0.20537 0.2112 0.0
C221 C 0.34512 0.19092 0.1794 0.0
C222 C 0.38244 0.21401 0.14579 0.0
C223 C 0.35918 0.16469 0.11692 0.0
C224 C 0.37236 0.25743 0.12849 0.0
C225 C 0.45626 0.24339 0.16385 0.0
C226 C 0.45905 0.23718 0.20158 0.0
C227 C 0.52011 0.25939 0.22476 0.0
C228 C 0.5804 0.28952 0.20933 0.0
C229 C 0.58041 0.29807 0.1708 0.0
C230 C 0.5169 0.2741 0.14765 0.0
H231 H 0.84451 0.09967 0.20731 0.0
H232 H 0.06387 0.22805 0.22656 0.0
H233 H 0.05017 0.29753 0.19542 0.0
H234 H 0.81269 0.13312 0.11847 0.0
H235 H 0.73445 0.12288 0.12446 0.0
H236 H 0.7601 0.08402 0.15055 0.0
H237 H 0.75556 0.12426 0.21284 0.0
H238 H 0.72665 0.16088 0.18684 0.0
H239 H 0.80115 0.20069 0.22204 0.0
H240 H 1.01279 0.35005 0.15789 0.0
H241 H 0.95361 0.39041 0.13052 0.0
H242 H 0.7582 0.22881 0.13662 0.0
C243 C 0.88926 0.14322 0.20629 0.0
C244 C 0.95518 0.15925 0.22002 0.0
C245 C 1.01297 0.21577 0.21711 0.0
C246 C 1.00565 0.25501 0.19886 0.0
C247 C 0.94012 0.23699 0.1839 0.0
C248 C 0.88276 0.18308 0.18849 0.0
C249 C 0.8181 0.17487 0.17045 0.0
C250 C 0.77905 0.1258 0.13913 0.0
C251 C 0.77271 0.16461 0.19978 0.0
C252 C 0.84797 0.23256 0.15492 0.0
C253 C 0.91855 0.2673 0.16235 0.0
C254 C 0.9576 0.32315 0.15179 0.0
C255 C 0.92361 0.3454 0.13553 0.0
C256 C 0.85146 0.31205 0.13019 0.0
C257 C 0.81328 0.25428 0.13878 0.0
H258 H 0.81106 0.61832 0.14211 0.0
H259 H 1.00119 0.63844 0.17058 0.0
H260 H 0.05545 0.73499 0.20147 0.0
H261 H 0.89339 0.77329 0.12443 0.0
H262 H 0.82731 0.77155 0.14291 0.0
H263 H 0.80822 0.70729 0.12031 0.0
H264 H 0.76232 0.65674 0.17991 0.0
H265 H 0.786 0.72245 0.203 0.0
H266 H 0.81856 0.68508 0.22381 0.0
H267 H 0.08389 0.82285 0.23704 0.0
H268 H 0.09581 0.90959 0.25938 0.0
H269 H 0.89121 0.83717 0.20372 0.0
C270 C 0.86488 0.64423 0.15341 0.0
C271 C 0.90228 0.62134 0.15385 0.0
C272 C 0.97217 0.65576 0.16965 0.0
C273 C 1.00305 0.71021 0.18773 0.0
C274 C 0.96372 0.73021 0.18905 0.0
C275 C 0.89705 0.69944 0.17103 0.0
C276 C 0.86676 0.73154 0.17632 0.0
C277 C 0.84789 0.74686 0.13874 0.0
C278 C 0.80473 0.69686 0.19699 0.0
C279 C 0.92653 0.78468 0.20035 0.0
C280 C 0.98133 0.7823 0.20816 0.0
C281 C 0.0416 0.82555 0.23078 0.0
C282 C 0.04755 0.87417 0.24394 0.0
C283 C 0.99405 0.87945 0.23385 0.0
C284 C 0.93229 0.83352 0.21249 0.0
H285 H 0.10636 0.21959 0.81451 0.0
H286 H 0.2857 0.23181 0.86229 0.0
H287 H 0.33528 0.3271 0.89387 0.0
H288 H 0.20046 0.37222 0.79777 0.0
H289 H 0.13255 0.37546 0.80778 0.0
H290 H 0.11309 0.309 0.78894 0.0
H291 H 0.04964 0.2592 0.84463 0.0
H292 H 0.0711 0.32608 0.86426 0.0
H293 H 0.0947 0.28663 0.8914 0.0
H294 H 0.36224 0.41909 0.92349 0.0
H295 H 0.37544 0.50937 0.93745 0.0
H296 H 0.18134 0.43886 0.86829 0.0
C297 C 0.15674 0.24302 0.83089 0.0
C298 C 0.19211 0.21831 0.83625 0.0
C299 C 0.25775 0.25006 0.85807 0.0
C300 C 0.28599 0.30391 0.87637 0.0
C301 C 0.24845 0.32599 0.87208 0.0
C302 C 0.18616 0.29733 0.849 0.0
C303 C 0.15767 0.33171 0.8479 0.0
C304 C 0.15056 0.34809 0.80825 0.0
C305 C 0.08922 0.29893 0.86295 0.0
C306 C 0.21339 0.38389 0.87403 0.0
C307 C 0.26481 0.37942 0.88826 0.0
C308 C 0.32222 0.42304 0.91253 0.0
C309 C 0.32889 0.4738 0.92086 0.0
C310 C 0.27883 0.48048 0.90455 0.0
C311 C 0.21958 0.43422 0.8818 0.0
H312 H 0.51376 0.72801 0.80818 0.0
H313 H 0.5589 0.77595 0.92711 0.0
H314 H 0.68088 0.84261 0.92251 0.0
H315 H 0.66159 0.73125 0.80205 0.0
H316 H 0.676 0.76118 0.75771 0.0
H317 H 0.59113 0.71811 0.76965 0.0
H318 H 0.58126 0.8016 0.75803 0.0
H319 H 0.6658 0.84379 0.74549 0.0
H320 H 0.64567 0.87161 0.78165 0.0
H321 H 0.79671 0.90044 0.90704 0.0
H322 H 0.90363 0.94847 0.88145 0.0
H323 H 0.79019 0.86677 0.77129 0.0
C324 C 0.54931 0.75265 0.83319 0.0
C325 C 0.52608 0.74625 0.86808 0.0
C326 C 0.57467 0.7796 0.90008 0.0
C327 C 0.64438 0.81784 0.89778 0.0
C328 C 0.66545 0.82278 0.86325 0.0
C329 C 0.6198 0.79137 0.83142 0.0
C330 C 0.65755 0.80477 0.79807 0.0
C331 C 0.64588 0.7506 0.78086 0.0
C332 C 0.63637 0.83214 0.76907 0.0
C333 C 0.73137 0.8479 0.81639 0.0
C334 C 0.73398 0.85744 0.85402 0.0
C335 C 0.7954 0.89369 0.87761 0.0
C336 C 0.85605 0.92063 0.86264 0.0
C337 C 0.85579 0.91151 0.82422 0.0
C338 C 0.79223 0.87513 0.80061 0.0
H339 H 0.20796 0.94916 0.81305 0.0
H340 H 1.00064 0.82187 0.75913 0.0
H341 H 1.01123 0.74464 0.77731 0.0
H342 H 0.27859 0.86752 0.79246 0.0
H343 H 0.33281 0.89386 0.83699 0.0
H344 H 0.31179 0.93743 0.81343 0.0
H345 H 0.26732 0.94532 0.87235 0.0
H346 H 0.28489 0.89946 0.89547 0.0
H347 H 0.19987 0.88083 0.89001 0.0
H348 H 0.03863 0.68203 0.81051 0.0
H349 H 0.089 0.63802 0.84413 0.0
H350 H 0.27859 0.80663 0.87686 0.0
C351 C 0.16619 0.90509 0.80327 0.0
C352 C 0.10394 0.89137 0.78396 0.0
C353 C 0.04937 0.83327 0.77283 0.0
C354 C 0.05462 0.78919 0.78371 0.0
C355 C 0.11507 0.80421 0.80527 0.0
C356 C 0.17074 0.86086 0.81385 0.0
C357 C 0.22856 0.86586 0.83897 0.0
C358 C 0.29167 0.89273 0.81928 0.0
C359 C 0.24615 0.89989 0.8764 0.0
C360 C 0.19631 0.80321 0.844 0.0
C361 C 0.13067 0.76836 0.82451 0.0
C362 C 0.09017 0.70894 0.82548 0.0
C363 C 0.11873 0.68439 0.84514 0.0
C364 C 0.18708 0.71907 0.86354 0.0
C365 C 0.22571 0.77932 0.86376 0.0
H366 H 0.92875 0.447 0.57409 0.0
H367 H 0.82501 0.47651 0.48237 0.0
H368 H 0.93267 0.53879 0.45701 0.0
H369 H 0.09054 0.59567 0.58433 0.0
H370 H 0.14363 0.57204 0.59558 0.0
H371 H 0.05879 0.53135 0.60779 0.0
H372 H 1.02945 0.44045 0.5718 0.0
H373 H 0.11389 0.48096 0.55916 0.0
H374 H 0.04002 0.44227 0.52351 0.0
H375 H 0.04722 0.5898 0.43797 0.0
H376 H 0.16726 0.63707 0.43007 0.0
H377 H 0.20301 0.58253 0.53587 0.0
C378 C 0.92929 0.46766 0.54916 0.0
C379 C 0.86805 0.45588 0.52966 0.0
C380 C 0.87081 0.48354 0.49706 0.0
C381 C 0.93187 0.51937 0.48258 0.0
C382 C 0.99072 0.52841 0.50142 0.0
C383 C 0.99065 0.50448 0.53439 0.0
C384 C 0.06177 0.5214 0.54856 0.0
C385 C 0.09037 0.55725 0.58631 0.0
C386 C 0.06121 0.46809 0.55089 0.0
C387 C 0.10096 0.55756 0.51809 0.0
C388 C 0.05854 0.56053 0.49111 0.0
C389 C 0.08134 0.58863 0.45919 0.0
C390 C 0.1496 0.61509 0.45484 0.0
C391 C 0.19487 0.614 0.48241 0.0
C392 C 0.16996 0.58481 0.51452 0.0
H393 H 0.61669 0.50216 0.56054 0.0
H394 H 0.43565 0.33516 0.51446 0.0
H395 H 0.38516 0.3808 0.48388 0.0
H396 H 0.52217 0.56347 0.57716 0.0
H397 H 0.5906 0.63369 0.5662 0.0
H398 H 0.60921 0.58677 0.58652 0.0
H399 H 0.67253 0.59751 0.53145 0.0
H400 H 0.65191 0.6427 0.51025 0.0
H401 H 0.62757 0.57844 0.48455 0.0
H402 H 0.36088 0.4456 0.45164 0.0
H403 H 0.3513 0.52333 0.43318 0.0
H404 H 0.54416 0.6475 0.50319 0.0
C405 C 0.56536 0.47522 0.54525 0.0
C406 C 0.52989 0.41515 0.53982 0.0
C407 C 0.46332 0.38126 0.51904 0.0
C408 C 0.43462 0.40684 0.50121 0.0
C409 C 0.47252 0.46643 0.5051 0.0
C410 C 0.53529 0.50011 0.52773 0.0
C411 C 0.56472 0.56316 0.52759 0.0
C412 C 0.57208 0.58825 0.56668 0.0
C413 C 0.63324 0.59745 0.51256 0.0
C414 C 0.50945 0.55959 0.50083 0.0
C415 C 0.45722 0.5035 0.48766 0.0
C416 C 0.40118 0.48969 0.46205 0.0
C417 C 0.39664 0.53413 0.45118 0.0
C418 C 0.44733 0.59133 0.46636 0.0
C419 C 0.50515 0.60415 0.49075 0.0
H420 H 0.5993 0.96912 0.47185 0.0
H421 H 0.39326 0.86897 0.49796 0.0
H422 H 0.41832 0.95481 0.53221 0.0
H423 H 0.6831 0.05374 0.55641 0.0
H424 H 0.74336 0.11982 0.53718 0.0
H425 H 0.70885 0.05195 0.51241 0.0
H426 H 0.66462 0.07894 0.45403 0.0
H427 H 0.70177 0.14787 0.47805 0.0
H428 H 0.61244 0.10292 0.45869 0.0
H429 H 0.4697 0.04977 0.56873 0.0
H430 H 0.5339 0.15238 0.59113 0.0
H431 H 0.70449 0.19177 0.53893 0.0
C432 C 0.55879 0.9661 0.48344 0.0
C433 C 0.49386 0.91295 0.48161 0.0
C434 C 0.44266 0.90984 0.49824 0.0
C435 C 0.45687 0.95808 0.5183 0.0
C436 C 0.52242 1.00934 0.52115 0.0
C437 C 0.57184 1.01422 0.50308 0.0
C438 C 0.63765 0.07467 0.50981 0.0
C439 C 0.69671 0.07502 0.53016 0.0
C440 C 0.65512 0.10277 0.47297 0.0
C441 C 0.61769 0.10281 0.53467 0.0
C442 C 0.55147 0.06412 0.54155 0.0
C443 C 0.5216 0.08045 0.5635 0.0
C444 C 0.55884 0.13858 0.57678 0.0
C445 C 0.62474 0.17954 0.56767 0.0
C446 C 0.65509 0.16093 0.54735 0.0
H447 H 0.04671 0.10146 0.59929 0.0
H448 H 1.01979 0.94063 0.61253 0.0
H449 H 0.03357 0.9354 0.54683 0.0
H450 H 0.95641 0.0656 0.50641 0.0
H451 H 1.01391 0.13626 0.49153 0.0
H452 H 1.00264 0.12774 0.5397 0.0
H453 H 0.13306 0.18215 0.55908 0.0
H454 H 0.14478 0.19113 0.51099 0.0
H455 H 0.17613 0.15752 0.5388 0.0
H456 H 0.04651 0.94616 0.47883 0.0
H457 H 0.06511 0.97524 0.41501 0.0
H458 H 0.0868 0.13043 0.44608 0.0
C459 C 0.04413 0.06534 0.58834 0.0
C460 C 0.03329 0.02189 0.61118 0.0
C461 C 1.02981 0.97513 0.59586 0.0
C462 C 0.03694 0.97154 0.55844 0.0
C463 C 0.04778 1.01517 0.53669 0.0
C464 C 0.05202 0.06149 0.55116 0.0
C465 C 0.06499 0.10302 0.52196 0.0
C466 C 1.00596 0.10845 0.51447 0.0
C467 C 0.13384 0.16194 0.53339 0.0
C468 C 0.06694 0.07266 0.48875 0.0
C469 C 0.05632 0.02181 0.49775 0.0
C470 C 0.05478 0.98586 0.47149 0.0
C471 C 0.06475 1.00246 0.43518 0.0
C472 C 0.07635 0.05463 0.42542 0.0
C473 C 0.07784 0.09022 0.45274 0.0
H474 H 0.71394 0.45259 0.92617 0.0
H475 H 0.72124 0.30985 0.95165 0.0
H476 H 0.72517 0.29425 0.8855 0.0
H477 H 0.60739 0.3914 0.83728 0.0
H478 H 0.65157 0.45813 0.81585 0.0
H479 H 0.65006 0.45851 0.86524 0.0
H480 H 0.7823 0.52676 0.87762 0.0
H481 H 0.78419 0.52687 0.82826 0.0
H482 H 0.83009 0.50658 0.85784 0.0
H483 H 0.72486 0.29246 0.81539 0.0
H484 H 0.72775 0.30849 0.74866 0.0
H485 H 0.72319 0.45371 0.76851 0.0
C486 C 0.71679 0.41826 0.91784 0.0
C487 C 0.71851 0.38308 0.9444 0.0
C488 C 0.72177 0.3384 0.93221 0.0
C489 C 0.72332 0.32884 0.89452 0.0
C490 C 0.72178 0.36439 0.8691 0.0
C491 C 0.71922 0.40858 0.88034 0.0
C492 C 0.71905 0.44115 0.84754 0.0
C493 C 0.65309 0.43703 0.84111 0.0
C494 C 0.7827 0.50407 0.85316 0.0
C495 C 0.72148 0.40824 0.81605 0.0
C496 C 0.72246 0.36381 0.82902 0.0
C497 C 0.7239 0.32706 0.80502 0.0
C498 C 0.72481 0.33613 0.76697 0.0
C499 C 0.72444 0.3817 0.75302 0.0
C500 C 0.72314 0.41829 0.77818 0.0
H501 H 0.27723 0.64361 0.2431 0.0
H502 H 0.48823 0.77509 0.29066 0.0
H503 H 0.52074 0.78959 0.22805 0.0
H504 H 0.31141 0.58435 0.16837 0.0
H505 H 0.24304 0.57324 0.13503 0.0
H506 H 0.23634 0.57042 0.18389 0.0
H507 H 0.21596 0.64857 0.18091 0.0
H508 H 0.22246 0.65157 0.13206 0.0
H509 H 0.27707 0.716 0.16329 0.0
H510 H 0.53023 0.7934 0.15995 0.0
H511 H 0.51641 0.78636 0.09155 0.0
H512 H 0.29874 0.65408 0.08651 0.0
C513 C 0.33047 0.67511 0.24044 0.0
C514 C 0.38042 0.70687 0.2724 0.0
C515 C 0.44921 0.74828 0.2673 0.0
C516 C 0.46815 0.75739 0.23156 0.0
C517 C 0.4178 0.72511 0.20086 0.0
C518 C 0.35029 0.6848 0.20486 0.0
C519 C 0.30592 0.65724 0.16707 0.0
C520 C 0.27219 0.59246 0.16338 0.0
C521 C 0.25218 0.66907 0.16045 0.0
C522 C 0.35901 0.68865 0.14115 0.0
C523 C 0.42318 0.72753 0.16137 0.0
C524 C 0.48027 0.76282 0.14391 0.0
C525 C 0.47175 0.75854 0.10489 0.0
C526 C 0.40666 0.71908 0.08324 0.0
C527 C 0.34953 0.68356 0.10189 0.0
H528 H 0.9397 1.01911 0.07007 0.0
H529 H 0.85452 0.84844 0.10325 0.0
H530 H 0.85668 0.81753 0.04074 0.0
H531 H 0.86788 0.97298 0.96251 0.0
H532 H 0.94658 0.03668 0.95214 0.0
H533 H 0.91074 0.03866 0.99203 0.0
H534 H 1.02489 0.07767 0.0339 0.0
H535 H 0.06123 0.07441 0.99516 0.0
H536 H 0.05883 0.0367 0.03514 0.0
H537 H 0.90556 0.81573 0.98578 0.0
H538 H 0.97919 0.83858 0.93767 0.0
H539 H 0.03754 1.01229 0.94238 0.0
C540 C 0.91734 0.97434 0.06308 0.0
C541 C 0.89736 0.93605 0.09086 0.0
C542 C 0.86934 0.87798 0.08185 0.0
C543 C 0.87063 0.86021 0.04642 0.0
C544 C 0.89855 0.90097 0.0206 0.0
C545 C 0.91902 0.95651 0.02803 0.0
C546 C 0.95965 0.99527 0.99928 0.0
C547 C 0.91876 1.01185 0.97504 0.0
C548 C 1.03027 0.04906 0.01697 0.0
C549 C 0.96601 0.95499 0.97743 0.0
C550 C 0.92852 0.90028 0.98905 0.0
C551 C 0.9332 0.85785 0.97555 0.0
C552 C 0.97601 0.87145 0.94884 0.0
C553 C 1.01459 0.92735 0.9368 0.0
C554 C 1.00919 0.96929 0.95131 0.0
H555 H 0.84884 0.32445 0.29709 0.0
H556 H 0.9087 0.49799 0.30254 0.0
H557 H 0.88072 0.48913 0.36604 0.0
H558 H 0.70743 0.26785 0.32175 0.0
H559 H 0.70035 0.21385 0.35006 0.0
H560 H 0.75602 0.24064 0.3158 0.0
H561 H 0.85835 0.27022 0.36586 0.0
H562 H 0.8023 0.24238 0.40062 0.0
H563 H 0.87845 0.3154 0.40693 0.0
H564 H 0.80829 0.45251 0.41325 0.0
H565 H 0.70313 0.3934 0.44131 0.0
H566 H 0.67993 0.24002 0.40484 0.0
C567 C 0.86027 0.3616 0.31289 0.0
C568 C 0.88153 0.41201 0.29555 0.0
C569 C 0.89324 0.45931 0.31584 0.0
C570 C 0.87763 0.45457 0.35198 0.0
C571 C 0.84964 0.40202 0.36715 0.0
C572 C 0.8422 0.35641 0.34847 0.0
C573 C 0.79529 0.30077 0.36569 0.0
C574 C 0.73632 0.25313 0.3366 0.0
C575 C 0.83605 0.28106 0.386 0.0
C576 C 0.77009 0.32065 0.39321 0.0
C577 C 0.80502 0.3797 0.3952 0.0
C578 C 0.78296 0.40679 0.41356 0.0
C579 C 0.723 0.37293 0.42932 0.0
C580 C 0.68518 0.31265 0.42584 0.0
C581 C 0.71001 0.28637 0.40877 0.0
H582 H 0.4703 0.7836 0.62558 0.0
H583 H 0.56308 0.6946 0.62822 0.0
H584 H 0.54411 0.67509 0.69307 0.0
H585 H 0.50611 0.82549 0.73528 0.0
H586 H 0.4231 0.81052 0.73093 0.0
H587 H 0.47466 0.84307 0.69443 0.0
H588 H 0.37409 0.7622 0.64709 0.0
H589 H 0.32351 0.7293 0.68318 0.0
H590 H 0.33862 0.68838 0.6544 0.0
H591 H 0.47484 0.63081 0.74213 0.0
H592 H 0.37086 0.57342 0.77163 0.0
H593 H 0.31701 0.68631 0.73782 0.0
C594 C 0.48985 0.76278 0.64076 0.0
C595 C 0.51701 0.73981 0.62217 0.0
C596 C 0.54223 0.71266 0.64218 0.0
C597 C 0.53163 0.70147 0.67913 0.0
C598 C 0.49659 0.71837 0.69546 0.0
C599 C 0.47797 0.75032 0.67724 0.0
C600 C 0.42689 0.75127 0.69607 0.0
C601 C 0.45971 0.81112 0.71534 0.0
C602 C 0.36203 0.73149 0.66856 0.0
C603 C 0.41243 0.70851 0.72432 0.0
C604 C 0.45554 0.6922 0.72493 0.0
C605 C 0.443 0.64508 0.74326 0.0
C606 C 0.38378 0.61249 0.75982 0.0
C607 C 0.33773 0.62682 0.75725 0.0
C608 C 0.35358 0.67652 0.741 0.0
loop_
_geom_bond_atom_site_label_1
_geom_bond_atom_site_label_2
_geom_bond_distance
_geom_bond_site_symmetry_2
_ccdc_geom_bond_type
Co0 O3 1.970 1_455 S
Co0 N17 1.989 1_465 S
Co0 O25 1.967 1_565 S
Co0 O32 1.920 1_565 S
Co1 O4 1.966 1_445 S
Co1 N10 2.022 . S
Co1 N18 1.993 1_455 S
Co1 O26 1.941 . S
C2 O3 1.258 . S
C2 O4 1.263 . S
O3 Co0 1.970 1_655 S
O3 C2 1.258 . S
O4 Co1 1.966 1_665 S
O4 C2 1.263 . S
C5 O6 1.235 . S
C5 O32 1.289 1_665 S
O6 C5 1.235 . S
C7 C9 1.400 1_565 S
C7 N10 1.351 1_665 S
C7 C12 1.501 . S
C8 C9 1.387 1_455 S
C8 N11 1.341 . S
C9 C7 1.400 1_545 S
C9 C8 1.387 1_655 S
N10 Co1 2.022 . S
N10 C7 1.351 1_445 S
N10 N11 1.365 . S
N11 C8 1.341 . S
N11 N10 1.365 . S
N11 H31 0.862 . S
C12 C7 1.501 . S
C12 H13 0.961 . S
C12 H14 0.961 . S
C12 H15 0.960 . S
H13 C12 0.961 . S
H14 C12 0.961 . S
H15 C12 0.960 . S
C16 N17 1.342 . S
C16 C20 1.401 . S
C16 C21 1.499 . S
N17 Co0 1.989 1_645 S
N17 C16 1.342 . S
N17 N18 1.388 . S
N18 Co1 1.993 1_655 S
N18 N17 1.388 . S
N18 C19 1.346 . S
C19 N18 1.346 . S
C19 C20 1.396 . S
C19 C29 1.510 . S
C20 C16 1.401 . S
C20 C19 1.396 . S
C21 C16 1.499 . S
C21 H22 0.959 . S
C21 H23 0.960 . S
C21 H24 0.961 . S
H22 C21 0.959 . S
H23 C21 0.960 . S
H24 C21 0.961 . S
O25 Co0 1.967 1_545 S
O25 C33 1.258 . S
O26 Co1 1.941 . S
O26 C33 1.266 . S
H27 C29 0.959 . S
H28 C29 0.961 . S
C29 C19 1.510 . S
C29 H27 0.959 . S
C29 H28 0.961 . S
C29 H30 0.960 . S
H30 C29 0.960 . S
H31 N11 0.862 . S
O32 Co0 1.920 1_545 S
O32 C5 1.289 1_445 S
C33 O25 1.258 . S
C33 O26 1.266 . S
Co34 O37 1.970 1_545 S
Co34 N51 1.989 . S
Co34 O59 1.967 1_445 S
Co34 O66 1.920 . S
Co35 O38 1.966 1_655 S
Co35 N44 2.022 . S
Co35 N52 1.993 1_665 S
Co35 O60 1.941 . S
C36 O37 1.258 . S
C36 O38 1.263 . S
O37 Co34 1.970 1_565 S
O37 C36 1.258 . S
O38 Co35 1.966 1_455 S
O38 C36 1.263 . S
C39 O40 1.235 . S
C39 O66 1.289 . S
O40 C39 1.235 . S
C41 C43 1.400 . S
C41 N44 1.351 1_445 S
C41 C46 1.501 1_545 S
C42 C43 1.387 1_655 S
C42 N45 1.341 . S
C43 C41 1.400 . S
C43 C42 1.387 1_455 S
N44 Co35 2.022 . S
N44 C41 1.351 1_665 S
N44 N45 1.365 1_565 S
N45 C42 1.341 . S
N45 N44 1.365 1_545 S
N45 H65 0.862 . S
C46 C41 1.501 1_565 S
C46 H47 0.961 . S
C46 H48 0.961 1_565 S
C46 H49 0.960 . S
H47 C46 0.961 . S
H48 C46 0.961 1_545 S
H49 C46 0.960 . S
C50 N51 1.342 . S
C50 C54 1.401 . S
C50 C55 1.499 . S
N51 Co34 1.989 . S
N51 C50 1.342 . S
N51 N52 1.388 . S
N52 Co35 1.993 1_445 S
N52 N51 1.388 . S
N52 C53 1.346 . S
C53 N52 1.346 . S
C53 C54 1.396 . S
C53 C63 1.510 . S
C54 C50 1.401 . S
C54 C53 1.396 . S
C55 C50 1.499 . S
C55 H56 0.959 . S
C55 H57 0.960 . S
C55 H58 0.961 . S
H56 C55 0.959 . S
H57 C55 0.960 . S
H58 C55 0.961 . S
O59 Co34 1.967 1_665 S
O59 C67 1.258 . S
O60 Co35 1.941 . S
O60 C67 1.266 . S
H61 C63 0.959 . S
H62 C63 0.961 . S
C63 C53 1.510 . S
C63 H61 0.959 . S
C63 H62 0.961 . S
C63 H64 0.960 . S
H64 C63 0.960 . S
H65 N45 0.862 . S
O66 Co34 1.920 . S
O66 C39 1.289 . S
C67 O59 1.258 . S
C67 O60 1.266 . S
Co68 O71 1.970 . S
Co68 N85 1.989 . S
Co68 O93 1.967 . S
Co68 O100 1.920 . S
Co69 O72 1.966 . S
Co69 N78 2.022 . S
Co69 N86 1.993 . S
Co69 O94 1.941 . S
C70 O71 1.258 . S
C70 O72 1.263 . S
O71 Co68 1.970 . S
O71 C70 1.258 . S
O72 Co69 1.966 . S
O72 C70 1.263 . S
C73 O74 1.235 . S
C73 O100 1.289 . S
O74 C73 1.235 . S
C75 C77 1.400 . S
C75 N78 1.351 . S
C75 C80 1.501 . S
C76 C77 1.387 . S
C76 N79 1.341 . S
C77 C75 1.400 . S
C77 C76 1.387 . S
N78 Co69 2.022 . S
N78 C75 1.351 . S
N78 N79 1.365 . S
N79 C76 1.341 . S
N79 N78 1.365 . S
N79 H99 0.862 . S
C80 C75 1.501 . S
C80 H81 0.961 . S
C80 H82 0.961 . S
C80 H83 0.960 . S
H81 C80 0.961 . S
H82 C80 0.961 . S
H83 C80 0.960 . S
C84 N85 1.342 . S
C84 C88 1.401 . S
C84 C89 1.499 . S
N85 Co68 1.989 . S
N85 C84 1.342 . S
N85 N86 1.388 . S
N86 Co69 1.993 . S
N86 N85 1.388 . S
N86 C87 1.346 . S
C87 N86 1.346 . S
C87 C88 1.396 . S
C87 C97 1.510 . S
C88 C84 1.401 . S
C88 C87 1.396 . S
C89 C84 1.499 . S
C89 H90 0.959 . S
C89 H91 0.960 . S
C89 H92 0.961 . S
H90 C89 0.959 . S
H91 C89 0.960 . S
H92 C89 0.961 . S
O93 Co68 1.967 . S
O93 C101 1.258 . S
O94 Co69 1.941 . S
O94 C101 1.266 . S
H95 C97 0.959 . S
H96 C97 0.961 . S
C97 C87 1.510 . S
C97 H95 0.959 . S
C97 H96 0.961 . S
C97 H98 0.960 . S
H98 C97 0.960 . S
H99 N79 0.862 . S
O100 Co68 1.920 . S
O100 C73 1.289 . S
C101 O93 1.258 . S
C101 O94 1.266 . S
Co102 O105 1.970 . S
Co102 N119 1.989 . S
Co102 O127 1.967 . S
Co102 O134 1.920 . S
Co103 O106 1.966 . S
Co103 N112 2.022 . S
Co103 N120 1.993 . S
Co103 O128 1.941 . S
C104 O105 1.258 . S
C104 O106 1.263 . S
O105 Co102 1.970 . S
O105 C104 1.258 . S
O106 Co103 1.966 . S
O106 C104 1.263 . S
C107 O108 1.235 . S
C107 O134 1.289 . S
O108 C107 1.235 . S
C109 C111 1.400 1_554 S
C109 N112 1.351 . S
C109 C114 1.501 . S
C110 C111 1.387 . S
C110 N113 1.341 1_556 S
C111 C109 1.400 1_556 S
C111 C110 1.387 . S
N112 Co103 2.022 . S
N112 C109 1.351 . S
N112 N113 1.365 . S
N113 C110 1.341 1_554 S
N113 N112 1.365 . S
N113 H133 0.862 . S
C114 C109 1.501 . S
C114 H115 0.961 . S
C114 H116 0.961 . S
C114 H117 0.960 . S
H115 C114 0.961 . S
H116 C114 0.961 . S
H117 C114 0.960 . S
C118 N119 1.342 . S
C118 C122 1.401 . S
C118 C123 1.499 . S
N119 Co102 1.989 . S
N119 C118 1.342 . S
N119 N120 1.388 . S
N120 Co103 1.993 . S
N120 N119 1.388 . S
N120 C121 1.346 . S
C121 N120 1.346 . S
C121 C122 1.396 . S
C121 C131 1.510 . S
C122 C118 1.401 . S
C122 C121 1.396 . S
C123 C118 1.499 . S
C123 H124 0.959 . S
C123 H125 0.960 . S
C123 H126 0.961 . S
H124 C123 0.959 . S
H125 C123 0.960 . S
H126 C123 0.961 . S
O127 Co102 1.967 . S
O127 C135 1.258 . S
O128 Co103 1.941 . S
O128 C135 1.266 . S
H129 C131 0.959 . S
H130 C131 0.961 . S
C131 C121 1.510 . S
C131 H129 0.959 . S
C131 H130 0.961 . S
C131 H132 0.960 . S
H132 C131 0.960 . S
H133 N113 0.862 . S
O134 Co102 1.920 . S
O134 C107 1.289 . S
C135 O127 1.258 . S
C135 O128 1.266 . S
Co136 O139 1.970 . S
Co136 N153 1.989 . S
Co136 O161 1.967 . S
Co136 O168 1.920 . S
Co137 O140 1.966 . S
Co137 N146 2.022 . S
Co137 N154 1.993 . S
Co137 O162 1.941 . S
C138 O139 1.258 . S
C138 O140 1.263 . S
O139 Co136 1.970 . S
O139 C138 1.258 . S
O140 Co137 1.966 . S
O140 C138 1.263 . S
C141 O142 1.235 . S
C141 O168 1.289 . S
O142 C141 1.235 . S
C143 C145 1.400 1_556 S
C143 N146 1.351 . S
C143 C148 1.501 . S
C144 C145 1.387 . S
C144 N147 1.341 1_554 S
C145 C143 1.400 1_554 S
C145 C144 1.387 . S
N146 Co137 2.022 . S
N146 C143 1.351 . S
N146 N147 1.365 . S
N147 C144 1.341 1_556 S
N147 N146 1.365 . S
N147 H167 0.862 . S
C148 C143 1.501 . S
C148 H149 0.961 . S
C148 H150 0.961 . S
C148 H151 0.960 . S
H149 C148 0.961 . S
H150 C148 0.961 . S
H151 C148 0.960 . S
C152 N153 1.342 . S
C152 C156 1.401 . S
C152 C157 1.499 . S
N153 Co136 1.989 . S
N153 C152 1.342 . S
N153 N154 1.388 . S
N154 Co137 1.993 . S
N154 N153 1.388 . S
N154 C155 1.346 . S
C155 N154 1.346 . S
C155 C156 1.396 . S
C155 C165 1.510 . S
C156 C152 1.401 . S
C156 C155 1.396 . S
C157 C152 1.499 . S
C157 H158 0.959 . S
C157 H159 0.960 . S
C157 H160 0.961 . S
H158 C157 0.959 . S
H159 C157 0.960 . S
H160 C157 0.961 . S
O161 Co136 1.967 . S
O161 C169 1.258 . S
O162 Co137 1.941 . S
O162 C169 1.266 . S
H163 C165 0.959 . S
H164 C165 0.961 . S
C165 C155 1.510 . S
C165 H163 0.959 . S
C165 H164 0.961 . S
C165 H166 0.960 . S
H166 C165 0.960 . S
H167 N147 0.862 . S
O168 Co136 1.920 . S
O168 C141 1.289 . S
C169 O161 1.258 . S
C169 O162 1.266 . S
Co170 O173 1.970 . S
Co170 N187 1.989 . S
Co170 O195 1.967 . S
Co170 O202 1.920 . S
Co171 O174 1.966 . S
Co171 N180 2.022 . S
Co171 N188 1.993 . S
Co171 O196 1.941 . S
C172 O173 1.258 . S
C172 O174 1.263 . S
O173 Co170 1.970 . S
O173 C172 1.258 . S
O174 Co171 1.966 . S
O174 C172 1.263 . S
C175 O176 1.235 . S
C175 O202 1.289 . S
O176 C175 1.235 . S
C177 C179 1.400 . S
C177 N180 1.351 . S
C177 C182 1.501 . S
C178 C179 1.387 . S
C178 N181 1.341 . S
C179 C177 1.400 . S
C179 C178 1.387 . S
N180 Co171 2.022 . S
N180 C177 1.351 . S
N180 N181 1.365 . S
N181 C178 1.341 . S
N181 N180 1.365 . S
N181 H201 0.862 . S
C182 C177 1.501 . S
C182 H183 0.961 . S
C182 H184 0.961 . S
C182 H185 0.960 . S
H183 C182 0.961 . S
H184 C182 0.961 . S
H185 C182 0.960 . S
C186 N187 1.342 . S
C186 C190 1.401 . S
C186 C191 1.499 . S
N187 Co170 1.989 . S
N187 C186 1.342 . S
N187 N188 1.388 . S
N188 Co171 1.993 . S
N188 N187 1.388 . S
N188 C189 1.346 . S
C189 N188 1.346 . S
C189 C190 1.396 . S
C189 C199 1.510 . S
C190 C186 1.401 . S
C190 C189 1.396 . S
C191 C186 1.499 . S
C191 H192 0.959 . S
C191 H193 0.960 . S
C191 H194 0.961 . S
H192 C191 0.959 . S
H193 C191 0.960 . S
H194 C191 0.961 . S
O195 Co170 1.967 . S
O195 C203 1.258 . S
O196 Co171 1.941 . S
O196 C203 1.266 . S
H197 C199 0.959 . S
H198 C199 0.961 . S
C199 C189 1.510 . S
C199 H197 0.959 . S
C199 H198 0.961 . S
C199 H200 0.960 . S
H200 C199 0.960 . S
H201 N181 0.862 . S
O202 Co170 1.920 . S
O202 C175 1.289 . S
C203 O195 1.258 . S
C203 O196 1.266 . S
H204 C216 0.930 . S
H205 C218 0.930 . S
H206 C219 0.930 . S
H207 C223 0.959 . S
H208 C223 0.959 . S
H209 C223 0.961 . S
H210 C224 0.960 . S
H211 C224 0.961 . S
H212 C224 0.959 . S
H213 C227 0.929 . S
H214 C228 0.931 . S
H215 C230 0.930 . S
C216 H204 0.930 . S
C216 C217 1.399 . S
C216 C221 1.399 . S
C217 C216 1.399 . S
C217 C218 1.376 . S
C218 H205 0.930 . S
C218 C217 1.376 . S
C218 C219 1.388 . S
C219 H206 0.930 . S
C219 C218 1.388 . S
C219 C220 1.390 . S
C220 C219 1.390 . S
C220 C221 1.394 . S
C220 C226 1.465 . S
C221 C216 1.399 . S
C221 C220 1.394 . S
C221 C222 1.516 . S
C222 C221 1.516 . S
C222 C223 1.502 . S
C222 C224 1.561 . S
C222 C225 1.526 . S
C223 H207 0.959 . S
C223 H208 0.959 . S
C223 H209 0.961 . S
C223 C222 1.502 . S
C224 H210 0.960 . S
C224 H211 0.961 . S
C224 H212 0.959 . S
C224 C222 1.561 . S
C225 C222 1.526 . S
C225 C226 1.396 . S
C225 C230 1.390 . S
C226 C220 1.465 . S
C226 C225 1.396 . S
C226 C227 1.399 . S
C227 H213 0.929 . S
C227 C226 1.399 . S
C227 C228 1.385 . S
C228 H214 0.931 . S
C228 C227 1.385 . S
C228 C229 1.389 . S
C229 C228 1.389 . S
C229 C230 1.387 . S
C230 H215 0.930 . S
C230 C225 1.390 . S
C230 C229 1.387 . S
H231 C243 0.930 . S
H232 C245 0.930 . S
H233 C246 0.930 . S
H234 C250 0.959 . S
H235 C250 0.959 . S
H236 C250 0.961 . S
H237 C251 0.960 . S
H238 C251 0.961 . S
H239 C251 0.959 . S
H240 C254 0.929 . S
H241 C255 0.931 . S
H242 C257 0.930 . S
C243 H231 0.930 . S
C243 C244 1.399 . S
C243 C248 1.399 . S
C244 C243 1.399 . S
C244 C245 1.376 . S
C245 H232 0.930 . S
C245 C244 1.376 . S
C245 C246 1.388 . S
C246 H233 0.930 . S
C246 C245 1.388 . S
C246 C247 1.390 . S
C247 C246 1.390 . S
C247 C248 1.394 . S
C247 C253 1.465 . S
C248 C243 1.399 . S
C248 C247 1.394 . S
C248 C249 1.516 . S
C249 C248 1.516 . S
C249 C250 1.502 . S
C249 C251 1.561 . S
C249 C252 1.526 . S
C250 H234 0.959 . S
C250 H235 0.959 . S
C250 H236 0.961 . S
C250 C249 1.502 . S
C251 H237 0.960 . S
C251 H238 0.961 . S
C251 H239 0.959 . S
C251 C249 1.561 . S
C252 C249 1.526 . S
C252 C253 1.396 . S
C252 C257 1.390 . S
C253 C247 1.465 . S
C253 C252 1.396 . S
C253 C254 1.399 . S
C254 H240 0.929 . S
C254 C253 1.399 . S
C254 C255 1.385 . S
C255 H241 0.931 . S
C255 C254 1.385 . S
C255 C256 1.389 . S
C256 C255 1.389 . S
C256 C257 1.387 . S
C257 H242 0.930 . S
C257 C252 1.390 . S
C257 C256 1.387 . S
H258 C270 0.930 . S
H259 C272 0.930 . S
H260 C273 0.930 . S
H261 C277 0.959 . S
H262 C277 0.959 . S
H263 C277 0.961 . S
H264 C278 0.960 . S
H265 C278 0.961 . S
H266 C278 0.959 . S
H267 C281 0.929 . S
H268 C282 0.931 1_455 S
H269 C284 0.930 . S
C270 H258 0.930 . S
C270 C271 1.399 . S
C270 C275 1.399 . S
C271 C270 1.399 . S
C271 C272 1.376 . S
C272 H259 0.930 . S
C272 C271 1.376 . S
C272 C273 1.388 . S
C273 H260 0.930 . S
C273 C272 1.388 . S
C273 C274 1.390 . S
C274 C273 1.390 . S
C274 C275 1.394 . S
C274 C280 1.465 . S
C275 C270 1.399 . S
C275 C274 1.394 . S
C275 C276 1.516 . S
C276 C275 1.516 . S
C276 C277 1.502 . S
C276 C278 1.561 . S
C276 C279 1.526 . S
C277 H261 0.959 . S
C277 H262 0.959 . S
C277 H263 0.961 . S
C277 C276 1.502 . S
C278 H264 0.960 . S
C278 H265 0.961 . S
C278 H266 0.959 . S
C278 C276 1.561 . S
C279 C276 1.526 . S
C279 C280 1.396 . S
C279 C284 1.390 . S
C280 C274 1.465 . S
C280 C279 1.396 . S
C280 C281 1.399 . S
C281 H267 0.929 . S
C281 C280 1.399 . S
C281 C282 1.385 . S
C282 H268 0.931 1_655 S
C282 C281 1.385 . S
C282 C283 1.389 . S
C283 C282 1.389 . S
C283 C284 1.387 . S
C284 H269 0.930 . S
C284 C279 1.390 . S
C284 C283 1.387 . S
H285 C297 0.930 . S
H286 C299 0.930 . S
H287 C300 0.930 . S
H288 C304 0.959 . S
H289 C304 0.959 . S
H290 C304 0.961 . S
H291 C305 0.960 . S
H292 C305 0.961 . S
H293 C305 0.959 . S
H294 C308 0.929 . S
H295 C309 0.931 . S
H296 C311 0.930 . S
C297 H285 0.930 . S
C297 C298 1.399 . S
C297 C302 1.399 . S
C298 C297 1.399 . S
C298 C299 1.376 . S
C299 H286 0.930 . S
C299 C298 1.376 . S
C299 C300 1.388 . S
C300 H287 0.930 . S
C300 C299 1.388 . S
C300 C301 1.390 . S
C301 C300 1.390 . S
C301 C302 1.394 . S
C301 C307 1.465 . S
C302 C297 1.399 . S
C302 C301 1.394 . S
C302 C303 1.516 . S
C303 C302 1.516 . S
C303 C304 1.502 . S
C303 C305 1.561 . S
C303 C306 1.526 . S
C304 H288 0.959 . S
C304 H289 0.959 . S
C304 H290 0.961 . S
C304 C303 1.502 . S
C305 H291 0.960 . S
C305 H292 0.961 . S
C305 H293 0.959 . S
C305 C303 1.561 . S
C306 C303 1.526 . S
C306 C307 1.396 . S
C306 C311 1.390 . S
C307 C301 1.465 . S
C307 C306 1.396 . S
C307 C308 1.399 . S
C308 H294 0.929 . S
C308 C307 1.399 . S
C308 C309 1.385 . S
C309 H295 0.931 . S
C309 C308 1.385 . S
C309 C310 1.389 . S
C310 C309 1.389 . S
C310 C311 1.387 . S
C311 H296 0.930 . S
C311 C306 1.390 . S
C311 C310 1.387 . S
H312 C324 0.930 . S
H313 C326 0.930 . S
H314 C327 0.930 . S
H315 C331 0.959 . S
H316 C331 0.959 . S
H317 C331 0.961 . S
H318 C332 0.960 . S
H319 C332 0.961 . S
H320 C332 0.959 . S
H321 C335 0.929 . S
H322 C336 0.931 . S
H323 C338 0.930 . S
C324 H312 0.930 . S
C324 C325 1.399 . S
C324 C329 1.399 . S
C325 C324 1.399 . S
C325 C326 1.376 . S
C326 H313 0.930 . S
C326 C325 1.376 . S
C326 C327 1.388 . S
C327 H314 0.930 . S
C327 C326 1.388 . S
C327 C328 1.390 . S
C328 C327 1.390 . S
C328 C329 1.394 . S
C328 C334 1.465 . S
C329 C324 1.399 . S
C329 C328 1.394 . S
C329 C330 1.516 . S
C330 C329 1.516 . S
C330 C331 1.502 . S
C330 C332 1.561 . S
C330 C333 1.526 . S
C331 H315 0.959 . S
C331 H316 0.959 . S
C331 H317 0.961 . S
C331 C330 1.502 . S
C332 H318 0.960 . S
C332 H319 0.961 . S
C332 H320 0.959 . S
C332 C330 1.561 . S
C333 C330 1.526 . S
C333 C334 1.396 . S
C333 C338 1.390 . S
C334 C328 1.465 . S
C334 C333 1.396 . S
C334 C335 1.399 . S
C335 H321 0.929 . S
C335 C334 1.399 . S
C335 C336 1.385 . S
C336 H322 0.931 . S
C336 C335 1.385 . S
C336 C337 1.389 . S
C337 C336 1.389 . S
C337 C338 1.387 . S
C338 H323 0.930 . S
C338 C333 1.390 . S
C338 C337 1.387 . S
H339 C351 0.930 . S
H340 C353 0.930 . S
H341 C354 0.930 . S
H342 C358 0.959 . S
H343 C358 0.959 . S
H344 C358 0.961 . S
H345 C359 0.960 . S
H346 C359 0.961 . S
H347 C359 0.959 . S
H348 C362 0.929 . S
H349 C363 0.931 . S
H350 C365 0.930 . S
C351 H339 0.930 . S
C351 C352 1.399 . S
C351 C356 1.399 . S
C352 C351 1.399 . S
C352 C353 1.376 . S
C353 H340 0.930 . S
C353 C352 1.376 . S
C353 C354 1.388 . S
C354 H341 0.930 . S
C354 C353 1.388 . S
C354 C355 1.390 . S
C355 C354 1.390 . S
C355 C356 1.394 . S
C355 C361 1.465 . S
C356 C351 1.399 . S
C356 C355 1.394 . S
C356 C357 1.516 . S
C357 C356 1.516 . S
C357 C358 1.502 . S
C357 C359 1.561 . S
C357 C360 1.526 . S
C358 H342 0.959 . S
C358 H343 0.959 . S
C358 H344 0.961 . S
C358 C357 1.502 . S
C359 H345 0.960 . S
C359 H346 0.961 . S
C359 H347 0.959 . S
C359 C357 1.561 . S
C360 C357 1.526 . S
C360 C361 1.396 . S
C360 C365 1.390 . S
C361 C355 1.465 . S
C361 C360 1.396 . S
C361 C362 1.399 . S
C362 H348 0.929 . S
C362 C361 1.399 . S
C362 C363 1.385 . S
C363 H349 0.931 . S
C363 C362 1.385 . S
C363 C364 1.389 . S
C364 C363 1.389 . S
C364 C365 1.387 . S
C365 H350 0.930 . S
C365 C360 1.390 . S
C365 C364 1.387 . S
H366 C378 0.930 . S
H367 C380 0.930 . S
H368 C381 0.930 . S
H369 C385 0.959 . S
H370 C385 0.959 . S
H371 C385 0.961 . S
H372 C386 0.960 . S
H373 C386 0.961 . S
H374 C386 0.959 . S
H375 C389 0.929 . S
H376 C390 0.931 . S
H377 C392 0.930 . S
C378 H366 0.930 . S
C378 C379 1.399 . S
C378 C383 1.399 . S
C379 C378 1.399 . S
C379 C380 1.376 . S
C380 H367 0.930 . S
C380 C379 1.376 . S
C380 C381 1.388 . S
C381 H368 0.930 . S
C381 C380 1.388 . S
C381 C382 1.390 . S
C382 C381 1.390 . S
C382 C383 1.394 . S
C382 C388 1.465 1_655 S
C383 C378 1.399 . S
C383 C382 1.394 . S
C383 C384 1.516 1_655 S
C384 C383 1.516 1_455 S
C384 C385 1.502 . S
C384 C386 1.561 . S
C384 C387 1.526 . S
C385 H369 0.959 . S
C385 H370 0.959 . S
C385 H371 0.961 . S
C385 C384 1.502 . S
C386 H372 0.960 . S
C386 H373 0.961 . S
C386 H374 0.959 . S
C386 C384 1.561 . S
C387 C384 1.526 . S
C387 C388 1.396 . S
C387 C392 1.390 . S
C388 C382 1.465 1_455 S
C388 C387 1.396 . S
C388 C389 1.399 . S
C389 H375 0.929 . S
C389 C388 1.399 . S
C389 C390 1.385 . S
C390 H376 0.931 . S
C390 C389 1.385 . S
C390 C391 1.389 . S
C391 C390 1.389 . S
C391 C392 1.387 . S
C392 H377 0.930 . S
C392 C387 1.390 . S
C392 C391 1.387 . S
H393 C405 0.930 . S
H394 C407 0.930 . S
H395 C408 0.930 . S
H396 C412 0.959 . S
H397 C412 0.959 . S
H398 C412 0.961 . S
H399 C413 0.960 . S
H400 C413 0.961 . S
H401 C413 0.959 . S
H402 C416 0.929 . S
H403 C417 0.931 . S
H404 C419 0.930 . S
C405 H393 0.930 . S
C405 C406 1.399 . S
C405 C410 1.399 . S
C406 C405 1.399 . S
C406 C407 1.376 . S
C407 H394 0.930 . S
C407 C406 1.376 . S
C407 C408 1.388 . S
C408 H395 0.930 . S
C408 C407 1.388 . S
C408 C409 1.390 . S
C409 C408 1.390 . S
C409 C410 1.394 . S
C409 C415 1.465 . S
C410 C405 1.399 . S
C410 C409 1.394 . S
C410 C411 1.516 . S
C411 C410 1.516 . S
C411 C412 1.502 . S
C411 C413 1.561 . S
C411 C414 1.526 . S
C412 H396 0.959 . S
C412 H397 0.959 . S
C412 H398 0.961 . S
C412 C411 1.502 . S
C413 H399 0.960 . S
C413 H400 0.961 . S
C413 H401 0.959 . S
C413 C411 1.561 . S
C414 C411 1.526 . S
C414 C415 1.396 . S
C414 C419 1.390 . S
C415 C409 1.465 . S
C415 C414 1.396 . S
C415 C416 1.399 . S
C416 H402 0.929 . S
C416 C415 1.399 . S
C416 C417 1.385 . S
C417 H403 0.931 . S
C417 C416 1.385 . S
C417 C418 1.389 . S
C418 C417 1.389 . S
C418 C419 1.387 . S
C419 H404 0.930 . S
C419 C414 1.390 . S
C419 C418 1.387 . S
H420 C432 0.930 . S
H421 C434 0.930 . S
H422 C435 0.930 1_545 S
H423 C439 0.954 1_545 S
H424 C439 0.959 1_545 S
H425 C439 0.961 . S
H426 C440 0.960 1_565 S
H427 C440 0.961 . S
H428 C440 0.959 . S
H429 C443 0.929 . S
H430 C444 0.931 . S
H431 C446 0.930 . S
C432 H420 0.930 . S
C432 C433 1.399 . S
C432 C437 1.399 . S
C433 C432 1.399 . S
C433 C434 1.376 . S
C434 H421 0.930 . S
C434 C433 1.376 . S
C434 C435 1.388 . S
C435 H422 0.930 1_565 S
C435 C434 1.388 . S
C435 C436 1.390 1_565 S
C436 C435 1.390 1_545 S
C436 C437 1.394 1_545 S
C436 C442 1.465 . S
C437 C432 1.399 . S
C437 C436 1.394 1_565 S
C437 C438 1.516 1_565 S
C438 C437 1.516 1_545 S
C438 C439 1.502 1_545 S
C438 C440 1.561 . S
C438 C441 1.526 . S
C439 H423 0.954 1_565 S
C439 H424 0.959 1_565 S
C439 H425 0.961 . S
C439 C438 1.502 1_565 S
C440 H426 0.960 1_545 S
C440 H427 0.961 . S
C440 H428 0.959 . S
C440 C438 1.561 . S
C441 C438 1.526 . S
C441 C442 1.396 . S
C441 C446 1.390 . S
C442 C436 1.465 . S
C442 C441 1.396 . S
C442 C443 1.399 . S
C443 H429 0.929 . S
C443 C442 1.399 . S
C443 C444 1.385 . S
C444 H430 0.931 . S
C444 C443 1.385 . S
C444 C445 1.389 . S
C445 C444 1.389 . S
C445 C446 1.387 . S
C446 H431 0.930 . S
C446 C441 1.390 . S
C446 C445 1.387 . S
H447 C459 0.930 . S
H448 C461 0.930 . S
H449 C462 0.930 . S
H450 C466 0.959 . S
H451 C466 0.959 . S
H452 C466 0.961 1_455 S
H453 C467 0.960 . S
H454 C467 0.961 . S
H455 C467 0.959 . S
H456 C470 0.929 . S
H457 C471 0.931 . S
H458 C473 0.930 . S
C459 H447 0.930 . S
C459 C460 1.399 . S
C459 C464 1.399 . S
C460 C459 1.399 . S
C460 C461 1.376 1_545 S
C461 H448 0.930 . S
C461 C460 1.376 1_565 S
C461 C462 1.388 . S
C462 H449 0.930 . S
C462 C461 1.388 . S
C462 C463 1.390 . S
C463 C462 1.390 . S
C463 C464 1.394 1_565 S
C463 C469 1.465 . S
C464 C459 1.399 . S
C464 C463 1.394 1_545 S
C464 C465 1.516 . S
C465 C464 1.516 . S
C465 C466 1.502 1_455 S
C465 C467 1.561 . S
C465 C468 1.526 . S
C466 H450 0.959 . S
C466 H451 0.959 . S
C466 H452 0.961 1_655 S
C466 C465 1.502 1_655 S
C467 H453 0.960 . S
C467 H454 0.961 . S
C467 H455 0.959 . S
C467 C465 1.561 . S
C468 C465 1.526 . S
C468 C469 1.396 1_545 S
C468 C473 1.390 . S
C469 C463 1.465 . S
C469 C468 1.396 1_565 S
C469 C470 1.399 1_455 S
C470 H456 0.929 . S
C470 C469 1.399 1_655 S
C470 C471 1.385 . S
C471 H457 0.931 . S
C471 C470 1.385 . S
C471 C472 1.389 . S
C472 C471 1.389 . S
C472 C473 1.387 1_665 S
C473 H458 0.930 . S
C473 C468 1.390 . S
C473 C472 1.387 1_445 S
H474 C486 0.930 . S
H475 C488 0.930 . S
H476 C489 0.930 . S
H477 C493 0.959 . S
H478 C493 0.959 . S
H479 C493 0.961 . S
H480 C494 0.960 . S
H481 C494 0.961 . S
H482 C494 0.959 . S
H483 C497 0.929 . S
H484 C498 0.931 . S
H485 C500 0.930 . S
C486 H474 0.930 . S
C486 C487 1.399 . S
C486 C491 1.399 . S
C487 C486 1.399 . S
C487 C488 1.376 . S
C488 H475 0.930 . S
C488 C487 1.376 . S
C488 C489 1.388 . S
C489 H476 0.930 . S
C489 C488 1.388 . S
C489 C490 1.390 . S
C490 C489 1.390 . S
C490 C491 1.394 . S
C490 C496 1.465 . S
C491 C486 1.399 . S
C491 C490 1.394 . S
C491 C492 1.516 . S
C492 C491 1.516 . S
C492 C493 1.502 . S
C492 C494 1.561 . S
C492 C495 1.526 . S
C493 H477 0.959 . S
C493 H478 0.959 . S
C493 H479 0.961 . S
C493 C492 1.502 . S
C494 H480 0.960 . S
C494 H481 0.961 . S
C494 H482 0.959 . S
C494 C492 1.561 . S
C495 C492 1.526 . S
C495 C496 1.396 . S
C495 C500 1.390 . S
C496 C490 1.465 . S
C496 C495 1.396 . S
C496 C497 1.399 . S
C497 H483 0.929 . S
C497 C496 1.399 . S
C497 C498 1.385 . S
C498 H484 0.931 . S
C498 C497 1.385 . S
C498 C499 1.389 . S
C499 C498 1.389 . S
C499 C500 1.387 . S
C500 H485 0.930 . S
C500 C495 1.390 . S
C500 C499 1.387 . S
H501 C513 0.930 . S
H502 C515 0.930 . S
H503 C516 0.930 . S
H504 C520 0.959 . S
H505 C520 0.959 . S
H506 C520 0.961 . S
H507 C521 0.960 . S
H508 C521 0.961 . S
H509 C521 0.959 . S
H510 C524 0.929 . S
H511 C525 0.931 . S
H512 C527 0.930 . S
C513 H501 0.930 . S
C513 C514 1.399 . S
C513 C518 1.399 . S
C514 C513 1.399 . S
C514 C515 1.376 . S
C515 H502 0.930 . S
C515 C514 1.376 . S
C515 C516 1.388 . S
C516 H503 0.930 . S
C516 C515 1.388 . S
C516 C517 1.390 . S
C517 C516 1.390 . S
C517 C518 1.394 . S
C517 C523 1.465 . S
C518 C513 1.399 . S
C518 C517 1.394 . S
C518 C519 1.516 . S
C519 C518 1.516 . S
C519 C520 1.502 . S
C519 C521 1.561 . S
C519 C522 1.526 . S
C520 H504 0.959 . S
C520 H505 0.959 . S
C520 H506 0.961 . S
C520 C519 1.502 . S
C521 H507 0.960 . S
C521 H508 0.961 . S
C521 H509 0.959 . S
C521 C519 1.561 . S
C522 C519 1.526 . S
C522 C523 1.396 . S
C522 C527 1.390 . S
C523 C517 1.465 . S
C523 C522 1.396 . S
C523 C524 1.399 . S
C524 H510 0.929 . S
C524 C523 1.399 . S
C524 C525 1.385 . S
C525 H511 0.931 . S
C525 C524 1.385 . S
C525 C526 1.389 . S
C526 C525 1.389 . S
C526 C527 1.387 . S
C527 H512 0.930 . S
C527 C522 1.390 . S
C527 C526 1.387 . S
H528 C540 0.923 1_545 S
H529 C542 0.930 . S
H530 C543 0.930 . S
H531 C547 0.959 1_565 S
H532 C547 0.959 . S
H533 C547 0.961 . S
H534 C548 0.960 1_654 S
H535 C548 0.961 . S
H536 C548 0.959 1_554 S
H537 C551 0.929 1_565 S
H538 C552 0.931 . S
H539 C554 0.930 . S
C540 H528 0.923 1_565 S
C540 C541 1.399 . S
C540 C545 1.399 1_565 S
C541 C540 1.399 . S
C541 C542 1.376 1_655 S
C542 H529 0.930 . S
C542 C541 1.376 1_455 S
C542 C543 1.388 . S
C543 H530 0.930 . S
C543 C542 1.388 . S
C543 C544 1.401 . S
C544 C543 1.401 . S
C544 C545 1.379 1_465 S
C544 C550 1.466 1_564 S
C545 C540 1.399 1_545 S
C545 C544 1.379 1_645 S
C545 C546 1.516 1_554 S
C546 C545 1.516 1_556 S
C546 C547 1.502 . S
C546 C548 1.561 1_655 S
C546 C549 1.526 1_655 S
C547 H531 0.959 1_545 S
C547 H532 0.959 . S
C547 H533 0.961 . S
C547 C546 1.502 . S
C548 H534 0.960 1_456 S
C548 H535 0.961 . S
C548 H536 0.959 1_556 S
C548 C546 1.561 1_455 S
C549 C546 1.526 1_455 S
C549 C550 1.396 . S
C549 C554 1.390 . S
C550 C544 1.466 1_546 S
C550 C549 1.396 . S
C550 C551 1.399 . S
C551 H537 0.929 1_545 S
C551 C550 1.399 . S
C551 C552 1.385 . S
C552 H538 0.931 . S
C552 C551 1.385 . S
C552 C553 1.389 . S
C553 C552 1.389 . S
C553 C554 1.387 . S
C554 H539 0.930 . S
C554 C549 1.390 . S
C554 C553 1.387 . S
H555 C567 0.930 . S
H556 C569 0.930 . S
H557 C570 0.930 . S
H558 C574 0.959 . S
H559 C574 0.959 . S
H560 C574 0.961 . S
H561 C575 0.960 . S
H562 C575 0.961 . S
H563 C575 0.959 . S
H564 C578 0.929 . S
H565 C579 0.931 . S
H566 C581 0.930 . S
C567 H555 0.930 . S
C567 C568 1.399 . S
C567 C572 1.399 . S
C568 C567 1.399 . S
C568 C569 1.376 . S
C569 H556 0.930 . S
C569 C568 1.376 . S
C569 C570 1.388 . S
C570 H557 0.930 . S
C570 C569 1.388 . S
C570 C571 1.390 . S
C571 C570 1.390 . S
C571 C572 1.394 . S
C571 C577 1.465 . S
C572 C567 1.399 . S
C572 C571 1.394 . S
C572 C573 1.516 . S
C573 C572 1.516 . S
C573 C574 1.502 . S
C573 C575 1.561 . S
C573 C576 1.526 . S
C574 H558 0.959 . S
C574 H559 0.959 . S
C574 H560 0.961 . S
C574 C573 1.502 . S
C575 H561 0.960 . S
C575 H562 0.961 . S
C575 H563 0.959 . S
C575 C573 1.561 . S
C576 C573 1.526 . S
C576 C577 1.396 . S
C576 C581 1.390 . S
C577 C571 1.465 . S
C577 C576 1.396 . S
C577 C578 1.399 . S
C578 H564 0.929 . S
C578 C577 1.399 . S
C578 C579 1.385 . S
C579 H565 0.931 . S
C579 C578 1.385 . S
C579 C580 1.389 . S
C580 C579 1.389 . S
C580 C581 1.387 . S
C581 H566 0.930 . S
C581 C576 1.390 . S
C581 C580 1.387 . S
H582 C594 0.930 . S
H583 C596 0.930 . S
H584 C597 0.930 . S
H585 C601 0.959 . S
H586 C601 0.959 . S
H587 C601 0.961 . S
H588 C602 0.960 . S
H589 C602 0.961 . S
H590 C602 0.959 . S
H591 C605 0.929 . S
H592 C606 0.931 . S
H593 C608 0.930 . S
C594 H582 0.930 . S
C594 C595 1.399 . S
C594 C599 1.399 . S
C595 C594 1.399 . S
C595 C596 1.376 . S
C596 H583 0.930 . S
C596 C595 1.376 . S
C596 C597 1.388 . S
C597 H584 0.930 . S
C597 C596 1.388 . S
C597 C598 1.390 . S
C598 C597 1.390 . S
C598 C599 1.394 . S
C598 C604 1.465 . S
C599 C594 1.399 . S
C599 C598 1.394 . S
C599 C600 1.516 . S
C600 C599 1.516 . S
C600 C601 1.502 . S
C600 C602 1.561 . S
C600 C603 1.526 . S
C601 H585 0.959 . S
C601 H586 0.959 . S
C601 H587 0.961 . S
C601 C600 1.502 . S
C602 H588 0.960 . S
C602 H589 0.961 . S
C602 H590 0.959 . S
C602 C600 1.561 . S
C603 C600 1.526 . S
C603 C604 1.396 . S
C603 C608 1.390 . S
C604 C598 1.465 . S
C604 C603 1.396 . S
C604 C605 1.399 . S
C605 H591 0.929 . S
C605 C604 1.399 . S
C605 C606 1.385 . S
C606 H592 0.931 . S
C606 C605 1.385 . S
C606 C607 1.389 . S
C607 C606 1.389 . S
C607 C608 1.387 . S
C608 H593 0.930 . S
C608 C603 1.390 . S
C608 C607 1.387 . S
C217 C33 1.297 . S
C229 C135 1.267 . S
C244 C20 1.819 . S
C256 C104 1.789 . S
C271 C122 1.811 . S
C283 C2 1.797 . S
C298 C54 1.815 . S
C310 C138 1.793 . S
C325 C169 1.282 . S
C337 C67 1.277 . S
C352 C36 1.820 . S
C364 C156 1.790 . S
C379 C101 1.263 . S
C391 C203 1.310 . S
C406 C88 1.784 . S
C418 C172 1.827 . S
C433 C190 1.819 . S
C445 C70 1.790 . S
C460 C43 1.937 . S
C472 C9 1.928 1_565 S
C487 C111 1.934 . S
C499 C77 1.930 . S
C514 C179 1.897 . S
C526 C145 1.899 . S
C541 C5 0.349 . S
C553 C39 0.481 . S
C568 C107 0.504 . S
C580 C73 0.349 . S
C595 C175 0.493 . S
C607 C141 0.347 . S
