# Generated by pormake.
# Topology sod, (4)-cn, num edge types: 1
# Building blocks:
#     Node 0, Type 0, BuildingBlock: KUFVIS_clean_sbu_0, # of connection points: 4
#     Node 1, Type 0, BuildingBlock: KUFVIS_clean_sbu_0, # of connection points: 4
#     Node 2, Type 0, BuildingBlock: KUFVIS_clean_sbu_0, # of connection points: 4
#     Node 3, Type 0, BuildingBlock: KUFVIS_clean_sbu_0, # of connection points: 4
#     Node 4, Type 0, BuildingBlock: KUFVIS_clean_sbu_0, # of connection points: 4
#     Node 5, Type 0, BuildingBlock: KUFVIS_clean_sbu_0, # of connection points: 4
#     Node 6, Type 0, BuildingBlock: KUFVIS_clean_sbu_0, # of connection points: 4
#     Node 7, Type 0, BuildingBlock: KUFVIS_clean_sbu_0, # of connection points: 4
#     Node 8, Type 0, BuildingBlock: KUFVIS_clean_sbu_0, # of connection points: 4
#     Node 9, Type 0, BuildingBlock: KUFVIS_clean_sbu_0, # of connection points: 4
#     Node 10, Type 0, BuildingBlock: KUFVIS_clean_sbu_0, # of connection points: 4
#     Node 11, Type 0, BuildingBlock: KUFVIS_clean_sbu_0, # of connection points: 4
#     Edge 12, Type (0, 0), BuildingBlock: AJUNOK_clean_linker_0, # of connection points: 2
#     Edge 13, Type (0, 0), BuildingBlock: AJUNOK_clean_linker_0, # of connection points: 2
#     Edge 14, Type (0, 0), BuildingBlock: AJUNOK_clean_linker_0, # of connection points: 2
#     Edge 15, Type (0, 0), BuildingBlock: AJUNOK_clean_linker_0, # of connection points: 2
#     Edge 16, Type (0, 0), BuildingBlock: AJUNOK_clean_linker_0, # of connection points: 2
#     Edge 17, Type (0, 0), BuildingBlock: AJUNOK_clean_linker_0, # of connection points: 2
#     Edge 18, Type (0, 0), BuildingBlock: AJUNOK_clean_linker_0, # of connection points: 2
#     Edge 19, Type (0, 0), BuildingBlock: AJUNOK_clean_linker_0, # of connection points: 2
#     Edge 20, Type (0, 0), BuildingBlock: AJUNOK_clean_linker_0, # of connection points: 2
#     Edge 21, Type (0, 0), BuildingBlock: AJUNOK_clean_linker_0, # of connection points: 2
#     Edge 22, Type (0, 0), BuildingBlock: AJUNOK_clean_linker_0, # of connection points: 2
#     Edge 23, Type (0, 0), BuildingBlock: AJUNOK_clean_linker_0, # of connection points: 2
#     Edge 24, Type (0, 0), BuildingBlock: AJUNOK_clean_linker_0, # of connection points: 2
#     Edge 25, Type (0, 0), BuildingBlock: AJUNOK_clean_linker_0, # of connection points: 2
#     Edge 26, Type (0, 0), BuildingBlock: AJUNOK_clean_linker_0, # of connection points: 2
#     Edge 27, Type (0, 0), BuildingBlock: AJUNOK_clean_linker_0, # of connection points: 2
#     Edge 28, Type (0, 0), BuildingBlock: AJUNOK_clean_linker_0, # of connection points: 2
#     Edge 29, Type (0, 0), BuildingBlock: AJUNOK_clean_linker_0, # of connection points: 2
#     Edge 30, Type (0, 0), BuildingBlock: AJUNOK_clean_linker_0, # of connection points: 2
#     Edge 31, Type (0, 0), BuildingBlock: AJUNOK_clean_linker_0, # of connection points: 2
#     Edge 32, Type (0, 0), BuildingBlock: AJUNOK_clean_linker_0, # of connection points: 2
#     Edge 33, Type (0, 0), BuildingBlock: AJUNOK_clean_linker_0, # of connection points: 2
#     Edge 34, Type (0, 0), BuildingBlock: AJUNOK_clean_linker_0, # of connection points: 2
#     Edge 35, Type (0, 0), BuildingBlock: AJUNOK_clean_linker_0, # of connection points: 2
# Relax obj value: 0.119
# Max RMSD: 0.164
# Mean RMSD: 0.150
data_MOF--net-sod--node1-KUFVIS_clean_sbu_0--edge1-AJUNOK_clean_linker_0
_symmetry_space_group_name_H-M    P1
_symmetry_Int_Tables_number       1
_symmetry_cell_setting            triclinic
loop_
_symmetry_equiv_pos_as_xyz
'x, y, z'
_cell_length_a     30.682509
_cell_length_b     30.636139
_cell_length_c     30.815207
_cell_angle_alpha  91.455748
_cell_angle_beta   89.86723
_cell_angle_gamma 92.309247
loop_
_atom_site_label
_atom_site_type_symbol
_atom_site_fract_x
_atom_site_fract_y
_atom_site_fract_z
_atom_type_partial_charge
Mn0 Mn 0.04429 0.26952 0.52442 0.0
Mn1 Mn 0.95025 0.31761 0.53553 0.0
C2 C 0.98049 0.22959 0.54198 0.0
C3 C 0.10103 0.22162 0.50934 0.0
C4 C 0.02142 0.33691 0.59371 0.0
O5 O 0.05236 0.31572 0.47766 0.0
O6 O 0.99475 0.35397 0.50282 0.0
C7 C 0.91529 0.34283 0.44997 0.0
N8 N 0.90983 0.31939 0.48679 0.0
C9 C 0.82528 0.31938 0.47004 0.0
C10 C 0.83617 0.3436 0.43381 0.0
C11 C 0.87993 0.35432 0.42395 0.0
C12 C 0.8695 0.30674 0.49987 0.0
H13 H 0.94727 0.35428 0.44018 0.0
C14 C 0.02811 0.3493 0.47754 0.0
O15 O 0.10681 0.25732 0.53181 0.0
O16 O 0.06372 0.21653 0.48935 0.0
N17 N 0.90804 0.28221 0.56601 0.0
C18 C 0.91212 0.26492 0.60599 0.0
C19 C 0.87865 0.23956 0.62483 0.0
C20 C 0.83819 0.23132 0.60514 0.0
C21 C 0.82715 0.25214 0.56542 0.0
C22 C 0.8712 0.27747 0.54374 0.0
H23 H 0.94251 0.26837 0.6234 0.0
O24 O 0.0164 0.2245 0.56346 0.0
O25 O 0.97988 0.26368 0.51755 0.0
O26 O 0.04975 0.32103 0.56919 0.0
O27 O 0.9826 0.32388 0.58951 0.0
C28 C 0.75708 0.26938 0.51998 0.0
C29 C 0.77209 0.30244 0.4778 0.0
H30 H 0.81078 0.3533 0.41215 0.0
H31 H 0.88689 0.37298 0.3952 0.0
H32 H 0.88456 0.22547 0.65604 0.0
H33 H 0.8162 0.21051 0.62354 0.0
H34 H 0.72251 0.26003 0.52369 0.0
H35 H 0.74733 0.31244 0.45562 0.0
Mn36 Mn 0.80075 0.03022 0.53338 0.0
Mn37 Mn 0.7496 0.12351 0.52535 0.0
C38 C 0.83992 0.0942 0.51614 0.0
C39 C 0.84583 0.9732 0.55131 0.0
C40 C 0.73641 0.05049 0.46228 0.0
O41 O 0.75209 0.02091 0.57794 0.0
O42 O 0.71403 0.07981 0.55927 0.0
C43 C 0.72838 0.15913 0.61332 0.0
N44 N 0.74997 0.16431 0.57492 0.0
C45 C 0.75366 0.24878 0.59483 0.0
C46 C 0.73069 0.23834 0.63231 0.0
C47 C 0.71904 0.19472 0.64133 0.0
C48 C 0.76279 0.20442 0.56212 0.0
H49 H 0.71693 0.12718 0.62297 0.0
C50 C 0.71888 0.04521 0.58159 0.0
O51 O 0.81277 0.96781 0.52604 0.0
O52 O 0.85059 0.01121 0.57107 0.0
N53 N 0.78412 0.16518 0.49339 0.0
C54 C 0.79993 0.16078 0.45228 0.0
C55 C 0.82577 0.19379 0.43315 0.0
C56 C 0.83662 0.23376 0.45411 0.0
C57 C 0.81796 0.24513 0.49565 0.0
C58 C 0.79061 0.20192 0.51654 0.0
H59 H 0.79465 0.13057 0.43397 0.0
O60 O 0.84753 0.05734 0.49611 0.0
O61 O 0.80484 0.09463 0.54036 0.0
O62 O 0.75489 0.02377 0.4855 0.0
O63 O 0.73892 0.09067 0.47119 0.0
C64 C 0.80622 0.31524 0.54564 0.0
C65 C 0.77351 0.30119 0.5888 0.0
H66 H 0.72312 0.26387 0.65574 0.0
H67 H 0.70169 0.18806 0.67123 0.0
H68 H 0.83886 0.18755 0.40102 0.0
H69 H 0.85787 0.25517 0.43552 0.0
H70 H 0.81747 0.34944 0.54322 0.0
H71 H 0.76578 0.32605 0.61283 0.0
Mn72 Mn 0.03206 0.79697 0.53365 0.0
Mn73 Mn 0.12507 0.74493 0.53678 0.0
C74 C 0.0975 0.83535 0.5479 0.0
C75 C 0.97471 0.8427 0.51857 0.0
C76 C 0.05686 0.73291 0.60268 0.0
O77 O 0.01958 0.7483 0.48874 0.0
O78 O 0.07806 0.70857 0.50598 0.0
C79 C 0.15195 0.72105 0.44663 0.0
N80 N 0.16086 0.74396 0.48436 0.0
C81 C 0.24314 0.74544 0.45884 0.0
C82 C 0.22897 0.72154 0.42231 0.0
C83 C 0.18458 0.71042 0.41628 0.0
C84 C 0.20204 0.75726 0.49394 0.0
H85 H 0.11927 0.70936 0.43934 0.0
C86 C 0.04287 0.71442 0.48424 0.0
O87 O 0.9705 0.81011 0.54384 0.0
O88 O 0.01144 0.84669 0.49742 0.0
N89 N 0.17006 0.78017 0.56553 0.0
C90 C 0.17004 0.7965 0.60703 0.0
C91 C 0.20522 0.82207 0.62401 0.0
C92 C 0.24358 0.8312 0.60073 0.0
C93 C 0.25051 0.81151 0.55845 0.0
C94 C 0.20447 0.78599 0.53976 0.0
H95 H 0.14176 0.79175 0.62751 0.0
O96 O 0.06256 0.84392 0.57014 0.0
O97 O 0.09549 0.79984 0.52354 0.0
O98 O 0.02873 0.75079 0.58043 0.0
O99 O 0.09667 0.73652 0.59321 0.0
C100 C 0.31562 0.7953 0.50465 0.0
C101 C 0.29664 0.76273 0.46215 0.0
H102 H 0.25219 0.71244 0.39751 0.0
H103 H 0.17495 0.69212 0.38711 0.0
H104 H 0.20233 0.83577 0.65658 0.0
H105 H 0.26748 0.8517 0.61817 0.0
H106 H 0.35039 0.80479 0.50526 0.0
H107 H 0.31912 0.75321 0.43686 0.0
Mn108 Mn 0.2737 0.03293 0.53449 0.0
Mn109 Mn 0.32502 0.94131 0.51721 0.0
C110 C 0.23562 0.96907 0.51378 0.0
C111 C 0.22571 0.0896 0.55083 0.0
C112 C 0.33745 0.01547 0.46273 0.0
O113 O 0.31759 0.03961 0.58331 0.0
O114 O 0.3602 0.98713 0.55321 0.0
C115 C 0.36619 0.90085 0.59151 0.0
N116 N 0.33234 0.89901 0.56279 0.0
C117 C 0.32679 0.81479 0.57988 0.0
C118 C 0.35731 0.8237 0.61231 0.0
C119 C 0.37688 0.86554 0.61734 0.0
C120 C 0.31415 0.8597 0.5515 0.0
H121 H 0.388 0.92912 0.59312 0.0
C122 C 0.35121 0.01572 0.58359 0.0
O123 O 0.26146 0.09562 0.52975 0.0
O124 O 0.21986 0.05149 0.56829 0.0
N125 N 0.28872 0.89837 0.4861 0.0
C126 C 0.26986 0.90211 0.44643 0.0
C127 C 0.24082 0.86991 0.42906 0.0
C128 C 0.23014 0.83089 0.44977 0.0
C129 C 0.2525 0.81943 0.48861 0.0
C130 C 0.28186 0.86262 0.50928 0.0
H131 H 0.27512 0.93126 0.42794 0.0
O132 O 0.22993 1.00503 0.49304 0.0
O133 O 0.2703 0.96818 0.53808 0.0
O134 O 0.32548 0.04087 0.49245 0.0
O135 O 0.32719 0.97569 0.46442 0.0
C136 C 0.2695 0.74884 0.53236 0.0
C137 C 0.30631 0.76249 0.57269 0.0
H138 H 0.3676 0.79775 0.63267 0.0
H139 H 0.40303 0.87044 0.64072 0.0
H140 H 0.22562 0.87576 0.39818 0.0
H141 H 0.20655 0.80986 0.43256 0.0
H142 H 0.25836 0.71456 0.5287 0.0
H143 H 0.31718 0.73722 0.59352 0.0
Mn144 Mn 0.54064 0.03618 0.26901 0.0
Mn145 Mn 0.52402 0.93747 0.31467 0.0
C146 C 0.55473 0.97196 0.23052 0.0
C147 C 0.52518 0.09765 0.22888 0.0
C148 C 0.59908 1.0002 0.33909 0.0
O149 O 0.497 0.04932 0.31791 0.0
O150 O 0.48685 0.98101 0.34408 0.0
C151 C 0.43183 0.91696 0.29066 0.0
N152 N 0.47457 0.90667 0.2891 0.0
C153 C 0.45712 0.84035 0.24804 0.0
C154 C 0.41297 0.85049 0.24894 0.0
C155 C 0.40029 0.88896 0.27038 0.0
C156 C 0.48707 0.86949 0.26893 0.0
H157 H 0.4219 0.94617 0.30743 0.0
C158 C 0.47869 0.02178 0.34358 0.0
O159 O 0.55419 0.09852 0.25919 0.0
O160 O 0.50232 0.06113 0.22334 0.0
N161 N 0.55775 0.89301 0.28765 0.0
C162 C 0.60183 0.88907 0.28783 0.0
C163 C 0.61995 0.85276 0.26695 0.0
C164 C 0.59261 0.82089 0.24615 0.0
C165 C 0.54734 0.82554 0.24654 0.0
C166 C 0.53112 0.86225 0.26816 0.0
H167 H 0.62305 0.91355 0.30356 0.0
O168 O 0.57547 1.00829 0.22095 0.0
O169 O 0.52805 0.97416 0.26306 0.0
O170 O 0.58886 0.02844 0.31214 0.0
O171 O 0.57656 0.96475 0.34382 0.0
C172 C 0.51774 0.79554 0.22575 0.0
C173 C 0.47265 0.80291 0.22656 0.0
H174 H 0.38858 0.82908 0.23313 0.0
H175 H 0.36626 0.89698 0.27133 0.0
H176 H 0.65493 0.84949 0.26665 0.0
H177 H 0.60675 0.79317 0.2297 0.0
H178 H 0.52934 0.76693 0.20864 0.0
H179 H 0.45025 0.77981 0.21017 0.0
Mn180 Mn 0.04077 0.52781 0.26704 0.0
Mn181 Mn 0.93912 0.53412 0.30769 0.0
C182 C 0.9809 0.50972 0.22366 0.0
C183 C 0.10023 0.54902 0.22408 0.0
C184 C 1.00527 0.46979 0.33823 0.0
O185 O 0.04843 0.57225 0.31841 0.0
O186 O 0.97703 0.57937 0.33756 0.0
C187 C 0.90679 0.62063 0.28655 0.0
N188 N 0.90453 0.57639 0.28085 0.0
C189 C 0.83902 0.5796 0.23836 0.0
C190 C 0.84106 0.62527 0.24328 0.0
C191 C 0.87503 0.64585 0.26764 0.0
C192 C 0.87118 0.55619 0.25865 0.0
H193 H 0.93226 0.63645 0.30592 0.0
C194 C 0.01792 0.58976 0.34102 0.0
O195 O 0.10414 0.52164 0.25506 0.0
O196 O 0.0638 0.56919 0.22275 0.0
N197 N 0.9014 0.49136 0.27887 0.0
C198 C 0.90328 0.44701 0.27852 0.0
C199 C 0.87182 0.42145 0.25526 0.0
C200 C 0.83881 0.44174 0.23265 0.0
C201 C 0.83768 0.48744 0.23332 0.0
C202 C 0.86994 0.51119 0.25701 0.0
H203 H 0.92865 0.43129 0.29577 0.0
O204 O 0.01756 0.49077 0.21736 0.0
O205 O 0.97916 0.53523 0.25784 0.0
O206 O 0.03369 0.47769 0.30935 0.0
O207 O 0.96948 0.48938 0.34037 0.0
C208 C 0.80578 0.51034 0.21148 0.0
C209 C 0.80625 0.55639 0.21428 0.0
H210 H 0.8168 0.64483 0.22846 0.0
H211 H 0.87669 0.68106 0.27188 0.0
H212 H 0.87298 0.38618 0.2548 0.0
H213 H 0.81447 0.42194 0.2149 0.0
H214 H 0.78053 0.49284 0.19274 0.0
H215 H 0.78126 0.57364 0.19778 0.0
Mn216 Mn 0.53252 0.01267 0.76701 0.0
Mn217 Mn 0.43563 0.02979 0.81318 0.0
C218 C 0.46828 0.99483 0.72833 0.0
C219 C 0.59234 0.03163 0.72322 0.0
C220 C 0.50038 0.96434 0.8448 0.0
O221 O 0.54547 0.05828 0.81703 0.0
O222 O 0.47625 0.07775 0.83199 0.0
C223 C 0.41022 0.10997 0.76979 0.0
N224 N 0.40128 0.06762 0.78017 0.0
C225 C 0.33315 0.06644 0.74162 0.0
C226 C 0.3413 0.11028 0.73108 0.0
C227 C 0.38014 0.13206 0.74503 0.0
C228 C 0.36443 0.04612 0.76625 0.0
H229 H 0.44023 0.12656 0.78005 0.0
C230 C 0.51765 0.08297 0.83591 0.0
O231 O 0.59489 1.00325 0.75342 0.0
O232 O 0.55631 0.05243 0.72148 0.0
N233 N 0.39337 0.98482 0.79655 0.0
C234 C 0.3919 0.94178 0.80682 0.0
C235 C 0.35544 0.91509 0.7947 0.0
C236 C 0.32076 0.93292 0.77235 0.0
C237 C 0.32285 0.97736 0.76237 0.0
C238 C 0.3598 1.00247 0.77574 0.0
H239 H 0.41815 0.92794 0.82443 0.0
O240 O 0.50423 0.97581 0.71869 0.0
O241 O 0.47127 0.02161 0.76133 0.0
O242 O 0.52331 0.96449 0.81056 0.0
O243 O 0.46851 0.98964 0.85044 0.0
C244 C 0.2903 0.99745 0.73863 0.0
C245 C 0.2956 0.04188 0.72801 0.0
H246 H 0.31821 0.12738 0.7119 0.0
H247 H 0.38692 0.16574 0.73663 0.0
H248 H 0.35402 0.88085 0.80265 0.0
H249 H 0.29289 0.91213 0.76271 0.0
H250 H 0.26149 0.97881 0.72765 0.0
H251 H 0.27078 0.05674 0.709 0.0
Mn252 Mn 0.04446 0.53589 0.76708 0.0
Mn253 Mn 0.03087 0.43349 0.80487 0.0
C254 C 0.05905 0.47454 0.72359 0.0
C255 C 0.02828 0.5995 0.73052 0.0
C256 C 0.1056 0.49485 0.83231 0.0
O257 O 1.00068 0.54477 0.81734 0.0
O258 O 0.99674 0.47493 0.83988 0.0
C259 C 0.93704 0.41751 0.785 0.0
N260 N 0.97929 0.40618 0.78001 0.0
C261 C 0.95755 0.34241 0.73696 0.0
C262 C 0.91384 0.35334 0.7417 0.0
C263 C 0.90357 0.39116 0.76569 0.0
C264 C 0.98953 0.37004 0.75672 0.0
H265 H 0.9289 0.44635 0.80367 0.0
C266 C 0.98601 0.51491 0.84273 0.0
O267 O 0.05701 0.59916 0.76104 0.0
O268 O 1.00571 0.5631 0.72327 0.0
N269 N 0.06175 0.39032 0.77263 0.0
C270 C 0.10553 0.38456 0.77082 0.0
C271 C 0.12128 0.34851 0.74744 0.0
C272 C 0.09188 0.31857 0.72659 0.0
C273 C 0.04694 0.32498 0.72926 0.0
C274 C 0.03317 0.36156 0.75292 0.0
H275 H 0.12823 0.40731 0.78704 0.0
O276 O 0.07933 0.51175 0.71666 0.0
O277 O 0.03298 0.4741 0.75661 0.0
O278 O 0.09306 0.52591 0.80966 0.0
O279 O 0.08532 0.45771 0.83267 0.0
C280 C 0.01528 0.29653 0.70938 0.0
C281 C 0.97062 0.30516 0.71343 0.0
H282 H 0.88793 0.33306 0.72689 0.0
H283 H 0.86991 0.3999 0.76941 0.0
H284 H 0.156 0.34377 0.74556 0.0
H285 H 0.10416 0.29085 0.70855 0.0
H286 H 0.02491 0.26793 0.69091 0.0
H287 H 0.94651 0.28283 0.69856 0.0
Mn288 Mn 0.30285 0.52713 0.0316 0.0
Mn289 Mn 0.2522 0.61971 0.02015 0.0
C290 C 0.34226 0.59078 0.01451 0.0
C291 C 0.34935 0.47157 0.04907 0.0
C292 C 0.24051 0.54604 0.95847 0.0
O293 O 0.25388 0.51879 0.07617 0.0
O294 O 0.21536 0.57555 0.05237 0.0
C295 C 0.22513 0.65561 0.10646 0.0
N296 N 0.24941 0.66063 0.06963 0.0
C297 C 0.25176 0.74516 0.08947 0.0
C298 C 0.22637 0.73477 0.12539 0.0
C299 C 0.21404 0.69118 0.13372 0.0
C300 C 0.26321 0.70073 0.05769 0.0
H301 H 0.21272 0.62385 0.11538 0.0
C302 C 0.22014 0.54264 0.07713 0.0
O303 O 0.31612 0.46499 0.02417 0.0
O304 O 0.35246 0.50915 0.06989 0.0
N305 N 0.28822 0.66171 0.99019 0.0
C306 C 0.30642 0.65741 0.95006 0.0
C307 C 0.33356 0.69033 0.93261 0.0
C308 C 0.34314 0.73026 0.95409 0.0
C309 C 0.32178 0.74166 0.99426 0.0
C310 C 0.29363 0.69832 0.01382 0.0
H311 H 0.30185 0.6274 0.93125 0.0
O312 O 0.34978 0.55399 0.99432 0.0
O313 O 0.30673 0.59153 0.03803 0.0
O314 O 0.25701 0.51991 0.98377 0.0
O315 O 0.24525 0.58649 0.96539 0.0
C316 C 0.30651 0.81188 0.04288 0.0
C317 C 0.27147 0.79773 0.08419 0.0
H318 H 0.21719 0.76033 0.14811 0.0
H319 H 0.19461 0.68454 0.16235 0.0
H320 H 0.34818 0.68433 0.90111 0.0
H321 H 0.36543 0.75171 0.93671 0.0
H322 H 0.3176 0.84616 0.04083 0.0
H323 H 0.26206 0.82263 0.1075 0.0
Mn324 Mn 0.53172 0.29103 0.02783 0.0
Mn325 Mn 0.6236 0.23819 0.03384 0.0
C326 C 0.59701 0.32922 0.04424 0.0
C327 C 0.47614 0.33922 0.01479 0.0
C328 C 0.55302 0.22671 0.09727 0.0
O329 O 0.52029 0.24305 0.98164 0.0
O330 O 0.57774 0.20272 1.0008 0.0
C331 C 0.6558 0.21219 0.94597 0.0
N332 N 0.66246 0.2359 0.98362 0.0
C333 C 0.74634 0.23625 0.96351 0.0
C334 C 0.73433 0.21161 0.92671 0.0
C335 C 0.69028 0.20058 0.91811 0.0
C336 C 0.70314 0.24861 0.99576 0.0
H337 H 0.62351 0.20063 0.93687 0.0
C338 C 0.5437 0.2091 0.97754 0.0
O339 O 0.47034 0.3051 0.03773 0.0
O340 O 0.51237 0.3421 0.99266 0.0
N341 N 0.66696 0.27299 0.06464 0.0
C342 C 0.66416 0.29051 0.10554 0.0
C343 C 0.69781 0.317 0.12369 0.0
C344 C 0.73698 0.32632 0.10213 0.0
C345 C 0.74692 0.30512 0.06117 0.0
C346 C 0.70264 0.27846 0.04071 0.0
H347 H 0.63476 0.28612 0.12446 0.0
O348 O 0.56163 0.33695 0.06608 0.0
O349 O 0.5957 0.29392 0.01934 0.0
O350 O 0.5257 0.24417 0.07384 0.0
O351 O 0.59297 0.23015 0.08888 0.0
C352 C 0.81555 0.28851 1.0121 0.0
C353 C 0.7995 0.25436 0.96948 0.0
H354 H 0.75897 0.202 0.90357 0.0
H355 H 0.6824 0.18169 0.88881 0.0
H356 H 0.69302 0.33133 0.15574 0.0
H357 H 0.75901 0.34825 0.12013 0.0
H358 H 0.85008 0.2986 0.01467 0.0
H359 H 0.82353 0.2445 0.94584 0.0
Mn360 Mn 0.77752 0.5301 0.03205 0.0
Mn361 Mn 0.82239 0.43322 0.02118 0.0
C362 C 0.73475 0.46634 0.01532 0.0
C363 C 0.73389 0.59013 0.04989 0.0
C364 C 0.84089 0.50333 0.96059 0.0
O365 O 0.82795 0.53798 0.0766 0.0
O366 O 0.86111 0.47612 0.05416 0.0
C367 C 0.8385 0.40204 0.11064 0.0
N368 N 0.82101 0.39479 0.07048 0.0
C369 C 0.82141 0.31082 0.08751 0.0
C370 C 0.84381 0.32313 0.12533 0.0
C371 C 0.8509 0.36753 0.13693 0.0
C372 C 0.81006 0.3541 0.05648 0.0
H373 H 0.8431 0.43494 0.12311 0.0
C374 C 0.85967 0.51131 0.07792 0.0
O375 O 0.76759 0.59324 0.0252 0.0
O376 O 0.72823 0.55324 0.0697 0.0
N377 N 0.7854 0.39148 0.99006 0.0
C378 C 0.76851 0.39456 0.94953 0.0
C379 C 0.74209 0.36088 0.93067 0.0
C380 C 0.73259 0.32127 0.95097 0.0
C381 C 0.7532 0.31104 0.99128 0.0
C382 C 0.78045 0.35511 0.01229 0.0
H383 H 0.77338 0.42423 0.93167 0.0
O384 O 0.72856 0.50253 0.99536 0.0
O385 O 0.77015 0.46589 0.03847 0.0
O386 O 0.82465 0.53212 0.98462 0.0
O387 O 0.83263 0.46356 0.9669 0.0
C388 C 0.76847 0.24216 0.03838 0.0
C389 C 0.80263 0.25782 0.08056 0.0
H390 H 0.85286 0.29848 0.14781 0.0
H391 H 0.8663 0.37562 0.16778 0.0
H392 H 0.72775 0.36613 0.89925 0.0
H393 H 0.71088 0.29916 0.9327 0.0
H394 H 0.7578 0.20772 0.0353 0.0
H395 H 0.81159 0.23375 0.10365 0.0
Mn396 Mn 0.54576 0.76653 0.03175 0.0
Mn397 Mn 0.45116 0.81523 0.04039 0.0
C398 C 0.48114 0.72649 0.0469 0.0
C399 C 0.60454 0.72054 0.01621 0.0
C400 C 0.52062 0.83189 0.10259 0.0
O401 O 0.55504 0.81425 0.98658 0.0
O402 O 0.49668 0.85221 1.01013 0.0
C403 C 0.42052 0.83911 0.9526 0.0
N404 N 0.41319 0.81655 0.98969 0.0
C405 C 0.32974 0.81576 0.96839 0.0
C406 C 0.3424 0.83956 0.9324 0.0
C407 C 0.38658 0.85016 0.92459 0.0
C408 C 0.37234 0.80386 1.00084 0.0
H409 H 0.45293 0.84999 0.94399 0.0
C410 C 0.53057 0.84763 0.98569 0.0
O411 O 0.60837 0.75506 0.04062 0.0
O412 O 0.56762 0.71497 0.99557 0.0
N413 N 0.4076 0.7798 0.06909 0.0
C414 C 0.40931 0.76362 0.10979 0.0
C415 C 0.37488 0.73827 0.12713 0.0
C416 C 0.33573 0.72912 0.1051 0.0
C417 C 0.32686 0.74918 0.0644 0.0
C418 C 0.3719 0.77485 0.04501 0.0
H419 H 0.43847 0.76799 0.12914 0.0
O420 O 0.51674 0.7201 0.06842 0.0
O421 O 0.48157 0.76117 0.02326 0.0
O422 O 0.54919 0.81575 0.07853 0.0
O423 O 0.48115 0.8224 0.09574 0.0
C424 C 0.25934 0.76537 0.01481 0.0
C425 C 0.27639 0.79829 0.97328 0.0
H426 H 0.31816 0.84877 0.90923 0.0
H427 H 0.39503 0.86824 0.8958 0.0
H428 H 0.37916 0.72449 0.15879 0.0
H429 H 0.31286 0.70825 0.12243 0.0
H430 H 0.22467 0.75575 0.01663 0.0
H431 H 0.25283 0.80782 0.94961 0.0
C432 C 0.04254 0.37111 0.40022 0.0
C433 C 0.03348 0.3831 0.44371 0.0
C434 C 0.03449 0.39955 0.36598 0.0
C435 C 0.01625 0.44048 0.37404 0.0
H436 H 0.05323 0.33859 0.3923 0.0
H437 H 0.04064 0.38863 0.3329 0.0
S438 S 0.99388 0.4904 0.4823 0.0
N439 N 0.01117 0.44146 0.4929 0.0
N440 N 0.99487 0.4937 0.42892 0.0
C441 C 1.00981 0.45384 0.41743 0.0
C442 C 0.01883 0.42554 0.45211 0.0
C443 C 0.6832 0.99453 0.42975 0.0
C444 C 0.70688 0.0347 0.42671 0.0
C445 C 0.64932 0.98276 0.40053 0.0
C446 C 0.63805 0.0106 0.36698 0.0
H447 H 0.68934 0.97301 0.45622 0.0
H448 H 0.63096 0.95231 0.40524 0.0
S449 S 0.69491 0.11675 0.34157 0.0
N450 N 0.71986 0.10019 0.38515 0.0
N451 N 0.65718 0.07839 0.32999 0.0
C452 C 0.66362 0.04966 0.36209 0.0
C453 C 0.69772 0.06162 0.39199 0.0
C454 C 0.04455 0.60979 0.41533 0.0
C455 C 0.02892 0.62288 0.37512 0.0
C456 C 0.04699 0.63906 0.45117 0.0
C457 C 0.0332 0.6823 0.44827 0.0
H458 H 0.0539 0.57641 0.4194 0.0
H459 H 0.05991 0.62777 0.4814 0.0
S460 S 0.99164 0.73267 0.34899 0.0
N461 N 1.00093 0.68184 0.33371 0.0
N462 N 1.00497 0.73685 0.40087 0.0
C463 C 0.0176 0.69562 0.40798 0.0
C464 C 0.01563 0.66593 0.37148 0.0
C465 C 0.41435 0.03819 0.4462 0.0
C466 C 0.37143 0.02937 0.43151 0.0
C467 C 0.44948 0.04036 0.41683 0.0
C468 C 0.44254 0.03512 0.37189 0.0
H469 H 0.42119 0.03984 0.4807 0.0
H470 H 0.48242 0.04311 0.42949 0.0
S471 S 0.33583 0.01639 0.31707 0.0
N472 N 0.32364 0.01815 0.36933 0.0
N473 N 0.38927 0.02492 0.31402 0.0
C474 C 0.39942 0.02997 0.3568 0.0
C475 C 0.36389 0.02636 0.38667 0.0
C476 C 0.05973 0.6718 0.7077 0.0
C477 C 0.02801 0.63754 0.70129 0.0
C478 C 0.06752 0.70371 0.67653 0.0
C479 C 0.04309 0.70359 0.63813 0.0
H480 H 0.08063 0.67282 0.73602 0.0
H481 H 0.09381 0.72792 0.68193 0.0
S482 S 0.95355 0.62406 0.60677 0.0
N483 N 0.9702 0.60731 0.65428 0.0
N484 N 0.98391 0.66832 0.59629 0.0
C485 C 1.00929 0.67147 0.6324 0.0
C486 C 1.00192 0.63824 0.66384 0.0
C487 C 0.39927 0.97581 0.68726 0.0
C488 C 0.43692 1.0026 0.69317 0.0
C489 C 0.36921 0.98407 0.65446 0.0
C490 C 0.37829 0.01601 0.62325 0.0
H491 H 0.39295 0.94839 0.7081 0.0
H492 H 0.3399 0.96327 0.6517 0.0
S493 S 0.47362 0.09377 0.62307 0.0
N494 N 0.4809 0.06392 0.66619 0.0
N495 N 0.42761 0.07482 0.60049 0.0
C496 C 0.4161 0.04269 0.62834 0.0
C497 C 0.44503 0.03655 0.66382 0.0
C498 C 0.07547 0.38381 0.63854 0.0
C499 C 0.03215 0.37319 0.62553 0.0
C500 C 0.08498 0.41794 0.66918 0.0
C501 C 0.05138 0.44206 0.68784 0.0
H502 H 0.10202 0.3651 0.62574 0.0
H503 H 0.11839 0.42434 0.67947 0.0
S504 S 0.93412 0.43352 0.65886 0.0
N505 N 0.9564 0.39428 0.62988 0.0
N506 N 0.97451 0.45749 0.68685 0.0
C507 C 1.00861 0.43367 0.67306 0.0
C508 C 0.99889 0.39936 0.64222 0.0
C509 C 0.6175 0.05886 0.65112 0.0
C510 C 0.62589 0.03495 0.6883 0.0
C511 C 0.6466 0.05979 0.61601 0.0
C512 C 0.68575 0.03708 0.61637 0.0
H513 H 0.58794 0.07685 0.6488 0.0
H514 H 0.63853 0.07934 0.58857 0.0
S515 S 0.72281 0.96851 0.70572 0.0
N516 N 0.67584 0.98689 0.72303 0.0
N517 N 0.73078 0.98919 0.65726 0.0
C518 C 0.69425 0.01236 0.65308 0.0
C519 C 0.66443 0.01132 0.68897 0.0
C520 C 0.43148 0.40161 0.99058 0.0
C521 C 0.44789 0.37669 0.02386 0.0
C522 C 0.40081 0.43355 0.99981 0.0
C523 C 0.38638 0.44251 0.04265 0.0
H524 H 0.44081 0.39509 0.95719 0.0
H525 H 0.38741 0.4508 0.97295 0.0
S526 S 0.42313 0.38962 0.14175 0.0
N527 N 0.44987 0.36538 0.10191 0.0
N528 N 0.39304 0.42598 0.11861 0.0
C529 C 0.40436 0.41963 0.07635 0.0
C530 C 0.4349 0.38657 0.06706 0.0
C531 C 0.38965 0.6391 0.06442 0.0
C532 C 0.37891 0.62429 0.02186 0.0
C533 C 0.42492 0.66932 0.07271 0.0
C534 C 0.44771 0.68989 0.03868 0.0
H535 H 0.37148 0.6262 0.09174 0.0
H536 H 0.43348 0.67762 0.10601 0.0
S537 S 0.44083 0.65455 0.92278 0.0
N538 N 0.40265 0.62397 0.94663 0.0
N539 N 0.46249 0.687 0.9613 0.0
C540 C 0.43895 0.67363 0.99626 0.0
C541 C 0.40606 0.6396 0.98817 0.0
C542 C 0.64504 0.37624 0.9955 0.0
C543 C 0.63116 0.36539 0.03776 0.0
C544 C 0.67573 0.41109 0.98814 0.0
C545 C 0.69774 0.43331 0.02269 0.0
H546 H 0.63102 0.35854 0.96769 0.0
H547 H 0.68316 0.4198 0.95508 0.0
S548 S 0.66583 0.4259 0.13856 0.0
N549 N 0.63373 0.38857 0.11371 0.0
N550 N 0.69748 0.44731 0.10053 0.0
C551 C 0.68256 0.42439 0.06491 0.0
C552 C 0.6481 0.39204 0.07217 0.0
C553 C 0.65576 0.61153 0.03953 0.0
C554 C 0.70013 0.6238 0.04631 0.0
C555 C 0.62522 0.64223 0.02669 0.0
C556 C 0.6378 0.68645 0.02033 0.0
H557 H 0.64481 0.57772 0.04283 0.0
H558 H 0.59133 0.63152 0.02293 0.0
S559 S 0.74977 0.73531 0.03399 0.0
N560 N 0.75472 0.68333 0.04523 0.0
N561 N 0.69778 0.7406 0.02238 0.0
C562 C 0.68195 0.69893 0.02731 0.0
C563 C 0.71289 0.66782 0.03988 0.0
C564 C 0.51742 0.92191 0.95831 0.0
C565 C 0.53526 0.88055 0.95092 0.0
C566 C 0.50626 0.9485 0.92396 0.0
C567 C 0.51318 0.93547 0.88052 0.0
H568 H 0.50935 0.93268 0.99101 0.0
H569 H 0.49152 0.97932 0.93156 0.0
S570 S 0.56272 0.83238 0.84315 0.0
N571 N 0.56171 0.82925 0.89657 0.0
N572 N 0.54226 0.87987 0.83199 0.0
C573 C 0.53378 0.89565 0.87261 0.0
C574 C 0.54467 0.86821 0.90774 0.0
C575 C 0.19566 0.55944 0.89296 0.0
C576 C 0.21119 0.52966 0.92264 0.0
C577 C 0.16303 0.54713 0.86297 0.0
C578 C 0.14401 0.5044 0.86119 0.0
H579 H 0.20778 0.59316 0.89366 0.0
H580 H 0.15172 0.57212 0.84197 0.0
S581 S 0.17668 0.4122 0.92825 0.0
N582 N 0.20786 0.45415 0.94579 0.0
N583 N 0.14627 0.43104 0.88932 0.0
C584 C 0.16092 0.47348 0.88899 0.0
C585 C 0.19452 0.48606 0.91963 0.0
C586 C 0.55009 0.10546 0.90724 0.0
C587 C 0.53151 0.11732 0.86792 0.0
C588 C 0.55212 0.13476 0.94308 0.0
C589 C 0.53542 0.17702 0.94109 0.0
H590 H 0.56122 0.07265 0.911 0.0
H591 H 0.56679 0.12408 0.97273 0.0
S592 S 0.48603 0.22441 0.844 0.0
N593 N 0.49774 0.17433 0.82819 0.0
N594 N 0.50185 0.22959 0.89512 0.0
C595 C 0.51754 0.18939 0.90148 0.0
C596 C 0.51563 0.15957 0.86506 0.0
C597 C 0.95482 0.50071 0.91528 0.0
C598 C 0.95273 0.52385 0.87649 0.0
C599 C 0.9187 0.49598 0.94267 0.0
C600 C 0.87896 0.51463 0.93292 0.0
H601 H 0.98393 0.48367 0.92319 0.0
H602 H 0.92147 0.47614 0.97111 0.0
S603 S 0.85734 0.58278 0.83839 0.0
N604 N 0.90842 0.56868 0.83151 0.0
N605 N 0.84049 0.56081 0.88427 0.0
C606 C 0.87711 0.54085 0.89625 0.0
C607 C 0.91408 0.5453 0.86776 0.0
C608 C 0.55629 0.16902 0.20379 0.0
C609 C 0.52444 0.13473 0.1986 0.0
C610 C 0.56364 0.20005 0.1718 0.0
C611 C 0.53871 0.19899 0.1337 0.0
H612 H 0.57768 0.17071 0.23175 0.0
H613 H 0.59016 0.22419 0.17626 0.0
S614 S 0.44777 0.1198 0.10602 0.0
N615 N 0.46532 0.10396 0.15355 0.0
N616 N 0.47834 0.16343 0.09382 0.0
C617 C 0.50453 0.16713 0.12932 0.0
C618 C 0.49755 0.13475 0.16168 0.0
C619 C 0.94361 0.47611 0.15914 0.0
C620 C 0.95035 0.51266 0.18665 0.0
C621 C 0.91769 0.47795 0.12212 0.0
C622 C 0.89411 0.51534 0.11247 0.0
H623 H 0.95892 0.44576 0.16598 0.0
H624 H 0.91519 0.44868 0.10177 0.0
S625 S 0.9157 0.62457 0.16345 0.0
N626 N 0.94419 0.59158 0.19297 0.0
N627 N 0.8893 0.59311 0.12705 0.0
C628 C 0.90369 0.5534 0.13748 0.0
C629 C 0.93299 0.55238 0.17376 0.0
C630 C 0.49781 0.88888 0.15604 0.0
C631 C 0.53193 0.86617 0.13626 0.0
C632 C 0.50613 0.92332 0.18569 0.0
C633 C 0.54884 0.9363 0.19771 0.0
H634 H 0.46403 0.88041 0.1484 0.0
H635 H 0.4786 0.93978 0.19967 0.0
S636 S 0.65024 0.8899 0.15467 0.0
N637 N 0.61073 0.86069 0.12997 0.0
N638 N 0.62602 0.92589 0.18642 0.0
C639 C 0.58354 0.91509 0.17772 0.0
C640 C 0.57514 0.87969 0.14714 0.0
C641 C 0.19982 0.52515 0.1541 0.0
C642 C 0.18713 0.53767 0.11247 0.0
C643 C 0.17216 0.53022 0.1903 0.0
C644 C 0.13091 0.54851 0.18649 0.0
H645 H 0.23205 0.51304 0.15917 0.0
H646 H 0.18338 0.52003 0.22162 0.0
S647 S 0.08035 0.58226 0.08381 0.0
N648 N 0.12888 0.5658 0.06909 0.0
N649 N 0.07761 0.57602 0.13678 0.0
C650 C 0.11738 0.55992 0.14479 0.0
C651 C 0.14517 0.55417 0.10795 0.0
C652 C 0.92387 0.95227 0.54175 0.0
C653 C 0.87967 0.93993 0.54866 0.0
C654 C 0.95441 0.92118 0.5286 0.0
C655 C 0.94172 0.87677 0.52195 0.0
H656 H 0.93461 0.9863 0.54509 0.0
H657 H 0.9883 0.93173 0.52489 0.0
S658 S 0.83008 0.82788 0.53557 0.0
N659 N 0.8251 0.88026 0.54758 0.0
N660 N 0.88204 0.82235 0.52348 0.0
C661 C 0.89772 0.86429 0.52887 0.0
C662 C 0.86689 0.89566 0.54209 0.0
C663 C 0.92901 0.18286 0.49493 0.0
C664 C 0.94638 0.19308 0.5365 0.0
C665 C 0.89683 0.1491 0.4882 0.0
C666 C 0.87672 0.12759 0.52317 0.0
H667 H 0.94135 0.20026 0.467 0.0
H668 H 0.88718 0.14028 0.45533 0.0
S669 S 0.9174 0.13353 0.63657 0.0
N670 N 0.94862 0.17012 0.61132 0.0
N671 N 0.88246 0.11304 0.59996 0.0
C672 C 0.89536 0.13569 0.56454 0.0
C673 C 0.93127 0.16696 0.5708 0.0
C674 C 0.15521 0.89208 0.57264 0.0
C675 C 0.13095 0.87112 0.53899 0.0
C676 C 0.18965 0.9225 0.56381 0.0
C677 C 0.19826 0.93692 0.52135 0.0
H678 H 0.14834 0.88407 0.606 0.0
H679 H 0.20909 0.93565 0.59076 0.0
S680 S 0.1325 0.90462 0.4241 0.0
N681 N 0.11256 0.87279 0.46247 0.0
N682 N 0.17155 0.93581 0.44721 0.0
C683 C 0.16985 0.92097 0.48835 0.0
C684 C 0.13753 0.88689 0.49677 0.0
C685 C 0.17558 0.19752 0.52709 0.0
C686 C 0.13207 0.18596 0.5159 0.0
C687 C 0.20451 0.16643 0.54112 0.0
C688 C 0.19131 0.12221 0.54566 0.0
H689 H 0.18746 0.23122 0.52526 0.0
H690 H 0.23797 0.17711 0.54787 0.0
S691 S 0.08069 0.07439 0.52153 0.0
N692 N 0.07692 0.12677 0.51109 0.0
N693 N 0.13146 0.06828 0.5374 0.0
C694 C 0.14777 0.11002 0.53508 0.0
C695 C 0.11824 0.14179 0.52013 0.0
loop_
_geom_bond_atom_site_label_1
_geom_bond_atom_site_label_2
_geom_bond_distance
_geom_bond_site_symmetry_2
_ccdc_geom_bond_type
Mn0 O5 2.095 . S
Mn0 O15 2.162 . S
Mn0 O16 2.297 . S
Mn0 O24 2.385 1_455 S
Mn0 O25 2.209 1_455 S
Mn0 O26 2.094 . S
Mn1 O6 2.121 . S
Mn1 N8 2.257 . S
Mn1 N17 2.282 . S
Mn1 O25 2.215 . S
Mn1 O27 2.117 . S
C2 O24 1.234 . S
C2 O25 1.283 . S
C3 O15 1.281 . S
C3 O16 1.236 . S
C4 O26 1.240 . S
C4 O27 1.264 1_455 S
O5 Mn0 2.095 . S
O5 C14 1.250 . S
O6 Mn1 2.121 . S
O6 C14 1.258 1_655 S
C7 N8 1.326 . S
C7 C11 1.460 . S
C7 H13 0.929 . S
N8 Mn1 2.257 . S
N8 C7 1.326 . S
N8 C12 1.362 . S
C9 C10 1.258 . S
C9 C12 1.431 . S
C9 C29 1.449 . S
C10 C9 1.258 . S
C10 C11 1.477 . S
C10 H30 0.931 . S
C11 C7 1.460 . S
C11 C10 1.477 . S
C11 H31 0.930 . S
C12 N8 1.362 . S
C12 C9 1.431 . S
C12 C22 1.476 . S
H13 C7 0.929 . S
C14 O5 1.250 . S
C14 O6 1.258 1_455 S
O15 Mn0 2.162 . S
O15 C3 1.281 . S
O16 Mn0 2.297 . S
O16 C3 1.236 . S
N17 Mn1 2.282 . S
N17 C18 1.328 . S
N17 C22 1.318 . S
C18 N17 1.328 . S
C18 C19 1.457 . S
C18 H23 0.929 . S
C19 C18 1.457 . S
C19 C20 1.291 . S
C19 H32 0.931 . S
C20 C19 1.291 . S
C20 C21 1.373 . S
C20 H33 0.929 . S
C21 C20 1.373 . S
C21 C22 1.396 . S
C21 C28 1.403 . S
C22 C12 1.476 . S
C22 N17 1.318 . S
C22 C21 1.396 . S
H23 C18 0.929 . S
O24 Mn0 2.385 1_655 S
O24 C2 1.234 . S
O25 Mn0 2.209 1_655 S
O25 Mn1 2.215 . S
O25 C2 1.283 . S
O26 Mn0 2.094 . S
O26 C4 1.240 . S
O27 Mn1 2.117 . S
O27 C4 1.264 1_655 S
C28 C21 1.403 . S
C28 C29 1.399 . S
C28 H34 0.929 . S
C29 C9 1.449 . S
C29 C28 1.399 . S
C29 H35 0.930 . S
H30 C10 0.931 . S
H31 C11 0.930 . S
H32 C19 0.931 . S
H33 C20 0.929 . S
H34 C28 0.929 . S
H35 C29 0.930 . S
Mn36 O41 2.095 . S
Mn36 O51 2.162 1_545 S
Mn36 O52 2.297 1_545 S
Mn36 O60 2.385 . S
Mn36 O61 2.209 . S
Mn36 O62 2.094 . S
Mn37 O42 2.121 . S
Mn37 N44 2.257 . S
Mn37 N53 2.282 . S
Mn37 O61 2.215 . S
Mn37 O63 2.117 . S
C38 O60 1.234 . S
C38 O61 1.283 . S
C39 O51 1.281 . S
C39 O52 1.236 . S
C40 O62 1.240 . S
C40 O63 1.264 . S
O41 Mn36 2.095 . S
O41 C50 1.250 . S
O42 Mn37 2.121 . S
O42 C50 1.258 . S
C43 N44 1.326 . S
C43 C47 1.460 . S
C43 H49 0.929 . S
N44 Mn37 2.257 . S
N44 C43 1.326 . S
N44 C48 1.362 . S
C45 C46 1.258 . S
C45 C48 1.431 . S
C45 C65 1.449 . S
C46 C45 1.258 . S
C46 C47 1.477 . S
C46 H66 0.931 . S
C47 C43 1.460 . S
C47 C46 1.477 . S
C47 H67 0.930 . S
C48 N44 1.362 . S
C48 C45 1.431 . S
C48 C58 1.476 . S
H49 C43 0.929 . S
C50 O41 1.250 . S
C50 O42 1.258 . S
O51 Mn36 2.162 1_565 S
O51 C39 1.281 . S
O52 Mn36 2.297 1_565 S
O52 C39 1.236 . S
N53 Mn37 2.282 . S
N53 C54 1.328 . S
N53 C58 1.318 . S
C54 N53 1.328 . S
C54 C55 1.457 . S
C54 H59 0.929 . S
C55 C54 1.457 . S
C55 C56 1.291 . S
C55 H68 0.931 . S
C56 C55 1.291 . S
C56 C57 1.373 . S
C56 H69 0.929 . S
C57 C56 1.373 . S
C57 C58 1.396 . S
C57 C64 1.403 . S
C58 C48 1.476 . S
C58 N53 1.318 . S
C58 C57 1.396 . S
H59 C54 0.929 . S
O60 Mn36 2.385 . S
O60 C38 1.234 . S
O61 Mn36 2.209 . S
O61 Mn37 2.215 . S
O61 C38 1.283 . S
O62 Mn36 2.094 . S
O62 C40 1.240 . S
O63 Mn37 2.117 . S
O63 C40 1.264 . S
C64 C57 1.403 . S
C64 C65 1.399 . S
C64 H70 0.929 . S
C65 C45 1.449 . S
C65 C64 1.399 . S
C65 H71 0.930 . S
H66 C46 0.931 . S
H67 C47 0.930 . S
H68 C55 0.931 . S
H69 C56 0.929 . S
H70 C64 0.929 . S
H71 C65 0.930 . S
Mn72 O77 2.095 . S
Mn72 O87 2.162 1_455 S
Mn72 O88 2.297 1_455 S
Mn72 O96 2.385 . S
Mn72 O97 2.209 . S
Mn72 O98 2.094 . S
Mn73 O78 2.121 . S
Mn73 N80 2.257 . S
Mn73 N89 2.282 . S
Mn73 O97 2.215 . S
Mn73 O99 2.117 . S
C74 O96 1.234 . S
C74 O97 1.283 . S
C75 O87 1.281 . S
C75 O88 1.236 . S
C76 O98 1.240 . S
C76 O99 1.264 . S
O77 Mn72 2.095 . S
O77 C86 1.250 . S
O78 Mn73 2.121 . S
O78 C86 1.258 . S
C79 N80 1.326 . S
C79 C83 1.460 . S
C79 H85 0.929 . S
N80 Mn73 2.257 . S
N80 C79 1.326 . S
N80 C84 1.362 . S
C81 C82 1.258 . S
C81 C84 1.431 . S
C81 C101 1.449 . S
C82 C81 1.258 . S
C82 C83 1.477 . S
C82 H102 0.931 . S
C83 C79 1.460 . S
C83 C82 1.477 . S
C83 H103 0.930 . S
C84 N80 1.362 . S
C84 C81 1.431 . S
C84 C94 1.476 . S
H85 C79 0.929 . S
C86 O77 1.250 . S
C86 O78 1.258 . S
O87 Mn72 2.162 1_655 S
O87 C75 1.281 . S
O88 Mn72 2.297 1_655 S
O88 C75 1.236 . S
N89 Mn73 2.282 . S
N89 C90 1.328 . S
N89 C94 1.318 . S
C90 N89 1.328 . S
C90 C91 1.457 . S
C90 H95 0.929 . S
C91 C90 1.457 . S
C91 C92 1.291 . S
C91 H104 0.931 . S
C92 C91 1.291 . S
C92 C93 1.373 . S
C92 H105 0.929 . S
C93 C92 1.373 . S
C93 C94 1.396 . S
C93 C100 1.403 . S
C94 C84 1.476 . S
C94 N89 1.318 . S
C94 C93 1.396 . S
H95 C90 0.929 . S
O96 Mn72 2.385 . S
O96 C74 1.234 . S
O97 Mn72 2.209 . S
O97 Mn73 2.215 . S
O97 C74 1.283 . S
O98 Mn72 2.094 . S
O98 C76 1.240 . S
O99 Mn73 2.117 . S
O99 C76 1.264 . S
C100 C93 1.403 . S
C100 C101 1.399 . S
C100 H106 0.929 . S
C101 C81 1.449 . S
C101 C100 1.399 . S
C101 H107 0.930 . S
H102 C82 0.931 . S
H103 C83 0.930 . S
H104 C91 0.931 . S
H105 C92 0.929 . S
H106 C100 0.929 . S
H107 C101 0.930 . S
Mn108 O113 2.095 . S
Mn108 O123 2.162 . S
Mn108 O124 2.297 . S
Mn108 O132 2.385 1_545 S
Mn108 O133 2.209 1_545 S
Mn108 O134 2.094 . S
Mn109 O114 2.121 . S
Mn109 N116 2.257 . S
Mn109 N125 2.282 . S
Mn109 O133 2.215 . S
Mn109 O135 2.117 . S
C110 O132 1.234 . S
C110 O133 1.283 . S
C111 O123 1.281 . S
C111 O124 1.236 . S
C112 O134 1.236 1_565 S
C112 O135 1.268 . S
O113 Mn108 2.095 . S
O113 C122 1.250 . S
O114 Mn109 2.121 . S
O114 C122 1.258 1_565 S
C115 N116 1.326 . S
C115 C119 1.460 . S
C115 H121 0.929 . S
N116 Mn109 2.257 . S
N116 C115 1.326 . S
N116 C120 1.362 . S
C117 C118 1.258 . S
C117 C120 1.431 . S
C117 C137 1.449 . S
C118 C117 1.258 . S
C118 C119 1.477 . S
C118 H138 0.931 . S
C119 C115 1.460 . S
C119 C118 1.477 . S
C119 H139 0.930 . S
C120 N116 1.362 . S
C120 C117 1.431 . S
C120 C130 1.476 . S
H121 C115 0.929 . S
C122 O113 1.250 . S
C122 O114 1.258 1_545 S
O123 Mn108 2.162 . S
O123 C111 1.281 . S
O124 Mn108 2.297 . S
O124 C111 1.236 . S
N125 Mn109 2.282 . S
N125 C126 1.328 . S
N125 C130 1.318 . S
C126 N125 1.328 . S
C126 C127 1.457 . S
C126 H131 0.929 . S
C127 C126 1.457 . S
C127 C128 1.291 . S
C127 H140 0.931 . S
C128 C127 1.291 . S
C128 C129 1.373 . S
C128 H141 0.929 . S
C129 C128 1.373 . S
C129 C130 1.396 . S
C129 C136 1.403 . S
C130 C120 1.476 . S
C130 N125 1.318 . S
C130 C129 1.396 . S
H131 C126 0.929 . S
O132 Mn108 2.385 1_565 S
O132 C110 1.234 . S
O133 Mn108 2.209 1_565 S
O133 Mn109 2.215 . S
O133 C110 1.283 . S
O134 Mn108 2.094 . S
O134 C112 1.236 1_545 S
O135 Mn109 2.117 . S
O135 C112 1.268 . S
C136 C129 1.403 . S
C136 C137 1.399 . S
C136 H142 0.929 . S
C137 C117 1.449 . S
C137 C136 1.399 . S
C137 H143 0.930 . S
H138 C118 0.931 . S
H139 C119 0.930 . S
H140 C127 0.931 . S
H141 C128 0.929 . S
H142 C136 0.929 . S
H143 C137 0.930 . S
Mn144 O149 2.095 . S
Mn144 O159 2.162 . S
Mn144 O160 2.297 . S
Mn144 O168 2.385 1_545 S
Mn144 O169 2.209 1_545 S
Mn144 O170 2.094 . S
Mn145 O150 2.121 . S
Mn145 N152 2.257 . S
Mn145 N161 2.282 . S
Mn145 O169 2.215 . S
Mn145 O171 2.117 . S
C146 O168 1.234 . S
C146 O169 1.283 . S
C147 O159 1.281 . S
C147 O160 1.236 . S
C148 O170 1.240 . S
C148 O171 1.264 1_545 S
O149 Mn144 2.095 . S
O149 C158 1.250 . S
O150 Mn145 2.121 . S
O150 C158 1.258 1_565 S
C151 N152 1.326 . S
C151 C155 1.460 . S
C151 H157 0.929 . S
N152 Mn145 2.257 . S
N152 C151 1.326 . S
N152 C156 1.362 . S
C153 C154 1.258 . S
C153 C156 1.431 . S
C153 C173 1.449 . S
C154 C153 1.258 . S
C154 C155 1.477 . S
C154 H174 0.931 . S
C155 C151 1.460 . S
C155 C154 1.477 . S
C155 H175 0.930 . S
C156 N152 1.362 . S
C156 C153 1.431 . S
C156 C166 1.476 . S
H157 C151 0.929 . S
C158 O149 1.250 . S
C158 O150 1.258 1_545 S
O159 Mn144 2.162 . S
O159 C147 1.281 . S
O160 Mn144 2.297 . S
O160 C147 1.236 . S
N161 Mn145 2.282 . S
N161 C162 1.328 . S
N161 C166 1.318 . S
C162 N161 1.328 . S
C162 C163 1.457 . S
C162 H167 0.929 . S
C163 C162 1.457 . S
C163 C164 1.291 . S
C163 H176 0.931 . S
C164 C163 1.291 . S
C164 C165 1.373 . S
C164 H177 0.929 . S
C165 C164 1.373 . S
C165 C166 1.396 . S
C165 C172 1.403 . S
C166 C156 1.476 . S
C166 N161 1.318 . S
C166 C165 1.396 . S
H167 C162 0.929 . S
O168 Mn144 2.385 1_565 S
O168 C146 1.234 . S
O169 Mn144 2.209 1_565 S
O169 Mn145 2.215 . S
O169 C146 1.283 . S
O170 Mn144 2.094 . S
O170 C148 1.240 . S
O171 Mn145 2.117 . S
O171 C148 1.264 1_565 S
C172 C165 1.403 . S
C172 C173 1.399 . S
C172 H178 0.929 . S
C173 C153 1.449 . S
C173 C172 1.399 . S
C173 H179 0.930 . S
H174 C154 0.931 . S
H175 C155 0.930 . S
H176 C163 0.931 . S
H177 C164 0.929 . S
H178 C172 0.929 . S
H179 C173 0.930 . S
Mn180 O185 2.095 . S
Mn180 O195 2.162 . S
Mn180 O196 2.297 . S
Mn180 O204 2.385 1_455 S
Mn180 O205 2.209 1_455 S
Mn180 O206 2.094 . S
Mn181 O186 2.121 . S
Mn181 N188 2.257 . S
Mn181 N197 2.282 . S
Mn181 O205 2.215 . S
Mn181 O207 2.117 . S
C182 O204 1.234 . S
C182 O205 1.283 . S
C183 O195 1.281 . S
C183 O196 1.236 . S
C184 O206 1.240 . S
C184 O207 1.264 1_455 S
O185 Mn180 2.095 . S
O185 C194 1.250 . S
O186 Mn181 2.121 . S
O186 C194 1.258 1_655 S
C187 N188 1.326 . S
C187 C191 1.460 . S
C187 H193 0.929 . S
N188 Mn181 2.257 . S
N188 C187 1.326 . S
N188 C192 1.362 . S
C189 C190 1.258 . S
C189 C192 1.431 . S
C189 C209 1.449 . S
C190 C189 1.258 . S
C190 C191 1.477 . S
C190 H210 0.931 . S
C191 C187 1.460 . S
C191 C190 1.477 . S
C191 H211 0.930 . S
C192 N188 1.362 . S
C192 C189 1.431 . S
C192 C202 1.476 . S
H193 C187 0.929 . S
C194 O185 1.250 . S
C194 O186 1.258 1_455 S
O195 Mn180 2.162 . S
O195 C183 1.281 . S
O196 Mn180 2.297 . S
O196 C183 1.236 . S
N197 Mn181 2.282 . S
N197 C198 1.328 . S
N197 C202 1.318 . S
C198 N197 1.328 . S
C198 C199 1.457 . S
C198 H203 0.929 . S
C199 C198 1.457 . S
C199 C200 1.291 . S
C199 H212 0.931 . S
C200 C199 1.291 . S
C200 C201 1.373 . S
C200 H213 0.929 . S
C201 C200 1.373 . S
C201 C202 1.396 . S
C201 C208 1.403 . S
C202 C192 1.476 . S
C202 N197 1.318 . S
C202 C201 1.396 . S
H203 C198 0.929 . S
O204 Mn180 2.385 1_655 S
O204 C182 1.234 . S
O205 Mn180 2.209 1_655 S
O205 Mn181 2.215 . S
O205 C182 1.283 . S
O206 Mn180 2.094 . S
O206 C184 1.240 . S
O207 Mn181 2.117 . S
O207 C184 1.264 1_655 S
C208 C201 1.403 . S
C208 C209 1.399 . S
C208 H214 0.929 . S
C209 C189 1.449 . S
C209 C208 1.399 . S
C209 H215 0.930 . S
H210 C190 0.931 . S
H211 C191 0.930 . S
H212 C199 0.931 . S
H213 C200 0.929 . S
H214 C208 0.929 . S
H215 C209 0.930 . S
Mn216 O221 2.095 . S
Mn216 O231 2.162 1_545 S
Mn216 O232 2.297 . S
Mn216 O240 2.385 1_545 S
Mn216 O241 2.209 . S
Mn216 O242 2.094 1_545 S
Mn217 O222 2.121 . S
Mn217 N224 2.257 . S
Mn217 N233 2.282 1_545 S
Mn217 O241 2.215 . S
Mn217 O243 2.117 1_545 S
C218 O240 1.234 1_545 S
C218 O241 1.283 . S
C219 O231 1.281 1_545 S
C219 O232 1.236 . S
C220 O242 1.240 . S
C220 O243 1.264 . S
O221 Mn216 2.095 . S
O221 C230 1.250 . S
O222 Mn217 2.121 . S
O222 C230 1.258 . S
C223 N224 1.326 . S
C223 C227 1.460 . S
C223 H229 0.929 . S
N224 Mn217 2.257 . S
N224 C223 1.326 . S
N224 C228 1.362 . S
C225 C226 1.258 . S
C225 C228 1.431 . S
C225 C245 1.449 . S
C226 C225 1.258 . S
C226 C227 1.477 . S
C226 H246 0.931 . S
C227 C223 1.460 . S
C227 C226 1.477 . S
C227 H247 0.930 . S
C228 N224 1.362 . S
C228 C225 1.431 . S
C228 C238 1.476 . S
H229 C223 0.929 . S
C230 O221 1.250 . S
C230 O222 1.258 . S
O231 Mn216 2.162 1_565 S
O231 C219 1.281 1_565 S
O232 Mn216 2.297 . S
O232 C219 1.236 . S
N233 Mn217 2.282 1_565 S
N233 C234 1.328 . S
N233 C238 1.318 1_565 S
C234 N233 1.328 . S
C234 C235 1.457 . S
C234 H239 0.929 . S
C235 C234 1.457 . S
C235 C236 1.291 . S
C235 H248 0.931 . S
C236 C235 1.291 . S
C236 C237 1.373 . S
C236 H249 0.929 . S
C237 C236 1.373 . S
C237 C238 1.396 1_565 S
C237 C244 1.403 1_565 S
C238 C228 1.476 . S
C238 N233 1.318 1_545 S
C238 C237 1.396 1_545 S
H239 C234 0.929 . S
O240 Mn216 2.385 1_565 S
O240 C218 1.234 1_565 S
O241 Mn216 2.209 . S
O241 Mn217 2.215 . S
O241 C218 1.283 . S
O242 Mn216 2.094 1_565 S
O242 C220 1.240 . S
O243 Mn217 2.117 1_565 S
O243 C220 1.264 . S
C244 C237 1.403 1_545 S
C244 C245 1.399 . S
C244 H250 0.929 1_545 S
C245 C225 1.449 . S
C245 C244 1.399 . S
C245 H251 0.930 . S
H246 C226 0.931 . S
H247 C227 0.930 . S
H248 C235 0.931 . S
H249 C236 0.929 . S
H250 C244 0.929 1_565 S
H251 C245 0.930 . S
Mn252 O257 2.095 1_455 S
Mn252 O267 2.162 . S
Mn252 O268 2.297 1_455 S
Mn252 O276 2.385 . S
Mn252 O277 2.209 . S
Mn252 O278 2.094 . S
Mn253 O258 2.121 1_455 S
Mn253 N260 2.257 1_455 S
Mn253 N269 2.282 . S
Mn253 O277 2.215 . S
Mn253 O279 2.117 . S
C254 O276 1.234 . S
C254 O277 1.283 . S
C255 O267 1.281 . S
C255 O268 1.236 1_455 S
C256 O278 1.240 . S
C256 O279 1.264 . S
O257 Mn252 2.095 1_655 S
O257 C266 1.250 . S
O258 Mn253 2.121 1_655 S
O258 C266 1.258 . S
C259 N260 1.326 . S
C259 C263 1.460 . S
C259 H265 0.929 . S
N260 Mn253 2.257 1_655 S
N260 C259 1.326 . S
N260 C264 1.362 . S
C261 C262 1.258 . S
C261 C264 1.431 . S
C261 C281 1.449 . S
C262 C261 1.258 . S
C262 C263 1.477 . S
C262 H282 0.931 . S
C263 C259 1.460 . S
C263 C262 1.477 . S
C263 H283 0.930 . S
C264 N260 1.362 . S
C264 C261 1.431 . S
C264 C274 1.476 1_655 S
H265 C259 0.929 . S
C266 O257 1.250 . S
C266 O258 1.258 . S
O267 Mn252 2.162 . S
O267 C255 1.281 . S
O268 Mn252 2.297 1_655 S
O268 C255 1.236 1_655 S
N269 Mn253 2.282 . S
N269 C270 1.328 . S
N269 C274 1.318 . S
C270 N269 1.328 . S
C270 C271 1.457 . S
C270 H275 0.929 . S
C271 C270 1.457 . S
C271 C272 1.291 . S
C271 H284 0.931 . S
C272 C271 1.291 . S
C272 C273 1.373 . S
C272 H285 0.929 . S
C273 C272 1.373 . S
C273 C274 1.396 . S
C273 C280 1.403 . S
C274 C264 1.476 1_455 S
C274 N269 1.318 . S
C274 C273 1.396 . S
H275 C270 0.929 . S
O276 Mn252 2.385 . S
O276 C254 1.234 . S
O277 Mn252 2.209 . S
O277 Mn253 2.215 . S
O277 C254 1.283 . S
O278 Mn252 2.094 . S
O278 C256 1.240 . S
O279 Mn253 2.117 . S
O279 C256 1.264 . S
C280 C273 1.403 . S
C280 C281 1.399 1_455 S
C280 H286 0.929 . S
C281 C261 1.449 . S
C281 C280 1.399 1_655 S
C281 H287 0.930 . S
H282 C262 0.931 . S
H283 C263 0.930 . S
H284 C271 0.931 . S
H285 C272 0.929 . S
H286 C280 0.929 . S
H287 C281 0.930 . S
Mn288 O293 2.095 . S
Mn288 O303 2.162 1_554 S
Mn288 O304 2.297 . S
Mn288 O312 2.385 1_554 S
Mn288 O313 2.209 . S
Mn288 O314 2.094 1_554 S
Mn289 O294 2.121 . S
Mn289 N296 2.257 . S
Mn289 N305 2.282 1_554 S
Mn289 O313 2.215 . S
Mn289 O315 2.117 1_554 S
C290 O312 1.234 1_554 S
C290 O313 1.283 . S
C291 O303 1.281 1_554 S
C291 O304 1.236 . S
C292 O314 1.240 . S
C292 O315 1.264 . S
O293 Mn288 2.095 . S
O293 C302 1.250 . S
O294 Mn289 2.121 . S
O294 C302 1.258 . S
C295 N296 1.326 . S
C295 C299 1.460 . S
C295 H301 0.929 . S
N296 Mn289 2.257 . S
N296 C295 1.326 . S
N296 C300 1.362 . S
C297 C298 1.258 . S
C297 C300 1.431 . S
C297 C317 1.449 . S
C298 C297 1.258 . S
C298 C299 1.477 . S
C298 H318 0.931 . S
C299 C295 1.460 . S
C299 C298 1.477 . S
C299 H319 0.930 . S
C300 N296 1.362 . S
C300 C297 1.431 . S
C300 C310 1.476 . S
H301 C295 0.929 . S
C302 O293 1.250 . S
C302 O294 1.258 . S
O303 Mn288 2.162 1_556 S
O303 C291 1.281 1_556 S
O304 Mn288 2.297 . S
O304 C291 1.236 . S
N305 Mn289 2.282 1_556 S
N305 C306 1.328 . S
N305 C310 1.318 1_556 S
C306 N305 1.328 . S
C306 C307 1.457 . S
C306 H311 0.929 . S
C307 C306 1.457 . S
C307 C308 1.291 . S
C307 H320 0.931 . S
C308 C307 1.291 . S
C308 C309 1.373 . S
C308 H321 0.929 . S
C309 C308 1.373 . S
C309 C310 1.396 1_556 S
C309 C316 1.403 1_556 S
C310 C300 1.476 . S
C310 N305 1.318 1_554 S
C310 C309 1.396 1_554 S
H311 C306 0.929 . S
O312 Mn288 2.385 1_556 S
O312 C290 1.234 1_556 S
O313 Mn288 2.209 . S
O313 Mn289 2.215 . S
O313 C290 1.283 . S
O314 Mn288 2.094 1_556 S
O314 C292 1.240 . S
O315 Mn289 2.117 1_556 S
O315 C292 1.264 . S
C316 C309 1.403 1_554 S
C316 C317 1.399 . S
C316 H322 0.929 . S
C317 C297 1.449 . S
C317 C316 1.399 . S
C317 H323 0.930 . S
H318 C298 0.931 . S
H319 C299 0.930 . S
H320 C307 0.931 . S
H321 C308 0.929 . S
H322 C316 0.929 . S
H323 C317 0.930 . S
Mn324 O329 2.095 1_554 S
Mn324 O339 2.162 . S
Mn324 O340 2.297 1_554 S
Mn324 O348 2.385 . S
Mn324 O349 2.209 1_554 S
Mn324 O350 2.094 . S
Mn325 O330 2.121 . S
Mn325 N332 2.257 . S
Mn325 N341 2.282 1_556 S
Mn325 O349 2.215 . S
Mn325 O351 2.117 1_556 S
C326 O348 1.234 . S
C326 O349 1.283 1_554 S
C327 O339 1.281 1_556 S
C327 O340 1.236 . S
C328 O350 1.240 . S
C328 O351 1.264 . S
O329 Mn324 2.095 1_556 S
O329 C338 1.250 . S
O330 Mn325 2.121 . S
O330 C338 1.258 . S
C331 N332 1.326 . S
C331 C335 1.460 . S
C331 H337 0.929 . S
N332 Mn325 2.257 . S
N332 C331 1.326 . S
N332 C336 1.362 . S
C333 C334 1.258 . S
C333 C336 1.431 . S
C333 C353 1.449 . S
C334 C333 1.258 . S
C334 C335 1.477 . S
C334 H354 0.931 . S
C335 C331 1.460 . S
C335 C334 1.477 . S
C335 H355 0.930 . S
C336 N332 1.362 . S
C336 C333 1.431 . S
C336 C346 1.476 1_556 S
H337 C331 0.929 . S
C338 O329 1.250 . S
C338 O330 1.258 . S
O339 Mn324 2.162 . S
O339 C327 1.281 1_554 S
O340 Mn324 2.297 1_556 S
O340 C327 1.236 . S
N341 Mn325 2.282 1_554 S
N341 C342 1.328 . S
N341 C346 1.318 . S
C342 N341 1.328 . S
C342 C343 1.457 . S
C342 H347 0.929 . S
C343 C342 1.457 . S
C343 C344 1.291 . S
C343 H356 0.931 . S
C344 C343 1.291 . S
C344 C345 1.373 . S
C344 H357 0.929 . S
C345 C344 1.373 . S
C345 C346 1.396 . S
C345 C352 1.403 . S
C346 C336 1.476 1_554 S
C346 N341 1.318 . S
C346 C345 1.396 . S
H347 C342 0.929 . S
O348 Mn324 2.385 . S
O348 C326 1.234 . S
O349 Mn324 2.209 1_556 S
O349 Mn325 2.215 . S
O349 C326 1.283 1_556 S
O350 Mn324 2.094 . S
O350 C328 1.240 . S
O351 Mn325 2.117 1_554 S
O351 C328 1.264 . S
C352 C345 1.403 . S
C352 C353 1.399 1_554 S
C352 H358 0.929 . S
C353 C333 1.449 . S
C353 C352 1.399 1_556 S
C353 H359 0.930 . S
H354 C334 0.931 . S
H355 C335 0.930 . S
H356 C343 0.931 . S
H357 C344 0.929 . S
H358 C352 0.929 . S
H359 C353 0.930 . S
Mn360 O365 2.095 . S
Mn360 O375 2.159 1_554 S
Mn360 O376 2.297 . S
Mn360 O384 2.385 1_554 S
Mn360 O385 2.209 . S
Mn360 O386 2.094 1_554 S
Mn361 O366 2.121 . S
Mn361 N368 2.257 . S
Mn361 N377 2.282 1_554 S
Mn361 O385 2.215 . S
Mn361 O387 2.117 1_554 S
C362 O384 1.234 1_554 S
C362 O385 1.283 . S
C363 O375 1.268 1_554 S
C363 O376 1.236 . S
C364 O386 1.240 . S
C364 O387 1.264 . S
O365 Mn360 2.095 . S
O365 C374 1.250 . S
O366 Mn361 2.121 . S
O366 C374 1.258 . S
C367 N368 1.326 . S
C367 C371 1.460 . S
C367 H373 0.929 . S
N368 Mn361 2.257 . S
N368 C367 1.326 . S
N368 C372 1.362 . S
C369 C370 1.258 . S
C369 C372 1.431 . S
C369 C389 1.449 . S
C370 C369 1.258 . S
C370 C371 1.477 . S
C370 H390 0.931 . S
C371 C367 1.460 . S
C371 C370 1.477 . S
C371 H391 0.930 . S
C372 N368 1.362 . S
C372 C369 1.431 . S
C372 C382 1.476 . S
H373 C367 0.929 . S
C374 O365 1.250 . S
C374 O366 1.258 . S
O375 Mn360 2.159 1_556 S
O375 C363 1.268 1_556 S
O376 Mn360 2.297 . S
O376 C363 1.236 . S
N377 Mn361 2.282 1_556 S
N377 C378 1.328 . S
N377 C382 1.318 1_556 S
C378 N377 1.328 . S
C378 C379 1.457 . S
C378 H383 0.929 . S
C379 C378 1.457 . S
C379 C380 1.291 . S
C379 H392 0.931 . S
C380 C379 1.291 . S
C380 C381 1.373 . S
C380 H393 0.929 . S
C381 C380 1.373 . S
C381 C382 1.396 1_556 S
C381 C388 1.403 1_556 S
C382 C372 1.476 . S
C382 N377 1.318 1_554 S
C382 C381 1.396 1_554 S
H383 C378 0.929 . S
O384 Mn360 2.385 1_556 S
O384 C362 1.234 1_556 S
O385 Mn360 2.209 . S
O385 Mn361 2.215 . S
O385 C362 1.283 . S
O386 Mn360 2.094 1_556 S
O386 C364 1.240 . S
O387 Mn361 2.117 1_556 S
O387 C364 1.264 . S
C388 C381 1.403 1_554 S
C388 C389 1.399 . S
C388 H394 0.929 1_554 S
C389 C369 1.449 . S
C389 C388 1.399 . S
C389 H395 0.930 . S
H390 C370 0.931 . S
H391 C371 0.930 . S
H392 C379 0.931 . S
H393 C380 0.929 . S
H394 C388 0.929 1_556 S
H395 C389 0.930 . S
Mn396 O401 2.095 1_554 S
Mn396 O411 2.162 . S
Mn396 O412 2.297 1_554 S
Mn396 O420 2.385 . S
Mn396 O421 2.209 . S
Mn396 O422 2.094 . S
Mn397 O402 2.121 1_554 S
Mn397 N404 2.257 1_554 S
Mn397 N413 2.282 . S
Mn397 O421 2.215 . S
Mn397 O423 2.117 . S
C398 O420 1.234 . S
C398 O421 1.283 . S
C399 O411 1.281 . S
C399 O412 1.236 1_554 S
C400 O422 1.240 . S
C400 O423 1.264 . S
O401 Mn396 2.095 1_556 S
O401 C410 1.250 . S
O402 Mn397 2.121 1_556 S
O402 C410 1.258 . S
C403 N404 1.326 . S
C403 C407 1.460 . S
C403 H409 0.929 . S
N404 Mn397 2.257 1_556 S
N404 C403 1.326 . S
N404 C408 1.362 . S
C405 C406 1.258 . S
C405 C408 1.431 . S
C405 C425 1.449 . S
C406 C405 1.258 . S
C406 C407 1.477 . S
C406 H426 0.931 . S
C407 C403 1.460 . S
C407 C406 1.477 . S
C407 H427 0.930 . S
C408 N404 1.362 . S
C408 C405 1.431 . S
C408 C418 1.476 1_556 S
H409 C403 0.929 . S
C410 O401 1.250 . S
C410 O402 1.258 . S
O411 Mn396 2.162 . S
O411 C399 1.281 . S
O412 Mn396 2.297 1_556 S
O412 C399 1.236 1_556 S
N413 Mn397 2.282 . S
N413 C414 1.328 . S
N413 C418 1.318 . S
C414 N413 1.328 . S
C414 C415 1.457 . S
C414 H419 0.929 . S
C415 C414 1.457 . S
C415 C416 1.291 . S
C415 H428 0.931 . S
C416 C415 1.291 . S
C416 C417 1.373 . S
C416 H429 0.929 . S
C417 C416 1.373 . S
C417 C418 1.396 . S
C417 C424 1.403 . S
C418 C408 1.476 1_554 S
C418 N413 1.318 . S
C418 C417 1.396 . S
H419 C414 0.929 . S
O420 Mn396 2.385 . S
O420 C398 1.234 . S
O421 Mn396 2.209 . S
O421 Mn397 2.215 . S
O421 C398 1.283 . S
O422 Mn396 2.094 . S
O422 C400 1.240 . S
O423 Mn397 2.117 . S
O423 C400 1.264 . S
C424 C417 1.403 . S
C424 C425 1.399 1_554 S
C424 H430 0.929 . S
C425 C405 1.449 . S
C425 C424 1.399 1_556 S
C425 H431 0.930 . S
H426 C406 0.931 . S
H427 C407 0.930 . S
H428 C415 0.931 . S
H429 C416 0.929 . S
H430 C424 0.929 . S
H431 C425 0.930 . S
C432 C433 1.369 . S
C432 C434 1.419 . S
C432 H436 0.930 . S
C433 C432 1.369 . S
C433 C442 1.429 1_455 S
C434 C432 1.419 . S
C434 C435 1.363 . S
C434 H437 0.929 . S
C435 C434 1.363 . S
C435 C441 1.428 1_455 S
H436 C432 0.930 . S
H437 C434 0.929 . S
S438 N439 1.613 . S
S438 N440 1.610 . S
N439 S438 1.613 . S
N439 C442 1.350 . S
N440 S438 1.610 . S
N440 C441 1.351 . S
C441 C435 1.428 1_655 S
C441 N440 1.351 . S
C441 C442 1.434 . S
C442 C433 1.429 1_655 S
C442 N439 1.350 . S
C442 C441 1.434 . S
C443 C444 1.369 1_565 S
C443 C445 1.419 . S
C443 H447 0.930 . S
C444 C443 1.369 1_545 S
C444 C453 1.429 . S
C445 C443 1.419 . S
C445 C446 1.363 1_565 S
C445 H448 0.929 . S
C446 C445 1.363 1_545 S
C446 C452 1.428 . S
H447 C443 0.930 . S
H448 C445 0.929 . S
S449 N450 1.613 . S
S449 N451 1.610 . S
N450 S449 1.613 . S
N450 C453 1.350 . S
N451 S449 1.610 . S
N451 C452 1.351 . S
C452 C446 1.428 . S
C452 N451 1.351 . S
C452 C453 1.434 . S
C453 C444 1.429 . S
C453 N450 1.350 . S
C453 C452 1.434 . S
C454 C455 1.369 . S
C454 C456 1.419 . S
C454 H458 0.930 . S
C455 C454 1.369 . S
C455 C464 1.429 . S
C456 C454 1.419 . S
C456 C457 1.363 . S
C456 H459 0.929 . S
C457 C456 1.363 . S
C457 C463 1.428 . S
H458 C454 0.930 . S
H459 C456 0.929 . S
S460 N461 1.613 . S
S460 N462 1.610 . S
N461 S460 1.613 . S
N461 C464 1.350 . S
N462 S460 1.610 . S
N462 C463 1.351 . S
C463 C457 1.428 . S
C463 N462 1.351 . S
C463 C464 1.434 . S
C464 C455 1.429 . S
C464 N461 1.350 . S
C464 C463 1.434 . S
C465 C466 1.369 . S
C465 C467 1.419 . S
C465 H469 0.930 . S
C466 C465 1.369 . S
C466 C475 1.429 1_545 S
C467 C465 1.419 . S
C467 C468 1.363 . S
C467 H470 0.929 . S
C468 C467 1.363 . S
C468 C474 1.428 1_545 S
H469 C465 0.930 . S
H470 C467 0.929 . S
S471 N472 1.613 . S
S471 N473 1.610 . S
N472 S471 1.613 . S
N472 C475 1.350 . S
N473 S471 1.610 . S
N473 C474 1.351 . S
C474 C468 1.428 1_565 S
C474 N473 1.351 . S
C474 C475 1.434 . S
C475 C466 1.429 1_565 S
C475 N472 1.350 . S
C475 C474 1.434 . S
C476 C477 1.369 . S
C476 C478 1.419 . S
C476 H480 0.930 . S
C477 C476 1.369 . S
C477 C486 1.429 . S
C478 C476 1.419 . S
C478 C479 1.363 . S
C478 H481 0.929 . S
C479 C478 1.363 . S
C479 C485 1.428 . S
H480 C476 0.930 . S
H481 C478 0.929 . S
S482 N483 1.613 1_455 S
S482 N484 1.610 . S
N483 S482 1.613 1_655 S
N483 C486 1.350 1_655 S
N484 S482 1.610 . S
N484 C485 1.351 . S
C485 C479 1.428 . S
C485 N484 1.351 . S
C485 C486 1.434 . S
C486 C477 1.429 . S
C486 N483 1.350 1_455 S
C486 C485 1.434 . S
C487 C488 1.369 . S
C487 C489 1.419 . S
C487 H491 0.930 1_545 S
C488 C487 1.369 . S
C488 C497 1.429 . S
C489 C487 1.419 . S
C489 C490 1.363 . S
C489 H492 0.929 . S
C490 C489 1.363 . S
C490 C496 1.428 . S
H491 C487 0.930 1_565 S
H492 C489 0.929 . S
S493 N494 1.613 . S
S493 N495 1.610 . S
N494 S493 1.613 . S
N494 C497 1.350 . S
N495 S493 1.610 . S
N495 C496 1.351 . S
C496 C490 1.428 . S
C496 N495 1.351 . S
C496 C497 1.434 . S
C497 C488 1.429 . S
C497 N494 1.350 . S
C497 C496 1.434 . S
C498 C499 1.369 . S
C498 C500 1.419 . S
C498 H502 0.930 . S
C499 C498 1.369 . S
C499 C508 1.429 1_455 S
C500 C498 1.419 . S
C500 C501 1.363 . S
C500 H503 0.929 . S
C501 C500 1.363 . S
C501 C507 1.428 1_455 S
H502 C498 0.930 . S
H503 C500 0.929 . S
S504 N505 1.613 . S
S504 N506 1.610 . S
N505 S504 1.613 . S
N505 C508 1.350 . S
N506 S504 1.610 . S
N506 C507 1.351 . S
C507 C501 1.428 1_655 S
C507 N506 1.351 . S
C507 C508 1.434 . S
C508 C499 1.429 1_655 S
C508 N505 1.350 . S
C508 C507 1.434 . S
C509 C510 1.369 . S
C509 C511 1.419 . S
C509 H513 0.930 . S
C510 C509 1.369 . S
C510 C519 1.429 1_545 S
C511 C509 1.419 . S
C511 C512 1.363 . S
C511 H514 0.929 . S
C512 C511 1.363 . S
C512 C518 1.428 1_545 S
H513 C509 0.930 . S
H514 C511 0.929 . S
S515 N516 1.613 . S
S515 N517 1.610 . S
N516 S515 1.613 . S
N516 C519 1.350 . S
N517 S515 1.610 . S
N517 C518 1.351 . S
C518 C512 1.428 1_565 S
C518 N517 1.351 . S
C518 C519 1.434 . S
C519 C510 1.429 1_565 S
C519 N516 1.350 . S
C519 C518 1.434 . S
C520 C521 1.377 . S
C520 C522 1.419 . S
C520 H524 0.930 . S
C521 C520 1.377 . S
C521 C530 1.418 1_556 S
C522 C520 1.419 . S
C522 C523 1.363 1_556 S
C522 H525 0.929 . S
C523 C522 1.363 1_554 S
C523 C529 1.428 . S
H524 C520 0.930 . S
H525 C522 0.929 . S
S526 N527 1.613 . S
S526 N528 1.610 . S
N527 S526 1.613 . S
N527 C530 1.350 . S
N528 S526 1.610 . S
N528 C529 1.351 . S
C529 C523 1.428 . S
C529 N528 1.351 . S
C529 C530 1.434 . S
C530 C521 1.418 1_554 S
C530 N527 1.350 . S
C530 C529 1.434 . S
C531 C532 1.369 . S
C531 C533 1.419 . S
C531 H535 0.930 . S
C532 C531 1.369 . S
C532 C541 1.429 1_554 S
C533 C531 1.419 . S
C533 C534 1.363 . S
C533 H536 0.929 . S
C534 C533 1.363 . S
C534 C540 1.428 . S
H535 C531 0.930 . S
H536 C533 0.929 . S
S537 N538 1.613 . S
S537 N539 1.610 . S
N538 S537 1.613 . S
N538 C541 1.350 . S
N539 S537 1.610 . S
N539 C540 1.351 1_556 S
C540 C534 1.428 . S
C540 N539 1.351 1_554 S
C540 C541 1.434 1_554 S
C541 C532 1.429 1_556 S
C541 N538 1.350 . S
C541 C540 1.434 1_556 S
C542 C543 1.369 . S
C542 C544 1.419 1_554 S
C542 H546 0.930 1_554 S
C543 C542 1.369 . S
C543 C552 1.429 . S
C544 C542 1.419 1_556 S
C544 C545 1.363 1_556 S
C544 H547 0.929 . S
C545 C544 1.363 1_554 S
C545 C551 1.428 . S
H546 C542 0.930 1_556 S
H547 C544 0.929 . S
S548 N549 1.613 . S
S548 N550 1.610 . S
N549 S548 1.613 . S
N549 C552 1.350 . S
N550 S548 1.610 . S
N550 C551 1.351 . S
C551 C545 1.428 . S
C551 N550 1.351 . S
C551 C552 1.434 . S
C552 C543 1.429 . S
C552 N549 1.350 . S
C552 C551 1.434 . S
C553 C554 1.369 . S
C553 C555 1.419 . S
C553 H557 0.930 . S
C554 C553 1.369 . S
C554 C563 1.429 . S
C555 C553 1.419 . S
C555 C556 1.363 . S
C555 H558 0.929 . S
C556 C555 1.363 . S
C556 C562 1.428 . S
H557 C553 0.930 . S
H558 C555 0.929 . S
S559 N560 1.613 1_556 S
S559 N561 1.610 . S
N560 S559 1.613 1_554 S
N560 C563 1.350 . S
N561 S559 1.610 . S
N561 C562 1.351 1_556 S
C562 C556 1.428 . S
C562 N561 1.351 1_554 S
C562 C563 1.434 . S
C563 C554 1.429 . S
C563 N560 1.350 . S
C563 C562 1.434 . S
C564 C565 1.369 . S
C564 C566 1.419 . S
C564 H568 0.930 . S
C565 C564 1.369 . S
C565 C574 1.429 . S
C566 C564 1.419 . S
C566 C567 1.363 . S
C566 H569 0.929 . S
C567 C566 1.363 . S
C567 C573 1.428 . S
H568 C564 0.930 . S
H569 C566 0.929 . S
S570 N571 1.613 . S
S570 N572 1.610 . S
N571 S570 1.613 . S
N571 C574 1.350 . S
N572 S570 1.610 . S
N572 C573 1.351 . S
C573 C567 1.428 . S
C573 N572 1.351 . S
C573 C574 1.434 . S
C574 C565 1.429 . S
C574 N571 1.350 . S
C574 C573 1.434 . S
C575 C576 1.369 . S
C575 C577 1.419 . S
C575 H579 0.930 . S
C576 C575 1.369 . S
C576 C585 1.429 . S
C577 C575 1.419 . S
C577 C578 1.363 . S
C577 H580 0.929 . S
C578 C577 1.363 . S
C578 C584 1.428 . S
H579 C575 0.930 . S
H580 C577 0.929 . S
S581 N582 1.613 . S
S581 N583 1.610 . S
N582 S581 1.613 . S
N582 C585 1.350 . S
N583 S581 1.610 . S
N583 C584 1.351 . S
C584 C578 1.428 . S
C584 N583 1.351 . S
C584 C585 1.434 . S
C585 C576 1.429 . S
C585 N582 1.350 . S
C585 C584 1.434 . S
C586 C587 1.369 . S
C586 C588 1.419 . S
C586 H590 0.930 . S
C587 C586 1.369 . S
C587 C596 1.429 . S
C588 C586 1.419 . S
C588 C589 1.363 . S
C588 H591 0.929 . S
C589 C588 1.363 . S
C589 C595 1.428 . S
H590 C586 0.930 . S
H591 C588 0.929 . S
S592 N593 1.613 . S
S592 N594 1.610 . S
N593 S592 1.613 . S
N593 C596 1.350 . S
N594 S592 1.610 . S
N594 C595 1.351 . S
C595 C589 1.428 . S
C595 N594 1.351 . S
C595 C596 1.434 . S
C596 C587 1.429 . S
C596 N593 1.350 . S
C596 C595 1.434 . S
C597 C598 1.369 . S
C597 C599 1.419 . S
C597 H601 0.930 . S
C598 C597 1.369 . S
C598 C607 1.429 . S
C599 C597 1.419 . S
C599 C600 1.363 . S
C599 H602 0.929 . S
C600 C599 1.363 . S
C600 C606 1.428 . S
H601 C597 0.930 . S
H602 C599 0.929 . S
S603 N604 1.613 . S
S603 N605 1.610 . S
N604 S603 1.613 . S
N604 C607 1.350 . S
N605 S603 1.610 . S
N605 C606 1.351 . S
C606 C600 1.428 . S
C606 N605 1.351 . S
C606 C607 1.434 . S
C607 C598 1.429 . S
C607 N604 1.350 . S
C607 C606 1.434 . S
C608 C609 1.369 . S
C608 C610 1.419 . S
C608 H612 0.930 . S
C609 C608 1.369 . S
C609 C618 1.429 . S
C610 C608 1.419 . S
C610 C611 1.363 . S
C610 H613 0.929 . S
C611 C610 1.363 . S
C611 C617 1.428 . S
H612 C608 0.930 . S
H613 C610 0.929 . S
S614 N615 1.613 . S
S614 N616 1.610 . S
N615 S614 1.613 . S
N615 C618 1.350 . S
N616 S614 1.610 . S
N616 C617 1.351 . S
C617 C611 1.428 . S
C617 N616 1.351 . S
C617 C618 1.434 . S
C618 C609 1.429 . S
C618 N615 1.350 . S
C618 C617 1.434 . S
C619 C620 1.369 . S
C619 C621 1.419 . S
C619 H623 0.930 . S
C620 C619 1.369 . S
C620 C629 1.429 . S
C621 C619 1.419 . S
C621 C622 1.363 . S
C621 H624 0.929 . S
C622 C621 1.363 . S
C622 C628 1.428 . S
H623 C619 0.930 . S
H624 C621 0.929 . S
S625 N626 1.613 . S
S625 N627 1.610 . S
N626 S625 1.613 . S
N626 C629 1.350 . S
N627 S625 1.610 . S
N627 C628 1.351 . S
C628 C622 1.428 . S
C628 N627 1.351 . S
C628 C629 1.434 . S
C629 C620 1.429 . S
C629 N626 1.350 . S
C629 C628 1.434 . S
C630 C631 1.369 . S
C630 C632 1.419 . S
C630 H634 0.930 . S
C631 C630 1.369 . S
C631 C640 1.429 . S
C632 C630 1.419 . S
C632 C633 1.363 . S
C632 H635 0.929 . S
C633 C632 1.363 . S
C633 C639 1.428 . S
H634 C630 0.930 . S
H635 C632 0.929 . S
S636 N637 1.613 . S
S636 N638 1.610 . S
N637 S636 1.613 . S
N637 C640 1.350 . S
N638 S636 1.610 . S
N638 C639 1.351 . S
C639 C633 1.428 . S
C639 N638 1.351 . S
C639 C640 1.434 . S
C640 C631 1.429 . S
C640 N637 1.350 . S
C640 C639 1.434 . S
C641 C642 1.369 . S
C641 C643 1.419 . S
C641 H645 0.930 . S
C642 C641 1.369 . S
C642 C651 1.429 . S
C643 C641 1.419 . S
C643 C644 1.363 . S
C643 H646 0.929 . S
C644 C643 1.363 . S
C644 C650 1.428 . S
H645 C641 0.930 . S
H646 C643 0.929 . S
S647 N648 1.613 . S
S647 N649 1.610 . S
N648 S647 1.613 . S
N648 C651 1.350 . S
N649 S647 1.610 . S
N649 C650 1.351 . S
C650 C644 1.428 . S
C650 N649 1.351 . S
C650 C651 1.434 . S
C651 C642 1.429 . S
C651 N648 1.350 . S
C651 C650 1.434 . S
C652 C653 1.369 . S
C652 C654 1.419 . S
C652 H656 0.930 . S
C653 C652 1.369 . S
C653 C662 1.429 . S
C654 C652 1.419 . S
C654 C655 1.363 . S
C654 H657 0.929 . S
C655 C654 1.363 . S
C655 C661 1.428 . S
H656 C652 0.930 . S
H657 C654 0.929 . S
S658 N659 1.613 . S
S658 N660 1.610 . S
N659 S658 1.613 . S
N659 C662 1.350 . S
N660 S658 1.610 . S
N660 C661 1.351 . S
C661 C655 1.428 . S
C661 N660 1.351 . S
C661 C662 1.434 . S
C662 C653 1.429 . S
C662 N659 1.350 . S
C662 C661 1.434 . S
C663 C664 1.369 . S
C663 C665 1.419 . S
C663 H667 0.930 . S
C664 C663 1.369 . S
C664 C673 1.429 . S
C665 C663 1.419 . S
C665 C666 1.363 . S
C665 H668 0.929 . S
C666 C665 1.363 . S
C666 C672 1.428 . S
H667 C663 0.930 . S
H668 C665 0.929 . S
S669 N670 1.613 . S
S669 N671 1.610 . S
N670 S669 1.613 . S
N670 C673 1.350 . S
N671 S669 1.610 . S
N671 C672 1.351 . S
C672 C666 1.428 . S
C672 N671 1.351 . S
C672 C673 1.434 . S
C673 C664 1.429 . S
C673 N670 1.350 . S
C673 C672 1.434 . S
C674 C675 1.369 . S
C674 C676 1.419 . S
C674 H678 0.930 . S
C675 C674 1.369 . S
C675 C684 1.429 . S
C676 C674 1.419 . S
C676 C677 1.363 . S
C676 H679 0.929 . S
C677 C676 1.363 . S
C677 C683 1.428 . S
H678 C674 0.930 . S
H679 C676 0.929 . S
S680 N681 1.613 . S
S680 N682 1.610 . S
N681 S680 1.613 . S
N681 C684 1.350 . S
N682 S680 1.610 . S
N682 C683 1.351 . S
C683 C677 1.428 . S
C683 N682 1.351 . S
C683 C684 1.434 . S
C684 C675 1.429 . S
C684 N681 1.350 . S
C684 C683 1.434 . S
C685 C686 1.369 . S
C685 C687 1.419 . S
C685 H689 0.930 . S
C686 C685 1.369 . S
C686 C695 1.429 . S
C687 C685 1.419 . S
C687 C688 1.363 . S
C687 H690 0.929 . S
C688 C687 1.363 . S
C688 C694 1.428 . S
H689 C685 0.930 . S
H690 C687 0.929 . S
S691 N692 1.613 . S
S691 N693 1.610 . S
N692 S691 1.613 . S
N692 C695 1.350 . S
N693 S691 1.610 . S
N693 C694 1.351 . S
C694 C688 1.428 . S
C694 N693 1.351 . S
C694 C695 1.434 . S
C695 C686 1.429 . S
C695 N692 1.350 . S
C695 C694 1.434 . S
C433 C14 1.448 . S
C435 C184 1.573 . S
C444 C40 1.335 . S
C446 C148 1.334 . S
C455 C194 1.391 . S
C457 C86 1.383 . S
C466 C112 1.453 1_545 S
C468 C158 1.329 . S
C477 C255 1.410 . S
C479 C76 1.427 . S
C488 C218 1.611 . S
C490 C122 1.494 . S
C499 C4 1.401 . S
C501 C254 1.400 . S
C510 C219 1.485 . S
C512 C50 1.386 . S
C521 C327 1.458 . S
C523 C291 1.465 . S
C532 C290 1.389 . S
C534 C398 1.386 . S
C543 C326 1.442 . S
C545 C362 1.440 . S
C554 C363 1.543 . S
C556 C399 1.546 . S
C565 C410 1.457 . S
C567 C220 1.573 . S
C576 C292 1.334 . S
C578 C256 1.337 . S
C587 C230 1.393 . S
C589 C338 1.378 . S
C598 C266 1.338 . S
C600 C364 1.451 . S
C609 C147 1.414 . S
C611 C328 1.426 . S
C620 C182 1.612 . S
C622 C374 1.498 . S
C631 C400 1.401 . S
C633 C146 1.402 . S
C642 C302 1.376 . S
C644 C183 1.488 . S
C653 C39 1.464 . S
C655 C75 1.459 . S
C664 C2 1.383 . S
C666 C38 1.386 . S
C675 C74 1.442 . S
C677 C110 1.440 . S
C686 C3 1.547 . S
C688 C111 1.542 . S
