# Generated by pormake.
# Topology sml, (6)-cn, num edge types: 1
# Building blocks:
#     Node 0, Type 0, BuildingBlock: UKALOJ_clean_sbu_0, # of connection points: 6
#     Node 1, Type 0, BuildingBlock: UKALOJ_clean_sbu_0, # of connection points: 6
#     Node 2, Type 0, BuildingBlock: UKALOJ_clean_sbu_0, # of connection points: 6
#     Node 3, Type 0, BuildingBlock: UKALOJ_clean_sbu_0, # of connection points: 6
#     Node 4, Type 0, BuildingBlock: UKALOJ_clean_sbu_0, # of connection points: 6
#     Node 5, Type 0, BuildingBlock: UKALOJ_clean_sbu_0, # of connection points: 6
#     Edge 6, Type (0, 0), BuildingBlock: EYOCIG_clean_linker_4, # of connection points: 2
#     Edge 7, Type (0, 0), BuildingBlock: EYOCIG_clean_linker_4, # of connection points: 2
#     Edge 8, Type (0, 0), BuildingBlock: EYOCIG_clean_linker_4, # of connection points: 2
#     Edge 9, Type (0, 0), BuildingBlock: EYOCIG_clean_linker_4, # of connection points: 2
#     Edge 10, Type (0, 0), BuildingBlock: EYOCIG_clean_linker_4, # of connection points: 2
#     Edge 11, Type (0, 0), BuildingBlock: EYOCIG_clean_linker_4, # of connection points: 2
#     Edge 12, Type (0, 0), BuildingBlock: EYOCIG_clean_linker_4, # of connection points: 2
#     Edge 13, Type (0, 0), BuildingBlock: EYOCIG_clean_linker_4, # of connection points: 2
#     Edge 14, Type (0, 0), BuildingBlock: EYOCIG_clean_linker_4, # of connection points: 2
#     Edge 15, Type (0, 0), BuildingBlock: EYOCIG_clean_linker_4, # of connection points: 2
#     Edge 16, Type (0, 0), BuildingBlock: EYOCIG_clean_linker_4, # of connection points: 2
#     Edge 17, Type (0, 0), BuildingBlock: EYOCIG_clean_linker_4, # of connection points: 2
#     Edge 18, Type (0, 0), BuildingBlock: EYOCIG_clean_linker_4, # of connection points: 2
#     Edge 19, Type (0, 0), BuildingBlock: EYOCIG_clean_linker_4, # of connection points: 2
#     Edge 20, Type (0, 0), BuildingBlock: EYOCIG_clean_linker_4, # of connection points: 2
#     Edge 21, Type (0, 0), BuildingBlock: EYOCIG_clean_linker_4, # of connection points: 2
#     Edge 22, Type (0, 0), BuildingBlock: EYOCIG_clean_linker_4, # of connection points: 2
#     Edge 23, Type (0, 0), BuildingBlock: EYOCIG_clean_linker_4, # of connection points: 2
# Relax obj value: 0.366
# Max RMSD: 0.240
# Mean RMSD: 0.240
data_MOF--net-sml--node1-UKALOJ_clean_sbu_0--edge1-EYOCIG_clean_linker_4
_symmetry_space_group_name_H-M    P1
_symmetry_Int_Tables_number       1
_symmetry_cell_setting            triclinic
loop_
_symmetry_equiv_pos_as_xyz
'x, y, z'
_cell_length_a     28.771568
_cell_length_b     28.744583
_cell_length_c     16.178844
_cell_angle_alpha  90.015773
_cell_angle_beta   89.993824
_cell_angle_gamma 119.99787
loop_
_atom_site_label
_atom_site_type_symbol
_atom_site_fract_x
_atom_site_fract_y
_atom_site_fract_z
_atom_type_partial_charge
Zn0 Zn 0.20987 0.40655 0.0636 0.0
O1 O 0.19336 0.4678 0.09761 0.0
C2 C 0.0886 0.32887 0.05819 0.0
Zn3 Zn 0.16763 0.40654 0.948 0.0
C4 C 0.16681 0.48475 0.05801 0.0
O5 O 0.14879 0.4663 0.98639 0.0
C6 C 0.21156 0.32907 0.95327 0.0
O7 O 0.24527 0.46793 0.91408 0.0
O8 O 0.28837 0.46646 0.0253 0.0
N9 N 0.14332 0.40566 0.82834 0.0
C10 C 0.17066 0.40958 0.75826 0.0
C11 C 0.09295 0.39417 0.72216 0.0
N12 N 0.09497 0.39604 0.80576 0.0
N13 N 0.14006 0.40261 0.69183 0.0
C14 C 0.20985 0.40955 0.25334 0.0
C15 C 0.27234 0.39441 0.28943 0.0
N16 N 0.23332 0.40572 0.18326 0.0
N17 N 0.27217 0.39626 0.20583 0.0
N18 N 0.23356 0.4027 0.31977 0.0
H19 H 0.18094 0.465 0.26208 0.0
H20 H 0.1401 0.40317 0.31559 0.0
H21 H 0.13672 0.40527 0.20557 0.0
C22 C 0.16414 0.42089 0.2588 0.0
C23 C 0.22775 0.4211 0.75282 0.0
H24 H 0.25492 0.46524 0.74966 0.0
H25 H 0.23419 0.40349 0.69597 0.0
H26 H 0.23962 0.40551 0.806 0.0
O27 O 0.18592 0.34648 0.91226 0.0
O28 O 0.22748 0.3463 0.02603 0.0
C29 C 0.28875 0.48493 0.95372 0.0
O30 O 0.13163 0.34634 0.09924 0.0
O31 O 0.08988 0.34614 0.98547 0.0
Zn32 Zn 0.74697 0.17521 0.28073 0.0
O33 O 0.76352 0.253 0.24672 0.0
C34 C 0.86823 0.21884 0.28616 0.0
Zn35 Zn 0.78923 0.21752 0.39631 0.0
C36 C 0.79007 0.29653 0.28632 0.0
O37 O 0.80811 0.29614 0.35793 0.0
C38 C 0.74522 0.09605 0.39109 0.0
O39 O 0.71161 0.20125 0.4302 0.0
O40 O 0.66848 0.15662 0.319 0.0
N41 N 0.81352 0.24098 0.516 0.0
C42 C 0.78617 0.21756 0.58606 0.0
C43 C 0.86391 0.27985 0.6222 0.0
N44 N 0.8619 0.2797 0.5386 0.0
N45 N 0.81677 0.24118 0.65251 0.0
C46 C 0.74703 0.17821 0.09098 0.0
C47 C 0.68446 0.10056 0.05483 0.0
N48 N 0.72353 0.1509 0.16104 0.0
N49 N 0.68463 0.10258 0.13844 0.0
N50 N 0.72329 0.14764 0.02453 0.0
H51 H 0.77603 0.26261 0.08218 0.0
H52 H 0.81686 0.24156 0.02881 0.0
H53 H 0.82016 0.24709 0.13883 0.0
C54 C 0.79278 0.23526 0.08556 0.0
C55 C 0.72905 0.17199 0.59146 0.0
H56 H 0.70192 0.18898 0.59454 0.0
H57 H 0.72255 0.14795 0.64834 0.0
H58 H 0.71718 0.14448 0.53831 0.0
O59 O 0.7709 0.13915 0.43206 0.0
O60 O 0.7293 0.09732 0.31832 0.0
C61 C 0.66813 0.17475 0.39058 0.0
O62 O 0.82519 0.19324 0.24511 0.0
O63 O 0.86697 0.23488 0.35886 0.0
Zn64 Zn 0.55751 0.79675 0.73032 0.0
O65 O 0.49629 0.719 0.76435 0.0
C66 C 0.63509 0.75299 0.72491 0.0
Zn67 Zn 0.55746 0.75439 0.61476 0.0
C68 C 0.47931 0.67545 0.72476 0.0
O69 O 0.49772 0.6758 0.65316 0.0
C70 C 0.63492 0.87583 0.61996 0.0
O71 O 0.49614 0.77073 0.58089 0.0
O72 O 0.49766 0.81541 0.69207 0.0
N73 N 0.55828 0.7309 0.49506 0.0
C74 C 0.55435 0.75435 0.42501 0.0
C75 C 0.56975 0.69199 0.38883 0.0
N76 N 0.56789 0.69214 0.47243 0.0
N77 N 0.56131 0.73071 0.35854 0.0
C78 C 0.55456 0.79374 0.92008 0.0
C79 C 0.56966 0.87142 0.95624 0.0
N80 N 0.55839 0.82107 0.85002 0.0
N81 N 0.56782 0.86941 0.87264 0.0
N82 N 0.56139 0.82432 0.98654 0.0
H83 H 0.49918 0.70936 0.92886 0.0
H84 H 0.56102 0.73034 0.98223 0.0
H85 H 0.55879 0.72481 0.87221 0.0
C86 C 0.54325 0.73667 0.92548 0.0
C87 C 0.54285 0.79998 0.41963 0.0
H88 H 0.49875 0.78305 0.41653 0.0
H89 H 0.56041 0.82403 0.36278 0.0
H90 H 0.55847 0.82747 0.47281 0.0
O91 O 0.61748 0.83272 0.579 0.0
O92 O 0.61773 0.87461 0.69271 0.0
C93 C 0.47916 0.79727 0.62051 0.0
O94 O 0.61766 0.77863 0.76593 0.0
O95 O 0.6178 0.73694 0.65221 0.0
Zn96 Zn 0.78946 0.56561 0.94778 0.0
O97 O 0.71179 0.50429 0.91378 0.0
C98 C 0.74562 0.64316 0.95316 0.0
Zn99 Zn 0.74719 0.56558 0.06337 0.0
C100 C 0.66831 0.4873 0.95339 0.0
O101 O 0.66868 0.50574 0.02501 0.0
C102 C 0.86849 0.64317 0.05809 0.0
O103 O 0.7636 0.50425 0.09729 0.0
O104 O 0.80819 0.50576 0.98606 0.0
N105 N 0.72374 0.56642 0.18305 0.0
C106 C 0.7472 0.56255 0.25311 0.0
C107 C 0.68481 0.57784 0.28925 0.0
N108 N 0.68496 0.57597 0.20565 0.0
N109 N 0.72354 0.56947 0.31956 0.0
C110 C 0.78644 0.5626 0.75803 0.0
C111 C 0.86411 0.5779 0.72191 0.0
N112 N 0.81376 0.56648 0.8281 0.0
N113 N 0.86209 0.57603 0.80552 0.0
N114 N 0.81702 0.56952 0.69159 0.0
H115 H 0.70216 0.50704 0.74937 0.0
H116 H 0.72298 0.56882 0.69578 0.0
H117 H 0.71753 0.56677 0.8058 0.0
C118 C 0.72938 0.55116 0.75259 0.0
C119 C 0.79284 0.55111 0.25853 0.0
H120 H 0.77597 0.50699 0.26174 0.0
H121 H 0.81689 0.56878 0.31535 0.0
H122 H 0.82027 0.56671 0.20532 0.0
O123 O 0.82544 0.62571 0.09909 0.0
O124 O 0.86723 0.62594 0.98534 0.0
C125 C 0.79012 0.48728 0.05764 0.0
O126 O 0.77126 0.62574 0.91213 0.0
O127 O 0.72967 0.6259 0.02588 0.0
Zn128 Zn 0.16748 0.7543 0.39708 0.0
O129 O 0.24509 0.77057 0.4311 0.0
C130 C 0.21152 0.87575 0.39173 0.0
Zn131 Zn 0.20981 0.79652 0.28151 0.0
C132 C 0.28859 0.79703 0.39151 0.0
O133 O 0.28827 0.81511 0.3199 0.0
C134 C 0.08855 0.75294 0.28676 0.0
O135 O 0.19326 0.71872 0.24758 0.0
O136 O 0.14859 0.67565 0.35876 0.0
N137 N 0.23329 0.82077 0.16184 0.0
C138 C 0.20981 0.79343 0.09177 0.0
C139 C 0.27229 0.87111 0.05564 0.0
N140 N 0.27214 0.86911 0.13925 0.0
N141 N 0.2335 0.824 0.02533 0.0
C142 C 0.17045 0.75431 0.58683 0.0
C143 C 0.09275 0.69192 0.6229 0.0
N144 N 0.14313 0.73087 0.51674 0.0
N145 N 0.09477 0.6921 0.5393 0.0
N146 N 0.13986 0.73064 0.65326 0.0
H147 H 0.25471 0.78298 0.59557 0.0
H148 H 0.23396 0.82401 0.64911 0.0
H149 H 0.23945 0.82738 0.53909 0.0
C150 C 0.22754 0.79992 0.5923 0.0
C151 C 0.16409 0.73635 0.08635 0.0
H152 H 0.18088 0.70904 0.08317 0.0
H153 H 0.14007 0.72997 0.02952 0.0
H154 H 0.13666 0.72456 0.13955 0.0
O155 O 0.13162 0.77849 0.24578 0.0
O156 O 0.08975 0.73694 0.3595 0.0
C157 C 0.16667 0.67522 0.28719 0.0
O158 O 0.18581 0.83269 0.43275 0.0
O159 O 0.22747 0.87442 0.31901 0.0
Zn160 Zn 0.39958 0.2178 0.6144 0.0
O161 O 0.46084 0.2014 0.58034 0.0
C162 C 0.3221 0.09638 0.61978 0.0
Zn163 Zn 0.39967 0.17553 0.72994 0.0
C164 C 0.47786 0.17489 0.61989 0.0
O165 O 0.45946 0.15681 0.69151 0.0
C166 C 0.32209 0.2193 0.72475 0.0
O167 O 0.46093 0.25329 0.76385 0.0
O168 O 0.45936 0.29641 0.65269 0.0
N169 N 0.39891 0.15127 0.84961 0.0
C170 C 0.40279 0.17863 0.91968 0.0
C171 C 0.38759 0.10092 0.95581 0.0
N172 N 0.38941 0.10291 0.8722 0.0
N173 N 0.39593 0.14806 0.98613 0.0
C174 C 0.40254 0.21776 0.42465 0.0
C175 C 0.38741 0.2803 0.38856 0.0
N176 N 0.39868 0.24124 0.49473 0.0
N177 N 0.38923 0.28012 0.47216 0.0
N178 N 0.39572 0.2415 0.35822 0.0
H179 H 0.45798 0.18887 0.4158 0.0
H180 H 0.39615 0.14793 0.36242 0.0
H181 H 0.39838 0.14462 0.47244 0.0
C182 C 0.4139 0.17204 0.41918 0.0
C183 C 0.41418 0.23573 0.92511 0.0
H184 H 0.45826 0.263 0.92829 0.0
H185 H 0.39655 0.24215 0.98195 0.0
H186 H 0.39855 0.24756 0.87193 0.0
O187 O 0.33958 0.1937 0.76572 0.0
O188 O 0.3393 0.23529 0.65201 0.0
C189 C 0.47786 0.2968 0.72425 0.0
O190 O 0.33949 0.13945 0.57876 0.0
O191 O 0.33941 0.09767 0.69247 0.0
C192 C 0.26394 0.24946 0.811 0.0
C193 C 0.29005 0.23717 0.76726 0.0
C194 C 0.24206 0.27115 0.867 0.0
C195 C 0.22962 0.29716 0.91076 0.0
C196 C 0.00021 0.27076 0.14426 0.0
C197 C 0.03866 0.29686 0.10062 0.0
C198 C 0.9566 0.24899 0.20012 0.0
C199 C 0.91816 0.2367 0.24375 0.0
C200 C 0.71473 0.00768 0.47748 0.0
C201 C 0.72716 0.0461 0.43364 0.0
C202 C 0.69292 0.96416 0.53358 0.0
C203 C 0.66688 0.92577 0.57741 0.0
C204 C 0.69328 0.72283 0.81102 0.0
C205 C 0.66715 0.73511 0.76734 0.0
C206 C 0.71517 0.70112 0.86697 0.0
C207 C 0.72759 0.67509 0.91068 0.0
C208 C 0.0003 0.72285 0.20047 0.0
C209 C 0.03866 0.7351 0.24425 0.0
C210 C 0.95679 0.70115 0.14441 0.0
C211 C 0.9184 0.67512 0.10062 0.0
C212 C 0.26394 0.00791 0.53373 0.0
C213 C 0.29007 0.04639 0.57737 0.0
C214 C 0.24205 0.96425 0.47785 0.0
C215 C 0.22959 0.92575 0.43418 0.0
C216 C 0.17314 0.40096 0.54296 0.0
C217 C 0.15435 0.40106 0.60946 0.0
C218 C 0.1988 0.40098 0.46864 0.0
C219 C 0.21772 0.40112 0.40214 0.0
C220 C 0.75803 0.18073 0.87566 0.0
C221 C 0.73912 0.16193 0.94216 0.0
C222 C 0.78368 0.20638 0.80136 0.0
C223 C 0.80248 0.2253 0.73487 0.0
C224 C 0.56301 0.76552 0.2097 0.0
C225 C 0.56289 0.74659 0.27619 0.0
C226 C 0.56302 0.7912 0.1354 0.0
C227 C 0.56292 0.81001 0.06891 0.0
C228 C 0.78396 0.5712 0.54272 0.0
C229 C 0.80274 0.57109 0.60922 0.0
C230 C 0.75831 0.57119 0.46842 0.0
C231 C 0.73939 0.57106 0.40193 0.0
C232 C 0.17298 0.76533 0.80215 0.0
C233 C 0.15416 0.74645 0.73564 0.0
C234 C 0.19866 0.79095 0.87647 0.0
C235 C 0.21761 0.80973 0.94297 0.0
C236 C 0.39418 0.2068 0.20932 0.0
C237 C 0.39423 0.22569 0.27583 0.0
C238 C 0.39423 0.18116 0.135 0.0
C239 C 0.39436 0.16236 0.0685 0.0
C240 C 0.15193 0.55403 0.14378 0.0
C241 C 0.15597 0.52285 0.09843 0.0
C242 C 0.15188 0.59105 0.20149 0.0
C243 C 0.15586 0.62625 0.24684 0.0
C244 C 0.58412 0.16012 0.4763 0.0
C245 C 0.61925 0.16404 0.43095 0.0
C246 C 0.54714 0.16015 0.53403 0.0
C247 C 0.51597 0.16412 0.57943 0.0
C248 C 0.37285 0.55433 0.8681 0.0
C249 C 0.33765 0.5231 0.91337 0.0
C250 C 0.40991 0.59136 0.81047 0.0
C251 C 0.44114 0.62654 0.76515 0.0
C252 C 0.80484 0.38071 0.20072 0.0
C253 C 0.80084 0.34548 0.24598 0.0
C254 C 0.80484 0.41782 0.14316 0.0
C255 C 0.80087 0.44908 0.09794 0.0
C256 C 0.37263 0.81176 0.47726 0.0
C257 C 0.33746 0.80777 0.43194 0.0
C258 C 0.4097 0.81184 0.5349 0.0
C259 C 0.44095 0.80794 0.58019 0.0
C260 C 0.58424 0.41796 0.86763 0.0
C261 C 0.61942 0.44916 0.91298 0.0
C262 C 0.54721 0.38094 0.80994 0.0
C263 C 0.516 0.34575 0.7646 0.0
loop_
_geom_bond_atom_site_label_1
_geom_bond_atom_site_label_2
_geom_bond_distance
_geom_bond_site_symmetry_2
_ccdc_geom_bond_type
Zn0 O1 2.055 . S
Zn0 O8 2.046 . S
Zn0 N16 2.036 . S
Zn0 O28 2.053 . S
Zn0 O30 2.066 . S
O1 Zn0 2.055 . S
O1 C4 1.259 . S
C2 O30 1.256 . S
C2 O31 1.244 1_554 S
Zn3 O5 2.046 . S
Zn3 O7 2.055 . S
Zn3 N9 2.036 . S
Zn3 O27 2.066 . S
Zn3 O31 2.053 . S
C4 O1 1.259 . S
C4 O5 1.254 1_554 S
O5 Zn3 2.046 . S
O5 C4 1.254 1_556 S
C6 O27 1.256 . S
C6 O28 1.244 1_556 S
O7 Zn3 2.055 . S
O7 C29 1.259 . S
O8 Zn0 2.046 . S
O8 C29 1.254 1_554 S
N9 Zn3 2.036 . S
N9 C10 1.298 . S
N9 N12 1.398 . S
C10 N9 1.298 . S
C10 N13 1.367 . S
C10 C23 1.481 . S
C11 N12 1.299 . S
C11 N13 1.379 . S
N12 N9 1.398 . S
N12 C11 1.299 . S
N13 C10 1.367 . S
N13 C11 1.379 . S
C14 N16 1.298 . S
C14 N18 1.367 . S
C14 C22 1.481 . S
C15 N17 1.299 . S
C15 N18 1.379 . S
N16 Zn0 2.036 . S
N16 C14 1.298 . S
N16 N17 1.398 . S
N17 C15 1.299 . S
N17 N16 1.398 . S
N18 C14 1.367 . S
N18 C15 1.379 . S
H19 C22 0.980 . S
H20 C22 0.981 . S
H21 C22 0.981 . S
C22 C14 1.481 . S
C22 H19 0.980 . S
C22 H20 0.981 . S
C22 H21 0.981 . S
C23 C10 1.481 . S
C23 H24 0.980 . S
C23 H25 0.981 . S
C23 H26 0.981 . S
H24 C23 0.980 . S
H25 C23 0.981 . S
H26 C23 0.981 . S
O27 Zn3 2.066 . S
O27 C6 1.256 . S
O28 Zn0 2.053 . S
O28 C6 1.244 1_554 S
C29 O7 1.259 . S
C29 O8 1.254 1_556 S
O30 Zn0 2.066 . S
O30 C2 1.256 . S
O31 C2 1.244 1_556 S
O31 Zn3 2.053 . S
Zn32 O33 2.055 . S
Zn32 O40 2.046 . S
Zn32 N48 2.036 . S
Zn32 O60 2.053 . S
Zn32 O62 2.066 . S
O33 Zn32 2.055 . S
O33 C36 1.259 . S
C34 O62 1.256 . S
C34 O63 1.244 . S
Zn35 O37 2.046 . S
Zn35 O39 2.055 . S
Zn35 N41 2.036 . S
Zn35 O59 2.066 . S
Zn35 O63 2.053 . S
C36 O33 1.259 . S
C36 O37 1.254 . S
O37 Zn35 2.046 . S
O37 C36 1.254 . S
C38 O59 1.256 . S
C38 O60 1.244 . S
O39 Zn35 2.055 . S
O39 C61 1.259 . S
O40 Zn32 2.046 . S
O40 C61 1.254 . S
N41 Zn35 2.036 . S
N41 C42 1.298 . S
N41 N44 1.398 . S
C42 N41 1.298 . S
C42 N45 1.367 . S
C42 C55 1.481 . S
C43 N44 1.299 . S
C43 N45 1.379 . S
N44 N41 1.398 . S
N44 C43 1.299 . S
N45 C42 1.367 . S
N45 C43 1.379 . S
C46 N48 1.298 . S
C46 N50 1.367 . S
C46 C54 1.481 . S
C47 N49 1.299 . S
C47 N50 1.379 . S
N48 Zn32 2.036 . S
N48 C46 1.298 . S
N48 N49 1.398 . S
N49 C47 1.299 . S
N49 N48 1.398 . S
N50 C46 1.367 . S
N50 C47 1.379 . S
H51 C54 0.980 . S
H52 C54 0.981 1_556 S
H53 C54 0.981 . S
C54 C46 1.481 . S
C54 H51 0.980 . S
C54 H52 0.981 1_554 S
C54 H53 0.981 . S
C55 C42 1.481 . S
C55 H56 0.980 . S
C55 H57 0.981 . S
C55 H58 0.981 . S
H56 C55 0.980 . S
H57 C55 0.981 . S
H58 C55 0.981 . S
O59 Zn35 2.066 . S
O59 C38 1.256 . S
O60 Zn32 2.053 . S
O60 C38 1.244 . S
C61 O39 1.259 . S
C61 O40 1.254 . S
O62 Zn32 2.066 . S
O62 C34 1.256 . S
O63 C34 1.244 . S
O63 Zn35 2.053 . S
Zn64 O65 2.055 . S
Zn64 O72 2.046 . S
Zn64 N80 2.036 . S
Zn64 O92 2.053 . S
Zn64 O94 2.066 . S
O65 Zn64 2.055 . S
O65 C68 1.259 . S
C66 O94 1.256 . S
C66 O95 1.244 . S
Zn67 O69 2.046 . S
Zn67 O71 2.055 . S
Zn67 N73 2.036 . S
Zn67 O91 2.066 . S
Zn67 O95 2.053 . S
C68 O65 1.259 . S
C68 O69 1.254 . S
O69 Zn67 2.046 . S
O69 C68 1.254 . S
C70 O91 1.256 . S
C70 O92 1.244 . S
O71 Zn67 2.055 . S
O71 C93 1.259 . S
O72 Zn64 2.046 . S
O72 C93 1.254 . S
N73 Zn67 2.036 . S
N73 C74 1.298 . S
N73 N76 1.398 . S
C74 N73 1.298 . S
C74 N77 1.367 . S
C74 C87 1.481 . S
C75 N76 1.299 . S
C75 N77 1.379 . S
N76 N73 1.398 . S
N76 C75 1.299 . S
N77 C74 1.367 . S
N77 C75 1.379 . S
C78 N80 1.298 . S
C78 N82 1.367 . S
C78 C86 1.481 . S
C79 N81 1.299 . S
C79 N82 1.378 . S
N80 Zn64 2.036 . S
N80 C78 1.298 . S
N80 N81 1.398 . S
N81 C79 1.299 . S
N81 N80 1.398 . S
N82 C78 1.367 . S
N82 C79 1.378 . S
H83 C86 0.980 . S
H84 C86 0.981 1_554 S
H85 C86 0.981 . S
C86 C78 1.481 . S
C86 H83 0.980 . S
C86 H84 0.981 1_556 S
C86 H85 0.981 . S
C87 C74 1.481 . S
C87 H88 0.980 . S
C87 H89 0.981 . S
C87 H90 0.981 . S
H88 C87 0.980 . S
H89 C87 0.981 . S
H90 C87 0.981 . S
O91 Zn67 2.066 . S
O91 C70 1.256 . S
O92 Zn64 2.053 . S
O92 C70 1.244 . S
C93 O71 1.259 . S
C93 O72 1.254 . S
O94 Zn64 2.066 . S
O94 C66 1.256 . S
O95 C66 1.244 . S
O95 Zn67 2.053 . S
Zn96 O97 2.055 . S
Zn96 O104 2.046 . S
Zn96 N112 2.036 . S
Zn96 O124 2.053 . S
Zn96 O126 2.066 . S
O97 Zn96 2.055 . S
O97 C100 1.259 . S
C98 O126 1.256 . S
C98 O127 1.244 1_556 S
Zn99 O101 2.046 . S
Zn99 O103 2.055 . S
Zn99 N105 2.036 . S
Zn99 O123 2.066 . S
Zn99 O127 2.053 . S
C100 O97 1.259 . S
C100 O101 1.254 1_556 S
O101 Zn99 2.046 . S
O101 C100 1.254 1_554 S
C102 O123 1.256 . S
C102 O124 1.244 1_554 S
O103 Zn99 2.055 . S
O103 C125 1.259 . S
O104 Zn96 2.046 . S
O104 C125 1.254 1_556 S
N105 Zn99 2.036 . S
N105 C106 1.298 . S
N105 N108 1.398 . S
C106 N105 1.298 . S
C106 N109 1.367 . S
C106 C119 1.481 . S
C107 N108 1.299 . S
C107 N109 1.379 . S
N108 N105 1.398 . S
N108 C107 1.299 . S
N109 C106 1.367 . S
N109 C107 1.379 . S
C110 N112 1.298 . S
C110 N114 1.367 . S
C110 C118 1.481 . S
C111 N113 1.299 . S
C111 N114 1.379 . S
N112 Zn96 2.036 . S
N112 C110 1.298 . S
N112 N113 1.398 . S
N113 C111 1.299 . S
N113 N112 1.398 . S
N114 C110 1.367 . S
N114 C111 1.379 . S
H115 C118 0.980 . S
H116 C118 0.981 . S
H117 C118 0.981 . S
C118 C110 1.481 . S
C118 H115 0.980 . S
C118 H116 0.981 . S
C118 H117 0.981 . S
C119 C106 1.481 . S
C119 H120 0.980 . S
C119 H121 0.981 . S
C119 H122 0.981 . S
H120 C119 0.980 . S
H121 C119 0.981 . S
H122 C119 0.981 . S
O123 Zn99 2.066 . S
O123 C102 1.256 . S
O124 Zn96 2.053 . S
O124 C102 1.244 1_556 S
C125 O103 1.259 . S
C125 O104 1.254 1_554 S
O126 Zn96 2.066 . S
O126 C98 1.256 . S
O127 C98 1.244 1_554 S
O127 Zn99 2.053 . S
Zn128 O129 2.055 . S
Zn128 O136 2.046 . S
Zn128 N144 2.036 . S
Zn128 O156 2.053 . S
Zn128 O158 2.066 . S
O129 Zn128 2.055 . S
O129 C132 1.259 . S
C130 O158 1.256 . S
C130 O159 1.244 . S
Zn131 O133 2.046 . S
Zn131 O135 2.055 . S
Zn131 N137 2.036 . S
Zn131 O155 2.066 . S
Zn131 O159 2.053 . S
C132 O129 1.259 . S
C132 O133 1.254 . S
O133 Zn131 2.046 . S
O133 C132 1.254 . S
C134 O155 1.256 . S
C134 O156 1.244 . S
O135 Zn131 2.055 . S
O135 C157 1.259 . S
O136 Zn128 2.046 . S
O136 C157 1.254 . S
N137 Zn131 2.036 . S
N137 C138 1.298 . S
N137 N140 1.398 . S
C138 N137 1.298 . S
C138 N141 1.367 . S
C138 C151 1.481 . S
C139 N140 1.299 . S
C139 N141 1.379 . S
N140 N137 1.398 . S
N140 C139 1.299 . S
N141 C138 1.367 . S
N141 C139 1.379 . S
C142 N144 1.298 . S
C142 N146 1.367 . S
C142 C150 1.481 . S
C143 N145 1.299 . S
C143 N146 1.379 . S
N144 Zn128 2.036 . S
N144 C142 1.298 . S
N144 N145 1.398 . S
N145 C143 1.299 . S
N145 N144 1.398 . S
N146 C142 1.367 . S
N146 C143 1.379 . S
H147 C150 0.980 . S
H148 C150 0.981 . S
H149 C150 0.981 . S
C150 C142 1.481 . S
C150 H147 0.980 . S
C150 H148 0.981 . S
C150 H149 0.981 . S
C151 C138 1.481 . S
C151 H152 0.980 . S
C151 H153 0.981 1_554 S
C151 H154 0.981 . S
H152 C151 0.980 . S
H153 C151 0.981 1_556 S
H154 C151 0.981 . S
O155 Zn131 2.066 . S
O155 C134 1.256 . S
O156 Zn128 2.053 . S
O156 C134 1.244 . S
C157 O135 1.259 . S
C157 O136 1.254 . S
O158 Zn128 2.066 . S
O158 C130 1.256 . S
O159 C130 1.244 . S
O159 Zn131 2.053 . S
Zn160 O161 2.055 . S
Zn160 O168 2.046 . S
Zn160 N176 2.036 . S
Zn160 O188 2.053 . S
Zn160 O190 2.066 . S
O161 Zn160 2.055 . S
O161 C164 1.259 . S
C162 O190 1.256 . S
C162 O191 1.244 . S
Zn163 O165 2.046 . S
Zn163 O167 2.055 . S
Zn163 N169 2.036 . S
Zn163 O187 2.066 . S
Zn163 O191 2.053 . S
C164 O161 1.259 . S
C164 O165 1.254 . S
O165 Zn163 2.046 . S
O165 C164 1.254 . S
C166 O187 1.256 . S
C166 O188 1.244 . S
O167 Zn163 2.055 . S
O167 C189 1.259 . S
O168 Zn160 2.046 . S
O168 C189 1.254 . S
N169 Zn163 2.036 . S
N169 C170 1.298 . S
N169 N172 1.398 . S
C170 N169 1.298 . S
C170 N173 1.367 . S
C170 C183 1.481 . S
C171 N172 1.299 . S
C171 N173 1.378 . S
N172 N169 1.398 . S
N172 C171 1.299 . S
N173 C170 1.367 . S
N173 C171 1.378 . S
C174 N176 1.298 . S
C174 N178 1.367 . S
C174 C182 1.481 . S
C175 N177 1.299 . S
C175 N178 1.379 . S
N176 Zn160 2.036 . S
N176 C174 1.298 . S
N176 N177 1.398 . S
N177 C175 1.299 . S
N177 N176 1.398 . S
N178 C174 1.367 . S
N178 C175 1.379 . S
H179 C182 0.980 . S
H180 C182 0.981 . S
H181 C182 0.981 . S
C182 C174 1.481 . S
C182 H179 0.980 . S
C182 H180 0.981 . S
C182 H181 0.981 . S
C183 C170 1.481 . S
C183 H184 0.980 . S
C183 H185 0.981 1_556 S
C183 H186 0.981 . S
H184 C183 0.980 . S
H185 C183 0.981 1_554 S
H186 C183 0.981 . S
O187 Zn163 2.066 . S
O187 C166 1.256 . S
O188 Zn160 2.053 . S
O188 C166 1.244 . S
C189 O167 1.259 . S
C189 O168 1.254 . S
O190 Zn160 2.066 . S
O190 C162 1.256 . S
O191 C162 1.244 . S
O191 Zn163 2.053 . S
C192 C193 1.170 . S
C192 C194 1.380 . S
C193 C192 1.170 . S
C194 C192 1.380 . S
C194 C195 1.170 . S
C195 C194 1.170 . S
C196 C197 1.170 . S
C196 C198 1.380 1_455 S
C197 C196 1.170 . S
C198 C196 1.380 1_655 S
C198 C199 1.170 . S
C199 C198 1.170 . S
C200 C201 1.170 . S
C200 C202 1.380 1_545 S
C201 C200 1.170 . S
C202 C200 1.380 1_565 S
C202 C203 1.170 . S
C203 C202 1.170 . S
C204 C205 1.170 . S
C204 C206 1.380 . S
C205 C204 1.170 . S
C206 C204 1.380 . S
C206 C207 1.170 . S
C207 C206 1.170 . S
C208 C209 1.170 . S
C208 C210 1.380 1_455 S
C209 C208 1.170 . S
C210 C208 1.380 1_655 S
C210 C211 1.170 . S
C211 C210 1.170 . S
C212 C213 1.170 . S
C212 C214 1.380 1_545 S
C213 C212 1.170 . S
C214 C212 1.380 1_565 S
C214 C215 1.170 . S
C215 C214 1.170 . S
C216 C217 1.170 . S
C216 C218 1.380 . S
C217 C216 1.170 . S
C218 C216 1.380 . S
C218 C219 1.170 . S
C219 C218 1.170 . S
C220 C221 1.170 . S
C220 C222 1.380 . S
C221 C220 1.170 . S
C222 C220 1.380 . S
C222 C223 1.170 . S
C223 C222 1.170 . S
C224 C225 1.170 . S
C224 C226 1.380 . S
C225 C224 1.170 . S
C226 C224 1.380 . S
C226 C227 1.170 . S
C227 C226 1.170 . S
C228 C229 1.170 . S
C228 C230 1.380 . S
C229 C228 1.170 . S
C230 C228 1.380 . S
C230 C231 1.170 . S
C231 C230 1.170 . S
C232 C233 1.170 . S
C232 C234 1.380 . S
C233 C232 1.170 . S
C234 C232 1.380 . S
C234 C235 1.170 . S
C235 C234 1.170 . S
C236 C237 1.170 . S
C236 C238 1.380 . S
C237 C236 1.170 . S
C238 C236 1.380 . S
C238 C239 1.170 . S
C239 C238 1.170 . S
C240 C241 1.170 . S
C240 C242 1.380 . S
C241 C240 1.170 . S
C242 C240 1.380 . S
C242 C243 1.170 . S
C243 C242 1.170 . S
C244 C245 1.170 . S
C244 C246 1.380 . S
C245 C244 1.170 . S
C246 C244 1.380 . S
C246 C247 1.170 . S
C247 C246 1.170 . S
C248 C249 1.170 . S
C248 C250 1.380 . S
C249 C248 1.170 . S
C250 C248 1.380 . S
C250 C251 1.170 . S
C251 C250 1.170 . S
C252 C253 1.170 . S
C252 C254 1.380 . S
C253 C252 1.170 . S
C254 C252 1.380 . S
C254 C255 1.170 . S
C255 C254 1.170 . S
C256 C257 1.170 . S
C256 C258 1.380 . S
C257 C256 1.170 . S
C258 C256 1.380 . S
C258 C259 1.170 . S
C259 C258 1.170 . S
C260 C261 1.170 . S
C260 C262 1.380 . S
C261 C260 1.170 . S
C262 C260 1.380 . S
C262 C263 1.170 . S
C263 C262 1.170 . S
C193 C166 1.483 . S
C195 C6 1.507 . S
C197 C2 1.494 . S
C199 C34 1.502 . S
C201 C38 1.503 . S
C203 C70 1.487 . S
C205 C66 1.499 . S
C207 C98 1.498 . S
C209 C134 1.492 . S
C211 C102 1.504 . S
C213 C162 1.507 . S
C215 C130 1.484 . S
C217 N13 1.487 . S
C219 N18 1.464 . S
C221 N50 1.481 1_556 S
C223 N45 1.450 . S
C225 N77 1.457 . S
C227 N82 1.464 1_554 S
C229 N114 1.451 . S
C231 N109 1.483 . S
C233 N146 1.487 . S
C235 N141 1.456 1_556 S
C237 N178 1.477 . S
C239 N173 1.451 1_554 S
C241 C4 1.603 . S
C243 C157 1.619 . S
C245 C61 1.590 . S
C247 C164 1.616 . S
C249 C29 1.594 . S
C251 C68 1.589 . S
C253 C36 1.592 . S
C255 C125 1.617 . S
C257 C132 1.585 . S
C259 C93 1.600 . S
C261 C100 1.613 . S
C263 C189 1.613 . S
