# Generated by pormake.
# Topology rob, (6)-cn, num edge types: 1
# Building blocks:
#     Node 0, Type 0, BuildingBlock: KUMBUR_clean_sbu_1, # of connection points: 6
#     Node 1, Type 0, BuildingBlock: KUMBUR_clean_sbu_1, # of connection points: 6
#     Node 2, Type 0, BuildingBlock: KUMBUR_clean_sbu_1, # of connection points: 6
#     Node 3, Type 0, BuildingBlock: KUMBUR_clean_sbu_1, # of connection points: 6
#     Edge 4, Type (0, 0), BuildingBlock: XUDNAN_clean_linker_2, # of connection points: 2
#     Edge 5, Type (0, 0), BuildingBlock: XUDNAN_clean_linker_2, # of connection points: 2
#     Edge 6, Type (0, 0), BuildingBlock: XUDNAN_clean_linker_2, # of connection points: 2
#     Edge 7, Type (0, 0), BuildingBlock: XUDNAN_clean_linker_2, # of connection points: 2
#     Edge 8, Type (0, 0), BuildingBlock: XUDNAN_clean_linker_2, # of connection points: 2
#     Edge 9, Type (0, 0), BuildingBlock: XUDNAN_clean_linker_2, # of connection points: 2
#     Edge 10, Type (0, 0), BuildingBlock: XUDNAN_clean_linker_2, # of connection points: 2
#     Edge 11, Type (0, 0), BuildingBlock: XUDNAN_clean_linker_2, # of connection points: 2
#     Edge 12, Type (0, 0), BuildingBlock: XUDNAN_clean_linker_2, # of connection points: 2
#     Edge 13, Type (0, 0), BuildingBlock: XUDNAN_clean_linker_2, # of connection points: 2
#     Edge 14, Type (0, 0), BuildingBlock: XUDNAN_clean_linker_2, # of connection points: 2
#     Edge 15, Type (0, 0), BuildingBlock: XUDNAN_clean_linker_2, # of connection points: 2
# Relax obj value: 0.020
# Max RMSD: 0.112
# Mean RMSD: 0.112
data_MOF--net-rob--node1-KUMBUR_clean_sbu_1--edge1-XUDNAN_clean_linker_2
_symmetry_space_group_name_H-M    P1
_symmetry_Int_Tables_number       1
_symmetry_cell_setting            triclinic
loop_
_symmetry_equiv_pos_as_xyz
'x, y, z'
_cell_length_a     18.64498
_cell_length_b     22.9297
_cell_length_c     34.043706
_cell_angle_alpha  108.60206
_cell_angle_beta   89.46186
_cell_angle_gamma 90.251922
loop_
_atom_site_label
_atom_site_type_symbol
_atom_site_fract_x
_atom_site_fract_y
_atom_site_fract_z
_atom_type_partial_charge
Tb0 Tb 0.31621 0.22867 0.96528 0.0
C1 C 0.08307 0.41368 0.04411 0.0
N2 N 0.15398 0.41282 0.05272 0.0
C3 C 0.16457 0.51941 0.05868 0.0
C4 C 0.05046 0.46732 0.04122 0.0
C5 C 0.19462 0.46496 0.06102 0.0
C6 C 0.09224 0.52053 0.04881 0.0
C7 C 0.96922 0.35998 0.03052 0.0
C8 C 0.04305 0.36086 0.03939 0.0
C9 C 0.93681 0.41274 0.02612 0.0
C10 C 0.97709 0.46659 0.03217 0.0
Tb11 Tb 0.1949 0.32543 0.06252 0.0
N12 N 0.07557 0.31183 0.046 0.0
C13 C 0.9295 0.30718 0.02836 0.0
C14 C 0.03519 0.26298 0.04803 0.0
C15 C 0.96245 0.25885 0.03783 0.0
H16 H 0.24973 0.46502 0.07036 0.0
H17 H 0.93132 0.21929 0.03866 0.0
H18 H 0.2331 0.09298 0.92444 0.0
H19 H 0.59505 0.27848 0.99973 0.0
H20 H 0.05754 0.22838 0.05937 0.0
H21 H 0.87273 0.30454 0.02146 0.0
H22 H 0.46995 0.3015 0.98595 0.0
H23 H 0.1967 0.56081 0.06538 0.0
H24 H 0.8801 0.41307 0.01951 0.0
H25 H 0.95071 0.50769 0.03051 0.0
H26 H 0.25503 0.98474 0.91797 0.0
H27 H 0.06862 0.5633 0.04849 0.0
H28 H 0.62729 0.17365 0.99944 0.0
N29 N 0.3311 0.12556 0.95573 0.0
C30 C 0.39653 0.10884 0.96573 0.0
C31 C 0.29491 0.01931 0.93215 0.0
C32 C 0.41315 0.04677 0.96031 0.0
C33 C 0.28185 0.08126 0.93695 0.0
C34 C 0.3605 1.00204 0.94445 0.0
N35 N 0.43151 0.212 0.98065 0.0
C36 C 0.48346 0.25614 0.98663 0.0
C37 C 0.51964 0.13782 0.98501 0.0
C38 C 0.44899 0.15349 0.97796 0.0
C39 C 0.57233 0.18381 0.9939 0.0
C40 C 0.55433 0.24304 0.99409 0.0
H41 H 0.37109 0.95387 0.93987 0.0
H42 H 0.49638 0.98363 0.96494 0.0
H43 H 0.58964 0.06349 0.9869 0.0
O44 O 0.35269 0.27549 0.9251 0.0
O45 O 0.35903 0.24587 0.02828 0.0
O46 O 0.25927 0.24958 0.0694 0.0
O47 O 0.34099 0.17737 0.90325 0.0
O48 O 0.33023 0.32926 0.98905 0.0
O49 O 0.30414 0.35996 0.05936 0.0
O50 O 0.12832 0.34064 0.11528 0.0
O51 O 0.19319 0.34325 1.00231 0.0
O52 O 0.20459 0.24813 0.95432 0.0
O53 O 0.23067 0.38511 0.11963 0.0
O54 O 0.18281 0.2245 0.04344 0.0
O55 O 0.20942 0.19169 0.97309 0.0
C56 C 0.32831 0.24031 0.06191 0.0
C57 C 0.32568 0.23021 0.85464 0.0
C58 C 0.34235 0.22532 0.78271 0.0
C59 C 0.27288 0.24849 0.78254 0.0
C60 C 0.25582 0.25203 0.8538 0.0
C61 C 0.22956 0.26126 0.81795 0.0
C62 C 0.36844 0.21597 0.8188 0.0
C63 C 0.34063 0.36559 0.02732 0.0
C64 C 0.35661 0.22597 0.89317 0.0
C65 C 0.48264 0.03107 0.96897 0.0
C66 C 0.53582 0.07652 0.98135 0.0
C67 C 0.17457 0.30271 0.96697 0.0
C68 C 0.18604 0.36787 0.18095 0.0
C69 C 0.13781 0.34649 0.24228 0.0
C70 C 0.2024 0.36785 0.26297 0.0
C71 C 0.24998 0.38884 0.20252 0.0
C72 C 0.13013 0.34628 0.20105 0.0
C73 C 0.25793 0.38869 0.24316 0.0
C74 C 0.17745 0.18414 1.00593 0.0
C75 C 0.17455 0.37615 0.13998 0.0
H76 H 0.25216 0.25625 0.755 0.0
H77 H 0.22234 0.26276 0.88099 0.0
H78 H 0.17591 0.27897 0.81776 0.0
H79 H 0.42271 0.19935 0.81929 0.0
H80 H 0.2102 0.36802 0.2945 0.0
H81 H 0.29343 0.40674 0.18836 0.0
H82 H 0.07975 0.33159 0.18529 0.0
H83 H 0.30729 0.40518 0.2595 0.0
Tb84 Tb 0.82748 0.71843 0.97561 0.0
C85 C 0.61412 0.94125 0.0659 0.0
N86 N 0.68164 0.93073 0.07677 0.0
C87 C 0.70606 0.03926 0.09904 0.0
C88 C 0.5898 1.0015 0.07132 0.0
C89 C 0.72737 0.97878 0.0938 0.0
C90 C 0.63703 0.0507 0.08769 0.0
C91 C 0.49717 0.90046 0.04018 0.0
C92 C 0.56839 0.89146 0.05046 0.0
C93 C 0.47278 0.96036 0.04535 0.0
C94 C 0.51892 1.01076 0.06098 0.0
Tb95 Tb 0.70775 0.83026 0.06864 0.0
N96 N 0.59369 0.83414 0.04602 0.0
C97 C 0.45219 0.84908 0.02597 0.0
C98 C 0.54892 0.78438 0.03454 0.0
C99 C 0.47798 0.79089 0.02358 0.0
H100 H 0.77982 0.97089 0.10435 0.0
H101 H 0.44312 0.75111 0.01357 0.0
H102 H 0.76256 0.57462 0.94319 0.0
H103 H 0.08675 0.81249 0.03157 0.0
H104 H 0.56808 0.73968 0.03347 0.0
H105 H 0.39711 0.85401 0.01767 0.0
H106 H 0.95817 0.81801 0.0178 0.0
H107 H 0.74253 0.0771 0.11243 0.0
H108 H 0.41818 0.96828 0.03767 0.0
H109 H 0.49912 0.05677 0.06522 0.0
H110 H 0.81244 0.47017 0.92703 0.0
H111 H 0.6204 0.09765 0.09227 0.0
H112 H 0.14606 0.71112 0.01525 0.0
N113 N 0.86144 0.61952 0.96557 0.0
C114 C 0.93236 0.61266 0.97186 0.0
C115 C 0.84663 0.50988 0.93977 0.0
C116 C 0.96372 0.5538 0.96086 0.0
C117 C 0.81822 0.56927 0.94981 0.0
C118 C 0.91982 0.50207 0.9449 0.0
N119 N 0.94252 0.72119 0.9979 0.0
C120 C 0.98242 0.77374 0.01214 0.0
C121 C 0.04851 0.65969 0.99376 0.0
C122 C 0.97429 0.66504 0.98824 0.0
C123 C 0.08896 0.71338 1.01027 0.0
C124 C 0.05568 0.77066 0.01958 0.0
H125 H 0.94194 0.45602 0.93626 0.0
H126 H 0.06286 0.5038 0.95768 0.0
H127 H 0.13725 0.59611 0.98546 0.0
O128 O 0.87886 0.75773 0.93453 0.0
O129 O 0.85789 0.72553 0.04 0.0
O130 O 0.82059 0.82194 0.08244 0.0
O131 O 0.8465 0.66262 0.91415 0.0
O132 O 0.81374 0.81702 0.98545 0.0
O133 O 0.80784 0.87082 0.05479 0.0
O134 O 0.65041 0.7943 0.10902 0.0
O135 O 0.67748 0.82033 1.00427 0.0
O136 O 0.71531 0.72494 0.95983 0.0
O137 O 0.69461 0.88556 0.13102 0.0
O138 O 0.71925 0.73094 0.05763 0.0
O139 O 0.72789 0.67549 0.98873 0.0
C140 C 0.85879 0.77147 0.07545 0.0
C141 C 0.85877 0.71111 0.86243 0.0
C142 C 0.89981 0.71993 0.7959 0.0
C143 C 0.82933 0.7082 0.78109 0.0
C144 C 0.78866 0.70059 0.84719 0.0
C145 C 0.77424 0.699 0.80667 0.0
C146 C 0.914 0.72178 0.83691 0.0
C147 C 0.83214 0.86421 0.01718 0.0
C148 C 0.87669 0.7067 0.90352 0.0
C149 C 0.03784 0.54849 0.96561 0.0
C150 C 0.08019 0.6012 0.98177 0.0
C151 C 0.67559 0.77482 0.96883 0.0
C152 C 0.68096 0.83145 0.17937 0.0
C153 C 0.64788 0.82502 0.24748 0.0
C154 C 0.71668 0.80211 0.25068 0.0
C155 C 0.74924 0.80875 0.18319 0.0
C156 C 0.63061 0.84 0.21167 0.0
C157 C 0.76711 0.79445 0.21879 0.0
C158 C 0.69854 0.68481 0.02568 0.0
C159 C 0.65974 0.84305 0.14104 0.0
H160 H 0.81672 0.70677 0.7498 0.0
H161 H 0.74543 0.6925 0.86632 0.0
H162 H 0.72016 0.69021 0.79493 0.0
H163 H 0.96835 0.72959 0.8485 0.0
H164 H 0.7316 0.79062 0.278 0.0
H165 H 0.78818 0.80158 0.15849 0.0
H166 H 0.57738 0.85669 0.20842 0.0
H167 H 0.82005 0.77703 0.22155 0.0
Tb168 Tb 0.34236 0.82045 0.57268 0.0
C169 C 0.11667 0.59826 0.46977 0.0
N170 N 0.18824 0.61012 0.46913 0.0
C171 C 0.21481 0.50674 0.46632 0.0
C172 C 0.09153 0.54046 0.46996 0.0
C173 C 0.23712 0.56459 0.46571 0.0
C174 C 0.14189 0.49496 0.46907 0.0
C175 C 0.99417 0.63541 0.47337 0.0
C176 C 0.06858 0.64528 0.47173 0.0
C177 C 0.96877 0.57752 0.473 0.0
C178 C 0.01734 0.53031 0.47134 0.0
Tb179 Tb 0.2171 0.70692 0.46932 0.0
N180 N 0.09534 0.70154 0.47394 0.0
C181 C 0.94772 0.6842 0.47563 0.0
C182 C 0.05034 0.74864 0.47471 0.0
C183 C 0.97597 0.74091 0.47597 0.0
H184 H 0.29315 0.57167 0.4614 0.0
H185 H 0.94048 0.77858 0.47691 0.0
H186 H 0.28639 0.96017 0.58236 0.0
H187 H 0.60912 0.72036 0.55282 0.0
H188 H 0.07118 0.79184 0.47351 0.0
H189 H 0.89011 0.67845 0.47682 0.0
H190 H 0.48097 0.72424 0.56898 0.0
H191 H 0.25384 0.47105 0.46425 0.0
H192 H 0.91175 0.56887 0.47429 0.0
H193 H 0.9968 0.48621 0.47137 0.0
H194 H 0.33841 0.05785 0.57909 0.0
H195 H 0.1255 0.4502 0.46985 0.0
H196 H 0.66927 0.80975 0.54106 0.0
N197 N 0.38548 0.91188 0.56943 0.0
C198 C 0.45693 0.91497 0.56255 0.0
C199 C 0.37227 0.01792 0.57427 0.0
C200 C 0.48894 0.96959 0.5604 0.0
C201 C 0.34295 0.96249 0.57589 0.0
C202 C 0.4455 0.02143 0.56633 0.0
N203 N 0.46402 0.81141 0.56039 0.0
C204 C 0.50422 0.76195 0.56099 0.0
C205 C 0.57188 0.86358 0.54973 0.0
C206 C 0.49737 0.86257 0.55707 0.0
C207 C 0.61192 0.81092 0.54671 0.0
C208 C 0.57808 0.76027 0.55307 0.0
H209 H 0.46768 0.0642 0.56454 0.0
H210 H 0.58847 1.01163 0.54988 0.0
H211 H 0.66123 0.91902 0.54072 0.0
O212 O 0.37028 0.80276 0.62767 0.0
O213 O 0.35536 0.84157 0.51459 0.0
O214 O 0.32521 0.74605 0.47553 0.0
O215 O 0.31369 0.88492 0.62985 0.0
O216 O 0.35942 0.71845 0.55333 0.0
O217 O 0.32554 0.67799 0.48317 0.0
O218 O 0.18916 0.73396 0.41685 0.0
O219 O 0.16697 0.70244 0.52739 0.0
O220 O 0.2571 0.75869 0.54935 0.0
O221 O 0.23046 0.64256 0.41045 0.0
O222 O 0.19662 0.8076 0.49311 0.0
O223 O 0.23393 0.85262 0.56307 0.0
C224 C 0.34173 0.80253 0.47795 0.0
C225 C 0.39497 0.89165 0.68404 0.0
C226 C 0.45611 0.90284 0.74931 0.0
C227 C 0.48223 0.96046 0.74912 0.0
C228 C 0.42294 0.94865 0.68407 0.0
C229 C 0.46645 0.98261 0.7165 0.0
C230 C 0.41245 0.86873 0.71633 0.0
C231 C 0.36016 0.67429 0.51654 0.0
C232 C 0.34655 0.85559 0.65124 0.0
C233 C 0.56283 0.97045 0.55223 0.0
C234 C 0.60418 0.91751 0.54673 0.0
C235 C 0.20098 0.7332 0.56008 0.0
C236 C 0.20322 0.66072 0.34604 0.0
C237 C 0.15156 0.66813 0.28196 0.0
C238 C 0.19133 0.61606 0.25936 0.0
C239 C 0.24247 0.60889 0.32255 0.0
C240 C 0.15845 0.6909 0.3255 0.0
C241 C 0.23665 0.58696 0.27955 0.0
C242 C 0.19514 0.85142 0.52998 0.0
C243 C 0.20647 0.67974 0.39181 0.0
H244 H 0.51457 0.98889 0.77426 0.0
H245 H 0.41098 0.96714 0.65931 0.0
H246 H 0.48794 0.02647 0.71662 0.0
H247 H 0.39243 0.82383 0.71527 0.0
H248 H 0.1879 0.59811 0.22588 0.0
H249 H 0.27742 0.58485 0.33746 0.0
H250 H 0.12733 0.73047 0.34332 0.0
H251 H 0.26703 0.54693 0.26181 0.0
Tb252 Tb 0.81035 0.29835 0.55142 0.0
C253 C 0.62574 0.05556 0.45754 0.0
N254 N 0.69249 0.07201 0.44867 0.0
C255 C 0.73079 0.96678 0.43004 0.0
C256 C 0.60845 0.99365 0.45227 0.0
C257 C 0.7449 0.02861 0.43473 0.0
C258 C 0.66223 0.94916 0.43881 0.0
C259 C 0.50293 0.08554 0.47803 0.0
C260 C 0.57376 0.10085 0.47039 0.0
C261 C 0.48523 0.02383 0.47249 0.0
C262 C 0.53796 0.97806 0.45986 0.0
Tb263 Tb 0.7079 0.17383 0.45607 0.0
N264 N 0.59257 0.15982 0.47436 0.0
C265 C 0.45185 0.13258 0.49022 0.0
C266 C 0.5423 0.20544 0.48442 0.0
C267 C 0.47161 0.19275 0.49329 0.0
H268 H 0.79712 0.04128 0.42608 0.0
H269 H 0.43217 0.22923 0.50197 0.0
H270 H 0.72934 0.43531 0.57858 0.0
H271 H 0.07683 0.22337 0.49469 0.0
H272 H 0.5565 0.25162 0.48579 0.0
H273 H 0.39688 0.12279 0.49665 0.0
H274 H 0.95007 0.20803 0.5097 0.0
H275 H 0.7725 0.93261 0.41899 0.0
H276 H 0.43093 1.01103 0.47792 0.0
H277 H 0.52381 0.93075 0.45616 0.0
H278 H 0.76366 0.54159 0.58434 0.0
H279 H 0.65111 0.9011 0.43451 0.0
H280 H 0.12435 0.32881 0.50792 0.0
N281 N 0.83236 0.39815 0.5573 0.0
C282 C 0.90155 0.41026 0.54971 0.0
C283 C 0.80294 0.50505 0.57464 0.0
C284 C 0.92483 0.47099 0.55596 0.0
C285 C 0.78323 0.44449 0.57039 0.0
C286 C 0.87399 0.51832 0.56727 0.0
N287 N 0.92418 0.30309 0.528 0.0
C288 C 0.96917 0.25387 0.51412 0.0
C289 C 0.02202 0.37252 0.52882 0.0
C290 C 0.94931 0.36142 0.53549 0.0
C291 C 0.06812 0.32217 0.51365 0.0
C292 C 0.04143 0.26257 0.50601 0.0
H293 H 0.88883 0.56517 0.57038 0.0
H294 H 0.01733 0.52891 0.55693 0.0
H295 H 0.10275 0.44299 0.53519 0.0
O296 O 0.87399 0.27489 0.59481 0.0
O297 O 0.83445 0.29982 0.48749 0.0
O298 O 0.81869 0.19875 0.45233 0.0
O299 O 0.81204 0.35797 0.61328 0.0
O300 O 0.81161 0.19992 0.54417 0.0
O301 O 0.81255 0.14632 0.47442 0.0
O302 O 0.66981 0.20719 0.40904 0.0
O303 O 0.67382 0.17875 0.51896 0.0
O304 O 0.70004 0.27648 0.56447 0.0
O305 O 0.70661 0.11422 0.39447 0.0
O306 O 0.68612 0.27313 0.46869 0.0
O307 O 0.70482 0.32887 0.53827 0.0
C308 C 0.83697 0.2536 0.4525 0.0
C309 C 0.83456 0.3098 0.66435 0.0
C310 C 0.86635 0.3064 0.73358 0.0
C311 C 0.79922 0.27923 0.73581 0.0
C312 C 0.76825 0.28268 0.66761 0.0
C313 C 0.75067 0.26772 0.70317 0.0
C314 C 0.88343 0.32195 0.69753 0.0
C315 C 0.83085 0.15204 0.51291 0.0
C316 C 0.85454 0.32257 0.62569 0.0
C317 C 0.99786 0.48241 0.5511 0.0
C318 C 0.04643 0.43338 0.53811 0.0
C319 C 0.66683 0.22294 0.55472 0.0
C320 C 0.61112 0.13223 0.35426 0.0
C321 C 0.53554 0.13303 0.29567 0.0
C322 C 0.48855 0.09157 0.3057 0.0
C323 C 0.56326 0.09056 0.36301 0.0
C324 C 0.59704 0.15343 0.32045 0.0
C325 C 0.50206 0.07119 0.33928 0.0
C326 C 0.67683 0.32243 0.50165 0.0
C327 C 0.67521 0.1539 0.38036 0.0
H328 H 0.78378 0.26746 0.76311 0.0
H329 H 0.73034 0.27268 0.64251 0.0
H330 H 0.69922 0.24685 0.70537 0.0
H331 H 0.93516 0.34217 0.69485 0.0
H332 H 0.4416 0.07387 0.28719 0.0
H333 H 0.57314 0.07249 0.38797 0.0
H334 H 0.63355 0.18601 0.31378 0.0
H335 H 0.46492 0.03998 0.34683 0.0
H336 H 0.62515 0.59038 0.96822 0.0
H337 H 0.66006 0.67296 0.10041 0.0
H338 H 0.57362 0.6008 0.11452 0.0
H339 H 0.43671 0.56453 0.97481 0.0
H340 H 0.43612 0.49137 0.93414 0.0
H341 H 0.5027 0.54834 0.9337 0.0
H342 H 0.60382 0.46989 0.93089 0.0
H343 H 0.53745 0.41257 0.93107 0.0
H344 H 0.60648 0.43201 0.96983 0.0
H345 H 0.48084 0.52225 0.1152 0.0
H346 H 0.39025 0.43987 0.10207 0.0
H347 H 0.41447 0.4055 0.96955 0.0
C348 C 0.61522 0.59276 1.00008 0.0
C349 C 0.64956 0.63778 0.03315 0.0
C350 C 0.63429 0.63957 0.07443 0.0
C351 C 0.58526 0.59851 0.08286 0.0
C352 C 0.55169 0.55539 0.04974 0.0
C353 C 0.56617 0.55182 1.00914 0.0
C354 C 0.52168 0.50128 0.97946 0.0
C355 C 0.47132 0.52799 0.95403 0.0
C356 C 0.57026 0.45095 0.95114 0.0
C357 C 0.47978 0.4775 1.00978 0.0
C358 C 0.49809 0.50947 0.05015 0.0
C359 C 0.46625 0.49668 0.0837 0.0
C360 C 0.41456 0.44978 0.07588 0.0
C361 C 0.39491 0.41585 0.03478 0.0
C362 C 0.42822 0.43025 1.00136 0.0
H363 H 0.41746 0.61941 0.57174 0.0
H364 H 0.42403 0.61328 0.44288 0.0
H365 H 0.50464 0.5244 0.42609 0.0
H366 H 0.60746 0.57632 0.57498 0.0
H367 H 0.59018 0.5306 0.60839 0.0
H368 H 0.53358 0.59545 0.61136 0.0
H369 H 0.42186 0.52446 0.59855 0.0
H370 H 0.47808 0.45938 0.59536 0.0
H371 H 0.41914 0.45708 0.55322 0.0
H372 H 0.57891 0.43301 0.42132 0.0
H373 H 0.65041 0.34807 0.43028 0.0
H374 H 0.60158 0.41193 0.5621 0.0
C375 C 0.43653 0.59967 0.54014 0.0
C376 C 0.41335 0.62325 0.50863 0.0
C377 C 0.43977 0.59592 0.46761 0.0
C378 C 0.48596 0.54529 0.45765 0.0
C379 C 0.50657 0.5224 0.48903 0.0
C380 C 0.48366 0.5489 0.52956 0.0
C381 C 0.51478 0.51456 0.55707 0.0
C382 C 0.56444 0.55675 0.5899 0.0
C383 C 0.45488 0.48725 0.57724 0.0
C384 C 0.55725 0.46424 0.52542 0.0
C385 C 0.55159 0.46988 0.4864 0.0
C386 C 0.58431 0.42835 0.4518 0.0
C387 C 0.62456 0.37998 0.45717 0.0
C388 C 0.63234 0.37344 0.49689 0.0
C389 C 0.59778 0.41621 0.53143 0.0
H390 H 0.12947 0.13007 0.06284 0.0
H391 H 0.1057 0.12417 0.93488 0.0
H392 H 0.01393 0.04315 0.92464 0.0
H393 H 0.1034 0.96754 0.04656 0.0
H394 H 0.05232 0.9796 0.09369 0.0
H395 H 0.11878 0.03521 0.09051 0.0
H396 H 0.02239 0.12097 0.11137 0.0
H397 H 0.95534 0.06554 0.11416 0.0
H398 H 0.94171 0.11243 0.08127 0.0
H399 H 0.92525 0.96328 0.9279 0.0
H400 H 0.84499 0.8885 0.94424 0.0
H401 H 0.91986 0.94909 0.07131 0.0
C402 C 0.10525 0.11134 0.0326 0.0
C403 C 0.12544 0.13295 0.9995 0.0
C404 C 0.0922 0.10761 0.96048 0.0
C405 C 0.03951 0.06193 0.95444 0.0
C406 C 0.02011 0.04236 0.98782 0.0
C407 C 0.05177 0.06618 0.02617 0.0
C408 C 0.01965 0.0379 0.05706 0.0
C409 C 0.07696 1.00299 0.07288 0.0
C410 C 0.98257 0.08715 0.0931 0.0
C411 C 0.96542 0.9941 0.02993 0.0
C412 C 0.96684 0.99748 0.9901 0.0
C413 C 0.92341 0.96038 0.959 0.0
C414 C 0.87803 0.91799 0.96862 0.0
C415 C 0.87594 0.9132 1.00911 0.0
C416 C 0.91956 0.95244 0.04029 0.0
H417 H 0.91578 0.06227 0.45872 0.0
H418 H 0.85639 0.14061 0.58867 0.0
H419 H 0.94363 0.07361 0.60677 0.0
H420 H 0.94137 0.9045 0.46129 0.0
H421 H 0.01642 0.88995 0.42576 0.0
H422 H 0.94707 0.94277 0.4226 0.0
H423 H 0.04321 0.02757 0.42978 0.0
H424 H 0.11262 0.97526 0.43354 0.0
H425 H 0.10201 0.04813 0.47385 0.0
H426 H 0.04051 1.00206 0.61188 0.0
H427 H 0.13559 0.9243 0.60273 0.0
H428 H 0.13263 0.89045 0.46973 0.0
C429 C 0.92012 0.06445 0.49084 0.0
C430 C 0.87895 0.10679 0.52218 0.0
C431 C 0.88738 0.10888 0.564 0.0
C432 C 0.93687 0.07094 0.5747 0.0
C433 C 0.97751 0.03064 0.54329 0.0
C434 C 0.9693 0.02649 0.50216 0.0
C435 C 0.02044 0.97929 0.47466 0.0
C436 C 0.97884 0.92597 0.44428 0.0
C437 C 0.07266 1.00938 0.4516 0.0
C438 C 0.05899 0.95833 0.50688 0.0
C439 C 0.03335 0.98864 0.54625 0.0
C440 C 0.06084 0.97768 0.58117 0.0
C441 C 0.1152 0.93367 0.57567 0.0
C442 C 0.14135 0.9009 0.53552 0.0
C443 C 0.11329 0.91421 0.5008 0.0
H444 H 0.40377 0.15815 0.26881 0.0
H445 H 0.6311 0.15336 0.23896 0.0
H446 H 0.60331 0.18066 0.17611 0.0
H447 H 0.34578 0.08688 0.16369 0.0
H448 H 0.26495 0.13202 0.1706 0.0
H449 H 0.3032 0.11473 0.21399 0.0
H450 H 0.30796 0.23108 0.25528 0.0
H451 H 0.26995 0.24849 0.21191 0.0
H452 H 0.35418 0.2827 0.23328 0.0
H453 H 0.54959 0.20853 0.11608 0.0
H454 H 0.47532 0.23437 0.06457 0.0
H455 H 0.28299 0.21368 0.13153 0.0
C456 C 0.44799 0.16244 0.24908 0.0
C457 C 0.51985 0.15351 0.2591 0.0
C458 C 0.57576 0.16085 0.23253 0.0
C459 C 0.56043 0.17584 0.19651 0.0
C460 C 0.48889 0.1832 0.18735 0.0
C461 C 0.43363 0.17661 0.21289 0.0
C462 C 0.36122 0.1855 0.19576 0.0
C463 C 0.31615 0.12624 0.18539 0.0
C464 C 0.32098 0.24023 0.22587 0.0
C465 C 0.38423 0.1991 0.15681 0.0
C466 C 0.45805 0.1974 0.15242 0.0
C467 C 0.49174 0.20935 0.1191 0.0
C468 C 0.44893 0.22347 0.08965 0.0
C469 C 0.3731 0.22486 0.09318 0.0
C470 C 0.3407 0.21259 0.12749 0.0
H471 H 0.61109 0.74125 0.28646 0.0
H472 H 0.56303 0.92518 0.2844 0.0
H473 H 0.47385 0.93721 0.34089 0.0
H474 H 0.42881 0.70079 0.3063 0.0
H475 H 0.45607 0.65817 0.33987 0.0
H476 H 0.51498 0.66325 0.29881 0.0
H477 H 0.616 0.70723 0.35219 0.0
H478 H 0.55744 0.70181 0.39324 0.0
H479 H 0.59834 0.77446 0.39621 0.0
H480 H 0.3956 0.93215 0.40045 0.0
H481 H 0.3329 0.90822 0.4581 0.0
H482 H 0.4265 0.72579 0.41803 0.0
C483 C 0.58186 0.78415 0.29795 0.0
C484 C 0.59394 0.83232 0.28111 0.0
C485 C 0.55419 0.88755 0.29666 0.0
C486 C 0.50371 0.89495 0.32876 0.0
C487 C 0.493 0.84659 0.34462 0.0
C488 C 0.53068 0.7921 0.32959 0.0
C489 C 0.50949 0.7474 0.35223 0.0
C490 C 0.47531 0.68895 0.32252 0.0
C491 C 0.57417 0.73184 0.37481 0.0
C492 C 0.45467 0.78553 0.38264 0.0
C493 C 0.44594 0.8427 0.37785 0.0
C494 C 0.40123 0.88722 0.40411 0.0
C495 C 0.36589 0.87335 0.43666 0.0
C496 C 0.37398 0.81495 0.4418 0.0
C497 C 0.41809 0.77031 0.41408 0.0
H498 H 0.70802 0.84684 0.92235 0.0
H499 H 0.5462 0.72254 0.94171 0.0
H500 H 0.46917 0.74449 0.88895 0.0
H501 H 0.59103 0.95926 0.90582 0.0
H502 H 0.64567 0.97271 0.86566 0.0
H503 H 0.68667 0.94795 0.90536 0.0
H504 H 0.74316 0.85264 0.84912 0.0
H505 H 0.70464 0.88075 0.81028 0.0
H506 H 0.68551 0.80364 0.80997 0.0
H507 H 0.40875 0.78451 0.83648 0.0
H508 H 0.37371 0.83005 0.78307 0.0
H509 H 0.5821 0.9194 0.79336 0.0
C510 C 0.65637 0.82425 0.9152 0.0
C511 C 0.63185 0.78379 0.93595 0.0
C512 C 0.56483 0.75417 0.92603 0.0
C513 C 0.52105 0.76641 0.89628 0.0
C514 C 0.54628 0.80734 0.87651 0.0
C515 C 0.61297 0.83489 0.88504 0.0
C516 C 0.62875 0.87528 0.85852 0.0
C517 C 0.63861 0.9428 0.88546 0.0
C518 C 0.69445 0.85165 0.83034 0.0
C519 C 0.56037 0.86639 0.83377 0.0
C520 C 0.51313 0.82773 0.84493 0.0
C521 C 0.44577 0.81405 0.82699 0.0
C522 C 0.42667 0.8398 0.79634 0.0
C523 C 0.47528 0.87794 0.7833 0.0
C524 C 0.54293 0.89129 0.80265 0.0
H525 H 0.58438 0.30653 0.61283 0.0
H526 H 0.64261 0.11351 0.56698 0.0
H527 H 0.56502 0.09322 0.62052 0.0
H528 H 0.57829 0.31821 0.72065 0.0
H529 H 0.50303 0.37018 0.73263 0.0
H530 H 0.5636 0.36953 0.69096 0.0
H531 H 0.45666 0.34978 0.64022 0.0
H532 H 0.39571 0.35001 0.68165 0.0
H533 H 0.39863 0.28468 0.635 0.0
H534 H 0.47847 0.09275 0.67616 0.0
H535 H 0.39674 0.11452 0.7372 0.0
H536 H 0.39198 0.30707 0.74566 0.0
C537 C 0.58005 0.25992 0.61387 0.0
C538 C 0.61848 0.21128 0.58567 0.0
C539 C 0.61227 0.15097 0.58795 0.0
C540 C 0.56853 0.13906 0.61813 0.0
C541 C 0.53002 0.18763 0.64492 0.0
C542 C 0.5355 0.24692 0.64327 0.0
C543 C 0.4897 0.29104 0.67649 0.0
C544 C 0.53645 0.34013 0.70699 0.0
C545 C 0.43173 0.32061 0.65717 0.0
C546 C 0.45726 0.24709 0.69684 0.0
C547 C 0.48133 0.18768 0.6781 0.0
C548 C 0.45972 0.13904 0.69161 0.0
C549 C 0.41343 0.15169 0.72596 0.0
C550 C 0.38861 0.21222 0.74567 0.0
C551 C 0.41011 0.26034 0.7307 0.0
H552 H 0.89288 0.66968 0.09709 0.0
H553 H 0.93087 0.86605 0.13009 0.0
H554 H 1.00287 0.86296 0.19003 0.0
H555 H 0.8748 0.66916 0.20439 0.0
H556 H 0.91678 0.59496 0.19328 0.0
H557 H 0.86755 0.61335 0.15346 0.0
H558 H 0.97916 0.58794 0.10565 0.0
H559 H 0.02856 0.56905 0.14509 0.0
H560 H 0.06326 0.62617 0.12376 0.0
H561 H 0.07335 0.83768 0.24577 0.0
H562 H 0.14176 0.7908 0.29011 0.0
H563 H 0.05434 0.61195 0.22197 0.0
C564 C 0.9171 0.7118 0.11672 0.0
C565 C 0.90702 0.76799 0.10884 0.0
C566 C 0.93824 0.82248 0.13561 0.0
C567 C 0.97883 0.82125 0.16984 0.0
C568 C 0.98671 0.76532 0.17731 0.0
C569 C 0.95651 0.71164 0.15159 0.0
C570 C 0.97291 0.65771 0.16659 0.0
C571 C 0.9039 0.63233 0.18024 0.0
C572 C 0.01348 0.60721 0.13329 0.0
C573 C 0.02012 0.68868 0.20335 0.0
C574 C 0.0263 0.75103 0.20962 0.0
C575 C 0.06858 0.78893 0.24126 0.0
C576 C 0.10698 0.76204 0.26641 0.0
C577 C 0.10353 0.69782 0.25936 0.0
C578 C 0.0583 0.66116 0.22792 0.0
H579 H 0.91301 0.35199 0.44328 0.0
H580 H 0.83443 0.17 0.37459 0.0
H581 H 0.89174 0.17776 0.31092 0.0
H582 H 0.90404 0.42206 0.35779 0.0
H583 H 0.98534 0.46384 0.37698 0.0
H584 H 0.92441 0.44319 0.41195 0.0
H585 H 0.03661 0.38673 0.43377 0.0
H586 H 0.09111 0.40865 0.39636 0.0
H587 H 0.08353 0.32916 0.39357 0.0
H588 H 0.96661 0.20295 0.25508 0.0
H589 H 0.05602 0.24131 0.2147 0.0
H590 H 0.08727 0.40485 0.3206 0.0
C591 C 0.90657 0.3143 0.41469 0.0
C592 C 0.86863 0.26069 0.41405 0.0
C593 C 0.86291 0.21185 0.37602 0.0
C594 C 0.89509 0.21585 0.33949 0.0
C595 C 0.93306 0.26903 0.34127 0.0
C596 C 0.93885 0.31726 0.37793 0.0
C597 C 0.98849 0.36648 0.37268 0.0
C598 C 0.94833 0.42757 0.38035 0.0
C599 C 0.05385 0.37336 0.40083 0.0
C600 C 0.01003 0.33885 0.32766 0.0
C601 C 0.97712 0.28271 0.30974 0.0
C602 C 0.99206 0.24721 0.26882 0.0
C603 C 0.04275 0.26937 0.24606 0.0
C604 C 0.07864 0.32599 0.26451 0.0
C605 C 0.06088 0.36133 0.30563 0.0
H606 H 0.90058 0.22945 0.77845 0.0
H607 H 0.94749 0.41018 0.76942 0.0
H608 H 0.02672 0.43153 0.83045 0.0
H609 H 0.89638 0.27373 0.89007 0.0
H610 H 0.93837 0.20397 0.89184 0.0
H611 H 0.88517 0.20318 0.84776 0.0
H612 H 0.99258 0.15844 0.79889 0.0
H613 H 0.04633 0.15906 0.84269 0.0
H614 H 0.07734 0.19833 0.80755 0.0
H615 H 0.10139 0.43263 0.89329 0.0
H616 H 0.16798 0.41207 0.95038 0.0
H617 H 0.07439 0.22966 0.91653 0.0
C618 C 0.9273 0.27366 0.78934 0.0
C619 C 0.91744 0.31824 0.76904 0.0
C620 C 0.95451 0.37507 0.78407 0.0
C621 C 0.99927 0.38776 0.81895 0.0
C622 C 1.00707 0.343 0.83842 0.0
C623 C 0.97251 0.28685 0.82386 0.0
C624 C 0.99097 0.24596 0.84969 0.0
C625 C 0.9237 0.23084 0.8711 0.0
C626 C 0.02909 0.18699 0.82313 0.0
C627 C 0.04143 0.28769 0.88102 0.0
C628 C 0.04964 0.34371 0.87433 0.0
C629 C 0.09443 0.38933 0.89923 0.0
C630 C 0.13186 0.37737 0.93163 0.0
C631 C 0.12601 0.31947 0.93797 0.0
C632 C 0.07948 0.27452 0.91255 0.0
H633 H 0.11691 0.65174 0.58228 0.0
H634 H 0.20576 0.83403 0.63117 0.0
H635 H 0.15351 0.84509 0.69977 0.0
H636 H 0.94866 0.7018 0.6328 0.0
H637 H 0.92901 0.62789 0.63844 0.0
H638 H 0.98601 0.63339 0.59651 0.0
H639 H 0.08599 0.57326 0.62209 0.0
H640 H 0.02686 0.5697 0.66343 0.0
H641 H 0.11497 0.60316 0.67507 0.0
H642 H 0.08418 0.83679 0.76317 0.0
H643 H 0.99433 0.81644 0.81147 0.0
H644 H 0.93546 0.64587 0.71752 0.0
C645 C 0.12742 0.69323 0.60785 0.0
C646 C 0.17209 0.74013 0.60232 0.0
C647 C 0.17989 0.79508 0.63579 0.0
C648 C 0.14801 0.80223 0.67468 0.0
C649 C 0.10551 0.75459 0.6793 0.0
C650 C 0.09389 0.70169 0.64639 0.0
C651 C 0.03737 0.66151 0.65721 0.0
C652 C 0.97132 0.6557 0.62957 0.0
C653 C 0.06811 0.59814 0.65427 0.0
C654 C 0.02004 0.6991 0.70162 0.0
C655 C 0.06033 0.7525 0.71404 0.0
C656 C 0.05244 0.79507 0.75366 0.0
C657 C 1.00147 0.78311 0.78094 0.0
C658 C 0.95794 0.72969 0.76824 0.0
C659 C 0.96795 0.68713 0.72809 0.0
loop_
_geom_bond_atom_site_label_1
_geom_bond_atom_site_label_2
_geom_bond_distance
_geom_bond_site_symmetry_2
_ccdc_geom_bond_type
Tb0 N29 2.617 . S
Tb0 N35 2.572 . S
Tb0 O44 2.465 . S
Tb0 O45 2.387 1_556 S
Tb0 O47 2.428 . S
Tb0 O48 2.308 . S
Tb0 O52 2.349 . S
Tb0 O55 2.393 . S
Tb0 C64 2.802 . S
C1 N2 1.379 . S
C1 C4 1.416 . S
C1 C8 1.424 . S
N2 C1 1.379 . S
N2 C5 1.334 . S
N2 Tb11 2.617 . S
C3 C5 1.390 . S
C3 C6 1.339 . S
C3 H23 0.930 . S
C4 C1 1.416 . S
C4 C6 1.416 . S
C4 C10 1.448 1_455 S
C5 N2 1.334 . S
C5 C3 1.390 . S
C5 H16 0.930 . S
C6 C3 1.339 . S
C6 C4 1.416 . S
C6 H27 0.930 . S
C7 C8 1.413 1_655 S
C7 C9 1.427 . S
C7 C13 1.416 1_554 S
C8 C1 1.424 . S
C8 C7 1.413 1_455 S
C8 N12 1.361 . S
C9 C7 1.427 . S
C9 C10 1.328 . S
C9 H24 0.929 1_554 S
C10 C4 1.448 1_655 S
C10 C9 1.328 . S
C10 H25 0.930 . S
Tb11 N2 2.617 . S
Tb11 N12 2.572 . S
Tb11 O46 2.349 . S
Tb11 O49 2.393 . S
Tb11 O50 2.465 . S
Tb11 O51 2.387 1_554 S
Tb11 O53 2.428 . S
Tb11 O54 2.308 . S
Tb11 C75 2.802 . S
N12 C8 1.361 . S
N12 Tb11 2.572 . S
N12 C14 1.340 . S
C13 C7 1.416 1_556 S
C13 C15 1.332 1_556 S
C13 H21 0.931 . S
C14 N12 1.340 . S
C14 C15 1.407 1_455 S
C14 H20 0.930 . S
C15 C13 1.332 1_554 S
C15 C14 1.407 1_655 S
C15 H17 0.929 1_554 S
H16 C5 0.930 . S
H17 C15 0.929 1_556 S
H18 C33 0.930 . S
H19 C40 0.929 . S
H20 C14 0.930 . S
H21 C13 0.931 . S
H22 C36 0.930 . S
H23 C3 0.930 . S
H24 C9 0.929 1_556 S
H25 C10 0.930 . S
H26 C31 0.930 . S
H27 C6 0.930 . S
H28 C39 0.931 . S
N29 Tb0 2.617 . S
N29 C30 1.379 . S
N29 C33 1.334 . S
C30 N29 1.379 . S
C30 C32 1.416 . S
C30 C38 1.424 . S
C31 H26 0.930 . S
C31 C33 1.390 1_565 S
C31 C34 1.339 . S
C32 C30 1.416 . S
C32 C34 1.416 1_545 S
C32 C65 1.448 . S
C33 H18 0.930 . S
C33 N29 1.334 . S
C33 C31 1.390 1_545 S
C34 C31 1.339 . S
C34 C32 1.416 1_565 S
C34 H41 0.930 . S
N35 Tb0 2.572 . S
N35 C36 1.340 . S
N35 C38 1.361 . S
C36 H22 0.930 . S
C36 N35 1.340 . S
C36 C40 1.407 1_556 S
C37 C38 1.414 . S
C37 C39 1.416 1_556 S
C37 C66 1.425 1_556 S
C38 C30 1.424 . S
C38 N35 1.361 . S
C38 C37 1.414 . S
C39 H28 0.931 . S
C39 C37 1.416 1_554 S
C39 C40 1.332 . S
C40 H19 0.929 . S
C40 C36 1.407 1_554 S
C40 C39 1.332 . S
H41 C34 0.930 . S
H42 C65 0.930 1_565 S
H43 C66 0.929 . S
O44 Tb0 2.465 . S
O44 C64 1.264 . S
O45 Tb0 2.387 1_554 S
O45 C56 1.264 . S
O46 Tb11 2.349 . S
O46 C56 1.243 . S
O47 Tb0 2.428 . S
O47 C64 1.256 . S
O48 Tb0 2.308 . S
O48 C63 1.266 1_556 S
O49 Tb11 2.393 . S
O49 C63 1.248 . S
O50 Tb11 2.465 . S
O50 C75 1.264 . S
O51 Tb11 2.387 1_556 S
O51 C67 1.264 . S
O52 Tb0 2.349 . S
O52 C67 1.243 . S
O53 Tb11 2.428 . S
O53 C75 1.256 . S
O54 Tb11 2.308 . S
O54 C74 1.266 1_554 S
O55 Tb0 2.393 . S
O55 C74 1.248 . S
C56 O45 1.264 . S
C56 O46 1.243 . S
C57 C60 1.399 . S
C57 C62 1.383 . S
C57 C64 1.496 . S
C58 C59 1.399 . S
C58 C62 1.389 . S
C59 C58 1.399 . S
C59 C61 1.380 . S
C59 H76 0.929 . S
C60 C57 1.399 . S
C60 C61 1.392 . S
C60 H77 0.929 . S
C61 C59 1.380 . S
C61 C60 1.392 . S
C61 H78 0.929 . S
C62 C57 1.383 . S
C62 C58 1.389 . S
C62 H79 0.931 . S
C63 O48 1.266 1_554 S
C63 O49 1.248 . S
C64 Tb0 2.802 . S
C64 O44 1.264 . S
C64 O47 1.256 . S
C64 C57 1.496 . S
C65 C32 1.448 . S
C65 H42 0.930 1_545 S
C65 C66 1.328 1_556 S
C66 C37 1.425 1_554 S
C66 H43 0.929 . S
C66 C65 1.328 1_554 S
C67 O51 1.264 . S
C67 O52 1.243 . S
C68 C71 1.399 . S
C68 C72 1.383 . S
C68 C75 1.496 . S
C69 C70 1.399 . S
C69 C72 1.389 . S
C70 C69 1.399 . S
C70 C73 1.380 . S
C70 H80 0.929 . S
C71 C68 1.399 . S
C71 C73 1.392 . S
C71 H81 0.929 . S
C72 C68 1.383 . S
C72 C69 1.389 . S
C72 H82 0.931 . S
C73 C70 1.380 . S
C73 C71 1.392 . S
C73 H83 0.929 . S
C74 O54 1.266 1_556 S
C74 O55 1.248 . S
C75 Tb11 2.802 . S
C75 O50 1.264 . S
C75 O53 1.256 . S
C75 C68 1.496 . S
H76 C59 0.929 . S
H77 C60 0.929 . S
H78 C61 0.929 . S
H79 C62 0.931 . S
H80 C70 0.929 . S
H81 C71 0.929 . S
H82 C72 0.931 . S
H83 C73 0.929 . S
Tb84 N113 2.617 . S
Tb84 N119 2.572 . S
Tb84 O128 2.465 . S
Tb84 O129 2.387 1_556 S
Tb84 O131 2.428 . S
Tb84 O132 2.308 . S
Tb84 O136 2.349 . S
Tb84 O139 2.393 . S
Tb84 C148 2.802 . S
C85 N86 1.379 . S
C85 C88 1.416 . S
C85 C92 1.424 . S
N86 C85 1.379 . S
N86 C89 1.334 . S
N86 Tb95 2.617 . S
C87 C89 1.390 1_545 S
C87 C90 1.339 . S
C87 H107 0.930 . S
C88 C85 1.416 . S
C88 C90 1.416 1_565 S
C88 C94 1.448 . S
C89 N86 1.334 . S
C89 C87 1.390 1_565 S
C89 H100 0.930 . S
C90 C87 1.339 . S
C90 C88 1.416 1_545 S
C90 H111 0.930 . S
C91 C92 1.413 . S
C91 C93 1.427 . S
C91 C97 1.416 1_554 S
C92 C85 1.424 . S
C92 C91 1.413 . S
C92 N96 1.361 . S
C93 C91 1.427 . S
C93 C94 1.328 . S
C93 H108 0.929 1_554 S
C94 C88 1.448 . S
C94 C93 1.328 . S
C94 H109 0.930 1_565 S
Tb95 N86 2.617 . S
Tb95 N96 2.572 . S
Tb95 O130 2.349 . S
Tb95 O133 2.393 . S
Tb95 O134 2.465 . S
Tb95 O135 2.387 1_554 S
Tb95 O137 2.428 . S
Tb95 O138 2.308 . S
Tb95 C159 2.802 . S
N96 C92 1.361 . S
N96 Tb95 2.572 . S
N96 C98 1.340 . S
C97 C91 1.416 1_556 S
C97 C99 1.332 1_556 S
C97 H105 0.931 . S
C98 N96 1.340 . S
C98 C99 1.407 . S
C98 H104 0.930 . S
C99 C97 1.332 1_554 S
C99 C98 1.407 . S
C99 H101 0.929 1_554 S
H100 C89 0.930 . S
H101 C99 0.929 1_556 S
H102 C117 0.930 . S
H103 C124 0.929 . S
H104 C98 0.930 . S
H105 C97 0.931 . S
H106 C120 0.930 . S
H107 C87 0.930 . S
H108 C93 0.929 1_556 S
H109 C94 0.930 1_545 S
H110 C115 0.930 . S
H111 C90 0.930 . S
H112 C123 0.931 . S
N113 Tb84 2.617 . S
N113 C114 1.379 . S
N113 C117 1.334 . S
C114 N113 1.379 . S
C114 C116 1.416 . S
C114 C122 1.424 . S
C115 H110 0.930 . S
C115 C117 1.390 . S
C115 C118 1.339 . S
C116 C114 1.416 . S
C116 C118 1.416 . S
C116 C149 1.448 1_655 S
C117 H102 0.930 . S
C117 N113 1.334 . S
C117 C115 1.390 . S
C118 C115 1.339 . S
C118 C116 1.416 . S
C118 H125 0.930 . S
N119 Tb84 2.572 . S
N119 C120 1.340 . S
N119 C122 1.361 . S
C120 H106 0.930 . S
C120 N119 1.340 . S
C120 C124 1.407 1_656 S
C121 C122 1.414 1_455 S
C121 C123 1.416 1_556 S
C121 C150 1.425 1_556 S
C122 C114 1.424 . S
C122 N119 1.361 . S
C122 C121 1.414 1_655 S
C123 H112 0.931 . S
C123 C121 1.416 1_554 S
C123 C124 1.332 . S
C124 H103 0.929 . S
C124 C120 1.407 1_454 S
C124 C123 1.332 . S
H125 C118 0.930 . S
H126 C149 0.930 . S
H127 C150 0.929 . S
O128 Tb84 2.465 . S
O128 C148 1.264 . S
O129 Tb84 2.387 1_554 S
O129 C140 1.264 . S
O130 Tb95 2.349 . S
O130 C140 1.243 . S
O131 Tb84 2.428 . S
O131 C148 1.256 . S
O132 Tb84 2.308 . S
O132 C147 1.266 1_556 S
O133 Tb95 2.393 . S
O133 C147 1.248 . S
O134 Tb95 2.465 . S
O134 C159 1.264 . S
O135 Tb95 2.387 1_556 S
O135 C151 1.264 . S
O136 Tb84 2.349 . S
O136 C151 1.243 . S
O137 Tb95 2.428 . S
O137 C159 1.256 . S
O138 Tb95 2.308 . S
O138 C158 1.266 1_554 S
O139 Tb84 2.393 . S
O139 C158 1.248 . S
C140 O129 1.264 . S
C140 O130 1.243 . S
C141 C144 1.399 . S
C141 C146 1.383 . S
C141 C148 1.496 . S
C142 C143 1.399 . S
C142 C146 1.389 . S
C143 C142 1.399 . S
C143 C145 1.380 . S
C143 H160 0.929 . S
C144 C141 1.399 . S
C144 C145 1.392 . S
C144 H161 0.929 . S
C145 C143 1.380 . S
C145 C144 1.392 . S
C145 H162 0.929 . S
C146 C141 1.383 . S
C146 C142 1.389 . S
C146 H163 0.931 . S
C147 O132 1.266 1_554 S
C147 O133 1.248 . S
C148 Tb84 2.802 . S
C148 O128 1.264 . S
C148 O131 1.256 . S
C148 C141 1.496 . S
C149 C116 1.448 1_455 S
C149 H126 0.930 . S
C149 C150 1.328 1_556 S
C150 C121 1.425 1_554 S
C150 H127 0.929 . S
C150 C149 1.328 1_554 S
C151 O135 1.264 . S
C151 O136 1.243 . S
C152 C155 1.399 . S
C152 C156 1.383 . S
C152 C159 1.496 . S
C153 C154 1.399 . S
C153 C156 1.389 . S
C154 C153 1.399 . S
C154 C157 1.380 . S
C154 H164 0.929 . S
C155 C152 1.399 . S
C155 C157 1.392 . S
C155 H165 0.929 . S
C156 C152 1.383 . S
C156 C153 1.389 . S
C156 H166 0.931 . S
C157 C154 1.380 . S
C157 C155 1.392 . S
C157 H167 0.929 . S
C158 O138 1.266 1_556 S
C158 O139 1.248 . S
C159 Tb95 2.802 . S
C159 O134 1.264 . S
C159 O137 1.256 . S
C159 C152 1.496 . S
H160 C143 0.929 . S
H161 C144 0.929 . S
H162 C145 0.929 . S
H163 C146 0.931 . S
H164 C154 0.929 . S
H165 C155 0.929 . S
H166 C156 0.931 . S
H167 C157 0.929 . S
Tb168 N197 2.617 . S
Tb168 N203 2.572 . S
Tb168 O212 2.465 . S
Tb168 O213 2.387 . S
Tb168 O215 2.428 . S
Tb168 O216 2.308 . S
Tb168 O220 2.349 . S
Tb168 O223 2.393 . S
Tb168 C232 2.802 . S
C169 N170 1.379 . S
C169 C172 1.416 . S
C169 C176 1.424 . S
N170 C169 1.379 . S
N170 C173 1.334 . S
N170 Tb179 2.617 . S
C171 C173 1.390 . S
C171 C174 1.339 . S
C171 H191 0.930 . S
C172 C169 1.416 . S
C172 C174 1.416 . S
C172 C178 1.448 1_455 S
C173 N170 1.334 . S
C173 C171 1.390 . S
C173 H184 0.930 . S
C174 C171 1.339 . S
C174 C172 1.416 . S
C174 H195 0.930 . S
C175 C176 1.413 1_655 S
C175 C177 1.427 . S
C175 C181 1.416 . S
C176 C169 1.424 . S
C176 C175 1.413 1_455 S
C176 N180 1.361 . S
C177 C175 1.427 . S
C177 C178 1.328 . S
C177 H192 0.929 . S
C178 C172 1.448 1_655 S
C178 C177 1.328 . S
C178 H193 0.930 . S
Tb179 N170 2.617 . S
Tb179 N180 2.572 . S
Tb179 O214 2.349 . S
Tb179 O217 2.393 . S
Tb179 O218 2.465 . S
Tb179 O219 2.387 . S
Tb179 O221 2.428 . S
Tb179 O222 2.308 . S
Tb179 C243 2.802 . S
N180 C176 1.361 . S
N180 Tb179 2.572 . S
N180 C182 1.340 . S
C181 C175 1.416 . S
C181 C183 1.332 . S
C181 H189 0.931 . S
C182 N180 1.340 . S
C182 C183 1.407 1_455 S
C182 H188 0.930 . S
C183 C181 1.332 . S
C183 C182 1.407 1_655 S
C183 H185 0.929 . S
H184 C173 0.930 . S
H185 C183 0.929 . S
H186 C201 0.930 . S
H187 C208 0.929 . S
H188 C182 0.930 . S
H189 C181 0.931 . S
H190 C204 0.930 . S
H191 C171 0.930 . S
H192 C177 0.929 . S
H193 C178 0.930 . S
H194 C199 0.930 . S
H195 C174 0.930 . S
H196 C207 0.931 . S
N197 Tb168 2.617 . S
N197 C198 1.379 . S
N197 C201 1.334 . S
C198 N197 1.379 . S
C198 C200 1.416 . S
C198 C206 1.424 . S
C199 H194 0.930 . S
C199 C201 1.390 1_545 S
C199 C202 1.339 . S
C200 C198 1.416 . S
C200 C202 1.416 1_565 S
C200 C233 1.448 . S
C201 H186 0.930 . S
C201 N197 1.334 . S
C201 C199 1.390 1_565 S
C202 C199 1.339 . S
C202 C200 1.416 1_545 S
C202 H209 0.930 . S
N203 Tb168 2.572 . S
N203 C204 1.340 . S
N203 C206 1.361 . S
C204 H190 0.930 . S
C204 N203 1.340 . S
C204 C208 1.407 . S
C205 C206 1.413 . S
C205 C207 1.416 . S
C205 C234 1.427 . S
C206 C198 1.424 . S
C206 N203 1.361 . S
C206 C205 1.413 . S
C207 H196 0.931 . S
C207 C205 1.416 . S
C207 C208 1.332 . S
C208 H187 0.929 . S
C208 C204 1.407 . S
C208 C207 1.332 . S
H209 C202 0.930 . S
H210 C233 0.930 1_545 S
H211 C234 0.929 . S
O212 Tb168 2.465 . S
O212 C232 1.264 . S
O213 Tb168 2.387 . S
O213 C224 1.264 . S
O214 Tb179 2.349 . S
O214 C224 1.243 . S
O215 Tb168 2.428 . S
O215 C232 1.256 . S
O216 Tb168 2.308 . S
O216 C231 1.266 . S
O217 Tb179 2.393 . S
O217 C231 1.248 . S
O218 Tb179 2.465 . S
O218 C243 1.264 . S
O219 Tb179 2.387 . S
O219 C235 1.264 . S
O220 Tb168 2.349 . S
O220 C235 1.243 . S
O221 Tb179 2.428 . S
O221 C243 1.256 . S
O222 Tb179 2.308 . S
O222 C242 1.266 . S
O223 Tb168 2.393 . S
O223 C242 1.248 . S
C224 O213 1.264 . S
C224 O214 1.243 . S
C225 C228 1.399 . S
C225 C230 1.383 . S
C225 C232 1.496 . S
C226 C227 1.399 . S
C226 C230 1.389 . S
C227 C226 1.399 . S
C227 C229 1.380 . S
C227 H244 0.929 . S
C228 C225 1.399 . S
C228 C229 1.392 . S
C228 H245 0.929 . S
C229 C227 1.380 . S
C229 C228 1.392 . S
C229 H246 0.929 . S
C230 C225 1.383 . S
C230 C226 1.389 . S
C230 H247 0.931 . S
C231 O216 1.266 . S
C231 O217 1.248 . S
C232 Tb168 2.802 . S
C232 O212 1.264 . S
C232 O215 1.256 . S
C232 C225 1.496 . S
C233 C200 1.448 . S
C233 H210 0.930 1_565 S
C233 C234 1.328 . S
C234 C205 1.427 . S
C234 H211 0.929 . S
C234 C233 1.328 . S
C235 O219 1.264 . S
C235 O220 1.243 . S
C236 C239 1.399 . S
C236 C240 1.383 . S
C236 C243 1.496 . S
C237 C238 1.399 . S
C237 C240 1.389 . S
C238 C237 1.399 . S
C238 C241 1.380 . S
C238 H248 0.929 . S
C239 C236 1.399 . S
C239 C241 1.392 . S
C239 H249 0.929 . S
C240 C236 1.383 . S
C240 C237 1.389 . S
C240 H250 0.931 . S
C241 C238 1.380 . S
C241 C239 1.392 . S
C241 H251 0.929 . S
C242 O222 1.266 . S
C242 O223 1.248 . S
C243 Tb179 2.802 . S
C243 O218 1.264 . S
C243 O221 1.256 . S
C243 C236 1.496 . S
H244 C227 0.929 . S
H245 C228 0.929 . S
H246 C229 0.929 . S
H247 C230 0.931 . S
H248 C238 0.929 . S
H249 C239 0.929 . S
H250 C240 0.931 . S
H251 C241 0.929 . S
Tb252 N281 2.617 . S
Tb252 N287 2.572 . S
Tb252 O296 2.465 . S
Tb252 O297 2.387 . S
Tb252 O299 2.428 . S
Tb252 O300 2.308 . S
Tb252 O304 2.349 . S
Tb252 O307 2.393 . S
Tb252 C316 2.802 . S
C253 N254 1.379 . S
C253 C256 1.416 . S
C253 C260 1.424 . S
N254 C253 1.379 . S
N254 C257 1.334 . S
N254 Tb263 2.617 . S
C255 C257 1.390 1_565 S
C255 C258 1.339 . S
C255 H275 0.930 . S
C256 C253 1.416 . S
C256 C258 1.416 1_545 S
C256 C262 1.448 . S
C257 N254 1.334 . S
C257 C255 1.390 1_545 S
C257 H268 0.930 . S
C258 C255 1.339 . S
C258 C256 1.416 1_565 S
C258 H279 0.930 . S
C259 C260 1.413 . S
C259 C261 1.427 . S
C259 C265 1.416 . S
C260 C253 1.424 . S
C260 C259 1.413 . S
C260 N264 1.361 . S
C261 C259 1.427 . S
C261 C262 1.328 . S
C261 H276 0.929 . S
C262 C256 1.448 . S
C262 C261 1.328 . S
C262 H277 0.930 1_545 S
Tb263 N254 2.617 . S
Tb263 N264 2.572 . S
Tb263 O298 2.349 . S
Tb263 O301 2.393 . S
Tb263 O302 2.465 . S
Tb263 O303 2.387 . S
Tb263 O305 2.428 . S
Tb263 O306 2.308 . S
Tb263 C327 2.802 . S
N264 C260 1.361 . S
N264 Tb263 2.572 . S
N264 C266 1.340 . S
C265 C259 1.416 . S
C265 C267 1.332 . S
C265 H273 0.931 . S
C266 N264 1.340 . S
C266 C267 1.407 . S
C266 H272 0.930 . S
C267 C265 1.332 . S
C267 C266 1.407 . S
C267 H269 0.929 . S
H268 C257 0.930 . S
H269 C267 0.929 . S
H270 C285 0.930 . S
H271 C292 0.929 . S
H272 C266 0.930 . S
H273 C265 0.931 . S
H274 C288 0.930 . S
H275 C255 0.930 . S
H276 C261 0.929 . S
H277 C262 0.930 1_565 S
H278 C283 0.930 . S
H279 C258 0.930 . S
H280 C291 0.931 . S
N281 Tb252 2.617 . S
N281 C282 1.379 . S
N281 C285 1.334 . S
C282 N281 1.379 . S
C282 C284 1.416 . S
C282 C290 1.424 . S
C283 H278 0.930 . S
C283 C285 1.390 . S
C283 C286 1.339 . S
C284 C282 1.416 . S
C284 C286 1.416 . S
C284 C317 1.448 1_655 S
C285 H270 0.930 . S
C285 N281 1.334 . S
C285 C283 1.390 . S
C286 C283 1.339 . S
C286 C284 1.416 . S
C286 H293 0.930 . S
N287 Tb252 2.572 . S
N287 C288 1.340 . S
N287 C290 1.361 . S
C288 H274 0.930 . S
C288 N287 1.340 . S
C288 C292 1.407 1_655 S
C289 C290 1.413 1_455 S
C289 C291 1.416 . S
C289 C318 1.427 . S
C290 C282 1.424 . S
C290 N287 1.361 . S
C290 C289 1.413 1_655 S
C291 H280 0.931 . S
C291 C289 1.416 . S
C291 C292 1.332 . S
C292 H271 0.929 . S
C292 C288 1.407 1_455 S
C292 C291 1.332 . S
H293 C286 0.930 . S
H294 C317 0.930 . S
H295 C318 0.929 . S
O296 Tb252 2.465 . S
O296 C316 1.264 . S
O297 Tb252 2.387 . S
O297 C308 1.264 . S
O298 Tb263 2.349 . S
O298 C308 1.243 . S
O299 Tb252 2.428 . S
O299 C316 1.256 . S
O300 Tb252 2.308 . S
O300 C315 1.266 . S
O301 Tb263 2.393 . S
O301 C315 1.248 . S
O302 Tb263 2.465 . S
O302 C327 1.264 . S
O303 Tb263 2.387 . S
O303 C319 1.264 . S
O304 Tb252 2.349 . S
O304 C319 1.243 . S
O305 Tb263 2.428 . S
O305 C327 1.256 . S
O306 Tb263 2.308 . S
O306 C326 1.266 . S
O307 Tb252 2.393 . S
O307 C326 1.248 . S
C308 O297 1.264 . S
C308 O298 1.243 . S
C309 C312 1.399 . S
C309 C314 1.383 . S
C309 C316 1.496 . S
C310 C311 1.399 . S
C310 C314 1.389 . S
C311 C310 1.399 . S
C311 C313 1.380 . S
C311 H328 0.929 . S
C312 C309 1.399 . S
C312 C313 1.392 . S
C312 H329 0.929 . S
C313 C311 1.380 . S
C313 C312 1.392 . S
C313 H330 0.929 . S
C314 C309 1.383 . S
C314 C310 1.389 . S
C314 H331 0.931 . S
C315 O300 1.266 . S
C315 O301 1.248 . S
C316 Tb252 2.802 . S
C316 O296 1.264 . S
C316 O299 1.256 . S
C316 C309 1.496 . S
C317 C284 1.448 1_455 S
C317 H294 0.930 . S
C317 C318 1.328 . S
C318 C289 1.427 . S
C318 H295 0.929 . S
C318 C317 1.328 . S
C319 O303 1.264 . S
C319 O304 1.243 . S
C320 C323 1.399 . S
C320 C324 1.383 . S
C320 C327 1.496 . S
C321 C322 1.399 . S
C321 C324 1.389 . S
C322 C321 1.399 . S
C322 C325 1.380 . S
C322 H332 0.929 . S
C323 C320 1.399 . S
C323 C325 1.392 . S
C323 H333 0.929 . S
C324 C320 1.383 . S
C324 C321 1.389 . S
C324 H334 0.931 . S
C325 C322 1.380 . S
C325 C323 1.392 . S
C325 H335 0.929 . S
C326 O306 1.266 . S
C326 O307 1.248 . S
C327 Tb263 2.802 . S
C327 O302 1.264 . S
C327 O305 1.256 . S
C327 C320 1.496 . S
H328 C311 0.929 . S
H329 C312 0.929 . S
H330 C313 0.929 . S
H331 C314 0.931 . S
H332 C322 0.929 . S
H333 C323 0.929 . S
H334 C324 0.931 . S
H335 C325 0.929 . S
H336 C348 0.930 . S
H337 C350 0.930 . S
H338 C351 0.930 . S
H339 C355 0.959 1_554 S
H340 C355 0.959 . S
H341 C355 0.961 . S
H342 C356 0.960 . S
H343 C356 0.961 . S
H344 C356 0.959 . S
H345 C359 0.929 . S
H346 C360 0.931 . S
H347 C362 0.930 . S
C348 H336 0.930 . S
C348 C349 1.399 1_556 S
C348 C353 1.399 . S
C349 C348 1.399 1_554 S
C349 C350 1.376 . S
C350 H337 0.930 . S
C350 C349 1.376 . S
C350 C351 1.388 . S
C351 H338 0.930 . S
C351 C350 1.388 . S
C351 C352 1.390 . S
C352 C351 1.390 . S
C352 C353 1.394 1_554 S
C352 C358 1.465 . S
C353 C348 1.399 . S
C353 C352 1.394 1_556 S
C353 C354 1.516 . S
C354 C353 1.516 . S
C354 C355 1.502 . S
C354 C356 1.561 . S
C354 C357 1.526 . S
C355 H339 0.959 1_556 S
C355 H340 0.959 . S
C355 H341 0.961 . S
C355 C354 1.502 . S
C356 H342 0.960 . S
C356 H343 0.961 . S
C356 H344 0.959 . S
C356 C354 1.561 . S
C357 C354 1.526 . S
C357 C358 1.396 1_556 S
C357 C362 1.390 . S
C358 C352 1.465 . S
C358 C357 1.396 1_554 S
C358 C359 1.399 . S
C359 H345 0.929 . S
C359 C358 1.399 . S
C359 C360 1.385 . S
C360 H346 0.931 . S
C360 C359 1.385 . S
C360 C361 1.389 . S
C361 C360 1.389 . S
C361 C362 1.387 1_554 S
C362 H347 0.930 . S
C362 C357 1.390 . S
C362 C361 1.387 1_556 S
H363 C375 0.930 . S
H364 C377 0.930 . S
H365 C378 0.930 . S
H366 C382 0.959 . S
H367 C382 0.959 . S
H368 C382 0.961 . S
H369 C383 0.960 . S
H370 C383 0.961 . S
H371 C383 0.959 . S
H372 C386 0.929 . S
H373 C387 0.931 . S
H374 C389 0.930 . S
C375 H363 0.930 . S
C375 C376 1.399 . S
C375 C380 1.399 . S
C376 C375 1.399 . S
C376 C377 1.376 . S
C377 H364 0.930 . S
C377 C376 1.376 . S
C377 C378 1.388 . S
C378 H365 0.930 . S
C378 C377 1.388 . S
C378 C379 1.390 . S
C379 C378 1.390 . S
C379 C380 1.394 . S
C379 C385 1.465 . S
C380 C375 1.399 . S
C380 C379 1.394 . S
C380 C381 1.516 . S
C381 C380 1.516 . S
C381 C382 1.502 . S
C381 C383 1.561 . S
C381 C384 1.526 . S
C382 H366 0.959 . S
C382 H367 0.959 . S
C382 H368 0.961 . S
C382 C381 1.502 . S
C383 H369 0.960 . S
C383 H370 0.961 . S
C383 H371 0.959 . S
C383 C381 1.561 . S
C384 C381 1.526 . S
C384 C385 1.396 . S
C384 C389 1.390 . S
C385 C379 1.465 . S
C385 C384 1.396 . S
C385 C386 1.399 . S
C386 H372 0.929 . S
C386 C385 1.399 . S
C386 C387 1.385 . S
C387 H373 0.931 . S
C387 C386 1.385 . S
C387 C388 1.389 . S
C388 C387 1.389 . S
C388 C389 1.387 . S
C389 H374 0.930 . S
C389 C384 1.390 . S
C389 C388 1.387 . S
H390 C402 0.930 . S
H391 C404 0.930 . S
H392 C405 0.930 . S
H393 C409 0.959 1_565 S
H394 C409 0.959 1_565 S
H395 C409 0.961 . S
H396 C410 0.960 . S
H397 C410 0.961 . S
H398 C410 0.959 . S
H399 C413 0.929 . S
H400 C414 0.931 . S
H401 C416 0.930 . S
C402 H390 0.930 . S
C402 C403 1.399 1_554 S
C402 C407 1.399 . S
C403 C402 1.399 1_556 S
C403 C404 1.376 . S
C404 H391 0.930 . S
C404 C403 1.376 . S
C404 C405 1.388 . S
C405 H392 0.930 . S
C405 C404 1.388 . S
C405 C406 1.390 . S
C406 C405 1.390 . S
C406 C407 1.394 1_556 S
C406 C412 1.465 1_445 S
C407 C402 1.399 . S
C407 C406 1.394 1_554 S
C407 C408 1.516 1_455 S
C408 C407 1.516 1_655 S
C408 C409 1.501 1_655 S
C408 C410 1.562 . S
C408 C411 1.526 1_545 S
C409 H393 0.959 1_545 S
C409 H394 0.959 1_545 S
C409 H395 0.961 . S
C409 C408 1.501 1_455 S
C410 H396 0.960 . S
C410 H397 0.961 . S
C410 H398 0.959 . S
C410 C408 1.562 . S
C411 C408 1.526 1_565 S
C411 C412 1.396 1_554 S
C411 C416 1.390 . S
C412 C406 1.465 1_665 S
C412 C411 1.396 1_556 S
C412 C413 1.399 . S
C413 H399 0.929 . S
C413 C412 1.399 . S
C413 C414 1.385 . S
C414 H400 0.931 . S
C414 C413 1.385 . S
C414 C415 1.389 1_556 S
C415 C414 1.389 1_554 S
C415 C416 1.387 . S
C416 H401 0.930 . S
C416 C411 1.390 . S
C416 C415 1.387 . S
H417 C429 0.930 . S
H418 C431 0.930 . S
H419 C432 0.930 1_455 S
H420 C436 0.959 . S
H421 C436 0.959 . S
H422 C436 0.961 . S
H423 C437 0.960 1_655 S
H424 C437 0.961 . S
H425 C437 0.959 . S
H426 C440 0.929 . S
H427 C441 0.931 . S
H428 C443 0.930 . S
C429 H417 0.930 . S
C429 C430 1.399 . S
C429 C434 1.399 . S
C430 C429 1.399 . S
C430 C431 1.376 . S
C431 H418 0.930 . S
C431 C430 1.376 . S
C431 C432 1.388 . S
C432 H419 0.930 1_655 S
C432 C431 1.388 . S
C432 C433 1.390 . S
C433 C432 1.390 . S
C433 C434 1.394 . S
C433 C439 1.456 1_645 S
C434 C429 1.399 . S
C434 C433 1.394 . S
C434 C435 1.516 1_545 S
C435 C434 1.516 1_565 S
C435 C436 1.502 . S
C435 C437 1.561 1_655 S
C435 C438 1.526 1_655 S
C436 H420 0.959 . S
C436 H421 0.959 . S
C436 H422 0.961 . S
C436 C435 1.502 . S
C437 H423 0.960 1_455 S
C437 H424 0.961 . S
C437 H425 0.959 . S
C437 C435 1.561 1_455 S
C438 C435 1.526 1_455 S
C438 C439 1.404 . S
C438 C443 1.390 . S
C439 C433 1.456 1_465 S
C439 C438 1.404 . S
C439 C440 1.401 1_565 S
C440 H426 0.929 . S
C440 C439 1.401 1_545 S
C440 C441 1.385 1_545 S
C441 H427 0.931 . S
C441 C440 1.385 1_565 S
C441 C442 1.389 . S
C442 C441 1.389 . S
C442 C443 1.387 . S
C443 H428 0.930 . S
C443 C438 1.390 . S
C443 C442 1.387 . S
H444 C456 0.930 . S
H445 C458 0.930 . S
H446 C459 0.930 . S
H447 C463 0.959 . S
H448 C463 0.959 . S
H449 C463 0.961 . S
H450 C464 0.960 . S
H451 C464 0.961 . S
H452 C464 0.959 . S
H453 C467 0.929 . S
H454 C468 0.931 . S
H455 C470 0.930 . S
C456 H444 0.930 . S
C456 C457 1.399 . S
C456 C461 1.399 . S
C457 C456 1.399 . S
C457 C458 1.376 . S
C458 H445 0.930 . S
C458 C457 1.376 . S
C458 C459 1.388 . S
C459 H446 0.930 . S
C459 C458 1.388 . S
C459 C460 1.390 . S
C460 C459 1.390 . S
C460 C461 1.394 . S
C460 C466 1.465 . S
C461 C456 1.399 . S
C461 C460 1.394 . S
C461 C462 1.516 . S
C462 C461 1.516 . S
C462 C463 1.502 . S
C462 C464 1.561 . S
C462 C465 1.526 . S
C463 H447 0.959 . S
C463 H448 0.959 . S
C463 H449 0.961 . S
C463 C462 1.502 . S
C464 H450 0.960 . S
C464 H451 0.961 . S
C464 H452 0.959 . S
C464 C462 1.561 . S
C465 C462 1.526 . S
C465 C466 1.396 . S
C465 C470 1.390 . S
C466 C460 1.465 . S
C466 C465 1.396 . S
C466 C467 1.399 . S
C467 H453 0.929 . S
C467 C466 1.399 . S
C467 C468 1.385 . S
C468 H454 0.931 . S
C468 C467 1.385 . S
C468 C469 1.389 . S
C469 C468 1.389 . S
C469 C470 1.387 . S
C470 H455 0.930 . S
C470 C465 1.390 . S
C470 C469 1.387 . S
H471 C483 0.930 . S
H472 C485 0.930 . S
H473 C486 0.930 . S
H474 C490 0.959 . S
H475 C490 0.959 . S
H476 C490 0.961 . S
H477 C491 0.960 . S
H478 C491 0.961 . S
H479 C491 0.959 . S
H480 C494 0.929 . S
H481 C495 0.931 . S
H482 C497 0.930 . S
C483 H471 0.930 . S
C483 C484 1.399 . S
C483 C488 1.399 . S
C484 C483 1.399 . S
C484 C485 1.376 . S
C485 H472 0.930 . S
C485 C484 1.376 . S
C485 C486 1.388 . S
C486 H473 0.930 . S
C486 C485 1.388 . S
C486 C487 1.390 . S
C487 C486 1.390 . S
C487 C488 1.394 . S
C487 C493 1.465 . S
C488 C483 1.399 . S
C488 C487 1.394 . S
C488 C489 1.516 . S
C489 C488 1.516 . S
C489 C490 1.502 . S
C489 C491 1.561 . S
C489 C492 1.526 . S
C490 H474 0.959 . S
C490 H475 0.959 . S
C490 H476 0.961 . S
C490 C489 1.502 . S
C491 H477 0.960 . S
C491 H478 0.961 . S
C491 H479 0.959 . S
C491 C489 1.561 . S
C492 C489 1.526 . S
C492 C493 1.396 . S
C492 C497 1.390 . S
C493 C487 1.465 . S
C493 C492 1.396 . S
C493 C494 1.399 . S
C494 H480 0.929 . S
C494 C493 1.399 . S
C494 C495 1.385 . S
C495 H481 0.931 . S
C495 C494 1.385 . S
C495 C496 1.389 . S
C496 C495 1.389 . S
C496 C497 1.387 . S
C497 H482 0.930 . S
C497 C492 1.390 . S
C497 C496 1.387 . S
H498 C510 0.930 . S
H499 C512 0.930 . S
H500 C513 0.930 . S
H501 C517 0.959 . S
H502 C517 0.959 . S
H503 C517 0.961 . S
H504 C518 0.960 . S
H505 C518 0.961 . S
H506 C518 0.959 . S
H507 C521 0.929 . S
H508 C522 0.931 . S
H509 C524 0.930 . S
C510 H498 0.930 . S
C510 C511 1.399 . S
C510 C515 1.399 . S
C511 C510 1.399 . S
C511 C512 1.376 . S
C512 H499 0.930 . S
C512 C511 1.376 . S
C512 C513 1.388 . S
C513 H500 0.930 . S
C513 C512 1.388 . S
C513 C514 1.390 . S
C514 C513 1.390 . S
C514 C515 1.394 . S
C514 C520 1.465 . S
C515 C510 1.399 . S
C515 C514 1.394 . S
C515 C516 1.516 . S
C516 C515 1.516 . S
C516 C517 1.502 . S
C516 C518 1.561 . S
C516 C519 1.526 . S
C517 H501 0.959 . S
C517 H502 0.959 . S
C517 H503 0.961 . S
C517 C516 1.502 . S
C518 H504 0.960 . S
C518 H505 0.961 . S
C518 H506 0.959 . S
C518 C516 1.561 . S
C519 C516 1.526 . S
C519 C520 1.396 . S
C519 C524 1.390 . S
C520 C514 1.465 . S
C520 C519 1.396 . S
C520 C521 1.399 . S
C521 H507 0.929 . S
C521 C520 1.399 . S
C521 C522 1.385 . S
C522 H508 0.931 . S
C522 C521 1.385 . S
C522 C523 1.389 . S
C523 C522 1.389 . S
C523 C524 1.387 . S
C524 H509 0.930 . S
C524 C519 1.390 . S
C524 C523 1.387 . S
H525 C537 0.930 . S
H526 C539 0.930 . S
H527 C540 0.930 . S
H528 C544 0.959 . S
H529 C544 0.959 . S
H530 C544 0.961 . S
H531 C545 0.960 . S
H532 C545 0.961 . S
H533 C545 0.959 . S
H534 C548 0.929 . S
H535 C549 0.931 . S
H536 C551 0.930 . S
C537 H525 0.930 . S
C537 C538 1.399 . S
C537 C542 1.399 . S
C538 C537 1.399 . S
C538 C539 1.376 . S
C539 H526 0.930 . S
C539 C538 1.376 . S
C539 C540 1.388 . S
C540 H527 0.930 . S
C540 C539 1.388 . S
C540 C541 1.390 . S
C541 C540 1.390 . S
C541 C542 1.394 . S
C541 C547 1.465 . S
C542 C537 1.399 . S
C542 C541 1.394 . S
C542 C543 1.516 . S
C543 C542 1.516 . S
C543 C544 1.502 . S
C543 C545 1.561 . S
C543 C546 1.526 . S
C544 H528 0.959 . S
C544 H529 0.959 . S
C544 H530 0.961 . S
C544 C543 1.502 . S
C545 H531 0.960 . S
C545 H532 0.961 . S
C545 H533 0.959 . S
C545 C543 1.561 . S
C546 C543 1.526 . S
C546 C547 1.396 . S
C546 C551 1.390 . S
C547 C541 1.465 . S
C547 C546 1.396 . S
C547 C548 1.399 . S
C548 H534 0.929 . S
C548 C547 1.399 . S
C548 C549 1.385 . S
C549 H535 0.931 . S
C549 C548 1.385 . S
C549 C550 1.389 . S
C550 C549 1.389 . S
C550 C551 1.387 . S
C551 H536 0.930 . S
C551 C546 1.390 . S
C551 C550 1.387 . S
H552 C564 0.930 . S
H553 C566 0.930 . S
H554 C567 0.930 . S
H555 C571 0.959 . S
H556 C571 0.959 . S
H557 C571 0.961 . S
H558 C572 0.960 . S
H559 C572 0.961 . S
H560 C572 0.959 . S
H561 C575 0.929 . S
H562 C576 0.931 . S
H563 C578 0.930 . S
C564 H552 0.930 . S
C564 C565 1.399 . S
C564 C569 1.399 . S
C565 C564 1.399 . S
C565 C566 1.376 . S
C566 H553 0.930 . S
C566 C565 1.376 . S
C566 C567 1.388 . S
C567 H554 0.930 . S
C567 C566 1.388 . S
C567 C568 1.390 . S
C568 C567 1.390 . S
C568 C569 1.394 . S
C568 C574 1.465 . S
C569 C564 1.399 . S
C569 C568 1.394 . S
C569 C570 1.516 . S
C570 C569 1.516 . S
C570 C571 1.502 . S
C570 C572 1.561 . S
C570 C573 1.526 . S
C571 H555 0.959 . S
C571 H556 0.959 . S
C571 H557 0.961 . S
C571 C570 1.502 . S
C572 H558 0.960 . S
C572 H559 0.961 . S
C572 H560 0.959 . S
C572 C570 1.561 . S
C573 C570 1.526 . S
C573 C574 1.396 . S
C573 C578 1.390 . S
C574 C568 1.465 . S
C574 C573 1.396 . S
C574 C575 1.399 1_655 S
C575 H561 0.929 . S
C575 C574 1.399 1_455 S
C575 C576 1.385 . S
C576 H562 0.931 . S
C576 C575 1.385 . S
C576 C577 1.389 . S
C577 C576 1.389 . S
C577 C578 1.387 1_455 S
C578 H563 0.930 . S
C578 C573 1.390 . S
C578 C577 1.387 1_655 S
H579 C591 0.930 . S
H580 C593 0.930 . S
H581 C594 0.930 . S
H582 C598 0.959 . S
H583 C598 0.959 . S
H584 C598 0.961 . S
H585 C599 0.960 . S
H586 C599 0.961 . S
H587 C599 0.959 . S
H588 C602 0.929 . S
H589 C603 0.931 . S
H590 C605 0.930 . S
C591 H579 0.930 . S
C591 C592 1.399 . S
C591 C596 1.399 . S
C592 C591 1.399 . S
C592 C593 1.376 . S
C593 H580 0.930 . S
C593 C592 1.376 . S
C593 C594 1.388 . S
C594 H581 0.930 . S
C594 C593 1.388 . S
C594 C595 1.390 . S
C595 C594 1.390 . S
C595 C596 1.394 . S
C595 C601 1.465 . S
C596 C591 1.399 . S
C596 C595 1.394 . S
C596 C597 1.516 . S
C597 C596 1.516 . S
C597 C598 1.502 . S
C597 C599 1.561 . S
C597 C600 1.526 . S
C598 H582 0.959 . S
C598 H583 0.959 . S
C598 H584 0.961 . S
C598 C597 1.502 . S
C599 H585 0.960 . S
C599 H586 0.961 . S
C599 H587 0.959 . S
C599 C597 1.561 . S
C600 C597 1.526 . S
C600 C601 1.396 . S
C600 C605 1.390 . S
C601 C595 1.465 . S
C601 C600 1.396 . S
C601 C602 1.399 1_655 S
C602 H588 0.929 . S
C602 C601 1.399 1_455 S
C602 C603 1.385 . S
C603 H589 0.931 . S
C603 C602 1.385 . S
C603 C604 1.389 . S
C604 C603 1.389 . S
C604 C605 1.387 1_455 S
C605 H590 0.930 . S
C605 C600 1.390 . S
C605 C604 1.387 1_655 S
H606 C618 0.930 . S
H607 C620 0.930 . S
H608 C621 0.930 . S
H609 C625 0.959 1_655 S
H610 C625 0.959 . S
H611 C625 0.961 . S
H612 C626 0.960 . S
H613 C626 0.961 . S
H614 C626 0.959 . S
H615 C629 0.929 . S
H616 C630 0.931 . S
H617 C632 0.930 . S
C618 H606 0.930 . S
C618 C619 1.399 . S
C618 C623 1.399 . S
C619 C618 1.399 . S
C619 C620 1.376 . S
C620 H607 0.930 . S
C620 C619 1.376 . S
C620 C621 1.388 . S
C621 H608 0.930 . S
C621 C620 1.388 . S
C621 C622 1.390 . S
C622 C621 1.390 . S
C622 C623 1.394 . S
C622 C628 1.465 . S
C623 C618 1.399 . S
C623 C622 1.394 . S
C623 C624 1.516 . S
C624 C623 1.516 . S
C624 C625 1.502 . S
C624 C626 1.561 . S
C624 C627 1.526 . S
C625 H609 0.959 1_455 S
C625 H610 0.959 . S
C625 H611 0.961 . S
C625 C624 1.502 . S
C626 H612 0.960 . S
C626 H613 0.961 . S
C626 H614 0.959 . S
C626 C624 1.561 . S
C627 C624 1.526 . S
C627 C628 1.396 . S
C627 C632 1.390 . S
C628 C622 1.465 . S
C628 C627 1.396 . S
C628 C629 1.399 . S
C629 H615 0.929 . S
C629 C628 1.399 . S
C629 C630 1.385 . S
C630 H616 0.931 . S
C630 C629 1.385 . S
C630 C631 1.389 . S
C631 C630 1.389 . S
C631 C632 1.387 . S
C632 H617 0.930 . S
C632 C627 1.390 . S
C632 C631 1.387 . S
H633 C645 0.930 . S
H634 C647 0.930 . S
H635 C648 0.930 . S
H636 C652 0.959 1_655 S
H637 C652 0.959 1_655 S
H638 C652 0.961 . S
H639 C653 0.960 . S
H640 C653 0.961 . S
H641 C653 0.959 . S
H642 C656 0.929 . S
H643 C657 0.931 . S
H644 C659 0.930 1_655 S
C645 H633 0.930 . S
C645 C646 1.399 . S
C645 C650 1.399 . S
C646 C645 1.399 . S
C646 C647 1.376 . S
C647 H634 0.930 . S
C647 C646 1.376 . S
C647 C648 1.388 . S
C648 H635 0.930 . S
C648 C647 1.388 . S
C648 C649 1.390 . S
C649 C648 1.390 . S
C649 C650 1.394 . S
C649 C655 1.465 . S
C650 C645 1.399 . S
C650 C649 1.394 . S
C650 C651 1.516 . S
C651 C650 1.516 . S
C651 C652 1.502 . S
C651 C653 1.561 . S
C651 C654 1.526 . S
C652 H636 0.959 1_455 S
C652 H637 0.959 1_455 S
C652 H638 0.961 . S
C652 C651 1.502 . S
C653 H639 0.960 . S
C653 H640 0.961 . S
C653 H641 0.959 . S
C653 C651 1.561 . S
C654 C651 1.526 . S
C654 C655 1.396 . S
C654 C659 1.390 . S
C655 C649 1.465 . S
C655 C654 1.396 . S
C655 C656 1.399 . S
C656 H642 0.929 . S
C656 C655 1.399 . S
C656 C657 1.385 . S
C657 H643 0.931 . S
C657 C656 1.385 . S
C657 C658 1.389 . S
C658 C657 1.389 . S
C658 C659 1.387 . S
C659 H644 0.930 1_455 S
C659 C654 1.390 . S
C659 C658 1.387 . S
C349 C158 1.518 1_554 S
C361 C63 1.486 . S
C376 C231 1.497 . S
C388 C326 1.519 . S
C403 C74 1.481 . S
C415 C147 1.527 . S
C430 C315 1.509 . S
C442 C242 1.494 . S
C457 C321 1.180 . S
C469 C56 1.312 . S
C484 C153 1.172 . S
C496 C224 1.302 . S
C511 C151 1.322 . S
C523 C226 1.181 . S
C538 C319 1.313 . S
C550 C58 1.173 . S
C565 C140 1.327 . S
C577 C237 1.267 . S
C592 C308 1.327 . S
C604 C69 1.268 . S
C619 C310 1.192 1_455 S
C631 C67 1.298 . S
C646 C235 1.303 . S
C658 C142 1.290 1_455 S
