# Generated by pormake.
# Topology wjo, (5)-cn, num edge types: 1
# Building blocks:
#     Node 0, Type 0, BuildingBlock: XOMCOT_clean_sbu_0, # of connection points: 5
#     Node 1, Type 0, BuildingBlock: XOMCOT_clean_sbu_0, # of connection points: 5
#     Node 2, Type 0, BuildingBlock: XOMCOT_clean_sbu_0, # of connection points: 5
#     Node 3, Type 0, BuildingBlock: XOMCOT_clean_sbu_0, # of connection points: 5
#     Node 4, Type 0, BuildingBlock: XOMCOT_clean_sbu_0, # of connection points: 5
#     Node 5, Type 0, BuildingBlock: XOMCOT_clean_sbu_0, # of connection points: 5
#     Node 6, Type 0, BuildingBlock: XOMCOT_clean_sbu_0, # of connection points: 5
#     Node 7, Type 0, BuildingBlock: XOMCOT_clean_sbu_0, # of connection points: 5
#     Node 8, Type 0, BuildingBlock: XOMCOT_clean_sbu_0, # of connection points: 5
#     Node 9, Type 0, BuildingBlock: XOMCOT_clean_sbu_0, # of connection points: 5
#     Node 10, Type 0, BuildingBlock: XOMCOT_clean_sbu_0, # of connection points: 5
#     Node 11, Type 0, BuildingBlock: XOMCOT_clean_sbu_0, # of connection points: 5
#     Edge 12, Type (0, 0), BuildingBlock: AJUNOK_clean_linker_0, # of connection points: 2
#     Edge 13, Type (0, 0), BuildingBlock: AJUNOK_clean_linker_0, # of connection points: 2
#     Edge 14, Type (0, 0), BuildingBlock: AJUNOK_clean_linker_0, # of connection points: 2
#     Edge 15, Type (0, 0), BuildingBlock: AJUNOK_clean_linker_0, # of connection points: 2
#     Edge 16, Type (0, 0), BuildingBlock: AJUNOK_clean_linker_0, # of connection points: 2
#     Edge 17, Type (0, 0), BuildingBlock: AJUNOK_clean_linker_0, # of connection points: 2
#     Edge 18, Type (0, 0), BuildingBlock: AJUNOK_clean_linker_0, # of connection points: 2
#     Edge 19, Type (0, 0), BuildingBlock: AJUNOK_clean_linker_0, # of connection points: 2
#     Edge 20, Type (0, 0), BuildingBlock: AJUNOK_clean_linker_0, # of connection points: 2
#     Edge 21, Type (0, 0), BuildingBlock: AJUNOK_clean_linker_0, # of connection points: 2
#     Edge 22, Type (0, 0), BuildingBlock: AJUNOK_clean_linker_0, # of connection points: 2
#     Edge 23, Type (0, 0), BuildingBlock: AJUNOK_clean_linker_0, # of connection points: 2
#     Edge 24, Type (0, 0), BuildingBlock: AJUNOK_clean_linker_0, # of connection points: 2
#     Edge 25, Type (0, 0), BuildingBlock: AJUNOK_clean_linker_0, # of connection points: 2
#     Edge 26, Type (0, 0), BuildingBlock: AJUNOK_clean_linker_0, # of connection points: 2
#     Edge 27, Type (0, 0), BuildingBlock: AJUNOK_clean_linker_0, # of connection points: 2
#     Edge 28, Type (0, 0), BuildingBlock: AJUNOK_clean_linker_0, # of connection points: 2
#     Edge 29, Type (0, 0), BuildingBlock: AJUNOK_clean_linker_0, # of connection points: 2
#     Edge 30, Type (0, 0), BuildingBlock: AJUNOK_clean_linker_0, # of connection points: 2
#     Edge 31, Type (0, 0), BuildingBlock: AJUNOK_clean_linker_0, # of connection points: 2
#     Edge 32, Type (0, 0), BuildingBlock: AJUNOK_clean_linker_0, # of connection points: 2
#     Edge 33, Type (0, 0), BuildingBlock: AJUNOK_clean_linker_0, # of connection points: 2
#     Edge 34, Type (0, 0), BuildingBlock: AJUNOK_clean_linker_0, # of connection points: 2
#     Edge 35, Type (0, 0), BuildingBlock: AJUNOK_clean_linker_0, # of connection points: 2
#     Edge 36, Type (0, 0), BuildingBlock: AJUNOK_clean_linker_0, # of connection points: 2
#     Edge 37, Type (0, 0), BuildingBlock: AJUNOK_clean_linker_0, # of connection points: 2
#     Edge 38, Type (0, 0), BuildingBlock: AJUNOK_clean_linker_0, # of connection points: 2
#     Edge 39, Type (0, 0), BuildingBlock: AJUNOK_clean_linker_0, # of connection points: 2
#     Edge 40, Type (0, 0), BuildingBlock: AJUNOK_clean_linker_0, # of connection points: 2
#     Edge 41, Type (0, 0), BuildingBlock: AJUNOK_clean_linker_0, # of connection points: 2
# Relax obj value: 0.367
# Max RMSD: 0.211
# Mean RMSD: 0.210
data_MOF--net-wjo--node1-XOMCOT_clean_sbu_0--edge1-AJUNOK_clean_linker_0
_symmetry_space_group_name_H-M    P1
_symmetry_Int_Tables_number       1
_symmetry_cell_setting            triclinic
loop_
_symmetry_equiv_pos_as_xyz
'x, y, z'
_cell_length_a     35.698739
_cell_length_b     35.703272
_cell_length_c     23.019077
_cell_angle_alpha  89.847844
_cell_angle_beta   90.327626
_cell_angle_gamma 120.06205
loop_
_atom_site_label
_atom_site_type_symbol
_atom_site_fract_x
_atom_site_fract_y
_atom_site_fract_z
_atom_type_partial_charge
Co0 Co 0.27176 0.3675 0.98997 0.0
C1 C 0.29528 0.31986 0.90618 0.0
C2 C 0.22686 0.29362 0.90685 0.0
C3 C 0.23632 0.26853 0.87084 0.0
N4 N 0.26411 0.327 0.92758 0.0
N5 N 0.27958 0.28549 0.87007 0.0
H6 H 0.32829 0.33621 0.92148 0.0
H7 H 0.19477 0.28585 0.92 0.0
C8 C 0.18796 0.35749 0.93478 0.0
O9 O 0.19892 0.35668 0.88064 0.0
N10 N 0.28021 0.40645 0.05284 0.0
C11 C 0.31838 0.44003 0.07066 0.0
C12 C 0.31253 0.45387 0.1238 0.0
C13 C 0.25174 0.4002 0.09502 0.0
N14 N 0.2707 0.42884 0.13843 0.0
C15 C 0.34247 0.42671 0.9201 0.0
C16 C 0.32262 0.49217 0.92256 0.0
C17 C 0.36418 0.50182 0.90549 0.0
C18 C 0.37313 0.46804 0.90203 0.0
C19 C 0.29198 0.44956 0.93849 0.0
N20 N 0.30279 0.41777 0.93953 0.0
H21 H 0.35308 0.40365 0.9246 0.0
H22 H 0.26142 0.44341 0.95607 0.0
H23 H 0.34883 0.45177 0.04834 0.0
H24 H 0.21879 0.37338 0.09599 0.0
O25 O 0.32023 0.36363 0.0203 0.0
O26 O 0.25143 0.32092 0.04466 0.0
O27 O 0.21354 0.36224 0.97649 0.0
C28 C 0.29187 0.33286 0.0533 0.0
H29 H 0.21304 0.23899 0.84918 0.0
H30 H 0.33729 0.47879 0.15094 0.0
H31 H 0.31468 0.51762 0.92646 0.0
H32 H 0.4052 0.4743 0.89071 0.0
Co33 Co 0.925 0.27123 0.14897 0.0
C34 C 1.00163 0.2901 0.07632 0.0
C35 C 0.94202 0.25613 0.02882 0.0
C36 C 0.97588 0.26774 0.99088 0.0
N37 N 0.95809 0.27015 0.08251 0.0
N38 N 1.01351 0.28959 0.02056 0.0
H39 H 1.02419 0.30531 0.11174 0.0
H40 H 0.90807 0.24052 0.01734 0.0
C41 C 0.83519 0.19188 0.14282 0.0
O42 O 0.81826 0.21204 0.17017 0.0
N43 N 0.89353 0.27406 0.21559 0.0
C44 C 0.89124 0.30885 0.23308 0.0
C45 C 0.87296 0.30073 0.28738 0.0
C46 C 0.87799 0.24591 0.26035 0.0
N47 N 0.86464 0.26114 0.30457 0.0
C48 C 0.94261 0.34813 0.09173 0.0
C49 C 0.85884 0.33244 0.08216 0.0
C50 C 0.89323 0.37507 0.076 0.0
C51 C 0.9355 0.38211 0.07792 0.0
C52 C 0.86748 0.29907 0.09556 0.0
N53 N 0.90902 0.30785 0.10428 0.0
H54 H 0.9756 0.35514 0.09673 0.0
H55 H 0.84064 0.26712 0.10152 0.0
H56 H 0.90372 0.33887 0.20929 0.0
H57 H 0.87603 0.21471 0.25965 0.0
O58 O 0.97631 0.31679 0.18554 0.0
O59 O 0.95108 0.24673 0.1988 0.0
O60 O 0.87393 0.21326 0.12297 0.0
C61 C 0.97882 0.28638 0.21349 0.0
H62 H 0.97298 0.26219 0.94445 0.0
H63 H 0.86752 0.32293 0.31301 0.0
H64 H 0.8256 0.3252 0.07858 0.0
H65 H 0.96317 0.41428 0.0727 0.0
Co66 Co 0.67421 0.91485 0.31841 0.0
C67 C 0.7277 0.99427 0.24867 0.0
C68 C 0.72563 0.939 0.20918 0.0
C69 C 0.74997 0.97483 0.17453 0.0
N70 N 0.71175 0.95124 0.25594 0.0
N71 N 0.7511 1.00951 0.19952 0.0
H72 H 0.72211 1.01435 0.27838 0.0
H73 H 0.71796 0.90624 0.19993 0.0
C74 C 0.66755 0.82689 0.3131 0.0
O75 O 0.62947 0.8088 0.33808 0.0
N76 N 0.63724 0.88065 0.38194 0.0
C77 C 0.59632 0.87139 0.39295 0.0
C78 C 0.58398 0.85128 0.44622 0.0
C79 C 0.64981 0.86783 0.42986 0.0
N80 N 0.61778 0.84946 0.469 0.0
C81 C 0.6154 0.92996 0.25468 0.0
C82 C 0.55059 0.84503 0.2405 0.0
C83 C 0.54056 0.87809 0.23342 0.0
C84 C 0.57425 0.92101 0.23743 0.0
C85 C 0.59283 0.85556 0.25662 0.0
N86 N 0.62368 0.89752 0.26809 0.0
H87 H 0.63969 0.96331 0.26199 0.0
H88 H 0.59934 0.82967 0.26312 0.0
H89 H 0.57712 0.87993 0.36544 0.0
H90 H 0.68167 0.87171 0.43593 0.0
O91 O 0.67502 0.96373 0.35428 0.0
O92 O 0.72201 0.94196 0.37285 0.0
O93 O 0.68509 0.86604 0.2945 0.0
C94 C 0.70761 0.96806 0.38501 0.0
H95 H 0.76444 0.97499 0.13328 0.0
H96 H 0.55309 0.83986 0.46729 0.0
H97 H 0.52571 0.8114 0.23584 0.0
H98 H 0.56819 0.94764 0.2316 0.0
Co99 Co 0.77739 0.66375 0.49612 0.0
C100 C 0.75455 0.71863 0.42424 0.0
C101 C 0.80944 0.71764 0.38901 0.0
C102 C 0.79927 0.74254 0.35327 0.0
N103 N 0.7814 0.70272 0.43376 0.0
N104 N 0.76464 0.74296 0.37558 0.0
H105 H 0.72765 0.71232 0.45194 0.0
H106 H 0.83495 0.71028 0.38174 0.0
C107 C 0.85623 0.65244 0.49186 0.0
O108 O 0.83458 0.61456 0.51725 0.0
N109 N 0.77153 0.6252 0.55914 0.0
C110 C 0.73631 0.58676 0.57158 0.0
C111 C 0.74147 0.57391 0.62602 0.0
C112 C 0.79685 0.63581 0.60692 0.0
N113 N 0.77973 0.60472 0.64793 0.0
C114 C 0.7027 0.60677 0.43196 0.0
C115 C 0.7213 0.54115 0.41634 0.0
C116 C 0.67844 0.53194 0.4094 0.0
C117 C 0.66996 0.56606 0.41422 0.0
C118 C 0.75349 0.58288 0.4332 0.0
N119 N 0.74319 0.61414 0.44517 0.0
H120 H 0.69428 0.6314 0.4398 0.0
H121 H 0.78573 0.58878 0.43922 0.0
H122 H 0.70768 0.57031 0.54463 0.0
H123 H 0.82713 0.66594 0.61159 0.0
O124 O 0.73018 0.66685 0.53129 0.0
O125 O 0.79949 0.71107 0.55119 0.0
O126 O 0.83643 0.672 0.47361 0.0
C127 C 0.75923 0.69832 0.56277 0.0
H128 H 0.81519 0.75785 0.31304 0.0
H129 H 0.71781 0.54524 0.64871 0.0
H130 H 0.72953 0.51602 0.41081 0.0
H131 H 0.63747 0.56064 0.40853 0.0
Co132 Co 0.1363 0.76385 0.66183 0.0
C133 C 0.05494 0.73834 0.59615 0.0
C134 C 0.10905 0.79226 0.55573 0.0
C135 C 0.07242 0.78095 0.5227 0.0
N136 N 0.09809 0.7655 0.60199 0.0
N137 N 0.03863 0.74671 0.54792 0.0
H138 H 0.03562 0.7125 0.62617 0.0
H139 H 0.14145 0.81773 0.5456 0.0
C140 C 0.22465 0.84414 0.65059 0.0
O141 O 0.24434 0.82495 0.67372 0.0
N142 N 0.17249 0.76081 0.72251 0.0
C143 C 0.17608 0.72607 0.73686 0.0
C144 C 0.19661 0.73351 0.78991 0.0
C145 C 0.18945 0.7881 0.76795 0.0
N146 N 0.20515 0.77268 0.80914 0.0
C147 C 0.11464 0.68777 0.59931 0.0
C148 C 0.19767 0.70274 0.58333 0.0
C149 C 0.16261 0.6607 0.57603 0.0
C150 C 0.12069 0.65396 0.58142 0.0
C151 C 0.19006 0.7362 0.59979 0.0
N152 N 0.14902 0.72773 0.61146 0.0
H153 H 0.08211 0.68051 0.6084 0.0
H154 H 0.2174 0.7677 0.60706 0.0
H155 H 0.16223 0.69618 0.71253 0.0
H156 H 0.18955 0.81839 0.77115 0.0
O157 O 0.08797 0.71813 0.70285 0.0
O158 O 0.11431 0.78833 0.71722 0.0
O159 O 0.18532 0.82168 0.63284 0.0
C160 C 0.08749 0.74873 0.73288 0.0
H161 H 0.07096 0.79583 0.48236 0.0
H162 H 0.20228 0.71071 0.8139 0.0
H163 H 0.23057 0.70926 0.57865 0.0
H164 H 0.0927 0.62193 0.57629 0.0
Co165 Co 0.38249 0.12697 0.81942 0.0
C166 C 0.32588 0.04299 0.75909 0.0
C167 C 0.32756 0.09621 0.7135 0.0
C168 C 0.30256 0.05887 0.68202 0.0
N169 N 0.34219 0.08633 0.76206 0.0
N170 N 0.3017 0.02551 0.71069 0.0
H171 H 0.33244 0.02454 0.79074 0.0
H172 H 0.33565 0.12848 0.70037 0.0
C173 C 0.38512 0.21279 0.80287 0.0
O174 O 0.42418 0.23486 0.82509 0.0
N175 N 0.42223 0.16607 0.87749 0.0
C176 C 0.46213 0.17289 0.89019 0.0
C177 C 0.47598 0.1956 0.94149 0.0
C178 C 0.41181 0.18327 0.92237 0.0
N179 N 0.44434 0.20224 0.96132 0.0
C180 C 0.43653 0.10725 0.75349 0.0
C181 C 0.50395 0.19079 0.73811 0.0
C182 C 0.51141 0.15616 0.73012 0.0
C183 C 0.47649 0.11401 0.73497 0.0
C184 C 0.46271 0.18247 0.75507 0.0
N185 N 0.43053 0.14114 0.76671 0.0
H186 H 0.41166 0.07451 0.7627 0.0
H187 H 0.45838 0.20949 0.76358 0.0
H188 H 0.47903 0.16005 0.86592 0.0
H189 H 0.38021 0.18003 0.92771 0.0
O190 O 0.38433 0.08114 0.8616 0.0
O191 O 0.33771 0.10382 0.87735 0.0
O192 O 0.369 0.17273 0.78957 0.0
C193 C 0.35324 0.07924 0.89307 0.0
H194 H 0.28785 0.05675 0.64 0.0
H195 H 0.50631 0.20514 0.96357 0.0
H196 H 0.53015 0.22388 0.73404 0.0
H197 H 0.48092 0.08635 0.72938 0.0
Co198 Co 0.66794 0.75832 0.8408 0.0
C199 C 0.72986 0.74326 0.91153 0.0
C200 C 0.69701 0.76797 0.96265 0.0
C201 C 0.72179 0.75829 -0.00074 0.0
N202 N 0.70193 0.75847 0.90755 0.0
N203 N 0.74255 0.74295 0.967 0.0
H204 H 0.73943 0.73084 0.87523 0.0
H205 H 0.67555 0.77959 0.97562 0.0
C206 C 0.65681 0.83674 0.84711 0.0
O207 O 0.61931 0.81527 0.82041 0.0
N208 N 0.63379 0.75651 0.77374 0.0
C209 C 0.59379 0.72451 0.75913 0.0
C210 C 0.5828 0.73379 0.7059 0.0
C211 C 0.64714 0.78399 0.72807 0.0
N212 N 0.61625 0.7713 0.68657 0.0
C213 C 0.60475 0.68048 0.8922 0.0
C214 C 0.54159 0.70254 0.90828 0.0
C215 C 0.52956 0.65871 0.90565 0.0
C216 C 0.56214 0.648 0.90152 0.0
C217 C 0.58503 0.73427 0.8988 0.0
N218 N 0.61504 0.72256 0.88519 0.0
H219 H 0.62889 0.67117 0.88556 0.0
H220 H 0.59345 0.76757 0.89981 0.0
H221 H 0.57417 0.69571 0.78435 0.0
H222 H 0.67912 0.81217 0.72502 0.0
O223 O 0.67241 0.7122 0.80437 0.0
O224 O 0.71853 0.78206 0.7915 0.0
O225 O 0.67593 0.81671 0.86619 0.0
C226 C 0.70565 0.74225 0.77682 0.0
H227 H 0.72407 0.76184 0.04605 0.0
H228 H 0.55256 0.71422 0.68298 0.0
H229 H 0.51741 0.71206 0.91385 0.0
H230 H 0.55428 0.61448 0.90163 0.0
Co231 Co 0.93625 0.67405 0.00884 0.0
C232 C 1.01196 0.73206 0.08314 0.0
C233 C 0.95239 0.71173 0.12778 0.0
C234 C 0.98636 0.73531 0.1658 0.0
N235 N 0.9684 0.7097 0.0757 0.0
N236 N 1.02386 0.74779 0.13769 0.0
H237 H 0.03486 0.73536 0.05023 0.0
H238 H 0.91845 0.69595 0.13838 0.0
C239 C 0.85399 0.67769 0.04898 0.0
O240 O 0.84196 0.65016 0.09236 0.0
N241 N 0.90561 0.63839 0.94258 0.0
C242 C 0.91015 0.6055 0.92237 0.0
C243 C 0.88617 0.58988 0.8724 0.0
C244 C 0.87912 0.64256 0.90454 0.0
N245 N 0.86638 0.61294 0.86148 0.0
C246 C 0.94182 0.61402 0.08265 0.0
C247 C 0.85989 0.54575 0.05835 0.0
C248 C 0.89183 0.53702 0.07862 0.0
C249 C 0.93239 0.57178 0.09386 0.0
C250 C 0.87072 0.58876 0.04764 0.0
N251 N 0.91215 0.62196 0.05632 0.0
H252 H 0.9748 0.63989 0.08844 0.0
H253 H 0.84746 0.59458 0.02517 0.0
H254 H 0.93049 0.59439 0.94192 0.0
H255 H 0.86999 0.6671 0.90757 0.0
O256 O 0.98713 0.67364 0.98111 0.0
O257 O 0.9678 0.72193 0.95734 0.0
O258 O 0.88787 0.68698 0.02001 0.0
C259 C 0.99353 0.7066 0.9492 0.0
H260 H 0.98351 0.7426 0.2106 0.0
H261 H 0.88519 0.56491 0.84484 0.0
H262 H 0.82827 0.51957 0.0457 0.0
H263 H 0.95783 0.56618 0.10963 0.0
Co264 Co 0.28841 0.92795 0.16884 0.0
C265 C 0.3133 0.99664 0.25746 0.0
C266 C 0.24488 0.95376 0.25744 0.0
C267 C 0.25458 0.98794 0.29438 0.0
N268 N 0.28191 0.95866 0.23491 0.0
N269 N 0.2977 1.01519 0.29384 0.0
H270 H 0.34669 1.01212 0.24465 0.0
H271 H 0.21266 0.92928 0.24458 0.0
C272 C 0.20256 0.85171 0.21762 0.0
O273 O 0.21493 0.85553 0.27219 0.0
N274 N 0.29613 0.89937 0.10282 0.0
C275 C 0.33421 0.90475 0.0841 0.0
C276 C 0.32716 0.88175 0.03356 0.0
C277 C 0.26647 0.87349 0.06341 0.0
N278 N 0.28451 0.86186 0.02086 0.0
C279 C 0.35902 0.93446 0.2344 0.0
C280 C 0.33658 0.84877 0.22162 0.0
C281 C 0.37966 0.87963 0.23452 0.0
C282 C 0.38998 0.92234 0.24421 0.0
C283 C 0.30607 0.86229 0.21282 0.0
N284 N 0.31824 0.90523 0.21591 0.0
H285 H 0.3701 0.96842 0.23428 0.0
H286 H 0.27443 0.83907 0.19626 0.0
H287 H 0.36518 0.92509 0.10489 0.0
H288 H 0.23265 0.86413 0.06512 0.0
O289 O 0.33782 0.98113 0.1416 0.0
O290 O 0.26931 0.95752 0.11776 0.0
O291 O 0.22881 0.87625 0.17888 0.0
C292 C 0.30984 0.98587 0.11046 0.0
H293 H 0.23138 0.99399 0.3163 0.0
H294 H 0.35189 0.88149 0.0069 0.0
H295 H 0.32751 0.81541 0.2134 0.0
H296 H 0.42298 0.94709 0.25404 0.0
Co297 Co 0.38021 0.27203 0.33134 0.0
C298 C 0.33221 0.29273 0.41781 0.0
C299 C 0.30825 0.2247 0.41535 0.0
C300 C 0.28225 0.23252 0.45169 0.0
N301 N 0.34067 0.26272 0.39537 0.0
N302 N 0.29757 0.27552 0.4534 0.0
H303 H 0.3476 0.32582 0.40321 0.0
H304 H 0.30144 0.19312 0.40101 0.0
C305 C 0.37413 0.18922 0.38425 0.0
O306 O 0.37412 0.19975 0.43887 0.0
N307 N 0.41828 0.28215 0.26677 0.0
C308 C 0.45183 0.32071 0.25033 0.0
C309 C 0.46591 0.316 0.19678 0.0
C310 C 0.41197 0.25469 0.22296 0.0
N311 N 0.44086 0.27456 0.18025 0.0
C312 C 0.44008 0.34497 0.3974 0.0
C313 C 0.50684 0.32703 0.392 0.0
C314 C 0.51643 0.3695 0.40342 0.0
C315 C 0.48219 0.37755 0.40944 0.0
C316 C 0.46374 0.29487 0.38073 0.0
N317 N 0.4313 0.30479 0.38025 0.0
H318 H 0.41587 0.35426 0.39463 0.0
H319 H 0.45758 0.26373 0.36533 0.0
H320 H 0.46375 0.35064 0.27417 0.0
H321 H 0.38523 0.22177 0.22068 0.0
O322 O 0.37321 0.31901 0.30241 0.0
O323 O 0.33222 0.24977 0.27846 0.0
O324 O 0.37758 0.21492 0.34344 0.0
C325 C 0.34223 0.2897 0.27031 0.0
H326 H 0.25291 0.2082 0.47242 0.0
H327 H 0.49128 0.34122 0.17092 0.0
H328 H 0.5326 0.31968 0.3867 0.0
H329 H 0.48835 0.40996 0.4183 0.0
Co330 Co 0.12409 0.36257 0.50159 0.0
C331 C 0.04452 0.30934 0.57047 0.0
C332 C 0.09813 0.30541 0.60561 0.0
C333 C 0.06245 0.28137 0.6403 0.0
N334 N 0.08688 0.32303 0.56169 0.0
N335 N 0.02904 0.28445 0.61843 0.0
H336 H 1.02518 0.31754 0.54265 0.0
H337 H 0.13013 0.31014 0.61305 0.0
C338 C 0.21305 0.37132 0.51395 0.0
O339 O 0.2322 0.40982 0.48989 0.0
N340 N 0.15958 0.40178 0.44095 0.0
C341 C 0.16414 0.44081 0.42845 0.0
C342 C 0.18553 0.45506 0.37652 0.0
C343 C 0.17676 0.39214 0.39533 0.0
N344 N 0.19366 0.42453 0.35615 0.0
C345 C 0.10523 0.41934 0.56251 0.0
C346 C 0.18941 0.48609 0.57593 0.0
C347 C 0.15565 0.49541 0.57604 0.0
C348 C 0.11307 0.46092 0.57396 0.0
C349 C 0.17998 0.44348 0.56504 0.0
N350 N 0.13851 0.41169 0.5528 0.0
H351 H 0.07223 0.39443 0.55474 0.0
H352 H 0.2064 0.43745 0.56186 0.0
H353 H 0.15094 0.45696 0.45358 0.0
H354 H 0.17552 0.36142 0.39003 0.0
O355 O 0.0754 0.36085 0.46238 0.0
O356 O 0.09999 0.31596 0.4453 0.0
O357 O 0.17305 0.35291 0.52851 0.0
C358 C 0.07336 0.32945 0.43147 0.0
H359 H 0.06143 0.264 0.67944 0.0
H360 H 0.19354 0.48503 0.35466 0.0
H361 H 0.22279 0.51181 0.57948 0.0
H362 H 0.08599 0.4666 0.57611 0.0
Co363 Co 0.77027 0.11341 0.67045 0.0
C364 C 0.74224 0.03448 0.74183 0.0
C365 C 0.80017 0.08776 0.77671 0.0
C366 C 0.78845 0.05177 0.81116 0.0
N367 N 0.77109 0.07689 0.7331 0.0
N368 N 0.75173 0.01851 0.78939 0.0
H369 H 0.71497 1.01523 0.71355 0.0
H370 H 0.82803 0.1195 0.78346 0.0
C371 C 0.84915 0.20286 0.68125 0.0
O372 O 0.82837 0.22029 0.6563 0.0
N373 N 0.76808 0.14783 0.60664 0.0
C374 C 0.73387 0.15156 0.58982 0.0
C375 C 0.7423 0.17081 0.53594 0.0
C376 C 0.79625 0.1638 0.56212 0.0
N377 N 0.78152 0.17837 0.51844 0.0
C378 C 0.69294 0.09596 0.72542 0.0
C379 C 0.71199 0.18058 0.73824 0.0
C380 C 0.66857 0.14755 0.73563 0.0
C381 C 0.65946 0.10467 0.73375 0.0
C382 C 0.74481 0.17026 0.73023 0.0
N383 N 0.73458 0.1287 0.71799 0.0
H384 H 0.68442 0.06276 0.71866 0.0
H385 H 0.77771 0.19606 0.73068 0.0
H386 H 0.70383 0.13898 0.61331 0.0
H387 H 0.82702 0.16483 0.56247 0.0
O388 O 0.72383 0.06432 0.63192 0.0
O389 O 0.79352 0.08819 0.6173 0.0
O390 O 0.82856 0.16313 0.69763 0.0
C391 C 0.75346 0.06187 0.60252 0.0
H392 H 0.80526 0.05031 0.84961 0.0
H393 H 0.72041 0.17708 0.51059 0.0
H394 H 0.72037 0.21411 0.7423 0.0
H395 H 0.62635 0.07808 0.73418 0.0
C396 C 0.20392 0.44201 0.25189 0.0
C397 C 0.2133 0.42516 0.30168 0.0
C398 C 0.22278 0.44303 0.19835 0.0
C399 C 0.25188 0.42775 0.19332 0.0
H400 H 0.18144 0.45395 0.25428 0.0
H401 H 0.21498 0.45609 0.16069 0.0
S402 S 0.28771 0.38101 0.30979 0.0
N403 N 0.25399 0.39318 0.34225 0.0
N404 N 0.28939 0.39528 0.24106 0.0
C405 C 0.26169 0.41095 0.24236 0.0
C406 C 0.24231 0.40954 0.29679 0.0
C407 C 0.81476 0.24888 0.38546 0.0
C408 C 0.84455 0.2398 0.35837 0.0
C409 C 0.79448 0.22869 0.43741 0.0
C410 C 0.80277 0.1982 0.46449 0.0
H411 H 0.80663 0.27157 0.36611 0.0
H412 H 0.77241 0.23747 0.45681 0.0
S413 S 0.87794 0.16241 0.41123 0.0
N414 N 0.88233 0.19896 0.36355 0.0
N415 N 0.84197 0.15875 0.45899 0.0
C416 C 0.83219 0.18835 0.43762 0.0
C417 C 0.8535 0.20958 0.38507 0.0
C418 C 0.59686 0.78563 0.52958 0.0
C419 C 0.61896 0.83069 0.5234 0.0
C420 C 0.59676 0.76654 0.58281 0.0
C421 C 0.61843 0.79196 0.6318 0.0
H422 H 0.57969 0.76518 0.49284 0.0
H423 H 0.57968 0.73158 0.58555 0.0
S424 S 0.67917 0.91213 0.63744 0.0
N425 N 0.66236 0.90058 0.56934 0.0
N426 N 0.66126 0.86508 0.6705 0.0
C427 C 0.64058 0.83736 0.62586 0.0
C428 C 0.641 0.85665 0.57131 0.0
C429 C 0.82393 0.64521 0.73276 0.0
C430 C 0.79836 0.60556 0.70389 0.0
C431 C 0.84491 0.64725 0.78522 0.0
C432 C 0.84116 0.60971 0.81074 0.0
H433 H 0.82808 0.675 0.7144 0.0
H434 H 0.86535 0.67863 0.80486 0.0
S435 S 0.77549 0.49751 0.75508 0.0
N436 N 0.76929 0.52772 0.70589 0.0
N437 N 0.80723 0.53135 0.80574 0.0
C438 C 0.81431 0.56967 0.7836 0.0
C439 C 0.7932 0.56762 0.72995 0.0
C440 C 0.2101 0.81871 0.89183 0.0
C441 C 0.22414 0.79297 0.86382 0.0
C442 C 0.22936 0.84039 0.94366 0.0
C443 C 0.26342 0.83716 0.96949 0.0
H444 H 0.18402 0.82222 0.87354 0.0
H445 H 0.21818 0.86067 0.9628 0.0
S446 S 0.3107 0.77212 0.91522 0.0
N447 N 0.27365 0.76486 0.86631 0.0
N448 N 0.3087 0.80422 0.96506 0.0
C449 C 0.277 0.8106 0.94283 0.0
C450 C 0.25756 0.78874 0.88978 0.0
C451 C 0.46199 0.21373 0.06573 0.0
C452 C 0.44346 0.2211 0.01599 0.0
C453 C 0.46082 0.23118 0.11963 0.0
C454 C 0.44136 0.25664 0.12518 0.0
H455 H 0.47689 0.19381 0.06312 0.0
H456 H 0.47531 0.22501 0.1572 0.0
S457 S 0.38923 0.28662 0.00907 0.0
N458 N 0.40579 0.25648 0.97603 0.0
N459 N 0.40358 0.28898 0.07796 0.0
C460 C 0.42293 0.26453 0.07623 0.0
C461 C 0.42391 0.24672 0.02137 0.0
C462 C 0.28668 0.2225 0.83992 0.0
C463 C 0.30411 0.2676 0.84407 0.0
C464 C 0.31222 0.2048 0.82203 0.0
C465 C 0.35624 0.23153 0.80781 0.0
H466 H 0.25377 0.20067 0.8535 0.0
H467 H 0.29804 0.16995 0.82289 0.0
S468 S 0.41528 0.35149 0.80183 0.0
N469 N 0.36643 0.33838 0.8246 0.0
N470 N 0.41455 0.30528 0.79271 0.0
C471 C 0.37315 0.27656 0.80813 0.0
C472 C 0.34711 0.29453 0.82582 0.0
C473 C 0.10749 0.30878 0.92472 0.0
C474 C 0.14284 0.34491 0.95062 0.0
C475 C 0.06538 0.29133 0.94729 0.0
C476 C 0.05687 0.30945 -0.00353 0.0
H477 H 0.1127 0.2925 0.88868 0.0
H478 H 0.03957 0.26246 0.92723 0.0
S479 S 0.13783 0.40853 0.07437 0.0
N480 N 0.16623 0.40059 0.02458 0.0
N481 N 0.08735 0.36914 0.06553 0.0
C482 C 0.09179 0.34714 0.02057 0.0
C483 C 0.13462 0.3645 -0.002 0.0
C484 C 0.76985 0.12134 0.16957 0.0
C485 C 0.81214 0.14354 0.14674 0.0
C486 C 0.74986 0.07747 0.185 0.0
C487 C 0.77092 0.05346 0.17789 0.0
H488 H 0.7524 0.13834 0.1778 0.0
H489 H 0.71778 0.06235 0.20368 0.0
S490 S 0.88065 0.09463 0.11681 0.0
N491 N 0.87355 0.13691 0.11513 0.0
N492 N 0.83567 0.05439 0.14395 0.0
C493 C 0.81228 0.07437 0.15247 0.0
C494 C 0.8329 0.11932 0.13693 0.0
C495 C 0.69577 0.74114 0.3555 0.0
C496 C 0.74114 0.76283 0.35186 0.0
C497 C 0.67224 0.76118 0.33866 0.0
C498 C 0.69298 0.80413 0.31789 0.0
H499 H 0.67831 0.70856 0.37271 0.0
H500 H 0.63747 0.74322 0.34435 0.0
S501 S 0.81141 0.87421 0.29625 0.0
N502 N 0.806 0.82871 0.3227 0.0
N503 N 0.76194 0.86673 0.29127 0.0
C504 C 0.73832 0.82549 0.31117 0.0
C505 C 0.76232 0.80481 0.32813 0.0
C506 C 0.97303 0.7444 0.50711 0.0
C507 C 0.99455 0.72279 0.52689 0.0
C508 C 0.92876 0.72136 0.49205 0.0
C509 C 0.90451 0.6758 0.49572 0.0
H510 H 0.99006 0.77942 0.50585 0.0
H511 H 0.91305 0.73956 0.48021 0.0
S512 S 0.94837 0.60402 0.53505 0.0
N513 N 0.99002 0.65345 0.54236 0.0
N514 N 0.90746 0.61004 0.51372 0.0
C515 C 0.92675 0.6539 0.51154 0.0
C516 C 0.97153 0.67738 0.52729 0.0
C517 C 0.30595 0.95916 0.69698 0.0
C518 C 0.28286 0.98127 0.69099 0.0
C519 C 0.28776 0.91569 0.68024 0.0
C520 C 0.24536 0.89211 0.65737 0.0
H521 H 0.33836 0.9756 0.71511 0.0
H522 H 0.30681 0.90013 0.68713 0.0
S523 S 0.17152 0.93582 0.63224 0.0
N524 N 0.21589 0.97709 0.65946 0.0
N525 N 0.18123 0.89527 0.62851 0.0
C526 C 0.22234 0.91439 0.64965 0.0
C527 C 0.24115 0.9589 0.66637 0.0
C528 C 0.78741 0.68553 0.05745 0.0
C529 C 0.82661 0.69648 0.02933 0.0
C530 C 0.76038 0.7012 0.03744 0.0
C531 C 0.77097 0.7278 0.98787 0.0
H532 H 0.77725 0.66438 0.09495 0.0
H533 H 0.73045 0.69169 0.06016 0.0
S534 S 0.87082 0.76909 0.9006 0.0
N535 N 0.87563 0.73877 0.95097 0.0
N536 N 0.824 0.76627 0.91301 0.0
C537 C 0.81011 0.73956 0.95989 0.0
C538 C 0.8381 0.72448 0.98072 0.0
C539 C 0.1009 0.80174 0.12278 0.0
C540 C 0.06781 0.77282 0.15976 0.0
C541 C 0.14382 0.82628 0.14208 0.0
C542 C 0.15624 0.82311 0.19947 0.0
H543 H 0.09345 0.80609 0.07847 0.0
H544 H 0.16729 0.84854 0.1114 0.0
S545 S 0.08215 0.75061 0.31367 0.0
N546 N 0.05042 0.74123 0.25654 0.0
N547 N 0.13125 0.78764 0.29305 0.0
C548 C 0.12348 0.79402 0.23711 0.0
C549 C 0.07937 0.76891 0.21729 0.0
C550 C 0.30878 0.06632 0.37404 0.0
C551 C 0.3209 0.0581 0.31939 0.0
C552 C 0.32854 0.10848 0.39749 0.0
C553 C 0.36101 0.14409 0.36694 0.0
H554 H 0.28311 0.04005 0.39824 0.0
H555 H 0.31662 0.11347 0.43822 0.0
S556 S 0.40624 0.14024 0.22375 0.0
N557 N 0.3685 0.0897 0.23626 0.0
N558 N 0.40645 0.16788 0.2812 0.0
C559 C 0.37479 0.13599 0.31366 0.0
C560 C 0.35456 0.09334 0.28963 0.0
C561 C 0.23159 0.27767 0.48171 0.0
C562 C 0.27703 0.298 0.47809 0.0
C563 C 0.21103 0.30088 0.49792 0.0
C564 C 0.23509 0.34542 0.51076 0.0
H565 H 0.21158 0.24417 0.46894 0.0
H566 H 0.17599 0.28438 0.49674 0.0
S567 S 0.35479 0.41207 0.51774 0.0
N568 N 0.34535 0.36387 0.49698 0.0
N569 N 0.30677 0.40767 0.52531 0.0
C570 C 0.28047 0.3654 0.51098 0.0
C571 C 0.3014 0.3417 0.4952 0.0
C572 C 0.96344 0.22278 0.66083 0.0
C573 C 0.98598 0.26604 0.64187 0.0
C574 C 0.91979 0.20314 0.67774 0.0
C575 C 0.89725 0.22622 0.67671 0.0
H576 H 0.97904 0.20345 0.65983 0.0
H577 H 0.90307 0.16904 0.68865 0.0
S578 S 0.94475 0.34285 0.64086 0.0
N579 N 0.98464 0.33289 0.63036 0.0
N580 N 0.90312 0.29659 0.66239 0.0
C581 C 0.9207 0.27049 0.66198 0.0
C582 C 0.96487 0.29022 0.64439 0.0
C583 C 0.74922 0.95302 0.83081 0.0
C584 C 0.72771 0.97473 0.81128 0.0
C585 C 0.72605 0.90891 0.8463 0.0
C586 C 0.68046 0.88497 0.84321 0.0
H587 H 0.78425 0.96971 0.83147 0.0
H588 H 0.74414 0.89303 0.85786 0.0
S589 S 0.60891 0.92914 0.80411 0.0
N590 N 0.6584 0.97055 0.79646 0.0
N591 N 0.61482 0.88823 0.82555 0.0
C592 C 0.65868 0.90733 0.82746 0.0
C593 C 0.68227 0.95197 0.81143 0.0
C594 C 0.34425 0.34876 0.13371 0.0
C595 C 0.30496 0.31953 0.10649 0.0
C596 C 0.35482 0.34001 0.18873 0.0
C597 C 0.32674 0.30144 0.21798 0.0
H598 H 0.36657 0.37917 0.11309 0.0
H599 H 0.38582 0.36303 0.2076 0.0
S600 S 0.22006 0.21434 0.16542 0.0
N601 N 0.23769 0.25078 0.11296 0.0
N602 N 0.25812 0.23381 0.21604 0.0
C603 C 0.28744 0.2719 0.19124 0.0
C604 C 0.27642 0.28106 0.13553 0.0
C605 C 1.02283 0.3379 0.29146 0.0
C606 C 1.00576 0.29656 0.26655 0.0
C607 C 0.04344 0.3475 0.34559 0.0
C608 C 0.04855 0.31642 0.37664 0.0
H609 H 1.01928 0.36294 0.26984 0.0
H610 H 0.05608 0.37988 0.36279 0.0
S611 S 1.01086 0.20366 0.33053 0.0
N612 N 0.99558 0.22418 0.27718 0.0
N613 N 0.03591 0.24297 0.37853 0.0
C614 C 0.03264 0.27525 0.35197 0.0
C615 C 1.01082 0.26511 0.29705 0.0
C616 C 0.75534 0.99748 0.47295 0.0
C617 C 0.72223 0.99574 0.43736 0.0
C618 C 0.76565 0.01897 0.52671 0.0
C619 C 0.74233 0.03827 0.54709 0.0
H620 H 0.77293 0.98152 0.45972 0.0
H621 H 0.79131 0.01972 0.55293 0.0
S622 S 0.65556 0.04646 0.46868 0.0
N623 N 0.66868 0.01842 0.42484 0.0
N624 N 0.687 0.0572 0.52625 0.0
C625 C 0.70997 0.03769 0.51142 0.0
C626 C 0.70022 1.01687 0.45638 0.0
C627 C 0.70562 0.68487 0.6397 0.0
C628 C 0.74667 0.71231 0.61588 0.0
C629 C 0.69364 0.69419 0.69297 0.0
C630 C 0.72191 0.73173 0.72423 0.0
H631 H 0.68265 0.65532 0.61768 0.0
H632 H 0.66144 0.67216 0.70903 0.0
S633 S 0.83306 0.81439 0.68109 0.0
N634 N 0.816 0.77845 0.62796 0.0
N635 N 0.79273 0.79673 0.72777 0.0
C636 C 0.76297 0.75975 0.70094 0.0
C637 C 0.77555 0.74983 0.64688 0.0
C638 C 0.04941 0.69896 0.81523 0.0
C639 C 0.06349 0.73914 0.78798 0.0
C640 C 0.02935 0.68979 0.86956 0.0
C641 C 1.02212 0.72025 0.89826 0.0
H642 H 0.05416 0.67439 0.79471 0.0
H643 H 1.0179 0.65795 0.88804 0.0
S644 S 0.05431 0.83083 0.84684 0.0
N645 N 0.07034 0.81029 0.79491 0.0
N646 N 0.03172 0.79262 0.89667 0.0
C647 C 0.03665 0.7608 0.87208 0.0
C648 C 0.05756 0.77035 0.81701 0.0
C649 C 0.36103 0.02475 0.03019 0.0
C650 C 0.32298 1.01507 0.05996 0.0
C651 C 0.36994 0.04462 0.97555 0.0
C652 C 0.3414 0.056 0.94907 0.0
H653 H 0.38317 1.0152 0.04793 0.0
H654 H 0.39953 0.05117 0.95406 0.0
S655 S 0.2388 0.0402 0.01118 0.0
N656 N 0.25743 0.01986 0.06045 0.0
N657 N 0.27458 0.05803 0.95814 0.0
C658 C 0.30398 0.04786 0.97935 0.0
C659 C 0.29469 0.0272 0.03473 0.0
C660 C 0.45503 0.61335 0.94799 0.0
C661 C 0.48364 0.6238 0.90108 0.0
C662 C 0.41413 0.57538 0.9471 0.0
C663 C 0.40067 0.54693 0.8992 0.0
H664 H 0.46534 0.63313 0.98684 0.0
H665 H 0.39427 0.5667 0.9857 0.0
S666 S 0.46112 0.56368 0.76222 0.0
N667 N 0.49372 0.60563 0.803 0.0
N668 N 0.4172 0.53464 0.80138 0.0
C669 C 0.42775 0.55901 0.85046 0.0
C670 C 0.46915 0.59735 0.85141 0.0
C671 C 0.91086 0.44635 0.0319 0.0
C672 C 0.88631 0.41291 0.07159 0.0
C673 C 0.91097 0.48564 0.03339 0.0
C674 C 0.88633 0.49309 0.07432 0.0
H675 H 0.9313 0.44264 0.00057 0.0
H676 H 0.93145 0.51096 0.00321 0.0
S677 S 0.81506 0.41604 0.18617 0.0
N678 N 0.83558 0.38975 0.15213 0.0
N679 N 0.83531 0.46358 0.15373 0.0
C680 C 0.86007 0.45949 0.11247 0.0
C681 C 0.86012 0.41939 0.11132 0.0
C682 C 0.48553 0.8912 0.18402 0.0
C683 C 0.49526 0.86925 0.22701 0.0
C684 C 0.44654 0.89172 0.18485 0.0
C685 C 0.41567 0.87038 0.22869 0.0
H686 H 0.50922 0.90992 0.15112 0.0
H687 H 0.44136 0.91078 0.15247 0.0
S688 S 0.42391 0.80592 0.3491 0.0
N689 N 0.46957 0.82356 0.31292 0.0
N690 N 0.39606 0.82454 0.31404 0.0
C691 C 0.42364 0.84615 0.26989 0.0
C692 C 0.46349 0.84556 0.26911 0.0
C693 C 0.57042 0.43946 0.35868 0.0
C694 C 0.56119 0.40697 0.4002 0.0
C695 C 0.60977 0.47864 0.35944 0.0
C696 C 0.64159 0.487 0.40175 0.0
H697 H 0.54623 0.43514 0.32661 0.0
H698 H 0.61462 0.50336 0.3281 0.0
S699 S 0.63433 0.41139 0.518 0.0
N700 N 0.58784 0.38452 0.4826 0.0
N701 N 0.66199 0.45848 0.48462 0.0
C702 C 0.63376 0.45381 0.44159 0.0
C703 C 0.59351 0.41371 0.44069 0.0
C704 C 0.18966 0.61227 0.61283 0.0
C705 C 0.16858 0.62269 0.56909 0.0
C706 C 0.18735 0.5717 0.61378 0.0
C707 C 0.16374 0.54038 0.57112 0.0
H708 H 0.20585 0.63459 0.64834 0.0
H709 H 0.20217 0.56401 0.64956 0.0
S710 S 0.10888 0.55458 0.44251 0.0
N711 N 0.12772 0.60039 0.47887 0.0
N712 N 0.12367 0.52464 0.48015 0.0
C713 C 0.14522 0.55173 0.5251 0.0
C714 C 0.14752 0.59274 0.52423 0.0
C715 C 0.6242 0.17978 0.77154 0.0
C716 C 0.63254 0.15677 0.72895 0.0
C717 C 0.58624 0.18259 0.7692 0.0
C718 C 0.55566 0.16263 0.72411 0.0
H719 H 0.64585 0.19357 0.80841 0.0
H720 H 0.57945 0.19807 0.80478 0.0
S721 S 0.56624 0.10502 0.59727 0.0
N722 N 0.61001 0.11862 0.63669 0.0
N723 N 0.53883 0.1236 0.63277 0.0
C724 C 0.56534 0.14234 0.67928 0.0
C725 C 0.60376 0.13953 0.68157 0.0
loop_
_geom_bond_atom_site_label_1
_geom_bond_atom_site_label_2
_geom_bond_distance
_geom_bond_site_symmetry_2
_ccdc_geom_bond_type
Co0 N4 2.148 1_554 S
Co0 N10 2.128 . S
Co0 N20 2.194 1_554 S
Co0 O25 2.351 . S
Co0 O26 2.155 . S
Co0 O27 2.096 . S
C1 N4 1.301 . S
C1 N5 1.328 . S
C1 H6 0.930 . S
C2 C3 1.333 . S
C2 N4 1.317 . S
C2 H7 0.930 . S
C3 C2 1.333 . S
C3 N5 1.350 . S
C3 H29 0.931 . S
N4 Co0 2.148 1_556 S
N4 C1 1.301 . S
N4 C2 1.317 . S
N5 C1 1.328 . S
N5 C3 1.350 . S
H6 C1 0.930 . S
H7 C2 0.930 . S
C8 O9 1.224 . S
C8 O27 1.247 1_556 S
O9 C8 1.224 . S
N10 Co0 2.128 . S
N10 C11 1.355 . S
N10 C13 1.311 . S
C11 N10 1.355 . S
C11 C12 1.363 . S
C11 H23 0.929 . S
C12 C11 1.363 . S
C12 N14 1.375 . S
C12 H30 0.931 . S
C13 N10 1.311 . S
C13 N14 1.347 . S
C13 H24 0.929 . S
N14 C12 1.375 . S
N14 C13 1.347 . S
C15 C18 1.365 . S
C15 N20 1.328 . S
C15 H21 0.929 . S
C16 C17 1.362 . S
C16 C19 1.378 . S
C16 H31 0.929 . S
C17 C16 1.362 . S
C17 C18 1.366 . S
C18 C15 1.365 . S
C18 C17 1.366 . S
C18 H32 0.930 . S
C19 C16 1.378 . S
C19 N20 1.315 . S
C19 H22 0.930 . S
N20 Co0 2.194 1_556 S
N20 C15 1.328 . S
N20 C19 1.315 . S
H21 C15 0.929 . S
H22 C19 0.930 . S
H23 C11 0.929 . S
H24 C13 0.929 . S
O25 Co0 2.351 . S
O25 C28 1.244 . S
O26 Co0 2.155 . S
O26 C28 1.240 . S
O27 Co0 2.096 . S
O27 C8 1.247 1_554 S
C28 O25 1.244 . S
C28 O26 1.240 . S
H29 C3 0.931 . S
H30 C12 0.931 . S
H31 C16 0.929 . S
H32 C18 0.930 . S
Co33 N37 2.148 . S
Co33 N43 2.128 . S
Co33 N53 2.194 . S
Co33 O58 2.351 . S
Co33 O59 2.155 . S
Co33 O60 2.096 . S
C34 N37 1.301 . S
C34 N38 1.328 . S
C34 H39 0.930 . S
C35 C36 1.333 . S
C35 N37 1.317 . S
C35 H40 0.930 . S
C36 C35 1.333 . S
C36 N38 1.350 . S
C36 H62 0.937 . S
N37 Co33 2.148 . S
N37 C34 1.301 . S
N37 C35 1.317 . S
N38 C34 1.328 . S
N38 C36 1.350 . S
H39 C34 0.930 . S
H40 C35 0.930 . S
C41 O42 1.224 . S
C41 O60 1.247 . S
O42 C41 1.224 . S
N43 Co33 2.128 . S
N43 C44 1.355 . S
N43 C46 1.311 . S
C44 N43 1.355 . S
C44 C45 1.363 . S
C44 H56 0.929 . S
C45 C44 1.363 . S
C45 N47 1.375 . S
C45 H63 0.931 . S
C46 N43 1.311 . S
C46 N47 1.347 . S
C46 H57 0.929 . S
N47 C45 1.375 . S
N47 C46 1.347 . S
C48 C51 1.365 . S
C48 N53 1.328 . S
C48 H54 0.929 . S
C49 C50 1.362 . S
C49 C52 1.378 . S
C49 H64 0.929 . S
C50 C49 1.362 . S
C50 C51 1.366 . S
C51 C48 1.365 . S
C51 C50 1.366 . S
C51 H65 0.930 . S
C52 C49 1.378 . S
C52 N53 1.315 . S
C52 H55 0.930 . S
N53 Co33 2.194 . S
N53 C48 1.328 . S
N53 C52 1.315 . S
H54 C48 0.929 . S
H55 C52 0.930 . S
H56 C44 0.929 . S
H57 C46 0.929 . S
O58 Co33 2.351 . S
O58 C61 1.244 . S
O59 Co33 2.155 . S
O59 C61 1.240 . S
O60 Co33 2.096 . S
O60 C41 1.247 . S
C61 O58 1.244 . S
C61 O59 1.240 . S
H62 C36 0.937 . S
H63 C45 0.931 . S
H64 C49 0.929 . S
H65 C51 0.930 . S
Co66 N70 2.148 . S
Co66 N76 2.128 . S
Co66 N86 2.194 . S
Co66 O91 2.351 . S
Co66 O92 2.155 . S
Co66 O93 2.096 . S
C67 N70 1.301 . S
C67 N71 1.328 . S
C67 H72 0.930 . S
C68 C69 1.333 . S
C68 N70 1.317 . S
C68 H73 0.930 . S
C69 C68 1.333 . S
C69 N71 1.350 . S
C69 H95 0.931 . S
N70 Co66 2.148 . S
N70 C67 1.301 . S
N70 C68 1.317 . S
N71 C67 1.328 . S
N71 C69 1.350 . S
H72 C67 0.930 . S
H73 C68 0.930 . S
C74 O75 1.224 . S
C74 O93 1.247 . S
O75 C74 1.224 . S
N76 Co66 2.128 . S
N76 C77 1.355 . S
N76 C79 1.311 . S
C77 N76 1.355 . S
C77 C78 1.363 . S
C77 H89 0.929 . S
C78 C77 1.363 . S
C78 N80 1.375 . S
C78 H96 0.931 . S
C79 N76 1.311 . S
C79 N80 1.347 . S
C79 H90 0.929 . S
N80 C78 1.375 . S
N80 C79 1.347 . S
C81 C84 1.365 . S
C81 N86 1.328 . S
C81 H87 0.929 . S
C82 C83 1.362 . S
C82 C85 1.378 . S
C82 H97 0.929 . S
C83 C82 1.362 . S
C83 C84 1.366 . S
C84 C81 1.365 . S
C84 C83 1.366 . S
C84 H98 0.930 . S
C85 C82 1.378 . S
C85 N86 1.315 . S
C85 H88 0.930 . S
N86 Co66 2.194 . S
N86 C81 1.328 . S
N86 C85 1.315 . S
H87 C81 0.929 . S
H88 C85 0.930 . S
H89 C77 0.929 . S
H90 C79 0.929 . S
O91 Co66 2.351 . S
O91 C94 1.244 . S
O92 Co66 2.155 . S
O92 C94 1.240 . S
O93 Co66 2.096 . S
O93 C74 1.247 . S
C94 O91 1.244 . S
C94 O92 1.240 . S
H95 C69 0.931 . S
H96 C78 0.931 . S
H97 C82 0.929 . S
H98 C84 0.930 . S
Co99 N103 2.148 . S
Co99 N109 2.128 . S
Co99 N119 2.194 . S
Co99 O124 2.351 . S
Co99 O125 2.155 . S
Co99 O126 2.096 . S
C100 N103 1.301 . S
C100 N104 1.328 . S
C100 H105 0.930 . S
C101 C102 1.333 . S
C101 N103 1.317 . S
C101 H106 0.930 . S
C102 C101 1.333 . S
C102 N104 1.350 . S
C102 H128 0.931 . S
N103 Co99 2.148 . S
N103 C100 1.301 . S
N103 C101 1.317 . S
N104 C100 1.328 . S
N104 C102 1.350 . S
H105 C100 0.930 . S
H106 C101 0.930 . S
C107 O108 1.224 . S
C107 O126 1.247 . S
O108 C107 1.224 . S
N109 Co99 2.128 . S
N109 C110 1.355 . S
N109 C112 1.311 . S
C110 N109 1.355 . S
C110 C111 1.363 . S
C110 H122 0.929 . S
C111 C110 1.363 . S
C111 N113 1.375 . S
C111 H129 0.931 . S
C112 N109 1.311 . S
C112 N113 1.347 . S
C112 H123 0.929 . S
N113 C111 1.375 . S
N113 C112 1.347 . S
C114 C117 1.365 . S
C114 N119 1.328 . S
C114 H120 0.929 . S
C115 C116 1.362 . S
C115 C118 1.378 . S
C115 H130 0.929 . S
C116 C115 1.362 . S
C116 C117 1.366 . S
C117 C114 1.365 . S
C117 C116 1.366 . S
C117 H131 0.930 . S
C118 C115 1.378 . S
C118 N119 1.315 . S
C118 H121 0.930 . S
N119 Co99 2.194 . S
N119 C114 1.328 . S
N119 C118 1.315 . S
H120 C114 0.929 . S
H121 C118 0.930 . S
H122 C110 0.929 . S
H123 C112 0.929 . S
O124 Co99 2.351 . S
O124 C127 1.244 . S
O125 Co99 2.155 . S
O125 C127 1.240 . S
O126 Co99 2.096 . S
O126 C107 1.247 . S
C127 O124 1.244 . S
C127 O125 1.240 . S
H128 C102 0.931 . S
H129 C111 0.931 . S
H130 C115 0.929 . S
H131 C117 0.930 . S
Co132 N136 2.148 . S
Co132 N142 2.128 . S
Co132 N152 2.194 . S
Co132 O157 2.351 . S
Co132 O158 2.155 . S
Co132 O159 2.096 . S
C133 N136 1.301 . S
C133 N137 1.328 . S
C133 H138 0.930 . S
C134 C135 1.333 . S
C134 N136 1.317 . S
C134 H139 0.930 . S
C135 C134 1.333 . S
C135 N137 1.350 . S
C135 H161 0.931 . S
N136 Co132 2.148 . S
N136 C133 1.301 . S
N136 C134 1.317 . S
N137 C133 1.328 . S
N137 C135 1.350 . S
H138 C133 0.930 . S
H139 C134 0.930 . S
C140 O141 1.224 . S
C140 O159 1.247 . S
O141 C140 1.224 . S
N142 Co132 2.128 . S
N142 C143 1.355 . S
N142 C145 1.311 . S
C143 N142 1.355 . S
C143 C144 1.363 . S
C143 H155 0.929 . S
C144 C143 1.363 . S
C144 N146 1.375 . S
C144 H162 0.931 . S
C145 N142 1.311 . S
C145 N146 1.347 . S
C145 H156 0.929 . S
N146 C144 1.375 . S
N146 C145 1.347 . S
C147 C150 1.365 . S
C147 N152 1.328 . S
C147 H153 0.929 . S
C148 C149 1.362 . S
C148 C151 1.378 . S
C148 H163 0.929 . S
C149 C148 1.362 . S
C149 C150 1.366 . S
C150 C147 1.365 . S
C150 C149 1.366 . S
C150 H164 0.930 . S
C151 C148 1.378 . S
C151 N152 1.315 . S
C151 H154 0.930 . S
N152 Co132 2.194 . S
N152 C147 1.328 . S
N152 C151 1.315 . S
H153 C147 0.929 . S
H154 C151 0.930 . S
H155 C143 0.929 . S
H156 C145 0.929 . S
O157 Co132 2.351 . S
O157 C160 1.244 . S
O158 Co132 2.155 . S
O158 C160 1.240 . S
O159 Co132 2.096 . S
O159 C140 1.247 . S
C160 O157 1.244 . S
C160 O158 1.240 . S
H161 C135 0.931 . S
H162 C144 0.931 . S
H163 C148 0.929 . S
H164 C150 0.930 . S
Co165 N169 2.148 . S
Co165 N175 2.128 . S
Co165 N185 2.194 . S
Co165 O190 2.351 . S
Co165 O191 2.155 . S
Co165 O192 2.096 . S
C166 N169 1.301 . S
C166 N170 1.328 . S
C166 H171 0.930 . S
C167 C168 1.333 . S
C167 N169 1.317 . S
C167 H172 0.930 . S
C168 C167 1.333 . S
C168 N170 1.350 . S
C168 H194 0.931 . S
N169 Co165 2.148 . S
N169 C166 1.301 . S
N169 C167 1.317 . S
N170 C166 1.328 . S
N170 C168 1.350 . S
H171 C166 0.930 . S
H172 C167 0.930 . S
C173 O174 1.224 . S
C173 O192 1.247 . S
O174 C173 1.224 . S
N175 Co165 2.128 . S
N175 C176 1.355 . S
N175 C178 1.311 . S
C176 N175 1.355 . S
C176 C177 1.363 . S
C176 H188 0.929 . S
C177 C176 1.363 . S
C177 N179 1.375 . S
C177 H195 0.931 . S
C178 N175 1.311 . S
C178 N179 1.347 . S
C178 H189 0.929 . S
N179 C177 1.375 . S
N179 C178 1.347 . S
C180 C183 1.365 . S
C180 N185 1.328 . S
C180 H186 0.929 . S
C181 C182 1.362 . S
C181 C184 1.378 . S
C181 H196 0.929 . S
C182 C181 1.362 . S
C182 C183 1.366 . S
C183 C180 1.365 . S
C183 C182 1.366 . S
C183 H197 0.930 . S
C184 C181 1.378 . S
C184 N185 1.315 . S
C184 H187 0.930 . S
N185 Co165 2.194 . S
N185 C180 1.328 . S
N185 C184 1.315 . S
H186 C180 0.929 . S
H187 C184 0.930 . S
H188 C176 0.929 . S
H189 C178 0.929 . S
O190 Co165 2.351 . S
O190 C193 1.244 . S
O191 Co165 2.155 . S
O191 C193 1.240 . S
O192 Co165 2.096 . S
O192 C173 1.247 . S
C193 O190 1.244 . S
C193 O191 1.240 . S
H194 C168 0.931 . S
H195 C177 0.931 . S
H196 C181 0.929 . S
H197 C183 0.930 . S
Co198 N202 2.148 . S
Co198 N208 2.128 . S
Co198 N218 2.194 . S
Co198 O223 2.351 . S
Co198 O224 2.155 . S
Co198 O225 2.096 . S
C199 N202 1.301 . S
C199 N203 1.328 . S
C199 H204 0.930 . S
C200 C201 1.333 . S
C200 N202 1.317 . S
C200 H205 0.930 . S
C201 C200 1.333 . S
C201 N203 1.350 . S
C201 H227 0.937 . S
N202 Co198 2.148 . S
N202 C199 1.301 . S
N202 C200 1.317 . S
N203 C199 1.328 . S
N203 C201 1.350 . S
H204 C199 0.930 . S
H205 C200 0.930 . S
C206 O207 1.224 . S
C206 O225 1.247 . S
O207 C206 1.224 . S
N208 Co198 2.128 . S
N208 C209 1.355 . S
N208 C211 1.311 . S
C209 N208 1.355 . S
C209 C210 1.363 . S
C209 H221 0.929 . S
C210 C209 1.363 . S
C210 N212 1.375 . S
C210 H228 0.931 . S
C211 N208 1.311 . S
C211 N212 1.347 . S
C211 H222 0.929 . S
N212 C210 1.375 . S
N212 C211 1.347 . S
C213 C216 1.365 . S
C213 N218 1.328 . S
C213 H219 0.929 . S
C214 C215 1.362 . S
C214 C217 1.378 . S
C214 H229 0.929 . S
C215 C214 1.362 . S
C215 C216 1.366 . S
C216 C213 1.365 . S
C216 C215 1.366 . S
C216 H230 0.930 . S
C217 C214 1.378 . S
C217 N218 1.315 . S
C217 H220 0.930 . S
N218 Co198 2.194 . S
N218 C213 1.328 . S
N218 C217 1.315 . S
H219 C213 0.929 . S
H220 C217 0.930 . S
H221 C209 0.929 . S
H222 C211 0.929 . S
O223 Co198 2.351 . S
O223 C226 1.244 . S
O224 Co198 2.155 . S
O224 C226 1.240 . S
O225 Co198 2.096 . S
O225 C206 1.247 . S
C226 O223 1.244 . S
C226 O224 1.240 . S
H227 C201 0.937 . S
H228 C210 0.931 . S
H229 C214 0.929 . S
H230 C216 0.930 . S
Co231 N235 2.148 1_556 S
Co231 N241 2.128 . S
Co231 N251 2.194 1_556 S
Co231 O256 2.351 . S
Co231 O257 2.155 . S
Co231 O258 2.096 . S
C232 N235 1.301 . S
C232 N236 1.328 . S
C232 H237 0.930 . S
C233 C234 1.333 . S
C233 N235 1.317 . S
C233 H238 0.930 . S
C234 C233 1.333 . S
C234 N236 1.350 . S
C234 H260 0.931 . S
N235 Co231 2.148 1_554 S
N235 C232 1.301 . S
N235 C233 1.317 . S
N236 C232 1.328 . S
N236 C234 1.350 . S
H237 C232 0.930 . S
H238 C233 0.930 . S
C239 O240 1.224 . S
C239 O258 1.247 1_554 S
O240 C239 1.224 . S
N241 Co231 2.128 . S
N241 C242 1.355 . S
N241 C244 1.311 . S
C242 N241 1.355 . S
C242 C243 1.363 . S
C242 H254 0.929 . S
C243 C242 1.363 . S
C243 N245 1.375 . S
C243 H261 0.931 . S
C244 N241 1.311 . S
C244 N245 1.347 . S
C244 H255 0.929 . S
N245 C243 1.375 . S
N245 C244 1.347 . S
C246 C249 1.365 . S
C246 N251 1.328 . S
C246 H252 0.929 . S
C247 C248 1.362 . S
C247 C250 1.378 . S
C247 H262 0.929 . S
C248 C247 1.362 . S
C248 C249 1.366 . S
C249 C246 1.365 . S
C249 C248 1.366 . S
C249 H263 0.930 . S
C250 C247 1.378 . S
C250 N251 1.315 . S
C250 H253 0.930 . S
N251 Co231 2.194 1_554 S
N251 C246 1.328 . S
N251 C250 1.315 . S
H252 C246 0.929 . S
H253 C250 0.930 . S
H254 C242 0.929 . S
H255 C244 0.929 . S
O256 Co231 2.351 . S
O256 C259 1.244 . S
O257 Co231 2.155 . S
O257 C259 1.240 . S
O258 Co231 2.096 . S
O258 C239 1.247 1_556 S
C259 O256 1.244 . S
C259 O257 1.240 . S
H260 C234 0.931 . S
H261 C243 0.931 . S
H262 C247 0.929 . S
H263 C249 0.930 . S
Co264 N268 2.148 . S
Co264 N274 2.128 . S
Co264 N284 2.194 . S
Co264 O289 2.351 . S
Co264 O290 2.155 . S
Co264 O291 2.096 . S
C265 N268 1.301 . S
C265 N269 1.328 . S
C265 H270 0.930 . S
C266 C267 1.333 . S
C266 N268 1.317 . S
C266 H271 0.930 . S
C267 C266 1.333 . S
C267 N269 1.350 . S
C267 H293 0.931 . S
N268 Co264 2.148 . S
N268 C265 1.301 . S
N268 C266 1.317 . S
N269 C265 1.328 . S
N269 C267 1.350 . S
H270 C265 0.930 . S
H271 C266 0.930 . S
C272 O273 1.224 . S
C272 O291 1.247 . S
O273 C272 1.224 . S
N274 Co264 2.128 . S
N274 C275 1.355 . S
N274 C277 1.311 . S
C275 N274 1.355 . S
C275 C276 1.363 . S
C275 H287 0.929 . S
C276 C275 1.363 . S
C276 N278 1.375 . S
C276 H294 0.931 . S
C277 N274 1.311 . S
C277 N278 1.347 . S
C277 H288 0.929 . S
N278 C276 1.375 . S
N278 C277 1.347 . S
C279 C282 1.365 . S
C279 N284 1.328 . S
C279 H285 0.929 . S
C280 C281 1.362 . S
C280 C283 1.378 . S
C280 H295 0.929 . S
C281 C280 1.362 . S
C281 C282 1.366 . S
C282 C279 1.365 . S
C282 C281 1.366 . S
C282 H296 0.930 . S
C283 C280 1.378 . S
C283 N284 1.315 . S
C283 H286 0.930 . S
N284 Co264 2.194 . S
N284 C279 1.328 . S
N284 C283 1.315 . S
H285 C279 0.929 . S
H286 C283 0.930 . S
H287 C275 0.929 . S
H288 C277 0.929 . S
O289 Co264 2.351 . S
O289 C292 1.244 . S
O290 Co264 2.155 . S
O290 C292 1.240 . S
O291 Co264 2.096 . S
O291 C272 1.247 . S
C292 O289 1.244 . S
C292 O290 1.240 . S
H293 C267 0.931 . S
H294 C276 0.931 . S
H295 C280 0.929 . S
H296 C282 0.930 . S
Co297 N301 2.148 . S
Co297 N307 2.128 . S
Co297 N317 2.194 . S
Co297 O322 2.351 . S
Co297 O323 2.155 . S
Co297 O324 2.096 . S
C298 N301 1.301 . S
C298 N302 1.328 . S
C298 H303 0.930 . S
C299 C300 1.333 . S
C299 N301 1.317 . S
C299 H304 0.930 . S
C300 C299 1.333 . S
C300 N302 1.350 . S
C300 H326 0.931 . S
N301 Co297 2.148 . S
N301 C298 1.301 . S
N301 C299 1.317 . S
N302 C298 1.328 . S
N302 C300 1.350 . S
H303 C298 0.930 . S
H304 C299 0.930 . S
C305 O306 1.224 . S
C305 O324 1.247 . S
O306 C305 1.224 . S
N307 Co297 2.128 . S
N307 C308 1.355 . S
N307 C310 1.311 . S
C308 N307 1.355 . S
C308 C309 1.363 . S
C308 H320 0.929 . S
C309 C308 1.363 . S
C309 N311 1.375 . S
C309 H327 0.931 . S
C310 N307 1.311 . S
C310 N311 1.347 . S
C310 H321 0.929 . S
N311 C309 1.375 . S
N311 C310 1.347 . S
C312 C315 1.365 . S
C312 N317 1.328 . S
C312 H318 0.929 . S
C313 C314 1.362 . S
C313 C316 1.378 . S
C313 H328 0.929 . S
C314 C313 1.362 . S
C314 C315 1.366 . S
C315 C312 1.365 . S
C315 C314 1.366 . S
C315 H329 0.930 . S
C316 C313 1.378 . S
C316 N317 1.315 . S
C316 H319 0.930 . S
N317 Co297 2.194 . S
N317 C312 1.328 . S
N317 C316 1.315 . S
H318 C312 0.929 . S
H319 C316 0.930 . S
H320 C308 0.929 . S
H321 C310 0.929 . S
O322 Co297 2.351 . S
O322 C325 1.244 . S
O323 Co297 2.155 . S
O323 C325 1.240 . S
O324 Co297 2.096 . S
O324 C305 1.247 . S
C325 O322 1.244 . S
C325 O323 1.240 . S
H326 C300 0.931 . S
H327 C309 0.931 . S
H328 C313 0.929 . S
H329 C315 0.930 . S
Co330 N334 2.148 . S
Co330 N340 2.128 . S
Co330 N350 2.194 . S
Co330 O355 2.351 . S
Co330 O356 2.155 . S
Co330 O357 2.096 . S
C331 N334 1.301 . S
C331 N335 1.328 . S
C331 H336 0.930 . S
C332 C333 1.333 . S
C332 N334 1.317 . S
C332 H337 0.930 . S
C333 C332 1.333 . S
C333 N335 1.350 . S
C333 H359 0.931 . S
N334 Co330 2.148 . S
N334 C331 1.301 . S
N334 C332 1.317 . S
N335 C331 1.328 . S
N335 C333 1.350 . S
H336 C331 0.930 . S
H337 C332 0.930 . S
C338 O339 1.224 . S
C338 O357 1.247 . S
O339 C338 1.224 . S
N340 Co330 2.128 . S
N340 C341 1.355 . S
N340 C343 1.311 . S
C341 N340 1.355 . S
C341 C342 1.363 . S
C341 H353 0.929 . S
C342 C341 1.363 . S
C342 N344 1.375 . S
C342 H360 0.931 . S
C343 N340 1.311 . S
C343 N344 1.347 . S
C343 H354 0.929 . S
N344 C342 1.375 . S
N344 C343 1.347 . S
C345 C348 1.365 . S
C345 N350 1.328 . S
C345 H351 0.929 . S
C346 C347 1.362 . S
C346 C349 1.378 . S
C346 H361 0.929 . S
C347 C346 1.362 . S
C347 C348 1.366 . S
C348 C345 1.365 . S
C348 C347 1.366 . S
C348 H362 0.930 . S
C349 C346 1.378 . S
C349 N350 1.315 . S
C349 H352 0.930 . S
N350 Co330 2.194 . S
N350 C345 1.328 . S
N350 C349 1.315 . S
H351 C345 0.929 . S
H352 C349 0.930 . S
H353 C341 0.929 . S
H354 C343 0.929 . S
O355 Co330 2.351 . S
O355 C358 1.244 . S
O356 Co330 2.155 . S
O356 C358 1.240 . S
O357 Co330 2.096 . S
O357 C338 1.247 . S
C358 O355 1.244 . S
C358 O356 1.240 . S
H359 C333 0.931 . S
H360 C342 0.931 . S
H361 C346 0.929 . S
H362 C348 0.930 . S
Co363 N367 2.148 . S
Co363 N373 2.128 . S
Co363 N383 2.194 . S
Co363 O388 2.351 . S
Co363 O389 2.155 . S
Co363 O390 2.096 . S
C364 N367 1.301 . S
C364 N368 1.328 . S
C364 H369 0.930 . S
C365 C366 1.333 . S
C365 N367 1.317 . S
C365 H370 0.930 . S
C366 C365 1.333 . S
C366 N368 1.350 . S
C366 H392 0.931 . S
N367 Co363 2.148 . S
N367 C364 1.301 . S
N367 C365 1.317 . S
N368 C364 1.328 . S
N368 C366 1.350 . S
H369 C364 0.930 . S
H370 C365 0.930 . S
C371 O372 1.224 . S
C371 O390 1.247 . S
O372 C371 1.224 . S
N373 Co363 2.128 . S
N373 C374 1.355 . S
N373 C376 1.311 . S
C374 N373 1.355 . S
C374 C375 1.363 . S
C374 H386 0.929 . S
C375 C374 1.363 . S
C375 N377 1.375 . S
C375 H393 0.931 . S
C376 N373 1.311 . S
C376 N377 1.347 . S
C376 H387 0.929 . S
N377 C375 1.375 . S
N377 C376 1.347 . S
C378 C381 1.365 . S
C378 N383 1.328 . S
C378 H384 0.929 . S
C379 C380 1.362 . S
C379 C382 1.378 . S
C379 H394 0.929 . S
C380 C379 1.362 . S
C380 C381 1.366 . S
C381 C378 1.365 . S
C381 C380 1.366 . S
C381 H395 0.930 . S
C382 C379 1.378 . S
C382 N383 1.315 . S
C382 H385 0.930 . S
N383 Co363 2.194 . S
N383 C378 1.328 . S
N383 C382 1.315 . S
H384 C378 0.929 . S
H385 C382 0.930 . S
H386 C374 0.929 . S
H387 C376 0.929 . S
O388 Co363 2.351 . S
O388 C391 1.244 . S
O389 Co363 2.155 . S
O389 C391 1.240 . S
O390 Co363 2.096 . S
O390 C371 1.247 . S
C391 O388 1.244 . S
C391 O389 1.240 . S
H392 C366 0.931 . S
H393 C375 0.931 . S
H394 C379 0.929 . S
H395 C381 0.930 . S
C396 C397 1.369 . S
C396 C398 1.419 . S
C396 H400 0.930 . S
C397 C396 1.369 . S
C397 C406 1.429 . S
C398 C396 1.419 . S
C398 C399 1.363 . S
C398 H401 0.929 . S
C399 C398 1.363 . S
C399 C405 1.428 . S
H400 C396 0.930 . S
H401 C398 0.929 . S
S402 N403 1.613 . S
S402 N404 1.610 . S
N403 S402 1.613 . S
N403 C406 1.350 . S
N404 S402 1.610 . S
N404 C405 1.351 . S
C405 C399 1.428 . S
C405 N404 1.351 . S
C405 C406 1.434 . S
C406 C397 1.429 . S
C406 N403 1.350 . S
C406 C405 1.434 . S
C407 C408 1.369 . S
C407 C409 1.419 . S
C407 H411 0.930 . S
C408 C407 1.369 . S
C408 C417 1.429 . S
C409 C407 1.419 . S
C409 C410 1.363 . S
C409 H412 0.929 . S
C410 C409 1.363 . S
C410 C416 1.428 . S
H411 C407 0.930 . S
H412 C409 0.929 . S
S413 N414 1.613 . S
S413 N415 1.610 . S
N414 S413 1.613 . S
N414 C417 1.350 . S
N415 S413 1.610 . S
N415 C416 1.351 . S
C416 C410 1.428 . S
C416 N415 1.351 . S
C416 C417 1.434 . S
C417 C408 1.429 . S
C417 N414 1.350 . S
C417 C416 1.434 . S
C418 C419 1.369 . S
C418 C420 1.419 . S
C418 H422 0.930 . S
C419 C418 1.369 . S
C419 C428 1.429 . S
C420 C418 1.419 . S
C420 C421 1.363 . S
C420 H423 0.929 . S
C421 C420 1.363 . S
C421 C427 1.428 . S
H422 C418 0.930 . S
H423 C420 0.929 . S
S424 N425 1.613 . S
S424 N426 1.610 . S
N425 S424 1.613 . S
N425 C428 1.350 . S
N426 S424 1.610 . S
N426 C427 1.351 . S
C427 C421 1.428 . S
C427 N426 1.351 . S
C427 C428 1.434 . S
C428 C419 1.429 . S
C428 N425 1.350 . S
C428 C427 1.434 . S
C429 C430 1.369 . S
C429 C431 1.419 . S
C429 H433 0.930 . S
C430 C429 1.369 . S
C430 C439 1.429 . S
C431 C429 1.419 . S
C431 C432 1.363 . S
C431 H434 0.929 . S
C432 C431 1.363 . S
C432 C438 1.428 . S
H433 C429 0.930 . S
H434 C431 0.929 . S
S435 N436 1.613 . S
S435 N437 1.610 . S
N436 S435 1.613 . S
N436 C439 1.350 . S
N437 S435 1.610 . S
N437 C438 1.351 . S
C438 C432 1.428 . S
C438 N437 1.351 . S
C438 C439 1.434 . S
C439 C430 1.429 . S
C439 N436 1.350 . S
C439 C438 1.434 . S
C440 C441 1.369 . S
C440 C442 1.419 . S
C440 H444 0.930 . S
C441 C440 1.369 . S
C441 C450 1.429 . S
C442 C440 1.419 . S
C442 C443 1.363 . S
C442 H445 0.929 . S
C443 C442 1.363 . S
C443 C449 1.428 . S
H444 C440 0.930 . S
H445 C442 0.929 . S
S446 N447 1.613 . S
S446 N448 1.610 . S
N447 S446 1.613 . S
N447 C450 1.350 . S
N448 S446 1.610 . S
N448 C449 1.351 . S
C449 C443 1.428 . S
C449 N448 1.351 . S
C449 C450 1.434 . S
C450 C441 1.429 . S
C450 N447 1.350 . S
C450 C449 1.434 . S
C451 C452 1.369 . S
C451 C453 1.419 . S
C451 H455 0.930 . S
C452 C451 1.369 . S
C452 C461 1.429 . S
C453 C451 1.419 . S
C453 C454 1.363 . S
C453 H456 0.929 . S
C454 C453 1.363 . S
C454 C460 1.428 . S
H455 C451 0.930 . S
H456 C453 0.929 . S
S457 N458 1.613 . S
S457 N459 1.610 . S
N458 S457 1.613 . S
N458 C461 1.350 . S
N459 S457 1.610 . S
N459 C460 1.351 . S
C460 C454 1.428 . S
C460 N459 1.351 . S
C460 C461 1.434 . S
C461 C452 1.429 . S
C461 N458 1.350 . S
C461 C460 1.434 . S
C462 C463 1.369 . S
C462 C464 1.419 . S
C462 H466 0.930 . S
C463 C462 1.369 . S
C463 C472 1.429 . S
C464 C462 1.419 . S
C464 C465 1.363 . S
C464 H467 0.929 . S
C465 C464 1.363 . S
C465 C471 1.428 . S
H466 C462 0.930 . S
H467 C464 0.929 . S
S468 N469 1.613 . S
S468 N470 1.610 . S
N469 S468 1.613 . S
N469 C472 1.350 . S
N470 S468 1.610 . S
N470 C471 1.351 . S
C471 C465 1.428 . S
C471 N470 1.351 . S
C471 C472 1.434 . S
C472 C463 1.429 . S
C472 N469 1.350 . S
C472 C471 1.434 . S
C473 C474 1.369 . S
C473 C475 1.419 . S
C473 H477 0.930 . S
C474 C473 1.369 . S
C474 C483 1.429 1_556 S
C475 C473 1.419 . S
C475 C476 1.363 1_556 S
C475 H478 0.929 . S
C476 C475 1.363 1_554 S
C476 C482 1.428 . S
H477 C473 0.930 . S
H478 C475 0.929 . S
S479 N480 1.613 . S
S479 N481 1.610 . S
N480 S479 1.613 . S
N480 C483 1.350 . S
N481 S479 1.610 . S
N481 C482 1.351 . S
C482 C476 1.428 . S
C482 N481 1.351 . S
C482 C483 1.434 . S
C483 C474 1.429 1_554 S
C483 N480 1.350 . S
C483 C482 1.434 . S
C484 C485 1.369 . S
C484 C486 1.419 . S
C484 H488 0.930 . S
C485 C484 1.369 . S
C485 C494 1.429 . S
C486 C484 1.419 . S
C486 C487 1.363 . S
C486 H489 0.929 . S
C487 C486 1.363 . S
C487 C493 1.428 . S
H488 C484 0.930 . S
H489 C486 0.929 . S
S490 N491 1.613 . S
S490 N492 1.610 . S
N491 S490 1.613 . S
N491 C494 1.350 . S
N492 S490 1.610 . S
N492 C493 1.351 . S
C493 C487 1.428 . S
C493 N492 1.351 . S
C493 C494 1.434 . S
C494 C485 1.429 . S
C494 N491 1.350 . S
C494 C493 1.434 . S
C495 C496 1.369 . S
C495 C497 1.419 . S
C495 H499 0.930 . S
C496 C495 1.369 . S
C496 C505 1.429 . S
C497 C495 1.419 . S
C497 C498 1.363 . S
C497 H500 0.929 . S
C498 C497 1.363 . S
C498 C504 1.428 . S
H499 C495 0.930 . S
H500 C497 0.929 . S
S501 N502 1.613 . S
S501 N503 1.610 . S
N502 S501 1.613 . S
N502 C505 1.350 . S
N503 S501 1.610 . S
N503 C504 1.351 . S
C504 C498 1.428 . S
C504 N503 1.351 . S
C504 C505 1.434 . S
C505 C496 1.429 . S
C505 N502 1.350 . S
C505 C504 1.434 . S
C506 C507 1.369 . S
C506 C508 1.419 . S
C506 H510 0.930 . S
C507 C506 1.369 . S
C507 C516 1.429 . S
C508 C506 1.419 . S
C508 C509 1.363 . S
C508 H511 0.929 . S
C509 C508 1.363 . S
C509 C515 1.428 . S
H510 C506 0.930 . S
H511 C508 0.929 . S
S512 N513 1.613 . S
S512 N514 1.610 . S
N513 S512 1.613 . S
N513 C516 1.350 . S
N514 S512 1.610 . S
N514 C515 1.351 . S
C515 C509 1.428 . S
C515 N514 1.351 . S
C515 C516 1.434 . S
C516 C507 1.429 . S
C516 N513 1.350 . S
C516 C515 1.434 . S
C517 C518 1.369 . S
C517 C519 1.419 . S
C517 H521 0.930 . S
C518 C517 1.369 . S
C518 C527 1.429 . S
C519 C517 1.419 . S
C519 C520 1.363 . S
C519 H522 0.929 . S
C520 C519 1.363 . S
C520 C526 1.428 . S
H521 C517 0.930 . S
H522 C519 0.929 . S
S523 N524 1.613 . S
S523 N525 1.610 . S
N524 S523 1.613 . S
N524 C527 1.350 . S
N525 S523 1.610 . S
N525 C526 1.351 . S
C526 C520 1.428 . S
C526 N525 1.351 . S
C526 C527 1.434 . S
C527 C518 1.429 . S
C527 N524 1.350 . S
C527 C526 1.434 . S
C528 C529 1.369 . S
C528 C530 1.419 . S
C528 H532 0.930 . S
C529 C528 1.369 . S
C529 C538 1.429 1_554 S
C530 C528 1.419 . S
C530 C531 1.363 1_554 S
C530 H533 0.929 . S
C531 C530 1.363 1_556 S
C531 C537 1.428 . S
H532 C528 0.930 . S
H533 C530 0.929 . S
S534 N535 1.613 . S
S534 N536 1.610 . S
N535 S534 1.613 . S
N535 C538 1.350 . S
N536 S534 1.610 . S
N536 C537 1.351 . S
C537 C531 1.428 . S
C537 N536 1.351 . S
C537 C538 1.434 . S
C538 C529 1.429 1_556 S
C538 N535 1.350 . S
C538 C537 1.434 . S
C539 C540 1.369 . S
C539 C541 1.419 . S
C539 H543 0.930 . S
C540 C539 1.369 . S
C540 C549 1.429 . S
C541 C539 1.419 . S
C541 C542 1.363 . S
C541 H544 0.929 . S
C542 C541 1.363 . S
C542 C548 1.428 . S
H543 C539 0.930 . S
H544 C541 0.929 . S
S545 N546 1.613 . S
S545 N547 1.610 . S
N546 S545 1.613 . S
N546 C549 1.350 . S
N547 S545 1.610 . S
N547 C548 1.351 . S
C548 C542 1.428 . S
C548 N547 1.351 . S
C548 C549 1.434 . S
C549 C540 1.429 . S
C549 N546 1.350 . S
C549 C548 1.434 . S
C550 C551 1.369 . S
C550 C552 1.419 . S
C550 H554 0.930 . S
C551 C550 1.369 . S
C551 C560 1.429 . S
C552 C550 1.419 . S
C552 C553 1.363 . S
C552 H555 0.929 . S
C553 C552 1.363 . S
C553 C559 1.428 . S
H554 C550 0.930 . S
H555 C552 0.929 . S
S556 N557 1.613 . S
S556 N558 1.610 . S
N557 S556 1.613 . S
N557 C560 1.350 . S
N558 S556 1.610 . S
N558 C559 1.351 . S
C559 C553 1.428 . S
C559 N558 1.351 . S
C559 C560 1.434 . S
C560 C551 1.429 . S
C560 N557 1.350 . S
C560 C559 1.434 . S
C561 C562 1.369 . S
C561 C563 1.419 . S
C561 H565 0.930 . S
C562 C561 1.369 . S
C562 C571 1.429 . S
C563 C561 1.419 . S
C563 C564 1.363 . S
C563 H566 0.929 . S
C564 C563 1.363 . S
C564 C570 1.428 . S
H565 C561 0.930 . S
H566 C563 0.929 . S
S567 N568 1.613 . S
S567 N569 1.610 . S
N568 S567 1.613 . S
N568 C571 1.350 . S
N569 S567 1.610 . S
N569 C570 1.351 . S
C570 C564 1.428 . S
C570 N569 1.351 . S
C570 C571 1.434 . S
C571 C562 1.429 . S
C571 N568 1.350 . S
C571 C570 1.434 . S
C572 C573 1.369 . S
C572 C574 1.419 . S
C572 H576 0.930 . S
C573 C572 1.369 . S
C573 C582 1.429 . S
C574 C572 1.419 . S
C574 C575 1.363 . S
C574 H577 0.929 . S
C575 C574 1.363 . S
C575 C581 1.428 . S
H576 C572 0.930 . S
H577 C574 0.929 . S
S578 N579 1.613 . S
S578 N580 1.610 . S
N579 S578 1.613 . S
N579 C582 1.350 . S
N580 S578 1.610 . S
N580 C581 1.351 . S
C581 C575 1.428 . S
C581 N580 1.351 . S
C581 C582 1.434 . S
C582 C573 1.429 . S
C582 N579 1.350 . S
C582 C581 1.434 . S
C583 C584 1.369 . S
C583 C585 1.419 . S
C583 H587 0.930 . S
C584 C583 1.369 . S
C584 C593 1.429 . S
C585 C583 1.419 . S
C585 C586 1.363 . S
C585 H588 0.929 . S
C586 C585 1.363 . S
C586 C592 1.428 . S
H587 C583 0.930 . S
H588 C585 0.929 . S
S589 N590 1.613 . S
S589 N591 1.610 . S
N590 S589 1.613 . S
N590 C593 1.350 . S
N591 S589 1.610 . S
N591 C592 1.351 . S
C592 C586 1.428 . S
C592 N591 1.351 . S
C592 C593 1.434 . S
C593 C584 1.429 . S
C593 N590 1.350 . S
C593 C592 1.434 . S
C594 C595 1.369 . S
C594 C596 1.419 . S
C594 H598 0.930 . S
C595 C594 1.369 . S
C595 C604 1.429 . S
C596 C594 1.419 . S
C596 C597 1.363 . S
C596 H599 0.929 . S
C597 C596 1.363 . S
C597 C603 1.428 . S
H598 C594 0.930 . S
H599 C596 0.929 . S
S600 N601 1.613 . S
S600 N602 1.610 . S
N601 S600 1.613 . S
N601 C604 1.350 . S
N602 S600 1.610 . S
N602 C603 1.351 . S
C603 C597 1.428 . S
C603 N602 1.351 . S
C603 C604 1.434 . S
C604 C595 1.429 . S
C604 N601 1.350 . S
C604 C603 1.434 . S
C605 C606 1.369 . S
C605 C607 1.419 1_655 S
C605 H609 0.930 . S
C606 C605 1.369 . S
C606 C615 1.429 . S
C607 C605 1.419 1_455 S
C607 C608 1.363 . S
C607 H610 0.929 . S
C608 C607 1.363 . S
C608 C614 1.428 . S
H609 C605 0.930 . S
H610 C607 0.929 . S
S611 N612 1.613 . S
S611 N613 1.612 . S
N612 S611 1.613 . S
N612 C615 1.350 . S
N613 S611 1.612 . S
N613 C614 1.363 1_655 S
C614 C608 1.428 . S
C614 N613 1.363 1_455 S
C614 C615 1.434 1_455 S
C615 C606 1.429 . S
C615 N612 1.350 . S
C615 C614 1.434 1_655 S
C616 C617 1.369 . S
C616 C618 1.419 . S
C616 H620 0.930 . S
C617 C616 1.369 . S
C617 C626 1.429 1_565 S
C618 C616 1.419 . S
C618 C619 1.363 1_565 S
C618 H621 0.929 . S
C619 C618 1.363 1_545 S
C619 C625 1.428 . S
H620 C616 0.930 . S
H621 C618 0.929 . S
S622 N623 1.613 . S
S622 N624 1.610 . S
N623 S622 1.613 . S
N623 C626 1.350 . S
N624 S622 1.610 . S
N624 C625 1.351 . S
C625 C619 1.428 . S
C625 N624 1.351 . S
C625 C626 1.434 . S
C626 C617 1.429 1_545 S
C626 N623 1.350 . S
C626 C625 1.434 . S
C627 C628 1.369 . S
C627 C629 1.419 . S
C627 H631 0.930 . S
C628 C627 1.369 . S
C628 C637 1.429 . S
C629 C627 1.419 . S
C629 C630 1.363 . S
C629 H632 0.929 . S
C630 C629 1.363 . S
C630 C636 1.428 . S
H631 C627 0.930 . S
H632 C629 0.929 . S
S633 N634 1.613 . S
S633 N635 1.610 . S
N634 S633 1.613 . S
N634 C637 1.350 . S
N635 S633 1.610 . S
N635 C636 1.351 . S
C636 C630 1.428 . S
C636 N635 1.351 . S
C636 C637 1.434 . S
C637 C628 1.429 . S
C637 N634 1.350 . S
C637 C636 1.434 . S
C638 C639 1.369 . S
C638 C640 1.424 . S
C638 H642 0.930 . S
C639 C638 1.369 . S
C639 C648 1.429 . S
C640 C638 1.424 . S
C640 C641 1.349 1_455 S
C640 H643 0.938 . S
C641 C640 1.349 1_655 S
C641 C647 1.428 . S
H642 C638 0.930 . S
H643 C640 0.938 . S
S644 N645 1.613 1_655 S
S644 N646 1.610 . S
N645 S644 1.613 1_455 S
N645 C648 1.350 . S
N646 S644 1.610 . S
N646 C647 1.351 . S
C647 C641 1.428 . S
C647 N646 1.351 . S
C647 C648 1.434 1_655 S
C648 C639 1.429 . S
C648 N645 1.350 . S
C648 C647 1.434 1_455 S
C649 C650 1.369 1_545 S
C649 C651 1.419 1_554 S
C649 H653 0.930 . S
C650 C649 1.369 1_565 S
C650 C659 1.429 . S
C651 C649 1.419 1_556 S
C651 C652 1.363 . S
C651 H654 0.929 . S
C652 C651 1.363 . S
C652 C658 1.428 1_545 S
H653 C649 0.930 . S
H654 C651 0.929 . S
S655 N656 1.613 1_556 S
S655 N657 1.610 . S
N656 S655 1.613 1_554 S
N656 C659 1.350 . S
N657 S655 1.610 . S
N657 C658 1.351 . S
C658 C652 1.428 1_565 S
C658 N657 1.351 . S
C658 C659 1.434 1_556 S
C659 C650 1.429 . S
C659 N656 1.350 . S
C659 C658 1.434 1_554 S
C660 C661 1.369 . S
C660 C662 1.419 . S
C660 H664 0.930 1_556 S
C661 C660 1.369 . S
C661 C670 1.429 . S
C662 C660 1.419 . S
C662 C663 1.363 . S
C662 H665 0.929 . S
C663 C662 1.363 . S
C663 C669 1.428 . S
H664 C660 0.930 1_554 S
H665 C662 0.929 . S
S666 N667 1.613 . S
S666 N668 1.610 . S
N667 S666 1.613 . S
N667 C670 1.350 . S
N668 S666 1.610 . S
N668 C669 1.351 . S
C669 C663 1.428 . S
C669 N668 1.351 . S
C669 C670 1.434 . S
C670 C661 1.429 . S
C670 N667 1.350 . S
C670 C669 1.434 . S
C671 C672 1.369 . S
C671 C673 1.419 . S
C671 H675 0.930 1_554 S
C672 C671 1.369 . S
C672 C681 1.429 . S
C673 C671 1.419 . S
C673 C674 1.363 . S
C673 H676 0.929 . S
C674 C673 1.363 . S
C674 C680 1.428 . S
H675 C671 0.930 1_556 S
H676 C673 0.929 . S
S677 N678 1.613 . S
S677 N679 1.610 . S
N678 S677 1.613 . S
N678 C681 1.350 . S
N679 S677 1.610 . S
N679 C680 1.351 . S
C680 C674 1.428 . S
C680 N679 1.351 . S
C680 C681 1.434 . S
C681 C672 1.429 . S
C681 N678 1.350 . S
C681 C680 1.434 . S
C682 C683 1.369 . S
C682 C684 1.419 . S
C682 H686 0.930 . S
C683 C682 1.369 . S
C683 C692 1.429 . S
C684 C682 1.419 . S
C684 C685 1.363 . S
C684 H687 0.929 . S
C685 C684 1.363 . S
C685 C691 1.428 . S
H686 C682 0.930 . S
H687 C684 0.929 . S
S688 N689 1.613 . S
S688 N690 1.610 . S
N689 S688 1.613 . S
N689 C692 1.350 . S
N690 S688 1.610 . S
N690 C691 1.351 . S
C691 C685 1.428 . S
C691 N690 1.351 . S
C691 C692 1.434 . S
C692 C683 1.429 . S
C692 N689 1.350 . S
C692 C691 1.434 . S
C693 C694 1.369 . S
C693 C695 1.419 . S
C693 H697 0.930 . S
C694 C693 1.369 . S
C694 C703 1.429 . S
C695 C693 1.419 . S
C695 C696 1.363 . S
C695 H698 0.929 . S
C696 C695 1.363 . S
C696 C702 1.428 . S
H697 C693 0.930 . S
H698 C695 0.929 . S
S699 N700 1.613 . S
S699 N701 1.610 . S
N700 S699 1.613 . S
N700 C703 1.350 . S
N701 S699 1.610 . S
N701 C702 1.351 . S
C702 C696 1.428 . S
C702 N701 1.351 . S
C702 C703 1.434 . S
C703 C694 1.429 . S
C703 N700 1.350 . S
C703 C702 1.434 . S
C704 C705 1.369 . S
C704 C706 1.419 . S
C704 H708 0.930 . S
C705 C704 1.369 . S
C705 C714 1.429 . S
C706 C704 1.419 . S
C706 C707 1.363 . S
C706 H709 0.929 . S
C707 C706 1.363 . S
C707 C713 1.428 . S
H708 C704 0.930 . S
H709 C706 0.929 . S
S710 N711 1.613 . S
S710 N712 1.610 . S
N711 S710 1.613 . S
N711 C714 1.350 . S
N712 S710 1.610 . S
N712 C713 1.351 . S
C713 C707 1.428 . S
C713 N712 1.351 . S
C713 C714 1.434 . S
C714 C705 1.429 . S
C714 N711 1.350 . S
C714 C713 1.434 . S
C715 C716 1.369 . S
C715 C717 1.419 . S
C715 H719 0.930 . S
C716 C715 1.369 . S
C716 C725 1.429 . S
C717 C715 1.419 . S
C717 C718 1.363 . S
C717 H720 0.929 . S
C718 C717 1.363 . S
C718 C724 1.428 . S
H719 C715 0.930 . S
H720 C717 0.929 . S
S721 N722 1.613 . S
S721 N723 1.610 . S
N722 S721 1.613 . S
N722 C725 1.350 . S
N723 S721 1.610 . S
N723 C724 1.351 . S
C724 C718 1.428 . S
C724 N723 1.351 . S
C724 C725 1.434 . S
C725 C716 1.429 . S
C725 N722 1.350 . S
C725 C724 1.434 . S
C397 N344 1.248 . S
C399 N14 1.232 . S
C408 N47 1.281 . S
C410 N377 1.269 . S
C419 N80 1.267 . S
C421 N212 1.281 . S
C430 N113 1.243 . S
C432 N245 1.237 . S
C441 N146 1.268 . S
C443 N278 1.277 1_556 S
C452 N179 1.281 1_554 S
C454 N311 1.265 . S
C463 N5 1.718 . S
C465 C173 1.740 . S
C474 C8 1.752 . S
C476 N38 1.717 1_455 S
C485 C41 1.762 . S
C487 N71 1.724 1_545 S
C496 N104 1.720 . S
C498 C74 1.759 . S
C507 N137 1.750 1_655 S
C509 C107 1.778 . S
C518 N170 1.727 1_565 S
C520 C140 1.757 . S
C529 C239 1.754 . S
C531 N203 1.714 . S
C540 N236 1.718 1_455 S
C542 C272 1.744 . S
C551 N269 1.730 1_545 S
C553 C305 1.756 . S
C562 N302 1.750 . S
C564 C338 1.780 . S
C573 N335 1.726 1_655 S
C575 C371 1.757 . S
C584 N368 1.730 1_565 S
C586 C206 1.760 . S
C595 C28 1.057 . S
C597 C325 1.068 . S
C606 C61 1.106 . S
C608 C358 1.112 . S
C617 C94 1.105 . S
C619 C391 1.093 . S
C628 C127 1.108 . S
C630 C226 1.110 . S
C639 C160 1.063 . S
C641 C259 1.064 . S
C650 C292 1.084 . S
C652 C193 1.092 . S
C661 C215 1.546 . S
C663 C17 1.555 . S
C672 C50 1.547 . S
C674 C248 1.555 . S
C683 C83 1.568 . S
C685 C281 1.568 . S
C694 C314 1.587 . S
C696 C116 1.582 . S
C705 C149 1.586 . S
C707 C347 1.582 . S
C716 C380 1.561 . S
C718 C182 1.567 . S
