# Generated by pormake.
# Topology ict, (4)-cn, num edge types: 1
# Building blocks:
#     Node 0, Type 0, BuildingBlock: QUQFOY_clean_sbu_3, # of connection points: 4
#     Node 1, Type 0, BuildingBlock: QUQFOY_clean_sbu_3, # of connection points: 4
#     Node 2, Type 0, BuildingBlock: QUQFOY_clean_sbu_3, # of connection points: 4
#     Node 3, Type 0, BuildingBlock: QUQFOY_clean_sbu_3, # of connection points: 4
#     Node 4, Type 0, BuildingBlock: QUQFOY_clean_sbu_3, # of connection points: 4
#     Node 5, Type 0, BuildingBlock: QUQFOY_clean_sbu_3, # of connection points: 4
#     Node 6, Type 0, BuildingBlock: QUQFOY_clean_sbu_3, # of connection points: 4
#     Node 7, Type 0, BuildingBlock: QUQFOY_clean_sbu_3, # of connection points: 4
#     Node 8, Type 0, BuildingBlock: QUQFOY_clean_sbu_3, # of connection points: 4
#     Node 9, Type 0, BuildingBlock: QUQFOY_clean_sbu_3, # of connection points: 4
#     Node 10, Type 0, BuildingBlock: QUQFOY_clean_sbu_3, # of connection points: 4
#     Node 11, Type 0, BuildingBlock: QUQFOY_clean_sbu_3, # of connection points: 4
#     Node 12, Type 0, BuildingBlock: QUQFOY_clean_sbu_3, # of connection points: 4
#     Node 13, Type 0, BuildingBlock: QUQFOY_clean_sbu_3, # of connection points: 4
#     Node 14, Type 0, BuildingBlock: QUQFOY_clean_sbu_3, # of connection points: 4
#     Node 15, Type 0, BuildingBlock: QUQFOY_clean_sbu_3, # of connection points: 4
#     Node 16, Type 0, BuildingBlock: QUQFOY_clean_sbu_3, # of connection points: 4
#     Node 17, Type 0, BuildingBlock: QUQFOY_clean_sbu_3, # of connection points: 4
#     Node 18, Type 0, BuildingBlock: QUQFOY_clean_sbu_3, # of connection points: 4
#     Node 19, Type 0, BuildingBlock: QUQFOY_clean_sbu_3, # of connection points: 4
#     Node 20, Type 0, BuildingBlock: QUQFOY_clean_sbu_3, # of connection points: 4
#     Node 21, Type 0, BuildingBlock: QUQFOY_clean_sbu_3, # of connection points: 4
#     Node 22, Type 0, BuildingBlock: QUQFOY_clean_sbu_3, # of connection points: 4
#     Node 23, Type 0, BuildingBlock: QUQFOY_clean_sbu_3, # of connection points: 4
#     Node 24, Type 0, BuildingBlock: QUQFOY_clean_sbu_3, # of connection points: 4
#     Node 25, Type 0, BuildingBlock: QUQFOY_clean_sbu_3, # of connection points: 4
#     Node 26, Type 0, BuildingBlock: QUQFOY_clean_sbu_3, # of connection points: 4
#     Node 27, Type 0, BuildingBlock: QUQFOY_clean_sbu_3, # of connection points: 4
#     Node 28, Type 0, BuildingBlock: QUQFOY_clean_sbu_3, # of connection points: 4
#     Node 29, Type 0, BuildingBlock: QUQFOY_clean_sbu_3, # of connection points: 4
#     Node 30, Type 0, BuildingBlock: QUQFOY_clean_sbu_3, # of connection points: 4
#     Node 31, Type 0, BuildingBlock: QUQFOY_clean_sbu_3, # of connection points: 4
#     Node 32, Type 0, BuildingBlock: QUQFOY_clean_sbu_3, # of connection points: 4
#     Node 33, Type 0, BuildingBlock: QUQFOY_clean_sbu_3, # of connection points: 4
#     Node 34, Type 0, BuildingBlock: QUQFOY_clean_sbu_3, # of connection points: 4
#     Node 35, Type 0, BuildingBlock: QUQFOY_clean_sbu_3, # of connection points: 4
#     Edge 36, Type (0, 0), BuildingBlock: AJUNOK_clean_linker_0, # of connection points: 2
#     Edge 37, Type (0, 0), BuildingBlock: AJUNOK_clean_linker_0, # of connection points: 2
#     Edge 38, Type (0, 0), BuildingBlock: AJUNOK_clean_linker_0, # of connection points: 2
#     Edge 39, Type (0, 0), BuildingBlock: AJUNOK_clean_linker_0, # of connection points: 2
#     Edge 40, Type (0, 0), BuildingBlock: AJUNOK_clean_linker_0, # of connection points: 2
#     Edge 41, Type (0, 0), BuildingBlock: AJUNOK_clean_linker_0, # of connection points: 2
#     Edge 42, Type (0, 0), BuildingBlock: AJUNOK_clean_linker_0, # of connection points: 2
#     Edge 43, Type (0, 0), BuildingBlock: AJUNOK_clean_linker_0, # of connection points: 2
#     Edge 44, Type (0, 0), BuildingBlock: AJUNOK_clean_linker_0, # of connection points: 2
#     Edge 45, Type (0, 0), BuildingBlock: AJUNOK_clean_linker_0, # of connection points: 2
#     Edge 46, Type (0, 0), BuildingBlock: AJUNOK_clean_linker_0, # of connection points: 2
#     Edge 47, Type (0, 0), BuildingBlock: AJUNOK_clean_linker_0, # of connection points: 2
#     Edge 48, Type (0, 0), BuildingBlock: AJUNOK_clean_linker_0, # of connection points: 2
#     Edge 49, Type (0, 0), BuildingBlock: AJUNOK_clean_linker_0, # of connection points: 2
#     Edge 50, Type (0, 0), BuildingBlock: AJUNOK_clean_linker_0, # of connection points: 2
#     Edge 51, Type (0, 0), BuildingBlock: AJUNOK_clean_linker_0, # of connection points: 2
#     Edge 52, Type (0, 0), BuildingBlock: AJUNOK_clean_linker_0, # of connection points: 2
#     Edge 53, Type (0, 0), BuildingBlock: AJUNOK_clean_linker_0, # of connection points: 2
#     Edge 54, Type (0, 0), BuildingBlock: AJUNOK_clean_linker_0, # of connection points: 2
#     Edge 55, Type (0, 0), BuildingBlock: AJUNOK_clean_linker_0, # of connection points: 2
#     Edge 56, Type (0, 0), BuildingBlock: AJUNOK_clean_linker_0, # of connection points: 2
#     Edge 57, Type (0, 0), BuildingBlock: AJUNOK_clean_linker_0, # of connection points: 2
#     Edge 58, Type (0, 0), BuildingBlock: AJUNOK_clean_linker_0, # of connection points: 2
#     Edge 59, Type (0, 0), BuildingBlock: AJUNOK_clean_linker_0, # of connection points: 2
#     Edge 60, Type (0, 0), BuildingBlock: AJUNOK_clean_linker_0, # of connection points: 2
#     Edge 61, Type (0, 0), BuildingBlock: AJUNOK_clean_linker_0, # of connection points: 2
#     Edge 62, Type (0, 0), BuildingBlock: AJUNOK_clean_linker_0, # of connection points: 2
#     Edge 63, Type (0, 0), BuildingBlock: AJUNOK_clean_linker_0, # of connection points: 2
#     Edge 64, Type (0, 0), BuildingBlock: AJUNOK_clean_linker_0, # of connection points: 2
#     Edge 65, Type (0, 0), BuildingBlock: AJUNOK_clean_linker_0, # of connection points: 2
#     Edge 66, Type (0, 0), BuildingBlock: AJUNOK_clean_linker_0, # of connection points: 2
#     Edge 67, Type (0, 0), BuildingBlock: AJUNOK_clean_linker_0, # of connection points: 2
#     Edge 68, Type (0, 0), BuildingBlock: AJUNOK_clean_linker_0, # of connection points: 2
#     Edge 69, Type (0, 0), BuildingBlock: AJUNOK_clean_linker_0, # of connection points: 2
#     Edge 70, Type (0, 0), BuildingBlock: AJUNOK_clean_linker_0, # of connection points: 2
#     Edge 71, Type (0, 0), BuildingBlock: AJUNOK_clean_linker_0, # of connection points: 2
#     Edge 72, Type (0, 0), BuildingBlock: AJUNOK_clean_linker_0, # of connection points: 2
#     Edge 73, Type (0, 0), BuildingBlock: AJUNOK_clean_linker_0, # of connection points: 2
#     Edge 74, Type (0, 0), BuildingBlock: AJUNOK_clean_linker_0, # of connection points: 2
#     Edge 75, Type (0, 0), BuildingBlock: AJUNOK_clean_linker_0, # of connection points: 2
#     Edge 76, Type (0, 0), BuildingBlock: AJUNOK_clean_linker_0, # of connection points: 2
#     Edge 77, Type (0, 0), BuildingBlock: AJUNOK_clean_linker_0, # of connection points: 2
#     Edge 78, Type (0, 0), BuildingBlock: AJUNOK_clean_linker_0, # of connection points: 2
#     Edge 79, Type (0, 0), BuildingBlock: AJUNOK_clean_linker_0, # of connection points: 2
#     Edge 80, Type (0, 0), BuildingBlock: AJUNOK_clean_linker_0, # of connection points: 2
#     Edge 81, Type (0, 0), BuildingBlock: AJUNOK_clean_linker_0, # of connection points: 2
#     Edge 82, Type (0, 0), BuildingBlock: AJUNOK_clean_linker_0, # of connection points: 2
#     Edge 83, Type (0, 0), BuildingBlock: AJUNOK_clean_linker_0, # of connection points: 2
#     Edge 84, Type (0, 0), BuildingBlock: AJUNOK_clean_linker_0, # of connection points: 2
#     Edge 85, Type (0, 0), BuildingBlock: AJUNOK_clean_linker_0, # of connection points: 2
#     Edge 86, Type (0, 0), BuildingBlock: AJUNOK_clean_linker_0, # of connection points: 2
#     Edge 87, Type (0, 0), BuildingBlock: AJUNOK_clean_linker_0, # of connection points: 2
#     Edge 88, Type (0, 0), BuildingBlock: AJUNOK_clean_linker_0, # of connection points: 2
#     Edge 89, Type (0, 0), BuildingBlock: AJUNOK_clean_linker_0, # of connection points: 2
#     Edge 90, Type (0, 0), BuildingBlock: AJUNOK_clean_linker_0, # of connection points: 2
#     Edge 91, Type (0, 0), BuildingBlock: AJUNOK_clean_linker_0, # of connection points: 2
#     Edge 92, Type (0, 0), BuildingBlock: AJUNOK_clean_linker_0, # of connection points: 2
#     Edge 93, Type (0, 0), BuildingBlock: AJUNOK_clean_linker_0, # of connection points: 2
#     Edge 94, Type (0, 0), BuildingBlock: AJUNOK_clean_linker_0, # of connection points: 2
#     Edge 95, Type (0, 0), BuildingBlock: AJUNOK_clean_linker_0, # of connection points: 2
#     Edge 96, Type (0, 0), BuildingBlock: AJUNOK_clean_linker_0, # of connection points: 2
#     Edge 97, Type (0, 0), BuildingBlock: AJUNOK_clean_linker_0, # of connection points: 2
#     Edge 98, Type (0, 0), BuildingBlock: AJUNOK_clean_linker_0, # of connection points: 2
#     Edge 99, Type (0, 0), BuildingBlock: AJUNOK_clean_linker_0, # of connection points: 2
#     Edge 100, Type (0, 0), BuildingBlock: AJUNOK_clean_linker_0, # of connection points: 2
#     Edge 101, Type (0, 0), BuildingBlock: AJUNOK_clean_linker_0, # of connection points: 2
#     Edge 102, Type (0, 0), BuildingBlock: AJUNOK_clean_linker_0, # of connection points: 2
#     Edge 103, Type (0, 0), BuildingBlock: AJUNOK_clean_linker_0, # of connection points: 2
#     Edge 104, Type (0, 0), BuildingBlock: AJUNOK_clean_linker_0, # of connection points: 2
#     Edge 105, Type (0, 0), BuildingBlock: AJUNOK_clean_linker_0, # of connection points: 2
#     Edge 106, Type (0, 0), BuildingBlock: AJUNOK_clean_linker_0, # of connection points: 2
#     Edge 107, Type (0, 0), BuildingBlock: AJUNOK_clean_linker_0, # of connection points: 2
# Relax obj value: 0.103
# Max RMSD: 0.126
# Mean RMSD: 0.126
data_MOF--net-ict--node1-QUQFOY_clean_sbu_3--edge1-AJUNOK_clean_linker_0
_symmetry_space_group_name_H-M    P1
_symmetry_Int_Tables_number       1
_symmetry_cell_setting            triclinic
loop_
_symmetry_equiv_pos_as_xyz
'x, y, z'
_cell_length_a     49.617957
_cell_length_b     49.67603
_cell_length_c     28.041453
_cell_angle_alpha  89.956455
_cell_angle_beta   89.985914
_cell_angle_gamma 119.91352
loop_
_atom_site_label
_atom_site_type_symbol
_atom_site_fract_x
_atom_site_fract_y
_atom_site_fract_z
_atom_type_partial_charge
C0 C 0.16375 0.22386 0.03408 0.0
O1 O 0.15687 0.19786 0.05256 0.0
Cd2 Cd 0.1904 0.17695 0.0631 0.0
O3 O 0.1916 0.2426 0.02077 0.0
Cd4 Cd 0.24136 0.241 0.02525 0.0
C5 C 0.23915 0.22955 0.14372 0.0
O6 O 0.21964 0.18941 0.99156 0.0
O7 O 0.26431 0.20614 0.02379 0.0
O8 O 0.26002 0.2717 0.95208 0.0
C9 C 0.24267 0.18562 -0.00154 0.0
O10 O 0.22146 0.20099 0.13391 0.0
C11 C 0.28722 0.28988 0.9676 0.0
O12 O 0.24721 0.25033 0.1117 0.0
O13 O 0.29226 0.28655 0.011 0.0
C14 C 0.78512 0.93149 0.028 0.0
O15 O 0.81331 0.95087 0.03742 0.0
Cd16 Cd 0.83464 0.00459 0.05175 0.0
O17 O 0.76505 0.94037 0.02462 0.0
Cd18 Cd 0.76621 0.99165 0.0322 0.0
C19 C 0.78846 -0.00141 0.14756 0.0
O20 O 0.81456 0.02209 0.98984 0.0
O21 O 0.8 0.04951 0.02934 0.0
O22 O 0.73161 0.97745 0.96364 0.0
C23 C 0.81874 0.04874 -0.00062 0.0
O24 O 0.81504 0.00595 0.13047 0.0
C25 C 0.71334 0.98572 0.98141 0.0
O26 O 0.76522 0.99057 0.12007 0.0
O27 O 0.71845 -0.00505 0.02443 0.0
C28 C 0.06382 0.84095 0.03184 0.0
O29 O 0.04357 0.84898 0.03898 0.0
Cd30 Cd 0.98994 0.81494 0.05158 0.0
O31 O 0.0559 0.81228 0.02853 0.0
Cd32 Cd 0.00498 0.76131 0.03342 0.0
C33 C -0.00241 0.77584 0.14799 0.0
O34 O 0.9739 0.77785 0.98902 0.0
O35 O 0.94688 0.73603 0.02903 0.0
O36 O 0.02212 0.74303 0.96571 0.0
C37 C 0.94744 0.75485 -0.00205 0.0
O38 O 0.99031 0.79499 0.13045 0.0
C39 C 0.0136 0.71624 0.98247 0.0
O40 O 0.0052 0.76002 0.12123 0.0
O41 O 0.00292 0.71109 0.02474 0.0
C42 C 0.21246 0.1554 0.45466 0.0
O43 O 0.18797 0.15116 0.43377 0.0
Cd44 Cd 0.17326 0.18936 0.42082 0.0
O45 O 0.23234 0.18244 0.46969 0.0
Cd46 Cd 0.23512 0.2346 0.46331 0.0
C47 C 0.23065 0.23475 0.34424 0.0
O48 O 0.1834 0.21715 0.49387 0.0
O49 O 0.20259 0.26056 0.45671 0.0
O50 O 0.26342 0.25169 0.53907 0.0
C51 C 0.18179 0.24116 0.48449 0.0
O52 O 0.20144 0.21953 0.351 0.0
C53 C 0.28339 0.27851 0.52426 0.0
O54 O 0.24944 0.24054 0.37862 0.0
O55 O 0.28199 0.284 0.48039 0.0
C56 C 0.83637 0.05584 0.47923 0.0
O57 O 0.84415 0.03518 0.47498 0.0
Cd58 Cd 0.8109 0.98199 0.45778 0.0
O59 O 0.80781 0.04858 0.47689 0.0
Cd60 Cd 0.75651 -0.00091 0.46625 0.0
C61 C 0.77873 0.99295 0.35494 0.0
O62 O 0.76849 0.9648 0.51092 0.0
O63 O 0.72932 0.94112 0.46441 0.0
O64 O 0.73505 0.01436 0.53227 0.0
C65 C 0.74614 0.93922 0.49675 0.0
O66 O 0.79573 0.98414 0.3761 0.0
C67 C 0.70966 0.00774 0.51187 0.0
O68 O 0.76233 0.00144 0.37874 0.0
O69 O 0.70695 -0.00086 0.46858 0.0
C70 C 0.91624 0.76865 0.46209 0.0
O71 O 0.93577 0.79707 0.45465 0.0
Cd72 Cd 0.99052 0.81998 0.4489 0.0
O73 O 0.92537 0.74894 0.46768 0.0
Cd74 Cd 0.97754 0.75177 0.46744 0.0
C75 C -0.00631 0.77732 0.35407 0.0
O76 O 0.00636 0.7998 0.51265 0.0
O77 O 0.0351 0.78598 0.47523 0.0
O78 O 0.96146 0.71608 0.53525 0.0
C79 C 0.03343 0.80449 0.50455 0.0
O80 O -0.00062 0.80305 0.37245 0.0
C81 C 0.96957 0.69777 0.51726 0.0
O82 O 0.98251 0.7528 0.37954 0.0
O83 O 0.9798 0.70364 0.47475 0.0
C84 C 0.84201 0.76862 0.94769 0.0
O85 O 0.85038 0.79602 0.9339 0.0
Cd86 Cd 0.819 0.81943 0.92622 0.0
O87 O 0.81358 0.74966 0.95798 0.0
Cd88 Cd 0.76438 0.75294 0.95394 0.0
C89 C 0.76989 0.77306 0.83815 0.0
O90 O 0.7859 0.80292 -0.00633 0.0
O91 O 0.74196 0.78799 0.95995 0.0
O92 O 0.74322 0.71929 0.02372 0.0
C93 C 0.76337 0.80755 0.9866 0.0
O94 O 0.79 0.79994 0.85277 0.0
C95 C 0.71657 0.70179 0.00581 0.0
O96 O 0.75858 0.74988 0.86642 0.0
O97 O 0.71299 0.70681 0.96253 0.0
C98 C 0.22306 0.06222 0.95877 0.0
O99 O 0.19616 0.04306 0.94316 0.0
Cd100 Cd 0.17542 0.98869 0.93241 0.0
O101 O 0.24221 0.05308 0.96939 0.0
Cd102 Cd 0.24115 0.00216 0.96604 0.0
C103 C 0.22698 0.99283 0.84818 0.0
O104 O 0.19025 0.9721 0.00191 0.0
O105 O 0.20701 0.94421 0.96934 0.0
O106 O 0.27207 0.01641 0.03889 0.0
C107 C 0.18673 0.94538 -0.00458 0.0
O108 O 0.19878 0.98307 0.85959 0.0
C109 C 0.29162 0.00899 0.02389 0.0
O110 O 0.24856 0.00448 0.87914 0.0
O111 O 0.28865 -2e-05 0.98085 0.0
C112 C 0.93997 0.15418 0.9577 0.0
O113 O 0.95995 0.14693 0.94432 0.0
Cd114 Cd 0.0141 0.18085 0.93387 0.0
O115 O 0.94806 0.18235 0.96721 0.0
Cd116 Cd -0.00136 0.23286 0.96283 0.0
C117 C 0.00845 0.22533 0.84545 0.0
O118 O 0.03048 0.21462 0.00067 0.0
O119 O 0.05666 0.25827 0.96472 0.0
O120 O 0.98513 0.25143 0.03457 0.0
C121 C 0.05677 0.23797 0.99199 0.0
O122 O 0.01821 0.20726 0.85915 0.0
C123 C 0.99191 0.27778 0.01765 0.0
O124 O -0.0028 0.23643 0.87529 0.0
O125 O 0.0 0.28248 0.9741 0.0
C126 C 0.75949 0.83112 0.52204 0.0
O127 O 0.78766 0.83896 0.52985 0.0
Cd128 Cd 0.80874 0.80599 0.54033 0.0
O129 O 0.73869 0.80263 0.51657 0.0
Cd130 Cd 0.73777 0.75124 0.51885 0.0
C131 C 0.75975 0.76514 0.63403 0.0
O132 O 0.78661 0.7688 0.4789 0.0
O133 O 0.77032 0.72552 0.5152 0.0
O134 O 0.70379 0.73285 0.44922 0.0
C135 C 0.79055 0.7461 0.48805 0.0
O136 O 0.78649 0.78434 0.61756 0.0
C137 C 0.68443 0.70667 0.46687 0.0
O138 O 0.73648 0.75003 0.60664 0.0
O139 O 0.68883 0.70204 0.51003 0.0
C140 C 0.13856 0.92701 0.54472 0.0
O141 O 0.13279 0.94653 0.56461 0.0
Cd142 Cd 0.16849 0.00094 0.57204 0.0
O143 O 0.16567 0.93578 0.52811 0.0
Cd144 Cd 0.21574 0.98695 0.52907 0.0
C145 C 0.2198 -0.00215 0.64743 0.0
O146 O 0.19476 0.01852 0.49751 0.0
O147 O 0.24017 0.04491 0.52841 0.0
O148 O 0.23231 0.97489 0.45357 0.0
C149 C 0.21885 0.04473 0.50325 0.0
O150 O 0.2023 0.00934 0.64005 0.0
C151 C 0.25915 0.9816 0.46823 0.0
O152 O 0.22562 0.98408 0.61425 0.0
O153 O 0.26506 0.98923 0.51175 0.0
C154 C 0.06016 0.22447 0.52077 0.0
O155 O 0.04218 0.19646 0.53299 0.0
Cd156 Cd 0.98886 0.17174 0.55205 0.0
O157 O 0.04986 0.24328 0.51487 0.0
Cd158 Cd -0.0034 0.23864 0.52401 0.0
C159 C -0.00225 0.22349 0.64131 0.0
O160 O 0.9666 0.1872 0.49116 0.0
O161 O 0.93914 0.2023 0.52928 0.0
O162 O 0.00324 0.2688 0.45146 0.0
C163 C 0.93985 0.18177 0.50338 0.0
O164 O 0.99199 0.1967 0.62777 0.0
C165 C -0.00568 0.2864 0.46986 0.0
O166 O 0.00174 0.2445 0.61141 0.0
O167 O 0.98877 0.28327 0.51436 0.0
C168 C 0.81169 0.5547 0.37528 0.0
O169 O 0.80623 0.52945 0.39502 0.0
Cd170 Cd 0.84182 0.51061 0.40131 0.0
O171 O 0.83876 0.57334 0.35887 0.0
Cd172 Cd 0.88941 0.57315 0.35805 0.0
C173 C 0.89403 0.5651 0.47616 0.0
O174 O 0.86705 0.5211 0.32594 0.0
O175 O 0.91279 0.53824 0.35434 0.0
O176 O 0.90534 0.60301 0.28324 0.0
C177 C 0.89043 0.51759 0.3302 0.0
O178 O 0.87627 0.53626 0.46849 0.0
C179 C 0.93242 0.62261 0.29762 0.0
O180 O 0.89996 0.58494 0.44331 0.0
O181 O 0.93867 0.61997 0.34066 0.0
C182 C 0.42695 0.25344 0.34755 0.0
O183 O 0.45564 0.27268 0.35343 0.0
Cd184 Cd 0.48026 0.3274 0.36173 0.0
O185 O 0.40705 0.26253 0.34474 0.0
Cd186 Cd 0.40964 0.31426 0.35079 0.0
C187 C 0.43958 0.32656 0.46226 0.0
O188 O 0.45685 0.34442 0.30529 0.0
O189 O 0.44296 0.37185 0.34606 0.0
O190 O 0.37262 0.29989 0.28542 0.0
C191 C 0.4618 0.37119 0.31622 0.0
O192 O 0.46497 0.33336 0.44125 0.0
C193 C 0.35506 0.30811 0.30586 0.0
O194 O 0.41434 0.31637 0.43869 0.0
O195 O 0.3617 0.31715 0.34885 0.0
C196 C 0.7119 0.16358 0.36599 0.0
O197 O 0.69242 0.16907 0.38682 0.0
Cd198 Cd 0.63893 0.13276 0.4002 0.0
O199 O 0.70376 0.13609 0.352 0.0
Cd200 Cd 0.65401 0.0847 0.35794 0.0
C201 C 0.64743 0.08475 0.47707 0.0
O202 O 0.62165 0.10452 0.32773 0.0
O203 O 0.59566 0.0593 0.35905 0.0
O204 O 0.66614 0.06768 0.28297 0.0
C205 C 0.59546 0.08067 0.33462 0.0
O206 O 0.63529 0.10166 0.46959 0.0
C207 C 0.65879 0.04076 0.29798 0.0
O208 O 0.65981 0.07768 0.44323 0.0
O209 O 0.65114 0.03519 0.34158 0.0
C210 C 0.89068 0.49361 0.78385 0.0
O211 O 0.86467 0.48803 0.76684 0.0
Cd212 Cd 0.8467 0.52413 0.75855 0.0
O213 O 0.91076 0.52114 0.79657 0.0
Cd214 Cd 0.91278 0.57276 0.79466 0.0
C215 C 0.89976 0.57226 0.67701 0.0
O216 O 0.86209 0.55325 0.83018 0.0
O217 O 0.88011 0.59842 0.79916 0.0
O218 O 0.94408 0.5885 0.8675 0.0
C219 C 0.85933 0.57697 0.82452 0.0
O220 O 0.87124 0.55498 0.68769 0.0
C221 C 0.96383 0.61534 0.85249 0.0
O222 O 0.92101 0.57963 0.70803 0.0
O223 O 0.96079 0.62151 0.80955 0.0
C224 C 0.51568 0.39509 0.78575 0.0
O225 O 0.5245 0.376 0.77423 0.0
Cd226 Cd 0.49234 0.32243 0.7585 0.0
O227 O 0.48685 0.38597 0.79179 0.0
Cd228 Cd 0.43678 0.33448 0.7854 0.0
C229 C 0.44895 0.32923 0.66826 0.0
O230 O 0.45585 0.303 0.82211 0.0
O231 O 0.41193 0.27673 0.7869 0.0
O232 O 0.41725 0.34707 0.85674 0.0
C233 C 0.43274 0.27664 0.81297 0.0
O234 O 0.46969 0.32308 0.6822 0.0
C235 C 0.39078 0.33973 0.83963 0.0
O236 O 0.43343 0.33549 0.69794 0.0
O237 O 0.38643 0.33181 0.79602 0.0
C238 C 0.59314 0.09418 0.78575 0.0
O239 O 0.61171 0.11998 0.76623 0.0
Cd240 Cd 0.66609 0.14221 0.75468 0.0
O241 O 0.60299 0.07628 0.80057 0.0
Cd242 Cd 0.65558 0.07968 0.79659 0.0
C243 C 0.66159 0.0879 0.67705 0.0
O244 O 0.68443 0.13227 0.82666 0.0
O245 O 0.71339 0.11657 0.79511 0.0
O246 O 0.64584 0.05024 0.8711 0.0
C247 C 0.71162 0.13731 0.81893 0.0
O248 O 0.67171 0.11658 0.68474 0.0
C249 C 0.65527 0.03237 0.85545 0.0
O250 O 0.65062 0.06814 0.71073 0.0
O251 O 0.66294 0.0354 0.81174 0.0
C252 C 0.48924 0.09602 0.29316 0.0
O253 O 0.4974 0.12387 0.2824 0.0
Cd254 Cd 0.46469 0.14385 0.26325 0.0
O255 O 0.46045 0.07543 0.29641 0.0
Cd256 Cd 0.40982 0.07607 0.28604 0.0
C257 C 0.42674 0.09311 0.17039 0.0
O258 O 0.4276 0.12497 0.32559 0.0
O259 O 0.38677 0.11116 0.28372 0.0
O260 O 0.38864 0.04259 0.35579 0.0
C261 C 0.40569 0.12968 0.31438 0.0
O262 O 0.44581 0.12013 0.18582 0.0
C263 C 0.36165 0.02571 0.33858 0.0
O264 O 0.41028 0.07095 0.19887 0.0
O265 O 0.35787 0.03067 0.29531 0.0
C266 C 0.86744 0.39293 0.29463 0.0
O267 O 0.83916 0.37381 0.28541 0.0
Cd268 Cd 0.8167 0.32001 0.27025 0.0
O269 O 0.88714 0.38363 0.29926 0.0
Cd270 Cd 0.88424 0.33123 0.29305 0.0
C271 C 0.86505 0.32682 0.17658 0.0
O272 O 0.83413 0.29946 0.3316 0.0
O273 O 0.85045 0.27374 0.29134 0.0
O274 O 0.9159 0.34218 0.36485 0.0
C275 C 0.83045 0.27324 0.32002 0.0
O276 O 0.83845 0.32018 0.19272 0.0
C277 C 0.93456 0.33423 0.34771 0.0
O278 O 0.88763 0.33336 0.20485 0.0
O279 O 0.9312 0.32694 0.30379 0.0
C280 C 0.58634 0.47649 0.29428 0.0
O281 O 0.60742 0.46947 0.28792 0.0
Cd282 Cd 0.66188 0.50404 0.28323 0.0
O283 O 0.59335 0.50474 0.3002 0.0
Cd284 Cd 0.64342 0.55601 0.29999 0.0
C285 C 0.65996 0.5458 0.18687 0.0
O286 O 0.67575 0.54094 0.34529 0.0
O287 O 0.7011 0.58343 0.30619 0.0
O288 O 0.62603 0.57556 0.36634 0.0
C289 C 0.70179 0.5645 0.33581 0.0
O290 O 0.66873 0.52808 0.20556 0.0
C291 C 0.63284 0.60124 0.34677 0.0
O292 O 0.64729 0.55772 0.21228 0.0
O293 O 0.64255 0.6049 0.30401 0.0
C294 C 0.44458 0.16788 0.85211 0.0
O295 O 0.47182 0.17404 0.86348 0.0
Cd296 Cd 0.48868 0.13757 0.87549 0.0
O297 O 0.42312 0.13976 0.84589 0.0
Cd298 Cd 0.41965 0.08739 0.85005 0.0
C299 C 0.43853 0.09402 0.96604 0.0
O300 O 0.46867 0.10263 0.81061 0.0
O301 O 0.45025 0.05954 0.84834 0.0
O302 O 0.38734 0.07094 0.77851 0.0
C303 C 0.47089 0.07899 0.82043 0.0
O304 O 0.46587 0.11223 0.95065 0.0
C305 C 0.36622 0.04535 0.79542 0.0
O306 O 0.41543 0.08287 0.93763 0.0
O307 O 0.36912 0.03999 0.83887 0.0
C308 C 0.81252 0.26425 0.84738 0.0
O309 O 0.8036 0.28394 0.85326 0.0
Cd310 Cd 0.83569 0.33778 0.86839 0.0
O311 O 0.84147 0.27293 0.84732 0.0
Cd312 Cd 0.89134 0.3243 0.85566 0.0
C313 C 0.87283 0.33158 0.96892 0.0
O314 O 0.87635 0.35716 0.81184 0.0
O315 O 0.91669 0.38186 0.85614 0.0
O316 O 0.91189 0.31058 0.78689 0.0
C317 C 0.89886 0.38306 0.82489 0.0
O318 O 0.85455 0.33904 0.94853 0.0
C319 C 0.93813 0.31816 0.80504 0.0
O320 O 0.88881 0.32299 0.94418 0.0
O321 O 0.94186 0.32648 0.84855 0.0
C322 C 0.73554 0.55568 0.86357 0.0
O323 O 0.71676 0.52724 0.87227 0.0
Cd324 Cd 0.66279 0.50389 0.88553 0.0
O325 O 0.72578 0.57505 0.85991 0.0
Cd326 Cd 0.67306 0.57141 0.86573 0.0
C327 C 0.66594 0.5492 0.98077 0.0
O328 O 0.64466 0.523 0.82293 0.0
O329 O 0.61535 0.53599 0.8606 0.0
O330 O 0.68737 0.60675 0.79799 0.0
C331 C 0.61745 0.51773 0.83126 0.0
O332 O 0.66101 0.52332 0.96412 0.0
C333 C 0.67788 0.624 0.81584 0.0
O334 O 0.67207 0.57203 0.95341 0.0
O335 O 0.6678 0.61788 0.85841 0.0
C336 C 0.47699 0.87679 0.6789 0.0
O337 O 0.46962 0.84872 0.68623 0.0
Cd338 Cd 0.50425 0.83017 0.70215 0.0
O339 O 0.50557 0.89801 0.67634 0.0
Cd340 Cd 0.55765 0.90019 0.68136 0.0
C341 C 0.54201 0.8798 0.79662 0.0
O342 O 0.54286 0.85139 0.642 0.0
O343 O 0.5849 0.86921 0.6825 0.0
O344 O 0.57678 0.9338 0.61105 0.0
C345 C 0.56606 0.8488 0.65378 0.0
O346 O 0.52331 0.85295 0.78015 0.0
C347 C 0.60243 0.95376 0.62944 0.0
O348 O 0.55784 0.90275 0.769 0.0
O349 O 0.60639 0.94979 0.6731 0.0
C350 C 0.09824 0.59508 0.68623 0.0
O351 O 0.12617 0.61572 0.69467 0.0
Cd352 Cd 0.14546 0.66865 0.7108 0.0
O353 O 0.07679 0.60217 0.68323 0.0
Cd354 Cd 0.07423 0.65176 0.6895 0.0
C355 C 0.09492 0.65625 0.80463 0.0
O356 O 0.12286 0.68399 0.65041 0.0
O357 O 0.10643 0.71022 0.68856 0.0
O358 O 0.03998 0.6367 0.62016 0.0
C359 C 0.12668 0.71038 0.66082 0.0
O360 O 0.12189 0.66441 0.7884 0.0
C361 C 0.02062 0.64337 0.63842 0.0
O362 O 0.07205 0.64933 0.77692 0.0
O363 O 0.0252 0.65209 0.68169 0.0
C364 C 0.39703 0.50961 0.69614 0.0
O365 O 0.37783 0.51872 0.7054 0.0
Cd366 Cd 0.32459 0.48791 0.72389 0.0
O367 O 0.388 0.4806 0.6938 0.0
Cd368 Cd 0.33587 0.43089 0.70328 0.0
C369 C 0.33337 0.44835 0.81859 0.0
O370 O 0.3043 0.44891 0.66452 0.0
O371 O 0.27798 0.40731 0.70524 0.0
O372 O 0.34708 0.40897 0.63345 0.0
C373 C 0.27786 0.42693 0.67649 0.0
O374 O 0.32709 0.46848 0.80216 0.0
C375 C 0.33835 0.38247 0.65166 0.0
O376 O 0.33876 0.43125 0.79091 0.0
O377 O 0.3307 0.37925 0.69541 0.0
C378 C 0.54606 0.81202 0.11694 0.0
O379 O 0.51778 0.80263 0.10717 0.0
Cd380 Cd 0.49361 0.83303 0.09683 0.0
O381 O 0.56529 0.84094 0.12268 0.0
Cd382 Cd 0.56105 0.88952 0.11694 0.0
C383 C 0.53771 0.878 0.00247 0.0
O384 O 0.51203 0.86989 0.15907 0.0
O385 O 0.526 0.91193 0.12012 0.0
O386 O 0.59426 0.91067 0.18647 0.0
C387 C 0.50704 0.89185 0.14913 0.0
O388 O 0.51172 0.85797 0.02019 0.0
C389 C 0.61152 0.93757 0.16925 0.0
O390 O 0.56176 0.89194 0.02882 0.0
O391 O 0.60698 0.94141 0.1258 0.0
C392 C 0.16155 0.72441 0.12372 0.0
O393 O 0.1694 0.70413 0.11553 0.0
Cd394 Cd 0.13643 0.64998 0.10678 0.0
O395 O 0.13291 0.71655 0.12811 0.0
Cd396 Cd 0.08218 0.66575 0.12354 0.0
C397 C 0.09412 0.65191 0.0104 0.0
O398 O 0.09941 0.63561 0.1685 0.0
O399 O 0.05731 0.60783 0.12988 0.0
O400 O 0.06188 0.68216 0.18962 0.0
C401 C 0.07708 0.60881 0.15944 0.0
O402 O 0.11278 0.64438 0.02915 0.0
C403 C 0.03552 0.67362 0.17101 0.0
O404 O 0.08099 0.66334 0.03585 0.0
O405 O 0.03166 0.66339 0.1286 0.0
C406 C 0.26757 0.44975 0.13841 0.0
O407 O 0.28844 0.47779 0.13155 0.0
Cd408 Cd 0.3423 0.49589 0.12167 0.0
O409 O 0.27483 0.42852 0.14181 0.0
Cd410 Cd 0.32386 0.42568 0.13904 0.0
C411 C 0.33657 0.45034 0.02508 0.0
O412 O 0.35663 0.47276 0.18331 0.0
O413 O 0.38194 0.45581 0.14341 0.0
O414 O 0.30556 0.39021 0.20694 0.0
C415 C 0.38259 0.47512 0.17359 0.0
O416 O 0.34558 0.47698 0.04325 0.0
C417 C 0.31075 0.3699 0.18854 0.0
O418 O 0.32526 0.42621 0.0514 0.0
O419 O 0.32066 0.37479 0.14583 0.0
C420 C 0.17162 0.44328 0.639 0.0
O421 O 0.17936 0.47123 0.62972 0.0
Cd422 Cd 0.14644 0.49125 0.61103 0.0
O423 O 0.14295 0.4222 0.64108 0.0
Cd424 Cd 0.0914 0.42084 0.63136 0.0
C425 C 0.10863 0.44197 0.51615 0.0
O426 O 0.10694 0.46976 0.66943 0.0
O427 O 0.06492 0.45254 0.62913 0.0
O428 O 0.07072 0.38808 0.70206 0.0
C429 C 0.08419 0.47297 0.65736 0.0
O430 O 0.12766 0.46861 0.53299 0.0
C431 C 0.04481 0.36882 0.68358 0.0
O432 O 0.09228 0.41898 0.5435 0.0
O433 O 0.04158 0.37242 0.63948 0.0
C434 C 0.55615 0.72865 0.61901 0.0
O435 O 0.53036 0.70868 0.60097 0.0
Cd436 Cd 0.51117 0.65448 0.59234 0.0
O437 O 0.57562 0.72062 0.63311 0.0
Cd438 Cd 0.57606 0.67003 0.63142 0.0
C439 C 0.56499 0.6588 0.51303 0.0
O440 O 0.52447 0.63925 0.6646 0.0
O441 O 0.54235 0.61179 0.63419 0.0
O442 O 0.60643 0.68321 0.70534 0.0
C443 C 0.52125 0.61261 0.65855 0.0
O444 O 0.53632 0.64775 0.52257 0.0
C445 C 0.62622 0.67625 0.6898 0.0
O446 O 0.58564 0.67196 0.54509 0.0
O447 O 0.62358 0.66814 0.64636 0.0
C448 C 0.25226 0.81305 0.63425 0.0
O449 O 0.27166 0.8039 0.62688 0.0
Cd450 Cd 0.32604 0.83411 0.61423 0.0
O451 O 0.26122 0.84199 0.63677 0.0
Cd452 Cd 0.31295 0.89131 0.62919 0.0
C453 C 0.3214 0.87351 0.51586 0.0
O454 O 0.34474 0.87449 0.67078 0.0
O455 O 0.37079 0.91583 0.62947 0.0
O456 O 0.29994 0.91432 0.6959 0.0
C457 C 0.37115 0.89629 0.65812 0.0
O458 O 0.32895 0.85494 0.53499 0.0
C459 C 0.3079 0.93998 0.6753 0.0
O460 O 0.31225 0.88866 0.54143 0.0
O461 O 0.31627 0.94219 0.63195 0.0
C462 C 0.10183 0.50819 0.19504 0.0
O463 O 0.13024 0.51807 0.20474 0.0
Cd464 Cd 0.15573 0.48888 0.21549 0.0
O465 O 0.08297 0.47918 0.18952 0.0
Cd466 Cd 0.08776 0.43107 0.1945 0.0
C467 C 0.11106 0.44411 0.3096 0.0
O468 O 0.13746 0.45137 0.15429 0.0
O469 O 0.12285 0.40889 0.19233 0.0
O470 O 0.0548 0.40933 0.12442 0.0
C471 C 0.14254 0.42953 0.16473 0.0
O472 O 0.13718 0.46421 0.29225 0.0
C473 C 0.03747 0.38263 0.14225 0.0
O474 O 0.08736 0.42955 0.28268 0.0
O475 O 0.04198 0.37924 0.18592 0.0
C476 C 0.491 0.59516 0.21001 0.0
O477 O 0.48506 0.61483 0.22889 0.0
Cd478 Cd 0.51942 0.66927 0.23462 0.0
O479 O 0.51802 0.60376 0.19309 0.0
Cd480 Cd 0.56786 0.65537 0.19303 0.0
C481 C 0.56969 0.66572 0.31178 0.0
O482 O 0.54491 0.68415 0.15937 0.0
O483 O 0.59006 0.7133 0.18935 0.0
O484 O 0.58504 0.64237 0.11889 0.0
C485 C 0.56807 0.7111 0.16354 0.0
O486 O 0.55217 0.67708 0.30369 0.0
C487 C 0.61255 0.65153 0.13318 0.0
O488 O 0.57647 0.65257 0.2788 0.0
O489 O 0.61843 0.66048 0.17622 0.0
C490 C 0.38379 0.87287 0.18855 0.0
O491 O 0.36352 0.84469 0.19616 0.0
Cd492 Cd 0.31013 0.82497 0.21182 0.0
O493 O 0.3761 0.89389 0.18713 0.0
Cd494 Cd 0.32662 0.89613 0.1951 0.0
C495 C 0.31934 0.87155 0.30903 0.0
O496 O 0.29453 0.84857 0.15266 0.0
O497 O 0.26847 0.86576 0.18965 0.0
O498 O 0.34445 0.93323 0.12935 0.0
C499 C 0.26827 0.84567 0.16161 0.0
O500 O 0.31201 0.84517 0.2914 0.0
C501 C 0.3375 0.95201 0.14884 0.0
O502 O 0.32672 0.89504 0.28248 0.0
O503 O 0.32702 0.9456 0.19118 0.0
C504 C 0.36921 0.33717 0.92095 0.0
C505 C 0.36483 0.3352 0.8712 0.0
C506 C 0.34385 0.32485 0.95229 0.0
C507 C 0.31313 0.31004 0.93509 0.0
H508 H 0.39225 0.34624 0.93594 0.0
H509 H 0.34842 0.32503 0.99009 0.0
S510 S 0.28949 0.3064 0.80862 0.0
N511 N 0.32775 0.32299 0.80662 0.0
N512 N 0.28002 0.29953 0.86554 0.0
C513 C 0.30858 0.31115 0.88573 0.0
C514 C 0.33446 0.32386 0.85377 0.0
C515 C 0.67856 -0.00131 0.87008 0.0
C516 C 0.66216 0.01289 0.88783 0.0
C517 C 0.69271 0.98725 0.90092 0.0
C518 C 0.69111 0.98962 0.95076 0.0
H519 H 0.68243 -0.00168 0.83213 0.0
H520 H 0.70689 0.97858 0.88536 0.0
S521 S 0.64407 0.01723 0.01506 0.0
N522 N 0.64 0.02311 0.95822 0.0
N523 N 0.66677 0.00173 0.01627 0.0
C524 C 0.67179 0.00045 0.9689 0.0
C525 C 0.65726 0.01205 0.9374 0.0
C526 C -0.00685 0.65978 0.96745 0.0
C527 C 0.01027 0.69066 0.95121 0.0
C528 C 0.98082 0.63488 0.9353 0.0
C529 C 0.98513 0.63998 0.88579 0.0
H530 H 0.98691 0.65485 0.00476 0.0
H531 H 0.96561 0.61178 0.94919 0.0
S532 S 0.03586 0.71561 0.82652 0.0
N533 N 0.03672 0.72435 0.88351 0.0
N534 N 0.01333 0.67755 0.82314 0.0
C535 C 0.00568 0.67032 0.8698 0.0
C536 C 0.01835 0.69568 0.90255 0.0
C537 C 0.3355 0.35964 0.57127 0.0
C538 C 0.33189 0.35552 0.62102 0.0
C539 C 0.32182 0.33426 0.54014 0.0
C540 C 0.30395 0.30372 0.55748 0.0
H541 H 0.34713 0.38275 0.55596 0.0
H542 H 0.32361 0.33887 0.50217 0.0
S543 S 0.29414 0.27989 0.68469 0.0
N544 N 0.31418 0.31821 0.68623 0.0
N545 N 0.28823 0.27047 0.62769 0.0
C546 C 0.30305 0.29906 0.60712 0.0
C547 C 0.31716 0.32496 0.63889 0.0
C548 C 0.62599 0.97345 0.5492 0.0
C549 C 0.62851 0.97646 0.59917 0.0
C550 C 0.6525 0.98687 0.52006 0.0
C551 C 0.68247 0.00374 0.53988 0.0
H552 H 0.60373 0.95836 0.53262 0.0
H553 H 0.64953 0.98153 0.48232 0.0
S554 S 0.70072 0.02654 0.66698 0.0
N555 N 0.6626 0.00369 0.66589 0.0
N556 N 0.71247 0.02871 0.61128 0.0
C557 C 0.68489 0.01064 0.58894 0.0
C558 C 0.65785 -0.00296 0.61859 0.0
C559 C 0.98786 0.65956 0.52813 0.0
C560 C 0.97272 0.67475 0.54704 0.0
C561 C 0.00037 0.64597 0.55811 0.0
C562 C -0.0018 0.64712 0.60805 0.0
H563 H 0.99251 0.66047 0.49025 0.0
H564 H 0.0142 0.63707 0.54203 0.0
S565 S 0.95222 0.67512 0.67434 0.0
N566 N 0.94992 0.68356 0.61805 0.0
N567 N 0.9733 0.65785 0.67427 0.0
C568 C 0.97915 0.65804 0.62688 0.0
C569 C 0.96644 0.67194 0.59636 0.0
C570 C 0.66841 0.66909 0.11719 0.0
C571 C 0.63784 0.65637 0.09988 0.0
C572 C 0.69387 0.68114 0.08605 0.0
C573 C 0.68975 0.68091 0.03637 0.0
H574 H 0.67297 0.67168 0.15517 0.0
H575 H 0.71699 0.69268 0.10134 0.0
S576 S 0.61415 0.6433 0.97255 0.0
N577 N 0.60464 0.63932 0.02958 0.0
N578 N 0.65251 0.66161 0.97107 0.0
C579 C 0.65919 0.66502 0.01844 0.0
C580 C 0.63322 0.6529 0.0502 0.0
C581 C 0.31737 0.98861 0.13763 0.0
C582 C 0.33551 0.97616 0.12047 0.0
C583 C 0.30598 0.00272 0.1066 0.0
C584 C 0.31233 0.0048 0.05739 0.0
H585 H 0.30945 0.98493 0.17431 0.0
H586 H 0.28977 0.00931 0.12071 0.0
S587 S 0.36737 0.98558 -0.00202 0.0
N588 N 0.36572 0.97401 0.05368 0.0
N589 N 0.34414 0.00043 -0.00471 0.0
C590 C 0.33418 -0.00327 0.04124 0.0
C591 C 0.34585 0.98242 0.07287 0.0
C592 C 0.00632 0.32532 0.1296 0.0
C593 C 0.01761 0.35551 0.11155 0.0
C594 C -0.00458 0.2997 0.09901 0.0
C595 C -0.00462 0.30328 0.0492 0.0
H596 H 0.00802 0.32162 0.1673 0.0
H597 H 0.98907 0.27731 0.11446 0.0
S598 S 0.01477 0.37612 0.98504 0.0
N599 N 0.0224 0.38659 0.04151 0.0
N600 N 0.00198 0.33841 0.98403 0.0
C601 C 0.00327 0.33275 0.03116 0.0
C602 C 0.01432 0.35887 0.06236 0.0
C603 C 0.65265 0.65801 0.35625 0.0
C604 C 0.6359 0.62781 0.37527 0.0
C605 C 0.66555 0.68411 0.38606 0.0
C606 C 0.66217 0.68091 0.43594 0.0
H607 H 0.65831 0.66152 0.31862 0.0
H608 H 0.68055 0.70661 0.3701 0.0
S609 S 0.61145 0.6079 0.50153 0.0
N610 N 0.60995 0.59688 0.44557 0.0
N611 N 0.6344 0.64598 0.50163 0.0
C612 C 0.64161 0.65132 0.45454 0.0
C613 C 0.62836 0.62472 0.42414 0.0
C614 C 0.27946 0.98623 0.38533 0.0
C615 C 0.28379 0.98504 0.43472 0.0
C616 C 0.30445 -0.00344 0.35347 0.0
C617 C 0.33473 0.00614 0.36983 0.0
H618 H 0.25706 0.98119 0.37135 0.0
H619 H 0.30032 -0.00077 0.31629 0.0
S620 S 0.35672 -0.00038 0.49405 0.0
N621 N 0.31941 0.98864 0.4973 0.0
N622 N 0.36639 0.00799 0.43739 0.0
C623 C 0.33865 0.0017 0.41836 0.0
C624 C 0.3132 0.99126 0.45086 0.0
C625 C 0.97228 0.31525 0.35978 0.0
C626 C 0.95583 0.32906 0.37883 0.0
C627 C 0.98696 0.30374 0.38951 0.0
C628 C 0.98581 0.30559 0.43952 0.0
H629 H 0.97233 0.31159 0.32171 0.0
H630 H -0.00236 0.29162 0.37311 0.0
S631 S 0.95148 0.34551 0.50698 0.0
N632 N 0.94339 0.34819 0.45067 0.0
N633 N 0.9711 0.32674 0.50641 0.0
C634 C 0.97202 0.32199 0.45884 0.0
C635 C 0.95696 0.33363 0.42855 0.0
C636 C 0.01325 0.67464 0.25023 0.0
C637 C 0.00905 0.66977 0.2007 0.0
C638 C 0.98783 0.66188 0.28144 0.0
C639 C 0.95726 0.64382 0.26431 0.0
H640 H 0.03638 0.68611 0.2655 0.0
H641 H 0.99246 0.66415 0.31941 0.0
S642 S 0.93342 0.63236 0.13708 0.0
N643 N 0.9718 0.65174 0.13544 0.0
N644 N 0.92394 0.62772 0.19416 0.0
C645 C 0.95256 0.64254 0.21465 0.0
C646 C 0.97851 0.65555 0.18279 0.0
C647 C 0.32183 0.33242 0.29769 0.0
C648 C 0.33295 0.31378 0.27794 0.0
C649 C 0.31111 0.34798 0.26843 0.0
C650 C 0.31118 0.34545 0.21841 0.0
H651 H 0.3242 0.33752 0.33551 0.0
H652 H 0.30558 0.36432 0.28501 0.0
S653 S 0.32748 0.29102 0.15072 0.0
N654 N 0.33558 0.28726 0.20662 0.0
N655 N 0.31564 0.31674 0.15157 0.0
C656 C 0.31758 0.32315 0.19896 0.0
C657 C 0.32838 0.30718 0.22881 0.0
C658 C 0.62882 0.95962 0.25062 0.0
C659 C 0.63127 0.96413 0.20089 0.0
C660 C 0.64008 0.98479 0.28206 0.0
C661 C 0.65437 0.01553 0.26505 0.0
H662 H 0.61621 0.93643 0.26554 0.0
H663 H 0.63578 0.97993 0.31982 0.0
S664 S 0.67341 0.04011 0.13872 0.0
N665 N 0.654 0.00179 0.13652 0.0
N666 N 0.6753 0.04921 0.1957 0.0
C667 C 0.65993 0.02048 0.21572 0.0
C668 C 0.64839 -0.00524 0.18361 0.0
C669 C 0.33371 -0.00253 0.68427 0.0
C670 C 0.31363 0.96776 0.70306 0.0
C671 C 0.34824 0.02349 0.71408 0.0
C672 C 0.34321 0.02072 0.7637 0.0
H673 H 0.34055 0.0003 0.6471 0.0
H674 H 0.36562 0.04529 0.69854 0.0
S675 S 0.28483 0.9502 0.82774 0.0
N676 N 0.28364 0.93854 0.77223 0.0
N677 N 0.31103 0.98756 0.82829 0.0
C678 C 0.31978 0.99212 0.78171 0.0
C679 C 0.30494 0.96557 0.75132 0.0
C680 C 0.02108 0.34982 0.76398 0.0
C681 C 0.01799 0.34759 0.71398 0.0
C682 C -0.00509 0.33754 0.79381 0.0
C683 C 0.96465 0.32262 0.77477 0.0
H684 H 0.0438 0.36318 0.78024 0.0
H685 H -0.00145 0.34189 0.83176 0.0
S686 S 0.94406 0.30356 0.64703 0.0
N687 N 0.98241 0.32389 0.64744 0.0
N688 N 0.93322 0.30117 0.70326 0.0
C689 C 0.9613 0.31706 0.72523 0.0
C690 C 0.98799 0.3294 0.6949 0.0
C691 C 0.65508 0.65834 0.8032 0.0
C692 C 0.67329 0.64601 0.78581 0.0
C693 C 0.64235 0.67119 0.77216 0.0
C694 C 0.64735 0.67214 0.72261 0.0
H695 H 0.64847 0.65583 0.84047 0.0
H696 H 0.62645 0.67802 0.78679 0.0
S697 S 0.70022 0.6508 0.66088 0.0
N698 N 0.70089 0.6415 0.71724 0.0
N699 N 0.6769 0.66557 0.65896 0.0
C700 C 0.66872 0.6636 0.70565 0.0
C701 C 0.68173 0.65055 0.73727 0.0
C702 C 0.21127 0.10506 0.94728 0.0
C703 C 0.23114 0.09506 0.96595 0.0
C704 C 0.21604 0.13472 0.95674 0.0
C705 C 0.24089 0.15584 0.98537 0.0
H706 H 0.19134 0.08965 0.92578 0.0
H707 H 0.19956 0.14082 0.9422 0.0
S708 S 0.30125 0.14232 0.04006 0.0
N709 N 0.27791 0.10949 0.01225 0.0
N710 N 0.28688 0.16548 0.03006 0.0
C711 C 0.26184 0.14681 0.00268 0.0
C712 C 0.25697 0.1164 -0.00703 0.0
C713 C 0.88811 0.13085 -0.00117 0.0
C714 C 0.9073 0.12905 0.9635 0.0
C715 C 0.85871 0.10521 0.00902 0.0
C716 C 0.84756 0.07701 0.98408 0.0
H717 H 0.89642 0.15164 0.02025 0.0
H718 H 0.84527 0.10709 0.03794 0.0
S719 S 0.88661 0.0624 0.88259 0.0
N720 N 0.91142 0.09819 0.89962 0.0
N721 N 0.85641 0.05029 0.91854 0.0
C722 C 0.86569 0.07576 0.94653 0.0
C723 C 0.8955 0.1017 0.93631 0.0
C724 C 0.86478 0.74094 -0.00714 0.0
C725 C 0.86647 0.76018 0.95474 0.0
C726 C 0.8906 0.73788 0.00539 0.0
C727 C 0.91885 0.75393 0.98017 0.0
H728 H 0.84408 0.72965 0.01481 0.0
H729 H 0.88887 0.72411 0.03654 0.0
S730 S 0.93307 0.80228 0.87194 0.0
N731 N 0.89718 0.79193 0.88796 0.0
N732 N 0.94539 0.78616 0.91135 0.0
C733 C 0.9199 0.77123 0.9398 0.0
C734 C 0.89379 0.77434 0.92713 0.0
C735 C 0.14077 0.25566 0.46727 0.0
C736 C 0.15372 0.24262 0.49797 0.0
C737 C 0.11102 0.25171 0.47615 0.0
C738 C 0.09358 0.23466 0.51597 0.0
H739 H 0.15281 0.26732 0.43484 0.0
H740 H 0.10092 0.26035 0.45034 0.0
S741 S 0.11976 0.20134 0.61167 0.0
N742 N 0.14867 0.21595 0.57293 0.0
N743 N 0.09324 0.20866 0.58961 0.0
C744 C 0.10747 0.22384 0.5487 0.0
C745 C 0.13744 0.22778 0.53971 0.0
C746 C 0.73213 0.8569 0.48481 0.0
C747 C 0.75147 0.85601 0.52063 0.0
C748 C 0.72905 0.88336 0.47864 0.0
C749 C 0.7451 0.90958 0.50831 0.0
H750 H 0.72074 0.83784 0.45984 0.0
H751 H 0.71525 0.88381 0.44906 0.0
S752 S 0.79373 0.91595 0.613 0.0
N753 N 0.78341 0.88159 0.58995 0.0
N754 N 0.77745 0.93096 0.57885 0.0
C755 C 0.76248 0.90777 0.54651 0.0
C756 C 0.76573 0.88107 0.55253 0.0
C757 C 0.0897 0.8452 0.49484 0.0
C758 C 0.06128 0.83395 0.51933 0.0
C759 C 0.11506 0.87486 0.50446 0.0
C760 C 0.11296 0.89435 0.53891 0.0
H761 H 0.09204 0.83158 0.46681 0.0
H762 H 0.13604 0.88295 0.48345 0.0
S763 S 0.04518 0.8738 0.61785 0.0
N764 N 0.03368 0.84326 0.58298 0.0
N765 N 0.08109 0.89867 0.60117 0.0
C766 C 0.08522 0.88256 0.56549 0.0
C767 C 0.05948 0.85246 0.55567 0.0
C768 C 0.79676 0.88848 0.03726 0.0
C769 C 0.77647 0.89854 0.02065 0.0
C770 C 0.79148 0.85868 0.02752 0.0
C771 C 0.76574 0.83749 0.00047 0.0
H772 H 0.81739 0.90397 0.05744 0.0
H773 H 0.80832 0.85257 0.04043 0.0
S774 S 0.7041 0.85126 0.95147 0.0
N775 N 0.72844 0.88422 0.97814 0.0
N776 N 0.71849 0.82793 0.95955 0.0
C777 C 0.74441 0.84663 0.98525 0.0
C778 C 0.74977 0.87718 -0.00459 0.0
C779 C 0.14691 0.88866 0.9863 0.0
C780 C 0.15733 0.9173 0.00966 0.0
C781 C 0.11707 0.86323 -0.00479 0.0
C782 C 0.09675 0.86574 0.02757 0.0
H783 H 0.1613 0.88626 0.95951 0.0
H784 H 0.10935 0.84205 0.97501 0.0
S785 S 0.11495 0.93373 0.10392 0.0
N786 N 0.14637 0.94515 0.07095 0.0
N787 N 0.09062 0.89771 0.08734 0.0
C788 C 0.10775 0.89355 0.05332 0.0
C789 C 0.13795 0.91923 0.04446 0.0
C790 C 0.10917 0.21169 0.04762 0.0
C791 C 0.13834 0.23103 0.02642 0.0
C792 C 0.08346 0.21506 0.03747 0.0
C793 C 0.08563 0.23794 0.00566 0.0
H794 H 0.1058 0.19315 0.07158 0.0
H795 H 0.06144 0.19897 0.05397 0.0
S796 S 0.1572 0.2965 0.94365 0.0
N797 N 0.1684 0.27541 0.97439 0.0
N798 N 0.11984 0.2818 0.95537 0.0
C799 C 0.11494 0.25853 0.9859 0.0
C800 C 0.14132 0.25507 -0.00375 0.0
C801 C 0.8731 0.77891 0.44423 0.0
C802 C 0.88283 0.75932 0.46476 0.0
C803 C 0.84283 0.77339 0.45024 0.0
C804 C 0.82082 0.74811 0.47736 0.0
H805 H 0.88924 0.79925 0.42405 0.0
H806 H 0.83701 0.78979 0.43459 0.0
S807 S 0.83346 0.68798 0.53504 0.0
N808 N 0.86733 0.71215 0.5104 0.0
N809 N 0.81015 0.70178 0.52205 0.0
C810 C 0.82963 0.7273 0.49613 0.0
C811 C 0.86067 0.73289 0.48973 0.0
C812 C 0.23722 0.12891 0.49853 0.0
C813 C 0.21665 0.12811 0.46318 0.0
C814 C 0.23874 0.10215 0.51033 0.0
C815 C 0.21965 0.07362 0.48733 0.0
H816 H 0.25149 0.15005 0.51838 0.0
H817 H 0.25414 0.10358 0.53881 0.0
S818 S 0.16525 0.06012 0.38754 0.0
N819 N 0.1793 0.09695 0.40178 0.0
N820 N 0.182 0.04699 0.42434 0.0
C821 C 0.20022 0.07293 0.45035 0.0
C822 C 0.19877 0.10006 0.43817 0.0
C823 C 0.91674 0.12688 0.47704 0.0
C824 C 0.9123 0.15057 0.49602 0.0
C825 C 0.89198 0.09664 0.47175 0.0
C826 C 0.86147 0.08862 0.48473 0.0
H827 H 0.9397 0.13148 0.46676 0.0
H828 H 0.89698 0.0794 0.45722 0.0
S829 S 0.83686 0.14225 0.53435 0.0
N830 N 0.8748 0.16424 0.52675 0.0
N831 N 0.82794 0.10713 0.51624 0.0
C832 C 0.85639 0.11217 0.50274 0.0
C833 C 0.88186 0.14315 0.50858 0.0
C834 C 0.90529 0.47618 0.34047 0.0
C835 C 0.88836 0.48783 0.31618 0.0
C836 C 0.89966 0.44584 0.33192 0.0
C837 C 0.87688 0.42625 0.29898 0.0
H838 H 0.9219 0.49 0.36775 0.0
H839 H 0.91211 0.4372 0.35281 0.0
S840 S 0.83045 0.44779 0.22019 0.0
N841 N 0.85095 0.47881 0.25354 0.0
N842 N 0.84039 0.42221 0.23763 0.0
C843 C 0.86145 0.4385 0.27231 0.0
C844 C 0.86718 0.46917 0.28087 0.0
C845 C 0.53136 0.45307 0.32384 0.0
C846 C 0.5535 0.45112 0.29498 0.0
C847 C 0.50118 0.42754 0.32903 0.0
C848 C 0.49206 0.39928 0.30522 0.0
H849 H 0.53776 0.47394 0.34417 0.0
H850 H 0.48531 0.42964 0.35323 0.0
S851 S 0.53998 0.3842 0.21931 0.0
N852 N 0.5632 0.41997 0.23811 0.0
N853 N 0.50669 0.37232 0.24739 0.0
C854 C 0.51344 0.39785 0.27385 0.0
C855 C 0.54411 0.42366 0.26888 0.0
C856 C 0.54375 0.10829 0.28104 0.0
C857 C 0.51429 0.08842 0.30088 0.0
C858 C 0.56926 0.10461 0.29094 0.0
C859 C 0.56665 0.0809 0.32127 0.0
H860 H 0.54744 0.12742 0.25814 0.0
H861 H 0.59146 0.1211 0.27537 0.0
S862 S 0.49416 0.02088 0.3795 0.0
N863 N 0.4834 0.04277 0.34997 0.0
N864 N 0.5317 0.03578 0.36883 0.0
C865 C 0.53704 0.0598 0.33969 0.0
C866 C 0.51079 0.06356 0.32942 0.0
C867 C 0.80972 0.5522 0.86964 0.0
C868 C 0.82999 0.57592 0.83856 0.0
C869 C 0.77988 0.54702 0.87893 0.0
C870 C 0.76887 0.56537 0.85776 0.0
H871 H 0.81653 0.53671 0.88592 0.0
H872 H 0.765 0.52779 0.90208 0.0
S873 S 0.81372 0.6326 0.77738 0.0
N874 N 0.83789 0.61966 0.78933 0.0
N875 N 0.78143 0.60987 0.80711 0.0
C876 C 0.78945 0.59044 0.82886 0.0
C877 C 0.82009 0.59572 0.81918 0.0
C878 C 0.4614 0.22405 0.86034 0.0
C879 C 0.43878 0.19423 0.84496 0.0
C880 C 0.4586 0.25015 0.85094 0.0
C881 C 0.43307 0.24778 0.82556 0.0
H882 H 0.48191 0.22751 0.87929 0.0
H883 H 0.47708 0.27252 0.86294 0.0
S884 S 0.36605 0.17484 0.78019 0.0
N885 N 0.38893 0.16358 0.80523 0.0
N886 N 0.38364 0.21288 0.78744 0.0
C887 C 0.40958 0.218 0.8114 0.0
C888 C 0.41241 0.1912 0.82115 0.0
C889 C 0.73371 0.19106 0.85032 0.0
C890 C 0.73884 0.16853 0.82843 0.0
C891 C 0.75781 0.22153 0.85673 0.0
C892 C 0.78837 0.23104 0.84191 0.0
H893 H 0.71061 0.18536 0.862 0.0
H894 H 0.75222 0.23784 0.87328 0.0
S895 S 0.81489 0.18082 0.78503 0.0
N896 N 0.77722 0.15752 0.7935 0.0
N897 N 0.82283 0.21508 0.806 0.0
C898 C 0.79424 0.2086 0.82137 0.0
C899 C 0.76944 0.17735 0.8145 0.0
C900 C 0.39096 0.17084 0.30133 0.0
C901 C 0.40692 0.15909 0.32798 0.0
C902 C 0.396 0.20096 0.30954 0.0
C903 C 0.41727 0.22017 0.34438 0.0
H904 H 0.37564 0.15733 0.27252 0.0
H905 H 0.38452 0.20981 0.28682 0.0
S906 S 0.46048 0.19842 0.42934 0.0
N907 N 0.44148 0.16762 0.39497 0.0
N908 N 0.45119 0.22405 0.40966 0.0
C909 C 0.4316 0.20788 0.37334 0.0
C910 C 0.42634 0.17735 0.36534 0.0
C911 C 0.78051 0.24575 0.36481 0.0
C912 C 0.80183 0.24413 0.3336 0.0
C913 C 0.75215 0.21942 0.37596 0.0
C914 C 0.74364 0.19011 0.35643 0.0
H915 H 0.78546 0.26775 0.38028 0.0
H916 H 0.73652 0.22235 0.39956 0.0
S917 S 0.79214 0.17275 0.2752 0.0
N918 N 0.81333 0.21045 0.28518 0.0
N919 N 0.75978 0.16078 0.30606 0.0
C920 C 0.76521 0.18784 0.32646 0.0
C921 C 0.79431 0.21484 0.31506 0.0
C922 C 0.7564 0.54027 0.3898 0.0
C923 C 0.7854 0.5608 0.36899 0.0
C924 C 0.72997 0.5426 0.38034 0.0
C925 C 0.73122 0.56559 0.34966 0.0
H926 H 0.75371 0.52151 0.4127 0.0
H927 H 0.70814 0.52556 0.39626 0.0
S928 S 0.80202 0.62734 0.28991 0.0
N929 N 0.81426 0.60658 0.3191 0.0
N930 N 0.76446 0.61103 0.30143 0.0
C931 C 0.76035 0.5874 0.33057 0.0
C932 C 0.78743 0.585 0.3402 0.0
C933 C 0.5493 0.10312 0.76582 0.0
C934 C 0.56017 0.08615 0.79179 0.0
C935 C 0.51986 0.09938 0.774 0.0
C936 C 0.49978 0.07848 0.80851 0.0
H937 H 0.56396 0.12017 0.73954 0.0
H938 H 0.51318 0.11376 0.75388 0.0
S939 S 0.51558 0.02625 0.88347 0.0
N940 N 0.54751 0.04592 0.85135 0.0
N941 N 0.49186 0.03882 0.86674 0.0
C942 C 0.50949 0.06003 0.83308 0.0
C943 C 0.53973 0.06388 0.82472 0.0
C944 C 0.87552 0.43818 0.77026 0.0
C945 C 0.89624 0.46709 0.79094 0.0
C946 C 0.87743 0.4116 0.78019 0.0
C947 C 0.90008 0.41258 0.81135 0.0
H948 H 0.85704 0.43575 0.74692 0.0
H949 H 0.86031 0.38989 0.76413 0.0
S950 S 0.96193 0.48299 0.87148 0.0
N951 N 0.9417 0.49555 0.84153 0.0
N952 N 0.9453 0.44543 0.86022 0.0
C953 C 0.92198 0.44158 0.83059 0.0
C954 C 0.92007 0.46885 0.82034 0.0
C955 C 0.56126 0.47614 0.83887 0.0
C956 C 0.59004 0.48845 0.81507 0.0
C957 C 0.53647 0.4464 0.82774 0.0
C958 C 0.53977 0.42804 0.7926 0.0
H959 H 0.55825 0.48896 0.86763 0.0
H960 H 0.51519 0.43719 0.84829 0.0
S961 S 0.60842 0.45176 0.71442 0.0
N962 N 0.61887 0.48148 0.75071 0.0
N963 N 0.57261 0.42587 0.73008 0.0
C964 C 0.56771 0.44097 0.76654 0.0
C965 C 0.59276 0.4711 0.77769 0.0
C966 C 0.54233 0.76963 0.60236 0.0
C967 C 0.56222 0.76099 0.62501 0.0
C968 C 0.54469 0.79846 0.61071 0.0
C969 C 0.56704 0.82012 0.64214 0.0
H970 H 0.52415 0.75372 0.57857 0.0
H971 H 0.52822 0.80342 0.59309 0.0
S972 S 0.62669 0.81034 0.70754 0.0
N973 N 0.60653 0.77744 0.67803 0.0
N974 N 0.61101 0.83186 0.69372 0.0
C975 C 0.58813 0.81254 0.66344 0.0
C976 C 0.58573 0.78297 0.65487 0.0
C977 C 0.1785 0.73572 0.62177 0.0
C978 C 0.15694 0.73865 0.6507 0.0
C979 C 0.20878 0.76028 0.61583 0.0
C980 C 0.21896 0.7891 0.63815 0.0
H981 H 0.17229 0.71389 0.60448 0.0
H982 H 0.22454 0.75638 0.59403 0.0
S983 S 0.17108 0.81008 0.71427 0.0
N984 N 0.1473 0.77346 0.69962 0.0
N985 N 0.20455 0.82002 0.68788 0.0
C986 C 0.19731 0.7931 0.66518 0.0
C987 C 0.16625 0.76779 0.67161 0.0
C988 C 0.25207 0.45273 0.6364 0.0
C989 C 0.24929 0.42806 0.6646 0.0
C990 C 0.22658 0.45667 0.62758 0.0
C991 C 0.19696 0.43604 0.64624 0.0
H992 H 0.27436 0.46974 0.62171 0.0
H993 H 0.23036 0.47646 0.60628 0.0
S994 S 0.1764 0.36614 0.7194 0.0
N995 N 0.21403 0.38149 0.70913 0.0
N996 N 0.16581 0.3889 0.69215 0.0
C997 C 0.19336 0.41042 0.67284 0.0
C998 C 0.21958 0.40646 0.68215 0.0
C999 C 0.42554 0.8594 0.19755 0.0
C1000 C 0.41648 0.88055 0.18144 0.0
C1001 C 0.45521 0.86404 0.18837 0.0
C1002 C 0.47718 0.88993 0.16233 0.0
H1003 H 0.4094 0.83868 0.21696 0.0
H1004 H 0.46058 0.8466 0.20086 0.0
S1005 S 0.46606 0.95357 0.11499 0.0
N1006 N 0.43251 0.92945 0.14052 0.0
N1007 N 0.48852 0.93815 0.12289 0.0
C1008 C 0.46897 0.91201 0.14751 0.0
C1009 C 0.4386 0.90734 0.15719 0.0
C1010 C 0.10309 0.58471 0.20364 0.0
C1011 C 0.07915 0.58097 0.17275 0.0
C1012 C 0.1092 0.56055 0.21191 0.0
C1013 C 0.09152 0.5314 0.18996 0.0
H1014 H 0.11809 0.60689 0.22047 0.0
H1015 H 0.12856 0.5651 0.23492 0.0
S1016 S 0.02398 0.50828 0.10987 0.0
N1017 N 0.03592 0.54496 0.12294 0.0
N1018 N 0.0474 0.49927 0.13886 0.0
C1019 C 0.06625 0.52658 0.16125 0.0
C1020 C 0.06007 0.55142 0.15255 0.0
C1021 C 0.46529 0.54336 0.16852 0.0
C1022 C 0.46541 0.5625 0.20564 0.0
C1023 C 0.43896 0.5142 0.1597 0.0
C1024 C 0.41191 0.50323 0.18771 0.0
H1025 H 0.48502 0.55157 0.14468 0.0
H1026 H 0.43931 0.5009 0.12935 0.0
S1027 S 0.40243 0.54189 0.29438 0.0
N1028 N 0.43761 0.56645 0.27439 0.0
N1029 N 0.38838 0.51199 0.25764 0.0
C1030 C 0.41261 0.52118 0.22689 0.0
C1031 C 0.43929 0.55071 0.23589 0.0
C1032 C 0.11238 0.55448 0.70161 0.0
C1033 C 0.09142 0.56256 0.68142 0.0
C1034 C 0.10894 0.52512 0.69496 0.0
C1035 C 0.08447 0.50241 0.66751 0.0
H1036 H 0.13207 0.57117 0.72238 0.0
H1037 H 0.12622 0.52056 0.71065 0.0
S1038 S 0.02163 0.51077 0.60992 0.0
N1039 N 0.04404 0.54482 0.63531 0.0
N1040 N 0.03756 0.48926 0.62238 0.0
C1041 C 0.06245 0.50957 0.64866 0.0
C1042 C 0.0659 0.5397 0.65576 0.0
C1043 C 0.44029 0.56355 0.70843 0.0
C1044 C 0.43014 0.5338 0.6894 0.0
C1045 C 0.47014 0.58823 0.69966 0.0
C1046 C 0.49139 0.58451 0.67124 0.0
H1047 H 0.42482 0.56812 0.72983 0.0
H1048 H 0.47627 0.6107 0.71451 0.0
S1049 S 0.47749 0.5108 0.61581 0.0
N1050 N 0.44444 0.50141 0.64319 0.0
N1051 N 0.50093 0.54815 0.62636 0.0
C1052 C 0.48223 0.55458 0.65364 0.0
C1053 C 0.45155 0.52917 0.66281 0.0
C1054 C 0.39661 0.86744 0.6889 0.0
C1055 C 0.39954 0.89402 0.66625 0.0
C1056 C 0.42191 0.86258 0.69316 0.0
C1057 C 0.4515 0.88419 0.67536 0.0
H1058 H 0.37434 0.84966 0.70256 0.0
H1059 H 0.41803 0.84141 0.71038 0.0
S1060 S 0.47235 0.95889 0.61603 0.0
N1061 N 0.43487 0.94322 0.62783 0.0
N1062 N 0.4827 0.93414 0.63633 0.0
C1063 C 0.4552 0.91154 0.65423 0.0
C1064 C 0.42918 0.91642 0.64952 0.0
C1065 C 0.19673 0.45971 0.13392 0.0
C1066 C 0.17315 0.43226 0.15475 0.0
C1067 C 0.22684 0.46468 0.12811 0.0
C1068 C 0.23474 0.44234 0.1425 0.0
H1069 H 0.19222 0.47802 0.12303 0.0
H1070 H 0.24415 0.48652 0.11261 0.0
S1071 S 0.1809 0.36532 0.19559 0.0
N1072 N 0.1592 0.38154 0.18743 0.0
N1073 N 0.21596 0.39083 0.17619 0.0
C1074 C 0.21111 0.41419 0.16168 0.0
C1075 C 0.18032 0.40918 0.1679 0.0
C1076 C 0.5781 0.79222 0.15739 0.0
C1077 C 0.5557 0.78839 0.12317 0.0
C1078 C 0.58332 0.76758 0.16892 0.0
C1079 C 0.56631 0.73844 0.14652 0.0
H1080 H 0.59046 0.81375 0.17711 0.0
H1081 H 0.59964 0.77095 0.19709 0.0
S1082 S 0.50931 0.71857 0.04834 0.0
N1083 N 0.51953 0.75462 0.06269 0.0
N1084 N 0.5293 0.70866 0.08419 0.0
C1085 C 0.54557 0.7352 0.10989 0.0
C1086 C 0.54027 0.76009 0.09826 0.0
C1087 C 0.21614 0.76601 0.10973 0.0
C1088 C 0.18671 0.75714 0.12914 0.0
C1089 C 0.24182 0.79517 0.11883 0.0
C1090 C 0.23938 0.81687 0.14801 0.0
H1091 H 0.21967 0.74995 0.08811 0.0
H1092 H 0.26403 0.8003 0.10393 0.0
S1093 S 0.16691 0.80645 0.20388 0.0
N1094 N 0.15598 0.7733 0.17597 0.0
N1095 N 0.20453 0.82844 0.19337 0.0
C1096 C 0.20976 0.80908 0.16566 0.0
C1097 C 0.18337 0.77917 0.15613 0.0
C1098 C 0.23647 0.25758 0.21518 0.0
C1099 C 0.24624 0.2382 0.19419 0.0
C1100 C 0.23384 0.25854 0.26489 0.0
C1101 C 0.24197 0.24102 0.29482 0.0
H1102 H 0.22811 0.26979 0.19307 0.0
H1103 H 0.22362 0.27151 0.27984 0.0
S1104 S 0.27365 0.19082 0.25735 0.0
N1105 N 0.26717 0.20381 0.20686 0.0
N1106 N 0.26364 0.20681 0.30043 0.0
C1107 C 0.2548 0.22417 0.27438 0.0
C1108 C 0.25659 0.22246 0.22387 0.0
C1109 C 0.80783 -0.00295 0.22885 0.0
C1110 C 0.78487 -0.00232 0.20022 0.0
C1111 C 0.80537 -0.00455 0.27847 0.0
C1112 C 0.77998 -0.00528 0.30206 0.0
H1113 H 0.82789 -0.00259 0.21288 0.0
H1114 H 0.82381 -0.00501 0.29848 0.0
S1115 S 0.71373 -0.00361 0.24399 0.0
N1116 N 0.73587 -0.00232 0.19911 0.0
N1117 N 0.73141 -0.00498 0.29303 0.0
C1118 C 0.75692 -0.00433 0.2741 0.0
C1119 C 0.75928 -0.00302 0.22312 0.0
C1120 C 0.98397 0.74793 0.27661 0.0
C1121 C -0.00146 0.77627 0.30191 0.0
C1122 C 0.98498 0.74741 0.22641 0.0
C1123 C 0.00037 0.77523 0.20024 0.0
H1124 H 0.97063 0.72614 0.29546 0.0
H1125 H 0.97243 0.72537 0.20801 0.0
S1126 S 0.04693 0.8548 0.24894 0.0
N1127 N 0.03261 0.83237 0.29636 0.0
N1128 N 0.0337 0.83118 0.20274 0.0
C1129 C 0.0167 0.80334 0.22507 0.0
C1130 C 0.01602 0.80392 0.27574 0.0
C1131 C 0.75212 0.74071 0.76346 0.0
C1132 C 0.76132 0.7691 0.78698 0.0
C1133 C 0.74944 0.73859 0.71344 0.0
C1134 C 0.75562 0.76469 0.68592 0.0
H1135 H 0.74876 0.72059 0.78341 0.0
H1136 H 0.74439 0.7171 0.69617 0.0
S1137 S 0.77473 0.8424 0.73031 0.0
N1138 N 0.77228 0.82246 0.77884 0.0
N1139 N 0.76743 0.81829 0.68537 0.0
C1140 C 0.7624 0.79231 0.70916 0.0
C1141 C 0.76514 0.79454 0.75963 0.0
C1142 C 0.21997 0.96904 0.71973 0.0
C1143 C 0.23007 -0.00242 0.69651 0.0
C1144 C 0.22161 0.96767 0.76956 0.0
C1145 C 0.23435 -0.00513 0.79716 0.0
H1146 H 0.20827 0.94752 0.69982 0.0
H1147 H 0.21109 0.94516 0.78681 0.0
S1148 S 0.26826 0.07545 0.75241 0.0
N1149 N 0.2559 0.05368 0.70398 0.0
N1150 N 0.26028 0.05118 0.7975 0.0
C1151 C 0.24726 0.02365 0.77387 0.0
C1152 C 0.24477 0.025 0.72342 0.0
C1153 C 0.0267 0.22694 0.71454 0.0
C1154 C 0.00336 0.23057 0.69241 0.0
C1155 C 0.02934 0.2274 0.76415 0.0
C1156 C 0.0085 0.23117 0.79363 0.0
H1157 H 0.04229 0.22244 0.6933 0.0
H1158 H 0.04709 0.22342 0.77954 0.0
S1159 S 0.94364 0.24229 0.75256 0.0
N1160 N 0.95975 0.23924 0.70278 0.0
N1161 N 0.96436 0.23982 0.79668 0.0
C1162 C 0.98597 0.23644 0.77178 0.0
C1163 C 0.98343 0.23613 0.72092 0.0
C1164 C 0.91717 0.56015 0.55184 0.0
C1165 C 0.90437 0.57511 0.52539 0.0
C1166 C 0.9192 0.56255 0.60165 0.0
C1167 C 0.90761 0.57919 0.62638 0.0
H1168 H 0.92379 0.54492 0.53416 0.0
H1169 H 0.92716 0.54895 0.62108 0.0
S1170 S 0.87532 0.62538 0.57333 0.0
N1171 N 0.88355 0.61019 0.52702 0.0
N1172 N 0.88563 0.61312 0.62104 0.0
C1173 C 0.89689 0.59605 0.60021 0.0
C1174 C 0.89577 0.59446 0.54944 0.0
C1175 C 0.46917 0.34541 0.53816 0.0
C1176 C 0.44015 0.32949 0.51502 0.0
C1177 C 0.47147 0.34589 0.58777 0.0
C1178 C 0.44486 0.33094 0.61654 0.0
H1179 H 0.49058 0.35702 0.51784 0.0
H1180 H 0.4944 0.35769 0.60379 0.0
S1181 S 0.36334 0.28661 0.57491 0.0
N1182 N 0.38399 0.2988 0.52533 0.0
N1183 N 0.38855 0.30042 0.61926 0.0
C1184 C 0.41558 0.31604 0.59449 0.0
C1185 C 0.41316 0.31516 0.54355 0.0
C1186 C 0.62767 0.06681 0.60679 0.0
C1187 C 0.65712 0.07764 0.62724 0.0
C1188 C 0.62417 0.06665 0.55724 0.0
C1189 C 0.64989 0.07657 0.52672 0.0
H1190 H 0.60775 0.06112 0.62925 0.0
H1191 H 0.60159 0.06062 0.54282 0.0
S1192 S 0.73105 0.10267 0.56294 0.0
N1193 N 0.71185 0.09586 0.61378 0.0
N1194 N 0.70502 0.0939 0.52024 0.0
C1195 C 0.67886 0.08439 0.54668 0.0
C1196 C 0.68257 0.08545 0.59721 0.0
C1197 C 0.40171 0.07763 0.08965 0.0
C1198 C 0.42778 0.08728 0.11922 0.0
C1199 C 0.40479 0.07808 0.03967 0.0
C1200 C 0.434 0.08806 0.01814 0.0
H1201 H 0.37931 0.07143 0.10502 0.0
H1202 H 0.38455 0.07214 0.01791 0.0
S1203 S 0.50777 0.10943 0.08162 0.0
N1204 N 0.48242 0.10288 0.12446 0.0
N1205 N 0.4883 0.10307 0.03128 0.0
C1206 C 0.45952 0.09508 0.04799 0.0
C1207 C 0.45638 0.09489 0.09839 0.0
C1208 C 0.85041 0.33644 0.09646 0.0
C1209 C 0.86943 0.32904 0.12411 0.0
C1210 C 0.85243 0.3378 0.04684 0.0
C1211 C 0.87339 0.33151 0.02207 0.0
H1212 H 0.83362 0.34129 0.11329 0.0
H1213 H 0.83687 0.34343 0.02785 0.0
S1214 S 0.92884 0.3113 0.07791 0.0
N1215 N 0.91049 0.31591 0.12356 0.0
N1216 N 0.91414 0.31803 0.0295 0.0
C1217 C 0.89301 0.32448 0.04925 0.0
C1218 C 0.89111 0.32341 0.10036 0.0
C1219 C 0.68271 0.54228 0.10956 0.0
C1220 C 0.66352 0.55088 0.13452 0.0
C1221 C 0.68404 0.54296 0.05982 0.0
C1222 C 0.66667 0.55274 0.0329 0.0
H1223 H 0.69627 0.53407 0.12847 0.0
H1224 H 0.69838 0.53517 0.04218 0.0
S1225 S 0.613 0.57783 0.07982 0.0
N1226 N 0.62688 0.56984 0.12797 0.0
N1227 N 0.63009 0.57167 0.03391 0.0
C1228 C 0.64835 0.56263 0.05692 0.0
C1229 C 0.64663 0.56159 0.1079 0.0
C1230 C 0.56827 0.89574 0.92575 0.0
C1231 C 0.53962 0.88321 0.95011 0.0
C1232 C 0.56946 0.89634 0.87554 0.0
C1233 C 0.54202 0.88427 0.8485 0.0
H1234 H 0.58972 0.90381 0.94543 0.0
H1235 H 0.59167 0.90478 0.85792 0.0
S1236 S 0.46202 0.85427 0.89427 0.0
N1237 N 0.48376 0.86263 0.94254 0.0
N1238 N 0.48618 0.86319 0.84889 0.0
C1239 C 0.51365 0.87371 0.87226 0.0
C1240 C 0.5124 0.87336 0.92292 0.0
C1241 C 0.07811 0.66607 0.93336 0.0
C1242 C 0.08978 0.64922 0.9579 0.0
C1243 C 0.07828 0.66721 0.88323 0.0
C1244 C 0.09014 0.6516 0.85637 0.0
H1245 H 0.07011 0.67958 0.95289 0.0
H1246 H 0.07067 0.68162 0.86552 0.0
S1247 S 0.11845 0.60024 0.90232 0.0
N1248 N 0.10974 0.61339 0.95052 0.0
N1249 N 0.11045 0.61619 0.85688 0.0
C1250 C 0.09998 0.63322 0.88017 0.0
C1251 C 0.09964 0.63181 0.93082 0.0
C1252 C 0.35354 0.4756 0.94549 0.0
C1253 C 0.33796 0.44803 0.9724 0.0
C1254 C 0.35261 0.47512 0.89575 0.0
C1255 C 0.33652 0.44707 0.87063 0.0
H1256 H 0.36596 0.49801 0.96287 0.0
H1257 H 0.36421 0.49703 0.87672 0.0
S1258 S 0.29249 0.36832 0.923 0.0
N1259 N 0.30633 0.39161 0.9696 0.0
N1260 N 0.30529 0.39093 0.87544 0.0
C1261 C 0.32191 0.41917 0.8965 0.0
C1262 C 0.32247 0.4196 0.94755 0.0
C1263 C 0.13592 0.45278 0.43879 0.0
C1264 C 0.10773 0.43814 0.46395 0.0
C1265 C 0.13651 0.4532 0.38906 0.0
C1266 C 0.10887 0.4394 0.36212 0.0
H1267 H 0.15784 0.46458 0.45779 0.0
H1268 H 0.15901 0.46531 0.37174 0.0
S1269 S 0.02882 0.39733 0.41147 0.0
N1270 N 0.05144 0.40843 0.45905 0.0
N1271 N 0.0523 0.40962 0.36484 0.0
C1272 C 0.08039 0.42363 0.38691 0.0
C1273 C 0.07988 0.42291 0.43799 0.0
C1274 C 0.55824 0.63424 0.38485 0.0
C1275 C 0.57667 0.66275 0.3617 0.0
C1276 C 0.55654 0.63256 0.43471 0.0
C1277 C 0.57378 0.6592 0.46278 0.0
H1278 H 0.54299 0.6137 0.36437 0.0
H1279 H 0.54021 0.6107 0.45132 0.0
S1280 S 0.62935 0.73821 0.41887 0.0
N1281 N 0.61491 0.71737 0.36993 0.0
N1282 N 0.6128 0.71401 0.46397 0.0
C1283 C 0.59467 0.68715 0.44003 0.0
C1284 C 0.59579 0.689 0.38923 0.0
C1285 C 0.33503 0.86066 0.38712 0.0
C1286 C 0.32131 0.87486 0.36127 0.0
C1287 C 0.33578 0.8614 0.43686 0.0
C1288 C 0.32235 0.87597 0.46302 0.0
H1289 H 0.34519 0.84868 0.36869 0.0
H1290 H 0.34656 0.84988 0.45485 0.0
S1291 S 0.28249 0.91565 0.41134 0.0
N1292 N 0.29394 0.90386 0.36448 0.0
N1293 N 0.29458 0.90483 0.45863 0.0
C1294 C 0.30885 0.8907 0.43739 0.0
C1295 C 0.30851 0.89024 0.38636 0.0
loop_
_geom_bond_atom_site_label_1
_geom_bond_atom_site_label_2
_geom_bond_distance
_geom_bond_site_symmetry_2
_ccdc_geom_bond_type
C0 O1 1.306 . S
C0 O3 1.160 . S
O1 C0 1.306 . S
O1 Cd2 2.228 . S
Cd2 O1 2.228 . S
Cd2 O6 2.273 . S
Cd2 O10 2.277 . S
O3 C0 1.160 . S
O3 Cd4 2.203 . S
Cd4 O3 2.203 . S
Cd4 O6 2.411 . S
Cd4 O7 2.333 . S
Cd4 O8 2.352 1_554 S
Cd4 O12 2.277 . S
Cd4 O13 2.356 . S
C5 O10 1.209 . S
C5 O12 1.226 . S
O6 Cd2 2.273 . S
O6 Cd4 2.411 . S
O6 C9 1.320 . S
O7 Cd4 2.333 . S
O7 C9 1.214 . S
O8 Cd4 2.352 1_556 S
O8 C11 1.258 . S
C9 O6 1.320 . S
C9 O7 1.214 . S
O10 Cd2 2.277 . S
O10 C5 1.209 . S
C11 O8 1.258 . S
C11 O13 1.282 1_556 S
O12 Cd4 2.277 . S
O12 C5 1.226 . S
O13 Cd4 2.356 . S
O13 C11 1.282 1_554 S
C14 O15 1.306 . S
C14 O17 1.160 . S
O15 C14 1.306 . S
O15 Cd16 2.228 1_565 S
Cd16 O15 2.228 1_545 S
Cd16 O20 2.273 . S
Cd16 O24 2.277 . S
O17 C14 1.160 . S
O17 Cd18 2.203 1_565 S
Cd18 O17 2.203 1_545 S
Cd18 O20 2.411 . S
Cd18 O21 2.333 . S
Cd18 O22 2.352 1_554 S
Cd18 O26 2.277 . S
Cd18 O27 2.356 . S
C19 O24 1.209 . S
C19 O26 1.226 . S
O20 Cd16 2.273 . S
O20 Cd18 2.411 . S
O20 C23 1.320 . S
O21 Cd18 2.333 . S
O21 C23 1.214 . S
O22 Cd18 2.352 1_556 S
O22 C25 1.258 . S
C23 O20 1.320 . S
C23 O21 1.214 . S
O24 Cd16 2.277 . S
O24 C19 1.209 . S
C25 O22 1.258 . S
C25 O27 1.282 1_556 S
O26 Cd18 2.277 . S
O26 C19 1.226 . S
O27 Cd18 2.356 . S
O27 C25 1.282 1_554 S
C28 O29 1.306 . S
C28 O31 1.160 . S
O29 C28 1.306 . S
O29 Cd30 2.228 1_455 S
Cd30 O29 2.228 1_655 S
Cd30 O34 2.273 . S
Cd30 O38 2.277 . S
O31 C28 1.160 . S
O31 Cd32 2.203 1_455 S
Cd32 O31 2.203 1_655 S
Cd32 O34 2.411 . S
Cd32 O35 2.333 . S
Cd32 O36 2.352 1_554 S
Cd32 O40 2.277 . S
Cd32 O41 2.356 . S
C33 O38 1.209 . S
C33 O40 1.226 . S
O34 Cd30 2.273 . S
O34 Cd32 2.411 . S
O34 C37 1.320 . S
O35 Cd32 2.333 . S
O35 C37 1.214 . S
O36 Cd32 2.352 1_556 S
O36 C39 1.258 . S
C37 O34 1.320 . S
C37 O35 1.214 . S
O38 Cd30 2.277 . S
O38 C33 1.209 . S
C39 O36 1.258 . S
C39 O41 1.282 1_556 S
O40 Cd32 2.277 . S
O40 C33 1.226 . S
O41 Cd32 2.356 . S
O41 C39 1.282 1_554 S
C42 O43 1.306 . S
C42 O45 1.160 . S
O43 C42 1.306 . S
O43 Cd44 2.228 . S
Cd44 O43 2.228 . S
Cd44 O48 2.273 . S
Cd44 O52 2.277 . S
O45 C42 1.160 . S
O45 Cd46 2.203 . S
Cd46 O45 2.203 . S
Cd46 O48 2.411 . S
Cd46 O49 2.333 . S
Cd46 O50 2.352 . S
Cd46 O54 2.277 . S
Cd46 O55 2.356 . S
C47 O52 1.209 . S
C47 O54 1.226 . S
O48 Cd44 2.273 . S
O48 Cd46 2.411 . S
O48 C51 1.320 . S
O49 Cd46 2.333 . S
O49 C51 1.214 . S
O50 Cd46 2.352 . S
O50 C53 1.258 . S
C51 O48 1.320 . S
C51 O49 1.214 . S
O52 Cd44 2.277 . S
O52 C47 1.209 . S
C53 O50 1.258 . S
C53 O55 1.282 . S
O54 Cd46 2.277 . S
O54 C47 1.226 . S
O55 Cd46 2.356 . S
O55 C53 1.282 . S
C56 O57 1.306 . S
C56 O59 1.160 . S
O57 C56 1.306 . S
O57 Cd58 2.228 1_545 S
Cd58 O57 2.228 1_565 S
Cd58 O62 2.273 . S
Cd58 O66 2.277 . S
O59 C56 1.160 . S
O59 Cd60 2.203 1_545 S
Cd60 O59 2.203 1_565 S
Cd60 O62 2.411 . S
Cd60 O63 2.333 . S
Cd60 O64 2.352 . S
Cd60 O68 2.277 . S
Cd60 O69 2.356 . S
C61 O66 1.209 . S
C61 O68 1.226 . S
O62 Cd58 2.273 . S
O62 Cd60 2.411 . S
O62 C65 1.320 . S
O63 Cd60 2.333 . S
O63 C65 1.214 . S
O64 Cd60 2.352 . S
O64 C67 1.258 . S
C65 O62 1.320 . S
C65 O63 1.214 . S
O66 Cd58 2.277 . S
O66 C61 1.209 . S
C67 O64 1.258 . S
C67 O69 1.282 . S
O68 Cd60 2.277 . S
O68 C61 1.226 . S
O69 Cd60 2.356 . S
O69 C67 1.282 . S
C70 O71 1.306 . S
C70 O73 1.160 . S
O71 C70 1.306 . S
O71 Cd72 2.228 1_655 S
Cd72 O71 2.228 1_455 S
Cd72 O76 2.273 . S
Cd72 O80 2.277 . S
O73 C70 1.160 . S
O73 Cd74 2.203 1_655 S
Cd74 O73 2.203 1_455 S
Cd74 O76 2.411 . S
Cd74 O77 2.333 . S
Cd74 O78 2.352 . S
Cd74 O82 2.277 . S
Cd74 O83 2.356 . S
C75 O80 1.209 . S
C75 O82 1.226 . S
O76 Cd72 2.273 . S
O76 Cd74 2.411 . S
O76 C79 1.320 . S
O77 Cd74 2.333 . S
O77 C79 1.214 . S
O78 Cd74 2.352 . S
O78 C81 1.258 . S
C79 O76 1.320 . S
C79 O77 1.214 . S
O80 Cd72 2.277 . S
O80 C75 1.209 . S
C81 O78 1.258 . S
C81 O83 1.282 . S
O82 Cd74 2.277 . S
O82 C75 1.226 . S
O83 Cd74 2.356 . S
O83 C81 1.282 . S
C84 O85 1.306 . S
C84 O87 1.160 . S
O85 C84 1.306 . S
O85 Cd86 2.228 . S
Cd86 O85 2.228 . S
Cd86 O90 2.273 . S
Cd86 O94 2.277 . S
O87 C84 1.160 . S
O87 Cd88 2.203 . S
Cd88 O87 2.203 . S
Cd88 O90 2.411 . S
Cd88 O91 2.333 . S
Cd88 O92 2.352 1_556 S
Cd88 O96 2.277 . S
Cd88 O97 2.356 . S
C89 O94 1.209 . S
C89 O96 1.226 . S
O90 Cd86 2.273 . S
O90 Cd88 2.411 . S
O90 C93 1.320 . S
O91 Cd88 2.333 . S
O91 C93 1.214 . S
O92 Cd88 2.352 1_554 S
O92 C95 1.258 . S
C93 O90 1.320 . S
C93 O91 1.214 . S
O94 Cd86 2.277 . S
O94 C89 1.209 . S
C95 O92 1.258 . S
C95 O97 1.282 1_554 S
O96 Cd88 2.277 . S
O96 C89 1.226 . S
O97 Cd88 2.356 . S
O97 C95 1.282 1_556 S
C98 O99 1.306 . S
C98 O101 1.160 . S
O99 C98 1.306 . S
O99 Cd100 2.228 1_545 S
Cd100 O99 2.228 1_565 S
Cd100 O104 2.273 . S
Cd100 O108 2.277 . S
O101 C98 1.160 . S
O101 Cd102 2.203 1_545 S
Cd102 O101 2.203 1_565 S
Cd102 O104 2.411 . S
Cd102 O105 2.333 . S
Cd102 O106 2.352 1_556 S
Cd102 O110 2.277 . S
Cd102 O111 2.356 . S
C103 O108 1.209 . S
C103 O110 1.226 . S
O104 Cd100 2.273 . S
O104 Cd102 2.411 . S
O104 C107 1.320 . S
O105 Cd102 2.333 . S
O105 C107 1.214 . S
O106 Cd102 2.352 1_554 S
O106 C109 1.258 . S
C107 O104 1.320 . S
C107 O105 1.214 . S
O108 Cd100 2.277 . S
O108 C103 1.209 . S
C109 O106 1.258 . S
C109 O111 1.282 1_554 S
O110 Cd102 2.277 . S
O110 C103 1.226 . S
O111 Cd102 2.356 . S
O111 C109 1.282 1_556 S
C112 O113 1.306 . S
C112 O115 1.160 . S
O113 C112 1.306 . S
O113 Cd114 2.228 1_655 S
Cd114 O113 2.228 1_455 S
Cd114 O118 2.273 . S
Cd114 O122 2.277 . S
O115 C112 1.160 . S
O115 Cd116 2.203 1_655 S
Cd116 O115 2.203 1_455 S
Cd116 O118 2.411 . S
Cd116 O119 2.333 . S
Cd116 O120 2.352 1_556 S
Cd116 O124 2.277 . S
Cd116 O125 2.356 . S
C117 O122 1.209 . S
C117 O124 1.226 . S
O118 Cd114 2.273 . S
O118 Cd116 2.411 . S
O118 C121 1.320 . S
O119 Cd116 2.333 . S
O119 C121 1.214 . S
O120 Cd116 2.352 1_554 S
O120 C123 1.258 . S
C121 O118 1.320 . S
C121 O119 1.214 . S
O122 Cd114 2.277 . S
O122 C117 1.209 . S
C123 O120 1.258 . S
C123 O125 1.282 1_554 S
O124 Cd116 2.277 . S
O124 C117 1.226 . S
O125 Cd116 2.356 . S
O125 C123 1.282 1_556 S
C126 O127 1.306 . S
C126 O129 1.160 . S
O127 C126 1.306 . S
O127 Cd128 2.228 . S
Cd128 O127 2.228 . S
Cd128 O132 2.273 . S
Cd128 O136 2.277 . S
O129 C126 1.160 . S
O129 Cd130 2.203 . S
Cd130 O129 2.203 . S
Cd130 O132 2.411 . S
Cd130 O133 2.333 . S
Cd130 O134 2.352 . S
Cd130 O138 2.277 . S
Cd130 O139 2.356 . S
C131 O136 1.209 . S
C131 O138 1.226 . S
O132 Cd128 2.273 . S
O132 Cd130 2.411 . S
O132 C135 1.320 . S
O133 Cd130 2.333 . S
O133 C135 1.214 . S
O134 Cd130 2.352 . S
O134 C137 1.258 . S
C135 O132 1.320 . S
C135 O133 1.214 . S
O136 Cd128 2.277 . S
O136 C131 1.209 . S
C137 O134 1.258 . S
C137 O139 1.282 . S
O138 Cd130 2.277 . S
O138 C131 1.226 . S
O139 Cd130 2.356 . S
O139 C137 1.282 . S
C140 O141 1.306 . S
C140 O143 1.160 . S
O141 C140 1.306 . S
O141 Cd142 2.228 1_565 S
Cd142 O141 2.228 1_545 S
Cd142 O146 2.273 . S
Cd142 O150 2.277 . S
O143 C140 1.160 . S
O143 Cd144 2.203 1_565 S
Cd144 O143 2.203 1_545 S
Cd144 O146 2.411 . S
Cd144 O147 2.333 . S
Cd144 O148 2.352 . S
Cd144 O152 2.277 . S
Cd144 O153 2.356 . S
C145 O150 1.209 . S
C145 O152 1.226 . S
O146 Cd142 2.273 . S
O146 Cd144 2.411 . S
O146 C149 1.320 . S
O147 Cd144 2.333 . S
O147 C149 1.214 . S
O148 Cd144 2.352 . S
O148 C151 1.258 . S
C149 O146 1.320 . S
C149 O147 1.214 . S
O150 Cd142 2.277 . S
O150 C145 1.209 . S
C151 O148 1.258 . S
C151 O153 1.282 . S
O152 Cd144 2.277 . S
O152 C145 1.226 . S
O153 Cd144 2.356 . S
O153 C151 1.282 . S
C154 O155 1.306 . S
C154 O157 1.160 . S
O155 C154 1.306 . S
O155 Cd156 2.228 1_455 S
Cd156 O155 2.228 1_655 S
Cd156 O160 2.273 . S
Cd156 O164 2.277 . S
O157 C154 1.160 . S
O157 Cd158 2.203 1_455 S
Cd158 O157 2.203 1_655 S
Cd158 O160 2.411 . S
Cd158 O161 2.333 . S
Cd158 O162 2.352 . S
Cd158 O166 2.277 . S
Cd158 O167 2.356 . S
C159 O164 1.209 . S
C159 O166 1.226 . S
O160 Cd156 2.273 . S
O160 Cd158 2.411 . S
O160 C163 1.320 . S
O161 Cd158 2.333 . S
O161 C163 1.214 . S
O162 Cd158 2.352 . S
O162 C165 1.258 . S
C163 O160 1.320 . S
C163 O161 1.214 . S
O164 Cd156 2.277 . S
O164 C159 1.209 . S
C165 O162 1.258 . S
C165 O167 1.282 . S
O166 Cd158 2.277 . S
O166 C159 1.226 . S
O167 Cd158 2.356 . S
O167 C165 1.282 . S
C168 O169 1.306 . S
C168 O171 1.160 . S
O169 C168 1.306 . S
O169 Cd170 2.228 . S
Cd170 O169 2.228 . S
Cd170 O174 2.273 . S
Cd170 O178 2.277 . S
O171 C168 1.160 . S
O171 Cd172 2.203 . S
Cd172 O171 2.203 . S
Cd172 O174 2.411 . S
Cd172 O175 2.333 . S
Cd172 O176 2.352 . S
Cd172 O180 2.277 . S
Cd172 O181 2.356 . S
C173 O178 1.209 . S
C173 O180 1.226 . S
O174 Cd170 2.273 . S
O174 Cd172 2.411 . S
O174 C177 1.320 . S
O175 Cd172 2.333 . S
O175 C177 1.214 . S
O176 Cd172 2.352 . S
O176 C179 1.258 . S
C177 O174 1.320 . S
C177 O175 1.214 . S
O178 Cd170 2.277 . S
O178 C173 1.209 . S
C179 O176 1.258 . S
C179 O181 1.282 . S
O180 Cd172 2.277 . S
O180 C173 1.226 . S
O181 Cd172 2.356 . S
O181 C179 1.282 . S
C182 O183 1.306 . S
C182 O185 1.160 . S
O183 C182 1.306 . S
O183 Cd184 2.228 . S
Cd184 O183 2.228 . S
Cd184 O188 2.273 . S
Cd184 O192 2.277 . S
O185 C182 1.160 . S
O185 Cd186 2.203 . S
Cd186 O185 2.203 . S
Cd186 O188 2.411 . S
Cd186 O189 2.333 . S
Cd186 O190 2.352 . S
Cd186 O194 2.277 . S
Cd186 O195 2.356 . S
C187 O192 1.209 . S
C187 O194 1.226 . S
O188 Cd184 2.273 . S
O188 Cd186 2.411 . S
O188 C191 1.320 . S
O189 Cd186 2.333 . S
O189 C191 1.214 . S
O190 Cd186 2.352 . S
O190 C193 1.258 . S
C191 O188 1.320 . S
C191 O189 1.214 . S
O192 Cd184 2.277 . S
O192 C187 1.209 . S
C193 O190 1.258 . S
C193 O195 1.282 . S
O194 Cd186 2.277 . S
O194 C187 1.226 . S
O195 Cd186 2.356 . S
O195 C193 1.282 . S
C196 O197 1.306 . S
C196 O199 1.160 . S
O197 C196 1.306 . S
O197 Cd198 2.228 . S
Cd198 O197 2.228 . S
Cd198 O202 2.273 . S
Cd198 O206 2.277 . S
O199 C196 1.160 . S
O199 Cd200 2.203 . S
Cd200 O199 2.203 . S
Cd200 O202 2.411 . S
Cd200 O203 2.333 . S
Cd200 O204 2.352 . S
Cd200 O208 2.277 . S
Cd200 O209 2.356 . S
C201 O206 1.209 . S
C201 O208 1.226 . S
O202 Cd198 2.273 . S
O202 Cd200 2.411 . S
O202 C205 1.320 . S
O203 Cd200 2.333 . S
O203 C205 1.214 . S
O204 Cd200 2.352 . S
O204 C207 1.258 . S
C205 O202 1.320 . S
C205 O203 1.214 . S
O206 Cd198 2.277 . S
O206 C201 1.209 . S
C207 O204 1.258 . S
C207 O209 1.282 . S
O208 Cd200 2.277 . S
O208 C201 1.226 . S
O209 Cd200 2.356 . S
O209 C207 1.282 . S
C210 O211 1.306 . S
C210 O213 1.160 . S
O211 C210 1.306 . S
O211 Cd212 2.228 . S
Cd212 O211 2.228 . S
Cd212 O216 2.273 . S
Cd212 O220 2.277 . S
O213 C210 1.160 . S
O213 Cd214 2.203 . S
Cd214 O213 2.203 . S
Cd214 O216 2.411 . S
Cd214 O217 2.333 . S
Cd214 O218 2.352 . S
Cd214 O222 2.277 . S
Cd214 O223 2.356 . S
C215 O220 1.209 . S
C215 O222 1.226 . S
O216 Cd212 2.273 . S
O216 Cd214 2.411 . S
O216 C219 1.320 . S
O217 Cd214 2.333 . S
O217 C219 1.214 . S
O218 Cd214 2.352 . S
O218 C221 1.258 . S
C219 O216 1.320 . S
C219 O217 1.214 . S
O220 Cd212 2.277 . S
O220 C215 1.209 . S
C221 O218 1.258 . S
C221 O223 1.282 . S
O222 Cd214 2.277 . S
O222 C215 1.226 . S
O223 Cd214 2.356 . S
O223 C221 1.282 . S
C224 O225 1.306 . S
C224 O227 1.160 . S
O225 C224 1.306 . S
O225 Cd226 2.228 . S
Cd226 O225 2.228 . S
Cd226 O230 2.273 . S
Cd226 O234 2.277 . S
O227 C224 1.160 . S
O227 Cd228 2.203 . S
Cd228 O227 2.203 . S
Cd228 O230 2.411 . S
Cd228 O231 2.333 . S
Cd228 O232 2.352 . S
Cd228 O236 2.277 . S
Cd228 O237 2.356 . S
C229 O234 1.209 . S
C229 O236 1.226 . S
O230 Cd226 2.273 . S
O230 Cd228 2.411 . S
O230 C233 1.320 . S
O231 Cd228 2.333 . S
O231 C233 1.214 . S
O232 Cd228 2.352 . S
O232 C235 1.258 . S
C233 O230 1.320 . S
C233 O231 1.214 . S
O234 Cd226 2.277 . S
O234 C229 1.209 . S
C235 O232 1.258 . S
C235 O237 1.282 . S
O236 Cd228 2.277 . S
O236 C229 1.226 . S
O237 Cd228 2.356 . S
O237 C235 1.282 . S
C238 O239 1.306 . S
C238 O241 1.160 . S
O239 C238 1.306 . S
O239 Cd240 2.228 . S
Cd240 O239 2.228 . S
Cd240 O244 2.273 . S
Cd240 O248 2.277 . S
O241 C238 1.160 . S
O241 Cd242 2.203 . S
Cd242 O241 2.203 . S
Cd242 O244 2.411 . S
Cd242 O245 2.333 . S
Cd242 O246 2.352 . S
Cd242 O250 2.277 . S
Cd242 O251 2.356 . S
C243 O248 1.209 . S
C243 O250 1.226 . S
O244 Cd240 2.273 . S
O244 Cd242 2.411 . S
O244 C247 1.320 . S
O245 Cd242 2.333 . S
O245 C247 1.214 . S
O246 Cd242 2.352 . S
O246 C249 1.258 . S
C247 O244 1.320 . S
C247 O245 1.214 . S
O248 Cd240 2.277 . S
O248 C243 1.209 . S
C249 O246 1.258 . S
C249 O251 1.282 . S
O250 Cd242 2.277 . S
O250 C243 1.226 . S
O251 Cd242 2.356 . S
O251 C249 1.282 . S
C252 O253 1.306 . S
C252 O255 1.160 . S
O253 C252 1.306 . S
O253 Cd254 2.228 . S
Cd254 O253 2.228 . S
Cd254 O258 2.273 . S
Cd254 O262 2.277 . S
O255 C252 1.160 . S
O255 Cd256 2.203 . S
Cd256 O255 2.203 . S
Cd256 O258 2.411 . S
Cd256 O259 2.333 . S
Cd256 O260 2.352 . S
Cd256 O264 2.277 . S
Cd256 O265 2.356 . S
C257 O262 1.209 . S
C257 O264 1.226 . S
O258 Cd254 2.273 . S
O258 Cd256 2.411 . S
O258 C261 1.320 . S
O259 Cd256 2.333 . S
O259 C261 1.214 . S
O260 Cd256 2.352 . S
O260 C263 1.258 . S
C261 O258 1.320 . S
C261 O259 1.214 . S
O262 Cd254 2.277 . S
O262 C257 1.209 . S
C263 O260 1.258 . S
C263 O265 1.282 . S
O264 Cd256 2.277 . S
O264 C257 1.226 . S
O265 Cd256 2.356 . S
O265 C263 1.282 . S
C266 O267 1.306 . S
C266 O269 1.160 . S
O267 C266 1.306 . S
O267 Cd268 2.228 . S
Cd268 O267 2.228 . S
Cd268 O272 2.273 . S
Cd268 O276 2.277 . S
O269 C266 1.160 . S
O269 Cd270 2.203 . S
Cd270 O269 2.203 . S
Cd270 O272 2.411 . S
Cd270 O273 2.333 . S
Cd270 O274 2.352 . S
Cd270 O278 2.277 . S
Cd270 O279 2.356 . S
C271 O276 1.209 . S
C271 O278 1.226 . S
O272 Cd268 2.273 . S
O272 Cd270 2.411 . S
O272 C275 1.320 . S
O273 Cd270 2.333 . S
O273 C275 1.214 . S
O274 Cd270 2.352 . S
O274 C277 1.258 . S
C275 O272 1.320 . S
C275 O273 1.214 . S
O276 Cd268 2.277 . S
O276 C271 1.209 . S
C277 O274 1.258 . S
C277 O279 1.282 . S
O278 Cd270 2.277 . S
O278 C271 1.226 . S
O279 Cd270 2.356 . S
O279 C277 1.282 . S
C280 O281 1.306 . S
C280 O283 1.160 . S
O281 C280 1.306 . S
O281 Cd282 2.228 . S
Cd282 O281 2.228 . S
Cd282 O286 2.273 . S
Cd282 O290 2.277 . S
O283 C280 1.160 . S
O283 Cd284 2.203 . S
Cd284 O283 2.203 . S
Cd284 O286 2.411 . S
Cd284 O287 2.333 . S
Cd284 O288 2.352 . S
Cd284 O292 2.277 . S
Cd284 O293 2.356 . S
C285 O290 1.209 . S
C285 O292 1.226 . S
O286 Cd282 2.273 . S
O286 Cd284 2.411 . S
O286 C289 1.320 . S
O287 Cd284 2.333 . S
O287 C289 1.214 . S
O288 Cd284 2.352 . S
O288 C291 1.258 . S
C289 O286 1.320 . S
C289 O287 1.214 . S
O290 Cd282 2.277 . S
O290 C285 1.209 . S
C291 O288 1.258 . S
C291 O293 1.282 . S
O292 Cd284 2.277 . S
O292 C285 1.226 . S
O293 Cd284 2.356 . S
O293 C291 1.282 . S
C294 O295 1.306 . S
C294 O297 1.160 . S
O295 C294 1.306 . S
O295 Cd296 2.228 . S
Cd296 O295 2.228 . S
Cd296 O300 2.273 . S
Cd296 O304 2.277 . S
O297 C294 1.160 . S
O297 Cd298 2.203 . S
Cd298 O297 2.203 . S
Cd298 O300 2.411 . S
Cd298 O301 2.333 . S
Cd298 O302 2.352 . S
Cd298 O306 2.277 . S
Cd298 O307 2.356 . S
C299 O304 1.209 . S
C299 O306 1.226 . S
O300 Cd296 2.273 . S
O300 Cd298 2.411 . S
O300 C303 1.320 . S
O301 Cd298 2.333 . S
O301 C303 1.214 . S
O302 Cd298 2.352 . S
O302 C305 1.258 . S
C303 O300 1.320 . S
C303 O301 1.214 . S
O304 Cd296 2.277 . S
O304 C299 1.209 . S
C305 O302 1.258 . S
C305 O307 1.282 . S
O306 Cd298 2.277 . S
O306 C299 1.226 . S
O307 Cd298 2.356 . S
O307 C305 1.282 . S
C308 O309 1.306 . S
C308 O311 1.160 . S
O309 C308 1.306 . S
O309 Cd310 2.228 . S
Cd310 O309 2.228 . S
Cd310 O314 2.273 . S
Cd310 O318 2.277 . S
O311 C308 1.160 . S
O311 Cd312 2.203 . S
Cd312 O311 2.203 . S
Cd312 O314 2.411 . S
Cd312 O315 2.333 . S
Cd312 O316 2.352 . S
Cd312 O320 2.277 . S
Cd312 O321 2.356 . S
C313 O318 1.209 . S
C313 O320 1.226 . S
O314 Cd310 2.273 . S
O314 Cd312 2.411 . S
O314 C317 1.320 . S
O315 Cd312 2.333 . S
O315 C317 1.214 . S
O316 Cd312 2.352 . S
O316 C319 1.258 . S
C317 O314 1.320 . S
C317 O315 1.214 . S
O318 Cd310 2.277 . S
O318 C313 1.209 . S
C319 O316 1.258 . S
C319 O321 1.282 . S
O320 Cd312 2.277 . S
O320 C313 1.226 . S
O321 Cd312 2.356 . S
O321 C319 1.282 . S
C322 O323 1.306 . S
C322 O325 1.160 . S
O323 C322 1.306 . S
O323 Cd324 2.228 . S
Cd324 O323 2.228 . S
Cd324 O328 2.273 . S
Cd324 O332 2.277 . S
O325 C322 1.160 . S
O325 Cd326 2.203 . S
Cd326 O325 2.203 . S
Cd326 O328 2.411 . S
Cd326 O329 2.333 . S
Cd326 O330 2.352 . S
Cd326 O334 2.277 . S
Cd326 O335 2.356 . S
C327 O332 1.209 . S
C327 O334 1.226 . S
O328 Cd324 2.273 . S
O328 Cd326 2.411 . S
O328 C331 1.320 . S
O329 Cd326 2.333 . S
O329 C331 1.214 . S
O330 Cd326 2.352 . S
O330 C333 1.258 . S
C331 O328 1.320 . S
C331 O329 1.214 . S
O332 Cd324 2.277 . S
O332 C327 1.209 . S
C333 O330 1.258 . S
C333 O335 1.282 . S
O334 Cd326 2.277 . S
O334 C327 1.226 . S
O335 Cd326 2.356 . S
O335 C333 1.282 . S
C336 O337 1.306 . S
C336 O339 1.160 . S
O337 C336 1.306 . S
O337 Cd338 2.228 . S
Cd338 O337 2.228 . S
Cd338 O342 2.273 . S
Cd338 O346 2.277 . S
O339 C336 1.160 . S
O339 Cd340 2.203 . S
Cd340 O339 2.203 . S
Cd340 O342 2.411 . S
Cd340 O343 2.333 . S
Cd340 O344 2.352 . S
Cd340 O348 2.277 . S
Cd340 O349 2.356 . S
C341 O346 1.209 . S
C341 O348 1.226 . S
O342 Cd338 2.273 . S
O342 Cd340 2.411 . S
O342 C345 1.320 . S
O343 Cd340 2.333 . S
O343 C345 1.214 . S
O344 Cd340 2.352 . S
O344 C347 1.258 . S
C345 O342 1.320 . S
C345 O343 1.214 . S
O346 Cd338 2.277 . S
O346 C341 1.209 . S
C347 O344 1.258 . S
C347 O349 1.282 . S
O348 Cd340 2.277 . S
O348 C341 1.226 . S
O349 Cd340 2.356 . S
O349 C347 1.282 . S
C350 O351 1.306 . S
C350 O353 1.160 . S
O351 C350 1.306 . S
O351 Cd352 2.228 . S
Cd352 O351 2.228 . S
Cd352 O356 2.273 . S
Cd352 O360 2.277 . S
O353 C350 1.160 . S
O353 Cd354 2.203 . S
Cd354 O353 2.203 . S
Cd354 O356 2.411 . S
Cd354 O357 2.333 . S
Cd354 O358 2.352 . S
Cd354 O362 2.277 . S
Cd354 O363 2.356 . S
C355 O360 1.209 . S
C355 O362 1.226 . S
O356 Cd352 2.273 . S
O356 Cd354 2.411 . S
O356 C359 1.320 . S
O357 Cd354 2.333 . S
O357 C359 1.214 . S
O358 Cd354 2.352 . S
O358 C361 1.258 . S
C359 O356 1.320 . S
C359 O357 1.214 . S
O360 Cd352 2.277 . S
O360 C355 1.209 . S
C361 O358 1.258 . S
C361 O363 1.282 . S
O362 Cd354 2.277 . S
O362 C355 1.226 . S
O363 Cd354 2.356 . S
O363 C361 1.282 . S
C364 O365 1.306 . S
C364 O367 1.160 . S
O365 C364 1.306 . S
O365 Cd366 2.228 . S
Cd366 O365 2.228 . S
Cd366 O370 2.273 . S
Cd366 O374 2.277 . S
O367 C364 1.160 . S
O367 Cd368 2.203 . S
Cd368 O367 2.203 . S
Cd368 O370 2.411 . S
Cd368 O371 2.333 . S
Cd368 O372 2.352 . S
Cd368 O376 2.277 . S
Cd368 O377 2.356 . S
C369 O374 1.209 . S
C369 O376 1.226 . S
O370 Cd366 2.273 . S
O370 Cd368 2.411 . S
O370 C373 1.320 . S
O371 Cd368 2.333 . S
O371 C373 1.214 . S
O372 Cd368 2.352 . S
O372 C375 1.258 . S
C373 O370 1.320 . S
C373 O371 1.214 . S
O374 Cd366 2.277 . S
O374 C369 1.209 . S
C375 O372 1.258 . S
C375 O377 1.282 . S
O376 Cd368 2.277 . S
O376 C369 1.226 . S
O377 Cd368 2.356 . S
O377 C375 1.282 . S
C378 O379 1.306 . S
C378 O381 1.160 . S
O379 C378 1.306 . S
O379 Cd380 2.228 . S
Cd380 O379 2.228 . S
Cd380 O384 2.273 . S
Cd380 O388 2.277 . S
O381 C378 1.160 . S
O381 Cd382 2.203 . S
Cd382 O381 2.203 . S
Cd382 O384 2.411 . S
Cd382 O385 2.333 . S
Cd382 O386 2.352 . S
Cd382 O390 2.277 . S
Cd382 O391 2.356 . S
C383 O388 1.209 . S
C383 O390 1.226 . S
O384 Cd380 2.273 . S
O384 Cd382 2.411 . S
O384 C387 1.320 . S
O385 Cd382 2.333 . S
O385 C387 1.214 . S
O386 Cd382 2.352 . S
O386 C389 1.258 . S
C387 O384 1.320 . S
C387 O385 1.214 . S
O388 Cd380 2.277 . S
O388 C383 1.209 . S
C389 O386 1.258 . S
C389 O391 1.282 . S
O390 Cd382 2.277 . S
O390 C383 1.226 . S
O391 Cd382 2.356 . S
O391 C389 1.282 . S
C392 O393 1.306 . S
C392 O395 1.160 . S
O393 C392 1.306 . S
O393 Cd394 2.228 . S
Cd394 O393 2.228 . S
Cd394 O398 2.273 . S
Cd394 O402 2.277 . S
O395 C392 1.160 . S
O395 Cd396 2.203 . S
Cd396 O395 2.203 . S
Cd396 O398 2.411 . S
Cd396 O399 2.333 . S
Cd396 O400 2.352 . S
Cd396 O404 2.277 . S
Cd396 O405 2.356 . S
C397 O402 1.209 . S
C397 O404 1.226 . S
O398 Cd394 2.273 . S
O398 Cd396 2.411 . S
O398 C401 1.320 . S
O399 Cd396 2.333 . S
O399 C401 1.214 . S
O400 Cd396 2.352 . S
O400 C403 1.258 . S
C401 O398 1.320 . S
C401 O399 1.214 . S
O402 Cd394 2.277 . S
O402 C397 1.209 . S
C403 O400 1.258 . S
C403 O405 1.282 . S
O404 Cd396 2.277 . S
O404 C397 1.226 . S
O405 Cd396 2.356 . S
O405 C403 1.282 . S
C406 O407 1.306 . S
C406 O409 1.160 . S
O407 C406 1.306 . S
O407 Cd408 2.228 . S
Cd408 O407 2.228 . S
Cd408 O412 2.273 . S
Cd408 O416 2.277 . S
O409 C406 1.160 . S
O409 Cd410 2.203 . S
Cd410 O409 2.203 . S
Cd410 O412 2.411 . S
Cd410 O413 2.333 . S
Cd410 O414 2.352 . S
Cd410 O418 2.277 . S
Cd410 O419 2.356 . S
C411 O416 1.209 . S
C411 O418 1.226 . S
O412 Cd408 2.273 . S
O412 Cd410 2.411 . S
O412 C415 1.320 . S
O413 Cd410 2.333 . S
O413 C415 1.214 . S
O414 Cd410 2.352 . S
O414 C417 1.258 . S
C415 O412 1.320 . S
C415 O413 1.214 . S
O416 Cd408 2.277 . S
O416 C411 1.209 . S
C417 O414 1.258 . S
C417 O419 1.282 . S
O418 Cd410 2.277 . S
O418 C411 1.226 . S
O419 Cd410 2.356 . S
O419 C417 1.282 . S
C420 O421 1.306 . S
C420 O423 1.160 . S
O421 C420 1.306 . S
O421 Cd422 2.228 . S
Cd422 O421 2.228 . S
Cd422 O426 2.273 . S
Cd422 O430 2.277 . S
O423 C420 1.160 . S
O423 Cd424 2.203 . S
Cd424 O423 2.203 . S
Cd424 O426 2.411 . S
Cd424 O427 2.333 . S
Cd424 O428 2.352 . S
Cd424 O432 2.277 . S
Cd424 O433 2.356 . S
C425 O430 1.209 . S
C425 O432 1.226 . S
O426 Cd422 2.273 . S
O426 Cd424 2.411 . S
O426 C429 1.320 . S
O427 Cd424 2.333 . S
O427 C429 1.214 . S
O428 Cd424 2.352 . S
O428 C431 1.258 . S
C429 O426 1.320 . S
C429 O427 1.214 . S
O430 Cd422 2.277 . S
O430 C425 1.209 . S
C431 O428 1.258 . S
C431 O433 1.282 . S
O432 Cd424 2.277 . S
O432 C425 1.226 . S
O433 Cd424 2.356 . S
O433 C431 1.282 . S
C434 O435 1.306 . S
C434 O437 1.160 . S
O435 C434 1.306 . S
O435 Cd436 2.228 . S
Cd436 O435 2.228 . S
Cd436 O440 2.273 . S
Cd436 O444 2.277 . S
O437 C434 1.160 . S
O437 Cd438 2.203 . S
Cd438 O437 2.203 . S
Cd438 O440 2.411 . S
Cd438 O441 2.333 . S
Cd438 O442 2.352 . S
Cd438 O446 2.277 . S
Cd438 O447 2.356 . S
C439 O444 1.209 . S
C439 O446 1.226 . S
O440 Cd436 2.273 . S
O440 Cd438 2.411 . S
O440 C443 1.320 . S
O441 Cd438 2.333 . S
O441 C443 1.214 . S
O442 Cd438 2.352 . S
O442 C445 1.258 . S
C443 O440 1.320 . S
C443 O441 1.214 . S
O444 Cd436 2.277 . S
O444 C439 1.209 . S
C445 O442 1.258 . S
C445 O447 1.282 . S
O446 Cd438 2.277 . S
O446 C439 1.226 . S
O447 Cd438 2.356 . S
O447 C445 1.282 . S
C448 O449 1.306 . S
C448 O451 1.160 . S
O449 C448 1.306 . S
O449 Cd450 2.228 . S
Cd450 O449 2.228 . S
Cd450 O454 2.273 . S
Cd450 O458 2.277 . S
O451 C448 1.160 . S
O451 Cd452 2.203 . S
Cd452 O451 2.203 . S
Cd452 O454 2.411 . S
Cd452 O455 2.333 . S
Cd452 O456 2.352 . S
Cd452 O460 2.277 . S
Cd452 O461 2.356 . S
C453 O458 1.209 . S
C453 O460 1.226 . S
O454 Cd450 2.273 . S
O454 Cd452 2.411 . S
O454 C457 1.320 . S
O455 Cd452 2.333 . S
O455 C457 1.214 . S
O456 Cd452 2.352 . S
O456 C459 1.258 . S
C457 O454 1.320 . S
C457 O455 1.214 . S
O458 Cd450 2.277 . S
O458 C453 1.209 . S
C459 O456 1.258 . S
C459 O461 1.282 . S
O460 Cd452 2.277 . S
O460 C453 1.226 . S
O461 Cd452 2.356 . S
O461 C459 1.282 . S
C462 O463 1.306 . S
C462 O465 1.160 . S
O463 C462 1.306 . S
O463 Cd464 2.228 . S
Cd464 O463 2.228 . S
Cd464 O468 2.273 . S
Cd464 O472 2.277 . S
O465 C462 1.160 . S
O465 Cd466 2.203 . S
Cd466 O465 2.203 . S
Cd466 O468 2.411 . S
Cd466 O469 2.333 . S
Cd466 O470 2.352 . S
Cd466 O474 2.277 . S
Cd466 O475 2.356 . S
C467 O472 1.209 . S
C467 O474 1.226 . S
O468 Cd464 2.273 . S
O468 Cd466 2.411 . S
O468 C471 1.320 . S
O469 Cd466 2.333 . S
O469 C471 1.214 . S
O470 Cd466 2.352 . S
O470 C473 1.258 . S
C471 O468 1.320 . S
C471 O469 1.214 . S
O472 Cd464 2.277 . S
O472 C467 1.209 . S
C473 O470 1.258 . S
C473 O475 1.282 . S
O474 Cd466 2.277 . S
O474 C467 1.226 . S
O475 Cd466 2.356 . S
O475 C473 1.282 . S
C476 O477 1.306 . S
C476 O479 1.160 . S
O477 C476 1.306 . S
O477 Cd478 2.228 . S
Cd478 O477 2.228 . S
Cd478 O482 2.273 . S
Cd478 O486 2.277 . S
O479 C476 1.160 . S
O479 Cd480 2.203 . S
Cd480 O479 2.203 . S
Cd480 O482 2.411 . S
Cd480 O483 2.333 . S
Cd480 O484 2.352 . S
Cd480 O488 2.277 . S
Cd480 O489 2.356 . S
C481 O486 1.209 . S
C481 O488 1.226 . S
O482 Cd478 2.273 . S
O482 Cd480 2.411 . S
O482 C485 1.320 . S
O483 Cd480 2.333 . S
O483 C485 1.214 . S
O484 Cd480 2.352 . S
O484 C487 1.258 . S
C485 O482 1.320 . S
C485 O483 1.214 . S
O486 Cd478 2.277 . S
O486 C481 1.209 . S
C487 O484 1.258 . S
C487 O489 1.282 . S
O488 Cd480 2.277 . S
O488 C481 1.226 . S
O489 Cd480 2.356 . S
O489 C487 1.282 . S
C490 O491 1.306 . S
C490 O493 1.160 . S
O491 C490 1.306 . S
O491 Cd492 2.228 . S
Cd492 O491 2.228 . S
Cd492 O496 2.273 . S
Cd492 O500 2.277 . S
O493 C490 1.160 . S
O493 Cd494 2.203 . S
Cd494 O493 2.203 . S
Cd494 O496 2.411 . S
Cd494 O497 2.333 . S
Cd494 O498 2.352 . S
Cd494 O502 2.277 . S
Cd494 O503 2.356 . S
C495 O500 1.209 . S
C495 O502 1.226 . S
O496 Cd492 2.273 . S
O496 Cd494 2.411 . S
O496 C499 1.320 . S
O497 Cd494 2.333 . S
O497 C499 1.214 . S
O498 Cd494 2.352 . S
O498 C501 1.258 . S
C499 O496 1.320 . S
C499 O497 1.214 . S
O500 Cd492 2.277 . S
O500 C495 1.209 . S
C501 O498 1.258 . S
C501 O503 1.282 . S
O502 Cd494 2.277 . S
O502 C495 1.226 . S
O503 Cd494 2.356 . S
O503 C501 1.282 . S
C504 C505 1.369 . S
C504 C506 1.419 . S
C504 H508 0.930 . S
C505 C504 1.369 . S
C505 C514 1.429 . S
C506 C504 1.419 . S
C506 C507 1.363 . S
C506 H509 0.929 . S
C507 C506 1.363 . S
C507 C513 1.428 . S
H508 C504 0.930 . S
H509 C506 0.929 . S
S510 N511 1.613 . S
S510 N512 1.610 . S
N511 S510 1.613 . S
N511 C514 1.350 . S
N512 S510 1.610 . S
N512 C513 1.351 . S
C513 C507 1.428 . S
C513 N512 1.351 . S
C513 C514 1.434 . S
C514 C505 1.429 . S
C514 N511 1.350 . S
C514 C513 1.434 . S
C515 C516 1.369 . S
C515 C517 1.419 . S
C515 H519 0.930 . S
C516 C515 1.369 . S
C516 C525 1.429 . S
C517 C515 1.419 . S
C517 C518 1.363 . S
C517 H520 0.929 . S
C518 C517 1.363 . S
C518 C524 1.428 . S
H519 C515 0.930 . S
H520 C517 0.929 . S
S521 N522 1.613 1_554 S
S521 N523 1.610 . S
N522 S521 1.613 1_556 S
N522 C525 1.350 . S
N523 S521 1.610 . S
N523 C524 1.351 1_554 S
C524 C518 1.428 . S
C524 N523 1.351 1_556 S
C524 C525 1.434 . S
C525 C516 1.429 . S
C525 N522 1.350 . S
C525 C524 1.434 . S
C526 C527 1.369 . S
C526 C528 1.419 . S
C526 H530 0.930 . S
C527 C526 1.369 . S
C527 C536 1.429 . S
C528 C526 1.419 . S
C528 C529 1.363 . S
C528 H531 0.929 . S
C529 C528 1.363 . S
C529 C535 1.428 . S
H530 C526 0.930 . S
H531 C528 0.929 . S
S532 N533 1.613 . S
S532 N534 1.610 1_455 S
N533 S532 1.613 . S
N533 C536 1.350 1_455 S
N534 S532 1.610 1_655 S
N534 C535 1.351 . S
C535 C529 1.428 . S
C535 N534 1.351 . S
C535 C536 1.434 . S
C536 C527 1.429 . S
C536 N533 1.350 1_655 S
C536 C535 1.434 . S
C537 C538 1.369 . S
C537 C539 1.419 . S
C537 H541 0.930 . S
C538 C537 1.369 . S
C538 C547 1.429 . S
C539 C537 1.419 . S
C539 C540 1.363 . S
C539 H542 0.929 . S
C540 C539 1.363 . S
C540 C546 1.428 . S
H541 C537 0.930 . S
H542 C539 0.929 . S
S543 N544 1.613 . S
S543 N545 1.610 . S
N544 S543 1.613 . S
N544 C547 1.350 . S
N545 S543 1.610 . S
N545 C546 1.351 . S
C546 C540 1.428 . S
C546 N545 1.351 . S
C546 C547 1.434 . S
C547 C538 1.429 . S
C547 N544 1.350 . S
C547 C546 1.434 . S
C548 C549 1.369 . S
C548 C550 1.419 . S
C548 H552 0.930 . S
C549 C548 1.369 . S
C549 C558 1.429 . S
C550 C548 1.419 . S
C550 C551 1.363 . S
C550 H553 0.929 . S
C551 C550 1.363 . S
C551 C557 1.428 . S
H552 C548 0.930 . S
H553 C550 0.929 . S
S554 N555 1.613 . S
S554 N556 1.610 . S
N555 S554 1.613 . S
N555 C558 1.350 . S
N556 S554 1.610 . S
N556 C557 1.351 . S
C557 C551 1.428 . S
C557 N556 1.351 . S
C557 C558 1.434 . S
C558 C549 1.429 . S
C558 N555 1.350 . S
C558 C557 1.434 . S
C559 C560 1.369 . S
C559 C561 1.419 . S
C559 H563 0.930 . S
C560 C559 1.369 . S
C560 C569 1.429 . S
C561 C559 1.419 . S
C561 C562 1.363 . S
C561 H564 0.929 . S
C562 C561 1.363 . S
C562 C568 1.428 . S
H563 C559 0.930 . S
H564 C561 0.929 . S
S565 N566 1.613 . S
S565 N567 1.610 . S
N566 S565 1.613 . S
N566 C569 1.350 . S
N567 S565 1.610 . S
N567 C568 1.351 . S
C568 C562 1.428 . S
C568 N567 1.351 . S
C568 C569 1.434 . S
C569 C560 1.429 . S
C569 N566 1.350 . S
C569 C568 1.434 . S
C570 C571 1.369 . S
C570 C572 1.419 . S
C570 H574 0.930 . S
C571 C570 1.369 . S
C571 C580 1.429 . S
C572 C570 1.419 . S
C572 C573 1.363 . S
C572 H575 0.929 . S
C573 C572 1.363 . S
C573 C579 1.428 . S
H574 C570 0.930 . S
H575 C572 0.929 . S
S576 N577 1.613 . S
S576 N578 1.610 . S
N577 S576 1.613 . S
N577 C580 1.350 . S
N578 S576 1.610 . S
N578 C579 1.351 . S
C579 C573 1.428 . S
C579 N578 1.351 . S
C579 C580 1.434 . S
C580 C571 1.429 . S
C580 N577 1.350 . S
C580 C579 1.434 . S
C581 C582 1.369 . S
C581 C583 1.419 . S
C581 H585 0.930 . S
C582 C581 1.369 . S
C582 C591 1.429 . S
C583 C581 1.419 . S
C583 C584 1.363 . S
C583 H586 0.929 . S
C584 C583 1.363 . S
C584 C590 1.428 . S
H585 C581 0.930 . S
H586 C583 0.929 . S
S587 N588 1.613 . S
S587 N589 1.610 . S
N588 S587 1.613 . S
N588 C591 1.350 . S
N589 S587 1.610 . S
N589 C590 1.351 . S
C590 C584 1.428 . S
C590 N589 1.351 . S
C590 C591 1.434 . S
C591 C582 1.429 . S
C591 N588 1.350 . S
C591 C590 1.434 . S
C592 C593 1.369 . S
C592 C594 1.419 . S
C592 H596 0.930 . S
C593 C592 1.369 . S
C593 C602 1.429 . S
C594 C592 1.419 . S
C594 C595 1.363 . S
C594 H597 0.929 . S
C595 C594 1.363 . S
C595 C601 1.428 . S
H596 C592 0.930 . S
H597 C594 0.929 . S
S598 N599 1.613 1_556 S
S598 N600 1.610 . S
N599 S598 1.613 1_554 S
N599 C602 1.350 . S
N600 S598 1.610 . S
N600 C601 1.351 1_556 S
C601 C595 1.428 . S
C601 N600 1.351 1_554 S
C601 C602 1.434 . S
C602 C593 1.429 . S
C602 N599 1.350 . S
C602 C601 1.434 . S
C603 C604 1.369 . S
C603 C605 1.419 . S
C603 H607 0.930 . S
C604 C603 1.369 . S
C604 C613 1.429 . S
C605 C603 1.419 . S
C605 C606 1.363 . S
C605 H608 0.929 . S
C606 C605 1.363 . S
C606 C612 1.428 . S
H607 C603 0.930 . S
H608 C605 0.929 . S
S609 N610 1.613 . S
S609 N611 1.610 . S
N610 S609 1.613 . S
N610 C613 1.350 . S
N611 S609 1.610 . S
N611 C612 1.351 . S
C612 C606 1.428 . S
C612 N611 1.351 . S
C612 C613 1.434 . S
C613 C604 1.429 . S
C613 N610 1.350 . S
C613 C612 1.434 . S
C614 C615 1.369 . S
C614 C616 1.419 . S
C614 H618 0.930 . S
C615 C614 1.369 . S
C615 C624 1.429 . S
C616 C614 1.419 . S
C616 C617 1.363 . S
C616 H619 0.929 . S
C617 C616 1.363 . S
C617 C623 1.428 . S
H618 C614 0.930 . S
H619 C616 0.929 . S
S620 N621 1.613 . S
S620 N622 1.610 . S
N621 S620 1.613 . S
N621 C624 1.350 . S
N622 S620 1.610 . S
N622 C623 1.351 . S
C623 C617 1.428 . S
C623 N622 1.351 . S
C623 C624 1.434 . S
C624 C615 1.429 . S
C624 N621 1.350 . S
C624 C623 1.434 . S
C625 C626 1.369 . S
C625 C627 1.419 . S
C625 H629 0.930 . S
C626 C625 1.369 . S
C626 C635 1.429 . S
C627 C625 1.419 . S
C627 C628 1.363 . S
C627 H630 0.929 . S
C628 C627 1.363 . S
C628 C634 1.428 . S
H629 C625 0.930 . S
H630 C627 0.929 . S
S631 N632 1.613 . S
S631 N633 1.610 . S
N632 S631 1.613 . S
N632 C635 1.350 . S
N633 S631 1.610 . S
N633 C634 1.351 . S
C634 C628 1.428 . S
C634 N633 1.351 . S
C634 C635 1.434 . S
C635 C626 1.429 . S
C635 N632 1.350 . S
C635 C634 1.434 . S
C636 C637 1.369 . S
C636 C638 1.419 1_455 S
C636 H640 0.930 . S
C637 C636 1.369 . S
C637 C646 1.429 . S
C638 C636 1.419 1_655 S
C638 C639 1.363 . S
C638 H641 0.929 . S
C639 C638 1.363 . S
C639 C645 1.428 . S
H640 C636 0.930 . S
H641 C638 0.929 . S
S642 N643 1.613 1_655 S
S642 N644 1.610 . S
N643 S642 1.613 1_455 S
N643 C646 1.350 . S
N644 S642 1.610 . S
N644 C645 1.351 . S
C645 C639 1.428 . S
C645 N644 1.351 . S
C645 C646 1.434 1_655 S
C646 C637 1.429 . S
C646 N643 1.350 . S
C646 C645 1.434 1_455 S
C647 C648 1.369 . S
C647 C649 1.419 . S
C647 H651 0.930 . S
C648 C647 1.369 . S
C648 C657 1.429 . S
C649 C647 1.419 . S
C649 C650 1.363 . S
C649 H652 0.929 . S
C650 C649 1.363 . S
C650 C656 1.428 . S
H651 C647 0.930 . S
H652 C649 0.929 . S
S653 N654 1.613 . S
S653 N655 1.610 . S
N654 S653 1.613 . S
N654 C657 1.350 . S
N655 S653 1.610 . S
N655 C656 1.351 . S
C656 C650 1.428 . S
C656 N655 1.351 . S
C656 C657 1.434 . S
C657 C648 1.429 . S
C657 N654 1.350 . S
C657 C656 1.434 . S
C658 C659 1.369 . S
C658 C660 1.419 1_565 S
C658 H662 0.930 . S
C659 C658 1.369 . S
C659 C668 1.429 . S
C660 C658 1.419 1_545 S
C660 C661 1.363 . S
C660 H663 0.929 . S
C661 C660 1.363 . S
C661 C667 1.428 . S
H662 C658 0.930 . S
H663 C660 0.929 . S
S664 N665 1.597 1_545 S
S664 N666 1.610 . S
N665 S664 1.597 1_565 S
N665 C668 1.356 . S
N666 S664 1.610 . S
N666 C667 1.351 . S
C667 C661 1.428 . S
C667 N666 1.351 . S
C667 C668 1.434 1_545 S
C668 C659 1.429 . S
C668 N665 1.356 . S
C668 C667 1.434 1_565 S
C669 C670 1.369 . S
C669 C671 1.419 1_565 S
C669 H673 0.930 . S
C670 C669 1.369 . S
C670 C679 1.429 . S
C671 C669 1.419 1_545 S
C671 C672 1.363 . S
C671 H674 0.929 . S
C672 C671 1.363 . S
C672 C678 1.428 . S
H673 C669 0.930 . S
H674 C671 0.929 . S
S675 N676 1.613 . S
S675 N677 1.610 1_565 S
N676 S675 1.613 . S
N676 C679 1.350 . S
N677 S675 1.610 1_545 S
N677 C678 1.351 . S
C678 C672 1.428 . S
C678 N677 1.351 . S
C678 C679 1.434 1_545 S
C679 C670 1.429 . S
C679 N676 1.350 . S
C679 C678 1.434 1_565 S
C680 C681 1.369 . S
C680 C682 1.419 1_455 S
C680 H684 0.930 . S
C681 C680 1.369 . S
C681 C690 1.429 . S
C682 C680 1.419 1_655 S
C682 C683 1.363 . S
C682 H685 0.929 . S
C683 C682 1.363 . S
C683 C689 1.428 . S
H684 C680 0.930 . S
H685 C682 0.929 . S
S686 N687 1.613 1_655 S
S686 N688 1.610 . S
N687 S686 1.613 1_455 S
N687 C690 1.350 . S
N688 S686 1.610 . S
N688 C689 1.351 . S
C689 C683 1.428 . S
C689 N688 1.351 . S
C689 C690 1.434 1_655 S
C690 C681 1.429 . S
C690 N687 1.350 . S
C690 C689 1.434 1_455 S
C691 C692 1.369 . S
C691 C693 1.419 . S
C691 H695 0.930 . S
C692 C691 1.369 . S
C692 C701 1.429 . S
C693 C691 1.419 . S
C693 C694 1.363 . S
C693 H696 0.929 . S
C694 C693 1.363 . S
C694 C700 1.428 . S
H695 C691 0.930 . S
H696 C693 0.929 . S
S697 N698 1.613 . S
S697 N699 1.610 . S
N698 S697 1.613 . S
N698 C701 1.350 . S
N699 S697 1.610 . S
N699 C700 1.351 . S
C700 C694 1.428 . S
C700 N699 1.351 . S
C700 C701 1.434 . S
C701 C692 1.429 . S
C701 N698 1.350 . S
C701 C700 1.434 . S
C702 C703 1.369 . S
C702 C704 1.419 . S
C702 H706 0.930 . S
C703 C702 1.369 . S
C703 C712 1.429 1_556 S
C704 C702 1.419 . S
C704 C705 1.363 1_556 S
C704 H707 0.929 . S
C705 C704 1.363 1_554 S
C705 C711 1.428 . S
H706 C702 0.930 . S
H707 C704 0.929 . S
S708 N709 1.613 . S
S708 N710 1.610 . S
N709 S708 1.613 . S
N709 C712 1.350 . S
N710 S708 1.610 . S
N710 C711 1.351 . S
C711 C705 1.428 . S
C711 N710 1.351 . S
C711 C712 1.434 . S
C712 C703 1.429 1_554 S
C712 N709 1.350 . S
C712 C711 1.434 . S
C713 C714 1.369 1_554 S
C713 C715 1.419 . S
C713 H717 0.930 . S
C714 C713 1.369 1_556 S
C714 C723 1.429 . S
C715 C713 1.419 . S
C715 C716 1.363 . S
C715 H718 0.929 . S
C716 C715 1.363 . S
C716 C722 1.428 1_554 S
H717 C713 0.930 . S
H718 C715 0.929 . S
S719 N720 1.613 . S
S719 N721 1.610 . S
N720 S719 1.613 . S
N720 C723 1.350 . S
N721 S719 1.610 . S
N721 C722 1.351 . S
C722 C716 1.428 1_556 S
C722 N721 1.351 . S
C722 C723 1.434 . S
C723 C714 1.429 . S
C723 N720 1.350 . S
C723 C722 1.434 . S
C724 C725 1.369 1_554 S
C724 C726 1.419 . S
C724 H728 0.930 . S
C725 C724 1.369 1_556 S
C725 C734 1.429 . S
C726 C724 1.419 . S
C726 C727 1.363 . S
C726 H729 0.929 . S
C727 C726 1.363 . S
C727 C733 1.428 1_554 S
H728 C724 0.930 . S
H729 C726 0.929 . S
S730 N731 1.613 . S
S730 N732 1.610 . S
N731 S730 1.613 . S
N731 C734 1.350 . S
N732 S730 1.610 . S
N732 C733 1.351 . S
C733 C727 1.428 1_556 S
C733 N732 1.351 . S
C733 C734 1.434 . S
C734 C725 1.429 . S
C734 N731 1.350 . S
C734 C733 1.434 . S
C735 C736 1.369 . S
C735 C737 1.419 . S
C735 H739 0.930 . S
C736 C735 1.369 . S
C736 C745 1.429 . S
C737 C735 1.419 . S
C737 C738 1.363 . S
C737 H740 0.929 . S
C738 C737 1.363 . S
C738 C744 1.428 . S
H739 C735 0.930 . S
H740 C737 0.929 . S
S741 N742 1.613 . S
S741 N743 1.610 . S
N742 S741 1.613 . S
N742 C745 1.350 . S
N743 S741 1.610 . S
N743 C744 1.351 . S
C744 C738 1.428 . S
C744 N743 1.351 . S
C744 C745 1.434 . S
C745 C736 1.429 . S
C745 N742 1.350 . S
C745 C744 1.434 . S
C746 C747 1.369 . S
C746 C748 1.419 . S
C746 H750 0.930 . S
C747 C746 1.369 . S
C747 C756 1.429 . S
C748 C746 1.419 . S
C748 C749 1.363 . S
C748 H751 0.929 . S
C749 C748 1.363 . S
C749 C755 1.428 . S
H750 C746 0.930 . S
H751 C748 0.929 . S
S752 N753 1.613 . S
S752 N754 1.610 . S
N753 S752 1.613 . S
N753 C756 1.350 . S
N754 S752 1.610 . S
N754 C755 1.351 . S
C755 C749 1.428 . S
C755 N754 1.351 . S
C755 C756 1.434 . S
C756 C747 1.429 . S
C756 N753 1.350 . S
C756 C755 1.434 . S
C757 C758 1.369 . S
C757 C759 1.419 . S
C757 H761 0.930 . S
C758 C757 1.369 . S
C758 C767 1.429 . S
C759 C757 1.419 . S
C759 C760 1.363 . S
C759 H762 0.929 . S
C760 C759 1.363 . S
C760 C766 1.428 . S
H761 C757 0.930 . S
H762 C759 0.929 . S
S763 N764 1.613 . S
S763 N765 1.610 . S
N764 S763 1.613 . S
N764 C767 1.350 . S
N765 S763 1.610 . S
N765 C766 1.351 . S
C766 C760 1.428 . S
C766 N765 1.351 . S
C766 C767 1.434 . S
C767 C758 1.429 . S
C767 N764 1.350 . S
C767 C766 1.434 . S
C768 C769 1.369 . S
C768 C770 1.419 . S
C768 H772 0.930 . S
C769 C768 1.369 . S
C769 C778 1.429 1_554 S
C770 C768 1.419 . S
C770 C771 1.363 1_554 S
C770 H773 0.929 . S
C771 C770 1.363 1_556 S
C771 C777 1.428 . S
H772 C768 0.930 . S
H773 C770 0.929 . S
S774 N775 1.613 . S
S774 N776 1.610 . S
N775 S774 1.613 . S
N775 C778 1.350 . S
N776 S774 1.610 . S
N776 C777 1.351 . S
C777 C771 1.428 . S
C777 N776 1.351 . S
C777 C778 1.434 . S
C778 C769 1.429 1_556 S
C778 N775 1.350 . S
C778 C777 1.434 . S
C779 C780 1.369 . S
C779 C781 1.419 1_556 S
C779 H783 0.930 . S
C780 C779 1.369 . S
C780 C789 1.429 . S
C781 C779 1.419 1_554 S
C781 C782 1.363 . S
C781 H784 0.929 . S
C782 C781 1.363 . S
C782 C788 1.428 1_554 S
H783 C779 0.930 . S
H784 C781 0.929 . S
S785 N786 1.613 . S
S785 N787 1.610 . S
N786 S785 1.613 . S
N786 C789 1.350 . S
N787 S785 1.610 . S
N787 C788 1.351 . S
C788 C782 1.428 1_556 S
C788 N787 1.351 . S
C788 C789 1.434 . S
C789 C780 1.429 . S
C789 N786 1.350 . S
C789 C788 1.434 . S
C790 C791 1.369 1_556 S
C790 C792 1.419 . S
C790 H794 0.930 . S
C791 C790 1.369 1_554 S
C791 C800 1.429 . S
C792 C790 1.419 . S
C792 C793 1.363 . S
C792 H795 0.929 . S
C793 C792 1.363 . S
C793 C799 1.428 . S
H794 C790 0.930 . S
H795 C792 0.929 . S
S796 N797 1.613 . S
S796 N798 1.610 . S
N797 S796 1.613 . S
N797 C800 1.350 . S
N798 S796 1.610 . S
N798 C799 1.351 1_554 S
C799 C793 1.428 . S
C799 N798 1.351 1_556 S
C799 C800 1.434 1_556 S
C800 C791 1.429 . S
C800 N797 1.350 . S
C800 C799 1.434 1_554 S
C801 C802 1.369 . S
C801 C803 1.419 . S
C801 H805 0.930 . S
C802 C801 1.369 . S
C802 C811 1.429 . S
C803 C801 1.419 . S
C803 C804 1.363 . S
C803 H806 0.929 . S
C804 C803 1.363 . S
C804 C810 1.428 . S
H805 C801 0.930 . S
H806 C803 0.929 . S
S807 N808 1.613 . S
S807 N809 1.610 . S
N808 S807 1.613 . S
N808 C811 1.350 . S
N809 S807 1.610 . S
N809 C810 1.351 . S
C810 C804 1.428 . S
C810 N809 1.351 . S
C810 C811 1.434 . S
C811 C802 1.429 . S
C811 N808 1.350 . S
C811 C810 1.434 . S
C812 C813 1.369 . S
C812 C814 1.419 . S
C812 H816 0.930 . S
C813 C812 1.369 . S
C813 C822 1.429 . S
C814 C812 1.419 . S
C814 C815 1.363 . S
C814 H817 0.929 . S
C815 C814 1.363 . S
C815 C821 1.428 . S
H816 C812 0.930 . S
H817 C814 0.929 . S
S818 N819 1.613 . S
S818 N820 1.610 . S
N819 S818 1.613 . S
N819 C822 1.350 . S
N820 S818 1.610 . S
N820 C821 1.351 . S
C821 C815 1.428 . S
C821 N820 1.351 . S
C821 C822 1.434 . S
C822 C813 1.429 . S
C822 N819 1.350 . S
C822 C821 1.434 . S
C823 C824 1.369 . S
C823 C825 1.419 . S
C823 H827 0.930 . S
C824 C823 1.369 . S
C824 C833 1.429 . S
C825 C823 1.419 . S
C825 C826 1.363 . S
C825 H828 0.929 . S
C826 C825 1.363 . S
C826 C832 1.428 . S
H827 C823 0.930 . S
H828 C825 0.929 . S
S829 N830 1.613 . S
S829 N831 1.610 . S
N830 S829 1.613 . S
N830 C833 1.350 . S
N831 S829 1.610 . S
N831 C832 1.351 . S
C832 C826 1.428 . S
C832 N831 1.351 . S
C832 C833 1.434 . S
C833 C824 1.429 . S
C833 N830 1.350 . S
C833 C832 1.434 . S
C834 C835 1.369 . S
C834 C836 1.419 . S
C834 H838 0.930 . S
C835 C834 1.369 . S
C835 C844 1.429 . S
C836 C834 1.419 . S
C836 C837 1.363 . S
C836 H839 0.929 . S
C837 C836 1.363 . S
C837 C843 1.428 . S
H838 C834 0.930 . S
H839 C836 0.929 . S
S840 N841 1.613 . S
S840 N842 1.610 . S
N841 S840 1.613 . S
N841 C844 1.350 . S
N842 S840 1.610 . S
N842 C843 1.351 . S
C843 C837 1.428 . S
C843 N842 1.351 . S
C843 C844 1.434 . S
C844 C835 1.429 . S
C844 N841 1.350 . S
C844 C843 1.434 . S
C845 C846 1.369 . S
C845 C847 1.419 . S
C845 H849 0.930 . S
C846 C845 1.369 . S
C846 C855 1.429 . S
C847 C845 1.419 . S
C847 C848 1.363 . S
C847 H850 0.929 . S
C848 C847 1.363 . S
C848 C854 1.428 . S
H849 C845 0.930 . S
H850 C847 0.929 . S
S851 N852 1.613 . S
S851 N853 1.610 . S
N852 S851 1.613 . S
N852 C855 1.350 . S
N853 S851 1.610 . S
N853 C854 1.351 . S
C854 C848 1.428 . S
C854 N853 1.351 . S
C854 C855 1.434 . S
C855 C846 1.429 . S
C855 N852 1.350 . S
C855 C854 1.434 . S
C856 C857 1.369 . S
C856 C858 1.419 . S
C856 H860 0.930 . S
C857 C856 1.369 . S
C857 C866 1.429 . S
C858 C856 1.419 . S
C858 C859 1.363 . S
C858 H861 0.929 . S
C859 C858 1.363 . S
C859 C865 1.428 . S
H860 C856 0.930 . S
H861 C858 0.929 . S
S862 N863 1.613 . S
S862 N864 1.610 . S
N863 S862 1.613 . S
N863 C866 1.350 . S
N864 S862 1.610 . S
N864 C865 1.351 . S
C865 C859 1.428 . S
C865 N864 1.351 . S
C865 C866 1.434 . S
C866 C857 1.429 . S
C866 N863 1.350 . S
C866 C865 1.434 . S
C867 C868 1.369 . S
C867 C869 1.419 . S
C867 H871 0.930 . S
C868 C867 1.369 . S
C868 C877 1.429 . S
C869 C867 1.419 . S
C869 C870 1.363 . S
C869 H872 0.929 . S
C870 C869 1.363 . S
C870 C876 1.428 . S
H871 C867 0.930 . S
H872 C869 0.929 . S
S873 N874 1.613 . S
S873 N875 1.610 . S
N874 S873 1.613 . S
N874 C877 1.350 . S
N875 S873 1.610 . S
N875 C876 1.351 . S
C876 C870 1.428 . S
C876 N875 1.351 . S
C876 C877 1.434 . S
C877 C868 1.429 . S
C877 N874 1.350 . S
C877 C876 1.434 . S
C878 C879 1.369 . S
C878 C880 1.419 . S
C878 H882 0.930 . S
C879 C878 1.369 . S
C879 C888 1.429 . S
C880 C878 1.419 . S
C880 C881 1.363 . S
C880 H883 0.929 . S
C881 C880 1.363 . S
C881 C887 1.428 . S
H882 C878 0.930 . S
H883 C880 0.929 . S
S884 N885 1.613 . S
S884 N886 1.610 . S
N885 S884 1.613 . S
N885 C888 1.350 . S
N886 S884 1.610 . S
N886 C887 1.351 . S
C887 C881 1.428 . S
C887 N886 1.351 . S
C887 C888 1.434 . S
C888 C879 1.429 . S
C888 N885 1.350 . S
C888 C887 1.434 . S
C889 C890 1.369 . S
C889 C891 1.419 . S
C889 H893 0.930 . S
C890 C889 1.369 . S
C890 C899 1.429 . S
C891 C889 1.419 . S
C891 C892 1.363 . S
C891 H894 0.929 . S
C892 C891 1.363 . S
C892 C898 1.428 . S
H893 C889 0.930 . S
H894 C891 0.929 . S
S895 N896 1.613 . S
S895 N897 1.610 . S
N896 S895 1.613 . S
N896 C899 1.350 . S
N897 S895 1.610 . S
N897 C898 1.351 . S
C898 C892 1.428 . S
C898 N897 1.351 . S
C898 C899 1.434 . S
C899 C890 1.429 . S
C899 N896 1.350 . S
C899 C898 1.434 . S
C900 C901 1.369 . S
C900 C902 1.419 . S
C900 H904 0.930 . S
C901 C900 1.369 . S
C901 C910 1.429 . S
C902 C900 1.419 . S
C902 C903 1.363 . S
C902 H905 0.929 . S
C903 C902 1.363 . S
C903 C909 1.428 . S
H904 C900 0.930 . S
H905 C902 0.929 . S
S906 N907 1.613 . S
S906 N908 1.610 . S
N907 S906 1.613 . S
N907 C910 1.350 . S
N908 S906 1.610 . S
N908 C909 1.351 . S
C909 C903 1.428 . S
C909 N908 1.351 . S
C909 C910 1.434 . S
C910 C901 1.429 . S
C910 N907 1.350 . S
C910 C909 1.434 . S
C911 C912 1.369 . S
C911 C913 1.419 . S
C911 H915 0.930 . S
C912 C911 1.369 . S
C912 C921 1.429 . S
C913 C911 1.419 . S
C913 C914 1.363 . S
C913 H916 0.929 . S
C914 C913 1.363 . S
C914 C920 1.428 . S
H915 C911 0.930 . S
H916 C913 0.929 . S
S917 N918 1.613 . S
S917 N919 1.610 . S
N918 S917 1.613 . S
N918 C921 1.350 . S
N919 S917 1.610 . S
N919 C920 1.351 . S
C920 C914 1.428 . S
C920 N919 1.351 . S
C920 C921 1.434 . S
C921 C912 1.429 . S
C921 N918 1.350 . S
C921 C920 1.434 . S
C922 C923 1.369 . S
C922 C924 1.419 . S
C922 H926 0.930 . S
C923 C922 1.369 . S
C923 C932 1.429 . S
C924 C922 1.419 . S
C924 C925 1.363 . S
C924 H927 0.929 . S
C925 C924 1.363 . S
C925 C931 1.428 . S
H926 C922 0.930 . S
H927 C924 0.929 . S
S928 N929 1.613 . S
S928 N930 1.610 . S
N929 S928 1.613 . S
N929 C932 1.350 . S
N930 S928 1.610 . S
N930 C931 1.351 . S
C931 C925 1.428 . S
C931 N930 1.351 . S
C931 C932 1.434 . S
C932 C923 1.429 . S
C932 N929 1.350 . S
C932 C931 1.434 . S
C933 C934 1.369 . S
C933 C935 1.419 . S
C933 H937 0.930 . S
C934 C933 1.369 . S
C934 C943 1.429 . S
C935 C933 1.419 . S
C935 C936 1.363 . S
C935 H938 0.929 . S
C936 C935 1.363 . S
C936 C942 1.428 . S
H937 C933 0.930 . S
H938 C935 0.929 . S
S939 N940 1.613 . S
S939 N941 1.610 . S
N940 S939 1.613 . S
N940 C943 1.350 . S
N941 S939 1.610 . S
N941 C942 1.351 . S
C942 C936 1.428 . S
C942 N941 1.351 . S
C942 C943 1.434 . S
C943 C934 1.429 . S
C943 N940 1.350 . S
C943 C942 1.434 . S
C944 C945 1.369 . S
C944 C946 1.419 . S
C944 H948 0.930 . S
C945 C944 1.369 . S
C945 C954 1.429 . S
C946 C944 1.419 . S
C946 C947 1.363 . S
C946 H949 0.929 . S
C947 C946 1.363 . S
C947 C953 1.428 . S
H948 C944 0.930 . S
H949 C946 0.929 . S
S950 N951 1.613 . S
S950 N952 1.610 . S
N951 S950 1.613 . S
N951 C954 1.350 . S
N952 S950 1.610 . S
N952 C953 1.351 . S
C953 C947 1.428 . S
C953 N952 1.351 . S
C953 C954 1.434 . S
C954 C945 1.429 . S
C954 N951 1.350 . S
C954 C953 1.434 . S
C955 C956 1.369 . S
C955 C957 1.419 . S
C955 H959 0.930 . S
C956 C955 1.369 . S
C956 C965 1.429 . S
C957 C955 1.419 . S
C957 C958 1.363 . S
C957 H960 0.929 . S
C958 C957 1.363 . S
C958 C964 1.428 . S
H959 C955 0.930 . S
H960 C957 0.929 . S
S961 N962 1.613 . S
S961 N963 1.610 . S
N962 S961 1.613 . S
N962 C965 1.350 . S
N963 S961 1.610 . S
N963 C964 1.351 . S
C964 C958 1.428 . S
C964 N963 1.351 . S
C964 C965 1.434 . S
C965 C956 1.429 . S
C965 N962 1.350 . S
C965 C964 1.434 . S
C966 C967 1.369 . S
C966 C968 1.419 . S
C966 H970 0.930 . S
C967 C966 1.369 . S
C967 C976 1.429 . S
C968 C966 1.419 . S
C968 C969 1.363 . S
C968 H971 0.929 . S
C969 C968 1.363 . S
C969 C975 1.428 . S
H970 C966 0.930 . S
H971 C968 0.929 . S
S972 N973 1.613 . S
S972 N974 1.610 . S
N973 S972 1.613 . S
N973 C976 1.350 . S
N974 S972 1.610 . S
N974 C975 1.351 . S
C975 C969 1.428 . S
C975 N974 1.351 . S
C975 C976 1.434 . S
C976 C967 1.429 . S
C976 N973 1.350 . S
C976 C975 1.434 . S
C977 C978 1.369 . S
C977 C979 1.419 . S
C977 H981 0.930 . S
C978 C977 1.369 . S
C978 C987 1.429 . S
C979 C977 1.419 . S
C979 C980 1.363 . S
C979 H982 0.929 . S
C980 C979 1.363 . S
C980 C986 1.428 . S
H981 C977 0.930 . S
H982 C979 0.929 . S
S983 N984 1.613 . S
S983 N985 1.610 . S
N984 S983 1.613 . S
N984 C987 1.350 . S
N985 S983 1.610 . S
N985 C986 1.351 . S
C986 C980 1.428 . S
C986 N985 1.351 . S
C986 C987 1.434 . S
C987 C978 1.429 . S
C987 N984 1.350 . S
C987 C986 1.434 . S
C988 C989 1.369 . S
C988 C990 1.419 . S
C988 H992 0.930 . S
C989 C988 1.369 . S
C989 C998 1.429 . S
C990 C988 1.419 . S
C990 C991 1.363 . S
C990 H993 0.929 . S
C991 C990 1.363 . S
C991 C997 1.428 . S
H992 C988 0.930 . S
H993 C990 0.929 . S
S994 N995 1.613 . S
S994 N996 1.610 . S
N995 S994 1.613 . S
N995 C998 1.350 . S
N996 S994 1.610 . S
N996 C997 1.351 . S
C997 C991 1.428 . S
C997 N996 1.351 . S
C997 C998 1.434 . S
C998 C989 1.429 . S
C998 N995 1.350 . S
C998 C997 1.434 . S
C999 C1000 1.369 . S
C999 C1001 1.419 . S
C999 H1003 0.930 . S
C1000 C999 1.369 . S
C1000 C1009 1.429 . S
C1001 C999 1.419 . S
C1001 C1002 1.363 . S
C1001 H1004 0.929 . S
C1002 C1001 1.363 . S
C1002 C1008 1.428 . S
H1003 C999 0.930 . S
H1004 C1001 0.929 . S
S1005 N1006 1.613 . S
S1005 N1007 1.610 . S
N1006 S1005 1.613 . S
N1006 C1009 1.350 . S
N1007 S1005 1.610 . S
N1007 C1008 1.351 . S
C1008 C1002 1.428 . S
C1008 N1007 1.351 . S
C1008 C1009 1.434 . S
C1009 C1000 1.429 . S
C1009 N1006 1.350 . S
C1009 C1008 1.434 . S
C1010 C1011 1.369 . S
C1010 C1012 1.419 . S
C1010 H1014 0.930 . S
C1011 C1010 1.369 . S
C1011 C1020 1.429 . S
C1012 C1010 1.419 . S
C1012 C1013 1.363 . S
C1012 H1015 0.929 . S
C1013 C1012 1.363 . S
C1013 C1019 1.428 . S
H1014 C1010 0.930 . S
H1015 C1012 0.929 . S
S1016 N1017 1.613 . S
S1016 N1018 1.610 . S
N1017 S1016 1.613 . S
N1017 C1020 1.350 . S
N1018 S1016 1.610 . S
N1018 C1019 1.351 . S
C1019 C1013 1.428 . S
C1019 N1018 1.351 . S
C1019 C1020 1.434 . S
C1020 C1011 1.429 . S
C1020 N1017 1.350 . S
C1020 C1019 1.434 . S
C1021 C1022 1.369 . S
C1021 C1023 1.419 . S
C1021 H1025 0.930 . S
C1022 C1021 1.369 . S
C1022 C1031 1.429 . S
C1023 C1021 1.419 . S
C1023 C1024 1.363 . S
C1023 H1026 0.929 . S
C1024 C1023 1.363 . S
C1024 C1030 1.428 . S
H1025 C1021 0.930 . S
H1026 C1023 0.929 . S
S1027 N1028 1.613 . S
S1027 N1029 1.610 . S
N1028 S1027 1.613 . S
N1028 C1031 1.350 . S
N1029 S1027 1.610 . S
N1029 C1030 1.351 . S
C1030 C1024 1.428 . S
C1030 N1029 1.351 . S
C1030 C1031 1.434 . S
C1031 C1022 1.429 . S
C1031 N1028 1.350 . S
C1031 C1030 1.434 . S
C1032 C1033 1.369 . S
C1032 C1034 1.419 . S
C1032 H1036 0.930 . S
C1033 C1032 1.369 . S
C1033 C1042 1.429 . S
C1034 C1032 1.419 . S
C1034 C1035 1.363 . S
C1034 H1037 0.929 . S
C1035 C1034 1.363 . S
C1035 C1041 1.428 . S
H1036 C1032 0.930 . S
H1037 C1034 0.929 . S
S1038 N1039 1.613 . S
S1038 N1040 1.610 . S
N1039 S1038 1.613 . S
N1039 C1042 1.350 . S
N1040 S1038 1.610 . S
N1040 C1041 1.351 . S
C1041 C1035 1.428 . S
C1041 N1040 1.351 . S
C1041 C1042 1.434 . S
C1042 C1033 1.429 . S
C1042 N1039 1.350 . S
C1042 C1041 1.434 . S
C1043 C1044 1.369 . S
C1043 C1045 1.419 . S
C1043 H1047 0.930 . S
C1044 C1043 1.369 . S
C1044 C1053 1.429 . S
C1045 C1043 1.419 . S
C1045 C1046 1.363 . S
C1045 H1048 0.929 . S
C1046 C1045 1.363 . S
C1046 C1052 1.428 . S
H1047 C1043 0.930 . S
H1048 C1045 0.929 . S
S1049 N1050 1.613 . S
S1049 N1051 1.610 . S
N1050 S1049 1.613 . S
N1050 C1053 1.350 . S
N1051 S1049 1.610 . S
N1051 C1052 1.351 . S
C1052 C1046 1.428 . S
C1052 N1051 1.351 . S
C1052 C1053 1.434 . S
C1053 C1044 1.429 . S
C1053 N1050 1.350 . S
C1053 C1052 1.434 . S
C1054 C1055 1.369 . S
C1054 C1056 1.419 . S
C1054 H1058 0.930 . S
C1055 C1054 1.369 . S
C1055 C1064 1.429 . S
C1056 C1054 1.419 . S
C1056 C1057 1.363 . S
C1056 H1059 0.929 . S
C1057 C1056 1.363 . S
C1057 C1063 1.428 . S
H1058 C1054 0.930 . S
H1059 C1056 0.929 . S
S1060 N1061 1.613 . S
S1060 N1062 1.610 . S
N1061 S1060 1.613 . S
N1061 C1064 1.350 . S
N1062 S1060 1.610 . S
N1062 C1063 1.351 . S
C1063 C1057 1.428 . S
C1063 N1062 1.351 . S
C1063 C1064 1.434 . S
C1064 C1055 1.429 . S
C1064 N1061 1.350 . S
C1064 C1063 1.434 . S
C1065 C1066 1.369 . S
C1065 C1067 1.419 . S
C1065 H1069 0.930 . S
C1066 C1065 1.369 . S
C1066 C1075 1.429 . S
C1067 C1065 1.419 . S
C1067 C1068 1.363 . S
C1067 H1070 0.929 . S
C1068 C1067 1.363 . S
C1068 C1074 1.428 . S
H1069 C1065 0.930 . S
H1070 C1067 0.929 . S
S1071 N1072 1.613 . S
S1071 N1073 1.610 . S
N1072 S1071 1.613 . S
N1072 C1075 1.350 . S
N1073 S1071 1.610 . S
N1073 C1074 1.351 . S
C1074 C1068 1.428 . S
C1074 N1073 1.351 . S
C1074 C1075 1.434 . S
C1075 C1066 1.429 . S
C1075 N1072 1.350 . S
C1075 C1074 1.434 . S
C1076 C1077 1.369 . S
C1076 C1078 1.419 . S
C1076 H1080 0.930 . S
C1077 C1076 1.369 . S
C1077 C1086 1.429 . S
C1078 C1076 1.419 . S
C1078 C1079 1.363 . S
C1078 H1081 0.929 . S
C1079 C1078 1.363 . S
C1079 C1085 1.428 . S
H1080 C1076 0.930 . S
H1081 C1078 0.929 . S
S1082 N1083 1.613 . S
S1082 N1084 1.610 . S
N1083 S1082 1.613 . S
N1083 C1086 1.350 . S
N1084 S1082 1.610 . S
N1084 C1085 1.351 . S
C1085 C1079 1.428 . S
C1085 N1084 1.351 . S
C1085 C1086 1.434 . S
C1086 C1077 1.429 . S
C1086 N1083 1.350 . S
C1086 C1085 1.434 . S
C1087 C1088 1.369 . S
C1087 C1089 1.419 . S
C1087 H1091 0.930 . S
C1088 C1087 1.369 . S
C1088 C1097 1.429 . S
C1089 C1087 1.419 . S
C1089 C1090 1.363 . S
C1089 H1092 0.929 . S
C1090 C1089 1.363 . S
C1090 C1096 1.428 . S
H1091 C1087 0.930 . S
H1092 C1089 0.929 . S
S1093 N1094 1.613 . S
S1093 N1095 1.610 . S
N1094 S1093 1.613 . S
N1094 C1097 1.350 . S
N1095 S1093 1.610 . S
N1095 C1096 1.351 . S
C1096 C1090 1.428 . S
C1096 N1095 1.351 . S
C1096 C1097 1.434 . S
C1097 C1088 1.429 . S
C1097 N1094 1.350 . S
C1097 C1096 1.434 . S
C1098 C1099 1.369 . S
C1098 C1100 1.419 . S
C1098 H1102 0.930 . S
C1099 C1098 1.369 . S
C1099 C1108 1.429 . S
C1100 C1098 1.419 . S
C1100 C1101 1.363 . S
C1100 H1103 0.929 . S
C1101 C1100 1.363 . S
C1101 C1107 1.428 . S
H1102 C1098 0.930 . S
H1103 C1100 0.929 . S
S1104 N1105 1.613 . S
S1104 N1106 1.610 . S
N1105 S1104 1.613 . S
N1105 C1108 1.350 . S
N1106 S1104 1.610 . S
N1106 C1107 1.351 . S
C1107 C1101 1.428 . S
C1107 N1106 1.351 . S
C1107 C1108 1.434 . S
C1108 C1099 1.429 . S
C1108 N1105 1.350 . S
C1108 C1107 1.434 . S
C1109 C1110 1.369 1_565 S
C1109 C1111 1.419 . S
C1109 H1113 0.930 . S
C1110 C1109 1.369 1_545 S
C1110 C1119 1.429 . S
C1111 C1109 1.419 . S
C1111 C1112 1.363 . S
C1111 H1114 0.929 . S
C1112 C1111 1.363 . S
C1112 C1118 1.428 1_565 S
H1113 C1109 0.930 . S
H1114 C1111 0.929 . S
S1115 N1116 1.613 . S
S1115 N1117 1.610 . S
N1116 S1115 1.613 . S
N1116 C1119 1.350 . S
N1117 S1115 1.610 . S
N1117 C1118 1.351 . S
C1118 C1112 1.428 1_545 S
C1118 N1117 1.351 . S
C1118 C1119 1.434 . S
C1119 C1110 1.429 . S
C1119 N1116 1.350 . S
C1119 C1118 1.434 . S
C1120 C1121 1.369 1_655 S
C1120 C1122 1.419 . S
C1120 H1124 0.930 . S
C1121 C1120 1.369 1_455 S
C1121 C1130 1.429 . S
C1122 C1120 1.419 . S
C1122 C1123 1.363 . S
C1122 H1125 0.929 . S
C1123 C1122 1.363 . S
C1123 C1129 1.428 1_655 S
H1124 C1120 0.930 . S
H1125 C1122 0.929 . S
S1126 N1127 1.613 . S
S1126 N1128 1.610 . S
N1127 S1126 1.613 . S
N1127 C1130 1.350 . S
N1128 S1126 1.610 . S
N1128 C1129 1.351 . S
C1129 C1123 1.428 1_455 S
C1129 N1128 1.351 . S
C1129 C1130 1.434 . S
C1130 C1121 1.429 . S
C1130 N1127 1.350 . S
C1130 C1129 1.434 . S
C1131 C1132 1.369 . S
C1131 C1133 1.419 . S
C1131 H1135 0.930 . S
C1132 C1131 1.369 . S
C1132 C1141 1.429 . S
C1133 C1131 1.419 . S
C1133 C1134 1.363 . S
C1133 H1136 0.929 . S
C1134 C1133 1.363 . S
C1134 C1140 1.428 . S
H1135 C1131 0.930 . S
H1136 C1133 0.929 . S
S1137 N1138 1.613 . S
S1137 N1139 1.610 . S
N1138 S1137 1.613 . S
N1138 C1141 1.350 . S
N1139 S1137 1.610 . S
N1139 C1140 1.351 . S
C1140 C1134 1.428 . S
C1140 N1139 1.351 . S
C1140 C1141 1.434 . S
C1141 C1132 1.429 . S
C1141 N1138 1.350 . S
C1141 C1140 1.434 . S
C1142 C1143 1.369 1_565 S
C1142 C1144 1.419 . S
C1142 H1146 0.930 . S
C1143 C1142 1.369 1_545 S
C1143 C1152 1.429 . S
C1144 C1142 1.419 . S
C1144 C1145 1.363 . S
C1144 H1147 0.929 . S
C1145 C1144 1.363 . S
C1145 C1151 1.428 1_565 S
H1146 C1142 0.930 . S
H1147 C1144 0.929 . S
S1148 N1149 1.613 . S
S1148 N1150 1.610 . S
N1149 S1148 1.613 . S
N1149 C1152 1.350 . S
N1150 S1148 1.610 . S
N1150 C1151 1.351 . S
C1151 C1145 1.428 1_545 S
C1151 N1150 1.351 . S
C1151 C1152 1.434 . S
C1152 C1143 1.429 . S
C1152 N1149 1.350 . S
C1152 C1151 1.434 . S
C1153 C1154 1.369 . S
C1153 C1155 1.413 1_655 S
C1153 H1157 0.930 . S
C1154 C1153 1.369 . S
C1154 C1163 1.431 1_655 S
C1155 C1153 1.413 1_455 S
C1155 C1156 1.354 . S
C1155 H1158 0.946 . S
C1156 C1155 1.354 . S
C1156 C1162 1.428 . S
H1157 C1153 0.930 . S
H1158 C1155 0.946 . S
S1159 N1160 1.613 . S
S1159 N1161 1.610 . S
N1160 S1159 1.613 . S
N1160 C1163 1.346 . S
N1161 S1159 1.610 . S
N1161 C1162 1.351 . S
C1162 C1156 1.428 . S
C1162 N1161 1.351 . S
C1162 C1163 1.435 . S
C1163 C1154 1.431 1_455 S
C1163 N1160 1.346 . S
C1163 C1162 1.435 . S
C1164 C1165 1.369 . S
C1164 C1166 1.419 . S
C1164 H1168 0.930 . S
C1165 C1164 1.369 . S
C1165 C1174 1.429 . S
C1166 C1164 1.419 . S
C1166 C1167 1.363 . S
C1166 H1169 0.929 . S
C1167 C1166 1.363 . S
C1167 C1173 1.428 . S
H1168 C1164 0.930 . S
H1169 C1166 0.929 . S
S1170 N1171 1.613 . S
S1170 N1172 1.610 . S
N1171 S1170 1.613 . S
N1171 C1174 1.350 . S
N1172 S1170 1.610 . S
N1172 C1173 1.351 . S
C1173 C1167 1.428 . S
C1173 N1172 1.351 . S
C1173 C1174 1.434 . S
C1174 C1165 1.429 . S
C1174 N1171 1.350 . S
C1174 C1173 1.434 . S
C1175 C1176 1.369 . S
C1175 C1177 1.419 . S
C1175 H1179 0.930 . S
C1176 C1175 1.369 . S
C1176 C1185 1.429 . S
C1177 C1175 1.419 . S
C1177 C1178 1.363 . S
C1177 H1180 0.929 . S
C1178 C1177 1.363 . S
C1178 C1184 1.428 . S
H1179 C1175 0.930 . S
H1180 C1177 0.929 . S
S1181 N1182 1.613 . S
S1181 N1183 1.610 . S
N1182 S1181 1.613 . S
N1182 C1185 1.350 . S
N1183 S1181 1.610 . S
N1183 C1184 1.351 . S
C1184 C1178 1.428 . S
C1184 N1183 1.351 . S
C1184 C1185 1.434 . S
C1185 C1176 1.429 . S
C1185 N1182 1.350 . S
C1185 C1184 1.434 . S
C1186 C1187 1.369 . S
C1186 C1188 1.419 . S
C1186 H1190 0.930 . S
C1187 C1186 1.369 . S
C1187 C1196 1.429 . S
C1188 C1186 1.419 . S
C1188 C1189 1.363 . S
C1188 H1191 0.929 . S
C1189 C1188 1.363 . S
C1189 C1195 1.428 . S
H1190 C1186 0.930 . S
H1191 C1188 0.929 . S
S1192 N1193 1.613 . S
S1192 N1194 1.610 . S
N1193 S1192 1.613 . S
N1193 C1196 1.350 . S
N1194 S1192 1.610 . S
N1194 C1195 1.351 . S
C1195 C1189 1.428 . S
C1195 N1194 1.351 . S
C1195 C1196 1.434 . S
C1196 C1187 1.429 . S
C1196 N1193 1.350 . S
C1196 C1195 1.434 . S
C1197 C1198 1.369 . S
C1197 C1199 1.419 . S
C1197 H1201 0.930 . S
C1198 C1197 1.369 . S
C1198 C1207 1.429 . S
C1199 C1197 1.419 . S
C1199 C1200 1.363 . S
C1199 H1202 0.929 . S
C1200 C1199 1.363 . S
C1200 C1206 1.428 . S
H1201 C1197 0.930 . S
H1202 C1199 0.929 . S
S1203 N1204 1.613 . S
S1203 N1205 1.610 . S
N1204 S1203 1.613 . S
N1204 C1207 1.350 . S
N1205 S1203 1.610 . S
N1205 C1206 1.351 . S
C1206 C1200 1.428 . S
C1206 N1205 1.351 . S
C1206 C1207 1.434 . S
C1207 C1198 1.429 . S
C1207 N1204 1.350 . S
C1207 C1206 1.434 . S
C1208 C1209 1.369 . S
C1208 C1210 1.419 . S
C1208 H1212 0.930 . S
C1209 C1208 1.369 . S
C1209 C1218 1.429 . S
C1210 C1208 1.419 . S
C1210 C1211 1.363 . S
C1210 H1213 0.929 . S
C1211 C1210 1.363 . S
C1211 C1217 1.428 . S
H1212 C1208 0.930 . S
H1213 C1210 0.929 . S
S1214 N1215 1.613 . S
S1214 N1216 1.610 . S
N1215 S1214 1.613 . S
N1215 C1218 1.350 . S
N1216 S1214 1.610 . S
N1216 C1217 1.351 . S
C1217 C1211 1.428 . S
C1217 N1216 1.351 . S
C1217 C1218 1.434 . S
C1218 C1209 1.429 . S
C1218 N1215 1.350 . S
C1218 C1217 1.434 . S
C1219 C1220 1.369 . S
C1219 C1221 1.419 . S
C1219 H1223 0.930 . S
C1220 C1219 1.369 . S
C1220 C1229 1.429 . S
C1221 C1219 1.419 . S
C1221 C1222 1.363 . S
C1221 H1224 0.929 . S
C1222 C1221 1.363 . S
C1222 C1228 1.428 . S
H1223 C1219 0.930 . S
H1224 C1221 0.929 . S
S1225 N1226 1.613 . S
S1225 N1227 1.610 . S
N1226 S1225 1.613 . S
N1226 C1229 1.350 . S
N1227 S1225 1.610 . S
N1227 C1228 1.351 . S
C1228 C1222 1.428 . S
C1228 N1227 1.351 . S
C1228 C1229 1.434 . S
C1229 C1220 1.429 . S
C1229 N1226 1.350 . S
C1229 C1228 1.434 . S
C1230 C1231 1.369 . S
C1230 C1232 1.419 . S
C1230 H1234 0.930 . S
C1231 C1230 1.369 . S
C1231 C1240 1.429 . S
C1232 C1230 1.419 . S
C1232 C1233 1.363 . S
C1232 H1235 0.929 . S
C1233 C1232 1.363 . S
C1233 C1239 1.428 . S
H1234 C1230 0.930 . S
H1235 C1232 0.929 . S
S1236 N1237 1.613 . S
S1236 N1238 1.610 . S
N1237 S1236 1.613 . S
N1237 C1240 1.350 . S
N1238 S1236 1.610 . S
N1238 C1239 1.351 . S
C1239 C1233 1.428 . S
C1239 N1238 1.351 . S
C1239 C1240 1.434 . S
C1240 C1231 1.429 . S
C1240 N1237 1.350 . S
C1240 C1239 1.434 . S
C1241 C1242 1.369 . S
C1241 C1243 1.419 . S
C1241 H1245 0.930 . S
C1242 C1241 1.369 . S
C1242 C1251 1.429 . S
C1243 C1241 1.419 . S
C1243 C1244 1.363 . S
C1243 H1246 0.929 . S
C1244 C1243 1.363 . S
C1244 C1250 1.428 . S
H1245 C1241 0.930 . S
H1246 C1243 0.929 . S
S1247 N1248 1.613 . S
S1247 N1249 1.610 . S
N1248 S1247 1.613 . S
N1248 C1251 1.350 . S
N1249 S1247 1.610 . S
N1249 C1250 1.351 . S
C1250 C1244 1.428 . S
C1250 N1249 1.351 . S
C1250 C1251 1.434 . S
C1251 C1242 1.429 . S
C1251 N1248 1.350 . S
C1251 C1250 1.434 . S
C1252 C1253 1.369 . S
C1252 C1254 1.419 . S
C1252 H1256 0.930 . S
C1253 C1252 1.369 . S
C1253 C1262 1.429 . S
C1254 C1252 1.419 . S
C1254 C1255 1.363 . S
C1254 H1257 0.929 . S
C1255 C1254 1.363 . S
C1255 C1261 1.428 . S
H1256 C1252 0.930 . S
H1257 C1254 0.929 . S
S1258 N1259 1.613 . S
S1258 N1260 1.610 . S
N1259 S1258 1.613 . S
N1259 C1262 1.350 . S
N1260 S1258 1.610 . S
N1260 C1261 1.351 . S
C1261 C1255 1.428 . S
C1261 N1260 1.351 . S
C1261 C1262 1.434 . S
C1262 C1253 1.429 . S
C1262 N1259 1.350 . S
C1262 C1261 1.434 . S
C1263 C1264 1.369 . S
C1263 C1265 1.419 . S
C1263 H1267 0.930 . S
C1264 C1263 1.369 . S
C1264 C1273 1.429 . S
C1265 C1263 1.419 . S
C1265 C1266 1.363 . S
C1265 H1268 0.929 . S
C1266 C1265 1.363 . S
C1266 C1272 1.428 . S
H1267 C1263 0.930 . S
H1268 C1265 0.929 . S
S1269 N1270 1.613 . S
S1269 N1271 1.610 . S
N1270 S1269 1.613 . S
N1270 C1273 1.350 . S
N1271 S1269 1.610 . S
N1271 C1272 1.351 . S
C1272 C1266 1.428 . S
C1272 N1271 1.351 . S
C1272 C1273 1.434 . S
C1273 C1264 1.429 . S
C1273 N1270 1.350 . S
C1273 C1272 1.434 . S
C1274 C1275 1.369 . S
C1274 C1276 1.419 . S
C1274 H1278 0.930 . S
C1275 C1274 1.369 . S
C1275 C1284 1.429 . S
C1276 C1274 1.419 . S
C1276 C1277 1.363 . S
C1276 H1279 0.929 . S
C1277 C1276 1.363 . S
C1277 C1283 1.428 . S
H1278 C1274 0.930 . S
H1279 C1276 0.929 . S
S1280 N1281 1.613 . S
S1280 N1282 1.610 . S
N1281 S1280 1.613 . S
N1281 C1284 1.350 . S
N1282 S1280 1.610 . S
N1282 C1283 1.351 . S
C1283 C1277 1.428 . S
C1283 N1282 1.351 . S
C1283 C1284 1.434 . S
C1284 C1275 1.429 . S
C1284 N1281 1.350 . S
C1284 C1283 1.434 . S
C1285 C1286 1.369 . S
C1285 C1287 1.419 . S
C1285 H1289 0.930 . S
C1286 C1285 1.369 . S
C1286 C1295 1.429 . S
C1287 C1285 1.419 . S
C1287 C1288 1.363 . S
C1287 H1290 0.929 . S
C1288 C1287 1.363 . S
C1288 C1294 1.428 . S
H1289 C1285 0.930 . S
H1290 C1287 0.929 . S
S1291 N1292 1.613 . S
S1291 N1293 1.610 . S
N1292 S1291 1.613 . S
N1292 C1295 1.350 . S
N1293 S1291 1.610 . S
N1293 C1294 1.351 . S
C1294 C1288 1.428 . S
C1294 N1293 1.351 . S
C1294 C1295 1.434 . S
C1295 C1286 1.429 . S
C1295 N1292 1.350 . S
C1295 C1294 1.434 . S
C505 C235 1.250 . S
C507 C11 1.250 . S
C516 C249 1.250 . S
C518 C25 1.246 . S
C527 C39 1.251 . S
C529 C221 1.247 . S
C538 C375 1.245 . S
C540 C53 1.249 . S
C549 C347 1.244 . S
C551 C67 1.247 . S
C560 C81 1.249 . S
C562 C361 1.245 . S
C571 C487 1.247 . S
C573 C95 1.245 . S
C582 C501 1.250 . S
C584 C109 1.248 . S
C593 C473 1.249 . S
C595 C123 1.245 . S
C604 C291 1.251 . S
C606 C137 1.248 . S
C615 C151 1.245 . S
C617 C263 1.250 . S
C626 C277 1.251 . S
C628 C165 1.247 . S
C637 C403 1.249 . S
C639 C179 1.250 . S
C648 C193 1.249 . S
C650 C417 1.245 . S
C659 C389 1.245 . S
C661 C207 1.248 . S
C670 C459 1.247 . S
C672 C305 1.245 . S
C681 C431 1.245 . S
C683 C319 1.246 . S
C692 C333 1.250 . S
C694 C445 1.248 . S
C703 C98 1.521 . S
C705 C9 1.536 . S
C714 C112 1.520 . S
C716 C23 1.534 . S
C725 C84 1.522 . S
C727 C37 1.532 . S
C736 C51 1.532 . S
C738 C154 1.522 . S
C747 C126 1.519 . S
C749 C65 1.535 . S
C758 C79 1.534 . S
C760 C140 1.520 . S
C769 C14 1.526 . S
C771 C93 1.533 . S
C780 C107 1.535 . S
C782 C28 1.520 . S
C791 C0 1.525 . S
C793 C121 1.531 . S
C802 C70 1.526 . S
C804 C135 1.533 . S
C813 C42 1.520 . S
C815 C149 1.536 . S
C824 C163 1.531 . S
C826 C56 1.525 . S
C835 C177 1.537 . S
C837 C266 1.520 . S
C846 C280 1.520 . S
C848 C191 1.533 . S
C857 C252 1.526 . S
C859 C205 1.532 . S
C868 C219 1.537 . S
C870 C322 1.521 . S
C879 C294 1.525 . S
C881 C233 1.534 . S
C890 C247 1.531 . S
C892 C308 1.523 . S
C901 C261 1.532 . S
C903 C182 1.522 . S
C912 C275 1.534 . S
C914 C196 1.525 . S
C923 C168 1.525 . S
C925 C289 1.535 . S
C934 C238 1.525 . S
C936 C303 1.532 . S
C945 C210 1.526 . S
C947 C317 1.532 . S
C956 C331 1.536 . S
C958 C224 1.520 . S
C967 C434 1.524 . S
C969 C345 1.535 . S
C978 C359 1.537 . S
C980 C448 1.521 . S
C989 C373 1.536 . S
C991 C420 1.523 . S
C1000 C490 1.521 . S
C1002 C387 1.536 . S
C1011 C401 1.531 . S
C1013 C462 1.526 . S
C1022 C476 1.524 . S
C1024 C415 1.532 . S
C1033 C350 1.526 . S
C1035 C429 1.532 . S
C1044 C364 1.526 . S
C1046 C443 1.534 . S
C1055 C457 1.537 . S
C1057 C336 1.522 . S
C1066 C471 1.534 . S
C1068 C406 1.525 . S
C1077 C378 1.522 . S
C1079 C485 1.536 . S
C1088 C392 1.524 . S
C1090 C499 1.535 . S
C1099 C5 1.566 . S
C1101 C47 1.566 . S
C1110 C19 1.567 . S
C1112 C61 1.566 . S
C1121 C75 1.566 . S
C1123 C33 1.566 . S
C1132 C89 1.567 . S
C1134 C131 1.566 . S
C1143 C145 1.567 . S
C1145 C103 1.566 . S
C1154 C159 1.566 . S
C1156 C117 1.566 . S
C1165 C173 1.565 . S
C1167 C215 1.566 . S
C1176 C187 1.566 . S
C1178 C229 1.567 . S
C1187 C243 1.567 . S
C1189 C201 1.566 . S
C1198 C257 1.566 . S
C1200 C299 1.566 1_554 S
C1209 C271 1.567 . S
C1211 C313 1.566 1_554 S
C1220 C285 1.567 . S
C1222 C327 1.566 1_554 S
C1231 C383 1.566 1_556 S
C1233 C341 1.566 . S
C1242 C397 1.566 1_556 S
C1244 C355 1.566 . S
C1253 C411 1.566 1_556 S
C1255 C369 1.567 . S
C1264 C425 1.567 . S
C1266 C467 1.566 . S
C1275 C481 1.567 . S
C1277 C439 1.566 . S
C1286 C495 1.567 . S
C1288 C453 1.566 . S
