# Generated by pormake.
# Topology wiy, (3)-cn, num edge types: 1
# Building blocks:
#     Node 0, Type 0, BuildingBlock: OLANEW_clean_sbu_2, # of connection points: 3
#     Node 1, Type 0, BuildingBlock: OLANEW_clean_sbu_2, # of connection points: 3
#     Node 2, Type 0, BuildingBlock: OLANEW_clean_sbu_2, # of connection points: 3
#     Node 3, Type 0, BuildingBlock: OLANEW_clean_sbu_2, # of connection points: 3
#     Node 4, Type 0, BuildingBlock: OLANEW_clean_sbu_2, # of connection points: 3
#     Node 5, Type 0, BuildingBlock: OLANEW_clean_sbu_2, # of connection points: 3
#     Node 6, Type 0, BuildingBlock: OLANEW_clean_sbu_2, # of connection points: 3
#     Node 7, Type 0, BuildingBlock: OLANEW_clean_sbu_2, # of connection points: 3
#     Node 8, Type 0, BuildingBlock: OLANEW_clean_sbu_2, # of connection points: 3
#     Node 9, Type 0, BuildingBlock: OLANEW_clean_sbu_2, # of connection points: 3
#     Node 10, Type 0, BuildingBlock: OLANEW_clean_sbu_2, # of connection points: 3
#     Node 11, Type 0, BuildingBlock: OLANEW_clean_sbu_2, # of connection points: 3
#     Edge 12, Type (0, 0), BuildingBlock: FUNLAD_clean_linker_0, # of connection points: 2
#     Edge 13, Type (0, 0), BuildingBlock: FUNLAD_clean_linker_0, # of connection points: 2
#     Edge 14, Type (0, 0), BuildingBlock: FUNLAD_clean_linker_0, # of connection points: 2
#     Edge 15, Type (0, 0), BuildingBlock: FUNLAD_clean_linker_0, # of connection points: 2
#     Edge 16, Type (0, 0), BuildingBlock: FUNLAD_clean_linker_0, # of connection points: 2
#     Edge 17, Type (0, 0), BuildingBlock: FUNLAD_clean_linker_0, # of connection points: 2
#     Edge 18, Type (0, 0), BuildingBlock: FUNLAD_clean_linker_0, # of connection points: 2
#     Edge 19, Type (0, 0), BuildingBlock: FUNLAD_clean_linker_0, # of connection points: 2
#     Edge 20, Type (0, 0), BuildingBlock: FUNLAD_clean_linker_0, # of connection points: 2
#     Edge 21, Type (0, 0), BuildingBlock: FUNLAD_clean_linker_0, # of connection points: 2
#     Edge 22, Type (0, 0), BuildingBlock: FUNLAD_clean_linker_0, # of connection points: 2
#     Edge 23, Type (0, 0), BuildingBlock: FUNLAD_clean_linker_0, # of connection points: 2
#     Edge 24, Type (0, 0), BuildingBlock: FUNLAD_clean_linker_0, # of connection points: 2
#     Edge 25, Type (0, 0), BuildingBlock: FUNLAD_clean_linker_0, # of connection points: 2
#     Edge 26, Type (0, 0), BuildingBlock: FUNLAD_clean_linker_0, # of connection points: 2
#     Edge 27, Type (0, 0), BuildingBlock: FUNLAD_clean_linker_0, # of connection points: 2
#     Edge 28, Type (0, 0), BuildingBlock: FUNLAD_clean_linker_0, # of connection points: 2
#     Edge 29, Type (0, 0), BuildingBlock: FUNLAD_clean_linker_0, # of connection points: 2
# Relax obj value: 0.012
# Max RMSD: 0.022
# Mean RMSD: 0.022
data_MOF--net-wiy--node1-OLANEW_clean_sbu_2--edge1-FUNLAD_clean_linker_0
_symmetry_space_group_name_H-M    P1
_symmetry_Int_Tables_number       1
_symmetry_cell_setting            triclinic
loop_
_symmetry_equiv_pos_as_xyz
'x, y, z'
_cell_length_a     69.710451
_cell_length_b     69.721344
_cell_length_c     31.049434
_cell_angle_alpha  89.581077
_cell_angle_beta   90.268932
_cell_angle_gamma 120.02301
loop_
_atom_site_label
_atom_site_type_symbol
_atom_site_fract_x
_atom_site_fract_y
_atom_site_fract_z
_atom_type_partial_charge
O0 O 0.11984 0.45793 0.0332 0.0
Cd1 Cd 0.12042 0.42362 0.02103 0.0
O2 O 0.08733 0.44048 0.06503 0.0
Cd3 Cd 0.08032 0.40771 0.0444 0.0
O4 O 0.06164 0.37968 0.00138 0.0
C5 C 0.06901 0.38014 0.9638 0.0
O6 O 0.08864 0.39663 0.95319 0.0
C7 C 0.10434 0.4585 0.05354 0.0
C8 C 0.14701 0.41887 0.08268 0.0
O9 O 0.15505 0.4285 0.04653 0.0
O10 O 0.12631 0.41124 0.08946 0.0
O11 O 0.65524 0.12107 0.22348 0.0
Cd12 Cd 0.68888 0.11847 0.21904 0.0
O13 O 0.63366 0.08692 0.20113 0.0
Cd14 Cd 0.65957 0.079 0.18697 0.0
O15 O 0.66829 0.05825 0.14891 0.0
C16 C 0.68111 0.0659 0.11658 0.0
O17 O 0.69084 0.08722 0.1081 0.0
C18 C 0.63601 0.10515 0.2146 0.0
C19 C 0.7186 0.14379 0.28372 0.0
O20 O 0.71917 0.15214 0.24651 0.0
O21 O 0.70414 0.12338 0.29015 0.0
O22 O 0.52445 0.66191 0.37698 0.0
Cd23 Cd 0.56115 0.69492 0.37133 0.0
O24 O 0.53824 0.64063 0.39466 0.0
Cd25 Cd 0.57261 0.66519 0.38007 0.0
O26 O 0.60252 0.6729 0.34419 0.0
C27 C 0.60411 0.67898 0.30506 0.0
O28 O 0.58861 0.68233 0.28867 0.0
C29 C 0.52156 0.64312 0.38858 0.0
C30 C 0.56764 0.72375 0.4389 0.0
O31 O 0.57298 0.7087 0.44282 0.0
O32 O 0.55951 0.72534 0.40283 0.0
O33 O 0.86706 0.52982 0.54895 0.0
Cd34 Cd 0.867 0.56396 0.53065 0.0
O35 O 0.90305 0.54617 0.55956 0.0
Cd36 Cd 0.91004 0.5784 0.53474 0.0
O37 O 0.92942 0.60501 0.48889 0.0
C38 C 0.92129 0.6058 0.45264 0.0
O39 O 0.90039 0.59149 0.44462 0.0
C40 C 0.88409 0.52875 0.55995 0.0
C41 C 0.84223 0.57169 0.59121 0.0
O42 O 0.83291 0.55885 0.55911 0.0
O43 O 0.86337 0.5812 0.59442 0.0
O44 O 0.33574 0.87452 0.7295 0.0
Cd45 Cd 0.30217 0.87698 0.72045 0.0
O46 O 0.35755 0.90805 0.7038 0.0
Cd47 Cd 0.33165 0.91554 0.6859 0.0
O48 O 0.32143 0.93491 0.64631 0.0
C49 C 0.33177 0.95576 0.65185 0.0
O50 O 0.34655 0.96409 0.68288 0.0
C51 C 0.35504 0.89016 0.72011 0.0
C52 C 0.26962 0.84865 0.77842 0.0
O53 O 0.27102 0.84204 0.74075 0.0
O54 O 0.28349 0.86874 0.7885 0.0
O55 O 0.45572 0.33751 0.89134 0.0
Cd56 Cd 0.41871 0.30506 0.88463 0.0
O57 O 0.45407 0.35196 0.82916 0.0
Cd58 Cd 0.42002 0.32712 0.81305 0.0
O59 O 0.38962 0.31745 0.77675 0.0
C60 C 0.37682 0.32436 0.78927 0.0
O61 O 0.38143 0.33553 0.82541 0.0
C62 C 0.4647 0.35276 0.86311 0.0
C63 C 0.41402 0.27159 0.94099 0.0
O64 O 0.42108 0.27279 0.90247 0.0
O65 O 0.40896 0.28609 0.95271 0.0
O66 O 0.53186 0.87385 0.77783 0.0
Cd67 Cd 0.5656 0.87226 0.79145 0.0
O68 O 0.55022 0.90643 0.74611 0.0
Cd69 Cd 0.58257 0.91275 0.76881 0.0
O70 O 0.61107 0.93171 0.81091 0.0
C71 C 0.62237 0.95247 0.80419 0.0
O72 O 0.61735 0.96085 0.77086 0.0
C73 C 0.53189 0.88962 0.75693 0.0
C74 C 0.57141 0.84859 0.7256 0.0
O75 O 0.56077 0.83884 0.75997 0.0
O76 O 0.57963 0.86962 0.7227 0.0
O77 O 0.65392 0.53149 0.93072 0.0
Cd78 Cd 0.68861 0.56647 0.93981 0.0
O79 O 0.64267 0.53061 -0.00283 0.0
Cd80 Cd 0.66858 0.56403 0.01431 0.0
O81 O 0.67826 0.59459 0.04947 0.0
C82 C 0.67245 0.60794 0.03455 0.0
O83 O 0.6625 0.60376 -0.0031 0.0
C84 C 0.63986 0.52155 0.96053 0.0
C85 C 0.71921 0.56894 0.87919 0.0
O86 O 0.71657 0.55882 0.91519 0.0
O87 O 0.70769 0.57832 0.8721 0.0
O88 O 0.12651 0.65586 0.11113 0.0
Cd89 Cd 0.12341 0.68872 0.12447 0.0
O90 O 0.09212 0.6365 0.08818 0.0
Cd91 Cd 0.08238 0.6603 0.10872 0.0
O92 O 0.0599 0.66648 0.14724 0.0
C93 C 0.03937 0.65281 0.14232 0.0
O94 O 0.0333 0.63727 0.1131 0.0
C95 C 0.1109 0.63817 0.09502 0.0
C96 C 0.15013 0.72253 0.06698 0.0
O97 O 0.15759 0.72068 0.10366 0.0
O98 O 0.12994 0.70852 0.05769 0.0
O99 O 0.45698 0.11761 0.26094 0.0
Cd100 Cd 0.42263 0.11741 0.27731 0.0
O101 O 0.43945 0.08487 0.2303 0.0
Cd102 Cd 0.40693 0.07713 0.25438 0.0
O103 O 0.37976 0.05733 0.29876 0.0
C104 C 0.37626 0.0656 0.3321 0.0
O105 O 0.38823 0.08706 0.33838 0.0
C106 C 0.45749 0.10222 0.24015 0.0
C107 C 0.4173 0.146 0.22158 0.0
O108 O 0.42732 0.1528 0.25775 0.0
O109 O 0.40958 0.12558 0.21196 0.0
O110 O 0.33037 0.46304 0.43498 0.0
Cd111 Cd 0.29583 0.42842 0.44852 0.0
O112 O 0.34452 0.44634 0.39785 0.0
Cd113 Cd 0.31935 0.41319 0.41868 0.0
O114 O 0.31145 0.3849 0.46064 0.0
C115 C 0.30669 0.38561 0.49985 0.0
O116 O 0.30479 0.40248 0.51286 0.0
C117 C 0.34586 0.46409 0.4118 0.0
C118 C 0.26404 0.42242 0.38695 0.0
O119 O 0.26555 0.43232 0.4225 0.0
O120 O 0.27744 0.41515 0.3807 0.0
O121 O 0.87474 0.33836 0.61212 0.0
Cd122 Cd 0.87344 0.30292 0.62217 0.0
O123 O 0.91066 0.35635 0.60025 0.0
Cd124 Cd 0.91579 0.32907 0.61964 0.0
O125 O 0.93314 0.31733 0.66135 0.0
C126 C 0.95318 0.32333 0.65273 0.0
O127 O 0.96197 0.33471 0.61722 0.0
C128 C 0.89235 0.35618 0.60223 0.0
C129 C 0.8482 0.27349 0.5572 0.0
O130 O 0.83931 0.27425 0.59271 0.0
O131 O 0.8691 0.28649 0.5526 0.0
C132 C 0.15272 0.40782 0.15659 0.0
C133 C 0.16133 0.41704 0.11593 0.0
C134 C 0.16644 0.40684 0.1885 0.0
C135 C 0.18912 0.41515 0.18043 0.0
C136 C 0.19754 0.4238 0.13943 0.0
C137 C 0.18385 0.42486 0.10759 0.0
C138 C 0.20443 0.41486 0.21363 0.0
C139 C 0.20113 0.41516 0.25631 0.0
C140 C 0.21715 0.41633 0.28945 0.0
C141 C 0.21748 0.42549 0.32975 0.0
C142 C 0.23259 0.42734 0.36149 0.0
C143 C 0.24758 0.41983 0.35378 0.0
H144 H 0.23162 0.40051 0.25196 0.0
C145 C 0.2469 0.41013 0.31386 0.0
C146 C 0.23183 0.40835 0.28204 0.0
H147 H 0.25809 0.404 0.30703 0.0
H148 H 0.13539 0.40147 0.16392 0.0
H149 H 0.15913 0.39936 0.21918 0.0
H150 H 0.21488 0.43011 0.13217 0.0
H151 H 0.19099 0.43195 0.07654 0.0
H152 H 0.21968 0.41601 0.20224 0.0
H153 H 0.18694 0.41616 0.2676 0.0
H154 H 0.20622 0.43156 0.33651 0.0
H155 H 0.23258 0.43478 0.39199 0.0
C156 C 0.81178 0.24403 0.52782 0.0
C157 C 0.83466 0.25831 0.52227 0.0
C158 C 0.79886 0.23013 0.49448 0.0
C159 C 0.80858 0.23012 0.45483 0.0
C160 C 0.83142 0.24446 0.4493 0.0
C161 C 0.84435 0.25832 0.48268 0.0
C162 C 0.79529 0.21624 0.41795 0.0
C163 C 0.7757 0.19737 0.42259 0.0
C164 C 0.762 0.18383 0.38576 0.0
C165 C 0.7463 0.16145 0.39297 0.0
C166 C 0.73245 0.14835 0.35972 0.0
C167 C 0.73385 0.15743 0.3185 0.0
H168 H 0.77482 0.21024 0.33776 0.0
C169 C 0.74956 0.17983 0.31119 0.0
C170 C 0.76345 0.19292 0.34443 0.0
H171 H 0.75095 0.18738 0.27989 0.0
H172 H 0.80376 0.24375 0.5578 0.0
H173 H 0.78122 0.21989 0.49969 0.0
H174 H 0.83931 0.24496 0.419 0.0
H175 H 0.86191 0.26919 0.47726 0.0
H176 H 0.8024 0.22147 0.38604 0.0
H177 H 0.76964 0.19105 0.45471 0.0
H178 H 0.74468 0.15405 0.42453 0.0
H179 H 0.72048 0.13117 0.3665 0.0
C180 C 0.56444 0.8128 0.69338 0.0
C181 C 0.57354 0.83585 0.68982 0.0
C182 C 0.56552 0.80059 0.6589 0.0
C183 C 0.57585 0.81121 0.62005 0.0
C184 C 0.58502 0.83426 0.61662 0.0
C185 C 0.58399 0.84647 0.65115 0.0
C186 C 0.57622 0.79871 0.58173 0.0
C187 C 0.57449 0.77858 0.58413 0.0
C188 C 0.57368 0.76557 0.54569 0.0
C189 C 0.57947 0.74906 0.55037 0.0
C190 C 0.5779 0.73574 0.51555 0.0
C191 C 0.57027 0.7385 0.47529 0.0
H192 H 0.56084 0.78045 0.50056 0.0
C193 C 0.56451 0.75505 0.4705 0.0
C194 C 0.56613 0.76841 0.50529 0.0
H195 H 0.55841 0.7575 0.44 0.0
H196 H 0.55613 0.80408 0.72261 0.0
H197 H 0.55764 0.7828 0.66252 0.0
H198 H 0.5929 0.84285 0.587 0.0
H199 H 0.59109 0.8642 0.64726 0.0
H200 H 0.57861 0.80676 0.55058 0.0
H201 H 0.57425 0.77146 0.61546 0.0
H202 H 0.58514 0.74637 0.58117 0.0
H203 H 0.58239 0.72309 0.52039 0.0
C204 C 0.80613 0.5597 0.62807 0.0
C205 C 0.82889 0.57494 0.62417 0.0
C206 C 0.79362 0.56212 0.66035 0.0
C207 C 0.80358 0.58001 0.68907 0.0
C208 C 0.82615 0.59563 0.68434 0.0
C209 C 0.83878 0.59297 0.65256 0.0
C210 C 0.79061 0.58277 0.72374 0.0
C211 C 0.77495 0.56536 0.74599 0.0
C212 C 0.76182 0.56756 0.78103 0.0
C213 C 0.75476 0.55243 0.81548 0.0
C214 C 0.74146 0.55333 0.84802 0.0
C215 C 0.73447 0.56904 0.84616 0.0
H216 H 0.75996 0.59516 0.75284 0.0
C217 C 0.7415 0.58419 0.81163 0.0
C218 C 0.75518 0.58357 0.77949 0.0
H219 H 0.73632 0.59645 0.80929 0.0
H220 H 0.79802 0.54566 0.6066 0.0
H221 H 0.77611 0.55009 0.66256 0.0
H222 H 0.83412 0.60966 0.70586 0.0
H223 H 0.85626 0.60506 0.65012 0.0
H224 H 0.79497 0.59949 0.73279 0.0
H225 H 0.77235 0.54889 0.73975 0.0
H226 H 0.75953 0.53984 0.81719 0.0
H227 H 0.73619 0.54133 0.87404 0.0
C228 C 0.15644 0.74154 -0.00473 0.0
C229 C 0.16456 0.74002 0.03593 0.0
C230 C 0.1703 0.75758 0.9654 0.0
C231 C 0.19266 0.77239 0.97549 0.0
C232 C 0.20056 0.77121 0.01653 0.0
C233 C 0.18673 0.75516 0.04636 0.0
C234 C 0.20818 0.7894 0.94445 0.0
C235 C 0.20551 0.78745 0.90136 0.0
C236 C 0.22179 0.80375 0.87027 0.0
C237 C 0.22249 0.79672 0.82835 0.0
C238 C 0.23788 0.81132 0.79841 0.0
C239 C 0.25281 0.83339 0.80964 0.0
H240 H 0.23587 0.83234 0.91264 0.0
C241 C 0.25174 0.84063 0.85123 0.0
C242 C 0.23636 0.82602 0.8812 0.0
H243 H 0.26285 0.8576 0.86077 0.0
H244 H 0.13938 0.73028 0.98639 0.0
H245 H 0.16332 0.7584 0.93472 0.0
H246 H 0.21763 0.78252 0.02536 0.0
H247 H 0.19348 0.75453 0.07747 0.0
H248 H 0.22309 0.80321 0.95775 0.0
H249 H 0.19167 0.77262 0.88795 0.0
H250 H 0.21133 0.77974 0.81888 0.0
H251 H 0.23817 0.80523 0.76657 0.0
C252 C 0.40489 0.25337 0.01378 0.0
C253 C 0.41219 0.25425 0.9713 0.0
C254 C 0.40382 0.23742 0.0428 0.0
C255 C 0.41019 0.22207 0.03001 0.0
C256 C 0.41694 0.22264 0.98726 0.0
C257 C 0.41803 0.23859 0.95826 0.0
C258 C 0.40975 0.2051 0.05997 0.0
C259 C 0.41141 0.20751 0.10312 0.0
C260 C 0.41226 0.19116 0.13301 0.0
C261 C 0.42214 0.19839 0.17361 0.0
C262 C 0.42365 0.18372 0.20246 0.0
C263 C 0.4151 0.16138 0.19149 0.0
H264 H 0.39485 0.16223 0.09203 0.0
C265 C 0.40474 0.15397 0.15127 0.0
C266 C 0.40326 0.16867 0.12236 0.0
H267 H 0.3978 0.13681 0.14199 0.0
H268 H 0.40005 0.26505 0.02473 0.0
H269 H 0.39779 0.2371 0.07497 0.0
H270 H 0.42172 0.21089 0.97637 0.0
H271 H 0.42362 0.23872 0.92571 0.0
H272 H 0.40955 0.19086 0.04554 0.0
H273 H 0.4137 0.22271 0.11723 0.0
H274 H 0.42901 0.21555 0.18287 0.0
H275 H 0.43164 0.18995 0.23326 0.0
C276 C 0.12309 0.4999 0.04596 0.0
C277 C 0.10542 0.47993 0.06181 0.0
C278 C 0.12318 0.51988 0.05105 0.0
C279 C 0.10562 0.5203 0.07241 0.0
C280 C 0.0882 0.50038 0.08884 0.0
C281 C 0.08811 0.48046 0.08375 0.0
C282 C 0.10403 0.54072 0.07621 0.0
C283 C 0.12124 0.5615 0.07155 0.0
C284 C 0.11866 0.58134 0.0754 0.0
C285 C 0.13652 0.60131 0.09025 0.0
C286 C 0.13423 0.61996 0.09587 0.0
C287 C 0.11405 0.61906 0.08625 0.0
H288 H 0.08492 0.56589 0.05101 0.0
C289 C 0.09649 0.59931 0.06969 0.0
C290 C 0.09877 0.5807 0.06419 0.0
H291 H 0.08081 0.5981 0.0614 0.0
H292 H 0.13663 0.50006 0.02865 0.0
H293 H 0.13668 0.53471 0.03699 0.0
H294 H 0.07441 0.50015 0.10529 0.0
H295 H 0.07422 0.46541 0.09637 0.0
H296 H 0.0879 0.53841 0.08463 0.0
H297 H 0.13787 0.56426 0.06719 0.0
H298 H 0.15213 0.60234 0.09852 0.0
H299 H 0.14815 0.63495 0.10842 0.0
C300 C 0.49905 0.1218 0.24393 0.0
C301 C 0.47896 0.10384 0.22949 0.0
C302 C 0.51915 0.12242 0.23659 0.0
C303 C 0.51955 0.105 0.21468 0.0
C304 C 0.49955 0.08752 0.19889 0.0
C305 C 0.4795 0.08688 0.20633 0.0
C306 C 0.54021 0.10414 0.20776 0.0
C307 C 0.55876 0.1153 0.23163 0.0
C308 C 0.57843 0.11251 0.22645 0.0
C309 C 0.59944 0.12984 0.23839 0.0
C310 C 0.6182 0.12756 0.23459 0.0
C311 C 0.61627 0.10775 0.21922 0.0
H312 H 0.56052 0.07849 0.20377 0.0
C313 C 0.59517 0.09027 0.20801 0.0
C314 C 0.57648 0.09258 0.2117 0.0
H315 H 0.59301 0.07469 0.19647 0.0
H316 H 0.49926 0.13526 0.26154 0.0
H317 H 0.5342 0.13658 0.24809 0.0
H318 H 0.49934 0.07399 0.18154 0.0
H319 H 0.46437 0.07285 0.19448 0.0
H320 H 0.53965 0.093 0.18288 0.0
H321 H 0.55976 0.12678 0.25613 0.0
H322 H 0.60137 0.14527 0.2504 0.0
H323 H 0.63418 0.14131 0.24371 0.0
C324 C 0.49588 0.6029 0.40413 0.0
C325 C 0.4989 0.62385 0.39338 0.0
C326 C 0.47465 0.58441 0.4066 0.0
C327 C 0.45587 0.5864 0.39812 0.0
C328 C 0.45881 0.60743 0.38877 0.0
C329 C 0.4801 0.62597 0.38615 0.0
C330 C 0.43309 0.5669 0.39985 0.0
C331 C 0.42876 0.54625 0.3905 0.0
C332 C 0.40649 0.52604 0.3935 0.0
C333 C 0.40321 0.50667 0.37332 0.0
C334 C 0.38327 0.48675 0.37809 0.0
C335 C 0.3661 0.48568 0.4034 0.0
H336 H 0.39102 0.5395 0.43492 0.0
C337 C 0.3691 0.50518 0.42274 0.0
C338 C 0.3891 0.52514 0.41801 0.0
H339 H 0.35625 0.50491 0.44266 0.0
H340 H 0.50995 0.60068 0.41039 0.0
H341 H 0.47305 0.56865 0.41557 0.0
H342 H 0.44461 0.60948 0.38271 0.0
H343 H 0.48182 0.64189 0.37805 0.0
H344 H 0.41964 0.56992 0.40724 0.0
H345 H 0.44218 0.54393 0.37922 0.0
H346 H 0.4163 0.50682 0.35436 0.0
H347 H 0.38155 0.47208 0.36268 0.0
C348 C 0.87204 0.37746 0.5986 0.0
C349 C 0.89186 0.37694 0.59463 0.0
C350 C 0.8719 0.39735 0.59327 0.0
C351 C 0.89166 0.4172 0.58398 0.0
C352 C 0.91131 0.41649 0.57915 0.0
C353 C 0.91145 0.39667 0.58449 0.0
C354 C 0.89276 0.43898 0.57855 0.0
C355 C 0.87676 0.4433 0.59067 0.0
C356 C 0.8789 0.46548 0.58491 0.0
C357 C 0.85977 0.46698 0.57814 0.0
C358 C 0.86135 0.48755 0.57087 0.0
C359 C 0.88211 0.50709 0.57081 0.0
H360 H 0.91463 0.48471 0.59332 0.0
C361 C 0.90117 0.50564 0.57941 0.0
C362 C 0.89959 0.4851 0.58647 0.0
H363 H 0.91741 0.52037 0.5801 0.0
H364 H 0.85662 0.36253 0.60612 0.0
H365 H 0.85623 0.39687 0.59618 0.0
H366 H 0.92676 0.43143 0.57168 0.0
H367 H 0.92702 0.3969 0.58104 0.0
H368 H 0.90777 0.45219 0.56406 0.0
H369 H 0.86135 0.43031 0.60416 0.0
H370 H 0.8436 0.45214 0.57741 0.0
H371 H 0.84631 0.48807 0.56466 0.0
C372 C 0.39595 0.90489 0.71644 0.0
C373 C 0.37468 0.88759 0.72733 0.0
C374 C 0.41452 0.90253 0.72233 0.0
C375 C 0.41228 0.88268 0.739 0.0
C376 C 0.39111 0.86555 0.75072 0.0
C377 C 0.37247 0.86791 0.74475 0.0
C378 C 0.43177 0.87972 0.74609 0.0
C379 C 0.45056 0.89059 0.72282 0.0
C380 C 0.47088 0.88919 0.73095 0.0
C381 C 0.49114 0.9063 0.71515 0.0
C382 C 0.51086 0.90625 0.72302 0.0
C383 C 0.51078 0.88895 0.74665 0.0
H384 H 0.45539 0.85763 0.76524 0.0
C385 C 0.49043 0.87144 0.76143 0.0
C386 C 0.47067 0.87151 0.75364 0.0
H387 H 0.48975 0.85775 0.77943 0.0
H388 H 0.39832 0.92038 0.7034 0.0
H389 H 0.4306 0.91649 0.71449 0.0
H390 H 0.38894 0.85021 0.76416 0.0
H391 H 0.35635 0.85428 0.75369 0.0
H392 H 0.43037 0.86824 0.77131 0.0
H393 H 0.45154 0.90174 0.69722 0.0
H394 H 0.49182 0.92002 0.69724 0.0
H395 H 0.5262 0.91996 0.71094 0.0
C396 C 0.49925 0.37337 0.90771 0.0
C397 C 0.48729 0.37181 0.87004 0.0
C398 C 0.5202 0.39184 0.91481 0.0
C399 C 0.52957 0.40925 0.88443 0.0
C400 C 0.51787 0.40734 0.8463 0.0
C401 C 0.49697 0.38892 0.83922 0.0
C402 C 0.55143 0.42961 0.89105 0.0
C403 C 0.56048 0.43705 0.93017 0.0
C404 C 0.58137 0.45842 0.93706 0.0
C405 C 0.58511 0.46857 0.97749 0.0
C406 C 0.60415 0.48894 0.98517 0.0
C407 C 0.62002 0.49962 0.9526 0.0
H408 H 0.59572 0.46123 0.87359 0.0
C409 C 0.6166 0.48922 0.91241 0.0
C410 C 0.59753 0.46881 0.90473 0.0
H411 H 0.62861 0.49686 0.88677 0.0
H412 H 0.49239 0.36038 0.9319 0.0
H413 H 0.52895 0.39226 0.94394 0.0
H414 H 0.52475 0.42037 0.82215 0.0
H415 H 0.48831 0.38823 0.8097 0.0
H416 H 0.55941 0.43961 0.8627 0.0
H417 H 0.55151 0.42806 0.95878 0.0
H418 H 0.57308 0.46088 0.00312 0.0
H419 H 0.60629 0.49639 0.01661 0.0
C420 C 0.0617 0.36649 0.88779 0.0
C421 C 0.05431 0.36454 0.93048 0.0
C422 C 0.04692 0.3543 0.85488 0.0
C423 C 0.02437 0.33974 0.86403 0.0
C424 C 0.0173 0.33692 0.90707 0.0
C425 C 0.0321 0.34909 0.93997 0.0
C426 C 0.00732 0.3296 0.82954 0.0
C427 C 0.01188 0.32756 0.7882 0.0
C428 C -0.00414 0.32283 0.75239 0.0
C429 C 0.00425 0.33096 0.71111 0.0
C430 C 0.9902 0.33006 0.67797 0.0
C431 C 0.96738 0.32084 0.68534 0.0
H432 H 0.96549 0.30464 0.78957 0.0
C433 C 0.95871 0.3111 0.72565 0.0
C434 C 0.97278 0.312 0.75882 0.0
H435 H 0.94114 0.3035 0.73216 0.0
H436 H 0.07871 0.37823 0.87936 0.0
H437 H 0.05312 0.35745 0.82224 0.0
H438 H 5e-05 0.32589 0.91512 0.0
H439 H 0.02584 0.3471 0.97254 0.0
H440 H 0.9906 0.32531 0.83841 0.0
H441 H 0.02857 0.33176 0.77934 0.0
H442 H 0.02191 0.33911 0.70501 0.0
H443 H -0.00259 0.33748 0.64715 0.0
C444 C 0.64256 0.95875 0.87453 0.0
C445 C 0.63855 0.96733 0.83662 0.0
C446 C 0.65535 0.9729 0.90777 0.0
C447 C 0.66421 0.99597 0.90389 0.0
C448 C 0.66146 0.00454 0.86474 0.0
C449 C 0.64877 0.99042 0.83153 0.0
C450 C 0.67499 0.01162 0.9403 0.0
C451 C 0.67207 0.00536 0.98211 0.0
C452 C 0.67773 0.02116 0.01846 0.0
C453 C 0.66648 0.01301 0.05766 0.0
C454 C 0.66854 0.02748 0.09056 0.0
C455 C 0.68198 0.05049 0.08506 0.0
H456 H 0.7024 0.05106 0.98554 0.0
C457 C 0.69461 0.05859 0.04724 0.0
C458 C 0.69263 0.04409 0.01435 0.0
H459 H 0.70546 0.07621 0.04232 0.0
H460 H 0.63523 0.94103 0.87917 0.0
H461 H 0.65776 0.96556 0.93658 0.0
H462 H 0.66831 0.02222 0.86046 0.0
H463 H 0.64626 -0.00236 0.80256 0.0
H464 H 0.68324 0.02911 0.93224 0.0
H465 H 0.66258 0.98789 -0.00973 0.0
H466 H 0.65515 0.99544 0.06212 0.0
H467 H 0.65876 0.02063 0.11949 0.0
C468 C 0.62096 0.68263 0.23224 0.0
C469 C 0.62093 0.67858 0.27665 0.0
C470 C 0.63426 0.67871 0.20423 0.0
C471 C 0.64798 0.67077 0.22012 0.0
C472 C 0.64884 0.66796 0.2648 0.0
C473 C 0.63555 0.67189 0.29279 0.0
C474 C 0.65926 0.6625 0.19129 0.0
C475 C 0.66287 0.66734 0.14891 0.0
C476 C 0.66891 0.6547 0.11875 0.0
C477 C 0.66232 0.65308 0.07551 0.0
C478 C 0.66453 0.63873 0.04745 0.0
C479 C 0.67354 0.62576 0.06199 0.0
H480 H 0.68572 0.64451 0.16493 0.0
C481 C 0.68174 0.62866 0.10433 0.0
C482 C 0.67952 0.64303 0.13241 0.0
H483 H 0.68914 0.61921 0.11635 0.0
H484 H 0.60991 0.68781 0.21873 0.0
H485 H 0.63263 0.68073 0.17011 0.0
H486 H 0.65919 0.66183 0.27801 0.0
H487 H 0.63602 0.66869 0.32685 0.0
H488 H 0.66307 0.65051 0.20537 0.0
H489 H 0.65913 0.67935 0.13472 0.0
H490 H 0.65437 0.66209 0.06389 0.0
H491 H 0.65828 0.63711 0.01489 0.0
C492 C 0.02917 0.66777 0.20623 0.0
C493 C 0.02276 0.65251 0.17232 0.0
C494 C 0.0138 0.66571 0.23742 0.0
C495 C 0.9917 0.64817 0.23549 0.0
C496 C 0.98511 0.63378 0.20015 0.0
C497 C 0.00042 0.63588 0.169 0.0
C498 C 0.97524 0.64339 0.27031 0.0
C499 C 0.98076 0.65068 0.31112 0.0
C500 C 0.96485 0.64178 0.34774 0.0
C501 C 0.97329 0.64314 0.38945 0.0
C502 C 0.95908 0.63242 0.42406 0.0
C503 C 0.93604 0.62011 0.41773 0.0
H504 H 0.9344 0.63024 0.31088 0.0
C505 C 0.92747 0.62006 0.37664 0.0
C506 C 0.9417 0.63089 0.34203 0.0
H507 H 0.90977 0.61107 0.37084 0.0
H508 H 0.0462 0.68098 0.20935 0.0
H509 H 0.01948 0.67771 0.26311 0.0
H510 H 0.96818 0.62028 0.19742 0.0
H511 H 0.99484 0.62395 0.14309 0.0
H512 H 0.95817 0.63129 0.2629 0.0
H513 H -0.00196 0.66154 0.31934 0.0
H514 H 0.99102 0.65168 0.39503 0.0
H515 H 0.96626 0.633 0.45538 0.0
C516 C 0.31553 0.96197 0.58443 0.0
C517 C 0.32978 0.97063 0.62008 0.0
C518 C 0.31611 0.97597 0.55129 0.0
C519 C 0.33116 -0.00107 0.55298 0.0
C520 C 0.34419 0.00765 0.59011 0.0
C521 C 0.34356 0.99369 0.62324 0.0
C522 C 0.33505 0.01422 0.51604 0.0
C523 C 0.33004 0.00744 0.47483 0.0
C524 C 0.33898 0.02269 0.43703 0.0
C525 C 0.34026 0.01384 0.39738 0.0
C526 C 0.35138 0.02772 0.36252 0.0
C527 C 0.36145 0.05083 0.36647 0.0
H528 H 0.34614 0.05323 0.46921 0.0
C529 C 0.35877 0.05964 0.40507 0.0
C530 C 0.34756 0.04573 0.43995 0.0
H531 H 0.36599 0.07736 0.40891 0.0
H532 H 0.30442 0.9443 0.58138 0.0
H533 H 0.30506 0.96858 0.5242 0.0
H534 H 0.35572 0.02527 0.59271 0.0
H535 H 0.35458 0.00096 0.65048 0.0
H536 H 0.34493 0.03179 0.52274 0.0
H537 H 0.32146 0.98985 0.46789 0.0
H538 H 0.33356 0.99616 0.39387 0.0
H539 H 0.35289 0.02032 0.33309 0.0
C540 C 0.30388 0.37197 0.57567 0.0
C541 C 0.30696 0.3698 0.53166 0.0
C542 C 0.30764 0.35952 0.60653 0.0
C543 C 0.31446 0.34446 0.59399 0.0
C544 C 0.31633 0.34146 0.54984 0.0
C545 C 0.31254 0.3539 0.51899 0.0
C546 C 0.32251 0.33388 0.62554 0.0
C547 C 0.31809 0.33204 0.66811 0.0
C548 C 0.33055 0.32662 0.70039 0.0
C549 C 0.33264 0.33477 0.7424 0.0
C550 C 0.34683 0.33304 0.77207 0.0
C551 C 0.35917 0.32296 0.76045 0.0
H552 H 0.33972 0.30764 0.65844 0.0
C553 C 0.3558 0.31328 0.71951 0.0
C554 C 0.34159 0.31502 0.68981 0.0
H555 H 0.36475 0.30505 0.70978 0.0
H556 H 0.29957 0.38406 0.58654 0.0
H557 H 0.30641 0.36281 0.64006 0.0
H558 H 0.3216 0.33005 0.53918 0.0
H559 H 0.31499 0.35174 0.48534 0.0
H560 H 0.33396 0.32901 0.61315 0.0
H561 H 0.30657 0.33682 0.68053 0.0
H562 H 0.32412 0.34352 0.75168 0.0
H563 H 0.34882 0.34045 0.80351 0.0
loop_
_geom_bond_atom_site_label_1
_geom_bond_atom_site_label_2
_geom_bond_distance
_geom_bond_site_symmetry_2
_ccdc_geom_bond_type
O0 Cd1 2.300 . S
O0 C7 1.275 . S
Cd1 O0 2.300 . S
Cd1 O9 2.381 . S
Cd1 O10 2.378 . S
O2 Cd3 2.385 . S
O2 C7 1.255 . S
Cd3 O2 2.385 . S
Cd3 O4 2.317 . S
O4 Cd3 2.317 . S
O4 C5 1.232 . S
C5 O4 1.232 . S
C5 O6 1.218 . S
O6 C5 1.218 . S
C7 O0 1.275 . S
C7 O2 1.255 . S
C8 O9 1.258 . S
C8 O10 1.256 . S
O9 Cd1 2.381 . S
O9 C8 1.258 . S
O10 Cd1 2.378 . S
O10 C8 1.256 . S
O11 Cd12 2.300 . S
O11 C18 1.275 . S
Cd12 O11 2.300 . S
Cd12 O20 2.381 . S
Cd12 O21 2.378 . S
O13 Cd14 2.385 . S
O13 C18 1.255 . S
Cd14 O13 2.385 . S
Cd14 O15 2.317 . S
O15 Cd14 2.317 . S
O15 C16 1.232 . S
C16 O15 1.232 . S
C16 O17 1.218 . S
O17 C16 1.218 . S
C18 O11 1.275 . S
C18 O13 1.255 . S
C19 O20 1.258 . S
C19 O21 1.256 . S
O20 Cd12 2.381 . S
O20 C19 1.258 . S
O21 Cd12 2.378 . S
O21 C19 1.256 . S
O22 Cd23 2.300 . S
O22 C29 1.275 . S
Cd23 O22 2.300 . S
Cd23 O31 2.381 . S
Cd23 O32 2.378 . S
O24 Cd25 2.385 . S
O24 C29 1.255 . S
Cd25 O24 2.385 . S
Cd25 O26 2.317 . S
O26 Cd25 2.317 . S
O26 C27 1.232 . S
C27 O26 1.232 . S
C27 O28 1.218 . S
O28 C27 1.218 . S
C29 O22 1.275 . S
C29 O24 1.255 . S
C30 O31 1.258 . S
C30 O32 1.256 . S
O31 Cd23 2.381 . S
O31 C30 1.258 . S
O32 Cd23 2.378 . S
O32 C30 1.256 . S
O33 Cd34 2.300 . S
O33 C40 1.275 . S
Cd34 O33 2.300 . S
Cd34 O42 2.381 . S
Cd34 O43 2.378 . S
O35 Cd36 2.385 . S
O35 C40 1.255 . S
Cd36 O35 2.385 . S
Cd36 O37 2.317 . S
O37 Cd36 2.317 . S
O37 C38 1.232 . S
C38 O37 1.232 . S
C38 O39 1.218 . S
O39 C38 1.218 . S
C40 O33 1.275 . S
C40 O35 1.255 . S
C41 O42 1.258 . S
C41 O43 1.256 . S
O42 Cd34 2.381 . S
O42 C41 1.258 . S
O43 Cd34 2.378 . S
O43 C41 1.256 . S
O44 Cd45 2.300 . S
O44 C51 1.275 . S
Cd45 O44 2.300 . S
Cd45 O53 2.381 . S
Cd45 O54 2.378 . S
O46 Cd47 2.385 . S
O46 C51 1.255 . S
Cd47 O46 2.385 . S
Cd47 O48 2.317 . S
O48 Cd47 2.317 . S
O48 C49 1.232 . S
C49 O48 1.232 . S
C49 O50 1.218 . S
O50 C49 1.218 . S
C51 O44 1.275 . S
C51 O46 1.255 . S
C52 O53 1.258 . S
C52 O54 1.256 . S
O53 Cd45 2.381 . S
O53 C52 1.258 . S
O54 Cd45 2.378 . S
O54 C52 1.256 . S
O55 Cd56 2.300 . S
O55 C62 1.275 . S
Cd56 O55 2.300 . S
Cd56 O64 2.381 . S
Cd56 O65 2.378 . S
O57 Cd58 2.385 . S
O57 C62 1.255 . S
Cd58 O57 2.385 . S
Cd58 O59 2.317 . S
O59 Cd58 2.317 . S
O59 C60 1.232 . S
C60 O59 1.232 . S
C60 O61 1.218 . S
O61 C60 1.218 . S
C62 O55 1.275 . S
C62 O57 1.255 . S
C63 O64 1.258 . S
C63 O65 1.256 . S
O64 Cd56 2.381 . S
O64 C63 1.258 . S
O65 Cd56 2.378 . S
O65 C63 1.256 . S
O66 Cd67 2.300 . S
O66 C73 1.275 . S
Cd67 O66 2.300 . S
Cd67 O75 2.381 . S
Cd67 O76 2.378 . S
O68 Cd69 2.385 . S
O68 C73 1.255 . S
Cd69 O68 2.385 . S
Cd69 O70 2.317 . S
O70 Cd69 2.317 . S
O70 C71 1.232 . S
C71 O70 1.232 . S
C71 O72 1.218 . S
O72 C71 1.218 . S
C73 O66 1.275 . S
C73 O68 1.255 . S
C74 O75 1.258 . S
C74 O76 1.256 . S
O75 Cd67 2.381 . S
O75 C74 1.258 . S
O76 Cd67 2.378 . S
O76 C74 1.256 . S
O77 Cd78 2.300 . S
O77 C84 1.275 . S
Cd78 O77 2.300 . S
Cd78 O86 2.381 . S
Cd78 O87 2.378 . S
O79 Cd80 2.385 . S
O79 C84 1.255 . S
Cd80 O79 2.385 . S
Cd80 O81 2.317 . S
O81 Cd80 2.317 . S
O81 C82 1.232 . S
C82 O81 1.232 . S
C82 O83 1.218 . S
O83 C82 1.218 . S
C84 O77 1.275 . S
C84 O79 1.255 . S
C85 O86 1.258 . S
C85 O87 1.256 . S
O86 Cd78 2.381 . S
O86 C85 1.258 . S
O87 Cd78 2.378 . S
O87 C85 1.256 . S
O88 Cd89 2.300 . S
O88 C95 1.275 . S
Cd89 O88 2.300 . S
Cd89 O97 2.381 . S
Cd89 O98 2.378 . S
O90 Cd91 2.385 . S
O90 C95 1.255 . S
Cd91 O90 2.385 . S
Cd91 O92 2.317 . S
O92 Cd91 2.317 . S
O92 C93 1.232 . S
C93 O92 1.232 . S
C93 O94 1.218 . S
O94 C93 1.218 . S
C95 O88 1.275 . S
C95 O90 1.255 . S
C96 O97 1.258 . S
C96 O98 1.256 . S
O97 Cd89 2.381 . S
O97 C96 1.258 . S
O98 Cd89 2.378 . S
O98 C96 1.256 . S
O99 Cd100 2.300 . S
O99 C106 1.275 . S
Cd100 O99 2.300 . S
Cd100 O108 2.381 . S
Cd100 O109 2.378 . S
O101 Cd102 2.385 . S
O101 C106 1.255 . S
Cd102 O101 2.385 . S
Cd102 O103 2.317 . S
O103 Cd102 2.317 . S
O103 C104 1.232 . S
C104 O103 1.232 . S
C104 O105 1.218 . S
O105 C104 1.218 . S
C106 O99 1.275 . S
C106 O101 1.255 . S
C107 O108 1.258 . S
C107 O109 1.256 . S
O108 Cd100 2.381 . S
O108 C107 1.258 . S
O109 Cd100 2.378 . S
O109 C107 1.256 . S
O110 Cd111 2.300 . S
O110 C117 1.275 . S
Cd111 O110 2.300 . S
Cd111 O119 2.381 . S
Cd111 O120 2.378 . S
O112 Cd113 2.385 . S
O112 C117 1.255 . S
Cd113 O112 2.385 . S
Cd113 O114 2.317 . S
O114 Cd113 2.317 . S
O114 C115 1.232 . S
C115 O114 1.232 . S
C115 O116 1.218 . S
O116 C115 1.218 . S
C117 O110 1.275 . S
C117 O112 1.255 . S
C118 O119 1.258 . S
C118 O120 1.256 . S
O119 Cd111 2.381 . S
O119 C118 1.258 . S
O120 Cd111 2.378 . S
O120 C118 1.256 . S
O121 Cd122 2.300 . S
O121 C128 1.275 . S
Cd122 O121 2.300 . S
Cd122 O130 2.381 . S
Cd122 O131 2.378 . S
O123 Cd124 2.385 . S
O123 C128 1.255 . S
Cd124 O123 2.385 . S
Cd124 O125 2.317 . S
O125 Cd124 2.317 . S
O125 C126 1.232 . S
C126 O125 1.232 . S
C126 O127 1.218 . S
O127 C126 1.218 . S
C128 O121 1.275 . S
C128 O123 1.255 . S
C129 O130 1.258 . S
C129 O131 1.256 . S
O130 Cd122 2.381 . S
O130 C129 1.258 . S
O131 Cd122 2.378 . S
O131 C129 1.256 . S
C132 C133 1.386 . S
C132 C134 1.383 . S
C132 H148 0.951 . S
C133 C132 1.386 . S
C133 C137 1.383 . S
C134 C132 1.383 . S
C134 C135 1.402 . S
C134 H149 0.951 . S
C135 C134 1.402 . S
C135 C136 1.375 . S
C135 C138 1.481 . S
C136 C135 1.375 . S
C136 C137 1.367 . S
C136 H150 0.951 . S
C137 C133 1.383 . S
C137 C136 1.367 . S
C137 H151 0.950 . S
C138 C135 1.481 . S
C138 C139 1.297 . S
C138 H152 0.950 . S
C139 C138 1.297 . S
C139 C140 1.479 . S
C139 H153 0.950 . S
C140 C139 1.479 . S
C140 C141 1.375 . S
C140 C146 1.404 . S
C141 C140 1.375 . S
C141 C142 1.369 . S
C141 H154 0.950 . S
C142 C141 1.369 . S
C142 C143 1.392 . S
C142 H155 0.951 . S
C143 C142 1.392 . S
C143 C145 1.384 . S
H144 C146 0.949 . S
C145 C143 1.384 . S
C145 C146 1.385 . S
C145 H147 0.950 . S
C146 C140 1.404 . S
C146 H144 0.949 . S
C146 C145 1.385 . S
H147 C145 0.950 . S
H148 C132 0.951 . S
H149 C134 0.951 . S
H150 C136 0.951 . S
H151 C137 0.950 . S
H152 C138 0.950 . S
H153 C139 0.950 . S
H154 C141 0.950 . S
H155 C142 0.951 . S
C156 C157 1.386 . S
C156 C158 1.383 . S
C156 H172 0.951 . S
C157 C156 1.386 . S
C157 C161 1.383 . S
C158 C156 1.383 . S
C158 C159 1.402 . S
C158 H173 0.951 . S
C159 C158 1.402 . S
C159 C160 1.375 . S
C159 C162 1.481 . S
C160 C159 1.375 . S
C160 C161 1.367 . S
C160 H174 0.951 . S
C161 C157 1.383 . S
C161 C160 1.367 . S
C161 H175 0.950 . S
C162 C159 1.481 . S
C162 C163 1.297 . S
C162 H176 0.950 . S
C163 C162 1.297 . S
C163 C164 1.479 . S
C163 H177 0.950 . S
C164 C163 1.479 . S
C164 C165 1.375 . S
C164 C170 1.404 . S
C165 C164 1.375 . S
C165 C166 1.369 . S
C165 H178 0.950 . S
C166 C165 1.369 . S
C166 C167 1.392 . S
C166 H179 0.951 . S
C167 C166 1.392 . S
C167 C169 1.384 . S
H168 C170 0.949 . S
C169 C167 1.384 . S
C169 C170 1.385 . S
C169 H171 0.950 . S
C170 C164 1.404 . S
C170 H168 0.949 . S
C170 C169 1.385 . S
H171 C169 0.950 . S
H172 C156 0.951 . S
H173 C158 0.951 . S
H174 C160 0.951 . S
H175 C161 0.950 . S
H176 C162 0.950 . S
H177 C163 0.950 . S
H178 C165 0.950 . S
H179 C166 0.951 . S
C180 C181 1.386 . S
C180 C182 1.383 . S
C180 H196 0.951 . S
C181 C180 1.386 . S
C181 C185 1.383 . S
C182 C180 1.383 . S
C182 C183 1.402 . S
C182 H197 0.951 . S
C183 C182 1.402 . S
C183 C184 1.375 . S
C183 C186 1.481 . S
C184 C183 1.375 . S
C184 C185 1.367 . S
C184 H198 0.951 . S
C185 C181 1.383 . S
C185 C184 1.367 . S
C185 H199 0.950 . S
C186 C183 1.481 . S
C186 C187 1.297 . S
C186 H200 0.950 . S
C187 C186 1.297 . S
C187 C188 1.479 . S
C187 H201 0.950 . S
C188 C187 1.479 . S
C188 C189 1.375 . S
C188 C194 1.404 . S
C189 C188 1.375 . S
C189 C190 1.369 . S
C189 H202 0.950 . S
C190 C189 1.369 . S
C190 C191 1.392 . S
C190 H203 0.951 . S
C191 C190 1.392 . S
C191 C193 1.384 . S
H192 C194 0.949 . S
C193 C191 1.384 . S
C193 C194 1.385 . S
C193 H195 0.950 . S
C194 C188 1.404 . S
C194 H192 0.949 . S
C194 C193 1.385 . S
H195 C193 0.950 . S
H196 C180 0.951 . S
H197 C182 0.951 . S
H198 C184 0.951 . S
H199 C185 0.950 . S
H200 C186 0.950 . S
H201 C187 0.950 . S
H202 C189 0.950 . S
H203 C190 0.951 . S
C204 C205 1.386 . S
C204 C206 1.383 . S
C204 H220 0.951 . S
C205 C204 1.386 . S
C205 C209 1.383 . S
C206 C204 1.383 . S
C206 C207 1.402 . S
C206 H221 0.951 . S
C207 C206 1.402 . S
C207 C208 1.375 . S
C207 C210 1.481 . S
C208 C207 1.375 . S
C208 C209 1.367 . S
C208 H222 0.951 . S
C209 C205 1.383 . S
C209 C208 1.367 . S
C209 H223 0.950 . S
C210 C207 1.481 . S
C210 C211 1.297 . S
C210 H224 0.950 . S
C211 C210 1.297 . S
C211 C212 1.479 . S
C211 H225 0.950 . S
C212 C211 1.479 . S
C212 C213 1.375 . S
C212 C218 1.404 . S
C213 C212 1.375 . S
C213 C214 1.369 . S
C213 H226 0.950 . S
C214 C213 1.369 . S
C214 C215 1.392 . S
C214 H227 0.951 . S
C215 C214 1.392 . S
C215 C217 1.384 . S
H216 C218 0.949 . S
C217 C215 1.384 . S
C217 C218 1.385 . S
C217 H219 0.950 . S
C218 C212 1.404 . S
C218 H216 0.949 . S
C218 C217 1.385 . S
H219 C217 0.950 . S
H220 C204 0.951 . S
H221 C206 0.951 . S
H222 C208 0.951 . S
H223 C209 0.950 . S
H224 C210 0.950 . S
H225 C211 0.950 . S
H226 C213 0.950 . S
H227 C214 0.951 . S
C228 C229 1.386 . S
C228 C230 1.383 . S
C228 H244 0.951 . S
C229 C228 1.386 . S
C229 C233 1.383 1_556 S
C230 C228 1.383 . S
C230 C231 1.402 . S
C230 H245 0.951 . S
C231 C230 1.402 . S
C231 C232 1.375 . S
C231 C234 1.481 . S
C232 C231 1.375 . S
C232 C233 1.367 1_556 S
C232 H246 0.951 1_556 S
C233 C229 1.383 1_554 S
C233 C232 1.367 1_554 S
C233 H247 0.950 . S
C234 C231 1.481 . S
C234 C235 1.297 . S
C234 H248 0.950 . S
C235 C234 1.297 . S
C235 C236 1.479 . S
C235 H249 0.950 . S
C236 C235 1.479 . S
C236 C237 1.375 . S
C236 C242 1.404 . S
C237 C236 1.375 . S
C237 C238 1.369 . S
C237 H250 0.950 . S
C238 C237 1.369 . S
C238 C239 1.392 . S
C238 H251 0.951 . S
C239 C238 1.392 . S
C239 C241 1.384 . S
H240 C242 0.949 . S
C241 C239 1.384 . S
C241 C242 1.385 . S
C241 H243 0.950 . S
C242 C236 1.404 . S
C242 H240 0.949 . S
C242 C241 1.385 . S
H243 C241 0.950 . S
H244 C228 0.951 . S
H245 C230 0.951 . S
H246 C232 0.951 1_554 S
H247 C233 0.950 . S
H248 C234 0.950 . S
H249 C235 0.950 . S
H250 C237 0.950 . S
H251 C238 0.951 . S
C252 C253 1.386 . S
C252 C254 1.383 . S
C252 H268 0.951 . S
C253 C252 1.386 . S
C253 C257 1.378 1_554 S
C254 C252 1.383 . S
C254 C255 1.402 . S
C254 H269 0.951 . S
C255 C254 1.402 . S
C255 C256 1.375 . S
C255 C258 1.481 . S
C256 C255 1.375 . S
C256 C257 1.362 1_554 S
C256 H270 0.951 . S
C257 C253 1.378 1_556 S
C257 C256 1.362 1_556 S
C257 H271 0.961 . S
C258 C255 1.481 . S
C258 C259 1.297 . S
C258 H272 0.950 . S
C259 C258 1.297 . S
C259 C260 1.479 . S
C259 H273 0.950 . S
C260 C259 1.479 . S
C260 C261 1.375 . S
C260 C266 1.404 . S
C261 C260 1.375 . S
C261 C262 1.369 . S
C261 H274 0.950 . S
C262 C261 1.369 . S
C262 C263 1.392 . S
C262 H275 0.951 . S
C263 C262 1.392 . S
C263 C265 1.384 . S
H264 C266 0.949 . S
C265 C263 1.384 . S
C265 C266 1.385 . S
C265 H267 0.950 . S
C266 C260 1.404 . S
C266 H264 0.949 . S
C266 C265 1.385 . S
H267 C265 0.950 . S
H268 C252 0.951 . S
H269 C254 0.951 . S
H270 C256 0.951 . S
H271 C257 0.961 . S
H272 C258 0.950 . S
H273 C259 0.950 . S
H274 C261 0.950 . S
H275 C262 0.951 . S
C276 C277 1.386 . S
C276 C278 1.383 . S
C276 H292 0.951 . S
C277 C276 1.386 . S
C277 C281 1.383 . S
C278 C276 1.383 . S
C278 C279 1.402 . S
C278 H293 0.951 . S
C279 C278 1.402 . S
C279 C280 1.375 . S
C279 C282 1.481 . S
C280 C279 1.375 . S
C280 C281 1.367 . S
C280 H294 0.951 . S
C281 C277 1.383 . S
C281 C280 1.367 . S
C281 H295 0.950 . S
C282 C279 1.481 . S
C282 C283 1.297 . S
C282 H296 0.950 . S
C283 C282 1.297 . S
C283 C284 1.479 . S
C283 H297 0.950 . S
C284 C283 1.479 . S
C284 C285 1.375 . S
C284 C290 1.404 . S
C285 C284 1.375 . S
C285 C286 1.369 . S
C285 H298 0.950 . S
C286 C285 1.369 . S
C286 C287 1.392 . S
C286 H299 0.951 . S
C287 C286 1.392 . S
C287 C289 1.384 . S
H288 C290 0.949 . S
C289 C287 1.384 . S
C289 C290 1.385 . S
C289 H291 0.950 . S
C290 C284 1.404 . S
C290 H288 0.949 . S
C290 C289 1.385 . S
H291 C289 0.950 . S
H292 C276 0.951 . S
H293 C278 0.951 . S
H294 C280 0.951 . S
H295 C281 0.950 . S
H296 C282 0.950 . S
H297 C283 0.950 . S
H298 C285 0.950 . S
H299 C286 0.951 . S
C300 C301 1.386 . S
C300 C302 1.383 . S
C300 H316 0.951 . S
C301 C300 1.386 . S
C301 C305 1.383 . S
C302 C300 1.383 . S
C302 C303 1.402 . S
C302 H317 0.951 . S
C303 C302 1.402 . S
C303 C304 1.375 . S
C303 C306 1.481 . S
C304 C303 1.375 . S
C304 C305 1.367 . S
C304 H318 0.951 . S
C305 C301 1.383 . S
C305 C304 1.367 . S
C305 H319 0.950 . S
C306 C303 1.481 . S
C306 C307 1.297 . S
C306 H320 0.950 . S
C307 C306 1.297 . S
C307 C308 1.479 . S
C307 H321 0.950 . S
C308 C307 1.479 . S
C308 C309 1.375 . S
C308 C314 1.404 . S
C309 C308 1.375 . S
C309 C310 1.369 . S
C309 H322 0.950 . S
C310 C309 1.369 . S
C310 C311 1.392 . S
C310 H323 0.951 . S
C311 C310 1.392 . S
C311 C313 1.384 . S
H312 C314 0.949 . S
C313 C311 1.384 . S
C313 C314 1.385 . S
C313 H315 0.950 . S
C314 C308 1.404 . S
C314 H312 0.949 . S
C314 C313 1.385 . S
H315 C313 0.950 . S
H316 C300 0.951 . S
H317 C302 0.951 . S
H318 C304 0.951 . S
H319 C305 0.950 . S
H320 C306 0.950 . S
H321 C307 0.950 . S
H322 C309 0.950 . S
H323 C310 0.951 . S
C324 C325 1.386 . S
C324 C326 1.383 . S
C324 H340 0.951 . S
C325 C324 1.386 . S
C325 C329 1.383 . S
C326 C324 1.383 . S
C326 C327 1.402 . S
C326 H341 0.951 . S
C327 C326 1.402 . S
C327 C328 1.375 . S
C327 C330 1.481 . S
C328 C327 1.375 . S
C328 C329 1.367 . S
C328 H342 0.951 . S
C329 C325 1.383 . S
C329 C328 1.367 . S
C329 H343 0.950 . S
C330 C327 1.481 . S
C330 C331 1.297 . S
C330 H344 0.950 . S
C331 C330 1.297 . S
C331 C332 1.479 . S
C331 H345 0.950 . S
C332 C331 1.479 . S
C332 C333 1.375 . S
C332 C338 1.404 . S
C333 C332 1.375 . S
C333 C334 1.369 . S
C333 H346 0.950 . S
C334 C333 1.369 . S
C334 C335 1.392 . S
C334 H347 0.951 . S
C335 C334 1.392 . S
C335 C337 1.384 . S
H336 C338 0.949 . S
C337 C335 1.384 . S
C337 C338 1.385 . S
C337 H339 0.950 . S
C338 C332 1.404 . S
C338 H336 0.949 . S
C338 C337 1.385 . S
H339 C337 0.950 . S
H340 C324 0.951 . S
H341 C326 0.951 . S
H342 C328 0.951 . S
H343 C329 0.950 . S
H344 C330 0.950 . S
H345 C331 0.950 . S
H346 C333 0.950 . S
H347 C334 0.951 . S
C348 C349 1.386 . S
C348 C350 1.383 . S
C348 H364 0.951 . S
C349 C348 1.386 . S
C349 C353 1.383 . S
C350 C348 1.383 . S
C350 C351 1.402 . S
C350 H365 0.951 . S
C351 C350 1.402 . S
C351 C352 1.375 . S
C351 C354 1.481 . S
C352 C351 1.375 . S
C352 C353 1.367 . S
C352 H366 0.951 . S
C353 C349 1.383 . S
C353 C352 1.367 . S
C353 H367 0.950 . S
C354 C351 1.481 . S
C354 C355 1.297 . S
C354 H368 0.950 . S
C355 C354 1.297 . S
C355 C356 1.479 . S
C355 H369 0.950 . S
C356 C355 1.479 . S
C356 C357 1.375 . S
C356 C362 1.404 . S
C357 C356 1.375 . S
C357 C358 1.369 . S
C357 H370 0.950 . S
C358 C357 1.369 . S
C358 C359 1.392 . S
C358 H371 0.951 . S
C359 C358 1.392 . S
C359 C361 1.384 . S
H360 C362 0.949 . S
C361 C359 1.384 . S
C361 C362 1.385 . S
C361 H363 0.950 . S
C362 C356 1.404 . S
C362 H360 0.949 . S
C362 C361 1.385 . S
H363 C361 0.950 . S
H364 C348 0.951 . S
H365 C350 0.951 . S
H366 C352 0.951 . S
H367 C353 0.950 . S
H368 C354 0.950 . S
H369 C355 0.950 . S
H370 C357 0.950 . S
H371 C358 0.951 . S
C372 C373 1.386 . S
C372 C374 1.383 . S
C372 H388 0.951 . S
C373 C372 1.386 . S
C373 C377 1.383 . S
C374 C372 1.383 . S
C374 C375 1.402 . S
C374 H389 0.951 . S
C375 C374 1.402 . S
C375 C376 1.375 . S
C375 C378 1.481 . S
C376 C375 1.375 . S
C376 C377 1.367 . S
C376 H390 0.951 . S
C377 C373 1.383 . S
C377 C376 1.367 . S
C377 H391 0.950 . S
C378 C375 1.481 . S
C378 C379 1.297 . S
C378 H392 0.950 . S
C379 C378 1.297 . S
C379 C380 1.479 . S
C379 H393 0.950 . S
C380 C379 1.479 . S
C380 C381 1.375 . S
C380 C386 1.404 . S
C381 C380 1.375 . S
C381 C382 1.369 . S
C381 H394 0.950 . S
C382 C381 1.369 . S
C382 C383 1.392 . S
C382 H395 0.951 . S
C383 C382 1.392 . S
C383 C385 1.384 . S
H384 C386 0.949 . S
C385 C383 1.384 . S
C385 C386 1.385 . S
C385 H387 0.950 . S
C386 C380 1.404 . S
C386 H384 0.949 . S
C386 C385 1.385 . S
H387 C385 0.950 . S
H388 C372 0.951 . S
H389 C374 0.951 . S
H390 C376 0.951 . S
H391 C377 0.950 . S
H392 C378 0.950 . S
H393 C379 0.950 . S
H394 C381 0.950 . S
H395 C382 0.951 . S
C396 C397 1.386 . S
C396 C398 1.383 . S
C396 H412 0.951 . S
C397 C396 1.386 . S
C397 C401 1.383 . S
C398 C396 1.383 . S
C398 C399 1.402 . S
C398 H413 0.951 . S
C399 C398 1.402 . S
C399 C400 1.375 . S
C399 C402 1.481 . S
C400 C399 1.375 . S
C400 C401 1.367 . S
C400 H414 0.951 . S
C401 C397 1.383 . S
C401 C400 1.367 . S
C401 H415 0.950 . S
C402 C399 1.481 . S
C402 C403 1.297 . S
C402 H416 0.950 . S
C403 C402 1.297 . S
C403 C404 1.479 . S
C403 H417 0.950 . S
C404 C403 1.479 . S
C404 C405 1.375 . S
C404 C410 1.404 . S
C405 C404 1.375 . S
C405 C406 1.369 . S
C405 H418 0.950 . S
C406 C405 1.369 . S
C406 C407 1.392 . S
C406 H419 0.951 . S
C407 C406 1.392 . S
C407 C409 1.384 . S
H408 C410 0.949 . S
C409 C407 1.384 . S
C409 C410 1.385 . S
C409 H411 0.950 . S
C410 C404 1.404 . S
C410 H408 0.949 . S
C410 C409 1.385 . S
H411 C409 0.950 . S
H412 C396 0.951 . S
H413 C398 0.951 . S
H414 C400 0.951 . S
H415 C401 0.950 . S
H416 C402 0.950 . S
H417 C403 0.950 . S
H418 C405 0.950 . S
H419 C406 0.951 . S
C420 C421 1.386 . S
C420 C422 1.383 . S
C420 H436 0.951 . S
C421 C420 1.386 . S
C421 C425 1.383 . S
C422 C420 1.383 . S
C422 C423 1.402 . S
C422 H437 0.951 . S
C423 C422 1.402 . S
C423 C424 1.375 . S
C423 C426 1.481 . S
C424 C423 1.375 . S
C424 C425 1.367 . S
C424 H438 0.951 1_455 S
C425 C421 1.383 . S
C425 C424 1.367 . S
C425 H439 0.950 . S
C426 C423 1.481 . S
C426 C427 1.297 . S
C426 H440 0.950 1_455 S
C427 C426 1.297 . S
C427 C428 1.479 1_455 S
C427 H441 0.950 . S
C428 C427 1.479 1_655 S
C428 C429 1.375 . S
C428 C434 1.404 . S
C429 C428 1.375 . S
C429 C430 1.369 . S
C429 H442 0.950 1_655 S
C430 C429 1.369 . S
C430 C431 1.392 . S
C430 H443 0.951 . S
C431 C430 1.392 . S
C431 C433 1.384 . S
H432 C434 0.949 . S
C433 C431 1.384 . S
C433 C434 1.385 . S
C433 H435 0.950 . S
C434 C428 1.404 . S
C434 H432 0.949 . S
C434 C433 1.385 . S
H435 C433 0.950 . S
H436 C420 0.951 . S
H437 C422 0.951 . S
H438 C424 0.951 1_655 S
H439 C425 0.950 . S
H440 C426 0.950 1_655 S
H441 C427 0.950 . S
H442 C429 0.950 1_455 S
H443 C430 0.951 . S
C444 C445 1.386 . S
C444 C446 1.383 . S
C444 H460 0.951 . S
C445 C444 1.386 . S
C445 C449 1.383 . S
C446 C444 1.383 . S
C446 C447 1.402 . S
C446 H461 0.951 . S
C447 C446 1.402 . S
C447 C448 1.375 . S
C447 C450 1.481 1_565 S
C448 C447 1.375 . S
C448 C449 1.367 . S
C448 H462 0.951 1_565 S
C449 C445 1.383 . S
C449 C448 1.367 . S
C449 H463 0.950 . S
C450 C447 1.481 1_545 S
C450 C451 1.297 1_556 S
C450 H464 0.950 . S
C451 C450 1.297 1_554 S
C451 C452 1.479 . S
C451 H465 0.950 1_545 S
C452 C451 1.479 . S
C452 C453 1.375 . S
C452 C458 1.404 . S
C453 C452 1.375 . S
C453 C454 1.369 . S
C453 H466 0.950 . S
C454 C453 1.369 . S
C454 C455 1.392 . S
C454 H467 0.951 . S
C455 C454 1.392 . S
C455 C457 1.384 . S
H456 C458 0.949 . S
C457 C455 1.384 . S
C457 C458 1.385 . S
C457 H459 0.950 . S
C458 C452 1.404 . S
C458 H456 0.949 . S
C458 C457 1.385 . S
H459 C457 0.950 . S
H460 C444 0.951 . S
H461 C446 0.951 . S
H462 C448 0.951 1_545 S
H463 C449 0.950 . S
H464 C450 0.950 . S
H465 C451 0.950 1_565 S
H466 C453 0.950 . S
H467 C454 0.951 . S
C468 C469 1.386 . S
C468 C470 1.383 . S
C468 H484 0.951 . S
C469 C468 1.386 . S
C469 C473 1.383 . S
C470 C468 1.383 . S
C470 C471 1.402 . S
C470 H485 0.951 . S
C471 C470 1.402 . S
C471 C472 1.375 . S
C471 C474 1.481 . S
C472 C471 1.375 . S
C472 C473 1.367 . S
C472 H486 0.951 . S
C473 C469 1.383 . S
C473 C472 1.367 . S
C473 H487 0.950 . S
C474 C471 1.481 . S
C474 C475 1.297 . S
C474 H488 0.950 . S
C475 C474 1.297 . S
C475 C476 1.479 . S
C475 H489 0.950 . S
C476 C475 1.479 . S
C476 C477 1.375 . S
C476 C482 1.404 . S
C477 C476 1.375 . S
C477 C478 1.369 . S
C477 H490 0.950 . S
C478 C477 1.369 . S
C478 C479 1.392 . S
C478 H491 0.951 . S
C479 C478 1.392 . S
C479 C481 1.384 . S
H480 C482 0.949 . S
C481 C479 1.384 . S
C481 C482 1.385 . S
C481 H483 0.950 . S
C482 C476 1.404 . S
C482 H480 0.949 . S
C482 C481 1.385 . S
H483 C481 0.950 . S
H484 C468 0.951 . S
H485 C470 0.951 . S
H486 C472 0.951 . S
H487 C473 0.950 . S
H488 C474 0.950 . S
H489 C475 0.950 . S
H490 C477 0.950 . S
H491 C478 0.951 . S
C492 C493 1.386 . S
C492 C494 1.383 . S
C492 H508 0.951 . S
C493 C492 1.386 . S
C493 C497 1.383 . S
C494 C492 1.383 . S
C494 C495 1.402 . S
C494 H509 0.951 . S
C495 C494 1.402 . S
C495 C496 1.375 . S
C495 C498 1.481 1_455 S
C496 C495 1.375 . S
C496 C497 1.367 . S
C496 H510 0.951 . S
C497 C493 1.383 . S
C497 C496 1.367 . S
C497 H511 0.950 . S
C498 C495 1.481 1_655 S
C498 C499 1.297 . S
C498 H512 0.956 . S
C499 C498 1.297 . S
C499 C500 1.479 . S
C499 H513 0.950 . S
C500 C499 1.479 . S
C500 C501 1.375 . S
C500 C506 1.404 . S
C501 C500 1.375 . S
C501 C502 1.369 . S
C501 H514 0.950 . S
C502 C501 1.369 . S
C502 C503 1.392 . S
C502 H515 0.951 . S
C503 C502 1.392 . S
C503 C505 1.384 . S
H504 C506 0.949 . S
C505 C503 1.384 . S
C505 C506 1.385 . S
C505 H507 0.950 . S
C506 C500 1.404 . S
C506 H504 0.949 . S
C506 C505 1.385 . S
H507 C505 0.950 . S
H508 C492 0.951 . S
H509 C494 0.951 . S
H510 C496 0.951 . S
H511 C497 0.950 . S
H512 C498 0.956 . S
H513 C499 0.950 . S
H514 C501 0.950 . S
H515 C502 0.951 . S
C516 C517 1.386 . S
C516 C518 1.383 . S
C516 H532 0.951 . S
C517 C516 1.386 . S
C517 C521 1.383 . S
C518 C516 1.383 . S
C518 C519 1.402 . S
C518 H533 0.951 . S
C519 C518 1.402 . S
C519 C520 1.375 . S
C519 C522 1.481 1_565 S
C520 C519 1.375 . S
C520 C521 1.367 . S
C520 H534 0.951 1_565 S
C521 C517 1.383 . S
C521 C520 1.367 . S
C521 H535 0.950 . S
C522 C519 1.481 1_545 S
C522 C523 1.297 . S
C522 H536 0.950 . S
C523 C522 1.297 . S
C523 C524 1.479 . S
C523 H537 0.950 . S
C524 C523 1.479 . S
C524 C525 1.375 . S
C524 C530 1.404 . S
C525 C524 1.375 . S
C525 C526 1.369 . S
C525 H538 0.950 . S
C526 C525 1.369 . S
C526 C527 1.392 . S
C526 H539 0.951 . S
C527 C526 1.392 . S
C527 C529 1.384 . S
H528 C530 0.949 . S
C529 C527 1.384 . S
C529 C530 1.385 . S
C529 H531 0.950 . S
C530 C524 1.404 . S
C530 H528 0.949 . S
C530 C529 1.385 . S
H531 C529 0.950 . S
H532 C516 0.951 . S
H533 C518 0.951 . S
H534 C520 0.951 1_545 S
H535 C521 0.950 . S
H536 C522 0.950 . S
H537 C523 0.950 . S
H538 C525 0.950 . S
H539 C526 0.951 . S
C540 C541 1.386 . S
C540 C542 1.383 . S
C540 H556 0.951 . S
C541 C540 1.386 . S
C541 C545 1.383 . S
C542 C540 1.383 . S
C542 C543 1.402 . S
C542 H557 0.951 . S
C543 C542 1.402 . S
C543 C544 1.375 . S
C543 C546 1.481 . S
C544 C543 1.375 . S
C544 C545 1.367 . S
C544 H558 0.951 . S
C545 C541 1.383 . S
C545 C544 1.367 . S
C545 H559 0.950 . S
C546 C543 1.481 . S
C546 C547 1.297 . S
C546 H560 0.950 . S
C547 C546 1.297 . S
C547 C548 1.479 . S
C547 H561 0.950 . S
C548 C547 1.479 . S
C548 C549 1.375 . S
C548 C554 1.404 . S
C549 C548 1.375 . S
C549 C550 1.369 . S
C549 H562 0.950 . S
C550 C549 1.369 . S
C550 C551 1.392 . S
C550 H563 0.951 . S
C551 C550 1.392 . S
C551 C553 1.384 . S
H552 C554 0.949 . S
C553 C551 1.384 . S
C553 C554 1.385 . S
C553 H555 0.950 . S
C554 C548 1.404 . S
C554 H552 0.949 . S
C554 C553 1.385 . S
H555 C553 0.950 . S
H556 C540 0.951 . S
H557 C542 0.951 . S
H558 C544 0.951 . S
H559 C545 0.950 . S
H560 C546 0.950 . S
H561 C547 0.950 . S
H562 C549 0.950 . S
H563 C550 0.951 . S
C133 C8 1.600 . S
C143 C118 1.596 . S
C157 C129 1.589 . S
C167 C19 1.576 . S
C181 C74 1.596 . S
C191 C30 1.589 . S
C205 C41 1.598 . S
C215 C85 1.593 . S
C229 C96 1.597 1_556 S
C239 C52 1.589 . S
C253 C63 1.596 1_554 S
C263 C107 1.588 . S
C277 C7 1.642 . S
C287 C95 1.595 . S
C301 C106 1.639 . S
C311 C18 1.609 . S
C325 C29 1.623 . S
C335 C117 1.637 . S
C349 C128 1.633 . S
C359 C40 1.604 . S
C373 C51 1.616 . S
C383 C73 1.644 . S
C397 C62 1.636 . S
C407 C84 1.614 . S
C421 C5 1.335 1_556 S
C431 C126 1.275 . S
C445 C71 1.279 . S
C455 C16 1.389 . S
C469 C27 1.353 . S
C479 C82 1.252 1_554 S
C493 C93 1.292 . S
C503 C38 1.392 . S
C517 C49 1.278 . S
C527 C104 1.394 . S
C541 C115 1.350 . S
C551 C60 1.255 . S
