# Generated by pormake.
# Topology wnj, (7)-cn, num edge types: 1
# Building blocks:
#     Node 0, Type 0, BuildingBlock: OLANEW_clean_sbu_0, # of connection points: 7
#     Node 1, Type 0, BuildingBlock: OLANEW_clean_sbu_0, # of connection points: 7
#     Node 2, Type 0, BuildingBlock: OLANEW_clean_sbu_0, # of connection points: 7
#     Node 3, Type 0, BuildingBlock: OLANEW_clean_sbu_0, # of connection points: 7
#     Node 4, Type 0, BuildingBlock: OLANEW_clean_sbu_0, # of connection points: 7
#     Node 5, Type 0, BuildingBlock: OLANEW_clean_sbu_0, # of connection points: 7
#     Edge 6, Type (0, 0), BuildingBlock: XUDNAN_clean_linker_2, # of connection points: 2
#     Edge 7, Type (0, 0), BuildingBlock: XUDNAN_clean_linker_2, # of connection points: 2
#     Edge 8, Type (0, 0), BuildingBlock: XUDNAN_clean_linker_2, # of connection points: 2
#     Edge 9, Type (0, 0), BuildingBlock: XUDNAN_clean_linker_2, # of connection points: 2
#     Edge 10, Type (0, 0), BuildingBlock: XUDNAN_clean_linker_2, # of connection points: 2
#     Edge 11, Type (0, 0), BuildingBlock: XUDNAN_clean_linker_2, # of connection points: 2
#     Edge 12, Type (0, 0), BuildingBlock: XUDNAN_clean_linker_2, # of connection points: 2
#     Edge 13, Type (0, 0), BuildingBlock: XUDNAN_clean_linker_2, # of connection points: 2
#     Edge 14, Type (0, 0), BuildingBlock: XUDNAN_clean_linker_2, # of connection points: 2
#     Edge 15, Type (0, 0), BuildingBlock: XUDNAN_clean_linker_2, # of connection points: 2
#     Edge 16, Type (0, 0), BuildingBlock: XUDNAN_clean_linker_2, # of connection points: 2
#     Edge 17, Type (0, 0), BuildingBlock: XUDNAN_clean_linker_2, # of connection points: 2
#     Edge 18, Type (0, 0), BuildingBlock: XUDNAN_clean_linker_2, # of connection points: 2
#     Edge 19, Type (0, 0), BuildingBlock: XUDNAN_clean_linker_2, # of connection points: 2
#     Edge 20, Type (0, 0), BuildingBlock: XUDNAN_clean_linker_2, # of connection points: 2
#     Edge 21, Type (0, 0), BuildingBlock: XUDNAN_clean_linker_2, # of connection points: 2
#     Edge 22, Type (0, 0), BuildingBlock: XUDNAN_clean_linker_2, # of connection points: 2
#     Edge 23, Type (0, 0), BuildingBlock: XUDNAN_clean_linker_2, # of connection points: 2
#     Edge 24, Type (0, 0), BuildingBlock: XUDNAN_clean_linker_2, # of connection points: 2
#     Edge 25, Type (0, 0), BuildingBlock: XUDNAN_clean_linker_2, # of connection points: 2
#     Edge 26, Type (0, 0), BuildingBlock: XUDNAN_clean_linker_2, # of connection points: 2
# Relax obj value: 0.274
# Max RMSD: 0.269
# Mean RMSD: 0.269
data_MOF--net-wnj--node1-OLANEW_clean_sbu_0--edge1-XUDNAN_clean_linker_2
_symmetry_space_group_name_H-M    P1
_symmetry_Int_Tables_number       1
_symmetry_cell_setting            triclinic
loop_
_symmetry_equiv_pos_as_xyz
'x, y, z'
_cell_length_a     38.02146
_cell_length_b     37.840957
_cell_length_c     45.667317
_cell_angle_alpha  90.127327
_cell_angle_beta   89.756413
_cell_angle_gamma 120.11527
loop_
_atom_site_label
_atom_site_type_symbol
_atom_site_fract_x
_atom_site_fract_y
_atom_site_fract_z
_atom_type_partial_charge
Cd0 Cd 0.21369 0.58961 0.11559 0.0
C1 C 0.23508 0.67988 0.09315 0.0
C2 C 0.10794 0.47315 0.98112 0.0
O3 O 0.12947 0.47521 0.95791 0.0
Cd4 Cd 0.16679 0.66234 0.15666 0.0
C5 C 0.07901 0.43395 -0.00492 0.0
C6 C 1.02082 0.36874 0.02857 0.0
C7 C 0.03135 0.40913 0.03455 0.0
N8 N 0.05952 0.43863 0.01775 0.0
C9 C 0.06994 0.39436 0.9877 0.0
C10 C 0.04051 0.36155 0.00482 0.0
Co11 Co 0.07392 0.49117 0.02731 0.0
C12 C 1.01682 0.42506 0.05835 0.0
O13 O 0.99153 0.40125 0.07872 0.0
C14 C 0.0311 0.48767 0.08467 0.0
C15 C 0.06436 0.50736 0.10297 0.0
C16 C 0.06621 0.53429 0.12433 0.0
C17 C 0.03083 0.53615 0.13084 0.0
C18 C 0.99441 0.51299 0.11475 0.0
C19 C 0.99534 0.48925 0.09089 0.0
C20 C 0.1069 0.56556 0.13495 0.0
C21 C 0.13522 0.54775 0.98193 0.0
C22 C 0.17761 0.56525 0.98251 0.0
C23 C 0.11843 0.56867 0.9678 0.0
C24 C 0.14336 0.60636 0.95469 0.0
C25 C 0.18537 0.6233 0.95477 0.0
C26 C 0.2032 0.60246 0.96796 0.0
N27 N 0.10953 0.50712 -0.0068 0.0
N28 N 0.03491 0.4667 0.05967 0.0
N29 N 0.12007 0.5001 0.05125 0.0
C30 C 0.13257 0.4709 0.05723 0.0
C31 C 0.1662 0.47331 0.0427 0.0
C32 C 0.11292 0.44169 0.07917 0.0
C33 C 0.18049 0.44668 0.05001 0.0
H34 H 0.18138 0.49631 0.02596 0.0
C35 C 0.16059 0.41758 0.07225 0.0
C36 C 0.12683 0.41495 0.08704 0.0
C37 C 0.21653 0.44965 0.03486 0.0
H38 H 0.08741 0.44054 0.09062 0.0
H39 H 0.17158 0.39713 0.07822 0.0
C40 C 0.10674 0.38497 0.11109 0.0
O41 O 0.23101 0.42497 0.04276 0.0
O42 O 0.2334 0.4745 0.01519 0.0
O43 O 0.07711 0.38244 0.12369 0.0
O44 O 0.12124 0.36045 0.11938 0.0
H45 H 0.25453 0.42648 0.03325 0.0
H46 H 0.10874 0.34087 0.1351 0.0
N47 N 0.08861 0.54384 0.0369 0.0
C48 C 0.0661 0.55809 0.02511 0.0
C49 C 0.08055 0.60012 0.02675 0.0
C50 C 0.11849 0.62513 0.04048 0.0
C51 C 0.14135 0.6081 0.05174 0.0
C52 C 0.12512 0.56592 0.04942 0.0
N53 N 0.03133 0.49071 0.00408 0.0
C54 C 0.03213 0.5271 0.00733 0.0
O55 O 1.00868 0.53613 -0.00822 0.0
C56 C 0.14379 0.54104 0.05757 0.0
O57 O 0.24401 0.54424 0.13034 0.0
O58 O 0.28306 0.60959 0.12968 0.0
C59 C 1.00834 0.46169 0.98162 0.0
C60 C 0.96892 0.43002 0.98772 0.0
C61 C 0.9447 0.40456 0.9651 0.0
C62 C 0.95981 0.41064 0.93639 0.0
C63 C 0.99903 0.44246 0.92972 0.0
C64 C 1.02344 0.4674 0.95275 0.0
O65 O 0.24505 0.6533 0.087 0.0
O66 O 0.21174 0.67384 0.11486 0.0
O67 O 0.13862 0.56484 0.12575 0.0
O68 O 0.10969 0.59706 0.14713 0.0
O69 O 0.18285 0.55773 0.06705 0.0
C70 C 0.21848 0.63608 0.18392 0.0
O71 O 0.20114 0.6528 0.19695 0.0
O72 O 0.20335 0.61849 0.15974 0.0
C73 C 0.2795 0.5749 0.13448 0.0
H74 H 0.99854 0.34371 0.04177 0.0
H75 H 0.08499 0.38888 0.96955 0.0
H76 H 0.03303 0.33061 -0.00027 0.0
H77 H 0.09018 0.50354 0.09935 0.0
H78 H 0.03201 0.55608 0.14832 0.0
H79 H 0.96906 0.47297 0.0769 0.0
H80 H 0.19023 0.5488 -0.00661 0.0
H81 H 0.08615 0.5558 0.96585 0.0
H82 H 0.20328 0.65148 0.94284 0.0
H83 H 0.06413 0.61343 0.01676 0.0
H84 H 0.13074 0.65781 0.04161 0.0
H85 H 0.17089 0.62729 0.06117 0.0
H86 H 0.9567 0.42638 0.0097 0.0
H87 H 0.93974 0.39196 0.91896 0.0
H88 H 0.05372 0.49196 0.948 0.0
Cd89 Cd 0.45977 0.63991 0.77942 0.0
C90 C 0.36919 0.57984 0.73948 0.0
C91 C 0.57925 0.64355 0.64596 0.0
O92 O 0.57924 0.66285 0.62205 0.0
Cd93 Cd 0.40948 0.56626 0.79198 0.0
C94 C 0.61712 0.65288 0.66101 0.0
C95 C 0.67952 0.65676 0.69559 0.0
C96 C 0.63859 0.6291 0.70162 0.0
N97 N 0.61046 0.62936 0.6844 0.0
C98 C 0.65734 0.68118 0.65348 0.0
C99 C 0.68872 0.68305 0.67119 0.0
Co100 Co 0.55731 0.59153 0.69247 0.0
C101 C 0.62085 0.59853 0.72521 0.0
O102 O 0.64307 0.59608 0.74621 0.0
C103 C 0.55697 0.55246 0.75059 0.0
C104 C 0.53994 0.56871 0.76913 0.0
C105 C 0.5104 0.54436 0.78952 0.0
C106 C 0.5044 0.50506 0.79573 0.0
C107 C 0.52663 0.49019 0.78013 0.0
C108 C 0.55146 0.51353 0.75642 0.0
C109 C 0.4803 0.557 0.79666 0.0
C110 C 0.50473 0.59984 0.64578 0.0
C111 C 0.49176 0.62843 0.64402 0.0
C112 C 0.48222 0.56221 0.63155 0.0
C113 C 0.44792 0.55378 0.61541 0.0
C114 C 0.43641 0.5832 0.61239 0.0
C115 C 0.45918 0.62189 0.62576 0.0
N116 N 0.54418 0.6122 0.65774 0.0
N117 N 0.57929 0.57607 0.72562 0.0
N118 N 0.54752 0.62898 0.71609 0.0
C119 C 0.57628 0.67087 0.72265 0.0
C120 C 0.57234 0.70233 0.70989 0.0
C121 C 0.606 0.68031 0.74398 0.0
C122 C 0.59774 0.74317 0.71838 0.0
H123 H 0.54887 0.69474 0.69379 0.0
C124 C 0.62716 0.75212 0.7401 0.0
C125 C 0.6314 0.72083 0.75312 0.0
C126 C 0.59302 0.77634 0.70511 0.0
H127 H 0.60842 0.65592 0.75422 0.0
H128 H 0.64657 0.78345 0.74705 0.0
C129 C 0.66147 0.73035 0.77685 0.0
O130 O 0.61606 0.81524 0.71452 0.0
O131 O 0.56821 0.76869 0.68565 0.0
O132 O 0.66541 0.70315 0.78794 0.0
O133 O 0.68446 0.76911 0.78654 0.0
H134 H 0.61339 0.8373 0.70624 0.0
H135 H 0.70401 0.77592 0.80212 0.0
N136 N 0.50427 0.55369 0.70063 0.0
C137 C 0.49035 0.51672 0.68882 0.0
C138 C 0.44857 0.4889 0.69034 0.0
C139 C 0.42345 0.50174 0.70413 0.0
C140 C 0.44022 0.54172 0.71561 0.0
C141 C 0.48212 0.5679 0.71338 0.0
N142 N 0.55815 0.54902 0.66923 0.0
C143 C 0.52161 0.51356 0.67158 0.0
O144 O 0.51302 0.48109 0.65583 0.0
C145 C 0.50655 0.61143 0.72208 0.0
O146 O 0.51637 0.71365 0.78679 0.0
O147 O 0.45489 0.70205 0.78575 0.0
C148 C 0.58784 0.55556 0.64722 0.0
C149 C 0.62268 0.55427 0.65519 0.0
C150 C 0.65305 0.56304 0.63445 0.0
C151 C 0.64828 0.57243 0.60564 0.0
C152 C 0.61332 0.57301 0.59698 0.0
C153 C 0.58275 0.56414 0.6179 0.0
O154 O 0.39844 0.61511 0.74632 0.0
O155 O 0.36398 0.54845 0.75302 0.0
O156 O 0.49019 0.59456 0.79261 0.0
O157 O 0.44318 0.52973 0.79743 0.0
O158 O 0.48927 0.63367 0.73108 0.0
C159 C 0.40165 0.60622 0.84543 0.0
O160 O 0.38162 0.56963 0.83672 0.0
O161 O 0.42956 0.63293 0.82923 0.0
C162 C 0.49216 0.72758 0.78971 0.0
H163 H 0.70347 0.65797 0.70902 0.0
H164 H 0.66436 0.70089 0.63461 0.0
H165 H 0.72013 0.70465 0.66592 0.0
H166 H 0.54663 0.5995 0.76542 0.0
H167 H 0.48168 0.4857 0.81166 0.0
H168 H 0.56643 0.50164 0.74266 0.0
H169 H 0.50915 0.65675 0.6557 0.0
H170 H 0.49186 0.53995 0.63141 0.0
H171 H 0.41118 0.57584 0.59804 0.0
H172 H 0.43556 0.45899 0.68037 0.0
H173 H 0.39095 0.48111 0.70526 0.0
H174 H 0.42119 0.552 0.72533 0.0
H175 H 0.62616 0.54675 0.67747 0.0
H176 H 0.6717 0.57833 0.58955 0.0
H177 H 0.55593 0.56512 0.61158 0.0
Cd178 Cd 0.4007 0.82338 0.43958 0.0
C179 C 0.48656 0.81044 0.41865 0.0
C180 C 0.4006 0.94335 0.3079 0.0
O181 O 0.38275 0.92626 0.28306 0.0
Cd182 Cd 0.51337 0.86249 0.48637 0.0
C183 C 0.3912 0.97145 0.32402 0.0
C184 C 0.38603 0.0278 0.36096 0.0
C185 C 0.41321 1.0139 0.36643 0.0
N186 N 0.41377 0.98679 0.34799 0.0
C187 C 0.36337 0.98406 0.31708 0.0
C188 C 0.36088 1.0125 0.33595 0.0
Co189 Co 0.45002 0.96966 0.35596 0.0
C190 C 0.44235 0.02473 0.39067 0.0
O191 O 0.44433 0.04867 0.41229 0.0
C192 C 0.48867 1.00664 0.41525 0.0
C193 C 0.47581 0.97111 0.43125 0.0
C194 C 0.49875 0.96924 0.4541 0.0
C195 C 0.5332 1.00563 0.46362 0.0
C196 C 0.54497 0.0436 0.45 0.0
C197 C 0.52303 0.04347 0.42487 0.0
C198 C 0.48934 0.92846 0.46489 0.0
C199 C 0.44495 0.91293 0.30608 0.0
C200 C 0.41788 0.87122 0.30062 0.0
C201 C 0.48509 0.93025 0.29581 0.0
C202 C 0.49914 0.90625 0.28297 0.0
C203 C 0.4728 0.86474 0.27881 0.0
C204 C 0.43172 0.84735 0.28644 0.0
N205 N 0.43084 0.93812 0.31962 0.0
N206 N 0.46428 1.00504 0.39068 0.0
N207 N 0.41058 0.92122 0.37737 0.0
C208 C 0.36997 0.91054 0.3853 0.0
C209 C 0.33683 0.87818 0.37117 0.0
C210 C 0.36339 0.9299 0.40905 0.0
C211 C 0.29691 0.86491 0.38071 0.0
H212 H 0.34248 0.86302 0.35311 0.0
C213 C 0.29069 0.88486 0.4045 0.0
C214 C 0.32379 0.9174 0.41884 0.0
C215 C 0.26179 0.82972 0.36635 0.0
H216 H 0.38923 0.95389 0.42045 0.0
H217 H 0.26004 0.87479 0.41206 0.0
C218 C 0.31707 0.93764 0.44442 0.0
O219 O 0.22365 0.81607 0.37645 0.0
O220 O 0.26713 0.81272 0.34543 0.0
O221 O 0.34591 0.96623 0.45662 0.0
O222 O 0.27901 0.92451 0.45446 0.0
H223 H 0.20035 0.79306 0.36752 0.0
H224 H 0.27398 0.93718 0.47115 0.0
N225 N 0.48602 0.95225 0.36404 0.0
C226 C 0.52381 0.97583 0.35393 0.0
C227 C 0.55014 0.96002 0.35433 0.0
C228 C 0.53499 0.91985 0.36511 0.0
C229 C 0.49426 0.89629 0.37494 0.0
C230 C 0.46969 0.91397 0.37414 0.0
N231 N 0.49428 1.01435 0.33503 0.0
C232 C 0.52913 1.01257 0.33844 0.0
O233 O 0.56289 0.03758 0.32445 0.0
C234 C 0.42599 0.89567 0.38192 0.0
O235 O 0.32764 0.80065 0.45429 0.0
O236 O 0.33858 0.75862 0.42898 0.0
C237 C 0.49005 0.04058 0.31439 0.0
C238 C 0.49065 0.07586 0.3245 0.0
C239 C 0.4852 0.10091 0.30483 0.0
C240 C 0.47973 0.09102 0.27506 0.0
C241 C 0.48264 0.05802 0.26398 0.0
C242 C 0.48655 0.03192 0.28401 0.0
O243 O 0.44922 0.80171 0.41736 0.0
O244 O 0.51039 0.83175 0.43933 0.0
O245 O 0.45809 0.89596 0.45497 0.0
O246 O 0.51714 0.92611 0.4786 0.0
O247 O 0.40243 0.85643 0.39125 0.0
C248 C 0.41675 0.79945 0.49891 0.0
O249 O 0.44504 0.8281 0.48507 0.0
O250 O 0.38263 0.78436 0.48715 0.0
C251 C 0.31376 0.76443 0.44434 0.0
H252 H 0.38424 0.04962 0.37534 0.0
H253 H 0.34437 0.97259 0.29784 0.0
H254 H 0.3396 0.02276 0.33114 0.0
H255 H 0.44772 0.94431 0.42564 0.0
H256 H 0.55094 1.00444 0.4817 0.0
H257 H 0.53161 0.07175 0.41348 0.0
H258 H 0.38603 0.85789 0.30635 0.0
H259 H 0.50567 0.96249 0.29653 0.0
H260 H 0.48384 0.84692 0.26762 0.0
H261 H 0.58058 0.97715 0.34536 0.0
H262 H 0.5544 0.90655 0.36504 0.0
H263 H 0.48223 0.86517 0.38202 0.0
H264 H 0.49597 0.08405 0.34746 0.0
H265 H 0.47591 0.11112 0.26014 0.0
H266 H 0.4882 1.00596 0.27596 0.0
Cd267 Cd 0.58887 0.20476 0.86488 0.0
C268 C 0.68478 0.231 0.88887 0.0
C269 C 0.47682 0.09022 0.002 0.0
O270 O 0.47734 0.10763 0.02707 0.0
Cd271 Cd 0.66294 0.16768 0.82398 0.0
C272 C 0.4382 0.06099 0.98785 0.0
C273 C 0.37375 1.00144 0.95483 0.0
C274 C 0.41429 1.01545 0.94717 0.0
N275 N 0.44347 0.04425 0.96378 0.0
C276 C 0.3984 0.04829 -0.00303 0.0
C277 C 0.36599 1.01827 0.98006 0.0
Co278 Co 0.49603 0.06051 0.95345 0.0
C279 C 0.43044 1.00287 0.92238 0.0
O280 O 0.40678 0.97756 0.90203 0.0
C281 C 0.49249 0.02088 0.89432 0.0
C282 C 0.50882 0.05449 0.87603 0.0
C283 C 0.53623 0.05933 0.85408 0.0
C284 C 0.54132 0.02598 0.84667 0.0
C285 C 0.52083 0.98874 0.86241 0.0
C286 C 0.49707 0.98697 0.88711 0.0
C287 C 0.56518 0.10148 0.84443 0.0
C288 C 0.55193 0.12145 0.00103 0.0
C289 C 0.56331 0.16056 0.01257 0.0
C290 C 0.5788 0.10662 0.00511 0.0
C291 C 0.61686 0.13052 0.01763 0.0
C292 C 0.6282 0.16914 0.02811 0.0
C293 C 0.60068 0.18343 0.02732 0.0
N294 N 0.51168 0.09519 0.98887 0.0
N295 N 0.4719 0.02257 0.92032 0.0
N296 N 0.50359 0.10747 0.93077 0.0
C297 C 0.47408 0.11983 0.92611 0.0
C298 C 0.47764 0.15408 0.94064 0.0
C299 C 0.44392 0.10002 0.90492 0.0
C300 C 0.45144 0.16903 0.93386 0.0
H301 H 0.50138 0.16932 0.95682 0.0
C302 C 0.42162 0.14915 0.9122 0.0
C303 C 0.41773 0.11467 0.89752 0.0
C304 C 0.45574 0.20589 0.94879 0.0
H305 H 0.44174 0.07395 0.8935 0.0
H306 H 0.4016 0.16073 0.90659 0.0
C307 C 0.38721 0.09479 0.8739 0.0
O308 O 0.43173 0.2212 0.94115 0.0
O309 O 0.48111 0.22272 0.96802 0.0
O310 O 0.38346 0.06443 0.86148 0.0
O311 O 0.3636 0.11036 0.86575 0.0
H312 H 0.43412 0.24528 0.95051 0.0
H313 H 0.34376 0.09806 0.85026 0.0
N314 N 0.54809 0.0762 0.94255 0.0
C315 C 0.56111 0.05039 0.94929 0.0
C316 C 0.60134 0.06195 0.94225 0.0
C317 C 0.62532 0.09976 0.92768 0.0
C318 C 0.60906 0.12517 0.92064 0.0
C319 C 0.56886 0.112 0.92868 0.0
N320 N 0.49691 1.01678 0.97478 0.0
C321 C 0.53143 1.01573 0.96761 0.0
O322 O 0.54105 0.9909 0.98078 0.0
C323 C 0.54378 0.13111 0.92268 0.0
O324 O 0.54235 0.22148 0.83751 0.0
O325 O 0.58441 0.2691 0.86615 0.0
C326 C 0.47154 0.99602 -0.0004 0.0
C327 C 0.4339 0.96059 -0.00463 0.0
C328 C 0.4074 0.94253 0.0191 0.0
C329 C 0.41875 0.95979 0.04711 0.0
C330 C 0.457 0.9942 0.05218 0.0
C331 C 0.48335 1.01215 0.02805 0.0
O332 O 0.65471 0.2371 0.88967 0.0
O333 O 0.68827 0.20866 0.86941 0.0
O334 O 0.56095 0.13073 0.85468 0.0
O335 O 0.59819 0.10806 0.83259 0.0
O336 O 0.55989 0.17041 0.91338 0.0
C337 C 0.64509 0.22632 0.80036 0.0
O338 O 0.66275 0.21149 0.78553 0.0
O339 O 0.62458 0.20573 0.82222 0.0
C340 C 0.55662 0.25774 0.84703 0.0
H341 H 0.34902 0.97832 0.94197 0.0
H342 H 0.39246 0.06079 0.01646 0.0
H343 H 0.33492 1.00789 0.98659 0.0
H344 H 0.50262 0.07872 0.88054 0.0
H345 H 0.5616 0.02938 0.8288 0.0
H346 H 0.48306 0.96007 0.9009 0.0
H347 H 0.5424 0.17209 0.01164 0.0
H348 H 0.56994 0.0756 0.00101 0.0
H349 H 0.65717 0.18641 0.03911 0.0
H350 H 0.61409 0.04306 0.94825 0.0
H351 H 0.65652 0.10945 0.92197 0.0
H352 H 0.6271 0.15364 0.90915 0.0
H353 H 0.42514 0.9475 0.97366 0.0
H354 H 0.39754 0.94572 0.0651 0.0
H355 H 0.51295 0.03866 0.0313 0.0
Cd356 Cd 0.8336 0.40155 0.52796 0.0
C357 C 0.81435 0.47407 0.55251 0.0
C358 C 0.93946 0.38854 0.66609 0.0
O359 O 0.92262 0.372 0.69137 0.0
Cd360 Cd 0.88072 0.52003 0.48777 0.0
C361 C 0.96777 0.37834 0.65132 0.0
C362 C 0.027 0.37324 0.61802 0.0
C363 C 1.0138 0.40062 0.61096 0.0
N364 N 0.98497 0.40094 0.62757 0.0
C365 C 0.97966 0.35037 0.65986 0.0
C366 C 1.00946 0.34782 0.64276 0.0
Co367 Co 0.97064 0.43922 0.61852 0.0
C368 C 0.02754 0.4306 0.58696 0.0
O369 O 0.05348 0.43297 0.56684 0.0
C370 C 1.0136 0.47918 0.56102 0.0
C371 C 0.98078 0.46766 0.54282 0.0
C372 C 0.98113 0.49371 0.52129 0.0
C373 C 1.01835 0.52966 0.51437 0.0
C374 C 0.05444 0.53916 0.52968 0.0
C375 C 0.05094 0.51442 0.55418 0.0
C376 C 0.94106 0.48498 0.50997 0.0
C377 C 0.91083 0.43478 0.66666 0.0
C378 C 0.87168 0.40769 0.67803 0.0
C379 C 0.92694 0.47672 0.67169 0.0
C380 C 0.90367 0.49185 0.68405 0.0
C381 C 0.86457 0.46514 0.69381 0.0
C382 C 0.8496 0.42303 0.69294 0.0
N383 N 0.93573 0.41964 0.65373 0.0
N384 N 1.00864 0.4532 0.58549 0.0
N385 N 0.92393 0.40206 0.59505 0.0
C386 C 0.91153 0.36047 0.58841 0.0
C387 C 0.87833 0.32865 0.60297 0.0
C388 C 0.93179 0.3517 0.56651 0.0
C389 C 0.86517 0.28774 0.59574 0.0
H390 H 0.86285 0.33603 0.61979 0.0
C391 C 0.88588 0.27928 0.57369 0.0
C392 C 0.91924 0.31111 0.55891 0.0
C393 C 0.82968 0.25386 0.61092 0.0
H394 H 0.95693 0.37662 0.55506 0.0
H395 H 0.87592 0.24786 0.56792 0.0
C396 C 0.94057 0.30199 0.53536 0.0
O397 O 0.81657 0.21468 0.60329 0.0
O398 O 0.81201 0.26116 0.63035 0.0
O399 O 0.96993 0.32974 0.52286 0.0
O400 O 0.92761 0.26292 0.52749 0.0
H401 H 0.79344 0.19213 0.61283 0.0
H402 H 0.94101 0.25633 0.51214 0.0
N403 N 0.95696 0.47762 0.60901 0.0
C404 C 0.98338 0.51597 0.61688 0.0
C405 C 0.97286 0.54591 0.61158 0.0
C406 C 0.93538 0.53382 0.59743 0.0
C407 C 0.90939 0.49264 0.58904 0.0
C408 C 0.92151 0.46426 0.59537 0.0
N409 N 1.01441 0.48194 0.64071 0.0
C410 C 1.01718 0.51874 0.63472 0.0
O411 O 0.04267 0.55231 0.64872 0.0
C412 C 0.90164 0.42027 0.58772 0.0
O413 O 0.80716 0.33248 0.50184 0.0
O414 O 0.76595 0.33855 0.5311 0.0
C415 C 0.03501 0.4754 0.66444 0.0
C416 C 0.07315 0.47941 0.65953 0.0
C417 C 0.09469 0.47559 0.68291 0.0
C418 C 0.07631 0.46411 0.71063 0.0
C419 C 0.03919 0.46201 0.71621 0.0
C420 C 1.01864 0.46806 0.69302 0.0
O421 O 0.80403 0.43659 0.55513 0.0
O422 O 0.83754 0.49568 0.5317 0.0
O423 O 0.90874 0.45265 0.51887 0.0
O424 O 0.93908 0.51355 0.49699 0.0
O425 O 0.86351 0.39897 0.5765 0.0
C426 C 0.82393 0.44219 0.46052 0.0
O427 O 0.8408 0.47688 0.44835 0.0
O428 O 0.83769 0.43946 0.48507 0.0
C429 C 0.77182 0.31611 0.51337 0.0
H430 H 0.05013 0.37168 0.60511 0.0
H431 H 0.96679 0.33147 0.6791 0.0
H432 H 1.01924 0.32648 0.64885 0.0
H433 H 0.95396 0.43848 0.54633 0.0
H434 H 1.01942 0.54922 0.4967 0.0
H435 H 0.07726 0.52192 0.56753 0.0
H436 H 0.85949 0.37498 0.67697 0.0
H437 H 0.95834 0.49808 0.66856 0.0
H438 H 0.84791 0.47746 0.70504 0.0
H439 H 0.9922 0.57714 0.61869 0.0
H440 H 0.92637 0.55627 0.59312 0.0
H441 H 0.88119 0.48351 0.57797 0.0
H442 H 0.08716 0.48859 0.63809 0.0
H443 H 0.09345 0.46205 0.72886 0.0
H444 H 0.99091 0.46847 0.69744 0.0
Cd445 Cd 0.64006 0.44489 0.19633 0.0
C446 C 0.56955 0.3515 0.22125 0.0
C447 C 0.64767 0.55466 0.33854 0.0
O448 O 0.66393 0.55176 0.36312 0.0
Cd449 Cd 0.52566 0.37528 0.15697 0.0
C450 C 0.65929 0.59448 0.32515 0.0
C451 C 0.66763 0.66159 0.29359 0.0
C452 C 0.63992 0.62146 0.28527 0.0
N453 N 0.63788 0.59096 0.3012 0.0
C454 C 0.6875 0.63374 0.33492 0.0
C455 C 0.69163 0.66752 0.31873 0.0
Co456 Co 0.59947 0.539 0.2904 0.0
C457 C 0.61128 0.60696 0.26056 0.0
O458 O 0.61064 0.63201 0.24094 0.0
C459 C 0.56311 0.54598 0.23279 0.0
C460 C 0.57456 0.52498 0.21398 0.0
C461 C 0.54963 0.50151 0.19113 0.0
C462 C 0.51493 0.5047 0.18405 0.0
C463 C 0.50563 0.53088 0.20052 0.0
C464 C 0.52909 0.54967 0.22594 0.0
C465 C 0.55796 0.47012 0.17872 0.0
C466 C 0.59988 0.48021 0.3362 0.0
C467 C 0.62534 0.46385 0.34145 0.0
C468 C 0.5591 0.45779 0.34521 0.0
C469 C 0.54312 0.41879 0.35702 0.0
C470 C 0.56809 0.40227 0.36139 0.0
C471 C 0.60962 0.42535 0.35482 0.0
N472 N 0.61651 0.5212 0.32503 0.0
N473 N 0.58802 0.56543 0.25792 0.0
N474 N 0.63707 0.52959 0.26699 0.0
C475 C 0.67844 0.55896 0.26017 0.0
C476 C 0.71023 0.55725 0.27413 0.0
C477 C 0.68706 0.58785 0.23816 0.0
C478 C 0.75087 0.58441 0.26617 0.0
H479 H 0.70303 0.53445 0.29097 0.0
C480 C 0.75911 0.61325 0.24393 0.0
C481 C 0.72735 0.61515 0.22974 0.0
C482 C 0.78468 0.58239 0.28069 0.0
H483 H 0.66227 0.58842 0.22711 0.0
H484 H 0.7903 0.63413 0.23752 0.0
C485 C 0.73622 0.64504 0.20581 0.0
O486 O 0.82353 0.60762 0.27216 0.0
O487 O 0.77765 0.55786 0.30039 0.0
O488 O 0.70854 0.64699 0.19381 0.0
O489 O 0.77494 0.6702 0.19702 0.0
H490 H 0.84603 0.60675 0.28126 0.0
H491 H 0.78135 0.68976 0.18139 0.0
N492 N 0.56114 0.48726 0.27945 0.0
C493 C 0.52311 0.4745 0.28829 0.0
C494 C 0.49361 0.43377 0.28295 0.0
C495 C 0.50587 0.40867 0.26828 0.0
C496 C 0.54682 0.42435 0.25954 0.0
C497 C 0.57475 0.46516 0.26576 0.0
N498 N 0.55613 0.53972 0.31243 0.0
C499 C 0.51987 0.50525 0.30638 0.0
O500 O 0.48596 0.49716 0.31977 0.0
C501 C 0.61879 0.48914 0.25878 0.0
O502 O 0.71274 0.49831 0.18417 0.0
O503 O 0.69837 0.43581 0.17997 0.0
C504 C 0.56112 0.56835 0.33497 0.0
C505 C 0.55788 0.60261 0.32782 0.0
C506 C 0.56525 0.63213 0.34914 0.0
C507 C 0.57531 0.62702 0.37766 0.0
C508 C 0.57795 0.59267 0.3854 0.0
C509 C 0.57036 0.56294 0.36399 0.0
O510 O 0.60664 0.37988 0.22277 0.0
O511 O 0.54579 0.35142 0.20147 0.0
O512 O 0.58972 0.46929 0.18735 0.0
O513 O 0.52932 0.43965 0.16575 0.0
O514 O 0.63989 0.47211 0.2471 0.0
C515 C 0.6012 0.39491 0.12935 0.0
O516 O 0.56765 0.37841 0.11594 0.0
O517 O 0.60301 0.41356 0.15287 0.0
C518 C 0.72498 0.4734 0.17778 0.0
H519 H 0.67052 0.68737 0.28133 0.0
H520 H 0.7054 0.63828 0.3544 0.0
H521 H 0.71317 0.69824 0.32578 0.0
H522 H 0.60273 0.52573 0.21797 0.0
H523 H 0.49616 0.48792 0.16557 0.0
H524 H 0.52156 0.56794 0.24011 0.0
H525 H 0.65759 0.48199 0.33673 0.0
H526 H 0.53977 0.4708 0.34485 0.0
H527 H 0.5556 0.37274 0.37191 0.0
H528 H 0.4626 0.42145 0.29045 0.0
H529 H 0.48378 0.37698 0.26401 0.0
H530 H 0.5562 0.40529 0.24851 0.0
H531 H 0.5505 0.6066 0.30563 0.0
H532 H 0.58106 0.65008 0.39408 0.0
H533 H 0.57288 0.53657 0.36964 0.0
H534 H 0.29707 0.712 0.05239 0.0
H535 H 0.20495 0.73155 0.09325 0.0
H536 H 0.23059 0.79591 0.06619 0.0
H537 H 0.37487 0.80775 0.05921 0.0
H538 H 0.39935 0.81121 0.02457 0.0
H539 H 0.36775 0.76221 0.04109 0.0
H540 H 0.32491 0.73786 -0.00623 0.0
H541 H 0.35579 0.78741 0.97726 0.0
H542 H 0.30148 0.76563 0.97985 0.0
H543 H 0.27231 0.86242 0.04336 0.0
H544 H 0.33171 0.92912 0.03075 0.0
H545 H 0.39801 0.86906 0.00406 0.0
C546 C 0.28163 0.72932 0.05491 0.0
C547 C 0.24899 0.71676 0.07489 0.0
C548 C 0.23005 0.74058 0.07811 0.0
C549 C 0.24406 0.77698 0.06252 0.0
C550 C 0.27685 0.78912 0.0435 0.0
C551 C 0.29549 0.76605 0.03955 0.0
C552 C 0.33395 0.7891 0.02137 0.0
C553 C 0.37114 0.79281 0.03756 0.0
C554 C 0.3287 0.76879 -0.00873 0.0
C555 C 0.33607 0.83005 0.01838 0.0
C556 C 0.30176 0.82867 0.03008 0.0
C557 C 0.29879 0.86372 0.03336 0.0
C558 C 0.33256 0.90145 0.02611 0.0
C559 C 0.36884 0.90373 0.01609 0.0
C560 C 0.36995 0.8676 0.01074 0.0
H561 H 0.31332 0.60167 0.74854 0.0
H562 H 0.35303 0.54287 0.68605 0.0
H563 H 0.28872 0.51766 0.65845 0.0
H564 H 0.22041 0.5201 0.75539 0.0
H565 H 0.1931 0.54704 0.7612 0.0
H566 H 0.2459 0.57087 0.77071 0.0
H567 H 0.26284 0.63271 0.73714 0.0
H568 H 0.20969 0.60957 0.72819 0.0
H569 H 0.24698 0.62405 0.69937 0.0
H570 H 0.21465 0.48813 0.64363 0.0
H571 H 0.13945 0.4583 0.6434 0.0
H572 H 0.14949 0.53415 0.71773 0.0
C573 C 0.30928 0.58551 0.72808 0.0
C574 C 0.33811 0.57517 0.71866 0.0
C575 C 0.33132 0.55184 0.69292 0.0
C576 C 0.29494 0.53739 0.67724 0.0
C577 C 0.26576 0.54615 0.68803 0.0
C578 C 0.2728 0.56999 0.71284 0.0
C579 C 0.2346 0.56881 0.72338 0.0
C580 C 0.22285 0.55063 0.75449 0.0
C581 C 0.2388 0.61133 0.72191 0.0
C582 C 0.2049 0.54031 0.70101 0.0
C583 C 0.2231 0.5277 0.6805 0.0
C584 C 0.20025 0.49838 0.6593 0.0
C585 C 0.15775 0.48147 0.65936 0.0
C586 C 0.13906 0.49359 0.68085 0.0
C587 C 0.16313 0.52399 0.7013 0.0
H588 H 0.44796 0.74308 0.38219 0.0
H589 H 0.56606 0.84653 0.40339 0.0
H590 H 0.59926 0.81783 0.37354 0.0
H591 H 0.46686 0.67014 0.39009 0.0
H592 H 0.44098 0.63841 0.35892 0.0
H593 H 0.42539 0.67261 0.37305 0.0
H594 H 0.43625 0.7063 0.32195 0.0
H595 H 0.45193 0.67182 0.30763 0.0
H596 H 0.4847 0.7262 0.3038 0.0
H597 H 0.62042 0.77135 0.35533 0.0
H598 H 0.62704 0.7102 0.34961 0.0
H599 H 0.49707 0.63572 0.33772 0.0
C600 C 0.48063 0.76039 0.37937 0.0
C601 C 0.50438 0.79666 0.39545 0.0
C602 C 0.54717 0.81833 0.39166 0.0
C603 C 0.56641 0.80254 0.37436 0.0
C604 C 0.54254 0.76541 0.36028 0.0
C605 C 0.50046 0.74493 0.36189 0.0
C606 C 0.48258 0.70283 0.34814 0.0
C607 C 0.45224 0.66905 0.36882 0.0
C608 C 0.46268 0.70172 0.31864 0.0
C609 C 0.52094 0.70055 0.34328 0.0
C610 C 0.5553 0.73794 0.34874 0.0
C611 C 0.59398 0.74237 0.34983 0.0
C612 C 0.59753 0.70754 0.34661 0.0
C613 C 0.56261 0.6688 0.34264 0.0
C614 C 0.52416 0.66546 0.33965 0.0
H615 H 0.72591 0.31085 0.90552 0.0
H616 H 0.71598 0.19338 0.92115 0.0
H617 H 0.775 0.22581 0.9544 0.0
H618 H 0.82733 0.36173 0.89638 0.0
H619 H 0.83753 0.4092 0.91298 0.0
H620 H 0.78851 0.37581 0.89747 0.0
H621 H 0.75452 0.37443 0.9472 0.0
H622 H 0.80382 0.40766 0.96292 0.0
H623 H 0.76986 0.35928 0.97993 0.0
H624 H 0.84146 0.27119 0.97723 0.0
H625 H 0.91271 0.32642 0.98425 0.0
H626 H 0.88145 0.41497 0.95314 0.0
C627 C 0.73537 0.29197 0.91695 0.0
C628 C 0.71648 0.24976 0.91128 0.0
C629 C 0.73025 0.22585 0.9255 0.0
C630 C 0.76341 0.24394 0.9446 0.0
C631 C 0.78252 0.286 0.94909 0.0
C632 C 0.76905 0.3098 0.93561 0.0
C633 C 0.79907 0.35486 0.93964 0.0
C634 C 0.81399 0.37663 0.90986 0.0
C635 C 0.78071 0.37524 0.95856 0.0
C636 C 0.83254 0.35262 0.95586 0.0
C637 C 0.82186 0.31267 0.96201 0.0
C638 C 0.84979 0.30265 0.97341 0.0
C639 C 0.89006 0.33405 0.97743 0.0
C640 C 0.90168 0.37458 0.96986 0.0
C641 C 0.87243 0.38418 0.96003 0.0
H642 H 0.75048 0.43872 0.59181 0.0
H643 H 0.85102 0.55531 0.56339 0.0
H644 H 0.82891 0.59096 0.59697 0.0
H645 H 0.67892 0.46267 0.59085 0.0
H646 H 0.65146 0.43645 0.62353 0.0
H647 H 0.68182 0.4196 0.60474 0.0
H648 H 0.72124 0.42763 0.65282 0.0
H649 H 0.69119 0.44549 0.67154 0.0
H650 H 0.74585 0.47611 0.67149 0.0
H651 H 0.78951 0.61477 0.62278 0.0
H652 H 0.73126 0.62415 0.63346 0.0
H653 H 0.6546 0.49408 0.64652 0.0
C654 C 0.76845 0.47166 0.59348 0.0
C655 C 0.80228 0.49425 0.57489 0.0
C656 C 0.82475 0.53734 0.57721 0.0
C657 C 0.81285 0.55791 0.59665 0.0
C658 C 0.77861 0.53509 0.61402 0.0
C659 C 0.75668 0.49282 0.6128 0.0
C660 C 0.71719 0.47623 0.62986 0.0
C661 C 0.68021 0.4471 0.61109 0.0
C662 C 0.71899 0.45512 0.65809 0.0
C663 C 0.71783 0.51574 0.637 0.0
C664 C 0.75481 0.54936 0.6294 0.0
C665 C 0.76094 0.58892 0.62977 0.0
C666 C 0.72779 0.59408 0.63594 0.0
C667 C 0.68904 0.5598 0.64118 0.0
C668 C 0.6845 0.52062 0.64357 0.0
H669 H 0.60845 0.31907 0.25237 0.0
H670 H 0.49184 0.31186 0.24144 0.0
H671 H 0.46093 0.25521 0.27679 0.0
H672 H 0.57322 0.21837 0.24962 0.0
H673 H 0.60705 0.21654 0.27634 0.0
H674 H 0.62191 0.26301 0.25687 0.0
H675 H 0.63329 0.30077 0.30656 0.0
H676 H 0.61719 0.25365 0.32606 0.0
H677 H 0.59225 0.28275 0.33272 0.0
H678 H 0.43923 0.19148 0.30311 0.0
H679 H 0.42793 0.12259 0.31349 0.0
H680 H 0.55739 0.16926 0.30947 0.0
C681 C 0.57672 0.30628 0.25821 0.0
C682 C 0.55247 0.31967 0.24417 0.0
C683 C 0.51087 0.30176 0.25176 0.0
C684 C 0.49318 0.26996 0.27218 0.0
C685 C 0.51746 0.25641 0.28503 0.0
C686 C 0.55843 0.27399 0.27837 0.0
C687 C 0.57598 0.2492 0.2911 0.0
C688 C 0.59563 0.23598 0.26705 0.0
C689 C 0.60648 0.27302 0.31557 0.0
C690 C 0.53776 0.21315 0.30355 0.0
C691 C 0.50463 0.21878 0.30095 0.0
C692 C 0.46501 0.18717 0.30632 0.0
C693 C 0.45876 0.14817 0.31247 0.0
C694 C 0.49198 0.14136 0.31311 0.0
C695 C 0.53194 0.17457 0.31044 0.0
H696 H 0.4267 0.48179 0.17643 0.0
H697 H 0.51454 0.60649 0.20112 0.0
H698 H 0.46637 0.62845 0.18735 0.0
H699 H 0.38618 0.51007 0.11296 0.0
H700 H 0.33421 0.47037 0.11871 0.0
H701 H 0.37526 0.46281 0.13022 0.0
H702 H 0.34595 0.44714 0.18273 0.0
H703 H 0.30482 0.45469 0.17145 0.0
H704 H 0.3368 0.48366 0.20163 0.0
H705 H 0.4108 0.63872 0.1723 0.0
H706 H 0.34943 0.63757 0.15524 0.0
H707 H 0.29262 0.50717 0.13846 0.0
C708 C 0.43576 0.51371 0.1788 0.0
C709 C 0.47465 0.5422 0.19058 0.0
C710 C 0.48496 0.58367 0.19308 0.0
C711 C 0.45777 0.59665 0.18506 0.0
C712 C 0.41981 0.5681 0.1742 0.0
C713 C 0.40849 0.52749 0.17082 0.0
C714 C 0.3652 0.50383 0.15844 0.0
C715 C 0.36522 0.48569 0.12829 0.0
C716 C 0.33649 0.47034 0.17984 0.0
C717 C 0.35427 0.53762 0.1558 0.0
C718 C 0.38672 0.57428 0.16501 0.0
C719 C 0.38521 0.61024 0.16492 0.0
C720 C 0.34989 0.60918 0.15506 0.0
C721 C 0.31568 0.57242 0.14526 0.0
C722 C 0.31796 0.53586 0.14582 0.0
H723 H 0.4462 0.7556 0.81689 0.0
H724 H 0.56813 0.79656 0.78467 0.0
H725 H 0.58934 0.86697 0.80129 0.0
H726 H 0.43975 0.84389 0.79839 0.0
H727 H 0.41289 0.84278 0.83131 0.0
H728 H 0.4077 0.7961 0.81685 0.0
H729 H 0.43053 0.78184 0.86666 0.0
H730 H 0.43603 0.82867 0.88121 0.0
H731 H 0.47831 0.81973 0.88214 0.0
H732 H 0.59677 0.93362 0.82146 0.0
H733 H 0.59003 0.99019 0.84199 0.0
H734 H 0.46294 0.90585 0.8616 0.0
C735 C 0.47737 0.77942 0.81314 0.0
C736 C 0.50547 0.77044 0.79918 0.0
C737 C 0.54606 0.8025 0.79525 0.0
C738 C 0.55834 0.84263 0.80466 0.0
C739 C 0.52989 0.85029 0.81849 0.0
C740 C 0.49026 0.81944 0.82284 0.0
C741 C 0.46574 0.83545 0.83873 0.0
C742 C 0.42937 0.82919 0.8202 0.0
C743 C 0.45182 0.81521 0.86897 0.0
C744 C 0.49727 0.88051 0.84174 0.0
C745 C 0.5342 0.88833 0.83021 0.0
C746 C 0.56788 0.92768 0.83037 0.0
C747 C 0.56359 0.95983 0.84198 0.0
C748 C 0.52572 0.95306 0.85318 0.0
C749 C 0.49239 0.9124 0.85345 0.0
H750 H 0.08194 0.61914 0.50754 0.0
H751 H 0.1217 0.53204 0.52599 0.0
H752 H 0.18934 0.58015 0.50673 0.0
H753 H 0.13891 0.65897 0.44004 0.0
H754 H 0.15348 0.71155 0.44661 0.0
H755 H 0.10715 0.67112 0.46233 0.0
H756 H 0.13132 0.70163 0.51387 0.0
H757 H 0.17765 0.74231 0.49832 0.0
H758 H 0.17985 0.7108 0.52698 0.0
H759 H 0.25067 0.63316 0.48285 0.0
H760 H 0.30717 0.69316 0.45966 0.0
H761 H 0.23521 0.75313 0.45806 0.0
C762 C 0.105 0.61034 0.50761 0.0
C763 C 0.09599 0.57134 0.51873 0.0
C764 C 0.1274 0.56152 0.51831 0.0
C765 C 0.16611 0.58868 0.50712 0.0
C766 C 0.17395 0.62635 0.49636 0.0
C767 C 0.14475 0.63783 0.49678 0.0
C768 C 0.16268 0.68106 0.48403 0.0
C769 C 0.13914 0.68064 0.45662 0.0
C770 C 0.16289 0.71071 0.50718 0.0
C771 C 0.20613 0.69141 0.47611 0.0
C772 C 0.21119 0.65877 0.48328 0.0
C773 C 0.24721 0.65903 0.47729 0.0
C774 C 0.27919 0.69338 0.46379 0.0
C775 C 0.27607 0.72812 0.4566 0.0
C776 C 0.23882 0.7272 0.46316 0.0
H777 H 0.54712 0.4657 0.83108 0.0
H778 H 0.49834 0.42377 0.74425 0.0
H779 H 0.49613 0.35824 0.75359 0.0
H780 H 0.61329 0.42533 0.83063 0.0
H781 H 0.60651 0.41089 0.86873 0.0
H782 H 0.59981 0.45243 0.85674 0.0
H783 H 0.52736 0.41676 0.87897 0.0
H784 H 0.53386 0.37513 0.89118 0.0
H785 H 0.49129 0.3651 0.86834 0.0
H786 H 0.50099 0.29789 0.77175 0.0
H787 H 0.5172 0.24933 0.79548 0.0
H788 H 0.56796 0.33136 0.86964 0.0
C789 C 0.53525 0.4423 0.81432 0.0
C790 C 0.52233 0.44957 0.78703 0.0
C791 C 0.50802 0.4187 0.76534 0.0
C792 C 0.50662 0.38136 0.7705 0.0
C793 C 0.52008 0.37528 0.79743 0.0
C794 C 0.53434 0.40497 0.81896 0.0
C795 C 0.54969 0.39169 0.84513 0.0
C796 C 0.59502 0.42188 0.85062 0.0
C797 C 0.52402 0.38689 0.87253 0.0
C798 C 0.54277 0.3504 0.83466 0.0
C799 C 0.52479 0.34124 0.80735 0.0
C800 C 0.51505 0.3048 0.79313 0.0
C801 C 0.5243 0.27725 0.80689 0.0
C802 C 0.54389 0.28623 0.83448 0.0
C803 C 0.55301 0.32342 0.84856 0.0
H804 H 0.746 0.27102 0.46097 0.0
H805 H 0.72223 0.26276 0.55438 0.0
H806 H 0.66469 0.1927 0.54809 0.0
H807 H 0.641 0.21854 0.43959 0.0
H808 H 0.647 0.19184 0.40898 0.0
H809 H 0.68903 0.24016 0.42056 0.0
H810 H 0.73373 0.20689 0.42645 0.0
H811 H 0.69181 0.1585 0.41479 0.0
H812 H 0.71619 0.16239 0.44937 0.0
H813 H 0.60843 0.12456 0.53231 0.0
H814 H 0.5552 0.06299 0.50796 0.0
H815 H 0.61024 0.11308 0.42346 0.0
C816 C 0.72906 0.25409 0.4801 0.0
C817 C 0.73915 0.2725 0.50836 0.0
C818 C 0.71541 0.24954 0.53263 0.0
C819 C 0.68259 0.20956 0.52926 0.0
C820 C 0.67294 0.19255 0.50128 0.0
C821 C 0.69524 0.21396 0.477 0.0
C822 C 0.67636 0.18875 0.44926 0.0
C823 C 0.66253 0.21117 0.42836 0.0
C824 C 0.70631 0.17853 0.43407 0.0
C825 C 0.63991 0.15027 0.46179 0.0
C826 C 0.63912 0.15319 0.49192 0.0
C827 C 0.60888 0.12195 0.50873 0.0
C828 C 0.57868 0.08683 0.49459 0.0
C829 C 0.57817 0.08255 0.46367 0.0
C830 C 0.60937 0.11517 0.44707 0.0
H831 H 0.91232 0.45187 0.11305 0.0
H832 H 0.99053 0.58022 0.134 0.0
H833 H 0.93129 0.5837 0.15184 0.0
H834 H 0.82613 0.46417 0.08798 0.0
H835 H 0.78829 0.4152 0.10221 0.0
H836 H 0.83684 0.42294 0.09006 0.0
H837 H 0.84767 0.39943 0.14071 0.0
H838 H 0.79938 0.39196 0.15312 0.0
H839 H 0.84499 0.42498 0.1733 0.0
H840 H 0.86327 0.57323 0.16944 0.0
H841 H 0.79207 0.54982 0.18365 0.0
H842 H 0.75618 0.4286 0.15107 0.0
C843 C 0.91701 0.4809 0.12098 0.0
C844 C 0.95689 0.51551 0.12253 0.0
C845 C 0.96101 0.55274 0.13323 0.0
C846 C 0.92726 0.55522 0.14327 0.0
C847 C 0.88879 0.52041 0.14221 0.0
C848 C 0.88334 0.48405 0.13098 0.0
C849 C 0.83849 0.45122 0.13235 0.0
C850 C 0.82143 0.43757 0.10131 0.0
C851 C 0.83228 0.41474 0.15099 0.0
C852 C 0.81992 0.47437 0.14705 0.0
C853 C 0.8495 0.51445 0.15217 0.0
C854 C 0.8399 0.54194 0.16535 0.0
C855 C 0.7992 0.52834 0.17336 0.0
C856 C 0.76813 0.48735 0.16858 0.0
C857 C 0.779 0.46011 0.15522 0.0
H858 H 1.00161 0.39997 0.75699 0.0
H859 H 0.05767 0.53083 0.74509 0.0
H860 H 0.05629 0.54001 0.79856 0.0
H861 H 0.934 0.39472 0.81845 0.0
H862 H 0.93807 0.355 0.8371 0.0
H863 H 0.94169 0.35852 0.79774 0.0
H864 H 1.01116 0.36158 0.80024 0.0
H865 H 1.00817 0.35895 0.83961 0.0
H866 H 0.05152 0.40072 0.82189 0.0
H867 H 0.05417 0.53601 0.8528 0.0
H868 H 0.04116 0.51854 0.90505 0.0
H869 H 0.98444 0.38963 0.88311 0.0
C870 C 1.01235 0.4303 0.76575 0.0
C871 C 0.02903 0.46476 0.74708 0.0
C872 C 0.04389 0.50414 0.75913 0.0
C873 C 0.04365 0.50964 0.78943 0.0
C874 C 0.02794 0.47533 0.8074 0.0
C875 C 1.01157 0.43629 0.79611 0.0
C876 C 0.99602 0.4048 0.82058 0.0
C877 C 0.9497 0.3766 0.81833 0.0
C878 C 1.01806 0.38007 0.82056 0.0
C879 C 1.00726 0.43245 0.84726 0.0
C880 C 0.02588 0.47298 0.83905 0.0
C881 C 0.03933 0.50435 0.85957 0.0
C882 C 0.03224 0.49408 0.88931 0.0
C883 C 1.01175 0.45269 0.89844 0.0
C884 C 0.99986 0.42157 0.87696 0.0
H885 H 0.53585 0.53679 0.42962 0.0
H886 H 0.65001 0.64622 0.40929 0.0
H887 H 0.66922 0.65389 0.46141 0.0
H888 H 0.51689 0.57081 0.49676 0.0
H889 H 0.49687 0.52302 0.51609 0.0
H890 H 0.49241 0.52326 0.47683 0.0
H891 H 0.52901 0.48151 0.47112 0.0
H892 H 0.53264 0.48023 0.5104 0.0
H893 H 0.57783 0.49967 0.48812 0.0
H894 H 0.67375 0.65416 0.51522 0.0
H895 H 0.66905 0.64058 0.56824 0.0
H896 H 0.55311 0.52965 0.55578 0.0
C897 C 0.56532 0.56158 0.43617 0.0
C898 C 0.59166 0.59091 0.41549 0.0
C899 C 0.62963 0.62345 0.42483 0.0
C900 C 0.64064 0.62818 0.45438 0.0
C901 C 0.61346 0.59995 0.47445 0.0
C902 C 0.57699 0.56672 0.46585 0.0
C903 C 0.55359 0.54121 0.49236 0.0
C904 C 0.5125 0.53949 0.49569 0.0
C905 C 0.54794 0.4981 0.49038 0.0
C906 C 0.58242 0.56573 0.51706 0.0
C907 C 0.61653 0.59964 0.50602 0.0
C908 C 0.64745 0.62746 0.52412 0.0
C909 C 0.6444 0.61961 0.55422 0.0
C910 C 0.61085 0.58407 0.5661 0.0
C911 C 0.5789 0.55726 0.54732 0.0
H912 H 0.44834 0.98835 0.22854 0.0
H913 H 0.52536 0.12043 0.22566 0.0
H914 H 0.52743 0.11816 0.17208 0.0
H915 H 0.50065 0.96914 0.16798 0.0
H916 H 0.45465 0.92676 0.15366 0.0
H917 H 0.45884 0.93813 0.19225 0.0
H918 H 0.39338 0.94295 0.18997 0.0
H919 H 0.38908 0.93177 0.15137 0.0
H920 H 0.39043 0.97748 0.16428 0.0
H921 H 0.51925 0.10304 0.11873 0.0
H922 H 0.50339 0.07491 0.06879 0.0
H923 H 0.43643 0.95221 0.10501 0.0
C924 C 0.46597 1.01668 0.21664 0.0
C925 C 0.48585 0.05465 0.23153 0.0
C926 C 0.50873 0.091 0.21495 0.0
C927 C 0.51043 0.0901 0.18439 0.0
C928 C 0.48984 0.05253 0.17037 0.0
C929 C 0.46844 1.01637 0.18583 0.0
C930 C 0.44943 0.98021 0.16497 0.0
C931 C 0.46695 0.95189 0.17002 0.0
C932 C 0.40282 0.95673 0.16783 0.0
C933 C 0.46305 1.00196 0.1356 0.0
C934 C 0.48629 0.04366 0.13929 0.0
C935 C 0.50142 0.07033 0.11551 0.0
C936 C 0.49242 0.05398 0.08711 0.0
C937 C 0.46851 1.01123 0.08255 0.0
C938 C 0.45419 0.98506 0.10739 0.0
H939 H 0.23757 0.55425 0.96203 0.0
H940 H 0.26794 0.68121 0.95955 0.0
H941 H 0.333 0.6994 0.93568 0.0
H942 H 0.34958 0.57873 0.97122 0.0
H943 H 0.33772 0.53432 0.94949 0.0
H944 H 0.29992 0.53378 0.9738 0.0
H945 H 0.2501 0.51332 0.9302 0.0
H946 H 0.28759 0.51479 0.90568 0.0
H947 H 0.26486 0.54572 0.89825 0.0
H948 H 0.38401 0.69986 0.90047 0.0
H949 H 0.4176 0.68298 0.86089 0.0
H950 H 0.35585 0.5568 0.88962 0.0
C951 C 0.25858 0.58631 0.95824 0.0
C952 C 0.24686 0.616 0.96233 0.0
C953 C 0.27544 0.65747 0.95598 0.0
C954 C 0.31288 0.66828 0.94275 0.0
C955 C 0.32203 0.63756 0.93708 0.0
C956 C 0.29618 0.59758 0.94559 0.0
C957 C 0.30993 0.56917 0.93368 0.0
C958 C 0.3252 0.55305 0.95853 0.0
C959 C 0.27613 0.53376 0.91589 0.0
C960 C 0.34472 0.59847 0.91445 0.0
C961 C 0.35233 0.63812 0.91739 0.0
C962 C 0.37939 0.66927 0.89881 0.0
C963 C 0.39827 0.65938 0.87632 0.0
C964 C 0.38931 0.61854 0.87241 0.0
C965 C 0.3635 0.58829 0.8924 0.0
H966 H 0.36872 0.72276 0.52189 0.0
H967 H 0.4822 0.83639 0.53465 0.0
H968 H 0.4995 0.80546 0.57527 0.0
H969 H 0.3505 0.69227 0.60167 0.0
H970 H 0.33065 0.63907 0.5931 0.0
H971 H 0.32348 0.67151 0.56788 0.0
H972 H 0.35702 0.65169 0.52643 0.0
H973 H 0.36401 0.61907 0.55136 0.0
H974 H 0.40708 0.65872 0.53193 0.0
H975 H 0.51047 0.76061 0.60695 0.0
H976 H 0.51537 0.70502 0.62836 0.0
H977 H 0.39071 0.61985 0.60151 0.0
C978 C 0.39659 0.74139 0.53388 0.0
C979 C 0.42427 0.78192 0.52518 0.0
C980 C 0.46086 0.80517 0.5408 0.0
C981 C 0.47072 0.78802 0.56412 0.0
C982 C 0.44337 0.74776 0.5718 0.0
C983 C 0.40688 0.72469 0.55739 0.0
C984 C 0.38514 0.68086 0.56819 0.0
C985 C 0.34507 0.67032 0.58364 0.0
C986 C 0.37792 0.65085 0.54298 0.0
C987 C 0.41623 0.68266 0.58976 0.0
C988 C 0.44922 0.72168 0.59165 0.0
C989 C 0.48424 0.73012 0.60662 0.0
C990 C 0.48639 0.69769 0.61916 0.0
C991 C 0.45328 0.65685 0.61729 0.0
C992 C 0.41706 0.65001 0.60338 0.0
H993 H 0.2781 0.70707 0.16633 0.0
H994 H 0.25139 0.60348 0.22092 0.0
H995 H 0.31281 0.64687 0.25045 0.0
H996 H 0.39297 0.77338 0.17662 0.0
H997 H 0.38724 0.81772 0.17997 0.0
H998 H 0.35374 0.77612 0.15643 0.0
H999 H 0.29261 0.77264 0.18415 0.0
H1000 H 0.32547 0.81223 0.20899 0.0
H1001 H 0.2876 0.76316 0.22304 0.0
H1002 H 0.36739 0.70499 0.28054 0.0
H1003 H 0.4108 0.77078 0.30646 0.0
H1004 H 0.39074 0.83575 0.23664 0.0
C1005 C 0.28714 0.69305 0.18314 0.0
C1006 C 0.26121 0.652 0.19098 0.0
C1007 C 0.27192 0.63468 0.21415 0.0
C1008 C 0.30646 0.65932 0.2312 0.0
C1009 C 0.32889 0.7011 0.22503 0.0
C1010 C 0.3197 0.71774 0.20128 0.0
C1011 C 0.34071 0.7638 0.2032 0.0
C1012 C 0.37046 0.78393 0.17754 0.0
C1013 C 0.30975 0.77878 0.20496 0.0
C1014 C 0.36281 0.77061 0.2318 0.0
C1015 C 0.35647 0.73439 0.24391 0.0
C1016 C 0.37277 0.73348 0.27108 0.0
C1017 C 0.39681 0.77068 0.28582 0.0
C1018 C 0.40297 0.80764 0.27361 0.0
C1019 C 0.3857 0.80751 0.24645 0.0
H1020 H 0.63764 0.39831 0.07757 0.0
H1021 H 0.62119 0.35255 0.16616 0.0
H1022 H 0.62982 0.29568 0.14922 0.0
H1023 H 0.58426 0.32018 0.04302 0.0
H1024 H 0.61414 0.32329 0.01132 0.0
H1025 H 0.62438 0.36907 0.03017 0.0
H1026 H 0.69924 0.38948 0.03902 0.0
H1027 H 0.69048 0.34506 0.01841 0.0
H1028 H 0.71099 0.3531 0.05489 0.0
H1029 H 0.61284 0.2336 0.12148 0.0
H1030 H 0.59354 0.17789 0.08574 0.0
H1031 H 0.62512 0.26379 0.01425 0.0
C1032 C 0.63936 0.37815 0.09357 0.0
C1033 C 0.62893 0.37957 0.12303 0.0
C1034 C 0.62993 0.35227 0.14358 0.0
C1035 C 0.63437 0.31955 0.13405 0.0
C1036 C 0.63976 0.31606 0.10417 0.0
C1037 C 0.64496 0.34597 0.08437 0.0
C1038 C 0.64577 0.33248 0.05313 0.0
C1039 C 0.61528 0.33647 0.03329 0.0
C1040 C 0.68919 0.35644 0.04061 0.0
C1041 C 0.63356 0.28826 0.05824 0.0
C1042 C 0.63146 0.27986 0.0879 0.0
C1043 C 0.61629 0.24023 0.09826 0.0
C1044 C 0.60476 0.20874 0.07787 0.0
C1045 C 0.60813 0.21691 0.04747 0.0
C1046 C 0.62249 0.25707 0.03745 0.0
H1047 H 0.63542 0.26819 0.7559 0.0
H1048 H 0.69549 0.28179 0.83865 0.0
H1049 H 0.7551 0.34413 0.82092 0.0
H1050 H 0.699 0.28514 0.71168 0.0
H1051 H 0.69819 0.31997 0.68515 0.0
H1052 H 0.65386 0.28891 0.70688 0.0
H1053 H 0.65212 0.35176 0.7271 0.0
H1054 H 0.69483 0.3834 0.70367 0.0
H1055 H 0.69755 0.39377 0.74236 0.0
H1056 H 0.81352 0.37885 0.78812 0.0
H1057 H 0.86338 0.40919 0.74786 0.0
H1058 H 0.76624 0.38268 0.68688 0.0
C1059 C 0.6596 0.28665 0.77107 0.0
C1060 C 0.66141 0.27035 0.79836 0.0
C1061 C 0.69357 0.29415 0.81775 0.0
C1062 C 0.72789 0.32949 0.80768 0.0
C1063 C 0.72783 0.34181 0.77898 0.0
C1064 C 0.69334 0.32331 0.76166 0.0
C1065 C 0.70298 0.34034 0.73071 0.0
C1066 C 0.68762 0.30654 0.70727 0.0
C1067 C 0.68586 0.36902 0.72566 0.0
C1068 C 0.74892 0.36453 0.73199 0.0
C1069 C 0.76249 0.36568 0.76025 0.0
C1070 C 0.8034 0.3804 0.76629 0.0
C1071 C 0.83134 0.39663 0.74326 0.0
C1072 C 0.81831 0.39813 0.7146 0.0
C1073 C 0.77665 0.38184 0.70877 0.0
H1074 H 0.63558 0.43985 0.4101 0.0
H1075 H 0.64482 0.38441 0.32962 0.0
H1076 H 0.69106 0.36509 0.35419 0.0
H1077 H 0.73719 0.48499 0.42852 0.0
H1078 H 0.7278 0.47868 0.4674 0.0
H1079 H 0.69194 0.48188 0.44381 0.0
H1080 H 0.63543 0.41256 0.4648 0.0
H1081 H 0.67199 0.40866 0.48752 0.0
H1082 H 0.64108 0.36809 0.46236 0.0
H1083 H 0.74546 0.36442 0.38467 0.0
H1084 H 0.80576 0.38729 0.41627 0.0
H1085 H 0.75498 0.43528 0.47884 0.0
C1086 C 0.64688 0.42295 0.39792 0.0
C1087 C 0.63704 0.41338 0.36824 0.0
C1088 C 0.65246 0.39193 0.35248 0.0
C1089 C 0.67821 0.38052 0.36636 0.0
C1090 C 0.68746 0.39043 0.39592 0.0
C1091 C 0.67221 0.41127 0.41143 0.0
C1092 C 0.69035 0.42301 0.44165 0.0
C1093 C 0.71318 0.46987 0.44554 0.0
C1094 C 0.65775 0.40177 0.46549 0.0
C1095 C 0.71924 0.40654 0.44064 0.0
C1096 C 0.71706 0.38756 0.41415 0.0
C1097 C 0.74649 0.37768 0.40589 0.0
C1098 C 0.78042 0.39028 0.42405 0.0
C1099 C 0.78383 0.41162 0.45022 0.0
C1100 C 0.75163 0.41704 0.45959 0.0
loop_
_geom_bond_atom_site_label_1
_geom_bond_atom_site_label_2
_geom_bond_distance
_geom_bond_site_symmetry_2
_ccdc_geom_bond_type
Cd0 O57 2.350 . S
Cd0 O58 2.277 . S
Cd0 O65 2.173 . S
Cd0 O67 2.263 . S
Cd0 O69 2.366 . S
Cd0 O72 2.329 . S
C1 O65 1.277 . S
C1 O66 1.230 . S
C2 O3 1.246 . S
C2 C5 1.481 1_556 S
C2 N27 1.329 . S
O3 C2 1.246 . S
Cd4 O66 2.250 . S
Cd4 O68 2.308 . S
Cd4 O71 2.352 . S
C5 C2 1.481 1_554 S
C5 N8 1.327 . S
C5 C9 1.407 . S
C6 C7 1.346 . S
C6 C10 1.390 . S
C6 H74 0.930 1_455 S
C7 C6 1.346 . S
C7 N8 1.342 . S
C7 C12 1.516 . S
N8 C5 1.327 . S
N8 C7 1.342 . S
N8 Co11 1.864 . S
C9 C5 1.407 . S
C9 C10 1.364 . S
C9 H75 0.930 1_554 S
C10 C6 1.390 . S
C10 C9 1.364 . S
C10 H76 0.931 . S
Co11 N8 1.864 . S
Co11 N27 1.955 1_554 S
Co11 N28 1.958 . S
Co11 N29 1.953 . S
Co11 N47 1.869 . S
Co11 N53 1.974 . S
C12 C7 1.516 . S
C12 O13 1.238 . S
C12 N28 1.324 . S
O13 C12 1.238 . S
C14 C15 1.394 . S
C14 C19 1.395 . S
C14 N28 1.427 . S
C15 C14 1.394 . S
C15 C16 1.380 . S
C15 H77 0.929 . S
C16 C15 1.380 . S
C16 C17 1.384 . S
C16 C20 1.495 . S
C17 C16 1.384 . S
C17 C18 1.382 . S
C17 H78 0.930 . S
C18 C17 1.382 . S
C18 C19 1.398 . S
C19 C14 1.395 . S
C19 C18 1.398 . S
C19 H79 0.930 1_455 S
C20 C16 1.495 . S
C20 O67 1.258 . S
C20 O68 1.274 . S
C21 C22 1.385 . S
C21 C23 1.381 . S
C21 N27 1.432 . S
C22 C21 1.385 . S
C22 C26 1.388 . S
C22 H80 0.929 . S
C23 C21 1.381 . S
C23 C24 1.371 . S
C23 H81 0.932 . S
C24 C23 1.371 . S
C24 C25 1.400 . S
C25 C24 1.400 . S
C25 C26 1.351 . S
C25 H82 0.930 . S
C26 C22 1.388 . S
C26 C25 1.351 . S
N27 C2 1.329 . S
N27 Co11 1.955 1_556 S
N27 C21 1.432 . S
N28 Co11 1.958 . S
N28 C12 1.324 . S
N28 C14 1.427 . S
N29 Co11 1.953 . S
N29 C30 1.436 . S
N29 C56 1.316 . S
C30 N29 1.436 . S
C30 C31 1.421 . S
C30 C32 1.360 . S
C31 C30 1.421 . S
C31 C33 1.379 . S
C31 H34 0.929 . S
C32 C30 1.360 . S
C32 C36 1.393 . S
C32 H38 0.931 . S
C33 C31 1.379 . S
C33 C35 1.417 . S
C33 C37 1.505 . S
H34 C31 0.929 . S
C35 C33 1.417 . S
C35 C36 1.352 . S
C35 H39 0.929 . S
C36 C32 1.393 . S
C36 C35 1.352 . S
C36 C40 1.482 . S
C37 C33 1.505 . S
C37 O41 1.259 . S
C37 O42 1.229 . S
H38 C32 0.931 . S
H39 C35 0.929 . S
C40 C36 1.482 . S
C40 O43 1.207 . S
C40 O44 1.289 . S
O41 C37 1.259 . S
O41 H45 0.822 . S
O42 C37 1.229 . S
O43 C40 1.207 . S
O44 C40 1.289 . S
O44 H46 0.819 . S
H45 O41 0.822 . S
H46 O44 0.819 . S
N47 Co11 1.869 . S
N47 C48 1.330 . S
N47 C52 1.325 . S
C48 N47 1.330 . S
C48 C49 1.359 . S
C48 C54 1.504 . S
C49 C48 1.359 . S
C49 C50 1.366 . S
C49 H83 0.929 1_554 S
C50 C49 1.366 . S
C50 C51 1.415 . S
C50 H84 0.932 . S
C51 C50 1.415 . S
C51 C52 1.366 . S
C51 H85 0.931 . S
C52 N47 1.325 . S
C52 C51 1.366 . S
C52 C56 1.516 . S
N53 Co11 1.974 . S
N53 C54 1.309 . S
N53 C59 1.423 1_554 S
C54 C48 1.504 . S
C54 N53 1.309 . S
C54 O55 1.258 1_554 S
O55 C54 1.258 1_556 S
C56 N29 1.316 . S
C56 C52 1.516 . S
C56 O69 1.263 . S
O57 Cd0 2.350 . S
O57 C73 1.270 . S
O58 Cd0 2.277 . S
O58 C73 1.248 . S
C59 N53 1.423 1_556 S
C59 C60 1.370 1_456 S
C59 C64 1.403 . S
C60 C59 1.370 1_654 S
C60 C61 1.389 1_554 S
C60 H86 0.931 . S
C61 C60 1.389 1_556 S
C61 C62 1.389 . S
C62 C61 1.389 . S
C62 C63 1.379 . S
C62 H87 0.929 . S
C63 C62 1.379 . S
C63 C64 1.405 1_655 S
C64 C59 1.403 . S
C64 C63 1.405 1_455 S
C64 H88 0.932 . S
O65 Cd0 2.173 . S
O65 C1 1.277 . S
O66 C1 1.230 . S
O66 Cd4 2.250 . S
O67 Cd0 2.263 . S
O67 C20 1.258 . S
O68 Cd4 2.308 . S
O68 C20 1.274 . S
O69 Cd0 2.366 . S
O69 C56 1.263 . S
C70 O71 1.235 . S
C70 O72 1.270 . S
O71 Cd4 2.352 . S
O71 C70 1.235 . S
O72 Cd0 2.329 . S
O72 C70 1.270 . S
C73 O57 1.270 . S
C73 O58 1.248 . S
H74 C6 0.930 1_655 S
H75 C9 0.930 1_556 S
H76 C10 0.931 . S
H77 C15 0.929 . S
H78 C17 0.930 . S
H79 C19 0.930 1_655 S
H80 C22 0.929 . S
H81 C23 0.932 . S
H82 C25 0.930 . S
H83 C49 0.929 1_556 S
H84 C50 0.932 . S
H85 C51 0.931 . S
H86 C60 0.931 . S
H87 C62 0.929 . S
H88 C64 0.932 . S
Cd89 O146 2.350 . S
Cd89 O147 2.277 . S
Cd89 O154 2.173 . S
Cd89 O156 2.263 . S
Cd89 O158 2.366 . S
Cd89 O161 2.329 . S
C90 O154 1.277 . S
C90 O155 1.230 . S
C91 O92 1.246 . S
C91 C94 1.481 . S
C91 N116 1.329 . S
O92 C91 1.246 . S
Cd93 O155 2.250 . S
Cd93 O157 2.308 . S
Cd93 O160 2.352 . S
C94 C91 1.481 . S
C94 N97 1.327 . S
C94 C98 1.407 . S
C95 C96 1.346 . S
C95 C99 1.390 . S
C95 H163 0.930 . S
C96 C95 1.346 . S
C96 N97 1.342 . S
C96 C101 1.516 . S
N97 C94 1.327 . S
N97 C96 1.342 . S
N97 Co100 1.864 . S
C98 C94 1.407 . S
C98 C99 1.364 . S
C98 H164 0.930 . S
C99 C95 1.390 . S
C99 C98 1.364 . S
C99 H165 0.931 . S
Co100 N97 1.864 . S
Co100 N116 1.955 . S
Co100 N117 1.958 . S
Co100 N118 1.953 . S
Co100 N136 1.869 . S
Co100 N142 1.974 . S
C101 C96 1.516 . S
C101 O102 1.238 . S
C101 N117 1.324 . S
O102 C101 1.238 . S
C103 C104 1.394 . S
C103 C108 1.395 . S
C103 N117 1.427 . S
C104 C103 1.394 . S
C104 C105 1.380 . S
C104 H166 0.929 . S
C105 C104 1.380 . S
C105 C106 1.384 . S
C105 C109 1.495 . S
C106 C105 1.384 . S
C106 C107 1.382 . S
C106 H167 0.930 . S
C107 C106 1.382 . S
C107 C108 1.398 . S
C108 C103 1.395 . S
C108 C107 1.398 . S
C108 H168 0.930 . S
C109 C105 1.495 . S
C109 O156 1.258 . S
C109 O157 1.274 . S
C110 C111 1.385 . S
C110 C112 1.381 . S
C110 N116 1.432 . S
C111 C110 1.385 . S
C111 C115 1.388 . S
C111 H169 0.929 . S
C112 C110 1.381 . S
C112 C113 1.371 . S
C112 H170 0.932 . S
C113 C112 1.371 . S
C113 C114 1.400 . S
C114 C113 1.400 . S
C114 C115 1.351 . S
C114 H171 0.930 . S
C115 C111 1.388 . S
C115 C114 1.351 . S
N116 C91 1.329 . S
N116 Co100 1.955 . S
N116 C110 1.432 . S
N117 Co100 1.958 . S
N117 C101 1.324 . S
N117 C103 1.427 . S
N118 Co100 1.953 . S
N118 C119 1.436 . S
N118 C145 1.316 . S
C119 N118 1.436 . S
C119 C120 1.421 . S
C119 C121 1.360 . S
C120 C119 1.421 . S
C120 C122 1.379 . S
C120 H123 0.929 . S
C121 C119 1.360 . S
C121 C125 1.393 . S
C121 H127 0.931 . S
C122 C120 1.379 . S
C122 C124 1.417 . S
C122 C126 1.505 . S
H123 C120 0.929 . S
C124 C122 1.417 . S
C124 C125 1.352 . S
C124 H128 0.929 . S
C125 C121 1.393 . S
C125 C124 1.352 . S
C125 C129 1.482 . S
C126 C122 1.505 . S
C126 O130 1.259 . S
C126 O131 1.229 . S
H127 C121 0.931 . S
H128 C124 0.929 . S
C129 C125 1.482 . S
C129 O132 1.207 . S
C129 O133 1.289 . S
O130 C126 1.259 . S
O130 H134 0.822 . S
O131 C126 1.229 . S
O132 C129 1.207 . S
O133 C129 1.289 . S
O133 H135 0.819 . S
H134 O130 0.822 . S
H135 O133 0.819 . S
N136 Co100 1.869 . S
N136 C137 1.330 . S
N136 C141 1.325 . S
C137 N136 1.330 . S
C137 C138 1.359 . S
C137 C143 1.504 . S
C138 C137 1.359 . S
C138 C139 1.366 . S
C138 H172 0.929 . S
C139 C138 1.366 . S
C139 C140 1.415 . S
C139 H173 0.932 . S
C140 C139 1.415 . S
C140 C141 1.366 . S
C140 H174 0.931 . S
C141 N136 1.325 . S
C141 C140 1.366 . S
C141 C145 1.516 . S
N142 Co100 1.974 . S
N142 C143 1.309 . S
N142 C148 1.423 . S
C143 C137 1.504 . S
C143 N142 1.309 . S
C143 O144 1.258 . S
O144 C143 1.258 . S
C145 N118 1.316 . S
C145 C141 1.516 . S
C145 O158 1.263 . S
O146 Cd89 2.350 . S
O146 C162 1.270 . S
O147 Cd89 2.277 . S
O147 C162 1.248 . S
C148 N142 1.423 . S
C148 C149 1.370 . S
C148 C153 1.403 . S
C149 C148 1.370 . S
C149 C150 1.389 . S
C149 H175 0.931 . S
C150 C149 1.389 . S
C150 C151 1.389 . S
C151 C150 1.389 . S
C151 C152 1.379 . S
C151 H176 0.929 . S
C152 C151 1.379 . S
C152 C153 1.405 . S
C153 C148 1.403 . S
C153 C152 1.405 . S
C153 H177 0.932 . S
O154 Cd89 2.173 . S
O154 C90 1.277 . S
O155 C90 1.230 . S
O155 Cd93 2.250 . S
O156 Cd89 2.263 . S
O156 C109 1.258 . S
O157 Cd93 2.308 . S
O157 C109 1.274 . S
O158 Cd89 2.366 . S
O158 C145 1.263 . S
C159 O160 1.235 . S
C159 O161 1.270 . S
O160 Cd93 2.352 . S
O160 C159 1.235 . S
O161 Cd89 2.329 . S
O161 C159 1.270 . S
C162 O146 1.270 . S
C162 O147 1.248 . S
H163 C95 0.930 . S
H164 C98 0.930 . S
H165 C99 0.931 . S
H166 C104 0.929 . S
H167 C106 0.930 . S
H168 C108 0.930 . S
H169 C111 0.929 . S
H170 C112 0.932 . S
H171 C114 0.930 . S
H172 C138 0.929 . S
H173 C139 0.932 . S
H174 C140 0.931 . S
H175 C149 0.931 . S
H176 C151 0.929 . S
H177 C153 0.932 . S
Cd178 O235 2.350 . S
Cd178 O236 2.277 . S
Cd178 O243 2.173 . S
Cd178 O245 2.263 . S
Cd178 O247 2.366 . S
Cd178 O250 2.329 . S
C179 O243 1.277 . S
C179 O244 1.230 . S
C180 O181 1.246 . S
C180 C183 1.481 . S
C180 N205 1.329 . S
O181 C180 1.246 . S
Cd182 O244 2.250 . S
Cd182 O246 2.308 . S
Cd182 O249 2.352 . S
C183 C180 1.481 . S
C183 N186 1.327 . S
C183 C187 1.407 . S
C184 C185 1.346 . S
C184 C188 1.390 . S
C184 H252 0.930 1_565 S
C185 C184 1.346 . S
C185 N186 1.342 . S
C185 C190 1.516 . S
N186 C183 1.327 . S
N186 C185 1.342 . S
N186 Co189 1.864 . S
C187 C183 1.407 . S
C187 C188 1.364 . S
C187 H253 0.930 . S
C188 C184 1.390 . S
C188 C187 1.364 . S
C188 H254 0.931 . S
Co189 N186 1.864 . S
Co189 N205 1.955 . S
Co189 N206 1.958 . S
Co189 N207 1.953 . S
Co189 N225 1.869 . S
Co189 N231 1.974 . S
C190 C185 1.516 . S
C190 O191 1.238 . S
C190 N206 1.324 . S
O191 C190 1.238 . S
C192 C193 1.394 . S
C192 C197 1.395 . S
C192 N206 1.427 . S
C193 C192 1.394 . S
C193 C194 1.380 . S
C193 H255 0.929 . S
C194 C193 1.380 . S
C194 C195 1.384 . S
C194 C198 1.495 . S
C195 C194 1.384 . S
C195 C196 1.382 . S
C195 H256 0.930 . S
C196 C195 1.382 . S
C196 C197 1.398 . S
C197 C192 1.395 . S
C197 C196 1.398 . S
C197 H257 0.930 1_565 S
C198 C194 1.495 . S
C198 O245 1.258 . S
C198 O246 1.274 . S
C199 C200 1.385 . S
C199 C201 1.381 . S
C199 N205 1.432 . S
C200 C199 1.385 . S
C200 C204 1.388 . S
C200 H258 0.929 . S
C201 C199 1.381 . S
C201 C202 1.371 . S
C201 H259 0.932 . S
C202 C201 1.371 . S
C202 C203 1.400 . S
C203 C202 1.400 . S
C203 C204 1.351 . S
C203 H260 0.930 . S
C204 C200 1.388 . S
C204 C203 1.351 . S
N205 C180 1.329 . S
N205 Co189 1.955 . S
N205 C199 1.432 . S
N206 Co189 1.958 . S
N206 C190 1.324 . S
N206 C192 1.427 . S
N207 Co189 1.953 . S
N207 C208 1.436 . S
N207 C234 1.316 . S
C208 N207 1.436 . S
C208 C209 1.421 . S
C208 C210 1.360 . S
C209 C208 1.421 . S
C209 C211 1.379 . S
C209 H212 0.929 . S
C210 C208 1.360 . S
C210 C214 1.393 . S
C210 H216 0.931 . S
C211 C209 1.379 . S
C211 C213 1.417 . S
C211 C215 1.505 . S
H212 C209 0.929 . S
C213 C211 1.417 . S
C213 C214 1.352 . S
C213 H217 0.929 . S
C214 C210 1.393 . S
C214 C213 1.352 . S
C214 C218 1.482 . S
C215 C211 1.505 . S
C215 O219 1.259 . S
C215 O220 1.229 . S
H216 C210 0.931 . S
H217 C213 0.929 . S
C218 C214 1.482 . S
C218 O221 1.207 . S
C218 O222 1.289 . S
O219 C215 1.259 . S
O219 H223 0.822 . S
O220 C215 1.229 . S
O221 C218 1.207 . S
O222 C218 1.289 . S
O222 H224 0.819 . S
H223 O219 0.822 . S
H224 O222 0.819 . S
N225 Co189 1.869 . S
N225 C226 1.330 . S
N225 C230 1.325 . S
C226 N225 1.330 . S
C226 C227 1.359 . S
C226 C232 1.504 . S
C227 C226 1.359 . S
C227 C228 1.366 . S
C227 H261 0.929 . S
C228 C227 1.366 . S
C228 C229 1.415 . S
C228 H262 0.932 . S
C229 C228 1.415 . S
C229 C230 1.366 . S
C229 H263 0.931 . S
C230 N225 1.325 . S
C230 C229 1.366 . S
C230 C234 1.516 . S
N231 Co189 1.974 . S
N231 C232 1.309 . S
N231 C237 1.423 . S
C232 C226 1.504 . S
C232 N231 1.309 . S
C232 O233 1.258 . S
O233 C232 1.258 . S
C234 N207 1.316 . S
C234 C230 1.516 . S
C234 O247 1.263 . S
O235 Cd178 2.350 . S
O235 C251 1.270 . S
O236 Cd178 2.277 . S
O236 C251 1.248 . S
C237 N231 1.423 . S
C237 C238 1.370 1_565 S
C237 C242 1.403 . S
C238 C237 1.370 1_545 S
C238 C239 1.389 . S
C238 H264 0.931 . S
C239 C238 1.389 . S
C239 C240 1.389 . S
C240 C239 1.389 . S
C240 C241 1.379 . S
C240 H265 0.929 . S
C241 C240 1.379 . S
C241 C242 1.405 1_545 S
C242 C237 1.403 . S
C242 C241 1.405 1_565 S
C242 H266 0.932 . S
O243 Cd178 2.173 . S
O243 C179 1.277 . S
O244 C179 1.230 . S
O244 Cd182 2.250 . S
O245 Cd178 2.263 . S
O245 C198 1.258 . S
O246 Cd182 2.308 . S
O246 C198 1.274 . S
O247 Cd178 2.366 . S
O247 C234 1.263 . S
C248 O249 1.235 . S
C248 O250 1.270 . S
O249 Cd182 2.352 . S
O249 C248 1.235 . S
O250 Cd178 2.329 . S
O250 C248 1.270 . S
C251 O235 1.270 . S
C251 O236 1.248 . S
H252 C184 0.930 1_545 S
H253 C187 0.930 . S
H254 C188 0.931 . S
H255 C193 0.929 . S
H256 C195 0.930 . S
H257 C197 0.930 1_545 S
H258 C200 0.929 . S
H259 C201 0.932 . S
H260 C203 0.930 . S
H261 C227 0.929 . S
H262 C228 0.932 . S
H263 C229 0.931 . S
H264 C238 0.931 . S
H265 C240 0.929 . S
H266 C242 0.932 . S
Cd267 O324 2.350 . S
Cd267 O325 2.277 . S
Cd267 O332 2.173 . S
Cd267 O334 2.263 . S
Cd267 O336 2.366 . S
Cd267 O339 2.329 . S
C268 O332 1.277 . S
C268 O333 1.230 . S
C269 O270 1.246 . S
C269 C272 1.481 1_554 S
C269 N294 1.329 . S
O270 C269 1.246 . S
Cd271 O333 2.250 . S
Cd271 O335 2.308 . S
Cd271 O338 2.352 . S
C272 C269 1.481 1_556 S
C272 N275 1.327 . S
C272 C276 1.407 . S
C273 C274 1.346 . S
C273 C277 1.390 . S
C273 H341 0.930 1_545 S
C274 C273 1.346 . S
C274 N275 1.342 . S
C274 C279 1.516 . S
N275 C272 1.327 . S
N275 C274 1.342 . S
N275 Co278 1.864 . S
C276 C272 1.407 . S
C276 C277 1.364 . S
C276 H342 0.930 1_556 S
C277 C273 1.390 . S
C277 C276 1.364 . S
C277 H343 0.931 . S
Co278 N275 1.864 . S
Co278 N294 1.955 1_556 S
Co278 N295 1.958 . S
Co278 N296 1.953 . S
Co278 N314 1.869 . S
Co278 N320 1.974 . S
C279 C274 1.516 . S
C279 O280 1.238 . S
C279 N295 1.324 . S
O280 C279 1.238 . S
C281 C282 1.394 . S
C281 C286 1.395 . S
C281 N295 1.427 . S
C282 C281 1.394 . S
C282 C283 1.380 . S
C282 H344 0.929 . S
C283 C282 1.380 . S
C283 C284 1.384 . S
C283 C287 1.495 . S
C284 C283 1.384 . S
C284 C285 1.382 . S
C284 H345 0.930 . S
C285 C284 1.382 . S
C285 C286 1.398 . S
C286 C281 1.395 . S
C286 C285 1.398 . S
C286 H346 0.930 1_545 S
C287 C283 1.495 . S
C287 O334 1.258 . S
C287 O335 1.274 . S
C288 C289 1.385 . S
C288 C290 1.381 . S
C288 N294 1.432 . S
C289 C288 1.385 . S
C289 C293 1.388 . S
C289 H347 0.929 . S
C290 C288 1.381 . S
C290 C291 1.371 . S
C290 H348 0.932 . S
C291 C290 1.371 . S
C291 C292 1.400 . S
C292 C291 1.400 . S
C292 C293 1.351 . S
C292 H349 0.930 . S
C293 C289 1.388 . S
C293 C292 1.351 . S
N294 C269 1.329 . S
N294 Co278 1.955 1_554 S
N294 C288 1.432 . S
N295 Co278 1.958 . S
N295 C279 1.324 . S
N295 C281 1.427 . S
N296 Co278 1.953 . S
N296 C297 1.436 . S
N296 C323 1.316 . S
C297 N296 1.436 . S
C297 C298 1.421 . S
C297 C299 1.360 . S
C298 C297 1.421 . S
C298 C300 1.379 . S
C298 H301 0.929 . S
C299 C297 1.360 . S
C299 C303 1.393 . S
C299 H305 0.931 . S
C300 C298 1.379 . S
C300 C302 1.417 . S
C300 C304 1.505 . S
H301 C298 0.929 . S
C302 C300 1.417 . S
C302 C303 1.352 . S
C302 H306 0.929 . S
C303 C299 1.393 . S
C303 C302 1.352 . S
C303 C307 1.482 . S
C304 C300 1.505 . S
C304 O308 1.259 . S
C304 O309 1.229 . S
H305 C299 0.931 . S
H306 C302 0.929 . S
C307 C303 1.482 . S
C307 O310 1.207 . S
C307 O311 1.289 . S
O308 C304 1.259 . S
O308 H312 0.822 . S
O309 C304 1.229 . S
O310 C307 1.207 . S
O311 C307 1.289 . S
O311 H313 0.819 . S
H312 O308 0.822 . S
H313 O311 0.819 . S
N314 Co278 1.869 . S
N314 C315 1.330 . S
N314 C319 1.325 . S
C315 N314 1.330 . S
C315 C316 1.359 . S
C315 C321 1.504 . S
C316 C315 1.359 . S
C316 C317 1.366 . S
C316 H350 0.929 1_556 S
C317 C316 1.366 . S
C317 C318 1.415 . S
C317 H351 0.932 . S
C318 C317 1.415 . S
C318 C319 1.366 . S
C318 H352 0.931 . S
C319 N314 1.325 . S
C319 C318 1.366 . S
C319 C323 1.516 . S
N320 Co278 1.974 . S
N320 C321 1.309 . S
N320 C326 1.423 1_556 S
C321 C315 1.504 . S
C321 N320 1.309 . S
C321 O322 1.258 1_556 S
O322 C321 1.258 1_554 S
C323 N296 1.316 . S
C323 C319 1.516 . S
C323 O336 1.263 . S
O324 Cd267 2.350 . S
O324 C340 1.270 . S
O325 Cd267 2.277 . S
O325 C340 1.248 . S
C326 N320 1.423 1_554 S
C326 C327 1.370 1_544 S
C326 C331 1.403 . S
C327 C326 1.370 1_566 S
C327 C328 1.389 1_556 S
C327 H353 0.931 . S
C328 C327 1.389 1_554 S
C328 C329 1.389 . S
C329 C328 1.389 . S
C329 C330 1.379 . S
C329 H354 0.929 . S
C330 C329 1.379 . S
C330 C331 1.405 1_565 S
C331 C326 1.403 . S
C331 C330 1.405 1_545 S
C331 H355 0.932 . S
O332 Cd267 2.173 . S
O332 C268 1.277 . S
O333 C268 1.230 . S
O333 Cd271 2.250 . S
O334 Cd267 2.263 . S
O334 C287 1.258 . S
O335 Cd271 2.308 . S
O335 C287 1.274 . S
O336 Cd267 2.366 . S
O336 C323 1.263 . S
C337 O338 1.235 . S
C337 O339 1.270 . S
O338 Cd271 2.352 . S
O338 C337 1.235 . S
O339 Cd267 2.329 . S
O339 C337 1.270 . S
C340 O324 1.270 . S
C340 O325 1.248 . S
H341 C273 0.930 1_565 S
H342 C276 0.930 1_554 S
H343 C277 0.931 . S
H344 C282 0.929 . S
H345 C284 0.930 . S
H346 C286 0.930 1_565 S
H347 C289 0.929 . S
H348 C290 0.932 . S
H349 C292 0.930 . S
H350 C316 0.929 1_554 S
H351 C317 0.932 . S
H352 C318 0.931 . S
H353 C327 0.931 . S
H354 C329 0.929 . S
H355 C331 0.932 . S
Cd356 O413 2.350 . S
Cd356 O414 2.277 . S
Cd356 O421 2.173 . S
Cd356 O423 2.263 . S
Cd356 O425 2.366 . S
Cd356 O428 2.329 . S
C357 O421 1.277 . S
C357 O422 1.230 . S
C358 O359 1.246 . S
C358 C361 1.481 . S
C358 N383 1.329 . S
O359 C358 1.246 . S
Cd360 O422 2.250 . S
Cd360 O424 2.308 . S
Cd360 O427 2.352 . S
C361 C358 1.481 . S
C361 N364 1.327 . S
C361 C365 1.407 . S
C362 C363 1.346 . S
C362 C366 1.390 . S
C362 H430 0.930 1_655 S
C363 C362 1.346 . S
C363 N364 1.342 . S
C363 C368 1.516 . S
N364 C361 1.327 . S
N364 C363 1.342 . S
N364 Co367 1.864 . S
C365 C361 1.407 . S
C365 C366 1.364 . S
C365 H431 0.930 . S
C366 C362 1.390 . S
C366 C365 1.364 . S
C366 H432 0.931 . S
Co367 N364 1.864 . S
Co367 N383 1.955 . S
Co367 N384 1.958 . S
Co367 N385 1.953 . S
Co367 N403 1.869 . S
Co367 N409 1.974 . S
C368 C363 1.516 . S
C368 O369 1.238 . S
C368 N384 1.324 . S
O369 C368 1.238 . S
C370 C371 1.394 . S
C370 C375 1.395 . S
C370 N384 1.427 . S
C371 C370 1.394 . S
C371 C372 1.380 . S
C371 H433 0.929 . S
C372 C371 1.380 . S
C372 C373 1.384 . S
C372 C376 1.495 . S
C373 C372 1.384 . S
C373 C374 1.382 . S
C373 H434 0.930 . S
C374 C373 1.382 . S
C374 C375 1.398 . S
C375 C370 1.395 . S
C375 C374 1.398 . S
C375 H435 0.930 1_655 S
C376 C372 1.495 . S
C376 O423 1.258 . S
C376 O424 1.274 . S
C377 C378 1.385 . S
C377 C379 1.381 . S
C377 N383 1.432 . S
C378 C377 1.385 . S
C378 C382 1.388 . S
C378 H436 0.929 . S
C379 C377 1.381 . S
C379 C380 1.371 . S
C379 H437 0.932 . S
C380 C379 1.371 . S
C380 C381 1.400 . S
C381 C380 1.400 . S
C381 C382 1.351 . S
C381 H438 0.930 . S
C382 C378 1.388 . S
C382 C381 1.351 . S
N383 C358 1.329 . S
N383 Co367 1.955 . S
N383 C377 1.432 . S
N384 Co367 1.958 . S
N384 C368 1.324 . S
N384 C370 1.427 . S
N385 Co367 1.953 . S
N385 C386 1.436 . S
N385 C412 1.316 . S
C386 N385 1.436 . S
C386 C387 1.421 . S
C386 C388 1.360 . S
C387 C386 1.421 . S
C387 C389 1.379 . S
C387 H390 0.929 . S
C388 C386 1.360 . S
C388 C392 1.393 . S
C388 H394 0.931 . S
C389 C387 1.379 . S
C389 C391 1.417 . S
C389 C393 1.505 . S
H390 C387 0.929 . S
C391 C389 1.417 . S
C391 C392 1.352 . S
C391 H395 0.929 . S
C392 C388 1.393 . S
C392 C391 1.352 . S
C392 C396 1.482 . S
C393 C389 1.505 . S
C393 O397 1.259 . S
C393 O398 1.229 . S
H394 C388 0.931 . S
H395 C391 0.929 . S
C396 C392 1.482 . S
C396 O399 1.207 . S
C396 O400 1.289 . S
O397 C393 1.259 . S
O397 H401 0.822 . S
O398 C393 1.229 . S
O399 C396 1.207 . S
O400 C396 1.289 . S
O400 H402 0.819 . S
H401 O397 0.822 . S
H402 O400 0.819 . S
N403 Co367 1.869 . S
N403 C404 1.330 . S
N403 C408 1.325 . S
C404 N403 1.330 . S
C404 C405 1.359 . S
C404 C410 1.504 . S
C405 C404 1.359 . S
C405 C406 1.366 . S
C405 H439 0.929 . S
C406 C405 1.366 . S
C406 C407 1.415 . S
C406 H440 0.932 . S
C407 C406 1.415 . S
C407 C408 1.366 . S
C407 H441 0.931 . S
C408 N403 1.325 . S
C408 C407 1.366 . S
C408 C412 1.516 . S
N409 Co367 1.974 . S
N409 C410 1.309 . S
N409 C415 1.423 . S
C410 C404 1.504 . S
C410 N409 1.309 . S
C410 O411 1.258 . S
O411 C410 1.258 . S
C412 N385 1.316 . S
C412 C408 1.516 . S
C412 O425 1.263 . S
O413 Cd356 2.350 . S
O413 C429 1.270 . S
O414 Cd356 2.277 . S
O414 C429 1.248 . S
C415 N409 1.423 . S
C415 C416 1.370 1_655 S
C415 C420 1.403 . S
C416 C415 1.370 1_455 S
C416 C417 1.389 . S
C416 H442 0.931 . S
C417 C416 1.389 . S
C417 C418 1.389 . S
C418 C417 1.389 . S
C418 C419 1.379 . S
C418 H443 0.929 . S
C419 C418 1.379 . S
C419 C420 1.405 1_455 S
C420 C415 1.403 . S
C420 C419 1.405 1_655 S
C420 H444 0.932 . S
O421 Cd356 2.173 . S
O421 C357 1.277 . S
O422 C357 1.230 . S
O422 Cd360 2.250 . S
O423 Cd356 2.263 . S
O423 C376 1.258 . S
O424 Cd360 2.308 . S
O424 C376 1.274 . S
O425 Cd356 2.366 . S
O425 C412 1.263 . S
C426 O427 1.235 . S
C426 O428 1.270 . S
O427 Cd360 2.352 . S
O427 C426 1.235 . S
O428 Cd356 2.329 . S
O428 C426 1.270 . S
C429 O413 1.270 . S
C429 O414 1.248 . S
H430 C362 0.930 1_455 S
H431 C365 0.930 . S
H432 C366 0.931 . S
H433 C371 0.929 . S
H434 C373 0.930 . S
H435 C375 0.930 1_455 S
H436 C378 0.929 . S
H437 C379 0.932 . S
H438 C381 0.930 . S
H439 C405 0.929 . S
H440 C406 0.932 . S
H441 C407 0.931 . S
H442 C416 0.931 . S
H443 C418 0.929 . S
H444 C420 0.932 . S
Cd445 O502 2.350 . S
Cd445 O503 2.277 . S
Cd445 O510 2.173 . S
Cd445 O512 2.263 . S
Cd445 O514 2.366 . S
Cd445 O517 2.329 . S
C446 O510 1.277 . S
C446 O511 1.230 . S
C447 O448 1.246 . S
C447 C450 1.481 . S
C447 N472 1.329 . S
O448 C447 1.246 . S
Cd449 O511 2.250 . S
Cd449 O513 2.308 . S
Cd449 O516 2.352 . S
C450 C447 1.481 . S
C450 N453 1.327 . S
C450 C454 1.407 . S
C451 C452 1.346 . S
C451 C455 1.390 . S
C451 H519 0.930 . S
C452 C451 1.346 . S
C452 N453 1.342 . S
C452 C457 1.516 . S
N453 C450 1.327 . S
N453 C452 1.342 . S
N453 Co456 1.864 . S
C454 C450 1.407 . S
C454 C455 1.364 . S
C454 H520 0.930 . S
C455 C451 1.390 . S
C455 C454 1.364 . S
C455 H521 0.931 . S
Co456 N453 1.864 . S
Co456 N472 1.955 . S
Co456 N473 1.958 . S
Co456 N474 1.953 . S
Co456 N492 1.869 . S
Co456 N498 1.974 . S
C457 C452 1.516 . S
C457 O458 1.238 . S
C457 N473 1.324 . S
O458 C457 1.238 . S
C459 C460 1.394 . S
C459 C464 1.395 . S
C459 N473 1.427 . S
C460 C459 1.394 . S
C460 C461 1.380 . S
C460 H522 0.929 . S
C461 C460 1.380 . S
C461 C462 1.384 . S
C461 C465 1.495 . S
C462 C461 1.384 . S
C462 C463 1.382 . S
C462 H523 0.930 . S
C463 C462 1.382 . S
C463 C464 1.398 . S
C464 C459 1.395 . S
C464 C463 1.398 . S
C464 H524 0.930 . S
C465 C461 1.495 . S
C465 O512 1.258 . S
C465 O513 1.274 . S
C466 C467 1.385 . S
C466 C468 1.381 . S
C466 N472 1.432 . S
C467 C466 1.385 . S
C467 C471 1.388 . S
C467 H525 0.929 . S
C468 C466 1.381 . S
C468 C469 1.371 . S
C468 H526 0.932 . S
C469 C468 1.371 . S
C469 C470 1.400 . S
C470 C469 1.400 . S
C470 C471 1.351 . S
C470 H527 0.930 . S
C471 C467 1.388 . S
C471 C470 1.351 . S
N472 C447 1.329 . S
N472 Co456 1.955 . S
N472 C466 1.432 . S
N473 Co456 1.958 . S
N473 C457 1.324 . S
N473 C459 1.427 . S
N474 Co456 1.953 . S
N474 C475 1.436 . S
N474 C501 1.316 . S
C475 N474 1.436 . S
C475 C476 1.421 . S
C475 C477 1.360 . S
C476 C475 1.421 . S
C476 C478 1.379 . S
C476 H479 0.929 . S
C477 C475 1.360 . S
C477 C481 1.393 . S
C477 H483 0.931 . S
C478 C476 1.379 . S
C478 C480 1.417 . S
C478 C482 1.505 . S
H479 C476 0.929 . S
C480 C478 1.417 . S
C480 C481 1.352 . S
C480 H484 0.929 . S
C481 C477 1.393 . S
C481 C480 1.352 . S
C481 C485 1.482 . S
C482 C478 1.505 . S
C482 O486 1.259 . S
C482 O487 1.229 . S
H483 C477 0.931 . S
H484 C480 0.929 . S
C485 C481 1.482 . S
C485 O488 1.207 . S
C485 O489 1.289 . S
O486 C482 1.259 . S
O486 H490 0.822 . S
O487 C482 1.229 . S
O488 C485 1.207 . S
O489 C485 1.289 . S
O489 H491 0.819 . S
H490 O486 0.822 . S
H491 O489 0.819 . S
N492 Co456 1.869 . S
N492 C493 1.330 . S
N492 C497 1.325 . S
C493 N492 1.330 . S
C493 C494 1.359 . S
C493 C499 1.504 . S
C494 C493 1.359 . S
C494 C495 1.366 . S
C494 H528 0.929 . S
C495 C494 1.366 . S
C495 C496 1.415 . S
C495 H529 0.932 . S
C496 C495 1.415 . S
C496 C497 1.366 . S
C496 H530 0.931 . S
C497 N492 1.325 . S
C497 C496 1.366 . S
C497 C501 1.516 . S
N498 Co456 1.974 . S
N498 C499 1.309 . S
N498 C504 1.423 . S
C499 C493 1.504 . S
C499 N498 1.309 . S
C499 O500 1.258 . S
O500 C499 1.258 . S
C501 N474 1.316 . S
C501 C497 1.516 . S
C501 O514 1.263 . S
O502 Cd445 2.350 . S
O502 C518 1.270 . S
O503 Cd445 2.277 . S
O503 C518 1.248 . S
C504 N498 1.423 . S
C504 C505 1.370 . S
C504 C509 1.403 . S
C505 C504 1.370 . S
C505 C506 1.389 . S
C505 H531 0.931 . S
C506 C505 1.389 . S
C506 C507 1.389 . S
C507 C506 1.389 . S
C507 C508 1.379 . S
C507 H532 0.929 . S
C508 C507 1.379 . S
C508 C509 1.405 . S
C509 C504 1.403 . S
C509 C508 1.405 . S
C509 H533 0.932 . S
O510 Cd445 2.173 . S
O510 C446 1.277 . S
O511 C446 1.230 . S
O511 Cd449 2.250 . S
O512 Cd445 2.263 . S
O512 C465 1.258 . S
O513 Cd449 2.308 . S
O513 C465 1.274 . S
O514 Cd445 2.366 . S
O514 C501 1.263 . S
C515 O516 1.235 . S
C515 O517 1.270 . S
O516 Cd449 2.352 . S
O516 C515 1.235 . S
O517 Cd445 2.329 . S
O517 C515 1.270 . S
C518 O502 1.270 . S
C518 O503 1.248 . S
H519 C451 0.930 . S
H520 C454 0.930 . S
H521 C455 0.931 . S
H522 C460 0.929 . S
H523 C462 0.930 . S
H524 C464 0.930 . S
H525 C467 0.929 . S
H526 C468 0.932 . S
H527 C470 0.930 . S
H528 C494 0.929 . S
H529 C495 0.932 . S
H530 C496 0.931 . S
H531 C505 0.931 . S
H532 C507 0.929 . S
H533 C509 0.932 . S
H534 C546 0.930 . S
H535 C548 0.930 . S
H536 C549 0.930 . S
H537 C553 0.959 . S
H538 C553 0.959 1_556 S
H539 C553 0.961 . S
H540 C554 0.960 . S
H541 C554 0.961 . S
H542 C554 0.959 . S
H543 C557 0.929 . S
H544 C558 0.931 . S
H545 C560 0.936 . S
C546 H534 0.930 . S
C546 C547 1.399 . S
C546 C551 1.399 . S
C547 C546 1.399 . S
C547 C548 1.376 . S
C548 H535 0.930 . S
C548 C547 1.376 . S
C548 C549 1.388 . S
C549 H536 0.930 . S
C549 C548 1.388 . S
C549 C550 1.390 . S
C550 C549 1.390 . S
C550 C551 1.394 . S
C550 C556 1.465 . S
C551 C546 1.399 . S
C551 C550 1.394 . S
C551 C552 1.516 . S
C552 C551 1.516 . S
C552 C553 1.502 . S
C552 C554 1.561 1_554 S
C552 C555 1.526 . S
C553 H537 0.959 . S
C553 H538 0.959 1_554 S
C553 H539 0.961 . S
C553 C552 1.502 . S
C554 H540 0.960 . S
C554 H541 0.961 . S
C554 H542 0.959 . S
C554 C552 1.561 1_556 S
C555 C552 1.526 . S
C555 C556 1.396 . S
C555 C560 1.385 1_554 S
C556 C550 1.465 . S
C556 C555 1.396 . S
C556 C557 1.399 . S
C557 H543 0.929 . S
C557 C556 1.399 . S
C557 C558 1.385 . S
C558 H544 0.931 . S
C558 C557 1.385 . S
C558 C559 1.389 . S
C559 C558 1.389 . S
C559 C560 1.384 1_554 S
C560 H545 0.936 . S
C560 C555 1.385 1_556 S
C560 C559 1.384 1_556 S
H561 C573 0.930 . S
H562 C575 0.930 . S
H563 C576 0.930 . S
H564 C580 0.959 . S
H565 C580 0.959 . S
H566 C580 0.961 . S
H567 C581 0.960 . S
H568 C581 0.961 . S
H569 C581 0.959 . S
H570 C584 0.929 . S
H571 C585 0.931 . S
H572 C587 0.930 . S
C573 H561 0.930 . S
C573 C574 1.399 . S
C573 C578 1.399 . S
C574 C573 1.399 . S
C574 C575 1.376 . S
C575 H562 0.930 . S
C575 C574 1.376 . S
C575 C576 1.388 . S
C576 H563 0.930 . S
C576 C575 1.388 . S
C576 C577 1.390 . S
C577 C576 1.390 . S
C577 C578 1.394 . S
C577 C583 1.465 . S
C578 C573 1.399 . S
C578 C577 1.394 . S
C578 C579 1.516 . S
C579 C578 1.516 . S
C579 C580 1.502 . S
C579 C581 1.561 . S
C579 C582 1.526 . S
C580 H564 0.959 . S
C580 H565 0.959 . S
C580 H566 0.961 . S
C580 C579 1.502 . S
C581 H567 0.960 . S
C581 H568 0.961 . S
C581 H569 0.959 . S
C581 C579 1.561 . S
C582 C579 1.526 . S
C582 C583 1.396 . S
C582 C587 1.390 . S
C583 C577 1.465 . S
C583 C582 1.396 . S
C583 C584 1.399 . S
C584 H570 0.929 . S
C584 C583 1.399 . S
C584 C585 1.385 . S
C585 H571 0.931 . S
C585 C584 1.385 . S
C585 C586 1.389 . S
C586 C585 1.389 . S
C586 C587 1.387 . S
C587 H572 0.930 . S
C587 C582 1.390 . S
C587 C586 1.387 . S
H588 C600 0.930 . S
H589 C602 0.930 . S
H590 C603 0.930 . S
H591 C607 0.959 . S
H592 C607 0.959 . S
H593 C607 0.961 . S
H594 C608 0.960 . S
H595 C608 0.961 . S
H596 C608 0.959 . S
H597 C611 0.929 . S
H598 C612 0.931 . S
H599 C614 0.930 . S
C600 H588 0.930 . S
C600 C601 1.399 . S
C600 C605 1.399 . S
C601 C600 1.399 . S
C601 C602 1.376 . S
C602 H589 0.930 . S
C602 C601 1.376 . S
C602 C603 1.388 . S
C603 H590 0.930 . S
C603 C602 1.388 . S
C603 C604 1.390 . S
C604 C603 1.390 . S
C604 C605 1.394 . S
C604 C610 1.465 . S
C605 C600 1.399 . S
C605 C604 1.394 . S
C605 C606 1.516 . S
C606 C605 1.516 . S
C606 C607 1.502 . S
C606 C608 1.561 . S
C606 C609 1.526 . S
C607 H591 0.959 . S
C607 H592 0.959 . S
C607 H593 0.961 . S
C607 C606 1.502 . S
C608 H594 0.960 . S
C608 H595 0.961 . S
C608 H596 0.959 . S
C608 C606 1.561 . S
C609 C606 1.526 . S
C609 C610 1.396 . S
C609 C614 1.390 . S
C610 C604 1.465 . S
C610 C609 1.396 . S
C610 C611 1.399 . S
C611 H597 0.929 . S
C611 C610 1.399 . S
C611 C612 1.385 . S
C612 H598 0.931 . S
C612 C611 1.385 . S
C612 C613 1.389 . S
C613 C612 1.389 . S
C613 C614 1.387 . S
C614 H599 0.930 . S
C614 C609 1.390 . S
C614 C613 1.387 . S
H615 C627 0.930 . S
H616 C629 0.930 . S
H617 C630 0.930 . S
H618 C634 0.959 . S
H619 C634 0.959 . S
H620 C634 0.961 . S
H621 C635 0.960 . S
H622 C635 0.961 . S
H623 C635 0.959 . S
H624 C638 0.929 1_554 S
H625 C639 0.931 . S
H626 C641 0.930 . S
C627 H615 0.930 . S
C627 C628 1.399 . S
C627 C632 1.399 . S
C628 C627 1.399 . S
C628 C629 1.376 . S
C629 H616 0.930 . S
C629 C628 1.376 . S
C629 C630 1.388 . S
C630 H617 0.930 . S
C630 C629 1.388 . S
C630 C631 1.390 . S
C631 C630 1.390 . S
C631 C632 1.394 . S
C631 C637 1.465 . S
C632 C627 1.399 . S
C632 C631 1.394 . S
C632 C633 1.516 . S
C633 C632 1.516 . S
C633 C634 1.502 . S
C633 C635 1.561 . S
C633 C636 1.526 . S
C634 H618 0.959 . S
C634 H619 0.959 . S
C634 H620 0.961 . S
C634 C633 1.502 . S
C635 H621 0.960 . S
C635 H622 0.961 . S
C635 H623 0.959 . S
C635 C633 1.561 . S
C636 C633 1.526 . S
C636 C637 1.396 . S
C636 C641 1.390 . S
C637 C631 1.465 . S
C637 C636 1.396 . S
C637 C638 1.399 . S
C638 H624 0.929 1_556 S
C638 C637 1.399 . S
C638 C639 1.385 1_556 S
C639 H625 0.931 . S
C639 C638 1.385 1_554 S
C639 C640 1.389 1_554 S
C640 C639 1.389 1_556 S
C640 C641 1.387 . S
C641 H626 0.930 . S
C641 C636 1.390 . S
C641 C640 1.387 . S
H642 C654 0.930 . S
H643 C656 0.930 . S
H644 C657 0.930 . S
H645 C661 0.959 . S
H646 C661 0.959 . S
H647 C661 0.961 . S
H648 C662 0.960 . S
H649 C662 0.961 . S
H650 C662 0.959 . S
H651 C665 0.929 . S
H652 C666 0.931 . S
H653 C668 0.930 . S
C654 H642 0.930 . S
C654 C655 1.399 . S
C654 C659 1.399 . S
C655 C654 1.399 . S
C655 C656 1.376 . S
C656 H643 0.930 . S
C656 C655 1.376 . S
C656 C657 1.388 . S
C657 H644 0.930 . S
C657 C656 1.388 . S
C657 C658 1.390 . S
C658 C657 1.390 . S
C658 C659 1.394 . S
C658 C664 1.465 . S
C659 C654 1.399 . S
C659 C658 1.394 . S
C659 C660 1.516 . S
C660 C659 1.516 . S
C660 C661 1.502 . S
C660 C662 1.561 . S
C660 C663 1.526 . S
C661 H645 0.959 . S
C661 H646 0.959 . S
C661 H647 0.961 . S
C661 C660 1.502 . S
C662 H648 0.960 . S
C662 H649 0.961 . S
C662 H650 0.959 . S
C662 C660 1.561 . S
C663 C660 1.526 . S
C663 C664 1.396 . S
C663 C668 1.390 . S
C664 C658 1.465 . S
C664 C663 1.396 . S
C664 C665 1.399 . S
C665 H651 0.929 . S
C665 C664 1.399 . S
C665 C666 1.385 . S
C666 H652 0.931 . S
C666 C665 1.385 . S
C666 C667 1.389 . S
C667 C666 1.389 . S
C667 C668 1.387 . S
C668 H653 0.930 . S
C668 C663 1.390 . S
C668 C667 1.387 . S
H669 C681 0.930 . S
H670 C683 0.930 . S
H671 C684 0.930 . S
H672 C688 0.959 . S
H673 C688 0.959 . S
H674 C688 0.961 . S
H675 C689 0.960 . S
H676 C689 0.961 . S
H677 C689 0.959 . S
H678 C692 0.929 . S
H679 C693 0.931 . S
H680 C695 0.930 . S
C681 H669 0.930 . S
C681 C682 1.399 . S
C681 C686 1.399 . S
C682 C681 1.399 . S
C682 C683 1.376 . S
C683 H670 0.930 . S
C683 C682 1.376 . S
C683 C684 1.388 . S
C684 H671 0.930 . S
C684 C683 1.388 . S
C684 C685 1.390 . S
C685 C684 1.390 . S
C685 C686 1.394 . S
C685 C691 1.465 . S
C686 C681 1.399 . S
C686 C685 1.394 . S
C686 C687 1.516 . S
C687 C686 1.516 . S
C687 C688 1.502 . S
C687 C689 1.561 . S
C687 C690 1.526 . S
C688 H672 0.959 . S
C688 H673 0.959 . S
C688 H674 0.961 . S
C688 C687 1.502 . S
C689 H675 0.960 . S
C689 H676 0.961 . S
C689 H677 0.959 . S
C689 C687 1.561 . S
C690 C687 1.526 . S
C690 C691 1.396 . S
C690 C695 1.390 . S
C691 C685 1.465 . S
C691 C690 1.396 . S
C691 C692 1.399 . S
C692 H678 0.929 . S
C692 C691 1.399 . S
C692 C693 1.385 . S
C693 H679 0.931 . S
C693 C692 1.385 . S
C693 C694 1.389 . S
C694 C693 1.389 . S
C694 C695 1.387 . S
C695 H680 0.930 . S
C695 C690 1.390 . S
C695 C694 1.387 . S
H696 C708 0.930 . S
H697 C710 0.930 . S
H698 C711 0.930 . S
H699 C715 0.959 . S
H700 C715 0.959 . S
H701 C715 0.961 . S
H702 C716 0.960 . S
H703 C716 0.961 . S
H704 C716 0.959 . S
H705 C719 0.929 . S
H706 C720 0.931 . S
H707 C722 0.930 . S
C708 H696 0.930 . S
C708 C709 1.399 . S
C708 C713 1.399 . S
C709 C708 1.399 . S
C709 C710 1.376 . S
C710 H697 0.930 . S
C710 C709 1.376 . S
C710 C711 1.388 . S
C711 H698 0.930 . S
C711 C710 1.388 . S
C711 C712 1.390 . S
C712 C711 1.390 . S
C712 C713 1.394 . S
C712 C718 1.465 . S
C713 C708 1.399 . S
C713 C712 1.394 . S
C713 C714 1.516 . S
C714 C713 1.516 . S
C714 C715 1.502 . S
C714 C716 1.561 . S
C714 C717 1.526 . S
C715 H699 0.959 . S
C715 H700 0.959 . S
C715 H701 0.961 . S
C715 C714 1.502 . S
C716 H702 0.960 . S
C716 H703 0.961 . S
C716 H704 0.959 . S
C716 C714 1.561 . S
C717 C714 1.526 . S
C717 C718 1.396 . S
C717 C722 1.390 . S
C718 C712 1.465 . S
C718 C717 1.396 . S
C718 C719 1.399 . S
C719 H705 0.929 . S
C719 C718 1.399 . S
C719 C720 1.385 . S
C720 H706 0.931 . S
C720 C719 1.385 . S
C720 C721 1.389 . S
C721 C720 1.389 . S
C721 C722 1.387 . S
C722 H707 0.930 . S
C722 C717 1.390 . S
C722 C721 1.387 . S
H723 C735 0.930 . S
H724 C737 0.930 . S
H725 C738 0.930 . S
H726 C742 0.959 . S
H727 C742 0.959 . S
H728 C742 0.961 . S
H729 C743 0.960 . S
H730 C743 0.961 . S
H731 C743 0.959 . S
H732 C746 0.929 . S
H733 C747 0.931 . S
H734 C749 0.930 . S
C735 H723 0.930 . S
C735 C736 1.399 . S
C735 C740 1.399 . S
C736 C735 1.399 . S
C736 C737 1.376 . S
C737 H724 0.930 . S
C737 C736 1.376 . S
C737 C738 1.388 . S
C738 H725 0.930 . S
C738 C737 1.388 . S
C738 C739 1.390 . S
C739 C738 1.390 . S
C739 C740 1.394 . S
C739 C745 1.465 . S
C740 C735 1.399 . S
C740 C739 1.394 . S
C740 C741 1.516 . S
C741 C740 1.516 . S
C741 C742 1.502 . S
C741 C743 1.561 . S
C741 C744 1.526 . S
C742 H726 0.959 . S
C742 H727 0.959 . S
C742 H728 0.961 . S
C742 C741 1.502 . S
C743 H729 0.960 . S
C743 H730 0.961 . S
C743 H731 0.959 . S
C743 C741 1.561 . S
C744 C741 1.526 . S
C744 C745 1.396 . S
C744 C749 1.390 . S
C745 C739 1.465 . S
C745 C744 1.396 . S
C745 C746 1.399 . S
C746 H732 0.929 . S
C746 C745 1.399 . S
C746 C747 1.385 . S
C747 H733 0.931 . S
C747 C746 1.385 . S
C747 C748 1.389 . S
C748 C747 1.389 . S
C748 C749 1.387 . S
C749 H734 0.930 . S
C749 C744 1.390 . S
C749 C748 1.387 . S
H750 C762 0.930 . S
H751 C764 0.930 . S
H752 C765 0.930 . S
H753 C769 0.959 . S
H754 C769 0.959 . S
H755 C769 0.961 . S
H756 C770 0.960 . S
H757 C770 0.961 . S
H758 C770 0.959 . S
H759 C773 0.929 . S
H760 C774 0.931 . S
H761 C776 0.930 . S
C762 H750 0.930 . S
C762 C763 1.399 . S
C762 C767 1.399 . S
C763 C762 1.399 . S
C763 C764 1.376 . S
C764 H751 0.930 . S
C764 C763 1.376 . S
C764 C765 1.388 . S
C765 H752 0.930 . S
C765 C764 1.388 . S
C765 C766 1.390 . S
C766 C765 1.390 . S
C766 C767 1.394 . S
C766 C772 1.465 . S
C767 C762 1.399 . S
C767 C766 1.394 . S
C767 C768 1.516 . S
C768 C767 1.516 . S
C768 C769 1.502 . S
C768 C770 1.561 . S
C768 C771 1.526 . S
C769 H753 0.959 . S
C769 H754 0.959 . S
C769 H755 0.961 . S
C769 C768 1.502 . S
C770 H756 0.960 . S
C770 H757 0.961 . S
C770 H758 0.959 . S
C770 C768 1.561 . S
C771 C768 1.526 . S
C771 C772 1.396 . S
C771 C776 1.390 . S
C772 C766 1.465 . S
C772 C771 1.396 . S
C772 C773 1.399 . S
C773 H759 0.929 . S
C773 C772 1.399 . S
C773 C774 1.385 . S
C774 H760 0.931 . S
C774 C773 1.385 . S
C774 C775 1.389 . S
C775 C774 1.389 . S
C775 C776 1.387 . S
C776 H761 0.930 . S
C776 C771 1.390 . S
C776 C775 1.387 . S
H777 C789 0.930 . S
H778 C791 0.930 . S
H779 C792 0.930 . S
H780 C796 0.959 . S
H781 C796 0.959 . S
H782 C796 0.961 . S
H783 C797 0.960 . S
H784 C797 0.961 . S
H785 C797 0.959 . S
H786 C800 0.929 . S
H787 C801 0.931 . S
H788 C803 0.930 . S
C789 H777 0.930 . S
C789 C790 1.399 . S
C789 C794 1.399 . S
C790 C789 1.399 . S
C790 C791 1.376 . S
C791 H778 0.930 . S
C791 C790 1.376 . S
C791 C792 1.388 . S
C792 H779 0.930 . S
C792 C791 1.388 . S
C792 C793 1.390 . S
C793 C792 1.390 . S
C793 C794 1.394 . S
C793 C799 1.465 . S
C794 C789 1.399 . S
C794 C793 1.394 . S
C794 C795 1.516 . S
C795 C794 1.516 . S
C795 C796 1.502 . S
C795 C797 1.561 . S
C795 C798 1.526 . S
C796 H780 0.959 . S
C796 H781 0.959 . S
C796 H782 0.961 . S
C796 C795 1.502 . S
C797 H783 0.960 . S
C797 H784 0.961 . S
C797 H785 0.959 . S
C797 C795 1.561 . S
C798 C795 1.526 . S
C798 C799 1.396 . S
C798 C803 1.390 . S
C799 C793 1.465 . S
C799 C798 1.396 . S
C799 C800 1.399 . S
C800 H786 0.929 . S
C800 C799 1.399 . S
C800 C801 1.385 . S
C801 H787 0.931 . S
C801 C800 1.385 . S
C801 C802 1.389 . S
C802 C801 1.389 . S
C802 C803 1.387 . S
C803 H788 0.930 . S
C803 C798 1.390 . S
C803 C802 1.387 . S
H804 C816 0.930 . S
H805 C818 0.930 . S
H806 C819 0.930 . S
H807 C823 0.959 . S
H808 C823 0.959 . S
H809 C823 0.961 . S
H810 C824 0.960 . S
H811 C824 0.961 . S
H812 C824 0.959 . S
H813 C827 0.929 . S
H814 C828 0.931 . S
H815 C830 0.930 . S
C816 H804 0.930 . S
C816 C817 1.399 . S
C816 C821 1.399 . S
C817 C816 1.399 . S
C817 C818 1.376 . S
C818 H805 0.930 . S
C818 C817 1.376 . S
C818 C819 1.388 . S
C819 H806 0.930 . S
C819 C818 1.388 . S
C819 C820 1.390 . S
C820 C819 1.390 . S
C820 C821 1.394 . S
C820 C826 1.465 . S
C821 C816 1.399 . S
C821 C820 1.394 . S
C821 C822 1.516 . S
C822 C821 1.516 . S
C822 C823 1.502 . S
C822 C824 1.561 . S
C822 C825 1.526 . S
C823 H807 0.959 . S
C823 H808 0.959 . S
C823 H809 0.961 . S
C823 C822 1.502 . S
C824 H810 0.960 . S
C824 H811 0.961 . S
C824 H812 0.959 . S
C824 C822 1.561 . S
C825 C822 1.526 . S
C825 C826 1.396 . S
C825 C830 1.390 . S
C826 C820 1.465 . S
C826 C825 1.396 . S
C826 C827 1.399 . S
C827 H813 0.929 . S
C827 C826 1.399 . S
C827 C828 1.385 . S
C828 H814 0.931 . S
C828 C827 1.385 . S
C828 C829 1.389 . S
C829 C828 1.389 . S
C829 C830 1.387 . S
C830 H815 0.930 . S
C830 C825 1.390 . S
C830 C829 1.387 . S
H831 C843 0.930 . S
H832 C845 0.930 . S
H833 C846 0.930 . S
H834 C850 0.959 . S
H835 C850 0.959 . S
H836 C850 0.961 . S
H837 C851 0.960 . S
H838 C851 0.961 . S
H839 C851 0.959 . S
H840 C854 0.929 . S
H841 C855 0.931 . S
H842 C857 0.930 . S
C843 H831 0.930 . S
C843 C844 1.399 . S
C843 C848 1.399 . S
C844 C843 1.399 . S
C844 C845 1.376 . S
C845 H832 0.930 . S
C845 C844 1.376 . S
C845 C846 1.388 . S
C846 H833 0.930 . S
C846 C845 1.388 . S
C846 C847 1.390 . S
C847 C846 1.390 . S
C847 C848 1.394 . S
C847 C853 1.465 . S
C848 C843 1.399 . S
C848 C847 1.394 . S
C848 C849 1.516 . S
C849 C848 1.516 . S
C849 C850 1.502 . S
C849 C851 1.561 . S
C849 C852 1.526 . S
C850 H834 0.959 . S
C850 H835 0.959 . S
C850 H836 0.961 . S
C850 C849 1.502 . S
C851 H837 0.960 . S
C851 H838 0.961 . S
C851 H839 0.959 . S
C851 C849 1.561 . S
C852 C849 1.526 . S
C852 C853 1.396 . S
C852 C857 1.390 . S
C853 C847 1.465 . S
C853 C852 1.396 . S
C853 C854 1.399 . S
C854 H840 0.929 . S
C854 C853 1.399 . S
C854 C855 1.385 . S
C855 H841 0.931 . S
C855 C854 1.385 . S
C855 C856 1.389 . S
C856 C855 1.389 . S
C856 C857 1.387 . S
C857 H842 0.930 . S
C857 C852 1.390 . S
C857 C856 1.387 . S
H858 C870 0.930 . S
H859 C872 0.930 . S
H860 C873 0.930 . S
H861 C877 0.959 . S
H862 C877 0.959 . S
H863 C877 0.961 . S
H864 C878 0.960 . S
H865 C878 0.961 . S
H866 C878 0.959 1_455 S
H867 C881 0.929 . S
H868 C882 0.931 . S
H869 C884 0.930 . S
C870 H858 0.930 . S
C870 C871 1.399 1_655 S
C870 C875 1.399 . S
C871 C870 1.399 1_455 S
C871 C872 1.376 . S
C872 H859 0.930 . S
C872 C871 1.376 . S
C872 C873 1.388 . S
C873 H860 0.930 . S
C873 C872 1.388 . S
C873 C874 1.390 . S
C874 C873 1.390 . S
C874 C875 1.394 1_455 S
C874 C880 1.465 . S
C875 C870 1.399 . S
C875 C874 1.394 1_655 S
C875 C876 1.516 . S
C876 C875 1.516 . S
C876 C877 1.502 . S
C876 C878 1.561 . S
C876 C879 1.526 . S
C877 H861 0.959 . S
C877 H862 0.959 . S
C877 H863 0.961 . S
C877 C876 1.502 . S
C878 H864 0.960 . S
C878 H865 0.961 . S
C878 H866 0.959 1_655 S
C878 C876 1.561 . S
C879 C876 1.526 . S
C879 C880 1.396 1_655 S
C879 C884 1.390 . S
C880 C874 1.465 . S
C880 C879 1.396 1_455 S
C880 C881 1.399 . S
C881 H867 0.929 . S
C881 C880 1.399 . S
C881 C882 1.385 . S
C882 H868 0.931 . S
C882 C881 1.385 . S
C882 C883 1.389 1_455 S
C883 C882 1.389 1_655 S
C883 C884 1.387 . S
C884 H869 0.930 . S
C884 C879 1.390 . S
C884 C883 1.387 . S
H885 C897 0.930 . S
H886 C899 0.930 . S
H887 C900 0.930 . S
H888 C904 0.959 . S
H889 C904 0.959 . S
H890 C904 0.961 . S
H891 C905 0.960 . S
H892 C905 0.961 . S
H893 C905 0.959 . S
H894 C908 0.929 . S
H895 C909 0.931 . S
H896 C911 0.930 . S
C897 H885 0.930 . S
C897 C898 1.399 . S
C897 C902 1.399 . S
C898 C897 1.399 . S
C898 C899 1.376 . S
C899 H886 0.930 . S
C899 C898 1.376 . S
C899 C900 1.388 . S
C900 H887 0.930 . S
C900 C899 1.388 . S
C900 C901 1.390 . S
C901 C900 1.390 . S
C901 C902 1.394 . S
C901 C907 1.465 . S
C902 C897 1.399 . S
C902 C901 1.394 . S
C902 C903 1.516 . S
C903 C902 1.516 . S
C903 C904 1.502 . S
C903 C905 1.561 . S
C903 C906 1.526 . S
C904 H888 0.959 . S
C904 H889 0.959 . S
C904 H890 0.961 . S
C904 C903 1.502 . S
C905 H891 0.960 . S
C905 H892 0.961 . S
C905 H893 0.959 . S
C905 C903 1.561 . S
C906 C903 1.526 . S
C906 C907 1.396 . S
C906 C911 1.390 . S
C907 C901 1.465 . S
C907 C906 1.396 . S
C907 C908 1.399 . S
C908 H894 0.929 . S
C908 C907 1.399 . S
C908 C909 1.385 . S
C909 H895 0.931 . S
C909 C908 1.385 . S
C909 C910 1.389 . S
C910 C909 1.389 . S
C910 C911 1.387 . S
C911 H896 0.930 . S
C911 C906 1.390 . S
C911 C910 1.387 . S
H912 C924 0.930 . S
H913 C926 0.930 . S
H914 C927 0.930 . S
H915 C931 0.959 . S
H916 C931 0.959 . S
H917 C931 0.961 . S
H918 C932 0.960 . S
H919 C932 0.961 . S
H920 C932 0.959 . S
H921 C935 0.929 . S
H922 C936 0.931 . S
H923 C938 0.930 . S
C924 H912 0.930 . S
C924 C925 1.399 1_565 S
C924 C929 1.399 . S
C925 C924 1.399 1_545 S
C925 C926 1.376 . S
C926 H913 0.930 . S
C926 C925 1.376 . S
C926 C927 1.388 . S
C927 H914 0.930 . S
C927 C926 1.388 . S
C927 C928 1.390 . S
C928 C927 1.390 . S
C928 C929 1.394 1_545 S
C928 C934 1.465 . S
C929 C924 1.399 . S
C929 C928 1.394 1_565 S
C929 C930 1.516 . S
C930 C929 1.516 . S
C930 C931 1.502 . S
C930 C932 1.561 . S
C930 C933 1.526 . S
C931 H915 0.959 . S
C931 H916 0.959 . S
C931 H917 0.961 . S
C931 C930 1.502 . S
C932 H918 0.960 . S
C932 H919 0.961 . S
C932 H920 0.959 . S
C932 C930 1.561 . S
C933 C930 1.526 . S
C933 C934 1.396 1_565 S
C933 C938 1.390 . S
C934 C928 1.465 . S
C934 C933 1.396 1_545 S
C934 C935 1.399 . S
C935 H921 0.929 . S
C935 C934 1.399 . S
C935 C936 1.385 . S
C936 H922 0.931 . S
C936 C935 1.385 . S
C936 C937 1.389 1_545 S
C937 C936 1.389 1_565 S
C937 C938 1.387 . S
C938 H923 0.930 . S
C938 C933 1.390 . S
C938 C937 1.387 . S
H939 C951 0.930 . S
H940 C953 0.930 . S
H941 C954 0.930 . S
H942 C958 0.959 . S
H943 C958 0.959 . S
H944 C958 0.961 . S
H945 C959 0.960 . S
H946 C959 0.961 . S
H947 C959 0.959 . S
H948 C962 0.929 . S
H949 C963 0.931 . S
H950 C965 0.930 . S
C951 H939 0.930 . S
C951 C952 1.399 . S
C951 C956 1.399 . S
C952 C951 1.399 . S
C952 C953 1.376 . S
C953 H940 0.930 . S
C953 C952 1.376 . S
C953 C954 1.388 . S
C954 H941 0.930 . S
C954 C953 1.388 . S
C954 C955 1.390 . S
C955 C954 1.390 . S
C955 C956 1.394 . S
C955 C961 1.465 . S
C956 C951 1.399 . S
C956 C955 1.394 . S
C956 C957 1.516 . S
C957 C956 1.516 . S
C957 C958 1.502 . S
C957 C959 1.561 . S
C957 C960 1.526 . S
C958 H942 0.959 . S
C958 H943 0.959 . S
C958 H944 0.961 . S
C958 C957 1.502 . S
C959 H945 0.960 . S
C959 H946 0.961 . S
C959 H947 0.959 . S
C959 C957 1.561 . S
C960 C957 1.526 . S
C960 C961 1.396 . S
C960 C965 1.390 . S
C961 C955 1.465 . S
C961 C960 1.396 . S
C961 C962 1.399 . S
C962 H948 0.929 . S
C962 C961 1.399 . S
C962 C963 1.385 . S
C963 H949 0.931 . S
C963 C962 1.385 . S
C963 C964 1.389 . S
C964 C963 1.389 . S
C964 C965 1.387 . S
C965 H950 0.930 . S
C965 C960 1.390 . S
C965 C964 1.387 . S
H966 C978 0.930 . S
H967 C980 0.930 . S
H968 C981 0.930 . S
H969 C985 0.959 . S
H970 C985 0.959 . S
H971 C985 0.961 . S
H972 C986 0.960 . S
H973 C986 0.961 . S
H974 C986 0.959 . S
H975 C989 0.929 . S
H976 C990 0.931 . S
H977 C992 0.930 . S
C978 H966 0.930 . S
C978 C979 1.399 . S
C978 C983 1.399 . S
C979 C978 1.399 . S
C979 C980 1.376 . S
C980 H967 0.930 . S
C980 C979 1.376 . S
C980 C981 1.388 . S
C981 H968 0.930 . S
C981 C980 1.388 . S
C981 C982 1.390 . S
C982 C981 1.390 . S
C982 C983 1.394 . S
C982 C988 1.465 . S
C983 C978 1.399 . S
C983 C982 1.394 . S
C983 C984 1.516 . S
C984 C983 1.516 . S
C984 C985 1.502 . S
C984 C986 1.561 . S
C984 C987 1.526 . S
C985 H969 0.959 . S
C985 H970 0.959 . S
C985 H971 0.961 . S
C985 C984 1.502 . S
C986 H972 0.960 . S
C986 H973 0.961 . S
C986 H974 0.959 . S
C986 C984 1.561 . S
C987 C984 1.526 . S
C987 C988 1.396 . S
C987 C992 1.390 . S
C988 C982 1.465 . S
C988 C987 1.396 . S
C988 C989 1.399 . S
C989 H975 0.929 . S
C989 C988 1.399 . S
C989 C990 1.385 . S
C990 H976 0.931 . S
C990 C989 1.385 . S
C990 C991 1.389 . S
C991 C990 1.389 . S
C991 C992 1.387 . S
C992 H977 0.930 . S
C992 C987 1.390 . S
C992 C991 1.387 . S
H993 C1005 0.930 . S
H994 C1007 0.930 . S
H995 C1008 0.930 . S
H996 C1012 0.959 . S
H997 C1012 0.959 . S
H998 C1012 0.961 . S
H999 C1013 0.960 . S
H1000 C1013 0.961 . S
H1001 C1013 0.959 . S
H1002 C1016 0.929 . S
H1003 C1017 0.931 . S
H1004 C1019 0.930 . S
C1005 H993 0.930 . S
C1005 C1006 1.399 . S
C1005 C1010 1.399 . S
C1006 C1005 1.399 . S
C1006 C1007 1.376 . S
C1007 H994 0.930 . S
C1007 C1006 1.376 . S
C1007 C1008 1.388 . S
C1008 H995 0.930 . S
C1008 C1007 1.388 . S
C1008 C1009 1.390 . S
C1009 C1008 1.390 . S
C1009 C1010 1.394 . S
C1009 C1015 1.465 . S
C1010 C1005 1.399 . S
C1010 C1009 1.394 . S
C1010 C1011 1.516 . S
C1011 C1010 1.516 . S
C1011 C1012 1.502 . S
C1011 C1013 1.561 . S
C1011 C1014 1.526 . S
C1012 H996 0.959 . S
C1012 H997 0.959 . S
C1012 H998 0.961 . S
C1012 C1011 1.502 . S
C1013 H999 0.960 . S
C1013 H1000 0.961 . S
C1013 H1001 0.959 . S
C1013 C1011 1.561 . S
C1014 C1011 1.526 . S
C1014 C1015 1.396 . S
C1014 C1019 1.390 . S
C1015 C1009 1.465 . S
C1015 C1014 1.396 . S
C1015 C1016 1.399 . S
C1016 H1002 0.929 . S
C1016 C1015 1.399 . S
C1016 C1017 1.385 . S
C1017 H1003 0.931 . S
C1017 C1016 1.385 . S
C1017 C1018 1.389 . S
C1018 C1017 1.389 . S
C1018 C1019 1.387 . S
C1019 H1004 0.930 . S
C1019 C1014 1.390 . S
C1019 C1018 1.387 . S
H1020 C1032 0.930 . S
H1021 C1034 0.930 . S
H1022 C1035 0.930 . S
H1023 C1039 0.959 . S
H1024 C1039 0.959 . S
H1025 C1039 0.961 . S
H1026 C1040 0.960 . S
H1027 C1040 0.961 . S
H1028 C1040 0.959 . S
H1029 C1043 0.929 . S
H1030 C1044 0.931 . S
H1031 C1046 0.930 . S
C1032 H1020 0.930 . S
C1032 C1033 1.399 . S
C1032 C1037 1.399 . S
C1033 C1032 1.399 . S
C1033 C1034 1.376 . S
C1034 H1021 0.930 . S
C1034 C1033 1.376 . S
C1034 C1035 1.388 . S
C1035 H1022 0.930 . S
C1035 C1034 1.388 . S
C1035 C1036 1.390 . S
C1036 C1035 1.390 . S
C1036 C1037 1.394 . S
C1036 C1042 1.465 . S
C1037 C1032 1.399 . S
C1037 C1036 1.394 . S
C1037 C1038 1.516 . S
C1038 C1037 1.516 . S
C1038 C1039 1.502 . S
C1038 C1040 1.561 . S
C1038 C1041 1.526 . S
C1039 H1023 0.959 . S
C1039 H1024 0.959 . S
C1039 H1025 0.961 . S
C1039 C1038 1.502 . S
C1040 H1026 0.960 . S
C1040 H1027 0.961 . S
C1040 H1028 0.959 . S
C1040 C1038 1.561 . S
C1041 C1038 1.526 . S
C1041 C1042 1.396 . S
C1041 C1046 1.390 . S
C1042 C1036 1.465 . S
C1042 C1041 1.396 . S
C1042 C1043 1.399 . S
C1043 H1029 0.929 . S
C1043 C1042 1.399 . S
C1043 C1044 1.385 . S
C1044 H1030 0.931 . S
C1044 C1043 1.385 . S
C1044 C1045 1.389 . S
C1045 C1044 1.389 . S
C1045 C1046 1.387 . S
C1046 H1031 0.930 . S
C1046 C1041 1.390 . S
C1046 C1045 1.387 . S
H1047 C1059 0.930 . S
H1048 C1061 0.930 . S
H1049 C1062 0.930 . S
H1050 C1066 0.959 . S
H1051 C1066 0.959 . S
H1052 C1066 0.961 . S
H1053 C1067 0.960 . S
H1054 C1067 0.961 . S
H1055 C1067 0.959 . S
H1056 C1070 0.929 . S
H1057 C1071 0.931 . S
H1058 C1073 0.930 . S
C1059 H1047 0.930 . S
C1059 C1060 1.399 . S
C1059 C1064 1.399 . S
C1060 C1059 1.399 . S
C1060 C1061 1.376 . S
C1061 H1048 0.930 . S
C1061 C1060 1.376 . S
C1061 C1062 1.388 . S
C1062 H1049 0.930 . S
C1062 C1061 1.388 . S
C1062 C1063 1.390 . S
C1063 C1062 1.390 . S
C1063 C1064 1.394 . S
C1063 C1069 1.465 . S
C1064 C1059 1.399 . S
C1064 C1063 1.394 . S
C1064 C1065 1.516 . S
C1065 C1064 1.516 . S
C1065 C1066 1.502 . S
C1065 C1067 1.561 . S
C1065 C1068 1.526 . S
C1066 H1050 0.959 . S
C1066 H1051 0.959 . S
C1066 H1052 0.961 . S
C1066 C1065 1.502 . S
C1067 H1053 0.960 . S
C1067 H1054 0.961 . S
C1067 H1055 0.959 . S
C1067 C1065 1.561 . S
C1068 C1065 1.526 . S
C1068 C1069 1.396 . S
C1068 C1073 1.390 . S
C1069 C1063 1.465 . S
C1069 C1068 1.396 . S
C1069 C1070 1.399 . S
C1070 H1056 0.929 . S
C1070 C1069 1.399 . S
C1070 C1071 1.385 . S
C1071 H1057 0.931 . S
C1071 C1070 1.385 . S
C1071 C1072 1.389 . S
C1072 C1071 1.389 . S
C1072 C1073 1.387 . S
C1073 H1058 0.930 . S
C1073 C1068 1.390 . S
C1073 C1072 1.387 . S
H1074 C1086 0.930 . S
H1075 C1088 0.930 . S
H1076 C1089 0.930 . S
H1077 C1093 0.959 . S
H1078 C1093 0.959 . S
H1079 C1093 0.961 . S
H1080 C1094 0.960 . S
H1081 C1094 0.961 . S
H1082 C1094 0.959 . S
H1083 C1097 0.929 . S
H1084 C1098 0.931 . S
H1085 C1100 0.930 . S
C1086 H1074 0.930 . S
C1086 C1087 1.399 . S
C1086 C1091 1.399 . S
C1087 C1086 1.399 . S
C1087 C1088 1.376 . S
C1088 H1075 0.930 . S
C1088 C1087 1.376 . S
C1088 C1089 1.388 . S
C1089 H1076 0.930 . S
C1089 C1088 1.388 . S
C1089 C1090 1.390 . S
C1090 C1089 1.390 . S
C1090 C1091 1.394 . S
C1090 C1096 1.465 . S
C1091 C1086 1.399 . S
C1091 C1090 1.394 . S
C1091 C1092 1.516 . S
C1092 C1091 1.516 . S
C1092 C1093 1.502 . S
C1092 C1094 1.561 . S
C1092 C1095 1.526 . S
C1093 H1077 0.959 . S
C1093 H1078 0.959 . S
C1093 H1079 0.961 . S
C1093 C1092 1.502 . S
C1094 H1080 0.960 . S
C1094 H1081 0.961 . S
C1094 H1082 0.959 . S
C1094 C1092 1.561 . S
C1095 C1092 1.526 . S
C1095 C1096 1.396 . S
C1095 C1100 1.390 . S
C1096 C1090 1.465 . S
C1096 C1095 1.396 . S
C1096 C1097 1.399 . S
C1097 H1083 0.929 . S
C1097 C1096 1.399 . S
C1097 C1098 1.385 . S
C1098 H1084 0.931 . S
C1098 C1097 1.385 . S
C1098 C1099 1.389 . S
C1099 C1098 1.389 . S
C1099 C1100 1.387 . S
C1100 H1085 0.930 . S
C1100 C1095 1.390 . S
C1100 C1099 1.387 . S
C547 C1 1.857 . S
C559 C328 1.605 . S
C574 C90 1.873 . S
C586 C417 1.693 . S
C601 C179 1.850 . S
C613 C506 1.592 . S
C628 C268 1.879 . S
C640 C61 1.684 . S
C655 C357 1.859 . S
C667 C150 1.608 . S
C682 C446 1.875 . S
C694 C239 1.655 . S
C709 C463 3.016 . S
C721 C73 2.959 . S
C736 C162 3.004 . S
C748 C285 3.021 1_565 S
C763 C374 3.013 1_455 S
C775 C251 2.959 . S
C790 C107 3.034 . S
C802 C340 2.985 . S
C817 C429 3.001 . S
C829 C196 3.000 1_545 S
C844 C18 3.005 1_655 S
C856 C518 3.004 . S
C871 C419 1.690 . S
C883 C63 1.669 . S
C898 C508 1.681 . S
C910 C152 1.689 . S
C925 C241 1.693 . S
C937 C330 1.673 . S
C952 C26 0.587 . S
C964 C159 0.869 . S
C979 C248 0.609 . S
C991 C115 0.798 . S
C1006 C70 0.786 . S
C1018 C204 0.776 . S
C1033 C515 0.852 . S
C1045 C293 0.594 . S
C1060 C337 0.749 . S
C1072 C382 0.662 . S
C1087 C471 0.767 . S
C1099 C426 0.798 . S
