# Generated by pormake.
# Topology lcv, (4)-cn, num edge types: 1
# Building blocks:
#     Node 0, Type 0, BuildingBlock: ESEHIV_clean_sbu_0, # of connection points: 4
#     Node 1, Type 0, BuildingBlock: ESEHIV_clean_sbu_0, # of connection points: 4
#     Node 2, Type 0, BuildingBlock: ESEHIV_clean_sbu_0, # of connection points: 4
#     Node 3, Type 0, BuildingBlock: ESEHIV_clean_sbu_0, # of connection points: 4
#     Node 4, Type 0, BuildingBlock: ESEHIV_clean_sbu_0, # of connection points: 4
#     Node 5, Type 0, BuildingBlock: ESEHIV_clean_sbu_0, # of connection points: 4
#     Node 6, Type 0, BuildingBlock: ESEHIV_clean_sbu_0, # of connection points: 4
#     Node 7, Type 0, BuildingBlock: ESEHIV_clean_sbu_0, # of connection points: 4
#     Node 8, Type 0, BuildingBlock: ESEHIV_clean_sbu_0, # of connection points: 4
#     Node 9, Type 0, BuildingBlock: ESEHIV_clean_sbu_0, # of connection points: 4
#     Node 10, Type 0, BuildingBlock: ESEHIV_clean_sbu_0, # of connection points: 4
#     Node 11, Type 0, BuildingBlock: ESEHIV_clean_sbu_0, # of connection points: 4
#     Edge 12, Type (0, 0), BuildingBlock: XIVTED_clean_linker_0, # of connection points: 2
#     Edge 13, Type (0, 0), BuildingBlock: XIVTED_clean_linker_0, # of connection points: 2
#     Edge 14, Type (0, 0), BuildingBlock: XIVTED_clean_linker_0, # of connection points: 2
#     Edge 15, Type (0, 0), BuildingBlock: XIVTED_clean_linker_0, # of connection points: 2
#     Edge 16, Type (0, 0), BuildingBlock: XIVTED_clean_linker_0, # of connection points: 2
#     Edge 17, Type (0, 0), BuildingBlock: XIVTED_clean_linker_0, # of connection points: 2
#     Edge 18, Type (0, 0), BuildingBlock: XIVTED_clean_linker_0, # of connection points: 2
#     Edge 19, Type (0, 0), BuildingBlock: XIVTED_clean_linker_0, # of connection points: 2
#     Edge 20, Type (0, 0), BuildingBlock: XIVTED_clean_linker_0, # of connection points: 2
#     Edge 21, Type (0, 0), BuildingBlock: XIVTED_clean_linker_0, # of connection points: 2
#     Edge 22, Type (0, 0), BuildingBlock: XIVTED_clean_linker_0, # of connection points: 2
#     Edge 23, Type (0, 0), BuildingBlock: XIVTED_clean_linker_0, # of connection points: 2
#     Edge 24, Type (0, 0), BuildingBlock: XIVTED_clean_linker_0, # of connection points: 2
#     Edge 25, Type (0, 0), BuildingBlock: XIVTED_clean_linker_0, # of connection points: 2
#     Edge 26, Type (0, 0), BuildingBlock: XIVTED_clean_linker_0, # of connection points: 2
#     Edge 27, Type (0, 0), BuildingBlock: XIVTED_clean_linker_0, # of connection points: 2
#     Edge 28, Type (0, 0), BuildingBlock: XIVTED_clean_linker_0, # of connection points: 2
#     Edge 29, Type (0, 0), BuildingBlock: XIVTED_clean_linker_0, # of connection points: 2
#     Edge 30, Type (0, 0), BuildingBlock: XIVTED_clean_linker_0, # of connection points: 2
#     Edge 31, Type (0, 0), BuildingBlock: XIVTED_clean_linker_0, # of connection points: 2
#     Edge 32, Type (0, 0), BuildingBlock: XIVTED_clean_linker_0, # of connection points: 2
#     Edge 33, Type (0, 0), BuildingBlock: XIVTED_clean_linker_0, # of connection points: 2
#     Edge 34, Type (0, 0), BuildingBlock: XIVTED_clean_linker_0, # of connection points: 2
#     Edge 35, Type (0, 0), BuildingBlock: XIVTED_clean_linker_0, # of connection points: 2
# Relax obj value: 0.158
# Max RMSD: 0.305
# Mean RMSD: 0.278
data_MOF--net-lcv--node1-ESEHIV_clean_sbu_0--edge1-XIVTED_clean_linker_0
_symmetry_space_group_name_H-M    P1
_symmetry_Int_Tables_number       1
_symmetry_cell_setting            triclinic
loop_
_symmetry_equiv_pos_as_xyz
'x, y, z'
_cell_length_a     49.931684
_cell_length_b     48.77931
_cell_length_c     49.405258
_cell_angle_alpha  95.534014
_cell_angle_beta   89.817471
_cell_angle_gamma 100.92439
loop_
_atom_site_label
_atom_site_type_symbol
_atom_site_fract_x
_atom_site_fract_y
_atom_site_fract_z
_atom_type_partial_charge
Cu0 Cu 0.05205 0.23987 0.19439 0.0
N1 N 0.05182 0.20603 0.2089 0.0
N2 N 0.06526 0.16636 0.21705 0.0
C3 C 0.07096 0.19016 0.2045 0.0
C4 C 0.04141 0.16739 0.22978 0.0
C5 C 0.03316 0.19188 0.22467 0.0
O6 O 0.07865 0.24204 0.16563 0.0
C7 C 0.04874 0.27547 0.24249 0.0
O8 O 0.02605 0.25766 0.24613 0.0
H9 H 0.0885 0.19593 0.19191 0.0
H10 H 0.01483 0.19882 0.23182 0.0
N11 N 0.01734 0.24084 0.18122 0.0
N12 N 0.97781 0.25491 0.17558 0.0
C13 C 0.00333 0.26176 0.1863 0.0
C14 C 1.00024 0.22007 0.16668 0.0
C15 C 0.97585 0.22871 0.16307 0.0
C16 C 0.09377 0.26485 0.16021 0.0
O17 O 0.08974 0.2887 0.17274 0.0
H18 H 0.0117 0.28153 0.19779 0.0
H19 H 0.00498 0.19983 0.15979 0.0
O20 O 0.06316 0.27107 0.22186 0.0
H21 H 0.03079 0.15181 0.2422 0.0
H22 H 0.95785 0.21632 0.15274 0.0
Cu23 Cu 0.1452 0.82815 0.49086 0.0
N24 N 0.13569 0.8594 0.47739 0.0
N25 N 0.13885 0.89924 0.45766 0.0
C26 C 0.15192 0.8788 0.46408 0.0
C27 C 0.11339 0.89227 0.46738 0.0
C28 C 0.11154 0.86773 0.47957 0.0
O29 O 0.1837 0.83774 0.50101 0.0
C30 C 0.14882 0.77513 0.46583 0.0
O31 O 0.16262 0.77403 0.48817 0.0
H32 H 0.17281 0.87769 0.45899 0.0
H33 H 0.09391 0.85681 0.48952 0.0
N34 N 0.12211 0.81799 0.5195 0.0
N35 N 0.08467 0.79817 0.54056 0.0
C36 C 0.09913 0.79828 0.51739 0.0
C37 C 0.12227 0.83089 0.54482 0.0
C38 C 0.09927 0.81864 0.55791 0.0
C39 C 0.19514 0.83183 0.5221 0.0
O40 O 0.18042 0.81768 0.54005 0.0
H41 H 0.09245 0.78536 0.4987 0.0
H42 H 0.13751 0.84861 0.55284 0.0
O43 O 0.13965 0.79721 0.46261 0.0
H44 H 0.09731 0.90419 0.46613 0.0
H45 H 0.09351 0.82477 0.57842 0.0
Cu46 Cu 0.69938 0.88687 0.72006 0.0
N47 N 0.7196 0.89984 0.75189 0.0
N48 N 0.74031 0.89231 0.78976 0.0
C49 C 0.73459 0.88375 0.76331 0.0
C50 C 0.72885 0.91518 0.7951 0.0
C51 C 0.7161 0.91984 0.77159 0.0
O52 O 0.71926 0.86158 0.6993 0.0
C53 C 0.65525 0.8673 0.75423 0.0
O54 O 0.67337 0.86389 0.77218 0.0
H55 H 0.73806 0.86399 0.75337 0.0
H56 H 0.70285 0.93476 0.76984 0.0
N57 N 0.69376 0.91517 0.69918 0.0
N58 N 0.67012 0.93516 0.67106 0.0
C59 C 0.66997 0.91348 0.68597 0.0
C60 C 0.70975 0.93899 0.69251 0.0
C61 C 0.69518 0.95131 0.67484 0.0
C62 C 0.74322 0.87275 0.69258 0.0
O63 O 0.7514 0.89989 0.69843 0.0
H64 H 0.65303 0.89606 0.68659 0.0
H65 H 0.7305 0.94671 0.69968 0.0
O66 O 0.66254 0.87014 0.7298 0.0
H67 H 0.72781 0.9263 0.815 0.0
H68 H 0.70237 0.97054 0.6656 0.0
Cu69 Cu 0.6223 0.35694 0.94243 0.0
N70 N 0.62083 0.38518 0.92008 0.0
N71 N 0.62906 0.42771 0.90521 0.0
C72 C 0.63115 0.41258 0.92631 0.0
C73 C 0.61689 0.40903 0.8849 0.0
C74 C 0.61178 0.38276 0.89419 0.0
O75 O 0.65976 0.3614 0.95501 0.0
C76 C 0.62319 0.30728 0.90692 0.0
O77 O 0.64861 0.31876 0.90244 0.0
H78 H 0.64107 0.421 0.94559 0.0
H79 H 0.60277 0.36319 0.8827 0.0
N80 N 0.60003 0.36132 0.97223 0.0
N81 N 0.56523 0.35359 1.00085 0.0
C82 C 0.57645 0.34437 0.97759 0.0
C83 C 0.60398 0.38198 0.99271 0.0
C84 C 0.58253 0.3773 0.01039 0.0
C85 C 0.66896 0.34277 0.96644 0.0
O86 O 0.65272 0.31875 0.9695 0.0
H87 H 0.56758 0.32588 0.96441 0.0
H88 H 0.62128 0.39919 0.99462 0.0
O89 O 0.60901 0.32039 0.92307 0.0
H90 H 0.61233 0.41392 0.86471 0.0
H91 H 0.58011 0.39018 0.029 0.0
Cu92 Cu 0.25439 0.03864 0.28754 0.0
N93 N 0.22496 0.02733 0.26344 0.0
N94 N 0.18885 0.03373 0.24004 0.0
C95 C 0.21358 0.04556 0.25082 0.0
C96 C 0.18461 0.00677 0.24586 0.0
C97 C 0.20705 0.00285 0.26028 0.0
O98 O 0.27257 0.07539 0.27843 0.0
C99 C 0.21637 0.03799 0.33096 0.0
O100 O 0.19949 0.04408 0.31313 0.0
H101 H 0.22204 0.06779 0.25205 0.0
H102 H 0.20914 0.98423 0.2697 0.0
N103 N 0.2784 0.01367 0.2846 0.0
N104 N 0.3088 0.9907 0.30028 0.0
C105 C 0.28769 0.00364 0.30637 0.0
C106 C 0.2939 0.00656 0.26372 0.0
C107 C 0.31289 0.99245 0.27342 0.0
C108 C 0.29832 0.0834 0.27756 0.0
O109 O 0.31438 0.06805 0.28712 0.0
H110 H 0.28063 0.00793 0.32679 0.0
H111 H 0.29278 0.01292 0.24344 0.0
O112 O 0.24106 0.03804 0.32449 0.0
H113 H 0.16601 0.99151 0.24148 0.0
H114 H 0.32919 0.9853 0.26196 0.0
Cu115 Cu 0.44159 0.94941 0.52808 0.0
N116 N 0.44228 0.96681 0.49608 0.0
N117 N 0.42883 0.97584 0.45529 0.0
C118 C 0.42165 0.96274 0.47783 0.0
C119 C 0.45512 0.98867 0.45964 0.0
C120 C 0.46338 0.98297 0.48478 0.0
O121 O 0.40836 0.92123 0.52667 0.0
C122 C 0.46212 0.9957 0.56564 0.0
O123 O 0.48201 0.99969 0.54815 0.0
H124 H 0.40209 0.94945 0.48068 0.0
H125 H 0.48357 0.98944 0.49379 0.0
N126 N 0.47267 0.93371 0.53012 0.0
N127 N 0.51247 0.92739 0.5465 0.0
C128 C 0.4886 0.93559 0.55239 0.0
C129 C 0.48674 0.92367 0.50941 0.0
C130 C 0.51135 0.91973 0.51947 0.0
C131 C 0.39392 0.91505 0.54726 0.0
O132 O 0.4028 0.92621 0.57161 0.0
H133 H 0.48357 0.94466 0.57217 0.0
H134 H 0.48022 0.92092 0.4883 0.0
O135 O 0.44176 0.97594 0.56001 0.0
H136 H 0.46761 1.00111 0.44564 0.0
H137 H 0.52748 0.91265 0.50766 0.0
Cu138 Cu 0.49927 0.06477 0.81662 0.0
N139 N 0.52057 0.03927 0.82536 0.0
N140 N 0.54189 0.0027 0.82262 0.0
C141 C 0.52647 0.01731 0.80935 0.0
C142 C 0.54573 0.01616 0.84793 0.0
C143 C 0.53251 0.0386 0.84956 0.0
O144 O 0.4897 0.05853 0.77823 0.0
C145 C 0.54364 0.11137 0.82735 0.0
O146 O 0.55945 0.09336 0.82001 0.0
H147 H 0.51926 0.01205 0.78853 0.0
H148 H 0.53167 0.05347 0.86711 0.0
N149 N 0.46732 0.05865 0.83641 0.0
N150 N 0.43523 0.06538 0.8666 0.0
C151 C 0.45953 0.07631 0.85617 0.0
C152 C 0.44739 0.03574 0.83417 0.0
C153 C 0.42755 0.0398 0.8528 0.0
C154 C 0.50633 0.06677 0.75983 0.0
O155 O 0.53096 0.08043 0.76686 0.0
H156 H 0.47172 0.09659 0.86298 0.0
H157 H 0.44734 0.01741 0.81996 0.0
O158 O 0.51786 0.10319 0.8267 0.0
H159 H 0.55763 0.01057 0.86409 0.0
H160 H 0.40879 0.02518 0.85566 0.0
Cu161 Cu 0.34092 0.22095 0.0769 0.0
N162 N 0.33479 0.18885 0.0525 0.0
N163 N 0.34162 0.15777 0.01816 0.0
C164 C 0.3513 0.18287 0.03212 0.0
C165 C 0.31805 0.14761 0.03035 0.0
C166 C 0.31388 0.16689 0.05153 0.0
O167 O 0.37687 0.24159 0.06937 0.0
C168 C 0.3548 0.1967 0.12363 0.0
O169 O 0.37549 0.19096 0.10911 0.0
H170 H 0.37033 0.1965 0.02803 0.0
H171 H 0.29688 0.16503 0.0653 0.0
N172 N 0.31383 0.24158 0.07197 0.0
N173 N 0.27355 0.25507 0.07584 0.0
C174 C 0.28849 0.23608 0.08193 0.0
C175 C 0.31506 0.26477 0.05896 0.0
C176 C 0.29023 0.27324 0.06143 0.0
C177 C 0.38699 0.26676 0.07817 0.0
O178 O 0.37282 0.28104 0.0947 0.0
H179 H 0.28143 0.21883 0.09402 0.0
H180 H 0.33283 0.27491 0.04866 0.0
O181 O 0.3383 0.21003 0.11359 0.0
H182 H 0.30464 0.12781 0.0243 0.0
H183 H 0.28486 0.29128 0.05319 0.0
Cu184 Cu 0.84655 0.4497 0.13078 0.0
N185 N 0.82156 0.47357 0.13 0.0
N186 N 0.80424 0.50722 0.11259 0.0
C187 C 0.82676 0.49651 0.1164 0.0
C188 C 0.7839 0.49024 0.12435 0.0
C189 C 0.79468 0.46941 0.13511 0.0
O190 O 0.84177 0.42851 0.09499 0.0
C191 C 0.8828 0.49125 0.15993 0.0
O192 O 0.85943 0.49624 0.16945 0.0
H193 H 0.84631 0.50368 0.10738 0.0
H194 H 0.78343 0.45147 0.14418 0.0
N195 N 0.84086 0.42427 0.15705 0.0
N196 N 0.85109 0.38841 0.17724 0.0
C197 C 0.85028 0.40015 0.15377 0.0
C198 C 0.8355 0.42816 0.18372 0.0
C199 C 0.84185 0.40597 0.19629 0.0
C200 C 0.82068 0.40898 0.09275 0.0
O201 O 0.8059 0.40373 0.11433 0.0
H202 H 0.85895 0.39282 0.13494 0.0
H203 H 0.82966 0.44684 0.19365 0.0
O204 O 0.88255 0.47208 0.14038 0.0
H205 H 0.7626 0.49193 0.12404 0.0
H206 H 0.84126 0.4038 0.21789 0.0
Cu207 Cu 0.05506 0.54015 0.35142 0.0
N208 N 0.0738 0.51057 0.34938 0.0
N209 N 0.08233 0.46745 0.33971 0.0
C210 C 0.06332 0.48382 0.34034 0.0
C211 C 0.10568 0.48464 0.34876 0.0
C212 C 0.10031 0.51128 0.35481 0.0
O213 O 0.03422 0.53695 0.31767 0.0
C214 C 0.07557 0.59834 0.35031 0.0
O215 O 0.05386 0.59771 0.33519 0.0
H216 H 0.04238 0.47678 0.33341 0.0
H217 H 0.11478 0.52993 0.36212 0.0
N218 N 0.03241 0.53753 0.38148 0.0
N219 N 0.01561 0.5485 0.42232 0.0
C220 C 0.03291 0.55738 0.40247 0.0
C221 C 0.0142 0.51525 0.38804 0.0
C222 C 0.00375 0.52195 0.41318 0.0
C223 C 0.01179 0.54544 0.31595 0.0
O224 O 1.00216 0.55774 0.33769 0.0
H225 H 0.04595 0.57785 0.40313 0.0
H226 H 0.00938 0.49535 0.37571 0.0
O227 O 0.08054 0.57553 0.35773 0.0
H228 H 0.12525 0.47848 0.35067 0.0
H229 H 0.98913 0.50795 0.42409 0.0
Cu230 Cu 0.91342 0.69117 0.62355 0.0
N231 N 0.94815 0.68371 0.61565 0.0
N232 N 0.9776 0.66233 0.59139 0.0
C233 C 0.95154 0.66092 0.5994 0.0
C234 C 0.99134 0.68685 0.60377 0.0
C235 C 0.97313 0.69999 0.61874 0.0
O236 O 0.89116 0.67968 0.59059 0.0
C237 C 0.90832 0.6764 0.67662 0.0
O238 O 0.93174 0.69409 0.67947 0.0
H239 H 0.93455 0.64504 0.59139 0.0
H240 H 0.97762 0.72073 0.62939 0.0
N241 N 0.91155 0.7284 0.63445 0.0
N242 N 0.89045 0.76432 0.64562 0.0
C243 C 0.88775 0.73747 0.63484 0.0
C244 C 0.93014 0.75024 0.64555 0.0
C245 C 0.91718 0.77255 0.65227 0.0
C246 C 0.89881 0.68473 0.56657 0.0
O247 O 0.88279 0.67341 0.54583 0.0
H248 H 0.8687 0.72431 0.6276 0.0
H249 H 0.95129 0.74983 0.64946 0.0
O250 O 0.89738 0.67039 0.65303 0.0
H251 H 0.01266 0.69551 0.60101 0.0
H252 H 0.92649 0.79282 0.66228 0.0
Cu253 Cu 0.78232 0.65876 0.89873 0.0
N254 N 0.77101 0.69324 0.90275 0.0
N255 N 0.7647 0.73598 0.8948 0.0
C256 C 0.77265 0.71215 0.88437 0.0
C257 C 0.75782 0.73173 0.92073 0.0
C258 C 0.76185 0.70546 0.92558 0.0
O259 O 0.80643 0.65792 0.86781 0.0
C260 C 0.7327 0.62332 0.9103 0.0
O261 O 0.73318 0.64107 0.93213 0.0
H262 H 0.77976 0.70852 0.86387 0.0
H263 H 0.75906 0.69621 0.94467 0.0
N264 N 0.80051 0.65464 0.93059 0.0
N265 N 0.80986 0.63831 0.96958 0.0
C266 C 0.79454 0.63343 0.94649 0.0
C267 C 0.82036 0.67355 0.9439 0.0
C268 C 0.82624 0.66352 0.96792 0.0
C269 C 0.79634 0.65121 0.84392 0.0
O270 O 0.7697 0.64477 0.84075 0.0
H271 H 0.77906 0.61494 0.94132 0.0
H272 H 0.82929 0.6936 0.93701 0.0
O273 O 0.7515 0.62782 0.89294 0.0
H274 H 0.75116 0.74682 0.93548 0.0
H275 H 0.84078 0.67446 0.98335 0.0
H276 H 0.04916 0.11234 0.22937 0.0
H277 H 0.19951 0.0791 0.21176 0.0
H278 H 0.11905 0.17089 0.20488 0.0
H279 H 0.13385 0.02368 0.24694 0.0
H280 H 0.16796 0.10977 0.2026 0.0
H281 H 0.07784 0.07702 0.23064 0.0
C282 C 0.07045 0.11787 0.22427 0.0
C283 C 0.08159 0.14486 0.21711 0.0
C284 C 0.16031 0.09078 0.21209 0.0
C285 C 0.11444 0.10425 0.21812 0.0
C286 C 0.17833 0.07325 0.21726 0.0
C287 C 0.16936 0.049 0.23038 0.0
C288 C 0.13306 0.08413 0.22021 0.0
C289 C 0.1416 0.04214 0.23671 0.0
C290 C 0.08677 0.09758 0.22482 0.0
C291 C 0.1093 0.15045 0.21024 0.0
N292 N 0.12447 0.05982 0.23187 0.0
N293 N 0.1247 0.13041 0.21101 0.0
H294 H 0.36641 0.89601 0.49923 0.0
H295 H 0.22589 0.83214 0.56827 0.0
H296 H 0.3572 0.89657 0.5862 0.0
H297 H 0.23252 0.8527 0.48516 0.0
H298 H 0.27517 0.84925 0.57451 0.0
H299 H 0.31868 0.87312 0.49307 0.0
C300 C 0.35446 0.89106 0.51706 0.0
C301 C 0.36585 0.89843 0.54331 0.0
C302 C 0.26579 0.84991 0.55491 0.0
C303 C 0.31097 0.87225 0.53633 0.0
C304 C 0.23769 0.8401 0.55131 0.0
C305 C 0.225 0.84112 0.52619 0.0
C306 C 0.28133 0.86051 0.53315 0.0
C307 C 0.24134 0.85167 0.50494 0.0
C308 C 0.32713 0.8781 0.51351 0.0
C309 C 0.34926 0.89143 0.5656 0.0
N310 N 0.26859 0.86091 0.5089 0.0
N311 N 0.32262 0.87883 0.56161 0.0
H312 H 0.54917 0.98518 0.76944 0.0
H313 H 0.63685 0.87347 0.80646 0.0
H314 H 0.5595 0.9643 0.85125 0.0
H315 H 0.61812 0.88707 0.72412 0.0
H316 H 0.6041 0.9023 0.82295 0.0
H317 H 0.57034 0.946 0.75223 0.0
C318 C 0.55556 0.97225 0.78384 0.0
C319 C 0.55276 0.97846 0.81196 0.0
C320 C 0.60682 0.89861 0.80124 0.0
C321 C 0.57742 0.9335 0.79226 0.0
C322 C 0.62545 0.88197 0.79177 0.0
C323 C 0.63071 0.8782 0.76385 0.0
C324 C 0.59349 0.91178 0.78269 0.0
C325 C 0.61511 0.88968 0.74584 0.0
C326 C 0.56775 0.94984 0.77394 0.0
C327 C 0.56174 0.96088 0.82949 0.0
N328 N 0.59759 0.90633 0.75559 0.0
N329 N 0.57386 0.93942 0.81938 0.0
H330 H 0.53997 0.29883 0.99374 0.0
H331 H 0.41434 0.32123 0.0894 0.0
H332 H 0.53283 0.37889 0.03566 0.0
H333 H 0.42147 0.24242 0.0448 0.0
H334 H 0.45841 0.3426 0.07149 0.0
H335 H 0.49713 0.27775 0.01351 0.0
C336 C 0.52937 0.31206 0.00698 0.0
C337 C 0.54009 0.34078 0.01287 0.0
C338 C 0.45033 0.32061 0.06571 0.0
C339 C 0.49091 0.31658 0.03596 0.0
C340 C 0.42518 0.30839 0.07596 0.0
C341 C 0.41411 0.27999 0.06857 0.0
C342 C 0.4645 0.30432 0.04795 0.0
C343 C 0.42911 0.26439 0.05104 0.0
C344 C 0.50492 0.29994 0.01843 0.0
C345 C 0.52556 0.35666 0.03068 0.0
N346 N 0.45344 0.27676 0.04133 0.0
N347 N 0.5017 0.34437 0.04152 0.0
H348 H 0.24482 0.01903 0.37034 0.0
H349 H 0.11038 0.92936 0.42888 0.0
H350 H 0.16312 0.02519 0.34681 0.0
H351 H 0.1921 0.92397 0.45296 0.0
H352 H 0.12919 0.9682 0.4026 0.0
H353 H 0.22585 0.98862 0.40487 0.0
C354 C 0.2229 0.01442 0.37273 0.0
C355 C 0.20554 0.02446 0.35538 0.0
C356 C 0.14301 0.95864 0.41378 0.0
C357 C 0.18364 0.98921 0.3947 0.0
C358 C 0.13226 0.93646 0.42891 0.0
C359 C 0.14964 0.92308 0.44304 0.0
C360 C 0.17141 0.96756 0.41266 0.0
C361 C 0.17789 0.93317 0.442 0.0
C362 C 0.21207 0.9969 0.3924 0.0
C363 C 0.17731 0.01781 0.35957 0.0
N364 N 0.18786 0.95466 0.42697 0.0
N365 N 0.16724 1.00033 0.37856 0.0
H366 H 0.51074 0.92336 0.60076 0.0
H367 H 0.6733 0.95478 0.62128 0.0
H368 H 0.56645 0.937 0.53435 0.0
H369 H 0.61648 0.92297 0.6818 0.0
H370 H 0.63464 0.95472 0.59047 0.0
H371 H 0.54957 0.9288 0.63201 0.0
C372 C 0.53116 0.92756 0.59276 0.0
C373 C 0.53532 0.9296 0.56488 0.0
C374 C 0.63068 0.94793 0.61057 0.0
C375 C 0.58 0.93591 0.60058 0.0
C376 C 0.65269 0.94822 0.62818 0.0
C377 C 0.64799 0.93867 0.65396 0.0
C378 C 0.6039 0.93832 0.61904 0.0
C379 C 0.62093 0.93012 0.66192 0.0
C380 C 0.55334 0.93059 0.61059 0.0
C381 C 0.56229 0.93484 0.55562 0.0
N382 N 0.59995 0.93008 0.64453 0.0
N383 N 0.58362 0.93788 0.57343 0.0
H384 H 0.57016 0.27974 0.90823 0.0
H385 H 0.59748 0.13736 0.82805 0.0
H386 H 0.64871 0.27022 0.87601 0.0
H387 H 0.51729 0.15239 0.8496 0.0
H388 H 0.61694 0.18547 0.84618 0.0
H389 H 0.55077 0.23268 0.88768 0.0
C390 C 0.58336 0.26778 0.89679 0.0
C391 C 0.61115 0.27898 0.89389 0.0
C392 C 0.59508 0.17826 0.84683 0.0
C393 C 0.58901 0.22487 0.87033 0.0
C394 C 0.58394 0.15077 0.83651 0.0
C395 C 0.55569 0.14076 0.83733 0.0
C396 C 0.57788 0.19584 0.85825 0.0
C397 C 0.53917 0.15915 0.84851 0.0
C398 C 0.57223 0.24088 0.885 0.0
C399 C 0.62718 0.26246 0.87876 0.0
N400 N 0.55052 0.18571 0.85862 0.0
N401 N 0.61591 0.2362 0.86765 0.0
H402 H 0.23353 0.21129 0.0854 0.0
H403 H 0.13153 0.30915 0.14511 0.0
H404 H 0.25061 0.30133 0.08532 0.0
H405 H 0.11161 0.21864 0.13637 0.0
H406 H 0.17414 0.30695 0.12115 0.0
H407 H 0.188 0.21369 0.10237 0.0
C408 C 0.22769 0.23159 0.08895 0.0
C409 C 0.24603 0.25617 0.08415 0.0
C410 C 0.16032 0.28759 0.12425 0.0
C411 C 0.19375 0.25911 0.10353 0.0
C412 C 0.13594 0.28882 0.1379 0.0
C413 C 0.118 0.26404 0.14295 0.0
C414 C 0.16691 0.26138 0.11573 0.0
C415 C 0.12482 0.23831 0.13306 0.0
C416 C 0.2016 0.23294 0.09849 0.0
C417 C 0.23712 0.28185 0.08862 0.0
N418 N 0.1488 0.23765 0.12017 0.0
N419 N 0.21171 0.28268 0.09829 0.0
H420 H 0.35099 0.0985 0.26067 0.0
H421 H 0.31121 0.20072 0.15656 0.0
H422 H 0.27137 0.12019 0.25559 0.0
H423 H 0.38519 0.16696 0.15155 0.0
H424 H 0.2998 0.17826 0.19824 0.0
H425 H 0.3672 0.13067 0.22654 0.0
C426 C 0.33703 0.11039 0.25278 0.0
C427 C 0.30967 0.10638 0.26083 0.0
C428 C 0.31864 0.17595 0.18816 0.0
C429 C 0.32808 0.14307 0.22156 0.0
C430 C 0.32522 0.18881 0.16435 0.0
C431 C 0.34909 0.18549 0.15032 0.0
C432 C 0.33605 0.15965 0.19814 0.0
C433 C 0.36648 0.16991 0.16153 0.0
C434 C 0.34628 0.12864 0.23315 0.0
C435 C 0.29256 0.1224 0.24985 0.0
N436 N 0.35952 0.1574 0.18467 0.0
N437 N 0.30197 0.13983 0.23062 0.0
H438 H 0.44568 0.98534 0.40385 0.0
H439 H 0.293 0.968 0.34677 0.0
H440 H 0.37345 0.96494 0.45178 0.0
H441 H 0.3639 0.99485 0.2991 0.0
H442 H 0.32267 0.96127 0.3837 0.0
H443 H 0.41664 0.98472 0.36396 0.0
C444 C 0.42378 0.98081 0.40609 0.0
C445 C 0.41208 0.97528 0.43139 0.0
C446 C 0.33183 0.96839 0.3651 0.0
C447 C 0.37871 0.97413 0.3856 0.0
C448 C 0.31487 0.97218 0.34401 0.0
C449 C 0.32602 0.98225 0.31997 0.0
C450 C 0.36026 0.97487 0.36228 0.0
C451 C 0.35448 0.98696 0.31726 0.0
C452 C 0.4072 0.98025 0.38321 0.0
C453 C 0.3835 0.96904 0.43278 0.0
N454 N 0.37067 0.98355 0.33832 0.0
N455 N 0.36787 0.96873 0.41029 0.0
H456 H 0.53659 0.08135 0.71528 0.0
H457 H 0.42727 0.98942 0.60864 0.0
H458 H 0.45802 0.03646 0.73804 0.0
H459 H 0.50534 0.03554 0.58599 0.0
H460 H 0.43644 0.00972 0.65564 0.0
H461 H 0.52401 0.06771 0.66748 0.0
C462 C 0.51663 0.06874 0.71025 0.0
C463 C 0.49841 0.05989 0.73075 0.0
C464 C 0.45146 0.01561 0.64034 0.0
C465 C 0.48387 0.04413 0.67596 0.0
C466 C 0.44619 0.00409 0.61346 0.0
C467 C 0.46565 0.01061 0.59334 0.0
C468 C 0.4764 0.03371 0.64721 0.0
C469 C 0.48979 0.02977 0.60082 0.0
C470 C 0.50945 0.06097 0.68291 0.0
C471 C 0.47278 0.04367 0.72294 0.0
N472 N 0.49457 0.04044 0.62717 0.0
N473 N 0.46635 0.03618 0.6962 0.0
H474 H 0.39771 0.03932 0.90045 0.0
H475 H 0.37691 0.18342 0.98229 0.0
H476 H 0.43931 0.12111 0.88184 0.0
H477 H 0.33518 0.10198 1.00171 0.0
H478 H 0.39925 0.16083 0.94489 0.0
H479 H 0.37366 0.06172 0.9368 0.0
C480 C 0.4017 0.06198 0.90385 0.0
C481 C 0.42068 0.0783 0.88801 0.0
C482 C 0.38518 0.14786 0.95729 0.0
C483 C 0.39333 0.10413 0.92986 0.0
C484 C 0.3725 0.16077 0.97881 0.0
C485 C 0.35421 0.14461 0.99538 0.0
C486 C 0.37963 0.1185 0.9522 0.0
C487 C 0.34893 0.11532 0.9894 0.0
C488 C 0.38804 0.07476 0.92473 0.0
C489 C 0.42522 0.10761 0.8937 0.0
N490 N 0.36165 0.10322 0.96838 0.0
N491 N 0.41168 0.11954 0.91413 0.0
H492 H 0.81673 0.43361 0.04572 0.0
H493 H 0.69484 0.30875 0.99383 0.0
H494 H 0.79643 0.35483 0.08065 0.0
H495 H 0.70699 0.39143 0.96615 0.0
H496 H 0.73879 0.32165 0.01778 0.0
H497 H 0.78422 0.41457 0.00825 0.0
C498 C 0.80625 0.41195 0.04488 0.0
C499 C 0.80909 0.39573 0.06624 0.0
C500 C 0.732 0.33689 0.00621 0.0
C501 C 0.77156 0.37411 0.02409 0.0
C502 C 0.70685 0.32952 0.99254 0.0
C503 C 0.69694 0.34918 0.97834 0.0
C504 C 0.74737 0.36416 0.00583 0.0
C505 C 0.71363 0.3757 0.97715 0.0
C506 C 0.78744 0.4012 0.02373 0.0
C507 C 0.79467 0.36799 0.06455 0.0
N508 N 0.73785 0.38253 0.991 0.0
N509 N 0.77628 0.35818 0.04408 0.0
H510 H 0.0363 0.42795 0.34094 0.0
H511 H 0.09593 0.31476 0.24347 0.0
H512 H 0.11985 0.44042 0.31479 0.0
H513 H 0.01765 0.29685 0.28197 0.0
H514 H 0.10555 0.36042 0.27022 0.0
H515 H 0.02932 0.37954 0.32016 0.0
C516 C 0.05319 0.42046 0.33087 0.0
C517 C 0.07863 0.43831 0.32941 0.0
C518 C 0.08637 0.34641 0.27301 0.0
C519 C 0.07084 0.38291 0.30558 0.0
C520 C 0.08085 0.32033 0.25772 0.0
C521 C 0.05587 0.302 0.26037 0.0
C522 C 0.06667 0.35438 0.29089 0.0
C523 C 0.03715 0.31031 0.27923 0.0
C524 C 0.04926 0.39278 0.31915 0.0
C525 C 0.09996 0.42736 0.31652 0.0
N526 N 0.04283 0.33599 0.29357 0.0
N527 N 0.09551 0.40045 0.30487 0.0
H528 H 0.93851 0.66935 0.53377 0.0
H529 H 0.04583 0.81151 0.57548 0.0
H530 H 0.91957 0.73898 0.58549 0.0
H531 H 0.06231 0.7469 0.51525 0.0
H532 H 1.00041 0.78394 0.58125 0.0
H533 H 0.98413 0.69686 0.52685 0.0
C534 C 0.94412 0.69038 0.54388 0.0
C535 C 0.92589 0.70148 0.56145 0.0
C536 C 0.01394 0.77577 0.56675 0.0
C537 C 0.97785 0.733 0.55375 0.0
C538 C 0.04003 0.79143 0.5636 0.0
C539 C 0.05803 0.78159 0.5448 0.0
C540 C 0.00565 0.74995 0.55107 0.0
C541 C 0.04906 0.75552 0.52972 0.0
C542 C 0.97014 0.70601 0.54005 0.0
C543 C 0.93377 0.72899 0.57352 0.0
N544 N 0.02354 0.74061 0.53319 0.0
N545 N 0.95923 0.74373 0.56968 0.0
H546 H 0.06921 0.65116 0.34086 0.0
H547 H 0.16535 0.72481 0.4665 0.0
H548 H 0.11733 0.60754 0.38796 0.0
H549 H 0.11751 0.76861 0.41929 0.0
H550 H 0.15166 0.68276 0.43499 0.0
H551 H 0.09062 0.69539 0.36605 0.0
C552 C 0.08454 0.6509 0.35625 0.0
C553 C 0.09127 0.62553 0.36247 0.0
C554 C 0.14431 0.70162 0.43138 0.0
C555 C 0.11569 0.67613 0.3916 0.0
C556 C 0.15211 0.72566 0.4494 0.0
C557 C 0.14238 0.75023 0.44568 0.0
C558 C 0.12654 0.70205 0.40952 0.0
C559 C 0.1254 0.75011 0.42305 0.0
C560 C 0.09672 0.67618 0.37068 0.0
C561 C 0.11138 0.62654 0.38255 0.0
N562 N 0.11786 0.72633 0.40596 0.0
N563 N 0.12266 0.65138 0.39658 0.0
H564 H 0.69609 0.6024 0.94803 0.0
H565 H 0.64848 0.45388 0.86105 0.0
H566 H 0.72436 0.58278 0.86708 0.0
H567 H 0.63452 0.46881 0.94695 0.0
H568 H 0.6701 0.50326 0.86061 0.0
H569 H 0.66721 0.5558 0.94553 0.0
C570 C 0.696 0.58844 0.92959 0.0
C571 C 0.71286 0.59645 0.90781 0.0
C572 C 0.66214 0.49575 0.87952 0.0
C573 C 0.67988 0.54298 0.90488 0.0
C574 C 0.64965 0.46761 0.87974 0.0
C575 C 0.63988 0.45715 0.90413 0.0
C576 C 0.66472 0.51362 0.90382 0.0
C577 C 0.64218 0.47588 0.92781 0.0
C578 C 0.67957 0.56177 0.92823 0.0
C579 C 0.71185 0.57742 0.88444 0.0
N580 N 0.65442 0.50316 0.92708 0.0
N581 N 0.69576 0.55153 0.88365 0.0
H582 H 0.72264 0.88575 0.8413 0.0
H583 H 0.79428 0.75338 0.85109 0.0
H584 H 0.77763 0.85901 0.78131 0.0
H585 H 0.73447 0.77618 0.90792 0.0
H586 H 0.79234 0.79504 0.82812 0.0
H587 H 0.73167 0.8498 0.86947 0.0
C588 C 0.73713 0.87278 0.83436 0.0
C589 C 0.74929 0.87525 0.80883 0.0
C590 C 0.77973 0.791 0.84571 0.0
C591 C 0.75926 0.83364 0.84067 0.0
C592 C 0.78066 0.76703 0.85874 0.0
C593 C 0.76433 0.76098 0.88141 0.0
C594 C 0.76231 0.80916 0.85532 0.0
C595 C 0.74756 0.77996 0.89067 0.0
C596 C 0.74205 0.85203 0.85031 0.0
C597 C 0.7676 0.85756 0.80072 0.0
N598 N 0.74688 0.80306 0.87751 0.0
N599 N 0.77183 0.83736 0.81643 0.0
H600 H 0.93487 0.25174 0.14104 0.0
H601 H 0.88281 0.38261 0.2202 0.0
H602 H 0.9726 0.29652 0.21502 0.0
H603 H 0.85098 0.34232 0.14236 0.0
H604 H 0.91168 0.34733 0.22208 0.0
H605 H 0.9003 0.28112 0.14428 0.0
C606 C 0.93581 0.26759 0.15809 0.0
C607 C 0.95688 0.27174 0.17765 0.0
C608 C 0.89814 0.34602 0.20473 0.0
C609 C 0.91732 0.30572 0.18144 0.0
C610 C 0.88147 0.36598 0.2038 0.0
C611 C 0.86465 0.36545 0.18099 0.0
C612 C 0.89784 0.32537 0.18274 0.0
C613 C 0.86395 0.34365 0.16014 0.0
C614 C 0.91608 0.28447 0.15988 0.0
C615 C 0.95709 0.29287 0.19917 0.0
N616 N 0.88043 0.32463 0.16141 0.0
N617 N 0.93769 0.30911 0.20044 0.0
H618 H 0.89469 0.82086 0.64892 0.0
H619 H 0.73735 0.81517 0.68564 0.0
H620 H 0.83682 0.74369 0.65367 0.0
H621 H 0.7947 0.89151 0.67535 0.0
H622 H 0.77286 0.78824 0.67227 0.0
H623 H 0.85786 0.84701 0.65777 0.0
C624 C 0.87427 0.80942 0.65187 0.0
C625 C 0.86889 0.78004 0.65051 0.0
C626 C 0.77757 0.81088 0.67276 0.0
C627 C 0.8265 0.80978 0.6605 0.0
C628 C 0.75727 0.82624 0.68028 0.0
C629 C 0.76308 0.85564 0.68177 0.0
C630 C 0.80384 0.82507 0.66676 0.0
C631 C 0.7893 0.86889 0.67468 0.0
C632 C 0.85319 0.82433 0.65675 0.0
C633 C 0.8419 0.76628 0.65416 0.0
N634 N 0.8087 0.85354 0.66767 0.0
N635 N 0.82177 0.78126 0.65909 0.0
H636 H 0.85204 0.66793 0.84205 0.0
H637 H 0.85606 0.64647 0.67919 0.0
H638 H 0.78115 0.63537 0.7907 0.0
H639 H 0.92556 0.68625 0.72983 0.0
H640 H 0.82957 0.63722 0.72013 0.0
H641 H 0.88038 0.67026 0.8015 0.0
C642 C 0.84244 0.66113 0.82229 0.0
C643 C 0.81412 0.6516 0.8198 0.0
C644 C 0.85069 0.64778 0.72229 0.0
C645 C 0.84647 0.65419 0.77327 0.0
C646 C 0.86588 0.65295 0.6989 0.0
C647 C 0.89305 0.66735 0.70103 0.0
C648 C 0.86272 0.65704 0.74806 0.0
C649 C 0.90464 0.67524 0.72717 0.0
C650 C 0.85864 0.66248 0.79913 0.0
C651 C 0.80285 0.64302 0.79363 0.0
N652 N 0.88938 0.67016 0.74962 0.0
N653 N 0.81902 0.64461 0.77143 0.0
H654 H 0.8492 0.63788 0.00737 0.0
H655 H 0.76119 0.51185 0.08072 0.0
H656 H 0.76671 0.59894 0.9831 0.0
H657 H 0.84335 0.55208 0.10447 0.0
H658 H 0.76124 0.54566 0.04708 0.0
H659 H 0.84616 0.60839 0.04478 0.0
C660 C 0.83037 0.62328 0.00994 0.0
C661 C 0.80824 0.62092 0.99185 0.0
C662 C 0.77917 0.54722 0.05982 0.0
C663 C 0.80467 0.58673 0.03476 0.0
C664 C 0.77906 0.52806 0.07919 0.0
C665 C 0.8024 0.529 0.09528 0.0
C666 C 0.80278 0.56747 0.05657 0.0
C667 C 0.82509 0.55031 0.09218 0.0
C668 C 0.82867 0.60632 0.03132 0.0
C669 C 0.78448 0.60125 0.99616 0.0
N670 N 0.82478 0.56854 0.07313 0.0
N671 N 0.78335 0.5849 0.01711 0.0
H672 H 0.93008 0.47058 0.16516 0.0
H673 H 0.96943 0.56978 0.30231 0.0
H674 H 0.89176 0.54038 0.19206 0.0
H675 H 0.01904 0.51119 0.27004 0.0
H676 H 0.94258 0.56066 0.26021 0.0
H677 H 0.96545 0.48696 0.20065 0.0
C678 C 0.92955 0.48976 0.17799 0.0
C679 C 0.90783 0.504 0.17587 0.0
C680 C 0.95947 0.54992 0.26216 0.0
C681 C 0.94767 0.52245 0.21673 0.0
C682 C 0.97475 0.55505 0.28631 0.0
C683 C 0.99639 0.54109 0.28981 0.0
C684 C 0.96555 0.53035 0.24136 0.0
C685 C 1.00247 0.52238 0.26822 0.0
C686 C 0.94958 0.49897 0.1984 0.0
C687 C 0.90796 0.52857 0.1932 0.0
N688 N 0.98693 0.51731 0.24502 0.0
N689 N 0.92729 0.53677 0.21307 0.0
H690 H 0.9733 0.53665 0.45705 0.0
H691 H 0.0206 0.67549 0.55765 0.0
H692 H 0.04811 0.59569 0.44711 0.0
H693 H 0.95526 0.60811 0.57493 0.0
H694 H 0.03153 0.64668 0.51745 0.0
H695 H 0.96641 0.56283 0.50014 0.0
C696 C 0.98843 0.55495 0.46386 0.0
C697 C 0.01134 0.56382 0.44807 0.0
C698 C 0.01494 0.63812 0.53019 0.0
C699 C 0.00328 0.5943 0.49764 0.0
C700 C 0.00881 0.65451 0.55334 0.0
C701 C 0.98672 0.6444 0.56968 0.0
C702 C 0.99888 0.61144 0.52324 0.0
C703 C 0.97205 0.61708 0.56269 0.0
C704 C 0.9844 0.56999 0.48856 0.0
C705 C 0.02992 0.5881 0.45812 0.0
N706 N 0.97823 0.60169 0.53993 0.0
N707 N 0.02542 0.60251 0.48215 0.0
loop_
_geom_bond_atom_site_label_1
_geom_bond_atom_site_label_2
_geom_bond_distance
_geom_bond_site_symmetry_2
_ccdc_geom_bond_type
Cu0 N1 1.999 . S
Cu0 O6 1.974 . S
Cu0 N11 1.985 . S
Cu0 O20 1.959 . S
N1 Cu0 1.999 . S
N1 C3 1.263 . S
N1 C5 1.389 . S
N2 C3 1.358 . S
N2 C4 1.400 . S
C3 N1 1.263 . S
C3 N2 1.358 . S
C3 H9 0.930 . S
C4 N2 1.400 . S
C4 C5 1.351 . S
C4 H21 0.930 . S
C5 N1 1.389 . S
C5 C4 1.351 . S
C5 H10 0.930 . S
O6 Cu0 1.974 . S
O6 C16 1.282 . S
C7 O8 1.261 . S
C7 O20 1.251 . S
O8 C7 1.261 . S
H9 C3 0.930 . S
H10 C5 0.930 . S
N11 Cu0 1.985 . S
N11 C13 1.335 1_455 S
N11 C14 1.390 . S
N12 C13 1.345 . S
N12 C15 1.336 1_655 S
C13 N11 1.335 1_655 S
C13 N12 1.345 . S
C13 H18 0.930 . S
C14 N11 1.390 . S
C14 C15 1.346 . S
C14 H19 0.930 . S
C15 N12 1.336 1_455 S
C15 C14 1.346 . S
C15 H22 0.929 . S
C16 O6 1.282 . S
C16 O17 1.216 . S
O17 C16 1.216 . S
H18 C13 0.930 . S
H19 C14 0.930 . S
O20 Cu0 1.959 . S
O20 C7 1.251 . S
H21 C4 0.930 . S
H22 C15 0.929 . S
Cu23 N24 1.999 . S
Cu23 O29 1.974 . S
Cu23 N34 1.985 . S
Cu23 O43 1.959 . S
N24 Cu23 1.999 . S
N24 C26 1.263 . S
N24 C28 1.389 . S
N25 C26 1.358 . S
N25 C27 1.400 . S
C26 N24 1.263 . S
C26 N25 1.358 . S
C26 H32 0.930 . S
C27 N25 1.400 . S
C27 C28 1.351 . S
C27 H44 0.930 . S
C28 N24 1.389 . S
C28 C27 1.351 . S
C28 H33 0.930 . S
O29 Cu23 1.974 . S
O29 C39 1.282 . S
C30 O31 1.261 . S
C30 O43 1.251 . S
O31 C30 1.261 . S
H32 C26 0.930 . S
H33 C28 0.930 . S
N34 Cu23 1.985 . S
N34 C36 1.335 . S
N34 C37 1.390 . S
N35 C36 1.345 . S
N35 C38 1.336 . S
C36 N34 1.335 . S
C36 N35 1.345 . S
C36 H41 0.930 . S
C37 N34 1.390 . S
C37 C38 1.346 . S
C37 H42 0.930 . S
C38 N35 1.336 . S
C38 C37 1.346 . S
C38 H45 0.929 . S
C39 O29 1.282 . S
C39 O40 1.216 . S
O40 C39 1.216 . S
H41 C36 0.930 . S
H42 C37 0.930 . S
O43 Cu23 1.959 . S
O43 C30 1.251 . S
H44 C27 0.930 . S
H45 C38 0.929 . S
Cu46 N47 1.999 . S
Cu46 O52 1.974 . S
Cu46 N57 1.985 . S
Cu46 O66 1.959 . S
N47 Cu46 1.999 . S
N47 C49 1.263 . S
N47 C51 1.389 . S
N48 C49 1.358 . S
N48 C50 1.400 . S
C49 N47 1.263 . S
C49 N48 1.358 . S
C49 H55 0.930 . S
C50 N48 1.400 . S
C50 C51 1.351 . S
C50 H67 0.930 . S
C51 N47 1.389 . S
C51 C50 1.351 . S
C51 H56 0.930 . S
O52 Cu46 1.974 . S
O52 C62 1.282 . S
C53 O54 1.261 . S
C53 O66 1.251 . S
O54 C53 1.261 . S
H55 C49 0.930 . S
H56 C51 0.930 . S
N57 Cu46 1.985 . S
N57 C59 1.335 . S
N57 C60 1.390 . S
N58 C59 1.345 . S
N58 C61 1.336 . S
C59 N57 1.335 . S
C59 N58 1.345 . S
C59 H64 0.930 . S
C60 N57 1.390 . S
C60 C61 1.346 . S
C60 H65 0.930 . S
C61 N58 1.336 . S
C61 C60 1.346 . S
C61 H68 0.929 . S
C62 O52 1.282 . S
C62 O63 1.216 . S
O63 C62 1.216 . S
H64 C59 0.930 . S
H65 C60 0.930 . S
O66 Cu46 1.959 . S
O66 C53 1.251 . S
H67 C50 0.930 . S
H68 C61 0.929 . S
Cu69 N70 1.999 . S
Cu69 O75 1.974 1_556 S
Cu69 N80 1.985 . S
Cu69 O89 1.959 . S
N70 Cu69 1.999 . S
N70 C72 1.263 . S
N70 C74 1.389 . S
N71 C72 1.358 . S
N71 C73 1.400 . S
C72 N70 1.263 . S
C72 N71 1.358 . S
C72 H78 0.930 . S
C73 N71 1.400 . S
C73 C74 1.351 . S
C73 H90 0.930 . S
C74 N70 1.389 . S
C74 C73 1.351 . S
C74 H79 0.930 . S
O75 Cu69 1.974 1_554 S
O75 C85 1.282 . S
C76 O77 1.261 . S
C76 O89 1.251 . S
O77 C76 1.261 . S
H78 C72 0.930 . S
H79 C74 0.930 . S
N80 Cu69 1.985 . S
N80 C82 1.335 . S
N80 C83 1.390 1_556 S
N81 C82 1.345 1_554 S
N81 C84 1.336 . S
C82 N80 1.335 . S
C82 N81 1.345 1_556 S
C82 H87 0.930 . S
C83 N80 1.390 1_554 S
C83 C84 1.346 . S
C83 H88 0.930 . S
C84 N81 1.336 . S
C84 C83 1.346 . S
C84 H91 0.929 . S
C85 O75 1.282 . S
C85 O86 1.216 . S
O86 C85 1.216 . S
H87 C82 0.930 . S
H88 C83 0.930 . S
O89 Cu69 1.959 . S
O89 C76 1.251 . S
H90 C73 0.930 . S
H91 C84 0.929 . S
Cu92 N93 1.999 . S
Cu92 O98 1.974 . S
Cu92 N103 1.985 . S
Cu92 O112 1.959 1_545 S
N93 Cu92 1.999 . S
N93 C95 1.263 . S
N93 C97 1.389 . S
N94 C95 1.358 . S
N94 C96 1.400 . S
C95 N93 1.263 . S
C95 N94 1.358 . S
C95 H101 0.930 . S
C96 N94 1.400 . S
C96 C97 1.351 . S
C96 H113 0.930 . S
C97 N93 1.389 . S
C97 C96 1.351 . S
C97 H102 0.930 . S
O98 Cu92 1.974 . S
O98 C108 1.282 . S
C99 O100 1.261 . S
C99 O112 1.251 . S
O100 C99 1.261 . S
H101 C95 0.930 . S
H102 C97 0.930 . S
N103 Cu92 1.985 . S
N103 C105 1.335 1_545 S
N103 C106 1.390 . S
N104 C105 1.345 . S
N104 C107 1.336 . S
C105 N103 1.335 1_565 S
C105 N104 1.345 . S
C105 H110 0.930 . S
C106 N103 1.390 . S
C106 C107 1.346 1_545 S
C106 H111 0.930 . S
C107 N104 1.336 . S
C107 C106 1.346 1_565 S
C107 H114 0.929 . S
C108 O98 1.282 . S
C108 O109 1.216 . S
O109 C108 1.216 . S
H110 C105 0.930 . S
H111 C106 0.930 . S
O112 Cu92 1.959 1_565 S
O112 C99 1.251 . S
H113 C96 0.930 . S
H114 C107 0.929 . S
Cu115 N116 1.999 . S
Cu115 O121 1.974 . S
Cu115 N126 1.985 . S
Cu115 O135 1.959 . S
N116 Cu115 1.999 . S
N116 C118 1.263 . S
N116 C120 1.389 1_565 S
N117 C118 1.358 . S
N117 C119 1.400 1_565 S
C118 N116 1.263 . S
C118 N117 1.358 . S
C118 H124 0.930 . S
C119 N117 1.400 1_545 S
C119 C120 1.351 . S
C119 H136 0.930 . S
C120 N116 1.389 1_545 S
C120 C119 1.351 . S
C120 H125 0.930 . S
O121 Cu115 1.974 . S
O121 C131 1.282 . S
C122 O123 1.261 1_545 S
C122 O135 1.251 1_545 S
O123 C122 1.261 1_565 S
H124 C118 0.930 . S
H125 C120 0.930 . S
N126 Cu115 1.985 . S
N126 C128 1.335 . S
N126 C129 1.390 . S
N127 C128 1.345 . S
N127 C130 1.336 . S
C128 N126 1.335 . S
C128 N127 1.345 . S
C128 H133 0.930 . S
C129 N126 1.390 . S
C129 C130 1.346 . S
C129 H134 0.930 . S
C130 N127 1.336 . S
C130 C129 1.346 . S
C130 H137 0.929 . S
C131 O121 1.282 . S
C131 O132 1.216 . S
O132 C131 1.216 . S
H133 C128 0.930 . S
H134 C129 0.930 . S
O135 Cu115 1.959 . S
O135 C122 1.251 1_565 S
H136 C119 0.930 . S
H137 C130 0.929 . S
Cu138 N139 1.999 . S
Cu138 O144 1.974 . S
Cu138 N149 1.985 . S
Cu138 O158 1.959 . S
N139 Cu138 1.999 . S
N139 C141 1.263 . S
N139 C143 1.389 . S
N140 C141 1.358 . S
N140 C142 1.400 . S
C141 N139 1.263 . S
C141 N140 1.358 . S
C141 H147 0.930 . S
C142 N140 1.400 . S
C142 C143 1.351 . S
C142 H159 0.930 . S
C143 N139 1.389 . S
C143 C142 1.351 . S
C143 H148 0.930 . S
O144 Cu138 1.974 . S
O144 C154 1.282 . S
C145 O146 1.261 . S
C145 O158 1.251 . S
O146 C145 1.261 . S
H147 C141 0.930 . S
H148 C143 0.930 . S
N149 Cu138 1.985 . S
N149 C151 1.335 . S
N149 C152 1.390 . S
N150 C151 1.345 . S
N150 C153 1.336 . S
C151 N149 1.335 . S
C151 N150 1.345 . S
C151 H156 0.930 . S
C152 N149 1.390 . S
C152 C153 1.346 . S
C152 H157 0.930 . S
C153 N150 1.336 . S
C153 C152 1.346 . S
C153 H160 0.929 . S
C154 O144 1.282 . S
C154 O155 1.216 . S
O155 C154 1.216 . S
H156 C151 0.930 . S
H157 C152 0.930 . S
O158 Cu138 1.959 . S
O158 C145 1.251 . S
H159 C142 0.930 . S
H160 C153 0.929 . S
Cu161 N162 1.999 1_554 S
Cu161 O167 1.966 1_554 S
Cu161 N172 1.985 . S
Cu161 O181 1.959 . S
N162 Cu161 1.999 1_556 S
N162 C164 1.263 . S
N162 C166 1.389 . S
N163 C164 1.358 . S
N163 C165 1.400 . S
C164 N162 1.263 . S
C164 N163 1.358 . S
C164 H170 0.930 . S
C165 N163 1.400 . S
C165 C166 1.351 . S
C165 H182 0.930 . S
C166 N162 1.389 . S
C166 C165 1.351 . S
C166 H171 0.930 . S
O167 Cu161 1.966 1_556 S
O167 C177 1.277 1_556 S
C168 O169 1.261 . S
C168 O181 1.251 . S
O169 C168 1.261 . S
H170 C164 0.930 . S
H171 C166 0.930 . S
N172 Cu161 1.985 . S
N172 C174 1.335 . S
N172 C175 1.390 . S
N173 C174 1.345 . S
N173 C176 1.336 . S
C174 N172 1.335 . S
C174 N173 1.345 . S
C174 H179 0.930 . S
C175 N172 1.390 . S
C175 C176 1.346 . S
C175 H180 0.930 . S
C176 N173 1.336 . S
C176 C175 1.346 . S
C176 H183 0.929 . S
C177 O167 1.277 1_554 S
C177 O178 1.216 . S
O178 C177 1.216 . S
H179 C174 0.930 . S
H180 C175 0.930 . S
O181 Cu161 1.959 . S
O181 C168 1.251 . S
H182 C165 0.930 . S
H183 C176 0.929 . S
Cu184 N185 1.999 . S
Cu184 O190 1.974 . S
Cu184 N195 1.985 . S
Cu184 O204 1.959 . S
N185 Cu184 1.999 . S
N185 C187 1.263 . S
N185 C189 1.389 . S
N186 C187 1.358 . S
N186 C188 1.400 . S
C187 N185 1.263 . S
C187 N186 1.358 . S
C187 H193 0.930 . S
C188 N186 1.400 . S
C188 C189 1.351 . S
C188 H205 0.930 . S
C189 N185 1.389 . S
C189 C188 1.351 . S
C189 H194 0.930 . S
O190 Cu184 1.974 . S
O190 C200 1.282 . S
C191 O192 1.261 . S
C191 O204 1.251 . S
O192 C191 1.261 . S
H193 C187 0.930 . S
H194 C189 0.930 . S
N195 Cu184 1.985 . S
N195 C197 1.335 . S
N195 C198 1.390 . S
N196 C197 1.345 . S
N196 C199 1.336 . S
C197 N195 1.335 . S
C197 N196 1.345 . S
C197 H202 0.930 . S
C198 N195 1.390 . S
C198 C199 1.346 . S
C198 H203 0.930 . S
C199 N196 1.336 . S
C199 C198 1.346 . S
C199 H206 0.929 . S
C200 O190 1.282 . S
C200 O201 1.216 . S
O201 C200 1.216 . S
H202 C197 0.930 . S
H203 C198 0.930 . S
O204 Cu184 1.959 . S
O204 C191 1.251 . S
H205 C188 0.930 . S
H206 C199 0.929 . S
Cu207 N208 1.999 1_655 S
Cu207 O213 1.974 . S
Cu207 N218 1.985 . S
Cu207 O227 1.959 1_655 S
N208 Cu207 1.999 1_455 S
N208 C210 1.263 . S
N208 C212 1.389 . S
N209 C210 1.358 . S
N209 C211 1.400 . S
C210 N208 1.263 . S
C210 N209 1.358 . S
C210 H216 0.930 1_455 S
C211 N209 1.400 . S
C211 C212 1.351 . S
C211 H228 0.930 . S
C212 N208 1.389 . S
C212 C211 1.351 . S
C212 H217 0.930 . S
O213 Cu207 1.974 . S
O213 C223 1.282 . S
C214 O215 1.261 . S
C214 O227 1.251 . S
O215 C214 1.261 . S
H216 C210 0.930 1_655 S
H217 C212 0.930 . S
N218 Cu207 1.985 . S
N218 C220 1.335 . S
N218 C221 1.390 . S
N219 C220 1.345 . S
N219 C222 1.336 . S
C220 N218 1.335 . S
C220 N219 1.345 . S
C220 H225 0.930 . S
C221 N218 1.390 . S
C221 C222 1.346 . S
C221 H226 0.930 . S
C222 N219 1.336 . S
C222 C221 1.346 . S
C222 H229 0.929 . S
C223 O213 1.282 . S
C223 O224 1.216 . S
O224 C223 1.216 . S
H225 C220 0.930 . S
H226 C221 0.930 . S
O227 Cu207 1.959 1_455 S
O227 C214 1.251 . S
H228 C211 0.930 . S
H229 C222 0.929 . S
Cu230 N231 1.999 . S
Cu230 O236 1.974 . S
Cu230 N241 1.985 . S
Cu230 O250 1.959 . S
N231 Cu230 1.999 . S
N231 C233 1.263 . S
N231 C235 1.389 . S
N232 C233 1.358 . S
N232 C234 1.400 . S
C233 N231 1.263 . S
C233 N232 1.358 . S
C233 H239 0.930 . S
C234 N232 1.400 . S
C234 C235 1.351 . S
C234 H251 0.930 . S
C235 N231 1.389 . S
C235 C234 1.351 . S
C235 H240 0.930 . S
O236 Cu230 1.974 . S
O236 C246 1.282 . S
C237 O238 1.261 . S
C237 O250 1.251 . S
O238 C237 1.261 . S
H239 C233 0.930 . S
H240 C235 0.930 . S
N241 Cu230 1.985 . S
N241 C243 1.335 . S
N241 C244 1.390 . S
N242 C243 1.345 . S
N242 C245 1.336 . S
C243 N241 1.335 . S
C243 N242 1.345 . S
C243 H248 0.930 . S
C244 N241 1.390 . S
C244 C245 1.346 . S
C244 H249 0.930 . S
C245 N242 1.336 . S
C245 C244 1.346 . S
C245 H252 0.929 . S
C246 O236 1.282 . S
C246 O247 1.222 . S
O247 C246 1.222 . S
H248 C243 0.930 . S
H249 C244 0.930 . S
O250 Cu230 1.959 . S
O250 C237 1.251 . S
H251 C234 0.930 . S
H252 C245 0.929 . S
Cu253 N254 1.999 . S
Cu253 O259 1.974 . S
Cu253 N264 1.985 . S
Cu253 O273 1.959 . S
N254 Cu253 1.999 . S
N254 C256 1.263 . S
N254 C258 1.389 . S
N255 C256 1.358 . S
N255 C257 1.400 . S
C256 N254 1.263 . S
C256 N255 1.358 . S
C256 H262 0.930 . S
C257 N255 1.400 . S
C257 C258 1.351 . S
C257 H274 0.930 . S
C258 N254 1.389 . S
C258 C257 1.351 . S
C258 H263 0.930 . S
O259 Cu253 1.974 . S
O259 C269 1.282 . S
C260 O261 1.261 . S
C260 O273 1.251 . S
O261 C260 1.261 . S
H262 C256 0.930 . S
H263 C258 0.930 . S
N264 Cu253 1.985 . S
N264 C266 1.335 . S
N264 C267 1.390 . S
N265 C266 1.345 . S
N265 C268 1.336 . S
C266 N264 1.335 . S
C266 N265 1.345 . S
C266 H271 0.930 . S
C267 N264 1.390 . S
C267 C268 1.346 . S
C267 H272 0.930 . S
C268 N265 1.336 . S
C268 C267 1.346 . S
C268 H275 0.929 . S
C269 O259 1.282 . S
C269 O270 1.216 . S
O270 C269 1.216 . S
H271 C266 0.930 . S
H272 C267 0.930 . S
O273 Cu253 1.959 . S
O273 C260 1.251 . S
H274 C257 0.930 . S
H275 C268 0.929 . S
H276 C282 0.930 . S
H277 C286 0.930 . S
H278 C291 0.929 . S
H279 C289 0.929 . S
H280 C284 0.929 . S
H281 C290 0.929 . S
C282 H276 0.930 . S
C282 C283 1.367 . S
C282 C290 1.378 . S
C283 C282 1.367 . S
C283 C291 1.433 . S
C284 H280 0.929 . S
C284 C286 1.378 . S
C284 C288 1.350 . S
C285 C288 1.463 . S
C285 C290 1.350 . S
C285 N293 1.427 . S
C286 H277 0.930 . S
C286 C284 1.378 . S
C286 C287 1.367 . S
C287 C286 1.367 . S
C287 C289 1.433 . S
C288 C284 1.350 . S
C288 C285 1.463 . S
C288 N292 1.427 . S
C289 H279 0.929 . S
C289 C287 1.433 . S
C289 N292 1.384 . S
C290 H281 0.929 . S
C290 C282 1.378 . S
C290 C285 1.350 . S
C291 H278 0.929 . S
C291 C283 1.433 . S
C291 N293 1.384 . S
N292 C288 1.427 . S
N292 C289 1.384 . S
N293 C285 1.427 . S
N293 C291 1.384 . S
H294 C300 0.930 . S
H295 C304 0.930 . S
H296 C309 0.929 . S
H297 C307 0.929 . S
H298 C302 0.929 . S
H299 C308 0.929 . S
C300 H294 0.930 . S
C300 C301 1.367 . S
C300 C308 1.378 . S
C301 C300 1.367 . S
C301 C309 1.433 . S
C302 H298 0.929 . S
C302 C304 1.378 . S
C302 C306 1.350 . S
C303 C306 1.463 . S
C303 C308 1.350 . S
C303 N311 1.427 . S
C304 H295 0.930 . S
C304 C302 1.378 . S
C304 C305 1.367 . S
C305 C304 1.367 . S
C305 C307 1.433 . S
C306 C302 1.350 . S
C306 C303 1.463 . S
C306 N310 1.427 . S
C307 H297 0.929 . S
C307 C305 1.433 . S
C307 N310 1.384 . S
C308 H299 0.929 . S
C308 C300 1.378 . S
C308 C303 1.350 . S
C309 H296 0.929 . S
C309 C301 1.433 . S
C309 N311 1.384 . S
N310 C306 1.427 . S
N310 C307 1.384 . S
N311 C303 1.427 . S
N311 C309 1.384 . S
H312 C318 0.930 . S
H313 C322 0.930 . S
H314 C327 0.929 . S
H315 C325 0.929 . S
H316 C320 0.929 . S
H317 C326 0.929 . S
C318 H312 0.930 . S
C318 C319 1.367 . S
C318 C326 1.378 . S
C319 C318 1.367 . S
C319 C327 1.433 . S
C320 H316 0.929 . S
C320 C322 1.378 . S
C320 C324 1.350 . S
C321 C324 1.463 . S
C321 C326 1.350 . S
C321 N329 1.427 . S
C322 H313 0.930 . S
C322 C320 1.378 . S
C322 C323 1.367 1_545 S
C323 C322 1.367 1_565 S
C323 C325 1.433 . S
C324 C320 1.350 . S
C324 C321 1.463 . S
C324 N328 1.427 1_545 S
C325 H315 0.929 . S
C325 C323 1.433 . S
C325 N328 1.384 . S
C326 H317 0.929 . S
C326 C318 1.378 . S
C326 C321 1.350 . S
C327 H314 0.929 . S
C327 C319 1.433 . S
C327 N329 1.384 . S
N328 C324 1.427 1_565 S
N328 C325 1.384 . S
N329 C321 1.427 . S
N329 C327 1.384 . S
H330 C336 0.930 . S
H331 C340 0.930 . S
H332 C345 0.929 . S
H333 C343 0.929 . S
H334 C338 0.929 . S
H335 C344 0.929 . S
C336 H330 0.930 . S
C336 C337 1.366 . S
C336 C344 1.378 . S
C337 C336 1.366 . S
C337 C345 1.434 1_556 S
C338 H334 0.929 . S
C338 C340 1.378 . S
C338 C342 1.367 . S
C339 C342 1.460 1_556 S
C339 C344 1.354 . S
C339 N347 1.423 1_556 S
C340 H331 0.930 . S
C340 C338 1.378 . S
C340 C341 1.377 . S
C341 C340 1.377 . S
C341 C343 1.422 1_554 S
C342 C338 1.367 . S
C342 C339 1.460 1_554 S
C342 N346 1.412 1_554 S
C343 H333 0.929 . S
C343 C341 1.422 1_556 S
C343 N346 1.384 . S
C344 H335 0.929 . S
C344 C336 1.378 . S
C344 C339 1.354 . S
C345 H332 0.929 . S
C345 C337 1.434 1_554 S
C345 N347 1.384 . S
N346 C342 1.412 1_556 S
N346 C343 1.384 . S
N347 C339 1.423 1_554 S
N347 C345 1.384 . S
H348 C354 0.930 . S
H349 C358 0.930 . S
H350 C363 0.929 . S
H351 C361 0.929 . S
H352 C356 0.929 . S
H353 C362 0.929 . S
C354 H348 0.930 . S
C354 C355 1.367 . S
C354 C362 1.378 . S
C355 C354 1.367 . S
C355 C363 1.433 . S
C356 H352 0.929 . S
C356 C358 1.378 . S
C356 C360 1.350 . S
C357 C360 1.463 . S
C357 C362 1.350 . S
C357 N365 1.427 . S
C358 H349 0.930 . S
C358 C356 1.378 . S
C358 C359 1.367 . S
C359 C358 1.367 . S
C359 C361 1.433 . S
C360 C356 1.350 . S
C360 C357 1.463 . S
C360 N364 1.427 . S
C361 H351 0.929 . S
C361 C359 1.433 . S
C361 N364 1.384 . S
C362 H353 0.929 . S
C362 C354 1.378 . S
C362 C357 1.350 . S
C363 H350 0.929 . S
C363 C355 1.433 . S
C363 N365 1.384 . S
N364 C360 1.427 . S
N364 C361 1.384 . S
N365 C357 1.427 . S
N365 C363 1.384 . S
H366 C372 0.930 . S
H367 C376 0.930 . S
H368 C381 0.929 . S
H369 C379 0.929 . S
H370 C374 0.929 . S
H371 C380 0.929 . S
C372 H366 0.930 . S
C372 C373 1.367 . S
C372 C380 1.378 . S
C373 C372 1.367 . S
C373 C381 1.433 . S
C374 H370 0.929 . S
C374 C376 1.378 . S
C374 C378 1.350 . S
C375 C378 1.463 . S
C375 C380 1.350 . S
C375 N383 1.427 . S
C376 H367 0.930 . S
C376 C374 1.378 . S
C376 C377 1.367 . S
C377 C376 1.367 . S
C377 C379 1.433 . S
C378 C374 1.350 . S
C378 C375 1.463 . S
C378 N382 1.427 . S
C379 H369 0.929 . S
C379 C377 1.433 . S
C379 N382 1.384 . S
C380 H371 0.929 . S
C380 C372 1.378 . S
C380 C375 1.350 . S
C381 H368 0.929 . S
C381 C373 1.433 . S
C381 N383 1.384 . S
N382 C378 1.427 . S
N382 C379 1.384 . S
N383 C375 1.427 . S
N383 C381 1.384 . S
H384 C390 0.930 . S
H385 C394 0.930 . S
H386 C399 0.929 . S
H387 C397 0.929 . S
H388 C392 0.929 . S
H389 C398 0.929 . S
C390 H384 0.930 . S
C390 C391 1.367 . S
C390 C398 1.378 . S
C391 C390 1.367 . S
C391 C399 1.433 . S
C392 H388 0.929 . S
C392 C394 1.378 . S
C392 C396 1.350 . S
C393 C396 1.463 . S
C393 C398 1.350 . S
C393 N401 1.427 . S
C394 H385 0.930 . S
C394 C392 1.378 . S
C394 C395 1.367 . S
C395 C394 1.367 . S
C395 C397 1.433 . S
C396 C392 1.350 . S
C396 C393 1.463 . S
C396 N400 1.427 . S
C397 H387 0.929 . S
C397 C395 1.433 . S
C397 N400 1.384 . S
C398 H389 0.929 . S
C398 C390 1.378 . S
C398 C393 1.350 . S
C399 H386 0.929 . S
C399 C391 1.433 . S
C399 N401 1.384 . S
N400 C396 1.427 . S
N400 C397 1.384 . S
N401 C393 1.427 . S
N401 C399 1.384 . S
H402 C408 0.930 . S
H403 C412 0.930 . S
H404 C417 0.929 . S
H405 C415 0.929 . S
H406 C410 0.929 . S
H407 C416 0.929 . S
C408 H402 0.930 . S
C408 C409 1.367 . S
C408 C416 1.378 . S
C409 C408 1.367 . S
C409 C417 1.433 . S
C410 H406 0.929 . S
C410 C412 1.378 . S
C410 C414 1.350 . S
C411 C414 1.463 . S
C411 C416 1.350 . S
C411 N419 1.427 . S
C412 H403 0.930 . S
C412 C410 1.378 . S
C412 C413 1.367 . S
C413 C412 1.367 . S
C413 C415 1.433 . S
C414 C410 1.350 . S
C414 C411 1.463 . S
C414 N418 1.427 . S
C415 H405 0.929 . S
C415 C413 1.433 . S
C415 N418 1.384 . S
C416 H407 0.929 . S
C416 C408 1.378 . S
C416 C411 1.350 . S
C417 H404 0.929 . S
C417 C409 1.433 . S
C417 N419 1.384 . S
N418 C414 1.427 . S
N418 C415 1.384 . S
N419 C411 1.427 . S
N419 C417 1.384 . S
H420 C426 0.930 . S
H421 C430 0.930 . S
H422 C435 0.929 . S
H423 C433 0.929 . S
H424 C428 0.929 . S
H425 C434 0.929 . S
C426 H420 0.930 . S
C426 C427 1.367 . S
C426 C434 1.378 . S
C427 C426 1.367 . S
C427 C435 1.433 . S
C428 H424 0.929 . S
C428 C430 1.378 . S
C428 C432 1.350 . S
C429 C432 1.463 . S
C429 C434 1.350 . S
C429 N437 1.427 . S
C430 H421 0.930 . S
C430 C428 1.378 . S
C430 C431 1.367 . S
C431 C430 1.367 . S
C431 C433 1.433 . S
C432 C428 1.350 . S
C432 C429 1.463 . S
C432 N436 1.427 . S
C433 H423 0.929 . S
C433 C431 1.433 . S
C433 N436 1.384 . S
C434 H425 0.929 . S
C434 C426 1.378 . S
C434 C429 1.350 . S
C435 H422 0.929 . S
C435 C427 1.433 . S
C435 N437 1.384 . S
N436 C432 1.427 . S
N436 C433 1.384 . S
N437 C429 1.427 . S
N437 C435 1.384 . S
H438 C444 0.930 . S
H439 C448 0.930 . S
H440 C453 0.928 . S
H441 C451 0.929 . S
H442 C446 0.929 1_545 S
H443 C452 0.929 . S
C444 H438 0.930 . S
C444 C445 1.367 . S
C444 C452 1.378 . S
C445 C444 1.367 . S
C445 C453 1.435 1_565 S
C446 H442 0.929 1_565 S
C446 C448 1.378 . S
C446 C450 1.350 . S
C447 C450 1.463 . S
C447 C452 1.350 . S
C447 N455 1.427 . S
C448 H439 0.930 . S
C448 C446 1.378 . S
C448 C449 1.367 . S
C449 C448 1.367 . S
C449 C451 1.433 . S
C450 C446 1.350 . S
C450 C447 1.463 . S
C450 N454 1.427 . S
C451 H441 0.929 . S
C451 C449 1.433 . S
C451 N454 1.384 . S
C452 H443 0.929 . S
C452 C444 1.378 . S
C452 C447 1.350 . S
C453 H440 0.928 . S
C453 C445 1.435 1_545 S
C453 N455 1.383 1_545 S
N454 C450 1.427 . S
N454 C451 1.384 . S
N455 C447 1.427 . S
N455 C453 1.383 1_565 S
H456 C462 0.930 . S
H457 C466 0.930 1_565 S
H458 C471 0.929 . S
H459 C469 0.929 . S
H460 C464 0.929 . S
H461 C470 0.929 . S
C462 H456 0.930 . S
C462 C463 1.367 . S
C462 C470 1.378 . S
C463 C462 1.367 . S
C463 C471 1.433 . S
C464 H460 0.929 . S
C464 C466 1.378 . S
C464 C468 1.350 . S
C465 C468 1.463 . S
C465 C470 1.350 . S
C465 N473 1.427 . S
C466 H457 0.930 1_545 S
C466 C464 1.378 . S
C466 C467 1.367 . S
C467 C466 1.367 . S
C467 C469 1.433 . S
C468 C464 1.350 . S
C468 C465 1.463 . S
C468 N472 1.427 . S
C469 H459 0.929 . S
C469 C467 1.433 . S
C469 N472 1.384 . S
C470 H461 0.929 . S
C470 C462 1.378 . S
C470 C465 1.350 . S
C471 H458 0.929 . S
C471 C463 1.433 . S
C471 N473 1.384 . S
N472 C468 1.427 . S
N472 C469 1.384 . S
N473 C465 1.427 . S
N473 C471 1.384 . S
H474 C480 0.930 . S
H475 C484 0.930 . S
H476 C489 0.929 . S
H477 C487 0.929 . S
H478 C482 0.929 . S
H479 C488 0.929 . S
C480 H474 0.930 . S
C480 C481 1.367 . S
C480 C488 1.378 . S
C481 C480 1.367 . S
C481 C489 1.433 . S
C482 H478 0.929 . S
C482 C484 1.378 . S
C482 C486 1.350 . S
C483 C486 1.463 . S
C483 C488 1.350 . S
C483 N491 1.427 . S
C484 H475 0.930 . S
C484 C482 1.378 . S
C484 C485 1.367 . S
C485 C484 1.367 . S
C485 C487 1.433 . S
C486 C482 1.350 . S
C486 C483 1.463 . S
C486 N490 1.427 . S
C487 H477 0.929 . S
C487 C485 1.433 . S
C487 N490 1.384 . S
C488 H479 0.929 . S
C488 C480 1.378 . S
C488 C483 1.350 . S
C489 H476 0.929 . S
C489 C481 1.433 . S
C489 N491 1.384 . S
N490 C486 1.427 . S
N490 C487 1.384 . S
N491 C483 1.427 . S
N491 C489 1.384 . S
H492 C498 0.930 . S
H493 C502 0.930 . S
H494 C507 0.929 . S
H495 C505 0.929 . S
H496 C500 0.929 . S
H497 C506 0.929 . S
C498 H492 0.930 . S
C498 C499 1.367 . S
C498 C506 1.378 . S
C499 C498 1.367 . S
C499 C507 1.433 . S
C500 H496 0.929 . S
C500 C502 1.378 . S
C500 C504 1.350 . S
C501 C504 1.463 . S
C501 C506 1.350 . S
C501 N509 1.427 . S
C502 H493 0.930 . S
C502 C500 1.378 . S
C502 C503 1.367 . S
C503 C502 1.367 . S
C503 C505 1.433 . S
C504 C500 1.350 . S
C504 C501 1.463 . S
C504 N508 1.427 . S
C505 H495 0.929 . S
C505 C503 1.433 . S
C505 N508 1.384 . S
C506 H497 0.929 . S
C506 C498 1.378 . S
C506 C501 1.350 . S
C507 H494 0.929 . S
C507 C499 1.433 . S
C507 N509 1.384 . S
N508 C504 1.427 . S
N508 C505 1.384 . S
N509 C501 1.427 . S
N509 C507 1.384 . S
H510 C516 0.937 . S
H511 C520 0.930 . S
H512 C525 0.929 . S
H513 C523 0.929 1_655 S
H514 C518 0.929 . S
H515 C524 0.929 1_655 S
C516 H510 0.937 . S
C516 C517 1.367 . S
C516 C524 1.378 . S
C517 C516 1.367 . S
C517 C525 1.433 . S
C518 H514 0.929 . S
C518 C520 1.378 . S
C518 C522 1.350 . S
C519 C522 1.463 . S
C519 C524 1.350 . S
C519 N527 1.427 . S
C520 H511 0.930 . S
C520 C518 1.378 . S
C520 C521 1.367 . S
C521 C520 1.367 . S
C521 C523 1.433 . S
C522 C518 1.350 . S
C522 C519 1.463 . S
C522 N526 1.427 . S
C523 H513 0.929 1_455 S
C523 C521 1.433 . S
C523 N526 1.384 . S
C524 H515 0.929 1_455 S
C524 C516 1.378 . S
C524 C519 1.350 . S
C525 H512 0.929 . S
C525 C517 1.433 . S
C525 N527 1.384 . S
N526 C522 1.427 . S
N526 C523 1.384 . S
N527 C519 1.427 . S
N527 C525 1.384 . S
H528 C534 0.930 1_655 S
H529 C538 0.930 . S
H530 C543 0.929 . S
H531 C541 0.929 . S
H532 C536 0.929 . S
H533 C542 0.929 . S
C534 H528 0.930 1_455 S
C534 C535 1.367 . S
C534 C542 1.378 . S
C535 C534 1.367 . S
C535 C543 1.433 . S
C536 H532 0.929 . S
C536 C538 1.378 . S
C536 C540 1.350 . S
C537 C540 1.463 . S
C537 C542 1.350 . S
C537 N545 1.427 . S
C538 H529 0.930 . S
C538 C536 1.378 . S
C538 C539 1.367 . S
C539 C538 1.367 . S
C539 C541 1.433 . S
C540 C536 1.350 . S
C540 C537 1.463 . S
C540 N544 1.427 . S
C541 H531 0.929 . S
C541 C539 1.433 . S
C541 N544 1.384 . S
C542 H533 0.929 . S
C542 C534 1.378 . S
C542 C537 1.350 . S
C543 H530 0.929 . S
C543 C535 1.433 . S
C543 N545 1.384 . S
N544 C540 1.427 . S
N544 C541 1.384 . S
N545 C537 1.427 . S
N545 C543 1.384 . S
H546 C552 0.930 . S
H547 C556 0.930 . S
H548 C561 0.929 . S
H549 C559 0.929 . S
H550 C554 0.929 . S
H551 C560 0.929 . S
C552 H546 0.930 . S
C552 C553 1.367 . S
C552 C560 1.378 . S
C553 C552 1.367 . S
C553 C561 1.433 . S
C554 H550 0.929 . S
C554 C556 1.378 . S
C554 C558 1.350 . S
C555 C558 1.463 . S
C555 C560 1.350 . S
C555 N563 1.427 . S
C556 H547 0.930 . S
C556 C554 1.378 . S
C556 C557 1.367 . S
C557 C556 1.367 . S
C557 C559 1.433 . S
C558 C554 1.350 . S
C558 C555 1.463 . S
C558 N562 1.427 . S
C559 H549 0.929 . S
C559 C557 1.433 . S
C559 N562 1.384 . S
C560 H551 0.929 . S
C560 C552 1.378 . S
C560 C555 1.350 . S
C561 H548 0.929 . S
C561 C553 1.433 . S
C561 N563 1.384 . S
N562 C558 1.427 . S
N562 C559 1.384 . S
N563 C555 1.427 . S
N563 C561 1.384 . S
H564 C570 0.930 . S
H565 C574 0.930 . S
H566 C579 0.929 . S
H567 C577 0.929 . S
H568 C572 0.929 . S
H569 C578 0.929 . S
C570 H564 0.930 . S
C570 C571 1.367 . S
C570 C578 1.378 . S
C571 C570 1.367 . S
C571 C579 1.433 . S
C572 H568 0.929 . S
C572 C574 1.378 . S
C572 C576 1.350 . S
C573 C576 1.463 . S
C573 C578 1.350 . S
C573 N581 1.427 . S
C574 H565 0.930 . S
C574 C572 1.378 . S
C574 C575 1.367 . S
C575 C574 1.367 . S
C575 C577 1.433 . S
C576 C572 1.350 . S
C576 C573 1.463 . S
C576 N580 1.427 . S
C577 H567 0.929 . S
C577 C575 1.433 . S
C577 N580 1.384 . S
C578 H569 0.929 . S
C578 C570 1.378 . S
C578 C573 1.350 . S
C579 H566 0.929 . S
C579 C571 1.433 . S
C579 N581 1.384 . S
N580 C576 1.427 . S
N580 C577 1.384 . S
N581 C573 1.427 . S
N581 C579 1.384 . S
H582 C588 0.930 . S
H583 C592 0.930 . S
H584 C597 0.929 . S
H585 C595 0.929 . S
H586 C590 0.929 . S
H587 C596 0.929 . S
C588 H582 0.930 . S
C588 C589 1.367 . S
C588 C596 1.378 . S
C589 C588 1.367 . S
C589 C597 1.433 . S
C590 H586 0.929 . S
C590 C592 1.378 . S
C590 C594 1.350 . S
C591 C594 1.463 . S
C591 C596 1.350 . S
C591 N599 1.427 . S
C592 H583 0.930 . S
C592 C590 1.378 . S
C592 C593 1.367 . S
C593 C592 1.367 . S
C593 C595 1.433 . S
C594 C590 1.350 . S
C594 C591 1.463 . S
C594 N598 1.427 . S
C595 H585 0.929 . S
C595 C593 1.433 . S
C595 N598 1.384 . S
C596 H587 0.929 . S
C596 C588 1.378 . S
C596 C591 1.350 . S
C597 H584 0.929 . S
C597 C589 1.433 . S
C597 N599 1.384 . S
N598 C594 1.427 . S
N598 C595 1.384 . S
N599 C591 1.427 . S
N599 C597 1.384 . S
H600 C606 0.930 . S
H601 C610 0.930 . S
H602 C615 0.929 . S
H603 C613 0.929 . S
H604 C608 0.929 . S
H605 C614 0.929 . S
C606 H600 0.930 . S
C606 C607 1.367 . S
C606 C614 1.378 . S
C607 C606 1.367 . S
C607 C615 1.433 . S
C608 H604 0.929 . S
C608 C610 1.378 . S
C608 C612 1.350 . S
C609 C612 1.463 . S
C609 C614 1.350 . S
C609 N617 1.427 . S
C610 H601 0.930 . S
C610 C608 1.378 . S
C610 C611 1.367 . S
C611 C610 1.367 . S
C611 C613 1.433 . S
C612 C608 1.350 . S
C612 C609 1.463 . S
C612 N616 1.427 . S
C613 H603 0.929 . S
C613 C611 1.433 . S
C613 N616 1.384 . S
C614 H605 0.929 . S
C614 C606 1.378 . S
C614 C609 1.350 . S
C615 H602 0.929 . S
C615 C607 1.433 . S
C615 N617 1.384 . S
N616 C612 1.427 . S
N616 C613 1.384 . S
N617 C609 1.427 . S
N617 C615 1.384 . S
H618 C624 0.930 . S
H619 C628 0.930 . S
H620 C633 0.929 . S
H621 C631 0.929 . S
H622 C626 0.929 . S
H623 C632 0.929 . S
C624 H618 0.930 . S
C624 C625 1.367 . S
C624 C632 1.378 . S
C625 C624 1.367 . S
C625 C633 1.433 . S
C626 H622 0.929 . S
C626 C628 1.378 . S
C626 C630 1.350 . S
C627 C630 1.463 . S
C627 C632 1.350 . S
C627 N635 1.427 . S
C628 H619 0.930 . S
C628 C626 1.378 . S
C628 C629 1.367 . S
C629 C628 1.367 . S
C629 C631 1.433 . S
C630 C626 1.350 . S
C630 C627 1.463 . S
C630 N634 1.427 . S
C631 H621 0.929 . S
C631 C629 1.433 . S
C631 N634 1.384 . S
C632 H623 0.929 . S
C632 C624 1.378 . S
C632 C627 1.350 . S
C633 H620 0.929 . S
C633 C625 1.433 . S
C633 N635 1.384 . S
N634 C630 1.427 . S
N634 C631 1.384 . S
N635 C627 1.427 . S
N635 C633 1.384 . S
H636 C642 0.930 . S
H637 C646 0.930 . S
H638 C651 0.929 . S
H639 C649 0.929 . S
H640 C644 0.929 . S
H641 C650 0.929 . S
C642 H636 0.930 . S
C642 C643 1.367 . S
C642 C650 1.378 . S
C643 C642 1.367 . S
C643 C651 1.433 . S
C644 H640 0.929 . S
C644 C646 1.378 . S
C644 C648 1.350 . S
C645 C648 1.463 . S
C645 C650 1.350 . S
C645 N653 1.427 . S
C646 H637 0.930 . S
C646 C644 1.378 . S
C646 C647 1.367 . S
C647 C646 1.367 . S
C647 C649 1.433 . S
C648 C644 1.350 . S
C648 C645 1.463 . S
C648 N652 1.427 . S
C649 H639 0.929 . S
C649 C647 1.433 . S
C649 N652 1.384 . S
C650 H641 0.929 . S
C650 C642 1.378 . S
C650 C645 1.350 . S
C651 H638 0.929 . S
C651 C643 1.433 . S
C651 N653 1.384 . S
N652 C648 1.427 . S
N652 C649 1.384 . S
N653 C645 1.427 . S
N653 C651 1.384 . S
H654 C660 0.930 . S
H655 C664 0.930 . S
H656 C669 0.929 . S
H657 C667 0.929 . S
H658 C662 0.929 . S
H659 C668 0.929 . S
C660 H654 0.930 . S
C660 C661 1.367 . S
C660 C668 1.378 1_556 S
C661 C660 1.367 . S
C661 C669 1.433 1_556 S
C662 H658 0.929 . S
C662 C664 1.378 . S
C662 C666 1.350 . S
C663 C666 1.463 . S
C663 C668 1.350 . S
C663 N671 1.427 . S
C664 H655 0.930 . S
C664 C662 1.378 . S
C664 C665 1.367 . S
C665 C664 1.367 . S
C665 C667 1.433 . S
C666 C662 1.350 . S
C666 C663 1.463 . S
C666 N670 1.427 . S
C667 H657 0.929 . S
C667 C665 1.433 . S
C667 N670 1.384 . S
C668 H659 0.929 . S
C668 C660 1.378 1_554 S
C668 C663 1.350 . S
C669 H656 0.929 . S
C669 C661 1.433 1_554 S
C669 N671 1.384 . S
N670 C666 1.427 . S
N670 C667 1.384 . S
N671 C663 1.427 . S
N671 C669 1.384 . S
H672 C678 0.930 . S
H673 C682 0.930 . S
H674 C687 0.929 . S
H675 C685 0.929 . S
H676 C680 0.929 . S
H677 C686 0.929 . S
C678 H672 0.930 . S
C678 C679 1.367 . S
C678 C686 1.378 . S
C679 C678 1.367 . S
C679 C687 1.433 . S
C680 H676 0.929 . S
C680 C682 1.378 . S
C680 C684 1.350 . S
C681 C684 1.463 . S
C681 C686 1.350 . S
C681 N689 1.427 . S
C682 H673 0.930 . S
C682 C680 1.378 . S
C682 C683 1.367 . S
C683 C682 1.367 . S
C683 C685 1.433 . S
C684 C680 1.350 . S
C684 C681 1.463 . S
C684 N688 1.427 . S
C685 H675 0.929 . S
C685 C683 1.433 . S
C685 N688 1.384 . S
C686 H677 0.929 . S
C686 C678 1.378 . S
C686 C681 1.350 . S
C687 H674 0.929 . S
C687 C679 1.433 . S
C687 N689 1.384 . S
N688 C684 1.427 . S
N688 C685 1.384 . S
N689 C681 1.427 . S
N689 C687 1.384 . S
H690 C696 0.930 . S
H691 C700 0.930 . S
H692 C705 0.929 . S
H693 C703 0.929 . S
H694 C698 0.929 . S
H695 C704 0.929 . S
C696 H690 0.930 . S
C696 C697 1.367 . S
C696 C704 1.378 . S
C697 C696 1.367 . S
C697 C705 1.433 . S
C698 H694 0.929 . S
C698 C700 1.378 . S
C698 C702 1.350 . S
C699 C702 1.463 . S
C699 C704 1.350 . S
C699 N707 1.427 . S
C700 H691 0.930 . S
C700 C698 1.378 . S
C700 C701 1.367 . S
C701 C700 1.367 . S
C701 C703 1.433 . S
C702 C698 1.350 . S
C702 C699 1.463 . S
C702 N706 1.427 . S
C703 H693 0.929 . S
C703 C701 1.433 . S
C703 N706 1.384 . S
C704 H695 0.929 . S
C704 C696 1.378 . S
C704 C699 1.350 . S
C705 H692 0.929 . S
C705 C697 1.433 . S
C705 N707 1.384 . S
N706 C702 1.427 . S
N706 C703 1.384 . S
N707 C699 1.427 . S
N707 C705 1.384 . S
C283 N2 1.347 . S
C287 N94 1.238 . S
C301 C131 1.609 . S
C305 C39 1.722 . S
C319 N140 1.335 . S
C323 C53 1.494 . S
C337 N81 1.598 1_556 S
C341 C177 1.452 . S
C355 C99 1.575 . S
C359 N25 1.386 . S
C373 N127 1.491 . S
C377 N58 1.437 . S
C391 C76 1.642 . S
C395 C145 1.728 . S
C409 N173 1.523 . S
C413 C16 1.381 . S
C427 C108 1.606 . S
C431 C168 1.557 . S
C445 N117 1.381 . S
C449 N104 1.408 . S
C463 C154 1.678 . S
C467 C122 1.622 . S
C481 N150 1.421 . S
C485 N163 1.421 . S
C499 C200 1.629 . S
C503 C85 1.504 . S
C517 N209 1.526 . S
C521 C7 1.506 . S
C535 C246 1.586 1_455 S
C539 N35 1.573 . S
C553 C214 1.654 . S
C557 C30 1.742 . S
C571 C260 1.555 . S
C575 N71 1.572 . S
C589 N48 1.282 . S
C593 N255 1.392 . S
C607 N12 1.354 . S
C611 N196 1.314 . S
C625 N242 1.464 . S
C629 C62 1.494 . S
C643 C269 1.548 . S
C647 C237 1.675 . S
C661 N265 1.430 . S
C665 N186 1.267 . S
C679 C191 1.686 . S
C683 C223 1.537 . S
C697 N219 1.524 . S
C701 N232 1.354 . S
