# Generated by pormake.
# Topology wlk, (5)-cn, num edge types: 1
# Building blocks:
#     Node 0, Type 0, BuildingBlock: BEQFEK_clean_sbu_0, # of connection points: 5
#     Node 1, Type 0, BuildingBlock: BEQFEK_clean_sbu_0, # of connection points: 5
#     Node 2, Type 0, BuildingBlock: BEQFEK_clean_sbu_0, # of connection points: 5
#     Node 3, Type 0, BuildingBlock: BEQFEK_clean_sbu_0, # of connection points: 5
#     Node 4, Type 0, BuildingBlock: BEQFEK_clean_sbu_0, # of connection points: 5
#     Node 5, Type 0, BuildingBlock: BEQFEK_clean_sbu_0, # of connection points: 5
#     Node 6, Type 0, BuildingBlock: BEQFEK_clean_sbu_0, # of connection points: 5
#     Node 7, Type 0, BuildingBlock: BEQFEK_clean_sbu_0, # of connection points: 5
#     Node 8, Type 0, BuildingBlock: BEQFEK_clean_sbu_0, # of connection points: 5
#     Node 9, Type 0, BuildingBlock: BEQFEK_clean_sbu_0, # of connection points: 5
#     Node 10, Type 0, BuildingBlock: BEQFEK_clean_sbu_0, # of connection points: 5
#     Node 11, Type 0, BuildingBlock: BEQFEK_clean_sbu_0, # of connection points: 5
#     Node 12, Type 0, BuildingBlock: BEQFEK_clean_sbu_0, # of connection points: 5
#     Node 13, Type 0, BuildingBlock: BEQFEK_clean_sbu_0, # of connection points: 5
#     Node 14, Type 0, BuildingBlock: BEQFEK_clean_sbu_0, # of connection points: 5
#     Node 15, Type 0, BuildingBlock: BEQFEK_clean_sbu_0, # of connection points: 5
#     Node 16, Type 0, BuildingBlock: BEQFEK_clean_sbu_0, # of connection points: 5
#     Node 17, Type 0, BuildingBlock: BEQFEK_clean_sbu_0, # of connection points: 5
#     Edge 18, Type (0, 0), None
#     Edge 19, Type (0, 0), None
#     Edge 20, Type (0, 0), None
#     Edge 21, Type (0, 0), None
#     Edge 22, Type (0, 0), None
#     Edge 23, Type (0, 0), None
#     Edge 24, Type (0, 0), None
#     Edge 25, Type (0, 0), None
#     Edge 26, Type (0, 0), None
#     Edge 27, Type (0, 0), None
#     Edge 28, Type (0, 0), None
#     Edge 29, Type (0, 0), None
#     Edge 30, Type (0, 0), None
#     Edge 31, Type (0, 0), None
#     Edge 32, Type (0, 0), None
#     Edge 33, Type (0, 0), None
#     Edge 34, Type (0, 0), None
#     Edge 35, Type (0, 0), None
#     Edge 36, Type (0, 0), None
#     Edge 37, Type (0, 0), None
#     Edge 38, Type (0, 0), None
#     Edge 39, Type (0, 0), None
#     Edge 40, Type (0, 0), None
#     Edge 41, Type (0, 0), None
#     Edge 42, Type (0, 0), None
#     Edge 43, Type (0, 0), None
#     Edge 44, Type (0, 0), None
#     Edge 45, Type (0, 0), None
#     Edge 46, Type (0, 0), None
#     Edge 47, Type (0, 0), None
#     Edge 48, Type (0, 0), None
#     Edge 49, Type (0, 0), None
#     Edge 50, Type (0, 0), None
#     Edge 51, Type (0, 0), None
#     Edge 52, Type (0, 0), None
#     Edge 53, Type (0, 0), None
#     Edge 54, Type (0, 0), None
#     Edge 55, Type (0, 0), None
#     Edge 56, Type (0, 0), None
#     Edge 57, Type (0, 0), None
#     Edge 58, Type (0, 0), None
#     Edge 59, Type (0, 0), None
#     Edge 60, Type (0, 0), None
#     Edge 61, Type (0, 0), None
#     Edge 62, Type (0, 0), None
# Relax obj value: 0.046
# Max RMSD: 0.101
# Mean RMSD: 0.101
data_MOF--net-wlk--node1-BEQFEK_clean_sbu_0--edge1-none
_symmetry_space_group_name_H-M    P1
_symmetry_Int_Tables_number       1
_symmetry_cell_setting            triclinic
loop_
_symmetry_equiv_pos_as_xyz
'x, y, z'
_cell_length_a     35.236017
_cell_length_b     35.23728
_cell_length_c     14.840243
_cell_angle_alpha  90.000614
_cell_angle_beta   89.998127
_cell_angle_gamma 120.00144
loop_
_atom_site_label
_atom_site_type_symbol
_atom_site_fract_x
_atom_site_fract_y
_atom_site_fract_z
_atom_type_partial_charge
Co0 Co 0.22514 0.26025 0.2457 0.0
Co1 Co 0.14329 0.22847 0.11711 0.0
C2 C 0.17951 0.17056 0.15789 0.0
O3 O 0.20733 0.20093 0.20772 0.0
O4 O 0.14907 0.17402 0.1193 0.0
C5 C 0.29622 0.26245 0.32744 0.0
O6 O 0.29709 0.2457 0.24893 0.0
C7 C 0.05245 0.19045 1.03062 0.0
C8 C 0.07239 0.2333 0.91113 0.0
C9 C 0.03619 0.19905 0.95206 0.0
N10 N 0.09618 0.21887 1.03546 0.0
N11 N 0.10749 0.24365 0.96247 0.0
C12 C 0.0267 0.15584 0.09894 0.0
H13 H 0.04874 0.15404 0.15011 0.0
H14 H 0.00289 0.16318 0.13226 0.0
H15 H 0.0076 0.12367 0.06475 0.0
C16 C 0.17848 0.29086 0.35645 0.0
N17 N 0.1793 0.26841 0.28405 0.0
N18 N 0.14533 0.25768 0.23217 0.0
C19 C 0.12194 0.27453 0.26997 0.0
C20 C 0.14436 0.3001 0.34722 0.0
C21 C 0.20044 0.28966 0.44194 0.0
H22 H 0.20262 0.25932 0.44385 0.0
H23 H 0.18118 0.2888 0.50166 0.0
H24 H 0.23451 0.31754 0.44454 0.0
O25 O 0.25413 0.29811 0.14209 0.0
O26 O 0.19641 0.27139 0.05057 0.0
H27 H 0.07201 0.27558 0.18856 0.0
H28 H 0.05538 0.25564 0.30442 0.0
C29 C 0.07496 0.25669 0.24516 0.0
H30 H 0.0613 0.22266 0.22121 0.0
H31 H 0.13927 0.26844 0.9478 0.0
O32 O 0.26799 0.27397 0.34209 0.0
C33 C 0.23702 0.29667 0.06584 0.0
Co34 Co 0.69527 0.95589 0.24574 0.0
Co35 Co 0.72703 0.9058 0.11715 0.0
C36 C 0.78496 -5e-05 0.15792 0.0
O37 O 0.75459 -0.0026 0.20777 0.0
O38 O 0.78148 0.96604 0.11933 0.0
C39 C 0.69307 0.02478 0.32747 0.0
O40 O 0.70982 0.0424 0.24896 0.0
C41 C 0.76505 0.85299 1.03067 0.0
C42 C 0.72227 0.83015 0.91109 0.0
C43 C 0.75649 0.82817 0.95207 0.0
N44 N 0.73665 0.86832 1.0355 0.0
N45 N 0.71191 0.85489 0.96244 0.0
C46 C 0.79963 0.86181 0.09906 0.0
H47 H 0.80142 0.88564 0.15025 0.0
H48 H 0.79226 0.83065 0.13234 0.0
H49 H 0.83181 0.87488 0.06492 0.0
C50 C 0.66467 0.87865 0.35653 0.0
N51 N 0.6871 0.90189 0.28411 0.0
N52 N 0.69782 0.87864 0.23223 0.0
C53 C 0.68095 0.83841 0.27005 0.0
C54 C 0.6554 0.83528 0.34732 0.0
C55 C 0.6659 0.90182 0.44203 0.0
H56 H 0.69625 0.93434 0.44388 0.0
H57 H 0.66678 0.88343 0.50174 0.0
H58 H 0.63804 0.90803 0.44468 0.0
O59 O 0.6574 0.94702 0.14213 0.0
O60 O 0.6841 0.91599 0.05062 0.0
H61 H 0.67985 0.7874 0.18864 0.0
H62 H 0.6998 0.79071 0.30448 0.0
C63 C 0.69876 0.80924 0.24522 0.0
H64 H 0.73279 0.8296 0.22125 0.0
H65 H 0.68713 0.8619 0.94773 0.0
O66 O 0.68154 -0.01497 0.34212 0.0
C67 C 0.65883 0.93134 0.06589 0.0
Co68 Co -0.00039 0.73033 0.24571 0.0
Co69 Co 0.04968 0.81219 0.11715 0.0
C70 C 0.95552 0.77593 0.15788 0.0
O71 O 0.95808 0.74811 0.20772 0.0
O72 O -0.01057 0.80638 0.11931 0.0
C73 C 0.93071 0.65923 0.32743 0.0
O74 O 0.9131 0.65836 0.24891 0.0
C75 C 0.10249 0.90304 1.03069 0.0
C76 C 0.12534 0.88311 0.9111 0.0
C77 C 0.1273 0.9193 0.95209 0.0
N78 N 0.08716 0.8593 1.03551 0.0
N79 N 0.1006 0.848 0.96245 0.0
C80 C 0.09366 0.92878 0.09909 0.0
H81 H 0.06983 0.90674 0.15027 0.0
H82 H 0.12482 0.95258 0.13237 0.0
H83 H 0.08059 0.9479 0.06496 0.0
C84 C 0.07683 0.77698 0.35652 0.0
N85 N 0.05359 0.77618 0.2841 0.0
N86 N 0.07684 0.81015 0.23223 0.0
C87 C 0.11707 0.83352 0.27007 0.0
C88 C 0.1202 0.8111 0.34732 0.0
C89 C 0.05366 0.75504 0.44201 0.0
H90 H 0.02114 0.75287 0.44387 0.0
H91 H 0.07204 0.77431 0.50173 0.0
H92 H 0.04746 0.72097 0.44466 0.0
O93 O 0.0085 0.70135 0.14211 0.0
O94 O 0.03952 0.75908 0.05061 0.0
H95 H 0.16808 0.88346 0.18868 0.0
H96 H 0.16476 0.90007 0.30454 0.0
C97 C 0.14623 0.8805 0.24527 0.0
H98 H 0.12586 0.89418 0.22133 0.0
H99 H 0.0936 0.81622 0.94773 0.0
O100 O 0.97047 0.68747 0.34209 0.0
C101 C 0.02419 0.71847 0.06587 0.0
Co102 Co 0.72146 0.7041 0.84048 0.0
Co103 Co 0.80336 0.73588 0.96888 0.0
C104 C 0.7672 0.79385 0.92806 0.0
O105 O 0.73933 0.76346 0.87833 0.0
O106 O 0.79764 0.79037 0.96662 0.0
C107 C 0.65032 0.70183 0.75881 0.0
O108 O 0.64947 0.71863 0.83728 0.0
C109 C 0.89421 0.77381 0.05527 0.0
C110 C 0.87427 0.73083 0.17459 0.0
C111 C 0.91046 0.76507 0.13365 0.0
N112 N 0.85047 0.74542 0.05043 0.0
N113 N 0.83916 0.72056 0.12332 0.0
C114 C 0.91997 0.80848 0.98706 0.0
H115 H 0.89793 0.81035 0.93598 0.0
H116 H 0.94376 0.80116 0.95362 0.0
H117 H 0.93909 0.84061 1.02138 0.0
C118 C 0.76806 0.67347 0.72959 0.0
N119 N 0.76726 0.69589 0.80204 0.0
N120 N 0.80126 0.70664 0.85384 0.0
C121 C 0.82465 0.68983 0.81592 0.0
C122 C 0.8022 0.66426 0.7387 0.0
C123 C 0.74611 0.67472 0.64413 0.0
H124 H 0.74391 0.70505 0.64235 0.0
H125 H 0.76538 0.67565 0.5844 0.0
H126 H 0.71204 0.64683 0.64147 0.0
O127 O 0.6925 0.66629 0.94414 0.0
O128 O 0.75026 0.69301 1.03554 0.0
H129 H 0.87471 0.68894 0.89719 0.0
H130 H 0.89119 0.70874 0.78121 0.0
C131 C 0.87167 0.70774 0.84053 0.0
H132 H 0.88533 0.74181 0.8643 0.0
H133 H 0.80738 0.69578 0.13797 0.0
O134 O 0.67856 0.69033 0.74417 0.0
C135 C 0.70964 0.66775 1.02036 0.0
Co136 Co 0.25137 0.00836 0.84047 0.0
Co137 Co 0.21958 0.05847 0.96889 0.0
C138 C 0.16163 0.96434 0.92807 0.0
O139 O 0.19202 0.96686 0.87834 0.0
O140 O 0.1651 -0.00174 0.96664 0.0
C141 C 0.25362 0.93948 0.75878 0.0
O142 O 0.23682 0.92183 0.83726 0.0
C143 C 0.18163 0.11137 0.05528 0.0
C144 C 0.22458 0.13438 0.17466 0.0
C145 C 0.19035 0.13634 0.13368 0.0
N146 N 0.21002 0.09602 0.05046 0.0
N147 N 0.23485 0.10955 0.12339 0.0
C148 C 0.14699 0.10247 0.98703 0.0
H149 H 0.14514 0.07859 0.93593 0.0
H150 H 0.15432 0.1336 0.95362 0.0
H151 H 0.11484 0.08945 1.02131 0.0
C152 C 0.282 0.08559 0.72959 0.0
N153 N 0.25957 0.06237 0.80203 0.0
N154 N 0.24882 0.08562 0.85384 0.0
C155 C 0.26565 0.12583 0.81594 0.0
C156 C 0.29122 0.12895 0.73871 0.0
C157 C 0.28074 0.06239 0.64412 0.0
H158 H 0.25041 0.02986 0.64234 0.0
H159 H 0.27982 0.08074 0.58439 0.0
H160 H 0.30863 0.05621 0.64145 0.0
O161 O 0.28919 0.01723 0.94412 0.0
O162 O 0.26247 0.04826 1.03554 0.0
H163 H 0.26658 0.17679 0.89724 0.0
H164 H 0.24676 0.17348 0.78128 0.0
C165 C 0.24775 0.15494 0.84059 0.0
H166 H 0.21369 0.13454 0.86439 0.0
H167 H 0.25963 0.10254 0.13806 0.0
O168 O 0.26514 0.97923 0.74416 0.0
C169 C 0.28774 0.03291 1.02034 0.0
Co170 Co 0.9471 0.23401 0.84046 0.0
Co171 Co 0.89701 0.15211 0.96888 0.0
C172 C -0.00885 0.18832 0.92804 0.0
O173 O -0.01138 0.21618 0.87831 0.0
O174 O 0.95723 0.15787 0.96661 0.0
C175 C 0.01596 0.30515 0.75875 0.0
O176 O 0.03362 0.30602 0.83722 0.0
C177 C 0.84412 0.06126 0.05527 0.0
C178 C 0.82117 0.0812 0.17474 0.0
C179 C 0.81918 0.04501 0.13371 0.0
N180 N 0.85948 0.105 0.05047 0.0
N181 N 0.84599 0.11631 0.12346 0.0
C182 C 0.85298 0.0355 0.98697 0.0
H183 H 0.87686 0.05754 0.93584 0.0
H184 H 0.82184 0.01172 0.9536 0.0
H185 H 0.86601 0.01638 1.02119 0.0
C186 C 0.86989 0.1874 0.72958 0.0
N187 N 0.89311 0.18819 0.80202 0.0
N188 N 0.86985 0.1542 0.85384 0.0
C189 C 0.82964 0.13082 0.81594 0.0
C190 C 0.82652 0.15327 0.73871 0.0
C191 C 0.89309 0.20933 0.6441 0.0
H192 H 0.92561 0.21152 0.64232 0.0
H193 H 0.87473 0.19005 0.58438 0.0
H194 H 0.89928 0.24339 0.64141 0.0
O195 O 0.93823 0.26296 0.94411 0.0
O196 O 0.9072 0.2052 1.03552 0.0
H197 H 0.77867 0.08081 0.89726 0.0
H198 H 0.78197 0.06428 0.78131 0.0
C199 C 0.80051 0.08382 0.84061 0.0
H200 H 0.8209 0.07014 0.86442 0.0
H201 H 0.85301 0.14809 0.13817 0.0
O202 O -0.02379 0.2769 0.74414 0.0
C203 C 0.92253 0.24582 1.02032 0.0
Co204 Co 0.8918 0.59357 0.57905 0.0
Co205 Co 0.80994 0.56182 0.45048 0.0
C206 C 0.84615 0.50388 0.49123 0.0
O207 O 0.87398 0.53425 0.54106 0.0
O208 O 0.81571 0.50736 0.45265 0.0
C209 C 0.96289 0.59577 0.66077 0.0
O210 O 0.96375 0.57901 0.58225 0.0
C211 C 0.71911 0.52381 0.36399 0.0
C212 C 0.73905 0.56667 0.24453 0.0
C213 C 0.70285 0.53241 0.28545 0.0
N214 N 0.76284 0.55222 0.36885 0.0
N215 N 0.77415 0.57702 0.29587 0.0
C216 C 0.69336 0.48919 0.43231 0.0
H217 H 0.7154 0.48739 0.48347 0.0
H218 H 0.66955 0.49653 0.46564 0.0
H219 H 0.67426 0.45703 0.3981 0.0
C220 C 0.84516 0.62419 0.68982 0.0
N221 N 0.84597 0.60175 0.61742 0.0
N222 N 0.812 0.59102 0.56554 0.0
C223 C 0.78862 0.60788 0.60336 0.0
C224 C 0.81105 0.63345 0.6806 0.0
C225 C 0.86711 0.62299 0.77531 0.0
H226 H 0.86929 0.59264 0.7772 0.0
H227 H 0.84786 0.62212 0.83503 0.0
H228 H 0.90118 0.65086 0.77792 0.0
O229 O 0.92079 0.63143 0.47543 0.0
O230 O 0.86306 0.60473 0.38393 0.0
H231 H 0.73868 0.60894 0.52198 0.0
H232 H 0.72207 0.589 0.63784 0.0
C233 C 0.74164 0.59004 0.57857 0.0
H234 H 0.72797 0.55601 0.55462 0.0
H235 H 0.80593 0.60182 0.28121 0.0
O236 O 0.93466 0.60729 0.67543 0.0
C237 C 0.90368 0.62999 0.39919 0.0
Co238 Co 0.36191 0.28923 0.57904 0.0
Co239 Co 0.39367 0.23914 0.45047 0.0
C240 C 0.4516 0.33328 0.49122 0.0
O241 O 0.42123 0.33073 0.54105 0.0
O242 O 0.44812 0.29937 0.45263 0.0
C243 C 0.35975 0.35814 0.66079 0.0
O244 O 0.37652 0.37576 0.58229 0.0
C245 C 0.43169 0.18632 0.36399 0.0
C246 C 0.38885 0.16341 0.24449 0.0
C247 C 0.4231 0.16148 0.28543 0.0
N248 N 0.40327 0.20163 0.36884 0.0
N249 N 0.37849 0.18816 0.29583 0.0
C250 C 0.46629 0.19518 0.43233 0.0
H251 H 0.46808 0.21902 0.48351 0.0
H252 H 0.45895 0.16403 0.46565 0.0
H253 H 0.49846 0.20825 0.39815 0.0
C254 C 0.33129 0.21198 0.68983 0.0
N255 N 0.35374 0.23522 0.61742 0.0
N256 N 0.36446 0.21198 0.56554 0.0
C257 C 0.3476 0.17174 0.60337 0.0
C258 C 0.32203 0.16861 0.68061 0.0
C259 C 0.33251 0.23514 0.77532 0.0
H260 H 0.36286 0.26766 0.7772 0.0
H261 H 0.33339 0.21675 0.83504 0.0
H262 H 0.30464 0.24134 0.77795 0.0
O263 O 0.32404 0.28035 0.47544 0.0
O264 O 0.35074 0.24932 0.38393 0.0
H265 H 0.34653 0.12074 0.52197 0.0
H266 H 0.36647 0.12407 0.63783 0.0
C267 C 0.36543 0.1426 0.57856 0.0
H268 H 0.39947 0.16296 0.55461 0.0
H269 H 0.3537 0.19515 0.28116 0.0
O270 O 0.3482 0.31838 0.67543 0.0
C271 C 0.32548 0.26467 0.39919 0.0
Co272 Co 0.66626 0.06368 0.57906 0.0
Co273 Co 0.71633 0.14553 0.45048 0.0
C274 C 0.62217 0.10927 0.49123 0.0
O275 O 0.62473 0.08146 0.54107 0.0
O276 O 0.65609 0.13972 0.45265 0.0
C277 C 0.59738 -0.00741 0.66081 0.0
O278 O 0.57976 -0.0083 0.58229 0.0
C279 C 0.76913 0.23637 0.364 0.0
C280 C 0.79197 0.21644 0.24439 0.0
C281 C 0.79394 0.25263 0.28539 0.0
N282 N 0.75381 0.19264 0.36882 0.0
N283 N 0.76723 0.18133 0.29574 0.0
C284 C 0.76031 0.26212 0.43241 0.0
H285 H 0.73649 0.24008 0.48361 0.0
H286 H 0.79148 0.28592 0.46567 0.0
H287 H 0.74724 0.28123 0.39829 0.0
C288 C 0.74349 0.11033 0.68984 0.0
N289 N 0.72025 0.10953 0.61743 0.0
N290 N 0.7435 0.14349 0.56555 0.0
C291 C 0.78374 0.16686 0.60337 0.0
C292 C 0.78686 0.14443 0.68061 0.0
C293 C 0.72033 0.0884 0.77535 0.0
H294 H 0.68781 0.08623 0.77721 0.0
H295 H 0.73872 0.10767 0.83505 0.0
H296 H 0.71412 0.05433 0.77799 0.0
O297 O 0.67515 0.03469 0.47546 0.0
O298 O 0.70617 0.09242 0.38394 0.0
H299 H 0.83475 0.21677 0.52195 0.0
H300 H 0.83143 0.23341 0.6378 0.0
C301 C 0.8129 0.21383 0.57854 0.0
H302 H 0.79255 0.22751 0.55458 0.0
H303 H 0.76022 0.14955 0.28103 0.0
O304 O 0.63713 0.02082 0.67544 0.0
C305 C 0.69083 0.05181 0.39922 0.0
Co306 Co 0.38812 0.03742 0.17381 0.0
Co307 Co 0.47002 0.06922 0.30222 0.0
C308 C 0.43383 0.12716 0.26141 0.0
O309 O 0.40596 0.09676 0.21169 0.0
O310 O 0.46428 0.1237 0.29997 0.0
C311 C 0.31698 0.03516 0.09212 0.0
O312 O 0.31612 0.05195 0.1706 0.0
C313 C 0.56087 0.10716 0.38863 0.0
C314 C 0.54092 0.06419 0.50795 0.0
C315 C 0.57712 0.09842 0.46701 0.0
N316 N 0.51713 0.07877 0.38379 0.0
N317 N 0.50582 0.05392 0.45669 0.0
C318 C 0.58662 0.14183 0.32041 0.0
H319 H 0.56459 0.14369 0.26933 0.0
H320 H 0.61041 0.1345 0.28697 0.0
H321 H 0.60574 0.17396 0.35473 0.0
C322 C 0.43473 0.0068 0.06294 0.0
N323 N 0.43393 0.02923 0.13538 0.0
N324 N 0.46793 0.03999 0.18718 0.0
C325 C 0.49133 0.02318 0.14927 0.0
C326 C 0.46888 -0.0024 0.07206 0.0
C327 C 0.41278 0.00804 0.97748 0.0
H328 H 0.41058 0.03837 0.97567 0.0
H329 H 0.43205 0.00896 0.91774 0.0
H330 H 0.37871 0.98015 0.97483 0.0
O331 O 0.35916 -0.00041 0.27746 0.0
O332 O 0.41692 0.02634 0.36887 0.0
H333 H 0.5414 0.02231 0.23056 0.0
H334 H 0.55787 0.0421 0.11457 0.0
C335 C 0.53835 0.04111 0.17388 0.0
H336 H 0.552 0.07518 0.19764 0.0
H337 H 0.47403 0.02914 0.47134 0.0
O338 O 0.34522 0.02365 0.07749 0.0
C339 C 0.3763 0.00106 0.35368 0.0
Co340 Co 0.91801 0.34169 0.17377 0.0
Co341 Co 0.88622 0.3918 0.30219 0.0
C342 C 0.82826 0.29767 0.26137 0.0
O343 O 0.85865 0.30019 0.21162 0.0
O344 O 0.83175 0.33159 0.29994 0.0
C345 C 0.92028 0.27282 0.09209 0.0
O346 O 0.90348 0.25517 0.17057 0.0
C347 C 0.84828 0.44471 0.38858 0.0
C348 C 0.89119 0.46767 0.50801 0.0
C349 C 0.85698 0.46966 0.46701 0.0
N350 N 0.87665 0.42935 0.38377 0.0
N351 N 0.90147 0.44285 0.45673 0.0
C352 C 0.81365 0.43584 0.32031 0.0
H353 H 0.81179 0.41196 0.26919 0.0
H354 H 0.821 0.46698 0.28691 0.0
H355 H 0.7815 0.42283 0.35456 0.0
C356 C 0.94863 0.4189 0.06288 0.0
N357 N 0.9262 0.39569 0.13533 0.0
N358 N 0.91546 0.41895 0.18714 0.0
C359 C 0.9323 0.45916 0.14922 0.0
C360 C 0.95786 0.46227 0.072 0.0
C361 C 0.94736 0.3957 0.97741 0.0
H362 H 0.91702 0.36317 0.97564 0.0
H363 H 0.94642 0.41405 0.91768 0.0
H364 H -0.02477 0.38951 0.97472 0.0
O365 O 0.95583 0.35055 0.27743 0.0
O366 O 0.92911 0.3816 0.36883 0.0
H367 H 0.93323 0.51012 0.23052 0.0
H368 H 0.91342 0.50682 0.11456 0.0
C369 C 0.91441 0.48828 0.17387 0.0
H370 H 0.88034 0.46789 0.19766 0.0
H371 H 0.92623 0.43582 0.47142 0.0
O372 O 0.93178 0.31256 0.07746 0.0
C373 C 0.95438 0.36625 0.35364 0.0
Co374 Co 0.61376 0.56736 0.17382 0.0
Co375 Co 0.56366 0.48545 0.30221 0.0
C376 C 0.65781 0.52167 0.26141 0.0
O377 O 0.65528 0.54954 0.21168 0.0
O378 O 0.62389 0.49122 0.29996 0.0
C379 C 0.68264 0.63851 0.09214 0.0
O380 O 0.70028 0.63937 0.17062 0.0
C381 C 0.51076 0.39459 0.38857 0.0
C382 C 0.48782 0.41452 0.50805 0.0
C383 C 0.48582 0.37833 0.46701 0.0
N384 N 0.52613 0.43833 0.38379 0.0
N385 N 0.51264 0.44963 0.45678 0.0
C386 C 0.51963 0.36884 0.32026 0.0
H387 H 0.54351 0.39088 0.26914 0.0
H388 H 0.48849 0.34506 0.28688 0.0
H389 H 0.53265 0.3497 0.35448 0.0
C390 C 0.53655 0.52076 0.06292 0.0
N391 N 0.55977 0.52155 0.13536 0.0
N392 N 0.53651 0.48755 0.18716 0.0
C393 C 0.4963 0.46417 0.14925 0.0
C394 C 0.49319 0.48662 0.07204 0.0
C395 C 0.55975 0.54271 0.97746 0.0
H396 H 0.59228 0.5449 0.97568 0.0
H397 H 0.5414 0.52343 0.91772 0.0
H398 H 0.56593 0.57677 0.9748 0.0
O399 O 0.60488 0.59631 0.27747 0.0
O400 O 0.57384 0.53854 0.36887 0.0
H401 H 0.44534 0.41413 0.23055 0.0
H402 H 0.44865 0.39763 0.11458 0.0
C403 C 0.46718 0.41716 0.17389 0.0
H404 H 0.48757 0.40349 0.19768 0.0
H405 H 0.51967 0.48142 0.4715 0.0
O406 O 0.64289 0.61026 0.07751 0.0
C407 C 0.58918 0.57916 0.35368 0.0
Co408 Co 0.55849 0.92693 0.91243 0.0
Co409 Co 0.47663 0.89515 0.78388 0.0
C410 C 0.51286 0.83724 0.82462 0.0
O411 O 0.54068 0.86761 0.87444 0.0
O412 O 0.48241 0.8407 0.78605 0.0
C413 C 0.62958 0.92912 0.99415 0.0
O414 O 0.63044 0.91237 0.91563 0.0
C415 C 0.38579 0.85713 0.69738 0.0
C416 C 0.40573 0.89998 0.5779 0.0
C417 C 0.36954 0.86572 0.61882 0.0
N418 N 0.42952 0.88555 0.70224 0.0
N419 N 0.44083 0.91033 0.62924 0.0
C420 C 0.36004 0.82252 0.76571 0.0
H421 H 0.38208 0.82072 0.81688 0.0
H422 H 0.33624 0.82987 0.79904 0.0
H423 H 0.34093 0.79036 0.73152 0.0
C424 C 0.51185 0.95755 1.0232 0.0
N425 N 0.51266 0.9351 0.9508 0.0
N426 N 0.47868 0.92436 0.89894 0.0
C427 C 0.4553 0.94121 0.93676 0.0
C428 C 0.47773 0.96679 1.01398 0.0
C429 C 0.53381 0.95636 0.10868 0.0
H430 H 0.536 0.92602 0.11059 0.0
H431 H 0.51456 0.95549 0.16841 0.0
H432 H 0.56788 -0.01576 0.11127 0.0
O433 O 0.58748 0.96479 0.80881 0.0
O434 O 0.52974 0.93807 0.71732 0.0
H435 H 0.40534 0.94223 0.85538 0.0
H436 H 0.38875 0.92232 0.97126 0.0
C437 C 0.40831 0.92336 0.91199 0.0
H438 H 0.39464 0.88931 0.88807 0.0
H439 H 0.47261 0.93513 0.61458 0.0
O440 O 0.60136 0.94065 1.0088 0.0
C441 C 0.57036 0.96334 0.73257 0.0
Co442 Co 0.02858 0.62254 0.91236 0.0
Co443 Co 0.06034 0.57245 0.78377 0.0
C444 C 0.11827 0.6666 0.82455 0.0
O445 O 0.0879 0.66405 0.87439 0.0
O446 O 0.11479 0.63269 0.78595 0.0
C447 C 0.02641 0.69145 0.99412 0.0
O448 O 0.04317 0.70907 0.91561 0.0
C449 C 0.09836 0.51964 0.69729 0.0
C450 C 0.05555 0.49678 0.57773 0.0
C451 C 0.08979 0.49482 0.6187 0.0
N452 N 0.06995 0.53497 0.70212 0.0
N453 N 0.04519 0.52152 0.62908 0.0
C454 C 0.13294 0.52847 0.76566 0.0
H455 H 0.13473 0.55229 0.81686 0.0
H456 H 0.12557 0.4973 0.79894 0.0
H457 H 0.16512 0.54153 0.73152 0.0
C458 C -0.00204 0.5453 1.02313 0.0
N459 N 0.02041 0.56854 0.95073 0.0
N460 N 0.03112 0.54529 0.89884 0.0
C461 C 0.01424 0.50505 0.93665 0.0
C462 C -0.01132 0.50192 1.0139 0.0
C463 C -0.00081 0.56845 0.10863 0.0
H464 H 0.02954 0.60097 0.11051 0.0
H465 H 6e-05 0.55006 0.16834 0.0
H466 H 0.97132 0.57466 0.11127 0.0
O467 O -0.00929 0.61368 0.80875 0.0
O468 O 0.01741 0.58264 0.71723 0.0
H469 H 0.01313 0.45404 0.85523 0.0
H470 H 0.03309 0.45735 0.97107 0.0
C471 C 0.03204 0.47588 0.91181 0.0
H472 H 0.06608 0.49623 0.88783 0.0
H473 H 0.02042 0.52852 0.61438 0.0
O474 O 0.01487 0.65169 1.00875 0.0
C475 C -0.00785 0.59799 0.73251 0.0
Co476 Co 0.33293 0.39702 0.91237 0.0
Co477 Co 0.38299 0.47888 0.7838 0.0
C478 C 0.28883 0.44259 0.82451 0.0
O479 O 0.29139 0.41479 0.87436 0.0
O480 O 0.32274 0.47304 0.78594 0.0
C481 C 0.26405 0.32591 0.99408 0.0
O482 O 0.24644 0.32503 0.91555 0.0
C483 C 0.4358 0.56973 0.69736 0.0
C484 C 0.45862 0.5498 0.57772 0.0
C485 C 0.46061 0.58599 0.61875 0.0
N486 N 0.42046 0.52599 0.70215 0.0
N487 N 0.43388 0.51469 0.62906 0.0
C488 C 0.42699 0.59548 0.76577 0.0
H489 H 0.40316 0.57344 0.81697 0.0
H490 H 0.45816 0.61927 0.79904 0.0
H491 H 0.41392 0.6146 0.73167 0.0
C492 C 0.41016 0.44368 1.02316 0.0
N493 N 0.38691 0.44288 0.95076 0.0
N494 N 0.41016 0.47684 0.89888 0.0
C495 C 0.45039 0.50021 0.9367 0.0
C496 C 0.45353 0.47778 1.01394 0.0
C497 C 0.38699 0.42174 0.10866 0.0
H498 H 0.35447 0.41956 0.11054 0.0
H499 H 0.40538 0.441 0.16838 0.0
H500 H 0.38079 0.38767 0.11129 0.0
O501 O 0.34183 0.36804 0.80878 0.0
O502 O 0.37285 0.42577 0.71727 0.0
H503 H 0.5014 0.55014 0.8553 0.0
H504 H 0.49808 0.56676 0.97116 0.0
C505 C 0.47955 0.54719 0.91189 0.0
H506 H 0.45919 0.56087 0.88795 0.0
H507 H 0.42686 0.48291 0.61432 0.0
O508 O 0.3038 0.35416 1.00875 0.0
C509 C 0.35752 0.38516 0.73254 0.0
Co510 Co 0.05476 0.37074 0.50708 0.0
Co511 Co 0.13667 0.40254 0.63547 0.0
C512 C 0.1005 0.46049 0.59468 0.0
O513 O 0.07263 0.4301 0.54496 0.0
O514 O 0.13095 0.45702 0.63322 0.0
C515 C -0.01637 0.3685 0.42541 0.0
O516 O -0.01722 0.38529 0.50388 0.0
C517 C 0.22752 0.44047 0.72188 0.0
C518 C 0.20757 0.39747 0.84116 0.0
C519 C 0.24376 0.43172 0.80025 0.0
N520 N 0.18378 0.41207 0.71702 0.0
N521 N 0.17247 0.3872 0.78989 0.0
C522 C 0.25327 0.47515 0.65369 0.0
H523 H 0.23123 0.47702 0.60261 0.0
H524 H 0.27706 0.46783 0.62023 0.0
H525 H 0.27239 0.50728 0.68802 0.0
C526 C 0.10136 0.34011 0.3962 0.0
N527 N 0.10057 0.36254 0.46864 0.0
N528 N 0.13457 0.3733 0.52042 0.0
C529 C 0.15797 0.35649 0.4825 0.0
C530 C 0.13551 0.33091 0.40531 0.0
C531 C 0.0794 0.34135 0.31074 0.0
H532 H 0.0772 0.37168 0.30895 0.0
H533 H 0.09868 0.34228 0.251 0.0
H534 H 0.04534 0.31346 0.30809 0.0
O535 O 0.0258 0.33292 0.61074 0.0
O536 O 0.08357 0.35966 0.70213 0.0
H537 H 0.20805 0.35564 0.56376 0.0
H538 H 0.22451 0.37541 0.44776 0.0
C539 C 0.20499 0.37443 0.50708 0.0
H540 H 0.21865 0.4085 0.53082 0.0
H541 H 0.14069 0.3624 0.80452 0.0
O542 O 0.01186 0.35698 0.41078 0.0
C543 C 0.04296 0.33439 0.68696 0.0
Co544 Co 0.58469 0.67504 0.50717 0.0
Co545 Co 0.55292 0.72516 0.63559 0.0
C546 C 0.49495 0.63103 0.59475 0.0
O547 O 0.52533 0.63355 0.54502 0.0
O548 O 0.49843 0.66495 0.63333 0.0
C549 C 0.58693 0.60615 0.42546 0.0
O550 O 0.57012 0.5885 0.50392 0.0
C551 C 0.51498 0.77806 0.72199 0.0
C552 C 0.55792 0.80105 0.84138 0.0
C553 C 0.5237 0.80302 0.8004 0.0
N554 N 0.54337 0.76271 0.71716 0.0
N555 N 0.5682 0.77623 0.7901 0.0
C556 C 0.48034 0.76918 0.65373 0.0
H557 H 0.47849 0.74529 0.60262 0.0
H558 H 0.48768 0.80031 0.62033 0.0
H559 H 0.4482 0.75615 0.688 0.0
C560 C 0.61533 0.75226 0.39629 0.0
N561 N 0.5929 0.72904 0.46873 0.0
N562 N 0.58217 0.7523 0.52054 0.0
C563 C 0.59901 0.79252 0.48264 0.0
C564 C 0.62458 0.79563 0.40542 0.0
C565 C 0.61407 0.72906 0.31082 0.0
H566 H 0.58372 0.69654 0.30904 0.0
H567 H 0.61314 0.74741 0.25109 0.0
H568 H 0.64194 0.72287 0.30813 0.0
O569 O 0.62252 0.68389 0.61082 0.0
O570 O 0.5958 0.71494 0.70224 0.0
H571 H 0.59997 0.84349 0.56394 0.0
H572 H 0.58014 0.84018 0.448 0.0
C573 C 0.58113 0.82164 0.5073 0.0
H574 H 0.54707 0.80126 0.53113 0.0
H575 H 0.59297 0.76922 0.80477 0.0
O576 O 0.59845 0.64591 0.41085 0.0
C577 C 0.62106 0.69958 0.68704 0.0
Co578 Co 0.28044 0.90067 0.50715 0.0
Co579 Co 0.23034 0.81877 0.63558 0.0
C580 C 0.32449 0.85499 0.59478 0.0
O581 O 0.32196 0.88284 0.54503 0.0
O582 O 0.29057 0.82454 0.63334 0.0
C583 C 0.34931 0.97181 0.42547 0.0
O584 O 0.36695 0.97268 0.50394 0.0
C585 C 0.17745 0.72791 0.72194 0.0
C586 C 0.15449 0.74784 0.8414 0.0
C587 C 0.1525 0.71165 0.80036 0.0
N588 N 0.19281 0.77165 0.71715 0.0
N589 N 0.17932 0.78295 0.79014 0.0
C590 C 0.18632 0.70216 0.65363 0.0
H591 H 0.2102 0.7242 0.60251 0.0
H592 H 0.15518 0.67838 0.62025 0.0
H593 H 0.19935 0.68303 0.68786 0.0
C594 C 0.20322 0.85406 0.39628 0.0
N595 N 0.22645 0.85485 0.46871 0.0
N596 N 0.2032 0.82086 0.52053 0.0
C597 C 0.16298 0.79748 0.48264 0.0
C598 C 0.15986 0.81993 0.40542 0.0
C599 C 0.22642 0.876 0.31081 0.0
H600 H 0.25895 0.87819 0.30901 0.0
H601 H 0.20806 0.85672 0.25108 0.0
H602 H 0.2326 0.91006 0.30813 0.0
O603 O 0.27156 0.92962 0.6108 0.0
O604 O 0.24053 0.87186 0.70222 0.0
H605 H 0.112 0.74747 0.56395 0.0
H606 H 0.11531 0.73095 0.44801 0.0
C607 C 0.13385 0.75048 0.50731 0.0
H608 H 0.15423 0.7368 0.53113 0.0
H609 H 0.18634 0.81474 0.80486 0.0
O610 O 0.30956 0.94356 0.41084 0.0
C611 C 0.25587 0.91248 0.68702 0.0
loop_
_geom_bond_atom_site_label_1
_geom_bond_atom_site_label_2
_geom_bond_distance
_geom_bond_site_symmetry_2
_ccdc_geom_bond_type
Co0 O3 1.970 . S
Co0 N17 1.989 . S
Co0 O25 1.967 . S
Co0 O32 1.920 . S
Co1 O4 1.966 . S
Co1 N10 2.022 . S
Co1 N18 1.993 . S
Co1 O26 1.941 . S
C2 O3 1.258 . S
C2 O4 1.263 . S
O3 Co0 1.970 . S
O3 C2 1.258 . S
O4 Co1 1.966 . S
O4 C2 1.263 . S
C5 O6 1.235 . S
C5 O32 1.289 . S
O6 C5 1.235 . S
C7 C9 1.400 . S
C7 N10 1.351 1_556 S
C7 C12 1.501 . S
C8 C9 1.387 . S
C8 N11 1.341 . S
C9 C7 1.400 . S
C9 C8 1.387 . S
N10 Co1 2.022 . S
N10 C7 1.351 1_554 S
N10 N11 1.365 1_554 S
N11 C8 1.341 . S
N11 N10 1.365 1_556 S
N11 H31 0.862 1_556 S
C12 C7 1.501 . S
C12 H13 0.961 1_556 S
C12 H14 0.961 1_556 S
C12 H15 0.960 . S
H13 C12 0.961 1_554 S
H14 C12 0.961 1_554 S
H15 C12 0.960 . S
C16 N17 1.342 . S
C16 C20 1.401 . S
C16 C21 1.499 . S
N17 Co0 1.989 . S
N17 C16 1.342 . S
N17 N18 1.388 . S
N18 Co1 1.993 . S
N18 N17 1.388 . S
N18 C19 1.346 . S
C19 N18 1.346 . S
C19 C20 1.396 . S
C19 C29 1.510 . S
C20 C16 1.401 . S
C20 C19 1.396 . S
C21 C16 1.499 . S
C21 H22 0.959 . S
C21 H23 0.960 . S
C21 H24 0.961 . S
H22 C21 0.959 . S
H23 C21 0.960 . S
H24 C21 0.961 . S
O25 Co0 1.967 . S
O25 C33 1.258 . S
O26 Co1 1.941 . S
O26 C33 1.266 . S
H27 C29 0.959 . S
H28 C29 0.961 . S
C29 C19 1.510 . S
C29 H27 0.959 . S
C29 H28 0.961 . S
C29 H30 0.960 . S
H30 C29 0.960 . S
H31 N11 0.862 1_554 S
O32 Co0 1.920 . S
O32 C5 1.289 . S
C33 O25 1.258 . S
C33 O26 1.266 . S
Co34 O37 1.970 1_565 S
Co34 N51 1.989 . S
Co34 O59 1.967 . S
Co34 O66 1.920 1_565 S
Co35 O38 1.966 . S
Co35 N44 2.022 . S
Co35 N52 1.993 . S
Co35 O60 1.941 . S
C36 O37 1.258 . S
C36 O38 1.263 1_545 S
O37 Co34 1.970 1_545 S
O37 C36 1.258 . S
O38 Co35 1.966 . S
O38 C36 1.263 1_565 S
C39 O40 1.235 . S
C39 O66 1.289 . S
O40 C39 1.235 . S
C41 C43 1.400 . S
C41 N44 1.351 1_556 S
C41 C46 1.501 . S
C42 C43 1.387 . S
C42 N45 1.341 . S
C43 C41 1.400 . S
C43 C42 1.387 . S
N44 Co35 2.022 . S
N44 C41 1.351 1_554 S
N44 N45 1.365 1_554 S
N45 C42 1.341 . S
N45 N44 1.365 1_556 S
N45 H65 0.862 1_556 S
C46 C41 1.501 . S
C46 H47 0.961 1_556 S
C46 H48 0.961 1_556 S
C46 H49 0.960 . S
H47 C46 0.961 1_554 S
H48 C46 0.961 1_554 S
H49 C46 0.960 . S
C50 N51 1.342 . S
C50 C54 1.401 . S
C50 C55 1.499 . S
N51 Co34 1.989 . S
N51 C50 1.342 . S
N51 N52 1.388 . S
N52 Co35 1.993 . S
N52 N51 1.388 . S
N52 C53 1.346 . S
C53 N52 1.346 . S
C53 C54 1.396 . S
C53 C63 1.510 . S
C54 C50 1.401 . S
C54 C53 1.396 . S
C55 C50 1.499 . S
C55 H56 0.959 . S
C55 H57 0.960 . S
C55 H58 0.961 . S
H56 C55 0.959 . S
H57 C55 0.960 . S
H58 C55 0.961 . S
O59 Co34 1.967 . S
O59 C67 1.258 . S
O60 Co35 1.941 . S
O60 C67 1.266 . S
H61 C63 0.959 . S
H62 C63 0.961 . S
C63 C53 1.510 . S
C63 H61 0.959 . S
C63 H62 0.961 . S
C63 H64 0.960 . S
H64 C63 0.960 . S
H65 N45 0.862 1_554 S
O66 Co34 1.920 1_545 S
O66 C39 1.289 . S
C67 O59 1.258 . S
C67 O60 1.266 . S
Co68 O71 1.970 1_455 S
Co68 N85 1.989 . S
Co68 O93 1.967 . S
Co68 O100 1.920 1_455 S
Co69 O72 1.966 . S
Co69 N78 2.022 . S
Co69 N86 1.993 . S
Co69 O94 1.941 . S
C70 O71 1.258 . S
C70 O72 1.263 1_655 S
O71 Co68 1.970 1_655 S
O71 C70 1.258 . S
O72 Co69 1.966 . S
O72 C70 1.263 1_455 S
C73 O74 1.235 . S
C73 O100 1.289 . S
O74 C73 1.235 . S
C75 C77 1.400 . S
C75 N78 1.351 1_556 S
C75 C80 1.501 . S
C76 C77 1.387 . S
C76 N79 1.341 . S
C77 C75 1.400 . S
C77 C76 1.387 . S
N78 Co69 2.022 . S
N78 C75 1.351 1_554 S
N78 N79 1.365 1_554 S
N79 C76 1.341 . S
N79 N78 1.365 1_556 S
N79 H99 0.862 1_556 S
C80 C75 1.501 . S
C80 H81 0.961 1_556 S
C80 H82 0.961 1_556 S
C80 H83 0.960 . S
H81 C80 0.961 1_554 S
H82 C80 0.961 1_554 S
H83 C80 0.960 . S
C84 N85 1.342 . S
C84 C88 1.401 . S
C84 C89 1.499 . S
N85 Co68 1.989 . S
N85 C84 1.342 . S
N85 N86 1.388 . S
N86 Co69 1.993 . S
N86 N85 1.388 . S
N86 C87 1.346 . S
C87 N86 1.346 . S
C87 C88 1.396 . S
C87 C97 1.510 . S
C88 C84 1.401 . S
C88 C87 1.396 . S
C89 C84 1.499 . S
C89 H90 0.959 . S
C89 H91 0.960 . S
C89 H92 0.961 . S
H90 C89 0.959 . S
H91 C89 0.960 . S
H92 C89 0.961 . S
O93 Co68 1.967 . S
O93 C101 1.258 . S
O94 Co69 1.941 . S
O94 C101 1.266 . S
H95 C97 0.959 . S
H96 C97 0.961 . S
C97 C87 1.510 . S
C97 H95 0.959 . S
C97 H96 0.961 . S
C97 H98 0.960 . S
H98 C97 0.960 . S
H99 N79 0.862 1_554 S
O100 Co68 1.920 1_655 S
O100 C73 1.289 . S
C101 O93 1.258 . S
C101 O94 1.266 . S
Co102 O105 1.970 . S
Co102 N119 1.989 . S
Co102 O127 1.967 . S
Co102 O134 1.920 . S
Co103 O106 1.966 . S
Co103 N112 2.022 . S
Co103 N120 1.993 . S
Co103 O128 1.941 . S
C104 O105 1.258 . S
C104 O106 1.263 . S
O105 Co102 1.970 . S
O105 C104 1.258 . S
O106 Co103 1.966 . S
O106 C104 1.263 . S
C107 O108 1.235 . S
C107 O134 1.289 . S
O108 C107 1.235 . S
C109 C111 1.400 . S
C109 N112 1.351 1_554 S
C109 C114 1.501 . S
C110 C111 1.387 . S
C110 N113 1.341 . S
C111 C109 1.400 . S
C111 C110 1.387 . S
N112 Co103 2.022 . S
N112 C109 1.351 1_556 S
N112 N113 1.365 1_556 S
N113 C110 1.341 . S
N113 N112 1.365 1_554 S
N113 H133 0.862 1_554 S
C114 C109 1.501 . S
C114 H115 0.961 1_554 S
C114 H116 0.961 1_554 S
C114 H117 0.960 . S
H115 C114 0.961 1_556 S
H116 C114 0.961 1_556 S
H117 C114 0.960 . S
C118 N119 1.342 . S
C118 C122 1.401 . S
C118 C123 1.499 . S
N119 Co102 1.989 . S
N119 C118 1.342 . S
N119 N120 1.388 . S
N120 Co103 1.993 . S
N120 N119 1.388 . S
N120 C121 1.346 . S
C121 N120 1.346 . S
C121 C122 1.396 . S
C121 C131 1.510 . S
C122 C118 1.401 . S
C122 C121 1.396 . S
C123 C118 1.499 . S
C123 H124 0.959 . S
C123 H125 0.960 . S
C123 H126 0.961 . S
H124 C123 0.959 . S
H125 C123 0.960 . S
H126 C123 0.961 . S
O127 Co102 1.967 . S
O127 C135 1.258 . S
O128 Co103 1.941 . S
O128 C135 1.266 . S
H129 C131 0.959 . S
H130 C131 0.961 . S
C131 C121 1.510 . S
C131 H129 0.959 . S
C131 H130 0.961 . S
C131 H132 0.960 . S
H132 C131 0.960 . S
H133 N113 0.862 1_556 S
O134 Co102 1.920 . S
O134 C107 1.289 . S
C135 O127 1.258 . S
C135 O128 1.266 . S
Co136 O139 1.970 1_545 S
Co136 N153 1.989 . S
Co136 O161 1.967 . S
Co136 O168 1.920 1_545 S
Co137 O140 1.966 . S
Co137 N146 2.022 . S
Co137 N154 1.993 . S
Co137 O162 1.941 . S
C138 O139 1.258 . S
C138 O140 1.263 1_565 S
O139 Co136 1.970 1_565 S
O139 C138 1.258 . S
O140 Co137 1.966 . S
O140 C138 1.263 1_545 S
C141 O142 1.235 . S
C141 O168 1.289 . S
O142 C141 1.235 . S
C143 C145 1.400 . S
C143 N146 1.351 1_554 S
C143 C148 1.501 . S
C144 C145 1.387 . S
C144 N147 1.341 . S
C145 C143 1.400 . S
C145 C144 1.387 . S
N146 Co137 2.022 . S
N146 C143 1.351 1_556 S
N146 N147 1.365 1_556 S
N147 C144 1.341 . S
N147 N146 1.365 1_554 S
N147 H167 0.862 1_554 S
C148 C143 1.501 . S
C148 H149 0.961 1_554 S
C148 H150 0.961 1_554 S
C148 H151 0.960 . S
H149 C148 0.961 1_556 S
H150 C148 0.961 1_556 S
H151 C148 0.960 . S
C152 N153 1.342 . S
C152 C156 1.401 . S
C152 C157 1.499 . S
N153 Co136 1.989 . S
N153 C152 1.342 . S
N153 N154 1.388 . S
N154 Co137 1.993 . S
N154 N153 1.388 . S
N154 C155 1.346 . S
C155 N154 1.346 . S
C155 C156 1.396 . S
C155 C165 1.510 . S
C156 C152 1.401 . S
C156 C155 1.396 . S
C157 C152 1.499 . S
C157 H158 0.959 . S
C157 H159 0.960 . S
C157 H160 0.961 . S
H158 C157 0.959 . S
H159 C157 0.960 . S
H160 C157 0.961 . S
O161 Co136 1.967 . S
O161 C169 1.258 . S
O162 Co137 1.941 . S
O162 C169 1.266 . S
H163 C165 0.959 . S
H164 C165 0.961 . S
C165 C155 1.510 . S
C165 H163 0.959 . S
C165 H164 0.961 . S
C165 H166 0.960 . S
H166 C165 0.960 . S
H167 N147 0.862 1_556 S
O168 Co136 1.920 1_565 S
O168 C141 1.289 . S
C169 O161 1.258 . S
C169 O162 1.266 . S
Co170 O173 1.970 1_655 S
Co170 N187 1.989 . S
Co170 O195 1.967 . S
Co170 O202 1.920 1_655 S
Co171 O174 1.966 . S
Co171 N180 2.022 . S
Co171 N188 1.993 . S
Co171 O196 1.941 . S
C172 O173 1.258 . S
C172 O174 1.263 1_455 S
O173 Co170 1.970 1_455 S
O173 C172 1.258 . S
O174 Co171 1.966 . S
O174 C172 1.263 1_655 S
C175 O176 1.235 . S
C175 O202 1.289 . S
O176 C175 1.235 . S
C177 C179 1.400 . S
C177 N180 1.351 1_554 S
C177 C182 1.501 . S
C178 C179 1.387 . S
C178 N181 1.341 . S
C179 C177 1.400 . S
C179 C178 1.387 . S
N180 Co171 2.022 . S
N180 C177 1.351 1_556 S
N180 N181 1.365 1_556 S
N181 C178 1.341 . S
N181 N180 1.365 1_554 S
N181 H201 0.862 1_554 S
C182 C177 1.501 . S
C182 H183 0.961 1_554 S
C182 H184 0.961 1_554 S
C182 H185 0.960 . S
H183 C182 0.961 1_556 S
H184 C182 0.961 1_556 S
H185 C182 0.960 . S
C186 N187 1.342 . S
C186 C190 1.401 . S
C186 C191 1.499 . S
N187 Co170 1.989 . S
N187 C186 1.342 . S
N187 N188 1.388 . S
N188 Co171 1.993 . S
N188 N187 1.388 . S
N188 C189 1.346 . S
C189 N188 1.346 . S
C189 C190 1.396 . S
C189 C199 1.510 . S
C190 C186 1.401 . S
C190 C189 1.396 . S
C191 C186 1.499 . S
C191 H192 0.959 . S
C191 H193 0.960 . S
C191 H194 0.961 . S
H192 C191 0.959 . S
H193 C191 0.960 . S
H194 C191 0.961 . S
O195 Co170 1.967 . S
O195 C203 1.258 . S
O196 Co171 1.941 . S
O196 C203 1.266 . S
H197 C199 0.959 . S
H198 C199 0.961 . S
C199 C189 1.510 . S
C199 H197 0.959 . S
C199 H198 0.961 . S
C199 H200 0.960 . S
H200 C199 0.960 . S
H201 N181 0.862 1_556 S
O202 Co170 1.920 1_455 S
O202 C175 1.289 . S
C203 O195 1.258 . S
C203 O196 1.266 . S
Co204 O207 1.970 . S
Co204 N221 1.989 . S
Co204 O229 1.967 . S
Co204 O236 1.920 . S
Co205 O208 1.966 . S
Co205 N214 2.022 . S
Co205 N222 1.993 . S
Co205 O230 1.941 . S
C206 O207 1.258 . S
C206 O208 1.263 . S
O207 Co204 1.970 . S
O207 C206 1.258 . S
O208 Co205 1.966 . S
O208 C206 1.263 . S
C209 O210 1.235 . S
C209 O236 1.289 . S
O210 C209 1.235 . S
C211 C213 1.400 . S
C211 N214 1.351 . S
C211 C216 1.501 . S
C212 C213 1.387 . S
C212 N215 1.341 . S
C213 C211 1.400 . S
C213 C212 1.387 . S
N214 Co205 2.022 . S
N214 C211 1.351 . S
N214 N215 1.365 . S
N215 C212 1.341 . S
N215 N214 1.365 . S
N215 H235 0.862 . S
C216 C211 1.501 . S
C216 H217 0.961 . S
C216 H218 0.961 . S
C216 H219 0.960 . S
H217 C216 0.961 . S
H218 C216 0.961 . S
H219 C216 0.960 . S
C220 N221 1.342 . S
C220 C224 1.401 . S
C220 C225 1.499 . S
N221 Co204 1.989 . S
N221 C220 1.342 . S
N221 N222 1.388 . S
N222 Co205 1.993 . S
N222 N221 1.388 . S
N222 C223 1.346 . S
C223 N222 1.346 . S
C223 C224 1.396 . S
C223 C233 1.510 . S
C224 C220 1.401 . S
C224 C223 1.396 . S
C225 C220 1.499 . S
C225 H226 0.959 . S
C225 H227 0.960 . S
C225 H228 0.961 . S
H226 C225 0.959 . S
H227 C225 0.960 . S
H228 C225 0.961 . S
O229 Co204 1.967 . S
O229 C237 1.258 . S
O230 Co205 1.941 . S
O230 C237 1.266 . S
H231 C233 0.959 . S
H232 C233 0.961 . S
C233 C223 1.510 . S
C233 H231 0.959 . S
C233 H232 0.961 . S
C233 H234 0.960 . S
H234 C233 0.960 . S
H235 N215 0.862 . S
O236 Co204 1.920 . S
O236 C209 1.289 . S
C237 O229 1.258 . S
C237 O230 1.266 . S
Co238 O241 1.970 . S
Co238 N255 1.989 . S
Co238 O263 1.967 . S
Co238 O270 1.920 . S
Co239 O242 1.966 . S
Co239 N248 2.022 . S
Co239 N256 1.993 . S
Co239 O264 1.941 . S
C240 O241 1.258 . S
C240 O242 1.263 . S
O241 Co238 1.970 . S
O241 C240 1.258 . S
O242 Co239 1.966 . S
O242 C240 1.263 . S
C243 O244 1.235 . S
C243 O270 1.289 . S
O244 C243 1.235 . S
C245 C247 1.400 . S
C245 N248 1.351 . S
C245 C250 1.501 . S
C246 C247 1.387 . S
C246 N249 1.341 . S
C247 C245 1.400 . S
C247 C246 1.387 . S
N248 Co239 2.022 . S
N248 C245 1.351 . S
N248 N249 1.365 . S
N249 C246 1.341 . S
N249 N248 1.365 . S
N249 H269 0.862 . S
C250 C245 1.501 . S
C250 H251 0.961 . S
C250 H252 0.961 . S
C250 H253 0.960 . S
H251 C250 0.961 . S
H252 C250 0.961 . S
H253 C250 0.960 . S
C254 N255 1.342 . S
C254 C258 1.401 . S
C254 C259 1.499 . S
N255 Co238 1.989 . S
N255 C254 1.342 . S
N255 N256 1.388 . S
N256 Co239 1.993 . S
N256 N255 1.388 . S
N256 C257 1.346 . S
C257 N256 1.346 . S
C257 C258 1.396 . S
C257 C267 1.510 . S
C258 C254 1.401 . S
C258 C257 1.396 . S
C259 C254 1.499 . S
C259 H260 0.959 . S
C259 H261 0.960 . S
C259 H262 0.961 . S
H260 C259 0.959 . S
H261 C259 0.960 . S
H262 C259 0.961 . S
O263 Co238 1.967 . S
O263 C271 1.258 . S
O264 Co239 1.941 . S
O264 C271 1.266 . S
H265 C267 0.959 . S
H266 C267 0.961 . S
C267 C257 1.510 . S
C267 H265 0.959 . S
C267 H266 0.961 . S
C267 H268 0.960 . S
H268 C267 0.960 . S
H269 N249 0.862 . S
O270 Co238 1.920 . S
O270 C243 1.289 . S
C271 O263 1.258 . S
C271 O264 1.266 . S
Co272 O275 1.970 . S
Co272 N289 1.989 . S
Co272 O297 1.967 . S
Co272 O304 1.920 . S
Co273 O276 1.966 . S
Co273 N282 2.022 . S
Co273 N290 1.993 . S
Co273 O298 1.941 . S
C274 O275 1.258 . S
C274 O276 1.263 . S
O275 Co272 1.970 . S
O275 C274 1.258 . S
O276 Co273 1.966 . S
O276 C274 1.263 . S
C277 O278 1.235 . S
C277 O304 1.289 . S
O278 C277 1.235 . S
C279 C281 1.400 . S
C279 N282 1.351 . S
C279 C284 1.501 . S
C280 C281 1.387 . S
C280 N283 1.341 . S
C281 C279 1.400 . S
C281 C280 1.387 . S
N282 Co273 2.022 . S
N282 C279 1.351 . S
N282 N283 1.365 . S
N283 C280 1.341 . S
N283 N282 1.365 . S
N283 H303 0.862 . S
C284 C279 1.501 . S
C284 H285 0.961 . S
C284 H286 0.961 . S
C284 H287 0.960 . S
H285 C284 0.961 . S
H286 C284 0.961 . S
H287 C284 0.960 . S
C288 N289 1.342 . S
C288 C292 1.401 . S
C288 C293 1.499 . S
N289 Co272 1.989 . S
N289 C288 1.342 . S
N289 N290 1.388 . S
N290 Co273 1.993 . S
N290 N289 1.388 . S
N290 C291 1.346 . S
C291 N290 1.346 . S
C291 C292 1.396 . S
C291 C301 1.510 . S
C292 C288 1.401 . S
C292 C291 1.396 . S
C293 C288 1.499 . S
C293 H294 0.959 . S
C293 H295 0.960 . S
C293 H296 0.961 . S
H294 C293 0.959 . S
H295 C293 0.960 . S
H296 C293 0.961 . S
O297 Co272 1.967 . S
O297 C305 1.258 . S
O298 Co273 1.941 . S
O298 C305 1.266 . S
H299 C301 0.959 . S
H300 C301 0.961 . S
C301 C291 1.510 . S
C301 H299 0.959 . S
C301 H300 0.961 . S
C301 H302 0.960 . S
H302 C301 0.960 . S
H303 N283 0.862 . S
O304 Co272 1.920 . S
O304 C277 1.289 . S
C305 O297 1.258 . S
C305 O298 1.266 . S
Co306 O309 1.970 . S
Co306 N323 1.989 . S
Co306 O331 1.967 . S
Co306 O338 1.920 . S
Co307 O310 1.966 . S
Co307 N316 2.022 . S
Co307 N324 1.993 . S
Co307 O332 1.941 . S
C308 O309 1.258 . S
C308 O310 1.263 . S
O309 Co306 1.970 . S
O309 C308 1.258 . S
O310 Co307 1.966 . S
O310 C308 1.263 . S
C311 O312 1.232 1_554 S
C311 O338 1.289 . S
O312 C311 1.232 1_556 S
C313 C315 1.400 . S
C313 N316 1.351 . S
C313 C318 1.501 . S
C314 C315 1.387 . S
C314 N317 1.341 . S
C315 C313 1.400 . S
C315 C314 1.387 . S
N316 Co307 2.022 . S
N316 C313 1.351 . S
N316 N317 1.365 . S
N317 C314 1.341 . S
N317 N316 1.365 . S
N317 H337 0.862 . S
C318 C313 1.501 . S
C318 H319 0.961 . S
C318 H320 0.961 . S
C318 H321 0.960 . S
H319 C318 0.961 . S
H320 C318 0.961 . S
H321 C318 0.960 . S
C322 N323 1.342 . S
C322 C326 1.401 . S
C322 C327 1.499 1_554 S
N323 Co306 1.989 . S
N323 C322 1.342 . S
N323 N324 1.388 . S
N324 Co307 1.993 . S
N324 N323 1.388 . S
N324 C325 1.346 . S
C325 N324 1.346 . S
C325 C326 1.396 . S
C325 C335 1.510 . S
C326 C322 1.401 . S
C326 C325 1.396 . S
C327 C322 1.499 1_556 S
C327 H328 0.959 . S
C327 H329 0.960 . S
C327 H330 0.961 1_545 S
H328 C327 0.959 . S
H329 C327 0.960 . S
H330 C327 0.961 1_565 S
O331 Co306 1.967 . S
O331 C339 1.256 1_545 S
O332 Co307 1.941 . S
O332 C339 1.267 1_545 S
H333 C335 0.959 . S
H334 C335 0.961 . S
C335 C325 1.510 . S
C335 H333 0.959 . S
C335 H334 0.961 . S
C335 H336 0.960 . S
H336 C335 0.960 . S
H337 N317 0.862 . S
O338 Co306 1.920 . S
O338 C311 1.289 . S
C339 O331 1.256 1_565 S
C339 O332 1.267 1_565 S
Co340 O343 1.970 . S
Co340 N357 1.989 . S
Co340 O365 1.967 . S
Co340 O372 1.920 . S
Co341 O344 1.966 . S
Co341 N350 2.022 . S
Co341 N358 1.993 . S
Co341 O366 1.941 . S
C342 O343 1.258 . S
C342 O344 1.263 . S
O343 Co340 1.970 . S
O343 C342 1.258 . S
O344 Co341 1.966 . S
O344 C342 1.263 . S
C345 O346 1.232 1_554 S
C345 O372 1.289 . S
O346 C345 1.232 1_556 S
C347 C349 1.400 . S
C347 N350 1.351 . S
C347 C352 1.501 . S
C348 C349 1.387 . S
C348 N351 1.341 . S
C349 C347 1.400 . S
C349 C348 1.387 . S
N350 Co341 2.022 . S
N350 C347 1.351 . S
N350 N351 1.365 . S
N351 C348 1.341 . S
N351 N350 1.365 . S
N351 H371 0.862 . S
C352 C347 1.501 . S
C352 H353 0.961 . S
C352 H354 0.961 . S
C352 H355 0.960 . S
H353 C352 0.961 . S
H354 C352 0.961 . S
H355 C352 0.960 . S
C356 N357 1.342 . S
C356 C360 1.401 . S
C356 C361 1.499 1_554 S
N357 Co340 1.989 . S
N357 C356 1.342 . S
N357 N358 1.388 . S
N358 Co341 1.993 . S
N358 N357 1.388 . S
N358 C359 1.346 . S
C359 N358 1.346 . S
C359 C360 1.396 . S
C359 C369 1.510 . S
C360 C356 1.401 . S
C360 C359 1.396 . S
C361 C356 1.499 1_556 S
C361 H362 0.959 . S
C361 H363 0.960 . S
C361 H364 0.961 1_655 S
H362 C361 0.959 . S
H363 C361 0.960 . S
H364 C361 0.961 1_455 S
O365 Co340 1.967 . S
O365 C373 1.258 1_655 S
O366 Co341 1.941 . S
O366 C373 1.264 1_655 S
H367 C369 0.959 . S
H368 C369 0.961 . S
C369 C359 1.510 . S
C369 H367 0.959 . S
C369 H368 0.961 . S
C369 H370 0.960 . S
H370 C369 0.960 . S
H371 N351 0.862 . S
O372 Co340 1.920 . S
O372 C345 1.289 . S
C373 O365 1.258 1_455 S
C373 O366 1.264 1_455 S
Co374 O377 1.970 . S
Co374 N391 1.989 . S
Co374 O399 1.967 . S
Co374 O406 1.920 . S
Co375 O378 1.966 . S
Co375 N384 2.022 . S
Co375 N392 1.993 . S
Co375 O400 1.941 . S
C376 O377 1.258 . S
C376 O378 1.263 . S
O377 Co374 1.970 . S
O377 C376 1.258 . S
O378 Co375 1.966 . S
O378 C376 1.263 . S
C379 O380 1.232 1_554 S
C379 O406 1.289 . S
O380 C379 1.232 1_556 S
C381 C383 1.400 . S
C381 N384 1.351 . S
C381 C386 1.501 . S
C382 C383 1.387 . S
C382 N385 1.341 . S
C383 C381 1.400 . S
C383 C382 1.387 . S
N384 Co375 2.022 . S
N384 C381 1.351 . S
N384 N385 1.365 . S
N385 C382 1.341 . S
N385 N384 1.365 . S
N385 H405 0.862 . S
C386 C381 1.501 . S
C386 H387 0.961 . S
C386 H388 0.961 . S
C386 H389 0.960 . S
H387 C386 0.961 . S
H388 C386 0.961 . S
H389 C386 0.960 . S
C390 N391 1.342 . S
C390 C394 1.401 . S
C390 C395 1.499 1_554 S
N391 Co374 1.989 . S
N391 C390 1.342 . S
N391 N392 1.388 . S
N392 Co375 1.993 . S
N392 N391 1.388 . S
N392 C393 1.346 . S
C393 N392 1.346 . S
C393 C394 1.396 . S
C393 C403 1.510 . S
C394 C390 1.401 . S
C394 C393 1.396 . S
C395 C390 1.499 1_556 S
C395 H396 0.959 . S
C395 H397 0.960 . S
C395 H398 0.961 . S
H396 C395 0.959 . S
H397 C395 0.960 . S
H398 C395 0.961 . S
O399 Co374 1.967 . S
O399 C407 1.258 . S
O400 Co375 1.941 . S
O400 C407 1.266 . S
H401 C403 0.959 . S
H402 C403 0.961 . S
C403 C393 1.510 . S
C403 H401 0.959 . S
C403 H402 0.961 . S
C403 H404 0.960 . S
H404 C403 0.960 . S
H405 N385 0.862 . S
O406 Co374 1.920 . S
O406 C379 1.289 . S
C407 O399 1.258 . S
C407 O400 1.266 . S
Co408 O411 1.970 . S
Co408 N425 1.989 . S
Co408 O433 1.967 . S
Co408 O440 1.920 . S
Co409 O412 1.966 . S
Co409 N418 2.022 . S
Co409 N426 1.993 . S
Co409 O434 1.941 . S
C410 O411 1.258 . S
C410 O412 1.263 . S
O411 Co408 1.970 . S
O411 C410 1.258 . S
O412 Co409 1.966 . S
O412 C410 1.263 . S
C413 O414 1.232 1_556 S
C413 O440 1.289 . S
O414 C413 1.232 1_554 S
C415 C417 1.400 . S
C415 N418 1.351 . S
C415 C420 1.501 . S
C416 C417 1.387 . S
C416 N419 1.341 . S
C417 C415 1.400 . S
C417 C416 1.387 . S
N418 Co409 2.022 . S
N418 C415 1.351 . S
N418 N419 1.365 . S
N419 C416 1.341 . S
N419 N418 1.365 . S
N419 H439 0.862 . S
C420 C415 1.501 . S
C420 H421 0.961 . S
C420 H422 0.961 . S
C420 H423 0.960 . S
H421 C420 0.961 . S
H422 C420 0.961 . S
H423 C420 0.960 . S
C424 N425 1.342 . S
C424 C428 1.401 . S
C424 C429 1.499 1_556 S
N425 Co408 1.989 . S
N425 C424 1.342 . S
N425 N426 1.388 . S
N426 Co409 1.993 . S
N426 N425 1.388 . S
N426 C427 1.346 . S
C427 N426 1.346 . S
C427 C428 1.396 . S
C427 C437 1.510 . S
C428 C424 1.401 . S
C428 C427 1.396 . S
C429 C424 1.499 1_554 S
C429 H430 0.959 . S
C429 H431 0.960 . S
C429 H432 0.961 1_565 S
H430 C429 0.959 . S
H431 C429 0.960 . S
H432 C429 0.961 1_545 S
O433 Co408 1.967 . S
O433 C441 1.256 1_565 S
O434 Co409 1.941 . S
O434 C441 1.267 1_565 S
H435 C437 0.959 . S
H436 C437 0.961 . S
C437 C427 1.510 . S
C437 H435 0.959 . S
C437 H436 0.961 . S
C437 H438 0.960 . S
H438 C437 0.960 . S
H439 N419 0.862 . S
O440 Co408 1.920 . S
O440 C413 1.289 . S
C441 O433 1.256 1_545 S
C441 O434 1.267 1_545 S
Co442 O445 1.970 . S
Co442 N459 1.989 . S
Co442 O467 1.967 . S
Co442 O474 1.920 . S
Co443 O446 1.966 . S
Co443 N452 2.022 . S
Co443 N460 1.993 . S
Co443 O468 1.941 . S
C444 O445 1.258 . S
C444 O446 1.263 . S
O445 Co442 1.970 . S
O445 C444 1.258 . S
O446 Co443 1.966 . S
O446 C444 1.263 . S
C447 O448 1.232 1_556 S
C447 O474 1.289 . S
O448 C447 1.232 1_554 S
C449 C451 1.400 . S
C449 N452 1.351 . S
C449 C454 1.501 . S
C450 C451 1.387 . S
C450 N453 1.341 . S
C451 C449 1.400 . S
C451 C450 1.387 . S
N452 Co443 2.022 . S
N452 C449 1.351 . S
N452 N453 1.365 . S
N453 C450 1.341 . S
N453 N452 1.365 . S
N453 H473 0.862 . S
C454 C449 1.501 . S
C454 H455 0.961 . S
C454 H456 0.961 . S
C454 H457 0.960 . S
H455 C454 0.961 . S
H456 C454 0.961 . S
H457 C454 0.960 . S
C458 N459 1.342 . S
C458 C462 1.401 . S
C458 C463 1.499 1_556 S
N459 Co442 1.989 . S
N459 C458 1.342 . S
N459 N460 1.388 . S
N460 Co443 1.993 . S
N460 N459 1.388 . S
N460 C461 1.346 . S
C461 N460 1.346 . S
C461 C462 1.396 . S
C461 C471 1.510 . S
C462 C458 1.401 . S
C462 C461 1.396 . S
C463 C458 1.499 1_554 S
C463 H464 0.959 . S
C463 H465 0.960 . S
C463 H466 0.961 1_455 S
H464 C463 0.959 . S
H465 C463 0.960 . S
H466 C463 0.961 1_655 S
O467 Co442 1.967 . S
O467 C475 1.258 1_455 S
O468 Co443 1.941 . S
O468 C475 1.264 1_455 S
H469 C471 0.959 . S
H470 C471 0.961 . S
C471 C461 1.510 . S
C471 H469 0.959 . S
C471 H470 0.961 . S
C471 H472 0.960 . S
H472 C471 0.960 . S
H473 N453 0.862 . S
O474 Co442 1.920 . S
O474 C447 1.289 . S
C475 O467 1.258 1_655 S
C475 O468 1.264 1_655 S
Co476 O479 1.970 . S
Co476 N493 1.989 . S
Co476 O501 1.967 . S
Co476 O508 1.920 . S
Co477 O480 1.966 . S
Co477 N486 2.022 . S
Co477 N494 1.993 . S
Co477 O502 1.941 . S
C478 O479 1.258 . S
C478 O480 1.263 . S
O479 Co476 1.970 . S
O479 C478 1.258 . S
O480 Co477 1.966 . S
O480 C478 1.263 . S
C481 O482 1.232 1_556 S
C481 O508 1.289 . S
O482 C481 1.232 1_554 S
C483 C485 1.400 . S
C483 N486 1.351 . S
C483 C488 1.501 . S
C484 C485 1.387 . S
C484 N487 1.341 . S
C485 C483 1.400 . S
C485 C484 1.387 . S
N486 Co477 2.022 . S
N486 C483 1.351 . S
N486 N487 1.365 . S
N487 C484 1.341 . S
N487 N486 1.365 . S
N487 H507 0.862 . S
C488 C483 1.501 . S
C488 H489 0.961 . S
C488 H490 0.961 . S
C488 H491 0.960 . S
H489 C488 0.961 . S
H490 C488 0.961 . S
H491 C488 0.960 . S
C492 N493 1.342 . S
C492 C496 1.401 . S
C492 C497 1.499 1_556 S
N493 Co476 1.989 . S
N493 C492 1.342 . S
N493 N494 1.388 . S
N494 Co477 1.993 . S
N494 N493 1.388 . S
N494 C495 1.346 . S
C495 N494 1.346 . S
C495 C496 1.396 . S
C495 C505 1.510 . S
C496 C492 1.401 . S
C496 C495 1.396 . S
C497 C492 1.499 1_554 S
C497 H498 0.959 . S
C497 H499 0.960 . S
C497 H500 0.961 . S
H498 C497 0.959 . S
H499 C497 0.960 . S
H500 C497 0.961 . S
O501 Co476 1.967 . S
O501 C509 1.258 . S
O502 Co477 1.941 . S
O502 C509 1.266 . S
H503 C505 0.959 . S
H504 C505 0.961 . S
C505 C495 1.510 . S
C505 H503 0.959 . S
C505 H504 0.961 . S
C505 H506 0.960 . S
H506 C505 0.960 . S
H507 N487 0.862 . S
O508 Co476 1.920 . S
O508 C481 1.289 . S
C509 O501 1.258 . S
C509 O502 1.266 . S
Co510 O513 1.970 . S
Co510 N527 1.989 . S
Co510 O535 1.967 . S
Co510 O542 1.920 . S
Co511 O514 1.966 . S
Co511 N520 2.022 . S
Co511 N528 1.993 . S
Co511 O536 1.941 . S
C512 O513 1.258 . S
C512 O514 1.263 . S
O513 Co510 1.970 . S
O513 C512 1.258 . S
O514 Co511 1.966 . S
O514 C512 1.263 . S
C515 O516 1.235 . S
C515 O542 1.289 . S
O516 C515 1.235 . S
C517 C519 1.400 . S
C517 N520 1.351 . S
C517 C522 1.501 . S
C518 C519 1.387 . S
C518 N521 1.341 . S
C519 C517 1.400 . S
C519 C518 1.387 . S
N520 Co511 2.022 . S
N520 C517 1.351 . S
N520 N521 1.365 . S
N521 C518 1.341 . S
N521 N520 1.365 . S
N521 H541 0.862 . S
C522 C517 1.501 . S
C522 H523 0.961 . S
C522 H524 0.961 . S
C522 H525 0.960 . S
H523 C522 0.961 . S
H524 C522 0.961 . S
H525 C522 0.960 . S
C526 N527 1.342 . S
C526 C530 1.401 . S
C526 C531 1.499 . S
N527 Co510 1.989 . S
N527 C526 1.342 . S
N527 N528 1.388 . S
N528 Co511 1.993 . S
N528 N527 1.388 . S
N528 C529 1.346 . S
C529 N528 1.346 . S
C529 C530 1.396 . S
C529 C539 1.510 . S
C530 C526 1.401 . S
C530 C529 1.396 . S
C531 C526 1.499 . S
C531 H532 0.959 . S
C531 H533 0.960 . S
C531 H534 0.961 . S
H532 C531 0.959 . S
H533 C531 0.960 . S
H534 C531 0.961 . S
O535 Co510 1.967 . S
O535 C543 1.258 . S
O536 Co511 1.941 . S
O536 C543 1.266 . S
H537 C539 0.959 . S
H538 C539 0.961 . S
C539 C529 1.510 . S
C539 H537 0.959 . S
C539 H538 0.961 . S
C539 H540 0.960 . S
H540 C539 0.960 . S
H541 N521 0.862 . S
O542 Co510 1.920 . S
O542 C515 1.289 . S
C543 O535 1.258 . S
C543 O536 1.266 . S
Co544 O547 1.970 . S
Co544 N561 1.989 . S
Co544 O569 1.967 . S
Co544 O576 1.920 . S
Co545 O548 1.966 . S
Co545 N554 2.022 . S
Co545 N562 1.993 . S
Co545 O570 1.941 . S
C546 O547 1.258 . S
C546 O548 1.263 . S
O547 Co544 1.970 . S
O547 C546 1.258 . S
O548 Co545 1.966 . S
O548 C546 1.263 . S
C549 O550 1.235 . S
C549 O576 1.289 . S
O550 C549 1.235 . S
C551 C553 1.400 . S
C551 N554 1.351 . S
C551 C556 1.501 . S
C552 C553 1.387 . S
C552 N555 1.341 . S
C553 C551 1.400 . S
C553 C552 1.387 . S
N554 Co545 2.022 . S
N554 C551 1.351 . S
N554 N555 1.365 . S
N555 C552 1.341 . S
N555 N554 1.365 . S
N555 H575 0.862 . S
C556 C551 1.501 . S
C556 H557 0.961 . S
C556 H558 0.961 . S
C556 H559 0.960 . S
H557 C556 0.961 . S
H558 C556 0.961 . S
H559 C556 0.960 . S
C560 N561 1.342 . S
C560 C564 1.401 . S
C560 C565 1.499 . S
N561 Co544 1.989 . S
N561 C560 1.342 . S
N561 N562 1.388 . S
N562 Co545 1.993 . S
N562 N561 1.388 . S
N562 C563 1.346 . S
C563 N562 1.346 . S
C563 C564 1.396 . S
C563 C573 1.510 . S
C564 C560 1.401 . S
C564 C563 1.396 . S
C565 C560 1.499 . S
C565 H566 0.959 . S
C565 H567 0.960 . S
C565 H568 0.961 . S
H566 C565 0.959 . S
H567 C565 0.960 . S
H568 C565 0.961 . S
O569 Co544 1.967 . S
O569 C577 1.258 . S
O570 Co545 1.941 . S
O570 C577 1.266 . S
H571 C573 0.959 . S
H572 C573 0.961 . S
C573 C563 1.510 . S
C573 H571 0.959 . S
C573 H572 0.961 . S
C573 H574 0.960 . S
H574 C573 0.960 . S
H575 N555 0.862 . S
O576 Co544 1.920 . S
O576 C549 1.289 . S
C577 O569 1.258 . S
C577 O570 1.266 . S
Co578 O581 1.970 . S
Co578 N595 1.989 . S
Co578 O603 1.967 . S
Co578 O610 1.920 . S
Co579 O582 1.966 . S
Co579 N588 2.022 . S
Co579 N596 1.993 . S
Co579 O604 1.941 . S
C580 O581 1.258 . S
C580 O582 1.263 . S
O581 Co578 1.970 . S
O581 C580 1.258 . S
O582 Co579 1.966 . S
O582 C580 1.263 . S
C583 O584 1.235 . S
C583 O610 1.289 . S
O584 C583 1.235 . S
C585 C587 1.400 . S
C585 N588 1.351 . S
C585 C590 1.501 . S
C586 C587 1.387 . S
C586 N589 1.341 . S
C587 C585 1.400 . S
C587 C586 1.387 . S
N588 Co579 2.022 . S
N588 C585 1.351 . S
N588 N589 1.365 . S
N589 C586 1.341 . S
N589 N588 1.365 . S
N589 H609 0.862 . S
C590 C585 1.501 . S
C590 H591 0.961 . S
C590 H592 0.961 . S
C590 H593 0.960 . S
H591 C590 0.961 . S
H592 C590 0.961 . S
H593 C590 0.960 . S
C594 N595 1.342 . S
C594 C598 1.401 . S
C594 C599 1.499 . S
N595 Co578 1.989 . S
N595 C594 1.342 . S
N595 N596 1.388 . S
N596 Co579 1.993 . S
N596 N595 1.388 . S
N596 C597 1.346 . S
C597 N596 1.346 . S
C597 C598 1.396 . S
C597 C607 1.510 . S
C598 C594 1.401 . S
C598 C597 1.396 . S
C599 C594 1.499 . S
C599 H600 0.959 . S
C599 H601 0.960 . S
C599 H602 0.961 . S
H600 C599 0.959 . S
H601 C599 0.960 . S
H602 C599 0.961 . S
O603 Co578 1.967 . S
O603 C611 1.258 . S
O604 Co579 1.941 . S
O604 C611 1.266 . S
H605 C607 0.959 . S
H606 C607 0.961 . S
C607 C597 1.510 . S
C607 H605 0.959 . S
C607 H606 0.961 . S
C607 H608 0.960 . S
H608 C607 0.960 . S
H609 N589 0.862 . S
O610 Co578 1.920 . S
O610 C583 1.289 . S
C611 O603 1.258 . S
C611 O604 1.266 . S
C5 C271 1.337 . S
C39 C305 1.337 . S
C73 C237 1.337 . S
C577 C107 1.337 . S
C141 C611 1.337 . S
C175 C543 1.337 . S
C209 C475 1.339 . S
C509 C243 1.337 . S
C441 C277 1.338 . S
C311 C169 1.337 1_554 S
C345 C203 1.337 1_554 S
C379 C135 1.337 1_554 S
C413 C67 1.337 1_556 S
C447 C101 1.337 1_556 S
C33 C481 1.337 1_554 S
C373 C515 1.339 . S
C549 C407 1.337 . S
C583 C339 1.338 . S
C530 C20 2.086 . S
C564 C54 2.086 . S
C88 C598 2.087 . S
C122 C224 2.086 . S
C156 C258 2.086 . S
C292 C190 2.087 . S
C326 C428 2.086 1_544 S
C462 C360 2.086 1_456 S
C496 C394 2.087 1_556 S
C2 C145 1.428 . S
C179 C36 1.428 . S
C70 C111 1.428 . S
C43 C104 1.428 . S
C138 C77 1.428 . S
C9 C172 1.428 . S
C206 C349 1.428 . S
C383 C240 1.428 . S
C315 C274 1.428 . S
C308 C247 1.428 . S
C281 C342 1.428 . S
C376 C213 1.428 . S
C553 C410 1.428 . S
C587 C444 1.428 . S
C519 C478 1.428 . S
C451 C512 1.428 . S
C485 C546 1.428 . S
C580 C417 1.428 . S
