# Generated by pormake.
# Topology wgt, (5)-cn, num edge types: 1
# Building blocks:
#     Node 0, Type 0, BuildingBlock: BEQFEK_clean_sbu_0, # of connection points: 5
#     Node 1, Type 0, BuildingBlock: BEQFEK_clean_sbu_0, # of connection points: 5
#     Node 2, Type 0, BuildingBlock: BEQFEK_clean_sbu_0, # of connection points: 5
#     Node 3, Type 0, BuildingBlock: BEQFEK_clean_sbu_0, # of connection points: 5
#     Node 4, Type 0, BuildingBlock: BEQFEK_clean_sbu_0, # of connection points: 5
#     Node 5, Type 0, BuildingBlock: BEQFEK_clean_sbu_0, # of connection points: 5
#     Node 6, Type 0, BuildingBlock: BEQFEK_clean_sbu_0, # of connection points: 5
#     Node 7, Type 0, BuildingBlock: BEQFEK_clean_sbu_0, # of connection points: 5
#     Node 8, Type 0, BuildingBlock: BEQFEK_clean_sbu_0, # of connection points: 5
#     Node 9, Type 0, BuildingBlock: BEQFEK_clean_sbu_0, # of connection points: 5
#     Node 10, Type 0, BuildingBlock: BEQFEK_clean_sbu_0, # of connection points: 5
#     Node 11, Type 0, BuildingBlock: BEQFEK_clean_sbu_0, # of connection points: 5
#     Node 12, Type 0, BuildingBlock: BEQFEK_clean_sbu_0, # of connection points: 5
#     Node 13, Type 0, BuildingBlock: BEQFEK_clean_sbu_0, # of connection points: 5
#     Node 14, Type 0, BuildingBlock: BEQFEK_clean_sbu_0, # of connection points: 5
#     Node 15, Type 0, BuildingBlock: BEQFEK_clean_sbu_0, # of connection points: 5
#     Edge 16, Type (0, 0), BuildingBlock: AJUNOK_clean_linker_0, # of connection points: 2
#     Edge 17, Type (0, 0), BuildingBlock: AJUNOK_clean_linker_0, # of connection points: 2
#     Edge 18, Type (0, 0), BuildingBlock: AJUNOK_clean_linker_0, # of connection points: 2
#     Edge 19, Type (0, 0), BuildingBlock: AJUNOK_clean_linker_0, # of connection points: 2
#     Edge 20, Type (0, 0), BuildingBlock: AJUNOK_clean_linker_0, # of connection points: 2
#     Edge 21, Type (0, 0), BuildingBlock: AJUNOK_clean_linker_0, # of connection points: 2
#     Edge 22, Type (0, 0), BuildingBlock: AJUNOK_clean_linker_0, # of connection points: 2
#     Edge 23, Type (0, 0), BuildingBlock: AJUNOK_clean_linker_0, # of connection points: 2
#     Edge 24, Type (0, 0), BuildingBlock: AJUNOK_clean_linker_0, # of connection points: 2
#     Edge 25, Type (0, 0), BuildingBlock: AJUNOK_clean_linker_0, # of connection points: 2
#     Edge 26, Type (0, 0), BuildingBlock: AJUNOK_clean_linker_0, # of connection points: 2
#     Edge 27, Type (0, 0), BuildingBlock: AJUNOK_clean_linker_0, # of connection points: 2
#     Edge 28, Type (0, 0), BuildingBlock: AJUNOK_clean_linker_0, # of connection points: 2
#     Edge 29, Type (0, 0), BuildingBlock: AJUNOK_clean_linker_0, # of connection points: 2
#     Edge 30, Type (0, 0), BuildingBlock: AJUNOK_clean_linker_0, # of connection points: 2
#     Edge 31, Type (0, 0), BuildingBlock: AJUNOK_clean_linker_0, # of connection points: 2
#     Edge 32, Type (0, 0), BuildingBlock: AJUNOK_clean_linker_0, # of connection points: 2
#     Edge 33, Type (0, 0), BuildingBlock: AJUNOK_clean_linker_0, # of connection points: 2
#     Edge 34, Type (0, 0), BuildingBlock: AJUNOK_clean_linker_0, # of connection points: 2
#     Edge 35, Type (0, 0), BuildingBlock: AJUNOK_clean_linker_0, # of connection points: 2
#     Edge 36, Type (0, 0), BuildingBlock: AJUNOK_clean_linker_0, # of connection points: 2
#     Edge 37, Type (0, 0), BuildingBlock: AJUNOK_clean_linker_0, # of connection points: 2
#     Edge 38, Type (0, 0), BuildingBlock: AJUNOK_clean_linker_0, # of connection points: 2
#     Edge 39, Type (0, 0), BuildingBlock: AJUNOK_clean_linker_0, # of connection points: 2
#     Edge 40, Type (0, 0), BuildingBlock: AJUNOK_clean_linker_0, # of connection points: 2
#     Edge 41, Type (0, 0), BuildingBlock: AJUNOK_clean_linker_0, # of connection points: 2
#     Edge 42, Type (0, 0), BuildingBlock: AJUNOK_clean_linker_0, # of connection points: 2
#     Edge 43, Type (0, 0), BuildingBlock: AJUNOK_clean_linker_0, # of connection points: 2
#     Edge 44, Type (0, 0), BuildingBlock: AJUNOK_clean_linker_0, # of connection points: 2
#     Edge 45, Type (0, 0), BuildingBlock: AJUNOK_clean_linker_0, # of connection points: 2
#     Edge 46, Type (0, 0), BuildingBlock: AJUNOK_clean_linker_0, # of connection points: 2
#     Edge 47, Type (0, 0), BuildingBlock: AJUNOK_clean_linker_0, # of connection points: 2
#     Edge 48, Type (0, 0), BuildingBlock: AJUNOK_clean_linker_0, # of connection points: 2
#     Edge 49, Type (0, 0), BuildingBlock: AJUNOK_clean_linker_0, # of connection points: 2
#     Edge 50, Type (0, 0), BuildingBlock: AJUNOK_clean_linker_0, # of connection points: 2
#     Edge 51, Type (0, 0), BuildingBlock: AJUNOK_clean_linker_0, # of connection points: 2
#     Edge 52, Type (0, 0), BuildingBlock: AJUNOK_clean_linker_0, # of connection points: 2
#     Edge 53, Type (0, 0), BuildingBlock: AJUNOK_clean_linker_0, # of connection points: 2
#     Edge 54, Type (0, 0), BuildingBlock: AJUNOK_clean_linker_0, # of connection points: 2
#     Edge 55, Type (0, 0), BuildingBlock: AJUNOK_clean_linker_0, # of connection points: 2
# Relax obj value: 0.115
# Max RMSD: 0.178
# Mean RMSD: 0.178
data_MOF--net-wgt--node1-BEQFEK_clean_sbu_0--edge1-AJUNOK_clean_linker_0
_symmetry_space_group_name_H-M    P1
_symmetry_Int_Tables_number       1
_symmetry_cell_setting            triclinic
loop_
_symmetry_equiv_pos_as_xyz
'x, y, z'
_cell_length_a     21.928503
_cell_length_b     21.991974
_cell_length_c     60.632979
_cell_angle_alpha  90.013099
_cell_angle_beta   90.155702
_cell_angle_gamma 89.977953
loop_
_atom_site_label
_atom_site_type_symbol
_atom_site_fract_x
_atom_site_fract_y
_atom_site_fract_z
_atom_type_partial_charge
Co0 Co 0.16869 0.335 0.04539 0.0
Co1 Co 0.16935 0.31754 0.99377 0.0
C2 C 0.09492 0.23718 0.02119 0.0
O3 O 0.1133 0.26644 0.03811 0.0
O4 O 0.11704 0.24776 1.00214 0.0
C5 C 0.19972 0.28704 0.08735 0.0
O6 O 0.20377 0.23689 0.07566 0.0
C7 C 0.1786 0.27677 0.94709 0.0
C8 C 0.2175 0.35912 0.93172 0.0
C9 C 0.19924 0.30017 0.92718 0.0
N10 N 0.1847 0.31999 0.96269 0.0
N11 N 0.20753 0.36917 0.95329 0.0
C12 C 0.15732 0.21341 0.9516 0.0
H13 H 0.1745 0.19805 0.9679 0.0
H14 H 0.17285 0.18149 0.93859 0.0
H15 H 0.10675 0.21308 0.95209 0.0
C16 C 0.30144 0.33867 0.03813 0.0
N17 N 0.24397 0.33266 0.03058 0.0
N18 N 0.24516 0.32059 0.00937 0.0
C19 C 0.30394 0.31575 1.00294 0.0
C20 C 0.34175 0.32769 0.02097 0.0
C21 C 0.31754 0.35709 0.0612 0.0
H22 H 0.28325 0.38959 0.06763 0.0
H23 H 0.31803 0.31627 0.07192 0.0
H24 H 0.36334 0.37851 0.06182 0.0
O25 O 0.12158 0.40617 0.03662 0.0
O26 O 0.11601 0.38896 1.00057 0.0
H27 H 0.3252 0.33384 0.96922 0.0
H28 H 0.36866 0.27244 0.98115 0.0
C29 C 0.3231 0.29434 0.98057 0.0
H30 H 0.28937 0.26144 0.97397 0.0
H31 H 0.21739 0.40933 0.96175 0.0
O32 O 0.18321 0.33572 0.07773 0.0
C33 C 0.1001 0.4189 0.01764 0.0
Co34 Co 0.65058 0.67425 0.29547 0.0
Co35 Co 0.67481 0.67492 0.24415 0.0
C36 C 0.74953 0.5982 0.27269 0.0
O37 O 0.71799 0.61593 0.28915 0.0
O38 O 0.74219 0.62161 0.25366 0.0
C39 C 0.69657 0.70467 0.33775 0.0
O40 O 0.74712 0.70802 0.32622 0.0
C41 C 0.72365 0.68016 0.19872 0.0
C42 C 0.64355 0.71418 0.18028 0.0
C43 C 0.70345 0.69564 0.17776 0.0
N44 N 0.67784 0.68966 0.21304 0.0
N45 N 0.63022 0.71023 0.20189 0.0
C46 C 0.78316 0.65156 0.20488 0.0
H47 H 0.77437 0.60458 0.21069 0.0
H48 H 0.80413 0.67726 0.21871 0.0
H49 H 0.81511 0.6495 0.19076 0.0
C50 C 0.65222 0.80638 0.2881 0.0
N51 N 0.65764 0.74906 0.28063 0.0
N52 N 0.67307 0.75009 0.25973 0.0
C53 C 0.6815 0.80846 0.25353 0.0
C54 C 0.66856 0.84631 0.27137 0.0
C55 C 0.62636 0.82244 0.3102 0.0
H56 H 0.58957 0.79003 0.31459 0.0
H57 H 0.66242 0.81903 0.32297 0.0
H58 H 0.60797 0.86948 0.31023 0.0
O59 O 0.57798 0.63138 0.28546 0.0
O60 O 0.60028 0.62443 0.24973 0.0
H61 H 0.66697 0.83093 0.21968 0.0
H62 H 0.72933 0.87148 0.23236 0.0
C63 C 0.70557 0.82702 0.23146 0.0
H64 H 0.73765 0.79212 0.22519 0.0
H65 H 0.5883 0.72084 0.20904 0.0
O66 O 0.64767 0.68913 0.32793 0.0
C67 C 0.56679 0.61093 0.26621 0.0
Co68 Co 0.32345 0.17665 0.54484 0.0
Co69 Co 0.33507 0.17794 0.49291 0.0
C70 C 0.401 0.26682 0.52319 0.0
O71 O 0.37296 0.24952 0.54044 0.0
O72 O 0.38886 0.24452 0.50425 0.0
C73 C 0.31618 0.20393 0.5918 0.0
O74 O 0.3524 0.24969 0.58717 0.0
C75 C 0.3164 0.22949 0.44817 0.0
C76 C 0.33839 0.14991 0.4274 0.0
C77 C 0.32097 0.21036 0.42639 0.0
N78 N 0.32995 0.18215 0.46141 0.0
N79 N 0.34285 0.13477 0.44884 0.0
C80 C 0.30312 0.29232 0.45633 0.0
H81 H 0.32682 0.3006 0.47222 0.0
H82 H 0.25342 0.29694 0.45923 0.0
H83 H 0.31707 0.32688 0.44399 0.0
C84 C 0.19309 0.17948 0.53331 0.0
N85 N 0.25223 0.17783 0.52748 0.0
N86 N 0.2564 0.17469 0.5059 0.0
C87 C 0.19975 0.17115 0.49731 0.0
C88 C 0.15748 0.17485 0.5144 0.0
C89 C 0.17181 0.19091 0.5564 0.0
H90 H 0.20253 0.224 0.5646 0.0
H91 H 0.12468 0.20914 0.55677 0.0
H92 H 0.17336 0.14767 0.56581 0.0
O93 O 0.37916 0.10857 0.53698 0.0
O94 O 0.3824 0.10509 0.50039 0.0
H95 H 0.13924 0.14395 0.47086 0.0
H96 H 0.19344 0.20277 0.46401 0.0
C97 C 0.1867 0.16008 0.47339 0.0
H98 H 0.21896 0.12573 0.46683 0.0
H99 H 0.35545 0.09217 0.45491 0.0
O100 O 0.30039 0.1678 0.57642 0.0
C101 C 0.39966 0.08556 0.51916 0.0
Co102 Co 0.81725 0.83043 0.79652 0.0
Co103 Co 0.81114 0.82099 0.7448 0.0
C104 C 0.7241 0.8969 0.76798 0.0
O105 O 0.75018 0.88625 0.78643 0.0
O106 O 0.73696 0.8664 0.75084 0.0
C107 C 0.76761 0.80255 0.83912 0.0
O108 O 0.71713 0.79455 0.82775 0.0
C109 C 0.77055 0.80681 0.6988 0.0
C110 C 0.8571 0.78655 0.68172 0.0
C111 C 0.79524 0.79487 0.67823 0.0
N112 N 0.8157 0.80486 0.71386 0.0
N113 N 0.86727 0.79253 0.70354 0.0
C114 C 0.70634 0.82501 0.70391 0.0
H115 H 0.70588 0.87322 0.70929 0.0
H116 H 0.68885 0.79687 0.71771 0.0
H117 H 0.67585 0.82053 0.6894 0.0
C118 C 0.82705 0.6966 0.79123 0.0
N119 N 0.82028 0.75281 0.78276 0.0
N120 N 0.81428 0.74853 0.76126 0.0
C121 C 0.81355 0.68939 0.75544 0.0
C122 C 0.8219 0.65423 0.77428 0.0
C123 C 0.84316 0.68408 0.81482 0.0
H124 H 0.87577 0.71884 0.8209 0.0
H125 H 0.8015 0.68664 0.82508 0.0
H126 H 0.86363 0.63819 0.81672 0.0
O127 O 0.8897 0.87695 0.78901 0.0
O128 O 0.87881 0.8782 0.75258 0.0
H129 H 0.84219 0.66987 0.72256 0.0
H130 H 0.78304 0.61995 0.73256 0.0
C131 C 0.79999 0.66744 0.73257 0.0
H132 H 0.76513 0.69704 0.7248 0.0
H133 H 0.90959 0.78918 0.71136 0.0
O134 O 0.81525 0.8199 0.82904 0.0
C135 C 0.90529 0.89665 0.77012 0.0
Co136 Co 0.8335 0.3257 0.5453 0.0
Co137 Co 0.8237 0.32063 0.49349 0.0
C138 C 0.90099 0.23361 0.51727 0.0
O139 O 0.88888 0.25768 0.53593 0.0
O140 O 0.87216 0.2485 0.49988 0.0
C141 C 0.82409 0.28397 0.59133 0.0
O142 O 0.83904 0.22971 0.58408 0.0
C143 C 0.80669 0.27771 0.44809 0.0
C144 C 0.7923 0.36382 0.43002 0.0
C145 C 0.79698 0.30152 0.42724 0.0
N146 N 0.80711 0.32384 0.46264 0.0
N147 N 0.79816 0.37516 0.45175 0.0
C148 C 0.82075 0.21311 0.45397 0.0
H149 H 0.87004 0.20926 0.45793 0.0
H150 H 0.79471 0.1999 0.46889 0.0
H151 H 0.81022 0.1815 0.44024 0.0
C152 C 0.69948 0.33244 0.54014 0.0
N153 N 0.75575 0.32761 0.53151 0.0
N154 N 0.75119 0.32248 0.51 0.0
C155 C 0.69176 0.32071 0.50429 0.0
C156 C 0.65671 0.32718 0.52325 0.0
C157 C 0.68739 0.34606 0.56392 0.0
H158 H 0.7179 0.38326 0.56949 0.0
H159 H 0.69767 0.30521 0.574 0.0
H160 H 0.63932 0.35994 0.56663 0.0
O161 O 0.88051 0.39727 0.53705 0.0
O162 O 0.87967 0.38935 0.50055 0.0
H163 H 0.67385 0.34946 0.47125 0.0
H164 H 0.62154 0.29224 0.48119 0.0
C165 C 0.66965 0.30767 0.48138 0.0
H166 H 0.69835 0.27186 0.47382 0.0
H167 H 0.79743 0.41805 0.45912 0.0
O168 O 0.8218 0.32814 0.57782 0.0
C169 C 0.89901 0.41446 0.51818 0.0
Co170 Co 0.67978 0.31877 0.79523 0.0
Co171 Co 0.67912 0.33142 0.74346 0.0
C172 C 0.76836 0.39771 0.77363 0.0
O173 O 0.75249 0.36866 0.79083 0.0
O174 O 0.74528 0.38586 0.75478 0.0
C175 C 0.69999 0.32056 0.84262 0.0
O176 O 0.73477 0.36784 0.83861 0.0
C177 C 0.73014 0.31264 0.69886 0.0
C178 C 0.65103 0.33691 0.67798 0.0
C179 C 0.71123 0.31808 0.67706 0.0
N180 N 0.68293 0.32705 0.71201 0.0
N181 N 0.6358 0.3413 0.6994 0.0
C182 C 0.79272 0.29771 0.70713 0.0
H183 H 0.80138 0.32082 0.72309 0.0
H184 H 0.79607 0.24799 0.70996 0.0
H185 H 0.82785 0.31102 0.6949 0.0
C186 C 0.68133 0.18898 0.78346 0.0
N187 N 0.68074 0.2481 0.77775 0.0
N188 N 0.67654 0.25277 0.75622 0.0
C189 C 0.67101 0.19661 0.74753 0.0
C190 C 0.67459 0.15402 0.76452 0.0
C191 C 0.69294 0.1669 0.80646 0.0
H192 H 0.72551 0.19762 0.81494 0.0
H193 H 0.71205 0.12021 0.80656 0.0
H194 H 0.64941 0.16703 0.81574 0.0
O195 O 0.61083 0.37401 0.78774 0.0
O196 O 0.6058 0.37722 0.75117 0.0
H197 H 0.63877 0.138 0.72132 0.0
H198 H 0.69916 0.18988 0.71386 0.0
C199 C 0.65706 0.18459 0.72374 0.0
H200 H 0.62326 0.21821 0.71765 0.0
H201 H 0.59336 0.35477 0.70542 0.0
O202 O 0.67233 0.29495 0.82668 0.0
C203 C 0.58681 0.39417 0.77001 0.0
Co204 Co 0.66929 0.1565 0.04631 0.0
Co205 Co 0.66789 0.17777 0.99491 0.0
C206 C 0.59499 0.25648 0.02345 0.0
O207 O 0.61322 0.2258 0.04008 0.0
O208 O 0.61694 0.24718 1.00431 0.0
C209 C 0.7005 0.20093 0.08883 0.0
O210 O 0.70421 0.25195 0.07763 0.0
C211 C 0.67509 0.22479 0.94933 0.0
C212 C 0.70585 0.14298 0.93131 0.0
C213 C 0.69079 0.20363 0.92854 0.0
N214 N 0.68144 0.17885 0.96379 0.0
N215 N 0.69976 0.13011 0.9529 0.0
C216 C 0.64967 0.28574 0.95522 0.0
H217 H 0.67835 0.30681 0.96825 0.0
H218 H 0.64656 0.31638 0.94074 0.0
H219 H 0.60326 0.27944 0.96204 0.0
C220 C 0.80213 0.15342 0.03802 0.0
N221 N 0.74416 0.15997 0.03103 0.0
N222 N 0.74413 0.17348 0.00994 0.0
C223 C 0.80238 0.17901 1.00305 0.0
C224 C 0.84143 0.16561 0.0206 0.0
C225 C 0.8194 0.13348 0.06081 0.0
H226 H 0.78558 0.10033 0.06711 0.0
H227 H 0.8198 0.17351 0.07193 0.0
H228 H 0.86537 0.11235 0.06099 0.0
O229 O 0.62169 0.08611 0.03689 0.0
O230 O 0.61488 0.10584 1.00102 0.0
H231 H 0.81997 0.16535 0.96876 0.0
H232 H 0.86542 0.22467 0.9812 0.0
C233 C 0.81966 0.20322 0.98085 0.0
H234 H 0.78573 0.2374 0.97532 0.0
H235 H 0.70805 0.08797 0.96023 0.0
O236 O 0.68473 0.15281 0.07869 0.0
C237 C 0.59969 0.07464 0.01787 0.0
Co238 Co 0.83827 0.1764 0.29635 0.0
Co239 Co 0.81922 0.1733 0.2448 0.0
C240 C 0.74122 0.0994 0.27301 0.0
O241 O 0.77064 0.11974 0.28959 0.0
O242 O 0.75018 0.12073 0.25373 0.0
C243 C 0.79497 0.18624 0.34117 0.0
O244 O 0.74505 0.16127 0.33331 0.0
C245 C 0.77691 0.17803 0.19831 0.0
C246 C 0.85956 0.21284 0.1818 0.0
C247 C 0.80008 0.19465 0.17787 0.0
N248 N 0.821 0.18569 0.21356 0.0
N249 N 0.87029 0.20623 0.20352 0.0
C250 C 0.71296 0.15977 0.20368 0.0
H251 H 0.69864 0.1814 0.21937 0.0
H252 H 0.68092 0.1728 0.19028 0.0
H253 H 0.71126 0.10975 0.20601 0.0
C254 C 0.8376 0.30762 0.28801 0.0
N255 N 0.83381 0.24996 0.28078 0.0
N256 N 0.8215 0.24983 0.25958 0.0
C257 C 0.81488 0.30795 0.25276 0.0
C258 C 0.82537 0.3467 0.2706 0.0
C259 C 0.85402 0.32476 0.31116 0.0
H260 H 0.89169 0.29533 0.31711 0.0
H261 H 0.81391 0.31759 0.32197 0.0
H262 H 0.86852 0.37301 0.31229 0.0
O263 O 0.91038 0.12982 0.28817 0.0
O264 O 0.89125 0.12162 0.25231 0.0
H265 H 0.83306 0.32667 0.21887 0.0
H266 H 0.77131 0.3708 0.23024 0.0
C267 C 0.79341 0.32541 0.23018 0.0
H268 H 0.76061 0.29114 0.22389 0.0
H269 H 0.91109 0.21652 0.2116 0.0
O270 O 0.84011 0.19437 0.3284 0.0
C271 C 0.92224 0.10709 0.26936 0.0
Co272 Co 0.68017 0.83503 0.54543 0.0
Co273 Co 0.67621 0.826 0.49338 0.0
C274 C 0.60466 0.74111 0.52074 0.0
O275 O 0.62473 0.76673 0.53819 0.0
O276 O 0.62381 0.75639 0.5017 0.0
C277 C 0.68304 0.79482 0.59124 0.0
O278 O 0.64811 0.74999 0.5845 0.0
C279 C 0.6804 0.78425 0.44691 0.0
C280 C 0.71147 0.86752 0.42996 0.0
C281 C 0.69474 0.80765 0.42627 0.0
N282 N 0.68773 0.82854 0.46203 0.0
N283 N 0.70612 0.8782 0.45173 0.0
C284 C 0.6644 0.71999 0.45247 0.0
H285 H 0.68582 0.70691 0.46837 0.0
H286 H 0.67936 0.68825 0.43931 0.0
H287 H 0.61422 0.71644 0.45433 0.0
C288 C 0.81143 0.83327 0.53694 0.0
N289 N 0.7536 0.83303 0.52957 0.0
N290 N 0.75325 0.82515 0.5081 0.0
C291 C 0.81138 0.81777 0.50122 0.0
C292 C 0.85027 0.82259 0.51936 0.0
C293 C 0.82905 0.84444 0.56047 0.0
H294 H 0.81633 0.8044 0.57059 0.0
H295 H 0.87872 0.85293 0.5622 0.0
H296 H 0.80372 0.88444 0.56681 0.0
O297 O 0.63255 0.90699 0.53818 0.0
O298 O 0.62556 0.89846 0.50176 0.0
H299 H 0.82581 0.84242 0.46761 0.0
H300 H 0.87561 0.78271 0.4773 0.0
C301 C 0.82861 0.80124 0.47812 0.0
H302 H 0.79608 0.76717 0.47151 0.0
H303 H 0.71562 0.91929 0.45964 0.0
O304 O 0.69929 0.83536 0.57751 0.0
C305 C 0.61102 0.92478 0.51979 0.0
Co306 Co 0.16092 0.17297 0.79584 0.0
Co307 Co 0.17023 0.16327 0.74379 0.0
C308 C 0.25278 0.09253 0.77333 0.0
O309 O 0.22758 0.11461 0.79046 0.0
O310 O 0.23803 0.1103 0.75404 0.0
C311 C 0.20851 0.198 0.83872 0.0
O312 O 0.26022 0.18822 0.82843 0.0
C313 C 0.21959 0.17591 0.69858 0.0
C314 C 0.13513 0.17049 0.67869 0.0
C315 C 0.19769 0.17739 0.67705 0.0
N316 N 0.17185 0.16939 0.7123 0.0
N317 N 0.1216 0.16608 0.70026 0.0
C318 C 0.28475 0.17675 0.706 0.0
H319 H 0.29236 0.1409 0.71852 0.0
H320 H 0.2949 0.22115 0.71388 0.0
H321 H 0.31644 0.16935 0.69202 0.0
C322 C 0.1706 0.30426 0.78476 0.0
N323 N 0.16787 0.2452 0.77883 0.0
N324 N 0.16917 0.2413 0.75719 0.0
C325 C 0.17097 0.29783 0.74865 0.0
C326 C 0.17272 0.33975 0.76581 0.0
C327 C 0.17653 0.32541 0.80815 0.0
H328 H 0.21902 0.30645 0.81532 0.0
H329 H 0.17849 0.37556 0.80953 0.0
H330 H 0.13748 0.30816 0.8179 0.0
O331 O 0.08687 0.12611 0.78784 0.0
O332 O 0.09666 0.11711 0.75151 0.0
H333 H 0.16025 0.36067 0.7214 0.0
H334 H 0.21216 0.29819 0.7167 0.0
C335 C 0.1685 0.3116 0.72447 0.0
H336 H 0.13139 0.28493 0.71667 0.0
H337 H 0.07797 0.16061 0.70679 0.0
O338 O 0.15886 0.19285 0.82798 0.0
C339 C 0.06895 0.10471 0.76936 0.0
Co340 Co 0.81159 0.65385 0.04448 0.0
Co341 Co 0.81489 0.67082 0.99275 0.0
C342 C 0.88902 0.74945 0.02117 0.0
O343 O 0.86762 0.72225 0.03803 0.0
O344 O 0.86829 0.739 1.00188 0.0
C345 C 0.81757 0.68487 0.09136 0.0
O346 O 0.86194 0.72181 0.08576 0.0
C347 C 0.80441 0.71713 0.94712 0.0
C348 C 0.77572 0.63412 0.92935 0.0
C349 C 0.78807 0.69534 0.92642 0.0
N350 N 0.802 0.67072 0.96156 0.0
N351 N 0.78517 0.62123 0.95078 0.0
C352 C 0.81676 0.78161 0.95361 0.0
H353 H 0.79694 0.79098 0.97009 0.0
H354 H 0.7977 0.81389 0.94133 0.0
H355 H 0.86678 0.78853 0.95482 0.0
C356 C 0.6802 0.65061 0.03564 0.0
N357 N 0.73801 0.65628 0.02863 0.0
N358 N 0.73815 0.66836 0.00744 0.0
C359 C 0.67981 0.67351 1.00043 0.0
C360 C 0.64086 0.66178 0.01811 0.0
C361 C 0.66329 0.63306 0.05867 0.0
H362 H 0.69417 0.59655 0.06459 0.0
H363 H 0.66881 0.67305 0.06966 0.0
H364 H 0.6155 0.61669 0.05958 0.0
O365 O 0.86001 0.58321 0.0361 0.0
O366 O 0.8667 0.59858 0.9999 0.0
H367 H 0.66319 0.65641 0.96626 0.0
H368 H 0.61596 0.71564 0.97781 0.0
C369 C 0.66225 0.69531 0.97791 0.0
H370 H 0.69533 0.72983 0.97215 0.0
H371 H 0.77902 0.57883 0.95817 0.0
O372 O 0.79273 0.65196 0.07661 0.0
C373 C 0.88203 0.56963 0.01731 0.0
Co374 Co 0.32534 0.32904 0.29393 0.0
Co375 Co 0.32509 0.31907 0.24177 0.0
C376 C 0.23594 0.39713 0.2658 0.0
O377 O 0.25511 0.38142 0.28488 0.0
O378 O 0.25544 0.37189 0.24829 0.0
C379 C 0.28609 0.32186 0.34033 0.0
O380 O 0.23183 0.33844 0.33335 0.0
C381 C 0.28289 0.30771 0.1958 0.0
C382 C 0.36521 0.2724 0.17921 0.0
C383 C 0.30547 0.29007 0.17542 0.0
N384 N 0.32747 0.30132 0.21091 0.0
N385 N 0.37658 0.28032 0.20086 0.0
C386 C 0.21899 0.32616 0.20123 0.0
H387 H 0.20463 0.30409 0.21683 0.0
H388 H 0.18681 0.31353 0.18783 0.0
H389 H 0.21745 0.37612 0.20373 0.0
C390 C 0.33011 0.19549 0.28912 0.0
N391 N 0.32811 0.25156 0.28025 0.0
N392 N 0.32448 0.24681 0.25869 0.0
C393 C 0.32105 0.18743 0.25321 0.0
C394 C 0.32473 0.15271 0.27235 0.0
C395 C 0.34009 0.18335 0.31316 0.0
H396 H 0.37843 0.21169 0.31923 0.0
H397 H 0.29858 0.19621 0.32248 0.0
H398 H 0.35087 0.1348 0.31629 0.0
O399 O 0.39433 0.37949 0.28517 0.0
O400 O 0.39542 0.37341 0.24851 0.0
H401 H 0.35169 0.1647 0.22084 0.0
H402 H 0.2893 0.11832 0.23041 0.0
C403 C 0.30851 0.16496 0.23033 0.0
H404 H 0.27586 0.19575 0.22194 0.0
H405 H 0.41782 0.27115 0.20882 0.0
O406 O 0.32952 0.31779 0.32654 0.0
C407 C 0.41503 0.39607 0.26654 0.0
Co408 Co 0.31565 0.83464 0.04354 0.0
Co409 Co 0.31546 0.81978 0.99184 0.0
C410 C 0.3889 0.7375 0.01963 0.0
O411 O 0.37016 0.76518 0.03682 0.0
O412 O 0.36802 0.7504 1.00055 0.0
C413 C 0.31132 0.79789 0.08969 0.0
O414 O 0.33774 0.74756 0.08303 0.0
C415 C 0.304 0.77389 0.94619 0.0
C416 C 0.27381 0.85675 0.92866 0.0
C417 C 0.28737 0.79586 0.92556 0.0
N418 N 0.30074 0.81991 0.96077 0.0
N419 N 0.2829 0.86931 0.95015 0.0
C420 C 0.3181 0.70958 0.9524 0.0
H421 H 0.29871 0.69918 0.96886 0.0
H422 H 0.29975 0.67721 0.94 0.0
H423 H 0.36829 0.70393 0.95344 0.0
C424 C 0.18339 0.83412 0.03622 0.0
N425 N 0.24075 0.83175 0.0285 0.0
N426 N 0.23955 0.82165 0.00716 0.0
C427 C 0.18086 0.81485 1.00074 0.0
C428 C 0.14315 0.82255 0.019 0.0
C429 C 0.16769 0.84886 0.05965 0.0
H430 H 0.19459 0.88881 0.06515 0.0
H431 H 0.18005 0.80986 0.07037 0.0
H432 H 0.1184 0.85902 0.06153 0.0
O433 O 0.36326 0.90507 0.03471 0.0
O434 O 0.36823 0.89195 0.99844 0.0
H435 H 0.16434 0.836 0.96689 0.0
H436 H 0.11474 0.77784 0.97774 0.0
C437 C 0.1619 0.79603 0.97801 0.0
H438 H 0.19354 0.76083 0.9717 0.0
H439 H 0.27618 0.91148 0.95765 0.0
O440 O 0.30016 0.83961 0.07573 0.0
C441 C 0.38429 0.92001 0.01594 0.0
Co442 Co 0.16605 0.81874 0.29505 0.0
Co443 Co 0.17435 0.82982 0.24319 0.0
C444 C 0.25789 0.89868 0.27364 0.0
O445 O 0.23617 0.87312 0.29076 0.0
O446 O 0.24084 0.88351 0.25428 0.0
C447 C 0.19256 0.814 0.34215 0.0
O448 O 0.23522 0.85412 0.33778 0.0
C449 C 0.22362 0.81747 0.19789 0.0
C450 C 0.13921 0.82807 0.17824 0.0
C451 C 0.20142 0.81887 0.17642 0.0
N452 N 0.17633 0.82487 0.21175 0.0
N453 N 0.12611 0.83105 0.19986 0.0
C454 C 0.28875 0.81286 0.20514 0.0
H455 H 0.29673 0.84172 0.21985 0.0
H456 H 0.29883 0.76516 0.20985 0.0
H457 H 0.32018 0.82659 0.19172 0.0
C458 C 0.17337 0.68823 0.28366 0.0
N459 N 0.17114 0.7473 0.2778 0.0
N460 N 0.17198 0.75144 0.25618 0.0
C461 C 0.17247 0.69494 0.24756 0.0
C462 C 0.17389 0.65286 0.2647 0.0
C463 C 0.18023 0.66666 0.30696 0.0
H464 H 0.21279 0.69633 0.31593 0.0
H465 H 0.1969 0.61911 0.30777 0.0
H466 H 0.13535 0.66947 0.31527 0.0
O467 O 0.09523 0.87071 0.28702 0.0
O468 O 0.10133 0.87659 0.25054 0.0
H469 H 0.13286 0.70975 0.21569 0.0
H470 H 0.1588 0.6328 0.22028 0.0
C471 C 0.16898 0.68149 0.22338 0.0
H472 H 0.21299 0.69325 0.21553 0.0
H473 H 0.08281 0.8378 0.20652 0.0
O474 O 0.15841 0.79531 0.32659 0.0
C475 C 0.07634 0.89171 0.26861 0.0
Co476 Co 0.18332 0.6525 0.54602 0.0
Co477 Co 0.17922 0.67085 0.49447 0.0
C478 C 0.1037 0.74705 0.52264 0.0
O479 O 0.12443 0.71881 0.53943 0.0
O480 O 0.12583 0.73848 0.5035 0.0
C481 C 0.21766 0.70038 0.58784 0.0
O482 O 0.2212 0.75066 0.57621 0.0
C483 C 0.18767 0.7179 0.44905 0.0
C484 C 0.19511 0.63256 0.42998 0.0
C485 C 0.19127 0.69511 0.42776 0.0
N486 N 0.18922 0.67084 0.46321 0.0
N487 N 0.19413 0.62004 0.4517 0.0
C488 C 0.17734 0.78248 0.45585 0.0
H489 H 0.19504 0.79018 0.47278 0.0
H490 H 0.1994 0.81456 0.44426 0.0
H491 H 0.1276 0.79181 0.45579 0.0
C492 C 0.31512 0.65107 0.53703 0.0
N493 N 0.25699 0.65676 0.53022 0.0
N494 N 0.25615 0.66937 0.50905 0.0
C495 C 0.31412 0.6752 0.50192 0.0
C496 C 0.35372 0.66321 0.51945 0.0
C497 C 0.33334 0.63134 0.55975 0.0
H498 H 0.29988 0.59815 0.56628 0.0
H499 H 0.33427 0.67143 0.57084 0.0
H500 H 0.37936 0.6103 0.55969 0.0
O501 O 0.13768 0.58011 0.53769 0.0
O502 O 0.12882 0.59803 0.50173 0.0
H503 H 0.3283 0.65877 0.46759 0.0
H504 H 0.37686 0.71738 0.47902 0.0
C505 C 0.33047 0.69736 0.47936 0.0
H506 H 0.29723 0.73224 0.47392 0.0
H507 H 0.1953 0.57667 0.45867 0.0
O508 O 0.20058 0.65184 0.57825 0.0
C509 C 0.11518 0.56732 0.51886 0.0
Co510 Co 0.32755 0.6657 0.79538 0.0
Co511 Co 0.33231 0.67297 0.74339 0.0
C512 C 0.2434 0.59321 0.76614 0.0
O513 O 0.26117 0.60976 0.78527 0.0
O514 O 0.26405 0.61783 0.74872 0.0
C515 C 0.27468 0.6912 0.83772 0.0
O516 O 0.22413 0.69656 0.82619 0.0
C517 C 0.2954 0.6817 0.69677 0.0
C518 C 0.37909 0.71679 0.68107 0.0
C519 C 0.31991 0.69849 0.67658 0.0
N520 N 0.33836 0.68909 0.71243 0.0
N521 N 0.38832 0.70996 0.70291 0.0
C522 C 0.23101 0.66348 0.70147 0.0
H523 H 0.21533 0.68553 0.71691 0.0
H524 H 0.20004 0.67626 0.68772 0.0
H525 H 0.22909 0.6135 0.70391 0.0
C526 C 0.33173 0.79969 0.78965 0.0
N527 N 0.32949 0.7429 0.78135 0.0
N528 N 0.32666 0.74608 0.75974 0.0
C529 C 0.32342 0.80496 0.75362 0.0
C530 C 0.32746 0.84126 0.77242 0.0
C531 C 0.34114 0.81391 0.81357 0.0
H532 H 0.37273 0.78037 0.82108 0.0
H533 H 0.29677 0.81141 0.82225 0.0
H534 H 0.36028 0.86023 0.81579 0.0
O535 O 0.40141 0.61993 0.78883 0.0
O536 O 0.40442 0.62316 0.75222 0.0
H537 H 0.35294 0.82704 0.72103 0.0
H538 H 0.28796 0.87062 0.73026 0.0
C539 C 0.30983 0.82515 0.73054 0.0
H540 H 0.27892 0.79214 0.72241 0.0
H541 H 0.42862 0.71988 0.71137 0.0
O542 O 0.32352 0.67664 0.82782 0.0
C543 C 0.42535 0.6041 0.77064 0.0
C544 C 0.15277 0.24051 0.89615 0.0
C545 C 0.20357 0.27006 0.90541 0.0
C546 C 0.1549 0.21665 0.87466 0.0
C547 C 0.20823 0.22064 0.86181 0.0
H548 H 0.11052 0.23751 0.90531 0.0
H549 H 0.1143 0.19532 0.86802 0.0
S550 S 0.35437 0.29188 0.87911 0.0
N551 N 0.30887 0.30099 0.9005 0.0
N552 N 0.31358 0.25546 0.86038 0.0
C553 C 0.25979 0.24886 0.87121 0.0
C554 C 0.25722 0.27386 0.89291 0.0
C555 C 0.70993 0.65673 0.13932 0.0
C556 C 0.7359 0.6907 0.15653 0.0
C557 C 0.73784 0.65357 0.1186 0.0
C558 C 0.79227 0.68533 0.11411 0.0
H559 H 0.66753 0.63248 0.14189 0.0
H560 H 0.71566 0.62691 0.1059 0.0
S561 S 0.87782 0.7817 0.15394 0.0
N562 N 0.81847 0.75698 0.16804 0.0
N563 N 0.87129 0.7516 0.12908 0.0
C564 C 0.81894 0.7192 0.13138 0.0
C565 C 0.79061 0.72185 0.15257 0.0
C566 C 0.34991 0.26903 0.36875 0.0
C567 C 0.29556 0.29993 0.36333 0.0
C568 C 0.35809 0.24178 0.38942 0.0
C569 C 0.31296 0.24534 0.40574 0.0
H570 H 0.38597 0.26401 0.35673 0.0
H571 H 0.39992 0.21693 0.39255 0.0
S572 S 0.16343 0.32277 0.40069 0.0
N573 N 0.19647 0.33404 0.37658 0.0
N574 N 0.2125 0.28292 0.4155 0.0
C575 C 0.25929 0.2777 0.40099 0.0
C576 C 0.25047 0.30499 0.37978 0.0
C577 C 0.757 0.83511 0.61917 0.0
C578 C 0.70841 0.79556 0.61399 0.0
C579 C 0.78479 0.83441 0.63999 0.0
C580 C 0.76433 0.79507 0.65659 0.0
H581 H 0.77462 0.86632 0.60695 0.0
H582 H 0.82242 0.86513 0.64317 0.0
S583 S 0.63896 0.68286 0.65203 0.0
N584 N 0.64097 0.716 0.6276 0.0
N585 N 0.69345 0.71522 0.66677 0.0
C586 C 0.71562 0.75574 0.6519 0.0
C587 C 0.68753 0.75593 0.63061 0.0
C588 C 0.84068 0.2841 0.39003 0.0
C589 C 0.79693 0.26926 0.40597 0.0
C590 C 0.84091 0.25534 0.36943 0.0
C591 C 0.79647 0.21164 0.36383 0.0
H592 H 0.87504 0.31818 0.39354 0.0
H593 H 0.87543 0.26867 0.35766 0.0
S594 S 0.67202 0.15706 0.40023 0.0
N595 N 0.70853 0.20819 0.41523 0.0
N596 N 0.70811 0.15425 0.37637 0.0
C597 C 0.75265 0.19615 0.37982 0.0
C598 C 0.75304 0.22501 0.40092 0.0
C599 C 0.77172 0.34758 0.61976 0.0
C600 C 0.80174 0.29296 0.61427 0.0
C601 C 0.74409 0.35557 0.64034 0.0
C602 C 0.7464 0.30995 0.65649 0.0
H603 H 0.76766 0.38404 0.60785 0.0
H604 H 0.71997 0.39767 0.64353 0.0
S605 S 0.82123 0.15954 0.65122 0.0
N606 N 0.83371 0.19306 0.62727 0.0
N607 N 0.78188 0.20874 0.66605 0.0
C608 C 0.77787 0.25595 0.65168 0.0
C609 C 0.80554 0.24734 0.63056 0.0
C610 C 0.66067 0.21168 0.88909 0.0
C611 C 0.69122 0.23656 0.90733 0.0
C612 C 0.66259 0.24009 0.86844 0.0
C613 C 0.69597 0.2941 0.86513 0.0
H614 H 0.63511 0.16979 0.89079 0.0
H615 H 0.63839 0.2188 0.8549 0.0
S616 S 0.78616 0.37591 0.90781 0.0
N617 N 0.75726 0.31686 0.92094 0.0
N618 N 0.76085 0.37095 0.88219 0.0
C619 C 0.72676 0.31947 0.88339 0.0
C620 C 0.72448 0.29048 0.90446 0.0
C621 C 0.77446 0.24826 0.1429 0.0
C622 C 0.76955 0.19599 0.15607 0.0
C623 C 0.75024 0.24987 0.1215 0.0
C624 C 0.72102 0.19883 0.11223 0.0
H625 H 0.79768 0.28823 0.14915 0.0
H626 H 0.75594 0.29117 0.112 0.0
S627 S 0.69753 0.05008 0.13999 0.0
N628 N 0.73396 0.09171 0.15847 0.0
N629 N 0.68833 0.09427 0.11821 0.0
C630 C 0.71535 0.14626 0.12538 0.0
C631 C 0.73964 0.14494 0.1473 0.0
C632 C 0.74651 0.75798 0.36949 0.0
C633 C 0.69571 0.72637 0.36101 0.0
C634 C 0.7459 0.78318 0.39072 0.0
C635 C 0.69495 0.77694 0.40452 0.0
H636 H 0.78678 0.76476 0.35949 0.0
H637 H 0.78563 0.80807 0.39636 0.0
S638 S 0.55007 0.69892 0.39053 0.0
N639 N 0.59276 0.69028 0.36835 0.0
N640 N 0.59199 0.73776 0.40828 0.0
C641 C 0.64412 0.74486 0.3965 0.0
C642 C 0.64442 0.71956 0.37475 0.0
C643 C 0.24775 0.14946 0.61823 0.0
C644 C 0.28983 0.19661 0.61424 0.0
C645 C 0.21904 0.14325 0.63871 0.0
C646 C 0.23172 0.18337 0.65614 0.0
H647 H 0.23594 0.11745 0.60533 0.0
H648 H 0.18641 0.10677 0.64091 0.0
S649 S 0.33635 0.3156 0.65445 0.0
N650 N 0.342 0.28477 0.6297 0.0
N651 N 0.28724 0.27305 0.66809 0.0
C652 C 0.27369 0.23053 0.65257 0.0
C653 C 0.30297 0.2371 0.63166 0.0
C654 C 0.72955 0.71979 0.89229 0.0
C655 C 0.78194 0.72849 0.90529 0.0
C656 C 0.72422 0.74626 0.87134 0.0
C657 C 0.77161 0.78168 0.8624 0.0
H658 H 0.69259 0.69159 0.89825 0.0
H659 H 0.68338 0.73706 0.86183 0.0
S660 S 0.91865 0.81799 0.89004 0.0
N661 N 0.88211 0.77491 0.90795 0.0
N662 N 0.87243 0.82506 0.86864 0.0
C663 C 0.82392 0.79166 0.8755 0.0
C664 C 0.82903 0.76495 0.89692 0.0
C665 C 0.27717 0.23735 0.14051 0.0
C666 C 0.27435 0.2896 0.15376 0.0
C667 C 0.25103 0.23643 0.11939 0.0
C668 C 0.22193 0.28815 0.11054 0.0
H669 H 0.30002 0.19686 0.14648 0.0
H670 H 0.25505 0.19513 0.10977 0.0
S671 S 0.20431 0.4373 0.13864 0.0
N672 N 0.24146 0.39471 0.15663 0.0
N673 N 0.1921 0.39341 0.11697 0.0
C674 C 0.21857 0.34074 0.12378 0.0
C675 C 0.24489 0.34139 0.14537 0.0
C676 C 0.22776 0.74473 0.86992 0.0
C677 C 0.27686 0.71145 0.86109 0.0
C678 C 0.23119 0.7706 0.89101 0.0
C679 C 0.28331 0.76332 0.90427 0.0
H680 H 0.18701 0.75275 0.86021 0.0
H681 H 0.19294 0.79721 0.8969 0.0
S682 S 0.42397 0.67944 0.88939 0.0
N683 N 0.37895 0.6715 0.8677 0.0
N684 N 0.38506 0.72051 0.90728 0.0
C685 C 0.33213 0.72895 0.89599 0.0
C686 C 0.32895 0.70289 0.87443 0.0
C687 C 0.25007 0.85324 0.11803 0.0
C688 C 0.28863 0.80417 0.11266 0.0
C689 C 0.22334 0.85808 0.13888 0.0
C690 C 0.23486 0.81476 0.15537 0.0
H691 H 0.23895 0.88759 0.10587 0.0
H692 H 0.19285 0.89585 0.14207 0.0
S693 S 0.33278 0.67815 0.15029 0.0
N694 N 0.3377 0.7117 0.12598 0.0
N695 N 0.28708 0.72125 0.16522 0.0
C696 C 0.27424 0.76623 0.15057 0.0
C697 C 0.30124 0.76086 0.12921 0.0
C698 C 0.23029 0.77416 0.40173 0.0
C699 C 0.1879 0.72833 0.40664 0.0
C700 C 0.23039 0.80277 0.38104 0.0
C701 C 0.18807 0.78654 0.3645 0.0
H702 H 0.26488 0.78661 0.41369 0.0
H703 H 0.26488 0.83687 0.37787 0.0
S704 S 0.06518 0.67112 0.37003 0.0
N705 N 0.1013 0.66927 0.39394 0.0
N706 N 0.1004 0.72325 0.3552 0.0
C707 C 0.14432 0.7417 0.36957 0.0
C708 C 0.14467 0.7124 0.39057 0.0
C709 C 0.29458 0.75019 0.64114 0.0
C710 C 0.29065 0.69834 0.65456 0.0
C711 C 0.26933 0.75083 0.61987 0.0
C712 C 0.23999 0.69924 0.61103 0.0
H713 H 0.31738 0.79067 0.64714 0.0
H714 H 0.27398 0.7919 0.61017 0.0
S715 S 0.22019 0.55086 0.63944 0.0
N716 N 0.25693 0.59353 0.65751 0.0
N717 N 0.20922 0.59435 0.61759 0.0
C718 C 0.23586 0.64693 0.62439 0.0
C719 C 0.26128 0.64655 0.64612 0.0
C720 C 0.02351 0.48565 0.03594 0.0
C721 C 0.04738 0.46124 0.01631 0.0
C722 C 0.96879 0.51807 0.03609 0.0
C723 C 0.93546 0.52837 0.01657 0.0
H724 H 0.04655 0.47878 0.05157 0.0
H725 H 0.9533 0.53625 0.05171 0.0
S726 S 0.97819 0.47592 0.96051 0.0
N727 N 0.03347 0.45051 0.9766 0.0
N728 N 0.93069 0.51251 0.97691 0.0
C729 C 0.95898 0.50519 0.9967 0.0
C730 C 0.01486 0.4716 0.99655 0.0
C731 C 0.49703 0.46023 0.24957 0.0
C732 C 0.45218 0.45197 0.26577 0.0
C733 C 0.53155 0.51396 0.24881 0.0
C734 C 0.5217 0.56136 0.26408 0.0
H735 H 0.5066 0.42439 0.23782 0.0
H736 H 0.56799 0.51712 0.23684 0.0
S737 S 0.40073 0.56698 0.30662 0.0
N738 N 0.3936 0.49913 0.29528 0.0
N739 N 0.45836 0.59967 0.2938 0.0
C740 C 0.47411 0.55515 0.27932 0.0
C741 C 0.4394 0.50056 0.2802 0.0
C742 C 0.52685 0.98045 0.50039 0.0
C743 C 0.56027 0.96966 0.51985 0.0
C744 C 0.47385 0.01603 0.5005 0.0
C745 C 0.45173 0.04236 0.52009 0.0
H746 H 0.54096 0.96038 0.4849 0.0
H747 H 0.45025 0.02312 0.48499 0.0
S748 S 0.52319 0.02982 0.57558 0.0
N749 N 0.56801 0.9898 0.5593 0.0
N750 N 0.46834 0.056 0.55953 0.0
C751 C 0.48485 0.03229 0.5397 0.0
C752 C 0.53914 0.9964 0.53956 0.0
C753 C 0.00811 0.02543 0.78879 0.0
C754 C 0.02254 0.0557 0.76906 0.0
C755 C 0.97208 0.97302 0.78879 0.0
C756 C 0.94842 0.94859 0.76906 0.0
H757 H 0.02616 0.0412 0.80443 0.0
H758 H 0.96254 0.95179 0.80452 0.0
S759 S 0.97032 0.01226 0.71286 0.0
N760 N 0.0086 0.05861 0.72921 0.0
N761 N 0.94082 0.96 0.72918 0.0
C762 C 0.96168 0.9789 0.74917 0.0
C763 C 0.99849 0.03248 0.74919 0.0
C764 C 0.97725 0.47794 0.53714 0.0
C765 C 0.95177 0.45664 0.51725 0.0
C766 C 0.03161 0.51086 0.53744 0.0
C767 C 0.06291 0.52475 0.51786 0.0
H768 H 0.95562 0.46847 0.55281 0.0
H769 H 0.04827 0.52677 0.55326 0.0
S770 S 0.01606 0.48013 0.46123 0.0
N771 N 0.9624 0.45186 0.47728 0.0
N772 N 0.06459 0.51467 0.4779 0.0
C773 C 0.03806 0.50413 0.49777 0.0
C774 C 0.98252 0.47011 0.49745 0.0
C775 C 0.5173 0.46837 0.75139 0.0
C776 C 0.54318 0.44572 0.77103 0.0
C777 C 0.48186 0.52127 0.75128 0.0
C778 C 0.47055 0.55391 0.77081 0.0
H779 H 0.52473 0.44534 0.73583 0.0
H780 H 0.46204 0.53572 0.73576 0.0
S781 S 0.52871 0.51507 0.8267 0.0
N782 N 0.55552 0.46085 0.81061 0.0
N783 N 0.48918 0.56038 0.81036 0.0
C784 C 0.49649 0.53215 0.79058 0.0
C785 C 0.53246 0.47802 0.79072 0.0
C786 C 0.51931 0.0121 0.03583 0.0
C787 C 0.54729 0.03208 0.01628 0.0
C788 C 0.46528 0.97866 0.0354 0.0
C789 C 0.43678 0.96265 0.01538 0.0
H790 H 0.53845 0.02333 0.05181 0.0
H791 H 0.44653 0.9643 0.05106 0.0
S792 S 0.49143 0.00295 0.95933 0.0
N793 N 0.54233 0.03337 0.97614 0.0
N794 N 0.44088 0.96926 0.97534 0.0
C795 C 0.46424 0.98193 0.9956 0.0
C796 C 0.51941 0.01671 0.99605 0.0
C797 C 0.0236 0.97697 0.28794 0.0
C798 C 0.03308 0.94355 0.26846 0.0
C799 C 0.99032 0.03125 0.28781 0.0
C800 C 0.96467 0.0545 0.26821 0.0
H801 H 0.04323 0.96199 0.30343 0.0
H802 H 0.98403 0.05459 0.30337 0.0
S803 S 0.97573 0.98402 0.21262 0.0
N804 N 0.01369 0.93738 0.22896 0.0
N805 N 0.95129 0.03945 0.22867 0.0
C806 C 0.97385 0.02156 0.24855 0.0
C807 C 0.00774 0.96609 0.2487 0.0
C808 C 0.49382 0.26823 0.04133 0.0
C809 C 0.53541 0.28833 0.02522 0.0
C810 C 0.43184 0.28265 0.04003 0.0
C811 C 0.40877 0.31899 0.02289 0.0
H812 H 0.50807 0.23712 0.05421 0.0
H813 H 0.40135 0.2624 0.05196 0.0
S814 S 0.49973 0.39357 0.97912 0.0
N815 N 0.55008 0.35306 0.99316 0.0
N816 N 0.43335 0.38215 0.99127 0.0
C817 C 0.45028 0.34369 0.00771 0.0
C818 C 0.51363 0.32815 0.00881 0.0
C819 C 0.65909 0.95359 0.25717 0.0
C820 C 0.67978 0.91272 0.2734 0.0
C821 C 0.67489 0.01558 0.25795 0.0
C822 C 0.71103 0.03907 0.27523 0.0
H823 H 0.63216 0.93718 0.2434 0.0
H824 H 0.6609 0.04471 0.24445 0.0
S825 S 0.77568 0.95017 0.32205 0.0
N826 N 0.73881 0.89974 0.30699 0.0
N827 N 0.76452 0.01584 0.30959 0.0
C828 C 0.72892 -0.00118 0.29223 0.0
C829 C 0.71446 0.93575 0.29101 0.0
C830 C 0.98833 0.16537 0.52805 0.0
C831 C 0.96314 0.20955 0.51401 0.0
C832 C 0.05094 0.15145 0.52717 0.0
C833 C 0.09044 0.18289 0.51282 0.0
H834 H 0.95991 0.14272 0.5401 0.0
H835 H 0.06902 0.11761 0.5384 0.0
S836 S 0.04735 0.30609 0.47405 0.0
N837 N 0.98259 0.2851 0.48552 0.0
N838 N 0.09997 0.26191 0.48509 0.0
C839 C 0.06552 0.22682 0.49867 0.0
C840 C 0.00194 0.23954 0.49903 0.0
C841 C 0.83447 0.48496 0.76178 0.0
C842 C 0.79315 0.45948 0.77686 0.0
C843 C 0.84637 0.54783 0.76178 0.0
C844 C 0.81571 0.5873 0.77632 0.0
H845 H 0.85593 0.4565 0.74945 0.0
H846 H 0.87788 0.56602 0.74974 0.0
S847 S 0.6997 0.54363 0.8178 0.0
N848 N 0.72122 0.47883 0.80657 0.0
N849 N 0.74045 0.59649 0.80544 0.0
C850 C 0.77483 0.56216 0.79156 0.0
C851 C 0.76426 0.49836 0.79208 0.0
C852 C 0.54895 0.3492 0.51122 0.0
C853 C 0.58985 0.31892 0.52543 0.0
C854 C 0.48625 0.3356 0.51137 0.0
C855 C 0.46237 0.29301 0.52631 0.0
H856 H 0.56589 0.38178 0.49933 0.0
H857 H 0.45671 0.35682 0.49926 0.0
S858 S 0.55053 0.20043 0.56653 0.0
N859 N 0.60207 0.2428 0.55412 0.0
N860 N 0.4846 0.22073 0.55567 0.0
C861 C 0.5026 0.26461 0.54126 0.0
C862 C 0.56627 0.27675 0.54053 0.0
C863 C 0.64759 0.04911 0.77778 0.0
C864 C 0.67911 0.08688 0.76286 0.0
C865 C 0.65919 0.98625 0.77878 0.0
C866 C 0.70087 0.95904 0.76428 0.0
H867 H 0.61576 0.06872 0.78942 0.0
H868 H 0.63701 0.95923 0.79135 0.0
S869 S 0.79547 0.03785 0.72231 0.0
N870 N 0.75488 0.09238 0.73381 0.0
N871 N 0.77338 0.97451 0.73444 0.0
C872 C 0.73032 0.996 0.74857 0.0
C873 C 0.72012 0.05987 0.74811 0.0
C874 C 0.99569 0.22154 0.04013 0.0
C875 C 0.03541 0.2051 0.02287 0.0
C876 C 0.9337 0.20697 0.03944 0.0
C877 C 0.90873 0.17371 0.02184 0.0
H878 H 0.01127 0.25004 0.05358 0.0
H879 H 0.90466 0.22491 0.0523 0.0
S880 S 0.99469 0.10909 0.97472 0.0
N881 N 0.04638 0.14752 0.98887 0.0
N882 N 0.92998 0.11688 0.98833 0.0
C883 C 0.9486 0.15231 0.00542 0.0
C884 C 0.01186 0.16851 0.00581 0.0
C885 C 0.77586 0.43506 0.28892 0.0
C886 C 0.81407 0.41307 0.27217 0.0
C887 C 0.76027 0.49656 0.29016 0.0
C888 C 0.78113 0.53866 0.27438 0.0
H889 H 0.75555 0.40407 0.30067 0.0
H890 H 0.72808 0.51009 0.30277 0.0
S891 S 0.88972 0.50552 0.2291 0.0
N892 N 0.87858 0.43895 0.24106 0.0
N893 N 0.84764 0.55486 0.24288 0.0
C894 C 0.82227 0.51786 0.25826 0.0
C895 C 0.83888 0.455 0.2572 0.0
C896 C 0.02193 0.81891 0.50941 0.0
C897 C 0.04156 0.7733 0.52414 0.0
C898 C 0.95998 0.83551 0.50799 0.0
C899 C 0.9157 0.8061 0.5209 0.0
H900 H 0.05443 0.84088 0.49861 0.0
H901 H 0.94651 0.8709 0.49655 0.0
S902 S 0.94184 0.67912 0.56003 0.0
N903 N 0.01042 0.69716 0.55107 0.0
N904 N 0.8948 0.72641 0.5475 0.0
C905 C 0.93456 0.75997 0.53537 0.0
C906 C 0.99728 0.74413 0.53724 0.0
C907 C 0.15122 0.44914 0.77547 0.0
C908 C 0.18665 0.40555 0.76425 0.0
C909 C 0.16783 0.511 0.77557 0.0
C910 C 0.21904 0.53108 0.76377 0.0
H911 H 0.11139 0.43506 0.78468 0.0
H912 H 0.1412 0.54298 0.78513 0.0
S913 S 0.32817 0.43467 0.73265 0.0
N914 N 0.27674 0.38661 0.74209 0.0
N915 N 0.30583 0.50241 0.74108 0.0
C916 C 0.25378 0.48797 0.75208 0.0
C917 C 0.23802 0.4253 0.75255 0.0
C918 C 0.55099 0.70772 0.03673 0.0
C919 C 0.57398 0.67181 0.0195 0.0
C920 C 0.48933 0.72311 0.03777 0.0
C921 C 0.44802 0.70495 0.0212 0.0
H922 H 0.58135 0.72675 0.04904 0.0
H923 H 0.4752 0.75351 0.05086 0.0
S924 S 0.4834 0.60296 0.9742 0.0
N925 N 0.54937 0.61147 0.98708 0.0
N926 N 0.4334 0.64374 0.98821 0.0
C927 C 0.46964 0.66623 1.00447 0.0
C928 C 0.53261 0.64911 1.00376 0.0
C929 C 0.34464 0.04401 0.26147 0.0
C930 C 0.31354 0.08648 0.27471 0.0
C931 C 0.3296 0.98181 0.26205 0.0
C932 C 0.28434 0.96002 0.2764 0.0
H933 H 0.37934 0.05929 0.25006 0.0
H934 H 0.35202 0.95096 0.25074 0.0
S935 S 0.18737 0.05328 0.31351 0.0
N936 N 0.23319 0.10266 0.30157 0.0
N937 N 0.20773 0.98625 0.30381 0.0
C938 C 0.25443 0.002 0.29022 0.0
C939 C 0.26834 0.06512 0.2891 0.0
C940 C 0.97183 0.81968 0.00776 0.0
C941 C 0.95078 0.77666 0.02318 0.0
C942 C 0.03393 0.83587 0.00679 0.0
C943 C 0.07712 0.80858 0.02087 0.0
H944 H 0.94044 0.83958 0.99597 0.0
H945 H 0.04849 0.86884 0.99462 0.0
S946 S 0.04703 0.68956 0.06277 0.0
N947 N 0.97936 0.7061 0.05248 0.0
N948 N 0.09529 0.73417 0.04969 0.0
C949 C 0.05676 0.76559 0.03626 0.0
C950 C 0.9938 0.75029 0.03768 0.0
C951 C 0.14952 0.54483 0.27524 0.0
C952 C 0.1852 0.58657 0.26322 0.0
C953 C 0.16394 0.48241 0.27553 0.0
C954 C 0.21335 0.45996 0.26329 0.0
H955 H 0.11131 0.56084 0.28492 0.0
H956 H 0.13714 0.45187 0.28562 0.0
S957 S 0.32384 0.55134 0.23082 0.0
N958 N 0.27446 0.60148 0.24029 0.0
N959 N 0.29969 0.48479 0.23978 0.0
C960 C 0.24872 0.50139 0.25104 0.0
C961 C 0.23504 0.56456 0.25122 0.0
C962 C 0.50534 0.72461 0.53915 0.0
C963 C 0.54607 0.70787 0.52229 0.0
C964 C 0.44383 0.7086 0.5382 0.0
C965 C 0.42053 0.67353 0.52075 0.0
H966 H 0.51971 0.75445 0.5524 0.0
H967 H 0.41379 0.72672 0.55072 0.0
S968 S 0.51003 0.60821 0.47467 0.0
N969 N 0.56012 0.6487 0.48882 0.0
N970 N 0.4445 0.61523 0.48782 0.0
C971 C 0.4615 0.65211 0.50472 0.0
C972 C 0.52426 0.66986 0.50535 0.0
C973 C 0.26063 0.99138 0.79089 0.0
C974 C 0.28406 0.03329 0.77556 0.0
C975 C 0.2764 0.92993 0.79004 0.0
C976 C 0.31774 0.90794 0.77428 0.0
H977 H 0.22603 0.00504 0.80263 0.0
H978 H 0.25335 0.89901 0.80112 0.0
S979 S 0.40035 0.00081 0.73294 0.0
N980 N 0.35486 0.04978 0.74543 0.0
N981 N 0.38836 0.93442 0.74493 0.0
C982 C 0.34536 0.9501 0.75998 0.0
C983 C 0.3277 0.01272 0.76038 0.0
loop_
_geom_bond_atom_site_label_1
_geom_bond_atom_site_label_2
_geom_bond_distance
_geom_bond_site_symmetry_2
_ccdc_geom_bond_type
Co0 O3 1.970 . S
Co0 N17 1.989 . S
Co0 O25 1.967 . S
Co0 O32 1.920 . S
Co1 O4 1.966 . S
Co1 N10 2.022 . S
Co1 N18 1.993 1_556 S
Co1 O26 1.941 . S
C2 O3 1.258 . S
C2 O4 1.263 1_554 S
O3 Co0 1.970 . S
O3 C2 1.258 . S
O4 Co1 1.966 . S
O4 C2 1.263 1_556 S
C5 O6 1.235 . S
C5 O32 1.289 . S
O6 C5 1.235 . S
C7 C9 1.400 . S
C7 N10 1.351 . S
C7 C12 1.501 . S
C8 C9 1.387 . S
C8 N11 1.341 . S
C9 C7 1.400 . S
C9 C8 1.387 . S
N10 Co1 2.022 . S
N10 C7 1.351 . S
N10 N11 1.365 . S
N11 C8 1.341 . S
N11 N10 1.365 . S
N11 H31 0.862 . S
C12 C7 1.501 . S
C12 H13 0.961 . S
C12 H14 0.961 . S
C12 H15 0.960 . S
H13 C12 0.961 . S
H14 C12 0.961 . S
H15 C12 0.960 . S
C16 N17 1.342 . S
C16 C20 1.401 . S
C16 C21 1.499 . S
N17 Co0 1.989 . S
N17 C16 1.342 . S
N17 N18 1.388 . S
N18 Co1 1.993 1_554 S
N18 N17 1.388 . S
N18 C19 1.346 1_554 S
C19 N18 1.346 1_556 S
C19 C20 1.396 1_556 S
C19 C29 1.510 . S
C20 C16 1.401 . S
C20 C19 1.396 1_554 S
C21 C16 1.499 . S
C21 H22 0.959 . S
C21 H23 0.960 . S
C21 H24 0.961 . S
H22 C21 0.959 . S
H23 C21 0.960 . S
H24 C21 0.961 . S
O25 Co0 1.967 . S
O25 C33 1.258 . S
O26 Co1 1.941 . S
O26 C33 1.266 1_556 S
H27 C29 0.959 . S
H28 C29 0.961 . S
C29 C19 1.510 . S
C29 H27 0.959 . S
C29 H28 0.961 . S
C29 H30 0.960 . S
H30 C29 0.960 . S
H31 N11 0.862 . S
O32 Co0 1.920 . S
O32 C5 1.289 . S
C33 O25 1.258 . S
C33 O26 1.266 1_554 S
Co34 O37 1.970 . S
Co34 N51 1.989 . S
Co34 O59 1.967 . S
Co34 O66 1.920 . S
Co35 O38 1.966 . S
Co35 N44 2.022 . S
Co35 N52 1.993 . S
Co35 O60 1.941 . S
C36 O37 1.258 . S
C36 O38 1.263 . S
O37 Co34 1.970 . S
O37 C36 1.258 . S
O38 Co35 1.966 . S
O38 C36 1.263 . S
C39 O40 1.235 . S
C39 O66 1.289 . S
O40 C39 1.235 . S
C41 C43 1.400 . S
C41 N44 1.351 . S
C41 C46 1.501 . S
C42 C43 1.387 . S
C42 N45 1.341 . S
C43 C41 1.400 . S
C43 C42 1.387 . S
N44 Co35 2.022 . S
N44 C41 1.351 . S
N44 N45 1.365 . S
N45 C42 1.341 . S
N45 N44 1.365 . S
N45 H65 0.862 . S
C46 C41 1.501 . S
C46 H47 0.961 . S
C46 H48 0.961 . S
C46 H49 0.960 . S
H47 C46 0.961 . S
H48 C46 0.961 . S
H49 C46 0.960 . S
C50 N51 1.342 . S
C50 C54 1.401 . S
C50 C55 1.499 . S
N51 Co34 1.989 . S
N51 C50 1.342 . S
N51 N52 1.388 . S
N52 Co35 1.993 . S
N52 N51 1.388 . S
N52 C53 1.346 . S
C53 N52 1.346 . S
C53 C54 1.396 . S
C53 C63 1.510 . S
C54 C50 1.401 . S
C54 C53 1.396 . S
C55 C50 1.499 . S
C55 H56 0.959 . S
C55 H57 0.960 . S
C55 H58 0.961 . S
H56 C55 0.959 . S
H57 C55 0.960 . S
H58 C55 0.961 . S
O59 Co34 1.967 . S
O59 C67 1.258 . S
O60 Co35 1.941 . S
O60 C67 1.266 . S
H61 C63 0.959 . S
H62 C63 0.961 . S
C63 C53 1.510 . S
C63 H61 0.959 . S
C63 H62 0.961 . S
C63 H64 0.960 . S
H64 C63 0.960 . S
H65 N45 0.862 . S
O66 Co34 1.920 . S
O66 C39 1.289 . S
C67 O59 1.258 . S
C67 O60 1.266 . S
Co68 O71 1.970 . S
Co68 N85 1.989 . S
Co68 O93 1.967 . S
Co68 O100 1.920 . S
Co69 O72 1.966 . S
Co69 N78 2.022 . S
Co69 N86 1.993 . S
Co69 O94 1.941 . S
C70 O71 1.258 . S
C70 O72 1.263 . S
O71 Co68 1.970 . S
O71 C70 1.258 . S
O72 Co69 1.966 . S
O72 C70 1.263 . S
C73 O74 1.235 . S
C73 O100 1.289 . S
O74 C73 1.235 . S
C75 C77 1.400 . S
C75 N78 1.351 . S
C75 C80 1.501 . S
C76 C77 1.387 . S
C76 N79 1.341 . S
C77 C75 1.400 . S
C77 C76 1.387 . S
N78 Co69 2.022 . S
N78 C75 1.351 . S
N78 N79 1.365 . S
N79 C76 1.341 . S
N79 N78 1.365 . S
N79 H99 0.862 . S
C80 C75 1.501 . S
C80 H81 0.961 . S
C80 H82 0.961 . S
C80 H83 0.960 . S
H81 C80 0.961 . S
H82 C80 0.961 . S
H83 C80 0.960 . S
C84 N85 1.342 . S
C84 C88 1.401 . S
C84 C89 1.499 . S
N85 Co68 1.989 . S
N85 C84 1.342 . S
N85 N86 1.388 . S
N86 Co69 1.993 . S
N86 N85 1.388 . S
N86 C87 1.346 . S
C87 N86 1.346 . S
C87 C88 1.396 . S
C87 C97 1.510 . S
C88 C84 1.401 . S
C88 C87 1.396 . S
C89 C84 1.499 . S
C89 H90 0.959 . S
C89 H91 0.960 . S
C89 H92 0.961 . S
H90 C89 0.959 . S
H91 C89 0.960 . S
H92 C89 0.961 . S
O93 Co68 1.967 . S
O93 C101 1.258 . S
O94 Co69 1.941 . S
O94 C101 1.266 . S
H95 C97 0.959 . S
H96 C97 0.961 . S
C97 C87 1.510 . S
C97 H95 0.959 . S
C97 H96 0.961 . S
C97 H98 0.960 . S
H98 C97 0.960 . S
H99 N79 0.862 . S
O100 Co68 1.920 . S
O100 C73 1.289 . S
C101 O93 1.258 . S
C101 O94 1.266 . S
Co102 O105 1.970 . S
Co102 N119 1.989 . S
Co102 O127 1.967 . S
Co102 O134 1.920 . S
Co103 O106 1.966 . S
Co103 N112 2.022 . S
Co103 N120 1.993 . S
Co103 O128 1.941 . S
C104 O105 1.258 . S
C104 O106 1.263 . S
O105 Co102 1.970 . S
O105 C104 1.258 . S
O106 Co103 1.966 . S
O106 C104 1.263 . S
C107 O108 1.235 . S
C107 O134 1.289 . S
O108 C107 1.235 . S
C109 C111 1.400 . S
C109 N112 1.351 . S
C109 C114 1.501 . S
C110 C111 1.387 . S
C110 N113 1.341 . S
C111 C109 1.400 . S
C111 C110 1.387 . S
N112 Co103 2.022 . S
N112 C109 1.351 . S
N112 N113 1.365 . S
N113 C110 1.341 . S
N113 N112 1.365 . S
N113 H133 0.862 . S
C114 C109 1.501 . S
C114 H115 0.961 . S
C114 H116 0.961 . S
C114 H117 0.960 . S
H115 C114 0.961 . S
H116 C114 0.961 . S
H117 C114 0.960 . S
C118 N119 1.342 . S
C118 C122 1.401 . S
C118 C123 1.499 . S
N119 Co102 1.989 . S
N119 C118 1.342 . S
N119 N120 1.388 . S
N120 Co103 1.993 . S
N120 N119 1.388 . S
N120 C121 1.346 . S
C121 N120 1.346 . S
C121 C122 1.396 . S
C121 C131 1.510 . S
C122 C118 1.401 . S
C122 C121 1.396 . S
C123 C118 1.499 . S
C123 H124 0.959 . S
C123 H125 0.960 . S
C123 H126 0.961 . S
H124 C123 0.959 . S
H125 C123 0.960 . S
H126 C123 0.961 . S
O127 Co102 1.967 . S
O127 C135 1.258 . S
O128 Co103 1.941 . S
O128 C135 1.266 . S
H129 C131 0.959 . S
H130 C131 0.961 . S
C131 C121 1.510 . S
C131 H129 0.959 . S
C131 H130 0.961 . S
C131 H132 0.960 . S
H132 C131 0.960 . S
H133 N113 0.862 . S
O134 Co102 1.920 . S
O134 C107 1.289 . S
C135 O127 1.258 . S
C135 O128 1.266 . S
Co136 O139 1.970 . S
Co136 N153 1.989 . S
Co136 O161 1.967 . S
Co136 O168 1.920 . S
Co137 O140 1.966 . S
Co137 N146 2.022 . S
Co137 N154 1.993 . S
Co137 O162 1.941 . S
C138 O139 1.258 . S
C138 O140 1.263 . S
O139 Co136 1.970 . S
O139 C138 1.258 . S
O140 Co137 1.966 . S
O140 C138 1.263 . S
C141 O142 1.235 . S
C141 O168 1.289 . S
O142 C141 1.235 . S
C143 C145 1.400 . S
C143 N146 1.351 . S
C143 C148 1.501 . S
C144 C145 1.387 . S
C144 N147 1.341 . S
C145 C143 1.400 . S
C145 C144 1.387 . S
N146 Co137 2.022 . S
N146 C143 1.351 . S
N146 N147 1.365 . S
N147 C144 1.341 . S
N147 N146 1.365 . S
N147 H167 0.862 . S
C148 C143 1.501 . S
C148 H149 0.961 . S
C148 H150 0.961 . S
C148 H151 0.960 . S
H149 C148 0.961 . S
H150 C148 0.961 . S
H151 C148 0.960 . S
C152 N153 1.342 . S
C152 C156 1.401 . S
C152 C157 1.499 . S
N153 Co136 1.989 . S
N153 C152 1.342 . S
N153 N154 1.388 . S
N154 Co137 1.993 . S
N154 N153 1.388 . S
N154 C155 1.346 . S
C155 N154 1.346 . S
C155 C156 1.396 . S
C155 C165 1.510 . S
C156 C152 1.401 . S
C156 C155 1.396 . S
C157 C152 1.499 . S
C157 H158 0.959 . S
C157 H159 0.960 . S
C157 H160 0.961 . S
H158 C157 0.959 . S
H159 C157 0.960 . S
H160 C157 0.961 . S
O161 Co136 1.967 . S
O161 C169 1.258 . S
O162 Co137 1.941 . S
O162 C169 1.266 . S
H163 C165 0.959 . S
H164 C165 0.961 . S
C165 C155 1.510 . S
C165 H163 0.959 . S
C165 H164 0.961 . S
C165 H166 0.960 . S
H166 C165 0.960 . S
H167 N147 0.862 . S
O168 Co136 1.920 . S
O168 C141 1.289 . S
C169 O161 1.258 . S
C169 O162 1.266 . S
Co170 O173 1.970 . S
Co170 N187 1.989 . S
Co170 O195 1.967 . S
Co170 O202 1.920 . S
Co171 O174 1.966 . S
Co171 N180 2.022 . S
Co171 N188 1.993 . S
Co171 O196 1.941 . S
C172 O173 1.258 . S
C172 O174 1.263 . S
O173 Co170 1.970 . S
O173 C172 1.258 . S
O174 Co171 1.966 . S
O174 C172 1.263 . S
C175 O176 1.235 . S
C175 O202 1.289 . S
O176 C175 1.235 . S
C177 C179 1.400 . S
C177 N180 1.351 . S
C177 C182 1.501 . S
C178 C179 1.387 . S
C178 N181 1.341 . S
C179 C177 1.400 . S
C179 C178 1.387 . S
N180 Co171 2.022 . S
N180 C177 1.351 . S
N180 N181 1.365 . S
N181 C178 1.341 . S
N181 N180 1.365 . S
N181 H201 0.862 . S
C182 C177 1.501 . S
C182 H183 0.961 . S
C182 H184 0.961 . S
C182 H185 0.960 . S
H183 C182 0.961 . S
H184 C182 0.961 . S
H185 C182 0.960 . S
C186 N187 1.342 . S
C186 C190 1.401 . S
C186 C191 1.499 . S
N187 Co170 1.989 . S
N187 C186 1.342 . S
N187 N188 1.388 . S
N188 Co171 1.993 . S
N188 N187 1.388 . S
N188 C189 1.346 . S
C189 N188 1.346 . S
C189 C190 1.396 . S
C189 C199 1.510 . S
C190 C186 1.401 . S
C190 C189 1.396 . S
C191 C186 1.499 . S
C191 H192 0.959 . S
C191 H193 0.960 . S
C191 H194 0.961 . S
H192 C191 0.959 . S
H193 C191 0.960 . S
H194 C191 0.961 . S
O195 Co170 1.967 . S
O195 C203 1.258 . S
O196 Co171 1.941 . S
O196 C203 1.266 . S
H197 C199 0.959 . S
H198 C199 0.961 . S
C199 C189 1.510 . S
C199 H197 0.959 . S
C199 H198 0.961 . S
C199 H200 0.960 . S
H200 C199 0.960 . S
H201 N181 0.862 . S
O202 Co170 1.920 . S
O202 C175 1.289 . S
C203 O195 1.258 . S
C203 O196 1.266 . S
Co204 O207 1.970 . S
Co204 N221 1.989 . S
Co204 O229 1.967 . S
Co204 O236 1.920 . S
Co205 O208 1.966 . S
Co205 N214 2.022 . S
Co205 N222 1.993 1_556 S
Co205 O230 1.941 . S
C206 O207 1.258 . S
C206 O208 1.263 1_554 S
O207 Co204 1.970 . S
O207 C206 1.258 . S
O208 Co205 1.966 . S
O208 C206 1.263 1_556 S
C209 O210 1.235 . S
C209 O236 1.289 . S
O210 C209 1.235 . S
C211 C213 1.400 . S
C211 N214 1.351 . S
C211 C216 1.501 . S
C212 C213 1.387 . S
C212 N215 1.341 . S
C213 C211 1.400 . S
C213 C212 1.387 . S
N214 Co205 2.022 . S
N214 C211 1.351 . S
N214 N215 1.365 . S
N215 C212 1.341 . S
N215 N214 1.365 . S
N215 H235 0.862 . S
C216 C211 1.501 . S
C216 H217 0.961 . S
C216 H218 0.961 . S
C216 H219 0.960 . S
H217 C216 0.961 . S
H218 C216 0.961 . S
H219 C216 0.960 . S
C220 N221 1.342 . S
C220 C224 1.401 . S
C220 C225 1.499 . S
N221 Co204 1.989 . S
N221 C220 1.342 . S
N221 N222 1.388 . S
N222 Co205 1.993 1_554 S
N222 N221 1.388 . S
N222 C223 1.346 1_554 S
C223 N222 1.346 1_556 S
C223 C224 1.396 1_556 S
C223 C233 1.510 . S
C224 C220 1.401 . S
C224 C223 1.396 1_554 S
C225 C220 1.499 . S
C225 H226 0.959 . S
C225 H227 0.960 . S
C225 H228 0.961 . S
H226 C225 0.959 . S
H227 C225 0.960 . S
H228 C225 0.961 . S
O229 Co204 1.967 . S
O229 C237 1.258 . S
O230 Co205 1.941 . S
O230 C237 1.266 1_556 S
H231 C233 0.959 . S
H232 C233 0.961 . S
C233 C223 1.510 . S
C233 H231 0.959 . S
C233 H232 0.961 . S
C233 H234 0.960 . S
H234 C233 0.960 . S
H235 N215 0.862 . S
O236 Co204 1.920 . S
O236 C209 1.289 . S
C237 O229 1.258 . S
C237 O230 1.266 1_554 S
Co238 O241 1.970 . S
Co238 N255 1.989 . S
Co238 O263 1.967 . S
Co238 O270 1.920 . S
Co239 O242 1.966 . S
Co239 N248 2.022 . S
Co239 N256 1.993 . S
Co239 O264 1.941 . S
C240 O241 1.258 . S
C240 O242 1.263 . S
O241 Co238 1.970 . S
O241 C240 1.258 . S
O242 Co239 1.966 . S
O242 C240 1.263 . S
C243 O244 1.235 . S
C243 O270 1.289 . S
O244 C243 1.235 . S
C245 C247 1.400 . S
C245 N248 1.351 . S
C245 C250 1.501 . S
C246 C247 1.387 . S
C246 N249 1.341 . S
C247 C245 1.400 . S
C247 C246 1.387 . S
N248 Co239 2.022 . S
N248 C245 1.351 . S
N248 N249 1.365 . S
N249 C246 1.341 . S
N249 N248 1.365 . S
N249 H269 0.862 . S
C250 C245 1.501 . S
C250 H251 0.961 . S
C250 H252 0.961 . S
C250 H253 0.960 . S
H251 C250 0.961 . S
H252 C250 0.961 . S
H253 C250 0.960 . S
C254 N255 1.342 . S
C254 C258 1.401 . S
C254 C259 1.499 . S
N255 Co238 1.989 . S
N255 C254 1.342 . S
N255 N256 1.388 . S
N256 Co239 1.993 . S
N256 N255 1.388 . S
N256 C257 1.346 . S
C257 N256 1.346 . S
C257 C258 1.396 . S
C257 C267 1.510 . S
C258 C254 1.401 . S
C258 C257 1.396 . S
C259 C254 1.499 . S
C259 H260 0.959 . S
C259 H261 0.960 . S
C259 H262 0.961 . S
H260 C259 0.959 . S
H261 C259 0.960 . S
H262 C259 0.961 . S
O263 Co238 1.967 . S
O263 C271 1.258 . S
O264 Co239 1.941 . S
O264 C271 1.266 . S
H265 C267 0.959 . S
H266 C267 0.961 . S
C267 C257 1.510 . S
C267 H265 0.959 . S
C267 H266 0.961 . S
C267 H268 0.960 . S
H268 C267 0.960 . S
H269 N249 0.862 . S
O270 Co238 1.920 . S
O270 C243 1.289 . S
C271 O263 1.258 . S
C271 O264 1.266 . S
Co272 O275 1.970 . S
Co272 N289 1.989 . S
Co272 O297 1.967 . S
Co272 O304 1.920 . S
Co273 O276 1.966 . S
Co273 N282 2.022 . S
Co273 N290 1.993 . S
Co273 O298 1.941 . S
C274 O275 1.258 . S
C274 O276 1.263 . S
O275 Co272 1.970 . S
O275 C274 1.258 . S
O276 Co273 1.966 . S
O276 C274 1.263 . S
C277 O278 1.235 . S
C277 O304 1.289 . S
O278 C277 1.235 . S
C279 C281 1.400 . S
C279 N282 1.351 . S
C279 C284 1.501 . S
C280 C281 1.387 . S
C280 N283 1.341 . S
C281 C279 1.400 . S
C281 C280 1.387 . S
N282 Co273 2.022 . S
N282 C279 1.351 . S
N282 N283 1.365 . S
N283 C280 1.341 . S
N283 N282 1.365 . S
N283 H303 0.862 . S
C284 C279 1.501 . S
C284 H285 0.961 . S
C284 H286 0.961 . S
C284 H287 0.960 . S
H285 C284 0.961 . S
H286 C284 0.961 . S
H287 C284 0.960 . S
C288 N289 1.342 . S
C288 C292 1.401 . S
C288 C293 1.499 . S
N289 Co272 1.989 . S
N289 C288 1.342 . S
N289 N290 1.388 . S
N290 Co273 1.993 . S
N290 N289 1.388 . S
N290 C291 1.346 . S
C291 N290 1.346 . S
C291 C292 1.396 . S
C291 C301 1.510 . S
C292 C288 1.401 . S
C292 C291 1.396 . S
C293 C288 1.499 . S
C293 H294 0.959 . S
C293 H295 0.960 . S
C293 H296 0.961 . S
H294 C293 0.959 . S
H295 C293 0.960 . S
H296 C293 0.961 . S
O297 Co272 1.967 . S
O297 C305 1.258 . S
O298 Co273 1.941 . S
O298 C305 1.266 . S
H299 C301 0.959 . S
H300 C301 0.961 . S
C301 C291 1.510 . S
C301 H299 0.959 . S
C301 H300 0.961 . S
C301 H302 0.960 . S
H302 C301 0.960 . S
H303 N283 0.862 . S
O304 Co272 1.920 . S
O304 C277 1.289 . S
C305 O297 1.258 . S
C305 O298 1.266 . S
Co306 O309 1.970 . S
Co306 N323 1.989 . S
Co306 O331 1.967 . S
Co306 O338 1.920 . S
Co307 O310 1.966 . S
Co307 N316 2.022 . S
Co307 N324 1.993 . S
Co307 O332 1.941 . S
C308 O309 1.258 . S
C308 O310 1.263 . S
O309 Co306 1.970 . S
O309 C308 1.258 . S
O310 Co307 1.966 . S
O310 C308 1.263 . S
C311 O312 1.235 . S
C311 O338 1.289 . S
O312 C311 1.235 . S
C313 C315 1.400 . S
C313 N316 1.351 . S
C313 C318 1.501 . S
C314 C315 1.387 . S
C314 N317 1.341 . S
C315 C313 1.400 . S
C315 C314 1.387 . S
N316 Co307 2.022 . S
N316 C313 1.351 . S
N316 N317 1.365 . S
N317 C314 1.341 . S
N317 N316 1.365 . S
N317 H337 0.862 . S
C318 C313 1.501 . S
C318 H319 0.961 . S
C318 H320 0.961 . S
C318 H321 0.960 . S
H319 C318 0.961 . S
H320 C318 0.961 . S
H321 C318 0.960 . S
C322 N323 1.342 . S
C322 C326 1.401 . S
C322 C327 1.499 . S
N323 Co306 1.989 . S
N323 C322 1.342 . S
N323 N324 1.388 . S
N324 Co307 1.993 . S
N324 N323 1.388 . S
N324 C325 1.346 . S
C325 N324 1.346 . S
C325 C326 1.396 . S
C325 C335 1.510 . S
C326 C322 1.401 . S
C326 C325 1.396 . S
C327 C322 1.499 . S
C327 H328 0.959 . S
C327 H329 0.960 . S
C327 H330 0.961 . S
H328 C327 0.959 . S
H329 C327 0.960 . S
H330 C327 0.961 . S
O331 Co306 1.967 . S
O331 C339 1.258 . S
O332 Co307 1.941 . S
O332 C339 1.266 . S
H333 C335 0.959 . S
H334 C335 0.961 . S
C335 C325 1.510 . S
C335 H333 0.959 . S
C335 H334 0.961 . S
C335 H336 0.960 . S
H336 C335 0.960 . S
H337 N317 0.862 . S
O338 Co306 1.920 . S
O338 C311 1.289 . S
C339 O331 1.258 . S
C339 O332 1.266 . S
Co340 O343 1.970 . S
Co340 N357 1.989 . S
Co340 O365 1.967 . S
Co340 O372 1.920 . S
Co341 O344 1.966 . S
Co341 N350 2.022 . S
Co341 N358 1.993 1_556 S
Co341 O366 1.941 . S
C342 O343 1.258 . S
C342 O344 1.263 1_554 S
O343 Co340 1.970 . S
O343 C342 1.258 . S
O344 Co341 1.966 . S
O344 C342 1.263 1_556 S
C345 O346 1.235 . S
C345 O372 1.289 . S
O346 C345 1.235 . S
C347 C349 1.400 . S
C347 N350 1.351 . S
C347 C352 1.501 . S
C348 C349 1.387 . S
C348 N351 1.341 . S
C349 C347 1.400 . S
C349 C348 1.387 . S
N350 Co341 2.022 . S
N350 C347 1.351 . S
N350 N351 1.365 . S
N351 C348 1.341 . S
N351 N350 1.365 . S
N351 H371 0.862 . S
C352 C347 1.501 . S
C352 H353 0.961 . S
C352 H354 0.961 . S
C352 H355 0.960 . S
H353 C352 0.961 . S
H354 C352 0.961 . S
H355 C352 0.960 . S
C356 N357 1.342 . S
C356 C360 1.401 . S
C356 C361 1.499 . S
N357 Co340 1.989 . S
N357 C356 1.342 . S
N357 N358 1.388 . S
N358 Co341 1.993 1_554 S
N358 N357 1.388 . S
N358 C359 1.346 1_554 S
C359 N358 1.346 1_556 S
C359 C360 1.396 1_556 S
C359 C369 1.510 . S
C360 C356 1.401 . S
C360 C359 1.396 1_554 S
C361 C356 1.499 . S
C361 H362 0.959 . S
C361 H363 0.960 . S
C361 H364 0.961 . S
H362 C361 0.959 . S
H363 C361 0.960 . S
H364 C361 0.961 . S
O365 Co340 1.967 . S
O365 C373 1.258 . S
O366 Co341 1.941 . S
O366 C373 1.266 1_556 S
H367 C369 0.959 . S
H368 C369 0.961 . S
C369 C359 1.510 . S
C369 H367 0.959 . S
C369 H368 0.961 . S
C369 H370 0.960 . S
H370 C369 0.960 . S
H371 N351 0.862 . S
O372 Co340 1.920 . S
O372 C345 1.289 . S
C373 O365 1.258 . S
C373 O366 1.266 1_554 S
Co374 O377 1.970 . S
Co374 N391 1.989 . S
Co374 O399 1.967 . S
Co374 O406 1.920 . S
Co375 O378 1.966 . S
Co375 N384 2.022 . S
Co375 N392 1.993 . S
Co375 O400 1.941 . S
C376 O377 1.258 . S
C376 O378 1.263 . S
O377 Co374 1.970 . S
O377 C376 1.258 . S
O378 Co375 1.966 . S
O378 C376 1.263 . S
C379 O380 1.235 . S
C379 O406 1.289 . S
O380 C379 1.235 . S
C381 C383 1.400 . S
C381 N384 1.351 . S
C381 C386 1.501 . S
C382 C383 1.387 . S
C382 N385 1.341 . S
C383 C381 1.400 . S
C383 C382 1.387 . S
N384 Co375 2.022 . S
N384 C381 1.351 . S
N384 N385 1.365 . S
N385 C382 1.341 . S
N385 N384 1.365 . S
N385 H405 0.862 . S
C386 C381 1.501 . S
C386 H387 0.961 . S
C386 H388 0.961 . S
C386 H389 0.960 . S
H387 C386 0.961 . S
H388 C386 0.961 . S
H389 C386 0.960 . S
C390 N391 1.342 . S
C390 C394 1.401 . S
C390 C395 1.499 . S
N391 Co374 1.989 . S
N391 C390 1.342 . S
N391 N392 1.388 . S
N392 Co375 1.993 . S
N392 N391 1.388 . S
N392 C393 1.346 . S
C393 N392 1.346 . S
C393 C394 1.396 . S
C393 C403 1.510 . S
C394 C390 1.401 . S
C394 C393 1.396 . S
C395 C390 1.499 . S
C395 H396 0.959 . S
C395 H397 0.960 . S
C395 H398 0.961 . S
H396 C395 0.959 . S
H397 C395 0.960 . S
H398 C395 0.961 . S
O399 Co374 1.967 . S
O399 C407 1.258 . S
O400 Co375 1.941 . S
O400 C407 1.266 . S
H401 C403 0.959 . S
H402 C403 0.961 . S
C403 C393 1.510 . S
C403 H401 0.959 . S
C403 H402 0.961 . S
C403 H404 0.960 . S
H404 C403 0.960 . S
H405 N385 0.862 . S
O406 Co374 1.920 . S
O406 C379 1.289 . S
C407 O399 1.258 . S
C407 O400 1.266 . S
Co408 O411 1.970 . S
Co408 N425 1.989 . S
Co408 O433 1.967 . S
Co408 O440 1.920 . S
Co409 O412 1.966 . S
Co409 N418 2.022 . S
Co409 N426 1.993 1_556 S
Co409 O434 1.941 . S
C410 O411 1.258 . S
C410 O412 1.263 1_554 S
O411 Co408 1.970 . S
O411 C410 1.258 . S
O412 Co409 1.966 . S
O412 C410 1.263 1_556 S
C413 O414 1.235 . S
C413 O440 1.289 . S
O414 C413 1.235 . S
C415 C417 1.400 . S
C415 N418 1.351 . S
C415 C420 1.501 . S
C416 C417 1.387 . S
C416 N419 1.341 . S
C417 C415 1.400 . S
C417 C416 1.387 . S
N418 Co409 2.022 . S
N418 C415 1.351 . S
N418 N419 1.365 . S
N419 C416 1.341 . S
N419 N418 1.365 . S
N419 H439 0.862 . S
C420 C415 1.501 . S
C420 H421 0.961 . S
C420 H422 0.961 . S
C420 H423 0.960 . S
H421 C420 0.961 . S
H422 C420 0.961 . S
H423 C420 0.960 . S
C424 N425 1.342 . S
C424 C428 1.401 . S
C424 C429 1.499 . S
N425 Co408 1.989 . S
N425 C424 1.342 . S
N425 N426 1.388 . S
N426 Co409 1.993 1_554 S
N426 N425 1.388 . S
N426 C427 1.346 1_554 S
C427 N426 1.346 1_556 S
C427 C428 1.396 1_556 S
C427 C437 1.510 . S
C428 C424 1.401 . S
C428 C427 1.396 1_554 S
C429 C424 1.499 . S
C429 H430 0.959 . S
C429 H431 0.960 . S
C429 H432 0.961 . S
H430 C429 0.959 . S
H431 C429 0.960 . S
H432 C429 0.961 . S
O433 Co408 1.967 . S
O433 C441 1.258 . S
O434 Co409 1.941 . S
O434 C441 1.266 1_556 S
H435 C437 0.959 . S
H436 C437 0.961 . S
C437 C427 1.510 . S
C437 H435 0.959 . S
C437 H436 0.961 . S
C437 H438 0.960 . S
H438 C437 0.960 . S
H439 N419 0.862 . S
O440 Co408 1.920 . S
O440 C413 1.289 . S
C441 O433 1.258 . S
C441 O434 1.266 1_554 S
Co442 O445 1.970 . S
Co442 N459 1.989 . S
Co442 O467 1.967 . S
Co442 O474 1.920 . S
Co443 O446 1.966 . S
Co443 N452 2.022 . S
Co443 N460 1.993 . S
Co443 O468 1.941 . S
C444 O445 1.258 . S
C444 O446 1.263 . S
O445 Co442 1.970 . S
O445 C444 1.258 . S
O446 Co443 1.966 . S
O446 C444 1.263 . S
C447 O448 1.235 . S
C447 O474 1.289 . S
O448 C447 1.235 . S
C449 C451 1.400 . S
C449 N452 1.351 . S
C449 C454 1.501 . S
C450 C451 1.387 . S
C450 N453 1.341 . S
C451 C449 1.400 . S
C451 C450 1.387 . S
N452 Co443 2.022 . S
N452 C449 1.351 . S
N452 N453 1.365 . S
N453 C450 1.341 . S
N453 N452 1.365 . S
N453 H473 0.862 . S
C454 C449 1.501 . S
C454 H455 0.961 . S
C454 H456 0.961 . S
C454 H457 0.960 . S
H455 C454 0.961 . S
H456 C454 0.961 . S
H457 C454 0.960 . S
C458 N459 1.342 . S
C458 C462 1.401 . S
C458 C463 1.499 . S
N459 Co442 1.989 . S
N459 C458 1.342 . S
N459 N460 1.388 . S
N460 Co443 1.993 . S
N460 N459 1.388 . S
N460 C461 1.346 . S
C461 N460 1.346 . S
C461 C462 1.396 . S
C461 C471 1.510 . S
C462 C458 1.401 . S
C462 C461 1.396 . S
C463 C458 1.499 . S
C463 H464 0.959 . S
C463 H465 0.960 . S
C463 H466 0.961 . S
H464 C463 0.959 . S
H465 C463 0.960 . S
H466 C463 0.961 . S
O467 Co442 1.967 . S
O467 C475 1.258 . S
O468 Co443 1.941 . S
O468 C475 1.266 . S
H469 C471 0.959 . S
H470 C471 0.961 . S
C471 C461 1.510 . S
C471 H469 0.959 . S
C471 H470 0.961 . S
C471 H472 0.960 . S
H472 C471 0.960 . S
H473 N453 0.862 . S
O474 Co442 1.920 . S
O474 C447 1.289 . S
C475 O467 1.258 . S
C475 O468 1.266 . S
Co476 O479 1.970 . S
Co476 N493 1.989 . S
Co476 O501 1.967 . S
Co476 O508 1.920 . S
Co477 O480 1.966 . S
Co477 N486 2.022 . S
Co477 N494 1.993 . S
Co477 O502 1.941 . S
C478 O479 1.258 . S
C478 O480 1.263 . S
O479 Co476 1.970 . S
O479 C478 1.258 . S
O480 Co477 1.966 . S
O480 C478 1.263 . S
C481 O482 1.235 . S
C481 O508 1.289 . S
O482 C481 1.235 . S
C483 C485 1.400 . S
C483 N486 1.351 . S
C483 C488 1.501 . S
C484 C485 1.387 . S
C484 N487 1.341 . S
C485 C483 1.400 . S
C485 C484 1.387 . S
N486 Co477 2.022 . S
N486 C483 1.351 . S
N486 N487 1.365 . S
N487 C484 1.341 . S
N487 N486 1.365 . S
N487 H507 0.862 . S
C488 C483 1.501 . S
C488 H489 0.961 . S
C488 H490 0.961 . S
C488 H491 0.960 . S
H489 C488 0.961 . S
H490 C488 0.961 . S
H491 C488 0.960 . S
C492 N493 1.342 . S
C492 C496 1.401 . S
C492 C497 1.499 . S
N493 Co476 1.989 . S
N493 C492 1.342 . S
N493 N494 1.388 . S
N494 Co477 1.993 . S
N494 N493 1.388 . S
N494 C495 1.346 . S
C495 N494 1.346 . S
C495 C496 1.396 . S
C495 C505 1.510 . S
C496 C492 1.401 . S
C496 C495 1.396 . S
C497 C492 1.499 . S
C497 H498 0.959 . S
C497 H499 0.960 . S
C497 H500 0.961 . S
H498 C497 0.959 . S
H499 C497 0.960 . S
H500 C497 0.961 . S
O501 Co476 1.967 . S
O501 C509 1.258 . S
O502 Co477 1.941 . S
O502 C509 1.266 . S
H503 C505 0.959 . S
H504 C505 0.961 . S
C505 C495 1.510 . S
C505 H503 0.959 . S
C505 H504 0.961 . S
C505 H506 0.960 . S
H506 C505 0.960 . S
H507 N487 0.862 . S
O508 Co476 1.920 . S
O508 C481 1.289 . S
C509 O501 1.258 . S
C509 O502 1.266 . S
Co510 O513 1.970 . S
Co510 N527 1.989 . S
Co510 O535 1.967 . S
Co510 O542 1.920 . S
Co511 O514 1.966 . S
Co511 N520 2.022 . S
Co511 N528 1.993 . S
Co511 O536 1.941 . S
C512 O513 1.258 . S
C512 O514 1.263 . S
O513 Co510 1.970 . S
O513 C512 1.258 . S
O514 Co511 1.966 . S
O514 C512 1.263 . S
C515 O516 1.235 . S
C515 O542 1.289 . S
O516 C515 1.235 . S
C517 C519 1.400 . S
C517 N520 1.351 . S
C517 C522 1.501 . S
C518 C519 1.387 . S
C518 N521 1.341 . S
C519 C517 1.400 . S
C519 C518 1.387 . S
N520 Co511 2.022 . S
N520 C517 1.351 . S
N520 N521 1.365 . S
N521 C518 1.341 . S
N521 N520 1.365 . S
N521 H541 0.862 . S
C522 C517 1.501 . S
C522 H523 0.961 . S
C522 H524 0.961 . S
C522 H525 0.960 . S
H523 C522 0.961 . S
H524 C522 0.961 . S
H525 C522 0.960 . S
C526 N527 1.342 . S
C526 C530 1.401 . S
C526 C531 1.499 . S
N527 Co510 1.989 . S
N527 C526 1.342 . S
N527 N528 1.388 . S
N528 Co511 1.993 . S
N528 N527 1.388 . S
N528 C529 1.346 . S
C529 N528 1.346 . S
C529 C530 1.396 . S
C529 C539 1.510 . S
C530 C526 1.401 . S
C530 C529 1.396 . S
C531 C526 1.499 . S
C531 H532 0.959 . S
C531 H533 0.960 . S
C531 H534 0.961 . S
H532 C531 0.959 . S
H533 C531 0.960 . S
H534 C531 0.961 . S
O535 Co510 1.967 . S
O535 C543 1.258 . S
O536 Co511 1.941 . S
O536 C543 1.266 . S
H537 C539 0.959 . S
H538 C539 0.961 . S
C539 C529 1.510 . S
C539 H537 0.959 . S
C539 H538 0.961 . S
C539 H540 0.960 . S
H540 C539 0.960 . S
H541 N521 0.862 . S
O542 Co510 1.920 . S
O542 C515 1.289 . S
C543 O535 1.258 . S
C543 O536 1.266 . S
C544 C545 1.369 . S
C544 C546 1.419 . S
C544 H548 0.930 . S
C545 C544 1.369 . S
C545 C554 1.429 . S
C546 C544 1.419 . S
C546 C547 1.363 . S
C546 H549 0.929 . S
C547 C546 1.363 . S
C547 C553 1.428 . S
H548 C544 0.930 . S
H549 C546 0.929 . S
S550 N551 1.613 . S
S550 N552 1.610 . S
N551 S550 1.613 . S
N551 C554 1.350 . S
N552 S550 1.610 . S
N552 C553 1.351 . S
C553 C547 1.428 . S
C553 N552 1.351 . S
C553 C554 1.434 . S
C554 C545 1.429 . S
C554 N551 1.350 . S
C554 C553 1.434 . S
C555 C556 1.369 . S
C555 C557 1.419 . S
C555 H559 0.930 . S
C556 C555 1.369 . S
C556 C565 1.429 . S
C557 C555 1.419 . S
C557 C558 1.363 . S
C557 H560 0.929 . S
C558 C557 1.363 . S
C558 C564 1.428 . S
H559 C555 0.930 . S
H560 C557 0.929 . S
S561 N562 1.613 . S
S561 N563 1.610 . S
N562 S561 1.613 . S
N562 C565 1.350 . S
N563 S561 1.610 . S
N563 C564 1.351 . S
C564 C558 1.428 . S
C564 N563 1.351 . S
C564 C565 1.434 . S
C565 C556 1.429 . S
C565 N562 1.350 . S
C565 C564 1.434 . S
C566 C567 1.369 . S
C566 C568 1.419 . S
C566 H570 0.930 . S
C567 C566 1.369 . S
C567 C576 1.429 . S
C568 C566 1.419 . S
C568 C569 1.363 . S
C568 H571 0.929 . S
C569 C568 1.363 . S
C569 C575 1.428 . S
H570 C566 0.930 . S
H571 C568 0.929 . S
S572 N573 1.613 . S
S572 N574 1.610 . S
N573 S572 1.613 . S
N573 C576 1.350 . S
N574 S572 1.610 . S
N574 C575 1.351 . S
C575 C569 1.428 . S
C575 N574 1.351 . S
C575 C576 1.434 . S
C576 C567 1.429 . S
C576 N573 1.350 . S
C576 C575 1.434 . S
C577 C578 1.369 . S
C577 C579 1.419 . S
C577 H581 0.930 . S
C578 C577 1.369 . S
C578 C587 1.429 . S
C579 C577 1.419 . S
C579 C580 1.363 . S
C579 H582 0.929 . S
C580 C579 1.363 . S
C580 C586 1.428 . S
H581 C577 0.930 . S
H582 C579 0.929 . S
S583 N584 1.613 . S
S583 N585 1.610 . S
N584 S583 1.613 . S
N584 C587 1.350 . S
N585 S583 1.610 . S
N585 C586 1.351 . S
C586 C580 1.428 . S
C586 N585 1.351 . S
C586 C587 1.434 . S
C587 C578 1.429 . S
C587 N584 1.350 . S
C587 C586 1.434 . S
C588 C589 1.369 . S
C588 C590 1.419 . S
C588 H592 0.930 . S
C589 C588 1.369 . S
C589 C598 1.429 . S
C590 C588 1.419 . S
C590 C591 1.363 . S
C590 H593 0.929 . S
C591 C590 1.363 . S
C591 C597 1.428 . S
H592 C588 0.930 . S
H593 C590 0.929 . S
S594 N595 1.613 . S
S594 N596 1.610 . S
N595 S594 1.613 . S
N595 C598 1.350 . S
N596 S594 1.610 . S
N596 C597 1.351 . S
C597 C591 1.428 . S
C597 N596 1.351 . S
C597 C598 1.434 . S
C598 C589 1.429 . S
C598 N595 1.350 . S
C598 C597 1.434 . S
C599 C600 1.369 . S
C599 C601 1.419 . S
C599 H603 0.930 . S
C600 C599 1.369 . S
C600 C609 1.429 . S
C601 C599 1.419 . S
C601 C602 1.363 . S
C601 H604 0.929 . S
C602 C601 1.363 . S
C602 C608 1.428 . S
H603 C599 0.930 . S
H604 C601 0.929 . S
S605 N606 1.613 . S
S605 N607 1.610 . S
N606 S605 1.613 . S
N606 C609 1.350 . S
N607 S605 1.610 . S
N607 C608 1.351 . S
C608 C602 1.428 . S
C608 N607 1.351 . S
C608 C609 1.434 . S
C609 C600 1.429 . S
C609 N606 1.350 . S
C609 C608 1.434 . S
C610 C611 1.369 . S
C610 C612 1.419 . S
C610 H614 0.930 . S
C611 C610 1.369 . S
C611 C620 1.429 . S
C612 C610 1.419 . S
C612 C613 1.363 . S
C612 H615 0.929 . S
C613 C612 1.363 . S
C613 C619 1.428 . S
H614 C610 0.930 . S
H615 C612 0.929 . S
S616 N617 1.613 . S
S616 N618 1.610 . S
N617 S616 1.613 . S
N617 C620 1.350 . S
N618 S616 1.610 . S
N618 C619 1.351 . S
C619 C613 1.428 . S
C619 N618 1.351 . S
C619 C620 1.434 . S
C620 C611 1.429 . S
C620 N617 1.350 . S
C620 C619 1.434 . S
C621 C622 1.369 . S
C621 C623 1.419 . S
C621 H625 0.930 . S
C622 C621 1.369 . S
C622 C631 1.429 . S
C623 C621 1.419 . S
C623 C624 1.363 . S
C623 H626 0.929 . S
C624 C623 1.363 . S
C624 C630 1.428 . S
H625 C621 0.930 . S
H626 C623 0.929 . S
S627 N628 1.613 . S
S627 N629 1.610 . S
N628 S627 1.613 . S
N628 C631 1.350 . S
N629 S627 1.610 . S
N629 C630 1.351 . S
C630 C624 1.428 . S
C630 N629 1.351 . S
C630 C631 1.434 . S
C631 C622 1.429 . S
C631 N628 1.350 . S
C631 C630 1.434 . S
C632 C633 1.369 . S
C632 C634 1.419 . S
C632 H636 0.930 . S
C633 C632 1.369 . S
C633 C642 1.429 . S
C634 C632 1.419 . S
C634 C635 1.363 . S
C634 H637 0.929 . S
C635 C634 1.363 . S
C635 C641 1.428 . S
H636 C632 0.930 . S
H637 C634 0.929 . S
S638 N639 1.613 . S
S638 N640 1.610 . S
N639 S638 1.613 . S
N639 C642 1.350 . S
N640 S638 1.610 . S
N640 C641 1.351 . S
C641 C635 1.428 . S
C641 N640 1.351 . S
C641 C642 1.434 . S
C642 C633 1.429 . S
C642 N639 1.350 . S
C642 C641 1.434 . S
C643 C644 1.369 . S
C643 C645 1.419 . S
C643 H647 0.930 . S
C644 C643 1.369 . S
C644 C653 1.429 . S
C645 C643 1.419 . S
C645 C646 1.363 . S
C645 H648 0.929 . S
C646 C645 1.363 . S
C646 C652 1.428 . S
H647 C643 0.930 . S
H648 C645 0.929 . S
S649 N650 1.613 . S
S649 N651 1.610 . S
N650 S649 1.613 . S
N650 C653 1.350 . S
N651 S649 1.610 . S
N651 C652 1.351 . S
C652 C646 1.428 . S
C652 N651 1.351 . S
C652 C653 1.434 . S
C653 C644 1.429 . S
C653 N650 1.350 . S
C653 C652 1.434 . S
C654 C655 1.369 . S
C654 C656 1.419 . S
C654 H658 0.930 . S
C655 C654 1.369 . S
C655 C664 1.429 . S
C656 C654 1.419 . S
C656 C657 1.363 . S
C656 H659 0.929 . S
C657 C656 1.363 . S
C657 C663 1.428 . S
H658 C654 0.930 . S
H659 C656 0.929 . S
S660 N661 1.613 . S
S660 N662 1.610 . S
N661 S660 1.613 . S
N661 C664 1.350 . S
N662 S660 1.610 . S
N662 C663 1.351 . S
C663 C657 1.428 . S
C663 N662 1.351 . S
C663 C664 1.434 . S
C664 C655 1.429 . S
C664 N661 1.350 . S
C664 C663 1.434 . S
C665 C666 1.369 . S
C665 C667 1.419 . S
C665 H669 0.930 . S
C666 C665 1.369 . S
C666 C675 1.429 . S
C667 C665 1.419 . S
C667 C668 1.363 . S
C667 H670 0.929 . S
C668 C667 1.363 . S
C668 C674 1.428 . S
H669 C665 0.930 . S
H670 C667 0.929 . S
S671 N672 1.613 . S
S671 N673 1.610 . S
N672 S671 1.613 . S
N672 C675 1.350 . S
N673 S671 1.610 . S
N673 C674 1.351 . S
C674 C668 1.428 . S
C674 N673 1.351 . S
C674 C675 1.434 . S
C675 C666 1.429 . S
C675 N672 1.350 . S
C675 C674 1.434 . S
C676 C677 1.369 . S
C676 C678 1.419 . S
C676 H680 0.930 . S
C677 C676 1.369 . S
C677 C686 1.429 . S
C678 C676 1.419 . S
C678 C679 1.363 . S
C678 H681 0.929 . S
C679 C678 1.363 . S
C679 C685 1.428 . S
H680 C676 0.930 . S
H681 C678 0.929 . S
S682 N683 1.613 . S
S682 N684 1.610 . S
N683 S682 1.613 . S
N683 C686 1.350 . S
N684 S682 1.610 . S
N684 C685 1.351 . S
C685 C679 1.428 . S
C685 N684 1.351 . S
C685 C686 1.434 . S
C686 C677 1.429 . S
C686 N683 1.350 . S
C686 C685 1.434 . S
C687 C688 1.369 . S
C687 C689 1.419 . S
C687 H691 0.930 . S
C688 C687 1.369 . S
C688 C697 1.429 . S
C689 C687 1.419 . S
C689 C690 1.363 . S
C689 H692 0.929 . S
C690 C689 1.363 . S
C690 C696 1.428 . S
H691 C687 0.930 . S
H692 C689 0.929 . S
S693 N694 1.613 . S
S693 N695 1.610 . S
N694 S693 1.613 . S
N694 C697 1.350 . S
N695 S693 1.610 . S
N695 C696 1.351 . S
C696 C690 1.428 . S
C696 N695 1.351 . S
C696 C697 1.434 . S
C697 C688 1.429 . S
C697 N694 1.350 . S
C697 C696 1.434 . S
C698 C699 1.369 . S
C698 C700 1.419 . S
C698 H702 0.930 . S
C699 C698 1.369 . S
C699 C708 1.429 . S
C700 C698 1.419 . S
C700 C701 1.363 . S
C700 H703 0.929 . S
C701 C700 1.363 . S
C701 C707 1.428 . S
H702 C698 0.930 . S
H703 C700 0.929 . S
S704 N705 1.613 . S
S704 N706 1.610 . S
N705 S704 1.613 . S
N705 C708 1.350 . S
N706 S704 1.610 . S
N706 C707 1.351 . S
C707 C701 1.428 . S
C707 N706 1.351 . S
C707 C708 1.434 . S
C708 C699 1.429 . S
C708 N705 1.350 . S
C708 C707 1.434 . S
C709 C710 1.369 . S
C709 C711 1.419 . S
C709 H713 0.930 . S
C710 C709 1.369 . S
C710 C719 1.429 . S
C711 C709 1.419 . S
C711 C712 1.363 . S
C711 H714 0.929 . S
C712 C711 1.363 . S
C712 C718 1.428 . S
H713 C709 0.930 . S
H714 C711 0.929 . S
S715 N716 1.613 . S
S715 N717 1.610 . S
N716 S715 1.613 . S
N716 C719 1.350 . S
N717 S715 1.610 . S
N717 C718 1.351 . S
C718 C712 1.428 . S
C718 N717 1.351 . S
C718 C719 1.434 . S
C719 C710 1.429 . S
C719 N716 1.350 . S
C719 C718 1.434 . S
C720 C721 1.369 . S
C720 C722 1.419 . S
C720 H724 0.930 . S
C721 C720 1.369 . S
C721 C730 1.429 1_455 S
C722 C720 1.419 . S
C722 C723 1.363 1_455 S
C722 H725 0.929 . S
C723 C722 1.363 1_655 S
C723 C729 1.428 . S
H724 C720 0.930 . S
H725 C722 0.929 . S
S726 N727 1.613 . S
S726 N728 1.610 . S
N727 S726 1.613 . S
N727 C730 1.350 1_556 S
N728 S726 1.610 . S
N728 C729 1.351 1_556 S
C729 C723 1.428 . S
C729 N728 1.351 1_554 S
C729 C730 1.434 . S
C730 C721 1.429 1_655 S
C730 N727 1.350 1_554 S
C730 C729 1.434 . S
C731 C732 1.369 . S
C731 C733 1.419 . S
C731 H735 0.930 . S
C732 C731 1.369 . S
C732 C741 1.429 . S
C733 C731 1.419 . S
C733 C734 1.363 . S
C733 H736 0.929 . S
C734 C733 1.363 . S
C734 C740 1.428 . S
H735 C731 0.930 . S
H736 C733 0.929 . S
S737 N738 1.613 . S
S737 N739 1.610 . S
N738 S737 1.613 . S
N738 C741 1.350 . S
N739 S737 1.610 . S
N739 C740 1.351 . S
C740 C734 1.428 . S
C740 N739 1.351 . S
C740 C741 1.434 . S
C741 C732 1.429 . S
C741 N738 1.350 . S
C741 C740 1.434 . S
C742 C743 1.369 . S
C742 C744 1.419 . S
C742 H746 0.930 . S
C743 C742 1.369 . S
C743 C752 1.429 1_565 S
C744 C742 1.419 . S
C744 C745 1.363 1_565 S
C744 H747 0.929 . S
C745 C744 1.363 1_545 S
C745 C751 1.428 . S
H746 C742 0.930 . S
H747 C744 0.929 . S
S748 N749 1.613 . S
S748 N750 1.610 . S
N749 S748 1.613 . S
N749 C752 1.350 . S
N750 S748 1.610 . S
N750 C751 1.351 . S
C751 C745 1.428 . S
C751 N750 1.351 . S
C751 C752 1.434 . S
C752 C743 1.429 1_545 S
C752 N749 1.350 . S
C752 C751 1.434 . S
C753 C754 1.369 1_565 S
C753 C755 1.419 . S
C753 H757 0.930 . S
C754 C753 1.369 1_545 S
C754 C763 1.429 1_455 S
C755 C753 1.419 . S
C755 C756 1.363 1_455 S
C755 H758 0.929 . S
C756 C755 1.363 1_655 S
C756 C762 1.428 1_565 S
H757 C753 0.930 . S
H758 C755 0.929 . S
S759 N760 1.613 . S
S759 N761 1.610 . S
N760 S759 1.613 . S
N760 C763 1.350 . S
N761 S759 1.610 . S
N761 C762 1.351 . S
C762 C756 1.428 1_545 S
C762 N761 1.351 . S
C762 C763 1.434 . S
C763 C754 1.429 1_655 S
C763 N760 1.350 . S
C763 C762 1.434 . S
C764 C765 1.369 1_455 S
C764 C766 1.419 . S
C764 H768 0.930 . S
C765 C764 1.369 1_655 S
C765 C774 1.429 . S
C766 C764 1.419 . S
C766 C767 1.363 . S
C766 H769 0.929 . S
C767 C766 1.363 . S
C767 C773 1.428 1_455 S
H768 C764 0.930 . S
H769 C766 0.929 . S
S770 N771 1.613 . S
S770 N772 1.610 . S
N771 S770 1.613 . S
N771 C774 1.350 . S
N772 S770 1.610 . S
N772 C773 1.351 . S
C773 C767 1.428 1_655 S
C773 N772 1.351 . S
C773 C774 1.434 . S
C774 C765 1.429 . S
C774 N771 1.350 . S
C774 C773 1.434 . S
C775 C776 1.369 . S
C775 C777 1.419 . S
C775 H779 0.930 . S
C776 C775 1.369 . S
C776 C785 1.429 . S
C777 C775 1.419 . S
C777 C778 1.363 . S
C777 H780 0.929 . S
C778 C777 1.363 . S
C778 C784 1.428 . S
H779 C775 0.930 . S
H780 C777 0.929 . S
S781 N782 1.613 . S
S781 N783 1.610 . S
N782 S781 1.613 . S
N782 C785 1.350 . S
N783 S781 1.610 . S
N783 C784 1.351 . S
C784 C778 1.428 . S
C784 N783 1.351 . S
C784 C785 1.434 . S
C785 C776 1.429 . S
C785 N782 1.350 . S
C785 C784 1.434 . S
C786 C787 1.369 1_565 S
C786 C788 1.419 . S
C786 H790 0.930 . S
C787 C786 1.369 1_545 S
C787 C796 1.429 . S
C788 C786 1.419 . S
C788 C789 1.363 . S
C788 H791 0.929 . S
C789 C788 1.363 . S
C789 C795 1.428 1_565 S
H790 C786 0.930 . S
H791 C788 0.929 . S
S792 N793 1.613 . S
S792 N794 1.610 . S
N793 S792 1.613 . S
N793 C796 1.350 . S
N794 S792 1.610 . S
N794 C795 1.351 . S
C795 C789 1.428 1_545 S
C795 N794 1.351 . S
C795 C796 1.434 . S
C796 C787 1.429 . S
C796 N793 1.350 . S
C796 C795 1.434 . S
C797 C798 1.369 1_655 S
C797 C799 1.419 . S
C797 H801 0.930 . S
C798 C797 1.369 1_455 S
C798 C807 1.429 1_565 S
C799 C797 1.419 . S
C799 C800 1.363 1_565 S
C799 H802 0.929 . S
C800 C799 1.363 1_545 S
C800 C806 1.428 1_655 S
H801 C797 0.930 . S
H802 C799 0.929 . S
S803 N804 1.613 . S
S803 N805 1.610 . S
N804 S803 1.613 . S
N804 C807 1.350 . S
N805 S803 1.610 . S
N805 C806 1.351 . S
C806 C800 1.428 1_455 S
C806 N805 1.351 . S
C806 C807 1.434 . S
C807 C798 1.429 1_545 S
C807 N804 1.350 . S
C807 C806 1.434 . S
C808 C809 1.369 . S
C808 C810 1.419 . S
C808 H812 0.930 . S
C809 C808 1.369 . S
C809 C818 1.429 . S
C810 C808 1.419 . S
C810 C811 1.363 . S
C810 H813 0.929 . S
C811 C810 1.363 . S
C811 C817 1.428 . S
H812 C808 0.930 . S
H813 C810 0.929 . S
S814 N815 1.613 . S
S814 N816 1.610 . S
N815 S814 1.613 . S
N815 C818 1.350 . S
N816 S814 1.610 . S
N816 C817 1.351 . S
C817 C811 1.428 . S
C817 N816 1.351 . S
C817 C818 1.434 . S
C818 C809 1.429 . S
C818 N815 1.350 . S
C818 C817 1.434 . S
C819 C820 1.369 . S
C819 C821 1.419 . S
C819 H823 0.930 . S
C820 C819 1.369 . S
C820 C829 1.429 . S
C821 C819 1.419 . S
C821 C822 1.363 . S
C821 H824 0.929 . S
C822 C821 1.363 . S
C822 C828 1.428 . S
H823 C819 0.930 . S
H824 C821 0.929 . S
S825 N826 1.613 . S
S825 N827 1.610 . S
N826 S825 1.613 . S
N826 C829 1.350 . S
N827 S825 1.610 . S
N827 C828 1.351 . S
C828 C822 1.428 . S
C828 N827 1.351 . S
C828 C829 1.434 . S
C829 C820 1.429 . S
C829 N826 1.350 . S
C829 C828 1.434 . S
C830 C831 1.369 . S
C830 C832 1.419 . S
C830 H834 0.930 . S
C831 C830 1.369 . S
C831 C840 1.429 . S
C832 C830 1.419 . S
C832 C833 1.363 . S
C832 H835 0.929 . S
C833 C832 1.363 . S
C833 C839 1.428 . S
H834 C830 0.930 . S
H835 C832 0.929 . S
S836 N837 1.613 . S
S836 N838 1.610 . S
N837 S836 1.613 . S
N837 C840 1.350 . S
N838 S836 1.610 . S
N838 C839 1.351 . S
C839 C833 1.428 . S
C839 N838 1.351 . S
C839 C840 1.434 . S
C840 C831 1.429 . S
C840 N837 1.350 . S
C840 C839 1.434 . S
C841 C842 1.369 . S
C841 C843 1.419 . S
C841 H845 0.930 . S
C842 C841 1.369 . S
C842 C851 1.429 . S
C843 C841 1.419 . S
C843 C844 1.363 . S
C843 H846 0.929 . S
C844 C843 1.363 . S
C844 C850 1.428 . S
H845 C841 0.930 . S
H846 C843 0.929 . S
S847 N848 1.613 . S
S847 N849 1.610 . S
N848 S847 1.613 . S
N848 C851 1.350 . S
N849 S847 1.610 . S
N849 C850 1.351 . S
C850 C844 1.428 . S
C850 N849 1.351 . S
C850 C851 1.434 . S
C851 C842 1.429 . S
C851 N848 1.350 . S
C851 C850 1.434 . S
C852 C853 1.369 . S
C852 C854 1.419 . S
C852 H856 0.930 . S
C853 C852 1.369 . S
C853 C862 1.429 . S
C854 C852 1.419 . S
C854 C855 1.363 . S
C854 H857 0.929 . S
C855 C854 1.363 . S
C855 C861 1.428 . S
H856 C852 0.930 . S
H857 C854 0.929 . S
S858 N859 1.613 . S
S858 N860 1.610 . S
N859 S858 1.613 . S
N859 C862 1.350 . S
N860 S858 1.610 . S
N860 C861 1.351 . S
C861 C855 1.428 . S
C861 N860 1.351 . S
C861 C862 1.434 . S
C862 C853 1.429 . S
C862 N859 1.350 . S
C862 C861 1.434 . S
C863 C864 1.369 . S
C863 C865 1.419 . S
C863 H867 0.930 . S
C864 C863 1.369 . S
C864 C873 1.429 . S
C865 C863 1.419 . S
C865 C866 1.363 . S
C865 H868 0.929 . S
C866 C865 1.363 . S
C866 C872 1.428 . S
H867 C863 0.930 . S
H868 C865 0.929 . S
S869 N870 1.613 . S
S869 N871 1.610 . S
N870 S869 1.613 . S
N870 C873 1.350 . S
N871 S869 1.610 . S
N871 C872 1.351 . S
C872 C866 1.428 . S
C872 N871 1.351 . S
C872 C873 1.434 . S
C873 C864 1.429 . S
C873 N870 1.350 . S
C873 C872 1.434 . S
C874 C875 1.369 . S
C874 C876 1.419 . S
C874 H878 0.930 . S
C875 C874 1.369 . S
C875 C884 1.429 1_554 S
C876 C874 1.419 . S
C876 C877 1.363 . S
C876 H879 0.929 . S
C877 C876 1.363 . S
C877 C883 1.428 1_554 S
H878 C874 0.930 . S
H879 C876 0.929 . S
S880 N881 1.613 . S
S880 N882 1.610 . S
N881 S880 1.613 . S
N881 C884 1.350 . S
N882 S880 1.610 . S
N882 C883 1.351 . S
C883 C877 1.428 1_556 S
C883 N882 1.351 . S
C883 C884 1.434 . S
C884 C875 1.429 1_556 S
C884 N881 1.350 . S
C884 C883 1.434 . S
C885 C886 1.369 . S
C885 C887 1.419 . S
C885 H889 0.930 . S
C886 C885 1.369 . S
C886 C895 1.429 . S
C887 C885 1.419 . S
C887 C888 1.363 . S
C887 H890 0.929 . S
C888 C887 1.363 . S
C888 C894 1.428 . S
H889 C885 0.930 . S
H890 C887 0.929 . S
S891 N892 1.613 . S
S891 N893 1.610 . S
N892 S891 1.613 . S
N892 C895 1.350 . S
N893 S891 1.610 . S
N893 C894 1.351 . S
C894 C888 1.428 . S
C894 N893 1.351 . S
C894 C895 1.434 . S
C895 C886 1.429 . S
C895 N892 1.350 . S
C895 C894 1.434 . S
C896 C897 1.369 . S
C896 C898 1.419 . S
C896 H900 0.930 . S
C897 C896 1.369 . S
C897 C906 1.429 . S
C898 C896 1.419 . S
C898 C899 1.363 . S
C898 H901 0.929 . S
C899 C898 1.363 . S
C899 C905 1.428 . S
H900 C896 0.930 . S
H901 C898 0.929 . S
S902 N903 1.613 . S
S902 N904 1.610 . S
N903 S902 1.613 . S
N903 C906 1.350 . S
N904 S902 1.610 . S
N904 C905 1.351 . S
C905 C899 1.428 . S
C905 N904 1.351 . S
C905 C906 1.434 . S
C906 C897 1.429 . S
C906 N903 1.350 . S
C906 C905 1.434 . S
C907 C908 1.369 . S
C907 C909 1.419 . S
C907 H911 0.930 . S
C908 C907 1.369 . S
C908 C917 1.429 . S
C909 C907 1.419 . S
C909 C910 1.363 . S
C909 H912 0.929 . S
C910 C909 1.363 . S
C910 C916 1.428 . S
H911 C907 0.930 . S
H912 C909 0.929 . S
S913 N914 1.613 . S
S913 N915 1.610 . S
N914 S913 1.613 . S
N914 C917 1.350 . S
N915 S913 1.610 . S
N915 C916 1.351 . S
C916 C910 1.428 . S
C916 N915 1.351 . S
C916 C917 1.434 . S
C917 C908 1.429 . S
C917 N914 1.350 . S
C917 C916 1.434 . S
C918 C919 1.369 . S
C918 C920 1.419 . S
C918 H922 0.930 . S
C919 C918 1.369 . S
C919 C928 1.429 1_554 S
C920 C918 1.419 . S
C920 C921 1.363 . S
C920 H923 0.929 . S
C921 C920 1.363 . S
C921 C927 1.428 1_554 S
H922 C918 0.930 . S
H923 C920 0.929 . S
S924 N925 1.613 . S
S924 N926 1.610 . S
N925 S924 1.613 . S
N925 C928 1.350 . S
N926 S924 1.610 . S
N926 C927 1.351 . S
C927 C921 1.428 1_556 S
C927 N926 1.351 . S
C927 C928 1.434 . S
C928 C919 1.429 1_556 S
C928 N925 1.350 . S
C928 C927 1.434 . S
C929 C930 1.369 . S
C929 C931 1.419 . S
C929 H933 0.930 . S
C930 C929 1.369 . S
C930 C939 1.429 . S
C931 C929 1.419 . S
C931 C932 1.363 . S
C931 H934 0.929 . S
C932 C931 1.363 . S
C932 C938 1.428 . S
H933 C929 0.930 . S
H934 C931 0.929 . S
S935 N936 1.613 . S
S935 N937 1.610 . S
N936 S935 1.613 . S
N936 C939 1.350 . S
N937 S935 1.610 . S
N937 C938 1.351 . S
C938 C932 1.428 . S
C938 N937 1.351 . S
C938 C939 1.434 . S
C939 C930 1.429 . S
C939 N936 1.350 . S
C939 C938 1.434 . S
C940 C941 1.369 . S
C940 C942 1.419 . S
C940 H944 0.930 . S
C941 C940 1.369 . S
C941 C950 1.429 . S
C942 C940 1.419 . S
C942 C943 1.363 . S
C942 H945 0.913 1_554 S
C943 C942 1.363 . S
C943 C949 1.428 . S
H944 C940 0.930 . S
H945 C942 0.913 1_556 S
S946 N947 1.613 . S
S946 N948 1.610 . S
N947 S946 1.613 . S
N947 C950 1.350 . S
N948 S946 1.610 . S
N948 C949 1.351 . S
C949 C943 1.428 . S
C949 N948 1.351 . S
C949 C950 1.434 . S
C950 C941 1.429 . S
C950 N947 1.350 . S
C950 C949 1.434 . S
C951 C952 1.369 . S
C951 C953 1.419 . S
C951 H955 0.930 . S
C952 C951 1.369 . S
C952 C961 1.429 . S
C953 C951 1.419 . S
C953 C954 1.363 . S
C953 H956 0.929 . S
C954 C953 1.363 . S
C954 C960 1.428 . S
H955 C951 0.930 . S
H956 C953 0.929 . S
S957 N958 1.613 . S
S957 N959 1.610 . S
N958 S957 1.613 . S
N958 C961 1.350 . S
N959 S957 1.610 . S
N959 C960 1.351 . S
C960 C954 1.428 . S
C960 N959 1.351 . S
C960 C961 1.434 . S
C961 C952 1.429 . S
C961 N958 1.350 . S
C961 C960 1.434 . S
C962 C963 1.369 . S
C962 C964 1.419 . S
C962 H966 0.930 . S
C963 C962 1.369 . S
C963 C972 1.429 . S
C964 C962 1.419 . S
C964 C965 1.363 . S
C964 H967 0.929 . S
C965 C964 1.363 . S
C965 C971 1.428 . S
H966 C962 0.930 . S
H967 C964 0.929 . S
S968 N969 1.613 . S
S968 N970 1.610 . S
N969 S968 1.613 . S
N969 C972 1.350 . S
N970 S968 1.610 . S
N970 C971 1.351 . S
C971 C965 1.428 . S
C971 N970 1.351 . S
C971 C972 1.434 . S
C972 C963 1.429 . S
C972 N969 1.350 . S
C972 C971 1.434 . S
C973 C974 1.369 . S
C973 C975 1.419 . S
C973 H977 0.930 . S
C974 C973 1.369 . S
C974 C983 1.429 . S
C975 C973 1.419 . S
C975 C976 1.363 . S
C975 H978 0.929 . S
C976 C975 1.363 . S
C976 C982 1.428 . S
H977 C973 0.930 . S
H978 C975 0.929 . S
S979 N980 1.613 . S
S979 N981 1.610 . S
N980 S979 1.613 . S
N980 C983 1.350 . S
N981 S979 1.610 . S
N981 C982 1.351 . S
C982 C976 1.428 . S
C982 N981 1.351 . S
C982 C983 1.434 . S
C983 C974 1.429 . S
C983 N980 1.350 . S
C983 C982 1.434 . S
C545 C9 1.612 . S
C547 C311 1.688 . S
C556 C43 1.614 . S
C558 C345 1.690 . S
C567 C379 1.691 . S
C569 C77 1.617 . S
C578 C277 1.691 . S
C580 C111 1.620 . S
C589 C145 1.617 . S
C591 C243 1.690 . S
C600 C141 1.690 . S
C602 C179 1.616 . S
C611 C213 1.615 . S
C613 C175 1.690 . S
C622 C247 1.618 . S
C624 C209 1.688 . S
C633 C39 1.689 . S
C635 C281 1.620 . S
C644 C73 1.690 . S
C646 C315 1.615 . S
C655 C349 1.622 . S
C657 C107 1.690 . S
C666 C383 1.622 . S
C668 C5 1.690 . S
C677 C515 1.690 . S
C679 C417 1.621 . S
C688 C413 1.690 . S
C690 C451 1.616 . S
C699 C485 1.614 . S
C701 C447 1.687 . S
C710 C519 1.621 . S
C712 C481 1.690 . S
C721 C33 1.397 . S
C723 C373 1.403 . S
C732 C407 1.395 . S
C734 C67 1.404 . S
C743 C305 1.402 . S
C745 C101 1.399 . S
C754 C339 1.405 . S
C756 C135 1.396 . S
C765 C169 1.403 . S
C767 C509 1.397 . S
C776 C203 1.405 . S
C778 C543 1.397 . S
C787 C237 1.396 . S
C789 C441 1.404 . S
C798 C475 1.396 . S
C800 C271 1.404 . S
C809 C206 1.137 . S
C811 C20 1.174 . S
C820 C54 1.177 . S
C822 C240 1.128 1_565 S
C831 C138 1.127 1_455 S
C833 C88 1.179 . S
C842 C172 1.125 . S
C844 C122 1.178 . S
C853 C156 1.180 . S
C855 C70 1.124 . S
C864 C190 1.178 . S
C866 C104 1.128 1_545 S
C875 C2 1.125 1_655 S
C877 C224 1.179 . S
C886 C258 1.173 . S
C888 C36 1.135 . S
C897 C478 1.124 1_655 S
C899 C292 1.180 . S
C908 C326 1.180 . S
C910 C512 1.124 . S
C919 C360 1.179 . S
C921 C410 1.128 . S
C930 C394 1.179 . S
C932 C444 1.125 1_545 S
C941 C342 1.126 1_455 S
C943 C428 1.178 . S
C952 C462 1.180 . S
C954 C376 1.124 . S
C963 C274 1.136 . S
C965 C496 1.175 . S
C974 C308 1.133 1_565 S
C976 C530 1.176 . S
