# Generated by pormake.
# Topology sxc, (6)-cn, num edge types: 1
# Building blocks:
#     Node 0, Type 0, BuildingBlock: KUMJIN_clean_sbu_1, # of connection points: 6
#     Node 1, Type 0, BuildingBlock: KUMJIN_clean_sbu_1, # of connection points: 6
#     Node 2, Type 0, BuildingBlock: KUMJIN_clean_sbu_1, # of connection points: 6
#     Edge 3, Type (0, 0), BuildingBlock: KIFKEQ_clean_linker_1, # of connection points: 2
#     Edge 4, Type (0, 0), BuildingBlock: KIFKEQ_clean_linker_1, # of connection points: 2
#     Edge 5, Type (0, 0), BuildingBlock: KIFKEQ_clean_linker_1, # of connection points: 2
#     Edge 6, Type (0, 0), BuildingBlock: KIFKEQ_clean_linker_1, # of connection points: 2
#     Edge 7, Type (0, 0), BuildingBlock: KIFKEQ_clean_linker_1, # of connection points: 2
#     Edge 8, Type (0, 0), BuildingBlock: KIFKEQ_clean_linker_1, # of connection points: 2
#     Edge 9, Type (0, 0), BuildingBlock: KIFKEQ_clean_linker_1, # of connection points: 2
#     Edge 10, Type (0, 0), BuildingBlock: KIFKEQ_clean_linker_1, # of connection points: 2
#     Edge 11, Type (0, 0), BuildingBlock: KIFKEQ_clean_linker_1, # of connection points: 2
# Relax obj value: 0.254
# Max RMSD: 0.160
# Mean RMSD: 0.117
data_MOF--net-sxc--node1-KUMJIN_clean_sbu_1--edge1-KIFKEQ_clean_linker_1
_symmetry_space_group_name_H-M    P1
_symmetry_Int_Tables_number       1
_symmetry_cell_setting            triclinic
loop_
_symmetry_equiv_pos_as_xyz
'x, y, z'
_cell_length_a     15.952808
_cell_length_b     17.076699
_cell_length_c     45.473358
_cell_angle_alpha  110.12767
_cell_angle_beta   98.787396
_cell_angle_gamma 98.322014
loop_
_atom_site_label
_atom_site_type_symbol
_atom_site_fract_x
_atom_site_fract_y
_atom_site_fract_z
_atom_type_partial_charge
Eu0 Eu 0.92154 0.14013 0.98268 0.0
C1 C 0.28415 1.09336 0.03215 0.0
N2 N 0.22781 0.14016 0.04547 0.0
C3 C 0.25745 0.10509 0.09215 0.0
C4 C 0.32779 1.04858 0.04827 0.0
C5 C 0.21574 0.14844 0.07533 0.0
C6 C 0.31335 1.05454 0.0785 0.0
C7 C 0.35391 1.0395 0.98754 0.0
C8 C 0.29637 1.08839 0.00187 0.0
C9 C 0.3973 0.99489 0.00359 0.0
C10 C 0.3842 0.99932 0.03381 0.0
Eu11 Eu 0.16508 0.21502 0.01612 0.0
N12 N 0.25298 0.13174 0.98663 0.0
C13 C 0.36721 1.03769 0.95764 0.0
C14 C 0.26944 0.13345 0.95822 0.0
C15 C 0.32542 1.08551 0.94309 0.0
H16 H 0.17591 0.19019 0.08657 0.0
H17 H 0.33754 1.08675 0.92046 0.0
H18 H 0.92002 0.21465 0.92352 0.0
H19 H 0.70508 0.15974 0.06622 0.0
H20 H 0.24247 0.17394 0.94752 0.0
H21 H 0.41105 1.00111 0.94593 0.0
H22 H 0.82479 0.1143 0.0412 0.0
H23 H 0.24726 0.11152 0.11579 0.0
H24 H 0.44156 0.95703 0.99287 0.0
H25 H 0.41824 0.96453 0.04586 0.0
H26 H 0.83626 0.29884 0.90042 0.0
H27 H 0.34571 1.02113 0.09163 0.0
H28 H 0.61831 0.24817 0.04712 0.0
N29 N 0.85464 0.22965 0.96181 0.0
C30 C 0.78717 0.25613 0.97462 0.0
C31 C 0.82232 0.2879 0.92141 0.0
C32 C 0.73548 0.30129 0.96138 0.0
C33 C 0.87008 0.24099 0.93463 0.0
C34 C 0.75506 0.31867 0.93496 0.0
N35 N 0.8148 0.18653 0.01127 0.0
C36 C 0.79214 0.15832 0.03427 0.0
C37 C 0.69499 0.258 0.01265 0.0
C38 C 0.76742 0.23486 0.00018 0.0
C39 C 0.67385 0.2322 0.03715 0.0
C40 C 0.72267 0.18221 0.048 0.0
H41 H 0.71706 0.35366 0.92429 0.0
H42 H 0.62208 0.3568 0.96335 0.0
H43 H 0.58584 0.31751 0.00789 0.0
O44 O 0.79278 1.05716 0.96696 0.0
O45 O 0.96697 0.29282 0.99446 0.0
O46 O 0.11603 0.33204 0.00781 0.0
O47 O 0.87617 1.04891 0.93318 0.0
O48 O 0.96784 0.13986 0.03221 0.0
O49 O 0.07871 0.25588 0.05169 0.0
O50 O 0.28115 0.29587 0.01487 0.0
O51 O 0.11425 1.06216 0.00405 0.0
O52 O 0.96573 1.03084 -0.0015 0.0
O53 O 0.25209 0.3068 0.06106 0.0
O54 O 0.1195 0.21905 0.96704 0.0
O55 O 1.01364 0.10199 0.94973 0.0
C56 C 1.03981 0.35329 0.00141 0.0
C57 C 0.78058 0.92197 0.92647 0.0
C58 C 0.7508 0.78919 0.93605 0.0
C59 C 0.72924 0.74371 0.90257 0.0
C60 C 0.75955 0.87526 0.89333 0.0
C61 C 0.73438 0.78652 0.88149 0.0
C62 C 0.77745 0.87874 0.94773 0.0
C63 C 1.01879 0.2035 0.05653 0.0
C64 C 0.80374 1.01572 0.93836 0.0
C65 C 0.66379 0.32443 0.97392 0.0
C66 C 0.64339 0.30246 -0.00066 0.0
C67 C 1.04141 1.00557 0.00122 0.0
C68 C 0.39869 0.36191 0.05926 0.0
C69 C 0.53564 0.44563 0.05856 0.0
C70 C 0.57922 0.41822 0.08127 0.0
C71 C 0.44262 0.3339 0.08156 0.0
C72 C 0.44518 0.41862 0.04849 0.0
C73 C 0.5327 0.36287 0.09274 0.0
C74 C 0.06543 0.15702 0.94329 0.0
C75 C 0.30485 0.33467 0.04585 0.0
H76 H 0.7062 0.67514 0.89246 0.0
H77 H 0.76186 0.90756 0.87662 0.0
H78 H 0.71737 0.75082 0.85584 0.0
H79 H 0.79531 0.91518 0.97331 0.0
H80 H 0.64914 0.43724 0.08936 0.0
H81 H 0.40778 0.28988 0.09014 0.0
H82 H 0.41021 0.4411 0.03166 0.0
H83 H 0.56685 0.34109 0.10989 0.0
Eu84 Eu 0.06966 1.09255 0.32532 0.0
C85 C 0.32568 0.41021 0.38359 0.0
N86 N 0.2612 0.36697 0.39237 0.0
C87 C 0.36393 0.3682 0.43703 0.0
C88 C 0.41256 0.43089 0.40078 0.0
C89 C 0.27876 0.34948 0.4195 0.0
C90 C 0.43123 0.40819 0.42745 0.0
C91 C 0.37155 0.47532 0.34702 0.0
C92 C 0.30547 0.43219 0.35675 0.0
C93 C 0.45774 0.4957 0.36422 0.0
C94 C 0.47818 0.47336 0.39091 0.0
Eu95 Eu 0.12067 0.34062 0.3601 0.0
N96 N 0.22199 0.40876 0.33949 0.0
C97 C 0.34921 0.49594 0.32 0.0
C98 C 0.19945 0.43082 0.31374 0.0
C99 C 0.26274 0.47407 0.30343 0.0
H100 H 0.22767 0.32402 0.42852 0.0
H101 H 0.24471 0.49104 0.28285 0.0
H102 H 0.93443 1.06128 0.25564 0.0
H103 H 1.03108 0.94071 0.4122 0.0
H104 H 0.1325 0.41668 0.30152 0.0
H105 H 0.39814 0.52918 0.31184 0.0
H106 H 0.11111 1.02678 0.38764 0.0
H107 H 0.37742 0.35302 0.45827 0.0
H108 H 0.50928 0.52843 0.35696 0.0
H109 H 0.54517 0.48934 0.40381 0.0
H110 H 0.7855 0.9849 0.22627 0.0
H111 H 0.49714 0.42277 0.44118 0.0
H112 H 0.8783 0.86732 0.38743 0.0
N113 N 0.92873 1.02062 0.29469 0.0
C114 C 0.88193 0.97057 0.30678 0.0
C115 C 0.81166 0.98078 0.24898 0.0
C116 C 0.79645 0.92559 0.29066 0.0
C117 C 0.89604 1.02438 0.26578 0.0
C118 C 0.76137 0.93177 0.26158 0.0
N119 N 1.00264 1.00752 0.35032 0.0
C120 C 1.04364 0.9973 0.37699 0.0
C121 C 0.87202 0.91347 0.34852 0.0
C122 C 0.91938 0.96494 0.33555 0.0
C123 C 0.91254 0.90615 0.37672 0.0
C124 C 0.99889 0.9476 0.39081 0.0
H125 H 0.69592 0.89825 0.24852 0.0
H126 H 0.68281 0.84143 0.292 0.0
H127 H 0.74898 0.83058 0.34255 0.0
O128 O 0.08546 0.96078 0.31068 0.0
O129 O 0.94357 0.1459 0.33115 0.0
O130 O 0.97192 0.29415 0.35041 0.0
O131 O 0.14596 1.04282 0.28942 0.0
O132 O 0.12993 0.15937 0.37822 0.0
O133 O 0.07019 0.27616 0.3922 0.0
O134 O 0.07841 0.45888 0.36154 0.0
O135 O 0.21661 0.26583 0.33356 0.0
O136 O 0.21034 0.15966 0.35228 0.0
O137 O 0.14975 0.45055 0.40461 0.0
O138 O 1.0477 0.29208 0.30819 0.0
O139 O 0.0737 0.15531 0.28854 0.0
C140 C 0.91691 0.21926 0.3403 0.0
C141 C 0.23038 0.95826 0.30695 0.0
C142 C 0.33654 0.95988 0.35222 0.0
C143 C 0.39478 0.93797 0.33204 0.0
C144 C 0.28962 0.9379 0.28716 0.0
C145 C 0.37153 0.92787 0.29973 0.0
C146 C 0.25496 0.96989 0.3394 0.0
C147 C 0.09249 0.21104 0.39794 0.0
C148 C 0.14484 0.9728 0.29504 0.0
C149 C 0.74873 0.87596 0.30396 0.0
C150 C 0.78637 0.86993 0.33279 0.0
C151 C 0.25622 0.21149 0.34204 0.0
C152 C 0.07345 0.56077 0.41293 0.0
C153 C 0.09671 0.7037 0.45368 0.0
C154 C 1.01099 0.68578 0.45727 0.0
C155 C 0.98863 0.54211 0.41707 0.0
C156 C 0.12663 0.64068 0.43128 0.0
C157 C 0.95753 0.60489 0.4392 0.0
C158 C 1.05227 0.22315 0.28432 0.0
C159 C 0.11375 0.49838 0.39201 0.0
H160 H 0.45796 0.92912 0.34126 0.0
H161 H 0.27273 0.93011 0.26218 0.0
H162 H 0.41702 0.91188 0.28435 0.0
H163 H 0.20971 0.98586 0.35484 0.0
H164 H 0.98554 0.73409 0.47379 0.0
H165 H 0.94716 0.47969 0.40346 0.0
H166 H 0.19188 0.65442 0.42751 0.0
H167 H 0.89177 0.59098 0.44225 0.0
Eu168 Eu 0.13843 0.27052 0.69608 0.0
C169 C 0.23338 0.94365 0.62056 0.0
N170 N 0.17974 0.98793 0.60992 0.0
C171 C 0.24088 0.9668 0.56349 0.0
C172 C 0.2966 0.91312 0.60367 0.0
C173 C 0.18028 0.99724 0.58129 0.0
C174 C 0.3 0.92546 0.57491 0.0
C175 C 0.27953 0.88219 0.65953 0.0
C176 C 0.22427 0.92808 0.6482 0.0
C177 C 0.34529 0.85544 0.64363 0.0
C178 C 0.3535 0.87045 0.61571 0.0
Eu179 Eu 0.07371 1.0289 0.63941 0.0
N180 N 0.1587 0.9531 0.66283 0.0
C181 C 0.26516 0.86158 0.68581 0.0
C182 C 0.1399 0.92584 0.68653 0.0
C183 C 0.19411 0.88211 0.69896 0.0
H184 H 0.13407 1.02863 0.57239 0.0
H185 H 0.17983 0.86252 0.71822 0.0
H186 H 0.16896 0.28106 0.77238 0.0
H187 H 0.93136 0.42331 0.6358 0.0
H188 H 0.08198 0.93513 0.69556 0.0
H189 H 0.30622 0.82652 0.69522 0.0
H190 H 1.04253 0.33969 0.64108 0.0
H191 H 0.24202 0.97526 0.54102 0.0
H192 H 0.3886 0.8208 0.65222 0.0
H193 H 0.40321 0.84755 0.60331 0.0
H194 H 0.10256 0.33235 0.81923 0.0
H195 H 0.34723 0.90239 0.56116 0.0
H196 H 0.85995 0.48227 0.68076 0.0
N197 N 0.08295 0.32095 0.74283 0.0
C198 C 1.02156 0.3681 0.74158 0.0
C199 C 0.07828 0.3418 0.7974 0.0
C200 C 0.98399 0.40164 0.76814 0.0
C201 C 0.11417 0.3106 0.77058 0.0
C202 C 1.01221 0.38674 0.79607 0.0
N203 N 1.03182 0.3482 0.68805 0.0
C204 C 1.01101 0.36386 0.66066 0.0
C205 C 0.93271 0.43187 0.71171 0.0
C206 C 0.99642 0.3835 0.71369 0.0
C207 C 0.90868 0.44548 0.68322 0.0
C208 C 0.94854 0.41192 0.65771 0.0
H209 H 0.98484 0.41131 0.81696 0.0
H210 H 0.89026 0.4752 0.78623 0.0
H211 H 0.84519 0.50134 0.73685 0.0
O212 O 0.22889 0.36607 0.68799 0.0
O213 O 0.98762 0.21709 0.68014 0.0
O214 O 0.95214 1.06889 0.65693 0.0
O215 O 0.21709 0.38176 0.73632 0.0
O216 O 0.14656 0.24176 0.64379 0.0
O217 O 1.03528 0.12581 0.61952 0.0
O218 O 1.01302 0.8937 0.61979 0.0
O219 O 0.21171 0.10772 0.64453 0.0
O220 O 0.24725 0.1949 0.69701 0.0
O221 O 0.99152 0.96963 0.5911 0.0
O222 O 1.04881 1.05951 0.69012 0.0
O223 O 0.16313 0.17195 0.71732 0.0
C224 C 0.9294 0.1435 0.66873 0.0
C225 C 0.35702 0.42072 0.72829 0.0
C226 C 0.49928 0.47475 0.72149 0.0
C227 C 0.5377 0.4352 0.74081 0.0
C228 C 0.39607 0.38222 0.74805 0.0
C229 C 0.48613 0.39006 0.75439 0.0
C230 C 0.40913 0.46774 0.71553 0.0
C231 C 0.09061 0.18768 0.61792 0.0
C232 C 0.26218 0.4072 0.71857 0.0
C233 C 0.92009 0.44934 0.76612 0.0
C234 C 0.89457 0.46443 0.73801 0.0
C235 C 0.27211 0.15034 0.67106 0.0
C236 C 0.8788 0.85204 0.58193 0.0
C237 C 0.75439 0.75939 0.58662 0.0
C238 C 0.70501 0.76318 0.55896 0.0
C239 C 0.82903 0.8544 0.55407 0.0
C240 C 0.84081 0.80472 0.59807 0.0
C241 C 0.74239 0.81056 0.54281 0.0
C242 C 0.10175 0.11185 0.71718 0.0
C243 C 0.97106 0.8955 0.59318 0.0
H244 H 0.6072 0.43939 0.74537 0.0
H245 H 0.35711 0.3446 0.75798 0.0
H246 H 0.51578 0.35955 0.76931 0.0
H247 H 0.37897 0.49616 0.69983 0.0
H248 H 0.63814 0.72867 0.54961 0.0
H249 H 0.85722 0.88976 0.54096 0.0
H250 H 0.87839 0.80341 0.6198 0.0
H251 H 0.70435 0.81274 0.52136 0.0
H252 H 0.89997 0.44387 0.99514 0.0
H253 H 0.17692 0.49156 0.00793 0.0
H254 H 0.90122 0.58846 0.9955 0.0
H255 H 0.17854 0.63547 0.00802 0.0
H256 H 0.17744 0.90764 -0.00013 0.0
H257 H 0.1766 0.76351 -4e-05 0.0
H258 H 0.90753 0.73295 0.00439 0.0
H259 H 0.90889 0.87651 0.00423 0.0
C260 C 0.96216 0.48378 -0.00203 0.0
C261 C 1.03829 0.44905 0.00147 0.0
C262 C 0.9631 0.57018 -0.00176 0.0
C263 C 1.04011 0.63149 0.0017 0.0
C264 C 0.11598 0.59612 0.00507 0.0
C265 C 0.11509 0.51023 0.00508 0.0
C266 C 0.11713 0.87143 0.00087 0.0
C267 C 1.04303 0.91038 0.00175 0.0
C268 C 0.1164 0.78534 0.00091 0.0
C269 C 1.04149 0.72829 0.00183 0.0
C270 C 0.96782 0.76807 0.00301 0.0
C271 C 0.9686 0.85389 0.00295 0.0
H272 H 0.36482 0.28974 0.31265 0.0
H273 H 0.37177 0.13686 0.37032 0.0
H274 H 0.51893 0.29311 0.31248 0.0
H275 H 0.52457 0.13611 0.36907 0.0
H276 H 0.7856 1.08916 0.33888 0.0
H277 H 0.63176 1.08684 0.33879 0.0
H278 H 0.66917 0.34464 0.34177 0.0
H279 H 0.82319 0.3465 0.34171 0.0
C280 C 0.39865 0.25637 0.32536 0.0
C281 C 0.35298 0.21217 0.34134 0.0
C282 C 0.48836 0.25823 0.32526 0.0
C283 C 0.53736 0.21449 0.3406 0.0
C284 C 0.49125 0.16988 0.35639 0.0
C285 C 0.40211 0.16966 0.357 0.0
C286 C 0.76154 0.14532 0.33913 0.0
C287 C 0.81944 0.21759 0.33988 0.0
C288 C 0.6721 0.14443 0.33948 0.0
C289 C 0.63481 0.2155 0.34023 0.0
C290 C 0.69276 0.28768 0.3408 0.0
C291 C 0.78252 0.28895 0.34093 0.0
H292 H 0.82998 0.65661 0.61196 0.0
H293 H 0.59441 0.75085 0.60127 0.0
H294 H 0.77666 0.5905 0.64703 0.0
H295 H 0.53867 0.68036 0.63481 0.0
H296 H 0.50308 0.63561 0.72373 0.0
H297 H 0.56775 0.70184 0.69053 0.0
H298 H 0.67143 0.47817 0.64885 0.0
H299 H 0.60859 0.41339 0.68301 0.0
C300 C 0.76638 0.66248 0.6169 0.0
C301 C 0.71678 0.7099 0.60427 0.0
C302 C 0.73553 0.62389 0.63673 0.0
C303 C 0.65404 0.63123 0.64408 0.0
C304 C 0.60272 0.67531 0.63021 0.0
C305 C 0.63391 0.71453 0.61058 0.0
C306 C 0.54105 0.60155 0.70782 0.0
C307 C 0.55087 0.51964 0.70567 0.0
C308 C 0.57715 0.63882 0.68856 0.0
C309 C 0.6229 0.59439 0.66652 0.0
C310 C 0.63658 0.51408 0.66562 0.0
C311 C 0.60102 0.47707 0.68518 0.0
H312 H 0.8558 0.26158 0.71089 0.0
H313 H 0.77991 1.02605 0.62865 0.0
H314 H 0.70323 0.26463 0.7115 0.0
H315 H 0.62659 1.02834 0.62922 0.0
H316 H 0.35368 0.10197 0.61956 0.0
H317 H 0.50603 0.09699 0.61908 0.0
H318 H 0.56879 0.20166 0.72245 0.0
H319 H 0.41487 0.20145 0.72268 0.0
C320 C 0.80708 0.21072 0.69256 0.0
C321 C 0.83297 0.1445 0.66942 0.0
C322 C 0.71814 0.21173 0.69317 0.0
C323 C 0.64957 0.14693 0.67035 0.0
C324 C 0.6755 1.08049 0.64716 0.0
C325 C 0.76461 1.07885 0.64693 0.0
C326 C 0.39908 0.12207 0.64229 0.0
C327 C 0.36907 0.15073 0.67111 0.0
C328 C 0.48792 0.11984 0.64205 0.0
C329 C 0.5527 0.14858 0.67071 0.0
C330 C 0.52298 0.17919 0.69962 0.0
C331 C 0.43358 0.17941 0.6998 0.0
H332 H 0.70205 0.84598 0.99414 0.0
H333 H 0.77678 0.62842 0.92919 0.0
H334 H 0.67079 0.76554 0.0276 0.0
H335 H 0.73909 0.54686 0.96175 0.0
H336 H 0.5032 0.42501 0.99559 0.0
H337 H 0.57388 0.51088 0.97001 0.0
H338 H 0.74555 0.67085 0.06069 0.0
H339 H 0.67459 0.58349 0.08689 0.0
C340 C 0.71372 0.7819 0.98721 0.0
C341 C 0.74087 0.74362 0.95847 0.0
C342 C 0.6956 0.73592 0.00649 0.0
C343 C 0.70253 0.65034 -0.00287 0.0
C344 C 0.73311 0.61294 0.96933 0.0
C345 C 0.75332 0.65941 0.95046 0.0
C346 C 0.55583 0.47851 0.01032 0.0
C347 C 0.58288 0.49756 0.04341 0.0
C348 C 0.59692 0.52697 0.99549 0.0
C349 C 0.66536 0.59669 0.01337 0.0
C350 C 0.6931 0.61667 0.04645 0.0
C351 C 0.65277 0.5667 0.06133 0.0
H352 H 0.26545 0.74774 0.48678 0.0
H353 H 1.05774 0.85389 0.45391 0.0
H354 H 0.37143 0.85673 0.48113 0.0
H355 H 0.16311 0.9644 0.44947 0.0
H356 H 0.39558 0.84529 0.37489 0.0
H357 H 0.37051 0.82682 0.42362 0.0
H358 H 0.29237 1.06872 0.45487 0.0
H359 H 0.31498 1.08597 0.40554 0.0
C360 C 0.24276 0.79766 0.4803 0.0
C361 C 0.15355 0.79001 0.46906 0.0
C362 C 0.30354 0.85994 0.47698 0.0
C363 C 0.27522 0.91573 0.46298 0.0
C364 C 0.18697 0.92045 0.45932 0.0
C365 C 0.12609 0.85721 0.46207 0.0
C366 C 0.3772 0.89652 0.39285 0.0
C367 C 0.35503 0.96582 0.38599 0.0
C368 C 0.36309 0.88631 0.42103 0.0
C369 C 0.32675 0.94544 0.44276 0.0
C370 C 0.31827 1.02134 0.43823 0.0
C371 C 0.33154 1.03117 0.40995 0.0
H372 H 0.07109 0.09819 0.23017 0.0
H373 H 1.00262 0.34508 0.26176 0.0
H374 H 1.05678 0.09692 0.1761 0.0
H375 H 0.99008 0.34416 0.20722 0.0
H376 H 0.08496 0.34226 0.11305 0.0
H377 H 0.08629 0.34931 0.16792 0.0
H378 H 0.9446 1.08777 0.13041 0.0
H379 H 0.9436 1.08056 0.07587 0.0
C380 C 1.05269 0.15238 0.22572 0.0
C381 C 1.03896 0.22225 0.25081 0.0
C382 C 1.04422 0.15138 0.19447 0.0
C383 C 1.02238 0.22044 0.18715 0.0
C384 C 1.00797 0.29026 0.21205 0.0
C385 C 1.01529 0.29078 0.24339 0.0
C386 C 1.05328 0.28659 0.11653 0.0
C387 C 1.0139 0.21096 0.08993 0.0
C388 C 1.05374 0.29074 0.148 0.0
C389 C 1.01588 0.219 0.1537 0.0
C390 C 0.97513 0.14403 0.12702 0.0
C391 C 0.97386 0.14017 0.09565 0.0
H392 H 0.20908 0.16004 0.43433 0.0
H393 H 0.97275 0.25454 0.43429 0.0
H394 H 0.20835 0.15722 0.48789 0.0
H395 H 0.97119 0.25047 0.48765 0.0
H396 H 0.22296 0.26512 0.59867 0.0
H397 H 0.22307 0.27003 0.54539 0.0
H398 H 0.95613 0.13301 0.51232 0.0
H399 H 0.95637 0.1265 0.56525 0.0
C400 C 0.15651 0.17922 0.44563 0.0
C401 C 0.09068 0.2069 0.43002 0.0
C402 C 0.15652 0.17836 0.47638 0.0
C403 C 0.08981 0.20365 0.49201 0.0
C404 C 1.02329 0.23025 0.47619 0.0
C405 C 1.02432 0.23285 0.44572 0.0
C406 C 0.16411 0.23667 0.58011 0.0
C407 C 0.08954 0.19584 0.5863 0.0
C408 C 0.16438 0.23891 0.54953 0.0
C409 C 0.08954 0.20198 0.52463 0.0
C410 C 1.01457 0.16258 0.53103 0.0
C411 C 1.01485 0.15873 0.56136 0.0
H412 H 0.95538 1.06029 0.73649 0.0
H413 H 0.23351 0.1432 0.76821 0.0
H414 H 0.94454 1.06677 0.79056 0.0
H415 H 0.22303 0.1501 0.82199 0.0
H416 H 0.16201 0.26324 0.92159 0.0
H417 H 0.16913 0.24364 0.86638 0.0
H418 H 0.98195 1.00518 0.83229 0.0
H419 H 0.97519 1.0244 0.88767 0.0
C420 C 1.01427 1.07825 0.75483 0.0
C421 C 0.09518 0.1022 0.74817 0.0
C422 C 1.00814 1.08231 0.78587 0.0
C423 C 0.08281 0.11047 0.81091 0.0
C424 C 0.16396 0.13003 0.80361 0.0
C425 C 0.17006 0.1254 0.77267 0.0
C426 C 0.12265 0.20628 0.90241 0.0
C427 C 0.06869 0.14508 0.90932 0.0
C428 C 0.12695 0.19487 0.87065 0.0
C429 C 0.07669 0.12237 0.84473 0.0
C430 C 1.02133 1.06193 0.85156 0.0
C431 C 1.01768 1.07292 0.88341 0.0
loop_
_geom_bond_atom_site_label_1
_geom_bond_atom_site_label_2
_geom_bond_distance
_geom_bond_site_symmetry_2
_ccdc_geom_bond_type
Eu0 N29 2.600 . S
Eu0 N35 2.562 1_556 S
Eu0 O44 2.462 1_546 S
Eu0 O45 2.373 1_556 S
Eu0 O47 2.432 1_545 S
Eu0 O48 2.291 1_556 S
Eu0 O52 2.335 1_545 S
Eu0 O55 2.372 . S
Eu0 C64 2.787 1_545 S
C1 N2 1.365 . S
C1 C4 1.405 . S
C1 C8 1.448 . S
N2 C1 1.365 . S
N2 C5 1.319 . S
N2 Eu11 2.600 . S
C3 C5 1.397 . S
C3 C6 1.367 . S
C3 H23 0.931 . S
C4 C1 1.405 . S
C4 C6 1.403 . S
C4 C10 1.439 . S
C5 N2 1.319 . S
C5 C3 1.397 . S
C5 H16 0.930 . S
C6 C3 1.367 . S
C6 C4 1.403 . S
C6 H27 0.929 . S
C7 C8 1.430 . S
C7 C9 1.387 . S
C7 C13 1.404 1_554 S
C8 C1 1.448 . S
C8 C7 1.430 . S
C8 N12 1.351 . S
C9 C7 1.387 . S
C9 C10 1.374 . S
C9 H24 0.931 1_545 S
C10 C4 1.439 . S
C10 C9 1.374 . S
C10 H25 0.931 . S
Eu11 N2 2.600 . S
Eu11 N12 2.562 . S
Eu11 O46 2.335 . S
Eu11 O49 2.372 . S
Eu11 O50 2.462 . S
Eu11 O51 2.373 . S
Eu11 O53 2.432 . S
Eu11 O54 2.291 1_554 S
Eu11 C75 2.787 . S
N12 C8 1.351 . S
N12 Eu11 2.562 . S
N12 C14 1.325 1_554 S
C13 C7 1.404 1_556 S
C13 C15 1.366 . S
C13 H21 0.930 1_545 S
C14 N12 1.325 1_556 S
C14 C15 1.416 . S
C14 H20 0.929 . S
C15 C13 1.366 . S
C15 C14 1.416 . S
C15 H17 0.930 . S
H16 C5 0.930 . S
H17 C15 0.930 . S
H18 C33 0.930 . S
H19 C40 0.930 . S
H20 C14 0.929 . S
H21 C13 0.930 1_565 S
H22 C36 0.929 . S
H23 C3 0.931 . S
H24 C9 0.931 1_565 S
H25 C10 0.931 . S
H26 C31 0.931 . S
H27 C6 0.929 . S
H28 C39 0.930 . S
N29 Eu0 2.600 . S
N29 C30 1.365 . S
N29 C33 1.319 . S
C30 N29 1.365 . S
C30 C32 1.405 . S
C30 C38 1.448 . S
C31 H26 0.931 . S
C31 C33 1.397 . S
C31 C34 1.367 . S
C32 C30 1.405 . S
C32 C34 1.403 . S
C32 C65 1.439 . S
C33 H18 0.930 . S
C33 N29 1.319 . S
C33 C31 1.397 . S
C34 C31 1.367 . S
C34 C32 1.403 . S
C34 H41 0.929 . S
N35 Eu0 2.562 1_554 S
N35 C36 1.325 . S
N35 C38 1.351 1_554 S
C36 H22 0.929 . S
C36 N35 1.325 . S
C36 C40 1.416 . S
C37 C38 1.430 1_554 S
C37 C39 1.404 . S
C37 C66 1.387 1_554 S
C38 C30 1.448 . S
C38 N35 1.351 1_556 S
C38 C37 1.430 1_556 S
C39 H28 0.930 . S
C39 C37 1.404 . S
C39 C40 1.366 . S
C40 H19 0.930 . S
C40 C36 1.416 . S
C40 C39 1.366 . S
H41 C34 0.929 . S
H42 C65 0.931 . S
H43 C66 0.931 . S
O44 Eu0 2.462 1_564 S
O44 C64 1.252 1_554 S
O45 Eu0 2.373 1_554 S
O45 C56 1.249 . S
O46 Eu11 2.335 . S
O46 C56 1.264 1_455 S
O47 Eu0 2.432 1_565 S
O47 C64 1.268 . S
O48 Eu0 2.291 1_554 S
O48 C63 1.255 . S
O49 Eu11 2.372 . S
O49 C63 1.257 1_455 S
O50 Eu11 2.462 . S
O50 C75 1.252 . S
O51 Eu11 2.373 . S
O51 C67 1.249 1_545 S
O52 Eu0 2.335 1_565 S
O52 C67 1.264 1_656 S
O53 Eu11 2.432 . S
O53 C75 1.268 . S
O54 Eu11 2.291 1_556 S
O54 C74 1.255 . S
O55 Eu0 2.372 . S
O55 C74 1.257 1_655 S
C56 O45 1.249 . S
C56 O46 1.264 1_655 S
C57 C60 1.382 . S
C57 C62 1.390 1_556 S
C57 C64 1.506 . S
C58 C59 1.398 1_554 S
C58 C62 1.392 . S
C59 C58 1.398 1_556 S
C59 C61 1.372 . S
C59 H76 0.931 . S
C60 C57 1.382 . S
C60 C61 1.390 . S
C60 H77 0.931 . S
C61 C59 1.372 . S
C61 C60 1.390 . S
C61 H78 0.929 . S
C62 C57 1.390 1_554 S
C62 C58 1.392 . S
C62 H79 0.930 . S
C63 O48 1.255 . S
C63 O49 1.257 1_655 S
C64 Eu0 2.787 1_565 S
C64 O44 1.252 1_556 S
C64 O47 1.268 . S
C64 C57 1.506 . S
C65 C32 1.439 . S
C65 H42 0.931 . S
C65 C66 1.374 . S
C66 C37 1.387 1_556 S
C66 H43 0.931 . S
C66 C65 1.374 . S
C67 O51 1.249 1_565 S
C67 O52 1.264 1_454 S
C68 C71 1.382 . S
C68 C72 1.390 . S
C68 C75 1.506 . S
C69 C70 1.398 . S
C69 C72 1.392 . S
C70 C69 1.398 . S
C70 C73 1.372 . S
C70 H80 0.931 . S
C71 C68 1.382 . S
C71 C73 1.390 . S
C71 H81 0.931 . S
C72 C68 1.390 . S
C72 C69 1.392 . S
C72 H82 0.930 1_554 S
C73 C70 1.372 . S
C73 C71 1.390 . S
C73 H83 0.929 . S
C74 O54 1.255 . S
C74 O55 1.257 1_455 S
C75 Eu11 2.787 . S
C75 O50 1.252 . S
C75 O53 1.268 . S
C75 C68 1.506 . S
H76 C59 0.931 . S
H77 C60 0.931 . S
H78 C61 0.929 . S
H79 C62 0.930 . S
H80 C70 0.931 . S
H81 C71 0.931 . S
H82 C72 0.930 1_556 S
H83 C73 0.929 . S
Eu84 N113 2.600 1_545 S
Eu84 N119 2.562 1_545 S
Eu84 O128 2.462 1_645 S
Eu84 O129 2.373 . S
Eu84 O131 2.432 1_645 S
Eu84 O132 2.291 . S
Eu84 O136 2.335 1_655 S
Eu84 O139 2.372 1_655 S
Eu84 C148 2.787 1_645 S
C85 N86 1.365 . S
C85 C88 1.405 . S
C85 C92 1.448 . S
N86 C85 1.365 . S
N86 C89 1.319 . S
N86 Eu95 2.600 . S
C87 C89 1.397 . S
C87 C90 1.367 . S
C87 H107 0.931 . S
C88 C85 1.405 . S
C88 C90 1.403 . S
C88 C94 1.439 . S
C89 N86 1.319 . S
C89 C87 1.397 . S
C89 H100 0.930 . S
C90 C87 1.367 . S
C90 C88 1.403 . S
C90 H111 0.929 . S
C91 C92 1.430 . S
C91 C93 1.387 . S
C91 C97 1.404 . S
C92 C85 1.448 . S
C92 C91 1.430 . S
C92 N96 1.351 . S
C93 C91 1.387 . S
C93 C94 1.374 . S
C93 H108 0.931 . S
C94 C88 1.439 . S
C94 C93 1.374 . S
C94 H109 0.931 . S
Eu95 N86 2.600 . S
Eu95 N96 2.562 . S
Eu95 O130 2.335 1_455 S
Eu95 O133 2.372 . S
Eu95 O134 2.462 . S
Eu95 O135 2.373 . S
Eu95 O137 2.432 . S
Eu95 O138 2.291 . S
Eu95 C159 2.787 . S
N96 C92 1.351 . S
N96 Eu95 2.562 . S
N96 C98 1.325 . S
C97 C91 1.404 . S
C97 C99 1.366 . S
C97 H105 0.930 . S
C98 N96 1.325 . S
C98 C99 1.416 . S
C98 H104 0.929 . S
C99 C97 1.366 . S
C99 C98 1.416 . S
C99 H101 0.930 . S
H100 C89 0.930 . S
H101 C99 0.930 . S
H102 C117 0.930 . S
H103 C124 0.930 . S
H104 C98 0.929 . S
H105 C97 0.930 . S
H106 C120 0.929 . S
H107 C87 0.931 . S
H108 C93 0.931 . S
H109 C94 0.931 . S
H110 C115 0.931 . S
H111 C90 0.929 . S
H112 C123 0.930 . S
N113 Eu84 2.600 1_565 S
N113 C114 1.365 . S
N113 C117 1.319 . S
C114 N113 1.365 . S
C114 C116 1.405 . S
C114 C122 1.448 . S
C115 H110 0.931 . S
C115 C117 1.397 . S
C115 C118 1.367 . S
C116 C114 1.405 . S
C116 C118 1.403 . S
C116 C149 1.439 . S
C117 H102 0.930 . S
C117 N113 1.319 . S
C117 C115 1.397 . S
C118 C115 1.367 . S
C118 C116 1.403 . S
C118 H125 0.929 . S
N119 Eu84 2.562 1_565 S
N119 C120 1.325 . S
N119 C122 1.351 . S
C120 H106 0.929 . S
C120 N119 1.325 . S
C120 C124 1.416 . S
C121 C122 1.430 . S
C121 C123 1.404 . S
C121 C150 1.387 . S
C122 C114 1.448 . S
C122 N119 1.351 . S
C122 C121 1.430 . S
C123 H112 0.930 . S
C123 C121 1.404 . S
C123 C124 1.366 . S
C124 H103 0.930 . S
C124 C120 1.416 . S
C124 C123 1.366 . S
H125 C118 0.929 . S
H126 C149 0.931 . S
H127 C150 0.931 . S
O128 Eu84 2.462 1_465 S
O128 C148 1.252 . S
O129 Eu84 2.373 . S
O129 C140 1.249 . S
O130 Eu95 2.335 1_655 S
O130 C140 1.264 . S
O131 Eu84 2.432 1_465 S
O131 C148 1.268 . S
O132 Eu84 2.291 . S
O132 C147 1.255 1_655 S
O133 Eu95 2.372 . S
O133 C147 1.257 . S
O134 Eu95 2.462 . S
O134 C159 1.252 . S
O135 Eu95 2.373 . S
O135 C151 1.249 . S
O136 Eu84 2.335 1_455 S
O136 C151 1.264 . S
O137 Eu95 2.432 . S
O137 C159 1.268 . S
O138 Eu95 2.291 . S
O138 C158 1.255 . S
O139 Eu84 2.372 1_455 S
O139 C158 1.257 . S
C140 O129 1.249 . S
C140 O130 1.264 . S
C141 C144 1.382 . S
C141 C146 1.390 . S
C141 C148 1.506 . S
C142 C143 1.398 . S
C142 C146 1.392 . S
C143 C142 1.398 . S
C143 C145 1.372 . S
C143 H160 0.931 . S
C144 C141 1.382 . S
C144 C145 1.390 . S
C144 H161 0.931 . S
C145 C143 1.372 . S
C145 C144 1.390 . S
C145 H162 0.929 . S
C146 C141 1.390 . S
C146 C142 1.392 . S
C146 H163 0.930 . S
C147 O132 1.255 1_455 S
C147 O133 1.257 . S
C148 Eu84 2.787 1_465 S
C148 O128 1.252 . S
C148 O131 1.268 . S
C148 C141 1.506 . S
C149 C116 1.439 . S
C149 H126 0.931 . S
C149 C150 1.374 . S
C150 C121 1.387 . S
C150 H127 0.931 . S
C150 C149 1.374 . S
C151 O135 1.249 . S
C151 O136 1.264 . S
C152 C155 1.382 . S
C152 C156 1.390 1_455 S
C152 C159 1.506 . S
C153 C154 1.398 . S
C153 C156 1.392 . S
C154 C153 1.398 . S
C154 C157 1.372 1_655 S
C154 H164 0.931 . S
C155 C152 1.382 . S
C155 C157 1.390 . S
C155 H165 0.931 . S
C156 C152 1.390 1_655 S
C156 C153 1.392 . S
C156 H166 0.930 . S
C157 C154 1.372 1_455 S
C157 C155 1.390 . S
C157 H167 0.932 . S
C158 O138 1.255 . S
C158 O139 1.257 . S
C159 Eu95 2.787 . S
C159 O134 1.252 . S
C159 O137 1.268 . S
C159 C152 1.506 . S
H160 C143 0.931 . S
H161 C144 0.931 . S
H162 C145 0.929 . S
H163 C146 0.930 . S
H164 C154 0.931 . S
H165 C155 0.931 . S
H166 C156 0.930 . S
H167 C157 0.932 . S
Eu168 N197 2.600 . S
Eu168 N203 2.562 . S
Eu168 O212 2.462 . S
Eu168 O213 2.373 1_455 S
Eu168 O215 2.432 . S
Eu168 O216 2.291 . S
Eu168 O220 2.335 . S
Eu168 O223 2.372 . S
Eu168 C232 2.787 . S
C169 N170 1.365 . S
C169 C172 1.405 . S
C169 C176 1.448 . S
N170 C169 1.365 . S
N170 C173 1.319 . S
N170 Eu179 2.600 . S
C171 C173 1.397 . S
C171 C174 1.367 . S
C171 H191 0.931 . S
C172 C169 1.405 . S
C172 C174 1.403 . S
C172 C178 1.439 . S
C173 N170 1.319 . S
C173 C171 1.397 . S
C173 H184 0.930 . S
C174 C171 1.367 . S
C174 C172 1.403 . S
C174 H195 0.929 . S
C175 C176 1.430 . S
C175 C177 1.387 . S
C175 C181 1.404 . S
C176 C169 1.448 . S
C176 C175 1.430 . S
C176 N180 1.351 . S
C177 C175 1.387 . S
C177 C178 1.374 . S
C177 H192 0.931 . S
C178 C172 1.439 . S
C178 C177 1.374 . S
C178 H193 0.931 . S
Eu179 N170 2.600 . S
Eu179 N180 2.562 . S
Eu179 O214 2.335 1_455 S
Eu179 O217 2.372 . S
Eu179 O218 2.462 1_455 S
Eu179 O219 2.373 . S
Eu179 O221 2.432 1_455 S
Eu179 O222 2.291 . S
Eu179 C243 2.787 1_455 S
N180 C176 1.351 . S
N180 Eu179 2.562 . S
N180 C182 1.325 . S
C181 C175 1.404 . S
C181 C183 1.366 . S
C181 H189 0.930 . S
C182 N180 1.325 . S
C182 C183 1.416 . S
C182 H188 0.929 . S
C183 C181 1.366 . S
C183 C182 1.416 . S
C183 H185 0.930 . S
H184 C173 0.930 . S
H185 C183 0.930 . S
H186 C201 0.930 . S
H187 C208 0.930 . S
H188 C182 0.929 . S
H189 C181 0.930 . S
H190 C204 0.929 . S
H191 C171 0.931 . S
H192 C177 0.931 . S
H193 C178 0.931 . S
H194 C199 0.931 . S
H195 C174 0.929 . S
H196 C207 0.930 . S
N197 Eu168 2.600 . S
N197 C198 1.365 . S
N197 C201 1.319 . S
C198 N197 1.365 . S
C198 C200 1.405 . S
C198 C206 1.448 . S
C199 H194 0.931 . S
C199 C201 1.397 . S
C199 C202 1.367 . S
C200 C198 1.405 . S
C200 C202 1.403 . S
C200 C233 1.439 1_455 S
C201 H186 0.930 . S
C201 N197 1.319 . S
C201 C199 1.397 . S
C202 C199 1.367 . S
C202 C200 1.403 . S
C202 H209 0.929 . S
N203 Eu168 2.562 . S
N203 C204 1.325 . S
N203 C206 1.351 . S
C204 H190 0.929 . S
C204 N203 1.325 . S
C204 C208 1.416 1_455 S
C205 C206 1.430 1_655 S
C205 C207 1.404 . S
C205 C234 1.387 . S
C206 C198 1.448 . S
C206 N203 1.351 . S
C206 C205 1.430 1_455 S
C207 H196 0.930 . S
C207 C205 1.404 . S
C207 C208 1.366 . S
C208 H187 0.930 . S
C208 C204 1.416 1_655 S
C208 C207 1.366 . S
H209 C202 0.929 . S
H210 C233 0.931 . S
H211 C234 0.931 . S
O212 Eu168 2.462 . S
O212 C232 1.252 . S
O213 Eu168 2.373 1_655 S
O213 C224 1.249 . S
O214 Eu179 2.335 1_655 S
O214 C224 1.264 1_565 S
O215 Eu168 2.432 . S
O215 C232 1.268 . S
O216 Eu168 2.291 . S
O216 C231 1.255 . S
O217 Eu179 2.372 . S
O217 C231 1.257 1_565 S
O218 Eu179 2.462 1_655 S
O218 C243 1.252 . S
O219 Eu179 2.373 . S
O219 C235 1.249 1_565 S
O220 Eu168 2.335 . S
O220 C235 1.264 . S
O221 Eu179 2.432 1_655 S
O221 C243 1.268 . S
O222 Eu179 2.291 . S
O222 C242 1.255 1_565 S
O223 Eu168 2.372 . S
O223 C242 1.257 . S
C224 O213 1.249 . S
C224 O214 1.264 1_545 S
C225 C228 1.382 . S
C225 C230 1.390 . S
C225 C232 1.506 . S
C226 C227 1.398 . S
C226 C230 1.392 . S
C227 C226 1.398 . S
C227 C229 1.372 . S
C227 H244 0.931 . S
C228 C225 1.382 . S
C228 C229 1.390 . S
C228 H245 0.931 . S
C229 C227 1.372 . S
C229 C228 1.390 . S
C229 H246 0.929 . S
C230 C225 1.390 . S
C230 C226 1.392 . S
C230 H247 0.930 . S
C231 O216 1.255 . S
C231 O217 1.257 1_545 S
C232 Eu168 2.787 . S
C232 O212 1.252 . S
C232 O215 1.268 . S
C232 C225 1.506 . S
C233 C200 1.439 1_655 S
C233 H210 0.931 . S
C233 C234 1.374 . S
C234 C205 1.387 . S
C234 H211 0.931 . S
C234 C233 1.374 . S
C235 O219 1.249 1_545 S
C235 O220 1.264 . S
C236 C239 1.382 . S
C236 C240 1.390 . S
C236 C243 1.506 . S
C237 C238 1.398 . S
C237 C240 1.392 . S
C238 C237 1.398 . S
C238 C241 1.372 . S
C238 H248 0.931 . S
C239 C236 1.382 . S
C239 C241 1.390 . S
C239 H249 0.931 . S
C240 C236 1.390 . S
C240 C237 1.392 . S
C240 H250 0.930 . S
C241 C238 1.372 . S
C241 C239 1.390 . S
C241 H251 0.929 . S
C242 O222 1.255 1_545 S
C242 O223 1.257 . S
C243 Eu179 2.787 1_655 S
C243 O218 1.252 . S
C243 O221 1.268 . S
C243 C236 1.506 . S
H244 C227 0.931 . S
H245 C228 0.931 . S
H246 C229 0.929 . S
H247 C230 0.930 . S
H248 C238 0.931 . S
H249 C239 0.931 . S
H250 C240 0.930 . S
H251 C241 0.929 . S
H252 C260 0.950 . S
H253 C265 0.950 . S
H254 C262 0.950 . S
H255 C264 0.950 . S
H256 C266 0.950 . S
H257 C268 0.950 . S
H258 C270 0.950 1_556 S
H259 C271 0.942 1_556 S
C260 H252 0.950 . S
C260 C261 1.386 . S
C260 C262 1.391 . S
C261 C260 1.386 . S
C261 C265 1.393 1_655 S
C262 H254 0.950 . S
C262 C260 1.391 . S
C262 C263 1.394 1_655 S
C263 C262 1.394 1_455 S
C263 C264 1.406 . S
C263 C269 1.489 . S
C264 H255 0.950 . S
C264 C263 1.406 . S
C264 C265 1.391 . S
C265 H253 0.950 . S
C265 C261 1.393 1_455 S
C265 C264 1.391 . S
C266 H256 0.950 . S
C266 C267 1.386 . S
C266 C268 1.391 . S
C267 C266 1.386 . S
C267 C271 1.387 1_455 S
C268 H257 0.950 . S
C268 C266 1.391 . S
C268 C269 1.400 . S
C269 C263 1.489 . S
C269 C268 1.400 . S
C269 C270 1.398 1_455 S
C270 H258 0.950 1_554 S
C270 C269 1.398 1_655 S
C270 C271 1.406 . S
C271 H259 0.942 1_554 S
C271 C267 1.387 1_655 S
C271 C270 1.406 . S
H272 C280 0.950 . S
H273 C285 0.950 . S
H274 C282 0.950 . S
H275 C284 0.950 . S
H276 C286 0.950 . S
H277 C288 0.950 . S
H278 C290 0.950 . S
H279 C291 0.950 . S
C280 H272 0.950 . S
C280 C281 1.386 . S
C280 C282 1.391 . S
C281 C280 1.386 . S
C281 C285 1.393 . S
C282 H274 0.950 . S
C282 C280 1.391 . S
C282 C283 1.400 . S
C283 C282 1.400 . S
C283 C284 1.398 . S
C283 C289 1.491 . S
C284 H275 0.950 . S
C284 C283 1.398 . S
C284 C285 1.391 . S
C285 H273 0.950 . S
C285 C281 1.393 . S
C285 C284 1.391 . S
C286 H276 0.950 . S
C286 C287 1.386 . S
C286 C288 1.391 . S
C287 C286 1.386 . S
C287 C291 1.393 . S
C288 H277 0.950 . S
C288 C286 1.391 . S
C288 C289 1.400 . S
C289 C283 1.491 . S
C289 C288 1.400 . S
C289 C290 1.398 . S
C290 H278 0.950 . S
C290 C289 1.398 . S
C290 C291 1.391 . S
C291 H279 0.950 . S
C291 C287 1.393 . S
C291 C290 1.391 . S
H292 C300 0.950 . S
H293 C305 0.950 . S
H294 C302 0.950 . S
H295 C304 0.950 . S
H296 C306 0.950 . S
H297 C308 0.950 . S
H298 C310 0.950 . S
H299 C311 0.950 . S
C300 H292 0.950 . S
C300 C301 1.386 . S
C300 C302 1.391 . S
C301 C300 1.386 . S
C301 C305 1.393 . S
C302 H294 0.950 . S
C302 C300 1.391 . S
C302 C303 1.400 . S
C303 C302 1.400 . S
C303 C304 1.398 . S
C303 C309 1.491 . S
C304 H295 0.950 . S
C304 C303 1.398 . S
C304 C305 1.391 . S
C305 H293 0.950 . S
C305 C301 1.393 . S
C305 C304 1.391 . S
C306 H296 0.950 . S
C306 C307 1.386 . S
C306 C308 1.391 . S
C307 C306 1.386 . S
C307 C311 1.393 . S
C308 H297 0.950 . S
C308 C306 1.391 . S
C308 C309 1.400 . S
C309 C303 1.491 . S
C309 C308 1.400 . S
C309 C310 1.398 . S
C310 H298 0.950 . S
C310 C309 1.398 . S
C310 C311 1.391 . S
C311 H299 0.950 . S
C311 C307 1.393 . S
C311 C310 1.391 . S
H312 C320 0.950 . S
H313 C325 0.950 . S
H314 C322 0.950 . S
H315 C324 0.950 . S
H316 C326 0.950 . S
H317 C328 0.950 . S
H318 C330 0.950 . S
H319 C331 0.950 . S
C320 H312 0.950 . S
C320 C321 1.386 . S
C320 C322 1.391 . S
C321 C320 1.386 . S
C321 C325 1.393 1_545 S
C322 H314 0.950 . S
C322 C320 1.391 . S
C322 C323 1.400 . S
C323 C322 1.400 . S
C323 C324 1.398 1_545 S
C323 C329 1.491 . S
C324 H315 0.950 . S
C324 C323 1.398 1_565 S
C324 C325 1.391 . S
C325 H313 0.950 . S
C325 C321 1.393 1_565 S
C325 C324 1.391 . S
C326 H316 0.950 . S
C326 C327 1.386 1_565 S
C326 C328 1.391 . S
C327 C326 1.386 1_545 S
C327 C331 1.393 . S
C328 H317 0.950 . S
C328 C326 1.391 . S
C328 C329 1.400 1_565 S
C329 C323 1.491 . S
C329 C328 1.400 1_545 S
C329 C330 1.398 . S
C330 H318 0.950 . S
C330 C329 1.398 . S
C330 C331 1.391 . S
C331 H319 0.950 . S
C331 C327 1.393 . S
C331 C330 1.391 . S
H332 C340 0.950 . S
H333 C345 0.950 . S
H334 C342 0.950 . S
H335 C344 0.950 . S
H336 C346 0.950 . S
H337 C348 0.950 . S
H338 C350 0.950 . S
H339 C351 0.950 . S
C340 H332 0.950 . S
C340 C341 1.386 . S
C340 C342 1.391 . S
C341 C340 1.386 . S
C341 C345 1.393 1_554 S
C342 H334 0.950 . S
C342 C340 1.391 . S
C342 C343 1.400 . S
C343 C342 1.400 . S
C343 C344 1.398 1_554 S
C343 C349 1.491 . S
C344 H335 0.950 . S
C344 C343 1.398 1_556 S
C344 C345 1.391 . S
C345 H333 0.950 . S
C345 C341 1.393 1_556 S
C345 C344 1.391 . S
C346 H336 0.950 . S
C346 C347 1.401 . S
C346 C348 1.391 . S
C347 C346 1.401 . S
C347 C351 1.382 1_556 S
C348 H337 0.950 . S
C348 C346 1.391 . S
C348 C349 1.400 1_556 S
C349 C343 1.491 . S
C349 C348 1.400 1_554 S
C349 C350 1.398 . S
C350 H338 0.950 . S
C350 C349 1.398 . S
C350 C351 1.391 . S
C351 H339 0.950 . S
C351 C347 1.382 1_554 S
C351 C350 1.391 . S
H352 C360 0.950 . S
H353 C365 0.950 . S
H354 C362 0.950 . S
H355 C364 0.950 . S
H356 C366 0.950 . S
H357 C368 0.950 . S
H358 C370 0.950 . S
H359 C371 0.950 . S
C360 H352 0.950 . S
C360 C361 1.386 . S
C360 C362 1.391 1_655 S
C361 C360 1.386 . S
C361 C365 1.393 . S
C362 H354 0.950 . S
C362 C360 1.391 1_455 S
C362 C363 1.400 . S
C363 C362 1.400 . S
C363 C364 1.398 1_455 S
C363 C369 1.491 . S
C364 H355 0.950 . S
C364 C363 1.398 1_655 S
C364 C365 1.391 . S
C365 H353 0.950 . S
C365 C361 1.393 . S
C365 C364 1.391 . S
C366 H356 0.950 . S
C366 C367 1.386 . S
C366 C368 1.391 . S
C367 C366 1.386 . S
C367 C371 1.393 . S
C368 H357 0.950 . S
C368 C366 1.391 . S
C368 C369 1.400 . S
C369 C363 1.491 . S
C369 C368 1.400 . S
C369 C370 1.398 . S
C370 H358 0.950 . S
C370 C369 1.398 . S
C370 C371 1.391 . S
C371 H359 0.950 . S
C371 C367 1.393 . S
C371 C370 1.391 . S
H372 C380 0.950 . S
H373 C385 0.950 . S
H374 C382 0.950 . S
H375 C384 0.950 . S
H376 C386 0.950 . S
H377 C388 0.950 . S
H378 C390 0.950 . S
H379 C391 0.950 . S
C380 H372 0.950 . S
C380 C381 1.386 . S
C380 C382 1.391 . S
C381 C380 1.386 . S
C381 C385 1.393 1_455 S
C382 H374 0.950 . S
C382 C380 1.391 . S
C382 C383 1.400 . S
C383 C382 1.400 . S
C383 C384 1.398 1_455 S
C383 C389 1.491 1_455 S
C384 H375 0.950 . S
C384 C383 1.398 1_655 S
C384 C385 1.391 . S
C385 H373 0.950 . S
C385 C381 1.393 1_655 S
C385 C384 1.391 . S
C386 H376 0.950 . S
C386 C387 1.386 . S
C386 C388 1.391 . S
C387 C386 1.386 . S
C387 C391 1.393 1_655 S
C388 H377 0.950 . S
C388 C386 1.391 . S
C388 C389 1.400 . S
C389 C383 1.491 1_655 S
C389 C388 1.400 . S
C389 C390 1.398 1_655 S
C390 H378 0.950 . S
C390 C389 1.398 1_455 S
C390 C391 1.391 . S
C391 H379 0.950 . S
C391 C387 1.393 1_455 S
C391 C390 1.391 . S
H392 C400 0.950 1_655 S
H393 C405 0.950 . S
H394 C402 0.950 1_665 S
H395 C404 0.950 . S
H396 C406 0.950 . S
H397 C408 0.950 . S
H398 C410 0.950 1_655 S
H399 C411 0.950 . S
C400 H392 0.950 1_455 S
C400 C401 1.386 . S
C400 C402 1.391 . S
C401 C400 1.386 . S
C401 C405 1.393 . S
C402 H394 0.950 1_445 S
C402 C400 1.391 . S
C402 C403 1.400 . S
C403 C402 1.400 . S
C403 C404 1.398 . S
C403 C409 1.491 . S
C404 H395 0.950 . S
C404 C403 1.398 . S
C404 C405 1.391 . S
C405 H393 0.950 . S
C405 C401 1.393 . S
C405 C404 1.391 . S
C406 H396 0.950 . S
C406 C407 1.386 . S
C406 C408 1.391 . S
C407 C406 1.386 . S
C407 C411 1.393 1_545 S
C408 H397 0.950 . S
C408 C406 1.391 . S
C408 C409 1.400 . S
C409 C403 1.491 . S
C409 C408 1.400 . S
C409 C410 1.398 1_545 S
C410 H398 0.950 1_455 S
C410 C409 1.398 1_565 S
C410 C411 1.391 . S
C411 H399 0.950 . S
C411 C407 1.393 1_565 S
C411 C410 1.391 . S
H412 C420 0.950 1_655 S
H413 C425 0.950 . S
H414 C422 0.950 1_655 S
H415 C424 0.950 . S
H416 C426 0.950 . S
H417 C428 0.950 . S
H418 C430 0.950 1_565 S
H419 C431 0.950 1_565 S
C420 H412 0.950 1_455 S
C420 C421 1.386 1_565 S
C420 C422 1.391 . S
C421 C420 1.386 1_545 S
C421 C425 1.393 . S
C422 H414 0.950 1_455 S
C422 C420 1.391 . S
C422 C423 1.400 1_565 S
C423 C422 1.400 1_545 S
C423 C424 1.398 . S
C423 C429 1.491 . S
C424 H415 0.950 . S
C424 C423 1.398 . S
C424 C425 1.391 . S
C425 H413 0.950 . S
C425 C421 1.393 . S
C425 C424 1.391 . S
C426 H416 0.950 . S
C426 C427 1.386 . S
C426 C428 1.391 . S
C427 C426 1.386 . S
C427 C431 1.393 1_455 S
C428 H417 0.950 . S
C428 C426 1.391 . S
C428 C429 1.400 . S
C429 C423 1.491 . S
C429 C428 1.400 . S
C429 C430 1.398 1_455 S
C430 H418 0.950 1_545 S
C430 C429 1.398 1_655 S
C430 C431 1.391 . S
C431 H419 0.950 1_545 S
C431 C427 1.393 1_655 S
C431 C430 1.391 . S
C261 C56 4.286 . S
C267 C67 4.286 . S
C281 C151 2.602 . S
C287 C140 2.602 . S
C301 C237 0.684 . S
C307 C226 0.684 . S
C321 C224 2.575 . S
C327 C235 2.575 . S
C341 C58 0.777 . S
C347 C69 0.761 1_556 S
C361 C153 1.218 . S
C367 C142 1.218 . S
C381 C158 1.516 . S
C387 C63 1.524 . S
C401 C147 1.604 . S
C407 C231 1.570 . S
C421 C242 1.572 . S
C427 C74 1.580 . S
