# Generated by pormake.
# Topology lcs, (4)-cn, num edge types: 1
# Building blocks:
#     Node 0, Type 0, BuildingBlock: GALJAG_clean_sbu_0, # of connection points: 4
#     Node 1, Type 0, BuildingBlock: GALJAG_clean_sbu_0, # of connection points: 4
#     Node 2, Type 0, BuildingBlock: GALJAG_clean_sbu_0, # of connection points: 4
#     Node 3, Type 0, BuildingBlock: GALJAG_clean_sbu_0, # of connection points: 4
#     Node 4, Type 0, BuildingBlock: GALJAG_clean_sbu_0, # of connection points: 4
#     Node 5, Type 0, BuildingBlock: GALJAG_clean_sbu_0, # of connection points: 4
#     Node 6, Type 0, BuildingBlock: GALJAG_clean_sbu_0, # of connection points: 4
#     Node 7, Type 0, BuildingBlock: GALJAG_clean_sbu_0, # of connection points: 4
#     Node 8, Type 0, BuildingBlock: GALJAG_clean_sbu_0, # of connection points: 4
#     Node 9, Type 0, BuildingBlock: GALJAG_clean_sbu_0, # of connection points: 4
#     Node 10, Type 0, BuildingBlock: GALJAG_clean_sbu_0, # of connection points: 4
#     Node 11, Type 0, BuildingBlock: GALJAG_clean_sbu_0, # of connection points: 4
#     Node 12, Type 0, BuildingBlock: GALJAG_clean_sbu_0, # of connection points: 4
#     Node 13, Type 0, BuildingBlock: GALJAG_clean_sbu_0, # of connection points: 4
#     Node 14, Type 0, BuildingBlock: GALJAG_clean_sbu_0, # of connection points: 4
#     Node 15, Type 0, BuildingBlock: GALJAG_clean_sbu_0, # of connection points: 4
#     Node 16, Type 0, BuildingBlock: GALJAG_clean_sbu_0, # of connection points: 4
#     Node 17, Type 0, BuildingBlock: GALJAG_clean_sbu_0, # of connection points: 4
#     Node 18, Type 0, BuildingBlock: GALJAG_clean_sbu_0, # of connection points: 4
#     Node 19, Type 0, BuildingBlock: GALJAG_clean_sbu_0, # of connection points: 4
#     Node 20, Type 0, BuildingBlock: GALJAG_clean_sbu_0, # of connection points: 4
#     Node 21, Type 0, BuildingBlock: GALJAG_clean_sbu_0, # of connection points: 4
#     Node 22, Type 0, BuildingBlock: GALJAG_clean_sbu_0, # of connection points: 4
#     Node 23, Type 0, BuildingBlock: GALJAG_clean_sbu_0, # of connection points: 4
#     Edge 24, Type (0, 0), BuildingBlock: MIFKUJ_clean_linker_0, # of connection points: 2
#     Edge 25, Type (0, 0), BuildingBlock: MIFKUJ_clean_linker_0, # of connection points: 2
#     Edge 26, Type (0, 0), BuildingBlock: MIFKUJ_clean_linker_0, # of connection points: 2
#     Edge 27, Type (0, 0), BuildingBlock: MIFKUJ_clean_linker_0, # of connection points: 2
#     Edge 28, Type (0, 0), BuildingBlock: MIFKUJ_clean_linker_0, # of connection points: 2
#     Edge 29, Type (0, 0), BuildingBlock: MIFKUJ_clean_linker_0, # of connection points: 2
#     Edge 30, Type (0, 0), BuildingBlock: MIFKUJ_clean_linker_0, # of connection points: 2
#     Edge 31, Type (0, 0), BuildingBlock: MIFKUJ_clean_linker_0, # of connection points: 2
#     Edge 32, Type (0, 0), BuildingBlock: MIFKUJ_clean_linker_0, # of connection points: 2
#     Edge 33, Type (0, 0), BuildingBlock: MIFKUJ_clean_linker_0, # of connection points: 2
#     Edge 34, Type (0, 0), BuildingBlock: MIFKUJ_clean_linker_0, # of connection points: 2
#     Edge 35, Type (0, 0), BuildingBlock: MIFKUJ_clean_linker_0, # of connection points: 2
#     Edge 36, Type (0, 0), BuildingBlock: MIFKUJ_clean_linker_0, # of connection points: 2
#     Edge 37, Type (0, 0), BuildingBlock: MIFKUJ_clean_linker_0, # of connection points: 2
#     Edge 38, Type (0, 0), BuildingBlock: MIFKUJ_clean_linker_0, # of connection points: 2
#     Edge 39, Type (0, 0), BuildingBlock: MIFKUJ_clean_linker_0, # of connection points: 2
#     Edge 40, Type (0, 0), BuildingBlock: MIFKUJ_clean_linker_0, # of connection points: 2
#     Edge 41, Type (0, 0), BuildingBlock: MIFKUJ_clean_linker_0, # of connection points: 2
#     Edge 42, Type (0, 0), BuildingBlock: MIFKUJ_clean_linker_0, # of connection points: 2
#     Edge 43, Type (0, 0), BuildingBlock: MIFKUJ_clean_linker_0, # of connection points: 2
#     Edge 44, Type (0, 0), BuildingBlock: MIFKUJ_clean_linker_0, # of connection points: 2
#     Edge 45, Type (0, 0), BuildingBlock: MIFKUJ_clean_linker_0, # of connection points: 2
#     Edge 46, Type (0, 0), BuildingBlock: MIFKUJ_clean_linker_0, # of connection points: 2
#     Edge 47, Type (0, 0), BuildingBlock: MIFKUJ_clean_linker_0, # of connection points: 2
#     Edge 48, Type (0, 0), BuildingBlock: MIFKUJ_clean_linker_0, # of connection points: 2
#     Edge 49, Type (0, 0), BuildingBlock: MIFKUJ_clean_linker_0, # of connection points: 2
#     Edge 50, Type (0, 0), BuildingBlock: MIFKUJ_clean_linker_0, # of connection points: 2
#     Edge 51, Type (0, 0), BuildingBlock: MIFKUJ_clean_linker_0, # of connection points: 2
#     Edge 52, Type (0, 0), BuildingBlock: MIFKUJ_clean_linker_0, # of connection points: 2
#     Edge 53, Type (0, 0), BuildingBlock: MIFKUJ_clean_linker_0, # of connection points: 2
#     Edge 54, Type (0, 0), BuildingBlock: MIFKUJ_clean_linker_0, # of connection points: 2
#     Edge 55, Type (0, 0), BuildingBlock: MIFKUJ_clean_linker_0, # of connection points: 2
#     Edge 56, Type (0, 0), BuildingBlock: MIFKUJ_clean_linker_0, # of connection points: 2
#     Edge 57, Type (0, 0), BuildingBlock: MIFKUJ_clean_linker_0, # of connection points: 2
#     Edge 58, Type (0, 0), BuildingBlock: MIFKUJ_clean_linker_0, # of connection points: 2
#     Edge 59, Type (0, 0), BuildingBlock: MIFKUJ_clean_linker_0, # of connection points: 2
#     Edge 60, Type (0, 0), BuildingBlock: MIFKUJ_clean_linker_0, # of connection points: 2
#     Edge 61, Type (0, 0), BuildingBlock: MIFKUJ_clean_linker_0, # of connection points: 2
#     Edge 62, Type (0, 0), BuildingBlock: MIFKUJ_clean_linker_0, # of connection points: 2
#     Edge 63, Type (0, 0), BuildingBlock: MIFKUJ_clean_linker_0, # of connection points: 2
#     Edge 64, Type (0, 0), BuildingBlock: MIFKUJ_clean_linker_0, # of connection points: 2
#     Edge 65, Type (0, 0), BuildingBlock: MIFKUJ_clean_linker_0, # of connection points: 2
#     Edge 66, Type (0, 0), BuildingBlock: MIFKUJ_clean_linker_0, # of connection points: 2
#     Edge 67, Type (0, 0), BuildingBlock: MIFKUJ_clean_linker_0, # of connection points: 2
#     Edge 68, Type (0, 0), BuildingBlock: MIFKUJ_clean_linker_0, # of connection points: 2
#     Edge 69, Type (0, 0), BuildingBlock: MIFKUJ_clean_linker_0, # of connection points: 2
#     Edge 70, Type (0, 0), BuildingBlock: MIFKUJ_clean_linker_0, # of connection points: 2
#     Edge 71, Type (0, 0), BuildingBlock: MIFKUJ_clean_linker_0, # of connection points: 2
# Relax obj value: 0.033
# Max RMSD: 0.061
# Mean RMSD: 0.060
data_MOF--net-lcs--node1-GALJAG_clean_sbu_0--edge1-MIFKUJ_clean_linker_0
_symmetry_space_group_name_H-M    P1
_symmetry_Int_Tables_number       1
_symmetry_cell_setting            triclinic
loop_
_symmetry_equiv_pos_as_xyz
'x, y, z'
_cell_length_a     64.401047
_cell_length_b     64.410223
_cell_length_c     64.406195
_cell_angle_alpha  90.110069
_cell_angle_beta   90.123769
_cell_angle_gamma 90.11744
loop_
_atom_site_label
_atom_site_type_symbol
_atom_site_fract_x
_atom_site_fract_y
_atom_site_fract_z
_atom_type_partial_charge
In0 In 1.00043 0.25074 0.37658 0.0
O1 O 0.01766 0.24023 0.40584 0.0
O2 O 0.03389 0.2394 0.37716 0.0
C3 C 0.96588 0.26556 0.39525 0.0
C4 C 0.01423 0.28559 0.35772 0.0
C5 C 0.98836 0.21542 0.35717 0.0
O6 O 0.98233 0.26168 0.40517 0.0
O7 O 0.96693 0.26207 0.37601 0.0
O8 O 0.9977 0.22988 0.34783 0.0
O9 O 0.98518 0.21878 0.37619 0.0
C10 C 0.0344 0.23625 0.39648 0.0
O11 O 0.00326 0.27224 0.34841 0.0
O12 O 0.01802 0.28145 0.37646 0.0
In13 In 0.003 0.75242 0.627 0.0
O14 O 0.02002 0.74274 0.5973 0.0
O15 O 0.03397 0.73553 0.62633 0.0
C16 C 0.97007 0.76909 0.60685 0.0
C17 C 0.98865 0.71792 0.64588 0.0
C18 C 0.01791 0.78569 0.64822 0.0
O19 O 0.98817 0.76944 0.5994 0.0
O20 O 0.96867 0.76045 0.62432 0.0
O21 O 0.00349 0.77443 0.65519 0.0
O22 O 0.02469 0.78016 0.63076 0.0
C23 C 0.0352 0.73474 0.6068 0.0
O24 O 0.9992 0.7315 0.65541 0.0
O25 O 0.9855 0.72172 0.62691 0.0
In26 In 0.50216 0.75247 0.87756 0.0
O27 O 0.51837 0.7369 0.90509 0.0
O28 O 0.53703 0.75382 0.8839 0.0
C29 C 0.46851 0.76305 0.90034 0.0
C30 C 0.51196 0.78626 0.85466 0.0
C31 C 0.49204 0.71817 0.85534 0.0
O32 O 0.48676 0.76802 0.90555 0.0
O33 O 0.46729 0.75247 0.88389 0.0
O34 O 0.48735 0.73624 0.84945 0.0
O35 O 0.50203 0.71749 0.87217 0.0
C36 C 0.53635 0.7428 0.90004 0.0
O37 O 0.51754 0.76816 0.8496 0.0
O38 O 0.50124 0.7872 0.87098 0.0
In39 In 0.50197 0.25023 0.12953 0.0
O40 O 0.51537 0.23051 0.10288 0.0
O41 O 0.53643 0.24602 0.12292 0.0
C42 C 0.46983 0.26622 0.10788 0.0
C43 C 0.48758 0.21868 0.15364 0.0
C44 C 0.51599 0.28551 0.14744 0.0
O45 O 0.48274 0.2539 0.09973 0.0
O46 O 0.4732 0.27036 0.12674 0.0
O47 O 0.50939 0.27037 0.15805 0.0
O48 O 0.51549 0.28273 0.12805 0.0
C49 C 0.53406 0.23427 0.10746 0.0
O50 O 0.50591 0.22541 0.15505 0.0
O51 O 0.47659 0.22809 0.14056 0.0
In52 In 1.00044 0.75079 0.12463 0.0
O53 O 0.00548 0.73028 0.15317 0.0
O54 O 0.01701 0.71956 0.12421 0.0
C55 C 0.9861 0.78553 0.14323 0.0
C56 C 0.03569 0.76569 0.1076 0.0
C57 C 0.96612 0.73685 0.1046 0.0
O58 O 0.9921 0.76991 0.1534 0.0
O59 O 0.98723 0.78355 0.12379 0.0
O60 O 0.98126 0.74492 0.09515 0.0
O61 O 0.96838 0.73577 0.124 0.0
C62 C 0.01492 0.71619 0.14337 0.0
O63 O 0.02156 0.75723 0.09689 0.0
O64 O 0.03206 0.76651 0.12683 0.0
In65 In 0.50103 0.75096 0.37778 0.0
O66 O 0.482 0.74615 0.40739 0.0
O67 O 0.46825 0.73778 0.3785 0.0
C68 C 0.53444 0.76529 0.39933 0.0
C69 C 0.51628 0.71748 0.35725 0.0
C70 C 0.48474 0.78299 0.35625 0.0
O71 O 0.52516 0.74875 0.40416 0.0
O72 O 0.52679 0.77453 0.38393 0.0
O73 O 0.49296 0.76755 0.34734 0.0
O74 O 0.48465 0.78209 0.37582 0.0
C75 C 0.46637 0.73883 0.39797 0.0
O76 O 0.51943 0.73582 0.35118 0.0
O77 O 0.50539 0.71611 0.37339 0.0
In78 In 0.50134 0.25228 0.62526 0.0
O79 O 0.51598 0.23573 0.65297 0.0
O80 O 0.50747 0.21746 0.62672 0.0
C81 C 0.48817 0.28646 0.64618 0.0
C82 C 0.53662 0.26208 0.60488 0.0
C83 C 0.46688 0.2402 0.60435 0.0
O84 O 0.48431 0.26827 0.65218 0.0
O85 O 0.49884 0.28744 0.62989 0.0
O86 O 0.48181 0.24927 0.59547 0.0
O87 O 0.46943 0.23729 0.62353 0.0
C88 C 0.51526 0.21794 0.64471 0.0
O89 O 0.51912 0.26182 0.59597 0.0
O90 O 0.53624 0.25731 0.62386 0.0
In91 In 0.00123 0.2532 0.87741 0.0
O92 O 0.97867 0.25288 0.90497 0.0
O93 O 0.97834 0.22707 0.88449 0.0
C94 C 0.03226 0.27021 0.90027 0.0
C95 C 0.01864 0.22269 0.85437 0.0
C96 C 0.98376 0.28379 0.85448 0.0
O97 O 0.02385 0.25314 0.90496 0.0
O98 O 0.02476 0.2788 0.88437 0.0
O99 O 0.99989 0.27431 0.84873 0.0
O100 O 0.97638 0.27763 0.87149 0.0
C101 C 0.97066 0.23558 0.90033 0.0
O102 O 0.00088 0.22994 0.85038 0.0
O103 O 0.02765 0.23106 0.86965 0.0
In104 In 0.37624 0.00135 0.25492 0.0
O105 O 0.34607 0.00977 0.27198 0.0
O106 O 0.37484 0.01694 0.28651 0.0
C107 C 0.35341 0.98632 0.22276 0.0
C108 C 0.3976 0.03509 0.24197 0.0
C109 C 0.3984 0.96803 0.26787 0.0
O110 O 0.35196 0.97906 0.24088 0.0
O111 O 0.36607 0.00111 0.22101 0.0
O112 O 0.40104 0.97599 0.25016 0.0
O113 O 0.38502 0.97706 0.27886 0.0
C114 C 0.35531 0.01733 0.28759 0.0
O115 O 0.40666 0.01918 0.24901 0.0
O116 O 0.37806 0.03388 0.24165 0.0
In117 In 0.25025 0.129 0.50252 0.0
O118 O 0.2332 0.10078 0.51629 0.0
O119 O 0.2454 0.12346 0.53697 0.0
C120 C 0.26401 0.10374 0.47166 0.0
C121 C 0.21912 0.15451 0.49028 0.0
C122 C 0.28309 0.1519 0.51542 0.0
O123 O 0.27585 0.1117 0.48507 0.0
O124 O 0.24508 0.1079 0.47416 0.0
O125 O 0.27029 0.15864 0.50215 0.0
O126 O 0.27927 0.13387 0.52194 0.0
C127 C 0.23569 0.1066 0.53487 0.0
O128 O 0.23491 0.15106 0.47927 0.0
O129 O 0.21938 0.14572 0.50773 0.0
In130 In 0.12744 0.00312 0.75316 0.0
O131 O 0.09886 0.02399 0.75757 0.0
O132 O 0.12747 0.03405 0.77043 0.0
C133 C 0.10863 0.96825 0.73937 0.0
C134 C 0.14558 0.01733 0.71813 0.0
C135 C 0.14746 0.98712 0.78644 0.0
O136 O 0.09929 0.98162 0.75026 0.0
O137 O 0.12739 0.97247 0.73554 0.0
O138 O 0.15684 0.99686 0.77228 0.0
O139 O 0.12813 0.98545 0.78377 0.0
C140 C 0.10849 0.0378 0.76764 0.0
O141 O 0.15587 0.01289 0.73422 0.0
O142 O 0.12624 0.0147 0.71976 0.0
In143 In 0.25276 0.87669 0.00313 0.0
O144 O 0.2345 0.84812 0.01348 0.0
O145 O 0.22019 0.87772 0.01665 0.0
C146 C 0.28653 0.85613 0.98876 0.0
C147 C 0.2387 0.89654 0.96878 0.0
C148 C 0.26539 0.89552 0.03848 0.0
O149 O 0.26865 0.84812 0.98887 0.0
O150 O 0.28732 0.87435 0.99581 0.0
O151 O 0.26016 0.90561 0.0225 0.0
O152 O 0.26424 0.87605 0.03657 0.0
C153 C 0.21873 0.85832 0.0191 0.0
O154 O 0.25128 0.90489 0.98131 0.0
O155 O 0.23336 0.87835 0.97355 0.0
In156 In 0.25373 0.37581 0.00114 0.0
O157 O 0.25041 0.40344 0.02332 0.0
O158 O 0.23304 0.37613 0.02976 0.0
C159 C 0.26915 0.39673 0.96815 0.0
C160 C 0.28727 0.35581 0.01667 0.0
C161 C 0.21985 0.35656 0.9853 0.0
O162 O 0.25805 0.40536 0.98179 0.0
O163 O 0.27248 0.37771 0.97123 0.0
O164 O 0.23311 0.34715 0.99625 0.0
O165 O 0.22383 0.37549 0.9822 0.0
C166 C 0.23765 0.39441 0.03513 0.0
O167 O 0.27506 0.34741 0.00379 0.0
O168 O 0.28246 0.37408 0.02173 0.0
In169 In 0.75214 0.12635 0.00348 0.0
O170 O 0.76234 0.09769 0.02203 0.0
O171 O 0.76107 0.12657 0.03779 0.0
C172 C 0.73763 0.10764 0.96882 0.0
C173 C 0.71668 0.14438 0.01654 0.0
C174 C 0.78665 0.1456 0.9889 0.0
O175 O 0.74524 0.09757 0.98382 0.0
O176 O 0.73741 0.1271 0.97129 0.0
O177 O 0.77131 0.15552 0.99588 0.0
O178 O 0.78457 0.12617 0.98933 0.0
C179 C 0.76493 0.10745 0.03884 0.0
O180 O 0.73349 0.15434 0.01473 0.0
O181 O 0.71776 0.12539 0.01177 0.0
In182 In 0.12551 0.50049 0.25021 0.0
O183 O 0.15512 0.49432 0.23157 0.0
O184 O 0.1273 0.47916 0.22209 0.0
C185 C 0.14563 0.51705 0.28327 0.0
C186 C 0.10475 0.5333 0.23384 0.0
C187 C 0.1064 0.46645 0.26533 0.0
O188 O 0.15462 0.51366 0.26621 0.0
O189 O 0.12666 0.51225 0.28353 0.0
O190 O 0.09749 0.47882 0.253 0.0
O191 O 0.12489 0.47121 0.26988 0.0
C192 C 0.14637 0.48218 0.21882 0.0
O193 O 0.09814 0.52341 0.24934 0.0
O194 O 0.12158 0.5266 0.22663 0.0
In195 In 0.75108 0.87683 0.50396 0.0
O196 O 0.73732 0.90559 0.51993 0.0
O197 O 0.74507 0.87987 0.53881 0.0
C198 C 0.76581 0.89451 0.469 0.0
C199 C 0.78651 0.85934 0.51773 0.0
C200 C 0.71722 0.8557 0.4901 0.0
O201 O 0.75801 0.90499 0.48361 0.0
O202 O 0.7663 0.87516 0.47207 0.0
O203 O 0.73232 0.84674 0.49871 0.0
O204 O 0.71918 0.87507 0.48867 0.0
C205 C 0.73787 0.89799 0.53793 0.0
O206 O 0.76964 0.84936 0.51628 0.0
O207 O 0.7855 0.87814 0.51224 0.0
In208 In 0.8765 0.99971 0.25321 0.0
O209 O 0.85259 0.0226 0.23978 0.0
O210 O 0.86479 0.99958 0.21977 0.0
C211 C 0.8551 0.98325 0.28525 0.0
C212 C 0.89732 0.9665 0.23854 0.0
C213 C 0.90087 0.03091 0.26784 0.0
O214 O 0.84676 0.99541 0.27233 0.0
O215 O 0.87401 0.9795 0.28193 0.0
O216 O 0.90125 0.02519 0.24911 0.0
O217 O 0.88858 0.02071 0.27908 0.0
C218 C 0.85293 0.01495 0.22175 0.0
O219 O 0.90638 0.9834 0.2429 0.0
O220 O 0.87798 0.96649 0.24163 0.0
In221 In 0.25164 0.62443 0.50133 0.0
O222 O 0.26737 0.597 0.51751 0.0
O223 O 0.25535 0.62118 0.53643 0.0
C224 C 0.2393 0.60423 0.46643 0.0
C225 C 0.21671 0.64415 0.51357 0.0
C226 C 0.28605 0.64601 0.49064 0.0
O227 O 0.23704 0.5967 0.48433 0.0
O228 O 0.24799 0.62176 0.46609 0.0
O229 O 0.26815 0.65402 0.49037 0.0
O230 O 0.28652 0.62734 0.4965 0.0
C231 C 0.2646 0.60396 0.53562 0.0
O232 O 0.23372 0.65362 0.51107 0.0
O233 O 0.21738 0.62496 0.50973 0.0
In234 In 0.37776 0.50283 0.75174 0.0
O235 O 0.34723 0.5112 0.73538 0.0
O236 O 0.37489 0.51079 0.71746 0.0
C237 C 0.35777 0.48953 0.78627 0.0
C238 C 0.3967 0.46927 0.73549 0.0
C239 C 0.4005 0.53579 0.76522 0.0
O240 O 0.35115 0.50448 0.77551 0.0
O241 O 0.37431 0.48153 0.77968 0.0
O242 O 0.40543 0.51731 0.76924 0.0
O243 O 0.38433 0.53758 0.75441 0.0
C244 C 0.35557 0.51385 0.71785 0.0
O245 O 0.40608 0.48634 0.73819 0.0
O246 O 0.37786 0.46925 0.74088 0.0
In247 In 0.62503 0.00242 0.75257 0.0
O248 O 0.65518 0.99283 0.73639 0.0
O249 O 0.62784 0.99536 0.71803 0.0
C250 C 0.64468 0.01623 0.7872 0.0
C251 C 0.60635 0.03612 0.73633 0.0
C252 C 0.60302 0.96893 0.7658 0.0
O253 O 0.65303 0.00366 0.77472 0.0
O254 O 0.62654 0.02163 0.7823 0.0
O255 O 0.59688 0.98728 0.76853 0.0
O256 O 0.62006 0.96751 0.75643 0.0
C257 C 0.64694 0.99116 0.71865 0.0
O258 O 0.59728 0.01876 0.73779 0.0
O259 O 0.62482 0.03641 0.74297 0.0
In260 In 0.75062 0.62539 0.9992 0.0
O261 O 0.74806 0.59503 0.01778 0.0
O262 O 0.73123 0.62136 0.02827 0.0
C263 C 0.76417 0.60184 0.967 0.0
C264 C 0.71817 0.6484 0.98597 0.0
C265 C 0.78208 0.6494 0.01382 0.0
O266 O 0.77404 0.60338 0.98386 0.0
O267 O 0.74731 0.61169 0.9666 0.0
O268 O 0.77745 0.6485 0.99481 0.0
O269 O 0.77064 0.63857 0.02538 0.0
C270 C 0.7358 0.60256 0.03109 0.0
O271 O 0.73621 0.65592 0.98786 0.0
O272 O 0.71666 0.62944 0.99059 0.0
In273 In 0.87626 0.50124 0.749 0.0
O274 O 0.90446 0.52312 0.74761 0.0
O275 O 0.87789 0.53073 0.72965 0.0
C276 C 0.8949 0.46601 0.76211 0.0
C277 C 0.85705 0.51729 0.7827 0.0
C278 C 0.85584 0.48579 0.71571 0.0
O279 O 0.90424 0.47934 0.75122 0.0
O280 O 0.87629 0.47043 0.76621 0.0
O281 O 0.84668 0.49044 0.7324 0.0
O282 O 0.87522 0.48873 0.71595 0.0
C283 C 0.89609 0.53556 0.73501 0.0
O284 O 0.84765 0.51404 0.76578 0.0
O285 O 0.87605 0.51265 0.7825 0.0
In286 In 0.75032 0.37604 0.50034 0.0
O287 O 0.73752 0.34718 0.51694 0.0
O288 O 0.71616 0.37002 0.50653 0.0
C289 C 0.78115 0.35098 0.48636 0.0
C290 C 0.7372 0.39879 0.46757 0.0
C291 C 0.76219 0.40174 0.53157 0.0
O292 O 0.76643 0.35702 0.47501 0.0
O293 O 0.78005 0.35704 0.50493 0.0
O294 O 0.77315 0.39866 0.51567 0.0
O295 O 0.74497 0.39242 0.53141 0.0
C296 C 0.7188 0.35282 0.51544 0.0
O297 O 0.7511 0.40531 0.47982 0.0
O298 O 0.73014 0.38108 0.47191 0.0
In299 In 0.62915 0.50267 0.25044 0.0
O300 O 0.60146 0.51875 0.26586 0.0
O301 O 0.62797 0.53705 0.2587 0.0
C302 C 0.60853 0.46942 0.23501 0.0
C303 C 0.64817 0.51453 0.21505 0.0
C304 C 0.6497 0.49013 0.28485 0.0
O305 O 0.59978 0.48671 0.23792 0.0
O306 O 0.62751 0.46902 0.23981 0.0
O307 O 0.65804 0.5017 0.27142 0.0
O308 O 0.6312 0.48509 0.2809 0.0
C309 C 0.60992 0.53645 0.26622 0.0
O310 O 0.6571 0.50335 0.22845 0.0
O311 O 0.62983 0.51964 0.21955 0.0
H312 H 0.11909 0.44289 0.29797 0.0
H313 H 0.10227 0.41209 0.3122 0.0
H314 H 0.05403 0.41663 0.2658 0.0
H315 H 0.07041 0.44809 0.25204 0.0
H316 H 0.03722 0.40698 0.30086 0.0
H317 H 0.09439 0.37996 0.26272 0.0
H318 H 0.13081 0.37664 0.2515 0.0
H319 H 0.1488 0.3597 0.31341 0.0
H320 H 0.11252 0.3632 0.32509 0.0
H321 H 0.00292 0.30186 0.32016 0.0
H322 H 0.01744 0.33269 0.30309 0.0
H323 H 0.05912 0.34194 0.35479 0.0
H324 H 0.04451 0.31144 0.37205 0.0
H325 H 0.07824 0.34331 0.31452 0.0
H326 H 0.01973 0.37205 0.35188 0.0
H327 H 0.98274 0.37439 0.36137 0.0
H328 H 0.96673 0.38644 0.29777 0.0
H329 H 0.00364 0.38388 0.28786 0.0
C330 C 0.1049 0.43732 0.29079 0.0
C331 C 0.09611 0.4478 0.27383 0.0
C332 C 0.09535 0.41962 0.29886 0.0
C333 C 0.07709 0.41172 0.28981 0.0
C334 C 0.06814 0.42235 0.273 0.0
C335 C 0.07753 0.44029 0.26512 0.0
C336 C 0.06728 0.39254 0.29812 0.0
C337 C 0.04615 0.39296 0.3035 0.0
C338 C 0.0789 0.37422 0.30178 0.0
C339 C 0.10074 0.37201 0.29481 0.0
C340 C 0.10613 0.37567 0.27398 0.0
C341 C 0.12675 0.37373 0.26753 0.0
C342 C 0.14212 0.36801 0.28174 0.0
C343 C 0.13688 0.36415 0.30243 0.0
C344 C 0.11629 0.36609 0.30896 0.0
C345 C 0.01512 0.31053 0.32789 0.0
C346 C 0.02257 0.3043 0.34744 0.0
C347 C 0.02336 0.32812 0.31816 0.0
C348 C 0.03931 0.33956 0.32773 0.0
C349 C 0.04683 0.33329 0.34717 0.0
C350 C 0.03841 0.31592 0.35703 0.0
C351 C 0.04841 0.35797 0.31744 0.0
C352 C 0.06938 0.35733 0.31168 0.0
C353 C 0.03657 0.37592 0.31312 0.0
C354 C 0.01441 0.37753 0.31909 0.0
C355 C 0.00831 0.37501 0.33989 0.0
C356 C 0.98736 0.37641 0.34535 0.0
C357 C 0.97238 0.38049 0.33017 0.0
C358 C 0.97834 0.38324 0.30951 0.0
C359 C 0.99927 0.38183 0.30396 0.0
H360 H 0.95617 0.38158 0.33443 0.0
H361 H 0.15807 0.36652 0.27672 0.0
H362 H 0.96972 0.79661 0.57454 0.0
H363 H 0.93919 0.81203 0.55767 0.0
H364 H 0.89898 0.77676 0.59784 0.0
H365 H 0.92932 0.76166 0.61504 0.0
H366 H 0.88827 0.77621 0.55359 0.0
H367 H 0.90495 0.82368 0.60985 0.0
H368 H 0.92831 0.84688 0.62955 0.0
H369 H 0.9373 0.88443 0.57527 0.0
H370 H 0.91421 0.86125 0.55516 0.0
H371 H 0.79063 0.82357 0.53989 0.0
H372 H 0.8226 0.80829 0.5534 0.0
H373 H 0.85819 0.85791 0.52576 0.0
H374 H 0.82607 0.87378 0.51314 0.0
H375 H 0.87294 0.85125 0.56167 0.0
H376 H 0.85607 0.80636 0.5052 0.0
H377 H 0.83424 0.78334 0.48362 0.0
H378 H 0.82762 0.74115 0.53474 0.0
H379 H 0.84918 0.76407 0.55671 0.0
C380 C 0.95436 0.79213 0.57972 0.0
C381 C 0.95186 0.778 0.59613 0.0
C382 C 0.93698 0.80095 0.5701 0.0
C383 C 0.91689 0.79552 0.57657 0.0
C384 C 0.91438 0.7811 0.59264 0.0
C385 C 0.93171 0.77257 0.60248 0.0
C386 C 0.89839 0.80516 0.5669 0.0
C387 C 0.88475 0.79257 0.55545 0.0
C388 C 0.89428 0.82662 0.56884 0.0
C389 C 0.90805 0.8406 0.58095 0.0
C390 C 0.91206 0.83677 0.60207 0.0
C391 C 0.92522 0.84994 0.61332 0.0
C392 C 0.93434 0.86708 0.60365 0.0
C393 C 0.93026 0.87112 0.58273 0.0
C394 C 0.91713 0.85799 0.5714 0.0
C395 C 0.80529 0.83117 0.53666 0.0
C396 C 0.80589 0.84982 0.52543 0.0
C397 C 0.8236 0.82235 0.54427 0.0
C398 C 0.84294 0.83168 0.54028 0.0
C399 C 0.84351 0.85036 0.52904 0.0
C400 C 0.82516 0.8594 0.52178 0.0
C401 C 0.86248 0.82229 0.54834 0.0
C402 C 0.8764 0.83491 0.55955 0.0
C403 C 0.86704 0.8009 0.54583 0.0
C404 C 0.8541 0.78703 0.53266 0.0
C405 C 0.84984 0.79225 0.51188 0.0
C406 C 0.83753 0.77921 0.49958 0.0
C407 C 0.82951 0.76082 0.50782 0.0
C408 C 0.83383 0.75541 0.52838 0.0
C409 C 0.84611 0.76841 0.54076 0.0
H410 H 0.81998 0.75074 0.49826 0.0
H411 H 0.94452 0.87726 0.61239 0.0
H412 H 0.43344 0.53619 0.79212 0.0
H413 H 0.45164 0.56665 0.80609 0.0
H414 H 0.4122 0.60678 0.76984 0.0
H415 H 0.39403 0.57647 0.7558 0.0
H416 H 0.45317 0.6191 0.76881 0.0
H417 H 0.40219 0.59972 0.82002 0.0
H418 H 0.38465 0.57575 0.84413 0.0
H419 H 0.44178 0.56702 0.87745 0.0
H420 H 0.45974 0.59073 0.85334 0.0
H421 H 0.46627 0.71528 0.82167 0.0
H422 H 0.4534 0.68361 0.80497 0.0
H423 H 0.49017 0.6466 0.84697 0.0
H424 H 0.50267 0.67818 0.86402 0.0
H425 H 0.45238 0.63167 0.84482 0.0
H426 H 0.50322 0.65239 0.79496 0.0
H427 H 0.52103 0.67616 0.77086 0.0
H428 H 0.46509 0.68213 0.73498 0.0
H429 H 0.44685 0.65861 0.75904 0.0
C430 C 0.42875 0.5515 0.78705 0.0
C431 C 0.41225 0.55397 0.77296 0.0
C432 C 0.43911 0.56888 0.79507 0.0
C433 C 0.43314 0.58898 0.78913 0.0
C434 C 0.41706 0.59142 0.77462 0.0
C435 C 0.40664 0.57409 0.76669 0.0
C436 C 0.44315 0.60753 0.79849 0.0
C437 C 0.45287 0.62197 0.7854 0.0
C438 C 0.44315 0.611 0.82018 0.0
C439 C 0.43236 0.59682 0.83474 0.0
C440 C 0.41105 0.59256 0.83238 0.0
C441 C 0.40102 0.57904 0.84607 0.0
C442 C 0.4121 0.56982 0.86227 0.0
C443 C 0.43323 0.57414 0.86486 0.0
C444 C 0.44333 0.58763 0.8512 0.0
C445 C 0.47176 0.70039 0.82719 0.0
C446 C 0.48546 0.6992 0.84415 0.0
C447 C 0.46446 0.68229 0.81758 0.0
C448 C 0.47096 0.66268 0.82458 0.0
C449 C 0.48492 0.66153 0.8413 0.0
C450 C 0.4921 0.67959 0.85099 0.0
C451 C 0.46243 0.64338 0.81515 0.0
C452 C 0.4529 0.62878 0.82823 0.0
C453 C 0.46269 0.63975 0.79346 0.0
C454 C 0.47362 0.65388 0.77892 0.0
C455 C 0.49467 0.6589 0.78203 0.0
C456 C 0.50485 0.6723 0.76835 0.0
C457 C 0.49419 0.68069 0.75143 0.0
C458 C 0.47333 0.67564 0.74811 0.0
C459 C 0.46307 0.66225 0.76175 0.0
H460 H 0.5021 0.69107 0.74086 0.0
H461 H 0.40431 0.55936 0.87285 0.0
H462 H 0.57493 0.24379 0.11257 0.0
H463 H 0.60468 0.22875 0.09458 0.0
H464 H 0.56352 0.18972 0.05873 0.0
H465 H 0.53353 0.20479 0.07673 0.0
H466 H 0.59721 0.16835 0.07592 0.0
H467 H 0.58559 0.23015 0.0358 0.0
H468 H 0.58024 0.2677 0.03076 0.0
H469 H 0.63978 0.28037 0.05815 0.0
H470 H 0.64537 0.2429 0.06363 0.0
H471 H 0.67711 0.13041 0.01092 0.0
H472 H 0.64501 0.14604 0.0237 0.0
H473 H 0.68053 0.19518 0.05262 0.0
H474 H 0.71254 0.18015 0.03883 0.0
H475 H 0.648 0.21121 0.03704 0.0
H476 H 0.65935 0.15139 0.08002 0.0
H477 H 0.66544 0.11434 0.08747 0.0
H478 H 0.60773 0.09843 0.05788 0.0
H479 H 0.60142 0.13538 0.05003 0.0
C480 C 0.57217 0.23208 0.10078 0.0
C481 C 0.55189 0.22548 0.09602 0.0
C482 C 0.5892 0.22355 0.09047 0.0
C483 C 0.5863 0.20825 0.0752 0.0
C484 C 0.56607 0.20156 0.07043 0.0
C485 C 0.54897 0.21021 0.08066 0.0
C486 C 0.60451 0.19893 0.06467 0.0
C487 C 0.60816 0.17761 0.0671 0.0
C488 C 0.61908 0.21118 0.05373 0.0
C489 C 0.61582 0.23372 0.05027 0.0
C490 C 0.59748 0.24095 0.04088 0.0
C491 C 0.59441 0.26222 0.03792 0.0
C492 C 0.60964 0.27642 0.04417 0.0
C493 C 0.62799 0.26936 0.05333 0.0
C494 C 0.63113 0.2481 0.05634 0.0
C495 C 0.67802 0.14458 0.01995 0.0
C496 C 0.69729 0.15402 0.024 0.0
C497 C 0.65968 0.15345 0.02737 0.0
C498 C 0.6603 0.17158 0.03955 0.0
C499 C 0.67958 0.18118 0.04331 0.0
C500 C 0.69788 0.17256 0.03548 0.0
C501 C 0.64094 0.18055 0.04845 0.0
C502 C 0.63705 0.20183 0.04573 0.0
C503 C 0.62631 0.16832 0.05946 0.0
C504 C 0.63002 0.14612 0.06426 0.0
C505 C 0.64803 0.13997 0.07499 0.0
C506 C 0.65151 0.119 0.0793 0.0
C507 C 0.63701 0.10404 0.0731 0.0
C508 C 0.61896 0.11003 0.06264 0.0
C509 C 0.61542 0.13099 0.05827 0.0
H510 H 0.63973 0.08781 0.07645 0.0
H511 H 0.60723 0.29288 0.04187 0.0
H512 H 0.07292 0.55564 0.25083 0.0
H513 H 0.05656 0.58688 0.23668 0.0
H514 H 0.09581 0.58292 0.18257 0.0
H515 H 0.11267 0.55224 0.197 0.0
H516 H 0.09501 0.62086 0.19519 0.0
H517 H 0.04266 0.56916 0.18233 0.0
H518 H 0.01819 0.54111 0.19136 0.0
H519 H 0.98631 0.58207 0.23316 0.0
H520 H 0.01077 0.6103 0.22457 0.0
H521 H 0.04044 0.68702 0.12655 0.0
H522 H 0.05461 0.65612 0.1434 0.0
H523 H 0.02203 0.67165 0.19974 0.0
H524 H 0.00787 0.70277 0.183 0.0
H525 H 0.01876 0.62904 0.18785 0.0
H526 H 0.07117 0.68123 0.19861 0.0
H527 H 0.09537 0.70888 0.18782 0.0
H528 H 0.12695 0.66597 0.1478 0.0
H529 H 0.10274 0.63813 0.15812 0.0
C530 C 0.07795 0.56141 0.23587 0.0
C531 C 0.09405 0.55153 0.22501 0.0
C532 C 0.06854 0.57921 0.22775 0.0
C533 C 0.07478 0.58718 0.20842 0.0
C534 C 0.09074 0.57714 0.19752 0.0
C535 C 0.10032 0.55955 0.20575 0.0
C536 C 0.0652 0.60627 0.19973 0.0
C537 C 0.07834 0.62249 0.19338 0.0
C538 C 0.04341 0.60871 0.1978 0.0
C539 C 0.02868 0.59177 0.20297 0.0
C540 C 0.03053 0.57214 0.19357 0.0
C541 C 0.01664 0.55622 0.19859 0.0
C542 C 0.00074 0.55979 0.21287 0.0
C543 C 0.99866 0.57931 0.22212 0.0
C544 C 0.01252 0.59528 0.21718 0.0
C545 C 0.03626 0.68385 0.14252 0.0
C546 C 0.02312 0.69734 0.1535 0.0
C547 C 0.0444 0.66623 0.15212 0.0
C548 C 0.03946 0.66171 0.17284 0.0
C549 C 0.02602 0.67491 0.18374 0.0
C550 C 0.01802 0.69269 0.17419 0.0
C551 C 0.04862 0.64331 0.1831 0.0
C552 C 0.03541 0.62733 0.18977 0.0
C553 C 0.07035 0.64095 0.18512 0.0
C554 C 0.08502 0.65764 0.179 0.0
C555 C 0.08317 0.67773 0.18738 0.0
C556 C 0.09691 0.69343 0.18137 0.0
C557 C 0.11265 0.6892 0.1671 0.0
C558 C 0.11473 0.66924 0.15884 0.0
C559 C 0.10102 0.65348 0.16478 0.0
H560 H 0.12327 0.70138 0.16247 0.0
H561 H 0.99001 0.54744 0.21673 0.0
H562 H 0.55321 0.80279 0.39448 0.0
H563 H 0.58484 0.81539 0.41117 0.0
H564 H 0.58998 0.75794 0.44513 0.0
H565 H 0.55781 0.74543 0.42882 0.0
H566 H 0.59967 0.78966 0.46961 0.0
H567 H 0.62055 0.76749 0.40236 0.0
H568 H 0.61932 0.76478 0.36419 0.0
H569 H 0.6301 0.83037 0.35898 0.0
H570 H 0.63111 0.83353 0.39714 0.0
H571 H 0.70619 0.815 0.49606 0.0
H572 H 0.6756 0.79696 0.48189 0.0
H573 H 0.65658 0.85328 0.45122 0.0
H574 H 0.68681 0.87138 0.46543 0.0
H575 H 0.656 0.81795 0.4254 0.0
H576 H 0.6325 0.83944 0.49357 0.0
H577 H 0.63442 0.84104 0.53178 0.0
H578 H 0.62997 0.7746 0.53498 0.0
H579 H 0.62832 0.77259 0.49674 0.0
C580 C 0.56102 0.79284 0.40555 0.0
C581 C 0.55312 0.77306 0.41024 0.0
C582 C 0.57918 0.80002 0.41501 0.0
C583 C 0.59007 0.78744 0.42908 0.0
C584 C 0.58192 0.76787 0.43423 0.0
C585 C 0.56357 0.76073 0.42489 0.0
C586 C 0.60998 0.79485 0.43822 0.0
C587 C 0.61213 0.79549 0.45992 0.0
C588 C 0.62624 0.80259 0.42562 0.0
C589 C 0.62575 0.80076 0.40264 0.0
C590 C 0.62252 0.78136 0.39309 0.0
C591 C 0.62188 0.77974 0.37145 0.0
C592 C 0.62459 0.79739 0.35917 0.0
C593 C 0.62799 0.8167 0.36851 0.0
C594 C 0.62863 0.81842 0.39015 0.0
C595 C 0.69543 0.8235 0.48633 0.0
C596 C 0.69885 0.84459 0.48186 0.0
C597 C 0.67799 0.81321 0.4783 0.0
C598 C 0.66384 0.82382 0.46555 0.0
C599 C 0.66733 0.84482 0.461 0.0
C600 C 0.68457 0.85515 0.46919 0.0
C601 C 0.64541 0.81318 0.45669 0.0
C602 C 0.64359 0.81189 0.43504 0.0
C603 C 0.62962 0.80464 0.46932 0.0
C604 C 0.63054 0.80585 0.49229 0.0
C605 C 0.63212 0.82516 0.50241 0.0
C606 C 0.63312 0.82615 0.52408 0.0
C607 C 0.63238 0.80793 0.5358 0.0
C608 C 0.63058 0.78869 0.52588 0.0
C609 C 0.6296 0.78762 0.50421 0.0
H610 H 0.63315 0.80872 0.55257 0.0
H611 H 0.62409 0.79611 0.34242 0.0
H612 H 0.50082 0.32655 0.64116 0.0
H613 H 0.48624 0.35769 0.65746 0.0
H614 H 0.44231 0.31975 0.69074 0.0
H615 H 0.45708 0.28848 0.67482 0.0
H616 H 0.4251 0.35506 0.66809 0.0
H617 H 0.47909 0.33825 0.71742 0.0
H618 H 0.51505 0.33027 0.72788 0.0
H619 H 0.53549 0.38912 0.70419 0.0
H620 H 0.49967 0.39732 0.69331 0.0
H621 H 0.3819 0.42967 0.73506 0.0
H622 H 0.39844 0.39885 0.72054 0.0
H623 H 0.45069 0.43605 0.70105 0.0
H624 H 0.43448 0.46688 0.71632 0.0
H625 H 0.46431 0.40123 0.71596 0.0
H626 H 0.41239 0.41905 0.66637 0.0
H627 H 0.37741 0.42806 0.65365 0.0
H628 H 0.35417 0.36911 0.67431 0.0
H629 H 0.38896 0.35984 0.68743 0.0
C630 C 0.48816 0.32485 0.65208 0.0
C631 C 0.48008 0.30512 0.65676 0.0
C632 C 0.47989 0.34262 0.66137 0.0
C633 C 0.46324 0.34096 0.67528 0.0
C634 C 0.45517 0.32129 0.68003 0.0
C635 C 0.46367 0.30348 0.67101 0.0
C636 C 0.45388 0.35984 0.68444 0.0
C637 C 0.43351 0.36503 0.6788 0.0
C638 C 0.46522 0.37317 0.69774 0.0
C639 C 0.48674 0.3683 0.70436 0.0
C640 C 0.49128 0.3494 0.71427 0.0
C641 C 0.51163 0.34486 0.72031 0.0
C642 C 0.52755 0.35915 0.71665 0.0
C643 C 0.52314 0.37805 0.70699 0.0
C644 C 0.50282 0.38266 0.7009 0.0
C645 C 0.39692 0.43128 0.72768 0.0
C646 C 0.40686 0.45069 0.72671 0.0
C647 C 0.40632 0.41366 0.71928 0.0
C648 C 0.42566 0.41515 0.70932 0.0
C649 C 0.43574 0.4345 0.70859 0.0
C650 C 0.42645 0.45211 0.71727 0.0
C651 C 0.43532 0.39648 0.69979 0.0
C652 C 0.45579 0.39132 0.70527 0.0
C653 C 0.4242 0.38336 0.68599 0.0
C654 C 0.40325 0.38883 0.67806 0.0
C655 C 0.39979 0.40806 0.66834 0.0
C656 C 0.38 0.41321 0.66104 0.0
C657 C 0.36357 0.39919 0.66322 0.0
C658 C 0.36691 0.37996 0.67266 0.0
C659 C 0.38666 0.37475 0.68002 0.0
H660 H 0.34827 0.4032 0.65755 0.0
H661 H 0.5433 0.3556 0.72134 0.0
H662 H 0.95459 0.19666 0.89619 0.0
H663 H 0.92355 0.1825 0.91269 0.0
H664 H 0.91482 0.24015 0.94576 0.0
H665 H 0.94635 0.25418 0.92974 0.0
H666 H 0.90582 0.20883 0.97035 0.0
H667 H 0.88634 0.22829 0.90168 0.0
H668 H 0.88876 0.22972 0.86351 0.0
H669 H 0.88028 0.16367 0.86 0.0
H670 H 0.87811 0.16179 0.89819 0.0
H671 H 0.79827 0.18637 0.9926 0.0
H672 H 0.82983 0.2028 0.9789 0.0
H673 H 0.84892 0.14419 0.95279 0.0
H674 H 0.81766 0.12765 0.96662 0.0
H675 H 0.85143 0.17819 0.92492 0.0
H676 H 0.87182 0.15981 0.9948 0.0
H677 H 0.86843 0.15986 0.03292 0.0
H678 H 0.87351 0.22634 0.03376 0.0
H679 H 0.87663 0.22671 0.99558 0.0
C680 C 0.94616 0.20627 0.90711 0.0
C681 C 0.95281 0.22657 0.91158 0.0
C682 C 0.92834 0.1982 0.91645 0.0
C683 C 0.91655 0.21042 0.93013 0.0
C684 C 0.92358 0.23047 0.93518 0.0
C685 C 0.94158 0.23847 0.92601 0.0
C686 C 0.89672 0.20235 0.93876 0.0
C687 C 0.89381 0.20242 0.96037 0.0
C688 C 0.88104 0.19382 0.92581 0.0
C689 C 0.88225 0.19488 0.90282 0.0
C690 C 0.88514 0.21405 0.89278 0.0
C691 C 0.88645 0.21494 0.87114 0.0
C692 C 0.88472 0.19679 0.85934 0.0
C693 C 0.88164 0.17771 0.86916 0.0
C694 C 0.88035 0.17672 0.8908 0.0
C695 C 0.80922 0.17701 0.98395 0.0
C696 C 0.80554 0.15573 0.98069 0.0
C697 C 0.82724 0.18639 0.97621 0.0
C698 C 0.84172 0.17466 0.96491 0.0
C699 C 0.83794 0.15348 0.96147 0.0
C700 C 0.82011 0.14406 0.96943 0.0
C701 C 0.86076 0.18441 0.95642 0.0
C702 C 0.86344 0.1847 0.93483 0.0
C703 C 0.87604 0.19351 0.96937 0.0
C704 C 0.87422 0.1933 0.99232 0.0
C705 C 0.87202 0.17446 0.00309 0.0
C706 C 0.87018 0.17441 0.02471 0.0
C707 C 0.87069 0.1931 0.03575 0.0
C708 C 0.87308 0.21188 0.02519 0.0
C709 C 0.8749 0.21202 0.00356 0.0
H710 H 0.86927 0.19303 0.05249 0.0
H711 H 0.88574 0.19752 0.84258 0.0
H712 H 0.24181 0.08786 0.439 0.0
H713 H 0.25555 0.07194 0.40732 0.0
H714 H 0.3178 0.07771 0.43157 0.0
H715 H 0.30421 0.09384 0.4631 0.0
H716 H 0.31527 0.09242 0.39275 0.0
H717 H 0.29317 0.03054 0.42849 0.0
H718 H 0.26815 0.00786 0.4465 0.0
H719 H 0.22925 0.00685 0.39227 0.0
H720 H 0.25392 0.02976 0.37402 0.0
H721 H 0.37268 0.03145 0.32343 0.0
H722 H 0.35512 0.04512 0.35401 0.0
H723 H 0.29578 0.03605 0.32409 0.0
H724 H 0.31336 0.02184 0.2934 0.0
H725 H 0.29448 0.02388 0.36413 0.0
H726 H 0.31699 0.08443 0.32782 0.0
H727 H 0.34188 0.10702 0.30953 0.0
H728 H 0.37948 0.11098 0.36453 0.0
H729 H 0.35497 0.08817 0.38308 0.0
C730 C 0.2584 0.08547 0.43768 0.0
C731 C 0.27194 0.09211 0.45352 0.0
C732 C 0.26623 0.07634 0.41958 0.0
C733 C 0.28771 0.07358 0.41709 0.0
C734 C 0.30118 0.07975 0.43313 0.0
C735 C 0.29338 0.08888 0.45118 0.0
C736 C 0.29634 0.06522 0.39741 0.0
C737 C 0.3109 0.07732 0.38664 0.0
C738 C 0.2901 0.04585 0.38903 0.0
C739 C 0.27528 0.03204 0.39997 0.0
C740 C 0.2792 0.02562 0.42046 0.0
C741 C 0.2651 0.0127 0.43071 0.0
C742 C 0.24709 0.00596 0.42056 0.0
C743 C 0.24319 0.0121 0.40013 0.0
C744 C 0.25723 0.02504 0.38982 0.0
C745 C 0.35589 0.03238 0.3233 0.0
C746 C 0.34439 0.02569 0.30596 0.0
C747 C 0.34586 0.04027 0.34079 0.0
C748 C 0.32414 0.04193 0.34123 0.0
C749 C 0.31256 0.03498 0.32405 0.0
C750 C 0.32261 0.02695 0.30652 0.0
C751 C 0.31371 0.05092 0.35972 0.0
C752 C 0.29876 0.03902 0.37021 0.0
C753 C 0.31952 0.07053 0.36784 0.0
C754 C 0.33421 0.08445 0.35679 0.0
C755 C 0.33064 0.09001 0.33598 0.0
C756 C 0.34467 0.10287 0.32557 0.0
C757 C 0.36228 0.1104 0.33585 0.0
C758 C 0.36585 0.10513 0.35659 0.0
C759 C 0.35187 0.09225 0.36706 0.0
H760 H 0.37313 0.12034 0.32776 0.0
H761 H 0.2362 0.99596 0.42852 0.0
H762 H 0.18473 0.03293 0.71327 0.0
H763 H 0.20033 0.04662 0.68138 0.0
H764 H 0.14421 0.03232 0.64759 0.0
H765 H 0.12835 0.019 0.67948 0.0
H766 H 0.1836 0.02007 0.62755 0.0
H767 H 0.14941 0.07886 0.65937 0.0
H768 H 0.1418 0.10275 0.68833 0.0
H769 H 0.20613 0.12014 0.6916 0.0
H770 H 0.21417 0.0961 0.66284 0.0
H771 H 0.20403 0.07821 0.53564 0.0
H772 H 0.18894 0.0615 0.56626 0.0
H773 H 0.23446 0.09192 0.60521 0.0
H774 H 0.24875 0.10942 0.57485 0.0
H775 H 0.19979 0.09525 0.62285 0.0
H776 H 0.23521 0.03759 0.59206 0.0
H777 H 0.24468 0.0129 0.56436 0.0
H778 H 0.18135 0.99228 0.56032 0.0
H779 H 0.17145 0.01705 0.58783 0.0
C780 C 0.17575 0.03265 0.69903 0.0
C781 C 0.15531 0.025 0.69885 0.0
C782 C 0.18467 0.04046 0.68087 0.0
C783 C 0.17338 0.04048 0.6622 0.0
C784 C 0.15315 0.03238 0.66186 0.0
C785 C 0.14411 0.02489 0.68009 0.0
C786 C 0.18244 0.04959 0.64317 0.0
C787 C 0.18697 0.03654 0.62634 0.0
C788 C 0.18726 0.07095 0.64193 0.0
C789 C 0.18242 0.08552 0.65911 0.0
C790 C 0.16196 0.08764 0.66639 0.0
C791 C 0.15756 0.10123 0.68274 0.0
C792 C 0.17348 0.11291 0.69183 0.0
C793 C 0.19382 0.11106 0.68455 0.0
C794 C 0.1983 0.09747 0.66822 0.0
C795 C 0.21087 0.08115 0.55075 0.0
C796 C 0.22752 0.0951 0.55291 0.0
C797 C 0.20232 0.07153 0.56824 0.0
C798 C 0.21068 0.07523 0.58813 0.0
C799 C 0.22763 0.08884 0.59013 0.0
C800 C 0.23585 0.09879 0.57275 0.0
C801 C 0.2013 0.06573 0.607 0.0
C802 C 0.19658 0.07874 0.62389 0.0
C803 C 0.19665 0.04424 0.60839 0.0
C804 C 0.20256 0.02932 0.59186 0.0
C805 C 0.22328 0.0279 0.58516 0.0
C806 C 0.22873 0.01387 0.56951 0.0
C807 C 0.21362 0.00107 0.56055 0.0
C808 C 0.19303 0.00223 0.56726 0.0
C809 C 0.1875 0.01624 0.58289 0.0
H810 H 0.21787 0.99022 0.54843 0.0
H811 H 0.17004 0.12343 0.70449 0.0
H812 H 0.18655 0.99595 0.80065 0.0
H813 H 0.20347 0.98235 0.83185 0.0
H814 H 0.14946 0.94466 0.84449 0.0
H815 H 0.13222 0.95892 0.81389 0.0
H816 H 0.16153 0.96088 0.87857 0.0
H817 H 0.19673 0.92486 0.8237 0.0
H818 H 0.21687 0.92137 0.79137 0.0
H819 H 0.26708 0.956 0.8186 0.0
H820 H 0.24712 0.95992 0.85103 0.0
H821 H 0.20551 0.88506 0.94524 0.0
H822 H 0.19155 0.90254 0.91456 0.0
H823 H 0.23957 0.94908 0.91916 0.0
H824 H 0.25346 0.93183 0.95024 0.0
H825 H 0.23232 0.93067 0.87745 0.0
H826 H 0.19605 0.96392 0.93372 0.0
H827 H 0.1753 0.96458 0.96584 0.0
H828 H 0.12607 0.93157 0.93504 0.0
H829 H 0.14667 0.93044 0.90281 0.0
C830 C 0.17835 0.98472 0.81008 0.0
C831 C 0.15809 0.97847 0.80484 0.0
C832 C 0.18806 0.97687 0.82786 0.0
C833 C 0.17788 0.96224 0.84046 0.0
C834 C 0.15766 0.95595 0.83511 0.0
C835 C 0.14783 0.96406 0.81757 0.0
C836 C 0.188 0.9537 0.85942 0.0
C837 C 0.17693 0.9541 0.87819 0.0
C838 C 0.2083 0.94521 0.85918 0.0
C839 C 0.22033 0.94288 0.8397 0.0
C840 C 0.212 0.93187 0.82274 0.0
C841 C 0.22339 0.92979 0.8044 0.0
C842 C 0.24321 0.93852 0.8029 0.0
C843 C 0.25171 0.94929 0.81977 0.0
C844 C 0.24037 0.95143 0.83813 0.0
C845 C 0.21311 0.89901 0.93973 0.0
C846 C 0.23054 0.90713 0.95014 0.0
C847 C 0.20511 0.90898 0.92224 0.0
C848 C 0.21451 0.9271 0.91468 0.0
C849 C 0.23212 0.93509 0.9248 0.0
C850 C 0.23997 0.92529 0.94255 0.0
C851 C 0.20568 0.93767 0.89628 0.0
C852 C 0.21699 0.93763 0.8777 0.0
C853 C 0.18547 0.94615 0.89658 0.0
C854 C 0.17299 0.94694 0.9159 0.0
C855 C 0.18088 0.95665 0.93385 0.0
C856 C 0.16912 0.95714 0.95206 0.0
C857 C 0.1494 0.94808 0.9525 0.0
C858 C 0.14136 0.93856 0.93469 0.0
C859 C 0.15306 0.93802 0.91643 0.0
H860 H 0.14032 0.94848 0.96662 0.0
H861 H 0.25201 0.93689 0.7887 0.0
H862 H 0.27121 0.87746 0.07628 0.0
H863 H 0.28412 0.8938 0.10814 0.0
H864 H 0.28919 0.95242 0.07629 0.0
H865 H 0.27606 0.9362 0.04435 0.0
H866 H 0.32509 0.94101 0.09896 0.0
H867 H 0.25124 0.94647 0.1092 0.0
H868 H 0.21544 0.93297 0.11118 0.0
H869 H 0.23326 0.89223 0.16077 0.0
H870 H 0.26925 0.90528 0.15889 0.0
H871 H 0.34851 0.00411 0.18482 0.0
H872 H 0.33156 0.98936 0.15422 0.0
H873 H 0.31623 0.93423 0.189 0.0
H874 H 0.33254 0.94935 0.21999 0.0
H875 H 0.28511 0.94365 0.1647 0.0
H876 H 0.35819 0.93609 0.15474 0.0
H877 H 0.39476 0.94731 0.15286 0.0
H878 H 0.37973 0.9889 0.10303 0.0
H879 H 0.34299 0.97813 0.10481 0.0
C880 C 0.27498 0.89385 0.07608 0.0
C881 C 0.27264 0.90557 0.05784 0.0
C882 C 0.28228 0.90317 0.09431 0.0
C883 C 0.2875 0.92433 0.09458 0.0
C884 C 0.2852 0.93607 0.07638 0.0
C885 C 0.27766 0.92681 0.05819 0.0
C886 C 0.29596 0.93403 0.1137 0.0
C887 C 0.31626 0.94191 0.11327 0.0
C888 C 0.28465 0.93447 0.13251 0.0
C889 C 0.26299 0.92672 0.13376 0.0
C890 C 0.24756 0.93451 0.12041 0.0
C891 C 0.22723 0.92697 0.12154 0.0
C892 C 0.22209 0.91171 0.13605 0.0
C893 C 0.23727 0.90402 0.14952 0.0
C894 C 0.25763 0.91151 0.14844 0.0
C895 C 0.3414 0.9889 0.18599 0.0
C896 C 0.34198 0.97779 0.20474 0.0
C897 C 0.33181 0.98043 0.16845 0.0
C898 C 0.32302 0.96046 0.16913 0.0
C899 C 0.32299 0.94961 0.18805 0.0
C900 C 0.33234 0.95823 0.20573 0.0
C901 C 0.31428 0.95082 0.14999 0.0
C902 C 0.29397 0.94285 0.15041 0.0
C903 C 0.3257 0.94997 0.13121 0.0
C904 C 0.3478 0.95645 0.13005 0.0
C905 C 0.36265 0.94774 0.14349 0.0
C906 C 0.38342 0.954 0.14242 0.0
C907 C 0.38956 0.96885 0.12787 0.0
C908 C 0.37495 0.97742 0.11432 0.0
C909 C 0.35415 0.97123 0.11533 0.0
H910 H 0.40564 0.97368 0.12707 0.0
H911 H 0.20634 0.90589 0.1369 0.0
H912 H 0.3125 0.36921 0.04789 0.0
H913 H 0.34402 0.3528 0.06099 0.0
H914 H 0.33637 0.30286 0.01684 0.0
H915 H 0.30434 0.31898 0.00406 0.0
H916 H 0.34808 0.28769 0.05286 0.0
H917 H 0.37261 0.34196 0.00928 0.0
H918 H 0.37527 0.37753 0.99545 0.0
H919 H 0.39681 0.39948 0.05471 0.0
H920 H 0.39399 0.36408 0.06899 0.0
H921 H 0.45317 0.25315 0.07093 0.0
H922 H 0.42256 0.26729 0.05307 0.0
H923 H 0.41591 0.31338 0.10123 0.0
H924 H 0.44614 0.29916 0.11928 0.0
H925 H 0.41282 0.3291 0.05965 0.0
H926 H 0.38554 0.27413 0.10309 0.0
H927 H 0.38344 0.23808 0.11574 0.0
H928 H 0.36813 0.21692 0.05431 0.0
H929 H 0.37044 0.25285 0.04123 0.0
C930 C 0.3175 0.35471 0.04098 0.0
C931 C 0.30602 0.34543 0.02487 0.0
C932 C 0.3356 0.3454 0.0484 0.0
C933 C 0.34284 0.3268 0.03962 0.0
C934 C 0.33116 0.31726 0.02379 0.0
C935 C 0.31289 0.32649 0.01648 0.0
C936 C 0.36252 0.31736 0.04714 0.0
C937 C 0.36231 0.29666 0.05398 0.0
C938 C 0.38112 0.32906 0.04879 0.0
C939 C 0.38293 0.35038 0.04025 0.0
C940 C 0.37777 0.3544 0.01941 0.0
C941 C 0.37933 0.37453 0.01148 0.0
C942 C 0.38616 0.39076 0.0242 0.0
C943 C 0.3915 0.38689 0.04487 0.0
C944 C 0.38995 0.36679 0.05289 0.0
C945 C 0.4452 0.26634 0.07763 0.0
C946 C 0.45197 0.27503 0.09651 0.0
C947 C 0.42773 0.27435 0.06746 0.0
C948 C 0.41698 0.29133 0.07589 0.0
C949 C 0.42401 0.30029 0.09448 0.0
C950 C 0.44123 0.2921 0.1048 0.0
C951 C 0.39817 0.29967 0.06562 0.0
C952 C 0.39859 0.32014 0.05827 0.0
C953 C 0.37988 0.2877 0.06327 0.0
C954 C 0.37842 0.26613 0.07113 0.0
C955 C 0.38192 0.26176 0.09224 0.0
C956 C 0.38065 0.24136 0.09949 0.0
C957 C 0.37572 0.22521 0.08582 0.0
C958 C 0.37199 0.22944 0.06487 0.0
C959 C 0.37327 0.24982 0.05753 0.0
H960 H 0.37474 0.20942 0.09147 0.0
H961 H 0.38736 0.40634 0.01803 0.0
H962 H 0.97649 0.82216 0.1245 0.0
H963 H 0.96386 0.85396 0.14084 0.0
H964 H 0.96521 0.82392 0.20067 0.0
H965 H 0.97841 0.7922 0.18444 0.0
H966 H 0.92974 0.86199 0.16038 0.0
H967 H 0.97447 0.85933 0.23869 0.0
H968 H 0.00804 0.84694 0.25236 0.0
H969 H 0.03508 0.85244 0.19173 0.0
H970 H 0.00177 0.86513 0.17777 0.0
H971 H 0.8813 0.92797 0.23191 0.0
H972 H 0.8984 0.8981 0.21613 0.0
H973 H 0.95474 0.93382 0.20946 0.0
H974 H 0.93777 0.96376 0.22576 0.0
H975 H 0.96345 0.89509 0.22142 0.0
H976 H 0.92254 0.92639 0.16815 0.0
H977 H 0.89089 0.941 0.15233 0.0
H978 H 0.86006 0.88217 0.1585 0.0
H979 H 0.89144 0.86728 0.17463 0.0
C980 C 0.97418 0.82236 0.14115 0.0
C981 C 0.97846 0.80472 0.15321 0.0
C982 C 0.96692 0.84054 0.15047 0.0
C983 C 0.96376 0.84143 0.17202 0.0
C984 C 0.9679 0.82375 0.18408 0.0
C985 C 0.97533 0.8056 0.17478 0.0
C986 C 0.95553 0.86068 0.18171 0.0
C987 C 0.93715 0.86921 0.17371 0.0
C988 C 0.96538 0.87039 0.19886 0.0
C989 C 0.98556 0.86299 0.20716 0.0
C990 C 0.98761 0.85798 0.2283 0.0
C991 C 0.00658 0.85088 0.23609 0.0
C992 C 0.02366 0.84884 0.2229 0.0
C993 C 0.02182 0.85395 0.20191 0.0
C994 C 0.00289 0.86107 0.19404 0.0
C995 C 0.89736 0.92946 0.22718 0.0
C996 C 0.90816 0.94825 0.22991 0.0
C997 C 0.9071 0.91239 0.2181 0.0
C998 C 0.92773 0.91383 0.21128 0.0
C999 C 0.93877 0.93239 0.21455 0.0
C1000 C 0.92906 0.94948 0.2238 0.0
C1001 C 0.9375 0.89609 0.2003 0.0
C1002 C 0.95611 0.88785 0.20806 0.0
C1003 C 0.92816 0.88693 0.18259 0.0
C1004 C 0.90929 0.89578 0.17276 0.0
C1005 C 0.90896 0.91661 0.16626 0.0
C1006 C 0.89108 0.92493 0.15722 0.0
C1007 C 0.87346 0.91253 0.15445 0.0
C1008 C 0.87371 0.89176 0.16067 0.0
C1009 C 0.89155 0.88337 0.16974 0.0
H1010 H 0.85962 0.91901 0.14745 0.0
H1011 H 0.03834 0.84333 0.22897 0.0
H1012 H 0.20989 0.6857 0.51957 0.0
H1013 H 0.17856 0.70213 0.53348 0.0
H1014 H 0.14958 0.64196 0.53936 0.0
H1015 H 0.18048 0.6256 0.52488 0.0
H1016 H 0.12219 0.66806 0.526 0.0
H1017 H 0.17214 0.66788 0.58145 0.0
H1018 H 0.20577 0.67532 0.59831 0.0
H1019 H 0.19613 0.7407 0.58975 0.0
H1020 H 0.16254 0.73361 0.57259 0.0
H1021 H 0.06682 0.71275 0.62413 0.0
H1022 H 0.09705 0.69795 0.60678 0.0
H1023 H 0.07522 0.72187 0.54813 0.0
H1024 H 0.04455 0.7362 0.56539 0.0
H1025 H 0.128 0.71445 0.58732 0.0
H1026 H 0.09107 0.69034 0.50882 0.0
H1027 H 0.05715 0.67902 0.4949 0.0
H1028 H 0.0401 0.65547 0.55484 0.0
H1029 H 0.07401 0.66641 0.56903 0.0
C1030 C 0.19677 0.67602 0.52372 0.0
C1031 C 0.19766 0.65437 0.52122 0.0
C1032 C 0.17891 0.68541 0.53174 0.0
C1033 C 0.16178 0.67327 0.53774 0.0
C1034 C 0.16255 0.65168 0.53483 0.0
C1035 C 0.18027 0.64233 0.52661 0.0
C1036 C 0.14321 0.68285 0.54754 0.0
C1037 C 0.12348 0.67828 0.53935 0.0
C1038 C 0.14479 0.6959 0.56519 0.0
C1039 C 0.16494 0.7002 0.57554 0.0
C1040 C 0.17727 0.68383 0.58303 0.0
C1041 C 0.1963 0.68798 0.59266 0.0
C1042 C 0.20311 0.70847 0.59504 0.0
C1043 C 0.19086 0.72484 0.58786 0.0
C1044 C 0.17181 0.72077 0.57819 0.0
C1045 C 0.0684 0.71477 0.60752 0.0
C1046 C 0.05328 0.72556 0.59609 0.0
C1047 C 0.08574 0.70638 0.59763 0.0
C1048 C 0.0884 0.70865 0.57612 0.0
C1049 C 0.07337 0.7196 0.56468 0.0
C1050 C 0.05588 0.72783 0.57456 0.0
C1051 C 0.10696 0.69963 0.56582 0.0
C1052 C 0.12671 0.70436 0.57386 0.0
C1053 C 0.10535 0.68622 0.54844 0.0
C1054 C 0.08498 0.67942 0.54002 0.0
C1055 C 0.0801 0.6827 0.519 0.0
C1056 C 0.06087 0.67635 0.51107 0.0
C1057 C 0.04645 0.6666 0.52399 0.0
C1058 C 0.05125 0.66311 0.54486 0.0
C1059 C 0.07046 0.6694 0.55286 0.0
H1060 H 0.03157 0.66171 0.51783 0.0
H1061 H 0.21785 0.71165 0.60251 0.0
H1062 H 0.99814 0.7028 0.68444 0.0
H1063 H 0.98359 0.67189 0.70131 0.0
H1064 H 0.94537 0.66024 0.64746 0.0
H1065 H 0.95998 0.69087 0.63044 0.0
H1066 H 0.9238 0.65865 0.68589 0.0
H1067 H 0.98635 0.6317 0.65404 0.0
H1068 H 0.02408 0.63081 0.64767 0.0
H1069 H 0.03528 0.62081 0.71263 0.0
H1070 H 0.9976 0.62193 0.71943 0.0
H1071 H 0.88548 0.55814 0.70106 0.0
H1072 H 0.90243 0.58922 0.68766 0.0
H1073 H 0.94699 0.58689 0.73778 0.0
H1074 H 0.93055 0.55505 0.75069 0.0
H1075 H 0.96619 0.59708 0.70425 0.0
H1076 H 0.90498 0.62224 0.737 0.0
H1077 H 0.86763 0.62416 0.74511 0.0
H1078 H 0.85414 0.63926 0.6816 0.0
H1079 H 0.89139 0.63716 0.67303 0.0
C1080 C 0.98668 0.6936 0.6762 0.0
C1081 C 0.9802 0.69921 0.65612 0.0
C1082 C 0.97843 0.67595 0.68582 0.0
C1083 C 0.96346 0.66378 0.67558 0.0
C1084 C 0.9569 0.66945 0.6556 0.0
C1085 C 0.96531 0.6869 0.64589 0.0
C1086 C 0.95436 0.64524 0.68568 0.0
C1087 C 0.93299 0.64508 0.68975 0.0
C1088 C 0.96655 0.62791 0.69138 0.0
C1089 C 0.98918 0.62713 0.68728 0.0
C1090 C 0.99687 0.6295 0.66699 0.0
C1091 C 0.01824 0.62891 0.6633 0.0
C1092 C 0.03207 0.62582 0.67975 0.0
C1093 C 0.02455 0.62324 0.69991 0.0
C1094 C 0.00319 0.62384 0.70369 0.0
C1095 C 0.89889 0.56425 0.70923 0.0
C1096 C 0.90662 0.55428 0.727 0.0
C1097 C 0.90851 0.58211 0.70163 0.0
C1098 C 0.92572 0.59076 0.71197 0.0
C1099 C 0.93367 0.58061 0.72958 0.0
C1100 C 0.92426 0.56246 0.73697 0.0
C1101 C 0.93542 0.61024 0.7042 0.0
C1102 C 0.95693 0.61065 0.70059 0.0
C1103 C 0.9234 0.62798 0.69924 0.0
C1104 C 0.90097 0.62938 0.70434 0.0
C1105 C 0.89403 0.62584 0.72473 0.0
C1106 C 0.87288 0.62698 0.72941 0.0
C1107 C 0.85852 0.63178 0.71387 0.0
C1108 C 0.86528 0.63552 0.69362 0.0
C1109 C 0.88642 0.63439 0.68884 0.0
H1110 H 0.84214 0.63265 0.71752 0.0
H1111 H 0.04862 0.62537 0.67685 0.0
H1112 H 0.21417 0.17279 0.45238 0.0
H1113 H 0.18279 0.18896 0.43847 0.0
H1114 H 0.15158 0.17882 0.4968 0.0
H1115 H 0.18286 0.16234 0.51071 0.0
H1116 H 0.12802 0.16615 0.46513 0.0
H1117 H 0.16624 0.22764 0.48171 0.0
H1118 H 0.1964 0.25128 0.48191 0.0
H1119 H 0.19357 0.25573 0.41545 0.0
H1120 H 0.16356 0.23187 0.41482 0.0
H1121 H 0.03866 0.22553 0.43734 0.0
H1122 H 0.07016 0.21347 0.45497 0.0
H1123 H 0.10422 0.21838 0.39759 0.0
H1124 H 0.07286 0.23045 0.3799 0.0
H1125 H 0.12576 0.23492 0.43065 0.0
H1126 H 0.08884 0.17197 0.41414 0.0
H1127 H 0.05868 0.14832 0.4139 0.0
H1128 H 0.05916 0.1468 0.48055 0.0
H1129 H 0.08916 0.1707 0.48119 0.0
C1130 C 0.20072 0.17426 0.46233 0.0
C1131 C 0.20098 0.1663 0.48263 0.0
C1132 C 0.1828 0.18356 0.45438 0.0
C1133 C 0.16485 0.18522 0.46663 0.0
C1134 C 0.16524 0.17769 0.48707 0.0
C1135 C 0.18315 0.16837 0.49502 0.0
C1136 C 0.14538 0.19379 0.45772 0.0
C1137 C 0.12744 0.18135 0.45793 0.0
C1138 C 0.14472 0.21343 0.4479 0.0
C1139 C 0.16275 0.22781 0.44821 0.0
C1140 C 0.17215 0.23352 0.46712 0.0
C1141 C 0.1892 0.24699 0.46731 0.0
C1142 C 0.19693 0.25496 0.4487 0.0
C1143 C 0.18758 0.24952 0.42986 0.0
C1144 C 0.17053 0.23605 0.42957 0.0
C1145 C 0.05287 0.22402 0.4285 0.0
C1146 C 0.05329 0.22885 0.40723 0.0
C1147 C 0.07083 0.2171 0.43857 0.0
C1148 C 0.0895 0.21493 0.42755 0.0
C1149 C 0.08999 0.21998 0.40638 0.0
C1150 C 0.07203 0.22677 0.39628 0.0
C1151 C 0.10852 0.20722 0.438 0.0
C1152 C 0.12635 0.2198 0.43802 0.0
C1153 C 0.10909 0.18772 0.44806 0.0
C1154 C 0.09109 0.17331 0.44771 0.0
C1155 C 0.0824 0.16674 0.42875 0.0
C1156 C 0.06535 0.15326 0.42854 0.0
C1157 C 0.05697 0.14611 0.4472 0.0
C1158 C 0.06565 0.15238 0.46611 0.0
C1159 C 0.08268 0.16588 0.4664 0.0
H1160 H 0.04377 0.13567 0.447 0.0
H1161 H 0.21013 0.26539 0.44888 0.0
H1162 H 0.62378 0.43026 0.23078 0.0
H1163 H 0.60629 0.3999 0.21618 0.0
H1164 H 0.55133 0.43651 0.20518 0.0
H1165 H 0.56867 0.46696 0.22027 0.0
H1166 H 0.5409 0.39918 0.21954 0.0
H1167 H 0.58442 0.425 0.16554 0.0
H1168 H 0.61698 0.43735 0.14967 0.0
H1169 H 0.64541 0.37823 0.16123 0.0
H1170 H 0.61309 0.36561 0.17744 0.0
H1171 H 0.52751 0.3207 0.12719 0.0
H1172 H 0.54102 0.35286 0.14212 0.0
H1173 H 0.53638 0.32655 0.20351 0.0
H1174 H 0.52232 0.29439 0.18862 0.0
H1175 H 0.57496 0.36051 0.16233 0.0
H1176 H 0.52773 0.36508 0.23888 0.0
H1177 H 0.49317 0.35513 0.25204 0.0
H1178 H 0.46835 0.35759 0.19016 0.0
H1179 H 0.50268 0.36782 0.17668 0.0
C1180 C 0.60795 0.43186 0.2253 0.0
C1181 C 0.59763 0.45103 0.22654 0.0
C1182 C 0.59799 0.4145 0.2169 0.0
C1183 C 0.5776 0.41598 0.20929 0.0
C1184 C 0.56708 0.43501 0.21091 0.0
C1185 C 0.57702 0.4524 0.21946 0.0
C1186 C 0.56748 0.39774 0.19935 0.0
C1187 C 0.54833 0.39072 0.20703 0.0
C1188 C 0.57694 0.38694 0.18271 0.0
C1189 C 0.59638 0.39442 0.17287 0.0
C1190 C 0.59766 0.41468 0.16483 0.0
C1191 C 0.61606 0.42172 0.15575 0.0
C1192 C 0.63326 0.40859 0.15449 0.0
C1193 C 0.63207 0.38838 0.16224 0.0
C1194 C 0.61371 0.38127 0.17136 0.0
C1195 C 0.52926 0.32178 0.14389 0.0
C1196 C 0.52384 0.30502 0.15675 0.0
C1197 C 0.53704 0.34017 0.1524 0.0
C1198 C 0.53961 0.34222 0.17395 0.0
C1199 C 0.53422 0.32548 0.18686 0.0
C1200 C 0.52628 0.30708 0.17834 0.0
C1201 C 0.54851 0.36167 0.18273 0.0
C1202 C 0.56749 0.36893 0.17484 0.0
C1203 C 0.5386 0.37297 0.19878 0.0
C1204 C 0.51784 0.367 0.20676 0.0
C1205 C 0.51488 0.36356 0.2281 0.0
C1206 C 0.49533 0.35786 0.23561 0.0
C1207 C 0.47859 0.35566 0.22194 0.0
C1208 C 0.48135 0.35922 0.20073 0.0
C1209 C 0.50085 0.36494 0.19314 0.0
H1210 H 0.46348 0.35123 0.22778 0.0
H1211 H 0.6475 0.41407 0.14746 0.0
H1212 H 0.28816 0.81954 0.96719 0.0
H1213 H 0.31905 0.80225 0.95346 0.0
H1214 H 0.35772 0.85057 0.97951 0.0
H1215 H 0.32687 0.86822 0.99261 0.0
H1216 H 0.3699 0.84282 0.94218 0.0
H1217 H 0.35389 0.80054 0.00115 0.0
H1218 H 0.332 0.77872 0.0237 0.0
H1219 H 0.32364 0.73493 0.97402 0.0
H1220 H 0.34526 0.75664 0.95107 0.0
H1221 H 0.46675 0.79192 0.93135 0.0
H1222 H 0.43561 0.80613 0.94783 0.0
H1223 H 0.39729 0.76477 0.91146 0.0
H1224 H 0.42835 0.75061 0.89476 0.0
H1225 H 0.38515 0.76829 0.95406 0.0
H1226 H 0.4015 0.8117 0.89535 0.0
H1227 H 0.42443 0.83354 0.87388 0.0
H1228 H 0.43318 0.87549 0.92506 0.0
H1229 H 0.41054 0.8537 0.94695 0.0
C1230 C 0.30327 0.82641 0.97003 0.0
C1231 C 0.30512 0.84522 0.98096 0.0
C1232 C 0.32093 0.81646 0.96228 0.0
C1233 C 0.34079 0.82495 0.96566 0.0
C1234 C 0.3426 0.84371 0.97668 0.0
C1235 C 0.32495 0.85376 0.9842 0.0
C1236 C 0.35966 0.81472 0.95721 0.0
C1237 C 0.37334 0.82659 0.94508 0.0
C1238 C 0.36402 0.79342 0.96056 0.0
C1239 C 0.35103 0.78033 0.97433 0.0
C1240 C 0.34725 0.78634 0.99498 0.0
C1241 C 0.33492 0.77398 0.00785 0.0
C1242 C 0.32639 0.75548 1.00028 0.0
C1243 C 0.33023 0.74928 0.97985 0.0
C1244 C 0.34254 0.7616 0.96691 0.0
C1245 C 0.45171 0.7857 0.92703 0.0
C1246 C 0.44995 0.77024 0.9117 0.0
C1247 C 0.43395 0.79385 0.93642 0.0
C1248 C 0.41417 0.78659 0.93072 0.0
C1249 C 0.41242 0.77057 0.91605 0.0
C1250 C 0.43016 0.76255 0.90649 0.0
C1251 C 0.39528 0.79647 0.93929 0.0
C1252 C 0.38163 0.78452 0.95132 0.0
C1253 C 0.39103 0.81774 0.93604 0.0
C1254 C 0.4045 0.83095 0.92285 0.0
C1255 C 0.40845 0.82549 0.90208 0.0
C1256 C 0.42137 0.83787 0.88983 0.0
C1257 C 0.43031 0.85586 0.89812 0.0
C1258 C 0.42628 0.86153 0.91867 0.0
C1259 C 0.41339 0.84918 0.931 0.0
H1260 H 0.44031 0.86543 0.88861 0.0
H1261 H 0.31684 0.74593 0.01027 0.0
H1262 H 0.87959 0.43892 0.79061 0.0
H1263 H 0.89633 0.40789 0.8045 0.0
H1264 H 0.94941 0.41867 0.76524 0.0
H1265 H 0.93277 0.45001 0.75133 0.0
H1266 H 0.93497 0.37627 0.76606 0.0
H1267 H 0.95485 0.43072 0.81303 0.0
H1268 H 0.94879 0.46067 0.83611 0.0
H1269 H 0.90987 0.42313 0.87503 0.0
H1270 H 0.91546 0.39301 0.85199 0.0
H1271 H 0.99916 0.30296 0.81985 0.0
H1272 H 0.98519 0.33368 0.80235 0.0
H1273 H 0.93403 0.335 0.84549 0.0
H1274 H 0.94813 0.30466 0.86324 0.0
H1275 H 0.94992 0.37239 0.84157 0.0
H1276 H 0.92817 0.31859 0.79457 0.0
H1277 H 0.93268 0.28845 0.77136 0.0
H1278 H 0.97345 0.32411 0.73257 0.0
H1279 H 0.9694 0.3544 0.75572 0.0
C1280 C 0.8948 0.43468 0.78486 0.0
C1281 C 0.90492 0.44693 0.76994 0.0
C1282 C 0.90435 0.41697 0.79285 0.0
C1283 C 0.92414 0.41109 0.78598 0.0
C1284 C 0.93412 0.42299 0.77073 0.0
C1285 C 0.92465 0.44089 0.76288 0.0
C1286 C 0.93444 0.39271 0.79518 0.0
C1287 C 0.93859 0.37549 0.7825 0.0
C1288 C 0.9387 0.39162 0.81669 0.0
C1289 C 0.93543 0.40966 0.83068 0.0
C1290 C 0.94487 0.42889 0.82642 0.0
C1291 C 0.94154 0.44589 0.83951 0.0
C1292 C 0.92891 0.44382 0.857 0.0
C1293 C 0.91963 0.42472 0.86146 0.0
C1294 C 0.92289 0.40767 0.84841 0.0
C1295 C 0.98485 0.30973 0.82547 0.0
C1296 C 0.97474 0.30142 0.84291 0.0
C1297 C 0.97685 0.32724 0.81543 0.0
C1298 C 0.95848 0.3366 0.82253 0.0
C1299 C 0.94825 0.3281 0.83977 0.0
C1300 C 0.95628 0.31071 0.84985 0.0
C1301 C 0.95021 0.35567 0.81254 0.0
C1302 C 0.94646 0.37311 0.82509 0.0
C1303 C 0.94619 0.35687 0.79094 0.0
C1304 C 0.94867 0.33868 0.77701 0.0
C1305 C 0.93824 0.31995 0.78119 0.0
C1306 C 0.94069 0.30285 0.76803 0.0
C1307 C 0.9534 0.30434 0.75054 0.0
C1308 C 0.96364 0.32296 0.74615 0.0
C1309 C 0.96127 0.3401 0.75928 0.0
H1310 H 0.95526 0.29109 0.74036 0.0
H1311 H 0.92635 0.457 0.86711 0.0
H1312 H 0.30646 0.14408 0.54959 0.0
H1313 H 0.3367 0.16332 0.56217 0.0
H1314 H 0.33133 0.20578 0.51078 0.0
H1315 H 0.30061 0.1867 0.49819 0.0
H1316 H 0.37328 0.18847 0.51916 0.0
H1317 H 0.31771 0.2245 0.55308 0.0
H1318 H 0.28549 0.22715 0.57351 0.0
H1319 H 0.31531 0.19723 0.62505 0.0
H1320 H 0.34763 0.1941 0.60482 0.0
H1321 H 0.45395 0.25046 0.5651 0.0
H1322 H 0.42192 0.23935 0.54763 0.0
H1323 H 0.40541 0.20284 0.60128 0.0
H1324 H 0.43685 0.21449 0.61897 0.0
H1325 H 0.3729 0.22205 0.58855 0.0
H1326 H 0.42606 0.18155 0.55486 0.0
H1327 H 0.45835 0.17599 0.5351 0.0
H1328 H 0.43361 0.21113 0.48418 0.0
H1329 H 0.40125 0.21711 0.50376 0.0
C1330 C 0.31165 0.15754 0.54096 0.0
C1331 C 0.30117 0.16393 0.52292 0.0
C1332 C 0.3289 0.16853 0.5482 0.0
C1333 C 0.33616 0.18598 0.53743 0.0
C1334 C 0.3259 0.19234 0.51928 0.0
C1335 C 0.30836 0.18151 0.51218 0.0
C1336 C 0.35457 0.19731 0.54535 0.0
C1337 C 0.37317 0.19624 0.53412 0.0
C1338 C 0.35443 0.20694 0.56509 0.0
C1339 C 0.33506 0.20894 0.57737 0.0
C1340 C 0.31736 0.21833 0.56872 0.0
C1341 C 0.29908 0.21995 0.58027 0.0
C1342 C 0.29834 0.21233 0.60055 0.0
C1343 C 0.3159 0.20312 0.60934 0.0
C1344 C 0.33421 0.20144 0.59784 0.0
C1345 C 0.44346 0.24005 0.57311 0.0
C1346 C 0.44789 0.23332 0.59338 0.0
C1347 C 0.4252 0.23364 0.56309 0.0
C1348 C 0.41128 0.22007 0.57304 0.0
C1349 C 0.4158 0.21337 0.59328 0.0
C1350 C 0.43383 0.21998 0.60337 0.0
C1351 C 0.39192 0.21279 0.56264 0.0
C1352 C 0.37307 0.21462 0.57342 0.0
C1353 C 0.39193 0.20356 0.54264 0.0
C1354 C 0.41136 0.19999 0.53087 0.0
C1355 C 0.42758 0.18823 0.53952 0.0
C1356 C 0.44587 0.18498 0.52834 0.0
C1357 C 0.44806 0.19326 0.50843 0.0
C1358 C 0.43192 0.20476 0.49962 0.0
C1359 C 0.41359 0.20808 0.51075 0.0
H1360 H 0.46223 0.19072 0.4998 0.0
H1361 H 0.28417 0.21359 0.60947 0.0
H1362 H 0.54376 0.71634 0.32491 0.0
H1363 H 0.55908 0.68557 0.30869 0.0
H1364 H 0.5235 0.6462 0.34953 0.0
H1365 H 0.50859 0.67687 0.3661 0.0
H1366 H 0.56169 0.63275 0.34773 0.0
H1367 H 0.51064 0.65255 0.29754 0.0
H1368 H 0.49227 0.67601 0.27356 0.0
H1369 H 0.54827 0.68456 0.23851 0.0
H1370 H 0.56707 0.66135 0.26247 0.0
H1371 H 0.57575 0.53801 0.29124 0.0
H1372 H 0.55942 0.56903 0.30612 0.0
H1373 H 0.6043 0.60779 0.27511 0.0
H1374 H 0.62093 0.57688 0.26051 0.0
H1375 H 0.56136 0.62118 0.27153 0.0
H1376 H 0.61199 0.60084 0.32279 0.0
H1377 H 0.62915 0.57623 0.34653 0.0
H1378 H 0.57185 0.56752 0.37938 0.0
H1379 H 0.55427 0.59185 0.35561 0.0
C1380 C 0.53915 0.70112 0.33034 0.0
C1381 C 0.52497 0.69901 0.34675 0.0
C1382 C 0.54784 0.68353 0.32101 0.0
C1383 C 0.5423 0.66352 0.32774 0.0
C1384 C 0.52805 0.66144 0.34408 0.0
C1385 C 0.51949 0.679 0.35349 0.0
C1386 C 0.55165 0.64474 0.31812 0.0
C1387 C 0.56134 0.63012 0.33109 0.0
C1388 C 0.55156 0.64141 0.29637 0.0
C1389 C 0.54032 0.65538 0.28194 0.0
C1390 C 0.51909 0.65957 0.28483 0.0
C1391 C 0.50859 0.67279 0.27122 0.0
C1392 C 0.51911 0.68182 0.25456 0.0
C1393 C 0.54015 0.67758 0.25144 0.0
C1394 C 0.55073 0.66438 0.26503 0.0
C1395 C 0.58209 0.55315 0.28757 0.0
C1396 C 0.59964 0.55506 0.27479 0.0
C1397 C 0.57278 0.57082 0.29609 0.0
C1398 C 0.58071 0.59065 0.29173 0.0
C1399 C 0.59796 0.59261 0.27862 0.0
C1400 C 0.60747 0.57495 0.27038 0.0
C1401 C 0.57126 0.60935 0.30116 0.0
C1402 C 0.56162 0.6239 0.28816 0.0
C1403 C 0.57119 0.61252 0.32288 0.0
C1404 C 0.58176 0.59799 0.33728 0.0
C1405 C 0.603 0.59353 0.33495 0.0
C1406 C 0.61281 0.57966 0.34844 0.0
C1407 C 0.60158 0.57027 0.36441 0.0
C1408 C 0.58052 0.57478 0.36698 0.0
C1409 C 0.57063 0.58862 0.35351 0.0
H1410 H 0.60921 0.55953 0.37483 0.0
H1411 H 0.51095 0.69205 0.24403 0.0
H1412 H 0.06672 0.78668 0.12747 0.0
H1413 H 0.09785 0.80205 0.11217 0.0
H1414 H 0.07938 0.77923 0.05185 0.0
H1415 H 0.04795 0.76419 0.06701 0.0
H1416 H 0.13028 0.78657 0.09281 0.0
H1417 H 0.09462 0.81366 0.01486 0.0
H1418 H 0.06075 0.82478 0.0008 0.0
H1419 H 0.04195 0.84495 0.06149 0.0
H1420 H 0.07579 0.83421 0.07584 0.0
H1421 H 0.21116 0.81688 0.0243 0.0
H1422 H 0.18012 0.80067 0.03907 0.0
H1423 H 0.15321 0.86119 0.04888 0.0
H1424 H 0.18399 0.87743 0.03378 0.0
H1425 H 0.12497 0.83561 0.03372 0.0
H1426 H 0.17474 0.83377 0.08904 0.0
H1427 H 0.20831 0.82579 0.10566 0.0
H1428 H 0.19832 0.76071 0.09494 0.0
H1429 H 0.1648 0.76833 0.07799 0.0
C1430 C 0.0693 0.78492 0.11094 0.0
C1431 C 0.05485 0.77433 0.0984 0.0
C1432 C 0.08713 0.79365 0.10224 0.0
C1433 C 0.09086 0.79199 0.08083 0.0
C1434 C 0.07667 0.78101 0.06835 0.0
C1435 C 0.05875 0.77236 0.07703 0.0
C1436 C 0.10949 0.80198 0.07162 0.0
C1437 C 0.12912 0.79724 0.07984 0.0
C1438 C 0.10798 0.8162 0.05495 0.0
C1439 C 0.08765 0.82292 0.04644 0.0
C1440 C 0.08328 0.82053 0.02518 0.0
C1441 C 0.06408 0.82676 0.01717 0.0
C1442 C 0.04918 0.8355 0.03026 0.0
C1443 C 0.05347 0.8381 0.05138 0.0
C1444 C 0.07264 0.83192 0.05946 0.0
C1445 C 0.19861 0.82671 0.02959 0.0
C1446 C 0.20002 0.84842 0.02794 0.0
C1447 C 0.18092 0.81744 0.03809 0.0
C1448 C 0.16442 0.82973 0.04528 0.0
C1449 C 0.16573 0.8514 0.04342 0.0
C1450 C 0.18337 0.86067 0.03486 0.0
C1451 C 0.14578 0.82006 0.05479 0.0
C1452 C 0.12615 0.82484 0.0466 0.0
C1453 C 0.14725 0.80628 0.07183 0.0
C1454 C 0.16737 0.80164 0.08206 0.0
C1455 C 0.17978 0.81777 0.09008 0.0
C1456 C 0.19879 0.81331 0.09959 0.0
C1457 C 0.20547 0.79276 0.10131 0.0
C1458 C 0.19314 0.77662 0.09357 0.0
C1459 C 0.17413 0.781 0.08403 0.0
H1460 H 0.22019 0.78934 0.10868 0.0
H1461 H 0.03433 0.84029 0.02403 0.0
H1462 H 0.74747 0.89019 0.57831 0.0
H1463 H 0.73418 0.90781 0.60915 0.0
H1464 H 0.69706 0.9478 0.57026 0.0
H1465 H 0.71128 0.9309 0.53932 0.0
H1466 H 0.71115 0.96964 0.60015 0.0
H1467 H 0.6767 0.90399 0.59721 0.0
H1468 H 0.67362 0.86589 0.59484 0.0
H1469 H 0.70776 0.85943 0.65179 0.0
H1470 H 0.71128 0.89751 0.65436 0.0
H1471 H 0.63538 0.99476 0.67812 0.0
H1472 H 0.65319 0.98078 0.64759 0.0
H1473 H 0.70165 0.95654 0.68691 0.0
H1474 H 0.68412 0.97087 0.71754 0.0
H1475 H 0.68235 0.92726 0.65758 0.0
H1476 H 0.71413 0.99524 0.65985 0.0
H1477 H 0.7136 0.03349 0.66131 0.0
H1478 H 0.67948 0.03536 0.60399 0.0
H1479 H 0.67955 0.99709 0.60235 0.0
C1480 C 0.73655 0.90281 0.57637 0.0
C1481 C 0.73028 0.90911 0.55647 0.0
C1482 C 0.72885 0.9128 0.594 0.0
C1483 C 0.7142 0.92884 0.59212 0.0
C1484 C 0.70828 0.93543 0.57217 0.0
C1485 C 0.71636 0.92575 0.5545 0.0
C1486 C 0.7049 0.93856 0.61092 0.0
C1487 C 0.70465 0.96032 0.61256 0.0
C1488 C 0.69656 0.92649 0.62732 0.0
C1489 C 0.69444 0.90359 0.62586 0.0
C1490 C 0.68368 0.89444 0.60915 0.0
C1491 C 0.68184 0.87285 0.60778 0.0
C1492 C 0.69054 0.86024 0.62312 0.0
C1493 C 0.70106 0.86921 0.6399 0.0
C1494 C 0.70297 0.8908 0.64133 0.0
C1495 C 0.64993 0.98663 0.68024 0.0
C1496 C 0.65839 0.98388 0.70018 0.0
C1497 C 0.66009 0.9787 0.6628 0.0
C1498 C 0.67872 0.96768 0.66505 0.0
C1499 C 0.68729 0.96505 0.68491 0.0
C1500 C 0.67732 0.97329 0.70234 0.0
C1501 C 0.68873 0.95816 0.6467 0.0
C1502 C 0.68899 0.93646 0.64515 0.0
C1503 C 0.69658 0.97027 0.6302 0.0
C1504 C 0.69668 0.99329 0.63108 0.0
C1505 C 0.70636 0.0038 0.64765 0.0
C1506 C 0.70618 0.02549 0.64849 0.0
C1507 C 0.69647 0.03685 0.63278 0.0
C1508 C 0.68698 0.02654 0.61616 0.0
C1509 C 0.68711 0.00485 0.61526 0.0
H1510 H 0.69634 0.05364 0.63346 0.0
H1511 H 0.6891 0.84353 0.62204 0.0
H1512 H 0.86761 0.95122 0.30962 0.0
H1513 H 0.84982 0.93663 0.33976 0.0
H1514 H 0.7999 0.98042 0.33174 0.0
H1515 H 0.81753 0.99497 0.30123 0.0
H1516 H 0.81691 0.97709 0.37366 0.0
H1517 H 0.78992 0.93386 0.31865 0.0
H1518 H 0.79289 0.91098 0.28807 0.0
H1519 H 0.82884 0.86762 0.32365 0.0
H1520 H 0.82633 0.89039 0.35439 0.0
H1521 H 0.75453 0.93154 0.45205 0.0
H1522 H 0.76719 0.94701 0.4198 0.0
H1523 H 0.80848 0.89496 0.41112 0.0
H1524 H 0.79481 0.8789 0.44264 0.0
H1525 H 0.79358 0.90369 0.37623 0.0
H1526 H 0.82427 0.94586 0.42967 0.0
H1527 H 0.82482 0.96836 0.4607 0.0
H1528 H 0.78661 0.01301 0.42934 0.0
H1529 H 0.78561 0.99065 0.3982 0.0
C1530 C 0.8528 0.95769 0.3142 0.0
C1531 C 0.84392 0.97421 0.30308 0.0
C1532 C 0.84265 0.94931 0.33138 0.0
C1533 C 0.82354 0.95741 0.33788 0.0
C1534 C 0.81464 0.97397 0.3269 0.0
C1535 C 0.82467 0.98219 0.30948 0.0
C1536 C 0.81316 0.9487 0.35642 0.0
C1537 C 0.81144 0.96116 0.3742 0.0
C1538 C 0.80673 0.92773 0.35719 0.0
C1539 C 0.80807 0.91392 0.33878 0.0
C1540 C 0.79859 0.91952 0.31992 0.0
C1541 C 0.80016 0.90656 0.30256 0.0
C1542 C 0.81108 0.88788 0.3039 0.0
C1543 C 0.82039 0.8821 0.32263 0.0
C1544 C 0.81888 0.89502 0.34003 0.0
C1545 C 0.76631 0.92345 0.44322 0.0
C1546 C 0.77377 0.90409 0.44982 0.0
C1547 C 0.77365 0.93235 0.42485 0.0
C1548 C 0.78913 0.92239 0.41313 0.0
C1549 C 0.79653 0.90299 0.4198 0.0
C1550 C 0.78879 0.89384 0.43785 0.0
C1551 C 0.7975 0.93197 0.39383 0.0
C1552 C 0.79887 0.91969 0.37583 0.0
C1553 C 0.80408 0.95299 0.393 0.0
C1554 C 0.80468 0.96648 0.41169 0.0
C1555 C 0.81586 0.96041 0.42945 0.0
C1556 C 0.81628 0.97314 0.44705 0.0
C1557 C 0.80571 0.99207 0.44701 0.0
C1558 C 0.79476 0.99833 0.42936 0.0
C1559 C 0.79427 0.98564 0.41172 0.0
H1560 H 0.80605 0.00191 0.46065 0.0
H1561 H 0.81229 0.87787 0.29045 0.0
H1562 H 0.78212 0.06897 0.04337 0.0
H1563 H 0.79512 0.05312 0.07533 0.0
H1564 H 0.77638 0.10732 0.11002 0.0
H1565 H 0.76417 0.12353 0.07796 0.0
H1566 H 0.81271 0.09638 0.12237 0.0
H1567 H 0.74896 0.05949 0.11135 0.0
H1568 H 0.72335 0.03867 0.09177 0.0
H1569 H 0.76775 0.98945 0.08529 0.0
H1570 H 0.79372 0.01009 0.1046 0.0
H1571 H 0.82832 0.04957 0.22127 0.0
H1572 H 0.81091 0.06505 0.19117 0.0
H1573 H 0.83418 0.01582 0.15218 0.0
H1574 H 0.85136 1.00019 0.18215 0.0
H1575 H 0.79394 0.02468 0.14329 0.0
H1576 H 0.85793 0.06288 0.15336 0.0
H1577 H 0.88293 0.08379 0.17361 0.0
H1578 H 0.83674 0.1309 0.18269 0.0
H1579 H 0.81136 0.11012 0.16272 0.0
C1580 C 0.78071 0.07744 0.05784 0.0
C1581 C 0.77212 0.09746 0.0582 0.0
C1582 C 0.78803 0.06833 0.07613 0.0
C1583 C 0.78645 0.07887 0.09521 0.0
C1584 C 0.77778 0.09886 0.09554 0.0
C1585 C 0.77076 0.10809 0.07722 0.0
C1586 C 0.79438 0.06935 0.11472 0.0
C1587 C 0.8083 0.08082 0.12708 0.0
C1588 C 0.78897 0.04891 0.12079 0.0
C1589 C 0.77334 0.03642 0.10927 0.0
C1590 C 0.75331 0.04428 0.10563 0.0
C1591 C 0.73872 0.03251 0.0946 0.0
C1592 C 0.74394 0.01277 0.08725 0.0
C1593 C 0.76374 0.00475 0.09098 0.0
C1594 C 0.77839 0.01647 0.10198 0.0
C1595 C 0.82957 0.04198 0.20631 0.0
C1596 C 0.84128 0.02373 0.20404 0.0
C1597 C 0.81969 0.05087 0.18912 0.0
C1598 C 0.82146 0.04171 0.16938 0.0
C1599 C 0.83262 0.02316 0.16724 0.0
C1600 C 0.84249 0.01428 0.18438 0.0
C1601 C 0.81224 0.05169 0.15077 0.0
C1602 C 0.79815 0.0403 0.13859 0.0
C1603 C 0.81737 0.07224 0.14494 0.0
C1604 C 0.83269 0.08485 0.15673 0.0
C1605 C 0.85306 0.07763 0.15979 0.0
C1606 C 0.86731 0.08947 0.1712 0.0
C1607 C 0.86141 0.10864 0.17948 0.0
C1608 C 0.84128 0.11604 0.17629 0.0
C1609 C 0.82696 0.10425 0.16492 0.0
H1610 H 0.87246 0.11777 0.18831 0.0
H1611 H 0.73263 0.00369 0.07871 0.0
H1612 H 0.63406 0.05019 0.80993 0.0
H1613 H 0.65192 0.06444 0.84037 0.0
H1614 H 0.6969 0.01504 0.83733 0.0
H1615 H 0.67933 0.00091 0.80644 0.0
H1616 H 0.67748 0.02442 0.87897 0.0
H1617 H 0.7139 0.05649 0.8219 0.0
H1618 H 0.71605 0.07593 0.78903 0.0
H1619 H 0.68549 0.12791 0.81739 0.0
H1620 H 0.68286 0.10865 0.85036 0.0
H1621 H 0.74434 0.06795 0.95546 0.0
H1622 H 0.73041 0.05129 0.9242 0.0
H1623 H 0.69738 0.10753 0.90899 0.0
H1624 H 0.7121 0.12449 0.93965 0.0
H1625 H 0.71248 0.09303 0.8756 0.0
H1626 H 0.67354 0.0626 0.93112 0.0
H1627 H 0.66815 0.04412 0.96418 0.0
H1628 H 0.69927 0.99054 0.93969 0.0
H1629 H 0.70509 0.0088 0.90655 0.0
C1630 C 0.64774 0.04234 0.81574 0.0
C1631 C 0.65534 0.02446 0.80582 0.0
C1632 C 0.65793 0.05051 0.83309 0.0
C1633 C 0.67572 0.0408 0.84101 0.0
C1634 C 0.68317 0.02273 0.8314 0.0
C1635 C 0.67319 0.01474 0.81377 0.0
C1636 C 0.68653 0.04976 0.85925 0.0
C1637 C 0.68547 0.03925 0.87825 0.0
C1638 C 0.69631 0.06938 0.85831 0.0
C1639 C 0.69801 0.08105 0.83854 0.0
C1640 C 0.70747 0.072 0.82108 0.0
C1641 C 0.70881 0.083 0.80244 0.0
C1642 C 0.70087 0.10312 0.8011 0.0
C1643 C 0.69162 0.11231 0.81843 0.0
C1644 C 0.69022 0.10136 0.83711 0.0
C1645 C 0.73412 0.07673 0.9454 0.0
C1646 C 0.72925 0.09748 0.94999 0.0
C1647 C 0.72606 0.06717 0.9276 0.0
C1648 C 0.71252 0.078 0.91434 0.0
C1649 C 0.70778 0.0988 0.9189 0.0
C1650 C 0.71615 0.10848 0.93647 0.0
C1651 C 0.70336 0.06782 0.89565 0.0
C1652 C 0.70467 0.07812 0.87647 0.0
C1653 C 0.69342 0.04817 0.89655 0.0
C1654 C 0.68995 0.03715 0.91644 0.0
C1655 C 0.67938 0.04693 0.93284 0.0
C1656 C 0.67622 0.03649 0.95158 0.0
C1657 C 0.68342 0.01619 0.95406 0.0
C1658 C 0.69374 0.00627 0.93777 0.0
C1659 C 0.69696 0.01666 0.919 0.0
H1660 H 0.68096 0.00813 0.96858 0.0
H1661 H 0.70192 0.11161 0.78666 0.0
H1662 H 0.53983 0.7125 0.92935 0.0
H1663 H 0.57157 0.69979 0.94574 0.0
H1664 H 0.60728 0.74595 0.91283 0.0
H1665 H 0.57561 0.75815 0.89576 0.0
H1666 H 0.62611 0.71102 0.91009 0.0
H1667 H 0.59741 0.7488 0.9668 0.0
H1668 H 0.57067 0.75976 0.99185 0.0
H1669 H 0.56717 0.69769 0.0158 0.0
H1670 H 0.5937 0.68628 0.9907 0.0
H1671 H 0.71808 0.68706 0.96834 0.0
H1672 H 0.68789 0.70643 0.95547 0.0
H1673 H 0.64749 0.65666 0.97487 0.0
H1674 H 0.67748 0.6372 0.98753 0.0
H1675 H 0.63279 0.6967 0.98547 0.0
H1676 H 0.66 0.6593 0.9261 0.0
H1677 H 0.68743 0.64935 0.90137 0.0
H1678 H 0.69452 0.71305 0.88311 0.0
H1679 H 0.66732 0.72342 0.90798 0.0
C1680 C 0.55442 0.72008 0.92579 0.0
C1681 C 0.55525 0.73632 0.9113 0.0
C1682 C 0.57257 0.71287 0.93525 0.0
C1683 C 0.59186 0.72208 0.93077 0.0
C1684 C 0.59262 0.73859 0.91656 0.0
C1685 C 0.57451 0.74559 0.90687 0.0
C1686 C 0.61132 0.71373 0.94 0.0
C1687 C 0.62767 0.7083 0.92664 0.0
C1688 C 0.61336 0.70985 0.96156 0.0
C1689 C 0.59744 0.71665 0.97674 0.0
C1690 C 0.59084 0.73745 0.97731 0.0
C1691 C 0.57573 0.74375 0.99153 0.0
C1692 C 0.5672 0.72942 0.00538 0.0
C1693 C 0.57379 0.70877 0.00506 0.0
C1694 C 0.58888 0.70238 0.99085 0.0
C1695 C 0.70274 0.68032 0.96993 0.0
C1696 C 0.70012 0.66059 0.97883 0.0
C1697 C 0.68555 0.69137 0.96257 0.0
C1698 C 0.6655 0.68292 0.96418 0.0
C1699 C 0.66283 0.66346 0.97353 0.0
C1700 C 0.67999 0.65233 0.98065 0.0
C1701 C 0.64727 0.69392 0.95552 0.0
C1702 C 0.6312 0.69975 0.96898 0.0
C1703 C 0.64556 0.6984 0.93411 0.0
C1704 C 0.66181 0.69216 0.91907 0.0
C1705 C 0.66753 0.6712 0.91694 0.0
C1706 C 0.68301 0.66549 0.90288 0.0
C1707 C 0.69276 0.68057 0.89072 0.0
C1708 C 0.68699 0.70139 0.89257 0.0
C1709 C 0.67154 0.7072 0.90664 0.0
H1710 H 0.70474 0.67611 0.87984 0.0
H1711 H 0.5555 0.73433 0.01638 0.0
H1712 H 0.06836 0.0506 0.76187 0.0
H1713 H 0.05217 0.08238 0.77517 0.0
H1714 H 0.10997 0.09981 0.80441 0.0
H1715 H 0.12616 0.06813 0.79131 0.0
H1716 H 0.07724 0.10439 0.83048 0.0
H1717 H 0.09439 0.1231 0.76014 0.0
H1718 H 0.09401 0.11899 0.72206 0.0
H1719 H 0.02753 0.1239 0.7217 0.0
H1720 H 0.02749 0.12775 0.75983 0.0
H1721 H 0.05818 0.20808 0.85717 0.0
H1722 H 0.07257 0.17712 0.84072 0.0
H1723 H 0.01396 0.16573 0.81012 0.0
H1724 H 0.99963 0.19714 0.82612 0.0
H1725 H 0.04526 0.15723 0.78452 0.0
H1726 H 0.02776 0.13917 0.85442 0.0
H1727 H 0.02766 0.14296 0.89253 0.0
H1728 H 0.09395 0.13607 0.89388 0.0
H1729 H 0.09449 0.13253 0.85574 0.0
C1730 C 0.07759 0.06123 0.77112 0.0
C1731 C 0.09852 0.0569 0.77554 0.0
C1732 C 0.06836 0.07941 0.77863 0.0
C1733 C 0.07992 0.09354 0.79065 0.0
C1734 C 0.10077 0.08913 0.79517 0.0
C1735 C 0.11001 0.07104 0.78763 0.0
C1736 C 0.07031 0.11279 0.79888 0.0
C1737 C 0.07045 0.11606 0.82041 0.0
C1738 C 0.06092 0.12771 0.78578 0.0
C1739 C 0.06093 0.12549 0.76286 0.0
C1740 C 0.07968 0.12313 0.75196 0.0
C1741 C 0.07954 0.12088 0.73036 0.0
C1742 C 0.06075 0.12113 0.71948 0.0
C1743 C 0.04207 0.12368 0.73016 0.0
C1744 C 0.04212 0.12591 0.75176 0.0
C1745 C 0.0484 0.19909 0.84679 0.0
C1746 C 0.02773 0.20493 0.84305 0.0
C1747 C 0.05661 0.18133 0.83748 0.0
C1748 C 0.04421 0.16883 0.82453 0.0
C1749 C 0.02379 0.17507 0.82014 0.0
C1750 C 0.01561 0.19299 0.8293 0.0
C1751 C 0.05244 0.14898 0.81613 0.0
C1752 C 0.05198 0.14555 0.7946 0.0
C1753 C 0.06146 0.13381 0.82924 0.0
C1754 C 0.06117 0.13576 0.8522 0.0
C1755 C 0.04233 0.1386 0.86283 0.0
C1756 C 0.0422 0.14068 0.88444 0.0
C1757 C 0.06079 0.1398 0.89561 0.0
C1758 C 0.07956 0.13677 0.8852 0.0
C1759 C 0.07979 0.1347 0.86359 0.0
H1760 H 0.06066 0.14143 0.91234 0.0
H1761 H 0.06068 0.11939 0.70276 0.0
H1762 H 0.96029 0.2762 0.436 0.0
H1763 H 0.92858 0.28933 0.4523 0.0
H1764 H 0.89662 0.28537 0.39346 0.0
H1765 H 0.92834 0.27268 0.37704 0.0
H1766 H 0.88833 0.32108 0.41191 0.0
H1767 H 0.88874 0.24937 0.4326 0.0
H1768 H 0.90354 0.21775 0.44822 0.0
H1769 H 0.90868 0.24879 0.50707 0.0
H1770 H 0.89417 0.28071 0.49172 0.0
H1771 H 0.78603 0.33526 0.44732 0.0
H1772 H 0.817 0.31893 0.43275 0.0
H1773 H 0.84798 0.32452 0.49197 0.0
H1774 H 0.81684 0.34047 0.50676 0.0
H1775 H 0.85695 0.28799 0.47391 0.0
H1776 H 0.85684 0.35964 0.45326 0.0
H1777 H 0.84201 0.39133 0.43779 0.0
H1778 H 0.83653 0.36042 0.37889 0.0
H1779 H 0.85107 0.32845 0.3941 0.0
C1780 C 0.94649 0.27812 0.42657 0.0
C1781 C 0.94678 0.2734 0.40526 0.0
C1782 C 0.92835 0.28551 0.43591 0.0
C1783 C 0.91013 0.28811 0.42416 0.0
C1784 C 0.91047 0.28349 0.40285 0.0
C1785 C 0.9286 0.2762 0.3935 0.0
C1786 C 0.89078 0.29603 0.43388 0.0
C1787 C 0.88133 0.31366 0.42529 0.0
C1788 C 0.88191 0.28669 0.45168 0.0
C1789 C 0.89056 0.26749 0.46096 0.0
C1790 C 0.89317 0.2495 0.44883 0.0
C1791 C 0.90148 0.23152 0.45764 0.0
C1792 C 0.9071 0.23128 0.47861 0.0
C1793 C 0.90436 0.24901 0.49082 0.0
C1794 C 0.89607 0.26705 0.48208 0.0
C1795 C 0.79935 0.3328 0.4573 0.0
C1796 C 0.79907 0.33927 0.47814 0.0
C1797 C 0.81708 0.32356 0.44893 0.0
C1798 C 0.83496 0.32086 0.46116 0.0
C1799 C 0.8344 0.32652 0.48222 0.0
C1800 C 0.81661 0.33566 0.49064 0.0
C1801 C 0.85445 0.31291 0.4518 0.0
C1802 C 0.86396 0.29536 0.4605 0.0
C1803 C 0.86342 0.32232 0.43409 0.0
C1804 C 0.85486 0.3416 0.42487 0.0
C1805 C 0.85234 0.35956 0.43705 0.0
C1806 C 0.84401 0.37758 0.42832 0.0
C1807 C 0.83828 0.37787 0.40738 0.0
C1808 C 0.84095 0.36016 0.39511 0.0
C1809 C 0.84925 0.3421 0.40377 0.0
H1810 H 0.83182 0.39183 0.40066 0.0
H1811 H 0.91353 0.21734 0.4854 0.0
H1812 H 0.56807 0.96803 0.78985 0.0
H1813 H 0.55009 0.93732 0.80335 0.0
H1814 H 0.5941 0.89769 0.77222 0.0
H1815 H 0.61209 0.92825 0.75866 0.0
H1816 H 0.55378 0.88363 0.76799 0.0
H1817 H 0.59953 0.90685 0.8227 0.0
H1818 H 0.6141 0.93233 0.84739 0.0
H1819 H 0.55411 0.93991 0.87535 0.0
H1820 H 0.53912 0.91466 0.85061 0.0
H1821 H 0.53987 0.78894 0.82286 0.0
H1822 H 0.55274 0.82047 0.80609 0.0
H1823 H 0.51157 0.85746 0.84377 0.0
H1824 H 0.49908 0.82604 0.86096 0.0
H1825 H 0.54868 0.8738 0.84419 0.0
H1826 H 0.50297 0.84931 0.79088 0.0
H1827 H 0.48812 0.82401 0.76617 0.0
H1828 H 0.54703 0.81902 0.73548 0.0
H1829 H 0.56231 0.84409 0.76019 0.0
C1830 C 0.57383 0.95277 0.78581 0.0
C1831 C 0.59154 0.95053 0.7733 0.0
C1832 C 0.56358 0.93526 0.79356 0.0
C1833 C 0.57087 0.91524 0.78891 0.0
C1834 C 0.58822 0.91299 0.77598 0.0
C1835 C 0.59852 0.93047 0.76832 0.0
C1836 C 0.56084 0.89662 0.79801 0.0
C1837 C 0.5528 0.88135 0.78465 0.0
C1838 C 0.55916 0.89393 0.81973 0.0
C1839 C 0.56817 0.90904 0.83466 0.0
C1840 C 0.58941 0.91408 0.834 0.0
C1841 C 0.59775 0.92846 0.84803 0.0
C1842 C 0.58503 0.93778 0.86289 0.0
C1843 C 0.56394 0.9327 0.8638 0.0
C1844 C 0.55552 0.91835 0.84979 0.0
C1845 C 0.53341 0.80378 0.82739 0.0
C1846 C 0.51848 0.80503 0.84322 0.0
C1847 C 0.54071 0.8218 0.81774 0.0
C1848 C 0.533 0.84137 0.82353 0.0
C1849 C 0.51778 0.84257 0.83906 0.0
C1850 C 0.5106 0.82459 0.84882 0.0
C1851 C 0.54156 0.86066 0.81419 0.0
C1852 C 0.54943 0.87607 0.82752 0.0
C1853 C 0.54298 0.8635 0.79243 0.0
C1854 C 0.53383 0.84845 0.77751 0.0
C1855 C 0.5128 0.8427 0.77896 0.0
C1856 C 0.5043 0.82842 0.76494 0.0
C1857 C 0.51663 0.81987 0.7493 0.0
C1858 C 0.53749 0.82563 0.74762 0.0
C1859 C 0.54608 0.8399 0.76161 0.0
H1860 H 0.51002 0.80882 0.73846 0.0
H1861 H 0.59151 0.94891 0.87374 0.0
H1862 H 0.96575 0.18381 0.3738 0.0
H1863 H 0.95414 0.15198 0.35672 0.0
H1864 H 0.98401 0.17126 0.30002 0.0
H1865 H 0.99534 0.20348 0.31698 0.0
H1866 H 0.9463 0.15588 0.29211 0.0
H1867 H 0.00543 0.13339 0.33074 0.0
H1868 H 0.02771 0.12969 0.36169 0.0
H1869 H 0.97907 0.09664 0.39303 0.0
H1870 H 0.95637 0.1004 0.36237 0.0
H1871 H 0.92773 0.05618 0.24664 0.0
H1872 H 0.94611 0.08681 0.26002 0.0
H1873 H 0.91926 0.07661 0.32048 0.0
H1874 H 0.90122 0.04591 0.30734 0.0
H1875 H 0.95933 0.08698 0.32385 0.0
H1876 H 0.89932 0.11265 0.28645 0.0
H1877 H 0.87688 0.1166 0.25563 0.0
H1878 H 0.92758 0.14368 0.22192 0.0
H1879 H 0.95041 0.13963 0.25248 0.0
C1880 C 0.9699 0.18127 0.35771 0.0
C1881 C 0.98153 0.1961 0.34675 0.0
C1882 C 0.96334 0.16301 0.34798 0.0
C1883 C 0.96849 0.15905 0.32717 0.0
C1884 C 0.97993 0.17394 0.31611 0.0
C1885 C 0.98643 0.1923 0.32582 0.0
C1886 C 0.96154 0.13951 0.31698 0.0
C1887 C 0.94949 0.14078 0.29883 0.0
C1888 C 0.96545 0.11982 0.32589 0.0
C1889 C 0.97915 0.11731 0.34429 0.0
C1890 C 0.99943 0.12545 0.34428 0.0
C1891 C 0.01215 0.12332 0.36177 0.0
C1892 C 0.0048 0.11297 0.37933 0.0
C1893 C 0.98474 0.10466 0.37941 0.0
C1894 C 0.97195 0.10676 0.36197 0.0
C1895 C 0.92589 0.06041 0.26281 0.0
C1896 C 0.91298 0.04871 0.27593 0.0
C1897 C 0.93632 0.07795 0.27042 0.0
C1898 C 0.93386 0.08414 0.2912 0.0
C1899 C 0.9214 0.07213 0.3044 0.0
C1900 C 0.91104 0.05461 0.29685 0.0
C1901 C 0.94375 0.1034 0.29926 0.0
C1902 C 0.95638 0.10207 0.317 0.0
C1903 C 0.94039 0.12302 0.28996 0.0
C1904 C 0.92663 0.12562 0.27166 0.0
C1905 C 0.90572 0.11931 0.27242 0.0
C1906 C 0.89293 0.12159 0.255 0.0
C1907 C 0.90082 0.13032 0.23681 0.0
C1908 C 0.9215 0.13687 0.23601 0.0
C1909 C 0.93437 0.1346 0.25337 0.0
H1910 H 0.89089 0.13207 0.22334 0.0
H1911 H 0.01466 0.11136 0.39286 0.0
H1912 H 0.57023 0.03784 0.7141 0.0
H1913 H 0.55388 0.06868 0.69898 0.0
H1914 H 0.60303 0.10702 0.72375 0.0
H1915 H 0.61963 0.07625 0.73865 0.0
H1916 H 0.56149 0.1225 0.73047 0.0
H1917 H 0.60532 0.09626 0.67543 0.0
H1918 H 0.61806 0.06922 0.65151 0.0
H1919 H 0.55691 0.0626 0.62558 0.0
H1920 H 0.54374 0.0894 0.64958 0.0
H1921 H 0.54356 0.21605 0.67616 0.0
H1922 H 0.55825 0.18498 0.69213 0.0
H1923 H 0.5194 0.14652 0.65306 0.0
H1924 H 0.5056 0.17761 0.63624 0.0
H1925 H 0.55493 0.13019 0.65411 0.0
H1926 H 0.51019 0.15561 0.7075 0.0
H1927 H 0.49554 0.18123 0.73188 0.0
H1928 H 0.55496 0.18774 0.76158 0.0
H1929 H 0.57004 0.16235 0.7372 0.0
C1930 C 0.57753 0.05285 0.71634 0.0
C1931 C 0.59623 0.05467 0.72749 0.0
C1932 C 0.5682 0.07041 0.70768 0.0
C1933 C 0.57731 0.09007 0.71022 0.0
C1934 C 0.59578 0.09197 0.72165 0.0
C1935 C 0.60526 0.07439 0.73007 0.0
C1936 C 0.56774 0.10866 0.70072 0.0
C1937 C 0.56021 0.12436 0.71378 0.0
C1938 C 0.56555 0.11066 0.67899 0.0
C1939 C 0.5735 0.09468 0.66444 0.0
C1940 C 0.59455 0.08891 0.66475 0.0
C1941 C 0.60186 0.07365 0.65115 0.0
C1942 C 0.58829 0.06415 0.63707 0.0
C1943 C 0.5674 0.06995 0.63652 0.0
C1944 C 0.56001 0.08518 0.6501 0.0
C1945 C 0.53811 0.20095 0.67107 0.0
C1946 C 0.52342 0.1992 0.65503 0.0
C1947 C 0.54641 0.18317 0.6803 0.0
C1948 C 0.53968 0.1633 0.67412 0.0
C1949 C 0.52487 0.16161 0.65814 0.0
C1950 C 0.51694 0.17938 0.64858 0.0
C1951 C 0.54853 0.14429 0.68383 0.0
C1952 C 0.55601 0.12844 0.67083 0.0
C1953 C 0.55032 0.14199 0.70566 0.0
C1954 C 0.54128 0.15722 0.7204 0.0
C1955 C 0.52017 0.16261 0.71914 0.0
C1956 C 0.51178 0.17708 0.73297 0.0
C1957 C 0.52432 0.18614 0.74824 0.0
C1958 C 0.54527 0.18072 0.74974 0.0
C1959 C 0.55374 0.16628 0.73593 0.0
H1960 H 0.5178 0.19734 0.75893 0.0
H1961 H 0.59398 0.05234 0.62656 0.0
H1962 H 0.1901 0.37378 0.96068 0.0
H1963 H 0.15786 0.35787 0.94848 0.0
H1964 H 0.17377 0.30101 0.97998 0.0
H1965 H 0.20636 0.31679 0.99197 0.0
H1966 H 0.15832 0.29299 0.9422 0.0
H1967 H 0.13769 0.33383 1.00033 0.0
H1968 H 0.13524 0.36519 0.02218 0.0
H1969 H 0.10373 0.39727 0.97299 0.0
H1970 H 0.10627 0.36618 0.95071 0.0
H1971 H 0.05596 0.25131 0.92999 0.0
H1972 H 0.08743 0.26497 0.94667 0.0
H1973 H 0.08075 0.32221 0.91269 0.0
H1974 H 0.04941 0.30864 0.89589 0.0
H1975 H 0.091 0.32827 0.95448 0.0
H1976 H 0.11396 0.28742 0.8959 0.0
H1977 H 0.11625 0.25562 0.87465 0.0
H1978 H 0.14308 0.2229 0.92614 0.0
H1979 H 0.14066 0.25446 0.9478 0.0
C1980 C 0.18678 0.35787 0.96497 0.0
C1981 C 0.20072 0.34656 0.97736 0.0
C1982 C 0.16828 0.34882 0.95808 0.0
C1983 C 0.16321 0.32835 0.96361 0.0
C1984 C 0.17732 0.31685 0.97561 0.0
C1985 C 0.1959 0.32589 0.98246 0.0
C1986 C 0.14321 0.31904 0.95673 0.0
C1987 C 0.14358 0.30052 0.94521 0.0
C1988 C 0.12396 0.32899 0.96042 0.0
C1989 C 0.12233 0.34772 0.97378 0.0
C1990 C 0.13038 0.34762 0.99411 0.0
C1991 C 0.12895 0.36534 0.00658 0.0
C1992 C 0.11938 0.38323 0.99896 0.0
C1993 C 0.11117 0.38341 0.97886 0.0
C1994 C 0.11257 0.36573 0.96631 0.0
C1995 C 0.06111 0.26688 0.92623 0.0
C1996 C 0.05028 0.2789 0.9116 0.0
C1997 C 0.07911 0.27461 0.9357 0.0
C1998 C 0.08649 0.29453 0.93077 0.0
C1999 C 0.07531 0.3068 0.91669 0.0
C2000 C 0.05745 0.29901 0.90708 0.0
C2001 C 0.10621 0.30244 0.93976 0.0
C2002 C 0.10576 0.32068 0.95167 0.0
C2003 C 0.12534 0.29216 0.93657 0.0
C2004 C 0.1269 0.27322 0.92353 0.0
C2005 C 0.12018 0.27339 0.90274 0.0
C2006 C 0.12153 0.25542 0.89062 0.0
C2007 C 0.12975 0.23723 0.89906 0.0
C2008 C 0.13668 0.23699 0.91963 0.0
C2009 C 0.13533 0.25492 0.93184 0.0
H2010 H 0.13079 0.22334 0.88965 0.0
H2011 H 0.11828 0.39693 0.00864 0.0
H2012 H 0.45949 0.73681 0.43986 0.0
H2013 H 0.42907 0.72231 0.45753 0.0
H2014 H 0.40033 0.70986 0.39823 0.0
H2015 H 0.43073 0.72397 0.38052 0.0
H2016 H 0.38823 0.73165 0.45844 0.0
H2017 H 0.37474 0.66411 0.40044 0.0
H2018 H 0.39496 0.64233 0.3763 0.0
H2019 H 0.44985 0.65227 0.41299 0.0
H2020 H 0.4299 0.67385 0.43749 0.0
H2021 H 0.28871 0.6847 0.47329 0.0
H2022 H 0.31982 0.70183 0.4597 0.0
H2023 H 0.35702 0.64961 0.4789 0.0
H2024 H 0.32598 0.63228 0.49208 0.0
H2025 H 0.36645 0.65977 0.44088 0.0
H2026 H 0.35867 0.69661 0.50491 0.0
H2027 H 0.34038 0.71728 0.53142 0.0
H2028 H 0.33146 0.76646 0.4874 0.0
H2029 H 0.34947 0.74596 0.46054 0.0
C2030 C 0.44663 0.73107 0.43061 0.0
C2031 C 0.44757 0.73135 0.40881 0.0
C2032 C 0.42924 0.72286 0.44073 0.0
C2033 C 0.41255 0.71475 0.42921 0.0
C2034 C 0.41317 0.71571 0.40744 0.0
C2035 C 0.43055 0.72382 0.39734 0.0
C2036 C 0.39477 0.70463 0.43984 0.0
C2037 C 0.38344 0.71594 0.45461 0.0
C2038 C 0.38877 0.68399 0.43515 0.0
C2039 C 0.40085 0.67076 0.42068 0.0
C2040 C 0.3911 0.66157 0.4034 0.0
C2041 C 0.40252 0.64927 0.38964 0.0
C2042 C 0.42369 0.64597 0.39307 0.0
C2043 C 0.43347 0.6549 0.41031 0.0
C2044 C 0.42212 0.66718 0.42412 0.0
C2045 C 0.30356 0.67697 0.47476 0.0
C2046 C 0.30491 0.65714 0.48371 0.0
C2047 C 0.32134 0.68681 0.46706 0.0
C2048 C 0.34082 0.67707 0.46838 0.0
C2049 C 0.34219 0.65741 0.47765 0.0
C2050 C 0.32443 0.64754 0.48523 0.0
C2051 C 0.35963 0.68687 0.4593 0.0
C2052 C 0.37118 0.67549 0.44475 0.0
C2053 C 0.36604 0.70727 0.46454 0.0
C2054 C 0.35525 0.71966 0.48066 0.0
C2055 C 0.35267 0.71176 0.50084 0.0
C2056 C 0.34238 0.72346 0.51593 0.0
C2057 C 0.33472 0.74315 0.51108 0.0
C2058 C 0.33738 0.7512 0.49113 0.0
C2059 C 0.34765 0.73956 0.47597 0.0
H2060 H 0.32676 0.75218 0.52279 0.0
H2061 H 0.43251 0.63647 0.3824 0.0
H2062 H 0.87335 0.52121 0.82159 0.0
H2063 H 0.85612 0.53415 0.85281 0.0
H2064 H 0.80013 0.54478 0.81757 0.0
H2065 H 0.8173 0.53179 0.78618 0.0
H2066 H 0.81052 0.57789 0.84314 0.0
H2067 H 0.80235 0.50413 0.8489 0.0
H2068 H 0.81411 0.46773 0.84932 0.0
H2069 H 0.85342 0.4808 0.90169 0.0
H2070 H 0.84211 0.51738 0.90139 0.0
H2071 H 0.74551 0.597 0.92924 0.0
H2072 H 0.76013 0.58114 0.89803 0.0
H2073 H 0.81601 0.56614 0.93183 0.0
H2074 H 0.80133 0.58173 0.96324 0.0
H2075 H 0.80468 0.53463 0.90656 0.0
H2076 H 0.81436 0.60819 0.90029 0.0
H2077 H 0.80358 0.6449 0.89994 0.0
H2078 H 0.7626 0.6326 0.84868 0.0
H2079 H 0.77293 0.59573 0.84891 0.0
C2080 C 0.85737 0.52631 0.82047 0.0
C2081 C 0.84665 0.52545 0.80145 0.0
C2082 C 0.84753 0.53362 0.83834 0.0
C2083 C 0.82679 0.54023 0.83755 0.0
C2084 C 0.81613 0.53969 0.81852 0.0
C2085 C 0.82593 0.53223 0.80063 0.0
C2086 C 0.81636 0.54788 0.85659 0.0
C2087 C 0.80893 0.56833 0.8569 0.0
C2088 C 0.81479 0.53556 0.87469 0.0
C2089 C 0.82153 0.51354 0.875 0.0
C2090 C 0.81363 0.49928 0.8604 0.0
C2091 C 0.82019 0.47861 0.86064 0.0
C2092 C 0.83455 0.47197 0.87549 0.0
C2093 C 0.84232 0.48597 0.89018 0.0
C2094 C 0.83583 0.50668 0.89 0.0
C2095 C 0.76084 0.59015 0.93009 0.0
C2096 C 0.77233 0.59071 0.94866 0.0
C2097 C 0.76921 0.58118 0.91221 0.0
C2098 C 0.7893 0.57275 0.9125 0.0
C2099 C 0.80051 0.57261 0.93123 0.0
C2100 C 0.79211 0.58155 0.94915 0.0
C2101 C 0.79885 0.56467 0.89314 0.0
C2102 C 0.80616 0.54416 0.89277 0.0
C2103 C 0.80043 0.57698 0.87501 0.0
C2104 C 0.79425 0.59915 0.87477 0.0
C2105 C 0.80292 0.61328 0.88905 0.0
C2106 C 0.79691 0.63412 0.88886 0.0
C2107 C 0.78236 0.64107 0.87434 0.0
C2108 C 0.77384 0.62719 0.85994 0.0
C2109 C 0.77977 0.60632 0.86008 0.0
H2110 H 0.77773 0.65721 0.87421 0.0
H2111 H 0.83961 0.45595 0.87564 0.0
H2112 H 0.63552 0.54514 0.18903 0.0
H2113 H 0.65171 0.55634 0.15676 0.0
H2114 H 0.69931 0.50985 0.1643 0.0
H2115 H 0.68354 0.49916 0.19725 0.0
H2116 H 0.71636 0.54379 0.1512 0.0
H2117 H 0.6584 0.50412 0.12843 0.0
H2118 H 0.62189 0.49262 0.12692 0.0
H2119 H 0.60338 0.55311 0.10608 0.0
H2120 H 0.63975 0.56508 0.10775 0.0
H2121 H 0.74852 0.56464 0.04562 0.0
H2122 H 0.73482 0.54575 0.07579 0.0
H2123 H 0.69036 0.59464 0.08621 0.0
H2124 H 0.70404 0.6136 0.05642 0.0
H2125 H 0.67331 0.55408 0.08809 0.0
H2126 H 0.73217 0.59357 0.11487 0.0
H2127 H 0.76912 0.60365 0.11585 0.0
H2128 H 0.78632 0.54041 0.12784 0.0
H2129 H 0.74945 0.52991 0.12664 0.0
C2130 C 0.64943 0.53728 0.18381 0.0
C2131 C 0.65821 0.5212 0.19558 0.0
C2132 C 0.65861 0.5436 0.16526 0.0
C2133 C 0.67648 0.53362 0.15777 0.0
C2134 C 0.68546 0.51771 0.16967 0.0
C2135 C 0.67644 0.51159 0.18846 0.0
C2136 C 0.68586 0.54021 0.13775 0.0
C2137 C 0.70701 0.54562 0.1373 0.0
C2138 C 0.67372 0.5427 0.11954 0.0
C2139 C 0.65181 0.53553 0.11834 0.0
C2140 C 0.64653 0.51501 0.12364 0.0
C2141 C 0.62586 0.5084 0.12275 0.0
C2142 C 0.61032 0.52214 0.11644 0.0
C2143 C 0.61543 0.54249 0.11097 0.0
C2144 C 0.63608 0.54919 0.11185 0.0
C2145 C 0.73579 0.57128 0.05434 0.0
C2146 C 0.72738 0.59061 0.04873 0.0
C2147 C 0.72802 0.56052 0.07155 0.0
C2148 C 0.71163 0.56886 0.08322 0.0
C2149 C 0.70299 0.58794 0.07737 0.0
C2150 C 0.71088 0.59878 0.0604 0.0
C2151 C 0.70353 0.55808 0.10183 0.0
C2152 C 0.68265 0.55188 0.10195 0.0
C2153 C 0.71597 0.55457 0.11958 0.0
C2154 C 0.73809 0.56092 0.12042 0.0
C2155 C 0.74384 0.58179 0.11753 0.0
C2156 C 0.76477 0.58758 0.11817 0.0
C2157 C 0.78007 0.57267 0.12184 0.0
C2158 C 0.77446 0.55194 0.12495 0.0
C2159 C 0.75356 0.54606 0.12431 0.0
H2160 H 0.79626 0.57719 0.12233 0.0
H2161 H 0.59432 0.517 0.11577 0.0
H2162 H 0.7031 0.39059 0.44418 0.0
H2163 H 0.69139 0.4085 0.41303 0.0
H2164 H 0.74302 0.45104 0.41794 0.0
H2165 H 0.75454 0.43342 0.44976 0.0
H2166 H 0.70858 0.47124 0.4064 0.0
H2167 H 0.74411 0.41099 0.38286 0.0
H2168 H 0.75321 0.37385 0.3815 0.0
H2169 H 0.69094 0.35875 0.3628 0.0
H2170 H 0.68137 0.39578 0.36434 0.0
H2171 H 0.68754 0.50261 0.30009 0.0
H2172 H 0.70549 0.48937 0.33106 0.0
H2173 H 0.6546 0.44728 0.34236 0.0
H2174 H 0.63658 0.46049 0.31174 0.0
H2175 H 0.69397 0.42845 0.34386 0.0
H2176 H 0.65847 0.48919 0.37075 0.0
H2177 H 0.65021 0.52656 0.37172 0.0
H2178 H 0.7144 0.54092 0.38298 0.0
H2179 H 0.72308 0.50363 0.38178 0.0
C2180 C 0.71196 0.4038 0.4387 0.0
C2181 C 0.72985 0.4105 0.44928 0.0
C2182 C 0.70529 0.41398 0.42082 0.0
C2183 C 0.71659 0.43082 0.41285 0.0
C2184 C 0.73414 0.43799 0.42373 0.0
C2185 C 0.74072 0.4279 0.44186 0.0
C2186 C 0.71001 0.44057 0.39301 0.0
C2187 C 0.70577 0.46195 0.3926 0.0
C2188 C 0.70626 0.42847 0.37499 0.0
C2189 C 0.71199 0.40617 0.37384 0.0
C2190 C 0.73232 0.39974 0.37858 0.0
C2191 C 0.73757 0.3787 0.37776 0.0
C2192 C 0.72266 0.36395 0.3721 0.0
C2193 C 0.70247 0.3702 0.36719 0.0
C2194 C 0.69714 0.39122 0.368 0.0
C2195 C 0.6802 0.49057 0.30924 0.0
C2196 C 0.66067 0.48257 0.30353 0.0
C2197 C 0.69043 0.48308 0.32691 0.0
C2198 C 0.68133 0.46738 0.33898 0.0
C2199 C 0.66188 0.45937 0.33322 0.0
C2200 C 0.65159 0.46698 0.31576 0.0
C2201 C 0.692 0.4589 0.3575 0.0
C2202 C 0.69708 0.43776 0.35759 0.0
C2203 C 0.69671 0.47126 0.37507 0.0
C2204 C 0.69146 0.49365 0.37592 0.0
C2205 C 0.67085 0.50033 0.37324 0.0
C2206 C 0.66609 0.52149 0.37387 0.0
C2207 C 0.68178 0.53611 0.37734 0.0
C2208 C 0.70227 0.52959 0.38026 0.0
C2209 C 0.70711 0.50844 0.37961 0.0
H2210 H 0.67807 0.55248 0.37782 0.0
H2211 H 0.72675 0.34767 0.37149 0.0
H2212 H 0.8719 0.47911 0.67718 0.0
H2213 H 0.85364 0.467 0.64612 0.0
H2214 H 0.79663 0.46289 0.68091 0.0
H2215 H 0.81485 0.47505 0.71215 0.0
H2216 H 0.80379 0.4282 0.65641 0.0
H2217 H 0.80283 0.50202 0.64838 0.0
H2218 H 0.81788 0.53723 0.6472 0.0
H2219 H 0.85654 0.51929 0.59601 0.0
H2220 H 0.84195 0.48387 0.59708 0.0
H2221 H 0.74145 0.40984 0.56762 0.0
H2222 H 0.75521 0.42644 0.59897 0.0
H2223 H 0.81376 0.43662 0.56816 0.0
H2224 H 0.79998 0.42038 0.53664 0.0
H2225 H 0.80357 0.46959 0.59149 0.0
H2226 H 0.80683 0.39559 0.6009 0.0
H2227 H 0.79283 0.35995 0.60214 0.0
H2228 H 0.75093 0.3778 0.65075 0.0
H2229 H 0.76449 0.41364 0.64959 0.0
C2230 C 0.85548 0.47562 0.67824 0.0
C2231 C 0.84479 0.47806 0.69709 0.0
C2232 C 0.84505 0.4688 0.66046 0.0
C2233 C 0.82374 0.46427 0.66117 0.0
C2234 C 0.81307 0.46637 0.68004 0.0
C2235 C 0.82348 0.47335 0.69783 0.0
C2236 C 0.81274 0.45708 0.6422 0.0
C2237 C 0.8034 0.4374 0.64232 0.0
C2238 C 0.81268 0.46891 0.6237 0.0
C2239 C 0.82142 0.49023 0.62294 0.0
C2240 C 0.81466 0.50553 0.63698 0.0
C2241 C 0.82309 0.52554 0.63631 0.0
C2242 C 0.83819 0.53048 0.62158 0.0
C2243 C 0.84486 0.51544 0.60744 0.0
C2244 C 0.8365 0.4954 0.60805 0.0
C2245 C 0.75717 0.41586 0.56744 0.0
C2246 C 0.76969 0.4137 0.54972 0.0
C2247 C 0.76504 0.42524 0.5854 0.0
C2248 C 0.78563 0.43246 0.58603 0.0
C2249 C 0.79785 0.43112 0.56806 0.0
C2250 C 0.78997 0.4218 0.55006 0.0
C2251 C 0.79475 0.44062 0.60563 0.0
C2252 C 0.80378 0.46047 0.60563 0.0
C2253 C 0.79464 0.42889 0.62422 0.0
C2254 C 0.78651 0.40735 0.62499 0.0
C2255 C 0.79451 0.39195 0.61173 0.0
C2256 C 0.78668 0.37171 0.61244 0.0
C2257 C 0.77095 0.36663 0.62647 0.0
C2258 C 0.76308 0.38177 0.63986 0.0
C2259 C 0.77084 0.40204 0.63919 0.0
H2260 H 0.76491 0.35095 0.62699 0.0
H2261 H 0.8447 0.54598 0.62108 0.0
H2262 H 0.439 0.04469 0.2459 0.0
H2263 H 0.45693 0.07562 0.23252 0.0
H2264 H 0.39919 0.09791 0.20699 0.0
H2265 H 0.38123 0.06736 0.22042 0.0
H2266 H 0.43216 0.0992 0.17889 0.0
H2267 H 0.41694 0.11925 0.24957 0.0
H2268 H 0.418 0.11537 0.28763 0.0
H2269 H 0.48463 0.11769 0.28648 0.0
H2270 H 0.48396 0.12129 0.24833 0.0
H2271 H 0.44828 0.20319 0.15366 0.0
H2272 H 0.43577 0.17157 0.17029 0.0
H2273 H 0.49667 0.1609 0.1961 0.0
H2274 H 0.50929 0.19289 0.17966 0.0
H2275 H 0.46613 0.15178 0.22407 0.0
H2276 H 0.48164 0.13421 0.15388 0.0
H2277 H 0.48094 0.13794 0.1158 0.0
H2278 H 0.4147 0.13016 0.11576 0.0
H2279 H 0.41497 0.12668 0.1539 0.0
C2280 C 0.43017 0.05623 0.23747 0.0
C2281 C 0.40872 0.05362 0.23422 0.0
C2282 C 0.4404 0.07388 0.2299 0.0
C2283 C 0.42935 0.08905 0.21881 0.0
C2284 C 0.40799 0.08638 0.21548 0.0
C2285 C 0.39775 0.06893 0.22323 0.0
C2286 C 0.43991 0.10767 0.21031 0.0
C2287 C 0.43947 0.11077 0.18877 0.0
C2288 C 0.44999 0.12242 0.22317 0.0
C2289 C 0.45041 0.12027 0.24608 0.0
C2290 C 0.43182 0.11872 0.25741 0.0
C2291 C 0.43235 0.11662 0.279 0.0
C2292 C 0.45137 0.11621 0.28946 0.0
C2293 C 0.46991 0.11796 0.27835 0.0
C2294 C 0.46946 0.12004 0.25675 0.0
C2295 C 0.459 0.19423 0.16301 0.0
C2296 C 0.47981 0.20044 0.16523 0.0
C2297 C 0.45184 0.1761 0.17244 0.0
C2298 C 0.46538 0.16365 0.18412 0.0
C2299 C 0.48599 0.17022 0.18706 0.0
C2300 C 0.49318 0.18846 0.17765 0.0
C2301 C 0.45797 0.14355 0.19266 0.0
C2302 C 0.45904 0.14012 0.21416 0.0
C2303 C 0.44855 0.12838 0.17975 0.0
C2304 C 0.44831 0.13034 0.15678 0.0
C2305 C 0.46691 0.13344 0.14577 0.0
C2306 C 0.46659 0.13549 0.12417 0.0
C2307 C 0.44778 0.13433 0.11337 0.0
C2308 C 0.42926 0.13107 0.12415 0.0
C2309 C 0.42948 0.12903 0.14576 0.0
H2310 H 0.44757 0.13592 0.09664 0.0
H2311 H 0.45175 0.11459 0.30618 0.0
H2312 H 0.05214 0.80832 0.63827 0.0
H2313 H 0.06626 0.83853 0.65647 0.0
H2314 H 0.01692 0.83471 0.70148 0.0
H2315 H 0.00269 0.80424 0.68334 0.0
H2316 H 0.02417 0.87536 0.68593 0.0
H2317 H 0.06267 0.81917 0.71593 0.0
H2318 H 0.08409 0.7875 0.71525 0.0
H2319 H 0.13193 0.82018 0.68232 0.0
H2320 H 0.11065 0.85198 0.68253 0.0
H2321 H 0.07113 0.95203 0.75093 0.0
H2322 H 0.05459 0.92028 0.73797 0.0
H2323 H 0.10636 0.91019 0.69672 0.0
H2324 H 0.12326 0.94141 0.71021 0.0
H2325 H 0.09621 0.87528 0.71339 0.0
H2326 H 0.05785 0.93006 0.68021 0.0
H2327 H 0.03672 0.96191 0.6787 0.0
H2328 H 0.98921 0.93252 0.71501 0.0
H2329 H 0.01019 0.90056 0.71696 0.0
C2330 C 0.04429 0.81387 0.65207 0.0
C2331 C 0.02634 0.80389 0.65943 0.0
C2332 C 0.05242 0.83109 0.66247 0.0
C2333 C 0.04272 0.83873 0.6804 0.0
C2334 C 0.02464 0.82899 0.68769 0.0
C2335 C 0.01659 0.81158 0.67737 0.0
C2336 C 0.05154 0.85702 0.69132 0.0
C2337 C 0.03978 0.87529 0.69229 0.0
C2338 C 0.07208 0.85699 0.69912 0.0
C2339 C 0.08498 0.83792 0.69911 0.0
C2340 C 0.07769 0.81957 0.70841 0.0
C2341 C 0.08982 0.8016 0.70813 0.0
C2342 C 0.10934 0.80182 0.69871 0.0
C2343 C 0.1168 0.82003 0.6896 0.0
C2344 C 0.10472 0.83804 0.68982 0.0
C2345 C 0.07895 0.94301 0.7391 0.0
C2346 C 0.09845 0.9492 0.73154 0.0
C2347 C 0.06945 0.92492 0.73163 0.0
C2348 C 0.07908 0.91294 0.71614 0.0
C2349 C 0.09862 0.91911 0.70868 0.0
C2350 C 0.10824 0.937 0.71635 0.0
C2351 C 0.069 0.89389 0.70771 0.0
C2352 C 0.08052 0.8754 0.70721 0.0
C2353 C 0.04833 0.89382 0.7001 0.0
C2354 C 0.03569 0.91301 0.69893 0.0
C2355 C 0.04297 0.93045 0.68801 0.0
C2356 C 0.03101 0.94851 0.68705 0.0
C2357 C 0.01167 0.94926 0.69681 0.0
C2358 C 0.00422 0.93193 0.70749 0.0
C2359 C 0.01613 0.91383 0.70852 0.0
H2360 H 0.00243 0.96326 0.69604 0.0
H2361 H 0.11871 0.78789 0.69851 0.0
H2362 H 0.46299 0.81539 0.3723 0.0
H2363 H 0.44904 0.84541 0.35392 0.0
H2364 H 0.47313 0.82159 0.29619 0.0
H2365 H 0.48719 0.7913 0.31458 0.0
H2366 H 0.48106 0.86423 0.30215 0.0
H2367 H 0.42317 0.81773 0.30407 0.0
H2368 H 0.39827 0.79362 0.32031 0.0
H2369 H 0.37687 0.84237 0.36042 0.0
H2370 H 0.40186 0.86671 0.34463 0.0
H2371 H 0.42345 0.94177 0.24553 0.0
H2372 H 0.43902 0.90913 0.25748 0.0
H2373 H 0.41328 0.91924 0.31847 0.0
H2374 H 0.39742 0.95141 0.30655 0.0
H2375 H 0.40603 0.88095 0.30648 0.0
H2376 H 0.46572 0.92641 0.30736 0.0
H2377 H 0.49113 0.95074 0.29225 0.0
H2378 H 0.5094 0.90444 0.24789 0.0
H2379 H 0.48389 0.87992 0.26257 0.0
C2380 C 0.4653 0.81648 0.35568 0.0
C2381 C 0.47612 0.80095 0.34486 0.0
C2382 C 0.45728 0.83363 0.34519 0.0
C2383 C 0.45991 0.83564 0.32367 0.0
C2384 C 0.47091 0.82029 0.3128 0.0
C2385 C 0.47884 0.80299 0.3233 0.0
C2386 C 0.45109 0.85387 0.31273 0.0
C2387 C 0.4646 0.86773 0.30273 0.0
C2388 C 0.42968 0.85857 0.31381 0.0
C2389 C 0.41451 0.84401 0.32326 0.0
C2390 C 0.41326 0.82328 0.31645 0.0
C2391 C 0.39911 0.80957 0.32556 0.0
C2392 C 0.38602 0.81645 0.34141 0.0
C2393 C 0.38702 0.83706 0.34815 0.0
C2394 C 0.40116 0.85083 0.33911 0.0
C2395 C 0.42129 0.93707 0.26152 0.0
C2396 C 0.4092 0.94912 0.2751 0.0
C2397 C 0.43021 0.91845 0.26835 0.0
C2398 C 0.42738 0.91174 0.28891 0.0
C2399 C 0.4156 0.92401 0.30251 0.0
C2400 C 0.4066 0.94246 0.29569 0.0
C2401 C 0.43605 0.89169 0.29636 0.0
C2402 C 0.42247 0.87741 0.30567 0.0
C2403 C 0.4574 0.88671 0.29473 0.0
C2404 C 0.47273 0.90143 0.2859 0.0
C2405 C 0.47503 0.92148 0.29427 0.0
C2406 C 0.48948 0.9353 0.28581 0.0
C2407 C 0.50183 0.92917 0.26908 0.0
C2408 C 0.4998 0.90919 0.26081 0.0
C2409 C 0.48536 0.89532 0.26921 0.0
H2410 H 0.51301 0.93988 0.26255 0.0
H2411 H 0.37508 0.80582 0.34845 0.0
H2412 H 0.79434 0.65338 0.05412 0.0
H2413 H 0.82515 0.67112 0.06746 0.0
H2414 H 0.84139 0.68986 0.00529 0.0
H2415 H 0.81059 0.67186 0.99176 0.0
H2416 H 0.87445 0.67408 0.02573 0.0
H2417 H 0.8227 0.7252 0.0396 0.0
H2418 H 0.78944 0.73864 0.05286 0.0
H2419 H 0.80687 0.72149 0.11488 0.0
H2420 H 0.84012 0.70767 0.10195 0.0
H2421 H 0.95684 0.73885 0.06315 0.0
H2422 H 0.92518 0.72658 0.04583 0.0
H2423 H 0.90115 0.70557 0.10466 0.0
H2424 H 0.93252 0.71809 0.12206 0.0
H2425 H 0.87186 0.7254 0.0832 0.0
H2426 H 0.92199 0.67166 0.06904 0.0
H2427 H 0.95509 0.65762 0.05598 0.0
H2428 H 0.94053 0.67939 0.99469 0.0
H2429 H 0.90744 0.69381 0.00745 0.0
C2430 C 0.80436 0.66142 0.04329 0.0
C2431 C 0.80003 0.66127 0.0219 0.0
C2432 C 0.82193 0.67163 0.05095 0.0
C2433 C 0.83547 0.68201 0.0374 0.0
C2434 C 0.83112 0.682 0.01602 0.0
C2435 C 0.8135 0.67178 0.00833 0.0
C2436 C 0.85454 0.69214 0.04559 0.0
C2437 C 0.87388 0.68561 0.03802 0.0
C2438 C 0.8538 0.70686 0.06191 0.0
C2439 C 0.83385 0.71525 0.06977 0.0
C2440 C 0.81938 0.72415 0.05604 0.0
C2441 C 0.80054 0.73186 0.06351 0.0
C2442 C 0.79603 0.73088 0.08469 0.0
C2443 C 0.81038 0.72223 0.09847 0.0
C2444 C 0.82924 0.71448 0.09108 0.0
C2445 C 0.9448 0.7316 0.07236 0.0
C2446 C 0.94717 0.72937 0.09395 0.0
C2447 C 0.92675 0.72455 0.06245 0.0
C2448 C 0.91086 0.71499 0.07392 0.0
C2449 C 0.91318 0.71292 0.09549 0.0
C2450 C 0.93115 0.72001 0.1054 0.0
C2451 C 0.89177 0.70708 0.06359 0.0
C2452 C 0.87242 0.71404 0.07076 0.0
C2453 C 0.8925 0.69272 0.04694 0.0
C2454 C 0.91236 0.68402 0.03925 0.0
C2455 C 0.92593 0.6736 0.05281 0.0
C2456 C 0.94467 0.66555 0.04546 0.0
C2457 C 0.94994 0.66767 0.02454 0.0
C2458 C 0.93645 0.6778 0.01091 0.0
C2459 C 0.91769 0.6859 0.01819 0.0
H2460 H 0.96446 0.66142 0.01887 0.0
H2461 H 0.78143 0.73686 0.09044 0.0
H2462 H 0.5762 0.25672 0.6187 0.0
H2463 H 0.60826 0.26887 0.60256 0.0
H2464 H 0.57294 0.29436 0.55164 0.0
H2465 H 0.54082 0.2815 0.5674 0.0
H2466 H 0.60701 0.27796 0.53723 0.0
H2467 H 0.59131 0.3249 0.59269 0.0
H2468 H 0.58301 0.33528 0.62859 0.0
H2469 H 0.64088 0.30991 0.6498 0.0
H2470 H 0.6494 0.29911 0.61404 0.0
H2471 H 0.67806 0.3568 0.5053 0.0
H2472 H 0.64852 0.33771 0.5196 0.0
H2473 H 0.69001 0.30265 0.55869 0.0
H2474 H 0.71982 0.32148 0.54408 0.0
H2475 H 0.65447 0.32205 0.57925 0.0
H2476 H 0.67041 0.27776 0.52138 0.0
H2477 H 0.67779 0.26997 0.48464 0.0
H2478 H 0.61807 0.29378 0.46709 0.0
H2479 H 0.61044 0.30201 0.50371 0.0
C2480 C 0.57528 0.26479 0.60398 0.0
C2481 C 0.55601 0.26832 0.59437 0.0
C2482 C 0.59362 0.27182 0.59482 0.0
C2483 C 0.59302 0.28294 0.57609 0.0
C2484 C 0.57381 0.28589 0.56613 0.0
C2485 C 0.55546 0.27858 0.57516 0.0
C2486 C 0.61233 0.29195 0.56721 0.0
C2487 C 0.61726 0.28775 0.54639 0.0
C2488 C 0.62594 0.3045 0.57921 0.0
C2489 C 0.62088 0.311 0.60073 0.0
C2490 C 0.60219 0.32139 0.60504 0.0
C2491 C 0.59746 0.32737 0.62536 0.0
C2492 C 0.61138 0.3232 0.64148 0.0
C2493 C 0.63009 0.31309 0.6373 0.0
C2494 C 0.63489 0.30705 0.61701 0.0
C2495 C 0.68092 0.34493 0.51684 0.0
C2496 C 0.70121 0.34061 0.52361 0.0
C2497 C 0.66405 0.334 0.52493 0.0
C2498 C 0.66713 0.31874 0.54011 0.0
C2499 C 0.68737 0.31435 0.54692 0.0
C2500 C 0.70434 0.32505 0.53855 0.0
C2501 C 0.64902 0.30807 0.54938 0.0
C2502 C 0.64428 0.31206 0.57022 0.0
C2503 C 0.63542 0.29568 0.53731 0.0
C2504 C 0.63993 0.29067 0.51528 0.0
C2505 C 0.65892 0.28151 0.50967 0.0
C2506 C 0.66314 0.27697 0.48887 0.0
C2507 C 0.64843 0.28142 0.47353 0.0
C2508 C 0.62945 0.29036 0.47898 0.0
C2509 C 0.62517 0.29494 0.49976 0.0
H2510 H 0.65172 0.27789 0.45744 0.0
H2511 H 0.60769 0.32785 0.6572 0.0
H2512 H 0.25045 0.43014 0.05434 0.0
H2513 H 0.23607 0.44588 0.08591 0.0
H2514 H 0.19061 0.39678 0.08957 0.0
H2515 H 0.20502 0.38085 0.05825 0.0
H2516 H 0.17413 0.43737 0.09467 0.0
H2517 H 0.23016 0.39467 0.12064 0.0
H2518 H 0.26651 0.38286 0.12249 0.0
H2519 H 0.28606 0.44423 0.14003 0.0
H2520 H 0.24983 0.45647 0.13798 0.0
H2521 H 0.13311 0.45023 0.19448 0.0
H2522 H 0.1499 0.43605 0.16363 0.0
H2523 H 0.20046 0.47953 0.1712 0.0
H2524 H 0.18404 0.49323 0.20266 0.0
H2525 H 0.21537 0.44387 0.15954 0.0
H2526 H 0.16067 0.48714 0.13489 0.0
H2527 H 0.12494 0.50058 0.13224 0.0
H2528 H 0.10359 0.44103 0.11093 0.0
H2529 H 0.13915 0.42713 0.11374 0.0
C2530 C 0.23738 0.42273 0.06188 0.0
C2531 C 0.22887 0.40426 0.05388 0.0
C2532 C 0.22924 0.43169 0.07992 0.0
C2533 C 0.21235 0.42242 0.09009 0.0
C2534 C 0.20365 0.40416 0.08194 0.0
C2535 C 0.21193 0.39506 0.06409 0.0
C2536 C 0.20365 0.43169 0.10925 0.0
C2537 C 0.18304 0.43862 0.10893 0.0
C2538 C 0.21556 0.43391 0.1276 0.0
C2539 C 0.23732 0.42654 0.12893 0.0
C2540 C 0.24223 0.40569 0.12471 0.0
C2541 C 0.26281 0.39891 0.12583 0.0
C2542 C 0.2786 0.4128 0.13131 0.0
C2543 C 0.27382 0.43349 0.13575 0.0
C2544 C 0.25327 0.44036 0.13462 0.0
C2545 C 0.14786 0.45669 0.18963 0.0
C2546 C 0.15721 0.47293 0.20087 0.0
C2547 C 0.1574 0.44866 0.17191 0.0
C2548 C 0.17623 0.45704 0.16476 0.0
C2549 C 0.18589 0.47288 0.17633 0.0
C2550 C 0.17649 0.48071 0.19428 0.0
C2551 C 0.18564 0.44937 0.14513 0.0
C2552 C 0.20642 0.44277 0.14529 0.0
C2553 C 0.17397 0.44773 0.12651 0.0
C2554 C 0.15256 0.45605 0.1247 0.0
C2555 C 0.14833 0.47686 0.12978 0.0
C2556 C 0.12811 0.48457 0.12823 0.0
C2557 C 0.112 0.47165 0.12147 0.0
C2558 C 0.11608 0.45101 0.11619 0.0
C2559 C 0.13627 0.44322 0.11773 0.0
H2560 H 0.09635 0.47765 0.12028 0.0
H2561 H 0.29452 0.40752 0.13218 0.0
H2562 H 0.3647 0.45303 0.80612 0.0
H2563 H 0.34703 0.43951 0.8368 0.0
H2564 H 0.30922 0.49461 0.8396 0.0
H2565 H 0.3267 0.50819 0.80852 0.0
H2566 H 0.3279 0.48147 0.8789 0.0
H2567 H 0.28631 0.45474 0.82316 0.0
H2568 H 0.27995 0.4371 0.78974 0.0
H2569 H 0.30698 0.38115 0.81371 0.0
H2570 H 0.3138 0.39856 0.8472 0.0
H2571 H 0.262 0.43698 0.95657 0.0
H2572 H 0.27502 0.45478 0.92561 0.0
H2573 H 0.3079 0.39933 0.90755 0.0
H2574 H 0.29463 0.3814 0.93816 0.0
H2575 H 0.28859 0.41522 0.8752 0.0
H2576 H 0.33291 0.44166 0.9293 0.0
H2577 H 0.34109 0.45872 0.96265 0.0
H2578 H 0.31088 0.51437 0.94199 0.0
H2579 H 0.30227 0.49753 0.9086 0.0
C2580 C 0.35262 0.46229 0.81324 0.0
C2581 C 0.34703 0.48165 0.80492 0.0
C2582 C 0.34252 0.45452 0.83073 0.0
C2583 C 0.32677 0.46602 0.84037 0.0
C2584 C 0.32133 0.48551 0.83233 0.0
C2585 C 0.33126 0.49319 0.81458 0.0
C2586 C 0.3161 0.45744 0.85882 0.0
C2587 C 0.31894 0.46721 0.8781 0.0
C2588 C 0.30487 0.43858 0.85774 0.0
C2589 C 0.30073 0.42802 0.83764 0.0
C2590 C 0.29106 0.43873 0.82125 0.0
C2591 C 0.28734 0.42876 0.8023 0.0
C2592 C 0.2931 0.40803 0.79959 0.0
C2593 C 0.30255 0.39722 0.81583 0.0
C2594 C 0.30633 0.40712 0.83481 0.0
C2595 C 0.27205 0.42863 0.94601 0.0
C2596 C 0.27732 0.40781 0.9498 0.0
C2597 C 0.27954 0.43883 0.92836 0.0
C2598 C 0.29258 0.42845 0.91432 0.0
C2599 C 0.29783 0.40765 0.91812 0.0
C2600 C 0.29029 0.39744 0.93567 0.0
C2601 C 0.30065 0.43903 0.89548 0.0
C2602 C 0.29732 0.42962 0.87607 0.0
C2603 C 0.3116 0.45811 0.8965 0.0
C2604 C 0.31673 0.46825 0.91656 0.0
C2605 C 0.32785 0.45747 0.93194 0.0
C2606 C 0.3326 0.46711 0.95084 0.0
C2607 C 0.32645 0.48759 0.95446 0.0
C2608 C 0.31559 0.49849 0.93918 0.0
C2609 C 0.31078 0.48891 0.92026 0.0
H2610 H 0.33015 0.49503 0.9691 0.0
H2611 H 0.2902 0.40034 0.78491 0.0
H2612 H 0.25091 0.60891 0.57528 0.0
H2613 H 0.26368 0.59165 0.60654 0.0
H2614 H 0.30847 0.55813 0.5697 0.0
H2615 H 0.29486 0.57453 0.53825 0.0
H2616 H 0.29475 0.53345 0.59721 0.0
H2617 H 0.32071 0.60316 0.60022 0.0
H2618 H 0.31873 0.6414 0.59995 0.0
H2619 H 0.27972 0.64012 0.65392 0.0
H2620 H 0.28125 0.60184 0.65435 0.0
H2621 H 0.36851 0.51309 0.67766 0.0
H2622 H 0.35027 0.52643 0.64712 0.0
H2623 H 0.29853 0.54421 0.6856 0.0
H2624 H 0.3166 0.53058 0.71628 0.0
H2625 H 0.31413 0.57613 0.6585 0.0
H2626 H 0.29176 0.50478 0.65567 0.0
H2627 H 0.29715 0.46689 0.6555 0.0
H2628 H 0.33386 0.472 0.60017 0.0
H2629 H 0.32894 0.50997 0.60018 0.0
C2630 C 0.26342 0.59778 0.57388 0.0
C2631 C 0.272 0.59313 0.5544 0.0
C2632 C 0.27081 0.58801 0.59177 0.0
C2633 C 0.28741 0.5739 0.59063 0.0
C2634 C 0.2957 0.56896 0.57106 0.0
C2635 C 0.28797 0.57838 0.55309 0.0
C2636 C 0.29628 0.56447 0.60979 0.0
C2637 C 0.29917 0.54286 0.61049 0.0
C2638 C 0.30181 0.57662 0.62736 0.0
C2639 C 0.30092 0.59963 0.62718 0.0
C2640 C 0.31159 0.61103 0.61194 0.0
C2641 C 0.31057 0.63271 0.61177 0.0
C2642 C 0.29906 0.64318 0.62687 0.0
C2643 C 0.2886 0.63199 0.64221 0.0
C2644 C 0.28955 0.6103 0.64244 0.0
C2645 C 0.35316 0.51967 0.6796 0.0
C2646 C 0.34396 0.52081 0.69933 0.0
C2647 C 0.34276 0.52723 0.66214 0.0
C2648 C 0.32304 0.53622 0.66413 0.0
C2649 C 0.31373 0.53727 0.68378 0.0
C2650 C 0.32402 0.52943 0.70124 0.0
C2651 C 0.31261 0.54527 0.64574 0.0
C2652 C 0.30952 0.56679 0.64521 0.0
C2653 C 0.30734 0.53312 0.6282 0.0
C2654 C 0.31011 0.51025 0.62803 0.0
C2655 C 0.30111 0.49785 0.64356 0.0
C2656 C 0.30406 0.47635 0.64347 0.0
C2657 C 0.31589 0.46705 0.62786 0.0
C2658 C 0.32472 0.47922 0.61226 0.0
C2659 C 0.32183 0.50073 0.61228 0.0
H2660 H 0.31817 0.4504 0.62784 0.0
H2661 H 0.29828 0.65996 0.62672 0.0
H2662 H 0.13226 0.51641 0.32324 0.0
H2663 H 0.14959 0.53064 0.35382 0.0
H2664 H 0.20016 0.55207 0.31549 0.0
H2665 H 0.18321 0.53691 0.28486 0.0
H2666 H 0.21542 0.53755 0.34945 0.0
H2667 H 0.16127 0.5855 0.33469 0.0
H2668 H 0.12564 0.59726 0.32711 0.0
H2669 H 0.1051 0.5741 0.38608 0.0
H2670 H 0.14056 0.56194 0.39391 0.0
H2671 H 0.25008 0.61233 0.42633 0.0
H2672 H 0.23565 0.59646 0.39477 0.0
H2673 H 0.19597 0.55767 0.43214 0.0
H2674 H 0.21069 0.57309 0.46377 0.0
H2675 H 0.17611 0.58225 0.3983 0.0
H2676 H 0.23245 0.53442 0.41171 0.0
H2677 H 0.26905 0.52532 0.41824 0.0
H2678 H 0.28651 0.55238 0.35994 0.0
H2679 H 0.25002 0.56192 0.3532 0.0
C2680 C 0.14707 0.52416 0.32132 0.0
C2681 C 0.15633 0.5257 0.30166 0.0
C2682 C 0.15693 0.5324 0.33881 0.0
C2683 C 0.17599 0.54287 0.33696 0.0
C2684 C 0.18543 0.54415 0.31734 0.0
C2685 C 0.17572 0.53555 0.29984 0.0
C2686 C 0.18603 0.55235 0.35554 0.0
C2687 C 0.20686 0.54757 0.35993 0.0
C2688 C 0.1749 0.56531 0.36941 0.0
C2689 C 0.15354 0.57264 0.3648 0.0
C2690 C 0.14912 0.58278 0.34598 0.0
C2691 C 0.12896 0.58954 0.34165 0.0
C2692 C 0.11311 0.58639 0.35608 0.0
C2693 C 0.1174 0.57651 0.37491 0.0
C2694 C 0.13753 0.5697 0.37931 0.0
C2695 C 0.23842 0.60028 0.4278 0.0
C2696 C 0.23149 0.59391 0.44747 0.0
C2697 C 0.23024 0.59124 0.4098 0.0
C2698 C 0.21479 0.57593 0.4112 0.0
C2699 C 0.20791 0.56947 0.4308 0.0
C2700 C 0.21637 0.57822 0.44882 0.0
C2701 C 0.20524 0.5672 0.39217 0.0
C2702 C 0.18456 0.57224 0.38771 0.0
C2703 C 0.21662 0.55488 0.37806 0.0
C2704 C 0.23854 0.54909 0.38207 0.0
C2705 C 0.24412 0.53862 0.40038 0.0
C2706 C 0.26484 0.53334 0.4041 0.0
C2707 C 0.2801 0.53833 0.38955 0.0
C2708 C 0.27467 0.54856 0.37121 0.0
C2709 C 0.25397 0.55389 0.36743 0.0
H2710 H 0.29614 0.53422 0.39245 0.0
H2711 H 0.09751 0.59163 0.3527 0.0
loop_
_geom_bond_atom_site_label_1
_geom_bond_atom_site_label_2
_geom_bond_distance
_geom_bond_site_symmetry_2
_ccdc_geom_bond_type
In0 O1 2.294 . S
In0 O2 2.326 . S
In0 O6 2.266 1_455 S
In0 O7 2.326 1_455 S
In0 O8 2.266 1_455 S
In0 O9 2.326 1_455 S
In0 O11 2.294 . S
In0 O12 2.326 . S
O1 In0 2.294 . S
O1 C10 1.240 . S
O2 In0 2.326 . S
O2 C10 1.252 . S
C3 O6 1.252 . S
C3 O7 1.260 . S
C4 O11 1.240 . S
C4 O12 1.252 . S
C5 O8 1.252 . S
C5 O9 1.260 . S
O6 In0 2.266 1_655 S
O6 C3 1.252 . S
O7 In0 2.326 1_655 S
O7 C3 1.260 . S
O8 In0 2.266 1_655 S
O8 C5 1.252 . S
O9 In0 2.326 1_655 S
O9 C5 1.260 . S
C10 O1 1.240 . S
C10 O2 1.252 . S
O11 In0 2.294 . S
O11 C4 1.240 . S
O12 In0 2.326 . S
O12 C4 1.252 . S
In13 O14 2.294 . S
In13 O15 2.326 . S
In13 O19 2.266 1_455 S
In13 O20 2.326 1_455 S
In13 O21 2.266 . S
In13 O22 2.326 . S
In13 O24 2.294 1_455 S
In13 O25 2.326 1_455 S
O14 In13 2.294 . S
O14 C23 1.240 . S
O15 In13 2.326 . S
O15 C23 1.252 . S
C16 O19 1.252 . S
C16 O20 1.260 . S
C17 O24 1.240 . S
C17 O25 1.252 . S
C18 O21 1.252 . S
C18 O22 1.260 . S
O19 In13 2.266 1_655 S
O19 C16 1.252 . S
O20 In13 2.326 1_655 S
O20 C16 1.260 . S
O21 In13 2.266 . S
O21 C18 1.252 . S
O22 In13 2.326 . S
O22 C18 1.260 . S
C23 O14 1.240 . S
C23 O15 1.252 . S
O24 In13 2.294 1_655 S
O24 C17 1.240 . S
O25 In13 2.326 1_655 S
O25 C17 1.252 . S
In26 O27 2.294 . S
In26 O28 2.326 . S
In26 O32 2.266 . S
In26 O33 2.326 . S
In26 O34 2.266 . S
In26 O35 2.326 . S
In26 O37 2.294 . S
In26 O38 2.326 . S
O27 In26 2.294 . S
O27 C36 1.240 . S
O28 In26 2.326 . S
O28 C36 1.252 . S
C29 O32 1.252 . S
C29 O33 1.260 . S
C30 O37 1.240 . S
C30 O38 1.252 . S
C31 O34 1.252 . S
C31 O35 1.260 . S
O32 In26 2.266 . S
O32 C29 1.252 . S
O33 In26 2.326 . S
O33 C29 1.260 . S
O34 In26 2.266 . S
O34 C31 1.252 . S
O35 In26 2.326 . S
O35 C31 1.260 . S
C36 O27 1.240 . S
C36 O28 1.252 . S
O37 In26 2.294 . S
O37 C30 1.240 . S
O38 In26 2.326 . S
O38 C30 1.252 . S
In39 O40 2.294 . S
In39 O41 2.326 . S
In39 O45 2.266 . S
In39 O46 2.326 . S
In39 O47 2.266 . S
In39 O48 2.326 . S
In39 O50 2.294 . S
In39 O51 2.326 . S
O40 In39 2.294 . S
O40 C49 1.240 . S
O41 In39 2.326 . S
O41 C49 1.252 . S
C42 O45 1.252 . S
C42 O46 1.260 . S
C43 O50 1.240 . S
C43 O51 1.252 . S
C44 O47 1.252 . S
C44 O48 1.260 . S
O45 In39 2.266 . S
O45 C42 1.252 . S
O46 In39 2.326 . S
O46 C42 1.260 . S
O47 In39 2.266 . S
O47 C44 1.252 . S
O48 In39 2.326 . S
O48 C44 1.260 . S
C49 O40 1.240 . S
C49 O41 1.252 . S
O50 In39 2.294 . S
O50 C43 1.240 . S
O51 In39 2.326 . S
O51 C43 1.252 . S
In52 O53 2.294 . S
In52 O54 2.326 . S
In52 O58 2.266 1_455 S
In52 O59 2.326 1_455 S
In52 O60 2.266 1_455 S
In52 O61 2.326 1_455 S
In52 O63 2.294 . S
In52 O64 2.326 . S
O53 In52 2.294 . S
O53 C62 1.240 . S
O54 In52 2.326 . S
O54 C62 1.252 . S
C55 O58 1.252 . S
C55 O59 1.260 . S
C56 O63 1.240 . S
C56 O64 1.252 . S
C57 O60 1.252 . S
C57 O61 1.260 . S
O58 In52 2.266 1_655 S
O58 C55 1.252 . S
O59 In52 2.326 1_655 S
O59 C55 1.260 . S
O60 In52 2.266 1_655 S
O60 C57 1.252 . S
O61 In52 2.326 1_655 S
O61 C57 1.260 . S
C62 O53 1.240 . S
C62 O54 1.252 . S
O63 In52 2.294 . S
O63 C56 1.240 . S
O64 In52 2.326 . S
O64 C56 1.252 . S
In65 O66 2.294 . S
In65 O67 2.326 . S
In65 O71 2.266 . S
In65 O72 2.326 . S
In65 O73 2.266 . S
In65 O74 2.326 . S
In65 O76 2.294 . S
In65 O77 2.326 . S
O66 In65 2.294 . S
O66 C75 1.240 . S
O67 In65 2.326 . S
O67 C75 1.252 . S
C68 O71 1.252 . S
C68 O72 1.260 . S
C69 O76 1.240 . S
C69 O77 1.252 . S
C70 O73 1.252 . S
C70 O74 1.260 . S
O71 In65 2.266 . S
O71 C68 1.252 . S
O72 In65 2.326 . S
O72 C68 1.260 . S
O73 In65 2.266 . S
O73 C70 1.252 . S
O74 In65 2.326 . S
O74 C70 1.260 . S
C75 O66 1.240 . S
C75 O67 1.252 . S
O76 In65 2.294 . S
O76 C69 1.240 . S
O77 In65 2.326 . S
O77 C69 1.252 . S
In78 O79 2.294 . S
In78 O80 2.326 . S
In78 O84 2.266 . S
In78 O85 2.326 . S
In78 O86 2.266 . S
In78 O87 2.326 . S
In78 O89 2.294 . S
In78 O90 2.326 . S
O79 In78 2.294 . S
O79 C88 1.240 . S
O80 In78 2.326 . S
O80 C88 1.252 . S
C81 O84 1.252 . S
C81 O85 1.260 . S
C82 O89 1.240 . S
C82 O90 1.252 . S
C83 O86 1.252 . S
C83 O87 1.260 . S
O84 In78 2.266 . S
O84 C81 1.252 . S
O85 In78 2.326 . S
O85 C81 1.260 . S
O86 In78 2.266 . S
O86 C83 1.252 . S
O87 In78 2.326 . S
O87 C83 1.260 . S
C88 O79 1.240 . S
C88 O80 1.252 . S
O89 In78 2.294 . S
O89 C82 1.240 . S
O90 In78 2.326 . S
O90 C82 1.252 . S
In91 O92 2.269 1_455 S
In91 O93 2.285 1_455 S
In91 O97 2.292 . S
In91 O98 2.368 . S
In91 O99 2.258 1_455 S
In91 O100 2.307 1_455 S
In91 O102 2.303 . S
In91 O103 2.345 . S
O92 In91 2.269 1_655 S
O92 C101 1.240 . S
O93 In91 2.285 1_655 S
O93 C101 1.252 . S
C94 O97 1.252 . S
C94 O98 1.260 . S
C95 O102 1.240 . S
C95 O103 1.252 . S
C96 O99 1.252 . S
C96 O100 1.260 . S
O97 In91 2.292 . S
O97 C94 1.252 . S
O98 In91 2.368 . S
O98 C94 1.260 . S
O99 In91 2.258 1_655 S
O99 C96 1.252 . S
O100 In91 2.307 1_655 S
O100 C96 1.260 . S
C101 O92 1.240 . S
C101 O93 1.252 . S
O102 In91 2.303 . S
O102 C95 1.240 . S
O103 In91 2.345 . S
O103 C95 1.252 . S
In104 O105 2.294 . S
In104 O106 2.326 . S
In104 O110 2.266 1_545 S
In104 O111 2.326 1_545 S
In104 O112 2.266 1_545 S
In104 O113 2.326 1_545 S
In104 O115 2.294 . S
In104 O116 2.326 . S
O105 In104 2.294 . S
O105 C114 1.240 . S
O106 In104 2.326 . S
O106 C114 1.252 . S
C107 O110 1.252 . S
C107 O111 1.260 . S
C108 O115 1.240 . S
C108 O116 1.252 . S
C109 O112 1.252 . S
C109 O113 1.260 . S
O110 In104 2.266 1_565 S
O110 C107 1.252 . S
O111 In104 2.326 1_565 S
O111 C107 1.260 . S
O112 In104 2.266 1_565 S
O112 C109 1.252 . S
O113 In104 2.326 1_565 S
O113 C109 1.260 . S
C114 O105 1.240 . S
C114 O106 1.252 . S
O115 In104 2.294 . S
O115 C108 1.240 . S
O116 In104 2.326 . S
O116 C108 1.252 . S
In117 O118 2.294 . S
In117 O119 2.326 . S
In117 O123 2.266 . S
In117 O124 2.326 . S
In117 O125 2.266 . S
In117 O126 2.326 . S
In117 O128 2.294 . S
In117 O129 2.326 . S
O118 In117 2.294 . S
O118 C127 1.240 . S
O119 In117 2.326 . S
O119 C127 1.252 . S
C120 O123 1.252 . S
C120 O124 1.260 . S
C121 O128 1.240 . S
C121 O129 1.252 . S
C122 O125 1.252 . S
C122 O126 1.260 . S
O123 In117 2.266 . S
O123 C120 1.252 . S
O124 In117 2.326 . S
O124 C120 1.260 . S
O125 In117 2.266 . S
O125 C122 1.252 . S
O126 In117 2.326 . S
O126 C122 1.260 . S
C127 O118 1.240 . S
C127 O119 1.252 . S
O128 In117 2.294 . S
O128 C121 1.240 . S
O129 In117 2.326 . S
O129 C121 1.252 . S
In130 O131 2.294 . S
In130 O132 2.326 . S
In130 O136 2.266 1_545 S
In130 O137 2.326 1_545 S
In130 O138 2.266 1_545 S
In130 O139 2.326 1_545 S
In130 O141 2.294 . S
In130 O142 2.326 . S
O131 In130 2.294 . S
O131 C140 1.240 . S
O132 In130 2.326 . S
O132 C140 1.252 . S
C133 O136 1.252 . S
C133 O137 1.260 . S
C134 O141 1.240 . S
C134 O142 1.252 . S
C135 O138 1.252 . S
C135 O139 1.260 . S
O136 In130 2.266 1_565 S
O136 C133 1.252 . S
O137 In130 2.326 1_565 S
O137 C133 1.260 . S
O138 In130 2.266 1_565 S
O138 C135 1.252 . S
O139 In130 2.326 1_565 S
O139 C135 1.260 . S
C140 O131 1.240 . S
C140 O132 1.252 . S
O141 In130 2.294 . S
O141 C134 1.240 . S
O142 In130 2.326 . S
O142 C134 1.252 . S
In143 O144 2.303 . S
In143 O145 2.345 . S
In143 O149 2.258 1_554 S
In143 O150 2.307 1_554 S
In143 O151 2.292 . S
In143 O152 2.368 . S
In143 O154 2.269 1_554 S
In143 O155 2.285 1_554 S
O144 In143 2.303 . S
O144 C153 1.240 . S
O145 In143 2.345 . S
O145 C153 1.252 . S
C146 O149 1.252 . S
C146 O150 1.260 . S
C147 O154 1.240 . S
C147 O155 1.252 . S
C148 O151 1.252 . S
C148 O152 1.260 . S
O149 In143 2.258 1_556 S
O149 C146 1.252 . S
O150 In143 2.307 1_556 S
O150 C146 1.260 . S
O151 In143 2.292 . S
O151 C148 1.252 . S
O152 In143 2.368 . S
O152 C148 1.260 . S
C153 O144 1.240 . S
C153 O145 1.252 . S
O154 In143 2.269 1_556 S
O154 C147 1.240 . S
O155 In143 2.285 1_556 S
O155 C147 1.252 . S
In156 O157 2.294 . S
In156 O158 2.326 . S
In156 O162 2.266 1_554 S
In156 O163 2.326 1_554 S
In156 O164 2.266 1_554 S
In156 O165 2.326 1_554 S
In156 O167 2.294 . S
In156 O168 2.326 . S
O157 In156 2.294 . S
O157 C166 1.240 . S
O158 In156 2.326 . S
O158 C166 1.252 . S
C159 O162 1.252 . S
C159 O163 1.260 . S
C160 O167 1.240 . S
C160 O168 1.252 . S
C161 O164 1.252 . S
C161 O165 1.260 . S
O162 In156 2.266 1_556 S
O162 C159 1.252 . S
O163 In156 2.326 1_556 S
O163 C159 1.260 . S
O164 In156 2.266 1_556 S
O164 C161 1.252 . S
O165 In156 2.326 1_556 S
O165 C161 1.260 . S
C166 O157 1.240 . S
C166 O158 1.252 . S
O167 In156 2.294 . S
O167 C160 1.240 . S
O168 In156 2.326 . S
O168 C160 1.252 . S
In169 O170 2.294 . S
In169 O171 2.326 . S
In169 O175 2.266 1_554 S
In169 O176 2.326 1_554 S
In169 O177 2.266 1_554 S
In169 O178 2.326 1_554 S
In169 O180 2.294 . S
In169 O181 2.326 . S
O170 In169 2.294 . S
O170 C179 1.240 . S
O171 In169 2.326 . S
O171 C179 1.252 . S
C172 O175 1.252 . S
C172 O176 1.260 . S
C173 O180 1.240 . S
C173 O181 1.252 . S
C174 O177 1.252 . S
C174 O178 1.260 . S
O175 In169 2.266 1_556 S
O175 C172 1.252 . S
O176 In169 2.326 1_556 S
O176 C172 1.260 . S
O177 In169 2.266 1_556 S
O177 C174 1.252 . S
O178 In169 2.326 1_556 S
O178 C174 1.260 . S
C179 O170 1.240 . S
C179 O171 1.252 . S
O180 In169 2.294 . S
O180 C173 1.240 . S
O181 In169 2.326 . S
O181 C173 1.252 . S
In182 O183 2.294 . S
In182 O184 2.326 . S
In182 O188 2.266 . S
In182 O189 2.326 . S
In182 O190 2.266 . S
In182 O191 2.326 . S
In182 O193 2.294 . S
In182 O194 2.326 . S
O183 In182 2.294 . S
O183 C192 1.240 . S
O184 In182 2.326 . S
O184 C192 1.252 . S
C185 O188 1.252 . S
C185 O189 1.260 . S
C186 O193 1.240 . S
C186 O194 1.252 . S
C187 O190 1.252 . S
C187 O191 1.260 . S
O188 In182 2.266 . S
O188 C185 1.252 . S
O189 In182 2.326 . S
O189 C185 1.260 . S
O190 In182 2.266 . S
O190 C187 1.252 . S
O191 In182 2.326 . S
O191 C187 1.260 . S
C192 O183 1.240 . S
C192 O184 1.252 . S
O193 In182 2.294 . S
O193 C186 1.240 . S
O194 In182 2.326 . S
O194 C186 1.252 . S
In195 O196 2.294 . S
In195 O197 2.326 . S
In195 O201 2.266 . S
In195 O202 2.326 . S
In195 O203 2.266 . S
In195 O204 2.326 . S
In195 O206 2.294 . S
In195 O207 2.326 . S
O196 In195 2.294 . S
O196 C205 1.240 . S
O197 In195 2.326 . S
O197 C205 1.252 . S
C198 O201 1.252 . S
C198 O202 1.260 . S
C199 O206 1.240 . S
C199 O207 1.252 . S
C200 O203 1.252 . S
C200 O204 1.260 . S
O201 In195 2.266 . S
O201 C198 1.252 . S
O202 In195 2.326 . S
O202 C198 1.260 . S
O203 In195 2.266 . S
O203 C200 1.252 . S
O204 In195 2.326 . S
O204 C200 1.260 . S
C205 O196 1.240 . S
C205 O197 1.252 . S
O206 In195 2.294 . S
O206 C199 1.240 . S
O207 In195 2.326 . S
O207 C199 1.252 . S
In208 O209 2.303 . S
In208 O210 2.345 . S
In208 O214 2.258 1_545 S
In208 O215 2.307 1_545 S
In208 O216 2.292 . S
In208 O217 2.368 . S
In208 O219 2.269 1_545 S
In208 O220 2.285 1_545 S
O209 In208 2.303 . S
O209 C218 1.240 . S
O210 In208 2.345 . S
O210 C218 1.252 . S
C211 O214 1.252 . S
C211 O215 1.260 . S
C212 O219 1.240 . S
C212 O220 1.252 . S
C213 O216 1.252 . S
C213 O217 1.260 . S
O214 In208 2.258 1_565 S
O214 C211 1.252 . S
O215 In208 2.307 1_565 S
O215 C211 1.260 . S
O216 In208 2.292 . S
O216 C213 1.252 . S
O217 In208 2.368 . S
O217 C213 1.260 . S
C218 O209 1.240 . S
C218 O210 1.252 . S
O219 In208 2.269 1_565 S
O219 C212 1.240 . S
O220 In208 2.285 1_565 S
O220 C212 1.252 . S
In221 O222 2.294 . S
In221 O223 2.326 . S
In221 O227 2.266 . S
In221 O228 2.326 . S
In221 O229 2.266 . S
In221 O230 2.326 . S
In221 O232 2.294 . S
In221 O233 2.326 . S
O222 In221 2.294 . S
O222 C231 1.240 . S
O223 In221 2.326 . S
O223 C231 1.252 . S
C224 O227 1.252 . S
C224 O228 1.260 . S
C225 O232 1.240 . S
C225 O233 1.252 . S
C226 O229 1.252 . S
C226 O230 1.260 . S
O227 In221 2.266 . S
O227 C224 1.252 . S
O228 In221 2.326 . S
O228 C224 1.260 . S
O229 In221 2.266 . S
O229 C226 1.252 . S
O230 In221 2.326 . S
O230 C226 1.260 . S
C231 O222 1.240 . S
C231 O223 1.252 . S
O232 In221 2.294 . S
O232 C225 1.240 . S
O233 In221 2.326 . S
O233 C225 1.252 . S
In234 O235 2.294 . S
In234 O236 2.326 . S
In234 O240 2.266 . S
In234 O241 2.326 . S
In234 O242 2.266 . S
In234 O243 2.326 . S
In234 O245 2.294 . S
In234 O246 2.326 . S
O235 In234 2.294 . S
O235 C244 1.240 . S
O236 In234 2.326 . S
O236 C244 1.252 . S
C237 O240 1.252 . S
C237 O241 1.260 . S
C238 O245 1.240 . S
C238 O246 1.252 . S
C239 O242 1.252 . S
C239 O243 1.260 . S
O240 In234 2.266 . S
O240 C237 1.252 . S
O241 In234 2.326 . S
O241 C237 1.260 . S
O242 In234 2.266 . S
O242 C239 1.252 . S
O243 In234 2.326 . S
O243 C239 1.260 . S
C244 O235 1.240 . S
C244 O236 1.252 . S
O245 In234 2.294 . S
O245 C238 1.240 . S
O246 In234 2.326 . S
O246 C238 1.252 . S
In247 O248 2.294 1_545 S
In247 O249 2.326 1_545 S
In247 O253 2.266 . S
In247 O254 2.326 . S
In247 O255 2.266 1_545 S
In247 O256 2.326 1_545 S
In247 O258 2.294 . S
In247 O259 2.326 . S
O248 In247 2.294 1_565 S
O248 C257 1.240 . S
O249 In247 2.326 1_565 S
O249 C257 1.252 . S
C250 O253 1.252 . S
C250 O254 1.260 . S
C251 O258 1.240 . S
C251 O259 1.252 . S
C252 O255 1.252 . S
C252 O256 1.260 . S
O253 In247 2.266 . S
O253 C250 1.252 . S
O254 In247 2.326 . S
O254 C250 1.260 . S
O255 In247 2.266 1_565 S
O255 C252 1.252 . S
O256 In247 2.326 1_565 S
O256 C252 1.260 . S
C257 O248 1.240 . S
C257 O249 1.252 . S
O258 In247 2.294 . S
O258 C251 1.240 . S
O259 In247 2.326 . S
O259 C251 1.252 . S
In260 O261 2.294 . S
In260 O262 2.326 . S
In260 O266 2.266 1_554 S
In260 O267 2.326 1_554 S
In260 O268 2.266 . S
In260 O269 2.326 . S
In260 O271 2.294 1_554 S
In260 O272 2.326 1_554 S
O261 In260 2.294 . S
O261 C270 1.240 . S
O262 In260 2.326 . S
O262 C270 1.252 . S
C263 O266 1.252 . S
C263 O267 1.260 . S
C264 O271 1.240 . S
C264 O272 1.252 . S
C265 O268 1.252 . S
C265 O269 1.260 . S
O266 In260 2.266 1_556 S
O266 C263 1.252 . S
O267 In260 2.326 1_556 S
O267 C263 1.260 . S
O268 In260 2.266 . S
O268 C265 1.252 . S
O269 In260 2.326 . S
O269 C265 1.260 . S
C270 O261 1.240 . S
C270 O262 1.252 . S
O271 In260 2.294 1_556 S
O271 C264 1.240 . S
O272 In260 2.326 1_556 S
O272 C264 1.252 . S
In273 O274 2.294 . S
In273 O275 2.326 . S
In273 O279 2.266 . S
In273 O280 2.326 . S
In273 O281 2.266 . S
In273 O282 2.326 . S
In273 O284 2.294 . S
In273 O285 2.326 . S
O274 In273 2.294 . S
O274 C283 1.240 . S
O275 In273 2.326 . S
O275 C283 1.252 . S
C276 O279 1.252 . S
C276 O280 1.260 . S
C277 O284 1.240 . S
C277 O285 1.252 . S
C278 O281 1.252 . S
C278 O282 1.260 . S
O279 In273 2.266 . S
O279 C276 1.252 . S
O280 In273 2.326 . S
O280 C276 1.260 . S
O281 In273 2.266 . S
O281 C278 1.252 . S
O282 In273 2.326 . S
O282 C278 1.260 . S
C283 O274 1.240 . S
C283 O275 1.252 . S
O284 In273 2.294 . S
O284 C277 1.240 . S
O285 In273 2.326 . S
O285 C277 1.252 . S
In286 O287 2.294 . S
In286 O288 2.326 . S
In286 O292 2.266 . S
In286 O293 2.326 . S
In286 O294 2.266 . S
In286 O295 2.326 . S
In286 O297 2.294 . S
In286 O298 2.326 . S
O287 In286 2.294 . S
O287 C296 1.240 . S
O288 In286 2.326 . S
O288 C296 1.252 . S
C289 O292 1.252 . S
C289 O293 1.260 . S
C290 O297 1.240 . S
C290 O298 1.252 . S
C291 O294 1.252 . S
C291 O295 1.260 . S
O292 In286 2.266 . S
O292 C289 1.252 . S
O293 In286 2.326 . S
O293 C289 1.260 . S
O294 In286 2.266 . S
O294 C291 1.252 . S
O295 In286 2.326 . S
O295 C291 1.260 . S
C296 O287 1.240 . S
C296 O288 1.252 . S
O297 In286 2.294 . S
O297 C290 1.240 . S
O298 In286 2.326 . S
O298 C290 1.252 . S
In299 O300 2.294 . S
In299 O301 2.326 . S
In299 O305 2.266 . S
In299 O306 2.326 . S
In299 O307 2.266 . S
In299 O308 2.326 . S
In299 O310 2.294 . S
In299 O311 2.326 . S
O300 In299 2.294 . S
O300 C309 1.240 . S
O301 In299 2.326 . S
O301 C309 1.252 . S
C302 O305 1.252 . S
C302 O306 1.260 . S
C303 O310 1.240 . S
C303 O311 1.252 . S
C304 O307 1.252 . S
C304 O308 1.260 . S
O305 In299 2.266 . S
O305 C302 1.252 . S
O306 In299 2.326 . S
O306 C302 1.260 . S
O307 In299 2.266 . S
O307 C304 1.252 . S
O308 In299 2.326 . S
O308 C304 1.260 . S
C309 O300 1.240 . S
C309 O301 1.252 . S
O310 In299 2.294 . S
O310 C303 1.240 . S
O311 In299 2.326 . S
O311 C303 1.252 . S
H312 C330 0.951 . S
H313 C332 0.951 . S
H314 C334 0.950 . S
H315 C335 0.950 . S
H316 C337 0.950 . S
H317 C340 0.950 . S
H318 C341 0.950 . S
H319 C343 0.950 . S
H320 C344 0.950 . S
H321 C345 0.951 . S
H322 C347 0.951 . S
H323 C349 0.950 . S
H324 C350 0.950 . S
H325 C352 0.950 . S
H326 C355 0.950 . S
H327 C356 0.949 1_655 S
H328 C358 0.950 . S
H329 C359 0.950 . S
C330 H312 0.951 . S
C330 C331 1.366 . S
C330 C332 1.388 . S
C331 C330 1.366 . S
C331 C335 1.385 . S
C332 H313 0.951 . S
C332 C330 1.388 . S
C332 C333 1.366 . S
C333 C332 1.366 . S
C333 C334 1.414 . S
C333 C336 1.499 . S
C334 H314 0.950 . S
C334 C333 1.414 . S
C334 C335 1.374 . S
C335 H315 0.950 . S
C335 C331 1.385 . S
C335 C334 1.374 . S
C336 C333 1.499 . S
C336 C337 1.373 . S
C336 C338 1.389 . S
C337 H316 0.950 . S
C337 C336 1.373 . S
C337 C353 1.377 . S
C338 C336 1.389 . S
C338 C339 1.524 . S
C338 C352 1.377 . S
C339 C338 1.524 . S
C339 C340 1.397 . S
C339 C344 1.363 . S
C340 H317 0.950 . S
C340 C339 1.397 . S
C340 C341 1.334 . S
C341 H318 0.950 . S
C341 C340 1.334 . S
C341 C342 1.287 . S
C342 C341 1.287 . S
C342 C343 1.524 . S
C342 H361 0.913 . S
C343 H319 0.950 . S
C343 C342 1.524 . S
C343 C344 1.415 . S
C344 H320 0.950 . S
C344 C339 1.363 . S
C344 C343 1.415 . S
C345 H321 0.951 . S
C345 C346 1.366 . S
C345 C347 1.388 . S
C346 C345 1.366 . S
C346 C350 1.385 . S
C347 H322 0.951 . S
C347 C345 1.388 . S
C347 C348 1.366 . S
C348 C347 1.366 . S
C348 C349 1.414 . S
C348 C351 1.499 . S
C349 H323 0.950 . S
C349 C348 1.414 . S
C349 C350 1.374 . S
C350 H324 0.950 . S
C350 C346 1.385 . S
C350 C349 1.374 . S
C351 C348 1.499 . S
C351 C352 1.373 . S
C351 C353 1.389 . S
C352 H325 0.950 . S
C352 C338 1.377 . S
C352 C351 1.373 . S
C353 C337 1.377 . S
C353 C351 1.389 . S
C353 C354 1.524 . S
C354 C353 1.524 . S
C354 C355 1.397 . S
C354 C359 1.363 . S
C355 H326 0.950 . S
C355 C354 1.397 . S
C355 C356 1.334 . S
C356 H327 0.949 1_455 S
C356 C355 1.334 . S
C356 C357 1.287 1_455 S
C357 C356 1.287 1_655 S
C357 C358 1.524 . S
C357 H360 0.999 . S
C358 H328 0.950 . S
C358 C357 1.524 . S
C358 C359 1.415 1_655 S
C359 H329 0.950 . S
C359 C354 1.363 . S
C359 C358 1.415 1_455 S
H360 C357 0.999 . S
H361 C342 0.913 . S
H362 C380 0.951 . S
H363 C382 0.951 . S
H364 C384 0.950 . S
H365 C385 0.950 . S
H366 C387 0.950 . S
H367 C390 0.950 . S
H368 C391 0.950 . S
H369 C393 0.950 . S
H370 C394 0.950 . S
H371 C395 0.951 . S
H372 C397 0.951 . S
H373 C399 0.950 . S
H374 C400 0.950 . S
H375 C402 0.950 . S
H376 C405 0.950 . S
H377 C406 0.950 . S
H378 C408 0.950 . S
H379 C409 0.950 . S
C380 H362 0.951 . S
C380 C381 1.366 . S
C380 C382 1.388 . S
C381 C380 1.366 . S
C381 C385 1.385 . S
C382 H363 0.951 . S
C382 C380 1.388 . S
C382 C383 1.366 . S
C383 C382 1.366 . S
C383 C384 1.414 . S
C383 C386 1.499 . S
C384 H364 0.950 . S
C384 C383 1.414 . S
C384 C385 1.374 . S
C385 H365 0.950 . S
C385 C381 1.385 . S
C385 C384 1.374 . S
C386 C383 1.499 . S
C386 C387 1.373 . S
C386 C388 1.389 . S
C387 H366 0.950 . S
C387 C386 1.373 . S
C387 C403 1.377 . S
C388 C386 1.389 . S
C388 C389 1.524 . S
C388 C402 1.377 . S
C389 C388 1.524 . S
C389 C390 1.397 . S
C389 C394 1.363 . S
C390 H367 0.950 . S
C390 C389 1.397 . S
C390 C391 1.334 . S
C391 H368 0.950 . S
C391 C390 1.334 . S
C391 C392 1.287 . S
C392 C391 1.287 . S
C392 C393 1.524 . S
C392 H411 0.913 . S
C393 H369 0.950 . S
C393 C392 1.524 . S
C393 C394 1.415 . S
C394 H370 0.950 . S
C394 C389 1.363 . S
C394 C393 1.415 . S
C395 H371 0.951 . S
C395 C396 1.366 . S
C395 C397 1.388 . S
C396 C395 1.366 . S
C396 C400 1.385 . S
C397 H372 0.951 . S
C397 C395 1.388 . S
C397 C398 1.366 . S
C398 C397 1.366 . S
C398 C399 1.414 . S
C398 C401 1.499 . S
C399 H373 0.950 . S
C399 C398 1.414 . S
C399 C400 1.374 . S
C400 H374 0.950 . S
C400 C396 1.385 . S
C400 C399 1.374 . S
C401 C398 1.499 . S
C401 C402 1.373 . S
C401 C403 1.389 . S
C402 H375 0.950 . S
C402 C388 1.377 . S
C402 C401 1.373 . S
C403 C387 1.377 . S
C403 C401 1.389 . S
C403 C404 1.524 . S
C404 C403 1.524 . S
C404 C405 1.397 . S
C404 C409 1.363 . S
C405 H376 0.950 . S
C405 C404 1.397 . S
C405 C406 1.334 . S
C406 H377 0.950 . S
C406 C405 1.334 . S
C406 C407 1.287 . S
C407 C406 1.287 . S
C407 C408 1.524 . S
C407 H410 0.999 . S
C408 H378 0.950 . S
C408 C407 1.524 . S
C408 C409 1.415 . S
C409 H379 0.950 . S
C409 C404 1.363 . S
C409 C408 1.415 . S
H410 C407 0.999 . S
H411 C392 0.913 . S
H412 C430 0.951 . S
H413 C432 0.951 . S
H414 C434 0.950 . S
H415 C435 0.950 . S
H416 C437 0.950 . S
H417 C440 0.950 . S
H418 C441 0.950 . S
H419 C443 0.950 . S
H420 C444 0.950 . S
H421 C445 0.951 . S
H422 C447 0.951 . S
H423 C449 0.950 . S
H424 C450 0.950 . S
H425 C452 0.950 . S
H426 C455 0.950 . S
H427 C456 0.950 . S
H428 C458 0.950 . S
H429 C459 0.950 . S
C430 H412 0.951 . S
C430 C431 1.366 . S
C430 C432 1.388 . S
C431 C430 1.366 . S
C431 C435 1.385 . S
C432 H413 0.951 . S
C432 C430 1.388 . S
C432 C433 1.366 . S
C433 C432 1.366 . S
C433 C434 1.414 . S
C433 C436 1.499 . S
C434 H414 0.950 . S
C434 C433 1.414 . S
C434 C435 1.374 . S
C435 H415 0.950 . S
C435 C431 1.385 . S
C435 C434 1.374 . S
C436 C433 1.499 . S
C436 C437 1.373 . S
C436 C438 1.389 . S
C437 H416 0.950 . S
C437 C436 1.373 . S
C437 C453 1.377 . S
C438 C436 1.389 . S
C438 C439 1.524 . S
C438 C452 1.377 . S
C439 C438 1.524 . S
C439 C440 1.397 . S
C439 C444 1.363 . S
C440 H417 0.950 . S
C440 C439 1.397 . S
C440 C441 1.334 . S
C441 H418 0.950 . S
C441 C440 1.334 . S
C441 C442 1.287 . S
C442 C441 1.287 . S
C442 C443 1.524 . S
C442 H461 0.913 . S
C443 H419 0.950 . S
C443 C442 1.524 . S
C443 C444 1.415 . S
C444 H420 0.950 . S
C444 C439 1.363 . S
C444 C443 1.415 . S
C445 H421 0.951 . S
C445 C446 1.366 . S
C445 C447 1.388 . S
C446 C445 1.366 . S
C446 C450 1.385 . S
C447 H422 0.951 . S
C447 C445 1.388 . S
C447 C448 1.366 . S
C448 C447 1.366 . S
C448 C449 1.414 . S
C448 C451 1.499 . S
C449 H423 0.950 . S
C449 C448 1.414 . S
C449 C450 1.374 . S
C450 H424 0.950 . S
C450 C446 1.385 . S
C450 C449 1.374 . S
C451 C448 1.499 . S
C451 C452 1.373 . S
C451 C453 1.389 . S
C452 H425 0.950 . S
C452 C438 1.377 . S
C452 C451 1.373 . S
C453 C437 1.377 . S
C453 C451 1.389 . S
C453 C454 1.524 . S
C454 C453 1.524 . S
C454 C455 1.397 . S
C454 C459 1.363 . S
C455 H426 0.950 . S
C455 C454 1.397 . S
C455 C456 1.334 . S
C456 H427 0.950 . S
C456 C455 1.334 . S
C456 C457 1.287 . S
C457 C456 1.287 . S
C457 C458 1.524 . S
C457 H460 0.999 . S
C458 H428 0.950 . S
C458 C457 1.524 . S
C458 C459 1.415 . S
C459 H429 0.950 . S
C459 C454 1.363 . S
C459 C458 1.415 . S
H460 C457 0.999 . S
H461 C442 0.913 . S
H462 C480 0.951 . S
H463 C482 0.951 . S
H464 C484 0.950 . S
H465 C485 0.950 . S
H466 C487 0.950 . S
H467 C490 0.950 . S
H468 C491 0.950 . S
H469 C493 0.950 . S
H470 C494 0.950 . S
H471 C495 0.951 . S
H472 C497 0.951 . S
H473 C499 0.950 . S
H474 C500 0.950 . S
H475 C502 0.950 . S
H476 C505 0.950 . S
H477 C506 0.950 . S
H478 C508 0.950 . S
H479 C509 0.950 . S
C480 H462 0.951 . S
C480 C481 1.366 . S
C480 C482 1.388 . S
C481 C480 1.366 . S
C481 C485 1.385 . S
C482 H463 0.951 . S
C482 C480 1.388 . S
C482 C483 1.366 . S
C483 C482 1.366 . S
C483 C484 1.414 . S
C483 C486 1.499 . S
C484 H464 0.950 . S
C484 C483 1.414 . S
C484 C485 1.374 . S
C485 H465 0.950 . S
C485 C481 1.385 . S
C485 C484 1.374 . S
C486 C483 1.499 . S
C486 C487 1.373 . S
C486 C488 1.389 . S
C487 H466 0.950 . S
C487 C486 1.373 . S
C487 C503 1.377 . S
C488 C486 1.389 . S
C488 C489 1.524 . S
C488 C502 1.377 . S
C489 C488 1.524 . S
C489 C490 1.397 . S
C489 C494 1.363 . S
C490 H467 0.950 . S
C490 C489 1.397 . S
C490 C491 1.334 . S
C491 H468 0.950 . S
C491 C490 1.334 . S
C491 C492 1.287 . S
C492 C491 1.287 . S
C492 C493 1.524 . S
C492 H511 0.913 . S
C493 H469 0.950 . S
C493 C492 1.524 . S
C493 C494 1.415 . S
C494 H470 0.950 . S
C494 C489 1.363 . S
C494 C493 1.415 . S
C495 H471 0.951 . S
C495 C496 1.366 . S
C495 C497 1.388 . S
C496 C495 1.366 . S
C496 C500 1.385 . S
C497 H472 0.951 . S
C497 C495 1.388 . S
C497 C498 1.366 . S
C498 C497 1.366 . S
C498 C499 1.414 . S
C498 C501 1.499 . S
C499 H473 0.950 . S
C499 C498 1.414 . S
C499 C500 1.374 . S
C500 H474 0.950 . S
C500 C496 1.385 . S
C500 C499 1.374 . S
C501 C498 1.499 . S
C501 C502 1.373 . S
C501 C503 1.389 . S
C502 H475 0.950 . S
C502 C488 1.377 . S
C502 C501 1.373 . S
C503 C487 1.377 . S
C503 C501 1.389 . S
C503 C504 1.524 . S
C504 C503 1.524 . S
C504 C505 1.397 . S
C504 C509 1.363 . S
C505 H476 0.950 . S
C505 C504 1.397 . S
C505 C506 1.334 . S
C506 H477 0.950 . S
C506 C505 1.334 . S
C506 C507 1.287 . S
C507 C506 1.287 . S
C507 C508 1.524 . S
C507 H510 0.999 . S
C508 H478 0.950 . S
C508 C507 1.524 . S
C508 C509 1.415 . S
C509 H479 0.950 . S
C509 C504 1.363 . S
C509 C508 1.415 . S
H510 C507 0.999 . S
H511 C492 0.913 . S
H512 C530 0.951 . S
H513 C532 0.951 . S
H514 C534 0.950 . S
H515 C535 0.950 . S
H516 C537 0.950 . S
H517 C540 0.950 . S
H518 C541 0.950 . S
H519 C543 0.950 . S
H520 C544 0.950 . S
H521 C545 0.951 . S
H522 C547 0.951 . S
H523 C549 0.950 . S
H524 C550 0.950 . S
H525 C552 0.950 . S
H526 C555 0.950 . S
H527 C556 0.950 . S
H528 C558 0.950 . S
H529 C559 0.950 . S
C530 H512 0.951 . S
C530 C531 1.366 . S
C530 C532 1.388 . S
C531 C530 1.366 . S
C531 C535 1.385 . S
C532 H513 0.951 . S
C532 C530 1.388 . S
C532 C533 1.366 . S
C533 C532 1.366 . S
C533 C534 1.414 . S
C533 C536 1.499 . S
C534 H514 0.950 . S
C534 C533 1.414 . S
C534 C535 1.374 . S
C535 H515 0.950 . S
C535 C531 1.385 . S
C535 C534 1.374 . S
C536 C533 1.499 . S
C536 C537 1.373 . S
C536 C538 1.389 . S
C537 H516 0.950 . S
C537 C536 1.373 . S
C537 C553 1.377 . S
C538 C536 1.389 . S
C538 C539 1.524 . S
C538 C552 1.377 . S
C539 C538 1.524 . S
C539 C540 1.397 . S
C539 C544 1.363 . S
C540 H517 0.950 . S
C540 C539 1.397 . S
C540 C541 1.334 . S
C541 H518 0.950 . S
C541 C540 1.334 . S
C541 C542 1.287 . S
C542 C541 1.287 . S
C542 C543 1.524 . S
C542 H561 0.913 . S
C543 H519 0.950 . S
C543 C542 1.524 . S
C543 C544 1.415 . S
C544 H520 0.950 . S
C544 C539 1.363 . S
C544 C543 1.415 . S
C545 H521 0.951 . S
C545 C546 1.366 . S
C545 C547 1.388 . S
C546 C545 1.366 . S
C546 C550 1.385 . S
C547 H522 0.951 . S
C547 C545 1.388 . S
C547 C548 1.366 . S
C548 C547 1.366 . S
C548 C549 1.414 . S
C548 C551 1.499 . S
C549 H523 0.950 . S
C549 C548 1.414 . S
C549 C550 1.374 . S
C550 H524 0.950 . S
C550 C546 1.385 . S
C550 C549 1.374 . S
C551 C548 1.499 . S
C551 C552 1.373 . S
C551 C553 1.389 . S
C552 H525 0.950 . S
C552 C538 1.377 . S
C552 C551 1.373 . S
C553 C537 1.377 . S
C553 C551 1.389 . S
C553 C554 1.524 . S
C554 C553 1.524 . S
C554 C555 1.397 . S
C554 C559 1.363 . S
C555 H526 0.950 . S
C555 C554 1.397 . S
C555 C556 1.334 . S
C556 H527 0.950 . S
C556 C555 1.334 . S
C556 C557 1.287 . S
C557 C556 1.287 . S
C557 C558 1.524 . S
C557 H560 0.999 . S
C558 H528 0.950 . S
C558 C557 1.524 . S
C558 C559 1.415 . S
C559 H529 0.950 . S
C559 C554 1.363 . S
C559 C558 1.415 . S
H560 C557 0.999 . S
H561 C542 0.913 . S
H562 C580 0.951 . S
H563 C582 0.951 . S
H564 C584 0.950 . S
H565 C585 0.950 . S
H566 C587 0.950 . S
H567 C590 0.950 . S
H568 C591 0.950 . S
H569 C593 0.950 . S
H570 C594 0.950 . S
H571 C595 0.951 . S
H572 C597 0.951 . S
H573 C599 0.950 . S
H574 C600 0.950 . S
H575 C602 0.950 . S
H576 C605 0.950 . S
H577 C606 0.950 . S
H578 C608 0.950 . S
H579 C609 0.950 . S
C580 H562 0.951 . S
C580 C581 1.366 . S
C580 C582 1.388 . S
C581 C580 1.366 . S
C581 C585 1.385 . S
C582 H563 0.951 . S
C582 C580 1.388 . S
C582 C583 1.366 . S
C583 C582 1.366 . S
C583 C584 1.414 . S
C583 C586 1.499 . S
C584 H564 0.950 . S
C584 C583 1.414 . S
C584 C585 1.374 . S
C585 H565 0.950 . S
C585 C581 1.385 . S
C585 C584 1.374 . S
C586 C583 1.499 . S
C586 C587 1.373 . S
C586 C588 1.389 . S
C587 H566 0.950 . S
C587 C586 1.373 . S
C587 C603 1.377 . S
C588 C586 1.389 . S
C588 C589 1.524 . S
C588 C602 1.377 . S
C589 C588 1.524 . S
C589 C590 1.397 . S
C589 C594 1.363 . S
C590 H567 0.950 . S
C590 C589 1.397 . S
C590 C591 1.334 . S
C591 H568 0.950 . S
C591 C590 1.334 . S
C591 C592 1.287 . S
C592 C591 1.287 . S
C592 C593 1.524 . S
C592 H611 0.913 . S
C593 H569 0.950 . S
C593 C592 1.524 . S
C593 C594 1.415 . S
C594 H570 0.950 . S
C594 C589 1.363 . S
C594 C593 1.415 . S
C595 H571 0.951 . S
C595 C596 1.366 . S
C595 C597 1.388 . S
C596 C595 1.366 . S
C596 C600 1.385 . S
C597 H572 0.951 . S
C597 C595 1.388 . S
C597 C598 1.366 . S
C598 C597 1.366 . S
C598 C599 1.414 . S
C598 C601 1.499 . S
C599 H573 0.950 . S
C599 C598 1.414 . S
C599 C600 1.374 . S
C600 H574 0.950 . S
C600 C596 1.385 . S
C600 C599 1.374 . S
C601 C598 1.499 . S
C601 C602 1.373 . S
C601 C603 1.389 . S
C602 H575 0.950 . S
C602 C588 1.377 . S
C602 C601 1.373 . S
C603 C587 1.377 . S
C603 C601 1.389 . S
C603 C604 1.524 . S
C604 C603 1.524 . S
C604 C605 1.397 . S
C604 C609 1.363 . S
C605 H576 0.950 . S
C605 C604 1.397 . S
C605 C606 1.334 . S
C606 H577 0.950 . S
C606 C605 1.334 . S
C606 C607 1.287 . S
C607 C606 1.287 . S
C607 C608 1.524 . S
C607 H610 0.999 . S
C608 H578 0.950 . S
C608 C607 1.524 . S
C608 C609 1.415 . S
C609 H579 0.950 . S
C609 C604 1.363 . S
C609 C608 1.415 . S
H610 C607 0.999 . S
H611 C592 0.913 . S
H612 C630 0.951 . S
H613 C632 0.951 . S
H614 C634 0.950 . S
H615 C635 0.950 . S
H616 C637 0.950 . S
H617 C640 0.950 . S
H618 C641 0.950 . S
H619 C643 0.950 . S
H620 C644 0.950 . S
H621 C645 0.951 . S
H622 C647 0.951 . S
H623 C649 0.950 . S
H624 C650 0.950 . S
H625 C652 0.950 . S
H626 C655 0.950 . S
H627 C656 0.950 . S
H628 C658 0.950 . S
H629 C659 0.950 . S
C630 H612 0.951 . S
C630 C631 1.366 . S
C630 C632 1.388 . S
C631 C630 1.366 . S
C631 C635 1.385 . S
C632 H613 0.951 . S
C632 C630 1.388 . S
C632 C633 1.366 . S
C633 C632 1.366 . S
C633 C634 1.414 . S
C633 C636 1.499 . S
C634 H614 0.950 . S
C634 C633 1.414 . S
C634 C635 1.374 . S
C635 H615 0.950 . S
C635 C631 1.385 . S
C635 C634 1.374 . S
C636 C633 1.499 . S
C636 C637 1.373 . S
C636 C638 1.389 . S
C637 H616 0.950 . S
C637 C636 1.373 . S
C637 C653 1.377 . S
C638 C636 1.389 . S
C638 C639 1.524 . S
C638 C652 1.377 . S
C639 C638 1.524 . S
C639 C640 1.397 . S
C639 C644 1.363 . S
C640 H617 0.950 . S
C640 C639 1.397 . S
C640 C641 1.334 . S
C641 H618 0.950 . S
C641 C640 1.334 . S
C641 C642 1.287 . S
C642 C641 1.287 . S
C642 C643 1.524 . S
C642 H661 0.913 . S
C643 H619 0.950 . S
C643 C642 1.524 . S
C643 C644 1.415 . S
C644 H620 0.950 . S
C644 C639 1.363 . S
C644 C643 1.415 . S
C645 H621 0.951 . S
C645 C646 1.366 . S
C645 C647 1.388 . S
C646 C645 1.366 . S
C646 C650 1.385 . S
C647 H622 0.951 . S
C647 C645 1.388 . S
C647 C648 1.366 . S
C648 C647 1.366 . S
C648 C649 1.414 . S
C648 C651 1.499 . S
C649 H623 0.950 . S
C649 C648 1.414 . S
C649 C650 1.374 . S
C650 H624 0.950 . S
C650 C646 1.385 . S
C650 C649 1.374 . S
C651 C648 1.499 . S
C651 C652 1.373 . S
C651 C653 1.389 . S
C652 H625 0.950 . S
C652 C638 1.377 . S
C652 C651 1.373 . S
C653 C637 1.377 . S
C653 C651 1.389 . S
C653 C654 1.524 . S
C654 C653 1.524 . S
C654 C655 1.397 . S
C654 C659 1.363 . S
C655 H626 0.950 . S
C655 C654 1.397 . S
C655 C656 1.334 . S
C656 H627 0.950 . S
C656 C655 1.334 . S
C656 C657 1.287 . S
C657 C656 1.287 . S
C657 C658 1.524 . S
C657 H660 0.999 . S
C658 H628 0.950 . S
C658 C657 1.524 . S
C658 C659 1.415 . S
C659 H629 0.950 . S
C659 C654 1.363 . S
C659 C658 1.415 . S
H660 C657 0.999 . S
H661 C642 0.913 . S
H662 C680 0.951 . S
H663 C682 0.951 . S
H664 C684 0.950 . S
H665 C685 0.950 . S
H666 C687 0.950 . S
H667 C690 0.950 . S
H668 C691 0.950 . S
H669 C693 0.950 . S
H670 C694 0.950 . S
H671 C695 0.951 . S
H672 C697 0.951 . S
H673 C699 0.950 . S
H674 C700 0.950 . S
H675 C702 0.950 . S
H676 C705 0.950 . S
H677 C706 0.947 1_554 S
H678 C708 0.950 . S
H679 C709 0.950 . S
C680 H662 0.951 . S
C680 C681 1.366 . S
C680 C682 1.388 . S
C681 C680 1.366 . S
C681 C685 1.385 . S
C682 H663 0.951 . S
C682 C680 1.388 . S
C682 C683 1.366 . S
C683 C682 1.366 . S
C683 C684 1.414 . S
C683 C686 1.499 . S
C684 H664 0.950 . S
C684 C683 1.414 . S
C684 C685 1.374 . S
C685 H665 0.950 . S
C685 C681 1.385 . S
C685 C684 1.374 . S
C686 C683 1.499 . S
C686 C687 1.373 . S
C686 C688 1.389 . S
C687 H666 0.950 . S
C687 C686 1.373 . S
C687 C703 1.377 . S
C688 C686 1.389 . S
C688 C689 1.524 . S
C688 C702 1.377 . S
C689 C688 1.524 . S
C689 C690 1.397 . S
C689 C694 1.363 . S
C690 H667 0.950 . S
C690 C689 1.397 . S
C690 C691 1.334 . S
C691 H668 0.950 . S
C691 C690 1.334 . S
C691 C692 1.287 . S
C692 C691 1.287 . S
C692 C693 1.524 . S
C692 H711 0.913 . S
C693 H669 0.950 . S
C693 C692 1.524 . S
C693 C694 1.415 . S
C694 H670 0.950 . S
C694 C689 1.363 . S
C694 C693 1.415 . S
C695 H671 0.951 . S
C695 C696 1.366 . S
C695 C697 1.388 . S
C696 C695 1.366 . S
C696 C700 1.385 . S
C697 H672 0.951 . S
C697 C695 1.388 . S
C697 C698 1.366 . S
C698 C697 1.366 . S
C698 C699 1.414 . S
C698 C701 1.499 . S
C699 H673 0.950 . S
C699 C698 1.414 . S
C699 C700 1.374 . S
C700 H674 0.950 . S
C700 C696 1.385 . S
C700 C699 1.374 . S
C701 C698 1.499 . S
C701 C702 1.373 . S
C701 C703 1.389 . S
C702 H675 0.950 . S
C702 C688 1.377 . S
C702 C701 1.373 . S
C703 C687 1.377 . S
C703 C701 1.389 . S
C703 C704 1.524 . S
C704 C703 1.524 . S
C704 C705 1.397 . S
C704 C709 1.363 . S
C705 H676 0.950 . S
C705 C704 1.397 . S
C705 C706 1.343 . S
C706 H677 0.947 1_556 S
C706 C705 1.343 . S
C706 C707 1.281 1_556 S
C707 C706 1.281 1_554 S
C707 C708 1.524 . S
C707 H710 0.999 . S
C708 H678 0.950 . S
C708 C707 1.524 . S
C708 C709 1.415 1_554 S
C709 H679 0.950 . S
C709 C704 1.363 . S
C709 C708 1.415 1_556 S
H710 C707 0.999 . S
H711 C692 0.913 . S
H712 C730 0.951 . S
H713 C732 0.951 . S
H714 C734 0.950 . S
H715 C735 0.950 . S
H716 C737 0.950 . S
H717 C740 0.950 . S
H718 C741 0.950 . S
H719 C743 0.950 . S
H720 C744 0.950 . S
H721 C745 0.951 . S
H722 C747 0.951 . S
H723 C749 0.950 . S
H724 C750 0.950 . S
H725 C752 0.950 . S
H726 C755 0.950 . S
H727 C756 0.950 . S
H728 C758 0.950 . S
H729 C759 0.950 . S
C730 H712 0.951 . S
C730 C731 1.366 . S
C730 C732 1.388 . S
C731 C730 1.366 . S
C731 C735 1.385 . S
C732 H713 0.951 . S
C732 C730 1.388 . S
C732 C733 1.366 . S
C733 C732 1.366 . S
C733 C734 1.414 . S
C733 C736 1.499 . S
C734 H714 0.950 . S
C734 C733 1.414 . S
C734 C735 1.374 . S
C735 H715 0.950 . S
C735 C731 1.385 . S
C735 C734 1.374 . S
C736 C733 1.499 . S
C736 C737 1.373 . S
C736 C738 1.389 . S
C737 H716 0.950 . S
C737 C736 1.373 . S
C737 C753 1.377 . S
C738 C736 1.389 . S
C738 C739 1.524 . S
C738 C752 1.377 . S
C739 C738 1.524 . S
C739 C740 1.397 . S
C739 C744 1.363 . S
C740 H717 0.950 . S
C740 C739 1.397 . S
C740 C741 1.334 . S
C741 H718 0.950 . S
C741 C740 1.334 . S
C741 C742 1.287 . S
C742 C741 1.287 . S
C742 C743 1.524 . S
C742 H761 0.913 . S
C743 H719 0.950 . S
C743 C742 1.524 . S
C743 C744 1.415 . S
C744 H720 0.950 . S
C744 C739 1.363 . S
C744 C743 1.415 . S
C745 H721 0.951 . S
C745 C746 1.366 . S
C745 C747 1.388 . S
C746 C745 1.366 . S
C746 C750 1.385 . S
C747 H722 0.951 . S
C747 C745 1.388 . S
C747 C748 1.366 . S
C748 C747 1.366 . S
C748 C749 1.414 . S
C748 C751 1.499 . S
C749 H723 0.950 . S
C749 C748 1.414 . S
C749 C750 1.374 . S
C750 H724 0.950 . S
C750 C746 1.385 . S
C750 C749 1.374 . S
C751 C748 1.499 . S
C751 C752 1.373 . S
C751 C753 1.389 . S
C752 H725 0.950 . S
C752 C738 1.377 . S
C752 C751 1.373 . S
C753 C737 1.377 . S
C753 C751 1.389 . S
C753 C754 1.524 . S
C754 C753 1.524 . S
C754 C755 1.397 . S
C754 C759 1.363 . S
C755 H726 0.950 . S
C755 C754 1.397 . S
C755 C756 1.334 . S
C756 H727 0.950 . S
C756 C755 1.334 . S
C756 C757 1.287 . S
C757 C756 1.287 . S
C757 C758 1.524 . S
C757 H760 0.999 . S
C758 H728 0.950 . S
C758 C757 1.524 . S
C758 C759 1.415 . S
C759 H729 0.950 . S
C759 C754 1.363 . S
C759 C758 1.415 . S
H760 C757 0.999 . S
H761 C742 0.913 . S
H762 C780 0.951 . S
H763 C782 0.951 . S
H764 C784 0.950 . S
H765 C785 0.950 . S
H766 C787 0.950 . S
H767 C790 0.950 . S
H768 C791 0.950 . S
H769 C793 0.950 . S
H770 C794 0.950 . S
H771 C795 0.951 . S
H772 C797 0.951 . S
H773 C799 0.950 . S
H774 C800 0.950 . S
H775 C802 0.950 . S
H776 C805 0.950 . S
H777 C806 0.950 . S
H778 C808 0.950 . S
H779 C809 0.950 . S
C780 H762 0.951 . S
C780 C781 1.366 . S
C780 C782 1.388 . S
C781 C780 1.366 . S
C781 C785 1.385 . S
C782 H763 0.951 . S
C782 C780 1.388 . S
C782 C783 1.366 . S
C783 C782 1.366 . S
C783 C784 1.414 . S
C783 C786 1.499 . S
C784 H764 0.950 . S
C784 C783 1.414 . S
C784 C785 1.374 . S
C785 H765 0.950 . S
C785 C781 1.385 . S
C785 C784 1.374 . S
C786 C783 1.499 . S
C786 C787 1.373 . S
C786 C788 1.389 . S
C787 H766 0.950 . S
C787 C786 1.373 . S
C787 C803 1.377 . S
C788 C786 1.389 . S
C788 C789 1.524 . S
C788 C802 1.377 . S
C789 C788 1.524 . S
C789 C790 1.397 . S
C789 C794 1.363 . S
C790 H767 0.950 . S
C790 C789 1.397 . S
C790 C791 1.334 . S
C791 H768 0.950 . S
C791 C790 1.334 . S
C791 C792 1.287 . S
C792 C791 1.287 . S
C792 C793 1.524 . S
C792 H811 0.913 . S
C793 H769 0.950 . S
C793 C792 1.524 . S
C793 C794 1.415 . S
C794 H770 0.950 . S
C794 C789 1.363 . S
C794 C793 1.415 . S
C795 H771 0.951 . S
C795 C796 1.366 . S
C795 C797 1.388 . S
C796 C795 1.366 . S
C796 C800 1.385 . S
C797 H772 0.951 . S
C797 C795 1.388 . S
C797 C798 1.366 . S
C798 C797 1.366 . S
C798 C799 1.414 . S
C798 C801 1.499 . S
C799 H773 0.950 . S
C799 C798 1.414 . S
C799 C800 1.374 . S
C800 H774 0.950 . S
C800 C796 1.385 . S
C800 C799 1.374 . S
C801 C798 1.499 . S
C801 C802 1.373 . S
C801 C803 1.389 . S
C802 H775 0.950 . S
C802 C788 1.377 . S
C802 C801 1.373 . S
C803 C787 1.377 . S
C803 C801 1.389 . S
C803 C804 1.524 . S
C804 C803 1.524 . S
C804 C805 1.397 . S
C804 C809 1.363 . S
C805 H776 0.950 . S
C805 C804 1.397 . S
C805 C806 1.334 . S
C806 H777 0.950 . S
C806 C805 1.334 . S
C806 C807 1.287 . S
C807 C806 1.287 . S
C807 C808 1.524 . S
C807 H810 0.999 . S
C808 H778 0.950 . S
C808 C807 1.524 . S
C808 C809 1.415 . S
C809 H779 0.950 . S
C809 C804 1.363 . S
C809 C808 1.415 . S
H810 C807 0.999 . S
H811 C792 0.913 . S
H812 C830 0.951 . S
H813 C832 0.951 . S
H814 C834 0.950 . S
H815 C835 0.950 . S
H816 C837 0.950 . S
H817 C840 0.950 . S
H818 C841 0.950 . S
H819 C843 0.950 . S
H820 C844 0.950 . S
H821 C845 0.951 . S
H822 C847 0.951 . S
H823 C849 0.950 . S
H824 C850 0.950 . S
H825 C852 0.950 . S
H826 C855 0.950 . S
H827 C856 0.950 . S
H828 C858 0.950 . S
H829 C859 0.950 . S
C830 H812 0.951 . S
C830 C831 1.366 . S
C830 C832 1.388 . S
C831 C830 1.366 . S
C831 C835 1.385 . S
C832 H813 0.951 . S
C832 C830 1.388 . S
C832 C833 1.366 . S
C833 C832 1.366 . S
C833 C834 1.414 . S
C833 C836 1.499 . S
C834 H814 0.950 . S
C834 C833 1.414 . S
C834 C835 1.374 . S
C835 H815 0.950 . S
C835 C831 1.385 . S
C835 C834 1.374 . S
C836 C833 1.499 . S
C836 C837 1.373 . S
C836 C838 1.389 . S
C837 H816 0.950 . S
C837 C836 1.373 . S
C837 C853 1.377 . S
C838 C836 1.389 . S
C838 C839 1.524 . S
C838 C852 1.377 . S
C839 C838 1.524 . S
C839 C840 1.397 . S
C839 C844 1.363 . S
C840 H817 0.950 . S
C840 C839 1.397 . S
C840 C841 1.334 . S
C841 H818 0.950 . S
C841 C840 1.334 . S
C841 C842 1.287 . S
C842 C841 1.287 . S
C842 C843 1.524 . S
C842 H861 0.913 . S
C843 H819 0.950 . S
C843 C842 1.524 . S
C843 C844 1.415 . S
C844 H820 0.950 . S
C844 C839 1.363 . S
C844 C843 1.415 . S
C845 H821 0.951 . S
C845 C846 1.366 . S
C845 C847 1.388 . S
C846 C845 1.366 . S
C846 C850 1.385 . S
C847 H822 0.951 . S
C847 C845 1.388 . S
C847 C848 1.366 . S
C848 C847 1.366 . S
C848 C849 1.414 . S
C848 C851 1.499 . S
C849 H823 0.950 . S
C849 C848 1.414 . S
C849 C850 1.374 . S
C850 H824 0.950 . S
C850 C846 1.385 . S
C850 C849 1.374 . S
C851 C848 1.499 . S
C851 C852 1.373 . S
C851 C853 1.389 . S
C852 H825 0.950 . S
C852 C838 1.377 . S
C852 C851 1.373 . S
C853 C837 1.377 . S
C853 C851 1.389 . S
C853 C854 1.524 . S
C854 C853 1.524 . S
C854 C855 1.397 . S
C854 C859 1.363 . S
C855 H826 0.950 . S
C855 C854 1.397 . S
C855 C856 1.334 . S
C856 H827 0.950 . S
C856 C855 1.334 . S
C856 C857 1.287 . S
C857 C856 1.287 . S
C857 C858 1.524 . S
C857 H860 0.999 . S
C858 H828 0.950 . S
C858 C857 1.524 . S
C858 C859 1.415 . S
C859 H829 0.950 . S
C859 C854 1.363 . S
C859 C858 1.415 . S
H860 C857 0.999 . S
H861 C842 0.913 . S
H862 C880 0.951 . S
H863 C882 0.951 . S
H864 C884 0.950 . S
H865 C885 0.950 . S
H866 C887 0.950 . S
H867 C890 0.950 . S
H868 C891 0.950 . S
H869 C893 0.950 . S
H870 C894 0.950 . S
H871 C895 0.951 . S
H872 C897 0.951 . S
H873 C899 0.950 . S
H874 C900 0.950 . S
H875 C902 0.950 . S
H876 C905 0.950 . S
H877 C906 0.950 . S
H878 C908 0.950 . S
H879 C909 0.950 . S
C880 H862 0.951 . S
C880 C881 1.366 . S
C880 C882 1.388 . S
C881 C880 1.366 . S
C881 C885 1.385 . S
C882 H863 0.951 . S
C882 C880 1.388 . S
C882 C883 1.366 . S
C883 C882 1.366 . S
C883 C884 1.414 . S
C883 C886 1.499 . S
C884 H864 0.950 . S
C884 C883 1.414 . S
C884 C885 1.374 . S
C885 H865 0.950 . S
C885 C881 1.385 . S
C885 C884 1.374 . S
C886 C883 1.499 . S
C886 C887 1.373 . S
C886 C888 1.389 . S
C887 H866 0.950 . S
C887 C886 1.373 . S
C887 C903 1.377 . S
C888 C886 1.389 . S
C888 C889 1.524 . S
C888 C902 1.377 . S
C889 C888 1.524 . S
C889 C890 1.397 . S
C889 C894 1.363 . S
C890 H867 0.950 . S
C890 C889 1.397 . S
C890 C891 1.334 . S
C891 H868 0.950 . S
C891 C890 1.334 . S
C891 C892 1.287 . S
C892 C891 1.287 . S
C892 C893 1.524 . S
C892 H911 0.913 . S
C893 H869 0.950 . S
C893 C892 1.524 . S
C893 C894 1.415 . S
C894 H870 0.950 . S
C894 C889 1.363 . S
C894 C893 1.415 . S
C895 H871 0.951 . S
C895 C896 1.366 . S
C895 C897 1.388 . S
C896 C895 1.366 . S
C896 C900 1.385 . S
C897 H872 0.951 . S
C897 C895 1.388 . S
C897 C898 1.366 . S
C898 C897 1.366 . S
C898 C899 1.414 . S
C898 C901 1.499 . S
C899 H873 0.950 . S
C899 C898 1.414 . S
C899 C900 1.374 . S
C900 H874 0.950 . S
C900 C896 1.385 . S
C900 C899 1.374 . S
C901 C898 1.499 . S
C901 C902 1.373 . S
C901 C903 1.389 . S
C902 H875 0.950 . S
C902 C888 1.377 . S
C902 C901 1.373 . S
C903 C887 1.377 . S
C903 C901 1.389 . S
C903 C904 1.524 . S
C904 C903 1.524 . S
C904 C905 1.397 . S
C904 C909 1.363 . S
C905 H876 0.950 . S
C905 C904 1.397 . S
C905 C906 1.334 . S
C906 H877 0.950 . S
C906 C905 1.334 . S
C906 C907 1.287 . S
C907 C906 1.287 . S
C907 C908 1.524 . S
C907 H910 0.999 . S
C908 H878 0.950 . S
C908 C907 1.524 . S
C908 C909 1.415 . S
C909 H879 0.950 . S
C909 C904 1.363 . S
C909 C908 1.415 . S
H910 C907 0.999 . S
H911 C892 0.913 . S
H912 C930 0.951 . S
H913 C932 0.951 . S
H914 C934 0.950 . S
H915 C935 0.950 . S
H916 C937 0.950 . S
H917 C940 0.950 . S
H918 C941 0.950 . S
H919 C943 0.950 . S
H920 C944 0.950 . S
H921 C945 0.951 . S
H922 C947 0.951 . S
H923 C949 0.950 . S
H924 C950 0.950 . S
H925 C952 0.950 . S
H926 C955 0.950 . S
H927 C956 0.950 . S
H928 C958 0.950 . S
H929 C959 0.950 . S
C930 H912 0.951 . S
C930 C931 1.366 . S
C930 C932 1.388 . S
C931 C930 1.366 . S
C931 C935 1.385 . S
C932 H913 0.951 . S
C932 C930 1.388 . S
C932 C933 1.366 . S
C933 C932 1.366 . S
C933 C934 1.414 . S
C933 C936 1.499 . S
C934 H914 0.950 . S
C934 C933 1.414 . S
C934 C935 1.374 . S
C935 H915 0.950 . S
C935 C931 1.385 . S
C935 C934 1.374 . S
C936 C933 1.499 . S
C936 C937 1.373 . S
C936 C938 1.389 . S
C937 H916 0.950 . S
C937 C936 1.373 . S
C937 C953 1.377 . S
C938 C936 1.389 . S
C938 C939 1.524 . S
C938 C952 1.377 . S
C939 C938 1.524 . S
C939 C940 1.397 . S
C939 C944 1.363 . S
C940 H917 0.950 . S
C940 C939 1.397 . S
C940 C941 1.334 . S
C941 H918 0.950 . S
C941 C940 1.334 . S
C941 C942 1.287 . S
C942 C941 1.287 . S
C942 C943 1.524 . S
C942 H961 0.913 . S
C943 H919 0.950 . S
C943 C942 1.524 . S
C943 C944 1.415 . S
C944 H920 0.950 . S
C944 C939 1.363 . S
C944 C943 1.415 . S
C945 H921 0.951 . S
C945 C946 1.366 . S
C945 C947 1.388 . S
C946 C945 1.366 . S
C946 C950 1.385 . S
C947 H922 0.951 . S
C947 C945 1.388 . S
C947 C948 1.366 . S
C948 C947 1.366 . S
C948 C949 1.414 . S
C948 C951 1.499 . S
C949 H923 0.950 . S
C949 C948 1.414 . S
C949 C950 1.374 . S
C950 H924 0.950 . S
C950 C946 1.385 . S
C950 C949 1.374 . S
C951 C948 1.499 . S
C951 C952 1.373 . S
C951 C953 1.389 . S
C952 H925 0.950 . S
C952 C938 1.377 . S
C952 C951 1.373 . S
C953 C937 1.377 . S
C953 C951 1.389 . S
C953 C954 1.524 . S
C954 C953 1.524 . S
C954 C955 1.397 . S
C954 C959 1.363 . S
C955 H926 0.950 . S
C955 C954 1.397 . S
C955 C956 1.334 . S
C956 H927 0.950 . S
C956 C955 1.334 . S
C956 C957 1.287 . S
C957 C956 1.287 . S
C957 C958 1.524 . S
C957 H960 0.999 . S
C958 H928 0.950 . S
C958 C957 1.524 . S
C958 C959 1.415 . S
C959 H929 0.950 . S
C959 C954 1.363 . S
C959 C958 1.415 . S
H960 C957 0.999 . S
H961 C942 0.913 . S
H962 C980 0.951 . S
H963 C982 0.951 . S
H964 C984 0.950 . S
H965 C985 0.950 . S
H966 C987 0.950 . S
H967 C990 0.950 . S
H968 C991 0.950 . S
H969 C993 0.996 . S
H970 C994 0.950 . S
H971 C995 0.951 . S
H972 C997 0.951 . S
H973 C999 0.950 . S
H974 C1000 0.950 . S
H975 C1002 0.950 . S
H976 C1005 0.950 . S
H977 C1006 0.950 . S
H978 C1008 0.950 . S
H979 C1009 0.950 . S
C980 H962 0.951 . S
C980 C981 1.366 . S
C980 C982 1.388 . S
C981 C980 1.366 . S
C981 C985 1.385 . S
C982 H963 0.951 . S
C982 C980 1.388 . S
C982 C983 1.366 . S
C983 C982 1.366 . S
C983 C984 1.414 . S
C983 C986 1.499 . S
C984 H964 0.950 . S
C984 C983 1.414 . S
C984 C985 1.374 . S
C985 H965 0.950 . S
C985 C981 1.385 . S
C985 C984 1.374 . S
C986 C983 1.499 . S
C986 C987 1.373 . S
C986 C988 1.389 . S
C987 H966 0.950 . S
C987 C986 1.373 . S
C987 C1003 1.377 . S
C988 C986 1.389 . S
C988 C989 1.524 . S
C988 C1002 1.377 . S
C989 C988 1.524 . S
C989 C990 1.397 . S
C989 C994 1.363 . S
C990 H967 0.950 . S
C990 C989 1.397 . S
C990 C991 1.334 . S
C991 H968 0.950 . S
C991 C990 1.334 . S
C991 C992 1.297 . S
C992 C991 1.297 . S
C992 C993 1.522 1_655 S
C992 H1011 0.902 1_655 S
C993 H969 0.996 . S
C993 C992 1.522 1_455 S
C993 C994 1.366 1_455 S
C994 H970 0.950 . S
C994 C989 1.363 . S
C994 C993 1.366 1_655 S
C995 H971 0.951 . S
C995 C996 1.366 . S
C995 C997 1.388 . S
C996 C995 1.366 . S
C996 C1000 1.385 . S
C997 H972 0.951 . S
C997 C995 1.388 . S
C997 C998 1.366 . S
C998 C997 1.366 . S
C998 C999 1.414 . S
C998 C1001 1.499 . S
C999 H973 0.950 . S
C999 C998 1.414 . S
C999 C1000 1.374 . S
C1000 H974 0.950 . S
C1000 C996 1.385 . S
C1000 C999 1.374 . S
C1001 C998 1.499 . S
C1001 C1002 1.373 . S
C1001 C1003 1.389 . S
C1002 H975 0.950 . S
C1002 C988 1.377 . S
C1002 C1001 1.373 . S
C1003 C987 1.377 . S
C1003 C1001 1.389 . S
C1003 C1004 1.524 . S
C1004 C1003 1.524 . S
C1004 C1005 1.397 . S
C1004 C1009 1.363 . S
C1005 H976 0.950 . S
C1005 C1004 1.397 . S
C1005 C1006 1.334 . S
C1006 H977 0.950 . S
C1006 C1005 1.334 . S
C1006 C1007 1.287 . S
C1007 C1006 1.287 . S
C1007 C1008 1.524 . S
C1007 H1010 0.999 . S
C1008 H978 0.950 . S
C1008 C1007 1.524 . S
C1008 C1009 1.415 . S
C1009 H979 0.950 . S
C1009 C1004 1.363 . S
C1009 C1008 1.415 . S
H1010 C1007 0.999 . S
H1011 C992 0.902 1_455 S
H1012 C1030 0.951 . S
H1013 C1032 0.951 . S
H1014 C1034 0.950 . S
H1015 C1035 0.950 . S
H1016 C1037 0.950 . S
H1017 C1040 0.950 . S
H1018 C1041 0.950 . S
H1019 C1043 0.950 . S
H1020 C1044 0.950 . S
H1021 C1045 0.951 . S
H1022 C1047 0.951 . S
H1023 C1049 0.950 . S
H1024 C1050 0.950 . S
H1025 C1052 0.950 . S
H1026 C1055 0.950 . S
H1027 C1056 0.950 . S
H1028 C1058 0.950 . S
H1029 C1059 0.950 . S
C1030 H1012 0.951 . S
C1030 C1031 1.366 . S
C1030 C1032 1.388 . S
C1031 C1030 1.366 . S
C1031 C1035 1.385 . S
C1032 H1013 0.951 . S
C1032 C1030 1.388 . S
C1032 C1033 1.366 . S
C1033 C1032 1.366 . S
C1033 C1034 1.414 . S
C1033 C1036 1.499 . S
C1034 H1014 0.950 . S
C1034 C1033 1.414 . S
C1034 C1035 1.374 . S
C1035 H1015 0.950 . S
C1035 C1031 1.385 . S
C1035 C1034 1.374 . S
C1036 C1033 1.499 . S
C1036 C1037 1.373 . S
C1036 C1038 1.389 . S
C1037 H1016 0.950 . S
C1037 C1036 1.373 . S
C1037 C1053 1.377 . S
C1038 C1036 1.389 . S
C1038 C1039 1.524 . S
C1038 C1052 1.377 . S
C1039 C1038 1.524 . S
C1039 C1040 1.397 . S
C1039 C1044 1.363 . S
C1040 H1017 0.950 . S
C1040 C1039 1.397 . S
C1040 C1041 1.334 . S
C1041 H1018 0.950 . S
C1041 C1040 1.334 . S
C1041 C1042 1.287 . S
C1042 C1041 1.287 . S
C1042 C1043 1.524 . S
C1042 H1061 0.913 . S
C1043 H1019 0.950 . S
C1043 C1042 1.524 . S
C1043 C1044 1.415 . S
C1044 H1020 0.950 . S
C1044 C1039 1.363 . S
C1044 C1043 1.415 . S
C1045 H1021 0.951 . S
C1045 C1046 1.366 . S
C1045 C1047 1.388 . S
C1046 C1045 1.366 . S
C1046 C1050 1.385 . S
C1047 H1022 0.951 . S
C1047 C1045 1.388 . S
C1047 C1048 1.366 . S
C1048 C1047 1.366 . S
C1048 C1049 1.414 . S
C1048 C1051 1.499 . S
C1049 H1023 0.950 . S
C1049 C1048 1.414 . S
C1049 C1050 1.374 . S
C1050 H1024 0.950 . S
C1050 C1046 1.385 . S
C1050 C1049 1.374 . S
C1051 C1048 1.499 . S
C1051 C1052 1.373 . S
C1051 C1053 1.389 . S
C1052 H1025 0.950 . S
C1052 C1038 1.377 . S
C1052 C1051 1.373 . S
C1053 C1037 1.377 . S
C1053 C1051 1.389 . S
C1053 C1054 1.524 . S
C1054 C1053 1.524 . S
C1054 C1055 1.397 . S
C1054 C1059 1.363 . S
C1055 H1026 0.950 . S
C1055 C1054 1.397 . S
C1055 C1056 1.334 . S
C1056 H1027 0.950 . S
C1056 C1055 1.334 . S
C1056 C1057 1.287 . S
C1057 C1056 1.287 . S
C1057 C1058 1.524 . S
C1057 H1060 0.999 . S
C1058 H1028 0.950 . S
C1058 C1057 1.524 . S
C1058 C1059 1.415 . S
C1059 H1029 0.950 . S
C1059 C1054 1.363 . S
C1059 C1058 1.415 . S
H1060 C1057 0.999 . S
H1061 C1042 0.913 . S
H1062 C1080 0.951 . S
H1063 C1082 0.951 . S
H1064 C1084 0.950 . S
H1065 C1085 0.950 . S
H1066 C1087 0.950 . S
H1067 C1090 0.950 1_655 S
H1068 C1091 0.950 . S
H1069 C1093 0.950 . S
H1070 C1094 0.932 1_655 S
H1071 C1095 0.951 . S
H1072 C1097 0.951 . S
H1073 C1099 0.950 . S
H1074 C1100 0.950 . S
H1075 C1102 0.950 . S
H1076 C1105 0.950 . S
H1077 C1106 0.950 . S
H1078 C1108 0.950 . S
H1079 C1109 0.950 . S
C1080 H1062 0.951 . S
C1080 C1081 1.366 . S
C1080 C1082 1.388 . S
C1081 C1080 1.366 . S
C1081 C1085 1.385 . S
C1082 H1063 0.951 . S
C1082 C1080 1.388 . S
C1082 C1083 1.366 . S
C1083 C1082 1.366 . S
C1083 C1084 1.414 . S
C1083 C1086 1.499 . S
C1084 H1064 0.950 . S
C1084 C1083 1.414 . S
C1084 C1085 1.374 . S
C1085 H1065 0.950 . S
C1085 C1081 1.385 . S
C1085 C1084 1.374 . S
C1086 C1083 1.499 . S
C1086 C1087 1.373 . S
C1086 C1088 1.389 . S
C1087 H1066 0.950 . S
C1087 C1086 1.373 . S
C1087 C1103 1.377 . S
C1088 C1086 1.389 . S
C1088 C1089 1.524 . S
C1088 C1102 1.377 . S
C1089 C1088 1.524 . S
C1089 C1090 1.397 1_655 S
C1089 C1094 1.350 1_655 S
C1090 H1067 0.950 1_455 S
C1090 C1089 1.397 1_455 S
C1090 C1091 1.334 . S
C1091 H1068 0.950 . S
C1091 C1090 1.334 . S
C1091 C1092 1.287 . S
C1092 C1091 1.287 . S
C1092 C1093 1.524 . S
C1092 H1111 0.913 . S
C1093 H1069 0.950 . S
C1093 C1092 1.524 . S
C1093 C1094 1.447 . S
C1094 H1070 0.932 1_455 S
C1094 C1089 1.350 1_455 S
C1094 C1093 1.447 . S
C1095 H1071 0.951 . S
C1095 C1096 1.366 . S
C1095 C1097 1.388 . S
C1096 C1095 1.366 . S
C1096 C1100 1.385 . S
C1097 H1072 0.951 . S
C1097 C1095 1.388 . S
C1097 C1098 1.366 . S
C1098 C1097 1.366 . S
C1098 C1099 1.414 . S
C1098 C1101 1.499 . S
C1099 H1073 0.950 . S
C1099 C1098 1.414 . S
C1099 C1100 1.374 . S
C1100 H1074 0.950 . S
C1100 C1096 1.385 . S
C1100 C1099 1.374 . S
C1101 C1098 1.499 . S
C1101 C1102 1.373 . S
C1101 C1103 1.389 . S
C1102 H1075 0.950 . S
C1102 C1088 1.377 . S
C1102 C1101 1.373 . S
C1103 C1087 1.377 . S
C1103 C1101 1.389 . S
C1103 C1104 1.524 . S
C1104 C1103 1.524 . S
C1104 C1105 1.397 . S
C1104 C1109 1.363 . S
C1105 H1076 0.950 . S
C1105 C1104 1.397 . S
C1105 C1106 1.334 . S
C1106 H1077 0.950 . S
C1106 C1105 1.334 . S
C1106 C1107 1.287 . S
C1107 C1106 1.287 . S
C1107 C1108 1.524 . S
C1107 H1110 0.999 . S
C1108 H1078 0.950 . S
C1108 C1107 1.524 . S
C1108 C1109 1.415 . S
C1109 H1079 0.950 . S
C1109 C1104 1.363 . S
C1109 C1108 1.415 . S
H1110 C1107 0.999 . S
H1111 C1092 0.913 . S
H1112 C1130 0.951 . S
H1113 C1132 0.951 . S
H1114 C1134 0.950 . S
H1115 C1135 0.950 . S
H1116 C1137 0.950 . S
H1117 C1140 0.950 . S
H1118 C1141 0.950 . S
H1119 C1143 0.950 . S
H1120 C1144 0.950 . S
H1121 C1145 0.951 . S
H1122 C1147 0.951 . S
H1123 C1149 0.950 . S
H1124 C1150 0.950 . S
H1125 C1152 0.950 . S
H1126 C1155 0.950 . S
H1127 C1156 0.950 . S
H1128 C1158 0.950 . S
H1129 C1159 0.950 . S
C1130 H1112 0.951 . S
C1130 C1131 1.366 . S
C1130 C1132 1.388 . S
C1131 C1130 1.366 . S
C1131 C1135 1.385 . S
C1132 H1113 0.951 . S
C1132 C1130 1.388 . S
C1132 C1133 1.366 . S
C1133 C1132 1.366 . S
C1133 C1134 1.414 . S
C1133 C1136 1.499 . S
C1134 H1114 0.950 . S
C1134 C1133 1.414 . S
C1134 C1135 1.374 . S
C1135 H1115 0.950 . S
C1135 C1131 1.385 . S
C1135 C1134 1.374 . S
C1136 C1133 1.499 . S
C1136 C1137 1.373 . S
C1136 C1138 1.389 . S
C1137 H1116 0.950 . S
C1137 C1136 1.373 . S
C1137 C1153 1.377 . S
C1138 C1136 1.389 . S
C1138 C1139 1.524 . S
C1138 C1152 1.377 . S
C1139 C1138 1.524 . S
C1139 C1140 1.397 . S
C1139 C1144 1.363 . S
C1140 H1117 0.950 . S
C1140 C1139 1.397 . S
C1140 C1141 1.334 . S
C1141 H1118 0.950 . S
C1141 C1140 1.334 . S
C1141 C1142 1.287 . S
C1142 C1141 1.287 . S
C1142 C1143 1.524 . S
C1142 H1161 0.913 . S
C1143 H1119 0.950 . S
C1143 C1142 1.524 . S
C1143 C1144 1.415 . S
C1144 H1120 0.950 . S
C1144 C1139 1.363 . S
C1144 C1143 1.415 . S
C1145 H1121 0.951 . S
C1145 C1146 1.366 . S
C1145 C1147 1.388 . S
C1146 C1145 1.366 . S
C1146 C1150 1.385 . S
C1147 H1122 0.951 . S
C1147 C1145 1.388 . S
C1147 C1148 1.366 . S
C1148 C1147 1.366 . S
C1148 C1149 1.414 . S
C1148 C1151 1.499 . S
C1149 H1123 0.950 . S
C1149 C1148 1.414 . S
C1149 C1150 1.374 . S
C1150 H1124 0.950 . S
C1150 C1146 1.385 . S
C1150 C1149 1.374 . S
C1151 C1148 1.499 . S
C1151 C1152 1.373 . S
C1151 C1153 1.389 . S
C1152 H1125 0.950 . S
C1152 C1138 1.377 . S
C1152 C1151 1.373 . S
C1153 C1137 1.377 . S
C1153 C1151 1.389 . S
C1153 C1154 1.524 . S
C1154 C1153 1.524 . S
C1154 C1155 1.397 . S
C1154 C1159 1.363 . S
C1155 H1126 0.950 . S
C1155 C1154 1.397 . S
C1155 C1156 1.334 . S
C1156 H1127 0.950 . S
C1156 C1155 1.334 . S
C1156 C1157 1.287 . S
C1157 C1156 1.287 . S
C1157 C1158 1.524 . S
C1157 H1160 0.999 . S
C1158 H1128 0.950 . S
C1158 C1157 1.524 . S
C1158 C1159 1.415 . S
C1159 H1129 0.950 . S
C1159 C1154 1.363 . S
C1159 C1158 1.415 . S
H1160 C1157 0.999 . S
H1161 C1142 0.913 . S
H1162 C1180 0.951 . S
H1163 C1182 0.951 . S
H1164 C1184 0.950 . S
H1165 C1185 0.950 . S
H1166 C1187 0.950 . S
H1167 C1190 0.950 . S
H1168 C1191 0.950 . S
H1169 C1193 0.950 . S
H1170 C1194 0.950 . S
H1171 C1195 0.951 . S
H1172 C1197 0.951 . S
H1173 C1199 0.950 . S
H1174 C1200 0.950 . S
H1175 C1202 0.950 . S
H1176 C1205 0.950 . S
H1177 C1206 0.950 . S
H1178 C1208 0.950 . S
H1179 C1209 0.950 . S
C1180 H1162 0.951 . S
C1180 C1181 1.366 . S
C1180 C1182 1.388 . S
C1181 C1180 1.366 . S
C1181 C1185 1.385 . S
C1182 H1163 0.951 . S
C1182 C1180 1.388 . S
C1182 C1183 1.366 . S
C1183 C1182 1.366 . S
C1183 C1184 1.414 . S
C1183 C1186 1.499 . S
C1184 H1164 0.950 . S
C1184 C1183 1.414 . S
C1184 C1185 1.374 . S
C1185 H1165 0.950 . S
C1185 C1181 1.385 . S
C1185 C1184 1.374 . S
C1186 C1183 1.499 . S
C1186 C1187 1.373 . S
C1186 C1188 1.389 . S
C1187 H1166 0.950 . S
C1187 C1186 1.373 . S
C1187 C1203 1.377 . S
C1188 C1186 1.389 . S
C1188 C1189 1.524 . S
C1188 C1202 1.377 . S
C1189 C1188 1.524 . S
C1189 C1190 1.397 . S
C1189 C1194 1.363 . S
C1190 H1167 0.950 . S
C1190 C1189 1.397 . S
C1190 C1191 1.334 . S
C1191 H1168 0.950 . S
C1191 C1190 1.334 . S
C1191 C1192 1.287 . S
C1192 C1191 1.287 . S
C1192 C1193 1.524 . S
C1192 H1211 0.913 . S
C1193 H1169 0.950 . S
C1193 C1192 1.524 . S
C1193 C1194 1.415 . S
C1194 H1170 0.950 . S
C1194 C1189 1.363 . S
C1194 C1193 1.415 . S
C1195 H1171 0.951 . S
C1195 C1196 1.366 . S
C1195 C1197 1.388 . S
C1196 C1195 1.366 . S
C1196 C1200 1.385 . S
C1197 H1172 0.951 . S
C1197 C1195 1.388 . S
C1197 C1198 1.366 . S
C1198 C1197 1.366 . S
C1198 C1199 1.414 . S
C1198 C1201 1.499 . S
C1199 H1173 0.950 . S
C1199 C1198 1.414 . S
C1199 C1200 1.374 . S
C1200 H1174 0.950 . S
C1200 C1196 1.385 . S
C1200 C1199 1.374 . S
C1201 C1198 1.499 . S
C1201 C1202 1.373 . S
C1201 C1203 1.389 . S
C1202 H1175 0.950 . S
C1202 C1188 1.377 . S
C1202 C1201 1.373 . S
C1203 C1187 1.377 . S
C1203 C1201 1.389 . S
C1203 C1204 1.524 . S
C1204 C1203 1.524 . S
C1204 C1205 1.397 . S
C1204 C1209 1.363 . S
C1205 H1176 0.950 . S
C1205 C1204 1.397 . S
C1205 C1206 1.334 . S
C1206 H1177 0.950 . S
C1206 C1205 1.334 . S
C1206 C1207 1.287 . S
C1207 C1206 1.287 . S
C1207 C1208 1.524 . S
C1207 H1210 0.999 . S
C1208 H1178 0.950 . S
C1208 C1207 1.524 . S
C1208 C1209 1.415 . S
C1209 H1179 0.950 . S
C1209 C1204 1.363 . S
C1209 C1208 1.415 . S
H1210 C1207 0.999 . S
H1211 C1192 0.913 . S
H1212 C1230 0.951 . S
H1213 C1232 0.951 . S
H1214 C1234 0.950 . S
H1215 C1235 0.950 . S
H1216 C1237 0.950 . S
H1217 C1240 0.950 . S
H1218 C1241 0.950 . S
H1219 C1243 0.950 . S
H1220 C1244 0.950 . S
H1221 C1245 0.951 . S
H1222 C1247 0.951 . S
H1223 C1249 0.950 . S
H1224 C1250 0.950 . S
H1225 C1252 0.950 . S
H1226 C1255 0.950 . S
H1227 C1256 0.950 . S
H1228 C1258 0.950 . S
H1229 C1259 0.950 . S
C1230 H1212 0.951 . S
C1230 C1231 1.366 . S
C1230 C1232 1.388 . S
C1231 C1230 1.366 . S
C1231 C1235 1.385 . S
C1232 H1213 0.951 . S
C1232 C1230 1.388 . S
C1232 C1233 1.366 . S
C1233 C1232 1.366 . S
C1233 C1234 1.414 . S
C1233 C1236 1.499 . S
C1234 H1214 0.950 . S
C1234 C1233 1.414 . S
C1234 C1235 1.374 . S
C1235 H1215 0.950 . S
C1235 C1231 1.385 . S
C1235 C1234 1.374 . S
C1236 C1233 1.499 . S
C1236 C1237 1.373 . S
C1236 C1238 1.389 . S
C1237 H1216 0.950 . S
C1237 C1236 1.373 . S
C1237 C1253 1.377 . S
C1238 C1236 1.389 . S
C1238 C1239 1.524 . S
C1238 C1252 1.377 . S
C1239 C1238 1.524 . S
C1239 C1240 1.397 . S
C1239 C1244 1.363 . S
C1240 H1217 0.950 . S
C1240 C1239 1.397 . S
C1240 C1241 1.334 1_556 S
C1241 H1218 0.950 . S
C1241 C1240 1.334 1_554 S
C1241 C1242 1.287 . S
C1242 C1241 1.287 . S
C1242 C1243 1.524 1_554 S
C1242 H1261 0.913 . S
C1243 H1219 0.950 . S
C1243 C1242 1.524 1_556 S
C1243 C1244 1.415 . S
C1244 H1220 0.950 . S
C1244 C1239 1.363 . S
C1244 C1243 1.415 . S
C1245 H1221 0.951 . S
C1245 C1246 1.366 . S
C1245 C1247 1.388 . S
C1246 C1245 1.366 . S
C1246 C1250 1.385 . S
C1247 H1222 0.951 . S
C1247 C1245 1.388 . S
C1247 C1248 1.366 . S
C1248 C1247 1.366 . S
C1248 C1249 1.414 . S
C1248 C1251 1.499 . S
C1249 H1223 0.950 . S
C1249 C1248 1.414 . S
C1249 C1250 1.374 . S
C1250 H1224 0.950 . S
C1250 C1246 1.385 . S
C1250 C1249 1.374 . S
C1251 C1248 1.499 . S
C1251 C1252 1.373 . S
C1251 C1253 1.389 . S
C1252 H1225 0.950 . S
C1252 C1238 1.377 . S
C1252 C1251 1.373 . S
C1253 C1237 1.377 . S
C1253 C1251 1.389 . S
C1253 C1254 1.524 . S
C1254 C1253 1.524 . S
C1254 C1255 1.397 . S
C1254 C1259 1.363 . S
C1255 H1226 0.950 . S
C1255 C1254 1.397 . S
C1255 C1256 1.334 . S
C1256 H1227 0.950 . S
C1256 C1255 1.334 . S
C1256 C1257 1.287 . S
C1257 C1256 1.287 . S
C1257 C1258 1.524 . S
C1257 H1260 0.999 . S
C1258 H1228 0.950 . S
C1258 C1257 1.524 . S
C1258 C1259 1.415 . S
C1259 H1229 0.950 . S
C1259 C1254 1.363 . S
C1259 C1258 1.415 . S
H1260 C1257 0.999 . S
H1261 C1242 0.913 . S
H1262 C1280 0.951 . S
H1263 C1282 0.951 . S
H1264 C1284 0.950 . S
H1265 C1285 0.950 . S
H1266 C1287 0.950 . S
H1267 C1290 0.950 . S
H1268 C1291 0.950 . S
H1269 C1293 0.950 . S
H1270 C1294 0.950 . S
H1271 C1295 0.951 . S
H1272 C1297 0.951 . S
H1273 C1299 0.950 . S
H1274 C1300 0.950 . S
H1275 C1302 0.950 . S
H1276 C1305 0.950 . S
H1277 C1306 0.950 . S
H1278 C1308 0.950 . S
H1279 C1309 0.950 . S
C1280 H1262 0.951 . S
C1280 C1281 1.366 . S
C1280 C1282 1.388 . S
C1281 C1280 1.366 . S
C1281 C1285 1.385 . S
C1282 H1263 0.951 . S
C1282 C1280 1.388 . S
C1282 C1283 1.366 . S
C1283 C1282 1.366 . S
C1283 C1284 1.414 . S
C1283 C1286 1.499 . S
C1284 H1264 0.950 . S
C1284 C1283 1.414 . S
C1284 C1285 1.374 . S
C1285 H1265 0.950 . S
C1285 C1281 1.385 . S
C1285 C1284 1.374 . S
C1286 C1283 1.499 . S
C1286 C1287 1.373 . S
C1286 C1288 1.389 . S
C1287 H1266 0.950 . S
C1287 C1286 1.373 . S
C1287 C1303 1.377 . S
C1288 C1286 1.389 . S
C1288 C1289 1.524 . S
C1288 C1302 1.377 . S
C1289 C1288 1.524 . S
C1289 C1290 1.397 . S
C1289 C1294 1.363 . S
C1290 H1267 0.950 . S
C1290 C1289 1.397 . S
C1290 C1291 1.334 . S
C1291 H1268 0.950 . S
C1291 C1290 1.334 . S
C1291 C1292 1.287 . S
C1292 C1291 1.287 . S
C1292 C1293 1.524 . S
C1292 H1311 0.913 . S
C1293 H1269 0.950 . S
C1293 C1292 1.524 . S
C1293 C1294 1.415 . S
C1294 H1270 0.950 . S
C1294 C1289 1.363 . S
C1294 C1293 1.415 . S
C1295 H1271 0.951 . S
C1295 C1296 1.366 . S
C1295 C1297 1.388 . S
C1296 C1295 1.366 . S
C1296 C1300 1.385 . S
C1297 H1272 0.951 . S
C1297 C1295 1.388 . S
C1297 C1298 1.366 . S
C1298 C1297 1.366 . S
C1298 C1299 1.414 . S
C1298 C1301 1.499 . S
C1299 H1273 0.950 . S
C1299 C1298 1.414 . S
C1299 C1300 1.374 . S
C1300 H1274 0.950 . S
C1300 C1296 1.385 . S
C1300 C1299 1.374 . S
C1301 C1298 1.499 . S
C1301 C1302 1.373 . S
C1301 C1303 1.389 . S
C1302 H1275 0.950 . S
C1302 C1288 1.377 . S
C1302 C1301 1.373 . S
C1303 C1287 1.377 . S
C1303 C1301 1.389 . S
C1303 C1304 1.524 . S
C1304 C1303 1.524 . S
C1304 C1305 1.397 . S
C1304 C1309 1.363 . S
C1305 H1276 0.950 . S
C1305 C1304 1.397 . S
C1305 C1306 1.334 . S
C1306 H1277 0.950 . S
C1306 C1305 1.334 . S
C1306 C1307 1.287 . S
C1307 C1306 1.287 . S
C1307 C1308 1.524 . S
C1307 H1310 0.999 . S
C1308 H1278 0.950 . S
C1308 C1307 1.524 . S
C1308 C1309 1.415 . S
C1309 H1279 0.950 . S
C1309 C1304 1.363 . S
C1309 C1308 1.415 . S
H1310 C1307 0.999 . S
H1311 C1292 0.913 . S
H1312 C1330 0.951 . S
H1313 C1332 0.951 . S
H1314 C1334 0.950 . S
H1315 C1335 0.950 . S
H1316 C1337 0.950 . S
H1317 C1340 0.950 . S
H1318 C1341 0.950 . S
H1319 C1343 0.950 . S
H1320 C1344 0.950 . S
H1321 C1345 0.951 . S
H1322 C1347 0.951 . S
H1323 C1349 0.950 . S
H1324 C1350 0.950 . S
H1325 C1352 0.950 . S
H1326 C1355 0.950 . S
H1327 C1356 0.950 . S
H1328 C1358 0.950 . S
H1329 C1359 0.950 . S
C1330 H1312 0.951 . S
C1330 C1331 1.366 . S
C1330 C1332 1.388 . S
C1331 C1330 1.366 . S
C1331 C1335 1.385 . S
C1332 H1313 0.951 . S
C1332 C1330 1.388 . S
C1332 C1333 1.366 . S
C1333 C1332 1.366 . S
C1333 C1334 1.414 . S
C1333 C1336 1.499 . S
C1334 H1314 0.950 . S
C1334 C1333 1.414 . S
C1334 C1335 1.374 . S
C1335 H1315 0.950 . S
C1335 C1331 1.385 . S
C1335 C1334 1.374 . S
C1336 C1333 1.499 . S
C1336 C1337 1.373 . S
C1336 C1338 1.389 . S
C1337 H1316 0.950 . S
C1337 C1336 1.373 . S
C1337 C1353 1.377 . S
C1338 C1336 1.389 . S
C1338 C1339 1.524 . S
C1338 C1352 1.377 . S
C1339 C1338 1.524 . S
C1339 C1340 1.397 . S
C1339 C1344 1.363 . S
C1340 H1317 0.950 . S
C1340 C1339 1.397 . S
C1340 C1341 1.334 . S
C1341 H1318 0.950 . S
C1341 C1340 1.334 . S
C1341 C1342 1.287 . S
C1342 C1341 1.287 . S
C1342 C1343 1.524 . S
C1342 H1361 0.913 . S
C1343 H1319 0.950 . S
C1343 C1342 1.524 . S
C1343 C1344 1.415 . S
C1344 H1320 0.950 . S
C1344 C1339 1.363 . S
C1344 C1343 1.415 . S
C1345 H1321 0.951 . S
C1345 C1346 1.366 . S
C1345 C1347 1.388 . S
C1346 C1345 1.366 . S
C1346 C1350 1.385 . S
C1347 H1322 0.951 . S
C1347 C1345 1.388 . S
C1347 C1348 1.366 . S
C1348 C1347 1.366 . S
C1348 C1349 1.414 . S
C1348 C1351 1.499 . S
C1349 H1323 0.950 . S
C1349 C1348 1.414 . S
C1349 C1350 1.374 . S
C1350 H1324 0.950 . S
C1350 C1346 1.385 . S
C1350 C1349 1.374 . S
C1351 C1348 1.499 . S
C1351 C1352 1.373 . S
C1351 C1353 1.389 . S
C1352 H1325 0.950 . S
C1352 C1338 1.377 . S
C1352 C1351 1.373 . S
C1353 C1337 1.377 . S
C1353 C1351 1.389 . S
C1353 C1354 1.524 . S
C1354 C1353 1.524 . S
C1354 C1355 1.397 . S
C1354 C1359 1.363 . S
C1355 H1326 0.950 . S
C1355 C1354 1.397 . S
C1355 C1356 1.334 . S
C1356 H1327 0.950 . S
C1356 C1355 1.334 . S
C1356 C1357 1.287 . S
C1357 C1356 1.287 . S
C1357 C1358 1.524 . S
C1357 H1360 0.999 . S
C1358 H1328 0.950 . S
C1358 C1357 1.524 . S
C1358 C1359 1.415 . S
C1359 H1329 0.950 . S
C1359 C1354 1.363 . S
C1359 C1358 1.415 . S
H1360 C1357 0.999 . S
H1361 C1342 0.913 . S
H1362 C1380 0.951 . S
H1363 C1382 0.951 . S
H1364 C1384 0.950 . S
H1365 C1385 0.950 . S
H1366 C1387 0.950 . S
H1367 C1390 0.950 . S
H1368 C1391 0.950 . S
H1369 C1393 0.950 . S
H1370 C1394 0.950 . S
H1371 C1395 0.951 . S
H1372 C1397 0.951 . S
H1373 C1399 0.950 . S
H1374 C1400 0.950 . S
H1375 C1402 0.950 . S
H1376 C1405 0.950 . S
H1377 C1406 0.950 . S
H1378 C1408 0.950 . S
H1379 C1409 0.950 . S
C1380 H1362 0.951 . S
C1380 C1381 1.366 . S
C1380 C1382 1.388 . S
C1381 C1380 1.366 . S
C1381 C1385 1.385 . S
C1382 H1363 0.951 . S
C1382 C1380 1.388 . S
C1382 C1383 1.366 . S
C1383 C1382 1.366 . S
C1383 C1384 1.414 . S
C1383 C1386 1.499 . S
C1384 H1364 0.950 . S
C1384 C1383 1.414 . S
C1384 C1385 1.374 . S
C1385 H1365 0.950 . S
C1385 C1381 1.385 . S
C1385 C1384 1.374 . S
C1386 C1383 1.499 . S
C1386 C1387 1.373 . S
C1386 C1388 1.389 . S
C1387 H1366 0.950 . S
C1387 C1386 1.373 . S
C1387 C1403 1.377 . S
C1388 C1386 1.389 . S
C1388 C1389 1.524 . S
C1388 C1402 1.377 . S
C1389 C1388 1.524 . S
C1389 C1390 1.397 . S
C1389 C1394 1.363 . S
C1390 H1367 0.950 . S
C1390 C1389 1.397 . S
C1390 C1391 1.334 . S
C1391 H1368 0.950 . S
C1391 C1390 1.334 . S
C1391 C1392 1.287 . S
C1392 C1391 1.287 . S
C1392 C1393 1.524 . S
C1392 H1411 0.913 . S
C1393 H1369 0.950 . S
C1393 C1392 1.524 . S
C1393 C1394 1.415 . S
C1394 H1370 0.950 . S
C1394 C1389 1.363 . S
C1394 C1393 1.415 . S
C1395 H1371 0.951 . S
C1395 C1396 1.366 . S
C1395 C1397 1.388 . S
C1396 C1395 1.366 . S
C1396 C1400 1.385 . S
C1397 H1372 0.951 . S
C1397 C1395 1.388 . S
C1397 C1398 1.366 . S
C1398 C1397 1.366 . S
C1398 C1399 1.414 . S
C1398 C1401 1.499 . S
C1399 H1373 0.950 . S
C1399 C1398 1.414 . S
C1399 C1400 1.374 . S
C1400 H1374 0.950 . S
C1400 C1396 1.385 . S
C1400 C1399 1.374 . S
C1401 C1398 1.499 . S
C1401 C1402 1.373 . S
C1401 C1403 1.389 . S
C1402 H1375 0.950 . S
C1402 C1388 1.377 . S
C1402 C1401 1.373 . S
C1403 C1387 1.377 . S
C1403 C1401 1.389 . S
C1403 C1404 1.524 . S
C1404 C1403 1.524 . S
C1404 C1405 1.397 . S
C1404 C1409 1.363 . S
C1405 H1376 0.950 . S
C1405 C1404 1.397 . S
C1405 C1406 1.334 . S
C1406 H1377 0.950 . S
C1406 C1405 1.334 . S
C1406 C1407 1.287 . S
C1407 C1406 1.287 . S
C1407 C1408 1.524 . S
C1407 H1410 0.999 . S
C1408 H1378 0.950 . S
C1408 C1407 1.524 . S
C1408 C1409 1.415 . S
C1409 H1379 0.950 . S
C1409 C1404 1.363 . S
C1409 C1408 1.415 . S
H1410 C1407 0.999 . S
H1411 C1392 0.913 . S
H1412 C1430 0.951 . S
H1413 C1432 0.951 . S
H1414 C1434 0.950 . S
H1415 C1435 0.950 . S
H1416 C1437 0.950 . S
H1417 C1440 0.950 . S
H1418 C1441 0.950 . S
H1419 C1443 0.950 . S
H1420 C1444 0.950 . S
H1421 C1445 0.951 . S
H1422 C1447 0.951 . S
H1423 C1449 0.950 . S
H1424 C1450 0.950 . S
H1425 C1452 0.950 . S
H1426 C1455 0.950 . S
H1427 C1456 0.950 . S
H1428 C1458 0.950 . S
H1429 C1459 0.950 . S
C1430 H1412 0.951 . S
C1430 C1431 1.366 . S
C1430 C1432 1.388 . S
C1431 C1430 1.366 . S
C1431 C1435 1.385 . S
C1432 H1413 0.951 . S
C1432 C1430 1.388 . S
C1432 C1433 1.366 . S
C1433 C1432 1.366 . S
C1433 C1434 1.414 . S
C1433 C1436 1.499 . S
C1434 H1414 0.950 . S
C1434 C1433 1.414 . S
C1434 C1435 1.374 . S
C1435 H1415 0.950 . S
C1435 C1431 1.385 . S
C1435 C1434 1.374 . S
C1436 C1433 1.499 . S
C1436 C1437 1.373 . S
C1436 C1438 1.389 . S
C1437 H1416 0.950 . S
C1437 C1436 1.373 . S
C1437 C1453 1.377 . S
C1438 C1436 1.389 . S
C1438 C1439 1.524 . S
C1438 C1452 1.377 . S
C1439 C1438 1.524 . S
C1439 C1440 1.397 . S
C1439 C1444 1.363 . S
C1440 H1417 0.950 . S
C1440 C1439 1.397 . S
C1440 C1441 1.334 . S
C1441 H1418 0.950 . S
C1441 C1440 1.334 . S
C1441 C1442 1.287 . S
C1442 C1441 1.287 . S
C1442 C1443 1.524 . S
C1442 H1461 0.913 . S
C1443 H1419 0.950 . S
C1443 C1442 1.524 . S
C1443 C1444 1.415 . S
C1444 H1420 0.950 . S
C1444 C1439 1.363 . S
C1444 C1443 1.415 . S
C1445 H1421 0.951 . S
C1445 C1446 1.366 . S
C1445 C1447 1.388 . S
C1446 C1445 1.366 . S
C1446 C1450 1.385 . S
C1447 H1422 0.951 . S
C1447 C1445 1.388 . S
C1447 C1448 1.366 . S
C1448 C1447 1.366 . S
C1448 C1449 1.414 . S
C1448 C1451 1.499 . S
C1449 H1423 0.950 . S
C1449 C1448 1.414 . S
C1449 C1450 1.374 . S
C1450 H1424 0.950 . S
C1450 C1446 1.385 . S
C1450 C1449 1.374 . S
C1451 C1448 1.499 . S
C1451 C1452 1.373 . S
C1451 C1453 1.389 . S
C1452 H1425 0.950 . S
C1452 C1438 1.377 . S
C1452 C1451 1.373 . S
C1453 C1437 1.377 . S
C1453 C1451 1.389 . S
C1453 C1454 1.524 . S
C1454 C1453 1.524 . S
C1454 C1455 1.397 . S
C1454 C1459 1.363 . S
C1455 H1426 0.950 . S
C1455 C1454 1.397 . S
C1455 C1456 1.334 . S
C1456 H1427 0.950 . S
C1456 C1455 1.334 . S
C1456 C1457 1.287 . S
C1457 C1456 1.287 . S
C1457 C1458 1.524 . S
C1457 H1460 0.999 . S
C1458 H1428 0.950 . S
C1458 C1457 1.524 . S
C1458 C1459 1.415 . S
C1459 H1429 0.950 . S
C1459 C1454 1.363 . S
C1459 C1458 1.415 . S
H1460 C1457 0.999 . S
H1461 C1442 0.913 . S
H1462 C1480 0.951 . S
H1463 C1482 0.951 . S
H1464 C1484 0.950 . S
H1465 C1485 0.950 . S
H1466 C1487 0.950 . S
H1467 C1490 0.950 . S
H1468 C1491 0.950 . S
H1469 C1493 0.950 . S
H1470 C1494 0.950 . S
H1471 C1495 0.951 . S
H1472 C1497 0.951 . S
H1473 C1499 0.950 . S
H1474 C1500 0.950 . S
H1475 C1502 0.950 . S
H1476 C1505 0.950 1_565 S
H1477 C1506 0.950 . S
H1478 C1508 0.950 . S
H1479 C1509 0.950 1_565 S
C1480 H1462 0.951 . S
C1480 C1481 1.366 . S
C1480 C1482 1.388 . S
C1481 C1480 1.366 . S
C1481 C1485 1.385 . S
C1482 H1463 0.951 . S
C1482 C1480 1.388 . S
C1482 C1483 1.366 . S
C1483 C1482 1.366 . S
C1483 C1484 1.414 . S
C1483 C1486 1.499 . S
C1484 H1464 0.950 . S
C1484 C1483 1.414 . S
C1484 C1485 1.374 . S
C1485 H1465 0.950 . S
C1485 C1481 1.385 . S
C1485 C1484 1.374 . S
C1486 C1483 1.499 . S
C1486 C1487 1.373 . S
C1486 C1488 1.389 . S
C1487 H1466 0.950 . S
C1487 C1486 1.373 . S
C1487 C1503 1.377 . S
C1488 C1486 1.389 . S
C1488 C1489 1.524 . S
C1488 C1502 1.377 . S
C1489 C1488 1.524 . S
C1489 C1490 1.397 . S
C1489 C1494 1.363 . S
C1490 H1467 0.950 . S
C1490 C1489 1.397 . S
C1490 C1491 1.334 . S
C1491 H1468 0.950 . S
C1491 C1490 1.334 . S
C1491 C1492 1.287 . S
C1492 C1491 1.287 . S
C1492 C1493 1.524 . S
C1492 H1511 0.913 . S
C1493 H1469 0.950 . S
C1493 C1492 1.524 . S
C1493 C1494 1.415 . S
C1494 H1470 0.950 . S
C1494 C1489 1.363 . S
C1494 C1493 1.415 . S
C1495 H1471 0.951 . S
C1495 C1496 1.366 . S
C1495 C1497 1.388 . S
C1496 C1495 1.366 . S
C1496 C1500 1.385 . S
C1497 H1472 0.951 . S
C1497 C1495 1.388 . S
C1497 C1498 1.366 . S
C1498 C1497 1.366 . S
C1498 C1499 1.414 . S
C1498 C1501 1.499 . S
C1499 H1473 0.950 . S
C1499 C1498 1.414 . S
C1499 C1500 1.374 . S
C1500 H1474 0.950 . S
C1500 C1496 1.385 . S
C1500 C1499 1.374 . S
C1501 C1498 1.499 . S
C1501 C1502 1.373 . S
C1501 C1503 1.389 . S
C1502 H1475 0.950 . S
C1502 C1488 1.377 . S
C1502 C1501 1.373 . S
C1503 C1487 1.377 . S
C1503 C1501 1.389 . S
C1503 C1504 1.524 . S
C1504 C1503 1.524 . S
C1504 C1505 1.397 1_565 S
C1504 C1509 1.363 1_565 S
C1505 H1476 0.950 1_545 S
C1505 C1504 1.397 1_545 S
C1505 C1506 1.334 . S
C1506 H1477 0.950 . S
C1506 C1505 1.334 . S
C1506 C1507 1.287 . S
C1507 C1506 1.287 . S
C1507 C1508 1.524 . S
C1507 H1510 0.999 . S
C1508 H1478 0.950 . S
C1508 C1507 1.524 . S
C1508 C1509 1.415 . S
C1509 H1479 0.950 1_545 S
C1509 C1504 1.363 1_545 S
C1509 C1508 1.415 . S
H1510 C1507 0.999 . S
H1511 C1492 0.913 . S
H1512 C1530 0.951 . S
H1513 C1532 0.951 . S
H1514 C1534 0.950 . S
H1515 C1535 0.950 . S
H1516 C1537 0.950 . S
H1517 C1540 0.950 . S
H1518 C1541 0.950 . S
H1519 C1543 0.950 . S
H1520 C1544 0.950 . S
H1521 C1545 0.951 . S
H1522 C1547 0.951 . S
H1523 C1549 0.950 . S
H1524 C1550 0.950 . S
H1525 C1552 0.950 . S
H1526 C1555 0.950 . S
H1527 C1556 0.950 . S
H1528 C1558 0.950 . S
H1529 C1559 0.950 . S
C1530 H1512 0.951 . S
C1530 C1531 1.366 . S
C1530 C1532 1.388 . S
C1531 C1530 1.366 . S
C1531 C1535 1.385 . S
C1532 H1513 0.951 . S
C1532 C1530 1.388 . S
C1532 C1533 1.366 . S
C1533 C1532 1.366 . S
C1533 C1534 1.414 . S
C1533 C1536 1.499 . S
C1534 H1514 0.950 . S
C1534 C1533 1.414 . S
C1534 C1535 1.374 . S
C1535 H1515 0.950 . S
C1535 C1531 1.385 . S
C1535 C1534 1.374 . S
C1536 C1533 1.499 . S
C1536 C1537 1.373 . S
C1536 C1538 1.389 . S
C1537 H1516 0.950 . S
C1537 C1536 1.373 . S
C1537 C1553 1.377 . S
C1538 C1536 1.389 . S
C1538 C1539 1.524 . S
C1538 C1552 1.377 . S
C1539 C1538 1.524 . S
C1539 C1540 1.397 . S
C1539 C1544 1.363 . S
C1540 H1517 0.950 . S
C1540 C1539 1.397 . S
C1540 C1541 1.334 . S
C1541 H1518 0.950 . S
C1541 C1540 1.334 . S
C1541 C1542 1.287 . S
C1542 C1541 1.287 . S
C1542 C1543 1.524 . S
C1542 H1561 0.913 . S
C1543 H1519 0.950 . S
C1543 C1542 1.524 . S
C1543 C1544 1.415 . S
C1544 H1520 0.950 . S
C1544 C1539 1.363 . S
C1544 C1543 1.415 . S
C1545 H1521 0.951 . S
C1545 C1546 1.366 . S
C1545 C1547 1.388 . S
C1546 C1545 1.366 . S
C1546 C1550 1.385 . S
C1547 H1522 0.951 . S
C1547 C1545 1.388 . S
C1547 C1548 1.366 . S
C1548 C1547 1.366 . S
C1548 C1549 1.414 . S
C1548 C1551 1.499 . S
C1549 H1523 0.950 . S
C1549 C1548 1.414 . S
C1549 C1550 1.374 . S
C1550 H1524 0.950 . S
C1550 C1546 1.385 . S
C1550 C1549 1.374 . S
C1551 C1548 1.499 . S
C1551 C1552 1.373 . S
C1551 C1553 1.389 . S
C1552 H1525 0.950 . S
C1552 C1538 1.377 . S
C1552 C1551 1.373 . S
C1553 C1537 1.377 . S
C1553 C1551 1.389 . S
C1553 C1554 1.524 . S
C1554 C1553 1.524 . S
C1554 C1555 1.397 . S
C1554 C1559 1.363 . S
C1555 H1526 0.950 . S
C1555 C1554 1.397 . S
C1555 C1556 1.334 . S
C1556 H1527 0.950 . S
C1556 C1555 1.334 . S
C1556 C1557 1.287 1_565 S
C1557 C1556 1.287 1_545 S
C1557 C1558 1.524 . S
C1557 H1560 0.999 . S
C1558 H1528 0.950 . S
C1558 C1557 1.524 . S
C1558 C1559 1.415 1_545 S
C1559 H1529 0.950 . S
C1559 C1554 1.363 . S
C1559 C1558 1.415 1_565 S
H1560 C1557 0.999 . S
H1561 C1542 0.913 . S
H1562 C1580 0.951 . S
H1563 C1582 0.951 . S
H1564 C1584 0.950 . S
H1565 C1585 0.950 . S
H1566 C1587 0.950 . S
H1567 C1590 0.950 . S
H1568 C1591 0.950 . S
H1569 C1593 0.950 . S
H1570 C1594 0.950 . S
H1571 C1595 0.951 . S
H1572 C1597 0.951 . S
H1573 C1599 0.950 . S
H1574 C1600 0.991 . S
H1575 C1602 0.950 . S
H1576 C1605 0.950 . S
H1577 C1606 0.950 . S
H1578 C1608 0.950 . S
H1579 C1609 0.950 . S
C1580 H1562 0.951 . S
C1580 C1581 1.366 . S
C1580 C1582 1.388 . S
C1581 C1580 1.366 . S
C1581 C1585 1.385 . S
C1582 H1563 0.951 . S
C1582 C1580 1.388 . S
C1582 C1583 1.366 . S
C1583 C1582 1.366 . S
C1583 C1584 1.414 . S
C1583 C1586 1.499 . S
C1584 H1564 0.950 . S
C1584 C1583 1.414 . S
C1584 C1585 1.374 . S
C1585 H1565 0.950 . S
C1585 C1581 1.385 . S
C1585 C1584 1.374 . S
C1586 C1583 1.499 . S
C1586 C1587 1.373 . S
C1586 C1588 1.389 . S
C1587 H1566 0.950 . S
C1587 C1586 1.373 . S
C1587 C1603 1.377 . S
C1588 C1586 1.389 . S
C1588 C1589 1.524 . S
C1588 C1602 1.377 . S
C1589 C1588 1.524 . S
C1589 C1590 1.397 . S
C1589 C1594 1.363 . S
C1590 H1567 0.950 . S
C1590 C1589 1.397 . S
C1590 C1591 1.334 . S
C1591 H1568 0.950 . S
C1591 C1590 1.334 . S
C1591 C1592 1.287 1_545 S
C1592 C1591 1.287 1_565 S
C1592 C1593 1.524 . S
C1592 H1611 0.913 . S
C1593 H1569 0.950 . S
C1593 C1592 1.524 . S
C1593 C1594 1.415 1_565 S
C1594 H1570 0.950 . S
C1594 C1589 1.363 . S
C1594 C1593 1.415 1_545 S
C1595 H1571 0.951 . S
C1595 C1596 1.366 . S
C1595 C1597 1.388 . S
C1596 C1595 1.366 . S
C1596 C1600 1.385 . S
C1597 H1572 0.951 . S
C1597 C1595 1.388 . S
C1597 C1598 1.366 . S
C1598 C1597 1.366 . S
C1598 C1599 1.414 . S
C1598 C1601 1.499 . S
C1599 H1573 0.950 . S
C1599 C1598 1.414 . S
C1599 C1600 1.374 . S
C1600 H1574 0.991 . S
C1600 C1596 1.385 . S
C1600 C1599 1.374 . S
C1601 C1598 1.499 . S
C1601 C1602 1.373 . S
C1601 C1603 1.389 . S
C1602 H1575 0.950 . S
C1602 C1588 1.377 . S
C1602 C1601 1.373 . S
C1603 C1587 1.377 . S
C1603 C1601 1.389 . S
C1603 C1604 1.524 . S
C1604 C1603 1.524 . S
C1604 C1605 1.397 . S
C1604 C1609 1.363 . S
C1605 H1576 0.950 . S
C1605 C1604 1.397 . S
C1605 C1606 1.334 . S
C1606 H1577 0.950 . S
C1606 C1605 1.334 . S
C1606 C1607 1.287 . S
C1607 C1606 1.287 . S
C1607 C1608 1.524 . S
C1607 H1610 0.999 . S
C1608 H1578 0.950 . S
C1608 C1607 1.524 . S
C1608 C1609 1.415 . S
C1609 H1579 0.950 . S
C1609 C1604 1.363 . S
C1609 C1608 1.415 . S
H1610 C1607 0.999 . S
H1611 C1592 0.913 . S
H1612 C1630 0.951 . S
H1613 C1632 0.951 . S
H1614 C1634 0.950 . S
H1615 C1635 0.950 1_565 S
H1616 C1637 0.950 . S
H1617 C1640 0.950 . S
H1618 C1641 0.950 . S
H1619 C1643 0.950 . S
H1620 C1644 0.950 . S
H1621 C1645 0.951 . S
H1622 C1647 0.951 . S
H1623 C1649 0.950 . S
H1624 C1650 0.950 . S
H1625 C1652 0.950 . S
H1626 C1655 0.950 . S
H1627 C1656 0.950 . S
H1628 C1658 0.950 . S
H1629 C1659 0.950 . S
C1630 H1612 0.951 . S
C1630 C1631 1.366 . S
C1630 C1632 1.388 . S
C1631 C1630 1.366 . S
C1631 C1635 1.385 . S
C1632 H1613 0.951 . S
C1632 C1630 1.388 . S
C1632 C1633 1.366 . S
C1633 C1632 1.366 . S
C1633 C1634 1.414 . S
C1633 C1636 1.499 . S
C1634 H1614 0.950 . S
C1634 C1633 1.414 . S
C1634 C1635 1.374 . S
C1635 H1615 0.950 1_545 S
C1635 C1631 1.385 . S
C1635 C1634 1.374 . S
C1636 C1633 1.499 . S
C1636 C1637 1.373 . S
C1636 C1638 1.389 . S
C1637 H1616 0.950 . S
C1637 C1636 1.373 . S
C1637 C1653 1.377 . S
C1638 C1636 1.389 . S
C1638 C1639 1.524 . S
C1638 C1652 1.377 . S
C1639 C1638 1.524 . S
C1639 C1640 1.397 . S
C1639 C1644 1.363 . S
C1640 H1617 0.950 . S
C1640 C1639 1.397 . S
C1640 C1641 1.334 . S
C1641 H1618 0.950 . S
C1641 C1640 1.334 . S
C1641 C1642 1.287 . S
C1642 C1641 1.287 . S
C1642 C1643 1.524 . S
C1642 H1661 0.913 . S
C1643 H1619 0.950 . S
C1643 C1642 1.524 . S
C1643 C1644 1.415 . S
C1644 H1620 0.950 . S
C1644 C1639 1.363 . S
C1644 C1643 1.415 . S
C1645 H1621 0.951 . S
C1645 C1646 1.366 . S
C1645 C1647 1.388 . S
C1646 C1645 1.366 . S
C1646 C1650 1.385 . S
C1647 H1622 0.951 . S
C1647 C1645 1.388 . S
C1647 C1648 1.366 . S
C1648 C1647 1.366 . S
C1648 C1649 1.414 . S
C1648 C1651 1.499 . S
C1649 H1623 0.950 . S
C1649 C1648 1.414 . S
C1649 C1650 1.374 . S
C1650 H1624 0.950 . S
C1650 C1646 1.385 . S
C1650 C1649 1.374 . S
C1651 C1648 1.499 . S
C1651 C1652 1.373 . S
C1651 C1653 1.389 . S
C1652 H1625 0.950 . S
C1652 C1638 1.377 . S
C1652 C1651 1.373 . S
C1653 C1637 1.377 . S
C1653 C1651 1.389 . S
C1653 C1654 1.524 . S
C1654 C1653 1.524 . S
C1654 C1655 1.397 . S
C1654 C1659 1.363 . S
C1655 H1626 0.950 . S
C1655 C1654 1.397 . S
C1655 C1656 1.334 . S
C1656 H1627 0.950 . S
C1656 C1655 1.334 . S
C1656 C1657 1.287 . S
C1657 C1656 1.287 . S
C1657 C1658 1.524 1_545 S
C1657 H1660 0.999 1_545 S
C1658 H1628 0.950 . S
C1658 C1657 1.524 1_565 S
C1658 C1659 1.415 1_565 S
C1659 H1629 0.950 . S
C1659 C1654 1.363 . S
C1659 C1658 1.415 1_545 S
H1660 C1657 0.999 1_565 S
H1661 C1642 0.913 . S
H1662 C1680 0.951 . S
H1663 C1682 0.951 . S
H1664 C1684 0.950 . S
H1665 C1685 0.950 . S
H1666 C1687 0.950 . S
H1667 C1690 0.950 . S
H1668 C1691 0.950 . S
H1669 C1693 0.950 . S
H1670 C1694 0.950 . S
H1671 C1695 0.951 . S
H1672 C1697 0.951 . S
H1673 C1699 0.950 . S
H1674 C1700 0.950 . S
H1675 C1702 0.950 . S
H1676 C1705 0.950 . S
H1677 C1706 0.950 . S
H1678 C1708 0.950 . S
H1679 C1709 0.950 . S
C1680 H1662 0.951 . S
C1680 C1681 1.366 . S
C1680 C1682 1.388 . S
C1681 C1680 1.366 . S
C1681 C1685 1.385 . S
C1682 H1663 0.951 . S
C1682 C1680 1.388 . S
C1682 C1683 1.366 . S
C1683 C1682 1.366 . S
C1683 C1684 1.414 . S
C1683 C1686 1.499 . S
C1684 H1664 0.950 . S
C1684 C1683 1.414 . S
C1684 C1685 1.374 . S
C1685 H1665 0.950 . S
C1685 C1681 1.385 . S
C1685 C1684 1.374 . S
C1686 C1683 1.499 . S
C1686 C1687 1.373 . S
C1686 C1688 1.389 . S
C1687 H1666 0.950 . S
C1687 C1686 1.373 . S
C1687 C1703 1.377 . S
C1688 C1686 1.389 . S
C1688 C1689 1.524 . S
C1688 C1702 1.377 . S
C1689 C1688 1.524 . S
C1689 C1690 1.397 . S
C1689 C1694 1.363 . S
C1690 H1667 0.950 . S
C1690 C1689 1.397 . S
C1690 C1691 1.334 . S
C1691 H1668 0.950 . S
C1691 C1690 1.334 . S
C1691 C1692 1.287 1_556 S
C1692 C1691 1.287 1_554 S
C1692 C1693 1.524 . S
C1692 H1711 0.913 . S
C1693 H1669 0.950 . S
C1693 C1692 1.524 . S
C1693 C1694 1.415 1_554 S
C1694 H1670 0.950 . S
C1694 C1689 1.363 . S
C1694 C1693 1.415 1_556 S
C1695 H1671 0.951 . S
C1695 C1696 1.366 . S
C1695 C1697 1.388 . S
C1696 C1695 1.366 . S
C1696 C1700 1.385 . S
C1697 H1672 0.951 . S
C1697 C1695 1.388 . S
C1697 C1698 1.366 . S
C1698 C1697 1.366 . S
C1698 C1699 1.414 . S
C1698 C1701 1.499 . S
C1699 H1673 0.950 . S
C1699 C1698 1.414 . S
C1699 C1700 1.374 . S
C1700 H1674 0.950 . S
C1700 C1696 1.385 . S
C1700 C1699 1.374 . S
C1701 C1698 1.499 . S
C1701 C1702 1.373 . S
C1701 C1703 1.389 . S
C1702 H1675 0.950 . S
C1702 C1688 1.377 . S
C1702 C1701 1.373 . S
C1703 C1687 1.377 . S
C1703 C1701 1.389 . S
C1703 C1704 1.524 . S
C1704 C1703 1.524 . S
C1704 C1705 1.397 . S
C1704 C1709 1.363 . S
C1705 H1676 0.950 . S
C1705 C1704 1.397 . S
C1705 C1706 1.334 . S
C1706 H1677 0.950 . S
C1706 C1705 1.334 . S
C1706 C1707 1.287 . S
C1707 C1706 1.287 . S
C1707 C1708 1.524 . S
C1707 H1710 0.999 . S
C1708 H1678 0.950 . S
C1708 C1707 1.524 . S
C1708 C1709 1.415 . S
C1709 H1679 0.950 . S
C1709 C1704 1.363 . S
C1709 C1708 1.415 . S
H1710 C1707 0.999 . S
H1711 C1692 0.913 . S
H1712 C1730 0.951 . S
H1713 C1732 0.951 . S
H1714 C1734 0.950 . S
H1715 C1735 0.950 . S
H1716 C1737 0.950 . S
H1717 C1740 0.950 . S
H1718 C1741 0.950 . S
H1719 C1743 0.950 1_655 S
H1720 C1744 0.950 . S
H1721 C1745 0.951 . S
H1722 C1747 0.951 . S
H1723 C1749 0.950 . S
H1724 C1750 0.950 1_655 S
H1725 C1752 0.950 . S
H1726 C1755 0.950 . S
H1727 C1756 0.950 . S
H1728 C1758 0.950 . S
H1729 C1759 0.950 . S
C1730 H1712 0.951 . S
C1730 C1731 1.366 . S
C1730 C1732 1.388 . S
C1731 C1730 1.366 . S
C1731 C1735 1.385 . S
C1732 H1713 0.951 . S
C1732 C1730 1.388 . S
C1732 C1733 1.366 . S
C1733 C1732 1.366 . S
C1733 C1734 1.414 . S
C1733 C1736 1.499 . S
C1734 H1714 0.950 . S
C1734 C1733 1.414 . S
C1734 C1735 1.374 . S
C1735 H1715 0.950 . S
C1735 C1731 1.385 . S
C1735 C1734 1.374 . S
C1736 C1733 1.499 . S
C1736 C1737 1.373 . S
C1736 C1738 1.389 . S
C1737 H1716 0.950 . S
C1737 C1736 1.373 . S
C1737 C1753 1.377 . S
C1738 C1736 1.389 . S
C1738 C1739 1.524 . S
C1738 C1752 1.377 . S
C1739 C1738 1.524 . S
C1739 C1740 1.397 . S
C1739 C1744 1.363 . S
C1740 H1717 0.950 . S
C1740 C1739 1.397 . S
C1740 C1741 1.334 . S
C1741 H1718 0.950 . S
C1741 C1740 1.334 . S
C1741 C1742 1.287 . S
C1742 C1741 1.287 . S
C1742 C1743 1.524 . S
C1742 H1761 0.913 . S
C1743 H1719 0.950 1_455 S
C1743 C1742 1.524 . S
C1743 C1744 1.415 . S
C1744 H1720 0.950 . S
C1744 C1739 1.363 . S
C1744 C1743 1.415 . S
C1745 H1721 0.951 . S
C1745 C1746 1.366 . S
C1745 C1747 1.388 . S
C1746 C1745 1.366 . S
C1746 C1750 1.385 . S
C1747 H1722 0.951 . S
C1747 C1745 1.388 . S
C1747 C1748 1.366 . S
C1748 C1747 1.366 . S
C1748 C1749 1.414 . S
C1748 C1751 1.499 . S
C1749 H1723 0.950 . S
C1749 C1748 1.414 . S
C1749 C1750 1.374 . S
C1750 H1724 0.950 1_455 S
C1750 C1746 1.385 . S
C1750 C1749 1.374 . S
C1751 C1748 1.499 . S
C1751 C1752 1.373 . S
C1751 C1753 1.389 . S
C1752 H1725 0.950 . S
C1752 C1738 1.377 . S
C1752 C1751 1.373 . S
C1753 C1737 1.377 . S
C1753 C1751 1.389 . S
C1753 C1754 1.524 . S
C1754 C1753 1.524 . S
C1754 C1755 1.397 . S
C1754 C1759 1.363 . S
C1755 H1726 0.950 . S
C1755 C1754 1.397 . S
C1755 C1756 1.334 . S
C1756 H1727 0.950 . S
C1756 C1755 1.334 . S
C1756 C1757 1.287 . S
C1757 C1756 1.287 . S
C1757 C1758 1.524 . S
C1757 H1760 0.999 . S
C1758 H1728 0.950 . S
C1758 C1757 1.524 . S
C1758 C1759 1.415 . S
C1759 H1729 0.950 . S
C1759 C1754 1.363 . S
C1759 C1758 1.415 . S
H1760 C1757 0.999 . S
H1761 C1742 0.913 . S
H1762 C1780 0.951 . S
H1763 C1782 0.951 . S
H1764 C1784 0.950 . S
H1765 C1785 0.950 . S
H1766 C1787 0.950 . S
H1767 C1790 0.950 . S
H1768 C1791 0.950 . S
H1769 C1793 0.950 . S
H1770 C1794 0.950 . S
H1771 C1795 0.951 . S
H1772 C1797 0.951 . S
H1773 C1799 0.950 . S
H1774 C1800 0.950 . S
H1775 C1802 0.950 . S
H1776 C1805 0.950 . S
H1777 C1806 0.950 . S
H1778 C1808 0.950 . S
H1779 C1809 0.950 . S
C1780 H1762 0.951 . S
C1780 C1781 1.366 . S
C1780 C1782 1.388 . S
C1781 C1780 1.366 . S
C1781 C1785 1.385 . S
C1782 H1763 0.951 . S
C1782 C1780 1.388 . S
C1782 C1783 1.366 . S
C1783 C1782 1.366 . S
C1783 C1784 1.414 . S
C1783 C1786 1.499 . S
C1784 H1764 0.950 . S
C1784 C1783 1.414 . S
C1784 C1785 1.374 . S
C1785 H1765 0.950 . S
C1785 C1781 1.385 . S
C1785 C1784 1.374 . S
C1786 C1783 1.499 . S
C1786 C1787 1.373 . S
C1786 C1788 1.389 . S
C1787 H1766 0.950 . S
C1787 C1786 1.373 . S
C1787 C1803 1.377 . S
C1788 C1786 1.389 . S
C1788 C1789 1.524 . S
C1788 C1802 1.377 . S
C1789 C1788 1.524 . S
C1789 C1790 1.397 . S
C1789 C1794 1.363 . S
C1790 H1767 0.950 . S
C1790 C1789 1.397 . S
C1790 C1791 1.334 . S
C1791 H1768 0.950 . S
C1791 C1790 1.334 . S
C1791 C1792 1.287 . S
C1792 C1791 1.287 . S
C1792 C1793 1.524 . S
C1792 H1811 0.913 . S
C1793 H1769 0.950 . S
C1793 C1792 1.524 . S
C1793 C1794 1.415 . S
C1794 H1770 0.950 . S
C1794 C1789 1.363 . S
C1794 C1793 1.415 . S
C1795 H1771 0.951 . S
C1795 C1796 1.366 . S
C1795 C1797 1.388 . S
C1796 C1795 1.366 . S
C1796 C1800 1.385 . S
C1797 H1772 0.951 . S
C1797 C1795 1.388 . S
C1797 C1798 1.366 . S
C1798 C1797 1.366 . S
C1798 C1799 1.414 . S
C1798 C1801 1.499 . S
C1799 H1773 0.950 . S
C1799 C1798 1.414 . S
C1799 C1800 1.374 . S
C1800 H1774 0.950 . S
C1800 C1796 1.385 . S
C1800 C1799 1.374 . S
C1801 C1798 1.499 . S
C1801 C1802 1.373 . S
C1801 C1803 1.389 . S
C1802 H1775 0.950 . S
C1802 C1788 1.377 . S
C1802 C1801 1.373 . S
C1803 C1787 1.377 . S
C1803 C1801 1.389 . S
C1803 C1804 1.524 . S
C1804 C1803 1.524 . S
C1804 C1805 1.397 . S
C1804 C1809 1.363 . S
C1805 H1776 0.950 . S
C1805 C1804 1.397 . S
C1805 C1806 1.334 . S
C1806 H1777 0.950 . S
C1806 C1805 1.334 . S
C1806 C1807 1.287 . S
C1807 C1806 1.287 . S
C1807 C1808 1.524 . S
C1807 H1810 0.999 . S
C1808 H1778 0.950 . S
C1808 C1807 1.524 . S
C1808 C1809 1.415 . S
C1809 H1779 0.950 . S
C1809 C1804 1.363 . S
C1809 C1808 1.415 . S
H1810 C1807 0.999 . S
H1811 C1792 0.913 . S
H1812 C1830 0.951 . S
H1813 C1832 0.951 . S
H1814 C1834 0.950 . S
H1815 C1835 0.950 . S
H1816 C1837 0.950 . S
H1817 C1840 0.950 . S
H1818 C1841 0.950 . S
H1819 C1843 0.950 . S
H1820 C1844 0.950 . S
H1821 C1845 0.951 . S
H1822 C1847 0.951 . S
H1823 C1849 0.950 . S
H1824 C1850 0.950 . S
H1825 C1852 0.950 . S
H1826 C1855 0.950 . S
H1827 C1856 0.950 . S
H1828 C1858 0.950 . S
H1829 C1859 0.950 . S
C1830 H1812 0.951 . S
C1830 C1831 1.366 . S
C1830 C1832 1.388 . S
C1831 C1830 1.366 . S
C1831 C1835 1.385 . S
C1832 H1813 0.951 . S
C1832 C1830 1.388 . S
C1832 C1833 1.366 . S
C1833 C1832 1.366 . S
C1833 C1834 1.414 . S
C1833 C1836 1.499 . S
C1834 H1814 0.950 . S
C1834 C1833 1.414 . S
C1834 C1835 1.374 . S
C1835 H1815 0.950 . S
C1835 C1831 1.385 . S
C1835 C1834 1.374 . S
C1836 C1833 1.499 . S
C1836 C1837 1.373 . S
C1836 C1838 1.389 . S
C1837 H1816 0.950 . S
C1837 C1836 1.373 . S
C1837 C1853 1.377 . S
C1838 C1836 1.389 . S
C1838 C1839 1.524 . S
C1838 C1852 1.377 . S
C1839 C1838 1.524 . S
C1839 C1840 1.397 . S
C1839 C1844 1.363 . S
C1840 H1817 0.950 . S
C1840 C1839 1.397 . S
C1840 C1841 1.334 . S
C1841 H1818 0.950 . S
C1841 C1840 1.334 . S
C1841 C1842 1.287 . S
C1842 C1841 1.287 . S
C1842 C1843 1.524 . S
C1842 H1861 0.913 . S
C1843 H1819 0.950 . S
C1843 C1842 1.524 . S
C1843 C1844 1.415 . S
C1844 H1820 0.950 . S
C1844 C1839 1.363 . S
C1844 C1843 1.415 . S
C1845 H1821 0.951 . S
C1845 C1846 1.366 . S
C1845 C1847 1.388 . S
C1846 C1845 1.366 . S
C1846 C1850 1.385 . S
C1847 H1822 0.951 . S
C1847 C1845 1.388 . S
C1847 C1848 1.366 . S
C1848 C1847 1.366 . S
C1848 C1849 1.414 . S
C1848 C1851 1.499 . S
C1849 H1823 0.950 . S
C1849 C1848 1.414 . S
C1849 C1850 1.374 . S
C1850 H1824 0.950 . S
C1850 C1846 1.385 . S
C1850 C1849 1.374 . S
C1851 C1848 1.499 . S
C1851 C1852 1.373 . S
C1851 C1853 1.389 . S
C1852 H1825 0.950 . S
C1852 C1838 1.377 . S
C1852 C1851 1.373 . S
C1853 C1837 1.377 . S
C1853 C1851 1.389 . S
C1853 C1854 1.524 . S
C1854 C1853 1.524 . S
C1854 C1855 1.397 . S
C1854 C1859 1.363 . S
C1855 H1826 0.950 . S
C1855 C1854 1.397 . S
C1855 C1856 1.334 . S
C1856 H1827 0.950 . S
C1856 C1855 1.334 . S
C1856 C1857 1.287 . S
C1857 C1856 1.287 . S
C1857 C1858 1.524 . S
C1857 H1860 0.999 . S
C1858 H1828 0.950 . S
C1858 C1857 1.524 . S
C1858 C1859 1.415 . S
C1859 H1829 0.950 . S
C1859 C1854 1.363 . S
C1859 C1858 1.415 . S
H1860 C1857 0.999 . S
H1861 C1842 0.913 . S
H1862 C1880 0.951 . S
H1863 C1882 0.951 . S
H1864 C1884 0.950 . S
H1865 C1885 0.950 . S
H1866 C1887 0.950 . S
H1867 C1890 0.950 . S
H1868 C1891 0.950 . S
H1869 C1893 0.950 . S
H1870 C1894 0.950 . S
H1871 C1895 0.951 . S
H1872 C1897 0.951 . S
H1873 C1899 0.950 . S
H1874 C1900 0.950 . S
H1875 C1902 0.950 . S
H1876 C1905 0.950 . S
H1877 C1906 0.950 . S
H1878 C1908 0.950 . S
H1879 C1909 0.950 . S
C1880 H1862 0.951 . S
C1880 C1881 1.366 . S
C1880 C1882 1.388 . S
C1881 C1880 1.366 . S
C1881 C1885 1.385 . S
C1882 H1863 0.951 . S
C1882 C1880 1.388 . S
C1882 C1883 1.366 . S
C1883 C1882 1.366 . S
C1883 C1884 1.414 . S
C1883 C1886 1.499 . S
C1884 H1864 0.950 . S
C1884 C1883 1.414 . S
C1884 C1885 1.374 . S
C1885 H1865 0.950 . S
C1885 C1881 1.385 . S
C1885 C1884 1.374 . S
C1886 C1883 1.499 . S
C1886 C1887 1.373 . S
C1886 C1888 1.389 . S
C1887 H1866 0.950 . S
C1887 C1886 1.373 . S
C1887 C1903 1.377 . S
C1888 C1886 1.389 . S
C1888 C1889 1.524 . S
C1888 C1902 1.377 . S
C1889 C1888 1.524 . S
C1889 C1890 1.397 . S
C1889 C1894 1.363 . S
C1890 H1867 0.950 . S
C1890 C1889 1.397 . S
C1890 C1891 1.334 . S
C1891 H1868 0.950 . S
C1891 C1890 1.334 . S
C1891 C1892 1.287 . S
C1892 C1891 1.287 . S
C1892 C1893 1.524 . S
C1892 H1911 0.913 . S
C1893 H1869 0.950 . S
C1893 C1892 1.524 . S
C1893 C1894 1.415 . S
C1894 H1870 0.950 . S
C1894 C1889 1.363 . S
C1894 C1893 1.415 . S
C1895 H1871 0.951 . S
C1895 C1896 1.366 . S
C1895 C1897 1.388 . S
C1896 C1895 1.366 . S
C1896 C1900 1.385 . S
C1897 H1872 0.951 . S
C1897 C1895 1.388 . S
C1897 C1898 1.366 . S
C1898 C1897 1.366 . S
C1898 C1899 1.414 . S
C1898 C1901 1.499 . S
C1899 H1873 0.950 . S
C1899 C1898 1.414 . S
C1899 C1900 1.374 . S
C1900 H1874 0.950 . S
C1900 C1896 1.385 . S
C1900 C1899 1.374 . S
C1901 C1898 1.499 . S
C1901 C1902 1.373 . S
C1901 C1903 1.389 . S
C1902 H1875 0.950 . S
C1902 C1888 1.377 . S
C1902 C1901 1.373 . S
C1903 C1887 1.377 . S
C1903 C1901 1.389 . S
C1903 C1904 1.524 . S
C1904 C1903 1.524 . S
C1904 C1905 1.397 . S
C1904 C1909 1.363 . S
C1905 H1876 0.950 . S
C1905 C1904 1.397 . S
C1905 C1906 1.334 . S
C1906 H1877 0.950 . S
C1906 C1905 1.334 . S
C1906 C1907 1.287 . S
C1907 C1906 1.287 . S
C1907 C1908 1.524 . S
C1907 H1910 0.999 . S
C1908 H1878 0.950 . S
C1908 C1907 1.524 . S
C1908 C1909 1.415 . S
C1909 H1879 0.950 . S
C1909 C1904 1.363 . S
C1909 C1908 1.415 . S
H1910 C1907 0.999 . S
H1911 C1892 0.913 . S
H1912 C1930 0.951 . S
H1913 C1932 0.951 . S
H1914 C1934 0.950 . S
H1915 C1935 0.950 . S
H1916 C1937 0.950 . S
H1917 C1940 0.950 . S
H1918 C1941 0.950 . S
H1919 C1943 0.950 . S
H1920 C1944 0.950 . S
H1921 C1945 0.951 . S
H1922 C1947 0.951 . S
H1923 C1949 0.950 . S
H1924 C1950 0.950 . S
H1925 C1952 0.950 . S
H1926 C1955 0.950 . S
H1927 C1956 0.950 . S
H1928 C1958 0.950 . S
H1929 C1959 0.950 . S
C1930 H1912 0.951 . S
C1930 C1931 1.366 . S
C1930 C1932 1.388 . S
C1931 C1930 1.366 . S
C1931 C1935 1.385 . S
C1932 H1913 0.951 . S
C1932 C1930 1.388 . S
C1932 C1933 1.366 . S
C1933 C1932 1.366 . S
C1933 C1934 1.414 . S
C1933 C1936 1.499 . S
C1934 H1914 0.950 . S
C1934 C1933 1.414 . S
C1934 C1935 1.374 . S
C1935 H1915 0.950 . S
C1935 C1931 1.385 . S
C1935 C1934 1.374 . S
C1936 C1933 1.499 . S
C1936 C1937 1.373 . S
C1936 C1938 1.389 . S
C1937 H1916 0.950 . S
C1937 C1936 1.373 . S
C1937 C1953 1.377 . S
C1938 C1936 1.389 . S
C1938 C1939 1.524 . S
C1938 C1952 1.377 . S
C1939 C1938 1.524 . S
C1939 C1940 1.397 . S
C1939 C1944 1.363 . S
C1940 H1917 0.950 . S
C1940 C1939 1.397 . S
C1940 C1941 1.334 . S
C1941 H1918 0.950 . S
C1941 C1940 1.334 . S
C1941 C1942 1.287 . S
C1942 C1941 1.287 . S
C1942 C1943 1.524 . S
C1942 H1961 0.913 . S
C1943 H1919 0.950 . S
C1943 C1942 1.524 . S
C1943 C1944 1.415 . S
C1944 H1920 0.950 . S
C1944 C1939 1.363 . S
C1944 C1943 1.415 . S
C1945 H1921 0.951 . S
C1945 C1946 1.366 . S
C1945 C1947 1.388 . S
C1946 C1945 1.366 . S
C1946 C1950 1.385 . S
C1947 H1922 0.951 . S
C1947 C1945 1.388 . S
C1947 C1948 1.366 . S
C1948 C1947 1.366 . S
C1948 C1949 1.414 . S
C1948 C1951 1.499 . S
C1949 H1923 0.950 . S
C1949 C1948 1.414 . S
C1949 C1950 1.374 . S
C1950 H1924 0.950 . S
C1950 C1946 1.385 . S
C1950 C1949 1.374 . S
C1951 C1948 1.499 . S
C1951 C1952 1.373 . S
C1951 C1953 1.389 . S
C1952 H1925 0.950 . S
C1952 C1938 1.377 . S
C1952 C1951 1.373 . S
C1953 C1937 1.377 . S
C1953 C1951 1.389 . S
C1953 C1954 1.524 . S
C1954 C1953 1.524 . S
C1954 C1955 1.397 . S
C1954 C1959 1.363 . S
C1955 H1926 0.950 . S
C1955 C1954 1.397 . S
C1955 C1956 1.334 . S
C1956 H1927 0.950 . S
C1956 C1955 1.334 . S
C1956 C1957 1.287 . S
C1957 C1956 1.287 . S
C1957 C1958 1.524 . S
C1957 H1960 0.999 . S
C1958 H1928 0.950 . S
C1958 C1957 1.524 . S
C1958 C1959 1.415 . S
C1959 H1929 0.950 . S
C1959 C1954 1.363 . S
C1959 C1958 1.415 . S
H1960 C1957 0.999 . S
H1961 C1942 0.913 . S
H1962 C1980 0.951 . S
H1963 C1982 0.951 . S
H1964 C1984 0.950 . S
H1965 C1985 0.950 . S
H1966 C1987 0.950 . S
H1967 C1990 0.950 . S
H1968 C1991 0.950 1_554 S
H1969 C1993 0.950 . S
H1970 C1994 0.950 . S
H1971 C1995 0.951 . S
H1972 C1997 0.951 . S
H1973 C1999 0.950 . S
H1974 C2000 0.950 . S
H1975 C2002 0.950 . S
H1976 C2005 0.950 . S
H1977 C2006 0.950 . S
H1978 C2008 0.950 . S
H1979 C2009 0.950 . S
C1980 H1962 0.951 . S
C1980 C1981 1.366 . S
C1980 C1982 1.388 . S
C1981 C1980 1.366 . S
C1981 C1985 1.385 . S
C1982 H1963 0.951 . S
C1982 C1980 1.388 . S
C1982 C1983 1.366 . S
C1983 C1982 1.366 . S
C1983 C1984 1.414 . S
C1983 C1986 1.499 . S
C1984 H1964 0.950 . S
C1984 C1983 1.414 . S
C1984 C1985 1.374 . S
C1985 H1965 0.950 . S
C1985 C1981 1.385 . S
C1985 C1984 1.374 . S
C1986 C1983 1.499 . S
C1986 C1987 1.373 . S
C1986 C1988 1.389 . S
C1987 H1966 0.950 . S
C1987 C1986 1.373 . S
C1987 C2003 1.377 . S
C1988 C1986 1.389 . S
C1988 C1989 1.524 . S
C1988 C2002 1.377 . S
C1989 C1988 1.524 . S
C1989 C1990 1.397 . S
C1989 C1994 1.363 . S
C1990 H1967 0.950 . S
C1990 C1989 1.397 . S
C1990 C1991 1.334 . S
C1991 H1968 0.950 1_556 S
C1991 C1990 1.334 . S
C1991 C1992 1.287 . S
C1992 C1991 1.287 . S
C1992 C1993 1.524 . S
C1992 H2011 0.913 1_556 S
C1993 H1969 0.950 . S
C1993 C1992 1.524 . S
C1993 C1994 1.415 . S
C1994 H1970 0.950 . S
C1994 C1989 1.363 . S
C1994 C1993 1.415 . S
C1995 H1971 0.951 . S
C1995 C1996 1.366 . S
C1995 C1997 1.388 . S
C1996 C1995 1.366 . S
C1996 C2000 1.385 . S
C1997 H1972 0.951 . S
C1997 C1995 1.388 . S
C1997 C1998 1.366 . S
C1998 C1997 1.366 . S
C1998 C1999 1.414 . S
C1998 C2001 1.499 . S
C1999 H1973 0.950 . S
C1999 C1998 1.414 . S
C1999 C2000 1.374 . S
C2000 H1974 0.950 . S
C2000 C1996 1.385 . S
C2000 C1999 1.374 . S
C2001 C1998 1.499 . S
C2001 C2002 1.373 . S
C2001 C2003 1.389 . S
C2002 H1975 0.950 . S
C2002 C1988 1.377 . S
C2002 C2001 1.373 . S
C2003 C1987 1.377 . S
C2003 C2001 1.389 . S
C2003 C2004 1.524 . S
C2004 C2003 1.524 . S
C2004 C2005 1.397 . S
C2004 C2009 1.363 . S
C2005 H1976 0.950 . S
C2005 C2004 1.397 . S
C2005 C2006 1.334 . S
C2006 H1977 0.950 . S
C2006 C2005 1.334 . S
C2006 C2007 1.287 . S
C2007 C2006 1.287 . S
C2007 C2008 1.524 . S
C2007 H2010 0.999 . S
C2008 H1978 0.950 . S
C2008 C2007 1.524 . S
C2008 C2009 1.415 . S
C2009 H1979 0.950 . S
C2009 C2004 1.363 . S
C2009 C2008 1.415 . S
H2010 C2007 0.999 . S
H2011 C1992 0.913 1_554 S
H2012 C2030 0.951 . S
H2013 C2032 0.951 . S
H2014 C2034 0.950 . S
H2015 C2035 0.950 . S
H2016 C2037 0.950 . S
H2017 C2040 0.950 . S
H2018 C2041 0.950 . S
H2019 C2043 0.950 . S
H2020 C2044 0.950 . S
H2021 C2045 0.951 . S
H2022 C2047 0.951 . S
H2023 C2049 0.950 . S
H2024 C2050 0.950 . S
H2025 C2052 0.950 . S
H2026 C2055 0.950 . S
H2027 C2056 0.950 . S
H2028 C2058 0.950 . S
H2029 C2059 0.950 . S
C2030 H2012 0.951 . S
C2030 C2031 1.366 . S
C2030 C2032 1.388 . S
C2031 C2030 1.366 . S
C2031 C2035 1.385 . S
C2032 H2013 0.951 . S
C2032 C2030 1.388 . S
C2032 C2033 1.366 . S
C2033 C2032 1.366 . S
C2033 C2034 1.414 . S
C2033 C2036 1.499 . S
C2034 H2014 0.950 . S
C2034 C2033 1.414 . S
C2034 C2035 1.374 . S
C2035 H2015 0.950 . S
C2035 C2031 1.385 . S
C2035 C2034 1.374 . S
C2036 C2033 1.499 . S
C2036 C2037 1.373 . S
C2036 C2038 1.389 . S
C2037 H2016 0.950 . S
C2037 C2036 1.373 . S
C2037 C2053 1.377 . S
C2038 C2036 1.389 . S
C2038 C2039 1.524 . S
C2038 C2052 1.377 . S
C2039 C2038 1.524 . S
C2039 C2040 1.397 . S
C2039 C2044 1.363 . S
C2040 H2017 0.950 . S
C2040 C2039 1.397 . S
C2040 C2041 1.334 . S
C2041 H2018 0.950 . S
C2041 C2040 1.334 . S
C2041 C2042 1.287 . S
C2042 C2041 1.287 . S
C2042 C2043 1.524 . S
C2042 H2061 0.913 . S
C2043 H2019 0.950 . S
C2043 C2042 1.524 . S
C2043 C2044 1.415 . S
C2044 H2020 0.950 . S
C2044 C2039 1.363 . S
C2044 C2043 1.415 . S
C2045 H2021 0.951 . S
C2045 C2046 1.366 . S
C2045 C2047 1.388 . S
C2046 C2045 1.366 . S
C2046 C2050 1.385 . S
C2047 H2022 0.951 . S
C2047 C2045 1.388 . S
C2047 C2048 1.366 . S
C2048 C2047 1.366 . S
C2048 C2049 1.414 . S
C2048 C2051 1.499 . S
C2049 H2023 0.950 . S
C2049 C2048 1.414 . S
C2049 C2050 1.374 . S
C2050 H2024 0.950 . S
C2050 C2046 1.385 . S
C2050 C2049 1.374 . S
C2051 C2048 1.499 . S
C2051 C2052 1.373 . S
C2051 C2053 1.389 . S
C2052 H2025 0.950 . S
C2052 C2038 1.377 . S
C2052 C2051 1.373 . S
C2053 C2037 1.377 . S
C2053 C2051 1.389 . S
C2053 C2054 1.524 . S
C2054 C2053 1.524 . S
C2054 C2055 1.397 . S
C2054 C2059 1.363 . S
C2055 H2026 0.950 . S
C2055 C2054 1.397 . S
C2055 C2056 1.334 . S
C2056 H2027 0.950 . S
C2056 C2055 1.334 . S
C2056 C2057 1.287 . S
C2057 C2056 1.287 . S
C2057 C2058 1.524 . S
C2057 H2060 0.999 . S
C2058 H2028 0.950 . S
C2058 C2057 1.524 . S
C2058 C2059 1.415 . S
C2059 H2029 0.950 . S
C2059 C2054 1.363 . S
C2059 C2058 1.415 . S
H2060 C2057 0.999 . S
H2061 C2042 0.913 . S
H2062 C2080 0.951 . S
H2063 C2082 0.951 . S
H2064 C2084 0.950 . S
H2065 C2085 0.950 . S
H2066 C2087 0.950 . S
H2067 C2090 0.950 . S
H2068 C2091 0.950 . S
H2069 C2093 0.950 . S
H2070 C2094 0.950 . S
H2071 C2095 0.951 . S
H2072 C2097 0.951 . S
H2073 C2099 0.950 . S
H2074 C2100 0.950 . S
H2075 C2102 0.950 . S
H2076 C2105 0.950 . S
H2077 C2106 0.950 . S
H2078 C2108 0.950 . S
H2079 C2109 0.950 . S
C2080 H2062 0.951 . S
C2080 C2081 1.366 . S
C2080 C2082 1.388 . S
C2081 C2080 1.366 . S
C2081 C2085 1.385 . S
C2082 H2063 0.951 . S
C2082 C2080 1.388 . S
C2082 C2083 1.366 . S
C2083 C2082 1.366 . S
C2083 C2084 1.414 . S
C2083 C2086 1.499 . S
C2084 H2064 0.950 . S
C2084 C2083 1.414 . S
C2084 C2085 1.374 . S
C2085 H2065 0.950 . S
C2085 C2081 1.385 . S
C2085 C2084 1.374 . S
C2086 C2083 1.499 . S
C2086 C2087 1.373 . S
C2086 C2088 1.389 . S
C2087 H2066 0.950 . S
C2087 C2086 1.373 . S
C2087 C2103 1.377 . S
C2088 C2086 1.389 . S
C2088 C2089 1.524 . S
C2088 C2102 1.377 . S
C2089 C2088 1.524 . S
C2089 C2090 1.397 . S
C2089 C2094 1.363 . S
C2090 H2067 0.950 . S
C2090 C2089 1.397 . S
C2090 C2091 1.334 . S
C2091 H2068 0.950 . S
C2091 C2090 1.334 . S
C2091 C2092 1.287 . S
C2092 C2091 1.287 . S
C2092 C2093 1.524 . S
C2092 H2111 0.913 . S
C2093 H2069 0.950 . S
C2093 C2092 1.524 . S
C2093 C2094 1.415 . S
C2094 H2070 0.950 . S
C2094 C2089 1.363 . S
C2094 C2093 1.415 . S
C2095 H2071 0.951 . S
C2095 C2096 1.366 . S
C2095 C2097 1.388 . S
C2096 C2095 1.366 . S
C2096 C2100 1.385 . S
C2097 H2072 0.951 . S
C2097 C2095 1.388 . S
C2097 C2098 1.366 . S
C2098 C2097 1.366 . S
C2098 C2099 1.414 . S
C2098 C2101 1.499 . S
C2099 H2073 0.950 . S
C2099 C2098 1.414 . S
C2099 C2100 1.374 . S
C2100 H2074 0.950 . S
C2100 C2096 1.385 . S
C2100 C2099 1.374 . S
C2101 C2098 1.499 . S
C2101 C2102 1.373 . S
C2101 C2103 1.389 . S
C2102 H2075 0.950 . S
C2102 C2088 1.377 . S
C2102 C2101 1.373 . S
C2103 C2087 1.377 . S
C2103 C2101 1.389 . S
C2103 C2104 1.524 . S
C2104 C2103 1.524 . S
C2104 C2105 1.397 . S
C2104 C2109 1.363 . S
C2105 H2076 0.950 . S
C2105 C2104 1.397 . S
C2105 C2106 1.334 . S
C2106 H2077 0.950 . S
C2106 C2105 1.334 . S
C2106 C2107 1.287 . S
C2107 C2106 1.287 . S
C2107 C2108 1.524 . S
C2107 H2110 0.999 . S
C2108 H2078 0.950 . S
C2108 C2107 1.524 . S
C2108 C2109 1.415 . S
C2109 H2079 0.950 . S
C2109 C2104 1.363 . S
C2109 C2108 1.415 . S
H2110 C2107 0.999 . S
H2111 C2092 0.913 . S
H2112 C2130 0.951 . S
H2113 C2132 0.951 . S
H2114 C2134 0.950 . S
H2115 C2135 0.950 . S
H2116 C2137 0.950 . S
H2117 C2140 0.950 . S
H2118 C2141 0.950 . S
H2119 C2143 0.950 . S
H2120 C2144 0.950 . S
H2121 C2145 0.951 . S
H2122 C2147 0.951 . S
H2123 C2149 0.950 . S
H2124 C2150 0.950 . S
H2125 C2152 0.950 . S
H2126 C2155 0.950 . S
H2127 C2156 0.950 . S
H2128 C2158 0.950 . S
H2129 C2159 0.950 . S
C2130 H2112 0.951 . S
C2130 C2131 1.366 . S
C2130 C2132 1.388 . S
C2131 C2130 1.366 . S
C2131 C2135 1.385 . S
C2132 H2113 0.951 . S
C2132 C2130 1.388 . S
C2132 C2133 1.366 . S
C2133 C2132 1.366 . S
C2133 C2134 1.414 . S
C2133 C2136 1.499 . S
C2134 H2114 0.950 . S
C2134 C2133 1.414 . S
C2134 C2135 1.374 . S
C2135 H2115 0.950 . S
C2135 C2131 1.385 . S
C2135 C2134 1.374 . S
C2136 C2133 1.499 . S
C2136 C2137 1.373 . S
C2136 C2138 1.389 . S
C2137 H2116 0.950 . S
C2137 C2136 1.373 . S
C2137 C2153 1.377 . S
C2138 C2136 1.389 . S
C2138 C2139 1.524 . S
C2138 C2152 1.377 . S
C2139 C2138 1.524 . S
C2139 C2140 1.397 . S
C2139 C2144 1.363 . S
C2140 H2117 0.950 . S
C2140 C2139 1.397 . S
C2140 C2141 1.334 . S
C2141 H2118 0.950 . S
C2141 C2140 1.334 . S
C2141 C2142 1.287 . S
C2142 C2141 1.287 . S
C2142 C2143 1.524 . S
C2142 H2161 0.913 . S
C2143 H2119 0.950 . S
C2143 C2142 1.524 . S
C2143 C2144 1.415 . S
C2144 H2120 0.950 . S
C2144 C2139 1.363 . S
C2144 C2143 1.415 . S
C2145 H2121 0.951 . S
C2145 C2146 1.366 . S
C2145 C2147 1.388 . S
C2146 C2145 1.366 . S
C2146 C2150 1.385 . S
C2147 H2122 0.951 . S
C2147 C2145 1.388 . S
C2147 C2148 1.366 . S
C2148 C2147 1.366 . S
C2148 C2149 1.414 . S
C2148 C2151 1.499 . S
C2149 H2123 0.950 . S
C2149 C2148 1.414 . S
C2149 C2150 1.374 . S
C2150 H2124 0.950 . S
C2150 C2146 1.385 . S
C2150 C2149 1.374 . S
C2151 C2148 1.499 . S
C2151 C2152 1.373 . S
C2151 C2153 1.389 . S
C2152 H2125 0.950 . S
C2152 C2138 1.377 . S
C2152 C2151 1.373 . S
C2153 C2137 1.377 . S
C2153 C2151 1.389 . S
C2153 C2154 1.524 . S
C2154 C2153 1.524 . S
C2154 C2155 1.397 . S
C2154 C2159 1.363 . S
C2155 H2126 0.950 . S
C2155 C2154 1.397 . S
C2155 C2156 1.334 . S
C2156 H2127 0.950 . S
C2156 C2155 1.334 . S
C2156 C2157 1.287 . S
C2157 C2156 1.287 . S
C2157 C2158 1.524 . S
C2157 H2160 0.999 . S
C2158 H2128 0.950 . S
C2158 C2157 1.524 . S
C2158 C2159 1.415 . S
C2159 H2129 0.950 . S
C2159 C2154 1.363 . S
C2159 C2158 1.415 . S
H2160 C2157 0.999 . S
H2161 C2142 0.913 . S
H2162 C2180 0.951 . S
H2163 C2182 0.951 . S
H2164 C2184 0.950 . S
H2165 C2185 0.950 . S
H2166 C2187 0.950 . S
H2167 C2190 0.950 . S
H2168 C2191 0.950 . S
H2169 C2193 0.950 . S
H2170 C2194 0.950 . S
H2171 C2195 0.951 . S
H2172 C2197 0.951 . S
H2173 C2199 0.950 . S
H2174 C2200 0.950 . S
H2175 C2202 0.950 . S
H2176 C2205 0.950 . S
H2177 C2206 0.950 . S
H2178 C2208 0.950 . S
H2179 C2209 0.950 . S
C2180 H2162 0.951 . S
C2180 C2181 1.366 . S
C2180 C2182 1.388 . S
C2181 C2180 1.366 . S
C2181 C2185 1.385 . S
C2182 H2163 0.951 . S
C2182 C2180 1.388 . S
C2182 C2183 1.366 . S
C2183 C2182 1.366 . S
C2183 C2184 1.414 . S
C2183 C2186 1.499 . S
C2184 H2164 0.950 . S
C2184 C2183 1.414 . S
C2184 C2185 1.374 . S
C2185 H2165 0.950 . S
C2185 C2181 1.385 . S
C2185 C2184 1.374 . S
C2186 C2183 1.499 . S
C2186 C2187 1.373 . S
C2186 C2188 1.389 . S
C2187 H2166 0.950 . S
C2187 C2186 1.373 . S
C2187 C2203 1.377 . S
C2188 C2186 1.389 . S
C2188 C2189 1.524 . S
C2188 C2202 1.377 . S
C2189 C2188 1.524 . S
C2189 C2190 1.397 . S
C2189 C2194 1.363 . S
C2190 H2167 0.950 . S
C2190 C2189 1.397 . S
C2190 C2191 1.334 . S
C2191 H2168 0.950 . S
C2191 C2190 1.334 . S
C2191 C2192 1.287 . S
C2192 C2191 1.287 . S
C2192 C2193 1.524 . S
C2192 H2211 0.913 . S
C2193 H2169 0.950 . S
C2193 C2192 1.524 . S
C2193 C2194 1.415 . S
C2194 H2170 0.950 . S
C2194 C2189 1.363 . S
C2194 C2193 1.415 . S
C2195 H2171 0.951 . S
C2195 C2196 1.366 . S
C2195 C2197 1.388 . S
C2196 C2195 1.366 . S
C2196 C2200 1.385 . S
C2197 H2172 0.951 . S
C2197 C2195 1.388 . S
C2197 C2198 1.366 . S
C2198 C2197 1.366 . S
C2198 C2199 1.414 . S
C2198 C2201 1.499 . S
C2199 H2173 0.950 . S
C2199 C2198 1.414 . S
C2199 C2200 1.374 . S
C2200 H2174 0.950 . S
C2200 C2196 1.385 . S
C2200 C2199 1.374 . S
C2201 C2198 1.499 . S
C2201 C2202 1.373 . S
C2201 C2203 1.389 . S
C2202 H2175 0.950 . S
C2202 C2188 1.377 . S
C2202 C2201 1.373 . S
C2203 C2187 1.377 . S
C2203 C2201 1.389 . S
C2203 C2204 1.524 . S
C2204 C2203 1.524 . S
C2204 C2205 1.397 . S
C2204 C2209 1.363 . S
C2205 H2176 0.950 . S
C2205 C2204 1.397 . S
C2205 C2206 1.334 . S
C2206 H2177 0.950 . S
C2206 C2205 1.334 . S
C2206 C2207 1.287 . S
C2207 C2206 1.287 . S
C2207 C2208 1.524 . S
C2207 H2210 0.999 . S
C2208 H2178 0.950 . S
C2208 C2207 1.524 . S
C2208 C2209 1.415 . S
C2209 H2179 0.950 . S
C2209 C2204 1.363 . S
C2209 C2208 1.415 . S
H2210 C2207 0.999 . S
H2211 C2192 0.913 . S
H2212 C2230 0.951 . S
H2213 C2232 0.951 . S
H2214 C2234 0.950 . S
H2215 C2235 0.950 . S
H2216 C2237 0.950 . S
H2217 C2240 0.950 . S
H2218 C2241 0.950 . S
H2219 C2243 0.950 . S
H2220 C2244 0.950 . S
H2221 C2245 0.951 . S
H2222 C2247 0.951 . S
H2223 C2249 0.950 . S
H2224 C2250 0.950 . S
H2225 C2252 0.950 . S
H2226 C2255 0.950 . S
H2227 C2256 0.950 . S
H2228 C2258 0.950 . S
H2229 C2259 0.950 . S
C2230 H2212 0.951 . S
C2230 C2231 1.366 . S
C2230 C2232 1.388 . S
C2231 C2230 1.366 . S
C2231 C2235 1.385 . S
C2232 H2213 0.951 . S
C2232 C2230 1.388 . S
C2232 C2233 1.366 . S
C2233 C2232 1.366 . S
C2233 C2234 1.414 . S
C2233 C2236 1.499 . S
C2234 H2214 0.950 . S
C2234 C2233 1.414 . S
C2234 C2235 1.374 . S
C2235 H2215 0.950 . S
C2235 C2231 1.385 . S
C2235 C2234 1.374 . S
C2236 C2233 1.499 . S
C2236 C2237 1.373 . S
C2236 C2238 1.389 . S
C2237 H2216 0.950 . S
C2237 C2236 1.373 . S
C2237 C2253 1.377 . S
C2238 C2236 1.389 . S
C2238 C2239 1.524 . S
C2238 C2252 1.377 . S
C2239 C2238 1.524 . S
C2239 C2240 1.397 . S
C2239 C2244 1.363 . S
C2240 H2217 0.950 . S
C2240 C2239 1.397 . S
C2240 C2241 1.334 . S
C2241 H2218 0.950 . S
C2241 C2240 1.334 . S
C2241 C2242 1.287 . S
C2242 C2241 1.287 . S
C2242 C2243 1.524 . S
C2242 H2261 0.913 . S
C2243 H2219 0.950 . S
C2243 C2242 1.524 . S
C2243 C2244 1.415 . S
C2244 H2220 0.950 . S
C2244 C2239 1.363 . S
C2244 C2243 1.415 . S
C2245 H2221 0.951 . S
C2245 C2246 1.366 . S
C2245 C2247 1.388 . S
C2246 C2245 1.366 . S
C2246 C2250 1.385 . S
C2247 H2222 0.951 . S
C2247 C2245 1.388 . S
C2247 C2248 1.366 . S
C2248 C2247 1.366 . S
C2248 C2249 1.414 . S
C2248 C2251 1.499 . S
C2249 H2223 0.950 . S
C2249 C2248 1.414 . S
C2249 C2250 1.374 . S
C2250 H2224 0.950 . S
C2250 C2246 1.385 . S
C2250 C2249 1.374 . S
C2251 C2248 1.499 . S
C2251 C2252 1.373 . S
C2251 C2253 1.389 . S
C2252 H2225 0.950 . S
C2252 C2238 1.377 . S
C2252 C2251 1.373 . S
C2253 C2237 1.377 . S
C2253 C2251 1.389 . S
C2253 C2254 1.524 . S
C2254 C2253 1.524 . S
C2254 C2255 1.397 . S
C2254 C2259 1.363 . S
C2255 H2226 0.950 . S
C2255 C2254 1.397 . S
C2255 C2256 1.334 . S
C2256 H2227 0.950 . S
C2256 C2255 1.334 . S
C2256 C2257 1.287 . S
C2257 C2256 1.287 . S
C2257 C2258 1.524 . S
C2257 H2260 0.999 . S
C2258 H2228 0.950 . S
C2258 C2257 1.524 . S
C2258 C2259 1.415 . S
C2259 H2229 0.950 . S
C2259 C2254 1.363 . S
C2259 C2258 1.415 . S
H2260 C2257 0.999 . S
H2261 C2242 0.913 . S
H2262 C2280 0.951 . S
H2263 C2282 0.951 . S
H2264 C2284 0.950 . S
H2265 C2285 0.950 . S
H2266 C2287 0.950 . S
H2267 C2290 0.950 . S
H2268 C2291 0.950 . S
H2269 C2293 0.950 . S
H2270 C2294 0.950 . S
H2271 C2295 0.951 . S
H2272 C2297 0.951 . S
H2273 C2299 0.950 . S
H2274 C2300 0.950 . S
H2275 C2302 0.950 . S
H2276 C2305 0.950 . S
H2277 C2306 0.950 . S
H2278 C2308 0.950 . S
H2279 C2309 0.950 . S
C2280 H2262 0.951 . S
C2280 C2281 1.366 . S
C2280 C2282 1.388 . S
C2281 C2280 1.366 . S
C2281 C2285 1.385 . S
C2282 H2263 0.951 . S
C2282 C2280 1.388 . S
C2282 C2283 1.366 . S
C2283 C2282 1.366 . S
C2283 C2284 1.414 . S
C2283 C2286 1.499 . S
C2284 H2264 0.950 . S
C2284 C2283 1.414 . S
C2284 C2285 1.374 . S
C2285 H2265 0.950 . S
C2285 C2281 1.385 . S
C2285 C2284 1.374 . S
C2286 C2283 1.499 . S
C2286 C2287 1.373 . S
C2286 C2288 1.389 . S
C2287 H2266 0.950 . S
C2287 C2286 1.373 . S
C2287 C2303 1.377 . S
C2288 C2286 1.389 . S
C2288 C2289 1.524 . S
C2288 C2302 1.377 . S
C2289 C2288 1.524 . S
C2289 C2290 1.397 . S
C2289 C2294 1.363 . S
C2290 H2267 0.950 . S
C2290 C2289 1.397 . S
C2290 C2291 1.334 . S
C2291 H2268 0.950 . S
C2291 C2290 1.334 . S
C2291 C2292 1.287 . S
C2292 C2291 1.287 . S
C2292 C2293 1.524 . S
C2292 H2311 0.913 . S
C2293 H2269 0.950 . S
C2293 C2292 1.524 . S
C2293 C2294 1.415 . S
C2294 H2270 0.950 . S
C2294 C2289 1.363 . S
C2294 C2293 1.415 . S
C2295 H2271 0.951 . S
C2295 C2296 1.366 . S
C2295 C2297 1.388 . S
C2296 C2295 1.366 . S
C2296 C2300 1.385 . S
C2297 H2272 0.951 . S
C2297 C2295 1.388 . S
C2297 C2298 1.366 . S
C2298 C2297 1.366 . S
C2298 C2299 1.414 . S
C2298 C2301 1.499 . S
C2299 H2273 0.950 . S
C2299 C2298 1.414 . S
C2299 C2300 1.374 . S
C2300 H2274 0.950 . S
C2300 C2296 1.385 . S
C2300 C2299 1.374 . S
C2301 C2298 1.499 . S
C2301 C2302 1.373 . S
C2301 C2303 1.389 . S
C2302 H2275 0.950 . S
C2302 C2288 1.377 . S
C2302 C2301 1.373 . S
C2303 C2287 1.377 . S
C2303 C2301 1.389 . S
C2303 C2304 1.524 . S
C2304 C2303 1.524 . S
C2304 C2305 1.397 . S
C2304 C2309 1.363 . S
C2305 H2276 0.950 . S
C2305 C2304 1.397 . S
C2305 C2306 1.334 . S
C2306 H2277 0.950 . S
C2306 C2305 1.334 . S
C2306 C2307 1.287 . S
C2307 C2306 1.287 . S
C2307 C2308 1.524 . S
C2307 H2310 0.999 . S
C2308 H2278 0.950 . S
C2308 C2307 1.524 . S
C2308 C2309 1.415 . S
C2309 H2279 0.950 . S
C2309 C2304 1.363 . S
C2309 C2308 1.415 . S
H2310 C2307 0.999 . S
H2311 C2292 0.913 . S
H2312 C2330 0.951 . S
H2313 C2332 0.951 . S
H2314 C2334 0.950 . S
H2315 C2335 0.950 . S
H2316 C2337 0.950 . S
H2317 C2340 0.950 . S
H2318 C2341 0.950 . S
H2319 C2343 0.950 . S
H2320 C2344 0.950 . S
H2321 C2345 0.951 . S
H2322 C2347 0.951 . S
H2323 C2349 0.950 . S
H2324 C2350 0.950 . S
H2325 C2352 0.950 . S
H2326 C2355 0.950 . S
H2327 C2356 0.950 . S
H2328 C2358 0.950 . S
H2329 C2359 0.950 . S
C2330 H2312 0.951 . S
C2330 C2331 1.366 . S
C2330 C2332 1.388 . S
C2331 C2330 1.366 . S
C2331 C2335 1.385 . S
C2332 H2313 0.951 . S
C2332 C2330 1.388 . S
C2332 C2333 1.366 . S
C2333 C2332 1.366 . S
C2333 C2334 1.414 . S
C2333 C2336 1.499 . S
C2334 H2314 0.950 . S
C2334 C2333 1.414 . S
C2334 C2335 1.374 . S
C2335 H2315 0.950 . S
C2335 C2331 1.385 . S
C2335 C2334 1.374 . S
C2336 C2333 1.499 . S
C2336 C2337 1.373 . S
C2336 C2338 1.389 . S
C2337 H2316 0.950 . S
C2337 C2336 1.373 . S
C2337 C2353 1.377 . S
C2338 C2336 1.389 . S
C2338 C2339 1.524 . S
C2338 C2352 1.377 . S
C2339 C2338 1.524 . S
C2339 C2340 1.397 . S
C2339 C2344 1.363 . S
C2340 H2317 0.950 . S
C2340 C2339 1.397 . S
C2340 C2341 1.334 . S
C2341 H2318 0.950 . S
C2341 C2340 1.334 . S
C2341 C2342 1.287 . S
C2342 C2341 1.287 . S
C2342 C2343 1.524 . S
C2342 H2361 0.913 . S
C2343 H2319 0.950 . S
C2343 C2342 1.524 . S
C2343 C2344 1.415 . S
C2344 H2320 0.950 . S
C2344 C2339 1.363 . S
C2344 C2343 1.415 . S
C2345 H2321 0.951 . S
C2345 C2346 1.366 . S
C2345 C2347 1.388 . S
C2346 C2345 1.366 . S
C2346 C2350 1.385 . S
C2347 H2322 0.951 . S
C2347 C2345 1.388 . S
C2347 C2348 1.366 . S
C2348 C2347 1.366 . S
C2348 C2349 1.414 . S
C2348 C2351 1.499 . S
C2349 H2323 0.950 . S
C2349 C2348 1.414 . S
C2349 C2350 1.374 . S
C2350 H2324 0.950 . S
C2350 C2346 1.385 . S
C2350 C2349 1.374 . S
C2351 C2348 1.499 . S
C2351 C2352 1.373 . S
C2351 C2353 1.389 . S
C2352 H2325 0.950 . S
C2352 C2338 1.377 . S
C2352 C2351 1.373 . S
C2353 C2337 1.377 . S
C2353 C2351 1.389 . S
C2353 C2354 1.524 . S
C2354 C2353 1.524 . S
C2354 C2355 1.397 . S
C2354 C2359 1.363 . S
C2355 H2326 0.950 . S
C2355 C2354 1.397 . S
C2355 C2356 1.334 . S
C2356 H2327 0.950 . S
C2356 C2355 1.334 . S
C2356 C2357 1.287 1_455 S
C2357 C2356 1.287 1_655 S
C2357 C2358 1.524 . S
C2357 H2360 0.999 . S
C2358 H2328 0.950 . S
C2358 C2357 1.524 . S
C2358 C2359 1.415 1_655 S
C2359 H2329 0.950 . S
C2359 C2354 1.363 . S
C2359 C2358 1.415 1_455 S
H2360 C2357 0.999 . S
H2361 C2342 0.913 . S
H2362 C2380 0.951 . S
H2363 C2382 0.951 . S
H2364 C2384 0.950 . S
H2365 C2385 0.950 . S
H2366 C2387 0.950 . S
H2367 C2390 0.950 . S
H2368 C2391 0.950 . S
H2369 C2393 0.950 . S
H2370 C2394 0.950 . S
H2371 C2395 0.951 . S
H2372 C2397 0.951 . S
H2373 C2399 0.950 . S
H2374 C2400 0.950 . S
H2375 C2402 0.950 . S
H2376 C2405 0.950 . S
H2377 C2406 0.950 . S
H2378 C2408 0.950 . S
H2379 C2409 0.950 . S
C2380 H2362 0.951 . S
C2380 C2381 1.366 . S
C2380 C2382 1.388 . S
C2381 C2380 1.366 . S
C2381 C2385 1.385 . S
C2382 H2363 0.951 . S
C2382 C2380 1.388 . S
C2382 C2383 1.366 . S
C2383 C2382 1.366 . S
C2383 C2384 1.414 . S
C2383 C2386 1.499 . S
C2384 H2364 0.950 . S
C2384 C2383 1.414 . S
C2384 C2385 1.374 . S
C2385 H2365 0.950 . S
C2385 C2381 1.385 . S
C2385 C2384 1.374 . S
C2386 C2383 1.499 . S
C2386 C2387 1.373 . S
C2386 C2388 1.389 . S
C2387 H2366 0.950 . S
C2387 C2386 1.373 . S
C2387 C2403 1.377 . S
C2388 C2386 1.389 . S
C2388 C2389 1.524 . S
C2388 C2402 1.377 . S
C2389 C2388 1.524 . S
C2389 C2390 1.397 . S
C2389 C2394 1.363 . S
C2390 H2367 0.950 . S
C2390 C2389 1.397 . S
C2390 C2391 1.334 . S
C2391 H2368 0.950 . S
C2391 C2390 1.334 . S
C2391 C2392 1.287 . S
C2392 C2391 1.287 . S
C2392 C2393 1.524 . S
C2392 H2411 0.913 . S
C2393 H2369 0.950 . S
C2393 C2392 1.524 . S
C2393 C2394 1.415 . S
C2394 H2370 0.950 . S
C2394 C2389 1.363 . S
C2394 C2393 1.415 . S
C2395 H2371 0.951 . S
C2395 C2396 1.366 . S
C2395 C2397 1.388 . S
C2396 C2395 1.366 . S
C2396 C2400 1.385 . S
C2397 H2372 0.951 . S
C2397 C2395 1.388 . S
C2397 C2398 1.366 . S
C2398 C2397 1.366 . S
C2398 C2399 1.414 . S
C2398 C2401 1.499 . S
C2399 H2373 0.950 . S
C2399 C2398 1.414 . S
C2399 C2400 1.374 . S
C2400 H2374 0.950 . S
C2400 C2396 1.385 . S
C2400 C2399 1.374 . S
C2401 C2398 1.499 . S
C2401 C2402 1.373 . S
C2401 C2403 1.389 . S
C2402 H2375 0.950 . S
C2402 C2388 1.377 . S
C2402 C2401 1.373 . S
C2403 C2387 1.377 . S
C2403 C2401 1.389 . S
C2403 C2404 1.524 . S
C2404 C2403 1.524 . S
C2404 C2405 1.397 . S
C2404 C2409 1.363 . S
C2405 H2376 0.950 . S
C2405 C2404 1.397 . S
C2405 C2406 1.334 . S
C2406 H2377 0.950 . S
C2406 C2405 1.334 . S
C2406 C2407 1.287 . S
C2407 C2406 1.287 . S
C2407 C2408 1.524 . S
C2407 H2410 0.999 . S
C2408 H2378 0.950 . S
C2408 C2407 1.524 . S
C2408 C2409 1.415 . S
C2409 H2379 0.950 . S
C2409 C2404 1.363 . S
C2409 C2408 1.415 . S
H2410 C2407 0.999 . S
H2411 C2392 0.913 . S
H2412 C2430 0.951 . S
H2413 C2432 0.951 . S
H2414 C2434 0.950 . S
H2415 C2435 0.950 1_556 S
H2416 C2437 0.950 . S
H2417 C2440 0.950 . S
H2418 C2441 0.950 . S
H2419 C2443 0.950 . S
H2420 C2444 0.950 . S
H2421 C2445 0.951 . S
H2422 C2447 0.951 . S
H2423 C2449 0.950 . S
H2424 C2450 0.950 . S
H2425 C2452 0.950 . S
H2426 C2455 0.950 . S
H2427 C2456 0.950 . S
H2428 C2458 0.950 1_556 S
H2429 C2459 0.950 . S
C2430 H2412 0.951 . S
C2430 C2431 1.366 . S
C2430 C2432 1.388 . S
C2431 C2430 1.366 . S
C2431 C2435 1.385 . S
C2432 H2413 0.951 . S
C2432 C2430 1.388 . S
C2432 C2433 1.366 . S
C2433 C2432 1.366 . S
C2433 C2434 1.414 . S
C2433 C2436 1.499 . S
C2434 H2414 0.950 . S
C2434 C2433 1.414 . S
C2434 C2435 1.374 . S
C2435 H2415 0.950 1_554 S
C2435 C2431 1.385 . S
C2435 C2434 1.374 . S
C2436 C2433 1.499 . S
C2436 C2437 1.373 . S
C2436 C2438 1.389 . S
C2437 H2416 0.950 . S
C2437 C2436 1.373 . S
C2437 C2453 1.377 . S
C2438 C2436 1.389 . S
C2438 C2439 1.524 . S
C2438 C2452 1.377 . S
C2439 C2438 1.524 . S
C2439 C2440 1.397 . S
C2439 C2444 1.363 . S
C2440 H2417 0.950 . S
C2440 C2439 1.397 . S
C2440 C2441 1.334 . S
C2441 H2418 0.950 . S
C2441 C2440 1.334 . S
C2441 C2442 1.287 . S
C2442 C2441 1.287 . S
C2442 C2443 1.524 . S
C2442 H2461 0.913 . S
C2443 H2419 0.950 . S
C2443 C2442 1.524 . S
C2443 C2444 1.415 . S
C2444 H2420 0.950 . S
C2444 C2439 1.363 . S
C2444 C2443 1.415 . S
C2445 H2421 0.951 . S
C2445 C2446 1.366 . S
C2445 C2447 1.388 . S
C2446 C2445 1.366 . S
C2446 C2450 1.385 . S
C2447 H2422 0.951 . S
C2447 C2445 1.388 . S
C2447 C2448 1.366 . S
C2448 C2447 1.366 . S
C2448 C2449 1.414 . S
C2448 C2451 1.499 . S
C2449 H2423 0.950 . S
C2449 C2448 1.414 . S
C2449 C2450 1.374 . S
C2450 H2424 0.950 . S
C2450 C2446 1.385 . S
C2450 C2449 1.374 . S
C2451 C2448 1.499 . S
C2451 C2452 1.373 . S
C2451 C2453 1.389 . S
C2452 H2425 0.950 . S
C2452 C2438 1.377 . S
C2452 C2451 1.373 . S
C2453 C2437 1.377 . S
C2453 C2451 1.389 . S
C2453 C2454 1.524 . S
C2454 C2453 1.524 . S
C2454 C2455 1.397 . S
C2454 C2459 1.363 . S
C2455 H2426 0.950 . S
C2455 C2454 1.397 . S
C2455 C2456 1.334 . S
C2456 H2427 0.950 . S
C2456 C2455 1.334 . S
C2456 C2457 1.287 . S
C2457 C2456 1.287 . S
C2457 C2458 1.524 . S
C2457 H2460 0.999 . S
C2458 H2428 0.950 1_554 S
C2458 C2457 1.524 . S
C2458 C2459 1.415 . S
C2459 H2429 0.950 . S
C2459 C2454 1.363 . S
C2459 C2458 1.415 . S
H2460 C2457 0.999 . S
H2461 C2442 0.913 . S
H2462 C2480 0.951 . S
H2463 C2482 0.951 . S
H2464 C2484 0.950 . S
H2465 C2485 0.950 . S
H2466 C2487 0.950 . S
H2467 C2490 0.950 . S
H2468 C2491 0.950 . S
H2469 C2493 0.950 . S
H2470 C2494 0.950 . S
H2471 C2495 0.951 . S
H2472 C2497 0.951 . S
H2473 C2499 0.950 . S
H2474 C2500 0.950 . S
H2475 C2502 0.950 . S
H2476 C2505 0.950 . S
H2477 C2506 0.950 . S
H2478 C2508 0.950 . S
H2479 C2509 0.950 . S
C2480 H2462 0.951 . S
C2480 C2481 1.366 . S
C2480 C2482 1.388 . S
C2481 C2480 1.366 . S
C2481 C2485 1.385 . S
C2482 H2463 0.951 . S
C2482 C2480 1.388 . S
C2482 C2483 1.366 . S
C2483 C2482 1.366 . S
C2483 C2484 1.414 . S
C2483 C2486 1.499 . S
C2484 H2464 0.950 . S
C2484 C2483 1.414 . S
C2484 C2485 1.374 . S
C2485 H2465 0.950 . S
C2485 C2481 1.385 . S
C2485 C2484 1.374 . S
C2486 C2483 1.499 . S
C2486 C2487 1.373 . S
C2486 C2488 1.389 . S
C2487 H2466 0.950 . S
C2487 C2486 1.373 . S
C2487 C2503 1.377 . S
C2488 C2486 1.389 . S
C2488 C2489 1.524 . S
C2488 C2502 1.377 . S
C2489 C2488 1.524 . S
C2489 C2490 1.397 . S
C2489 C2494 1.363 . S
C2490 H2467 0.950 . S
C2490 C2489 1.397 . S
C2490 C2491 1.334 . S
C2491 H2468 0.950 . S
C2491 C2490 1.334 . S
C2491 C2492 1.287 . S
C2492 C2491 1.287 . S
C2492 C2493 1.524 . S
C2492 H2511 0.913 . S
C2493 H2469 0.950 . S
C2493 C2492 1.524 . S
C2493 C2494 1.415 . S
C2494 H2470 0.950 . S
C2494 C2489 1.363 . S
C2494 C2493 1.415 . S
C2495 H2471 0.951 . S
C2495 C2496 1.366 . S
C2495 C2497 1.388 . S
C2496 C2495 1.366 . S
C2496 C2500 1.385 . S
C2497 H2472 0.951 . S
C2497 C2495 1.388 . S
C2497 C2498 1.366 . S
C2498 C2497 1.366 . S
C2498 C2499 1.414 . S
C2498 C2501 1.499 . S
C2499 H2473 0.950 . S
C2499 C2498 1.414 . S
C2499 C2500 1.374 . S
C2500 H2474 0.950 . S
C2500 C2496 1.385 . S
C2500 C2499 1.374 . S
C2501 C2498 1.499 . S
C2501 C2502 1.373 . S
C2501 C2503 1.389 . S
C2502 H2475 0.950 . S
C2502 C2488 1.377 . S
C2502 C2501 1.373 . S
C2503 C2487 1.377 . S
C2503 C2501 1.389 . S
C2503 C2504 1.524 . S
C2504 C2503 1.524 . S
C2504 C2505 1.397 . S
C2504 C2509 1.363 . S
C2505 H2476 0.950 . S
C2505 C2504 1.397 . S
C2505 C2506 1.334 . S
C2506 H2477 0.950 . S
C2506 C2505 1.334 . S
C2506 C2507 1.287 . S
C2507 C2506 1.287 . S
C2507 C2508 1.524 . S
C2507 H2510 0.999 . S
C2508 H2478 0.950 . S
C2508 C2507 1.524 . S
C2508 C2509 1.415 . S
C2509 H2479 0.950 . S
C2509 C2504 1.363 . S
C2509 C2508 1.415 . S
H2510 C2507 0.999 . S
H2511 C2492 0.913 . S
H2512 C2530 0.951 . S
H2513 C2532 0.951 . S
H2514 C2534 0.950 . S
H2515 C2535 0.950 . S
H2516 C2537 0.950 . S
H2517 C2540 0.950 . S
H2518 C2541 0.950 . S
H2519 C2543 0.950 . S
H2520 C2544 0.950 . S
H2521 C2545 0.951 . S
H2522 C2547 0.951 . S
H2523 C2549 0.950 . S
H2524 C2550 0.950 . S
H2525 C2552 0.950 . S
H2526 C2555 0.950 . S
H2527 C2556 0.950 . S
H2528 C2558 0.950 . S
H2529 C2559 0.950 . S
C2530 H2512 0.951 . S
C2530 C2531 1.366 . S
C2530 C2532 1.388 . S
C2531 C2530 1.366 . S
C2531 C2535 1.385 . S
C2532 H2513 0.951 . S
C2532 C2530 1.388 . S
C2532 C2533 1.366 . S
C2533 C2532 1.366 . S
C2533 C2534 1.414 . S
C2533 C2536 1.499 . S
C2534 H2514 0.950 . S
C2534 C2533 1.414 . S
C2534 C2535 1.374 . S
C2535 H2515 0.950 . S
C2535 C2531 1.385 . S
C2535 C2534 1.374 . S
C2536 C2533 1.499 . S
C2536 C2537 1.373 . S
C2536 C2538 1.389 . S
C2537 H2516 0.950 . S
C2537 C2536 1.373 . S
C2537 C2553 1.377 . S
C2538 C2536 1.389 . S
C2538 C2539 1.524 . S
C2538 C2552 1.377 . S
C2539 C2538 1.524 . S
C2539 C2540 1.397 . S
C2539 C2544 1.363 . S
C2540 H2517 0.950 . S
C2540 C2539 1.397 . S
C2540 C2541 1.334 . S
C2541 H2518 0.950 . S
C2541 C2540 1.334 . S
C2541 C2542 1.287 . S
C2542 C2541 1.287 . S
C2542 C2543 1.524 . S
C2542 H2561 0.913 . S
C2543 H2519 0.950 . S
C2543 C2542 1.524 . S
C2543 C2544 1.415 . S
C2544 H2520 0.950 . S
C2544 C2539 1.363 . S
C2544 C2543 1.415 . S
C2545 H2521 0.951 . S
C2545 C2546 1.366 . S
C2545 C2547 1.388 . S
C2546 C2545 1.366 . S
C2546 C2550 1.385 . S
C2547 H2522 0.951 . S
C2547 C2545 1.388 . S
C2547 C2548 1.366 . S
C2548 C2547 1.366 . S
C2548 C2549 1.414 . S
C2548 C2551 1.499 . S
C2549 H2523 0.950 . S
C2549 C2548 1.414 . S
C2549 C2550 1.374 . S
C2550 H2524 0.950 . S
C2550 C2546 1.385 . S
C2550 C2549 1.374 . S
C2551 C2548 1.499 . S
C2551 C2552 1.373 . S
C2551 C2553 1.389 . S
C2552 H2525 0.950 . S
C2552 C2538 1.377 . S
C2552 C2551 1.373 . S
C2553 C2537 1.377 . S
C2553 C2551 1.389 . S
C2553 C2554 1.524 . S
C2554 C2553 1.524 . S
C2554 C2555 1.397 . S
C2554 C2559 1.363 . S
C2555 H2526 0.950 . S
C2555 C2554 1.397 . S
C2555 C2556 1.334 . S
C2556 H2527 0.950 . S
C2556 C2555 1.334 . S
C2556 C2557 1.287 . S
C2557 C2556 1.287 . S
C2557 C2558 1.524 . S
C2557 H2560 0.999 . S
C2558 H2528 0.950 . S
C2558 C2557 1.524 . S
C2558 C2559 1.415 . S
C2559 H2529 0.950 . S
C2559 C2554 1.363 . S
C2559 C2558 1.415 . S
H2560 C2557 0.999 . S
H2561 C2542 0.913 . S
H2562 C2580 0.951 . S
H2563 C2582 0.951 . S
H2564 C2584 0.950 . S
H2565 C2585 0.950 . S
H2566 C2587 0.950 . S
H2567 C2590 0.950 . S
H2568 C2591 0.950 . S
H2569 C2593 0.950 . S
H2570 C2594 0.950 . S
H2571 C2595 0.951 . S
H2572 C2597 0.951 . S
H2573 C2599 0.950 . S
H2574 C2600 0.950 . S
H2575 C2602 0.950 . S
H2576 C2605 0.950 . S
H2577 C2606 0.950 . S
H2578 C2608 0.950 . S
H2579 C2609 0.950 . S
C2580 H2562 0.951 . S
C2580 C2581 1.366 . S
C2580 C2582 1.388 . S
C2581 C2580 1.366 . S
C2581 C2585 1.385 . S
C2582 H2563 0.951 . S
C2582 C2580 1.388 . S
C2582 C2583 1.366 . S
C2583 C2582 1.366 . S
C2583 C2584 1.414 . S
C2583 C2586 1.499 . S
C2584 H2564 0.950 . S
C2584 C2583 1.414 . S
C2584 C2585 1.374 . S
C2585 H2565 0.950 . S
C2585 C2581 1.385 . S
C2585 C2584 1.374 . S
C2586 C2583 1.499 . S
C2586 C2587 1.373 . S
C2586 C2588 1.389 . S
C2587 H2566 0.950 . S
C2587 C2586 1.373 . S
C2587 C2603 1.377 . S
C2588 C2586 1.389 . S
C2588 C2589 1.524 . S
C2588 C2602 1.377 . S
C2589 C2588 1.524 . S
C2589 C2590 1.397 . S
C2589 C2594 1.363 . S
C2590 H2567 0.950 . S
C2590 C2589 1.397 . S
C2590 C2591 1.334 . S
C2591 H2568 0.950 . S
C2591 C2590 1.334 . S
C2591 C2592 1.287 . S
C2592 C2591 1.287 . S
C2592 C2593 1.524 . S
C2592 H2611 0.913 . S
C2593 H2569 0.950 . S
C2593 C2592 1.524 . S
C2593 C2594 1.415 . S
C2594 H2570 0.950 . S
C2594 C2589 1.363 . S
C2594 C2593 1.415 . S
C2595 H2571 0.951 . S
C2595 C2596 1.366 . S
C2595 C2597 1.388 . S
C2596 C2595 1.366 . S
C2596 C2600 1.385 . S
C2597 H2572 0.951 . S
C2597 C2595 1.388 . S
C2597 C2598 1.366 . S
C2598 C2597 1.366 . S
C2598 C2599 1.414 . S
C2598 C2601 1.499 . S
C2599 H2573 0.950 . S
C2599 C2598 1.414 . S
C2599 C2600 1.374 . S
C2600 H2574 0.950 . S
C2600 C2596 1.385 . S
C2600 C2599 1.374 . S
C2601 C2598 1.499 . S
C2601 C2602 1.373 . S
C2601 C2603 1.389 . S
C2602 H2575 0.950 . S
C2602 C2588 1.377 . S
C2602 C2601 1.373 . S
C2603 C2587 1.377 . S
C2603 C2601 1.389 . S
C2603 C2604 1.524 . S
C2604 C2603 1.524 . S
C2604 C2605 1.397 . S
C2604 C2609 1.363 . S
C2605 H2576 0.950 . S
C2605 C2604 1.397 . S
C2605 C2606 1.334 . S
C2606 H2577 0.950 . S
C2606 C2605 1.334 . S
C2606 C2607 1.287 . S
C2607 C2606 1.287 . S
C2607 C2608 1.524 . S
C2607 H2610 0.999 . S
C2608 H2578 0.950 . S
C2608 C2607 1.524 . S
C2608 C2609 1.415 . S
C2609 H2579 0.950 . S
C2609 C2604 1.363 . S
C2609 C2608 1.415 . S
H2610 C2607 0.999 . S
H2611 C2592 0.913 . S
H2612 C2630 0.951 . S
H2613 C2632 0.951 . S
H2614 C2634 0.950 . S
H2615 C2635 0.950 . S
H2616 C2637 0.950 . S
H2617 C2640 0.950 . S
H2618 C2641 0.950 . S
H2619 C2643 0.950 . S
H2620 C2644 0.950 . S
H2621 C2645 0.951 . S
H2622 C2647 0.951 . S
H2623 C2649 0.950 . S
H2624 C2650 0.950 . S
H2625 C2652 0.950 . S
H2626 C2655 0.950 . S
H2627 C2656 0.950 . S
H2628 C2658 0.950 . S
H2629 C2659 0.950 . S
C2630 H2612 0.951 . S
C2630 C2631 1.366 . S
C2630 C2632 1.388 . S
C2631 C2630 1.366 . S
C2631 C2635 1.385 . S
C2632 H2613 0.951 . S
C2632 C2630 1.388 . S
C2632 C2633 1.366 . S
C2633 C2632 1.366 . S
C2633 C2634 1.414 . S
C2633 C2636 1.499 . S
C2634 H2614 0.950 . S
C2634 C2633 1.414 . S
C2634 C2635 1.374 . S
C2635 H2615 0.950 . S
C2635 C2631 1.385 . S
C2635 C2634 1.374 . S
C2636 C2633 1.499 . S
C2636 C2637 1.373 . S
C2636 C2638 1.389 . S
C2637 H2616 0.950 . S
C2637 C2636 1.373 . S
C2637 C2653 1.377 . S
C2638 C2636 1.389 . S
C2638 C2639 1.524 . S
C2638 C2652 1.377 . S
C2639 C2638 1.524 . S
C2639 C2640 1.397 . S
C2639 C2644 1.363 . S
C2640 H2617 0.950 . S
C2640 C2639 1.397 . S
C2640 C2641 1.334 . S
C2641 H2618 0.950 . S
C2641 C2640 1.334 . S
C2641 C2642 1.287 . S
C2642 C2641 1.287 . S
C2642 C2643 1.524 . S
C2642 H2661 0.913 . S
C2643 H2619 0.950 . S
C2643 C2642 1.524 . S
C2643 C2644 1.415 . S
C2644 H2620 0.950 . S
C2644 C2639 1.363 . S
C2644 C2643 1.415 . S
C2645 H2621 0.951 . S
C2645 C2646 1.366 . S
C2645 C2647 1.388 . S
C2646 C2645 1.366 . S
C2646 C2650 1.385 . S
C2647 H2622 0.951 . S
C2647 C2645 1.388 . S
C2647 C2648 1.366 . S
C2648 C2647 1.366 . S
C2648 C2649 1.414 . S
C2648 C2651 1.499 . S
C2649 H2623 0.950 . S
C2649 C2648 1.414 . S
C2649 C2650 1.374 . S
C2650 H2624 0.950 . S
C2650 C2646 1.385 . S
C2650 C2649 1.374 . S
C2651 C2648 1.499 . S
C2651 C2652 1.373 . S
C2651 C2653 1.389 . S
C2652 H2625 0.950 . S
C2652 C2638 1.377 . S
C2652 C2651 1.373 . S
C2653 C2637 1.377 . S
C2653 C2651 1.389 . S
C2653 C2654 1.524 . S
C2654 C2653 1.524 . S
C2654 C2655 1.397 . S
C2654 C2659 1.363 . S
C2655 H2626 0.950 . S
C2655 C2654 1.397 . S
C2655 C2656 1.334 . S
C2656 H2627 0.950 . S
C2656 C2655 1.334 . S
C2656 C2657 1.287 . S
C2657 C2656 1.287 . S
C2657 C2658 1.524 . S
C2657 H2660 0.999 . S
C2658 H2628 0.950 . S
C2658 C2657 1.524 . S
C2658 C2659 1.415 . S
C2659 H2629 0.950 . S
C2659 C2654 1.363 . S
C2659 C2658 1.415 . S
H2660 C2657 0.999 . S
H2661 C2642 0.913 . S
H2662 C2680 0.951 . S
H2663 C2682 0.951 . S
H2664 C2684 0.950 . S
H2665 C2685 0.950 . S
H2666 C2687 0.950 . S
H2667 C2690 0.950 . S
H2668 C2691 0.950 . S
H2669 C2693 0.950 . S
H2670 C2694 0.950 . S
H2671 C2695 0.951 . S
H2672 C2697 0.951 . S
H2673 C2699 0.950 . S
H2674 C2700 0.950 . S
H2675 C2702 0.950 . S
H2676 C2705 0.950 . S
H2677 C2706 0.950 . S
H2678 C2708 0.950 . S
H2679 C2709 0.950 . S
C2680 H2662 0.951 . S
C2680 C2681 1.366 . S
C2680 C2682 1.388 . S
C2681 C2680 1.366 . S
C2681 C2685 1.385 . S
C2682 H2663 0.951 . S
C2682 C2680 1.388 . S
C2682 C2683 1.366 . S
C2683 C2682 1.366 . S
C2683 C2684 1.414 . S
C2683 C2686 1.499 . S
C2684 H2664 0.950 . S
C2684 C2683 1.414 . S
C2684 C2685 1.374 . S
C2685 H2665 0.950 . S
C2685 C2681 1.385 . S
C2685 C2684 1.374 . S
C2686 C2683 1.499 . S
C2686 C2687 1.373 . S
C2686 C2688 1.389 . S
C2687 H2666 0.950 . S
C2687 C2686 1.373 . S
C2687 C2703 1.377 . S
C2688 C2686 1.389 . S
C2688 C2689 1.524 . S
C2688 C2702 1.377 . S
C2689 C2688 1.524 . S
C2689 C2690 1.397 . S
C2689 C2694 1.363 . S
C2690 H2667 0.950 . S
C2690 C2689 1.397 . S
C2690 C2691 1.334 . S
C2691 H2668 0.950 . S
C2691 C2690 1.334 . S
C2691 C2692 1.287 . S
C2692 C2691 1.287 . S
C2692 C2693 1.524 . S
C2692 H2711 0.913 . S
C2693 H2669 0.950 . S
C2693 C2692 1.524 . S
C2693 C2694 1.415 . S
C2694 H2670 0.950 . S
C2694 C2689 1.363 . S
C2694 C2693 1.415 . S
C2695 H2671 0.951 . S
C2695 C2696 1.366 . S
C2695 C2697 1.388 . S
C2696 C2695 1.366 . S
C2696 C2700 1.385 . S
C2697 H2672 0.951 . S
C2697 C2695 1.388 . S
C2697 C2698 1.366 . S
C2698 C2697 1.366 . S
C2698 C2699 1.414 . S
C2698 C2701 1.499 . S
C2699 H2673 0.950 . S
C2699 C2698 1.414 . S
C2699 C2700 1.374 . S
C2700 H2674 0.950 . S
C2700 C2696 1.385 . S
C2700 C2699 1.374 . S
C2701 C2698 1.499 . S
C2701 C2702 1.373 . S
C2701 C2703 1.389 . S
C2702 H2675 0.950 . S
C2702 C2688 1.377 . S
C2702 C2701 1.373 . S
C2703 C2687 1.377 . S
C2703 C2701 1.389 . S
C2703 C2704 1.524 . S
C2704 C2703 1.524 . S
C2704 C2705 1.397 . S
C2704 C2709 1.363 . S
C2705 H2676 0.950 . S
C2705 C2704 1.397 . S
C2705 C2706 1.334 . S
C2706 H2677 0.950 . S
C2706 C2705 1.334 . S
C2706 C2707 1.287 . S
C2707 C2706 1.287 . S
C2707 C2708 1.524 . S
C2707 H2710 0.999 . S
C2708 H2678 0.950 . S
C2708 C2707 1.524 . S
C2708 C2709 1.415 . S
C2709 H2679 0.950 . S
C2709 C2704 1.363 . S
C2709 C2708 1.415 . S
H2710 C2707 0.999 . S
H2711 C2692 0.913 . S
C331 C187 1.997 . S
C346 C4 1.997 . S
C381 C16 1.997 . S
C396 C199 1.997 . S
C431 C239 2.005 . S
C446 C31 2.005 . S
C481 C49 1.978 . S
C496 C173 1.978 . S
C531 C186 1.978 . S
C546 C62 1.978 . S
C581 C68 2.005 . S
C596 C200 2.005 . S
C631 C81 1.997 . S
C646 C238 1.997 . S
C681 C101 1.997 . S
C696 C174 1.997 . S
C731 C120 1.997 . S
C746 C114 1.997 . S
C781 C134 1.978 . S
C796 C127 1.978 . S
C831 C135 1.997 . S
C846 C147 1.997 . S
C881 C148 2.005 . S
C896 C107 2.005 . S
C931 C160 1.997 . S
C946 C42 1.997 . S
C981 C55 1.997 . S
C996 C212 1.997 . S
C1031 C225 1.978 . S
C1046 C23 1.978 . S
C1081 C17 1.120 . S
C1096 C283 1.120 . S
C1131 C121 1.119 . S
C1146 C10 1.119 . S
C1181 C302 1.124 . S
C1196 C44 1.124 . S
C1231 C146 1.138 . S
C1246 C29 1.138 . S
C1281 C276 1.138 . S
C1296 C96 1.138 . S
C1331 C122 1.124 . S
C1346 C83 1.124 . S
C1381 C69 1.119 . S
C1396 C309 1.120 . S
C1431 C56 1.119 . S
C1446 C153 1.119 . S
C1481 C205 1.120 . S
C1496 C257 1.120 . S
C1531 C211 1.138 . S
C1546 C198 1.138 . S
C1581 C179 1.119 . S
C1596 C218 1.119 . S
C1631 C250 1.124 . S
C1646 C172 1.124 . S
C1681 C36 1.119 . S
C1696 C264 1.120 . S
C1731 C140 1.119 . S
C1746 C95 1.119 . S
C1781 C3 1.138 . S
C1796 C289 1.138 . S
C1831 C252 1.997 . S
C1846 C30 1.997 . S
C1881 C5 2.005 . S
C1896 C213 2.005 . S
C1931 C251 1.978 . S
C1946 C88 1.978 . S
C1981 C161 2.005 . S
C1996 C94 2.005 . S
C2031 C75 1.997 . S
C2046 C226 1.997 . S
C2081 C277 1.997 . S
C2096 C263 1.997 . S
C2131 C303 1.978 . S
C2146 C270 1.978 . S
C2181 C290 1.997 . S
C2196 C304 1.997 . S
C2231 C278 2.005 . S
C2246 C291 2.005 . S
C2281 C108 1.119 . S
C2296 C43 1.120 . S
C2331 C18 1.124 . S
C2346 C133 1.124 . S
C2381 C70 1.138 . S
C2396 C109 1.138 . S
C2431 C265 1.124 . S
C2446 C57 1.124 . S
C2481 C82 1.120 . S
C2496 C296 1.119 . S
C2531 C166 1.119 . S
C2546 C192 1.120 . S
C2581 C237 1.138 . S
C2596 C159 1.138 . S
C2631 C231 1.120 . S
C2646 C244 1.119 . S
C2681 C185 1.124 . S
C2696 C224 1.124 . S
