# Generated by pormake.
# Topology wme, (6)-cn, num edge types: 1
# Building blocks:
#     Node 0, Type 0, BuildingBlock: VOLQOD_clean_sbu_1, # of connection points: 6
#     Node 1, Type 0, BuildingBlock: VOLQOD_clean_sbu_1, # of connection points: 6
#     Node 2, Type 0, BuildingBlock: VOLQOD_clean_sbu_1, # of connection points: 6
#     Node 3, Type 0, BuildingBlock: VOLQOD_clean_sbu_1, # of connection points: 6
#     Node 4, Type 0, BuildingBlock: VOLQOD_clean_sbu_1, # of connection points: 6
#     Node 5, Type 0, BuildingBlock: VOLQOD_clean_sbu_1, # of connection points: 6
#     Node 6, Type 0, BuildingBlock: VOLQOD_clean_sbu_1, # of connection points: 6
#     Node 7, Type 0, BuildingBlock: VOLQOD_clean_sbu_1, # of connection points: 6
#     Node 8, Type 0, BuildingBlock: VOLQOD_clean_sbu_1, # of connection points: 6
#     Node 9, Type 0, BuildingBlock: VOLQOD_clean_sbu_1, # of connection points: 6
#     Node 10, Type 0, BuildingBlock: VOLQOD_clean_sbu_1, # of connection points: 6
#     Node 11, Type 0, BuildingBlock: VOLQOD_clean_sbu_1, # of connection points: 6
#     Edge 12, Type (0, 0), BuildingBlock: UVAHIK_clean_linker_0, # of connection points: 2
#     Edge 13, Type (0, 0), BuildingBlock: UVAHIK_clean_linker_0, # of connection points: 2
#     Edge 14, Type (0, 0), BuildingBlock: UVAHIK_clean_linker_0, # of connection points: 2
#     Edge 15, Type (0, 0), BuildingBlock: UVAHIK_clean_linker_0, # of connection points: 2
#     Edge 16, Type (0, 0), BuildingBlock: UVAHIK_clean_linker_0, # of connection points: 2
#     Edge 17, Type (0, 0), BuildingBlock: UVAHIK_clean_linker_0, # of connection points: 2
#     Edge 18, Type (0, 0), BuildingBlock: UVAHIK_clean_linker_0, # of connection points: 2
#     Edge 19, Type (0, 0), BuildingBlock: UVAHIK_clean_linker_0, # of connection points: 2
#     Edge 20, Type (0, 0), BuildingBlock: UVAHIK_clean_linker_0, # of connection points: 2
#     Edge 21, Type (0, 0), BuildingBlock: UVAHIK_clean_linker_0, # of connection points: 2
#     Edge 22, Type (0, 0), BuildingBlock: UVAHIK_clean_linker_0, # of connection points: 2
#     Edge 23, Type (0, 0), BuildingBlock: UVAHIK_clean_linker_0, # of connection points: 2
#     Edge 24, Type (0, 0), BuildingBlock: UVAHIK_clean_linker_0, # of connection points: 2
#     Edge 25, Type (0, 0), BuildingBlock: UVAHIK_clean_linker_0, # of connection points: 2
#     Edge 26, Type (0, 0), BuildingBlock: UVAHIK_clean_linker_0, # of connection points: 2
#     Edge 27, Type (0, 0), BuildingBlock: UVAHIK_clean_linker_0, # of connection points: 2
#     Edge 28, Type (0, 0), BuildingBlock: UVAHIK_clean_linker_0, # of connection points: 2
#     Edge 29, Type (0, 0), BuildingBlock: UVAHIK_clean_linker_0, # of connection points: 2
#     Edge 30, Type (0, 0), BuildingBlock: UVAHIK_clean_linker_0, # of connection points: 2
#     Edge 31, Type (0, 0), BuildingBlock: UVAHIK_clean_linker_0, # of connection points: 2
#     Edge 32, Type (0, 0), BuildingBlock: UVAHIK_clean_linker_0, # of connection points: 2
#     Edge 33, Type (0, 0), BuildingBlock: UVAHIK_clean_linker_0, # of connection points: 2
#     Edge 34, Type (0, 0), BuildingBlock: UVAHIK_clean_linker_0, # of connection points: 2
#     Edge 35, Type (0, 0), BuildingBlock: UVAHIK_clean_linker_0, # of connection points: 2
#     Edge 36, Type (0, 0), BuildingBlock: UVAHIK_clean_linker_0, # of connection points: 2
#     Edge 37, Type (0, 0), BuildingBlock: UVAHIK_clean_linker_0, # of connection points: 2
#     Edge 38, Type (0, 0), BuildingBlock: UVAHIK_clean_linker_0, # of connection points: 2
#     Edge 39, Type (0, 0), BuildingBlock: UVAHIK_clean_linker_0, # of connection points: 2
#     Edge 40, Type (0, 0), BuildingBlock: UVAHIK_clean_linker_0, # of connection points: 2
#     Edge 41, Type (0, 0), BuildingBlock: UVAHIK_clean_linker_0, # of connection points: 2
#     Edge 42, Type (0, 0), BuildingBlock: UVAHIK_clean_linker_0, # of connection points: 2
#     Edge 43, Type (0, 0), BuildingBlock: UVAHIK_clean_linker_0, # of connection points: 2
#     Edge 44, Type (0, 0), BuildingBlock: UVAHIK_clean_linker_0, # of connection points: 2
#     Edge 45, Type (0, 0), BuildingBlock: UVAHIK_clean_linker_0, # of connection points: 2
#     Edge 46, Type (0, 0), BuildingBlock: UVAHIK_clean_linker_0, # of connection points: 2
#     Edge 47, Type (0, 0), BuildingBlock: UVAHIK_clean_linker_0, # of connection points: 2
# Relax obj value: 0.330
# Max RMSD: 0.236
# Mean RMSD: 0.236
data_MOF--net-wme--node1-VOLQOD_clean_sbu_1--edge1-UVAHIK_clean_linker_0
_symmetry_space_group_name_H-M    P1
_symmetry_Int_Tables_number       1
_symmetry_cell_setting            triclinic
loop_
_symmetry_equiv_pos_as_xyz
'x, y, z'
_cell_length_a     39.080585
_cell_length_b     39.026578
_cell_length_c     82.081527
_cell_angle_alpha  89.977807
_cell_angle_beta   89.987391
_cell_angle_gamma 119.89908
loop_
_atom_site_label
_atom_site_type_symbol
_atom_site_fract_x
_atom_site_fract_y
_atom_site_fract_z
_atom_type_partial_charge
O0 O 0.21327 0.37805 0.10771 0.0
Zn1 Zn 0.21879 0.33075 0.10225 0.0
O2 O 0.24732 0.31992 0.11923 0.0
Zn3 Zn 0.29391 0.32149 0.10993 0.0
Zn4 Zn 0.26236 0.35928 0.13598 0.0
Zn5 Zn 0.21372 0.26943 0.1294 0.0
O6 O 0.29372 0.26994 0.11366 0.0
O7 O 0.234 0.23297 0.12453 0.0
O8 O 0.24332 0.33676 0.08004 0.0
O9 O 0.29324 0.32686 0.08575 0.0
O10 O 0.34367 0.37043 0.11747 0.0
O11 O 0.31944 0.39872 0.1338 0.0
O12 O 0.25223 0.33658 0.15845 0.0
O13 O 0.16231 0.28694 0.10146 0.0
O14 O 0.21229 0.27289 0.15379 0.0
O15 O 0.15817 0.24687 0.12152 0.0
C16 C 0.21454 0.39299 0.12163 0.0
C17 C 0.26618 0.23691 0.11899 0.0
C18 C 0.34836 0.39909 0.12649 0.0
C19 C 0.27269 0.33338 0.07553 0.0
C20 C 0.23013 0.30159 0.16364 0.0
C21 C 0.14212 0.25663 0.11033 0.0
O22 O 0.23018 0.38605 0.13386 0.0
O23 O 0.81682 0.20149 0.59931 0.0
Zn24 Zn 0.87158 0.2099 0.59652 0.0
O25 O 0.9055 0.23944 0.61496 0.0
Zn26 Zn 0.95161 0.28785 0.60716 0.0
Zn27 Zn 0.87614 0.25268 0.6302 0.0
Zn28 Zn 0.92184 0.20657 0.62643 0.0
O29 O 0.00239 0.28715 0.61173 0.0
O30 O 0.97961 0.22888 0.624 0.0
O31 O 0.8941 0.23725 0.57513 0.0
O32 O 0.94845 0.29164 0.58297 0.0
O33 O 0.95249 0.33684 0.61598 0.0
O34 O 0.89756 0.3107 0.63079 0.0
O35 O 0.87691 0.23427 0.65283 0.0
O36 O 0.86186 0.15429 0.59583 0.0
O37 O 0.90969 0.20188 0.65035 0.0
O38 O 0.89303 0.1512 0.61786 0.0
C39 C 0.80003 0.20791 0.61126 0.0
C40 C 0.008 0.26077 0.61833 0.0
C41 C 0.9279 0.34059 0.62494 0.0
C42 C 0.92482 0.27011 0.57185 0.0
C43 C 0.89103 0.21412 0.65904 0.0
C44 C 0.87064 0.13468 0.60568 0.0
O45 O 0.81941 0.22652 0.62382 0.0
O46 O 0.60511 0.82757 0.09914 0.0
Zn47 Zn 0.65299 0.88173 0.09765 0.0
O48 O 0.65734 0.91414 0.11667 0.0
Zn49 Zn 0.65714 0.96191 0.10964 0.0
Zn50 Zn 0.61364 0.88391 0.13127 0.0
Zn51 Zn 0.70548 0.9283 0.12849 0.0
O52 O 0.70705 0.01136 0.11647 0.0
O53 O 0.74217 0.98625 0.12716 0.0
O54 O 0.6529 0.9083 0.07655 0.0
O55 O 0.65731 0.96419 0.08536 0.0
O56 O 0.60763 0.96182 0.1171 0.0
O57 O 0.57818 0.90662 0.13182 0.0
O58 O 0.63086 0.88268 0.15409 0.0
O59 O 0.69721 0.86946 0.09737 0.0
O60 O 0.69599 0.91418 0.15219 0.0
O61 O 0.73118 0.89884 0.11969 0.0
C62 C 0.58184 0.80954 0.11093 0.0
C63 C 0.73882 0.0157 0.12273 0.0
C64 C 0.57906 0.93718 0.12593 0.0
C65 C 0.65538 0.94161 0.0738 0.0
C66 C 0.66461 0.89569 0.16057 0.0
C67 C 0.72499 0.87681 0.10733 0.0
O68 O 0.58288 0.82755 0.12401 0.0
O69 O 0.75564 0.59759 0.60414 0.0
Zn70 Zn 0.74632 0.64315 0.60108 0.0
O71 O 0.72118 0.65162 0.62004 0.0
Zn72 Zn 0.6713 0.64813 0.61346 0.0
Zn73 Zn 0.71185 0.61174 0.6362 0.0
Zn74 Zn 0.75593 0.70298 0.62962 0.0
O75 O 0.67047 0.69854 0.61876 0.0
O76 O 0.731 0.73645 0.62862 0.0
O77 O 0.71577 0.63642 0.58055 0.0
O78 O 0.66529 0.64265 0.58919 0.0
O79 O 0.62471 0.59924 0.62307 0.0
O80 O 0.65427 0.5749 0.63859 0.0
O81 O 0.73449 0.63495 0.65791 0.0
O82 O 0.80098 0.68863 0.59814 0.0
O83 O 0.76832 0.69933 0.65311 0.0
O84 O 0.80787 0.73041 0.61791 0.0
C85 C 0.75325 0.57729 0.61665 0.0
C86 C 0.69745 0.73138 0.62444 0.0
C87 C 0.62317 0.57309 0.63284 0.0
C88 C 0.68443 0.63778 0.57774 0.0
C89 C 0.75727 0.67013 0.66272 0.0
C90 C 0.82162 0.72087 0.60577 0.0
O91 O 0.73793 0.58049 0.62983 0.0
O92 O 0.15036 0.76591 0.10378 0.0
Zn93 Zn 0.09522 0.75603 0.10036 0.0
O94 O 0.06108 0.72926 0.11909 0.0
Zn95 Zn 0.0152 0.67932 0.11218 0.0
Zn96 Zn 0.09081 0.71889 0.1351 0.0
Zn97 Zn 0.04461 0.76355 0.12928 0.0
O98 O 0.96418 0.67937 0.11684 0.0
O99 O 0.98653 0.7397 0.12709 0.0
O100 O 0.0726 0.72568 0.07962 0.0
O101 O 0.01656 0.67381 0.08793 0.0
O102 O 0.01607 0.63172 0.12203 0.0
O103 O 0.07109 0.66159 0.13668 0.0
O104 O 0.08818 0.73833 0.15723 0.0
O105 O 0.10377 0.81093 0.09777 0.0
O106 O 0.0575 0.77231 0.15319 0.0
O107 O 0.07215 0.81726 0.11897 0.0
C108 C 0.16729 0.76239 0.11639 0.0
C109 C 0.95827 0.70647 0.12244 0.0
C110 C 0.04148 0.63029 0.13134 0.0
C111 C 0.04071 0.69365 0.07664 0.0
C112 C 0.07485 0.75992 0.16259 0.0
C113 C 0.09431 0.83179 0.10654 0.0
O114 O 0.14786 0.74584 0.12924 0.0
O115 O 0.37012 0.14696 0.60589 0.0
Zn116 Zn 0.32348 0.09352 0.60149 0.0
O117 O 0.31562 0.05637 0.61912 0.0
Zn118 Zn 0.31512 0.00988 0.60993 0.0
Zn119 Zn 0.35796 0.08158 0.6348 0.0
Zn120 Zn 0.26659 0.04134 0.63057 0.0
O121 O 0.26312 0.96044 0.6142 0.0
O122 O 0.2295 0.98361 0.62776 0.0
O123 O 0.32934 0.07384 0.57956 0.0
O124 O 0.31994 0.01435 0.58568 0.0
O125 O 0.36212 0.00553 0.61757 0.0
O126 O 0.39181 0.05705 0.63428 0.0
O127 O 0.33872 0.07914 0.65754 0.0
O128 O 0.27858 0.10451 0.60055 0.0
O129 O 0.27424 0.05332 0.65457 0.0
O130 O 0.24171 0.07189 0.62185 0.0
C131 C 0.39302 0.16118 0.6181 0.0
C132 C 0.23189 0.95524 0.62129 0.0
C133 C 0.39028 0.02734 0.62718 0.0
C134 C 0.32615 0.04101 0.57528 0.0
C135 C 0.30485 0.0683 0.66353 0.0
C136 C 0.24927 0.09537 0.60988 0.0
O137 O 0.39116 0.13937 0.62998 0.0
O138 O 0.61833 0.78177 0.3815 0.0
Zn139 Zn 0.66403 0.77296 0.38463 0.0
O140 O 0.66794 0.74228 0.36662 0.0
Zn141 Zn 0.66893 0.696 0.37523 0.0
Zn142 Zn 0.62333 0.72589 0.35215 0.0
Zn143 Zn 0.71529 0.77521 0.35417 0.0
O144 O 0.72066 0.69812 0.36991 0.0
O145 O 0.75283 0.75516 0.35649 0.0
O146 O 0.65884 0.74683 0.40629 0.0
O147 O 0.66515 0.69512 0.39958 0.0
O148 O 0.62087 0.6451 0.36783 0.0
O149 O 0.58814 0.66776 0.35337 0.0
O150 O 0.6396 0.74009 0.32894 0.0
O151 O 0.70988 0.82851 0.38491 0.0
O152 O 0.70467 0.77652 0.33033 0.0
O153 O 0.74092 0.83133 0.3619 0.0
C154 C 0.59397 0.774 0.36991 0.0
C155 C 0.75137 0.7245 0.36262 0.0
C156 C 0.59083 0.63928 0.35954 0.0
C157 C 0.66048 0.71613 0.41023 0.0
C158 C 0.67289 0.76102 0.3221 0.0
C159 C 0.73645 0.84809 0.37436 0.0
O160 O 0.59293 0.75316 0.35781 0.0
O161 O 0.83234 0.61849 0.88055 0.0
Zn162 Zn 0.88658 0.66408 0.88424 0.0
O163 O 0.92129 0.67163 0.86583 0.0
Zn164 Zn 0.9686 0.67119 0.87352 0.0
Zn165 Zn 0.89303 0.62983 0.8502 0.0
Zn166 Zn 0.9354 0.72105 0.85499 0.0
O167 O 0.01793 0.72385 0.86918 0.0
O168 O -0.00725 0.75811 0.85766 0.0
O169 O 0.90806 0.65618 0.90522 0.0
O170 O 0.96604 0.6636 0.89779 0.0
O171 O 0.97184 0.62487 0.86389 0.0
O172 O 0.91617 0.59491 0.84956 0.0
O173 O 0.89598 0.65023 0.82765 0.0
O174 O 0.87646 0.70944 0.88641 0.0
O175 O 0.92444 0.71497 0.83096 0.0
O176 O 0.90477 0.74507 0.86427 0.0
C177 C 0.81572 0.59651 0.86829 0.0
C178 C 0.02201 0.75568 0.86303 0.0
C179 C 0.94746 0.59646 0.85491 0.0
C180 C 0.9404 0.6574 0.90869 0.0
C181 C 0.90869 0.68465 0.82183 0.0
C182 C 0.8834 0.73799 0.87692 0.0
O183 O 0.8354 0.59818 0.85567 0.0
O184 O 0.22567 0.83848 0.37666 0.0
Zn185 Zn 0.2342 0.89289 0.38037 0.0
O186 O 0.26353 0.92828 0.36232 0.0
Zn187 Zn 0.31138 0.97367 0.3708 0.0
Zn188 Zn 0.27713 0.90009 0.34652 0.0
Zn189 Zn 0.23101 0.94592 0.35136 0.0
O190 O 0.31123 0.02459 0.36697 0.0
O191 O 0.25356 0.00379 0.35452 0.0
O192 O 0.26053 0.91369 0.40205 0.0
O193 O 0.31363 0.97006 0.39505 0.0
O194 O 0.36039 0.97523 0.362 0.0
O195 O 0.33532 0.92224 0.34601 0.0
O196 O 0.25847 0.90238 0.32406 0.0
O197 O 0.179 0.88365 0.38138 0.0
O198 O 0.22587 0.93476 0.32738 0.0
O199 O 0.17572 0.91703 0.36013 0.0
C200 C 0.23214 0.82229 0.3645 0.0
C201 C 0.28545 0.03127 0.36057 0.0
C202 C 0.36478 0.95196 0.35245 0.0
C203 C 0.29207 0.94528 0.40584 0.0
C204 C 0.23803 0.91667 0.3183 0.0
C205 C 0.15943 0.8937 0.3721 0.0
O206 O 0.25104 0.8424 0.3521 0.0
O207 O 0.37575 0.22836 0.87859 0.0
Zn208 Zn 0.33012 0.23782 0.88104 0.0
O209 O 0.32553 0.26675 0.86252 0.0
Zn210 Zn 0.32799 0.31533 0.87036 0.0
Zn211 Zn 0.36826 0.27903 0.8474 0.0
Zn212 Zn 0.27615 0.23419 0.85112 0.0
O213 O 0.27902 0.31743 0.8641 0.0
O214 O 0.24195 0.25859 0.85256 0.0
O215 O 0.33418 0.26496 0.90226 0.0
O216 O 0.32938 0.31712 0.89484 0.0
O217 O 0.37809 0.36351 0.86261 0.0
O218 O 0.40544 0.33699 0.84704 0.0
O219 O 0.34916 0.26052 0.82474 0.0
O220 O 0.28377 0.18303 0.88208 0.0
O221 O 0.28415 0.22741 0.82742 0.0
O222 O 0.24798 0.17938 0.86049 0.0
C223 C 0.39869 0.23355 0.86669 0.0
C224 C 0.24684 0.29165 0.85753 0.0
C225 C 0.40602 0.36695 0.85346 0.0
C226 C 0.33252 0.29583 0.90582 0.0
C227 C 0.31492 0.23956 0.81868 0.0
C228 C 0.2543 0.1634 0.87279 0.0
O229 O 0.39825 0.25177 0.8539 0.0
O230 O 0.16465 0.3829 0.38192 0.0
Zn231 Zn 0.10929 0.33813 0.38451 0.0
O232 O 0.07699 0.33068 0.36523 0.0
Zn233 Zn 0.0309 0.3352 0.37135 0.0
Zn234 Zn 0.10881 0.3706 0.34928 0.0
Zn235 Zn 0.06021 0.27921 0.35566 0.0
O236 O 0.97961 0.28508 0.36594 0.0
O237 O 0.00182 0.24665 0.3561 0.0
O238 O 0.0848 0.34516 0.40473 0.0
O239 O 0.02985 0.34199 0.39558 0.0
O240 O 0.03416 0.38409 0.36124 0.0
O241 O 0.08944 0.40878 0.34667 0.0
O242 O 0.10919 0.34736 0.32762 0.0
O243 O 0.11729 0.29198 0.38773 0.0
O244 O 0.07759 0.28292 0.33237 0.0
O245 O 0.08339 0.2508 0.3677 0.0
C246 C 0.18334 0.40307 0.36951 0.0
C247 C 0.97354 0.2522 0.36015 0.0
C248 C 0.0598 0.4107 0.35193 0.0
C249 C 0.05291 0.34567 0.40723 0.0
C250 C 0.09667 0.31209 0.32285 0.0
C251 C 0.10583 0.25979 0.38008 0.0
O252 O 0.16559 0.40044 0.35618 0.0
O253 O 0.77081 0.17706 0.87708 0.0
Zn254 Zn 0.76898 0.12557 0.8819 0.0
O255 O 0.74217 0.08687 0.86461 0.0
Zn256 Zn 0.69518 0.04084 0.87269 0.0
Zn257 Zn 0.72856 0.11155 0.84782 0.0
Zn258 Zn 0.77699 0.07097 0.85527 0.0
O259 O 0.69747 0.99036 0.86915 0.0
O260 O 0.76181 0.0178 0.86385 0.0
O261 O 0.74447 0.10381 0.90387 0.0
O262 O 0.6943 0.04514 0.8969 0.0
O263 O 0.64567 0.03998 0.86454 0.0
O264 O 0.6715 0.09445 0.8493 0.0
O265 O 0.73953 0.09821 0.82576 0.0
O266 O 0.82692 0.14253 0.8823 0.0
O267 O 0.77533 0.06974 0.83068 0.0
O268 O 0.83253 0.10913 0.86159 0.0
C269 C 0.77401 0.1918 0.86294 0.0
C270 C 0.72885 0.98812 0.86784 0.0
C271 C 0.64188 0.06503 0.85585 0.0
C272 C 0.71468 0.07066 0.90768 0.0
C273 C 0.759 0.08219 0.82072 0.0
C274 C 0.84805 0.13518 0.8727 0.0
O275 O 0.76179 0.1701 0.8503 0.0
C276 C 0.11219 0.8995 0.11587 0.0
C277 C 0.11479 0.87505 0.10395 0.0
C278 C 0.13763 0.94021 0.11547 0.0
C279 C 0.21703 0.01543 0.11824 0.0
H280 H 0.22207 0.08576 0.08379 0.0
C281 C 0.25142 0.17179 0.12972 0.0
C282 C 0.26931 0.20102 0.11772 0.0
C283 C 0.24516 0.13391 0.12703 0.0
C284 C 0.22197 0.0665 0.09331 0.0
H285 H 0.14404 0.87465 0.0815 0.0
H286 H 0.18792 0.94646 0.08063 0.0
H287 H 0.18262 0.01413 0.07995 0.0
H288 H 0.29722 0.21477 0.09398 0.0
H289 H 0.28589 0.14779 0.08914 0.0
H290 H 0.2552 0.06734 0.13185 0.0
C291 C 0.16658 0.93362 0.09041 0.0
C292 C 0.19916 0.02558 0.09114 0.0
C293 C 0.14139 0.89264 0.09091 0.0
C294 C 0.28359 0.19266 0.10345 0.0
C295 C 0.2768 0.15436 0.10063 0.0
C296 C 0.24009 0.05615 0.12035 0.0
C297 C 0.1658 0.95743 0.10303 0.0
C298 C 0.19518 -8e-05 0.10389 0.0
C299 C 0.25628 0.12431 0.11219 0.0
C300 C 0.24128 0.08214 0.10823 0.0
H301 H 0.09199 0.88709 0.12605 0.0
H302 H 0.13604 0.95822 0.12516 0.0
H303 H 0.21494 -0.00398 0.12811 0.0
H304 H 0.24017 0.17761 0.14082 0.0
H305 H 0.22888 0.11145 0.13612 0.0
C306 C 0.20163 0.11475 0.62071 0.0
C307 C 0.22719 0.11686 0.60821 0.0
C308 C 0.18593 0.13991 0.62066 0.0
C309 C 0.18314 0.21582 0.62325 0.0
H310 H 0.12295 0.222 0.58698 0.0
C311 C 0.05722 0.24654 0.63081 0.0
C312 C 0.04741 0.26465 0.61833 0.0
C313 C 0.08971 0.24123 0.62923 0.0
C314 C 0.14064 0.22158 0.59705 0.0
H315 H 0.25441 0.14551 0.58534 0.0
H316 H 0.22597 0.18895 0.58513 0.0
H317 H 0.1573 0.18443 0.58408 0.0
H318 H 0.06536 0.2942 0.59496 0.0
H319 H 0.12255 0.28463 0.59209 0.0
H320 H 0.1656 0.2518 0.63642 0.0
C321 C 0.21875 0.16813 0.59505 0.0
C322 C 0.16003 0.19982 0.59541 0.0
C323 C 0.23488 0.1432 0.59518 0.0
C324 C 0.07248 0.28027 0.60478 0.0
C325 C 0.10492 0.27449 0.60308 0.0
C326 C 0.16408 0.23777 0.62485 0.0
C327 C 0.19507 0.16743 0.60804 0.0
C328 C 0.18002 0.19544 0.60873 0.0
C329 C 0.11292 0.2536 0.61504 0.0
C330 C 0.1412 0.23945 0.61201 0.0
H331 H 0.19498 0.09482 0.63093 0.0
H332 H 0.167 0.13822 0.63064 0.0
H333 H 0.19919 0.21359 0.63358 0.0
H334 H 0.03839 0.23439 0.64141 0.0
H335 H 0.09473 0.2247 0.6386 0.0
C336 C 0.78199 0.08327 0.11127 0.0
C337 C 0.77426 0.0551 0.12348 0.0
C338 C 0.81968 0.11645 0.10981 0.0
C339 C 0.91736 0.17167 0.13033 0.0
H340 H 0.95971 0.17375 0.08734 0.0
C341 C 0.07952 0.24715 0.09765 0.0
C342 C 0.09857 0.23584 0.10925 0.0
C343 C 0.0387 0.23194 0.09841 0.0
C344 C 0.94821 0.17408 0.09932 0.0
H345 H 0.79813 0.04118 0.14467 0.0
H346 H 0.86336 0.0988 0.14227 0.0
H347 H 0.88831 0.13869 0.09152 0.0
H348 H 0.08932 0.19818 0.13022 0.0
H349 H 0.01844 0.17184 0.13146 0.0
H350 H 0.97733 0.20493 0.13832 0.0
C351 C 0.84078 0.09559 0.13375 0.0
C352 C 0.90737 0.15427 0.10171 0.0
C353 C 0.80346 0.06237 0.13508 0.0
C354 C 0.07573 0.2077 0.12112 0.0
C355 C 0.03517 0.1929 0.12197 0.0
C356 C 0.95807 0.19119 0.12797 0.0
C357 C 0.8498 0.12208 0.12071 0.0
C358 C 0.89163 0.15145 0.11739 0.0
C359 C 0.01646 0.20558 0.11088 0.0
C360 C 0.9738 0.19112 0.11259 0.0
H361 H 0.75992 0.07823 0.10215 0.0
H362 H 0.82581 0.1366 0.09972 0.0
H363 H 0.90602 0.17054 0.14249 0.0
H364 H 0.09625 0.26874 0.08833 0.0
H365 H 0.02478 0.24186 0.08964 0.0
C366 C 0.67521 0.77428 0.611 0.0
C367 C 0.69266 0.76643 0.62437 0.0
C368 C 0.68156 0.81251 0.60848 0.0
C369 C 0.73608 0.89889 0.59945 0.0
H370 H 0.75422 0.97376 0.634 0.0
C371 C 0.85277 0.06873 0.61729 0.0
C372 C 0.84908 0.09101 0.60466 0.0
C373 C 0.82674 0.02821 0.61837 0.0
C374 C 0.74914 0.95314 0.62422 0.0
H375 H 0.72652 0.79058 0.64646 0.0
H376 H 0.73716 0.85668 0.64227 0.0
H377 H 0.71352 0.90308 0.63929 0.0
H378 H 0.81695 0.08751 0.58255 0.0
H379 H 0.77195 0.01612 0.58431 0.0
H380 H 0.77286 0.94924 0.58454 0.0
C381 C 0.71878 0.83388 0.63364 0.0
C382 C 0.72576 0.91276 0.62722 0.0
C383 C 0.71285 0.796 0.63604 0.0
C384 C 0.82054 0.07126 0.59246 0.0
C385 C 0.79467 0.03047 0.59348 0.0
C386 C 0.75925 0.93941 0.5964 0.0
C387 C 0.70494 0.84307 0.61943 0.0
C388 C 0.72041 0.88515 0.61509 0.0
C389 C 0.79674 0.00895 0.60677 0.0
C390 C 0.76729 0.96671 0.60898 0.0
H391 H 0.65969 0.75194 0.60178 0.0
H392 H 0.67018 0.81868 0.59751 0.0
H393 H 0.73287 0.87839 0.58988 0.0
H394 H 0.8745 0.08282 0.62684 0.0
H395 H 0.82949 0.012 0.62853 0.0
C396 C 0.90847 0.72104 0.13403 0.0
C397 C 0.91854 0.70177 0.12216 0.0
C398 C 0.8759 0.72599 0.13183 0.0
C399 C 0.82677 0.74319 0.09832 0.0
H400 H 0.76796 0.75598 0.13354 0.0
C401 C 0.77125 0.85637 0.11876 0.0
C402 C 0.74617 0.85434 0.10607 0.0
C403 C 0.78543 0.82997 0.11935 0.0
C404 C 0.78402 0.75234 0.12356 0.0
H405 H 0.90096 0.66971 0.09934 0.0
H406 H 0.84371 0.67871 0.09537 0.0
H407 H 0.79974 0.71649 0.13788 0.0
H408 H 0.71844 0.82454 0.08346 0.0
H409 H 0.74432 0.77891 0.08435 0.0
H410 H 0.81212 0.7804 0.08422 0.0
C411 C 0.86112 0.68997 0.10637 0.0
C412 C 0.80205 0.72965 0.12601 0.0
C413 C 0.8936 0.68453 0.10869 0.0
C414 C 0.73765 0.82686 0.09342 0.0
C415 C 0.75227 0.80064 0.09394 0.0
C416 C 0.80843 0.76569 0.09582 0.0
C417 C 0.85295 0.71214 0.11762 0.0
C418 C 0.82516 0.72638 0.11367 0.0
C419 C 0.77523 0.80122 0.10719 0.0
C420 C 0.78845 0.77187 0.10867 0.0
H421 H 0.92725 0.73449 0.14453 0.0
H422 H 0.87072 0.74351 0.14068 0.0
H423 H 0.84464 0.74151 0.0886 0.0
H424 H 0.77861 0.87719 0.12868 0.0
H425 H 0.80391 0.83161 0.1295 0.0
C426 C 0.88546 0.78444 0.60654 0.0
C427 C 0.86415 0.74435 0.60231 0.0
C428 C 0.92662 0.80451 0.60645 0.0
C429 C 0.0149 0.79534 0.5957 0.0
H430 H 0.05931 0.86752 0.63208 0.0
C431 C 0.17008 0.90147 0.63313 0.0
C432 C 0.1953 0.91734 0.61971 0.0
C433 C 0.13071 0.87263 0.63085 0.0
C434 C 0.04752 0.84677 0.62207 0.0
H435 H 0.86886 0.69428 0.59376 0.0
H436 H 0.94047 0.72861 0.59433 0.0
H437 H 0.98941 0.83544 0.6271 0.0
H438 H 0.20066 0.91409 0.5936 0.0
H439 H 0.1315 0.86547 0.5894 0.0
H440 H 0.07313 0.80534 0.59125 0.0
C441 C 0.92578 0.7451 0.59729 0.0
C442 C 0.00729 0.82911 0.61892 0.0
C443 C 0.88461 0.72532 0.59699 0.0
C444 C 0.18164 0.90182 0.60414 0.0
C445 C 0.14191 0.87389 0.60177 0.0
C446 C 0.05524 0.8125 0.59905 0.0
C447 C 0.94727 0.78454 0.60261 0.0
C448 C 0.99046 0.80359 0.60557 0.0
C449 C 0.11552 0.8605 0.61502 0.0
C450 C 0.07214 0.83874 0.61222 0.0
H451 H 0.87031 0.79986 0.61051 0.0
H452 H 0.9422 0.8353 0.61003 0.0
H453 H 0.00306 0.77596 0.58526 0.0
H454 H 0.18024 0.91303 0.64526 0.0
H455 H 0.11166 0.86179 0.64142 0.0
C456 C 0.09686 0.84616 0.38652 0.0
C457 C 0.11598 0.87318 0.37375 0.0
C458 C 0.05584 0.82174 0.38645 0.0
C459 C 0.96566 0.79019 0.3858 0.0
H460 H 0.92098 0.74096 0.34421 0.0
C461 C 0.79808 0.70679 0.3759 0.0
C462 C 0.78795 0.72241 0.36253 0.0
C463 C 0.83673 0.71386 0.37757 0.0
C464 C 0.933 0.75427 0.35593 0.0
H465 H 0.10668 0.8972 0.35139 0.0
H466 H 0.03534 0.85468 0.35134 0.0
H467 H -0.00753 0.77971 0.3474 0.0
H468 H 0.80868 0.75412 0.33971 0.0
H469 H 0.87552 0.76616 0.3425 0.0
H470 H 0.90619 0.7666 0.39409 0.0
C471 C 0.05219 0.85204 0.36125 0.0
C472 C 0.97385 0.77653 0.35773 0.0
C473 C 0.09303 0.87667 0.36139 0.0
C474 C 0.81584 0.74196 0.35018 0.0
C475 C 0.85412 0.74862 0.35175 0.0
C476 C 0.92468 0.76812 0.38397 0.0
C477 C 0.03337 0.82368 0.37354 0.0
C478 C 0.99047 0.79582 0.37249 0.0
C479 C 0.86545 0.73611 0.36577 0.0
C480 C 0.90797 0.75116 0.36882 0.0
H481 H 0.11367 0.84279 0.39626 0.0
H482 H 0.0419 0.80025 0.39612 0.0
H483 H 0.97784 0.80472 0.39732 0.0
H484 H 0.77708 0.69171 0.38561 0.0
H485 H 0.84459 0.70355 0.38842 0.0
C486 C 0.0854 0.80214 0.87686 0.0
C487 C 0.06057 0.79213 0.86322 0.0
C488 C 0.11655 0.8409 0.8788 0.0
C489 C 0.14781 0.92865 0.88527 0.0
H490 H 0.20602 -0.00242 0.84926 0.0
C491 C 0.20549 0.09662 0.86225 0.0
C492 C 0.23106 0.12001 0.87473 0.0
C493 C 0.18983 0.05579 0.86231 0.0
C494 C 0.19 0.97863 0.85944 0.0
H495 H 0.05074 0.81304 0.84022 0.0
H496 H 0.10495 0.88008 0.84343 0.0
H497 H 0.17543 0.92614 0.84604 0.0
H498 H 0.25778 0.11849 0.89773 0.0
H499 H 0.22948 0.04673 0.89794 0.0
H500 H 0.16159 0.98142 0.89847 0.0
C501 C 0.10069 0.85854 0.85269 0.0
C502 C 0.1727 0.93784 0.85763 0.0
C503 C 0.06945 0.82016 0.85088 0.0
C504 C 0.23831 0.10132 0.88789 0.0
C505 C 0.22226 0.06032 0.88802 0.0
C506 C 0.16546 0.9696 0.88712 0.0
C507 C 0.12349 0.86979 0.86699 0.0
C508 C 0.15002 0.91237 0.87028 0.0
C509 C 0.19905 0.03746 0.87493 0.0
C510 C 0.18529 0.99475 0.87398 0.0
H511 H 0.07893 0.78096 0.88658 0.0
H512 H 0.13391 0.84876 0.88988 0.0
H513 H 0.13021 0.90979 0.89519 0.0
H514 H 0.19912 0.10994 0.85197 0.0
H515 H 0.17122 0.03859 0.85226 0.0
C516 C 0.10683 0.19646 0.37888 0.0
C517 C 0.12473 0.23614 0.3837 0.0
C518 C 0.12844 0.17682 0.37885 0.0
C519 C 0.22614 0.18675 0.38975 0.0
H520 H 0.20237 0.11991 0.35172 0.0
C521 C 0.27983 0.08742 0.34978 0.0
C522 C 0.28823 0.06973 0.36283 0.0
C523 C 0.26927 0.11612 0.35271 0.0
C524 C 0.21024 0.13923 0.3622 0.0
H525 H 0.17825 0.28566 0.39334 0.0
H526 H 0.21641 0.25218 0.39256 0.0
H527 H 0.16267 0.14965 0.35758 0.0
H528 H 0.29549 0.06977 0.38896 0.0
H529 H 0.2749 0.11808 0.39426 0.0
H530 H 0.27517 0.17774 0.3938 0.0
C531 C 0.18555 0.23565 0.3892 0.0
C532 C 0.18656 0.15547 0.36584 0.0
C533 C 0.16363 0.25495 0.38961 0.0
C534 C 0.28949 0.0835 0.37871 0.0
C535 C 0.27762 0.11124 0.38171 0.0
C536 C 0.25043 0.17105 0.38591 0.0
C537 C 0.16869 0.19688 0.38316 0.0
C538 C 0.19378 0.179 0.37977 0.0
C539 C 0.26518 0.12616 0.3688 0.0
C540 C 0.24256 0.14678 0.37214 0.0
H541 H 0.07671 0.18117 0.37446 0.0
H542 H 0.11403 0.14644 0.37472 0.0
H543 H 0.23256 0.20464 0.40061 0.0
H544 H 0.27884 0.07716 0.33743 0.0
H545 H 0.26153 0.12823 0.34241 0.0
C546 C 0.2066 0.319 0.86953 0.0
C547 C 0.21258 0.29775 0.85711 0.0
C548 C 0.16989 0.31672 0.87125 0.0
C549 C 0.07215 0.27959 0.85128 0.0
H550 H 0.02985 0.23821 0.89416 0.0
C551 C 0.91432 0.15719 0.86058 0.0
C552 C 0.8915 0.16061 0.87303 0.0
C553 C 0.95452 0.18416 0.85943 0.0
C554 C 0.04134 0.2505 0.88224 0.0
H555 H 0.18664 0.26088 0.83585 0.0
H556 H 0.12309 0.25716 0.8387 0.0
H557 H 0.10111 0.2725 0.88975 0.0
H558 H 0.89346 0.19432 0.8944 0.0
H559 H 0.96452 0.24106 0.89256 0.0
H560 H 0.01219 0.25514 0.84354 0.0
C561 C 0.14634 0.27545 0.84718 0.0
C562 C 0.08214 0.27032 0.87971 0.0
C563 C 0.18268 0.2773 0.8456 0.0
C564 C 0.91022 0.19084 0.88468 0.0
C565 C 0.95077 0.21767 0.88361 0.0
C566 C 0.03145 0.25964 0.85379 0.0
C567 C 0.13898 0.29371 0.86042 0.0
C568 C 0.09778 0.28335 0.86402 0.0
C569 C 0.97301 0.215 0.87075 0.0
C570 C 0.01568 0.24333 0.8691 0.0
H571 H 0.22921 0.33495 0.8786 0.0
H572 H 0.16506 0.3313 0.88149 0.0
H573 H 0.08343 0.28993 0.83913 0.0
H574 H 0.90101 0.13432 0.8514 0.0
H575 H 0.97123 0.18089 0.84961 0.0
C576 C 0.90773 0.20936 0.37297 0.0
C577 C 0.93352 0.21768 0.35975 0.0
C578 C 0.87523 0.17134 0.37491 0.0
C579 C 0.84119 0.0838 0.3826 0.0
H580 H 0.7839 0.0129 0.34702 0.0
C581 C 0.78282 0.91397 0.36225 0.0
C582 C 0.75827 0.89179 0.37523 0.0
C583 C 0.79783 0.95466 0.36146 0.0
C584 C 0.79963 0.03239 0.35708 0.0
H585 H 0.94366 0.19474 0.33737 0.0
H586 H 0.88706 0.12902 0.34055 0.0
H587 H 0.81618 0.0842 0.3428 0.0
H588 H 0.7322 0.89549 0.39807 0.0
H589 H 0.75931 0.96705 0.39677 0.0
H590 H 0.82571 0.03178 0.39668 0.0
C591 C 0.8916 0.1513 0.3495 0.0
C592 C 0.81791 0.07313 0.3547 0.0
C593 C 0.92418 0.18894 0.34768 0.0
C594 C 0.75099 0.91167 0.38789 0.0
C595 C 0.76635 0.95258 0.38714 0.0
C596 C 0.82266 0.04295 0.38501 0.0
C597 C 0.86791 0.1415 0.36353 0.0
C598 C 0.84029 0.09928 0.36721 0.0
C599 C 0.78893 0.9742 0.37367 0.0
C600 C 0.80313 0.01698 0.37206 0.0
H601 H 0.91452 0.23105 0.38248 0.0
H602 H 0.8572 0.16467 0.38576 0.0
H603 H 0.85854 0.10315 0.39244 0.0
H604 H 0.78923 0.89976 0.35233 0.0
H605 H 0.81601 0.97083 0.35113 0.0
C606 C 0.86474 0.78747 0.86771 0.0
C607 C 0.86185 0.75977 0.87937 0.0
C608 C 0.84016 0.80376 0.86858 0.0
C609 C 0.78112 0.82617 0.89617 0.0
H610 H 0.73785 0.83942 0.85565 0.0
C611 C 0.70043 0.91449 0.86752 0.0
C612 C 0.72907 0.95216 0.87288 0.0
C613 C 0.70489 0.8817 0.8709 0.0
C614 C 0.74877 0.83506 0.86714 0.0
H615 H 0.83188 0.72872 0.90149 0.0
H616 H 0.78932 0.75789 0.9031 0.0
H617 H 0.77069 0.80019 0.85604 0.0
H618 H 0.78271 0.98509 0.88694 0.0
H619 H 0.79017 0.92836 0.893 0.0
H620 H 0.76081 0.86263 0.90709 0.0
C621 C 0.81044 0.76656 0.89323 0.0
C622 C 0.76808 0.81313 0.86732 0.0
C623 C 0.83493 0.75003 0.89232 0.0
C624 C 0.76049 0.95629 0.88254 0.0
C625 C 0.76448 0.92372 0.88617 0.0
C626 C 0.76194 0.84825 0.89598 0.0
C627 C 0.81226 0.79291 0.88115 0.0
C628 C 0.7859 0.80994 0.88168 0.0
C629 C 0.73744 0.8863 0.88002 0.0
C630 C 0.74714 0.85431 0.88131 0.0
H631 H 0.88518 0.79577 0.8576 0.0
H632 H 0.84291 0.82482 0.85934 0.0
H633 H 0.79444 0.82404 0.90742 0.0
H634 H 0.67594 0.91078 0.86007 0.0
H635 H 0.68372 0.85309 0.86599 0.0
C636 C 0.06555 0.59145 0.14653 0.0
C637 C 0.04033 0.5925 0.1346 0.0
C638 C 0.07314 0.56027 0.14713 0.0
C639 C 0.08574 0.49105 0.14802 0.0
H640 H 0.09901 0.45899 0.10492 0.0
C641 C 0.17042 0.40683 0.13872 0.0
C642 C 0.19186 0.41335 0.12423 0.0
C643 C 0.14485 0.42178 0.14064 0.0
C644 C 0.09608 0.4681 0.11705 0.0
H645 H -0.00042 0.55936 0.11518 0.0
H646 H 0.01162 0.50367 0.11665 0.0
H647 H 0.06372 0.49486 0.1081 0.0
H648 H 0.20435 0.44128 0.10053 0.0
H649 H 0.16233 0.47036 0.10431 0.0
H650 H 0.12143 0.46802 0.15682 0.0
C651 C 0.02679 0.52789 0.12514 0.0
C652 C 0.07483 0.4879 0.11893 0.0
C653 C 0.01947 0.55955 0.12441 0.0
C654 C 0.18814 0.43597 0.11183 0.0
C655 C 0.16349 0.45204 0.11395 0.0
C656 C 0.10794 0.47232 0.14609 0.0
C657 C 0.05523 0.52885 0.13598 0.0
C658 C 0.07042 0.50076 0.13439 0.0
C659 C 0.14099 0.44467 0.1283 0.0
C660 C 0.11432 0.46145 0.13052 0.0
H661 H 0.08169 0.61612 0.15474 0.0
H662 H 0.09544 0.56261 0.15559 0.0
H663 H 0.08209 0.49944 0.16019 0.0
H664 H 0.17209 0.38869 0.14833 0.0
H665 H 0.12755 0.41452 0.1517 0.0
C666 C 0.73349 0.16382 0.59889 0.0
C667 C 0.75654 0.18897 0.61158 0.0
C668 C 0.69244 0.14143 0.60042 0.0
C669 C 0.60907 0.13409 0.62457 0.0
H670 H 0.55519 0.02423 0.61094 0.0
C671 C 0.45037 0.03815 0.64168 0.0
C672 C 0.42588 0.02363 0.62794 0.0
C673 C 0.49014 0.04939 0.64052 0.0
C674 C 0.57001 0.05482 0.61481 0.0
H675 H 0.75436 0.21135 0.63555 0.0
H676 H 0.68336 0.17219 0.63827 0.0
H677 H 0.62631 0.06581 0.6061 0.0
H678 H 0.42213 0.00436 0.60291 0.0
H679 H 0.49204 0.02437 0.60086 0.0
H680 H 0.55322 0.12329 0.63336 0.0
C681 C 0.69673 0.16997 0.62705 0.0
C682 C 0.61052 0.07873 0.61192 0.0
C683 C 0.73758 0.19242 0.6255 0.0
C684 C 0.44044 0.01547 0.61369 0.0
C685 C 0.48048 0.02704 0.61249 0.0
C686 C 0.56893 0.11022 0.62759 0.0
C687 C 0.67372 0.14378 0.61465 0.0
C688 C 0.63048 0.11859 0.61687 0.0
C689 C 0.50602 0.04653 0.62558 0.0
C690 C 0.54905 0.07032 0.62288 0.0
H691 H 0.74717 0.16048 0.58799 0.0
H692 H 0.67544 0.12202 0.59053 0.0
H693 H 0.62326 0.16485 0.62817 0.0
H694 H 0.43966 0.04426 0.65286 0.0
H695 H 0.50917 0.06354 0.65089 0.0
C696 C 0.56135 0.74431 0.0976 0.0
C697 C 0.55762 0.76592 0.11052 0.0
C698 C 0.54428 0.70326 0.09867 0.0
C699 C 0.51213 0.62501 0.12953 0.0
H700 H 0.45279 0.5536 0.09442 0.0
C701 C 0.39438 0.46404 0.13902 0.0
C702 C 0.38652 0.4363 0.12663 0.0
C703 C 0.42454 0.50304 0.1372 0.0
C704 C 0.47014 0.57316 0.10421 0.0
H705 H 0.5308 0.76096 0.13422 0.0
H706 H 0.50073 0.6895 0.13595 0.0
H707 H 0.48404 0.62479 0.09017 0.0
H708 H 0.40641 0.42657 0.10332 0.0
H709 H 0.45945 0.49503 0.10015 0.0
H710 H 0.49737 0.57346 0.14372 0.0
C711 C 0.51765 0.70442 0.12517 0.0
C712 C 0.48778 0.61392 0.1018 0.0
C713 C 0.53455 0.74534 0.12409 0.0
C714 C 0.41178 0.44736 0.11307 0.0
C715 C 0.44188 0.4866 0.11118 0.0
C716 C 0.49462 0.58432 0.13193 0.0
C717 C 0.52328 0.68312 0.1127 0.0
C718 C 0.50792 0.64016 0.1146 0.0
C719 C 0.44736 0.51515 0.12291 0.0
C720 C 0.47245 0.55792 0.11945 0.0
H721 H 0.57894 0.75922 0.08697 0.0
H722 H 0.54894 0.68752 0.08884 0.0
H723 H 0.52835 0.64465 0.13949 0.0
H724 H 0.37555 0.45624 0.14967 0.0
H725 H 0.42783 0.52427 0.14645 0.0
C726 C 0.7732 0.53275 0.63048 0.0
C727 C 0.77365 0.55394 0.61656 0.0
C728 C 0.79725 0.51577 0.63135 0.0
C729 C 0.85453 0.48362 0.60635 0.0
H730 H 0.90604 0.48977 0.64753 0.0
C731 C 0.94513 0.4068 0.6138 0.0
C732 C 0.93037 0.37935 0.62663 0.0
C733 C 0.93655 0.43755 0.61312 0.0
C734 C 0.89206 0.48808 0.63593 0.0
H735 H 0.79871 0.5726 0.59237 0.0
H736 H 0.84067 0.54308 0.59394 0.0
H737 H 0.86642 0.52191 0.64464 0.0
H738 H 0.89934 0.36507 0.64972 0.0
H739 H 0.88479 0.41872 0.64865 0.0
H740 H 0.87926 0.44894 0.59777 0.0
C741 C 0.8216 0.53945 0.60416 0.0
C742 C 0.86911 0.50616 0.63431 0.0
C743 C 0.79747 0.55634 0.60326 0.0
C744 C 0.91081 0.38568 0.63963 0.0
C745 C 0.90262 0.41656 0.63904 0.0
C746 C 0.87756 0.46567 0.60796 0.0
C747 C 0.82235 0.51966 0.61834 0.0
C748 C 0.84928 0.50325 0.61963 0.0
C749 C 0.91358 0.4415 0.62537 0.0
C750 C 0.89577 0.46688 0.62289 0.0
H751 H 0.75512 0.53019 0.64092 0.0
H752 H 0.79643 0.49985 0.64229 0.0
H753 H 0.83944 0.4806 0.59492 0.0
H754 H 0.96026 0.40258 0.60361 0.0
H755 H 0.94582 0.45675 0.60256 0.0
C756 C 0.52031 0.92531 0.14176 0.0
C757 C 0.5431 0.93994 0.12758 0.0
C758 C 0.48066 0.91485 0.14168 0.0
C759 C 0.39905 0.91214 0.11768 0.0
H760 H 0.34269 0.80414 0.1336 0.0
C761 C 0.23388 0.80498 0.10375 0.0
C762 C 0.21081 0.78179 0.11688 0.0
C763 C 0.27497 0.82711 0.10512 0.0
C764 C 0.35783 0.83441 0.12929 0.0
H765 H 0.54399 0.95938 0.10279 0.0
H766 H 0.47415 0.94031 0.10251 0.0
H767 H 0.41353 0.84323 0.13725 0.0
H768 H 0.21294 0.76298 0.14159 0.0
H769 H 0.28414 0.80159 0.14398 0.0
H770 H 0.34288 0.90283 0.1096 0.0
C771 C 0.48697 0.93726 0.11373 0.0
C772 C 0.39845 0.85692 0.13145 0.0
C773 C 0.52695 0.94826 0.11389 0.0
C774 C 0.22975 0.78033 0.1312 0.0
C775 C 0.27066 0.80246 0.13257 0.0
C776 C 0.35813 0.88954 0.11558 0.0
C777 C 0.46302 0.91822 0.12732 0.0
C778 C 0.41951 0.89605 0.12574 0.0
C779 C 0.29371 0.8264 0.11962 0.0
C780 C 0.33714 0.85044 0.1214 0.0
H781 H 0.53234 0.91904 0.15252 0.0
H782 H 0.46307 0.90121 0.15246 0.0
H783 H 0.41463 0.94217 0.11311 0.0
H784 H 0.22021 0.80683 0.09256 0.0
H785 H 0.29203 0.84483 0.09485 0.0
C786 C 0.55856 0.51939 0.62262 0.0
C787 C 0.58573 0.53608 0.63545 0.0
C788 C 0.53072 0.47905 0.62277 0.0
C789 C 0.5283 0.39086 0.63846 0.0
H790 H 0.42501 0.33492 0.61831 0.0
C791 C 0.4397 0.22116 0.63396 0.0
C792 C 0.41813 0.20453 0.6196 0.0
C793 C 0.45826 0.26184 0.63658 0.0
C794 C 0.45403 0.35027 0.62383 0.0
H795 H 0.60164 0.52553 0.65946 0.0
H796 H 0.55225 0.45553 0.65996 0.0
H797 H 0.45569 0.40603 0.62326 0.0
H798 H 0.40079 0.21792 0.59638 0.0
H799 H 0.43404 0.28908 0.60084 0.0
H800 H 0.52732 0.33568 0.63871 0.0
C801 C 0.55331 0.47307 0.64954 0.0
C802 C 0.47141 0.39085 0.62675 0.0
C803 C 0.58134 0.51317 0.64931 0.0
C804 C 0.41708 0.22972 0.6076 0.0
C805 C 0.43572 0.27045 0.61022 0.0
C806 C 0.51104 0.35047 0.63552 0.0
C807 C 0.52956 0.45513 0.63582 0.0
C808 C 0.50881 0.41157 0.63405 0.0
C809 C 0.45583 0.28683 0.62488 0.0
C810 C 0.47384 0.32975 0.62809 0.0
H811 H 0.56138 0.53642 0.61177 0.0
H812 H 0.51271 0.4661 0.61203 0.0
H813 H 0.55764 0.40613 0.6437 0.0
H814 H 0.44101 0.20266 0.64349 0.0
H815 H 0.47334 0.27352 0.64804 0.0
C816 C 0.43188 0.97236 0.36335 0.0
C817 C 0.40374 0.95492 0.35089 0.0
C818 C 0.46292 0.96442 0.36457 0.0
C819 C 0.51104 0.91392 0.34433 0.0
H820 H 0.50391 0.86967 0.38737 0.0
C821 C 0.54827 0.79135 0.35551 0.0
C822 C 0.57113 0.79483 0.36928 0.0
C823 C 0.53261 0.81632 0.35351 0.0
C824 C 0.50679 0.8824 0.37537 0.0
H825 H 0.38895 0.92023 0.32871 0.0
H826 H 0.4428 0.9064 0.33082 0.0
H827 H 0.47437 0.91073 0.38238 0.0
H828 H 0.59364 0.82589 0.3922 0.0
H829 H 0.56615 0.86929 0.3887 0.0
H830 H 0.54229 0.88429 0.33722 0.0
C831 C 0.44098 0.92587 0.33974 0.0
C832 C 0.49012 0.90619 0.37253 0.0
C833 C 0.40992 0.9336 0.33858 0.0
C834 C 0.57616 0.82237 0.38144 0.0
C835 C 0.56047 0.84733 0.37943 0.0
C836 C 0.52772 0.8901 0.34718 0.0
C837 C 0.46637 0.93926 0.35326 0.0
C838 C 0.49114 0.92132 0.35687 0.0
C839 C 0.5394 0.84522 0.36526 0.0
C840 C 0.52479 0.87323 0.36262 0.0
H841 H 0.42803 0.98915 0.37297 0.0
H842 H 0.48257 0.97571 0.37495 0.0
H843 H 0.51259 0.92549 0.33219 0.0
H844 H 0.54368 0.77038 0.34594 0.0
H845 H 0.51561 0.81337 0.34265 0.0
C846 C 0.74968 0.57613 0.88054 0.0
C847 C 0.77214 0.57316 0.86779 0.0
C848 C 0.70893 0.55969 0.87894 0.0
C849 C 0.63188 0.52804 0.84738 0.0
H850 H 0.56033 0.47174 0.88292 0.0
C851 C 0.46973 0.41116 0.83965 0.0
C852 C 0.44293 0.40519 0.85222 0.0
C853 C 0.50887 0.44134 0.84077 0.0
C854 C 0.57995 0.48824 0.87299 0.0
H855 H 0.76902 0.54868 0.84374 0.0
H856 H 0.69777 0.51918 0.84113 0.0
H857 H 0.63115 0.50157 0.88706 0.0
H858 H 0.43483 0.42865 0.87493 0.0
H859 H 0.50352 0.48163 0.87687 0.0
H860 H 0.58044 0.51336 0.83315 0.0
C861 C 0.71189 0.53519 0.85218 0.0
C862 C 0.62053 0.50511 0.87534 0.0
C863 C 0.75266 0.55167 0.85376 0.0
C864 C 0.4549 0.4325 0.86508 0.0
C865 C 0.49426 0.46258 0.86627 0.0
C866 C 0.59126 0.51109 0.84502 0.0
C867 C 0.68975 0.53984 0.86458 0.0
C868 C 0.64687 0.52438 0.86245 0.0
C869 C 0.52198 0.46598 0.85452 0.0
C870 C 0.56485 0.49025 0.8577 0.0
H871 H 0.76371 0.59256 0.89151 0.0
H872 H 0.69269 0.56383 0.8887 0.0
H873 H 0.65153 0.54355 0.83733 0.0
H874 H 0.46116 0.39074 0.82951 0.0
H875 H 0.52949 0.44311 0.83152 0.0
C876 C 0.18471 0.75552 0.37574 0.0
C877 C 0.21263 0.77869 0.36383 0.0
C878 C 0.16176 0.71464 0.37384 0.0
C879 C 0.12631 0.63732 0.34206 0.0
H880 H 0.10335 0.56657 0.37876 0.0
C881 C 0.08356 0.4744 0.33721 0.0
C882 C 0.05945 0.44793 0.34934 0.0
C883 C 0.09262 0.51376 0.33752 0.0
C884 C 0.10869 0.58595 0.36845 0.0
H885 H 0.23966 0.77677 0.341 0.0
H886 H 0.20037 0.70531 0.33795 0.0
H887 H 0.14199 0.6376 0.38297 0.0
H888 H 0.02238 0.44076 0.37022 0.0
H889 H 0.03824 0.50971 0.37072 0.0
H890 H 0.09418 0.58535 0.32745 0.0
C891 C 0.19545 0.71893 0.34851 0.0
C892 C 0.13103 0.62668 0.37085 0.0
C893 C 0.2183 0.75984 0.35036 0.0
C894 C 0.04121 0.46051 0.36075 0.0
C895 C 0.05054 0.50004 0.36113 0.0
C896 C 0.10409 0.59652 0.33964 0.0
C897 C 0.16635 0.69599 0.36005 0.0
C898 C 0.14072 0.6528 0.35764 0.0
C899 C 0.07786 0.52739 0.35 0.0
C900 C 0.09564 0.57042 0.35277 0.0
H901 H 0.17939 0.76905 0.38622 0.0
H902 H 0.13947 0.69785 0.38291 0.0
H903 H 0.13253 0.65672 0.33169 0.0
H904 H 0.09772 0.46543 0.32816 0.0
H905 H 0.11379 0.5341 0.32878 0.0
C906 C 0.57686 0.04867 0.86807 0.0
C907 C 0.60356 0.0637 0.85499 0.0
C908 C 0.546 0.05696 0.86923 0.0
C909 C 0.51488 0.11353 0.87503 0.0
H910 H 0.45801 0.12416 0.83849 0.0
C911 C 0.44531 0.21594 0.85323 0.0
C912 C 0.42247 0.21363 0.86686 0.0
C913 C 0.4631 0.19264 0.85233 0.0
C914 C 0.47387 0.12153 0.84879 0.0
H915 H 0.61662 0.09542 0.83207 0.0
H916 H 0.5629 0.10956 0.83401 0.0
H917 H 0.49202 0.08643 0.83526 0.0
H918 H 0.40184 0.18614 0.89056 0.0
H919 H 0.43308 0.14559 0.88896 0.0
H920 H 0.49784 0.1497 0.88841 0.0
C921 C 0.56567 0.09164 0.84342 0.0
C922 C 0.49309 0.09973 0.84697 0.0
C923 C 0.59663 0.08372 0.84235 0.0
C924 C 0.41928 0.18873 0.87988 0.0
C925 C 0.43714 0.16543 0.87898 0.0
C926 C 0.49565 0.13534 0.87685 0.0
C927 C 0.54115 0.07992 0.85723 0.0
C928 C 0.51467 0.09637 0.85994 0.0
C929 C 0.45851 0.16653 0.86504 0.0
C930 C 0.47585 0.14045 0.86362 0.0
H931 H 0.58156 0.03319 0.878 0.0
H932 H 0.52717 0.04713 0.87989 0.0
H933 H 0.53176 0.112 0.88519 0.0
H934 H 0.44854 0.23489 0.84301 0.0
H935 H 0.4802 0.19482 0.8416 0.0
C936 C 0.24762 0.42309 0.38348 0.0
C937 C 0.227 0.42544 0.36987 0.0
C938 C 0.2885 0.43898 0.38285 0.0
C939 C 0.36949 0.46816 0.35323 0.0
H940 H 0.43688 0.53042 0.38886 0.0
C941 C 0.52892 0.59047 0.34586 0.0
C942 C 0.55559 0.59969 0.3588 0.0
C943 C 0.49062 0.55867 0.34708 0.0
C944 C 0.41847 0.51222 0.37896 0.0
H945 H 0.23351 0.44804 0.34521 0.0
H946 H 0.30479 0.47642 0.34428 0.0
H947 H 0.36549 0.4985 0.3918 0.0
H948 H 0.56456 0.58081 0.38246 0.0
H949 H 0.49716 0.52498 0.38464 0.0
H950 H 0.42259 0.48327 0.34015 0.0
C951 C 0.2892 0.46138 0.35528 0.0
C952 C 0.37754 0.49414 0.38062 0.0
C953 C 0.24839 0.44553 0.35589 0.0
C954 C 0.54455 0.57426 0.3723 0.0
C955 C 0.50593 0.54258 0.37361 0.0
C956 C 0.41041 0.48625 0.35157 0.0
C957 C 0.30958 0.45753 0.36862 0.0
C958 C 0.35269 0.47297 0.36758 0.0
C959 C 0.47813 0.53569 0.36132 0.0
C960 C 0.43533 0.50948 0.36423 0.0
H961 H 0.23207 0.40768 0.39442 0.0
H962 H 0.3034 0.43556 0.39333 0.0
H963 H 0.35102 0.45116 0.34312 0.0
H964 H 0.53683 0.60953 0.33527 0.0
H965 H 0.46993 0.5543 0.33742 0.0
C966 C 0.97252 0.55098 0.86304 0.0
C967 C 0.95227 0.56185 0.85194 0.0
C968 C 0.9676 0.51291 0.86252 0.0
C969 C 0.91962 0.42484 0.86829 0.0
H970 H 0.8828 0.35914 0.82972 0.0
C971 C 0.80063 0.26122 0.87268 0.0
C972 C 0.79917 0.23472 0.86083 0.0
C973 C 0.82747 0.30164 0.87115 0.0
C974 C 0.89356 0.37669 0.84069 0.0
H975 H 0.91522 0.54359 0.8304 0.0
H976 H 0.90573 0.47776 0.82973 0.0
H977 H 0.92329 0.42988 0.8268 0.0
H978 H 0.82539 0.22908 0.83844 0.0
H979 H 0.87343 0.29876 0.8362 0.0
H980 H 0.89117 0.37156 0.88219 0.0
C981 C 0.9256 0.49794 0.83882 0.0
C982 C 0.91649 0.41758 0.83898 0.0
C983 C 0.93069 0.53579 0.8393 0.0
C984 C 0.82522 0.2491 0.84755 0.0
C985 C 0.85283 0.28919 0.84627 0.0
C986 C 0.8976 0.38382 0.87001 0.0
C987 C 0.94231 0.48527 0.85092 0.0
C988 C 0.92801 0.4423 0.85273 0.0
C989 C 0.8543 0.31616 0.85801 0.0
C990 C 0.88267 0.35928 0.85623 0.0
H991 H 0.98964 0.57066 0.87284 0.0
H992 H 0.98171 0.50444 0.87177 0.0
H993 H 0.92784 0.44275 0.8792 0.0
H994 H 0.78095 0.2507 0.88309 0.0
H995 H 0.82684 0.32139 0.88024 0.0
C996 C 0.09246 0.26679 0.30026 0.0
C997 C 0.10789 0.30531 0.30647 0.0
C998 C 0.10619 0.26045 0.28546 0.0
C999 C 0.19292 0.30555 0.25896 0.0
H1000 H 0.12153 0.24488 0.22405 0.0
C1001 C 0.23999 0.32696 0.19218 0.0
C1002 C 0.2221 0.295 0.1813 0.0
C1003 C 0.22839 0.32226 0.20846 0.0
C1004 C 0.14191 0.26114 0.23378 0.0
H1005 H 0.14913 0.36738 0.30181 0.0
H1006 H 0.17299 0.35619 0.27613 0.0
H1007 H 0.09486 0.24792 0.25057 0.0
H1008 H 0.17978 0.23231 0.17927 0.0
H1009 H 0.15988 0.22404 0.20783 0.0
H1010 H 0.23997 0.3193 0.24224 0.0
C1011 C 0.15056 0.33095 0.28276 0.0
C1012 C 0.12658 0.26301 0.24893 0.0
C1013 C 0.13658 0.33734 0.2974 0.0
C1014 C 0.19396 0.25763 0.1873 0.0
C1015 C 0.18237 0.25291 0.20364 0.0
C1016 C 0.20825 0.30343 0.2439 0.0
C1017 C 0.13591 0.29246 0.27677 0.0
C1018 C 0.15194 0.28622 0.26146 0.0
C1019 C 0.19875 0.28543 0.21429 0.0
C1020 C 0.18289 0.28223 0.23098 0.0
H1021 H 0.07031 0.24149 0.30695 0.0
H1022 H 0.09439 0.2305 0.28104 0.0
H1023 H 0.2131 0.32303 0.26857 0.0
H1024 H 0.26185 0.35613 0.18799 0.0
H1025 H 0.24133 0.34806 0.21626 0.0
C1026 C 0.89778 0.17977 0.68365 0.0
C1027 C 0.88257 0.20192 0.67629 0.0
C1028 C 0.88658 0.16519 0.69949 0.0
C1029 C 0.83969 0.17735 0.73666 0.0
H1030 H 0.81357 0.06946 0.74596 0.0
C1031 C 0.74889 0.09732 0.79223 0.0
C1032 C 0.76722 0.08359 0.80308 0.0
C1033 C 0.76253 0.10741 0.77631 0.0
C1034 C 0.82101 0.09967 0.7435 0.0
H1035 H 0.84423 0.22672 0.67991 0.0
H1036 H 0.82426 0.20083 0.70722 0.0
H1037 H 0.84126 0.09865 0.71935 0.0
H1038 H 0.81178 0.06611 0.80526 0.0
H1039 H 0.83536 0.0835 0.77718 0.0
H1040 H 0.81839 0.178 0.76057 0.0
C1041 C 0.84539 0.19525 0.70096 0.0
C1042 C 0.83707 0.1165 0.72835 0.0
C1043 C 0.85674 0.20999 0.68523 0.0
C1044 C 0.79716 0.07678 0.79722 0.0
C1045 C 0.81069 0.08672 0.78117 0.0
C1046 C 0.82328 0.16043 0.75164 0.0
C1047 C 0.85988 0.17239 0.70823 0.0
C1048 C 0.84602 0.15537 0.7247 0.0
C1049 C 0.79455 0.1037 0.77086 0.0
C1050 C 0.81324 0.1213 0.7551 0.0
H1051 H 0.91783 0.17311 0.6771 0.0
H1052 H 0.89869 0.14815 0.70484 0.0
H1053 H 0.84716 0.20765 0.73441 0.0
H1054 H 0.72538 0.10238 0.79626 0.0
H1055 H 0.74915 0.11975 0.76844 0.0
C1056 C 0.70413 0.89946 0.18524 0.0
C1057 C 0.66723 0.8865 0.17784 0.0
C1058 C 0.70643 0.88756 0.20105 0.0
C1059 C 0.64756 0.84418 0.23844 0.0
H1060 H 0.72345 0.80963 0.24668 0.0
C1061 C 0.63889 0.75705 0.29582 0.0
C1062 C 0.67417 0.7708 0.30464 0.0
C1063 C 0.63944 0.77062 0.28006 0.0
C1064 C 0.70235 0.81947 0.24457 0.0
H1065 H 0.60382 0.85179 0.18144 0.0
H1066 H 0.60789 0.83074 0.20886 0.0
H1067 H 0.72216 0.8371 0.22009 0.0
H1068 H 0.73792 0.80789 0.30346 0.0
H1069 H 0.73875 0.83147 0.27584 0.0
H1070 H 0.62741 0.82609 0.26282 0.0
C1071 C 0.63505 0.85046 0.20254 0.0
C1072 C 0.7017 0.83535 0.2294 0.0
C1073 C 0.63273 0.86241 0.18677 0.0
C1074 C 0.7102 0.79679 0.29701 0.0
C1075 C 0.71073 0.81025 0.28119 0.0
C1076 C 0.64809 0.82815 0.25355 0.0
C1077 C 0.6719 0.86245 0.20978 0.0
C1078 C 0.67409 0.84761 0.22614 0.0
C1079 C 0.67525 0.79807 0.27275 0.0
C1080 C 0.67525 0.81535 0.25672 0.0
H1081 H 0.73128 0.91819 0.17871 0.0
H1082 H 0.73525 0.8978 0.2064 0.0
H1083 H 0.62642 0.85401 0.2364 0.0
H1084 H 0.61063 0.73681 0.30126 0.0
H1085 H 0.61172 0.76018 0.27368 0.0
C1086 C 0.76784 0.64412 0.68888 0.0
C1087 C 0.77405 0.67661 0.67931 0.0
C1088 C 0.78715 0.64989 0.70373 0.0
C1089 C 0.83495 0.71903 0.73698 0.0
H1090 H 0.88555 0.6565 0.74448 0.0
C1091 C 0.91264 0.72609 0.79774 0.0
C1092 C 0.90253 0.68897 0.80435 0.0
C1093 C 0.90315 0.72927 0.7816 0.0
C1094 C 0.87147 0.67407 0.7426 0.0
H1095 H 0.8041 0.74071 0.67822 0.0
H1096 H 0.83747 0.75066 0.70447 0.0
H1097 H 0.85476 0.65285 0.71824 0.0
H1098 H 0.87592 0.62634 0.79901 0.0
H1099 H 0.85899 0.63181 0.77111 0.0
H1100 H 0.85028 0.7391 0.76156 0.0
C1101 C 0.81785 0.7208 0.70028 0.0
C1102 C 0.85389 0.67198 0.72759 0.0
C1103 C 0.79877 0.71506 0.68529 0.0
C1104 C 0.88412 0.65539 0.79433 0.0
C1105 C 0.87465 0.65856 0.77826 0.0
C1106 C 0.8523 0.7209 0.75208 0.0
C1107 C 0.81283 0.68823 0.70944 0.0
C1108 C 0.83469 0.69372 0.72478 0.0
C1109 C 0.88349 0.69541 0.77178 0.0
C1110 C 0.8699 0.69768 0.75516 0.0
H1111 H 0.74894 0.61411 0.6847 0.0
H1112 H 0.78226 0.62427 0.71073 0.0
H1113 H 0.82023 0.73601 0.73509 0.0
H1114 H 0.927 0.75258 0.80512 0.0
H1115 H 0.91075 0.75812 0.77687 0.0
C1116 C 0.10162 0.75924 0.19009 0.0
C1117 C 0.08282 0.77336 0.17971 0.0
C1118 C 0.1136 0.77504 0.20562 0.0
C1119 C 0.14234 0.86558 0.22884 0.0
H1120 H 0.1421 0.80086 0.26476 0.0
C1121 C 0.20011 0.92173 0.29465 0.0
C1122 C 0.22391 0.90755 0.30129 0.0
C1123 C 0.1815 0.90779 0.27961 0.0
C1124 C 0.14245 0.81928 0.2548 0.0
H1125 H 0.06023 0.81398 0.17779 0.0
H1126 H 0.08081 0.8413 0.20515 0.0
H1127 H 0.10742 0.76931 0.23967 0.0
H1128 H 0.24878 0.86951 0.29684 0.0
H1129 H 0.2162 0.84524 0.27072 0.0
H1130 H 0.17753 0.91558 0.24416 0.0
C1131 C 0.08677 0.81838 0.20109 0.0
C1132 C 0.12262 0.80126 0.24046 0.0
C1133 C 0.07474 0.80252 0.18548 0.0
C1134 C 0.23048 0.8809 0.29216 0.0
C1135 C 0.21162 0.86675 0.27726 0.0
C1136 C 0.16193 0.88363 0.24331 0.0
C1137 C 0.10693 0.80524 0.21121 0.0
C1138 C 0.12322 0.82422 0.22716 0.0
C1139 C 0.18614 0.87922 0.27108 0.0
C1140 C 0.16297 0.86061 0.25622 0.0
H1141 H 0.10828 0.73678 0.18606 0.0
H1142 H 0.12953 0.7646 0.21299 0.0
H1143 H 0.14364 0.88411 0.21876 0.0
H1144 H 0.19458 0.9424 0.30135 0.0
H1145 H 0.16206 0.91791 0.27504 0.0
C1146 C 0.34498 0.23422 0.79261 0.0
C1147 C 0.31112 0.22575 0.80164 0.0
C1148 C 0.3416 0.21717 0.77734 0.0
C1149 C 0.27257 0.13092 0.75294 0.0
H1150 H 0.34812 0.18719 0.71855 0.0
C1151 C 0.26578 0.071 0.68728 0.0
C1152 C 0.30204 0.07826 0.68069 0.0
C1153 C 0.26448 0.08659 0.70246 0.0
C1154 C 0.32701 0.17103 0.72811 0.0
H1155 H 0.24704 0.19419 0.80134 0.0
H1156 H 0.2412 0.16511 0.77447 0.0
H1157 H 0.34962 0.22204 0.74337 0.0
H1158 H 0.36494 0.10525 0.68541 0.0
H1159 H 0.36249 0.13228 0.71178 0.0
H1160 H 0.24983 0.07996 0.73744 0.0
C1161 C 0.27037 0.18425 0.7794 0.0
C1162 C 0.32784 0.19098 0.74232 0.0
C1163 C 0.27375 0.20119 0.79474 0.0
C1164 C 0.33654 0.09934 0.69002 0.0
C1165 C 0.33524 0.11509 0.70509 0.0
C1166 C 0.27153 0.11102 0.73862 0.0
C1167 C 0.30428 0.19146 0.77067 0.0
C1168 C 0.30106 0.17103 0.75501 0.0
C1169 C 0.29942 0.10986 0.71122 0.0
C1170 C 0.29919 0.13078 0.7262 0.0
H1171 H 0.37424 0.2529 0.79756 0.0
H1172 H 0.36835 0.22301 0.77106 0.0
H1173 H 0.25183 0.11454 0.76256 0.0
H1174 H 0.23864 0.05478 0.68043 0.0
H1175 H 0.23647 0.0821 0.70695 0.0
C1176 C 0.31634 0.32984 0.9278 0.0
C1177 C 0.33216 0.30595 0.92311 0.0
C1178 C 0.31273 0.33646 0.94427 0.0
C1179 C 0.30794 0.29224 0.98467 0.0
H1180 H 0.31879 0.39053 0.00091 0.0
C1181 C 0.30936 0.32355 0.05282 0.0
C1182 C 0.28252 0.33536 0.05804 0.0
C1183 C 0.3172 0.32297 0.0363 0.0
C1184 C 0.31549 0.3629 -0.00354 0.0
H1185 H 0.35863 0.27208 0.93191 0.0
H1186 H 0.35377 0.28481 0.96058 0.0
H1187 H 0.33116 0.38474 0.97209 0.0
H1188 H 0.24396 0.35719 0.05003 0.0
H1189 H 0.2582 0.35655 0.02099 0.0
H1190 H 0.29306 0.27076 0.00909 0.0
C1191 C 0.34278 0.2973 0.95161 0.0
C1192 C 0.32245 0.35949 0.97999 0.0
C1193 C 0.34583 0.29019 0.93517 0.0
C1194 C 0.26462 0.34777 0.04638 0.0
C1195 C 0.27289 0.34762 0.0298 0.0
C1196 C 0.30152 0.29585 0.00111 0.0
C1197 C 0.32536 0.31974 0.95638 0.0
C1198 C 0.31879 0.32409 0.97391 0.0
C1199 C 0.29873 0.33456 0.02465 0.0
C1200 C 0.30527 0.33118 0.00715 0.0
H1201 H 0.30539 0.34225 0.91877 0.0
H1202 H 0.29878 0.35352 0.94748 0.0
H1203 H 0.30379 0.26419 0.98037 0.0
H1204 H 0.32375 0.31388 0.06146 0.0
H1205 H 0.33754 0.31316 0.03262 0.0
C1206 C 0.06271 0.34545 0.43731 0.0
C1207 C 0.04119 0.34802 0.42413 0.0
C1208 C 0.04959 0.34375 0.45324 0.0
C1209 C 0.95848 0.31479 0.4762 0.0
H1210 H 0.03154 0.35883 0.51234 0.0
C1211 C 0.96154 0.32327 0.55132 0.0
C1212 C 0.93397 0.2836 0.55479 0.0
C1213 C 0.97217 0.3358 0.53527 0.0
C1214 C 0.01057 0.34683 0.50242 0.0
H1215 H 0.99003 0.35285 0.41738 0.0
H1216 H 0.96754 0.35061 0.44527 0.0
H1217 H 0.05615 0.37525 0.48462 0.0
H1218 H 0.89508 0.22619 0.54414 0.0
H1219 H 0.91456 0.24773 0.51612 0.0
H1220 H 0.91282 0.2867 0.49403 0.0
C1221 C -0.00589 0.34903 0.44324 0.0
C1222 C 0.0248 0.35585 0.4865 0.0
C1223 C 0.00712 0.35051 0.42727 0.0
C1224 C 0.91638 0.25695 0.54184 0.0
C1225 C 0.92737 0.26941 0.52578 0.0
C1226 C 0.94418 0.306 0.49213 0.0
C1227 C 0.01479 0.34487 0.45638 0.0
C1228 C -0.00093 0.3392 0.47321 0.0
C1229 C 0.95584 0.30886 0.52233 0.0
C1230 C 0.97018 0.32124 0.50542 0.0
H1231 H 0.08904 0.34341 0.43534 0.0
H1232 H 0.06595 0.33998 0.46305 0.0
H1233 H 0.93787 0.3012 0.46624 0.0
H1234 H 0.9752 0.34467 0.56103 0.0
H1235 H -0.00645 0.36656 0.53303 0.0
C1236 C 0.6466 0.92906 0.04371 0.0
C1237 C 0.65768 0.95545 0.05688 0.0
C1238 C 0.64987 0.94283 0.02774 0.0
C1239 C 0.70651 0.03014 0.00291 0.0
H1240 H 0.61998 0.98019 0.97219 0.0
C1241 C 0.72116 0.08875 0.93732 0.0
C1242 C 0.70457 0.06011 0.92499 0.0
C1243 C 0.71285 0.07779 0.95369 0.0
C1244 C 0.6446 0.99423 0.98056 0.0
H1245 H 0.68083 0.01693 0.06366 0.0
H1246 H 0.68712 0.04084 0.03578 0.0
H1247 H 0.61072 0.95618 0.0002 0.0
H1248 H 0.66604 -0.00243 0.92017 0.0
H1249 H 0.65275 0.97845 0.94852 0.0
H1250 H 0.74103 0.06714 0.98327 0.0
C1251 C 0.67573 0.00958 0.03784 0.0
C1252 C 0.63918 0.98051 -0.00342 0.0
C1253 C 0.67192 -0.00421 0.05378 0.0
C1254 C 0.6791 0.02048 0.92935 0.0
C1255 C 0.67123 0.0095 0.94566 0.0
C1256 C 0.71215 0.0435 0.98683 0.0
C1257 C 0.66486 0.98326 0.0247 0.0
C1258 C 0.67016 -0.00177 0.00785 0.0
C1259 C 0.68817 0.03793 0.95806 0.0
C1260 C 0.68135 0.02551 0.97542 0.0
H1261 H 0.63545 0.89782 0.04573 0.0
H1262 H 0.64153 0.92205 0.01775 0.0
H1263 H 0.73094 0.04405 0.01138 0.0
H1264 H 0.7407 0.11956 0.93433 0.0
H1265 H 0.7259 0.10056 0.96292 0.0
C1266 C 0.64517 0.65003 0.55689 0.0
C1267 C 0.67164 0.63669 0.56074 0.0
C1268 C 0.63665 0.65354 0.54068 0.0
C1269 C 0.63985 0.62273 0.49883 0.0
H1270 H 0.66192 0.72809 0.48708 0.0
C1271 C 0.66868 0.67762 0.43266 0.0
C1272 C 0.65654 0.70421 0.4275 0.0
C1273 C 0.66518 0.66633 0.44897 0.0
C1274 C 0.65478 0.69826 0.49013 0.0
H1275 H 0.7081 0.61438 0.55067 0.0
H1276 H 0.69274 0.62008 0.52231 0.0
H1277 H 0.66314 0.71169 0.51559 0.0
H1278 H 0.63027 0.73907 0.43526 0.0
H1279 H 0.62309 0.71848 0.46367 0.0
H1280 H 0.63135 0.60911 0.47342 0.0
C1281 C 0.67883 0.62798 0.53187 0.0
C1282 C 0.6556 0.68894 0.50648 0.0
C1283 C 0.68778 0.62497 0.54808 0.0
C1284 C 0.64029 0.71886 0.43892 0.0
C1285 C 0.63629 0.70713 0.45521 0.0
C1286 C 0.63848 0.63185 0.48248 0.0
C1287 C 0.65397 0.64321 0.52804 0.0
C1288 C 0.64886 0.65135 0.51093 0.0
C1289 C 0.64895 0.68093 0.46045 0.0
C1290 C 0.64674 0.67 0.47791 0.0
H1291 H 0.6322 0.65927 0.56637 0.0
H1292 H 0.61718 0.6651 0.53799 0.0
H1293 H 0.6342 0.59341 0.50202 0.0
H1294 H 0.68153 0.66599 0.42415 0.0
H1295 H 0.67603 0.64678 0.4526 0.0
C1296 C 0.91813 0.63488 0.93723 0.0
C1297 C 0.94883 0.65251 0.92578 0.0
C1298 C 0.92635 0.6318 0.95353 0.0
C1299 C 0.00632 0.64206 0.98148 0.0
H1300 H 0.94654 0.66392 0.0134 0.0
C1301 C 0.05837 0.69762 0.04709 0.0
C1302 C 0.03024 0.68041 0.05959 0.0
C1303 C 0.04741 0.6875 0.03084 0.0
C1304 C 0.96311 0.65722 0.00464 0.0
H1305 H 0.01216 0.68025 0.92237 0.0
H1306 H 0.0267 0.6764 0.95088 0.0
H1307 H 0.92893 0.65907 0.98477 0.0
H1308 H 0.9689 0.63801 0.0649 0.0
H1309 H 0.9498 0.62097 0.03649 0.0
H1310 H 0.04173 0.64235 0.0015 0.0
C1311 C -0.00387 0.66385 0.94725 0.0
C1312 C 0.95295 0.65426 0.98821 0.0
C1313 C 0.98784 0.66635 0.9309 0.0
C1314 C 0.99128 0.65188 0.05556 0.0
C1315 C 0.98026 0.64218 0.03931 0.0
C1316 C 0.01682 0.64561 -0.00208 0.0
C1317 C 0.96553 0.64691 0.95881 0.0
C1318 C 0.97467 0.64705 0.97639 0.0
C1319 C 0.00808 0.66038 0.02681 0.0
C1320 C -0.00452 0.65355 0.0096 0.0
H1321 H 0.8877 0.62349 0.93359 0.0
H1322 H 0.90196 0.61781 0.96202 0.0
H1323 H 0.02323 0.63575 0.97276 0.0
H1324 H 0.08866 0.71952 0.04981 0.0
H1325 H 0.06933 0.70212 0.02138 0.0
C1326 C 0.28379 0.92616 0.43536 0.0
C1327 C 0.30267 0.9549 0.42318 0.0
C1328 C 0.29181 0.93636 0.45179 0.0
C1329 C 0.32019 0.01949 0.47873 0.0
H1330 H 0.34161 0.9587 0.51031 0.0
C1331 C 0.34524 0.06381 0.54646 0.0
C1332 C 0.32862 0.03294 0.55788 0.0
C1333 C 0.3467 0.0557 0.52997 0.0
C1334 C 0.33521 0.97575 0.50169 0.0
H1335 H 0.34551 0.01663 0.41868 0.0
H1336 H 0.35886 0.03436 0.44737 0.0
H1337 H 0.33513 0.94077 0.48153 0.0
H1338 H 0.3004 0.96936 0.561 0.0
H1339 H 0.30154 0.95512 0.53231 0.0
H1340 H 0.31842 0.05342 0.49876 0.0
C1341 C 0.33801 0.00402 0.44416 0.0
C1342 C 0.33172 0.96554 0.48522 0.0
C1343 C 0.33045 0.99375 0.42775 0.0
C1344 C 0.3137 0.99386 0.55252 0.0
C1345 C 0.31463 0.98571 0.53604 0.0
C1346 C 0.32308 0.02935 0.4952 0.0
C1347 C 0.3184 0.97555 0.45631 0.0
C1348 C 0.32397 0.98722 0.47364 0.0
C1349 C 0.33103 0.01648 0.52454 0.0
C1350 C 0.33033 0.00742 0.50692 0.0
H1351 H 0.26236 0.89596 0.43221 0.0
H1352 H 0.27617 0.91395 0.46098 0.0
H1353 H 0.31373 0.03636 0.47002 0.0
H1354 H 0.35729 0.09426 0.55026 0.0
H1355 H 0.36017 0.0802 0.52151 0.0
loop_
_geom_bond_atom_site_label_1
_geom_bond_atom_site_label_2
_geom_bond_distance
_geom_bond_site_symmetry_2
_ccdc_geom_bond_type
O0 Zn1 1.953 . S
O0 C16 1.225 . S
Zn1 O0 1.953 . S
Zn1 O2 1.949 . S
Zn1 O8 1.919 . S
Zn1 O13 1.924 . S
O2 Zn1 1.949 . S
O2 Zn3 1.923 . S
O2 Zn4 1.950 . S
O2 Zn5 1.945 . S
Zn3 O2 1.923 . S
Zn3 O6 1.933 . S
Zn3 O9 1.941 . S
Zn3 O10 1.965 . S
Zn4 O2 1.950 . S
Zn4 O11 1.938 . S
Zn4 O12 1.906 . S
Zn4 O22 1.953 . S
Zn5 O2 1.945 . S
Zn5 O7 1.932 . S
Zn5 O14 1.977 . S
Zn5 O15 1.910 . S
O6 Zn3 1.933 . S
O6 C17 1.226 . S
O7 Zn5 1.932 . S
O7 C17 1.307 . S
O8 Zn1 1.919 . S
O8 C19 1.253 . S
O9 Zn3 1.941 . S
O9 C19 1.283 . S
O10 Zn3 1.965 . S
O10 C18 1.303 . S
O11 Zn4 1.938 . S
O11 C18 1.247 . S
O12 Zn4 1.906 . S
O12 C20 1.304 . S
O13 Zn1 1.924 . S
O13 C21 1.311 . S
O14 Zn5 1.977 . S
O14 C20 1.272 . S
O15 Zn5 1.910 . S
O15 C21 1.231 . S
C16 O0 1.225 . S
C16 O22 1.298 . S
C17 O6 1.226 . S
C17 O7 1.307 . S
C18 O10 1.303 . S
C18 O11 1.247 . S
C19 O8 1.253 . S
C19 O9 1.283 . S
C20 O12 1.304 . S
C20 O14 1.272 . S
C21 O13 1.311 . S
C21 O15 1.231 . S
O22 Zn4 1.953 . S
O22 C16 1.298 . S
O23 Zn24 1.953 . S
O23 C39 1.225 . S
Zn24 O23 1.953 . S
Zn24 O25 1.949 . S
Zn24 O31 1.919 . S
Zn24 O36 1.924 . S
O25 Zn24 1.949 . S
O25 Zn26 1.923 . S
O25 Zn27 1.950 . S
O25 Zn28 1.945 . S
Zn26 O25 1.923 . S
Zn26 O29 1.933 . S
Zn26 O32 1.941 . S
Zn26 O33 1.965 . S
Zn27 O25 1.950 . S
Zn27 O34 1.938 . S
Zn27 O35 1.906 . S
Zn27 O45 1.953 . S
Zn28 O25 1.945 . S
Zn28 O30 1.932 . S
Zn28 O37 1.977 . S
Zn28 O38 1.910 . S
O29 Zn26 1.933 . S
O29 C40 1.226 . S
O30 Zn28 1.932 . S
O30 C40 1.307 . S
O31 Zn24 1.919 . S
O31 C42 1.253 . S
O32 Zn26 1.941 . S
O32 C42 1.283 . S
O33 Zn26 1.965 . S
O33 C41 1.303 . S
O34 Zn27 1.938 . S
O34 C41 1.247 . S
O35 Zn27 1.906 . S
O35 C43 1.304 . S
O36 Zn24 1.924 . S
O36 C44 1.311 . S
O37 Zn28 1.977 . S
O37 C43 1.272 . S
O38 Zn28 1.910 . S
O38 C44 1.231 . S
C39 O23 1.225 . S
C39 O45 1.298 . S
C40 O29 1.226 . S
C40 O30 1.307 . S
C41 O33 1.303 . S
C41 O34 1.247 . S
C42 O31 1.253 . S
C42 O32 1.283 . S
C43 O35 1.304 . S
C43 O37 1.272 . S
C44 O36 1.311 . S
C44 O38 1.231 . S
O45 Zn27 1.953 . S
O45 C39 1.298 . S
O46 Zn47 1.953 . S
O46 C62 1.225 . S
Zn47 O46 1.953 . S
Zn47 O48 1.949 . S
Zn47 O54 1.919 . S
Zn47 O59 1.924 . S
O48 Zn47 1.949 . S
O48 Zn49 1.923 . S
O48 Zn50 1.950 . S
O48 Zn51 1.945 . S
Zn49 O48 1.923 . S
Zn49 O52 1.933 . S
Zn49 O55 1.941 . S
Zn49 O56 1.965 . S
Zn50 O48 1.950 . S
Zn50 O57 1.938 . S
Zn50 O58 1.906 . S
Zn50 O68 1.953 . S
Zn51 O48 1.945 . S
Zn51 O53 1.932 . S
Zn51 O60 1.977 . S
Zn51 O61 1.910 . S
O52 Zn49 1.933 . S
O52 C63 1.226 . S
O53 Zn51 1.932 . S
O53 C63 1.307 . S
O54 Zn47 1.919 . S
O54 C65 1.253 . S
O55 Zn49 1.941 . S
O55 C65 1.283 . S
O56 Zn49 1.965 . S
O56 C64 1.303 . S
O57 Zn50 1.938 . S
O57 C64 1.247 . S
O58 Zn50 1.906 . S
O58 C66 1.304 . S
O59 Zn47 1.924 . S
O59 C67 1.311 . S
O60 Zn51 1.977 . S
O60 C66 1.272 . S
O61 Zn51 1.910 . S
O61 C67 1.231 . S
C62 O46 1.225 . S
C62 O68 1.298 . S
C63 O52 1.226 . S
C63 O53 1.307 . S
C64 O56 1.303 . S
C64 O57 1.247 . S
C65 O54 1.253 . S
C65 O55 1.283 . S
C66 O58 1.304 . S
C66 O60 1.272 . S
C67 O59 1.311 . S
C67 O61 1.231 . S
O68 Zn50 1.953 . S
O68 C62 1.298 . S
O69 Zn70 1.953 . S
O69 C85 1.225 . S
Zn70 O69 1.953 . S
Zn70 O71 1.949 . S
Zn70 O77 1.919 . S
Zn70 O82 1.924 . S
O71 Zn70 1.949 . S
O71 Zn72 1.923 . S
O71 Zn73 1.950 . S
O71 Zn74 1.945 . S
Zn72 O71 1.923 . S
Zn72 O75 1.933 . S
Zn72 O78 1.941 . S
Zn72 O79 1.965 . S
Zn73 O71 1.950 . S
Zn73 O80 1.938 . S
Zn73 O81 1.906 . S
Zn73 O91 1.953 . S
Zn74 O71 1.945 . S
Zn74 O76 1.932 . S
Zn74 O83 1.977 . S
Zn74 O84 1.910 . S
O75 Zn72 1.933 . S
O75 C86 1.226 . S
O76 Zn74 1.932 . S
O76 C86 1.307 . S
O77 Zn70 1.919 . S
O77 C88 1.253 . S
O78 Zn72 1.941 . S
O78 C88 1.283 . S
O79 Zn72 1.965 . S
O79 C87 1.303 . S
O80 Zn73 1.938 . S
O80 C87 1.247 . S
O81 Zn73 1.906 . S
O81 C89 1.304 . S
O82 Zn70 1.924 . S
O82 C90 1.311 . S
O83 Zn74 1.977 . S
O83 C89 1.272 . S
O84 Zn74 1.910 . S
O84 C90 1.231 . S
C85 O69 1.225 . S
C85 O91 1.298 . S
C86 O75 1.226 . S
C86 O76 1.307 . S
C87 O79 1.303 . S
C87 O80 1.247 . S
C88 O77 1.253 . S
C88 O78 1.283 . S
C89 O81 1.304 . S
C89 O83 1.272 . S
C90 O82 1.311 . S
C90 O84 1.231 . S
O91 Zn73 1.953 . S
O91 C85 1.298 . S
O92 Zn93 1.953 . S
O92 C108 1.225 . S
Zn93 O92 1.953 . S
Zn93 O94 1.949 . S
Zn93 O100 1.919 . S
Zn93 O105 1.924 . S
O94 Zn93 1.949 . S
O94 Zn95 1.923 . S
O94 Zn96 1.950 . S
O94 Zn97 1.945 . S
Zn95 O94 1.923 . S
Zn95 O98 1.933 . S
Zn95 O101 1.941 . S
Zn95 O102 1.965 . S
Zn96 O94 1.950 . S
Zn96 O103 1.938 . S
Zn96 O104 1.906 . S
Zn96 O114 1.953 . S
Zn97 O94 1.945 . S
Zn97 O99 1.932 . S
Zn97 O106 1.977 . S
Zn97 O107 1.910 . S
O98 Zn95 1.933 . S
O98 C109 1.226 . S
O99 Zn97 1.932 . S
O99 C109 1.307 . S
O100 Zn93 1.919 . S
O100 C111 1.253 . S
O101 Zn95 1.941 . S
O101 C111 1.283 . S
O102 Zn95 1.965 . S
O102 C110 1.303 . S
O103 Zn96 1.938 . S
O103 C110 1.247 . S
O104 Zn96 1.906 . S
O104 C112 1.304 . S
O105 Zn93 1.924 . S
O105 C113 1.311 . S
O106 Zn97 1.977 . S
O106 C112 1.272 . S
O107 Zn97 1.910 . S
O107 C113 1.231 . S
C108 O92 1.225 . S
C108 O114 1.298 . S
C109 O98 1.226 . S
C109 O99 1.307 . S
C110 O102 1.303 . S
C110 O103 1.247 . S
C111 O100 1.253 . S
C111 O101 1.283 . S
C112 O104 1.304 . S
C112 O106 1.272 . S
C113 O105 1.311 . S
C113 O107 1.231 . S
O114 Zn96 1.953 . S
O114 C108 1.298 . S
O115 Zn116 1.953 . S
O115 C131 1.225 . S
Zn116 O115 1.953 . S
Zn116 O117 1.949 . S
Zn116 O123 1.919 . S
Zn116 O128 1.924 . S
O117 Zn116 1.949 . S
O117 Zn118 1.923 . S
O117 Zn119 1.950 . S
O117 Zn120 1.945 . S
Zn118 O117 1.923 . S
Zn118 O121 1.933 . S
Zn118 O124 1.941 . S
Zn118 O125 1.965 . S
Zn119 O117 1.950 . S
Zn119 O126 1.938 . S
Zn119 O127 1.906 . S
Zn119 O137 1.953 . S
Zn120 O117 1.945 . S
Zn120 O122 1.932 . S
Zn120 O129 1.977 . S
Zn120 O130 1.910 . S
O121 Zn118 1.933 . S
O121 C132 1.226 . S
O122 Zn120 1.932 . S
O122 C132 1.307 . S
O123 Zn116 1.919 . S
O123 C134 1.253 . S
O124 Zn118 1.941 . S
O124 C134 1.283 . S
O125 Zn118 1.965 . S
O125 C133 1.303 . S
O126 Zn119 1.938 . S
O126 C133 1.247 . S
O127 Zn119 1.906 . S
O127 C135 1.304 . S
O128 Zn116 1.924 . S
O128 C136 1.311 . S
O129 Zn120 1.977 . S
O129 C135 1.272 . S
O130 Zn120 1.910 . S
O130 C136 1.231 . S
C131 O115 1.225 . S
C131 O137 1.298 . S
C132 O121 1.226 . S
C132 O122 1.307 . S
C133 O125 1.303 . S
C133 O126 1.247 . S
C134 O123 1.253 . S
C134 O124 1.283 . S
C135 O127 1.304 . S
C135 O129 1.272 . S
C136 O128 1.311 . S
C136 O130 1.231 . S
O137 Zn119 1.953 . S
O137 C131 1.298 . S
O138 Zn139 1.953 . S
O138 C154 1.225 . S
Zn139 O138 1.953 . S
Zn139 O140 1.949 . S
Zn139 O146 1.919 . S
Zn139 O151 1.924 . S
O140 Zn139 1.949 . S
O140 Zn141 1.923 . S
O140 Zn142 1.950 . S
O140 Zn143 1.945 . S
Zn141 O140 1.923 . S
Zn141 O144 1.933 . S
Zn141 O147 1.941 . S
Zn141 O148 1.965 . S
Zn142 O140 1.950 . S
Zn142 O149 1.938 . S
Zn142 O150 1.906 . S
Zn142 O160 1.953 . S
Zn143 O140 1.945 . S
Zn143 O145 1.932 . S
Zn143 O152 1.977 . S
Zn143 O153 1.910 . S
O144 Zn141 1.933 . S
O144 C155 1.226 . S
O145 Zn143 1.932 . S
O145 C155 1.307 . S
O146 Zn139 1.919 . S
O146 C157 1.253 . S
O147 Zn141 1.941 . S
O147 C157 1.283 . S
O148 Zn141 1.965 . S
O148 C156 1.303 . S
O149 Zn142 1.938 . S
O149 C156 1.247 . S
O150 Zn142 1.906 . S
O150 C158 1.304 . S
O151 Zn139 1.924 . S
O151 C159 1.311 . S
O152 Zn143 1.977 . S
O152 C158 1.272 . S
O153 Zn143 1.910 . S
O153 C159 1.231 . S
C154 O138 1.225 . S
C154 O160 1.298 . S
C155 O144 1.226 . S
C155 O145 1.307 . S
C156 O148 1.303 . S
C156 O149 1.247 . S
C157 O146 1.253 . S
C157 O147 1.283 . S
C158 O150 1.304 . S
C158 O152 1.272 . S
C159 O151 1.311 . S
C159 O153 1.231 . S
O160 Zn142 1.953 . S
O160 C154 1.298 . S
O161 Zn162 1.953 . S
O161 C177 1.225 . S
Zn162 O161 1.953 . S
Zn162 O163 1.949 . S
Zn162 O169 1.919 . S
Zn162 O174 1.924 . S
O163 Zn162 1.949 . S
O163 Zn164 1.923 . S
O163 Zn165 1.950 . S
O163 Zn166 1.945 . S
Zn164 O163 1.923 . S
Zn164 O167 1.933 . S
Zn164 O170 1.941 . S
Zn164 O171 1.965 . S
Zn165 O163 1.950 . S
Zn165 O172 1.938 . S
Zn165 O173 1.906 . S
Zn165 O183 1.953 . S
Zn166 O163 1.945 . S
Zn166 O168 1.932 . S
Zn166 O175 1.977 . S
Zn166 O176 1.910 . S
O167 Zn164 1.933 . S
O167 C178 1.226 . S
O168 Zn166 1.932 . S
O168 C178 1.307 . S
O169 Zn162 1.919 . S
O169 C180 1.253 . S
O170 Zn164 1.941 . S
O170 C180 1.283 . S
O171 Zn164 1.965 . S
O171 C179 1.303 . S
O172 Zn165 1.938 . S
O172 C179 1.247 . S
O173 Zn165 1.906 . S
O173 C181 1.304 . S
O174 Zn162 1.924 . S
O174 C182 1.311 . S
O175 Zn166 1.977 . S
O175 C181 1.272 . S
O176 Zn166 1.910 . S
O176 C182 1.231 . S
C177 O161 1.225 . S
C177 O183 1.298 . S
C178 O167 1.226 . S
C178 O168 1.307 . S
C179 O171 1.303 . S
C179 O172 1.247 . S
C180 O169 1.253 . S
C180 O170 1.283 . S
C181 O173 1.304 . S
C181 O175 1.272 . S
C182 O174 1.311 . S
C182 O176 1.231 . S
O183 Zn165 1.953 . S
O183 C177 1.298 . S
O184 Zn185 1.953 . S
O184 C200 1.225 . S
Zn185 O184 1.953 . S
Zn185 O186 1.949 . S
Zn185 O192 1.919 . S
Zn185 O197 1.924 . S
O186 Zn185 1.949 . S
O186 Zn187 1.923 . S
O186 Zn188 1.950 . S
O186 Zn189 1.945 . S
Zn187 O186 1.923 . S
Zn187 O190 1.933 . S
Zn187 O193 1.941 . S
Zn187 O194 1.965 . S
Zn188 O186 1.950 . S
Zn188 O195 1.938 . S
Zn188 O196 1.906 . S
Zn188 O206 1.953 . S
Zn189 O186 1.945 . S
Zn189 O191 1.932 . S
Zn189 O198 1.977 . S
Zn189 O199 1.910 . S
O190 Zn187 1.933 . S
O190 C201 1.226 . S
O191 Zn189 1.932 . S
O191 C201 1.307 . S
O192 Zn185 1.919 . S
O192 C203 1.253 . S
O193 Zn187 1.941 . S
O193 C203 1.283 . S
O194 Zn187 1.965 . S
O194 C202 1.303 . S
O195 Zn188 1.938 . S
O195 C202 1.247 . S
O196 Zn188 1.906 . S
O196 C204 1.304 . S
O197 Zn185 1.924 . S
O197 C205 1.311 . S
O198 Zn189 1.977 . S
O198 C204 1.272 . S
O199 Zn189 1.910 . S
O199 C205 1.231 . S
C200 O184 1.225 . S
C200 O206 1.298 . S
C201 O190 1.226 . S
C201 O191 1.307 . S
C202 O194 1.303 . S
C202 O195 1.247 . S
C203 O192 1.253 . S
C203 O193 1.283 . S
C204 O196 1.304 . S
C204 O198 1.272 . S
C205 O197 1.311 . S
C205 O199 1.231 . S
O206 Zn188 1.953 . S
O206 C200 1.298 . S
O207 Zn208 1.953 . S
O207 C223 1.225 . S
Zn208 O207 1.953 . S
Zn208 O209 1.949 . S
Zn208 O215 1.919 . S
Zn208 O220 1.924 . S
O209 Zn208 1.949 . S
O209 Zn210 1.923 . S
O209 Zn211 1.950 . S
O209 Zn212 1.945 . S
Zn210 O209 1.923 . S
Zn210 O213 1.933 . S
Zn210 O216 1.941 . S
Zn210 O217 1.965 . S
Zn211 O209 1.950 . S
Zn211 O218 1.938 . S
Zn211 O219 1.906 . S
Zn211 O229 1.953 . S
Zn212 O209 1.945 . S
Zn212 O214 1.932 . S
Zn212 O221 1.977 . S
Zn212 O222 1.910 . S
O213 Zn210 1.933 . S
O213 C224 1.226 . S
O214 Zn212 1.932 . S
O214 C224 1.307 . S
O215 Zn208 1.919 . S
O215 C226 1.253 . S
O216 Zn210 1.941 . S
O216 C226 1.283 . S
O217 Zn210 1.965 . S
O217 C225 1.303 . S
O218 Zn211 1.938 . S
O218 C225 1.247 . S
O219 Zn211 1.906 . S
O219 C227 1.304 . S
O220 Zn208 1.924 . S
O220 C228 1.311 . S
O221 Zn212 1.977 . S
O221 C227 1.272 . S
O222 Zn212 1.910 . S
O222 C228 1.231 . S
C223 O207 1.225 . S
C223 O229 1.298 . S
C224 O213 1.226 . S
C224 O214 1.307 . S
C225 O217 1.303 . S
C225 O218 1.247 . S
C226 O215 1.253 . S
C226 O216 1.283 . S
C227 O219 1.304 . S
C227 O221 1.272 . S
C228 O220 1.311 . S
C228 O222 1.231 . S
O229 Zn211 1.953 . S
O229 C223 1.298 . S
O230 Zn231 1.953 . S
O230 C246 1.225 . S
Zn231 O230 1.953 . S
Zn231 O232 1.949 . S
Zn231 O238 1.919 . S
Zn231 O243 1.924 . S
O232 Zn231 1.949 . S
O232 Zn233 1.923 . S
O232 Zn234 1.950 . S
O232 Zn235 1.945 . S
Zn233 O232 1.923 . S
Zn233 O236 1.933 . S
Zn233 O239 1.941 . S
Zn233 O240 1.965 . S
Zn234 O232 1.950 . S
Zn234 O241 1.938 . S
Zn234 O242 1.906 . S
Zn234 O252 1.953 . S
Zn235 O232 1.945 . S
Zn235 O237 1.932 . S
Zn235 O244 1.977 . S
Zn235 O245 1.910 . S
O236 Zn233 1.933 . S
O236 C247 1.226 . S
O237 Zn235 1.932 . S
O237 C247 1.307 . S
O238 Zn231 1.919 . S
O238 C249 1.253 . S
O239 Zn233 1.941 . S
O239 C249 1.283 . S
O240 Zn233 1.965 . S
O240 C248 1.303 . S
O241 Zn234 1.938 . S
O241 C248 1.247 . S
O242 Zn234 1.906 . S
O242 C250 1.304 . S
O243 Zn231 1.924 . S
O243 C251 1.311 . S
O244 Zn235 1.977 . S
O244 C250 1.272 . S
O245 Zn235 1.910 . S
O245 C251 1.231 . S
C246 O230 1.225 . S
C246 O252 1.298 . S
C247 O236 1.226 . S
C247 O237 1.307 . S
C248 O240 1.303 . S
C248 O241 1.247 . S
C249 O238 1.253 . S
C249 O239 1.283 . S
C250 O242 1.304 . S
C250 O244 1.272 . S
C251 O243 1.311 . S
C251 O245 1.231 . S
O252 Zn234 1.953 . S
O252 C246 1.298 . S
O253 Zn254 1.953 . S
O253 C269 1.225 . S
Zn254 O253 1.953 . S
Zn254 O255 1.949 . S
Zn254 O261 1.919 . S
Zn254 O266 1.924 . S
O255 Zn254 1.949 . S
O255 Zn256 1.923 . S
O255 Zn257 1.950 . S
O255 Zn258 1.945 . S
Zn256 O255 1.923 . S
Zn256 O259 1.933 . S
Zn256 O262 1.941 . S
Zn256 O263 1.965 . S
Zn257 O255 1.950 . S
Zn257 O264 1.938 . S
Zn257 O265 1.906 . S
Zn257 O275 1.953 . S
Zn258 O255 1.945 . S
Zn258 O260 1.932 . S
Zn258 O267 1.977 . S
Zn258 O268 1.910 . S
O259 Zn256 1.933 . S
O259 C270 1.226 . S
O260 Zn258 1.932 . S
O260 C270 1.307 . S
O261 Zn254 1.919 . S
O261 C272 1.253 . S
O262 Zn256 1.941 . S
O262 C272 1.283 . S
O263 Zn256 1.965 . S
O263 C271 1.303 . S
O264 Zn257 1.938 . S
O264 C271 1.247 . S
O265 Zn257 1.906 . S
O265 C273 1.304 . S
O266 Zn254 1.924 . S
O266 C274 1.311 . S
O267 Zn258 1.977 . S
O267 C273 1.272 . S
O268 Zn258 1.910 . S
O268 C274 1.231 . S
C269 O253 1.225 . S
C269 O275 1.298 . S
C270 O259 1.226 . S
C270 O260 1.307 . S
C271 O263 1.303 . S
C271 O264 1.247 . S
C272 O261 1.253 . S
C272 O262 1.283 . S
C273 O265 1.304 . S
C273 O267 1.272 . S
C274 O266 1.311 . S
C274 O268 1.231 . S
O275 Zn257 1.953 . S
O275 C269 1.298 . S
C276 C277 1.349 . S
C276 C278 1.327 . S
C276 H301 0.950 . S
C277 C276 1.349 . S
C277 C293 1.349 . S
C278 C276 1.327 . S
C278 C297 1.414 1_565 S
C278 H302 0.950 . S
C279 C296 1.574 . S
C279 C298 1.368 . S
C279 H303 0.949 . S
H280 C284 0.949 . S
C281 C282 1.349 . S
C281 C283 1.327 . S
C281 H304 0.950 . S
C282 C281 1.349 . S
C282 C294 1.349 . S
C283 C281 1.327 . S
C283 C299 1.429 . S
C283 H305 0.950 . S
C284 H280 0.949 . S
C284 C292 1.574 . S
C284 C300 1.368 . S
H285 C293 0.950 . S
H286 C291 0.950 . S
H287 C292 0.949 . S
H288 C294 0.950 . S
H289 C295 0.950 . S
H290 C296 0.949 . S
C291 H286 0.950 . S
C291 C293 1.327 . S
C291 C297 1.407 1_565 S
C292 C284 1.574 . S
C292 H287 0.949 . S
C292 C298 1.368 . S
C293 C277 1.349 . S
C293 H285 0.950 . S
C293 C291 1.327 . S
C294 C282 1.349 . S
C294 H288 0.950 . S
C294 C295 1.327 . S
C295 H289 0.950 . S
C295 C294 1.327 . S
C295 C299 1.429 . S
C296 C279 1.574 . S
C296 H290 0.949 . S
C296 C300 1.368 . S
C297 C278 1.414 1_545 S
C297 C291 1.407 1_545 S
C297 C298 1.556 . S
C298 C279 1.368 . S
C298 C292 1.368 . S
C298 C297 1.556 . S
C299 C283 1.429 . S
C299 C295 1.429 . S
C299 C300 1.523 . S
C300 C284 1.368 . S
C300 C296 1.368 . S
C300 C299 1.523 . S
H301 C276 0.950 . S
H302 C278 0.950 . S
H303 C279 0.949 . S
H304 C281 0.950 . S
H305 C283 0.950 . S
C306 C307 1.349 . S
C306 C308 1.327 . S
C306 H331 0.950 . S
C307 C306 1.349 . S
C307 C323 1.349 . S
C308 C306 1.327 . S
C308 C327 1.429 . S
C308 H332 0.950 . S
C309 C326 1.574 . S
C309 C328 1.368 . S
C309 H333 0.949 . S
H310 C314 0.949 . S
C311 C312 1.349 1_455 S
C311 C313 1.327 . S
C311 H334 0.950 1_455 S
C312 C311 1.349 1_655 S
C312 C324 1.349 1_655 S
C313 C311 1.327 . S
C313 C329 1.429 . S
C313 H335 0.950 . S
C314 H310 0.949 . S
C314 C322 1.574 . S
C314 C330 1.368 . S
H315 C323 0.950 . S
H316 C321 0.950 . S
H317 C322 0.949 . S
H318 C324 0.950 1_655 S
H319 C325 0.950 . S
H320 C326 0.949 . S
C321 H316 0.950 . S
C321 C323 1.327 . S
C321 C327 1.429 . S
C322 C314 1.574 . S
C322 H317 0.949 . S
C322 C328 1.368 . S
C323 C307 1.349 . S
C323 H315 0.950 . S
C323 C321 1.327 . S
C324 C312 1.349 1_455 S
C324 H318 0.950 1_455 S
C324 C325 1.327 . S
C325 H319 0.950 . S
C325 C324 1.327 . S
C325 C329 1.429 . S
C326 C309 1.574 . S
C326 H320 0.949 . S
C326 C330 1.368 . S
C327 C308 1.429 . S
C327 C321 1.429 . S
C327 C328 1.523 . S
C328 C309 1.368 . S
C328 C322 1.368 . S
C328 C327 1.523 . S
C329 C313 1.429 . S
C329 C325 1.429 . S
C329 C330 1.523 . S
C330 C314 1.368 . S
C330 C326 1.368 . S
C330 C329 1.523 . S
H331 C306 0.950 . S
H332 C308 0.950 . S
H333 C309 0.949 . S
H334 C311 0.950 1_655 S
H335 C313 0.950 . S
C336 C337 1.349 1_545 S
C336 C338 1.327 . S
C336 H361 0.950 1_545 S
C337 C336 1.349 1_565 S
C337 C353 1.349 1_565 S
C338 C336 1.327 . S
C338 C357 1.429 . S
C338 H362 0.950 . S
C339 C356 1.574 . S
C339 C358 1.368 . S
C339 H363 0.949 . S
H340 C344 0.949 . S
C341 C342 1.349 . S
C341 C343 1.327 . S
C341 H364 0.950 . S
C342 C341 1.349 . S
C342 C354 1.349 . S
C343 C341 1.327 . S
C343 C359 1.420 1_455 S
C343 H365 0.950 . S
C344 H340 0.949 . S
C344 C352 1.574 . S
C344 C360 1.368 . S
H345 C353 0.950 . S
H346 C351 0.950 . S
H347 C352 0.949 . S
H348 C354 0.950 . S
H349 C355 0.950 . S
H350 C356 0.949 . S
C351 H346 0.950 . S
C351 C353 1.327 . S
C351 C357 1.429 . S
C352 C344 1.574 . S
C352 H347 0.949 . S
C352 C358 1.368 . S
C353 C337 1.349 1_545 S
C353 H345 0.950 . S
C353 C351 1.327 . S
C354 C342 1.349 . S
C354 H348 0.950 . S
C354 C355 1.327 . S
C355 H349 0.950 . S
C355 C354 1.327 . S
C355 C359 1.415 1_455 S
C356 C339 1.574 . S
C356 H350 0.949 . S
C356 C360 1.368 . S
C357 C338 1.429 . S
C357 C351 1.429 . S
C357 C358 1.523 . S
C358 C339 1.368 . S
C358 C352 1.368 . S
C358 C357 1.523 . S
C359 C343 1.420 1_655 S
C359 C355 1.415 1_655 S
C359 C360 1.544 . S
C360 C344 1.368 . S
C360 C356 1.368 . S
C360 C359 1.544 . S
H361 C336 0.950 1_565 S
H362 C338 0.950 . S
H363 C339 0.949 . S
H364 C341 0.950 . S
H365 C343 0.950 . S
C366 C367 1.349 . S
C366 C368 1.327 . S
C366 H391 0.950 . S
C367 C366 1.349 . S
C367 C383 1.349 . S
C368 C366 1.327 . S
C368 C387 1.429 . S
C368 H392 0.950 . S
C369 C386 1.574 . S
C369 C388 1.368 . S
C369 H393 0.949 . S
H370 C374 0.949 . S
C371 C372 1.349 . S
C371 C373 1.327 . S
C371 H394 0.950 . S
C372 C371 1.349 . S
C372 C384 1.349 . S
C373 C371 1.327 . S
C373 C389 1.411 1_545 S
C373 H395 0.950 . S
C374 H370 0.949 . S
C374 C382 1.574 . S
C374 C390 1.368 . S
H375 C383 0.950 . S
H376 C381 0.950 . S
H377 C382 0.949 . S
H378 C384 0.950 . S
H379 C385 0.950 1_565 S
H380 C386 0.949 . S
C381 H376 0.950 . S
C381 C383 1.327 . S
C381 C387 1.429 . S
C382 C374 1.574 . S
C382 H377 0.949 . S
C382 C388 1.368 . S
C383 C367 1.349 . S
C383 H375 0.950 . S
C383 C381 1.327 . S
C384 C372 1.349 . S
C384 H378 0.950 . S
C384 C385 1.327 . S
C385 H379 0.950 1_545 S
C385 C384 1.327 . S
C385 C389 1.410 1_545 S
C386 C369 1.574 . S
C386 H380 0.949 . S
C386 C390 1.368 . S
C387 C368 1.429 . S
C387 C381 1.429 . S
C387 C388 1.523 . S
C388 C369 1.368 . S
C388 C382 1.368 . S
C388 C387 1.523 . S
C389 C373 1.411 1_565 S
C389 C385 1.410 1_565 S
C389 C390 1.556 . S
C390 C374 1.368 . S
C390 C386 1.368 . S
C390 C389 1.556 . S
H391 C366 0.950 . S
H392 C368 0.950 . S
H393 C369 0.949 . S
H394 C371 0.950 . S
H395 C373 0.950 . S
C396 C397 1.349 1_655 S
C396 C398 1.327 . S
C396 H421 0.950 . S
C397 C396 1.349 1_455 S
C397 C413 1.359 . S
C398 C396 1.327 . S
C398 C417 1.429 . S
C398 H422 0.950 . S
C399 C416 1.574 . S
C399 C418 1.368 . S
C399 H423 0.949 . S
H400 C404 0.949 . S
C401 C402 1.349 . S
C401 C403 1.327 . S
C401 H424 0.950 . S
C402 C401 1.349 . S
C402 C414 1.349 . S
C403 C401 1.327 . S
C403 C419 1.429 . S
C403 H425 0.950 . S
C404 H400 0.949 . S
C404 C412 1.574 . S
C404 C420 1.368 . S
H405 C413 0.965 . S
H406 C411 0.950 . S
H407 C412 0.949 . S
H408 C414 0.950 . S
H409 C415 0.950 . S
H410 C416 0.949 . S
C411 H406 0.950 . S
C411 C413 1.302 1_655 S
C411 C417 1.429 . S
C412 C404 1.574 . S
C412 H407 0.949 . S
C412 C418 1.368 . S
C413 C397 1.359 . S
C413 H405 0.965 . S
C413 C411 1.302 1_455 S
C414 C402 1.349 . S
C414 H408 0.950 . S
C414 C415 1.327 . S
C415 H409 0.950 . S
C415 C414 1.327 . S
C415 C419 1.429 . S
C416 C399 1.574 . S
C416 H410 0.949 . S
C416 C420 1.368 . S
C417 C398 1.429 . S
C417 C411 1.429 . S
C417 C418 1.523 . S
C418 C399 1.368 . S
C418 C412 1.368 . S
C418 C417 1.523 . S
C419 C403 1.429 . S
C419 C415 1.429 . S
C419 C420 1.523 . S
C420 C404 1.368 . S
C420 C416 1.368 . S
C420 C419 1.523 . S
H421 C396 0.950 . S
H422 C398 0.950 . S
H423 C399 0.949 . S
H424 C401 0.950 . S
H425 C403 0.950 . S
C426 C427 1.349 . S
C426 C428 1.327 . S
C426 H451 0.950 . S
C427 C426 1.349 . S
C427 C443 1.349 . S
C428 C426 1.327 . S
C428 C447 1.406 1_655 S
C428 H452 0.950 . S
C429 C446 1.574 . S
C429 C448 1.368 . S
C429 H453 0.949 . S
H430 C434 0.949 . S
C431 C432 1.349 1_565 S
C431 C433 1.327 . S
C431 H454 0.950 . S
C432 C431 1.349 1_545 S
C432 C444 1.349 . S
C433 C431 1.327 . S
C433 C449 1.429 . S
C433 H455 0.950 . S
C434 H430 0.949 . S
C434 C442 1.574 . S
C434 C450 1.368 . S
H435 C443 0.950 . S
H436 C441 0.931 1_455 S
H437 C442 0.949 . S
H438 C444 0.950 . S
H439 C445 0.950 . S
H440 C446 0.949 . S
C441 H436 0.931 1_655 S
C441 C443 1.327 . S
C441 C447 1.429 1_655 S
C442 C434 1.574 . S
C442 H437 0.949 . S
C442 C448 1.368 . S
C443 C427 1.349 . S
C443 H435 0.950 . S
C443 C441 1.327 . S
C444 C432 1.349 . S
C444 H438 0.950 . S
C444 C445 1.327 1_545 S
C445 H439 0.950 . S
C445 C444 1.327 1_565 S
C445 C449 1.429 . S
C446 C429 1.574 . S
C446 H440 0.949 . S
C446 C450 1.368 . S
C447 C428 1.406 1_455 S
C447 C441 1.429 1_455 S
C447 C448 1.544 . S
C448 C429 1.368 . S
C448 C442 1.368 . S
C448 C447 1.544 . S
C449 C433 1.429 . S
C449 C445 1.429 . S
C449 C450 1.523 . S
C450 C434 1.368 . S
C450 C446 1.368 . S
C450 C449 1.523 . S
H451 C426 0.950 . S
H452 C428 0.950 . S
H453 C429 0.949 . S
H454 C431 0.950 . S
H455 C433 0.950 . S
C456 C457 1.349 . S
C456 C458 1.327 . S
C456 H481 0.950 . S
C457 C456 1.349 . S
C457 C473 1.349 . S
C458 C456 1.327 . S
C458 C477 1.407 1_455 S
C458 H482 0.950 . S
C459 C476 1.574 . S
C459 C478 1.368 . S
C459 H483 0.949 . S
H460 C464 0.949 . S
C461 C462 1.349 . S
C461 C463 1.327 . S
C461 H484 0.950 . S
C462 C461 1.349 . S
C462 C474 1.349 . S
C463 C461 1.327 . S
C463 C479 1.429 . S
C463 H485 0.950 . S
C464 H460 0.949 . S
C464 C472 1.574 . S
C464 C480 1.368 . S
H465 C473 0.950 . S
H466 C471 0.950 . S
H467 C472 0.949 . S
H468 C474 0.950 . S
H469 C475 0.950 . S
H470 C476 0.949 . S
C471 H466 0.950 . S
C471 C473 1.327 . S
C471 C477 1.415 1_455 S
C472 C464 1.574 . S
C472 H467 0.949 . S
C472 C478 1.368 . S
C473 C457 1.349 . S
C473 H465 0.950 . S
C473 C471 1.327 . S
C474 C462 1.349 . S
C474 H468 0.950 . S
C474 C475 1.327 . S
C475 H469 0.950 . S
C475 C474 1.327 . S
C475 C479 1.429 . S
C476 C459 1.574 . S
C476 H470 0.949 . S
C476 C480 1.368 . S
C477 C458 1.407 1_655 S
C477 C471 1.415 1_655 S
C477 C478 1.556 . S
C478 C459 1.368 . S
C478 C472 1.368 . S
C478 C477 1.556 . S
C479 C463 1.429 . S
C479 C475 1.429 . S
C479 C480 1.523 . S
C480 C464 1.368 . S
C480 C476 1.368 . S
C480 C479 1.523 . S
H481 C456 0.950 . S
H482 C458 0.950 . S
H483 C459 0.949 . S
H484 C461 0.950 . S
H485 C463 0.950 . S
C486 C487 1.349 1_455 S
C486 C488 1.327 . S
C486 H511 0.950 . S
C487 C486 1.349 1_655 S
C487 C503 1.349 1_655 S
C488 C486 1.327 . S
C488 C507 1.429 . S
C488 H512 0.950 . S
C489 C506 1.574 . S
C489 C508 1.368 . S
C489 H513 0.949 . S
H490 C494 0.949 . S
C491 C492 1.349 . S
C491 C493 1.327 . S
C491 H514 0.950 . S
C492 C491 1.349 . S
C492 C504 1.349 . S
C493 C491 1.327 . S
C493 C509 1.405 1_545 S
C493 H515 0.950 . S
C494 H490 0.949 . S
C494 C502 1.574 . S
C494 C510 1.368 . S
H495 C503 0.950 1_655 S
H496 C501 0.950 . S
H497 C502 0.949 . S
H498 C504 0.950 . S
H499 C505 0.950 1_565 S
H500 C506 0.949 . S
C501 H496 0.950 . S
C501 C503 1.327 . S
C501 C507 1.429 . S
C502 C494 1.574 . S
C502 H497 0.949 . S
C502 C508 1.368 . S
C503 C487 1.349 1_455 S
C503 H495 0.950 1_455 S
C503 C501 1.327 . S
C504 C492 1.349 . S
C504 H498 0.950 . S
C504 C505 1.327 . S
C505 H499 0.950 1_545 S
C505 C504 1.327 . S
C505 C509 1.430 1_545 S
C506 C489 1.574 . S
C506 H500 0.949 . S
C506 C510 1.368 . S
C507 C488 1.429 . S
C507 C501 1.429 . S
C507 C508 1.523 . S
C508 C489 1.368 . S
C508 C502 1.368 . S
C508 C507 1.523 . S
C509 C493 1.405 1_565 S
C509 C505 1.430 1_565 S
C509 C510 1.544 . S
C510 C494 1.368 . S
C510 C506 1.368 . S
C510 C509 1.544 . S
H511 C486 0.950 . S
H512 C488 0.950 . S
H513 C489 0.949 . S
H514 C491 0.950 . S
H515 C493 0.950 . S
C516 C517 1.349 . S
C516 C518 1.327 . S
C516 H541 0.950 . S
C517 C516 1.349 . S
C517 C533 1.349 . S
C518 C516 1.327 . S
C518 C537 1.429 . S
C518 H542 0.950 . S
C519 C536 1.574 . S
C519 C538 1.368 . S
C519 H543 0.949 . S
H520 C524 0.949 . S
C521 C522 1.349 1_545 S
C521 C523 1.327 . S
C521 H544 0.950 . S
C522 C521 1.349 1_565 S
C522 C534 1.349 . S
C523 C521 1.327 . S
C523 C539 1.429 . S
C523 H545 0.950 . S
C524 H520 0.949 . S
C524 C532 1.574 . S
C524 C540 1.368 . S
H525 C533 0.950 . S
H526 C531 0.950 . S
H527 C532 0.949 . S
H528 C534 0.950 . S
H529 C535 0.950 . S
H530 C536 0.949 . S
C531 H526 0.950 . S
C531 C533 1.327 . S
C531 C537 1.429 . S
C532 C524 1.574 . S
C532 H527 0.949 . S
C532 C538 1.368 . S
C533 C517 1.349 . S
C533 H525 0.950 . S
C533 C531 1.327 . S
C534 C522 1.349 . S
C534 H528 0.950 . S
C534 C535 1.327 1_565 S
C535 H529 0.950 . S
C535 C534 1.327 1_545 S
C535 C539 1.429 . S
C536 C519 1.574 . S
C536 H530 0.949 . S
C536 C540 1.368 . S
C537 C518 1.429 . S
C537 C531 1.429 . S
C537 C538 1.523 . S
C538 C519 1.368 . S
C538 C532 1.368 . S
C538 C537 1.523 . S
C539 C523 1.429 . S
C539 C535 1.429 . S
C539 C540 1.523 . S
C540 C524 1.368 . S
C540 C536 1.368 . S
C540 C539 1.523 . S
H541 C516 0.950 . S
H542 C518 0.950 . S
H543 C519 0.949 . S
H544 C521 0.950 . S
H545 C523 0.950 . S
C546 C547 1.349 . S
C546 C548 1.327 . S
C546 H571 0.950 . S
C547 C546 1.349 . S
C547 C563 1.349 . S
C548 C546 1.327 . S
C548 C567 1.429 . S
C548 H572 0.950 . S
C549 C566 1.574 . S
C549 C568 1.368 . S
C549 H573 0.949 . S
H550 C554 0.949 . S
C551 C552 1.349 . S
C551 C553 1.327 . S
C551 H574 0.950 . S
C552 C551 1.349 . S
C552 C564 1.349 . S
C553 C551 1.327 . S
C553 C569 1.415 1_655 S
C553 H575 0.950 . S
C554 H550 0.949 . S
C554 C562 1.574 . S
C554 C570 1.368 . S
H555 C563 0.950 . S
H556 C561 0.950 . S
H557 C562 0.949 . S
H558 C564 0.950 . S
H559 C565 0.950 1_455 S
H560 C566 0.949 . S
C561 H556 0.950 . S
C561 C563 1.327 . S
C561 C567 1.429 . S
C562 C554 1.574 . S
C562 H557 0.949 . S
C562 C568 1.368 . S
C563 C547 1.349 . S
C563 H555 0.950 . S
C563 C561 1.327 . S
C564 C552 1.349 . S
C564 H558 0.950 . S
C564 C565 1.327 . S
C565 H559 0.950 1_655 S
C565 C564 1.327 . S
C565 C569 1.406 1_655 S
C566 C549 1.574 . S
C566 H560 0.949 . S
C566 C570 1.368 . S
C567 C548 1.429 . S
C567 C561 1.429 . S
C567 C568 1.523 . S
C568 C549 1.368 . S
C568 C562 1.368 . S
C568 C567 1.523 . S
C569 C553 1.415 1_455 S
C569 C565 1.406 1_455 S
C569 C570 1.556 . S
C570 C554 1.368 . S
C570 C566 1.368 . S
C570 C569 1.556 . S
H571 C546 0.950 . S
H572 C548 0.950 . S
H573 C549 0.949 . S
H574 C551 0.950 . S
H575 C553 0.950 . S
C576 C577 1.349 1_655 S
C576 C578 1.327 . S
C576 H601 0.950 . S
C577 C576 1.349 1_455 S
C577 C593 1.349 . S
C578 C576 1.327 . S
C578 C597 1.429 . S
C578 H602 0.950 . S
C579 C596 1.574 . S
C579 C598 1.368 . S
C579 H603 0.949 . S
H580 C584 0.949 . S
C581 C582 1.349 . S
C581 C583 1.327 . S
C581 H604 0.950 . S
C582 C581 1.349 . S
C582 C594 1.349 . S
C583 C581 1.327 . S
C583 C599 1.403 1_565 S
C583 H605 0.950 . S
C584 H580 0.949 . S
C584 C592 1.574 . S
C584 C600 1.368 . S
H585 C593 0.950 . S
H586 C591 0.950 . S
H587 C592 0.949 . S
H588 C594 0.950 . S
H589 C595 0.950 1_545 S
H590 C596 0.949 . S
C591 H586 0.950 . S
C591 C593 1.327 1_655 S
C591 C597 1.429 . S
C592 C584 1.574 . S
C592 H587 0.949 . S
C592 C598 1.368 . S
C593 C577 1.349 . S
C593 H585 0.950 . S
C593 C591 1.327 1_455 S
C594 C582 1.349 . S
C594 H588 0.950 . S
C594 C595 1.327 . S
C595 H589 0.950 1_565 S
C595 C594 1.327 . S
C595 C599 1.432 1_565 S
C596 C579 1.574 . S
C596 H590 0.949 . S
C596 C600 1.368 . S
C597 C578 1.429 . S
C597 C591 1.429 . S
C597 C598 1.523 . S
C598 C579 1.368 . S
C598 C592 1.368 . S
C598 C597 1.523 . S
C599 C583 1.403 1_545 S
C599 C595 1.432 1_545 S
C599 C600 1.544 . S
C600 C584 1.368 . S
C600 C596 1.368 . S
C600 C599 1.544 . S
H601 C576 0.950 . S
H602 C578 0.950 . S
H603 C579 0.949 . S
H604 C581 0.950 . S
H605 C583 0.950 . S
C606 C607 1.349 . S
C606 C608 1.327 . S
C606 H631 0.950 . S
C607 C606 1.349 . S
C607 C623 1.349 . S
C608 C606 1.327 . S
C608 C627 1.429 . S
C608 H632 0.950 . S
C609 C626 1.574 . S
C609 C628 1.368 . S
C609 H633 0.949 . S
H610 C614 0.949 . S
C611 C612 1.349 1_565 S
C611 C613 1.327 . S
C611 H634 0.950 . S
C612 C611 1.349 1_545 S
C612 C624 1.349 . S
C613 C611 1.327 . S
C613 C629 1.429 . S
C613 H635 0.950 . S
C614 H610 0.949 . S
C614 C622 1.574 . S
C614 C630 1.368 . S
H615 C623 0.950 . S
H616 C621 0.950 . S
H617 C622 0.949 . S
H618 C624 0.950 . S
H619 C625 0.950 . S
H620 C626 0.949 . S
C621 H616 0.950 . S
C621 C623 1.327 . S
C621 C627 1.429 . S
C622 C614 1.574 . S
C622 H617 0.949 . S
C622 C628 1.368 . S
C623 C607 1.349 . S
C623 H615 0.950 . S
C623 C621 1.327 . S
C624 C612 1.349 . S
C624 H618 0.950 . S
C624 C625 1.327 1_545 S
C625 H619 0.950 . S
C625 C624 1.327 1_565 S
C625 C629 1.429 . S
C626 C609 1.574 . S
C626 H620 0.949 . S
C626 C630 1.368 . S
C627 C608 1.429 . S
C627 C621 1.429 . S
C627 C628 1.523 . S
C628 C609 1.368 . S
C628 C622 1.368 . S
C628 C627 1.523 . S
C629 C613 1.429 . S
C629 C625 1.429 . S
C629 C630 1.523 . S
C630 C614 1.368 . S
C630 C626 1.368 . S
C630 C629 1.523 . S
H631 C606 0.950 . S
H632 C608 0.950 . S
H633 C609 0.949 . S
H634 C611 0.950 . S
H635 C613 0.950 . S
C636 C637 1.349 . S
C636 C638 1.327 . S
C636 H661 0.950 . S
C637 C636 1.349 . S
C637 C653 1.349 . S
C638 C636 1.327 . S
C638 C657 1.429 . S
C638 H662 0.950 . S
C639 C656 1.574 . S
C639 C658 1.368 . S
C639 H663 0.949 . S
H640 C644 0.949 . S
C641 C642 1.349 . S
C641 C643 1.327 . S
C641 H664 0.950 . S
C642 C641 1.349 . S
C642 C654 1.349 . S
C643 C641 1.327 . S
C643 C659 1.429 . S
C643 H665 0.950 . S
C644 H640 0.949 . S
C644 C652 1.574 . S
C644 C660 1.368 . S
H645 C653 0.950 . S
H646 C651 0.950 . S
H647 C652 0.949 . S
H648 C654 0.950 . S
H649 C655 0.950 . S
H650 C656 0.949 . S
C651 H646 0.950 . S
C651 C653 1.327 . S
C651 C657 1.429 . S
C652 C644 1.574 . S
C652 H647 0.949 . S
C652 C658 1.368 . S
C653 C637 1.349 . S
C653 H645 0.950 . S
C653 C651 1.327 . S
C654 C642 1.349 . S
C654 H648 0.950 . S
C654 C655 1.327 . S
C655 H649 0.950 . S
C655 C654 1.327 . S
C655 C659 1.429 . S
C656 C639 1.574 . S
C656 H650 0.949 . S
C656 C660 1.368 . S
C657 C638 1.429 . S
C657 C651 1.429 . S
C657 C658 1.523 . S
C658 C639 1.368 . S
C658 C652 1.368 . S
C658 C657 1.523 . S
C659 C643 1.429 . S
C659 C655 1.429 . S
C659 C660 1.523 . S
C660 C644 1.368 . S
C660 C656 1.368 . S
C660 C659 1.523 . S
H661 C636 0.950 . S
H662 C638 0.950 . S
H663 C639 0.949 . S
H664 C641 0.950 . S
H665 C643 0.950 . S
C666 C667 1.349 . S
C666 C668 1.327 . S
C666 H691 0.950 . S
C667 C666 1.349 . S
C667 C683 1.349 . S
C668 C666 1.327 . S
C668 C687 1.429 . S
C668 H692 0.950 . S
C669 C686 1.574 . S
C669 C688 1.368 . S
C669 H693 0.949 . S
H670 C674 0.949 . S
C671 C672 1.349 . S
C671 C673 1.327 . S
C671 H694 0.950 . S
C672 C671 1.349 . S
C672 C684 1.349 . S
C673 C671 1.327 . S
C673 C689 1.429 . S
C673 H695 0.950 . S
C674 H670 0.949 . S
C674 C682 1.574 . S
C674 C690 1.368 . S
H675 C683 0.950 . S
H676 C681 0.950 . S
H677 C682 0.949 . S
H678 C684 0.950 . S
H679 C685 0.950 . S
H680 C686 0.949 . S
C681 H676 0.950 . S
C681 C683 1.327 . S
C681 C687 1.429 . S
C682 C674 1.574 . S
C682 H677 0.949 . S
C682 C688 1.368 . S
C683 C667 1.349 . S
C683 H675 0.950 . S
C683 C681 1.327 . S
C684 C672 1.349 . S
C684 H678 0.950 . S
C684 C685 1.327 . S
C685 H679 0.950 . S
C685 C684 1.327 . S
C685 C689 1.429 . S
C686 C669 1.574 . S
C686 H680 0.949 . S
C686 C690 1.368 . S
C687 C668 1.429 . S
C687 C681 1.429 . S
C687 C688 1.523 . S
C688 C669 1.368 . S
C688 C682 1.368 . S
C688 C687 1.523 . S
C689 C673 1.429 . S
C689 C685 1.429 . S
C689 C690 1.523 . S
C690 C674 1.368 . S
C690 C686 1.368 . S
C690 C689 1.523 . S
H691 C666 0.950 . S
H692 C668 0.950 . S
H693 C669 0.949 . S
H694 C671 0.950 . S
H695 C673 0.950 . S
C696 C697 1.349 . S
C696 C698 1.327 . S
C696 H721 0.950 . S
C697 C696 1.349 . S
C697 C713 1.349 . S
C698 C696 1.327 . S
C698 C717 1.429 . S
C698 H722 0.950 . S
C699 C716 1.574 . S
C699 C718 1.368 . S
C699 H723 0.949 . S
H700 C704 0.949 . S
C701 C702 1.349 . S
C701 C703 1.327 . S
C701 H724 0.950 . S
C702 C701 1.349 . S
C702 C714 1.349 . S
C703 C701 1.327 . S
C703 C719 1.429 . S
C703 H725 0.950 . S
C704 H700 0.949 . S
C704 C712 1.574 . S
C704 C720 1.368 . S
H705 C713 0.950 . S
H706 C711 0.950 . S
H707 C712 0.949 . S
H708 C714 0.950 . S
H709 C715 0.950 . S
H710 C716 0.949 . S
C711 H706 0.950 . S
C711 C713 1.327 . S
C711 C717 1.429 . S
C712 C704 1.574 . S
C712 H707 0.949 . S
C712 C718 1.368 . S
C713 C697 1.349 . S
C713 H705 0.950 . S
C713 C711 1.327 . S
C714 C702 1.349 . S
C714 H708 0.950 . S
C714 C715 1.327 . S
C715 H709 0.950 . S
C715 C714 1.327 . S
C715 C719 1.429 . S
C716 C699 1.574 . S
C716 H710 0.949 . S
C716 C720 1.368 . S
C717 C698 1.429 . S
C717 C711 1.429 . S
C717 C718 1.523 . S
C718 C699 1.368 . S
C718 C712 1.368 . S
C718 C717 1.523 . S
C719 C703 1.429 . S
C719 C715 1.429 . S
C719 C720 1.523 . S
C720 C704 1.368 . S
C720 C716 1.368 . S
C720 C719 1.523 . S
H721 C696 0.950 . S
H722 C698 0.950 . S
H723 C699 0.949 . S
H724 C701 0.950 . S
H725 C703 0.950 . S
C726 C727 1.349 . S
C726 C728 1.327 . S
C726 H751 0.950 . S
C727 C726 1.349 . S
C727 C743 1.349 . S
C728 C726 1.327 . S
C728 C747 1.429 . S
C728 H752 0.950 . S
C729 C746 1.574 . S
C729 C748 1.368 . S
C729 H753 0.949 . S
H730 C734 0.949 . S
C731 C732 1.349 . S
C731 C733 1.327 . S
C731 H754 0.950 . S
C732 C731 1.349 . S
C732 C744 1.349 . S
C733 C731 1.327 . S
C733 C749 1.429 . S
C733 H755 0.950 . S
C734 H730 0.949 . S
C734 C742 1.574 . S
C734 C750 1.368 . S
H735 C743 0.950 . S
H736 C741 0.950 . S
H737 C742 0.949 . S
H738 C744 0.950 . S
H739 C745 0.950 . S
H740 C746 0.949 . S
C741 H736 0.950 . S
C741 C743 1.327 . S
C741 C747 1.429 . S
C742 C734 1.574 . S
C742 H737 0.949 . S
C742 C748 1.368 . S
C743 C727 1.349 . S
C743 H735 0.950 . S
C743 C741 1.327 . S
C744 C732 1.349 . S
C744 H738 0.950 . S
C744 C745 1.327 . S
C745 H739 0.950 . S
C745 C744 1.327 . S
C745 C749 1.429 . S
C746 C729 1.574 . S
C746 H740 0.949 . S
C746 C750 1.368 . S
C747 C728 1.429 . S
C747 C741 1.429 . S
C747 C748 1.523 . S
C748 C729 1.368 . S
C748 C742 1.368 . S
C748 C747 1.523 . S
C749 C733 1.429 . S
C749 C745 1.429 . S
C749 C750 1.523 . S
C750 C734 1.368 . S
C750 C746 1.368 . S
C750 C749 1.523 . S
H751 C726 0.950 . S
H752 C728 0.950 . S
H753 C729 0.949 . S
H754 C731 0.950 . S
H755 C733 0.950 . S
C756 C757 1.349 . S
C756 C758 1.327 . S
C756 H781 0.950 . S
C757 C756 1.349 . S
C757 C773 1.349 . S
C758 C756 1.327 . S
C758 C777 1.429 . S
C758 H782 0.950 . S
C759 C776 1.574 . S
C759 C778 1.368 . S
C759 H783 0.949 . S
H760 C764 0.949 . S
C761 C762 1.349 . S
C761 C763 1.327 . S
C761 H784 0.950 . S
C762 C761 1.349 . S
C762 C774 1.349 . S
C763 C761 1.327 . S
C763 C779 1.429 . S
C763 H785 0.950 . S
C764 H760 0.949 . S
C764 C772 1.574 . S
C764 C780 1.368 . S
H765 C773 0.950 . S
H766 C771 0.950 . S
H767 C772 0.949 . S
H768 C774 0.950 . S
H769 C775 0.950 . S
H770 C776 0.949 . S
C771 H766 0.950 . S
C771 C773 1.327 . S
C771 C777 1.429 . S
C772 C764 1.574 . S
C772 H767 0.949 . S
C772 C778 1.368 . S
C773 C757 1.349 . S
C773 H765 0.950 . S
C773 C771 1.327 . S
C774 C762 1.349 . S
C774 H768 0.950 . S
C774 C775 1.327 . S
C775 H769 0.950 . S
C775 C774 1.327 . S
C775 C779 1.429 . S
C776 C759 1.574 . S
C776 H770 0.949 . S
C776 C780 1.368 . S
C777 C758 1.429 . S
C777 C771 1.429 . S
C777 C778 1.523 . S
C778 C759 1.368 . S
C778 C772 1.368 . S
C778 C777 1.523 . S
C779 C763 1.429 . S
C779 C775 1.429 . S
C779 C780 1.523 . S
C780 C764 1.368 . S
C780 C776 1.368 . S
C780 C779 1.523 . S
H781 C756 0.950 . S
H782 C758 0.950 . S
H783 C759 0.949 . S
H784 C761 0.950 . S
H785 C763 0.950 . S
C786 C787 1.349 . S
C786 C788 1.327 . S
C786 H811 0.950 . S
C787 C786 1.349 . S
C787 C803 1.349 . S
C788 C786 1.327 . S
C788 C807 1.429 . S
C788 H812 0.950 . S
C789 C806 1.574 . S
C789 C808 1.368 . S
C789 H813 0.949 . S
H790 C794 0.949 . S
C791 C792 1.349 . S
C791 C793 1.327 . S
C791 H814 0.950 . S
C792 C791 1.349 . S
C792 C804 1.349 . S
C793 C791 1.327 . S
C793 C809 1.429 . S
C793 H815 0.950 . S
C794 H790 0.949 . S
C794 C802 1.574 . S
C794 C810 1.368 . S
H795 C803 0.950 . S
H796 C801 0.950 . S
H797 C802 0.949 . S
H798 C804 0.950 . S
H799 C805 0.950 . S
H800 C806 0.949 . S
C801 H796 0.950 . S
C801 C803 1.327 . S
C801 C807 1.429 . S
C802 C794 1.574 . S
C802 H797 0.949 . S
C802 C808 1.368 . S
C803 C787 1.349 . S
C803 H795 0.950 . S
C803 C801 1.327 . S
C804 C792 1.349 . S
C804 H798 0.950 . S
C804 C805 1.327 . S
C805 H799 0.950 . S
C805 C804 1.327 . S
C805 C809 1.429 . S
C806 C789 1.574 . S
C806 H800 0.949 . S
C806 C810 1.368 . S
C807 C788 1.429 . S
C807 C801 1.429 . S
C807 C808 1.523 . S
C808 C789 1.368 . S
C808 C802 1.368 . S
C808 C807 1.523 . S
C809 C793 1.429 . S
C809 C805 1.429 . S
C809 C810 1.523 . S
C810 C794 1.368 . S
C810 C806 1.368 . S
C810 C809 1.523 . S
H811 C786 0.950 . S
H812 C788 0.950 . S
H813 C789 0.949 . S
H814 C791 0.950 . S
H815 C793 0.950 . S
C816 C817 1.349 . S
C816 C818 1.327 . S
C816 H841 0.950 . S
C817 C816 1.349 . S
C817 C833 1.349 . S
C818 C816 1.327 . S
C818 C837 1.429 . S
C818 H842 0.950 . S
C819 C836 1.574 . S
C819 C838 1.368 . S
C819 H843 0.949 . S
H820 C824 0.949 . S
C821 C822 1.349 . S
C821 C823 1.327 . S
C821 H844 0.950 . S
C822 C821 1.349 . S
C822 C834 1.349 . S
C823 C821 1.327 . S
C823 C839 1.429 . S
C823 H845 0.950 . S
C824 H820 0.949 . S
C824 C832 1.574 . S
C824 C840 1.368 . S
H825 C833 0.950 . S
H826 C831 0.950 . S
H827 C832 0.949 . S
H828 C834 0.950 . S
H829 C835 0.950 . S
H830 C836 0.949 . S
C831 H826 0.950 . S
C831 C833 1.327 . S
C831 C837 1.429 . S
C832 C824 1.574 . S
C832 H827 0.949 . S
C832 C838 1.368 . S
C833 C817 1.349 . S
C833 H825 0.950 . S
C833 C831 1.327 . S
C834 C822 1.349 . S
C834 H828 0.950 . S
C834 C835 1.327 . S
C835 H829 0.950 . S
C835 C834 1.327 . S
C835 C839 1.429 . S
C836 C819 1.574 . S
C836 H830 0.949 . S
C836 C840 1.368 . S
C837 C818 1.429 . S
C837 C831 1.429 . S
C837 C838 1.523 . S
C838 C819 1.368 . S
C838 C832 1.368 . S
C838 C837 1.523 . S
C839 C823 1.429 . S
C839 C835 1.429 . S
C839 C840 1.523 . S
C840 C824 1.368 . S
C840 C836 1.368 . S
C840 C839 1.523 . S
H841 C816 0.950 . S
H842 C818 0.950 . S
H843 C819 0.949 . S
H844 C821 0.950 . S
H845 C823 0.950 . S
C846 C847 1.349 . S
C846 C848 1.327 . S
C846 H871 0.950 . S
C847 C846 1.349 . S
C847 C863 1.349 . S
C848 C846 1.327 . S
C848 C867 1.429 . S
C848 H872 0.950 . S
C849 C866 1.574 . S
C849 C868 1.368 . S
C849 H873 0.949 . S
H850 C854 0.949 . S
C851 C852 1.349 . S
C851 C853 1.327 . S
C851 H874 0.950 . S
C852 C851 1.349 . S
C852 C864 1.349 . S
C853 C851 1.327 . S
C853 C869 1.429 . S
C853 H875 0.950 . S
C854 H850 0.949 . S
C854 C862 1.574 . S
C854 C870 1.368 . S
H855 C863 0.950 . S
H856 C861 0.950 . S
H857 C862 0.949 . S
H858 C864 0.950 . S
H859 C865 0.950 . S
H860 C866 0.949 . S
C861 H856 0.950 . S
C861 C863 1.327 . S
C861 C867 1.429 . S
C862 C854 1.574 . S
C862 H857 0.949 . S
C862 C868 1.368 . S
C863 C847 1.349 . S
C863 H855 0.950 . S
C863 C861 1.327 . S
C864 C852 1.349 . S
C864 H858 0.950 . S
C864 C865 1.327 . S
C865 H859 0.950 . S
C865 C864 1.327 . S
C865 C869 1.429 . S
C866 C849 1.574 . S
C866 H860 0.949 . S
C866 C870 1.368 . S
C867 C848 1.429 . S
C867 C861 1.429 . S
C867 C868 1.523 . S
C868 C849 1.368 . S
C868 C862 1.368 . S
C868 C867 1.523 . S
C869 C853 1.429 . S
C869 C865 1.429 . S
C869 C870 1.523 . S
C870 C854 1.368 . S
C870 C866 1.368 . S
C870 C869 1.523 . S
H871 C846 0.950 . S
H872 C848 0.950 . S
H873 C849 0.949 . S
H874 C851 0.950 . S
H875 C853 0.950 . S
C876 C877 1.349 . S
C876 C878 1.327 . S
C876 H901 0.950 . S
C877 C876 1.349 . S
C877 C893 1.349 . S
C878 C876 1.327 . S
C878 C897 1.429 . S
C878 H902 0.950 . S
C879 C896 1.574 . S
C879 C898 1.368 . S
C879 H903 0.949 . S
H880 C884 0.949 . S
C881 C882 1.349 . S
C881 C883 1.327 . S
C881 H904 0.950 . S
C882 C881 1.349 . S
C882 C894 1.349 . S
C883 C881 1.327 . S
C883 C899 1.429 . S
C883 H905 0.950 . S
C884 H880 0.949 . S
C884 C892 1.574 . S
C884 C900 1.368 . S
H885 C893 0.950 . S
H886 C891 0.950 . S
H887 C892 0.949 . S
H888 C894 0.950 . S
H889 C895 0.950 . S
H890 C896 0.949 . S
C891 H886 0.950 . S
C891 C893 1.327 . S
C891 C897 1.429 . S
C892 C884 1.574 . S
C892 H887 0.949 . S
C892 C898 1.368 . S
C893 C877 1.349 . S
C893 H885 0.950 . S
C893 C891 1.327 . S
C894 C882 1.349 . S
C894 H888 0.950 . S
C894 C895 1.327 . S
C895 H889 0.950 . S
C895 C894 1.327 . S
C895 C899 1.429 . S
C896 C879 1.574 . S
C896 H890 0.949 . S
C896 C900 1.368 . S
C897 C878 1.429 . S
C897 C891 1.429 . S
C897 C898 1.523 . S
C898 C879 1.368 . S
C898 C892 1.368 . S
C898 C897 1.523 . S
C899 C883 1.429 . S
C899 C895 1.429 . S
C899 C900 1.523 . S
C900 C884 1.368 . S
C900 C896 1.368 . S
C900 C899 1.523 . S
H901 C876 0.950 . S
H902 C878 0.950 . S
H903 C879 0.949 . S
H904 C881 0.950 . S
H905 C883 0.950 . S
C906 C907 1.349 . S
C906 C908 1.327 . S
C906 H931 0.950 . S
C907 C906 1.349 . S
C907 C923 1.349 . S
C908 C906 1.327 . S
C908 C927 1.429 . S
C908 H932 0.950 . S
C909 C926 1.574 . S
C909 C928 1.368 . S
C909 H933 0.949 . S
H910 C914 0.949 . S
C911 C912 1.349 . S
C911 C913 1.327 . S
C911 H934 0.950 . S
C912 C911 1.349 . S
C912 C924 1.349 . S
C913 C911 1.327 . S
C913 C929 1.429 . S
C913 H935 0.950 . S
C914 H910 0.949 . S
C914 C922 1.574 . S
C914 C930 1.368 . S
H915 C923 0.950 . S
H916 C921 0.950 . S
H917 C922 0.949 . S
H918 C924 0.950 . S
H919 C925 0.950 . S
H920 C926 0.949 . S
C921 H916 0.950 . S
C921 C923 1.327 . S
C921 C927 1.429 . S
C922 C914 1.574 . S
C922 H917 0.949 . S
C922 C928 1.368 . S
C923 C907 1.349 . S
C923 H915 0.950 . S
C923 C921 1.327 . S
C924 C912 1.349 . S
C924 H918 0.950 . S
C924 C925 1.327 . S
C925 H919 0.950 . S
C925 C924 1.327 . S
C925 C929 1.429 . S
C926 C909 1.574 . S
C926 H920 0.949 . S
C926 C930 1.368 . S
C927 C908 1.429 . S
C927 C921 1.429 . S
C927 C928 1.523 . S
C928 C909 1.368 . S
C928 C922 1.368 . S
C928 C927 1.523 . S
C929 C913 1.429 . S
C929 C925 1.429 . S
C929 C930 1.523 . S
C930 C914 1.368 . S
C930 C926 1.368 . S
C930 C929 1.523 . S
H931 C906 0.950 . S
H932 C908 0.950 . S
H933 C909 0.949 . S
H934 C911 0.950 . S
H935 C913 0.950 . S
C936 C937 1.349 . S
C936 C938 1.327 . S
C936 H961 0.950 . S
C937 C936 1.349 . S
C937 C953 1.349 . S
C938 C936 1.327 . S
C938 C957 1.429 . S
C938 H962 0.950 . S
C939 C956 1.574 . S
C939 C958 1.368 . S
C939 H963 0.949 . S
H940 C944 0.949 . S
C941 C942 1.349 . S
C941 C943 1.327 . S
C941 H964 0.950 . S
C942 C941 1.349 . S
C942 C954 1.349 . S
C943 C941 1.327 . S
C943 C959 1.429 . S
C943 H965 0.950 . S
C944 H940 0.949 . S
C944 C952 1.574 . S
C944 C960 1.368 . S
H945 C953 0.950 . S
H946 C951 0.950 . S
H947 C952 0.949 . S
H948 C954 0.950 . S
H949 C955 0.950 . S
H950 C956 0.949 . S
C951 H946 0.950 . S
C951 C953 1.327 . S
C951 C957 1.429 . S
C952 C944 1.574 . S
C952 H947 0.949 . S
C952 C958 1.368 . S
C953 C937 1.349 . S
C953 H945 0.950 . S
C953 C951 1.327 . S
C954 C942 1.349 . S
C954 H948 0.950 . S
C954 C955 1.327 . S
C955 H949 0.950 . S
C955 C954 1.327 . S
C955 C959 1.429 . S
C956 C939 1.574 . S
C956 H950 0.949 . S
C956 C960 1.368 . S
C957 C938 1.429 . S
C957 C951 1.429 . S
C957 C958 1.523 . S
C958 C939 1.368 . S
C958 C952 1.368 . S
C958 C957 1.523 . S
C959 C943 1.429 . S
C959 C955 1.429 . S
C959 C960 1.523 . S
C960 C944 1.368 . S
C960 C956 1.368 . S
C960 C959 1.523 . S
H961 C936 0.950 . S
H962 C938 0.950 . S
H963 C939 0.949 . S
H964 C941 0.950 . S
H965 C943 0.950 . S
C966 C967 1.349 . S
C966 C968 1.327 . S
C966 H991 0.950 . S
C967 C966 1.349 . S
C967 C983 1.349 . S
C968 C966 1.327 . S
C968 C987 1.429 . S
C968 H992 0.950 . S
C969 C986 1.574 . S
C969 C988 1.368 . S
C969 H993 0.949 . S
H970 C974 0.949 . S
C971 C972 1.349 . S
C971 C973 1.327 . S
C971 H994 0.950 . S
C972 C971 1.349 . S
C972 C984 1.349 . S
C973 C971 1.327 . S
C973 C989 1.429 . S
C973 H995 0.950 . S
C974 H970 0.949 . S
C974 C982 1.574 . S
C974 C990 1.368 . S
H975 C983 0.950 . S
H976 C981 0.950 . S
H977 C982 0.949 . S
H978 C984 0.950 . S
H979 C985 0.950 . S
H980 C986 0.949 . S
C981 H976 0.950 . S
C981 C983 1.327 . S
C981 C987 1.429 . S
C982 C974 1.574 . S
C982 H977 0.949 . S
C982 C988 1.368 . S
C983 C967 1.349 . S
C983 H975 0.950 . S
C983 C981 1.327 . S
C984 C972 1.349 . S
C984 H978 0.950 . S
C984 C985 1.327 . S
C985 H979 0.950 . S
C985 C984 1.327 . S
C985 C989 1.429 . S
C986 C969 1.574 . S
C986 H980 0.949 . S
C986 C990 1.368 . S
C987 C968 1.429 . S
C987 C981 1.429 . S
C987 C988 1.523 . S
C988 C969 1.368 . S
C988 C982 1.368 . S
C988 C987 1.523 . S
C989 C973 1.429 . S
C989 C985 1.429 . S
C989 C990 1.523 . S
C990 C974 1.368 . S
C990 C986 1.368 . S
C990 C989 1.523 . S
H991 C966 0.950 . S
H992 C968 0.950 . S
H993 C969 0.949 . S
H994 C971 0.950 . S
H995 C973 0.950 . S
C996 C997 1.349 . S
C996 C998 1.327 . S
C996 H1021 0.950 . S
C997 C996 1.349 . S
C997 C1013 1.349 . S
C998 C996 1.327 . S
C998 C1017 1.429 . S
C998 H1022 0.950 . S
C999 C1016 1.574 . S
C999 C1018 1.368 . S
C999 H1023 0.949 . S
H1000 C1004 0.949 . S
C1001 C1002 1.349 . S
C1001 C1003 1.327 . S
C1001 H1024 0.950 . S
C1002 C1001 1.349 . S
C1002 C1014 1.349 . S
C1003 C1001 1.327 . S
C1003 C1019 1.429 . S
C1003 H1025 0.950 . S
C1004 H1000 0.949 . S
C1004 C1012 1.574 . S
C1004 C1020 1.368 . S
H1005 C1013 0.950 . S
H1006 C1011 0.950 . S
H1007 C1012 0.949 . S
H1008 C1014 0.950 . S
H1009 C1015 0.950 . S
H1010 C1016 0.949 . S
C1011 H1006 0.950 . S
C1011 C1013 1.327 . S
C1011 C1017 1.429 . S
C1012 C1004 1.574 . S
C1012 H1007 0.949 . S
C1012 C1018 1.368 . S
C1013 C997 1.349 . S
C1013 H1005 0.950 . S
C1013 C1011 1.327 . S
C1014 C1002 1.349 . S
C1014 H1008 0.950 . S
C1014 C1015 1.327 . S
C1015 H1009 0.950 . S
C1015 C1014 1.327 . S
C1015 C1019 1.429 . S
C1016 C999 1.574 . S
C1016 H1010 0.949 . S
C1016 C1020 1.368 . S
C1017 C998 1.429 . S
C1017 C1011 1.429 . S
C1017 C1018 1.523 . S
C1018 C999 1.368 . S
C1018 C1012 1.368 . S
C1018 C1017 1.523 . S
C1019 C1003 1.429 . S
C1019 C1015 1.429 . S
C1019 C1020 1.523 . S
C1020 C1004 1.368 . S
C1020 C1016 1.368 . S
C1020 C1019 1.523 . S
H1021 C996 0.950 . S
H1022 C998 0.950 . S
H1023 C999 0.949 . S
H1024 C1001 0.950 . S
H1025 C1003 0.950 . S
C1026 C1027 1.349 . S
C1026 C1028 1.327 . S
C1026 H1051 0.950 . S
C1027 C1026 1.349 . S
C1027 C1043 1.349 . S
C1028 C1026 1.327 . S
C1028 C1047 1.429 . S
C1028 H1052 0.950 . S
C1029 C1046 1.574 . S
C1029 C1048 1.368 . S
C1029 H1053 0.949 . S
H1030 C1034 0.949 . S
C1031 C1032 1.349 . S
C1031 C1033 1.327 . S
C1031 H1054 0.950 . S
C1032 C1031 1.349 . S
C1032 C1044 1.349 . S
C1033 C1031 1.327 . S
C1033 C1049 1.429 . S
C1033 H1055 0.950 . S
C1034 H1030 0.949 . S
C1034 C1042 1.574 . S
C1034 C1050 1.368 . S
H1035 C1043 0.950 . S
H1036 C1041 0.950 . S
H1037 C1042 0.949 . S
H1038 C1044 0.950 . S
H1039 C1045 0.950 . S
H1040 C1046 0.949 . S
C1041 H1036 0.950 . S
C1041 C1043 1.327 . S
C1041 C1047 1.429 . S
C1042 C1034 1.574 . S
C1042 H1037 0.949 . S
C1042 C1048 1.368 . S
C1043 C1027 1.349 . S
C1043 H1035 0.950 . S
C1043 C1041 1.327 . S
C1044 C1032 1.349 . S
C1044 H1038 0.950 . S
C1044 C1045 1.327 . S
C1045 H1039 0.950 . S
C1045 C1044 1.327 . S
C1045 C1049 1.429 . S
C1046 C1029 1.574 . S
C1046 H1040 0.949 . S
C1046 C1050 1.368 . S
C1047 C1028 1.429 . S
C1047 C1041 1.429 . S
C1047 C1048 1.523 . S
C1048 C1029 1.368 . S
C1048 C1042 1.368 . S
C1048 C1047 1.523 . S
C1049 C1033 1.429 . S
C1049 C1045 1.429 . S
C1049 C1050 1.523 . S
C1050 C1034 1.368 . S
C1050 C1046 1.368 . S
C1050 C1049 1.523 . S
H1051 C1026 0.950 . S
H1052 C1028 0.950 . S
H1053 C1029 0.949 . S
H1054 C1031 0.950 . S
H1055 C1033 0.950 . S
C1056 C1057 1.349 . S
C1056 C1058 1.327 . S
C1056 H1081 0.950 . S
C1057 C1056 1.349 . S
C1057 C1073 1.349 . S
C1058 C1056 1.327 . S
C1058 C1077 1.429 . S
C1058 H1082 0.950 . S
C1059 C1076 1.574 . S
C1059 C1078 1.368 . S
C1059 H1083 0.949 . S
H1060 C1064 0.949 . S
C1061 C1062 1.349 . S
C1061 C1063 1.327 . S
C1061 H1084 0.950 . S
C1062 C1061 1.349 . S
C1062 C1074 1.349 . S
C1063 C1061 1.327 . S
C1063 C1079 1.429 . S
C1063 H1085 0.950 . S
C1064 H1060 0.949 . S
C1064 C1072 1.574 . S
C1064 C1080 1.368 . S
H1065 C1073 0.950 . S
H1066 C1071 0.950 . S
H1067 C1072 0.949 . S
H1068 C1074 0.950 . S
H1069 C1075 0.950 . S
H1070 C1076 0.949 . S
C1071 H1066 0.950 . S
C1071 C1073 1.327 . S
C1071 C1077 1.429 . S
C1072 C1064 1.574 . S
C1072 H1067 0.949 . S
C1072 C1078 1.368 . S
C1073 C1057 1.349 . S
C1073 H1065 0.950 . S
C1073 C1071 1.327 . S
C1074 C1062 1.349 . S
C1074 H1068 0.950 . S
C1074 C1075 1.327 . S
C1075 H1069 0.950 . S
C1075 C1074 1.327 . S
C1075 C1079 1.429 . S
C1076 C1059 1.574 . S
C1076 H1070 0.949 . S
C1076 C1080 1.368 . S
C1077 C1058 1.429 . S
C1077 C1071 1.429 . S
C1077 C1078 1.523 . S
C1078 C1059 1.368 . S
C1078 C1072 1.368 . S
C1078 C1077 1.523 . S
C1079 C1063 1.429 . S
C1079 C1075 1.429 . S
C1079 C1080 1.523 . S
C1080 C1064 1.368 . S
C1080 C1076 1.368 . S
C1080 C1079 1.523 . S
H1081 C1056 0.950 . S
H1082 C1058 0.950 . S
H1083 C1059 0.949 . S
H1084 C1061 0.950 . S
H1085 C1063 0.950 . S
C1086 C1087 1.349 . S
C1086 C1088 1.327 . S
C1086 H1111 0.950 . S
C1087 C1086 1.349 . S
C1087 C1103 1.349 . S
C1088 C1086 1.327 . S
C1088 C1107 1.429 . S
C1088 H1112 0.950 . S
C1089 C1106 1.574 . S
C1089 C1108 1.368 . S
C1089 H1113 0.949 . S
H1090 C1094 0.949 . S
C1091 C1092 1.349 . S
C1091 C1093 1.327 . S
C1091 H1114 0.950 . S
C1092 C1091 1.349 . S
C1092 C1104 1.349 . S
C1093 C1091 1.327 . S
C1093 C1109 1.429 . S
C1093 H1115 0.950 . S
C1094 H1090 0.949 . S
C1094 C1102 1.574 . S
C1094 C1110 1.368 . S
H1095 C1103 0.950 . S
H1096 C1101 0.950 . S
H1097 C1102 0.949 . S
H1098 C1104 0.950 . S
H1099 C1105 0.950 . S
H1100 C1106 0.949 . S
C1101 H1096 0.950 . S
C1101 C1103 1.327 . S
C1101 C1107 1.429 . S
C1102 C1094 1.574 . S
C1102 H1097 0.949 . S
C1102 C1108 1.368 . S
C1103 C1087 1.349 . S
C1103 H1095 0.950 . S
C1103 C1101 1.327 . S
C1104 C1092 1.349 . S
C1104 H1098 0.950 . S
C1104 C1105 1.327 . S
C1105 H1099 0.950 . S
C1105 C1104 1.327 . S
C1105 C1109 1.429 . S
C1106 C1089 1.574 . S
C1106 H1100 0.949 . S
C1106 C1110 1.368 . S
C1107 C1088 1.429 . S
C1107 C1101 1.429 . S
C1107 C1108 1.523 . S
C1108 C1089 1.368 . S
C1108 C1102 1.368 . S
C1108 C1107 1.523 . S
C1109 C1093 1.429 . S
C1109 C1105 1.429 . S
C1109 C1110 1.523 . S
C1110 C1094 1.368 . S
C1110 C1106 1.368 . S
C1110 C1109 1.523 . S
H1111 C1086 0.950 . S
H1112 C1088 0.950 . S
H1113 C1089 0.949 . S
H1114 C1091 0.950 . S
H1115 C1093 0.950 . S
C1116 C1117 1.349 . S
C1116 C1118 1.327 . S
C1116 H1141 0.950 . S
C1117 C1116 1.349 . S
C1117 C1133 1.349 . S
C1118 C1116 1.327 . S
C1118 C1137 1.429 . S
C1118 H1142 0.950 . S
C1119 C1136 1.574 . S
C1119 C1138 1.368 . S
C1119 H1143 0.949 . S
H1120 C1124 0.949 . S
C1121 C1122 1.349 . S
C1121 C1123 1.327 . S
C1121 H1144 0.950 . S
C1122 C1121 1.349 . S
C1122 C1134 1.349 . S
C1123 C1121 1.327 . S
C1123 C1139 1.429 . S
C1123 H1145 0.950 . S
C1124 H1120 0.949 . S
C1124 C1132 1.574 . S
C1124 C1140 1.368 . S
H1125 C1133 0.950 . S
H1126 C1131 0.950 . S
H1127 C1132 0.949 . S
H1128 C1134 0.950 . S
H1129 C1135 0.950 . S
H1130 C1136 0.949 . S
C1131 H1126 0.950 . S
C1131 C1133 1.327 . S
C1131 C1137 1.429 . S
C1132 C1124 1.574 . S
C1132 H1127 0.949 . S
C1132 C1138 1.368 . S
C1133 C1117 1.349 . S
C1133 H1125 0.950 . S
C1133 C1131 1.327 . S
C1134 C1122 1.349 . S
C1134 H1128 0.950 . S
C1134 C1135 1.327 . S
C1135 H1129 0.950 . S
C1135 C1134 1.327 . S
C1135 C1139 1.429 . S
C1136 C1119 1.574 . S
C1136 H1130 0.949 . S
C1136 C1140 1.368 . S
C1137 C1118 1.429 . S
C1137 C1131 1.429 . S
C1137 C1138 1.523 . S
C1138 C1119 1.368 . S
C1138 C1132 1.368 . S
C1138 C1137 1.523 . S
C1139 C1123 1.429 . S
C1139 C1135 1.429 . S
C1139 C1140 1.523 . S
C1140 C1124 1.368 . S
C1140 C1136 1.368 . S
C1140 C1139 1.523 . S
H1141 C1116 0.950 . S
H1142 C1118 0.950 . S
H1143 C1119 0.949 . S
H1144 C1121 0.950 . S
H1145 C1123 0.950 . S
C1146 C1147 1.349 . S
C1146 C1148 1.327 . S
C1146 H1171 0.950 . S
C1147 C1146 1.349 . S
C1147 C1163 1.349 . S
C1148 C1146 1.327 . S
C1148 C1167 1.429 . S
C1148 H1172 0.950 . S
C1149 C1166 1.574 . S
C1149 C1168 1.368 . S
C1149 H1173 0.949 . S
H1150 C1154 0.949 . S
C1151 C1152 1.349 . S
C1151 C1153 1.327 . S
C1151 H1174 0.950 . S
C1152 C1151 1.349 . S
C1152 C1164 1.349 . S
C1153 C1151 1.327 . S
C1153 C1169 1.429 . S
C1153 H1175 0.950 . S
C1154 H1150 0.949 . S
C1154 C1162 1.574 . S
C1154 C1170 1.368 . S
H1155 C1163 0.950 . S
H1156 C1161 0.950 . S
H1157 C1162 0.949 . S
H1158 C1164 0.950 . S
H1159 C1165 0.950 . S
H1160 C1166 0.949 . S
C1161 H1156 0.950 . S
C1161 C1163 1.327 . S
C1161 C1167 1.429 . S
C1162 C1154 1.574 . S
C1162 H1157 0.949 . S
C1162 C1168 1.368 . S
C1163 C1147 1.349 . S
C1163 H1155 0.950 . S
C1163 C1161 1.327 . S
C1164 C1152 1.349 . S
C1164 H1158 0.950 . S
C1164 C1165 1.327 . S
C1165 H1159 0.950 . S
C1165 C1164 1.327 . S
C1165 C1169 1.429 . S
C1166 C1149 1.574 . S
C1166 H1160 0.949 . S
C1166 C1170 1.368 . S
C1167 C1148 1.429 . S
C1167 C1161 1.429 . S
C1167 C1168 1.523 . S
C1168 C1149 1.368 . S
C1168 C1162 1.368 . S
C1168 C1167 1.523 . S
C1169 C1153 1.429 . S
C1169 C1165 1.429 . S
C1169 C1170 1.523 . S
C1170 C1154 1.368 . S
C1170 C1166 1.368 . S
C1170 C1169 1.523 . S
H1171 C1146 0.950 . S
H1172 C1148 0.950 . S
H1173 C1149 0.949 . S
H1174 C1151 0.950 . S
H1175 C1153 0.950 . S
C1176 C1177 1.349 . S
C1176 C1178 1.327 . S
C1176 H1201 0.950 . S
C1177 C1176 1.349 . S
C1177 C1193 1.349 . S
C1178 C1176 1.327 . S
C1178 C1197 1.429 . S
C1178 H1202 0.950 . S
C1179 C1196 1.574 1_556 S
C1179 C1198 1.368 . S
C1179 H1203 0.949 . S
H1180 C1184 0.949 . S
C1181 C1182 1.349 . S
C1181 C1183 1.327 . S
C1181 H1204 0.950 . S
C1182 C1181 1.349 . S
C1182 C1194 1.349 . S
C1183 C1181 1.327 . S
C1183 C1199 1.429 . S
C1183 H1205 0.950 . S
C1184 H1180 0.949 . S
C1184 C1192 1.574 1_554 S
C1184 C1200 1.368 . S
H1185 C1193 0.950 . S
H1186 C1191 0.950 . S
H1187 C1192 0.949 . S
H1188 C1194 0.950 . S
H1189 C1195 0.950 . S
H1190 C1196 0.949 . S
C1191 H1186 0.950 . S
C1191 C1193 1.327 . S
C1191 C1197 1.429 . S
C1192 C1184 1.574 1_556 S
C1192 H1187 0.949 . S
C1192 C1198 1.368 . S
C1193 C1177 1.349 . S
C1193 H1185 0.950 . S
C1193 C1191 1.327 . S
C1194 C1182 1.349 . S
C1194 H1188 0.950 . S
C1194 C1195 1.327 . S
C1195 H1189 0.950 . S
C1195 C1194 1.327 . S
C1195 C1199 1.429 . S
C1196 C1179 1.574 1_554 S
C1196 H1190 0.949 . S
C1196 C1200 1.368 . S
C1197 C1178 1.429 . S
C1197 C1191 1.429 . S
C1197 C1198 1.523 . S
C1198 C1179 1.368 . S
C1198 C1192 1.368 . S
C1198 C1197 1.523 . S
C1199 C1183 1.429 . S
C1199 C1195 1.429 . S
C1199 C1200 1.523 . S
C1200 C1184 1.368 . S
C1200 C1196 1.368 . S
C1200 C1199 1.523 . S
H1201 C1176 0.950 . S
H1202 C1178 0.950 . S
H1203 C1179 0.949 . S
H1204 C1181 0.950 . S
H1205 C1183 0.950 . S
C1206 C1207 1.349 . S
C1206 C1208 1.327 . S
C1206 H1231 0.950 . S
C1207 C1206 1.349 . S
C1207 C1223 1.349 . S
C1208 C1206 1.327 . S
C1208 C1227 1.429 . S
C1208 H1232 0.950 . S
C1209 C1226 1.574 1_455 S
C1209 C1228 1.368 . S
C1209 H1233 0.949 . S
H1210 C1214 0.949 . S
C1211 C1212 1.349 . S
C1211 C1213 1.327 . S
C1211 H1234 0.950 . S
C1212 C1211 1.349 . S
C1212 C1224 1.349 . S
C1213 C1211 1.327 . S
C1213 C1229 1.429 . S
C1213 H1235 0.950 . S
C1214 H1210 0.949 . S
C1214 C1222 1.574 1_655 S
C1214 C1230 1.368 . S
H1215 C1223 0.950 . S
H1216 C1221 0.950 . S
H1217 C1222 0.949 . S
H1218 C1224 0.950 . S
H1219 C1225 0.950 . S
H1220 C1226 0.949 . S
C1221 H1216 0.950 . S
C1221 C1223 1.327 . S
C1221 C1227 1.429 . S
C1222 C1214 1.574 1_455 S
C1222 H1217 0.949 . S
C1222 C1228 1.368 . S
C1223 C1207 1.349 . S
C1223 H1215 0.950 . S
C1223 C1221 1.327 . S
C1224 C1212 1.349 . S
C1224 H1218 0.950 . S
C1224 C1225 1.327 . S
C1225 H1219 0.950 . S
C1225 C1224 1.327 . S
C1225 C1229 1.429 . S
C1226 C1209 1.574 1_655 S
C1226 H1220 0.949 . S
C1226 C1230 1.368 . S
C1227 C1208 1.429 . S
C1227 C1221 1.429 . S
C1227 C1228 1.523 . S
C1228 C1209 1.368 . S
C1228 C1222 1.368 . S
C1228 C1227 1.523 . S
C1229 C1213 1.429 . S
C1229 C1225 1.429 . S
C1229 C1230 1.523 . S
C1230 C1214 1.368 . S
C1230 C1226 1.368 . S
C1230 C1229 1.523 . S
H1231 C1206 0.950 . S
H1232 C1208 0.950 . S
H1233 C1209 0.949 . S
H1234 C1211 0.950 . S
H1235 C1213 0.950 . S
C1236 C1237 1.349 . S
C1236 C1238 1.327 . S
C1236 H1261 0.950 . S
C1237 C1236 1.349 . S
C1237 C1253 1.349 . S
C1238 C1236 1.327 . S
C1238 C1257 1.429 . S
C1238 H1262 0.950 . S
C1239 C1256 1.574 1_554 S
C1239 C1258 1.368 1_545 S
C1239 H1263 0.949 . S
H1240 C1244 0.949 . S
C1241 C1242 1.349 . S
C1241 C1243 1.327 . S
C1241 H1264 0.950 . S
C1242 C1241 1.349 . S
C1242 C1254 1.349 . S
C1243 C1241 1.327 . S
C1243 C1259 1.429 . S
C1243 H1265 0.950 . S
C1244 H1240 0.949 . S
C1244 C1252 1.574 1_556 S
C1244 C1260 1.368 1_565 S
H1245 C1253 0.950 . S
H1246 C1251 0.950 1_545 S
H1247 C1252 0.949 . S
H1248 C1254 0.950 . S
H1249 C1255 0.950 1_565 S
H1250 C1256 0.949 . S
C1251 H1246 0.950 1_565 S
C1251 C1253 1.327 . S
C1251 C1257 1.429 . S
C1252 C1244 1.574 1_554 S
C1252 H1247 0.949 . S
C1252 C1258 1.368 . S
C1253 C1237 1.349 . S
C1253 H1245 0.950 . S
C1253 C1251 1.327 . S
C1254 C1242 1.349 . S
C1254 H1248 0.950 . S
C1254 C1255 1.327 . S
C1255 H1249 0.950 1_545 S
C1255 C1254 1.327 . S
C1255 C1259 1.429 . S
C1256 C1239 1.574 1_556 S
C1256 H1250 0.949 . S
C1256 C1260 1.368 . S
C1257 C1238 1.429 . S
C1257 C1251 1.429 . S
C1257 C1258 1.523 . S
C1258 C1239 1.368 1_565 S
C1258 C1252 1.368 . S
C1258 C1257 1.523 . S
C1259 C1243 1.429 . S
C1259 C1255 1.429 . S
C1259 C1260 1.523 . S
C1260 C1244 1.368 1_545 S
C1260 C1256 1.368 . S
C1260 C1259 1.523 . S
H1261 C1236 0.950 . S
H1262 C1238 0.950 . S
H1263 C1239 0.949 . S
H1264 C1241 0.950 . S
H1265 C1243 0.950 . S
C1266 C1267 1.349 . S
C1266 C1268 1.327 . S
C1266 H1291 0.950 . S
C1267 C1266 1.349 . S
C1267 C1283 1.349 . S
C1268 C1266 1.327 . S
C1268 C1287 1.429 . S
C1268 H1292 0.950 . S
C1269 C1286 1.574 . S
C1269 C1288 1.368 . S
C1269 H1293 0.949 . S
H1270 C1274 0.949 . S
C1271 C1272 1.349 . S
C1271 C1273 1.327 . S
C1271 H1294 0.950 . S
C1272 C1271 1.349 . S
C1272 C1284 1.349 . S
C1273 C1271 1.327 . S
C1273 C1289 1.429 . S
C1273 H1295 0.950 . S
C1274 H1270 0.949 . S
C1274 C1282 1.574 . S
C1274 C1290 1.368 . S
H1275 C1283 0.950 . S
H1276 C1281 0.950 . S
H1277 C1282 0.949 . S
H1278 C1284 0.950 . S
H1279 C1285 0.950 . S
H1280 C1286 0.949 . S
C1281 H1276 0.950 . S
C1281 C1283 1.327 . S
C1281 C1287 1.429 . S
C1282 C1274 1.574 . S
C1282 H1277 0.949 . S
C1282 C1288 1.368 . S
C1283 C1267 1.349 . S
C1283 H1275 0.950 . S
C1283 C1281 1.327 . S
C1284 C1272 1.349 . S
C1284 H1278 0.950 . S
C1284 C1285 1.327 . S
C1285 H1279 0.950 . S
C1285 C1284 1.327 . S
C1285 C1289 1.429 . S
C1286 C1269 1.574 . S
C1286 H1280 0.949 . S
C1286 C1290 1.368 . S
C1287 C1268 1.429 . S
C1287 C1281 1.429 . S
C1287 C1288 1.523 . S
C1288 C1269 1.368 . S
C1288 C1282 1.368 . S
C1288 C1287 1.523 . S
C1289 C1273 1.429 . S
C1289 C1285 1.429 . S
C1289 C1290 1.523 . S
C1290 C1274 1.368 . S
C1290 C1286 1.368 . S
C1290 C1289 1.523 . S
H1291 C1266 0.950 . S
H1292 C1268 0.950 . S
H1293 C1269 0.949 . S
H1294 C1271 0.950 . S
H1295 C1273 0.950 . S
C1296 C1297 1.349 . S
C1296 C1298 1.327 . S
C1296 H1321 0.950 . S
C1297 C1296 1.349 . S
C1297 C1313 1.349 . S
C1298 C1296 1.327 . S
C1298 C1317 1.429 . S
C1298 H1322 0.950 . S
C1299 C1316 1.574 1_656 S
C1299 C1318 1.368 . S
C1299 H1323 0.949 . S
H1300 C1304 0.949 . S
C1301 C1302 1.349 . S
C1301 C1303 1.327 . S
C1301 H1324 0.950 . S
C1302 C1301 1.349 . S
C1302 C1314 1.349 . S
C1303 C1301 1.327 . S
C1303 C1319 1.429 . S
C1303 H1325 0.950 . S
C1304 H1300 0.949 . S
C1304 C1312 1.574 1_454 S
C1304 C1320 1.368 . S
H1305 C1313 0.950 . S
H1306 C1311 0.950 . S
H1307 C1312 0.949 . S
H1308 C1314 0.950 . S
H1309 C1315 0.950 . S
H1310 C1316 0.949 . S
C1311 H1306 0.950 . S
C1311 C1313 1.327 . S
C1311 C1317 1.429 . S
C1312 C1304 1.574 1_656 S
C1312 H1307 0.949 . S
C1312 C1318 1.368 . S
C1313 C1297 1.349 . S
C1313 H1305 0.950 . S
C1313 C1311 1.327 . S
C1314 C1302 1.349 . S
C1314 H1308 0.950 . S
C1314 C1315 1.327 . S
C1315 H1309 0.950 . S
C1315 C1314 1.327 . S
C1315 C1319 1.429 . S
C1316 C1299 1.574 1_454 S
C1316 H1310 0.949 . S
C1316 C1320 1.368 . S
C1317 C1298 1.429 . S
C1317 C1311 1.429 . S
C1317 C1318 1.523 . S
C1318 C1299 1.368 . S
C1318 C1312 1.368 . S
C1318 C1317 1.523 . S
C1319 C1303 1.429 . S
C1319 C1315 1.429 . S
C1319 C1320 1.523 . S
C1320 C1304 1.368 . S
C1320 C1316 1.368 . S
C1320 C1319 1.523 . S
H1321 C1296 0.950 . S
H1322 C1298 0.950 . S
H1323 C1299 0.949 . S
H1324 C1301 0.950 . S
H1325 C1303 0.950 . S
C1326 C1327 1.349 . S
C1326 C1328 1.327 . S
C1326 H1351 0.950 . S
C1327 C1326 1.349 . S
C1327 C1343 1.349 . S
C1328 C1326 1.327 . S
C1328 C1347 1.429 . S
C1328 H1352 0.950 . S
C1329 C1346 1.574 . S
C1329 C1348 1.368 1_545 S
C1329 H1353 0.949 . S
H1330 C1334 0.949 . S
C1331 C1332 1.349 . S
C1331 C1333 1.327 . S
C1331 H1354 0.950 . S
C1332 C1331 1.349 . S
C1332 C1344 1.349 . S
C1333 C1331 1.327 . S
C1333 C1349 1.429 . S
C1333 H1355 0.950 . S
C1334 H1330 0.949 . S
C1334 C1342 1.574 . S
C1334 C1350 1.368 1_565 S
H1335 C1343 0.950 . S
H1336 C1341 0.950 1_545 S
H1337 C1342 0.949 . S
H1338 C1344 0.950 . S
H1339 C1345 0.950 1_565 S
H1340 C1346 0.949 . S
C1341 H1336 0.950 1_565 S
C1341 C1343 1.327 . S
C1341 C1347 1.429 . S
C1342 C1334 1.574 . S
C1342 H1337 0.949 . S
C1342 C1348 1.368 . S
C1343 C1327 1.349 . S
C1343 H1335 0.950 . S
C1343 C1341 1.327 . S
C1344 C1332 1.349 . S
C1344 H1338 0.950 . S
C1344 C1345 1.327 . S
C1345 H1339 0.950 1_545 S
C1345 C1344 1.327 . S
C1345 C1349 1.429 . S
C1346 C1329 1.574 . S
C1346 H1340 0.949 . S
C1346 C1350 1.368 . S
C1347 C1328 1.429 . S
C1347 C1341 1.429 . S
C1347 C1348 1.523 . S
C1348 C1329 1.368 1_565 S
C1348 C1342 1.368 . S
C1348 C1347 1.523 . S
C1349 C1333 1.429 . S
C1349 C1345 1.429 . S
C1349 C1350 1.523 . S
C1350 C1334 1.368 1_545 S
C1350 C1346 1.368 . S
C1350 C1349 1.523 . S
H1351 C1326 0.950 . S
H1352 C1328 0.950 . S
H1353 C1329 0.949 . S
H1354 C1331 0.950 . S
H1355 C1333 0.950 . S
C277 C113 0.610 . S
C282 C17 0.593 . S
C307 C136 0.610 . S
C312 C40 0.593 . S
C337 C63 0.593 . S
C342 C21 0.610 . S
C367 C86 0.593 . S
C372 C44 0.610 . S
C397 C109 0.593 . S
C402 C67 0.610 . S
C427 C90 0.610 . S
C432 C132 0.593 . S
C457 C205 0.610 . S
C462 C155 0.593 . S
C487 C178 0.593 . S
C492 C228 0.610 . S
C517 C251 0.610 . S
C522 C201 0.593 . S
C547 C224 0.593 . S
C552 C274 0.610 . S
C577 C247 0.593 . S
C582 C159 0.610 . S
C607 C182 0.610 . S
C612 C270 0.593 . S
C637 C110 1.005 . S
C642 C16 1.008 . S
C667 C39 1.008 . S
C672 C133 1.005 . S
C697 C62 1.007 . S
C702 C18 1.004 . S
C727 C85 1.008 . S
C732 C41 1.005 . S
C757 C64 1.005 . S
C762 C108 1.008 . S
C787 C87 1.004 . S
C792 C131 1.007 . S
C817 C202 1.005 . S
C822 C154 1.008 . S
C847 C177 1.007 . S
C852 C225 1.004 . S
C877 C200 1.008 . S
C882 C248 1.005 . S
C907 C271 1.005 . S
C912 C223 1.008 . S
C937 C246 1.007 . S
C942 C156 1.004 . S
C967 C179 1.005 . S
C972 C269 1.008 . S
C997 C250 1.498 . S
C1002 C20 1.498 . S
C1027 C43 1.498 . S
C1032 C273 1.498 . S
C1057 C66 1.498 . S
C1062 C158 1.498 . S
C1087 C89 1.498 . S
C1092 C181 1.498 . S
C1117 C112 1.498 . S
C1122 C204 1.498 . S
C1147 C227 1.498 . S
C1152 C135 1.498 . S
C1177 C226 1.504 . S
C1182 C19 1.504 . S
C1207 C249 1.504 . S
C1212 C42 1.504 . S
C1237 C65 1.504 . S
C1242 C272 1.504 . S
C1267 C88 1.504 . S
C1272 C157 1.504 . S
C1297 C180 1.504 . S
C1302 C111 1.504 . S
C1327 C203 1.504 . S
C1332 C134 1.504 . S
