# Generated by pormake.
# Topology wjf, (4)-cn, num edge types: 1
# Building blocks:
#     Node 0, Type 0, BuildingBlock: KUFVIS_clean_sbu_0, # of connection points: 4
#     Node 1, Type 0, BuildingBlock: KUFVIS_clean_sbu_0, # of connection points: 4
#     Node 2, Type 0, BuildingBlock: KUFVIS_clean_sbu_0, # of connection points: 4
#     Node 3, Type 0, BuildingBlock: KUFVIS_clean_sbu_0, # of connection points: 4
#     Node 4, Type 0, BuildingBlock: KUFVIS_clean_sbu_0, # of connection points: 4
#     Node 5, Type 0, BuildingBlock: KUFVIS_clean_sbu_0, # of connection points: 4
#     Node 6, Type 0, BuildingBlock: KUFVIS_clean_sbu_0, # of connection points: 4
#     Node 7, Type 0, BuildingBlock: KUFVIS_clean_sbu_0, # of connection points: 4
#     Node 8, Type 0, BuildingBlock: KUFVIS_clean_sbu_0, # of connection points: 4
#     Node 9, Type 0, BuildingBlock: KUFVIS_clean_sbu_0, # of connection points: 4
#     Node 10, Type 0, BuildingBlock: KUFVIS_clean_sbu_0, # of connection points: 4
#     Node 11, Type 0, BuildingBlock: KUFVIS_clean_sbu_0, # of connection points: 4
#     Edge 12, Type (0, 0), BuildingBlock: MIFKUJ_clean_linker_0, # of connection points: 2
#     Edge 13, Type (0, 0), BuildingBlock: MIFKUJ_clean_linker_0, # of connection points: 2
#     Edge 14, Type (0, 0), BuildingBlock: MIFKUJ_clean_linker_0, # of connection points: 2
#     Edge 15, Type (0, 0), BuildingBlock: MIFKUJ_clean_linker_0, # of connection points: 2
#     Edge 16, Type (0, 0), BuildingBlock: MIFKUJ_clean_linker_0, # of connection points: 2
#     Edge 17, Type (0, 0), BuildingBlock: MIFKUJ_clean_linker_0, # of connection points: 2
#     Edge 18, Type (0, 0), BuildingBlock: MIFKUJ_clean_linker_0, # of connection points: 2
#     Edge 19, Type (0, 0), BuildingBlock: MIFKUJ_clean_linker_0, # of connection points: 2
#     Edge 20, Type (0, 0), BuildingBlock: MIFKUJ_clean_linker_0, # of connection points: 2
#     Edge 21, Type (0, 0), BuildingBlock: MIFKUJ_clean_linker_0, # of connection points: 2
#     Edge 22, Type (0, 0), BuildingBlock: MIFKUJ_clean_linker_0, # of connection points: 2
#     Edge 23, Type (0, 0), BuildingBlock: MIFKUJ_clean_linker_0, # of connection points: 2
#     Edge 24, Type (0, 0), BuildingBlock: MIFKUJ_clean_linker_0, # of connection points: 2
#     Edge 25, Type (0, 0), BuildingBlock: MIFKUJ_clean_linker_0, # of connection points: 2
#     Edge 26, Type (0, 0), BuildingBlock: MIFKUJ_clean_linker_0, # of connection points: 2
#     Edge 27, Type (0, 0), BuildingBlock: MIFKUJ_clean_linker_0, # of connection points: 2
#     Edge 28, Type (0, 0), BuildingBlock: MIFKUJ_clean_linker_0, # of connection points: 2
#     Edge 29, Type (0, 0), BuildingBlock: MIFKUJ_clean_linker_0, # of connection points: 2
#     Edge 30, Type (0, 0), BuildingBlock: MIFKUJ_clean_linker_0, # of connection points: 2
#     Edge 31, Type (0, 0), BuildingBlock: MIFKUJ_clean_linker_0, # of connection points: 2
#     Edge 32, Type (0, 0), BuildingBlock: MIFKUJ_clean_linker_0, # of connection points: 2
#     Edge 33, Type (0, 0), BuildingBlock: MIFKUJ_clean_linker_0, # of connection points: 2
#     Edge 34, Type (0, 0), BuildingBlock: MIFKUJ_clean_linker_0, # of connection points: 2
#     Edge 35, Type (0, 0), BuildingBlock: MIFKUJ_clean_linker_0, # of connection points: 2
# Relax obj value: 0.141
# Max RMSD: 0.203
# Mean RMSD: 0.178
data_MOF--net-wjf--node1-KUFVIS_clean_sbu_0--edge1-MIFKUJ_clean_linker_0
_symmetry_space_group_name_H-M    P1
_symmetry_Int_Tables_number       1
_symmetry_cell_setting            triclinic
loop_
_symmetry_equiv_pos_as_xyz
'x, y, z'
_cell_length_a     61.680616
_cell_length_b     64.938965
_cell_length_c     35.944255
_cell_angle_alpha  89.974047
_cell_angle_beta   89.992334
_cell_angle_gamma 118.34428
loop_
_atom_site_label
_atom_site_type_symbol
_atom_site_fract_x
_atom_site_fract_y
_atom_site_fract_z
_atom_type_partial_charge
Mn0 Mn 0.34248 0.40009 0.09411 0.0
Mn1 Mn 0.35039 0.44144 0.03092 0.0
C2 C 0.38145 0.43076 0.08269 0.0
C3 C 0.33425 0.38466 0.15373 0.0
C4 C 0.3451 0.39459 0.00986 0.0
O5 O 0.30736 0.39437 0.08703 0.0
O6 O 0.31516 0.42111 0.04236 0.0
C7 C 0.33352 0.46767 0.07996 0.0
N8 N 0.35097 0.46727 0.05719 0.0
C9 C 0.37676 0.5088 0.06365 0.0
C10 C 0.35904 0.5097 0.08705 0.0
C11 C 0.33737 0.48902 0.09535 0.0
C12 C 0.37198 0.48698 0.04941 0.0
H13 H 0.31679 0.45184 0.08627 0.0
C14 C 0.30027 0.40431 0.06302 0.0
O15 O 0.33057 0.37139 0.12488 0.0
O16 O 0.34205 0.4068 0.14782 0.0
N17 N 0.38324 0.46274 0.01626 0.0
C18 C 0.39852 0.45877 0.99348 0.0
C19 C 0.42069 0.47771 0.98168 0.0
C20 C 0.42671 0.50045 0.99315 0.0
C21 C 0.41087 0.50412 0.01682 0.0
C22 C 0.38886 0.48464 0.02717 0.0
H23 H 0.39368 0.44133 0.98411 0.0
O24 O 0.37861 0.41132 0.09704 0.0
O25 O 0.36136 0.43205 0.07602 0.0
O26 O 0.3409 0.38615 0.04266 0.0
O27 O 0.35034 0.41564 0.00206 0.0
C28 C 0.41598 0.52634 0.03029 0.0
C29 C 0.39901 0.52865 0.05396 0.0
H30 H 0.3619 0.52614 0.09886 0.0
H31 H 0.32362 0.48955 0.11345 0.0
H32 H 0.43291 0.47483 0.96334 0.0
H33 H 0.44327 0.51508 0.98314 0.0
H34 H 0.43297 0.54172 0.02284 0.0
H35 H 0.40321 0.54578 0.06444 0.0
Mn36 Mn 0.96922 0.32848 0.38713 0.0
Mn37 Mn 0.03093 0.35707 0.3783 0.0
C38 C 0.98696 0.33778 0.3292 0.0
C39 C 0.93266 0.29339 0.39063 0.0
C40 C 0.00095 0.38112 0.39991 0.0
O41 O 0.98079 0.32425 0.43786 0.0
O42 O 0.02189 0.34243 0.42842 0.0
C43 C 0.03993 0.31617 0.37987 0.0
N44 N 0.0417 0.33541 0.36201 0.0
C45 C 0.06224 0.32903 0.30989 0.0
C46 C 0.06077 0.30922 0.3278 0.0
C47 C 0.04947 0.30271 0.36288 0.0
C48 C 0.05223 0.34164 0.32804 0.0
H49 H 0.03129 0.31114 0.40687 0.0
C50 C 0.00279 0.33072 0.44866 0.0
O51 O 0.93391 0.31277 0.40285 0.0
O52 O 0.95285 0.29434 0.37836 0.0
N53 N 0.04202 0.3718 0.33091 0.0
C54 C 0.04186 0.39133 0.31728 0.0
C55 C 0.05222 0.39999 0.28221 0.0
C56 C 0.06292 0.3887 0.26178 0.0
C57 C 0.06324 0.36889 0.27669 0.0
C58 C 0.05256 0.361 0.3117 0.0
H59 H 0.0338 0.40018 0.33293 0.0
O60 O 0.96438 0.33353 0.33396 0.0
O61 O 0.99837 0.3362 0.35849 0.0
O62 O 0.97982 0.36296 0.39841 0.0
O63 O 0.02112 0.38063 0.39384 0.0
C64 C 0.07393 0.35679 0.25833 0.0
C65 C 0.07334 0.33682 0.27482 0.0
H66 H 0.0682 0.29885 0.31484 0.0
H67 H 0.04819 0.2874 0.37683 0.0
H68 H 0.05199 0.41534 0.27096 0.0
H69 H 0.0709 0.39543 0.23474 0.0
H70 H 0.08281 0.36287 0.23165 0.0
H71 H 0.08166 0.32767 0.2605 0.0
Mn72 Mn 0.62268 0.94881 0.75692 0.0
Mn73 Mn 0.57139 0.91722 0.70649 0.0
C74 C 0.59367 0.96156 0.75131 0.0
C75 C 0.64261 0.9555 0.81432 0.0
C76 C 0.62185 0.94799 0.67255 0.0
O77 O 0.62251 0.91757 0.74885 0.0
O78 O 0.58443 0.89645 0.72473 0.0
C79 C 0.53841 0.88736 0.76623 0.0
N80 N 0.54321 0.90305 0.73821 0.0
C81 C 0.50423 0.90243 0.74709 0.0
C82 C 0.4988 0.88616 0.77594 0.0
C83 C 0.51601 0.87866 0.78563 0.0
C84 C 0.52692 0.91059 0.72895 0.0
H85 H 0.55161 0.88157 0.77369 0.0
C86 C 0.60471 0.89834 0.73733 0.0
O87 O 0.65507 0.96259 0.78354 0.0
O88 O 0.61886 0.94365 0.81143 0.0
N89 N 0.55666 0.93502 0.68678 0.0
C90 C 0.56489 0.951 0.65862 0.0
C91 C 0.54966 0.95989 0.64497 0.0
C92 C 0.52609 0.95212 0.66016 0.0
C93 C 0.51806 0.93578 0.68926 0.0
C94 C 0.53389 0.92726 0.70131 0.0
H95 H 0.5828 0.95674 0.64632 0.0
O96 O 0.61585 0.97585 0.76212 0.0
O97 O 0.58896 0.94012 0.74533 0.0
O98 O 0.63312 0.9577 0.7026 0.0
O99 O 0.59946 0.93174 0.6715 0.0
C100 C 0.49495 0.92754 0.7067 0.0
C101 C 0.48813 0.91102 0.7358 0.0
H102 H 0.48153 0.87938 0.79093 0.0
H103 H 0.51199 0.86618 0.80796 0.0
H104 H 0.55598 0.97251 0.62252 0.0
H105 H 0.51425 0.95871 0.64904 0.0
H106 H 0.48239 0.93395 0.69817 0.0
H107 H 0.47044 0.90501 0.74929 0.0
Mn108 Mn 0.67148 0.6317 0.12805 0.0
Mn109 Mn 0.64783 0.59506 0.05499 0.0
C110 C 0.62975 0.60666 0.12491 0.0
C111 C 0.68845 0.64016 0.18731 0.0
C112 C 0.6597 0.64545 0.05207 0.0
O113 O 0.70208 0.63267 0.10571 0.0
O114 O 0.68435 0.61051 0.05535 0.0
C115 C 0.66289 0.56063 0.08187 0.0
N116 N 0.64499 0.56559 0.06959 0.0
C117 C 0.61448 0.52501 0.07225 0.0
C118 C 0.63258 0.51944 0.08487 0.0
C119 C 0.65687 0.53735 0.08983 0.0
C120 C 0.62151 0.54856 0.06528 0.0
H121 H 0.6816 0.57433 0.08549 0.0
C122 C 0.70324 0.62389 0.07464 0.0
O123 O 0.69175 0.65678 0.16417 0.0
O124 O 0.67627 0.61883 0.17536 0.0
N125 N 0.61286 0.57859 0.04902 0.0
C126 C 0.59793 0.58679 0.03484 0.0
C127 C 0.57334 0.571 0.02628 0.0
C128 C 0.56442 0.54692 0.03199 0.0
C129 C 0.58017 0.53885 0.04615 0.0
C130 C 0.60462 0.55538 0.05352 0.0
H131 H 0.60484 0.60523 0.02955 0.0
O132 O 0.63828 0.62539 0.14516 0.0
O133 O 0.64587 0.60268 0.10733 0.0
O134 O 0.6699 0.65127 0.084 0.0
O135 O 0.64976 0.6247 0.03904 0.0
C136 C 0.57268 0.51502 0.05276 0.0
C137 C 0.58977 0.50812 0.06613 0.0
H138 H 0.62805 0.50148 0.09078 0.0
H139 H 0.67094 0.53319 0.09957 0.0
H140 H 0.56135 0.57734 0.01498 0.0
H141 H 0.54549 0.53475 0.02509 0.0
H142 H 0.55381 0.50186 0.04764 0.0
H143 H 0.58378 0.48976 0.07122 0.0
Mn144 Mn 0.04615 0.66243 0.39159 0.0
Mn145 Mn 0.98586 0.63305 0.37002 0.0
C146 C 0.0337 0.66159 0.33125 0.0
C147 C 0.08096 0.69719 0.40687 0.0
C148 C 0.017 0.60906 0.38322 0.0
O149 O 0.02997 0.65837 0.44199 0.0
O150 O 0.99004 0.6385 0.42485 0.0
C151 C 0.97259 0.66993 0.38957 0.0
N152 N 0.97371 0.65499 0.364 0.0
C153 C 0.95555 0.66837 0.31695 0.0
C154 C 0.95405 0.68379 0.34286 0.0
C155 C 0.96265 0.68459 0.3793 0.0
C156 C 0.96549 0.65408 0.32885 0.0
H157 H 0.97927 0.67069 0.41756 0.0
C158 C 0.00699 0.64802 0.44952 0.0
O159 O 0.08012 0.67707 0.413 0.0
O160 O 0.06097 0.69682 0.39501 0.0
N161 N 0.97923 0.62687 0.31802 0.0
C162 C 0.98326 0.61199 0.29588 0.0
C163 C 0.97651 0.60977 0.25819 0.0
C164 C 0.96549 0.62267 0.24375 0.0
C165 C 0.96124 0.63763 0.2672 0.0
C166 C 0.9683 0.6391 0.30455 0.0
H167 H 0.99181 0.6021 0.30681 0.0
O168 O 0.05592 0.66561 0.33859 0.0
O169 O 0.01918 0.65796 0.35961 0.0
O170 O 0.03702 0.62757 0.39073 0.0
O171 O 0.99696 0.60925 0.37481 0.0
C172 C 0.95072 0.65151 0.25481 0.0
C173 C 0.94794 0.6669 0.27964 0.0
H174 H 0.94652 0.69522 0.33499 0.0
H175 H 0.96167 0.69652 0.3994 0.0
H176 H 0.97988 0.5982 0.24026 0.0
H177 H 0.96052 0.62107 0.21459 0.0
H178 H 0.94497 0.65066 0.22613 0.0
H179 H 0.94014 0.67771 0.26965 0.0
Mn180 Mn 0.38254 0.05168 0.75796 0.0
Mn181 Mn 0.43139 0.08617 0.70413 0.0
C182 C 0.41275 0.0409 0.74657 0.0
C183 C 0.36418 0.04255 0.81693 0.0
C184 C 0.38106 0.05261 0.67295 0.0
O185 O 0.38013 0.08193 0.75434 0.0
O186 O 0.41506 0.10398 0.72267 0.0
C187 C 0.46253 0.11848 0.76309 0.0
N188 N 0.45955 0.10341 0.73483 0.0
C189 C 0.50156 0.11097 0.74014 0.0
C190 C 0.50516 0.12669 0.76919 0.0
C191 C 0.48551 0.13037 0.78083 0.0
C192 C 0.4782 0.0995 0.72377 0.0
H193 H 0.44749 0.12142 0.77195 0.0
C194 C 0.3957 0.10125 0.73971 0.0
O195 O 0.35097 0.03588 0.7868 0.0
O196 O 0.38775 0.05526 0.81261 0.0
N197 N 0.44953 0.07188 0.6836 0.0
C198 C 0.44277 0.05567 0.65592 0.0
C199 C 0.46043 0.05038 0.64043 0.0
C200 C 0.48483 0.06193 0.6534 0.0
C201 C 0.49124 0.0782 0.68234 0.0
C202 C 0.473 0.08309 0.69618 0.0
H203 H 0.42418 0.0472 0.64525 0.0
O204 O 0.39114 0.02578 0.75842 0.0
O205 O 0.41654 0.06234 0.74314 0.0
O206 O 0.37052 0.04368 0.70388 0.0
O207 O 0.40335 0.06883 0.67021 0.0
C208 C 0.51507 0.08989 0.69779 0.0
C209 C 0.52017 0.10611 0.72693 0.0
H210 H 0.52288 0.13594 0.78285 0.0
H211 H 0.48811 0.14241 0.80331 0.0
H212 H 0.45535 0.03779 0.61806 0.0
H213 H 0.49864 0.05853 0.64055 0.0
H214 H 0.52954 0.08638 0.68771 0.0
H215 H 0.53846 0.11478 0.73892 0.0
Mn216 Mn 0.61505 0.66232 0.62218 0.0
Mn217 Mn 0.64738 0.63441 0.6443 0.0
C218 C 0.62161 0.65705 0.68352 0.0
C219 C 0.61511 0.69744 0.60948 0.0
C220 C 0.59407 0.60931 0.61796 0.0
O221 O 0.63174 0.66242 0.57361 0.0
O222 O 0.65546 0.64651 0.59238 0.0
C223 C 0.69737 0.67517 0.64365 0.0
N224 N 0.67916 0.65674 0.66208 0.0
C225 C 0.70346 0.66624 0.71801 0.0
C226 C 0.72256 0.68518 0.69951 0.0
C227 C 0.71947 0.68968 0.66219 0.0
C228 C 0.6819 0.6523 0.69803 0.0
H229 H 0.69499 0.67885 0.61509 0.0
C230 C 0.64812 0.65609 0.56771 0.0
O231 O 0.5967 0.67759 0.59934 0.0
O232 O 0.6337 0.69677 0.62492 0.0
N233 N 0.64154 0.62223 0.69396 0.0
C234 C 0.62099 0.60384 0.70823 0.0
C235 C 0.62088 0.59733 0.74552 0.0
C236 C 0.64191 0.60969 0.76769 0.0
C237 C 0.66292 0.62838 0.75229 0.0
C238 C 0.66205 0.63392 0.71484 0.0
H239 H 0.60475 0.59431 0.69137 0.0
O240 O 0.6038 0.66128 0.67438 0.0
O241 O 0.63515 0.65628 0.65645 0.0
O242 O 0.59103 0.62742 0.61561 0.0
O243 O 0.61451 0.61016 0.62735 0.0
C244 C 0.68459 0.64193 0.77275 0.0
C245 C 0.70481 0.66089 0.75566 0.0
H246 H 0.73958 0.6965 0.71378 0.0
H247 H 0.73406 0.70437 0.64781 0.0
H248 H 0.60459 0.58288 0.75721 0.0
H249 H 0.64166 0.60476 0.79654 0.0
H250 H 0.68582 0.63807 0.80176 0.0
H251 H 0.72125 0.67136 0.77181 0.0
Mn252 Mn 0.95468 0.6173 0.89982 0.0
Mn253 Mn 0.93116 0.58324 0.97556 0.0
C254 C 0.96482 0.58795 0.91283 0.0
C255 C 0.95294 0.62603 0.83758 0.0
C256 C 0.97465 0.63125 0.97909 0.0
O257 O 0.92651 0.62375 0.91332 0.0
O258 O 0.91481 0.60257 0.96592 0.0
C259 C 0.88215 0.5529 0.94251 0.0
N260 N 0.90282 0.5553 0.95995 0.0
C261 C 0.88669 0.51357 0.96305 0.0
C262 C 0.86517 0.51063 0.94527 0.0
C263 C 0.86294 0.53039 0.93482 0.0
C264 C 0.90528 0.53643 0.96965 0.0
H265 H 0.88032 0.56803 0.93456 0.0
C266 C 0.91348 0.61683 0.94269 0.0
O267 O 0.96652 0.64216 0.86116 0.0
O268 O 0.93992 0.60496 0.85038 0.0
N269 N 0.94461 0.5633 0.9895 0.0
C270 C 0.96658 0.56922 0.00628 0.0
C271 C 0.97146 0.55151 0.01942 0.0
C272 C 0.95358 0.52799 0.01548 0.0
C273 C 0.93122 0.52229 0.9979 0.0
C274 C 0.92723 0.54068 0.98593 0.0
H275 H 0.98013 0.58731 0.01002 0.0
O276 O 0.97888 0.60559 0.892 0.0
O277 O 0.94475 0.5876 0.92507 0.0
O278 O 0.97403 0.63652 0.94507 0.0
O279 O 0.96035 0.61134 0.99334 0.0
C280 C 0.91265 0.4991 0.99211 0.0
C281 C 0.89046 0.49474 0.9744 0.0
H282 H 0.85027 0.49329 0.93944 0.0
H283 H 0.84642 0.52828 0.921 0.0
H284 H 0.98876 0.55597 0.03311 0.0
H285 H 0.95691 0.51442 0.02669 0.0
H286 H 0.91532 0.48451 0.00095 0.0
H287 H 0.8764 0.47685 0.96978 0.0
Mn288 Mn 0.32624 0.93969 0.2395 0.0
Mn289 Mn 0.34789 0.91299 0.2983 0.0
C290 C 0.36834 0.95573 0.24904 0.0
C291 C 0.31423 0.94411 0.17951 0.0
C292 C 0.32623 0.94384 0.32432 0.0
O293 O 0.29623 0.90762 0.24719 0.0
O294 O 0.31373 0.89125 0.28314 0.0
C295 C 0.34908 0.87883 0.24494 0.0
N296 N 0.36067 0.89608 0.27055 0.0
C297 C 0.39762 0.89243 0.26643 0.0
C298 C 0.38605 0.87452 0.24015 0.0
C299 C 0.36171 0.86777 0.22924 0.0
C300 C 0.38413 0.90285 0.281 0.0
H301 H 0.33035 0.87357 0.23661 0.0
C302 C 0.29537 0.89035 0.26533 0.0
O303 O 0.30676 0.9508 0.20866 0.0
O304 O 0.32744 0.93378 0.18549 0.0
N305 N 0.38077 0.93132 0.3161 0.0
C306 C 0.38948 0.9494 0.34077 0.0
C307 C 0.41344 0.95805 0.35488 0.0
C308 C 0.42819 0.94808 0.34351 0.0
C309 C 0.41888 0.92958 0.31798 0.0
C310 C 0.39466 0.9213 0.30556 0.0
H311 H 0.37808 0.95686 0.35013 0.0
O312 O 0.35883 0.96812 0.23547 0.0
O313 O 0.35299 0.93376 0.25558 0.0
O314 O 0.32187 0.94953 0.29221 0.0
O315 O 0.3355 0.93015 0.32936 0.0
C316 C 0.43266 0.91901 0.30438 0.0
C317 C 0.42209 0.90056 0.2784 0.0
H318 H 0.39573 0.86595 0.22799 0.0
H319 H 0.35269 0.85403 0.20887 0.0
H320 H 0.42035 0.97208 0.375 0.0
H321 H 0.44657 0.95463 0.35477 0.0
H322 H 0.45148 0.92512 0.31339 0.0
H323 H 0.43298 0.8928 0.26773 0.0
Mn324 Mn 0.3651 0.32787 0.60223 0.0
Mn325 Mn 0.33058 0.35515 0.59389 0.0
C326 C 0.35033 0.33756 0.6545 0.0
C327 C 0.36734 0.29313 0.60595 0.0
C328 C 0.38629 0.3799 0.58475 0.0
O329 O 0.35565 0.32351 0.54753 0.0
O330 O 0.32951 0.33878 0.54675 0.0
C331 C 0.28159 0.31335 0.58761 0.0
N332 N 0.29711 0.33355 0.60538 0.0
C333 C 0.2658 0.32844 0.64986 0.0
C334 C 0.24939 0.30769 0.63183 0.0
C335 C 0.25737 0.30006 0.60066 0.0
C336 C 0.28975 0.34087 0.63571 0.0
H337 H 0.28768 0.30739 0.56373 0.0
C338 C 0.34015 0.3282 0.5312 0.0
O339 O 0.38644 0.31264 0.59648 0.0
O340 O 0.34686 0.2937 0.61117 0.0
N341 N 0.32989 0.37151 0.63775 0.0
C342 C 0.34801 0.39187 0.65206 0.0
C343 C 0.3431 0.40173 0.68361 0.0
C344 C 0.31955 0.39075 0.69976 0.0
C345 C 0.30107 0.37009 0.68405 0.0
C346 C 0.30703 0.36108 0.65263 0.0
H347 H 0.36612 0.40048 0.63967 0.0
O348 O 0.36877 0.33328 0.65691 0.0
O349 O 0.34073 0.33548 0.62173 0.0
O350 O 0.38952 0.36236 0.59265 0.0
O351 O 0.36502 0.37874 0.58294 0.0
C352 C 0.27694 0.35818 0.6982 0.0
C353 C 0.25934 0.33729 0.6813 0.0
H354 H 0.23068 0.29742 0.64177 0.0
H355 H 0.24486 0.284 0.58671 0.0
H356 H 0.35744 0.41774 0.69543 0.0
H357 H 0.31583 0.39836 0.72415 0.0
H358 H 0.27175 0.36507 0.72192 0.0
H359 H 0.24086 0.32823 0.69257 0.0
Mn360 Mn 0.03948 0.37584 0.88092 0.0
Mn361 Mn 0.06525 0.4223 0.939 0.0
C362 C 0.02706 0.40421 0.87818 0.0
C363 C 0.04013 0.35722 0.82636 0.0
C364 C 0.02489 0.37479 0.96245 0.0
O365 O 0.06906 0.37369 0.90092 0.0
O366 O 0.08492 0.40547 0.93749 0.0
C367 C 0.10962 0.44993 0.89315 0.0
N368 N 0.08962 0.44824 0.91181 0.0
C369 C 0.10083 0.48833 0.89823 0.0
C370 C 0.12161 0.49056 0.87896 0.0
C371 C 0.12595 0.47123 0.87625 0.0
C372 C 0.08502 0.46656 0.91396 0.0
H373 H 0.11307 0.43514 0.89126 0.0
C374 C 0.08514 0.3874 0.92382 0.0
O375 O 0.02787 0.34541 0.85522 0.0
O376 O 0.05233 0.37984 0.82944 0.0
N377 N 0.04911 0.44097 0.94501 0.0
C378 C 0.02874 0.43612 0.96573 0.0
C379 C 0.0226 0.45394 0.9731 0.0
C380 C 0.03747 0.47659 0.95918 0.0
C381 C 0.05838 0.48122 0.93806 0.0
C382 C 0.06391 0.46289 0.93241 0.0
H383 H 0.01746 0.41887 0.97701 0.0
O384 O 0.01349 0.38358 0.86431 0.0
O385 O 0.04823 0.40816 0.8921 0.0
O386 O 0.02255 0.36465 0.93122 0.0
O387 O 0.04 0.39635 0.96842 0.0
C388 C 0.07414 0.50336 0.92282 0.0
C389 C 0.09523 0.50686 0.90258 0.0
H390 H 0.13436 0.50702 0.86616 0.0
H391 H 0.14192 0.47279 0.86139 0.0
H392 H 0.00654 0.45028 0.98975 0.0
H393 H 0.03275 0.49033 0.96505 0.0
H394 H 0.07019 0.51781 0.92646 0.0
H395 H 0.10714 0.52392 0.89082 0.0
Mn396 Mn 0.67169 0.0579 0.23459 0.0
Mn397 Mn 0.65291 0.08757 0.29196 0.0
C398 C 0.63014 0.04628 0.24051 0.0
C399 C 0.68474 0.05295 0.17578 0.0
C400 C 0.6695 0.053 0.3192 0.0
O401 O 0.70342 0.08805 0.24501 0.0
O402 O 0.68792 0.10745 0.27832 0.0
C403 C 0.65589 0.12383 0.23924 0.0
N404 N 0.64262 0.10628 0.26368 0.0
C405 C 0.6072 0.11223 0.25673 0.0
C406 C 0.62051 0.13046 0.2316 0.0
C407 C 0.64492 0.13621 0.2227 0.0
C408 C 0.61906 0.10046 0.27219 0.0
H409 H 0.67469 0.12834 0.2325 0.0
C410 C 0.70581 0.10619 0.26234 0.0
O411 O 0.68956 0.0444 0.20542 0.0
O412 O 0.67346 0.06526 0.18064 0.0
N413 N 0.61933 0.07064 0.30777 0.0
C414 C 0.60868 0.05185 0.33105 0.0
C415 C 0.58413 0.04361 0.34226 0.0
C416 C 0.57094 0.05497 0.32996 0.0
C417 C 0.58229 0.07429 0.30608 0.0
C418 C 0.60681 0.08175 0.2959 0.0
H419 H 0.61886 0.04326 0.34103 0.0
O420 O 0.63749 0.032 0.22764 0.0
O421 O 0.64731 0.06723 0.24875 0.0
O422 O 0.67275 0.0462 0.28733 0.0
O423 O 0.66273 0.06863 0.32373 0.0
C424 C 0.57019 0.08631 0.29168 0.0
C425 C 0.58257 0.10514 0.26681 0.0
H426 H 0.61213 0.14006 0.21881 0.0
H427 H 0.65529 0.1502 0.20324 0.0
H428 H 0.57541 0.02864 0.36054 0.0
H429 H 0.55208 0.04863 0.33897 0.0
H430 H 0.55126 0.08104 0.2992 0.0
H431 H 0.57294 0.114 0.25547 0.0
H432 H 0.35177 0.4093 0.21772 0.0
H433 H 0.35011 0.39387 0.28007 0.0
H434 H 0.30789 0.32343 0.23837 0.0
H435 H 0.31044 0.33885 0.17542 0.0
H436 H 0.31581 0.37091 0.32589 0.0
H437 H 0.32013 0.28597 0.2897 0.0
H438 H 0.3366 0.27073 0.24051 0.0
H439 H 0.39161 0.34069 0.21372 0.0
H440 H 0.37568 0.3563 0.26303 0.0
H441 H 0.29713 0.31461 0.49413 0.0
H442 H 0.29215 0.31616 0.42696 0.0
H443 H 0.36851 0.33436 0.41093 0.0
H444 H 0.37326 0.33176 0.47812 0.0
H445 H 0.34217 0.31101 0.35184 0.0
H446 H 0.35231 0.3768 0.4247 0.0
H447 H 0.34256 0.39659 0.4755 0.0
H448 H 0.27036 0.37357 0.42988 0.0
H449 H 0.27957 0.35332 0.3791 0.0
C450 C 0.34202 0.39053 0.22185 0.0
C451 C 0.33131 0.37526 0.19176 0.0
C452 C 0.34107 0.38171 0.25751 0.0
C453 C 0.32915 0.35747 0.26387 0.0
C454 C 0.31766 0.34218 0.23401 0.0
C455 C 0.31897 0.351 0.19814 0.0
C456 C 0.32889 0.34843 0.30185 0.0
C457 C 0.32145 0.35771 0.33142 0.0
C458 C 0.33665 0.3315 0.30928 0.0
C459 C 0.3465 0.32229 0.27975 0.0
C460 C 0.33578 0.29808 0.27336 0.0
C461 C 0.34501 0.28938 0.24545 0.0
C462 C 0.36507 0.30474 0.22391 0.0
C463 C 0.37601 0.32882 0.23031 0.0
C464 C 0.36686 0.3376 0.2582 0.0
C465 C 0.31261 0.31817 0.47614 0.0
C466 C 0.33567 0.32341 0.49117 0.0
C467 C 0.30977 0.3191 0.43783 0.0
C468 C 0.33014 0.32605 0.41413 0.0
C469 C 0.35258 0.32909 0.42877 0.0
C470 C 0.35529 0.32763 0.46713 0.0
C471 C 0.32906 0.33349 0.37555 0.0
C472 C 0.33623 0.32395 0.34602 0.0
C473 C 0.32202 0.35093 0.36817 0.0
C474 C 0.31653 0.36335 0.39836 0.0
C475 C 0.33431 0.37585 0.42564 0.0
C476 C 0.32888 0.38715 0.45442 0.0
C477 C 0.30583 0.38629 0.45597 0.0
C478 C 0.28818 0.37418 0.42868 0.0
C479 C 0.29349 0.36279 0.39989 0.0
H480 H 0.30166 0.39504 0.47828 0.0
H481 H 0.37219 0.29797 0.20231 0.0
H482 H 0.97009 0.29552 0.4933 0.0
H483 H 0.97586 0.28823 0.55842 0.0
H484 H 0.04956 0.34643 0.55579 0.0
H485 H 0.0443 0.35311 0.49053 0.0
H486 H 0.04935 0.31374 0.59776 0.0
H487 H 0.99792 0.3515 0.58634 0.0
H488 H 0.9616 0.35469 0.56507 0.0
H489 H 0.91384 0.29034 0.62071 0.0
H490 H 0.94992 0.28665 0.64193 0.0
H491 H 0.06985 0.3756 0.76607 0.0
H492 H 0.06329 0.35885 0.70367 0.0
H493 H 0.00016 0.29638 0.74297 0.0
H494 H 0.00679 0.31294 0.80574 0.0
H495 H 0.99028 0.31953 0.68526 0.0
H496 H 0.04604 0.29011 0.71038 0.0
H497 H 0.08431 0.29133 0.73319 0.0
H498 H 0.12635 0.3448 0.65346 0.0
H499 H 0.08838 0.34417 0.63051 0.0
C500 C 0.9876 0.30658 0.50657 0.0
C501 C 0.00663 0.32509 0.48703 0.0
C502 C 0.99088 0.30239 0.54372 0.0
C503 C 0.01298 0.31705 0.56216 0.0
C504 C 0.03235 0.33485 0.54215 0.0
C505 C 0.02927 0.33875 0.50488 0.0
C506 C 0.01542 0.31545 0.60291 0.0
C507 C 0.03643 0.31496 0.61695 0.0
C508 C 0.99822 0.31643 0.62799 0.0
C509 C 0.97656 0.31863 0.61526 0.0
C510 C 0.97966 0.33795 0.59379 0.0
C511 C 0.95913 0.33986 0.58179 0.0
C512 C 0.93542 0.32268 0.59141 0.0
C513 C 0.93221 0.30359 0.61318 0.0
C514 C 0.95268 0.30158 0.6252 0.0
C515 C 0.05493 0.35808 0.76162 0.0
C516 C 0.03867 0.34565 0.79057 0.0
C517 C 0.05131 0.34846 0.72605 0.0
C518 C 0.0313 0.32636 0.71887 0.0
C519 C 0.01579 0.3134 0.74814 0.0
C520 C 0.0196 0.32289 0.78389 0.0
C521 C 0.02465 0.31873 0.67997 0.0
C522 C 0.00282 0.31753 0.66623 0.0
C523 C 0.04137 0.31676 0.65526 0.0
C524 C 0.06431 0.31714 0.6688 0.0
C525 C 0.06345 0.30224 0.69785 0.0
C526 C 0.0851 0.30281 0.71079 0.0
C527 C 0.10775 0.31814 0.6948 0.0
C528 C 0.10879 0.33292 0.6658 0.0
C529 C 0.0872 0.33243 0.65276 0.0
H530 H 0.1245 0.31856 0.70486 0.0
H531 H 0.91955 0.32419 0.58211 0.0
H532 H 0.62326 0.93604 0.88134 0.0
H533 H 0.63757 0.95338 0.94262 0.0
H534 H 0.70156 0.01024 0.8926 0.0
H535 H 0.68759 0.99258 0.83102 0.0
H536 H 0.71182 0.99916 0.96287 0.0
H537 H 0.65191 0.0167 0.90582 0.0
H538 H 0.61253 0.00597 0.87397 0.0
H539 H 0.5727 0.96523 0.96864 0.0
H540 H 0.61185 0.97545 0.00085 0.0
H541 H 0.68069 0.07184 0.11011 0.0
H542 H 0.68107 0.05755 0.04745 0.0
H543 H 0.6975 0.00496 0.09267 0.0
H544 H 0.6977 0.01957 0.15551 0.0
H545 H 0.64982 0.01694 0.0218 0.0
H546 H 0.72512 0.98739 0.02606 0.0
H547 H 0.76583 0.99974 0.05456 0.0
H548 H 0.77787 0.0704 0.06163 0.0
H549 H 0.7374 0.05855 0.03272 0.0
C550 C 0.64072 0.9519 0.88345 0.0
C551 C 0.65416 0.96311 0.85134 0.0
C552 C 0.64886 0.96183 0.9185 0.0
C553 C 0.67033 0.98339 0.92209 0.0
C554 C 0.68488 0.99365 0.89045 0.0
C555 C 0.67688 0.98353 0.85528 0.0
C556 C 0.67576 0.9964 0.95784 0.0
C557 C 0.69831 0.00305 0.97587 0.0
C558 C 0.65838 0.00204 0.97429 0.0
C559 C 0.63481 0.99667 0.95561 0.0
C560 C 0.63475 0.0054 0.9198 0.0
C561 C 0.61248 0.9994 0.90167 0.0
C562 C 0.59015 0.98483 0.91921 0.0
C563 C 0.59002 0.97646 0.95507 0.0
C564 C 0.61224 0.98237 0.97329 0.0
C565 C 0.68491 0.05755 0.1067 0.0
C566 C 0.68906 0.04677 0.13782 0.0
C567 C 0.68503 0.04933 0.07082 0.0
C568 C 0.68924 0.03012 0.0652 0.0
C569 C 0.69451 0.01999 0.09613 0.0
C570 C 0.69457 0.02833 0.1321 0.0
C571 C 0.68581 0.01945 0.02753 0.0
C572 C 0.66349 0.01318 0.00899 0.0
C573 C 0.70364 0.01465 0.01044 0.0
C574 C 0.72811 0.02201 0.02755 0.0
C575 C 0.73649 0.00557 0.03357 0.0
C576 C 0.75952 0.01249 0.04982 0.0
C577 C 0.77439 0.03582 0.06001 0.0
C578 C 0.76629 0.05231 0.05386 0.0
C579 C 0.74329 0.04549 0.0376 0.0
H580 H 0.79221 0.04114 0.07259 0.0
H581 H 0.57293 0.98 0.905 0.0
H582 H 0.67308 0.60869 0.24375 0.0
H583 H 0.67636 0.61693 0.30993 0.0
H584 H 0.72283 0.69043 0.28749 0.0
H585 H 0.71835 0.68232 0.22052 0.0
H586 H 0.70678 0.63305 0.36241 0.0
H587 H 0.71023 0.72268 0.34866 0.0
H588 H 0.70023 0.74546 0.30324 0.0
H589 H 0.64441 0.68181 0.25498 0.0
H590 H 0.65392 0.6587 0.30036 0.0
H591 H 0.69362 0.66219 0.54811 0.0
H592 H 0.71031 0.66587 0.48527 0.0
H593 H 0.64275 0.6598 0.43965 0.0
H594 H 0.62662 0.65744 0.50231 0.0
H595 H 0.67781 0.68926 0.40064 0.0
H596 H 0.65637 0.61212 0.44665 0.0
H597 H 0.65793 0.58342 0.49006 0.0
H598 H 0.73563 0.61215 0.4706 0.0
H599 H 0.73455 0.6412 0.42736 0.0
C600 C 0.68436 0.62658 0.25281 0.0
C601 C 0.6951 0.64493 0.22695 0.0
C602 C 0.68632 0.63128 0.29081 0.0
C603 C 0.69939 0.65438 0.3038 0.0
C604 C 0.7121 0.67253 0.2781 0.0
C605 C 0.70966 0.66788 0.23988 0.0
C606 C 0.69727 0.65926 0.34363 0.0
C607 C 0.70074 0.64556 0.37081 0.0
C608 C 0.68903 0.67532 0.35471 0.0
C609 C 0.68303 0.68902 0.32753 0.0
C610 C 0.69581 0.71359 0.32837 0.0
C611 C 0.69022 0.72654 0.30265 0.0
C612 C 0.67177 0.71509 0.27614 0.0
C613 C 0.65877 0.69065 0.27542 0.0
C614 C 0.66425 0.67763 0.30111 0.0
C615 C 0.68245 0.66185 0.52462 0.0
C616 C 0.65876 0.65939 0.53004 0.0
C617 C 0.69197 0.66388 0.48873 0.0
C618 C 0.67766 0.66272 0.45761 0.0
C619 C 0.65423 0.66084 0.46315 0.0
C620 C 0.64496 0.65939 0.49899 0.0
C621 C 0.68632 0.66234 0.41919 0.0
C622 C 0.68435 0.67709 0.39239 0.0
C623 C 0.69473 0.6464 0.40819 0.0
C624 C 0.69544 0.629 0.4342 0.0
C625 C 0.67381 0.61241 0.45186 0.0
C626 C 0.67461 0.59607 0.47639 0.0
C627 C 0.69689 0.59602 0.48319 0.0
C628 C 0.7184 0.61226 0.46538 0.0
C629 C 0.71771 0.62866 0.44086 0.0
H630 H 0.69747 0.58335 0.50218 0.0
H631 H 0.66749 0.72515 0.25624 0.0
H632 H 0.98673 0.66461 0.80045 0.0
H633 H 0.99182 0.66983 0.73318 0.0
H634 H 0.9261 0.6039 0.71662 0.0
H635 H 0.92147 0.59821 0.78392 0.0
H636 H 0.96139 0.60455 0.6781 0.0
H637 H 0.92994 0.65834 0.6932 0.0
H638 H 0.92677 0.69172 0.7201 0.0
H639 H 0.00069 0.73844 0.68511 0.0
H640 H 0.00445 0.70528 0.65844 0.0
H641 H 0.96277 0.61757 0.48062 0.0
H642 H 0.95064 0.61482 0.54599 0.0
H643 H 0.02164 0.67262 0.57281 0.0
H644 H 0.03409 0.67538 0.50755 0.0
H645 H 0.98105 0.67587 0.60444 0.0
H646 H 0.01254 0.62084 0.59374 0.0
H647 H 0.01608 0.58656 0.57187 0.0
H648 H 0.94032 0.54152 0.60006 0.0
H649 H 0.93623 0.57557 0.62166 0.0
C650 C 0.9731 0.65145 0.78246 0.0
C651 C 0.95381 0.63092 0.79738 0.0
C652 C 0.97595 0.65451 0.74397 0.0
C653 C 0.95926 0.63732 0.71975 0.0
C654 C 0.93925 0.61737 0.73473 0.0
C655 C 0.9366 0.61415 0.77319 0.0
C656 C 0.96415 0.63889 0.67912 0.0
C657 C 0.96509 0.61996 0.66184 0.0
C658 C 0.96973 0.65926 0.65811 0.0
C659 C 0.96754 0.67927 0.67408 0.0
C660 C 0.9456 0.6757 0.69149 0.0
C661 C 0.94368 0.69459 0.70665 0.0
C662 C 0.96353 0.71718 0.70439 0.0
C663 C 0.98533 0.72093 0.68687 0.0
C664 C 0.98736 0.70209 0.67168 0.0
C665 C 0.9758 0.62976 0.50037 0.0
C666 C 0.99943 0.64667 0.4889 0.0
C667 C 0.96886 0.62809 0.5377 0.0
C668 C 0.9853 0.64345 0.56413 0.0
C669 C 0.00872 0.66061 0.55274 0.0
C670 C 0.01582 0.66209 0.51551 0.0
C671 C 0.97815 0.6415 0.60376 0.0
C672 C 0.97691 0.66037 0.62075 0.0
C673 C 0.97205 0.62099 0.62453 0.0
C674 C 0.97402 0.60079 0.60894 0.0
C675 C 0.99652 0.60369 0.59467 0.0
C676 C 0.99866 0.58428 0.58253 0.0
C677 C 0.97846 0.56188 0.58474 0.0
C678 C 0.95596 0.55888 0.59847 0.0
C679 C 0.95372 0.57822 0.61064 0.0
H680 H 0.98026 0.54682 0.57606 0.0
H681 H 0.96201 0.73178 0.71614 0.0
H682 H 0.33001 0.93378 0.11487 0.0
H683 H 0.33077 0.94957 0.05316 0.0
H684 H 0.29124 0.98456 0.09483 0.0
H685 H 0.29103 0.96924 0.15728 0.0
H686 H 0.3001 0.94812 0.00219 0.0
H687 H 0.31319 0.0376 0.05123 0.0
H688 H 0.32765 0.06329 0.10636 0.0
H689 H 0.37441 0.03373 0.13661 0.0
H690 H 0.36045 0.0081 0.08145 0.0
H691 H 0.3158 0.01357 0.83582 0.0
H692 H 0.29971 0.99667 0.89721 0.0
H693 H 0.37267 0.03532 0.94364 0.0
H694 H 0.3886 0.05263 0.88303 0.0
H695 H 0.34111 0.03465 0.99196 0.0
H696 H 0.34784 0.97685 0.91508 0.0
H697 H 0.33908 0.95137 0.86012 0.0
H698 H 0.26184 0.91782 0.88588 0.0
H699 H 0.27015 0.94332 0.94078 0.0
C700 C 0.32113 0.94454 0.11091 0.0
C701 C 0.31068 0.95044 0.14115 0.0
C702 C 0.32151 0.95353 0.07545 0.0
C703 C 0.31142 0.9686 0.06931 0.0
C704 C 0.29954 0.97332 0.09895 0.0
C705 C 0.2993 0.96443 0.13462 0.0
C706 C 0.31517 0.98056 0.03262 0.0
C707 C 0.30878 0.96704 -1e-05 0.0
C708 C 0.32682 0.00527 0.0295 0.0
C709 C 0.33553 0.02075 0.06253 0.0
C710 C 0.32659 0.03664 0.06964 0.0
C711 C 0.3347 0.05118 0.10088 0.0
C712 C 0.35186 0.05007 0.12505 0.0
C713 C 0.36104 0.0345 0.11795 0.0
C714 C 0.35303 0.01995 0.08673 0.0
C715 C 0.3283 0.01874 0.85928 0.0
C716 C 0.35351 0.03434 0.85445 0.0
C717 C 0.31911 0.00896 0.89433 0.0
C718 C 0.33503 0.01441 0.92507 0.0
C719 C 0.35997 0.0308 0.9205 0.0
C720 C 0.36909 0.04065 0.88567 0.0
C721 C 0.32639 0.00222 0.96152 0.0
C722 C 0.33186 0.01571 0.99411 0.0
C723 C 0.31458 0.97751 0.96461 0.0
C724 C 0.30958 0.96216 0.93172 0.0
C725 C 0.32898 0.96415 0.90885 0.0
C726 C 0.3241 0.94969 0.87775 0.0
C727 C 0.29991 0.93304 0.86944 0.0
C728 C 0.28056 0.93076 0.8923 0.0
C729 C 0.28534 0.9452 0.92341 0.0
H730 H 0.29617 0.92186 0.84535 0.0
H731 H 0.35809 0.06133 0.14924 0.0
H732 H 0.08806 0.34679 0.91334 0.0
H733 H 0.11739 0.33618 0.94248 0.0
H734 H 0.15389 0.40387 0.99524 0.0
H735 H 0.12498 0.41457 0.96671 0.0
H736 H 0.16754 0.35636 0.93749 0.0
H737 H 0.17016 0.40014 0.08034 0.0
H738 H 0.14107 0.40556 0.12094 0.0
H739 H 0.08078 0.34405 0.07491 0.0
H740 H 0.10953 0.33804 0.03429 0.0
H741 H 0.27937 0.4227 0.01621 0.0
H742 H 0.23671 0.40569 0.99707 0.0
H743 H 0.21738 0.34821 0.07308 0.0
H744 H 0.2608 0.36501 0.09235 0.0
H745 H 0.18533 0.37062 0.0725 0.0
H746 H 0.21539 0.3331 0.99146 0.0
H747 H 0.24458 0.32897 0.94922 0.0
H748 H 0.23871 0.37642 0.87179 0.0
H749 H 0.20996 0.38132 0.91387 0.0
C750 C 0.10246 0.35946 0.93096 0.0
C751 C 0.10405 0.38148 0.93788 0.0
C752 C 0.11906 0.3533 0.94773 0.0
C753 C 0.13732 0.36899 0.97182 0.0
C754 C 0.13945 0.39122 0.97764 0.0
C755 C 0.12299 0.39739 0.96099 0.0
C756 C 0.15523 0.3631 0.98986 0.0
C757 C 0.1712 0.35897 0.96709 0.0
C758 C 0.15939 0.3657 0.02873 0.0
C759 C 0.14206 0.36867 0.05417 0.0
C760 C 0.15074 0.38761 0.07912 0.0
C761 C 0.13429 0.39084 0.10204 0.0
C762 C 0.1091 0.37523 0.10035 0.0
C763 C 0.1003 0.3562 0.07602 0.0
C764 C 0.11667 0.35288 0.05301 0.0
C765 C 0.26622 0.40647 0.02916 0.0
C766 C 0.27364 0.39512 0.05566 0.0
C767 C 0.2418 0.39671 0.01795 0.0
C768 C 0.22411 0.37548 0.03305 0.0
C769 C 0.23097 0.36449 0.06081 0.0
C770 C 0.25569 0.37418 0.0719 0.0
C771 C 0.19852 0.36568 0.01962 0.0
C772 C 0.1811 0.36693 0.04318 0.0
C773 C 0.19297 0.36031 0.9815 0.0
C774 C 0.21043 0.35756 0.95596 0.0
C775 C 0.22045 0.34282 0.96557 0.0
C776 C 0.23693 0.34032 0.94163 0.0
C777 C 0.24345 0.35239 0.90783 0.0
C778 C 0.23359 0.36704 0.89796 0.0
C779 C 0.21717 0.36966 0.92185 0.0
H780 H 0.25612 0.35038 0.88926 0.0
H781 H 0.09642 0.3779 0.11794 0.0
H782 H 0.92584 0.25048 0.36964 0.0
H783 H 0.88751 0.21726 0.34903 0.0
H784 H 0.84761 0.25439 0.37815 0.0
H785 H 0.88601 0.28779 0.39918 0.0
H786 H 0.82146 0.2069 0.39403 0.0
H787 H 0.86607 0.25642 0.29119 0.0
H788 H 0.90267 0.27827 0.25169 0.0
H789 H 0.90339 0.2143 0.22383 0.0
H790 H 0.867 0.1921 0.26367 0.0
H791 H 0.71708 0.15046 0.28316 0.0
H792 H 0.75678 0.18124 0.30435 0.0
H793 H 0.79071 0.13859 0.27612 0.0
H794 H 0.75078 0.10739 0.25472 0.0
H795 H 0.82048 0.18725 0.26027 0.0
H796 H 0.77458 0.13752 0.36142 0.0
H797 H 0.73772 0.11595 0.40053 0.0
H798 H 0.73937 0.18055 0.43143 0.0
H799 H 0.77599 0.20248 0.39192 0.0
C800 C 0.90885 0.25144 0.3724 0.0
C801 C 0.90897 0.27187 0.38564 0.0
C802 C 0.88699 0.23246 0.36045 0.0
C803 C 0.86486 0.2336 0.36131 0.0
C804 C 0.86456 0.25326 0.37705 0.0
C805 C 0.88649 0.2723 0.38911 0.0
C806 C 0.84249 0.21507 0.34331 0.0
C807 C 0.82117 0.20275 0.36474 0.0
C808 C 0.84232 0.20937 0.3052 0.0
C809 C 0.86396 0.22263 0.28072 0.0
C810 C 0.87413 0.24703 0.27685 0.0
C811 C 0.89483 0.25947 0.25437 0.0
C812 C 0.90539 0.24769 0.23534 0.0
C813 C 0.89521 0.22341 0.23864 0.0
C814 C 0.87454 0.21089 0.26114 0.0
C815 C 0.73301 0.14767 0.28085 0.0
C816 C 0.73067 0.12628 0.26779 0.0
C817 C 0.75569 0.16531 0.29303 0.0
C818 C 0.7765 0.16195 0.29253 0.0
C819 C 0.77476 0.1414 0.27692 0.0
C820 C 0.75196 0.12363 0.26465 0.0
C821 C 0.79944 0.17921 0.31096 0.0
C822 C 0.82085 0.1913 0.28961 0.0
C823 C 0.79969 0.18472 0.34914 0.0
C824 C 0.77791 0.17163 0.37344 0.0
C825 C 0.76698 0.14712 0.37634 0.0
C826 C 0.74614 0.13483 0.3986 0.0
C827 C 0.73619 0.14687 0.4184 0.0
C828 C 0.74709 0.17124 0.41604 0.0
C829 C 0.7679 0.18361 0.39374 0.0
H830 H 0.72005 0.13733 0.43561 0.0
H831 H 0.92143 0.25736 0.21798 0.0
H832 H 0.56925 0.8528 0.73877 0.0
H833 H 0.57326 0.81902 0.71811 0.0
H834 H 0.65167 0.86264 0.70538 0.0
H835 H 0.64774 0.89671 0.72605 0.0
H836 H 0.63039 0.83871 0.64214 0.0
H837 H 0.63051 0.82017 0.7698 0.0
H838 H 0.61696 0.81313 0.83523 0.0
H839 H 0.54753 0.75608 0.802 0.0
H840 H 0.56052 0.76297 0.73627 0.0
H841 H 0.65332 0.74156 0.60868 0.0
H842 H 0.65202 0.77707 0.62775 0.0
H843 H 0.57274 0.73842 0.63375 0.0
H844 H 0.57392 0.70279 0.61418 0.0
H845 H 0.59625 0.76036 0.70088 0.0
H846 H 0.59745 0.78004 0.57189 0.0
H847 H 0.613 0.78698 0.50745 0.0
H848 H 0.68249 0.84212 0.54487 0.0
H849 H 0.66748 0.83528 0.60966 0.0
C850 C 0.58745 0.8551 0.73254 0.0
C851 C 0.60817 0.87742 0.73386 0.0
C852 C 0.58973 0.83575 0.72079 0.0
C853 C 0.61275 0.83833 0.71007 0.0
C854 C 0.63373 0.86032 0.71347 0.0
C855 C 0.63149 0.87971 0.72561 0.0
C856 C 0.61427 0.81858 0.69181 0.0
C857 C 0.62334 0.82167 0.65524 0.0
C858 C 0.6045 0.79624 0.70857 0.0
C859 C 0.59641 0.79226 0.74802 0.0
C860 C 0.61224 0.80629 0.77638 0.0
C861 C 0.60469 0.80228 0.81355 0.0
C862 C 0.58138 0.78421 0.82276 0.0
C863 C 0.56557 0.77009 0.79482 0.0
C864 C 0.57303 0.77403 0.7576 0.0
C865 C 0.63556 0.74083 0.61278 0.0
C866 C 0.61372 0.71946 0.61006 0.0
C867 C 0.63485 0.76111 0.62372 0.0
C868 C 0.6123 0.76028 0.63241 0.0
C869 C 0.59032 0.73934 0.6272 0.0
C870 C 0.591 0.71907 0.61569 0.0
C871 C 0.61201 0.78044 0.65114 0.0
C872 C 0.60327 0.77741 0.68784 0.0
C873 C 0.62231 0.80287 0.63464 0.0
C874 C 0.63141 0.80698 0.5957 0.0
C875 C 0.61613 0.79349 0.56645 0.0
C876 C 0.62483 0.79744 0.52983 0.0
C877 C 0.64874 0.81494 0.52208 0.0
C878 C 0.66398 0.82855 0.55092 0.0
C879 C 0.65538 0.82466 0.58759 0.0
H880 H 0.65543 0.81798 0.49371 0.0
H881 H 0.57558 0.78112 0.85156 0.0
H882 H 0.71618 0.63212 0.00225 0.0
H883 H 0.7553 0.6399 0.97395 0.0
H884 H 0.78392 0.637 0.08234 0.0
H885 H 0.74493 0.63022 0.11096 0.0
H886 H 0.8191 0.6695 0.04092 0.0
H887 H 0.75785 0.58858 0.02309 0.0
H888 H 0.71744 0.55732 0.00236 0.0
H889 H 0.73383 0.583 0.89022 0.0
H890 H 0.77424 0.6146 0.91042 0.0
H891 H 0.89805 0.62152 0.01102 0.0
H892 H 0.86601 0.63182 0.02647 0.0
H893 H 0.85664 0.64175 0.91003 0.0
H894 H 0.8891 0.63143 0.8942 0.0
H895 H 0.81319 0.61156 0.94603 0.0
H896 H 0.87964 0.68781 0.96536 0.0
H897 H 0.91994 0.71751 0.98904 0.0
H898 H 0.89418 0.6993 0.10135 0.0
H899 H 0.85395 0.66902 0.07844 0.0
C900 C 0.73089 0.63325 0.02 0.0
C901 C 0.72749 0.6301 0.05863 0.0
C902 C 0.75322 0.63775 0.00384 0.0
C903 C 0.77232 0.63846 0.02592 0.0
C904 C 0.76937 0.63642 0.06477 0.0
C905 C 0.74712 0.63243 0.08108 0.0
C906 C 0.7946 0.63962 0.00838 0.0
C907 C 0.81787 0.6568 0.0203 0.0
C908 C 0.79293 0.62342 0.98066 0.0
C909 C 0.76894 0.60406 0.96831 0.0
C910 C 0.75279 0.58759 0.99403 0.0
C911 C 0.72989 0.56983 0.98239 0.0
C912 C 0.72305 0.56822 0.94501 0.0
C913 C 0.73914 0.5843 0.91917 0.0
C914 C 0.76205 0.60212 0.93069 0.0
C915 C 0.88939 0.62615 0.98866 0.0
C916 C 0.89587 0.62547 0.95136 0.0
C917 C 0.87124 0.63224 0.99758 0.0
C918 C 0.85912 0.63771 0.96942 0.0
C919 C 0.86595 0.6377 0.93213 0.0
C920 C 0.88445 0.63186 0.92315 0.0
C921 C 0.83773 0.64106 0.97928 0.0
C922 C 0.81453 0.62464 0.966 0.0
C923 C 0.83953 0.65773 0.00614 0.0
C924 C 0.86375 0.67601 0.02011 0.0
C925 C 0.88262 0.68996 0.99512 0.0
C926 C 0.90548 0.70691 0.00842 0.0
C927 C 0.90965 0.71024 0.04668 0.0
C928 C 0.89095 0.69667 0.07171 0.0
C929 C 0.86811 0.67959 0.05858 0.0
H930 H 0.92735 0.72337 0.05692 0.0
H931 H 0.70529 0.55448 0.93605 0.0
H932 H 0.12789 0.70286 0.40944 0.0
H933 H 0.16506 0.73715 0.38735 0.0
H934 H 0.12405 0.77516 0.37553 0.0
H935 H 0.08696 0.74113 0.39767 0.0
H936 H 0.14608 0.7725 0.31018 0.0
H937 H 0.16879 0.79266 0.43813 0.0
H938 H 0.17723 0.78568 0.50266 0.0
H939 H 0.2349 0.77172 0.46434 0.0
H940 H 0.22658 0.7783 0.3995 0.0
H941 H 0.24838 0.88486 0.26175 0.0
H942 H 0.21082 0.85111 0.28467 0.0
H943 H 0.25164 0.81348 0.30341 0.0
H944 H 0.28899 0.84689 0.28073 0.0
H945 H 0.22932 0.81612 0.3657 0.0
H946 H 0.20753 0.79542 0.23895 0.0
H947 H 0.19812 0.79905 0.17341 0.0
H948 H 0.13836 0.81106 0.20755 0.0
H949 H 0.1477 0.80796 0.27337 0.0
C950 C 0.127 0.71879 0.40347 0.0
C951 C 0.10445 0.71921 0.40493 0.0
C952 C 0.14823 0.73835 0.39066 0.0
C953 C 0.14717 0.75856 0.37935 0.0
C954 C 0.12516 0.75963 0.38378 0.0
C955 C 0.10403 0.7402 0.39667 0.0
C956 C 0.16809 0.77754 0.35924 0.0
C957 C 0.16422 0.7824 0.32249 0.0
C958 C 0.19186 0.78971 0.37493 0.0
C959 C 0.1969 0.78575 0.41391 0.0
C960 C 0.18313 0.7879 0.44342 0.0
C961 C 0.18792 0.78406 0.48007 0.0
C962 C 0.20654 0.7782 0.48759 0.0
C963 C 0.22046 0.77623 0.45848 0.0
C964 C 0.21573 0.78004 0.42177 0.0
C965 C 0.24914 0.86911 0.26964 0.0
C966 C 0.2717 0.86864 0.2699 0.0
C967 C 0.22769 0.84986 0.28284 0.0
C968 C 0.22853 0.82989 0.29619 0.0
C969 C 0.25064 0.8288 0.29367 0.0
C970 C 0.27196 0.84792 0.2806 0.0
C971 C 0.20736 0.81125 0.31651 0.0
C972 C 0.21117 0.80639 0.35335 0.0
C973 C 0.18358 0.79893 0.30073 0.0
C974 C 0.1786 0.80184 0.26119 0.0
C975 C 0.19265 0.79924 0.23255 0.0
C976 C 0.18726 0.8011 0.19532 0.0
C977 C 0.16773 0.80538 0.18632 0.0
C978 C 0.15355 0.80783 0.21456 0.0
C979 C 0.1589 0.80604 0.25184 0.0
H980 H 0.16352 0.80672 0.15748 0.0
H981 H 0.21023 0.77524 0.51598 0.0
H982 H 0.42909 0.14726 0.73466 0.0
H983 H 0.4212 0.1793 0.71737 0.0
H984 H 0.34291 0.13291 0.72299 0.0
H985 H 0.35078 0.1004 0.73987 0.0
H986 H 0.35579 0.15525 0.65741 0.0
H987 H 0.37101 0.17854 0.78428 0.0
H988 H 0.39294 0.1879 0.84431 0.0
H989 H 0.45625 0.24416 0.79305 0.0
H990 H 0.43484 0.23494 0.73256 0.0
H991 H 0.32971 0.24954 0.61995 0.0
H992 H 0.33265 0.21613 0.64556 0.0
H993 H 0.41193 0.25521 0.64012 0.0
H994 H 0.40914 0.28887 0.61455 0.0
H995 H 0.39528 0.23573 0.70895 0.0
H996 H 0.38094 0.21046 0.58154 0.0
H997 H 0.35909 0.20093 0.52142 0.0
H998 H 0.29388 0.14821 0.57437 0.0
H999 H 0.31525 0.15765 0.63495 0.0
C1000 C 0.41016 0.14396 0.73314 0.0
C1001 C 0.39054 0.12127 0.73841 0.0
C1002 C 0.40567 0.16235 0.72338 0.0
C1003 C 0.38146 0.15855 0.7189 0.0
C1004 C 0.36175 0.13622 0.7263 0.0
C1005 C 0.36625 0.11772 0.73627 0.0
C1006 C 0.37712 0.17731 0.70269 0.0
C1007 C 0.36395 0.17272 0.66916 0.0
C1008 C 0.38838 0.20027 0.71741 0.0
C1009 C 0.40135 0.20593 0.75379 0.0
C1010 C 0.38967 0.1928 0.78572 0.0
C1011 C 0.40201 0.1981 0.81986 0.0
C1012 C 0.42599 0.21658 0.82248 0.0
C1013 C 0.43767 0.22984 0.79098 0.0
C1014 C 0.42543 0.2246 0.75677 0.0
C1015 C 0.34778 0.2509 0.62354 0.0
C1016 C 0.36921 0.27186 0.61527 0.0
C1017 C 0.34942 0.23177 0.63818 0.0
C1018 C 0.3725 0.2332 0.6448 0.0
C1019 C 0.39393 0.2538 0.63531 0.0
C1020 C 0.39231 0.27293 0.62044 0.0
C1021 C 0.37425 0.21369 0.66353 0.0
C1022 C 0.38692 0.21818 0.69749 0.0
C1023 C 0.36251 0.19063 0.64925 0.0
C1024 C 0.34961 0.18494 0.61286 0.0
C1025 C 0.36187 0.19698 0.58043 0.0
C1026 C 0.34959 0.19156 0.54626 0.0
C1027 C 0.32509 0.17402 0.54409 0.0
C1028 C 0.31285 0.16182 0.5761 0.0
C1029 C 0.32504 0.16718 0.61036 0.0
H1030 H 0.31562 0.16985 0.5176 0.0
H1031 H 0.4355 0.22066 0.84893 0.0
H1032 H 0.30529 0.30611 0.67964 0.0
H1033 H 0.29103 0.30239 0.74421 0.0
H1034 H 0.35431 0.3684 0.77049 0.0
H1035 H 0.3696 0.37096 0.70705 0.0
H1036 H 0.34796 0.32373 0.80606 0.0
H1037 H 0.29207 0.3729 0.82214 0.0
H1038 H 0.25505 0.37427 0.79929 0.0
H1039 H 0.22475 0.3032 0.76165 0.0
H1040 H 0.26115 0.30119 0.78555 0.0
H1041 H 0.37252 0.40434 0.94693 0.0
H1042 H 0.36317 0.37982 0.89146 0.0
H1043 H 0.29965 0.32522 0.94632 0.0
H1044 H 0.30945 0.34947 0.0026 0.0
H1045 H 0.29138 0.3437 0.87631 0.0
H1046 H 0.33618 0.30793 0.92406 0.0
H1047 H 0.3702 0.3053 0.95582 0.0
H1048 H 0.42051 0.34774 0.87081 0.0
H1049 H 0.38692 0.35096 0.83881 0.0
C1050 C 0.31556 0.32019 0.69905 0.0
C1051 C 0.3383 0.33901 0.68867 0.0
C1052 C 0.30727 0.31816 0.73579 0.0
C1053 C 0.32135 0.33535 0.76197 0.0
C1054 C 0.34303 0.3551 0.75052 0.0
C1055 C 0.35177 0.35661 0.71441 0.0
C1056 C 0.31739 0.33101 0.8023 0.0
C1057 C 0.33529 0.32767 0.8216 0.0
C1058 C 0.30024 0.33521 0.82245 0.0
C1059 C 0.27971 0.33715 0.80447 0.0
C1060 C 0.27764 0.35768 0.80851 0.0
C1061 C 0.25662 0.35847 0.79587 0.0
C1062 C 0.23759 0.33886 0.7789 0.0
C1063 C 0.23957 0.31843 0.77457 0.0
C1064 C 0.26046 0.3175 0.7875 0.0
C1065 C 0.35697 0.38689 0.94745 0.0
C1066 C 0.34171 0.37871 0.97881 0.0
C1067 C 0.35171 0.37287 0.91595 0.0
C1068 C 0.33085 0.35072 0.91513 0.0
C1069 C 0.31598 0.34217 0.94679 0.0
C1070 C 0.32162 0.35599 0.97876 0.0
C1071 C 0.32321 0.33843 0.87929 0.0
C1072 C 0.30334 0.33877 0.86097 0.0
C1073 C 0.33855 0.3315 0.85998 0.0
C1074 C 0.35896 0.32969 0.87902 0.0
C1075 C 0.35453 0.31684 0.91224 0.0
C1076 C 0.37374 0.31522 0.93028 0.0
C1077 C 0.3975 0.32634 0.91534 0.0
C1078 C 0.40209 0.3391 0.88232 0.0
C1079 C 0.38294 0.34078 0.86416 0.0
H1080 H 0.41235 0.32507 0.92935 0.0
H1081 H 0.22134 0.3395 0.76907 0.0
H1082 H 0.99601 0.30429 0.30018 0.0
H1083 H 0.99619 0.29591 0.23388 0.0
H1084 H 0.99625 0.36078 0.20722 0.0
H1085 H 0.99357 0.36786 0.27334 0.0
H1086 H 0.95715 0.32205 0.17751 0.0
H1087 H 0.05738 0.35221 0.15302 0.0
H1088 H 0.09283 0.34624 0.17021 0.0
H1089 H 0.04354 0.2749 0.19937 0.0
H1090 H 0.00798 0.28026 0.18095 0.0
H1091 H 0.01029 0.38921 0.02403 0.0
H1092 H 0.99446 0.36752 0.08165 0.0
H1093 H 0.99361 0.30665 0.03203 0.0
H1094 H 0.00916 0.32827 0.97364 0.0
H1095 H 0.02177 0.32172 0.09597 0.0
H1096 H 0.94037 0.29929 0.06217 0.0
H1097 H 0.90539 0.3027 0.03557 0.0
H1098 H 0.91487 0.35452 0.11726 0.0
H1099 H 0.95015 0.35174 0.14403 0.0
C1100 C 0.99697 0.31709 0.27996 0.0
C1101 C 0.99516 0.33688 0.29143 0.0
C1102 C 0.99725 0.31236 0.24206 0.0
C1103 C 0.9965 0.32781 0.21544 0.0
C1104 C 0.99679 0.34857 0.2273 0.0
C1105 C 0.99548 0.35277 0.26496 0.0
C1106 C 0.99181 0.32152 0.17561 0.0
C1107 C 0.97113 0.32172 0.15956 0.0
C1108 C 0.00909 0.31941 0.15233 0.0
C1109 C 0.03008 0.31687 0.16685 0.0
C1110 C 0.05418 0.33536 0.16348 0.0
C1111 C 0.07427 0.33198 0.17291 0.0
C1112 C 0.07042 0.31024 0.186 0.0
C1113 C 0.04649 0.29179 0.18949 0.0
C1114 C 0.02638 0.29497 0.1795 0.0
C1115 C 0.00608 0.37102 0.02498 0.0
C1116 C 0.01106 0.36046 0.99448 0.0
C1117 C 0.99687 0.35857 0.05784 0.0
C1118 C 0.99275 0.33545 0.06092 0.0
C1119 C 0.99649 0.32442 0.02996 0.0
C1120 C 0.00532 0.33678 0.99671 0.0
C1121 C 0.98848 0.32476 0.09819 0.0
C1122 C 0.00726 0.32117 0.11373 0.0
C1123 C 0.96925 0.32343 0.12099 0.0
C1124 C 0.94795 0.32525 0.10516 0.0
C1125 C 0.9351 0.31151 0.07437 0.0
C1126 C 0.91519 0.31332 0.05926 0.0
C1127 C 0.9079 0.3288 0.07473 0.0
C1128 C 0.9205 0.3425 0.10536 0.0
C1129 C 0.94043 0.34076 0.12057 0.0
H1130 H 0.89248 0.33019 0.06298 0.0
H1131 H 0.08599 0.30771 0.19344 0.0
H1132 H 0.61485 0.9234 0.60842 0.0
H1133 H 0.63068 0.93886 0.54662 0.0
H1134 H 0.6712 0.00829 0.59286 0.0
H1135 H 0.65629 0.99263 0.65498 0.0
H1136 H 0.62059 0.96581 0.50881 0.0
H1137 H 0.71758 0.04469 0.53786 0.0
H1138 H 0.75323 0.05455 0.57886 0.0
H1139 H 0.73217 0.98164 0.5904 0.0
H1140 H 0.6966 0.97135 0.54906 0.0
H1141 H 0.68269 0.07213 0.3882 0.0
H1142 H 0.68211 0.05217 0.44614 0.0
H1143 H 0.66203 0.98841 0.38531 0.0
H1144 H 0.66286 0.00841 0.32692 0.0
H1145 H 0.70517 0.02492 0.47275 0.0
H1146 H 0.61325 0.94617 0.43593 0.0
H1147 H 0.57792 0.9357 0.39381 0.0
H1148 H 0.58974 0.00637 0.39801 0.0
H1149 H 0.62487 0.01714 0.4404 0.0
C1150 C 0.62761 0.94188 0.60548 0.0
C1151 C 0.63435 0.95683 0.63648 0.0
C1152 C 0.6366 0.95072 0.57012 0.0
C1153 C 0.65223 0.97476 0.56486 0.0
C1154 C 0.65965 0.98961 0.59609 0.0
C1155 C 0.65104 0.98066 0.63165 0.0
C1156 C 0.65855 0.98455 0.52652 0.0
C1157 C 0.63925 0.97828 0.50083 0.0
C1158 C 0.68277 0.0012 0.51596 0.0
C1159 C 0.70428 0.00725 0.54058 0.0
C1160 C 0.72061 0.03077 0.54899 0.0
C1161 C 0.7408 0.03643 0.57233 0.0
C1162 C 0.74492 0.01873 0.58731 0.0
C1163 C 0.72891 0.99533 0.57889 0.0
C1164 C 0.7087 0.98957 0.55555 0.0
C1165 C 0.67857 0.05395 0.38705 0.0
C1166 C 0.67256 0.04173 0.35309 0.0
C1167 C 0.67844 0.04265 0.42014 0.0
C1168 C 0.6719 0.01882 0.41998 0.0
C1169 C 0.66712 0.00684 0.38593 0.0
C1170 C 0.66761 0.01826 0.35265 0.0
C1171 C 0.66725 0.00609 0.45576 0.0
C1172 C 0.68673 0.01198 0.48084 0.0
C1173 C 0.64327 0.98888 0.46577 0.0
C1174 C 0.62185 0.98249 0.44092 0.0
C1175 C 0.60824 0.95943 0.4279 0.0
C1176 C 0.58826 0.95346 0.40397 0.0
C1177 C 0.58166 0.97039 0.39306 0.0
C1178 C 0.59494 0.9933 0.40625 0.0
C1179 C 0.61489 0.99935 0.43021 0.0
H1180 H 0.56621 0.96575 0.3745 0.0
H1181 H 0.76055 0.02316 0.60538 0.0
H1182 H 0.59464 0.63236 0.7426 0.0
H1183 H 0.60655 0.63952 0.80848 0.0
H1184 H 0.67693 0.69684 0.7773 0.0
H1185 H 0.66529 0.68926 0.71134 0.0
H1186 H 0.6539 0.64255 0.84144 0.0
H1187 H 0.67963 0.73944 0.8491 0.0
H1188 H 0.67049 0.76809 0.81711 0.0
H1189 H 0.59858 0.71334 0.78809 0.0
H1190 H 0.60715 0.68447 0.82039 0.0
H1191 H 0.70086 0.67661 0.01727 0.0
H1192 H 0.70085 0.69115 0.95446 0.0
H1193 H 0.62282 0.66733 0.9631 0.0
H1194 H 0.62271 0.65227 0.02547 0.0
H1195 H 0.65454 0.70951 0.90926 0.0
H1196 H 0.6281 0.62509 0.94003 0.0
H1197 H 0.63586 0.59565 0.97236 0.0
H1198 H 0.70798 0.62503 0.92357 0.0
H1199 H 0.70052 0.65457 0.89079 0.0
C1200 C 0.61277 0.64619 0.74998 0.0
C1201 C 0.62943 0.6598 0.72235 0.0
C1202 C 0.61949 0.65032 0.78735 0.0
C1203 C 0.64254 0.66873 0.79741 0.0
C1204 C 0.65908 0.6826 0.76984 0.0
C1205 C 0.65254 0.67814 0.73241 0.0
C1206 C 0.64917 0.67324 0.83695 0.0
C1207 C 0.6544 0.65737 0.85609 0.0
C1208 C 0.64969 0.69256 0.8559 0.0
C1209 C 0.6442 0.70976 0.83668 0.0
C1210 C 0.66187 0.73354 0.83591 0.0
C1211 C 0.65677 0.74982 0.81776 0.0
C1212 C 0.63401 0.74253 0.80043 0.0
C1213 C 0.61625 0.71895 0.80134 0.0
C1214 C 0.62125 0.70261 0.81949 0.0
C1215 C 0.68409 0.67596 0.00669 0.0
C1216 C 0.66179 0.66349 0.02591 0.0
C1217 C 0.68408 0.68417 0.97079 0.0
C1218 C 0.6618 0.68012 0.95426 0.0
C1219 C 0.6402 0.67079 0.97564 0.0
C1220 C 0.64013 0.66223 0.01125 0.0
C1221 C 0.65947 0.67891 0.91346 0.0
C1222 C 0.65484 0.69518 0.89419 0.0
C1223 C 0.65951 0.65997 0.89412 0.0
C1224 C 0.66386 0.64208 0.91331 0.0
C1225 C 0.64562 0.62528 0.93632 0.0
C1226 C 0.64994 0.60857 0.95464 0.0
C1227 C 0.67243 0.60854 0.95015 0.0
C1228 C 0.69058 0.6251 0.92705 0.0
C1229 C 0.6863 0.64178 0.90853 0.0
H1230 H 0.67579 0.59567 0.96452 0.0
H1231 H 0.63009 0.75516 0.78641 0.0
H1232 H 0.04401 0.64734 0.26658 0.0
H1233 H 0.04055 0.66014 0.20392 0.0
H1234 H 0.00995 0.70232 0.24918 0.0
H1235 H 0.01431 0.69009 0.31238 0.0
H1236 H 0.98326 0.67317 0.18809 0.0
H1237 H 0.06177 0.73261 0.21357 0.0
H1238 H 0.10431 0.75304 0.23741 0.0
H1239 H 0.12515 0.71389 0.16276 0.0
H1240 H 0.08268 0.69296 0.13877 0.0
H1241 H 0.97637 0.67304 0.99278 0.0
H1242 H 0.99407 0.69709 0.0486 0.0
H1243 H 0.02674 0.65366 0.07923 0.0
H1244 H 0.00866 0.62945 0.02425 0.0
H1245 H 0.0548 0.70292 0.10217 0.0
H1246 H 0.96904 0.63497 0.10051 0.0
H1247 H 0.92654 0.61678 0.07613 0.0
H1248 H 0.92031 0.6775 0.10786 0.0
H1249 H 0.96297 0.69623 0.13158 0.0
C1250 C 0.03636 0.65918 0.26304 0.0
C1251 C 0.0285 0.66704 0.29385 0.0
C1252 C 0.03465 0.66669 0.22744 0.0
C1253 C 0.0253 0.6824 0.22212 0.0
C1254 C 0.01733 0.69029 0.25287 0.0
C1255 C 0.01939 0.68298 0.2887 0.0
C1256 C 0.02275 0.68909 0.18382 0.0
C1257 C 0.99894 0.68052 0.16942 0.0
C1258 C 0.0433 0.69905 0.15965 0.0
C1259 C 0.06891 0.71115 0.17436 0.0
C1260 C 0.07534 0.72818 0.20243 0.0
C1261 C 0.09948 0.7399 0.21593 0.0
C1262 C 0.11742 0.73478 0.2016 0.0
C1263 C 0.11124 0.71788 0.17379 0.0
C1264 C 0.08713 0.70611 0.16015 0.0
C1265 C 0.98827 0.66938 0.01066 0.0
C1266 C 0.99117 0.64945 0.0047 0.0
C1267 C 0.99833 0.68308 0.04242 0.0
C1268 C 0.01156 0.67702 0.068 0.0
C1269 C 0.01671 0.65868 0.05966 0.0
C1270 C 0.00629 0.64478 0.02844 0.0
C1271 C 0.01529 0.68563 0.10665 0.0
C1272 C 0.03928 0.69685 0.12108 0.0
C1273 C 0.99495 0.67859 0.13099 0.0
C1274 C 0.96922 0.66709 0.11732 0.0
C1275 C 0.95863 0.64448 0.10201 0.0
C1276 C 0.93454 0.63409 0.08828 0.0
C1277 C 0.92076 0.64603 0.09028 0.0
C1278 C 0.93104 0.66834 0.10611 0.0
C1279 C 0.95517 0.67886 0.11964 0.0
H1280 H 0.90209 0.63797 0.07973 0.0
H1281 H 0.13611 0.74393 0.21202 0.0
H1282 H 0.32716 0.98637 0.33026 0.0
H1283 H 0.32814 0.00691 0.38807 0.0
H1284 H 0.31759 0.94657 0.45178 0.0
H1285 H 0.31672 0.92606 0.39447 0.0
H1286 H 0.29228 0.97045 0.48126 0.0
H1287 H 0.37381 0.98669 0.43434 0.0
H1288 H 0.40539 0.00065 0.38493 0.0
H1289 H 0.40733 0.06759 0.38551 0.0
H1290 H 0.37546 0.05393 0.43451 0.0
H1291 H 0.3487 0.0071 0.6571 0.0
H1292 H 0.33204 0.99059 0.59607 0.0
H1293 H 0.36608 0.06007 0.54874 0.0
H1294 H 0.38393 0.07638 0.60931 0.0
H1295 H 0.37598 0.03541 0.50671 0.0
H1296 H 0.30027 0.0234 0.55868 0.0
H1297 H 0.26672 0.01098 0.60468 0.0
H1298 H 0.25125 0.93952 0.59236 0.0
H1299 H 0.28493 0.95154 0.54666 0.0
C1300 C 0.32439 0.97728 0.35654 0.0
C1301 C 0.32214 0.95471 0.35789 0.0
C1302 C 0.32501 0.98904 0.3895 0.0
C1303 C 0.32316 0.9783 0.42415 0.0
C1304 C 0.31903 0.95515 0.42534 0.0
C1305 C 0.3187 0.94352 0.39256 0.0
C1306 C 0.32862 0.99183 0.45922 0.0
C1307 C 0.31053 0.98468 0.48703 0.0
C1308 C 0.35224 0.0108 0.46615 0.0
C1309 C 0.37207 0.01922 0.43777 0.0
C1310 C 0.3809 0.00436 0.42382 0.0
C1311 C 0.39884 0.0122 0.3959 0.0
C1312 C 0.40827 0.03494 0.38199 0.0
C1313 C 0.39995 0.04996 0.39624 0.0
C1314 C 0.38196 0.04218 0.42408 0.0
C1315 C 0.35216 0.01883 0.63378 0.0
C1316 C 0.36759 0.04298 0.63786 0.0
C1317 C 0.34254 0.00942 0.59885 0.0
C1318 C 0.34753 0.02406 0.56758 0.0
C1319 C 0.362 0.04834 0.57222 0.0
C1320 C 0.37212 0.05767 0.60688 0.0
C1321 C 0.33967 0.01396 0.52962 0.0
C1322 C 0.35745 0.0216 0.50114 0.0
C1323 C 0.31559 0.99577 0.52194 0.0
C1324 C 0.29526 0.98841 0.5494 0.0
C1325 C 0.28983 0.00505 0.56597 0.0
C1326 C 0.27077 0.99808 0.59196 0.0
C1327 C 0.2569 0.97448 0.60149 0.0
C1328 C 0.26202 0.9578 0.58496 0.0
C1329 C 0.28107 0.96468 0.55896 0.0
H1330 H 0.24215 0.96912 0.62162 0.0
H1331 H 0.422 0.04092 0.36017 0.0
H1332 H 0.39578 0.47511 0.10638 0.0
H1333 H 0.43788 0.5077 0.10949 0.0
H1334 H 0.46565 0.46323 0.06462 0.0
H1335 H 0.42338 0.43113 0.05894 0.0
H1336 H 0.47754 0.49117 0.14983 0.0
H1337 H 0.4881 0.49239 0.01815 0.0
H1338 H 0.48704 0.49708 0.95037 0.0
H1339 H 0.49162 0.56459 0.96584 0.0
H1340 H 0.49169 0.55984 0.03391 0.0
H1341 H 0.60834 0.55999 0.13876 0.0
H1342 H 0.56424 0.53203 0.13703 0.0
H1343 H 0.54796 0.58872 0.11587 0.0
H1344 H 0.59212 0.61649 0.11648 0.0
H1345 H 0.52843 0.55673 0.0654 0.0
H1346 H 0.52969 0.55574 0.19753 0.0
H1347 H 0.54462 0.55252 0.25976 0.0
H1348 H 0.52902 0.48203 0.23597 0.0
H1349 H 0.51431 0.48491 0.17338 0.0
C1350 C 0.41078 0.47272 0.0954 0.0
C1351 C 0.40632 0.45101 0.08086 0.0
C1352 C 0.43479 0.49125 0.09737 0.0
C1353 C 0.45478 0.48811 0.086 0.0
C1354 C 0.45041 0.46632 0.072 0.0
C1355 C 0.42633 0.44795 0.06919 0.0
C1356 C 0.48005 0.50608 0.09542 0.0
C1357 C 0.48897 0.50529 0.13107 0.0
C1358 C 0.49464 0.52472 0.07123 0.0
C1359 C 0.48893 0.52532 0.03132 0.0
C1360 C 0.48771 0.50773 0.00727 0.0
C1361 C 0.48773 0.51059 0.9687 0.0
C1362 C 0.48927 0.53112 0.95377 0.0
C1363 C 0.4904 0.54868 0.9774 0.0
C1364 C 0.49011 0.54578 0.01599 0.0
C1365 C 0.59522 0.56634 0.13376 0.0
C1366 C 0.60337 0.59005 0.12606 0.0
C1367 C 0.57006 0.55049 0.13354 0.0
C1368 C 0.55276 0.55829 0.12642 0.0
C1369 C 0.56098 0.58232 0.12131 0.0
C1370 C 0.58612 0.59811 0.12144 0.0
C1371 C 0.52671 0.54122 0.11878 0.0
C1372 C 0.51723 0.54248 0.08399 0.0
C1373 C 0.51234 0.52244 0.1429 0.0
C1374 C 0.52103 0.5206 0.18064 0.0
C1375 C 0.5296 0.5396 0.20545 0.0
C1376 C 0.53799 0.53783 0.24082 0.0
C1377 C 0.5378 0.5171 0.25179 0.0
C1378 C 0.52915 0.49807 0.22744 0.0
C1379 C 0.52075 0.49976 0.19203 0.0
H1380 H 0.54432 0.51576 0.27918 0.0
H1381 H 0.48952 0.53338 0.92391 0.0
H1382 H 0.97737 0.56576 0.3732 0.0
H1383 H 0.97603 0.52777 0.37803 0.0
H1384 H 0.05394 0.56153 0.40102 0.0
H1385 H 0.0556 0.59991 0.39621 0.0
H1386 H 0.03826 0.52352 0.35074 0.0
H1387 H 0.016 0.541 0.46924 0.0
H1388 H 0.9925 0.55353 0.51004 0.0
H1389 H 0.92541 0.49225 0.48062 0.0
H1390 H 0.94845 0.47991 0.43802 0.0
H1391 H 0.04207 0.42286 0.41323 0.0
H1392 H 0.0453 0.46175 0.41422 0.0
H1393 H 0.96668 0.43137 0.39973 0.0
H1394 H 0.96315 0.39222 0.39931 0.0
H1395 H 0.98389 0.46836 0.44713 0.0
H1396 H 0.00466 0.45213 0.326 0.0
H1397 H 0.02704 0.44006 0.28175 0.0
H1398 H 0.09559 0.49825 0.31523 0.0
H1399 H 0.07364 0.51043 0.36024 0.0
C1400 C 0.99433 0.56525 0.37915 0.0
C1401 C 0.01659 0.58601 0.38468 0.0
C1402 C 0.99348 0.54345 0.38189 0.0
C1403 C 0.01482 0.54183 0.39025 0.0
C1404 C 0.03725 0.56243 0.39459 0.0
C1405 C 0.03812 0.58433 0.39203 0.0
C1406 C 0.01336 0.51857 0.39593 0.0
C1407 C 0.02669 0.51159 0.37216 0.0
C1408 C 0.99778 0.50283 0.42338 0.0
C1409 C 0.98395 0.50965 0.45011 0.0
C1410 C 0.99621 0.53027 0.4712 0.0
C1411 C 0.98295 0.53735 0.49466 0.0
C1412 C 0.95745 0.52365 0.4981 0.0
C1413 C 0.94517 0.50285 0.47794 0.0
C1414 C 0.95832 0.49585 0.45399 0.0
C1415 C 0.02537 0.42434 0.41075 0.0
C1416 C 0.00236 0.40435 0.40577 0.0
C1417 C 0.02728 0.44664 0.41121 0.0
C1418 C 0.0063 0.4495 0.40626 0.0
C1419 C 0.98313 0.42957 0.4034 0.0
C1420 C 0.98116 0.40719 0.40315 0.0
C1421 C 0.00876 0.47326 0.40187 0.0
C1422 C 0.99558 0.48032 0.42583 0.0
C1423 C 0.02433 0.48903 0.37441 0.0
C1424 C 0.03753 0.48206 0.34676 0.0
C1425 C 0.02453 0.46228 0.3241 0.0
C1426 C 0.03713 0.45541 0.29888 0.0
C1427 C 0.06273 0.46835 0.29574 0.0
C1428 C 0.07576 0.48823 0.31773 0.0
C1429 C 0.06325 0.49512 0.3431 0.0
H1430 H 0.07246 0.463 0.27621 0.0
H1431 H 0.94721 0.52916 0.51635 0.0
H1432 H 0.59422 0.9972 0.71184 0.0
H1433 H 0.56318 0.01068 0.71255 0.0
H1434 H 0.52082 0.95757 0.79353 0.0
H1435 H 0.5519 0.94403 0.79261 0.0
H1436 H 0.51422 0.98455 0.69372 0.0
H1437 H 0.49185 0.98298 0.84981 0.0
H1438 H 0.51199 0.98766 0.91083 0.0
H1439 H 0.58273 0.02981 0.86068 0.0
H1440 H 0.563 0.02577 0.79952 0.0
H1441 H 0.40753 0.00082 0.71605 0.0
H1442 H 0.43663 0.98544 0.71828 0.0
H1443 H 0.4903 0.04912 0.77074 0.0
H1444 H 0.45966 0.0629 0.77335 0.0
H1445 H 0.49064 0.01518 0.80385 0.0
H1446 H 0.50836 0.02904 0.65814 0.0
H1447 H 0.49217 0.02425 0.59392 0.0
H1448 H 0.43453 0.9556 0.6214 0.0
H1449 H 0.45067 0.96008 0.68546 0.0
C1450 C 0.57821 0.98844 0.72964 0.0
C1451 C 0.57482 0.96919 0.75123 0.0
C1452 C 0.56059 0.99613 0.73012 0.0
C1453 C 0.53976 0.98512 0.75311 0.0
C1454 C 0.53684 0.96636 0.77577 0.0
C1455 C 0.55436 0.9585 0.77493 0.0
C1456 C 0.52063 0.99266 0.75185 0.0
C1457 C 0.5089 0.99102 0.71787 0.0
C1458 C 0.5138 0.00124 0.78338 0.0
C1459 C 0.52593 0.00383 0.82 0.0
C1460 C 0.51169 0.9933 0.85182 0.0
C1461 C 0.52304 0.99587 0.88644 0.0
C1462 C 0.54861 0.00902 0.88962 0.0
C1463 C 0.56292 0.01961 0.85817 0.0
C1464 C 0.55166 0.01714 0.8235 0.0
C1465 C 0.42575 0.01168 0.72738 0.0
C1466 C 0.43193 0.03366 0.74263 0.0
C1467 C 0.44261 0.00304 0.72799 0.0
C1468 C 0.4663 0.01648 0.74288 0.0
C1469 C 0.47237 0.03848 0.75836 0.0
C1470 C 0.45511 0.04667 0.75911 0.0
C1471 C 0.4841 0.00708 0.74532 0.0
C1472 C 0.49561 0.0083 0.77972 0.0
C1473 C 0.49057 0.99771 0.71424 0.0
C1474 C 0.47977 0.99551 0.67691 0.0
C1475 C 0.49182 0.01325 0.65057 0.0
C1476 C 0.48288 0.01045 0.61414 0.0
C1477 C 0.46203 0.98982 0.60377 0.0
C1478 C 0.4504 0.97175 0.62961 0.0
C1479 C 0.45946 0.97442 0.66592 0.0
H1480 H 0.4551 0.9877 0.57561 0.0
H1481 H 0.55734 0.01104 0.91646 0.0
H1482 H 0.59257 0.56648 0.6213 0.0
H1483 H 0.55741 0.52812 0.61024 0.0
H1484 H 0.512 0.56046 0.58603 0.0
H1485 H 0.54706 0.59904 0.59747 0.0
H1486 H 0.48872 0.52359 0.63189 0.0
H1487 H 0.53223 0.53832 0.51644 0.0
H1488 H 0.56832 0.549 0.47603 0.0
H1489 H 0.57496 0.49002 0.51653 0.0
H1490 H 0.5391 0.47917 0.55762 0.0
H1491 H 0.3874 0.42122 0.56549 0.0
H1492 H 0.42292 0.46022 0.56504 0.0
H1493 H 0.47045 0.43087 0.5937 0.0
H1494 H 0.43504 0.39163 0.59379 0.0
H1495 H 0.49211 0.46669 0.54305 0.0
H1496 H 0.4495 0.45291 0.66002 0.0
H1497 H 0.41287 0.44175 0.69943 0.0
H1498 H 0.40457 0.49915 0.65568 0.0
H1499 H 0.44088 0.51037 0.6154 0.0
C1500 C 0.57518 0.56555 0.61344 0.0
C1501 C 0.57276 0.58598 0.61019 0.0
C1502 C 0.55507 0.54353 0.60698 0.0
C1503 C 0.53211 0.5414 0.59689 0.0
C1504 C 0.52956 0.56169 0.59371 0.0
C1505 C 0.54967 0.58376 0.60018 0.0
C1506 C 0.51067 0.51793 0.59059 0.0
C1507 C 0.48934 0.5113 0.61201 0.0
C1508 C 0.51163 0.50168 0.56525 0.0
C1509 C 0.5331 0.50805 0.54037 0.0
C1510 C 0.54149 0.52772 0.51695 0.0
C1511 C 0.56189 0.53379 0.49388 0.0
C1512 C 0.57396 0.52023 0.49378 0.0
C1513 C 0.5656 0.50053 0.51667 0.0
C1514 C 0.54523 0.49439 0.53983 0.0
C1515 C 0.40541 0.42293 0.57126 0.0
C1516 C 0.40825 0.40321 0.5801 0.0
C1517 C 0.42571 0.4453 0.57106 0.0
C1518 C 0.44926 0.44849 0.57997 0.0
C1519 C 0.45242 0.42881 0.58688 0.0
C1520 C 0.43211 0.40637 0.587 0.0
C1521 C 0.47027 0.47241 0.58435 0.0
C1522 C 0.4915 0.47907 0.56271 0.0
C1523 C 0.46924 0.48871 0.60951 0.0
C1524 C 0.44778 0.48235 0.63442 0.0
C1525 C 0.43978 0.46307 0.65863 0.0
C1526 C 0.41907 0.45673 0.68112 0.0
C1527 C 0.40637 0.4697 0.68 0.0
C1528 C 0.41441 0.4891 0.65647 0.0
C1529 C 0.43505 0.49546 0.6338 0.0
H1530 H 0.39034 0.46476 0.69743 0.0
H1531 H 0.58976 0.52497 0.47592 0.0
H1532 H 0.93252 0.54174 0.90387 0.0
H1533 H 0.94192 0.50904 0.90223 0.0
H1534 H 0.01879 0.55717 0.9196 0.0
H1535 H 0.00913 0.58966 0.92414 0.0
H1536 H 0.99203 0.52068 0.84542 0.0
H1537 H 0.01848 0.53304 0.97101 0.0
H1538 H 0.0227 0.53586 0.0391 0.0
H1539 H 0.95973 0.46794 0.05042 0.0
H1540 H 0.95448 0.46519 0.98229 0.0
H1541 H 0.05119 0.44858 0.85043 0.0
H1542 H 0.03701 0.47808 0.85162 0.0
H1543 H 0.96792 0.42719 0.89941 0.0
H1544 H 0.98254 0.39814 0.89943 0.0
H1545 H 0.98769 0.46374 0.94043 0.0
H1546 H 0.97229 0.45157 0.81071 0.0
H1547 H 0.98158 0.44789 0.7451 0.0
H1548 H 0.03973 0.51893 0.74556 0.0
H1549 H 0.03103 0.52296 0.81136 0.0
C1550 C 0.95119 0.54512 0.9093 0.0
C1551 C 0.96992 0.568 0.91589 0.0
C1552 C 0.95658 0.5265 0.90808 0.0
C1553 C 0.98094 0.5306 0.91206 0.0
C1554 C -0.00024 0.55351 0.91799 0.0
C1555 C 0.99426 0.57204 0.9202 0.0
C1556 C 0.98693 0.5116 0.9036 0.0
C1557 C 0.99173 0.50851 0.86636 0.0
C1558 C 0.98599 0.49549 0.93078 0.0
C1559 C 0.98555 0.49931 0.9714 0.0
C1560 C 0.00482 0.51919 0.98795 0.0
C1561 C 0.00766 0.5206 0.02662 0.0
C1562 C 0.99151 0.50209 0.04911 0.0
C1563 C 0.97223 0.48228 0.033 0.0
C1564 C 0.96914 0.48093 0.99437 0.0
C1565 C 0.03302 0.44386 0.86119 0.0
C1566 C 0.01834 0.42164 0.87652 0.0
C1567 C 0.0247 0.46051 0.86113 0.0
C1568 C 0.00135 0.45487 0.87563 0.0
C1569 C 0.98604 0.432 0.88831 0.0
C1570 C 0.99441 0.41548 0.88852 0.0
C1571 C 0.9944 0.47348 0.88289 0.0
C1572 C 0.98856 0.47614 0.91959 0.0
C1573 C 0.99591 0.48984 0.85571 0.0
C1574 C 0.0011 0.48751 0.81608 0.0
C1575 C 0.98718 0.46636 0.79692 0.0
C1576 C 0.99232 0.46422 0.75967 0.0
C1577 C 0.01126 0.48315 0.74119 0.0
C1578 C 0.02507 0.50428 0.75991 0.0
C1579 C 0.02001 0.50651 0.79717 0.0
H1580 H 0.01521 0.48145 0.71236 0.0
H1581 H 0.9939 0.50313 0.079 0.0
H1582 H 0.59277 0.00602 0.26667 0.0
H1583 H 0.54845 0.99339 0.26299 0.0
H1584 H 0.564 0.05792 0.2078 0.0
H1585 H 0.60834 0.0701 0.20988 0.0
H1586 H 0.52941 0.03899 0.28113 0.0
H1587 H 0.54265 0.02395 0.15374 0.0
H1588 H 0.55854 0.00774 0.10531 0.0
H1589 H 0.51479 0.93865 0.14956 0.0
H1590 H 0.49895 0.95452 0.19865 0.0
H1591 H 0.40108 1.00041 0.26647 0.0
H1592 H 0.44558 0.01941 0.25988 0.0
H1593 H 0.44107 0.95292 0.23014 0.0
H1594 H 0.39642 0.93564 0.22855 0.0
H1595 H 0.47291 0.97854 0.19364 0.0
H1596 H 0.46854 0.9926 0.32905 0.0
H1597 H 0.45738 0.00778 0.385 0.0
H1598 H 0.48648 0.07552 0.33411 0.0
H1599 H 0.49801 0.06071 0.27832 0.0
C1600 C 0.58665 0.01747 0.25383 0.0
C1601 C 0.60379 0.03941 0.23994 0.0
C1602 C 0.56146 0.01025 0.25165 0.0
C1603 C 0.55314 0.02481 0.23525 0.0
C1604 C 0.5702 0.04655 0.22068 0.0
C1605 C 0.5954 0.0536 0.22232 0.0
C1606 C 0.52653 0.01735 0.23451 0.0
C1607 C 0.51693 0.02592 0.26196 0.0
C1608 C 0.51046 1.00005 0.20974 0.0
C1609 C 0.51983 0.99047 0.1801 0.0
C1610 C 0.53663 0.00534 0.15339 0.0
C1611 C 0.54558 0.9962 0.12576 0.0
C1612 C 0.53774 0.97219 0.12442 0.0
C1613 C 0.52088 0.95725 0.15066 0.0
C1614 C 0.51189 0.96631 0.17836 0.0
C1615 C 0.40975 0.9899 0.25883 0.0
C1616 C 0.39538 0.96606 0.25055 0.0
C1617 C 0.43541 0.00071 0.25581 0.0
C1618 C 0.44744 0.98766 0.2463 0.0
C1619 C 0.43279 0.96373 0.23788 0.0
C1620 C 0.40711 0.95342 0.23834 0.0
C1621 C 0.47493 0.99889 0.24258 0.0
C1622 C 0.48497 0.99135 0.21362 0.0
C1623 C 0.49148 0.01676 0.26684 0.0
C1624 C 0.48344 0.02534 0.29937 0.0
C1625 C 0.47204 0.01054 0.32972 0.0
C1626 C 0.46584 0.01913 0.36139 0.0
C1627 C 0.47094 0.0425 0.3629 0.0
C1628 C 0.4824 0.05738 0.33283 0.0
C1629 C 0.48884 0.04893 0.30127 0.0
H1630 H 0.46616 0.04911 0.38746 0.0
H1631 H 0.54469 0.96515 0.103 0.0
loop_
_geom_bond_atom_site_label_1
_geom_bond_atom_site_label_2
_geom_bond_distance
_geom_bond_site_symmetry_2
_ccdc_geom_bond_type
Mn0 O5 2.095 . S
Mn0 O15 2.162 . S
Mn0 O16 2.297 . S
Mn0 O24 2.385 . S
Mn0 O25 2.209 . S
Mn0 O26 2.094 . S
Mn1 O6 2.121 . S
Mn1 N8 2.257 . S
Mn1 N17 2.282 1_554 S
Mn1 O25 2.215 . S
Mn1 O27 2.117 1_554 S
C2 O24 1.234 . S
C2 O25 1.283 . S
C3 O15 1.281 . S
C3 O16 1.236 . S
C4 O26 1.240 1_556 S
C4 O27 1.264 . S
O5 Mn0 2.095 . S
O5 C14 1.250 . S
O6 Mn1 2.121 . S
O6 C14 1.258 . S
C7 N8 1.326 . S
C7 C11 1.460 . S
C7 H13 0.929 . S
N8 Mn1 2.257 . S
N8 C7 1.326 . S
N8 C12 1.362 1_554 S
C9 C10 1.258 1_556 S
C9 C12 1.431 . S
C9 C29 1.449 . S
C10 C9 1.258 1_554 S
C10 C11 1.477 . S
C10 H30 0.931 . S
C11 C7 1.460 . S
C11 C10 1.477 . S
C11 H31 0.930 . S
C12 N8 1.362 1_556 S
C12 C9 1.431 . S
C12 C22 1.476 . S
H13 C7 0.929 . S
C14 O5 1.250 . S
C14 O6 1.258 . S
O15 Mn0 2.162 . S
O15 C3 1.281 . S
O16 Mn0 2.297 . S
O16 C3 1.236 . S
N17 Mn1 2.282 1_556 S
N17 C18 1.328 . S
N17 C22 1.318 . S
C18 N17 1.328 . S
C18 C19 1.457 . S
C18 H23 0.929 . S
C19 C18 1.457 . S
C19 C20 1.291 . S
C19 H32 0.931 . S
C20 C19 1.291 . S
C20 C21 1.373 . S
C20 H33 0.929 . S
C21 C20 1.373 . S
C21 C22 1.396 . S
C21 C28 1.403 . S
C22 C12 1.476 . S
C22 N17 1.318 . S
C22 C21 1.396 . S
H23 C18 0.929 . S
O24 Mn0 2.385 . S
O24 C2 1.234 . S
O25 Mn0 2.209 . S
O25 Mn1 2.215 . S
O25 C2 1.283 . S
O26 Mn0 2.094 . S
O26 C4 1.240 1_554 S
O27 Mn1 2.117 1_556 S
O27 C4 1.264 . S
C28 C21 1.403 . S
C28 C29 1.399 . S
C28 H34 0.929 . S
C29 C9 1.449 . S
C29 C28 1.399 . S
C29 H35 0.930 . S
H30 C10 0.931 . S
H31 C11 0.930 . S
H32 C19 0.931 . S
H33 C20 0.929 . S
H34 C28 0.929 . S
H35 C29 0.930 . S
Mn36 O41 2.095 . S
Mn36 O51 2.162 . S
Mn36 O52 2.297 . S
Mn36 O60 2.385 . S
Mn36 O61 2.209 . S
Mn36 O62 2.094 . S
Mn37 O42 2.121 . S
Mn37 N44 2.257 . S
Mn37 N53 2.282 . S
Mn37 O61 2.215 1_455 S
Mn37 O63 2.117 1_455 S
C38 O60 1.234 . S
C38 O61 1.283 . S
C39 O51 1.281 . S
C39 O52 1.236 . S
C40 O62 1.240 . S
C40 O63 1.264 . S
O41 Mn36 2.095 . S
O41 C50 1.250 . S
O42 Mn37 2.121 . S
O42 C50 1.258 1_455 S
C43 N44 1.326 . S
C43 C47 1.460 . S
C43 H49 0.929 . S
N44 Mn37 2.257 . S
N44 C43 1.326 . S
N44 C48 1.362 . S
C45 C46 1.258 . S
C45 C48 1.431 . S
C45 C65 1.449 . S
C46 C45 1.258 . S
C46 C47 1.477 . S
C46 H66 0.931 . S
C47 C43 1.460 . S
C47 C46 1.477 . S
C47 H67 0.930 . S
C48 N44 1.362 . S
C48 C45 1.431 . S
C48 C58 1.476 . S
H49 C43 0.929 . S
C50 O41 1.250 . S
C50 O42 1.258 1_655 S
O51 Mn36 2.162 . S
O51 C39 1.281 . S
O52 Mn36 2.297 . S
O52 C39 1.236 . S
N53 Mn37 2.282 . S
N53 C54 1.328 . S
N53 C58 1.318 . S
C54 N53 1.328 . S
C54 C55 1.457 . S
C54 H59 0.929 . S
C55 C54 1.457 . S
C55 C56 1.291 . S
C55 H68 0.931 . S
C56 C55 1.291 . S
C56 C57 1.373 . S
C56 H69 0.929 . S
C57 C56 1.373 . S
C57 C58 1.396 . S
C57 C64 1.403 . S
C58 C48 1.476 . S
C58 N53 1.318 . S
C58 C57 1.396 . S
H59 C54 0.929 . S
O60 Mn36 2.385 . S
O60 C38 1.234 . S
O61 Mn36 2.209 . S
O61 Mn37 2.215 1_655 S
O61 C38 1.283 . S
O62 Mn36 2.094 . S
O62 C40 1.240 . S
O63 Mn37 2.117 1_655 S
O63 C40 1.264 . S
C64 C57 1.403 . S
C64 C65 1.399 . S
C64 H70 0.929 . S
C65 C45 1.449 . S
C65 C64 1.399 . S
C65 H71 0.930 . S
H66 C46 0.931 . S
H67 C47 0.930 . S
H68 C55 0.931 . S
H69 C56 0.929 . S
H70 C64 0.929 . S
H71 C65 0.930 . S
Mn72 O77 2.095 . S
Mn72 O87 2.162 . S
Mn72 O88 2.297 . S
Mn72 O96 2.385 . S
Mn72 O97 2.209 . S
Mn72 O98 2.094 . S
Mn73 O78 2.121 . S
Mn73 N80 2.257 . S
Mn73 N89 2.282 . S
Mn73 O97 2.215 . S
Mn73 O99 2.117 . S
C74 O96 1.234 . S
C74 O97 1.283 . S
C75 O87 1.281 . S
C75 O88 1.236 . S
C76 O98 1.240 . S
C76 O99 1.264 . S
O77 Mn72 2.095 . S
O77 C86 1.250 . S
O78 Mn73 2.121 . S
O78 C86 1.258 . S
C79 N80 1.326 . S
C79 C83 1.460 . S
C79 H85 0.929 . S
N80 Mn73 2.257 . S
N80 C79 1.326 . S
N80 C84 1.362 . S
C81 C82 1.258 . S
C81 C84 1.431 . S
C81 C101 1.449 . S
C82 C81 1.258 . S
C82 C83 1.477 . S
C82 H102 0.931 . S
C83 C79 1.460 . S
C83 C82 1.477 . S
C83 H103 0.930 . S
C84 N80 1.362 . S
C84 C81 1.431 . S
C84 C94 1.476 . S
H85 C79 0.929 . S
C86 O77 1.250 . S
C86 O78 1.258 . S
O87 Mn72 2.162 . S
O87 C75 1.281 . S
O88 Mn72 2.297 . S
O88 C75 1.236 . S
N89 Mn73 2.282 . S
N89 C90 1.328 . S
N89 C94 1.318 . S
C90 N89 1.328 . S
C90 C91 1.457 . S
C90 H95 0.929 . S
C91 C90 1.457 . S
C91 C92 1.291 . S
C91 H104 0.931 1_565 S
C92 C91 1.291 . S
C92 C93 1.373 . S
C92 H105 0.929 . S
C93 C92 1.373 . S
C93 C94 1.396 . S
C93 C100 1.403 . S
C94 C84 1.476 . S
C94 N89 1.318 . S
C94 C93 1.396 . S
H95 C90 0.929 . S
O96 Mn72 2.385 . S
O96 C74 1.234 . S
O97 Mn72 2.209 . S
O97 Mn73 2.215 . S
O97 C74 1.283 . S
O98 Mn72 2.094 . S
O98 C76 1.240 . S
O99 Mn73 2.117 . S
O99 C76 1.264 . S
C100 C93 1.403 . S
C100 C101 1.399 . S
C100 H106 0.929 . S
C101 C81 1.449 . S
C101 C100 1.399 . S
C101 H107 0.930 . S
H102 C82 0.931 . S
H103 C83 0.930 . S
H104 C91 0.931 1_545 S
H105 C92 0.929 . S
H106 C100 0.929 . S
H107 C101 0.930 . S
Mn108 O113 2.095 . S
Mn108 O123 2.162 . S
Mn108 O124 2.297 . S
Mn108 O132 2.385 . S
Mn108 O133 2.209 . S
Mn108 O134 2.094 . S
Mn109 O114 2.121 . S
Mn109 N116 2.257 . S
Mn109 N125 2.282 1_554 S
Mn109 O133 2.215 . S
Mn109 O135 2.117 1_554 S
C110 O132 1.234 . S
C110 O133 1.283 . S
C111 O123 1.281 . S
C111 O124 1.236 . S
C112 O134 1.240 1_556 S
C112 O135 1.264 . S
O113 Mn108 2.095 . S
O113 C122 1.250 . S
O114 Mn109 2.121 . S
O114 C122 1.258 . S
C115 N116 1.326 . S
C115 C119 1.460 . S
C115 H121 0.929 . S
N116 Mn109 2.257 . S
N116 C115 1.326 . S
N116 C120 1.362 1_554 S
C117 C118 1.258 1_556 S
C117 C120 1.431 . S
C117 C137 1.449 . S
C118 C117 1.258 1_554 S
C118 C119 1.477 . S
C118 H138 0.931 . S
C119 C115 1.460 . S
C119 C118 1.477 . S
C119 H139 0.930 . S
C120 N116 1.362 1_556 S
C120 C117 1.431 . S
C120 C130 1.476 . S
H121 C115 0.929 . S
C122 O113 1.250 . S
C122 O114 1.258 . S
O123 Mn108 2.162 . S
O123 C111 1.281 . S
O124 Mn108 2.297 . S
O124 C111 1.236 . S
N125 Mn109 2.282 1_556 S
N125 C126 1.328 . S
N125 C130 1.318 . S
C126 N125 1.328 . S
C126 C127 1.457 . S
C126 H131 0.929 . S
C127 C126 1.457 . S
C127 C128 1.291 . S
C127 H140 0.931 . S
C128 C127 1.291 . S
C128 C129 1.373 . S
C128 H141 0.929 . S
C129 C128 1.373 . S
C129 C130 1.396 . S
C129 C136 1.403 . S
C130 C120 1.476 . S
C130 N125 1.318 . S
C130 C129 1.396 . S
H131 C126 0.929 . S
O132 Mn108 2.385 . S
O132 C110 1.234 . S
O133 Mn108 2.209 . S
O133 Mn109 2.215 . S
O133 C110 1.283 . S
O134 Mn108 2.094 . S
O134 C112 1.240 1_554 S
O135 Mn109 2.117 1_556 S
O135 C112 1.264 . S
C136 C129 1.403 . S
C136 C137 1.399 . S
C136 H142 0.929 . S
C137 C117 1.449 . S
C137 C136 1.399 . S
C137 H143 0.930 . S
H138 C118 0.931 . S
H139 C119 0.930 . S
H140 C127 0.931 . S
H141 C128 0.929 . S
H142 C136 0.929 . S
H143 C137 0.930 . S
Mn144 O149 2.095 . S
Mn144 O159 2.162 . S
Mn144 O160 2.297 . S
Mn144 O168 2.385 . S
Mn144 O169 2.209 . S
Mn144 O170 2.094 . S
Mn145 O150 2.121 . S
Mn145 N152 2.257 . S
Mn145 N161 2.282 . S
Mn145 O169 2.215 1_655 S
Mn145 O171 2.117 1_655 S
C146 O168 1.234 . S
C146 O169 1.283 . S
C147 O159 1.281 . S
C147 O160 1.236 . S
C148 O170 1.240 . S
C148 O171 1.264 . S
O149 Mn144 2.095 . S
O149 C158 1.250 . S
O150 Mn145 2.121 . S
O150 C158 1.258 1_655 S
C151 N152 1.326 . S
C151 C155 1.460 . S
C151 H157 0.929 . S
N152 Mn145 2.257 . S
N152 C151 1.326 . S
N152 C156 1.362 . S
C153 C154 1.258 . S
C153 C156 1.431 . S
C153 C173 1.449 . S
C154 C153 1.258 . S
C154 C155 1.477 . S
C154 H174 0.931 . S
C155 C151 1.460 . S
C155 C154 1.477 . S
C155 H175 0.930 . S
C156 N152 1.362 . S
C156 C153 1.431 . S
C156 C166 1.476 . S
H157 C151 0.929 . S
C158 O149 1.250 . S
C158 O150 1.258 1_455 S
O159 Mn144 2.162 . S
O159 C147 1.281 . S
O160 Mn144 2.297 . S
O160 C147 1.236 . S
N161 Mn145 2.282 . S
N161 C162 1.328 . S
N161 C166 1.318 . S
C162 N161 1.328 . S
C162 C163 1.457 . S
C162 H167 0.929 . S
C163 C162 1.457 . S
C163 C164 1.291 . S
C163 H176 0.931 . S
C164 C163 1.291 . S
C164 C165 1.373 . S
C164 H177 0.929 . S
C165 C164 1.373 . S
C165 C166 1.396 . S
C165 C172 1.403 . S
C166 C156 1.476 . S
C166 N161 1.318 . S
C166 C165 1.396 . S
H167 C162 0.929 . S
O168 Mn144 2.385 . S
O168 C146 1.234 . S
O169 Mn144 2.209 . S
O169 Mn145 2.215 1_455 S
O169 C146 1.283 . S
O170 Mn144 2.094 . S
O170 C148 1.240 . S
O171 Mn145 2.117 1_455 S
O171 C148 1.264 . S
C172 C165 1.403 . S
C172 C173 1.399 . S
C172 H178 0.929 . S
C173 C153 1.449 . S
C173 C172 1.399 . S
C173 H179 0.930 . S
H174 C154 0.931 . S
H175 C155 0.930 . S
H176 C163 0.931 . S
H177 C164 0.929 . S
H178 C172 0.929 . S
H179 C173 0.930 . S
Mn180 O185 2.095 . S
Mn180 O195 2.162 . S
Mn180 O196 2.297 . S
Mn180 O204 2.385 . S
Mn180 O205 2.209 . S
Mn180 O206 2.094 . S
Mn181 O186 2.121 . S
Mn181 N188 2.257 . S
Mn181 N197 2.282 . S
Mn181 O205 2.215 . S
Mn181 O207 2.117 . S
C182 O204 1.234 . S
C182 O205 1.283 . S
C183 O195 1.281 . S
C183 O196 1.236 . S
C184 O206 1.240 . S
C184 O207 1.264 . S
O185 Mn180 2.095 . S
O185 C194 1.250 . S
O186 Mn181 2.121 . S
O186 C194 1.258 . S
C187 N188 1.326 . S
C187 C191 1.460 . S
C187 H193 0.929 . S
N188 Mn181 2.257 . S
N188 C187 1.326 . S
N188 C192 1.362 . S
C189 C190 1.258 . S
C189 C192 1.431 . S
C189 C209 1.449 . S
C190 C189 1.258 . S
C190 C191 1.477 . S
C190 H210 0.931 . S
C191 C187 1.460 . S
C191 C190 1.477 . S
C191 H211 0.930 . S
C192 N188 1.362 . S
C192 C189 1.431 . S
C192 C202 1.476 . S
H193 C187 0.929 . S
C194 O185 1.250 . S
C194 O186 1.258 . S
O195 Mn180 2.162 . S
O195 C183 1.281 . S
O196 Mn180 2.297 . S
O196 C183 1.236 . S
N197 Mn181 2.282 . S
N197 C198 1.328 . S
N197 C202 1.318 . S
C198 N197 1.328 . S
C198 C199 1.457 . S
C198 H203 0.929 . S
C199 C198 1.457 . S
C199 C200 1.291 . S
C199 H212 0.931 1_545 S
C200 C199 1.291 . S
C200 C201 1.373 . S
C200 H213 0.929 . S
C201 C200 1.373 . S
C201 C202 1.396 . S
C201 C208 1.403 . S
C202 C192 1.476 . S
C202 N197 1.318 . S
C202 C201 1.396 . S
H203 C198 0.929 . S
O204 Mn180 2.385 . S
O204 C182 1.234 . S
O205 Mn180 2.209 . S
O205 Mn181 2.215 . S
O205 C182 1.283 . S
O206 Mn180 2.094 . S
O206 C184 1.240 . S
O207 Mn181 2.117 . S
O207 C184 1.264 . S
C208 C201 1.403 . S
C208 C209 1.399 . S
C208 H214 0.929 . S
C209 C189 1.449 . S
C209 C208 1.399 . S
C209 H215 0.930 . S
H210 C190 0.931 . S
H211 C191 0.930 . S
H212 C199 0.931 1_565 S
H213 C200 0.929 . S
H214 C208 0.929 . S
H215 C209 0.930 . S
Mn216 O221 2.095 . S
Mn216 O231 2.162 . S
Mn216 O232 2.297 . S
Mn216 O240 2.385 . S
Mn216 O241 2.209 . S
Mn216 O242 2.094 . S
Mn217 O222 2.121 . S
Mn217 N224 2.257 . S
Mn217 N233 2.282 . S
Mn217 O241 2.215 . S
Mn217 O243 2.117 . S
C218 O240 1.234 . S
C218 O241 1.283 . S
C219 O231 1.281 . S
C219 O232 1.236 . S
C220 O242 1.240 . S
C220 O243 1.264 . S
O221 Mn216 2.095 . S
O221 C230 1.250 . S
O222 Mn217 2.121 . S
O222 C230 1.258 . S
C223 N224 1.326 . S
C223 C227 1.460 . S
C223 H229 0.929 . S
N224 Mn217 2.257 . S
N224 C223 1.326 . S
N224 C228 1.362 . S
C225 C226 1.258 . S
C225 C228 1.431 . S
C225 C245 1.449 . S
C226 C225 1.258 . S
C226 C227 1.477 . S
C226 H246 0.931 . S
C227 C223 1.460 . S
C227 C226 1.477 . S
C227 H247 0.930 . S
C228 N224 1.362 . S
C228 C225 1.431 . S
C228 C238 1.476 . S
H229 C223 0.929 . S
C230 O221 1.250 . S
C230 O222 1.258 . S
O231 Mn216 2.162 . S
O231 C219 1.281 . S
O232 Mn216 2.297 . S
O232 C219 1.236 . S
N233 Mn217 2.282 . S
N233 C234 1.328 . S
N233 C238 1.318 . S
C234 N233 1.328 . S
C234 C235 1.457 . S
C234 H239 0.929 . S
C235 C234 1.457 . S
C235 C236 1.291 . S
C235 H248 0.931 . S
C236 C235 1.291 . S
C236 C237 1.373 . S
C236 H249 0.929 . S
C237 C236 1.373 . S
C237 C238 1.396 . S
C237 C244 1.403 . S
C238 C228 1.476 . S
C238 N233 1.318 . S
C238 C237 1.396 . S
H239 C234 0.929 . S
O240 Mn216 2.385 . S
O240 C218 1.234 . S
O241 Mn216 2.209 . S
O241 Mn217 2.215 . S
O241 C218 1.283 . S
O242 Mn216 2.094 . S
O242 C220 1.240 . S
O243 Mn217 2.117 . S
O243 C220 1.264 . S
C244 C237 1.403 . S
C244 C245 1.399 . S
C244 H250 0.929 . S
C245 C225 1.449 . S
C245 C244 1.399 . S
C245 H251 0.930 . S
H246 C226 0.931 . S
H247 C227 0.930 . S
H248 C235 0.931 . S
H249 C236 0.929 . S
H250 C244 0.929 . S
H251 C245 0.930 . S
Mn252 O257 2.095 . S
Mn252 O267 2.162 . S
Mn252 O268 2.297 . S
Mn252 O276 2.385 . S
Mn252 O277 2.209 . S
Mn252 O278 2.094 . S
Mn253 O258 2.121 . S
Mn253 N260 2.257 . S
Mn253 N269 2.282 1_556 S
Mn253 O277 2.215 . S
Mn253 O279 2.117 1_556 S
C254 O276 1.234 . S
C254 O277 1.283 . S
C255 O267 1.281 . S
C255 O268 1.236 . S
C256 O278 1.240 1_554 S
C256 O279 1.264 . S
O257 Mn252 2.095 . S
O257 C266 1.250 . S
O258 Mn253 2.121 . S
O258 C266 1.258 . S
C259 N260 1.326 . S
C259 C263 1.460 . S
C259 H265 0.929 . S
N260 Mn253 2.257 . S
N260 C259 1.326 . S
N260 C264 1.362 1_556 S
C261 C262 1.258 1_554 S
C261 C264 1.431 . S
C261 C281 1.449 . S
C262 C261 1.258 1_556 S
C262 C263 1.477 . S
C262 H282 0.931 . S
C263 C259 1.460 . S
C263 C262 1.477 . S
C263 H283 0.930 . S
C264 N260 1.362 1_554 S
C264 C261 1.431 . S
C264 C274 1.476 . S
H265 C259 0.929 . S
C266 O257 1.250 . S
C266 O258 1.258 . S
O267 Mn252 2.162 . S
O267 C255 1.281 . S
O268 Mn252 2.297 . S
O268 C255 1.236 . S
N269 Mn253 2.282 1_554 S
N269 C270 1.328 . S
N269 C274 1.318 . S
C270 N269 1.328 . S
C270 C271 1.457 . S
C270 H275 0.929 . S
C271 C270 1.457 . S
C271 C272 1.291 . S
C271 H284 0.931 1_655 S
C272 C271 1.291 . S
C272 C273 1.373 . S
C272 H285 0.929 . S
C273 C272 1.373 . S
C273 C274 1.396 . S
C273 C280 1.403 . S
C274 C264 1.476 . S
C274 N269 1.318 . S
C274 C273 1.396 . S
H275 C270 0.929 . S
O276 Mn252 2.385 . S
O276 C254 1.234 . S
O277 Mn252 2.209 . S
O277 Mn253 2.215 . S
O277 C254 1.283 . S
O278 Mn252 2.094 . S
O278 C256 1.240 1_556 S
O279 Mn253 2.117 1_554 S
O279 C256 1.264 . S
C280 C273 1.403 . S
C280 C281 1.399 . S
C280 H286 0.929 . S
C281 C261 1.449 . S
C281 C280 1.399 . S
C281 H287 0.930 . S
H282 C262 0.931 . S
H283 C263 0.930 . S
H284 C271 0.931 1_455 S
H285 C272 0.929 . S
H286 C280 0.929 . S
H287 C281 0.930 . S
Mn288 O293 2.095 . S
Mn288 O303 2.162 . S
Mn288 O304 2.297 . S
Mn288 O312 2.385 . S
Mn288 O313 2.209 . S
Mn288 O314 2.094 . S
Mn289 O294 2.121 . S
Mn289 N296 2.257 . S
Mn289 N305 2.282 . S
Mn289 O313 2.215 . S
Mn289 O315 2.117 . S
C290 O312 1.234 . S
C290 O313 1.283 . S
C291 O303 1.281 . S
C291 O304 1.236 . S
C292 O314 1.240 . S
C292 O315 1.264 . S
O293 Mn288 2.095 . S
O293 C302 1.250 . S
O294 Mn289 2.121 . S
O294 C302 1.258 . S
C295 N296 1.326 . S
C295 C299 1.460 . S
C295 H301 0.929 . S
N296 Mn289 2.257 . S
N296 C295 1.326 . S
N296 C300 1.362 . S
C297 C298 1.258 . S
C297 C300 1.431 . S
C297 C317 1.449 . S
C298 C297 1.258 . S
C298 C299 1.477 . S
C298 H318 0.931 . S
C299 C295 1.460 . S
C299 C298 1.477 . S
C299 H319 0.930 . S
C300 N296 1.362 . S
C300 C297 1.431 . S
C300 C310 1.476 . S
H301 C295 0.929 . S
C302 O293 1.250 . S
C302 O294 1.258 . S
O303 Mn288 2.162 . S
O303 C291 1.281 . S
O304 Mn288 2.297 . S
O304 C291 1.236 . S
N305 Mn289 2.282 . S
N305 C306 1.328 . S
N305 C310 1.318 . S
C306 N305 1.328 . S
C306 C307 1.457 . S
C306 H311 0.929 . S
C307 C306 1.457 . S
C307 C308 1.291 . S
C307 H320 0.931 1_565 S
C308 C307 1.291 . S
C308 C309 1.373 . S
C308 H321 0.929 . S
C309 C308 1.373 . S
C309 C310 1.396 . S
C309 C316 1.403 . S
C310 C300 1.476 . S
C310 N305 1.318 . S
C310 C309 1.396 . S
H311 C306 0.929 . S
O312 Mn288 2.385 . S
O312 C290 1.234 . S
O313 Mn288 2.209 . S
O313 Mn289 2.215 . S
O313 C290 1.283 . S
O314 Mn288 2.094 . S
O314 C292 1.240 . S
O315 Mn289 2.117 . S
O315 C292 1.264 . S
C316 C309 1.403 . S
C316 C317 1.399 . S
C316 H322 0.929 . S
C317 C297 1.449 . S
C317 C316 1.399 . S
C317 H323 0.930 . S
H318 C298 0.931 . S
H319 C299 0.930 . S
H320 C307 0.931 1_545 S
H321 C308 0.929 . S
H322 C316 0.929 . S
H323 C317 0.930 . S
Mn324 O329 2.095 . S
Mn324 O339 2.162 . S
Mn324 O340 2.297 . S
Mn324 O348 2.385 . S
Mn324 O349 2.209 . S
Mn324 O350 2.094 . S
Mn325 O330 2.121 . S
Mn325 N332 2.257 . S
Mn325 N341 2.282 . S
Mn325 O349 2.215 . S
Mn325 O351 2.117 . S
C326 O348 1.234 . S
C326 O349 1.283 . S
C327 O339 1.281 . S
C327 O340 1.236 . S
C328 O350 1.240 . S
C328 O351 1.264 . S
O329 Mn324 2.095 . S
O329 C338 1.250 . S
O330 Mn325 2.121 . S
O330 C338 1.258 . S
C331 N332 1.326 . S
C331 C335 1.460 . S
C331 H337 0.929 . S
N332 Mn325 2.257 . S
N332 C331 1.326 . S
N332 C336 1.362 . S
C333 C334 1.258 . S
C333 C336 1.431 . S
C333 C353 1.449 . S
C334 C333 1.258 . S
C334 C335 1.477 . S
C334 H354 0.931 . S
C335 C331 1.460 . S
C335 C334 1.477 . S
C335 H355 0.930 . S
C336 N332 1.362 . S
C336 C333 1.431 . S
C336 C346 1.476 . S
H337 C331 0.929 . S
C338 O329 1.250 . S
C338 O330 1.258 . S
O339 Mn324 2.162 . S
O339 C327 1.281 . S
O340 Mn324 2.297 . S
O340 C327 1.236 . S
N341 Mn325 2.282 . S
N341 C342 1.328 . S
N341 C346 1.318 . S
C342 N341 1.328 . S
C342 C343 1.457 . S
C342 H347 0.929 . S
C343 C342 1.457 . S
C343 C344 1.291 . S
C343 H356 0.931 . S
C344 C343 1.291 . S
C344 C345 1.373 . S
C344 H357 0.929 . S
C345 C344 1.373 . S
C345 C346 1.396 . S
C345 C352 1.403 . S
C346 C336 1.476 . S
C346 N341 1.318 . S
C346 C345 1.396 . S
H347 C342 0.929 . S
O348 Mn324 2.385 . S
O348 C326 1.234 . S
O349 Mn324 2.209 . S
O349 Mn325 2.215 . S
O349 C326 1.283 . S
O350 Mn324 2.094 . S
O350 C328 1.240 . S
O351 Mn325 2.117 . S
O351 C328 1.264 . S
C352 C345 1.403 . S
C352 C353 1.399 . S
C352 H358 0.929 . S
C353 C333 1.449 . S
C353 C352 1.399 . S
C353 H359 0.930 . S
H354 C334 0.931 . S
H355 C335 0.930 . S
H356 C343 0.931 . S
H357 C344 0.929 . S
H358 C352 0.929 . S
H359 C353 0.930 . S
Mn360 O365 2.095 . S
Mn360 O375 2.162 . S
Mn360 O376 2.297 . S
Mn360 O384 2.385 . S
Mn360 O385 2.209 . S
Mn360 O386 2.094 . S
Mn361 O366 2.121 . S
Mn361 N368 2.257 . S
Mn361 N377 2.282 1_556 S
Mn361 O385 2.215 . S
Mn361 O387 2.117 1_556 S
C362 O384 1.234 . S
C362 O385 1.283 . S
C363 O375 1.281 . S
C363 O376 1.236 . S
C364 O386 1.240 1_554 S
C364 O387 1.264 . S
O365 Mn360 2.095 . S
O365 C374 1.250 . S
O366 Mn361 2.121 . S
O366 C374 1.258 . S
C367 N368 1.326 . S
C367 C371 1.460 . S
C367 H373 0.929 . S
N368 Mn361 2.257 . S
N368 C367 1.326 . S
N368 C372 1.362 1_556 S
C369 C370 1.258 1_554 S
C369 C372 1.431 . S
C369 C389 1.449 . S
C370 C369 1.258 1_556 S
C370 C371 1.477 . S
C370 H390 0.931 . S
C371 C367 1.460 . S
C371 C370 1.477 . S
C371 H391 0.930 . S
C372 N368 1.362 1_554 S
C372 C369 1.431 . S
C372 C382 1.476 . S
H373 C367 0.929 . S
C374 O365 1.250 . S
C374 O366 1.258 . S
O375 Mn360 2.162 . S
O375 C363 1.281 . S
O376 Mn360 2.297 . S
O376 C363 1.236 . S
N377 Mn361 2.282 1_554 S
N377 C378 1.328 . S
N377 C382 1.318 . S
C378 N377 1.328 . S
C378 C379 1.457 . S
C378 H383 0.929 . S
C379 C378 1.457 . S
C379 C380 1.291 . S
C379 H392 0.931 1_455 S
C380 C379 1.291 . S
C380 C381 1.373 . S
C380 H393 0.929 . S
C381 C380 1.373 . S
C381 C382 1.396 . S
C381 C388 1.403 . S
C382 C372 1.476 . S
C382 N377 1.318 . S
C382 C381 1.396 . S
H383 C378 0.929 . S
O384 Mn360 2.385 . S
O384 C362 1.234 . S
O385 Mn360 2.209 . S
O385 Mn361 2.215 . S
O385 C362 1.283 . S
O386 Mn360 2.094 . S
O386 C364 1.240 1_556 S
O387 Mn361 2.117 1_554 S
O387 C364 1.264 . S
C388 C381 1.403 . S
C388 C389 1.399 . S
C388 H394 0.929 . S
C389 C369 1.449 . S
C389 C388 1.399 . S
C389 H395 0.930 . S
H390 C370 0.931 . S
H391 C371 0.930 . S
H392 C379 0.931 1_655 S
H393 C380 0.929 . S
H394 C388 0.929 . S
H395 C389 0.930 . S
Mn396 O401 2.095 . S
Mn396 O411 2.162 . S
Mn396 O412 2.297 . S
Mn396 O420 2.385 . S
Mn396 O421 2.209 . S
Mn396 O422 2.094 . S
Mn397 O402 2.121 . S
Mn397 N404 2.257 . S
Mn397 N413 2.282 . S
Mn397 O421 2.215 . S
Mn397 O423 2.117 . S
C398 O420 1.234 . S
C398 O421 1.283 . S
C399 O411 1.281 . S
C399 O412 1.236 . S
C400 O422 1.240 . S
C400 O423 1.264 . S
O401 Mn396 2.095 . S
O401 C410 1.250 . S
O402 Mn397 2.121 . S
O402 C410 1.258 . S
C403 N404 1.326 . S
C403 C407 1.460 . S
C403 H409 0.929 . S
N404 Mn397 2.257 . S
N404 C403 1.326 . S
N404 C408 1.362 . S
C405 C406 1.258 . S
C405 C408 1.431 . S
C405 C425 1.449 . S
C406 C405 1.258 . S
C406 C407 1.477 . S
C406 H426 0.931 . S
C407 C403 1.460 . S
C407 C406 1.477 . S
C407 H427 0.930 . S
C408 N404 1.362 . S
C408 C405 1.431 . S
C408 C418 1.476 . S
H409 C403 0.929 . S
C410 O401 1.250 . S
C410 O402 1.258 . S
O411 Mn396 2.162 . S
O411 C399 1.281 . S
O412 Mn396 2.297 . S
O412 C399 1.236 . S
N413 Mn397 2.282 . S
N413 C414 1.328 . S
N413 C418 1.318 . S
C414 N413 1.328 . S
C414 C415 1.457 . S
C414 H419 0.929 . S
C415 C414 1.457 . S
C415 C416 1.291 . S
C415 H428 0.931 1_545 S
C416 C415 1.291 . S
C416 C417 1.373 . S
C416 H429 0.929 . S
C417 C416 1.373 . S
C417 C418 1.396 . S
C417 C424 1.403 . S
C418 C408 1.476 . S
C418 N413 1.318 . S
C418 C417 1.396 . S
H419 C414 0.929 . S
O420 Mn396 2.385 . S
O420 C398 1.234 . S
O421 Mn396 2.209 . S
O421 Mn397 2.215 . S
O421 C398 1.283 . S
O422 Mn396 2.094 . S
O422 C400 1.240 . S
O423 Mn397 2.117 . S
O423 C400 1.264 . S
C424 C417 1.403 . S
C424 C425 1.399 . S
C424 H430 0.929 . S
C425 C405 1.449 . S
C425 C424 1.399 . S
C425 H431 0.930 . S
H426 C406 0.931 . S
H427 C407 0.930 . S
H428 C415 0.931 1_565 S
H429 C416 0.929 . S
H430 C424 0.929 . S
H431 C425 0.930 . S
H432 C450 0.951 . S
H433 C452 0.951 . S
H434 C454 0.950 . S
H435 C455 0.950 . S
H436 C457 0.950 . S
H437 C460 0.950 . S
H438 C461 0.950 . S
H439 C463 0.950 . S
H440 C464 0.950 . S
H441 C465 0.951 . S
H442 C467 0.951 . S
H443 C469 0.950 . S
H444 C470 0.950 . S
H445 C472 0.950 . S
H446 C475 0.950 . S
H447 C476 0.950 . S
H448 C478 0.950 . S
H449 C479 0.950 . S
C450 H432 0.951 . S
C450 C451 1.366 . S
C450 C452 1.388 . S
C451 C450 1.366 . S
C451 C455 1.385 . S
C452 H433 0.951 . S
C452 C450 1.388 . S
C452 C453 1.366 . S
C453 C452 1.366 . S
C453 C454 1.414 . S
C453 C456 1.499 . S
C454 H434 0.950 . S
C454 C453 1.414 . S
C454 C455 1.374 . S
C455 H435 0.950 . S
C455 C451 1.385 . S
C455 C454 1.374 . S
C456 C453 1.499 . S
C456 C457 1.373 . S
C456 C458 1.389 . S
C457 H436 0.950 . S
C457 C456 1.373 . S
C457 C473 1.377 . S
C458 C456 1.389 . S
C458 C459 1.524 . S
C458 C472 1.377 . S
C459 C458 1.524 . S
C459 C460 1.397 . S
C459 C464 1.363 . S
C460 H437 0.950 . S
C460 C459 1.397 . S
C460 C461 1.334 . S
C461 H438 0.950 . S
C461 C460 1.334 . S
C461 C462 1.287 . S
C462 C461 1.287 . S
C462 C463 1.524 . S
C462 H481 0.913 . S
C463 H439 0.950 . S
C463 C462 1.524 . S
C463 C464 1.415 . S
C464 H440 0.950 . S
C464 C459 1.363 . S
C464 C463 1.415 . S
C465 H441 0.951 . S
C465 C466 1.366 . S
C465 C467 1.388 . S
C466 C465 1.366 . S
C466 C470 1.385 . S
C467 H442 0.951 . S
C467 C465 1.388 . S
C467 C468 1.366 . S
C468 C467 1.366 . S
C468 C469 1.414 . S
C468 C471 1.499 . S
C469 H443 0.950 . S
C469 C468 1.414 . S
C469 C470 1.374 . S
C470 H444 0.950 . S
C470 C466 1.385 . S
C470 C469 1.374 . S
C471 C468 1.499 . S
C471 C472 1.373 . S
C471 C473 1.389 . S
C472 H445 0.950 . S
C472 C458 1.377 . S
C472 C471 1.373 . S
C473 C457 1.377 . S
C473 C471 1.389 . S
C473 C474 1.524 . S
C474 C473 1.524 . S
C474 C475 1.397 . S
C474 C479 1.363 . S
C475 H446 0.950 . S
C475 C474 1.397 . S
C475 C476 1.334 . S
C476 H447 0.950 . S
C476 C475 1.334 . S
C476 C477 1.287 . S
C477 C476 1.287 . S
C477 C478 1.524 . S
C477 H480 0.999 . S
C478 H448 0.950 . S
C478 C477 1.524 . S
C478 C479 1.415 . S
C479 H449 0.950 . S
C479 C474 1.363 . S
C479 C478 1.415 . S
H480 C477 0.999 . S
H481 C462 0.913 . S
H482 C500 0.951 . S
H483 C502 0.951 . S
H484 C504 0.950 1_455 S
H485 C505 0.950 . S
H486 C507 0.950 . S
H487 C510 0.950 . S
H488 C511 0.950 . S
H489 C513 0.950 . S
H490 C514 0.950 . S
H491 C515 0.951 . S
H492 C517 0.951 . S
H493 C519 0.950 . S
H494 C520 0.945 . S
H495 C522 0.950 . S
H496 C525 0.950 . S
H497 C526 0.950 . S
H498 C528 0.950 . S
H499 C529 0.950 . S
C500 H482 0.951 . S
C500 C501 1.366 . S
C500 C502 1.388 . S
C501 C500 1.366 . S
C501 C505 1.385 . S
C502 H483 0.951 . S
C502 C500 1.388 . S
C502 C503 1.366 . S
C503 C502 1.366 . S
C503 C504 1.414 . S
C503 C506 1.499 . S
C504 H484 0.950 1_655 S
C504 C503 1.414 . S
C504 C505 1.374 . S
C505 H485 0.950 . S
C505 C501 1.385 . S
C505 C504 1.374 . S
C506 C503 1.499 . S
C506 C507 1.373 1_655 S
C506 C508 1.389 . S
C507 H486 0.950 . S
C507 C506 1.373 1_455 S
C507 C523 1.377 . S
C508 C506 1.389 . S
C508 C509 1.524 . S
C508 C522 1.377 . S
C509 C508 1.524 . S
C509 C510 1.397 . S
C509 C514 1.363 . S
C510 H487 0.950 . S
C510 C509 1.397 . S
C510 C511 1.334 . S
C511 H488 0.950 . S
C511 C510 1.334 . S
C511 C512 1.287 . S
C512 C511 1.287 . S
C512 C513 1.524 . S
C512 H531 0.913 . S
C513 H489 0.950 . S
C513 C512 1.524 . S
C513 C514 1.415 . S
C514 H490 0.950 . S
C514 C509 1.363 . S
C514 C513 1.415 . S
C515 H491 0.951 . S
C515 C516 1.366 . S
C515 C517 1.388 . S
C516 C515 1.366 . S
C516 C520 1.387 1_455 S
C517 H492 0.951 . S
C517 C515 1.388 . S
C517 C518 1.366 . S
C518 C517 1.366 . S
C518 C519 1.414 1_455 S
C518 C521 1.496 1_455 S
C519 H493 0.950 . S
C519 C518 1.414 1_655 S
C519 C520 1.379 . S
C520 H494 0.945 . S
C520 C516 1.387 1_655 S
C520 C519 1.379 . S
C521 C518 1.496 1_655 S
C521 C522 1.387 . S
C521 C523 1.379 1_655 S
C522 H495 0.950 . S
C522 C508 1.377 . S
C522 C521 1.387 . S
C523 C507 1.377 . S
C523 C521 1.379 1_455 S
C523 C524 1.524 . S
C524 C523 1.524 . S
C524 C525 1.397 . S
C524 C529 1.363 . S
C525 H496 0.950 . S
C525 C524 1.397 . S
C525 C526 1.334 . S
C526 H497 0.950 . S
C526 C525 1.334 . S
C526 C527 1.287 . S
C527 C526 1.287 . S
C527 C528 1.524 . S
C527 H530 0.999 . S
C528 H498 0.950 . S
C528 C527 1.524 . S
C528 C529 1.415 . S
C529 H499 0.950 . S
C529 C524 1.363 . S
C529 C528 1.415 . S
H530 C527 0.999 . S
H531 C512 0.913 . S
H532 C550 0.951 . S
H533 C552 0.951 . S
H534 C554 0.950 . S
H535 C555 0.950 . S
H536 C557 0.950 . S
H537 C560 0.950 . S
H538 C561 0.950 . S
H539 C563 0.950 . S
H540 C564 0.950 . S
H541 C565 0.951 . S
H542 C567 0.951 . S
H543 C569 0.950 . S
H544 C570 0.950 . S
H545 C572 0.950 . S
H546 C575 0.950 . S
H547 C576 0.950 . S
H548 C578 0.950 . S
H549 C579 0.950 . S
C550 H532 0.951 . S
C550 C551 1.366 . S
C550 C552 1.388 . S
C551 C550 1.366 . S
C551 C555 1.385 1_565 S
C552 H533 0.951 . S
C552 C550 1.388 . S
C552 C553 1.366 . S
C553 C552 1.366 . S
C553 C554 1.414 1_565 S
C553 C556 1.499 . S
C554 H534 0.950 . S
C554 C553 1.414 1_545 S
C554 C555 1.374 . S
C555 H535 0.950 . S
C555 C551 1.385 1_545 S
C555 C554 1.374 . S
C556 C553 1.499 . S
C556 C557 1.373 . S
C556 C558 1.389 . S
C557 H536 0.950 . S
C557 C556 1.373 . S
C557 C573 1.377 1_566 S
C558 C556 1.389 . S
C558 C559 1.540 . S
C558 C572 1.377 1_566 S
C559 C558 1.540 . S
C559 C560 1.373 1_565 S
C559 C564 1.369 . S
C560 H537 0.950 . S
C560 C559 1.373 1_545 S
C560 C561 1.334 . S
C561 H538 0.950 . S
C561 C560 1.334 . S
C561 C562 1.287 . S
C562 C561 1.287 . S
C562 C563 1.524 1_545 S
C562 H581 0.913 . S
C563 H539 0.950 . S
C563 C562 1.524 1_565 S
C563 C564 1.415 . S
C564 H540 0.950 . S
C564 C559 1.369 . S
C564 C563 1.415 . S
C565 H541 0.951 . S
C565 C566 1.366 . S
C565 C567 1.388 . S
C566 C565 1.366 . S
C566 C570 1.385 1_545 S
C567 H542 0.951 . S
C567 C565 1.388 . S
C567 C568 1.366 . S
C568 C567 1.366 . S
C568 C569 1.414 1_545 S
C568 C571 1.499 . S
C569 H543 0.950 . S
C569 C568 1.414 1_565 S
C569 C570 1.374 . S
C570 H544 0.950 . S
C570 C566 1.385 1_565 S
C570 C569 1.374 . S
C571 C568 1.499 . S
C571 C572 1.373 . S
C571 C573 1.389 . S
C572 H545 0.950 . S
C572 C558 1.377 1_544 S
C572 C571 1.373 . S
C573 C557 1.377 1_544 S
C573 C571 1.389 . S
C573 C574 1.540 . S
C574 C573 1.540 . S
C574 C575 1.373 1_545 S
C574 C579 1.369 . S
C575 H546 0.950 . S
C575 C574 1.373 1_565 S
C575 C576 1.334 . S
C576 H547 0.950 . S
C576 C575 1.334 . S
C576 C577 1.287 . S
C577 C576 1.287 . S
C577 C578 1.524 1_565 S
C577 H580 0.999 . S
C578 H548 0.950 . S
C578 C577 1.524 1_545 S
C578 C579 1.415 . S
C579 H549 0.950 . S
C579 C574 1.369 . S
C579 C578 1.415 . S
H580 C577 0.999 . S
H581 C562 0.913 . S
H582 C600 0.951 . S
H583 C602 0.951 . S
H584 C604 0.950 . S
H585 C605 0.950 . S
H586 C607 0.950 . S
H587 C610 0.950 . S
H588 C611 0.950 . S
H589 C613 0.950 . S
H590 C614 0.950 . S
H591 C615 0.951 . S
H592 C617 0.951 . S
H593 C619 0.950 . S
H594 C620 0.950 . S
H595 C622 0.950 . S
H596 C625 0.950 . S
H597 C626 0.950 . S
H598 C628 0.950 . S
H599 C629 0.950 . S
C600 H582 0.951 . S
C600 C601 1.366 . S
C600 C602 1.388 . S
C601 C600 1.366 . S
C601 C605 1.385 . S
C602 H583 0.951 . S
C602 C600 1.388 . S
C602 C603 1.366 . S
C603 C602 1.366 . S
C603 C604 1.414 . S
C603 C606 1.499 . S
C604 H584 0.950 . S
C604 C603 1.414 . S
C604 C605 1.374 . S
C605 H585 0.950 . S
C605 C601 1.385 . S
C605 C604 1.374 . S
C606 C603 1.499 . S
C606 C607 1.373 . S
C606 C608 1.389 . S
C607 H586 0.950 . S
C607 C606 1.373 . S
C607 C623 1.377 . S
C608 C606 1.389 . S
C608 C609 1.524 . S
C608 C622 1.377 . S
C609 C608 1.524 . S
C609 C610 1.397 . S
C609 C614 1.363 . S
C610 H587 0.950 . S
C610 C609 1.397 . S
C610 C611 1.334 . S
C611 H588 0.950 . S
C611 C610 1.334 . S
C611 C612 1.287 . S
C612 C611 1.287 . S
C612 C613 1.524 . S
C612 H631 0.913 . S
C613 H589 0.950 . S
C613 C612 1.524 . S
C613 C614 1.415 . S
C614 H590 0.950 . S
C614 C609 1.363 . S
C614 C613 1.415 . S
C615 H591 0.951 . S
C615 C616 1.366 . S
C615 C617 1.388 . S
C616 C615 1.366 . S
C616 C620 1.385 . S
C617 H592 0.951 . S
C617 C615 1.388 . S
C617 C618 1.366 . S
C618 C617 1.366 . S
C618 C619 1.414 . S
C618 C621 1.499 . S
C619 H593 0.950 . S
C619 C618 1.414 . S
C619 C620 1.374 . S
C620 H594 0.950 . S
C620 C616 1.385 . S
C620 C619 1.374 . S
C621 C618 1.499 . S
C621 C622 1.373 . S
C621 C623 1.389 . S
C622 H595 0.950 . S
C622 C608 1.377 . S
C622 C621 1.373 . S
C623 C607 1.377 . S
C623 C621 1.389 . S
C623 C624 1.524 . S
C624 C623 1.524 . S
C624 C625 1.397 . S
C624 C629 1.363 . S
C625 H596 0.950 . S
C625 C624 1.397 . S
C625 C626 1.334 . S
C626 H597 0.950 . S
C626 C625 1.334 . S
C626 C627 1.287 . S
C627 C626 1.287 . S
C627 C628 1.524 . S
C627 H630 0.999 . S
C628 H598 0.950 . S
C628 C627 1.524 . S
C628 C629 1.415 . S
C629 H599 0.950 . S
C629 C624 1.363 . S
C629 C628 1.415 . S
H630 C627 0.999 . S
H631 C612 0.913 . S
H632 C650 0.951 . S
H633 C652 0.951 . S
H634 C654 0.950 . S
H635 C655 0.950 . S
H636 C657 0.950 . S
H637 C660 0.950 . S
H638 C661 0.950 . S
H639 C663 0.950 . S
H640 C664 0.950 . S
H641 C665 0.951 . S
H642 C667 0.951 . S
H643 C669 0.950 . S
H644 C670 0.950 . S
H645 C672 0.950 . S
H646 C675 0.950 . S
H647 C676 0.950 . S
H648 C678 0.950 . S
H649 C679 0.950 . S
C650 H632 0.951 . S
C650 C651 1.366 1_455 S
C650 C652 1.388 . S
C651 C650 1.366 1_655 S
C651 C655 1.385 . S
C652 H633 0.951 . S
C652 C650 1.388 . S
C652 C653 1.366 1_455 S
C653 C652 1.366 1_655 S
C653 C654 1.414 . S
C653 C656 1.499 1_655 S
C654 H634 0.950 . S
C654 C653 1.414 . S
C654 C655 1.374 . S
C655 H635 0.950 . S
C655 C651 1.385 . S
C655 C654 1.374 . S
C656 C653 1.499 1_455 S
C656 C657 1.373 1_455 S
C656 C658 1.390 . S
C657 H636 0.950 . S
C657 C656 1.373 1_655 S
C657 C673 1.377 1_655 S
C658 C656 1.390 . S
C658 C659 1.524 . S
C658 C672 1.377 . S
C659 C658 1.524 . S
C659 C660 1.397 1_455 S
C659 C664 1.363 . S
C660 H637 0.950 . S
C660 C659 1.397 1_655 S
C660 C661 1.334 . S
C661 H638 0.950 . S
C661 C660 1.334 . S
C661 C662 1.287 1_655 S
C662 C661 1.287 1_455 S
C662 C663 1.524 . S
C662 H681 0.913 . S
C663 H639 0.950 . S
C663 C662 1.524 . S
C663 C664 1.415 . S
C664 H640 0.950 . S
C664 C659 1.363 . S
C664 C663 1.415 . S
C665 H641 0.951 . S
C665 C666 1.366 1_655 S
C665 C667 1.388 . S
C666 C665 1.366 1_455 S
C666 C670 1.385 . S
C667 H642 0.951 . S
C667 C665 1.388 . S
C667 C668 1.366 1_655 S
C668 C667 1.366 1_455 S
C668 C669 1.414 . S
C668 C671 1.499 . S
C669 H643 0.950 . S
C669 C668 1.414 . S
C669 C670 1.374 . S
C670 H644 0.950 . S
C670 C666 1.385 . S
C670 C669 1.374 . S
C671 C668 1.499 . S
C671 C672 1.373 . S
C671 C673 1.389 . S
C672 H645 0.950 . S
C672 C658 1.377 . S
C672 C671 1.373 . S
C673 C657 1.377 1_455 S
C673 C671 1.389 . S
C673 C674 1.543 1_455 S
C674 C673 1.543 1_655 S
C674 C675 1.352 1_655 S
C674 C679 1.387 . S
C675 H646 0.950 . S
C675 C674 1.352 1_455 S
C675 C676 1.334 . S
C676 H647 0.950 . S
C676 C675 1.334 . S
C676 C677 1.300 . S
C677 C676 1.300 . S
C677 C678 1.499 1_455 S
C677 H680 1.026 1_455 S
C678 H648 0.950 . S
C678 C677 1.499 1_655 S
C678 C679 1.415 . S
C679 H649 0.950 . S
C679 C674 1.387 . S
C679 C678 1.415 . S
H680 C677 1.026 1_655 S
H681 C662 0.913 . S
H682 C700 0.951 . S
H683 C702 0.951 . S
H684 C704 0.950 . S
H685 C705 0.950 . S
H686 C707 0.950 . S
H687 C710 0.950 . S
H688 C711 0.950 . S
H689 C713 0.950 . S
H690 C714 0.950 . S
H691 C715 0.951 . S
H692 C717 0.951 . S
H693 C719 0.950 . S
H694 C720 0.950 . S
H695 C722 0.950 . S
H696 C725 0.950 . S
H697 C726 0.950 . S
H698 C728 0.950 . S
H699 C729 0.950 . S
C700 H682 0.951 . S
C700 C701 1.366 1_545 S
C700 C702 1.388 . S
C701 C700 1.366 1_565 S
C701 C705 1.385 . S
C702 H683 0.951 . S
C702 C700 1.388 . S
C702 C703 1.366 1_545 S
C703 C702 1.366 1_565 S
C703 C704 1.414 . S
C703 C706 1.499 . S
C704 H684 0.950 . S
C704 C703 1.414 . S
C704 C705 1.374 . S
C705 H685 0.950 . S
C705 C701 1.385 . S
C705 C704 1.374 . S
C706 C703 1.499 . S
C706 C707 1.373 . S
C706 C708 1.389 1_565 S
C707 H686 0.950 . S
C707 C706 1.373 . S
C707 C723 1.377 1_554 S
C708 C706 1.389 1_545 S
C708 C709 1.524 . S
C708 C722 1.377 1_554 S
C709 C708 1.524 . S
C709 C710 1.397 . S
C709 C714 1.363 . S
C710 H687 0.950 . S
C710 C709 1.397 . S
C710 C711 1.334 . S
C711 H688 0.950 . S
C711 C710 1.334 . S
C711 C712 1.287 . S
C712 C711 1.287 . S
C712 C713 1.524 . S
C712 H731 0.913 . S
C713 H689 0.950 . S
C713 C712 1.524 . S
C713 C714 1.415 . S
C714 H690 0.950 . S
C714 C709 1.363 . S
C714 C713 1.415 . S
C715 H691 0.951 . S
C715 C716 1.366 1_565 S
C715 C717 1.388 . S
C716 C715 1.366 1_545 S
C716 C720 1.385 . S
C717 H692 0.951 . S
C717 C715 1.388 . S
C717 C718 1.366 1_565 S
C718 C717 1.366 1_545 S
C718 C719 1.414 . S
C718 C721 1.499 . S
C719 H693 0.950 . S
C719 C718 1.414 . S
C719 C720 1.374 . S
C720 H694 0.950 . S
C720 C716 1.385 . S
C720 C719 1.374 . S
C721 C718 1.499 . S
C721 C722 1.373 . S
C721 C723 1.389 1_545 S
C722 H695 0.950 . S
C722 C708 1.377 1_556 S
C722 C721 1.373 . S
C723 C707 1.377 1_556 S
C723 C721 1.389 1_565 S
C723 C724 1.524 . S
C724 C723 1.524 . S
C724 C725 1.397 . S
C724 C729 1.363 . S
C725 H696 0.950 . S
C725 C724 1.397 . S
C725 C726 1.334 . S
C726 H697 0.950 . S
C726 C725 1.334 . S
C726 C727 1.287 . S
C727 C726 1.287 . S
C727 C728 1.524 . S
C727 H730 0.999 . S
C728 H698 0.950 . S
C728 C727 1.524 . S
C728 C729 1.415 . S
C729 H699 0.950 . S
C729 C724 1.363 . S
C729 C728 1.415 . S
H730 C727 0.999 . S
H731 C712 0.913 . S
H732 C750 0.951 . S
H733 C752 0.951 1_554 S
H734 C754 0.950 . S
H735 C755 0.950 . S
H736 C757 0.950 . S
H737 C760 0.950 . S
H738 C761 0.950 . S
H739 C763 0.950 . S
H740 C764 0.950 . S
H741 C765 0.951 . S
H742 C767 0.951 1_556 S
H743 C769 0.950 . S
H744 C770 0.950 . S
H745 C772 0.950 . S
H746 C775 0.950 . S
H747 C776 0.950 . S
H748 C778 0.950 . S
H749 C779 0.950 . S
C750 H732 0.951 . S
C750 C751 1.366 . S
C750 C752 1.388 . S
C751 C750 1.366 . S
C751 C755 1.385 . S
C752 H733 0.951 1_556 S
C752 C750 1.388 . S
C752 C753 1.366 . S
C753 C752 1.366 . S
C753 C754 1.414 . S
C753 C756 1.499 . S
C754 H734 0.950 . S
C754 C753 1.414 . S
C754 C755 1.374 . S
C755 H735 0.950 . S
C755 C751 1.385 . S
C755 C754 1.374 . S
C756 C753 1.499 . S
C756 C757 1.373 . S
C756 C758 1.389 1_556 S
C757 H736 0.950 . S
C757 C756 1.373 . S
C757 C773 1.377 . S
C758 C756 1.389 1_554 S
C758 C759 1.524 . S
C758 C772 1.377 . S
C759 C758 1.524 . S
C759 C760 1.397 . S
C759 C764 1.363 . S
C760 H737 0.950 . S
C760 C759 1.397 . S
C760 C761 1.334 . S
C761 H738 0.950 . S
C761 C760 1.334 . S
C761 C762 1.287 . S
C762 C761 1.287 . S
C762 C763 1.524 . S
C762 H781 0.913 . S
C763 H739 0.950 . S
C763 C762 1.524 . S
C763 C764 1.415 . S
C764 H740 0.950 . S
C764 C759 1.363 . S
C764 C763 1.415 . S
C765 H741 0.951 . S
C765 C766 1.366 . S
C765 C767 1.388 . S
C766 C765 1.366 . S
C766 C770 1.385 . S
C767 H742 0.951 1_554 S
C767 C765 1.388 . S
C767 C768 1.366 . S
C768 C767 1.366 . S
C768 C769 1.414 . S
C768 C771 1.499 . S
C769 H743 0.950 . S
C769 C768 1.414 . S
C769 C770 1.374 . S
C770 H744 0.950 . S
C770 C766 1.385 . S
C770 C769 1.374 . S
C771 C768 1.499 . S
C771 C772 1.373 . S
C771 C773 1.389 1_554 S
C772 H745 0.950 . S
C772 C758 1.377 . S
C772 C771 1.373 . S
C773 C757 1.377 . S
C773 C771 1.389 1_556 S
C773 C774 1.524 . S
C774 C773 1.524 . S
C774 C775 1.397 . S
C774 C779 1.363 . S
C775 H746 0.950 . S
C775 C774 1.397 . S
C775 C776 1.334 . S
C776 H747 0.950 . S
C776 C775 1.334 . S
C776 C777 1.287 . S
C777 C776 1.287 . S
C777 C778 1.524 . S
C777 H780 0.999 . S
C778 H748 0.950 . S
C778 C777 1.524 . S
C778 C779 1.415 . S
C779 H749 0.950 . S
C779 C774 1.363 . S
C779 C778 1.415 . S
H780 C777 0.999 . S
H781 C762 0.913 . S
H782 C800 0.951 . S
H783 C802 0.951 . S
H784 C804 0.950 . S
H785 C805 0.950 . S
H786 C807 0.950 . S
H787 C810 0.950 . S
H788 C811 0.950 . S
H789 C813 0.950 . S
H790 C814 0.950 . S
H791 C815 0.951 . S
H792 C817 0.951 . S
H793 C819 0.950 . S
H794 C820 0.950 . S
H795 C822 0.950 . S
H796 C825 0.950 . S
H797 C826 0.950 . S
H798 C828 0.950 . S
H799 C829 0.950 . S
C800 H782 0.951 . S
C800 C801 1.366 . S
C800 C802 1.388 . S
C801 C800 1.366 . S
C801 C805 1.385 . S
C802 H783 0.951 . S
C802 C800 1.388 . S
C802 C803 1.366 . S
C803 C802 1.366 . S
C803 C804 1.414 . S
C803 C806 1.499 . S
C804 H784 0.950 . S
C804 C803 1.414 . S
C804 C805 1.374 . S
C805 H785 0.950 . S
C805 C801 1.385 . S
C805 C804 1.374 . S
C806 C803 1.499 . S
C806 C807 1.373 . S
C806 C808 1.389 . S
C807 H786 0.950 . S
C807 C806 1.373 . S
C807 C823 1.377 . S
C808 C806 1.389 . S
C808 C809 1.524 . S
C808 C822 1.377 . S
C809 C808 1.524 . S
C809 C810 1.397 . S
C809 C814 1.363 . S
C810 H787 0.950 . S
C810 C809 1.397 . S
C810 C811 1.334 . S
C811 H788 0.950 . S
C811 C810 1.334 . S
C811 C812 1.287 . S
C812 C811 1.287 . S
C812 C813 1.524 . S
C812 H831 0.913 . S
C813 H789 0.950 . S
C813 C812 1.524 . S
C813 C814 1.415 . S
C814 H790 0.950 . S
C814 C809 1.363 . S
C814 C813 1.415 . S
C815 H791 0.951 . S
C815 C816 1.366 . S
C815 C817 1.388 . S
C816 C815 1.366 . S
C816 C820 1.385 . S
C817 H792 0.951 . S
C817 C815 1.388 . S
C817 C818 1.366 . S
C818 C817 1.366 . S
C818 C819 1.414 . S
C818 C821 1.499 . S
C819 H793 0.950 . S
C819 C818 1.414 . S
C819 C820 1.374 . S
C820 H794 0.950 . S
C820 C816 1.385 . S
C820 C819 1.374 . S
C821 C818 1.499 . S
C821 C822 1.373 . S
C821 C823 1.389 . S
C822 H795 0.950 . S
C822 C808 1.377 . S
C822 C821 1.373 . S
C823 C807 1.377 . S
C823 C821 1.389 . S
C823 C824 1.524 . S
C824 C823 1.524 . S
C824 C825 1.397 . S
C824 C829 1.363 . S
C825 H796 0.950 . S
C825 C824 1.397 . S
C825 C826 1.334 . S
C826 H797 0.950 . S
C826 C825 1.334 . S
C826 C827 1.287 . S
C827 C826 1.287 . S
C827 C828 1.524 . S
C827 H830 0.999 . S
C828 H798 0.950 . S
C828 C827 1.524 . S
C828 C829 1.415 . S
C829 H799 0.950 . S
C829 C824 1.363 . S
C829 C828 1.415 . S
H830 C827 0.999 . S
H831 C812 0.913 . S
H832 C850 0.951 . S
H833 C852 0.951 . S
H834 C854 0.950 . S
H835 C855 0.950 . S
H836 C857 0.950 . S
H837 C860 0.950 . S
H838 C861 0.950 . S
H839 C863 0.950 . S
H840 C864 0.950 . S
H841 C865 0.951 . S
H842 C867 0.951 . S
H843 C869 0.950 . S
H844 C870 0.950 . S
H845 C872 0.950 . S
H846 C875 0.950 . S
H847 C876 0.950 . S
H848 C878 0.950 . S
H849 C879 0.950 . S
C850 H832 0.951 . S
C850 C851 1.366 . S
C850 C852 1.388 . S
C851 C850 1.366 . S
C851 C855 1.385 . S
C852 H833 0.951 . S
C852 C850 1.388 . S
C852 C853 1.366 . S
C853 C852 1.366 . S
C853 C854 1.414 . S
C853 C856 1.499 . S
C854 H834 0.950 . S
C854 C853 1.414 . S
C854 C855 1.374 . S
C855 H835 0.950 . S
C855 C851 1.385 . S
C855 C854 1.374 . S
C856 C853 1.499 . S
C856 C857 1.373 . S
C856 C858 1.389 . S
C857 H836 0.950 . S
C857 C856 1.373 . S
C857 C873 1.377 . S
C858 C856 1.389 . S
C858 C859 1.524 . S
C858 C872 1.377 . S
C859 C858 1.524 . S
C859 C860 1.397 . S
C859 C864 1.363 . S
C860 H837 0.950 . S
C860 C859 1.397 . S
C860 C861 1.334 . S
C861 H838 0.950 . S
C861 C860 1.334 . S
C861 C862 1.287 . S
C862 C861 1.287 . S
C862 C863 1.524 . S
C862 H881 0.913 . S
C863 H839 0.950 . S
C863 C862 1.524 . S
C863 C864 1.415 . S
C864 H840 0.950 . S
C864 C859 1.363 . S
C864 C863 1.415 . S
C865 H841 0.951 . S
C865 C866 1.366 . S
C865 C867 1.388 . S
C866 C865 1.366 . S
C866 C870 1.385 . S
C867 H842 0.951 . S
C867 C865 1.388 . S
C867 C868 1.366 . S
C868 C867 1.366 . S
C868 C869 1.414 . S
C868 C871 1.499 . S
C869 H843 0.950 . S
C869 C868 1.414 . S
C869 C870 1.374 . S
C870 H844 0.950 . S
C870 C866 1.385 . S
C870 C869 1.374 . S
C871 C868 1.499 . S
C871 C872 1.373 . S
C871 C873 1.389 . S
C872 H845 0.950 . S
C872 C858 1.377 . S
C872 C871 1.373 . S
C873 C857 1.377 . S
C873 C871 1.389 . S
C873 C874 1.524 . S
C874 C873 1.524 . S
C874 C875 1.397 . S
C874 C879 1.363 . S
C875 H846 0.950 . S
C875 C874 1.397 . S
C875 C876 1.334 . S
C876 H847 0.950 . S
C876 C875 1.334 . S
C876 C877 1.287 . S
C877 C876 1.287 . S
C877 C878 1.524 . S
C877 H880 0.999 . S
C878 H848 0.950 . S
C878 C877 1.524 . S
C878 C879 1.415 . S
C879 H849 0.950 . S
C879 C874 1.363 . S
C879 C878 1.415 . S
H880 C877 0.999 . S
H881 C862 0.913 . S
H882 C900 0.951 1_556 S
H883 C902 0.951 1_556 S
H884 C904 0.950 . S
H885 C905 0.950 . S
H886 C907 0.950 . S
H887 C910 0.950 . S
H888 C911 0.950 . S
H889 C913 0.950 . S
H890 C914 0.950 . S
H891 C915 0.951 1_554 S
H892 C917 0.951 1_554 S
H893 C919 0.950 . S
H894 C920 0.950 . S
H895 C922 0.950 . S
H896 C925 0.950 . S
H897 C926 0.950 . S
H898 C928 0.950 . S
H899 C929 0.950 . S
C900 H882 0.951 1_554 S
C900 C901 1.366 . S
C900 C902 1.388 . S
C901 C900 1.366 . S
C901 C905 1.385 . S
C902 H883 0.951 1_554 S
C902 C900 1.388 . S
C902 C903 1.366 . S
C903 C902 1.366 . S
C903 C904 1.414 . S
C903 C906 1.499 . S
C904 H884 0.950 . S
C904 C903 1.414 . S
C904 C905 1.374 . S
C905 H885 0.950 . S
C905 C901 1.385 . S
C905 C904 1.374 . S
C906 C903 1.499 . S
C906 C907 1.373 . S
C906 C908 1.389 1_554 S
C907 H886 0.950 . S
C907 C906 1.373 . S
C907 C923 1.377 . S
C908 C906 1.389 1_556 S
C908 C909 1.524 . S
C908 C922 1.377 . S
C909 C908 1.524 . S
C909 C910 1.397 1_556 S
C909 C914 1.363 . S
C910 H887 0.950 . S
C910 C909 1.397 1_554 S
C910 C911 1.334 . S
C911 H888 0.950 . S
C911 C910 1.334 . S
C911 C912 1.287 1_554 S
C912 C911 1.287 1_556 S
C912 C913 1.524 . S
C912 H931 0.914 . S
C913 H889 0.950 . S
C913 C912 1.524 . S
C913 C914 1.415 . S
C914 H890 0.950 . S
C914 C909 1.363 . S
C914 C913 1.415 . S
C915 H891 0.951 1_556 S
C915 C916 1.366 . S
C915 C917 1.388 . S
C916 C915 1.366 . S
C916 C920 1.385 . S
C917 H892 0.951 1_556 S
C917 C915 1.388 . S
C917 C918 1.366 . S
C918 C917 1.366 . S
C918 C919 1.414 . S
C918 C921 1.499 . S
C919 H893 0.950 . S
C919 C918 1.414 . S
C919 C920 1.374 . S
C920 H894 0.950 . S
C920 C916 1.385 . S
C920 C919 1.374 . S
C921 C918 1.499 . S
C921 C922 1.373 . S
C921 C923 1.389 1_556 S
C922 H895 0.950 . S
C922 C908 1.377 . S
C922 C921 1.373 . S
C923 C907 1.377 . S
C923 C921 1.389 1_554 S
C923 C924 1.524 . S
C924 C923 1.524 . S
C924 C925 1.397 1_554 S
C924 C929 1.363 . S
C925 H896 0.950 . S
C925 C924 1.397 1_556 S
C925 C926 1.334 . S
C926 H897 0.950 . S
C926 C925 1.334 . S
C926 C927 1.287 1_556 S
C927 C926 1.287 1_554 S
C927 C928 1.524 . S
C927 H930 0.999 . S
C928 H898 0.950 . S
C928 C927 1.524 . S
C928 C929 1.415 . S
C929 H899 0.950 . S
C929 C924 1.363 . S
C929 C928 1.415 . S
H930 C927 0.999 . S
H931 C912 0.914 . S
H932 C950 0.951 . S
H933 C952 0.951 . S
H934 C954 0.950 . S
H935 C955 0.950 . S
H936 C957 0.950 . S
H937 C960 0.950 . S
H938 C961 0.950 . S
H939 C963 0.950 . S
H940 C964 0.950 . S
H941 C965 0.951 . S
H942 C967 0.951 . S
H943 C969 0.950 . S
H944 C970 0.950 . S
H945 C972 0.950 . S
H946 C975 0.950 . S
H947 C976 0.950 . S
H948 C978 0.950 . S
H949 C979 0.950 . S
C950 H932 0.951 . S
C950 C951 1.366 . S
C950 C952 1.388 . S
C951 C950 1.366 . S
C951 C955 1.385 . S
C952 H933 0.951 . S
C952 C950 1.388 . S
C952 C953 1.366 . S
C953 C952 1.366 . S
C953 C954 1.414 . S
C953 C956 1.499 . S
C954 H934 0.950 . S
C954 C953 1.414 . S
C954 C955 1.374 . S
C955 H935 0.950 . S
C955 C951 1.385 . S
C955 C954 1.374 . S
C956 C953 1.499 . S
C956 C957 1.373 . S
C956 C958 1.389 . S
C957 H936 0.950 . S
C957 C956 1.373 . S
C957 C973 1.377 . S
C958 C956 1.389 . S
C958 C959 1.524 . S
C958 C972 1.377 . S
C959 C958 1.524 . S
C959 C960 1.397 . S
C959 C964 1.363 . S
C960 H937 0.950 . S
C960 C959 1.397 . S
C960 C961 1.334 . S
C961 H938 0.950 . S
C961 C960 1.334 . S
C961 C962 1.287 . S
C962 C961 1.287 . S
C962 C963 1.524 . S
C962 H981 0.913 . S
C963 H939 0.950 . S
C963 C962 1.524 . S
C963 C964 1.415 . S
C964 H940 0.950 . S
C964 C959 1.363 . S
C964 C963 1.415 . S
C965 H941 0.951 . S
C965 C966 1.366 . S
C965 C967 1.388 . S
C966 C965 1.366 . S
C966 C970 1.385 . S
C967 H942 0.951 . S
C967 C965 1.388 . S
C967 C968 1.366 . S
C968 C967 1.366 . S
C968 C969 1.414 . S
C968 C971 1.499 . S
C969 H943 0.950 . S
C969 C968 1.414 . S
C969 C970 1.374 . S
C970 H944 0.950 . S
C970 C966 1.385 . S
C970 C969 1.374 . S
C971 C968 1.499 . S
C971 C972 1.373 . S
C971 C973 1.389 . S
C972 H945 0.950 . S
C972 C958 1.377 . S
C972 C971 1.373 . S
C973 C957 1.377 . S
C973 C971 1.389 . S
C973 C974 1.524 . S
C974 C973 1.524 . S
C974 C975 1.397 . S
C974 C979 1.363 . S
C975 H946 0.950 . S
C975 C974 1.397 . S
C975 C976 1.334 . S
C976 H947 0.950 . S
C976 C975 1.334 . S
C976 C977 1.287 . S
C977 C976 1.287 . S
C977 C978 1.524 . S
C977 H980 0.999 . S
C978 H948 0.950 . S
C978 C977 1.524 . S
C978 C979 1.415 . S
C979 H949 0.950 . S
C979 C974 1.363 . S
C979 C978 1.415 . S
H980 C977 0.999 . S
H981 C962 0.913 . S
H982 C1000 0.951 . S
H983 C1002 0.951 . S
H984 C1004 0.950 . S
H985 C1005 0.950 . S
H986 C1007 0.950 . S
H987 C1010 0.950 . S
H988 C1011 0.950 . S
H989 C1013 0.950 . S
H990 C1014 0.950 . S
H991 C1015 0.951 . S
H992 C1017 0.951 . S
H993 C1019 0.950 . S
H994 C1020 0.950 . S
H995 C1022 0.950 . S
H996 C1025 0.950 . S
H997 C1026 0.950 . S
H998 C1028 0.950 . S
H999 C1029 0.950 . S
C1000 H982 0.951 . S
C1000 C1001 1.366 . S
C1000 C1002 1.388 . S
C1001 C1000 1.366 . S
C1001 C1005 1.385 . S
C1002 H983 0.951 . S
C1002 C1000 1.388 . S
C1002 C1003 1.366 . S
C1003 C1002 1.366 . S
C1003 C1004 1.414 . S
C1003 C1006 1.499 . S
C1004 H984 0.950 . S
C1004 C1003 1.414 . S
C1004 C1005 1.374 . S
C1005 H985 0.950 . S
C1005 C1001 1.385 . S
C1005 C1004 1.374 . S
C1006 C1003 1.499 . S
C1006 C1007 1.373 . S
C1006 C1008 1.389 . S
C1007 H986 0.950 . S
C1007 C1006 1.373 . S
C1007 C1023 1.377 . S
C1008 C1006 1.389 . S
C1008 C1009 1.524 . S
C1008 C1022 1.377 . S
C1009 C1008 1.524 . S
C1009 C1010 1.397 . S
C1009 C1014 1.363 . S
C1010 H987 0.950 . S
C1010 C1009 1.397 . S
C1010 C1011 1.334 . S
C1011 H988 0.950 . S
C1011 C1010 1.334 . S
C1011 C1012 1.287 . S
C1012 C1011 1.287 . S
C1012 C1013 1.524 . S
C1012 H1031 0.913 . S
C1013 H989 0.950 . S
C1013 C1012 1.524 . S
C1013 C1014 1.415 . S
C1014 H990 0.950 . S
C1014 C1009 1.363 . S
C1014 C1013 1.415 . S
C1015 H991 0.951 . S
C1015 C1016 1.366 . S
C1015 C1017 1.388 . S
C1016 C1015 1.366 . S
C1016 C1020 1.385 . S
C1017 H992 0.951 . S
C1017 C1015 1.388 . S
C1017 C1018 1.366 . S
C1018 C1017 1.366 . S
C1018 C1019 1.414 . S
C1018 C1021 1.499 . S
C1019 H993 0.950 . S
C1019 C1018 1.414 . S
C1019 C1020 1.374 . S
C1020 H994 0.950 . S
C1020 C1016 1.385 . S
C1020 C1019 1.374 . S
C1021 C1018 1.499 . S
C1021 C1022 1.373 . S
C1021 C1023 1.389 . S
C1022 H995 0.950 . S
C1022 C1008 1.377 . S
C1022 C1021 1.373 . S
C1023 C1007 1.377 . S
C1023 C1021 1.389 . S
C1023 C1024 1.524 . S
C1024 C1023 1.524 . S
C1024 C1025 1.397 . S
C1024 C1029 1.363 . S
C1025 H996 0.950 . S
C1025 C1024 1.397 . S
C1025 C1026 1.334 . S
C1026 H997 0.950 . S
C1026 C1025 1.334 . S
C1026 C1027 1.287 . S
C1027 C1026 1.287 . S
C1027 C1028 1.524 . S
C1027 H1030 0.999 . S
C1028 H998 0.950 . S
C1028 C1027 1.524 . S
C1028 C1029 1.415 . S
C1029 H999 0.950 . S
C1029 C1024 1.363 . S
C1029 C1028 1.415 . S
H1030 C1027 0.999 . S
H1031 C1012 0.913 . S
H1032 C1050 0.951 . S
H1033 C1052 0.951 . S
H1034 C1054 0.950 . S
H1035 C1055 0.950 . S
H1036 C1057 0.950 . S
H1037 C1060 0.950 . S
H1038 C1061 0.950 . S
H1039 C1063 0.950 . S
H1040 C1064 0.950 . S
H1041 C1065 0.951 . S
H1042 C1067 0.951 . S
H1043 C1069 0.950 . S
H1044 C1070 0.950 . S
H1045 C1072 0.950 . S
H1046 C1075 0.950 . S
H1047 C1076 0.950 . S
H1048 C1078 0.950 . S
H1049 C1079 0.950 . S
C1050 H1032 0.951 . S
C1050 C1051 1.366 . S
C1050 C1052 1.388 . S
C1051 C1050 1.366 . S
C1051 C1055 1.385 . S
C1052 H1033 0.951 . S
C1052 C1050 1.388 . S
C1052 C1053 1.366 . S
C1053 C1052 1.366 . S
C1053 C1054 1.414 . S
C1053 C1056 1.499 . S
C1054 H1034 0.950 . S
C1054 C1053 1.414 . S
C1054 C1055 1.374 . S
C1055 H1035 0.950 . S
C1055 C1051 1.385 . S
C1055 C1054 1.374 . S
C1056 C1053 1.499 . S
C1056 C1057 1.373 . S
C1056 C1058 1.389 . S
C1057 H1036 0.950 . S
C1057 C1056 1.373 . S
C1057 C1073 1.377 . S
C1058 C1056 1.389 . S
C1058 C1059 1.524 . S
C1058 C1072 1.377 . S
C1059 C1058 1.524 . S
C1059 C1060 1.397 . S
C1059 C1064 1.363 . S
C1060 H1037 0.950 . S
C1060 C1059 1.397 . S
C1060 C1061 1.334 . S
C1061 H1038 0.950 . S
C1061 C1060 1.334 . S
C1061 C1062 1.287 . S
C1062 C1061 1.287 . S
C1062 C1063 1.524 . S
C1062 H1081 0.913 . S
C1063 H1039 0.950 . S
C1063 C1062 1.524 . S
C1063 C1064 1.415 . S
C1064 H1040 0.950 . S
C1064 C1059 1.363 . S
C1064 C1063 1.415 . S
C1065 H1041 0.951 . S
C1065 C1066 1.366 . S
C1065 C1067 1.388 . S
C1066 C1065 1.366 . S
C1066 C1070 1.385 . S
C1067 H1042 0.951 . S
C1067 C1065 1.388 . S
C1067 C1068 1.366 . S
C1068 C1067 1.366 . S
C1068 C1069 1.414 . S
C1068 C1071 1.499 . S
C1069 H1043 0.950 . S
C1069 C1068 1.414 . S
C1069 C1070 1.374 . S
C1070 H1044 0.950 . S
C1070 C1066 1.385 . S
C1070 C1069 1.374 . S
C1071 C1068 1.499 . S
C1071 C1072 1.373 . S
C1071 C1073 1.389 . S
C1072 H1045 0.950 . S
C1072 C1058 1.377 . S
C1072 C1071 1.373 . S
C1073 C1057 1.377 . S
C1073 C1071 1.389 . S
C1073 C1074 1.524 . S
C1074 C1073 1.524 . S
C1074 C1075 1.397 . S
C1074 C1079 1.363 . S
C1075 H1046 0.950 . S
C1075 C1074 1.397 . S
C1075 C1076 1.334 . S
C1076 H1047 0.950 . S
C1076 C1075 1.334 . S
C1076 C1077 1.287 . S
C1077 C1076 1.287 . S
C1077 C1078 1.524 . S
C1077 H1080 0.999 . S
C1078 H1048 0.950 . S
C1078 C1077 1.524 . S
C1078 C1079 1.415 . S
C1079 H1049 0.950 . S
C1079 C1074 1.363 . S
C1079 C1078 1.415 . S
H1080 C1077 0.999 . S
H1081 C1062 0.913 . S
H1082 C1100 0.951 . S
H1083 C1102 0.951 . S
H1084 C1104 0.950 . S
H1085 C1105 0.950 1_455 S
H1086 C1107 0.950 . S
H1087 C1110 0.950 . S
H1088 C1111 0.950 . S
H1089 C1113 0.950 . S
H1090 C1114 0.930 1_655 S
H1091 C1115 0.951 . S
H1092 C1117 0.951 . S
H1093 C1119 0.950 . S
H1094 C1120 0.950 . S
H1095 C1122 0.959 . S
H1096 C1125 0.950 . S
H1097 C1126 0.950 . S
H1098 C1128 0.950 . S
H1099 C1129 0.950 . S
C1100 H1082 0.951 . S
C1100 C1101 1.366 . S
C1100 C1102 1.388 . S
C1101 C1100 1.366 . S
C1101 C1105 1.385 . S
C1102 H1083 0.951 . S
C1102 C1100 1.388 . S
C1102 C1103 1.366 . S
C1103 C1102 1.366 . S
C1103 C1104 1.414 1_655 S
C1103 C1106 1.499 . S
C1104 H1084 0.950 . S
C1104 C1103 1.414 1_455 S
C1104 C1105 1.374 1_455 S
C1105 H1085 0.950 1_655 S
C1105 C1101 1.385 . S
C1105 C1104 1.374 1_655 S
C1106 C1103 1.499 . S
C1106 C1107 1.373 . S
C1106 C1108 1.386 . S
C1107 H1086 0.950 . S
C1107 C1106 1.373 . S
C1107 C1123 1.377 . S
C1108 C1106 1.386 . S
C1108 C1109 1.528 1_655 S
C1108 C1122 1.376 1_655 S
C1109 C1108 1.528 1_455 S
C1109 C1110 1.397 . S
C1109 C1114 1.359 . S
C1110 H1087 0.950 . S
C1110 C1109 1.397 . S
C1110 C1111 1.334 . S
C1111 H1088 0.950 . S
C1111 C1110 1.334 . S
C1111 C1112 1.287 . S
C1112 C1111 1.287 . S
C1112 C1113 1.524 . S
C1112 H1131 0.913 . S
C1113 H1089 0.950 . S
C1113 C1112 1.524 . S
C1113 C1114 1.440 . S
C1114 H1090 0.930 1_455 S
C1114 C1109 1.359 . S
C1114 C1113 1.440 . S
C1115 H1091 0.951 . S
C1115 C1116 1.366 . S
C1115 C1117 1.388 . S
C1116 C1115 1.366 . S
C1116 C1120 1.385 1_455 S
C1117 H1092 0.951 . S
C1117 C1115 1.388 . S
C1117 C1118 1.366 1_455 S
C1118 C1117 1.366 1_655 S
C1118 C1119 1.414 . S
C1118 C1121 1.499 . S
C1119 H1093 0.950 . S
C1119 C1118 1.414 . S
C1119 C1120 1.374 . S
C1120 H1094 0.950 . S
C1120 C1116 1.385 1_655 S
C1120 C1119 1.374 . S
C1121 C1118 1.499 . S
C1121 C1122 1.365 1_655 S
C1121 C1123 1.389 . S
C1122 H1095 0.959 . S
C1122 C1108 1.376 1_455 S
C1122 C1121 1.365 1_455 S
C1123 C1107 1.377 . S
C1123 C1121 1.389 . S
C1123 C1124 1.524 . S
C1124 C1123 1.524 . S
C1124 C1125 1.397 . S
C1124 C1129 1.363 . S
C1125 H1096 0.950 . S
C1125 C1124 1.397 . S
C1125 C1126 1.334 . S
C1126 H1097 0.950 . S
C1126 C1125 1.334 . S
C1126 C1127 1.287 . S
C1127 C1126 1.287 . S
C1127 C1128 1.524 . S
C1127 H1130 0.999 . S
C1128 H1098 0.950 . S
C1128 C1127 1.524 . S
C1128 C1129 1.415 . S
C1129 H1099 0.950 . S
C1129 C1124 1.363 . S
C1129 C1128 1.415 . S
H1130 C1127 0.999 . S
H1131 C1112 0.913 . S
H1132 C1150 0.951 . S
H1133 C1152 0.951 . S
H1134 C1154 0.950 . S
H1135 C1155 0.950 . S
H1136 C1157 0.950 . S
H1137 C1160 0.950 . S
H1138 C1161 0.950 . S
H1139 C1163 0.950 . S
H1140 C1164 0.950 1_565 S
H1141 C1165 0.951 . S
H1142 C1167 0.951 . S
H1143 C1169 0.950 . S
H1144 C1170 0.950 . S
H1145 C1172 0.950 . S
H1146 C1175 0.950 . S
H1147 C1176 0.950 . S
H1148 C1178 0.950 . S
H1149 C1179 0.950 1_545 S
C1150 H1132 0.951 . S
C1150 C1151 1.366 . S
C1150 C1152 1.388 . S
C1151 C1150 1.366 . S
C1151 C1155 1.385 1_565 S
C1152 H1133 0.951 . S
C1152 C1150 1.388 . S
C1152 C1153 1.366 . S
C1153 C1152 1.366 . S
C1153 C1154 1.414 1_565 S
C1153 C1156 1.505 . S
C1154 H1134 0.950 . S
C1154 C1153 1.414 1_545 S
C1154 C1155 1.374 . S
C1155 H1135 0.950 . S
C1155 C1151 1.385 1_545 S
C1155 C1154 1.374 . S
C1156 C1153 1.505 . S
C1156 C1157 1.368 . S
C1156 C1158 1.394 1_565 S
C1157 H1136 0.950 . S
C1157 C1156 1.368 . S
C1157 C1173 1.377 . S
C1158 C1156 1.394 1_545 S
C1158 C1159 1.524 . S
C1158 C1172 1.377 . S
C1159 C1158 1.524 . S
C1159 C1160 1.397 . S
C1159 C1164 1.363 . S
C1160 H1137 0.950 . S
C1160 C1159 1.397 . S
C1160 C1161 1.334 . S
C1161 H1138 0.950 . S
C1161 C1160 1.334 . S
C1161 C1162 1.287 . S
C1162 C1161 1.287 . S
C1162 C1163 1.524 . S
C1162 H1181 0.913 . S
C1163 H1139 0.950 . S
C1163 C1162 1.524 . S
C1163 C1164 1.415 . S
C1164 H1140 0.950 1_545 S
C1164 C1159 1.363 . S
C1164 C1163 1.415 . S
C1165 H1141 0.951 . S
C1165 C1166 1.366 . S
C1165 C1167 1.388 . S
C1166 C1165 1.366 . S
C1166 C1170 1.385 1_545 S
C1167 H1142 0.951 . S
C1167 C1165 1.388 . S
C1167 C1168 1.366 . S
C1168 C1167 1.366 . S
C1168 C1169 1.414 1_545 S
C1168 C1171 1.505 . S
C1169 H1143 0.950 . S
C1169 C1168 1.414 1_565 S
C1169 C1170 1.374 . S
C1170 H1144 0.950 . S
C1170 C1166 1.385 1_565 S
C1170 C1169 1.374 . S
C1171 C1168 1.505 . S
C1171 C1172 1.368 . S
C1171 C1173 1.394 1_545 S
C1172 H1145 0.950 . S
C1172 C1158 1.377 . S
C1172 C1171 1.368 . S
C1173 C1157 1.377 . S
C1173 C1171 1.394 1_565 S
C1173 C1174 1.524 . S
C1174 C1173 1.524 . S
C1174 C1175 1.397 . S
C1174 C1179 1.363 . S
C1175 H1146 0.950 . S
C1175 C1174 1.397 . S
C1175 C1176 1.334 . S
C1176 H1147 0.950 . S
C1176 C1175 1.334 . S
C1176 C1177 1.287 . S
C1177 C1176 1.287 . S
C1177 C1178 1.524 . S
C1177 H1180 0.999 . S
C1178 H1148 0.950 . S
C1178 C1177 1.524 . S
C1178 C1179 1.415 . S
C1179 H1149 0.950 1_565 S
C1179 C1174 1.363 . S
C1179 C1178 1.415 . S
H1180 C1177 0.999 . S
H1181 C1162 0.913 . S
H1182 C1200 0.951 . S
H1183 C1202 0.951 . S
H1184 C1204 0.950 . S
H1185 C1205 0.950 . S
H1186 C1207 0.950 . S
H1187 C1210 0.950 . S
H1188 C1211 0.950 . S
H1189 C1213 0.950 . S
H1190 C1214 0.950 . S
H1191 C1215 0.951 . S
H1192 C1217 0.951 . S
H1193 C1219 0.950 . S
H1194 C1220 0.950 . S
H1195 C1222 0.950 . S
H1196 C1225 0.950 . S
H1197 C1226 0.950 . S
H1198 C1228 0.950 . S
H1199 C1229 0.950 . S
C1200 H1182 0.951 . S
C1200 C1201 1.366 . S
C1200 C1202 1.388 . S
C1201 C1200 1.366 . S
C1201 C1205 1.385 . S
C1202 H1183 0.951 . S
C1202 C1200 1.388 . S
C1202 C1203 1.366 . S
C1203 C1202 1.366 . S
C1203 C1204 1.414 . S
C1203 C1206 1.499 . S
C1204 H1184 0.950 . S
C1204 C1203 1.414 . S
C1204 C1205 1.374 . S
C1205 H1185 0.950 . S
C1205 C1201 1.385 . S
C1205 C1204 1.374 . S
C1206 C1203 1.499 . S
C1206 C1207 1.373 . S
C1206 C1208 1.389 . S
C1207 H1186 0.950 . S
C1207 C1206 1.373 . S
C1207 C1223 1.377 . S
C1208 C1206 1.389 . S
C1208 C1209 1.524 . S
C1208 C1222 1.377 . S
C1209 C1208 1.524 . S
C1209 C1210 1.397 . S
C1209 C1214 1.363 . S
C1210 H1187 0.950 . S
C1210 C1209 1.397 . S
C1210 C1211 1.334 . S
C1211 H1188 0.950 . S
C1211 C1210 1.334 . S
C1211 C1212 1.287 . S
C1212 C1211 1.287 . S
C1212 C1213 1.524 . S
C1212 H1231 0.913 . S
C1213 H1189 0.950 . S
C1213 C1212 1.524 . S
C1213 C1214 1.415 . S
C1214 H1190 0.950 . S
C1214 C1209 1.363 . S
C1214 C1213 1.415 . S
C1215 H1191 0.951 . S
C1215 C1216 1.366 . S
C1215 C1217 1.388 . S
C1216 C1215 1.366 . S
C1216 C1220 1.385 . S
C1217 H1192 0.951 . S
C1217 C1215 1.388 . S
C1217 C1218 1.366 . S
C1218 C1217 1.366 . S
C1218 C1219 1.414 . S
C1218 C1221 1.499 . S
C1219 H1193 0.950 . S
C1219 C1218 1.414 . S
C1219 C1220 1.374 . S
C1220 H1194 0.950 . S
C1220 C1216 1.385 . S
C1220 C1219 1.374 . S
C1221 C1218 1.499 . S
C1221 C1222 1.373 . S
C1221 C1223 1.389 . S
C1222 H1195 0.950 . S
C1222 C1208 1.377 . S
C1222 C1221 1.373 . S
C1223 C1207 1.377 . S
C1223 C1221 1.389 . S
C1223 C1224 1.524 . S
C1224 C1223 1.524 . S
C1224 C1225 1.397 . S
C1224 C1229 1.363 . S
C1225 H1196 0.950 . S
C1225 C1224 1.397 . S
C1225 C1226 1.334 . S
C1226 H1197 0.950 . S
C1226 C1225 1.334 . S
C1226 C1227 1.287 . S
C1227 C1226 1.287 . S
C1227 C1228 1.524 . S
C1227 H1230 0.999 . S
C1228 H1198 0.950 . S
C1228 C1227 1.524 . S
C1228 C1229 1.415 . S
C1229 H1199 0.950 . S
C1229 C1224 1.363 . S
C1229 C1228 1.415 . S
H1230 C1227 0.999 . S
H1231 C1212 0.913 . S
H1232 C1250 0.951 . S
H1233 C1252 0.951 . S
H1234 C1254 0.950 . S
H1235 C1255 0.950 . S
H1236 C1257 0.950 . S
H1237 C1260 0.950 . S
H1238 C1261 0.950 . S
H1239 C1263 0.950 . S
H1240 C1264 0.950 . S
H1241 C1265 0.951 . S
H1242 C1267 0.951 . S
H1243 C1269 0.950 . S
H1244 C1270 0.950 . S
H1245 C1272 0.950 . S
H1246 C1275 0.950 . S
H1247 C1276 0.950 . S
H1248 C1278 0.950 . S
H1249 C1279 0.950 . S
C1250 H1232 0.951 . S
C1250 C1251 1.366 . S
C1250 C1252 1.388 . S
C1251 C1250 1.366 . S
C1251 C1255 1.385 1_455 S
C1252 H1233 0.951 . S
C1252 C1250 1.388 . S
C1252 C1253 1.366 . S
C1253 C1252 1.366 . S
C1253 C1254 1.414 1_455 S
C1253 C1256 1.499 . S
C1254 H1234 0.950 . S
C1254 C1253 1.414 1_655 S
C1254 C1255 1.374 . S
C1255 H1235 0.950 . S
C1255 C1251 1.385 1_655 S
C1255 C1254 1.374 . S
C1256 C1253 1.499 . S
C1256 C1257 1.373 1_455 S
C1256 C1258 1.389 . S
C1257 H1236 0.950 . S
C1257 C1256 1.373 1_655 S
C1257 C1273 1.377 . S
C1258 C1256 1.389 . S
C1258 C1259 1.524 . S
C1258 C1272 1.377 . S
C1259 C1258 1.524 . S
C1259 C1260 1.397 . S
C1259 C1264 1.363 . S
C1260 H1237 0.950 . S
C1260 C1259 1.397 . S
C1260 C1261 1.334 . S
C1261 H1238 0.950 . S
C1261 C1260 1.334 . S
C1261 C1262 1.287 . S
C1262 C1261 1.287 . S
C1262 C1263 1.524 . S
C1262 H1281 0.913 . S
C1263 H1239 0.950 . S
C1263 C1262 1.524 . S
C1263 C1264 1.415 . S
C1264 H1240 0.950 . S
C1264 C1259 1.363 . S
C1264 C1263 1.415 . S
C1265 H1241 0.951 . S
C1265 C1266 1.366 . S
C1265 C1267 1.388 . S
C1266 C1265 1.366 . S
C1266 C1270 1.385 1_655 S
C1267 H1242 0.951 . S
C1267 C1265 1.388 . S
C1267 C1268 1.366 1_655 S
C1268 C1267 1.366 1_455 S
C1268 C1269 1.414 . S
C1268 C1271 1.499 . S
C1269 H1243 0.950 . S
C1269 C1268 1.414 . S
C1269 C1270 1.374 . S
C1270 H1244 0.950 . S
C1270 C1266 1.385 1_455 S
C1270 C1269 1.374 . S
C1271 C1268 1.499 . S
C1271 C1272 1.373 . S
C1271 C1273 1.389 1_455 S
C1272 H1245 0.950 . S
C1272 C1258 1.377 . S
C1272 C1271 1.373 . S
C1273 C1257 1.377 . S
C1273 C1271 1.389 1_655 S
C1273 C1274 1.524 . S
C1274 C1273 1.524 . S
C1274 C1275 1.397 . S
C1274 C1279 1.363 . S
C1275 H1246 0.950 . S
C1275 C1274 1.397 . S
C1275 C1276 1.334 . S
C1276 H1247 0.950 . S
C1276 C1275 1.334 . S
C1276 C1277 1.287 . S
C1277 C1276 1.287 . S
C1277 C1278 1.524 . S
C1277 H1280 0.999 . S
C1278 H1248 0.950 . S
C1278 C1277 1.524 . S
C1278 C1279 1.415 . S
C1279 H1249 0.950 . S
C1279 C1274 1.363 . S
C1279 C1278 1.415 . S
H1280 C1277 0.999 . S
H1281 C1262 0.913 . S
H1282 C1300 0.951 . S
H1283 C1302 0.951 . S
H1284 C1304 0.950 . S
H1285 C1305 0.950 . S
H1286 C1307 0.950 . S
H1287 C1310 0.950 1_565 S
H1288 C1311 0.950 . S
H1289 C1313 0.950 . S
H1290 C1314 0.950 . S
H1291 C1315 0.951 . S
H1292 C1317 0.951 . S
H1293 C1319 0.950 . S
H1294 C1320 0.950 . S
H1295 C1322 0.950 . S
H1296 C1325 0.950 1_545 S
H1297 C1326 0.950 . S
H1298 C1328 0.950 . S
H1299 C1329 0.950 . S
C1300 H1282 0.951 . S
C1300 C1301 1.366 1_545 S
C1300 C1302 1.388 . S
C1301 C1300 1.366 1_565 S
C1301 C1305 1.385 . S
C1302 H1283 0.951 . S
C1302 C1300 1.388 . S
C1302 C1303 1.366 1_545 S
C1303 C1302 1.366 1_565 S
C1303 C1304 1.414 . S
C1303 C1306 1.499 . S
C1304 H1284 0.950 . S
C1304 C1303 1.414 . S
C1304 C1305 1.374 . S
C1305 H1285 0.950 . S
C1305 C1301 1.385 . S
C1305 C1304 1.374 . S
C1306 C1303 1.499 . S
C1306 C1307 1.373 . S
C1306 C1308 1.389 1_565 S
C1307 H1286 0.950 . S
C1307 C1306 1.373 . S
C1307 C1323 1.377 . S
C1308 C1306 1.389 1_545 S
C1308 C1309 1.524 . S
C1308 C1322 1.377 . S
C1309 C1308 1.524 . S
C1309 C1310 1.397 . S
C1309 C1314 1.363 . S
C1310 H1287 0.950 1_545 S
C1310 C1309 1.397 . S
C1310 C1311 1.334 . S
C1311 H1288 0.950 . S
C1311 C1310 1.334 . S
C1311 C1312 1.287 . S
C1312 C1311 1.287 . S
C1312 C1313 1.524 . S
C1312 H1331 0.913 . S
C1313 H1289 0.950 . S
C1313 C1312 1.524 . S
C1313 C1314 1.415 . S
C1314 H1290 0.950 . S
C1314 C1309 1.363 . S
C1314 C1313 1.415 . S
C1315 H1291 0.951 . S
C1315 C1316 1.366 1_565 S
C1315 C1317 1.388 . S
C1316 C1315 1.366 1_545 S
C1316 C1320 1.385 . S
C1317 H1292 0.951 . S
C1317 C1315 1.388 . S
C1317 C1318 1.366 1_565 S
C1318 C1317 1.366 1_545 S
C1318 C1319 1.414 . S
C1318 C1321 1.499 . S
C1319 H1293 0.950 . S
C1319 C1318 1.414 . S
C1319 C1320 1.374 . S
C1320 H1294 0.950 . S
C1320 C1316 1.385 . S
C1320 C1319 1.374 . S
C1321 C1318 1.499 . S
C1321 C1322 1.373 . S
C1321 C1323 1.389 1_545 S
C1322 H1295 0.950 . S
C1322 C1308 1.377 . S
C1322 C1321 1.373 . S
C1323 C1307 1.377 . S
C1323 C1321 1.389 1_565 S
C1323 C1324 1.524 . S
C1324 C1323 1.524 . S
C1324 C1325 1.397 . S
C1324 C1329 1.363 . S
C1325 H1296 0.950 1_565 S
C1325 C1324 1.397 . S
C1325 C1326 1.334 . S
C1326 H1297 0.950 . S
C1326 C1325 1.334 . S
C1326 C1327 1.287 . S
C1327 C1326 1.287 . S
C1327 C1328 1.524 . S
C1327 H1330 0.999 . S
C1328 H1298 0.950 . S
C1328 C1327 1.524 . S
C1328 C1329 1.415 . S
C1329 H1299 0.950 . S
C1329 C1324 1.363 . S
C1329 C1328 1.415 . S
H1330 C1327 0.999 . S
H1331 C1312 0.913 . S
H1332 C1350 0.951 . S
H1333 C1352 0.951 . S
H1334 C1354 0.950 . S
H1335 C1355 0.950 . S
H1336 C1357 0.950 . S
H1337 C1360 0.950 . S
H1338 C1361 0.950 . S
H1339 C1363 0.950 . S
H1340 C1364 0.950 . S
H1341 C1365 0.951 . S
H1342 C1367 0.951 . S
H1343 C1369 0.950 . S
H1344 C1370 0.950 . S
H1345 C1372 0.950 . S
H1346 C1375 0.950 . S
H1347 C1376 0.950 . S
H1348 C1378 0.948 . S
H1349 C1379 0.950 1_556 S
C1350 H1332 0.951 . S
C1350 C1351 1.366 . S
C1350 C1352 1.388 . S
C1351 C1350 1.366 . S
C1351 C1355 1.385 . S
C1352 H1333 0.951 . S
C1352 C1350 1.388 . S
C1352 C1353 1.366 . S
C1353 C1352 1.366 . S
C1353 C1354 1.414 . S
C1353 C1356 1.499 . S
C1354 H1334 0.950 . S
C1354 C1353 1.414 . S
C1354 C1355 1.374 . S
C1355 H1335 0.950 . S
C1355 C1351 1.385 . S
C1355 C1354 1.374 . S
C1356 C1353 1.499 . S
C1356 C1357 1.373 . S
C1356 C1358 1.389 . S
C1357 H1336 0.950 . S
C1357 C1356 1.373 . S
C1357 C1373 1.377 . S
C1358 C1356 1.389 . S
C1358 C1359 1.524 . S
C1358 C1372 1.377 . S
C1359 C1358 1.524 . S
C1359 C1360 1.397 . S
C1359 C1364 1.363 . S
C1360 H1337 0.950 . S
C1360 C1359 1.397 . S
C1360 C1361 1.334 . S
C1361 H1338 0.950 . S
C1361 C1360 1.334 . S
C1361 C1362 1.287 . S
C1362 C1361 1.287 . S
C1362 C1363 1.524 . S
C1362 H1381 0.913 . S
C1363 H1339 0.950 . S
C1363 C1362 1.524 . S
C1363 C1364 1.415 . S
C1364 H1340 0.950 . S
C1364 C1359 1.363 . S
C1364 C1363 1.415 . S
C1365 H1341 0.951 . S
C1365 C1366 1.366 . S
C1365 C1367 1.388 . S
C1366 C1365 1.366 . S
C1366 C1370 1.385 . S
C1367 H1342 0.951 . S
C1367 C1365 1.388 . S
C1367 C1368 1.366 . S
C1368 C1367 1.366 . S
C1368 C1369 1.414 . S
C1368 C1371 1.499 . S
C1369 H1343 0.950 . S
C1369 C1368 1.414 . S
C1369 C1370 1.374 . S
C1370 H1344 0.950 . S
C1370 C1366 1.385 . S
C1370 C1369 1.374 . S
C1371 C1368 1.499 . S
C1371 C1372 1.373 . S
C1371 C1373 1.389 . S
C1372 H1345 0.950 . S
C1372 C1358 1.377 . S
C1372 C1371 1.373 . S
C1373 C1357 1.377 . S
C1373 C1371 1.389 . S
C1373 C1374 1.524 . S
C1374 C1373 1.524 . S
C1374 C1375 1.397 . S
C1374 C1379 1.363 . S
C1375 H1346 0.950 . S
C1375 C1374 1.397 . S
C1375 C1376 1.334 . S
C1376 H1347 0.950 . S
C1376 C1375 1.334 . S
C1376 C1377 1.287 . S
C1377 C1376 1.287 . S
C1377 C1378 1.525 1_554 S
C1377 H1380 0.999 . S
C1378 H1348 0.948 . S
C1378 C1377 1.525 1_556 S
C1378 C1379 1.415 1_556 S
C1379 H1349 0.950 1_554 S
C1379 C1374 1.363 . S
C1379 C1378 1.415 1_554 S
H1380 C1377 0.999 . S
H1381 C1362 0.913 . S
H1382 C1400 0.951 1_655 S
H1383 C1402 0.951 . S
H1384 C1404 0.950 . S
H1385 C1405 0.950 . S
H1386 C1407 0.950 . S
H1387 C1410 0.950 1_455 S
H1388 C1411 0.950 1_455 S
H1389 C1413 0.950 . S
H1390 C1414 0.950 . S
H1391 C1415 0.951 1_455 S
H1392 C1417 0.951 . S
H1393 C1419 0.950 . S
H1394 C1420 0.950 . S
H1395 C1422 0.950 . S
H1396 C1425 0.950 1_655 S
H1397 C1426 0.950 1_655 S
H1398 C1428 0.950 . S
H1399 C1429 0.950 . S
C1400 H1382 0.951 1_455 S
C1400 C1401 1.366 . S
C1400 C1402 1.388 1_455 S
C1401 C1400 1.366 . S
C1401 C1405 1.385 . S
C1402 H1383 0.951 . S
C1402 C1400 1.388 1_655 S
C1402 C1403 1.366 1_655 S
C1403 C1402 1.366 1_455 S
C1403 C1404 1.414 . S
C1403 C1406 1.499 . S
C1404 H1384 0.950 . S
C1404 C1403 1.414 . S
C1404 C1405 1.374 . S
C1405 H1385 0.950 . S
C1405 C1401 1.385 . S
C1405 C1404 1.374 . S
C1406 C1403 1.499 . S
C1406 C1407 1.373 . S
C1406 C1408 1.389 1_455 S
C1407 H1386 0.950 . S
C1407 C1406 1.373 . S
C1407 C1423 1.377 . S
C1408 C1406 1.389 1_655 S
C1408 C1409 1.524 . S
C1408 C1422 1.377 . S
C1409 C1408 1.524 . S
C1409 C1410 1.397 . S
C1409 C1414 1.363 . S
C1410 H1387 0.950 1_655 S
C1410 C1409 1.397 . S
C1410 C1411 1.334 . S
C1411 H1388 0.950 1_655 S
C1411 C1410 1.334 . S
C1411 C1412 1.287 . S
C1412 C1411 1.287 . S
C1412 C1413 1.524 . S
C1412 H1431 0.913 . S
C1413 H1389 0.950 . S
C1413 C1412 1.524 . S
C1413 C1414 1.415 . S
C1414 H1390 0.950 . S
C1414 C1409 1.363 . S
C1414 C1413 1.415 . S
C1415 H1391 0.951 1_655 S
C1415 C1416 1.366 . S
C1415 C1417 1.388 1_655 S
C1416 C1415 1.366 . S
C1416 C1420 1.385 . S
C1417 H1392 0.951 . S
C1417 C1415 1.388 1_455 S
C1417 C1418 1.366 1_455 S
C1418 C1417 1.366 1_655 S
C1418 C1419 1.414 . S
C1418 C1421 1.499 . S
C1419 H1393 0.950 . S
C1419 C1418 1.414 . S
C1419 C1420 1.374 . S
C1420 H1394 0.950 . S
C1420 C1416 1.385 . S
C1420 C1419 1.374 . S
C1421 C1418 1.499 . S
C1421 C1422 1.373 . S
C1421 C1423 1.389 1_655 S
C1422 H1395 0.950 . S
C1422 C1408 1.377 . S
C1422 C1421 1.373 . S
C1423 C1407 1.377 . S
C1423 C1421 1.389 1_455 S
C1423 C1424 1.524 . S
C1424 C1423 1.524 . S
C1424 C1425 1.397 . S
C1424 C1429 1.363 . S
C1425 H1396 0.950 1_455 S
C1425 C1424 1.397 . S
C1425 C1426 1.334 . S
C1426 H1397 0.950 1_455 S
C1426 C1425 1.334 . S
C1426 C1427 1.287 . S
C1427 C1426 1.287 . S
C1427 C1428 1.524 . S
C1427 H1430 0.999 . S
C1428 H1398 0.950 . S
C1428 C1427 1.524 . S
C1428 C1429 1.415 . S
C1429 H1399 0.950 . S
C1429 C1424 1.363 . S
C1429 C1428 1.415 . S
H1430 C1427 0.999 . S
H1431 C1412 0.913 . S
H1432 C1450 0.951 1_545 S
H1433 C1452 0.951 . S
H1434 C1454 0.950 . S
H1435 C1455 0.950 . S
H1436 C1457 0.950 . S
H1437 C1460 0.950 . S
H1438 C1461 0.950 . S
H1439 C1463 0.950 . S
H1440 C1464 0.950 . S
H1441 C1465 0.951 1_565 S
H1442 C1467 0.951 . S
H1443 C1469 0.950 . S
H1444 C1470 0.950 . S
H1445 C1472 0.950 . S
H1446 C1475 0.950 . S
H1447 C1476 0.950 . S
H1448 C1478 0.950 . S
H1449 C1479 0.950 . S
C1450 H1432 0.951 1_565 S
C1450 C1451 1.366 . S
C1450 C1452 1.388 1_565 S
C1451 C1450 1.366 . S
C1451 C1455 1.385 . S
C1452 H1433 0.951 . S
C1452 C1450 1.388 1_545 S
C1452 C1453 1.366 1_545 S
C1453 C1452 1.366 1_565 S
C1453 C1454 1.414 . S
C1453 C1456 1.499 . S
C1454 H1434 0.950 . S
C1454 C1453 1.414 . S
C1454 C1455 1.374 . S
C1455 H1435 0.950 . S
C1455 C1451 1.385 . S
C1455 C1454 1.374 . S
C1456 C1453 1.499 . S
C1456 C1457 1.373 . S
C1456 C1458 1.389 1_565 S
C1457 H1436 0.950 . S
C1457 C1456 1.373 . S
C1457 C1473 1.377 . S
C1458 C1456 1.389 1_545 S
C1458 C1459 1.524 . S
C1458 C1472 1.377 . S
C1459 C1458 1.524 . S
C1459 C1460 1.397 1_545 S
C1459 C1464 1.363 . S
C1460 H1437 0.950 . S
C1460 C1459 1.397 1_565 S
C1460 C1461 1.334 . S
C1461 H1438 0.950 . S
C1461 C1460 1.334 . S
C1461 C1462 1.287 1_565 S
C1462 C1461 1.287 1_545 S
C1462 C1463 1.524 . S
C1462 H1481 0.913 . S
C1463 H1439 0.950 . S
C1463 C1462 1.524 . S
C1463 C1464 1.415 . S
C1464 H1440 0.950 . S
C1464 C1459 1.363 . S
C1464 C1463 1.415 . S
C1465 H1441 0.951 1_545 S
C1465 C1466 1.366 . S
C1465 C1467 1.388 1_545 S
C1466 C1465 1.366 . S
C1466 C1470 1.385 . S
C1467 H1442 0.951 . S
C1467 C1465 1.388 1_565 S
C1467 C1468 1.366 1_565 S
C1468 C1467 1.366 1_545 S
C1468 C1469 1.414 . S
C1468 C1471 1.499 . S
C1469 H1443 0.950 . S
C1469 C1468 1.414 . S
C1469 C1470 1.374 . S
C1470 H1444 0.950 . S
C1470 C1466 1.385 . S
C1470 C1469 1.374 . S
C1471 C1468 1.499 . S
C1471 C1472 1.373 . S
C1471 C1473 1.389 1_545 S
C1472 H1445 0.950 . S
C1472 C1458 1.377 . S
C1472 C1471 1.373 . S
C1473 C1457 1.377 . S
C1473 C1471 1.389 1_565 S
C1473 C1474 1.524 . S
C1474 C1473 1.524 . S
C1474 C1475 1.397 1_565 S
C1474 C1479 1.363 . S
C1475 H1446 0.950 . S
C1475 C1474 1.397 1_545 S
C1475 C1476 1.334 . S
C1476 H1447 0.950 . S
C1476 C1475 1.334 . S
C1476 C1477 1.287 1_545 S
C1477 C1476 1.287 1_565 S
C1477 C1478 1.524 . S
C1477 H1480 0.999 . S
C1478 H1448 0.950 . S
C1478 C1477 1.524 . S
C1478 C1479 1.415 . S
C1479 H1449 0.950 . S
C1479 C1474 1.363 . S
C1479 C1478 1.415 . S
H1480 C1477 0.999 . S
H1481 C1462 0.913 . S
H1482 C1500 0.951 . S
H1483 C1502 0.951 . S
H1484 C1504 0.950 . S
H1485 C1505 0.950 . S
H1486 C1507 0.950 . S
H1487 C1510 0.950 . S
H1488 C1511 0.950 . S
H1489 C1513 0.950 . S
H1490 C1514 0.950 . S
H1491 C1515 0.951 . S
H1492 C1517 0.951 . S
H1493 C1519 0.950 . S
H1494 C1520 0.950 . S
H1495 C1522 0.950 . S
H1496 C1525 0.950 . S
H1497 C1526 0.950 . S
H1498 C1528 0.950 . S
H1499 C1529 0.950 . S
C1500 H1482 0.951 . S
C1500 C1501 1.366 . S
C1500 C1502 1.388 . S
C1501 C1500 1.366 . S
C1501 C1505 1.385 . S
C1502 H1483 0.951 . S
C1502 C1500 1.388 . S
C1502 C1503 1.366 . S
C1503 C1502 1.366 . S
C1503 C1504 1.414 . S
C1503 C1506 1.499 . S
C1504 H1484 0.950 . S
C1504 C1503 1.414 . S
C1504 C1505 1.374 . S
C1505 H1485 0.950 . S
C1505 C1501 1.385 . S
C1505 C1504 1.374 . S
C1506 C1503 1.499 . S
C1506 C1507 1.373 . S
C1506 C1508 1.389 . S
C1507 H1486 0.950 . S
C1507 C1506 1.373 . S
C1507 C1523 1.377 . S
C1508 C1506 1.389 . S
C1508 C1509 1.524 . S
C1508 C1522 1.377 . S
C1509 C1508 1.524 . S
C1509 C1510 1.397 . S
C1509 C1514 1.363 . S
C1510 H1487 0.950 . S
C1510 C1509 1.397 . S
C1510 C1511 1.334 . S
C1511 H1488 0.950 . S
C1511 C1510 1.334 . S
C1511 C1512 1.287 . S
C1512 C1511 1.287 . S
C1512 C1513 1.524 . S
C1512 H1531 0.913 . S
C1513 H1489 0.950 . S
C1513 C1512 1.524 . S
C1513 C1514 1.415 . S
C1514 H1490 0.950 . S
C1514 C1509 1.363 . S
C1514 C1513 1.415 . S
C1515 H1491 0.951 . S
C1515 C1516 1.366 . S
C1515 C1517 1.388 . S
C1516 C1515 1.366 . S
C1516 C1520 1.385 . S
C1517 H1492 0.951 . S
C1517 C1515 1.388 . S
C1517 C1518 1.366 . S
C1518 C1517 1.366 . S
C1518 C1519 1.414 . S
C1518 C1521 1.499 . S
C1519 H1493 0.950 . S
C1519 C1518 1.414 . S
C1519 C1520 1.374 . S
C1520 H1494 0.950 . S
C1520 C1516 1.385 . S
C1520 C1519 1.374 . S
C1521 C1518 1.499 . S
C1521 C1522 1.373 . S
C1521 C1523 1.389 . S
C1522 H1495 0.950 . S
C1522 C1508 1.377 . S
C1522 C1521 1.373 . S
C1523 C1507 1.377 . S
C1523 C1521 1.389 . S
C1523 C1524 1.524 . S
C1524 C1523 1.524 . S
C1524 C1525 1.397 . S
C1524 C1529 1.363 . S
C1525 H1496 0.950 . S
C1525 C1524 1.397 . S
C1525 C1526 1.334 . S
C1526 H1497 0.950 . S
C1526 C1525 1.334 . S
C1526 C1527 1.287 . S
C1527 C1526 1.287 . S
C1527 C1528 1.524 . S
C1527 H1530 0.999 . S
C1528 H1498 0.950 . S
C1528 C1527 1.524 . S
C1528 C1529 1.415 . S
C1529 H1499 0.950 . S
C1529 C1524 1.363 . S
C1529 C1528 1.415 . S
H1530 C1527 0.999 . S
H1531 C1512 0.913 . S
H1532 C1550 0.951 . S
H1533 C1552 0.951 . S
H1534 C1554 0.992 . S
H1535 C1555 0.950 1_455 S
H1536 C1557 0.950 . S
H1537 C1560 0.950 . S
H1538 C1561 0.950 1_554 S
H1539 C1563 0.950 . S
H1540 C1564 0.950 . S
H1541 C1565 0.951 . S
H1542 C1567 0.951 . S
H1543 C1569 0.992 . S
H1544 C1570 0.950 1_655 S
H1545 C1572 0.950 . S
H1546 C1575 0.950 . S
H1547 C1576 0.950 . S
H1548 C1578 0.950 . S
H1549 C1579 0.950 . S
C1550 H1532 0.951 . S
C1550 C1551 1.366 . S
C1550 C1552 1.388 . S
C1551 C1550 1.366 . S
C1551 C1555 1.385 . S
C1552 H1533 0.951 . S
C1552 C1550 1.388 . S
C1552 C1553 1.366 . S
C1553 C1552 1.366 . S
C1553 C1554 1.408 1_655 S
C1553 C1556 1.499 . S
C1554 H1534 0.992 . S
C1554 C1553 1.408 1_455 S
C1554 C1555 1.341 1_455 S
C1555 H1535 0.950 1_655 S
C1555 C1551 1.385 . S
C1555 C1554 1.341 1_655 S
C1556 C1553 1.499 . S
C1556 C1557 1.373 1_655 S
C1556 C1558 1.389 . S
C1557 H1536 0.950 . S
C1557 C1556 1.373 1_455 S
C1557 C1573 1.377 . S
C1558 C1556 1.389 . S
C1558 C1559 1.524 . S
C1558 C1572 1.377 . S
C1559 C1558 1.524 . S
C1559 C1560 1.397 . S
C1559 C1564 1.363 . S
C1560 H1537 0.950 . S
C1560 C1559 1.397 . S
C1560 C1561 1.334 . S
C1561 H1538 0.950 1_556 S
C1561 C1560 1.334 . S
C1561 C1562 1.287 . S
C1562 C1561 1.287 . S
C1562 C1563 1.524 . S
C1562 H1581 0.913 . S
C1563 H1539 0.950 . S
C1563 C1562 1.524 . S
C1563 C1564 1.415 . S
C1564 H1540 0.950 . S
C1564 C1559 1.363 . S
C1564 C1563 1.415 . S
C1565 H1541 0.951 . S
C1565 C1566 1.366 . S
C1565 C1567 1.388 . S
C1566 C1565 1.366 . S
C1566 C1570 1.385 . S
C1567 H1542 0.951 . S
C1567 C1565 1.388 . S
C1567 C1568 1.366 . S
C1568 C1567 1.366 . S
C1568 C1569 1.408 1_455 S
C1568 C1571 1.499 . S
C1569 H1543 0.992 . S
C1569 C1568 1.408 1_655 S
C1569 C1570 1.341 1_655 S
C1570 H1544 0.950 1_455 S
C1570 C1566 1.385 . S
C1570 C1569 1.341 1_455 S
C1571 C1568 1.499 . S
C1571 C1572 1.373 1_455 S
C1571 C1573 1.389 . S
C1572 H1545 0.950 . S
C1572 C1558 1.377 . S
C1572 C1571 1.373 1_655 S
C1573 C1557 1.377 . S
C1573 C1571 1.389 . S
C1573 C1574 1.524 . S
C1574 C1573 1.524 . S
C1574 C1575 1.397 . S
C1574 C1579 1.363 . S
C1575 H1546 0.950 . S
C1575 C1574 1.397 . S
C1575 C1576 1.334 . S
C1576 H1547 0.950 . S
C1576 C1575 1.334 . S
C1576 C1577 1.287 . S
C1577 C1576 1.287 . S
C1577 C1578 1.524 . S
C1577 H1580 0.999 . S
C1578 H1548 0.950 . S
C1578 C1577 1.524 . S
C1578 C1579 1.415 . S
C1579 H1549 0.950 . S
C1579 C1574 1.363 . S
C1579 C1578 1.415 . S
H1580 C1577 0.999 . S
H1581 C1562 0.913 . S
H1582 C1600 0.951 . S
H1583 C1602 0.951 1_565 S
H1584 C1604 0.950 . S
H1585 C1605 0.950 . S
H1586 C1607 0.950 . S
H1587 C1610 0.950 . S
H1588 C1611 0.950 . S
H1589 C1613 0.950 . S
H1590 C1614 0.950 . S
H1591 C1615 0.951 . S
H1592 C1617 0.951 1_545 S
H1593 C1619 0.950 . S
H1594 C1620 0.950 . S
H1595 C1622 0.950 . S
H1596 C1625 0.950 . S
H1597 C1626 0.950 . S
H1598 C1628 0.950 . S
H1599 C1629 0.950 . S
C1600 H1582 0.951 . S
C1600 C1601 1.366 . S
C1600 C1602 1.388 . S
C1601 C1600 1.366 . S
C1601 C1605 1.385 . S
C1602 H1583 0.951 1_545 S
C1602 C1600 1.388 . S
C1602 C1603 1.366 . S
C1603 C1602 1.366 . S
C1603 C1604 1.414 . S
C1603 C1606 1.499 . S
C1604 H1584 0.950 . S
C1604 C1603 1.414 . S
C1604 C1605 1.374 . S
C1605 H1585 0.950 . S
C1605 C1601 1.385 . S
C1605 C1604 1.374 . S
C1606 C1603 1.499 . S
C1606 C1607 1.373 . S
C1606 C1608 1.389 1_545 S
C1607 H1586 0.950 . S
C1607 C1606 1.373 . S
C1607 C1623 1.377 . S
C1608 C1606 1.389 1_565 S
C1608 C1609 1.524 . S
C1608 C1622 1.377 . S
C1609 C1608 1.524 . S
C1609 C1610 1.397 . S
C1609 C1614 1.363 . S
C1610 H1587 0.950 . S
C1610 C1609 1.397 . S
C1610 C1611 1.334 . S
C1611 H1588 0.950 . S
C1611 C1610 1.334 . S
C1611 C1612 1.287 . S
C1612 C1611 1.287 . S
C1612 C1613 1.524 . S
C1612 H1631 0.913 . S
C1613 H1589 0.950 . S
C1613 C1612 1.524 . S
C1613 C1614 1.415 . S
C1614 H1590 0.950 . S
C1614 C1609 1.363 . S
C1614 C1613 1.415 . S
C1615 H1591 0.951 . S
C1615 C1616 1.366 . S
C1615 C1617 1.388 . S
C1616 C1615 1.366 . S
C1616 C1620 1.385 . S
C1617 H1592 0.951 1_565 S
C1617 C1615 1.388 . S
C1617 C1618 1.366 . S
C1618 C1617 1.366 . S
C1618 C1619 1.414 . S
C1618 C1621 1.499 . S
C1619 H1593 0.950 . S
C1619 C1618 1.414 . S
C1619 C1620 1.374 . S
C1620 H1594 0.950 . S
C1620 C1616 1.385 . S
C1620 C1619 1.374 . S
C1621 C1618 1.499 . S
C1621 C1622 1.373 . S
C1621 C1623 1.389 1_565 S
C1622 H1595 0.950 . S
C1622 C1608 1.377 . S
C1622 C1621 1.373 . S
C1623 C1607 1.377 . S
C1623 C1621 1.389 1_545 S
C1623 C1624 1.524 . S
C1624 C1623 1.524 . S
C1624 C1625 1.397 . S
C1624 C1629 1.363 . S
C1625 H1596 0.950 . S
C1625 C1624 1.397 . S
C1625 C1626 1.334 . S
C1626 H1597 0.950 . S
C1626 C1625 1.334 . S
C1626 C1627 1.287 . S
C1627 C1626 1.287 . S
C1627 C1628 1.524 . S
C1627 H1630 0.999 . S
C1628 H1598 0.950 . S
C1628 C1627 1.524 . S
C1628 C1629 1.415 . S
C1629 H1599 0.950 . S
C1629 C1624 1.363 . S
C1629 C1628 1.415 . S
H1630 C1627 0.999 . S
H1631 C1612 0.913 . S
C451 C3 1.543 . S
C466 C338 1.484 . S
C501 C50 1.484 . S
C516 C363 1.544 . S
C551 C75 1.330 . S
C566 C399 1.329 . S
C601 C111 1.543 . S
C616 C230 1.485 . S
C651 C255 1.543 . S
C666 C158 1.484 . S
C701 C291 1.329 . S
C716 C183 1.329 . S
C751 C374 1.403 . S
C766 C14 1.403 . S
C801 C39 1.469 . S
C816 C410 1.381 . S
C851 C86 1.379 . S
C866 C219 1.468 . S
C901 C122 1.403 . S
C916 C266 1.402 . S
C951 C147 1.468 . S
C966 C302 1.380 . S
C1001 C194 1.379 . S
C1016 C327 1.468 . S
C1051 C326 0.562 . S
C1066 C4 0.541 . S
C1101 C38 0.562 . S
C1116 C364 0.542 . S
C1151 C76 0.448 . S
C1166 C400 0.450 . S
C1201 C218 0.563 . S
C1216 C112 0.543 . S
C1251 C146 0.565 . S
C1266 C256 0.544 . S
C1301 C292 0.451 . S
C1316 C184 0.449 . S
C1351 C2 1.551 . S
C1366 C110 1.551 . S
C1401 C148 1.309 . S
C1416 C40 1.309 . S
C1451 C74 1.432 . S
C1466 C182 1.432 . S
C1501 C220 1.309 . S
C1516 C328 1.309 . S
C1551 C254 1.551 . S
C1566 C362 1.551 . S
C1601 C398 1.432 . S
C1616 C290 1.432 . S
