# Generated by pormake.
# Topology whz, (6)-cn, num edge types: 1
# Building blocks:
#     Node 0, Type 0, BuildingBlock: HISSIN_clean_sbu_0, # of connection points: 6
#     Node 1, Type 0, BuildingBlock: HISSIN_clean_sbu_0, # of connection points: 6
#     Node 2, Type 0, BuildingBlock: HISSIN_clean_sbu_0, # of connection points: 6
#     Node 3, Type 0, BuildingBlock: HISSIN_clean_sbu_0, # of connection points: 6
#     Node 4, Type 0, BuildingBlock: HISSIN_clean_sbu_0, # of connection points: 6
#     Node 5, Type 0, BuildingBlock: HISSIN_clean_sbu_0, # of connection points: 6
#     Node 6, Type 0, BuildingBlock: HISSIN_clean_sbu_0, # of connection points: 6
#     Node 7, Type 0, BuildingBlock: HISSIN_clean_sbu_0, # of connection points: 6
#     Node 8, Type 0, BuildingBlock: HISSIN_clean_sbu_0, # of connection points: 6
#     Node 9, Type 0, BuildingBlock: HISSIN_clean_sbu_0, # of connection points: 6
#     Node 10, Type 0, BuildingBlock: HISSIN_clean_sbu_0, # of connection points: 6
#     Node 11, Type 0, BuildingBlock: HISSIN_clean_sbu_0, # of connection points: 6
#     Node 12, Type 0, BuildingBlock: HISSIN_clean_sbu_0, # of connection points: 6
#     Node 13, Type 0, BuildingBlock: HISSIN_clean_sbu_0, # of connection points: 6
#     Node 14, Type 0, BuildingBlock: HISSIN_clean_sbu_0, # of connection points: 6
#     Node 15, Type 0, BuildingBlock: HISSIN_clean_sbu_0, # of connection points: 6
#     Edge 16, Type (0, 0), BuildingBlock: CIFDUS_clean_linker_0, # of connection points: 2
#     Edge 17, Type (0, 0), BuildingBlock: CIFDUS_clean_linker_0, # of connection points: 2
#     Edge 18, Type (0, 0), BuildingBlock: CIFDUS_clean_linker_0, # of connection points: 2
#     Edge 19, Type (0, 0), BuildingBlock: CIFDUS_clean_linker_0, # of connection points: 2
#     Edge 20, Type (0, 0), BuildingBlock: CIFDUS_clean_linker_0, # of connection points: 2
#     Edge 21, Type (0, 0), BuildingBlock: CIFDUS_clean_linker_0, # of connection points: 2
#     Edge 22, Type (0, 0), BuildingBlock: CIFDUS_clean_linker_0, # of connection points: 2
#     Edge 23, Type (0, 0), BuildingBlock: CIFDUS_clean_linker_0, # of connection points: 2
#     Edge 24, Type (0, 0), BuildingBlock: CIFDUS_clean_linker_0, # of connection points: 2
#     Edge 25, Type (0, 0), BuildingBlock: CIFDUS_clean_linker_0, # of connection points: 2
#     Edge 26, Type (0, 0), BuildingBlock: CIFDUS_clean_linker_0, # of connection points: 2
#     Edge 27, Type (0, 0), BuildingBlock: CIFDUS_clean_linker_0, # of connection points: 2
#     Edge 28, Type (0, 0), BuildingBlock: CIFDUS_clean_linker_0, # of connection points: 2
#     Edge 29, Type (0, 0), BuildingBlock: CIFDUS_clean_linker_0, # of connection points: 2
#     Edge 30, Type (0, 0), BuildingBlock: CIFDUS_clean_linker_0, # of connection points: 2
#     Edge 31, Type (0, 0), BuildingBlock: CIFDUS_clean_linker_0, # of connection points: 2
#     Edge 32, Type (0, 0), BuildingBlock: CIFDUS_clean_linker_0, # of connection points: 2
#     Edge 33, Type (0, 0), BuildingBlock: CIFDUS_clean_linker_0, # of connection points: 2
#     Edge 34, Type (0, 0), BuildingBlock: CIFDUS_clean_linker_0, # of connection points: 2
#     Edge 35, Type (0, 0), BuildingBlock: CIFDUS_clean_linker_0, # of connection points: 2
#     Edge 36, Type (0, 0), BuildingBlock: CIFDUS_clean_linker_0, # of connection points: 2
#     Edge 37, Type (0, 0), BuildingBlock: CIFDUS_clean_linker_0, # of connection points: 2
#     Edge 38, Type (0, 0), BuildingBlock: CIFDUS_clean_linker_0, # of connection points: 2
#     Edge 39, Type (0, 0), BuildingBlock: CIFDUS_clean_linker_0, # of connection points: 2
#     Edge 40, Type (0, 0), BuildingBlock: CIFDUS_clean_linker_0, # of connection points: 2
#     Edge 41, Type (0, 0), BuildingBlock: CIFDUS_clean_linker_0, # of connection points: 2
#     Edge 42, Type (0, 0), BuildingBlock: CIFDUS_clean_linker_0, # of connection points: 2
#     Edge 43, Type (0, 0), BuildingBlock: CIFDUS_clean_linker_0, # of connection points: 2
#     Edge 44, Type (0, 0), BuildingBlock: CIFDUS_clean_linker_0, # of connection points: 2
#     Edge 45, Type (0, 0), BuildingBlock: CIFDUS_clean_linker_0, # of connection points: 2
#     Edge 46, Type (0, 0), BuildingBlock: CIFDUS_clean_linker_0, # of connection points: 2
#     Edge 47, Type (0, 0), BuildingBlock: CIFDUS_clean_linker_0, # of connection points: 2
#     Edge 48, Type (0, 0), BuildingBlock: CIFDUS_clean_linker_0, # of connection points: 2
#     Edge 49, Type (0, 0), BuildingBlock: CIFDUS_clean_linker_0, # of connection points: 2
#     Edge 50, Type (0, 0), BuildingBlock: CIFDUS_clean_linker_0, # of connection points: 2
#     Edge 51, Type (0, 0), BuildingBlock: CIFDUS_clean_linker_0, # of connection points: 2
#     Edge 52, Type (0, 0), BuildingBlock: CIFDUS_clean_linker_0, # of connection points: 2
#     Edge 53, Type (0, 0), BuildingBlock: CIFDUS_clean_linker_0, # of connection points: 2
#     Edge 54, Type (0, 0), BuildingBlock: CIFDUS_clean_linker_0, # of connection points: 2
#     Edge 55, Type (0, 0), BuildingBlock: CIFDUS_clean_linker_0, # of connection points: 2
#     Edge 56, Type (0, 0), BuildingBlock: CIFDUS_clean_linker_0, # of connection points: 2
#     Edge 57, Type (0, 0), BuildingBlock: CIFDUS_clean_linker_0, # of connection points: 2
#     Edge 58, Type (0, 0), BuildingBlock: CIFDUS_clean_linker_0, # of connection points: 2
#     Edge 59, Type (0, 0), BuildingBlock: CIFDUS_clean_linker_0, # of connection points: 2
#     Edge 60, Type (0, 0), BuildingBlock: CIFDUS_clean_linker_0, # of connection points: 2
#     Edge 61, Type (0, 0), BuildingBlock: CIFDUS_clean_linker_0, # of connection points: 2
#     Edge 62, Type (0, 0), BuildingBlock: CIFDUS_clean_linker_0, # of connection points: 2
#     Edge 63, Type (0, 0), BuildingBlock: CIFDUS_clean_linker_0, # of connection points: 2
# Relax obj value: 0.775
# Max RMSD: 0.320
# Mean RMSD: 0.320
data_MOF--net-whz--node1-HISSIN_clean_sbu_0--edge1-CIFDUS_clean_linker_0
_symmetry_space_group_name_H-M    P1
_symmetry_Int_Tables_number       1
_symmetry_cell_setting            triclinic
loop_
_symmetry_equiv_pos_as_xyz
'x, y, z'
_cell_length_a     30.81586
_cell_length_b     30.990692
_cell_length_c     64.895678
_cell_angle_alpha  90.086893
_cell_angle_beta   89.862895
_cell_angle_gamma 89.736173
loop_
_atom_site_label
_atom_site_type_symbol
_atom_site_fract_x
_atom_site_fract_y
_atom_site_fract_z
_atom_type_partial_charge
Eu0 Eu 0.32635 0.21786 0.18488 0.0
Eu1 Eu 0.33514 0.16002 0.1433 0.0
C2 C 0.36243 0.12179 0.18891 0.0
C3 C 0.32394 0.3222 0.21565 0.0
C4 C 0.34778 0.33734 0.23246 0.0
C5 C 0.30467 0.3961 0.20693 0.0
C6 C 0.3477 0.38122 0.23724 0.0
C7 C 0.30468 0.35212 0.20219 0.0
C8 C 0.32299 0.41063 0.22545 0.0
C9 C 0.316 0.27554 0.21359 0.0
O10 O 0.27972 0.12749 0.15915 0.0
O11 O 0.2636 0.17781 0.18435 0.0
C12 C 0.255 0.14168 0.17426 0.0
O13 O 0.32466 0.25724 0.15613 0.0
O14 O 0.32893 0.10438 0.12247 0.0
O15 O 0.35374 0.16478 0.11087 0.0
O16 O 0.28135 0.21102 0.14058 0.0
C17 C 0.29039 0.25124 0.14494 0.0
O18 O 0.39907 0.21536 0.18011 0.0
O19 O 0.3982 0.19814 0.1458 0.0
O20 O 0.36932 0.11997 0.16866 0.0
O21 O 0.28518 0.26391 0.20098 0.0
O22 O 0.35008 0.25049 0.2125 0.0
O23 O 0.34046 0.15312 0.19769 0.0
C24 C 0.31844 0.12005 0.08652 0.0
C25 C 0.34212 0.11623 0.06805 0.0
C26 C 0.25169 0.11892 0.06644 0.0
C27 C 0.32091 0.11428 0.04894 0.0
C28 C 0.27296 0.12079 0.08556 0.0
C29 C 0.27537 0.1164 1.0478 0.0
C30 C 0.34218 0.12555 0.10625 0.0
C31 C 0.4191 0.21139 0.16233 0.0
H32 H 0.36358 0.31491 0.24285 0.0
H33 H 0.28585 0.41799 0.19751 0.0
H34 H 0.36244 0.3909 0.25164 0.0
H35 H 0.28671 0.34125 0.18893 0.0
H36 H 0.37727 0.11571 0.06838 0.0
H37 H 0.21657 0.11981 0.06622 0.0
H38 H 0.3403 0.11271 1.03502 0.0
H39 H 0.25396 0.12351 0.09957 0.0
Eu40 Eu 0.58092 0.57317 0.44533 0.0
Eu41 Eu 0.61884 0.56096 0.39761 0.0
C42 C 0.6744 0.59662 0.43594 0.0
C43 C 0.56555 0.62495 0.49759 0.0
C44 C 0.59984 0.65408 0.49469 0.0
C45 C 0.54921 0.65881 0.53036 0.0
C46 C 0.61022 0.68384 0.5101 0.0
C47 C 0.53916 0.62878 0.51505 0.0
C48 C 0.58614 0.68514 0.5285 0.0
C49 C 0.55967 0.58821 0.48355 0.0
O50 O 0.6151 0.49362 0.4103 0.0
O51 O 0.62031 0.51044 0.44474 0.0
C52 C 0.62357 0.48254 0.42944 0.0
O53 O 0.53107 0.53122 0.43062 0.0
O54 O 0.67092 0.54037 0.3766 0.0
O55 O 0.61475 0.57356 0.36443 0.0
O56 O 0.54932 0.53494 0.39604 0.0
C57 C 0.52278 0.52333 0.41112 0.0
O58 O 0.55511 0.6313 0.42852 0.0
O59 O 0.60278 0.63274 0.40123 0.0
O60 O 0.6746 0.56749 0.42112 0.0
O61 O 0.53291 0.59386 0.46824 0.0
O62 O 0.59524 0.56827 0.47799 0.0
O63 O 0.63785 0.61568 0.44008 0.0
C64 C 0.6543 0.52856 0.34094 0.0
C65 C 0.63633 0.48713 0.33958 0.0
C66 C 0.68013 0.52113 0.30542 0.0
C67 C 0.64068 0.46275 0.32137 0.0
C68 C 0.67576 0.54542 0.32361 0.0
C69 C 0.66318 0.47911 0.30405 0.0
C70 C 0.65168 0.55489 0.3601 0.0
C71 C 0.57347 0.65168 0.4131 0.0
H72 H 0.62012 0.65205 0.48108 0.0
H73 H 0.53035 0.65854 0.54447 0.0
H74 H 0.63872 0.70379 0.50829 0.0
H75 H 0.51237 0.6068 0.51745 0.0
H76 H 0.61932 0.4735 0.35265 0.0
H77 H 0.69808 0.53482 0.29266 0.0
H78 H 0.62653 0.43085 0.32092 0.0
H79 H 0.68983 0.57737 0.32425 0.0
Eu80 Eu 0.2336 0.79091 0.69384 0.0
Eu81 Eu 0.25337 0.841 0.65099 0.0
C82 C 0.21033 0.89005 0.68992 0.0
C83 C 0.16065 0.73706 0.73218 0.0
C84 C 0.13625 0.76823 0.74285 0.0
C85 C 0.10276 0.68522 0.73796 0.0
C86 C 0.0969 0.75734 0.752 0.0
C87 C 0.14253 0.69608 0.72892 0.0
C88 C 0.08104 0.71472 0.75097 0.0
C89 C 0.20505 0.74691 0.7249 0.0
O90 O 0.30776 0.86412 0.67151 0.0
O91 O 0.2946 0.82795 0.70216 0.0
C92 C 0.31754 0.85484 0.69077 0.0
O93 O 0.29481 0.76135 0.68196 0.0
O94 O 0.23497 0.87365 0.6218 0.0
O95 O 0.30151 0.85072 0.62677 0.0
O96 O 0.27225 0.76903 0.64908 0.0
C97 C 0.29758 0.75002 0.66272 0.0
O98 O 0.18635 0.76763 0.66953 0.0
O99 O 0.18039 0.83023 0.65193 0.0
O100 O 0.23856 0.89442 0.67467 0.0
O101 O 0.21697 0.72896 0.70755 0.0
O102 O 0.21772 0.78703 0.72644 0.0
O103 O 0.19461 0.85214 0.69459 0.0
C104 C 0.28812 0.88489 0.5936 0.0
C105 C 0.33084 0.89931 0.59085 0.0
C106 C 0.27855 0.88748 0.55614 0.0
C107 C 0.34747 0.90697 0.57108 0.0
C108 C 0.26166 0.88034 0.57607 0.0
C109 C 0.32224 0.89954 0.55331 0.0
C110 C 0.274 0.86868 0.61416 0.0
C111 C 0.1627 0.79448 0.6587 0.0
H112 H 0.14857 0.80054 0.74519 0.0
H113 H 0.09106 0.65252 0.73624 0.0
H114 H 0.08157 0.78154 0.76164 0.0
H115 H 0.16005 0.67171 0.72024 0.0
H116 H 0.35202 0.90336 0.60401 0.0
H117 H 0.258 0.8814 0.54295 0.0
H118 H 0.38077 0.91763 0.56975 0.0
H119 H 0.22869 0.86885 0.57769 0.0
Eu120 Eu 0.98808 0.48792 0.94219 0.0
Eu121 Eu 0.93769 0.4709 0.89901 0.0
C122 C 0.89181 0.45549 0.94339 0.0
C123 C 1.00741 0.54686 0.98956 0.0
C124 C 1.02791 0.55729 1.00807 0.0
C125 C 0.94648 0.59313 0.99881 0.0
C126 C 1.00712 0.58457 1.02221 0.0
C127 C 0.96725 0.56599 0.98474 0.0
C128 C 0.96548 0.60148 1.01799 0.0
C129 C 1.02508 0.51364 0.97576 0.0
O130 O 0.90468 0.53018 0.91219 0.0
O131 O 0.96245 0.55291 0.93126 0.0
C132 C 0.9241 0.56011 0.92311 0.0
O133 O 0.03495 0.47759 0.91664 0.0
O134 O 0.88414 0.47739 0.87674 0.0
O135 O 0.9445 0.44736 0.86748 0.0
O136 O 0.99513 0.5173 0.89531 0.0
C137 C 0.03362 0.50753 0.90269 0.0
O138 O 0.98948 0.41483 0.93981 0.0
O139 O 0.97348 0.40763 0.90529 0.0
O140 O 0.89714 0.43827 0.92478 0.0
O141 O 1.00182 0.47851 0.97478 0.0
O142 O 0.03663 0.52748 0.95756 0.0
O143 O 0.91774 0.4859 0.94972 0.0
C144 C 0.90577 0.4849 0.84132 0.0
C145 C 0.87182 0.47762 0.82732 0.0
C146 C 0.93951 0.53227 0.81592 0.0
C147 C 0.87157 0.49756 0.80784 0.0
C148 C 0.93964 0.51246 0.83538 0.0
C149 C 0.90537 0.52537 0.80181 0.0
C150 C 0.90675 0.46161 0.86141 0.0
C151 C 0.98664 0.39108 0.92296 0.0
H152 H 0.05884 0.54277 1.01201 0.0
H153 H 0.91449 0.60558 0.99517 0.0
H154 H 1.02226 0.5898 1.03704 0.0
H155 H 0.9508 0.55815 0.97054 0.0
H156 H 0.84544 0.45629 0.83143 0.0
H157 H 0.96654 0.55282 0.81189 0.0
H158 H 0.84442 0.49176 0.79766 0.0
H159 H 0.96649 0.51842 0.84573 0.0
Eu160 Eu 0.73581 0.86078 0.945 0.0
Eu161 Eu 0.72663 0.81435 0.89994 0.0
C162 C 0.76375 0.7607 0.93659 0.0
C163 C 0.75853 0.89204 1.00406 0.0
C164 C 0.79389 0.86739 1.01137 0.0
C165 C 0.75071 0.92279 1.03862 0.0
C166 C 0.80796 0.87112 1.03198 0.0
C167 C 0.73652 0.91881 1.01814 0.0
C168 C 0.78743 0.90001 1.04574 0.0
C169 C 0.74835 0.896 0.98159 0.0
O170 O 0.65977 0.83127 0.91176 0.0
O171 O 0.67425 0.82029 0.94559 0.0
C172 C 0.64645 0.82025 0.93019 0.0
O173 O 0.7017 0.91091 0.92374 0.0
O174 O 0.68641 0.7757 0.87942 0.0
O175 O 0.74906 0.79803 0.86896 0.0
O176 O 0.72539 0.88419 0.89259 0.0
C177 C 0.70753 0.91486 0.9035 0.0
O178 O 0.78675 0.88924 0.92423 0.0
O179 O 0.79837 0.82865 0.90486 0.0
O180 O 0.73432 0.76037 0.92218 0.0
O181 O 0.70995 0.88612 0.97456 0.0
O182 O 0.77897 0.88722 0.96835 0.0
O183 O 0.77514 0.79732 0.94545 0.0
C184 C 0.69063 0.80611 0.84655 0.0
C185 C 0.67195 0.84687 0.85033 0.0
C186 C 0.68161 0.81729 0.80997 0.0
C187 C 0.66037 0.87364 0.83398 0.0
C188 C 0.69411 0.79084 0.82634 0.0
C189 C 0.66628 0.85945 0.8137 0.0
C190 C 0.71132 0.7829 0.86357 0.0
C191 C 0.81165 0.86611 0.91206 0.0
H192 H 0.8119 0.84667 1.00093 0.0
H193 H 0.73372 0.94501 0.04874 0.0
H194 H 0.83646 0.85326 1.0368 0.0
H195 H 0.70946 0.93848 1.01304 0.0
H196 H 0.66853 0.85896 0.8659 0.0
H197 H 0.6871 0.8061 0.79435 0.0
H198 H 0.64894 0.90608 0.8371 0.0
H199 H 0.7086 0.7596 0.82318 0.0
Eu200 Eu 0.45438 0.4637 0.70387 0.0
Eu201 Eu 0.52662 0.47087 0.66758 0.0
C202 C 0.54532 0.50597 0.70905 0.0
C203 C 0.4081 0.48517 0.75862 0.0
C204 C 0.43228 0.52292 0.76168 0.0
C205 C 0.38023 0.4922 0.79384 0.0
C206 C 0.43021 0.54524 0.78054 0.0
C207 C 0.38231 0.46991 0.77494 0.0
C208 C 0.40393 0.53045 0.79693 0.0
C209 C 0.41165 0.45996 0.73912 0.0
O210 O 0.52279 0.39834 0.67041 0.0
O211 O 0.48945 0.39811 0.70221 0.0
C212 C 0.50959 0.37774 0.68698 0.0
O213 O 0.4186 0.43463 0.67587 0.0
O214 O 0.55572 0.4819 0.63738 0.0
O215 O 0.59647 0.48083 0.66446 0.0
O216 O 0.46849 0.44935 0.64989 0.0
C217 C 0.43036 0.43526 0.65607 0.0
O218 O 0.42754 0.51768 0.68461 0.0
O219 O 0.49236 0.53674 0.66967 0.0
O220 O 0.55242 0.46981 0.69959 0.0
O221 O 0.39571 0.47684 0.72232 0.0
O222 O 0.44909 0.44159 0.7357 0.0
O223 O 0.50437 0.51631 0.71049 0.0
C224 C 0.61007 0.53522 0.64031 0.0
C225 C 0.58113 0.56851 0.63528 0.0
C226 C 0.67025 0.58465 0.63528 0.0
C227 C 0.59656 0.6085 0.62903 0.0
C228 C 0.65461 0.54413 0.64128 0.0
C229 C 0.64155 0.6166 0.62782 0.0
C230 C 0.59337 0.49198 0.64521 0.0
C231 C 0.45113 0.54485 0.67396 0.0
H232 H 0.453 0.53503 0.7495 0.0
H233 H 0.35928 0.47993 0.80588 0.0
H234 H 0.44949 0.57412 0.78229 0.0
H235 H 0.36371 0.44059 0.77307 0.0
H236 H 0.54642 0.56313 0.63523 0.0
H237 H 0.70494 0.58993 0.63538 0.0
H238 H 0.57275 0.63145 0.62354 0.0
H239 H 0.67739 0.51938 0.64606 0.0
Eu240 Eu 0.81468 0.17916 0.44395 0.0
Eu241 Eu 0.82351 0.24076 0.40383 0.0
C242 C 0.76119 0.26852 0.43909 0.0
C243 C 0.78545 0.13415 0.49907 0.0
C244 C 0.80484 0.14746 0.51766 0.0
C245 C 0.72269 0.11016 0.51904 0.0
C246 C 0.78341 0.1424 0.53667 0.0
C247 C 0.7441 0.11522 0.50006 0.0
C248 C 0.74189 0.12375 0.53769 0.0
C249 C 0.81012 0.13717 0.47921 0.0
O250 O 0.87574 0.25831 0.42701 0.0
O251 O 0.88642 0.19077 0.43896 0.0
C252 C 0.90186 0.22904 0.43473 0.0
O253 O 0.83361 0.13463 0.41655 0.0
O254 O 0.833 0.30736 0.39409 0.0
O255 O 0.82863 0.25631 0.37124 0.0
O256 O 0.86784 0.18555 0.39695 0.0
C257 C 0.85735 0.14525 0.40021 0.0
O258 O 0.75045 0.17061 0.42794 0.0
O259 O 0.77069 0.1925 0.39531 0.0
O260 O 0.76278 0.26142 0.41936 0.0
O261 O 0.83384 0.17139 0.47624 0.0
O262 O 0.79169 0.1242 0.46219 0.0
O263 O 0.78741 0.24703 0.4515 0.0
C264 C 0.88028 0.30996 0.36574 0.0
C265 C 0.91932 0.29134 0.37256 0.0
C266 C 0.91817 0.34126 0.33681 0.0
C267 C 0.95713 0.29557 0.36082 0.0
C268 C 0.8804 0.33686 0.34851 0.0
C269 C 0.95613 0.31817 0.34206 0.0
C270 C 0.83903 0.29644 0.37486 0.0
C271 C 0.7439 0.17223 0.40791 0.0
H272 H 0.83693 0.16159 0.51753 0.0
H273 H 0.69115 0.0949 0.51907 0.0
H274 H 0.79922 0.15363 0.55054 0.0
H275 H 0.72834 0.10384 0.48619 0.0
H276 H 0.91976 0.27071 0.38603 0.0
H277 H 0.91597 0.35869 0.3224 0.0
H278 H 0.98584 0.27762 0.36531 0.0
H279 H 0.85056 0.35166 0.34316 0.0
Eu280 Eu 0.12832 0.54494 0.20045 0.0
Eu281 Eu 0.06704 0.52114 0.16162 0.0
C282 C 0.03633 0.50463 0.20392 0.0
C283 C 0.16439 0.54712 0.25829 0.0
C284 C 0.1251 0.53501 0.26753 0.0
C285 C 0.20001 0.53696 0.2917 0.0
C286 C 0.12329 0.5238 0.2885 0.0
C287 C 0.20164 0.54862 0.27071 0.0
C288 C 0.16096 0.52317 0.30104 0.0
C289 C 0.16655 0.5605 0.23617 0.0
O290 O 0.06312 0.59391 0.16107 0.0
O291 O 0.09087 0.60759 0.19338 0.0
C292 C 0.0717 0.62083 0.17625 0.0
O293 O 0.16463 0.57316 0.17221 0.0
O294 O 1.0133 0.47743 0.15553 0.0
O295 O 0.03548 0.52143 0.13171 0.0
O296 O 0.12953 0.5364 0.14594 0.0
C297 C 0.16117 0.56121 0.15251 0.0
O298 O 0.16605 0.49245 0.18417 0.0
O299 O 0.10912 0.46139 0.16702 0.0
O300 O 0.03264 0.536 0.19092 0.0
O301 O 0.18101 0.53264 0.2227 0.0
O302 O 0.13358 0.58217 0.22898 0.0
O303 O 0.07645 0.49463 0.20832 0.0
C304 C 0.96084 0.50856 0.13388 0.0
C305 C 0.94539 0.54693 0.14282 0.0
C306 C 0.89978 0.5083 0.11067 0.0
C307 C 0.90904 0.56765 0.13454 0.0
C308 C 0.93604 0.48767 0.11896 0.0
C309 C 0.88879 0.55065 0.11689 0.0
C310 C 1.00548 0.49427 0.1375 0.0
C311 C 0.14991 0.46078 0.17309 0.0
H312 H 0.09552 0.53445 0.25856 0.0
H313 H 0.23002 0.53762 0.30025 0.0
H314 H 0.09175 0.51599 0.29469 0.0
H315 H 0.23237 0.55842 0.26411 0.0
H316 H 0.96383 0.56293 0.15478 0.0
H317 H 0.8847 0.49353 0.09737 0.0
H318 H 0.90065 0.59962 0.14007 0.0
H319 H 0.9471 0.45751 0.11224 0.0
Eu320 Eu 0.81917 0.72976 0.6828 0.0
Eu321 Eu 0.82682 0.66196 0.64495 0.0
C322 C 0.85878 0.63462 0.69208 0.0
C323 C 0.80316 0.83792 0.71127 0.0
C324 C 0.82535 0.85581 0.72799 0.0
C325 C 0.76639 0.90649 0.70594 0.0
C326 C 0.8151 0.89736 0.73474 0.0
C327 C 0.7763 0.86469 0.6993 0.0
C328 C 0.78152 0.92102 0.72514 0.0
C329 C 0.80167 0.79059 0.70918 0.0
O330 O 0.78082 0.62691 0.66523 0.0
O331 O 0.75867 0.68569 0.68422 0.0
C332 C 0.75417 0.64492 0.67845 0.0
O333 O 0.81695 0.7642 0.65276 0.0
O334 O 0.80295 0.61103 0.62418 0.0
O335 O 0.85851 0.64896 0.61545 0.0
O336 O 0.77477 0.71432 0.63929 0.0
C337 C 0.78325 0.75542 0.64171 0.0
O338 O 0.88954 0.73956 0.67411 0.0
O339 O 0.89509 0.6893 0.648 0.0
O340 O 0.8554 0.62323 0.67231 0.0
O341 O 0.77334 0.77483 0.69629 0.0
O342 O 0.83834 0.76931 0.7092 0.0
O343 O 0.84634 0.67255 0.69899 0.0
C344 C 0.81442 0.62227 0.58798 0.0
C345 C 0.81922 0.65981 0.57606 0.0
C346 C 0.78219 0.58672 0.55802 0.0
C347 C 0.80571 0.66079 0.55542 0.0
C348 C 0.79594 0.58571 0.57867 0.0
C349 C 0.78663 0.62439 0.54607 0.0
C350 C 0.83067 0.61987 0.60961 0.0
C351 C 0.91237 0.71884 0.66007 0.0
H352 H 0.84694 0.83609 0.73722 0.0
H353 H 0.74158 0.9245 0.69782 0.0
H354 H 0.82866 0.9076 0.74931 0.0
H355 H 0.75926 0.85191 0.68614 0.0
H356 H 0.83362 0.68851 0.58263 0.0
H357 H 0.76711 0.55825 0.5516 0.0
H358 H 0.8103 0.69028 0.54678 0.0
H359 H 0.79204 0.55624 0.58743 0.0
Eu360 Eu 0.06869 0.05963 0.94427 0.0
Eu361 Eu 0.11257 0.05582 0.8975 0.0
C362 C 0.16109 0.09372 0.93732 0.0
C363 C 1.02839 0.10774 0.99422 0.0
C364 C 0.05289 0.14547 0.99158 0.0
C365 C 1.00135 0.13542 1.02665 0.0
C366 C 0.0533 0.17711 1.00699 0.0
C367 C 1.00115 0.10387 1.01132 0.0
C368 C 1.02917 0.17137 1.02521 0.0
C369 C 0.03472 0.07044 0.98061 0.0
O370 O 0.13424 0.99389 0.91282 0.0
O371 O 0.11806 1.00534 0.9472 0.0
C372 C 0.13686 0.9829 0.93239 0.0
O373 O 0.0365 1.00535 0.92763 0.0
O374 O 0.15386 0.07563 0.87086 0.0
O375 O 0.11155 1.01908 0.86906 0.0
O376 O 0.04046 0.03856 0.89655 0.0
C377 C 1.02266 1.00975 0.90879 0.0
O378 O 0.0405 0.11708 0.92711 0.0
O379 O 0.08914 0.12537 0.90035 0.0
O380 O 0.16678 0.06794 0.92129 0.0
O381 O 1.01159 0.06956 0.96376 0.0
O382 O 0.07513 0.05915 0.97753 0.0
O383 O 0.12199 0.10751 0.94129 0.0
C384 C 0.15231 0.03415 0.83777 0.0
C385 C 0.12853 1.00398 0.82619 0.0
C386 C 0.20083 0.04262 0.80812 0.0
C387 C 0.14069 0.99314 0.80598 0.0
C388 C 0.18842 0.05369 0.8284 0.0
C389 C 0.17723 1.01196 0.7966 0.0
C390 C 0.13961 0.0435 0.85963 0.0
C391 C 0.05804 0.14067 0.91241 0.0
H392 H 0.0737 0.14918 0.97823 0.0
H393 H 0.98267 0.12931 1.04048 0.0
H394 H 0.07473 0.20448 1.00528 0.0
H395 H 0.98188 0.07506 1.01351 0.0
H396 H 0.10051 0.98817 0.83282 0.0
H397 H 0.22895 0.05814 0.80145 0.0
H398 H 0.122 0.96892 0.79793 0.0
H399 H 0.20749 0.07705 0.83683 0.0
Eu400 Eu 0.77364 0.27045 0.1862 0.0
Eu401 Eu 0.74783 0.33354 0.14883 0.0
C402 C 0.72527 0.36007 0.19723 0.0
C403 C 0.85085 0.21739 0.22217 0.0
C404 C 0.86209 0.25748 0.2305 0.0
C405 C 0.91797 0.18687 0.23543 0.0
C406 C 0.90017 0.26201 0.24173 0.0
C407 C 0.87942 0.18232 0.22425 0.0
C408 C 0.92843 0.22664 0.24467 0.0
C409 C 0.81167 0.21366 0.20954 0.0
O410 O 0.80065 0.37178 0.16332 0.0
O411 O 0.82992 0.31876 0.18384 0.0
C412 C 0.83075 0.35812 0.17603 0.0
O413 O 0.76455 0.23848 0.15576 0.0
O414 O 0.74318 0.39129 0.12938 0.0
O415 O 0.72532 0.32897 0.11696 0.0
O416 O 0.80474 0.28795 0.14177 0.0
C417 C 0.79684 0.24684 0.14368 0.0
O418 O 0.70104 0.2602 0.18583 0.0
O419 O 0.68632 0.29446 0.15505 0.0
O420 O 0.71691 0.36688 0.17733 0.0
O421 O 0.77774 0.2361 0.21549 0.0
O422 O 0.81895 0.217 0.18983 0.0
O423 O 0.74992 0.32797 0.20355 0.0
C424 C 0.75252 0.38023 0.09268 0.0
C425 C 0.78523 0.41151 0.09087 0.0
C426 C 0.75368 0.37209 0.05508 0.0
C427 C 0.80152 0.42325 0.07143 0.0
C428 C 0.73732 0.36043 0.07454 0.0
C429 C 0.78552 0.40424 0.05317 0.0
C430 C 0.73181 0.36969 0.11293 0.0
C431 C 0.67383 0.27115 0.17103 0.0
H432 H 0.8411 0.28534 0.22855 0.0
H433 H 0.93904 0.15907 0.2372 0.0
H434 H 0.90615 0.29296 0.24891 0.0
H435 H 0.87185 0.15146 0.2173 0.0
H436 H 0.79786 0.42748 0.10444 0.0
H437 H 0.74018 0.35698 1.04149 0.0
H438 H 0.82654 0.44763 0.07072 0.0
H439 H 0.71189 0.33647 0.07535 0.0
Eu440 Eu 0.50872 1.00368 0.43367 0.0
Eu441 Eu 0.45007 0.97633 0.3947 0.0
C442 C 0.41851 0.95474 0.4423 0.0
C443 C 0.54719 0.07388 0.47564 0.0
C444 C 0.5046 0.07493 0.48314 0.0
C445 C 0.56417 0.13653 0.49662 0.0
C446 C 0.49225 0.10531 0.49777 0.0
C447 C 0.57673 0.10541 0.48205 0.0
C448 C 0.52192 0.13627 0.50506 0.0
C449 C 0.559 0.04148 0.46012 0.0
O450 O 0.40808 1.027 0.40897 0.0
O451 O 0.4588 0.05843 0.42996 0.0
C452 C 0.41985 0.05798 0.42152 0.0
O453 O 0.54683 0.99557 0.40465 0.0
O454 O 0.3955 0.97907 0.37288 0.0
O455 O 0.45417 0.94482 0.36469 0.0
O456 O 0.49672 0.03167 0.38793 0.0
C457 C 0.53802 1.02519 0.39125 0.0
O458 O 0.51962 0.93151 0.43355 0.0
O459 O 0.4905 0.91634 0.40165 0.0
O460 O 0.414 0.9458 0.42232 0.0
O461 O 0.54292 1.00294 0.46302 0.0
O462 O 0.55474 0.05456 0.44112 0.0
O463 O 0.44938 0.97967 0.44946 0.0
C464 C 0.41666 0.97944 0.33739 0.0
C465 C 0.45208 1.00381 0.3304 0.0
C466 C 0.38157 0.99078 0.30407 0.0
C467 C 0.45227 1.02142 0.3105 0.0
C468 C 0.38153 0.97294 0.32399 0.0
C469 C 0.41686 1.01558 0.29704 0.0
C470 C 0.41688 0.95942 0.35822 0.0
C471 C 0.51154 0.90437 0.41839 0.0
H472 H 0.48092 0.05153 0.47799 0.0
H473 H 0.58783 0.16004 0.50158 0.0
H474 H 0.45982 0.10269 0.50405 0.0
H475 H 0.60948 0.10572 0.47593 0.0
H476 H 0.47979 1.00916 0.34031 0.0
H477 H 0.35347 0.98596 0.29436 0.0
H478 H 0.48039 0.03964 0.30567 0.0
H479 H 0.3539 0.9541 0.32897 0.0
Eu480 Eu 0.23473 0.3655 0.45229 0.0
Eu481 Eu 0.22456 0.32469 0.40586 0.0
C482 C 0.27533 0.26882 0.44019 0.0
C483 C 0.26443 0.3965 0.50938 0.0
C484 C 0.29827 0.36678 0.51258 0.0
C485 C 0.27691 0.42524 0.54401 0.0
C486 C 0.32137 0.3665 0.53127 0.0
C487 C 0.25391 0.42551 0.52532 0.0
C488 C 0.31126 0.39592 0.54728 0.0
C489 C 0.23853 0.39691 0.49004 0.0
O490 O 0.17391 0.29078 0.42518 0.0
O491 O 0.16397 0.3476 0.44707 0.0
C492 C 0.14905 0.31264 0.43799 0.0
O493 O 0.22427 0.42142 0.42882 0.0
O494 O 0.18176 0.31171 0.37993 0.0
O495 O 0.25084 0.30022 0.37692 0.0
O496 O 0.18016 0.38101 0.4094 0.0
C497 C 0.19658 0.41857 0.41333 0.0
O498 O 0.30144 0.36374 0.43886 0.0
O499 O 0.28051 0.37373 0.40558 0.0
O500 O 0.26136 0.27231 0.42122 0.0
O501 O 0.25471 0.41632 0.47392 0.0
O502 O 0.21862 0.36132 0.48505 0.0
O503 O 0.26821 0.29887 0.45442 0.0
C504 C 0.21482 0.33366 0.34895 0.0
C505 C 0.17609 0.35079 0.3409 0.0
C506 C 0.25562 0.37632 0.32444 0.0
C507 C 0.17719 0.38069 0.32483 0.0
C508 C 0.25453 0.34641 0.34037 0.0
C509 C 0.21705 0.39443 0.31661 0.0
C510 C 0.21405 0.30548 0.36725 0.0
C511 C 0.30929 0.3789 0.42042 0.0
H512 H 0.30678 0.34374 0.50065 0.0
H513 H 0.26838 0.44876 0.55571 0.0
H514 H 0.34713 0.34299 0.53319 0.0
H515 H 0.22777 0.44861 0.52329 0.0
H516 H 0.14491 0.34145 0.34718 0.0
H517 H 0.28697 0.3842 0.31793 0.0
H518 H 0.14679 0.39296 0.31891 0.0
H519 H 0.285 0.33355 0.34602 0.0
Eu520 Eu 0.95151 0.95906 0.19738 0.0
Eu521 Eu 1.0158 0.96707 0.15807 0.0
C522 C 0.04123 1.00423 0.19889 0.0
C523 C 0.90835 0.98199 0.25285 0.0
C524 C 0.94187 1.00954 0.25917 0.0
C525 C 0.8693 0.99962 0.28471 0.0
C526 C 0.93922 0.03174 0.27803 0.0
C527 C 0.87208 0.97728 0.26583 0.0
C528 C 0.90283 1.02733 0.29115 0.0
C529 C 0.91189 0.95619 0.23348 0.0
O530 O 1.01384 0.89443 0.16182 0.0
O531 O 0.99005 0.89571 0.19545 0.0
C532 C 1.00678 0.87474 0.17949 0.0
O533 O 0.9134 0.92521 0.17123 0.0
O534 O 0.03834 0.98465 0.12729 0.0
O535 O 0.085 0.97098 0.15121 0.0
O536 O 0.95576 0.94301 0.14275 0.0
C537 C 0.92029 0.92689 0.15093 0.0
O538 O 0.91866 1.0084 0.1778 0.0
O539 O 0.97879 0.03166 0.16024 0.0
O540 O 0.04775 0.96874 0.18882 0.0
O541 O 0.89405 0.97165 0.21683 0.0
O542 O 0.94959 0.93873 0.22957 0.0
O543 O 1.00043 1.01392 0.20181 0.0
C544 C 0.09832 0.03037 0.12998 0.0
C545 C 0.12641 0.03733 0.11342 0.0
C546 C 0.09642 0.10747 0.13686 0.0
C547 C 0.13767 0.07938 0.10793 0.0
C548 C 0.08522 0.06538 0.14232 0.0
C549 C 0.12043 0.11509 0.11881 0.0
C550 C 0.07868 0.98785 0.13312 0.0
C551 C 0.93761 0.03625 0.16559 0.0
H552 H 0.97043 1.01358 0.2496 0.0
H553 H 0.8405 0.99565 0.29408 0.0
H554 H 0.96616 0.05206 0.28241 0.0
H555 H 0.84585 0.95607 0.2614 0.0
H556 H 0.13711 1.01061 0.10386 0.0
H557 H 0.08301 0.13413 0.14567 0.0
H558 H 0.15605 0.08381 0.09385 0.0
H559 H 0.06376 0.06043 0.15532 0.0
Eu560 Eu 0.32776 0.68162 0.95124 0.0
Eu561 Eu 0.29805 0.7301 0.90932 0.0
C562 C 0.28205 0.77296 0.9499 0.0
C563 C 0.32321 0.6382 1.00795 0.0
C564 C 0.29874 0.66753 1.01994 0.0
C565 C 0.31099 0.58348 1.03433 0.0
C566 C 0.28039 0.65478 1.03889 0.0
C567 C 0.32935 0.59621 1.01553 0.0
C568 C 0.2859 0.61237 1.04627 0.0
C569 C 0.34465 0.65087 0.98819 0.0
O570 O 0.37048 0.74335 0.90958 0.0
O571 O 0.38633 0.72246 0.94293 0.0
C572 C 0.39765 0.74046 0.92529 0.0
O573 O 0.36292 0.64555 0.92458 0.0
O574 O 0.2951 0.74579 0.87658 0.0
O575 O 0.25139 0.77759 0.89816 0.0
O576 O 0.31563 0.66424 0.89868 0.0
C577 C 0.34822 0.64119 0.90542 0.0
O578 O 0.27407 0.64003 0.93954 0.0
O579 O 0.23964 0.692 0.92081 0.0
O580 O 0.30926 0.77655 0.93477 0.0
O581 O 0.33817 0.62665 0.97202 0.0
O582 O 0.34585 0.69177 0.98345 0.0
O583 O 0.27504 0.73357 0.95656 0.0
C584 C 0.22108 0.74925 0.86831 0.0
C585 C 0.21006 0.70603 0.87195 0.0
C586 C 0.15778 0.75654 0.84653 0.0
C587 C 0.17322 0.68814 0.86304 0.0
C588 C 0.19433 0.77471 0.85587 0.0
C589 C 0.14706 0.71277 0.8498 0.0
C590 C 0.25882 0.76739 0.87893 0.0
C591 C 0.24043 0.6532 0.92897 0.0
H592 H 0.2936 0.7003 1.01469 0.0
H593 H 0.31659 0.55076 1.03957 0.0
H594 H 0.26102 0.67783 1.04751 0.0
H595 H 0.3486 0.57308 1.00688 0.0
H596 H 0.23027 0.68582 0.88158 0.0
H597 H 0.13915 0.7764 0.83604 0.0
H598 H 0.166 0.6546 0.8661 0.0
H599 H 0.20206 0.80828 0.85311 0.0
Eu600 Eu 0.61558 0.04209 0.69698 0.0
Eu601 Eu 0.5488 1.02151 0.66045 0.0
C602 C 0.5324 0.98725 0.70248 0.0
C603 C 0.65892 0.04245 0.75432 0.0
C604 C 0.63098 1.01599 0.76596 0.0
C605 C 0.69494 0.06294 0.78635 0.0
C606 C 0.63622 1.01173 0.78743 0.0
C607 C 0.68992 0.06689 0.76493 0.0
C608 C 0.66962 0.03371 0.79789 0.0
C609 C 0.66084 0.04017 0.73131 0.0
O610 O 0.53752 0.09223 0.6699 0.0
O611 O 0.59045 0.10976 0.69333 0.0
C612 C 0.55791 0.12088 0.68144 0.0
O613 O 0.6527 0.06337 0.66756 0.0
O614 O 0.47865 1.01391 0.65961 0.0
O615 O 0.51643 1.00715 0.63139 0.0
O616 O 0.59788 0.05938 0.64319 0.0
C617 C 0.6377 0.06943 0.64849 0.0
O618 O 0.645 0.98501 0.67935 0.0
O619 O 0.59814 0.96994 0.65251 0.0
O620 O 0.5484 0.97231 0.68553 0.0
O621 O 0.65548 0.07524 0.72037 0.0
O622 O 0.6438 1.00638 0.72249 0.0
O623 O 0.54662 1.02542 0.70758 0.0
C624 C 0.45081 0.0455 0.62947 0.0
C625 C 0.45079 0.08805 0.63706 0.0
C626 C 0.41748 0.0709 0.598 0.0
C627 C 0.43733 0.12213 0.62456 0.0
C628 C 0.4317 0.03685 0.61039 0.0
C629 C 0.42311 0.11392 0.60445 0.0
C630 C 0.47776 1.01239 0.63947 0.0
C631 C 0.63414 0.9624 0.66283 0.0
H632 H 0.60672 0.99654 0.75833 0.0
H633 H 0.72009 0.08169 0.7937 0.0
H634 H 0.61609 0.98871 0.7955 0.0
H635 H 0.71186 0.08764 0.75648 0.0
H636 H 0.46459 0.09547 0.65194 0.0
H637 H 0.40709 0.06371 0.58244 0.0
H638 H 0.44218 0.15497 0.62979 0.0
H639 H 0.4313 1.00427 0.6043 0.0
H640 H 0.23835 0.43456 0.22635 0.0
H641 H 0.36307 0.47301 0.24955 0.0
H642 H 0.33145 0.48543 0.28355 0.0
H643 H 0.27829 0.45512 0.30779 0.0
H644 H 0.15981 0.40006 0.28417 0.0
H645 H 0.17789 0.42502 0.24983 0.0
C646 C 0.25838 0.44766 0.23856 0.0
C647 C 0.30379 0.4486 0.23617 0.0
C648 C 0.24108 0.44931 0.25848 0.0
C649 C 0.32835 0.46936 0.25147 0.0
C650 C 0.31046 0.47536 0.27108 0.0
C651 C 0.25618 0.44896 0.29516 0.0
C652 C 0.2192 0.42325 0.29835 0.0
C653 C 0.26846 0.46016 0.27511 0.0
C654 C 0.18922 0.41855 0.28219 0.0
C655 C 0.19972 0.43256 0.26239 0.0
H656 H 0.60419 0.69656 0.6208 0.0
H657 H 0.7157 0.61943 0.60377 0.0
H658 H 0.71558 0.65132 0.56991 0.0
H659 H 0.66731 0.67436 0.54247 0.0
H660 H 0.54599 0.73659 0.55746 0.0
H661 H 0.56544 0.73678 0.59398 0.0
C662 C 0.62903 0.68725 0.60978 0.0
C663 C 0.65719 0.6525 0.61433 0.0
C664 C 0.62578 0.70185 0.58938 0.0
C665 C 0.69188 0.6443 0.60067 0.0
C666 C 0.69159 0.66213 0.58095 0.0
C667 C 0.64617 0.69013 0.55357 0.0
C668 C 0.6048 0.70429 0.54743 0.0
C669 C 0.65597 0.68685 0.57458 0.0
C670 C 0.57769 0.72469 0.56196 0.0
C671 C 0.5887 0.72445 0.58286 0.0
H672 H 0.08367 0.63663 0.77068 0.0
H673 H 1.01145 0.75573 0.77082 0.0
H674 H 1.01684 0.75948 0.80827 0.0
H675 H 0.06897 0.74542 0.83653 0.0
H676 H 0.14962 0.6311 0.83352 0.0
H677 H 0.11353 0.60856 0.80237 0.0
C678 C 0.06723 0.66254 0.77883 0.0
C679 C 0.05238 0.69899 0.76797 0.0
C680 C 0.07385 0.66614 0.80009 0.0
C681 C 1.02687 0.72922 0.77889 0.0
C682 C 1.03061 0.73182 0.80033 0.0
C683 C 0.07778 0.71498 0.82936 0.0
C684 C 0.11373 0.69146 0.83675 0.0
C685 C 0.05873 0.70332 0.81056 0.0
C686 C 0.12297 0.65077 0.82802 0.0
C687 C 0.10246 0.6378 0.80996 0.0
H688 H 0.88343 0.5798 1.02828 0.0
H689 H 0.98881 0.6628 1.04624 0.0
H690 H 0.95824 0.669 0.08085 0.0
H691 H 0.91845 0.63018 0.10712 0.0
H692 H 0.82043 0.53817 0.08989 0.0
H693 H 0.82872 0.55876 0.05382 0.0
C694 C 0.89856 0.60098 1.03946 0.0
C695 C 0.9391 0.61965 1.03503 0.0
C696 C 0.88217 0.60227 0.05961 0.0
C697 C 0.95819 0.64721 0.04956 0.0
C698 C 0.94075 0.65063 0.06936 0.0
C699 C 0.89716 0.61603 0.09571 0.0
C700 C 0.87116 0.58037 0.10096 0.0
C701 C 0.90511 0.62512 0.07493 0.0
C702 C 0.84225 0.5643 0.08608 0.0
C703 C 0.84761 0.57549 0.06538 0.0
H704 H 0.71744 0.92841 0.80944 0.0
H705 H 0.61541 0.85772 0.77945 0.0
H706 H 0.63423 0.89091 0.74648 0.0
H707 H 0.69334 0.91911 0.72607 0.0
H708 H 0.80198 0.98073 0.75549 0.0
H709 H 0.76576 0.97465 0.78878 0.0
C710 C 0.6982 0.9219 0.79581 0.0
C711 C 0.66562 0.8904 0.79657 0.0
C712 C 0.71108 0.9389 0.77678 0.0
C713 C 0.6408 0.88176 0.77899 0.0
C714 C 0.65181 0.90049 0.76018 0.0
C715 C 0.70851 0.9332 0.73953 0.0
C716 C 0.75207 0.9468 0.73865 0.0
C717 C 0.68906 0.92619 0.75871 0.0
C718 C 0.7694 0.96778 0.75599 0.0
C719 C 0.74902 0.96353 0.77513 0.0
H720 H 0.98134 0.29562 0.25242 0.0
H721 H 0.95569 0.16534 0.27231 0.0
H722 H 0.98391 0.18194 0.30621 0.0
H723 H 0.98484 0.2386 0.33211 0.0
H724 H 0.99519 0.37172 0.31367 0.0
H725 H 1.00471 0.34944 0.27782 0.0
C726 C 0.98296 0.27057 0.26405 0.0
C727 C 0.96369 0.23019 0.26022 0.0
C728 C 0.99523 0.28149 0.28418 0.0
C729 C 0.96879 0.19722 0.27491 0.0
C730 C 0.98442 0.20688 0.29453 0.0
C731 C 0.9916 0.26276 0.32046 0.0
C732 C 0.98697 0.30683 0.32529 0.0
C733 C 0.99311 0.24985 0.29979 0.0
C734 C 0.9971 0.33758 0.31014 0.0
C735 C 1.00192 0.32482 0.28959 0.0
H736 H 0.04879 0.16584 0.11546 0.0
H737 H 0.18314 0.15943 0.09722 0.0
H738 H 0.16565 0.1951 0.06478 0.0
H739 H 0.10922 0.19671 1.03807 0.0
H740 H 0.97432 0.19971 0.05601 0.0
H741 H 0.9951 0.19759 0.0922 0.0
C742 C 0.0748 0.17425 0.10493 0.0
C743 C 0.11673 0.15711 0.10793 0.0
C744 C 0.06398 0.19243 0.08585 0.0
C745 C 0.15017 0.17016 0.09461 0.0
C746 C 0.14004 0.19006 0.07593 0.0
C747 C 0.08424 0.19944 0.04981 0.0
C748 C 0.04019 0.19531 1.04439 0.0
C749 C 0.09643 0.19659 0.07058 0.0
C750 C 1.0085 0.20055 0.05985 0.0
C751 C 1.02037 0.19909 0.08058 0.0
H752 H 0.44223 0.16908 0.51593 0.0
H753 H 0.57538 0.16344 0.53651 0.0
H754 H 0.55188 0.1753 0.57171 0.0
H755 H 0.49522 0.15788 0.59644 0.0
H756 H 0.36358 0.14136 0.57584 0.0
H757 H 0.38383 0.16666 0.54144 0.0
C758 C 0.46622 0.17085 0.5281 0.0
C759 C 0.51026 0.1624 0.52361 0.0
C760 C 0.45225 0.17219 0.54864 0.0
C761 C 0.5411 0.16839 0.53932 0.0
C762 C 0.52762 0.17449 0.55966 0.0
C763 C 0.47055 0.16199 0.58468 0.0
C764 C 0.42821 0.14718 0.58841 0.0
C765 C 0.48339 0.17199 0.56457 0.0
C766 C 0.39643 0.15236 0.57315 0.0
C767 C 0.40822 0.16625 0.55345 0.0
H768 H 0.15636 0.1479 0.9699 0.0
H769 H 0.23763 0.04818 0.94375 0.0
H770 H 0.28121 0.04697 0.97542 0.0
H771 H 0.2923 0.07059 1.01188 0.0
H772 H 0.20783 0.16866 1.03729 0.0
H773 H 0.16866 0.17303 1.00489 0.0
C774 C 0.1839 0.1261 0.97091 0.0
C775 C 0.19349 0.09807 0.95431 0.0
C776 C 0.20768 0.12458 0.98935 0.0
C777 C 0.22955 0.07036 0.95608 0.0
C778 C 0.25421 0.06937 0.97434 0.0
C779 C 0.26555 0.09315 1.01027 0.0
C780 C 0.25266 0.11874 1.02735 0.0
C781 C 0.24299 0.0957 0.99129 0.0
C782 C 0.21779 0.14768 1.02481 0.0
C783 C 0.19564 0.1506 1.00612 0.0
H784 H 0.66408 0.50217 0.2626 0.0
H785 H 0.68237 0.3931 0.30312 0.0
H786 H 0.69951 0.34743 0.27375 0.0
H787 H 0.71291 0.33826 0.23709 0.0
H788 H 0.69699 0.44546 0.19547 0.0
H789 H 0.67512 0.49174 0.22464 0.0
C790 C 0.67183 0.46841 0.26502 0.0
C791 C 0.67158 0.45138 0.28533 0.0
C792 C 0.68218 0.44187 0.24783 0.0
C793 C 0.68135 0.40731 0.2879 0.0
C794 C 0.69157 0.38105 0.27104 0.0
C795 C 0.7046 0.37177 0.23423 0.0
C796 C 0.70708 0.3883 0.21398 0.0
C797 C 0.6925 0.398 0.25101 0.0
C798 C 0.69535 0.43168 0.21078 0.0
C799 C 0.6831 0.45821 0.22753 0.0
H800 H 0.28775 0.92899 0.51618 0.0
H801 H 0.40362 0.87293 0.54252 0.0
H802 H 0.44108 0.88011 0.50981 0.0
H803 H 0.44393 0.90771 0.47459 0.0
H804 H 0.32995 0.96352 0.44705 0.0
H805 H 0.28856 0.94976 0.47888 0.0
C806 C 0.321 0.91786 0.51472 0.0
C807 C 0.34295 0.90157 0.53226 0.0
C808 C 0.34273 0.92165 0.49548 0.0
C809 C 0.38607 0.8871 0.52976 0.0
C810 C 0.40758 0.89072 0.51089 0.0
C811 C 0.40961 0.91568 0.47535 0.0
C812 C 0.38986 0.93597 0.45838 0.0
C813 C 0.38661 0.90868 0.49379 0.0
C814 C 0.34563 0.94688 0.45969 0.0
C815 C 0.32221 0.93961 0.47805 0.0
H816 H 0.90337 0.65502 0.72633 0.0
H817 H 0.84623 0.54635 0.69526 0.0
H818 H 0.85691 0.50198 0.7263 0.0
H819 H 0.87682 0.49646 0.76357 0.0
H820 H 0.93084 0.60812 0.79396 0.0
H821 H 0.92719 0.6485 0.76199 0.0
C822 C 0.89387 0.62135 0.72616 0.0
C823 C 0.87398 0.60412 0.7084 0.0
C824 C 0.89909 0.59661 0.74416 0.0
C825 C 0.8621 0.56039 0.70853 0.0
C826 C 0.86771 0.5352 0.72643 0.0
C827 C 0.88775 0.52963 0.76324 0.0
C828 C 0.90417 0.54887 0.78147 0.0
C829 C 0.88511 0.55333 0.74457 0.0
C830 C 0.91869 0.59184 0.78038 0.0
C831 C 0.91636 0.61526 0.76203 0.0
H832 H 0.87534 0.97888 0.12569 0.0
H833 H 0.89412 0.84491 0.14056 0.0
H834 H 0.85399 0.82393 0.10937 0.0
H835 H 0.81864 0.84442 0.076 0.0
H836 H 0.80041 0.9795 0.06226 0.0
H837 H 0.83472 0.99915 0.09467 0.0
C838 C 0.86933 0.94507 0.12247 0.0
C839 C 0.88674 0.91353 0.13574 0.0
C840 C 0.84684 0.93344 0.10439 0.0
C841 C 0.87996 0.86983 0.13098 0.0
C842 C 0.85754 0.8579 0.11294 0.0
C843 C 0.82194 0.87812 0.08018 0.0
C844 C 0.80667 0.91037 0.0665 0.0
C845 C 0.84167 0.88946 0.09921 0.0
C846 C 0.81118 0.95387 0.07239 0.0
C847 C 0.83105 0.96524 0.09097 0.0
H848 H 0.37303 0.66748 0.86814 0.0
H849 H 0.3685 0.55368 0.906 0.0
H850 H 0.38687 0.50879 0.87575 0.0
H851 H 0.39773 0.502 0.83753 0.0
H852 H 0.39896 0.61795 0.80065 0.0
H853 H 0.38848 0.66157 0.83138 0.0
C854 C 0.37704 0.63286 0.8699 0.0
C855 C 0.36979 0.61402 0.88937 0.0
C856 C 0.3864 0.60752 0.85243 0.0
C857 C 0.37473 0.56914 0.89134 0.0
C858 C 0.38461 0.54347 0.87393 0.0
C859 C 0.39579 0.53681 0.83622 0.0
C860 C 0.39934 0.55636 0.81651 0.0
C861 C 0.38938 0.56222 0.85422 0.0
C862 C 0.39713 0.60168 0.81537 0.0
C863 C 0.39085 0.62683 0.83302 0.0
H864 H 0.77408 0.10218 0.57635 0.0
H865 H 0.65532 0.13584 0.54482 0.0
H866 H 0.61447 0.12529 0.57645 0.0
H867 H 0.61103 0.10433 0.61246 0.0
H868 H 0.72766 0.06876 0.64501 0.0
H869 H 0.77075 0.08411 0.6139 0.0
C870 C 0.73934 0.10777 0.57643 0.0
C871 C 0.71799 0.11925 0.55786 0.0
C872 C 0.71558 0.10183 0.59497 0.0
C873 C 0.6728 0.12603 0.5585 0.0
C874 C 0.6493 0.12043 0.57672 0.0
C875 C 0.64598 0.10012 0.61296 0.0
C876 C 0.6659 0.08513 0.63121 0.0
C877 C 0.67019 0.10791 0.59495 0.0
C878 C 0.71132 0.08052 0.63136 0.0
C879 C 0.73592 0.08892 0.61345 0.0
H880 H 0.13107 0.42519 0.38609 0.0
H881 H 0.25365 0.48322 0.40131 0.0
H882 H 0.25256 0.52286 0.36845 0.0
H883 H 0.21921 0.53599 0.33403 0.0
H884 H 0.0999 0.46951 0.31898 0.0
H885 H 0.09726 0.43981 0.35304 0.0
C886 C 0.15728 0.44723 0.38251 0.0
C887 C 0.19222 0.45131 0.39642 0.0
C888 C 0.15719 0.46851 0.36333 0.0
C889 C 0.22588 0.47989 0.39125 0.0
C890 C 0.22551 0.50209 0.37224 0.0
C891 C 0.19257 0.51488 0.33791 0.0
C892 C 0.15953 0.50623 0.32313 0.0
C893 C 0.19181 0.49574 0.35784 0.0
C894 C 0.12529 0.47904 0.32944 0.0
C895 C 0.12386 0.46111 0.34917 0.0
H896 H 0.78738 0.562 0.5154 0.0
H897 H 0.7452 0.69259 0.52792 0.0
H898 H 0.71365 0.69738 0.49374 0.0
H899 H 0.69163 0.66304 0.46149 0.0
H900 H 0.72966 0.53173 0.44872 0.0
H901 H 0.7694 0.52892 0.48145 0.0
C902 C 0.77123 0.5915 0.51069 0.0
C903 C 0.76895 0.62689 0.5245 0.0
C904 C 0.7523 0.594 0.49084 0.0
C905 C 0.74831 0.66498 0.51778 0.0
C906 C 0.7298 0.6677 0.49818 0.0
C907 C 0.70941 0.63404 0.46565 0.0
C908 C 0.70771 0.59772 0.45257 0.0
C909 C 0.73098 0.63229 0.48473 0.0
C910 C 0.7309 0.56042 0.45825 0.0
C911 C 0.75311 0.55863 0.47717 0.0
H912 H 0.12648 0.99327 0.76294 0.0
H913 H 0.26026 0.99831 0.78221 0.0
H914 H 0.28319 0.96829 0.74906 0.0
H915 H 0.26464 0.93201 0.71612 0.0
H916 H 0.13067 0.92288 0.6981 0.0
H917 H 0.10858 0.96318 0.72887 0.0
C918 C 0.16071 0.988 0.75993 0.0
C919 C 0.19142 0.99788 0.77536 0.0
C920 C 0.17374 0.97001 0.74084 0.0
C921 C 0.23571 0.99146 0.77077 0.0
C922 C 0.24892 0.97397 0.75177 0.0
C923 C 0.23084 0.94053 0.71852 0.0
C924 C 0.19942 0.92557 0.70447 0.0
C925 C 0.2182 0.96223 0.73682 0.0
C926 C 0.15552 0.93507 0.70833 0.0
C927 C 0.14285 0.95759 0.72612 0.0
H928 H 0.80216 0.35714 1.01746 0.0
H929 H 0.80122 0.48713 1.04155 0.0
H930 H 0.82795 0.51425 1.00879 0.0
H931 H 0.85587 0.50145 0.97421 0.0
H932 H 0.86081 0.37245 0.94941 0.0
H933 H 0.82631 0.34492 0.98101 0.0
C934 C 0.80736 0.39144 1.01548 0.0
C935 C 0.80032 0.41985 1.03234 0.0
C936 C 0.82285 0.40714 0.99629 0.0
C937 C 0.8074 0.46422 1.02927 0.0
C938 C 0.82227 0.47991 1.01038 0.0
C939 C 0.8487 0.46729 0.97547 0.0
C940 C 0.8609 0.4391 0.95932 0.0
C941 C 0.83067 0.45169 0.99392 0.0
C942 C 0.85122 0.39504 0.96134 0.0
C943 C 0.8321 0.37924 0.97961 0.0
H944 H 0.41505 0.14075 0.22007 0.0
H945 H 0.34832 0.03422 0.192 0.0
H946 H 0.36129 0.99019 0.22297 0.0
H947 H 0.38444 0.98561 0.25979 0.0
H948 H 0.44654 0.096 0.28759 0.0
H949 H 0.44272 0.13454 0.25513 0.0
C950 C 0.40463 0.10733 0.22048 0.0
C951 C 0.3815 0.09047 0.20363 0.0
C952 C 0.41061 0.08317 0.23857 0.0
C953 C 0.36726 0.04754 0.20451 0.0
C954 C 0.37401 1.02271 0.22241 0.0
C955 C 0.39723 1.01805 0.25875 0.0
C956 C 0.41589 0.03756 0.27638 0.0
C957 C 0.39437 0.04073 0.23985 0.0
C958 C 0.43268 0.07955 0.27445 0.0
C959 C 0.43029 0.10191 0.25582 0.0
H960 H 0.45256 0.40713 0.61795 0.0
H961 H 0.34027 0.43433 0.65562 0.0
H962 H 0.29309 0.4233 0.62553 0.0
H963 H 0.28454 0.41056 0.58767 0.0
H964 H 0.39899 0.38568 0.55088 0.0
H965 H 0.44413 0.39113 0.58141 0.0
C966 C 0.41769 0.41036 0.61975 0.0
C967 C 0.40017 0.42184 0.63916 0.0
C968 C 0.39103 0.40466 0.60237 0.0
C969 C 0.3548 0.42526 0.64102 0.0
C970 C 0.32784 0.41933 0.62371 0.0
C971 C 0.31936 0.40634 0.58631 0.0
C972 C 0.338 0.39757 0.56671 0.0
C973 C 0.34567 0.40987 0.60416 0.0
C974 C 0.38327 0.39173 0.56554 0.0
C975 C 0.40934 0.39514 0.58307 0.0
H976 H 0.86679 1.00353 0.32885 0.0
H977 H 0.93055 0.1097 0.2983 0.0
H978 H 0.92609 0.15231 0.32965 0.0
H979 H 0.90221 0.16149 0.36502 0.0
H980 H 0.8341 0.05902 0.3961 0.0
H981 H 0.84264 1.01309 0.36541 0.0
C982 C 0.8796 0.03604 0.32898 0.0
C983 C 0.89948 0.05284 0.31095 0.0
C984 C 0.8764 0.06113 0.34725 0.0
C985 C 0.91604 0.09509 0.31177 0.0
C986 C 0.91327 0.1198 0.32976 0.0
C987 C 0.88944 0.12895 0.36536 0.0
C988 C 0.86745 0.11399 0.38311 0.0
C989 C 0.89346 0.10328 0.34754 0.0
C990 C 0.85134 0.07158 0.38287 0.0
C991 C 0.85598 0.04537 0.36519 0.0
H992 H 0.1813 0.51927 0.11736 0.0
H993 H 0.21056 0.63595 0.15065 0.0
H994 H 0.25226 0.66246 0.12084 0.0
H995 H 0.27675 0.65364 0.08414 0.0
H996 H 0.24414 0.53624 0.05185 0.0
H997 H 0.20725 0.50927 0.0823 0.0
C998 C 0.19697 0.5505 0.11825 0.0
C999 C 0.19246 0.57566 0.13628 0.0
C1000 C 0.22006 0.56562 0.10103 0.0
C1001 C 0.21364 0.61571 0.13711 0.0
C1002 C 0.23714 0.63102 0.11993 0.0
C1003 C 0.2615 0.6222 0.08378 0.0
C1004 C 0.26364 0.59701 0.06554 0.0
C1005 C 0.23991 0.60657 0.10161 0.0
C1006 C 0.24386 0.55618 0.06557 0.0
C1007 C 0.22247 0.54071 0.08302 0.0
H1008 H 0.61653 1.00958 0.83081 0.0
H1009 H 0.75098 0.03096 0.8148 0.0
H1010 H 0.77338 1.00495 0.84825 0.0
H1011 H 0.75664 0.96667 0.88021 0.0
H1012 H 0.62393 0.94116 0.89653 0.0
H1013 H 0.59924 0.97892 0.8654 0.0
C1014 C 0.65071 1.00901 0.83465 0.0
C1015 C 0.68174 1.0224 0.81982 0.0
C1016 C 0.66389 0.99347 0.85426 0.0
C1017 C 0.72586 1.02166 0.82557 0.0
C1018 C 0.73899 1.00641 0.84483 0.0
C1019 C 0.7222 0.97123 0.87747 0.0
C1020 C 0.69219 0.9521 0.89105 0.0
C1021 C 0.70848 0.9913 0.8591 0.0
C1022 C 0.64771 0.95689 0.88683 0.0
C1023 C 0.63366 0.9777 0.86871 0.0
H1024 H 0.48023 0.2156 0.19311 0.0
H1025 H 0.46453 0.23342 0.12764 0.0
H1026 H 0.54085 0.25357 0.1245 0.0
H1027 H 0.6126 0.26685 0.14028 0.0
H1028 H 0.62938 0.24513 0.20543 0.0
H1029 H 0.55285 0.22584 0.20865 0.0
C1030 C 0.49344 0.22398 0.17815 0.0
C1031 C 0.46619 0.22318 0.16066 0.0
C1032 C 0.53793 0.23483 0.17635 0.0
C1033 C 0.48439 0.23363 0.14139 0.0
C1034 C 0.5282 0.24528 0.13957 0.0
C1035 C 0.59961 0.25784 0.1552 0.0
C1036 C 0.62717 0.25766 0.17259 0.0
C1037 C 0.55537 0.24607 0.15693 0.0
C1038 C 0.60939 0.24548 0.19172 0.0
C1039 C 0.56539 0.23453 0.19361 0.0
H1040 H 0.55442 0.71062 0.44291 0.0
H1041 H 0.5706 0.69827 0.37717 0.0
H1042 H 0.55261 0.77497 0.37285 0.0
H1043 H 0.5312 0.84579 0.38787 0.0
H1044 H 0.52104 0.85852 0.45391 0.0
H1045 H 0.5379 0.78188 0.45799 0.0
C1046 C 0.55384 0.72466 0.42761 0.0
C1047 C 0.56325 0.69847 0.41034 0.0
C1048 C 0.5447 0.76908 0.42532 0.0
C1049 C 0.56332 0.71753 0.3907 0.0
C1050 C 0.55299 0.76144 0.38824 0.0
C1051 C 0.53285 0.83181 0.40316 0.0
C1052 C 0.5247 0.8581 0.42057 0.0
C1053 C 0.54349 0.78759 0.40544 0.0
C1054 C 0.52741 0.83936 0.44025 0.0
C1055 C 0.53685 0.79537 0.4426 0.0
H1056 H 0.95601 0.79615 0.6596 0.0
H1057 H 0.97632 0.65859 0.65734 0.0
H1058 H 0.05499 0.66915 0.65668 0.0
H1059 H 0.11875 0.71758 0.65762 0.0
H1060 H 0.09853 0.85526 0.65633 0.0
H1061 H 1.0199 0.84474 0.65726 0.0
C1062 C 0.97772 0.76855 0.65888 0.0
C1063 C 0.96017 0.72656 0.65866 0.0
C1064 C 1.02322 0.77494 0.65778 0.0
C1065 C 0.98884 0.6912 0.65747 0.0
C1066 C 0.03393 0.69724 0.65714 0.0
C1067 C 0.09712 0.74527 0.65731 0.0
C1068 C 0.11481 0.78721 0.65688 0.0
C1069 C 0.05162 0.73895 0.65737 0.0
C1070 C 0.08608 0.82263 0.65644 0.0
C1071 C 0.04094 0.81663 0.65712 0.0
H1072 H 1.01289 0.33686 0.89155 0.0
H1073 H 0.98616 0.33884 0.95683 0.0
H1074 H 1.00349 0.26198 0.95906 0.0
H1075 H 1.02709 0.19384 0.94272 0.0
H1076 H 0.05932 0.19239 0.87804 0.0
H1077 H 0.03899 0.26878 0.87535 0.0
C1078 C 1.01075 0.32047 0.90627 0.0
C1079 C 0.99802 0.34398 0.924 0.0
C1080 C 1.02172 0.27607 0.90755 0.0
C1081 C 0.99599 0.32198 0.94294 0.0
C1082 C 1.00579 0.27782 0.94423 0.0
C1083 C 1.0293 0.21008 0.92796 0.0
C1084 C 0.04424 0.18696 0.91052 0.0
C1085 C 1.01873 0.25447 0.92666 0.0
C1086 C 0.04778 0.20908 0.89168 0.0
C1087 C 0.03616 0.25289 0.89015 0.0
H1088 H 0.58187 0.8174 0.90137 0.0
H1089 H 0.60712 0.79038 0.96545 0.0
H1090 H 0.53293 0.76383 0.96962 0.0
H1091 H 0.46105 0.74678 0.95491 0.0
H1092 H 0.43628 0.77415 0.89078 0.0
H1093 H 0.50984 0.80188 0.8869 0.0
C1094 C 0.57124 0.8059 0.91631 0.0
C1095 C 0.60045 0.806 0.93308 0.0
C1096 C 0.52843 0.7905 0.9186 0.0
C1097 C 0.58565 0.79087 0.95227 0.0
C1098 C 0.54311 0.77554 0.95465 0.0
C1099 C 0.47159 0.75882 0.94006 0.0
C1100 C 0.44268 0.75812 0.92315 0.0
C1101 C 0.51424 0.77493 0.9379 0.0
C1102 C 0.45737 0.77414 0.9041 0.0
C1103 C 0.49964 0.79006 0.90184 0.0
H1104 H 0.50518 0.31377 0.65764 0.0
H1105 H 0.53604 0.33524 0.72154 0.0
H1106 H 0.55442 0.25875 0.72561 0.0
H1107 H 0.56272 0.18505 0.71091 0.0
H1108 H 0.52472 0.16241 0.64794 0.0
H1109 H 0.50798 0.23905 0.64369 0.0
C1110 C 0.51597 0.30167 0.67244 0.0
C1111 C 0.51964 0.33056 0.68921 0.0
C1112 C 0.52511 0.25704 0.67488 0.0
C1113 C 0.53293 0.31397 0.70837 0.0
C1114 C 0.54354 0.2701 0.7107 0.0
C1115 C 0.5506 0.19686 0.69629 0.0
C1116 C 0.5452 0.16762 0.67976 0.0
C1117 C 0.53988 0.24121 0.69407 0.0
C1118 C 0.529 0.18377 0.661 0.0
C1119 C 0.5196 0.22784 0.65851 0.0
H1120 H 0.10815 0.23442 0.43326 0.0
H1121 H 0.08301 0.369 0.44564 0.0
H1122 H 1.00503 0.35568 0.44554 0.0
H1123 H 0.94307 0.30617 0.44099 0.0
H1124 H 0.96789 0.17059 0.43151 0.0
H1125 H 0.04608 0.18379 0.43148 0.0
C1126 C 0.08559 0.26073 0.43608 0.0
C1127 C 0.1017 0.30269 0.43942 0.0
C1128 C 0.04039 0.25268 0.43648 0.0
C1129 C 0.07181 0.33632 0.44317 0.0
C1130 C 1.02702 0.32879 0.44302 0.0
C1131 C 0.96562 0.27949 0.43906 0.0
C1132 C 0.94945 0.23744 0.43623 0.0
C1133 C 1.01082 0.28717 0.43956 0.0
C1134 C 0.97928 0.20324 0.43387 0.0
C1135 C 1.02412 0.2108 0.43376 0.0
H1136 H 0.06127 0.68379 0.20612 0.0
H1137 H 0.05423 0.66381 0.14042 0.0
H1138 H 0.0349 0.73953 0.13545 0.0
H1139 H 1.01957 0.8124 0.1496 0.0
H1140 H 1.0225 0.83142 0.21543 0.0
H1141 H 0.04357 0.7561 0.22035 0.0
C1142 C 0.05559 0.69596 0.19071 0.0
C1143 C 0.05947 0.66761 0.1737 0.0
C1144 C 0.0436 0.73985 0.18791 0.0
C1145 C 0.05147 0.68437 0.15388 0.0
C1146 C 0.04044 0.72794 0.15098 0.0
C1147 C 1.02492 0.80015 0.16503 0.0
C1148 C 1.01952 0.82812 0.18208 0.0
C1149 C 0.03636 0.75613 0.16785 0.0
C1150 C 1.02621 0.81106 0.20195 0.0
C1151 C 0.0384 0.76777 0.20482 0.0
H1152 H 0.30438 0.33698 0.14734 0.0
H1153 H 0.20113 0.2442 0.14294 0.0
H1154 H 0.1476 0.3012 0.15023 0.0
H1155 H 0.13099 0.37687 0.1614 0.0
H1156 H 0.23667 0.46691 0.16749 0.0
H1157 H 0.28785 0.412 0.15591 0.0
C1158 C 0.27007 0.3293 0.14757 0.0
C1159 C 0.25696 0.28625 0.1447 0.0
C1160 C 0.23973 0.3619 0.15241 0.0
C1161 C 0.21229 0.27701 0.14501 0.0
C1162 C 0.18165 0.30961 0.14942 0.0
C1163 C 0.16522 0.38439 0.16017 0.0
C1164 C 0.1799 0.42596 0.16574 0.0
C1165 C 0.1951 0.35203 0.1538 0.0
C1166 C 0.22437 0.43514 0.16379 0.0
C1167 C 0.25376 0.40377 0.15697 0.0
H1168 H 0.37029 0.39254 0.38921 0.0
H1169 H 0.32661 0.43949 0.44844 0.0
H1170 H 0.38583 0.49051 0.44956 0.0
H1171 H 0.45248 0.51854 0.43557 0.0
H1172 H 0.50164 0.47234 0.37732 0.0
H1173 H 0.43794 0.42515 0.37379 0.0
C1174 C 0.37372 0.41428 0.40219 0.0
C1175 C 0.3443 0.41163 0.41888 0.0
C1176 C 0.40896 0.44365 0.40299 0.0
C1177 C 0.3491 0.44015 0.43558 0.0
C1178 C 0.38295 0.46957 0.43624 0.0
C1179 C 0.44942 0.49836 0.42198 0.0
C1180 C 0.48219 0.49876 0.40686 0.0
C1181 C 0.41352 0.47097 0.42032 0.0
C1182 C 0.47694 0.47282 0.38922 0.0
C1183 C 0.4406 0.44558 0.38728 0.0
H1184 H 0.38337 0.73727 0.66939 0.0
H1185 H 0.26869 0.67377 0.64705 0.0
H1186 H 0.30684 0.60408 0.6477 0.0
H1187 H 0.37065 0.56035 0.65834 0.0
H1188 H 0.48718 0.62462 0.67799 0.0
H1189 H 0.45093 0.69483 0.67451 0.0
C1190 C 0.36723 0.70828 0.66407 0.0
C1191 C 0.32336 0.71063 0.65803 0.0
C1192 C 0.38961 0.66843 0.66431 0.0
C1193 C 0.3026 0.67287 0.65141 0.0
C1194 C 0.32431 0.63297 0.65202 0.0
C1195 C 0.38825 0.58984 0.66153 0.0
C1196 C 0.4314 0.5873 0.66867 0.0
C1197 C 0.36744 0.63019 0.659 0.0
C1198 C 0.45402 0.62571 0.6725 0.0
C1199 C 0.4332 0.66585 0.67059 0.0
H1200 H 0.11286 0.49611 0.91931 0.0
H1201 H 0.03661 0.58981 0.88602 0.0
H1202 H 0.09364 0.64391 0.89128 0.0
H1203 H 0.16366 0.66556 0.9076 0.0
H1204 H 0.23632 0.57001 0.94177 0.0
H1205 H 0.18143 0.51644 0.93452 0.0
C1206 C 0.10864 0.52823 0.91298 0.0
C1207 C 0.07029 0.53874 0.90231 0.0
C1208 C 0.14063 0.55931 0.91668 0.0
C1209 C 0.06581 0.58061 0.89419 0.0
C1210 C 0.09826 0.61171 0.89741 0.0
C1211 C 0.16751 0.633 0.91338 0.0
C1212 C 0.20443 0.62216 0.92523 0.0
C1213 C 0.13551 0.60167 0.90903 0.0
C1214 C 0.20847 0.57973 0.93272 0.0
C1215 C 0.17712 0.54876 0.92847 0.0
H1216 H 0.8516 0.7487 0.94161 0.0
H1217 H 0.73043 0.68047 0.93665 0.0
H1218 H 0.76928 0.61248 0.93197 0.0
H1219 H 0.83727 0.57309 0.92598 0.0
H1220 H 0.95932 0.63929 0.93165 0.0
H1221 H 0.92088 0.70705 0.93917 0.0
C1222 C 0.83383 0.71872 0.94019 0.0
C1223 C 0.78809 0.7197 0.93958 0.0
C1224 C 0.85657 0.67944 0.93703 0.0
C1225 C 0.76557 0.68062 0.93726 0.0
C1226 C 0.78778 0.64172 0.93437 0.0
C1227 C 0.85548 0.60239 0.92878 0.0
C1228 C 0.90107 0.60133 0.92775 0.0
C1229 C 0.8332 0.64092 0.93354 0.0
C1230 C 0.92417 0.63933 0.93205 0.0
C1231 C 0.90218 0.67808 0.93644 0.0
H1232 H 0.66931 0.66493 0.69004 0.0
H1233 H 0.76193 0.56026 0.68657 0.0
H1234 H 0.70696 0.50951 0.69778 0.0
H1235 H 0.63188 0.49302 0.70632 0.0
H1236 H 0.53639 0.59491 0.70849 0.0
H1237 H 0.59275 0.64815 0.70053 0.0
C1238 C 0.67747 0.63114 0.69206 0.0
C1239 C 0.71989 0.61657 0.68738 0.0
C1240 C 0.64504 0.60138 0.69829 0.0
C1241 C 0.72965 0.57248 0.68987 0.0
C1242 C 0.69818 0.54328 0.69635 0.0
C1243 C 0.62338 0.52697 0.70538 0.0
C1244 C 0.57981 0.53972 0.70801 0.0
C1245 C 0.65567 0.55714 0.70027 0.0
C1246 C 0.56962 0.58399 0.70669 0.0
C1247 C 0.60188 0.61449 0.70195 0.0
H1248 H 0.68426 0.28957 0.42295 0.0
H1249 H 0.77541 0.33039 0.46916 0.0
H1250 H 0.73708 0.40004 0.4722 0.0
H1251 H 0.68366 0.45303 0.45764 0.0
H1252 H 0.59742 0.41104 0.40937 0.0
H1253 H 0.62768 0.33844 0.41117 0.0
C1254 C 0.69523 0.31334 0.43406 0.0
C1255 C 0.73274 0.30487 0.44575 0.0
C1256 C 0.67421 0.35355 0.43504 0.0
C1257 C 0.74639 0.33588 0.46013 0.0
C1258 C 0.72477 0.37595 0.46163 0.0
C1259 C 0.67099 0.42767 0.44786 0.0
C1260 C 0.63846 0.43756 0.43325 0.0
C1261 C 0.68956 0.38578 0.44858 0.0
C1262 C 0.62265 0.40446 0.42055 0.0
C1263 C 0.63992 0.36287 0.42159 0.0
H1264 H 0.90895 0.34408 0.19662 0.0
H1265 H 0.83015 0.44419 0.16898 0.0
H1266 H 0.88397 0.49767 0.17761 0.0
H1267 H 0.95398 0.51692 0.19148 0.0
H1268 H 0.03812 0.41904 0.21676 0.0
H1269 H 0.98133 0.36462 0.21137 0.0
C1270 C 0.90359 0.3776 0.19255 0.0
C1271 C 0.86529 0.3896 0.18194 0.0
C1272 C 0.93547 0.40897 0.19739 0.0
C1273 C 0.85915 0.43341 0.17688 0.0
C1274 C 0.88993 0.46439 0.18194 0.0
C1275 C 0.96 0.48377 0.19606 0.0
C1276 C 1.00051 0.47226 0.20446 0.0
C1277 C 0.92823 0.45258 0.19202 0.0
C1278 C 1.00729 0.42903 0.21033 0.0
C1279 C 0.9749 0.39778 0.20703 0.0
H1280 H 0.79499 0.84178 0.64433 0.0
H1281 H 0.69491 0.74708 0.635 0.0
H1282 H 0.6392 0.80352 0.63876 0.0
H1283 H 0.61884 0.87928 0.64878 0.0
H1284 H 0.72089 0.9709 0.66031 0.0
H1285 H 0.77545 0.9167 0.6515 0.0
C1286 C 0.76101 0.83344 0.64272 0.0
C1287 C 0.74938 0.78997 0.63951 0.0
C1288 C 0.72924 0.8658 0.64553 0.0
C1289 C 0.70505 0.78012 0.63742 0.0
C1290 C 0.67308 0.81246 0.63978 0.0
C1291 C 0.65302 0.88738 0.64907 0.0
C1292 C 0.66574 0.92916 0.65538 0.0
C1293 C 0.68471 0.85529 0.64449 0.0
C1294 C 0.71018 0.93903 0.65574 0.0
C1295 C 0.74147 0.90803 0.65062 0.0
H1296 H 0.83174 0.94435 0.89649 0.0
H1297 H 0.88923 0.82586 0.91807 0.0
H1298 H 0.96131 0.85923 0.91739 0.0
H1299 H 1.00623 0.92499 0.91457 0.0
H1300 H 0.9496 0.04202 0.89074 0.0
H1301 H 0.8789 1.00638 0.88801 0.0
C1302 C 0.86029 0.92563 0.90055 0.0
C1303 C 0.85542 0.88283 0.90739 0.0
C1304 C 0.90156 0.94492 0.89984 0.0
C1305 C 0.8924 0.85872 0.91261 0.0
C1306 C 0.93349 0.87793 0.91237 0.0
C1307 C 0.97855 0.9423 0.90833 0.0
C1308 C 0.98289 0.9861 0.90297 0.0
C1309 C 0.93825 0.92138 0.90658 0.0
C1310 C 0.94702 1.00824 0.89483 0.0
C1311 C 0.90657 0.98795 0.89344 0.0
H1312 H 0.95804 0.12167 0.15614 0.0
H1313 H 0.85337 0.02951 0.15605 0.0
H1314 H 0.80226 0.08549 0.14628 0.0
H1315 H 0.78484 0.16133 0.14148 0.0
H1316 H 0.88621 0.25643 0.14283 0.0
H1317 H 0.94066 0.19917 0.14789 0.0
C1318 C 0.92419 0.11391 0.15365 0.0
C1319 C 0.90961 0.07134 0.15711 0.0
C1320 C 0.89411 0.14695 0.14831 0.0
C1321 C 0.86553 0.06194 0.15383 0.0
C1322 C 0.8361 0.09398 0.14818 0.0
C1323 C 0.81899 0.16952 0.14242 0.0
C1324 C 0.8313 0.21311 0.14176 0.0
C1325 C 0.84971 0.1367 0.14592 0.0
C1326 C 0.87574 0.22312 0.14306 0.0
C1327 C 0.90687 0.19033 0.14621 0.0
H1328 H 0.62455 1.01479 0.38745 0.0
H1329 H 0.52514 0.11288 0.38964 0.0
H1330 H 0.58069 0.16878 0.39331 0.0
H1331 H 0.65774 0.18854 0.40035 0.0
H1332 H 0.75607 0.08947 0.39762 0.0
H1333 H 0.70119 0.03535 0.38963 0.0
C1334 C 0.61513 0.04854 0.38818 0.0
C1335 C 0.57082 0.05962 0.38828 0.0
C1336 C 0.64721 0.08033 0.39047 0.0
C1337 C 0.55903 0.10347 0.38931 0.0
C1338 C 0.59083 0.13543 0.39164 0.0
C1339 C 0.66701 0.15526 0.39747 0.0
C1340 C 0.71081 0.14283 0.39944 0.0
C1341 C 0.63501 0.12413 0.39289 0.0
C1342 C 0.72259 0.09965 0.39598 0.0
C1343 C 0.69118 0.0687 0.39152 0.0
H1344 H 0.26328 0.18977 0.42458 0.0
H1345 H 0.34972 0.26099 0.46386 0.0
H1346 H 0.40252 0.20107 0.46245 0.0
H1347 H 0.42697 0.13085 0.44663 0.0
H1348 H 0.3381 0.06366 0.40642 0.0
H1349 H 0.28423 0.11952 0.41144 0.0
C1350 C 0.29335 0.19196 0.43319 0.0
C1351 C 0.30248 0.22986 0.44428 0.0
C1352 C 0.32378 0.15826 0.43173 0.0
C1353 C 0.34155 0.232 0.4554 0.0
C1354 C 0.37202 0.19793 0.45432 0.0
C1355 C 0.39578 0.12842 0.43903 0.0
C1356 C 0.38733 0.09295 0.42586 0.0
C1357 C 0.36408 0.16133 0.44196 0.0
C1358 C 0.3463 0.0904 0.41642 0.0
C1359 C 0.31506 0.12243 0.41933 0.0
H1360 H 0.12623 0.98906 0.19247 0.0
H1361 H 0.03655 0.09303 0.20487 0.0
H1362 H 0.09511 0.14566 0.19957 0.0
H1363 H 0.17196 0.16202 0.18882 0.0
H1364 H 0.25754 0.05523 0.1747 0.0
H1365 H 0.20062 1.00432 0.18305 0.0
C1366 C 0.11934 1.02322 0.19427 0.0
C1367 C 0.07686 0.03686 0.19909 0.0
C1368 C 0.15265 0.05306 0.1906 0.0
C1369 C 0.06893 0.0814 0.20135 0.0
C1370 C 0.10243 0.11156 0.19814 0.0
C1371 C 0.1781 0.12761 0.18781 0.0
C1372 C 0.21914 0.11262 0.18098 0.0
C1373 C 0.14445 0.09783 0.19237 0.0
C1374 C 0.22633 0.06785 0.17962 0.0
C1375 C 0.19377 0.03854 0.18449 0.0
H1376 H 0.12574 0.90739 0.95468 0.0
H1377 H 0.22029 0.98235 0.92139 0.0
H1378 H 0.27499 0.9267 0.9269 0.0
H1379 H 0.29471 0.85505 0.93831 0.0
H1380 H 0.20058 0.7742 0.96848 0.0
H1381 H 0.14742 0.83376 0.96756 0.0
C1382 C 0.15849 0.91148 0.94889 0.0
C1383 C 0.16906 0.94897 0.93763 0.0
C1384 C 0.18981 0.87825 0.95154 0.0
C1385 C 0.21142 0.9538 0.93002 0.0
C1386 C 0.24273 0.92199 0.93318 0.0
C1387 C 0.26271 0.85034 0.94494 0.0
C1388 C 0.2517 0.80997 0.95336 0.0
C1389 C 0.2321 0.88381 0.94351 0.0
C1390 C 0.21012 0.8049 0.96199 0.0
C1391 C 0.17958 0.8389 0.96126 0.0
H1392 H 0.33643 0.93991 0.69579 0.0
H1393 H 0.38903 0.81207 0.70392 0.0
H1394 H 0.46053 0.84251 0.71149 0.0
H1395 H 0.50983 0.90515 0.71084 0.0
H1396 H 0.45685 0.03332 0.70479 0.0
H1397 H 0.38357 1.00348 0.70198 0.0
C1398 C 0.36338 0.9189 0.69975 0.0
C1399 C 0.35772 0.87383 0.69924 0.0
C1400 C 0.40424 0.93676 0.70446 0.0
C1401 C 0.3927 0.84682 0.70436 0.0
C1402 C 0.43359 0.86424 0.70858 0.0
C1403 C 0.48199 0.92658 0.70973 0.0
C1404 C 0.48868 0.97136 0.70811 0.0
C1405 C 0.44002 0.90909 0.70806 0.0
C1406 C 0.45248 0.99882 0.70644 0.0
C1407 C 0.41062 0.98167 0.70449 0.0
loop_
_geom_bond_atom_site_label_1
_geom_bond_atom_site_label_2
_geom_bond_distance
_geom_bond_site_symmetry_2
_ccdc_geom_bond_type
Eu0 C9 2.828 . S
Eu0 O11 2.392 . S
Eu0 O13 2.418 . S
Eu0 O18 2.373 . S
Eu0 O21 2.488 . S
Eu0 O22 2.471 . S
Eu0 O23 2.349 . S
Eu1 O10 2.373 . S
Eu1 O14 2.488 . S
Eu1 O15 2.471 . S
Eu1 O16 2.349 . S
Eu1 O19 2.392 . S
Eu1 O20 2.418 . S
Eu1 C30 2.828 . S
C2 O20 1.244 . S
C2 O23 1.265 . S
C3 C4 1.379 . S
C3 C7 1.373 . S
C3 C9 1.505 . S
C4 C3 1.379 . S
C4 C6 1.369 . S
C4 H32 0.930 . S
C5 C7 1.383 . S
C5 C8 1.382 . S
C5 H33 0.930 . S
C6 C4 1.369 . S
C6 C8 1.392 . S
C6 H34 0.930 . S
C7 C3 1.373 . S
C7 C5 1.383 . S
C7 H35 0.931 . S
C8 C5 1.382 . S
C8 C6 1.392 . S
C9 Eu0 2.828 . S
C9 C3 1.505 . S
C9 O21 1.249 . S
C9 O22 1.244 . S
O10 Eu1 2.373 . S
O10 C12 1.258 . S
O11 Eu0 2.392 . S
O11 C12 1.242 . S
C12 O10 1.258 . S
C12 O11 1.242 . S
O13 Eu0 2.418 . S
O13 C17 1.244 . S
O14 Eu1 2.488 . S
O14 C30 1.249 . S
O15 Eu1 2.471 . S
O15 C30 1.244 . S
O16 Eu1 2.349 . S
O16 C17 1.265 . S
C17 O13 1.244 . S
C17 O16 1.265 . S
O18 Eu0 2.373 . S
O18 C31 1.258 . S
O19 Eu1 2.392 . S
O19 C31 1.242 . S
O20 Eu1 2.418 . S
O20 C2 1.244 . S
O21 Eu0 2.488 . S
O21 C9 1.249 . S
O22 Eu0 2.471 . S
O22 C9 1.244 . S
O23 Eu0 2.349 . S
O23 C2 1.265 . S
C24 C25 1.379 . S
C24 C28 1.373 . S
C24 C30 1.505 . S
C25 C24 1.379 . S
C25 C27 1.369 . S
C25 H36 0.930 . S
C26 C28 1.383 1_565 S
C26 C29 1.382 1_565 S
C26 H37 0.930 . S
C27 C25 1.369 . S
C27 C29 1.392 . S
C27 H38 0.930 . S
C28 C24 1.373 . S
C28 C26 1.383 1_545 S
C28 H39 0.931 1_545 S
C29 C26 1.382 1_545 S
C29 C27 1.392 . S
C30 Eu1 2.828 . S
C30 O14 1.249 . S
C30 O15 1.244 . S
C30 C24 1.505 . S
C31 O18 1.258 . S
C31 O19 1.242 . S
H32 C4 0.930 . S
H33 C5 0.930 . S
H34 C6 0.930 . S
H35 C7 0.931 . S
H36 C25 0.930 . S
H37 C26 0.930 . S
H38 C27 0.930 . S
H39 C28 0.931 1_565 S
Eu40 C49 2.828 . S
Eu40 O51 2.392 . S
Eu40 O53 2.418 . S
Eu40 O58 2.373 . S
Eu40 O61 2.488 . S
Eu40 O62 2.471 . S
Eu40 O63 2.349 . S
Eu41 O50 2.373 . S
Eu41 O54 2.488 . S
Eu41 O55 2.471 . S
Eu41 O56 2.349 . S
Eu41 O59 2.392 . S
Eu41 O60 2.418 . S
Eu41 C70 2.828 . S
C42 O60 1.244 . S
C42 O63 1.265 . S
C43 C44 1.379 . S
C43 C47 1.373 . S
C43 C49 1.505 . S
C44 C43 1.379 . S
C44 C46 1.369 . S
C44 H72 0.930 . S
C45 C47 1.383 . S
C45 C48 1.382 . S
C45 H73 0.930 . S
C46 C44 1.369 . S
C46 C48 1.392 . S
C46 H74 0.930 . S
C47 C43 1.373 . S
C47 C45 1.383 . S
C47 H75 0.931 . S
C48 C45 1.382 . S
C48 C46 1.392 . S
C49 Eu40 2.828 . S
C49 C43 1.505 . S
C49 O61 1.249 . S
C49 O62 1.244 . S
O50 Eu41 2.373 . S
O50 C52 1.258 . S
O51 Eu40 2.392 . S
O51 C52 1.242 . S
C52 O50 1.258 . S
C52 O51 1.242 . S
O53 Eu40 2.418 . S
O53 C57 1.244 . S
O54 Eu41 2.488 . S
O54 C70 1.249 . S
O55 Eu41 2.471 . S
O55 C70 1.244 . S
O56 Eu41 2.349 . S
O56 C57 1.265 . S
C57 O53 1.244 . S
C57 O56 1.265 . S
O58 Eu40 2.373 . S
O58 C71 1.258 . S
O59 Eu41 2.392 . S
O59 C71 1.242 . S
O60 Eu41 2.418 . S
O60 C42 1.244 . S
O61 Eu40 2.488 . S
O61 C49 1.249 . S
O62 Eu40 2.471 . S
O62 C49 1.244 . S
O63 Eu40 2.349 . S
O63 C42 1.265 . S
C64 C65 1.379 . S
C64 C68 1.373 . S
C64 C70 1.505 . S
C65 C64 1.379 . S
C65 C67 1.369 . S
C65 H76 0.930 . S
C66 C68 1.383 . S
C66 C69 1.382 . S
C66 H77 0.930 . S
C67 C65 1.369 . S
C67 C69 1.392 . S
C67 H78 0.930 . S
C68 C64 1.373 . S
C68 C66 1.383 . S
C68 H79 0.931 . S
C69 C66 1.382 . S
C69 C67 1.392 . S
C70 Eu41 2.828 . S
C70 O54 1.249 . S
C70 O55 1.244 . S
C70 C64 1.505 . S
C71 O58 1.258 . S
C71 O59 1.242 . S
H72 C44 0.930 . S
H73 C45 0.930 . S
H74 C46 0.930 . S
H75 C47 0.931 . S
H76 C65 0.930 . S
H77 C66 0.930 . S
H78 C67 0.930 . S
H79 C68 0.931 . S
Eu80 C89 2.828 . S
Eu80 O91 2.392 . S
Eu80 O93 2.418 . S
Eu80 O98 2.373 . S
Eu80 O101 2.488 . S
Eu80 O102 2.471 . S
Eu80 O103 2.349 . S
Eu81 O90 2.373 . S
Eu81 O94 2.488 . S
Eu81 O95 2.471 . S
Eu81 O96 2.349 . S
Eu81 O99 2.392 . S
Eu81 O100 2.418 . S
Eu81 C110 2.828 . S
C82 O100 1.244 . S
C82 O103 1.265 . S
C83 C84 1.379 . S
C83 C87 1.373 . S
C83 C89 1.505 . S
C84 C83 1.379 . S
C84 C86 1.369 . S
C84 H112 0.930 . S
C85 C87 1.383 . S
C85 C88 1.382 . S
C85 H113 0.930 . S
C86 C84 1.369 . S
C86 C88 1.392 . S
C86 H114 0.930 . S
C87 C83 1.373 . S
C87 C85 1.383 . S
C87 H115 0.931 . S
C88 C85 1.382 . S
C88 C86 1.392 . S
C89 Eu80 2.828 . S
C89 C83 1.505 . S
C89 O101 1.249 . S
C89 O102 1.244 . S
O90 Eu81 2.373 . S
O90 C92 1.258 . S
O91 Eu80 2.392 . S
O91 C92 1.242 . S
C92 O90 1.258 . S
C92 O91 1.242 . S
O93 Eu80 2.418 . S
O93 C97 1.244 . S
O94 Eu81 2.488 . S
O94 C110 1.249 . S
O95 Eu81 2.471 . S
O95 C110 1.244 . S
O96 Eu81 2.349 . S
O96 C97 1.265 . S
C97 O93 1.244 . S
C97 O96 1.265 . S
O98 Eu80 2.373 . S
O98 C111 1.258 . S
O99 Eu81 2.392 . S
O99 C111 1.242 . S
O100 Eu81 2.418 . S
O100 C82 1.244 . S
O101 Eu80 2.488 . S
O101 C89 1.249 . S
O102 Eu80 2.471 . S
O102 C89 1.244 . S
O103 Eu80 2.349 . S
O103 C82 1.265 . S
C104 C105 1.379 . S
C104 C108 1.373 . S
C104 C110 1.505 . S
C105 C104 1.379 . S
C105 C107 1.369 . S
C105 H116 0.930 . S
C106 C108 1.383 1_545 S
C106 C109 1.382 1_545 S
C106 H117 0.930 . S
C107 C105 1.369 . S
C107 C109 1.392 . S
C107 H118 0.930 . S
C108 C104 1.373 . S
C108 C106 1.383 1_565 S
C108 H119 0.931 1_565 S
C109 C106 1.382 1_565 S
C109 C107 1.392 . S
C110 Eu81 2.828 . S
C110 O94 1.249 . S
C110 O95 1.244 . S
C110 C104 1.505 . S
C111 O98 1.258 . S
C111 O99 1.242 . S
H112 C84 0.930 . S
H113 C85 0.930 . S
H114 C86 0.930 . S
H115 C87 0.931 . S
H116 C105 0.930 . S
H117 C106 0.930 . S
H118 C107 0.930 . S
H119 C108 0.931 1_545 S
Eu120 C129 2.828 . S
Eu120 O131 2.392 . S
Eu120 O133 2.418 . S
Eu120 O138 2.373 . S
Eu120 O141 2.488 . S
Eu120 O142 2.471 . S
Eu120 O143 2.349 . S
Eu121 O130 2.373 . S
Eu121 O134 2.488 . S
Eu121 O135 2.471 . S
Eu121 O136 2.349 . S
Eu121 O139 2.392 . S
Eu121 O140 2.418 . S
Eu121 C150 2.828 . S
C122 O140 1.244 . S
C122 O143 1.265 . S
C123 C124 1.379 . S
C123 C127 1.373 1_655 S
C123 C129 1.505 . S
C124 C123 1.379 . S
C124 C126 1.369 . S
C124 H152 0.930 . S
C125 C127 1.383 . S
C125 C128 1.382 . S
C125 H153 0.930 . S
C126 C124 1.369 . S
C126 C128 1.392 1_655 S
C126 H154 0.930 . S
C127 C123 1.373 1_455 S
C127 C125 1.383 . S
C127 H155 0.931 . S
C128 C125 1.382 . S
C128 C126 1.392 1_455 S
C129 Eu120 2.828 . S
C129 C123 1.505 . S
C129 O141 1.249 . S
C129 O142 1.244 . S
O130 Eu121 2.373 . S
O130 C132 1.258 . S
O131 Eu120 2.392 . S
O131 C132 1.242 . S
C132 O130 1.258 . S
C132 O131 1.242 . S
O133 Eu120 2.418 . S
O133 C137 1.244 . S
O134 Eu121 2.488 . S
O134 C150 1.249 . S
O135 Eu121 2.471 . S
O135 C150 1.244 . S
O136 Eu121 2.349 . S
O136 C137 1.265 . S
C137 O133 1.244 . S
C137 O136 1.265 . S
O138 Eu120 2.373 . S
O138 C151 1.258 . S
O139 Eu121 2.392 . S
O139 C151 1.242 . S
O140 Eu121 2.418 . S
O140 C122 1.244 . S
O141 Eu120 2.488 . S
O141 C129 1.249 . S
O142 Eu120 2.471 . S
O142 C129 1.244 . S
O143 Eu120 2.349 . S
O143 C122 1.265 . S
C144 C145 1.379 . S
C144 C148 1.373 . S
C144 C150 1.505 . S
C145 C144 1.379 . S
C145 C147 1.369 . S
C145 H156 0.930 . S
C146 C148 1.383 . S
C146 C149 1.382 . S
C146 H157 0.930 . S
C147 C145 1.369 . S
C147 C149 1.392 . S
C147 H158 0.930 . S
C148 C144 1.373 . S
C148 C146 1.383 . S
C148 H159 0.931 . S
C149 C146 1.382 . S
C149 C147 1.392 . S
C150 Eu121 2.828 . S
C150 O134 1.249 . S
C150 O135 1.244 . S
C150 C144 1.505 . S
C151 O138 1.258 . S
C151 O139 1.242 . S
H152 C124 0.930 . S
H153 C125 0.930 . S
H154 C126 0.930 . S
H155 C127 0.931 . S
H156 C145 0.930 . S
H157 C146 0.930 . S
H158 C147 0.930 . S
H159 C148 0.931 . S
Eu160 C169 2.828 . S
Eu160 O171 2.392 . S
Eu160 O173 2.418 . S
Eu160 O178 2.373 . S
Eu160 O181 2.488 . S
Eu160 O182 2.471 . S
Eu160 O183 2.349 . S
Eu161 O170 2.373 . S
Eu161 O174 2.488 . S
Eu161 O175 2.471 . S
Eu161 O176 2.349 . S
Eu161 O179 2.392 . S
Eu161 O180 2.418 . S
Eu161 C190 2.828 . S
C162 O180 1.244 . S
C162 O183 1.265 . S
C163 C164 1.379 . S
C163 C167 1.373 . S
C163 C169 1.505 . S
C164 C163 1.379 . S
C164 C166 1.369 . S
C164 H192 0.930 . S
C165 C167 1.383 1_545 S
C165 C168 1.382 1_545 S
C165 H193 0.930 . S
C166 C164 1.369 . S
C166 C168 1.392 . S
C166 H194 0.930 . S
C167 C163 1.373 . S
C167 C165 1.383 1_565 S
C167 H195 0.931 1_565 S
C168 C165 1.382 1_565 S
C168 C166 1.392 . S
C169 Eu160 2.828 . S
C169 C163 1.505 . S
C169 O181 1.249 . S
C169 O182 1.244 . S
O170 Eu161 2.373 . S
O170 C172 1.258 . S
O171 Eu160 2.392 . S
O171 C172 1.242 . S
C172 O170 1.258 . S
C172 O171 1.242 . S
O173 Eu160 2.418 . S
O173 C177 1.244 . S
O174 Eu161 2.488 . S
O174 C190 1.249 . S
O175 Eu161 2.471 . S
O175 C190 1.244 . S
O176 Eu161 2.349 . S
O176 C177 1.265 . S
C177 O173 1.244 . S
C177 O176 1.265 . S
O178 Eu160 2.373 . S
O178 C191 1.258 . S
O179 Eu161 2.392 . S
O179 C191 1.242 . S
O180 Eu161 2.418 . S
O180 C162 1.244 . S
O181 Eu160 2.488 . S
O181 C169 1.249 . S
O182 Eu160 2.471 . S
O182 C169 1.244 . S
O183 Eu160 2.349 . S
O183 C162 1.265 . S
C184 C185 1.379 . S
C184 C188 1.373 . S
C184 C190 1.505 . S
C185 C184 1.379 . S
C185 C187 1.369 . S
C185 H196 0.930 . S
C186 C188 1.383 . S
C186 C189 1.382 . S
C186 H197 0.930 . S
C187 C185 1.369 . S
C187 C189 1.392 . S
C187 H198 0.930 . S
C188 C184 1.373 . S
C188 C186 1.383 . S
C188 H199 0.931 . S
C189 C186 1.382 . S
C189 C187 1.392 . S
C190 Eu161 2.828 . S
C190 O174 1.249 . S
C190 O175 1.244 . S
C190 C184 1.505 . S
C191 O178 1.258 . S
C191 O179 1.242 . S
H192 C164 0.930 . S
H193 C165 0.930 . S
H194 C166 0.930 . S
H195 C167 0.931 1_545 S
H196 C185 0.930 . S
H197 C186 0.930 . S
H198 C187 0.930 . S
H199 C188 0.931 . S
Eu200 C209 2.828 . S
Eu200 O211 2.392 . S
Eu200 O213 2.418 . S
Eu200 O218 2.373 . S
Eu200 O221 2.488 . S
Eu200 O222 2.471 . S
Eu200 O223 2.349 . S
Eu201 O210 2.373 . S
Eu201 O214 2.488 . S
Eu201 O215 2.471 . S
Eu201 O216 2.349 . S
Eu201 O219 2.392 . S
Eu201 O220 2.418 . S
Eu201 C230 2.828 . S
C202 O220 1.244 . S
C202 O223 1.265 . S
C203 C204 1.379 . S
C203 C207 1.373 . S
C203 C209 1.505 . S
C204 C203 1.379 . S
C204 C206 1.369 . S
C204 H232 0.930 . S
C205 C207 1.383 . S
C205 C208 1.382 . S
C205 H233 0.930 . S
C206 C204 1.369 . S
C206 C208 1.392 . S
C206 H234 0.930 . S
C207 C203 1.373 . S
C207 C205 1.383 . S
C207 H235 0.931 . S
C208 C205 1.382 . S
C208 C206 1.392 . S
C209 Eu200 2.828 . S
C209 C203 1.505 . S
C209 O221 1.249 . S
C209 O222 1.244 . S
O210 Eu201 2.373 . S
O210 C212 1.258 . S
O211 Eu200 2.392 . S
O211 C212 1.242 . S
C212 O210 1.258 . S
C212 O211 1.242 . S
O213 Eu200 2.418 . S
O213 C217 1.244 . S
O214 Eu201 2.488 . S
O214 C230 1.249 . S
O215 Eu201 2.471 . S
O215 C230 1.244 . S
O216 Eu201 2.349 . S
O216 C217 1.265 . S
C217 O213 1.244 . S
C217 O216 1.265 . S
O218 Eu200 2.373 . S
O218 C231 1.258 . S
O219 Eu201 2.392 . S
O219 C231 1.242 . S
O220 Eu201 2.418 . S
O220 C202 1.244 . S
O221 Eu200 2.488 . S
O221 C209 1.249 . S
O222 Eu200 2.471 . S
O222 C209 1.244 . S
O223 Eu200 2.349 . S
O223 C202 1.265 . S
C224 C225 1.379 . S
C224 C228 1.373 . S
C224 C230 1.505 . S
C225 C224 1.379 . S
C225 C227 1.369 . S
C225 H236 0.930 . S
C226 C228 1.383 . S
C226 C229 1.382 . S
C226 H237 0.930 . S
C227 C225 1.369 . S
C227 C229 1.392 . S
C227 H238 0.930 . S
C228 C224 1.373 . S
C228 C226 1.383 . S
C228 H239 0.931 . S
C229 C226 1.382 . S
C229 C227 1.392 . S
C230 Eu201 2.828 . S
C230 O214 1.249 . S
C230 O215 1.244 . S
C230 C224 1.505 . S
C231 O218 1.258 . S
C231 O219 1.242 . S
H232 C204 0.930 . S
H233 C205 0.930 . S
H234 C206 0.930 . S
H235 C207 0.931 . S
H236 C225 0.930 . S
H237 C226 0.930 . S
H238 C227 0.930 . S
H239 C228 0.931 . S
Eu240 C249 2.828 . S
Eu240 O251 2.392 . S
Eu240 O253 2.418 . S
Eu240 O258 2.373 . S
Eu240 O261 2.488 . S
Eu240 O262 2.471 . S
Eu240 O263 2.349 . S
Eu241 O250 2.373 . S
Eu241 O254 2.488 . S
Eu241 O255 2.471 . S
Eu241 O256 2.349 . S
Eu241 O259 2.392 . S
Eu241 O260 2.418 . S
Eu241 C270 2.828 . S
C242 O260 1.244 . S
C242 O263 1.265 . S
C243 C244 1.379 . S
C243 C247 1.373 . S
C243 C249 1.505 . S
C244 C243 1.379 . S
C244 C246 1.369 . S
C244 H272 0.930 . S
C245 C247 1.383 1_565 S
C245 C248 1.382 1_565 S
C245 H273 0.930 . S
C246 C244 1.369 . S
C246 C248 1.392 . S
C246 H274 0.930 . S
C247 C243 1.373 . S
C247 C245 1.383 1_545 S
C247 H275 0.931 1_545 S
C248 C245 1.382 1_545 S
C248 C246 1.392 . S
C249 Eu240 2.828 . S
C249 C243 1.505 . S
C249 O261 1.249 . S
C249 O262 1.244 . S
O250 Eu241 2.373 . S
O250 C252 1.258 . S
O251 Eu240 2.392 . S
O251 C252 1.242 . S
C252 O250 1.258 . S
C252 O251 1.242 . S
O253 Eu240 2.418 . S
O253 C257 1.244 . S
O254 Eu241 2.488 . S
O254 C270 1.249 . S
O255 Eu241 2.471 . S
O255 C270 1.244 . S
O256 Eu241 2.349 . S
O256 C257 1.265 . S
C257 O253 1.244 . S
C257 O256 1.265 . S
O258 Eu240 2.373 . S
O258 C271 1.258 . S
O259 Eu241 2.392 . S
O259 C271 1.242 . S
O260 Eu241 2.418 . S
O260 C242 1.244 . S
O261 Eu240 2.488 . S
O261 C249 1.249 . S
O262 Eu240 2.471 . S
O262 C249 1.244 . S
O263 Eu240 2.349 . S
O263 C242 1.265 . S
C264 C265 1.379 . S
C264 C268 1.373 . S
C264 C270 1.505 . S
C265 C264 1.379 . S
C265 C267 1.369 . S
C265 H276 0.930 . S
C266 C268 1.383 . S
C266 C269 1.382 . S
C266 H277 0.930 . S
C267 C265 1.369 . S
C267 C269 1.392 . S
C267 H278 0.930 . S
C268 C264 1.373 . S
C268 C266 1.383 . S
C268 H279 0.931 . S
C269 C266 1.382 . S
C269 C267 1.392 . S
C270 Eu241 2.828 . S
C270 O254 1.249 . S
C270 O255 1.244 . S
C270 C264 1.505 . S
C271 O258 1.258 . S
C271 O259 1.242 . S
H272 C244 0.930 . S
H273 C245 0.930 . S
H274 C246 0.930 . S
H275 C247 0.931 1_565 S
H276 C265 0.930 . S
H277 C266 0.930 . S
H278 C267 0.930 . S
H279 C268 0.931 . S
Eu280 C289 2.828 . S
Eu280 O291 2.392 . S
Eu280 O293 2.418 . S
Eu280 O298 2.373 . S
Eu280 O301 2.488 . S
Eu280 O302 2.471 . S
Eu280 O303 2.349 . S
Eu281 O290 2.373 . S
Eu281 O294 2.488 . S
Eu281 O295 2.471 . S
Eu281 O296 2.349 . S
Eu281 O299 2.392 . S
Eu281 O300 2.418 . S
Eu281 C310 2.828 . S
C282 O300 1.244 . S
C282 O303 1.265 . S
C283 C284 1.379 . S
C283 C287 1.373 . S
C283 C289 1.505 . S
C284 C283 1.379 . S
C284 C286 1.369 . S
C284 H312 0.930 . S
C285 C287 1.383 . S
C285 C288 1.382 . S
C285 H313 0.930 . S
C286 C284 1.369 . S
C286 C288 1.392 . S
C286 H314 0.930 . S
C287 C283 1.373 . S
C287 C285 1.383 . S
C287 H315 0.931 . S
C288 C285 1.382 . S
C288 C286 1.392 . S
C289 Eu280 2.828 . S
C289 C283 1.505 . S
C289 O301 1.249 . S
C289 O302 1.244 . S
O290 Eu281 2.373 . S
O290 C292 1.258 . S
O291 Eu280 2.392 . S
O291 C292 1.242 . S
C292 O290 1.258 . S
C292 O291 1.242 . S
O293 Eu280 2.418 . S
O293 C297 1.244 . S
O294 Eu281 2.488 . S
O294 C310 1.249 . S
O295 Eu281 2.471 . S
O295 C310 1.244 . S
O296 Eu281 2.349 . S
O296 C297 1.265 . S
C297 O293 1.244 . S
C297 O296 1.265 . S
O298 Eu280 2.373 . S
O298 C311 1.258 . S
O299 Eu281 2.392 . S
O299 C311 1.242 . S
O300 Eu281 2.418 . S
O300 C282 1.244 . S
O301 Eu280 2.488 . S
O301 C289 1.249 . S
O302 Eu280 2.471 . S
O302 C289 1.244 . S
O303 Eu280 2.349 . S
O303 C282 1.265 . S
C304 C305 1.379 . S
C304 C308 1.373 1_455 S
C304 C310 1.505 . S
C305 C304 1.379 . S
C305 C307 1.369 . S
C305 H316 0.930 . S
C306 C308 1.383 . S
C306 C309 1.382 . S
C306 H317 0.930 . S
C307 C305 1.369 . S
C307 C309 1.392 1_455 S
C307 H318 0.930 . S
C308 C304 1.373 1_655 S
C308 C306 1.383 . S
C308 H319 0.931 . S
C309 C306 1.382 . S
C309 C307 1.392 1_655 S
C310 Eu281 2.828 . S
C310 O294 1.249 . S
C310 O295 1.244 . S
C310 C304 1.505 . S
C311 O298 1.258 . S
C311 O299 1.242 . S
H312 C284 0.930 . S
H313 C285 0.930 . S
H314 C286 0.930 . S
H315 C287 0.931 . S
H316 C305 0.930 . S
H317 C306 0.930 . S
H318 C307 0.930 . S
H319 C308 0.931 . S
Eu320 C329 2.828 . S
Eu320 O331 2.392 . S
Eu320 O333 2.418 . S
Eu320 O338 2.373 . S
Eu320 O341 2.488 . S
Eu320 O342 2.471 . S
Eu320 O343 2.349 . S
Eu321 O330 2.373 . S
Eu321 O334 2.488 . S
Eu321 O335 2.471 . S
Eu321 O336 2.349 . S
Eu321 O339 2.392 . S
Eu321 O340 2.418 . S
Eu321 C350 2.828 . S
C322 O340 1.244 . S
C322 O343 1.265 . S
C323 C324 1.379 . S
C323 C327 1.373 . S
C323 C329 1.505 . S
C324 C323 1.379 . S
C324 C326 1.369 . S
C324 H352 0.930 . S
C325 C327 1.383 . S
C325 C328 1.382 . S
C325 H353 0.930 . S
C326 C324 1.369 . S
C326 C328 1.392 . S
C326 H354 0.930 . S
C327 C323 1.373 . S
C327 C325 1.383 . S
C327 H355 0.931 . S
C328 C325 1.382 . S
C328 C326 1.392 . S
C329 Eu320 2.828 . S
C329 C323 1.505 . S
C329 O341 1.249 . S
C329 O342 1.244 . S
O330 Eu321 2.373 . S
O330 C332 1.258 . S
O331 Eu320 2.392 . S
O331 C332 1.242 . S
C332 O330 1.258 . S
C332 O331 1.242 . S
O333 Eu320 2.418 . S
O333 C337 1.244 . S
O334 Eu321 2.488 . S
O334 C350 1.249 . S
O335 Eu321 2.471 . S
O335 C350 1.244 . S
O336 Eu321 2.349 . S
O336 C337 1.265 . S
C337 O333 1.244 . S
C337 O336 1.265 . S
O338 Eu320 2.373 . S
O338 C351 1.258 . S
O339 Eu321 2.392 . S
O339 C351 1.242 . S
O340 Eu321 2.418 . S
O340 C322 1.244 . S
O341 Eu320 2.488 . S
O341 C329 1.249 . S
O342 Eu320 2.471 . S
O342 C329 1.244 . S
O343 Eu320 2.349 . S
O343 C322 1.265 . S
C344 C345 1.379 . S
C344 C348 1.373 . S
C344 C350 1.505 . S
C345 C344 1.379 . S
C345 C347 1.369 . S
C345 H356 0.930 . S
C346 C348 1.383 . S
C346 C349 1.382 . S
C346 H357 0.930 . S
C347 C345 1.369 . S
C347 C349 1.392 . S
C347 H358 0.930 . S
C348 C344 1.373 . S
C348 C346 1.383 . S
C348 H359 0.931 . S
C349 C346 1.382 . S
C349 C347 1.392 . S
C350 Eu321 2.828 . S
C350 O334 1.249 . S
C350 O335 1.244 . S
C350 C344 1.505 . S
C351 O338 1.258 . S
C351 O339 1.242 . S
H352 C324 0.930 . S
H353 C325 0.930 . S
H354 C326 0.930 . S
H355 C327 0.931 . S
H356 C345 0.930 . S
H357 C346 0.930 . S
H358 C347 0.930 . S
H359 C348 0.931 . S
Eu360 C369 2.828 . S
Eu360 O371 2.392 1_545 S
Eu360 O373 2.418 1_545 S
Eu360 O378 2.373 . S
Eu360 O381 2.488 . S
Eu360 O382 2.471 . S
Eu360 O383 2.349 . S
Eu361 O370 2.373 1_545 S
Eu361 O374 2.488 . S
Eu361 O375 2.471 . S
Eu361 O376 2.349 . S
Eu361 O379 2.392 . S
Eu361 O380 2.418 . S
Eu361 C390 2.828 . S
C362 O380 1.244 . S
C362 O383 1.265 . S
C363 C364 1.379 . S
C363 C367 1.373 1_455 S
C363 C369 1.505 . S
C364 C363 1.379 . S
C364 C366 1.369 . S
C364 H392 0.930 . S
C365 C367 1.383 . S
C365 C368 1.382 . S
C365 H393 0.930 . S
C366 C364 1.369 . S
C366 C368 1.392 1_455 S
C366 H394 0.930 . S
C367 C363 1.373 1_655 S
C367 C365 1.383 . S
C367 H395 0.931 . S
C368 C365 1.382 . S
C368 C366 1.392 1_655 S
C369 Eu360 2.828 . S
C369 C363 1.505 . S
C369 O381 1.249 . S
C369 O382 1.244 . S
O370 Eu361 2.373 1_565 S
O370 C372 1.258 . S
O371 Eu360 2.392 1_565 S
O371 C372 1.242 . S
C372 O370 1.258 . S
C372 O371 1.242 . S
O373 Eu360 2.418 1_565 S
O373 C377 1.243 1_565 S
O374 Eu361 2.488 . S
O374 C390 1.249 . S
O375 Eu361 2.471 . S
O375 C390 1.244 . S
O376 Eu361 2.349 . S
O376 C377 1.266 . S
C377 O373 1.243 1_545 S
C377 O376 1.266 . S
O378 Eu360 2.373 . S
O378 C391 1.258 . S
O379 Eu361 2.392 . S
O379 C391 1.242 . S
O380 Eu361 2.418 . S
O380 C362 1.244 . S
O381 Eu360 2.488 . S
O381 C369 1.249 . S
O382 Eu360 2.471 . S
O382 C369 1.244 . S
O383 Eu360 2.349 . S
O383 C362 1.265 . S
C384 C385 1.379 1_545 S
C384 C388 1.373 . S
C384 C390 1.505 . S
C385 C384 1.379 1_565 S
C385 C387 1.369 . S
C385 H396 0.930 . S
C386 C388 1.383 . S
C386 C389 1.382 1_545 S
C386 H397 0.930 . S
C387 C385 1.369 . S
C387 C389 1.392 . S
C387 H398 0.930 . S
C388 C384 1.373 . S
C388 C386 1.383 . S
C388 H399 0.931 . S
C389 C386 1.382 1_565 S
C389 C387 1.392 . S
C390 Eu361 2.828 . S
C390 O374 1.249 . S
C390 O375 1.244 . S
C390 C384 1.505 . S
C391 O378 1.258 . S
C391 O379 1.242 . S
H392 C364 0.930 . S
H393 C365 0.930 . S
H394 C366 0.930 . S
H395 C367 0.931 . S
H396 C385 0.930 . S
H397 C386 0.930 . S
H398 C387 0.930 . S
H399 C388 0.931 . S
Eu400 C409 2.828 . S
Eu400 O411 2.392 . S
Eu400 O413 2.418 . S
Eu400 O418 2.373 . S
Eu400 O421 2.488 . S
Eu400 O422 2.471 . S
Eu400 O423 2.349 . S
Eu401 O410 2.373 . S
Eu401 O414 2.488 . S
Eu401 O415 2.471 . S
Eu401 O416 2.349 . S
Eu401 O419 2.392 . S
Eu401 O420 2.418 . S
Eu401 C430 2.828 . S
C402 O420 1.244 . S
C402 O423 1.265 . S
C403 C404 1.379 . S
C403 C407 1.373 . S
C403 C409 1.505 . S
C404 C403 1.379 . S
C404 C406 1.369 . S
C404 H432 0.930 . S
C405 C407 1.383 . S
C405 C408 1.382 . S
C405 H433 0.930 . S
C406 C404 1.369 . S
C406 C408 1.392 . S
C406 H434 0.930 . S
C407 C403 1.373 . S
C407 C405 1.383 . S
C407 H435 0.931 . S
C408 C405 1.382 . S
C408 C406 1.392 . S
C409 Eu400 2.828 . S
C409 C403 1.505 . S
C409 O421 1.249 . S
C409 O422 1.244 . S
O410 Eu401 2.373 . S
O410 C412 1.258 . S
O411 Eu400 2.392 . S
O411 C412 1.242 . S
C412 O410 1.258 . S
C412 O411 1.242 . S
O413 Eu400 2.418 . S
O413 C417 1.244 . S
O414 Eu401 2.488 . S
O414 C430 1.249 . S
O415 Eu401 2.471 . S
O415 C430 1.244 . S
O416 Eu401 2.349 . S
O416 C417 1.265 . S
C417 O413 1.244 . S
C417 O416 1.265 . S
O418 Eu400 2.373 . S
O418 C431 1.258 . S
O419 Eu401 2.392 . S
O419 C431 1.242 . S
O420 Eu401 2.418 . S
O420 C402 1.244 . S
O421 Eu400 2.488 . S
O421 C409 1.249 . S
O422 Eu400 2.471 . S
O422 C409 1.244 . S
O423 Eu400 2.349 . S
O423 C402 1.265 . S
C424 C425 1.379 . S
C424 C428 1.373 . S
C424 C430 1.505 . S
C425 C424 1.379 . S
C425 C427 1.369 . S
C425 H436 0.930 . S
C426 C428 1.383 . S
C426 C429 1.382 . S
C426 H437 0.930 . S
C427 C425 1.369 . S
C427 C429 1.392 . S
C427 H438 0.930 . S
C428 C424 1.373 . S
C428 C426 1.383 . S
C428 H439 0.931 . S
C429 C426 1.382 . S
C429 C427 1.392 . S
C430 Eu401 2.828 . S
C430 O414 1.249 . S
C430 O415 1.244 . S
C430 C424 1.505 . S
C431 O418 1.258 . S
C431 O419 1.242 . S
H432 C404 0.930 . S
H433 C405 0.930 . S
H434 C406 0.930 . S
H435 C407 0.931 . S
H436 C425 0.930 . S
H437 C426 0.930 . S
H438 C427 0.930 . S
H439 C428 0.931 . S
Eu440 C449 2.828 . S
Eu440 O451 2.392 1_565 S
Eu440 O453 2.418 1_565 S
Eu440 O458 2.373 . S
Eu440 O461 2.488 . S
Eu440 O462 2.471 . S
Eu440 O463 2.349 . S
Eu441 O450 2.373 1_565 S
Eu441 O454 2.488 . S
Eu441 O455 2.471 . S
Eu441 O456 2.349 . S
Eu441 O459 2.392 . S
Eu441 O460 2.418 . S
Eu441 C470 2.828 . S
C442 O460 1.244 . S
C442 O463 1.265 . S
C443 C444 1.379 . S
C443 C447 1.373 . S
C443 C449 1.505 . S
C444 C443 1.379 . S
C444 C446 1.369 . S
C444 H472 0.930 . S
C445 C447 1.383 . S
C445 C448 1.382 . S
C445 H473 0.930 . S
C446 C444 1.369 . S
C446 C448 1.392 . S
C446 H474 0.930 . S
C447 C443 1.373 . S
C447 C445 1.383 . S
C447 H475 0.931 . S
C448 C445 1.382 . S
C448 C446 1.392 . S
C449 Eu440 2.828 . S
C449 C443 1.505 . S
C449 O461 1.249 . S
C449 O462 1.244 . S
O450 Eu441 2.373 1_545 S
O450 C452 1.258 . S
O451 Eu440 2.392 1_545 S
O451 C452 1.242 . S
C452 O450 1.258 . S
C452 O451 1.242 . S
O453 Eu440 2.418 1_545 S
O453 C457 1.243 1_545 S
O454 Eu441 2.488 . S
O454 C470 1.249 . S
O455 Eu441 2.471 . S
O455 C470 1.244 . S
O456 Eu441 2.349 . S
O456 C457 1.266 . S
C457 O453 1.243 1_565 S
C457 O456 1.266 . S
O458 Eu440 2.373 . S
O458 C471 1.258 . S
O459 Eu441 2.392 . S
O459 C471 1.242 . S
O460 Eu441 2.418 . S
O460 C442 1.244 . S
O461 Eu440 2.488 . S
O461 C449 1.249 . S
O462 Eu440 2.471 . S
O462 C449 1.244 . S
O463 Eu440 2.349 . S
O463 C442 1.265 . S
C464 C465 1.379 1_565 S
C464 C468 1.373 . S
C464 C470 1.505 . S
C465 C464 1.379 1_545 S
C465 C467 1.369 . S
C465 H476 0.930 . S
C466 C468 1.383 . S
C466 C469 1.382 1_565 S
C466 H477 0.930 . S
C467 C465 1.369 . S
C467 C469 1.392 . S
C467 H478 0.930 . S
C468 C464 1.373 . S
C468 C466 1.383 . S
C468 H479 0.931 . S
C469 C466 1.382 1_545 S
C469 C467 1.392 . S
C470 Eu441 2.828 . S
C470 O454 1.249 . S
C470 O455 1.244 . S
C470 C464 1.505 . S
C471 O458 1.258 . S
C471 O459 1.242 . S
H472 C444 0.930 . S
H473 C445 0.930 . S
H474 C446 0.930 . S
H475 C447 0.931 . S
H476 C465 0.930 . S
H477 C466 0.930 . S
H478 C467 0.930 . S
H479 C468 0.931 . S
Eu480 C489 2.828 . S
Eu480 O491 2.392 . S
Eu480 O493 2.418 . S
Eu480 O498 2.373 . S
Eu480 O501 2.488 . S
Eu480 O502 2.471 . S
Eu480 O503 2.349 . S
Eu481 O490 2.373 . S
Eu481 O494 2.488 . S
Eu481 O495 2.471 . S
Eu481 O496 2.349 . S
Eu481 O499 2.392 . S
Eu481 O500 2.418 . S
Eu481 C510 2.828 . S
C482 O500 1.244 . S
C482 O503 1.265 . S
C483 C484 1.379 . S
C483 C487 1.373 . S
C483 C489 1.505 . S
C484 C483 1.379 . S
C484 C486 1.369 . S
C484 H512 0.930 . S
C485 C487 1.383 . S
C485 C488 1.382 . S
C485 H513 0.930 . S
C486 C484 1.369 . S
C486 C488 1.392 . S
C486 H514 0.930 . S
C487 C483 1.373 . S
C487 C485 1.383 . S
C487 H515 0.931 . S
C488 C485 1.382 . S
C488 C486 1.392 . S
C489 Eu480 2.828 . S
C489 C483 1.505 . S
C489 O501 1.249 . S
C489 O502 1.244 . S
O490 Eu481 2.373 . S
O490 C492 1.258 . S
O491 Eu480 2.392 . S
O491 C492 1.242 . S
C492 O490 1.258 . S
C492 O491 1.242 . S
O493 Eu480 2.418 . S
O493 C497 1.244 . S
O494 Eu481 2.488 . S
O494 C510 1.249 . S
O495 Eu481 2.471 . S
O495 C510 1.244 . S
O496 Eu481 2.349 . S
O496 C497 1.265 . S
C497 O493 1.244 . S
C497 O496 1.265 . S
O498 Eu480 2.373 . S
O498 C511 1.258 . S
O499 Eu481 2.392 . S
O499 C511 1.242 . S
O500 Eu481 2.418 . S
O500 C482 1.244 . S
O501 Eu480 2.488 . S
O501 C489 1.249 . S
O502 Eu480 2.471 . S
O502 C489 1.244 . S
O503 Eu480 2.349 . S
O503 C482 1.265 . S
C504 C505 1.379 . S
C504 C508 1.373 . S
C504 C510 1.505 . S
C505 C504 1.379 . S
C505 C507 1.369 . S
C505 H516 0.930 . S
C506 C508 1.383 . S
C506 C509 1.382 . S
C506 H517 0.930 . S
C507 C505 1.369 . S
C507 C509 1.392 . S
C507 H518 0.930 . S
C508 C504 1.373 . S
C508 C506 1.383 . S
C508 H519 0.931 . S
C509 C506 1.382 . S
C509 C507 1.392 . S
C510 Eu481 2.828 . S
C510 O494 1.249 . S
C510 O495 1.244 . S
C510 C504 1.505 . S
C511 O498 1.258 . S
C511 O499 1.242 . S
H512 C484 0.930 . S
H513 C485 0.930 . S
H514 C486 0.930 . S
H515 C487 0.931 . S
H516 C505 0.930 . S
H517 C506 0.930 . S
H518 C507 0.930 . S
H519 C508 0.931 . S
Eu520 C529 2.828 . S
Eu520 O531 2.392 . S
Eu520 O533 2.418 . S
Eu520 O538 2.373 1_565 S
Eu520 O541 2.488 . S
Eu520 O542 2.471 . S
Eu520 O543 2.349 . S
Eu521 O530 2.373 . S
Eu521 O534 2.488 . S
Eu521 O535 2.471 . S
Eu521 O536 2.349 . S
Eu521 O539 2.392 1_565 S
Eu521 O540 2.418 1_565 S
Eu521 C550 2.828 . S
C522 O540 1.243 1_565 S
C522 O543 1.266 . S
C523 C524 1.379 1_565 S
C523 C527 1.373 . S
C523 C529 1.505 . S
C524 C523 1.379 1_545 S
C524 C526 1.369 . S
C524 H552 0.930 . S
C525 C527 1.383 . S
C525 C528 1.382 1_565 S
C525 H553 0.930 . S
C526 C524 1.369 . S
C526 C528 1.392 . S
C526 H554 0.930 . S
C527 C523 1.373 . S
C527 C525 1.383 . S
C527 H555 0.931 . S
C528 C525 1.382 1_545 S
C528 C526 1.392 . S
C529 Eu520 2.828 . S
C529 C523 1.505 . S
C529 O541 1.249 . S
C529 O542 1.244 . S
O530 Eu521 2.373 . S
O530 C532 1.258 . S
O531 Eu520 2.392 . S
O531 C532 1.242 . S
C532 O530 1.258 . S
C532 O531 1.242 . S
O533 Eu520 2.418 . S
O533 C537 1.244 . S
O534 Eu521 2.488 . S
O534 C550 1.249 . S
O535 Eu521 2.471 . S
O535 C550 1.244 . S
O536 Eu521 2.349 . S
O536 C537 1.265 . S
C537 O533 1.244 . S
C537 O536 1.265 . S
O538 Eu520 2.373 1_545 S
O538 C551 1.258 . S
O539 Eu521 2.392 1_545 S
O539 C551 1.242 . S
O540 Eu521 2.418 1_545 S
O540 C522 1.243 1_545 S
O541 Eu520 2.488 . S
O541 C529 1.249 . S
O542 Eu520 2.471 . S
O542 C529 1.244 . S
O543 Eu520 2.349 . S
O543 C522 1.266 . S
C544 C545 1.379 . S
C544 C548 1.373 1_655 S
C544 C550 1.505 . S
C545 C544 1.379 . S
C545 C547 1.369 . S
C545 H556 0.930 . S
C546 C548 1.383 . S
C546 C549 1.382 . S
C546 H557 0.930 . S
C547 C545 1.369 . S
C547 C549 1.392 1_655 S
C547 H558 0.930 . S
C548 C544 1.373 1_455 S
C548 C546 1.383 . S
C548 H559 0.931 . S
C549 C546 1.382 . S
C549 C547 1.392 1_455 S
C550 Eu521 2.828 . S
C550 O534 1.249 . S
C550 O535 1.244 . S
C550 C544 1.505 . S
C551 O538 1.258 . S
C551 O539 1.242 . S
H552 C524 0.930 . S
H553 C525 0.930 . S
H554 C526 0.930 . S
H555 C527 0.931 . S
H556 C545 0.930 . S
H557 C546 0.930 . S
H558 C547 0.930 . S
H559 C548 0.931 . S
Eu560 C569 2.828 . S
Eu560 O571 2.392 . S
Eu560 O573 2.418 . S
Eu560 O578 2.373 . S
Eu560 O581 2.488 . S
Eu560 O582 2.471 . S
Eu560 O583 2.349 . S
Eu561 O570 2.373 . S
Eu561 O574 2.488 . S
Eu561 O575 2.471 . S
Eu561 O576 2.349 . S
Eu561 O579 2.392 . S
Eu561 O580 2.418 . S
Eu561 C590 2.828 . S
C562 O580 1.244 . S
C562 O583 1.265 . S
C563 C564 1.379 . S
C563 C567 1.373 . S
C563 C569 1.505 . S
C564 C563 1.379 . S
C564 C566 1.369 . S
C564 H592 0.930 . S
C565 C567 1.383 . S
C565 C568 1.382 . S
C565 H593 0.930 . S
C566 C564 1.369 . S
C566 C568 1.392 . S
C566 H594 0.930 . S
C567 C563 1.373 . S
C567 C565 1.383 . S
C567 H595 0.931 . S
C568 C565 1.382 . S
C568 C566 1.392 . S
C569 Eu560 2.828 . S
C569 C563 1.505 . S
C569 O581 1.249 . S
C569 O582 1.244 . S
O570 Eu561 2.373 . S
O570 C572 1.258 . S
O571 Eu560 2.392 . S
O571 C572 1.242 . S
C572 O570 1.258 . S
C572 O571 1.242 . S
O573 Eu560 2.418 . S
O573 C577 1.244 . S
O574 Eu561 2.488 . S
O574 C590 1.249 . S
O575 Eu561 2.471 . S
O575 C590 1.244 . S
O576 Eu561 2.349 . S
O576 C577 1.265 . S
C577 O573 1.244 . S
C577 O576 1.265 . S
O578 Eu560 2.373 . S
O578 C591 1.258 . S
O579 Eu561 2.392 . S
O579 C591 1.242 . S
O580 Eu561 2.418 . S
O580 C562 1.244 . S
O581 Eu560 2.488 . S
O581 C569 1.249 . S
O582 Eu560 2.471 . S
O582 C569 1.244 . S
O583 Eu560 2.349 . S
O583 C562 1.265 . S
C584 C585 1.379 . S
C584 C588 1.373 . S
C584 C590 1.505 . S
C585 C584 1.379 . S
C585 C587 1.369 . S
C585 H596 0.930 . S
C586 C588 1.383 . S
C586 C589 1.382 . S
C586 H597 0.930 . S
C587 C585 1.369 . S
C587 C589 1.392 . S
C587 H598 0.930 . S
C588 C584 1.373 . S
C588 C586 1.383 . S
C588 H599 0.931 . S
C589 C586 1.382 . S
C589 C587 1.392 . S
C590 Eu561 2.828 . S
C590 O574 1.249 . S
C590 O575 1.244 . S
C590 C584 1.505 . S
C591 O578 1.258 . S
C591 O579 1.242 . S
H592 C564 0.930 . S
H593 C565 0.930 . S
H594 C566 0.930 . S
H595 C567 0.931 . S
H596 C585 0.930 . S
H597 C586 0.930 . S
H598 C587 0.930 . S
H599 C588 0.931 . S
Eu600 C609 2.828 . S
Eu600 O611 2.392 . S
Eu600 O613 2.418 . S
Eu600 O618 2.373 1_545 S
Eu600 O621 2.488 . S
Eu600 O622 2.471 . S
Eu600 O623 2.349 . S
Eu601 O610 2.373 . S
Eu601 O614 2.488 . S
Eu601 O615 2.471 . S
Eu601 O616 2.349 . S
Eu601 O619 2.392 1_545 S
Eu601 O620 2.418 1_545 S
Eu601 C630 2.828 . S
C602 O620 1.243 1_545 S
C602 O623 1.266 . S
C603 C604 1.379 1_545 S
C603 C607 1.373 . S
C603 C609 1.505 . S
C604 C603 1.379 1_565 S
C604 C606 1.369 . S
C604 H632 0.930 . S
C605 C607 1.383 . S
C605 C608 1.382 1_545 S
C605 H633 0.930 . S
C606 C604 1.369 . S
C606 C608 1.392 . S
C606 H634 0.930 . S
C607 C603 1.373 . S
C607 C605 1.383 . S
C607 H635 0.931 . S
C608 C605 1.382 1_565 S
C608 C606 1.392 . S
C609 Eu600 2.828 . S
C609 C603 1.505 . S
C609 O621 1.249 . S
C609 O622 1.244 . S
O610 Eu601 2.373 . S
O610 C612 1.258 . S
O611 Eu600 2.392 . S
O611 C612 1.242 . S
C612 O610 1.258 . S
C612 O611 1.242 . S
O613 Eu600 2.418 . S
O613 C617 1.244 . S
O614 Eu601 2.488 . S
O614 C630 1.249 . S
O615 Eu601 2.471 . S
O615 C630 1.244 . S
O616 Eu601 2.349 . S
O616 C617 1.265 . S
C617 O613 1.244 . S
C617 O616 1.265 . S
O618 Eu600 2.373 1_565 S
O618 C631 1.258 . S
O619 Eu601 2.392 1_565 S
O619 C631 1.242 . S
O620 Eu601 2.418 1_565 S
O620 C602 1.243 1_565 S
O621 Eu600 2.488 . S
O621 C609 1.249 . S
O622 Eu600 2.471 . S
O622 C609 1.244 . S
O623 Eu600 2.349 . S
O623 C602 1.266 . S
C624 C625 1.379 . S
C624 C628 1.373 . S
C624 C630 1.505 . S
C625 C624 1.379 . S
C625 C627 1.369 . S
C625 H636 0.930 . S
C626 C628 1.383 . S
C626 C629 1.382 . S
C626 H637 0.930 . S
C627 C625 1.369 . S
C627 C629 1.392 . S
C627 H638 0.930 . S
C628 C624 1.373 . S
C628 C626 1.383 . S
C628 H639 0.931 . S
C629 C626 1.382 . S
C629 C627 1.392 . S
C630 Eu601 2.828 . S
C630 O614 1.249 . S
C630 O615 1.244 . S
C630 C624 1.505 . S
C631 O618 1.258 . S
C631 O619 1.242 . S
H632 C604 0.930 . S
H633 C605 0.930 . S
H634 C606 0.930 . S
H635 C607 0.931 . S
H636 C625 0.930 . S
H637 C626 0.930 . S
H638 C627 0.930 . S
H639 C628 0.931 . S
H640 C646 0.930 . S
H641 C649 0.930 . S
H642 C650 0.930 . S
H643 C651 0.930 . S
H644 C654 0.930 . S
H645 C655 0.930 . S
C646 H640 0.930 . S
C646 C647 1.355 . S
C646 C648 1.415 . S
C647 C646 1.355 . S
C647 C649 1.419 . S
C648 C646 1.415 . S
C648 C653 1.425 . S
C648 C655 1.409 . S
C649 H641 0.930 . S
C649 C647 1.419 . S
C649 C650 1.362 . S
C650 H642 0.930 . S
C650 C649 1.362 . S
C650 C653 1.409 . S
C651 H643 0.930 . S
C651 C652 1.355 . S
C651 C653 1.415 . S
C652 C651 1.355 . S
C652 C654 1.419 . S
C653 C648 1.425 . S
C653 C650 1.409 . S
C653 C651 1.415 . S
C654 H644 0.930 . S
C654 C652 1.419 . S
C654 C655 1.362 . S
C655 H645 0.930 . S
C655 C648 1.409 . S
C655 C654 1.362 . S
H656 C662 0.930 . S
H657 C665 0.930 . S
H658 C666 0.930 . S
H659 C667 0.930 . S
H660 C670 0.930 . S
H661 C671 0.930 . S
C662 H656 0.930 . S
C662 C663 1.355 . S
C662 C664 1.415 . S
C663 C662 1.355 . S
C663 C665 1.419 . S
C664 C662 1.415 . S
C664 C669 1.425 . S
C664 C671 1.409 . S
C665 H657 0.930 . S
C665 C663 1.419 . S
C665 C666 1.362 . S
C666 H658 0.930 . S
C666 C665 1.362 . S
C666 C669 1.409 . S
C667 H659 0.930 . S
C667 C668 1.355 . S
C667 C669 1.415 . S
C668 C667 1.355 . S
C668 C670 1.419 . S
C669 C664 1.425 . S
C669 C666 1.409 . S
C669 C667 1.415 . S
C670 H660 0.930 . S
C670 C668 1.419 . S
C670 C671 1.362 . S
C671 H661 0.930 . S
C671 C664 1.409 . S
C671 C670 1.362 . S
H672 C678 0.930 . S
H673 C681 0.930 . S
H674 C682 0.930 . S
H675 C683 0.930 . S
H676 C686 0.930 . S
H677 C687 0.930 . S
C678 H672 0.930 . S
C678 C679 1.355 . S
C678 C680 1.415 . S
C679 C678 1.355 . S
C679 C681 1.419 . S
C680 C678 1.415 . S
C680 C685 1.425 . S
C680 C687 1.409 . S
C681 H673 0.930 . S
C681 C679 1.419 . S
C681 C682 1.362 . S
C682 H674 0.930 . S
C682 C681 1.362 . S
C682 C685 1.409 . S
C683 H675 0.930 . S
C683 C684 1.355 . S
C683 C685 1.415 . S
C684 C683 1.355 . S
C684 C686 1.419 . S
C685 C680 1.425 . S
C685 C682 1.409 . S
C685 C683 1.415 . S
C686 H676 0.930 . S
C686 C684 1.419 . S
C686 C687 1.362 . S
C687 H677 0.930 . S
C687 C680 1.409 . S
C687 C686 1.362 . S
H688 C694 0.930 . S
H689 C697 0.930 . S
H690 C698 0.930 . S
H691 C699 0.930 . S
H692 C702 0.930 . S
H693 C703 0.930 . S
C694 H688 0.930 . S
C694 C695 1.355 1_654 S
C694 C696 1.415 . S
C695 C694 1.355 1_456 S
C695 C697 1.419 . S
C696 C694 1.415 . S
C696 C701 1.425 1_654 S
C696 C703 1.409 . S
C697 H689 0.930 . S
C697 C695 1.419 . S
C697 C698 1.362 . S
C698 H690 0.930 . S
C698 C697 1.362 . S
C698 C701 1.409 . S
C699 H691 0.930 . S
C699 C700 1.355 1_456 S
C699 C701 1.415 . S
C700 C699 1.355 1_654 S
C700 C702 1.419 . S
C701 C696 1.425 1_456 S
C701 C698 1.409 . S
C701 C699 1.415 . S
C702 H692 0.930 . S
C702 C700 1.419 . S
C702 C703 1.362 . S
C703 H693 0.930 . S
C703 C696 1.409 . S
C703 C702 1.362 . S
H704 C710 0.930 . S
H705 C713 0.930 . S
H706 C714 0.930 . S
H707 C715 0.930 . S
H708 C718 0.930 . S
H709 C719 0.930 . S
C710 H704 0.930 . S
C710 C711 1.355 . S
C710 C712 1.415 . S
C711 C710 1.355 . S
C711 C713 1.419 . S
C712 C710 1.415 . S
C712 C717 1.425 . S
C712 C719 1.409 . S
C713 H705 0.930 . S
C713 C711 1.419 . S
C713 C714 1.362 . S
C714 H706 0.930 . S
C714 C713 1.362 . S
C714 C717 1.409 . S
C715 H707 0.930 . S
C715 C716 1.355 . S
C715 C717 1.415 . S
C716 C715 1.355 . S
C716 C718 1.419 . S
C717 C712 1.425 . S
C717 C714 1.409 . S
C717 C715 1.415 . S
C718 H708 0.930 . S
C718 C716 1.419 . S
C718 C719 1.362 . S
C719 H709 0.930 . S
C719 C712 1.409 . S
C719 C718 1.362 . S
H720 C726 0.930 . S
H721 C729 0.930 . S
H722 C730 0.930 . S
H723 C731 0.930 . S
H724 C734 0.930 . S
H725 C735 0.930 . S
C726 H720 0.930 . S
C726 C727 1.355 . S
C726 C728 1.415 . S
C727 C726 1.355 . S
C727 C729 1.419 . S
C728 C726 1.415 . S
C728 C733 1.425 . S
C728 C735 1.409 . S
C729 H721 0.930 . S
C729 C727 1.419 . S
C729 C730 1.362 . S
C730 H722 0.930 . S
C730 C729 1.362 . S
C730 C733 1.409 . S
C731 H723 0.930 . S
C731 C732 1.355 . S
C731 C733 1.415 . S
C732 C731 1.355 . S
C732 C734 1.419 . S
C733 C728 1.425 . S
C733 C730 1.409 . S
C733 C731 1.415 . S
C734 H724 0.930 . S
C734 C732 1.419 . S
C734 C735 1.362 . S
C735 H725 0.930 . S
C735 C728 1.409 . S
C735 C734 1.362 . S
H736 C742 0.930 . S
H737 C745 0.930 . S
H738 C746 0.930 . S
H739 C747 0.930 . S
H740 C750 0.930 . S
H741 C751 0.930 . S
C742 H736 0.930 . S
C742 C743 1.355 1_655 S
C742 C744 1.415 . S
C743 C742 1.355 1_455 S
C743 C745 1.419 1_554 S
C744 C742 1.415 . S
C744 C749 1.425 1_664 S
C744 C751 1.409 1_565 S
C745 H737 0.930 . S
C745 C743 1.419 1_556 S
C745 C746 1.362 . S
C746 H738 0.930 . S
C746 C745 1.362 . S
C746 C749 1.409 1_565 S
C747 H739 0.930 . S
C747 C748 1.355 1_455 S
C747 C749 1.415 . S
C748 C747 1.355 1_655 S
C748 C750 1.419 1_556 S
C749 C744 1.425 1_446 S
C749 C746 1.409 1_545 S
C749 C747 1.415 . S
C750 H740 0.930 . S
C750 C748 1.419 1_554 S
C750 C751 1.362 . S
C751 H741 0.930 . S
C751 C744 1.409 1_545 S
C751 C750 1.362 . S
H752 C758 0.930 . S
H753 C761 0.930 . S
H754 C762 0.930 . S
H755 C763 0.930 . S
H756 C766 0.930 . S
H757 C767 0.930 . S
C758 H752 0.930 . S
C758 C759 1.355 . S
C758 C760 1.415 . S
C759 C758 1.355 . S
C759 C761 1.419 . S
C760 C758 1.415 . S
C760 C765 1.425 1_565 S
C760 C767 1.409 1_565 S
C761 H753 0.930 . S
C761 C759 1.419 . S
C761 C762 1.362 . S
C762 H754 0.930 . S
C762 C761 1.362 . S
C762 C765 1.409 1_565 S
C763 H755 0.930 . S
C763 C764 1.355 . S
C763 C765 1.415 . S
C764 C763 1.355 . S
C764 C766 1.419 . S
C765 C760 1.425 1_545 S
C765 C762 1.409 1_545 S
C765 C763 1.415 . S
C766 H756 0.930 . S
C766 C764 1.419 . S
C766 C767 1.362 . S
C767 H757 0.930 . S
C767 C760 1.409 1_545 S
C767 C766 1.362 . S
H768 C774 0.930 . S
H769 C777 0.930 . S
H770 C778 0.930 . S
H771 C779 0.930 . S
H772 C782 0.930 . S
H773 C783 0.930 . S
C774 H768 0.930 . S
C774 C775 1.355 . S
C774 C776 1.415 . S
C775 C774 1.355 . S
C775 C777 1.419 . S
C776 C774 1.415 . S
C776 C781 1.425 . S
C776 C783 1.409 1_545 S
C777 H769 0.930 . S
C777 C775 1.419 . S
C777 C778 1.362 . S
C778 H770 0.930 . S
C778 C777 1.362 . S
C778 C781 1.409 . S
C779 H771 0.930 . S
C779 C780 1.355 . S
C779 C781 1.415 . S
C780 C779 1.355 . S
C780 C782 1.419 1_545 S
C781 C776 1.425 . S
C781 C778 1.409 . S
C781 C779 1.415 . S
C782 H772 0.930 . S
C782 C780 1.419 1_565 S
C782 C783 1.362 . S
C783 H773 0.930 . S
C783 C776 1.409 1_565 S
C783 C782 1.362 . S
H784 C790 0.930 . S
H785 C793 0.930 . S
H786 C794 0.930 . S
H787 C795 0.930 . S
H788 C798 0.930 . S
H789 C799 0.930 . S
C790 H784 0.930 . S
C790 C791 1.355 . S
C790 C792 1.415 . S
C791 C790 1.355 . S
C791 C793 1.419 . S
C792 C790 1.415 . S
C792 C797 1.425 . S
C792 C799 1.409 . S
C793 H785 0.930 . S
C793 C791 1.419 . S
C793 C794 1.362 . S
C794 H786 0.930 . S
C794 C793 1.362 . S
C794 C797 1.409 . S
C795 H787 0.930 . S
C795 C796 1.355 . S
C795 C797 1.415 . S
C796 C795 1.355 . S
C796 C798 1.419 . S
C797 C792 1.425 . S
C797 C794 1.409 . S
C797 C795 1.415 . S
C798 H788 0.930 . S
C798 C796 1.419 . S
C798 C799 1.362 . S
C799 H789 0.930 . S
C799 C792 1.409 . S
C799 C798 1.362 . S
H800 C806 0.930 . S
H801 C809 0.930 . S
H802 C810 0.930 . S
H803 C811 0.930 . S
H804 C814 0.930 . S
H805 C815 0.930 . S
C806 H800 0.930 . S
C806 C807 1.355 1_545 S
C806 C808 1.415 1_545 S
C807 C806 1.355 1_565 S
C807 C809 1.419 . S
C808 C806 1.415 1_565 S
C808 C813 1.425 . S
C808 C815 1.409 1_565 S
C809 H801 0.930 . S
C809 C807 1.419 . S
C809 C810 1.362 . S
C810 H802 0.930 . S
C810 C809 1.362 . S
C810 C813 1.409 . S
C811 H803 0.930 . S
C811 C812 1.355 . S
C811 C813 1.415 . S
C812 C811 1.355 . S
C812 C814 1.419 . S
C813 C808 1.425 . S
C813 C810 1.409 . S
C813 C811 1.415 . S
C814 H804 0.930 . S
C814 C812 1.419 . S
C814 C815 1.362 1_565 S
C815 H805 0.930 . S
C815 C808 1.409 1_545 S
C815 C814 1.362 1_545 S
H816 C822 0.930 . S
H817 C825 0.930 . S
H818 C826 0.930 . S
H819 C827 0.930 . S
H820 C830 0.930 . S
H821 C831 0.930 . S
C822 H816 0.930 . S
C822 C823 1.355 . S
C822 C824 1.415 . S
C823 C822 1.355 . S
C823 C825 1.419 . S
C824 C822 1.415 . S
C824 C829 1.425 . S
C824 C831 1.409 . S
C825 H817 0.930 . S
C825 C823 1.419 . S
C825 C826 1.362 . S
C826 H818 0.930 . S
C826 C825 1.362 . S
C826 C829 1.409 . S
C827 H819 0.930 . S
C827 C828 1.355 . S
C827 C829 1.415 . S
C828 C827 1.355 . S
C828 C830 1.419 . S
C829 C824 1.425 . S
C829 C826 1.409 . S
C829 C827 1.415 . S
C830 H820 0.930 . S
C830 C828 1.419 . S
C830 C831 1.362 . S
C831 H821 0.930 . S
C831 C824 1.409 . S
C831 C830 1.362 . S
H832 C838 0.930 1_545 S
H833 C841 0.930 . S
H834 C842 0.930 . S
H835 C843 0.930 . S
H836 C846 0.930 . S
H837 C847 0.930 . S
C838 H832 0.930 1_565 S
C838 C839 1.355 . S
C838 C840 1.415 . S
C839 C838 1.355 . S
C839 C841 1.419 . S
C840 C838 1.415 . S
C840 C845 1.425 . S
C840 C847 1.409 1_565 S
C841 H833 0.930 . S
C841 C839 1.419 . S
C841 C842 1.362 . S
C842 H834 0.930 . S
C842 C841 1.362 . S
C842 C845 1.409 . S
C843 H835 0.930 . S
C843 C844 1.355 . S
C843 C845 1.415 . S
C844 C843 1.355 . S
C844 C846 1.419 1_565 S
C845 C840 1.425 . S
C845 C842 1.409 . S
C845 C843 1.415 . S
C846 H836 0.930 . S
C846 C844 1.419 1_545 S
C846 C847 1.362 . S
C847 H837 0.930 . S
C847 C840 1.409 1_545 S
C847 C846 1.362 . S
H848 C854 0.930 . S
H849 C857 0.930 . S
H850 C858 0.930 . S
H851 C859 0.930 . S
H852 C862 0.930 . S
H853 C863 0.930 . S
C854 H848 0.930 . S
C854 C855 1.355 . S
C854 C856 1.415 . S
C855 C854 1.355 . S
C855 C857 1.419 . S
C856 C854 1.415 . S
C856 C861 1.425 . S
C856 C863 1.409 . S
C857 H849 0.930 . S
C857 C855 1.419 . S
C857 C858 1.362 . S
C858 H850 0.930 . S
C858 C857 1.362 . S
C858 C861 1.409 . S
C859 H851 0.930 . S
C859 C860 1.355 . S
C859 C861 1.415 . S
C860 C859 1.355 . S
C860 C862 1.419 . S
C861 C856 1.425 . S
C861 C858 1.409 . S
C861 C859 1.415 . S
C862 H852 0.930 . S
C862 C860 1.419 . S
C862 C863 1.362 . S
C863 H853 0.930 . S
C863 C856 1.409 . S
C863 C862 1.362 . S
H864 C870 0.930 . S
H865 C873 0.930 . S
H866 C874 0.930 . S
H867 C875 0.930 . S
H868 C878 0.930 . S
H869 C879 0.930 . S
C870 H864 0.930 . S
C870 C871 1.355 . S
C870 C872 1.415 . S
C871 C870 1.355 . S
C871 C873 1.419 . S
C872 C870 1.415 . S
C872 C877 1.425 . S
C872 C879 1.409 . S
C873 H865 0.930 . S
C873 C871 1.419 . S
C873 C874 1.362 . S
C874 H866 0.930 . S
C874 C873 1.362 . S
C874 C877 1.409 . S
C875 H867 0.930 . S
C875 C876 1.355 . S
C875 C877 1.415 . S
C876 C875 1.355 . S
C876 C878 1.419 . S
C877 C872 1.425 . S
C877 C874 1.409 . S
C877 C875 1.415 . S
C878 H868 0.930 . S
C878 C876 1.419 . S
C878 C879 1.362 . S
C879 H869 0.930 . S
C879 C872 1.409 . S
C879 C878 1.362 . S
H880 C886 0.930 . S
H881 C889 0.930 . S
H882 C890 0.930 . S
H883 C891 0.930 . S
H884 C894 0.930 . S
H885 C895 0.930 . S
C886 H880 0.930 . S
C886 C887 1.355 . S
C886 C888 1.415 . S
C887 C886 1.355 . S
C887 C889 1.419 . S
C888 C886 1.415 . S
C888 C893 1.425 . S
C888 C895 1.409 . S
C889 H881 0.930 . S
C889 C887 1.419 . S
C889 C890 1.362 . S
C890 H882 0.930 . S
C890 C889 1.362 . S
C890 C893 1.409 . S
C891 H883 0.930 . S
C891 C892 1.355 . S
C891 C893 1.415 . S
C892 C891 1.355 . S
C892 C894 1.419 . S
C893 C888 1.425 . S
C893 C890 1.409 . S
C893 C891 1.415 . S
C894 H884 0.930 . S
C894 C892 1.419 . S
C894 C895 1.362 . S
C895 H885 0.930 . S
C895 C888 1.409 . S
C895 C894 1.362 . S
H896 C902 0.930 . S
H897 C905 0.930 . S
H898 C906 0.930 . S
H899 C907 0.930 . S
H900 C910 0.930 . S
H901 C911 0.930 . S
C902 H896 0.930 . S
C902 C903 1.355 . S
C902 C904 1.415 . S
C903 C902 1.355 . S
C903 C905 1.419 . S
C904 C902 1.415 . S
C904 C909 1.425 . S
C904 C911 1.409 . S
C905 H897 0.930 . S
C905 C903 1.419 . S
C905 C906 1.362 . S
C906 H898 0.930 . S
C906 C905 1.362 . S
C906 C909 1.409 . S
C907 H899 0.930 . S
C907 C908 1.355 . S
C907 C909 1.415 . S
C908 C907 1.355 . S
C908 C910 1.419 . S
C909 C904 1.425 . S
C909 C906 1.409 . S
C909 C907 1.415 . S
C910 H900 0.930 . S
C910 C908 1.419 . S
C910 C911 1.362 . S
C911 H901 0.930 . S
C911 C904 1.409 . S
C911 C910 1.362 . S
H912 C918 0.930 . S
H913 C921 0.930 . S
H914 C922 0.930 . S
H915 C923 0.930 1_545 S
H916 C926 0.930 . S
H917 C927 0.930 . S
C918 H912 0.930 . S
C918 C919 1.355 . S
C918 C920 1.415 . S
C919 C918 1.355 . S
C919 C921 1.419 1_565 S
C920 C918 1.415 . S
C920 C925 1.425 . S
C920 C927 1.409 . S
C921 H913 0.930 . S
C921 C919 1.419 1_545 S
C921 C922 1.362 . S
C922 H914 0.930 . S
C922 C921 1.362 . S
C922 C925 1.409 1_545 S
C923 H915 0.930 1_565 S
C923 C924 1.355 . S
C923 C925 1.415 . S
C924 C923 1.355 . S
C924 C926 1.419 . S
C925 C920 1.425 . S
C925 C922 1.409 1_565 S
C925 C923 1.415 . S
C926 H916 0.930 . S
C926 C924 1.419 . S
C926 C927 1.362 . S
C927 H917 0.930 . S
C927 C920 1.409 . S
C927 C926 1.362 . S
H928 C934 0.930 . S
H929 C937 0.930 . S
H930 C938 0.930 . S
H931 C939 0.930 . S
H932 C942 0.930 . S
H933 C943 0.930 . S
C934 H928 0.930 . S
C934 C935 1.355 . S
C934 C936 1.415 . S
C935 C934 1.355 . S
C935 C937 1.419 . S
C936 C934 1.415 . S
C936 C941 1.425 . S
C936 C943 1.409 . S
C937 H929 0.930 . S
C937 C935 1.419 . S
C937 C938 1.362 . S
C938 H930 0.930 . S
C938 C937 1.362 . S
C938 C941 1.409 . S
C939 H931 0.930 . S
C939 C940 1.355 . S
C939 C941 1.415 . S
C940 C939 1.355 . S
C940 C942 1.419 . S
C941 C936 1.425 . S
C941 C938 1.409 . S
C941 C939 1.415 . S
C942 H932 0.930 . S
C942 C940 1.419 . S
C942 C943 1.362 . S
C943 H933 0.930 . S
C943 C936 1.409 . S
C943 C942 1.362 . S
H944 C950 0.930 . S
H945 C953 0.930 . S
H946 C954 0.930 . S
H947 C955 0.930 . S
H948 C958 0.930 . S
H949 C959 0.930 . S
C950 H944 0.930 . S
C950 C951 1.355 . S
C950 C952 1.415 . S
C951 C950 1.355 . S
C951 C953 1.419 . S
C952 C950 1.415 . S
C952 C957 1.425 . S
C952 C959 1.409 . S
C953 H945 0.930 . S
C953 C951 1.419 . S
C953 C954 1.362 . S
C954 H946 0.930 . S
C954 C953 1.362 . S
C954 C957 1.409 . S
C955 H947 0.930 . S
C955 C956 1.355 . S
C955 C957 1.415 . S
C956 C955 1.355 . S
C956 C958 1.419 . S
C957 C952 1.425 . S
C957 C954 1.409 . S
C957 C955 1.415 . S
C958 H948 0.930 . S
C958 C956 1.419 . S
C958 C959 1.362 . S
C959 H949 0.930 . S
C959 C952 1.409 . S
C959 C958 1.362 . S
H960 C966 0.930 . S
H961 C969 0.930 . S
H962 C970 0.930 . S
H963 C971 0.930 . S
H964 C974 0.930 . S
H965 C975 0.930 . S
C966 H960 0.930 . S
C966 C967 1.355 . S
C966 C968 1.415 . S
C967 C966 1.355 . S
C967 C969 1.419 . S
C968 C966 1.415 . S
C968 C973 1.425 . S
C968 C975 1.409 . S
C969 H961 0.930 . S
C969 C967 1.419 . S
C969 C970 1.362 . S
C970 H962 0.930 . S
C970 C969 1.362 . S
C970 C973 1.409 . S
C971 H963 0.930 . S
C971 C972 1.355 . S
C971 C973 1.415 . S
C972 C971 1.355 . S
C972 C974 1.419 . S
C973 C968 1.425 . S
C973 C970 1.409 . S
C973 C971 1.415 . S
C974 H964 0.930 . S
C974 C972 1.419 . S
C974 C975 1.362 . S
C975 H965 0.930 . S
C975 C968 1.409 . S
C975 C974 1.362 . S
H976 C982 0.930 1_565 S
H977 C985 0.930 . S
H978 C986 0.930 . S
H979 C987 0.930 . S
H980 C990 0.930 1_565 S
H981 C991 0.930 . S
C982 H976 0.930 1_545 S
C982 C983 1.355 . S
C982 C984 1.415 . S
C983 C982 1.355 . S
C983 C985 1.419 . S
C984 C982 1.415 . S
C984 C989 1.425 . S
C984 C991 1.409 1_545 S
C985 H977 0.930 . S
C985 C983 1.419 . S
C985 C986 1.362 . S
C986 H978 0.930 . S
C986 C985 1.362 . S
C986 C989 1.409 . S
C987 H979 0.930 . S
C987 C988 1.355 . S
C987 C989 1.415 . S
C988 C987 1.355 . S
C988 C990 1.419 . S
C989 C984 1.425 . S
C989 C986 1.409 . S
C989 C987 1.415 . S
C990 H980 0.930 1_545 S
C990 C988 1.419 . S
C990 C991 1.362 1_545 S
C991 H981 0.930 . S
C991 C984 1.409 1_565 S
C991 C990 1.362 1_565 S
H992 C998 0.930 . S
H993 C1001 0.930 . S
H994 C1002 0.930 . S
H995 C1003 0.930 . S
H996 C1006 0.930 . S
H997 C1007 0.930 . S
C998 H992 0.930 . S
C998 C999 1.355 . S
C998 C1000 1.415 . S
C999 C998 1.355 . S
C999 C1001 1.419 . S
C1000 C998 1.415 . S
C1000 C1005 1.425 . S
C1000 C1007 1.409 . S
C1001 H993 0.930 . S
C1001 C999 1.419 . S
C1001 C1002 1.362 . S
C1002 H994 0.930 . S
C1002 C1001 1.362 . S
C1002 C1005 1.409 . S
C1003 H995 0.930 . S
C1003 C1004 1.355 . S
C1003 C1005 1.415 . S
C1004 C1003 1.355 . S
C1004 C1006 1.419 . S
C1005 C1000 1.425 . S
C1005 C1002 1.409 . S
C1005 C1003 1.415 . S
C1006 H996 0.930 . S
C1006 C1004 1.419 . S
C1006 C1007 1.362 . S
C1007 H997 0.930 . S
C1007 C1000 1.409 . S
C1007 C1006 1.362 . S
H1008 C1014 0.930 . S
H1009 C1017 0.930 . S
H1010 C1018 0.930 . S
H1011 C1019 0.930 . S
H1012 C1022 0.930 . S
H1013 C1023 0.930 . S
C1014 H1008 0.930 . S
C1014 C1015 1.355 . S
C1014 C1016 1.415 . S
C1015 C1014 1.355 . S
C1015 C1017 1.419 . S
C1016 C1014 1.415 . S
C1016 C1021 1.425 . S
C1016 C1023 1.409 . S
C1017 H1009 0.930 . S
C1017 C1015 1.419 . S
C1017 C1018 1.362 . S
C1018 H1010 0.930 . S
C1018 C1017 1.362 . S
C1018 C1021 1.409 . S
C1019 H1011 0.930 . S
C1019 C1020 1.355 . S
C1019 C1021 1.415 . S
C1020 C1019 1.355 . S
C1020 C1022 1.419 . S
C1021 C1016 1.425 . S
C1021 C1018 1.409 . S
C1021 C1019 1.415 . S
C1022 H1012 0.930 . S
C1022 C1020 1.419 . S
C1022 C1023 1.362 . S
C1023 H1013 0.930 . S
C1023 C1016 1.409 . S
C1023 C1022 1.362 . S
H1024 C1030 0.930 . S
H1025 C1033 0.930 . S
H1026 C1034 0.930 . S
H1027 C1035 0.930 . S
H1028 C1038 0.930 . S
H1029 C1039 0.930 . S
C1030 H1024 0.930 . S
C1030 C1031 1.355 . S
C1030 C1032 1.415 . S
C1031 C1030 1.355 . S
C1031 C1033 1.419 . S
C1032 C1030 1.415 . S
C1032 C1037 1.425 . S
C1032 C1039 1.409 . S
C1033 H1025 0.930 . S
C1033 C1031 1.419 . S
C1033 C1034 1.362 . S
C1034 H1026 0.930 . S
C1034 C1033 1.362 . S
C1034 C1037 1.409 . S
C1035 H1027 0.930 . S
C1035 C1036 1.355 . S
C1035 C1037 1.415 . S
C1036 C1035 1.355 . S
C1036 C1038 1.419 . S
C1037 C1032 1.425 . S
C1037 C1034 1.409 . S
C1037 C1035 1.415 . S
C1038 H1028 0.930 . S
C1038 C1036 1.419 . S
C1038 C1039 1.362 . S
C1039 H1029 0.930 . S
C1039 C1032 1.409 . S
C1039 C1038 1.362 . S
H1040 C1046 0.930 . S
H1041 C1049 0.930 . S
H1042 C1050 0.930 . S
H1043 C1051 0.930 . S
H1044 C1054 0.930 . S
H1045 C1055 0.930 . S
C1046 H1040 0.930 . S
C1046 C1047 1.355 . S
C1046 C1048 1.415 . S
C1047 C1046 1.355 . S
C1047 C1049 1.419 . S
C1048 C1046 1.415 . S
C1048 C1053 1.425 . S
C1048 C1055 1.409 . S
C1049 H1041 0.930 . S
C1049 C1047 1.419 . S
C1049 C1050 1.362 . S
C1050 H1042 0.930 . S
C1050 C1049 1.362 . S
C1050 C1053 1.409 . S
C1051 H1043 0.930 . S
C1051 C1052 1.355 . S
C1051 C1053 1.415 . S
C1052 C1051 1.355 . S
C1052 C1054 1.419 . S
C1053 C1048 1.425 . S
C1053 C1050 1.409 . S
C1053 C1051 1.415 . S
C1054 H1044 0.930 . S
C1054 C1052 1.419 . S
C1054 C1055 1.362 . S
C1055 H1045 0.930 . S
C1055 C1048 1.409 . S
C1055 C1054 1.362 . S
H1056 C1062 0.930 . S
H1057 C1065 0.930 . S
H1058 C1066 0.930 . S
H1059 C1067 0.930 . S
H1060 C1070 0.930 . S
H1061 C1071 0.930 . S
C1062 H1056 0.930 . S
C1062 C1063 1.355 . S
C1062 C1064 1.415 . S
C1063 C1062 1.355 . S
C1063 C1065 1.419 . S
C1064 C1062 1.415 . S
C1064 C1069 1.425 1_655 S
C1064 C1071 1.409 . S
C1065 H1057 0.930 . S
C1065 C1063 1.419 . S
C1065 C1066 1.362 1_655 S
C1066 H1058 0.930 . S
C1066 C1065 1.362 1_455 S
C1066 C1069 1.409 . S
C1067 H1059 0.930 . S
C1067 C1068 1.355 . S
C1067 C1069 1.415 . S
C1068 C1067 1.355 . S
C1068 C1070 1.419 . S
C1069 C1064 1.425 1_455 S
C1069 C1066 1.409 . S
C1069 C1067 1.415 . S
C1070 H1060 0.930 . S
C1070 C1068 1.419 . S
C1070 C1071 1.362 1_455 S
C1071 H1061 0.930 . S
C1071 C1064 1.409 . S
C1071 C1070 1.362 1_655 S
H1072 C1078 0.930 . S
H1073 C1081 0.930 . S
H1074 C1082 0.930 . S
H1075 C1083 0.930 . S
H1076 C1086 0.930 . S
H1077 C1087 0.930 . S
C1078 H1072 0.930 . S
C1078 C1079 1.355 . S
C1078 C1080 1.415 . S
C1079 C1078 1.355 . S
C1079 C1081 1.419 . S
C1080 C1078 1.415 . S
C1080 C1085 1.425 1_655 S
C1080 C1087 1.409 . S
C1081 H1073 0.930 . S
C1081 C1079 1.419 . S
C1081 C1082 1.362 1_655 S
C1082 H1074 0.930 . S
C1082 C1081 1.362 1_455 S
C1082 C1085 1.409 . S
C1083 H1075 0.930 . S
C1083 C1084 1.355 . S
C1083 C1085 1.415 . S
C1084 C1083 1.355 . S
C1084 C1086 1.419 . S
C1085 C1080 1.425 1_455 S
C1085 C1082 1.409 . S
C1085 C1083 1.415 . S
C1086 H1076 0.930 . S
C1086 C1084 1.419 . S
C1086 C1087 1.362 1_455 S
C1087 H1077 0.930 . S
C1087 C1080 1.409 . S
C1087 C1086 1.362 1_655 S
H1088 C1094 0.930 . S
H1089 C1097 0.930 . S
H1090 C1098 0.930 . S
H1091 C1099 0.930 . S
H1092 C1102 0.930 . S
H1093 C1103 0.930 . S
C1094 H1088 0.930 . S
C1094 C1095 1.355 . S
C1094 C1096 1.415 . S
C1095 C1094 1.355 . S
C1095 C1097 1.419 . S
C1096 C1094 1.415 . S
C1096 C1101 1.425 . S
C1096 C1103 1.409 . S
C1097 H1089 0.930 . S
C1097 C1095 1.419 . S
C1097 C1098 1.362 . S
C1098 H1090 0.930 . S
C1098 C1097 1.362 . S
C1098 C1101 1.409 . S
C1099 H1091 0.930 . S
C1099 C1100 1.355 . S
C1099 C1101 1.415 . S
C1100 C1099 1.355 . S
C1100 C1102 1.419 . S
C1101 C1096 1.425 . S
C1101 C1098 1.409 . S
C1101 C1099 1.415 . S
C1102 H1092 0.930 . S
C1102 C1100 1.419 . S
C1102 C1103 1.362 . S
C1103 H1093 0.930 . S
C1103 C1096 1.409 . S
C1103 C1102 1.362 . S
H1104 C1110 0.930 . S
H1105 C1113 0.930 . S
H1106 C1114 0.930 . S
H1107 C1115 0.930 . S
H1108 C1118 0.930 . S
H1109 C1119 0.930 . S
C1110 H1104 0.930 . S
C1110 C1111 1.355 . S
C1110 C1112 1.415 . S
C1111 C1110 1.355 . S
C1111 C1113 1.419 . S
C1112 C1110 1.415 . S
C1112 C1117 1.425 . S
C1112 C1119 1.409 . S
C1113 H1105 0.930 . S
C1113 C1111 1.419 . S
C1113 C1114 1.362 . S
C1114 H1106 0.930 . S
C1114 C1113 1.362 . S
C1114 C1117 1.409 . S
C1115 H1107 0.930 . S
C1115 C1116 1.355 . S
C1115 C1117 1.415 . S
C1116 C1115 1.355 . S
C1116 C1118 1.419 . S
C1117 C1112 1.425 . S
C1117 C1114 1.409 . S
C1117 C1115 1.415 . S
C1118 H1108 0.930 . S
C1118 C1116 1.419 . S
C1118 C1119 1.362 . S
C1119 H1109 0.930 . S
C1119 C1112 1.409 . S
C1119 C1118 1.362 . S
H1120 C1126 0.930 . S
H1121 C1129 0.930 . S
H1122 C1130 0.930 . S
H1123 C1131 0.930 . S
H1124 C1134 0.930 . S
H1125 C1135 0.930 . S
C1126 H1120 0.930 . S
C1126 C1127 1.355 . S
C1126 C1128 1.415 1_455 S
C1127 C1126 1.355 . S
C1127 C1129 1.419 . S
C1128 C1126 1.415 1_655 S
C1128 C1133 1.425 1_655 S
C1128 C1135 1.409 . S
C1129 H1121 0.930 . S
C1129 C1127 1.419 . S
C1129 C1130 1.362 . S
C1130 H1122 0.930 . S
C1130 C1129 1.362 . S
C1130 C1133 1.409 . S
C1131 H1123 0.930 . S
C1131 C1132 1.355 . S
C1131 C1133 1.415 1_655 S
C1132 C1131 1.355 . S
C1132 C1134 1.419 . S
C1133 C1128 1.425 1_455 S
C1133 C1130 1.409 . S
C1133 C1131 1.415 1_455 S
C1134 H1124 0.930 . S
C1134 C1132 1.419 . S
C1134 C1135 1.362 . S
C1135 H1125 0.930 . S
C1135 C1128 1.409 . S
C1135 C1134 1.362 . S
H1136 C1142 0.930 . S
H1137 C1145 0.930 . S
H1138 C1146 0.930 . S
H1139 C1147 0.930 . S
H1140 C1150 0.930 . S
H1141 C1151 0.930 . S
C1142 H1136 0.930 . S
C1142 C1143 1.355 . S
C1142 C1144 1.415 . S
C1143 C1142 1.355 . S
C1143 C1145 1.419 . S
C1144 C1142 1.415 . S
C1144 C1149 1.425 1_455 S
C1144 C1151 1.409 . S
C1145 H1137 0.930 . S
C1145 C1143 1.419 . S
C1145 C1146 1.362 1_455 S
C1146 H1138 0.930 . S
C1146 C1145 1.362 1_655 S
C1146 C1149 1.409 . S
C1147 H1139 0.930 . S
C1147 C1148 1.355 . S
C1147 C1149 1.415 . S
C1148 C1147 1.355 . S
C1148 C1150 1.419 . S
C1149 C1144 1.425 1_655 S
C1149 C1146 1.409 . S
C1149 C1147 1.415 . S
C1150 H1140 0.930 . S
C1150 C1148 1.419 . S
C1150 C1151 1.362 1_655 S
C1151 H1141 0.930 . S
C1151 C1144 1.409 . S
C1151 C1150 1.362 1_455 S
H1152 C1158 0.930 . S
H1153 C1161 0.930 . S
H1154 C1162 0.930 . S
H1155 C1163 0.930 . S
H1156 C1166 0.930 . S
H1157 C1167 0.930 . S
C1158 H1152 0.930 . S
C1158 C1159 1.355 . S
C1158 C1160 1.415 . S
C1159 C1158 1.355 . S
C1159 C1161 1.419 . S
C1160 C1158 1.415 . S
C1160 C1165 1.425 . S
C1160 C1167 1.409 . S
C1161 H1153 0.930 . S
C1161 C1159 1.419 . S
C1161 C1162 1.362 . S
C1162 H1154 0.930 . S
C1162 C1161 1.362 . S
C1162 C1165 1.409 . S
C1163 H1155 0.930 . S
C1163 C1164 1.355 . S
C1163 C1165 1.415 . S
C1164 C1163 1.355 . S
C1164 C1166 1.419 . S
C1165 C1160 1.425 . S
C1165 C1162 1.409 . S
C1165 C1163 1.415 . S
C1166 H1156 0.930 . S
C1166 C1164 1.419 . S
C1166 C1167 1.362 . S
C1167 H1157 0.930 . S
C1167 C1160 1.409 . S
C1167 C1166 1.362 . S
H1168 C1174 0.930 . S
H1169 C1177 0.930 . S
H1170 C1178 0.930 . S
H1171 C1179 0.930 . S
H1172 C1182 0.930 . S
H1173 C1183 0.930 . S
C1174 H1168 0.930 . S
C1174 C1175 1.355 . S
C1174 C1176 1.415 . S
C1175 C1174 1.355 . S
C1175 C1177 1.419 . S
C1176 C1174 1.415 . S
C1176 C1181 1.425 . S
C1176 C1183 1.409 . S
C1177 H1169 0.930 . S
C1177 C1175 1.419 . S
C1177 C1178 1.362 . S
C1178 H1170 0.930 . S
C1178 C1177 1.362 . S
C1178 C1181 1.409 . S
C1179 H1171 0.930 . S
C1179 C1180 1.355 . S
C1179 C1181 1.415 . S
C1180 C1179 1.355 . S
C1180 C1182 1.419 . S
C1181 C1176 1.425 . S
C1181 C1178 1.409 . S
C1181 C1179 1.415 . S
C1182 H1172 0.930 . S
C1182 C1180 1.419 . S
C1182 C1183 1.362 . S
C1183 H1173 0.930 . S
C1183 C1176 1.409 . S
C1183 C1182 1.362 . S
H1184 C1190 0.930 . S
H1185 C1193 0.930 . S
H1186 C1194 0.930 . S
H1187 C1195 0.930 . S
H1188 C1198 0.930 . S
H1189 C1199 0.930 . S
C1190 H1184 0.930 . S
C1190 C1191 1.355 . S
C1190 C1192 1.415 . S
C1191 C1190 1.355 . S
C1191 C1193 1.419 . S
C1192 C1190 1.415 . S
C1192 C1197 1.425 . S
C1192 C1199 1.409 . S
C1193 H1185 0.930 . S
C1193 C1191 1.419 . S
C1193 C1194 1.362 . S
C1194 H1186 0.930 . S
C1194 C1193 1.362 . S
C1194 C1197 1.409 . S
C1195 H1187 0.930 . S
C1195 C1196 1.355 . S
C1195 C1197 1.415 . S
C1196 C1195 1.355 . S
C1196 C1198 1.419 . S
C1197 C1192 1.425 . S
C1197 C1194 1.409 . S
C1197 C1195 1.415 . S
C1198 H1188 0.930 . S
C1198 C1196 1.419 . S
C1198 C1199 1.362 . S
C1199 H1189 0.930 . S
C1199 C1192 1.409 . S
C1199 C1198 1.362 . S
H1200 C1206 0.930 . S
H1201 C1209 0.930 1_655 S
H1202 C1210 0.930 . S
H1203 C1211 0.930 . S
H1204 C1214 0.930 . S
H1205 C1215 0.930 . S
C1206 H1200 0.930 . S
C1206 C1207 1.355 . S
C1206 C1208 1.415 . S
C1207 C1206 1.355 . S
C1207 C1209 1.419 . S
C1208 C1206 1.415 . S
C1208 C1213 1.425 . S
C1208 C1215 1.409 . S
C1209 H1201 0.930 1_455 S
C1209 C1207 1.419 . S
C1209 C1210 1.362 . S
C1210 H1202 0.930 . S
C1210 C1209 1.362 . S
C1210 C1213 1.409 . S
C1211 H1203 0.930 . S
C1211 C1212 1.355 . S
C1211 C1213 1.415 . S
C1212 C1211 1.355 . S
C1212 C1214 1.419 . S
C1213 C1208 1.425 . S
C1213 C1210 1.409 . S
C1213 C1211 1.415 . S
C1214 H1204 0.930 . S
C1214 C1212 1.419 . S
C1214 C1215 1.362 . S
C1215 H1205 0.930 . S
C1215 C1208 1.409 . S
C1215 C1214 1.362 . S
H1216 C1222 0.930 . S
H1217 C1225 0.930 . S
H1218 C1226 0.930 . S
H1219 C1227 0.930 . S
H1220 C1230 0.930 . S
H1221 C1231 0.930 . S
C1222 H1216 0.930 . S
C1222 C1223 1.355 . S
C1222 C1224 1.415 . S
C1223 C1222 1.355 . S
C1223 C1225 1.419 . S
C1224 C1222 1.415 . S
C1224 C1229 1.425 . S
C1224 C1231 1.409 . S
C1225 H1217 0.930 . S
C1225 C1223 1.419 . S
C1225 C1226 1.362 . S
C1226 H1218 0.930 . S
C1226 C1225 1.362 . S
C1226 C1229 1.409 . S
C1227 H1219 0.930 . S
C1227 C1228 1.355 . S
C1227 C1229 1.415 . S
C1228 C1227 1.355 . S
C1228 C1230 1.419 . S
C1229 C1224 1.425 . S
C1229 C1226 1.409 . S
C1229 C1227 1.415 . S
C1230 H1220 0.930 . S
C1230 C1228 1.419 . S
C1230 C1231 1.362 . S
C1231 H1221 0.930 . S
C1231 C1224 1.409 . S
C1231 C1230 1.362 . S
H1232 C1238 0.930 . S
H1233 C1241 0.930 . S
H1234 C1242 0.930 . S
H1235 C1243 0.930 . S
H1236 C1246 0.930 . S
H1237 C1247 0.930 . S
C1238 H1232 0.930 . S
C1238 C1239 1.355 . S
C1238 C1240 1.415 . S
C1239 C1238 1.355 . S
C1239 C1241 1.419 . S
C1240 C1238 1.415 . S
C1240 C1245 1.425 . S
C1240 C1247 1.409 . S
C1241 H1233 0.930 . S
C1241 C1239 1.419 . S
C1241 C1242 1.362 . S
C1242 H1234 0.930 . S
C1242 C1241 1.362 . S
C1242 C1245 1.409 . S
C1243 H1235 0.930 . S
C1243 C1244 1.355 . S
C1243 C1245 1.415 . S
C1244 C1243 1.355 . S
C1244 C1246 1.419 . S
C1245 C1240 1.425 . S
C1245 C1242 1.409 . S
C1245 C1243 1.415 . S
C1246 H1236 0.930 . S
C1246 C1244 1.419 . S
C1246 C1247 1.362 . S
C1247 H1237 0.930 . S
C1247 C1240 1.409 . S
C1247 C1246 1.362 . S
H1248 C1254 0.930 . S
H1249 C1257 0.930 . S
H1250 C1258 0.930 . S
H1251 C1259 0.930 . S
H1252 C1262 0.930 . S
H1253 C1263 0.930 . S
C1254 H1248 0.930 . S
C1254 C1255 1.355 . S
C1254 C1256 1.415 . S
C1255 C1254 1.355 . S
C1255 C1257 1.419 . S
C1256 C1254 1.415 . S
C1256 C1261 1.425 . S
C1256 C1263 1.409 . S
C1257 H1249 0.930 . S
C1257 C1255 1.419 . S
C1257 C1258 1.362 . S
C1258 H1250 0.930 . S
C1258 C1257 1.362 . S
C1258 C1261 1.409 . S
C1259 H1251 0.930 . S
C1259 C1260 1.355 . S
C1259 C1261 1.415 . S
C1260 C1259 1.355 . S
C1260 C1262 1.419 . S
C1261 C1256 1.425 . S
C1261 C1258 1.409 . S
C1261 C1259 1.415 . S
C1262 H1252 0.930 . S
C1262 C1260 1.419 . S
C1262 C1263 1.362 . S
C1263 H1253 0.930 . S
C1263 C1256 1.409 . S
C1263 C1262 1.362 . S
H1264 C1270 0.930 . S
H1265 C1273 0.930 . S
H1266 C1274 0.930 . S
H1267 C1275 0.930 . S
H1268 C1278 0.930 1_455 S
H1269 C1279 0.930 . S
C1270 H1264 0.930 . S
C1270 C1271 1.355 . S
C1270 C1272 1.415 . S
C1271 C1270 1.355 . S
C1271 C1273 1.419 . S
C1272 C1270 1.415 . S
C1272 C1277 1.425 . S
C1272 C1279 1.409 . S
C1273 H1265 0.930 . S
C1273 C1271 1.419 . S
C1273 C1274 1.362 . S
C1274 H1266 0.930 . S
C1274 C1273 1.362 . S
C1274 C1277 1.409 . S
C1275 H1267 0.930 . S
C1275 C1276 1.355 . S
C1275 C1277 1.415 . S
C1276 C1275 1.355 . S
C1276 C1278 1.419 . S
C1277 C1272 1.425 . S
C1277 C1274 1.409 . S
C1277 C1275 1.415 . S
C1278 H1268 0.930 1_655 S
C1278 C1276 1.419 . S
C1278 C1279 1.362 . S
C1279 H1269 0.930 . S
C1279 C1272 1.409 . S
C1279 C1278 1.362 . S
H1280 C1286 0.930 . S
H1281 C1289 0.930 . S
H1282 C1290 0.930 . S
H1283 C1291 0.930 . S
H1284 C1294 0.930 . S
H1285 C1295 0.930 . S
C1286 H1280 0.930 . S
C1286 C1287 1.355 . S
C1286 C1288 1.415 . S
C1287 C1286 1.355 . S
C1287 C1289 1.419 . S
C1288 C1286 1.415 . S
C1288 C1293 1.425 . S
C1288 C1295 1.409 . S
C1289 H1281 0.930 . S
C1289 C1287 1.419 . S
C1289 C1290 1.362 . S
C1290 H1282 0.930 . S
C1290 C1289 1.362 . S
C1290 C1293 1.409 . S
C1291 H1283 0.930 . S
C1291 C1292 1.355 . S
C1291 C1293 1.415 . S
C1292 C1291 1.355 . S
C1292 C1294 1.419 . S
C1293 C1288 1.425 . S
C1293 C1290 1.409 . S
C1293 C1291 1.415 . S
C1294 H1284 0.930 . S
C1294 C1292 1.419 . S
C1294 C1295 1.362 . S
C1295 H1285 0.930 . S
C1295 C1288 1.409 . S
C1295 C1294 1.362 . S
H1296 C1302 0.930 . S
H1297 C1305 0.930 . S
H1298 C1306 0.930 . S
H1299 C1307 0.930 . S
H1300 C1310 0.930 . S
H1301 C1311 0.930 . S
C1302 H1296 0.930 . S
C1302 C1303 1.355 . S
C1302 C1304 1.415 . S
C1303 C1302 1.355 . S
C1303 C1305 1.419 . S
C1304 C1302 1.415 . S
C1304 C1309 1.425 . S
C1304 C1311 1.409 1_565 S
C1305 H1297 0.930 . S
C1305 C1303 1.419 . S
C1305 C1306 1.362 . S
C1306 H1298 0.930 . S
C1306 C1305 1.362 . S
C1306 C1309 1.409 . S
C1307 H1299 0.930 . S
C1307 C1308 1.355 . S
C1307 C1309 1.415 . S
C1308 C1307 1.355 . S
C1308 C1310 1.419 1_565 S
C1309 C1304 1.425 . S
C1309 C1306 1.409 . S
C1309 C1307 1.415 . S
C1310 H1300 0.930 . S
C1310 C1308 1.419 1_545 S
C1310 C1311 1.362 . S
C1311 H1301 0.930 . S
C1311 C1304 1.409 1_545 S
C1311 C1310 1.362 . S
H1312 C1318 0.930 . S
H1313 C1321 0.930 . S
H1314 C1322 0.930 . S
H1315 C1323 0.930 . S
H1316 C1326 0.930 . S
H1317 C1327 0.930 . S
C1318 H1312 0.930 . S
C1318 C1319 1.355 . S
C1318 C1320 1.415 . S
C1319 C1318 1.355 . S
C1319 C1321 1.419 . S
C1320 C1318 1.415 . S
C1320 C1325 1.425 . S
C1320 C1327 1.409 . S
C1321 H1313 0.930 . S
C1321 C1319 1.419 . S
C1321 C1322 1.362 . S
C1322 H1314 0.930 . S
C1322 C1321 1.362 . S
C1322 C1325 1.409 . S
C1323 H1315 0.930 . S
C1323 C1324 1.355 . S
C1323 C1325 1.415 . S
C1324 C1323 1.355 . S
C1324 C1326 1.419 . S
C1325 C1320 1.425 . S
C1325 C1322 1.409 . S
C1325 C1323 1.415 . S
C1326 H1316 0.930 . S
C1326 C1324 1.419 . S
C1326 C1327 1.362 . S
C1327 H1317 0.930 . S
C1327 C1320 1.409 . S
C1327 C1326 1.362 . S
H1328 C1334 0.930 1_565 S
H1329 C1337 0.930 . S
H1330 C1338 0.930 . S
H1331 C1339 0.930 . S
H1332 C1342 0.930 . S
H1333 C1343 0.930 1_565 S
C1334 H1328 0.930 1_545 S
C1334 C1335 1.355 . S
C1334 C1336 1.415 . S
C1335 C1334 1.355 . S
C1335 C1337 1.419 . S
C1336 C1334 1.415 . S
C1336 C1341 1.425 . S
C1336 C1343 1.409 . S
C1337 H1329 0.930 . S
C1337 C1335 1.419 . S
C1337 C1338 1.362 . S
C1338 H1330 0.930 . S
C1338 C1337 1.362 . S
C1338 C1341 1.409 . S
C1339 H1331 0.930 . S
C1339 C1340 1.355 . S
C1339 C1341 1.415 . S
C1340 C1339 1.355 . S
C1340 C1342 1.419 . S
C1341 C1336 1.425 . S
C1341 C1338 1.409 . S
C1341 C1339 1.415 . S
C1342 H1332 0.930 . S
C1342 C1340 1.419 . S
C1342 C1343 1.362 . S
C1343 H1333 0.930 1_545 S
C1343 C1336 1.409 . S
C1343 C1342 1.362 . S
H1344 C1350 0.930 . S
H1345 C1353 0.930 . S
H1346 C1354 0.930 . S
H1347 C1355 0.930 . S
H1348 C1358 0.930 . S
H1349 C1359 0.930 . S
C1350 H1344 0.930 . S
C1350 C1351 1.355 . S
C1350 C1352 1.415 . S
C1351 C1350 1.355 . S
C1351 C1353 1.419 . S
C1352 C1350 1.415 . S
C1352 C1357 1.425 . S
C1352 C1359 1.409 . S
C1353 H1345 0.930 . S
C1353 C1351 1.419 . S
C1353 C1354 1.362 . S
C1354 H1346 0.930 . S
C1354 C1353 1.362 . S
C1354 C1357 1.409 . S
C1355 H1347 0.930 . S
C1355 C1356 1.355 . S
C1355 C1357 1.415 . S
C1356 C1355 1.355 . S
C1356 C1358 1.419 . S
C1357 C1352 1.425 . S
C1357 C1354 1.409 . S
C1357 C1355 1.415 . S
C1358 H1348 0.930 . S
C1358 C1356 1.419 . S
C1358 C1359 1.362 . S
C1359 H1349 0.930 . S
C1359 C1352 1.409 . S
C1359 C1358 1.362 . S
H1360 C1366 0.930 1_565 S
H1361 C1369 0.930 1_655 S
H1362 C1370 0.930 . S
H1363 C1371 0.930 . S
H1364 C1374 0.930 . S
H1365 C1375 0.930 1_565 S
C1366 H1360 0.930 1_545 S
C1366 C1367 1.355 . S
C1366 C1368 1.415 . S
C1367 C1366 1.355 . S
C1367 C1369 1.419 . S
C1368 C1366 1.415 . S
C1368 C1373 1.425 . S
C1368 C1375 1.409 . S
C1369 H1361 0.930 1_455 S
C1369 C1367 1.419 . S
C1369 C1370 1.362 . S
C1370 H1362 0.930 . S
C1370 C1369 1.362 . S
C1370 C1373 1.409 . S
C1371 H1363 0.930 . S
C1371 C1372 1.355 . S
C1371 C1373 1.415 . S
C1372 C1371 1.355 . S
C1372 C1374 1.419 . S
C1373 C1368 1.425 . S
C1373 C1370 1.409 . S
C1373 C1371 1.415 . S
C1374 H1364 0.930 . S
C1374 C1372 1.419 . S
C1374 C1375 1.362 . S
C1375 H1365 0.930 1_545 S
C1375 C1368 1.409 . S
C1375 C1374 1.362 . S
H1376 C1382 0.930 . S
H1377 C1385 0.930 . S
H1378 C1386 0.930 . S
H1379 C1387 0.930 . S
H1380 C1390 0.930 . S
H1381 C1391 0.930 . S
C1382 H1376 0.930 . S
C1382 C1383 1.355 . S
C1382 C1384 1.415 . S
C1383 C1382 1.355 . S
C1383 C1385 1.419 . S
C1384 C1382 1.415 . S
C1384 C1389 1.425 . S
C1384 C1391 1.409 . S
C1385 H1377 0.930 . S
C1385 C1383 1.419 . S
C1385 C1386 1.362 . S
C1386 H1378 0.930 . S
C1386 C1385 1.362 . S
C1386 C1389 1.409 . S
C1387 H1379 0.930 . S
C1387 C1388 1.355 . S
C1387 C1389 1.415 . S
C1388 C1387 1.355 . S
C1388 C1390 1.419 . S
C1389 C1384 1.425 . S
C1389 C1386 1.409 . S
C1389 C1387 1.415 . S
C1390 H1380 0.930 . S
C1390 C1388 1.419 . S
C1390 C1391 1.362 . S
C1391 H1381 0.930 . S
C1391 C1384 1.409 . S
C1391 C1390 1.362 . S
H1392 C1398 0.930 . S
H1393 C1401 0.930 . S
H1394 C1402 0.930 . S
H1395 C1403 0.930 . S
H1396 C1406 0.930 . S
H1397 C1407 0.930 . S
C1398 H1392 0.930 . S
C1398 C1399 1.355 . S
C1398 C1400 1.415 . S
C1399 C1398 1.355 . S
C1399 C1401 1.419 . S
C1400 C1398 1.415 . S
C1400 C1405 1.425 . S
C1400 C1407 1.409 1_565 S
C1401 H1393 0.930 . S
C1401 C1399 1.419 . S
C1401 C1402 1.362 . S
C1402 H1394 0.930 . S
C1402 C1401 1.362 . S
C1402 C1405 1.409 . S
C1403 H1395 0.930 . S
C1403 C1404 1.355 . S
C1403 C1405 1.415 . S
C1404 C1403 1.355 . S
C1404 C1406 1.419 1_565 S
C1405 C1400 1.425 . S
C1405 C1402 1.409 . S
C1405 C1403 1.415 . S
C1406 H1396 0.930 . S
C1406 C1404 1.419 1_545 S
C1406 C1407 1.362 . S
C1407 H1397 0.930 . S
C1407 C1400 1.409 1_545 S
C1407 C1406 1.362 . S
C647 C8 0.608 . S
C652 C509 0.608 . S
C663 C229 0.853 . S
C668 C48 0.853 . S
C679 C88 0.610 . S
C684 C589 0.610 . S
C695 C128 0.624 . S
C700 C309 0.624 . S
C711 C189 0.748 . S
C716 C328 0.748 . S
C727 C408 0.674 . S
C732 C269 0.674 . S
C743 C549 0.865 . S
C748 C368 0.865 . S
C759 C448 0.786 . S
C764 C629 0.786 . S
C775 C362 2.316 . S
C780 C29 2.271 1_556 S
C791 C69 2.221 . S
C796 C402 2.268 . S
C807 C109 2.214 . S
C812 C442 2.266 . S
C823 C322 2.265 . S
C828 C149 2.213 . S
C839 C537 2.317 . S
C844 C168 2.269 1_554 S
C855 C577 2.276 . S
C860 C208 2.211 . S
C871 C248 2.216 . S
C876 C617 2.266 . S
C887 C497 2.280 . S
C892 C288 2.214 . S
C903 C349 2.211 . S
C908 C42 2.277 . S
C919 C389 2.250 . S
C924 C82 2.288 . S
C935 C429 2.248 1_556 S
C940 C122 2.310 . S
C951 C2 2.295 . S
C956 C469 2.228 . S
C967 C217 2.291 . S
C972 C488 2.224 . S
C983 C528 2.262 . S
C988 C257 2.316 . S
C999 C297 2.276 . S
C1004 C568 2.234 1_554 S
C1015 C608 2.250 . S
C1020 C177 2.288 . S
C1031 C31 3.017 . S
C1036 C431 3.031 . S
C1047 C71 3.032 . S
C1052 C471 3.020 . S
C1063 C351 3.020 . S
C1068 C111 3.024 . S
C1079 C151 3.033 . S
C1084 C391 3.017 . S
C1095 C172 3.023 . S
C1100 C572 3.022 . S
C1111 C212 3.027 . S
C1116 C612 3.018 . S
C1127 C492 3.022 . S
C1132 C252 3.031 . S
C1143 C292 3.032 . S
C1148 C532 3.021 . S
C1159 C17 1.900 . S
C1164 C311 2.185 . S
C1175 C511 2.195 . S
C1180 C57 1.940 . S
C1191 C97 1.926 . S
C1196 C231 2.177 . S
C1207 C137 1.896 1_455 S
C1212 C591 2.183 . S
C1223 C162 1.864 . S
C1228 C132 2.152 . S
C1239 C332 2.162 . S
C1244 C202 1.854 . S
C1255 C242 1.940 . S
C1260 C52 2.187 . S
C1271 C412 2.181 . S
C1276 C282 1.892 1_655 S
C1287 C337 1.901 . S
C1292 C631 2.185 . S
C1303 C191 2.151 . S
C1308 C377 1.859 1_665 S
C1319 C551 2.195 . S
C1324 C417 1.934 . S
C1335 C457 1.899 1_545 S
C1340 C271 2.184 . S
C1351 C482 1.905 . S
C1356 C452 2.187 . S
C1367 C522 1.937 1_445 S
C1372 C12 2.195 . S
C1383 C372 2.163 . S
C1388 C562 1.856 . S
C1399 C92 2.171 . S
C1404 C602 1.913 1_565 S
