# Generated by pormake.
# Topology mok, (4)-cn, num edge types: 1
# Building blocks:
#     Node 0, Type 0, BuildingBlock: UXUYUI_clean_sbu_0, # of connection points: 4
#     Node 1, Type 0, BuildingBlock: UXUYUI_clean_sbu_0, # of connection points: 4
#     Node 2, Type 0, BuildingBlock: UXUYUI_clean_sbu_0, # of connection points: 4
#     Node 3, Type 0, BuildingBlock: UXUYUI_clean_sbu_0, # of connection points: 4
#     Node 4, Type 0, BuildingBlock: UXUYUI_clean_sbu_0, # of connection points: 4
#     Node 5, Type 0, BuildingBlock: UXUYUI_clean_sbu_0, # of connection points: 4
#     Node 6, Type 0, BuildingBlock: UXUYUI_clean_sbu_0, # of connection points: 4
#     Node 7, Type 0, BuildingBlock: UXUYUI_clean_sbu_0, # of connection points: 4
#     Edge 8, Type (0, 0), BuildingBlock: AJUNOK_clean_linker_0, # of connection points: 2
#     Edge 9, Type (0, 0), BuildingBlock: AJUNOK_clean_linker_0, # of connection points: 2
#     Edge 10, Type (0, 0), BuildingBlock: AJUNOK_clean_linker_0, # of connection points: 2
#     Edge 11, Type (0, 0), BuildingBlock: AJUNOK_clean_linker_0, # of connection points: 2
#     Edge 12, Type (0, 0), BuildingBlock: AJUNOK_clean_linker_0, # of connection points: 2
#     Edge 13, Type (0, 0), BuildingBlock: AJUNOK_clean_linker_0, # of connection points: 2
#     Edge 14, Type (0, 0), BuildingBlock: AJUNOK_clean_linker_0, # of connection points: 2
#     Edge 15, Type (0, 0), BuildingBlock: AJUNOK_clean_linker_0, # of connection points: 2
#     Edge 16, Type (0, 0), BuildingBlock: AJUNOK_clean_linker_0, # of connection points: 2
#     Edge 17, Type (0, 0), BuildingBlock: AJUNOK_clean_linker_0, # of connection points: 2
#     Edge 18, Type (0, 0), BuildingBlock: AJUNOK_clean_linker_0, # of connection points: 2
#     Edge 19, Type (0, 0), BuildingBlock: AJUNOK_clean_linker_0, # of connection points: 2
#     Edge 20, Type (0, 0), BuildingBlock: AJUNOK_clean_linker_0, # of connection points: 2
#     Edge 21, Type (0, 0), BuildingBlock: AJUNOK_clean_linker_0, # of connection points: 2
#     Edge 22, Type (0, 0), BuildingBlock: AJUNOK_clean_linker_0, # of connection points: 2
#     Edge 23, Type (0, 0), BuildingBlock: AJUNOK_clean_linker_0, # of connection points: 2
# Relax obj value: 0.076
# Max RMSD: 0.067
# Mean RMSD: 0.067
data_MOF--net-mok--node1-UXUYUI_clean_sbu_0--edge1-AJUNOK_clean_linker_0
_symmetry_space_group_name_H-M    P1
_symmetry_Int_Tables_number       1
_symmetry_cell_setting            triclinic
loop_
_symmetry_equiv_pos_as_xyz
'x, y, z'
_cell_length_a     55.223895
_cell_length_b     25.327503
_cell_length_c     30.948099
_cell_angle_alpha  89.926779
_cell_angle_beta   89.892155
_cell_angle_gamma 89.976631
loop_
_atom_site_label
_atom_site_type_symbol
_atom_site_fract_x
_atom_site_fract_y
_atom_site_fract_z
_atom_type_partial_charge
Li0 Li 0.58733 0.35354 0.04701 0.0
Li1 Li 0.62065 0.3034 1.00613 0.0
Li2 Li 0.58748 0.34791 0.9675 0.0
Li3 Li 0.57883 0.26627 1.00571 0.0
C4 C 0.61778 0.42457 0.98389 0.0
N5 N 0.62712 0.51322 0.93457 0.0
C6 C 0.6364 0.42392 0.95325 0.0
C7 C 0.60397 0.47029 0.98962 0.0
C8 C 0.64081 0.46915 0.92858 0.0
C9 C 0.60898 0.51473 0.96435 0.0
C10 C 0.6136 0.25297 0.08621 0.0
C11 C 0.63561 0.17514 0.10794 0.0
N12 N 0.64122 0.1989 0.14602 0.0
C13 C 0.61944 0.27654 0.12566 0.0
C14 C 0.62161 0.20177 0.07733 0.0
C15 C 0.63347 0.24857 0.15544 0.0
C16 C 0.56382 0.38061 0.12703 0.0
N17 N 0.58152 0.39435 0.0985 0.0
C18 C 0.59395 0.46546 0.14436 0.0
C19 C 0.59652 0.43577 0.10655 0.0
C20 C 0.57589 0.45225 0.17452 0.0
C21 C 0.56074 0.40903 0.16553 0.0
H22 H 0.5523 0.34713 0.12014 0.0
H23 H 0.61081 0.44524 0.08392 0.0
C24 C 0.66606 0.27839 0.96754 0.0
N25 N 0.655 0.28826 1.00601 0.0
C26 C 0.69108 0.26949 0.96561 0.0
C27 C 0.69297 0.28065 0.04293 0.0
C28 C 0.66801 0.29031 0.04325 0.0
C29 C 0.70494 0.26998 1.00374 0.0
H30 H 0.65549 0.27838 0.93814 0.0
H31 H 0.65915 0.30007 0.07329 0.0
C32 C 0.54031 0.36005 0.99189 0.0
N33 N 0.50089 0.41336 0.95854 0.0
C34 C 0.52832 0.34044 0.95557 0.0
C35 C 0.53215 0.40648 0.01152 0.0
C36 C 0.50847 0.36809 0.93911 0.0
C37 C 0.5122 0.43291 0.99411 0.0
C38 C 0.60177 0.23257 0.93258 0.0
C39 C 0.58751 0.2289 0.89545 0.0
C40 C 0.61615 0.1898 0.94502 0.0
C41 C 0.5876 0.18205 0.87168 0.0
C42 C 0.61575 0.14363 0.92038 0.0
N43 N 0.60159 0.14072 0.88455 0.0
C44 C 0.59519 0.37248 0.87948 0.0
C45 C 0.56686 0.43038 0.91175 0.0
C46 C 0.59353 0.39971 0.84023 0.0
N47 N 0.58182 0.38771 0.91428 0.0
C48 C 0.56443 0.45843 0.87294 0.0
C49 C 0.57779 0.4431 0.83631 0.0
H50 H 0.60766 0.33976 0.88246 0.0
H51 H 0.55715 0.44361 0.93999 0.0
C52 C 0.5602 0.17127 0.0441 0.0
N53 N 0.56017 0.20095 0.00739 0.0
C54 C 0.54741 0.12351 0.04605 0.0
C55 C 0.53429 0.1378 0.97271 0.0
C56 C 0.54714 0.1855 0.97231 0.0
C57 C 0.53446 0.10563 0.0098 0.0
H58 H 0.57004 0.18479 0.07212 0.0
H59 H 0.54671 0.21014 0.94383 0.0
O60 O 0.61264 0.38014 0.00726 0.0
O61 O 0.60002 0.27992 0.05659 0.0
O62 O 0.55974 0.33361 0.00858 0.0
O63 O 0.60179 0.27801 0.95639 0.0
H64 H 0.64711 0.38867 0.94825 0.0
H65 H 0.58928 0.47114 0.0128 0.0
H66 H 0.65506 0.46916 0.90455 0.0
H67 H 0.59834 0.55028 0.96819 0.0
H68 H 0.64199 0.13554 0.10145 0.0
H69 H 0.61336 0.31612 0.13307 0.0
H70 H 0.61701 0.18276 0.04719 0.0
H71 H 0.63823 0.26639 0.18602 0.0
H72 H 0.6064 0.49762 0.15047 0.0
H73 H 0.54668 0.3974 0.18805 0.0
H74 H 0.6995 0.26346 0.93439 0.0
H75 H 0.70278 0.28164 0.07318 0.0
H76 H 0.53446 0.3046 0.94003 0.0
H77 H 0.54123 0.42208 0.03972 0.0
H78 H 0.4991 0.35361 0.91084 0.0
H79 H 0.50574 0.46903 0.00879 0.0
H80 H 0.57623 0.26166 0.88542 0.0
H81 H 0.62755 0.19228 0.9733 0.0
H82 H 0.57651 0.1785 0.84305 0.0
H83 H 0.62673 0.11014 0.92971 0.0
H84 H 0.60495 0.38761 0.81356 0.0
H85 H 0.55228 0.49197 0.8717 0.0
H86 H 0.54744 0.10121 0.07592 0.0
H87 H 0.5245 0.12597 0.94402 0.0
Li88 Li 0.39308 0.70685 1.00593 0.0
Li89 Li 0.42663 0.66063 0.04598 0.0
Li90 Li 0.43459 0.74769 0.00701 0.0
Li91 Li 0.42647 0.6669 0.96773 0.0
C92 C 0.40272 0.73176 0.09746 0.0
N93 N 0.38485 0.72619 0.18078 0.0
C94 C 0.38582 0.69294 0.10862 0.0
C95 C 0.41055 0.76769 0.12865 0.0
C96 C 0.37701 0.69078 0.15091 0.0
C97 C 0.40127 0.76427 0.1706 0.0
C98 C 0.40231 0.58218 0.9872 0.0
C99 C 0.4222 0.49912 0.973 0.0
N100 N 0.40365 0.48512 0.94655 0.0
C101 C 0.3834 0.56686 0.96002 0.0
C102 C 0.42187 0.54804 0.99379 0.0
C103 C 0.38444 0.51767 0.9397 0.0
C104 C 0.34578 0.70224 0.97105 0.0
N105 N 0.35873 0.7218 1.00477 0.0
C106 C 0.32272 0.75934 0.03535 0.0
C107 C 0.34778 0.75098 0.03614 0.0
C108 C 0.30873 0.73788 1.00178 0.0
C109 C 0.3207 0.70979 0.96891 0.0
H110 H 0.35498 0.68086 0.94567 0.0
H111 H 0.35842 0.76775 0.06194 0.0
C112 C 0.44776 0.64093 0.12914 0.0
N113 N 0.43296 0.62077 0.09815 0.0
C114 C 0.45038 0.61499 0.16894 0.0
C115 C 0.42309 0.54728 0.14377 0.0
C116 C 0.42063 0.57495 0.10489 0.0
C117 C 0.43785 0.56761 0.17659 0.0
H118 H 0.45701 0.67794 0.1234 0.0
H119 H 0.40828 0.56052 0.08061 0.0
C120 C 0.40198 0.78484 0.94579 0.0
N121 N 0.38161 0.88062 0.92316 0.0
C122 C 0.39851 0.79761 0.90231 0.0
C123 C 0.39505 0.82078 0.9778 0.0
C124 C 0.38819 0.84624 0.89152 0.0
C125 C 0.3848 0.86898 0.96569 0.0
C126 C 0.47506 0.6677 0.98845 0.0
C127 C 0.48338 0.69661 0.95294 0.0
C128 C 0.48842 0.6246 1.00354 0.0
C129 C 0.50491 0.68142 0.93267 0.0
C130 C 0.50987 0.61069 0.98238 0.0
N131 N 0.51758 0.63913 0.94766 0.0
C132 C 0.46303 0.82947 0.04628 0.0
C133 C 0.45641 0.84114 0.97133 0.0
C134 C 0.47653 0.87634 0.04798 0.0
N135 N 0.45316 0.81291 0.00837 0.0
C136 C 0.46954 0.88845 0.97167 0.0
C137 C 0.47991 0.9066 0.01032 0.0
H138 H 0.46048 0.80617 0.07523 0.0
H139 H 0.4489 0.82689 0.94131 0.0
C140 C 0.41667 0.63933 0.88186 0.0
N141 N 0.43278 0.62912 0.91399 0.0
C142 C 0.41779 0.61176 0.84278 0.0
C143 C 0.45235 0.56381 0.86987 0.0
C144 C 0.45048 0.59214 0.90861 0.0
C145 C 0.43574 0.57323 0.8364 0.0
H146 H 0.40248 0.66808 0.88704 0.0
H147 H 0.46263 0.583 0.9348 0.0
O148 O 0.41226 0.73318 0.05666 0.0
O149 O 0.40206 0.63083 1.0064 0.0
O150 O 0.41197 0.73719 0.95666 0.0
O151 O 0.45397 0.68159 0.00854 0.0
H152 H 0.37974 0.66452 0.08492 0.0
H153 H 0.42369 0.79781 0.1206 0.0
H154 H 0.36399 0.66085 0.16003 0.0
H155 H 0.40717 0.79181 0.1951 0.0
H156 H 0.43731 0.4725 0.9776 0.0
H157 H 0.36813 0.59267 0.95452 0.0
H158 H 0.43687 0.55962 0.01415 0.0
H159 H 0.36998 0.50541 0.91843 0.0
H160 H 0.31431 0.78171 0.06114 0.0
H161 H 0.31081 0.69411 0.9416 0.0
H162 H 0.4619 0.63193 0.19359 0.0
H163 H 0.41286 0.51129 0.14874 0.0
H164 H 0.40376 0.77024 0.87714 0.0
H165 H 0.39758 0.81178 0.01162 0.0
H166 H 0.38542 0.85666 0.85798 0.0
H167 H 0.37938 0.89715 0.99011 0.0
H168 H 0.47319 0.73006 0.94094 0.0
H169 H 0.48218 0.60195 0.03109 0.0
H170 H 0.51153 0.70321 0.90498 0.0
H171 H 0.52034 0.57723 0.99349 0.0
H172 H 0.48402 0.88909 0.07855 0.0
H173 H 0.47188 0.91027 0.94183 0.0
H174 H 0.40458 0.6202 0.81788 0.0
H175 H 0.46611 0.53357 0.86674 0.0
Li176 Li 0.57748 0.74929 0.50968 0.0
Li177 Li 0.58592 0.66701 0.54725 0.0
Li178 Li 0.619 0.71122 0.50829 0.0
Li179 Li 0.58553 0.6621 0.46767 0.0
C180 C 0.60121 0.782 0.58249 0.0
N181 N 0.60244 0.87392 0.63038 0.0
C182 C 0.58897 0.78491 0.62199 0.0
C183 C 0.61424 0.82563 0.56753 0.0
C184 C 0.58976 0.83179 0.64568 0.0
C185 C 0.61459 0.8718 0.59216 0.0
C186 C 0.53793 0.66133 0.52527 0.0
C187 C 0.50574 0.59703 0.52574 0.0
N188 N 0.49688 0.61886 0.56268 0.0
C189 C 0.52843 0.68338 0.56304 0.0
C190 C 0.52649 0.61795 0.50631 0.0
C191 C 0.50769 0.66119 0.58155 0.0
C192 C 0.55707 0.84188 0.47065 0.0
N193 N 0.55891 0.81471 0.50851 0.0
C194 C 0.53473 0.88014 0.54447 0.0
C195 C 0.54776 0.83266 0.54493 0.0
C196 C 0.53259 0.90904 0.5059 0.0
C197 C 0.54393 0.88922 0.4686 0.0
H198 H 0.56579 0.82676 0.4419 0.0
H199 H 0.54884 0.8101 0.57445 0.0
C200 C 0.59456 0.63825 0.6341 0.0
N201 N 0.58022 0.62617 0.59981 0.0
C202 C 0.59315 0.60905 0.67243 0.0
C203 C 0.5619 0.55567 0.64014 0.0
C204 C 0.56418 0.58542 0.60215 0.0
C205 C 0.57678 0.56675 0.67585 0.0
H206 H 0.60762 0.66987 0.63129 0.0
H207 H 0.55346 0.57504 0.57434 0.0
C208 C 0.61254 0.7611 0.42851 0.0
N209 N 0.64107 0.81233 0.36823 0.0
C210 C 0.6197 0.73505 0.39079 0.0
C211 C 0.61962 0.81338 0.43532 0.0
C212 C 0.63421 0.76159 0.36078 0.0
C213 C 0.63412 0.83854 0.40453 0.0
C214 C 0.61617 0.5903 0.52988 0.0
C215 C 0.63517 0.59079 0.55964 0.0
C216 C 0.60221 0.54473 0.52483 0.0
C217 C 0.63977 0.54557 0.5842 0.0
C218 C 0.6074 0.50033 0.55 0.0
N219 N 0.62589 0.50169 0.57895 0.0
C220 C 0.66472 0.74225 0.54355 0.0
C221 C 0.66622 0.71402 0.47072 0.0
C222 C 0.68986 0.74966 0.54393 0.0
N223 N 0.6534 0.72495 0.50721 0.0
C224 C 0.69132 0.72133 0.46955 0.0
C225 C 0.70358 0.73878 0.50665 0.0
H226 H 0.65431 0.74937 0.57257 0.0
H227 H 0.65703 0.69885 0.4426 0.0
C228 C 0.56149 0.63499 0.38832 0.0
N229 N 0.57958 0.62173 0.41609 0.0
C230 C 0.55868 0.60765 0.34926 0.0
C231 C 0.59283 0.55296 0.3685 0.0
C232 C 0.59505 0.58144 0.40699 0.0
C233 C 0.57468 0.56636 0.3387 0.0
H234 H 0.54949 0.66738 0.39617 0.0
H235 H 0.60952 0.57212 0.42923 0.0
O236 O 0.60048 0.73657 0.55871 0.0
O237 O 0.55822 0.68227 0.50669 0.0
O238 O 0.59837 0.7357 0.45825 0.0
O239 O 0.61079 0.63479 0.5068 0.0
H240 H 0.57871 0.75153 0.63395 0.0
H241 H 0.62404 0.82378 0.53731 0.0
H242 H 0.58025 0.83473 0.67617 0.0
H243 H 0.62456 0.90593 0.58091 0.0
H244 H 0.4967 0.56343 0.5115 0.0
H245 H 0.53718 0.71676 0.57819 0.0
H246 H 0.53364 0.60055 0.477 0.0
H247 H 0.50022 0.67757 0.61097 0.0
H248 H 0.52607 0.89374 0.57385 0.0
H249 H 0.54288 0.91044 0.43825 0.0
H250 H 0.60521 0.61876 0.6988 0.0
H251 H 0.54865 0.52422 0.64136 0.0
H252 H 0.61429 0.69465 0.38492 0.0
H253 H 0.61387 0.83441 0.46393 0.0
H254 H 0.64001 0.74183 0.33157 0.0
H255 H 0.6398 0.87896 0.40944 0.0
H256 H 0.64602 0.62594 0.56408 0.0
H257 H 0.58726 0.544 0.50224 0.0
H258 H 0.65431 0.54544 0.60758 0.0
H259 H 0.59662 0.4649 0.54672 0.0
H260 H 0.69854 0.76271 0.57339 0.0
H261 H 0.70101 0.71337 0.43981 0.0
H262 H 0.54423 0.61881 0.32748 0.0
H263 H 0.60565 0.52171 0.36153 0.0
Li264 Li 0.42372 0.35207 0.54727 0.0
Li265 Li 0.43275 0.26746 0.509 0.0
Li266 Li 0.42319 0.35253 0.4668 0.0
Li267 Li 0.39047 0.30367 0.50627 0.0
C268 C 0.47235 0.35458 0.52257 0.0
N269 N 0.5155 0.39161 0.5559 0.0
C270 C 0.48679 0.32175 0.54813 0.0
C271 C 0.48005 0.40595 0.51334 0.0
C272 C 0.50849 0.34129 0.56486 0.0
C273 C 0.50187 0.42402 0.53066 0.0
C274 C 0.40638 0.24005 0.58566 0.0
C275 C 0.38987 0.15439 0.60265 0.0
N276 N 0.40003 0.15712 0.64259 0.0
C277 C 0.41648 0.24227 0.62698 0.0
C278 C 0.39282 0.196 0.57344 0.0
C279 C 0.41314 0.19984 0.65526 0.0
C280 C 0.4122 0.43035 0.60937 0.0
N281 N 0.42914 0.39333 0.59927 0.0
C282 C 0.45075 0.41275 0.66461 0.0
C283 C 0.44811 0.38386 0.62625 0.0
C284 C 0.43364 0.4517 0.6755 0.0
C285 C 0.4142 0.46027 0.64711 0.0
H286 H 0.39678 0.43618 0.58851 0.0
H287 H 0.46086 0.35289 0.61878 0.0
C288 C 0.45885 0.1826 0.46997 0.0
N289 N 0.4517 0.20259 0.50875 0.0
C290 C 0.47209 0.13541 0.46785 0.0
C291 C 0.47065 0.13013 0.54561 0.0
C292 C 0.45765 0.17764 0.54625 0.0
C293 C 0.47794 0.10795 0.50601 0.0
H294 H 0.45426 0.20337 0.44054 0.0
H295 H 0.45239 0.19453 0.57684 0.0
C296 C 0.39362 0.43224 0.49927 0.0
N297 N 0.38435 0.53726 0.48179 0.0
C298 C 0.37042 0.44815 0.48683 0.0
C299 C 0.41205 0.46969 0.50306 0.0
C300 C 0.36611 0.50146 0.47806 0.0
C301 C 0.40702 0.5226 0.49403 0.0
C302 C 0.40042 0.24451 0.43012 0.0
C303 C 0.3932 0.26136 0.3891 0.0
C304 C 0.39659 0.19212 0.44257 0.0
C305 C 0.38185 0.22559 0.36141 0.0
C306 C 0.38521 0.15756 0.41394 0.0
N307 N 0.37811 0.17488 0.37431 0.0
C308 C 0.4513 0.39892 0.39761 0.0
C309 C 0.40909 0.4153 0.39549 0.0
C310 C 0.4547 0.42834 0.3596 0.0
N311 N 0.42874 0.39314 0.41481 0.0
C312 C 0.41172 0.44584 0.35814 0.0
C313 C 0.43473 0.45267 0.33974 0.0
H314 H 0.46664 0.38048 0.41325 0.0
H315 H 0.39126 0.40893 0.40893 0.0
C316 C 0.3447 0.28185 0.54471 0.0
N317 N 0.35628 0.28766 0.50615 0.0
C318 C 0.31974 0.27222 0.54617 0.0
C319 C 0.31892 0.27486 0.46825 0.0
C320 C 0.34384 0.28499 0.4683 0.0
C321 C 0.30646 0.26816 0.50755 0.0
H322 H 0.35482 0.28547 0.57445 0.0
H323 H 0.35316 0.29136 0.43807 0.0
O324 O 0.45113 0.33599 0.50572 0.0
O325 O 0.40957 0.28116 0.55756 0.0
O326 O 0.39822 0.38018 0.50764 0.0
O327 O 0.41153 0.27902 0.45761 0.0
H328 H 0.48117 0.28178 0.55533 0.0
H329 H 0.4694 0.43149 0.49276 0.0
H330 H 0.51974 0.31646 0.58499 0.0
H331 H 0.50803 0.46372 0.52391 0.0
H332 H 0.37946 0.11998 0.5936 0.0
H333 H 0.42693 0.27623 0.63699 0.0
H334 H 0.38452 0.19411 0.54187 0.0
H335 H 0.42096 0.20085 0.68726 0.0
H336 H 0.46562 0.40352 0.68608 0.0
H337 H 0.40051 0.48968 0.65414 0.0
H338 H 0.47792 0.12099 0.4366 0.0
H339 H 0.47474 0.11067 0.57591 0.0
H340 H 0.35596 0.41953 0.48379 0.0
H341 H 0.43 0.45799 0.5131 0.0
H342 H 0.34827 0.51438 0.46828 0.0
H343 H 0.42113 0.55201 0.49681 0.0
H344 H 0.39619 0.30172 0.37889 0.0
H345 H 0.40249 0.17821 0.47386 0.0
H346 H 0.37603 0.23815 0.32966 0.0
H347 H 0.38208 0.11691 0.42317 0.0
H348 H 0.4727 0.4325 0.34609 0.0
H349 H 0.39585 0.46323 0.34329 0.0
H350 H 0.31088 0.26913 0.57731 0.0
H351 H 0.30951 0.2723 0.43766 0.0
Li352 Li 0.08742 0.85193 0.04436 0.0
Li353 Li 0.11974 0.80553 1.0047 0.0
Li354 Li 0.08682 0.85125 0.96463 0.0
Li355 Li 0.07804 0.76794 1.0041 0.0
C356 C 0.11388 0.93504 0.00901 0.0
N357 N 0.11778 0.04283 0.02048 0.0
C358 C 0.13629 0.95757 0.01884 0.0
C359 C 0.09348 0.96729 1.00489 0.0
C360 C 0.13788 0.01217 0.02457 0.0
C361 C 0.09581 0.0217 0.01081 0.0
C362 C 0.11242 0.77722 0.09303 0.0
C363 C 0.11811 0.74098 0.16438 0.0
N364 N 0.13662 0.77541 0.17108 0.0
C365 C 0.13152 0.81219 0.10059 0.0
C366 C 0.10565 0.74126 0.12512 0.0
C367 C 0.14352 0.81069 0.14025 0.0
C368 C 0.05863 0.89049 0.11541 0.0
N369 N 0.08082 0.89253 0.09619 0.0
C370 C 0.09522 0.95096 0.15129 0.0
C371 C 0.09897 0.922 0.1135 0.0
C372 C 0.07264 0.94934 0.1721 0.0
C373 C 0.05413 0.9187 0.15361 0.0
H374 H 0.04447 0.8667 0.10122 0.0
H375 H 0.11658 0.92262 0.09837 0.0
C376 C 0.1686 0.82256 0.98052 0.0
N377 N 0.1539 0.78954 1.00322 0.0
C378 C 0.19363 0.8138 0.97913 0.0
C379 C 0.18799 0.73706 0.02441 0.0
C380 C 0.16307 0.74721 0.02484 0.0
C381 C 0.20367 0.77049 1.0012 0.0
H382 H 0.16087 0.85591 0.96358 0.0
H383 H 0.15107 0.7216 0.04287 0.0
C384 C 0.03766 0.85178 0.99098 0.0
N385 N 0.99293 0.8839 0.96088 0.0
C386 C 0.02412 0.81864 0.96427 0.0
C387 C 0.02823 0.90083 1.00312 0.0
C388 C 1.0016 0.83571 0.94917 0.0
C389 C 0.00564 0.91648 0.98735 0.0
C390 C 0.11056 0.7336 0.93928 0.0
C391 C 0.11601 0.72777 0.89545 0.0
C392 C 0.11561 0.69244 0.96804 0.0
C393 C 0.12639 0.68064 0.88103 0.0
C394 C 0.126 0.64595 0.95236 0.0
N395 N 0.13113 0.64106 0.90955 0.0
C396 C 0.09634 0.93051 0.9015 0.0
C397 C 0.06188 0.87876 0.88526 0.0
C398 C 0.09305 0.96042 0.86399 0.0
N399 N 0.08055 0.89127 0.91209 0.0
C400 C 0.05809 0.90733 0.84698 0.0
C401 C 0.07366 0.94919 0.83627 0.0
H402 H 0.11182 0.93826 0.92173 0.0
H403 H 0.05014 0.84605 0.89304 0.0
C404 C 0.05037 0.68422 0.0421 0.0
N405 N 0.05912 0.70346 1.00407 0.0
C406 C 0.03749 0.63651 0.04317 0.0
C407 C 0.04264 0.62939 0.96593 0.0
C408 C 0.05519 0.67742 0.96626 0.0
C409 C 0.0338 0.60803 1.0048 0.0
H410 H 0.05356 0.70574 0.0717 0.0
H411 H 0.06195 0.69374 0.93629 0.0
O412 O 0.11194 0.8816 1.00377 0.0
O413 O 0.10028 0.77822 0.05456 0.0
O414 O 0.05965 0.83553 1.00637 0.0
O415 O 0.10053 0.77963 0.95388 0.0
H416 H 0.15224 0.93306 0.02228 0.0
H417 H 0.07612 0.95046 0.99682 0.0
H418 H 0.1551 0.03017 0.03232 0.0
H419 H 0.08017 0.04713 0.00765 0.0
H420 H 0.11305 0.71338 0.18954 0.0
H421 H 0.13699 0.84032 0.07613 0.0
H422 H 0.09092 0.71389 0.11976 0.0
H423 H 0.1583 0.8376 0.14654 0.0
H424 H 0.11006 0.97359 0.16465 0.0
H425 H 0.03637 0.91678 0.16836 0.0
H426 H 0.205 0.84049 0.96075 0.0
H427 H 0.19495 0.70392 0.04271 0.0
H428 H 0.03104 0.78037 0.95489 0.0
H429 H 0.03813 0.92641 0.02477 0.0
H430 H 0.99103 0.81065 0.92815 0.0
H431 H 0.99817 0.95442 0.99632 0.0
H432 H 0.11225 0.75936 0.87283 0.0
H433 H 0.11153 0.69628 1.00208 0.0
H434 H 0.1307 0.67555 0.84718 0.0
H435 H 0.12999 0.61377 0.97423 0.0
H436 H 0.1059 0.99132 0.85621 0.0
H437 H 0.04315 0.89693 0.82603 0.0
H438 H 0.03092 0.62149 0.0738 0.0
H439 H 0.03979 0.60926 0.93551 0.0
Li440 Li 0.89441 0.2082 1.00549 0.0
Li441 Li 0.92823 0.16082 0.04692 0.0
Li442 Li 0.9359 0.24744 1.00421 0.0
Li443 Li 0.92795 0.1644 0.96722 0.0
C444 C 0.90013 0.26615 0.08022 0.0
N445 N 0.87068 0.33028 0.12988 0.0
C446 C 0.8903 0.24729 0.11894 0.0
C447 C 0.89509 0.31774 0.06693 0.0
C448 C 0.87542 0.28028 0.14354 0.0
C449 C 0.88014 0.34952 0.09243 0.0
C450 C 0.89578 0.09034 0.98211 0.0
C451 C 0.90208 1.0031 0.95288 0.0
N452 N 0.88179 0.00868 0.92846 0.0
C453 C 0.87497 0.09514 0.95675 0.0
C454 C 0.90943 0.0439 0.98021 0.0
C455 C 0.8682 0.05344 0.92985 0.0
C456 C 0.84906 0.23732 0.96776 0.0
N457 N 0.85992 0.22244 1.00534 0.0
C458 C 0.82159 0.22325 0.04189 0.0
C459 C 0.84662 0.21454 0.04187 0.0
C460 C 0.80998 0.23848 1.00357 0.0
C461 C 0.82399 0.24536 0.9661 0.0
H462 H 0.85981 0.24189 0.93877 0.0
H463 H 0.85533 0.20048 0.07087 0.0
C464 C 0.93864 0.15103 0.13676 0.0
N465 N 0.93536 0.12292 0.09976 0.0
C466 C 0.94135 0.12512 0.17648 0.0
C467 C 0.93883 0.04168 0.13917 0.0
C468 C 0.93572 0.06918 0.10028 0.0
C469 C 0.94129 0.06971 0.17802 0.0
H470 H 0.93853 0.1937 0.13559 0.0
H471 H 0.93308 0.04751 0.07072 0.0
C472 C 0.91292 0.27717 0.92908 0.0
N473 N 0.91254 0.36486 0.87586 0.0
C474 C 0.92694 0.27796 0.89141 0.0
C475 C 0.89851 0.32074 0.93939 0.0
C476 C 0.92656 0.32273 0.86501 0.0
C477 C 0.89862 0.36476 0.91216 0.0
C478 C 0.97548 0.1575 0.99015 0.0
C479 C 0.98613 0.17839 0.95287 0.0
C480 C 0.98553 0.11281 0.00972 0.0
C481 C 0.00658 0.15376 0.93544 0.0
C482 C 0.00603 0.08943 0.99135 0.0
N483 N 0.01601 0.11018 0.95488 0.0
C484 C 0.9561 0.34144 0.04177 0.0
C485 C 0.9662 0.32899 0.9682 0.0
C486 C 0.96924 0.38881 0.0428 0.0
N487 N 0.95453 0.31281 1.00466 0.0
C488 C 0.97934 0.37624 0.96768 0.0
C489 C 0.98115 0.40689 1.00539 0.0
H490 H 0.94725 0.32742 0.07077 0.0
H491 H 0.96542 0.30523 0.93937 0.0
C492 C 0.91949 0.13789 0.88046 0.0
N493 N 0.93392 0.12448 0.91432 0.0
C494 C 0.921 0.11068 0.84131 0.0
C495 C 0.95199 0.05523 0.87223 0.0
C496 C 0.94988 0.08362 0.91093 0.0
C497 C 0.9374 0.06864 0.8367 0.0
H498 H 0.90639 0.16931 0.8841 0.0
H499 H 0.96046 0.07175 0.93855 0.0
O500 O 0.91463 0.23431 0.05551 0.0
O501 O 0.90307 0.13143 0.00768 0.0
O502 O 0.91308 0.23365 0.95534 0.0
O503 O 0.95547 0.18093 0.00774 0.0
H504 H 0.89374 0.20727 0.12952 0.0
H505 H 0.90277 0.33322 0.03739 0.0
H506 H 0.86757 0.26606 0.17341 0.0
H507 H 0.87609 0.38951 0.08248 0.0
H508 H 0.91263 0.96719 0.95079 0.0
H509 H 0.86425 0.13078 0.95751 0.0
H510 H 0.92594 0.03992 0.99859 0.0
H511 H 0.85218 0.05675 0.90995 0.0
H512 H 0.81129 0.21683 0.07125 0.0
H513 H 0.81561 0.25687 0.93591 0.0
H514 H 0.94323 0.1481 0.20577 0.0
H515 H 0.93841 0.99892 0.13908 0.0
H516 H 0.93831 0.2447 0.88301 0.0
H517 H 0.88723 0.32048 0.96796 0.0
H518 H 0.93746 0.32404 0.83595 0.0
H519 H 0.88759 0.3988 0.91983 0.0
H520 H 0.9785 0.21281 0.93728 0.0
H521 H 0.97753 0.0963 0.03868 0.0
H522 H 0.01492 0.16923 0.90641 0.0
H523 H 0.01398 0.05475 1.00605 0.0
H524 H 0.97031 0.41072 0.07276 0.0
H525 H 0.9878 0.38882 0.93781 0.0
H526 H 0.9093 0.12228 0.81489 0.0
H527 H 0.96436 0.02209 0.87063 0.0
Li528 Li 0.07582 0.24511 0.50644 0.0
Li529 Li 0.08326 0.16226 0.54375 0.0
Li530 Li 0.11704 0.20497 0.50521 0.0
Li531 Li 0.08295 0.15784 0.46436 0.0
C532 C 0.10006 0.27621 0.57937 0.0
N533 N 0.10291 0.36761 0.62773 0.0
C534 C 0.08728 0.28048 0.61824 0.0
C535 C 0.11448 0.31819 0.56532 0.0
C536 C 0.0889 0.32708 0.64216 0.0
C537 C 0.11563 0.36413 0.59016 0.0
C538 C 0.03558 0.1561 0.52 0.0
C539 C 1.00478 0.08874 0.51728 0.0
N540 N 0.99438 0.10949 0.55336 0.0
C541 C 0.02451 0.17704 0.55682 0.0
C542 C 0.02564 0.11174 0.4999 0.0
C543 C 1.00374 0.15274 0.57331 0.0
C544 C 0.05696 0.34063 0.4692 0.0
N545 N 0.05798 0.31128 0.50606 0.0
C546 C 0.03431 0.3761 0.54365 0.0
C547 C 0.04653 0.32769 0.54265 0.0
C548 C 0.03342 0.40775 0.50638 0.0
C549 C 0.04466 0.38908 0.46861 0.0
H550 H 0.06572 0.32649 0.44017 0.0
H551 H 0.04682 0.30319 0.5712 0.0
C552 C 0.09095 0.13599 0.63092 0.0
N553 N 0.07679 0.12275 0.5967 0.0
C554 C 0.08876 0.10931 0.6703 0.0
C555 C 0.05763 0.05484 0.63881 0.0
C556 C 0.0605 0.08251 0.59987 0.0
C557 C 0.07177 0.06838 0.67484 0.0
H558 H 0.10438 0.16674 0.62739 0.0
H559 H 0.05006 0.07087 0.57204 0.0
C560 C 0.11058 0.25745 0.42581 0.0
N561 N 0.13855 0.31134 0.36624 0.0
C562 C 0.11723 0.23324 0.38699 0.0
C563 C 0.11794 0.30922 0.43415 0.0
C564 C 0.13143 0.26111 0.35733 0.0
C565 C 0.13214 0.33575 0.40368 0.0
C566 C 0.11365 0.08557 0.52835 0.0
C567 C 0.13367 0.08702 0.55586 0.0
C568 C 0.09902 0.04056 0.52724 0.0
C569 C 0.1387 0.04334 0.58197 0.0
C570 C 0.10465 0.9977 0.55385 0.0
N571 N 0.1242 0.99999 0.58046 0.0
C572 C 0.16258 0.23003 0.54326 0.0
C573 C 0.16465 0.21413 0.46797 0.0
C574 C 0.18765 0.23812 0.54496 0.0
N575 N 0.15156 0.21849 0.50511 0.0
C576 C 0.18969 0.22271 0.46809 0.0
C577 C 0.20153 0.23448 0.507 0.0
H578 H 0.15194 0.23231 0.57256 0.0
H579 H 0.15577 0.20319 0.43828 0.0
C580 C 0.06284 0.14104 0.38019 0.0
N581 N 0.07599 0.1186 0.41253 0.0
C582 C 0.05929 0.11407 0.34116 0.0
C583 C 0.08228 0.04093 0.36985 0.0
C584 C 0.08567 0.06952 0.408 0.0
C585 C 0.06909 0.06329 0.33567 0.0
H586 H 0.05558 0.18039 0.38434 0.0
H587 H 0.09659 0.053 0.43357 0.0
O588 O 0.09855 0.23101 0.55538 0.0
O589 O 0.05584 0.17932 0.5032 0.0
O590 O 0.09671 0.23072 0.45523 0.0
O591 O 0.10801 0.12859 0.50358 0.0
H592 H 0.07595 0.24842 0.62951 0.0
H593 H 0.12474 0.31526 0.53566 0.0
H594 H 0.07898 0.33107 0.67215 0.0
H595 H 0.12668 0.39699 0.57961 0.0
H596 H 0.99687 0.05438 0.50211 0.0
H597 H 0.03205 0.21127 0.57276 0.0
H598 H 0.03398 0.09524 0.47126 0.0
H599 H 0.99506 0.16824 0.60198 0.0
H600 H 0.0254 0.38842 0.57317 0.0
H601 H 0.04426 0.41211 0.4391 0.0
H602 H 0.10068 0.11989 0.69664 0.0
H603 H 0.04453 0.0231 0.64067 0.0
H604 H 0.11168 0.19319 0.38002 0.0
H605 H 0.11264 0.32882 0.46369 0.0
H606 H 0.13682 0.24279 0.32726 0.0
H607 H 0.13801 0.37579 0.40976 0.0
H608 H 0.14507 0.12167 0.55732 0.0
H609 H 0.08315 0.03919 0.5068 0.0
H610 H 0.15408 0.04399 0.60355 0.0
H611 H 0.09337 0.9628 0.55361 0.0
H612 H 0.1961 0.24735 0.57559 0.0
H613 H 0.19981 0.21899 0.43822 0.0
H614 H 0.04918 0.13282 0.3154 0.0
H615 H 0.09064 1.00244 0.36655 0.0
Li616 Li 0.92614 0.85209 0.546 0.0
Li617 Li 0.935 0.76726 0.50889 0.0
Li618 Li 0.92583 0.85152 0.4671 0.0
Li619 Li 0.8927 0.80396 0.50503 0.0
C620 C 0.97314 0.85532 0.52779 0.0
N621 N 0.01169 0.89617 0.57365 0.0
C622 C 0.98867 0.82161 0.55038 0.0
C623 C 0.97735 0.90974 0.52812 0.0
C624 C 0.00804 0.84306 0.57343 0.0
C625 C 0.99688 0.92964 0.55166 0.0
C626 C 0.90615 0.74153 0.58505 0.0
C627 C 0.88486 0.6611 0.60249 0.0
N628 N 0.89495 0.66154 0.64254 0.0
C629 C 0.91606 0.74153 0.62658 0.0
C630 C 0.89021 0.7013 0.57304 0.0
C631 C 0.91028 0.7006 0.65509 0.0
C632 C 0.9184 0.9375 0.60351 0.0
N633 N 0.93205 0.8934 0.59754 0.0
C634 C 0.95102 0.90612 0.66645 0.0
C635 C 0.94825 0.8775 0.62803 0.0
C636 C 0.93689 0.95143 0.6737 0.0
C637 C 0.92055 0.96718 0.64138 0.0
H638 H 0.90541 0.94912 0.57923 0.0
H639 H 0.95863 0.84185 0.62309 0.0
C640 C 0.96274 0.68378 0.4715 0.0
N641 N 0.95392 0.70255 0.50961 0.0
C642 C 0.9762 0.63685 0.47028 0.0
C643 C 0.97143 0.62927 0.54753 0.0
C644 C 0.9582 0.67645 0.54729 0.0
C645 C 0.9808 0.60887 0.50869 0.0
H646 H 0.95926 0.70525 0.44191 0.0
H647 H 0.95141 0.69215 0.57733 0.0
C648 C 0.89306 0.92527 0.4864 0.0
N649 N 0.87824 0.01475 0.4427 0.0
C650 C 0.87066 0.92611 0.46546 0.0
C651 C 0.9078 0.9701 0.48555 0.0
C652 C 0.86352 0.97171 0.44345 0.0
C653 C 0.90002 0.0149 0.46313 0.0
C654 C 0.90485 0.73779 0.43274 0.0
C655 C 0.89903 0.74603 0.38931 0.0
C656 C 0.90175 0.68772 0.45094 0.0
C657 C 0.88978 0.70421 0.36502 0.0
C658 C 0.89249 0.64689 0.42558 0.0
N659 N 0.88671 0.65593 0.38352 0.0
C660 C 0.95376 0.91363 0.40606 0.0
C661 C 0.91293 0.897 0.38715 0.0
C662 C 0.95713 0.94338 0.36823 0.0
N663 N 0.93186 0.89133 0.41484 0.0
C664 C 0.9154 0.92685 0.34941 0.0
C665 C 0.93771 0.95049 0.33946 0.0
H666 H 0.96857 0.90858 0.4285 0.0
H667 H 0.89576 0.87862 0.39461 0.0
C668 C 0.84601 0.79315 0.54243 0.0
N669 N 0.85847 0.78838 0.50465 0.0
C670 C 0.82099 0.78421 0.54374 0.0
C671 C 0.82197 0.76571 0.46726 0.0
C672 C 0.84692 0.77538 0.46735 0.0
C673 C 0.80867 0.76999 0.50584 0.0
H674 H 0.85552 0.80422 0.57157 0.0
H675 H 0.85694 0.77337 0.43742 0.0
O676 O 0.95391 0.83507 0.50549 0.0
O677 O 0.91157 0.78146 0.55679 0.0
O678 O 0.90058 0.88064 0.50738 0.0
O679 O 0.91386 0.77842 0.45698 0.0
H680 H 0.98569 0.7794 0.55038 0.0
H681 H 0.96558 0.93632 0.51062 0.0
H682 H 0.02014 0.81748 0.59124 0.0
H683 H 1.00027 0.97168 0.55251 0.0
H684 H 0.8726 0.62967 0.59355 0.0
H685 H 0.92824 0.77255 0.6366 0.0
H686 H 0.88183 0.7013 0.54154 0.0
H687 H 0.91797 0.69992 0.68721 0.0
H688 H 0.96348 0.89189 0.69081 0.0
H689 H 0.90932 1.00187 0.64557 0.0
H690 H 0.98313 0.62287 0.4396 0.0
H691 H 0.97399 0.60867 0.57785 0.0
H692 H 0.85902 0.89177 0.46587 0.0
H693 H 0.92513 0.97014 0.50175 0.0
H694 H 0.8463 0.97283 0.42688 0.0
H695 H 0.91132 0.04975 0.46194 0.0
H696 H 0.90155 0.78435 0.37453 0.0
H697 H 0.90671 0.68023 0.48411 0.0
H698 H 0.88508 0.71012 0.33144 0.0
H699 H 0.88998 0.60797 0.4393 0.0
H700 H 0.97457 0.96137 0.3619 0.0
H701 H 0.90003 0.93109 0.32798 0.0
H702 H 0.81139 0.78804 0.57413 0.0
H703 H 0.81308 0.75603 0.43712 0.0
C704 C 0.77239 0.28469 0.02887 0.0
C705 C 0.7833 0.24616 1.00264 0.0
C706 C 0.74718 0.29231 0.02873 0.0
C707 C 0.73178 0.26115 1.00282 0.0
H708 H 0.78347 0.30952 0.04933 0.0
H709 H 0.73974 0.3233 0.04885 0.0
S710 S 0.7516 0.15174 0.93104 0.0
N711 N 0.77705 0.17523 0.95132 0.0
N712 N 0.72966 0.18785 0.95209 0.0
C713 C 0.7426 0.22178 0.97696 0.0
C714 C 0.76832 0.21468 0.97667 0.0
C715 C 0.24651 0.80314 0.00841 0.0
C716 C 0.23038 0.76112 1.00069 0.0
C717 C 0.2717 0.7953 0.00876 0.0
C718 C 0.28188 0.74518 1.00104 0.0
H719 H 0.23959 0.84239 0.01481 0.0
H720 H 0.28332 0.82893 0.01479 0.0
S721 S 0.24767 0.62205 0.97872 0.0
N722 N 0.22652 0.66763 0.98437 0.0
N723 N 0.27373 0.65269 0.98591 0.0
C724 C 0.26597 0.70284 0.99313 0.0
C725 C 0.24031 0.71081 0.99284 0.0
C726 C 0.76631 0.79824 0.52488 0.0
C727 C 0.782 0.76073 0.50635 0.0
C728 C 0.74108 0.79082 0.52493 0.0
C729 C 0.7305 0.74544 0.50662 0.0
H730 H 0.77356 0.8341 0.53883 0.0
H731 H 0.72974 0.82132 0.53885 0.0
S732 S 0.76389 0.63283 0.45798 0.0
N733 N 0.78529 0.67513 0.47158 0.0
N734 N 0.73804 0.66066 0.47223 0.0
C735 C 0.74609 0.70707 0.48888 0.0
C736 C 0.77175 0.71482 0.48861 0.0
C737 C 0.2392 0.27945 0.48014 0.0
C738 C 0.22825 0.24245 0.5079 0.0
C739 C 0.26438 0.28756 0.48036 0.0
C740 C 0.27971 0.25861 0.50806 0.0
H741 H 0.22816 0.30282 0.45842 0.0
H742 H 0.27185 0.31726 0.45895 0.0
S743 S 0.26007 0.15344 0.58421 0.0
N744 N 0.23464 0.17481 0.56233 0.0
N745 N 0.28193 0.1889 0.56211 0.0
C746 C 0.26894 0.22075 0.53544 0.0
C747 C 0.24327 0.21294 0.53549 0.0
C748 C 0.57376 0.45505 0.25567 0.0
C749 C 0.57367 0.48209 0.21589 0.0
C750 C 0.57366 0.48251 0.29514 0.0
C751 C 0.57312 0.53811 0.29646 0.0
H752 H 0.57463 0.41233 0.25631 0.0
H753 H 0.57419 0.46001 0.32492 0.0
S754 S 0.57154 0.62746 0.20136 0.0
N755 N 0.57206 0.56759 0.18031 0.0
N756 N 0.57196 0.6191 0.25428 0.0
C757 C 0.57236 0.56555 0.2569 0.0
C758 C 0.57267 0.53761 0.21674 0.0
C759 C 0.44628 0.48713 0.22173 0.0
C760 C 0.43906 0.54039 0.21918 0.0
C761 C 0.44578 0.45955 0.26122 0.0
C762 C 0.43754 0.48393 0.29933 0.0
H763 H 0.45211 0.46653 0.19287 0.0
H764 H 0.45111 0.41838 0.26166 0.0
S765 S 0.417 0.62267 0.3101 0.0
N766 N 0.424 0.61666 0.25841 0.0
N767 N 0.42256 0.56456 0.33228 0.0
C768 C 0.43059 0.53727 0.29731 0.0
C769 C 0.43151 0.56558 0.25734 0.0
C770 C 0.41462 0.51828 0.78068 0.0
C771 C 0.43615 0.5414 0.79584 0.0
C772 C 0.41414 0.48903 0.74222 0.0
C773 C 0.43514 0.48174 0.71701 0.0
H774 H 0.39796 0.52251 0.7989 0.0
H775 H 0.39711 0.47169 0.7323 0.0
S776 S 0.49611 0.53576 0.74161 0.0
N777 N 0.47902 0.55572 0.78232 0.0
N778 N 0.4781 0.5013 0.70974 0.0
C779 C 0.45688 0.50449 0.73188 0.0
C780 C 0.45738 0.53414 0.77128 0.0
C781 C 0.57663 0.52922 0.79549 0.0
C782 C 0.57616 0.47361 0.79494 0.0
C783 C 0.57644 0.55881 0.75705 0.0
C784 C 0.57573 0.53419 0.71625 0.0
H785 H 0.57773 0.55019 0.82591 0.0
H786 H 0.57693 0.60146 0.75936 0.0
S787 S 0.57328 0.38958 0.69681 0.0
N788 N 0.57371 0.39515 0.74994 0.0
N789 N 0.57434 0.45048 0.67786 0.0
C790 C 0.57485 0.4786 0.71522 0.0
C791 C 0.57489 0.44846 0.75441 0.0
C792 C 0.07611 0.03232 0.21603 0.0
C793 C 0.06896 0.97904 0.2132 0.0
C794 C 0.07509 0.0599 0.25535 0.0
C795 C 0.06718 0.03512 0.29356 0.0
H796 H 0.08294 0.05263 0.1877 0.0
H797 H 0.08142 0.10037 0.25617 0.0
S798 S 0.04515 0.89728 0.30332 0.0
N799 N 0.05271 0.90329 0.25188 0.0
N800 N 0.05076 0.95518 0.32566 0.0
C801 C 0.05925 0.98243 0.29096 0.0
C802 C 0.0601 0.95444 0.25084 0.0
C803 C 0.92344 0.02312 0.29053 0.0
C804 C 0.94028 0.98277 0.2994 0.0
C805 C 0.92443 0.05211 0.25185 0.0
C806 C 0.94203 0.0413 0.22015 0.0
H807 H 0.90927 0.03213 0.31363 0.0
H808 H 0.91086 0.08222 0.24615 0.0
S809 S 0.99078 0.94105 0.22798 0.0
N810 N 0.97559 0.93474 0.27374 0.0
N811 N 0.9772 0.98874 0.20077 0.0
C812 C 0.95922 1.00171 0.22884 0.0
C813 C 0.95844 0.97268 0.26854 0.0
C814 C 0.91624 0.9937 0.73707 0.0
C815 C 0.93791 0.98054 0.7156 0.0
C816 C 0.91636 0.02158 0.77618 0.0
C817 C 0.93816 0.03769 0.79566 0.0
H818 H 0.89895 0.98194 0.72368 0.0
H819 H 0.89916 0.03029 0.79148 0.0
S820 S 0.99997 0.0151 0.75188 0.0
N821 N 0.98186 0.98683 0.71632 0.0
N822 N 0.98209 0.0394 0.78985 0.0
C823 C 0.96003 0.02468 0.77468 0.0
C824 C 0.9599 0.99613 0.73472 0.0
C825 C 0.06991 0.95416 0.7554 0.0
C826 C 0.07053 0.97995 0.79564 0.0
C827 C 0.06957 0.98295 0.7165 0.0
C828 C 0.06974 0.03861 0.71639 0.0
H829 H 0.07062 0.91146 0.75395 0.0
H830 H 0.07007 0.96141 0.68629 0.0
S831 S 0.0674 0.12453 0.81342 0.0
N832 N 0.06876 0.06399 0.83314 0.0
N833 N 0.06772 0.11805 0.76032 0.0
C834 C 0.06904 0.06467 0.75654 0.0
C835 C 0.06953 0.03539 0.79603 0.0
C836 C 0.48433 1.00334 0.99312 0.0
C837 C 0.49408 0.95688 0.01109 0.0
C838 C 0.49739 0.05103 0.99306 0.0
C839 C 0.52087 0.05433 0.01069 0.0
H840 H 0.4663 1.00297 0.97936 0.0
H841 H 0.48887 0.08577 0.97942 0.0
S842 S 0.55543 0.94269 0.05834 0.0
N843 N 0.52908 0.91653 0.04516 0.0
N844 N 0.55379 1.00554 0.04437 0.0
C845 C 0.53095 0.00784 0.02822 0.0
C846 C 0.51755 0.95939 0.02856 0.0
C847 C 0.52357 0.99975 0.53491 0.0
C848 C 0.51862 0.95956 0.50483 0.0
C849 C 0.51053 0.04747 0.53481 0.0
C850 C 0.49179 0.05696 0.50486 0.0
H851 H 0.53784 0.99447 0.55849 0.0
H852 H 0.51534 0.07739 0.55824 0.0
S853 S 0.47038 0.96229 0.42164 0.0
N854 N 0.49304 0.93134 0.4455 0.0
N855 N 0.46815 0.02017 0.44583 0.0
C856 C 0.48646 0.01662 0.47497 0.0
C857 C 0.49993 0.96824 0.47485 0.0
C858 C 0.99814 0.55125 0.0255 0.0
C859 C 0.02089 0.55622 1.00528 0.0
C860 C 0.98552 0.50298 0.02557 0.0
C861 C 0.99519 0.45753 1.00567 0.0
H862 H 0.98983 0.58521 0.04075 0.0
H863 H 0.96785 0.50152 0.04075 0.0
S864 S 0.0554 0.44837 0.95246 0.0
N865 N 0.05327 0.51079 0.96732 0.0
N866 N 0.0299 0.4201 0.96808 0.0
C867 C 0.01824 0.46177 0.98633 0.0
C868 C 0.03098 0.51099 0.986 0.0
C869 C 1.00295 0.47154 0.4757 0.0
C870 C 0.02066 0.45971 0.50691 0.0
C871 C 0.9903 0.51977 0.47636 0.0
C872 C 0.99494 0.55836 0.5081 0.0
H873 H 0.99851 0.44284 0.45103 0.0
H874 H 0.97645 0.52645 0.45222 0.0
S875 S 0.04152 0.54887 0.59422 0.0
N876 N 0.0433 0.49179 0.5687 0.0
N877 N 0.01999 0.58259 0.56955 0.0
C878 C 0.0131 0.54745 0.53879 0.0
C879 C 0.02583 0.4982 0.53828 0.0
loop_
_geom_bond_atom_site_label_1
_geom_bond_atom_site_label_2
_geom_bond_distance
_geom_bond_site_symmetry_2
_ccdc_geom_bond_type
Li0 N17 1.990 . S
Li0 O60 1.956 1_554 S
Li0 O61 1.970 . S
Li0 O62 1.961 . S
Li1 N25 1.990 . S
Li1 O60 1.970 1_554 S
Li1 O61 1.956 . S
Li1 O63 1.961 1_554 S
Li2 N47 1.990 . S
Li2 O60 1.961 . S
Li2 O62 1.956 1_556 S
Li2 O63 1.970 . S
Li3 N53 1.990 . S
Li3 O61 1.961 1_556 S
Li3 O62 1.970 1_556 S
Li3 O63 1.956 . S
C4 C6 1.348 1_556 S
C4 C7 1.356 . S
C4 O60 1.325 . S
N5 C8 1.314 . S
N5 C9 1.279 1_554 S
C6 C4 1.348 1_554 S
C6 C8 1.353 . S
C6 H64 0.929 . S
C7 C4 1.356 . S
C7 C9 1.358 . S
C7 H65 0.930 . S
C8 N5 1.314 . S
C8 C6 1.353 . S
C8 H66 0.930 . S
C9 N5 1.279 1_556 S
C9 C7 1.358 . S
C9 H67 0.930 . S
C10 C13 1.348 . S
C10 C14 1.356 . S
C10 O61 1.325 . S
C11 N12 1.279 . S
C11 C14 1.358 . S
C11 H68 0.930 . S
N12 C11 1.279 . S
N12 C15 1.314 . S
C13 C10 1.348 . S
C13 C15 1.353 . S
C13 H69 0.929 . S
C14 C10 1.356 . S
C14 C11 1.358 . S
C14 H70 0.930 . S
C15 N12 1.314 . S
C15 C13 1.353 . S
C15 H71 0.930 . S
C16 N17 1.314 . S
C16 C21 1.353 . S
C16 H22 0.930 . S
N17 Li0 1.990 . S
N17 C16 1.314 . S
N17 C19 1.279 . S
C18 C19 1.358 . S
C18 C20 1.356 . S
C18 H72 0.930 . S
C19 N17 1.279 . S
C19 C18 1.358 . S
C19 H23 0.930 . S
C20 C18 1.356 . S
C20 C21 1.348 . S
C21 C16 1.353 . S
C21 C20 1.348 . S
C21 H73 0.929 . S
H22 C16 0.930 . S
H23 C19 0.930 . S
C24 N25 1.314 1_556 S
C24 C26 1.353 . S
C24 H30 0.930 . S
N25 Li1 1.990 . S
N25 C24 1.314 1_554 S
N25 C28 1.279 . S
C26 C24 1.353 . S
C26 C29 1.345 1_556 S
C26 H74 0.929 . S
C27 C28 1.358 . S
C27 C29 1.359 . S
C27 H75 0.930 . S
C28 N25 1.279 . S
C28 C27 1.358 . S
C28 H31 0.930 . S
C29 C26 1.345 1_554 S
C29 C27 1.359 . S
H30 C24 0.930 . S
H31 C28 0.930 . S
C32 C34 1.346 1_554 S
C32 C35 1.357 . S
C32 O62 1.325 . S
N33 C36 1.314 . S
N33 C37 1.279 1_556 S
C34 C32 1.346 1_556 S
C34 C36 1.353 . S
C34 H76 0.929 . S
C35 C32 1.357 . S
C35 C37 1.358 . S
C35 H77 0.930 . S
C36 N33 1.314 . S
C36 C34 1.353 . S
C36 H78 0.930 . S
C37 N33 1.279 1_554 S
C37 C35 1.358 . S
C37 H79 0.930 . S
C38 C39 1.348 . S
C38 C40 1.356 . S
C38 O63 1.325 . S
C39 C38 1.348 . S
C39 C41 1.353 . S
C39 H80 0.929 . S
C40 C38 1.356 . S
C40 C42 1.358 . S
C40 H81 0.930 . S
C41 C39 1.353 . S
C41 N43 1.314 . S
C41 H82 0.930 . S
C42 C40 1.358 . S
C42 N43 1.279 . S
C42 H83 0.930 . S
N43 C41 1.314 . S
N43 C42 1.279 . S
C44 C46 1.353 . S
C44 N47 1.314 . S
C44 H50 0.930 . S
C45 N47 1.279 . S
C45 C48 1.358 . S
C45 H51 0.930 . S
C46 C44 1.353 . S
C46 C49 1.348 . S
C46 H84 0.929 . S
N47 Li2 1.990 . S
N47 C44 1.314 . S
N47 C45 1.279 . S
C48 C45 1.358 . S
C48 C49 1.356 . S
C48 H85 0.930 . S
C49 C46 1.348 . S
C49 C48 1.356 . S
H50 C44 0.930 . S
H51 C45 0.930 . S
C52 N53 1.314 1_554 S
C52 C54 1.353 . S
C52 H58 0.930 . S
N53 Li3 1.990 . S
N53 C52 1.314 1_556 S
N53 C56 1.279 . S
C54 C52 1.353 . S
C54 C57 1.350 1_554 S
C54 H86 0.929 . S
C55 C56 1.358 . S
C55 C57 1.354 . S
C55 H87 0.930 . S
C56 N53 1.279 . S
C56 C55 1.358 . S
C56 H59 0.930 . S
C57 C54 1.350 1_556 S
C57 C55 1.354 . S
H58 C52 0.930 . S
H59 C56 0.930 . S
O60 Li0 1.956 1_556 S
O60 Li1 1.970 1_556 S
O60 Li2 1.961 . S
O60 C4 1.325 . S
O61 Li0 1.970 . S
O61 Li1 1.956 . S
O61 Li3 1.961 1_554 S
O61 C10 1.325 . S
O62 Li0 1.961 . S
O62 Li2 1.956 1_554 S
O62 Li3 1.970 1_554 S
O62 C32 1.325 . S
O63 Li1 1.961 1_556 S
O63 Li2 1.970 . S
O63 Li3 1.956 . S
O63 C38 1.325 . S
H64 C6 0.929 . S
H65 C7 0.930 . S
H66 C8 0.930 . S
H67 C9 0.930 . S
H68 C11 0.930 . S
H69 C13 0.929 . S
H70 C14 0.930 . S
H71 C15 0.930 . S
H72 C18 0.930 . S
H73 C21 0.929 . S
H74 C26 0.929 . S
H75 C27 0.930 . S
H76 C34 0.929 . S
H77 C35 0.930 . S
H78 C36 0.930 . S
H79 C37 0.930 . S
H80 C39 0.929 . S
H81 C40 0.930 . S
H82 C41 0.930 . S
H83 C42 0.930 . S
H84 C46 0.929 . S
H85 C48 0.930 . S
H86 C54 0.929 . S
H87 C55 0.930 . S
Li88 N105 1.990 . S
Li88 O148 1.956 . S
Li88 O149 1.970 1_554 S
Li88 O150 1.961 1_554 S
Li89 N113 1.990 . S
Li89 O148 1.970 . S
Li89 O149 1.956 1_554 S
Li89 O151 1.961 . S
Li90 N135 1.990 . S
Li90 O148 1.961 1_556 S
Li90 O150 1.956 . S
Li90 O151 1.970 1_556 S
Li91 N141 1.990 . S
Li91 O149 1.961 . S
Li91 O150 1.970 . S
Li91 O151 1.956 1_556 S
C92 C94 1.348 . S
C92 C95 1.356 . S
C92 O148 1.325 . S
N93 C96 1.314 . S
N93 C97 1.279 . S
C94 C92 1.348 . S
C94 C96 1.353 . S
C94 H152 0.929 . S
C95 C92 1.356 . S
C95 C97 1.358 . S
C95 H153 0.930 . S
C96 N93 1.314 . S
C96 C94 1.353 . S
C96 H154 0.930 . S
C97 N93 1.279 . S
C97 C95 1.358 . S
C97 H155 0.930 . S
C98 C101 1.348 1_556 S
C98 C102 1.356 . S
C98 O149 1.325 . S
C99 N100 1.279 1_556 S
C99 C102 1.358 . S
C99 H156 0.930 . S
N100 C99 1.279 1_554 S
N100 C103 1.314 . S
C101 C98 1.348 1_554 S
C101 C103 1.353 . S
C101 H157 0.929 . S
C102 C98 1.356 . S
C102 C99 1.358 . S
C102 H158 0.930 . S
C103 N100 1.314 . S
C103 C101 1.353 . S
C103 H159 0.930 . S
C104 N105 1.314 1_556 S
C104 C109 1.353 . S
C104 H110 0.930 . S
N105 Li88 1.990 . S
N105 C104 1.314 1_554 S
N105 C107 1.279 . S
C106 C107 1.358 . S
C106 C108 1.359 . S
C106 H160 0.930 . S
C107 N105 1.279 . S
C107 C106 1.358 . S
C107 H111 0.930 . S
C108 C106 1.359 . S
C108 C109 1.345 1_554 S
C109 C104 1.353 . S
C109 C108 1.345 1_556 S
C109 H161 0.929 . S
H110 C104 0.930 . S
H111 C107 0.930 . S
C112 N113 1.314 . S
C112 C114 1.353 . S
C112 H118 0.930 . S
N113 Li89 1.990 . S
N113 C112 1.314 . S
N113 C116 1.279 . S
C114 C112 1.353 . S
C114 C117 1.348 . S
C114 H162 0.929 . S
C115 C116 1.358 . S
C115 C117 1.356 . S
C115 H163 0.930 . S
C116 N113 1.279 . S
C116 C115 1.358 . S
C116 H119 0.930 . S
C117 C114 1.348 . S
C117 C115 1.356 . S
H118 C112 0.930 . S
H119 C116 0.930 . S
C120 C122 1.348 . S
C120 C123 1.356 . S
C120 O150 1.325 . S
N121 C124 1.314 . S
N121 C125 1.279 . S
C122 C120 1.348 . S
C122 C124 1.353 . S
C122 H164 0.929 . S
C123 C120 1.356 . S
C123 C125 1.358 . S
C123 H165 0.930 . S
C124 N121 1.314 . S
C124 C122 1.353 . S
C124 H166 0.930 . S
C125 N121 1.279 . S
C125 C123 1.358 . S
C125 H167 0.930 . S
C126 C127 1.346 1_554 S
C126 C128 1.357 . S
C126 O151 1.325 . S
C127 C126 1.346 1_556 S
C127 C129 1.353 . S
C127 H168 0.929 . S
C128 C126 1.357 . S
C128 C130 1.358 . S
C128 H169 0.930 . S
C129 C127 1.353 . S
C129 N131 1.314 . S
C129 H170 0.930 . S
C130 C128 1.358 . S
C130 N131 1.279 1_554 S
C130 H171 0.930 . S
N131 C129 1.314 . S
N131 C130 1.279 1_556 S
C132 C134 1.353 . S
C132 N135 1.314 1_554 S
C132 H138 0.930 . S
C133 N135 1.279 . S
C133 C136 1.358 . S
C133 H139 0.930 . S
C134 C132 1.353 . S
C134 C137 1.350 1_554 S
C134 H172 0.929 . S
N135 Li90 1.990 . S
N135 C132 1.314 1_556 S
N135 C133 1.279 . S
C136 C133 1.358 . S
C136 C137 1.354 . S
C136 H173 0.930 . S
C137 C134 1.350 1_556 S
C137 C136 1.354 . S
H138 C132 0.930 . S
H139 C133 0.930 . S
C140 N141 1.314 . S
C140 C142 1.353 . S
C140 H146 0.930 . S
N141 Li91 1.990 . S
N141 C140 1.314 . S
N141 C144 1.279 . S
C142 C140 1.353 . S
C142 C145 1.348 . S
C142 H174 0.929 . S
C143 C144 1.358 . S
C143 C145 1.356 . S
C143 H175 0.930 . S
C144 N141 1.279 . S
C144 C143 1.358 . S
C144 H147 0.930 . S
C145 C142 1.348 . S
C145 C143 1.356 . S
H146 C140 0.930 . S
H147 C144 0.930 . S
O148 Li88 1.956 . S
O148 Li89 1.970 . S
O148 Li90 1.961 1_554 S
O148 C92 1.325 . S
O149 Li88 1.970 1_556 S
O149 Li89 1.956 1_556 S
O149 Li91 1.961 . S
O149 C98 1.325 . S
O150 Li88 1.961 1_556 S
O150 Li90 1.956 . S
O150 Li91 1.970 . S
O150 C120 1.325 . S
O151 Li89 1.961 . S
O151 Li90 1.970 1_554 S
O151 Li91 1.956 1_554 S
O151 C126 1.325 . S
H152 C94 0.929 . S
H153 C95 0.930 . S
H154 C96 0.930 . S
H155 C97 0.930 . S
H156 C99 0.930 . S
H157 C101 0.929 . S
H158 C102 0.930 . S
H159 C103 0.930 . S
H160 C106 0.930 . S
H161 C109 0.929 . S
H162 C114 0.929 . S
H163 C115 0.930 . S
H164 C122 0.929 . S
H165 C123 0.930 . S
H166 C124 0.930 . S
H167 C125 0.930 . S
H168 C127 0.929 . S
H169 C128 0.930 . S
H170 C129 0.930 . S
H171 C130 0.930 . S
H172 C134 0.929 . S
H173 C136 0.930 . S
H174 C142 0.929 . S
H175 C143 0.930 . S
Li176 N193 1.990 . S
Li176 O236 1.956 . S
Li176 O237 1.970 . S
Li176 O238 1.961 . S
Li177 N201 1.990 . S
Li177 O236 1.970 . S
Li177 O237 1.956 . S
Li177 O239 1.961 . S
Li178 N223 1.990 . S
Li178 O236 1.961 . S
Li178 O238 1.956 . S
Li178 O239 1.970 . S
Li179 N229 1.990 . S
Li179 O237 1.961 . S
Li179 O238 1.970 . S
Li179 O239 1.956 . S
C180 C182 1.348 . S
C180 C183 1.356 . S
C180 O236 1.325 . S
N181 C184 1.314 . S
N181 C185 1.279 . S
C182 C180 1.348 . S
C182 C184 1.353 . S
C182 H240 0.929 . S
C183 C180 1.356 . S
C183 C185 1.358 . S
C183 H241 0.930 . S
C184 N181 1.314 . S
C184 C182 1.353 . S
C184 H242 0.930 . S
C185 N181 1.279 . S
C185 C183 1.358 . S
C185 H243 0.930 . S
C186 C189 1.348 . S
C186 C190 1.356 . S
C186 O237 1.325 . S
C187 N188 1.279 . S
C187 C190 1.358 . S
C187 H244 0.930 . S
N188 C187 1.279 . S
N188 C191 1.314 . S
C189 C186 1.348 . S
C189 C191 1.353 . S
C189 H245 0.929 . S
C190 C186 1.356 . S
C190 C187 1.358 . S
C190 H246 0.930 . S
C191 N188 1.314 . S
C191 C189 1.353 . S
C191 H247 0.930 . S
C192 N193 1.314 . S
C192 C197 1.353 . S
C192 H198 0.930 . S
N193 Li176 1.990 . S
N193 C192 1.314 . S
N193 C195 1.279 . S
C194 C195 1.358 . S
C194 C196 1.356 . S
C194 H248 0.930 . S
C195 N193 1.279 . S
C195 C194 1.358 . S
C195 H199 0.930 . S
C196 C194 1.356 . S
C196 C197 1.348 . S
C197 C192 1.353 . S
C197 C196 1.348 . S
C197 H249 0.929 . S
H198 C192 0.930 . S
H199 C195 0.930 . S
C200 N201 1.314 . S
C200 C202 1.353 . S
C200 H206 0.930 . S
N201 Li177 1.990 . S
N201 C200 1.314 . S
N201 C204 1.279 . S
C202 C200 1.353 . S
C202 C205 1.348 . S
C202 H250 0.929 . S
C203 C204 1.358 . S
C203 C205 1.356 . S
C203 H251 0.930 . S
C204 N201 1.279 . S
C204 C203 1.358 . S
C204 H207 0.930 . S
C205 C202 1.348 . S
C205 C203 1.356 . S
H206 C200 0.930 . S
H207 C204 0.930 . S
C208 C210 1.348 . S
C208 C211 1.356 . S
C208 O238 1.325 . S
N209 C212 1.314 . S
N209 C213 1.279 . S
C210 C208 1.348 . S
C210 C212 1.353 . S
C210 H252 0.929 . S
C211 C208 1.356 . S
C211 C213 1.358 . S
C211 H253 0.930 . S
C212 N209 1.314 . S
C212 C210 1.353 . S
C212 H254 0.930 . S
C213 N209 1.279 . S
C213 C211 1.358 . S
C213 H255 0.930 . S
C214 C215 1.348 . S
C214 C216 1.356 . S
C214 O239 1.325 . S
C215 C214 1.348 . S
C215 C217 1.353 . S
C215 H256 0.929 . S
C216 C214 1.356 . S
C216 C218 1.358 . S
C216 H257 0.930 . S
C217 C215 1.353 . S
C217 N219 1.314 . S
C217 H258 0.930 . S
C218 C216 1.358 . S
C218 N219 1.279 . S
C218 H259 0.930 . S
N219 C217 1.314 . S
N219 C218 1.279 . S
C220 C222 1.353 . S
C220 N223 1.314 . S
C220 H226 0.930 . S
C221 N223 1.279 . S
C221 C224 1.358 . S
C221 H227 0.930 . S
C222 C220 1.353 . S
C222 C225 1.348 . S
C222 H260 0.929 . S
N223 Li178 1.990 . S
N223 C220 1.314 . S
N223 C221 1.279 . S
C224 C221 1.358 . S
C224 C225 1.356 . S
C224 H261 0.930 . S
C225 C222 1.348 . S
C225 C224 1.356 . S
H226 C220 0.930 . S
H227 C221 0.930 . S
C228 N229 1.314 . S
C228 C230 1.353 . S
C228 H234 0.930 . S
N229 Li179 1.990 . S
N229 C228 1.314 . S
N229 C232 1.279 . S
C230 C228 1.353 . S
C230 C233 1.348 . S
C230 H262 0.929 . S
C231 C232 1.358 . S
C231 C233 1.356 . S
C231 H263 0.930 . S
C232 N229 1.279 . S
C232 C231 1.358 . S
C232 H235 0.930 . S
C233 C230 1.348 . S
C233 C231 1.356 . S
H234 C228 0.930 . S
H235 C232 0.930 . S
O236 Li176 1.956 . S
O236 Li177 1.970 . S
O236 Li178 1.961 . S
O236 C180 1.325 . S
O237 Li176 1.970 . S
O237 Li177 1.956 . S
O237 Li179 1.961 . S
O237 C186 1.325 . S
O238 Li176 1.961 . S
O238 Li178 1.956 . S
O238 Li179 1.970 . S
O238 C208 1.325 . S
O239 Li177 1.961 . S
O239 Li178 1.970 . S
O239 Li179 1.956 . S
O239 C214 1.325 . S
H240 C182 0.929 . S
H241 C183 0.930 . S
H242 C184 0.930 . S
H243 C185 0.930 . S
H244 C187 0.930 . S
H245 C189 0.929 . S
H246 C190 0.930 . S
H247 C191 0.930 . S
H248 C194 0.930 . S
H249 C197 0.929 . S
H250 C202 0.929 . S
H251 C203 0.930 . S
H252 C210 0.929 . S
H253 C211 0.930 . S
H254 C212 0.930 . S
H255 C213 0.930 . S
H256 C215 0.929 . S
H257 C216 0.930 . S
H258 C217 0.930 . S
H259 C218 0.930 . S
H260 C222 0.929 . S
H261 C224 0.930 . S
H262 C230 0.929 . S
H263 C231 0.930 . S
Li264 N281 1.990 . S
Li264 O324 1.956 . S
Li264 O325 1.970 . S
Li264 O326 1.961 . S
Li265 N289 1.990 . S
Li265 O324 1.970 . S
Li265 O325 1.956 . S
Li265 O327 1.961 . S
Li266 N311 1.990 . S
Li266 O324 1.961 . S
Li266 O326 1.956 . S
Li266 O327 1.970 . S
Li267 N317 1.990 . S
Li267 O325 1.961 . S
Li267 O326 1.970 . S
Li267 O327 1.956 . S
C268 C270 1.348 . S
C268 C271 1.356 . S
C268 O324 1.325 . S
N269 C272 1.314 . S
N269 C273 1.279 . S
C270 C268 1.348 . S
C270 C272 1.353 . S
C270 H328 0.929 . S
C271 C268 1.356 . S
C271 C273 1.358 . S
C271 H329 0.930 . S
C272 N269 1.314 . S
C272 C270 1.353 . S
C272 H330 0.930 . S
C273 N269 1.279 . S
C273 C271 1.358 . S
C273 H331 0.930 . S
C274 C277 1.348 . S
C274 C278 1.356 . S
C274 O325 1.325 . S
C275 N276 1.279 . S
C275 C278 1.358 . S
C275 H332 0.930 . S
N276 C275 1.279 . S
N276 C279 1.314 . S
C277 C274 1.348 . S
C277 C279 1.353 . S
C277 H333 0.929 . S
C278 C274 1.356 . S
C278 C275 1.358 . S
C278 H334 0.930 . S
C279 N276 1.314 . S
C279 C277 1.353 . S
C279 H335 0.930 . S
C280 N281 1.314 . S
C280 C285 1.353 . S
C280 H286 0.930 . S
N281 Li264 1.990 . S
N281 C280 1.314 . S
N281 C283 1.279 . S
C282 C283 1.358 . S
C282 C284 1.356 . S
C282 H336 0.930 . S
C283 N281 1.279 . S
C283 C282 1.358 . S
C283 H287 0.930 . S
C284 C282 1.356 . S
C284 C285 1.348 . S
C285 C280 1.353 . S
C285 C284 1.348 . S
C285 H337 0.929 . S
H286 C280 0.930 . S
H287 C283 0.930 . S
C288 N289 1.314 . S
C288 C290 1.353 . S
C288 H294 0.930 . S
N289 Li265 1.990 . S
N289 C288 1.314 . S
N289 C292 1.279 . S
C290 C288 1.353 . S
C290 C293 1.348 . S
C290 H338 0.929 . S
C291 C292 1.358 . S
C291 C293 1.356 . S
C291 H339 0.930 . S
C292 N289 1.279 . S
C292 C291 1.358 . S
C292 H295 0.930 . S
C293 C290 1.348 . S
C293 C291 1.356 . S
H294 C288 0.930 . S
H295 C292 0.930 . S
C296 C298 1.348 . S
C296 C299 1.356 . S
C296 O326 1.325 . S
N297 C300 1.314 . S
N297 C301 1.279 . S
C298 C296 1.348 . S
C298 C300 1.353 . S
C298 H340 0.929 . S
C299 C296 1.356 . S
C299 C301 1.358 . S
C299 H341 0.930 . S
C300 N297 1.314 . S
C300 C298 1.353 . S
C300 H342 0.930 . S
C301 N297 1.279 . S
C301 C299 1.358 . S
C301 H343 0.930 . S
C302 C303 1.348 . S
C302 C304 1.356 . S
C302 O327 1.325 . S
C303 C302 1.348 . S
C303 C305 1.353 . S
C303 H344 0.929 . S
C304 C302 1.356 . S
C304 C306 1.358 . S
C304 H345 0.930 . S
C305 C303 1.353 . S
C305 N307 1.314 . S
C305 H346 0.930 . S
C306 C304 1.358 . S
C306 N307 1.279 . S
C306 H347 0.930 . S
N307 C305 1.314 . S
N307 C306 1.279 . S
C308 C310 1.353 . S
C308 N311 1.314 . S
C308 H314 0.930 . S
C309 N311 1.279 . S
C309 C312 1.358 . S
C309 H315 0.930 . S
C310 C308 1.353 . S
C310 C313 1.348 . S
C310 H348 0.929 . S
N311 Li266 1.990 . S
N311 C308 1.314 . S
N311 C309 1.279 . S
C312 C309 1.358 . S
C312 C313 1.356 . S
C312 H349 0.930 . S
C313 C310 1.348 . S
C313 C312 1.356 . S
H314 C308 0.930 . S
H315 C309 0.930 . S
C316 N317 1.314 . S
C316 C318 1.353 . S
C316 H322 0.930 . S
N317 Li267 1.990 . S
N317 C316 1.314 . S
N317 C320 1.279 . S
C318 C316 1.353 . S
C318 C321 1.348 . S
C318 H350 0.929 . S
C319 C320 1.358 . S
C319 C321 1.356 . S
C319 H351 0.930 . S
C320 N317 1.279 . S
C320 C319 1.358 . S
C320 H323 0.930 . S
C321 C318 1.348 . S
C321 C319 1.356 . S
H322 C316 0.930 . S
H323 C320 0.930 . S
O324 Li264 1.956 . S
O324 Li265 1.970 . S
O324 Li266 1.961 . S
O324 C268 1.325 . S
O325 Li264 1.970 . S
O325 Li265 1.956 . S
O325 Li267 1.961 . S
O325 C274 1.325 . S
O326 Li264 1.961 . S
O326 Li266 1.956 . S
O326 Li267 1.970 . S
O326 C296 1.325 . S
O327 Li265 1.961 . S
O327 Li266 1.970 . S
O327 Li267 1.956 . S
O327 C302 1.325 . S
H328 C270 0.929 . S
H329 C271 0.930 . S
H330 C272 0.930 . S
H331 C273 0.930 . S
H332 C275 0.930 . S
H333 C277 0.929 . S
H334 C278 0.930 . S
H335 C279 0.930 . S
H336 C282 0.930 . S
H337 C285 0.929 . S
H338 C290 0.929 . S
H339 C291 0.930 . S
H340 C298 0.929 . S
H341 C299 0.930 . S
H342 C300 0.930 . S
H343 C301 0.930 . S
H344 C303 0.929 . S
H345 C304 0.930 . S
H346 C305 0.930 . S
H347 C306 0.930 . S
H348 C310 0.929 . S
H349 C312 0.930 . S
H350 C318 0.929 . S
H351 C319 0.930 . S
Li352 N369 1.990 . S
Li352 O412 1.956 1_554 S
Li352 O413 1.970 . S
Li352 O414 1.961 . S
Li353 N377 1.990 . S
Li353 O412 1.970 1_554 S
Li353 O413 1.956 . S
Li353 O415 1.961 1_554 S
Li354 N399 1.990 . S
Li354 O412 1.961 . S
Li354 O414 1.956 1_556 S
Li354 O415 1.970 . S
Li355 N405 1.990 . S
Li355 O413 1.961 1_556 S
Li355 O414 1.970 1_556 S
Li355 O415 1.956 . S
C356 C358 1.348 1_556 S
C356 C359 1.356 . S
C356 O412 1.325 . S
N357 C360 1.314 1_545 S
N357 C361 1.279 1_554 S
C358 C356 1.348 1_554 S
C358 C360 1.353 . S
C358 H416 0.929 . S
C359 C356 1.356 . S
C359 C361 1.358 1_565 S
C359 H417 0.930 . S
C360 N357 1.314 1_565 S
C360 C358 1.353 . S
C360 H418 0.930 . S
C361 N357 1.279 1_556 S
C361 C359 1.358 1_545 S
C361 H419 0.930 . S
C362 C365 1.348 . S
C362 C366 1.356 . S
C362 O413 1.325 . S
C363 N364 1.279 . S
C363 C366 1.358 . S
C363 H420 0.930 . S
N364 C363 1.279 . S
N364 C367 1.314 . S
C365 C362 1.348 . S
C365 C367 1.353 . S
C365 H421 0.929 . S
C366 C362 1.356 . S
C366 C363 1.358 . S
C366 H422 0.930 . S
C367 N364 1.314 . S
C367 C365 1.353 . S
C367 H423 0.930 . S
C368 N369 1.314 . S
C368 C373 1.353 . S
C368 H374 0.930 . S
N369 Li352 1.990 . S
N369 C368 1.314 . S
N369 C371 1.279 . S
C370 C371 1.358 . S
C370 C372 1.356 . S
C370 H424 0.930 . S
C371 N369 1.279 . S
C371 C370 1.358 . S
C371 H375 0.930 . S
C372 C370 1.356 . S
C372 C373 1.348 . S
C373 C368 1.353 . S
C373 C372 1.348 . S
C373 H425 0.929 . S
H374 C368 0.930 . S
H375 C371 0.930 . S
C376 N377 1.314 1_556 S
C376 C378 1.353 . S
C376 H382 0.930 . S
N377 Li353 1.990 . S
N377 C376 1.314 1_554 S
N377 C380 1.279 . S
C378 C376 1.353 . S
C378 C381 1.345 1_556 S
C378 H426 0.929 . S
C379 C380 1.358 . S
C379 C381 1.359 . S
C379 H427 0.930 . S
C380 N377 1.279 . S
C380 C379 1.358 . S
C380 H383 0.930 . S
C381 C378 1.345 1_554 S
C381 C379 1.359 . S
H382 C376 0.930 . S
H383 C380 0.930 . S
C384 C386 1.346 1_554 S
C384 C387 1.357 . S
C384 O414 1.325 . S
N385 C388 1.314 . S
N385 C389 1.279 1_656 S
C386 C384 1.346 1_556 S
C386 C388 1.353 1_455 S
C386 H428 0.929 . S
C387 C384 1.357 . S
C387 C389 1.358 . S
C387 H429 0.930 . S
C388 N385 1.314 . S
C388 C386 1.353 1_655 S
C388 H430 0.930 . S
C389 N385 1.279 1_454 S
C389 C387 1.358 . S
C389 H431 0.930 1_455 S
C390 C391 1.348 . S
C390 C392 1.356 . S
C390 O415 1.325 . S
C391 C390 1.348 . S
C391 C393 1.353 . S
C391 H432 0.929 . S
C392 C390 1.356 . S
C392 C394 1.358 . S
C392 H433 0.930 . S
C393 C391 1.353 . S
C393 N395 1.314 . S
C393 H434 0.930 . S
C394 C392 1.358 . S
C394 N395 1.279 . S
C394 H435 0.930 . S
N395 C393 1.314 . S
N395 C394 1.279 . S
C396 C398 1.353 . S
C396 N399 1.314 . S
C396 H402 0.930 . S
C397 N399 1.279 . S
C397 C400 1.358 . S
C397 H403 0.930 . S
C398 C396 1.353 . S
C398 C401 1.348 . S
C398 H436 0.929 . S
N399 Li354 1.990 . S
N399 C396 1.314 . S
N399 C397 1.279 . S
C400 C397 1.358 . S
C400 C401 1.356 . S
C400 H437 0.930 . S
C401 C398 1.348 . S
C401 C400 1.356 . S
H402 C396 0.930 . S
H403 C397 0.930 . S
C404 N405 1.314 1_554 S
C404 C406 1.353 . S
C404 H410 0.930 . S
N405 Li355 1.990 . S
N405 C404 1.314 1_556 S
N405 C408 1.279 . S
C406 C404 1.353 . S
C406 C409 1.350 1_554 S
C406 H438 0.929 . S
C407 C408 1.358 . S
C407 C409 1.354 . S
C407 H439 0.930 . S
C408 N405 1.279 . S
C408 C407 1.358 . S
C408 H411 0.930 . S
C409 C406 1.350 1_556 S
C409 C407 1.354 . S
H410 C404 0.930 . S
H411 C408 0.930 . S
O412 Li352 1.956 1_556 S
O412 Li353 1.970 1_556 S
O412 Li354 1.961 . S
O412 C356 1.325 . S
O413 Li352 1.970 . S
O413 Li353 1.956 . S
O413 Li355 1.961 1_554 S
O413 C362 1.325 . S
O414 Li352 1.961 . S
O414 Li354 1.956 1_554 S
O414 Li355 1.970 1_554 S
O414 C384 1.325 . S
O415 Li353 1.961 1_556 S
O415 Li354 1.970 . S
O415 Li355 1.956 . S
O415 C390 1.325 . S
H416 C358 0.929 . S
H417 C359 0.930 . S
H418 C360 0.930 . S
H419 C361 0.930 . S
H420 C363 0.930 . S
H421 C365 0.929 . S
H422 C366 0.930 . S
H423 C367 0.930 . S
H424 C370 0.930 . S
H425 C373 0.929 . S
H426 C378 0.929 . S
H427 C379 0.930 . S
H428 C386 0.929 . S
H429 C387 0.930 . S
H430 C388 0.930 . S
H431 C389 0.930 1_655 S
H432 C391 0.929 . S
H433 C392 0.930 . S
H434 C393 0.930 . S
H435 C394 0.930 . S
H436 C398 0.929 . S
H437 C400 0.930 . S
H438 C406 0.929 . S
H439 C407 0.930 . S
Li440 N457 1.990 . S
Li440 O500 1.956 . S
Li440 O501 1.970 1_554 S
Li440 O502 1.961 1_554 S
Li441 N465 1.990 . S
Li441 O500 1.970 . S
Li441 O501 1.956 1_554 S
Li441 O503 1.961 . S
Li442 N487 1.990 . S
Li442 O500 1.961 1_556 S
Li442 O502 1.956 . S
Li442 O503 1.970 1_556 S
Li443 N493 1.990 . S
Li443 O501 1.961 . S
Li443 O502 1.970 . S
Li443 O503 1.956 1_556 S
C444 C446 1.348 . S
C444 C447 1.356 . S
C444 O500 1.325 . S
N445 C448 1.314 . S
N445 C449 1.279 . S
C446 C444 1.348 . S
C446 C448 1.353 . S
C446 H504 0.929 . S
C447 C444 1.356 . S
C447 C449 1.358 . S
C447 H505 0.930 . S
C448 N445 1.314 . S
C448 C446 1.353 . S
C448 H506 0.930 . S
C449 N445 1.279 . S
C449 C447 1.358 . S
C449 H507 0.930 . S
C450 C453 1.348 1_556 S
C450 C454 1.356 . S
C450 O501 1.325 . S
C451 N452 1.279 1_556 S
C451 C454 1.358 1_565 S
C451 H508 0.930 . S
N452 C451 1.279 1_554 S
N452 C455 1.314 1_565 S
C453 C450 1.348 1_554 S
C453 C455 1.353 . S
C453 H509 0.929 . S
C454 C450 1.356 . S
C454 C451 1.358 1_545 S
C454 H510 0.930 . S
C455 N452 1.314 1_545 S
C455 C453 1.353 . S
C455 H511 0.930 . S
C456 N457 1.314 1_556 S
C456 C461 1.353 . S
C456 H462 0.930 . S
N457 Li440 1.990 . S
N457 C456 1.314 1_554 S
N457 C459 1.279 . S
C458 C459 1.358 . S
C458 C460 1.359 . S
C458 H512 0.930 . S
C459 N457 1.279 . S
C459 C458 1.358 . S
C459 H463 0.930 . S
C460 C458 1.359 . S
C460 C461 1.345 1_554 S
C461 C456 1.353 . S
C461 C460 1.345 1_556 S
C461 H513 0.929 . S
H462 C456 0.930 . S
H463 C459 0.930 . S
C464 N465 1.314 . S
C464 C466 1.353 . S
C464 H470 0.930 . S
N465 Li441 1.990 . S
N465 C464 1.314 . S
N465 C468 1.279 . S
C466 C464 1.353 . S
C466 C469 1.348 . S
C466 H514 0.929 . S
C467 C468 1.358 . S
C467 C469 1.356 . S
C467 H515 0.930 . S
C468 N465 1.279 . S
C468 C467 1.358 . S
C468 H471 0.930 . S
C469 C466 1.348 . S
C469 C467 1.356 . S
H470 C464 0.930 . S
H471 C468 0.930 . S
C472 C474 1.348 . S
C472 C475 1.356 . S
C472 O502 1.325 . S
N473 C476 1.314 . S
N473 C477 1.279 . S
C474 C472 1.348 . S
C474 C476 1.353 . S
C474 H516 0.929 . S
C475 C472 1.356 . S
C475 C477 1.358 . S
C475 H517 0.930 . S
C476 N473 1.314 . S
C476 C474 1.353 . S
C476 H518 0.930 . S
C477 N473 1.279 . S
C477 C475 1.358 . S
C477 H519 0.930 . S
C478 C479 1.346 1_554 S
C478 C480 1.357 . S
C478 O503 1.325 . S
C479 C478 1.346 1_556 S
C479 C481 1.353 1_655 S
C479 H520 0.929 . S
C480 C478 1.357 . S
C480 C482 1.358 . S
C480 H521 0.930 . S
C481 C479 1.353 1_455 S
C481 N483 1.314 . S
C481 H522 0.930 . S
C482 C480 1.358 . S
C482 N483 1.279 1_654 S
C482 H523 0.930 1_655 S
N483 C481 1.314 . S
N483 C482 1.279 1_456 S
C484 C486 1.353 . S
C484 N487 1.314 1_554 S
C484 H490 0.930 . S
C485 N487 1.279 . S
C485 C488 1.358 . S
C485 H491 0.930 . S
C486 C484 1.353 . S
C486 C489 1.350 1_554 S
C486 H524 0.929 . S
N487 Li442 1.990 . S
N487 C484 1.314 1_556 S
N487 C485 1.279 . S
C488 C485 1.358 . S
C488 C489 1.354 . S
C488 H525 0.930 . S
C489 C486 1.350 1_556 S
C489 C488 1.354 . S
H490 C484 0.930 . S
H491 C485 0.930 . S
C492 N493 1.314 . S
C492 C494 1.353 . S
C492 H498 0.930 . S
N493 Li443 1.990 . S
N493 C492 1.314 . S
N493 C496 1.279 . S
C494 C492 1.353 . S
C494 C497 1.348 . S
C494 H526 0.929 . S
C495 C496 1.358 . S
C495 C497 1.356 . S
C495 H527 0.930 . S
C496 N493 1.279 . S
C496 C495 1.358 . S
C496 H499 0.930 . S
C497 C494 1.348 . S
C497 C495 1.356 . S
H498 C492 0.930 . S
H499 C496 0.930 . S
O500 Li440 1.956 . S
O500 Li441 1.970 . S
O500 Li442 1.961 1_554 S
O500 C444 1.325 . S
O501 Li440 1.970 1_556 S
O501 Li441 1.956 1_556 S
O501 Li443 1.961 . S
O501 C450 1.325 . S
O502 Li440 1.961 1_556 S
O502 Li442 1.956 . S
O502 Li443 1.970 . S
O502 C472 1.325 . S
O503 Li441 1.961 . S
O503 Li442 1.970 1_554 S
O503 Li443 1.956 1_554 S
O503 C478 1.325 . S
H504 C446 0.929 . S
H505 C447 0.930 . S
H506 C448 0.930 . S
H507 C449 0.930 . S
H508 C451 0.930 . S
H509 C453 0.929 . S
H510 C454 0.930 . S
H511 C455 0.930 . S
H512 C458 0.930 . S
H513 C461 0.929 . S
H514 C466 0.929 . S
H515 C467 0.930 . S
H516 C474 0.929 . S
H517 C475 0.930 . S
H518 C476 0.930 . S
H519 C477 0.930 . S
H520 C479 0.929 . S
H521 C480 0.930 . S
H522 C481 0.930 . S
H523 C482 0.930 1_455 S
H524 C486 0.929 . S
H525 C488 0.930 . S
H526 C494 0.929 . S
H527 C495 0.930 . S
Li528 N545 1.990 . S
Li528 O588 1.956 . S
Li528 O589 1.970 . S
Li528 O590 1.961 . S
Li529 N553 1.990 . S
Li529 O588 1.970 . S
Li529 O589 1.956 . S
Li529 O591 1.961 . S
Li530 N575 1.990 . S
Li530 O588 1.961 . S
Li530 O590 1.956 . S
Li530 O591 1.970 . S
Li531 N581 1.990 . S
Li531 O589 1.961 . S
Li531 O590 1.970 . S
Li531 O591 1.956 . S
C532 C534 1.348 . S
C532 C535 1.356 . S
C532 O588 1.325 . S
N533 C536 1.314 . S
N533 C537 1.279 . S
C534 C532 1.348 . S
C534 C536 1.353 . S
C534 H592 0.929 . S
C535 C532 1.356 . S
C535 C537 1.358 . S
C535 H593 0.930 . S
C536 N533 1.314 . S
C536 C534 1.353 . S
C536 H594 0.930 . S
C537 N533 1.279 . S
C537 C535 1.358 . S
C537 H595 0.930 . S
C538 C541 1.348 . S
C538 C542 1.356 . S
C538 O589 1.325 . S
C539 N540 1.279 1_455 S
C539 C542 1.358 . S
C539 H596 0.930 1_455 S
N540 C539 1.279 1_655 S
N540 C543 1.314 . S
C541 C538 1.348 . S
C541 C543 1.353 1_455 S
C541 H597 0.929 . S
C542 C538 1.356 . S
C542 C539 1.358 . S
C542 H598 0.930 . S
C543 N540 1.314 . S
C543 C541 1.353 1_655 S
C543 H599 0.930 . S
C544 N545 1.314 . S
C544 C549 1.353 . S
C544 H550 0.930 . S
N545 Li528 1.990 . S
N545 C544 1.314 . S
N545 C547 1.279 . S
C546 C547 1.358 . S
C546 C548 1.356 . S
C546 H600 0.930 . S
C547 N545 1.279 . S
C547 C546 1.358 . S
C547 H551 0.930 . S
C548 C546 1.356 . S
C548 C549 1.348 . S
C549 C544 1.353 . S
C549 C548 1.348 . S
C549 H601 0.929 . S
H550 C544 0.930 . S
H551 C547 0.930 . S
C552 N553 1.314 . S
C552 C554 1.353 . S
C552 H558 0.930 . S
N553 Li529 1.990 . S
N553 C552 1.314 . S
N553 C556 1.279 . S
C554 C552 1.353 . S
C554 C557 1.348 . S
C554 H602 0.929 . S
C555 C556 1.358 . S
C555 C557 1.356 . S
C555 H603 0.930 . S
C556 N553 1.279 . S
C556 C555 1.358 . S
C556 H559 0.930 . S
C557 C554 1.348 . S
C557 C555 1.356 . S
H558 C552 0.930 . S
H559 C556 0.930 . S
C560 C562 1.348 . S
C560 C563 1.356 . S
C560 O590 1.325 . S
N561 C564 1.314 . S
N561 C565 1.279 . S
C562 C560 1.348 . S
C562 C564 1.353 . S
C562 H604 0.929 . S
C563 C560 1.356 . S
C563 C565 1.358 . S
C563 H605 0.930 . S
C564 N561 1.314 . S
C564 C562 1.353 . S
C564 H606 0.930 . S
C565 N561 1.279 . S
C565 C563 1.358 . S
C565 H607 0.930 . S
C566 C567 1.348 . S
C566 C568 1.356 . S
C566 O591 1.325 . S
C567 C566 1.348 . S
C567 C569 1.353 . S
C567 H608 0.929 . S
C568 C566 1.356 . S
C568 C570 1.358 1_545 S
C568 H609 0.930 . S
C569 C567 1.353 . S
C569 N571 1.314 1_545 S
C569 H610 0.930 . S
C570 C568 1.358 1_565 S
C570 N571 1.279 . S
C570 H611 0.930 . S
N571 C569 1.314 1_565 S
N571 C570 1.279 . S
C572 C574 1.353 . S
C572 N575 1.314 . S
C572 H578 0.930 . S
C573 N575 1.279 . S
C573 C576 1.358 . S
C573 H579 0.930 . S
C574 C572 1.353 . S
C574 C577 1.348 . S
C574 H612 0.929 . S
N575 Li530 1.990 . S
N575 C572 1.314 . S
N575 C573 1.279 . S
C576 C573 1.358 . S
C576 C577 1.356 . S
C576 H613 0.930 . S
C577 C574 1.348 . S
C577 C576 1.356 . S
H578 C572 0.930 . S
H579 C573 0.930 . S
C580 N581 1.314 . S
C580 C582 1.353 . S
C580 H586 0.930 . S
N581 Li531 1.990 . S
N581 C580 1.314 . S
N581 C584 1.279 . S
C582 C580 1.353 . S
C582 C585 1.348 . S
C582 H614 0.929 . S
C583 C584 1.358 . S
C583 C585 1.356 . S
C583 H615 0.930 . S
C584 N581 1.279 . S
C584 C583 1.358 . S
C584 H587 0.930 . S
C585 C582 1.348 . S
C585 C583 1.356 . S
H586 C580 0.930 . S
H587 C584 0.930 . S
O588 Li528 1.956 . S
O588 Li529 1.970 . S
O588 Li530 1.961 . S
O588 C532 1.325 . S
O589 Li528 1.970 . S
O589 Li529 1.956 . S
O589 Li531 1.961 . S
O589 C538 1.325 . S
O590 Li528 1.961 . S
O590 Li530 1.956 . S
O590 Li531 1.970 . S
O590 C560 1.325 . S
O591 Li529 1.961 . S
O591 Li530 1.970 . S
O591 Li531 1.956 . S
O591 C566 1.325 . S
H592 C534 0.929 . S
H593 C535 0.930 . S
H594 C536 0.930 . S
H595 C537 0.930 . S
H596 C539 0.930 1_655 S
H597 C541 0.929 . S
H598 C542 0.930 . S
H599 C543 0.930 . S
H600 C546 0.930 . S
H601 C549 0.929 . S
H602 C554 0.929 . S
H603 C555 0.930 . S
H604 C562 0.929 . S
H605 C563 0.930 . S
H606 C564 0.930 . S
H607 C565 0.930 . S
H608 C567 0.929 . S
H609 C568 0.930 . S
H610 C569 0.930 . S
H611 C570 0.930 . S
H612 C574 0.929 . S
H613 C576 0.930 . S
H614 C582 0.929 . S
H615 C583 0.930 . S
Li616 N633 1.990 . S
Li616 O676 1.956 . S
Li616 O677 1.970 . S
Li616 O678 1.961 . S
Li617 N641 1.990 . S
Li617 O676 1.970 . S
Li617 O677 1.956 . S
Li617 O679 1.961 . S
Li618 N663 1.990 . S
Li618 O676 1.961 . S
Li618 O678 1.956 . S
Li618 O679 1.970 . S
Li619 N669 1.990 . S
Li619 O677 1.961 . S
Li619 O678 1.970 . S
Li619 O679 1.956 . S
C620 C622 1.348 . S
C620 C623 1.356 . S
C620 O676 1.325 . S
N621 C624 1.314 . S
N621 C625 1.279 1_455 S
C622 C620 1.348 . S
C622 C624 1.353 1_655 S
C622 H680 0.929 . S
C623 C620 1.356 . S
C623 C625 1.358 . S
C623 H681 0.930 . S
C624 N621 1.314 . S
C624 C622 1.353 1_455 S
C624 H682 0.930 . S
C625 N621 1.279 1_655 S
C625 C623 1.358 . S
C625 H683 0.930 1_655 S
C626 C629 1.348 . S
C626 C630 1.356 . S
C626 O677 1.325 . S
C627 N628 1.279 . S
C627 C630 1.358 . S
C627 H684 0.930 . S
N628 C627 1.279 . S
N628 C631 1.314 . S
C629 C626 1.348 . S
C629 C631 1.353 . S
C629 H685 0.929 . S
C630 C626 1.356 . S
C630 C627 1.358 . S
C630 H686 0.930 . S
C631 N628 1.314 . S
C631 C629 1.353 . S
C631 H687 0.930 . S
C632 N633 1.314 . S
C632 C637 1.353 . S
C632 H638 0.930 . S
N633 Li616 1.990 . S
N633 C632 1.314 . S
N633 C635 1.279 . S
C634 C635 1.358 . S
C634 C636 1.356 . S
C634 H688 0.930 . S
C635 N633 1.279 . S
C635 C634 1.358 . S
C635 H639 0.930 . S
C636 C634 1.356 . S
C636 C637 1.348 . S
C637 C632 1.353 . S
C637 C636 1.348 . S
C637 H689 0.929 . S
H638 C632 0.930 . S
H639 C635 0.930 . S
C640 N641 1.314 . S
C640 C642 1.353 . S
C640 H646 0.930 . S
N641 Li617 1.990 . S
N641 C640 1.314 . S
N641 C644 1.279 . S
C642 C640 1.353 . S
C642 C645 1.348 . S
C642 H690 0.929 . S
C643 C644 1.358 . S
C643 C645 1.356 . S
C643 H691 0.930 . S
C644 N641 1.279 . S
C644 C643 1.358 . S
C644 H647 0.930 . S
C645 C642 1.348 . S
C645 C643 1.356 . S
H646 C640 0.930 . S
H647 C644 0.930 . S
C648 C650 1.348 . S
C648 C651 1.356 . S
C648 O678 1.325 . S
N649 C652 1.314 1_545 S
N649 C653 1.279 . S
C650 C648 1.348 . S
C650 C652 1.353 . S
C650 H692 0.929 . S
C651 C648 1.356 . S
C651 C653 1.358 1_565 S
C651 H693 0.930 . S
C652 N649 1.314 1_565 S
C652 C650 1.353 . S
C652 H694 0.930 . S
C653 N649 1.279 . S
C653 C651 1.358 1_545 S
C653 H695 0.930 . S
C654 C655 1.348 . S
C654 C656 1.356 . S
C654 O679 1.325 . S
C655 C654 1.348 . S
C655 C657 1.353 . S
C655 H696 0.929 . S
C656 C654 1.356 . S
C656 C658 1.358 . S
C656 H697 0.930 . S
C657 C655 1.353 . S
C657 N659 1.314 . S
C657 H698 0.930 . S
C658 C656 1.358 . S
C658 N659 1.279 . S
C658 H699 0.930 . S
N659 C657 1.314 . S
N659 C658 1.279 . S
C660 C662 1.353 . S
C660 N663 1.314 . S
C660 H666 0.930 . S
C661 N663 1.279 . S
C661 C664 1.358 . S
C661 H667 0.930 . S
C662 C660 1.353 . S
C662 C665 1.348 . S
C662 H700 0.929 . S
N663 Li618 1.990 . S
N663 C660 1.314 . S
N663 C661 1.279 . S
C664 C661 1.358 . S
C664 C665 1.356 . S
C664 H701 0.930 . S
C665 C662 1.348 . S
C665 C664 1.356 . S
H666 C660 0.930 . S
H667 C661 0.930 . S
C668 N669 1.314 . S
C668 C670 1.353 . S
C668 H674 0.930 . S
N669 Li619 1.990 . S
N669 C668 1.314 . S
N669 C672 1.279 . S
C670 C668 1.353 . S
C670 C673 1.348 . S
C670 H702 0.929 . S
C671 C672 1.358 . S
C671 C673 1.356 . S
C671 H703 0.930 . S
C672 N669 1.279 . S
C672 C671 1.358 . S
C672 H675 0.930 . S
C673 C670 1.348 . S
C673 C671 1.356 . S
H674 C668 0.930 . S
H675 C672 0.930 . S
O676 Li616 1.956 . S
O676 Li617 1.970 . S
O676 Li618 1.961 . S
O676 C620 1.325 . S
O677 Li616 1.970 . S
O677 Li617 1.956 . S
O677 Li619 1.961 . S
O677 C626 1.325 . S
O678 Li616 1.961 . S
O678 Li618 1.956 . S
O678 Li619 1.970 . S
O678 C648 1.325 . S
O679 Li617 1.961 . S
O679 Li618 1.970 . S
O679 Li619 1.956 . S
O679 C654 1.325 . S
H680 C622 0.929 . S
H681 C623 0.930 . S
H682 C624 0.930 . S
H683 C625 0.930 1_455 S
H684 C627 0.930 . S
H685 C629 0.929 . S
H686 C630 0.930 . S
H687 C631 0.930 . S
H688 C634 0.930 . S
H689 C637 0.929 . S
H690 C642 0.929 . S
H691 C643 0.930 . S
H692 C650 0.929 . S
H693 C651 0.930 . S
H694 C652 0.930 . S
H695 C653 0.930 . S
H696 C655 0.929 . S
H697 C656 0.930 . S
H698 C657 0.930 . S
H699 C658 0.930 . S
H700 C662 0.929 . S
H701 C664 0.930 . S
H702 C670 0.929 . S
H703 C671 0.930 . S
C704 C705 1.367 1_554 S
C704 C706 1.419 . S
C704 H708 0.930 . S
C705 C704 1.367 1_556 S
C705 C714 1.431 . S
C706 C704 1.419 . S
C706 C707 1.361 1_554 S
C706 H709 0.929 . S
C707 C706 1.361 1_556 S
C707 C713 1.430 . S
H708 C704 0.930 . S
H709 C706 0.929 . S
S710 N711 1.613 . S
S710 N712 1.610 . S
N711 S710 1.613 . S
N711 C714 1.350 . S
N712 S710 1.610 . S
N712 C713 1.351 . S
C713 C707 1.430 . S
C713 N712 1.351 . S
C713 C714 1.434 . S
C714 C705 1.431 . S
C714 N711 1.350 . S
C714 C713 1.434 . S
C715 C716 1.369 1_556 S
C715 C717 1.419 . S
C715 H719 0.930 . S
C716 C715 1.369 1_554 S
C716 C725 1.429 . S
C717 C715 1.419 . S
C717 C718 1.363 1_556 S
C717 H720 0.929 . S
C718 C717 1.363 1_554 S
C718 C724 1.428 . S
H719 C715 0.930 . S
H720 C717 0.929 . S
S721 N722 1.613 . S
S721 N723 1.610 . S
N722 S721 1.613 . S
N722 C725 1.350 . S
N723 S721 1.610 . S
N723 C724 1.351 . S
C724 C718 1.428 . S
C724 N723 1.351 . S
C724 C725 1.434 . S
C725 C716 1.429 . S
C725 N722 1.350 . S
C725 C724 1.434 . S
C726 C727 1.369 . S
C726 C728 1.419 . S
C726 H730 0.930 . S
C727 C726 1.369 . S
C727 C736 1.429 . S
C728 C726 1.419 . S
C728 C729 1.363 . S
C728 H731 0.929 . S
C729 C728 1.363 . S
C729 C735 1.428 . S
H730 C726 0.930 . S
H731 C728 0.929 . S
S732 N733 1.613 . S
S732 N734 1.610 . S
N733 S732 1.613 . S
N733 C736 1.350 . S
N734 S732 1.610 . S
N734 C735 1.351 . S
C735 C729 1.428 . S
C735 N734 1.351 . S
C735 C736 1.434 . S
C736 C727 1.429 . S
C736 N733 1.350 . S
C736 C735 1.434 . S
C737 C738 1.369 . S
C737 C739 1.419 . S
C737 H741 0.930 . S
C738 C737 1.369 . S
C738 C747 1.429 . S
C739 C737 1.419 . S
C739 C740 1.363 . S
C739 H742 0.929 . S
C740 C739 1.363 . S
C740 C746 1.428 . S
H741 C737 0.930 . S
H742 C739 0.929 . S
S743 N744 1.613 . S
S743 N745 1.610 . S
N744 S743 1.613 . S
N744 C747 1.350 . S
N745 S743 1.610 . S
N745 C746 1.351 . S
C746 C740 1.428 . S
C746 N745 1.351 . S
C746 C747 1.434 . S
C747 C738 1.429 . S
C747 N744 1.350 . S
C747 C746 1.434 . S
C748 C749 1.369 . S
C748 C750 1.419 . S
C748 H752 0.930 . S
C749 C748 1.369 . S
C749 C758 1.429 . S
C750 C748 1.419 . S
C750 C751 1.363 . S
C750 H753 0.929 . S
C751 C750 1.363 . S
C751 C757 1.428 . S
H752 C748 0.930 . S
H753 C750 0.929 . S
S754 N755 1.613 . S
S754 N756 1.610 . S
N755 S754 1.613 . S
N755 C758 1.350 . S
N756 S754 1.610 . S
N756 C757 1.351 . S
C757 C751 1.428 . S
C757 N756 1.351 . S
C757 C758 1.434 . S
C758 C749 1.429 . S
C758 N755 1.350 . S
C758 C757 1.434 . S
C759 C760 1.369 . S
C759 C761 1.419 . S
C759 H763 0.930 . S
C760 C759 1.369 . S
C760 C769 1.429 . S
C761 C759 1.419 . S
C761 C762 1.363 . S
C761 H764 0.929 . S
C762 C761 1.363 . S
C762 C768 1.428 . S
H763 C759 0.930 . S
H764 C761 0.929 . S
S765 N766 1.613 . S
S765 N767 1.610 . S
N766 S765 1.613 . S
N766 C769 1.350 . S
N767 S765 1.610 . S
N767 C768 1.351 . S
C768 C762 1.428 . S
C768 N767 1.351 . S
C768 C769 1.434 . S
C769 C760 1.429 . S
C769 N766 1.350 . S
C769 C768 1.434 . S
C770 C771 1.369 . S
C770 C772 1.419 . S
C770 H774 0.930 . S
C771 C770 1.369 . S
C771 C780 1.429 . S
C772 C770 1.419 . S
C772 C773 1.363 . S
C772 H775 0.929 . S
C773 C772 1.363 . S
C773 C779 1.428 . S
H774 C770 0.930 . S
H775 C772 0.929 . S
S776 N777 1.613 . S
S776 N778 1.610 . S
N777 S776 1.613 . S
N777 C780 1.350 . S
N778 S776 1.610 . S
N778 C779 1.351 . S
C779 C773 1.428 . S
C779 N778 1.351 . S
C779 C780 1.434 . S
C780 C771 1.429 . S
C780 N777 1.350 . S
C780 C779 1.434 . S
C781 C782 1.369 . S
C781 C783 1.419 . S
C781 H785 0.930 . S
C782 C781 1.369 . S
C782 C791 1.429 . S
C783 C781 1.419 . S
C783 C784 1.363 . S
C783 H786 0.929 . S
C784 C783 1.363 . S
C784 C790 1.428 . S
H785 C781 0.930 . S
H786 C783 0.929 . S
S787 N788 1.613 . S
S787 N789 1.610 . S
N788 S787 1.613 . S
N788 C791 1.350 . S
N789 S787 1.610 . S
N789 C790 1.351 . S
C790 C784 1.428 . S
C790 N789 1.351 . S
C790 C791 1.434 . S
C791 C782 1.429 . S
C791 N788 1.350 . S
C791 C790 1.434 . S
C792 C793 1.369 1_545 S
C792 C794 1.419 . S
C792 H796 0.930 . S
C793 C792 1.369 1_565 S
C793 C802 1.429 . S
C794 C792 1.419 . S
C794 C795 1.363 . S
C794 H797 0.929 . S
C795 C794 1.363 . S
C795 C801 1.428 1_545 S
H796 C792 0.930 . S
H797 C794 0.929 . S
S798 N799 1.613 . S
S798 N800 1.610 . S
N799 S798 1.613 . S
N799 C802 1.350 . S
N800 S798 1.610 . S
N800 C801 1.351 . S
C801 C795 1.428 1_565 S
C801 N800 1.351 . S
C801 C802 1.434 . S
C802 C793 1.429 . S
C802 N799 1.350 . S
C802 C801 1.434 . S
C803 C804 1.369 1_545 S
C803 C805 1.419 . S
C803 H807 0.930 . S
C804 C803 1.369 1_565 S
C804 C813 1.429 . S
C805 C803 1.419 . S
C805 C806 1.363 . S
C805 H808 0.929 . S
C806 C805 1.363 . S
C806 C812 1.428 1_545 S
H807 C803 0.930 . S
H808 C805 0.929 . S
S809 N810 1.613 . S
S809 N811 1.610 . S
N810 S809 1.613 . S
N810 C813 1.350 . S
N811 S809 1.610 . S
N811 C812 1.351 . S
C812 C806 1.428 1_565 S
C812 N811 1.351 . S
C812 C813 1.434 . S
C813 C804 1.429 . S
C813 N810 1.350 . S
C813 C812 1.434 . S
C814 C815 1.369 . S
C814 C816 1.412 1_565 S
C814 H818 0.930 . S
C815 C814 1.369 . S
C815 C824 1.429 . S
C816 C814 1.412 1_545 S
C816 C817 1.370 . S
C816 H819 0.929 . S
C817 C816 1.370 . S
C817 C823 1.428 . S
H818 C814 0.930 . S
H819 C816 0.929 . S
S820 N821 1.613 1_445 S
S820 N822 1.610 1_455 S
N821 S820 1.613 1_665 S
N821 C824 1.350 . S
N822 S820 1.610 1_655 S
N822 C823 1.351 . S
C823 C817 1.428 . S
C823 N822 1.351 . S
C823 C824 1.434 1_545 S
C824 C815 1.429 . S
C824 N821 1.350 . S
C824 C823 1.434 1_565 S
C825 C826 1.369 . S
C825 C827 1.419 . S
C825 H829 0.930 . S
C826 C825 1.369 . S
C826 C835 1.429 1_565 S
C827 C825 1.419 . S
C827 C828 1.363 1_565 S
C827 H830 0.929 . S
C828 C827 1.363 1_545 S
C828 C834 1.428 . S
H829 C825 0.930 . S
H830 C827 0.929 . S
S831 N832 1.613 . S
S831 N833 1.610 . S
N832 S831 1.613 . S
N832 C835 1.350 . S
N833 S831 1.610 . S
N833 C834 1.351 . S
C834 C828 1.428 . S
C834 N833 1.351 . S
C834 C835 1.434 . S
C835 C826 1.429 1_545 S
C835 N832 1.350 . S
C835 C834 1.434 . S
C836 C837 1.361 1_556 S
C836 C838 1.419 1_565 S
C836 H840 0.930 . S
C837 C836 1.361 1_554 S
C837 C846 1.437 . S
C838 C836 1.419 1_545 S
C838 C839 1.357 1_556 S
C838 H841 0.929 . S
C839 C838 1.357 1_554 S
C839 C845 1.435 . S
H840 C836 0.930 . S
H841 C838 0.929 . S
S842 N843 1.613 . S
S842 N844 1.610 1_565 S
N843 S842 1.613 . S
N843 C846 1.350 . S
N844 S842 1.610 1_545 S
N844 C845 1.351 . S
C845 C839 1.435 . S
C845 N844 1.351 . S
C845 C846 1.434 1_545 S
C846 C837 1.437 . S
C846 N843 1.350 . S
C846 C845 1.434 1_565 S
C847 C848 1.369 . S
C847 C849 1.419 1_565 S
C847 H851 0.930 . S
C848 C847 1.369 . S
C848 C857 1.429 . S
C849 C847 1.419 1_545 S
C849 C850 1.363 . S
C849 H852 0.929 . S
C850 C849 1.363 . S
C850 C856 1.428 . S
H851 C847 0.930 . S
H852 C849 0.929 . S
S853 N854 1.613 . S
S853 N855 1.610 1_565 S
N854 S853 1.613 . S
N854 C857 1.350 . S
N855 S853 1.610 1_545 S
N855 C856 1.351 . S
C856 C850 1.428 . S
C856 N855 1.351 . S
C856 C857 1.434 1_545 S
C857 C848 1.429 . S
C857 N854 1.350 . S
C857 C856 1.434 1_565 S
C858 C859 1.368 1_654 S
C858 C860 1.419 . S
C858 H862 0.930 . S
C859 C858 1.368 1_456 S
C859 C868 1.429 . S
C860 C858 1.419 . S
C860 C861 1.364 1_554 S
C860 H863 0.929 . S
C861 C860 1.364 1_556 S
C861 C867 1.427 1_655 S
H862 C858 0.930 . S
H863 C860 0.929 . S
S864 N865 1.613 . S
S864 N866 1.610 . S
N865 S864 1.613 . S
N865 C868 1.350 . S
N866 S864 1.610 . S
N866 C867 1.351 . S
C867 C861 1.427 1_455 S
C867 N866 1.351 . S
C867 C868 1.434 . S
C868 C859 1.429 . S
C868 N865 1.350 . S
C868 C867 1.434 . S
C869 C870 1.369 1_655 S
C869 C871 1.419 . S
C869 H873 0.930 . S
C870 C869 1.369 1_455 S
C870 C879 1.429 . S
C871 C869 1.419 . S
C871 C872 1.363 . S
C871 H874 0.929 . S
C872 C871 1.363 . S
C872 C878 1.428 1_655 S
H873 C869 0.930 . S
H874 C871 0.929 . S
S875 N876 1.613 . S
S875 N877 1.610 . S
N876 S875 1.613 . S
N876 C879 1.350 . S
N877 S875 1.610 . S
N877 C878 1.351 . S
C878 C872 1.428 1_455 S
C878 N877 1.351 . S
C878 C879 1.434 . S
C879 C870 1.429 . S
C879 N876 1.350 . S
C879 C878 1.434 . S
C705 C460 1.597 1_556 S
C707 C29 1.601 1_556 S
C716 C381 1.601 . S
C718 C108 1.597 . S
C727 C673 1.601 . S
C729 C225 1.597 . S
C738 C577 1.597 . S
C740 C321 1.601 . S
C749 C20 1.401 . S
C751 C233 1.397 . S
C760 C117 1.401 . S
C762 C313 1.400 . S
C771 C145 1.400 . S
C773 C284 1.405 . S
C782 C49 1.399 . S
C784 C205 1.403 . S
C793 C372 1.401 . S
C795 C585 1.400 . S
C804 C665 1.400 . S
C806 C469 1.400 . S
C815 C636 1.402 . S
C817 C497 1.405 . S
C826 C401 1.402 . S
C828 C557 1.402 . S
C837 C137 1.625 1_554 S
C839 C57 1.621 1_554 S
C848 C196 1.623 . S
C850 C293 1.623 . S
C859 C409 1.621 . S
C861 C489 1.625 . S
C870 C548 1.621 . S
C872 C645 1.625 . S
