# Generated by pormake.
# Topology xfh, (7)-cn, num edge types: 1
# Building blocks:
#     Node 0, Type 0, BuildingBlock: NUHQUE_clean_sbu_2, # of connection points: 7
#     Node 1, Type 0, BuildingBlock: NUHQUE_clean_sbu_2, # of connection points: 7
#     Node 2, Type 0, BuildingBlock: NUHQUE_clean_sbu_2, # of connection points: 7
#     Node 3, Type 0, BuildingBlock: NUHQUE_clean_sbu_2, # of connection points: 7
#     Node 4, Type 0, BuildingBlock: NUHQUE_clean_sbu_2, # of connection points: 7
#     Node 5, Type 0, BuildingBlock: NUHQUE_clean_sbu_2, # of connection points: 7
#     Node 6, Type 0, BuildingBlock: NUHQUE_clean_sbu_2, # of connection points: 7
#     Node 7, Type 0, BuildingBlock: NUHQUE_clean_sbu_2, # of connection points: 7
#     Node 8, Type 0, BuildingBlock: NUHQUE_clean_sbu_2, # of connection points: 7
#     Node 9, Type 0, BuildingBlock: NUHQUE_clean_sbu_2, # of connection points: 7
#     Node 10, Type 0, BuildingBlock: NUHQUE_clean_sbu_2, # of connection points: 7
#     Node 11, Type 0, BuildingBlock: NUHQUE_clean_sbu_2, # of connection points: 7
#     Node 12, Type 0, BuildingBlock: NUHQUE_clean_sbu_2, # of connection points: 7
#     Node 13, Type 0, BuildingBlock: NUHQUE_clean_sbu_2, # of connection points: 7
#     Node 14, Type 0, BuildingBlock: NUHQUE_clean_sbu_2, # of connection points: 7
#     Node 15, Type 0, BuildingBlock: NUHQUE_clean_sbu_2, # of connection points: 7
#     Edge 16, Type (0, 0), BuildingBlock: XIVTED_clean_linker_0, # of connection points: 2
#     Edge 17, Type (0, 0), BuildingBlock: XIVTED_clean_linker_0, # of connection points: 2
#     Edge 18, Type (0, 0), BuildingBlock: XIVTED_clean_linker_0, # of connection points: 2
#     Edge 19, Type (0, 0), BuildingBlock: XIVTED_clean_linker_0, # of connection points: 2
#     Edge 20, Type (0, 0), BuildingBlock: XIVTED_clean_linker_0, # of connection points: 2
#     Edge 21, Type (0, 0), BuildingBlock: XIVTED_clean_linker_0, # of connection points: 2
#     Edge 22, Type (0, 0), BuildingBlock: XIVTED_clean_linker_0, # of connection points: 2
#     Edge 23, Type (0, 0), BuildingBlock: XIVTED_clean_linker_0, # of connection points: 2
#     Edge 24, Type (0, 0), BuildingBlock: XIVTED_clean_linker_0, # of connection points: 2
#     Edge 25, Type (0, 0), BuildingBlock: XIVTED_clean_linker_0, # of connection points: 2
#     Edge 26, Type (0, 0), BuildingBlock: XIVTED_clean_linker_0, # of connection points: 2
#     Edge 27, Type (0, 0), BuildingBlock: XIVTED_clean_linker_0, # of connection points: 2
#     Edge 28, Type (0, 0), BuildingBlock: XIVTED_clean_linker_0, # of connection points: 2
#     Edge 29, Type (0, 0), BuildingBlock: XIVTED_clean_linker_0, # of connection points: 2
#     Edge 30, Type (0, 0), BuildingBlock: XIVTED_clean_linker_0, # of connection points: 2
#     Edge 31, Type (0, 0), BuildingBlock: XIVTED_clean_linker_0, # of connection points: 2
#     Edge 32, Type (0, 0), BuildingBlock: XIVTED_clean_linker_0, # of connection points: 2
#     Edge 33, Type (0, 0), BuildingBlock: XIVTED_clean_linker_0, # of connection points: 2
#     Edge 34, Type (0, 0), BuildingBlock: XIVTED_clean_linker_0, # of connection points: 2
#     Edge 35, Type (0, 0), BuildingBlock: XIVTED_clean_linker_0, # of connection points: 2
#     Edge 36, Type (0, 0), BuildingBlock: XIVTED_clean_linker_0, # of connection points: 2
#     Edge 37, Type (0, 0), BuildingBlock: XIVTED_clean_linker_0, # of connection points: 2
#     Edge 38, Type (0, 0), BuildingBlock: XIVTED_clean_linker_0, # of connection points: 2
#     Edge 39, Type (0, 0), BuildingBlock: XIVTED_clean_linker_0, # of connection points: 2
#     Edge 40, Type (0, 0), BuildingBlock: XIVTED_clean_linker_0, # of connection points: 2
#     Edge 41, Type (0, 0), BuildingBlock: XIVTED_clean_linker_0, # of connection points: 2
#     Edge 42, Type (0, 0), BuildingBlock: XIVTED_clean_linker_0, # of connection points: 2
#     Edge 43, Type (0, 0), BuildingBlock: XIVTED_clean_linker_0, # of connection points: 2
#     Edge 44, Type (0, 0), BuildingBlock: XIVTED_clean_linker_0, # of connection points: 2
#     Edge 45, Type (0, 0), BuildingBlock: XIVTED_clean_linker_0, # of connection points: 2
#     Edge 46, Type (0, 0), BuildingBlock: XIVTED_clean_linker_0, # of connection points: 2
#     Edge 47, Type (0, 0), BuildingBlock: XIVTED_clean_linker_0, # of connection points: 2
#     Edge 48, Type (0, 0), BuildingBlock: XIVTED_clean_linker_0, # of connection points: 2
#     Edge 49, Type (0, 0), BuildingBlock: XIVTED_clean_linker_0, # of connection points: 2
#     Edge 50, Type (0, 0), BuildingBlock: XIVTED_clean_linker_0, # of connection points: 2
#     Edge 51, Type (0, 0), BuildingBlock: XIVTED_clean_linker_0, # of connection points: 2
#     Edge 52, Type (0, 0), BuildingBlock: XIVTED_clean_linker_0, # of connection points: 2
#     Edge 53, Type (0, 0), BuildingBlock: XIVTED_clean_linker_0, # of connection points: 2
#     Edge 54, Type (0, 0), BuildingBlock: XIVTED_clean_linker_0, # of connection points: 2
#     Edge 55, Type (0, 0), BuildingBlock: XIVTED_clean_linker_0, # of connection points: 2
#     Edge 56, Type (0, 0), BuildingBlock: XIVTED_clean_linker_0, # of connection points: 2
#     Edge 57, Type (0, 0), BuildingBlock: XIVTED_clean_linker_0, # of connection points: 2
#     Edge 58, Type (0, 0), BuildingBlock: XIVTED_clean_linker_0, # of connection points: 2
#     Edge 59, Type (0, 0), BuildingBlock: XIVTED_clean_linker_0, # of connection points: 2
#     Edge 60, Type (0, 0), BuildingBlock: XIVTED_clean_linker_0, # of connection points: 2
#     Edge 61, Type (0, 0), BuildingBlock: XIVTED_clean_linker_0, # of connection points: 2
#     Edge 62, Type (0, 0), BuildingBlock: XIVTED_clean_linker_0, # of connection points: 2
#     Edge 63, Type (0, 0), BuildingBlock: XIVTED_clean_linker_0, # of connection points: 2
#     Edge 64, Type (0, 0), BuildingBlock: XIVTED_clean_linker_0, # of connection points: 2
#     Edge 65, Type (0, 0), BuildingBlock: XIVTED_clean_linker_0, # of connection points: 2
#     Edge 66, Type (0, 0), BuildingBlock: XIVTED_clean_linker_0, # of connection points: 2
#     Edge 67, Type (0, 0), BuildingBlock: XIVTED_clean_linker_0, # of connection points: 2
#     Edge 68, Type (0, 0), BuildingBlock: XIVTED_clean_linker_0, # of connection points: 2
#     Edge 69, Type (0, 0), BuildingBlock: XIVTED_clean_linker_0, # of connection points: 2
#     Edge 70, Type (0, 0), BuildingBlock: XIVTED_clean_linker_0, # of connection points: 2
#     Edge 71, Type (0, 0), BuildingBlock: XIVTED_clean_linker_0, # of connection points: 2
# Relax obj value: 0.263
# Max RMSD: 0.279
# Mean RMSD: 0.266
data_MOF--net-xfh--node1-NUHQUE_clean_sbu_2--edge1-XIVTED_clean_linker_0
_symmetry_space_group_name_H-M    P1
_symmetry_Int_Tables_number       1
_symmetry_cell_setting            triclinic
loop_
_symmetry_equiv_pos_as_xyz
'x, y, z'
_cell_length_a     35.173958
_cell_length_b     34.024693
_cell_length_c     69.593136
_cell_angle_alpha  90.282487
_cell_angle_beta   90.157842
_cell_angle_gamma 90.250462
loop_
_atom_site_label
_atom_site_type_symbol
_atom_site_fract_x
_atom_site_fract_y
_atom_site_fract_z
_atom_type_partial_charge
O0 O 0.22457 0.05824 0.06897 0.0
Tb1 Tb 0.21282 0.07 0.09902 0.0
Eu2 Eu 0.30998 0.07365 0.11877 0.0
C3 C 0.25248 0.07625 0.06007 0.0
O4 O 0.27475 0.10016 0.06986 0.0
C5 C 0.24981 0.14464 0.1174 0.0
O6 O 0.31793 0.04569 0.1477 0.0
C7 C 0.37534 0.09759 0.10616 0.0
C8 C 0.28806 0.03507 0.15774 0.0
O9 O 0.25404 0.03915 0.15021 0.0
C10 C 0.26401 0.99771 0.10681 0.0
C11 C 0.41109 0.07907 0.09944 0.0
C12 C 0.42197 0.08176 0.07997 0.0
C13 C 0.45644 0.06527 0.07372 0.0
C14 C 0.47916 0.04506 0.08687 0.0
C15 C 0.46898 0.04219 0.1062 0.0
C16 C 0.43525 0.05961 0.11254 0.0
O17 O 0.23271 0.1305 0.10203 0.0
O18 O 0.27125 0.12254 0.12835 0.0
O19 O 0.15384 0.06347 0.08946 0.0
O20 O 0.16512 0.07417 0.11904 0.0
C21 C 0.13855 0.06774 0.10635 0.0
O22 O 0.29589 0.01672 0.10381 0.0
O23 O 0.23334 0.01646 0.11224 0.0
O24 O 0.36738 0.0936 0.12449 0.0
O25 O 0.34519 0.09433 0.09497 0.0
H26 H 0.40416 0.09734 0.06983 0.0
H27 H 0.50556 0.03192 0.08207 0.0
H28 H 0.42797 0.05771 0.12763 0.0
O29 O 0.72658 0.66558 0.38605 0.0
Tb30 Tb 0.72873 0.60163 0.38849 0.0
Eu31 Eu 0.7363 0.51611 0.35831 0.0
C32 C 0.75763 0.68658 0.38906 0.0
O33 O 0.78957 0.66824 0.39279 0.0
C34 C 0.80326 0.56024 0.3769 0.0
O35 O 0.73945 0.44955 0.35865 0.0
C36 C 0.74903 0.54796 0.32496 0.0
C37 C 0.73231 0.43114 0.37488 0.0
O38 O 0.72317 0.45225 0.39003 0.0
C39 C 0.6567 0.55313 0.37307 0.0
C40 C 0.73364 0.5621 0.30632 0.0
C41 C 0.73666 0.60244 0.30175 0.0
C42 C 0.72523 0.61614 0.28363 0.0
C43 C 0.71116 0.58938 0.27003 0.0
C44 C 0.70916 0.54903 0.2739 0.0
C45 C 0.72031 0.53548 0.29214 0.0
O46 O 0.78435 0.59329 0.3752 0.0
O47 O 0.78499 0.52681 0.37817 0.0
O48 O 0.73076 0.61963 0.41862 0.0
O49 O 0.73107 0.55865 0.41201 0.0
C50 C 0.7318 0.58457 0.42589 0.0
O51 O 0.67641 0.5217 0.36845 0.0
O52 O 0.67206 0.58785 0.37701 0.0
O53 O 0.75031 0.50984 0.32803 0.0
O54 O 0.74172 0.56861 0.34055 0.0
H55 H 0.74857 0.62301 0.31211 0.0
H56 H 0.70399 0.59996 0.2558 0.0
H57 H 0.71932 0.50425 0.29508 0.0
O58 O 0.29307 0.92561 0.57131 0.0
Tb59 Tb 0.2934 0.93711 0.60228 0.0
Eu60 Eu 0.18942 0.92524 0.60094 0.0
C61 C 0.26179 0.92312 0.56097 0.0
O62 O 0.22881 0.92525 0.56953 0.0
C63 C 0.25114 0.85632 0.6073 0.0
O64 O 0.1894 0.94221 0.63219 0.0
C65 C 0.11939 0.91767 0.58931 0.0
C66 C 0.19409 0.91691 0.6462 0.0
O67 O 0.20118 0.8799 0.64222 0.0
C68 C 0.23569 1.00578 0.60086 0.0
C69 C 0.08475 0.9418 0.58624 0.0
C70 C 0.07331 0.95103 0.56735 0.0
C71 C 0.0402 0.97299 0.56395 0.0
C72 C 0.01856 0.98564 0.57965 0.0
C73 C 0.02888 0.97619 0.59853 0.0
C74 C 0.06186 0.954 0.60181 0.0
O75 O 0.27621 0.88127 0.61442 0.0
O76 O 0.22145 0.8678 0.59719 0.0
O77 O 0.33994 0.93471 0.62345 0.0
O78 O 0.35045 0.96025 0.59637 0.0
C79 C 0.36546 0.95184 0.61291 0.0
O80 O 0.20892 0.98581 0.59187 0.0
O81 O 0.26165 0.98829 0.61131 0.0
O82 O 0.13026 0.91135 0.60712 0.0
O83 O 0.14806 0.92358 0.57755 0.0
H84 H 0.09013 0.94102 0.55527 0.0
H85 H 0.9923 1.00141 0.57713 0.0
H86 H 0.06948 0.94635 0.61641 0.0
O87 O 0.80641 0.55798 0.80957 0.0
Tb88 Tb 0.80447 0.5512 0.84065 0.0
Eu89 Eu 0.80478 0.47943 0.87555 0.0
C90 C 0.79624 0.53024 0.79733 0.0
O91 O 0.78504 0.49591 0.80382 0.0
C92 C 0.87639 0.52773 0.86328 0.0
O93 O 0.79671 0.45909 0.9062 0.0
C94 C 0.81401 0.42032 0.85215 0.0
C95 C 0.78575 0.48472 0.91928 0.0
O96 O 0.77858 0.52088 0.91386 0.0
C97 C 0.72887 0.51364 0.85723 0.0
C98 C 0.79357 0.3839 0.8462 0.0
C99 C 0.78749 0.37553 0.8265 0.0
C100 C 0.76925 0.34036 0.82077 0.0
C101 C 0.7576 0.31369 0.83486 0.0
C102 C 0.76439 0.32088 0.85439 0.0
C103 C 0.7821 0.35611 0.86003 0.0
O104 O 0.86179 0.52816 0.84583 0.0
O105 O 0.85428 0.52078 0.878 0.0
O106 O 0.80754 0.61485 0.83753 0.0
O107 O 0.79576 0.5914 0.86512 0.0
C108 C 0.80065 0.62365 0.85536 0.0
O109 O 0.74602 0.50388 0.87332 0.0
O110 O 0.74783 0.52372 0.84162 0.0
O111 O 0.8274 0.42139 0.86981 0.0
O112 O 0.79966 0.4541 0.84663 0.0
H113 H 0.79718 0.39611 0.81571 0.0
H114 H 0.74527 0.28575 0.83049 0.0
H115 H 0.78745 0.36141 0.87517 0.0
O116 O 0.81427 0.95344 0.93601 0.0
Tb117 Tb 0.81356 0.9837 0.9087 0.0
Eu118 Eu 0.71078 0.96842 0.89938 0.0
C119 C 0.78433 0.95403 0.94723 0.0
O120 O 0.75372 0.97255 0.94149 0.0
C121 C 0.7753 0.90519 0.89732 0.0
O122 O 0.69947 0.9598 0.86778 0.0
C123 C 0.64846 0.97387 0.91903 0.0
C124 C 0.72718 0.96754 0.85572 0.0
O125 O 0.76039 0.97836 0.86267 0.0
C126 C 0.75442 0.05152 0.90283 0.0
C127 C 0.61544 1.00018 0.92149 0.0
C128 C 0.60332 1.00969 0.94022 0.0
C129 C 0.57044 0.03227 0.94311 0.0
C130 C 0.55085 0.04667 0.92712 0.0
C131 C 0.56198 0.03697 0.9084 0.0
C132 C 0.59431 0.01359 0.90558 0.0
O133 O 0.79905 0.93235 0.89127 0.0
O134 O 0.74513 0.91506 0.90726 0.0
O135 O 0.8724 0.99801 0.91638 0.0
O136 O 0.85501 1.00322 0.88724 0.0
C137 C 0.88334 1.00748 0.89917 0.0
O138 O 0.73123 0.02947 0.89259 0.0
O139 O 0.78048 0.03654 0.91415 0.0
O140 O 0.65094 0.95428 0.90271 0.0
O141 O 0.68143 0.98699 0.92542 0.0
H142 H 0.61851 0.99803 0.9525 0.0
H143 H 0.52528 0.06383 0.9293 0.0
H144 H 0.60234 1.00524 0.8911 0.0
O145 O 0.29643 0.50809 0.69073 0.0
Tb146 Tb 0.28919 0.5023 0.66006 0.0
Eu147 Eu 0.28915 0.43779 0.62459 0.0
C148 C 0.31299 0.48083 0.70103 0.0
O149 O 0.32386 0.44794 0.69279 0.0
C150 C 0.36052 0.48512 0.63684 0.0
O151 O 0.2811 0.4217 0.59345 0.0
C152 C 0.30227 0.37676 0.64585 0.0
C153 C 0.26708 0.44809 0.58169 0.0
O154 O 0.25635 0.48215 0.58875 0.0
C155 C 0.21428 0.46262 0.6462 0.0
C156 C 0.28114 0.34164 0.65269 0.0
C157 C 0.27371 0.33653 0.67246 0.0
C158 C 0.25418 0.30289 0.67886 0.0
C159 C 0.24269 0.27423 0.66551 0.0
C160 C 0.25119 0.278 0.64597 0.0
C161 C 0.27 0.31194 0.63961 0.0
O162 O 0.3464 0.48169 0.65416 0.0
O163 O 0.33835 0.47942 0.62197 0.0
O164 O 0.2872 0.5657 0.66382 0.0
O165 O 0.27694 0.54193 0.63594 0.0
C166 C 0.27938 0.57422 0.64607 0.0
O167 O 0.22923 0.45762 0.62908 0.0
O168 O 0.23546 0.47052 0.66135 0.0
O169 O 0.30994 0.37825 0.62738 0.0
O170 O 0.29243 0.41103 0.65307 0.0
H171 H 0.28323 0.3584 0.6828 0.0
H172 H 0.22917 0.24753 0.67062 0.0
H173 H 0.27649 0.31468 0.62446 0.0
O174 O 0.72749 0.05983 0.44177 0.0
Tb175 Tb 0.7235 0.06228 0.41071 0.0
Eu176 Eu 0.80579 0.06316 0.38157 0.0
C177 C 0.71874 0.09018 0.45264 0.0
O178 O 0.707 0.12278 0.44456 0.0
C179 C 0.75621 0.13746 0.39131 0.0
O180 O 0.81566 0.04943 0.35055 0.0
C181 C 0.86966 0.07576 0.39938 0.0
C182 C 0.7881 0.03192 0.34101 0.0
O183 O 0.75614 0.02383 0.34992 0.0
C184 C 0.76471 0.98226 0.3965 0.0
C185 C 0.90386 0.05341 0.40557 0.0
C186 C 0.90864 0.04332 0.42508 0.0
C187 C 0.9409 0.02242 0.43114 0.0
C188 C 0.96853 0.01209 0.41763 0.0
C189 C 0.96506 0.02263 0.39829 0.0
C190 C 0.93278 0.04353 0.3923 0.0
O191 O 0.74892 0.12082 0.4079 0.0
O192 O 0.7692 0.11637 0.377 0.0
O193 O 0.66272 0.06696 0.41642 0.0
O194 O 0.68103 0.05995 0.3875 0.0
C195 C 0.65146 0.06353 0.39865 0.0
O196 O 0.78874 1.00004 0.38499 0.0
O197 O 0.74134 1.00091 0.40817 0.0
O198 O 0.86505 0.08093 0.38078 0.0
O199 O 0.83744 0.06881 0.40848 0.0
H200 H 0.88736 0.05167 0.43555 0.0
H201 H 0.99409 0.99728 0.42243 0.0
H202 H 0.93034 0.05196 0.37735 0.0
O203 O 0.21494 0.50106 0.20258 0.0
Tb204 Tb 0.21208 0.49919 0.17139 0.0
Eu205 Eu 0.21061 0.56798 0.13563 0.0
C206 C 0.18584 0.49211 0.21358 0.0
O207 O 0.15303 0.48304 0.20562 0.0
C208 C 0.13993 0.51857 0.14835 0.0
O209 O 0.22 0.58282 0.10447 0.0
C210 C 0.20099 0.62961 0.15726 0.0
C211 C 0.2346 0.55514 0.09351 0.0
O212 O 0.24305 0.52118 0.10131 0.0
C213 C 0.28738 0.53442 0.15328 0.0
C214 C 0.22105 0.66676 0.16237 0.0
C215 C 0.22592 0.67766 0.18187 0.0
C216 C 0.24193 0.71446 0.18678 0.0
C217 C 0.25428 0.73937 0.17209 0.0
C218 C 0.2493 0.7293 0.15274 0.0
C219 C 0.23267 0.69307 0.1479 0.0
O220 O 0.15409 0.51998 0.16589 0.0
O221 O 0.16201 0.52565 0.13367 0.0
O222 O 0.21175 0.43592 0.17627 0.0
O223 O 0.21864 0.45697 0.14773 0.0
C224 C 0.21641 0.42567 0.1584 0.0
O225 O 0.26974 0.54518 0.13758 0.0
O226 O 0.26916 0.525 0.16916 0.0
O227 O 0.18793 0.62655 0.13956 0.0
O228 O 0.21533 0.59657 0.16382 0.0
H229 H 0.21587 0.65831 0.19311 0.0
H230 H 0.26644 0.76781 0.17575 0.0
H231 H 0.22819 0.68589 0.13287 0.0
O232 O 0.72541 0.56888 0.58093 0.0
Tb233 Tb 0.70974 0.56116 0.61098 0.0
Eu234 Eu 0.80473 0.57266 0.61083 0.0
C235 C 0.71817 0.5407 0.56837 0.0
O236 O 0.70289 0.50775 0.57446 0.0
C237 C 0.7471 0.64137 0.6183 0.0
O238 O 0.79474 0.56006 0.6423 0.0
C239 C 0.87656 0.58093 0.60347 0.0
C240 C 0.8017 0.58715 0.65543 0.0
O241 O 0.81324 0.62207 0.64988 0.0
C242 C 0.7635 0.49037 0.60761 0.0
C243 C 0.90958 0.55543 0.59923 0.0
C244 C 0.92189 0.55071 0.5801 0.0
C245 C 0.95321 0.52685 0.57579 0.0
C246 C 0.97215 0.50774 0.59073 0.0
C247 C 0.96114 0.51295 0.60988 0.0
C248 C 0.92998 0.53701 0.61415 0.0
O249 O 0.7248 0.61484 0.62601 0.0
O250 O 0.77452 0.63056 0.60666 0.0
O251 O 0.65137 0.5602 0.59986 0.0
O252 O 0.66135 0.54626 0.62914 0.0
C253 C 0.63548 0.54996 0.61594 0.0
O254 O 0.78891 0.51276 0.59918 0.0
O255 O 0.73587 0.50565 0.61776 0.0
O256 O 0.86285 0.57995 0.62101 0.0
O257 O 0.84993 0.58276 0.59018 0.0
H258 H 0.90726 0.56573 0.56856 0.0
H259 H 0.99736 0.49067 0.58754 0.0
H260 H 0.92203 0.54152 0.62903 0.0
O261 O 0.22724 0.17725 0.87781 0.0
Tb262 Tb 0.23108 0.11336 0.8802 0.0
Eu263 Eu 0.23162 0.02446 0.85592 0.0
C264 C 0.25802 0.19871 0.8751 0.0
O265 O 0.29067 0.18095 0.87248 0.0
C266 C 0.30298 0.06747 0.86973 0.0
O267 O 0.23237 0.9579 0.85676 0.0
C268 C 0.24097 0.05481 0.82202 0.0
C269 C 0.22728 0.94007 0.87334 0.0
O270 O 0.22097 0.96171 0.88869 0.0
C271 C 0.15497 0.06675 0.86977 0.0
C272 C 0.22359 0.06715 0.80362 0.0
C273 C 0.22574 0.10702 0.79817 0.0
C274 C 0.21272 0.11898 0.78002 0.0
C275 C 0.19795 0.09076 0.76729 0.0
C276 C 0.19689 0.05079 0.77212 0.0
C277 C 0.20936 0.03917 0.79041 0.0
O278 O 0.28485 0.10027 0.86592 0.0
O279 O 0.28355 0.03556 0.87351 0.0
O280 O 0.24406 0.13237 0.90936 0.0
O281 O 0.23008 0.07227 0.90448 0.0
C282 C 0.23977 0.09833 0.91741 0.0
O283 O 0.17296 0.03329 0.86734 0.0
O284 O 0.17249 0.10121 0.87091 0.0
O285 O 0.24389 0.01696 0.82555 0.0
O286 O 0.23382 0.07603 0.83742 0.0
H287 H 0.23836 0.12854 0.80782 0.0
H288 H 0.18989 0.09973 0.75292 0.0
H289 H 0.20902 1.00826 0.79407 0.0
O290 O 0.78258 0.45293 0.07314 0.0
Tb291 Tb 0.79438 0.44912 0.10387 0.0
Eu292 Eu 0.69499 0.43601 0.09924 0.0
C293 C 0.79413 0.42593 0.06088 0.0
O294 O 0.81183 0.39479 0.06741 0.0
C295 C 0.75508 0.36794 0.10707 0.0
O296 O 0.69443 0.45187 0.13079 0.0
C297 C 0.62558 0.42727 0.08683 0.0
C298 C 0.69786 0.42584 0.14461 0.0
O299 O 0.70259 0.3886 0.14026 0.0
C300 C 0.73839 0.51797 0.10145 0.0
C301 C 0.58962 0.44935 0.08387 0.0
C302 C 0.57683 0.45692 0.065 0.0
C303 C 0.54169 0.47541 0.06173 0.0
C304 C 0.5199 0.4872 0.07753 0.0
C305 C 0.53189 0.47992 0.09639 0.0
C306 C 0.56654 0.46056 0.09955 0.0
O307 O 0.77682 0.39363 0.11601 0.0
O308 O 0.72815 0.37937 0.09518 0.0
O309 O 0.85527 0.44799 0.09689 0.0
O310 O 0.83817 0.46799 0.12442 0.0
C311 C 0.86723 0.46142 0.11341 0.0
O312 O 0.71434 0.49716 0.09098 0.0
O313 O 0.76394 0.50118 0.11242 0.0
O314 O 0.63608 0.41988 0.1046 0.0
O315 O 0.65436 0.43568 0.07548 0.0
H316 H 0.5937 0.44737 0.05284 0.0
H317 H 0.49298 0.50184 0.07515 0.0
H318 H 0.57535 0.4544 0.11416 0.0
O319 O 0.31274 0.02584 0.31014 0.0
Tb320 Tb 0.30506 0.02789 0.34106 0.0
Eu321 Eu 0.30847 0.96128 0.3764 0.0
C322 C 0.29696 0.99779 0.29974 0.0
O323 O 0.27696 0.97029 0.30826 0.0
C324 C 0.3778 0.01236 0.36441 0.0
O325 O 0.30136 0.93829 0.4066 0.0
C326 C 0.31926 0.90512 0.35155 0.0
C327 C 0.28151 0.95916 0.41896 0.0
O328 O 0.26608 0.99218 0.41323 0.0
C329 C 0.23061 0.99201 0.35923 0.0
C330 C 0.29978 0.8683 0.34559 0.0
C331 C 0.29547 0.85871 0.32591 0.0
C332 C 0.27969 0.82217 0.32036 0.0
C333 C 0.26704 0.7963 0.3346 0.0
C334 C 0.27159 0.80519 0.3541 0.0
C335 C 0.28777 0.84118 0.35957 0.0
O336 O 0.36373 1.00984 0.3469 0.0
O337 O 0.35578 1.00506 0.37911 0.0
O338 O 0.29478 0.09026 0.33612 0.0
O339 O 0.30519 0.07063 0.36468 0.0
C340 C 0.29797 0.10106 0.35402 0.0
O341 O 0.24869 0.98319 0.37512 0.0
O342 O 0.24884 1.00023 0.34322 0.0
O343 O 0.33429 0.90557 0.36889 0.0
O344 O 0.30256 0.93833 0.34709 0.0
H345 H 0.30576 0.87881 0.31504 0.0
H346 H 0.25529 0.76795 0.33046 0.0
H347 H 0.29184 0.84746 0.37472 0.0
O348 O 0.29056 0.45964 0.42824 0.0
Tb349 Tb 0.31081 0.46449 0.39893 0.0
Eu350 Eu 0.21205 0.45466 0.39966 0.0
C351 C 0.30293 0.43144 0.43945 0.0
O352 O 0.32694 0.40558 0.43248 0.0
C353 C 0.27172 0.38215 0.39375 0.0
O354 O 0.20307 0.46435 0.36783 0.0
C355 C 0.14677 0.45181 0.41673 0.0
C356 C 0.23082 0.46062 0.35533 0.0
O357 O 0.26483 0.45103 0.36144 0.0
C358 C 0.2578 0.53394 0.3955 0.0
C359 C 0.11651 0.47979 0.42219 0.0
C360 C 0.10856 0.48635 0.44175 0.0
C361 C 0.07902 0.51163 0.44727 0.0
C362 C 0.05759 0.53041 0.43306 0.0
C363 C 0.06422 0.52332 0.41352 0.0
C364 C 0.09397 0.49826 0.40812 0.0
O365 O 0.30021 0.40514 0.38887 0.0
O366 O 0.24022 0.39519 0.40173 0.0
O367 O 0.36463 0.4865 0.41095 0.0
O368 O 0.36351 0.46368 0.3825 0.0
C369 C 0.38484 0.47979 0.39564 0.0
O370 O 0.23362 0.51551 0.40658 0.0
O371 O 0.28341 0.5143 0.38588 0.0
O372 O 0.15118 0.44458 0.39829 0.0
O373 O 0.17916 0.45483 0.42615 0.0
H374 H 0.12488 0.47124 0.45267 0.0
H375 H 0.03333 0.54798 0.43728 0.0
H376 H 0.09867 0.49237 0.393 0.0
O377 O 0.80398 0.01464 0.18913 0.0
Tb378 Tb 0.79746 0.01302 0.15827 0.0
Eu379 Eu 0.79872 0.93687 0.12663 0.0
C380 C 0.79319 0.98491 0.1998 0.0
O381 O 0.77814 0.95363 0.19163 0.0
C382 C 0.86897 0.99108 0.13521 0.0
O383 O 0.78731 0.91177 0.09731 0.0
C384 C 0.80847 0.88186 0.15189 0.0
C385 C 0.81593 0.90297 0.08603 0.0
O386 O 0.85069 0.90524 0.09293 0.0
C387 C 0.72282 0.9722 0.14348 0.0
C388 C 0.78685 0.84681 0.15833 0.0
C389 C 0.78164 0.83945 0.1781 0.0
C390 C 0.76158 0.80579 0.18412 0.0
C391 C 0.74745 0.77936 0.17029 0.0
C392 C 0.75358 0.78545 0.15064 0.0
C393 C 0.77266 0.81959 0.14475 0.0
O394 O 0.85541 0.99361 0.15272 0.0
O395 O 0.84738 0.97797 0.12124 0.0
O396 O 0.79496 0.07633 0.16273 0.0
O397 O 0.78671 0.0537 0.13445 0.0
C398 C 0.78816 0.08556 0.14494 0.0
O399 O 0.73972 0.96083 0.12763 0.0
O400 O 0.74221 0.9836 0.15872 0.0
O401 O 0.82245 0.88037 0.13438 0.0
O402 O 0.79418 0.91641 0.15626 0.0
H403 H 0.79325 0.85963 0.18872 0.0
H404 H 0.73377 0.75244 0.17498 0.0
H405 H 0.77715 0.82439 0.12953 0.0
O406 O 0.22637 0.57315 0.94008 0.0
Tb407 Tb 0.22574 0.56919 0.90892 0.0
Eu408 Eu 0.30401 0.57296 0.8775 0.0
C409 C 0.25588 0.56146 0.95012 0.0
O410 O 0.28545 0.54687 0.94112 0.0
C411 C 0.25447 0.64677 0.88944 0.0
O412 O 0.32281 0.56464 0.84708 0.0
C413 C 0.3638 0.57883 0.89943 0.0
C414 C 0.34052 0.53276 0.84141 0.0
O415 O 0.34976 0.5059 0.85407 0.0
C416 C 0.2633 0.49316 0.8907 0.0
C417 C 0.39979 0.55829 0.90441 0.0
C418 C 0.40831 0.55078 0.92389 0.0
C419 C 0.44388 0.53532 0.9292 0.0
C420 C 0.47011 0.5259 0.91482 0.0
C421 C 0.46259 0.53336 0.89543 0.0
C422 C 0.42747 0.54986 0.89022 0.0
O423 O 0.24736 0.62939 0.90591 0.0
O424 O 0.26765 0.62674 0.8748 0.0
O425 O 0.16502 0.56482 0.91486 0.0
O426 O 0.18281 0.56713 0.88575 0.0
C427 C 0.15341 0.56454 0.8971 0.0
O428 O 0.27753 0.51293 0.87623 0.0
O429 O 0.2515 0.51073 0.90653 0.0
O430 O 0.3615 0.59402 0.88213 0.0
O431 O 0.33138 0.56372 0.90546 0.0
H432 H 0.38801 0.55861 0.93495 0.0
H433 H 0.49746 0.51377 0.91885 0.0
H434 H 0.42203 0.5564 0.87525 0.0
O435 O 0.71147 0.99604 0.70267 0.0
Tb436 Tb 0.70818 0.99602 0.67156 0.0
Eu437 Eu 0.70653 0.07173 0.63889 0.0
C438 C 0.68359 0.98253 0.71335 0.0
O439 O 0.65224 0.96979 0.70507 0.0
C440 C 0.63456 0.02088 0.65014 0.0
O441 O 0.71454 0.0898 0.60816 0.0
C442 C 0.70227 0.1318 0.66195 0.0
C443 C 0.72149 0.06122 0.59591 0.0
O444 O 0.72415 0.02522 0.60252 0.0
C445 C 0.78262 0.03294 0.65396 0.0
C446 C 0.7254 0.16722 0.66663 0.0
C447 C 0.73143 0.17859 0.68594 0.0
C448 C 0.7515 0.21349 0.69041 0.0
C449 C 0.76513 0.23684 0.67534 0.0
C450 C 0.75849 0.2266 0.65609 0.0
C451 C 0.73918 0.19147 0.65182 0.0
O452 O 0.64967 0.01633 0.66731 0.0
O453 O 0.65545 0.03289 0.63579 0.0
O454 O 0.70654 0.93259 0.67558 0.0
O455 O 0.71812 0.955 0.64768 0.0
C456 C 0.71408 0.92319 0.65787 0.0
O457 O 0.76439 0.04529 0.63872 0.0
O458 O 0.76482 0.0229 0.66985 0.0
O459 O 0.6867 0.13073 0.64472 0.0
O460 O 0.71557 0.0975 0.66747 0.0
H461 H 0.72007 0.16065 0.69742 0.0
H462 H 0.7785 0.26486 0.67864 0.0
H463 H 0.73387 0.18379 0.63691 0.0
H464 H 0.21759 0.39823 0.12124 0.0
H465 H 0.2648 0.17837 0.15226 0.0
H466 H 0.22291 0.36 0.18017 0.0
H467 H 0.22115 0.20556 0.09585 0.0
H468 H 0.2556 0.2466 0.16183 0.0
H469 H 0.22436 0.32947 0.11071 0.0
C470 C 0.22015 0.37536 0.13193 0.0
C471 C 0.21976 0.38468 0.15159 0.0
C472 C 0.24791 0.23768 0.14737 0.0
C473 C 0.22782 0.30645 0.13973 0.0
C474 C 0.2533 0.19869 0.14184 0.0
C475 C 0.24373 0.18612 0.1232 0.0
C476 C 0.23328 0.26469 0.13412 0.0
C477 C 0.22878 0.21392 0.11039 0.0
C478 C 0.22389 0.33621 0.12593 0.0
C479 C 0.22308 0.35405 0.16488 0.0
N480 N 0.22422 0.25201 0.11605 0.0
N481 N 0.22721 0.31639 0.15871 0.0
H482 H 0.42977 0.52583 0.41899 0.0
H483 H 0.61273 0.50228 0.35252 0.0
H484 H 0.43001 0.462 0.3653 0.0
H485 H 0.60628 0.59065 0.39704 0.0
H486 H 0.54609 0.48614 0.35778 0.0
H487 H 0.49511 0.54802 0.41249 0.0
C488 C 0.44369 0.51633 0.40591 0.0
C489 C 0.42469 0.49191 0.39269 0.0
C490 C 0.55901 0.50936 0.3663 0.0
C491 C 0.49892 0.51721 0.38514 0.0
C492 C 0.59709 0.51863 0.36329 0.0
C493 C 0.61506 0.54783 0.37438 0.0
C494 C 0.53867 0.52894 0.38076 0.0
C495 C 0.59338 0.56813 0.38809 0.0
C496 C 0.48078 0.52921 0.40215 0.0
C497 C 0.44374 0.4807 0.37589 0.0
N498 N 0.55634 0.55796 0.39108 0.0
N499 N 0.47981 0.4933 0.37264 0.0
H500 H 0.29787 0.8245 0.63429 0.0
H501 H 0.2516 0.59923 0.61111 0.0
H502 H 0.21512 0.79179 0.59106 0.0
H503 H 0.29706 0.64136 0.66506 0.0
H504 H 0.24434 0.66798 0.60059 0.0
H505 H 0.30494 0.75567 0.64263 0.0
C506 C 0.28123 0.80284 0.62646 0.0
C507 C 0.25574 0.8141 0.61196 0.0
C508 C 0.25585 0.66198 0.61472 0.0
C509 C 0.26387 0.7347 0.62152 0.0
C510 C 0.26011 0.6229 0.62067 0.0
C511 C 0.27491 0.61475 0.63897 0.0
C512 C 0.26712 0.69277 0.62706 0.0
C513 C 0.28545 0.64635 0.65086 0.0
C514 C 0.2852 0.76345 0.63131 0.0
C515 C 0.23494 0.78447 0.6024 0.0
N516 N 0.28152 0.68384 0.64467 0.0
N517 N 0.23953 0.74602 0.60732 0.0
H518 H 0.09226 0.55916 0.92053 0.0
H519 H 0.93484 0.53917 0.83707 0.0
H520 H 0.12229 0.56102 0.86052 0.0
H521 H 0.91255 0.53144 0.8979 0.0
H522 H 1.00283 0.54924 0.84442 0.0
H523 H 0.02574 0.55132 0.91166 0.0
C524 C 0.08481 0.55799 0.90542 0.0
C525 C 0.11292 0.5607 0.89126 0.0
C526 C 0.98292 0.54534 0.8561 0.0
C527 C 0.03615 0.55155 0.88084 0.0
C528 C 0.94411 0.53962 0.85192 0.0
C529 C 0.91775 0.53434 0.86686 0.0
C530 C 0.99536 0.54591 0.87535 0.0
C531 C 0.93154 0.53524 0.88584 0.0
C532 C 0.04668 0.55345 0.90033 0.0
C533 C 0.10146 0.55902 0.8719 0.0
N534 N 0.9691 0.54087 0.88947 0.0
N535 N 0.06391 0.5545 0.86723 0.0
H536 H 0.77349 0.6492 0.89026 0.0
H537 H 0.82341 0.87525 0.87009 0.0
H538 H 0.82302 0.69051 0.83743 0.0
H539 H 0.74089 0.83975 0.91245 0.0
H540 H 0.83124 0.80636 0.86078 0.0
H541 H 0.76864 0.71778 0.90144 0.0
C542 C 0.78351 0.67268 0.88109 0.0
C543 C 0.79855 0.66429 0.86289 0.0
C544 C 0.81146 0.81365 0.87214 0.0
C545 C 0.79345 0.74239 0.87556 0.0
C546 C 0.80708 0.85298 0.87751 0.0
C547 C 0.78131 0.86338 0.89202 0.0
C548 C 0.79031 0.7843 0.88147 0.0
C549 C 0.76088 0.83314 0.9011 0.0
C550 C 0.78063 0.71172 0.88742 0.0
C551 C 0.81109 0.69572 0.85153 0.0
N552 N 0.76587 0.79498 0.89571 0.0
N553 N 0.80837 0.7333 0.85807 0.0
H554 H 0.41559 0.49516 0.66437 0.0
H555 H 0.57892 0.55034 0.58895 0.0
H556 H 0.39772 0.49841 0.60299 0.0
H557 H 0.59955 0.53186 0.64934 0.0
H558 H 0.51148 0.53531 0.594 0.0
H559 H 0.48236 0.51229 0.65936 0.0
C560 C 0.42569 0.49944 0.64984 0.0
C561 C 0.40104 0.49523 0.63407 0.0
C562 C 0.53075 0.53459 0.60616 0.0
C563 C 0.47742 0.51499 0.62824 0.0
C564 C 0.56915 0.54325 0.60328 0.0
C565 C 0.59466 0.54225 0.61876 0.0
C566 C 0.51785 0.52505 0.62467 0.0
C567 C 0.58072 0.53287 0.63703 0.0
C568 C 0.46383 0.50921 0.64698 0.0
C569 C 0.41572 0.50123 0.61557 0.0
N570 N 0.54323 0.52463 0.63948 0.0
N571 N 0.45293 0.51083 0.61316 0.0
H572 H 0.73163 0.19183 0.41784 0.0
H573 H 0.75353 0.37703 0.34726 0.0
H574 H 0.77047 0.18199 0.35924 0.0
H575 H 0.71742 0.38574 0.40634 0.0
H576 H 0.75872 0.30554 0.35097 0.0
H577 H 0.72509 0.26279 0.41356 0.0
C578 C 0.73879 0.20451 0.40406 0.0
C579 C 0.75172 0.18071 0.38891 0.0
C580 C 0.74961 0.32312 0.36311 0.0
C581 C 0.74424 0.26233 0.38387 0.0
C582 C 0.74661 0.36398 0.36099 0.0
C583 C 0.73506 0.38759 0.3765 0.0
C584 C 0.74097 0.30565 0.38088 0.0
C585 C 0.7265 0.3689 0.39395 0.0
C586 C 0.73504 0.24514 0.40162 0.0
C587 C 0.76046 0.19903 0.37137 0.0
N588 N 0.72965 0.32922 0.39565 0.0
N589 N 0.7566 0.23863 0.36935 0.0
H590 H 0.93026 0.45389 0.09089 0.0
H591 H 0.07997 0.5117 0.17397 0.0
H592 H 0.8956 0.48436 0.14842 0.0
H593 H 0.1074 0.50234 0.11369 0.0
H594 H 0.01317 0.4965 0.16602 0.0
H595 H 0.99646 0.46616 0.10006 0.0
C596 C 0.93664 0.46312 0.10547 0.0
C597 C 0.90745 0.46826 0.11888 0.0
C598 C 0.03395 0.4978 0.15459 0.0
C599 C 0.98326 0.48229 0.12959 0.0
C600 C 0.07206 0.50638 0.15913 0.0
C601 C 0.09941 0.50854 0.1445 0.0
C602 C 0.02331 0.49097 0.13533 0.0
C603 C 0.08745 0.50131 0.1255 0.0
C604 C 0.97444 0.47018 0.11072 0.0
C605 C 0.91732 0.48019 0.13762 0.0
N606 N 0.05052 0.49287 0.12152 0.0
N607 N 0.95439 0.48679 0.14244 0.0
H608 H 0.74152 0.89758 0.62306 0.0
H609 H 0.70321 0.67124 0.64703 0.0
H610 H 0.69649 0.85624 0.67692 0.0
H611 H 0.77888 0.707 0.60155 0.0
H612 H 0.69456 0.7399 0.65587 0.0
H613 H 0.74977 0.82887 0.61266 0.0
C614 C 0.73323 0.87405 0.63263 0.0
C615 C 0.71832 0.88245 0.65086 0.0
C616 C 0.7131 0.73283 0.64395 0.0
C617 C 0.72745 0.80429 0.6391 0.0
C618 C 0.71798 0.69355 0.63884 0.0
C619 C 0.74187 0.68327 0.62351 0.0
C620 C 0.73193 0.76234 0.6336 0.0
C621 C 0.76031 0.7136 0.6135 0.0
C622 C 0.73808 0.83496 0.62673 0.0
C623 C 0.70814 0.85102 0.66275 0.0
N624 N 0.75486 0.75184 0.61868 0.0
N625 N 0.71277 0.8134 0.65665 0.0
H626 H 0.10619 0.01979 0.8497 0.0
H627 H 0.93802 0.037 0.92312 0.0
H628 H 0.10917 0.10756 0.89458 0.0
H629 H 0.9164 1.00831 0.86366 0.0
H630 H 1.00284 0.05737 0.91455 0.0
H631 H 0.03824 1.00972 0.85573 0.0
C632 C 0.09235 0.03728 0.86067 0.0
C633 C 0.11317 0.06464 0.87163 0.0
C634 C 0.98377 0.04692 0.90338 0.0
C635 C 0.03588 0.05244 0.87895 0.0
C636 C 0.94695 0.03508 0.90826 0.0
C637 C 0.92199 0.02088 0.89406 0.0
C638 C 0.99596 0.04355 0.88425 0.0
C639 C 0.93483 0.01912 0.87501 0.0
C640 C 0.05364 0.03155 0.86408 0.0
C641 C 0.09398 0.08645 0.88571 0.0
N642 N 0.97115 0.02979 0.87069 0.0
N643 N 0.05647 0.07939 0.88922 0.0
H644 H 0.76326 0.11091 0.10953 0.0
H645 H 0.79676 0.33705 0.13628 0.0
H646 H 0.80118 0.15272 0.16499 0.0
H647 H 0.72472 0.3025 0.08872 0.0
H648 H 0.80479 0.2684 0.14455 0.0
H649 H 0.7545 0.17963 0.09936 0.0
C650 C 0.76981 0.13453 0.11951 0.0
C651 C 0.78298 0.12624 0.13811 0.0
C652 C 0.78716 0.27568 0.13231 0.0
C653 C 0.77335 0.20436 0.12662 0.0
C654 C 0.78264 0.31502 0.12748 0.0
C655 C 0.75993 0.32573 0.11176 0.0
C656 C 0.76917 0.24638 0.12128 0.0
C657 C 0.74235 0.2956 0.10101 0.0
C658 C 0.76469 0.17361 0.11374 0.0
C659 C 0.79095 0.15778 0.15052 0.0
N660 N 0.74743 0.25718 0.10593 0.0
N661 N 0.78617 0.19533 0.14453 0.0
H662 H 0.58911 0.06997 0.42131 0.0
H663 H 0.4367 0.02067 0.33836 0.0
H664 H 0.62205 0.04972 0.36247 0.0
H665 H 0.41135 0.028 0.39892 0.0
H666 H 0.50363 0.03626 0.34575 0.0
H667 H 0.52277 0.06036 0.41221 0.0
C668 C 0.58231 0.06373 0.40641 0.0
C669 C 0.61113 0.06051 0.39264 0.0
C670 C 0.48329 0.0345 0.35736 0.0
C671 C 0.53487 0.04911 0.38204 0.0
C672 C 0.4451 0.02566 0.35316 0.0
C673 C 0.4183 0.02277 0.36803 0.0
C674 C 0.4946 0.04076 0.37655 0.0
C675 C 0.43086 0.02959 0.38694 0.0
C676 C 0.54435 0.05812 0.4012 0.0
C677 C 0.60062 0.05241 0.37353 0.0
N678 N 0.46789 0.03819 0.39061 0.0
N679 N 0.5633 0.04681 0.36878 0.0
H680 H 0.3297 0.1343 0.3861 0.0
H681 H 0.21527 0.3329 0.38172 0.0
H682 H 0.25682 0.15976 0.33786 0.0
H683 H 0.33469 0.3354 0.39597 0.0
H684 H 0.22122 0.26334 0.37267 0.0
H685 H 0.32337 0.20304 0.39694 0.0
C686 C 0.3122 0.15432 0.3779 0.0
C687 C 0.29383 0.14167 0.36106 0.0
C688 C 0.24597 0.27918 0.37791 0.0
C689 C 0.28582 0.21922 0.37355 0.0
C690 C 0.2426 0.31863 0.38317 0.0
C691 C 0.27459 0.33976 0.38953 0.0
C692 C 0.28129 0.26055 0.37958 0.0
C693 C 0.30944 0.32007 0.391 0.0
C694 C 0.30876 0.19334 0.38403 0.0
C695 C 0.27157 0.16859 0.35087 0.0
N696 N 0.31186 0.28133 0.3862 0.0
N697 N 0.26783 0.20609 0.35738 0.0
H698 H 0.90525 0.98974 0.10054 0.0
H699 H 0.10361 0.07168 0.14136 0.0
H700 H 0.923 0.0205 0.16017 0.0
H701 H 0.08174 0.04744 0.08145 0.0
H702 H 0.03749 0.05436 0.14868 0.0
H703 H 0.96988 0.01108 0.09349 0.0
C704 C 0.92274 1.00094 0.11219 0.0
C705 C 0.90859 1.00325 0.13101 0.0
C706 C 0.04708 0.05307 0.13392 0.0
C707 C 0.98295 0.02795 0.12296 0.0
C708 C 0.08475 0.06307 0.12973 0.0
C709 C 0.09805 0.06095 0.11078 0.0
C710 C 0.02265 0.04071 0.11903 0.0
C711 C 0.07257 0.04949 0.09626 0.0
C712 C 0.95971 0.01324 0.10812 0.0
C713 C 0.9327 0.0181 0.14547 0.0
N714 N 0.03617 0.03962 0.1007 0.0
N715 N 0.96872 0.02984 0.14114 0.0
H716 H 0.23067 0.70056 0.91659 0.0
H717 H 0.24486 0.88552 0.84539 0.0
H718 H 0.26588 0.6918 0.85736 0.0
H719 H 0.21549 0.89523 0.90539 0.0
H720 H 0.25046 0.81419 0.84919 0.0
H721 H 0.22283 0.77156 0.91252 0.0
C722 C 0.23674 0.71346 0.90273 0.0
C723 C 0.24907 0.68997 0.88733 0.0
C724 C 0.24272 0.83193 0.86152 0.0
C725 C 0.24007 0.77148 0.88254 0.0
C726 C 0.23946 0.8727 0.85934 0.0
C727 C 0.22974 0.89656 0.87508 0.0
C728 C 0.23616 0.81473 0.87957 0.0
C729 C 0.22313 0.87815 0.89283 0.0
C730 C 0.23226 0.75408 0.90041 0.0
C731 C 0.25641 0.70856 0.86969 0.0
N732 N 0.22648 0.83848 0.89458 0.0
N733 N 0.25183 0.74805 0.8678 0.0
H734 H 0.41926 0.99012 0.59207 0.0
H735 H 0.58153 0.98436 0.67359 0.0
H736 H 0.40103 0.93656 0.64731 0.0
H737 H 0.59453 0.0366 0.61757 0.0
H738 H 0.51535 0.96737 0.6652 0.0
H739 H 0.48372 1.00773 0.60192 0.0
C740 C 0.42892 0.98198 0.60629 0.0
C741 C 0.40482 0.96179 0.61887 0.0
C742 C 0.53278 0.98266 0.65482 0.0
C743 C 0.4789 0.98198 0.63039 0.0
C744 C 0.5705 0.99247 0.65962 0.0
C745 C 0.59381 0.01186 0.64627 0.0
C746 C 0.51835 0.9924 0.63657 0.0
C747 C 0.57794 0.02149 0.62835 0.0
C748 C 0.46578 0.9921 0.61196 0.0
C749 C 0.41881 0.9521 0.63717 0.0
N750 N 0.54146 0.01164 0.62407 0.0
N751 N 0.45497 0.96226 0.6424 0.0
H752 H 0.27343 0.14739 0.94304 0.0
H753 H 0.21403 0.0267 0.03553 0.0
H754 H 0.21936 0.03368 0.93867 0.0
H755 H 0.2979 0.11972 0.03638 0.0
H756 H 0.21454 0.02813 1.00034 0.0
H757 H 0.28111 0.13789 0.97751 0.0
C758 C 0.26327 0.12029 0.94938 0.0
C759 C 0.24559 0.09131 0.93807 0.0
C760 C 0.23312 0.04788 0.00826 0.0
C761 C 0.25405 0.08031 0.9776 0.0
C762 C 0.23283 0.04715 0.02833 0.0
C763 C 0.25569 0.07343 0.03892 0.0
C764 C 0.25606 0.07542 0.99874 0.0
C765 C 0.27963 0.09909 0.02884 0.0
C766 C 0.26782 0.11481 0.96906 0.0
C767 C 0.23311 0.05671 0.94696 0.0
N768 N 0.27885 0.09976 0.00933 0.0
N769 N 0.23722 0.05229 0.96631 0.0
H770 H 0.65051 0.55547 0.24832 0.0
H771 H 0.7243 0.3879 0.17673 0.0
H772 H 0.74573 0.48151 0.26252 0.0
H773 H 0.66634 0.49304 0.15872 0.0
H774 H 0.7217 0.41153 0.21018 0.0
H775 H 0.64384 0.52078 0.21768 0.0
C776 C 0.66958 0.53139 0.24513 0.0
C777 C 0.69912 0.5218 0.25786 0.0
C778 C 0.70939 0.42919 0.19887 0.0
C779 C 0.69168 0.48203 0.22275 0.0
C780 C 0.7108 0.41576 0.17982 0.0
C781 C 0.69573 0.4387 0.16492 0.0
C782 C 0.69208 0.46535 0.20301 0.0
C783 C 0.67862 0.47458 0.16972 0.0
C784 C 0.66587 0.51175 0.22761 0.0
C785 C 0.72259 0.48989 0.25313 0.0
N786 N 0.67719 0.48671 0.18832 0.0
N787 N 0.71869 0.4714 0.23581 0.0
H788 H 0.20335 0.93295 0.53558 0.0
H789 H 0.32832 0.91154 0.4403 0.0
H790 H 0.32398 0.91043 0.53783 0.0
H791 H 0.22561 0.98001 0.44383 0.0
H792 H 0.32304 0.89752 0.47489 0.0
H793 H 0.20705 0.93633 0.50063 0.0
C794 C 0.2306 0.92831 0.52874 0.0
C795 C 0.2635 0.92172 0.5397 0.0
C796 C 0.3016 0.91537 0.46798 0.0
C797 C 0.2678 0.92543 0.49958 0.0
C798 C 0.30446 0.92318 0.44829 0.0
C799 C 0.27748 0.94716 0.43925 0.0
C800 C 0.27113 0.93101 0.47852 0.0
C801 C 0.24722 0.96166 0.45026 0.0
C802 C 0.23268 0.9304 0.50876 0.0
C803 C 0.29797 0.91588 0.52995 0.0
N804 N 0.24484 0.95332 0.46927 0.0
N805 N 0.29927 0.91794 0.51041 0.0
H806 H 0.81531 0.59895 0.77946 0.0
H807 H 0.78169 0.51717 0.67241 0.0
H808 H 0.77814 0.4803 0.76732 0.0
H809 H 0.81522 0.63632 0.68593 0.0
H810 H 0.7797 0.50268 0.70687 0.0
H811 H 0.81536 0.61257 0.74512 0.0
C812 C 0.80719 0.57567 0.76958 0.0
C813 C 0.79673 0.53837 0.77636 0.0
C814 C 0.78739 0.53201 0.70228 0.0
C815 C 0.79667 0.55391 0.73678 0.0
C816 C 0.78849 0.54033 0.6826 0.0
C817 C 0.79871 0.57803 0.67622 0.0
C818 C 0.79663 0.56157 0.71571 0.0
C819 C 0.80724 0.60683 0.69012 0.0
C820 C 0.80717 0.58352 0.74992 0.0
C821 C 0.78643 0.50948 0.76278 0.0
N822 N 0.80609 0.59798 0.70913 0.0
N823 N 0.78668 0.51784 0.74365 0.0
H824 H 0.86874 0.88805 0.05811 0.0
H825 H 0.72748 0.94915 0.97391 0.0
H826 H 0.74871 0.90796 0.06628 0.0
H827 H 0.84554 0.92032 0.96495 0.0
H828 H 0.73307 0.92706 0.00712 0.0
H829 H 0.85922 0.89188 0.02341 0.0
C830 C 0.84028 0.89263 0.05261 0.0
C831 C 0.80957 0.89827 0.06514 0.0
C832 C 0.75766 0.92517 0.99784 0.0
C833 C 0.79854 0.90317 0.02542 0.0
C834 C 0.7545 0.93785 0.97887 0.0
C835 C 0.78623 0.93707 0.9667 0.0
C836 C 0.79288 0.91186 0.00475 0.0
C837 C 0.82043 0.9218 0.97387 0.0
C838 C 0.83486 0.8949 0.03277 0.0
C839 C 0.77329 0.90383 0.05717 0.0
N840 N 0.82295 0.9102 0.99248 0.0
N841 N 0.76887 0.90668 0.03783 0.0
H842 H 0.30225 0.5492 0.72061 0.0
H843 H 0.35941 0.46367 0.82319 0.0
H844 H 0.34157 0.43019 0.72816 0.0
H845 H 0.33049 0.58477 0.81233 0.0
H846 H 0.35683 0.45069 0.78851 0.0
H847 H 0.31489 0.56237 0.7543 0.0
C848 C 0.31353 0.52574 0.72938 0.0
C849 C 0.32066 0.48844 0.72157 0.0
C850 C 0.35147 0.48015 0.79375 0.0
C851 C 0.33537 0.50343 0.76037 0.0
C852 C 0.3531 0.48762 0.81351 0.0
C853 C 0.34473 0.52526 0.82065 0.0
C854 C 0.34137 0.51056 0.78117 0.0
C855 C 0.3367 0.55519 0.8075 0.0
C856 C 0.32093 0.53336 0.74866 0.0
C857 C 0.33556 0.45933 0.73364 0.0
N858 N 0.33492 0.54711 0.78845 0.0
N859 N 0.34225 0.46738 0.75253 0.0
H860 H 0.70824 0.12969 0.57608 0.0
H861 H 0.74191 0.02707 0.47366 0.0
H862 H 0.74085 1.00854 0.56809 0.0
H863 H 0.70214 0.14633 0.47985 0.0
H864 H 0.74527 0.02171 0.50848 0.0
H865 H 0.70961 0.13843 0.5411 0.0
C866 C 0.71591 0.10504 0.567 0.0
C867 C 0.72426 0.06829 0.57501 0.0
C868 C 0.73585 0.04912 0.50227 0.0
C869 C 0.7258 0.07801 0.53511 0.0
C870 C 0.73391 0.0522 0.48234 0.0
C871 C 0.72156 0.08716 0.4738 0.0
C872 C 0.72535 0.08121 0.51385 0.0
C873 C 0.71172 0.11877 0.48583 0.0
C874 C 0.7166 0.11001 0.54705 0.0
C875 C 0.73399 0.03736 0.56258 0.0
N876 N 0.71373 0.11502 0.50526 0.0
N877 N 0.7344 0.04291 0.5433 0.0
H878 H 0.13157 0.47981 0.24131 0.0
H879 H 0.28354 0.46508 0.32665 0.0
H880 H 0.25201 0.4994 0.23402 0.0
H881 H 0.16263 0.47073 0.33665 0.0
H882 H 0.27208 0.47462 0.2924 0.0
H883 H 0.14182 0.47376 0.27603 0.0
C884 C 0.16013 0.48298 0.24699 0.0
C885 C 0.19098 0.49006 0.2347 0.0
C886 C 0.24802 0.47391 0.30207 0.0
C887 C 0.20291 0.48287 0.27438 0.0
C888 C 0.25454 0.46834 0.32165 0.0
C889 C 0.22399 0.46703 0.33457 0.0
C890 C 0.21063 0.47788 0.29524 0.0
C891 C 0.18704 0.47158 0.32722 0.0
C892 C 0.16593 0.47956 0.26682 0.0
C893 C 0.22734 0.49395 0.2429 0.0
N894 N 0.18136 0.47661 0.30803 0.0
N895 N 0.23229 0.49009 0.26217 0.0
H896 H 0.72714 0.51318 0.44407 0.0
H897 H 0.74025 0.60816 0.54987 0.0
H898 H 0.73894 0.63745 0.45512 0.0
H899 H 0.71039 0.48682 0.53922 0.0
H900 H 0.74637 0.61803 0.51519 0.0
H901 H 0.72699 0.5015 0.4789 0.0
C902 C 0.72986 0.53794 0.45383 0.0
C903 C 0.73291 0.57632 0.44674 0.0
C904 C 0.7386 0.5892 0.52045 0.0
C905 C 0.7329 0.56331 0.4865 0.0
C906 C 0.73522 0.58352 0.54027 0.0
C907 C 0.72456 0.54667 0.5475 0.0
C908 C 0.73147 0.55776 0.50771 0.0
C909 C 0.71845 0.51581 0.53432 0.0
C910 C 0.72972 0.53131 0.47369 0.0
C911 C 0.73638 0.60738 0.45999 0.0
N912 N 0.72189 0.52207 0.5151 0.0
N913 N 0.73626 0.60022 0.47919 0.0
H914 H 0.22133 0.88252 0.67914 0.0
H915 H 0.138 0.05275 0.74642 0.0
H916 H 0.15681 0.98175 0.65892 0.0
H917 H 0.235 0.98317 0.76277 0.0
H918 H 0.13224 0.01408 0.71688 0.0
H919 H 0.21555 0.90797 0.71217 0.0
C920 C 0.20573 0.90942 0.68167 0.0
C921 C 0.18989 0.93033 0.66629 0.0
C922 C 0.15442 1.00688 0.72707 0.0
C923 C 0.18261 0.95896 0.70381 0.0
C924 C 0.15764 0.02882 0.74395 0.0
C925 C 0.18742 0.02161 0.7569 0.0
C926 C 0.18109 0.97739 0.72311 0.0
C927 C 0.21165 0.98976 0.75316 0.0
C928 C 0.20246 0.92387 0.70046 0.0
C929 C 0.1699 0.96497 0.67032 0.0
N930 N 0.20832 0.96912 0.73644 0.0
N931 N 0.16684 0.97817 0.68867 0.0
H932 H 0.75973 0.53004 0.94896 0.0
H933 H 0.81552 0.37682 0.03137 0.0
H934 H 0.80654 0.41556 0.93687 0.0
H935 H 0.76246 0.48883 0.04231 0.0
H936 H 0.8109 0.38918 0.99681 0.0
H937 H 0.75897 0.51425 0.98309 0.0
C938 C 0.76973 0.50145 0.95346 0.0
C939 C 0.78336 0.47415 0.93995 0.0
C940 C 0.8001 0.41097 0.00677 0.0
C941 C 0.78272 0.45586 0.97929 0.0
C942 C 0.80271 0.40393 0.02653 0.0
C943 C 0.7895 0.43189 0.03984 0.0
C944 C 0.78428 0.4463 1.00018 0.0
C945 C 0.77313 0.46644 0.03265 0.0
C946 C 0.76927 0.49244 0.97301 0.0
C947 C 0.79582 0.43754 0.94673 0.0
N948 N 0.77117 0.4727 0.01337 0.0
N949 N 0.79539 0.42955 0.96592 0.0
H950 H 0.23564 0.99787 0.18021 0.0
H951 H 0.34498 0.04192 0.27763 0.0
H952 H 0.34956 0.04545 0.18142 0.0
H953 H 0.25471 0.95588 0.27362 0.0
H954 H 0.34583 0.04609 0.24254 0.0
H955 H 0.24058 0.98423 0.21461 0.0
C956 C 0.26181 1.00513 0.18769 0.0
C957 C 0.29217 0.02298 0.17798 0.0
C958 C 0.32609 0.02604 0.24935 0.0
C959 C 0.29781 1.00797 0.21733 0.0
C960 C 0.32548 0.02376 0.26937 0.0
C961 C 0.29958 0.99869 0.27855 0.0
C962 C 0.30019 1.00359 0.23847 0.0
C963 C 0.2751 0.97566 0.26713 0.0
C964 C 0.26464 0.99726 0.20729 0.0
C965 C 0.32548 0.03164 0.18835 0.0
N966 N 0.2757 0.97901 0.24768 0.0
N967 N 0.32724 0.02452 0.20754 0.0
H968 H 0.25641 0.48228 0.45884 0.0
H969 H 0.29597 0.38533 0.56164 0.0
H970 H 0.32504 0.37875 0.46694 0.0
H971 H 0.23809 0.49572 0.55374 0.0
H972 H 0.30039 0.37809 0.52672 0.0
H973 H 0.24302 0.48328 0.49326 0.0
C974 C 0.2685 0.4596 0.46783 0.0
C975 C 0.2922 0.4306 0.46 0.0
C976 C 0.2865 0.40377 0.53264 0.0
C977 C 0.27699 0.43161 0.49948 0.0
C978 C 0.28387 0.40787 0.55258 0.0
C979 C 0.26689 0.44133 0.56065 0.0
C980 C 0.27197 0.4333 0.52066 0.0
C981 C 0.25166 0.46955 0.54818 0.0
C982 C 0.26085 0.46022 0.4875 0.0
C983 C 0.30683 0.40183 0.47236 0.0
N984 N 0.25474 0.46499 0.52884 0.0
N985 N 0.29917 0.4032 0.49149 0.0
H986 H 0.84292 0.05769 0.31627 0.0
H987 H 0.76074 0.93678 0.22656 0.0
H988 H 0.74341 0.98324 0.31933 0.0
H989 H 0.83244 0.03942 0.22089 0.0
H990 H 0.76273 0.94495 0.26149 0.0
H991 H 0.8478 0.04274 0.28194 0.0
C992 C 0.82226 0.03803 0.30974 0.0
C993 C 0.79252 0.02193 0.32056 0.0
C994 C 0.77813 0.96553 0.25257 0.0
C995 C 0.79809 1.00458 0.28151 0.0
C996 C 0.77712 0.96084 0.23267 0.0
C997 C 0.79616 0.98771 0.22085 0.0
C998 C 0.79865 0.99703 0.26063 0.0
C999 C 0.81705 0.01828 0.22949 0.0
C1000 C 0.82501 0.02961 0.29018 0.0
C1001 C 0.76655 0.99658 0.31143 0.0
N1002 N 0.81769 0.02216 0.2489 0.0
N1003 N 0.76992 0.98868 0.29239 0.0
H1004 H 0.20293 0.61081 0.06988 0.0
H1005 H 0.30629 0.52908 0.97548 0.0
H1006 H 0.27931 0.5119 0.06968 0.0
H1007 H 0.2044 0.59922 0.97319 0.0
H1008 H 0.30357 0.5311 0.01055 0.0
H1009 H 0.21 0.61552 0.03483 0.0
C1010 C 0.22143 0.59037 0.0625 0.0
C1011 C 0.24036 0.56077 0.07266 0.0
C1012 C 0.28186 0.54613 1.00237 0.0
C1013 C 0.2487 0.56608 0.03277 0.0
C1014 C 0.28343 0.54506 0.98234 0.0
C1015 C 0.25536 0.56376 0.97137 0.0
C1016 C 0.25223 0.56637 0.01154 0.0
C1017 C 0.22647 0.58412 0.98108 0.0
C1018 C 0.2253 0.59294 0.04253 0.0
C1019 C 0.26392 0.53497 0.0624 0.0
N1020 N 0.22564 0.58489 1.00062 0.0
N1021 N 0.26742 0.53824 0.04305 0.0
H1022 H 0.63205 0.9573 0.7403 0.0
H1023 H 0.77879 0.98355 0.82765 0.0
H1024 H 0.74662 1.00162 0.73446 0.0
H1025 H 0.6612 0.95098 0.83585 0.0
H1026 H 0.76775 0.98653 0.79317 0.0
H1027 H 0.64218 0.95186 0.77505 0.0
C1028 C 0.65928 0.96596 0.74631 0.0
C1029 C 0.68853 0.97997 0.73443 0.0
C1030 C 0.7443 0.97867 0.80246 0.0
C1031 C 0.70034 0.97359 0.7741 0.0
C1032 C 0.75062 0.97685 0.8222 0.0
C1033 C 0.72083 0.96712 0.83469 0.0
C1034 C 0.70791 0.97066 0.79504 0.0
C1035 C 0.68497 0.95865 0.82674 0.0
C1036 C 0.66503 0.96281 0.76613 0.0
C1037 C 0.72322 0.99072 0.74301 0.0
N1038 N 0.67946 0.9607 0.80739 0.0
N1039 N 0.72814 0.98723 0.76227 0.0
H1040 H 0.60696 0.05552 0.9763 0.0
H1041 H 0.41766 0.04826 0.04037 0.0
H1042 H 0.49655 0.02312 0.95404 0.0
H1043 H 0.52648 0.0884 0.06155 0.0
H1044 H 0.44509 0.04227 0.0081 0.0
H1045 H 0.57781 0.06864 0.00767 0.0
C1046 C 0.57667 0.05103 0.97806 0.0
C1047 C 0.55412 0.03857 0.96253 0.0
C1048 C 0.46287 0.05277 0.01978 0.0
C1049 C 0.52047 0.05375 0.99821 0.0
C1050 C 0.44708 0.05655 0.03813 0.0
C1051 C 0.46995 0.06846 0.05362 0.0
C1052 C 0.50176 0.06093 0.017 0.0
C1053 C 0.50803 0.07856 0.05 0.0
C1054 C 0.55995 0.0588 0.99588 0.0
C1055 C 0.51491 0.03335 0.96555 0.0
N1056 N 0.52283 0.0742 0.03213 0.0
N1057 N 0.49937 0.04094 0.983 0.0
H1058 H 0.67077 0.6686 0.27357 0.0
H1059 H 0.81772 0.7902 0.21031 0.0
H1060 H 0.79215 0.65564 0.27808 0.0
H1061 H 0.69599 0.79414 0.20394 0.0
H1062 H 0.80968 0.7542 0.24059 0.0
H1063 H 0.68012 0.72755 0.25417 0.0
C1064 C 0.69943 0.67907 0.27099 0.0
C1065 C 0.73073 0.65742 0.27746 0.0
C1066 C 0.7847 0.76385 0.23284 0.0
C1067 C 0.74186 0.724 0.25457 0.0
C1068 C 0.78931 0.78473 0.21567 0.0
C1069 C 0.75744 0.79503 0.20465 0.0
C1070 C 0.74796 0.75324 0.23895 0.0
C1071 C 0.72126 0.78664 0.21203 0.0
C1072 C 0.70484 0.71251 0.25975 0.0
C1073 C 0.76731 0.6718 0.27349 0.0
N1074 N 0.71752 0.76585 0.22855 0.0
N1075 N 0.77191 0.70378 0.26198 0.0
H1076 H 0.96211 0.95198 0.44621 0.0
H1077 H 0.0112 0.04184 0.54994 0.0
H1078 H 0.93763 0.07165 0.46244 0.0
H1079 H 0.03688 0.92277 0.53298 0.0
H1080 H 0.98242 0.0529 0.51844 0.0
H1081 H 0.98589 0.93972 0.47863 0.0
C1082 C 0.96124 0.97552 0.45674 0.0
C1083 C 0.94805 0.01295 0.45163 0.0
C1084 C 0.9944 0.02437 0.52157 0.0
C1085 C 0.97581 0.99932 0.48874 0.0
C1086 C 0.0109 0.01803 0.53955 0.0
C1087 C 0.02643 0.98125 0.54415 0.0
C1088 C 0.99332 0.99372 0.50801 0.0
C1089 C 0.02563 0.95168 0.53002 0.0
C1090 C 0.97501 0.96858 0.47522 0.0
C1091 C 0.94733 0.04233 0.46583 0.0
N1092 N 0.00922 0.95851 0.51264 0.0
N1093 N 0.96141 0.03501 0.4837 0.0
H1094 H 0.81485 0.24518 0.70755 0.0
H1095 H 0.70532 0.31221 0.80301 0.0
H1096 H 0.69717 0.21774 0.71868 0.0
H1097 H 0.8231 0.33947 0.79223 0.0
H1098 H 0.7012 0.27992 0.77162 0.0
H1099 H 0.81853 0.27972 0.7384 0.0
C1100 C 0.78986 0.24607 0.7166 0.0
C1101 C 0.7556 0.22855 0.71047 0.0
C1102 C 0.72788 0.29326 0.77598 0.0
C1103 C 0.75951 0.26859 0.74582 0.0
C1104 C 0.73017 0.31197 0.79385 0.0
C1105 C 0.76464 0.32854 0.80026 0.0
C1106 C 0.76034 0.29083 0.76435 0.0
C1107 C 0.79591 0.32741 0.7878 0.0
C1108 C 0.79194 0.26598 0.73418 0.0
C1109 C 0.72424 0.23043 0.72287 0.0
N1110 N 0.79312 0.30853 0.77052 0.0
N1111 N 0.72688 0.25032 0.73987 0.0
H1112 H 0.27886 0.16148 0.77763 0.0
H1113 H 0.18665 0.29674 0.69744 0.0
H1114 H 0.15904 0.16767 0.76509 0.0
H1115 H 0.30739 0.28691 0.70638 0.0
H1116 H 0.1757 0.26338 0.72797 0.0
H1117 H 0.28934 0.21985 0.75766 0.0
C1118 C 0.25462 0.17597 0.77121 0.0
C1119 C 0.21807 0.15967 0.77287 0.0
C1120 C 0.20466 0.26929 0.72357 0.0
C1121 C 0.22982 0.22581 0.74975 0.0
C1122 C 0.21085 0.28868 0.70622 0.0
C1123 C 0.24793 0.29457 0.69948 0.0
C1124 C 0.23579 0.25487 0.73407 0.0
C1125 C 0.27837 0.28311 0.71121 0.0
C1126 C 0.26062 0.20906 0.75967 0.0
C1127 C 0.1877 0.17922 0.76405 0.0
N1128 N 0.27166 0.26307 0.72778 0.0
N1129 N 0.1943 0.21086 0.75268 0.0
H1130 H 0.21882 0.78547 0.20069 0.0
H1131 H 0.30512 0.75265 0.30592 0.0
H1132 H 0.27098 0.67725 0.21869 0.0
H1133 H 0.25048 0.86004 0.28862 0.0
H1134 H 0.29465 0.72556 0.2738 0.0
H1135 H 0.23005 0.81321 0.23264 0.0
C1136 C 0.23249 0.76744 0.21145 0.0
C1137 C 0.24428 0.72904 0.20697 0.0
C1138 C 0.28504 0.7551 0.27693 0.0
C1139 C 0.25742 0.76083 0.24368 0.0
C1140 C 0.29111 0.77066 0.29526 0.0
C1141 C 0.27829 0.80855 0.30001 0.0
C1142 C 0.26596 0.77749 0.26309 0.0
C1143 C 0.26084 0.83076 0.28556 0.0
C1144 C 0.23895 0.78336 0.22969 0.0
C1145 C 0.26134 0.70687 0.22154 0.0
N1146 N 0.25491 0.81477 0.26778 0.0
N1147 N 0.26764 0.72319 0.23921 0.0
H1148 H 0.97628 0.46068 0.55679 0.0
H1149 H 0.06014 0.57844 0.467 0.0
H1150 H 0.96667 0.58625 0.55023 0.0
H1151 H 0.06821 0.45269 0.4733 0.0
H1152 H 0.02839 0.58233 0.49814 0.0
H1153 H 0.01043 0.45726 0.52633 0.0
C1154 C 0.9811 0.4875 0.54882 0.0
C1155 C 0.96871 0.52383 0.55605 0.0
C1156 C 0.0374 0.55392 0.49282 0.0
C1157 C 0.00812 0.52021 0.52126 0.0
C1158 C 0.05569 0.55171 0.4751 0.0
C1159 C 0.06669 0.51517 0.46755 0.0
C1160 C 0.02992 0.5193 0.50305 0.0
C1161 C 0.06049 0.48149 0.47866 0.0
C1162 C 1.00071 0.48556 0.53147 0.0
C1163 C 0.97541 0.55762 0.54508 0.0
N1164 N 0.04221 0.48433 0.49579 0.0
N1165 N 0.99488 0.55502 0.52828 0.0
H1166 H 0.46979 0.46153 0.04803 0.0
H1167 H 0.51032 0.55926 0.94574 0.0
H1168 H 0.57949 0.50555 0.03056 0.0
H1169 H 0.40478 0.5006 0.95908 0.0
H1170 H 0.53397 0.54411 0.97777 0.0
H1171 H 0.4441 0.47833 0.01643 0.0
C1172 C 0.48851 0.47471 0.03751 0.0
C1173 C 0.52685 0.48236 0.04199 0.0
C1174 C 0.50561 0.53456 0.97378 0.0
C1175 C 0.4975 0.50177 0.00576 0.0
C1176 C 0.49202 0.54326 0.95548 0.0
C1177 C 0.45568 0.53066 0.94961 0.0
C1178 C 0.48273 0.51317 0.98651 0.0
C1179 C 0.43295 0.51081 0.963 0.0
C1180 C 0.4738 0.48422 0.01947 0.0
C1181 C 0.54987 0.49893 0.02771 0.0
N1182 N 0.44696 0.50242 0.98081 0.0
N1183 N 0.53478 0.50829 0.0103 0.0
H1184 H 0.31561 0.76912 0.14653 0.0
H1185 H 0.20278 0.94846 0.10525 0.0
H1186 H 0.19963 0.75996 0.12686 0.0
H1187 H 0.3252 0.94817 0.10962 0.0
H1188 H 0.2023 0.87744 0.10993 0.0
H1189 H 0.32203 0.83148 0.12946 0.0
C1190 C 0.29189 0.77976 0.13809 0.0
C1191 C 0.25699 0.75968 0.13814 0.0
C1192 C 0.22934 0.89275 0.10957 0.0
C1193 C 0.26361 0.8314 0.11914 0.0
C1194 C 0.22961 0.93336 0.10701 0.0
C1195 C 0.26404 0.95431 0.10734 0.0
C1196 C 0.26371 0.87297 0.11283 0.0
C1197 C 0.29798 0.9332 0.10941 0.0
C1198 C 0.29546 0.8154 0.12842 0.0
C1199 C 0.22703 0.7746 0.1271 0.0
N1200 N 0.29692 0.89374 0.11242 0.0
N1201 N 0.23075 0.81005 0.11838 0.0
H1202 H 0.03285 0.59658 0.41004 0.0
H1203 H 0.84819 0.49859 0.3671 0.0
H1204 H 0.02873 0.47978 0.38577 0.0
H1205 H 0.85356 0.62057 0.38418 0.0
H1206 H 0.91716 0.49538 0.3685 0.0
H1207 H 0.97175 0.61093 0.39481 0.0
C1208 C 0.0196 0.57439 0.40099 0.0
C1209 C 0.03541 0.53668 0.39947 0.0
C1210 C 0.90345 0.52306 0.37173 0.0
C1211 C 0.96534 0.55254 0.38237 0.0
C1212 C 0.86397 0.52483 0.37107 0.0
C1213 C 0.84513 0.5597 0.37595 0.0
C1214 C 0.92437 0.55619 0.37769 0.0
C1215 C 0.86702 0.59299 0.38055 0.0
C1216 C 0.98467 0.58252 0.39237 0.0
C1217 C 0.01744 0.50914 0.38743 0.0
N1218 N 0.90555 0.59023 0.38167 0.0
N1219 N 0.98291 0.51732 0.3797 0.0
H1220 H 0.17331 0.05419 0.60089 0.0
H1221 H 0.30109 0.24536 0.62064 0.0
H1222 H 0.29591 0.05543 0.60236 0.0
H1223 H 0.1867 0.23286 0.64203 0.0
H1224 H 0.29446 0.18211 0.60413 0.0
H1225 H 0.17363 0.12566 0.60676 0.0
C1226 C 0.20022 0.06965 0.60203 0.0
C1227 C 0.23465 0.04905 0.60137 0.0
C1228 C 0.27057 0.19357 0.61215 0.0
C1229 C 0.23521 0.13012 0.60782 0.0
C1230 C 0.27421 0.2298 0.62144 0.0
C1231 C 0.24452 0.24413 0.63288 0.0
C1232 C 0.23696 0.17161 0.61423 0.0
C1233 C 0.21044 0.2225 0.63356 0.0
C1234 C 0.20038 0.11024 0.60545 0.0
C1235 C 0.26876 0.07027 0.60302 0.0
N1236 N 0.20768 0.18706 0.62453 0.0
N1237 N 0.26819 0.1096 0.60624 0.0
H1238 H 0.68413 0.45948 0.87455 0.0
H1239 H 0.49788 0.58653 0.87181 0.0
H1240 H 0.67807 0.56377 0.83979 0.0
H1241 H 0.49986 0.4649 0.88862 0.0
H1242 H 0.56111 0.57848 0.85727 0.0
H1243 H 0.61523 0.46023 0.8779 0.0
C1244 C 0.66813 0.48237 0.86744 0.0
C1245 C 0.6868 0.51171 0.85697 0.0
C1246 C 0.54723 0.55329 0.86366 0.0
C1247 C 0.60755 0.51331 0.86104 0.0
C1248 C 0.51101 0.55779 0.87179 0.0
C1249 C 0.49379 0.52636 0.88149 0.0
C1250 C 0.5663 0.51723 0.86551 0.0
C1251 C 0.51228 0.48991 0.88135 0.0
C1252 C 0.62869 0.48274 0.86929 0.0
C1253 C 0.66465 0.54055 0.84796 0.0
N1254 N 0.54772 0.48654 0.87384 0.0
N1255 N 0.62616 0.5411 0.8505 0.0
H1256 H 0.80527 0.10769 0.91531 0.0
H1257 H 0.69896 0.27838 0.85853 0.0
H1258 H 0.69755 0.09399 0.88607 0.0
H1259 H 0.8128 0.28976 0.88105 0.0
H1260 H 0.69227 0.21567 0.87516 0.0
H1261 H 0.80315 0.17833 0.90893 0.0
C1262 C 0.78095 0.11955 0.90777 0.0
C1263 C 0.75181 0.09474 0.90096 0.0
C1264 C 0.7185 0.23215 0.87677 0.0
C1265 C 0.74921 0.17553 0.89367 0.0
C1266 C 0.72222 0.26801 0.86737 0.0
C1267 C 0.75663 0.28894 0.86825 0.0
C1268 C 0.74955 0.21688 0.887 0.0
C1269 C 0.7858 0.27447 0.88 0.0
C1270 C 0.77978 0.15989 0.90412 0.0
C1271 C 0.72095 0.11183 0.89134 0.0
N1272 N 0.78187 0.23892 0.88866 0.0
N1273 N 0.72063 0.15105 0.88785 0.0
H1274 H 0.16946 0.50504 0.6707 0.0
H1275 H 0.98337 0.43699 0.61415 0.0
H1276 H 0.16466 0.41718 0.62587 0.0
H1277 H 0.99718 0.55248 0.63895 0.0
H1278 H 0.04174 0.41617 0.63023 0.0
H1279 H 0.09972 0.50967 0.66965 0.0
C1280 C 0.15364 0.48607 0.66099 0.0
C1281 C 0.17264 0.46115 0.64812 0.0
C1282 C 0.03137 0.44572 0.63265 0.0
C1283 C 0.09349 0.46579 0.6471 0.0
C1284 C 0.99796 0.45748 0.62362 0.0
C1285 C 0.98604 0.49666 0.62498 0.0
C1286 C 0.05296 0.47342 0.643 0.0
C1287 C 1.00571 0.52208 0.63747 0.0
C1288 C 0.114 0.48877 0.66039 0.0
C1289 C 0.15102 0.43723 0.63579 0.0
N1290 N 0.03888 0.5103 0.64567 0.0
N1291 N 0.11259 0.44034 0.6355 0.0
H1292 H 0.81961 0.93253 0.3831 0.0
H1293 H 0.69585 0.73578 0.39221 0.0
H1294 H 0.7075 0.93218 0.40818 0.0
H1295 H 0.81799 0.73688 0.38666 0.0
H1296 H 0.69685 0.80798 0.39435 0.0
H1297 H 0.81691 0.86101 0.38078 0.0
C1298 C 0.7944 0.91745 0.38817 0.0
C1299 C 0.76378 0.93856 0.39592 0.0
C1300 C 0.72336 0.79231 0.39264 0.0
C1301 C 0.76037 0.85626 0.39306 0.0
C1302 C 0.7228 0.75117 0.3913 0.0
C1303 C 0.7569 0.73022 0.38928 0.0
C1304 C 0.75821 0.81262 0.39166 0.0
C1305 C 0.79102 0.75171 0.38829 0.0
C1306 C 0.79292 0.87652 0.38685 0.0
C1307 C 0.73191 0.91717 0.40225 0.0
N1308 N 0.79077 0.7916 0.38942 0.0
N1309 N 0.73092 0.87722 0.40057 0.0
H1310 H 0.49945 0.43311 0.12387 0.0
H1311 H 0.33488 0.58757 0.13725 0.0
H1312 H 0.50503 0.55289 0.10428 0.0
H1313 H 0.3344 0.4763 0.16653 0.0
H1314 H 0.40175 0.57843 0.12949 0.0
H1315 H 0.4446 0.45042 0.144 0.0
C1316 C 0.48987 0.46332 0.12432 0.0
C1317 C 0.5064 0.49159 0.11232 0.0
C1318 C 0.38745 0.5562 0.13793 0.0
C1319 C 0.44353 0.51143 0.13487 0.0
C1320 C 0.34924 0.56152 0.14238 0.0
C1321 C 0.32922 0.53258 0.15246 0.0
C1322 C 0.40565 0.52108 0.14309 0.0
C1323 C 0.34904 0.49935 0.15879 0.0
C1324 C 0.45844 0.47315 0.13569 0.0
C1325 C 0.49277 0.53019 0.11322 0.0
N1326 N 0.38605 0.49405 0.15364 0.0
N1327 N 0.46183 0.53882 0.12403 0.0
H1328 H 0.70561 0.43809 0.60495 0.0
H1329 H 0.82376 0.2695 0.6505 0.0
H1330 H 0.82777 0.44506 0.60893 0.0
H1331 H 0.71058 0.25203 0.62797 0.0
H1332 H 0.82916 0.32994 0.63174 0.0
H1333 H 0.70893 0.36723 0.60961 0.0
C1334 C 0.73322 0.42443 0.6065 0.0
C1335 C 0.76643 0.44728 0.6068 0.0
C1336 C 0.80355 0.31234 0.63047 0.0
C1337 C 0.77051 0.36632 0.61259 0.0
C1338 C 0.80046 0.27787 0.64118 0.0
C1339 C 0.76645 0.25611 0.641 0.0
C1340 C 0.77212 0.32541 0.61982 0.0
C1341 C 0.73726 0.26797 0.62858 0.0
C1342 C 0.73516 0.38396 0.60909 0.0
C1343 C 0.80153 0.4283 0.60867 0.0
N1344 N 0.74043 0.3023 0.61882 0.0
N1345 N 0.80264 0.3889 0.61197 0.0
H1346 H 0.5337 0.10867 0.89842 0.0
H1347 H 0.34618 1.00186 0.86545 0.0
H1348 H 0.52753 0.98562 0.88383 0.0
H1349 H 0.35503 0.1279 0.8712 0.0
H1350 H 0.41516 0.9973 0.8666 0.0
H1351 H 0.47292 0.11901 0.88212 0.0
C1352 C 0.52019 0.08414 0.89108 0.0
C1353 C 0.53525 0.04616 0.89265 0.0
C1354 C 0.40219 0.02607 0.86736 0.0
C1355 C 0.46525 0.05737 0.87462 0.0
C1356 C 0.3627 0.02867 0.86685 0.0
C1357 C 0.34483 0.06528 0.86862 0.0
C1358 C 0.42411 0.06026 0.87003 0.0
C1359 C 0.36769 0.09906 0.87001 0.0
C1360 C 0.48533 0.08994 0.88193 0.0
C1361 C 0.51677 0.01533 0.88298 0.0
N1362 N 0.40618 0.09568 0.87104 0.0
N1363 N 0.4822 0.02141 0.87478 0.0
H1364 H 0.68818 0.74126 0.14775 0.0
H1365 H 0.79798 0.56798 0.09986 0.0
H1366 H 0.79922 0.75571 0.12253 0.0
H1367 H 0.67579 0.56556 0.10413 0.0
H1368 H 0.79743 0.63863 0.10591 0.0
H1369 H 0.68037 0.6795 0.12986 0.0
C1370 C 0.71055 0.73184 0.13813 0.0
C1371 C 0.74459 0.75337 0.1368 0.0
C1372 C 0.77059 0.62297 0.10517 0.0
C1373 C 0.73607 0.6827 0.11654 0.0
C1374 C 0.77094 0.58264 0.10176 0.0
C1375 C 0.73691 0.56115 0.10162 0.0
C1376 C 0.736 0.6418 0.10906 0.0
C1377 C 0.7026 0.58133 0.10411 0.0
C1378 C 0.70603 0.69669 0.12789 0.0
C1379 C 0.77251 0.74009 0.12399 0.0
N1380 N 0.70304 0.62055 0.10817 0.0
N1381 N 0.76795 0.70523 0.11466 0.0
H1382 H 0.18158 0.03949 0.33921 0.0
H1383 H 0.99956 0.95194 0.39315 0.0
H1384 H 0.18421 0.94525 0.3804 0.0
H1385 H 1.00445 0.07241 0.3744 0.0
H1386 H 0.06202 0.94065 0.37894 0.0
H1387 H 0.11213 0.04385 0.34348 0.0
C1388 C 0.16745 0.01927 0.34885 0.0
C1389 C 0.18858 0.99215 0.35959 0.0
C1390 C 0.04915 0.96938 0.37761 0.0
C1391 C 0.10967 0.99658 0.36427 0.0
C1392 C 0.01345 0.97578 0.38561 0.0
C1393 C 0.99712 0.01332 0.3852 0.0
C1394 C 0.06879 1.0007 0.36907 0.0
C1395 C 0.01613 0.04307 0.37506 0.0
C1396 C 0.12798 0.0219 0.35132 0.0
C1397 C 0.16903 0.96682 0.37198 0.0
N1398 N 0.05136 0.03631 0.36763 0.0
N1399 N 0.13076 0.96966 0.37398 0.0
H1400 H 0.32268 0.7745 0.37905 0.0
H1401 H 0.19734 0.5834 0.40004 0.0
H1402 H 0.20639 0.76304 0.36007 0.0
H1403 H 0.31803 0.58236 0.38913 0.0
H1404 H 0.19767 0.65527 0.3962 0.0
H1405 H 0.31754 0.71043 0.39477 0.0
C1406 C 0.29564 0.75913 0.37884 0.0
C1407 C 0.26497 0.77368 0.36819 0.0
C1408 C 0.22406 0.63919 0.39494 0.0
C1409 C 0.25909 0.70065 0.38579 0.0
C1410 C 0.22391 0.59838 0.39708 0.0
C1411 C 0.25762 0.5771 0.39458 0.0
C1412 C 0.25831 0.65861 0.39076 0.0
C1413 C 0.29134 0.59771 0.39083 0.0
C1414 C 0.29285 0.7225 0.38761 0.0
C1415 C 0.23067 0.75249 0.36809 0.0
N1416 N 0.29084 0.63738 0.38901 0.0
N1417 N 0.22874 0.71666 0.37656 0.0
H1418 H 0.50415 0.07384 0.13776 0.0
H1419 H 0.67367 0.92774 0.12225 0.0
H1420 H 0.49614 0.96773 0.10393 0.0
H1421 H 0.67677 0.01923 0.16537 0.0
H1422 H 0.60517 0.93613 0.1194 0.0
H1423 H 0.56248 0.04883 0.15266 0.0
C1424 C 0.51396 0.04465 0.13403 0.0
C1425 C 0.49583 0.02294 0.11947 0.0
C1426 C 0.62059 0.95405 0.12973 0.0
C1427 C 0.56268 0.99467 0.13593 0.0
C1428 C 0.65978 0.94935 0.13128 0.0
C1429 C 0.68092 0.97328 0.14382 0.0
C1430 C 0.60244 0.98357 0.14046 0.0
C1431 C 0.66146 1.00038 0.15541 0.0
C1432 C 0.54739 0.0305 0.14239 0.0
C1433 C 0.50971 0.98548 0.11497 0.0
N1434 N 0.62334 1.00539 0.15317 0.0
N1435 N 0.54271 0.97285 0.12288 0.0
H1436 H 0.22113 0.44055 0.91203 0.0
H1437 H 0.31077 0.25088 0.8619 0.0
H1438 H 0.30141 0.4462 0.86532 0.0
H1439 H 0.20348 0.24577 0.89169 0.0
H1440 H 0.31138 0.32221 0.8659 0.0
H1441 H 0.21797 0.36875 0.90786 0.0
C1442 C 0.23823 0.42677 0.901 0.0
C1443 C 0.26163 0.44957 0.88904 0.0
C1444 C 0.28756 0.30557 0.87148 0.0
C1445 C 0.25824 0.36757 0.88426 0.0
C1446 C 0.28721 0.26479 0.86921 0.0
C1447 C 0.25696 0.24227 0.87641 0.0
C1448 C 0.25778 0.32419 0.88132 0.0
C1449 C 0.22723 0.26201 0.88579 0.0
C1450 C 0.23622 0.38585 0.89855 0.0
C1451 C 0.28293 0.43004 0.87488 0.0
N1452 N 0.22852 0.30184 0.88812 0.0
N1453 N 0.28088 0.39032 0.87298 0.0
H1454 H 0.99448 0.92933 0.6254 0.0
H1455 H 0.83028 0.08425 0.63659 0.0
H1456 H 1.00292 0.04954 0.60664 0.0
H1457 H 0.82946 0.97513 0.66778 0.0
H1458 H 0.89718 0.07444 0.62912 0.0
H1459 H 0.93888 0.94703 0.64488 0.0
C1460 C 0.98537 0.95969 0.6259 0.0
C1461 C 1.00292 0.98797 0.61426 0.0
C1462 C 0.88277 0.05284 0.63789 0.0
C1463 C 0.93914 1.00824 0.63606 0.0
C1464 C 0.84451 0.05847 0.64214 0.0
C1465 C 0.8244 0.03034 0.6527 0.0
C1466 C 0.90095 0.0182 0.64377 0.0
C1467 C 0.84413 0.99754 0.65962 0.0
C1468 C 0.9535 0.96975 0.6369 0.0
C1469 C 0.98984 0.02679 0.61525 0.0
N1470 N 0.88122 0.9919 0.65469 0.0
N1471 N 0.95843 0.03562 0.62566 0.0
loop_
_geom_bond_atom_site_label_1
_geom_bond_atom_site_label_2
_geom_bond_distance
_geom_bond_site_symmetry_2
_ccdc_geom_bond_type
O0 Tb1 2.292 . S
O0 C3 1.255 . S
Tb1 O0 2.292 . S
Tb1 O17 2.326 . S
Tb1 O19 2.500 . S
Tb1 O20 2.473 . S
Tb1 O23 2.324 . S
Eu2 O6 2.292 . S
Eu2 C7 2.852 . S
Eu2 O18 2.324 . S
Eu2 O22 2.326 . S
Eu2 O24 2.500 . S
Eu2 O25 2.473 . S
C3 O0 1.255 . S
C3 O4 1.247 . S
O4 C3 1.247 . S
C5 O17 1.242 . S
C5 O18 1.258 . S
O6 Eu2 2.292 . S
O6 C8 1.255 . S
C7 Eu2 2.852 . S
C7 C11 1.503 . S
C7 O24 1.273 . S
C7 O25 1.257 . S
C8 O6 1.255 . S
C8 O9 1.247 . S
O9 C8 1.247 . S
C10 O22 1.242 . S
C10 O23 1.258 . S
C11 C7 1.503 . S
C11 C12 1.379 . S
C11 C16 1.392 . S
C12 C11 1.379 . S
C12 C13 1.404 . S
C12 H26 0.929 . S
C13 C12 1.404 . S
C13 C14 1.389 . S
C14 C13 1.389 . S
C14 C15 1.399 . S
C14 H27 0.931 . S
C15 C14 1.399 . S
C15 C16 1.390 . S
C16 C11 1.392 . S
C16 C15 1.390 . S
C16 H28 0.929 . S
O17 Tb1 2.326 . S
O17 C5 1.242 . S
O18 Eu2 2.324 . S
O18 C5 1.258 . S
O19 Tb1 2.500 . S
O19 C21 1.273 . S
O20 Tb1 2.473 . S
O20 C21 1.257 . S
C21 O19 1.273 . S
C21 O20 1.257 . S
O22 Eu2 2.326 . S
O22 C10 1.242 . S
O23 Tb1 2.324 . S
O23 C10 1.258 . S
O24 Eu2 2.500 . S
O24 C7 1.273 . S
O25 Eu2 2.473 . S
O25 C7 1.257 . S
H26 C12 0.929 . S
H27 C14 0.931 . S
H28 C16 0.929 . S
O29 Tb30 2.292 . S
O29 C32 1.255 . S
Tb30 O29 2.292 . S
Tb30 O46 2.326 . S
Tb30 O48 2.500 . S
Tb30 O49 2.473 . S
Tb30 O52 2.324 . S
Eu31 O35 2.292 . S
Eu31 C36 2.852 . S
Eu31 O47 2.324 . S
Eu31 O51 2.326 . S
Eu31 O53 2.500 . S
Eu31 O54 2.473 . S
C32 O29 1.255 . S
C32 O33 1.247 . S
O33 C32 1.247 . S
C34 O46 1.242 . S
C34 O47 1.258 . S
O35 Eu31 2.292 . S
O35 C37 1.255 . S
C36 Eu31 2.852 . S
C36 C40 1.503 . S
C36 O53 1.273 . S
C36 O54 1.257 . S
C37 O35 1.255 . S
C37 O38 1.247 . S
O38 C37 1.247 . S
C39 O51 1.242 . S
C39 O52 1.258 . S
C40 C36 1.503 . S
C40 C41 1.379 . S
C40 C45 1.392 . S
C41 C40 1.379 . S
C41 C42 1.404 . S
C41 H55 0.929 . S
C42 C41 1.404 . S
C42 C43 1.389 . S
C43 C42 1.389 . S
C43 C44 1.399 . S
C43 H56 0.931 . S
C44 C43 1.399 . S
C44 C45 1.390 . S
C45 C40 1.392 . S
C45 C44 1.390 . S
C45 H57 0.929 . S
O46 Tb30 2.326 . S
O46 C34 1.242 . S
O47 Eu31 2.324 . S
O47 C34 1.258 . S
O48 Tb30 2.500 . S
O48 C50 1.273 . S
O49 Tb30 2.473 . S
O49 C50 1.257 . S
C50 O48 1.273 . S
C50 O49 1.257 . S
O51 Eu31 2.326 . S
O51 C39 1.242 . S
O52 Tb30 2.324 . S
O52 C39 1.258 . S
O53 Eu31 2.500 . S
O53 C36 1.273 . S
O54 Eu31 2.473 . S
O54 C36 1.257 . S
H55 C41 0.929 . S
H56 C43 0.931 . S
H57 C45 0.929 . S
O58 Tb59 2.292 . S
O58 C61 1.255 . S
Tb59 O58 2.292 . S
Tb59 O75 2.326 . S
Tb59 O77 2.500 . S
Tb59 O78 2.473 . S
Tb59 O81 2.324 1_565 S
Eu60 O64 2.292 . S
Eu60 C65 2.852 . S
Eu60 O76 2.324 . S
Eu60 O80 2.326 . S
Eu60 O82 2.500 . S
Eu60 O83 2.473 . S
C61 O58 1.255 . S
C61 O62 1.247 . S
O62 C61 1.247 . S
C63 O75 1.242 . S
C63 O76 1.258 . S
O64 Eu60 2.292 . S
O64 C66 1.255 . S
C65 Eu60 2.852 . S
C65 C69 1.503 . S
C65 O82 1.273 . S
C65 O83 1.257 . S
C66 O64 1.255 . S
C66 O67 1.247 . S
O67 C66 1.247 . S
C68 O80 1.242 1_545 S
C68 O81 1.258 . S
C69 C65 1.503 . S
C69 C70 1.379 . S
C69 C74 1.392 . S
C70 C69 1.379 . S
C70 C71 1.404 . S
C70 H84 0.929 . S
C71 C70 1.404 . S
C71 C72 1.389 . S
C72 C71 1.389 . S
C72 C73 1.399 . S
C72 H85 0.931 1_455 S
C73 C72 1.399 . S
C73 C74 1.390 . S
C74 C69 1.392 . S
C74 C73 1.390 . S
C74 H86 0.929 . S
O75 Tb59 2.326 . S
O75 C63 1.242 . S
O76 Eu60 2.324 . S
O76 C63 1.258 . S
O77 Tb59 2.500 . S
O77 C79 1.273 . S
O78 Tb59 2.473 . S
O78 C79 1.257 . S
C79 O77 1.273 . S
C79 O78 1.257 . S
O80 Eu60 2.326 . S
O80 C68 1.242 1_565 S
O81 Tb59 2.324 1_545 S
O81 C68 1.258 . S
O82 Eu60 2.500 . S
O82 C65 1.273 . S
O83 Eu60 2.473 . S
O83 C65 1.257 . S
H84 C70 0.929 . S
H85 C72 0.931 1_655 S
H86 C74 0.929 . S
O87 Tb88 2.292 . S
O87 C90 1.255 . S
Tb88 O87 2.292 . S
Tb88 O104 2.326 . S
Tb88 O106 2.500 . S
Tb88 O107 2.473 . S
Tb88 O110 2.324 . S
Eu89 O93 2.292 . S
Eu89 C94 2.852 . S
Eu89 O105 2.324 . S
Eu89 O109 2.326 . S
Eu89 O111 2.500 . S
Eu89 O112 2.473 . S
C90 O87 1.255 . S
C90 O91 1.247 . S
O91 C90 1.247 . S
C92 O104 1.242 . S
C92 O105 1.258 . S
O93 Eu89 2.292 . S
O93 C95 1.255 . S
C94 Eu89 2.852 . S
C94 C98 1.503 . S
C94 O111 1.273 . S
C94 O112 1.257 . S
C95 O93 1.255 . S
C95 O96 1.247 . S
O96 C95 1.247 . S
C97 O109 1.242 . S
C97 O110 1.258 . S
C98 C94 1.503 . S
C98 C99 1.379 . S
C98 C103 1.392 . S
C99 C98 1.379 . S
C99 C100 1.404 . S
C99 H113 0.929 . S
C100 C99 1.404 . S
C100 C101 1.389 . S
C101 C100 1.389 . S
C101 C102 1.399 . S
C101 H114 0.931 . S
C102 C101 1.399 . S
C102 C103 1.390 . S
C103 C98 1.392 . S
C103 C102 1.390 . S
C103 H115 0.929 . S
O104 Tb88 2.326 . S
O104 C92 1.242 . S
O105 Eu89 2.324 . S
O105 C92 1.258 . S
O106 Tb88 2.500 . S
O106 C108 1.273 . S
O107 Tb88 2.473 . S
O107 C108 1.257 . S
C108 O106 1.273 . S
C108 O107 1.257 . S
O109 Eu89 2.326 . S
O109 C97 1.242 . S
O110 Tb88 2.324 . S
O110 C97 1.258 . S
O111 Eu89 2.500 . S
O111 C94 1.273 . S
O112 Eu89 2.473 . S
O112 C94 1.257 . S
H113 C99 0.929 . S
H114 C101 0.931 . S
H115 C103 0.929 . S
O116 Tb117 2.292 . S
O116 C119 1.255 . S
Tb117 O116 2.292 . S
Tb117 O133 2.326 . S
Tb117 O135 2.500 . S
Tb117 O136 2.473 . S
Tb117 O139 2.324 1_565 S
Eu118 O122 2.292 . S
Eu118 C123 2.852 . S
Eu118 O134 2.324 . S
Eu118 O138 2.326 . S
Eu118 O140 2.500 . S
Eu118 O141 2.473 . S
C119 O116 1.255 . S
C119 O120 1.247 . S
O120 C119 1.247 . S
C121 O133 1.242 . S
C121 O134 1.258 . S
O122 Eu118 2.292 . S
O122 C124 1.255 . S
C123 Eu118 2.852 . S
C123 C127 1.503 . S
C123 O140 1.273 . S
C123 O141 1.257 . S
C124 O122 1.255 . S
C124 O125 1.247 . S
O125 C124 1.247 . S
C126 O138 1.242 1_545 S
C126 O139 1.258 . S
C127 C123 1.503 . S
C127 C128 1.379 . S
C127 C132 1.392 . S
C128 C127 1.379 . S
C128 C129 1.404 . S
C128 H142 0.929 . S
C129 C128 1.404 . S
C129 C130 1.389 . S
C130 C129 1.389 . S
C130 C131 1.399 . S
C130 H143 0.931 . S
C131 C130 1.399 . S
C131 C132 1.390 . S
C132 C127 1.392 . S
C132 C131 1.390 . S
C132 H144 0.929 . S
O133 Tb117 2.326 . S
O133 C121 1.242 . S
O134 Eu118 2.324 . S
O134 C121 1.258 . S
O135 Tb117 2.500 . S
O135 C137 1.273 . S
O136 Tb117 2.473 . S
O136 C137 1.257 . S
C137 O135 1.273 . S
C137 O136 1.257 . S
O138 Eu118 2.326 . S
O138 C126 1.242 1_565 S
O139 Tb117 2.324 1_545 S
O139 C126 1.258 . S
O140 Eu118 2.500 . S
O140 C123 1.273 . S
O141 Eu118 2.473 . S
O141 C123 1.257 . S
H142 C128 0.929 . S
H143 C130 0.931 . S
H144 C132 0.929 . S
O145 Tb146 2.292 . S
O145 C148 1.255 . S
Tb146 O145 2.292 . S
Tb146 O162 2.326 . S
Tb146 O164 2.500 . S
Tb146 O165 2.473 . S
Tb146 O168 2.324 . S
Eu147 O151 2.292 . S
Eu147 C152 2.852 . S
Eu147 O163 2.324 . S
Eu147 O167 2.326 . S
Eu147 O169 2.500 . S
Eu147 O170 2.473 . S
C148 O145 1.255 . S
C148 O149 1.247 . S
O149 C148 1.247 . S
C150 O162 1.242 . S
C150 O163 1.258 . S
O151 Eu147 2.292 . S
O151 C153 1.255 . S
C152 Eu147 2.852 . S
C152 C156 1.503 . S
C152 O169 1.273 . S
C152 O170 1.257 . S
C153 O151 1.255 . S
C153 O154 1.247 . S
O154 C153 1.247 . S
C155 O167 1.242 . S
C155 O168 1.258 . S
C156 C152 1.503 . S
C156 C157 1.379 . S
C156 C161 1.392 . S
C157 C156 1.379 . S
C157 C158 1.404 . S
C157 H171 0.929 . S
C158 C157 1.404 . S
C158 C159 1.389 . S
C159 C158 1.389 . S
C159 C160 1.399 . S
C159 H172 0.931 . S
C160 C159 1.399 . S
C160 C161 1.390 . S
C161 C156 1.392 . S
C161 C160 1.390 . S
C161 H173 0.929 . S
O162 Tb146 2.326 . S
O162 C150 1.242 . S
O163 Eu147 2.324 . S
O163 C150 1.258 . S
O164 Tb146 2.500 . S
O164 C166 1.273 . S
O165 Tb146 2.473 . S
O165 C166 1.257 . S
C166 O164 1.273 . S
C166 O165 1.257 . S
O167 Eu147 2.326 . S
O167 C155 1.242 . S
O168 Tb146 2.324 . S
O168 C155 1.258 . S
O169 Eu147 2.500 . S
O169 C152 1.273 . S
O170 Eu147 2.473 . S
O170 C152 1.257 . S
H171 C157 0.929 . S
H172 C159 0.931 . S
H173 C161 0.929 . S
O174 Tb175 2.292 . S
O174 C177 1.255 . S
Tb175 O174 2.292 . S
Tb175 O191 2.326 . S
Tb175 O193 2.500 . S
Tb175 O194 2.473 . S
Tb175 O197 2.324 1_545 S
Eu176 O180 2.292 . S
Eu176 C181 2.852 . S
Eu176 O192 2.324 . S
Eu176 O196 2.326 . S
Eu176 O198 2.500 . S
Eu176 O199 2.473 . S
C177 O174 1.255 . S
C177 O178 1.247 . S
O178 C177 1.247 . S
C179 O191 1.242 . S
C179 O192 1.258 . S
O180 Eu176 2.292 . S
O180 C182 1.255 . S
C181 Eu176 2.852 . S
C181 C185 1.503 . S
C181 O198 1.273 . S
C181 O199 1.257 . S
C182 O180 1.255 . S
C182 O183 1.247 . S
O183 C182 1.247 . S
C184 O196 1.242 1_565 S
C184 O197 1.258 . S
C185 C181 1.503 . S
C185 C186 1.379 . S
C185 C190 1.392 . S
C186 C185 1.379 . S
C186 C187 1.404 . S
C186 H200 0.929 . S
C187 C186 1.404 . S
C187 C188 1.389 . S
C188 C187 1.389 . S
C188 C189 1.399 . S
C188 H201 0.931 1_655 S
C189 C188 1.399 . S
C189 C190 1.390 . S
C190 C185 1.392 . S
C190 C189 1.390 . S
C190 H202 0.929 . S
O191 Tb175 2.326 . S
O191 C179 1.242 . S
O192 Eu176 2.324 . S
O192 C179 1.258 . S
O193 Tb175 2.500 . S
O193 C195 1.273 . S
O194 Tb175 2.473 . S
O194 C195 1.257 . S
C195 O193 1.273 . S
C195 O194 1.257 . S
O196 Eu176 2.326 . S
O196 C184 1.242 1_545 S
O197 Tb175 2.324 1_565 S
O197 C184 1.258 . S
O198 Eu176 2.500 . S
O198 C181 1.273 . S
O199 Eu176 2.473 . S
O199 C181 1.257 . S
H200 C186 0.929 . S
H201 C188 0.931 1_455 S
H202 C190 0.929 . S
O203 Tb204 2.292 . S
O203 C206 1.255 . S
Tb204 O203 2.292 . S
Tb204 O220 2.326 . S
Tb204 O222 2.500 . S
Tb204 O223 2.473 . S
Tb204 O226 2.324 . S
Eu205 O209 2.292 . S
Eu205 C210 2.852 . S
Eu205 O221 2.324 . S
Eu205 O225 2.326 . S
Eu205 O227 2.500 . S
Eu205 O228 2.473 . S
C206 O203 1.255 . S
C206 O207 1.247 . S
O207 C206 1.247 . S
C208 O220 1.242 . S
C208 O221 1.258 . S
O209 Eu205 2.292 . S
O209 C211 1.255 . S
C210 Eu205 2.852 . S
C210 C214 1.503 . S
C210 O227 1.273 . S
C210 O228 1.257 . S
C211 O209 1.255 . S
C211 O212 1.247 . S
O212 C211 1.247 . S
C213 O225 1.242 . S
C213 O226 1.258 . S
C214 C210 1.503 . S
C214 C215 1.379 . S
C214 C219 1.392 . S
C215 C214 1.379 . S
C215 C216 1.404 . S
C215 H229 0.929 . S
C216 C215 1.404 . S
C216 C217 1.389 . S
C217 C216 1.389 . S
C217 C218 1.399 . S
C217 H230 0.931 . S
C218 C217 1.399 . S
C218 C219 1.390 . S
C219 C214 1.392 . S
C219 C218 1.390 . S
C219 H231 0.929 . S
O220 Tb204 2.326 . S
O220 C208 1.242 . S
O221 Eu205 2.324 . S
O221 C208 1.258 . S
O222 Tb204 2.500 . S
O222 C224 1.273 . S
O223 Tb204 2.473 . S
O223 C224 1.257 . S
C224 O222 1.273 . S
C224 O223 1.257 . S
O225 Eu205 2.326 . S
O225 C213 1.242 . S
O226 Tb204 2.324 . S
O226 C213 1.258 . S
O227 Eu205 2.500 . S
O227 C210 1.273 . S
O228 Eu205 2.473 . S
O228 C210 1.257 . S
H229 C215 0.929 . S
H230 C217 0.931 . S
H231 C219 0.929 . S
O232 Tb233 2.292 . S
O232 C235 1.255 . S
Tb233 O232 2.292 . S
Tb233 O249 2.326 . S
Tb233 O251 2.500 . S
Tb233 O252 2.473 . S
Tb233 O255 2.324 . S
Eu234 O238 2.292 . S
Eu234 C239 2.852 . S
Eu234 O250 2.324 . S
Eu234 O254 2.326 . S
Eu234 O256 2.500 . S
Eu234 O257 2.473 . S
C235 O232 1.255 . S
C235 O236 1.247 . S
O236 C235 1.247 . S
C237 O249 1.242 . S
C237 O250 1.258 . S
O238 Eu234 2.292 . S
O238 C240 1.255 . S
C239 Eu234 2.852 . S
C239 C243 1.503 . S
C239 O256 1.273 . S
C239 O257 1.257 . S
C240 O238 1.255 . S
C240 O241 1.247 . S
O241 C240 1.247 . S
C242 O254 1.242 . S
C242 O255 1.258 . S
C243 C239 1.503 . S
C243 C244 1.379 . S
C243 C248 1.392 . S
C244 C243 1.379 . S
C244 C245 1.404 . S
C244 H258 0.929 . S
C245 C244 1.404 . S
C245 C246 1.389 . S
C246 C245 1.389 . S
C246 C247 1.399 . S
C246 H259 0.931 1_655 S
C247 C246 1.399 . S
C247 C248 1.390 . S
C248 C243 1.392 . S
C248 C247 1.390 . S
C248 H260 0.929 . S
O249 Tb233 2.326 . S
O249 C237 1.242 . S
O250 Eu234 2.324 . S
O250 C237 1.258 . S
O251 Tb233 2.500 . S
O251 C253 1.273 . S
O252 Tb233 2.473 . S
O252 C253 1.257 . S
C253 O251 1.273 . S
C253 O252 1.257 . S
O254 Eu234 2.326 . S
O254 C242 1.242 . S
O255 Tb233 2.324 . S
O255 C242 1.258 . S
O256 Eu234 2.500 . S
O256 C239 1.273 . S
O257 Eu234 2.473 . S
O257 C239 1.257 . S
H258 C244 0.929 . S
H259 C246 0.931 1_455 S
H260 C248 0.929 . S
O261 Tb262 2.292 . S
O261 C264 1.255 . S
Tb262 O261 2.292 . S
Tb262 O278 2.326 . S
Tb262 O280 2.500 . S
Tb262 O281 2.473 . S
Tb262 O284 2.324 . S
Eu263 O267 2.292 1_545 S
Eu263 C268 2.852 . S
Eu263 O279 2.324 . S
Eu263 O283 2.326 . S
Eu263 O285 2.500 . S
Eu263 O286 2.473 . S
C264 O261 1.255 . S
C264 O265 1.247 . S
O265 C264 1.247 . S
C266 O278 1.242 . S
C266 O279 1.258 . S
O267 Eu263 2.292 1_565 S
O267 C269 1.255 . S
C268 Eu263 2.852 . S
C268 C272 1.503 . S
C268 O285 1.273 . S
C268 O286 1.257 . S
C269 O267 1.255 . S
C269 O270 1.247 . S
O270 C269 1.247 . S
C271 O283 1.242 . S
C271 O284 1.258 . S
C272 C268 1.503 . S
C272 C273 1.379 . S
C272 C277 1.392 . S
C273 C272 1.379 . S
C273 C274 1.404 . S
C273 H287 0.929 . S
C274 C273 1.404 . S
C274 C275 1.389 . S
C275 C274 1.389 . S
C275 C276 1.399 . S
C275 H288 0.931 . S
C276 C275 1.399 . S
C276 C277 1.390 . S
C277 C272 1.392 . S
C277 C276 1.390 . S
C277 H289 0.929 . S
O278 Tb262 2.326 . S
O278 C266 1.242 . S
O279 Eu263 2.324 . S
O279 C266 1.258 . S
O280 Tb262 2.500 . S
O280 C282 1.273 . S
O281 Tb262 2.473 . S
O281 C282 1.257 . S
C282 O280 1.273 . S
C282 O281 1.257 . S
O283 Eu263 2.326 . S
O283 C271 1.242 . S
O284 Tb262 2.324 . S
O284 C271 1.258 . S
O285 Eu263 2.500 . S
O285 C268 1.273 . S
O286 Eu263 2.473 . S
O286 C268 1.257 . S
H287 C273 0.929 . S
H288 C275 0.931 . S
H289 C277 0.929 . S
O290 Tb291 2.292 . S
O290 C293 1.255 . S
Tb291 O290 2.292 . S
Tb291 O307 2.326 . S
Tb291 O309 2.500 . S
Tb291 O310 2.473 . S
Tb291 O313 2.324 . S
Eu292 O296 2.292 . S
Eu292 C297 2.852 . S
Eu292 O308 2.324 . S
Eu292 O312 2.326 . S
Eu292 O314 2.500 . S
Eu292 O315 2.473 . S
C293 O290 1.255 . S
C293 O294 1.247 . S
O294 C293 1.247 . S
C295 O307 1.242 . S
C295 O308 1.258 . S
O296 Eu292 2.292 . S
O296 C298 1.255 . S
C297 Eu292 2.852 . S
C297 C301 1.503 . S
C297 O314 1.273 . S
C297 O315 1.257 . S
C298 O296 1.255 . S
C298 O299 1.247 . S
O299 C298 1.247 . S
C300 O312 1.242 . S
C300 O313 1.258 . S
C301 C297 1.503 . S
C301 C302 1.379 . S
C301 C306 1.392 . S
C302 C301 1.379 . S
C302 C303 1.404 . S
C302 H316 0.929 . S
C303 C302 1.404 . S
C303 C304 1.389 . S
C304 C303 1.389 . S
C304 C305 1.399 . S
C304 H317 0.931 . S
C305 C304 1.399 . S
C305 C306 1.390 . S
C306 C301 1.392 . S
C306 C305 1.390 . S
C306 H318 0.929 . S
O307 Tb291 2.326 . S
O307 C295 1.242 . S
O308 Eu292 2.324 . S
O308 C295 1.258 . S
O309 Tb291 2.500 . S
O309 C311 1.273 . S
O310 Tb291 2.473 . S
O310 C311 1.257 . S
C311 O309 1.273 . S
C311 O310 1.257 . S
O312 Eu292 2.326 . S
O312 C300 1.242 . S
O313 Tb291 2.324 . S
O313 C300 1.258 . S
O314 Eu292 2.500 . S
O314 C297 1.273 . S
O315 Eu292 2.473 . S
O315 C297 1.257 . S
H316 C302 0.929 . S
H317 C304 0.931 . S
H318 C306 0.929 . S
O319 Tb320 2.292 . S
O319 C322 1.255 1_545 S
Tb320 O319 2.292 . S
Tb320 O336 2.326 1_545 S
Tb320 O338 2.500 . S
Tb320 O339 2.473 . S
Tb320 O342 2.324 1_545 S
Eu321 O325 2.292 . S
Eu321 C326 2.852 . S
Eu321 O337 2.324 . S
Eu321 O341 2.326 . S
Eu321 O343 2.500 . S
Eu321 O344 2.473 . S
C322 O319 1.255 1_565 S
C322 O323 1.247 . S
O323 C322 1.247 . S
C324 O336 1.242 . S
C324 O337 1.258 . S
O325 Eu321 2.292 . S
O325 C327 1.255 . S
C326 Eu321 2.852 . S
C326 C330 1.503 . S
C326 O343 1.273 . S
C326 O344 1.257 . S
C327 O325 1.255 . S
C327 O328 1.247 . S
O328 C327 1.247 . S
C329 O341 1.242 . S
C329 O342 1.258 . S
C330 C326 1.503 . S
C330 C331 1.379 . S
C330 C335 1.392 . S
C331 C330 1.379 . S
C331 C332 1.404 . S
C331 H345 0.929 . S
C332 C331 1.404 . S
C332 C333 1.389 . S
C333 C332 1.389 . S
C333 C334 1.399 . S
C333 H346 0.931 . S
C334 C333 1.399 . S
C334 C335 1.390 . S
C335 C330 1.392 . S
C335 C334 1.390 . S
C335 H347 0.929 . S
O336 Tb320 2.326 1_565 S
O336 C324 1.242 . S
O337 Eu321 2.324 . S
O337 C324 1.258 . S
O338 Tb320 2.500 . S
O338 C340 1.273 . S
O339 Tb320 2.473 . S
O339 C340 1.257 . S
C340 O338 1.273 . S
C340 O339 1.257 . S
O341 Eu321 2.326 . S
O341 C329 1.242 . S
O342 Tb320 2.324 1_565 S
O342 C329 1.258 . S
O343 Eu321 2.500 . S
O343 C326 1.273 . S
O344 Eu321 2.473 . S
O344 C326 1.257 . S
H345 C331 0.929 . S
H346 C333 0.931 . S
H347 C335 0.929 . S
O348 Tb349 2.292 . S
O348 C351 1.255 . S
Tb349 O348 2.292 . S
Tb349 O365 2.326 . S
Tb349 O367 2.500 . S
Tb349 O368 2.473 . S
Tb349 O371 2.324 . S
Eu350 O354 2.292 . S
Eu350 C355 2.852 . S
Eu350 O366 2.324 . S
Eu350 O370 2.326 . S
Eu350 O372 2.500 . S
Eu350 O373 2.473 . S
C351 O348 1.255 . S
C351 O352 1.247 . S
O352 C351 1.247 . S
C353 O365 1.242 . S
C353 O366 1.258 . S
O354 Eu350 2.292 . S
O354 C356 1.255 . S
C355 Eu350 2.852 . S
C355 C359 1.503 . S
C355 O372 1.273 . S
C355 O373 1.257 . S
C356 O354 1.255 . S
C356 O357 1.247 . S
O357 C356 1.247 . S
C358 O370 1.242 . S
C358 O371 1.258 . S
C359 C355 1.503 . S
C359 C360 1.379 . S
C359 C364 1.392 . S
C360 C359 1.379 . S
C360 C361 1.404 . S
C360 H374 0.929 . S
C361 C360 1.404 . S
C361 C362 1.389 . S
C362 C361 1.389 . S
C362 C363 1.399 . S
C362 H375 0.931 . S
C363 C362 1.399 . S
C363 C364 1.390 . S
C364 C359 1.392 . S
C364 C363 1.390 . S
C364 H376 0.929 . S
O365 Tb349 2.326 . S
O365 C353 1.242 . S
O366 Eu350 2.324 . S
O366 C353 1.258 . S
O367 Tb349 2.500 . S
O367 C369 1.273 . S
O368 Tb349 2.473 . S
O368 C369 1.257 . S
C369 O367 1.273 . S
C369 O368 1.257 . S
O370 Eu350 2.326 . S
O370 C358 1.242 . S
O371 Tb349 2.324 . S
O371 C358 1.258 . S
O372 Eu350 2.500 . S
O372 C355 1.273 . S
O373 Eu350 2.473 . S
O373 C355 1.257 . S
H374 C360 0.929 . S
H375 C362 0.931 . S
H376 C364 0.929 . S
O377 Tb378 2.292 . S
O377 C380 1.255 . S
Tb378 O377 2.292 . S
Tb378 O394 2.326 . S
Tb378 O396 2.500 1_565 S
Tb378 O397 2.473 1_565 S
Tb378 O400 2.324 . S
Eu379 O383 2.292 . S
Eu379 C384 2.852 . S
Eu379 O395 2.324 . S
Eu379 O399 2.326 . S
Eu379 O401 2.500 . S
Eu379 O402 2.473 . S
C380 O377 1.255 . S
C380 O381 1.247 . S
O381 C380 1.247 . S
C382 O394 1.242 . S
C382 O395 1.258 . S
O383 Eu379 2.292 . S
O383 C385 1.255 . S
C384 Eu379 2.852 . S
C384 C388 1.503 . S
C384 O401 1.273 . S
C384 O402 1.257 . S
C385 O383 1.255 . S
C385 O386 1.247 . S
O386 C385 1.247 . S
C387 O399 1.242 . S
C387 O400 1.258 . S
C388 C384 1.503 . S
C388 C389 1.379 . S
C388 C393 1.392 . S
C389 C388 1.379 . S
C389 C390 1.404 . S
C389 H403 0.929 . S
C390 C389 1.404 . S
C390 C391 1.389 . S
C391 C390 1.389 . S
C391 C392 1.399 . S
C391 H404 0.931 . S
C392 C391 1.399 . S
C392 C393 1.390 . S
C393 C388 1.392 . S
C393 C392 1.390 . S
C393 H405 0.929 . S
O394 Tb378 2.326 . S
O394 C382 1.242 . S
O395 Eu379 2.324 . S
O395 C382 1.258 . S
O396 Tb378 2.500 1_545 S
O396 C398 1.273 . S
O397 Tb378 2.473 1_545 S
O397 C398 1.257 . S
C398 O396 1.273 . S
C398 O397 1.257 . S
O399 Eu379 2.326 . S
O399 C387 1.242 . S
O400 Tb378 2.324 . S
O400 C387 1.258 . S
O401 Eu379 2.500 . S
O401 C384 1.273 . S
O402 Eu379 2.473 . S
O402 C384 1.257 . S
H403 C389 0.929 . S
H404 C391 0.931 . S
H405 C393 0.929 . S
O406 Tb407 2.292 . S
O406 C409 1.255 . S
Tb407 O406 2.292 . S
Tb407 O423 2.326 . S
Tb407 O425 2.500 . S
Tb407 O426 2.473 . S
Tb407 O429 2.324 . S
Eu408 O412 2.292 . S
Eu408 C413 2.852 . S
Eu408 O424 2.324 . S
Eu408 O428 2.326 . S
Eu408 O430 2.500 . S
Eu408 O431 2.473 . S
C409 O406 1.255 . S
C409 O410 1.247 . S
O410 C409 1.247 . S
C411 O423 1.242 . S
C411 O424 1.258 . S
O412 Eu408 2.292 . S
O412 C414 1.255 . S
C413 Eu408 2.852 . S
C413 C417 1.503 . S
C413 O430 1.273 . S
C413 O431 1.257 . S
C414 O412 1.255 . S
C414 O415 1.247 . S
O415 C414 1.247 . S
C416 O428 1.242 . S
C416 O429 1.258 . S
C417 C413 1.503 . S
C417 C418 1.379 . S
C417 C422 1.392 . S
C418 C417 1.379 . S
C418 C419 1.404 . S
C418 H432 0.929 . S
C419 C418 1.404 . S
C419 C420 1.389 . S
C420 C419 1.389 . S
C420 C421 1.399 . S
C420 H433 0.931 . S
C421 C420 1.399 . S
C421 C422 1.390 . S
C422 C417 1.392 . S
C422 C421 1.390 . S
C422 H434 0.929 . S
O423 Tb407 2.326 . S
O423 C411 1.242 . S
O424 Eu408 2.324 . S
O424 C411 1.258 . S
O425 Tb407 2.500 . S
O425 C427 1.273 . S
O426 Tb407 2.473 . S
O426 C427 1.257 . S
C427 O425 1.273 . S
C427 O426 1.257 . S
O428 Eu408 2.326 . S
O428 C416 1.242 . S
O429 Tb407 2.324 . S
O429 C416 1.258 . S
O430 Eu408 2.500 . S
O430 C413 1.273 . S
O431 Eu408 2.473 . S
O431 C413 1.257 . S
H432 C418 0.929 . S
H433 C420 0.931 . S
H434 C422 0.929 . S
O435 Tb436 2.291 1_565 S
O435 C438 1.249 1_565 S
Tb436 O435 2.291 1_545 S
Tb436 O452 2.326 . S
Tb436 O454 2.500 1_545 S
Tb436 O455 2.473 1_545 S
Tb436 O458 2.324 . S
Eu437 O441 2.292 . S
Eu437 C442 2.852 . S
Eu437 O453 2.324 . S
Eu437 O457 2.326 . S
Eu437 O459 2.500 . S
Eu437 O460 2.473 . S
C438 O435 1.249 1_545 S
C438 O439 1.247 . S
O439 C438 1.247 . S
C440 O452 1.242 . S
C440 O453 1.258 . S
O441 Eu437 2.292 . S
O441 C443 1.255 . S
C442 Eu437 2.852 . S
C442 C446 1.503 . S
C442 O459 1.273 . S
C442 O460 1.257 . S
C443 O441 1.255 . S
C443 O444 1.247 . S
O444 C443 1.247 . S
C445 O457 1.242 . S
C445 O458 1.258 . S
C446 C442 1.503 . S
C446 C447 1.379 . S
C446 C451 1.392 . S
C447 C446 1.379 . S
C447 C448 1.404 . S
C447 H461 0.929 . S
C448 C447 1.404 . S
C448 C449 1.389 . S
C449 C448 1.389 . S
C449 C450 1.399 . S
C449 H462 0.931 . S
C450 C449 1.399 . S
C450 C451 1.390 . S
C451 C446 1.392 . S
C451 C450 1.390 . S
C451 H463 0.929 . S
O452 Tb436 2.326 . S
O452 C440 1.242 . S
O453 Eu437 2.324 . S
O453 C440 1.258 . S
O454 Tb436 2.500 1_565 S
O454 C456 1.273 . S
O455 Tb436 2.473 1_565 S
O455 C456 1.257 . S
C456 O454 1.273 . S
C456 O455 1.257 . S
O457 Eu437 2.326 . S
O457 C445 1.242 . S
O458 Tb436 2.324 . S
O458 C445 1.258 . S
O459 Eu437 2.500 . S
O459 C442 1.273 . S
O460 Eu437 2.473 . S
O460 C442 1.257 . S
H461 C447 0.929 . S
H462 C449 0.931 . S
H463 C451 0.929 . S
H464 C470 0.930 . S
H465 C474 0.930 . S
H466 C479 0.929 . S
H467 C477 0.929 . S
H468 C472 0.929 . S
H469 C478 0.929 . S
C470 H464 0.930 . S
C470 C471 1.367 . S
C470 C478 1.378 . S
C471 C470 1.367 . S
C471 C479 1.433 . S
C472 H468 0.929 . S
C472 C474 1.378 . S
C472 C476 1.350 . S
C473 C476 1.463 . S
C473 C478 1.350 . S
C473 N481 1.427 . S
C474 H465 0.930 . S
C474 C472 1.378 . S
C474 C475 1.367 . S
C475 C474 1.367 . S
C475 C477 1.433 . S
C476 C472 1.350 . S
C476 C473 1.463 . S
C476 N480 1.427 . S
C477 H467 0.929 . S
C477 C475 1.433 . S
C477 N480 1.384 . S
C478 H469 0.929 . S
C478 C470 1.378 . S
C478 C473 1.350 . S
C479 H466 0.929 . S
C479 C471 1.433 . S
C479 N481 1.384 . S
N480 C476 1.427 . S
N480 C477 1.384 . S
N481 C473 1.427 . S
N481 C479 1.384 . S
H482 C488 0.930 . S
H483 C492 0.930 . S
H484 C497 0.929 . S
H485 C495 0.929 . S
H486 C490 0.929 . S
H487 C496 0.929 . S
C488 H482 0.930 . S
C488 C489 1.367 . S
C488 C496 1.378 . S
C489 C488 1.367 . S
C489 C497 1.433 . S
C490 H486 0.929 . S
C490 C492 1.378 . S
C490 C494 1.350 . S
C491 C494 1.463 . S
C491 C496 1.350 . S
C491 N499 1.427 . S
C492 H483 0.930 . S
C492 C490 1.378 . S
C492 C493 1.367 . S
C493 C492 1.367 . S
C493 C495 1.433 . S
C494 C490 1.350 . S
C494 C491 1.463 . S
C494 N498 1.427 . S
C495 H485 0.929 . S
C495 C493 1.433 . S
C495 N498 1.384 . S
C496 H487 0.929 . S
C496 C488 1.378 . S
C496 C491 1.350 . S
C497 H484 0.929 . S
C497 C489 1.433 . S
C497 N499 1.384 . S
N498 C494 1.427 . S
N498 C495 1.384 . S
N499 C491 1.427 . S
N499 C497 1.384 . S
H500 C506 0.930 . S
H501 C510 0.930 . S
H502 C515 0.929 . S
H503 C513 0.929 . S
H504 C508 0.929 . S
H505 C514 0.929 . S
C506 H500 0.930 . S
C506 C507 1.367 . S
C506 C514 1.378 . S
C507 C506 1.367 . S
C507 C515 1.433 . S
C508 H504 0.929 . S
C508 C510 1.378 . S
C508 C512 1.350 . S
C509 C512 1.463 . S
C509 C514 1.350 . S
C509 N517 1.427 . S
C510 H501 0.930 . S
C510 C508 1.378 . S
C510 C511 1.367 . S
C511 C510 1.367 . S
C511 C513 1.433 . S
C512 C508 1.350 . S
C512 C509 1.463 . S
C512 N516 1.427 . S
C513 H503 0.929 . S
C513 C511 1.433 . S
C513 N516 1.384 . S
C514 H505 0.929 . S
C514 C506 1.378 . S
C514 C509 1.350 . S
C515 H502 0.929 . S
C515 C507 1.433 . S
C515 N517 1.384 . S
N516 C512 1.427 . S
N516 C513 1.384 . S
N517 C509 1.427 . S
N517 C515 1.384 . S
H518 C524 0.930 . S
H519 C528 0.930 . S
H520 C533 0.929 . S
H521 C531 0.929 . S
H522 C526 0.929 1_455 S
H523 C532 0.929 . S
C524 H518 0.930 . S
C524 C525 1.367 . S
C524 C532 1.378 . S
C525 C524 1.367 . S
C525 C533 1.433 . S
C526 H522 0.929 1_655 S
C526 C528 1.378 . S
C526 C530 1.350 1_655 S
C527 C530 1.463 . S
C527 C532 1.350 . S
C527 N535 1.427 . S
C528 H519 0.930 . S
C528 C526 1.378 . S
C528 C529 1.367 . S
C529 C528 1.367 . S
C529 C531 1.433 . S
C530 C526 1.350 1_455 S
C530 C527 1.463 . S
C530 N534 1.427 . S
C531 H521 0.929 . S
C531 C529 1.433 . S
C531 N534 1.384 1_655 S
C532 H523 0.929 . S
C532 C524 1.378 . S
C532 C527 1.350 . S
C533 H520 0.929 . S
C533 C525 1.433 . S
C533 N535 1.384 . S
N534 C530 1.427 . S
N534 C531 1.384 1_455 S
N535 C527 1.427 . S
N535 C533 1.384 . S
H536 C542 0.930 . S
H537 C546 0.930 . S
H538 C551 0.929 . S
H539 C549 0.929 . S
H540 C544 0.929 . S
H541 C550 0.929 . S
C542 H536 0.930 . S
C542 C543 1.367 . S
C542 C550 1.378 . S
C543 C542 1.367 . S
C543 C551 1.433 . S
C544 H540 0.929 . S
C544 C546 1.378 . S
C544 C548 1.350 . S
C545 C548 1.463 . S
C545 C550 1.350 . S
C545 N553 1.427 . S
C546 H537 0.930 . S
C546 C544 1.378 . S
C546 C547 1.367 . S
C547 C546 1.367 . S
C547 C549 1.433 . S
C548 C544 1.350 . S
C548 C545 1.463 . S
C548 N552 1.427 . S
C549 H539 0.929 . S
C549 C547 1.433 . S
C549 N552 1.384 . S
C550 H541 0.929 . S
C550 C542 1.378 . S
C550 C545 1.350 . S
C551 H538 0.929 . S
C551 C543 1.433 . S
C551 N553 1.384 . S
N552 C548 1.427 . S
N552 C549 1.384 . S
N553 C545 1.427 . S
N553 C551 1.384 . S
H554 C560 0.930 . S
H555 C564 0.930 . S
H556 C569 0.929 . S
H557 C567 0.929 . S
H558 C562 0.929 . S
H559 C568 0.929 . S
C560 H554 0.930 . S
C560 C561 1.367 . S
C560 C568 1.378 . S
C561 C560 1.367 . S
C561 C569 1.433 . S
C562 H558 0.929 . S
C562 C564 1.378 . S
C562 C566 1.350 . S
C563 C566 1.463 . S
C563 C568 1.350 . S
C563 N571 1.427 . S
C564 H555 0.930 . S
C564 C562 1.378 . S
C564 C565 1.367 . S
C565 C564 1.367 . S
C565 C567 1.433 . S
C566 C562 1.350 . S
C566 C563 1.463 . S
C566 N570 1.427 . S
C567 H557 0.929 . S
C567 C565 1.433 . S
C567 N570 1.384 . S
C568 H559 0.929 . S
C568 C560 1.378 . S
C568 C563 1.350 . S
C569 H556 0.929 . S
C569 C561 1.433 . S
C569 N571 1.384 . S
N570 C566 1.427 . S
N570 C567 1.384 . S
N571 C563 1.427 . S
N571 C569 1.384 . S
H572 C578 0.930 . S
H573 C582 0.930 . S
H574 C587 0.929 . S
H575 C585 0.929 . S
H576 C580 0.929 . S
H577 C586 0.929 . S
C578 H572 0.930 . S
C578 C579 1.367 . S
C578 C586 1.378 . S
C579 C578 1.367 . S
C579 C587 1.433 . S
C580 H576 0.929 . S
C580 C582 1.378 . S
C580 C584 1.350 . S
C581 C584 1.463 . S
C581 C586 1.350 . S
C581 N589 1.427 . S
C582 H573 0.930 . S
C582 C580 1.378 . S
C582 C583 1.367 . S
C583 C582 1.367 . S
C583 C585 1.433 . S
C584 C580 1.350 . S
C584 C581 1.463 . S
C584 N588 1.427 . S
C585 H575 0.929 . S
C585 C583 1.433 . S
C585 N588 1.384 . S
C586 H577 0.929 . S
C586 C578 1.378 . S
C586 C581 1.350 . S
C587 H574 0.929 . S
C587 C579 1.433 . S
C587 N589 1.384 . S
N588 C584 1.427 . S
N588 C585 1.384 . S
N589 C581 1.427 . S
N589 C587 1.384 . S
H590 C596 0.930 . S
H591 C600 0.930 . S
H592 C605 0.929 . S
H593 C603 0.929 . S
H594 C598 0.929 . S
H595 C604 0.929 . S
C596 H590 0.930 . S
C596 C597 1.367 . S
C596 C604 1.378 . S
C597 C596 1.367 . S
C597 C605 1.433 . S
C598 H594 0.929 . S
C598 C600 1.378 1_655 S
C598 C602 1.350 . S
C599 C602 1.463 . S
C599 C604 1.350 . S
C599 N607 1.427 . S
C600 H591 0.930 . S
C600 C598 1.378 1_455 S
C600 C601 1.367 . S
C601 C600 1.367 . S
C601 C603 1.433 . S
C602 C598 1.350 . S
C602 C599 1.463 . S
C602 N606 1.427 1_655 S
C603 H593 0.929 . S
C603 C601 1.433 . S
C603 N606 1.384 . S
C604 H595 0.929 . S
C604 C596 1.378 . S
C604 C599 1.350 . S
C605 H592 0.929 . S
C605 C597 1.433 . S
C605 N607 1.384 . S
N606 C602 1.427 1_455 S
N606 C603 1.384 . S
N607 C599 1.427 . S
N607 C605 1.384 . S
H608 C614 0.930 . S
H609 C618 0.930 . S
H610 C623 0.929 . S
H611 C621 0.929 . S
H612 C616 0.929 . S
H613 C622 0.929 . S
C614 H608 0.930 . S
C614 C615 1.367 . S
C614 C622 1.378 . S
C615 C614 1.367 . S
C615 C623 1.433 . S
C616 H612 0.929 . S
C616 C618 1.378 . S
C616 C620 1.350 . S
C617 C620 1.463 . S
C617 C622 1.350 . S
C617 N625 1.427 . S
C618 H609 0.930 . S
C618 C616 1.378 . S
C618 C619 1.367 . S
C619 C618 1.367 . S
C619 C621 1.433 . S
C620 C616 1.350 . S
C620 C617 1.463 . S
C620 N624 1.427 . S
C621 H611 0.929 . S
C621 C619 1.433 . S
C621 N624 1.384 . S
C622 H613 0.929 . S
C622 C614 1.378 . S
C622 C617 1.350 . S
C623 H610 0.929 . S
C623 C615 1.433 . S
C623 N625 1.384 . S
N624 C620 1.427 . S
N624 C621 1.384 . S
N625 C617 1.427 . S
N625 C623 1.384 . S
H626 C632 0.930 . S
H627 C636 0.930 1_545 S
H628 C641 0.929 . S
H629 C639 0.929 . S
H630 C634 0.929 . S
H631 C640 0.929 . S
C632 H626 0.930 . S
C632 C633 1.367 1_565 S
C632 C640 1.378 . S
C633 C632 1.367 1_545 S
C633 C641 1.433 . S
C634 H630 0.929 . S
C634 C636 1.378 1_545 S
C634 C638 1.350 1_545 S
C635 C638 1.463 . S
C635 C640 1.350 1_655 S
C635 N643 1.427 1_665 S
C636 H627 0.930 1_565 S
C636 C634 1.378 1_565 S
C636 C637 1.367 . S
C637 C636 1.367 . S
C637 C639 1.433 . S
C638 C634 1.350 1_565 S
C638 C635 1.463 . S
C638 N642 1.427 . S
C639 H629 0.929 . S
C639 C637 1.433 . S
C639 N642 1.384 . S
C640 H631 0.929 . S
C640 C632 1.378 . S
C640 C635 1.350 1_455 S
C641 H628 0.929 . S
C641 C633 1.433 . S
C641 N643 1.384 . S
N642 C638 1.427 . S
N642 C639 1.384 . S
N643 C635 1.427 1_445 S
N643 C641 1.384 . S
H644 C650 0.930 . S
H645 C654 0.930 . S
H646 C659 0.929 . S
H647 C657 0.929 . S
H648 C652 0.929 . S
H649 C658 0.929 . S
C650 H644 0.930 . S
C650 C651 1.367 . S
C650 C658 1.378 . S
C651 C650 1.367 . S
C651 C659 1.433 . S
C652 H648 0.929 . S
C652 C654 1.378 . S
C652 C656 1.350 . S
C653 C656 1.463 . S
C653 C658 1.350 . S
C653 N661 1.427 . S
C654 H645 0.930 . S
C654 C652 1.378 . S
C654 C655 1.367 . S
C655 C654 1.367 . S
C655 C657 1.433 . S
C656 C652 1.350 . S
C656 C653 1.463 . S
C656 N660 1.427 . S
C657 H647 0.929 . S
C657 C655 1.433 . S
C657 N660 1.384 . S
C658 H649 0.929 . S
C658 C650 1.378 . S
C658 C653 1.350 . S
C659 H646 0.929 . S
C659 C651 1.433 . S
C659 N661 1.384 . S
N660 C656 1.427 . S
N660 C657 1.384 . S
N661 C653 1.427 . S
N661 C659 1.384 . S
H662 C668 0.930 . S
H663 C672 0.930 . S
H664 C677 0.929 . S
H665 C675 0.929 . S
H666 C670 0.929 . S
H667 C676 0.929 . S
C668 H662 0.930 . S
C668 C669 1.367 . S
C668 C676 1.378 . S
C669 C668 1.367 . S
C669 C677 1.433 . S
C670 H666 0.929 . S
C670 C672 1.378 1_545 S
C670 C674 1.350 . S
C671 C674 1.463 . S
C671 C676 1.350 . S
C671 N679 1.427 . S
C672 H663 0.930 . S
C672 C670 1.378 1_565 S
C672 C673 1.367 . S
C673 C672 1.367 . S
C673 C675 1.433 1_565 S
C674 C670 1.350 . S
C674 C671 1.463 . S
C674 N678 1.427 . S
C675 H665 0.929 . S
C675 C673 1.433 1_545 S
C675 N678 1.384 . S
C676 H667 0.929 . S
C676 C668 1.378 . S
C676 C671 1.350 . S
C677 H664 0.929 . S
C677 C669 1.433 . S
C677 N679 1.384 . S
N678 C674 1.427 . S
N678 C675 1.384 . S
N679 C671 1.427 . S
N679 C677 1.384 . S
H680 C686 0.930 . S
H681 C690 0.930 . S
H682 C695 0.929 . S
H683 C693 0.929 . S
H684 C688 0.929 . S
H685 C694 0.929 . S
C686 H680 0.930 . S
C686 C687 1.367 . S
C686 C694 1.378 . S
C687 C686 1.367 . S
C687 C695 1.433 . S
C688 H684 0.929 . S
C688 C690 1.378 . S
C688 C692 1.350 . S
C689 C692 1.463 . S
C689 C694 1.350 . S
C689 N697 1.427 . S
C690 H681 0.930 . S
C690 C688 1.378 . S
C690 C691 1.367 . S
C691 C690 1.367 . S
C691 C693 1.433 . S
C692 C688 1.350 . S
C692 C689 1.463 . S
C692 N696 1.427 . S
C693 H683 0.929 . S
C693 C691 1.433 . S
C693 N696 1.384 . S
C694 H685 0.929 . S
C694 C686 1.378 . S
C694 C689 1.350 . S
C695 H682 0.929 . S
C695 C687 1.433 . S
C695 N697 1.384 . S
N696 C692 1.427 . S
N696 C693 1.384 . S
N697 C689 1.427 . S
N697 C695 1.384 . S
H698 C704 0.930 . S
H699 C708 0.930 . S
H700 C713 0.929 . S
H701 C711 0.929 . S
H702 C706 0.929 . S
H703 C712 0.929 1_455 S
C704 H698 0.930 . S
C704 C705 1.367 . S
C704 C712 1.378 . S
C705 C704 1.367 . S
C705 C713 1.433 . S
C706 H702 0.929 . S
C706 C708 1.378 . S
C706 C710 1.350 . S
C707 C710 1.463 . S
C707 C712 1.350 1_445 S
C707 N715 1.427 . S
C708 H699 0.930 . S
C708 C706 1.378 . S
C708 C709 1.367 . S
C709 C708 1.367 . S
C709 C711 1.433 . S
C710 C706 1.350 . S
C710 C707 1.463 . S
C710 N714 1.427 . S
C711 H701 0.929 . S
C711 C709 1.433 . S
C711 N714 1.384 . S
C712 H703 0.929 1_655 S
C712 C704 1.378 . S
C712 C707 1.350 1_665 S
C713 H700 0.929 . S
C713 C705 1.433 . S
C713 N715 1.384 1_665 S
N714 C710 1.427 . S
N714 C711 1.384 . S
N715 C707 1.427 . S
N715 C713 1.384 1_445 S
H716 C722 0.930 . S
H717 C726 0.930 . S
H718 C731 0.929 . S
H719 C729 0.929 . S
H720 C724 0.929 . S
H721 C730 0.929 . S
C722 H716 0.930 . S
C722 C723 1.367 . S
C722 C730 1.378 . S
C723 C722 1.367 . S
C723 C731 1.433 . S
C724 H720 0.929 . S
C724 C726 1.378 . S
C724 C728 1.350 . S
C725 C728 1.463 . S
C725 C730 1.350 . S
C725 N733 1.427 . S
C726 H717 0.930 . S
C726 C724 1.378 . S
C726 C727 1.367 . S
C727 C726 1.367 . S
C727 C729 1.433 . S
C728 C724 1.350 . S
C728 C725 1.463 . S
C728 N732 1.427 . S
C729 H719 0.929 . S
C729 C727 1.433 . S
C729 N732 1.384 . S
C730 H721 0.929 . S
C730 C722 1.378 . S
C730 C725 1.350 . S
C731 H718 0.929 . S
C731 C723 1.433 . S
C731 N733 1.384 . S
N732 C728 1.427 . S
N732 C729 1.384 . S
N733 C725 1.427 . S
N733 C731 1.384 . S
H734 C740 0.930 . S
H735 C744 0.930 . S
H736 C749 0.929 . S
H737 C747 0.929 . S
H738 C742 0.929 . S
H739 C748 0.929 1_545 S
C740 H734 0.930 . S
C740 C741 1.367 . S
C740 C748 1.378 . S
C741 C740 1.367 . S
C741 C749 1.433 . S
C742 H738 0.929 . S
C742 C744 1.378 . S
C742 C746 1.350 . S
C743 C746 1.463 . S
C743 C748 1.350 . S
C743 N751 1.427 . S
C744 H735 0.930 . S
C744 C742 1.378 . S
C744 C745 1.367 1_565 S
C745 C744 1.367 1_545 S
C745 C747 1.433 . S
C746 C742 1.350 . S
C746 C743 1.463 . S
C746 N750 1.427 1_565 S
C747 H737 0.929 . S
C747 C745 1.433 . S
C747 N750 1.384 . S
C748 H739 0.929 1_565 S
C748 C740 1.378 . S
C748 C743 1.350 . S
C749 H736 0.929 . S
C749 C741 1.433 . S
C749 N751 1.384 . S
N750 C746 1.427 1_545 S
N750 C747 1.384 . S
N751 C743 1.427 . S
N751 C749 1.384 . S
H752 C758 0.930 . S
H753 C762 0.930 . S
H754 C767 0.929 . S
H755 C765 0.929 . S
H756 C760 0.929 . S
H757 C766 0.929 . S
C758 H752 0.930 . S
C758 C759 1.367 . S
C758 C766 1.378 . S
C759 C758 1.367 . S
C759 C767 1.433 . S
C760 H756 0.929 . S
C760 C762 1.378 . S
C760 C764 1.350 1_554 S
C761 C764 1.463 . S
C761 C766 1.350 . S
C761 N769 1.427 . S
C762 H753 0.930 . S
C762 C760 1.378 . S
C762 C763 1.367 . S
C763 C762 1.367 . S
C763 C765 1.433 . S
C764 C760 1.350 1_556 S
C764 C761 1.463 . S
C764 N768 1.427 1_556 S
C765 H755 0.929 . S
C765 C763 1.433 . S
C765 N768 1.384 . S
C766 H757 0.929 . S
C766 C758 1.378 . S
C766 C761 1.350 . S
C767 H754 0.929 . S
C767 C759 1.433 . S
C767 N769 1.384 . S
N768 C764 1.427 1_554 S
N768 C765 1.384 . S
N769 C761 1.427 . S
N769 C767 1.384 . S
H770 C776 0.930 . S
H771 C780 0.930 . S
H772 C785 0.929 . S
H773 C783 0.929 . S
H774 C778 0.929 . S
H775 C784 0.929 . S
C776 H770 0.930 . S
C776 C777 1.367 . S
C776 C784 1.378 . S
C777 C776 1.367 . S
C777 C785 1.433 . S
C778 H774 0.929 . S
C778 C780 1.378 . S
C778 C782 1.350 . S
C779 C782 1.463 . S
C779 C784 1.350 . S
C779 N787 1.427 . S
C780 H771 0.930 . S
C780 C778 1.378 . S
C780 C781 1.367 . S
C781 C780 1.367 . S
C781 C783 1.433 . S
C782 C778 1.350 . S
C782 C779 1.463 . S
C782 N786 1.427 . S
C783 H773 0.929 . S
C783 C781 1.433 . S
C783 N786 1.384 . S
C784 H775 0.929 . S
C784 C776 1.378 . S
C784 C779 1.350 . S
C785 H772 0.929 . S
C785 C777 1.433 . S
C785 N787 1.384 . S
N786 C782 1.427 . S
N786 C783 1.384 . S
N787 C779 1.427 . S
N787 C785 1.384 . S
H788 C794 0.930 . S
H789 C798 0.930 . S
H790 C803 0.929 . S
H791 C801 0.929 . S
H792 C796 0.929 . S
H793 C802 0.929 . S
C794 H788 0.930 . S
C794 C795 1.367 . S
C794 C802 1.378 . S
C795 C794 1.367 . S
C795 C803 1.433 . S
C796 H792 0.929 . S
C796 C798 1.378 . S
C796 C800 1.350 . S
C797 C800 1.463 . S
C797 C802 1.350 . S
C797 N805 1.427 . S
C798 H789 0.930 . S
C798 C796 1.378 . S
C798 C799 1.367 . S
C799 C798 1.367 . S
C799 C801 1.433 . S
C800 C796 1.350 . S
C800 C797 1.463 . S
C800 N804 1.427 . S
C801 H791 0.929 . S
C801 C799 1.433 . S
C801 N804 1.384 . S
C802 H793 0.929 . S
C802 C794 1.378 . S
C802 C797 1.350 . S
C803 H790 0.929 . S
C803 C795 1.433 . S
C803 N805 1.384 . S
N804 C800 1.427 . S
N804 C801 1.384 . S
N805 C797 1.427 . S
N805 C803 1.384 . S
H806 C812 0.930 . S
H807 C816 0.930 . S
H808 C821 0.929 . S
H809 C819 0.929 . S
H810 C814 0.929 . S
H811 C820 0.929 . S
C812 H806 0.930 . S
C812 C813 1.367 . S
C812 C820 1.378 . S
C813 C812 1.367 . S
C813 C821 1.433 . S
C814 H810 0.929 . S
C814 C816 1.378 . S
C814 C818 1.350 . S
C815 C818 1.463 . S
C815 C820 1.350 . S
C815 N823 1.427 . S
C816 H807 0.930 . S
C816 C814 1.378 . S
C816 C817 1.367 . S
C817 C816 1.367 . S
C817 C819 1.433 . S
C818 C814 1.350 . S
C818 C815 1.463 . S
C818 N822 1.427 . S
C819 H809 0.929 . S
C819 C817 1.433 . S
C819 N822 1.384 . S
C820 H811 0.929 . S
C820 C812 1.378 . S
C820 C815 1.350 . S
C821 H808 0.929 . S
C821 C813 1.433 . S
C821 N823 1.384 . S
N822 C818 1.427 . S
N822 C819 1.384 . S
N823 C815 1.427 . S
N823 C821 1.384 . S
H824 C830 0.930 . S
H825 C834 0.930 . S
H826 C839 0.929 . S
H827 C837 0.929 . S
H828 C832 0.929 1_554 S
H829 C838 0.929 . S
C830 H824 0.930 . S
C830 C831 1.367 . S
C830 C838 1.378 . S
C831 C830 1.367 . S
C831 C839 1.433 . S
C832 H828 0.929 1_556 S
C832 C834 1.378 . S
C832 C836 1.350 1_556 S
C833 C836 1.463 . S
C833 C838 1.350 . S
C833 N841 1.427 . S
C834 H825 0.930 . S
C834 C832 1.378 . S
C834 C835 1.367 . S
C835 C834 1.367 . S
C835 C837 1.433 . S
C836 C832 1.350 1_554 S
C836 C833 1.463 . S
C836 N840 1.427 1_554 S
C837 H827 0.929 . S
C837 C835 1.433 . S
C837 N840 1.384 . S
C838 H829 0.929 . S
C838 C830 1.378 . S
C838 C833 1.350 . S
C839 H826 0.929 . S
C839 C831 1.433 . S
C839 N841 1.384 . S
N840 C836 1.427 1_556 S
N840 C837 1.384 . S
N841 C833 1.427 . S
N841 C839 1.384 . S
H842 C848 0.930 . S
H843 C852 0.930 . S
H844 C857 0.929 . S
H845 C855 0.929 . S
H846 C850 0.929 . S
H847 C856 0.929 . S
C848 H842 0.930 . S
C848 C849 1.367 . S
C848 C856 1.378 . S
C849 C848 1.367 . S
C849 C857 1.433 . S
C850 H846 0.929 . S
C850 C852 1.378 . S
C850 C854 1.350 . S
C851 C854 1.463 . S
C851 C856 1.350 . S
C851 N859 1.427 . S
C852 H843 0.930 . S
C852 C850 1.378 . S
C852 C853 1.367 . S
C853 C852 1.367 . S
C853 C855 1.433 . S
C854 C850 1.350 . S
C854 C851 1.463 . S
C854 N858 1.427 . S
C855 H845 0.929 . S
C855 C853 1.433 . S
C855 N858 1.384 . S
C856 H847 0.929 . S
C856 C848 1.378 . S
C856 C851 1.350 . S
C857 H844 0.929 . S
C857 C849 1.433 . S
C857 N859 1.384 . S
N858 C854 1.427 . S
N858 C855 1.384 . S
N859 C851 1.427 . S
N859 C857 1.384 . S
H860 C866 0.930 . S
H861 C870 0.930 . S
H862 C875 0.929 . S
H863 C873 0.929 . S
H864 C868 0.929 . S
H865 C874 0.929 . S
C866 H860 0.930 . S
C866 C867 1.367 . S
C866 C874 1.378 . S
C867 C866 1.367 . S
C867 C875 1.433 . S
C868 H864 0.929 . S
C868 C870 1.378 . S
C868 C872 1.350 . S
C869 C872 1.463 . S
C869 C874 1.350 . S
C869 N877 1.427 . S
C870 H861 0.930 . S
C870 C868 1.378 . S
C870 C871 1.367 . S
C871 C870 1.367 . S
C871 C873 1.433 . S
C872 C868 1.350 . S
C872 C869 1.463 . S
C872 N876 1.427 . S
C873 H863 0.929 . S
C873 C871 1.433 . S
C873 N876 1.384 . S
C874 H865 0.929 . S
C874 C866 1.378 . S
C874 C869 1.350 . S
C875 H862 0.929 . S
C875 C867 1.433 . S
C875 N877 1.384 . S
N876 C872 1.427 . S
N876 C873 1.384 . S
N877 C869 1.427 . S
N877 C875 1.384 . S
H878 C884 0.930 . S
H879 C888 0.930 . S
H880 C893 0.929 . S
H881 C891 0.929 . S
H882 C886 0.929 . S
H883 C892 0.929 . S
C884 H878 0.930 . S
C884 C885 1.367 . S
C884 C892 1.378 . S
C885 C884 1.367 . S
C885 C893 1.433 . S
C886 H882 0.929 . S
C886 C888 1.378 . S
C886 C890 1.350 . S
C887 C890 1.463 . S
C887 C892 1.350 . S
C887 N895 1.427 . S
C888 H879 0.930 . S
C888 C886 1.378 . S
C888 C889 1.367 . S
C889 C888 1.367 . S
C889 C891 1.433 . S
C890 C886 1.350 . S
C890 C887 1.463 . S
C890 N894 1.427 . S
C891 H881 0.929 . S
C891 C889 1.433 . S
C891 N894 1.384 . S
C892 H883 0.929 . S
C892 C884 1.378 . S
C892 C887 1.350 . S
C893 H880 0.929 . S
C893 C885 1.433 . S
C893 N895 1.384 . S
N894 C890 1.427 . S
N894 C891 1.384 . S
N895 C887 1.427 . S
N895 C893 1.384 . S
H896 C902 0.930 . S
H897 C906 0.930 . S
H898 C911 0.929 . S
H899 C909 0.929 . S
H900 C904 0.929 . S
H901 C910 0.929 . S
C902 H896 0.930 . S
C902 C903 1.367 . S
C902 C910 1.378 . S
C903 C902 1.367 . S
C903 C911 1.433 . S
C904 H900 0.929 . S
C904 C906 1.378 . S
C904 C908 1.350 . S
C905 C908 1.463 . S
C905 C910 1.350 . S
C905 N913 1.427 . S
C906 H897 0.930 . S
C906 C904 1.378 . S
C906 C907 1.367 . S
C907 C906 1.367 . S
C907 C909 1.433 . S
C908 C904 1.350 . S
C908 C905 1.463 . S
C908 N912 1.427 . S
C909 H899 0.929 . S
C909 C907 1.433 . S
C909 N912 1.384 . S
C910 H901 0.929 . S
C910 C902 1.378 . S
C910 C905 1.350 . S
C911 H898 0.929 . S
C911 C903 1.433 . S
C911 N913 1.384 . S
N912 C908 1.427 . S
N912 C909 1.384 . S
N913 C905 1.427 . S
N913 C911 1.384 . S
H914 C920 0.930 . S
H915 C924 0.930 . S
H916 C929 0.929 . S
H917 C927 0.929 . S
H918 C922 0.929 . S
H919 C928 0.929 . S
C920 H914 0.930 . S
C920 C921 1.367 . S
C920 C928 1.378 . S
C921 C920 1.367 . S
C921 C929 1.433 1_565 S
C922 H918 0.929 . S
C922 C924 1.378 . S
C922 C926 1.350 . S
C923 C926 1.463 . S
C923 C928 1.350 1_545 S
C923 N931 1.427 . S
C924 H915 0.930 . S
C924 C922 1.378 . S
C924 C925 1.367 . S
C925 C924 1.367 . S
C925 C927 1.433 . S
C926 C922 1.350 . S
C926 C923 1.463 . S
C926 N930 1.427 . S
C927 H917 0.929 . S
C927 C925 1.433 . S
C927 N930 1.384 . S
C928 H919 0.929 . S
C928 C920 1.378 . S
C928 C923 1.350 1_565 S
C929 H916 0.929 . S
C929 C921 1.433 1_545 S
C929 N931 1.384 . S
N930 C926 1.427 . S
N930 C927 1.384 . S
N931 C923 1.427 . S
N931 C929 1.384 . S
H932 C938 0.930 . S
H933 C942 0.930 . S
H934 C947 0.929 . S
H935 C945 0.929 . S
H936 C940 0.929 . S
H937 C946 0.929 . S
C938 H932 0.930 . S
C938 C939 1.367 . S
C938 C946 1.378 . S
C939 C938 1.367 . S
C939 C947 1.433 . S
C940 H936 0.929 . S
C940 C942 1.378 1_556 S
C940 C944 1.350 . S
C941 C944 1.463 . S
C941 C946 1.350 . S
C941 N949 1.427 . S
C942 H933 0.930 . S
C942 C940 1.378 1_554 S
C942 C943 1.367 . S
C943 C942 1.367 . S
C943 C945 1.433 . S
C944 C940 1.350 . S
C944 C941 1.463 . S
C944 N948 1.427 1_556 S
C945 H935 0.929 . S
C945 C943 1.433 . S
C945 N948 1.384 . S
C946 H937 0.929 . S
C946 C938 1.378 . S
C946 C941 1.350 . S
C947 H934 0.929 . S
C947 C939 1.433 . S
C947 N949 1.384 . S
N948 C944 1.427 1_554 S
N948 C945 1.384 . S
N949 C941 1.427 . S
N949 C947 1.384 . S
H950 C956 0.930 . S
H951 C960 0.930 . S
H952 C965 0.929 . S
H953 C963 0.929 . S
H954 C958 0.929 . S
H955 C964 0.929 . S
C956 H950 0.930 . S
C956 C957 1.367 1_565 S
C956 C964 1.378 . S
C957 C956 1.367 1_545 S
C957 C965 1.433 . S
C958 H954 0.929 . S
C958 C960 1.378 . S
C958 C962 1.350 . S
C959 C962 1.463 . S
C959 C964 1.350 1_545 S
C959 N967 1.427 . S
C960 H951 0.930 . S
C960 C958 1.378 . S
C960 C961 1.371 . S
C961 C960 1.371 . S
C961 C963 1.430 1_545 S
C962 C958 1.350 . S
C962 C959 1.463 . S
C962 N966 1.427 1_545 S
C963 H953 0.929 . S
C963 C961 1.430 1_565 S
C963 N966 1.384 . S
C964 H955 0.929 . S
C964 C956 1.378 . S
C964 C959 1.350 1_565 S
C965 H952 0.929 . S
C965 C957 1.433 . S
C965 N967 1.384 . S
N966 C962 1.427 1_565 S
N966 C963 1.384 . S
N967 C959 1.427 . S
N967 C965 1.384 . S
H968 C974 0.930 . S
H969 C978 0.930 . S
H970 C983 0.929 . S
H971 C981 0.929 . S
H972 C976 0.929 . S
H973 C982 0.929 . S
C974 H968 0.930 . S
C974 C975 1.367 . S
C974 C982 1.378 . S
C975 C974 1.367 . S
C975 C983 1.433 . S
C976 H972 0.929 . S
C976 C978 1.378 . S
C976 C980 1.350 . S
C977 C980 1.463 . S
C977 C982 1.350 . S
C977 N985 1.427 . S
C978 H969 0.930 . S
C978 C976 1.378 . S
C978 C979 1.367 . S
C979 C978 1.367 . S
C979 C981 1.433 . S
C980 C976 1.350 . S
C980 C977 1.463 . S
C980 N984 1.427 . S
C981 H971 0.929 . S
C981 C979 1.433 . S
C981 N984 1.384 . S
C982 H973 0.929 . S
C982 C974 1.378 . S
C982 C977 1.350 . S
C983 H970 0.929 . S
C983 C975 1.433 . S
C983 N985 1.384 . S
N984 C980 1.427 . S
N984 C981 1.384 . S
N985 C977 1.427 . S
N985 C983 1.384 . S
H986 C992 0.930 . S
H987 C996 0.930 . S
H988 C1001 0.929 . S
H989 C999 0.929 . S
H990 C994 0.929 . S
H991 C1000 0.929 . S
C992 H986 0.930 . S
C992 C993 1.367 . S
C992 C1000 1.378 . S
C993 C992 1.367 . S
C993 C1001 1.433 1_545 S
C994 H990 0.929 . S
C994 C996 1.378 . S
C994 C998 1.350 . S
C995 C998 1.463 . S
C995 C1000 1.350 1_565 S
C995 N1003 1.427 . S
C996 H987 0.930 . S
C996 C994 1.378 . S
C996 C997 1.367 . S
C997 C996 1.367 . S
C997 C999 1.433 1_565 S
C998 C994 1.350 . S
C998 C995 1.463 . S
C998 N1002 1.427 1_565 S
C999 H989 0.929 . S
C999 C997 1.433 1_545 S
C999 N1002 1.384 . S
C1000 H991 0.929 . S
C1000 C992 1.378 . S
C1000 C995 1.350 1_545 S
C1001 H988 0.929 . S
C1001 C993 1.433 1_565 S
C1001 N1003 1.384 . S
N1002 C998 1.427 1_545 S
N1002 C999 1.384 . S
N1003 C995 1.427 . S
N1003 C1001 1.384 . S
H1004 C1010 0.930 . S
H1005 C1014 0.930 . S
H1006 C1019 0.929 . S
H1007 C1017 0.929 . S
H1008 C1012 0.929 1_554 S
H1009 C1018 0.929 . S
C1010 H1004 0.930 . S
C1010 C1011 1.367 . S
C1010 C1018 1.378 . S
C1011 C1010 1.367 . S
C1011 C1019 1.433 . S
C1012 H1008 0.929 1_556 S
C1012 C1014 1.378 . S
C1012 C1016 1.350 1_556 S
C1013 C1016 1.463 . S
C1013 C1018 1.350 . S
C1013 N1021 1.427 . S
C1014 H1005 0.930 . S
C1014 C1012 1.378 . S
C1014 C1015 1.367 . S
C1015 C1014 1.367 . S
C1015 C1017 1.433 . S
C1016 C1012 1.350 1_554 S
C1016 C1013 1.463 . S
C1016 N1020 1.427 1_554 S
C1017 H1007 0.929 . S
C1017 C1015 1.433 . S
C1017 N1020 1.384 . S
C1018 H1009 0.929 . S
C1018 C1010 1.378 . S
C1018 C1013 1.350 . S
C1019 H1006 0.929 . S
C1019 C1011 1.433 . S
C1019 N1021 1.384 . S
N1020 C1016 1.427 1_556 S
N1020 C1017 1.384 . S
N1021 C1013 1.427 . S
N1021 C1019 1.384 . S
H1022 C1028 0.930 . S
H1023 C1032 0.930 . S
H1024 C1037 0.929 . S
H1025 C1035 0.929 . S
H1026 C1030 0.929 . S
H1027 C1036 0.929 . S
C1028 H1022 0.930 . S
C1028 C1029 1.367 . S
C1028 C1036 1.378 . S
C1029 C1028 1.367 . S
C1029 C1037 1.433 1_545 S
C1030 H1026 0.929 . S
C1030 C1032 1.378 . S
C1030 C1034 1.358 . S
C1031 C1034 1.461 1_545 S
C1031 C1036 1.350 . S
C1031 N1039 1.427 1_545 S
C1032 H1023 0.930 . S
C1032 C1030 1.378 . S
C1032 C1033 1.367 . S
C1033 C1032 1.367 . S
C1033 C1035 1.433 1_565 S
C1034 C1030 1.358 . S
C1034 C1031 1.461 1_565 S
C1034 N1038 1.420 1_565 S
C1035 H1025 0.929 . S
C1035 C1033 1.433 1_545 S
C1035 N1038 1.384 . S
C1036 H1027 0.929 . S
C1036 C1028 1.378 . S
C1036 C1031 1.350 . S
C1037 H1024 0.929 . S
C1037 C1029 1.433 1_565 S
C1037 N1039 1.384 . S
N1038 C1034 1.420 1_545 S
N1038 C1035 1.384 . S
N1039 C1031 1.427 1_565 S
N1039 C1037 1.384 . S
H1040 C1046 0.930 . S
H1041 C1050 0.930 . S
H1042 C1055 0.929 . S
H1043 C1053 0.929 . S
H1044 C1048 0.929 . S
H1045 C1054 0.929 1_554 S
C1046 H1040 0.930 . S
C1046 C1047 1.367 . S
C1046 C1054 1.378 1_565 S
C1047 C1046 1.367 . S
C1047 C1055 1.433 . S
C1048 H1044 0.929 . S
C1048 C1050 1.378 . S
C1048 C1052 1.350 . S
C1049 C1052 1.463 1_556 S
C1049 C1054 1.350 . S
C1049 N1057 1.427 1_545 S
C1050 H1041 0.930 . S
C1050 C1048 1.378 . S
C1050 C1051 1.367 . S
C1051 C1050 1.367 . S
C1051 C1053 1.433 . S
C1052 C1048 1.350 . S
C1052 C1049 1.463 1_554 S
C1052 N1056 1.427 . S
C1053 H1043 0.929 . S
C1053 C1051 1.433 . S
C1053 N1056 1.384 . S
C1054 H1045 0.929 1_556 S
C1054 C1046 1.378 1_545 S
C1054 C1049 1.350 . S
C1055 H1042 0.929 . S
C1055 C1047 1.433 . S
C1055 N1057 1.384 . S
N1056 C1052 1.427 . S
N1056 C1053 1.384 . S
N1057 C1049 1.427 1_565 S
N1057 C1055 1.384 . S
H1058 C1064 0.930 . S
H1059 C1068 0.930 . S
H1060 C1073 0.929 . S
H1061 C1071 0.929 . S
H1062 C1066 0.929 . S
H1063 C1072 0.929 . S
C1064 H1058 0.930 . S
C1064 C1065 1.367 . S
C1064 C1072 1.378 . S
C1065 C1064 1.367 . S
C1065 C1073 1.433 . S
C1066 H1062 0.929 . S
C1066 C1068 1.378 . S
C1066 C1070 1.350 . S
C1067 C1070 1.463 . S
C1067 C1072 1.350 . S
C1067 N1075 1.427 . S
C1068 H1059 0.930 . S
C1068 C1066 1.378 . S
C1068 C1069 1.367 . S
C1069 C1068 1.367 . S
C1069 C1071 1.433 . S
C1070 C1066 1.350 . S
C1070 C1067 1.463 . S
C1070 N1074 1.427 . S
C1071 H1061 0.929 . S
C1071 C1069 1.433 . S
C1071 N1074 1.384 . S
C1072 H1063 0.929 . S
C1072 C1064 1.378 . S
C1072 C1067 1.350 . S
C1073 H1060 0.929 . S
C1073 C1065 1.433 . S
C1073 N1075 1.384 . S
N1074 C1070 1.427 . S
N1074 C1071 1.384 . S
N1075 C1067 1.427 . S
N1075 C1073 1.384 . S
H1076 C1082 0.932 . S
H1077 C1086 0.930 1_545 S
H1078 C1091 0.929 . S
H1079 C1089 0.929 . S
H1080 C1084 0.939 . S
H1081 C1090 0.929 . S
C1082 H1076 0.932 . S
C1082 C1083 1.364 1_565 S
C1082 C1090 1.379 1_655 S
C1083 C1082 1.364 1_545 S
C1083 C1091 1.433 . S
C1084 H1080 0.939 . S
C1084 C1086 1.371 1_645 S
C1084 C1088 1.346 1_645 S
C1085 C1088 1.463 1_645 S
C1085 C1090 1.350 1_645 S
C1085 N1093 1.427 . S
C1086 H1077 0.930 1_565 S
C1086 C1084 1.371 1_465 S
C1086 C1087 1.367 . S
C1087 C1086 1.367 . S
C1087 C1089 1.433 . S
C1088 C1084 1.346 1_465 S
C1088 C1085 1.463 1_465 S
C1088 N1092 1.427 . S
C1089 H1079 0.929 . S
C1089 C1087 1.433 . S
C1089 N1092 1.384 . S
C1090 H1081 0.929 . S
C1090 C1082 1.379 1_455 S
C1090 C1085 1.350 1_465 S
C1091 H1078 0.929 . S
C1091 C1083 1.433 . S
C1091 N1093 1.384 . S
N1092 C1088 1.427 . S
N1092 C1089 1.384 . S
N1093 C1085 1.427 . S
N1093 C1091 1.384 . S
H1094 C1100 0.930 . S
H1095 C1104 0.930 . S
H1096 C1109 0.929 . S
H1097 C1107 0.929 . S
H1098 C1102 0.929 . S
H1099 C1108 0.929 . S
C1100 H1094 0.930 . S
C1100 C1101 1.367 . S
C1100 C1108 1.378 . S
C1101 C1100 1.367 . S
C1101 C1109 1.433 . S
C1102 H1098 0.929 . S
C1102 C1104 1.378 . S
C1102 C1106 1.350 . S
C1103 C1106 1.463 . S
C1103 C1108 1.350 . S
C1103 N1111 1.427 . S
C1104 H1095 0.930 . S
C1104 C1102 1.378 . S
C1104 C1105 1.367 . S
C1105 C1104 1.367 . S
C1105 C1107 1.433 . S
C1106 C1102 1.350 . S
C1106 C1103 1.463 . S
C1106 N1110 1.427 . S
C1107 H1097 0.929 . S
C1107 C1105 1.433 . S
C1107 N1110 1.384 . S
C1108 H1099 0.929 . S
C1108 C1100 1.378 . S
C1108 C1103 1.350 . S
C1109 H1096 0.929 . S
C1109 C1101 1.433 . S
C1109 N1111 1.384 . S
N1110 C1106 1.427 . S
N1110 C1107 1.384 . S
N1111 C1103 1.427 . S
N1111 C1109 1.384 . S
H1112 C1118 0.930 . S
H1113 C1122 0.930 . S
H1114 C1127 0.929 . S
H1115 C1125 0.929 . S
H1116 C1120 0.929 . S
H1117 C1126 0.929 . S
C1118 H1112 0.930 . S
C1118 C1119 1.367 . S
C1118 C1126 1.378 . S
C1119 C1118 1.367 . S
C1119 C1127 1.433 . S
C1120 H1116 0.929 . S
C1120 C1122 1.378 . S
C1120 C1124 1.350 . S
C1121 C1124 1.463 . S
C1121 C1126 1.350 . S
C1121 N1129 1.427 . S
C1122 H1113 0.930 . S
C1122 C1120 1.378 . S
C1122 C1123 1.367 . S
C1123 C1122 1.367 . S
C1123 C1125 1.433 . S
C1124 C1120 1.350 . S
C1124 C1121 1.463 . S
C1124 N1128 1.427 . S
C1125 H1115 0.929 . S
C1125 C1123 1.433 . S
C1125 N1128 1.384 . S
C1126 H1117 0.929 . S
C1126 C1118 1.378 . S
C1126 C1121 1.350 . S
C1127 H1114 0.929 . S
C1127 C1119 1.433 . S
C1127 N1129 1.384 . S
N1128 C1124 1.427 . S
N1128 C1125 1.384 . S
N1129 C1121 1.427 . S
N1129 C1127 1.384 . S
H1130 C1136 0.930 . S
H1131 C1140 0.930 . S
H1132 C1145 0.929 . S
H1133 C1143 0.929 . S
H1134 C1138 0.929 . S
H1135 C1144 0.929 . S
C1136 H1130 0.930 . S
C1136 C1137 1.367 . S
C1136 C1144 1.378 . S
C1137 C1136 1.367 . S
C1137 C1145 1.433 . S
C1138 H1134 0.929 . S
C1138 C1140 1.378 . S
C1138 C1142 1.350 . S
C1139 C1142 1.463 . S
C1139 C1144 1.350 . S
C1139 N1147 1.427 . S
C1140 H1131 0.930 . S
C1140 C1138 1.378 . S
C1140 C1141 1.367 . S
C1141 C1140 1.367 . S
C1141 C1143 1.433 . S
C1142 C1138 1.350 . S
C1142 C1139 1.463 . S
C1142 N1146 1.427 . S
C1143 H1133 0.929 . S
C1143 C1141 1.433 . S
C1143 N1146 1.384 . S
C1144 H1135 0.929 . S
C1144 C1136 1.378 . S
C1144 C1139 1.350 . S
C1145 H1132 0.929 . S
C1145 C1137 1.433 . S
C1145 N1147 1.384 . S
N1146 C1142 1.427 . S
N1146 C1143 1.384 . S
N1147 C1139 1.427 . S
N1147 C1145 1.384 . S
H1148 C1154 0.930 . S
H1149 C1158 0.930 . S
H1150 C1163 0.929 . S
H1151 C1161 0.929 . S
H1152 C1156 0.929 . S
H1153 C1162 0.929 . S
C1154 H1148 0.930 . S
C1154 C1155 1.367 . S
C1154 C1162 1.378 . S
C1155 C1154 1.367 . S
C1155 C1163 1.433 . S
C1156 H1152 0.929 . S
C1156 C1158 1.378 . S
C1156 C1160 1.350 . S
C1157 C1160 1.463 1_655 S
C1157 C1162 1.350 . S
C1157 N1165 1.427 . S
C1158 H1149 0.930 . S
C1158 C1156 1.378 . S
C1158 C1159 1.367 . S
C1159 C1158 1.367 . S
C1159 C1161 1.433 . S
C1160 C1156 1.350 . S
C1160 C1157 1.463 1_455 S
C1160 N1164 1.427 . S
C1161 H1151 0.929 . S
C1161 C1159 1.433 . S
C1161 N1164 1.384 . S
C1162 H1153 0.929 . S
C1162 C1154 1.378 . S
C1162 C1157 1.350 . S
C1163 H1150 0.929 . S
C1163 C1155 1.433 . S
C1163 N1165 1.384 . S
N1164 C1160 1.427 . S
N1164 C1161 1.384 . S
N1165 C1157 1.427 . S
N1165 C1163 1.384 . S
H1166 C1172 0.930 . S
H1167 C1176 0.930 . S
H1168 C1181 0.929 . S
H1169 C1179 0.929 . S
H1170 C1174 0.929 . S
H1171 C1180 0.929 . S
C1172 H1166 0.930 . S
C1172 C1173 1.367 . S
C1172 C1180 1.378 . S
C1173 C1172 1.367 . S
C1173 C1181 1.433 . S
C1174 H1170 0.929 . S
C1174 C1176 1.378 . S
C1174 C1178 1.350 . S
C1175 C1178 1.463 1_554 S
C1175 C1180 1.350 . S
C1175 N1183 1.427 . S
C1176 H1167 0.930 . S
C1176 C1174 1.378 . S
C1176 C1177 1.367 . S
C1177 C1176 1.367 . S
C1177 C1179 1.433 . S
C1178 C1174 1.350 . S
C1178 C1175 1.463 1_556 S
C1178 N1182 1.427 . S
C1179 H1169 0.929 . S
C1179 C1177 1.433 . S
C1179 N1182 1.384 . S
C1180 H1171 0.929 . S
C1180 C1172 1.378 . S
C1180 C1175 1.350 . S
C1181 H1168 0.929 . S
C1181 C1173 1.433 . S
C1181 N1183 1.384 . S
N1182 C1178 1.427 . S
N1182 C1179 1.384 . S
N1183 C1175 1.427 . S
N1183 C1181 1.384 . S
H1184 C1190 0.930 . S
H1185 C1194 0.930 . S
H1186 C1199 0.929 . S
H1187 C1197 0.929 . S
H1188 C1192 0.929 . S
H1189 C1198 0.929 . S
C1190 H1184 0.930 . S
C1190 C1191 1.367 . S
C1190 C1198 1.378 . S
C1191 C1190 1.367 . S
C1191 C1199 1.433 . S
C1192 H1188 0.929 . S
C1192 C1194 1.378 . S
C1192 C1196 1.350 . S
C1193 C1196 1.463 . S
C1193 C1198 1.350 . S
C1193 N1201 1.427 . S
C1194 H1185 0.930 . S
C1194 C1192 1.378 . S
C1194 C1195 1.367 . S
C1195 C1194 1.367 . S
C1195 C1197 1.433 . S
C1196 C1192 1.350 . S
C1196 C1193 1.463 . S
C1196 N1200 1.427 . S
C1197 H1187 0.929 . S
C1197 C1195 1.433 . S
C1197 N1200 1.384 . S
C1198 H1189 0.929 . S
C1198 C1190 1.378 . S
C1198 C1193 1.350 . S
C1199 H1186 0.929 . S
C1199 C1191 1.433 . S
C1199 N1201 1.384 . S
N1200 C1196 1.427 . S
N1200 C1197 1.384 . S
N1201 C1193 1.427 . S
N1201 C1199 1.384 . S
H1202 C1208 0.930 . S
H1203 C1212 0.930 . S
H1204 C1217 0.929 . S
H1205 C1215 0.929 . S
H1206 C1210 0.929 . S
H1207 C1216 0.929 . S
C1208 H1202 0.930 . S
C1208 C1209 1.367 . S
C1208 C1216 1.378 . S
C1209 C1208 1.367 . S
C1209 C1217 1.433 . S
C1210 H1206 0.929 . S
C1210 C1212 1.378 . S
C1210 C1214 1.350 . S
C1211 C1214 1.463 . S
C1211 C1216 1.350 . S
C1211 N1219 1.427 . S
C1212 H1203 0.930 . S
C1212 C1210 1.378 . S
C1212 C1213 1.367 . S
C1213 C1212 1.367 . S
C1213 C1215 1.433 . S
C1214 C1210 1.350 . S
C1214 C1211 1.463 . S
C1214 N1218 1.427 . S
C1215 H1205 0.929 . S
C1215 C1213 1.433 . S
C1215 N1218 1.384 . S
C1216 H1207 0.929 . S
C1216 C1208 1.378 . S
C1216 C1211 1.350 . S
C1217 H1204 0.929 . S
C1217 C1209 1.433 . S
C1217 N1219 1.384 . S
N1218 C1214 1.427 . S
N1218 C1215 1.384 . S
N1219 C1211 1.427 . S
N1219 C1217 1.384 . S
H1220 C1226 0.930 . S
H1221 C1230 0.930 . S
H1222 C1235 0.929 . S
H1223 C1233 0.929 . S
H1224 C1228 0.929 . S
H1225 C1234 0.929 . S
C1226 H1220 0.930 . S
C1226 C1227 1.367 . S
C1226 C1234 1.378 . S
C1227 C1226 1.367 . S
C1227 C1235 1.433 . S
C1228 H1224 0.929 . S
C1228 C1230 1.378 . S
C1228 C1232 1.350 . S
C1229 C1232 1.463 . S
C1229 C1234 1.350 . S
C1229 N1237 1.427 . S
C1230 H1221 0.930 . S
C1230 C1228 1.378 . S
C1230 C1231 1.367 . S
C1231 C1230 1.367 . S
C1231 C1233 1.433 . S
C1232 C1228 1.350 . S
C1232 C1229 1.463 . S
C1232 N1236 1.427 . S
C1233 H1223 0.929 . S
C1233 C1231 1.433 . S
C1233 N1236 1.384 . S
C1234 H1225 0.929 . S
C1234 C1226 1.378 . S
C1234 C1229 1.350 . S
C1235 H1222 0.929 . S
C1235 C1227 1.433 . S
C1235 N1237 1.384 . S
N1236 C1232 1.427 . S
N1236 C1233 1.384 . S
N1237 C1229 1.427 . S
N1237 C1235 1.384 . S
H1238 C1244 0.930 . S
H1239 C1248 0.930 . S
H1240 C1253 0.929 . S
H1241 C1251 0.929 . S
H1242 C1246 0.929 . S
H1243 C1252 0.929 . S
C1244 H1238 0.930 . S
C1244 C1245 1.367 . S
C1244 C1252 1.378 . S
C1245 C1244 1.367 . S
C1245 C1253 1.433 . S
C1246 H1242 0.929 . S
C1246 C1248 1.378 . S
C1246 C1250 1.350 . S
C1247 C1250 1.463 . S
C1247 C1252 1.350 . S
C1247 N1255 1.427 . S
C1248 H1239 0.930 . S
C1248 C1246 1.378 . S
C1248 C1249 1.367 . S
C1249 C1248 1.367 . S
C1249 C1251 1.433 . S
C1250 C1246 1.350 . S
C1250 C1247 1.463 . S
C1250 N1254 1.427 . S
C1251 H1241 0.929 . S
C1251 C1249 1.433 . S
C1251 N1254 1.384 . S
C1252 H1243 0.929 . S
C1252 C1244 1.378 . S
C1252 C1247 1.350 . S
C1253 H1240 0.929 . S
C1253 C1245 1.433 . S
C1253 N1255 1.384 . S
N1254 C1250 1.427 . S
N1254 C1251 1.384 . S
N1255 C1247 1.427 . S
N1255 C1253 1.384 . S
H1256 C1262 0.930 . S
H1257 C1266 0.930 . S
H1258 C1271 0.929 . S
H1259 C1269 0.929 . S
H1260 C1264 0.929 . S
H1261 C1270 0.929 . S
C1262 H1256 0.930 . S
C1262 C1263 1.367 . S
C1262 C1270 1.378 . S
C1263 C1262 1.367 . S
C1263 C1271 1.433 . S
C1264 H1260 0.929 . S
C1264 C1266 1.378 . S
C1264 C1268 1.350 . S
C1265 C1268 1.463 . S
C1265 C1270 1.350 . S
C1265 N1273 1.427 . S
C1266 H1257 0.930 . S
C1266 C1264 1.378 . S
C1266 C1267 1.367 . S
C1267 C1266 1.367 . S
C1267 C1269 1.433 . S
C1268 C1264 1.350 . S
C1268 C1265 1.463 . S
C1268 N1272 1.427 . S
C1269 H1259 0.929 . S
C1269 C1267 1.433 . S
C1269 N1272 1.384 . S
C1270 H1261 0.929 . S
C1270 C1262 1.378 . S
C1270 C1265 1.350 . S
C1271 H1258 0.929 . S
C1271 C1263 1.433 . S
C1271 N1273 1.384 . S
N1272 C1268 1.427 . S
N1272 C1269 1.384 . S
N1273 C1265 1.427 . S
N1273 C1271 1.384 . S
H1274 C1280 0.930 . S
H1275 C1284 0.930 . S
H1276 C1289 0.929 . S
H1277 C1287 0.929 . S
H1278 C1282 0.929 . S
H1279 C1288 0.929 . S
C1280 H1274 0.930 . S
C1280 C1281 1.367 . S
C1280 C1288 1.378 . S
C1281 C1280 1.367 . S
C1281 C1289 1.433 . S
C1282 H1278 0.929 . S
C1282 C1284 1.378 . S
C1282 C1286 1.350 . S
C1283 C1286 1.463 . S
C1283 C1288 1.350 . S
C1283 N1291 1.427 . S
C1284 H1275 0.930 . S
C1284 C1282 1.378 . S
C1284 C1285 1.367 . S
C1285 C1284 1.367 . S
C1285 C1287 1.433 . S
C1286 C1282 1.350 . S
C1286 C1283 1.463 . S
C1286 N1290 1.427 . S
C1287 H1277 0.929 . S
C1287 C1285 1.433 . S
C1287 N1290 1.384 . S
C1288 H1279 0.929 . S
C1288 C1280 1.378 . S
C1288 C1283 1.350 . S
C1289 H1276 0.929 . S
C1289 C1281 1.433 . S
C1289 N1291 1.384 . S
N1290 C1286 1.427 . S
N1290 C1287 1.384 . S
N1291 C1283 1.427 . S
N1291 C1289 1.384 . S
H1292 C1298 0.930 . S
H1293 C1302 0.930 . S
H1294 C1307 0.929 . S
H1295 C1305 0.929 . S
H1296 C1300 0.929 . S
H1297 C1306 0.929 . S
C1298 H1292 0.930 . S
C1298 C1299 1.367 . S
C1298 C1306 1.378 . S
C1299 C1298 1.367 . S
C1299 C1307 1.433 . S
C1300 H1296 0.929 . S
C1300 C1302 1.378 . S
C1300 C1304 1.350 . S
C1301 C1304 1.463 . S
C1301 C1306 1.350 . S
C1301 N1309 1.427 . S
C1302 H1293 0.930 . S
C1302 C1300 1.378 . S
C1302 C1303 1.367 . S
C1303 C1302 1.367 . S
C1303 C1305 1.433 . S
C1304 C1300 1.350 . S
C1304 C1301 1.463 . S
C1304 N1308 1.427 . S
C1305 H1295 0.929 . S
C1305 C1303 1.433 . S
C1305 N1308 1.384 . S
C1306 H1297 0.929 . S
C1306 C1298 1.378 . S
C1306 C1301 1.350 . S
C1307 H1294 0.929 . S
C1307 C1299 1.433 . S
C1307 N1309 1.384 . S
N1308 C1304 1.427 . S
N1308 C1305 1.384 . S
N1309 C1301 1.427 . S
N1309 C1307 1.384 . S
H1310 C1316 0.930 . S
H1311 C1320 0.930 . S
H1312 C1325 0.929 . S
H1313 C1323 0.929 . S
H1314 C1318 0.929 . S
H1315 C1324 0.929 . S
C1316 H1310 0.930 . S
C1316 C1317 1.367 . S
C1316 C1324 1.378 . S
C1317 C1316 1.367 . S
C1317 C1325 1.433 . S
C1318 H1314 0.929 . S
C1318 C1320 1.378 . S
C1318 C1322 1.350 . S
C1319 C1322 1.463 . S
C1319 C1324 1.350 . S
C1319 N1327 1.427 . S
C1320 H1311 0.930 . S
C1320 C1318 1.378 . S
C1320 C1321 1.367 . S
C1321 C1320 1.367 . S
C1321 C1323 1.433 . S
C1322 C1318 1.350 . S
C1322 C1319 1.463 . S
C1322 N1326 1.427 . S
C1323 H1313 0.929 . S
C1323 C1321 1.433 . S
C1323 N1326 1.384 . S
C1324 H1315 0.929 . S
C1324 C1316 1.378 . S
C1324 C1319 1.350 . S
C1325 H1312 0.929 . S
C1325 C1317 1.433 . S
C1325 N1327 1.384 . S
N1326 C1322 1.427 . S
N1326 C1323 1.384 . S
N1327 C1319 1.427 . S
N1327 C1325 1.384 . S
H1328 C1334 0.930 . S
H1329 C1338 0.930 . S
H1330 C1343 0.929 . S
H1331 C1341 0.929 . S
H1332 C1336 0.929 . S
H1333 C1342 0.929 . S
C1334 H1328 0.930 . S
C1334 C1335 1.367 . S
C1334 C1342 1.378 . S
C1335 C1334 1.367 . S
C1335 C1343 1.433 . S
C1336 H1332 0.929 . S
C1336 C1338 1.378 . S
C1336 C1340 1.350 . S
C1337 C1340 1.463 . S
C1337 C1342 1.350 . S
C1337 N1345 1.427 . S
C1338 H1329 0.930 . S
C1338 C1336 1.378 . S
C1338 C1339 1.367 . S
C1339 C1338 1.367 . S
C1339 C1341 1.433 . S
C1340 C1336 1.350 . S
C1340 C1337 1.463 . S
C1340 N1344 1.427 . S
C1341 H1331 0.929 . S
C1341 C1339 1.433 . S
C1341 N1344 1.384 . S
C1342 H1333 0.929 . S
C1342 C1334 1.378 . S
C1342 C1337 1.350 . S
C1343 H1330 0.929 . S
C1343 C1335 1.433 . S
C1343 N1345 1.384 . S
N1344 C1340 1.427 . S
N1344 C1341 1.384 . S
N1345 C1337 1.427 . S
N1345 C1343 1.384 . S
H1346 C1352 0.930 . S
H1347 C1356 0.930 . S
H1348 C1361 0.929 . S
H1349 C1359 0.929 . S
H1350 C1354 0.929 . S
H1351 C1360 0.929 . S
C1352 H1346 0.930 . S
C1352 C1353 1.367 . S
C1352 C1360 1.378 . S
C1353 C1352 1.367 . S
C1353 C1361 1.433 1_545 S
C1354 H1350 0.929 . S
C1354 C1356 1.378 . S
C1354 C1358 1.350 . S
C1355 C1358 1.463 . S
C1355 C1360 1.350 . S
C1355 N1363 1.427 . S
C1356 H1347 0.930 . S
C1356 C1354 1.378 . S
C1356 C1357 1.367 . S
C1357 C1356 1.367 . S
C1357 C1359 1.433 . S
C1358 C1354 1.350 . S
C1358 C1355 1.463 . S
C1358 N1362 1.427 . S
C1359 H1349 0.929 . S
C1359 C1357 1.433 . S
C1359 N1362 1.384 . S
C1360 H1351 0.929 . S
C1360 C1352 1.378 . S
C1360 C1355 1.350 . S
C1361 H1348 0.929 . S
C1361 C1353 1.433 1_565 S
C1361 N1363 1.384 1_565 S
N1362 C1358 1.427 . S
N1362 C1359 1.384 . S
N1363 C1355 1.427 . S
N1363 C1361 1.384 1_545 S
H1364 C1370 0.930 . S
H1365 C1374 0.930 . S
H1366 C1379 0.929 . S
H1367 C1377 0.929 . S
H1368 C1372 0.929 . S
H1369 C1378 0.929 . S
C1370 H1364 0.930 . S
C1370 C1371 1.367 . S
C1370 C1378 1.378 . S
C1371 C1370 1.367 . S
C1371 C1379 1.433 . S
C1372 H1368 0.929 . S
C1372 C1374 1.378 . S
C1372 C1376 1.350 . S
C1373 C1376 1.463 . S
C1373 C1378 1.350 . S
C1373 N1381 1.427 . S
C1374 H1365 0.930 . S
C1374 C1372 1.378 . S
C1374 C1375 1.367 . S
C1375 C1374 1.367 . S
C1375 C1377 1.433 . S
C1376 C1372 1.350 . S
C1376 C1373 1.463 . S
C1376 N1380 1.427 . S
C1377 H1367 0.929 . S
C1377 C1375 1.433 . S
C1377 N1380 1.384 . S
C1378 H1369 0.929 . S
C1378 C1370 1.378 . S
C1378 C1373 1.350 . S
C1379 H1366 0.929 . S
C1379 C1371 1.433 . S
C1379 N1381 1.384 . S
N1380 C1376 1.427 . S
N1380 C1377 1.384 . S
N1381 C1373 1.427 . S
N1381 C1379 1.384 . S
H1382 C1388 0.930 . S
H1383 C1392 0.930 . S
H1384 C1397 0.929 . S
H1385 C1395 0.929 . S
H1386 C1390 0.929 . S
H1387 C1396 0.929 1_545 S
C1388 H1382 0.930 . S
C1388 C1389 1.367 . S
C1388 C1396 1.378 . S
C1389 C1388 1.367 . S
C1389 C1397 1.433 . S
C1390 H1386 0.929 . S
C1390 C1392 1.378 . S
C1390 C1394 1.350 . S
C1391 C1394 1.463 . S
C1391 C1396 1.350 . S
C1391 N1399 1.427 . S
C1392 H1383 0.930 . S
C1392 C1390 1.378 . S
C1392 C1393 1.367 . S
C1393 C1392 1.367 . S
C1393 C1395 1.433 1_565 S
C1394 C1390 1.350 . S
C1394 C1391 1.463 . S
C1394 N1398 1.427 1_565 S
C1395 H1385 0.929 . S
C1395 C1393 1.433 1_545 S
C1395 N1398 1.384 . S
C1396 H1387 0.929 1_565 S
C1396 C1388 1.378 . S
C1396 C1391 1.350 . S
C1397 H1384 0.929 . S
C1397 C1389 1.433 . S
C1397 N1399 1.384 . S
N1398 C1394 1.427 1_545 S
N1398 C1395 1.384 . S
N1399 C1391 1.427 . S
N1399 C1397 1.384 . S
H1400 C1406 0.930 . S
H1401 C1410 0.930 . S
H1402 C1415 0.929 . S
H1403 C1413 0.929 . S
H1404 C1408 0.929 . S
H1405 C1414 0.929 . S
C1406 H1400 0.930 . S
C1406 C1407 1.367 . S
C1406 C1414 1.378 . S
C1407 C1406 1.367 . S
C1407 C1415 1.433 . S
C1408 H1404 0.929 . S
C1408 C1410 1.378 . S
C1408 C1412 1.350 . S
C1409 C1412 1.463 . S
C1409 C1414 1.350 . S
C1409 N1417 1.427 . S
C1410 H1401 0.930 . S
C1410 C1408 1.378 . S
C1410 C1411 1.367 . S
C1411 C1410 1.367 . S
C1411 C1413 1.433 . S
C1412 C1408 1.350 . S
C1412 C1409 1.463 . S
C1412 N1416 1.427 . S
C1413 H1403 0.929 . S
C1413 C1411 1.433 . S
C1413 N1416 1.384 . S
C1414 H1405 0.929 . S
C1414 C1406 1.378 . S
C1414 C1409 1.350 . S
C1415 H1402 0.929 . S
C1415 C1407 1.433 . S
C1415 N1417 1.384 . S
N1416 C1412 1.427 . S
N1416 C1413 1.384 . S
N1417 C1409 1.427 . S
N1417 C1415 1.384 . S
H1418 C1424 0.930 1_545 S
H1419 C1428 0.930 . S
H1420 C1433 0.929 . S
H1421 C1431 0.929 . S
H1422 C1426 0.929 . S
H1423 C1432 0.929 . S
C1424 H1418 0.930 1_565 S
C1424 C1425 1.367 1_565 S
C1424 C1432 1.378 . S
C1425 C1424 1.367 1_545 S
C1425 C1433 1.433 1_545 S
C1426 H1422 0.929 . S
C1426 C1428 1.378 . S
C1426 C1430 1.350 . S
C1427 C1430 1.463 . S
C1427 C1432 1.350 . S
C1427 N1435 1.427 . S
C1428 H1419 0.930 . S
C1428 C1426 1.378 . S
C1428 C1429 1.367 . S
C1429 C1428 1.367 . S
C1429 C1431 1.433 . S
C1430 C1426 1.350 . S
C1430 C1427 1.463 . S
C1430 N1434 1.427 . S
C1431 H1421 0.929 . S
C1431 C1429 1.433 . S
C1431 N1434 1.384 . S
C1432 H1423 0.929 . S
C1432 C1424 1.378 . S
C1432 C1427 1.350 . S
C1433 H1420 0.929 . S
C1433 C1425 1.433 1_565 S
C1433 N1435 1.384 . S
N1434 C1430 1.427 . S
N1434 C1431 1.384 . S
N1435 C1427 1.427 . S
N1435 C1433 1.384 . S
H1436 C1442 0.930 . S
H1437 C1446 0.930 . S
H1438 C1451 0.929 . S
H1439 C1449 0.929 . S
H1440 C1444 0.929 . S
H1441 C1450 0.929 . S
C1442 H1436 0.930 . S
C1442 C1443 1.367 . S
C1442 C1450 1.378 . S
C1443 C1442 1.367 . S
C1443 C1451 1.433 . S
C1444 H1440 0.929 . S
C1444 C1446 1.378 . S
C1444 C1448 1.350 . S
C1445 C1448 1.463 . S
C1445 C1450 1.350 . S
C1445 N1453 1.427 . S
C1446 H1437 0.930 . S
C1446 C1444 1.378 . S
C1446 C1447 1.367 . S
C1447 C1446 1.367 . S
C1447 C1449 1.433 . S
C1448 C1444 1.350 . S
C1448 C1445 1.463 . S
C1448 N1452 1.427 . S
C1449 H1439 0.929 . S
C1449 C1447 1.433 . S
C1449 N1452 1.384 . S
C1450 H1441 0.929 . S
C1450 C1442 1.378 . S
C1450 C1445 1.350 . S
C1451 H1438 0.929 . S
C1451 C1443 1.433 . S
C1451 N1453 1.384 . S
N1452 C1448 1.427 . S
N1452 C1449 1.384 . S
N1453 C1445 1.427 . S
N1453 C1451 1.384 . S
H1454 C1460 0.930 . S
H1455 C1464 0.930 . S
H1456 C1469 0.929 1_565 S
H1457 C1467 0.929 . S
H1458 C1462 0.929 . S
H1459 C1468 0.929 . S
C1460 H1454 0.930 . S
C1460 C1461 1.367 . S
C1460 C1468 1.378 . S
C1461 C1460 1.367 . S
C1461 C1469 1.433 . S
C1462 H1458 0.929 . S
C1462 C1464 1.378 . S
C1462 C1466 1.350 . S
C1463 C1466 1.463 . S
C1463 C1468 1.350 . S
C1463 N1471 1.427 . S
C1464 H1455 0.930 . S
C1464 C1462 1.378 . S
C1464 C1465 1.367 . S
C1465 C1464 1.367 . S
C1465 C1467 1.433 . S
C1466 C1462 1.350 . S
C1466 C1463 1.463 . S
C1466 N1470 1.427 . S
C1467 H1457 0.929 . S
C1467 C1465 1.433 . S
C1467 N1470 1.384 . S
C1468 H1459 0.929 . S
C1468 C1460 1.378 . S
C1468 C1463 1.350 . S
C1469 H1456 0.929 1_545 S
C1469 C1461 1.433 . S
C1469 N1471 1.384 . S
N1470 C1466 1.427 . S
N1470 C1467 1.384 . S
N1471 C1463 1.427 . S
N1471 C1469 1.384 . S
C471 C224 2.185 . S
C475 C5 2.224 . S
C489 C369 2.498 . S
C493 C39 2.615 . S
C507 C63 2.573 . S
C511 C166 2.549 . S
C525 C427 2.319 . S
C529 C92 2.341 . S
C543 C108 2.405 . S
C547 C121 2.421 . S
C561 C150 2.541 . S
C565 C253 2.435 . S
C579 C179 2.500 . S
C583 C37 2.286 . S
C597 C311 2.469 . S
C601 C208 2.474 . S
C615 C456 2.175 . S
C619 C237 2.224 . S
C633 C271 2.615 . S
C637 C137 2.498 . S
C651 C398 2.550 . S
C655 C295 2.573 . S
C669 C195 2.323 . S
C673 C324 2.344 . S
C687 C340 2.412 . S
C691 C353 2.420 . S
C705 C382 2.533 . S
C709 C21 2.446 . S
C723 C411 2.501 . S
C727 C269 2.285 . S
C741 C79 2.468 . S
C745 C440 2.466 . S
C759 C282 1.156 . S
C763 C3 1.147 . S
C777 C44 0.832 . S
C781 C298 0.844 . S
C795 C61 0.743 . S
C799 C327 0.752 . S
C813 C90 0.987 . S
C817 C240 1.045 . S
C831 C385 0.543 . S
C835 C119 0.594 . S
C849 C148 1.386 . S
C853 C414 1.445 . S
C867 C443 1.009 . S
C871 C177 0.960 . S
C885 C206 1.279 . S
C889 C356 1.336 . S
C903 C50 1.160 . S
C907 C235 1.152 . S
C921 C66 0.834 . S
C925 C276 0.828 . S
C939 C95 0.746 . S
C943 C293 0.759 . S
C957 C8 1.043 . S
C961 C322 0.994 1_545 S
C975 C351 0.580 . S
C979 C153 0.586 . S
C993 C182 1.439 . S
C997 C380 1.373 . S
C1011 C211 0.996 . S
C1015 C409 0.954 . S
C1029 C438 1.273 . S
C1033 C124 1.334 . S
C1047 C129 1.976 . S
C1051 C13 1.979 . S
C1065 C42 1.814 . S
C1069 C390 1.884 . S
C1083 C187 1.714 . S
C1087 C71 1.715 . S
C1101 C448 2.095 . S
C1105 C100 2.093 . S
C1119 C274 1.796 . S
C1123 C158 1.888 . S
C1137 C216 2.096 . S
C1141 C332 2.094 . S
C1155 C245 1.972 . S
C1159 C361 1.969 . S
C1173 C303 1.721 . S
C1177 C419 1.719 . S
C1191 C218 1.446 . S
C1195 C10 1.394 1_565 S
C1209 C363 1.615 1_655 S
C1213 C34 1.516 . S
C1227 C68 1.089 . S
C1231 C160 1.104 . S
C1245 C97 1.667 . S
C1249 C421 1.687 . S
C1263 C126 1.304 . S
C1267 C102 1.351 . S
C1281 C155 1.606 . S
C1285 C247 1.687 1_455 S
C1299 C184 1.894 . S
C1303 C32 1.950 . S
C1317 C305 1.803 . S
C1321 C213 1.765 . S
C1335 C242 1.404 . S
C1339 C450 1.449 . S
C1353 C131 1.622 1_545 S
C1357 C266 1.513 . S
C1371 C392 1.107 . S
C1375 C300 1.080 . S
C1389 C329 1.656 . S
C1393 C189 1.688 1_465 S
C1407 C334 1.348 . S
C1411 C358 1.313 . S
C1425 C15 1.691 . S
C1429 C387 1.619 . S
C1443 C416 1.883 . S
C1447 C264 1.943 . S
C1461 C73 1.809 1_645 S
C1465 C445 1.766 . S
